# Generated by pormake.
# Topology ukd, (4)-cn, num edge types: 1
# Building blocks:
#     Node 0, Type 0, BuildingBlock: QUQFOY_clean_sbu_1, # of connection points: 4
#     Node 1, Type 0, BuildingBlock: QUQFOY_clean_sbu_1, # of connection points: 4
#     Node 2, Type 0, BuildingBlock: QUQFOY_clean_sbu_1, # of connection points: 4
#     Node 3, Type 0, BuildingBlock: QUQFOY_clean_sbu_1, # of connection points: 4
#     Node 4, Type 0, BuildingBlock: QUQFOY_clean_sbu_1, # of connection points: 4
#     Node 5, Type 0, BuildingBlock: QUQFOY_clean_sbu_1, # of connection points: 4
#     Node 6, Type 0, BuildingBlock: QUQFOY_clean_sbu_1, # of connection points: 4
#     Node 7, Type 0, BuildingBlock: QUQFOY_clean_sbu_1, # of connection points: 4
#     Node 8, Type 0, BuildingBlock: QUQFOY_clean_sbu_1, # of connection points: 4
#     Node 9, Type 0, BuildingBlock: QUQFOY_clean_sbu_1, # of connection points: 4
#     Node 10, Type 0, BuildingBlock: QUQFOY_clean_sbu_1, # of connection points: 4
#     Node 11, Type 0, BuildingBlock: QUQFOY_clean_sbu_1, # of connection points: 4
#     Node 12, Type 0, BuildingBlock: QUQFOY_clean_sbu_1, # of connection points: 4
#     Node 13, Type 0, BuildingBlock: QUQFOY_clean_sbu_1, # of connection points: 4
#     Node 14, Type 0, BuildingBlock: QUQFOY_clean_sbu_1, # of connection points: 4
#     Node 15, Type 0, BuildingBlock: QUQFOY_clean_sbu_1, # of connection points: 4
#     Node 16, Type 0, BuildingBlock: QUQFOY_clean_sbu_1, # of connection points: 4
#     Node 17, Type 0, BuildingBlock: QUQFOY_clean_sbu_1, # of connection points: 4
#     Node 18, Type 0, BuildingBlock: QUQFOY_clean_sbu_1, # of connection points: 4
#     Node 19, Type 0, BuildingBlock: QUQFOY_clean_sbu_1, # of connection points: 4
#     Node 20, Type 0, BuildingBlock: QUQFOY_clean_sbu_1, # of connection points: 4
#     Node 21, Type 0, BuildingBlock: QUQFOY_clean_sbu_1, # of connection points: 4
#     Node 22, Type 0, BuildingBlock: QUQFOY_clean_sbu_1, # of connection points: 4
#     Node 23, Type 0, BuildingBlock: QUQFOY_clean_sbu_1, # of connection points: 4
#     Node 24, Type 0, BuildingBlock: QUQFOY_clean_sbu_1, # of connection points: 4
#     Node 25, Type 0, BuildingBlock: QUQFOY_clean_sbu_1, # of connection points: 4
#     Node 26, Type 0, BuildingBlock: QUQFOY_clean_sbu_1, # of connection points: 4
#     Node 27, Type 0, BuildingBlock: QUQFOY_clean_sbu_1, # of connection points: 4
#     Node 28, Type 0, BuildingBlock: QUQFOY_clean_sbu_1, # of connection points: 4
#     Node 29, Type 0, BuildingBlock: QUQFOY_clean_sbu_1, # of connection points: 4
#     Node 30, Type 0, BuildingBlock: QUQFOY_clean_sbu_1, # of connection points: 4
#     Node 31, Type 0, BuildingBlock: QUQFOY_clean_sbu_1, # of connection points: 4
#     Edge 32, Type (0, 0), BuildingBlock: EZIPEK_clean_linker_0, # of connection points: 2
#     Edge 33, Type (0, 0), BuildingBlock: EZIPEK_clean_linker_0, # of connection points: 2
#     Edge 34, Type (0, 0), BuildingBlock: EZIPEK_clean_linker_0, # of connection points: 2
#     Edge 35, Type (0, 0), BuildingBlock: EZIPEK_clean_linker_0, # of connection points: 2
#     Edge 36, Type (0, 0), BuildingBlock: EZIPEK_clean_linker_0, # of connection points: 2
#     Edge 37, Type (0, 0), BuildingBlock: EZIPEK_clean_linker_0, # of connection points: 2
#     Edge 38, Type (0, 0), BuildingBlock: EZIPEK_clean_linker_0, # of connection points: 2
#     Edge 39, Type (0, 0), BuildingBlock: EZIPEK_clean_linker_0, # of connection points: 2
#     Edge 40, Type (0, 0), BuildingBlock: EZIPEK_clean_linker_0, # of connection points: 2
#     Edge 41, Type (0, 0), BuildingBlock: EZIPEK_clean_linker_0, # of connection points: 2
#     Edge 42, Type (0, 0), BuildingBlock: EZIPEK_clean_linker_0, # of connection points: 2
#     Edge 43, Type (0, 0), BuildingBlock: EZIPEK_clean_linker_0, # of connection points: 2
#     Edge 44, Type (0, 0), BuildingBlock: EZIPEK_clean_linker_0, # of connection points: 2
#     Edge 45, Type (0, 0), BuildingBlock: EZIPEK_clean_linker_0, # of connection points: 2
#     Edge 46, Type (0, 0), BuildingBlock: EZIPEK_clean_linker_0, # of connection points: 2
#     Edge 47, Type (0, 0), BuildingBlock: EZIPEK_clean_linker_0, # of connection points: 2
#     Edge 48, Type (0, 0), BuildingBlock: EZIPEK_clean_linker_0, # of connection points: 2
#     Edge 49, Type (0, 0), BuildingBlock: EZIPEK_clean_linker_0, # of connection points: 2
#     Edge 50, Type (0, 0), BuildingBlock: EZIPEK_clean_linker_0, # of connection points: 2
#     Edge 51, Type (0, 0), BuildingBlock: EZIPEK_clean_linker_0, # of connection points: 2
#     Edge 52, Type (0, 0), BuildingBlock: EZIPEK_clean_linker_0, # of connection points: 2
#     Edge 53, Type (0, 0), BuildingBlock: EZIPEK_clean_linker_0, # of connection points: 2
#     Edge 54, Type (0, 0), BuildingBlock: EZIPEK_clean_linker_0, # of connection points: 2
#     Edge 55, Type (0, 0), BuildingBlock: EZIPEK_clean_linker_0, # of connection points: 2
#     Edge 56, Type (0, 0), BuildingBlock: EZIPEK_clean_linker_0, # of connection points: 2
#     Edge 57, Type (0, 0), BuildingBlock: EZIPEK_clean_linker_0, # of connection points: 2
#     Edge 58, Type (0, 0), BuildingBlock: EZIPEK_clean_linker_0, # of connection points: 2
#     Edge 59, Type (0, 0), BuildingBlock: EZIPEK_clean_linker_0, # of connection points: 2
#     Edge 60, Type (0, 0), BuildingBlock: EZIPEK_clean_linker_0, # of connection points: 2
#     Edge 61, Type (0, 0), BuildingBlock: EZIPEK_clean_linker_0, # of connection points: 2
#     Edge 62, Type (0, 0), BuildingBlock: EZIPEK_clean_linker_0, # of connection points: 2
#     Edge 63, Type (0, 0), BuildingBlock: EZIPEK_clean_linker_0, # of connection points: 2
#     Edge 64, Type (0, 0), BuildingBlock: EZIPEK_clean_linker_0, # of connection points: 2
#     Edge 65, Type (0, 0), BuildingBlock: EZIPEK_clean_linker_0, # of connection points: 2
#     Edge 66, Type (0, 0), BuildingBlock: EZIPEK_clean_linker_0, # of connection points: 2
#     Edge 67, Type (0, 0), BuildingBlock: EZIPEK_clean_linker_0, # of connection points: 2
#     Edge 68, Type (0, 0), BuildingBlock: EZIPEK_clean_linker_0, # of connection points: 2
#     Edge 69, Type (0, 0), BuildingBlock: EZIPEK_clean_linker_0, # of connection points: 2
#     Edge 70, Type (0, 0), BuildingBlock: EZIPEK_clean_linker_0, # of connection points: 2
#     Edge 71, Type (0, 0), BuildingBlock: EZIPEK_clean_linker_0, # of connection points: 2
#     Edge 72, Type (0, 0), BuildingBlock: EZIPEK_clean_linker_0, # of connection points: 2
#     Edge 73, Type (0, 0), BuildingBlock: EZIPEK_clean_linker_0, # of connection points: 2
#     Edge 74, Type (0, 0), BuildingBlock: EZIPEK_clean_linker_0, # of connection points: 2
#     Edge 75, Type (0, 0), BuildingBlock: EZIPEK_clean_linker_0, # of connection points: 2
#     Edge 76, Type (0, 0), BuildingBlock: EZIPEK_clean_linker_0, # of connection points: 2
#     Edge 77, Type (0, 0), BuildingBlock: EZIPEK_clean_linker_0, # of connection points: 2
#     Edge 78, Type (0, 0), BuildingBlock: EZIPEK_clean_linker_0, # of connection points: 2
#     Edge 79, Type (0, 0), BuildingBlock: EZIPEK_clean_linker_0, # of connection points: 2
#     Edge 80, Type (0, 0), BuildingBlock: EZIPEK_clean_linker_0, # of connection points: 2
#     Edge 81, Type (0, 0), BuildingBlock: EZIPEK_clean_linker_0, # of connection points: 2
#     Edge 82, Type (0, 0), BuildingBlock: EZIPEK_clean_linker_0, # of connection points: 2
#     Edge 83, Type (0, 0), BuildingBlock: EZIPEK_clean_linker_0, # of connection points: 2
#     Edge 84, Type (0, 0), BuildingBlock: EZIPEK_clean_linker_0, # of connection points: 2
#     Edge 85, Type (0, 0), BuildingBlock: EZIPEK_clean_linker_0, # of connection points: 2
#     Edge 86, Type (0, 0), BuildingBlock: EZIPEK_clean_linker_0, # of connection points: 2
#     Edge 87, Type (0, 0), BuildingBlock: EZIPEK_clean_linker_0, # of connection points: 2
#     Edge 88, Type (0, 0), BuildingBlock: EZIPEK_clean_linker_0, # of connection points: 2
#     Edge 89, Type (0, 0), BuildingBlock: EZIPEK_clean_linker_0, # of connection points: 2
#     Edge 90, Type (0, 0), BuildingBlock: EZIPEK_clean_linker_0, # of connection points: 2
#     Edge 91, Type (0, 0), BuildingBlock: EZIPEK_clean_linker_0, # of connection points: 2
#     Edge 92, Type (0, 0), BuildingBlock: EZIPEK_clean_linker_0, # of connection points: 2
#     Edge 93, Type (0, 0), BuildingBlock: EZIPEK_clean_linker_0, # of connection points: 2
#     Edge 94, Type (0, 0), BuildingBlock: EZIPEK_clean_linker_0, # of connection points: 2
#     Edge 95, Type (0, 0), BuildingBlock: EZIPEK_clean_linker_0, # of connection points: 2
# Relax obj value: 0.012
# Max RMSD: 0.047
# Mean RMSD: 0.047
data_MOF--net-ukd--node1-QUQFOY_clean_sbu_1--edge1-EZIPEK_clean_linker_0
_symmetry_space_group_name_H-M    P1
_symmetry_Int_Tables_number       1
_symmetry_cell_setting            triclinic
loop_
_symmetry_equiv_pos_as_xyz
'x, y, z'
_cell_length_a     34.224139
_cell_length_b     34.342188
_cell_length_c     58.422232
_cell_angle_alpha  89.82628
_cell_angle_beta   90.19215
_cell_angle_gamma 89.979746
loop_
_atom_site_label
_atom_site_type_symbol
_atom_site_fract_x
_atom_site_fract_y
_atom_site_fract_z
_atom_type_partial_charge
O0 O 0.18204 0.1552 0.38689 0.0
Cd1 Cd 0.23109 0.18996 0.38923 0.0
Cd2 Cd 0.20517 0.21376 0.34765 0.0
O3 O 0.16909 0.16533 0.35029 0.0
O4 O 0.26802 0.162 0.40999 0.0
O5 O 0.27971 0.17265 0.37311 0.0
C6 C 0.28996 0.15684 0.39233 0.0
C7 C 0.23331 0.23076 0.31255 0.0
C8 C 0.16182 0.14805 0.36911 0.0
C9 C 0.20022 0.26916 0.38857 0.0
O10 O 0.19057 0.26048 0.36816 0.0
O11 O 0.22068 0.24588 0.40058 0.0
O12 O 0.19649 0.23522 0.31613 0.0
O13 O 0.25431 0.21537 0.3286 0.0
O14 O 0.11298 0.93882 0.63023 0.0
Cd15 Cd 0.07598 0.98629 0.62996 0.0
Cd16 Cd 0.04493 0.94387 0.59486 0.0
O17 O 0.0889 0.90397 0.60189 0.0
O18 O 0.10476 0.0229 0.65052 0.0
O19 O 0.09465 0.03476 0.61371 0.0
C20 C 0.11085 0.04451 0.63286 0.0
C21 C 0.03246 0.97222 0.55922 0.0
C22 C 0.11314 0.90795 0.6183 0.0
C23 C 0.99467 0.95537 0.63637 0.0
O24 O 0.99873 0.93963 0.61691 0.0
O25 O 0.02111 0.97741 0.64462 0.0
O26 O 0.02306 0.93649 0.56335 0.0
O27 O 0.05066 0.99145 0.57499 0.0
O28 O 0.33761 0.85938 0.88711 0.0
Cd29 Cd 0.28655 0.82707 0.88544 0.0
Cd30 Cd 0.31898 0.80697 0.84598 0.0
O31 O 0.35296 0.85587 0.8505 0.0
O32 O 0.2479 0.85452 0.90511 0.0
O33 O 0.24182 0.84917 0.86737 0.0
C34 C 0.22923 0.86305 0.88653 0.0
C35 C 0.29247 0.79059 0.81036 0.0
C36 C 0.35905 0.86956 0.87039 0.0
C37 C 0.31716 0.74825 0.88488 0.0
O38 O 0.33332 0.76024 0.8666 0.0
O39 O 0.29114 0.76888 0.89448 0.0
O40 O 0.32933 0.78708 0.8144 0.0
O41 O 0.27061 0.80493 0.82623 0.0
O42 O 0.40757 0.07865 0.13334 0.0
Cd43 Cd 0.44583 0.03222 0.13322 0.0
Cd44 Cd 0.47444 0.07537 0.0976 0.0
O45 O 0.42971 0.11391 0.10465 0.0
O46 O 0.41968 0.99687 0.1556 0.0
O47 O 0.42573 0.98248 0.11893 0.0
C48 C 0.41139 0.97419 0.13877 0.0
C49 C 0.48668 0.04754 0.0621 0.0
C50 C 0.40614 0.10939 0.12124 0.0
C51 C 0.52657 0.06566 0.13853 0.0
O52 O 0.5212 0.08137 0.1191 0.0
O53 O 0.50112 0.0429 0.14714 0.0
O54 O 0.49455 0.0837 0.06591 0.0
O55 O 0.47019 0.02747 0.07815 0.0
O56 O 0.18093 0.8604 0.15279 0.0
Cd57 Cd 0.23025 0.82573 0.15142 0.0
Cd58 Cd 0.20104 0.80027 0.19136 0.0
O59 O 0.16608 0.84954 0.18899 0.0
O60 O 0.26763 0.85363 0.131 0.0
O61 O 0.27857 0.84332 0.16801 0.0
C62 C 0.28933 0.85878 0.14883 0.0
C63 C 0.23166 0.78282 0.22572 0.0
C64 C 0.1598 0.86729 0.17017 0.0
C65 C 0.19849 0.74653 0.15024 0.0
O66 O 0.18587 0.75462 0.1701 0.0
O67 O 0.22096 0.76985 0.13967 0.0
O68 O 0.19451 0.77878 0.223 0.0
O69 O 0.25159 0.79778 0.20914 0.0
O70 O 0.4054 0.93398 0.40816 0.0
Cd71 Cd 0.44359 0.98063 0.40914 0.0
Cd72 Cd 0.47205 0.93578 0.444 0.0
O73 O 0.42691 0.89753 0.43658 0.0
O74 O 0.41802 0.01643 0.38665 0.0
O75 O 0.42304 0.03011 0.42348 0.0
C76 C 0.40944 0.03891 0.40348 0.0
C77 C 0.48358 0.96664 0.47875 0.0
C78 C 0.40345 0.90284 0.41991 0.0
C79 C 0.52491 0.94799 0.40403 0.0
O80 O 0.51916 0.93033 0.42282 0.0
O81 O 0.49957 0.97154 0.39595 0.0
O82 O 0.49166 0.93019 0.4761 0.0
O83 O 0.46696 0.98515 0.46202 0.0
O84 O 0.34269 0.15758 0.65222 0.0
Cd85 Cd 0.29282 0.19157 0.65115 0.0
Cd86 Cd 0.32319 0.21636 0.69165 0.0
O87 O 0.35925 0.16815 0.68824 0.0
O88 O 0.25838 0.16549 0.62823 0.0
O89 O 0.24341 0.17008 0.66499 0.0
C90 C 0.23511 0.15703 0.64483 0.0
C91 C 0.29342 0.23108 0.72648 0.0
C92 C 0.36471 0.15071 0.66933 0.0
C93 C 0.32281 0.2722 0.65139 0.0
O94 O 0.33614 0.26375 0.67111 0.0
O95 O 0.30084 0.24858 0.64066 0.0
O96 O 0.33034 0.23631 0.72351 0.0
O97 O 0.27328 0.21634 0.70989 0.0
O98 O 0.10692 0.08787 0.90133 0.0
Cd99 Cd 0.07351 0.03808 0.89996 0.0
Cd100 Cd 0.0478 0.06664 0.94008 0.0
O101 O 0.09551 0.10339 0.93735 0.0
O102 O 0.1015 1.00404 0.87786 0.0
O103 O 0.09513 0.9896 0.91469 0.0
C104 C 0.1098 0.98152 0.8949 0.0
C105 C 0.0334 0.03575 0.97476 0.0
C106 C 0.11322 0.10943 0.91857 0.0
C107 C 0.99329 0.06839 0.89901 0.0
O108 O 1.00121 0.08063 0.919 0.0
O109 O 0.01704 0.04655 0.88836 0.0
O110 O 0.02725 0.07248 0.97191 0.0
O111 O 0.04843 0.01637 0.95803 0.0
O112 O 0.83971 0.75721 0.67121 0.0
Cd113 Cd 0.82389 0.80398 0.69139 0.0
Cd114 Cd 0.79372 0.82649 0.65072 0.0
O115 O 0.80304 0.76947 0.64084 0.0
O116 O 0.83156 0.78452 0.72338 0.0
O117 O 0.77377 0.80156 0.70936 0.0
C118 C 0.79438 0.78788 0.72612 0.0
C119 C 0.73531 0.86013 0.64517 0.0
C120 C 0.82633 0.74732 0.65177 0.0
C121 C 0.86367 0.87016 0.66871 0.0
O122 O 0.84291 0.86147 0.65137 0.0
O123 O 0.85759 0.85378 0.68793 0.0
O124 O 0.75758 0.85143 0.62815 0.0
O125 O 0.74488 0.84751 0.66529 0.0
O126 O 0.90826 0.07899 0.4007 0.0
Cd127 Cd 0.94576 0.03197 0.40172 0.0
Cd128 Cd 0.97325 0.07383 0.43805 0.0
O129 O 0.92831 0.11244 0.43062 0.0
O130 O 0.91961 0.99619 0.37957 0.0
O131 O 0.925 0.98287 0.41651 0.0
C132 C 0.91096 0.97406 0.39665 0.0
C133 C 0.98475 0.04442 0.47348 0.0
C134 C 0.90592 0.10896 0.4133 0.0
C135 C 0.02696 0.06463 0.39794 0.0
O136 O 0.02073 0.08046 0.41718 0.0
O137 O 1.00189 0.04184 0.38896 0.0
O138 O 0.99211 0.08088 0.47025 0.0
O139 O 0.96903 0.02494 0.45693 0.0
O140 O 0.68918 0.26698 0.16418 0.0
Cd141 Cd 0.6998 0.22193 0.18718 0.0
Cd142 Cd 0.73043 0.19022 0.14779 0.0
O143 O 0.72248 0.24535 0.13441 0.0
O144 O 0.6909 0.24574 0.21797 0.0
O145 O 0.74819 0.22245 0.20703 0.0
C146 C 0.72724 0.23939 0.22243 0.0
C147 C 0.78781 0.15454 0.14268 0.0
C148 C 0.70184 0.27147 0.1439 0.0
C149 C 0.65807 0.1532 0.16757 0.0
O150 O 0.68053 0.15688 0.15043 0.0
O151 O 0.66322 0.17382 0.18539 0.0
O152 O 0.76403 0.16093 0.12593 0.0
O153 O 0.78021 0.17024 0.16224 0.0
O154 O 0.60951 0.92635 0.90299 0.0
Cd155 Cd 0.57719 0.97711 0.90273 0.0
Cd156 Cd 0.55141 0.94643 0.94246 0.0
O157 O 0.59807 0.90846 0.9387 0.0
O158 O 0.60483 0.01168 0.88063 0.0
O159 O 0.59981 0.02487 0.91764 0.0
C160 C 0.61356 0.03375 0.89772 0.0
C161 C 0.5375 0.97672 0.97723 0.0
C162 C 0.61536 0.90328 0.9197 0.0
C163 C 0.49593 0.9493 0.90208 0.0
O164 O 0.50388 0.93528 0.92168 0.0
O165 O 0.52014 0.97109 0.89169 0.0
O166 O 0.531 0.9401 0.97429 0.0
O167 O 0.55321 0.99614 0.96067 0.0
O168 O 0.82895 0.26514 0.86724 0.0
Cd169 Cd 0.81724 0.21941 0.84543 0.0
Cd170 Cd 0.78627 0.19151 0.88478 0.0
O171 O 0.79391 0.24729 0.89723 0.0
O172 O 0.82468 0.24165 0.81402 0.0
O173 O 0.76784 0.21936 0.82647 0.0
C174 C 0.788 0.23564 0.81042 0.0
C175 C 0.72897 0.15562 0.88751 0.0
C176 C 0.81572 0.27186 0.88713 0.0
C177 C 0.8595 0.1534 0.8672 0.0
O178 O 0.83634 0.15824 0.88389 0.0
O179 O 0.85496 0.17241 0.84864 0.0
O180 O 0.75035 0.16207 0.90531 0.0
O181 O 0.73872 0.17167 0.86831 0.0
O182 O 0.61572 0.0781 0.63164 0.0
Cd183 Cd 0.57703 0.032 0.63151 0.0
Cd184 Cd 0.54818 0.07522 0.59628 0.0
O185 O 0.59383 0.11333 0.60279 0.0
O186 O 0.60421 0.99469 0.65253 0.0
O187 O 0.59535 0.98316 0.61563 0.0
C188 C 0.61066 0.97305 0.63499 0.0
C189 C 0.53524 0.04443 0.56161 0.0
C190 C 0.61758 0.10865 0.61939 0.0
C191 C 0.49672 0.0661 0.63733 0.0
O192 O 0.50197 0.08215 0.618 0.0
O193 O 0.52205 0.04282 0.64572 0.0
O194 O 0.52754 0.08093 0.56437 0.0
O195 O 0.55202 0.02575 0.5782 0.0
O196 O 0.67892 0.76129 0.36463 0.0
Cd197 Cd 0.69728 0.80756 0.34478 0.0
Cd198 Cd 0.73049 0.82396 0.384 0.0
O199 O 0.72471 0.76494 0.39099 0.0
O200 O 0.68902 0.79009 0.31247 0.0
O201 O 0.7475 0.8022 0.32723 0.0
C202 C 0.72647 0.79043 0.31019 0.0
C203 C 0.78877 0.8585 0.38641 0.0
C204 C 0.69638 0.74667 0.38187 0.0
C205 C 0.65986 0.87037 0.36958 0.0
O206 O 0.67996 0.85736 0.3863 0.0
O207 O 0.66676 0.85873 0.34936 0.0
O208 O 0.76986 0.84884 0.40464 0.0
O209 O 0.77583 0.84656 0.36683 0.0
O210 O 0.90742 0.93475 0.1316 0.0
Cd211 Cd 0.9453 0.98153 0.13146 0.0
Cd212 Cd 0.97614 0.93829 0.09686 0.0
O213 O 0.93232 0.89882 0.10411 0.0
O214 O 0.91692 0.01905 0.15155 0.0
O215 O 0.92752 0.02994 0.11472 0.0
C216 C 0.91132 0.04037 0.13368 0.0
C217 C 0.98733 0.96544 0.06094 0.0
C218 C 0.90753 0.90349 0.12004 0.0
C219 C 0.02671 0.9502 0.13823 0.0
O220 O 0.02273 0.93444 0.11875 0.0
O221 O 1.00009 0.97203 0.14642 0.0
O222 O 0.99664 0.92974 0.06528 0.0
O223 O 0.97028 0.98543 0.07675 0.0
O224 O 0.67619 0.65421 0.88336 0.0
Cd225 Cd 0.72617 0.68774 0.88511 0.0
Cd226 Cd 0.69622 0.71608 0.84557 0.0
O227 O 0.65997 0.66787 0.84762 0.0
O228 O 0.76295 0.65804 0.90521 0.0
O229 O 0.77389 0.6693 0.86835 0.0
C230 C 0.78431 0.65279 0.88734 0.0
C231 C 0.72511 0.7336 0.81084 0.0
C232 C 0.65421 0.64899 0.86607 0.0
C233 C 0.69634 0.76795 0.88762 0.0
O234 O 0.68336 0.76136 0.86759 0.0
O235 O 0.71818 0.74335 0.89778 0.0
O236 O 0.68834 0.73885 0.81433 0.0
O237 O 0.74564 0.71755 0.8269 0.0
O238 O 0.62201 0.42891 0.12635 0.0
Cd239 Cd 0.5843 0.47507 0.13107 0.0
Cd240 Cd 0.55252 0.44469 0.09227 0.0
O241 O 0.60048 0.40776 0.09328 0.0
O242 O 0.61587 0.50888 0.15173 0.0
O243 O 0.59501 0.52836 0.1179 0.0
C244 C 0.61542 0.53537 0.13605 0.0
C245 C 0.53476 0.47614 0.0583 0.0
C246 C 0.62502 0.40562 0.1096 0.0
C247 C 0.50438 0.44294 0.1358 0.0
O248 O 0.50799 0.43285 0.115 0.0
O249 O 0.53099 0.46231 0.1459 0.0
O250 O 0.52878 0.43939 0.06111 0.0
O251 O 0.55169 0.49518 0.07459 0.0
O252 O 0.83364 0.35498 0.38746 0.0
Cd253 Cd 0.78373 0.32128 0.38495 0.0
Cd254 Cd 0.81754 0.30558 0.3453 0.0
O255 O 0.84912 0.35585 0.35086 0.0
O256 O 0.74526 0.34587 0.40601 0.0
O257 O 0.7378 0.34396 0.36824 0.0
C258 C 0.72582 0.35594 0.38798 0.0
C259 C 0.7904 0.2907 0.30959 0.0
C260 C 0.85423 0.36819 0.37113 0.0
C261 C 0.8186 0.24429 0.3828 0.0
O262 O 0.83463 0.25841 0.365 0.0
O263 O 0.79092 0.26266 0.39243 0.0
O264 O 0.8276 0.28919 0.31297 0.0
O265 O 0.76844 0.30199 0.32625 0.0
O266 O 0.91434 0.58716 0.63858 0.0
Cd267 Cd 0.94683 0.53641 0.63835 0.0
Cd268 Cd 0.97271 0.56874 0.59881 0.0
O269 O 0.92559 0.60579 0.60296 0.0
O270 O 0.9193 0.50031 0.65971 0.0
O271 O 0.92434 0.48957 0.62242 0.0
C272 C 0.91062 0.47936 0.64213 0.0
C273 C 0.98869 0.54226 0.56332 0.0
C274 C 0.9083 0.61047 0.622 0.0
C275 C 0.02783 0.56488 0.63932 0.0
O276 O 0.01966 0.57958 0.61993 0.0
O277 O 1.00398 0.54227 0.64939 0.0
O278 O 0.99392 0.5787 0.5675 0.0
O279 O 0.97298 0.52083 0.579 0.0
O280 O 0.68889 0.36044 0.64895 0.0
Cd281 Cd 0.73619 0.32316 0.65212 0.0
Cd282 Cd 0.69313 0.30152 0.6887 0.0
O283 O 0.65693 0.34745 0.68073 0.0
O284 O 0.77609 0.34781 0.63183 0.0
O285 O 0.78224 0.34441 0.66957 0.0
C286 C 0.79507 0.35696 0.65013 0.0
C287 C 0.72023 0.28907 0.72467 0.0
C288 C 0.65998 0.36643 0.66209 0.0
C289 C 0.70209 0.24349 0.65049 0.0
O290 O 0.68422 0.25398 0.66846 0.0
O291 O 0.72832 0.2653 0.64184 0.0
O292 O 0.68356 0.28329 0.72077 0.0
O293 O 0.74128 0.30379 0.70846 0.0
O294 O 0.90636 0.42745 0.90218 0.0
Cd295 Cd 0.93991 0.4773 0.90156 0.0
Cd296 Cd 0.96547 0.44613 0.94154 0.0
O297 O 0.91747 0.40998 0.93804 0.0
O298 O 0.91225 0.51206 0.87942 0.0
O299 O 0.91802 0.52548 0.91637 0.0
C300 C 0.90368 0.53415 0.8965 0.0
C301 C 0.98132 0.47437 0.97671 0.0
C302 C 0.89986 0.40503 0.91906 0.0
C303 C 0.02007 0.44649 0.90072 0.0
O304 O 0.01181 0.43301 0.9204 0.0
O305 O 0.99659 0.46917 0.89029 0.0
O306 O 0.98647 0.43771 0.97317 0.0
O307 O 0.96615 0.49512 0.96047 0.0
O308 O 0.842 0.65423 0.15383 0.0
Cd309 Cd 0.79217 0.68847 0.15243 0.0
Cd310 Cd 0.82312 0.71186 0.19206 0.0
O311 O 0.85789 0.66298 0.19006 0.0
O312 O 0.75693 0.65827 0.13187 0.0
O313 O 0.74181 0.6726 0.16751 0.0
C314 C 0.73291 0.65486 0.14874 0.0
C315 C 0.79408 0.73055 0.22646 0.0
C316 C 0.86361 0.64636 0.17096 0.0
C317 C 0.82428 0.7669 0.151 0.0
O318 O 0.83816 0.75694 0.17039 0.0
O319 O 0.79983 0.74499 0.14088 0.0
O320 O 0.83109 0.73446 0.22324 0.0
O321 O 0.77345 0.71471 0.21044 0.0
O322 O 0.60799 0.58052 0.40099 0.0
Cd323 Cd 0.57214 0.53204 0.40439 0.0
Cd324 Cd 0.55038 0.57568 0.44077 0.0
O325 O 0.59536 0.61277 0.43266 0.0
O326 O 0.59624 0.49501 0.38229 0.0
O327 O 0.59581 0.48487 0.41975 0.0
C328 C 0.60713 0.47436 0.39962 0.0
C329 C 0.53743 0.54877 0.47653 0.0
C330 C 0.61376 0.60978 0.41387 0.0
C331 C 0.49119 0.56363 0.40339 0.0
O332 O 0.50229 0.5831 0.42064 0.0
O333 O 0.51329 0.53745 0.39508 0.0
O334 O 0.53116 0.5852 0.4725 0.0
O335 O 0.55367 0.52807 0.46073 0.0
O336 O 0.33945 0.25679 0.17048 0.0
Cd337 Cd 0.32532 0.30298 0.19137 0.0
Cd338 Cd 0.29364 0.32501 0.15176 0.0
O339 O 0.2975 0.267 0.14244 0.0
O340 O 0.3355 0.2831 0.22309 0.0
O341 O 0.27662 0.2996 0.21063 0.0
C342 C 0.2985 0.28572 0.22676 0.0
C343 C 0.2368 0.36188 0.15009 0.0
C344 C 0.32322 0.24569 0.152 0.0
C345 C 0.36666 0.36569 0.1677 0.0
O346 O 0.34533 0.35637 0.15072 0.0
O347 O 0.35983 0.35174 0.18746 0.0
O348 O 0.25583 0.35347 0.13173 0.0
O349 O 0.24881 0.34753 0.16936 0.0
O350 O 0.40172 0.58067 0.90292 0.0
Cd351 Cd 0.43976 0.53401 0.90285 0.0
Cd352 Cd 0.46968 0.57677 0.93824 0.0
O353 O 0.42515 0.61578 0.93132 0.0
O354 O 0.41277 0.49868 0.88086 0.0
O355 O 0.42062 0.48414 0.91749 0.0
C356 C 0.40562 0.47575 0.8978 0.0
C357 C 0.48248 0.54855 0.97374 0.0
C358 C 0.40094 0.61141 0.91494 0.0
C359 C 0.52068 0.56636 0.89704 0.0
O360 O 0.51604 0.58202 0.91647 0.0
O361 O 0.49463 0.54416 0.88854 0.0
O362 O 0.49115 0.5845 0.96973 0.0
O363 O 0.46468 0.52904 0.95792 0.0
O364 O 0.18388 0.76001 0.66848 0.0
Cd365 Cd 0.20228 0.71494 0.68943 0.0
Cd366 Cd 0.23203 0.69438 0.64951 0.0
O367 O 0.22509 0.75222 0.64001 0.0
O368 O 0.19276 0.73439 0.7212 0.0
O369 O 0.25179 0.72107 0.70791 0.0
C370 C 0.23001 0.73355 0.72435 0.0
C371 C 0.28969 0.65887 0.64814 0.0
C372 C 0.19863 0.77209 0.64979 0.0
C373 C 0.16312 0.64967 0.6671 0.0
O374 O 0.18185 0.66074 0.64949 0.0
O375 O 0.17116 0.66377 0.68663 0.0
O376 O 0.27014 0.66638 0.62971 0.0
O377 O 0.27805 0.67402 0.66718 0.0
O378 O 0.11204 0.43071 0.40049 0.0
Cd379 Cd 0.07451 0.47744 0.39974 0.0
Cd380 Cd 0.05383 0.44976 0.44182 0.0
O381 O 0.09909 0.41047 0.43562 0.0
O382 O 0.09743 0.51374 0.37667 0.0
O383 O 0.0934 0.52768 0.41363 0.0
C384 C 0.10569 0.5368 0.3934 0.0
C385 C 0.04343 0.4779 0.47763 0.0
C386 C 0.11805 0.40729 0.41698 0.0
C387 C 0.99382 0.44547 0.4036 0.0
O388 O 1.00258 0.43908 0.42441 0.0
O389 O 0.01769 0.46293 0.39042 0.0
O390 O 0.03761 0.44131 0.4743 0.0
O391 O 0.05739 0.4984 0.46098 0.0
O392 O 0.3355 0.7603 0.36795 0.0
Cd393 Cd 0.32606 0.71387 0.34692 0.0
Cd394 Cd 0.28047 0.6916 0.38255 0.0
O395 O 0.29101 0.74843 0.39429 0.0
O396 O 0.33734 0.73274 0.31521 0.0
O397 O 0.27857 0.7137 0.3266 0.0
C398 C 0.30066 0.72816 0.3108 0.0
C399 C 0.22035 0.65975 0.38369 0.0
C400 C 0.3178 0.77013 0.38611 0.0
C401 C 0.35553 0.64599 0.37238 0.0
O402 O 0.32578 0.65168 0.3849 0.0
O403 O 0.36067 0.66665 0.35456 0.0
O404 O 0.2397 0.66674 0.40219 0.0
O405 O 0.23323 0.67409 0.36468 0.0
O406 O 0.11127 0.58761 0.13655 0.0
Cd407 Cd 0.07951 0.53661 0.13722 0.0
Cd408 Cd 0.05078 0.56792 0.09786 0.0
O409 O 0.09732 0.60599 0.10117 0.0
O410 O 0.10907 0.50244 0.15882 0.0
O411 O 0.10214 0.48926 0.12191 0.0
C412 C 0.11736 0.48066 0.14157 0.0
C413 C 0.03495 0.54013 0.06258 0.0
C414 C 0.11585 0.61093 0.11986 0.0
C415 C 0.99808 0.56395 0.13945 0.0
O416 O 1.00462 0.57808 0.11971 0.0
O417 O 0.02312 0.54225 0.14934 0.0
O418 O 0.02837 0.57642 0.06657 0.0
O419 O 0.05154 0.51954 0.07841 0.0
O420 O 0.18411 0.2507 0.86846 0.0
Cd421 Cd 0.19567 0.29705 0.84697 0.0
Cd422 Cd 0.22776 0.32348 0.88629 0.0
O423 O 0.21957 0.2676 0.89854 0.0
O424 O 0.18725 0.2758 0.81547 0.0
O425 O 0.24454 0.29739 0.82781 0.0
C426 C 0.22386 0.28172 0.81175 0.0
C427 C 0.28627 0.35752 0.8886 0.0
C428 C 0.19752 0.24342 0.88832 0.0
C429 C 0.15451 0.36288 0.8692 0.0
O430 O 0.17812 0.35763 0.88575 0.0
O431 O 0.1584 0.34412 0.85059 0.0
O432 O 0.26523 0.35161 0.90654 0.0
O433 O 0.27525 0.34222 0.86944 0.0
O434 O 0.41282 0.43095 0.63671 0.0
Cd435 Cd 0.44453 0.48245 0.63462 0.0
Cd436 Cd 0.46179 0.45086 0.59515 0.0
O437 O 0.41198 0.41811 0.59974 0.0
O438 O 0.41979 0.51889 0.65684 0.0
O439 O 0.41858 0.52813 0.61924 0.0
C440 C 0.40774 0.53885 0.63944 0.0
C441 C 0.47844 0.48098 0.56068 0.0
C442 C 0.40055 0.41068 0.61997 0.0
C443 C 0.52309 0.45083 0.63193 0.0
O444 O 0.50871 0.43339 0.61471 0.0
O445 O 0.50411 0.4784 0.64119 0.0
O446 O 0.47976 0.44365 0.56292 0.0
O447 O 0.46572 0.50136 0.57766 0.0
C448 C 0.1194 0.33924 0.40241 0.0
C449 C 0.13992 0.371 0.41218 0.0
C450 C 0.2017 0.33529 0.40787 0.0
C451 C 0.18047 0.30289 0.39932 0.0
N452 N 0.11848 0.27002 0.39535 0.0
N453 N 0.19946 0.39779 0.42745 0.0
C454 C 0.13909 0.30363 0.39882 0.0
C455 C 0.1808 0.36849 0.41606 0.0
N456 N 0.08153 0.34361 0.39538 0.0
N457 N 0.24159 0.33504 0.40719 0.0
H458 H 0.18487 0.42265 0.43311 0.0
H459 H 0.22852 0.39627 0.4327 0.0
H460 H 0.25755 0.3111 0.40149 0.0
H461 H 0.25876 0.35923 0.41091 0.0
H462 H 0.06649 0.32255 0.38605 0.0
H463 H 0.06657 0.3699 0.39662 0.0
H464 H 0.08821 0.26835 0.39699 0.0
H465 H 0.13186 0.24293 0.39337 0.0
C466 C 0.9231 0.95467 0.64561 0.0
C467 C 0.96155 0.94195 0.65062 0.0
C468 C 0.9359 0.88476 0.67067 0.0
C469 C 0.89717 0.89727 0.66562 0.0
N470 N 0.8539 0.94914 0.65409 0.0
N471 N 1.00441 0.90197 0.67352 0.0
C472 C 0.89079 0.93398 0.65496 0.0
C473 C 0.96777 0.90961 0.66529 0.0
N474 N 0.91759 0.98574 0.6313 0.0
N475 N 0.94276 0.84789 0.67866 0.0
H476 H 0.02849 0.91931 0.6696 0.0
H477 H 0.01012 0.88099 0.686 0.0
H478 H 0.9208 0.82772 0.68201 0.0
H479 H 0.97061 0.83583 0.67995 0.0
H480 H 0.89042 0.99375 0.62473 0.0
H481 H 0.9408 1.00252 0.62522 0.0
H482 H 0.84762 0.97707 0.64815 0.0
H483 H 0.83001 0.93508 0.66148 0.0
C484 C 0.35705 0.66849 0.92483 0.0
C485 C 0.37422 0.64389 0.9081 0.0
C486 C 0.33882 0.68015 0.87849 0.0
C487 C 0.32993 0.70991 0.89433 0.0
N488 N 0.3357 0.73394 0.93324 0.0
N489 N 0.3885 0.63468 0.86764 0.0
C490 C 0.33997 0.70448 0.91781 0.0
C491 C 0.36677 0.6516 0.8845 0.0
N492 N 0.35617 0.65734 0.94727 0.0
N493 N 0.32113 0.67948 0.85751 0.0
H494 H 0.41314 0.61771 0.87077 0.0
H495 H 0.38538 0.64221 0.85042 0.0
H496 H 0.29931 0.69929 0.85289 0.0
H497 H 0.3249 0.65661 0.84601 0.0
H498 H 0.34115 0.67297 0.95973 0.0
H499 H 0.36631 0.63029 0.95287 0.0
H500 H 0.34665 0.73225 0.94989 0.0
H501 H 0.32456 0.76124 0.92908 0.0
C502 C 0.59776 0.06625 0.14893 0.0
C503 C 0.55947 0.08045 0.15248 0.0
C504 C 0.58544 0.14025 0.16934 0.0
C505 C 0.62411 0.12631 0.16575 0.0
N506 N 0.66667 0.07183 0.15837 0.0
N507 N 0.51659 0.12446 0.17221 0.0
C508 C 0.63012 0.08781 0.15758 0.0
C509 C 0.55336 0.11508 0.16504 0.0
N510 N 0.60315 0.03297 0.13661 0.0
N511 N 0.57887 0.17841 0.17478 0.0
H512 H 0.49244 0.10674 0.169 0.0
H513 H 0.51079 0.14748 0.18327 0.0
H514 H 0.60095 0.19887 0.17702 0.0
H515 H 0.55113 0.1909 0.17491 0.0
H516 H 0.63039 0.02344 0.13104 0.0
H517 H 0.5798 0.01581 0.13107 0.0
H518 H 0.67248 0.04289 0.15433 0.0
H519 H 0.6906 0.08655 0.16529 0.0
C520 C 0.19936 0.67572 0.1394 0.0
C521 C 0.18131 0.71279 0.1382 0.0
C522 C 0.12155 0.68366 0.12274 0.0
C523 C 0.13973 0.64644 0.12346 0.0
N524 N 0.1981 0.60785 0.12776 0.0
N525 N 0.12969 0.75374 0.12363 0.0
C526 C 0.17943 0.64275 0.13031 0.0
C527 C 0.14392 0.71725 0.12805 0.0
N528 N 0.23488 0.67192 0.14992 0.0
N529 N 0.08225 0.68682 0.11878 0.0
H530 H 0.14508 0.77906 0.12764 0.0
H531 H 0.10443 0.75887 0.1141 0.0
H532 H 0.06417 0.66311 0.11541 0.0
H533 H 0.06672 0.71265 0.12085 0.0
H534 H 0.2477 0.64519 0.15377 0.0
H535 H 0.25072 0.69578 0.15594 0.0
H536 H 0.22789 0.60392 0.13056 0.0
H537 H 0.18434 0.58344 0.12083 0.0
C538 C 0.55474 0.90685 0.37381 0.0
C539 C 0.55942 0.93643 0.39042 0.0
C540 C 0.63063 0.92999 0.3876 0.0
C541 C 0.62562 0.89579 0.37429 0.0
N542 N 0.58187 0.84851 0.35721 0.0
N543 N 0.60121 0.9766 0.4136 0.0
C544 C 0.58746 0.88373 0.36762 0.0
C545 C 0.59728 0.94842 0.39729 0.0
N546 N 0.51875 0.90009 0.36441 0.0
N547 N 0.66721 0.94508 0.39065 0.0
H548 H 0.57736 0.99196 0.42006 0.0
H549 H 0.62769 0.98348 0.42143 0.0
H550 H 0.69201 0.93256 0.38339 0.0
H551 H 0.67258 0.97174 0.39848 0.0
H552 H 0.51429 0.88162 0.35053 0.0
H553 H 0.49392 0.9158 0.36897 0.0
H554 H 0.55438 0.83634 0.3545 0.0
H555 H 0.60442 0.82938 0.35322 0.0
C556 C 0.37022 0.30419 0.62506 0.0
C557 C 0.33767 0.30764 0.63986 0.0
C558 C 0.34095 0.37882 0.63663 0.0
C559 C 0.37683 0.37536 0.62468 0.0
N560 N 0.42886 0.3344 0.61042 0.0
N561 N 0.2926 0.34761 0.6609 0.0
C562 C 0.3921 0.33797 0.61932 0.0
C563 C 0.32302 0.34483 0.64589 0.0
N564 N 0.38069 0.26849 0.61677 0.0
N565 N 0.32366 0.41452 0.63861 0.0
H566 H 0.27776 0.32326 0.66712 0.0
H567 H 0.28345 0.37374 0.66811 0.0
H568 H 0.33571 0.43967 0.63149 0.0
H569 H 0.29587 0.41873 0.64536 0.0
H570 H 0.40137 0.26473 0.60393 0.0
H571 H 0.36636 0.24279 0.62124 0.0
H572 H 0.44327 0.30785 0.6088 0.0
H573 H 0.44676 0.35804 0.60657 0.0
C574 C 0.96537 0.12499 0.87803 0.0
C575 C 0.96027 0.08667 0.88662 0.0
C576 C 0.89087 0.08905 0.87619 0.0
C577 C 0.89488 0.12925 0.87091 0.0
N578 N 0.93521 0.18704 0.86947 0.0
N579 N 0.91882 0.03181 0.89463 0.0
C580 C 0.93204 0.14757 0.87218 0.0
C581 C 0.92323 0.06836 0.88569 0.0
N582 N 1.00221 0.13983 0.87555 0.0
N583 N 0.85622 0.07073 0.87179 0.0
H584 H 0.94232 0.01561 0.90095 0.0
H585 H 0.89185 0.01837 0.89688 0.0
H586 H 0.83236 0.08518 0.86455 0.0
H587 H 0.85212 0.04082 0.87341 0.0
H588 H 1.00806 0.16599 0.86718 0.0
H589 H 0.02736 0.12428 0.87995 0.0
H590 H 0.96064 0.20252 0.8731 0.0
H591 H 0.91168 0.20508 0.86545 0.0
C592 C 0.84531 0.64252 0.63349 0.0
C593 C 0.88467 0.64601 0.62611 0.0
C594 C 0.8806 0.71698 0.62997 0.0
C595 C 0.84354 0.71291 0.64044 0.0
N596 N 0.79065 0.67238 0.65333 0.0
N597 N 0.94198 0.68621 0.62062 0.0
C598 C 0.82569 0.67583 0.64237 0.0
C599 C 0.90281 0.6832 0.6249 0.0
N600 N 0.8266 0.60752 0.63159 0.0
N601 N 0.89466 0.75329 0.62496 0.0
H602 H 0.95998 0.66236 0.61746 0.0
H603 H 0.95756 0.7121 0.62228 0.0
H604 H 0.87941 0.77878 0.62875 0.0
H605 H 0.91957 0.75804 0.61515 0.0
H606 H 0.79693 0.60369 0.63476 0.0
H607 H 0.8401 0.58285 0.62485 0.0
H608 H 0.7781 0.64577 0.65768 0.0
H609 H 0.77505 0.69643 0.65925 0.0
C610 C 0.08919 0.13626 0.36639 0.0
C611 C 0.12734 0.12192 0.37129 0.0
C612 C 0.0989 0.06405 0.38965 0.0
C613 C 0.06108 0.07854 0.38471 0.0
N614 N 0.02008 0.12188 0.36284 0.0
N615 N 0.16851 0.0679 0.38201 0.0
C616 C 0.05631 0.11227 0.37098 0.0
C617 C 0.13216 0.08431 0.38112 0.0
N618 N 0.08387 0.17391 0.35931 0.0
N619 N 0.10295 0.03175 0.40315 0.0
H620 H 0.19313 0.08178 0.37541 0.0
H621 H 0.17366 0.03933 0.38722 0.0
H622 H 0.07902 0.01542 0.40866 0.0
H623 H 0.12965 0.02225 0.40969 0.0
H624 H 0.05652 0.18711 0.35822 0.0
H625 H 0.10665 0.19341 0.35651 0.0
H626 H 0.01529 0.14406 0.35095 0.0
H627 H 0.99535 0.10511 0.36619 0.0
C628 C 0.68668 0.37734 0.12641 0.0
C629 C 0.65445 0.37317 0.11125 0.0
C630 C 0.66151 0.30224 0.11274 0.0
C631 C 0.68945 0.30628 0.13064 0.0
N632 N 0.73119 0.34693 0.15366 0.0
N633 N 0.62779 0.33321 0.08107 0.0
C634 C 0.70327 0.34369 0.13698 0.0
C635 C 0.64683 0.3361 0.10156 0.0
N636 N 0.70245 0.41347 0.12961 0.0
N637 N 0.64706 0.26628 0.10735 0.0
H638 H 0.62164 0.35735 0.07086 0.0
H639 H 0.62381 0.30698 0.07247 0.0
H640 H 0.65703 0.24059 0.11493 0.0
H641 H 0.62304 0.26215 0.09664 0.0
H642 H 0.72753 0.41887 0.13918 0.0
H643 H 0.69258 0.43773 0.12045 0.0
H644 H 0.73943 0.37318 0.16109 0.0
H645 H 0.74528 0.32281 0.1608 0.0
C646 C 0.42359 0.9495 0.89474 0.0
C647 C 0.46114 0.93427 0.88995 0.0
C648 C 0.43192 0.87809 0.87073 0.0
C649 C 0.39414 0.89371 0.87493 0.0
N650 N 0.35403 0.94787 0.88641 0.0
N651 N 0.50167 0.88955 0.86891 0.0
C652 C 0.38999 0.93063 0.88554 0.0
C653 C 0.46542 0.90055 0.87627 0.0
N654 N 0.4201 0.98129 0.9086 0.0
N655 N 0.43605 0.8406 0.86324 0.0
H656 H 0.52713 0.90456 0.87321 0.0
H657 H 0.50614 0.86769 0.85688 0.0
H658 H 0.41261 0.82221 0.85972 0.0
H659 H 0.46283 0.82625 0.86256 0.0
H660 H 0.39353 0.9912 0.91497 0.0
H661 H 0.44426 0.99667 0.9147 0.0
H662 H 0.34947 0.97623 0.89205 0.0
H663 H 0.32906 0.93495 0.87952 0.0
C664 C 0.83581 0.37484 0.90797 0.0
C665 C 0.87513 0.37016 0.91535 0.0
C666 C 0.8694 0.29949 0.91066 0.0
C667 C 0.83256 0.30489 0.89997 0.0
N668 N 0.78035 0.34698 0.88769 0.0
N669 N 0.93139 0.32841 0.92088 0.0
C670 C 0.81542 0.34237 0.89861 0.0
C671 C 0.89234 0.33252 0.91634 0.0
N672 N 0.81799 0.41025 0.91022 0.0
N673 N 0.88268 0.26265 0.91511 0.0
H674 H 0.94986 0.35166 0.92462 0.0
H675 H 0.94641 0.30225 0.91897 0.0
H676 H 0.86695 0.2377 0.91077 0.0
H677 H 0.90743 0.25686 0.92496 0.0
H678 H 0.78845 0.41499 0.90697 0.0
H679 H 0.83216 0.4343 0.91729 0.0
H680 H 0.76823 0.37399 0.88374 0.0
H681 H 0.76417 0.32345 0.88152 0.0
C682 C 0.39311 0.08667 0.65699 0.0
C683 C 0.3989 0.12449 0.66622 0.0
C684 C 0.46984 0.11459 0.66446 0.0
C685 C 0.46379 0.08049 0.65135 0.0
N686 N 0.42027 0.03336 0.63482 0.0
N687 N 0.44345 0.17656 0.67629 0.0
C688 C 0.42555 0.06603 0.64775 0.0
C689 C 0.43746 0.13879 0.66978 0.0
N690 N 0.35667 0.07043 0.65735 0.0
N691 N 0.50678 0.12432 0.67131 0.0
H692 H 0.42097 0.19617 0.67956 0.0
H693 H 0.47087 0.18972 0.67642 0.0
H694 H 0.53116 0.10742 0.66737 0.0
H695 H 0.51271 0.14679 0.68275 0.0
H696 H 0.35096 0.04179 0.6526 0.0
H697 H 0.33264 0.08457 0.66449 0.0
H698 H 0.39303 0.02375 0.62922 0.0
H699 H 0.44366 0.0168 0.62882 0.0
C700 C 0.67812 0.70058 0.41467 0.0
C701 C 0.68247 0.70833 0.39084 0.0
C702 C 0.64078 0.65257 0.38225 0.0
C703 C 0.63955 0.64219 0.40586 0.0
N704 N 0.6689 0.65033 0.44327 0.0
N705 N 0.68031 0.68146 0.35267 0.0
C706 C 0.66203 0.66423 0.42172 0.0
C707 C 0.66809 0.68077 0.37489 0.0
N708 N 0.68675 0.72821 0.43067 0.0
N709 N 0.61407 0.6384 0.36696 0.0
H710 H 0.70202 0.70041 0.34693 0.0
H711 H 0.67237 0.66006 0.34091 0.0
H712 H 0.58989 0.62186 0.37164 0.0
H713 H 0.61286 0.64789 0.34999 0.0
H714 H 0.68021 0.72462 0.44797 0.0
H715 H 0.69651 0.75607 0.42667 0.0
H716 H 0.6877 0.66414 0.45474 0.0
H717 H 0.65985 0.62278 0.44862 0.0
C718 C 0.0871 0.87959 0.1718 0.0
C719 C 0.12551 0.89362 0.16745 0.0
C720 C 0.09805 0.95131 0.14828 0.0
C721 C 0.05997 0.93704 0.15257 0.0
N722 N 0.01794 0.89438 0.17406 0.0
N723 N 0.16726 0.94739 0.15729 0.0
C724 C 0.05452 0.90368 0.1665 0.0
C725 C 0.13086 0.93109 0.15755 0.0
N726 N 0.08128 0.84208 0.17897 0.0
N727 N 0.10278 0.98336 0.13467 0.0
H728 H 0.19154 0.93355 0.16447 0.0
H729 H 0.17271 0.97586 0.15202 0.0
H730 H 0.07913 0.99969 0.12864 0.0
H731 H 0.12978 0.99265 0.12857 0.0
H732 H 0.05381 0.8291 0.17968 0.0
H733 H 0.10379 0.82241 0.18219 0.0
H734 H 0.01262 0.87255 0.18607 0.0
H735 H 0.99336 0.91108 0.17009 0.0
C736 C 0.64414 0.79696 0.9117 0.0
C737 C 0.68029 0.80162 0.90025 0.0
C738 C 0.67827 0.87183 0.90768 0.0
C739 C 0.63938 0.86788 0.91581 0.0
N740 N 0.58309 0.82683 0.92265 0.0
N741 N 0.73191 0.84291 0.88648 0.0
C742 C 0.62188 0.83042 0.91744 0.0
C743 C 0.69762 0.8389 0.89817 0.0
N744 N 0.63085 0.76041 0.9168 0.0
N745 N 0.69676 0.90698 0.90942 0.0
H746 H 0.74745 0.81909 0.8802 0.0
H747 H 0.74388 0.86971 0.882 0.0
H748 H 0.68348 0.93135 0.91666 0.0
H749 H 0.72617 0.91115 0.90564 0.0
H750 H 0.60677 0.75521 0.92723 0.0
H751 H 0.64601 0.73517 0.91241 0.0
H752 H 0.56776 0.80075 0.9213 0.0
H753 H 0.56501 0.85037 0.92635 0.0
C754 C 0.43247 0.44483 0.14383 0.0
C755 C 0.46985 0.4288 0.14853 0.0
C756 C 0.43977 0.37326 0.16805 0.0
C757 C 0.4022 0.38946 0.16364 0.0
N758 N 0.36301 0.44448 0.15223 0.0
N759 N 0.50979 0.3834 0.16975 0.0
C760 C 0.39865 0.42655 0.15306 0.0
C761 C 0.47367 0.39509 0.1624 0.0
N762 N 0.42935 0.47693 0.13006 0.0
N763 N 0.44329 0.33578 0.17582 0.0
H764 H 0.53547 0.39784 0.1653 0.0
H765 H 0.51402 0.36156 0.18192 0.0
H766 H 0.41954 0.3179 0.17951 0.0
H767 H 0.4698 0.32096 0.17665 0.0
H768 H 0.4029 0.48735 0.12367 0.0
H769 H 0.45367 0.49219 0.12411 0.0
H770 H 0.35889 0.47298 0.1466 0.0
H771 H 0.33792 0.43198 0.15918 0.0
C772 C 0.85984 0.16479 0.42265 0.0
C773 C 0.87945 0.14155 0.40617 0.0
C774 C 0.84574 0.17804 0.37593 0.0
C775 C 0.8337 0.20647 0.39192 0.0
N776 N 0.83561 0.22915 0.43125 0.0
N777 N 0.89843 0.13519 0.36623 0.0
C778 C 0.84208 0.20045 0.41559 0.0
C779 C 0.87425 0.15037 0.3825 0.0
N780 N 0.85721 0.15264 0.44486 0.0
N781 N 0.83023 0.17752 0.35437 0.0
H782 H 0.9233 0.11894 0.37006 0.0
H783 H 0.89693 0.14354 0.34907 0.0
H784 H 0.80783 0.19631 0.34928 0.0
H785 H 0.83637 0.15544 0.34269 0.0
H786 H 0.84044 0.16719 0.457 0.0
H787 H 0.86776 0.12574 0.45043 0.0
H788 H 0.84513 0.22706 0.44818 0.0
H789 H 0.82441 0.25642 0.42708 0.0
C790 C 0.09114 0.63626 0.67052 0.0
C791 C 0.12909 0.62338 0.66417 0.0
C792 C 0.10049 0.56683 0.64474 0.0
C793 C 0.06284 0.57959 0.65136 0.0
N794 N 0.02274 0.62017 0.67532 0.0
N795 N 0.17065 0.57211 0.65017 0.0
C796 C 0.05844 0.61199 0.66607 0.0
C797 C 0.134 0.58718 0.65284 0.0
N798 N 0.08571 0.673 0.67894 0.0
N799 N 0.10402 0.53602 0.63014 0.0
H800 H 0.19563 0.58614 0.65625 0.0
H801 H 0.17607 0.54431 0.64387 0.0
H802 H 0.08008 0.51944 0.62489 0.0
H803 H 0.13021 0.52807 0.62243 0.0
H804 H 0.05825 0.68548 0.6812 0.0
H805 H 0.10831 0.69275 0.68168 0.0
H806 H 0.0186 0.64097 0.68803 0.0
H807 H 0.99781 0.6037 0.67191 0.0
C808 C 0.66271 0.16525 0.60966 0.0
C809 C 0.64503 0.14055 0.62628 0.0
C810 C 0.68181 0.17492 0.65595 0.0
C811 C 0.6909 0.20518 0.6404 0.0
N812 N 0.68621 0.23029 0.60164 0.0
N813 N 0.63095 0.13076 0.66677 0.0
C814 C 0.68081 0.20061 0.6169 0.0
C815 C 0.65304 0.14734 0.64989 0.0
N816 N 0.66317 0.15476 0.58715 0.0
N817 N 0.69971 0.1733 0.67685 0.0
H818 H 0.60547 0.1151 0.66367 0.0
H819 H 0.63468 0.1376 0.68402 0.0
H820 H 0.7218 0.19272 0.68148 0.0
H821 H 0.69569 0.15012 0.68819 0.0
H822 H 0.67843 0.17041 0.57474 0.0
H823 H 0.65243 0.12811 0.5814 0.0
H824 H 0.67512 0.22953 0.58501 0.0
H825 H 0.69901 0.25676 0.60592 0.0
C826 C 0.08199 0.36827 0.87414 0.0
C827 C 0.11909 0.38678 0.87316 0.0
C828 C 0.09025 0.4473 0.88783 0.0
C829 C 0.05326 0.42882 0.88836 0.0
N830 N 0.01175 0.37572 0.87674 0.0
N831 N 0.15751 0.44544 0.87458 0.0
C832 C 0.04848 0.39064 0.87966 0.0
C833 C 0.12287 0.4269 0.87858 0.0
N834 N 0.07903 0.32879 0.87151 0.0
N835 N 0.09436 0.48368 0.89692 0.0
H836 H 0.18162 0.4312 0.8676 0.0
H837 H 0.16142 0.47534 0.87627 0.0
H838 H 0.07069 0.49968 0.90305 0.0
H839 H 0.12124 0.49719 0.89947 0.0
H840 H 0.05359 0.31321 0.8749 0.0
H841 H 0.10273 0.3108 0.86789 0.0
H842 H 1.00618 0.34963 0.86828 0.0
H843 H 0.98647 0.39118 0.88082 0.0
C844 C 0.87248 0.86435 0.15047 0.0
C845 C 0.88114 0.87084 0.12693 0.0
C846 C 0.84898 0.80885 0.11775 0.0
C847 C 0.83746 0.80472 0.14104 0.0
N848 N 0.82531 0.83772 0.17675 0.0
N849 N 0.86558 0.85458 0.08769 0.0
C850 C 0.84463 0.83576 0.15637 0.0
C851 C 0.86553 0.84482 0.11035 0.0
N852 N 0.89296 0.88252 0.16749 0.0
N853 N 0.8466 0.77829 0.10291 0.0
H854 H 0.87518 0.88159 0.08175 0.0
H855 H 0.85171 0.83779 0.07524 0.0
H856 H 0.83619 0.7509 0.10743 0.0
H857 H 0.85853 0.77928 0.08652 0.0
H858 H 0.88883 0.87596 0.18476 0.0
H859 H 0.91765 0.8995 0.16462 0.0
H860 H 0.82799 0.86145 0.18776 0.0
H861 H 0.80328 0.81809 0.18118 0.0
C862 C 0.42258 0.58324 0.40974 0.0
C863 C 0.45179 0.57282 0.39383 0.0
C864 C 0.40906 0.59744 0.36326 0.0
C865 C 0.38619 0.61751 0.37979 0.0
N866 N 0.37938 0.63512 0.42002 0.0
N867 N 0.47326 0.57256 0.35429 0.0
C868 C 0.39457 0.61155 0.40346 0.0
C869 C 0.44506 0.58001 0.37015 0.0
N870 N 0.4226 0.56729 0.43117 0.0
N871 N 0.39622 0.59421 0.3412 0.0
H872 H 0.50003 0.55984 0.35822 0.0
H873 H 0.47091 0.58168 0.3373 0.0
H874 H 0.36887 0.60424 0.33592 0.0
H875 H 0.41056 0.57735 0.32903 0.0
H876 H 0.40024 0.57233 0.44289 0.0
H877 H 0.4425 0.54571 0.436 0.0
H878 H 0.38752 0.63275 0.43719 0.0
H879 H 0.36359 0.66037 0.41663 0.0
C880 C 0.37202 0.14879 0.15183 0.0
C881 C 0.37944 0.14171 0.12821 0.0
C882 C 0.34545 0.20273 0.11878 0.0
C883 C 0.3355 0.20753 0.14225 0.0
N884 N 0.32611 0.1758 0.17869 0.0
N885 N 0.36105 0.15624 0.08908 0.0
C886 C 0.34408 0.17717 0.15787 0.0
C887 C 0.36225 0.16682 0.11158 0.0
N888 N 0.39377 0.13153 0.1687 0.0
N889 N 0.34134 0.23265 0.10352 0.0
H890 H 0.3708 0.1292 0.08337 0.0
H891 H 0.34606 0.17232 0.07669 0.0
H892 H 0.33035 0.25989 0.10781 0.0
H893 H 0.35222 0.23134 0.08689 0.0
H894 H 0.3905 0.13858 0.18594 0.0
H895 H 0.4186 0.1149 0.16562 0.0
H896 H 0.3298 0.15258 0.19005 0.0
H897 H 0.30413 0.1954 0.18319 0.0
C898 C 0.54833 0.61542 0.8705 0.0
C899 C 0.55364 0.5804 0.88296 0.0
C900 C 0.62429 0.58484 0.87695 0.0
C901 C 0.61942 0.62344 0.86858 0.0
N902 N 0.57617 0.67742 0.85983 0.0
N903 N 0.59601 0.53087 0.89822 0.0
C904 C 0.58125 0.63907 0.8655 0.0
C905 C 0.59147 0.56454 0.88599 0.0
N906 N 0.51158 0.62655 0.86399 0.0
N907 N 0.66022 0.56759 0.87599 0.0
H908 H 0.57223 0.51464 0.90406 0.0
H909 H 0.62305 0.52005 0.90341 0.0
H910 H 0.68444 0.58157 0.86895 0.0
H911 H 0.66519 0.53848 0.88009 0.0
H912 H 0.50612 0.64989 0.853 0.0
H913 H 0.48683 0.61001 0.8677 0.0
H914 H 0.54911 0.69129 0.86012 0.0
H915 H 0.5991 0.69668 0.85687 0.0
C916 C 0.17405 0.83959 0.65563 0.0
C917 C 0.1839 0.80964 0.64008 0.0
C918 C 0.15648 0.84988 0.60905 0.0
C919 C 0.13905 0.87494 0.62546 0.0
N920 N 0.12344 0.88462 0.66566 0.0
N921 N 0.17832 0.78427 0.60146 0.0
C922 C 0.14586 0.86762 0.64915 0.0
C923 C 0.17381 0.81423 0.61653 0.0
N924 N 0.19139 0.84128 0.67669 0.0
N925 N 0.15747 0.86028 0.58649 0.0
H926 H 0.18923 0.75705 0.60603 0.0
H927 H 0.16755 0.78537 0.58476 0.0
H928 H 0.1471 0.88702 0.58053 0.0
H929 H 0.17273 0.84437 0.57426 0.0
H930 H 0.18684 0.86437 0.68793 0.0
H931 H 0.21371 0.82227 0.68161 0.0
H932 H 0.12608 0.87741 0.68295 0.0
H933 H 0.09874 0.90129 0.66209 0.0
C934 C 0.92722 0.44923 0.38468 0.0
C935 C 0.95824 0.42656 0.39403 0.0
C936 C 0.92331 0.36659 0.3838 0.0
C937 C 0.89068 0.38909 0.3769 0.0
N938 N 0.85944 0.4512 0.3718 0.0
N939 N 0.98313 0.36315 0.40548 0.0
C940 C 0.89208 0.43032 0.37748 0.0
C941 C 0.95554 0.38513 0.39442 0.0
N942 N 0.93122 0.48872 0.38293 0.0
N943 N 0.92383 0.32732 0.3798 0.0
H944 H 1.0082 0.3745 0.41294 0.0
H945 H 0.97972 0.33359 0.40895 0.0
H946 H 0.9005 0.31227 0.37246 0.0
H947 H 0.9487 0.31012 0.38175 0.0
H948 H 0.91159 0.50654 0.37418 0.0
H949 H 0.95548 0.50365 0.38924 0.0
H950 H 0.8568 0.48112 0.37412 0.0
H951 H 0.8339 0.43805 0.36581 0.0
C952 C 0.33942 0.83864 0.38195 0.0
C953 C 0.32976 0.8077 0.39691 0.0
C954 C 0.35813 0.8457 0.42846 0.0
C955 C 0.37615 0.87118 0.41237 0.0
N956 N 0.39092 0.88281 0.37215 0.0
N957 N 0.33395 0.78045 0.43518 0.0
C958 C 0.36843 0.8656 0.38862 0.0
C959 C 0.33976 0.8109 0.42051 0.0
N960 N 0.32168 0.84166 0.36106 0.0
N961 N 0.35753 0.85495 0.45116 0.0
H962 H 0.32099 0.75434 0.43033 0.0
H963 H 0.34488 0.78019 0.45185 0.0
H964 H 0.3684 0.88119 0.45745 0.0
H965 H 0.34203 0.83875 0.46322 0.0
H966 H 0.32619 0.86531 0.35013 0.0
H967 H 0.2992 0.82292 0.35608 0.0
H968 H 0.38735 0.87689 0.35477 0.0
H969 H 0.41653 0.89804 0.37567 0.0
C970 C 0.92641 0.56378 0.14866 0.0
C971 C 0.96427 0.5792 0.15233 0.0
C972 C 0.93648 0.63671 0.17083 0.0
C973 C 0.89836 0.62118 0.16749 0.0
N974 N 0.85742 0.56637 0.15822 0.0
N975 N 1.00623 0.62468 0.1719 0.0
C976 C 0.89347 0.58345 0.15799 0.0
C977 C 0.96951 0.61361 0.16529 0.0
N978 N 0.92195 0.53106 0.13566 0.0
N979 N 0.94136 0.67464 0.17736 0.0
H980 H 0.03128 0.60905 0.16761 0.0
H981 H 0.01152 0.64721 0.18339 0.0
H982 H 0.91832 0.69349 0.18086 0.0
H983 H 0.96829 0.68873 0.17728 0.0
H984 H 0.89496 0.52079 0.13005 0.0
H985 H 0.9457 0.51519 0.12951 0.0
H986 H 0.85241 0.53766 0.15337 0.0
H987 H 0.83298 0.57991 0.16529 0.0
C988 C 0.19766 0.17245 0.89888 0.0
C989 C 0.18092 0.20997 0.90091 0.0
C990 C 0.12144 0.18205 0.91733 0.0
C991 C 0.13821 0.14431 0.91556 0.0
N992 N 0.19491 0.10408 0.90963 0.0
N993 N 0.13185 0.25185 0.91717 0.0
C994 C 0.1773 0.1397 0.90793 0.0
C995 C 0.14455 0.21515 0.91202 0.0
N996 N 0.23231 0.16808 0.88762 0.0
N997 N 0.08259 0.18631 0.92221 0.0
H998 H 0.1477 0.27686 0.91309 0.0
H999 H 0.10752 0.25734 0.92733 0.0
H1000 H 0.06398 0.16306 0.92569 0.0
H1001 H 0.06782 0.21273 0.92087 0.0
H1002 H 0.24399 0.14116 0.88316 0.0
H1003 H 0.24853 0.19177 0.88169 0.0
H1004 H 0.22433 0.09929 0.90614 0.0
H1005 H 0.1808 0.07984 0.91655 0.0
C1006 C 0.57023 0.43223 0.66433 0.0
C1007 C 0.562 0.43767 0.64061 0.0
C1008 C 0.61738 0.39613 0.63106 0.0
C1009 C 0.62801 0.39331 0.6546 0.0
N1010 N 0.62111 0.4209 0.69243 0.0
N1011 N 0.58841 0.43765 0.60232 0.0
C1012 C 0.60659 0.4153 0.6709 0.0
C1013 C 0.58938 0.42416 0.62432 0.0
N1014 N 0.54304 0.44068 0.68063 0.0
N1015 N 0.63089 0.37021 0.61525 0.0
H1016 H 0.56935 0.45968 0.59706 0.0
H1017 H 0.60963 0.43028 0.59031 0.0
H1018 H 0.647 0.34546 0.61942 0.0
H1019 H 0.62117 0.37025 0.59831 0.0
H1020 H 0.54685 0.43322 0.69781 0.0
H1021 H 0.51535 0.45155 0.677 0.0
H1022 H 0.60778 0.43926 0.70425 0.0
H1023 H 0.64875 0.41124 0.69743 0.0
C1024 C 0.28399 0.23136 0.25443 0.0
C1025 C 0.28163 0.27163 0.2487 0.0
C1026 C 0.25111 0.28519 0.28584 0.0
C1027 C 0.25099 0.24468 0.29084 0.0
N1028 N 0.26225 0.17853 0.27904 0.0
N1029 N 0.25969 0.33656 0.25767 0.0
C1030 C 0.26632 0.21757 0.27497 0.0
C1031 C 0.26402 0.29841 0.264 0.0
N1032 N 0.30305 0.20622 0.24019 0.0
N1033 N 0.24061 0.31118 0.30244 0.0
H1034 H 0.27113 0.34803 0.24257 0.0
H1035 H 0.24281 0.35647 0.26669 0.0
H1036 H 0.23144 0.30268 0.31871 0.0
H1037 H 0.24403 0.34118 0.3009 0.0
H1038 H 0.31023 0.17774 0.24466 0.0
H1039 H 0.31371 0.21431 0.22419 0.0
H1040 H 0.26858 0.15708 0.26707 0.0
H1041 H 0.24966 0.16737 0.29392 0.0
C1042 C 0.99187 0.02089 0.53728 0.0
C1043 C 0.02078 0.9911 0.53726 0.0
C1044 C 0.02679 0.99715 0.49545 0.0
C1045 C 0.99618 0.02512 0.49533 0.0
N1046 N 0.94572 0.0599 0.51531 0.0
N1047 N 0.06295 0.94765 0.5164 0.0
C1048 C 0.97781 0.03616 0.51606 0.0
C1049 C 0.03725 0.97815 0.51633 0.0
N1050 N 0.97768 0.0345 0.55761 0.0
N1051 N 0.04728 0.99022 0.4758 0.0
H1052 H 0.07359 0.93485 0.53138 0.0
H1053 H 0.07214 0.9335 0.50163 0.0
H1054 H 0.04071 1.00355 0.46019 0.0
H1055 H 0.07273 0.97367 0.47521 0.0
H1056 H 0.96042 0.05931 0.55903 0.0
H1057 H 0.98485 0.02228 0.57343 0.0
H1058 H 0.9282 0.06587 0.52939 0.0
H1059 H 0.93451 0.07136 0.50008 0.0
C1060 C 0.26953 0.78235 0.74653 0.0
C1061 C 0.24709 0.74758 0.74622 0.0
C1062 C 0.25126 0.74324 0.78816 0.0
C1063 C 0.27573 0.7767 0.78835 0.0
N1064 N 0.31171 0.82604 0.76787 0.0
N1065 N 0.2212 0.69159 0.76589 0.0
C1066 C 0.28604 0.79553 0.76754 0.0
C1067 C 0.23901 0.72722 0.76684 0.0
N1068 N 0.27342 0.80382 0.7269 0.0
N1069 N 0.23986 0.72664 0.80838 0.0
H1070 H 0.21219 0.67881 0.75057 0.0
H1071 H 0.21814 0.6731 0.77991 0.0
H1072 H 0.25026 0.73561 0.8243 0.0
H1073 H 0.21831 0.70537 0.8096 0.0
H1074 H 0.28538 0.83166 0.7264 0.0
H1075 H 0.26203 0.79508 0.71116 0.0
H1076 H 0.32437 0.83781 0.75323 0.0
H1077 H 0.32216 0.83846 0.78297 0.0
C1078 C 0.5309 1.00231 0.04067 0.0
C1079 C 0.49908 0.02895 0.04037 0.0
C1080 C 0.49377 0.02276 0.99854 0.0
C1081 C 0.52553 0.99604 0.99883 0.0
N1082 N 0.57267 0.95766 0.01971 0.0
N1083 N 0.45276 0.06817 0.01943 0.0
C1084 C 0.54361 0.98505 0.0198 0.0
C1085 C 0.48129 0.04025 0.01939 0.0
N1086 N 0.55045 0.9954 0.06077 0.0
N1087 N 0.47399 0.02946 0.9785 0.0
H1088 H 0.44104 0.07966 0.03443 0.0
H1089 H 0.44183 0.08153 1.00475 0.0
H1090 H 0.48203 0.01719 0.96291 0.0
H1091 H 0.44799 0.04503 0.97733 0.0
H1092 H 0.57637 0.97974 0.06206 0.0
H1093 H 0.54222 1.00751 0.07638 0.0
H1094 H 0.5839 0.94441 0.03434 0.0
H1095 H 0.58483 0.94669 1.00471 0.0
C1096 C 0.28378 0.78244 0.28362 0.0
C1097 C 0.28397 0.74187 0.28867 0.0
C1098 C 0.25149 0.72821 0.25195 0.0
C1099 C 0.25088 0.7688 0.24706 0.0
N1100 N 0.27007 0.83436 0.25635 0.0
N1101 N 0.26604 0.67612 0.27901 0.0
C1102 C 0.26823 0.79585 0.26233 0.0
C1103 C 0.26722 0.71474 0.27319 0.0
N1104 N 0.29619 0.80833 0.29988 0.0
N1105 N 0.23897 0.70248 0.23563 0.0
H1106 H 0.27955 0.6649 0.29363 0.0
H1107 H 0.25037 0.65516 0.27004 0.0
H1108 H 0.228 0.7112 0.21975 0.0
H1109 H 0.24179 0.67241 0.2369 0.0
H1110 H 0.29301 0.83837 0.29858 0.0
H1111 H 0.30742 0.79983 0.31572 0.0
H1112 H 0.28639 0.85506 0.26515 0.0
H1113 H 0.25684 0.84567 0.24167 0.0
C1114 C 0.47887 0.97731 0.52124 0.0
C1115 C 0.49593 0.98733 0.4999 0.0
C1116 C 0.53965 0.03404 0.51908 0.0
C1117 C 0.52263 0.02398 0.54043 0.0
N1118 N 0.47254 0.9908 0.56189 0.0
N1119 N 0.5461 0.02046 0.47846 0.0
C1120 C 0.49153 0.99657 0.54157 0.0
C1121 C 0.52702 0.01475 0.49877 0.0
N1122 N 0.45084 0.94893 0.52204 0.0
N1123 N 0.56763 0.06247 0.51826 0.0
H1124 H 0.53802 1.00681 0.46324 0.0
H1125 H 0.57164 0.03657 0.47672 0.0
H1126 H 0.5796 0.07519 0.53288 0.0
H1127 H 0.57788 0.07499 0.5032 0.0
H1128 H 0.44049 0.93647 0.53709 0.0
H1129 H 0.4389 0.93623 0.50742 0.0
H1130 H 0.44705 0.97462 0.56366 0.0
H1131 H 0.48066 1.00445 0.5771 0.0
C1132 C 0.24428 0.22843 0.78504 0.0
C1133 C 0.24182 0.26891 0.78991 0.0
C1134 C 0.27206 0.28442 0.75287 0.0
C1135 C 0.27459 0.24393 0.74804 0.0
N1136 N 0.25966 0.17739 0.75772 0.0
N1137 N 0.25572 0.33557 0.77994 0.0
C1138 C 0.25959 0.21593 0.76361 0.0
C1139 C 0.25645 0.29696 0.77423 0.0
N1140 N 0.23412 0.20194 0.80154 0.0
N1141 N 0.28261 0.31082 0.7364 0.0
H1142 H 0.2424 0.34599 0.79474 0.0
H1143 H 0.26971 0.35741 0.77074 0.0
H1144 H 0.29351 0.30275 0.72045 0.0
H1145 H 0.27829 0.3407 0.73762 0.0
H1146 H 0.23879 0.17211 0.80028 0.0
H1147 H 0.2234 0.2099 0.81755 0.0
H1148 H 0.24519 0.15574 0.76685 0.0
H1149 H 0.27255 0.16697 0.7428 0.0
C1150 C 0.04166 0.02784 1.01726 0.0
C1151 C 0.02266 0.01647 0.99667 0.0
C1152 C 0.98021 0.97177 0.01825 0.0
C1153 C 0.99865 0.98372 0.03887 0.0
N1154 N 0.0499 0.01872 0.05832 0.0
N1155 N 0.97067 0.98213 0.97745 0.0
C1156 C 0.02997 0.0109 0.03849 0.0
C1157 C 0.99134 0.98929 0.99709 0.0
N1158 N 0.07073 0.05518 1.01644 0.0
N1159 N 0.95237 0.9432 0.01893 0.0
H1160 H 0.97774 0.9944 0.96165 0.0
H1161 H 0.94485 0.96619 0.97685 0.0
H1162 H 0.94172 0.9315 0.03418 0.0
H1163 H 0.94112 0.92947 1.0045 0.0
H1164 H 0.08286 0.06858 0.03072 0.0
H1165 H 0.08227 0.06579 1.00114 0.0
H1166 H 0.07535 0.03516 0.05924 0.0
H1167 H 0.04234 1.00686 0.07415 0.0
C1168 C 0.75977 0.80129 0.76316 0.0
C1169 C 0.77587 0.77405 0.74761 0.0
C1170 C 0.75896 0.72 0.77354 0.0
C1171 C 0.7433 0.74734 0.78922 0.0
N1172 N 0.73383 0.81384 0.80109 0.0
N1173 N 0.78681 0.70769 0.73596 0.0
C1174 C 0.74473 0.78796 0.78451 0.0
C1175 C 0.77472 0.73342 0.75235 0.0
N1176 N 0.75847 0.83989 0.75732 0.0
N1177 N 0.75893 0.68123 0.77906 0.0
H1178 H 0.79787 0.71642 0.72014 0.0
H1179 H 0.7839 0.67763 0.73713 0.0
H1180 H 0.74552 0.67017 0.7937 0.0
H1181 H 0.77338 0.65983 0.76982 0.0
H1182 H 0.74311 0.86084 0.76643 0.0
H1183 H 0.77104 0.85096 0.74242 0.0
H1184 H 0.73782 0.8438 0.79993 0.0
H1185 H 0.72331 0.80529 0.81707 0.0
C1186 C 0.7324 0.23304 0.26521 0.0
C1187 C 0.74426 0.25181 0.24468 0.0
C1188 C 0.7832 0.2985 0.26698 0.0
C1189 C 0.77349 0.27808 0.28735 0.0
N1190 N 0.74431 0.22226 0.30571 0.0
N1191 N 0.7839 0.29978 0.22542 0.0
C1192 C 0.74936 0.24448 0.28646 0.0
C1193 C 0.77073 0.28365 0.24539 0.0
N1194 N 0.70485 0.20423 0.26442 0.0
N1195 N 0.80281 0.33313 0.2684 0.0
H1196 H 0.77373 0.29141 0.20933 0.0
H1197 H 0.80667 0.31981 0.22462 0.0
H1198 H 0.81193 0.34511 0.2839 0.0
H1199 H 0.80724 0.35169 0.25454 0.0
H1200 H 0.69124 0.1929 0.27889 0.0
H1201 H 0.69378 0.19302 0.24915 0.0
H1202 H 0.73092 0.19506 0.30568 0.0
H1203 H 0.75634 0.22942 0.32156 0.0
C1204 C 0.7434 0.28068 0.78859 0.0
C1205 C 0.76951 0.24846 0.78859 0.0
C1206 C 0.76402 0.24369 0.74669 0.0
C1207 C 0.73818 0.27614 0.74664 0.0
N1208 N 0.70006 0.32356 0.76706 0.0
N1209 N 0.8078 0.20123 0.76808 0.0
C1210 C 0.72691 0.29403 0.76749 0.0
C1211 C 0.78071 0.23055 0.76773 0.0
N1212 N 0.73628 0.29993 0.80864 0.0
N1213 N 0.77063 0.22392 0.72675 0.0
H1214 H 0.81838 0.18876 0.78318 0.0
H1215 H 0.82135 0.19025 0.75355 0.0
H1216 H 0.75907 0.23247 0.71099 0.0
H1217 H 0.78531 0.19746 0.7258 0.0
H1218 H 0.72097 0.32599 0.80979 0.0
H1219 H 0.74779 0.29114 0.82438 0.0
H1220 H 0.68673 0.33497 0.78153 0.0
H1221 H 0.68955 0.33591 0.75191 0.0
C1222 C 0.73748 0.7951 0.26779 0.0
C1223 C 0.74468 0.7757 0.28886 0.0
C1224 C 0.78526 0.7273 0.26911 0.0
C1225 C 0.77588 0.74515 0.24783 0.0
N1226 N 0.74043 0.79383 0.22628 0.0
N1227 N 0.77027 0.72025 0.30947 0.0
C1228 C 0.751 0.77829 0.24698 0.0
C1229 C 0.76741 0.74109 0.28953 0.0
N1230 N 0.71928 0.83058 0.26782 0.0
N1231 N 0.81133 0.69711 0.26981 0.0
H1232 H 0.75783 0.72932 0.32482 0.0
H1233 H 0.78235 0.69249 0.31054 0.0
H1234 H 0.82277 0.68418 0.25516 0.0
H1235 H 0.82336 0.68618 0.28491 0.0
H1236 H 0.71673 0.8484 0.25346 0.0
H1237 H 0.70942 0.84394 0.28274 0.0
H1238 H 0.71875 0.81483 0.22428 0.0
H1239 H 0.75166 0.78415 0.21074 0.0
C1240 C 0.54021 0.48571 1.01587 0.0
C1241 C 0.52207 0.49574 0.03684 0.0
C1242 C 0.47894 0.54174 1.01661 0.0
C1243 C 0.49516 0.52962 0.99544 0.0
N1244 N 0.53902 0.48798 0.97437 0.0
N1245 N 0.47095 0.52902 0.05725 0.0
C1246 C 0.52501 0.50081 0.99492 0.0
C1247 C 0.49071 0.52282 0.03727 0.0
N1248 N 0.57319 0.46316 1.01614 0.0
N1249 N 0.45226 0.57139 1.01695 0.0
H1250 H 0.47873 0.51584 0.07272 0.0
H1251 H 0.44511 0.54489 0.05831 0.0
H1252 H 0.44083 0.58407 1.00214 0.0
H1253 H 0.44295 0.58496 0.03188 0.0
H1254 H 0.5905 0.45814 1.00184 0.0
H1255 H 0.58534 0.45188 0.03116 0.0
H1256 H 0.55695 0.46369 0.97264 0.0
H1257 H 0.53108 0.50024 0.95868 0.0
C1258 C 0.99769 0.52093 0.4995 0.0
C1259 C 0.031 0.49615 0.49944 0.0
C1260 C 0.03573 0.50066 0.54138 0.0
C1261 C 1.00236 0.52535 0.54141 0.0
N1262 N 0.95403 0.56291 0.52095 0.0
N1263 N 0.08024 0.45964 0.51977 0.0
C1264 C 0.98412 0.53666 0.52057 0.0
C1265 C 0.04961 0.48525 0.52026 0.0
N1266 N 0.97748 0.52728 0.47956 0.0
N1267 N 0.05542 0.49386 0.56144 0.0
H1268 H 0.09293 0.45005 0.50458 0.0
H1269 H 0.09233 0.4465 0.5342 0.0
H1270 H 0.04627 0.50465 0.57721 0.0
H1271 H 0.08216 0.47961 0.56258 0.0
H1272 H 0.95047 0.5411 0.47866 0.0
H1273 H 0.98624 0.51636 0.46376 0.0
H1274 H 0.94271 0.57653 0.50645 0.0
H1275 H 0.94135 0.57283 0.53606 0.0
C1276 C 0.98948 0.49666 0.04057 0.0
C1277 C 0.022 0.52241 0.04066 0.0
C1278 C 0.0268 0.51781 0.99875 0.0
C1279 C 0.99418 0.4922 0.99862 0.0
N1280 N 0.94598 0.45449 0.01888 0.0
N1281 N 0.0694 0.56097 0.02031 0.0
C1282 C 0.97598 0.48083 0.01942 0.0
C1283 C 0.03998 0.534 0.01985 0.0
N1284 N 0.97014 0.48926 0.0606 0.0
N1285 N 0.04667 0.52468 0.97884 0.0
H1286 H 0.08174 0.57134 0.03546 0.0
H1287 H 0.08053 0.57466 1.00583 0.0
H1288 H 0.03812 0.51335 0.96306 0.0
H1289 H 0.07319 0.53936 0.97793 0.0
H1290 H 0.9439 0.47416 0.06172 0.0
H1291 H 0.97907 0.50028 0.07639 0.0
H1292 H 0.93432 0.44104 0.03329 0.0
H1293 H 0.93333 0.44464 1.0037 0.0
C1294 C 0.54003 0.54163 0.51941 0.0
C1295 C 0.52323 0.53075 0.49812 0.0
C1296 C 0.47407 0.49128 0.51822 0.0
C1297 C 0.49274 0.49971 0.53934 0.0
N1298 N 0.54676 0.52811 0.56002 0.0
N1299 N 0.47651 0.4925 0.47675 0.0
C1300 C 0.52647 0.52383 0.53997 0.0
C1301 C 0.49104 0.50458 0.49738 0.0
N1302 N 0.56899 0.56904 0.51998 0.0
N1303 N 0.43903 0.47211 0.5182 0.0
H1304 H 0.48615 0.50335 0.46108 0.0
H1305 H 0.4565 0.46988 0.47498 0.0
H1306 H 0.42546 0.46249 0.53315 0.0
H1307 H 0.42159 0.46868 0.50372 0.0
H1308 H 0.57903 0.58192 0.535 0.0
H1309 H 0.58162 0.5807 0.50525 0.0
H1310 H 0.57403 0.54139 0.56113 0.0
H1311 H 0.53787 0.51571 0.57545 0.0
C1312 C 0.35831 0.1381 0.40433 0.0
C1313 C 0.32246 0.12839 0.39349 0.0
C1314 C 0.3426 0.06009 0.39136 0.0
C1315 C 0.37988 0.07018 0.40033 0.0
N1316 N 0.42551 0.11946 0.41245 0.0
N1317 N 0.28304 0.08175 0.37292 0.0
C1318 C 0.3884 0.10942 0.40609 0.0
C1319 C 0.31558 0.08994 0.38568 0.0
N1320 N 0.36337 0.17457 0.41314 0.0
N1321 N 0.33185 0.02181 0.38969 0.0
H1322 H 0.2617 0.10238 0.36896 0.0
H1323 H 0.27885 0.05532 0.36457 0.0
H1324 H 0.34979 0.99878 0.39474 0.0
H1325 H 0.30358 0.01286 0.38568 0.0
H1326 H 0.38694 0.18233 0.42347 0.0
H1327 H 0.34264 0.19663 0.41117 0.0
H1328 H 0.43466 0.14811 0.41467 0.0
H1329 H 0.44814 0.09922 0.41376 0.0
C1330 C 0.17959 0.0661 0.62684 0.0
C1331 C 0.14108 0.07536 0.63391 0.0
C1332 C 0.16326 0.14012 0.64615 0.0
C1333 C 0.20236 0.1293 0.64114 0.0
N1334 N 0.24867 0.07901 0.63123 0.0
N1335 N 0.09625 0.11912 0.65235 0.0
C1336 C 0.21078 0.09158 0.63253 0.0
C1337 C 0.13289 0.11182 0.64419 0.0
N1338 N 0.18651 0.03272 0.61478 0.0
N1339 N 0.15499 0.17773 0.652 0.0
H1340 H 0.07306 0.09973 0.65021 0.0
H1341 H 0.08935 0.1432 0.66233 0.0
H1342 H 0.17646 0.19915 0.65343 0.0
H1343 H 0.12672 0.18851 0.65365 0.0
H1344 H 0.21305 0.02677 0.60684 0.0
H1345 H 0.1649 0.01229 0.61105 0.0
H1346 H 0.25642 0.05036 0.62761 0.0
H1347 H 0.27254 0.09599 0.63606 0.0
C1348 C 0.16025 0.88215 0.89642 0.0
C1349 C 0.19718 0.89205 0.88706 0.0
C1350 C 0.17755 0.96058 0.88473 0.0
C1351 C 0.13948 0.95033 0.89227 0.0
N1352 N 0.09253 0.90093 0.90228 0.0
N1353 N 0.23921 0.93935 0.8689 0.0
C1354 C 0.13024 0.91096 0.89737 0.0
C1355 C 0.20513 0.9308 0.88001 0.0
N1356 N 0.15404 0.84533 0.90457 0.0
N1357 N 0.1883 0.99892 0.88351 0.0
H1358 H 0.26114 0.91893 0.86597 0.0
H1359 H 0.24448 0.96602 0.86096 0.0
H1360 H 0.16966 0.02184 0.88764 0.0
H1361 H 0.2169 1.00808 0.88071 0.0
H1362 H 0.1295 0.83735 0.91396 0.0
H1363 H 0.17466 0.8231 0.90305 0.0
H1364 H 0.08299 0.87227 0.90388 0.0
H1365 H 0.06991 0.92125 0.90298 0.0
C1366 C 0.3158 0.92545 0.15518 0.0
C1367 C 0.3223 0.88668 0.14787 0.0
C1368 C 0.38909 0.90404 0.1363 0.0
C1369 C 0.38111 0.94357 0.14161 0.0
N1370 N 0.33357 0.99314 0.15091 0.0
N1371 N 0.3631 0.83921 0.12936 0.0
C1372 C 0.34364 0.95461 0.14977 0.0
C1373 C 0.35839 0.87599 0.13776 0.0
N1374 N 0.28287 0.93459 0.16723 0.0
N1375 N 0.42623 0.89314 0.13066 0.0
H1376 H 0.34185 0.81763 0.13111 0.0
H1377 H 0.38694 0.83072 0.11954 0.0
H1378 H 0.44927 0.91293 0.12956 0.0
H1379 H 0.43493 0.86428 0.12882 0.0
H1380 H 0.2788 0.96133 0.17526 0.0
H1381 H 0.26098 0.91447 0.17095 0.0
H1382 H 0.30531 1.00274 0.15429 0.0
H1383 H 0.35217 0.01569 0.14601 0.0
C1384 C 0.71182 0.92745 0.63611 0.0
C1385 C 0.70276 0.88829 0.64203 0.0
C1386 C 0.63248 0.90356 0.64068 0.0
C1387 C 0.64177 0.94306 0.63616 0.0
N1388 N 0.68953 0.99405 0.63134 0.0
N1389 N 0.65546 0.83896 0.65155 0.0
C1390 C 0.68125 0.95532 0.63422 0.0
C1391 C 0.6633 0.8763 0.6448 0.0
N1392 N 0.74981 0.93805 0.63226 0.0
N1393 N 0.5942 0.89219 0.64062 0.0
H1394 H 0.67719 0.81793 0.65366 0.0
H1395 H 0.62786 0.82908 0.65616 0.0
H1396 H 0.57124 0.91171 0.63796 0.0
H1397 H 0.58505 0.86337 0.64174 0.0
H1398 H 0.75807 0.96436 0.62484 0.0
H1399 H 0.77357 0.91983 0.63543 0.0
H1400 H 0.71737 1.00592 0.63291 0.0
H1401 H 0.66817 0.01521 0.62855 0.0
C1402 C 0.84266 0.95497 0.3864 0.0
C1403 C 0.88047 0.94359 0.39399 0.0
C1404 C 0.85799 0.87584 0.39739 0.0
C1405 C 0.82138 0.88687 0.38784 0.0
N1406 N 0.78052 0.93586 0.3701 0.0
N1407 N 0.92602 0.89294 0.40419 0.0
C1408 C 0.81438 0.92606 0.38122 0.0
C1409 C 0.88867 0.90391 0.3989 0.0
N1410 N 0.83283 0.9936 0.38554 0.0
N1411 N 0.86326 0.83862 0.40515 0.0
H1412 H 0.94899 0.91279 0.40544 0.0
H1413 H 0.93493 0.86406 0.40569 0.0
H1414 H 0.84215 0.81695 0.40323 0.0
H1415 H 0.88752 0.82971 0.41461 0.0
H1416 H 0.80448 1.00354 0.38269 0.0
H1417 H 0.85198 0.01592 0.39005 0.0
H1418 H 0.776 0.96286 0.36235 0.0
H1419 H 0.75791 0.91624 0.36699 0.0
C1420 C 0.85967 0.13737 0.14425 0.0
C1421 C 0.82033 0.12623 0.13999 0.0
C1422 C 0.84236 0.0615 0.12788 0.0
C1423 C 0.88117 0.07134 0.13419 0.0
N1424 N 0.92683 0.11669 0.15062 0.0
N1425 N 0.77352 0.07512 0.13251 0.0
C1426 C 0.88987 0.10876 0.14305 0.0
C1427 C 0.81148 0.08765 0.13295 0.0
N1428 N 0.86828 0.17549 0.14861 0.0
N1429 N 0.83489 0.02699 0.11707 0.0
H1430 H 0.74991 0.09269 0.13697 0.0
H1431 H 0.76557 0.04616 0.13006 0.0
H1432 H 0.85636 1.00623 0.11375 0.0
H1433 H 0.808 0.02031 0.10967 0.0
H1434 H 0.89666 0.18628 0.1496 0.0
H1435 H 0.84695 0.19714 0.14944 0.0
H1436 H 0.9342 0.14177 0.15962 0.0
H1437 H 0.94982 0.09691 0.14906 0.0
C1438 C 0.68016 0.05675 0.88654 0.0
C1439 C 0.64226 0.06578 0.89481 0.0
C1440 C 0.66113 0.13451 0.89863 0.0
C1441 C 0.69776 0.12581 0.88855 0.0
N1442 N 0.74017 0.0801 0.86951 0.0
N1443 N 0.59439 0.11369 0.90573 0.0
C1444 C 0.70652 0.0874 0.88133 0.0
C1445 C 0.63209 0.10482 0.90011 0.0
N1446 N 0.69195 0.01875 0.88501 0.0
N1447 N 0.65435 0.17099 0.90701 0.0
H1448 H 0.57244 0.09271 0.90684 0.0
H1449 H 0.5841 0.14204 0.90752 0.0
H1450 H 0.67433 0.19375 0.90524 0.0
H1451 H 0.6301 0.17814 0.91686 0.0
H1452 H 0.72061 0.01047 0.88159 0.0
H1453 H 0.67421 0.99526 0.88946 0.0
H1454 H 0.74594 0.05366 0.86151 0.0
H1455 H 0.76105 0.10137 0.86604 0.0
C1456 C 0.80891 0.58547 0.88053 0.0
C1457 C 0.81654 0.62396 0.88803 0.0
C1458 C 0.88313 0.60472 0.89921 0.0
C1459 C 0.87406 0.56548 0.89374 0.0
N1460 N 0.82541 0.51723 0.88398 0.0
N1461 N 0.85897 0.67008 0.9066 0.0
C1462 C 0.83622 0.55551 0.88556 0.0
C1463 C 0.85313 0.63356 0.89802 0.0
N1464 N 0.77544 0.57742 0.86859 0.0
N1465 N 0.92066 0.61461 0.90473 0.0
H1466 H 0.83825 0.69224 0.90505 0.0
H1467 H 0.88323 0.67779 0.91637 0.0
H1468 H 0.94327 0.59427 0.90562 0.0
H1469 H 0.93012 0.64322 0.90666 0.0
H1470 H 0.7704 0.55093 0.86046 0.0
H1471 H 0.75407 0.59824 0.86507 0.0
H1472 H 0.79688 0.50828 0.88064 0.0
H1473 H 0.8438 0.49417 0.88836 0.0
C1474 C 0.68042 0.62455 0.12434 0.0
C1475 C 0.69723 0.62986 0.14639 0.0
C1476 C 0.6479 0.58493 0.16136 0.0
C1477 C 0.63938 0.57159 0.13889 0.0
N1478 N 0.65557 0.57644 0.09834 0.0
N1479 N 0.69969 0.60699 0.18594 0.0
C1480 C 0.65744 0.59093 0.12006 0.0
C1481 C 0.68157 0.60819 0.16508 0.0
N1482 N 0.68576 0.65169 0.10752 0.0
N1483 N 0.62376 0.57594 0.17916 0.0
H1484 H 0.72654 0.61981 0.18941 0.0
H1485 H 0.69018 0.58878 0.19911 0.0
H1486 H 0.59719 0.56159 0.17682 0.0
H1487 H 0.62775 0.58736 0.19553 0.0
H1488 H 0.67171 0.64997 0.09168 0.0
H1489 H 0.69973 0.6782 0.11051 0.0
H1490 H 0.67137 0.58861 0.08486 0.0
H1491 H 0.6427 0.55005 0.09406 0.0
C1492 C 0.65772 0.37503 0.39987 0.0
C1493 C 0.69406 0.38513 0.38979 0.0
C1494 C 0.67428 0.45373 0.38828 0.0
C1495 C 0.63676 0.44327 0.3966 0.0
N1496 N 0.59067 0.39397 0.40791 0.0
N1497 N 0.73567 0.43306 0.37182 0.0
C1498 C 0.6279 0.40389 0.40184 0.0
C1499 C 0.7018 0.42412 0.38306 0.0
N1500 N 0.65193 0.33795 0.40771 0.0
N1501 N 0.68454 0.49218 0.3867 0.0
H1502 H 0.75803 0.41305 0.36899 0.0
H1503 H 0.74063 0.45977 0.36386 0.0
H1504 H 0.66577 0.51496 0.39094 0.0
H1505 H 0.71283 0.50169 0.38334 0.0
H1506 H 0.628 0.32963 0.41752 0.0
H1507 H 0.67234 0.31572 0.40546 0.0
H1508 H 0.58108 0.36537 0.40969 0.0
H1509 H 0.56835 0.41445 0.4096 0.0
C1510 C 0.8421 0.45718 0.64917 0.0
C1511 C 0.88156 0.44747 0.64422 0.0
C1512 C 0.86517 0.37772 0.64534 0.0
C1513 C 0.82548 0.38761 0.64909 0.0
N1514 N 0.77468 0.43601 0.65219 0.0
N1515 N 0.93074 0.39956 0.63562 0.0
C1516 C 0.81359 0.42715 0.65047 0.0
C1517 C 0.89313 0.40798 0.64169 0.0
N1518 N 0.83186 0.49525 0.65266 0.0
N1519 N 0.87607 0.33942 0.64578 0.0
H1520 H 0.9522 0.42089 0.63378 0.0
H1521 H 0.94042 0.37188 0.63121 0.0
H1522 H 0.85607 0.31683 0.64812 0.0
H1523 H 0.90491 0.32991 0.6453 0.0
H1524 H 0.80515 0.50396 0.65938 0.0
H1525 H 0.85076 0.51857 0.64987 0.0
H1526 H 0.76334 0.46395 0.6503 0.0
H1527 H 0.75293 0.41502 0.65416 0.0
C1528 C 0.1853 0.45959 0.15161 0.0
C1529 C 0.14721 0.44948 0.14392 0.0
C1530 C 0.168 0.38138 0.13966 0.0
C1531 C 0.2049 0.39107 0.14924 0.0
N1532 N 0.24696 0.43806 0.16763 0.0
N1533 N 0.10029 0.40024 0.13357 0.0
C1534 C 0.21288 0.42972 0.15637 0.0
C1535 C 0.13799 0.4102 0.13865 0.0
N1536 N 0.196 0.49792 0.15299 0.0
N1537 N 0.1618 0.34473 0.13135 0.0
H1538 H 0.07765 0.42055 0.13283 0.0
H1539 H 0.09077 0.37161 0.13188 0.0
H1540 H 0.18242 0.32247 0.13287 0.0
H1541 H 0.1373 0.33696 0.1218 0.0
H1542 H 0.22458 0.50705 0.15596 0.0
H1543 H 0.17731 0.52088 0.14885 0.0
H1544 H 0.25229 0.46461 0.17562 0.0
H1545 H 0.26884 0.41754 0.17062 0.0
C1546 C 0.33767 0.45493 0.88804 0.0
C1547 C 0.37597 0.44451 0.89528 0.0
C1548 C 0.3555 0.37614 0.89857 0.0
C1549 C 0.3184 0.38633 0.88941 0.0
N1550 N 0.27599 0.43408 0.87185 0.0
N1551 N 0.42323 0.39493 0.90466 0.0
C1552 C 0.31019 0.42528 0.88291 0.0
C1553 C 0.38544 0.40499 0.89986 0.0
N1554 N 0.32666 0.49325 0.88747 0.0
N1555 N 0.36185 0.33905 0.90627 0.0
H1556 H 0.44573 0.41535 0.90569 0.0
H1557 H 0.43291 0.36626 0.90592 0.0
H1558 H 0.34108 0.31698 0.90464 0.0
H1559 H 0.38663 0.3307 0.91542 0.0
H1560 H 0.29796 0.50234 0.88481 0.0
H1561 H 0.34516 0.51605 0.89206 0.0
H1562 H 0.27046 0.46107 0.86432 0.0
H1563 H 0.2543 0.41355 0.86847 0.0
C1564 C 0.34216 0.56176 0.6528 0.0
C1565 C 0.37869 0.57057 0.64252 0.0
C1566 C 0.35712 0.63802 0.63597 0.0
C1567 C 0.32176 0.62975 0.64768 0.0
N1568 N 0.28281 0.58546 0.67034 0.0
N1569 N 0.42364 0.61803 0.62744 0.0
C1570 C 0.31516 0.59225 0.65722 0.0
C1571 C 0.38691 0.60899 0.6349 0.0
N1572 N 0.33207 0.52383 0.65696 0.0
N1573 N 0.36206 0.67352 0.62575 0.0
H1574 H 0.44612 0.59757 0.62662 0.0
H1575 H 0.43283 0.64627 0.62382 0.0
H1576 H 0.34192 0.69615 0.62737 0.0
H1577 H 0.38495 0.67993 0.61468 0.0
H1578 H 0.30413 0.51514 0.66178 0.0
H1579 H 0.35035 0.50033 0.65347 0.0
H1580 H 0.27904 0.56031 0.68009 0.0
H1581 H 0.26087 0.60598 0.67295 0.0
C1582 C 0.17181 0.56076 0.38182 0.0
C1583 C 0.1337 0.56939 0.38996 0.0
C1584 C 0.15191 0.63837 0.39375 0.0
C1585 C 0.18888 0.63002 0.38395 0.0
N1586 N 0.23199 0.58443 0.36523 0.0
N1587 N 0.08531 0.61676 0.40074 0.0
C1588 C 0.19798 0.59164 0.37673 0.0
C1589 C 0.12312 0.60835 0.39516 0.0
N1590 N 0.18413 0.5229 0.38051 0.0
N1591 N 0.1446 0.67486 0.40196 0.0
H1592 H 0.06365 0.59547 0.40184 0.0
H1593 H 0.07466 0.64497 0.40255 0.0
H1594 H 0.16433 0.69782 0.40015 0.0
H1595 H 0.1201 0.68188 0.41162 0.0
H1596 H 0.21296 0.51496 0.37731 0.0
H1597 H 0.16673 0.49917 0.38498 0.0
H1598 H 0.23777 0.55816 0.35705 0.0
H1599 H 0.25331 0.60547 0.36226 0.0
loop_
_geom_bond_atom_site_label_1
_geom_bond_atom_site_label_2
_geom_bond_distance
_geom_bond_site_symmetry_2
_ccdc_geom_bond_type
O0 Cd1 2.223 . S
O0 C8 1.315 . S
Cd1 O0 2.223 . S
Cd1 O4 2.297 . S
Cd1 O5 2.439 . S
Cd1 O11 2.240 . S
Cd2 O3 2.240 . S
Cd2 O10 2.223 . S
Cd2 O12 2.297 . S
Cd2 O13 2.439 . S
O3 Cd2 2.240 . S
O3 C8 1.279 . S
O4 Cd1 2.297 . S
O4 C6 1.247 . S
O5 Cd1 2.439 . S
O5 C6 1.208 . S
C6 O4 1.247 . S
C6 O5 1.208 . S
C7 O12 1.247 . S
C7 O13 1.208 . S
C8 O0 1.315 . S
C8 O3 1.279 . S
C9 O10 1.315 . S
C9 O11 1.279 . S
O10 Cd2 2.223 . S
O10 C9 1.315 . S
O11 Cd1 2.240 . S
O11 C9 1.279 . S
O12 Cd2 2.297 . S
O12 C7 1.247 . S
O13 Cd2 2.439 . S
O13 C7 1.208 . S
O14 Cd15 2.223 . S
O14 C22 1.315 . S
Cd15 O14 2.223 . S
Cd15 O18 2.297 . S
Cd15 O19 2.439 1_565 S
Cd15 O25 2.240 . S
Cd16 O17 2.240 . S
Cd16 O24 2.223 . S
Cd16 O26 2.297 . S
Cd16 O27 2.439 . S
O17 Cd16 2.240 . S
O17 C22 1.279 . S
O18 Cd15 2.297 . S
O18 C20 1.247 1_565 S
O19 Cd15 2.439 1_545 S
O19 C20 1.208 . S
C20 O18 1.247 1_545 S
C20 O19 1.208 . S
C21 O26 1.247 . S
C21 O27 1.208 . S
C22 O14 1.315 . S
C22 O17 1.279 . S
C23 O24 1.315 . S
C23 O25 1.279 . S
O24 Cd16 2.223 . S
O24 C23 1.315 . S
O25 Cd15 2.240 . S
O25 C23 1.279 . S
O26 Cd16 2.297 . S
O26 C21 1.247 . S
O27 Cd16 2.439 . S
O27 C21 1.208 . S
O28 Cd29 2.223 . S
O28 C36 1.315 . S
Cd29 O28 2.223 . S
Cd29 O32 2.297 . S
Cd29 O33 2.439 . S
Cd29 O39 2.240 . S
Cd30 O31 2.240 . S
Cd30 O38 2.223 . S
Cd30 O40 2.297 . S
Cd30 O41 2.439 . S
O31 Cd30 2.240 . S
O31 C36 1.279 . S
O32 Cd29 2.297 . S
O32 C34 1.247 . S
O33 Cd29 2.439 . S
O33 C34 1.208 . S
C34 O32 1.247 . S
C34 O33 1.208 . S
C35 O40 1.247 . S
C35 O41 1.208 . S
C36 O28 1.315 . S
C36 O31 1.279 . S
C37 O38 1.315 . S
C37 O39 1.279 . S
O38 Cd30 2.223 . S
O38 C37 1.315 . S
O39 Cd29 2.240 . S
O39 C37 1.279 . S
O40 Cd30 2.297 . S
O40 C35 1.247 . S
O41 Cd30 2.439 . S
O41 C35 1.208 . S
O42 Cd43 2.223 . S
O42 C50 1.315 . S
Cd43 O42 2.223 . S
Cd43 O46 2.297 . S
Cd43 O47 2.439 1_545 S
Cd43 O53 2.240 . S
Cd44 O45 2.240 . S
Cd44 O52 2.223 . S
Cd44 O54 2.297 . S
Cd44 O55 2.439 . S
O45 Cd44 2.240 . S
O45 C50 1.279 . S
O46 Cd43 2.297 . S
O46 C48 1.247 1_545 S
O47 Cd43 2.439 1_565 S
O47 C48 1.208 . S
C48 O46 1.247 1_565 S
C48 O47 1.208 . S
C49 O54 1.247 . S
C49 O55 1.208 . S
C50 O42 1.315 . S
C50 O45 1.279 . S
C51 O52 1.315 . S
C51 O53 1.279 . S
O52 Cd44 2.223 . S
O52 C51 1.315 . S
O53 Cd43 2.240 . S
O53 C51 1.279 . S
O54 Cd44 2.297 . S
O54 C49 1.247 . S
O55 Cd44 2.439 . S
O55 C49 1.208 . S
O56 Cd57 2.223 . S
O56 C64 1.315 . S
Cd57 O56 2.223 . S
Cd57 O60 2.297 . S
Cd57 O61 2.439 . S
Cd57 O67 2.240 . S
Cd58 O59 2.240 . S
Cd58 O66 2.223 . S
Cd58 O68 2.297 . S
Cd58 O69 2.439 . S
O59 Cd58 2.240 . S
O59 C64 1.279 . S
O60 Cd57 2.297 . S
O60 C62 1.247 . S
O61 Cd57 2.439 . S
O61 C62 1.208 . S
C62 O60 1.247 . S
C62 O61 1.208 . S
C63 O68 1.247 . S
C63 O69 1.208 . S
C64 O56 1.315 . S
C64 O59 1.279 . S
C65 O66 1.315 . S
C65 O67 1.279 . S
O66 Cd58 2.223 . S
O66 C65 1.315 . S
O67 Cd57 2.240 . S
O67 C65 1.279 . S
O68 Cd58 2.297 . S
O68 C63 1.247 . S
O69 Cd58 2.439 . S
O69 C63 1.208 . S
O70 Cd71 2.223 . S
O70 C78 1.315 . S
Cd71 O70 2.223 . S
Cd71 O74 2.297 . S
Cd71 O75 2.439 1_565 S
Cd71 O81 2.240 . S
Cd72 O73 2.240 . S
Cd72 O80 2.223 . S
Cd72 O82 2.297 . S
Cd72 O83 2.439 . S
O73 Cd72 2.240 . S
O73 C78 1.279 . S
O74 Cd71 2.297 . S
O74 C76 1.247 1_565 S
O75 Cd71 2.439 1_545 S
O75 C76 1.208 . S
C76 O74 1.247 1_545 S
C76 O75 1.208 . S
C77 O82 1.247 . S
C77 O83 1.208 . S
C78 O70 1.315 . S
C78 O73 1.279 . S
C79 O80 1.315 . S
C79 O81 1.279 . S
O80 Cd72 2.223 . S
O80 C79 1.315 . S
O81 Cd71 2.240 . S
O81 C79 1.279 . S
O82 Cd72 2.297 . S
O82 C77 1.247 . S
O83 Cd72 2.439 . S
O83 C77 1.208 . S
O84 Cd85 2.223 . S
O84 C92 1.315 . S
Cd85 O84 2.223 . S
Cd85 O88 2.297 . S
Cd85 O89 2.439 . S
Cd85 O95 2.240 . S
Cd86 O87 2.240 . S
Cd86 O94 2.223 . S
Cd86 O96 2.297 . S
Cd86 O97 2.439 . S
O87 Cd86 2.240 . S
O87 C92 1.279 . S
O88 Cd85 2.297 . S
O88 C90 1.247 . S
O89 Cd85 2.439 . S
O89 C90 1.208 . S
C90 O88 1.247 . S
C90 O89 1.208 . S
C91 O96 1.247 . S
C91 O97 1.208 . S
C92 O84 1.315 . S
C92 O87 1.279 . S
C93 O94 1.315 . S
C93 O95 1.279 . S
O94 Cd86 2.223 . S
O94 C93 1.315 . S
O95 Cd85 2.240 . S
O95 C93 1.279 . S
O96 Cd86 2.297 . S
O96 C91 1.247 . S
O97 Cd86 2.439 . S
O97 C91 1.208 . S
O98 Cd99 2.223 . S
O98 C106 1.315 . S
Cd99 O98 2.223 . S
Cd99 O102 2.297 . S
Cd99 O103 2.439 1_545 S
Cd99 O109 2.240 . S
Cd100 O101 2.240 . S
Cd100 O108 2.223 . S
Cd100 O110 2.297 . S
Cd100 O111 2.439 . S
O101 Cd100 2.240 . S
O101 C106 1.279 . S
O102 Cd99 2.297 . S
O102 C104 1.247 1_545 S
O103 Cd99 2.439 1_565 S
O103 C104 1.208 . S
C104 O102 1.247 1_565 S
C104 O103 1.208 . S
C105 O110 1.247 . S
C105 O111 1.208 . S
C106 O98 1.315 . S
C106 O101 1.279 . S
C107 O108 1.315 . S
C107 O109 1.279 . S
O108 Cd100 2.223 . S
O108 C107 1.315 . S
O109 Cd99 2.240 . S
O109 C107 1.279 . S
O110 Cd100 2.297 . S
O110 C105 1.247 . S
O111 Cd100 2.439 . S
O111 C105 1.208 . S
O112 Cd113 2.223 . S
O112 C120 1.315 . S
Cd113 O112 2.223 . S
Cd113 O116 2.297 . S
Cd113 O117 2.439 . S
Cd113 O123 2.240 . S
Cd114 O115 2.240 . S
Cd114 O122 2.223 . S
Cd114 O124 2.297 . S
Cd114 O125 2.439 . S
O115 Cd114 2.240 . S
O115 C120 1.279 . S
O116 Cd113 2.297 . S
O116 C118 1.247 . S
O117 Cd113 2.439 . S
O117 C118 1.208 . S
C118 O116 1.247 . S
C118 O117 1.208 . S
C119 O124 1.247 . S
C119 O125 1.208 . S
C120 O112 1.315 . S
C120 O115 1.279 . S
C121 O122 1.315 . S
C121 O123 1.279 . S
O122 Cd114 2.223 . S
O122 C121 1.315 . S
O123 Cd113 2.240 . S
O123 C121 1.279 . S
O124 Cd114 2.297 . S
O124 C119 1.247 . S
O125 Cd114 2.439 . S
O125 C119 1.208 . S
O126 Cd127 2.223 . S
O126 C134 1.315 . S
Cd127 O126 2.223 . S
Cd127 O130 2.297 . S
Cd127 O131 2.439 1_545 S
Cd127 O137 2.240 . S
Cd128 O129 2.240 . S
Cd128 O136 2.223 . S
Cd128 O138 2.297 . S
Cd128 O139 2.439 . S
O129 Cd128 2.240 . S
O129 C134 1.279 . S
O130 Cd127 2.297 . S
O130 C132 1.247 1_545 S
O131 Cd127 2.439 1_565 S
O131 C132 1.208 . S
C132 O130 1.247 1_565 S
C132 O131 1.208 . S
C133 O138 1.247 . S
C133 O139 1.208 . S
C134 O126 1.315 . S
C134 O129 1.279 . S
C135 O136 1.315 . S
C135 O137 1.279 . S
O136 Cd128 2.223 . S
O136 C135 1.315 . S
O137 Cd127 2.240 . S
O137 C135 1.279 . S
O138 Cd128 2.297 . S
O138 C133 1.247 . S
O139 Cd128 2.439 . S
O139 C133 1.208 . S
O140 Cd141 2.223 . S
O140 C148 1.315 . S
Cd141 O140 2.223 . S
Cd141 O144 2.297 . S
Cd141 O145 2.439 . S
Cd141 O151 2.240 . S
Cd142 O143 2.240 . S
Cd142 O150 2.223 . S
Cd142 O152 2.297 . S
Cd142 O153 2.439 . S
O143 Cd142 2.240 . S
O143 C148 1.279 . S
O144 Cd141 2.297 . S
O144 C146 1.247 . S
O145 Cd141 2.439 . S
O145 C146 1.208 . S
C146 O144 1.247 . S
C146 O145 1.208 . S
C147 O152 1.247 . S
C147 O153 1.208 . S
C148 O140 1.315 . S
C148 O143 1.279 . S
C149 O150 1.315 . S
C149 O151 1.279 . S
O150 Cd142 2.223 . S
O150 C149 1.315 . S
O151 Cd141 2.240 . S
O151 C149 1.279 . S
O152 Cd142 2.297 . S
O152 C147 1.247 . S
O153 Cd142 2.439 . S
O153 C147 1.208 . S
O154 Cd155 2.223 . S
O154 C162 1.315 . S
Cd155 O154 2.223 . S
Cd155 O158 2.297 . S
Cd155 O159 2.439 1_565 S
Cd155 O165 2.240 . S
Cd156 O157 2.240 . S
Cd156 O164 2.223 . S
Cd156 O166 2.297 . S
Cd156 O167 2.439 . S
O157 Cd156 2.240 . S
O157 C162 1.279 . S
O158 Cd155 2.297 . S
O158 C160 1.247 1_565 S
O159 Cd155 2.439 1_545 S
O159 C160 1.208 . S
C160 O158 1.247 1_545 S
C160 O159 1.208 . S
C161 O166 1.247 . S
C161 O167 1.208 . S
C162 O154 1.315 . S
C162 O157 1.279 . S
C163 O164 1.315 . S
C163 O165 1.279 . S
O164 Cd156 2.223 . S
O164 C163 1.315 . S
O165 Cd155 2.240 . S
O165 C163 1.279 . S
O166 Cd156 2.297 . S
O166 C161 1.247 . S
O167 Cd156 2.439 . S
O167 C161 1.208 . S
O168 Cd169 2.223 . S
O168 C176 1.315 . S
Cd169 O168 2.223 . S
Cd169 O172 2.297 . S
Cd169 O173 2.439 . S
Cd169 O179 2.240 . S
Cd170 O171 2.240 . S
Cd170 O178 2.223 . S
Cd170 O180 2.297 . S
Cd170 O181 2.439 . S
O171 Cd170 2.240 . S
O171 C176 1.279 . S
O172 Cd169 2.297 . S
O172 C174 1.247 . S
O173 Cd169 2.439 . S
O173 C174 1.208 . S
C174 O172 1.247 . S
C174 O173 1.208 . S
C175 O180 1.247 . S
C175 O181 1.208 . S
C176 O168 1.315 . S
C176 O171 1.279 . S
C177 O178 1.315 . S
C177 O179 1.279 . S
O178 Cd170 2.223 . S
O178 C177 1.315 . S
O179 Cd169 2.240 . S
O179 C177 1.279 . S
O180 Cd170 2.297 . S
O180 C175 1.247 . S
O181 Cd170 2.439 . S
O181 C175 1.208 . S
O182 Cd183 2.223 . S
O182 C190 1.315 . S
Cd183 O182 2.223 . S
Cd183 O186 2.297 . S
Cd183 O187 2.439 1_545 S
Cd183 O193 2.240 . S
Cd184 O185 2.240 . S
Cd184 O192 2.223 . S
Cd184 O194 2.297 . S
Cd184 O195 2.439 . S
O185 Cd184 2.240 . S
O185 C190 1.279 . S
O186 Cd183 2.297 . S
O186 C188 1.247 1_545 S
O187 Cd183 2.439 1_565 S
O187 C188 1.208 . S
C188 O186 1.247 1_565 S
C188 O187 1.208 . S
C189 O194 1.247 . S
C189 O195 1.208 . S
C190 O182 1.315 . S
C190 O185 1.279 . S
C191 O192 1.315 . S
C191 O193 1.279 . S
O192 Cd184 2.223 . S
O192 C191 1.315 . S
O193 Cd183 2.240 . S
O193 C191 1.279 . S
O194 Cd184 2.297 . S
O194 C189 1.247 . S
O195 Cd184 2.439 . S
O195 C189 1.208 . S
O196 Cd197 2.223 . S
O196 C204 1.315 . S
Cd197 O196 2.223 . S
Cd197 O200 2.297 . S
Cd197 O201 2.439 . S
Cd197 O207 2.240 . S
Cd198 O199 2.240 . S
Cd198 O206 2.223 . S
Cd198 O208 2.297 . S
Cd198 O209 2.439 . S
O199 Cd198 2.240 . S
O199 C204 1.279 . S
O200 Cd197 2.297 . S
O200 C202 1.247 . S
O201 Cd197 2.439 . S
O201 C202 1.208 . S
C202 O200 1.247 . S
C202 O201 1.208 . S
C203 O208 1.247 . S
C203 O209 1.208 . S
C204 O196 1.315 . S
C204 O199 1.279 . S
C205 O206 1.315 . S
C205 O207 1.279 . S
O206 Cd198 2.223 . S
O206 C205 1.315 . S
O207 Cd197 2.240 . S
O207 C205 1.279 . S
O208 Cd198 2.297 . S
O208 C203 1.247 . S
O209 Cd198 2.439 . S
O209 C203 1.208 . S
O210 Cd211 2.223 . S
O210 C218 1.315 . S
Cd211 O210 2.223 . S
Cd211 O214 2.297 . S
Cd211 O215 2.439 1_565 S
Cd211 O221 2.240 . S
Cd212 O213 2.240 . S
Cd212 O220 2.223 . S
Cd212 O222 2.297 . S
Cd212 O223 2.439 . S
O213 Cd212 2.240 . S
O213 C218 1.279 . S
O214 Cd211 2.297 . S
O214 C216 1.247 1_565 S
O215 Cd211 2.439 1_545 S
O215 C216 1.208 . S
C216 O214 1.247 1_545 S
C216 O215 1.208 . S
C217 O222 1.247 . S
C217 O223 1.208 . S
C218 O210 1.315 . S
C218 O213 1.279 . S
C219 O220 1.315 . S
C219 O221 1.279 . S
O220 Cd212 2.223 . S
O220 C219 1.315 . S
O221 Cd211 2.240 . S
O221 C219 1.279 . S
O222 Cd212 2.297 . S
O222 C217 1.247 . S
O223 Cd212 2.439 . S
O223 C217 1.208 . S
O224 Cd225 2.223 . S
O224 C232 1.315 . S
Cd225 O224 2.223 . S
Cd225 O228 2.297 . S
Cd225 O229 2.439 . S
Cd225 O235 2.240 . S
Cd226 O227 2.240 . S
Cd226 O234 2.223 . S
Cd226 O236 2.297 . S
Cd226 O237 2.439 . S
O227 Cd226 2.240 . S
O227 C232 1.279 . S
O228 Cd225 2.297 . S
O228 C230 1.247 . S
O229 Cd225 2.439 . S
O229 C230 1.208 . S
C230 O228 1.247 . S
C230 O229 1.208 . S
C231 O236 1.247 . S
C231 O237 1.208 . S
C232 O224 1.315 . S
C232 O227 1.279 . S
C233 O234 1.315 . S
C233 O235 1.279 . S
O234 Cd226 2.223 . S
O234 C233 1.315 . S
O235 Cd225 2.240 . S
O235 C233 1.279 . S
O236 Cd226 2.297 . S
O236 C231 1.247 . S
O237 Cd226 2.439 . S
O237 C231 1.208 . S
O238 Cd239 2.223 . S
O238 C246 1.315 . S
Cd239 O238 2.223 . S
Cd239 O242 2.297 . S
Cd239 O243 2.439 . S
Cd239 O249 2.240 . S
Cd240 O241 2.240 . S
Cd240 O248 2.223 . S
Cd240 O250 2.297 . S
Cd240 O251 2.439 . S
O241 Cd240 2.240 . S
O241 C246 1.279 . S
O242 Cd239 2.297 . S
O242 C244 1.247 . S
O243 Cd239 2.439 . S
O243 C244 1.208 . S
C244 O242 1.247 . S
C244 O243 1.208 . S
C245 O250 1.247 . S
C245 O251 1.208 . S
C246 O238 1.315 . S
C246 O241 1.279 . S
C247 O248 1.315 . S
C247 O249 1.279 . S
O248 Cd240 2.223 . S
O248 C247 1.315 . S
O249 Cd239 2.240 . S
O249 C247 1.279 . S
O250 Cd240 2.297 . S
O250 C245 1.247 . S
O251 Cd240 2.439 . S
O251 C245 1.208 . S
O252 Cd253 2.223 . S
O252 C260 1.315 . S
Cd253 O252 2.223 . S
Cd253 O256 2.297 . S
Cd253 O257 2.439 . S
Cd253 O263 2.240 . S
Cd254 O255 2.240 . S
Cd254 O262 2.223 . S
Cd254 O264 2.297 . S
Cd254 O265 2.439 . S
O255 Cd254 2.240 . S
O255 C260 1.279 . S
O256 Cd253 2.297 . S
O256 C258 1.247 . S
O257 Cd253 2.439 . S
O257 C258 1.208 . S
C258 O256 1.247 . S
C258 O257 1.208 . S
C259 O264 1.247 . S
C259 O265 1.208 . S
C260 O252 1.315 . S
C260 O255 1.279 . S
C261 O262 1.315 . S
C261 O263 1.279 . S
O262 Cd254 2.223 . S
O262 C261 1.315 . S
O263 Cd253 2.240 . S
O263 C261 1.279 . S
O264 Cd254 2.297 . S
O264 C259 1.247 . S
O265 Cd254 2.439 . S
O265 C259 1.208 . S
O266 Cd267 2.223 . S
O266 C274 1.315 . S
Cd267 O266 2.223 . S
Cd267 O270 2.297 . S
Cd267 O271 2.439 . S
Cd267 O277 2.240 . S
Cd268 O269 2.240 . S
Cd268 O276 2.223 . S
Cd268 O278 2.297 . S
Cd268 O279 2.439 . S
O269 Cd268 2.240 . S
O269 C274 1.279 . S
O270 Cd267 2.297 . S
O270 C272 1.247 . S
O271 Cd267 2.439 . S
O271 C272 1.208 . S
C272 O270 1.247 . S
C272 O271 1.208 . S
C273 O278 1.247 . S
C273 O279 1.208 . S
C274 O266 1.315 . S
C274 O269 1.279 . S
C275 O276 1.315 . S
C275 O277 1.279 . S
O276 Cd268 2.223 . S
O276 C275 1.315 . S
O277 Cd267 2.240 . S
O277 C275 1.279 . S
O278 Cd268 2.297 . S
O278 C273 1.247 . S
O279 Cd268 2.439 . S
O279 C273 1.208 . S
O280 Cd281 2.223 . S
O280 C288 1.315 . S
Cd281 O280 2.223 . S
Cd281 O284 2.297 . S
Cd281 O285 2.439 . S
Cd281 O291 2.240 . S
Cd282 O283 2.240 . S
Cd282 O290 2.223 . S
Cd282 O292 2.297 . S
Cd282 O293 2.439 . S
O283 Cd282 2.240 . S
O283 C288 1.279 . S
O284 Cd281 2.297 . S
O284 C286 1.247 . S
O285 Cd281 2.439 . S
O285 C286 1.208 . S
C286 O284 1.247 . S
C286 O285 1.208 . S
C287 O292 1.247 . S
C287 O293 1.208 . S
C288 O280 1.315 . S
C288 O283 1.279 . S
C289 O290 1.315 . S
C289 O291 1.279 . S
O290 Cd282 2.223 . S
O290 C289 1.315 . S
O291 Cd281 2.240 . S
O291 C289 1.279 . S
O292 Cd282 2.297 . S
O292 C287 1.247 . S
O293 Cd282 2.439 . S
O293 C287 1.208 . S
O294 Cd295 2.223 . S
O294 C302 1.315 . S
Cd295 O294 2.223 . S
Cd295 O298 2.297 . S
Cd295 O299 2.439 . S
Cd295 O305 2.240 . S
Cd296 O297 2.240 . S
Cd296 O304 2.223 . S
Cd296 O306 2.297 . S
Cd296 O307 2.439 . S
O297 Cd296 2.240 . S
O297 C302 1.279 . S
O298 Cd295 2.297 . S
O298 C300 1.247 . S
O299 Cd295 2.439 . S
O299 C300 1.208 . S
C300 O298 1.247 . S
C300 O299 1.208 . S
C301 O306 1.247 . S
C301 O307 1.208 . S
C302 O294 1.315 . S
C302 O297 1.279 . S
C303 O304 1.315 . S
C303 O305 1.279 . S
O304 Cd296 2.223 . S
O304 C303 1.315 . S
O305 Cd295 2.240 . S
O305 C303 1.279 . S
O306 Cd296 2.297 . S
O306 C301 1.247 . S
O307 Cd296 2.439 . S
O307 C301 1.208 . S
O308 Cd309 2.223 . S
O308 C316 1.315 . S
Cd309 O308 2.223 . S
Cd309 O312 2.297 . S
Cd309 O313 2.439 . S
Cd309 O319 2.240 . S
Cd310 O311 2.240 . S
Cd310 O318 2.223 . S
Cd310 O320 2.297 . S
Cd310 O321 2.439 . S
O311 Cd310 2.240 . S
O311 C316 1.279 . S
O312 Cd309 2.297 . S
O312 C314 1.247 . S
O313 Cd309 2.439 . S
O313 C314 1.208 . S
C314 O312 1.247 . S
C314 O313 1.208 . S
C315 O320 1.247 . S
C315 O321 1.208 . S
C316 O308 1.315 . S
C316 O311 1.279 . S
C317 O318 1.315 . S
C317 O319 1.279 . S
O318 Cd310 2.223 . S
O318 C317 1.315 . S
O319 Cd309 2.240 . S
O319 C317 1.279 . S
O320 Cd310 2.297 . S
O320 C315 1.247 . S
O321 Cd310 2.439 . S
O321 C315 1.208 . S
O322 Cd323 2.223 . S
O322 C330 1.315 . S
Cd323 O322 2.223 . S
Cd323 O326 2.297 . S
Cd323 O327 2.439 . S
Cd323 O333 2.240 . S
Cd324 O325 2.240 . S
Cd324 O332 2.223 . S
Cd324 O334 2.297 . S
Cd324 O335 2.439 . S
O325 Cd324 2.240 . S
O325 C330 1.279 . S
O326 Cd323 2.297 . S
O326 C328 1.247 . S
O327 Cd323 2.439 . S
O327 C328 1.208 . S
C328 O326 1.247 . S
C328 O327 1.208 . S
C329 O334 1.247 . S
C329 O335 1.208 . S
C330 O322 1.315 . S
C330 O325 1.279 . S
C331 O332 1.315 . S
C331 O333 1.279 . S
O332 Cd324 2.223 . S
O332 C331 1.315 . S
O333 Cd323 2.240 . S
O333 C331 1.279 . S
O334 Cd324 2.297 . S
O334 C329 1.247 . S
O335 Cd324 2.439 . S
O335 C329 1.208 . S
O336 Cd337 2.223 . S
O336 C344 1.315 . S
Cd337 O336 2.223 . S
Cd337 O340 2.297 . S
Cd337 O341 2.439 . S
Cd337 O347 2.240 . S
Cd338 O339 2.240 . S
Cd338 O346 2.223 . S
Cd338 O348 2.297 . S
Cd338 O349 2.439 . S
O339 Cd338 2.240 . S
O339 C344 1.279 . S
O340 Cd337 2.297 . S
O340 C342 1.247 . S
O341 Cd337 2.439 . S
O341 C342 1.208 . S
C342 O340 1.247 . S
C342 O341 1.208 . S
C343 O348 1.247 . S
C343 O349 1.208 . S
C344 O336 1.315 . S
C344 O339 1.279 . S
C345 O346 1.315 . S
C345 O347 1.279 . S
O346 Cd338 2.223 . S
O346 C345 1.315 . S
O347 Cd337 2.240 . S
O347 C345 1.279 . S
O348 Cd338 2.297 . S
O348 C343 1.247 . S
O349 Cd338 2.439 . S
O349 C343 1.208 . S
O350 Cd351 2.223 . S
O350 C358 1.315 . S
Cd351 O350 2.223 . S
Cd351 O354 2.297 . S
Cd351 O355 2.439 . S
Cd351 O361 2.240 . S
Cd352 O353 2.240 . S
Cd352 O360 2.223 . S
Cd352 O362 2.297 . S
Cd352 O363 2.439 . S
O353 Cd352 2.240 . S
O353 C358 1.279 . S
O354 Cd351 2.297 . S
O354 C356 1.247 . S
O355 Cd351 2.439 . S
O355 C356 1.208 . S
C356 O354 1.247 . S
C356 O355 1.208 . S
C357 O362 1.247 . S
C357 O363 1.208 . S
C358 O350 1.315 . S
C358 O353 1.279 . S
C359 O360 1.315 . S
C359 O361 1.279 . S
O360 Cd352 2.223 . S
O360 C359 1.315 . S
O361 Cd351 2.240 . S
O361 C359 1.279 . S
O362 Cd352 2.297 . S
O362 C357 1.247 . S
O363 Cd352 2.439 . S
O363 C357 1.208 . S
O364 Cd365 2.223 . S
O364 C372 1.315 . S
Cd365 O364 2.223 . S
Cd365 O368 2.297 . S
Cd365 O369 2.439 . S
Cd365 O375 2.240 . S
Cd366 O367 2.240 . S
Cd366 O374 2.223 . S
Cd366 O376 2.297 . S
Cd366 O377 2.439 . S
O367 Cd366 2.240 . S
O367 C372 1.279 . S
O368 Cd365 2.297 . S
O368 C370 1.247 . S
O369 Cd365 2.439 . S
O369 C370 1.208 . S
C370 O368 1.247 . S
C370 O369 1.208 . S
C371 O376 1.247 . S
C371 O377 1.208 . S
C372 O364 1.315 . S
C372 O367 1.279 . S
C373 O374 1.315 . S
C373 O375 1.279 . S
O374 Cd366 2.223 . S
O374 C373 1.315 . S
O375 Cd365 2.240 . S
O375 C373 1.279 . S
O376 Cd366 2.297 . S
O376 C371 1.247 . S
O377 Cd366 2.439 . S
O377 C371 1.208 . S
O378 Cd379 2.223 . S
O378 C386 1.315 . S
Cd379 O378 2.223 . S
Cd379 O382 2.297 . S
Cd379 O383 2.439 . S
Cd379 O389 2.240 . S
Cd380 O381 2.240 . S
Cd380 O388 2.223 . S
Cd380 O390 2.297 . S
Cd380 O391 2.439 . S
O381 Cd380 2.240 . S
O381 C386 1.279 . S
O382 Cd379 2.297 . S
O382 C384 1.247 . S
O383 Cd379 2.439 . S
O383 C384 1.208 . S
C384 O382 1.247 . S
C384 O383 1.208 . S
C385 O390 1.247 . S
C385 O391 1.208 . S
C386 O378 1.315 . S
C386 O381 1.279 . S
C387 O388 1.315 . S
C387 O389 1.279 . S
O388 Cd380 2.223 . S
O388 C387 1.315 . S
O389 Cd379 2.240 . S
O389 C387 1.279 . S
O390 Cd380 2.297 . S
O390 C385 1.247 . S
O391 Cd380 2.439 . S
O391 C385 1.208 . S
O392 Cd393 2.223 . S
O392 C400 1.315 . S
Cd393 O392 2.223 . S
Cd393 O396 2.297 . S
Cd393 O397 2.439 . S
Cd393 O403 2.240 . S
Cd394 O395 2.240 . S
Cd394 O402 2.223 . S
Cd394 O404 2.297 . S
Cd394 O405 2.439 . S
O395 Cd394 2.240 . S
O395 C400 1.279 . S
O396 Cd393 2.297 . S
O396 C398 1.247 . S
O397 Cd393 2.439 . S
O397 C398 1.208 . S
C398 O396 1.247 . S
C398 O397 1.208 . S
C399 O404 1.247 . S
C399 O405 1.208 . S
C400 O392 1.315 . S
C400 O395 1.279 . S
C401 O402 1.315 . S
C401 O403 1.279 . S
O402 Cd394 2.223 . S
O402 C401 1.315 . S
O403 Cd393 2.240 . S
O403 C401 1.279 . S
O404 Cd394 2.297 . S
O404 C399 1.247 . S
O405 Cd394 2.439 . S
O405 C399 1.208 . S
O406 Cd407 2.223 . S
O406 C414 1.315 . S
Cd407 O406 2.223 . S
Cd407 O410 2.297 . S
Cd407 O411 2.439 . S
Cd407 O417 2.240 . S
Cd408 O409 2.240 . S
Cd408 O416 2.223 . S
Cd408 O418 2.297 . S
Cd408 O419 2.439 . S
O409 Cd408 2.240 . S
O409 C414 1.279 . S
O410 Cd407 2.297 . S
O410 C412 1.247 . S
O411 Cd407 2.439 . S
O411 C412 1.208 . S
C412 O410 1.247 . S
C412 O411 1.208 . S
C413 O418 1.247 . S
C413 O419 1.208 . S
C414 O406 1.315 . S
C414 O409 1.279 . S
C415 O416 1.315 . S
C415 O417 1.279 . S
O416 Cd408 2.223 . S
O416 C415 1.315 . S
O417 Cd407 2.240 . S
O417 C415 1.279 . S
O418 Cd408 2.297 . S
O418 C413 1.247 . S
O419 Cd408 2.439 . S
O419 C413 1.208 . S
O420 Cd421 2.223 . S
O420 C428 1.315 . S
Cd421 O420 2.223 . S
Cd421 O424 2.297 . S
Cd421 O425 2.439 . S
Cd421 O431 2.240 . S
Cd422 O423 2.240 . S
Cd422 O430 2.223 . S
Cd422 O432 2.297 . S
Cd422 O433 2.439 . S
O423 Cd422 2.240 . S
O423 C428 1.279 . S
O424 Cd421 2.297 . S
O424 C426 1.247 . S
O425 Cd421 2.439 . S
O425 C426 1.208 . S
C426 O424 1.247 . S
C426 O425 1.208 . S
C427 O432 1.247 . S
C427 O433 1.208 . S
C428 O420 1.315 . S
C428 O423 1.279 . S
C429 O430 1.315 . S
C429 O431 1.279 . S
O430 Cd422 2.223 . S
O430 C429 1.315 . S
O431 Cd421 2.240 . S
O431 C429 1.279 . S
O432 Cd422 2.297 . S
O432 C427 1.247 . S
O433 Cd422 2.439 . S
O433 C427 1.208 . S
O434 Cd435 2.223 . S
O434 C442 1.315 . S
Cd435 O434 2.223 . S
Cd435 O438 2.297 . S
Cd435 O439 2.439 . S
Cd435 O445 2.240 . S
Cd436 O437 2.240 . S
Cd436 O444 2.223 . S
Cd436 O446 2.297 . S
Cd436 O447 2.439 . S
O437 Cd436 2.240 . S
O437 C442 1.279 . S
O438 Cd435 2.297 . S
O438 C440 1.247 . S
O439 Cd435 2.439 . S
O439 C440 1.208 . S
C440 O438 1.247 . S
C440 O439 1.208 . S
C441 O446 1.247 . S
C441 O447 1.208 . S
C442 O434 1.315 . S
C442 O437 1.279 . S
C443 O444 1.315 . S
C443 O445 1.279 . S
O444 Cd436 2.223 . S
O444 C443 1.315 . S
O445 Cd435 2.240 . S
O445 C443 1.279 . S
O446 Cd436 2.297 . S
O446 C441 1.247 . S
O447 Cd436 2.439 . S
O447 C441 1.208 . S
C448 C449 1.363 . S
C448 C454 1.379 . S
C448 N456 1.356 . S
C449 C448 1.363 . S
C449 C455 1.363 . S
C450 C451 1.363 . S
C450 C455 1.379 . S
C450 N457 1.356 . S
C451 C450 1.363 . S
C451 C454 1.363 . S
N452 C454 1.356 . S
N452 H464 0.984 . S
N452 H465 0.985 . S
N453 C455 1.356 . S
N453 H458 0.984 . S
N453 H459 0.985 . S
C454 C448 1.379 . S
C454 C451 1.363 . S
C454 N452 1.356 . S
C455 C449 1.363 . S
C455 C450 1.379 . S
C455 N453 1.356 . S
N456 C448 1.356 . S
N456 H462 0.984 . S
N456 H463 0.984 . S
N457 C450 1.356 . S
N457 H460 0.984 . S
N457 H461 0.985 . S
H458 N453 0.984 . S
H459 N453 0.985 . S
H460 N457 0.984 . S
H461 N457 0.985 . S
H462 N456 0.984 . S
H463 N456 0.984 . S
H464 N452 0.984 . S
H465 N452 0.985 . S
C466 C467 1.363 . S
C466 C472 1.379 . S
C466 N474 1.356 . S
C467 C466 1.363 . S
C467 C473 1.363 . S
C468 C469 1.363 . S
C468 C473 1.379 . S
C468 N475 1.356 . S
C469 C468 1.363 . S
C469 C472 1.363 . S
N470 C472 1.356 . S
N470 H482 0.984 . S
N470 H483 0.985 . S
N471 C473 1.356 . S
N471 H476 0.984 1_655 S
N471 H477 0.985 1_655 S
C472 C466 1.379 . S
C472 C469 1.363 . S
C472 N470 1.356 . S
C473 C467 1.363 . S
C473 C468 1.379 . S
C473 N471 1.356 . S
N474 C466 1.356 . S
N474 H480 0.984 . S
N474 H481 0.984 . S
N475 C468 1.356 . S
N475 H478 0.984 . S
N475 H479 0.985 . S
H476 N471 0.984 1_455 S
H477 N471 0.985 1_455 S
H478 N475 0.984 . S
H479 N475 0.985 . S
H480 N474 0.984 . S
H481 N474 0.984 . S
H482 N470 0.984 . S
H483 N470 0.985 . S
C484 C485 1.363 . S
C484 C490 1.379 . S
C484 N492 1.356 . S
C485 C484 1.363 . S
C485 C491 1.363 . S
C486 C487 1.363 . S
C486 C491 1.379 . S
C486 N493 1.356 . S
C487 C486 1.363 . S
C487 C490 1.363 . S
N488 C490 1.356 . S
N488 H500 0.984 . S
N488 H501 0.985 . S
N489 C491 1.356 . S
N489 H494 0.984 . S
N489 H495 0.985 . S
C490 C484 1.379 . S
C490 C487 1.363 . S
C490 N488 1.356 . S
C491 C485 1.363 . S
C491 C486 1.379 . S
C491 N489 1.356 . S
N492 C484 1.356 . S
N492 H498 0.984 . S
N492 H499 0.984 . S
N493 C486 1.356 . S
N493 H496 0.984 . S
N493 H497 0.985 . S
H494 N489 0.984 . S
H495 N489 0.985 . S
H496 N493 0.984 . S
H497 N493 0.985 . S
H498 N492 0.984 . S
H499 N492 0.984 . S
H500 N488 0.984 . S
H501 N488 0.985 . S
C502 C503 1.363 . S
C502 C508 1.379 . S
C502 N510 1.356 . S
C503 C502 1.363 . S
C503 C509 1.363 . S
C504 C505 1.363 . S
C504 C509 1.379 . S
C504 N511 1.356 . S
C505 C504 1.363 . S
C505 C508 1.363 . S
N506 C508 1.356 . S
N506 H518 0.984 . S
N506 H519 0.985 . S
N507 C509 1.356 . S
N507 H512 0.984 . S
N507 H513 0.985 . S
C508 C502 1.379 . S
C508 C505 1.363 . S
C508 N506 1.356 . S
C509 C503 1.363 . S
C509 C504 1.379 . S
C509 N507 1.356 . S
N510 C502 1.356 . S
N510 H516 0.984 . S
N510 H517 0.984 . S
N511 C504 1.356 . S
N511 H514 0.984 . S
N511 H515 0.985 . S
H512 N507 0.984 . S
H513 N507 0.985 . S
H514 N511 0.984 . S
H515 N511 0.985 . S
H516 N510 0.984 . S
H517 N510 0.984 . S
H518 N506 0.984 . S
H519 N506 0.985 . S
C520 C521 1.363 . S
C520 C526 1.379 . S
C520 N528 1.356 . S
C521 C520 1.363 . S
C521 C527 1.363 . S
C522 C523 1.363 . S
C522 C527 1.379 . S
C522 N529 1.356 . S
C523 C522 1.363 . S
C523 C526 1.363 . S
N524 C526 1.356 . S
N524 H536 0.984 . S
N524 H537 0.985 . S
N525 C527 1.356 . S
N525 H530 0.984 . S
N525 H531 0.985 . S
C526 C520 1.379 . S
C526 C523 1.363 . S
C526 N524 1.356 . S
C527 C521 1.363 . S
C527 C522 1.379 . S
C527 N525 1.356 . S
N528 C520 1.356 . S
N528 H534 0.984 . S
N528 H535 0.984 . S
N529 C522 1.356 . S
N529 H532 0.984 . S
N529 H533 0.985 . S
H530 N525 0.984 . S
H531 N525 0.985 . S
H532 N529 0.984 . S
H533 N529 0.985 . S
H534 N528 0.984 . S
H535 N528 0.984 . S
H536 N524 0.984 . S
H537 N524 0.985 . S
C538 C539 1.363 . S
C538 C544 1.379 . S
C538 N546 1.356 . S
C539 C538 1.363 . S
C539 C545 1.363 . S
C540 C541 1.363 . S
C540 C545 1.379 . S
C540 N547 1.356 . S
C541 C540 1.363 . S
C541 C544 1.363 . S
N542 C544 1.356 . S
N542 H554 0.984 . S
N542 H555 0.985 . S
N543 C545 1.356 . S
N543 H548 0.984 . S
N543 H549 0.985 . S
C544 C538 1.379 . S
C544 C541 1.363 . S
C544 N542 1.356 . S
C545 C539 1.363 . S
C545 C540 1.379 . S
C545 N543 1.356 . S
N546 C538 1.356 . S
N546 H552 0.984 . S
N546 H553 0.984 . S
N547 C540 1.356 . S
N547 H550 0.984 . S
N547 H551 0.985 . S
H548 N543 0.984 . S
H549 N543 0.985 . S
H550 N547 0.984 . S
H551 N547 0.985 . S
H552 N546 0.984 . S
H553 N546 0.984 . S
H554 N542 0.984 . S
H555 N542 0.985 . S
C556 C557 1.363 . S
C556 C562 1.379 . S
C556 N564 1.356 . S
C557 C556 1.363 . S
C557 C563 1.363 . S
C558 C559 1.363 . S
C558 C563 1.379 . S
C558 N565 1.356 . S
C559 C558 1.363 . S
C559 C562 1.363 . S
N560 C562 1.356 . S
N560 H572 0.984 . S
N560 H573 0.985 . S
N561 C563 1.356 . S
N561 H566 0.984 . S
N561 H567 0.985 . S
C562 C556 1.379 . S
C562 C559 1.363 . S
C562 N560 1.356 . S
C563 C557 1.363 . S
C563 C558 1.379 . S
C563 N561 1.356 . S
N564 C556 1.356 . S
N564 H570 0.984 . S
N564 H571 0.984 . S
N565 C558 1.356 . S
N565 H568 0.984 . S
N565 H569 0.985 . S
H566 N561 0.984 . S
H567 N561 0.985 . S
H568 N565 0.984 . S
H569 N565 0.985 . S
H570 N564 0.984 . S
H571 N564 0.984 . S
H572 N560 0.984 . S
H573 N560 0.985 . S
C574 C575 1.363 . S
C574 C580 1.379 . S
C574 N582 1.356 1_655 S
C575 C574 1.363 . S
C575 C581 1.363 . S
C576 C577 1.363 . S
C576 C581 1.379 . S
C576 N583 1.356 . S
C577 C576 1.363 . S
C577 C580 1.363 . S
N578 C580 1.356 . S
N578 H590 0.984 . S
N578 H591 0.985 . S
N579 C581 1.356 . S
N579 H584 0.984 . S
N579 H585 0.985 . S
C580 C574 1.379 . S
C580 C577 1.363 . S
C580 N578 1.356 . S
C581 C575 1.363 . S
C581 C576 1.379 . S
C581 N579 1.356 . S
N582 C574 1.356 1_455 S
N582 H588 0.984 . S
N582 H589 0.984 . S
N583 C576 1.356 . S
N583 H586 0.984 . S
N583 H587 0.985 . S
H584 N579 0.984 . S
H585 N579 0.985 . S
H586 N583 0.984 . S
H587 N583 0.985 . S
H588 N582 0.984 . S
H589 N582 0.984 . S
H590 N578 0.984 . S
H591 N578 0.985 . S
C592 C593 1.363 . S
C592 C598 1.379 . S
C592 N600 1.356 . S
C593 C592 1.363 . S
C593 C599 1.363 . S
C594 C595 1.363 . S
C594 C599 1.379 . S
C594 N601 1.356 . S
C595 C594 1.363 . S
C595 C598 1.363 . S
N596 C598 1.356 . S
N596 H608 0.984 . S
N596 H609 0.985 . S
N597 C599 1.356 . S
N597 H602 0.984 . S
N597 H603 0.985 . S
C598 C592 1.379 . S
C598 C595 1.363 . S
C598 N596 1.356 . S
C599 C593 1.363 . S
C599 C594 1.379 . S
C599 N597 1.356 . S
N600 C592 1.356 . S
N600 H606 0.984 . S
N600 H607 0.984 . S
N601 C594 1.356 . S
N601 H604 0.984 . S
N601 H605 0.985 . S
H602 N597 0.984 . S
H603 N597 0.985 . S
H604 N601 0.984 . S
H605 N601 0.985 . S
H606 N600 0.984 . S
H607 N600 0.984 . S
H608 N596 0.984 . S
H609 N596 0.985 . S
C610 C611 1.363 . S
C610 C616 1.379 . S
C610 N618 1.356 . S
C611 C610 1.363 . S
C611 C617 1.363 . S
C612 C613 1.363 . S
C612 C617 1.379 . S
C612 N619 1.356 . S
C613 C612 1.363 . S
C613 C616 1.363 . S
N614 C616 1.356 . S
N614 H626 0.984 . S
N614 H627 0.985 1_455 S
N615 C617 1.356 . S
N615 H620 0.984 . S
N615 H621 0.985 . S
C616 C610 1.379 . S
C616 C613 1.363 . S
C616 N614 1.356 . S
C617 C611 1.363 . S
C617 C612 1.379 . S
C617 N615 1.356 . S
N618 C610 1.356 . S
N618 H624 0.984 . S
N618 H625 0.984 . S
N619 C612 1.356 . S
N619 H622 0.984 . S
N619 H623 0.985 . S
H620 N615 0.984 . S
H621 N615 0.985 . S
H622 N619 0.984 . S
H623 N619 0.985 . S
H624 N618 0.984 . S
H625 N618 0.984 . S
H626 N614 0.984 . S
H627 N614 0.985 1_655 S
C628 C629 1.363 . S
C628 C634 1.379 . S
C628 N636 1.356 . S
C629 C628 1.363 . S
C629 C635 1.363 . S
C630 C631 1.363 . S
C630 C635 1.379 . S
C630 N637 1.356 . S
C631 C630 1.363 . S
C631 C634 1.363 . S
N632 C634 1.356 . S
N632 H644 0.984 . S
N632 H645 0.985 . S
N633 C635 1.356 . S
N633 H638 0.984 . S
N633 H639 0.985 . S
C634 C628 1.379 . S
C634 C631 1.363 . S
C634 N632 1.356 . S
C635 C629 1.363 . S
C635 C630 1.379 . S
C635 N633 1.356 . S
N636 C628 1.356 . S
N636 H642 0.984 . S
N636 H643 0.984 . S
N637 C630 1.356 . S
N637 H640 0.984 . S
N637 H641 0.985 . S
H638 N633 0.984 . S
H639 N633 0.985 . S
H640 N637 0.984 . S
H641 N637 0.985 . S
H642 N636 0.984 . S
H643 N636 0.984 . S
H644 N632 0.984 . S
H645 N632 0.985 . S
C646 C647 1.363 . S
C646 C652 1.379 . S
C646 N654 1.356 . S
C647 C646 1.363 . S
C647 C653 1.363 . S
C648 C649 1.363 . S
C648 C653 1.379 . S
C648 N655 1.356 . S
C649 C648 1.363 . S
C649 C652 1.363 . S
N650 C652 1.356 . S
N650 H662 0.984 . S
N650 H663 0.985 . S
N651 C653 1.356 . S
N651 H656 0.984 . S
N651 H657 0.985 . S
C652 C646 1.379 . S
C652 C649 1.363 . S
C652 N650 1.356 . S
C653 C647 1.363 . S
C653 C648 1.379 . S
C653 N651 1.356 . S
N654 C646 1.356 . S
N654 H660 0.984 . S
N654 H661 0.984 . S
N655 C648 1.356 . S
N655 H658 0.984 . S
N655 H659 0.985 . S
H656 N651 0.984 . S
H657 N651 0.985 . S
H658 N655 0.984 . S
H659 N655 0.985 . S
H660 N654 0.984 . S
H661 N654 0.984 . S
H662 N650 0.984 . S
H663 N650 0.985 . S
C664 C665 1.363 . S
C664 C670 1.379 . S
C664 N672 1.356 . S
C665 C664 1.363 . S
C665 C671 1.363 . S
C666 C667 1.363 . S
C666 C671 1.379 . S
C666 N673 1.356 . S
C667 C666 1.363 . S
C667 C670 1.363 . S
N668 C670 1.356 . S
N668 H680 0.984 . S
N668 H681 0.985 . S
N669 C671 1.356 . S
N669 H674 0.984 . S
N669 H675 0.985 . S
C670 C664 1.379 . S
C670 C667 1.363 . S
C670 N668 1.356 . S
C671 C665 1.363 . S
C671 C666 1.379 . S
C671 N669 1.356 . S
N672 C664 1.356 . S
N672 H678 0.984 . S
N672 H679 0.984 . S
N673 C666 1.356 . S
N673 H676 0.984 . S
N673 H677 0.985 . S
H674 N669 0.984 . S
H675 N669 0.985 . S
H676 N673 0.984 . S
H677 N673 0.985 . S
H678 N672 0.984 . S
H679 N672 0.984 . S
H680 N668 0.984 . S
H681 N668 0.985 . S
C682 C683 1.363 . S
C682 C688 1.379 . S
C682 N690 1.356 . S
C683 C682 1.363 . S
C683 C689 1.363 . S
C684 C685 1.363 . S
C684 C689 1.379 . S
C684 N691 1.356 . S
C685 C684 1.363 . S
C685 C688 1.363 . S
N686 C688 1.356 . S
N686 H698 0.984 . S
N686 H699 0.985 . S
N687 C689 1.356 . S
N687 H692 0.984 . S
N687 H693 0.985 . S
C688 C682 1.379 . S
C688 C685 1.363 . S
C688 N686 1.356 . S
C689 C683 1.363 . S
C689 C684 1.379 . S
C689 N687 1.356 . S
N690 C682 1.356 . S
N690 H696 0.984 . S
N690 H697 0.984 . S
N691 C684 1.356 . S
N691 H694 0.984 . S
N691 H695 0.985 . S
H692 N687 0.984 . S
H693 N687 0.985 . S
H694 N691 0.984 . S
H695 N691 0.985 . S
H696 N690 0.984 . S
H697 N690 0.984 . S
H698 N686 0.984 . S
H699 N686 0.985 . S
C700 C701 1.363 . S
C700 C706 1.379 . S
C700 N708 1.356 . S
C701 C700 1.363 . S
C701 C707 1.363 . S
C702 C703 1.363 . S
C702 C707 1.379 . S
C702 N709 1.356 . S
C703 C702 1.363 . S
C703 C706 1.363 . S
N704 C706 1.356 . S
N704 H716 0.984 . S
N704 H717 0.985 . S
N705 C707 1.356 . S
N705 H710 0.984 . S
N705 H711 0.985 . S
C706 C700 1.379 . S
C706 C703 1.363 . S
C706 N704 1.356 . S
C707 C701 1.363 . S
C707 C702 1.379 . S
C707 N705 1.356 . S
N708 C700 1.356 . S
N708 H714 0.984 . S
N708 H715 0.984 . S
N709 C702 1.356 . S
N709 H712 0.984 . S
N709 H713 0.985 . S
H710 N705 0.984 . S
H711 N705 0.985 . S
H712 N709 0.984 . S
H713 N709 0.985 . S
H714 N708 0.984 . S
H715 N708 0.984 . S
H716 N704 0.984 . S
H717 N704 0.985 . S
C718 C719 1.363 . S
C718 C724 1.379 . S
C718 N726 1.356 . S
C719 C718 1.363 . S
C719 C725 1.363 . S
C720 C721 1.363 . S
C720 C725 1.379 . S
C720 N727 1.356 . S
C721 C720 1.363 . S
C721 C724 1.363 . S
N722 C724 1.333 1_655 S
N722 H734 0.991 . S
N722 H735 1.002 . S
N723 C725 1.356 . S
N723 H728 0.984 . S
N723 H729 0.985 . S
C724 C718 1.379 . S
C724 C721 1.363 . S
C724 N722 1.333 1_455 S
C725 C719 1.363 . S
C725 C720 1.379 . S
C725 N723 1.356 . S
N726 C718 1.356 . S
N726 H732 0.984 . S
N726 H733 0.984 . S
N727 C720 1.356 . S
N727 H730 0.984 . S
N727 H731 0.985 . S
H728 N723 0.984 . S
H729 N723 0.985 . S
H730 N727 0.984 . S
H731 N727 0.985 . S
H732 N726 0.984 . S
H733 N726 0.984 . S
H734 N722 0.991 . S
H735 N722 1.002 . S
C736 C737 1.363 . S
C736 C742 1.379 . S
C736 N744 1.356 . S
C737 C736 1.363 . S
C737 C743 1.363 . S
C738 C739 1.363 . S
C738 C743 1.379 . S
C738 N745 1.356 . S
C739 C738 1.363 . S
C739 C742 1.363 . S
N740 C742 1.356 . S
N740 H752 0.984 . S
N740 H753 0.985 . S
N741 C743 1.356 . S
N741 H746 0.984 . S
N741 H747 0.985 . S
C742 C736 1.379 . S
C742 C739 1.363 . S
C742 N740 1.356 . S
C743 C737 1.363 . S
C743 C738 1.379 . S
C743 N741 1.356 . S
N744 C736 1.356 . S
N744 H750 0.984 . S
N744 H751 0.984 . S
N745 C738 1.356 . S
N745 H748 0.984 . S
N745 H749 0.985 . S
H746 N741 0.984 . S
H747 N741 0.985 . S
H748 N745 0.984 . S
H749 N745 0.985 . S
H750 N744 0.984 . S
H751 N744 0.984 . S
H752 N740 0.984 . S
H753 N740 0.985 . S
C754 C755 1.363 . S
C754 C760 1.379 . S
C754 N762 1.356 . S
C755 C754 1.363 . S
C755 C761 1.363 . S
C756 C757 1.363 . S
C756 C761 1.379 . S
C756 N763 1.356 . S
C757 C756 1.363 . S
C757 C760 1.363 . S
N758 C760 1.356 . S
N758 H770 0.984 . S
N758 H771 0.985 . S
N759 C761 1.356 . S
N759 H764 0.984 . S
N759 H765 0.985 . S
C760 C754 1.379 . S
C760 C757 1.363 . S
C760 N758 1.356 . S
C761 C755 1.363 . S
C761 C756 1.379 . S
C761 N759 1.356 . S
N762 C754 1.356 . S
N762 H768 0.984 . S
N762 H769 0.984 . S
N763 C756 1.356 . S
N763 H766 0.984 . S
N763 H767 0.985 . S
H764 N759 0.984 . S
H765 N759 0.985 . S
H766 N763 0.984 . S
H767 N763 0.985 . S
H768 N762 0.984 . S
H769 N762 0.984 . S
H770 N758 0.984 . S
H771 N758 0.985 . S
C772 C773 1.363 . S
C772 C778 1.379 . S
C772 N780 1.356 . S
C773 C772 1.363 . S
C773 C779 1.363 . S
C774 C775 1.363 . S
C774 C779 1.379 . S
C774 N781 1.356 . S
C775 C774 1.363 . S
C775 C778 1.363 . S
N776 C778 1.356 . S
N776 H788 0.984 . S
N776 H789 0.985 . S
N777 C779 1.356 . S
N777 H782 0.984 . S
N777 H783 0.985 . S
C778 C772 1.379 . S
C778 C775 1.363 . S
C778 N776 1.356 . S
C779 C773 1.363 . S
C779 C774 1.379 . S
C779 N777 1.356 . S
N780 C772 1.356 . S
N780 H786 0.984 . S
N780 H787 0.984 . S
N781 C774 1.356 . S
N781 H784 0.984 . S
N781 H785 0.985 . S
H782 N777 0.984 . S
H783 N777 0.985 . S
H784 N781 0.984 . S
H785 N781 0.985 . S
H786 N780 0.984 . S
H787 N780 0.984 . S
H788 N776 0.984 . S
H789 N776 0.985 . S
C790 C791 1.363 . S
C790 C796 1.379 . S
C790 N798 1.356 . S
C791 C790 1.363 . S
C791 C797 1.363 . S
C792 C793 1.363 . S
C792 C797 1.379 . S
C792 N799 1.356 . S
C793 C792 1.363 . S
C793 C796 1.363 . S
N794 C796 1.356 1_655 S
N794 H806 0.984 . S
N794 H807 0.985 . S
N795 C797 1.356 . S
N795 H800 0.984 . S
N795 H801 0.985 . S
C796 C790 1.379 . S
C796 C793 1.363 . S
C796 N794 1.356 1_455 S
C797 C791 1.363 . S
C797 C792 1.379 . S
C797 N795 1.356 . S
N798 C790 1.356 . S
N798 H804 0.984 . S
N798 H805 0.984 . S
N799 C792 1.356 . S
N799 H802 0.984 . S
N799 H803 0.985 . S
H800 N795 0.984 . S
H801 N795 0.985 . S
H802 N799 0.984 . S
H803 N799 0.985 . S
H804 N798 0.984 . S
H805 N798 0.984 . S
H806 N794 0.984 . S
H807 N794 0.985 . S
C808 C809 1.363 . S
C808 C814 1.379 . S
C808 N816 1.356 . S
C809 C808 1.363 . S
C809 C815 1.363 . S
C810 C811 1.363 . S
C810 C815 1.379 . S
C810 N817 1.356 . S
C811 C810 1.363 . S
C811 C814 1.363 . S
N812 C814 1.356 . S
N812 H824 0.984 . S
N812 H825 0.985 . S
N813 C815 1.356 . S
N813 H818 0.984 . S
N813 H819 0.985 . S
C814 C808 1.379 . S
C814 C811 1.363 . S
C814 N812 1.356 . S
C815 C809 1.363 . S
C815 C810 1.379 . S
C815 N813 1.356 . S
N816 C808 1.356 . S
N816 H822 0.984 . S
N816 H823 0.984 . S
N817 C810 1.356 . S
N817 H820 0.984 . S
N817 H821 0.985 . S
H818 N813 0.984 . S
H819 N813 0.985 . S
H820 N817 0.984 . S
H821 N817 0.985 . S
H822 N816 0.984 . S
H823 N816 0.984 . S
H824 N812 0.984 . S
H825 N812 0.985 . S
C826 C827 1.363 . S
C826 C832 1.379 . S
C826 N834 1.356 . S
C827 C826 1.363 . S
C827 C833 1.363 . S
C828 C829 1.363 . S
C828 C833 1.379 . S
C828 N835 1.356 . S
C829 C828 1.363 . S
C829 C832 1.363 . S
N830 C832 1.356 . S
N830 H842 0.984 . S
N830 H843 0.985 1_455 S
N831 C833 1.356 . S
N831 H836 0.984 . S
N831 H837 0.985 . S
C832 C826 1.379 . S
C832 C829 1.363 . S
C832 N830 1.356 . S
C833 C827 1.363 . S
C833 C828 1.379 . S
C833 N831 1.356 . S
N834 C826 1.356 . S
N834 H840 0.984 . S
N834 H841 0.984 . S
N835 C828 1.356 . S
N835 H838 0.984 . S
N835 H839 0.985 . S
H836 N831 0.984 . S
H837 N831 0.985 . S
H838 N835 0.984 . S
H839 N835 0.985 . S
H840 N834 0.984 . S
H841 N834 0.984 . S
H842 N830 0.984 . S
H843 N830 0.985 1_655 S
C844 C845 1.363 . S
C844 C850 1.379 . S
C844 N852 1.356 . S
C845 C844 1.363 . S
C845 C851 1.363 . S
C846 C847 1.363 . S
C846 C851 1.379 . S
C846 N853 1.356 . S
C847 C846 1.363 . S
C847 C850 1.363 . S
N848 C850 1.356 . S
N848 H860 0.984 . S
N848 H861 0.985 . S
N849 C851 1.356 . S
N849 H854 0.984 . S
N849 H855 0.985 . S
C850 C844 1.379 . S
C850 C847 1.363 . S
C850 N848 1.356 . S
C851 C845 1.363 . S
C851 C846 1.379 . S
C851 N849 1.356 . S
N852 C844 1.356 . S
N852 H858 0.984 . S
N852 H859 0.984 . S
N853 C846 1.356 . S
N853 H856 0.984 . S
N853 H857 0.985 . S
H854 N849 0.984 . S
H855 N849 0.985 . S
H856 N853 0.984 . S
H857 N853 0.985 . S
H858 N852 0.984 . S
H859 N852 0.984 . S
H860 N848 0.984 . S
H861 N848 0.985 . S
C862 C863 1.363 . S
C862 C868 1.379 . S
C862 N870 1.356 . S
C863 C862 1.363 . S
C863 C869 1.363 . S
C864 C865 1.363 . S
C864 C869 1.379 . S
C864 N871 1.356 . S
C865 C864 1.363 . S
C865 C868 1.363 . S
N866 C868 1.356 . S
N866 H878 0.984 . S
N866 H879 0.985 . S
N867 C869 1.356 . S
N867 H872 0.984 . S
N867 H873 0.985 . S
C868 C862 1.379 . S
C868 C865 1.363 . S
C868 N866 1.356 . S
C869 C863 1.363 . S
C869 C864 1.379 . S
C869 N867 1.356 . S
N870 C862 1.356 . S
N870 H876 0.984 . S
N870 H877 0.984 . S
N871 C864 1.356 . S
N871 H874 0.984 . S
N871 H875 0.985 . S
H872 N867 0.984 . S
H873 N867 0.985 . S
H874 N871 0.984 . S
H875 N871 0.985 . S
H876 N870 0.984 . S
H877 N870 0.984 . S
H878 N866 0.984 . S
H879 N866 0.985 . S
C880 C881 1.363 . S
C880 C886 1.379 . S
C880 N888 1.356 . S
C881 C880 1.363 . S
C881 C887 1.363 . S
C882 C883 1.363 . S
C882 C887 1.379 . S
C882 N889 1.356 . S
C883 C882 1.363 . S
C883 C886 1.363 . S
N884 C886 1.356 . S
N884 H896 0.984 . S
N884 H897 0.985 . S
N885 C887 1.356 . S
N885 H890 0.984 . S
N885 H891 0.985 . S
C886 C880 1.379 . S
C886 C883 1.363 . S
C886 N884 1.356 . S
C887 C881 1.363 . S
C887 C882 1.379 . S
C887 N885 1.356 . S
N888 C880 1.356 . S
N888 H894 0.984 . S
N888 H895 0.984 . S
N889 C882 1.356 . S
N889 H892 0.984 . S
N889 H893 0.985 . S
H890 N885 0.984 . S
H891 N885 0.985 . S
H892 N889 0.984 . S
H893 N889 0.985 . S
H894 N888 0.984 . S
H895 N888 0.984 . S
H896 N884 0.984 . S
H897 N884 0.985 . S
C898 C899 1.363 . S
C898 C904 1.379 . S
C898 N906 1.356 . S
C899 C898 1.363 . S
C899 C905 1.363 . S
C900 C901 1.363 . S
C900 C905 1.379 . S
C900 N907 1.356 . S
C901 C900 1.363 . S
C901 C904 1.363 . S
N902 C904 1.356 . S
N902 H914 0.984 . S
N902 H915 0.985 . S
N903 C905 1.356 . S
N903 H908 0.984 . S
N903 H909 0.985 . S
C904 C898 1.379 . S
C904 C901 1.363 . S
C904 N902 1.356 . S
C905 C899 1.363 . S
C905 C900 1.379 . S
C905 N903 1.356 . S
N906 C898 1.356 . S
N906 H912 0.984 . S
N906 H913 0.984 . S
N907 C900 1.356 . S
N907 H910 0.984 . S
N907 H911 0.985 . S
H908 N903 0.984 . S
H909 N903 0.985 . S
H910 N907 0.984 . S
H911 N907 0.985 . S
H912 N906 0.984 . S
H913 N906 0.984 . S
H914 N902 0.984 . S
H915 N902 0.985 . S
C916 C917 1.363 . S
C916 C922 1.379 . S
C916 N924 1.356 . S
C917 C916 1.363 . S
C917 C923 1.363 . S
C918 C919 1.363 . S
C918 C923 1.379 . S
C918 N925 1.356 . S
C919 C918 1.363 . S
C919 C922 1.363 . S
N920 C922 1.356 . S
N920 H932 0.984 . S
N920 H933 0.985 . S
N921 C923 1.356 . S
N921 H926 0.984 . S
N921 H927 0.985 . S
C922 C916 1.379 . S
C922 C919 1.363 . S
C922 N920 1.356 . S
C923 C917 1.363 . S
C923 C918 1.379 . S
C923 N921 1.356 . S
N924 C916 1.356 . S
N924 H930 0.984 . S
N924 H931 0.984 . S
N925 C918 1.356 . S
N925 H928 0.984 . S
N925 H929 0.985 . S
H926 N921 0.984 . S
H927 N921 0.985 . S
H928 N925 0.984 . S
H929 N925 0.985 . S
H930 N924 0.984 . S
H931 N924 0.984 . S
H932 N920 0.984 . S
H933 N920 0.985 . S
C934 C935 1.363 . S
C934 C940 1.379 . S
C934 N942 1.356 . S
C935 C934 1.363 . S
C935 C941 1.363 . S
C936 C937 1.363 . S
C936 C941 1.379 . S
C936 N943 1.356 . S
C937 C936 1.363 . S
C937 C940 1.363 . S
N938 C940 1.356 . S
N938 H950 0.984 . S
N938 H951 0.985 . S
N939 C941 1.356 . S
N939 H944 0.989 . S
N939 H945 0.985 . S
C940 C934 1.379 . S
C940 C937 1.363 . S
C940 N938 1.356 . S
C941 C935 1.363 . S
C941 C936 1.379 . S
C941 N939 1.356 . S
N942 C934 1.356 . S
N942 H948 0.984 . S
N942 H949 0.984 . S
N943 C936 1.356 . S
N943 H946 0.984 . S
N943 H947 0.985 . S
H944 N939 0.989 . S
H945 N939 0.985 . S
H946 N943 0.984 . S
H947 N943 0.985 . S
H948 N942 0.984 . S
H949 N942 0.984 . S
H950 N938 0.984 . S
H951 N938 0.985 . S
C952 C953 1.363 . S
C952 C958 1.379 . S
C952 N960 1.356 . S
C953 C952 1.363 . S
C953 C959 1.363 . S
C954 C955 1.363 . S
C954 C959 1.379 . S
C954 N961 1.356 . S
C955 C954 1.363 . S
C955 C958 1.363 . S
N956 C958 1.356 . S
N956 H968 0.984 . S
N956 H969 0.985 . S
N957 C959 1.356 . S
N957 H962 0.984 . S
N957 H963 0.985 . S
C958 C952 1.379 . S
C958 C955 1.363 . S
C958 N956 1.356 . S
C959 C953 1.363 . S
C959 C954 1.379 . S
C959 N957 1.356 . S
N960 C952 1.356 . S
N960 H966 0.984 . S
N960 H967 0.984 . S
N961 C954 1.356 . S
N961 H964 0.984 . S
N961 H965 0.985 . S
H962 N957 0.984 . S
H963 N957 0.985 . S
H964 N961 0.984 . S
H965 N961 0.985 . S
H966 N960 0.984 . S
H967 N960 0.984 . S
H968 N956 0.984 . S
H969 N956 0.985 . S
C970 C971 1.363 . S
C970 C976 1.379 . S
C970 N978 1.356 . S
C971 C970 1.363 . S
C971 C977 1.363 . S
C972 C973 1.363 . S
C972 C977 1.379 . S
C972 N979 1.356 . S
C973 C972 1.363 . S
C973 C976 1.363 . S
N974 C976 1.356 . S
N974 H986 0.984 . S
N974 H987 0.985 . S
N975 C977 1.356 1_455 S
N975 H980 0.984 . S
N975 H981 0.985 . S
C976 C970 1.379 . S
C976 C973 1.363 . S
C976 N974 1.356 . S
C977 C971 1.363 . S
C977 C972 1.379 . S
C977 N975 1.356 1_655 S
N978 C970 1.356 . S
N978 H984 0.984 . S
N978 H985 0.984 . S
N979 C972 1.356 . S
N979 H982 0.984 . S
N979 H983 0.985 . S
H980 N975 0.984 . S
H981 N975 0.985 . S
H982 N979 0.984 . S
H983 N979 0.985 . S
H984 N978 0.984 . S
H985 N978 0.984 . S
H986 N974 0.984 . S
H987 N974 0.985 . S
C988 C989 1.363 . S
C988 C994 1.379 . S
C988 N996 1.356 . S
C989 C988 1.363 . S
C989 C995 1.363 . S
C990 C991 1.363 . S
C990 C995 1.379 . S
C990 N997 1.356 . S
C991 C990 1.363 . S
C991 C994 1.363 . S
N992 C994 1.356 . S
N992 H1004 0.984 . S
N992 H1005 0.985 . S
N993 C995 1.356 . S
N993 H998 0.984 . S
N993 H999 0.985 . S
C994 C988 1.379 . S
C994 C991 1.363 . S
C994 N992 1.356 . S
C995 C989 1.363 . S
C995 C990 1.379 . S
C995 N993 1.356 . S
N996 C988 1.356 . S
N996 H1002 0.984 . S
N996 H1003 0.984 . S
N997 C990 1.356 . S
N997 H1000 0.984 . S
N997 H1001 0.985 . S
H998 N993 0.984 . S
H999 N993 0.985 . S
H1000 N997 0.984 . S
H1001 N997 0.985 . S
H1002 N996 0.984 . S
H1003 N996 0.984 . S
H1004 N992 0.984 . S
H1005 N992 0.985 . S
C1006 C1007 1.363 . S
C1006 C1012 1.379 . S
C1006 N1014 1.356 . S
C1007 C1006 1.363 . S
C1007 C1013 1.363 . S
C1008 C1009 1.363 . S
C1008 C1013 1.379 . S
C1008 N1015 1.356 . S
C1009 C1008 1.363 . S
C1009 C1012 1.363 . S
N1010 C1012 1.356 . S
N1010 H1022 0.984 . S
N1010 H1023 0.985 . S
N1011 C1013 1.356 . S
N1011 H1016 0.984 . S
N1011 H1017 0.985 . S
C1012 C1006 1.379 . S
C1012 C1009 1.363 . S
C1012 N1010 1.356 . S
C1013 C1007 1.363 . S
C1013 C1008 1.379 . S
C1013 N1011 1.356 . S
N1014 C1006 1.356 . S
N1014 H1020 0.984 . S
N1014 H1021 0.984 . S
N1015 C1008 1.356 . S
N1015 H1018 0.984 . S
N1015 H1019 0.985 . S
H1016 N1011 0.984 . S
H1017 N1011 0.985 . S
H1018 N1015 0.984 . S
H1019 N1015 0.985 . S
H1020 N1014 0.984 . S
H1021 N1014 0.984 . S
H1022 N1010 0.984 . S
H1023 N1010 0.985 . S
C1024 C1025 1.363 . S
C1024 C1030 1.379 . S
C1024 N1032 1.356 . S
C1025 C1024 1.363 . S
C1025 C1031 1.363 . S
C1026 C1027 1.363 . S
C1026 C1031 1.379 . S
C1026 N1033 1.356 . S
C1027 C1026 1.363 . S
C1027 C1030 1.363 . S
N1028 C1030 1.356 . S
N1028 H1040 0.984 . S
N1028 H1041 0.985 . S
N1029 C1031 1.356 . S
N1029 H1034 0.984 . S
N1029 H1035 0.985 . S
C1030 C1024 1.379 . S
C1030 C1027 1.363 . S
C1030 N1028 1.356 . S
C1031 C1025 1.363 . S
C1031 C1026 1.379 . S
C1031 N1029 1.356 . S
N1032 C1024 1.356 . S
N1032 H1038 0.984 . S
N1032 H1039 0.984 . S
N1033 C1026 1.356 . S
N1033 H1036 0.984 . S
N1033 H1037 0.985 . S
H1034 N1029 0.984 . S
H1035 N1029 0.985 . S
H1036 N1033 0.984 . S
H1037 N1033 0.985 . S
H1038 N1032 0.984 . S
H1039 N1032 0.984 . S
H1040 N1028 0.984 . S
H1041 N1028 0.985 . S
C1042 C1043 1.363 1_645 S
C1042 C1048 1.379 . S
C1042 N1050 1.356 . S
C1043 C1042 1.363 1_465 S
C1043 C1049 1.363 . S
C1044 C1045 1.363 1_465 S
C1044 C1049 1.379 . S
C1044 N1051 1.356 . S
C1045 C1044 1.363 1_645 S
C1045 C1048 1.363 . S
N1046 C1048 1.356 . S
N1046 H1058 0.984 . S
N1046 H1059 0.985 . S
N1047 C1049 1.356 . S
N1047 H1052 0.984 . S
N1047 H1053 0.985 . S
C1048 C1042 1.379 . S
C1048 C1045 1.363 . S
C1048 N1046 1.356 . S
C1049 C1043 1.363 . S
C1049 C1044 1.379 . S
C1049 N1047 1.356 . S
N1050 C1042 1.356 . S
N1050 H1056 0.984 . S
N1050 H1057 0.984 . S
N1051 C1044 1.356 . S
N1051 H1054 0.984 . S
N1051 H1055 0.985 . S
H1052 N1047 0.984 . S
H1053 N1047 0.985 . S
H1054 N1051 0.984 . S
H1055 N1051 0.985 . S
H1056 N1050 0.984 . S
H1057 N1050 0.984 . S
H1058 N1046 0.984 . S
H1059 N1046 0.985 . S
C1060 C1061 1.363 . S
C1060 C1066 1.379 . S
C1060 N1068 1.356 . S
C1061 C1060 1.363 . S
C1061 C1067 1.363 . S
C1062 C1063 1.363 . S
C1062 C1067 1.379 . S
C1062 N1069 1.356 . S
C1063 C1062 1.363 . S
C1063 C1066 1.363 . S
N1064 C1066 1.356 . S
N1064 H1076 0.984 . S
N1064 H1077 0.985 . S
N1065 C1067 1.356 . S
N1065 H1070 0.984 . S
N1065 H1071 0.985 . S
C1066 C1060 1.379 . S
C1066 C1063 1.363 . S
C1066 N1064 1.356 . S
C1067 C1061 1.363 . S
C1067 C1062 1.379 . S
C1067 N1065 1.356 . S
N1068 C1060 1.356 . S
N1068 H1074 0.984 . S
N1068 H1075 0.984 . S
N1069 C1062 1.356 . S
N1069 H1072 0.984 . S
N1069 H1073 0.985 . S
H1070 N1065 0.984 . S
H1071 N1065 0.985 . S
H1072 N1069 0.984 . S
H1073 N1069 0.985 . S
H1074 N1068 0.984 . S
H1075 N1068 0.984 . S
H1076 N1064 0.984 . S
H1077 N1064 0.985 . S
C1078 C1079 1.363 1_565 S
C1078 C1084 1.379 1_554 S
C1078 N1086 1.356 . S
C1079 C1078 1.363 1_545 S
C1079 C1085 1.363 . S
C1080 C1081 1.363 1_545 S
C1080 C1085 1.379 1_556 S
C1080 N1087 1.356 . S
C1081 C1080 1.363 1_565 S
C1081 C1084 1.363 . S
N1082 C1084 1.356 . S
N1082 H1094 1.009 . S
N1082 H1095 0.985 . S
N1083 C1085 1.356 . S
N1083 H1088 0.984 . S
N1083 H1089 1.009 . S
C1084 C1078 1.379 1_556 S
C1084 C1081 1.363 . S
C1084 N1082 1.356 . S
C1085 C1079 1.363 . S
C1085 C1080 1.379 1_554 S
C1085 N1083 1.356 . S
N1086 C1078 1.356 . S
N1086 H1092 0.984 . S
N1086 H1093 0.984 . S
N1087 C1080 1.356 . S
N1087 H1090 0.984 . S
N1087 H1091 0.985 . S
H1088 N1083 0.984 . S
H1089 N1083 1.009 . S
H1090 N1087 0.984 . S
H1091 N1087 0.985 . S
H1092 N1086 0.984 . S
H1093 N1086 0.984 . S
H1094 N1082 1.009 . S
H1095 N1082 0.985 . S
C1096 C1097 1.363 . S
C1096 C1102 1.379 . S
C1096 N1104 1.356 . S
C1097 C1096 1.363 . S
C1097 C1103 1.363 . S
C1098 C1099 1.363 . S
C1098 C1103 1.379 . S
C1098 N1105 1.356 . S
C1099 C1098 1.363 . S
C1099 C1102 1.363 . S
N1100 C1102 1.356 . S
N1100 H1112 0.984 . S
N1100 H1113 0.985 . S
N1101 C1103 1.356 . S
N1101 H1106 0.984 . S
N1101 H1107 0.985 . S
C1102 C1096 1.379 . S
C1102 C1099 1.363 . S
C1102 N1100 1.356 . S
C1103 C1097 1.363 . S
C1103 C1098 1.379 . S
C1103 N1101 1.356 . S
N1104 C1096 1.356 . S
N1104 H1110 0.984 . S
N1104 H1111 0.984 . S
N1105 C1098 1.356 . S
N1105 H1108 0.984 . S
N1105 H1109 0.985 . S
H1106 N1101 0.984 . S
H1107 N1101 0.985 . S
H1108 N1105 0.984 . S
H1109 N1105 0.985 . S
H1110 N1104 0.984 . S
H1111 N1104 0.984 . S
H1112 N1100 0.984 . S
H1113 N1100 0.985 . S
C1114 C1115 1.363 . S
C1114 C1120 1.379 . S
C1114 N1122 1.356 . S
C1115 C1114 1.363 . S
C1115 C1121 1.363 1_565 S
C1116 C1117 1.363 . S
C1116 C1121 1.379 . S
C1116 N1123 1.356 . S
C1117 C1116 1.363 . S
C1117 C1120 1.363 1_545 S
N1118 C1120 1.356 . S
N1118 H1130 0.984 . S
N1118 H1131 0.985 . S
N1119 C1121 1.356 . S
N1119 H1124 0.984 . S
N1119 H1125 0.985 . S
C1120 C1114 1.379 . S
C1120 C1117 1.363 1_565 S
C1120 N1118 1.356 . S
C1121 C1115 1.363 1_545 S
C1121 C1116 1.379 . S
C1121 N1119 1.356 . S
N1122 C1114 1.356 . S
N1122 H1128 0.984 . S
N1122 H1129 0.984 . S
N1123 C1116 1.356 . S
N1123 H1126 0.984 . S
N1123 H1127 0.985 . S
H1124 N1119 0.984 . S
H1125 N1119 0.985 . S
H1126 N1123 0.984 . S
H1127 N1123 0.985 . S
H1128 N1122 0.984 . S
H1129 N1122 0.984 . S
H1130 N1118 0.984 . S
H1131 N1118 0.985 . S
C1132 C1133 1.363 . S
C1132 C1138 1.379 . S
C1132 N1140 1.356 . S
C1133 C1132 1.363 . S
C1133 C1139 1.363 . S
C1134 C1135 1.363 . S
C1134 C1139 1.379 . S
C1134 N1141 1.356 . S
C1135 C1134 1.363 . S
C1135 C1138 1.363 . S
N1136 C1138 1.356 . S
N1136 H1148 0.984 . S
N1136 H1149 0.985 . S
N1137 C1139 1.356 . S
N1137 H1142 0.984 . S
N1137 H1143 0.985 . S
C1138 C1132 1.379 . S
C1138 C1135 1.363 . S
C1138 N1136 1.356 . S
C1139 C1133 1.363 . S
C1139 C1134 1.379 . S
C1139 N1137 1.356 . S
N1140 C1132 1.356 . S
N1140 H1146 0.984 . S
N1140 H1147 0.984 . S
N1141 C1134 1.356 . S
N1141 H1144 0.984 . S
N1141 H1145 0.985 . S
H1142 N1137 0.984 . S
H1143 N1137 0.985 . S
H1144 N1141 0.984 . S
H1145 N1141 0.985 . S
H1146 N1140 0.984 . S
H1147 N1140 0.984 . S
H1148 N1136 0.984 . S
H1149 N1136 0.985 . S
C1150 C1151 1.408 . S
C1150 C1156 1.334 1_556 S
C1150 N1158 1.374 . S
C1151 C1150 1.408 . S
C1151 C1157 1.363 1_445 S
C1152 C1153 1.408 . S
C1152 C1157 1.334 1_554 S
C1152 N1159 1.374 . S
C1153 C1152 1.408 . S
C1153 C1156 1.363 1_665 S
N1154 C1156 1.356 . S
N1154 H1166 0.984 . S
N1154 H1167 0.985 1_455 S
N1155 C1157 1.356 . S
N1155 H1160 0.985 1_655 S
N1155 H1161 0.985 . S
C1156 C1150 1.334 1_554 S
C1156 C1153 1.363 1_445 S
C1156 N1154 1.356 . S
C1157 C1151 1.363 1_665 S
C1157 C1152 1.334 1_556 S
C1157 N1155 1.356 . S
N1158 C1150 1.374 . S
N1158 H1164 0.984 1_556 S
N1158 H1165 0.984 . S
N1159 C1152 1.374 . S
N1159 H1162 0.984 . S
N1159 H1163 0.985 1_554 S
H1160 N1155 0.985 1_455 S
H1161 N1155 0.985 . S
H1162 N1159 0.984 . S
H1163 N1159 0.985 1_556 S
H1164 N1158 0.984 1_554 S
H1165 N1158 0.984 . S
H1166 N1154 0.984 . S
H1167 N1154 0.985 1_655 S
C1168 C1169 1.363 . S
C1168 C1174 1.379 . S
C1168 N1176 1.356 . S
C1169 C1168 1.363 . S
C1169 C1175 1.363 . S
C1170 C1171 1.363 . S
C1170 C1175 1.379 . S
C1170 N1177 1.356 . S
C1171 C1170 1.363 . S
C1171 C1174 1.363 . S
N1172 C1174 1.356 . S
N1172 H1184 0.984 . S
N1172 H1185 0.985 . S
N1173 C1175 1.356 . S
N1173 H1178 0.984 . S
N1173 H1179 0.985 . S
C1174 C1168 1.379 . S
C1174 C1171 1.363 . S
C1174 N1172 1.356 . S
C1175 C1169 1.363 . S
C1175 C1170 1.379 . S
C1175 N1173 1.356 . S
N1176 C1168 1.356 . S
N1176 H1182 0.984 . S
N1176 H1183 0.984 . S
N1177 C1170 1.356 . S
N1177 H1180 0.984 . S
N1177 H1181 0.985 . S
H1178 N1173 0.984 . S
H1179 N1173 0.985 . S
H1180 N1177 0.984 . S
H1181 N1177 0.985 . S
H1182 N1176 0.984 . S
H1183 N1176 0.984 . S
H1184 N1172 0.984 . S
H1185 N1172 0.985 . S
C1186 C1187 1.363 . S
C1186 C1192 1.379 . S
C1186 N1194 1.356 . S
C1187 C1186 1.363 . S
C1187 C1193 1.363 . S
C1188 C1189 1.363 . S
C1188 C1193 1.379 . S
C1188 N1195 1.356 . S
C1189 C1188 1.363 . S
C1189 C1192 1.363 . S
N1190 C1192 1.356 . S
N1190 H1202 0.984 . S
N1190 H1203 0.985 . S
N1191 C1193 1.356 . S
N1191 H1196 0.984 . S
N1191 H1197 0.985 . S
C1192 C1186 1.379 . S
C1192 C1189 1.363 . S
C1192 N1190 1.356 . S
C1193 C1187 1.363 . S
C1193 C1188 1.379 . S
C1193 N1191 1.356 . S
N1194 C1186 1.356 . S
N1194 H1200 0.984 . S
N1194 H1201 0.984 . S
N1195 C1188 1.356 . S
N1195 H1198 0.984 . S
N1195 H1199 0.985 . S
H1196 N1191 0.984 . S
H1197 N1191 0.985 . S
H1198 N1195 0.984 . S
H1199 N1195 0.985 . S
H1200 N1194 0.984 . S
H1201 N1194 0.984 . S
H1202 N1190 0.984 . S
H1203 N1190 0.985 . S
C1204 C1205 1.363 . S
C1204 C1210 1.379 . S
C1204 N1212 1.356 . S
C1205 C1204 1.363 . S
C1205 C1211 1.363 . S
C1206 C1207 1.363 . S
C1206 C1211 1.379 . S
C1206 N1213 1.356 . S
C1207 C1206 1.363 . S
C1207 C1210 1.363 . S
N1208 C1210 1.356 . S
N1208 H1220 0.984 . S
N1208 H1221 0.985 . S
N1209 C1211 1.356 . S
N1209 H1214 0.984 . S
N1209 H1215 0.985 . S
C1210 C1204 1.379 . S
C1210 C1207 1.363 . S
C1210 N1208 1.356 . S
C1211 C1205 1.363 . S
C1211 C1206 1.379 . S
C1211 N1209 1.356 . S
N1212 C1204 1.356 . S
N1212 H1218 0.984 . S
N1212 H1219 0.984 . S
N1213 C1206 1.356 . S
N1213 H1216 0.984 . S
N1213 H1217 0.985 . S
H1214 N1209 0.984 . S
H1215 N1209 0.985 . S
H1216 N1213 0.984 . S
H1217 N1213 0.985 . S
H1218 N1212 0.984 . S
H1219 N1212 0.984 . S
H1220 N1208 0.984 . S
H1221 N1208 0.985 . S
C1222 C1223 1.363 . S
C1222 C1228 1.379 . S
C1222 N1230 1.356 . S
C1223 C1222 1.363 . S
C1223 C1229 1.363 . S
C1224 C1225 1.363 . S
C1224 C1229 1.379 . S
C1224 N1231 1.356 . S
C1225 C1224 1.363 . S
C1225 C1228 1.363 . S
N1226 C1228 1.356 . S
N1226 H1238 0.984 . S
N1226 H1239 0.985 . S
N1227 C1229 1.356 . S
N1227 H1232 0.984 . S
N1227 H1233 0.985 . S
C1228 C1222 1.379 . S
C1228 C1225 1.363 . S
C1228 N1226 1.356 . S
C1229 C1223 1.363 . S
C1229 C1224 1.379 . S
C1229 N1227 1.356 . S
N1230 C1222 1.356 . S
N1230 H1236 0.984 . S
N1230 H1237 0.984 . S
N1231 C1224 1.356 . S
N1231 H1234 0.984 . S
N1231 H1235 0.985 . S
H1232 N1227 0.984 . S
H1233 N1227 0.985 . S
H1234 N1231 0.984 . S
H1235 N1231 0.985 . S
H1236 N1230 0.984 . S
H1237 N1230 0.984 . S
H1238 N1226 0.984 . S
H1239 N1226 0.985 . S
C1240 C1241 1.403 . S
C1240 C1246 1.339 1_554 S
C1240 N1248 1.372 . S
C1241 C1240 1.403 . S
C1241 C1247 1.363 . S
C1242 C1243 1.403 . S
C1242 C1247 1.339 1_556 S
C1242 N1249 1.372 . S
C1243 C1242 1.403 . S
C1243 C1246 1.363 . S
N1244 C1246 1.356 . S
N1244 H1256 0.984 . S
N1244 H1257 0.985 . S
N1245 C1247 1.356 . S
N1245 H1250 0.984 . S
N1245 H1251 0.985 . S
C1246 C1240 1.339 1_556 S
C1246 C1243 1.363 . S
C1246 N1244 1.356 . S
C1247 C1241 1.363 . S
C1247 C1242 1.339 1_554 S
C1247 N1245 1.356 . S
N1248 C1240 1.372 . S
N1248 H1254 0.984 1_554 S
N1248 H1255 0.984 . S
N1249 C1242 1.372 . S
N1249 H1252 0.984 . S
N1249 H1253 0.985 1_556 S
H1250 N1245 0.984 . S
H1251 N1245 0.985 . S
H1252 N1249 0.984 . S
H1253 N1249 0.985 1_554 S
H1254 N1248 0.984 1_556 S
H1255 N1248 0.984 . S
H1256 N1244 0.984 . S
H1257 N1244 0.985 . S
C1258 C1259 1.363 . S
C1258 C1264 1.379 . S
C1258 N1266 1.356 . S
C1259 C1258 1.363 . S
C1259 C1265 1.363 1_455 S
C1260 C1261 1.363 . S
C1260 C1265 1.379 . S
C1260 N1267 1.356 . S
C1261 C1260 1.363 . S
C1261 C1264 1.363 1_655 S
N1262 C1264 1.356 1_655 S
N1262 H1274 0.984 1_655 S
N1262 H1275 0.985 . S
N1263 C1265 1.356 1_455 S
N1263 H1268 0.984 . S
N1263 H1269 0.985 1_455 S
C1264 C1258 1.379 . S
C1264 C1261 1.363 1_455 S
C1264 N1262 1.356 1_455 S
C1265 C1259 1.363 1_655 S
C1265 C1260 1.379 . S
C1265 N1263 1.356 1_655 S
N1266 C1258 1.356 . S
N1266 H1272 0.984 . S
N1266 H1273 0.984 . S
N1267 C1260 1.356 . S
N1267 H1270 0.984 . S
N1267 H1271 0.985 . S
H1268 N1263 0.984 . S
H1269 N1263 0.985 1_655 S
H1270 N1267 0.984 . S
H1271 N1267 0.985 . S
H1272 N1266 0.984 . S
H1273 N1266 0.984 . S
H1274 N1262 0.984 1_455 S
H1275 N1262 0.985 . S
C1276 C1277 1.363 . S
C1276 C1282 1.379 1_454 S
C1276 N1284 1.356 . S
C1277 C1276 1.363 . S
C1277 C1283 1.363 . S
C1278 C1279 1.363 . S
C1278 C1283 1.379 1_656 S
C1278 N1285 1.356 . S
C1279 C1278 1.363 . S
C1279 C1282 1.363 . S
N1280 C1282 1.356 . S
N1280 H1292 0.984 . S
N1280 H1293 0.985 . S
N1281 C1283 1.356 . S
N1281 H1286 0.984 . S
N1281 H1287 0.985 . S
C1282 C1276 1.379 1_656 S
C1282 C1279 1.363 . S
C1282 N1280 1.356 . S
C1283 C1277 1.363 . S
C1283 C1278 1.379 1_454 S
C1283 N1281 1.356 . S
N1284 C1276 1.356 . S
N1284 H1290 0.984 . S
N1284 H1291 0.984 . S
N1285 C1278 1.356 . S
N1285 H1288 0.984 . S
N1285 H1289 0.985 . S
H1286 N1281 0.984 . S
H1287 N1281 0.985 . S
H1288 N1285 0.984 . S
H1289 N1285 0.985 . S
H1290 N1284 0.984 . S
H1291 N1284 0.984 . S
H1292 N1280 0.984 . S
H1293 N1280 0.985 . S
C1294 C1295 1.363 . S
C1294 C1300 1.379 . S
C1294 N1302 1.356 . S
C1295 C1294 1.363 . S
C1295 C1301 1.363 . S
C1296 C1297 1.363 . S
C1296 C1301 1.379 . S
C1296 N1303 1.356 . S
C1297 C1296 1.363 . S
C1297 C1300 1.363 . S
N1298 C1300 1.356 . S
N1298 H1310 0.984 . S
N1298 H1311 0.985 . S
N1299 C1301 1.356 . S
N1299 H1304 0.984 . S
N1299 H1305 0.985 . S
C1300 C1294 1.379 . S
C1300 C1297 1.363 . S
C1300 N1298 1.356 . S
C1301 C1295 1.363 . S
C1301 C1296 1.379 . S
C1301 N1299 1.356 . S
N1302 C1294 1.356 . S
N1302 H1308 0.984 . S
N1302 H1309 0.984 . S
N1303 C1296 1.356 . S
N1303 H1306 0.984 . S
N1303 H1307 0.985 . S
H1304 N1299 0.984 . S
H1305 N1299 0.985 . S
H1306 N1303 0.984 . S
H1307 N1303 0.985 . S
H1308 N1302 0.984 . S
H1309 N1302 0.984 . S
H1310 N1298 0.984 . S
H1311 N1298 0.985 . S
C1312 C1313 1.363 . S
C1312 C1318 1.379 . S
C1312 N1320 1.356 . S
C1313 C1312 1.363 . S
C1313 C1319 1.363 . S
C1314 C1315 1.363 . S
C1314 C1319 1.379 . S
C1314 N1321 1.356 1_545 S
C1315 C1314 1.363 . S
C1315 C1318 1.363 . S
N1316 C1318 1.356 . S
N1316 H1328 0.984 . S
N1316 H1329 0.985 . S
N1317 C1319 1.356 . S
N1317 H1322 0.984 . S
N1317 H1323 0.985 . S
C1318 C1312 1.379 . S
C1318 C1315 1.363 . S
C1318 N1316 1.356 . S
C1319 C1313 1.363 . S
C1319 C1314 1.379 . S
C1319 N1317 1.356 . S
N1320 C1312 1.356 . S
N1320 H1326 0.984 . S
N1320 H1327 0.984 . S
N1321 C1314 1.356 1_565 S
N1321 H1324 0.984 . S
N1321 H1325 0.985 . S
H1322 N1317 0.984 . S
H1323 N1317 0.985 . S
H1324 N1321 0.984 . S
H1325 N1321 0.985 . S
H1326 N1320 0.984 . S
H1327 N1320 0.984 . S
H1328 N1316 0.984 . S
H1329 N1316 0.985 . S
C1330 C1331 1.363 . S
C1330 C1336 1.379 . S
C1330 N1338 1.356 . S
C1331 C1330 1.363 . S
C1331 C1337 1.363 . S
C1332 C1333 1.363 . S
C1332 C1337 1.379 . S
C1332 N1339 1.356 . S
C1333 C1332 1.363 . S
C1333 C1336 1.363 . S
N1334 C1336 1.356 . S
N1334 H1346 0.984 . S
N1334 H1347 0.985 . S
N1335 C1337 1.356 . S
N1335 H1340 0.984 . S
N1335 H1341 0.985 . S
C1336 C1330 1.379 . S
C1336 C1333 1.363 . S
C1336 N1334 1.356 . S
C1337 C1331 1.363 . S
C1337 C1332 1.379 . S
C1337 N1335 1.356 . S
N1338 C1330 1.356 . S
N1338 H1344 0.984 . S
N1338 H1345 0.984 . S
N1339 C1332 1.356 . S
N1339 H1342 0.984 . S
N1339 H1343 0.985 . S
H1340 N1335 0.984 . S
H1341 N1335 0.985 . S
H1342 N1339 0.984 . S
H1343 N1339 0.985 . S
H1344 N1338 0.984 . S
H1345 N1338 0.984 . S
H1346 N1334 0.984 . S
H1347 N1334 0.985 . S
C1348 C1349 1.363 . S
C1348 C1354 1.379 . S
C1348 N1356 1.356 . S
C1349 C1348 1.363 . S
C1349 C1355 1.363 . S
C1350 C1351 1.363 . S
C1350 C1355 1.379 . S
C1350 N1357 1.356 1_565 S
C1351 C1350 1.363 . S
C1351 C1354 1.363 . S
N1352 C1354 1.356 . S
N1352 H1364 0.984 . S
N1352 H1365 0.985 . S
N1353 C1355 1.356 . S
N1353 H1358 0.984 . S
N1353 H1359 0.985 . S
C1354 C1348 1.379 . S
C1354 C1351 1.363 . S
C1354 N1352 1.356 . S
C1355 C1349 1.363 . S
C1355 C1350 1.379 . S
C1355 N1353 1.356 . S
N1356 C1348 1.356 . S
N1356 H1362 0.984 . S
N1356 H1363 0.984 . S
N1357 C1350 1.356 1_545 S
N1357 H1360 0.984 . S
N1357 H1361 0.985 . S
H1358 N1353 0.984 . S
H1359 N1353 0.985 . S
H1360 N1357 0.984 . S
H1361 N1357 0.985 . S
H1362 N1356 0.984 . S
H1363 N1356 0.984 . S
H1364 N1352 0.984 . S
H1365 N1352 0.985 . S
C1366 C1367 1.363 . S
C1366 C1372 1.379 . S
C1366 N1374 1.356 . S
C1367 C1366 1.363 . S
C1367 C1373 1.363 . S
C1368 C1369 1.363 . S
C1368 C1373 1.379 . S
C1368 N1375 1.356 . S
C1369 C1368 1.363 . S
C1369 C1372 1.363 . S
N1370 C1372 1.356 1_545 S
N1370 H1382 0.984 . S
N1370 H1383 0.985 . S
N1371 C1373 1.356 . S
N1371 H1376 0.984 . S
N1371 H1377 0.985 . S
C1372 C1366 1.379 . S
C1372 C1369 1.363 . S
C1372 N1370 1.356 1_565 S
C1373 C1367 1.363 . S
C1373 C1368 1.379 . S
C1373 N1371 1.356 . S
N1374 C1366 1.356 . S
N1374 H1380 0.984 . S
N1374 H1381 0.984 . S
N1375 C1368 1.356 . S
N1375 H1378 0.984 . S
N1375 H1379 0.985 . S
H1376 N1371 0.984 . S
H1377 N1371 0.985 . S
H1378 N1375 0.984 . S
H1379 N1375 0.985 . S
H1380 N1374 0.984 . S
H1381 N1374 0.984 . S
H1382 N1370 0.984 . S
H1383 N1370 0.985 . S
C1384 C1385 1.363 . S
C1384 C1390 1.379 . S
C1384 N1392 1.356 . S
C1385 C1384 1.363 . S
C1385 C1391 1.363 . S
C1386 C1387 1.363 . S
C1386 C1391 1.379 . S
C1386 N1393 1.356 . S
C1387 C1386 1.363 . S
C1387 C1390 1.363 . S
N1388 C1390 1.356 . S
N1388 H1400 0.984 . S
N1388 H1401 0.985 . S
N1389 C1391 1.356 . S
N1389 H1394 0.984 . S
N1389 H1395 0.985 . S
C1390 C1384 1.379 . S
C1390 C1387 1.363 . S
C1390 N1388 1.356 . S
C1391 C1385 1.363 . S
C1391 C1386 1.379 . S
C1391 N1389 1.356 . S
N1392 C1384 1.356 . S
N1392 H1398 0.984 . S
N1392 H1399 0.984 . S
N1393 C1386 1.356 . S
N1393 H1396 0.984 . S
N1393 H1397 0.985 . S
H1394 N1389 0.984 . S
H1395 N1389 0.985 . S
H1396 N1393 0.984 . S
H1397 N1393 0.985 . S
H1398 N1392 0.984 . S
H1399 N1392 0.984 . S
H1400 N1388 0.984 . S
H1401 N1388 0.985 . S
C1402 C1403 1.363 . S
C1402 C1408 1.379 . S
C1402 N1410 1.356 1_565 S
C1403 C1402 1.363 . S
C1403 C1409 1.363 . S
C1404 C1405 1.363 . S
C1404 C1409 1.379 . S
C1404 N1411 1.356 . S
C1405 C1404 1.363 . S
C1405 C1408 1.363 . S
N1406 C1408 1.356 . S
N1406 H1418 0.984 . S
N1406 H1419 0.985 . S
N1407 C1409 1.356 . S
N1407 H1412 0.984 . S
N1407 H1413 0.985 . S
C1408 C1402 1.379 . S
C1408 C1405 1.363 . S
C1408 N1406 1.356 . S
C1409 C1403 1.363 . S
C1409 C1404 1.379 . S
C1409 N1407 1.356 . S
N1410 C1402 1.356 1_545 S
N1410 H1416 0.984 . S
N1410 H1417 0.984 . S
N1411 C1404 1.356 . S
N1411 H1414 0.984 . S
N1411 H1415 0.985 . S
H1412 N1407 0.984 . S
H1413 N1407 0.985 . S
H1414 N1411 0.984 . S
H1415 N1411 0.985 . S
H1416 N1410 0.984 . S
H1417 N1410 0.984 . S
H1418 N1406 0.984 . S
H1419 N1406 0.985 . S
C1420 C1421 1.363 . S
C1420 C1426 1.379 . S
C1420 N1428 1.356 . S
C1421 C1420 1.363 . S
C1421 C1427 1.363 . S
C1422 C1423 1.363 . S
C1422 C1427 1.379 . S
C1422 N1429 1.356 . S
C1423 C1422 1.363 . S
C1423 C1426 1.363 . S
N1424 C1426 1.356 . S
N1424 H1436 0.984 . S
N1424 H1437 0.985 . S
N1425 C1427 1.356 . S
N1425 H1430 0.984 . S
N1425 H1431 0.985 . S
C1426 C1420 1.379 . S
C1426 C1423 1.363 . S
C1426 N1424 1.356 . S
C1427 C1421 1.363 . S
C1427 C1422 1.379 . S
C1427 N1425 1.356 . S
N1428 C1420 1.356 . S
N1428 H1434 0.984 . S
N1428 H1435 0.984 . S
N1429 C1422 1.356 . S
N1429 H1432 0.984 1_545 S
N1429 H1433 0.985 . S
H1430 N1425 0.984 . S
H1431 N1425 0.985 . S
H1432 N1429 0.984 1_565 S
H1433 N1429 0.985 . S
H1434 N1428 0.984 . S
H1435 N1428 0.984 . S
H1436 N1424 0.984 . S
H1437 N1424 0.985 . S
C1438 C1439 1.363 . S
C1438 C1444 1.379 . S
C1438 N1446 1.356 1_545 S
C1439 C1438 1.363 . S
C1439 C1445 1.363 . S
C1440 C1441 1.363 . S
C1440 C1445 1.379 . S
C1440 N1447 1.356 . S
C1441 C1440 1.363 . S
C1441 C1444 1.363 . S
N1442 C1444 1.356 . S
N1442 H1454 0.984 . S
N1442 H1455 0.985 . S
N1443 C1445 1.356 . S
N1443 H1448 0.984 . S
N1443 H1449 0.985 . S
C1444 C1438 1.379 . S
C1444 C1441 1.363 . S
C1444 N1442 1.356 . S
C1445 C1439 1.363 . S
C1445 C1440 1.379 . S
C1445 N1443 1.356 . S
N1446 C1438 1.356 1_565 S
N1446 H1452 0.984 . S
N1446 H1453 0.984 . S
N1447 C1440 1.356 . S
N1447 H1450 0.984 . S
N1447 H1451 0.985 . S
H1448 N1443 0.984 . S
H1449 N1443 0.985 . S
H1450 N1447 0.984 . S
H1451 N1447 0.985 . S
H1452 N1446 0.984 . S
H1453 N1446 0.984 . S
H1454 N1442 0.984 . S
H1455 N1442 0.985 . S
C1456 C1457 1.363 . S
C1456 C1462 1.379 . S
C1456 N1464 1.356 . S
C1457 C1456 1.363 . S
C1457 C1463 1.363 . S
C1458 C1459 1.363 . S
C1458 C1463 1.379 . S
C1458 N1465 1.356 . S
C1459 C1458 1.363 . S
C1459 C1462 1.363 . S
N1460 C1462 1.356 . S
N1460 H1472 0.984 . S
N1460 H1473 0.985 . S
N1461 C1463 1.356 . S
N1461 H1466 0.984 . S
N1461 H1467 0.985 . S
C1462 C1456 1.379 . S
C1462 C1459 1.363 . S
C1462 N1460 1.356 . S
C1463 C1457 1.363 . S
C1463 C1458 1.379 . S
C1463 N1461 1.356 . S
N1464 C1456 1.356 . S
N1464 H1470 0.984 . S
N1464 H1471 0.984 . S
N1465 C1458 1.356 . S
N1465 H1468 0.984 . S
N1465 H1469 0.985 . S
H1466 N1461 0.984 . S
H1467 N1461 0.985 . S
H1468 N1465 0.984 . S
H1469 N1465 0.985 . S
H1470 N1464 0.984 . S
H1471 N1464 0.984 . S
H1472 N1460 0.984 . S
H1473 N1460 0.985 . S
C1474 C1475 1.363 . S
C1474 C1480 1.379 . S
C1474 N1482 1.356 . S
C1475 C1474 1.363 . S
C1475 C1481 1.363 . S
C1476 C1477 1.363 . S
C1476 C1481 1.379 . S
C1476 N1483 1.356 . S
C1477 C1476 1.363 . S
C1477 C1480 1.363 . S
N1478 C1480 1.356 . S
N1478 H1490 0.984 . S
N1478 H1491 0.985 . S
N1479 C1481 1.356 . S
N1479 H1484 0.984 . S
N1479 H1485 0.985 . S
C1480 C1474 1.379 . S
C1480 C1477 1.363 . S
C1480 N1478 1.356 . S
C1481 C1475 1.363 . S
C1481 C1476 1.379 . S
C1481 N1479 1.356 . S
N1482 C1474 1.356 . S
N1482 H1488 0.984 . S
N1482 H1489 0.984 . S
N1483 C1476 1.356 . S
N1483 H1486 0.984 . S
N1483 H1487 0.985 . S
H1484 N1479 0.984 . S
H1485 N1479 0.985 . S
H1486 N1483 0.984 . S
H1487 N1483 0.985 . S
H1488 N1482 0.984 . S
H1489 N1482 0.984 . S
H1490 N1478 0.984 . S
H1491 N1478 0.985 . S
C1492 C1493 1.363 . S
C1492 C1498 1.379 . S
C1492 N1500 1.356 . S
C1493 C1492 1.363 . S
C1493 C1499 1.363 . S
C1494 C1495 1.363 . S
C1494 C1499 1.379 . S
C1494 N1501 1.356 . S
C1495 C1494 1.363 . S
C1495 C1498 1.363 . S
N1496 C1498 1.356 . S
N1496 H1508 0.984 . S
N1496 H1509 0.985 . S
N1497 C1499 1.356 . S
N1497 H1502 0.984 . S
N1497 H1503 0.985 . S
C1498 C1492 1.379 . S
C1498 C1495 1.363 . S
C1498 N1496 1.356 . S
C1499 C1493 1.363 . S
C1499 C1494 1.379 . S
C1499 N1497 1.356 . S
N1500 C1492 1.356 . S
N1500 H1506 0.984 . S
N1500 H1507 0.984 . S
N1501 C1494 1.356 . S
N1501 H1504 0.984 . S
N1501 H1505 0.985 . S
H1502 N1497 0.984 . S
H1503 N1497 0.985 . S
H1504 N1501 0.984 . S
H1505 N1501 0.985 . S
H1506 N1500 0.984 . S
H1507 N1500 0.984 . S
H1508 N1496 0.984 . S
H1509 N1496 0.985 . S
C1510 C1511 1.363 . S
C1510 C1516 1.379 . S
C1510 N1518 1.356 . S
C1511 C1510 1.363 . S
C1511 C1517 1.363 . S
C1512 C1513 1.363 . S
C1512 C1517 1.379 . S
C1512 N1519 1.356 . S
C1513 C1512 1.363 . S
C1513 C1516 1.363 . S
N1514 C1516 1.356 . S
N1514 H1526 0.984 . S
N1514 H1527 0.985 . S
N1515 C1517 1.356 . S
N1515 H1520 0.984 . S
N1515 H1521 0.985 . S
C1516 C1510 1.379 . S
C1516 C1513 1.363 . S
C1516 N1514 1.356 . S
C1517 C1511 1.363 . S
C1517 C1512 1.379 . S
C1517 N1515 1.356 . S
N1518 C1510 1.356 . S
N1518 H1524 0.984 . S
N1518 H1525 0.984 . S
N1519 C1512 1.356 . S
N1519 H1522 0.984 . S
N1519 H1523 0.985 . S
H1520 N1515 0.984 . S
H1521 N1515 0.985 . S
H1522 N1519 0.984 . S
H1523 N1519 0.985 . S
H1524 N1518 0.984 . S
H1525 N1518 0.984 . S
H1526 N1514 0.984 . S
H1527 N1514 0.985 . S
C1528 C1529 1.363 . S
C1528 C1534 1.379 . S
C1528 N1536 1.356 . S
C1529 C1528 1.363 . S
C1529 C1535 1.363 . S
C1530 C1531 1.363 . S
C1530 C1535 1.379 . S
C1530 N1537 1.356 . S
C1531 C1530 1.363 . S
C1531 C1534 1.363 . S
N1532 C1534 1.356 . S
N1532 H1544 0.984 . S
N1532 H1545 0.985 . S
N1533 C1535 1.356 . S
N1533 H1538 0.984 . S
N1533 H1539 0.985 . S
C1534 C1528 1.379 . S
C1534 C1531 1.363 . S
C1534 N1532 1.356 . S
C1535 C1529 1.363 . S
C1535 C1530 1.379 . S
C1535 N1533 1.356 . S
N1536 C1528 1.356 . S
N1536 H1542 0.984 . S
N1536 H1543 0.984 . S
N1537 C1530 1.356 . S
N1537 H1540 0.984 . S
N1537 H1541 0.985 . S
H1538 N1533 0.984 . S
H1539 N1533 0.985 . S
H1540 N1537 0.984 . S
H1541 N1537 0.985 . S
H1542 N1536 0.984 . S
H1543 N1536 0.984 . S
H1544 N1532 0.984 . S
H1545 N1532 0.985 . S
C1546 C1547 1.363 . S
C1546 C1552 1.379 . S
C1546 N1554 1.356 . S
C1547 C1546 1.363 . S
C1547 C1553 1.363 . S
C1548 C1549 1.363 . S
C1548 C1553 1.379 . S
C1548 N1555 1.356 . S
C1549 C1548 1.363 . S
C1549 C1552 1.363 . S
N1550 C1552 1.356 . S
N1550 H1562 0.984 . S
N1550 H1563 0.985 . S
N1551 C1553 1.356 . S
N1551 H1556 0.984 . S
N1551 H1557 0.985 . S
C1552 C1546 1.379 . S
C1552 C1549 1.363 . S
C1552 N1550 1.356 . S
C1553 C1547 1.363 . S
C1553 C1548 1.379 . S
C1553 N1551 1.356 . S
N1554 C1546 1.356 . S
N1554 H1560 0.984 . S
N1554 H1561 0.984 . S
N1555 C1548 1.356 . S
N1555 H1558 0.984 . S
N1555 H1559 0.985 . S
H1556 N1551 0.984 . S
H1557 N1551 0.985 . S
H1558 N1555 0.984 . S
H1559 N1555 0.985 . S
H1560 N1554 0.984 . S
H1561 N1554 0.984 . S
H1562 N1550 0.984 . S
H1563 N1550 0.985 . S
C1564 C1565 1.363 . S
C1564 C1570 1.379 . S
C1564 N1572 1.356 . S
C1565 C1564 1.363 . S
C1565 C1571 1.363 . S
C1566 C1567 1.363 . S
C1566 C1571 1.379 . S
C1566 N1573 1.356 . S
C1567 C1566 1.363 . S
C1567 C1570 1.363 . S
N1568 C1570 1.356 . S
N1568 H1580 0.984 . S
N1568 H1581 0.985 . S
N1569 C1571 1.356 . S
N1569 H1574 0.984 . S
N1569 H1575 0.985 . S
C1570 C1564 1.379 . S
C1570 C1567 1.363 . S
C1570 N1568 1.356 . S
C1571 C1565 1.363 . S
C1571 C1566 1.379 . S
C1571 N1569 1.356 . S
N1572 C1564 1.356 . S
N1572 H1578 0.984 . S
N1572 H1579 0.984 . S
N1573 C1566 1.356 . S
N1573 H1576 0.984 . S
N1573 H1577 0.985 . S
H1574 N1569 0.984 . S
H1575 N1569 0.985 . S
H1576 N1573 0.984 . S
H1577 N1573 0.985 . S
H1578 N1572 0.984 . S
H1579 N1572 0.984 . S
H1580 N1568 0.984 . S
H1581 N1568 0.985 . S
C1582 C1583 1.363 . S
C1582 C1588 1.379 . S
C1582 N1590 1.356 . S
C1583 C1582 1.363 . S
C1583 C1589 1.363 . S
C1584 C1585 1.363 . S
C1584 C1589 1.379 . S
C1584 N1591 1.356 . S
C1585 C1584 1.363 . S
C1585 C1588 1.363 . S
N1586 C1588 1.356 . S
N1586 H1598 0.984 . S
N1586 H1599 0.985 . S
N1587 C1589 1.356 . S
N1587 H1592 0.984 . S
N1587 H1593 0.985 . S
C1588 C1582 1.379 . S
C1588 C1585 1.363 . S
C1588 N1586 1.356 . S
C1589 C1583 1.363 . S
C1589 C1584 1.379 . S
C1589 N1587 1.356 . S
N1590 C1582 1.356 . S
N1590 H1596 0.984 . S
N1590 H1597 0.984 . S
N1591 C1584 1.356 . S
N1591 H1594 0.984 . S
N1591 H1595 0.985 . S
H1592 N1587 0.984 . S
H1593 N1587 0.985 . S
H1594 N1591 0.984 . S
H1595 N1591 0.985 . S
H1596 N1590 0.984 . S
H1597 N1590 0.984 . S
H1598 N1586 0.984 . S
H1599 N1586 0.985 . S
C449 C386 1.554 . S
C451 C9 1.561 . S
C467 C23 1.561 1_655 S
C469 C121 1.554 . S
C485 C358 1.554 . S
C487 C37 1.561 . S
C503 C51 1.561 . S
C505 C149 1.554 . S
C521 C65 1.561 . S
C523 C414 1.554 . S
C539 C79 1.561 . S
C541 C205 1.554 . S
C557 C93 1.561 . S
C559 C442 1.554 . S
C575 C107 1.561 1_655 S
C577 C177 1.554 . S
C593 C274 1.554 . S
C595 C120 1.561 . S
C611 C8 1.554 . S
C613 C135 1.561 1_455 S
C629 C246 1.554 . S
C631 C148 1.561 . S
C647 C163 1.561 . S
C649 C36 1.554 . S
C665 C302 1.554 . S
C667 C176 1.561 . S
C683 C92 1.554 . S
C685 C191 1.561 . S
C701 C204 1.561 . S
C703 C330 1.554 . S
C719 C64 1.554 . S
C721 C219 1.561 1_455 S
C737 C233 1.561 . S
C739 C162 1.554 . S
C755 C247 1.561 . S
C757 C345 1.554 . S
C773 C134 1.554 . S
C775 C261 1.561 . S
C791 C373 1.554 . S
C793 C275 1.561 1_455 S
C809 C190 1.554 . S
C811 C289 1.561 . S
C827 C429 1.554 . S
C829 C303 1.561 1_455 S
C845 C218 1.554 . S
C847 C317 1.561 . S
C863 C331 1.561 . S
C865 C401 1.554 . S
C881 C50 1.554 . S
C883 C344 1.561 . S
C899 C359 1.561 . S
C901 C232 1.554 . S
C917 C372 1.561 . S
C919 C22 1.554 . S
C935 C387 1.561 1_655 S
C937 C260 1.554 . S
C953 C400 1.561 . S
C955 C78 1.554 . S
C971 C415 1.561 1_655 S
C973 C316 1.554 . S
C989 C428 1.561 . S
C991 C106 1.554 . S
C1007 C443 1.561 . S
C1009 C288 1.554 . S
C1025 C342 1.488 . S
C1027 C7 1.488 . S
C1043 C21 1.488 . S
C1045 C133 1.488 . S
C1061 C370 1.488 . S
C1063 C35 1.488 . S
C1079 C49 1.488 . S
C1081 C161 1.488 . S
C1097 C398 1.488 . S
C1099 C63 1.488 . S
C1115 C77 1.488 . S
C1117 C189 1.488 . S
C1133 C426 1.488 . S
C1135 C91 1.488 . S
C1151 C105 1.488 . S
C1153 C217 1.488 . S
C1169 C118 1.488 . S
C1171 C231 1.488 . S
C1187 C146 1.488 . S
C1189 C259 1.488 . S
C1205 C174 1.488 . S
C1207 C287 1.488 . S
C1223 C202 1.488 . S
C1225 C315 1.488 . S
C1241 C245 1.488 . S
C1243 C357 1.488 . S
C1259 C385 1.488 . S
C1261 C273 1.488 . S
C1277 C413 1.488 . S
C1279 C301 1.488 . S
C1295 C329 1.488 . S
C1297 C441 1.488 . S
C1313 C6 1.387 . S
C1315 C76 1.387 . S
C1331 C20 1.387 . S
C1333 C90 1.387 . S
C1349 C34 1.387 . S
C1351 C104 1.387 . S
C1367 C62 1.387 . S
C1369 C48 1.387 . S
C1385 C119 1.387 . S
C1387 C188 1.387 . S
C1403 C132 1.387 . S
C1405 C203 1.387 . S
C1421 C147 1.387 . S
C1423 C216 1.387 . S
C1439 C160 1.387 . S
C1441 C175 1.387 . S
C1457 C230 1.387 . S
C1459 C300 1.387 . S
C1475 C314 1.387 . S
C1477 C244 1.387 . S
C1493 C258 1.387 . S
C1495 C328 1.387 . S
C1511 C272 1.387 . S
C1513 C286 1.387 . S
C1529 C412 1.387 . S
C1531 C343 1.387 . S
C1547 C356 1.387 . S
C1549 C427 1.387 . S
C1565 C440 1.387 . S
C1567 C371 1.387 . S
C1583 C384 1.387 . S
C1585 C399 1.387 . S
