# Generated by pormake.
# Topology umx, (4)-cn, num edge types: 1
# Building blocks:
#     Node 0, Type 0, BuildingBlock: QUQFOY_clean_sbu_1, # of connection points: 4
#     Node 1, Type 0, BuildingBlock: QUQFOY_clean_sbu_1, # of connection points: 4
#     Node 2, Type 0, BuildingBlock: QUQFOY_clean_sbu_1, # of connection points: 4
#     Node 3, Type 0, BuildingBlock: QUQFOY_clean_sbu_1, # of connection points: 4
#     Node 4, Type 0, BuildingBlock: QUQFOY_clean_sbu_1, # of connection points: 4
#     Node 5, Type 0, BuildingBlock: QUQFOY_clean_sbu_1, # of connection points: 4
#     Node 6, Type 0, BuildingBlock: QUQFOY_clean_sbu_1, # of connection points: 4
#     Node 7, Type 0, BuildingBlock: QUQFOY_clean_sbu_1, # of connection points: 4
#     Edge 8, Type (0, 0), BuildingBlock: OJICUG_clean_linker_0, # of connection points: 2
#     Edge 9, Type (0, 0), BuildingBlock: OJICUG_clean_linker_0, # of connection points: 2
#     Edge 10, Type (0, 0), BuildingBlock: OJICUG_clean_linker_0, # of connection points: 2
#     Edge 11, Type (0, 0), BuildingBlock: OJICUG_clean_linker_0, # of connection points: 2
#     Edge 12, Type (0, 0), BuildingBlock: OJICUG_clean_linker_0, # of connection points: 2
#     Edge 13, Type (0, 0), BuildingBlock: OJICUG_clean_linker_0, # of connection points: 2
#     Edge 14, Type (0, 0), BuildingBlock: OJICUG_clean_linker_0, # of connection points: 2
#     Edge 15, Type (0, 0), BuildingBlock: OJICUG_clean_linker_0, # of connection points: 2
#     Edge 16, Type (0, 0), BuildingBlock: OJICUG_clean_linker_0, # of connection points: 2
#     Edge 17, Type (0, 0), BuildingBlock: OJICUG_clean_linker_0, # of connection points: 2
#     Edge 18, Type (0, 0), BuildingBlock: OJICUG_clean_linker_0, # of connection points: 2
#     Edge 19, Type (0, 0), BuildingBlock: OJICUG_clean_linker_0, # of connection points: 2
#     Edge 20, Type (0, 0), BuildingBlock: OJICUG_clean_linker_0, # of connection points: 2
#     Edge 21, Type (0, 0), BuildingBlock: OJICUG_clean_linker_0, # of connection points: 2
#     Edge 22, Type (0, 0), BuildingBlock: OJICUG_clean_linker_0, # of connection points: 2
#     Edge 23, Type (0, 0), BuildingBlock: OJICUG_clean_linker_0, # of connection points: 2
# Relax obj value: 0.083
# Max RMSD: 0.141
# Mean RMSD: 0.141
data_MOF--net-umx--node1-QUQFOY_clean_sbu_1--edge1-OJICUG_clean_linker_0
_symmetry_space_group_name_H-M    P1
_symmetry_Int_Tables_number       1
_symmetry_cell_setting            triclinic
loop_
_symmetry_equiv_pos_as_xyz
'x, y, z'
_cell_length_a     29.586378
_cell_length_b     29.588303
_cell_length_c     21.028279
_cell_angle_alpha  89.998927
_cell_angle_beta   89.592599
_cell_angle_gamma 90.035881
loop_
_atom_site_label
_atom_site_type_symbol
_atom_site_fract_x
_atom_site_fract_y
_atom_site_fract_z
_atom_type_partial_charge
O0 O 0.20742 0.45633 0.18137 0.0
Cd1 Cd 0.18515 0.42862 0.0977 0.0
Cd2 Cd 0.21221 0.51026 0.05376 0.0
O3 O 0.24511 0.51413 0.14044 0.0
O4 O 0.19115 0.36087 0.10481 0.0
O5 O 0.23569 0.40428 0.04558 0.0
C6 C 0.22667 0.36502 0.06915 0.0
C7 C 0.24387 0.51614 0.95197 0.0
C8 C 0.23431 0.48954 0.18797 0.0
C9 C 0.11273 0.49217 0.05644 0.0
O10 O 0.14378 0.52186 0.05652 0.0
O11 O 0.1225 0.45054 0.06438 0.0
O12 O 0.23788 0.55169 0.98674 0.0
O13 O 0.23496 0.47735 0.97706 0.0
O14 O 0.58179 0.20565 0.67389 0.0
Cd15 Cd 0.61142 0.18314 0.59133 0.0
Cd16 Cd 0.53059 0.20855 0.54471 0.0
O17 O 0.52389 0.24153 0.63117 0.0
O18 O 0.67886 0.19119 0.59949 0.0
O19 O 0.63503 0.23361 0.53877 0.0
C20 C 0.67418 0.22612 0.5632 0.0
C21 C 0.52487 0.24024 0.44329 0.0
C22 C 0.54773 0.23157 0.67942 0.0
C23 C 0.54971 0.1092 0.55011 0.0
O24 O 0.51986 0.13999 0.54766 0.0
O25 O 0.59105 0.11951 0.55938 0.0
O26 O 0.48923 0.23335 0.47782 0.0
O27 O 0.56365 0.23194 0.46828 0.0
O28 O 0.82182 0.58174 0.16515 0.0
Cd29 Cd 0.84995 0.61178 0.08609 0.0
Cd30 Cd 0.82617 0.53143 0.03748 0.0
O31 O 0.79242 0.52038 0.12254 0.0
O32 O 0.84645 0.67754 0.10846 0.0
O33 O 0.80924 0.64677 0.02831 0.0
C34 C 0.81716 0.68153 0.06364 0.0
C35 C 0.79482 0.52842 0.9361 0.0
C36 C 0.79864 0.54579 0.1705 0.0
C37 C 0.92575 0.55062 0.04858 0.0
O38 O 0.89494 0.52129 0.04023 0.0
O39 O 0.91533 0.59137 0.06211 0.0
O40 O 0.80253 0.49197 0.96806 0.0
O41 O 0.80215 0.5667 0.96373 0.0
O42 O 0.45791 0.81933 0.67175 0.0
Cd43 Cd 0.42944 0.84704 0.59171 0.0
Cd44 Cd 0.51073 0.8221 0.5453 0.0
O45 O 0.51933 0.78841 0.6307 0.0
O46 O 0.36338 0.84515 0.61332 0.0
O47 O 0.3942 0.80611 0.53432 0.0
C48 C 0.35923 0.8153 0.56903 0.0
C49 C 0.51424 0.7908 0.44361 0.0
C50 C 0.49321 0.79538 0.67804 0.0
C51 C 0.49197 0.92182 0.55372 0.0
O52 O 0.52143 0.89082 0.54772 0.0
O53 O 0.45089 0.91174 0.56611 0.0
O54 O 0.55054 0.79789 0.47594 0.0
O55 O 0.47582 0.79844 0.47118 0.0
O56 O 0.2157 0.58085 0.45108 0.0
Cd57 Cd 0.18776 0.61108 0.53008 0.0
Cd58 Cd 0.21107 0.5307 0.57884 0.0
O59 O 0.24475 0.51941 0.49379 0.0
O60 O 0.19155 0.67679 0.50749 0.0
O61 O 0.22865 0.64604 0.58772 0.0
C62 C 0.22087 0.68075 0.55227 0.0
C63 C 0.2424 0.52758 0.68021 0.0
C64 C 0.23868 0.5448 0.44579 0.0
C65 C 0.1116 0.55032 0.56773 0.0
O66 O 0.14224 0.52085 0.57612 0.0
O67 O 0.12226 0.59101 0.55412 0.0
O68 O 0.23447 0.49116 0.64829 0.0
O69 O 0.23529 0.56589 0.65256 0.0
O70 O 0.45453 0.20522 0.9415 0.0
Cd71 Cd 0.42502 0.18251 0.02404 0.0
Cd72 Cd 0.50579 0.20841 0.07071 0.0
O73 O 0.51227 0.24143 0.98423 0.0
O74 O 0.35753 0.1904 1.01614 0.0
O75 O 0.40144 0.23286 0.07675 0.0
C76 C 0.36225 0.22531 0.05245 0.0
C77 C 0.51149 0.24014 0.17213 0.0
C78 C 0.48847 0.23135 0.93599 0.0
C79 C 0.48711 0.10893 0.06519 0.0
O80 O 0.5168 0.13991 0.06771 0.0
O81 O 0.44571 0.11898 0.05592 0.0
O82 O 0.54713 0.23342 0.13754 0.0
O83 O 0.47272 0.23163 0.14721 0.0
O84 O 0.82939 0.45731 0.43499 0.0
Cd85 Cd 0.85152 0.42951 0.51866 0.0
Cd86 Cd 0.82491 0.51122 0.56255 0.0
O87 O 0.79203 0.51527 0.47589 0.0
O88 O 0.84537 0.3618 0.51135 0.0
O89 O 0.8009 0.40514 0.57069 0.0
C90 C 0.80986 0.36591 0.54701 0.0
C91 C 0.79328 0.5171 0.66434 0.0
C92 C 0.80269 0.49063 0.42837 0.0
C93 C 0.92428 0.49276 0.55991 0.0
O94 O 0.8934 0.52258 0.55981 0.0
O95 O 0.91428 0.45117 0.55199 0.0
O96 O 0.79943 0.55266 0.62963 0.0
O97 O 0.80201 0.4783 0.63918 0.0
O98 O 0.58057 0.81976 0.9432 0.0
Cd99 Cd 0.60884 0.84759 0.02332 0.0
Cd100 Cd 0.52763 0.82209 0.06959 0.0
O101 O 0.51932 0.78836 0.98415 0.0
O102 O 0.67497 0.84594 1.00202 0.0
O103 O 0.64402 0.80676 0.08083 0.0
C104 C 0.67906 0.81608 0.04631 0.0
C105 C 0.52419 0.79078 0.17129 0.0
C106 C 0.54542 0.79555 0.93685 0.0
C107 C 0.54589 0.92194 0.06128 0.0
O108 O 0.51659 0.89074 0.06716 0.0
O109 O 0.58704 0.91214 0.04898 0.0
O110 O 0.48788 0.79763 0.1389 0.0
O111 O 0.56259 0.79865 0.14377 0.0
C112 C 0.24718 0.47005 0.30201 0.0
C113 C 0.24804 0.50237 0.25294 0.0
H114 H 0.24515 0.45819 0.40248 0.0
C115 C 0.2552 0.54794 0.26839 0.0
H116 H 0.24215 0.43458 0.29135 0.0
C117 C 0.25632 0.56149 0.33204 0.0
C118 C 0.25123 0.52959 0.38118 0.0
H119 H 0.2561 0.57358 0.23162 0.0
H120 H 0.25815 0.59726 0.34278 0.0
C121 C 0.24923 0.48351 0.36565 0.0
C122 C 0.48644 0.24684 0.75847 0.0
C123 C 0.53274 0.24442 0.74395 0.0
H124 H 0.43594 0.24451 0.83186 0.0
C125 C 0.56425 0.24656 0.7936 0.0
H126 H 0.46145 0.24519 0.72114 0.0
C127 C 0.54967 0.24703 0.85694 0.0
C128 C 0.50339 0.24432 0.87146 0.0
H129 H 0.60019 0.24505 0.78355 0.0
H130 H 0.57468 0.24553 0.89427 0.0
C131 C 0.47187 0.24626 0.82181 0.0
C132 C 0.78217 0.54911 0.3479 0.0
C133 C 0.78903 0.50351 0.3634 0.0
H134 H 0.77954 0.59841 0.27347 0.0
C135 C 0.78966 0.47116 0.31436 0.0
H136 H 0.78145 0.57476 0.38466 0.0
C137 C 0.78769 0.4846 0.2507 0.0
C138 C 0.786 0.53069 0.23514 0.0
H139 H 0.79445 0.43567 0.32506 0.0
H140 H 0.7916 0.45925 0.2139 0.0
C141 C 0.78112 0.56264 0.28424 0.0
C142 C 0.56511 0.78 0.82321 0.0
C143 C 0.53224 0.78204 0.87185 0.0
H144 H 0.57842 0.78131 0.72295 0.0
C145 C 0.48641 0.7792 0.85555 0.0
H146 H 0.60075 0.78176 0.83446 0.0
C147 C 0.47365 0.77957 0.79165 0.0
C148 C 0.5065 0.78195 0.74302 0.0
H149 H 0.46033 0.7807 0.89191 0.0
H150 H 0.43799 0.78099 0.7804 0.0
C151 C 0.55235 0.77954 0.7593 0.0
C152 C 0.77936 0.48141 0.7706 0.0
C153 C 0.78285 0.5207 0.73324 0.0
H154 H 0.77976 0.45304 0.86418 0.0
C155 C 0.78284 0.56298 0.76376 0.0
H156 H 0.77894 0.44829 0.74865 0.0
C157 C 0.78331 0.56571 0.83025 0.0
C158 C 0.7838 0.5262 0.86747 0.0
H159 H 0.78531 0.59391 0.73641 0.0
H160 H 0.78608 0.59869 0.85224 0.0
C161 C 0.77984 0.48413 0.83697 0.0
C162 C 0.56129 0.77848 0.27675 0.0
C163 C 0.52169 0.7803 0.24024 0.0
H164 H 0.59002 0.77969 0.36988 0.0
C165 C 0.47961 0.7783 0.27165 0.0
H166 H 0.59427 0.77971 0.25411 0.0
C167 C 0.47717 0.77833 0.33816 0.0
C168 C 0.51676 0.78032 0.37466 0.0
H169 H 0.44843 0.77939 0.24502 0.0
H170 H 0.44418 0.77944 0.36079 0.0
C171 C 0.55884 0.77846 0.34325 0.0
C172 C 0.25446 0.56205 0.85259 0.0
C173 C 0.25432 0.51976 0.88307 0.0
H174 H 0.25133 0.59781 0.76414 0.0
C175 C 0.2577 0.48048 0.84568 0.0
H176 H 0.25206 0.59298 0.87997 0.0
C177 C 0.25724 0.48324 0.77931 0.0
C178 C 0.2534 0.52533 0.74885 0.0
H179 H 0.25803 0.44735 0.8676 0.0
H180 H 0.25724 0.45216 0.75208 0.0
C181 C 0.254 0.56481 0.7861 0.0
C182 C 0.47897 0.25313 0.34525 0.0
C183 C 0.5214 0.25114 0.3747 0.0
H184 H 0.44253 0.25193 0.25774 0.0
C185 C 0.56058 0.25324 0.33649 0.0
H186 H 0.44813 0.25189 0.37327 0.0
C187 C 0.55739 0.25319 0.27015 0.0
C188 C 0.51496 0.25109 0.2407 0.0
H189 H 0.59383 0.25213 0.35767 0.0
H190 H 0.58823 0.25199 0.24213 0.0
C191 C 0.47578 0.25313 0.27891 0.0
C192 C 0.98479 0.48979 0.04231 0.0
C193 C 0.97379 0.53606 0.04611 0.0
H194 H 0.03698 0.43956 0.0428 0.0
C195 C 1.00902 0.56768 0.05044 0.0
H196 H 0.95853 0.46439 0.03899 0.0
C197 C 0.05406 0.55336 0.05216 0.0
C198 C 0.065 0.50702 0.05019 0.0
H199 H 1.00183 0.60352 0.05334 0.0
H200 H 0.08028 0.57872 0.05645 0.0
C201 C 0.02982 0.47543 0.04462 0.0
C202 C 0.47471 1.00495 0.5489 0.0
C203 C 0.50652 0.96977 0.54875 0.0
H204 H 0.46332 0.07628 0.54861 0.0
C205 C 0.55283 0.98085 0.54585 0.0
H206 H 0.43884 0.9977 0.55087 0.0
C207 C 0.567 0.026 0.54498 0.0
C208 C 0.5352 0.06119 0.54637 0.0
H209 H 0.57835 0.95462 0.54563 0.0
H210 H 0.60288 0.03328 0.54407 0.0
C211 C 0.48886 0.05007 0.54742 0.0
C212 C 0.05219 0.48978 0.57409 0.0
C213 C 0.06348 0.53599 0.57023 0.0
H214 H 0.9997 0.4398 0.57366 0.0
C215 C 0.02844 0.56778 0.56586 0.0
H216 H 0.0783 0.46426 0.57744 0.0
C217 C 0.98331 0.55367 0.56415 0.0
C218 C 0.97209 0.50738 0.56617 0.0
H219 H 0.03584 0.60358 0.56292 0.0
H220 H 0.95725 0.57915 0.55983 0.0
C221 C 1.00708 0.47564 0.57179 0.0
C222 C 0.56268 1.00519 0.06628 0.0
C223 C 0.53107 0.96979 0.0663 0.0
H224 H 0.57367 0.07659 0.06677 0.0
C225 C 0.48469 0.98056 0.06913 0.0
H226 H 0.59859 0.99818 0.06437 0.0
C227 C 0.47027 0.02561 0.07009 0.0
C228 C 0.50188 0.06101 0.06884 0.0
H229 H 0.45932 0.95416 0.06925 0.0
H230 H 0.43435 0.03264 0.07094 0.0
C231 C 0.54828 0.05021 0.06784 0.0
C232 C 0.2471 0.28232 0.06199 0.0
C233 C 0.25994 0.32809 0.06288 0.0
H234 H 0.26972 0.21319 0.05641 0.0
C235 C 0.30606 0.33915 0.06184 0.0
H236 H 0.21169 0.273 0.06322 0.0
C237 C 0.33879 0.30537 0.06075 0.0
C238 C 0.32629 0.25964 0.05865 0.0
H239 H 0.31698 0.3741 0.06339 0.0
H240 H 0.37408 0.3152 0.06003 0.0
C241 C 0.28014 0.24826 0.05847 0.0
C242 C 0.78936 0.28321 0.55398 0.0
C243 C 0.77654 0.32897 0.55316 0.0
H244 H 0.76669 0.21407 0.55938 0.0
C245 C 0.73043 0.34001 0.55414 0.0
H246 H 0.82475 0.27391 0.5528 0.0
C247 C 0.69768 0.30621 0.55509 0.0
C248 C 0.71015 0.26049 0.55712 0.0
H249 H 0.71954 0.37495 0.55263 0.0
H250 H 0.66239 0.31601 0.55576 0.0
C251 C 0.75629 0.24913 0.55737 0.0
C252 C 0.77421 0.73802 0.9995 0.0
C253 C 0.78856 0.72219 0.0589 0.0
H254 H 0.72931 0.78206 0.94933 0.0
C255 C 0.77025 0.74147 0.11449 0.0
H256 H 0.78758 0.72338 0.95605 0.0
C257 C 0.73577 0.77372 0.11072 0.0
C258 C 0.72041 0.7885 0.0513 0.0
H259 H 0.78034 0.72934 0.16088 0.0
H260 H 0.72012 0.78601 0.15412 0.0
C261 C 0.74104 0.77161 0.99576 0.0
C262 C 0.29732 0.7708 0.61981 0.0
C263 C 0.3179 0.78765 0.56418 0.0
H264 H 0.25073 0.72264 0.65971 0.0
C265 C 0.30245 0.7728 0.50483 0.0
H266 H 0.30912 0.78129 0.66618 0.0
C267 C 0.26791 0.74057 0.5012 0.0
C268 C 0.24962 0.72135 0.55687 0.0
H269 H 0.31805 0.78506 0.46136 0.0
H270 H 0.25773 0.7284 0.45485 0.0
C271 C 0.26408 0.73722 0.61621 0.0
loop_
_geom_bond_atom_site_label_1
_geom_bond_atom_site_label_2
_geom_bond_distance
_geom_bond_site_symmetry_2
_ccdc_geom_bond_type
O0 Cd1 2.223 . S
O0 C8 1.315 . S
Cd1 O0 2.223 . S
Cd1 O4 2.297 . S
Cd1 O5 2.439 . S
Cd1 O11 2.240 . S
Cd2 O3 2.240 . S
Cd2 O10 2.223 . S
Cd2 O12 2.297 1_554 S
Cd2 O13 2.439 1_554 S
O3 Cd2 2.240 . S
O3 C8 1.279 . S
O4 Cd1 2.297 . S
O4 C6 1.247 . S
O5 Cd1 2.439 . S
O5 C6 1.208 . S
C6 O4 1.247 . S
C6 O5 1.208 . S
C7 O12 1.247 . S
C7 O13 1.208 . S
C8 O0 1.315 . S
C8 O3 1.279 . S
C9 O10 1.315 . S
C9 O11 1.279 . S
O10 Cd2 2.223 . S
O10 C9 1.315 . S
O11 Cd1 2.240 . S
O11 C9 1.279 . S
O12 Cd2 2.297 1_556 S
O12 C7 1.247 . S
O13 Cd2 2.439 1_556 S
O13 C7 1.208 . S
O14 Cd15 2.223 . S
O14 C22 1.315 . S
Cd15 O14 2.223 . S
Cd15 O18 2.297 . S
Cd15 O19 2.439 . S
Cd15 O25 2.240 . S
Cd16 O17 2.240 . S
Cd16 O24 2.223 . S
Cd16 O26 2.297 . S
Cd16 O27 2.439 . S
O17 Cd16 2.240 . S
O17 C22 1.279 . S
O18 Cd15 2.297 . S
O18 C20 1.247 . S
O19 Cd15 2.439 . S
O19 C20 1.208 . S
C20 O18 1.247 . S
C20 O19 1.208 . S
C21 O26 1.247 . S
C21 O27 1.208 . S
C22 O14 1.315 . S
C22 O17 1.279 . S
C23 O24 1.315 . S
C23 O25 1.279 . S
O24 Cd16 2.223 . S
O24 C23 1.315 . S
O25 Cd15 2.240 . S
O25 C23 1.279 . S
O26 Cd16 2.297 . S
O26 C21 1.247 . S
O27 Cd16 2.439 . S
O27 C21 1.208 . S
O28 Cd29 2.223 . S
O28 C36 1.315 . S
Cd29 O28 2.223 . S
Cd29 O32 2.297 . S
Cd29 O33 2.439 . S
Cd29 O39 2.240 . S
Cd30 O31 2.240 . S
Cd30 O38 2.223 . S
Cd30 O40 2.297 1_554 S
Cd30 O41 2.439 1_554 S
O31 Cd30 2.240 . S
O31 C36 1.279 . S
O32 Cd29 2.297 . S
O32 C34 1.247 . S
O33 Cd29 2.439 . S
O33 C34 1.208 . S
C34 O32 1.247 . S
C34 O33 1.208 . S
C35 O40 1.247 . S
C35 O41 1.208 . S
C36 O28 1.315 . S
C36 O31 1.279 . S
C37 O38 1.315 . S
C37 O39 1.279 . S
O38 Cd30 2.223 . S
O38 C37 1.315 . S
O39 Cd29 2.240 . S
O39 C37 1.279 . S
O40 Cd30 2.297 1_556 S
O40 C35 1.247 . S
O41 Cd30 2.439 1_556 S
O41 C35 1.208 . S
O42 Cd43 2.223 . S
O42 C50 1.315 . S
Cd43 O42 2.223 . S
Cd43 O46 2.297 . S
Cd43 O47 2.439 . S
Cd43 O53 2.240 . S
Cd44 O45 2.240 . S
Cd44 O52 2.223 . S
Cd44 O54 2.297 . S
Cd44 O55 2.439 . S
O45 Cd44 2.240 . S
O45 C50 1.279 . S
O46 Cd43 2.297 . S
O46 C48 1.247 . S
O47 Cd43 2.439 . S
O47 C48 1.208 . S
C48 O46 1.247 . S
C48 O47 1.208 . S
C49 O54 1.247 . S
C49 O55 1.208 . S
C50 O42 1.315 . S
C50 O45 1.279 . S
C51 O52 1.315 . S
C51 O53 1.279 . S
O52 Cd44 2.223 . S
O52 C51 1.315 . S
O53 Cd43 2.240 . S
O53 C51 1.279 . S
O54 Cd44 2.297 . S
O54 C49 1.247 . S
O55 Cd44 2.439 . S
O55 C49 1.208 . S
O56 Cd57 2.223 . S
O56 C64 1.315 . S
Cd57 O56 2.223 . S
Cd57 O60 2.297 . S
Cd57 O61 2.439 . S
Cd57 O67 2.240 . S
Cd58 O59 2.240 . S
Cd58 O66 2.223 . S
Cd58 O68 2.297 . S
Cd58 O69 2.439 . S
O59 Cd58 2.240 . S
O59 C64 1.279 . S
O60 Cd57 2.297 . S
O60 C62 1.247 . S
O61 Cd57 2.439 . S
O61 C62 1.208 . S
C62 O60 1.247 . S
C62 O61 1.208 . S
C63 O68 1.247 . S
C63 O69 1.208 . S
C64 O56 1.315 . S
C64 O59 1.279 . S
C65 O66 1.315 . S
C65 O67 1.279 . S
O66 Cd58 2.223 . S
O66 C65 1.315 . S
O67 Cd57 2.240 . S
O67 C65 1.279 . S
O68 Cd58 2.297 . S
O68 C63 1.247 . S
O69 Cd58 2.439 . S
O69 C63 1.208 . S
O70 Cd71 2.223 . S
O70 C78 1.315 . S
Cd71 O70 2.223 . S
Cd71 O74 2.297 . S
Cd71 O75 2.439 1_556 S
Cd71 O81 2.240 1_556 S
Cd72 O73 2.240 1_554 S
Cd72 O80 2.223 . S
Cd72 O82 2.297 . S
Cd72 O83 2.439 . S
O73 Cd72 2.240 1_556 S
O73 C78 1.279 . S
O74 Cd71 2.297 . S
O74 C76 1.256 . S
O75 Cd71 2.439 1_554 S
O75 C76 1.201 1_554 S
C76 O74 1.256 . S
C76 O75 1.201 1_556 S
C77 O82 1.247 . S
C77 O83 1.208 . S
C78 O70 1.315 . S
C78 O73 1.279 . S
C79 O80 1.315 . S
C79 O81 1.279 . S
O80 Cd72 2.223 . S
O80 C79 1.315 . S
O81 Cd71 2.240 1_554 S
O81 C79 1.279 . S
O82 Cd72 2.297 . S
O82 C77 1.247 . S
O83 Cd72 2.439 . S
O83 C77 1.208 . S
O84 Cd85 2.223 . S
O84 C92 1.315 . S
Cd85 O84 2.223 . S
Cd85 O88 2.297 . S
Cd85 O89 2.439 . S
Cd85 O95 2.240 . S
Cd86 O87 2.240 . S
Cd86 O94 2.223 . S
Cd86 O96 2.297 . S
Cd86 O97 2.439 . S
O87 Cd86 2.240 . S
O87 C92 1.279 . S
O88 Cd85 2.297 . S
O88 C90 1.247 . S
O89 Cd85 2.439 . S
O89 C90 1.208 . S
C90 O88 1.247 . S
C90 O89 1.208 . S
C91 O96 1.247 . S
C91 O97 1.208 . S
C92 O84 1.315 . S
C92 O87 1.279 . S
C93 O94 1.315 . S
C93 O95 1.279 . S
O94 Cd86 2.223 . S
O94 C93 1.315 . S
O95 Cd85 2.240 . S
O95 C93 1.279 . S
O96 Cd86 2.297 . S
O96 C91 1.247 . S
O97 Cd86 2.439 . S
O97 C91 1.208 . S
O98 Cd99 2.223 . S
O98 C106 1.315 . S
Cd99 O98 2.223 . S
Cd99 O102 2.297 . S
Cd99 O103 2.439 1_556 S
Cd99 O109 2.240 1_556 S
Cd100 O101 2.240 1_554 S
Cd100 O108 2.223 . S
Cd100 O110 2.297 . S
Cd100 O111 2.439 . S
O101 Cd100 2.240 1_556 S
O101 C106 1.279 . S
O102 Cd99 2.297 . S
O102 C104 1.256 . S
O103 Cd99 2.439 1_554 S
O103 C104 1.201 1_554 S
C104 O102 1.256 . S
C104 O103 1.201 1_556 S
C105 O110 1.247 . S
C105 O111 1.208 . S
C106 O98 1.315 . S
C106 O101 1.279 . S
C107 O108 1.315 . S
C107 O109 1.279 . S
O108 Cd100 2.223 . S
O108 C107 1.315 . S
O109 Cd99 2.240 1_554 S
O109 C107 1.279 . S
O110 Cd100 2.297 . S
O110 C105 1.247 . S
O111 Cd100 2.439 . S
O111 C105 1.208 . S
C112 C113 1.387 . S
C112 H116 0.950 . S
C112 C121 1.390 . S
C113 C112 1.387 . S
C113 C115 1.387 . S
H114 C121 0.950 . S
C115 C113 1.387 . S
C115 C117 1.390 . S
C115 H119 0.950 . S
H116 C112 0.950 . S
C117 C115 1.390 . S
C117 C118 1.387 . S
C117 H120 0.950 . S
C118 C117 1.387 . S
C118 C121 1.387 . S
H119 C115 0.950 . S
H120 C117 0.950 . S
C121 C112 1.390 . S
C121 H114 0.950 . S
C121 C118 1.387 . S
C122 C123 1.387 . S
C122 H126 0.950 . S
C122 C131 1.390 . S
C123 C122 1.387 . S
C123 C125 1.387 . S
H124 C131 0.950 . S
C125 C123 1.387 . S
C125 C127 1.390 . S
C125 H129 0.950 . S
H126 C122 0.950 . S
C127 C125 1.390 . S
C127 C128 1.387 . S
C127 H130 0.950 . S
C128 C127 1.387 . S
C128 C131 1.387 . S
H129 C125 0.950 . S
H130 C127 0.950 . S
C131 C122 1.390 . S
C131 H124 0.950 . S
C131 C128 1.387 . S
C132 C133 1.387 . S
C132 H136 0.950 . S
C132 C141 1.390 . S
C133 C132 1.387 . S
C133 C135 1.387 . S
H134 C141 0.950 . S
C135 C133 1.387 . S
C135 C137 1.390 . S
C135 H139 0.950 . S
H136 C132 0.950 . S
C137 C135 1.390 . S
C137 C138 1.387 . S
C137 H140 0.950 . S
C138 C137 1.387 . S
C138 C141 1.387 . S
H139 C135 0.950 . S
H140 C137 0.950 . S
C141 C132 1.390 . S
C141 H134 0.950 . S
C141 C138 1.387 . S
C142 C143 1.387 . S
C142 H146 0.950 . S
C142 C151 1.390 . S
C143 C142 1.387 . S
C143 C145 1.387 . S
H144 C151 0.950 . S
C145 C143 1.387 . S
C145 C147 1.390 . S
C145 H149 0.950 . S
H146 C142 0.950 . S
C147 C145 1.390 . S
C147 C148 1.387 . S
C147 H150 0.950 . S
C148 C147 1.387 . S
C148 C151 1.387 . S
H149 C145 0.950 . S
H150 C147 0.950 . S
C151 C142 1.390 . S
C151 H144 0.950 . S
C151 C148 1.387 . S
C152 C153 1.387 . S
C152 H156 0.950 . S
C152 C161 1.390 . S
C153 C152 1.387 . S
C153 C155 1.387 . S
H154 C161 0.950 . S
C155 C153 1.387 . S
C155 C157 1.390 . S
C155 H159 0.950 . S
H156 C152 0.950 . S
C157 C155 1.390 . S
C157 C158 1.387 . S
C157 H160 0.950 . S
C158 C157 1.387 . S
C158 C161 1.387 . S
H159 C155 0.950 . S
H160 C157 0.950 . S
C161 C152 1.390 . S
C161 H154 0.950 . S
C161 C158 1.387 . S
C162 C163 1.387 . S
C162 H166 0.950 . S
C162 C171 1.390 . S
C163 C162 1.387 . S
C163 C165 1.387 . S
H164 C171 0.950 . S
C165 C163 1.387 . S
C165 C167 1.390 . S
C165 H169 0.950 . S
H166 C162 0.950 . S
C167 C165 1.390 . S
C167 C168 1.387 . S
C167 H170 0.950 . S
C168 C167 1.387 . S
C168 C171 1.387 . S
H169 C165 0.950 . S
H170 C167 0.950 . S
C171 C162 1.390 . S
C171 H164 0.950 . S
C171 C168 1.387 . S
C172 C173 1.387 . S
C172 H176 0.950 . S
C172 C181 1.390 . S
C173 C172 1.387 . S
C173 C175 1.387 . S
H174 C181 0.950 . S
C175 C173 1.387 . S
C175 C177 1.390 . S
C175 H179 0.950 . S
H176 C172 0.950 . S
C177 C175 1.390 . S
C177 C178 1.387 . S
C177 H180 0.950 . S
C178 C177 1.387 . S
C178 C181 1.387 . S
H179 C175 0.950 . S
H180 C177 0.950 . S
C181 C172 1.390 . S
C181 H174 0.950 . S
C181 C178 1.387 . S
C182 C183 1.387 . S
C182 H186 0.950 . S
C182 C191 1.390 . S
C183 C182 1.387 . S
C183 C185 1.387 . S
H184 C191 0.950 . S
C185 C183 1.387 . S
C185 C187 1.390 . S
C185 H189 0.950 . S
H186 C182 0.950 . S
C187 C185 1.390 . S
C187 C188 1.387 . S
C187 H190 0.950 . S
C188 C187 1.387 . S
C188 C191 1.387 . S
H189 C185 0.950 . S
H190 C187 0.950 . S
C191 C182 1.390 . S
C191 H184 0.950 . S
C191 C188 1.387 . S
C192 C193 1.387 . S
C192 H196 0.950 1_554 S
C192 C201 1.390 1_655 S
C193 C192 1.387 . S
C193 C195 1.387 . S
H194 C201 0.950 1_556 S
C195 C193 1.387 . S
C195 C197 1.390 1_655 S
C195 H199 0.950 . S
H196 C192 0.950 1_556 S
C197 C195 1.390 1_455 S
C197 C198 1.387 . S
C197 H200 0.950 . S
C198 C197 1.387 . S
C198 C201 1.387 . S
H199 C195 0.950 . S
H200 C197 0.950 . S
C201 C192 1.390 1_455 S
C201 H194 0.950 1_554 S
C201 C198 1.387 . S
C202 C203 1.387 . S
C202 H206 0.950 . S
C202 C211 1.390 1_565 S
C203 C202 1.387 . S
C203 C205 1.387 . S
H204 C211 0.950 . S
C205 C203 1.387 . S
C205 C207 1.390 1_565 S
C205 H209 0.950 . S
H206 C202 0.950 . S
C207 C205 1.390 1_545 S
C207 C208 1.387 . S
C207 H210 0.950 . S
C208 C207 1.387 . S
C208 C211 1.387 . S
H209 C205 0.950 . S
H210 C207 0.950 . S
C211 C202 1.390 1_545 S
C211 H204 0.950 . S
C211 C208 1.387 . S
C212 C213 1.387 . S
C212 H216 0.950 . S
C212 C221 1.390 1_455 S
C213 C212 1.387 . S
C213 C215 1.387 . S
H214 C221 0.950 . S
C215 C213 1.387 . S
C215 C217 1.390 1_455 S
C215 H219 0.950 . S
H216 C212 0.950 . S
C217 C215 1.390 1_655 S
C217 C218 1.387 . S
C217 H220 0.950 . S
C218 C217 1.387 . S
C218 C221 1.387 . S
H219 C215 0.950 . S
H220 C217 0.950 . S
C221 C212 1.390 1_655 S
C221 H214 0.950 . S
C221 C218 1.387 . S
C222 C223 1.387 1_556 S
C222 H226 0.950 . S
C222 C231 1.390 1_565 S
C223 C222 1.387 1_554 S
C223 C225 1.387 . S
H224 C231 0.950 . S
C225 C223 1.387 . S
C225 C227 1.390 1_565 S
C225 H229 0.950 . S
H226 C222 0.950 . S
C227 C225 1.390 1_545 S
C227 C228 1.387 . S
C227 H230 0.950 . S
C228 C227 1.387 . S
C228 C231 1.387 1_554 S
H229 C225 0.950 . S
H230 C227 0.950 . S
C231 C222 1.390 1_545 S
C231 H224 0.950 . S
C231 C228 1.387 1_556 S
C232 C233 1.387 . S
C232 H236 0.950 . S
C232 C241 1.390 . S
C233 C232 1.387 . S
C233 C235 1.387 . S
H234 C241 0.950 . S
C235 C233 1.387 . S
C235 C237 1.390 1_554 S
C235 H239 0.952 . S
H236 C232 0.950 . S
C237 C235 1.390 1_556 S
C237 C238 1.387 1_556 S
C237 H240 0.950 . S
C238 C237 1.387 1_554 S
C238 C241 1.387 . S
H239 C235 0.952 . S
H240 C237 0.950 . S
C241 C232 1.390 . S
C241 H234 0.950 . S
C241 C238 1.387 . S
C242 C243 1.387 . S
C242 H246 0.950 . S
C242 C251 1.390 . S
C243 C242 1.387 . S
C243 C245 1.387 . S
H244 C251 0.950 . S
C245 C243 1.387 . S
C245 C247 1.390 . S
C245 H249 0.950 . S
H246 C242 0.950 . S
C247 C245 1.390 . S
C247 C248 1.387 . S
C247 H250 0.950 . S
C248 C247 1.387 . S
C248 C251 1.387 . S
H249 C245 0.950 . S
H250 C247 0.950 . S
C251 C242 1.390 . S
C251 H244 0.950 . S
C251 C248 1.387 . S
C252 C253 1.387 1_556 S
C252 H256 0.950 . S
C252 C261 1.390 . S
C253 C252 1.387 1_554 S
C253 C255 1.387 . S
H254 C261 0.950 . S
C255 C253 1.387 . S
C255 C257 1.390 . S
C255 H259 0.950 . S
H256 C252 0.950 . S
C257 C255 1.390 . S
C257 C258 1.387 . S
C257 H260 0.950 . S
C258 C257 1.387 . S
C258 C261 1.387 1_554 S
H259 C255 0.950 . S
H260 C257 0.950 . S
C261 C252 1.390 . S
C261 H254 0.950 . S
C261 C258 1.387 1_556 S
C262 C263 1.387 . S
C262 H266 0.950 . S
C262 C271 1.390 . S
C263 C262 1.387 . S
C263 C265 1.387 . S
H264 C271 0.950 . S
C265 C263 1.387 . S
C265 C267 1.390 . S
C265 H269 0.950 . S
H266 C262 0.950 . S
C267 C265 1.390 . S
C267 C268 1.387 . S
C267 H270 0.950 . S
C268 C267 1.387 . S
C268 C271 1.387 . S
H269 C265 0.950 . S
H270 C267 0.950 . S
C271 C262 1.390 . S
C271 H264 0.950 . S
C271 C268 1.387 . S
C113 C8 1.683 . S
C118 C64 1.683 . S
C123 C22 1.683 . S
C128 C78 1.683 . S
C133 C92 1.681 . S
C138 C36 1.681 . S
C143 C106 1.683 . S
C148 C50 1.683 . S
C153 C91 1.197 . S
C158 C35 1.197 . S
C163 C105 1.197 . S
C168 C49 1.197 . S
C173 C7 1.197 . S
C178 C63 1.197 . S
C183 C21 1.197 . S
C188 C77 1.197 . S
C193 C37 1.326 . S
C198 C9 1.326 . S
C203 C51 1.330 . S
C208 C23 1.330 . S
C213 C65 1.326 . S
C218 C93 1.326 . S
C223 C107 1.330 . S
C228 C79 1.330 . S
C233 C6 1.562 . S
C238 C76 1.559 1_554 S
C243 C90 1.562 . S
C248 C20 1.561 . S
C253 C34 1.561 . S
C258 C104 1.560 1_554 S
C263 C48 1.562 . S
C268 C62 1.561 . S
