# Generated by pormake.
# Topology irl, (4)-cn, num edge types: 1
# Building blocks:
#     Node 0, Type 0, BuildingBlock: TATPOV_clean_sbu_0, # of connection points: 4
#     Node 1, Type 0, BuildingBlock: TATPOV_clean_sbu_0, # of connection points: 4
#     Node 2, Type 0, BuildingBlock: TATPOV_clean_sbu_0, # of connection points: 4
#     Node 3, Type 0, BuildingBlock: TATPOV_clean_sbu_0, # of connection points: 4
#     Node 4, Type 0, BuildingBlock: TATPOV_clean_sbu_0, # of connection points: 4
#     Node 5, Type 0, BuildingBlock: TATPOV_clean_sbu_0, # of connection points: 4
#     Node 6, Type 0, BuildingBlock: TATPOV_clean_sbu_0, # of connection points: 4
#     Node 7, Type 0, BuildingBlock: TATPOV_clean_sbu_0, # of connection points: 4
#     Edge 8, Type (0, 0), BuildingBlock: UKIBIB_clean_linker_0, # of connection points: 2
#     Edge 9, Type (0, 0), BuildingBlock: UKIBIB_clean_linker_0, # of connection points: 2
#     Edge 10, Type (0, 0), BuildingBlock: UKIBIB_clean_linker_0, # of connection points: 2
#     Edge 11, Type (0, 0), BuildingBlock: UKIBIB_clean_linker_0, # of connection points: 2
#     Edge 12, Type (0, 0), BuildingBlock: UKIBIB_clean_linker_0, # of connection points: 2
#     Edge 13, Type (0, 0), BuildingBlock: UKIBIB_clean_linker_0, # of connection points: 2
#     Edge 14, Type (0, 0), BuildingBlock: UKIBIB_clean_linker_0, # of connection points: 2
#     Edge 15, Type (0, 0), BuildingBlock: UKIBIB_clean_linker_0, # of connection points: 2
#     Edge 16, Type (0, 0), BuildingBlock: UKIBIB_clean_linker_0, # of connection points: 2
#     Edge 17, Type (0, 0), BuildingBlock: UKIBIB_clean_linker_0, # of connection points: 2
#     Edge 18, Type (0, 0), BuildingBlock: UKIBIB_clean_linker_0, # of connection points: 2
#     Edge 19, Type (0, 0), BuildingBlock: UKIBIB_clean_linker_0, # of connection points: 2
#     Edge 20, Type (0, 0), BuildingBlock: UKIBIB_clean_linker_0, # of connection points: 2
#     Edge 21, Type (0, 0), BuildingBlock: UKIBIB_clean_linker_0, # of connection points: 2
#     Edge 22, Type (0, 0), BuildingBlock: UKIBIB_clean_linker_0, # of connection points: 2
#     Edge 23, Type (0, 0), BuildingBlock: UKIBIB_clean_linker_0, # of connection points: 2
# Relax obj value: 0.143
# Max RMSD: 0.156
# Mean RMSD: 0.156
data_MOF--net-irl--node1-TATPOV_clean_sbu_0--edge1-UKIBIB_clean_linker_0
_symmetry_space_group_name_H-M    P1
_symmetry_Int_Tables_number       1
_symmetry_cell_setting            triclinic
loop_
_symmetry_equiv_pos_as_xyz
'x, y, z'
_cell_length_a     55.14545
_cell_length_b     43.132168
_cell_length_c     38.631605
_cell_angle_alpha  90.674128
_cell_angle_beta   89.330622
_cell_angle_gamma 90.392383
loop_
_atom_site_label
_atom_site_type_symbol
_atom_site_fract_x
_atom_site_fract_y
_atom_site_fract_z
_atom_type_partial_charge
Zn0 Zn 0.00478 0.20861 -0.01748 0.0
Zn1 Zn 0.06289 0.21954 -0.02139 0.0
O2 O 0.05449 0.23994 0.93345 0.0
O3 O 0.01671 0.22245 0.93723 0.0
O4 O 0.09676 0.23043 -0.00686 0.0
O5 O 0.00543 0.23433 0.02499 0.0
O6 O 0.04517 0.23291 0.02031 0.0
C7 C 0.03405 0.23384 0.91988 0.0
C8 C 0.04041 0.15585 -0.02224 0.0
O9 O 0.05958 0.17209 -0.02755 0.0
O10 O 0.01994 0.16787 -0.01581 0.0
C11 C 0.1125 0.22294 -0.02925 0.0
O12 O 0.10547 0.21074 0.9413 0.0
C13 C 0.02619 0.23951 0.0373 0.0
Zn14 Zn 0.99285 0.77291 -0.02073 0.0
Zn15 Zn 0.93602 0.75607 -0.01873 0.0
O16 O 0.94446 0.73553 0.93519 0.0
O17 O 0.97871 0.76237 0.93492 0.0
O18 O 0.90096 0.74821 -0.00551 0.0
O19 O 0.98412 0.76348 0.02594 0.0
O20 O 0.95094 0.73535 0.02139 0.0
C21 C 0.96264 0.74717 0.9193 0.0
C22 C 0.95935 0.82273 -0.01902 0.0
O23 O 0.94132 0.80417 -0.02344 0.0
O24 O 0.9806 0.8135 -0.01343 0.0
C25 C 0.88648 0.75567 -0.02894 0.0
O26 O 0.89556 0.76742 0.94252 0.0
C27 C 0.96865 0.74541 0.03873 0.0
Zn28 Zn 0.00506 0.77255 0.47802 0.0
Zn29 Zn 0.06217 0.75676 0.47637 0.0
O30 O 0.05349 0.73668 0.5213 0.0
O31 O 0.01877 0.76225 0.52337 0.0
O32 O 0.09699 0.74673 0.46349 0.0
O33 O 0.01389 0.7647 0.42977 0.0
O34 O 0.04622 0.73594 0.43717 0.0
C35 C 0.03492 0.74655 0.53765 0.0
C36 C 0.03969 0.82242 0.47366 0.0
O37 O 0.05737 0.80488 0.4818 0.0
O38 O 0.01952 0.81158 0.46383 0.0
C39 C 0.11186 0.75438 0.48668 0.0
O40 O 0.10345 0.76754 0.51509 0.0
C41 C 0.02973 0.74635 0.41832 0.0
Zn42 Zn 0.99697 0.21061 0.47661 0.0
Zn43 Zn 0.93484 0.21878 0.47765 0.0
O44 O 0.94513 0.24122 0.52165 0.0
O45 O 0.97805 0.21239 0.52187 0.0
O46 O 0.90127 0.22975 0.46298 0.0
O47 O 0.99177 0.22959 0.43109 0.0
O48 O 0.95201 0.23307 0.43644 0.0
C49 C 0.96428 0.23203 0.53636 0.0
C50 C 0.95743 0.15718 0.48106 0.0
O51 O 0.9369 0.17074 0.48235 0.0
O52 O 0.97687 0.17269 0.47901 0.0
C53 C 0.88598 0.22252 0.48595 0.0
O54 O 0.89384 0.21108 0.51501 0.0
C55 C 0.97142 0.23751 0.41963 0.0
Zn56 Zn 0.50398 0.70887 -0.01891 0.0
Zn57 Zn 0.56308 0.71922 -0.02044 0.0
O58 O 0.55351 0.7408 0.93546 0.0
O59 O 0.51663 0.71964 0.9348 0.0
O60 O 0.597 0.73045 -0.00534 0.0
O61 O 0.50573 0.73438 0.0242 0.0
O62 O 0.54551 0.73217 0.02081 0.0
C63 C 0.53419 0.73291 0.91973 0.0
C64 C 0.54052 0.65623 -0.02281 0.0
O65 O 0.56019 0.67174 -0.02682 0.0
O66 O 0.5202 0.6691 -0.01819 0.0
C67 C 0.61204 0.72284 -0.02864 0.0
O68 O 0.60369 0.71068 0.94257 0.0
C69 C 0.52638 0.73897 0.03719 0.0
Zn70 Zn 0.49318 0.27361 -0.01838 0.0
Zn71 Zn 0.43652 0.25742 -0.01881 0.0
O72 O 0.44376 0.23992 0.93478 0.0
O73 O 0.48154 0.25796 0.93583 0.0
O74 O 0.40155 0.24702 -0.00588 0.0
O75 O 0.49013 0.25543 0.02708 0.0
O76 O 0.45327 0.23603 0.01888 0.0
C77 C 0.46387 0.24589 0.91991 0.0
C78 C 0.45885 0.32353 -0.01835 0.0
O79 O 0.44084 0.30512 -0.02296 0.0
O80 O 0.47994 0.31418 -0.01201 0.0
C81 C 0.38674 0.25445 -0.02901 0.0
O82 O 0.3953 0.26738 0.94279 0.0
C83 C 0.47135 0.24163 0.03779 0.0
Zn84 Zn 0.50674 0.27045 0.47633 0.0
Zn85 Zn 0.56335 0.25809 0.47701 0.0
O86 O 0.55381 0.23475 0.52129 0.0
O87 O 0.52483 0.26889 0.52071 0.0
O88 O 0.59756 0.24767 0.4621 0.0
O89 O 0.50625 0.24077 0.43656 0.0
O90 O 0.54603 0.24519 0.43526 0.0
C91 C 0.53544 0.24724 0.53576 0.0
C92 C 0.54083 0.32225 0.47344 0.0
O93 O 0.55858 0.30584 0.48397 0.0
O94 O 0.52175 0.30996 0.46103 0.0
C95 C 0.61196 0.25506 0.48592 0.0
O96 O 0.60276 0.26729 0.51437 0.0
C97 C 0.52638 0.23781 0.4208 0.0
Zn98 Zn 0.49609 0.71 0.47373 0.0
Zn99 Zn 0.43473 0.7187 0.4782 0.0
O100 O 0.4449 0.74104 0.52239 0.0
O101 O 0.48036 0.71705 0.52011 0.0
O102 O 0.40141 0.73073 0.46439 0.0
O103 O 0.49224 0.73221 0.43018 0.0
O104 O 0.45249 0.73209 0.43678 0.0
C105 C 0.46385 0.73099 0.53692 0.0
C106 C 0.45684 0.65728 0.47956 0.0
O107 O 0.43621 0.67031 0.4831 0.0
O108 O 0.47567 0.67359 0.47645 0.0
C109 C 0.38566 0.72325 0.48665 0.0
O110 O 0.3926 0.71073 0.5156 0.0
C111 C 0.47134 0.73817 0.41925 0.0
C112 C 0.95393 0.87614 0.00182 0.0
C113 C 0.95815 0.8557 -0.02595 0.0
C114 C 0.96309 0.90644 0.00074 0.0
C115 C 0.04409 0.10457 0.9476 0.0
C116 C 0.04006 0.12204 -0.02198 0.0
C117 C 0.03497 0.07411 0.94516 0.0
H118 H 0.9755 0.85022 0.9237 0.0
H119 H 0.99078 0.90368 0.92132 0.0
H120 H 0.02305 0.12222 0.02884 0.0
H121 H 0.00698 0.06971 0.02425 0.0
C122 C 0.97093 0.8662 0.94464 0.0
C123 C 0.98019 0.89639 0.94364 0.0
C124 C 0.02722 0.10865 0.00573 0.0
C125 C 0.01762 0.07892 0.00291 0.0
C126 C 0.97656 0.9165 -0.02809 0.0
C127 C 0.98653 0.94748 -0.02862 0.0
C128 C 0.99472 0.9735 -0.02856 0.0
C129 C 0.0215 0.06142 -0.02723 0.0
C130 C 0.01215 0.03017 -0.02886 0.0
C131 C 0.00393 0.00417 -0.02884 0.0
H132 H 0.94527 0.86798 0.02537 0.0
H133 H 0.96035 0.92168 0.02291 0.0
H134 H 0.05283 0.11494 0.92525 0.0
H135 H 0.0379 0.0608 0.92154 0.0
C136 C 0.05084 0.87802 0.46514 0.0
C137 C 0.0385 0.85515 0.48392 0.0
C138 C 0.04248 0.90871 0.46617 0.0
C139 C 0.94807 0.10225 0.50078 0.0
C140 C 0.96089 0.12325 0.47976 0.0
C141 C 0.95609 0.07135 0.50319 0.0
H142 H 0.0087 0.84618 0.5197 0.0
H143 H 0.99413 0.89951 0.52112 0.0
H144 H 0.99172 0.1282 0.44454 0.0
H145 H 0.00555 0.07536 0.44951 0.0
C146 C 0.01876 0.86367 0.50542 0.0
C147 C 0.01017 0.89399 0.50586 0.0
C148 C 0.98132 0.11262 0.46092 0.0
C149 C 0.98943 0.08238 0.46381 0.0
C150 C 0.02171 0.91658 0.48573 0.0
C151 C 0.01209 0.94771 0.48514 0.0
C152 C 0.00365 0.97355 0.48513 0.0
C153 C 0.97693 0.06145 0.4848 0.0
C154 C 0.98548 0.02982 0.48621 0.0
C155 C 0.99382 0.0039 0.48592 0.0
H156 H 0.06568 0.87182 0.44785 0.0
H157 H 0.05164 0.92603 0.45061 0.0
H158 H 0.93266 0.1099 0.5162 0.0
H159 H 0.94626 0.05533 0.51966 0.0
C160 C 0.52371 0.61005 0.00372 0.0
C161 C 0.53928 0.62242 -0.02177 0.0
C162 C 0.51457 0.58014 0.0006 0.0
C163 C 0.47353 0.36568 0.94599 0.0
C164 C 0.4581 0.35616 -0.02677 0.0
C165 C 0.48294 0.39572 0.94551 0.0
H166 H 0.55747 0.61322 0.9292 0.0
H167 H 0.543 0.55883 0.92531 0.0
H168 H 0.44032 0.37008 0.02092 0.0
H169 H 0.45552 0.42381 0.01886 0.0
C170 C 0.5464 0.60375 0.94994 0.0
C171 C 0.53764 0.57313 0.94731 0.0
C172 C 0.45118 0.37749 -0.00108 0.0
C173 C 0.46039 0.40776 -0.00181 0.0
C174 C 0.52152 0.56146 -0.02744 0.0
C175 C 0.51245 0.53011 -0.02915 0.0
C176 C 0.50414 0.50418 -0.02885 0.0
C177 C 0.4766 0.41677 -0.02817 0.0
C178 C 0.48655 0.44768 -0.02834 0.0
C179 C 0.49476 0.47365 -0.02818 0.0
H180 H 0.51733 0.62439 0.02518 0.0
H181 H 0.50195 0.57168 0.02009 0.0
H182 H 0.48003 0.34902 0.92682 0.0
H183 H 0.49565 0.40221 0.9252 0.0
C184 C 0.55267 0.37859 0.47056 0.0
C185 C 0.53784 0.3549 0.48373 0.0
C186 C 0.54451 0.4094 0.47175 0.0
C187 C 0.44609 0.60133 0.49538 0.0
C188 C 0.4615 0.62343 0.47997 0.0
C189 C 0.45376 0.57025 0.49791 0.0
H190 H 0.50407 0.34464 0.51079 0.0
H191 H 0.48983 0.39803 0.51208 0.0
H192 H 0.49698 0.62978 0.45513 0.0
H193 H 0.50983 0.57702 0.46045 0.0
C194 C 0.51579 0.36264 0.50034 0.0
C195 C 0.50751 0.39306 0.50084 0.0
C196 C 0.48441 0.6137 0.46728 0.0
C197 C 0.49201 0.58332 0.47026 0.0
C198 C 0.52158 0.41655 0.48591 0.0
C199 C 0.51229 0.44781 0.48503 0.0
C200 C 0.50375 0.47358 0.4849 0.0
C201 C 0.47678 0.56127 0.48522 0.0
C202 C 0.48505 0.52951 0.48612 0.0
C203 C 0.4936 0.50373 0.48563 0.0
H204 H 0.56958 0.37314 0.45739 0.0
H205 H 0.55566 0.42748 0.46041 0.0
H206 H 0.42861 0.60806 0.50597 0.0
H207 H 0.44181 0.5533 0.50977 0.0
C208 C 0.02991 0.2677 0.09314 0.0
C209 C 0.02798 0.23994 0.0745 0.0
C210 C 0.02461 0.26791 0.12865 0.0
C211 C 0.96672 0.21371 0.36301 0.0
C212 C 0.96955 0.2409 0.38274 0.0
C213 C 0.9728 0.21361 0.32791 0.0
H214 H 0.0222 0.19032 0.07705 0.0
H215 H 0.01242 0.19076 0.13905 0.0
H216 H 0.97833 0.28972 0.38231 0.0
H217 H 0.98794 0.29008 0.31987 0.0
C218 C 0.02328 0.21201 0.09153 0.0
C219 C 0.01758 0.21228 0.1267 0.0
C220 C 0.97612 0.26869 0.367 0.0
C221 C 0.98186 0.26871 0.33168 0.0
C222 C 0.01751 0.24039 0.14528 0.0
C223 C 0.00971 0.24097 0.18116 0.0
C224 C 0.0031 0.24085 0.21115 0.0
C225 C 0.98099 0.24098 0.31223 0.0
C226 C 0.98885 0.2406 0.27639 0.0
C227 C 0.99548 0.24067 0.24641 0.0
H228 H 0.0339 0.28926 0.08002 0.0
H229 H 0.02501 0.28971 0.14279 0.0
H230 H 0.96175 0.19204 0.37532 0.0
H231 H 0.9719 0.19202 0.31337 0.0
C232 C 0.04595 0.74226 0.35864 0.0
C233 C 0.02742 0.73622 0.38279 0.0
C234 C 0.04055 0.7424 0.32326 0.0
C235 C 0.95314 0.73259 0.09799 0.0
C236 C 0.97245 0.73688 0.07456 0.0
C237 C 0.95777 0.73243 0.13371 0.0
H238 H 0.9898 0.72353 0.39033 0.0
H239 H 0.9803 0.7241 0.32883 0.0
H240 H 0.01149 0.74206 0.06913 0.0
H241 H 0.01914 0.74322 0.13067 0.0
C242 C 0.0042 0.72811 0.37167 0.0
C243 C 0.99875 0.72879 0.33669 0.0
C244 C 0.99625 0.73913 0.08682 0.0
C245 C 0.00068 0.73991 0.12202 0.0
C246 C 0.01668 0.73653 0.31225 0.0
C247 C 0.01015 0.73829 0.27609 0.0
C248 C 0.00304 0.73919 0.24653 0.0
C249 C 0.98159 0.73686 0.14581 0.0
C250 C 0.98718 0.73779 0.18239 0.0
C251 C 0.99411 0.73892 0.21207 0.0
H252 H 0.06392 0.74909 0.36714 0.0
H253 H 0.05469 0.7482 0.30471 0.0
H254 H 0.93462 0.73109 0.08896 0.0
H255 H 0.94278 0.72972 0.1518 0.0
C256 C 0.02316 0.71562 0.58904 0.0
C257 C 0.03192 0.74328 0.5747 0.0
C258 C 0.01528 0.71531 0.62373 0.0
C259 C 0.97536 0.77124 0.86521 0.0
C260 C 0.9668 0.74453 0.88209 0.0
C261 C 0.98316 0.76983 0.83091 0.0
H262 H 0.03709 0.79252 0.58298 0.0
H263 H 0.02384 0.7919 0.64358 0.0
H264 H 0.96177 0.69488 0.8778 0.0
H265 H 0.97467 0.69247 0.81624 0.0
C266 C 0.0317 0.77066 0.59449 0.0
C267 C 0.02376 0.77041 0.62882 0.0
C268 C 0.96702 0.71595 0.86457 0.0
C269 C 0.9748 0.71457 0.8298 0.0
C270 C 0.01574 0.74274 0.64386 0.0
C271 C 0.00851 0.74263 0.68011 0.0
C272 C 0.00242 0.74223 0.71039 0.0
C273 C 0.98266 0.74162 0.81274 0.0
C274 C 0.98965 0.74101 0.7764 0.0
C275 C 0.99564 0.74154 0.74609 0.0
H276 H 0.02174 0.69472 0.57329 0.0
H277 H 0.0087 0.69381 0.63473 0.0
H278 H 0.97619 0.7934 0.87878 0.0
H279 H 0.98943 0.79087 0.81853 0.0
C280 C 0.03305 0.26192 0.86369 0.0
C281 C 0.03029 0.23463 0.88249 0.0
C282 C 0.02569 0.26277 0.82898 0.0
C283 C 0.96516 0.20864 0.59401 0.0
C284 C 0.96735 0.23534 0.57379 0.0
C285 C 0.97256 0.20889 0.62853 0.0
H286 H 0.01754 0.18692 0.88074 0.0
H287 H 0.00522 0.1883 0.82011 0.0
H288 H 0.98075 0.28256 0.5725 0.0
H289 H 0.99316 0.28344 0.63377 0.0
C290 C 0.02018 0.20818 0.86637 0.0
C291 C 0.01298 0.20899 0.83183 0.0
C292 C 0.97774 0.26222 0.58826 0.0
C293 C 0.98518 0.26249 0.62301 0.0
C294 C 0.01571 0.23627 0.81269 0.0
C295 C 0.00871 0.23671 0.77629 0.0
C296 C 0.00275 0.23653 0.74595 0.0
C297 C 0.98257 0.2358 0.6435 0.0
C298 C 0.98983 0.23592 0.67986 0.0
C299 C 0.99589 0.23611 0.71016 0.0
H300 H 0.04011 0.2827 0.87608 0.0
H301 H 0.02774 0.28417 0.81488 0.0
H302 H 0.95822 0.18725 0.58274 0.0
H303 H 0.97062 0.18791 0.64346 0.0
C304 C 0.52396 0.71204 0.09184 0.0
C305 C 0.52783 0.73993 0.07439 0.0
C306 C 0.51837 0.71251 0.12704 0.0
C307 C 0.47495 0.7689 0.36629 0.0
C308 C 0.46892 0.74109 0.38241 0.0
C309 C 0.48093 0.76869 0.33105 0.0
H310 H 0.53249 0.78951 0.0791 0.0
H311 H 0.52361 0.79043 0.14191 0.0
H312 H 0.4628 0.69176 0.37578 0.0
H313 H 0.47341 0.69134 0.31401 0.0
C314 C 0.52905 0.76799 0.09259 0.0
C315 C 0.52379 0.76844 0.12812 0.0
C316 C 0.46711 0.71349 0.36313 0.0
C317 C 0.4735 0.71318 0.32816 0.0
C318 C 0.51752 0.74081 0.14519 0.0
C319 C 0.50972 0.74129 0.18107 0.0
C320 C 0.50312 0.74086 0.21105 0.0
C321 C 0.48096 0.74068 0.31208 0.0
C322 C 0.48883 0.74017 0.27626 0.0
C323 C 0.4955 0.74027 0.2463 0.0
H324 H 0.52347 0.69013 0.07773 0.0
H325 H 0.51388 0.69094 0.13977 0.0
H326 H 0.4766 0.79019 0.38131 0.0
H327 H 0.48651 0.79015 0.31896 0.0
C328 C 0.51754 0.26513 0.36735 0.0
C329 C 0.52633 0.23846 0.38318 0.0
C330 C 0.51267 0.26484 0.33202 0.0
C331 C 0.47993 0.21116 0.08856 0.0
C332 C 0.46904 0.23701 0.07458 0.0
C333 C 0.48618 0.21127 0.12344 0.0
H334 H 0.54125 0.19278 0.37485 0.0
H335 H 0.53311 0.19229 0.312 0.0
H336 H 0.45418 0.28269 0.08504 0.0
H337 H 0.46451 0.28253 0.14691 0.0
C338 C 0.53346 0.21298 0.36291 0.0
C339 C 0.52873 0.21276 0.32724 0.0
C340 C 0.4624 0.26224 0.09595 0.0
C341 C 0.46864 0.26237 0.13098 0.0
C342 C 0.51734 0.23826 0.31186 0.0
C343 C 0.50984 0.23736 0.2758 0.0
C344 C 0.50321 0.23785 0.24586 0.0
C345 C 0.48116 0.23711 0.14476 0.0
C346 C 0.48901 0.23762 0.18062 0.0
C347 C 0.49553 0.23816 0.2106 0.0
H348 H 0.51314 0.28559 0.38271 0.0
H349 H 0.50445 0.28502 0.3207 0.0
H350 H 0.48535 0.19195 0.07192 0.0
H351 H 0.49575 0.19156 0.13345 0.0
C352 C 0.45576 0.26054 0.85966 0.0
C353 C 0.46736 0.24109 0.88299 0.0
C354 C 0.46343 0.26126 0.82498 0.0
C355 C 0.5408 0.22369 0.59502 0.0
C356 C 0.52848 0.24321 0.57254 0.0
C357 C 0.53438 0.22316 0.63042 0.0
H358 H 0.49669 0.20892 0.88996 0.0
H359 H 0.50949 0.20903 0.82886 0.0
H360 H 0.49873 0.27626 0.56943 0.0
H361 H 0.48832 0.27551 0.63033 0.0
C362 C 0.48685 0.22285 0.87169 0.0
C363 C 0.49437 0.22334 0.83704 0.0
C364 C 0.50907 0.26118 0.5859 0.0
C365 C 0.50293 0.26086 0.62097 0.0
C366 C 0.48269 0.2425 0.81335 0.0
C367 C 0.49019 0.24263 0.77708 0.0
C368 C 0.49625 0.24299 0.7467 0.0
C369 C 0.51558 0.24202 0.64368 0.0
C370 C 0.50906 0.24213 0.68039 0.0
C371 C 0.50321 0.24271 0.71089 0.0
H372 H 0.44158 0.27613 0.86855 0.0
H373 H 0.45448 0.27665 0.80732 0.0
H374 H 0.55557 0.2094 0.58551 0.0
H375 H 0.54427 0.20826 0.64754 0.0
C376 C 0.52204 0.76277 0.86839 0.0
C377 C 0.53172 0.73582 0.88246 0.0
C378 C 0.5143 0.76275 0.83385 0.0
C379 C 0.47717 0.70728 0.59074 0.0
C380 C 0.4679 0.73348 0.57429 0.0
C381 C 0.48434 0.70874 0.62522 0.0
H382 H 0.53862 0.68706 0.87358 0.0
H383 H 0.5257 0.68713 0.81305 0.0
H384 H 0.46033 0.78243 0.58005 0.0
H385 H 0.47249 0.78495 0.64153 0.0
C386 C 0.53259 0.70857 0.86234 0.0
C387 C 0.52481 0.70849 0.828 0.0
C388 C 0.46646 0.76164 0.59269 0.0
C389 C 0.47374 0.76311 0.62755 0.0
C390 C 0.51579 0.73562 0.81325 0.0
C391 C 0.50852 0.73568 0.77695 0.0
C392 C 0.50241 0.73595 0.74668 0.0
C393 C 0.48259 0.73654 0.64415 0.0
C394 C 0.48953 0.73722 0.68062 0.0
C395 C 0.49552 0.7367 0.71094 0.0
H396 H 0.51976 0.78341 0.88435 0.0
H397 H 0.50696 0.78381 0.82332 0.0
H398 H 0.47902 0.68546 0.57672 0.0
H399 H 0.49122 0.68801 0.63711 0.0
C400 C 0.34534 0.27327 0.96077 0.0
C401 C 0.36033 0.25125 -0.02401 0.0
C402 C 0.32024 0.27006 0.96227 0.0
C403 C 0.15195 0.20618 -0.00603 0.0
C404 C 0.13822 0.22837 -0.02324 0.0
C405 C 0.1772 0.209 -0.0053 0.0
H406 H 0.36096 0.20879 0.00564 0.0
H407 H 0.31638 0.20301 0.00794 0.0
H408 H 0.13923 0.271 0.94788 0.0
H409 H 0.1836 0.27626 0.94967 0.0
C410 C 0.34975 0.22615 -0.00625 0.0
C411 C 0.32442 0.22276 -0.00507 0.0
C412 C 0.1497 0.25386 0.9614 0.0
C413 C 0.1749 0.25674 0.96225 0.0
C414 C 0.30969 0.24466 -0.02109 0.0
C415 C 0.28375 0.24133 -0.02088 0.0
C416 C 0.26197 0.23959 -0.02144 0.0
C417 C 0.18871 0.23411 -0.02154 0.0
C418 C 0.21468 0.23646 -0.02194 0.0
C419 C 0.23647 0.23792 -0.02193 0.0
H420 H 0.35307 0.293 0.94738 0.0
H421 H 0.30908 0.28727 0.95002 0.0
H422 H 0.14324 0.18621 0.00566 0.0
H423 H 0.18773 0.19136 0.00732 0.0
C424 C 0.64983 0.72741 0.00726 0.0
C425 C 0.6382 0.72832 -0.02498 0.0
C426 C 0.67517 0.72995 0.00868 0.0
C427 C 0.84602 0.75171 0.94473 0.0
C428 C 0.86011 0.75076 -0.02532 0.0
C429 C 0.82096 0.74873 0.94678 0.0
H430 H 0.64341 0.73391 0.91979 0.0
H431 H 0.68736 0.73869 0.92248 0.0
H432 H 0.85908 0.74513 0.03058 0.0
H433 H 0.81451 0.73994 0.03401 0.0
C434 C 0.65202 0.73278 0.9448 0.0
C435 C 0.67709 0.73553 0.94628 0.0
C436 C 0.84863 0.74601 0.00702 0.0
C437 C 0.8233 0.74314 0.00904 0.0
C438 C 0.68875 0.73383 -0.02194 0.0
C439 C 0.71468 0.73605 -0.02115 0.0
C440 C 0.73643 0.73797 -0.0212 0.0
C441 C 0.80951 0.74468 -0.02118 0.0
C442 C 0.78359 0.74218 -0.01991 0.0
C443 C 0.76185 0.74024 -0.02056 0.0
H444 H 0.63954 0.72384 0.03097 0.0
H445 H 0.68414 0.72864 0.03343 0.0
H446 H 0.85436 0.75491 0.91949 0.0
H447 H 0.81051 0.74979 0.92324 0.0
C448 C 0.14852 0.72571 0.46377 0.0
C449 C 0.13819 0.75124 0.48141 0.0
C450 C 0.17381 0.72236 0.46253 0.0
C451 C 0.34878 0.7544 0.49561 0.0
C452 C 0.36002 0.72845 0.48064 0.0
C453 C 0.32362 0.75719 0.49464 0.0
H454 H 0.14581 0.79386 0.50947 0.0
H455 H 0.18977 0.7882 0.50675 0.0
H456 H 0.3547 0.68549 0.4521 0.0
H457 H 0.31027 0.69047 0.45022 0.0
C458 C 0.15338 0.77379 0.49626 0.0
C459 C 0.17845 0.77061 0.4947 0.0
C460 C 0.34614 0.70576 0.46357 0.0
C461 C 0.32093 0.7085 0.4627 0.0
C462 C 0.18875 0.74475 0.47832 0.0
C463 C 0.21466 0.74142 0.47815 0.0
C464 C 0.23642 0.73963 0.47867 0.0
C465 C 0.30963 0.73404 0.47865 0.0
C466 C 0.28367 0.73631 0.479 0.0
C467 C 0.2619 0.73788 0.47908 0.0
H468 H 0.13714 0.70797 0.4521 0.0
H469 H 0.18167 0.70227 0.4497 0.0
H470 H 0.3594 0.77197 0.50895 0.0
H471 H 0.31507 0.77705 0.50698 0.0
C472 C 0.64945 0.24017 0.45141 0.0
C473 C 0.63837 0.2508 0.48239 0.0
C474 C 0.67474 0.23718 0.44942 0.0
C475 C 0.84701 0.23914 0.51078 0.0
C476 C 0.8601 0.2285 0.48182 0.0
C477 C 0.82196 0.24193 0.50955 0.0
H478 H 0.64494 0.26623 0.53514 0.0
H479 H 0.68866 0.26093 0.53142 0.0
H480 H 0.85774 0.21316 0.42818 0.0
H481 H 0.81315 0.21794 0.42615 0.0
C482 C 0.65289 0.25808 0.51096 0.0
C483 C 0.67791 0.25508 0.50894 0.0
C484 C 0.84791 0.22158 0.45083 0.0
C485 C 0.82259 0.22409 0.44974 0.0
C486 C 0.68893 0.24469 0.47828 0.0
C487 C 0.71482 0.2418 0.47699 0.0
C488 C 0.73654 0.23987 0.47747 0.0
C489 C 0.80964 0.23403 0.4793 0.0
C490 C 0.7837 0.2361 0.47893 0.0
C491 C 0.76196 0.23776 0.47839 0.0
H492 H 0.63871 0.2344 0.42889 0.0
H493 H 0.68319 0.22909 0.42553 0.0
H494 H 0.85619 0.2449 0.53468 0.0
H495 H 0.81219 0.24983 0.53246 0.0
loop_
_geom_bond_atom_site_label_1
_geom_bond_atom_site_label_2
_geom_bond_distance
_geom_bond_site_symmetry_2
_ccdc_geom_bond_type
Zn0 O3 2.031 1_554 S
Zn0 O5 2.049 . S
Zn0 O10 2.067 . S
Zn1 O2 1.962 1_554 S
Zn1 O4 1.986 . S
Zn1 O6 1.996 . S
Zn1 O9 1.943 . S
O2 Zn1 1.962 1_556 S
O2 C7 1.254 . S
O3 Zn0 2.031 1_556 S
O3 C7 1.269 . S
O4 Zn1 1.986 . S
O4 C11 1.262 . S
O5 Zn0 2.049 . S
O5 C13 1.260 . S
O6 Zn1 1.996 . S
O6 C13 1.257 . S
C7 O2 1.254 . S
C7 O3 1.269 . S
C8 O9 1.249 . S
C8 O10 1.270 . S
O9 Zn1 1.943 . S
O9 C8 1.249 . S
O10 Zn0 2.067 . S
O10 C8 1.270 . S
C11 O4 1.262 . S
C11 O12 1.232 1_554 S
O12 C11 1.232 1_556 S
C13 O5 1.260 . S
C13 O6 1.257 . S
Zn14 O17 2.031 1_554 S
Zn14 O19 2.049 . S
Zn14 O24 2.067 . S
Zn15 O16 1.962 1_554 S
Zn15 O18 1.986 . S
Zn15 O20 1.996 . S
Zn15 O23 1.943 . S
O16 Zn15 1.962 1_556 S
O16 C21 1.254 . S
O17 Zn14 2.031 1_556 S
O17 C21 1.269 . S
O18 Zn15 1.986 . S
O18 C25 1.262 . S
O19 Zn14 2.049 . S
O19 C27 1.260 . S
O20 Zn15 1.996 . S
O20 C27 1.257 . S
C21 O16 1.254 . S
C21 O17 1.269 . S
C22 O23 1.249 . S
C22 O24 1.270 . S
O23 Zn15 1.943 . S
O23 C22 1.249 . S
O24 Zn14 2.067 . S
O24 C22 1.270 . S
C25 O18 1.262 . S
C25 O26 1.232 1_554 S
O26 C25 1.232 1_556 S
C27 O19 1.260 . S
C27 O20 1.257 . S
Zn28 O31 2.031 . S
Zn28 O33 2.049 . S
Zn28 O38 2.067 . S
Zn29 O30 1.962 . S
Zn29 O32 1.986 . S
Zn29 O34 1.996 . S
Zn29 O37 1.943 . S
O30 Zn29 1.962 . S
O30 C35 1.254 . S
O31 Zn28 2.031 . S
O31 C35 1.269 . S
O32 Zn29 1.986 . S
O32 C39 1.262 . S
O33 Zn28 2.049 . S
O33 C41 1.260 . S
O34 Zn29 1.996 . S
O34 C41 1.257 . S
C35 O30 1.254 . S
C35 O31 1.269 . S
C36 O37 1.249 . S
C36 O38 1.270 . S
O37 Zn29 1.943 . S
O37 C36 1.249 . S
O38 Zn28 2.067 . S
O38 C36 1.270 . S
C39 O32 1.262 . S
C39 O40 1.232 . S
O40 C39 1.232 . S
C41 O33 1.260 . S
C41 O34 1.257 . S
Zn42 O45 2.031 . S
Zn42 O47 2.049 . S
Zn42 O52 2.067 . S
Zn43 O44 1.962 . S
Zn43 O46 1.986 . S
Zn43 O48 1.996 . S
Zn43 O51 1.943 . S
O44 Zn43 1.962 . S
O44 C49 1.254 . S
O45 Zn42 2.031 . S
O45 C49 1.269 . S
O46 Zn43 1.986 . S
O46 C53 1.262 . S
O47 Zn42 2.049 . S
O47 C55 1.260 . S
O48 Zn43 1.996 . S
O48 C55 1.257 . S
C49 O44 1.254 . S
C49 O45 1.269 . S
C50 O51 1.249 . S
C50 O52 1.270 . S
O51 Zn43 1.943 . S
O51 C50 1.249 . S
O52 Zn42 2.067 . S
O52 C50 1.270 . S
C53 O46 1.262 . S
C53 O54 1.232 . S
O54 C53 1.232 . S
C55 O47 1.260 . S
C55 O48 1.257 . S
Zn56 O59 2.031 1_554 S
Zn56 O61 2.049 . S
Zn56 O66 2.067 . S
Zn57 O58 1.962 1_554 S
Zn57 O60 1.986 . S
Zn57 O62 1.996 . S
Zn57 O65 1.943 . S
O58 Zn57 1.962 1_556 S
O58 C63 1.254 . S
O59 Zn56 2.031 1_556 S
O59 C63 1.269 . S
O60 Zn57 1.986 . S
O60 C67 1.262 . S
O61 Zn56 2.049 . S
O61 C69 1.260 . S
O62 Zn57 1.996 . S
O62 C69 1.257 . S
C63 O58 1.254 . S
C63 O59 1.269 . S
C64 O65 1.249 . S
C64 O66 1.270 . S
O65 Zn57 1.943 . S
O65 C64 1.249 . S
O66 Zn56 2.067 . S
O66 C64 1.270 . S
C67 O60 1.262 . S
C67 O68 1.232 1_554 S
O68 C67 1.232 1_556 S
C69 O61 1.260 . S
C69 O62 1.257 . S
Zn70 O73 2.031 1_554 S
Zn70 O75 2.049 . S
Zn70 O80 2.067 . S
Zn71 O72 1.962 1_554 S
Zn71 O74 1.986 . S
Zn71 O76 1.996 . S
Zn71 O79 1.943 . S
O72 Zn71 1.962 1_556 S
O72 C77 1.254 . S
O73 Zn70 2.031 1_556 S
O73 C77 1.269 . S
O74 Zn71 1.986 . S
O74 C81 1.262 . S
O75 Zn70 2.049 . S
O75 C83 1.260 . S
O76 Zn71 1.996 . S
O76 C83 1.257 . S
C77 O72 1.254 . S
C77 O73 1.269 . S
C78 O79 1.249 . S
C78 O80 1.270 . S
O79 Zn71 1.943 . S
O79 C78 1.249 . S
O80 Zn70 2.067 . S
O80 C78 1.270 . S
C81 O74 1.262 . S
C81 O82 1.232 1_554 S
O82 C81 1.232 1_556 S
C83 O75 1.260 . S
C83 O76 1.257 . S
Zn84 O87 2.031 . S
Zn84 O89 2.049 . S
Zn84 O94 2.067 . S
Zn85 O86 1.962 . S
Zn85 O88 1.986 . S
Zn85 O90 1.996 . S
Zn85 O93 1.943 . S
O86 Zn85 1.962 . S
O86 C91 1.254 . S
O87 Zn84 2.031 . S
O87 C91 1.269 . S
O88 Zn85 1.986 . S
O88 C95 1.262 . S
O89 Zn84 2.049 . S
O89 C97 1.260 . S
O90 Zn85 1.996 . S
O90 C97 1.257 . S
C91 O86 1.254 . S
C91 O87 1.269 . S
C92 O93 1.249 . S
C92 O94 1.270 . S
O93 Zn85 1.943 . S
O93 C92 1.249 . S
O94 Zn84 2.067 . S
O94 C92 1.270 . S
C95 O88 1.262 . S
C95 O96 1.232 . S
O96 C95 1.232 . S
C97 O89 1.260 . S
C97 O90 1.257 . S
Zn98 O101 2.031 . S
Zn98 O103 2.049 . S
Zn98 O108 2.067 . S
Zn99 O100 1.962 . S
Zn99 O102 1.986 . S
Zn99 O104 1.996 . S
Zn99 O107 1.943 . S
O100 Zn99 1.962 . S
O100 C105 1.254 . S
O101 Zn98 2.031 . S
O101 C105 1.269 . S
O102 Zn99 1.986 . S
O102 C109 1.262 . S
O103 Zn98 2.049 . S
O103 C111 1.260 . S
O104 Zn99 1.996 . S
O104 C111 1.257 . S
C105 O100 1.254 . S
C105 O101 1.269 . S
C106 O107 1.249 . S
C106 O108 1.270 . S
O107 Zn99 1.943 . S
O107 C106 1.249 . S
O108 Zn98 2.067 . S
O108 C106 1.270 . S
C109 O102 1.262 . S
C109 O110 1.232 . S
O110 C109 1.232 . S
C111 O103 1.260 . S
C111 O104 1.257 . S
C112 C113 1.332 . S
C112 C114 1.345 . S
C112 H132 0.932 . S
C113 C112 1.332 . S
C113 C122 1.332 1_554 S
C114 C112 1.345 . S
C114 C126 1.334 . S
C114 H133 0.928 . S
C115 C116 1.332 1_556 S
C115 C117 1.345 . S
C115 H134 0.932 . S
C116 C115 1.332 1_554 S
C116 C124 1.332 . S
C117 C115 1.345 . S
C117 C129 1.334 1_556 S
C117 H135 0.928 . S
H118 C122 0.932 . S
H119 C123 0.928 . S
H120 C124 0.932 . S
H121 C125 0.928 . S
C122 C113 1.332 1_556 S
C122 H118 0.932 . S
C122 C123 1.345 . S
C123 H119 0.928 . S
C123 C122 1.345 . S
C123 C126 1.334 1_556 S
C124 C116 1.332 . S
C124 H120 0.932 . S
C124 C125 1.345 . S
C125 H121 0.928 . S
C125 C124 1.345 . S
C125 C129 1.334 . S
C126 C114 1.334 . S
C126 C123 1.334 1_554 S
C126 C127 1.487 . S
C127 C126 1.487 . S
C127 C128 1.185 . S
C128 C127 1.185 . S
C128 C131 1.482 1_665 S
C129 C117 1.334 1_554 S
C129 C125 1.334 . S
C129 C130 1.487 . S
C130 C129 1.487 . S
C130 C131 1.185 . S
C131 C128 1.482 1_445 S
C131 C130 1.185 . S
H132 C112 0.932 . S
H133 C114 0.928 . S
H134 C115 0.932 . S
H135 C117 0.928 . S
C136 C137 1.332 . S
C136 C138 1.345 . S
C136 H156 0.932 . S
C137 C136 1.332 . S
C137 C146 1.332 . S
C138 C136 1.345 . S
C138 C150 1.334 . S
C138 H157 0.928 . S
C139 C140 1.332 . S
C139 C141 1.345 . S
C139 H158 0.932 . S
C140 C139 1.332 . S
C140 C148 1.332 . S
C141 C139 1.345 . S
C141 C153 1.334 . S
C141 H159 0.928 . S
H142 C146 0.932 . S
H143 C147 0.928 1_655 S
H144 C148 0.932 . S
H145 C149 0.928 1_455 S
C146 C137 1.332 . S
C146 H142 0.932 . S
C146 C147 1.345 . S
C147 H143 0.928 1_455 S
C147 C146 1.345 . S
C147 C150 1.334 . S
C148 C140 1.332 . S
C148 H144 0.932 . S
C148 C149 1.345 . S
C149 H145 0.928 1_655 S
C149 C148 1.345 . S
C149 C153 1.334 . S
C150 C138 1.334 . S
C150 C147 1.334 . S
C150 C151 1.487 . S
C151 C150 1.487 . S
C151 C152 1.185 . S
C152 C151 1.185 . S
C152 C155 1.482 1_465 S
C153 C141 1.334 . S
C153 C149 1.334 . S
C153 C154 1.487 . S
C154 C153 1.487 . S
C154 C155 1.185 . S
C155 C152 1.482 1_645 S
C155 C154 1.185 . S
H156 C136 0.932 . S
H157 C138 0.928 . S
H158 C139 0.932 . S
H159 C141 0.928 . S
C160 C161 1.332 . S
C160 C162 1.345 . S
C160 H180 0.932 . S
C161 C160 1.332 . S
C161 C170 1.332 1_554 S
C162 C160 1.345 . S
C162 C174 1.334 . S
C162 H181 0.928 . S
C163 C164 1.332 1_556 S
C163 C165 1.345 . S
C163 H182 0.932 . S
C164 C163 1.332 1_554 S
C164 C172 1.332 . S
C165 C163 1.345 . S
C165 C177 1.334 1_556 S
C165 H183 0.928 . S
H166 C170 0.932 . S
H167 C171 0.928 . S
H168 C172 0.932 . S
H169 C173 0.928 . S
C170 C161 1.332 1_556 S
C170 H166 0.932 . S
C170 C171 1.345 . S
C171 H167 0.928 . S
C171 C170 1.345 . S
C171 C174 1.334 1_556 S
C172 C164 1.332 . S
C172 H168 0.932 . S
C172 C173 1.345 . S
C173 H169 0.928 . S
C173 C172 1.345 . S
C173 C177 1.334 . S
C174 C162 1.334 . S
C174 C171 1.334 1_554 S
C174 C175 1.487 . S
C175 C174 1.487 . S
C175 C176 1.185 . S
C176 C175 1.185 . S
C176 C179 1.482 . S
C177 C165 1.334 1_554 S
C177 C173 1.334 . S
C177 C178 1.487 . S
C178 C177 1.487 . S
C178 C179 1.185 . S
C179 C176 1.482 . S
C179 C178 1.185 . S
H180 C160 0.932 . S
H181 C162 0.928 . S
H182 C163 0.932 . S
H183 C165 0.928 . S
C184 C185 1.332 . S
C184 C186 1.345 . S
C184 H204 0.932 . S
C185 C184 1.332 . S
C185 C194 1.332 . S
C186 C184 1.345 . S
C186 C198 1.334 . S
C186 H205 0.928 . S
C187 C188 1.332 . S
C187 C189 1.345 . S
C187 H206 0.932 . S
C188 C187 1.332 . S
C188 C196 1.332 . S
C189 C187 1.345 . S
C189 C201 1.334 . S
C189 H207 0.928 . S
H190 C194 0.932 . S
H191 C195 0.928 . S
H192 C196 0.932 . S
H193 C197 0.928 . S
C194 C185 1.332 . S
C194 H190 0.932 . S
C194 C195 1.345 . S
C195 H191 0.928 . S
C195 C194 1.345 . S
C195 C198 1.334 . S
C196 C188 1.332 . S
C196 H192 0.932 . S
C196 C197 1.345 . S
C197 H193 0.928 . S
C197 C196 1.345 . S
C197 C201 1.334 . S
C198 C186 1.334 . S
C198 C195 1.334 . S
C198 C199 1.487 . S
C199 C198 1.487 . S
C199 C200 1.185 . S
C200 C199 1.185 . S
C200 C203 1.482 . S
C201 C189 1.334 . S
C201 C197 1.334 . S
C201 C202 1.487 . S
C202 C201 1.487 . S
C202 C203 1.185 . S
C203 C200 1.482 . S
C203 C202 1.185 . S
H204 C184 0.932 . S
H205 C186 0.928 . S
H206 C187 0.932 . S
H207 C189 0.928 . S
C208 C209 1.332 . S
C208 C210 1.345 . S
C208 H228 0.932 . S
C209 C208 1.332 . S
C209 C218 1.332 . S
C210 C208 1.345 . S
C210 C222 1.334 . S
C210 H229 0.928 . S
C211 C212 1.332 . S
C211 C213 1.345 . S
C211 H230 0.932 . S
C212 C211 1.332 . S
C212 C220 1.332 . S
C213 C211 1.345 . S
C213 C225 1.334 . S
C213 H231 0.928 . S
H214 C218 0.932 . S
H215 C219 0.928 . S
H216 C220 0.932 . S
H217 C221 0.928 . S
C218 C209 1.332 . S
C218 H214 0.932 . S
C218 C219 1.345 . S
C219 H215 0.928 . S
C219 C218 1.345 . S
C219 C222 1.334 . S
C220 C212 1.332 . S
C220 H216 0.932 . S
C220 C221 1.345 . S
C221 H217 0.928 . S
C221 C220 1.345 . S
C221 C225 1.334 . S
C222 C210 1.334 . S
C222 C219 1.334 . S
C222 C223 1.487 . S
C223 C222 1.487 . S
C223 C224 1.185 . S
C224 C223 1.185 . S
C224 C227 1.482 1_455 S
C225 C213 1.334 . S
C225 C221 1.334 . S
C225 C226 1.487 . S
C226 C225 1.487 . S
C226 C227 1.185 . S
C227 C224 1.482 1_655 S
C227 C226 1.185 . S
H228 C208 0.932 . S
H229 C210 0.928 . S
H230 C211 0.932 . S
H231 C213 0.928 . S
C232 C233 1.332 . S
C232 C234 1.345 . S
C232 H252 0.932 . S
C233 C232 1.332 . S
C233 C242 1.332 . S
C234 C232 1.345 . S
C234 C246 1.334 . S
C234 H253 0.928 . S
C235 C236 1.332 . S
C235 C237 1.345 . S
C235 H254 0.932 . S
C236 C235 1.332 . S
C236 C244 1.332 . S
C237 C235 1.345 . S
C237 C249 1.334 . S
C237 H255 0.928 . S
H238 C242 0.932 1_655 S
H239 C243 0.928 1_655 S
H240 C244 0.932 1_455 S
H241 C245 0.928 1_455 S
C242 C233 1.332 . S
C242 H238 0.932 1_455 S
C242 C243 1.345 . S
C243 H239 0.928 1_455 S
C243 C242 1.345 . S
C243 C246 1.334 . S
C244 C236 1.332 . S
C244 H240 0.932 1_655 S
C244 C245 1.345 . S
C245 H241 0.928 1_655 S
C245 C244 1.345 . S
C245 C249 1.334 . S
C246 C234 1.334 . S
C246 C243 1.334 . S
C246 C247 1.487 . S
C247 C246 1.487 . S
C247 C248 1.185 . S
C248 C247 1.185 . S
C248 C251 1.482 1_455 S
C249 C237 1.334 . S
C249 C245 1.334 . S
C249 C250 1.487 . S
C250 C249 1.487 . S
C250 C251 1.185 . S
C251 C248 1.482 1_655 S
C251 C250 1.185 . S
H252 C232 0.932 . S
H253 C234 0.928 . S
H254 C235 0.932 . S
H255 C237 0.928 . S
C256 C257 1.332 . S
C256 C258 1.345 . S
C256 H276 0.932 . S
C257 C256 1.332 . S
C257 C266 1.332 . S
C258 C256 1.345 . S
C258 C270 1.334 . S
C258 H277 0.928 . S
C259 C260 1.332 . S
C259 C261 1.345 . S
C259 H278 0.932 . S
C260 C259 1.332 . S
C260 C268 1.332 . S
C261 C259 1.345 . S
C261 C273 1.334 . S
C261 H279 0.928 . S
H262 C266 0.932 . S
H263 C267 0.928 . S
H264 C268 0.932 . S
H265 C269 0.928 . S
C266 C257 1.332 . S
C266 H262 0.932 . S
C266 C267 1.345 . S
C267 H263 0.928 . S
C267 C266 1.345 . S
C267 C270 1.334 . S
C268 C260 1.332 . S
C268 H264 0.932 . S
C268 C269 1.345 . S
C269 H265 0.928 . S
C269 C268 1.345 . S
C269 C273 1.334 . S
C270 C258 1.334 . S
C270 C267 1.334 . S
C270 C271 1.487 . S
C271 C270 1.487 . S
C271 C272 1.185 . S
C272 C271 1.185 . S
C272 C275 1.482 1_455 S
C273 C261 1.334 . S
C273 C269 1.334 . S
C273 C274 1.487 . S
C274 C273 1.487 . S
C274 C275 1.185 . S
C275 C272 1.482 1_655 S
C275 C274 1.185 . S
H276 C256 0.932 . S
H277 C258 0.928 . S
H278 C259 0.932 . S
H279 C261 0.928 . S
C280 C281 1.332 . S
C280 C282 1.345 . S
C280 H300 0.932 . S
C281 C280 1.332 . S
C281 C290 1.332 . S
C282 C280 1.345 . S
C282 C294 1.334 . S
C282 H301 0.928 . S
C283 C284 1.332 . S
C283 C285 1.345 . S
C283 H302 0.932 . S
C284 C283 1.332 . S
C284 C292 1.332 . S
C285 C283 1.345 . S
C285 C297 1.334 . S
C285 H303 0.928 . S
H286 C290 0.932 . S
H287 C291 0.928 . S
H288 C292 0.932 . S
H289 C293 0.928 . S
C290 C281 1.332 . S
C290 H286 0.932 . S
C290 C291 1.345 . S
C291 H287 0.928 . S
C291 C290 1.345 . S
C291 C294 1.334 . S
C292 C284 1.332 . S
C292 H288 0.932 . S
C292 C293 1.345 . S
C293 H289 0.928 . S
C293 C292 1.345 . S
C293 C297 1.334 . S
C294 C282 1.334 . S
C294 C291 1.334 . S
C294 C295 1.487 . S
C295 C294 1.487 . S
C295 C296 1.185 . S
C296 C295 1.185 . S
C296 C299 1.482 1_455 S
C297 C285 1.334 . S
C297 C293 1.334 . S
C297 C298 1.487 . S
C298 C297 1.487 . S
C298 C299 1.185 . S
C299 C296 1.482 1_655 S
C299 C298 1.185 . S
H300 C280 0.932 . S
H301 C282 0.928 . S
H302 C283 0.932 . S
H303 C285 0.928 . S
C304 C305 1.332 . S
C304 C306 1.345 . S
C304 H324 0.932 . S
C305 C304 1.332 . S
C305 C314 1.332 . S
C306 C304 1.345 . S
C306 C318 1.334 . S
C306 H325 0.928 . S
C307 C308 1.332 . S
C307 C309 1.345 . S
C307 H326 0.932 . S
C308 C307 1.332 . S
C308 C316 1.332 . S
C309 C307 1.345 . S
C309 C321 1.334 . S
C309 H327 0.928 . S
H310 C314 0.932 . S
H311 C315 0.928 . S
H312 C316 0.932 . S
H313 C317 0.928 . S
C314 C305 1.332 . S
C314 H310 0.932 . S
C314 C315 1.345 . S
C315 H311 0.928 . S
C315 C314 1.345 . S
C315 C318 1.334 . S
C316 C308 1.332 . S
C316 H312 0.932 . S
C316 C317 1.345 . S
C317 H313 0.928 . S
C317 C316 1.345 . S
C317 C321 1.334 . S
C318 C306 1.334 . S
C318 C315 1.334 . S
C318 C319 1.487 . S
C319 C318 1.487 . S
C319 C320 1.185 . S
C320 C319 1.185 . S
C320 C323 1.482 . S
C321 C309 1.334 . S
C321 C317 1.334 . S
C321 C322 1.487 . S
C322 C321 1.487 . S
C322 C323 1.185 . S
C323 C320 1.482 . S
C323 C322 1.185 . S
H324 C304 0.932 . S
H325 C306 0.928 . S
H326 C307 0.932 . S
H327 C309 0.928 . S
C328 C329 1.332 . S
C328 C330 1.345 . S
C328 H348 0.932 . S
C329 C328 1.332 . S
C329 C338 1.332 . S
C330 C328 1.345 . S
C330 C342 1.334 . S
C330 H349 0.928 . S
C331 C332 1.332 . S
C331 C333 1.345 . S
C331 H350 0.932 . S
C332 C331 1.332 . S
C332 C340 1.332 . S
C333 C331 1.345 . S
C333 C345 1.334 . S
C333 H351 0.928 . S
H334 C338 0.932 . S
H335 C339 0.928 . S
H336 C340 0.932 . S
H337 C341 0.928 . S
C338 C329 1.332 . S
C338 H334 0.932 . S
C338 C339 1.345 . S
C339 H335 0.928 . S
C339 C338 1.345 . S
C339 C342 1.334 . S
C340 C332 1.332 . S
C340 H336 0.932 . S
C340 C341 1.345 . S
C341 H337 0.928 . S
C341 C340 1.345 . S
C341 C345 1.334 . S
C342 C330 1.334 . S
C342 C339 1.334 . S
C342 C343 1.487 . S
C343 C342 1.487 . S
C343 C344 1.185 . S
C344 C343 1.185 . S
C344 C347 1.482 . S
C345 C333 1.334 . S
C345 C341 1.334 . S
C345 C346 1.487 . S
C346 C345 1.487 . S
C346 C347 1.185 . S
C347 C344 1.482 . S
C347 C346 1.185 . S
H348 C328 0.932 . S
H349 C330 0.928 . S
H350 C331 0.932 . S
H351 C333 0.928 . S
C352 C353 1.332 . S
C352 C354 1.345 . S
C352 H372 0.932 . S
C353 C352 1.332 . S
C353 C362 1.332 . S
C354 C352 1.345 . S
C354 C366 1.334 . S
C354 H373 0.928 . S
C355 C356 1.332 . S
C355 C357 1.345 . S
C355 H374 0.932 . S
C356 C355 1.332 . S
C356 C364 1.332 . S
C357 C355 1.345 . S
C357 C369 1.334 . S
C357 H375 0.928 . S
H358 C362 0.932 . S
H359 C363 0.928 . S
H360 C364 0.932 . S
H361 C365 0.928 . S
C362 C353 1.332 . S
C362 H358 0.932 . S
C362 C363 1.345 . S
C363 H359 0.928 . S
C363 C362 1.345 . S
C363 C366 1.334 . S
C364 C356 1.332 . S
C364 H360 0.932 . S
C364 C365 1.345 . S
C365 H361 0.928 . S
C365 C364 1.345 . S
C365 C369 1.334 . S
C366 C354 1.334 . S
C366 C363 1.334 . S
C366 C367 1.487 . S
C367 C366 1.487 . S
C367 C368 1.185 . S
C368 C367 1.185 . S
C368 C371 1.482 . S
C369 C357 1.334 . S
C369 C365 1.334 . S
C369 C370 1.487 . S
C370 C369 1.487 . S
C370 C371 1.185 . S
C371 C368 1.482 . S
C371 C370 1.185 . S
H372 C352 0.932 . S
H373 C354 0.928 . S
H374 C355 0.932 . S
H375 C357 0.928 . S
C376 C377 1.332 . S
C376 C378 1.345 . S
C376 H396 0.932 . S
C377 C376 1.332 . S
C377 C386 1.332 . S
C378 C376 1.345 . S
C378 C390 1.334 . S
C378 H397 0.928 . S
C379 C380 1.332 . S
C379 C381 1.345 . S
C379 H398 0.932 . S
C380 C379 1.332 . S
C380 C388 1.332 . S
C381 C379 1.345 . S
C381 C393 1.334 . S
C381 H399 0.928 . S
H382 C386 0.932 . S
H383 C387 0.928 . S
H384 C388 0.932 . S
H385 C389 0.928 . S
C386 C377 1.332 . S
C386 H382 0.932 . S
C386 C387 1.345 . S
C387 H383 0.928 . S
C387 C386 1.345 . S
C387 C390 1.334 . S
C388 C380 1.332 . S
C388 H384 0.932 . S
C388 C389 1.345 . S
C389 H385 0.928 . S
C389 C388 1.345 . S
C389 C393 1.334 . S
C390 C378 1.334 . S
C390 C387 1.334 . S
C390 C391 1.487 . S
C391 C390 1.487 . S
C391 C392 1.185 . S
C392 C391 1.185 . S
C392 C395 1.482 . S
C393 C381 1.334 . S
C393 C389 1.334 . S
C393 C394 1.487 . S
C394 C393 1.487 . S
C394 C395 1.185 . S
C395 C392 1.482 . S
C395 C394 1.185 . S
H396 C376 0.932 . S
H397 C378 0.928 . S
H398 C379 0.932 . S
H399 C381 0.928 . S
C400 C401 1.332 1_556 S
C400 C402 1.345 . S
C400 H420 0.932 . S
C401 C400 1.332 1_554 S
C401 C410 1.332 . S
C402 C400 1.345 . S
C402 C414 1.334 1_556 S
C402 H421 0.928 . S
C403 C404 1.332 . S
C403 C405 1.345 . S
C403 H422 0.932 . S
C404 C403 1.332 . S
C404 C412 1.332 1_554 S
C405 C403 1.345 . S
C405 C417 1.334 . S
C405 H423 0.928 . S
H406 C410 0.932 . S
H407 C411 0.928 . S
H408 C412 0.932 . S
H409 C413 0.928 . S
C410 C401 1.332 . S
C410 H406 0.932 . S
C410 C411 1.345 . S
C411 H407 0.928 . S
C411 C410 1.345 . S
C411 C414 1.334 . S
C412 C404 1.332 1_556 S
C412 H408 0.932 . S
C412 C413 1.345 . S
C413 H409 0.928 . S
C413 C412 1.345 . S
C413 C417 1.334 1_556 S
C414 C402 1.334 1_554 S
C414 C411 1.334 . S
C414 C415 1.487 . S
C415 C414 1.487 . S
C415 C416 1.185 . S
C416 C415 1.185 . S
C416 C419 1.482 . S
C417 C405 1.334 . S
C417 C413 1.334 1_554 S
C417 C418 1.487 . S
C418 C417 1.487 . S
C418 C419 1.185 . S
C419 C416 1.482 . S
C419 C418 1.185 . S
H420 C400 0.932 . S
H421 C402 0.928 . S
H422 C403 0.932 . S
H423 C405 0.928 . S
C424 C425 1.332 . S
C424 C426 1.345 . S
C424 H444 0.932 . S
C425 C424 1.332 . S
C425 C434 1.332 1_554 S
C426 C424 1.345 . S
C426 C438 1.334 . S
C426 H445 0.928 . S
C427 C428 1.332 1_556 S
C427 C429 1.345 . S
C427 H446 0.932 . S
C428 C427 1.332 1_554 S
C428 C436 1.332 . S
C429 C427 1.345 . S
C429 C441 1.334 1_556 S
C429 H447 0.928 . S
H430 C434 0.932 . S
H431 C435 0.928 . S
H432 C436 0.932 . S
H433 C437 0.928 . S
C434 C425 1.332 1_556 S
C434 H430 0.932 . S
C434 C435 1.345 . S
C435 H431 0.928 . S
C435 C434 1.345 . S
C435 C438 1.334 1_556 S
C436 C428 1.332 . S
C436 H432 0.932 . S
C436 C437 1.345 . S
C437 H433 0.928 . S
C437 C436 1.345 . S
C437 C441 1.334 . S
C438 C426 1.334 . S
C438 C435 1.334 1_554 S
C438 C439 1.487 . S
C439 C438 1.487 . S
C439 C440 1.185 . S
C440 C439 1.185 . S
C440 C443 1.482 . S
C441 C429 1.334 1_554 S
C441 C437 1.334 . S
C441 C442 1.487 . S
C442 C441 1.487 . S
C442 C443 1.185 . S
C443 C440 1.482 . S
C443 C442 1.185 . S
H444 C424 0.932 . S
H445 C426 0.928 . S
H446 C427 0.932 . S
H447 C429 0.928 . S
C448 C449 1.332 . S
C448 C450 1.345 . S
C448 H468 0.932 . S
C449 C448 1.332 . S
C449 C458 1.332 . S
C450 C448 1.345 . S
C450 C462 1.334 . S
C450 H469 0.928 . S
C451 C452 1.332 . S
C451 C453 1.345 . S
C451 H470 0.932 . S
C452 C451 1.332 . S
C452 C460 1.332 . S
C453 C451 1.345 . S
C453 C465 1.334 . S
C453 H471 0.928 . S
H454 C458 0.932 . S
H455 C459 0.928 . S
H456 C460 0.932 . S
H457 C461 0.928 . S
C458 C449 1.332 . S
C458 H454 0.932 . S
C458 C459 1.345 . S
C459 H455 0.928 . S
C459 C458 1.345 . S
C459 C462 1.334 . S
C460 C452 1.332 . S
C460 H456 0.932 . S
C460 C461 1.345 . S
C461 H457 0.928 . S
C461 C460 1.345 . S
C461 C465 1.334 . S
C462 C450 1.334 . S
C462 C459 1.334 . S
C462 C463 1.487 . S
C463 C462 1.487 . S
C463 C464 1.185 . S
C464 C463 1.185 . S
C464 C467 1.482 . S
C465 C453 1.334 . S
C465 C461 1.334 . S
C465 C466 1.487 . S
C466 C465 1.487 . S
C466 C467 1.185 . S
C467 C464 1.482 . S
C467 C466 1.185 . S
H468 C448 0.932 . S
H469 C450 0.928 . S
H470 C451 0.932 . S
H471 C453 0.928 . S
C472 C473 1.332 . S
C472 C474 1.345 . S
C472 H492 0.932 . S
C473 C472 1.332 . S
C473 C482 1.332 . S
C474 C472 1.345 . S
C474 C486 1.334 . S
C474 H493 0.928 . S
C475 C476 1.332 . S
C475 C477 1.345 . S
C475 H494 0.932 . S
C476 C475 1.332 . S
C476 C484 1.332 . S
C477 C475 1.345 . S
C477 C489 1.334 . S
C477 H495 0.928 . S
H478 C482 0.932 . S
H479 C483 0.928 . S
H480 C484 0.932 . S
H481 C485 0.928 . S
C482 C473 1.332 . S
C482 H478 0.932 . S
C482 C483 1.345 . S
C483 H479 0.928 . S
C483 C482 1.345 . S
C483 C486 1.334 . S
C484 C476 1.332 . S
C484 H480 0.932 . S
C484 C485 1.345 . S
C485 H481 0.928 . S
C485 C484 1.345 . S
C485 C489 1.334 . S
C486 C474 1.334 . S
C486 C483 1.334 . S
C486 C487 1.487 . S
C487 C486 1.487 . S
C487 C488 1.185 . S
C488 C487 1.185 . S
C488 C491 1.482 . S
C489 C477 1.334 . S
C489 C485 1.334 . S
C489 C490 1.487 . S
C490 C489 1.487 . S
C490 C491 1.185 . S
C491 C488 1.482 . S
C491 C490 1.185 . S
H492 C472 0.932 . S
H493 C474 0.928 . S
H494 C475 0.932 . S
H495 C477 0.928 . S
C113 C22 1.459 . S
C116 C8 1.459 . S
C137 C36 1.458 . S
C140 C50 1.458 . S
C161 C64 1.459 . S
C164 C78 1.459 . S
C185 C92 1.458 . S
C188 C106 1.458 . S
C209 C13 1.056 . S
C212 C55 1.056 . S
C233 C41 1.056 . S
C236 C27 1.056 . S
C257 C35 1.037 . S
C260 C21 1.037 . S
C281 C7 1.037 . S
C284 C49 1.037 . S
C305 C69 1.056 . S
C308 C111 1.056 . S
C329 C97 1.056 . S
C332 C83 1.056 . S
C353 C77 1.037 . S
C356 C91 1.037 . S
C377 C63 1.037 . S
C380 C105 1.037 . S
C401 C81 1.563 . S
C404 C11 1.563 . S
C425 C67 1.563 . S
C428 C25 1.563 . S
C449 C39 1.563 . S
C452 C109 1.563 . S
C473 C95 1.563 . S
C476 C53 1.563 . S
