# Generated by pormake.
# Topology sml, (6)-cn, num edge types: 1
# Building blocks:
#     Node 0, Type 0, BuildingBlock: BETFAJ_clean_sbu_0, # of connection points: 6
#     Node 1, Type 0, BuildingBlock: BETFAJ_clean_sbu_0, # of connection points: 6
#     Node 2, Type 0, BuildingBlock: BETFAJ_clean_sbu_0, # of connection points: 6
#     Node 3, Type 0, BuildingBlock: BETFAJ_clean_sbu_0, # of connection points: 6
#     Node 4, Type 0, BuildingBlock: BETFAJ_clean_sbu_0, # of connection points: 6
#     Node 5, Type 0, BuildingBlock: BETFAJ_clean_sbu_0, # of connection points: 6
#     Edge 6, Type (0, 0), BuildingBlock: MIFKUJ_clean_linker_0, # of connection points: 2
#     Edge 7, Type (0, 0), BuildingBlock: MIFKUJ_clean_linker_0, # of connection points: 2
#     Edge 8, Type (0, 0), BuildingBlock: MIFKUJ_clean_linker_0, # of connection points: 2
#     Edge 9, Type (0, 0), BuildingBlock: MIFKUJ_clean_linker_0, # of connection points: 2
#     Edge 10, Type (0, 0), BuildingBlock: MIFKUJ_clean_linker_0, # of connection points: 2
#     Edge 11, Type (0, 0), BuildingBlock: MIFKUJ_clean_linker_0, # of connection points: 2
#     Edge 12, Type (0, 0), BuildingBlock: MIFKUJ_clean_linker_0, # of connection points: 2
#     Edge 13, Type (0, 0), BuildingBlock: MIFKUJ_clean_linker_0, # of connection points: 2
#     Edge 14, Type (0, 0), BuildingBlock: MIFKUJ_clean_linker_0, # of connection points: 2
#     Edge 15, Type (0, 0), BuildingBlock: MIFKUJ_clean_linker_0, # of connection points: 2
#     Edge 16, Type (0, 0), BuildingBlock: MIFKUJ_clean_linker_0, # of connection points: 2
#     Edge 17, Type (0, 0), BuildingBlock: MIFKUJ_clean_linker_0, # of connection points: 2
#     Edge 18, Type (0, 0), BuildingBlock: MIFKUJ_clean_linker_0, # of connection points: 2
#     Edge 19, Type (0, 0), BuildingBlock: MIFKUJ_clean_linker_0, # of connection points: 2
#     Edge 20, Type (0, 0), BuildingBlock: MIFKUJ_clean_linker_0, # of connection points: 2
#     Edge 21, Type (0, 0), BuildingBlock: MIFKUJ_clean_linker_0, # of connection points: 2
#     Edge 22, Type (0, 0), BuildingBlock: MIFKUJ_clean_linker_0, # of connection points: 2
#     Edge 23, Type (0, 0), BuildingBlock: MIFKUJ_clean_linker_0, # of connection points: 2
# Relax obj value: 0.153
# Max RMSD: 0.197
# Mean RMSD: 0.197
data_MOF--net-sml--node1-BETFAJ_clean_sbu_0--edge1-MIFKUJ_clean_linker_0
_symmetry_space_group_name_H-M    P1
_symmetry_Int_Tables_number       1
_symmetry_cell_setting            triclinic
loop_
_symmetry_equiv_pos_as_xyz
'x, y, z'
_cell_length_a     43.49456
_cell_length_b     43.531849
_cell_length_c     29.88606
_cell_angle_alpha  90.003289
_cell_angle_beta   89.985515
_cell_angle_gamma 120.05044
loop_
_atom_site_label
_atom_site_type_symbol
_atom_site_fract_x
_atom_site_fract_y
_atom_site_fract_z
_atom_type_partial_charge
Sm0 Sm 0.21773 0.44883 0.10798 0.0
Sm1 Sm 0.22662 0.41143 0.19232 0.0
C2 C 0.22418 0.47936 0.02909 0.0
C3 C 0.22465 0.47132 0.98104 0.0
C4 C 0.24814 0.46089 0.96379 0.0
C5 C 0.2481 0.45384 0.918 0.0
C6 C 0.22453 0.45696 0.88853 0.0
C7 C 0.2009 0.46709 0.90617 0.0
C8 C 0.20107 0.47428 0.95178 0.0
C9 C 0.156 0.39636 0.14482 0.0
C10 C 0.23336 0.382 0.0971 0.0
C11 C 0.22076 0.38026 0.27065 0.0
C12 C 0.21924 0.38639 0.31909 0.0
C13 C 0.19488 0.39544 0.33692 0.0
C14 C 0.19318 0.39962 0.3832 0.0
C15 C 0.21582 0.39492 0.4126 0.0
C16 C 0.24048 0.38641 0.39438 0.0
C17 C 0.24206 0.38209 0.34824 0.0
C18 C 0.28798 0.46503 0.15563 0.0
C19 C 0.21156 0.47895 0.20317 0.0
O20 O 0.25139 0.48471 0.05359 0.0
O21 O 0.1938 0.46112 0.04987 0.0
O22 O 0.18421 0.39519 0.14021 0.0
O23 O 0.15897 0.42485 0.12677 0.0
O24 O 0.23632 0.41147 0.08037 0.0
O25 O 0.22403 0.37234 0.13908 0.0
O26 O 0.19348 0.3746 0.24614 0.0
O27 O 0.2512 0.39991 0.25052 0.0
O28 O 0.25943 0.46527 0.16098 0.0
O29 O 0.28557 0.43617 0.17173 0.0
O30 O 0.20918 0.44988 0.22073 0.0
O31 O 0.21998 0.48771 0.16075 0.0
H32 H 0.26663 0.4583 0.98556 0.0
H33 H 0.26691 0.44646 0.90561 0.0
H34 H 0.1819 0.46914 0.8848 0.0
H35 H 0.18263 0.48214 0.96428 0.0
H36 H 0.17694 0.39897 0.31523 0.0
H37 H 0.17365 0.40588 0.39598 0.0
H38 H 0.25883 0.38328 0.41575 0.0
H39 H 0.26109 0.37519 0.33529 0.0
Sm40 Sm 0.79881 0.21745 0.4749 0.0
Sm41 Sm 0.78377 0.17819 0.38353 0.0
C42 C 0.79988 0.24993 0.5504 0.0
C43 C 0.79399 0.24137 0.59841 0.0
C44 C 0.77044 0.20676 0.61331 0.0
C45 C 0.76646 0.19902 0.65916 0.0
C46 C 0.78614 0.2257 0.6909 0.0
C47 C 0.80962 0.26032 0.67556 0.0
C48 C 0.81342 0.26803 0.62983 0.0
C49 C 0.85738 0.22528 0.42967 0.0
C50 C 0.78526 0.13794 0.47664 0.0
C51 C 0.78406 0.14686 0.30765 0.0
C52 C 0.78448 0.15389 0.25937 0.0
C53 C 0.79978 0.14049 0.22961 0.0
C54 C 0.79971 0.14622 0.18356 0.0
C55 C 0.78418 0.1654 0.16631 0.0
C56 C 0.76925 0.17918 0.19648 0.0
C57 C 0.76953 0.1736 0.24256 0.0
C58 C 0.72573 0.17327 0.42572 0.0
C59 C 0.79329 0.25666 0.38306 0.0
O60 O 0.77211 0.2346 0.52411 0.0
O61 O 0.82808 0.25115 0.53312 0.0
O62 O 0.83113 0.22557 0.41266 0.0
O63 O 0.85437 0.22237 0.4729 0.0
O64 O 0.78223 0.16207 0.49979 0.0
O65 O 0.79092 0.14091 0.43286 0.0
O66 O 0.81302 0.16786 0.32994 0.0
O67 O 0.75503 0.13955 0.32934 0.0
O68 O 0.75064 0.17132 0.44449 0.0
O69 O 0.72979 0.17592 0.38254 0.0
O70 O 0.79602 0.23282 0.35862 0.0
O71 O 0.79033 0.25427 0.42716 0.0
H72 H 0.75533 0.18569 0.58954 0.0
H73 H 0.74787 0.17217 0.66969 0.0
H74 H 0.82572 0.28139 0.69883 0.0
H75 H 0.83198 0.29481 0.61892 0.0
H76 H 0.81171 0.12547 0.24201 0.0
H77 H 0.81206 0.13579 0.16152 0.0
H78 H 0.75673 0.19374 0.1845 0.0
H79 H 0.75775 0.18438 0.26503 0.0
Sm80 Sm 0.56297 0.74687 0.74328 0.0
Sm81 Sm 0.59238 0.79863 0.82519 0.0
C82 C 0.53634 0.71827 0.66409 0.0
C83 C 0.54273 0.72623 0.61578 0.0
C84 C 0.55898 0.76117 0.59944 0.0
C85 C 0.56311 0.7677 0.55322 0.0
C86 C 0.55092 0.73944 0.52241 0.0
C87 C 0.53532 0.70459 0.53924 0.0
C88 C 0.53127 0.69811 0.58534 0.0
C89 C 0.6124 0.74191 0.79399 0.0
C90 C 0.6323 0.82889 0.73194 0.0
C91 C 0.61456 0.82919 0.90472 0.0
C92 C 0.6057 0.82123 0.95257 0.0
C93 C 0.5821 0.78667 0.9675 0.0
C94 C 0.57469 0.77975 0.01328 0.0
C95 C 0.59093 0.80725 0.04517 0.0
C96 C 0.61376 0.842 0.02951 0.0
C97 C 0.62111 0.84882 0.98385 0.0
C98 C 0.54198 0.80188 0.77346 0.0
C99 C 0.52926 0.71458 0.8388 0.0
O100 O 0.52578 0.73688 0.68716 0.0
O101 O 0.55907 0.71245 0.6858 0.0
O102 O 0.61339 0.77039 0.78339 0.0
O103 O 0.58577 0.71446 0.77528 0.0
O104 O 0.60497 0.80095 0.71314 0.0
O105 O 0.63613 0.83277 0.77576 0.0
O106 O 0.62783 0.81181 0.88434 0.0
O107 O 0.59163 0.83269 0.88015 0.0
O108 O 0.54162 0.77412 0.78584 0.0
O109 O 0.56921 0.82998 0.78986 0.0
O110 O 0.55656 0.74329 0.85594 0.0
O111 O 0.52208 0.71121 0.79552 0.0
H112 H 0.56802 0.78335 0.62231 0.0
H113 H 0.57497 0.79485 0.54165 0.0
H114 H 0.52631 0.68218 0.51679 0.0
H115 H 0.51881 0.67097 0.59724 0.0
H116 H 0.56976 0.76497 0.94387 0.0
H117 H 0.5571 0.75261 0.0236 0.0
H118 H 0.62598 0.86418 0.05247 0.0
H119 H 0.63903 0.87578 0.97294 0.0
Sm120 Sm 0.76189 0.56577 0.13775 0.0
Sm121 Sm 0.81089 0.57822 0.04784 0.0
C122 C 0.72489 0.5402 0.21223 0.0
C123 C 0.73145 0.54325 0.26119 0.0
C124 C 0.74247 0.52184 0.28322 0.0
C125 C 0.74795 0.52448 0.32955 0.0
C126 C 0.74284 0.54881 0.35488 0.0
C127 C 0.73177 0.57014 0.33279 0.0
C128 C 0.72594 0.56724 0.28661 0.0
C129 C 0.77239 0.6194 0.08153 0.0
C130 C 0.8461 0.625 0.13929 0.0
C131 C 0.84199 0.60002 0.96912 0.0
C132 C 0.83282 0.59804 0.92111 0.0
C133 C 0.81558 0.61536 0.90338 0.0
C134 C 0.80767 0.61297 0.8576 0.0
C135 C 0.81704 0.59346 0.82859 0.0
C136 C 0.83397 0.57597 0.84672 0.0
C137 C 0.84192 0.57841 0.89225 0.0
C138 C 0.8169 0.53479 0.11064 0.0
C139 C 0.72496 0.51995 0.04506 0.0
O140 O 0.73725 0.5232 0.18885 0.0
O141 O 0.72814 0.56829 0.19159 0.0
O142 O 0.76788 0.58963 0.06955 0.0
O143 O 0.76827 0.62061 0.1246 0.0
O144 O 0.81806 0.60255 0.16313 0.0
O145 O 0.84828 0.62356 0.09511 0.0
O146 O 0.83535 0.62013 0.99559 0.0
O147 O 0.8355 0.57008 0.98773 0.0
O148 O 0.79909 0.54999 0.11197 0.0
O149 O 0.83335 0.542 0.07244 0.0
O150 O 0.75582 0.53546 0.02376 0.0
O151 O 0.72064 0.5271 0.08698 0.0
H152 H 0.74682 0.50298 0.26472 0.0
H153 H 0.75607 0.50734 0.34552 0.0
H154 H 0.72799 0.58946 0.35111 0.0
H155 H 0.71721 0.58395 0.27079 0.0
H156 H 0.80828 0.6308 0.9247 0.0
H157 H 0.79458 0.62673 0.84491 0.0
H158 H 0.84079 0.55992 0.82586 0.0
H159 H 0.8552 0.56478 0.90497 0.0
Sm160 Sm 0.2032 0.78926 0.45507 0.0
Sm161 Sm 0.16301 0.76534 0.54511 0.0
C162 C 0.23788 0.79642 0.37934 0.0
C163 C 0.23044 0.79168 0.33095 0.0
C164 C 0.19902 0.76297 0.31407 0.0
C165 C 0.19258 0.75936 0.26795 0.0
C166 C 0.21729 0.78452 0.2379 0.0
C167 C 0.24871 0.81315 0.25509 0.0
C168 C 0.2552 0.81663 0.30112 0.0
C169 C 0.20387 0.84265 0.50455 0.0
C170 C 0.1215 0.76907 0.45444 0.0
C171 C 0.12824 0.75547 0.62143 0.0
C172 C 0.13629 0.75997 0.66964 0.0
C173 C 0.16927 0.78668 0.68576 0.0
C174 C 0.17658 0.78972 0.73171 0.0
C175 C 0.15114 0.76592 0.76232 0.0
C176 C 0.11826 0.7391 0.74573 0.0
C177 C 0.11093 0.73624 0.69991 0.0
C178 C 0.16257 0.71276 0.49391 0.0
C179 C 0.24463 0.7855 0.54538 0.0
O180 O 0.22447 0.76774 0.40405 0.0
O181 O 0.23604 0.82251 0.3983 0.0
O182 O 0.20722 0.81761 0.52017 0.0
O183 O 0.20255 0.84156 0.46116 0.0
O184 O 0.14753 0.77112 0.42973 0.0
O185 O 0.12238 0.76943 0.49871 0.0
O186 O 0.14006 0.78433 0.59728 0.0
O187 O 0.13168 0.73059 0.6016 0.0
O188 O 0.15856 0.7377 0.47996 0.0
O189 O 0.16593 0.7139 0.53713 0.0
O190 O 0.21957 0.78557 0.57018 0.0
O191 O 0.24199 0.78252 0.50134 0.0
H192 H 0.17945 0.74338 0.33644 0.0
H193 H 0.16831 0.73678 0.25582 0.0
H194 H 0.26809 0.83327 0.23304 0.0
H195 H 0.27955 0.83901 0.31349 0.0
H196 H 0.18939 0.80511 0.66288 0.0
H197 H 0.20203 0.8109 0.74323 0.0
H198 H 0.09829 0.71986 0.76807 0.0
H199 H 0.08549 0.7152 0.68804 0.0
Sm200 Sm 0.44482 0.2274 0.77522 0.0
Sm201 Sm 0.40865 0.23943 0.6927 0.0
C202 C 0.47317 0.22843 0.85429 0.0
C203 C 0.46671 0.23108 0.90232 0.0
C204 C 0.45504 0.25399 0.91778 0.0
C205 C 0.44939 0.25613 0.96359 0.0
C206 C 0.45512 0.23531 0.99487 0.0
C207 C 0.46643 0.21212 0.97897 0.0
C208 C 0.47222 0.21012 0.93327 0.0
C209 C 0.39568 0.16741 0.73226 0.0
C210 C 0.37698 0.24096 0.78825 0.0
C211 C 0.37905 0.2362 0.6139 0.0
C212 C 0.38724 0.23781 0.56557 0.0
C213 C 0.401 0.21758 0.54677 0.0
C214 C 0.40728 0.21874 0.50062 0.0
C215 C 0.40014 0.24029 0.47224 0.0
C216 C 0.38698 0.26096 0.4915 0.0
C217 C 0.38052 0.25961 0.53753 0.0
C218 C 0.45983 0.29954 0.73442 0.0
C219 C 0.47893 0.22856 0.68016 0.0
O220 O 0.48334 0.25675 0.82959 0.0
O221 O 0.45037 0.19917 0.834 0.0
O222 O 0.39202 0.19384 0.74044 0.0
O223 O 0.42518 0.1714 0.74834 0.0
O224 O 0.40688 0.24458 0.80444 0.0
O225 O 0.3679 0.23296 0.74587 0.0
O226 O 0.37402 0.20811 0.63615 0.0
O227 O 0.39679 0.26564 0.63669 0.0
O228 O 0.46127 0.27194 0.72653 0.0
O229 O 0.43101 0.29712 0.71809 0.0
O230 O 0.45011 0.2266 0.66221 0.0
O231 O 0.48583 0.23384 0.72338 0.0
H232 H 0.45045 0.27029 0.89444 0.0
H233 H 0.44103 0.27449 0.97462 0.0
H234 H 0.47048 0.19514 1.00178 0.0
H235 H 0.48098 0.19208 0.92204 0.0
H236 H 0.40658 0.20059 0.56761 0.0
H237 H 0.41708 0.20217 0.48712 0.0
H238 H 0.38182 0.27842 0.47107 0.0
H239 H 0.37008 0.27559 0.55127 0.0
H240 H 0.30682 0.22272 0.77824 0.0
H241 H 0.27092 0.23493 0.83112 0.0
H242 H 0.36148 0.28773 0.91909 0.0
H243 H 0.39653 0.27471 0.86779 0.0
H244 H 0.30659 0.24984 0.96689 0.0
H245 H 0.33514 0.3322 0.84381 0.0
H246 H 0.33499 0.35001 0.76554 0.0
H247 H 0.22096 0.29544 0.76633 0.0
H248 H 0.22045 0.27675 0.84446 0.0
H249 H 0.27531 0.4046 0.02383 0.0
H250 H 0.28934 0.37007 0.9728 0.0
H251 H 0.22386 0.27548 0.05009 0.0
H252 H 0.21068 0.31069 0.10289 0.0
H253 H 0.25174 0.32045 0.91865 0.0
H254 H 0.25676 0.21754 0.03503 0.0
H255 H 0.26929 0.20999 0.11353 0.0
H256 H 0.33464 0.32294 0.12768 0.0
H257 H 0.32277 0.33111 0.04914 0.0
C258 C 0.31886 0.23679 0.80901 0.0
C259 C 0.35446 0.24772 0.81896 0.0
C260 C 0.29838 0.24375 0.83913 0.0
C261 C 0.31352 0.26229 0.87909 0.0
C262 C 0.34902 0.27302 0.88883 0.0
C263 C 0.36915 0.26569 0.85928 0.0
C264 C 0.29355 0.27214 0.91058 0.0
C265 C 0.29419 0.26495 0.9563 0.0
C266 C 0.27748 0.29191 0.89685 0.0
C267 C 0.27774 0.30254 0.84966 0.0
C268 C 0.31003 0.32364 0.82711 0.0
C269 C 0.31006 0.33397 0.78282 0.0
C270 C 0.27797 0.32372 0.7609 0.0
C271 C 0.24579 0.30321 0.78328 0.0
C272 C 0.24561 0.2927 0.82754 0.0
C273 C 0.26382 0.37644 0.0301 0.0
C274 C 0.24179 0.36028 0.06727 0.0
C275 C 0.27178 0.35666 1.00073 0.0
C276 C 0.25757 0.32011 0.00739 0.0
C277 C 0.23542 0.30372 0.04451 0.0
C278 C 0.22788 0.32379 0.07457 0.0
C279 C 0.26675 0.30003 0.97518 0.0
C280 C 0.26341 0.30468 0.92925 0.0
C281 C 0.28188 0.27937 0.98886 0.0
C282 C 0.28834 0.27492 0.03649 0.0
C283 C 0.27368 0.24075 0.05499 0.0
C284 C 0.28075 0.23636 0.09944 0.0
C285 C 0.30264 0.26597 0.12564 0.0
C286 C 0.31753 0.30004 0.10743 0.0
C287 C 0.31057 0.30457 0.06297 0.0
H288 H 0.30817 0.26249 0.16001 0.0
H289 H 0.27804 0.33173 0.7266 0.0
H290 H 0.1422 0.33337 0.18234 0.0
H291 H 0.09583 0.29806 0.2375 0.0
H292 H 0.05824 0.3728 0.23057 0.0
H293 H 0.1046 0.40824 0.17651 0.0
H294 H 0.06373 0.35667 0.31573 0.0
H295 H 0.01596 0.29349 0.17546 0.0
H296 H 0.01672 0.2608 0.10842 0.0
H297 H 0.02124 0.18275 0.19165 0.0
H298 H 0.02092 0.21525 0.25919 0.0
H299 H 0.86672 0.23488 0.3402 0.0
H300 H 0.92163 0.25652 0.29805 0.0
H301 H 0.97763 0.26174 0.41953 0.0
H302 H 0.92209 0.23932 0.46221 0.0
H303 H 0.96909 0.23272 0.28575 0.0
H304 H 0.06027 0.34119 0.40845 0.0
H305 H 0.05836 0.37825 0.46952 0.0
H306 H 0.96312 0.36956 0.41444 0.0
H307 H 0.9649 0.33301 0.35252 0.0
C308 C 0.12394 0.34211 0.19269 0.0
C309 C 0.12695 0.3735 0.17541 0.0
C310 C 0.09753 0.32196 0.22405 0.0
C311 C 0.07369 0.33289 0.23813 0.0
C312 C 0.07654 0.36404 0.22039 0.0
C313 C 0.10283 0.3841 0.18922 0.0
C314 C 0.04528 0.31207 0.27094 0.0
C315 C 0.04331 0.32936 0.30953 0.0
C316 C 0.01872 0.27649 0.26285 0.0
C317 C 0.01887 0.25701 0.22229 0.0
C318 C 0.01741 0.26951 0.17942 0.0
C319 C 0.0177 0.251 0.14135 0.0
C320 C 0.01915 0.21979 0.14577 0.0
C321 C 0.0202 0.20697 0.18828 0.0
C322 C 0.01995 0.22541 0.22646 0.0
C323 C 0.8905 0.23989 0.3579 0.0
C324 C 0.89016 0.23533 0.40444 0.0
C325 C 0.92187 0.25224 0.33374 0.0
C326 C 0.95363 0.26075 0.35569 0.0
C327 C 0.95332 0.25534 0.40207 0.0
C328 C 0.92167 0.24255 0.42632 0.0
C329 C 0.98712 0.27766 0.32986 0.0
C330 C 0.99012 0.25962 0.29269 0.0
C331 C 0.01438 0.31277 0.3388 0.0
C332 C 0.01236 0.33383 0.37643 0.0
C333 C 0.03881 0.34702 0.40958 0.0
C334 C 0.03777 0.36797 0.44431 0.0
C335 C 0.01043 0.37598 0.44617 0.0
C336 C 0.98413 0.36313 0.41317 0.0
C337 C 0.98512 0.34225 0.37827 0.0
H338 H 0.00976 0.39231 0.47303 0.0
H339 H 0.01937 0.20548 0.11625 0.0
H340 H 0.75811 0.1171 0.56017 0.0
H341 H 0.74111 0.06102 0.59692 0.0
H342 H 0.77938 0.02809 0.48408 0.0
H343 H 0.7961 0.08446 0.44602 0.0
H344 H 0.69127 0.99144 0.55432 0.0
H345 H 0.81601 0.97913 0.54765 0.0
H346 H 0.88114 0.01715 0.54206 0.0
H347 H 0.87556 0.10158 0.60883 0.0
H348 H 0.81055 0.06389 0.6154 0.0
H349 H 0.64237 0.82436 0.64256 0.0
H350 H 0.68129 0.87276 0.59253 0.0
H351 H 0.72105 0.94461 0.70464 0.0
H352 H 0.68294 0.89622 0.75525 0.0
H353 H 0.77284 0.95705 0.62563 0.0
H354 H 0.65524 0.9544 0.66234 0.0
H355 H 0.59135 0.91296 0.67578 0.0
H356 H 0.58544 0.85787 0.55399 0.0
H357 H 0.64866 0.89972 0.5392 0.0
C358 C 0.76331 0.09823 0.54309 0.0
C359 C 0.77833 0.10519 0.49999 0.0
C360 C 0.75344 0.06613 0.56417 0.0
C361 C 0.75894 0.0406 0.54305 0.0
C362 C 0.77503 0.04769 0.50075 0.0
C363 C 0.7845 0.07979 0.47915 0.0
C364 C 0.74598 0.00601 0.56507 0.0
C365 C 0.70916 0.98374 0.56922 0.0
C366 C 0.76933 0.99606 0.58462 0.0
C367 C 0.8084 0.01888 0.58135 0.0
C368 C 0.82873 0.0058 0.56116 0.0
C369 C 0.86561 0.02728 0.55785 0.0
C370 C 0.88246 0.06182 0.57488 0.0
C371 C 0.86247 0.0749 0.59542 0.0
C372 C 0.82559 0.05351 0.59885 0.0
C373 C 0.65996 0.85026 0.65676 0.0
C374 C 0.65908 0.85671 0.70271 0.0
C375 C 0.68244 0.87775 0.62818 0.0
C376 C 0.70383 0.91212 0.64502 0.0
C377 C 0.70496 0.91809 0.69121 0.0
C378 C 0.68284 0.89051 0.71995 0.0
C379 C 0.71836 0.94275 0.6144 0.0
C380 C 0.75517 0.96435 0.60922 0.0
C381 C 0.6952 0.95229 0.5937 0.0
C382 C 0.65632 0.93033 0.59941 0.0
C383 C 0.63993 0.93393 0.63797 0.0
C384 C 0.60386 0.91035 0.64585 0.0
C385 C 0.58414 0.88296 0.61554 0.0
C386 C 0.60037 0.87941 0.57704 0.0
C387 C 0.63624 0.90323 0.56868 0.0
H388 H 0.55638 0.86436 0.62208 0.0
H389 H 0.91101 0.07841 0.57228 0.0
H390 H 0.60128 0.68453 0.84226 0.0
H391 H 0.6421 0.68085 0.89555 0.0
H392 H 0.71922 0.79075 0.87105 0.0
H393 H 0.67797 0.7949 0.81847 0.0
H394 H 0.74263 0.73656 0.86196 0.0
H395 H 0.69263 0.78273 0.9659 0.0
H396 H 0.64798 0.78926 0.00907 0.0
H397 H 0.6019 0.68168 0.05511 0.0
H398 H 0.64642 0.67454 0.01227 0.0
H399 H 0.7863 0.68612 0.10066 0.0
H400 H 0.77709 0.72561 0.05128 0.0
H401 H 0.74981 0.65048 0.94317 0.0
H402 H 0.76019 0.6117 0.99192 0.0
H403 H 0.71489 0.70713 0.02254 0.0
H404 H 0.75545 0.68844 0.84187 0.0
H405 H 0.80425 0.6848 0.80522 0.0
H406 H 0.87347 0.7407 0.91504 0.0
H407 H 0.82549 0.7458 0.95175 0.0
C408 C 0.62689 0.70789 0.84837 0.0
C409 C 0.63677 0.73988 0.82617 0.0
C410 C 0.65 0.70585 0.87893 0.0
C411 C 0.68345 0.73559 0.88712 0.0
C412 C 0.69339 0.76764 0.86511 0.0
C413 C 0.66993 0.76992 0.83519 0.0
C414 C 0.70848 0.73197 0.91673 0.0
C415 C 0.73706 0.7305 0.89725 0.0
C416 C 0.70131 0.72487 0.96273 0.0
C417 C 0.67276 0.72806 0.98564 0.0
C418 C 0.67264 0.76029 0.98465 0.0
C419 C 0.64744 0.76414 0.00927 0.0
C420 C 0.62206 0.73586 0.03479 0.0
C421 C 0.62159 0.70356 0.03536 0.0
C422 C 0.64687 0.69964 0.01103 0.0
C423 C 0.77931 0.67861 0.06598 0.0
C424 C 0.77339 0.64577 0.05012 0.0
C425 C 0.77414 0.70116 0.03782 0.0
C426 C 0.76269 0.691 0.99357 0.0
C427 C 0.7592 0.65923 0.97692 0.0
C428 C 0.76483 0.63691 1.00491 0.0
C429 C 0.74841 0.71002 0.96759 0.0
C430 C 0.72145 0.71408 0.9876 0.0
C431 C 0.75726 0.71952 0.92213 0.0
C432 C 0.78666 0.71732 0.89977 0.0
C433 C 0.78116 0.70032 0.85806 0.0
C434 C 0.80871 0.69802 0.83723 0.0
C435 C 0.84189 0.71238 0.85787 0.0
C436 C 0.8477 0.72944 0.89917 0.0
C437 C 0.82033 0.73211 0.91997 0.0
H438 H 0.8631 0.71031 0.84183 0.0
H439 H 0.60292 0.73898 0.05445 0.0
H440 H 0.06922 0.70302 0.43799 0.0
H441 H 0.0213 0.68531 0.3837 0.0
H442 H 0.0523 0.79539 0.3635 0.0
H443 H 0.10145 0.81305 0.4167 0.0
H444 H 0.96544 0.68791 0.3713 0.0
H445 H 0.04418 0.80941 0.25241 0.0
H446 H 0.1065 0.85239 0.23329 0.0
H447 H 0.13856 0.77921 0.27916 0.0
H448 H 0.07646 0.73554 0.29758 0.0
H449 H 0.84464 0.66334 0.20926 0.0
H450 H 0.89327 0.69872 0.26085 0.0
H451 H 0.9645 0.68076 0.17885 0.0
H452 H 0.91599 0.64654 0.12591 0.0
H453 H 0.00043 0.74348 0.22093 0.0
H454 H 0.92226 0.62417 0.25956 0.0
H455 H 0.86374 0.57045 0.26965 0.0
H456 H 0.83896 0.62175 0.37482 0.0
H457 H 0.89725 0.67613 0.36482 0.0
C458 C 0.06498 0.72323 0.42284 0.0
C459 C 0.08831 0.7592 0.43151 0.0
C460 C 0.03775 0.71319 0.39179 0.0
C461 C 0.03353 0.73906 0.36902 0.0
C462 C 0.05549 0.77505 0.38012 0.0
C463 C 0.08316 0.78512 0.41078 0.0
C464 C 0.00791 0.72822 0.33156 0.0
C465 C 0.97309 0.7004 0.33864 0.0
C466 C 0.01824 0.74336 0.28827 0.0
C467 C 0.0557 0.76943 0.27698 0.0
C468 C 0.06453 0.80247 0.25828 0.0
C469 C 0.09982 0.82692 0.2475 0.0
C470 C 0.12649 0.81856 0.2551 0.0
C471 C 0.11792 0.78568 0.27334 0.0
C472 C 0.08267 0.76107 0.28398 0.0
C473 C 0.87096 0.66788 0.20165 0.0
C474 C 0.87672 0.65194 0.16427 0.0
C475 C 0.89866 0.68807 0.231 0.0
C476 C 0.93217 0.69154 0.22417 0.0
C477 C 0.93877 0.67827 0.18472 0.0
C478 C 0.91111 0.65867 0.15465 0.0
C479 C 0.9581 0.70394 0.26126 0.0
C480 C 0.99284 0.73169 0.25396 0.0
C481 C 0.94851 0.68721 0.30364 0.0
C482 C 0.91394 0.65432 0.31114 0.0
C483 C 0.90428 0.62405 0.28472 0.0
C484 C 0.87118 0.59352 0.29039 0.0
C485 C 0.84767 0.59277 0.32274 0.0
C486 C 0.85725 0.62246 0.34972 0.0
C487 C 0.89033 0.65315 0.34409 0.0
H488 H 0.82209 0.56913 0.32689 0.0
H489 H 0.1538 0.83752 0.24677 0.0
H490 H 0.32454 0.14231 0.72185 0.0
H491 H 0.28084 0.08529 0.68845 0.0
H492 H 0.36546 0.06504 0.65368 0.0
H493 H 0.40852 0.12066 0.68892 0.0
H494 H 0.26731 0.05495 0.6108 0.0
H495 H 0.34388 0.98262 0.66537 0.0
H496 H 0.38156 0.98438 0.7281 0.0
H497 H 0.33449 0.02897 0.81341 0.0
H498 H 0.2962 0.02706 0.75138 0.0
H499 H 0.22744 0.90944 0.47338 0.0
H500 H 0.24843 0.96333 0.5175 0.0
H501 H 0.21657 0.90083 0.63877 0.0
H502 H 0.19854 0.84726 0.59462 0.0
H503 H 0.2763 0.94936 0.65206 0.0
H504 H 0.17592 0.95091 0.59642 0.0
H505 H 0.13183 0.94714 0.54158 0.0
H506 H 0.21286 0.03876 0.47312 0.0
H507 H 0.25758 0.0428 0.52713 0.0
C508 C 0.33359 0.12555 0.70695 0.0
C509 C 0.36961 0.13531 0.70858 0.0
C510 C 0.30873 0.09313 0.68784 0.0
C511 C 0.31977 0.07044 0.6697 0.0
C512 C 0.35614 0.08149 0.66887 0.0
C513 C 0.38075 0.11333 0.68878 0.0
C514 C 0.29364 0.03481 0.65243 0.0
C515 C 0.26896 0.03171 0.61995 0.0
C516 C 0.29471 0.00419 0.66589 0.0
C517 C 0.31729 0.00486 0.70361 0.0
C518 C 0.3414 0.99258 0.69759 0.0
C519 C 0.36291 0.99367 0.73301 0.0
C520 C 0.36047 0.00683 0.77469 0.0
C521 C 0.33642 0.01886 0.78107 0.0
C522 C 0.31483 0.01782 0.74578 0.0
C523 C 0.22445 0.90721 0.50942 0.0
C524 C 0.21145 0.87428 0.53071 0.0
C525 C 0.2361 0.93804 0.53469 0.0
C526 C 0.23371 0.93634 0.58164 0.0
C527 C 0.21885 0.90301 0.60267 0.0
C528 C 0.20831 0.87234 0.57746 0.0
C529 C 0.25068 0.96945 0.60872 0.0
C530 C 0.27382 0.97219 0.64325 0.0
C531 C 0.24696 -0.00078 0.5984 0.0
C532 C 0.22017 0.99704 0.56578 0.0
C533 C 0.1844 0.97013 0.56951 0.0
C534 C 0.15928 0.96796 0.53858 0.0
C535 C 0.16955 0.99267 0.50386 0.0
C536 C 0.20495 0.01964 0.50004 0.0
C537 C 0.23019 0.02192 0.53087 0.0
H538 H 0.15006 0.99093 0.47994 0.0
H539 H 0.37717 0.00768 0.80205 0.0
H540 H 0.23275 0.40494 0.84729 0.0
H541 H 0.23076 0.39263 0.76711 0.0
H542 H 0.21355 0.48001 0.73881 0.0
H543 H 0.2161 0.49288 0.81862 0.0
H544 H 0.16788 0.42167 0.69244 0.0
H545 H 0.29437 0.48749 0.71738 0.0
H546 H 0.35117 0.50153 0.75255 0.0
H547 H 0.33413 0.39872 0.71634 0.0
H548 H 0.27715 0.38407 0.68082 0.0
H549 H 0.20491 0.44345 0.45846 0.0
H550 H 0.20376 0.45063 0.53949 0.0
H551 H 0.22169 0.36277 0.55988 0.0
H552 H 0.22225 0.35498 0.47903 0.0
H553 H 0.26539 0.41809 0.611 0.0
H554 H 0.14106 0.35416 0.58024 0.0
H555 H 0.08436 0.34029 0.54475 0.0
H556 H 0.09642 0.43876 0.59246 0.0
H557 H 0.1535 0.45353 0.6276 0.0
C558 C 0.22903 0.42187 0.82401 0.0
C559 C 0.22445 0.44985 0.83962 0.0
C560 C 0.2278 0.41472 0.77812 0.0
C561 C 0.22209 0.43546 0.74684 0.0
C562 C 0.21774 0.46349 0.76228 0.0
C563 C 0.21907 0.47072 0.80804 0.0
C564 C 0.21997 0.4277 0.69805 0.0
C565 C 0.18938 0.42132 0.67449 0.0
C566 C 0.24753 0.42616 0.67484 0.0
C567 C 0.28132 0.43453 0.69699 0.0
C568 C 0.30255 0.46773 0.71738 0.0
C569 C 0.33479 0.4758 0.73733 0.0
C570 C 0.34605 0.45085 0.7372 0.0
C571 C 0.32522 0.41788 0.71676 0.0
C572 C 0.29301 0.40973 0.69658 0.0
C573 C 0.20806 0.42527 0.48012 0.0
C574 C 0.21384 0.39872 0.46202 0.0
C575 C 0.20745 0.42946 0.52652 0.0
C576 C 0.21247 0.40712 0.55587 0.0
C577 C 0.21791 0.38042 0.53795 0.0
C578 C 0.21841 0.37615 0.49163 0.0
C579 C 0.21343 0.41245 0.60517 0.0
C580 C 0.24378 0.4183 0.62888 0.0
C581 C 0.1856 0.41345 0.62849 0.0
C582 C 0.15176 0.4051 0.60624 0.0
C583 C 0.13186 0.37307 0.58271 0.0
C584 C 0.09959 0.36499 0.56275 0.0
C585 C 0.0868 0.38862 0.56639 0.0
C586 C 0.10636 0.42048 0.5897 0.0
C587 C 0.13867 0.42871 0.60965 0.0
H588 H 0.06164 0.38218 0.55137 0.0
H589 H 0.37103 0.45712 0.75265 0.0
H590 H 0.79321 0.22465 0.12187 0.0
H591 H 0.79084 0.2327 0.04126 0.0
H592 H 0.7715 0.12668 0.01834 0.0
H593 H 0.77298 0.11803 0.09892 0.0
H594 H 0.82244 0.17532 0.96197 0.0
H595 H 0.70463 0.14325 0.00925 0.0
H596 H 0.65977 0.14785 0.05467 0.0
H597 H 0.69868 0.25416 0.00733 0.0
H598 H 0.74414 0.25038 0.96209 0.0
H599 H 0.77868 0.16591 0.7322 0.0
H600 H 0.77556 0.15368 0.81232 0.0
H601 H 0.78495 0.25522 0.84056 0.0
H602 H 0.78622 0.26686 0.76051 0.0
H603 H 0.73788 0.20711 0.89445 0.0
H604 H 0.85668 0.24074 0.84948 0.0
H605 H 0.90258 0.23748 0.80465 0.0
H606 H 0.86335 0.13022 0.8483 0.0
H607 H 0.81689 0.13267 0.89294 0.0
C608 C 0.78802 0.20284 0.09981 0.0
C609 C 0.78322 0.17064 0.11709 0.0
C610 C 0.78679 0.20755 0.05367 0.0
C611 C 0.78073 0.18019 0.02379 0.0
C612 C 0.7763 0.14818 0.04078 0.0
C613 C 0.77734 0.14337 0.08691 0.0
C614 C 0.77936 0.18508 0.97476 0.0
C615 C 0.80361 0.18177 0.94709 0.0
C616 C 0.75536 0.19432 0.9555 0.0
C617 C 0.72802 0.19665 0.98262 0.0
C618 C 0.70382 0.16772 0.00881 0.0
C619 C 0.67825 0.17016 0.03447 0.0
C620 C 0.67644 0.20131 0.03398 0.0
C621 C 0.70015 0.23006 0.00773 0.0
C622 C 0.7258 0.22777 0.98204 0.0
C623 C 0.77951 0.18544 0.75536 0.0
C624 C 0.78294 0.21751 0.73973 0.0
C625 C 0.77817 0.17858 0.80128 0.0
C626 C 0.78069 0.20381 0.83262 0.0
C627 C 0.78319 0.23542 0.81712 0.0
C628 C 0.78428 0.24219 0.77124 0.0
C629 C 0.7811 0.19753 0.88153 0.0
C630 C 0.75667 0.20058 0.90923 0.0
C631 C 0.80511 0.18828 0.90088 0.0
C632 C 0.83308 0.18677 0.87418 0.0
C633 C 0.85767 0.21637 0.84925 0.0
C634 C 0.88381 0.21468 0.82392 0.0
C635 C 0.88581 0.18363 0.82353 0.0
C636 C 0.86173 0.15423 0.84858 0.0
C637 C 0.83551 0.15576 0.87392 0.0
H638 H 0.90608 0.18238 0.8039 0.0
H639 H 0.65661 0.20314 0.05385 0.0
H640 H 0.60562 0.79389 0.47559 0.0
H641 H 0.61008 0.80444 0.39489 0.0
H642 H 0.50796 0.71044 0.3761 0.0
H643 H 0.50298 0.69995 0.45677 0.0
H644 H 0.55488 0.71404 0.31371 0.0
H645 H 0.51557 0.79105 0.37024 0.0
H646 H 0.517 0.83676 0.4203 0.0
H647 H 0.62013 0.91275 0.37025 0.0
H648 H 0.61954 0.86731 0.32029 0.0
H649 H 0.53042 0.75669 0.08887 0.0
H650 H 0.52198 0.74435 0.16915 0.0
H651 H 0.62862 0.82921 0.19417 0.0
H652 H 0.63815 0.84061 0.11415 0.0
H653 H 0.57646 0.82923 0.25278 0.0
H654 H 0.61503 0.75072 0.19658 0.0
H655 H 0.6123 0.7046 0.14622 0.0
H656 H 0.50857 0.63035 0.19611 0.0
H657 H 0.51008 0.67643 0.24574 0.0
C658 C 0.5839 0.7756 0.45445 0.0
C659 C 0.55392 0.74604 0.473 0.0
C660 C 0.58656 0.7816 0.40817 0.0
C661 C 0.55925 0.75835 0.37927 0.0
C662 C 0.52948 0.72867 0.39757 0.0
C663 C 0.52675 0.72267 0.44383 0.0
C664 C 0.56159 0.76526 0.33009 0.0
C665 C 0.55907 0.73903 0.3004 0.0
C666 C 0.56746 0.79801 0.31255 0.0
C667 C 0.56765 0.82567 0.3418 0.0
C668 C 0.53865 0.81745 0.37008 0.0
C669 C 0.5393 0.84331 0.39844 0.0
C670 C 0.56869 0.8776 0.39858 0.0
C671 C 0.59741 0.88615 0.37016 0.0
C672 C 0.59691 0.86036 0.34177 0.0
C673 C 0.55233 0.77255 0.11119 0.0
C674 C 0.585 0.79985 0.09444 0.0
C675 C 0.54728 0.76561 0.15726 0.0
C676 C 0.57462 0.78598 0.18773 0.0
C677 C 0.60701 0.81341 0.17136 0.0
C678 C 0.61229 0.82001 0.12537 0.0
C679 C 0.57 0.77814 0.23658 0.0
C680 C 0.57207 0.80419 0.26615 0.0
C681 C 0.56345 0.74513 0.25396 0.0
C682 C 0.5625 0.7172 0.22451 0.0
C683 C 0.59142 0.72469 0.19644 0.0
C684 C 0.59007 0.69856 0.16799 0.0
C685 C 0.56015 0.66463 0.16776 0.0
C686 C 0.53157 0.65674 0.19609 0.0
C687 C 0.53264 0.68287 0.22436 0.0
H688 H 0.55917 0.6444 0.14577 0.0
H689 H 0.56918 0.89757 0.42063 0.0
H690 H 0.85789 0.59241 0.75937 0.0
H691 H 0.84388 0.58485 0.67998 0.0
H692 H 0.74571 0.58355 0.70631 0.0
H693 H 0.75849 0.58887 0.78651 0.0
H694 H 0.73417 0.53386 0.64857 0.0
H695 H 0.82062 0.65728 0.65974 0.0
H696 H 0.87757 0.70953 0.68126 0.0
H697 H 0.93402 0.67208 0.60105 0.0
H698 H 0.87743 0.61932 0.57954 0.0
H699 H 0.70338 0.55744 0.41994 0.0
H700 H 0.71539 0.56572 0.50024 0.0
H701 H 0.80842 0.55587 0.48182 0.0
H702 H 0.79693 0.5481 0.40139 0.0
H703 H 0.82158 0.61252 0.53519 0.0
H704 H 0.73437 0.48842 0.52563 0.0
H705 H 0.67704 0.43683 0.50377 0.0
H706 H 0.62151 0.47717 0.58064 0.0
H707 H 0.67853 0.52929 0.60245 0.0
C708 C 0.83309 0.59015 0.74854 0.0
C709 C 0.80927 0.59109 0.77967 0.0
C710 C 0.82535 0.58633 0.70286 0.0
C711 C 0.79398 0.58419 0.68689 0.0
C712 C 0.77018 0.58532 0.71774 0.0
C713 C 0.77773 0.58876 0.76362 0.0
C714 C 0.78577 0.5799 0.63815 0.0
C715 C 0.75308 0.55146 0.62387 0.0
C716 C 0.81069 0.60235 0.60567 0.0
C717 C 0.84478 0.63419 0.61832 0.0
C718 C 0.84519 0.66006 0.64692 0.0
C719 C 0.87741 0.68978 0.65909 0.0
C720 C 0.9094 0.69408 0.64261 0.0
C721 C 0.90923 0.6687 0.61383 0.0
C722 C 0.87708 0.6389 0.6016 0.0
C723 C 0.72652 0.55721 0.43289 0.0
C724 C 0.74931 0.55231 0.40405 0.0
C725 C 0.73317 0.56166 0.47888 0.0
C726 C 0.7627 0.56124 0.49707 0.0
C727 C 0.78547 0.55628 0.46849 0.0
C728 C 0.77871 0.55161 0.42251 0.0
C729 C 0.77015 0.56648 0.54583 0.0
C730 C 0.80268 0.59509 0.56002 0.0
C731 C 0.74502 0.54435 0.57819 0.0
C732 C 0.71072 0.51293 0.56531 0.0
C733 C 0.70993 0.48644 0.53758 0.0
C734 C 0.67749 0.45708 0.52525 0.0
C735 C 0.64565 0.45378 0.5407 0.0
C736 C 0.64619 0.47979 0.56863 0.0
C737 C 0.67857 0.50923 0.58102 0.0
H738 H 0.62056 0.43102 0.53112 0.0
H739 H 0.93431 0.71711 0.65207 0.0
H740 H 0.10548 0.75536 0.8316 0.0
H741 H 0.11718 0.75802 0.91164 0.0
H742 H 0.22595 0.78733 0.88467 0.0
H743 H 0.21392 0.78275 0.80431 0.0
H744 H 0.20061 0.74003 0.94913 0.0
H745 H 0.20166 0.84888 0.92032 0.0
H746 H 0.17835 0.88644 0.89193 0.0
H747 H 0.08781 0.83324 0.97858 0.0
H748 H 0.11036 0.79503 0.00708 0.0
H749 H 0.26435 0.79716 0.16978 0.0
H750 H 0.25343 0.79437 0.08933 0.0
H751 H 0.14338 0.76094 0.11429 0.0
H752 H 0.15442 0.76504 0.19492 0.0
H753 H 0.17013 0.81089 0.05088 0.0
H754 H 0.16976 0.70203 0.07956 0.0
H755 H 0.19404 0.66538 0.10824 0.0
H756 H 0.28458 0.71983 0.02185 0.0
H757 H 0.26108 0.75716 0.9931 0.0
C758 C 0.13184 0.76202 0.84256 0.0
C759 C 0.15874 0.76884 0.81129 0.0
C760 C 0.13862 0.76399 0.88847 0.0
C761 C 0.17262 0.77344 0.90434 0.0
C762 C 0.19954 0.78017 0.8733 0.0
C763 C 0.19271 0.77791 0.82729 0.0
C764 C 0.17984 0.77567 0.95328 0.0
C765 C 0.19443 0.75596 0.97126 0.0
C766 C 0.17107 0.7958 0.98245 0.0
C767 C 0.15755 0.81889 0.96554 0.0
C768 C 0.17666 0.84503 0.9331 0.0
C769 C 0.1636 0.86646 0.91702 0.0
C770 C 0.13158 0.86217 0.93336 0.0
C771 C 0.11259 0.8365 0.96591 0.0
C772 C 0.12552 0.81498 0.98208 0.0
C773 C 0.23785 0.78943 0.1582 0.0
C774 C 0.21026 0.78132 0.18887 0.0
C775 C 0.23157 0.78749 0.11214 0.0
C776 C 0.19748 0.77704 0.09568 0.0
C777 C 0.16987 0.76894 0.12618 0.0
C778 C 0.17615 0.77097 0.17229 0.0
C779 C 0.19079 0.77519 0.04667 0.0
C780 C 0.17633 0.795 0.02871 0.0
C781 C 0.19981 0.75526 0.01752 0.0
C782 C 0.21381 0.73261 0.03447 0.0
C783 C 0.19497 0.70635 0.0669 0.0
C784 C 0.20857 0.68544 0.08314 0.0
C785 C 0.24087 0.69033 0.06696 0.0
C786 C 0.25958 0.7161 0.0344 0.0
C787 C 0.24612 0.73712 0.01809 0.0
H788 H 0.25136 0.67412 0.07958 0.0
H789 H 0.12151 0.87878 0.92086 0.0
H790 H 0.4537 0.23707 0.42709 0.0
H791 H 0.46241 0.23744 0.34635 0.0
H792 H 0.36958 0.24704 0.32429 0.0
H793 H 0.35954 0.2447 0.40483 0.0
H794 H 0.36903 0.20176 0.26761 0.0
H795 H 0.45671 0.31879 0.31262 0.0
H796 H 0.50723 0.36433 0.35603 0.0
H797 H 0.57352 0.32452 0.30732 0.0
H798 H 0.52323 0.27839 0.2641 0.0
H799 H 0.40323 0.2439 0.03608 0.0
H800 H 0.39422 0.24751 0.11618 0.0
H801 H 0.48418 0.23444 0.14495 0.0
H802 H 0.49449 0.23266 0.06501 0.0
H803 H 0.48538 0.28346 0.19766 0.0
H804 H 0.39553 0.16479 0.15457 0.0
H805 H 0.3446 0.12066 0.11033 0.0
H806 H 0.28195 0.16584 0.15493 0.0
H807 H 0.33271 0.21065 0.19882 0.0
C808 C 0.43487 0.23888 0.40515 0.0
C809 C 0.40596 0.241 0.42281 0.0
C810 C 0.44017 0.23957 0.35884 0.0
C811 C 0.41702 0.24289 0.32899 0.0
C812 C 0.38798 0.24468 0.34647 0.0
C813 C 0.38249 0.24372 0.39272 0.0
C814 C 0.42264 0.24386 0.27959 0.0
C815 C 0.39436 0.22002 0.25233 0.0
C816 C 0.4558 0.26725 0.2594 0.0
C817 C 0.48608 0.2949 0.28547 0.0
C818 C 0.48197 0.31955 0.31145 0.0
C819 C 0.51058 0.34551 0.33598 0.0
C820 C 0.54354 0.34726 0.33453 0.0
C821 C 0.54796 0.3231 0.30847 0.0
C822 C 0.51942 0.29706 0.28393 0.0
C823 C 0.42141 0.24223 0.05935 0.0
C824 C 0.4495 0.23774 0.04382 0.0
C825 C 0.41595 0.24389 0.10529 0.0
C826 C 0.43814 0.24065 0.13683 0.0
C827 C 0.46653 0.2368 0.12142 0.0
C828 C 0.47216 0.23539 0.07555 0.0
C829 C 0.43191 0.24114 0.18587 0.0
C830 C 0.46005 0.26529 0.21302 0.0
C831 C 0.39857 0.21823 0.20592 0.0
C832 C 0.36801 0.19123 0.17967 0.0
C833 C 0.37097 0.16546 0.15468 0.0
C834 C 0.34213 0.14033 0.12967 0.0
C835 C 0.3101 0.14053 0.12969 0.0
C836 C 0.30681 0.16581 0.15481 0.0
C837 C 0.33559 0.19105 0.17979 0.0
H838 H 0.2878 0.12104 0.11033 0.0
H839 H 0.56566 0.36738 0.35351 0.0
H840 H 0.20642 0.47724 0.29428 0.0
H841 H 0.19508 0.51574 0.34231 0.0
H842 H 0.1889 0.5713 0.22613 0.0
H843 H 0.20139 0.53356 0.17783 0.0
H844 H 0.22579 0.61689 0.28774 0.0
H845 H 0.11383 0.51097 0.2839 0.0
H846 H 0.07189 0.44664 0.28909 0.0
H847 H 0.09754 0.44805 0.42806 0.0
H848 H 0.14012 0.51236 0.42356 0.0
H849 H 0.15143 0.70597 0.40434 0.0
H850 H 0.15661 0.66454 0.35401 0.0
H851 H 0.18105 0.61824 0.46639 0.0
H852 H 0.17613 0.66 0.51704 0.0
H853 H 0.13239 0.56779 0.40491 0.0
H854 H 0.24659 0.6766 0.40367 0.0
H855 H 0.28632 0.74102 0.39398 0.0
H856 H 0.25117 0.73366 0.25813 0.0
H857 H 0.21075 0.66924 0.26724 0.0
C858 C 0.20264 0.49762 0.2789 0.0
C859 C 0.20479 0.50235 0.23223 0.0
C860 C 0.19594 0.5195 0.30641 0.0
C861 C 0.19056 0.54604 0.28778 0.0
C862 C 0.1929 0.55095 0.24122 0.0
C863 C 0.20003 0.52934 0.21368 0.0
C864 C 0.1833 0.56919 0.31702 0.0
C865 C 0.20498 0.60611 0.31285 0.0
C866 C 0.15636 0.55512 0.35011 0.0
C867 C 0.13044 0.51649 0.35327 0.0
C868 C 0.11073 0.49755 0.31551 0.0
C869 C 0.08682 0.46109 0.31833 0.0
C870 C 0.08212 0.44328 0.35884 0.0
C871 C 0.10125 0.4619 0.39668 0.0
C872 C 0.12526 0.49838 0.39403 0.0
C873 C 0.1579 0.68696 0.41828 0.0
C874 C 0.16383 0.68638 0.4644 0.0
C875 C 0.16077 0.66329 0.38956 0.0
C876 C 0.16954 0.63862 0.40651 0.0
C877 C 0.17429 0.63716 0.45277 0.0
C878 C 0.17158 0.66102 0.48155 0.0
C879 C 0.17507 0.61526 0.37572 0.0
C880 C 0.15305 0.57839 0.37961 0.0
C881 C 0.20119 0.62935 0.34171 0.0
C882 C 0.22548 0.66812 0.33624 0.0
C883 C 0.24713 0.68875 0.37184 0.0
C884 C 0.26982 0.72525 0.36641 0.0
C885 C 0.27134 0.74138 0.32542 0.0
C886 C 0.25005 0.72108 0.28981 0.0
C887 C 0.22724 0.68458 0.29509 0.0
H888 H 0.289 0.76962 0.32127 0.0
H889 H 0.06361 0.41508 0.36085 0.0
H890 H 0.67625 0.18686 0.3903 0.0
H891 H 0.63175 0.19473 0.43071 0.0
H892 H 0.6679 0.17411 0.5556 0.0
H893 H 0.71202 0.16551 0.5152 0.0
H894 H 0.5957 0.14074 0.55122 0.0
H895 H 0.69447 0.2578 0.52511 0.0
H896 H 0.73959 0.30635 0.47886 0.0
H897 H 0.65739 0.30907 0.40246 0.0
H898 H 0.6117 0.2602 0.44804 0.0
H899 H 0.533 0.21811 0.70637 0.0
H900 H 0.57251 0.20775 0.65887 0.0
H901 H 0.52125 0.21838 0.54116 0.0
H902 H 0.48118 0.22857 0.58851 0.0
H903 H 0.5981 0.25564 0.53797 0.0
H904 H 0.49922 0.14016 0.56853 0.0
H905 H 0.45516 0.09241 0.61672 0.0
H906 H 0.53887 0.08735 0.6863 0.0
H907 H 0.58352 0.13559 0.63908 0.0
C908 C 0.67448 0.18372 0.42635 0.0
C909 C 0.69768 0.1759 0.44979 0.0
C910 C 0.64919 0.18837 0.44935 0.0
C911 C 0.6469 0.18547 0.49614 0.0
C912 C 0.66934 0.17655 0.51948 0.0
C913 C 0.6946 0.17181 0.49646 0.0
C914 C 0.6217 0.19261 0.52087 0.0
C915 C 0.59642 0.16596 0.54866 0.0
C916 C 0.62226 0.22528 0.51666 0.0
C917 C 0.64966 0.25508 0.48969 0.0
C918 C 0.686 0.26858 0.49826 0.0
C919 C 0.71169 0.29617 0.47217 0.0
C920 C 0.70138 0.31068 0.43758 0.0
C921 C 0.66534 0.29775 0.4292 0.0
C922 C 0.63953 0.27014 0.45519 0.0
C923 C 0.53018 0.21849 0.67038 0.0
C924 C 0.50386 0.22404 0.65118 0.0
C925 C 0.55274 0.21247 0.64335 0.0
C926 C 0.54952 0.21206 0.59667 0.0
C927 C 0.524 0.21857 0.57721 0.0
C928 C 0.5011 0.22424 0.60429 0.0
C929 C 0.57239 0.20389 0.56853 0.0
C930 C 0.59723 0.23033 0.54018 0.0
C931 C 0.57157 0.1711 0.57238 0.0
C932 C 0.54476 0.14174 0.6005 0.0
C933 C 0.50827 0.12909 0.59435 0.0
C934 C 0.48318 0.1019 0.62146 0.0
C935 C 0.49421 0.0869 0.65461 0.0
C936 C 0.53036 0.09902 0.66064 0.0
C937 C 0.55558 0.12628 0.63369 0.0
H938 H 0.47474 0.06585 0.67556 0.0
H939 H 0.72131 0.332 0.41736 0.0
H940 H 0.34134 0.4581 0.11835 0.0
H941 H 0.38769 0.49969 0.06726 0.0
H942 H 0.34708 0.5717 0.07921 0.0
H943 H 0.30073 0.53022 0.13011 0.0
H944 H 0.37742 0.52181 0.98625 0.0
H945 H 0.42154 0.65903 0.07103 0.0
H946 H 0.43035 0.6846 0.14673 0.0
H947 H 0.43985 0.59814 0.19994 0.0
H948 H 0.43247 0.57273 0.12443 0.0
H949 H 0.45883 0.66458 0.83028 0.0
H950 H 0.4214 0.61991 0.8858 0.0
H951 H 0.51255 0.65411 0.97193 0.0
H952 H 0.54947 0.69938 0.91758 0.0
H953 H 0.46169 0.64858 0.01888 0.0
H954 H 0.47254 0.57397 0.91039 0.0
H955 H 0.46872 0.54703 0.83655 0.0
H956 H 0.35584 0.50476 0.83486 0.0
H957 H 0.3591 0.53225 0.90797 0.0
C958 C 0.34267 0.48302 0.11049 0.0
C959 C 0.31758 0.49106 0.12802 0.0
C960 C 0.36898 0.50663 0.08123 0.0
C961 C 0.37087 0.53879 0.06971 0.0
C962 C 0.34631 0.54719 0.0881 0.0
C963 C 0.31983 0.52348 0.117 0.0
C964 C 0.39716 0.56272 0.03647 0.0
C965 C 0.39597 0.54955 0.9933 0.0
C966 C 0.42166 0.59868 0.04615 0.0
C967 C 0.42588 0.61364 0.09196 0.0
C968 C 0.42564 0.6455 0.09882 0.0
C969 C 0.43051 0.66005 0.14172 0.0
C970 C 0.43556 0.64295 0.17814 0.0
C971 C 0.43583 0.61131 0.17172 0.0
C972 C 0.43133 0.59683 0.12884 0.0
C973 C 0.47081 0.66223 0.86091 0.0
C974 C 0.5069 0.68556 0.86984 0.0
C975 C 0.44949 0.63664 0.89254 0.0
C976 C 0.46418 0.63346 0.93302 0.0
C977 C 0.50051 0.65615 0.94116 0.0
C978 C 0.52159 0.68203 0.91004 0.0
C979 C 0.44156 0.60794 0.96809 0.0
C980 C 0.44329 0.62085 0.01168 0.0
C981 C 0.41801 0.57157 0.95899 0.0
C982 C 0.41615 0.55557 0.9145 0.0
C983 C 0.44697 0.55933 0.894 0.0
C984 C 0.4449 0.54393 0.85224 0.0
C985 C 0.41211 0.52437 0.83085 0.0
C986 C 0.38129 0.52011 0.85122 0.0
C987 C 0.38323 0.53563 0.89282 0.0
H988 H 0.41059 0.51244 0.79857 0.0
H989 H 0.43936 0.65427 0.21132 0.0
H990 H 0.80832 0.27569 0.29532 0.0
H991 H 0.81518 0.32902 0.25933 0.0
H992 H 0.79054 0.36209 0.38382 0.0
H993 H 0.78352 0.30861 0.42034 0.0
H994 H 0.75622 0.37084 0.31089 0.0
H995 H 0.87361 0.40213 0.35294 0.0
H996 H 0.92543 0.39381 0.36045 0.0
H997 H 0.9344 0.39277 0.21746 0.0
H998 H 0.88225 0.4005 0.20904 0.0
H999 H 0.80255 0.53406 0.19965 0.0
H1000 H 0.80239 0.49341 0.25663 0.0
H1001 H 0.8341 0.44325 0.15642 0.0
H1002 H 0.83515 0.48436 0.1 0.0
H1003 H 0.86875 0.45055 0.23139 0.0
H1004 H 0.74575 0.41061 0.19097 0.0
H1005 H 0.69261 0.41683 0.1843 0.0
H1006 H 0.69383 0.43344 0.32608 0.0
H1007 H 0.74748 0.42811 0.33344 0.0
C1008 C 0.80421 0.29416 0.3151 0.0
C1009 C 0.79562 0.28802 0.36077 0.0
C1010 C 0.8083 0.32471 0.29452 0.0
C1011 C 0.80392 0.34969 0.31917 0.0
C1012 C 0.79426 0.34319 0.36439 0.0
C1013 C 0.79034 0.31267 0.38513 0.0
C1014 C 0.80961 0.38255 0.29723 0.0
C1015 C 0.78102 0.38876 0.29423 0.0
C1016 C 0.84201 0.40571 0.27555 0.0
C1017 C 0.87384 0.4017 0.28037 0.0
C1018 C 0.88649 0.39992 0.32307 0.0
C1019 C 0.91594 0.39532 0.32751 0.0
C1020 C 0.93317 0.39271 0.28947 0.0
C1021 C 0.92103 0.3948 0.24691 0.0
C1022 C 0.89155 0.39934 0.24229 0.0
C1023 C 0.80926 0.51418 0.18995 0.0
C1024 C 0.81812 0.51166 0.14545 0.0
C1025 C 0.8093 0.49111 0.22246 0.0
C1026 C 0.81761 0.46487 0.21059 0.0
C1027 C 0.82756 0.46324 0.16633 0.0
C1028 C 0.82801 0.48659 0.13409 0.0
C1029 C 0.81482 0.43805 0.24334 0.0
C1030 C 0.84411 0.43306 0.24865 0.0
C1031 C 0.78306 0.41607 0.26721 0.0
C1032 C 0.75088 0.41939 0.26267 0.0
C1033 C 0.73488 0.41591 0.22066 0.0
C1034 C 0.70465 0.41924 0.21676 0.0
C1035 C 0.68987 0.42555 0.25473 0.0
C1036 C 0.70528 0.42851 0.2967 0.0
C1037 C 0.73566 0.42545 0.30073 0.0
H1038 H 0.66648 0.42814 0.25165 0.0
H1039 H 0.95593 0.3891 0.29298 0.0
H1040 H 0.28915 0.76356 0.51402 0.0
H1041 H 0.34155 0.76864 0.55098 0.0
H1042 H 0.3264 0.82375 0.66135 0.0
H1043 H 0.27284 0.81705 0.62548 0.0
H1044 H 0.40198 0.81952 0.57367 0.0
H1045 H 0.35542 0.80748 0.75721 0.0
H1046 H 0.29935 0.78102 0.80001 0.0
H1047 H 0.24768 0.70188 0.69812 0.0
H1048 H 0.3035 0.72763 0.655 0.0
H1049 H 0.54328 0.85819 0.73087 0.0
H1050 H 0.49525 0.85741 0.68658 0.0
H1051 H 0.43075 0.74453 0.70805 0.0
H1052 H 0.4784 0.74514 0.75186 0.0
H1053 H 0.39591 0.77909 0.73019 0.0
H1054 H 0.46032 0.77123 0.60623 0.0
H1055 H 0.50673 0.78436 0.55 0.0
H1056 H 0.516 0.88562 0.52394 0.0
H1057 H 0.46946 0.87306 0.58 0.0
C1058 C 0.297 0.77672 0.5462 0.0
C1059 C 0.27683 0.78962 0.56714 0.0
C1060 C 0.32702 0.77974 0.56722 0.0
C1061 C 0.33771 0.79619 0.60924 0.0
C1062 C 0.31821 0.81019 0.62947 0.0
C1063 C 0.28769 0.80644 0.60892 0.0
C1064 C 0.36886 0.79796 0.632 0.0
C1065 C 0.40075 0.81094 0.60803 0.0
C1066 C 0.36701 0.78599 0.67649 0.0
C1067 C 0.33354 0.76973 0.70271 0.0
C1068 C 0.33212 0.78433 0.74407 0.0
C1069 C 0.30038 0.76949 0.76835 0.0
C1070 C 0.26994 0.73987 0.75172 0.0
C1071 C 0.27123 0.7249 0.71089 0.0
C1072 C 0.30291 0.73963 0.68651 0.0
C1073 C 0.51888 0.83326 0.72583 0.0
C1074 C 0.51431 0.80179 0.74505 0.0
C1075 C 0.49164 0.83279 0.70034 0.0
C1076 C 0.45947 0.8009 0.6942 0.0
C1077 C 0.45534 0.76941 0.71255 0.0
C1078 C 0.48256 0.76981 0.73755 0.0
C1079 C 0.42898 0.80051 0.67172 0.0
C1080 C 0.39729 0.78808 0.69599 0.0
C1081 C 0.43065 0.81175 0.62699 0.0
C1082 C 0.46169 0.82137 0.5977 0.0
C1083 C 0.47277 0.79662 0.58923 0.0
C1084 C 0.49888 0.80382 0.55709 0.0
C1085 C 0.51416 0.83571 0.53325 0.0
C1086 C 0.50398 0.86085 0.54225 0.0
C1087 C 0.47774 0.8537 0.5742 0.0
H1088 H 0.53388 0.84095 0.50779 0.0
H1089 H 0.24538 0.72849 0.7705 0.0
H1090 H 0.71572 0.46721 0.98884 0.0
H1091 H 0.66703 0.43536 0.93588 0.0
H1092 H 0.61654 0.49269 0.98467 0.0
H1093 H 0.66406 0.52256 0.04002 0.0
H1094 H 0.56777 0.43178 0.96388 0.0
H1095 H 0.66898 0.51669 0.88547 0.0
H1096 H 0.73158 0.54987 0.86136 0.0
H1097 H 0.72172 0.45517 0.8032 0.0
H1098 H 0.65927 0.42121 0.82773 0.0
H1099 H 0.45602 0.35618 0.7682 0.0
H1100 H 0.49869 0.40222 0.81915 0.0
H1101 H 0.56367 0.35303 0.816 0.0
H1102 H 0.52224 0.30831 0.76433 0.0
H1103 H 0.60321 0.4235 0.80859 0.0
H1104 H 0.49892 0.33995 0.90221 0.0
H1105 H 0.43587 0.31437 0.92373 0.0
H1106 H 0.45207 0.41861 0.94697 0.0
H1107 H 0.515 0.44495 0.92516 0.0
C1108 C 0.69376 0.47231 0.98878 0.0
C1109 C 0.69338 0.49711 0.01829 0.0
C1110 C 0.66621 0.45454 0.95818 0.0
C1111 C 0.63872 0.46257 0.95509 0.0
C1112 C 0.63755 0.48624 0.98609 0.0
C1113 C 0.66458 0.50317 0.01776 0.0
C1114 C 0.61185 0.44674 0.91886 0.0
C1115 C 0.57561 0.43045 0.9298 0.0
C1116 C 0.62185 0.44589 0.87394 0.0
C1117 C 0.65941 0.46634 0.85868 0.0
C1118 C 0.68019 0.50288 0.86776 0.0
C1119 C 0.71567 0.52183 0.85401 0.0
C1120 C 0.7306 0.50462 0.83079 0.0
C1121 C 0.71009 0.46845 0.8212 0.0
C1122 C 0.67465 0.44934 0.83499 0.0
C1123 C 0.47966 0.35559 0.77815 0.0
C1124 C 0.4858 0.32862 0.76274 0.0
C1125 C 0.50383 0.38168 0.80741 0.0
C1126 C 0.53412 0.38076 0.82182 0.0
C1127 C 0.54049 0.35427 0.8054 0.0
C1128 C 0.51669 0.32859 0.77604 0.0
C1129 C 0.55951 0.40662 0.85444 0.0
C1130 C 0.59556 0.42529 0.84263 0.0
C1131 C 0.54926 0.41066 0.898 0.0
C1132 C 0.51154 0.39441 0.91163 0.0
C1133 C 0.48898 0.35739 0.9117 0.0
C1134 C 0.4533 0.34277 0.92394 0.0
C1135 C 0.43999 0.36478 0.93654 0.0
C1136 C 0.46237 0.40155 0.93712 0.0
C1137 C 0.49803 0.41636 0.92484 0.0
H1138 H 0.41236 0.35333 0.94595 0.0
H1139 H 0.75804 0.51923 0.82019 0.0
loop_
_geom_bond_atom_site_label_1
_geom_bond_atom_site_label_2
_geom_bond_distance
_geom_bond_site_symmetry_2
_ccdc_geom_bond_type
Sm0 C2 2.846 . S
Sm0 O20 2.543 . S
Sm0 O21 2.450 . S
Sm0 O22 2.681 . S
Sm0 O23 2.464 . S
Sm0 O24 2.396 . S
Sm0 O28 2.386 . S
Sm0 O31 2.408 . S
Sm1 C11 2.846 . S
Sm1 O22 2.386 . S
Sm1 O25 2.408 . S
Sm1 O26 2.543 . S
Sm1 O27 2.450 . S
Sm1 O28 2.681 . S
Sm1 O29 2.464 . S
Sm1 O30 2.396 . S
C2 Sm0 2.846 . S
C2 C3 1.506 . S
C2 O20 1.261 . S
C2 O21 1.242 . S
C3 C2 1.506 . S
C3 C4 1.358 1_554 S
C3 C8 1.382 1_554 S
C4 C3 1.358 1_556 S
C4 C5 1.385 . S
C4 H32 0.930 . S
C5 C4 1.385 . S
C5 C6 1.395 . S
C5 H33 0.929 . S
C6 C5 1.395 . S
C6 C7 1.335 . S
C7 C6 1.335 . S
C7 C8 1.398 . S
C7 H34 0.930 . S
C8 C3 1.382 1_556 S
C8 C7 1.398 . S
C8 H35 0.929 1_556 S
C9 O22 1.271 . S
C9 O23 1.251 . S
C10 O24 1.252 . S
C10 O25 1.272 . S
C11 Sm1 2.846 . S
C11 C12 1.506 . S
C11 O26 1.261 . S
C11 O27 1.242 . S
C12 C11 1.506 . S
C12 C13 1.358 . S
C12 C17 1.382 . S
C13 C12 1.358 . S
C13 C14 1.385 . S
C13 H36 0.930 . S
C14 C13 1.385 . S
C14 C15 1.395 . S
C14 H37 0.929 . S
C15 C14 1.395 . S
C15 C16 1.335 . S
C16 C15 1.335 . S
C16 C17 1.398 . S
C16 H38 0.930 . S
C17 C12 1.382 . S
C17 C16 1.398 . S
C17 H39 0.929 . S
C18 O28 1.271 . S
C18 O29 1.251 . S
C19 O30 1.252 . S
C19 O31 1.272 . S
O20 Sm0 2.543 . S
O20 C2 1.261 . S
O21 Sm0 2.450 . S
O21 C2 1.242 . S
O22 Sm0 2.681 . S
O22 Sm1 2.386 . S
O22 C9 1.271 . S
O23 Sm0 2.464 . S
O23 C9 1.251 . S
O24 Sm0 2.396 . S
O24 C10 1.252 . S
O25 Sm1 2.408 . S
O25 C10 1.272 . S
O26 Sm1 2.543 . S
O26 C11 1.261 . S
O27 Sm1 2.450 . S
O27 C11 1.242 . S
O28 Sm0 2.386 . S
O28 Sm1 2.681 . S
O28 C18 1.271 . S
O29 Sm1 2.464 . S
O29 C18 1.251 . S
O30 Sm1 2.396 . S
O30 C19 1.252 . S
O31 Sm0 2.408 . S
O31 C19 1.272 . S
H32 C4 0.930 . S
H33 C5 0.929 . S
H34 C7 0.930 . S
H35 C8 0.929 1_554 S
H36 C13 0.930 . S
H37 C14 0.929 . S
H38 C16 0.930 . S
H39 C17 0.929 . S
Sm40 C42 2.846 . S
Sm40 O60 2.543 . S
Sm40 O61 2.450 . S
Sm40 O62 2.681 . S
Sm40 O63 2.464 . S
Sm40 O64 2.396 . S
Sm40 O68 2.386 . S
Sm40 O71 2.408 . S
Sm41 C51 2.846 . S
Sm41 O62 2.386 . S
Sm41 O65 2.408 . S
Sm41 O66 2.543 . S
Sm41 O67 2.450 . S
Sm41 O68 2.681 . S
Sm41 O69 2.464 . S
Sm41 O70 2.396 . S
C42 Sm40 2.846 . S
C42 C43 1.506 . S
C42 O60 1.261 . S
C42 O61 1.242 . S
C43 C42 1.506 . S
C43 C44 1.358 . S
C43 C48 1.382 . S
C44 C43 1.358 . S
C44 C45 1.385 . S
C44 H72 0.930 . S
C45 C44 1.385 . S
C45 C46 1.395 . S
C45 H73 0.929 . S
C46 C45 1.395 . S
C46 C47 1.335 . S
C47 C46 1.335 . S
C47 C48 1.398 . S
C47 H74 0.930 . S
C48 C43 1.382 . S
C48 C47 1.398 . S
C48 H75 0.929 . S
C49 O62 1.271 . S
C49 O63 1.251 . S
C50 O64 1.252 . S
C50 O65 1.272 . S
C51 Sm41 2.846 . S
C51 C52 1.506 . S
C51 O66 1.261 . S
C51 O67 1.242 . S
C52 C51 1.506 . S
C52 C53 1.358 . S
C52 C57 1.382 . S
C53 C52 1.358 . S
C53 C54 1.385 . S
C53 H76 0.930 . S
C54 C53 1.385 . S
C54 C55 1.395 . S
C54 H77 0.929 . S
C55 C54 1.395 . S
C55 C56 1.335 . S
C56 C55 1.335 . S
C56 C57 1.398 . S
C56 H78 0.930 . S
C57 C52 1.382 . S
C57 C56 1.398 . S
C57 H79 0.929 . S
C58 O68 1.271 . S
C58 O69 1.251 . S
C59 O70 1.252 . S
C59 O71 1.272 . S
O60 Sm40 2.543 . S
O60 C42 1.261 . S
O61 Sm40 2.450 . S
O61 C42 1.242 . S
O62 Sm40 2.681 . S
O62 Sm41 2.386 . S
O62 C49 1.271 . S
O63 Sm40 2.464 . S
O63 C49 1.251 . S
O64 Sm40 2.396 . S
O64 C50 1.252 . S
O65 Sm41 2.408 . S
O65 C50 1.272 . S
O66 Sm41 2.543 . S
O66 C51 1.261 . S
O67 Sm41 2.450 . S
O67 C51 1.242 . S
O68 Sm40 2.386 . S
O68 Sm41 2.681 . S
O68 C58 1.271 . S
O69 Sm41 2.464 . S
O69 C58 1.251 . S
O70 Sm41 2.396 . S
O70 C59 1.252 . S
O71 Sm40 2.408 . S
O71 C59 1.272 . S
H72 C44 0.930 . S
H73 C45 0.929 . S
H74 C47 0.930 . S
H75 C48 0.929 . S
H76 C53 0.930 . S
H77 C54 0.929 . S
H78 C56 0.930 . S
H79 C57 0.929 . S
Sm80 C82 2.846 . S
Sm80 O100 2.543 . S
Sm80 O101 2.450 . S
Sm80 O102 2.681 . S
Sm80 O103 2.464 . S
Sm80 O104 2.396 . S
Sm80 O108 2.386 . S
Sm80 O111 2.408 . S
Sm81 C91 2.846 1_556 S
Sm81 O102 2.386 . S
Sm81 O105 2.408 . S
Sm81 O106 2.543 . S
Sm81 O107 2.450 . S
Sm81 O108 2.681 . S
Sm81 O109 2.464 . S
Sm81 O110 2.396 . S
C82 Sm80 2.846 . S
C82 C83 1.506 . S
C82 O100 1.261 . S
C82 O101 1.242 . S
C83 C82 1.506 . S
C83 C84 1.358 . S
C83 C88 1.382 . S
C84 C83 1.358 . S
C84 C85 1.385 . S
C84 H112 0.930 . S
C85 C84 1.385 . S
C85 C86 1.395 . S
C85 H113 0.929 . S
C86 C85 1.395 . S
C86 C87 1.335 . S
C87 C86 1.335 . S
C87 C88 1.398 . S
C87 H114 0.930 . S
C88 C83 1.382 . S
C88 C87 1.398 . S
C88 H115 0.929 . S
C89 O102 1.271 . S
C89 O103 1.251 . S
C90 O104 1.252 . S
C90 O105 1.272 . S
C91 Sm81 2.846 1_554 S
C91 C92 1.506 . S
C91 O106 1.261 1_554 S
C91 O107 1.242 1_554 S
C92 C91 1.506 . S
C92 C93 1.358 . S
C92 C97 1.382 . S
C93 C92 1.358 . S
C93 C94 1.385 . S
C93 H116 0.930 . S
C94 C93 1.385 . S
C94 C95 1.395 . S
C94 H117 0.929 . S
C95 C94 1.395 . S
C95 C96 1.335 . S
C96 C95 1.335 . S
C96 C97 1.398 . S
C96 H118 0.930 . S
C97 C92 1.382 . S
C97 C96 1.398 . S
C97 H119 0.929 . S
C98 O108 1.271 . S
C98 O109 1.251 . S
C99 O110 1.252 . S
C99 O111 1.272 . S
O100 Sm80 2.543 . S
O100 C82 1.261 . S
O101 Sm80 2.450 . S
O101 C82 1.242 . S
O102 Sm80 2.681 . S
O102 Sm81 2.386 . S
O102 C89 1.271 . S
O103 Sm80 2.464 . S
O103 C89 1.251 . S
O104 Sm80 2.396 . S
O104 C90 1.252 . S
O105 Sm81 2.408 . S
O105 C90 1.272 . S
O106 Sm81 2.543 . S
O106 C91 1.261 1_556 S
O107 Sm81 2.450 . S
O107 C91 1.242 1_556 S
O108 Sm80 2.386 . S
O108 Sm81 2.681 . S
O108 C98 1.271 . S
O109 Sm81 2.464 . S
O109 C98 1.251 . S
O110 Sm81 2.396 . S
O110 C99 1.252 . S
O111 Sm80 2.408 . S
O111 C99 1.272 . S
H112 C84 0.930 . S
H113 C85 0.929 . S
H114 C87 0.930 . S
H115 C88 0.929 . S
H116 C93 0.930 . S
H117 C94 0.929 . S
H118 C96 0.930 . S
H119 C97 0.929 . S
Sm120 C122 2.846 . S
Sm120 O140 2.543 . S
Sm120 O141 2.450 . S
Sm120 O142 2.681 1_554 S
Sm120 O143 2.464 . S
Sm120 O144 2.396 . S
Sm120 O148 2.386 . S
Sm120 O151 2.408 . S
Sm121 C131 2.846 . S
Sm121 O142 2.386 . S
Sm121 O145 2.408 1_556 S
Sm121 O146 2.543 . S
Sm121 O147 2.450 . S
Sm121 O148 2.681 1_556 S
Sm121 O149 2.464 . S
Sm121 O150 2.396 . S
C122 Sm120 2.846 . S
C122 C123 1.506 . S
C122 O140 1.261 . S
C122 O141 1.242 . S
C123 C122 1.506 . S
C123 C124 1.358 . S
C123 C128 1.382 . S
C124 C123 1.358 . S
C124 C125 1.385 . S
C124 H152 0.930 . S
C125 C124 1.385 . S
C125 C126 1.395 . S
C125 H153 0.929 . S
C126 C125 1.395 . S
C126 C127 1.335 . S
C127 C126 1.335 . S
C127 C128 1.398 . S
C127 H154 0.930 . S
C128 C123 1.382 . S
C128 C127 1.398 . S
C128 H155 0.929 . S
C129 O142 1.271 1_554 S
C129 O143 1.251 . S
C130 O144 1.252 . S
C130 O145 1.272 . S
C131 Sm121 2.846 . S
C131 C132 1.506 . S
C131 O146 1.261 . S
C131 O147 1.242 . S
C132 C131 1.506 . S
C132 C133 1.358 . S
C132 C137 1.382 . S
C133 C132 1.358 . S
C133 C134 1.385 . S
C133 H156 0.930 . S
C134 C133 1.385 . S
C134 C135 1.395 . S
C134 H157 0.929 . S
C135 C134 1.395 . S
C135 C136 1.335 . S
C136 C135 1.335 . S
C136 C137 1.398 . S
C136 H158 0.930 . S
C137 C132 1.382 . S
C137 C136 1.398 . S
C137 H159 0.929 . S
C138 O148 1.271 . S
C138 O149 1.251 1_554 S
C139 O150 1.252 . S
C139 O151 1.272 1_556 S
O140 Sm120 2.543 . S
O140 C122 1.261 . S
O141 Sm120 2.450 . S
O141 C122 1.242 . S
O142 Sm120 2.681 1_556 S
O142 Sm121 2.386 . S
O142 C129 1.271 1_556 S
O143 Sm120 2.464 . S
O143 C129 1.251 . S
O144 Sm120 2.396 . S
O144 C130 1.252 . S
O145 Sm121 2.408 1_554 S
O145 C130 1.272 . S
O146 Sm121 2.543 . S
O146 C131 1.261 . S
O147 Sm121 2.450 . S
O147 C131 1.242 . S
O148 Sm120 2.386 . S
O148 Sm121 2.681 1_554 S
O148 C138 1.271 . S
O149 Sm121 2.464 . S
O149 C138 1.251 1_556 S
O150 Sm121 2.396 . S
O150 C139 1.252 . S
O151 Sm120 2.408 . S
O151 C139 1.272 1_554 S
H152 C124 0.930 . S
H153 C125 0.929 . S
H154 C127 0.930 . S
H155 C128 0.929 . S
H156 C133 0.930 . S
H157 C134 0.929 . S
H158 C136 0.930 . S
H159 C137 0.929 . S
Sm160 C162 2.846 . S
Sm160 O180 2.543 . S
Sm160 O181 2.450 . S
Sm160 O182 2.681 . S
Sm160 O183 2.464 . S
Sm160 O184 2.396 . S
Sm160 O188 2.386 . S
Sm160 O191 2.408 . S
Sm161 C171 2.846 . S
Sm161 O182 2.386 . S
Sm161 O185 2.408 . S
Sm161 O186 2.543 . S
Sm161 O187 2.450 . S
Sm161 O188 2.681 . S
Sm161 O189 2.464 . S
Sm161 O190 2.396 . S
C162 Sm160 2.846 . S
C162 C163 1.506 . S
C162 O180 1.261 . S
C162 O181 1.242 . S
C163 C162 1.506 . S
C163 C164 1.358 . S
C163 C168 1.382 . S
C164 C163 1.358 . S
C164 C165 1.385 . S
C164 H192 0.930 . S
C165 C164 1.385 . S
C165 C166 1.395 . S
C165 H193 0.929 . S
C166 C165 1.395 . S
C166 C167 1.335 . S
C167 C166 1.335 . S
C167 C168 1.398 . S
C167 H194 0.930 . S
C168 C163 1.382 . S
C168 C167 1.398 . S
C168 H195 0.929 . S
C169 O182 1.271 . S
C169 O183 1.251 . S
C170 O184 1.252 . S
C170 O185 1.272 . S
C171 Sm161 2.846 . S
C171 C172 1.506 . S
C171 O186 1.261 . S
C171 O187 1.242 . S
C172 C171 1.506 . S
C172 C173 1.358 . S
C172 C177 1.382 . S
C173 C172 1.358 . S
C173 C174 1.385 . S
C173 H196 0.930 . S
C174 C173 1.385 . S
C174 C175 1.395 . S
C174 H197 0.929 . S
C175 C174 1.395 . S
C175 C176 1.335 . S
C176 C175 1.335 . S
C176 C177 1.398 . S
C176 H198 0.930 . S
C177 C172 1.382 . S
C177 C176 1.398 . S
C177 H199 0.929 . S
C178 O188 1.271 . S
C178 O189 1.251 . S
C179 O190 1.252 . S
C179 O191 1.272 . S
O180 Sm160 2.543 . S
O180 C162 1.261 . S
O181 Sm160 2.450 . S
O181 C162 1.242 . S
O182 Sm160 2.681 . S
O182 Sm161 2.386 . S
O182 C169 1.271 . S
O183 Sm160 2.464 . S
O183 C169 1.251 . S
O184 Sm160 2.396 . S
O184 C170 1.252 . S
O185 Sm161 2.408 . S
O185 C170 1.272 . S
O186 Sm161 2.543 . S
O186 C171 1.261 . S
O187 Sm161 2.450 . S
O187 C171 1.242 . S
O188 Sm160 2.386 . S
O188 Sm161 2.681 . S
O188 C178 1.271 . S
O189 Sm161 2.464 . S
O189 C178 1.251 . S
O190 Sm161 2.396 . S
O190 C179 1.252 . S
O191 Sm160 2.408 . S
O191 C179 1.272 . S
H192 C164 0.930 . S
H193 C165 0.929 . S
H194 C167 0.930 . S
H195 C168 0.929 . S
H196 C173 0.930 . S
H197 C174 0.929 . S
H198 C176 0.930 . S
H199 C177 0.929 . S
Sm200 C202 2.846 . S
Sm200 O220 2.543 . S
Sm200 O221 2.450 . S
Sm200 O222 2.681 . S
Sm200 O223 2.464 . S
Sm200 O224 2.396 . S
Sm200 O228 2.386 . S
Sm200 O231 2.408 . S
Sm201 C211 2.846 . S
Sm201 O222 2.386 . S
Sm201 O225 2.408 . S
Sm201 O226 2.543 . S
Sm201 O227 2.450 . S
Sm201 O228 2.681 . S
Sm201 O229 2.464 . S
Sm201 O230 2.396 . S
C202 Sm200 2.846 . S
C202 C203 1.506 . S
C202 O220 1.261 . S
C202 O221 1.242 . S
C203 C202 1.506 . S
C203 C204 1.358 . S
C203 C208 1.382 . S
C204 C203 1.358 . S
C204 C205 1.385 . S
C204 H232 0.930 . S
C205 C204 1.385 . S
C205 C206 1.395 . S
C205 H233 0.929 . S
C206 C205 1.395 . S
C206 C207 1.335 . S
C207 C206 1.335 . S
C207 C208 1.398 . S
C207 H234 0.930 . S
C208 C203 1.382 . S
C208 C207 1.398 . S
C208 H235 0.929 . S
C209 O222 1.271 . S
C209 O223 1.251 . S
C210 O224 1.252 . S
C210 O225 1.272 . S
C211 Sm201 2.846 . S
C211 C212 1.506 . S
C211 O226 1.261 . S
C211 O227 1.242 . S
C212 C211 1.506 . S
C212 C213 1.358 . S
C212 C217 1.382 . S
C213 C212 1.358 . S
C213 C214 1.385 . S
C213 H236 0.930 . S
C214 C213 1.385 . S
C214 C215 1.395 . S
C214 H237 0.929 . S
C215 C214 1.395 . S
C215 C216 1.335 . S
C216 C215 1.335 . S
C216 C217 1.398 . S
C216 H238 0.930 . S
C217 C212 1.382 . S
C217 C216 1.398 . S
C217 H239 0.929 . S
C218 O228 1.271 . S
C218 O229 1.251 . S
C219 O230 1.252 . S
C219 O231 1.272 . S
O220 Sm200 2.543 . S
O220 C202 1.261 . S
O221 Sm200 2.450 . S
O221 C202 1.242 . S
O222 Sm200 2.681 . S
O222 Sm201 2.386 . S
O222 C209 1.271 . S
O223 Sm200 2.464 . S
O223 C209 1.251 . S
O224 Sm200 2.396 . S
O224 C210 1.252 . S
O225 Sm201 2.408 . S
O225 C210 1.272 . S
O226 Sm201 2.543 . S
O226 C211 1.261 . S
O227 Sm201 2.450 . S
O227 C211 1.242 . S
O228 Sm200 2.386 . S
O228 Sm201 2.681 . S
O228 C218 1.271 . S
O229 Sm201 2.464 . S
O229 C218 1.251 . S
O230 Sm201 2.396 . S
O230 C219 1.252 . S
O231 Sm200 2.408 . S
O231 C219 1.272 . S
H232 C204 0.930 . S
H233 C205 0.929 . S
H234 C207 0.930 . S
H235 C208 0.929 . S
H236 C213 0.930 . S
H237 C214 0.929 . S
H238 C216 0.930 . S
H239 C217 0.929 . S
H240 C258 0.951 . S
H241 C260 0.951 . S
H242 C262 0.950 . S
H243 C263 0.950 . S
H244 C265 0.950 . S
H245 C268 0.950 . S
H246 C269 0.950 . S
H247 C271 0.950 . S
H248 C272 0.950 . S
H249 C273 0.951 . S
H250 C275 0.951 . S
H251 C277 0.950 . S
H252 C278 0.950 . S
H253 C280 0.950 . S
H254 C283 0.950 . S
H255 C284 0.950 . S
H256 C286 0.950 . S
H257 C287 0.949 . S
C258 H240 0.951 . S
C258 C259 1.366 . S
C258 C260 1.388 . S
C259 C258 1.366 . S
C259 C263 1.385 . S
C260 H241 0.951 . S
C260 C258 1.388 . S
C260 C261 1.366 . S
C261 C260 1.366 . S
C261 C262 1.414 . S
C261 C264 1.499 . S
C262 H242 0.950 . S
C262 C261 1.414 . S
C262 C263 1.374 . S
C263 H243 0.950 . S
C263 C259 1.385 . S
C263 C262 1.374 . S
C264 C261 1.499 . S
C264 C265 1.373 . S
C264 C266 1.389 . S
C265 H244 0.950 . S
C265 C264 1.373 . S
C265 C281 1.377 . S
C266 C264 1.389 . S
C266 C267 1.524 . S
C266 C280 1.377 . S
C267 C266 1.524 . S
C267 C268 1.397 . S
C267 C272 1.363 . S
C268 H245 0.950 . S
C268 C267 1.397 . S
C268 C269 1.334 . S
C269 H246 0.950 . S
C269 C268 1.334 . S
C269 C270 1.287 . S
C270 C269 1.287 . S
C270 C271 1.524 . S
C270 H289 0.913 . S
C271 H247 0.950 . S
C271 C270 1.524 . S
C271 C272 1.415 . S
C272 H248 0.950 . S
C272 C267 1.363 . S
C272 C271 1.415 . S
C273 H249 0.951 . S
C273 C274 1.366 . S
C273 C275 1.388 . S
C274 C273 1.366 . S
C274 C278 1.385 . S
C275 H250 0.951 . S
C275 C273 1.388 . S
C275 C276 1.366 . S
C276 C275 1.366 . S
C276 C277 1.414 . S
C276 C279 1.499 1_554 S
C277 H251 0.950 . S
C277 C276 1.414 . S
C277 C278 1.374 . S
C278 H252 0.950 . S
C278 C274 1.385 . S
C278 C277 1.374 . S
C279 C276 1.499 1_556 S
C279 C280 1.373 . S
C279 C281 1.389 . S
C280 H253 0.950 . S
C280 C266 1.377 . S
C280 C279 1.373 . S
C281 C265 1.377 . S
C281 C279 1.389 . S
C281 C282 1.524 1_556 S
C282 C281 1.524 1_554 S
C282 C283 1.397 . S
C282 C287 1.363 1_554 S
C283 H254 0.950 . S
C283 C282 1.397 . S
C283 C284 1.334 . S
C284 H255 0.950 . S
C284 C283 1.334 . S
C284 C285 1.287 . S
C285 C284 1.287 . S
C285 C286 1.524 . S
C285 H288 0.999 . S
C286 H256 0.950 . S
C286 C285 1.524 . S
C286 C287 1.416 1_554 S
C287 H257 0.949 . S
C287 C282 1.363 1_556 S
C287 C286 1.416 1_556 S
H288 C285 0.999 . S
H289 C270 0.913 . S
H290 C308 0.951 . S
H291 C310 0.951 . S
H292 C312 0.950 . S
H293 C313 0.950 . S
H294 C315 0.950 . S
H295 C318 0.950 . S
H296 C319 0.950 . S
H297 C321 0.950 . S
H298 C322 0.950 1_655 S
H299 C323 0.951 . S
H300 C325 0.951 . S
H301 C327 0.950 . S
H302 C328 0.950 . S
H303 C330 0.950 . S
H304 C333 0.950 . S
H305 C334 0.950 . S
H306 C336 0.950 . S
H307 C337 0.950 1_455 S
C308 H290 0.951 . S
C308 C309 1.366 . S
C308 C310 1.388 . S
C309 C308 1.366 . S
C309 C313 1.385 . S
C310 H291 0.951 . S
C310 C308 1.388 . S
C310 C311 1.366 . S
C311 C310 1.366 . S
C311 C312 1.414 . S
C311 C314 1.499 . S
C312 H292 0.950 . S
C312 C311 1.414 . S
C312 C313 1.374 . S
C313 H293 0.950 . S
C313 C309 1.385 . S
C313 C312 1.374 . S
C314 C311 1.499 . S
C314 C315 1.373 . S
C314 C316 1.389 . S
C315 H294 0.950 . S
C315 C314 1.373 . S
C315 C331 1.377 1_455 S
C316 C314 1.389 . S
C316 C317 1.524 . S
C316 C330 1.377 1_455 S
C317 C316 1.524 . S
C317 C318 1.397 . S
C317 C322 1.363 . S
C318 H295 0.950 . S
C318 C317 1.397 . S
C318 C319 1.334 . S
C319 H296 0.950 . S
C319 C318 1.334 . S
C319 C320 1.287 . S
C320 C319 1.287 . S
C320 C321 1.524 . S
C320 H339 0.913 . S
C321 H297 0.950 . S
C321 C320 1.524 . S
C321 C322 1.415 . S
C322 H298 0.950 1_455 S
C322 C317 1.363 . S
C322 C321 1.415 . S
C323 H299 0.951 . S
C323 C324 1.366 . S
C323 C325 1.388 . S
C324 C323 1.366 . S
C324 C328 1.385 . S
C325 H300 0.951 . S
C325 C323 1.388 . S
C325 C326 1.366 . S
C326 C325 1.366 . S
C326 C327 1.414 . S
C326 C329 1.499 . S
C327 H301 0.950 . S
C327 C326 1.414 . S
C327 C328 1.374 . S
C328 H302 0.950 . S
C328 C324 1.385 . S
C328 C327 1.374 . S
C329 C326 1.499 . S
C329 C330 1.373 . S
C329 C331 1.389 . S
C330 H303 0.950 . S
C330 C316 1.377 1_655 S
C330 C329 1.373 . S
C331 C315 1.377 1_655 S
C331 C329 1.389 . S
C331 C332 1.524 . S
C332 C331 1.524 . S
C332 C333 1.397 . S
C332 C337 1.363 . S
C333 H304 0.950 . S
C333 C332 1.397 . S
C333 C334 1.334 . S
C334 H305 0.950 . S
C334 C333 1.334 . S
C334 C335 1.287 . S
C335 C334 1.287 . S
C335 C336 1.524 . S
C335 H338 0.999 . S
C336 H306 0.950 . S
C336 C335 1.524 . S
C336 C337 1.415 . S
C337 H307 0.950 1_655 S
C337 C332 1.363 . S
C337 C336 1.415 . S
H338 C335 0.999 . S
H339 C320 0.913 . S
H340 C358 0.951 . S
H341 C360 0.951 . S
H342 C362 0.979 . S
H343 C363 0.950 . S
H344 C365 0.950 . S
H345 C368 0.950 . S
H346 C369 0.950 . S
H347 C371 0.950 . S
H348 C372 0.950 . S
H349 C373 0.951 . S
H350 C375 0.951 . S
H351 C377 0.978 . S
H352 C378 0.950 . S
H353 C380 0.950 . S
H354 C383 0.950 . S
H355 C384 0.950 . S
H356 C386 0.950 . S
H357 C387 0.950 . S
C358 H340 0.951 . S
C358 C359 1.366 . S
C358 C360 1.388 . S
C359 C358 1.366 . S
C359 C363 1.385 . S
C360 H341 0.951 . S
C360 C358 1.388 . S
C360 C361 1.366 . S
C361 C360 1.366 . S
C361 C362 1.414 . S
C361 C364 1.499 . S
C362 H342 0.979 . S
C362 C361 1.414 . S
C362 C363 1.374 . S
C363 H343 0.950 . S
C363 C359 1.385 . S
C363 C362 1.374 . S
C364 C361 1.499 . S
C364 C365 1.373 1_545 S
C364 C366 1.389 . S
C365 H344 0.950 . S
C365 C364 1.373 1_565 S
C365 C381 1.377 . S
C366 C364 1.389 . S
C366 C367 1.524 . S
C366 C380 1.377 . S
C367 C366 1.524 . S
C367 C368 1.397 . S
C367 C372 1.363 . S
C368 H345 0.950 . S
C368 C367 1.397 . S
C368 C369 1.334 . S
C369 H346 0.950 . S
C369 C368 1.334 . S
C369 C370 1.287 . S
C370 C369 1.287 . S
C370 C371 1.524 . S
C370 H389 0.913 . S
C371 H347 0.950 . S
C371 C370 1.524 . S
C371 C372 1.415 . S
C372 H348 0.950 . S
C372 C367 1.363 . S
C372 C371 1.415 . S
C373 H349 0.951 . S
C373 C374 1.366 . S
C373 C375 1.388 . S
C374 C373 1.366 . S
C374 C378 1.385 . S
C375 H350 0.951 . S
C375 C373 1.388 . S
C375 C376 1.366 . S
C376 C375 1.366 . S
C376 C377 1.414 . S
C376 C379 1.499 . S
C377 H351 0.978 . S
C377 C376 1.414 . S
C377 C378 1.374 . S
C378 H352 0.950 . S
C378 C374 1.385 . S
C378 C377 1.374 . S
C379 C376 1.499 . S
C379 C380 1.373 1_565 S
C379 C381 1.389 . S
C380 H353 0.950 . S
C380 C366 1.377 . S
C380 C379 1.373 1_545 S
C381 C365 1.377 . S
C381 C379 1.389 . S
C381 C382 1.524 . S
C382 C381 1.524 . S
C382 C383 1.397 . S
C382 C387 1.363 . S
C383 H354 0.950 . S
C383 C382 1.397 . S
C383 C384 1.334 . S
C384 H355 0.950 . S
C384 C383 1.334 . S
C384 C385 1.287 . S
C385 C384 1.287 . S
C385 C386 1.524 . S
C385 H388 0.999 . S
C386 H356 0.950 . S
C386 C385 1.524 . S
C386 C387 1.415 . S
C387 H357 0.950 . S
C387 C382 1.363 . S
C387 C386 1.415 . S
H388 C385 0.999 . S
H389 C370 0.913 . S
H390 C408 0.951 . S
H391 C410 0.951 . S
H392 C412 0.950 . S
H393 C413 0.950 . S
H394 C415 0.950 . S
H395 C418 0.950 . S
H396 C419 0.950 . S
H397 C421 0.950 . S
H398 C422 0.950 . S
H399 C423 0.951 . S
H400 C425 0.951 . S
H401 C427 0.950 . S
H402 C428 0.950 . S
H403 C430 0.950 1_554 S
H404 C433 0.950 . S
H405 C434 0.950 . S
H406 C436 0.950 . S
H407 C437 0.950 . S
C408 H390 0.951 . S
C408 C409 1.366 . S
C408 C410 1.388 . S
C409 C408 1.366 . S
C409 C413 1.385 . S
C410 H391 0.951 . S
C410 C408 1.388 . S
C410 C411 1.366 . S
C411 C410 1.366 . S
C411 C412 1.414 . S
C411 C414 1.499 . S
C412 H392 0.950 . S
C412 C411 1.414 . S
C412 C413 1.374 . S
C413 H393 0.950 . S
C413 C409 1.385 . S
C413 C412 1.374 . S
C414 C411 1.499 . S
C414 C415 1.373 . S
C414 C416 1.389 . S
C415 H394 0.950 . S
C415 C414 1.373 . S
C415 C431 1.377 . S
C416 C414 1.389 . S
C416 C417 1.524 1_556 S
C416 C430 1.377 . S
C417 C416 1.524 1_554 S
C417 C418 1.397 . S
C417 C422 1.363 . S
C418 H395 0.950 . S
C418 C417 1.397 . S
C418 C419 1.334 . S
C419 H396 0.950 . S
C419 C418 1.334 . S
C419 C420 1.287 . S
C420 C419 1.287 . S
C420 C421 1.524 . S
C420 H439 0.913 . S
C421 H397 0.950 . S
C421 C420 1.524 . S
C421 C422 1.415 . S
C422 H398 0.950 . S
C422 C417 1.363 . S
C422 C421 1.415 . S
C423 H399 0.951 . S
C423 C424 1.366 . S
C423 C425 1.388 . S
C424 C423 1.366 . S
C424 C428 1.385 . S
C425 H400 0.951 . S
C425 C423 1.388 . S
C425 C426 1.366 . S
C426 C425 1.366 . S
C426 C427 1.414 . S
C426 C429 1.499 . S
C427 H401 0.950 . S
C427 C426 1.414 . S
C427 C428 1.374 . S
C428 H402 0.950 . S
C428 C424 1.385 . S
C428 C427 1.374 . S
C429 C426 1.499 . S
C429 C430 1.373 . S
C429 C431 1.389 . S
C430 H403 0.950 1_556 S
C430 C416 1.377 . S
C430 C429 1.373 . S
C431 C415 1.377 . S
C431 C429 1.389 . S
C431 C432 1.524 . S
C432 C431 1.524 . S
C432 C433 1.397 . S
C432 C437 1.363 . S
C433 H404 0.950 . S
C433 C432 1.397 . S
C433 C434 1.334 . S
C434 H405 0.950 . S
C434 C433 1.334 . S
C434 C435 1.287 . S
C435 C434 1.287 . S
C435 C436 1.524 . S
C435 H438 0.999 . S
C436 H406 0.950 . S
C436 C435 1.524 . S
C436 C437 1.415 . S
C437 H407 0.950 . S
C437 C432 1.363 . S
C437 C436 1.415 . S
H438 C435 0.999 . S
H439 C420 0.913 . S
H440 C458 0.951 . S
H441 C460 0.951 . S
H442 C462 0.950 . S
H443 C463 0.950 . S
H444 C465 0.950 . S
H445 C468 0.950 . S
H446 C469 0.950 . S
H447 C471 0.950 . S
H448 C472 0.950 . S
H449 C473 0.951 . S
H450 C475 0.951 . S
H451 C477 0.950 . S
H452 C478 0.950 . S
H453 C480 0.950 . S
H454 C483 0.950 . S
H455 C484 0.950 . S
H456 C486 0.950 . S
H457 C487 0.950 . S
C458 H440 0.951 . S
C458 C459 1.366 . S
C458 C460 1.388 . S
C459 C458 1.366 . S
C459 C463 1.385 . S
C460 H441 0.951 . S
C460 C458 1.388 . S
C460 C461 1.366 . S
C461 C460 1.366 . S
C461 C462 1.414 . S
C461 C464 1.499 . S
C462 H442 0.950 . S
C462 C461 1.414 . S
C462 C463 1.374 . S
C463 H443 0.950 . S
C463 C459 1.385 . S
C463 C462 1.374 . S
C464 C461 1.499 . S
C464 C465 1.373 1_455 S
C464 C466 1.389 . S
C465 H444 0.950 . S
C465 C464 1.373 1_655 S
C465 C481 1.377 . S
C466 C464 1.389 . S
C466 C467 1.524 . S
C466 C480 1.377 . S
C467 C466 1.524 . S
C467 C468 1.397 . S
C467 C472 1.363 . S
C468 H445 0.950 . S
C468 C467 1.397 . S
C468 C469 1.334 . S
C469 H446 0.950 . S
C469 C468 1.334 . S
C469 C470 1.287 . S
C470 C469 1.287 . S
C470 C471 1.524 . S
C470 H489 0.913 . S
C471 H447 0.950 . S
C471 C470 1.524 . S
C471 C472 1.415 . S
C472 H448 0.950 . S
C472 C467 1.363 . S
C472 C471 1.415 . S
C473 H449 0.951 . S
C473 C474 1.366 . S
C473 C475 1.388 . S
C474 C473 1.366 . S
C474 C478 1.385 . S
C475 H450 0.951 . S
C475 C473 1.388 . S
C475 C476 1.366 . S
C476 C475 1.366 . S
C476 C477 1.414 . S
C476 C479 1.499 . S
C477 H451 0.950 . S
C477 C476 1.414 . S
C477 C478 1.374 . S
C478 H452 0.950 . S
C478 C474 1.385 . S
C478 C477 1.374 . S
C479 C476 1.499 . S
C479 C480 1.373 1_655 S
C479 C481 1.389 . S
C480 H453 0.950 . S
C480 C466 1.377 . S
C480 C479 1.373 1_455 S
C481 C465 1.377 . S
C481 C479 1.389 . S
C481 C482 1.524 . S
C482 C481 1.524 . S
C482 C483 1.397 . S
C482 C487 1.363 . S
C483 H454 0.950 . S
C483 C482 1.397 . S
C483 C484 1.334 . S
C484 H455 0.950 . S
C484 C483 1.334 . S
C484 C485 1.287 . S
C485 C484 1.287 . S
C485 C486 1.524 . S
C485 H488 0.999 . S
C486 H456 0.950 . S
C486 C485 1.524 . S
C486 C487 1.415 . S
C487 H457 0.950 . S
C487 C482 1.363 . S
C487 C486 1.415 . S
H488 C485 0.999 . S
H489 C470 0.913 . S
H490 C508 0.951 . S
H491 C510 0.951 . S
H492 C512 0.950 . S
H493 C513 0.950 . S
H494 C515 0.950 . S
H495 C518 0.950 . S
H496 C519 0.950 . S
H497 C521 0.950 1_565 S
H498 C522 0.950 1_565 S
H499 C523 0.951 . S
H500 C525 0.951 . S
H501 C527 0.950 . S
H502 C528 0.950 . S
H503 C530 0.950 . S
H504 C533 0.950 . S
H505 C534 0.950 . S
H506 C536 0.950 1_545 S
H507 C537 0.950 1_545 S
C508 H490 0.951 . S
C508 C509 1.366 . S
C508 C510 1.388 . S
C509 C508 1.366 . S
C509 C513 1.385 . S
C510 H491 0.951 . S
C510 C508 1.388 . S
C510 C511 1.366 . S
C511 C510 1.366 . S
C511 C512 1.414 . S
C511 C514 1.499 . S
C512 H492 0.950 . S
C512 C511 1.414 . S
C512 C513 1.374 . S
C513 H493 0.950 . S
C513 C509 1.385 . S
C513 C512 1.374 . S
C514 C511 1.499 . S
C514 C515 1.373 . S
C514 C516 1.389 . S
C515 H494 0.950 . S
C515 C514 1.373 . S
C515 C531 1.377 1_545 S
C516 C514 1.389 . S
C516 C517 1.524 . S
C516 C530 1.377 1_545 S
C517 C516 1.524 . S
C517 C518 1.397 . S
C517 C522 1.363 . S
C518 H495 0.950 . S
C518 C517 1.397 . S
C518 C519 1.334 . S
C519 H496 0.950 . S
C519 C518 1.334 . S
C519 C520 1.287 . S
C520 C519 1.287 . S
C520 C521 1.524 . S
C520 H539 0.913 . S
C521 H497 0.950 1_545 S
C521 C520 1.524 . S
C521 C522 1.415 . S
C522 H498 0.950 1_545 S
C522 C517 1.363 . S
C522 C521 1.415 . S
C523 H499 0.951 . S
C523 C524 1.366 . S
C523 C525 1.388 . S
C524 C523 1.366 . S
C524 C528 1.385 . S
C525 H500 0.951 . S
C525 C523 1.388 . S
C525 C526 1.366 . S
C526 C525 1.366 . S
C526 C527 1.414 . S
C526 C529 1.499 . S
C527 H501 0.950 . S
C527 C526 1.414 . S
C527 C528 1.374 . S
C528 H502 0.950 . S
C528 C524 1.385 . S
C528 C527 1.374 . S
C529 C526 1.499 . S
C529 C530 1.373 . S
C529 C531 1.389 . S
C530 H503 0.950 . S
C530 C516 1.377 1_565 S
C530 C529 1.373 . S
C531 C515 1.377 1_565 S
C531 C529 1.389 . S
C531 C532 1.524 . S
C532 C531 1.524 . S
C532 C533 1.397 . S
C532 C537 1.363 . S
C533 H504 0.950 . S
C533 C532 1.397 . S
C533 C534 1.334 . S
C534 H505 0.950 . S
C534 C533 1.334 . S
C534 C535 1.287 . S
C535 C534 1.287 . S
C535 C536 1.524 . S
C535 H538 0.999 . S
C536 H506 0.950 1_565 S
C536 C535 1.524 . S
C536 C537 1.415 . S
C537 H507 0.950 1_565 S
C537 C532 1.363 . S
C537 C536 1.415 . S
H538 C535 0.999 . S
H539 C520 0.913 . S
H540 C558 0.951 . S
H541 C560 0.951 . S
H542 C562 0.950 . S
H543 C563 0.950 . S
H544 C565 0.950 . S
H545 C568 0.950 . S
H546 C569 0.950 . S
H547 C571 0.950 . S
H548 C572 0.950 . S
H549 C573 0.951 . S
H550 C575 0.951 . S
H551 C577 0.950 . S
H552 C578 0.950 . S
H553 C580 0.950 . S
H554 C583 0.950 . S
H555 C584 0.950 . S
H556 C586 0.950 . S
H557 C587 0.950 . S
C558 H540 0.951 . S
C558 C559 1.366 . S
C558 C560 1.388 . S
C559 C558 1.366 . S
C559 C563 1.385 . S
C560 H541 0.951 . S
C560 C558 1.388 . S
C560 C561 1.366 . S
C561 C560 1.366 . S
C561 C562 1.414 . S
C561 C564 1.499 . S
C562 H542 0.950 . S
C562 C561 1.414 . S
C562 C563 1.374 . S
C563 H543 0.950 . S
C563 C559 1.385 . S
C563 C562 1.374 . S
C564 C561 1.499 . S
C564 C565 1.373 . S
C564 C566 1.389 . S
C565 H544 0.950 . S
C565 C564 1.373 . S
C565 C581 1.377 . S
C566 C564 1.389 . S
C566 C567 1.524 . S
C566 C580 1.377 . S
C567 C566 1.524 . S
C567 C568 1.397 . S
C567 C572 1.363 . S
C568 H545 0.950 . S
C568 C567 1.397 . S
C568 C569 1.334 . S
C569 H546 0.950 . S
C569 C568 1.334 . S
C569 C570 1.287 . S
C570 C569 1.287 . S
C570 C571 1.524 . S
C570 H589 0.913 . S
C571 H547 0.950 . S
C571 C570 1.524 . S
C571 C572 1.415 . S
C572 H548 0.950 . S
C572 C567 1.363 . S
C572 C571 1.415 . S
C573 H549 0.951 . S
C573 C574 1.366 . S
C573 C575 1.388 . S
C574 C573 1.366 . S
C574 C578 1.385 . S
C575 H550 0.951 . S
C575 C573 1.388 . S
C575 C576 1.366 . S
C576 C575 1.366 . S
C576 C577 1.414 . S
C576 C579 1.499 . S
C577 H551 0.950 . S
C577 C576 1.414 . S
C577 C578 1.374 . S
C578 H552 0.950 . S
C578 C574 1.385 . S
C578 C577 1.374 . S
C579 C576 1.499 . S
C579 C580 1.373 . S
C579 C581 1.389 . S
C580 H553 0.950 . S
C580 C566 1.377 . S
C580 C579 1.373 . S
C581 C565 1.377 . S
C581 C579 1.389 . S
C581 C582 1.524 . S
C582 C581 1.524 . S
C582 C583 1.397 . S
C582 C587 1.363 . S
C583 H554 0.950 . S
C583 C582 1.397 . S
C583 C584 1.334 . S
C584 H555 0.950 . S
C584 C583 1.334 . S
C584 C585 1.287 . S
C585 C584 1.287 . S
C585 C586 1.524 . S
C585 H588 0.999 . S
C586 H556 0.950 . S
C586 C585 1.524 . S
C586 C587 1.415 . S
C587 H557 0.950 . S
C587 C582 1.363 . S
C587 C586 1.415 . S
H588 C585 0.999 . S
H589 C570 0.913 . S
H590 C608 0.951 . S
H591 C610 0.951 . S
H592 C612 0.950 . S
H593 C613 0.950 . S
H594 C615 0.950 . S
H595 C618 0.950 . S
H596 C619 0.950 . S
H597 C621 0.950 . S
H598 C622 0.950 . S
H599 C623 0.951 . S
H600 C625 0.951 . S
H601 C627 0.950 . S
H602 C628 0.950 . S
H603 C630 0.950 . S
H604 C633 0.950 . S
H605 C634 0.950 . S
H606 C636 0.950 . S
H607 C637 0.950 . S
C608 H590 0.951 . S
C608 C609 1.366 . S
C608 C610 1.388 1_554 S
C609 C608 1.366 . S
C609 C613 1.385 . S
C610 H591 0.951 . S
C610 C608 1.388 1_556 S
C610 C611 1.366 . S
C611 C610 1.366 . S
C611 C612 1.414 . S
C611 C614 1.499 . S
C612 H592 0.950 . S
C612 C611 1.414 . S
C612 C613 1.374 1_556 S
C613 H593 0.950 . S
C613 C609 1.385 . S
C613 C612 1.374 1_554 S
C614 C611 1.499 . S
C614 C615 1.373 . S
C614 C616 1.389 . S
C615 H594 0.950 . S
C615 C614 1.373 . S
C615 C631 1.377 . S
C616 C614 1.389 . S
C616 C617 1.524 . S
C616 C630 1.377 . S
C617 C616 1.524 . S
C617 C618 1.397 . S
C617 C622 1.363 . S
C618 H595 0.950 . S
C618 C617 1.397 . S
C618 C619 1.334 . S
C619 H596 0.950 . S
C619 C618 1.334 . S
C619 C620 1.287 . S
C620 C619 1.287 . S
C620 C621 1.524 . S
C620 H639 0.913 . S
C621 H597 0.950 . S
C621 C620 1.524 . S
C621 C622 1.415 . S
C622 H598 0.950 . S
C622 C617 1.363 . S
C622 C621 1.415 . S
C623 H599 0.951 . S
C623 C624 1.366 . S
C623 C625 1.388 . S
C624 C623 1.366 . S
C624 C628 1.385 . S
C625 H600 0.951 . S
C625 C623 1.388 . S
C625 C626 1.366 . S
C626 C625 1.366 . S
C626 C627 1.414 . S
C626 C629 1.499 . S
C627 H601 0.950 . S
C627 C626 1.414 . S
C627 C628 1.374 . S
C628 H602 0.950 . S
C628 C624 1.385 . S
C628 C627 1.374 . S
C629 C626 1.499 . S
C629 C630 1.373 . S
C629 C631 1.389 . S
C630 H603 0.950 . S
C630 C616 1.377 . S
C630 C629 1.373 . S
C631 C615 1.377 . S
C631 C629 1.389 . S
C631 C632 1.524 . S
C632 C631 1.524 . S
C632 C633 1.397 . S
C632 C637 1.363 . S
C633 H604 0.950 . S
C633 C632 1.397 . S
C633 C634 1.334 . S
C634 H605 0.950 . S
C634 C633 1.334 . S
C634 C635 1.287 . S
C635 C634 1.287 . S
C635 C636 1.524 . S
C635 H638 0.999 . S
C636 H606 0.950 . S
C636 C635 1.524 . S
C636 C637 1.415 . S
C637 H607 0.950 . S
C637 C632 1.363 . S
C637 C636 1.415 . S
H638 C635 0.999 . S
H639 C620 0.913 . S
H640 C658 0.951 . S
H641 C660 0.951 . S
H642 C662 0.950 . S
H643 C663 0.950 . S
H644 C665 0.950 . S
H645 C668 0.950 . S
H646 C669 0.950 . S
H647 C671 0.950 . S
H648 C672 0.950 . S
H649 C673 0.951 . S
H650 C675 0.951 . S
H651 C677 0.950 . S
H652 C678 0.950 . S
H653 C680 0.950 . S
H654 C683 0.950 . S
H655 C684 0.950 . S
H656 C686 0.950 . S
H657 C687 0.950 . S
C658 H640 0.951 . S
C658 C659 1.366 . S
C658 C660 1.388 . S
C659 C658 1.366 . S
C659 C663 1.385 . S
C660 H641 0.951 . S
C660 C658 1.388 . S
C660 C661 1.366 . S
C661 C660 1.366 . S
C661 C662 1.414 . S
C661 C664 1.499 . S
C662 H642 0.950 . S
C662 C661 1.414 . S
C662 C663 1.374 . S
C663 H643 0.950 . S
C663 C659 1.385 . S
C663 C662 1.374 . S
C664 C661 1.499 . S
C664 C665 1.373 . S
C664 C666 1.389 . S
C665 H644 0.950 . S
C665 C664 1.373 . S
C665 C681 1.377 . S
C666 C664 1.389 . S
C666 C667 1.524 . S
C666 C680 1.377 . S
C667 C666 1.524 . S
C667 C668 1.397 . S
C667 C672 1.363 . S
C668 H645 0.950 . S
C668 C667 1.397 . S
C668 C669 1.334 . S
C669 H646 0.950 . S
C669 C668 1.334 . S
C669 C670 1.287 . S
C670 C669 1.287 . S
C670 C671 1.524 . S
C670 H689 0.913 . S
C671 H647 0.950 . S
C671 C670 1.524 . S
C671 C672 1.415 . S
C672 H648 0.950 . S
C672 C667 1.363 . S
C672 C671 1.415 . S
C673 H649 0.951 . S
C673 C674 1.366 . S
C673 C675 1.388 . S
C674 C673 1.366 . S
C674 C678 1.385 . S
C675 H650 0.951 . S
C675 C673 1.388 . S
C675 C676 1.366 . S
C676 C675 1.366 . S
C676 C677 1.414 . S
C676 C679 1.499 . S
C677 H651 0.950 . S
C677 C676 1.414 . S
C677 C678 1.374 . S
C678 H652 0.950 . S
C678 C674 1.385 . S
C678 C677 1.374 . S
C679 C676 1.499 . S
C679 C680 1.373 . S
C679 C681 1.389 . S
C680 H653 0.950 . S
C680 C666 1.377 . S
C680 C679 1.373 . S
C681 C665 1.377 . S
C681 C679 1.389 . S
C681 C682 1.524 . S
C682 C681 1.524 . S
C682 C683 1.397 . S
C682 C687 1.363 . S
C683 H654 0.950 . S
C683 C682 1.397 . S
C683 C684 1.334 . S
C684 H655 0.950 . S
C684 C683 1.334 . S
C684 C685 1.287 . S
C685 C684 1.287 . S
C685 C686 1.524 . S
C685 H688 0.999 . S
C686 H656 0.950 . S
C686 C685 1.524 . S
C686 C687 1.415 . S
C687 H657 0.950 . S
C687 C682 1.363 . S
C687 C686 1.415 . S
H688 C685 0.999 . S
H689 C670 0.913 . S
H690 C708 0.951 . S
H691 C710 0.951 . S
H692 C712 0.950 . S
H693 C713 0.950 . S
H694 C715 0.950 . S
H695 C718 0.950 . S
H696 C719 0.950 . S
H697 C721 0.950 . S
H698 C722 0.950 . S
H699 C723 0.951 . S
H700 C725 0.951 . S
H701 C727 0.950 . S
H702 C728 0.950 . S
H703 C730 0.950 . S
H704 C733 0.950 . S
H705 C734 0.950 . S
H706 C736 0.950 . S
H707 C737 0.950 . S
C708 H690 0.951 . S
C708 C709 1.366 . S
C708 C710 1.388 . S
C709 C708 1.366 . S
C709 C713 1.385 . S
C710 H691 0.951 . S
C710 C708 1.388 . S
C710 C711 1.366 . S
C711 C710 1.366 . S
C711 C712 1.414 . S
C711 C714 1.499 . S
C712 H692 0.950 . S
C712 C711 1.414 . S
C712 C713 1.374 . S
C713 H693 0.950 . S
C713 C709 1.385 . S
C713 C712 1.374 . S
C714 C711 1.499 . S
C714 C715 1.373 . S
C714 C716 1.389 . S
C715 H694 0.950 . S
C715 C714 1.373 . S
C715 C731 1.377 . S
C716 C714 1.389 . S
C716 C717 1.524 . S
C716 C730 1.377 . S
C717 C716 1.524 . S
C717 C718 1.397 . S
C717 C722 1.363 . S
C718 H695 0.950 . S
C718 C717 1.397 . S
C718 C719 1.334 . S
C719 H696 0.950 . S
C719 C718 1.334 . S
C719 C720 1.287 . S
C720 C719 1.287 . S
C720 C721 1.524 . S
C720 H739 0.913 . S
C721 H697 0.950 . S
C721 C720 1.524 . S
C721 C722 1.415 . S
C722 H698 0.950 . S
C722 C717 1.363 . S
C722 C721 1.415 . S
C723 H699 0.951 . S
C723 C724 1.366 . S
C723 C725 1.388 . S
C724 C723 1.366 . S
C724 C728 1.385 . S
C725 H700 0.951 . S
C725 C723 1.388 . S
C725 C726 1.366 . S
C726 C725 1.366 . S
C726 C727 1.414 . S
C726 C729 1.499 . S
C727 H701 0.950 . S
C727 C726 1.414 . S
C727 C728 1.374 . S
C728 H702 0.950 . S
C728 C724 1.385 . S
C728 C727 1.374 . S
C729 C726 1.499 . S
C729 C730 1.373 . S
C729 C731 1.389 . S
C730 H703 0.950 . S
C730 C716 1.377 . S
C730 C729 1.373 . S
C731 C715 1.377 . S
C731 C729 1.389 . S
C731 C732 1.524 . S
C732 C731 1.524 . S
C732 C733 1.397 . S
C732 C737 1.363 . S
C733 H704 0.950 . S
C733 C732 1.397 . S
C733 C734 1.334 . S
C734 H705 0.950 . S
C734 C733 1.334 . S
C734 C735 1.287 . S
C735 C734 1.287 . S
C735 C736 1.524 . S
C735 H738 0.999 . S
C736 H706 0.950 . S
C736 C735 1.524 . S
C736 C737 1.415 . S
C737 H707 0.950 . S
C737 C732 1.363 . S
C737 C736 1.415 . S
H738 C735 0.999 . S
H739 C720 0.913 . S
H740 C758 0.951 . S
H741 C760 0.951 . S
H742 C762 0.950 . S
H743 C763 0.950 . S
H744 C765 0.950 1_556 S
H745 C768 0.950 . S
H746 C769 0.950 . S
H747 C771 0.950 . S
H748 C772 0.966 . S
H749 C773 0.951 . S
H750 C775 0.951 . S
H751 C777 0.950 . S
H752 C778 0.950 . S
H753 C780 0.950 . S
H754 C783 0.950 . S
H755 C784 0.950 . S
H756 C786 0.950 . S
H757 C787 0.950 . S
C758 H740 0.951 . S
C758 C759 1.366 . S
C758 C760 1.388 . S
C759 C758 1.366 . S
C759 C763 1.385 . S
C760 H741 0.951 . S
C760 C758 1.388 . S
C760 C761 1.366 . S
C761 C760 1.366 . S
C761 C762 1.414 . S
C761 C764 1.499 . S
C762 H742 0.950 . S
C762 C761 1.414 . S
C762 C763 1.374 . S
C763 H743 0.950 . S
C763 C759 1.385 . S
C763 C762 1.374 . S
C764 C761 1.499 . S
C764 C765 1.373 1_556 S
C764 C766 1.389 1_556 S
C765 H744 0.950 1_554 S
C765 C764 1.373 1_554 S
C765 C781 1.377 . S
C766 C764 1.389 1_554 S
C766 C767 1.524 1_554 S
C766 C780 1.377 . S
C767 C766 1.524 1_556 S
C767 C768 1.397 . S
C767 C772 1.356 1_556 S
C768 H745 0.950 . S
C768 C767 1.397 . S
C768 C769 1.334 . S
C769 H746 0.950 . S
C769 C768 1.334 . S
C769 C770 1.287 . S
C770 C769 1.287 . S
C770 C771 1.524 . S
C770 H789 0.913 . S
C771 H747 0.950 . S
C771 C770 1.524 . S
C771 C772 1.406 1_556 S
C772 H748 0.966 . S
C772 C767 1.356 1_554 S
C772 C771 1.406 1_554 S
C773 H749 0.951 . S
C773 C774 1.366 . S
C773 C775 1.388 . S
C774 C773 1.366 . S
C774 C778 1.385 . S
C775 H750 0.951 . S
C775 C773 1.388 . S
C775 C776 1.366 . S
C776 C775 1.366 . S
C776 C777 1.414 . S
C776 C779 1.499 . S
C777 H751 0.950 . S
C777 C776 1.414 . S
C777 C778 1.374 . S
C778 H752 0.950 . S
C778 C774 1.385 . S
C778 C777 1.374 . S
C779 C776 1.499 . S
C779 C780 1.373 . S
C779 C781 1.389 . S
C780 H753 0.950 . S
C780 C766 1.377 . S
C780 C779 1.373 . S
C781 C765 1.377 . S
C781 C779 1.389 . S
C781 C782 1.524 . S
C782 C781 1.524 . S
C782 C783 1.397 . S
C782 C787 1.363 . S
C783 H754 0.950 . S
C783 C782 1.397 . S
C783 C784 1.334 . S
C784 H755 0.950 . S
C784 C783 1.334 . S
C784 C785 1.287 . S
C785 C784 1.287 . S
C785 C786 1.524 . S
C785 H788 0.999 . S
C786 H756 0.950 . S
C786 C785 1.524 . S
C786 C787 1.415 . S
C787 H757 0.950 . S
C787 C782 1.363 . S
C787 C786 1.415 . S
H788 C785 0.999 . S
H789 C770 0.913 . S
H790 C808 0.951 . S
H791 C810 0.951 . S
H792 C812 0.950 . S
H793 C813 0.950 . S
H794 C815 0.950 . S
H795 C818 0.950 . S
H796 C819 0.950 . S
H797 C821 0.950 . S
H798 C822 0.950 . S
H799 C823 0.951 . S
H800 C825 0.951 . S
H801 C827 0.950 . S
H802 C828 0.950 . S
H803 C830 0.950 . S
H804 C833 0.950 . S
H805 C834 0.950 . S
H806 C836 0.950 . S
H807 C837 0.950 . S
C808 H790 0.951 . S
C808 C809 1.366 . S
C808 C810 1.388 . S
C809 C808 1.366 . S
C809 C813 1.385 . S
C810 H791 0.951 . S
C810 C808 1.388 . S
C810 C811 1.366 . S
C811 C810 1.366 . S
C811 C812 1.414 . S
C811 C814 1.499 . S
C812 H792 0.950 . S
C812 C811 1.414 . S
C812 C813 1.374 . S
C813 H793 0.950 . S
C813 C809 1.385 . S
C813 C812 1.374 . S
C814 C811 1.499 . S
C814 C815 1.373 . S
C814 C816 1.389 . S
C815 H794 0.950 . S
C815 C814 1.373 . S
C815 C831 1.377 . S
C816 C814 1.389 . S
C816 C817 1.524 . S
C816 C830 1.377 . S
C817 C816 1.524 . S
C817 C818 1.397 . S
C817 C822 1.363 . S
C818 H795 0.950 . S
C818 C817 1.397 . S
C818 C819 1.334 . S
C819 H796 0.950 . S
C819 C818 1.334 . S
C819 C820 1.287 . S
C820 C819 1.287 . S
C820 C821 1.524 . S
C820 H839 0.913 . S
C821 H797 0.950 . S
C821 C820 1.524 . S
C821 C822 1.415 . S
C822 H798 0.950 . S
C822 C817 1.363 . S
C822 C821 1.415 . S
C823 H799 0.951 . S
C823 C824 1.366 . S
C823 C825 1.388 . S
C824 C823 1.366 . S
C824 C828 1.385 . S
C825 H800 0.951 . S
C825 C823 1.388 . S
C825 C826 1.366 . S
C826 C825 1.366 . S
C826 C827 1.414 . S
C826 C829 1.499 . S
C827 H801 0.950 . S
C827 C826 1.414 . S
C827 C828 1.374 . S
C828 H802 0.950 . S
C828 C824 1.385 . S
C828 C827 1.374 . S
C829 C826 1.499 . S
C829 C830 1.373 . S
C829 C831 1.389 . S
C830 H803 0.950 . S
C830 C816 1.377 . S
C830 C829 1.373 . S
C831 C815 1.377 . S
C831 C829 1.389 . S
C831 C832 1.524 . S
C832 C831 1.524 . S
C832 C833 1.397 . S
C832 C837 1.363 . S
C833 H804 0.950 . S
C833 C832 1.397 . S
C833 C834 1.334 . S
C834 H805 0.950 . S
C834 C833 1.334 . S
C834 C835 1.287 . S
C835 C834 1.287 . S
C835 C836 1.524 . S
C835 H838 0.999 . S
C836 H806 0.950 . S
C836 C835 1.524 . S
C836 C837 1.415 . S
C837 H807 0.950 . S
C837 C832 1.363 . S
C837 C836 1.415 . S
H838 C835 0.999 . S
H839 C820 0.913 . S
H840 C858 0.951 . S
H841 C860 0.951 . S
H842 C862 0.950 . S
H843 C863 0.950 . S
H844 C865 0.950 . S
H845 C868 0.950 . S
H846 C869 0.950 . S
H847 C871 0.950 . S
H848 C872 0.950 . S
H849 C873 0.951 . S
H850 C875 0.951 . S
H851 C877 0.950 . S
H852 C878 0.950 . S
H853 C880 0.950 . S
H854 C883 0.950 . S
H855 C884 0.950 . S
H856 C886 0.950 . S
H857 C887 0.950 . S
C858 H840 0.951 . S
C858 C859 1.366 . S
C858 C860 1.388 . S
C859 C858 1.366 . S
C859 C863 1.385 . S
C860 H841 0.951 . S
C860 C858 1.388 . S
C860 C861 1.366 . S
C861 C860 1.366 . S
C861 C862 1.414 . S
C861 C864 1.499 . S
C862 H842 0.950 . S
C862 C861 1.414 . S
C862 C863 1.374 . S
C863 H843 0.950 . S
C863 C859 1.385 . S
C863 C862 1.374 . S
C864 C861 1.499 . S
C864 C865 1.373 . S
C864 C866 1.389 . S
C865 H844 0.950 . S
C865 C864 1.373 . S
C865 C881 1.377 . S
C866 C864 1.389 . S
C866 C867 1.524 . S
C866 C880 1.377 . S
C867 C866 1.524 . S
C867 C868 1.397 . S
C867 C872 1.363 . S
C868 H845 0.950 . S
C868 C867 1.397 . S
C868 C869 1.334 . S
C869 H846 0.950 . S
C869 C868 1.334 . S
C869 C870 1.287 . S
C870 C869 1.287 . S
C870 C871 1.524 . S
C870 H889 0.913 . S
C871 H847 0.950 . S
C871 C870 1.524 . S
C871 C872 1.415 . S
C872 H848 0.950 . S
C872 C867 1.363 . S
C872 C871 1.415 . S
C873 H849 0.951 . S
C873 C874 1.366 . S
C873 C875 1.388 . S
C874 C873 1.366 . S
C874 C878 1.385 . S
C875 H850 0.951 . S
C875 C873 1.388 . S
C875 C876 1.366 . S
C876 C875 1.366 . S
C876 C877 1.414 . S
C876 C879 1.499 . S
C877 H851 0.950 . S
C877 C876 1.414 . S
C877 C878 1.374 . S
C878 H852 0.950 . S
C878 C874 1.385 . S
C878 C877 1.374 . S
C879 C876 1.499 . S
C879 C880 1.373 . S
C879 C881 1.389 . S
C880 H853 0.950 . S
C880 C866 1.377 . S
C880 C879 1.373 . S
C881 C865 1.377 . S
C881 C879 1.389 . S
C881 C882 1.524 . S
C882 C881 1.524 . S
C882 C883 1.397 . S
C882 C887 1.363 . S
C883 H854 0.950 . S
C883 C882 1.397 . S
C883 C884 1.334 . S
C884 H855 0.950 . S
C884 C883 1.334 . S
C884 C885 1.287 . S
C885 C884 1.287 . S
C885 C886 1.524 . S
C885 H888 0.999 . S
C886 H856 0.950 . S
C886 C885 1.524 . S
C886 C887 1.415 . S
C887 H857 0.950 . S
C887 C882 1.363 . S
C887 C886 1.415 . S
H888 C885 0.999 . S
H889 C870 0.913 . S
H890 C908 0.951 . S
H891 C910 0.951 . S
H892 C912 0.950 . S
H893 C913 0.950 . S
H894 C915 0.950 . S
H895 C918 0.950 . S
H896 C919 0.950 . S
H897 C921 0.950 . S
H898 C922 0.950 . S
H899 C923 0.951 . S
H900 C925 0.951 . S
H901 C927 0.950 . S
H902 C928 0.950 . S
H903 C930 0.950 . S
H904 C933 0.950 . S
H905 C934 0.950 . S
H906 C936 0.950 . S
H907 C937 0.950 . S
C908 H890 0.951 . S
C908 C909 1.366 . S
C908 C910 1.388 . S
C909 C908 1.366 . S
C909 C913 1.385 . S
C910 H891 0.951 . S
C910 C908 1.388 . S
C910 C911 1.366 . S
C911 C910 1.366 . S
C911 C912 1.414 . S
C911 C914 1.499 . S
C912 H892 0.950 . S
C912 C911 1.414 . S
C912 C913 1.374 . S
C913 H893 0.950 . S
C913 C909 1.385 . S
C913 C912 1.374 . S
C914 C911 1.499 . S
C914 C915 1.373 . S
C914 C916 1.389 . S
C915 H894 0.950 . S
C915 C914 1.373 . S
C915 C931 1.377 . S
C916 C914 1.389 . S
C916 C917 1.524 . S
C916 C930 1.377 . S
C917 C916 1.524 . S
C917 C918 1.397 . S
C917 C922 1.363 . S
C918 H895 0.950 . S
C918 C917 1.397 . S
C918 C919 1.334 . S
C919 H896 0.950 . S
C919 C918 1.334 . S
C919 C920 1.287 . S
C920 C919 1.287 . S
C920 C921 1.524 . S
C920 H939 0.913 . S
C921 H897 0.950 . S
C921 C920 1.524 . S
C921 C922 1.415 . S
C922 H898 0.950 . S
C922 C917 1.363 . S
C922 C921 1.415 . S
C923 H899 0.951 . S
C923 C924 1.366 . S
C923 C925 1.388 . S
C924 C923 1.366 . S
C924 C928 1.385 . S
C925 H900 0.951 . S
C925 C923 1.388 . S
C925 C926 1.366 . S
C926 C925 1.366 . S
C926 C927 1.414 . S
C926 C929 1.499 . S
C927 H901 0.950 . S
C927 C926 1.414 . S
C927 C928 1.374 . S
C928 H902 0.950 . S
C928 C924 1.385 . S
C928 C927 1.374 . S
C929 C926 1.499 . S
C929 C930 1.373 . S
C929 C931 1.389 . S
C930 H903 0.950 . S
C930 C916 1.377 . S
C930 C929 1.373 . S
C931 C915 1.377 . S
C931 C929 1.389 . S
C931 C932 1.524 . S
C932 C931 1.524 . S
C932 C933 1.397 . S
C932 C937 1.363 . S
C933 H904 0.950 . S
C933 C932 1.397 . S
C933 C934 1.334 . S
C934 H905 0.950 . S
C934 C933 1.334 . S
C934 C935 1.287 . S
C935 C934 1.287 . S
C935 C936 1.524 . S
C935 H938 0.999 . S
C936 H906 0.950 . S
C936 C935 1.524 . S
C936 C937 1.415 . S
C937 H907 0.950 . S
C937 C932 1.363 . S
C937 C936 1.415 . S
H938 C935 0.999 . S
H939 C920 0.913 . S
H940 C958 0.951 . S
H941 C960 0.951 . S
H942 C962 0.950 . S
H943 C963 0.950 . S
H944 C965 0.950 . S
H945 C968 0.950 . S
H946 C969 0.950 . S
H947 C971 0.950 . S
H948 C972 0.950 . S
H949 C973 0.951 . S
H950 C975 0.951 . S
H951 C977 0.950 1_554 S
H952 C978 0.950 . S
H953 C980 0.950 . S
H954 C983 0.950 . S
H955 C984 0.950 . S
H956 C986 0.950 . S
H957 C987 0.950 . S
C958 H940 0.951 . S
C958 C959 1.366 . S
C958 C960 1.388 . S
C959 C958 1.366 . S
C959 C963 1.385 . S
C960 H941 0.951 . S
C960 C958 1.388 . S
C960 C961 1.366 . S
C961 C960 1.366 . S
C961 C962 1.414 . S
C961 C964 1.499 . S
C962 H942 0.950 . S
C962 C961 1.414 . S
C962 C963 1.374 . S
C963 H943 0.950 . S
C963 C959 1.385 . S
C963 C962 1.374 . S
C964 C961 1.499 . S
C964 C965 1.373 . S
C964 C966 1.389 . S
C965 H944 0.950 . S
C965 C964 1.373 . S
C965 C981 1.377 . S
C966 C964 1.389 . S
C966 C967 1.524 . S
C966 C980 1.377 . S
C967 C966 1.524 . S
C967 C968 1.397 . S
C967 C972 1.363 . S
C968 H945 0.950 . S
C968 C967 1.397 . S
C968 C969 1.334 . S
C969 H946 0.950 . S
C969 C968 1.334 . S
C969 C970 1.287 . S
C970 C969 1.287 . S
C970 C971 1.524 . S
C970 H989 0.913 . S
C971 H947 0.950 . S
C971 C970 1.524 . S
C971 C972 1.415 . S
C972 H948 0.950 . S
C972 C967 1.363 . S
C972 C971 1.415 . S
C973 H949 0.951 . S
C973 C974 1.366 . S
C973 C975 1.388 . S
C974 C973 1.366 . S
C974 C978 1.385 . S
C975 H950 0.951 . S
C975 C973 1.388 . S
C975 C976 1.366 1_556 S
C976 C975 1.366 1_554 S
C976 C977 1.414 1_554 S
C976 C979 1.499 . S
C977 H951 0.950 1_556 S
C977 C976 1.414 1_556 S
C977 C978 1.374 . S
C978 H952 0.950 . S
C978 C974 1.385 . S
C978 C977 1.374 . S
C979 C976 1.499 . S
C979 C980 1.373 . S
C979 C981 1.389 . S
C980 H953 0.950 . S
C980 C966 1.377 . S
C980 C979 1.373 . S
C981 C965 1.377 . S
C981 C979 1.389 . S
C981 C982 1.524 1_554 S
C982 C981 1.524 1_556 S
C982 C983 1.397 . S
C982 C987 1.363 . S
C983 H954 0.950 . S
C983 C982 1.397 . S
C983 C984 1.334 . S
C984 H955 0.950 . S
C984 C983 1.334 . S
C984 C985 1.287 . S
C985 C984 1.287 . S
C985 C986 1.524 . S
C985 H988 0.999 . S
C986 H956 0.950 . S
C986 C985 1.524 . S
C986 C987 1.415 . S
C987 H957 0.950 . S
C987 C982 1.363 . S
C987 C986 1.415 . S
H988 C985 0.999 . S
H989 C970 0.913 . S
H990 C1008 0.951 . S
H991 C1010 0.951 . S
H992 C1012 0.950 . S
H993 C1013 0.950 . S
H994 C1015 0.950 . S
H995 C1018 0.950 . S
H996 C1019 0.950 . S
H997 C1021 0.950 . S
H998 C1022 0.950 . S
H999 C1023 0.951 . S
H1000 C1025 0.951 . S
H1001 C1027 0.950 . S
H1002 C1028 0.950 . S
H1003 C1030 0.950 . S
H1004 C1033 0.950 . S
H1005 C1034 0.950 . S
H1006 C1036 0.950 . S
H1007 C1037 0.950 . S
C1008 H990 0.951 . S
C1008 C1009 1.366 . S
C1008 C1010 1.388 . S
C1009 C1008 1.366 . S
C1009 C1013 1.385 . S
C1010 H991 0.951 . S
C1010 C1008 1.388 . S
C1010 C1011 1.366 . S
C1011 C1010 1.366 . S
C1011 C1012 1.414 . S
C1011 C1014 1.499 . S
C1012 H992 0.950 . S
C1012 C1011 1.414 . S
C1012 C1013 1.374 . S
C1013 H993 0.950 . S
C1013 C1009 1.385 . S
C1013 C1012 1.374 . S
C1014 C1011 1.499 . S
C1014 C1015 1.373 . S
C1014 C1016 1.389 . S
C1015 H994 0.950 . S
C1015 C1014 1.373 . S
C1015 C1031 1.377 . S
C1016 C1014 1.389 . S
C1016 C1017 1.524 . S
C1016 C1030 1.377 . S
C1017 C1016 1.524 . S
C1017 C1018 1.397 . S
C1017 C1022 1.363 . S
C1018 H995 0.950 . S
C1018 C1017 1.397 . S
C1018 C1019 1.334 . S
C1019 H996 0.950 . S
C1019 C1018 1.334 . S
C1019 C1020 1.287 . S
C1020 C1019 1.287 . S
C1020 C1021 1.524 . S
C1020 H1039 0.913 . S
C1021 H997 0.950 . S
C1021 C1020 1.524 . S
C1021 C1022 1.415 . S
C1022 H998 0.950 . S
C1022 C1017 1.363 . S
C1022 C1021 1.415 . S
C1023 H999 0.951 . S
C1023 C1024 1.366 . S
C1023 C1025 1.388 . S
C1024 C1023 1.366 . S
C1024 C1028 1.385 . S
C1025 H1000 0.951 . S
C1025 C1023 1.388 . S
C1025 C1026 1.366 . S
C1026 C1025 1.366 . S
C1026 C1027 1.414 . S
C1026 C1029 1.499 . S
C1027 H1001 0.950 . S
C1027 C1026 1.414 . S
C1027 C1028 1.374 . S
C1028 H1002 0.950 . S
C1028 C1024 1.385 . S
C1028 C1027 1.374 . S
C1029 C1026 1.499 . S
C1029 C1030 1.373 . S
C1029 C1031 1.389 . S
C1030 H1003 0.950 . S
C1030 C1016 1.377 . S
C1030 C1029 1.373 . S
C1031 C1015 1.377 . S
C1031 C1029 1.389 . S
C1031 C1032 1.524 . S
C1032 C1031 1.524 . S
C1032 C1033 1.397 . S
C1032 C1037 1.363 . S
C1033 H1004 0.950 . S
C1033 C1032 1.397 . S
C1033 C1034 1.334 . S
C1034 H1005 0.950 . S
C1034 C1033 1.334 . S
C1034 C1035 1.287 . S
C1035 C1034 1.287 . S
C1035 C1036 1.524 . S
C1035 H1038 0.999 . S
C1036 H1006 0.950 . S
C1036 C1035 1.524 . S
C1036 C1037 1.415 . S
C1037 H1007 0.950 . S
C1037 C1032 1.363 . S
C1037 C1036 1.415 . S
H1038 C1035 0.999 . S
H1039 C1020 0.913 . S
H1040 C1058 0.951 . S
H1041 C1060 0.951 . S
H1042 C1062 0.950 . S
H1043 C1063 0.950 . S
H1044 C1065 0.950 . S
H1045 C1068 0.950 . S
H1046 C1069 0.950 . S
H1047 C1071 0.950 . S
H1048 C1072 0.950 . S
H1049 C1073 0.951 . S
H1050 C1075 0.951 . S
H1051 C1077 0.950 . S
H1052 C1078 0.950 . S
H1053 C1080 0.950 . S
H1054 C1083 0.950 . S
H1055 C1084 0.950 . S
H1056 C1086 0.950 . S
H1057 C1087 0.950 . S
C1058 H1040 0.951 . S
C1058 C1059 1.366 . S
C1058 C1060 1.388 . S
C1059 C1058 1.366 . S
C1059 C1063 1.385 . S
C1060 H1041 0.951 . S
C1060 C1058 1.388 . S
C1060 C1061 1.366 . S
C1061 C1060 1.366 . S
C1061 C1062 1.414 . S
C1061 C1064 1.499 . S
C1062 H1042 0.950 . S
C1062 C1061 1.414 . S
C1062 C1063 1.374 . S
C1063 H1043 0.950 . S
C1063 C1059 1.385 . S
C1063 C1062 1.374 . S
C1064 C1061 1.499 . S
C1064 C1065 1.373 . S
C1064 C1066 1.389 . S
C1065 H1044 0.950 . S
C1065 C1064 1.373 . S
C1065 C1081 1.377 . S
C1066 C1064 1.389 . S
C1066 C1067 1.524 . S
C1066 C1080 1.377 . S
C1067 C1066 1.524 . S
C1067 C1068 1.397 . S
C1067 C1072 1.363 . S
C1068 H1045 0.950 . S
C1068 C1067 1.397 . S
C1068 C1069 1.334 . S
C1069 H1046 0.950 . S
C1069 C1068 1.334 . S
C1069 C1070 1.287 . S
C1070 C1069 1.287 . S
C1070 C1071 1.524 . S
C1070 H1089 0.913 . S
C1071 H1047 0.950 . S
C1071 C1070 1.524 . S
C1071 C1072 1.415 . S
C1072 H1048 0.950 . S
C1072 C1067 1.363 . S
C1072 C1071 1.415 . S
C1073 H1049 0.951 . S
C1073 C1074 1.366 . S
C1073 C1075 1.388 . S
C1074 C1073 1.366 . S
C1074 C1078 1.385 . S
C1075 H1050 0.951 . S
C1075 C1073 1.388 . S
C1075 C1076 1.366 . S
C1076 C1075 1.366 . S
C1076 C1077 1.414 . S
C1076 C1079 1.499 . S
C1077 H1051 0.950 . S
C1077 C1076 1.414 . S
C1077 C1078 1.374 . S
C1078 H1052 0.950 . S
C1078 C1074 1.385 . S
C1078 C1077 1.374 . S
C1079 C1076 1.499 . S
C1079 C1080 1.373 . S
C1079 C1081 1.389 . S
C1080 H1053 0.950 . S
C1080 C1066 1.377 . S
C1080 C1079 1.373 . S
C1081 C1065 1.377 . S
C1081 C1079 1.389 . S
C1081 C1082 1.524 . S
C1082 C1081 1.524 . S
C1082 C1083 1.397 . S
C1082 C1087 1.363 . S
C1083 H1054 0.950 . S
C1083 C1082 1.397 . S
C1083 C1084 1.334 . S
C1084 H1055 0.950 . S
C1084 C1083 1.334 . S
C1084 C1085 1.287 . S
C1085 C1084 1.287 . S
C1085 C1086 1.524 . S
C1085 H1088 0.999 . S
C1086 H1056 0.950 . S
C1086 C1085 1.524 . S
C1086 C1087 1.415 . S
C1087 H1057 0.950 . S
C1087 C1082 1.363 . S
C1087 C1086 1.415 . S
H1088 C1085 0.999 . S
H1089 C1070 0.913 . S
H1090 C1108 0.951 . S
H1091 C1110 0.951 . S
H1092 C1112 0.950 . S
H1093 C1113 0.950 . S
H1094 C1115 0.950 . S
H1095 C1118 0.950 . S
H1096 C1119 0.950 . S
H1097 C1121 0.950 . S
H1098 C1122 0.950 . S
H1099 C1123 0.951 . S
H1100 C1125 0.951 . S
H1101 C1127 0.950 . S
H1102 C1128 0.950 . S
H1103 C1130 0.950 . S
H1104 C1133 0.950 . S
H1105 C1134 0.950 . S
H1106 C1136 0.950 . S
H1107 C1137 0.950 . S
C1108 H1090 0.951 . S
C1108 C1109 1.366 . S
C1108 C1110 1.388 . S
C1109 C1108 1.366 . S
C1109 C1113 1.385 . S
C1110 H1091 0.951 . S
C1110 C1108 1.388 . S
C1110 C1111 1.366 . S
C1111 C1110 1.366 . S
C1111 C1112 1.414 . S
C1111 C1114 1.499 . S
C1112 H1092 0.950 . S
C1112 C1111 1.414 . S
C1112 C1113 1.374 . S
C1113 H1093 0.950 . S
C1113 C1109 1.385 . S
C1113 C1112 1.374 . S
C1114 C1111 1.499 . S
C1114 C1115 1.373 . S
C1114 C1116 1.389 . S
C1115 H1094 0.950 . S
C1115 C1114 1.373 . S
C1115 C1131 1.377 . S
C1116 C1114 1.389 . S
C1116 C1117 1.524 . S
C1116 C1130 1.377 . S
C1117 C1116 1.524 . S
C1117 C1118 1.397 . S
C1117 C1122 1.363 . S
C1118 H1095 0.950 . S
C1118 C1117 1.397 . S
C1118 C1119 1.334 . S
C1119 H1096 0.950 . S
C1119 C1118 1.334 . S
C1119 C1120 1.287 . S
C1120 C1119 1.287 . S
C1120 C1121 1.524 . S
C1120 H1139 0.913 . S
C1121 H1097 0.950 . S
C1121 C1120 1.524 . S
C1121 C1122 1.415 . S
C1122 H1098 0.950 . S
C1122 C1117 1.363 . S
C1122 C1121 1.415 . S
C1123 H1099 0.951 . S
C1123 C1124 1.366 . S
C1123 C1125 1.388 . S
C1124 C1123 1.366 . S
C1124 C1128 1.385 . S
C1125 H1100 0.951 . S
C1125 C1123 1.388 . S
C1125 C1126 1.366 . S
C1126 C1125 1.366 . S
C1126 C1127 1.414 . S
C1126 C1129 1.499 . S
C1127 H1101 0.950 . S
C1127 C1126 1.414 . S
C1127 C1128 1.374 . S
C1128 H1102 0.950 . S
C1128 C1124 1.385 . S
C1128 C1127 1.374 . S
C1129 C1126 1.499 . S
C1129 C1130 1.373 . S
C1129 C1131 1.389 . S
C1130 H1103 0.950 . S
C1130 C1116 1.377 . S
C1130 C1129 1.373 . S
C1131 C1115 1.377 . S
C1131 C1129 1.389 . S
C1131 C1132 1.524 . S
C1132 C1131 1.524 . S
C1132 C1133 1.397 . S
C1132 C1137 1.363 . S
C1133 H1104 0.950 . S
C1133 C1132 1.397 . S
C1133 C1134 1.334 . S
C1134 H1105 0.950 . S
C1134 C1133 1.334 . S
C1134 C1135 1.287 . S
C1135 C1134 1.287 . S
C1135 C1136 1.524 . S
C1135 H1138 0.999 . S
C1136 H1106 0.950 . S
C1136 C1135 1.524 . S
C1136 C1137 1.415 . S
C1137 H1107 0.950 . S
C1137 C1132 1.363 . S
C1137 C1136 1.415 . S
H1138 C1135 0.999 . S
H1139 C1120 0.913 . S
C259 C210 1.666 . S
C274 C10 1.666 . S
C309 C9 1.385 . S
C324 C49 1.385 . S
C359 C50 1.667 . S
C374 C90 1.667 . S
C409 C89 1.384 . S
C424 C129 1.384 1_556 S
C459 C170 1.666 . S
C474 C130 1.666 . S
C509 C209 1.386 . S
C524 C169 1.386 . S
C559 C6 1.058 . S
C574 C15 1.058 . S
C609 C55 1.057 . S
C624 C46 1.057 . S
C659 C86 1.057 . S
C674 C95 1.057 . S
C709 C135 1.057 . S
C724 C126 1.057 . S
C759 C175 1.057 . S
C774 C166 1.057 . S
C809 C215 1.056 . S
C824 C206 1.056 1_554 S
C859 C19 1.776 . S
C874 C178 1.797 . S
C909 C58 1.797 . S
C924 C219 1.776 . S
C959 C18 1.797 . S
C974 C99 1.776 . S
C1009 C59 1.776 . S
C1024 C138 1.797 . S
C1059 C179 1.776 . S
C1074 C98 1.797 . S
C1109 C139 1.776 . S
C1124 C218 1.797 . S
