# Generated by pormake.
# Topology smd, (6)-cn, num edge types: 1
# Building blocks:
#     Node 0, Type 0, BuildingBlock: BETFEN_clean_sbu_0, # of connection points: 6
#     Node 1, Type 0, BuildingBlock: BETFEN_clean_sbu_0, # of connection points: 6
#     Node 2, Type 0, BuildingBlock: BETFEN_clean_sbu_0, # of connection points: 6
#     Node 3, Type 0, BuildingBlock: BETFEN_clean_sbu_0, # of connection points: 6
#     Node 4, Type 0, BuildingBlock: BETFEN_clean_sbu_0, # of connection points: 6
#     Node 5, Type 0, BuildingBlock: BETFEN_clean_sbu_0, # of connection points: 6
#     Node 6, Type 0, BuildingBlock: BETFEN_clean_sbu_0, # of connection points: 6
#     Node 7, Type 0, BuildingBlock: BETFEN_clean_sbu_0, # of connection points: 6
#     Node 8, Type 0, BuildingBlock: BETFEN_clean_sbu_0, # of connection points: 6
#     Node 9, Type 0, BuildingBlock: BETFEN_clean_sbu_0, # of connection points: 6
#     Node 10, Type 0, BuildingBlock: BETFEN_clean_sbu_0, # of connection points: 6
#     Node 11, Type 0, BuildingBlock: BETFEN_clean_sbu_0, # of connection points: 6
#     Node 12, Type 0, BuildingBlock: BETFEN_clean_sbu_0, # of connection points: 6
#     Node 13, Type 0, BuildingBlock: BETFEN_clean_sbu_0, # of connection points: 6
#     Node 14, Type 0, BuildingBlock: BETFEN_clean_sbu_0, # of connection points: 6
#     Node 15, Type 0, BuildingBlock: BETFEN_clean_sbu_0, # of connection points: 6
#     Node 16, Type 0, BuildingBlock: BETFEN_clean_sbu_0, # of connection points: 6
#     Node 17, Type 0, BuildingBlock: BETFEN_clean_sbu_0, # of connection points: 6
#     Edge 18, Type (0, 0), BuildingBlock: EZIPEK_clean_linker_0, # of connection points: 2
#     Edge 19, Type (0, 0), BuildingBlock: EZIPEK_clean_linker_0, # of connection points: 2
#     Edge 20, Type (0, 0), BuildingBlock: EZIPEK_clean_linker_0, # of connection points: 2
#     Edge 21, Type (0, 0), BuildingBlock: EZIPEK_clean_linker_0, # of connection points: 2
#     Edge 22, Type (0, 0), BuildingBlock: EZIPEK_clean_linker_0, # of connection points: 2
#     Edge 23, Type (0, 0), BuildingBlock: EZIPEK_clean_linker_0, # of connection points: 2
#     Edge 24, Type (0, 0), BuildingBlock: EZIPEK_clean_linker_0, # of connection points: 2
#     Edge 25, Type (0, 0), BuildingBlock: EZIPEK_clean_linker_0, # of connection points: 2
#     Edge 26, Type (0, 0), BuildingBlock: EZIPEK_clean_linker_0, # of connection points: 2
#     Edge 27, Type (0, 0), BuildingBlock: EZIPEK_clean_linker_0, # of connection points: 2
#     Edge 28, Type (0, 0), BuildingBlock: EZIPEK_clean_linker_0, # of connection points: 2
#     Edge 29, Type (0, 0), BuildingBlock: EZIPEK_clean_linker_0, # of connection points: 2
#     Edge 30, Type (0, 0), BuildingBlock: EZIPEK_clean_linker_0, # of connection points: 2
#     Edge 31, Type (0, 0), BuildingBlock: EZIPEK_clean_linker_0, # of connection points: 2
#     Edge 32, Type (0, 0), BuildingBlock: EZIPEK_clean_linker_0, # of connection points: 2
#     Edge 33, Type (0, 0), BuildingBlock: EZIPEK_clean_linker_0, # of connection points: 2
#     Edge 34, Type (0, 0), BuildingBlock: EZIPEK_clean_linker_0, # of connection points: 2
#     Edge 35, Type (0, 0), BuildingBlock: EZIPEK_clean_linker_0, # of connection points: 2
#     Edge 36, Type (0, 0), BuildingBlock: EZIPEK_clean_linker_0, # of connection points: 2
#     Edge 37, Type (0, 0), BuildingBlock: EZIPEK_clean_linker_0, # of connection points: 2
#     Edge 38, Type (0, 0), BuildingBlock: EZIPEK_clean_linker_0, # of connection points: 2
#     Edge 39, Type (0, 0), BuildingBlock: EZIPEK_clean_linker_0, # of connection points: 2
#     Edge 40, Type (0, 0), BuildingBlock: EZIPEK_clean_linker_0, # of connection points: 2
#     Edge 41, Type (0, 0), BuildingBlock: EZIPEK_clean_linker_0, # of connection points: 2
#     Edge 42, Type (0, 0), BuildingBlock: EZIPEK_clean_linker_0, # of connection points: 2
#     Edge 43, Type (0, 0), BuildingBlock: EZIPEK_clean_linker_0, # of connection points: 2
#     Edge 44, Type (0, 0), BuildingBlock: EZIPEK_clean_linker_0, # of connection points: 2
#     Edge 45, Type (0, 0), BuildingBlock: EZIPEK_clean_linker_0, # of connection points: 2
#     Edge 46, Type (0, 0), BuildingBlock: EZIPEK_clean_linker_0, # of connection points: 2
#     Edge 47, Type (0, 0), BuildingBlock: EZIPEK_clean_linker_0, # of connection points: 2
#     Edge 48, Type (0, 0), BuildingBlock: EZIPEK_clean_linker_0, # of connection points: 2
#     Edge 49, Type (0, 0), BuildingBlock: EZIPEK_clean_linker_0, # of connection points: 2
#     Edge 50, Type (0, 0), BuildingBlock: EZIPEK_clean_linker_0, # of connection points: 2
#     Edge 51, Type (0, 0), BuildingBlock: EZIPEK_clean_linker_0, # of connection points: 2
#     Edge 52, Type (0, 0), BuildingBlock: EZIPEK_clean_linker_0, # of connection points: 2
#     Edge 53, Type (0, 0), BuildingBlock: EZIPEK_clean_linker_0, # of connection points: 2
#     Edge 54, Type (0, 0), BuildingBlock: EZIPEK_clean_linker_0, # of connection points: 2
#     Edge 55, Type (0, 0), BuildingBlock: EZIPEK_clean_linker_0, # of connection points: 2
#     Edge 56, Type (0, 0), BuildingBlock: EZIPEK_clean_linker_0, # of connection points: 2
#     Edge 57, Type (0, 0), BuildingBlock: EZIPEK_clean_linker_0, # of connection points: 2
#     Edge 58, Type (0, 0), BuildingBlock: EZIPEK_clean_linker_0, # of connection points: 2
#     Edge 59, Type (0, 0), BuildingBlock: EZIPEK_clean_linker_0, # of connection points: 2
#     Edge 60, Type (0, 0), BuildingBlock: EZIPEK_clean_linker_0, # of connection points: 2
#     Edge 61, Type (0, 0), BuildingBlock: EZIPEK_clean_linker_0, # of connection points: 2
#     Edge 62, Type (0, 0), BuildingBlock: EZIPEK_clean_linker_0, # of connection points: 2
#     Edge 63, Type (0, 0), BuildingBlock: EZIPEK_clean_linker_0, # of connection points: 2
#     Edge 64, Type (0, 0), BuildingBlock: EZIPEK_clean_linker_0, # of connection points: 2
#     Edge 65, Type (0, 0), BuildingBlock: EZIPEK_clean_linker_0, # of connection points: 2
#     Edge 66, Type (0, 0), BuildingBlock: EZIPEK_clean_linker_0, # of connection points: 2
#     Edge 67, Type (0, 0), BuildingBlock: EZIPEK_clean_linker_0, # of connection points: 2
#     Edge 68, Type (0, 0), BuildingBlock: EZIPEK_clean_linker_0, # of connection points: 2
#     Edge 69, Type (0, 0), BuildingBlock: EZIPEK_clean_linker_0, # of connection points: 2
#     Edge 70, Type (0, 0), BuildingBlock: EZIPEK_clean_linker_0, # of connection points: 2
#     Edge 71, Type (0, 0), BuildingBlock: EZIPEK_clean_linker_0, # of connection points: 2
# Relax obj value: 0.309
# Max RMSD: 0.383
# Mean RMSD: 0.352
data_MOF--net-smd--node1-BETFEN_clean_sbu_0--edge1-EZIPEK_clean_linker_0
_symmetry_space_group_name_H-M    P1
_symmetry_Int_Tables_number       1
_symmetry_cell_setting            triclinic
loop_
_symmetry_equiv_pos_as_xyz
'x, y, z'
_cell_length_a     48.156303
_cell_length_b     48.584305
_cell_length_c     21.195688
_cell_angle_alpha  93.395158
_cell_angle_beta   93.307938
_cell_angle_gamma 119.98116
loop_
_atom_site_label
_atom_site_type_symbol
_atom_site_fract_x
_atom_site_fract_y
_atom_site_fract_z
_atom_type_partial_charge
Pr0 Pr 0.02708 0.25131 0.5805 0.0
Pr1 Pr 0.98834 0.22516 0.46861 0.0
C2 C 0.04978 0.27196 0.70483 0.0
C3 C 0.03951 0.26703 0.77005 0.0
C4 C 0.06058 0.26733 0.81914 0.0
C5 C 0.0518 0.26296 0.88129 0.0
C6 C 0.02175 0.2583 0.89591 0.0
C7 C 1.00065 0.25824 0.84695 0.0
C8 C 1.00939 0.26244 0.78453 0.0
C9 C 0.06129 0.23245 0.5031 0.0
C10 C 0.96086 0.17387 0.56582 0.0
C11 C 0.96172 0.21206 0.34638 0.0
C12 C 0.97221 0.22039 0.28173 0.0
C13 C 0.96463 0.24077 0.24977 0.0
C14 C 0.97318 0.24787 0.18808 0.0
C15 C 0.98943 0.23476 0.1567 0.0
C16 C 0.99741 0.2147 0.18861 0.0
C17 C 0.9889 0.20758 0.25038 0.0
C18 C 0.96336 0.25193 0.56123 0.0
C19 C 0.05009 0.29406 0.45656 0.0
O20 O 0.03875 0.28579 0.66835 0.0
O21 O 0.05155 0.24898 0.67373 0.0
O22 O 0.03056 0.21565 0.50561 0.0
O23 O 0.07359 0.25929 0.53859 0.0
O24 O 0.96154 0.17533 0.50451 0.0
O25 O 0.98158 0.20008 0.60425 0.0
O26 O 0.96946 0.19333 0.37499 0.0
O27 O 0.96351 0.23479 0.38553 0.0
O28 O 0.99126 0.26486 0.54314 0.0
O29 O 0.94757 0.22324 0.53219 0.0
O30 O 0.05045 0.29742 0.51954 0.0
O31 O 0.03244 0.26548 0.42713 0.0
H32 H 0.08393 0.2709 0.80933 0.0
H33 H 0.06844 0.26306 0.91808 0.0
H34 H 0.97733 0.25466 0.85698 0.0
H35 H 0.99258 0.26196 0.74766 0.0
H36 H 0.95174 0.251 0.27228 0.0
H37 H 0.9668 0.26333 0.16434 0.0
H38 H 1.00993 0.20427 0.16537 0.0
H39 H 0.99517 0.19179 0.27325 0.0
Pr40 Pr 0.78601 0.7632 0.48621 0.0
Pr41 Pr 0.77802 0.78904 0.5995 0.0
C42 C 0.78051 0.7344 0.36851 0.0
C43 C 0.78286 0.74361 0.30284 0.0
C44 C 0.78994 0.72746 0.25547 0.0
C45 C 0.7927 0.73648 0.19341 0.0
C46 C 0.7904 0.76329 0.17731 0.0
C47 C 0.7788 0.77615 0.2239 0.0
C48 C 0.77618 0.76729 0.28594 0.0
C49 C 0.84706 0.79569 0.55644 0.0
C50 C 0.80003 0.83926 0.49713 0.0
C51 C 0.77347 0.80794 0.71918 0.0
C52 C 0.77676 0.80049 0.78547 0.0
C53 C 0.75299 0.77232 0.80824 0.0
C54 C 0.75605 0.76636 0.87157 0.0
C55 C 0.78296 0.78835 0.91321 0.0
C56 C 0.8067 0.81632 0.89053 0.0
C57 C 0.80357 0.82239 0.82754 0.0
C58 C 0.7243 0.76712 0.50232 0.0
C59 C 0.76441 0.71704 0.61118 0.0
O60 O 0.75642 0.73273 0.39631 0.0
O61 O 0.80698 0.74761 0.40678 0.0
O62 O 0.82041 0.77818 0.5798 0.0
O63 O 0.84104 0.80076 0.49922 0.0
O64 O 0.80604 0.8379 0.55767 0.0
O65 O 0.78838 0.81234 0.45861 0.0
O66 O 0.79979 0.82252 0.6906 0.0
O67 O 0.7487 0.78646 0.68105 0.0
O68 O 0.73842 0.75261 0.52034 0.0
O69 O 0.7388 0.79488 0.53514 0.0
O70 O 0.77035 0.71775 0.55006 0.0
O71 O 0.76621 0.74209 0.64157 0.0
H72 H 0.79298 0.70753 0.26622 0.0
H73 H 0.79598 0.72156 0.15848 0.0
H74 H 0.77091 0.79274 0.21339 0.0
H75 H 0.76848 0.77874 0.32057 0.0
H76 H 0.73191 0.75494 0.77737 0.0
H77 H 0.73742 0.74468 0.88814 0.0
H78 H 0.8276 0.83364 0.92192 0.0
H79 H 0.82211 0.84439 0.81182 0.0
Pr80 Pr 0.23886 0.995 0.56683 0.0
Pr81 Pr 0.2495 0.0278 0.46857 0.0
C82 C 0.2367 0.97439 0.6838 0.0
C83 C 0.24233 0.98436 0.75284 0.0
C84 C 0.21941 0.96495 0.7924 0.0
C85 C 0.22427 0.97313 0.85811 0.0
C86 C 0.2523 1.00075 0.88555 0.0
C87 C 0.27544 0.02018 0.84622 0.0
C88 C 0.27035 0.01217 0.78024 0.0
C89 C 0.18357 0.95548 0.48447 0.0
C90 C 0.22311 0.05733 0.56365 0.0
C91 C 0.26616 0.05467 0.3583 0.0
C92 C 0.26456 0.04559 0.28989 0.0
C93 C 0.28945 0.06601 0.25493 0.0
C94 C 0.28846 0.05826 0.18987 0.0
C95 C 0.26253 0.02994 0.15874 0.0
C96 C 0.23788 0.00915 0.19383 0.0
C97 C 0.23893 0.01686 0.25907 0.0
C98 C 0.30245 0.05809 0.56995 0.0
C99 C 0.25835 0.96854 0.43788 0.0
O100 O 0.26164 0.9843 0.65149 0.0
O101 O 0.2122 0.9736 0.6524 0.0
O102 O 0.19702 0.98624 0.49131 0.0
O103 O 0.20131 0.94618 0.51355 0.0
O104 O 0.22228 0.0523 0.50244 0.0
O105 O 0.23182 0.04076 0.60019 0.0
O106 O 0.23925 0.04792 0.382 0.0
O107 O 0.28531 0.04986 0.39605 0.0
O108 O 0.28875 0.02986 0.54407 0.0
O109 O 0.28703 0.07112 0.54585 0.0
O110 O 0.26378 0.9722 0.50092 0.0
O111 O 0.24438 0.98283 0.41271 0.0
H112 H 0.19768 0.94336 0.77238 0.0
H113 H 0.20615 0.9579 0.88766 0.0
H114 H 0.29718 0.04166 0.86654 0.0
H115 H 0.28819 0.02769 0.75072 0.0
H116 H 0.30958 0.08812 0.27794 0.0
H117 H 0.30771 0.07454 0.1636 0.0
H118 H 0.21771 0.98716 0.17054 0.0
H119 H 0.21968 1.00054 0.28527 0.0
Pr120 Pr 0.03509 0.79245 0.60226 0.0
Pr121 Pr 0.99658 0.76518 0.48231 0.0
C122 C 0.05834 0.81024 0.72631 0.0
C123 C 0.04778 0.79927 0.78951 0.0
C124 C 0.03596 0.76731 0.80215 0.0
C125 C 0.02709 0.75783 0.8627 0.0
C126 C 0.02963 0.78 0.91181 0.0
C127 C 0.04111 0.81178 0.89899 0.0
C128 C 0.05012 0.82129 0.83864 0.0
C129 C 0.06435 0.77262 0.50764 0.0
C130 C 0.97727 0.71912 0.60759 0.0
C131 C 0.97173 0.73466 0.36353 0.0
C132 C 0.97982 0.74018 0.2966 0.0
C133 C 0.97419 0.76142 0.26314 0.0
C134 C 0.98197 0.76633 0.20034 0.0
C135 C 0.99554 0.75015 0.16947 0.0
C136 C 1.00091 0.7287 0.20238 0.0
C137 C 0.99306 0.72371 0.26509 0.0
C138 C 0.96948 0.79598 0.5505 0.0
C139 C 0.05845 0.84241 0.49753 0.0
O140 O 0.0436 0.82269 0.69557 0.0
O141 O 0.06489 0.79231 0.68881 0.0
O142 O 0.03607 0.75784 0.52314 0.0
O143 O 0.07983 0.79918 0.54486 0.0
O144 O 0.96795 0.72088 0.54778 0.0
O145 O 1.00346 0.74312 0.63743 0.0
O146 O 0.99074 0.72947 0.40089 0.0
O147 O 0.96198 0.75216 0.39301 0.0
O148 O 0.98039 0.77917 0.57461 0.0
O149 O 0.97664 0.80004 0.4924 0.0
O150 O 0.05391 0.84077 0.55813 0.0
O151 O 0.04273 0.81522 0.45912 0.0
H152 H 0.03372 0.74963 0.76544 0.0
H153 H 0.01834 0.7332 0.87133 0.0
H154 H 0.04332 0.82933 0.93599 0.0
H155 H 0.05914 0.84602 0.83043 0.0
H156 H 0.96385 0.77438 0.28544 0.0
H157 H 0.97757 0.78294 0.17588 0.0
H158 H 1.01126 0.71588 0.17955 0.0
H159 H 0.99737 0.70693 0.28903 0.0
Pr160 Pr 0.24479 0.22584 0.46301 0.0
Pr161 Pr 0.23523 0.25255 0.57059 0.0
C162 C 0.25542 0.21043 0.34517 0.0
C163 C 0.25685 0.22069 0.27999 0.0
C164 C 0.28361 0.22714 0.24682 0.0
C165 C 0.28495 0.2355 0.18432 0.0
C166 C 0.25953 0.23762 0.15365 0.0
C167 C 0.23308 0.23189 0.18716 0.0
C168 C 0.23176 0.22359 0.24973 0.0
C169 C 0.29906 0.2533 0.56051 0.0
C170 C 0.25287 0.29541 0.44387 0.0
C171 C 0.23591 0.27416 0.6924 0.0
C172 C 0.24247 0.27002 0.75935 0.0
C173 C 0.22791 0.27814 0.80685 0.0
C174 C 0.23296 0.27389 0.87045 0.0
C175 C 0.25269 0.26138 0.8879 0.0
C176 C 0.26768 0.2536 0.84055 0.0
C177 C 0.26262 0.25788 0.77672 0.0
C178 C 0.17902 0.23178 0.48953 0.0
C179 C 0.22283 0.17533 0.56141 0.0
O180 O 0.22733 0.19576 0.3675 0.0
O181 O 0.27845 0.2302 0.38826 0.0
O182 O 0.28375 0.26604 0.5389 0.0
O183 O 0.28511 0.22435 0.5328 0.0
O184 O 0.25318 0.29769 0.50706 0.0
O185 O 0.2459 0.26792 0.41531 0.0
O186 O 0.26035 0.28761 0.6588 0.0
O187 O 0.21036 0.25068 0.6597 0.0
O188 O 0.19345 0.21555 0.49562 0.0
O189 O 0.19578 0.25977 0.52083 0.0
O190 O 0.22141 0.17639 0.50001 0.0
O191 O 0.23036 0.20179 0.59891 0.0
H192 H 0.30335 0.22525 0.26901 0.0
H193 H 0.30555 0.23976 0.15944 0.0
H194 H 0.2132 0.23338 0.16446 0.0
H195 H 0.21094 0.21907 0.27406 0.0
H196 H 0.21234 0.28757 0.79462 0.0
H197 H 0.22111 0.27996 0.90605 0.0
H198 H 0.28295 0.24387 0.85293 0.0
H199 H 0.27414 0.25145 0.74095 0.0
Pr200 Pr 0.76892 0.98675 0.59229 0.0
Pr201 Pr 0.78227 0.02066 0.49612 0.0
C202 C 0.74965 0.95776 0.70026 0.0
C203 C 0.75075 0.96491 0.76978 0.0
C204 C 0.72499 0.94407 0.80261 0.0
C205 C 0.72552 0.94999 0.86841 0.0
C206 C 0.75171 0.97713 0.90272 0.0
C207 C 0.77734 0.99821 0.86973 0.0
C208 C 0.77696 0.99206 0.80397 0.0
C209 C 0.71714 0.9604 0.48815 0.0
C210 C 0.76758 0.05078 0.63038 0.0
C211 C 0.78335 0.03916 0.37712 0.0
C212 C 0.77431 0.02714 0.30888 0.0
C213 C 0.78097 0.04909 0.26372 0.0
C214 C 0.77442 0.03886 0.19859 0.0
C215 C 0.76111 1.00643 0.17723 0.0
C216 C 0.75351 0.98422 0.22242 0.0
C217 C 0.76004 0.99449 0.28783 0.0
C218 C 0.83694 0.06016 0.57826 0.0
C219 C 0.79654 0.95698 0.50146 0.0
O220 O 0.77641 0.96366 0.67692 0.0
O221 O 0.732 0.96488 0.66343 0.0
O222 O 0.73161 0.98799 0.51694 0.0
O223 O 0.73143 0.94586 0.51043 0.0
O224 O 0.76696 0.05154 0.56737 0.0
O225 O 0.77228 0.02905 0.65283 0.0
O226 O 0.76012 0.03303 0.4127 0.0
O227 O 0.80682 0.03716 0.40615 0.0
O228 O 0.82295 0.02916 0.57435 0.0
O229 O 0.82056 0.06951 0.54461 0.0
O230 O 0.79544 0.96098 0.56214 0.0
O231 O 0.78973 0.97476 0.46449 0.0
H232 H 0.70448 0.923 0.77732 0.0
H233 H 0.70553 0.93333 0.89267 0.0
H234 H 0.79783 0.01925 0.89508 0.0
H235 H 0.79717 1.00843 0.77989 0.0
H236 H 0.79182 0.07433 0.27886 0.0
H237 H 0.78045 0.05638 0.16472 0.0
H238 H 0.74314 0.95907 0.20702 0.0
H239 H 0.75446 0.9771 0.32186 0.0
Pr240 Pr 0.66276 0.56523 0.79141 0.0
Pr241 Pr 0.70201 0.57999 0.9027 0.0
C242 C 0.64037 0.56098 0.6681 0.0
C243 C 0.6506 0.56929 0.60337 0.0
C244 C 0.63662 0.58319 0.56645 0.0
C245 C 0.64396 0.58937 0.50385 0.0
C246 C 0.66534 0.5816 0.47626 0.0
C247 C 0.67986 0.56822 0.51334 0.0
C248 C 0.67261 0.56216 0.57628 0.0
C249 C 0.62686 0.51526 0.86555 0.0
C250 C 0.72774 0.55236 0.80064 0.0
C251 C 0.72907 0.59633 1.02514 0.0
C252 C 0.71778 0.59511 0.08949 0.0
C253 C 0.73878 0.6165 0.14041 0.0
C254 C 0.72832 0.61629 0.20103 0.0
C255 C 0.69578 0.59592 0.21274 0.0
C256 C 0.676 0.57231 0.16198 0.0
C257 C 0.68644 0.57255 0.10125 0.0
C258 C 0.72709 0.62902 0.81374 0.0
C259 C 0.64158 0.58865 0.92174 0.0
O260 O 0.64589 0.58415 0.71059 0.0
O261 O 0.64392 0.53872 0.69249 0.0
O262 O 0.65759 0.52796 0.86325 0.0
O263 O 0.6154 0.52888 0.83033 0.0
O264 O 0.72597 0.55329 0.86182 0.0
O265 O 0.70855 0.55891 0.76416 0.0
O266 O 0.7212 0.56921 0.99289 0.0
O267 O 0.7269 0.61628 0.98948 0.0
O268 O 0.69948 0.615 0.83289 0.0
O269 O 0.74284 0.61675 0.84028 0.0
O270 O 0.64144 0.59106 0.8594 0.0
O271 O 0.65836 0.57719 0.94707 0.0
H272 H 0.61945 0.58872 0.58574 0.0
H273 H 0.63254 0.59982 0.47647 0.0
H274 H 0.69654 0.56215 0.49331 0.0
H275 H 0.68388 0.55149 0.60338 0.0
H276 H 0.7636 0.63328 0.13356 0.0
H277 H 0.74653 0.63196 0.23863 0.0
H278 H 0.65256 0.55262 0.1681 0.0
H279 H 0.67002 0.5547 0.06361 0.0
Pr280 Pr 0.45064 0.1009 0.79759 0.0
Pr281 Pr 0.44255 0.12806 0.91106 0.0
C282 C 0.44314 0.07047 0.68042 0.0
C283 C 0.44299 0.07739 0.61288 0.0
C284 C 0.45927 0.06868 0.57029 0.0
C285 C 0.45839 0.07418 0.50602 0.0
C286 C 0.44097 0.08829 0.48295 0.0
C287 C 0.42455 0.09685 0.52541 0.0
C288 C 0.4256 0.09155 0.58962 0.0
C289 C 0.5119 0.13559 0.86645 0.0
C290 C 0.46596 0.17733 0.80874 0.0
C291 C 0.43234 0.14308 0.02918 0.0
C292 C 0.43423 0.13403 0.09459 0.0
C293 C 0.40754 0.12406 0.12997 0.0
C294 C 0.40858 0.11535 0.19166 0.0
C295 C 0.43638 0.11649 0.21942 0.0
C296 C 0.46297 0.12607 0.18397 0.0
C297 C 0.4619 0.13466 0.12209 0.0
C298 C 0.38837 0.10296 0.81371 0.0
C299 C 0.43547 0.0594 0.92822 0.0
O300 O 0.4196 0.06865 0.71059 0.0
O301 O 0.47049 0.08479 0.71627 0.0
O302 O 0.48557 0.1182 0.89088 0.0
O303 O 0.50543 0.13872 0.80799 0.0
O304 O 0.47174 0.17633 0.86956 0.0
O305 O 0.45362 0.15024 0.77039 0.0
O306 O 0.45929 0.16036 1.00391 0.0
O307 O 0.40959 0.12095 0.9884 0.0
O308 O 0.40339 0.08971 0.83388 0.0
O309 O 0.4027 0.13156 0.84307 0.0
O310 O 0.43583 0.05708 0.865 0.0
O311 O 0.4411 0.0861 0.95806 0.0
H312 H 0.47262 0.05751 0.58672 0.0
H313 H 0.4713 0.06745 0.47423 0.0
H314 H 0.41103 0.10782 0.50883 0.0
H315 H 0.41268 0.0985 0.62099 0.0
H316 H 0.38585 0.12312 0.10989 0.0
H317 H 0.38781 0.10807 0.21807 0.0
H318 H 0.48466 0.12713 0.20444 0.0
H319 H 0.48273 0.14188 0.09594 0.0
Pr320 Pr 0.92466 0.36124 0.8012 0.0
Pr321 Pr 0.91141 0.33118 0.89588 0.0
C322 C 0.93435 0.37807 0.68063 0.0
C323 C 0.94039 0.3706 0.61585 0.0
C324 C 0.9532 0.3951 0.57564 0.0
C325 C 0.95509 0.38833 0.5114 0.0
C326 C 0.94428 0.35688 0.48605 0.0
C327 C 0.93302 0.33249 0.527 0.0
C328 C 0.93095 0.33928 0.59142 0.0
C329 C 0.91077 0.4009 0.87659 0.0
C330 C 0.84668 0.30028 0.81616 0.0
C331 C 0.91577 0.30804 1.00732 0.0
C332 C 0.92281 0.31753 0.07672 0.0
C333 C 0.93397 0.30181 0.1153 0.0
C334 C 0.93961 0.30938 0.18141 0.0
C335 C 0.93427 0.33287 0.21017 0.0
C336 C 0.92401 0.34931 0.17144 0.0
C337 C 0.9184 0.34176 0.10521 0.0
C338 C 0.92953 0.30135 0.79383 0.0
C339 C 0.97496 0.39365 0.93053 0.0
O340 O 0.9062 0.35926 0.69926 0.0
O341 O 0.95753 0.38874 0.72643 0.0
O342 O 0.89505 0.37015 0.87596 0.0
O343 O 0.93458 0.41054 0.84227 0.0
O344 O 0.85695 0.30488 0.87589 0.0
O345 O 0.86828 0.31652 0.77586 0.0
O346 O 0.88874 0.30379 0.97968 0.0
O347 O 0.93978 0.32212 0.973 0.0
O348 O 0.9451 0.32955 0.81971 0.0
O349 O 0.90173 0.2885 0.81631 0.0
O350 O 0.97541 0.38597 0.86958 0.0
O351 O 0.94683 0.37999 0.95104 0.0
H352 H 0.96058 0.4194 0.59339 0.0
H353 H 0.96383 0.40748 0.48084 0.0
H354 H 0.9246 0.30806 0.50851 0.0
H355 H 0.92099 0.31996 0.6215 0.0
H356 H 0.93779 0.28325 0.09428 0.0
H357 H 0.94741 0.29643 0.21047 0.0
H358 H 0.91973 0.36751 0.19266 0.0
H359 H 0.91018 0.35448 0.07638 0.0
Pr360 Pr 0.7024 0.13838 0.92024 0.0
Pr361 Pr 0.66468 0.10891 0.80264 0.0
C362 C 0.7286 0.15363 0.04283 0.0
C363 C 0.71761 0.14456 0.10692 0.0
C364 C 0.73439 0.13495 0.14826 0.0
C365 C 0.72483 0.12669 0.20904 0.0
C366 C 0.69823 0.12784 0.23013 0.0
C367 C 0.68111 0.13698 0.18859 0.0
C368 C 0.69062 0.14518 0.12767 0.0
C369 C 0.73151 0.11653 0.82863 0.0
C370 C 0.64292 0.06774 0.93368 0.0
C371 C 0.64342 0.07811 0.68313 0.0
C372 C 0.64893 0.08494 0.61568 0.0
C373 C 0.64731 0.11022 0.58991 0.0
C374 C 0.6542 0.11672 0.52695 0.0
C375 C 0.66294 0.09817 0.48844 0.0
C376 C 0.66431 0.07282 0.5141 0.0
C377 C 0.65745 0.06637 0.57682 0.0
C378 C 0.63576 0.1395 0.86505 0.0
C379 C 0.72202 0.1885 0.81873 0.0
O380 O 0.71904 0.17079 1.01297 0.0
O381 O 0.72903 0.13172 1.0047 0.0
O382 O 0.70376 0.10132 0.84635 0.0
O383 O 0.74593 0.14506 0.85839 0.0
O384 O 0.63949 0.06457 0.8699 0.0
O385 O 0.66234 0.09585 0.96359 0.0
O386 O 0.66756 0.07996 0.71802 0.0
O387 O 0.62777 0.08897 0.71481 0.0
O388 O 0.64759 0.12417 0.89212 0.0
O389 O 0.64224 0.14175 0.80637 0.0
O390 O 0.71774 0.18648 0.87923 0.0
O391 O 0.70776 0.16127 0.78028 0.0
H392 H 0.7551 0.13401 0.13361 0.0
H393 H 0.73839 0.11964 0.23993 0.0
H394 H 0.66048 0.13799 0.20356 0.0
H395 H 0.67691 0.15213 0.09696 0.0
H396 H 0.64116 0.12523 0.61859 0.0
H397 H 0.6531 0.1365 0.50845 0.0
H398 H 0.67122 0.05831 0.48585 0.0
H399 H 0.65958 0.0472 0.59553 0.0
Pr400 Pr 0.90669 0.5851 0.90397 0.0
Pr401 Pr 0.92542 0.56733 0.80026 0.0
C402 C 0.90276 0.60749 1.02144 0.0
C403 C 0.9096 0.60449 0.08931 0.0
C404 C 0.92895 0.63216 0.13142 0.0
C405 C 0.93472 0.62997 0.19611 0.0
C406 C 0.9213 0.60004 0.22001 0.0
C407 C 0.90252 0.57235 0.17781 0.0
C408 C 0.89676 0.57451 0.11313 0.0
C409 C 0.92787 0.63203 0.81074 0.0
C410 C 0.97348 0.58878 0.93445 0.0
C411 C 0.94065 0.56041 0.68093 0.0
C412 C 0.93801 0.56809 0.61498 0.0
C413 C 0.94117 0.55006 0.56465 0.0
C414 C 0.93937 0.55704 0.50183 0.0
C415 C 0.9346 0.5824 0.48803 0.0
C416 C 0.93165 0.60067 0.5385 0.0
C417 C 0.93309 0.59341 0.60141 0.0
C418 C 0.91043 0.51725 0.87593 0.0
C419 C 0.84772 0.55421 0.80314 0.0
O420 O 0.87848 0.58289 0.9877 0.0
O421 O 0.92759 0.62251 0.98942 0.0
O422 O 0.9421 0.61847 0.83336 0.0
O423 O 0.9007 0.6202 0.83544 0.0
O424 O 0.97474 0.59202 0.87262 0.0
O425 O 0.94567 0.57814 0.95629 0.0
O426 O 0.91439 0.53927 0.70309 0.0
O427 O 0.95959 0.58406 0.72346 0.0
O428 O 0.89371 0.53125 0.87084 0.0
O429 O 0.93525 0.53026 0.84411 0.0
O430 O 0.85365 0.55717 0.86467 0.0
O431 O 0.87187 0.56003 0.76765 0.0
H432 H 0.93933 0.65554 0.11436 0.0
H433 H 0.94926 0.65163 0.22773 0.0
H434 H 0.89196 0.54902 0.19519 0.0
H435 H 0.88201 0.55273 0.08197 0.0
H436 H 0.94504 0.53047 0.57396 0.0
H437 H 0.94164 0.54259 0.46383 0.0
H438 H 0.92789 0.62031 0.52908 0.0
H439 H 0.93028 0.60746 0.63936 0.0
Pr440 Pr 0.43824 0.32943 0.90193 0.0
Pr441 Pr 0.45309 0.35798 0.80332 0.0
C442 C 0.44025 0.31397 1.023 0.0
C443 C 0.4327 0.31865 0.08897 0.0
C444 C 0.41494 0.29219 0.12288 0.0
C445 C 0.41089 0.29645 0.1873 0.0
C446 C 0.42449 0.32729 0.21925 0.0
C447 C 0.44139 0.35372 0.18493 0.0
C448 C 0.44548 0.3495 0.12074 0.0
C449 C 0.38619 0.29881 0.80129 0.0
C450 C 0.42065 0.3788 0.92677 0.0
C451 C 0.44404 0.38098 0.695 0.0
C452 C 0.43469 0.36952 0.62632 0.0
C453 C 0.4304 0.38854 0.58383 0.0
C454 C 0.4254 0.37982 0.51794 0.0
C455 C 0.42465 0.3519 0.49331 0.0
C456 C 0.42755 0.33217 0.53602 0.0
C457 C 0.43246 0.34085 0.60189 0.0
C458 C 0.51237 0.39107 0.87299 0.0
C459 C 0.46484 0.29516 0.80896 0.0
O460 O 0.4632 0.33894 1.00073 0.0
O461 O 0.41693 0.29526 0.9791 0.0
O462 O 0.41492 0.30567 0.79907 0.0
O463 O 0.38331 0.30893 0.85749 0.0
O464 O 0.44462 0.39041 0.88925 0.0
O465 O 0.40425 0.34834 0.91972 0.0
O466 O 0.42187 0.36785 0.73391 0.0
O467 O 0.47186 0.38537 0.71797 0.0
O468 O 0.48523 0.38242 0.89639 0.0
O469 O 0.50776 0.37819 0.81495 0.0
O470 O 0.4576 0.29657 0.86701 0.0
O471 O 0.46364 0.31541 0.77072 0.0
H472 H 0.40502 0.26817 0.10006 0.0
H473 H 0.39794 0.27567 0.21275 0.0
H474 H 0.45214 0.37773 0.20837 0.0
H475 H 0.45924 0.3705 0.09639 0.0
H476 H 0.43196 0.41072 0.60147 0.0
H477 H 0.42328 0.39544 0.48607 0.0
H478 H 0.4271 0.31057 0.51822 0.0
H479 H 0.43559 0.32572 0.63367 0.0
Pr480 Pr 0.36558 0.92194 0.24332 0.0
Pr481 Pr 0.32794 0.89777 0.12551 0.0
C482 C 0.39055 0.9499 0.36391 0.0
C483 C 0.38114 0.94412 0.42979 0.0
C484 C 0.40384 0.94745 0.4789 0.0
C485 C 0.3955 0.9422 0.54131 0.0
C486 C 0.36427 0.93361 0.55611 0.0
C487 C 0.34157 0.93051 0.50716 0.0
C488 C 0.34987 0.93564 0.44468 0.0
C489 C 0.39351 0.89253 0.17382 0.0
C490 C 0.30317 0.84554 0.2192 0.0
C491 C 0.30075 0.88391 1.00385 0.0
C492 C 0.31113 0.8922 0.9392 0.0
C493 C 0.2979 0.90673 0.90201 0.0
C494 C 0.30696 0.91439 0.84076 0.0
C495 C 0.3294 0.9076 0.81514 0.0
C496 C 0.34289 0.89335 0.85231 0.0
C497 C 0.33393 0.88578 0.91368 0.0
C498 C 0.30083 0.9199 0.22252 0.0
C499 C 0.38987 0.96692 0.11667 0.0
O500 O 0.37402 0.95789 0.32619 0.0
O501 O 0.39779 0.93034 0.33451 0.0
O502 O 0.38244 0.90933 0.15043 0.0
O503 O 0.3855 0.88721 0.23107 0.0
O504 O 0.31215 0.84837 0.16173 0.0
O505 O 0.31714 0.87195 0.26 0.0
O506 O 0.30889 0.86544 0.03265 0.0
O507 O 0.30248 0.90679 0.04261 0.0
O508 O 0.32888 0.93374 0.20595 0.0
O509 O 0.28475 0.8934 0.186 0.0
O510 O 0.39425 0.96751 0.18001 0.0
O511 O 0.36733 0.94108 0.08385 0.0
H512 H 0.4281 0.95407 0.46894 0.0
H513 H 0.41341 0.94472 0.57813 0.0
H514 H 0.31734 0.9239 0.51728 0.0
H515 H 0.33177 0.93287 0.40804 0.0
H516 H 0.28032 0.91199 0.92024 0.0
H517 H 0.2962 0.92535 0.81306 0.0
H518 H 0.36024 0.88789 0.83358 0.0
H519 H 0.34478 0.8748 0.94096 0.0
Pr520 Pr 0.12457 0.43677 0.15028 0.0
Pr521 Pr 0.11621 0.46347 0.26441 0.0
C522 C 0.11854 0.4065 0.03377 0.0
C523 C 0.11799 0.41321 0.96622 0.0
C524 C 0.13633 0.40695 0.92463 0.0
C525 C 0.13542 0.41255 0.86046 0.0
C526 C 0.11591 0.42426 0.8365 0.0
C527 C 0.09743 0.43036 0.87795 0.0
C528 C 0.09855 0.42505 0.9421 0.0
C529 C 0.1852 0.46953 0.22204 0.0
C530 C 0.13934 0.51312 0.16128 0.0
C531 C 0.10922 0.48046 0.38366 0.0
C532 C 0.11043 0.47059 0.44861 0.0
C533 C 0.08222 0.45615 0.47988 0.0
C534 C 0.08294 0.44729 0.54151 0.0
C535 C 0.11192 0.45276 0.57332 0.0
C536 C 0.14006 0.46678 0.54203 0.0
C537 C 0.13935 0.47558 0.48033 0.0
C538 C 0.06293 0.44008 0.1659 0.0
C539 C 0.10288 0.39178 0.27674 0.0
O540 O 0.09441 0.40317 0.06378 0.0
O541 O 0.14584 0.42221 0.06959 0.0
O542 O 0.15838 0.45223 0.24502 0.0
O543 O 0.17961 0.47368 0.16387 0.0
O544 O 0.14502 0.51191 0.22208 0.0
O545 O 0.12739 0.48614 0.1226 0.0
O546 O 0.13626 0.49553 0.35743 0.0
O547 O 0.085 0.46005 0.34315 0.0
O548 O 0.0775 0.42638 0.1857 0.0
O549 O 0.07691 0.46826 0.19716 0.0
O550 O 0.10761 0.39172 0.21504 0.0
O551 O 0.1065 0.41749 0.30772 0.0
H552 H 0.15137 0.3977 0.9418 0.0
H553 H 0.14998 0.4078 0.82947 0.0
H554 H 0.08232 0.43952 0.86067 0.0
H555 H 0.08419 0.43026 0.97278 0.0
H556 H 0.05957 0.45193 0.45679 0.0
H557 H 0.06097 0.43655 0.56476 0.0
H558 H 0.16267 0.47124 0.56574 0.0
H559 H 0.16151 0.4865 0.45776 0.0
Pr560 Pr 0.57532 0.66977 0.24795 0.0
Pr561 Pr 0.59228 0.70132 0.14559 0.0
C562 C 0.57149 0.6437 0.35966 0.0
C563 C 0.57793 0.65296 0.429 0.0
C564 C 0.5562 0.63262 0.4693 0.0
C565 C 0.5614 0.64085 0.53506 0.0
C566 C 0.58858 0.66949 0.5618 0.0
C567 C 0.61055 0.6898 0.52162 0.0
C568 C 0.60515 0.68169 0.45567 0.0
C569 C 0.51781 0.64039 0.16729 0.0
C570 C 0.56528 0.73256 0.23267 0.0
C571 C 0.60963 0.72792 0.03547 0.0
C572 C 0.60691 0.71808 0.96678 0.0
C573 C 0.63465 0.73146 0.93417 0.0
C574 C 0.63262 0.72315 0.86893 0.0
C575 C 0.60276 0.70142 0.83515 0.0
C576 C 0.57506 0.68768 0.86767 0.0
C577 C 0.5771 0.69583 0.933 0.0
C578 C 0.64214 0.72936 0.25431 0.0
C579 C 0.59439 0.63804 0.1193 0.0
O580 O 0.59613 0.65356 0.32668 0.0
O581 O 0.54773 0.64493 0.33041 0.0
O582 O 0.5457 0.64864 0.14931 0.0
O583 O 0.52137 0.65409 0.22374 0.0
O584 O 0.55755 0.71848 0.17499 0.0
O585 O 0.57816 0.7212 0.27368 0.0
O586 O 0.58336 0.72286 0.06014 0.0
O587 O 0.62837 0.72237 0.07303 0.0
O588 O 0.62657 0.701 0.22986 0.0
O589 O 0.63242 0.74493 0.22128 0.0
O590 O 0.59056 0.63678 0.18137 0.0
O591 O 0.59233 0.65978 0.09056 0.0
H592 H 0.53506 0.61038 0.44978 0.0
H593 H 0.54416 0.62491 0.56518 0.0
H594 H 0.63163 0.71204 0.54129 0.0
H595 H 0.62209 0.69793 0.42557 0.0
H596 H 0.6579 0.74858 0.95913 0.0
H597 H 0.65425 0.73398 0.8446 0.0
H598 H 0.55183 0.67083 0.84233 0.0
H599 H 0.55534 0.68491 0.95688 0.0
Pr600 Pr 0.37195 0.46216 0.25708 0.0
Pr601 Pr 0.33312 0.44212 0.14284 0.0
C602 C 0.39927 0.47693 0.37923 0.0
C603 C 0.38993 0.47002 0.44528 0.0
C604 C 0.38481 0.44172 0.4703 0.0
C605 C 0.3771 0.43626 0.53323 0.0
C606 C 0.37432 0.45893 0.57263 0.0
C607 C 0.37962 0.48718 0.54779 0.0
C608 C 0.38737 0.49268 0.48522 0.0
C609 C 0.39702 0.44148 0.15422 0.0
C610 C 0.30881 0.39396 0.26562 0.0
C611 C 0.3057 0.41668 1.02209 0.0
C612 C 0.31621 0.42153 0.95679 0.0
C613 C 0.29502 0.41941 0.90617 0.0
C614 C 0.30525 0.42632 0.84537 0.0
C615 C 0.3378 0.43786 0.83343 0.0
C616 C 0.35721 0.43499 0.88279 0.0
C617 C 0.34706 0.42814 0.94378 0.0
C618 C 0.30867 0.47254 0.21925 0.0
C619 C 0.39783 0.5164 0.16816 0.0
O620 O 0.39043 0.49467 0.34982 0.0
O621 O 0.39784 0.45407 0.34092 0.0
O622 O 0.36918 0.42765 0.17173 0.0
O623 O 0.4144 0.46719 0.1927 0.0
O624 O 0.29975 0.39876 0.20805 0.0
O625 O 0.33776 0.41393 0.29188 0.0
O626 O 0.31755 0.40392 0.05961 0.0
O627 O 0.304 0.43993 0.05199 0.0
O628 O 0.31815 0.45372 0.23855 0.0
O629 O 0.31732 0.47975 0.16288 0.0
O630 O 0.38843 0.51257 0.22513 0.0
O631 O 0.38287 0.49076 0.12569 0.0
H632 H 0.38681 0.42377 0.44139 0.0
H633 H 0.37323 0.4143 0.55112 0.0
H634 H 0.37775 0.50512 0.57708 0.0
H635 H 0.39152 0.51488 0.46816 0.0
H636 H 0.27036 0.41237 0.91359 0.0
H637 H 0.28695 0.42211 0.80807 0.0
H638 H 0.38024 0.43744 0.87533 0.0
H639 H 0.3634 0.42797 0.98078 0.0
Pr640 Pr 0.58709 0.90421 0.13537 0.0
Pr641 Pr 0.57833 0.92901 0.24813 0.0
C642 C 0.5954 0.88669 1.01741 0.0
C643 C 0.59467 0.89537 0.95134 0.0
C644 C 0.62318 0.90913 0.92095 0.0
C645 C 0.62301 0.91695 0.85834 0.0
C646 C 0.59429 0.91111 0.82471 0.0
C647 C 0.56582 0.89763 0.855 0.0
C648 C 0.56598 0.88985 0.91767 0.0
C649 C 0.64061 0.92608 0.23457 0.0
C650 C 0.59723 0.97404 0.12143 0.0
C651 C 0.5832 0.95756 0.36591 0.0
C652 C 0.58603 0.9512 0.43294 0.0
C653 C 0.56972 0.95851 0.47782 0.0
C654 C 0.57176 0.95234 0.54123 0.0
C655 C 0.59035 0.93893 0.56114 0.0
C656 C 0.60697 0.9319 0.5164 0.0
C657 C 0.60467 0.93778 0.45282 0.0
C658 C 0.51798 0.89752 0.17518 0.0
C659 C 0.56275 0.85341 0.23053 0.0
O660 O 0.56812 0.8716 0.04276 0.0
O661 O 0.61901 0.90794 0.0579 0.0
O662 O 0.62643 0.94046 0.21617 0.0
O663 O 0.62633 0.89857 0.20125 0.0
O664 O 0.59312 0.97403 0.18351 0.0
O665 O 0.59444 0.94877 0.09049 0.0
O666 O 0.60768 0.96435 0.33374 0.0
O667 O 0.55581 0.93885 0.33211 0.0
O668 O 0.54499 0.91559 0.15368 0.0
O669 O 0.52321 0.89192 0.23243 0.0
O670 O 0.55224 0.85625 0.17447 0.0
O671 O 0.57819 0.88009 0.27025 0.0
H672 H 0.64566 0.91368 0.94556 0.0
H673 H 0.64525 0.92731 0.83591 0.0
H674 H 0.54341 0.89294 0.82988 0.0
H675 H 0.5436 0.87938 0.93954 0.0
H676 H 0.55523 0.96886 0.4637 0.0
H677 H 0.55875 0.95795 0.57484 0.0
H678 H 0.62147 0.92157 0.53062 0.0
H679 H 0.61732 0.93168 0.41919 0.0
Pr680 Pr 0.11553 0.65999 0.26764 0.0
Pr681 Pr 0.12325 0.69244 0.16161 0.0
C682 C 0.1063 0.63373 0.37902 0.0
C683 C 0.10804 0.64216 0.44791 0.0
C684 C 0.11699 0.62645 0.49093 0.0
C685 C 0.11773 0.63292 0.55635 0.0
C686 C 0.10963 0.65533 0.58009 0.0
C687 C 0.10089 0.67134 0.53723 0.0
C688 C 0.09999 0.66473 0.47151 0.0
C689 C 0.06212 0.6283 0.16809 0.0
C690 C 0.10401 0.71935 0.2956 0.0
C691 C 0.11559 0.7138 0.04992 0.0
C692 C 0.11603 0.70614 0.98117 0.0
C693 C 0.14481 0.71514 0.95394 0.0
C694 C 0.14426 0.70537 0.89006 0.0
C695 C 0.11488 0.68441 0.85213 0.0
C696 C 0.08654 0.6799 0.8779 0.0
C697 C 0.08702 0.68981 0.94151 0.0
C698 C 0.18439 0.72224 0.23025 0.0
C699 C 0.14144 0.63333 0.16207 0.0
O700 O 0.13349 0.64497 0.35326 0.0
O701 O 0.08343 0.63371 0.34268 0.0
O702 O 0.076 0.65653 0.19342 0.0
O703 O 0.07728 0.61521 0.1932 0.0
O704 O 0.10689 0.72211 0.23355 0.0
O705 O 0.10885 0.69834 0.32184 0.0
O706 O 0.09203 0.6919 0.07705 0.0
O707 O 0.14269 0.72753 0.08652 0.0
O708 O 0.15785 0.71333 0.25518 0.0
O709 O 0.17805 0.70989 0.17162 0.0
O710 O 0.14724 0.64239 0.22306 0.0
O711 O 0.12757 0.64587 0.12657 0.0
H712 H 0.12316 0.60892 0.47385 0.0
H713 H 0.12457 0.62036 0.58864 0.0
H714 H 0.09456 0.68871 0.55462 0.0
H715 H 0.09283 0.67706 0.4393 0.0
H716 H 0.16786 0.72977 0.98185 0.0
H717 H 0.16732 0.71514 0.87149 0.0
H718 H 0.06358 0.66888 0.84948 0.0
H719 H 0.06452 0.68451 0.9598 0.0
C720 C 0.11198 0.3634 0.36682 0.0
C721 C 0.0914 0.36308 0.315 0.0
C722 C 0.04465 0.32314 0.36542 0.0
C723 C 0.06515 0.32128 0.41432 0.0
N724 N 0.11906 0.33691 0.45564 0.0
N725 N 0.03837 0.33742 0.25963 0.0
C726 C 0.09908 0.34074 0.41339 0.0
C727 C 0.05784 0.34113 0.31268 0.0
N728 N 0.14399 0.38588 0.37212 0.0
N729 N 1.01236 0.30884 0.37107 0.0
H730 H 0.04757 0.34961 0.22021 0.0
H731 H 0.0141 0.3199 0.25193 0.0
H732 H 1.00224 0.2975 0.4109 0.0
H733 H 0.99628 0.31135 0.34035 0.0
H734 H 0.15976 0.39025 0.41212 0.0
H735 H 0.15443 0.40121 0.33717 0.0
H736 H 0.14382 0.34756 0.45337 0.0
H737 H 0.11047 0.32137 0.49084 0.0
C738 C 0.68642 0.7753 0.42164 0.0
C739 C 0.69949 0.75631 0.44324 0.0
C740 C 0.67831 0.72341 0.33935 0.0
C741 C 0.66342 0.74073 0.31825 0.0
N742 N 0.64833 0.78004 0.34952 0.0
N743 N 0.69138 0.70289 0.43027 0.0
C744 C 0.6663 0.766 0.36198 0.0
C745 C 0.69053 0.72757 0.40448 0.0
N746 N 0.69199 0.80186 0.4587 0.0
N747 N 0.68207 0.7035 0.29705 0.0
H748 H 0.69573 0.70282 0.47894 0.0
H749 H 0.68296 0.68074 0.40454 0.0
H750 H 0.6764 0.70167 0.24822 0.0
H751 H 0.69487 0.69224 0.30981 0.0
H752 H 0.68906 0.81993 0.44114 0.0
H753 H 0.69927 0.80587 0.5071 0.0
H754 H 0.64596 0.79514 0.38294 0.0
H755 H 0.63333 0.77492 0.30821 0.0
C756 C 0.2984 0.97559 0.35944 0.0
C757 C 0.27241 0.9544 0.39255 0.0
C758 C 0.2664 0.90955 0.31903 0.0
C759 C 0.28981 0.93129 0.2805 0.0
N760 N 0.32188 0.9865 0.25943 0.0
N761 N 0.22876 0.9012 0.39815 0.0
C762 C 0.30426 0.96473 0.29986 0.0
C763 C 0.25568 0.92138 0.3707 0.0
N764 N 0.31761 1.00653 0.38505 0.0
N765 N 0.25505 0.87754 0.30865 0.0
H766 H 0.22137 0.90871 0.43767 0.0
H767 H 0.21276 0.87772 0.37936 0.0
H768 H 0.26165 0.86728 0.27268 0.0
H769 H 0.24116 0.86125 0.33954 0.0
H770 H 0.33843 0.02289 0.36621 0.0
H771 H 0.31443 0.01492 0.42896 0.0
H772 H 0.33038 0.01087 0.26814 0.0
H773 H 0.32443 0.98003 0.21341 0.0
C774 C 0.33682 0.10159 0.66341 0.0
C775 C 0.32699 0.07127 0.6297 0.0
C776 C 0.35299 0.05979 0.72123 0.0
C777 C 0.36351 0.09033 0.75444 0.0
N778 N 0.352 0.13326 0.76551 0.0
N779 N 0.33898 0.0286 0.61923 0.0
C780 C 0.3517 0.1093 0.72783 0.0
C781 C 0.33875 0.05234 0.65662 0.0
N782 N 0.33466 0.12442 0.63252 0.0
N783 N 0.35375 0.03643 0.75278 0.0
H784 H 0.33342 0.02513 0.57016 0.0
H785 H 0.34965 0.01584 0.63507 0.0
H786 H 0.3597 0.03905 0.80162 0.0
H787 H 0.3436 0.01291 0.73264 0.0
H788 H 0.34373 0.14773 0.6528 0.0
H789 H 0.32825 0.12174 0.58388 0.0
H790 H 0.34106 0.14595 0.75068 0.0
H791 H 0.35874 0.13728 0.8142 0.0
C792 C 0.9687 0.30654 0.70952 0.0
C793 C 0.93922 0.28754 0.73679 0.0
C794 C 0.92326 0.24649 0.64419 0.0
C795 C 0.95284 0.26548 0.61726 0.0
N796 N 0.9961 0.31963 0.6139 0.0
N797 N 0.89497 0.23374 0.73884 0.0
C798 C 0.97343 0.29719 0.64711 0.0
C799 C 0.91828 0.25598 0.70638 0.0
N800 N 0.99376 0.33232 0.74505 0.0
N801 N 0.89842 0.22058 0.60853 0.0
H802 H 0.8929 0.23797 0.78654 0.0
H803 H 0.88102 0.20967 0.72189 0.0
H804 H 0.89897 0.21499 0.56068 0.0
H805 H 0.87542 0.20761 0.62314 0.0
H806 H 0.01648 0.34552 0.72947 0.0
H807 H 0.99382 0.33743 0.79342 0.0
H808 H 1.00965 0.34378 0.63059 0.0
H809 H 0.99781 0.31536 0.56595 0.0
C810 C 0.7223 0.67346 0.66866 0.0
C811 C 0.75394 0.68841 0.64984 0.0
C812 C 0.76963 0.66663 0.74036 0.0
C813 C 0.73759 0.6519 0.76017 0.0
N814 N 0.68887 0.65524 0.75483 0.0
N815 N 0.80664 0.69508 0.66154 0.0
C816 C 0.71524 0.65879 0.72708 0.0
C817 C 0.77717 0.68352 0.68384 0.0
N818 N 0.69853 0.6733 0.63 0.0
N819 N 0.7939 0.66782 0.7793 0.0
H820 H 0.81242 0.7075 0.62129 0.0
H821 H 0.82414 0.69005 0.67857 0.0
H822 H 0.79098 0.66051 0.82473 0.0
H823 H 0.81801 0.67968 0.77075 0.0
H824 H 0.6742 0.65975 0.63657 0.0
H825 H 0.70297 0.68374 0.58731 0.0
H826 H 0.67358 0.66262 0.73558 0.0
H827 H 0.68515 0.65035 0.80165 0.0
C828 C 0.93157 0.68682 0.67629 0.0
C829 C 0.95918 0.69118 0.64708 0.0
C830 C 0.96925 0.66338 0.73216 0.0
C831 C 0.93926 0.6548 0.75729 0.0
N832 N 0.89148 0.66007 0.7491 0.0
N833 N 0.99943 0.67621 0.63982 0.0
C834 C 0.92017 0.66673 0.72769 0.0
C835 C 0.97608 0.67673 0.67252 0.0
N836 N 0.91731 0.70368 0.65782 0.0
N837 N 0.99296 0.66177 0.76746 0.0
H838 H 1.00467 0.68549 0.59609 0.0
H839 H 1.01065 0.66344 0.65248 0.0
H840 H 0.99209 0.65793 0.81524 0.0
H841 H 0.01583 0.66965 0.75288 0.0
H842 H 0.90009 0.70558 0.68225 0.0
H843 H 0.92434 0.71761 0.61994 0.0
H844 H 0.87438 0.66316 0.72311 0.0
H845 H 0.88422 0.65136 0.79228 0.0
C846 C 0.3385 0.24931 0.64299 0.0
C847 C 0.32414 0.26677 0.61941 0.0
C848 C 0.34892 0.30467 0.71774 0.0
C849 C 0.36171 0.28621 0.74252 0.0
N850 N 0.36254 0.23711 0.73333 0.0
N851 N 0.33013 0.31931 0.62408 0.0
C852 C 0.35483 0.25754 0.70613 0.0
C853 C 0.3331 0.29666 0.65415 0.0
N854 N 0.3397 0.22694 0.60289 0.0
N855 N 0.35152 0.32996 0.75486 0.0
H856 H 0.32384 0.31692 0.57544 0.0
H857 H 0.33889 0.34252 0.64465 0.0
H858 H 0.36385 0.33767 0.80011 0.0
H859 H 0.33903 0.3416 0.74287 0.0
H860 H 0.35227 0.21543 0.61512 0.0
H861 H 0.33232 0.22322 0.55449 0.0
H862 H 0.35476 0.21405 0.71309 0.0
H863 H 0.37402 0.24203 0.77926 0.0
C864 C 0.75481 0.08152 0.79297 0.0
C865 C 0.7446 0.10328 0.77828 0.0
C866 C 0.7493 0.09206 0.66425 0.0
C867 C 0.76243 0.07231 0.67957 0.0
N868 N 0.79163 0.06379 0.76726 0.0
N869 N 0.74579 0.13815 0.70173 0.0
C870 C 0.76916 0.07139 0.74648 0.0
C871 C 0.74586 0.11116 0.71437 0.0
N872 N 0.75197 0.07108 0.85192 0.0
N873 N 0.73958 0.09283 0.60298 0.0
H874 H 0.74865 0.15456 0.73876 0.0
H875 H 0.7488 0.14648 0.657 0.0
H876 H 0.7405 0.07927 0.56438 0.0
H877 H 0.72775 0.10514 0.5912 0.0
H878 H 0.75635 0.05282 0.86275 0.0
H879 H 0.74302 0.07895 0.88811 0.0
H880 H 0.79866 0.06517 0.81536 0.0
H881 H 0.80697 0.06128 0.7379 0.0
C882 C 0.67556 0.96622 0.33085 0.0
C883 C 0.66291 0.93545 0.29698 0.0
C884 C 0.68228 0.91937 0.39193 0.0
C885 C 0.69472 0.95016 0.42568 0.0
N886 N 0.68857 0.99667 0.43338 0.0
N887 N 0.66653 0.88744 0.29015 0.0
C888 C 0.68734 0.9719 0.39684 0.0
C889 C 0.6696 0.91326 0.32613 0.0
N890 N 0.67883 0.99114 0.29901 0.0
N891 N 0.67974 0.89478 0.42406 0.0
H892 H 0.66175 0.88404 0.24098 0.0
H893 H 0.67381 0.87216 0.30738 0.0
H894 H 0.68514 0.8971 0.47304 0.0
H895 H 0.66789 0.87112 0.40411 0.0
H896 H 0.69069 0.01467 0.31989 0.0
H897 H 0.6742 0.9892 0.24984 0.0
H898 H 0.68066 0.01143 0.41577 0.0
H899 H 0.69235 0.99935 0.48275 0.0
C900 C 0.05897 0.72773 0.42884 0.0
C901 C 0.07612 0.76093 0.45132 0.0
C902 C 0.11189 0.76876 0.36462 0.0
C903 C 0.09191 0.7364 0.33879 0.0
N904 N 0.04132 0.6877 0.3388 0.0
N905 N 0.11787 0.81404 0.43182 0.0
C906 C 0.06369 0.71702 0.36829 0.0
C907 C 0.10229 0.78178 0.41664 0.0
N908 N 0.04012 0.70562 0.46752 0.0
N909 N 0.14073 0.78686 0.34106 0.0
H910 H 0.11252 0.82507 0.46865 0.0
H911 H 0.13462 0.83027 0.40436 0.0
H912 H 0.14762 0.77846 0.30202 0.0
H913 H 0.1585 0.8092 0.36247 0.0
H914 H 0.02918 0.68108 0.45519 0.0
H915 H 0.03949 0.71145 0.51527 0.0
H916 H 0.01876 0.6739 0.35485 0.0
H917 H 0.04394 0.67909 0.29458 0.0
C918 C 0.29132 0.37879 0.37559 0.0
C919 C 0.28714 0.36928 0.3088 0.0
C920 C 0.24986 0.31455 0.33425 0.0
C921 C 0.26122 0.32261 0.40082 0.0
N922 N 0.29628 0.36543 0.4823 0.0
N923 N 0.26239 0.32566 0.2259 0.0
C924 C 0.2827 0.35564 0.42097 0.0
C925 C 0.26623 0.33646 0.28843 0.0
N926 N 0.30278 0.41016 0.39595 0.0
N927 N 0.22216 0.28651 0.31471 0.0
H928 H 0.27361 0.34074 0.19116 0.0
H929 H 0.24995 0.30143 0.20968 0.0
H930 H 0.2075 0.27179 0.34686 0.0
H931 H 0.21156 0.28039 0.26794 0.0
H932 H 0.30383 0.41822 0.44317 0.0
H933 H 0.30724 0.42732 0.36449 0.0
H934 H 0.31416 0.38884 0.49719 0.0
H935 H 0.29196 0.35023 0.51752 0.0
C936 C 1.01027 0.43838 1.01643 0.0
C937 C 1.00349 0.4096 0.9808 0.0
C938 C 0.02914 0.39793 0.07149 0.0
C939 C 0.03889 0.42814 0.1056 0.0
N940 N 0.02614 0.47016 0.11887 0.0
N941 N 1.01292 0.36559 0.96994 0.0
C942 C 0.02625 0.44674 0.0801 0.0
C943 C 0.01524 0.39077 1.0069 0.0
N944 N 1.00178 0.45807 0.98838 0.0
N945 N 0.02921 0.37426 0.10299 0.0
H946 H 1.00301 0.35977 0.92268 0.0
H947 H 0.0239 0.35283 0.98408 0.0
H948 H 0.03353 0.37641 0.15215 0.0
H949 H 0.01987 0.35096 0.08228 0.0
H950 H 1.00854 0.48097 1.0079 0.0
H951 H 0.99041 0.45244 0.94217 0.0
H952 H 0.01509 0.48292 0.10542 0.0
H953 H 0.03334 0.47414 0.16735 0.0
C954 C 0.64896 0.62403 1.0204 0.0
C955 C 0.62757 0.60197 0.96876 0.0
C956 C 0.58204 0.59767 1.02499 0.0
C957 C 0.60363 0.61796 0.07839 0.0
N958 N 0.65709 0.64413 0.13176 0.0
N959 N 0.57306 0.5644 0.92638 0.0
C960 C 0.63688 0.62879 0.07764 0.0
C961 C 0.59383 0.5878 0.97235 0.0
N962 N 0.68104 0.64189 1.01326 0.0
N963 N 0.55018 0.58846 1.02411 0.0
H964 H 0.58096 0.55772 0.88661 0.0
H965 H 0.5484 0.55047 0.92944 0.0
H966 H 0.54069 0.59355 0.06327 0.0
H967 H 0.53359 0.57698 0.98426 0.0
H968 H 0.69771 0.66021 0.04672 0.0
H969 H 0.69025 0.64083 0.97037 0.0
H970 H 0.68117 0.65008 0.13646 0.0
H971 H 0.64872 0.6477 0.17405 0.0
C972 C 0.39339 0.02166 0.99341 0.0
C973 C 0.42364 0.03188 0.96931 0.0
C974 C 0.43509 1.00282 0.05031 0.0
C975 C 0.40604 0.99518 0.07778 0.0
N976 N 0.36079 1.00315 0.0817 0.0
N977 N 0.47545 0.0358 0.98138 0.0
C978 C 0.38633 1.00652 0.05104 0.0
C979 C 0.44513 0.02346 0.99976 0.0
N980 N 0.37093 0.02602 0.9602 0.0
N981 N 0.45266 0.9896 0.07127 0.0
H982 H 0.4828 0.04964 0.94326 0.0
H983 H 0.4936 0.03369 1.00575 0.0
H984 H 0.44652 0.9756 0.1092 0.0
H985 H 0.4721 0.99115 0.04922 0.0
H986 H 0.34725 0.01645 0.97121 0.0
H987 H 0.37513 0.03651 0.91759 0.0
H988 H 0.34735 0.01372 0.06897 0.0
H989 H 0.35531 0.99258 0.1241 0.0
C990 C 0.59568 0.02129 0.98221 0.0
C991 C 0.62926 0.04079 0.97704 0.0
C992 C 0.64008 0.02374 0.07985 0.0
C993 C 0.6068 1.00204 0.08213 0.0
N994 N 0.55274 0.97793 0.03154 0.0
N995 N 0.68321 0.0544 1.0151 0.0
C996 C 0.58459 1.00031 0.03208 0.0
C997 C 0.6513 0.04024 1.02454 0.0
N998 N 0.57431 0.02337 0.94056 0.0
N999 N 0.6612 0.02846 0.13084 0.0
H1000 H 0.69199 0.0647 0.97353 0.0
H1001 H 0.70029 0.05286 0.04471 0.0
H1002 H 0.65366 0.01665 0.17147 0.0
H1003 H 0.68539 0.04625 0.13559 0.0
H1004 H 0.54981 0.01296 0.94563 0.0
H1005 H 0.58162 0.03695 0.90224 0.0
H1006 H 0.53564 0.97241 0.99329 0.0
H1007 H 0.54371 0.96388 0.06894 0.0
C1008 C 0.02413 0.63445 0.08784 0.0
C1009 C 0.03828 0.61615 0.1075 0.0
C1010 C 0.01376 0.5816 1.00462 0.0
C1011 C 1.00207 0.60161 0.98428 0.0
N1012 N 1.00248 0.65103 1.00123 0.0
N1013 N 0.03589 0.56523 0.0911 0.0
C1014 C 1.00949 0.6293 1.02433 0.0
C1015 C 0.0305 0.58787 0.06733 0.0
N1016 N 0.02138 0.65451 0.13175 0.0
N1017 N 1.00902 0.55667 0.96318 0.0
H1018 H 0.04393 0.56649 0.13827 0.0
H1019 H 0.02865 0.54312 0.06678 0.0
H1020 H 0.99691 0.55192 0.91788 0.0
H1021 H 0.01928 0.54257 0.97089 0.0
H1022 H 1.00872 0.66619 0.12166 0.0
H1023 H 0.02713 0.65561 0.1803 0.0
H1024 H 1.01011 0.67335 1.02531 0.0
H1025 H 0.99221 0.6481 0.9548 0.0
C1026 C 0.42477 0.44583 0.04984 0.0
C1027 C 0.4074 0.42773 0.09933 0.0
C1028 C 0.39989 0.37896 0.03837 0.0
C1029 C 0.41669 0.39649 0.98654 0.0
N1030 N 0.43898 0.44671 0.9409 0.0
N1031 N 0.3874 0.37881 0.14762 0.0
C1032 C 0.42793 0.4301 0.99239 0.0
C1033 C 0.39717 0.39484 0.09477 0.0
N1034 N 0.43869 0.47829 0.05777 0.0
N1035 N 0.38532 0.34646 0.03496 0.0
H1036 H 0.38757 0.38973 0.1916 0.0
H1037 H 0.38274 0.35559 0.15059 0.0
H1038 H 0.39444 0.33323 1.01434 0.0
H1039 H 0.36533 0.33267 0.05903 0.0
H1040 H 0.45487 0.49355 0.02823 0.0
H1041 H 0.43635 0.49042 0.09732 0.0
H1042 H 0.44415 0.4701 0.93856 0.0
H1043 H 0.43966 0.4362 0.89728 0.0
C1044 C 0.10103 0.22878 0.43317 0.0
C1045 C 0.08374 0.21988 0.48775 0.0
C1046 C 0.1243 0.20739 0.53415 0.0
C1047 C 0.14268 0.21829 0.4813 0.0
N1048 N 0.14315 0.22949 0.37301 0.0
N1049 N 0.07459 0.19307 0.58255 0.0
C1050 C 0.1291 0.2257 0.42833 0.0
C1051 C 0.09391 0.20642 0.53542 0.0
N1052 N 0.09131 0.24144 0.38696 0.0
N1053 N 0.13686 0.19964 0.58491 0.0
H1054 H 0.05261 0.19226 0.58468 0.0
H1055 H 0.07877 0.18041 0.61608 0.0
H1056 H 0.15773 0.19822 0.58389 0.0
H1057 H 0.12736 0.19563 0.62852 0.0
H1058 H 0.1047 0.25209 0.34962 0.0
H1059 H 0.07007 0.24224 0.38754 0.0
H1060 H 0.13383 0.23293 0.3306 0.0
H1061 H 0.16246 0.22565 0.36855 0.0
C1062 C 0.82962 0.9294 0.50656 0.0
C1063 C 0.80226 0.92987 0.47834 0.0
C1064 C 0.77843 0.87214 0.44025 0.0
C1065 C 0.80342 0.87072 0.47732 0.0
N1066 N 0.85796 0.90026 0.52561 0.0
N1067 N 0.75108 0.90163 0.41501 0.0
C1068 C 0.83056 0.90018 0.50437 0.0
C1069 C 0.77722 0.90137 0.44289 0.0
N1070 N 0.85441 0.95704 0.53781 0.0
N1071 N 0.75621 0.84594 0.40113 0.0
H1072 H 0.75031 0.92255 0.41201 0.0
H1073 H 0.72973 0.88119 0.39669 0.0
H1074 H 0.7562 0.82454 0.3967 0.0
H1075 H 0.73949 0.84608 0.368 0.0
H1076 H 0.87324 0.95835 0.56696 0.0
H1077 H 0.85563 0.97902 0.53572 0.0
H1078 H 0.87974 0.92073 0.54164 0.0
H1079 H 0.85984 0.87974 0.52138 0.0
C1080 C 0.10413 0.87693 0.42691 0.0
C1081 C 0.08516 0.87453 0.47791 0.0
C1082 C 0.12605 0.93081 0.51768 0.0
C1083 C 0.14745 0.93135 0.47326 0.0
N1084 N 0.1564 0.90442 0.38478 0.0
N1085 N 0.07157 0.90527 0.54934 0.0
C1086 C 0.13604 0.90436 0.42716 0.0
C1087 C 0.09427 0.90339 0.51655 0.0
N1088 N 0.09107 0.85431 0.37588 0.0
N1089 N 0.13669 0.9555 0.56435 0.0
H1090 H 0.04757 0.88684 0.54496 0.0
H1091 H 0.07527 0.92627 0.5737 0.0
H1092 H 0.15894 0.97639 0.56637 0.0
H1093 H 0.12423 0.95449 0.60351 0.0
H1094 H 0.10254 0.85578 0.33504 0.0
H1095 H 0.06705 0.83623 0.37027 0.0
H1096 H 0.15197 0.88426 0.35594 0.0
H1097 H 0.17871 0.92456 0.38071 0.0
C1098 C 0.19043 0.11508 0.56131 0.0
C1099 C 0.21852 0.14441 0.58504 0.0
C1100 C 0.24307 0.11292 0.62268 0.0
C1101 C 0.21788 0.08465 0.58707 0.0
N1102 N 0.16529 0.05798 0.52922 0.0
N1103 N 0.27121 0.17101 0.64302 0.0
C1104 C 0.19068 0.08555 0.55931 0.0
C1105 C 0.24443 0.14314 0.6184 0.0
N1106 N 0.16324 0.11563 0.54123 0.0
N1107 N 0.26575 0.11095 0.66066 0.0
H1108 H 0.27237 0.193 0.64403 0.0
H1109 H 0.29266 0.17259 0.66044 0.0
H1110 H 0.2653 0.08952 0.66517 0.0
H1111 H 0.28302 0.12968 0.69254 0.0
H1112 H 0.14093 0.0953 0.52779 0.0
H1113 H 0.1624 0.13673 0.5436 0.0
H1114 H 0.14644 0.05701 0.50069 0.0
H1115 H 0.16357 0.03579 0.53181 0.0
C1116 C 0.88033 0.11478 0.6301 0.0
C1117 C 0.87268 0.08519 0.59548 0.0
C1118 C 0.92808 0.11294 0.56101 0.0
C1119 C 0.93387 0.14314 0.58829 0.0
N1120 N 0.91859 0.17095 0.66403 0.0
N1121 N 0.89021 0.05678 0.52685 0.0
C1122 C 0.91106 0.14341 0.62797 0.0
C1123 C 0.89718 0.08434 0.56202 0.0
N1124 N 0.85691 0.11594 0.66166 0.0
N1125 N 0.95286 0.11154 0.5357 0.0
H1126 H 0.86901 0.03522 0.52857 0.0
H1127 H 0.90475 0.05542 0.49381 0.0
H1128 H 0.97572 0.13166 0.53607 0.0
H1129 H 0.95201 0.09035 0.52049 0.0
H1130 H 0.85806 0.13685 0.68003 0.0
H1131 H 0.83517 0.09552 0.66699 0.0
H1132 H 0.90509 0.17225 0.69939 0.0
H1133 H 0.93985 0.19246 0.66279 0.0
C1134 C 0.90777 0.76573 0.54195 0.0
C1135 C 0.93764 0.79362 0.56532 0.0
C1136 C 0.90665 0.81981 0.5979 0.0
C1137 C 0.87723 0.79303 0.56945 0.0
N1138 N 0.84992 0.74024 0.51366 0.0
N1139 N 0.96557 0.84765 0.61419 0.0
C1140 C 0.87788 0.76574 0.54243 0.0
C1141 C 0.93695 0.82065 0.59357 0.0
N1142 N 0.90796 0.73909 0.51797 0.0
N1143 N 0.90545 0.84446 0.62956 0.0
H1144 H 0.98766 0.8485 0.61393 0.0
H1145 H 0.96781 0.86951 0.62917 0.0
H1146 H 0.88383 0.84428 0.6332 0.0
H1147 H 0.92508 0.86386 0.65594 0.0
H1148 H 0.8875 0.7166 0.5082 0.0
H1149 H 0.92901 0.7388 0.51107 0.0
H1150 H 0.84862 0.72149 0.48478 0.0
H1151 H 0.82752 0.73824 0.51643 0.0
C1152 C 0.78677 0.52161 0.80063 0.0
C1153 C 0.81426 0.54727 0.77799 0.0
C1154 C 0.78078 0.5712 0.74871 0.0
C1155 C 0.75426 0.54711 0.77704 0.0
N1156 N 0.72902 0.49443 0.81082 0.0
N1157 N 0.83374 0.59022 0.71119 0.0
C1158 C 0.75641 0.52068 0.79662 0.0
C1159 C 0.80997 0.56991 0.74539 0.0
N1160 N 0.79005 0.49843 0.82772 0.0
N1161 N 0.77896 0.59643 0.72834 0.0
H1162 H 0.85508 0.58996 0.70785 0.0
H1163 H 0.83104 0.60501 0.68092 0.0
H1164 H 0.75788 0.59749 0.72667 0.0
H1165 H 0.79862 0.6169 0.71529 0.0
H1166 H 0.77273 0.4813 0.85286 0.0
H1167 H 0.81089 0.49693 0.8263 0.0
H1168 H 0.7277 0.47311 0.82066 0.0
H1169 H 0.70663 0.49305 0.80682 0.0
C1170 C 0.4484 0.24165 0.74697 0.0
C1171 C 0.47137 0.26858 0.78873 0.0
C1172 C 0.49766 0.23774 0.81749 0.0
C1173 C 0.47061 0.20888 0.78812 0.0
N1174 N 0.42013 0.18414 0.72088 0.0
N1175 N 0.51938 0.29275 0.86173 0.0
C1176 C 0.44631 0.21113 0.75044 0.0
C1177 C 0.49665 0.26677 0.82272 0.0
N1178 N 0.42841 0.24516 0.7041 0.0
N1179 N 0.52473 0.23742 0.83944 0.0
H1180 H 0.52066 0.31486 0.86327 0.0
H1181 H 0.53599 0.29202 0.89428 0.0
H1182 H 0.52656 0.2169 0.83389 0.0
H1183 H 0.54633 0.25792 0.85657 0.0
H1184 H 0.41333 0.22762 0.66782 0.0
H1185 H 0.42922 0.26685 0.7008 0.0
H1186 H 0.39971 0.18371 0.70056 0.0
H1187 H 0.41794 0.16173 0.71861 0.0
C1188 C 0.75726 0.24967 0.83892 0.0
C1189 C 0.74788 0.22097 0.79945 0.0
C1190 C 0.79999 0.24885 0.75318 0.0
C1191 C 0.81109 0.27604 0.79824 0.0
N1192 N 0.79596 0.3064 0.86701 0.0
N1193 N 0.75296 0.20364 0.6943 0.0
C1194 C 0.7882 0.27765 0.83575 0.0
C1195 C 0.76695 0.22352 0.74885 0.0
N1196 N 0.73618 0.25031 0.87855 0.0
N1197 N 0.82096 0.24615 0.71633 0.0
H1198 H 0.72824 0.18746 0.68725 0.0
H1199 H 0.76506 0.20619 0.65387 0.0
H1200 H 0.84501 0.26397 0.71729 0.0
H1201 H 0.81468 0.22522 0.68787 0.0
H1202 H 0.74243 0.26827 0.9151 0.0
H1203 H 0.7119 0.23255 0.87408 0.0
H1204 H 0.78015 0.31042 0.89198 0.0
H1205 H 0.81769 0.32727 0.86297 0.0
C1206 C 0.91587 0.47789 0.94205 0.0
C1207 C 0.89879 0.48318 0.89151 0.0
C1208 C 0.87917 0.42785 0.84365 0.0
C1209 C 0.89847 0.42368 0.89134 0.0
N1210 N 0.92785 0.44099 0.99445 0.0
N1211 N 0.85758 0.46026 0.80362 0.0
C1212 C 0.91425 0.44755 0.94351 0.0
C1213 C 0.878 0.45698 0.8458 0.0
N1214 N 0.93479 0.50256 0.98746 0.0
N1215 N 0.86348 0.4046 0.79406 0.0
H1216 H 0.85643 0.48114 0.80413 0.0
H1217 H 0.83993 0.4417 0.77198 0.0
H1218 H 0.86266 0.38271 0.79296 0.0
H1219 H 0.85221 0.40719 0.75334 0.0
H1220 H 0.95124 0.50236 1.02121 0.0
H1221 H 0.9344 0.52385 0.99016 0.0
H1222 H 0.93812 0.45603 0.03646 0.0
H1223 H 0.92627 0.41883 0.99636 0.0
C1224 C 0.57308 0.4234 0.86885 0.0
C1225 C 0.54514 0.42152 0.89314 0.0
C1226 C 0.57837 0.48008 0.92383 0.0
C1227 C 0.60309 0.48258 0.8863 0.0
N1228 N 0.62282 0.45503 0.82109 0.0
N1229 N 0.5233 0.44956 0.95097 0.0
C1230 C 0.60039 0.45374 0.85923 0.0
C1231 C 0.54854 0.45023 0.92352 0.0
N1232 N 0.57367 0.39585 0.8558 0.0
N1233 N 0.58398 0.50636 0.96192 0.0
H1234 H 0.50343 0.42864 0.96154 0.0
H1235 H 0.5221 0.46998 0.9634 0.0
H1236 H 0.60589 0.52771 0.96532 0.0
H1237 H 0.56872 0.50609 0.99503 0.0
H1238 H 0.59408 0.39542 0.84339 0.0
H1239 H 0.55484 0.37366 0.86486 0.0
H1240 H 0.61998 0.43517 0.79343 0.0
H1241 H 0.64338 0.47627 0.81387 0.0
C1242 C 0.5743 0.10777 0.8584 0.0
C1243 C 0.60373 0.1366 0.87932 0.0
C1244 C 0.57157 0.16196 0.90797 0.0
C1245 C 0.54255 0.1342 0.88121 0.0
N1246 N 0.51646 0.08065 0.82894 0.0
N1247 N 0.63052 0.19148 0.92295 0.0
C1248 C 0.54401 0.10694 0.85699 0.0
C1249 C 0.60229 0.16368 0.90448 0.0
N1250 N 0.5753 0.08099 0.83877 0.0
N1251 N 0.56959 0.18669 0.93702 0.0
H1252 H 0.65294 0.19301 0.92329 0.0
H1253 H 0.63208 0.21326 0.93551 0.0
H1254 H 0.54763 0.18588 0.93994 0.0
H1255 H 0.58899 0.20686 0.96208 0.0
H1256 H 0.55511 0.05824 0.83033 0.0
H1257 H 0.59667 0.08093 0.8345 0.0
H1258 H 0.51588 0.0618 0.80178 0.0
H1259 H 0.49376 0.07815 0.83003 0.0
C1260 C 0.45956 0.87351 0.12655 0.0
C1261 C 0.48775 0.89968 0.16037 0.0
C1262 C 0.4551 0.92436 0.18923 0.0
C1263 C 0.42623 0.89668 0.1609 0.0
N1264 N 0.4009 0.84466 0.10296 0.0
N1265 N 0.51244 0.95037 0.22399 0.0
C1266 C 0.42859 0.87136 0.12899 0.0
C1267 C 0.48553 0.92543 0.19063 0.0
N1268 N 0.46261 0.85076 0.09174 0.0
N1269 N 0.45342 0.94974 0.21585 0.0
H1270 H 0.5353 0.95323 0.22282 0.0
H1271 H 0.51231 0.96768 0.25507 0.0
H1272 H 0.43178 0.94915 0.22068 0.0
H1273 H 0.47334 0.9722 0.22979 0.0
H1274 H 0.44404 0.83209 0.06179 0.0
H1275 H 0.48479 0.85199 0.08936 0.0
H1276 H 0.39975 0.82376 0.08461 0.0
H1277 H 0.37843 0.84305 0.10189 0.0
C1278 C 0.12236 0.57819 0.09983 0.0
C1279 C 0.14636 0.60551 0.13967 0.0
C1280 C 0.17225 0.57376 0.16679 0.0
C1281 C 0.14415 0.54488 0.14075 0.0
N1282 N 0.09278 0.52042 0.07704 0.0
N1283 N 0.19818 0.6307 0.20071 0.0
C1284 C 0.1196 0.5474 0.10467 0.0
C1285 C 0.17265 0.60362 0.16946 0.0
N1286 N 0.10283 0.5816 0.05565 0.0
N1287 N 0.19907 0.57262 0.18728 0.0
H1288 H 0.20122 0.65333 0.19654 0.0
H1289 H 0.21597 0.63083 0.23123 0.0
H1290 H 0.19982 0.55148 0.18325 0.0
H1291 H 0.22137 0.59267 0.20226 0.0
H1292 H 0.08703 0.56345 1.021 0.0
H1293 H 0.10529 0.6036 0.04789 0.0
H1294 H 0.07226 0.52017 0.05782 0.0
H1295 H 0.09034 0.49791 0.07545 0.0
C1296 C 0.4611 0.59845 0.11398 0.0
C1297 C 0.48925 0.6063 0.15448 0.0
C1298 C 0.4581 0.55511 0.20095 0.0
C1299 C 0.42984 0.54633 0.15919 0.0
N1300 N 0.40669 0.55817 0.06847 0.0
N1301 N 0.51599 0.58703 0.22308 0.0
C1302 C 0.43221 0.56745 0.11289 0.0
C1303 C 0.48809 0.58292 0.19321 0.0
N1304 N 0.46165 0.62109 0.07808 0.0
N1305 N 0.45664 0.53784 0.25061 0.0
H1306 H 0.53823 0.60731 0.22113 0.0
H1307 H 0.51754 0.56905 0.24462 0.0
H1308 H 0.43666 0.5165 0.25858 0.0
H1309 H 0.47491 0.54613 0.28781 0.0
H1310 H 0.44132 0.61881 0.05273 0.0
H1311 H 0.48256 0.64306 0.07626 0.0
H1312 H 0.40759 0.57074 0.0298 0.0
H1313 H 0.38511 0.5366 0.06798 0.0
C1314 C 0.58395 0.78728 0.19517 0.0
C1315 C 0.56879 0.76571 0.24143 0.0
C1316 C 0.55578 0.80544 0.29034 0.0
C1317 C 0.56661 0.82428 0.23804 0.0
N1318 N 0.58873 0.82961 0.13597 0.0
N1319 N 0.53932 0.7543 0.33319 0.0
C1320 C 0.57997 0.81415 0.18952 0.0
C1321 C 0.55483 0.77507 0.28969 0.0
N1322 N 0.6039 0.78324 0.15726 0.0
N1323 N 0.54594 0.81629 0.34023 0.0
H1324 H 0.53877 0.7326 0.33431 0.0
H1325 H 0.52559 0.75761 0.36565 0.0
H1326 H 0.54496 0.83727 0.34081 0.0
H1327 H 0.54074 0.80575 0.38258 0.0
H1328 H 0.61971 0.8008 0.13052 0.0
H1329 H 0.60722 0.76383 0.15653 0.0
H1330 H 0.59178 0.81927 0.09437 0.0
H1331 H 0.59195 0.85201 0.13087 0.0
C1332 C 0.24229 0.80696 0.19556 0.0
C1333 C 0.27215 0.81521 0.23063 0.0
C1334 C 0.24324 0.76265 0.27492 0.0
C1335 C 0.21336 0.75601 0.243 0.0
N1336 N 0.18421 0.77814 0.19151 0.0
N1337 N 0.29931 0.8021 0.31201 0.0
C1338 C 0.21293 0.78034 0.20987 0.0
C1339 C 0.27196 0.79352 0.27351 0.0
N1340 N 0.24152 0.82322 0.14569 0.0
N1341 N 0.2444 0.73913 0.30498 0.0
H1342 H 0.32062 0.82374 0.31049 0.0
H1343 H 0.3002 0.78888 0.34818 0.0
H1344 H 0.22374 0.71718 0.30855 0.0
H1345 H 0.26575 0.74079 0.32342 0.0
H1346 H 0.22078 0.81577 0.11502 0.0
H1347 H 0.26182 0.84164 0.12956 0.0
H1348 H 0.18252 0.79673 0.17307 0.0
H1349 H 0.16229 0.75932 0.20156 0.0
C1350 C 0.27495 0.49486 0.26604 0.0
C1351 C 0.27638 0.46922 0.23317 0.0
C1352 C 0.21664 0.44029 0.21298 0.0
C1353 C 0.21556 0.46764 0.23751 0.0
N1354 N 0.24444 0.52187 0.28547 0.0
N1355 N 0.24778 0.41958 0.16504 0.0
C1356 C 0.24499 0.49509 0.26405 0.0
C1357 C 0.24693 0.44232 0.20468 0.0
N1358 N 0.30236 0.5191 0.29915 0.0
N1359 N 0.18855 0.41212 0.1964 0.0
H1360 H 0.26904 0.42038 0.15525 0.0
H1361 H 0.22771 0.40166 0.1366 0.0
H1362 H 0.16599 0.40969 0.1994 0.0
H1363 H 0.18765 0.39047 0.18555 0.0
H1364 H 0.30288 0.53724 0.32883 0.0
H1365 H 0.32429 0.51955 0.3008 0.0
H1366 H 0.26508 0.54394 0.2987 0.0
H1367 H 0.223 0.52223 0.28714 0.0
C1368 C 0.97929 0.21684 0.03896 0.0
C1369 C 0.99718 0.24122 0.0896 0.0
C1370 C 0.02783 0.27813 1.01205 0.0
C1371 C 1.01233 0.25274 0.96235 0.0
N1372 N 0.97672 0.19659 0.93011 0.0
N1373 N 0.04134 0.29397 0.12562 0.0
C1374 C 0.9889 0.22174 0.97624 0.0
C1375 C 0.0222 0.27164 0.07644 0.0
N1376 N 0.95242 0.18929 0.05042 0.0
N1377 N 0.04735 0.30862 0.99748 0.0
H1378 H 0.03812 0.28992 0.17313 0.0
H1379 H 0.06198 0.31542 0.11978 0.0
H1380 H 0.05179 0.31426 0.95101 0.0
H1381 H 0.05693 0.32866 0.03052 0.0
H1382 H 0.93631 0.17215 1.01455 0.0
H1383 H 0.94456 0.18478 0.09551 0.0
H1384 H 0.96244 0.17288 0.93906 0.0
H1385 H 0.98308 0.19904 0.8837 0.0
C1386 C 0.80668 0.76163 0.06307 0.0
C1387 C 0.79642 0.7753 0.1111 0.0
C1388 C 0.78293 0.80187 0.02972 0.0
C1389 C 0.78657 0.78288 0.98113 0.0
N1390 N 0.80231 0.74422 0.95165 0.0
N1391 N 0.80267 0.82725 0.13626 0.0
C1392 C 0.79847 0.76252 0.99782 0.0
C1393 C 0.79212 0.8009 0.09406 0.0
N1394 N 0.82934 0.75356 0.07916 0.0
N1395 N 0.77046 0.82075 1.01489 0.0
H1396 H 0.81601 0.83022 0.17931 0.0
H1397 H 0.80272 0.84781 0.12449 0.0
H1398 H 0.76324 0.82209 0.96835 0.0
H1399 H 0.76475 0.83275 0.04955 0.0
H1400 H 0.83998 0.74616 0.04586 0.0
H1401 H 0.8411 0.75932 0.12502 0.0
H1402 H 0.80765 0.72655 0.96191 0.0
H1403 H 0.79795 0.74515 0.90327 0.0
C1404 C 0.27036 1.00134 0.0642 0.0
C1405 C 0.26065 0.02276 0.08869 0.0
C1406 C 0.24847 0.03191 0.98029 0.0
C1407 C 0.25676 0.00944 0.95559 0.0
N1408 N 0.27621 0.97308 0.97147 0.0
N1409 N 0.23684 0.05546 0.0719 0.0
C1410 C 0.26787 0.99418 0.99697 0.0
C1411 C 0.24892 0.0374 0.04718 0.0
N1412 N 0.28195 0.98801 0.10566 0.0
N1413 N 0.24058 0.04834 0.93958 0.0
H1414 H 0.23705 0.06035 0.12057 0.0
H1415 H 0.22449 0.06384 0.04471 0.0
H1416 H 0.23846 0.04395 0.89028 0.0
H1417 H 0.23813 0.06778 0.95412 0.0
H1418 H 0.28982 0.97232 0.0926 0.0
H1419 H 0.2842 0.99303 0.15482 0.0
H1420 H 0.28358 0.96002 0.99758 0.0
H1421 H 0.27574 0.96832 0.92266 0.0
C1422 C 0.04553 0.78171 0.02855 0.0
C1423 C 0.02091 0.77035 0.97717 0.0
C1424 C 0.98029 0.74151 0.05064 0.0
C1425 C 1.00449 0.75609 0.10288 0.0
N1426 N 0.05983 0.79283 0.14267 0.0
N1427 N 0.96429 0.74212 0.94017 0.0
C1428 C 0.03707 0.77687 0.09207 0.0
C1429 C 0.98811 0.75077 0.98839 0.0
N1430 N 0.07709 0.79628 1.01639 0.0
N1431 N 0.94992 0.71827 0.06036 0.0
H1432 H 0.96896 0.74837 0.89413 0.0
H1433 H 0.93991 0.73089 0.94675 0.0
H1434 H 0.94327 0.71123 0.10524 0.0
H1435 H 0.93213 0.7041 1.02363 0.0
H1436 H 0.09602 0.80207 0.05076 0.0
H1437 H 0.08419 0.79996 0.9706 0.0
H1438 H 0.08318 0.81107 0.13831 0.0
H1439 H 0.05475 0.78957 0.18973 0.0
C1440 C 0.27793 0.27539 0.06746 0.0
C1441 C 0.25955 0.24382 0.08513 0.0
C1442 C 0.2371 0.22391 0.97376 0.0
C1443 C 0.25627 0.25518 0.95553 0.0
N1444 N 0.29771 0.3101 0.98247 0.0
N1445 N 0.22671 0.18726 0.05414 0.0
C1446 C 0.27757 0.28078 1.00179 0.0
C1447 C 0.24061 0.21788 0.03791 0.0
N1448 N 0.29519 0.30021 0.11374 0.0
N1449 N 0.21456 0.20015 0.93015 0.0
H1450 H 0.22853 0.18183 0.10053 0.0
H1451 H 0.21572 0.16717 1.0211 0.0
H1452 H 0.21159 0.20335 0.88252 0.0
H1453 H 0.19712 0.17791 0.9419 0.0
H1454 H 0.30669 0.32416 0.10563 0.0
H1455 H 0.2967 0.29694 0.16174 0.0
H1456 H 0.31544 0.32951 1.01232 0.0
H1457 H 0.29802 0.31469 0.93497 0.0
C1458 C 0.78021 0.99063 0.08032 0.0
C1459 C 0.75705 0.99638 0.10744 0.0
C1460 C 0.73076 0.99053 1.00031 0.0
C1461 C 0.75284 0.98295 0.9735 0.0
N1462 N 0.79376 0.96855 0.98952 0.0
N1463 N 0.70666 0.99563 0.09476 0.0
C1464 C 0.77618 0.98091 1.01402 0.0
C1465 C 0.73118 0.99442 0.06779 0.0
N1466 N 0.80674 0.9955 0.11751 0.0
N1467 N 0.71027 0.99534 0.96135 0.0
H1468 H 0.7064 0.99871 0.14382 0.0
H1469 H 0.68535 0.99072 0.06899 0.0
H1470 H 0.70963 0.99333 0.91196 0.0
H1471 H 0.6957 1.0038 0.97784 0.0
H1472 H 0.82633 0.99543 0.09924 0.0
H1473 H 0.81043 1.00213 0.16632 0.0
H1474 H 0.80863 0.96325 1.01753 0.0
H1475 H 0.79117 0.96065 0.94155 0.0
C1476 C 0.70402 0.62141 0.32863 0.0
C1477 C 0.68417 0.59713 0.27884 0.0
C1478 C 0.64832 0.56663 0.35803 0.0
C1479 C 0.67188 0.58718 0.40824 0.0
N1480 N 0.72221 0.63575 0.44112 0.0
N1481 N 0.62683 0.56499 0.25159 0.0
C1482 C 0.69977 0.61509 0.39347 0.0
C1483 C 0.653 0.57435 0.2942 0.0
N1484 N 0.72269 0.652 0.31443 0.0
N1485 N 0.62139 0.53955 0.37075 0.0
H1486 H 0.62873 0.57624 0.21025 0.0
H1487 H 0.60321 0.55052 0.26218 0.0
H1488 H 0.61683 0.53302 0.41669 0.0
H1489 H 0.60506 0.52248 0.3349 0.0
H1490 H 0.73521 0.67126 0.34898 0.0
H1491 H 0.72139 0.65848 0.26871 0.0
H1492 H 0.74458 0.65459 0.43261 0.0
H1493 H 0.71931 0.63284 0.48913 0.0
C1494 C 0.45799 0.12716 0.39952 0.0
C1495 C 0.44063 0.0951 0.41479 0.0
C1496 C 0.42317 0.07664 0.30091 0.0
C1497 C 0.43809 0.10893 0.28663 0.0
N1498 N 0.46567 0.16505 0.32315 0.0
N1499 N 0.4038 0.03935 0.38134 0.0
C1500 C 0.45442 0.13421 0.33622 0.0
C1501 C 0.4225 0.0698 0.36573 0.0
N1502 N 0.47883 0.15083 0.44521 0.0
N1503 N 0.41021 0.05258 0.25233 0.0
H1504 H 0.40264 0.03344 0.428 0.0
H1505 H 0.38761 0.02027 0.34885 0.0
H1506 H 0.40989 0.05674 0.20463 0.0
H1507 H 0.4019 0.02871 0.25863 0.0
H1508 H 0.49484 0.17406 0.4357 0.0
H1509 H 0.4823 0.14666 0.49192 0.0
H1510 H 0.47436 0.18421 0.35811 0.0
H1511 H 0.46392 0.17129 0.27746 0.0
C1512 C 0.96801 0.35606 0.31648 0.0
C1513 C 0.9372 0.33856 0.28111 0.0
C1514 C 0.91129 0.33406 0.37962 0.0
C1515 C 0.94195 0.34937 0.41565 0.0
N1516 N 0.99927 0.37068 0.41964 0.0
N1517 N 0.87958 0.30545 0.28011 0.0
C1518 C 0.97029 0.35914 0.38436 0.0
C1519 C 0.90887 0.32596 0.31308 0.0
N1520 N 0.99501 0.37054 0.28511 0.0
N1521 N 0.88452 0.32851 0.40843 0.0
H1522 H 0.87667 0.29898 0.23133 0.0
H1523 H 0.85855 0.29261 0.30192 0.0
H1524 H 0.88507 0.33419 0.45688 0.0
H1525 H 0.86222 0.3209 0.38345 0.0
H1526 H 0.01793 0.38631 0.30761 0.0
H1527 H 0.99417 0.36861 0.23567 0.0
H1528 H 0.02039 0.37537 0.40019 0.0
H1529 H 1.0017 0.3731 0.46921 0.0
C1530 C 0.70805 0.14226 0.34953 0.0
C1531 C 0.68886 0.12021 0.29627 0.0
C1532 C 0.65113 0.08493 0.36849 0.0
C1533 C 0.67172 0.10582 0.42198 0.0
N1534 N 0.72293 0.15132 0.46345 0.0
N1535 N 0.64475 0.06822 0.25559 0.0
C1536 C 0.70105 0.13368 0.41245 0.0
C1537 C 0.66109 0.09087 0.30596 0.0
N1538 N 0.73248 0.17193 0.34003 0.0
N1539 N 0.62153 0.05992 0.37725 0.0
H1540 H 0.65097 0.07191 0.20925 0.0
H1541 H 0.6267 0.04495 0.26022 0.0
H1542 H 0.61338 0.05486 0.42199 0.0
H1543 H 0.604 0.04574 0.34014 0.0
H1544 H 0.74503 0.19032 0.37645 0.0
H1545 H 0.73842 0.17913 0.29496 0.0
H1546 H 0.74621 0.16973 0.45922 0.0
H1547 H 0.71891 0.14576 0.51007 0.0
C1548 C 0.89932 0.58917 0.32662 0.0
C1549 C 0.9256 0.59756 0.28969 0.0
C1550 C 0.95926 0.60101 0.38535 0.0
C1551 C 0.93188 0.58905 0.42037 0.0
N1552 N 0.87454 0.56694 0.42142 0.0
N1553 N 0.97977 0.60827 0.28173 0.0
C1554 C 0.90157 0.58197 0.39027 0.0
C1555 C 0.95544 0.60273 0.31855 0.0
N1556 N 0.87239 0.58888 0.30132 0.0
N1557 N 0.98902 0.61139 0.41635 0.0
H1558 H 0.9779 0.6099 0.23298 0.0
H1559 H 1.00091 0.60897 0.29829 0.0
H1560 H 0.99271 0.61099 0.4652 0.0
H1561 H 1.01039 0.6228 0.39505 0.0
H1562 H 0.85391 0.58643 0.32792 0.0
H1563 H 0.86982 0.59405 0.255 0.0
H1564 H 0.85131 0.55786 0.39952 0.0
H1565 H 0.87496 0.56096 0.46776 0.0
C1566 C 0.3948 0.32669 0.31541 0.0
C1567 C 0.42362 0.33218 0.28975 0.0
C1568 C 0.45308 0.35235 0.39657 0.0
C1569 C 0.42395 0.34492 0.42298 0.0
N1570 N 0.36625 0.32112 0.40935 0.0
N1571 N 0.47858 0.34405 0.30783 0.0
C1572 C 0.39454 0.33097 0.38282 0.0
C1573 C 0.45229 0.34327 0.33097 0.0
N1574 N 0.36795 0.31827 0.2752 0.0
N1575 N 0.48179 0.3691 0.43382 0.0
H1576 H 0.47897 0.33733 0.26038 0.0
H1577 H 0.49893 0.34844 0.3366 0.0
H1578 H 0.4835 0.37599 0.48209 0.0
H1579 H 0.5041 0.37856 0.41589 0.0
H1580 H 0.34723 0.31728 0.28984 0.0
H1581 H 0.36707 0.31424 0.22606 0.0
H1582 H 0.34361 0.30778 0.38394 0.0
H1583 H 0.36531 0.32433 0.45814 0.0
C1584 C 0.33498 0.89523 0.63678 0.0
C1585 C 0.35515 0.92714 0.6226 0.0
C1586 C 0.36019 0.94621 0.73562 0.0
C1587 C 0.33811 0.91455 0.74865 0.0
N1588 N 0.30035 0.85972 0.70987 0.0
N1589 N 0.38365 0.98355 0.65642 0.0
C1590 C 0.32435 0.8893 0.69865 0.0
C1591 C 0.36687 0.9528 0.67155 0.0
N1592 N 0.32694 0.87042 0.59171 0.0
N1593 N 0.3754 0.96984 0.78481 0.0
H1594 H 0.38895 0.98931 0.61031 0.0
H1595 H 0.39013 1.00338 0.68832 0.0
H1596 H 0.37075 0.966 0.83193 0.0
H1597 H 0.39425 0.99267 0.77993 0.0
H1598 H 0.31543 0.84661 0.60104 0.0
H1599 H 0.33419 0.8737 0.546 0.0
H1600 H 0.28673 0.84124 0.67411 0.0
H1601 H 0.29211 0.85433 0.75446 0.0
C1602 C 0.10026 0.4059 0.7187 0.0
C1603 C 0.11556 0.43125 0.76855 0.0
C1604 C 0.12629 0.47022 0.69081 0.0
C1605 C 0.11314 0.44515 0.64055 0.0
N1606 N 0.09159 0.38954 0.60515 0.0
N1607 N 0.14867 0.48771 0.80081 0.0
C1608 C 0.10125 0.41305 0.65411 0.0
C1609 C 0.13012 0.46347 0.75419 0.0
N1610 N 0.08391 0.375 0.73324 0.0
N1611 N 0.13418 0.50044 0.67827 0.0
H1612 H 0.15237 0.4838 0.84762 0.0
H1613 H 0.16281 0.51146 0.79204 0.0
H1614 H 0.13191 0.50645 0.63258 0.0
H1615 H 0.14034 0.51895 0.71355 0.0
H1616 H 0.06976 0.35552 0.69982 0.0
H1617 H 0.08246 0.36887 0.77976 0.0
H1618 H 0.0858 0.36624 0.61132 0.0
H1619 H 0.09166 0.39389 0.55752 0.0
C1620 C 0.59405 0.71232 0.72339 0.0
C1621 C 0.60026 0.69378 0.76511 0.0
C1622 C 0.60219 0.66145 0.67353 0.0
C1623 C 0.59346 0.67841 0.63193 0.0
N1624 N 0.576 0.71646 0.61701 0.0
N1625 N 0.60753 0.64906 0.78162 0.0
C1626 C 0.58816 0.70301 0.65679 0.0
C1627 C 0.60356 0.66783 0.74061 0.0
N1628 N 0.59428 0.73919 0.74747 0.0
N1629 N 0.6099 0.63979 0.64868 0.0
H1630 H 0.6097 0.65373 0.83089 0.0
H1631 H 0.6068 0.62783 0.76739 0.0
H1632 H 0.60973 0.63503 0.59998 0.0
H1633 H 0.61869 0.62812 0.67579 0.0
H1634 H 0.59374 0.75582 0.71938 0.0
H1635 H 0.59749 0.74627 0.79603 0.0
H1636 H 0.56809 0.73182 0.63285 0.0
H1637 H 0.57121 0.71027 0.56804 0.0
C1638 C 0.33005 0.45226 0.72007 0.0
C1639 C 0.35 0.44956 0.76872 0.0
C1640 C 0.38866 0.4578 0.68963 0.0
C1641 C 0.36545 0.45361 0.63968 0.0
N1642 N 0.312 0.44361 0.60816 0.0
N1643 N 0.40712 0.47638 0.8002 0.0
C1644 C 0.33553 0.4498 0.65523 0.0
C1645 C 0.38204 0.45936 0.75427 0.0
N1646 N 0.31006 0.46333 0.73584 0.0
N1647 N 0.41742 0.46101 0.67591 0.0
H1648 H 0.40391 0.48521 0.84357 0.0
H1649 H 0.43122 0.48643 0.79168 0.0
H1650 H 0.42408 0.46182 0.62982 0.0
H1651 H 0.43355 0.46052 0.7102 0.0
H1652 H 0.29707 0.46843 0.70215 0.0
H1653 H 0.31077 0.47232 0.78224 0.0
H1654 H 0.28878 0.43785 0.61755 0.0
H1655 H 0.31483 0.4413 0.56005 0.0
C1656 C 0.6069 0.95048 0.74278 0.0
C1657 C 0.59382 0.91839 0.75714 0.0
C1658 C 0.57655 0.89968 0.64368 0.0
C1659 C 0.59197 0.93184 0.62873 0.0
N1660 N 0.62673 0.98786 0.66296 0.0
N1661 N 0.57147 0.86276 0.72055 0.0
C1662 C 0.60853 0.95727 0.67808 0.0
C1663 C 0.58016 0.89307 0.70731 0.0
N1664 N 0.61689 0.97442 0.79096 0.0
N1665 N 0.55739 0.87543 0.59753 0.0
H1666 H 0.57367 0.85693 0.76644 0.0
H1667 H 0.56477 0.84395 0.68561 0.0
H1668 H 0.55388 0.87922 0.55055 0.0
H1669 H 0.54271 0.85185 0.60684 0.0
H1670 H 0.62334 0.99779 0.78355 0.0
H1671 H 0.61622 0.97041 0.83881 0.0
H1672 H 0.64205 1.00708 0.69613 0.0
H1673 H 0.62871 0.99357 0.61618 0.0
C1674 C 0.08188 0.64657 0.68064 0.0
C1675 C 0.11066 0.66163 0.6502 0.0
C1676 C 0.14194 0.67824 0.75448 0.0
C1677 C 0.11363 0.67023 0.78462 0.0
N1678 N 0.05949 0.62539 0.77745 0.0
N1679 N 0.16873 0.6937 0.65919 0.0
C1680 C 0.0839 0.64831 0.74824 0.0
C1681 C 0.14087 0.6781 0.68746 0.0
N1682 N 0.05261 0.63041 0.64536 0.0
N1683 N 0.16777 0.67953 0.78751 0.0
H1684 H 0.16909 0.69434 0.6101 0.0
H1685 H 0.19107 0.70825 0.68532 0.0
H1686 H 0.16633 0.67198 0.83294 0.0
H1687 H 0.18806 0.68268 0.76639 0.0
H1688 H 0.03089 0.62198 0.66545 0.0
H1689 H 0.05008 0.62743 0.59582 0.0
H1690 H 0.03826 0.60691 0.75301 0.0
H1691 H 0.06268 0.62221 0.82507 0.0
loop_
_geom_bond_atom_site_label_1
_geom_bond_atom_site_label_2
_geom_bond_distance
_geom_bond_site_symmetry_2
_ccdc_geom_bond_type
Pr0 C2 2.880 . S
Pr0 O20 2.576 . S
Pr0 O21 2.490 . S
Pr0 O22 2.695 . S
Pr0 O23 2.512 . S
Pr0 O25 2.437 1_455 S
Pr0 O28 2.436 1_455 S
Pr0 O30 2.438 . S
Pr1 C11 2.880 . S
Pr1 O22 2.436 1_655 S
Pr1 O24 2.438 . S
Pr1 O26 2.562 1_655 S
Pr1 O27 2.490 . S
Pr1 O28 2.695 . S
Pr1 O29 2.512 . S
Pr1 O31 2.437 1_655 S
C2 Pr0 2.880 . S
C2 C3 1.491 . S
C2 O20 1.275 . S
C2 O21 1.225 . S
C3 C2 1.491 . S
C3 C4 1.392 . S
C3 C8 1.356 1_455 S
C4 C3 1.392 . S
C4 C5 1.368 . S
C4 H32 0.929 . S
C5 C4 1.368 . S
C5 C6 1.386 . S
C5 H33 0.929 . S
C6 C5 1.386 . S
C6 C7 1.373 1_455 S
C7 C6 1.373 1_655 S
C7 C8 1.409 . S
C7 H34 0.931 . S
C8 C3 1.356 1_655 S
C8 C7 1.409 . S
C8 H35 0.930 . S
C9 O22 1.270 . S
C9 O23 1.248 . S
C10 O24 1.267 . S
C10 O25 1.278 . S
C11 Pr1 2.880 . S
C11 C12 1.491 . S
C11 O26 1.254 1_655 S
C11 O27 1.225 . S
C12 C11 1.491 . S
C12 C13 1.392 . S
C12 C17 1.356 1_655 S
C13 C12 1.392 . S
C13 C14 1.368 . S
C13 H36 0.929 . S
C14 C13 1.368 . S
C14 C15 1.352 1_655 S
C14 H37 0.929 . S
C15 C14 1.352 1_455 S
C15 C16 1.406 . S
C16 C15 1.406 . S
C16 C17 1.409 . S
C16 H38 0.931 . S
C17 C12 1.356 1_455 S
C17 C16 1.409 . S
C17 H39 0.930 . S
C18 O28 1.270 . S
C18 O29 1.248 . S
C19 O30 1.267 . S
C19 O31 1.278 . S
O20 Pr0 2.576 . S
O20 C2 1.275 . S
O21 Pr0 2.490 . S
O21 C2 1.225 . S
O22 Pr0 2.695 . S
O22 Pr1 2.436 1_455 S
O22 C9 1.270 . S
O23 Pr0 2.512 . S
O23 C9 1.248 . S
O24 Pr1 2.438 . S
O24 C10 1.267 . S
O25 Pr0 2.437 1_655 S
O25 C10 1.278 . S
O26 Pr1 2.562 1_455 S
O26 C11 1.254 1_455 S
O27 Pr1 2.490 . S
O27 C11 1.225 . S
O28 Pr0 2.436 1_655 S
O28 Pr1 2.695 . S
O28 C18 1.270 . S
O29 Pr1 2.512 . S
O29 C18 1.248 . S
O30 Pr0 2.438 . S
O30 C19 1.267 . S
O31 Pr1 2.437 1_455 S
O31 C19 1.278 . S
H32 C4 0.929 . S
H33 C5 0.929 . S
H34 C7 0.931 . S
H35 C8 0.930 . S
H36 C13 0.929 . S
H37 C14 0.929 . S
H38 C16 0.931 . S
H39 C17 0.930 . S
Pr40 C42 2.880 . S
Pr40 O60 2.562 . S
Pr40 O61 2.490 . S
Pr40 O62 2.695 . S
Pr40 O63 2.512 . S
Pr40 O65 2.437 . S
Pr40 O68 2.436 . S
Pr40 O70 2.438 . S
Pr41 C51 2.880 . S
Pr41 O62 2.436 . S
Pr41 O64 2.438 . S
Pr41 O66 2.562 . S
Pr41 O67 2.490 . S
Pr41 O68 2.695 . S
Pr41 O69 2.512 . S
Pr41 O71 2.437 . S
C42 Pr40 2.880 . S
C42 C43 1.491 . S
C42 O60 1.254 . S
C42 O61 1.225 . S
C43 C42 1.491 . S
C43 C44 1.392 . S
C43 C48 1.356 . S
C44 C43 1.392 . S
C44 C45 1.368 . S
C44 H72 0.929 . S
C45 C44 1.368 . S
C45 C46 1.386 . S
C45 H73 0.929 . S
C46 C45 1.386 . S
C46 C47 1.373 . S
C47 C46 1.373 . S
C47 C48 1.409 . S
C47 H74 0.931 . S
C48 C43 1.356 . S
C48 C47 1.409 . S
C48 H75 0.930 . S
C49 O62 1.270 . S
C49 O63 1.248 . S
C50 O64 1.267 . S
C50 O65 1.278 . S
C51 Pr41 2.880 . S
C51 C52 1.491 . S
C51 O66 1.254 . S
C51 O67 1.225 . S
C52 C51 1.491 . S
C52 C53 1.392 . S
C52 C57 1.356 . S
C53 C52 1.392 . S
C53 C54 1.368 . S
C53 H76 0.929 . S
C54 C53 1.368 . S
C54 C55 1.386 . S
C54 H77 0.929 . S
C55 C54 1.386 . S
C55 C56 1.373 . S
C56 C55 1.373 . S
C56 C57 1.409 . S
C56 H78 0.931 . S
C57 C52 1.356 . S
C57 C56 1.409 . S
C57 H79 0.930 . S
C58 O68 1.270 . S
C58 O69 1.248 . S
C59 O70 1.267 . S
C59 O71 1.278 . S
O60 Pr40 2.562 . S
O60 C42 1.254 . S
O61 Pr40 2.490 . S
O61 C42 1.225 . S
O62 Pr40 2.695 . S
O62 Pr41 2.436 . S
O62 C49 1.270 . S
O63 Pr40 2.512 . S
O63 C49 1.248 . S
O64 Pr41 2.438 . S
O64 C50 1.267 . S
O65 Pr40 2.437 . S
O65 C50 1.278 . S
O66 Pr41 2.562 . S
O66 C51 1.254 . S
O67 Pr41 2.490 . S
O67 C51 1.225 . S
O68 Pr40 2.436 . S
O68 Pr41 2.695 . S
O68 C58 1.270 . S
O69 Pr41 2.512 . S
O69 C58 1.248 . S
O70 Pr40 2.438 . S
O70 C59 1.267 . S
O71 Pr41 2.437 . S
O71 C59 1.278 . S
H72 C44 0.929 . S
H73 C45 0.929 . S
H74 C47 0.931 . S
H75 C48 0.930 . S
H76 C53 0.929 . S
H77 C54 0.929 . S
H78 C56 0.931 . S
H79 C57 0.930 . S
Pr80 C82 2.880 . S
Pr80 O100 2.562 1_565 S
Pr80 O101 2.490 . S
Pr80 O102 2.695 . S
Pr80 O103 2.512 . S
Pr80 O105 2.437 1_565 S
Pr80 O108 2.436 1_565 S
Pr80 O110 2.438 . S
Pr81 C91 2.880 . S
Pr81 O102 2.436 1_545 S
Pr81 O104 2.438 . S
Pr81 O106 2.562 1_545 S
Pr81 O107 2.490 . S
Pr81 O108 2.695 . S
Pr81 O109 2.512 . S
Pr81 O111 2.437 1_545 S
C82 Pr80 2.880 . S
C82 C83 1.485 1_565 S
C82 O100 1.254 1_565 S
C82 O101 1.225 . S
C83 C82 1.485 1_545 S
C83 C84 1.380 1_545 S
C83 C88 1.374 . S
C84 C83 1.380 1_565 S
C84 C85 1.368 . S
C84 H112 0.929 . S
C85 C84 1.368 . S
C85 C86 1.386 1_565 S
C85 H113 0.929 . S
C86 C85 1.386 1_545 S
C86 C87 1.373 . S
C87 C86 1.373 . S
C87 C88 1.409 . S
C87 H114 0.931 . S
C88 C83 1.374 . S
C88 C87 1.409 . S
C88 H115 0.930 . S
C89 O102 1.270 . S
C89 O103 1.248 . S
C90 O104 1.267 . S
C90 O105 1.278 . S
C91 Pr81 2.880 . S
C91 C92 1.491 . S
C91 O106 1.254 1_545 S
C91 O107 1.225 . S
C92 C91 1.491 . S
C92 C93 1.392 . S
C92 C97 1.356 1_545 S
C93 C92 1.392 . S
C93 C94 1.368 . S
C93 H116 0.929 . S
C94 C93 1.368 . S
C94 C95 1.386 1_545 S
C94 H117 0.929 . S
C95 C94 1.386 1_565 S
C95 C96 1.373 . S
C96 C95 1.373 . S
C96 C97 1.409 . S
C96 H118 0.931 . S
C97 C92 1.356 1_565 S
C97 C96 1.409 . S
C97 H119 0.930 . S
C98 O108 1.270 . S
C98 O109 1.248 . S
C99 O110 1.267 . S
C99 O111 1.278 . S
O100 Pr80 2.562 1_545 S
O100 C82 1.254 1_545 S
O101 Pr80 2.490 . S
O101 C82 1.225 . S
O102 Pr80 2.695 . S
O102 Pr81 2.436 1_565 S
O102 C89 1.270 . S
O103 Pr80 2.512 . S
O103 C89 1.248 . S
O104 Pr81 2.438 . S
O104 C90 1.267 . S
O105 Pr80 2.437 1_545 S
O105 C90 1.278 . S
O106 Pr81 2.562 1_565 S
O106 C91 1.254 1_565 S
O107 Pr81 2.490 . S
O107 C91 1.225 . S
O108 Pr80 2.436 1_545 S
O108 Pr81 2.695 . S
O108 C98 1.270 . S
O109 Pr81 2.512 . S
O109 C98 1.248 . S
O110 Pr80 2.438 . S
O110 C99 1.267 . S
O111 Pr81 2.437 1_565 S
O111 C99 1.278 . S
H112 C84 0.929 . S
H113 C85 0.929 . S
H114 C87 0.931 . S
H115 C88 0.930 . S
H116 C93 0.929 . S
H117 C94 0.929 . S
H118 C96 0.931 . S
H119 C97 0.930 . S
Pr120 C122 2.880 . S
Pr120 O140 2.546 1_455 S
Pr120 O141 2.490 . S
Pr120 O142 2.695 . S
Pr120 O143 2.512 . S
Pr120 O145 2.437 1_455 S
Pr120 O148 2.436 1_455 S
Pr120 O150 2.438 . S
Pr121 C131 2.880 . S
Pr121 O142 2.436 1_655 S
Pr121 O144 2.438 . S
Pr121 O146 2.562 1_655 S
Pr121 O147 2.490 . S
Pr121 O148 2.695 . S
Pr121 O149 2.512 . S
Pr121 O151 2.437 1_655 S
C122 Pr120 2.880 . S
C122 C123 1.491 . S
C122 O140 1.227 1_455 S
C122 O141 1.225 . S
C123 C122 1.491 . S
C123 C124 1.392 . S
C123 C128 1.356 1_455 S
C124 C123 1.392 . S
C124 C125 1.368 . S
C124 H152 0.929 . S
C125 C124 1.368 . S
C125 C126 1.386 . S
C125 H153 0.929 . S
C126 C125 1.386 . S
C126 C127 1.373 1_455 S
C127 C126 1.373 1_655 S
C127 C128 1.409 . S
C127 H154 0.931 . S
C128 C123 1.356 1_655 S
C128 C127 1.409 . S
C128 H155 0.930 . S
C129 O142 1.270 . S
C129 O143 1.248 . S
C130 O144 1.267 . S
C130 O145 1.278 . S
C131 Pr121 2.880 . S
C131 C132 1.491 . S
C131 O146 1.254 1_655 S
C131 O147 1.225 . S
C132 C131 1.491 . S
C132 C133 1.392 . S
C132 C137 1.356 1_655 S
C133 C132 1.392 . S
C133 C134 1.368 . S
C133 H156 0.929 . S
C134 C133 1.368 . S
C134 C135 1.386 . S
C134 H157 0.929 . S
C135 C134 1.386 . S
C135 C136 1.373 1_655 S
C136 C135 1.373 1_455 S
C136 C137 1.409 . S
C136 H158 0.931 . S
C137 C132 1.356 1_455 S
C137 C136 1.409 . S
C137 H159 0.930 . S
C138 O148 1.270 . S
C138 O149 1.248 . S
C139 O150 1.267 . S
C139 O151 1.278 . S
O140 Pr120 2.546 1_655 S
O140 C122 1.227 1_655 S
O141 Pr120 2.490 . S
O141 C122 1.225 . S
O142 Pr120 2.695 . S
O142 Pr121 2.436 1_455 S
O142 C129 1.270 . S
O143 Pr120 2.512 . S
O143 C129 1.248 . S
O144 Pr121 2.438 . S
O144 C130 1.267 . S
O145 Pr120 2.437 1_655 S
O145 C130 1.278 . S
O146 Pr121 2.562 1_455 S
O146 C131 1.254 1_455 S
O147 Pr121 2.490 . S
O147 C131 1.225 . S
O148 Pr120 2.436 1_655 S
O148 Pr121 2.695 . S
O148 C138 1.270 . S
O149 Pr121 2.512 . S
O149 C138 1.248 . S
O150 Pr120 2.438 . S
O150 C139 1.267 . S
O151 Pr121 2.437 1_455 S
O151 C139 1.278 . S
H152 C124 0.929 . S
H153 C125 0.929 . S
H154 C127 0.931 . S
H155 C128 0.930 . S
H156 C133 0.929 . S
H157 C134 0.929 . S
H158 C136 0.931 . S
H159 C137 0.930 . S
Pr160 C162 2.880 . S
Pr160 O180 2.562 . S
Pr160 O181 2.490 . S
Pr160 O182 2.695 . S
Pr160 O183 2.512 . S
Pr160 O185 2.437 . S
Pr160 O188 2.436 . S
Pr160 O190 2.438 . S
Pr161 C171 2.880 . S
Pr161 O182 2.436 . S
Pr161 O184 2.438 . S
Pr161 O186 2.562 . S
Pr161 O187 2.490 . S
Pr161 O188 2.695 . S
Pr161 O189 2.512 . S
Pr161 O191 2.437 . S
C162 Pr160 2.880 . S
C162 C163 1.491 . S
C162 O180 1.254 . S
C162 O181 1.225 . S
C163 C162 1.491 . S
C163 C164 1.392 . S
C163 C168 1.356 . S
C164 C163 1.392 . S
C164 C165 1.368 . S
C164 H192 0.929 . S
C165 C164 1.368 . S
C165 C166 1.386 . S
C165 H193 0.929 . S
C166 C165 1.386 . S
C166 C167 1.373 . S
C167 C166 1.373 . S
C167 C168 1.409 . S
C167 H194 0.931 . S
C168 C163 1.356 . S
C168 C167 1.409 . S
C168 H195 0.930 . S
C169 O182 1.270 . S
C169 O183 1.248 . S
C170 O184 1.267 . S
C170 O185 1.278 . S
C171 Pr161 2.880 . S
C171 C172 1.491 . S
C171 O186 1.254 . S
C171 O187 1.225 . S
C172 C171 1.491 . S
C172 C173 1.392 . S
C172 C177 1.356 . S
C173 C172 1.392 . S
C173 C174 1.368 . S
C173 H196 0.929 . S
C174 C173 1.368 . S
C174 C175 1.386 . S
C174 H197 0.929 . S
C175 C174 1.386 . S
C175 C176 1.373 . S
C176 C175 1.373 . S
C176 C177 1.409 . S
C176 H198 0.931 . S
C177 C172 1.356 . S
C177 C176 1.409 . S
C177 H199 0.930 . S
C178 O188 1.270 . S
C178 O189 1.248 . S
C179 O190 1.267 . S
C179 O191 1.278 . S
O180 Pr160 2.562 . S
O180 C162 1.254 . S
O181 Pr160 2.490 . S
O181 C162 1.225 . S
O182 Pr160 2.695 . S
O182 Pr161 2.436 . S
O182 C169 1.270 . S
O183 Pr160 2.512 . S
O183 C169 1.248 . S
O184 Pr161 2.438 . S
O184 C170 1.267 . S
O185 Pr160 2.437 . S
O185 C170 1.278 . S
O186 Pr161 2.562 . S
O186 C171 1.254 . S
O187 Pr161 2.490 . S
O187 C171 1.225 . S
O188 Pr160 2.436 . S
O188 Pr161 2.695 . S
O188 C178 1.270 . S
O189 Pr161 2.512 . S
O189 C178 1.248 . S
O190 Pr160 2.438 . S
O190 C179 1.267 . S
O191 Pr161 2.437 . S
O191 C179 1.278 . S
H192 C164 0.929 . S
H193 C165 0.929 . S
H194 C167 0.931 . S
H195 C168 0.930 . S
H196 C173 0.929 . S
H197 C174 0.929 . S
H198 C176 0.931 . S
H199 C177 0.930 . S
Pr200 C202 2.880 . S
Pr200 O220 2.562 1_565 S
Pr200 O221 2.490 . S
Pr200 O222 2.695 . S
Pr200 O223 2.512 . S
Pr200 O225 2.437 1_565 S
Pr200 O228 2.436 1_565 S
Pr200 O230 2.438 . S
Pr201 C211 2.880 . S
Pr201 O222 2.436 1_545 S
Pr201 O224 2.438 . S
Pr201 O226 2.562 1_545 S
Pr201 O227 2.490 . S
Pr201 O228 2.695 . S
Pr201 O229 2.512 . S
Pr201 O231 2.437 1_545 S
C202 Pr200 2.880 . S
C202 C203 1.491 1_565 S
C202 O220 1.254 1_565 S
C202 O221 1.225 . S
C203 C202 1.491 1_545 S
C203 C204 1.392 1_545 S
C203 C208 1.356 . S
C204 C203 1.392 1_565 S
C204 C205 1.368 . S
C204 H232 0.929 . S
C205 C204 1.368 . S
C205 C206 1.386 1_565 S
C205 H233 0.929 . S
C206 C205 1.386 1_545 S
C206 C207 1.373 . S
C207 C206 1.373 . S
C207 C208 1.409 . S
C207 H234 0.931 . S
C208 C203 1.356 . S
C208 C207 1.409 . S
C208 H235 0.930 . S
C209 O222 1.270 . S
C209 O223 1.248 . S
C210 O224 1.267 . S
C210 O225 1.278 . S
C211 Pr201 2.880 . S
C211 C212 1.491 . S
C211 O226 1.254 1_545 S
C211 O227 1.225 . S
C212 C211 1.491 . S
C212 C213 1.392 . S
C212 C217 1.356 1_545 S
C213 C212 1.392 . S
C213 C214 1.368 . S
C213 H236 0.929 . S
C214 C213 1.368 . S
C214 C215 1.386 1_545 S
C214 H237 0.929 . S
C215 C214 1.386 1_565 S
C215 C216 1.373 . S
C216 C215 1.373 . S
C216 C217 1.409 . S
C216 H238 0.931 . S
C217 C212 1.356 1_565 S
C217 C216 1.409 . S
C217 H239 0.930 . S
C218 O228 1.270 . S
C218 O229 1.248 . S
C219 O230 1.267 . S
C219 O231 1.278 . S
O220 Pr200 2.562 1_545 S
O220 C202 1.254 1_545 S
O221 Pr200 2.490 . S
O221 C202 1.225 . S
O222 Pr200 2.695 . S
O222 Pr201 2.436 1_565 S
O222 C209 1.270 . S
O223 Pr200 2.512 . S
O223 C209 1.248 . S
O224 Pr201 2.438 . S
O224 C210 1.267 . S
O225 Pr200 2.437 1_545 S
O225 C210 1.278 . S
O226 Pr201 2.562 1_565 S
O226 C211 1.254 1_565 S
O227 Pr201 2.490 . S
O227 C211 1.225 . S
O228 Pr200 2.436 1_545 S
O228 Pr201 2.695 . S
O228 C218 1.270 . S
O229 Pr201 2.512 . S
O229 C218 1.248 . S
O230 Pr200 2.438 . S
O230 C219 1.267 . S
O231 Pr201 2.437 1_565 S
O231 C219 1.278 . S
H232 C204 0.929 . S
H233 C205 0.929 . S
H234 C207 0.931 . S
H235 C208 0.930 . S
H236 C213 0.929 . S
H237 C214 0.929 . S
H238 C216 0.931 . S
H239 C217 0.930 . S
Pr240 C242 2.880 . S
Pr240 O260 2.562 . S
Pr240 O261 2.490 . S
Pr240 O262 2.695 . S
Pr240 O263 2.512 . S
Pr240 O265 2.437 . S
Pr240 O268 2.436 . S
Pr240 O270 2.438 . S
Pr241 C251 2.880 . S
Pr241 O262 2.436 . S
Pr241 O264 2.438 . S
Pr241 O266 2.562 . S
Pr241 O267 2.490 . S
Pr241 O268 2.695 . S
Pr241 O269 2.512 . S
Pr241 O271 2.437 . S
C242 Pr240 2.880 . S
C242 C243 1.491 . S
C242 O260 1.254 . S
C242 O261 1.225 . S
C243 C242 1.491 . S
C243 C244 1.392 . S
C243 C248 1.356 . S
C244 C243 1.392 . S
C244 C245 1.368 . S
C244 H272 0.929 . S
C245 C244 1.368 . S
C245 C246 1.386 . S
C245 H273 0.929 . S
C246 C245 1.386 . S
C246 C247 1.373 . S
C247 C246 1.373 . S
C247 C248 1.409 . S
C247 H274 0.931 . S
C248 C243 1.356 . S
C248 C247 1.409 . S
C248 H275 0.930 . S
C249 O262 1.270 . S
C249 O263 1.248 . S
C250 O264 1.267 . S
C250 O265 1.278 . S
C251 Pr241 2.880 . S
C251 C252 1.491 1_556 S
C251 O266 1.254 . S
C251 O267 1.225 . S
C252 C251 1.491 1_554 S
C252 C253 1.392 . S
C252 C257 1.356 . S
C253 C252 1.392 . S
C253 C254 1.368 . S
C253 H276 0.929 . S
C254 C253 1.368 . S
C254 C255 1.386 . S
C254 H277 0.929 . S
C255 C254 1.386 . S
C255 C256 1.373 . S
C256 C255 1.373 . S
C256 C257 1.409 . S
C256 H278 0.931 . S
C257 C252 1.356 . S
C257 C256 1.409 . S
C257 H279 0.930 . S
C258 O268 1.270 . S
C258 O269 1.248 . S
C259 O270 1.267 . S
C259 O271 1.278 . S
O260 Pr240 2.562 . S
O260 C242 1.254 . S
O261 Pr240 2.490 . S
O261 C242 1.225 . S
O262 Pr240 2.695 . S
O262 Pr241 2.436 . S
O262 C249 1.270 . S
O263 Pr240 2.512 . S
O263 C249 1.248 . S
O264 Pr241 2.438 . S
O264 C250 1.267 . S
O265 Pr240 2.437 . S
O265 C250 1.278 . S
O266 Pr241 2.562 . S
O266 C251 1.254 . S
O267 Pr241 2.490 . S
O267 C251 1.225 . S
O268 Pr240 2.436 . S
O268 Pr241 2.695 . S
O268 C258 1.270 . S
O269 Pr241 2.512 . S
O269 C258 1.248 . S
O270 Pr240 2.438 . S
O270 C259 1.267 . S
O271 Pr241 2.437 . S
O271 C259 1.278 . S
H272 C244 0.929 . S
H273 C245 0.929 . S
H274 C247 0.931 . S
H275 C248 0.930 . S
H276 C253 0.929 . S
H277 C254 0.929 . S
H278 C256 0.931 . S
H279 C257 0.930 . S
Pr280 C282 2.880 . S
Pr280 O300 2.562 . S
Pr280 O301 2.490 . S
Pr280 O302 2.695 . S
Pr280 O303 2.512 . S
Pr280 O305 2.437 . S
Pr280 O308 2.436 . S
Pr280 O310 2.438 . S
Pr281 C291 2.880 . S
Pr281 O302 2.436 . S
Pr281 O304 2.438 . S
Pr281 O306 2.562 . S
Pr281 O307 2.490 . S
Pr281 O308 2.695 . S
Pr281 O309 2.512 . S
Pr281 O311 2.437 . S
C282 Pr280 2.880 . S
C282 C283 1.491 . S
C282 O300 1.254 . S
C282 O301 1.225 . S
C283 C282 1.491 . S
C283 C284 1.392 . S
C283 C288 1.356 . S
C284 C283 1.392 . S
C284 C285 1.368 . S
C284 H312 0.929 . S
C285 C284 1.368 . S
C285 C286 1.386 . S
C285 H313 0.929 . S
C286 C285 1.386 . S
C286 C287 1.373 . S
C287 C286 1.373 . S
C287 C288 1.409 . S
C287 H314 0.931 . S
C288 C283 1.356 . S
C288 C287 1.409 . S
C288 H315 0.930 . S
C289 O302 1.270 . S
C289 O303 1.248 . S
C290 O304 1.267 . S
C290 O305 1.278 . S
C291 Pr281 2.880 . S
C291 C292 1.491 1_556 S
C291 O306 1.254 . S
C291 O307 1.225 . S
C292 C291 1.491 1_554 S
C292 C293 1.392 . S
C292 C297 1.356 . S
C293 C292 1.392 . S
C293 C294 1.368 . S
C293 H316 0.929 . S
C294 C293 1.368 . S
C294 C295 1.386 . S
C294 H317 0.929 . S
C295 C294 1.386 . S
C295 C296 1.373 . S
C296 C295 1.373 . S
C296 C297 1.409 . S
C296 H318 0.931 . S
C297 C292 1.356 . S
C297 C296 1.409 . S
C297 H319 0.930 . S
C298 O308 1.270 . S
C298 O309 1.248 . S
C299 O310 1.267 . S
C299 O311 1.278 . S
O300 Pr280 2.562 . S
O300 C282 1.254 . S
O301 Pr280 2.490 . S
O301 C282 1.225 . S
O302 Pr280 2.695 . S
O302 Pr281 2.436 . S
O302 C289 1.270 . S
O303 Pr280 2.512 . S
O303 C289 1.248 . S
O304 Pr281 2.438 . S
O304 C290 1.267 . S
O305 Pr280 2.437 . S
O305 C290 1.278 . S
O306 Pr281 2.562 . S
O306 C291 1.254 . S
O307 Pr281 2.490 . S
O307 C291 1.225 . S
O308 Pr280 2.436 . S
O308 Pr281 2.695 . S
O308 C298 1.270 . S
O309 Pr281 2.512 . S
O309 C298 1.248 . S
O310 Pr280 2.438 . S
O310 C299 1.267 . S
O311 Pr281 2.437 . S
O311 C299 1.278 . S
H312 C284 0.929 . S
H313 C285 0.929 . S
H314 C287 0.931 . S
H315 C288 0.930 . S
H316 C293 0.929 . S
H317 C294 0.929 . S
H318 C296 0.931 . S
H319 C297 0.930 . S
Pr320 C322 2.880 . S
Pr320 O340 2.562 . S
Pr320 O341 2.490 . S
Pr320 O342 2.695 . S
Pr320 O343 2.512 . S
Pr320 O345 2.437 . S
Pr320 O348 2.436 . S
Pr320 O350 2.438 . S
Pr321 C331 2.880 . S
Pr321 O342 2.436 . S
Pr321 O344 2.438 . S
Pr321 O346 2.562 . S
Pr321 O347 2.490 . S
Pr321 O348 2.695 . S
Pr321 O349 2.512 . S
Pr321 O351 2.437 . S
C322 Pr320 2.880 . S
C322 C323 1.491 . S
C322 O340 1.254 . S
C322 O341 1.225 . S
C323 C322 1.491 . S
C323 C324 1.392 . S
C323 C328 1.356 . S
C324 C323 1.392 . S
C324 C325 1.368 . S
C324 H352 0.929 . S
C325 C324 1.368 . S
C325 C326 1.386 . S
C325 H353 0.929 . S
C326 C325 1.386 . S
C326 C327 1.373 . S
C327 C326 1.373 . S
C327 C328 1.409 . S
C327 H354 0.931 . S
C328 C323 1.356 . S
C328 C327 1.409 . S
C328 H355 0.930 . S
C329 O342 1.270 . S
C329 O343 1.248 . S
C330 O344 1.267 . S
C330 O345 1.278 . S
C331 Pr321 2.880 . S
C331 C332 1.491 1_556 S
C331 O346 1.254 . S
C331 O347 1.225 . S
C332 C331 1.491 1_554 S
C332 C333 1.392 . S
C332 C337 1.356 . S
C333 C332 1.392 . S
C333 C334 1.368 . S
C333 H356 0.929 . S
C334 C333 1.368 . S
C334 C335 1.386 . S
C334 H357 0.929 . S
C335 C334 1.386 . S
C335 C336 1.373 . S
C336 C335 1.373 . S
C336 C337 1.409 . S
C336 H358 0.931 . S
C337 C332 1.356 . S
C337 C336 1.409 . S
C337 H359 0.930 . S
C338 O348 1.270 . S
C338 O349 1.248 . S
C339 O350 1.267 . S
C339 O351 1.278 . S
O340 Pr320 2.562 . S
O340 C322 1.254 . S
O341 Pr320 2.490 . S
O341 C322 1.225 . S
O342 Pr320 2.695 . S
O342 Pr321 2.436 . S
O342 C329 1.270 . S
O343 Pr320 2.512 . S
O343 C329 1.248 . S
O344 Pr321 2.438 . S
O344 C330 1.267 . S
O345 Pr320 2.437 . S
O345 C330 1.278 . S
O346 Pr321 2.562 . S
O346 C331 1.254 . S
O347 Pr321 2.490 . S
O347 C331 1.225 . S
O348 Pr320 2.436 . S
O348 Pr321 2.695 . S
O348 C338 1.270 . S
O349 Pr321 2.512 . S
O349 C338 1.248 . S
O350 Pr320 2.438 . S
O350 C339 1.267 . S
O351 Pr321 2.437 . S
O351 C339 1.278 . S
H352 C324 0.929 . S
H353 C325 0.929 . S
H354 C327 0.931 . S
H355 C328 0.930 . S
H356 C333 0.929 . S
H357 C334 0.929 . S
H358 C336 0.931 . S
H359 C337 0.930 . S
Pr360 C362 2.880 1_556 S
Pr360 O380 2.562 . S
Pr360 O381 2.490 . S
Pr360 O382 2.695 . S
Pr360 O383 2.512 . S
Pr360 O385 2.437 . S
Pr360 O388 2.436 . S
Pr360 O390 2.438 . S
Pr361 C371 2.880 . S
Pr361 O382 2.436 . S
Pr361 O384 2.438 . S
Pr361 O386 2.562 . S
Pr361 O387 2.490 . S
Pr361 O388 2.695 . S
Pr361 O389 2.512 . S
Pr361 O391 2.437 . S
C362 Pr360 2.880 1_554 S
C362 C363 1.491 . S
C362 O380 1.254 1_554 S
C362 O381 1.225 1_554 S
C363 C362 1.491 . S
C363 C364 1.392 . S
C363 C368 1.356 . S
C364 C363 1.392 . S
C364 C365 1.368 . S
C364 H392 0.929 . S
C365 C364 1.368 . S
C365 C366 1.386 . S
C365 H393 0.929 . S
C366 C365 1.386 . S
C366 C367 1.373 . S
C367 C366 1.373 . S
C367 C368 1.409 . S
C367 H394 0.931 . S
C368 C363 1.356 . S
C368 C367 1.409 . S
C368 H395 0.930 . S
C369 O382 1.270 . S
C369 O383 1.248 . S
C370 O384 1.267 . S
C370 O385 1.278 . S
C371 Pr361 2.880 . S
C371 C372 1.491 . S
C371 O386 1.254 . S
C371 O387 1.225 . S
C372 C371 1.491 . S
C372 C373 1.392 . S
C372 C377 1.356 . S
C373 C372 1.392 . S
C373 C374 1.368 . S
C373 H396 0.929 . S
C374 C373 1.368 . S
C374 C375 1.386 . S
C374 H397 0.929 . S
C375 C374 1.386 . S
C375 C376 1.373 . S
C376 C375 1.373 . S
C376 C377 1.409 . S
C376 H398 0.931 . S
C377 C372 1.356 . S
C377 C376 1.409 . S
C377 H399 0.930 . S
C378 O388 1.270 . S
C378 O389 1.248 . S
C379 O390 1.267 . S
C379 O391 1.278 . S
O380 Pr360 2.562 . S
O380 C362 1.254 1_556 S
O381 Pr360 2.490 . S
O381 C362 1.225 1_556 S
O382 Pr360 2.695 . S
O382 Pr361 2.436 . S
O382 C369 1.270 . S
O383 Pr360 2.512 . S
O383 C369 1.248 . S
O384 Pr361 2.438 . S
O384 C370 1.267 . S
O385 Pr360 2.437 . S
O385 C370 1.278 . S
O386 Pr361 2.562 . S
O386 C371 1.254 . S
O387 Pr361 2.490 . S
O387 C371 1.225 . S
O388 Pr360 2.436 . S
O388 Pr361 2.695 . S
O388 C378 1.270 . S
O389 Pr361 2.512 . S
O389 C378 1.248 . S
O390 Pr360 2.438 . S
O390 C379 1.267 . S
O391 Pr361 2.437 . S
O391 C379 1.278 . S
H392 C364 0.929 . S
H393 C365 0.929 . S
H394 C367 0.931 . S
H395 C368 0.930 . S
H396 C373 0.929 . S
H397 C374 0.929 . S
H398 C376 0.931 . S
H399 C377 0.930 . S
Pr400 C402 2.880 1_556 S
Pr400 O420 2.562 . S
Pr400 O421 2.490 1_556 S
Pr400 O422 2.695 . S
Pr400 O423 2.512 . S
Pr400 O425 2.437 . S
Pr400 O428 2.436 . S
Pr400 O430 2.438 . S
Pr401 C411 2.880 . S
Pr401 O422 2.436 . S
Pr401 O424 2.438 . S
Pr401 O426 2.562 . S
Pr401 O427 2.490 . S
Pr401 O428 2.695 . S
Pr401 O429 2.512 . S
Pr401 O431 2.437 . S
C402 Pr400 2.880 1_554 S
C402 C403 1.491 . S
C402 O420 1.254 1_554 S
C402 O421 1.225 . S
C403 C402 1.491 . S
C403 C404 1.392 . S
C403 C408 1.356 . S
C404 C403 1.392 . S
C404 C405 1.368 . S
C404 H432 0.929 . S
C405 C404 1.368 . S
C405 C406 1.386 . S
C405 H433 0.929 . S
C406 C405 1.386 . S
C406 C407 1.373 . S
C407 C406 1.373 . S
C407 C408 1.409 . S
C407 H434 0.931 . S
C408 C403 1.356 . S
C408 C407 1.409 . S
C408 H435 0.930 . S
C409 O422 1.270 . S
C409 O423 1.248 . S
C410 O424 1.267 . S
C410 O425 1.278 . S
C411 Pr401 2.880 . S
C411 C412 1.491 . S
C411 O426 1.254 . S
C411 O427 1.225 . S
C412 C411 1.491 . S
C412 C413 1.392 . S
C412 C417 1.356 . S
C413 C412 1.392 . S
C413 C414 1.368 . S
C413 H436 0.929 . S
C414 C413 1.368 . S
C414 C415 1.386 . S
C414 H437 0.929 . S
C415 C414 1.386 . S
C415 C416 1.373 . S
C416 C415 1.373 . S
C416 C417 1.409 . S
C416 H438 0.931 . S
C417 C412 1.356 . S
C417 C416 1.409 . S
C417 H439 0.930 . S
C418 O428 1.270 . S
C418 O429 1.248 . S
C419 O430 1.267 . S
C419 O431 1.278 . S
O420 Pr400 2.562 . S
O420 C402 1.254 1_556 S
O421 Pr400 2.490 1_554 S
O421 C402 1.225 . S
O422 Pr400 2.695 . S
O422 Pr401 2.436 . S
O422 C409 1.270 . S
O423 Pr400 2.512 . S
O423 C409 1.248 . S
O424 Pr401 2.438 . S
O424 C410 1.267 . S
O425 Pr400 2.437 . S
O425 C410 1.278 . S
O426 Pr401 2.562 . S
O426 C411 1.254 . S
O427 Pr401 2.490 . S
O427 C411 1.225 . S
O428 Pr400 2.436 . S
O428 Pr401 2.695 . S
O428 C418 1.270 . S
O429 Pr401 2.512 . S
O429 C418 1.248 . S
O430 Pr400 2.438 . S
O430 C419 1.267 . S
O431 Pr401 2.437 . S
O431 C419 1.278 . S
H432 C404 0.929 . S
H433 C405 0.929 . S
H434 C407 0.931 . S
H435 C408 0.930 . S
H436 C413 0.929 . S
H437 C414 0.929 . S
H438 C416 0.931 . S
H439 C417 0.930 . S
Pr440 C442 2.880 1_556 S
Pr440 O460 2.562 . S
Pr440 O461 2.490 . S
Pr440 O462 2.695 . S
Pr440 O463 2.512 . S
Pr440 O465 2.437 . S
Pr440 O468 2.436 . S
Pr440 O470 2.438 . S
Pr441 C451 2.880 . S
Pr441 O462 2.436 . S
Pr441 O464 2.438 . S
Pr441 O466 2.562 . S
Pr441 O467 2.490 . S
Pr441 O468 2.695 . S
Pr441 O469 2.512 . S
Pr441 O471 2.437 . S
C442 Pr440 2.880 1_554 S
C442 C443 1.491 . S
C442 O460 1.254 1_554 S
C442 O461 1.225 1_554 S
C443 C442 1.491 . S
C443 C444 1.392 . S
C443 C448 1.356 . S
C444 C443 1.392 . S
C444 C445 1.368 . S
C444 H472 0.929 . S
C445 C444 1.368 . S
C445 C446 1.386 . S
C445 H473 0.929 . S
C446 C445 1.386 . S
C446 C447 1.373 . S
C447 C446 1.373 . S
C447 C448 1.409 . S
C447 H474 0.931 . S
C448 C443 1.356 . S
C448 C447 1.409 . S
C448 H475 0.930 . S
C449 O462 1.270 . S
C449 O463 1.248 . S
C450 O464 1.267 . S
C450 O465 1.278 . S
C451 Pr441 2.880 . S
C451 C452 1.491 . S
C451 O466 1.254 . S
C451 O467 1.225 . S
C452 C451 1.491 . S
C452 C453 1.392 . S
C452 C457 1.356 . S
C453 C452 1.392 . S
C453 C454 1.368 . S
C453 H476 0.929 . S
C454 C453 1.368 . S
C454 C455 1.386 . S
C454 H477 0.929 . S
C455 C454 1.386 . S
C455 C456 1.373 . S
C456 C455 1.373 . S
C456 C457 1.409 . S
C456 H478 0.931 . S
C457 C452 1.356 . S
C457 C456 1.409 . S
C457 H479 0.930 . S
C458 O468 1.270 . S
C458 O469 1.248 . S
C459 O470 1.267 . S
C459 O471 1.278 . S
O460 Pr440 2.562 . S
O460 C442 1.254 1_556 S
O461 Pr440 2.490 . S
O461 C442 1.225 1_556 S
O462 Pr440 2.695 . S
O462 Pr441 2.436 . S
O462 C449 1.270 . S
O463 Pr440 2.512 . S
O463 C449 1.248 . S
O464 Pr441 2.438 . S
O464 C450 1.267 . S
O465 Pr440 2.437 . S
O465 C450 1.278 . S
O466 Pr441 2.562 . S
O466 C451 1.254 . S
O467 Pr441 2.490 . S
O467 C451 1.225 . S
O468 Pr440 2.436 . S
O468 Pr441 2.695 . S
O468 C458 1.270 . S
O469 Pr441 2.512 . S
O469 C458 1.248 . S
O470 Pr440 2.438 . S
O470 C459 1.267 . S
O471 Pr441 2.437 . S
O471 C459 1.278 . S
H472 C444 0.929 . S
H473 C445 0.929 . S
H474 C447 0.931 . S
H475 C448 0.930 . S
H476 C453 0.929 . S
H477 C454 0.929 . S
H478 C456 0.931 . S
H479 C457 0.930 . S
Pr480 C482 2.880 . S
Pr480 O500 2.562 . S
Pr480 O501 2.490 . S
Pr480 O502 2.695 . S
Pr480 O503 2.512 . S
Pr480 O505 2.437 . S
Pr480 O508 2.436 . S
Pr480 O510 2.438 . S
Pr481 C491 2.880 1_554 S
Pr481 O502 2.436 . S
Pr481 O504 2.438 . S
Pr481 O506 2.562 1_554 S
Pr481 O507 2.490 1_554 S
Pr481 O508 2.695 . S
Pr481 O509 2.512 . S
Pr481 O511 2.437 . S
C482 Pr480 2.880 . S
C482 C483 1.491 . S
C482 O500 1.254 . S
C482 O501 1.225 . S
C483 C482 1.491 . S
C483 C484 1.392 . S
C483 C488 1.356 . S
C484 C483 1.392 . S
C484 C485 1.368 . S
C484 H512 0.929 . S
C485 C484 1.368 . S
C485 C486 1.386 . S
C485 H513 0.929 . S
C486 C485 1.386 . S
C486 C487 1.373 . S
C487 C486 1.373 . S
C487 C488 1.409 . S
C487 H514 0.931 . S
C488 C483 1.356 . S
C488 C487 1.409 . S
C488 H515 0.930 . S
C489 O502 1.270 . S
C489 O503 1.248 . S
C490 O504 1.267 . S
C490 O505 1.278 . S
C491 Pr481 2.880 1_556 S
C491 C492 1.491 . S
C491 O506 1.254 . S
C491 O507 1.225 . S
C492 C491 1.491 . S
C492 C493 1.392 . S
C492 C497 1.356 . S
C493 C492 1.392 . S
C493 C494 1.368 . S
C493 H516 0.929 . S
C494 C493 1.368 . S
C494 C495 1.386 . S
C494 H517 0.929 . S
C495 C494 1.386 . S
C495 C496 1.373 . S
C496 C495 1.373 . S
C496 C497 1.409 . S
C496 H518 0.931 . S
C497 C492 1.356 . S
C497 C496 1.409 . S
C497 H519 0.930 . S
C498 O508 1.270 . S
C498 O509 1.248 . S
C499 O510 1.267 . S
C499 O511 1.278 . S
O500 Pr480 2.562 . S
O500 C482 1.254 . S
O501 Pr480 2.490 . S
O501 C482 1.225 . S
O502 Pr480 2.695 . S
O502 Pr481 2.436 . S
O502 C489 1.270 . S
O503 Pr480 2.512 . S
O503 C489 1.248 . S
O504 Pr481 2.438 . S
O504 C490 1.267 . S
O505 Pr480 2.437 . S
O505 C490 1.278 . S
O506 Pr481 2.562 1_556 S
O506 C491 1.254 . S
O507 Pr481 2.490 1_556 S
O507 C491 1.225 . S
O508 Pr480 2.436 . S
O508 Pr481 2.695 . S
O508 C498 1.270 . S
O509 Pr481 2.512 . S
O509 C498 1.248 . S
O510 Pr480 2.438 . S
O510 C499 1.267 . S
O511 Pr481 2.437 . S
O511 C499 1.278 . S
H512 C484 0.929 . S
H513 C485 0.929 . S
H514 C487 0.931 . S
H515 C488 0.930 . S
H516 C493 0.929 . S
H517 C494 0.929 . S
H518 C496 0.931 . S
H519 C497 0.930 . S
Pr520 C522 2.880 1_554 S
Pr520 O540 2.562 1_554 S
Pr520 O541 2.490 1_554 S
Pr520 O542 2.695 . S
Pr520 O543 2.512 . S
Pr520 O545 2.437 . S
Pr520 O548 2.436 . S
Pr520 O550 2.438 . S
Pr521 C531 2.880 . S
Pr521 O542 2.436 . S
Pr521 O544 2.438 . S
Pr521 O546 2.562 . S
Pr521 O547 2.490 . S
Pr521 O548 2.695 . S
Pr521 O549 2.512 . S
Pr521 O551 2.437 . S
C522 Pr520 2.880 1_556 S
C522 C523 1.491 . S
C522 O540 1.254 . S
C522 O541 1.225 . S
C523 C522 1.491 . S
C523 C524 1.392 . S
C523 C528 1.356 . S
C524 C523 1.392 . S
C524 C525 1.368 . S
C524 H552 0.929 . S
C525 C524 1.368 . S
C525 C526 1.386 . S
C525 H553 0.929 . S
C526 C525 1.386 . S
C526 C527 1.373 . S
C527 C526 1.373 . S
C527 C528 1.409 . S
C527 H554 0.931 . S
C528 C523 1.356 . S
C528 C527 1.409 . S
C528 H555 0.930 . S
C529 O542 1.270 . S
C529 O543 1.248 . S
C530 O544 1.267 . S
C530 O545 1.278 . S
C531 Pr521 2.880 . S
C531 C532 1.491 . S
C531 O546 1.254 . S
C531 O547 1.225 . S
C532 C531 1.491 . S
C532 C533 1.392 . S
C532 C537 1.356 . S
C533 C532 1.392 . S
C533 C534 1.368 . S
C533 H556 0.929 . S
C534 C533 1.368 . S
C534 C535 1.386 . S
C534 H557 0.929 . S
C535 C534 1.386 . S
C535 C536 1.373 . S
C536 C535 1.373 . S
C536 C537 1.409 . S
C536 H558 0.931 . S
C537 C532 1.356 . S
C537 C536 1.409 . S
C537 H559 0.930 . S
C538 O548 1.270 . S
C538 O549 1.248 . S
C539 O550 1.267 . S
C539 O551 1.278 . S
O540 Pr520 2.562 1_556 S
O540 C522 1.254 . S
O541 Pr520 2.490 1_556 S
O541 C522 1.225 . S
O542 Pr520 2.695 . S
O542 Pr521 2.436 . S
O542 C529 1.270 . S
O543 Pr520 2.512 . S
O543 C529 1.248 . S
O544 Pr521 2.438 . S
O544 C530 1.267 . S
O545 Pr520 2.437 . S
O545 C530 1.278 . S
O546 Pr521 2.562 . S
O546 C531 1.254 . S
O547 Pr521 2.490 . S
O547 C531 1.225 . S
O548 Pr520 2.436 . S
O548 Pr521 2.695 . S
O548 C538 1.270 . S
O549 Pr521 2.512 . S
O549 C538 1.248 . S
O550 Pr520 2.438 . S
O550 C539 1.267 . S
O551 Pr521 2.437 . S
O551 C539 1.278 . S
H552 C524 0.929 . S
H553 C525 0.929 . S
H554 C527 0.931 . S
H555 C528 0.930 . S
H556 C533 0.929 . S
H557 C534 0.929 . S
H558 C536 0.931 . S
H559 C537 0.930 . S
Pr560 C562 2.880 . S
Pr560 O580 2.562 . S
Pr560 O581 2.490 . S
Pr560 O582 2.695 . S
Pr560 O583 2.512 . S
Pr560 O585 2.437 . S
Pr560 O588 2.436 . S
Pr560 O590 2.438 . S
Pr561 C571 2.880 1_554 S
Pr561 O582 2.436 . S
Pr561 O584 2.438 . S
Pr561 O586 2.562 . S
Pr561 O587 2.490 . S
Pr561 O588 2.695 . S
Pr561 O589 2.512 . S
Pr561 O591 2.437 . S
C562 Pr560 2.880 . S
C562 C563 1.491 . S
C562 O580 1.254 . S
C562 O581 1.225 . S
C563 C562 1.491 . S
C563 C564 1.392 . S
C563 C568 1.356 . S
C564 C563 1.392 . S
C564 C565 1.368 . S
C564 H592 0.929 . S
C565 C564 1.368 . S
C565 C566 1.386 . S
C565 H593 0.929 . S
C566 C565 1.386 . S
C566 C567 1.373 . S
C567 C566 1.373 . S
C567 C568 1.409 . S
C567 H594 0.931 . S
C568 C563 1.356 . S
C568 C567 1.409 . S
C568 H595 0.930 . S
C569 O582 1.270 . S
C569 O583 1.248 . S
C570 O584 1.267 . S
C570 O585 1.278 . S
C571 Pr561 2.880 1_556 S
C571 C572 1.491 . S
C571 O586 1.254 1_556 S
C571 O587 1.225 1_556 S
C572 C571 1.491 . S
C572 C573 1.392 . S
C572 C577 1.356 . S
C573 C572 1.392 . S
C573 C574 1.368 . S
C573 H596 0.929 . S
C574 C573 1.368 . S
C574 C575 1.386 . S
C574 H597 0.929 . S
C575 C574 1.386 . S
C575 C576 1.373 . S
C576 C575 1.373 . S
C576 C577 1.409 . S
C576 H598 0.931 . S
C577 C572 1.356 . S
C577 C576 1.409 . S
C577 H599 0.930 . S
C578 O588 1.270 . S
C578 O589 1.248 . S
C579 O590 1.267 . S
C579 O591 1.278 . S
O580 Pr560 2.562 . S
O580 C562 1.254 . S
O581 Pr560 2.490 . S
O581 C562 1.225 . S
O582 Pr560 2.695 . S
O582 Pr561 2.436 . S
O582 C569 1.270 . S
O583 Pr560 2.512 . S
O583 C569 1.248 . S
O584 Pr561 2.438 . S
O584 C570 1.267 . S
O585 Pr560 2.437 . S
O585 C570 1.278 . S
O586 Pr561 2.562 . S
O586 C571 1.254 1_554 S
O587 Pr561 2.490 . S
O587 C571 1.225 1_554 S
O588 Pr560 2.436 . S
O588 Pr561 2.695 . S
O588 C578 1.270 . S
O589 Pr561 2.512 . S
O589 C578 1.248 . S
O590 Pr560 2.438 . S
O590 C579 1.267 . S
O591 Pr561 2.437 . S
O591 C579 1.278 . S
H592 C564 0.929 . S
H593 C565 0.929 . S
H594 C567 0.931 . S
H595 C568 0.930 . S
H596 C573 0.929 . S
H597 C574 0.929 . S
H598 C576 0.931 . S
H599 C577 0.930 . S
Pr600 C602 2.880 . S
Pr600 O620 2.562 . S
Pr600 O621 2.490 . S
Pr600 O622 2.695 . S
Pr600 O623 2.512 . S
Pr600 O625 2.437 . S
Pr600 O628 2.436 . S
Pr600 O630 2.438 . S
Pr601 C611 2.880 1_554 S
Pr601 O622 2.436 . S
Pr601 O624 2.438 . S
Pr601 O626 2.562 . S
Pr601 O627 2.490 1_554 S
Pr601 O628 2.695 . S
Pr601 O629 2.512 . S
Pr601 O631 2.437 . S
C602 Pr600 2.880 . S
C602 C603 1.491 . S
C602 O620 1.254 . S
C602 O621 1.225 . S
C603 C602 1.491 . S
C603 C604 1.392 . S
C603 C608 1.356 . S
C604 C603 1.392 . S
C604 C605 1.368 . S
C604 H632 0.929 . S
C605 C604 1.368 . S
C605 C606 1.386 . S
C605 H633 0.929 . S
C606 C605 1.386 . S
C606 C607 1.373 . S
C607 C606 1.373 . S
C607 C608 1.409 . S
C607 H634 0.931 . S
C608 C603 1.356 . S
C608 C607 1.409 . S
C608 H635 0.930 . S
C609 O622 1.270 . S
C609 O623 1.248 . S
C610 O624 1.267 . S
C610 O625 1.278 . S
C611 Pr601 2.880 1_556 S
C611 C612 1.491 . S
C611 O626 1.254 1_556 S
C611 O627 1.225 . S
C612 C611 1.491 . S
C612 C613 1.392 . S
C612 C617 1.356 . S
C613 C612 1.392 . S
C613 C614 1.368 . S
C613 H636 0.929 . S
C614 C613 1.368 . S
C614 C615 1.386 . S
C614 H637 0.929 . S
C615 C614 1.386 . S
C615 C616 1.373 . S
C616 C615 1.373 . S
C616 C617 1.409 . S
C616 H638 0.931 . S
C617 C612 1.356 . S
C617 C616 1.409 . S
C617 H639 0.930 . S
C618 O628 1.270 . S
C618 O629 1.248 . S
C619 O630 1.267 . S
C619 O631 1.278 . S
O620 Pr600 2.562 . S
O620 C602 1.254 . S
O621 Pr600 2.490 . S
O621 C602 1.225 . S
O622 Pr600 2.695 . S
O622 Pr601 2.436 . S
O622 C609 1.270 . S
O623 Pr600 2.512 . S
O623 C609 1.248 . S
O624 Pr601 2.438 . S
O624 C610 1.267 . S
O625 Pr600 2.437 . S
O625 C610 1.278 . S
O626 Pr601 2.562 . S
O626 C611 1.254 1_554 S
O627 Pr601 2.490 1_556 S
O627 C611 1.225 . S
O628 Pr600 2.436 . S
O628 Pr601 2.695 . S
O628 C618 1.270 . S
O629 Pr601 2.512 . S
O629 C618 1.248 . S
O630 Pr600 2.438 . S
O630 C619 1.267 . S
O631 Pr601 2.437 . S
O631 C619 1.278 . S
H632 C604 0.929 . S
H633 C605 0.929 . S
H634 C607 0.931 . S
H635 C608 0.930 . S
H636 C613 0.929 . S
H637 C614 0.929 . S
H638 C616 0.931 . S
H639 C617 0.930 . S
Pr640 C642 2.880 . S
Pr640 O660 2.562 . S
Pr640 O661 2.490 . S
Pr640 O662 2.695 . S
Pr640 O663 2.512 . S
Pr640 O665 2.437 . S
Pr640 O668 2.436 . S
Pr640 O670 2.438 . S
Pr641 C651 2.880 . S
Pr641 O662 2.436 . S
Pr641 O664 2.438 . S
Pr641 O666 2.562 . S
Pr641 O667 2.490 . S
Pr641 O668 2.695 . S
Pr641 O669 2.512 . S
Pr641 O671 2.437 . S
C642 Pr640 2.880 . S
C642 C643 1.491 1_554 S
C642 O660 1.254 . S
C642 O661 1.225 . S
C643 C642 1.491 1_556 S
C643 C644 1.392 . S
C643 C648 1.356 . S
C644 C643 1.392 . S
C644 C645 1.368 . S
C644 H672 0.929 . S
C645 C644 1.368 . S
C645 C646 1.386 . S
C645 H673 0.929 . S
C646 C645 1.386 . S
C646 C647 1.373 . S
C647 C646 1.373 . S
C647 C648 1.409 . S
C647 H674 0.931 . S
C648 C643 1.356 . S
C648 C647 1.409 . S
C648 H675 0.930 . S
C649 O662 1.270 . S
C649 O663 1.248 . S
C650 O664 1.267 . S
C650 O665 1.278 . S
C651 Pr641 2.880 . S
C651 C652 1.491 . S
C651 O666 1.254 . S
C651 O667 1.225 . S
C652 C651 1.491 . S
C652 C653 1.392 . S
C652 C657 1.356 . S
C653 C652 1.392 . S
C653 C654 1.368 . S
C653 H676 0.929 . S
C654 C653 1.368 . S
C654 C655 1.386 . S
C654 H677 0.929 . S
C655 C654 1.386 . S
C655 C656 1.373 . S
C656 C655 1.373 . S
C656 C657 1.409 . S
C656 H678 0.931 . S
C657 C652 1.356 . S
C657 C656 1.409 . S
C657 H679 0.930 . S
C658 O668 1.270 . S
C658 O669 1.248 . S
C659 O670 1.267 . S
C659 O671 1.278 . S
O660 Pr640 2.562 . S
O660 C642 1.254 . S
O661 Pr640 2.490 . S
O661 C642 1.225 . S
O662 Pr640 2.695 . S
O662 Pr641 2.436 . S
O662 C649 1.270 . S
O663 Pr640 2.512 . S
O663 C649 1.248 . S
O664 Pr641 2.438 . S
O664 C650 1.267 . S
O665 Pr640 2.437 . S
O665 C650 1.278 . S
O666 Pr641 2.562 . S
O666 C651 1.254 . S
O667 Pr641 2.490 . S
O667 C651 1.225 . S
O668 Pr640 2.436 . S
O668 Pr641 2.695 . S
O668 C658 1.270 . S
O669 Pr641 2.512 . S
O669 C658 1.248 . S
O670 Pr640 2.438 . S
O670 C659 1.267 . S
O671 Pr641 2.437 . S
O671 C659 1.278 . S
H672 C644 0.929 . S
H673 C645 0.929 . S
H674 C647 0.931 . S
H675 C648 0.930 . S
H676 C653 0.929 . S
H677 C654 0.929 . S
H678 C656 0.931 . S
H679 C657 0.930 . S
Pr680 C682 2.880 . S
Pr680 O700 2.562 . S
Pr680 O701 2.490 . S
Pr680 O702 2.695 . S
Pr680 O703 2.512 . S
Pr680 O705 2.437 . S
Pr680 O708 2.436 . S
Pr680 O710 2.438 . S
Pr681 C691 2.880 . S
Pr681 O702 2.436 . S
Pr681 O704 2.438 . S
Pr681 O706 2.562 . S
Pr681 O707 2.490 . S
Pr681 O708 2.695 . S
Pr681 O709 2.512 . S
Pr681 O711 2.437 . S
C682 Pr680 2.880 . S
C682 C683 1.491 . S
C682 O700 1.254 . S
C682 O701 1.225 . S
C683 C682 1.491 . S
C683 C684 1.392 . S
C683 C688 1.356 . S
C684 C683 1.392 . S
C684 C685 1.368 . S
C684 H712 0.929 . S
C685 C684 1.368 . S
C685 C686 1.386 . S
C685 H713 0.929 . S
C686 C685 1.386 . S
C686 C687 1.373 . S
C687 C686 1.373 . S
C687 C688 1.409 . S
C687 H714 0.931 . S
C688 C683 1.356 . S
C688 C687 1.409 . S
C688 H715 0.930 . S
C689 O702 1.270 . S
C689 O703 1.248 . S
C690 O704 1.267 . S
C690 O705 1.278 . S
C691 Pr681 2.880 . S
C691 C692 1.491 1_554 S
C691 O706 1.254 . S
C691 O707 1.225 . S
C692 C691 1.491 1_556 S
C692 C693 1.392 . S
C692 C697 1.356 . S
C693 C692 1.392 . S
C693 C694 1.368 . S
C693 H716 0.929 . S
C694 C693 1.368 . S
C694 C695 1.386 . S
C694 H717 0.929 . S
C695 C694 1.386 . S
C695 C696 1.373 . S
C696 C695 1.373 . S
C696 C697 1.409 . S
C696 H718 0.931 . S
C697 C692 1.356 . S
C697 C696 1.409 . S
C697 H719 0.930 . S
C698 O708 1.270 . S
C698 O709 1.248 . S
C699 O710 1.267 . S
C699 O711 1.278 . S
O700 Pr680 2.562 . S
O700 C682 1.254 . S
O701 Pr680 2.490 . S
O701 C682 1.225 . S
O702 Pr680 2.695 . S
O702 Pr681 2.436 . S
O702 C689 1.270 . S
O703 Pr680 2.512 . S
O703 C689 1.248 . S
O704 Pr681 2.438 . S
O704 C690 1.267 . S
O705 Pr680 2.437 . S
O705 C690 1.278 . S
O706 Pr681 2.562 . S
O706 C691 1.254 . S
O707 Pr681 2.490 . S
O707 C691 1.225 . S
O708 Pr680 2.436 . S
O708 Pr681 2.695 . S
O708 C698 1.270 . S
O709 Pr681 2.512 . S
O709 C698 1.248 . S
O710 Pr680 2.438 . S
O710 C699 1.267 . S
O711 Pr681 2.437 . S
O711 C699 1.278 . S
H712 C684 0.929 . S
H713 C685 0.929 . S
H714 C687 0.931 . S
H715 C688 0.930 . S
H716 C693 0.929 . S
H717 C694 0.929 . S
H718 C696 0.931 . S
H719 C697 0.930 . S
C720 C721 1.363 . S
C720 C726 1.379 . S
C720 N728 1.356 . S
C721 C720 1.363 . S
C721 C727 1.363 . S
C722 C723 1.363 . S
C722 C727 1.379 . S
C722 N729 1.356 . S
C723 C722 1.363 . S
C723 C726 1.363 . S
N724 C726 1.356 . S
N724 H736 0.984 . S
N724 H737 0.985 . S
N725 C727 1.356 . S
N725 H730 0.984 . S
N725 H731 0.985 . S
C726 C720 1.379 . S
C726 C723 1.363 . S
C726 N724 1.356 . S
C727 C721 1.363 . S
C727 C722 1.379 . S
C727 N725 1.356 . S
N728 C720 1.356 . S
N728 H734 0.984 . S
N728 H735 0.984 . S
N729 C722 1.356 . S
N729 H732 0.984 . S
N729 H733 0.985 . S
H730 N725 0.984 . S
H731 N725 0.985 . S
H732 N729 0.984 . S
H733 N729 0.985 . S
H734 N728 0.984 . S
H735 N728 0.984 . S
H736 N724 0.984 . S
H737 N724 0.985 . S
C738 C739 1.363 . S
C738 C744 1.379 . S
C738 N746 1.356 . S
C739 C738 1.363 . S
C739 C745 1.363 . S
C740 C741 1.363 . S
C740 C745 1.379 . S
C740 N747 1.356 . S
C741 C740 1.363 . S
C741 C744 1.363 . S
N742 C744 1.356 . S
N742 H754 0.984 . S
N742 H755 0.985 . S
N743 C745 1.356 . S
N743 H748 0.984 . S
N743 H749 0.985 . S
C744 C738 1.379 . S
C744 C741 1.363 . S
C744 N742 1.356 . S
C745 C739 1.363 . S
C745 C740 1.379 . S
C745 N743 1.356 . S
N746 C738 1.356 . S
N746 H752 0.984 . S
N746 H753 0.984 . S
N747 C740 1.356 . S
N747 H750 0.984 . S
N747 H751 0.985 . S
H748 N743 0.984 . S
H749 N743 0.985 . S
H750 N747 0.984 . S
H751 N747 0.985 . S
H752 N746 0.984 . S
H753 N746 0.984 . S
H754 N742 0.984 . S
H755 N742 0.985 . S
C756 C757 1.363 . S
C756 C762 1.379 . S
C756 N764 1.356 . S
C757 C756 1.363 . S
C757 C763 1.363 . S
C758 C759 1.363 . S
C758 C763 1.379 . S
C758 N765 1.356 . S
C759 C758 1.363 . S
C759 C762 1.363 . S
N760 C762 1.356 . S
N760 H772 0.984 . S
N760 H773 0.985 . S
N761 C763 1.356 . S
N761 H766 0.984 . S
N761 H767 0.985 . S
C762 C756 1.379 . S
C762 C759 1.363 . S
C762 N760 1.356 . S
C763 C757 1.363 . S
C763 C758 1.379 . S
C763 N761 1.356 . S
N764 C756 1.356 . S
N764 H770 0.988 1_565 S
N764 H771 0.984 . S
N765 C758 1.356 . S
N765 H768 0.984 . S
N765 H769 0.985 . S
H766 N761 0.984 . S
H767 N761 0.985 . S
H768 N765 0.984 . S
H769 N765 0.985 . S
H770 N764 0.988 1_545 S
H771 N764 0.984 . S
H772 N760 0.984 . S
H773 N760 0.985 . S
C774 C775 1.363 . S
C774 C780 1.379 . S
C774 N782 1.356 . S
C775 C774 1.363 . S
C775 C781 1.363 . S
C776 C777 1.363 . S
C776 C781 1.379 . S
C776 N783 1.356 . S
C777 C776 1.363 . S
C777 C780 1.363 . S
N778 C780 1.356 . S
N778 H790 0.984 . S
N778 H791 0.985 . S
N779 C781 1.356 . S
N779 H784 0.984 . S
N779 H785 1.010 . S
C780 C774 1.379 . S
C780 C777 1.363 . S
C780 N778 1.356 . S
C781 C775 1.363 . S
C781 C776 1.379 . S
C781 N779 1.356 . S
N782 C774 1.356 . S
N782 H788 0.984 . S
N782 H789 0.984 . S
N783 C776 1.356 . S
N783 H786 0.984 . S
N783 H787 0.985 . S
H784 N779 0.984 . S
H785 N779 1.010 . S
H786 N783 0.984 . S
H787 N783 0.985 . S
H788 N782 0.984 . S
H789 N782 0.984 . S
H790 N778 0.984 . S
H791 N778 0.985 . S
C792 C793 1.363 . S
C792 C798 1.379 . S
C792 N800 1.356 . S
C793 C792 1.363 . S
C793 C799 1.363 . S
C794 C795 1.363 . S
C794 C799 1.379 . S
C794 N801 1.356 . S
C795 C794 1.363 . S
C795 C798 1.363 . S
N796 C798 1.356 . S
N796 H808 0.984 . S
N796 H809 0.985 . S
N797 C799 1.356 . S
N797 H802 0.984 . S
N797 H803 0.985 . S
C798 C792 1.379 . S
C798 C795 1.363 . S
C798 N796 1.356 . S
C799 C793 1.363 . S
C799 C794 1.379 . S
C799 N797 1.356 . S
N800 C792 1.356 . S
N800 H806 0.984 . S
N800 H807 0.984 . S
N801 C794 1.356 . S
N801 H804 0.984 . S
N801 H805 0.985 . S
H802 N797 0.984 . S
H803 N797 0.985 . S
H804 N801 0.984 . S
H805 N801 0.985 . S
H806 N800 0.984 . S
H807 N800 0.984 . S
H808 N796 0.984 . S
H809 N796 0.985 . S
C810 C811 1.363 . S
C810 C816 1.379 . S
C810 N818 1.356 . S
C811 C810 1.363 . S
C811 C817 1.363 . S
C812 C813 1.363 . S
C812 C817 1.379 . S
C812 N819 1.356 . S
C813 C812 1.363 . S
C813 C816 1.363 . S
N814 C816 1.356 . S
N814 H826 0.984 . S
N814 H827 0.985 . S
N815 C817 1.356 . S
N815 H820 0.984 . S
N815 H821 0.985 . S
C816 C810 1.379 . S
C816 C813 1.363 . S
C816 N814 1.356 . S
C817 C811 1.363 . S
C817 C812 1.379 . S
C817 N815 1.356 . S
N818 C810 1.356 . S
N818 H824 0.984 . S
N818 H825 0.984 . S
N819 C812 1.356 . S
N819 H822 0.984 . S
N819 H823 0.985 . S
H820 N815 0.984 . S
H821 N815 0.985 . S
H822 N819 0.984 . S
H823 N819 0.985 . S
H824 N818 0.984 . S
H825 N818 0.984 . S
H826 N814 0.984 . S
H827 N814 0.985 . S
C828 C829 1.363 . S
C828 C834 1.379 . S
C828 N836 1.356 . S
C829 C828 1.363 . S
C829 C835 1.363 . S
C830 C831 1.363 . S
C830 C835 1.379 . S
C830 N837 1.356 . S
C831 C830 1.363 . S
C831 C834 1.363 . S
N832 C834 1.356 . S
N832 H844 0.984 . S
N832 H845 0.985 . S
N833 C835 1.356 . S
N833 H838 0.984 . S
N833 H839 0.985 . S
C834 C828 1.379 . S
C834 C831 1.363 . S
C834 N832 1.356 . S
C835 C829 1.363 . S
C835 C830 1.379 . S
C835 N833 1.356 . S
N836 C828 1.356 . S
N836 H842 0.984 . S
N836 H843 0.984 . S
N837 C830 1.356 . S
N837 H840 0.984 . S
N837 H841 0.985 . S
H838 N833 0.984 . S
H839 N833 0.985 . S
H840 N837 0.984 . S
H841 N837 0.985 . S
H842 N836 0.984 . S
H843 N836 0.984 . S
H844 N832 0.984 . S
H845 N832 0.985 . S
C846 C847 1.363 . S
C846 C852 1.379 . S
C846 N854 1.356 . S
C847 C846 1.363 . S
C847 C853 1.363 . S
C848 C849 1.363 . S
C848 C853 1.379 . S
C848 N855 1.356 . S
C849 C848 1.363 . S
C849 C852 1.363 . S
N850 C852 1.356 . S
N850 H862 0.984 . S
N850 H863 0.985 . S
N851 C853 1.356 . S
N851 H856 0.984 . S
N851 H857 0.985 . S
C852 C846 1.379 . S
C852 C849 1.363 . S
C852 N850 1.356 . S
C853 C847 1.363 . S
C853 C848 1.379 . S
C853 N851 1.356 . S
N854 C846 1.356 . S
N854 H860 0.984 . S
N854 H861 0.984 . S
N855 C848 1.356 . S
N855 H858 0.984 . S
N855 H859 0.985 . S
H856 N851 0.984 . S
H857 N851 0.985 . S
H858 N855 0.984 . S
H859 N855 0.985 . S
H860 N854 0.984 . S
H861 N854 0.984 . S
H862 N850 0.984 . S
H863 N850 0.985 . S
C864 C865 1.363 . S
C864 C870 1.379 . S
C864 N872 1.356 . S
C865 C864 1.363 . S
C865 C871 1.363 . S
C866 C867 1.363 . S
C866 C871 1.379 . S
C866 N873 1.356 . S
C867 C866 1.363 . S
C867 C870 1.363 . S
N868 C870 1.356 . S
N868 H880 0.984 . S
N868 H881 0.985 . S
N869 C871 1.356 . S
N869 H874 0.984 . S
N869 H875 0.985 . S
C870 C864 1.379 . S
C870 C867 1.363 . S
C870 N868 1.356 . S
C871 C865 1.363 . S
C871 C866 1.379 . S
C871 N869 1.356 . S
N872 C864 1.356 . S
N872 H878 0.984 . S
N872 H879 0.984 . S
N873 C866 1.356 . S
N873 H876 0.984 . S
N873 H877 0.985 . S
H874 N869 0.984 . S
H875 N869 0.985 . S
H876 N873 0.984 . S
H877 N873 0.985 . S
H878 N872 0.984 . S
H879 N872 0.984 . S
H880 N868 0.984 . S
H881 N868 0.985 . S
C882 C883 1.363 . S
C882 C888 1.379 . S
C882 N890 1.356 . S
C883 C882 1.363 . S
C883 C889 1.363 . S
C884 C885 1.363 . S
C884 C889 1.379 . S
C884 N891 1.356 . S
C885 C884 1.363 . S
C885 C888 1.363 . S
N886 C888 1.356 . S
N886 H898 0.967 1_565 S
N886 H899 0.985 . S
N887 C889 1.356 . S
N887 H892 0.984 . S
N887 H893 0.985 . S
C888 C882 1.379 . S
C888 C885 1.363 . S
C888 N886 1.356 . S
C889 C883 1.363 . S
C889 C884 1.379 . S
C889 N887 1.356 . S
N890 C882 1.356 . S
N890 H896 0.984 . S
N890 H897 0.984 . S
N891 C884 1.356 . S
N891 H894 0.984 . S
N891 H895 0.985 . S
H892 N887 0.984 . S
H893 N887 0.985 . S
H894 N891 0.984 . S
H895 N891 0.985 . S
H896 N890 0.984 . S
H897 N890 0.984 . S
H898 N886 0.967 1_545 S
H899 N886 0.985 . S
C900 C901 1.363 . S
C900 C906 1.379 . S
C900 N908 1.356 . S
C901 C900 1.363 . S
C901 C907 1.363 . S
C902 C903 1.363 . S
C902 C907 1.379 . S
C902 N909 1.356 . S
C903 C902 1.363 . S
C903 C906 1.363 . S
N904 C906 1.356 . S
N904 H916 0.984 . S
N904 H917 0.985 . S
N905 C907 1.356 . S
N905 H910 0.984 . S
N905 H911 0.985 . S
C906 C900 1.379 . S
C906 C903 1.363 . S
C906 N904 1.356 . S
C907 C901 1.363 . S
C907 C902 1.379 . S
C907 N905 1.356 . S
N908 C900 1.356 . S
N908 H914 0.984 . S
N908 H915 0.984 . S
N909 C902 1.356 . S
N909 H912 0.984 . S
N909 H913 0.985 . S
H910 N905 0.984 . S
H911 N905 0.985 . S
H912 N909 0.984 . S
H913 N909 0.985 . S
H914 N908 0.984 . S
H915 N908 0.984 . S
H916 N904 0.984 . S
H917 N904 0.985 . S
C918 C919 1.363 . S
C918 C924 1.379 . S
C918 N926 1.356 . S
C919 C918 1.363 . S
C919 C925 1.363 . S
C920 C921 1.363 . S
C920 C925 1.379 . S
C920 N927 1.356 . S
C921 C920 1.363 . S
C921 C924 1.363 . S
N922 C924 1.356 . S
N922 H934 0.984 . S
N922 H935 0.985 . S
N923 C925 1.356 . S
N923 H928 0.984 . S
N923 H929 0.985 . S
C924 C918 1.379 . S
C924 C921 1.363 . S
C924 N922 1.356 . S
C925 C919 1.363 . S
C925 C920 1.379 . S
C925 N923 1.356 . S
N926 C918 1.356 . S
N926 H932 0.984 . S
N926 H933 0.984 . S
N927 C920 1.356 . S
N927 H930 0.984 . S
N927 H931 0.985 . S
H928 N923 0.984 . S
H929 N923 0.985 . S
H930 N927 0.984 . S
H931 N927 0.985 . S
H932 N926 0.984 . S
H933 N926 0.984 . S
H934 N922 0.984 . S
H935 N922 0.985 . S
C936 C937 1.363 . S
C936 C942 1.379 1_656 S
C936 N944 1.356 . S
C937 C936 1.363 . S
C937 C943 1.363 . S
C938 C939 1.363 . S
C938 C943 1.379 1_454 S
C938 N945 1.356 . S
C939 C938 1.363 . S
C939 C942 1.363 . S
N940 C942 1.356 . S
N940 H952 0.984 . S
N940 H953 0.985 . S
N941 C943 1.356 . S
N941 H946 0.984 . S
N941 H947 0.985 . S
C942 C936 1.379 1_454 S
C942 C939 1.363 . S
C942 N940 1.356 . S
C943 C937 1.363 . S
C943 C938 1.379 1_656 S
C943 N941 1.356 . S
N944 C936 1.356 . S
N944 H950 0.984 . S
N944 H951 0.984 . S
N945 C938 1.356 . S
N945 H948 0.984 . S
N945 H949 0.985 . S
H946 N941 0.984 . S
H947 N941 0.985 . S
H948 N945 0.984 . S
H949 N945 0.985 . S
H950 N944 0.984 . S
H951 N944 0.984 . S
H952 N940 0.984 . S
H953 N940 0.985 . S
C954 C955 1.363 . S
C954 C960 1.379 1_556 S
C954 N962 1.356 . S
C955 C954 1.363 . S
C955 C961 1.363 . S
C956 C957 1.363 1_556 S
C956 C961 1.379 . S
C956 N963 1.356 1_556 S
C957 C956 1.363 1_554 S
C957 C960 1.363 . S
N958 C960 1.356 . S
N958 H970 0.984 . S
N958 H971 0.985 . S
N959 C961 1.356 . S
N959 H964 0.984 . S
N959 H965 0.985 . S
C960 C954 1.379 1_554 S
C960 C957 1.363 . S
C960 N958 1.356 . S
C961 C955 1.363 . S
C961 C956 1.379 . S
C961 N959 1.356 . S
N962 C954 1.356 . S
N962 H968 0.984 . S
N962 H969 0.984 . S
N963 C956 1.356 1_554 S
N963 H966 0.984 . S
N963 H967 0.985 1_554 S
H964 N959 0.984 . S
H965 N959 0.985 . S
H966 N963 0.984 . S
H967 N963 0.985 1_556 S
H968 N962 0.984 . S
H969 N962 0.984 . S
H970 N958 0.984 . S
H971 N958 0.985 . S
C972 C973 1.363 1_565 S
C972 C978 1.379 . S
C972 N980 1.356 . S
C973 C972 1.363 1_545 S
C973 C979 1.363 . S
C974 C975 1.363 1_545 S
C974 C979 1.379 1_554 S
C974 N981 1.356 . S
C975 C974 1.363 1_565 S
C975 C978 1.363 1_554 S
N976 C978 1.356 . S
N976 H988 0.984 . S
N976 H989 0.985 1_556 S
N977 C979 1.356 . S
N977 H982 0.984 . S
N977 H983 0.985 . S
C978 C972 1.379 . S
C978 C975 1.363 1_556 S
C978 N976 1.356 . S
C979 C973 1.363 . S
C979 C974 1.379 1_556 S
C979 N977 1.356 . S
N980 C972 1.356 . S
N980 H986 0.984 . S
N980 H987 0.984 1_565 S
N981 C974 1.356 . S
N981 H984 0.973 1_545 S
N981 H985 0.985 . S
H982 N977 0.984 . S
H983 N977 0.985 . S
H984 N981 0.973 1_565 S
H985 N981 0.985 . S
H986 N980 0.984 . S
H987 N980 0.984 1_545 S
H988 N976 0.984 . S
H989 N976 0.985 1_554 S
C990 C991 1.363 1_565 S
C990 C996 1.379 1_556 S
C990 N998 1.356 . S
C991 C990 1.363 1_545 S
C991 C997 1.361 1_556 S
C992 C993 1.363 1_545 S
C992 C997 1.381 . S
C992 N999 1.356 . S
C993 C992 1.363 1_565 S
C993 C996 1.363 . S
N994 C996 1.356 . S
N994 H1006 0.984 . S
N994 H1007 0.985 . S
N995 C997 1.355 1_556 S
N995 H1000 0.984 . S
N995 H1001 0.985 1_556 S
C996 C990 1.379 1_554 S
C996 C993 1.363 . S
C996 N994 1.356 . S
C997 C991 1.361 1_554 S
C997 C992 1.381 . S
C997 N995 1.355 1_554 S
N998 C990 1.356 . S
N998 H1004 0.984 . S
N998 H1005 0.984 1_565 S
N999 C992 1.356 . S
N999 H1002 0.984 . S
N999 H1003 0.985 . S
H1000 N995 0.984 . S
H1001 N995 0.985 1_554 S
H1002 N999 0.984 . S
H1003 N999 0.985 . S
H1004 N998 0.984 . S
H1005 N998 0.984 1_545 S
H1006 N994 0.984 . S
H1007 N994 0.985 . S
C1008 C1009 1.363 . S
C1008 C1014 1.379 1_455 S
C1008 N1016 1.356 . S
C1009 C1008 1.363 . S
C1009 C1015 1.363 . S
C1010 C1011 1.393 1_554 S
C1010 C1015 1.364 1_655 S
C1010 N1017 1.352 1_554 S
C1011 C1010 1.393 1_556 S
C1011 C1014 1.363 1_556 S
N1012 C1014 1.356 1_556 S
N1012 H1024 0.984 . S
N1012 H1025 0.985 . S
N1013 C1015 1.356 . S
N1013 H1018 0.984 . S
N1013 H1019 0.985 . S
C1014 C1008 1.379 1_655 S
C1014 C1011 1.363 1_554 S
C1014 N1012 1.356 1_554 S
C1015 C1009 1.363 . S
C1015 C1010 1.364 1_455 S
C1015 N1013 1.356 . S
N1016 C1008 1.356 . S
N1016 H1022 0.984 . S
N1016 H1023 0.984 . S
N1017 C1010 1.352 1_556 S
N1017 H1020 0.984 . S
N1017 H1021 0.985 . S
H1018 N1013 0.984 . S
H1019 N1013 0.985 . S
H1020 N1017 0.984 . S
H1021 N1017 0.985 . S
H1022 N1016 0.984 . S
H1023 N1016 0.984 . S
H1024 N1012 0.984 . S
H1025 N1012 0.985 . S
C1026 C1027 1.363 . S
C1026 C1032 1.379 1_554 S
C1026 N1034 1.356 . S
C1027 C1026 1.363 . S
C1027 C1033 1.363 . S
C1028 C1029 1.363 1_554 S
C1028 C1033 1.379 . S
C1028 N1035 1.356 1_554 S
C1029 C1028 1.363 1_556 S
C1029 C1032 1.363 . S
N1030 C1032 1.356 . S
N1030 H1042 0.984 . S
N1030 H1043 0.985 . S
N1031 C1033 1.356 . S
N1031 H1036 0.984 . S
N1031 H1037 0.985 . S
C1032 C1026 1.379 1_556 S
C1032 C1029 1.363 . S
C1032 N1030 1.356 . S
C1033 C1027 1.363 . S
C1033 C1028 1.379 . S
C1033 N1031 1.356 . S
N1034 C1026 1.356 . S
N1034 H1040 0.984 . S
N1034 H1041 0.984 . S
N1035 C1028 1.356 1_556 S
N1035 H1038 0.984 . S
N1035 H1039 0.987 . S
H1036 N1031 0.984 . S
H1037 N1031 0.985 . S
H1038 N1035 0.984 . S
H1039 N1035 0.987 . S
H1040 N1034 0.984 . S
H1041 N1034 0.984 . S
H1042 N1030 0.984 . S
H1043 N1030 0.985 . S
C1044 C1045 1.363 . S
C1044 C1050 1.379 . S
C1044 N1052 1.356 . S
C1045 C1044 1.363 . S
C1045 C1051 1.363 . S
C1046 C1047 1.363 . S
C1046 C1051 1.379 . S
C1046 N1053 1.356 . S
C1047 C1046 1.363 . S
C1047 C1050 1.363 . S
N1048 C1050 1.356 . S
N1048 H1060 0.984 . S
N1048 H1061 0.985 . S
N1049 C1051 1.356 . S
N1049 H1054 0.984 . S
N1049 H1055 0.985 . S
C1050 C1044 1.379 . S
C1050 C1047 1.363 . S
C1050 N1048 1.356 . S
C1051 C1045 1.363 . S
C1051 C1046 1.379 . S
C1051 N1049 1.356 . S
N1052 C1044 1.356 . S
N1052 H1058 0.984 . S
N1052 H1059 0.984 . S
N1053 C1046 1.356 . S
N1053 H1056 0.984 . S
N1053 H1057 0.985 . S
H1054 N1049 0.984 . S
H1055 N1049 0.985 . S
H1056 N1053 0.984 . S
H1057 N1053 0.985 . S
H1058 N1052 0.984 . S
H1059 N1052 0.984 . S
H1060 N1048 0.984 . S
H1061 N1048 0.985 . S
C1062 C1063 1.363 . S
C1062 C1068 1.379 . S
C1062 N1070 1.356 . S
C1063 C1062 1.363 . S
C1063 C1069 1.363 . S
C1064 C1065 1.363 . S
C1064 C1069 1.379 . S
C1064 N1071 1.356 . S
C1065 C1064 1.363 . S
C1065 C1068 1.363 . S
N1066 C1068 1.356 . S
N1066 H1078 0.984 . S
N1066 H1079 0.985 . S
N1067 C1069 1.356 . S
N1067 H1072 0.984 . S
N1067 H1073 0.985 . S
C1068 C1062 1.379 . S
C1068 C1065 1.363 . S
C1068 N1066 1.356 . S
C1069 C1063 1.363 . S
C1069 C1064 1.379 . S
C1069 N1067 1.356 . S
N1070 C1062 1.356 . S
N1070 H1076 0.984 . S
N1070 H1077 0.984 . S
N1071 C1064 1.356 . S
N1071 H1074 0.984 . S
N1071 H1075 0.985 . S
H1072 N1067 0.984 . S
H1073 N1067 0.985 . S
H1074 N1071 0.984 . S
H1075 N1071 0.985 . S
H1076 N1070 0.984 . S
H1077 N1070 0.984 . S
H1078 N1066 0.984 . S
H1079 N1066 0.985 . S
C1080 C1081 1.363 . S
C1080 C1086 1.379 . S
C1080 N1088 1.356 . S
C1081 C1080 1.363 . S
C1081 C1087 1.363 . S
C1082 C1083 1.363 . S
C1082 C1087 1.379 . S
C1082 N1089 1.356 . S
C1083 C1082 1.363 . S
C1083 C1086 1.363 . S
N1084 C1086 1.356 . S
N1084 H1096 0.984 . S
N1084 H1097 0.985 . S
N1085 C1087 1.356 . S
N1085 H1090 0.984 . S
N1085 H1091 0.985 . S
C1086 C1080 1.379 . S
C1086 C1083 1.363 . S
C1086 N1084 1.356 . S
C1087 C1081 1.363 . S
C1087 C1082 1.379 . S
C1087 N1085 1.356 . S
N1088 C1080 1.356 . S
N1088 H1094 0.984 . S
N1088 H1095 0.984 . S
N1089 C1082 1.356 . S
N1089 H1092 0.984 . S
N1089 H1093 0.985 . S
H1090 N1085 0.984 . S
H1091 N1085 0.985 . S
H1092 N1089 0.984 . S
H1093 N1089 0.985 . S
H1094 N1088 0.984 . S
H1095 N1088 0.984 . S
H1096 N1084 0.984 . S
H1097 N1084 0.985 . S
C1098 C1099 1.363 . S
C1098 C1104 1.379 . S
C1098 N1106 1.356 . S
C1099 C1098 1.363 . S
C1099 C1105 1.363 . S
C1100 C1101 1.363 . S
C1100 C1105 1.379 . S
C1100 N1107 1.356 . S
C1101 C1100 1.363 . S
C1101 C1104 1.363 . S
N1102 C1104 1.356 . S
N1102 H1114 0.984 . S
N1102 H1115 0.985 . S
N1103 C1105 1.356 . S
N1103 H1108 0.984 . S
N1103 H1109 0.985 . S
C1104 C1098 1.379 . S
C1104 C1101 1.363 . S
C1104 N1102 1.356 . S
C1105 C1099 1.363 . S
C1105 C1100 1.379 . S
C1105 N1103 1.356 . S
N1106 C1098 1.356 . S
N1106 H1112 0.984 . S
N1106 H1113 0.984 . S
N1107 C1100 1.356 . S
N1107 H1110 0.984 . S
N1107 H1111 0.985 . S
H1108 N1103 0.984 . S
H1109 N1103 0.985 . S
H1110 N1107 0.984 . S
H1111 N1107 0.985 . S
H1112 N1106 0.984 . S
H1113 N1106 0.984 . S
H1114 N1102 0.984 . S
H1115 N1102 0.985 . S
C1116 C1117 1.363 . S
C1116 C1122 1.379 . S
C1116 N1124 1.356 . S
C1117 C1116 1.363 . S
C1117 C1123 1.363 . S
C1118 C1119 1.363 . S
C1118 C1123 1.379 . S
C1118 N1125 1.356 . S
C1119 C1118 1.363 . S
C1119 C1122 1.363 . S
N1120 C1122 1.356 . S
N1120 H1132 0.984 . S
N1120 H1133 0.985 . S
N1121 C1123 1.356 . S
N1121 H1126 0.984 . S
N1121 H1127 0.985 . S
C1122 C1116 1.379 . S
C1122 C1119 1.363 . S
C1122 N1120 1.356 . S
C1123 C1117 1.363 . S
C1123 C1118 1.379 . S
C1123 N1121 1.356 . S
N1124 C1116 1.356 . S
N1124 H1130 0.984 . S
N1124 H1131 0.984 . S
N1125 C1118 1.356 . S
N1125 H1128 0.984 . S
N1125 H1129 0.985 . S
H1126 N1121 0.984 . S
H1127 N1121 0.985 . S
H1128 N1125 0.984 . S
H1129 N1125 0.985 . S
H1130 N1124 0.984 . S
H1131 N1124 0.984 . S
H1132 N1120 0.984 . S
H1133 N1120 0.985 . S
C1134 C1135 1.363 . S
C1134 C1140 1.379 . S
C1134 N1142 1.356 . S
C1135 C1134 1.363 . S
C1135 C1141 1.363 . S
C1136 C1137 1.363 . S
C1136 C1141 1.379 . S
C1136 N1143 1.356 . S
C1137 C1136 1.363 . S
C1137 C1140 1.363 . S
N1138 C1140 1.356 . S
N1138 H1150 0.984 . S
N1138 H1151 0.985 . S
N1139 C1141 1.356 . S
N1139 H1144 0.984 . S
N1139 H1145 0.985 . S
C1140 C1134 1.379 . S
C1140 C1137 1.363 . S
C1140 N1138 1.356 . S
C1141 C1135 1.363 . S
C1141 C1136 1.379 . S
C1141 N1139 1.356 . S
N1142 C1134 1.356 . S
N1142 H1148 0.984 . S
N1142 H1149 0.984 . S
N1143 C1136 1.356 . S
N1143 H1146 0.984 . S
N1143 H1147 0.985 . S
H1144 N1139 0.984 . S
H1145 N1139 0.985 . S
H1146 N1143 0.984 . S
H1147 N1143 0.985 . S
H1148 N1142 0.984 . S
H1149 N1142 0.984 . S
H1150 N1138 0.984 . S
H1151 N1138 0.985 . S
C1152 C1153 1.363 . S
C1152 C1158 1.379 . S
C1152 N1160 1.356 . S
C1153 C1152 1.363 . S
C1153 C1159 1.363 . S
C1154 C1155 1.363 . S
C1154 C1159 1.379 . S
C1154 N1161 1.356 . S
C1155 C1154 1.363 . S
C1155 C1158 1.363 . S
N1156 C1158 1.356 . S
N1156 H1168 0.984 . S
N1156 H1169 0.985 . S
N1157 C1159 1.356 . S
N1157 H1162 0.984 . S
N1157 H1163 0.985 . S
C1158 C1152 1.379 . S
C1158 C1155 1.363 . S
C1158 N1156 1.356 . S
C1159 C1153 1.363 . S
C1159 C1154 1.379 . S
C1159 N1157 1.356 . S
N1160 C1152 1.356 . S
N1160 H1166 0.984 . S
N1160 H1167 0.984 . S
N1161 C1154 1.356 . S
N1161 H1164 0.984 . S
N1161 H1165 0.985 . S
H1162 N1157 0.984 . S
H1163 N1157 0.985 . S
H1164 N1161 0.984 . S
H1165 N1161 0.985 . S
H1166 N1160 0.984 . S
H1167 N1160 0.984 . S
H1168 N1156 0.984 . S
H1169 N1156 0.985 . S
C1170 C1171 1.363 . S
C1170 C1176 1.379 . S
C1170 N1178 1.356 . S
C1171 C1170 1.363 . S
C1171 C1177 1.363 . S
C1172 C1173 1.363 . S
C1172 C1177 1.379 . S
C1172 N1179 1.356 . S
C1173 C1172 1.363 . S
C1173 C1176 1.363 . S
N1174 C1176 1.356 . S
N1174 H1186 0.984 . S
N1174 H1187 0.985 . S
N1175 C1177 1.356 . S
N1175 H1180 0.984 . S
N1175 H1181 0.985 . S
C1176 C1170 1.379 . S
C1176 C1173 1.363 . S
C1176 N1174 1.356 . S
C1177 C1171 1.363 . S
C1177 C1172 1.379 . S
C1177 N1175 1.356 . S
N1178 C1170 1.356 . S
N1178 H1184 0.984 . S
N1178 H1185 0.984 . S
N1179 C1172 1.356 . S
N1179 H1182 0.984 . S
N1179 H1183 0.985 . S
H1180 N1175 0.984 . S
H1181 N1175 0.985 . S
H1182 N1179 0.984 . S
H1183 N1179 0.985 . S
H1184 N1178 0.984 . S
H1185 N1178 0.984 . S
H1186 N1174 0.984 . S
H1187 N1174 0.985 . S
C1188 C1189 1.363 . S
C1188 C1194 1.379 . S
C1188 N1196 1.356 . S
C1189 C1188 1.363 . S
C1189 C1195 1.363 . S
C1190 C1191 1.363 . S
C1190 C1195 1.379 . S
C1190 N1197 1.356 . S
C1191 C1190 1.363 . S
C1191 C1194 1.363 . S
N1192 C1194 1.356 . S
N1192 H1204 0.984 . S
N1192 H1205 0.985 . S
N1193 C1195 1.356 . S
N1193 H1198 0.984 . S
N1193 H1199 0.985 . S
C1194 C1188 1.379 . S
C1194 C1191 1.363 . S
C1194 N1192 1.356 . S
C1195 C1189 1.363 . S
C1195 C1190 1.379 . S
C1195 N1193 1.356 . S
N1196 C1188 1.356 . S
N1196 H1202 0.984 . S
N1196 H1203 0.984 . S
N1197 C1190 1.356 . S
N1197 H1200 0.984 . S
N1197 H1201 0.985 . S
H1198 N1193 0.984 . S
H1199 N1193 0.985 . S
H1200 N1197 0.984 . S
H1201 N1197 0.985 . S
H1202 N1196 0.984 . S
H1203 N1196 0.984 . S
H1204 N1192 0.984 . S
H1205 N1192 0.985 . S
C1206 C1207 1.363 . S
C1206 C1212 1.379 . S
C1206 N1214 1.356 . S
C1207 C1206 1.363 . S
C1207 C1213 1.363 . S
C1208 C1209 1.363 . S
C1208 C1213 1.379 . S
C1208 N1215 1.356 . S
C1209 C1208 1.363 . S
C1209 C1212 1.363 . S
N1210 C1212 1.356 . S
N1210 H1222 0.984 . S
N1210 H1223 0.985 . S
N1211 C1213 1.356 . S
N1211 H1216 0.984 . S
N1211 H1217 0.985 . S
C1212 C1206 1.379 . S
C1212 C1209 1.363 . S
C1212 N1210 1.356 . S
C1213 C1207 1.363 . S
C1213 C1208 1.379 . S
C1213 N1211 1.356 . S
N1214 C1206 1.356 . S
N1214 H1220 0.984 . S
N1214 H1221 0.984 . S
N1215 C1208 1.356 . S
N1215 H1218 0.984 . S
N1215 H1219 0.985 . S
H1216 N1211 0.984 . S
H1217 N1211 0.985 . S
H1218 N1215 0.984 . S
H1219 N1215 0.985 . S
H1220 N1214 0.984 . S
H1221 N1214 0.984 . S
H1222 N1210 0.984 . S
H1223 N1210 0.985 . S
C1224 C1225 1.363 . S
C1224 C1230 1.379 . S
C1224 N1232 1.356 . S
C1225 C1224 1.363 . S
C1225 C1231 1.363 . S
C1226 C1227 1.363 . S
C1226 C1231 1.379 . S
C1226 N1233 1.356 . S
C1227 C1226 1.363 . S
C1227 C1230 1.363 . S
N1228 C1230 1.356 . S
N1228 H1240 0.984 . S
N1228 H1241 0.985 . S
N1229 C1231 1.356 . S
N1229 H1234 0.984 . S
N1229 H1235 0.985 . S
C1230 C1224 1.379 . S
C1230 C1227 1.363 . S
C1230 N1228 1.356 . S
C1231 C1225 1.363 . S
C1231 C1226 1.379 . S
C1231 N1229 1.356 . S
N1232 C1224 1.356 . S
N1232 H1238 0.984 . S
N1232 H1239 0.984 . S
N1233 C1226 1.356 . S
N1233 H1236 0.984 . S
N1233 H1237 0.985 . S
H1234 N1229 0.984 . S
H1235 N1229 0.985 . S
H1236 N1233 0.984 . S
H1237 N1233 0.985 . S
H1238 N1232 0.984 . S
H1239 N1232 0.984 . S
H1240 N1228 0.984 . S
H1241 N1228 0.985 . S
C1242 C1243 1.363 . S
C1242 C1248 1.379 . S
C1242 N1250 1.356 . S
C1243 C1242 1.363 . S
C1243 C1249 1.363 . S
C1244 C1245 1.363 . S
C1244 C1249 1.379 . S
C1244 N1251 1.356 . S
C1245 C1244 1.363 . S
C1245 C1248 1.363 . S
N1246 C1248 1.356 . S
N1246 H1258 0.984 . S
N1246 H1259 0.985 . S
N1247 C1249 1.356 . S
N1247 H1252 0.984 . S
N1247 H1253 0.985 . S
C1248 C1242 1.379 . S
C1248 C1245 1.363 . S
C1248 N1246 1.356 . S
C1249 C1243 1.363 . S
C1249 C1244 1.379 . S
C1249 N1247 1.356 . S
N1250 C1242 1.356 . S
N1250 H1256 0.984 . S
N1250 H1257 0.984 . S
N1251 C1244 1.356 . S
N1251 H1254 0.984 . S
N1251 H1255 0.985 . S
H1252 N1247 0.984 . S
H1253 N1247 0.985 . S
H1254 N1251 0.984 . S
H1255 N1251 0.985 . S
H1256 N1250 0.984 . S
H1257 N1250 0.984 . S
H1258 N1246 0.984 . S
H1259 N1246 0.985 . S
C1260 C1261 1.363 . S
C1260 C1266 1.379 . S
C1260 N1268 1.356 . S
C1261 C1260 1.363 . S
C1261 C1267 1.363 . S
C1262 C1263 1.363 . S
C1262 C1267 1.379 . S
C1262 N1269 1.356 . S
C1263 C1262 1.363 . S
C1263 C1266 1.363 . S
N1264 C1266 1.356 . S
N1264 H1276 0.984 . S
N1264 H1277 0.985 . S
N1265 C1267 1.356 . S
N1265 H1270 0.984 . S
N1265 H1271 0.985 . S
C1266 C1260 1.379 . S
C1266 C1263 1.363 . S
C1266 N1264 1.356 . S
C1267 C1261 1.363 . S
C1267 C1262 1.379 . S
C1267 N1265 1.356 . S
N1268 C1260 1.356 . S
N1268 H1274 0.984 . S
N1268 H1275 0.984 . S
N1269 C1262 1.356 . S
N1269 H1272 0.984 . S
N1269 H1273 0.985 . S
H1270 N1265 0.984 . S
H1271 N1265 0.985 . S
H1272 N1269 0.984 . S
H1273 N1269 0.985 . S
H1274 N1268 0.984 . S
H1275 N1268 0.984 . S
H1276 N1264 0.984 . S
H1277 N1264 0.985 . S
C1278 C1279 1.363 . S
C1278 C1284 1.379 . S
C1278 N1286 1.356 . S
C1279 C1278 1.363 . S
C1279 C1285 1.363 . S
C1280 C1281 1.363 . S
C1280 C1285 1.379 . S
C1280 N1287 1.356 . S
C1281 C1280 1.363 . S
C1281 C1284 1.363 . S
N1282 C1284 1.356 . S
N1282 H1294 0.984 1_554 S
N1282 H1295 0.985 . S
N1283 C1285 1.356 . S
N1283 H1288 0.984 . S
N1283 H1289 0.985 . S
C1284 C1278 1.379 . S
C1284 C1281 1.363 . S
C1284 N1282 1.356 . S
C1285 C1279 1.363 . S
C1285 C1280 1.379 . S
C1285 N1283 1.356 . S
N1286 C1278 1.356 . S
N1286 H1292 0.998 . S
N1286 H1293 0.984 . S
N1287 C1280 1.356 . S
N1287 H1290 0.984 . S
N1287 H1291 0.985 . S
H1288 N1283 0.984 . S
H1289 N1283 0.985 . S
H1290 N1287 0.984 . S
H1291 N1287 0.985 . S
H1292 N1286 0.998 . S
H1293 N1286 0.984 . S
H1294 N1282 0.984 1_556 S
H1295 N1282 0.985 . S
C1296 C1297 1.363 . S
C1296 C1302 1.379 . S
C1296 N1304 1.356 . S
C1297 C1296 1.363 . S
C1297 C1303 1.363 . S
C1298 C1299 1.363 . S
C1298 C1303 1.379 . S
C1298 N1305 1.356 . S
C1299 C1298 1.363 . S
C1299 C1302 1.363 . S
N1300 C1302 1.356 . S
N1300 H1312 0.984 . S
N1300 H1313 0.985 . S
N1301 C1303 1.356 . S
N1301 H1306 0.984 . S
N1301 H1307 0.985 . S
C1302 C1296 1.379 . S
C1302 C1299 1.363 . S
C1302 N1300 1.356 . S
C1303 C1297 1.363 . S
C1303 C1298 1.379 . S
C1303 N1301 1.356 . S
N1304 C1296 1.356 . S
N1304 H1310 0.984 . S
N1304 H1311 0.984 . S
N1305 C1298 1.356 . S
N1305 H1308 0.984 . S
N1305 H1309 0.985 . S
H1306 N1301 0.984 . S
H1307 N1301 0.985 . S
H1308 N1305 0.984 . S
H1309 N1305 0.985 . S
H1310 N1304 0.984 . S
H1311 N1304 0.984 . S
H1312 N1300 0.984 . S
H1313 N1300 0.985 . S
C1314 C1315 1.363 . S
C1314 C1320 1.379 . S
C1314 N1322 1.356 . S
C1315 C1314 1.363 . S
C1315 C1321 1.363 . S
C1316 C1317 1.363 . S
C1316 C1321 1.379 . S
C1316 N1323 1.356 . S
C1317 C1316 1.363 . S
C1317 C1320 1.363 . S
N1318 C1320 1.356 . S
N1318 H1330 0.984 . S
N1318 H1331 0.985 . S
N1319 C1321 1.356 . S
N1319 H1324 0.984 . S
N1319 H1325 0.985 . S
C1320 C1314 1.379 . S
C1320 C1317 1.363 . S
C1320 N1318 1.356 . S
C1321 C1315 1.363 . S
C1321 C1316 1.379 . S
C1321 N1319 1.356 . S
N1322 C1314 1.356 . S
N1322 H1328 0.984 . S
N1322 H1329 0.984 . S
N1323 C1316 1.356 . S
N1323 H1326 0.984 . S
N1323 H1327 0.985 . S
H1324 N1319 0.984 . S
H1325 N1319 0.985 . S
H1326 N1323 0.984 . S
H1327 N1323 0.985 . S
H1328 N1322 0.984 . S
H1329 N1322 0.984 . S
H1330 N1318 0.984 . S
H1331 N1318 0.985 . S
C1332 C1333 1.363 . S
C1332 C1338 1.379 . S
C1332 N1340 1.356 . S
C1333 C1332 1.363 . S
C1333 C1339 1.363 . S
C1334 C1335 1.363 . S
C1334 C1339 1.379 . S
C1334 N1341 1.356 . S
C1335 C1334 1.363 . S
C1335 C1338 1.363 . S
N1336 C1338 1.356 . S
N1336 H1348 0.984 . S
N1336 H1349 0.985 . S
N1337 C1339 1.356 . S
N1337 H1342 0.984 . S
N1337 H1343 0.985 . S
C1338 C1332 1.379 . S
C1338 C1335 1.363 . S
C1338 N1336 1.356 . S
C1339 C1333 1.363 . S
C1339 C1334 1.379 . S
C1339 N1337 1.356 . S
N1340 C1332 1.356 . S
N1340 H1346 0.984 . S
N1340 H1347 0.984 . S
N1341 C1334 1.356 . S
N1341 H1344 0.984 . S
N1341 H1345 0.985 . S
H1342 N1337 0.984 . S
H1343 N1337 0.985 . S
H1344 N1341 0.984 . S
H1345 N1341 0.985 . S
H1346 N1340 0.984 . S
H1347 N1340 0.984 . S
H1348 N1336 0.984 . S
H1349 N1336 0.985 . S
C1350 C1351 1.363 . S
C1350 C1356 1.379 . S
C1350 N1358 1.356 . S
C1351 C1350 1.363 . S
C1351 C1357 1.363 . S
C1352 C1353 1.363 . S
C1352 C1357 1.379 . S
C1352 N1359 1.356 . S
C1353 C1352 1.363 . S
C1353 C1356 1.363 . S
N1354 C1356 1.356 . S
N1354 H1366 0.984 . S
N1354 H1367 0.985 . S
N1355 C1357 1.356 . S
N1355 H1360 0.984 . S
N1355 H1361 0.985 . S
C1356 C1350 1.379 . S
C1356 C1353 1.363 . S
C1356 N1354 1.356 . S
C1357 C1351 1.363 . S
C1357 C1352 1.379 . S
C1357 N1355 1.356 . S
N1358 C1350 1.356 . S
N1358 H1364 0.984 . S
N1358 H1365 0.984 . S
N1359 C1352 1.356 . S
N1359 H1362 0.984 . S
N1359 H1363 0.985 . S
H1360 N1355 0.984 . S
H1361 N1355 0.985 . S
H1362 N1359 0.984 . S
H1363 N1359 0.985 . S
H1364 N1358 0.984 . S
H1365 N1358 0.984 . S
H1366 N1354 0.984 . S
H1367 N1354 0.985 . S
C1368 C1369 1.363 1_655 S
C1368 C1374 1.379 . S
C1368 N1376 1.356 . S
C1369 C1368 1.363 1_455 S
C1369 C1375 1.363 . S
C1370 C1371 1.363 . S
C1370 C1375 1.379 1_556 S
C1370 N1377 1.356 . S
C1371 C1370 1.363 . S
C1371 C1374 1.363 1_456 S
N1372 C1374 1.356 1_556 S
N1372 H1384 0.984 1_556 S
N1372 H1385 0.985 . S
N1373 C1375 1.356 . S
N1373 H1378 0.984 . S
N1373 H1379 0.985 . S
C1374 C1368 1.379 . S
C1374 C1371 1.363 1_654 S
C1374 N1372 1.356 1_554 S
C1375 C1369 1.363 . S
C1375 C1370 1.379 1_554 S
C1375 N1373 1.356 . S
N1376 C1368 1.356 . S
N1376 H1382 0.984 . S
N1376 H1383 0.984 . S
N1377 C1370 1.356 . S
N1377 H1380 0.984 . S
N1377 H1381 0.985 . S
H1378 N1373 0.984 . S
H1379 N1373 0.985 . S
H1380 N1377 0.984 . S
H1381 N1377 0.985 . S
H1382 N1376 0.984 . S
H1383 N1376 0.984 . S
H1384 N1372 0.984 1_554 S
H1385 N1372 0.985 . S
C1386 C1387 1.363 . S
C1386 C1392 1.379 1_554 S
C1386 N1394 1.356 . S
C1387 C1386 1.363 . S
C1387 C1393 1.363 . S
C1388 C1389 1.363 . S
C1388 C1393 1.379 1_556 S
C1388 N1395 1.356 . S
C1389 C1388 1.363 . S
C1389 C1392 1.363 . S
N1390 C1392 1.356 . S
N1390 H1402 0.984 . S
N1390 H1403 0.985 . S
N1391 C1393 1.356 . S
N1391 H1396 0.984 . S
N1391 H1397 0.985 . S
C1392 C1386 1.379 1_556 S
C1392 C1389 1.363 . S
C1392 N1390 1.356 . S
C1393 C1387 1.363 . S
C1393 C1388 1.379 1_554 S
C1393 N1391 1.356 . S
N1394 C1386 1.356 . S
N1394 H1400 0.984 . S
N1394 H1401 0.984 . S
N1395 C1388 1.356 . S
N1395 H1398 0.984 . S
N1395 H1399 0.985 . S
H1396 N1391 0.984 . S
H1397 N1391 0.985 . S
H1398 N1395 0.984 . S
H1399 N1395 0.985 . S
H1400 N1394 0.984 . S
H1401 N1394 0.984 . S
H1402 N1390 0.984 . S
H1403 N1390 0.985 . S
C1404 C1405 1.363 1_556 S
C1404 C1410 1.379 . S
C1404 N1412 1.356 1_556 S
C1405 C1404 1.363 1_554 S
C1405 C1411 1.363 1_565 S
C1406 C1407 1.378 . S
C1406 C1411 1.364 1_556 S
C1406 N1413 1.361 . S
C1407 C1406 1.378 . S
C1407 C1410 1.363 1_545 S
N1408 C1410 1.356 . S
N1408 H1420 0.984 . S
N1408 H1421 0.985 . S
N1409 C1411 1.356 . S
N1409 H1414 0.984 . S
N1409 H1415 0.985 . S
C1410 C1404 1.379 . S
C1410 C1407 1.363 1_565 S
C1410 N1408 1.356 . S
C1411 C1405 1.363 1_545 S
C1411 C1406 1.364 1_554 S
C1411 N1409 1.356 . S
N1412 C1404 1.356 1_554 S
N1412 H1418 0.984 1_554 S
N1412 H1419 0.984 . S
N1413 C1406 1.361 . S
N1413 H1416 0.984 . S
N1413 H1417 0.985 1_556 S
H1414 N1409 0.984 . S
H1415 N1409 0.985 . S
H1416 N1413 0.984 . S
H1417 N1413 0.985 1_554 S
H1418 N1412 0.984 1_556 S
H1419 N1412 0.984 . S
H1420 N1408 0.984 . S
H1421 N1408 0.985 . S
C1422 C1423 1.363 1_554 S
C1422 C1428 1.379 . S
C1422 N1430 1.356 . S
C1423 C1422 1.363 1_556 S
C1423 C1429 1.363 1_455 S
C1424 C1425 1.353 1_655 S
C1424 C1429 1.379 1_554 S
C1424 N1431 1.356 . S
C1425 C1424 1.353 1_455 S
C1425 C1428 1.383 . S
N1426 C1428 1.356 . S
N1426 H1438 0.984 . S
N1426 H1439 0.985 . S
N1427 C1429 1.356 . S
N1427 H1432 0.984 . S
N1427 H1433 0.985 . S
C1428 C1422 1.379 . S
C1428 C1425 1.383 . S
C1428 N1426 1.356 . S
C1429 C1423 1.363 1_655 S
C1429 C1424 1.379 1_556 S
C1429 N1427 1.356 . S
N1430 C1422 1.356 . S
N1430 H1436 0.984 . S
N1430 H1437 0.984 1_554 S
N1431 C1424 1.356 . S
N1431 H1434 0.984 . S
N1431 H1435 0.985 . S
H1432 N1427 0.984 . S
H1433 N1427 0.985 . S
H1434 N1431 0.984 . S
H1435 N1431 0.985 . S
H1436 N1430 0.984 . S
H1437 N1430 0.984 1_556 S
H1438 N1426 0.984 . S
H1439 N1426 0.985 . S
C1440 C1441 1.363 . S
C1440 C1446 1.376 1_554 S
C1440 N1448 1.356 . S
C1441 C1440 1.363 . S
C1441 C1447 1.363 . S
C1442 C1443 1.363 1_554 S
C1442 C1447 1.379 . S
C1442 N1449 1.356 . S
C1443 C1442 1.363 1_556 S
C1443 C1446 1.363 . S
N1444 C1446 1.359 . S
N1444 H1456 0.984 . S
N1444 H1457 0.985 . S
N1445 C1447 1.356 . S
N1445 H1450 0.984 . S
N1445 H1451 0.985 . S
C1446 C1440 1.376 1_556 S
C1446 C1443 1.363 . S
C1446 N1444 1.359 . S
C1447 C1441 1.363 . S
C1447 C1442 1.379 . S
C1447 N1445 1.356 . S
N1448 C1440 1.356 . S
N1448 H1454 0.984 . S
N1448 H1455 0.984 . S
N1449 C1442 1.356 . S
N1449 H1452 0.984 1_554 S
N1449 H1453 0.985 . S
H1450 N1445 0.984 . S
H1451 N1445 0.985 . S
H1452 N1449 0.984 1_556 S
H1453 N1449 0.985 . S
H1454 N1448 0.984 . S
H1455 N1448 0.984 . S
H1456 N1444 0.984 . S
H1457 N1444 0.985 . S
C1458 C1459 1.363 1_545 S
C1458 C1464 1.379 1_554 S
C1458 N1466 1.356 . S
C1459 C1458 1.363 1_565 S
C1459 C1465 1.363 . S
C1460 C1461 1.363 1_554 S
C1460 C1465 1.379 1_545 S
C1460 N1467 1.356 1_554 S
C1461 C1460 1.363 1_556 S
C1461 C1464 1.363 . S
N1462 C1464 1.356 . S
N1462 H1474 0.984 . S
N1462 H1475 0.985 . S
N1463 C1465 1.356 . S
N1463 H1468 0.984 . S
N1463 H1469 0.985 . S
C1464 C1458 1.379 1_556 S
C1464 C1461 1.363 . S
C1464 N1462 1.356 . S
C1465 C1459 1.363 . S
C1465 C1460 1.379 1_565 S
C1465 N1463 1.356 . S
N1466 C1458 1.356 . S
N1466 H1472 0.984 . S
N1466 H1473 0.984 . S
N1467 C1460 1.356 1_556 S
N1467 H1470 0.984 . S
N1467 H1471 0.985 1_546 S
H1468 N1463 0.984 . S
H1469 N1463 0.985 . S
H1470 N1467 0.984 . S
H1471 N1467 0.985 1_564 S
H1472 N1466 0.984 . S
H1473 N1466 0.984 . S
H1474 N1462 0.984 . S
H1475 N1462 0.985 . S
C1476 C1477 1.363 . S
C1476 C1482 1.379 . S
C1476 N1484 1.356 . S
C1477 C1476 1.363 . S
C1477 C1483 1.363 . S
C1478 C1479 1.363 . S
C1478 C1483 1.379 . S
C1478 N1485 1.356 . S
C1479 C1478 1.363 . S
C1479 C1482 1.363 . S
N1480 C1482 1.356 . S
N1480 H1492 0.984 . S
N1480 H1493 0.985 . S
N1481 C1483 1.356 . S
N1481 H1486 0.984 . S
N1481 H1487 0.985 . S
C1482 C1476 1.379 . S
C1482 C1479 1.363 . S
C1482 N1480 1.356 . S
C1483 C1477 1.363 . S
C1483 C1478 1.379 . S
C1483 N1481 1.356 . S
N1484 C1476 1.356 . S
N1484 H1490 0.984 . S
N1484 H1491 0.984 . S
N1485 C1478 1.356 . S
N1485 H1488 0.984 . S
N1485 H1489 0.985 . S
H1486 N1481 0.984 . S
H1487 N1481 0.985 . S
H1488 N1485 0.984 . S
H1489 N1485 0.985 . S
H1490 N1484 0.984 . S
H1491 N1484 0.984 . S
H1492 N1480 0.984 . S
H1493 N1480 0.985 . S
C1494 C1495 1.363 . S
C1494 C1500 1.379 . S
C1494 N1502 1.356 . S
C1495 C1494 1.363 . S
C1495 C1501 1.363 . S
C1496 C1497 1.363 . S
C1496 C1501 1.379 . S
C1496 N1503 1.356 . S
C1497 C1496 1.363 . S
C1497 C1500 1.363 . S
N1498 C1500 1.356 . S
N1498 H1510 0.984 . S
N1498 H1511 0.985 . S
N1499 C1501 1.356 . S
N1499 H1504 0.984 . S
N1499 H1505 0.985 . S
C1500 C1494 1.379 . S
C1500 C1497 1.363 . S
C1500 N1498 1.356 . S
C1501 C1495 1.363 . S
C1501 C1496 1.379 . S
C1501 N1499 1.356 . S
N1502 C1494 1.356 . S
N1502 H1508 0.984 . S
N1502 H1509 0.984 . S
N1503 C1496 1.356 . S
N1503 H1506 0.984 . S
N1503 H1507 0.985 . S
H1504 N1499 0.984 . S
H1505 N1499 0.985 . S
H1506 N1503 0.984 . S
H1507 N1503 0.985 . S
H1508 N1502 0.984 . S
H1509 N1502 0.984 . S
H1510 N1498 0.984 . S
H1511 N1498 0.985 . S
C1512 C1513 1.363 . S
C1512 C1518 1.379 . S
C1512 N1520 1.356 . S
C1513 C1512 1.363 . S
C1513 C1519 1.363 . S
C1514 C1515 1.363 . S
C1514 C1519 1.379 . S
C1514 N1521 1.356 . S
C1515 C1514 1.363 . S
C1515 C1518 1.363 . S
N1516 C1518 1.356 . S
N1516 H1528 0.984 . S
N1516 H1529 0.985 . S
N1517 C1519 1.356 . S
N1517 H1522 0.984 . S
N1517 H1523 0.985 . S
C1518 C1512 1.379 . S
C1518 C1515 1.363 . S
C1518 N1516 1.356 . S
C1519 C1513 1.363 . S
C1519 C1514 1.379 . S
C1519 N1517 1.356 . S
N1520 C1512 1.356 . S
N1520 H1526 0.984 . S
N1520 H1527 0.984 . S
N1521 C1514 1.356 . S
N1521 H1524 0.984 . S
N1521 H1525 0.985 . S
H1522 N1517 0.984 . S
H1523 N1517 0.985 . S
H1524 N1521 0.984 . S
H1525 N1521 0.985 . S
H1526 N1520 0.984 . S
H1527 N1520 0.984 . S
H1528 N1516 0.984 . S
H1529 N1516 0.985 . S
C1530 C1531 1.363 . S
C1530 C1536 1.379 . S
C1530 N1538 1.356 . S
C1531 C1530 1.363 . S
C1531 C1537 1.363 . S
C1532 C1533 1.363 . S
C1532 C1537 1.379 . S
C1532 N1539 1.356 . S
C1533 C1532 1.363 . S
C1533 C1536 1.363 . S
N1534 C1536 1.356 . S
N1534 H1546 0.984 . S
N1534 H1547 0.985 . S
N1535 C1537 1.356 . S
N1535 H1540 0.984 . S
N1535 H1541 0.985 . S
C1536 C1530 1.379 . S
C1536 C1533 1.363 . S
C1536 N1534 1.356 . S
C1537 C1531 1.363 . S
C1537 C1532 1.379 . S
C1537 N1535 1.356 . S
N1538 C1530 1.356 . S
N1538 H1544 0.984 . S
N1538 H1545 0.984 . S
N1539 C1532 1.356 . S
N1539 H1542 0.984 . S
N1539 H1543 0.985 . S
H1540 N1535 0.984 . S
H1541 N1535 0.985 . S
H1542 N1539 0.984 . S
H1543 N1539 0.985 . S
H1544 N1538 0.984 . S
H1545 N1538 0.984 . S
H1546 N1534 0.984 . S
H1547 N1534 0.985 . S
C1548 C1549 1.363 . S
C1548 C1554 1.379 . S
C1548 N1556 1.356 . S
C1549 C1548 1.363 . S
C1549 C1555 1.363 . S
C1550 C1551 1.363 . S
C1550 C1555 1.379 . S
C1550 N1557 1.356 . S
C1551 C1550 1.363 . S
C1551 C1554 1.363 . S
N1552 C1554 1.356 . S
N1552 H1564 0.984 . S
N1552 H1565 0.985 . S
N1553 C1555 1.356 . S
N1553 H1558 0.984 . S
N1553 H1559 0.985 . S
C1554 C1548 1.379 . S
C1554 C1551 1.363 . S
C1554 N1552 1.356 . S
C1555 C1549 1.363 . S
C1555 C1550 1.379 . S
C1555 N1553 1.356 . S
N1556 C1548 1.356 . S
N1556 H1562 0.984 . S
N1556 H1563 0.984 . S
N1557 C1550 1.356 . S
N1557 H1560 0.984 . S
N1557 H1561 0.985 . S
H1558 N1553 0.984 . S
H1559 N1553 0.985 . S
H1560 N1557 0.984 . S
H1561 N1557 0.985 . S
H1562 N1556 0.984 . S
H1563 N1556 0.984 . S
H1564 N1552 0.984 . S
H1565 N1552 0.985 . S
C1566 C1567 1.363 . S
C1566 C1572 1.379 . S
C1566 N1574 1.356 . S
C1567 C1566 1.363 . S
C1567 C1573 1.363 . S
C1568 C1569 1.363 . S
C1568 C1573 1.379 . S
C1568 N1575 1.356 . S
C1569 C1568 1.363 . S
C1569 C1572 1.363 . S
N1570 C1572 1.356 . S
N1570 H1582 0.984 . S
N1570 H1583 0.985 . S
N1571 C1573 1.356 . S
N1571 H1576 0.984 . S
N1571 H1577 0.985 . S
C1572 C1566 1.379 . S
C1572 C1569 1.363 . S
C1572 N1570 1.356 . S
C1573 C1567 1.363 . S
C1573 C1568 1.379 . S
C1573 N1571 1.356 . S
N1574 C1566 1.356 . S
N1574 H1580 0.984 . S
N1574 H1581 0.984 . S
N1575 C1568 1.356 . S
N1575 H1578 0.984 . S
N1575 H1579 0.985 . S
H1576 N1571 0.984 . S
H1577 N1571 0.985 . S
H1578 N1575 0.984 . S
H1579 N1575 0.985 . S
H1580 N1574 0.984 . S
H1581 N1574 0.984 . S
H1582 N1570 0.984 . S
H1583 N1570 0.985 . S
C1584 C1585 1.363 . S
C1584 C1590 1.379 . S
C1584 N1592 1.356 . S
C1585 C1584 1.363 . S
C1585 C1591 1.363 . S
C1586 C1587 1.363 . S
C1586 C1591 1.379 . S
C1586 N1593 1.356 . S
C1587 C1586 1.363 . S
C1587 C1590 1.363 . S
N1588 C1590 1.356 . S
N1588 H1600 0.984 . S
N1588 H1601 0.985 . S
N1589 C1591 1.356 . S
N1589 H1594 0.984 . S
N1589 H1595 0.985 . S
C1590 C1584 1.379 . S
C1590 C1587 1.363 . S
C1590 N1588 1.356 . S
C1591 C1585 1.363 . S
C1591 C1586 1.379 . S
C1591 N1589 1.356 . S
N1592 C1584 1.356 . S
N1592 H1598 0.984 . S
N1592 H1599 0.984 . S
N1593 C1586 1.356 . S
N1593 H1596 0.984 . S
N1593 H1597 0.985 . S
H1594 N1589 0.984 . S
H1595 N1589 0.985 . S
H1596 N1593 0.984 . S
H1597 N1593 0.985 . S
H1598 N1592 0.984 . S
H1599 N1592 0.984 . S
H1600 N1588 0.984 . S
H1601 N1588 0.985 . S
C1602 C1603 1.363 . S
C1602 C1608 1.379 . S
C1602 N1610 1.356 . S
C1603 C1602 1.363 . S
C1603 C1609 1.363 . S
C1604 C1605 1.363 . S
C1604 C1609 1.379 . S
C1604 N1611 1.356 . S
C1605 C1604 1.363 . S
C1605 C1608 1.363 . S
N1606 C1608 1.356 . S
N1606 H1618 0.984 . S
N1606 H1619 0.985 . S
N1607 C1609 1.356 . S
N1607 H1612 0.984 . S
N1607 H1613 0.985 . S
C1608 C1602 1.379 . S
C1608 C1605 1.363 . S
C1608 N1606 1.356 . S
C1609 C1603 1.363 . S
C1609 C1604 1.379 . S
C1609 N1607 1.356 . S
N1610 C1602 1.356 . S
N1610 H1616 0.984 . S
N1610 H1617 0.984 . S
N1611 C1604 1.356 . S
N1611 H1614 0.984 . S
N1611 H1615 0.985 . S
H1612 N1607 0.984 . S
H1613 N1607 0.985 . S
H1614 N1611 0.984 . S
H1615 N1611 0.985 . S
H1616 N1610 0.984 . S
H1617 N1610 0.984 . S
H1618 N1606 0.984 . S
H1619 N1606 0.985 . S
C1620 C1621 1.363 . S
C1620 C1626 1.379 . S
C1620 N1628 1.356 . S
C1621 C1620 1.363 . S
C1621 C1627 1.363 . S
C1622 C1623 1.363 . S
C1622 C1627 1.379 . S
C1622 N1629 1.356 . S
C1623 C1622 1.363 . S
C1623 C1626 1.363 . S
N1624 C1626 1.356 . S
N1624 H1636 0.984 . S
N1624 H1637 0.985 . S
N1625 C1627 1.356 . S
N1625 H1630 0.984 . S
N1625 H1631 0.985 . S
C1626 C1620 1.379 . S
C1626 C1623 1.363 . S
C1626 N1624 1.356 . S
C1627 C1621 1.363 . S
C1627 C1622 1.379 . S
C1627 N1625 1.356 . S
N1628 C1620 1.356 . S
N1628 H1634 0.984 . S
N1628 H1635 0.984 . S
N1629 C1622 1.356 . S
N1629 H1632 0.984 . S
N1629 H1633 0.985 . S
H1630 N1625 0.984 . S
H1631 N1625 0.985 . S
H1632 N1629 0.984 . S
H1633 N1629 0.985 . S
H1634 N1628 0.984 . S
H1635 N1628 0.984 . S
H1636 N1624 0.984 . S
H1637 N1624 0.985 . S
C1638 C1639 1.363 . S
C1638 C1644 1.379 . S
C1638 N1646 1.356 . S
C1639 C1638 1.363 . S
C1639 C1645 1.363 . S
C1640 C1641 1.363 . S
C1640 C1645 1.379 . S
C1640 N1647 1.356 . S
C1641 C1640 1.363 . S
C1641 C1644 1.363 . S
N1642 C1644 1.356 . S
N1642 H1654 0.984 . S
N1642 H1655 0.985 . S
N1643 C1645 1.356 . S
N1643 H1648 0.984 . S
N1643 H1649 0.985 . S
C1644 C1638 1.379 . S
C1644 C1641 1.363 . S
C1644 N1642 1.356 . S
C1645 C1639 1.363 . S
C1645 C1640 1.379 . S
C1645 N1643 1.356 . S
N1646 C1638 1.356 . S
N1646 H1652 0.984 . S
N1646 H1653 0.984 . S
N1647 C1640 1.356 . S
N1647 H1650 0.984 . S
N1647 H1651 0.985 . S
H1648 N1643 0.984 . S
H1649 N1643 0.985 . S
H1650 N1647 0.984 . S
H1651 N1647 0.985 . S
H1652 N1646 0.984 . S
H1653 N1646 0.984 . S
H1654 N1642 0.984 . S
H1655 N1642 0.985 . S
C1656 C1657 1.363 . S
C1656 C1662 1.379 . S
C1656 N1664 1.356 . S
C1657 C1656 1.363 . S
C1657 C1663 1.363 . S
C1658 C1659 1.363 . S
C1658 C1663 1.379 . S
C1658 N1665 1.356 . S
C1659 C1658 1.363 . S
C1659 C1662 1.363 . S
N1660 C1662 1.356 . S
N1660 H1672 0.984 . S
N1660 H1673 0.985 . S
N1661 C1663 1.356 . S
N1661 H1666 0.984 . S
N1661 H1667 0.985 . S
C1662 C1656 1.379 . S
C1662 C1659 1.363 . S
C1662 N1660 1.356 . S
C1663 C1657 1.363 . S
C1663 C1658 1.379 . S
C1663 N1661 1.356 . S
N1664 C1656 1.356 . S
N1664 H1670 0.984 . S
N1664 H1671 0.984 . S
N1665 C1658 1.356 . S
N1665 H1668 0.984 . S
N1665 H1669 0.985 . S
H1666 N1661 0.984 . S
H1667 N1661 0.985 . S
H1668 N1665 0.984 . S
H1669 N1665 0.985 . S
H1670 N1664 0.984 . S
H1671 N1664 0.984 . S
H1672 N1660 0.984 . S
H1673 N1660 0.985 . S
C1674 C1675 1.363 . S
C1674 C1680 1.379 . S
C1674 N1682 1.356 . S
C1675 C1674 1.363 . S
C1675 C1681 1.363 . S
C1676 C1677 1.363 . S
C1676 C1681 1.379 . S
C1676 N1683 1.356 . S
C1677 C1676 1.363 . S
C1677 C1680 1.363 . S
N1678 C1680 1.356 . S
N1678 H1690 0.984 . S
N1678 H1691 0.985 . S
N1679 C1681 1.356 . S
N1679 H1684 0.984 . S
N1679 H1685 0.985 . S
C1680 C1674 1.379 . S
C1680 C1677 1.363 . S
C1680 N1678 1.356 . S
C1681 C1675 1.363 . S
C1681 C1676 1.379 . S
C1681 N1679 1.356 . S
N1682 C1674 1.356 . S
N1682 H1688 0.984 . S
N1682 H1689 0.984 . S
N1683 C1676 1.356 . S
N1683 H1686 0.984 . S
N1683 H1687 0.985 . S
H1684 N1679 0.984 . S
H1685 N1679 0.985 . S
H1686 N1683 0.984 . S
H1687 N1683 0.985 . S
H1688 N1682 0.984 . S
H1689 N1682 0.984 . S
H1690 N1678 0.984 . S
H1691 N1678 0.985 . S
C721 C539 2.511 . S
C723 C19 2.523 . S
C739 C58 2.049 . S
C741 C578 2.044 . S
C757 C99 2.289 . S
C759 C498 2.326 . S
C775 C98 1.892 . S
C777 C298 1.893 . S
C793 C338 2.207 . S
C795 C18 2.198 . S
C811 C59 2.368 . S
C813 C258 2.410 . S
C829 C130 2.286 . S
C831 C409 2.303 . S
C847 C169 1.756 . S
C849 C449 1.754 . S
C865 C369 2.015 . S
C867 C210 1.972 . S
C883 C649 2.059 . S
C885 C209 2.064 . S
C901 C129 2.320 . S
C903 C690 2.293 . S
C919 C610 2.540 . S
C921 C170 2.508 . S
C937 C339 2.167 . S
C939 C538 2.213 . S
C955 C259 2.406 . S
C957 C579 2.394 . S
C973 C299 2.665 . S
C975 C499 2.692 . S
C991 C370 2.804 . S
C993 C650 2.792 . S
C1009 C689 2.346 . S
C1011 C410 2.327 . S
C1027 C609 2.636 . S
C1029 C450 2.597 . S
C1045 C9 1.450 . S
C1047 C178 1.449 . S
C1063 C219 1.893 . S
C1065 C50 1.896 . S
C1081 C139 1.684 . S
C1083 C89 1.530 . S
C1099 C179 1.918 . S
C1101 C90 1.971 . S
C1117 C218 1.694 . S
C1119 C10 1.734 . S
C1135 C138 1.534 . S
C1137 C49 1.594 . S
C1153 C419 1.987 . S
C1155 C250 1.974 . S
C1171 C459 2.057 . S
C1173 C290 2.045 . S
C1189 C379 2.082 . S
C1191 C330 1.967 . S
C1207 C418 1.515 . S
C1209 C329 1.518 . S
C1225 C458 1.440 . S
C1227 C249 1.582 . S
C1243 C378 1.464 . S
C1245 C289 1.476 . S
C1261 C658 1.587 . S
C1263 C489 1.528 . S
C1279 C699 1.965 . S
C1281 C530 1.913 . S
C1297 C569 1.689 . S
C1299 C619 1.727 . S
C1315 C570 2.082 . S
C1317 C659 2.087 . S
C1333 C490 1.836 . S
C1335 C698 1.682 . S
C1351 C618 1.559 . S
C1353 C529 1.557 . S
C1369 C15 1.398 . S
C1371 C6 1.389 . S
C1387 C46 1.531 . S
C1389 C55 1.531 . S
C1405 C95 1.394 . S
C1407 C86 1.394 . S
C1423 C126 1.502 . S
C1425 C135 1.497 1_455 S
C1441 C166 1.367 . S
C1443 C175 1.367 . S
C1459 C215 1.598 . S
C1461 C206 1.598 . S
C1477 C255 1.786 . S
C1479 C246 1.786 . S
C1495 C286 1.338 . S
C1497 C295 1.338 . S
C1513 C335 1.786 . S
C1515 C326 1.786 . S
C1531 C366 1.341 . S
C1533 C375 1.341 . S
C1549 C406 1.723 . S
C1551 C415 1.723 . S
C1567 C446 1.358 . S
C1569 C455 1.358 . S
C1585 C486 1.371 . S
C1587 C495 1.371 . S
C1603 C526 1.501 . S
C1605 C535 1.501 . S
C1621 C575 1.397 . S
C1623 C566 1.397 . S
C1639 C615 1.562 . S
C1641 C606 1.562 . S
C1657 C646 1.361 . S
C1659 C655 1.361 . S
C1675 C686 1.494 . S
C1677 C695 1.494 . S
