# Generated by pormake.
# Topology vbm, (6)-cn, num edge types: 1
# Building blocks:
#     Node 0, Type 0, BuildingBlock: FUNLAD_clean_sbu_0, # of connection points: 6
#     Node 1, Type 0, BuildingBlock: FUNLAD_clean_sbu_0, # of connection points: 6
#     Node 2, Type 0, BuildingBlock: FUNLAD_clean_sbu_0, # of connection points: 6
#     Node 3, Type 0, BuildingBlock: FUNLAD_clean_sbu_0, # of connection points: 6
#     Node 4, Type 0, BuildingBlock: FUNLAD_clean_sbu_0, # of connection points: 6
#     Node 5, Type 0, BuildingBlock: FUNLAD_clean_sbu_0, # of connection points: 6
#     Node 6, Type 0, BuildingBlock: FUNLAD_clean_sbu_0, # of connection points: 6
#     Node 7, Type 0, BuildingBlock: FUNLAD_clean_sbu_0, # of connection points: 6
#     Node 8, Type 0, BuildingBlock: FUNLAD_clean_sbu_0, # of connection points: 6
#     Node 9, Type 0, BuildingBlock: FUNLAD_clean_sbu_0, # of connection points: 6
#     Node 10, Type 0, BuildingBlock: FUNLAD_clean_sbu_0, # of connection points: 6
#     Node 11, Type 0, BuildingBlock: FUNLAD_clean_sbu_0, # of connection points: 6
#     Node 12, Type 0, BuildingBlock: FUNLAD_clean_sbu_0, # of connection points: 6
#     Node 13, Type 0, BuildingBlock: FUNLAD_clean_sbu_0, # of connection points: 6
#     Node 14, Type 0, BuildingBlock: FUNLAD_clean_sbu_0, # of connection points: 6
#     Node 15, Type 0, BuildingBlock: FUNLAD_clean_sbu_0, # of connection points: 6
#     Edge 16, Type (0, 0), None
#     Edge 17, Type (0, 0), None
#     Edge 18, Type (0, 0), None
#     Edge 19, Type (0, 0), None
#     Edge 20, Type (0, 0), None
#     Edge 21, Type (0, 0), None
#     Edge 22, Type (0, 0), None
#     Edge 23, Type (0, 0), None
#     Edge 24, Type (0, 0), None
#     Edge 25, Type (0, 0), None
#     Edge 26, Type (0, 0), None
#     Edge 27, Type (0, 0), None
#     Edge 28, Type (0, 0), None
#     Edge 29, Type (0, 0), None
#     Edge 30, Type (0, 0), None
#     Edge 31, Type (0, 0), None
#     Edge 32, Type (0, 0), None
#     Edge 33, Type (0, 0), None
#     Edge 34, Type (0, 0), None
#     Edge 35, Type (0, 0), None
#     Edge 36, Type (0, 0), None
#     Edge 37, Type (0, 0), None
#     Edge 38, Type (0, 0), None
#     Edge 39, Type (0, 0), None
#     Edge 40, Type (0, 0), None
#     Edge 41, Type (0, 0), None
#     Edge 42, Type (0, 0), None
#     Edge 43, Type (0, 0), None
#     Edge 44, Type (0, 0), None
#     Edge 45, Type (0, 0), None
#     Edge 46, Type (0, 0), None
#     Edge 47, Type (0, 0), None
#     Edge 48, Type (0, 0), None
#     Edge 49, Type (0, 0), None
#     Edge 50, Type (0, 0), None
#     Edge 51, Type (0, 0), None
#     Edge 52, Type (0, 0), None
#     Edge 53, Type (0, 0), None
#     Edge 54, Type (0, 0), None
#     Edge 55, Type (0, 0), None
#     Edge 56, Type (0, 0), None
#     Edge 57, Type (0, 0), None
#     Edge 58, Type (0, 0), None
#     Edge 59, Type (0, 0), None
#     Edge 60, Type (0, 0), None
#     Edge 61, Type (0, 0), None
#     Edge 62, Type (0, 0), None
#     Edge 63, Type (0, 0), None
# Relax obj value: 0.015
# Max RMSD: 0.076
# Mean RMSD: 0.076
data_MOF--net-vbm--node1-FUNLAD_clean_sbu_0--edge1-none
_symmetry_space_group_name_H-M    P1
_symmetry_Int_Tables_number       1
_symmetry_cell_setting            triclinic
loop_
_symmetry_equiv_pos_as_xyz
'x, y, z'
_cell_length_a     27.028989
_cell_length_b     6.8744168
_cell_length_c     53.372427
_cell_angle_alpha  90.021074
_cell_angle_beta   90.000025
_cell_angle_gamma 90.003202
loop_
_atom_site_label
_atom_site_type_symbol
_atom_site_fract_x
_atom_site_fract_y
_atom_site_fract_z
_atom_type_partial_charge
C0 C 0.09596 0.48299 0.15015 0.0
N1 N 0.09903 0.08827 0.09019 0.0
C2 C 0.07184 0.22344 0.07766 0.0
C3 C 0.07179 0.22805 0.05148 0.0
C4 C 0.09887 0.08866 0.03783 0.0
C5 C 0.12595 0.94895 0.0514 0.0
C6 C 0.12612 0.95334 0.07756 0.0
Zn7 Zn 0.09963 0.08683 0.12872 0.0
C8 C 0.19921 0.17545 0.14909 0.0
N9 N 0.10124 0.07275 0.2091 0.0
C10 C 0.06177 0.12834 0.22326 0.0
C11 C 0.14079 -0.01864 0.21965 0.0
C12 C 0.14164 0.9416 0.24526 0.0
C13 C 0.10092 -0.00783 0.26015 0.0
C14 C 0.06066 0.08773 0.24896 0.0
Zn15 Zn 0.09971 0.0884 0.17069 0.0
O16 O 0.09426 0.39085 0.12959 0.0
C17 C -0.00022 0.0073 0.1499 0.0
O18 O 0.09273 0.39348 0.17094 0.0
H19 H 0.17117 0.93268 0.20808 0.0
H20 H 0.05027 0.32911 0.08795 0.0
H21 H 0.03049 0.19922 0.21453 0.0
O22 O 0.022 0.03934 0.1293 0.0
O23 O 0.02234 0.03437 0.17051 0.0
H24 H 0.14789 0.84783 0.08774 0.0
O25 O 0.10661 0.78454 0.17015 0.0
O26 O 0.10487 0.78112 0.12898 0.0
O27 O 0.17701 0.146 0.16974 0.0
O28 O 0.17732 0.13734 0.12856 0.0
C29 C 0.10321 0.69182 0.14974 0.0
H30 H 0.05108 0.34171 0.04219 0.0
H31 H 0.14661 0.83528 0.04207 0.0
H32 H 0.17316 0.86627 0.2532 0.0
H33 H 0.02876 0.13033 0.25996 0.0
C34 C 0.85285 0.45498 0.14965 0.0
N35 N 0.84958 0.84924 0.08995 0.0
C36 C 0.88935 0.77637 0.07746 0.0
C37 C 0.89059 0.77709 0.05128 0.0
C38 C 0.84989 0.84853 0.0376 0.0
C39 C 0.80903 0.92003 0.05114 0.0
C40 C 0.80997 0.92168 0.0773 0.0
Zn41 Zn 0.84892 0.851 0.12846 0.0
C42 C 0.7494 0.7589 0.14905 0.0
N43 N 0.84731 0.86586 0.20899 0.0
C44 C 0.88673 0.80971 0.22315 0.0
C45 C 0.80784 0.95766 0.21958 0.0
C46 C 0.80699 -0.0031 0.24522 0.0
C47 C 0.84764 0.94565 0.26012 0.0
C48 C 0.88784 0.84996 0.24888 0.0
Zn49 Zn 0.84881 0.84975 0.17046 0.0
O50 O 0.85576 0.54719 0.12909 0.0
C51 C 0.94868 0.93429 0.14986 0.0
O52 O 0.85531 0.54439 0.1705 0.0
H53 H 0.77751 0.00685 0.20802 0.0
H54 H 0.92043 0.71829 0.08778 0.0
H55 H 0.91796 0.7385 0.21442 0.0
O56 O 0.92634 0.90557 0.12924 0.0
O57 O 0.92633 0.90259 0.17041 0.0
H58 H 0.7788 -0.01956 0.08748 0.0
O59 O 0.84239 0.1537 0.1697 0.0
O60 O 0.84216 0.1565 0.12847 0.0
O61 O 0.77133 0.79331 0.16965 0.0
O62 O 0.77146 0.79329 0.1285 0.0
C63 C 0.845 0.2461 0.14922 0.0
H64 H 0.92352 0.72394 0.04202 0.0
H65 H 0.77617 -0.02717 0.04178 0.0
H66 H 0.7755 0.07234 0.25318 0.0
H67 H 0.91971 0.80685 0.25987 0.0
C68 C 0.09596 0.45452 0.39722 0.0
N69 N 0.09904 0.84924 0.45719 0.0
C70 C 0.07184 0.71407 0.46971 0.0
C71 C 0.07179 0.70947 0.49589 0.0
C72 C 0.09888 0.84886 0.50954 0.0
C73 C 0.12596 -0.01142 0.49597 0.0
C74 C 0.12613 -0.01582 0.46982 0.0
Zn75 Zn 0.09963 0.85068 0.41865 0.0
C76 C 0.19921 0.76207 0.39829 0.0
N77 N 0.10124 0.86477 0.33827 0.0
C78 C 0.06177 0.80916 0.32412 0.0
C79 C 0.14079 0.95617 0.32772 0.0
C80 C 0.14164 -0.00408 0.30212 0.0
C81 C 0.10092 0.94534 0.28723 0.0
C82 C 0.06066 0.84978 0.29842 0.0
Zn83 Zn 0.09971 0.84911 0.37669 0.0
O84 O 0.09426 0.54666 0.41779 0.0
C85 C -0.00022 0.93021 0.39748 0.0
O86 O 0.09273 0.54404 0.37643 0.0
H87 H 0.17117 0.00485 0.3393 0.0
H88 H 0.05027 0.6084 0.45943 0.0
H89 H 0.03049 0.73828 0.33284 0.0
O90 O 0.022 0.89817 0.41808 0.0
O91 O 0.02233 0.90314 0.37686 0.0
H92 H 0.1479 0.0897 0.45963 0.0
O93 O 0.10661 0.15298 0.37723 0.0
O94 O 0.10487 0.15639 0.4184 0.0
O95 O 0.17701 0.79153 0.37764 0.0
O96 O 0.17733 0.80018 0.41882 0.0
C97 C 0.10321 0.2457 0.39764 0.0
H98 H 0.05107 0.5958 0.50518 0.0
H99 H 0.14662 0.10225 0.50531 0.0
H100 H 0.17317 0.07127 0.29418 0.0
H101 H 0.02876 0.80717 0.28742 0.0
C102 C 0.85285 0.48254 0.39773 0.0
N103 N 0.84958 0.08828 0.45742 0.0
C104 C 0.88935 0.16115 0.46992 0.0
C105 C 0.89059 0.16044 0.49609 0.0
C106 C 0.84989 0.089 0.50977 0.0
C107 C 0.80902 0.01749 0.49623 0.0
C108 C 0.80997 0.01584 0.47008 0.0
Zn109 Zn 0.84892 0.08652 0.41892 0.0
C110 C 0.7494 0.17862 0.39833 0.0
N111 N 0.84731 0.07166 0.33839 0.0
C112 C 0.88673 0.12782 0.32422 0.0
C113 C 0.80784 -0.02015 0.3278 0.0
C114 C 0.80699 0.94061 0.30216 0.0
C115 C 0.84764 -0.00813 0.28726 0.0
C116 C 0.88784 0.08756 0.2985 0.0
Zn117 Zn 0.84881 0.08776 0.37692 0.0
O118 O 0.85576 0.39033 0.41828 0.0
C119 C 0.94868 0.00324 0.39752 0.0
O120 O 0.85531 0.39313 0.37688 0.0
H121 H 0.77751 0.93065 0.33936 0.0
H122 H 0.92043 0.21924 0.4596 0.0
H123 H 0.91796 0.19904 0.33295 0.0
O124 O 0.92634 0.03196 0.41814 0.0
O125 O 0.92633 0.03494 0.37696 0.0
H126 H 0.77879 0.95707 0.4599 0.0
O127 O 0.84239 0.78381 0.37768 0.0
O128 O 0.84216 0.78102 0.41891 0.0
O129 O 0.77133 0.1442 0.37773 0.0
O130 O 0.77146 0.14422 0.41888 0.0
C131 C 0.845 0.69141 0.39815 0.0
H132 H 0.92352 0.2136 0.50536 0.0
H133 H 0.77617 0.96468 0.50559 0.0
H134 H 0.7755 0.86516 0.29419 0.0
H135 H 0.91971 0.13068 0.28751 0.0
C136 C 0.8457 0.24571 0.89764 0.0
N137 N 0.84767 0.86476 0.83827 0.0
C138 C 0.80812 0.95617 0.82772 0.0
C139 C 0.80728 -0.00407 0.80212 0.0
C140 C 0.84799 0.94535 0.78723 0.0
C141 C 0.88825 0.84979 0.79842 0.0
C142 C 0.88715 0.80918 0.82412 0.0
Zn143 Zn 0.8492 0.84912 0.87669 0.0
C144 C 0.94912 0.93023 0.89748 0.0
N145 N 0.84987 0.84926 0.95719 0.0
C146 C 0.82278 -0.01581 0.96982 0.0
C147 C 0.87706 0.71409 0.96971 0.0
C148 C 0.87711 0.70948 0.99589 0.0
C149 C 0.85003 0.84887 1.00954 0.0
C150 C 0.82295 -0.01141 0.99597 0.0
Zn151 Zn 0.84927 0.8507 0.91865 0.0
O152 O 0.8423 0.15299 0.87723 0.0
C153 C 0.74969 0.76209 0.89829 0.0
O154 O 0.84404 0.1564 0.91839 0.0
H155 H 0.89863 0.60842 0.95943 0.0
H156 H 0.77775 0.00485 0.8393 0.0
H157 H 0.80101 0.0897 0.95963 0.0
O158 O 0.7719 0.79153 0.87764 0.0
O159 O 0.77158 0.80018 0.91882 0.0
H160 H 0.91842 0.7383 0.83284 0.0
O161 O 0.85465 0.54668 0.91779 0.0
O162 O 0.85617 0.54405 0.87643 0.0
O163 O 0.92691 0.89819 0.91808 0.0
O164 O 0.92657 0.90316 0.87686 0.0
C165 C 0.85295 0.45453 0.89722 0.0
H166 H 0.77575 0.07128 0.79418 0.0
H167 H 0.92015 0.80719 0.78742 0.0
H168 H 0.89783 0.59582 1.00518 0.0
H169 H 0.8023 0.10226 1.00531 0.0
C170 C 0.1039 0.69144 0.89815 0.0
N171 N 0.10159 0.0717 0.83839 0.0
C172 C 0.14106 -0.02012 0.8278 0.0
C173 C 0.14191 0.94062 0.80216 0.0
C174 C 0.10126 -0.00812 0.78725 0.0
C175 C 0.06106 0.08757 0.79849 0.0
C176 C 0.06217 0.12783 0.82422 0.0
Zn177 Zn 0.10009 0.08779 0.87692 0.0
C178 C 0.00023 0.00325 0.89752 0.0
N179 N 0.09933 0.0883 0.95742 0.0
C180 C 0.13893 0.01586 0.97008 0.0
C181 C 0.05956 0.16117 0.96992 0.0
C182 C 0.05832 0.16045 0.99609 0.0
C183 C 0.09901 0.08901 1.00977 0.0
C184 C 0.13988 0.01751 0.99623 0.0
Zn185 Zn 0.09998 0.08654 0.91892 0.0
O186 O 0.10652 0.78383 0.87768 0.0
C187 C 0.19951 0.17864 0.89833 0.0
O188 O 0.10674 0.78104 0.91891 0.0
H189 H 0.02848 0.21925 0.9596 0.0
H190 H 0.17139 0.93068 0.83936 0.0
H191 H 0.17011 0.9571 0.95989 0.0
O192 O 0.17757 0.14423 0.87773 0.0
O193 O 0.17744 0.14425 0.91888 0.0
H194 H 0.03094 0.19904 0.83295 0.0
O195 O 0.09315 0.39035 0.91828 0.0
O196 O 0.09359 0.39314 0.87688 0.0
O197 O 0.02257 0.03197 0.91814 0.0
O198 O 0.02257 0.03495 0.87696 0.0
C199 C 0.09605 0.48257 0.89773 0.0
H200 H 0.1734 0.86518 0.7942 0.0
H201 H 0.02919 0.13067 0.78751 0.0
H202 H 0.02539 0.2136 1.00536 0.0
H203 H 0.17274 0.96471 1.00559 0.0
C204 C 0.8457 0.69182 0.64974 0.0
N205 N 0.84767 0.07278 0.7091 0.0
C206 C 0.80812 -0.01865 0.71965 0.0
C207 C 0.80728 0.94159 0.74526 0.0
C208 C 0.84799 -0.00782 0.76015 0.0
C209 C 0.88825 0.08775 0.74896 0.0
C210 C 0.88715 0.12836 0.72326 0.0
Zn211 Zn 0.8492 0.08841 0.67069 0.0
C212 C 0.94912 0.00731 0.6499 0.0
N213 N 0.84987 0.08828 0.59019 0.0
C214 C 0.82278 0.95334 0.57756 0.0
C215 C 0.87707 0.22345 0.57766 0.0
C216 C 0.87712 0.22805 0.55148 0.0
C217 C 0.85003 0.08866 0.53783 0.0
C218 C 0.82295 0.94894 0.5514 0.0
Zn219 Zn 0.84927 0.08684 0.62872 0.0
O220 O 0.8423 0.78454 0.67015 0.0
C221 C 0.74969 0.17544 0.64909 0.0
O222 O 0.84403 0.78113 0.62898 0.0
H223 H 0.89864 0.32912 0.58795 0.0
H224 H 0.77775 0.93266 0.70807 0.0
H225 H 0.80101 0.84782 0.58774 0.0
O226 O 0.7719 0.14599 0.66974 0.0
O227 O 0.77158 0.13734 0.62856 0.0
H228 H 0.91843 0.19925 0.71453 0.0
O229 O 0.85465 0.39086 0.62959 0.0
O230 O 0.85618 0.39348 0.67094 0.0
O231 O 0.92691 0.03935 0.6293 0.0
O232 O 0.92657 0.03438 0.67051 0.0
C233 C 0.85295 0.483 0.65015 0.0
H234 H 0.77575 0.86624 0.7532 0.0
H235 H 0.92015 0.13036 0.75996 0.0
H236 H 0.89783 0.34172 0.54219 0.0
H237 H 0.80229 0.83526 0.54207 0.0
C238 C 0.10391 0.24609 0.64922 0.0
N239 N 0.10159 0.86583 0.70899 0.0
C240 C 0.14106 0.95766 0.71958 0.0
C241 C 0.14191 -0.00308 0.74522 0.0
C242 C 0.10126 0.94565 0.76012 0.0
C243 C 0.06106 0.84995 0.74888 0.0
C244 C 0.06217 0.80969 0.72315 0.0
Zn245 Zn 0.10009 0.84974 0.67046 0.0
C246 C 0.00023 0.93427 0.64986 0.0
N247 N 0.09933 0.84923 0.58995 0.0
C248 C 0.13893 0.92167 0.5773 0.0
C249 C 0.05956 0.77635 0.57746 0.0
C250 C 0.05832 0.77707 0.55128 0.0
C251 C 0.09901 0.84851 0.5376 0.0
C252 C 0.13988 0.92002 0.55114 0.0
Zn253 Zn 0.09998 0.85099 0.62846 0.0
O254 O 0.10652 0.1537 0.6697 0.0
C255 C 0.19951 0.75889 0.64905 0.0
O256 O 0.10674 0.15649 0.62847 0.0
H257 H 0.02848 0.71826 0.58778 0.0
H258 H 0.17139 0.00686 0.70802 0.0
H259 H 0.17011 -0.01957 0.58748 0.0
O260 O 0.17757 0.7933 0.66965 0.0
O261 O 0.17745 0.79329 0.6285 0.0
H262 H 0.03093 0.73847 0.71442 0.0
O263 O 0.09315 0.54717 0.62909 0.0
O264 O 0.09359 0.54438 0.6705 0.0
O265 O 0.02257 0.90555 0.62924 0.0
O266 O 0.02257 0.90257 0.67041 0.0
C267 C 0.09605 0.45496 0.64965 0.0
H268 H 0.1734 0.07237 0.75318 0.0
H269 H 0.02919 0.80684 0.75987 0.0
H270 H 0.02539 0.72391 0.54202 0.0
H271 H 0.17274 -0.02717 0.54179 0.0
C272 C 0.59596 -0.01701 0.15015 0.0
N273 N 0.59903 0.58827 0.09019 0.0
C274 C 0.57184 0.72344 0.07766 0.0
C275 C 0.57179 0.72805 0.05148 0.0
C276 C 0.59887 0.58866 0.03783 0.0
C277 C 0.62595 0.44895 0.0514 0.0
C278 C 0.62612 0.45334 0.07756 0.0
Zn279 Zn 0.59963 0.58683 0.12872 0.0
C280 C 0.69921 0.67545 0.14909 0.0
N281 N 0.60124 0.57275 0.2091 0.0
C282 C 0.56177 0.62834 0.22326 0.0
C283 C 0.64079 0.48136 0.21965 0.0
C284 C 0.64164 0.4416 0.24526 0.0
C285 C 0.60092 0.49217 0.26015 0.0
C286 C 0.56066 0.58773 0.24896 0.0
Zn287 Zn 0.59971 0.58841 0.17069 0.0
O288 O 0.59426 0.89085 0.12959 0.0
C289 C 0.49978 0.5073 0.1499 0.0
O290 O 0.59273 0.89348 0.17094 0.0
H291 H 0.67117 0.43269 0.20808 0.0
H292 H 0.55027 0.82911 0.08795 0.0
H293 H 0.53049 0.69922 0.21453 0.0
O294 O 0.522 0.53934 0.1293 0.0
O295 O 0.52234 0.53437 0.17051 0.0
H296 H 0.64789 0.34783 0.08774 0.0
O297 O 0.60661 0.28454 0.17015 0.0
O298 O 0.60487 0.28113 0.12898 0.0
O299 O 0.67701 0.646 0.16974 0.0
O300 O 0.67732 0.63735 0.12856 0.0
C301 C 0.60321 0.19182 0.14974 0.0
H302 H 0.55108 0.84171 0.04219 0.0
H303 H 0.64661 0.33528 0.04207 0.0
H304 H 0.67316 0.36627 0.2532 0.0
H305 H 0.52876 0.63033 0.25996 0.0
C306 C 0.35285 0.95498 0.14965 0.0
N307 N 0.34958 0.34924 0.08995 0.0
C308 C 0.38935 0.27637 0.07746 0.0
C309 C 0.39059 0.27709 0.05128 0.0
C310 C 0.34989 0.34853 0.0376 0.0
C311 C 0.30903 0.42003 0.05114 0.0
C312 C 0.30997 0.42168 0.0773 0.0
Zn313 Zn 0.34892 0.351 0.12846 0.0
C314 C 0.2494 0.2589 0.14905 0.0
N315 N 0.34731 0.36586 0.20899 0.0
C316 C 0.38673 0.30971 0.22315 0.0
C317 C 0.30784 0.45766 0.21958 0.0
C318 C 0.30699 0.4969 0.24522 0.0
C319 C 0.34764 0.44565 0.26012 0.0
C320 C 0.38784 0.34996 0.24888 0.0
Zn321 Zn 0.34881 0.34975 0.17046 0.0
O322 O 0.35576 0.04719 0.12909 0.0
C323 C 0.44868 0.43429 0.14986 0.0
O324 O 0.35531 0.04439 0.1705 0.0
H325 H 0.27751 0.50685 0.20802 0.0
H326 H 0.42043 0.21829 0.08778 0.0
H327 H 0.41796 0.2385 0.21442 0.0
O328 O 0.42634 0.40557 0.12924 0.0
O329 O 0.42633 0.40259 0.17041 0.0
H330 H 0.2788 0.48044 0.08748 0.0
O331 O 0.34239 0.6537 0.1697 0.0
O332 O 0.34216 0.6565 0.12847 0.0
O333 O 0.27133 0.29331 0.16965 0.0
O334 O 0.27146 0.29329 0.1285 0.0
C335 C 0.345 0.7461 0.14922 0.0
H336 H 0.42352 0.22394 0.04202 0.0
H337 H 0.27617 0.47283 0.04178 0.0
H338 H 0.2755 0.57234 0.25318 0.0
H339 H 0.41971 0.30685 0.25987 0.0
C340 C 0.59596 0.95452 0.39722 0.0
N341 N 0.59904 0.34924 0.45719 0.0
C342 C 0.57184 0.21407 0.46971 0.0
C343 C 0.57179 0.20947 0.49589 0.0
C344 C 0.59888 0.34886 0.50954 0.0
C345 C 0.62596 0.48857 0.49597 0.0
C346 C 0.62613 0.48418 0.46982 0.0
Zn347 Zn 0.59963 0.35068 0.41865 0.0
C348 C 0.69921 0.26207 0.39829 0.0
N349 N 0.60124 0.36477 0.33827 0.0
C350 C 0.56177 0.30916 0.32412 0.0
C351 C 0.64079 0.45616 0.32772 0.0
C352 C 0.64164 0.49592 0.30212 0.0
C353 C 0.60092 0.44534 0.28723 0.0
C354 C 0.56066 0.34978 0.29842 0.0
Zn355 Zn 0.59971 0.34911 0.37669 0.0
O356 O 0.59426 0.04666 0.41779 0.0
C357 C 0.49978 0.43021 0.39748 0.0
O358 O 0.59273 0.04404 0.37643 0.0
H359 H 0.67117 0.50485 0.3393 0.0
H360 H 0.55027 0.1084 0.45943 0.0
H361 H 0.53049 0.23828 0.33284 0.0
O362 O 0.522 0.39817 0.41808 0.0
O363 O 0.52233 0.40314 0.37686 0.0
H364 H 0.6479 0.58969 0.45963 0.0
O365 O 0.60661 0.65298 0.37723 0.0
O366 O 0.60487 0.65639 0.4184 0.0
O367 O 0.67701 0.29153 0.37764 0.0
O368 O 0.67733 0.30018 0.41882 0.0
C369 C 0.60321 0.7457 0.39764 0.0
H370 H 0.55107 0.0958 0.50518 0.0
H371 H 0.64662 0.60225 0.50531 0.0
H372 H 0.67317 0.57127 0.29418 0.0
H373 H 0.52876 0.30717 0.28742 0.0
C374 C 0.35285 -0.01745 0.39773 0.0
N375 N 0.34958 0.58828 0.45742 0.0
C376 C 0.38935 0.66116 0.46992 0.0
C377 C 0.39059 0.66044 0.49609 0.0
C378 C 0.34989 0.589 0.50977 0.0
C379 C 0.30902 0.51749 0.49623 0.0
C380 C 0.30997 0.51584 0.47008 0.0
Zn381 Zn 0.34892 0.58652 0.41892 0.0
C382 C 0.2494 0.67862 0.39833 0.0
N383 N 0.34731 0.57166 0.33839 0.0
C384 C 0.38673 0.62782 0.32422 0.0
C385 C 0.30784 0.47985 0.3278 0.0
C386 C 0.30699 0.44061 0.30216 0.0
C387 C 0.34764 0.49187 0.28726 0.0
C388 C 0.38784 0.58756 0.2985 0.0
Zn389 Zn 0.34881 0.58776 0.37692 0.0
O390 O 0.35576 0.89033 0.41828 0.0
C391 C 0.44868 0.50324 0.39752 0.0
O392 O 0.35531 0.89313 0.37688 0.0
H393 H 0.27751 0.43065 0.33936 0.0
H394 H 0.42043 0.71924 0.4596 0.0
H395 H 0.41796 0.69904 0.33295 0.0
O396 O 0.42634 0.53196 0.41814 0.0
O397 O 0.42633 0.53494 0.37696 0.0
H398 H 0.27879 0.45707 0.4599 0.0
O399 O 0.34239 0.28381 0.37768 0.0
O400 O 0.34216 0.28102 0.41891 0.0
O401 O 0.27133 0.6442 0.37773 0.0
O402 O 0.27146 0.64422 0.41888 0.0
C403 C 0.345 0.19142 0.39815 0.0
H404 H 0.42352 0.7136 0.50536 0.0
H405 H 0.27617 0.46468 0.50559 0.0
H406 H 0.2755 0.36516 0.29419 0.0
H407 H 0.41971 0.63068 0.28751 0.0
C408 C 0.3457 0.74571 0.89764 0.0
N409 N 0.34767 0.36476 0.83827 0.0
C410 C 0.30812 0.45617 0.82772 0.0
C411 C 0.30728 0.49593 0.80212 0.0
C412 C 0.34799 0.44535 0.78723 0.0
C413 C 0.38825 0.34979 0.79842 0.0
C414 C 0.38715 0.30918 0.82412 0.0
Zn415 Zn 0.3492 0.34912 0.87669 0.0
C416 C 0.44912 0.43023 0.89748 0.0
N417 N 0.34987 0.34925 0.95719 0.0
C418 C 0.32278 0.48419 0.96982 0.0
C419 C 0.37706 0.21409 0.96971 0.0
C420 C 0.37711 0.20948 0.99589 0.0
C421 C 0.35003 0.34887 1.00954 0.0
C422 C 0.32295 0.48859 0.99597 0.0
Zn423 Zn 0.34927 0.35069 0.91865 0.0
O424 O 0.3423 0.65299 0.87723 0.0
C425 C 0.24969 0.26208 0.89829 0.0
O426 O 0.34404 0.6564 0.91839 0.0
H427 H 0.39863 0.10842 0.95943 0.0
H428 H 0.27775 0.50485 0.8393 0.0
H429 H 0.30101 0.5897 0.95963 0.0
O430 O 0.2719 0.29153 0.87764 0.0
O431 O 0.27158 0.30018 0.91882 0.0
H432 H 0.41842 0.2383 0.83284 0.0
O433 O 0.35465 0.04668 0.91779 0.0
O434 O 0.35617 0.04405 0.87643 0.0
O435 O 0.42691 0.39819 0.91808 0.0
O436 O 0.42657 0.40316 0.87686 0.0
C437 C 0.35295 0.95453 0.89722 0.0
H438 H 0.27575 0.57127 0.79418 0.0
H439 H 0.42015 0.3072 0.78742 0.0
H440 H 0.39783 0.09582 1.00518 0.0
H441 H 0.3023 0.60226 1.00531 0.0
C442 C 0.6039 0.19144 0.89815 0.0
N443 N 0.60159 0.5717 0.83839 0.0
C444 C 0.64106 0.47988 0.8278 0.0
C445 C 0.64191 0.44062 0.80216 0.0
C446 C 0.60126 0.49188 0.78725 0.0
C447 C 0.56106 0.58757 0.79849 0.0
C448 C 0.56217 0.62783 0.82422 0.0
Zn449 Zn 0.60009 0.58779 0.87692 0.0
C450 C 0.50023 0.50325 0.89752 0.0
N451 N 0.59933 0.5883 0.95742 0.0
C452 C 0.63893 0.51586 0.97008 0.0
C453 C 0.55956 0.66117 0.96992 0.0
C454 C 0.55832 0.66045 0.99609 0.0
C455 C 0.59901 0.58901 1.00977 0.0
C456 C 0.63988 0.51751 0.99623 0.0
Zn457 Zn 0.59998 0.58654 0.91892 0.0
O458 O 0.60652 0.28383 0.87768 0.0
C459 C 0.69951 0.67864 0.89833 0.0
O460 O 0.60674 0.28105 0.91891 0.0
H461 H 0.52848 0.71925 0.9596 0.0
H462 H 0.67139 0.43068 0.83936 0.0
H463 H 0.67011 0.45711 0.95989 0.0
O464 O 0.67757 0.64423 0.87773 0.0
O465 O 0.67744 0.64425 0.91888 0.0
H466 H 0.53094 0.69904 0.83295 0.0
O467 O 0.59315 0.89035 0.91828 0.0
O468 O 0.59359 0.89315 0.87688 0.0
O469 O 0.52257 0.53197 0.91814 0.0
O470 O 0.52257 0.53495 0.87696 0.0
C471 C 0.59605 -0.01743 0.89773 0.0
H472 H 0.6734 0.36518 0.7942 0.0
H473 H 0.52919 0.63067 0.78751 0.0
H474 H 0.52539 0.7136 1.00536 0.0
H475 H 0.67274 0.46471 1.00559 0.0
C476 C 0.3457 0.19182 0.64974 0.0
N477 N 0.34767 0.57278 0.7091 0.0
C478 C 0.30812 0.48135 0.71965 0.0
C479 C 0.30728 0.44159 0.74526 0.0
C480 C 0.34799 0.49218 0.76015 0.0
C481 C 0.38825 0.58775 0.74896 0.0
C482 C 0.38715 0.62836 0.72326 0.0
Zn483 Zn 0.3492 0.58841 0.67069 0.0
C484 C 0.44912 0.50731 0.6499 0.0
N485 N 0.34987 0.58828 0.59019 0.0
C486 C 0.32278 0.45334 0.57756 0.0
C487 C 0.37707 0.72345 0.57766 0.0
C488 C 0.37712 0.72805 0.55148 0.0
C489 C 0.35003 0.58866 0.53783 0.0
C490 C 0.32295 0.44894 0.5514 0.0
Zn491 Zn 0.34927 0.58684 0.62872 0.0
O492 O 0.3423 0.28454 0.67015 0.0
C493 C 0.24969 0.67544 0.64909 0.0
O494 O 0.34403 0.28113 0.62898 0.0
H495 H 0.39864 0.82912 0.58795 0.0
H496 H 0.27775 0.43266 0.70807 0.0
H497 H 0.30101 0.34782 0.58774 0.0
O498 O 0.2719 0.64599 0.66974 0.0
O499 O 0.27158 0.63734 0.62856 0.0
H500 H 0.41843 0.69925 0.71453 0.0
O501 O 0.35465 0.89086 0.62959 0.0
O502 O 0.35618 0.89348 0.67094 0.0
O503 O 0.42691 0.53935 0.6293 0.0
O504 O 0.42657 0.53438 0.67051 0.0
C505 C 0.35295 -0.017 0.65015 0.0
H506 H 0.27575 0.36624 0.7532 0.0
H507 H 0.42015 0.63036 0.75996 0.0
H508 H 0.39783 0.84172 0.54219 0.0
H509 H 0.30229 0.33527 0.54207 0.0
C510 C 0.60391 0.74609 0.64922 0.0
N511 N 0.60159 0.36583 0.70899 0.0
C512 C 0.64106 0.45766 0.71958 0.0
C513 C 0.64191 0.49692 0.74522 0.0
C514 C 0.60126 0.44565 0.76012 0.0
C515 C 0.56106 0.34995 0.74888 0.0
C516 C 0.56217 0.30969 0.72315 0.0
Zn517 Zn 0.60009 0.34974 0.67046 0.0
C518 C 0.50023 0.43427 0.64986 0.0
N519 N 0.59933 0.34923 0.58995 0.0
C520 C 0.63893 0.42167 0.5773 0.0
C521 C 0.55956 0.27635 0.57746 0.0
C522 C 0.55832 0.27707 0.55128 0.0
C523 C 0.59901 0.34851 0.5376 0.0
C524 C 0.63988 0.42002 0.55114 0.0
Zn525 Zn 0.59998 0.35099 0.62846 0.0
O526 O 0.60652 0.6537 0.6697 0.0
C527 C 0.69951 0.25889 0.64905 0.0
O528 O 0.60674 0.65649 0.62847 0.0
H529 H 0.52848 0.21826 0.58778 0.0
H530 H 0.67139 0.50686 0.70802 0.0
H531 H 0.67011 0.48043 0.58748 0.0
O532 O 0.67757 0.2933 0.66965 0.0
O533 O 0.67745 0.29329 0.6285 0.0
H534 H 0.53093 0.23847 0.71442 0.0
O535 O 0.59315 0.04717 0.62909 0.0
O536 O 0.59359 0.04438 0.6705 0.0
O537 O 0.52257 0.40555 0.62924 0.0
O538 O 0.52257 0.40257 0.67041 0.0
C539 C 0.59605 0.95496 0.64965 0.0
H540 H 0.6734 0.57237 0.75318 0.0
H541 H 0.52919 0.30684 0.75987 0.0
H542 H 0.52539 0.22391 0.54202 0.0
H543 H 0.67274 0.47282 0.54179 0.0
loop_
_geom_bond_atom_site_label_1
_geom_bond_atom_site_label_2
_geom_bond_distance
_geom_bond_site_symmetry_2
_ccdc_geom_bond_type
C0 O16 1.251 . S
C0 O18 1.254 . S
N1 C2 1.333 . S
N1 C6 1.307 1_545 S
N1 Zn7 2.020 . S
C2 N1 1.333 . S
C2 C3 1.379 . S
C2 H20 0.952 . S
C3 C2 1.379 . S
C3 C4 1.390 . S
C3 H30 0.949 . S
C4 C3 1.390 . S
C4 C5 1.357 1_545 S
C5 C4 1.357 1_565 S
C5 C6 1.370 . S
C5 H31 0.950 . S
C6 N1 1.307 1_565 S
C6 C5 1.370 . S
C6 H24 0.948 . S
Zn7 N1 2.020 . S
Zn7 O16 2.039 . S
Zn7 O22 2.034 . S
Zn7 O26 2.025 1_545 S
Zn7 O28 2.024 . S
C8 O27 1.246 . S
C8 O28 1.249 . S
N9 C10 1.307 . S
N9 C11 1.333 1_545 S
N9 Zn15 2.020 . S
C10 N9 1.307 . S
C10 C14 1.370 . S
C10 H21 0.948 . S
C11 N9 1.333 1_565 S
C11 C12 1.379 . S
C11 H19 0.952 . S
C12 C11 1.379 . S
C12 C13 1.390 1_565 S
C12 H32 0.949 . S
C13 C12 1.390 1_545 S
C13 C14 1.357 . S
C14 C10 1.370 . S
C14 C13 1.357 . S
C14 H33 0.950 . S
Zn15 N9 2.020 . S
Zn15 O18 2.025 . S
Zn15 O23 2.024 . S
Zn15 O25 2.039 1_545 S
Zn15 O27 2.034 . S
O16 C0 1.251 . S
O16 Zn7 2.039 . S
C17 O22 1.246 . S
C17 O23 1.249 . S
O18 C0 1.254 . S
O18 Zn15 2.025 . S
H19 C11 0.952 . S
H20 C2 0.952 . S
H21 C10 0.948 . S
O22 Zn7 2.034 . S
O22 C17 1.246 . S
O23 Zn15 2.024 . S
O23 C17 1.249 . S
H24 C6 0.948 . S
O25 Zn15 2.039 1_565 S
O25 C29 1.251 . S
O26 Zn7 2.025 1_565 S
O26 C29 1.254 . S
O27 C8 1.246 . S
O27 Zn15 2.034 . S
O28 Zn7 2.024 . S
O28 C8 1.249 . S
C29 O25 1.251 . S
C29 O26 1.254 . S
H30 C3 0.949 . S
H31 C5 0.950 . S
H32 C12 0.949 . S
H33 C14 0.950 . S
C34 O50 1.251 . S
C34 O52 1.254 . S
N35 C36 1.333 . S
N35 C40 1.307 1_565 S
N35 Zn41 2.020 . S
C36 N35 1.333 . S
C36 C37 1.379 . S
C36 H54 0.952 . S
C37 C36 1.379 . S
C37 C38 1.390 . S
C37 H64 0.949 . S
C38 C37 1.390 . S
C38 C39 1.357 1_565 S
C39 C38 1.357 1_545 S
C39 C40 1.370 . S
C39 H65 0.950 . S
C40 N35 1.307 1_545 S
C40 C39 1.370 . S
C40 H58 0.948 . S
Zn41 N35 2.020 . S
Zn41 O50 2.039 . S
Zn41 O56 2.034 . S
Zn41 O60 2.025 1_565 S
Zn41 O62 2.024 . S
C42 O61 1.246 . S
C42 O62 1.249 . S
N43 C44 1.307 . S
N43 C45 1.333 1_565 S
N43 Zn49 2.020 . S
C44 N43 1.307 . S
C44 C48 1.370 . S
C44 H55 0.948 . S
C45 N43 1.333 1_545 S
C45 C46 1.379 . S
C45 H53 0.952 . S
C46 C45 1.379 . S
C46 C47 1.390 1_545 S
C46 H66 0.949 . S
C47 C46 1.390 1_565 S
C47 C48 1.357 . S
C48 C44 1.370 . S
C48 C47 1.357 . S
C48 H67 0.950 . S
Zn49 N43 2.020 . S
Zn49 O52 2.025 . S
Zn49 O57 2.024 . S
Zn49 O59 2.039 1_565 S
Zn49 O61 2.034 . S
O50 C34 1.251 . S
O50 Zn41 2.039 . S
C51 O56 1.246 . S
C51 O57 1.249 . S
O52 C34 1.254 . S
O52 Zn49 2.025 . S
H53 C45 0.952 . S
H54 C36 0.952 . S
H55 C44 0.948 . S
O56 Zn41 2.034 . S
O56 C51 1.246 . S
O57 Zn49 2.024 . S
O57 C51 1.249 . S
H58 C40 0.948 . S
O59 Zn49 2.039 1_545 S
O59 C63 1.251 . S
O60 Zn41 2.025 1_545 S
O60 C63 1.254 . S
O61 C42 1.246 . S
O61 Zn49 2.034 . S
O62 Zn41 2.024 . S
O62 C42 1.249 . S
C63 O59 1.251 . S
C63 O60 1.254 . S
H64 C37 0.949 . S
H65 C39 0.950 . S
H66 C46 0.949 . S
H67 C48 0.950 . S
C68 O84 1.251 . S
C68 O86 1.254 . S
N69 C70 1.333 . S
N69 C74 1.307 1_565 S
N69 Zn75 2.020 . S
C70 N69 1.333 . S
C70 C71 1.379 . S
C70 H88 0.952 . S
C71 C70 1.379 . S
C71 C72 1.390 . S
C71 H98 0.949 . S
C72 C71 1.390 . S
C72 C73 1.357 1_565 S
C73 C72 1.357 1_545 S
C73 C74 1.370 . S
C73 H99 0.950 . S
C74 N69 1.307 1_545 S
C74 C73 1.370 . S
C74 H92 0.948 . S
Zn75 N69 2.020 . S
Zn75 O84 2.039 . S
Zn75 O90 2.034 . S
Zn75 O94 2.025 1_565 S
Zn75 O96 2.024 . S
C76 O95 1.246 . S
C76 O96 1.249 . S
N77 C78 1.307 . S
N77 C79 1.333 1_565 S
N77 Zn83 2.020 . S
C78 N77 1.307 . S
C78 C82 1.370 . S
C78 H89 0.948 . S
C79 N77 1.333 1_545 S
C79 C80 1.379 . S
C79 H87 0.952 . S
C80 C79 1.379 . S
C80 C81 1.390 1_545 S
C80 H100 0.949 . S
C81 C80 1.390 1_565 S
C81 C82 1.357 . S
C82 C78 1.370 . S
C82 C81 1.357 . S
C82 H101 0.950 . S
Zn83 N77 2.020 . S
Zn83 O86 2.025 . S
Zn83 O91 2.024 . S
Zn83 O93 2.039 1_565 S
Zn83 O95 2.034 . S
O84 C68 1.251 . S
O84 Zn75 2.039 . S
C85 O90 1.246 . S
C85 O91 1.249 . S
O86 C68 1.254 . S
O86 Zn83 2.025 . S
H87 C79 0.952 . S
H88 C70 0.952 . S
H89 C78 0.948 . S
O90 Zn75 2.034 . S
O90 C85 1.246 . S
O91 Zn83 2.024 . S
O91 C85 1.249 . S
H92 C74 0.948 . S
O93 Zn83 2.039 1_545 S
O93 C97 1.251 . S
O94 Zn75 2.025 1_545 S
O94 C97 1.254 . S
O95 C76 1.246 . S
O95 Zn83 2.034 . S
O96 Zn75 2.024 . S
O96 C76 1.249 . S
C97 O93 1.251 . S
C97 O94 1.254 . S
H98 C71 0.949 . S
H99 C73 0.950 . S
H100 C80 0.949 . S
H101 C82 0.950 . S
C102 O118 1.251 . S
C102 O120 1.254 . S
N103 C104 1.333 . S
N103 C108 1.307 1_545 S
N103 Zn109 2.020 . S
C104 N103 1.333 . S
C104 C105 1.379 . S
C104 H122 0.952 . S
C105 C104 1.379 . S
C105 C106 1.390 . S
C105 H132 0.949 . S
C106 C105 1.390 . S
C106 C107 1.357 1_545 S
C107 C106 1.357 1_565 S
C107 C108 1.370 . S
C107 H133 0.950 . S
C108 N103 1.307 1_565 S
C108 C107 1.370 . S
C108 H126 0.948 . S
Zn109 N103 2.020 . S
Zn109 O118 2.039 . S
Zn109 O124 2.034 . S
Zn109 O128 2.025 1_545 S
Zn109 O130 2.024 . S
C110 O129 1.246 . S
C110 O130 1.249 . S
N111 C112 1.307 . S
N111 C113 1.333 1_545 S
N111 Zn117 2.020 . S
C112 N111 1.307 . S
C112 C116 1.370 . S
C112 H123 0.948 . S
C113 N111 1.333 1_565 S
C113 C114 1.379 . S
C113 H121 0.952 . S
C114 C113 1.379 . S
C114 C115 1.390 1_565 S
C114 H134 0.949 . S
C115 C114 1.390 1_545 S
C115 C116 1.357 . S
C116 C112 1.370 . S
C116 C115 1.357 . S
C116 H135 0.950 . S
Zn117 N111 2.020 . S
Zn117 O120 2.025 . S
Zn117 O125 2.024 . S
Zn117 O127 2.039 1_545 S
Zn117 O129 2.034 . S
O118 C102 1.251 . S
O118 Zn109 2.039 . S
C119 O124 1.246 . S
C119 O125 1.249 . S
O120 C102 1.254 . S
O120 Zn117 2.025 . S
H121 C113 0.952 . S
H122 C104 0.952 . S
H123 C112 0.948 . S
O124 Zn109 2.034 . S
O124 C119 1.246 . S
O125 Zn117 2.024 . S
O125 C119 1.249 . S
H126 C108 0.948 . S
O127 Zn117 2.039 1_565 S
O127 C131 1.251 . S
O128 Zn109 2.025 1_565 S
O128 C131 1.254 . S
O129 C110 1.246 . S
O129 Zn117 2.034 . S
O130 Zn109 2.024 . S
O130 C110 1.249 . S
C131 O127 1.251 . S
C131 O128 1.254 . S
H132 C105 0.949 . S
H133 C107 0.950 . S
H134 C114 0.949 . S
H135 C116 0.950 . S
C136 O152 1.251 . S
C136 O154 1.254 . S
N137 C138 1.333 1_565 S
N137 C142 1.307 . S
N137 Zn143 2.020 . S
C138 N137 1.333 1_545 S
C138 C139 1.379 . S
C138 H156 0.952 . S
C139 C138 1.379 . S
C139 C140 1.390 1_545 S
C139 H166 0.949 . S
C140 C139 1.390 1_565 S
C140 C141 1.357 . S
C141 C140 1.357 . S
C141 C142 1.370 . S
C141 H167 0.950 . S
C142 N137 1.307 . S
C142 C141 1.370 . S
C142 H160 0.948 . S
Zn143 N137 2.020 . S
Zn143 O152 2.039 1_565 S
Zn143 O158 2.034 . S
Zn143 O162 2.025 . S
Zn143 O164 2.024 . S
C144 O163 1.246 . S
C144 O164 1.249 . S
N145 C146 1.307 1_565 S
N145 C147 1.333 . S
N145 Zn151 2.020 . S
C146 N145 1.307 1_545 S
C146 C150 1.370 . S
C146 H157 0.948 . S
C147 N145 1.333 . S
C147 C148 1.379 . S
C147 H155 0.952 . S
C148 C147 1.379 . S
C148 C149 1.390 . S
C148 H168 0.949 . S
C149 C148 1.390 . S
C149 C150 1.357 1_565 S
C150 C146 1.370 . S
C150 C149 1.357 1_545 S
C150 H169 0.950 . S
Zn151 N145 2.020 . S
Zn151 O154 2.025 1_565 S
Zn151 O159 2.024 . S
Zn151 O161 2.039 . S
Zn151 O163 2.034 . S
O152 C136 1.251 . S
O152 Zn143 2.039 1_545 S
C153 O158 1.246 . S
C153 O159 1.249 . S
O154 C136 1.254 . S
O154 Zn151 2.025 1_545 S
H155 C147 0.952 . S
H156 C138 0.952 . S
H157 C146 0.948 . S
O158 Zn143 2.034 . S
O158 C153 1.246 . S
O159 Zn151 2.024 . S
O159 C153 1.249 . S
H160 C142 0.948 . S
O161 Zn151 2.039 . S
O161 C165 1.251 . S
O162 Zn143 2.025 . S
O162 C165 1.254 . S
O163 C144 1.246 . S
O163 Zn151 2.034 . S
O164 Zn143 2.024 . S
O164 C144 1.249 . S
C165 O161 1.251 . S
C165 O162 1.254 . S
H166 C139 0.949 . S
H167 C141 0.950 . S
H168 C148 0.949 . S
H169 C150 0.950 . S
C170 O186 1.251 . S
C170 O188 1.254 . S
N171 C172 1.333 1_545 S
N171 C176 1.307 . S
N171 Zn177 2.020 . S
C172 N171 1.333 1_565 S
C172 C173 1.379 . S
C172 H190 0.952 . S
C173 C172 1.379 . S
C173 C174 1.390 1_565 S
C173 H200 0.949 . S
C174 C173 1.390 1_545 S
C174 C175 1.357 . S
C175 C174 1.357 . S
C175 C176 1.370 . S
C175 H201 0.950 . S
C176 N171 1.307 . S
C176 C175 1.370 . S
C176 H194 0.948 . S
Zn177 N171 2.020 . S
Zn177 O186 2.039 1_545 S
Zn177 O192 2.034 . S
Zn177 O196 2.025 . S
Zn177 O198 2.024 . S
C178 O197 1.246 . S
C178 O198 1.249 . S
N179 C180 1.307 1_545 S
N179 C181 1.333 . S
N179 Zn185 2.020 . S
C180 N179 1.307 1_565 S
C180 C184 1.370 . S
C180 H191 0.948 . S
C181 N179 1.333 . S
C181 C182 1.379 . S
C181 H189 0.952 . S
C182 C181 1.379 . S
C182 C183 1.390 . S
C182 H202 0.949 . S
C183 C182 1.390 . S
C183 C184 1.357 1_545 S
C184 C180 1.370 . S
C184 C183 1.357 1_565 S
C184 H203 0.950 . S
Zn185 N179 2.020 . S
Zn185 O188 2.025 1_545 S
Zn185 O193 2.024 . S
Zn185 O195 2.039 . S
Zn185 O197 2.034 . S
O186 C170 1.251 . S
O186 Zn177 2.039 1_565 S
C187 O192 1.246 . S
C187 O193 1.249 . S
O188 C170 1.254 . S
O188 Zn185 2.025 1_565 S
H189 C181 0.952 . S
H190 C172 0.952 . S
H191 C180 0.948 . S
O192 Zn177 2.034 . S
O192 C187 1.246 . S
O193 Zn185 2.024 . S
O193 C187 1.249 . S
H194 C176 0.948 . S
O195 Zn185 2.039 . S
O195 C199 1.251 . S
O196 Zn177 2.025 . S
O196 C199 1.254 . S
O197 C178 1.246 . S
O197 Zn185 2.034 . S
O198 Zn177 2.024 . S
O198 C178 1.249 . S
C199 O195 1.251 . S
C199 O196 1.254 . S
H200 C173 0.949 . S
H201 C175 0.950 . S
H202 C182 0.949 . S
H203 C184 0.950 . S
C204 O220 1.251 . S
C204 O222 1.254 . S
N205 C206 1.333 1_545 S
N205 C210 1.307 . S
N205 Zn211 2.020 . S
C206 N205 1.333 1_565 S
C206 C207 1.379 . S
C206 H224 0.952 . S
C207 C206 1.379 . S
C207 C208 1.390 1_565 S
C207 H234 0.949 . S
C208 C207 1.390 1_545 S
C208 C209 1.357 . S
C209 C208 1.357 . S
C209 C210 1.370 . S
C209 H235 0.950 . S
C210 N205 1.307 . S
C210 C209 1.370 . S
C210 H228 0.948 . S
Zn211 N205 2.020 . S
Zn211 O220 2.039 1_545 S
Zn211 O226 2.034 . S
Zn211 O230 2.025 . S
Zn211 O232 2.024 . S
C212 O231 1.246 . S
C212 O232 1.249 . S
N213 C214 1.307 1_545 S
N213 C215 1.333 . S
N213 Zn219 2.020 . S
C214 N213 1.307 1_565 S
C214 C218 1.370 . S
C214 H225 0.948 . S
C215 N213 1.333 . S
C215 C216 1.379 . S
C215 H223 0.952 . S
C216 C215 1.379 . S
C216 C217 1.390 . S
C216 H236 0.949 . S
C217 C216 1.390 . S
C217 C218 1.357 1_545 S
C218 C214 1.370 . S
C218 C217 1.357 1_565 S
C218 H237 0.950 . S
Zn219 N213 2.020 . S
Zn219 O222 2.025 1_545 S
Zn219 O227 2.024 . S
Zn219 O229 2.039 . S
Zn219 O231 2.034 . S
O220 C204 1.251 . S
O220 Zn211 2.039 1_565 S
C221 O226 1.246 . S
C221 O227 1.249 . S
O222 C204 1.254 . S
O222 Zn219 2.025 1_565 S
H223 C215 0.952 . S
H224 C206 0.952 . S
H225 C214 0.948 . S
O226 Zn211 2.034 . S
O226 C221 1.246 . S
O227 Zn219 2.024 . S
O227 C221 1.249 . S
H228 C210 0.948 . S
O229 Zn219 2.039 . S
O229 C233 1.251 . S
O230 Zn211 2.025 . S
O230 C233 1.254 . S
O231 C212 1.246 . S
O231 Zn219 2.034 . S
O232 Zn211 2.024 . S
O232 C212 1.249 . S
C233 O229 1.251 . S
C233 O230 1.254 . S
H234 C207 0.949 . S
H235 C209 0.950 . S
H236 C216 0.949 . S
H237 C218 0.950 . S
C238 O254 1.251 . S
C238 O256 1.254 . S
N239 C240 1.333 1_565 S
N239 C244 1.307 . S
N239 Zn245 2.020 . S
C240 N239 1.333 1_545 S
C240 C241 1.379 . S
C240 H258 0.952 . S
C241 C240 1.379 . S
C241 C242 1.390 1_545 S
C241 H268 0.949 . S
C242 C241 1.390 1_565 S
C242 C243 1.357 . S
C243 C242 1.357 . S
C243 C244 1.370 . S
C243 H269 0.950 . S
C244 N239 1.307 . S
C244 C243 1.370 . S
C244 H262 0.948 . S
Zn245 N239 2.020 . S
Zn245 O254 2.039 1_565 S
Zn245 O260 2.034 . S
Zn245 O264 2.025 . S
Zn245 O266 2.024 . S
C246 O265 1.246 . S
C246 O266 1.249 . S
N247 C248 1.307 1_565 S
N247 C249 1.333 . S
N247 Zn253 2.020 . S
C248 N247 1.307 1_545 S
C248 C252 1.370 . S
C248 H259 0.948 . S
C249 N247 1.333 . S
C249 C250 1.379 . S
C249 H257 0.952 . S
C250 C249 1.379 . S
C250 C251 1.390 . S
C250 H270 0.949 . S
C251 C250 1.390 . S
C251 C252 1.357 1_565 S
C252 C248 1.370 . S
C252 C251 1.357 1_545 S
C252 H271 0.950 . S
Zn253 N247 2.020 . S
Zn253 O256 2.025 1_565 S
Zn253 O261 2.024 . S
Zn253 O263 2.039 . S
Zn253 O265 2.034 . S
O254 C238 1.251 . S
O254 Zn245 2.039 1_545 S
C255 O260 1.246 . S
C255 O261 1.249 . S
O256 C238 1.254 . S
O256 Zn253 2.025 1_545 S
H257 C249 0.952 . S
H258 C240 0.952 . S
H259 C248 0.948 . S
O260 Zn245 2.034 . S
O260 C255 1.246 . S
O261 Zn253 2.024 . S
O261 C255 1.249 . S
H262 C244 0.948 . S
O263 Zn253 2.039 . S
O263 C267 1.251 . S
O264 Zn245 2.025 . S
O264 C267 1.254 . S
O265 C246 1.246 . S
O265 Zn253 2.034 . S
O266 Zn245 2.024 . S
O266 C246 1.249 . S
C267 O263 1.251 . S
C267 O264 1.254 . S
H268 C241 0.949 . S
H269 C243 0.950 . S
H270 C250 0.949 . S
H271 C252 0.950 . S
C272 O288 1.251 1_545 S
C272 O290 1.254 1_545 S
N273 C274 1.333 . S
N273 C278 1.307 . S
N273 Zn279 2.020 . S
C274 N273 1.333 . S
C274 C275 1.379 . S
C274 H292 0.952 . S
C275 C274 1.379 . S
C275 C276 1.390 . S
C275 H302 0.949 . S
C276 C275 1.390 . S
C276 C277 1.357 . S
C277 C276 1.357 . S
C277 C278 1.370 . S
C277 H303 0.950 . S
C278 N273 1.307 . S
C278 C277 1.370 . S
C278 H296 0.948 . S
Zn279 N273 2.020 . S
Zn279 O288 2.039 . S
Zn279 O294 2.034 . S
Zn279 O298 2.025 . S
Zn279 O300 2.024 . S
C280 O299 1.246 . S
C280 O300 1.249 . S
N281 C282 1.307 . S
N281 C283 1.333 . S
N281 Zn287 2.020 . S
C282 N281 1.307 . S
C282 C286 1.370 . S
C282 H293 0.948 . S
C283 N281 1.333 . S
C283 C284 1.379 . S
C283 H291 0.952 . S
C284 C283 1.379 . S
C284 C285 1.390 . S
C284 H304 0.949 . S
C285 C284 1.390 . S
C285 C286 1.357 . S
C286 C282 1.370 . S
C286 C285 1.357 . S
C286 H305 0.950 . S
Zn287 N281 2.020 . S
Zn287 O290 2.025 . S
Zn287 O295 2.024 . S
Zn287 O297 2.039 . S
Zn287 O299 2.034 . S
O288 C272 1.251 1_565 S
O288 Zn279 2.039 . S
C289 O294 1.246 . S
C289 O295 1.249 . S
O290 C272 1.254 1_565 S
O290 Zn287 2.025 . S
H291 C283 0.952 . S
H292 C274 0.952 . S
H293 C282 0.948 . S
O294 Zn279 2.034 . S
O294 C289 1.246 . S
O295 Zn287 2.024 . S
O295 C289 1.249 . S
H296 C278 0.948 . S
O297 Zn287 2.039 . S
O297 C301 1.251 . S
O298 Zn279 2.025 . S
O298 C301 1.254 . S
O299 C280 1.246 . S
O299 Zn287 2.034 . S
O300 Zn279 2.024 . S
O300 C280 1.249 . S
C301 O297 1.251 . S
C301 O298 1.254 . S
H302 C275 0.949 . S
H303 C277 0.950 . S
H304 C284 0.949 . S
H305 C286 0.950 . S
C306 O322 1.251 1_565 S
C306 O324 1.254 1_565 S
N307 C308 1.333 . S
N307 C312 1.307 . S
N307 Zn313 2.020 . S
C308 N307 1.333 . S
C308 C309 1.379 . S
C308 H326 0.952 . S
C309 C308 1.379 . S
C309 C310 1.390 . S
C309 H336 0.949 . S
C310 C309 1.390 . S
C310 C311 1.357 . S
C311 C310 1.357 . S
C311 C312 1.370 . S
C311 H337 0.950 . S
C312 N307 1.307 . S
C312 C311 1.370 . S
C312 H330 0.948 . S
Zn313 N307 2.020 . S
Zn313 O322 2.039 . S
Zn313 O328 2.034 . S
Zn313 O332 2.025 . S
Zn313 O334 2.024 . S
C314 O333 1.246 . S
C314 O334 1.249 . S
N315 C316 1.307 . S
N315 C317 1.333 . S
N315 Zn321 2.020 . S
C316 N315 1.307 . S
C316 C320 1.370 . S
C316 H327 0.948 . S
C317 N315 1.333 . S
C317 C318 1.379 . S
C317 H325 0.952 . S
C318 C317 1.379 . S
C318 C319 1.390 . S
C318 H338 0.949 . S
C319 C318 1.390 . S
C319 C320 1.357 . S
C320 C316 1.370 . S
C320 C319 1.357 . S
C320 H339 0.950 . S
Zn321 N315 2.020 . S
Zn321 O324 2.025 . S
Zn321 O329 2.024 . S
Zn321 O331 2.039 . S
Zn321 O333 2.034 . S
O322 C306 1.251 1_545 S
O322 Zn313 2.039 . S
C323 O328 1.246 . S
C323 O329 1.249 . S
O324 C306 1.254 1_545 S
O324 Zn321 2.025 . S
H325 C317 0.952 . S
H326 C308 0.952 . S
H327 C316 0.948 . S
O328 Zn313 2.034 . S
O328 C323 1.246 . S
O329 Zn321 2.024 . S
O329 C323 1.249 . S
H330 C312 0.948 . S
O331 Zn321 2.039 . S
O331 C335 1.251 . S
O332 Zn313 2.025 . S
O332 C335 1.254 . S
O333 C314 1.246 . S
O333 Zn321 2.034 . S
O334 Zn313 2.024 . S
O334 C314 1.249 . S
C335 O331 1.251 . S
C335 O332 1.254 . S
H336 C309 0.949 . S
H337 C311 0.950 . S
H338 C318 0.949 . S
H339 C320 0.950 . S
C340 O356 1.251 1_565 S
C340 O358 1.254 1_565 S
N341 C342 1.333 . S
N341 C346 1.307 . S
N341 Zn347 2.020 . S
C342 N341 1.333 . S
C342 C343 1.379 . S
C342 H360 0.952 . S
C343 C342 1.379 . S
C343 C344 1.390 . S
C343 H370 0.949 . S
C344 C343 1.390 . S
C344 C345 1.357 . S
C345 C344 1.357 . S
C345 C346 1.370 . S
C345 H371 0.950 . S
C346 N341 1.307 . S
C346 C345 1.370 . S
C346 H364 0.948 . S
Zn347 N341 2.020 . S
Zn347 O356 2.039 . S
Zn347 O362 2.034 . S
Zn347 O366 2.025 . S
Zn347 O368 2.024 . S
C348 O367 1.246 . S
C348 O368 1.249 . S
N349 C350 1.307 . S
N349 C351 1.333 . S
N349 Zn355 2.020 . S
C350 N349 1.307 . S
C350 C354 1.370 . S
C350 H361 0.948 . S
C351 N349 1.333 . S
C351 C352 1.379 . S
C351 H359 0.952 . S
C352 C351 1.379 . S
C352 C353 1.390 . S
C352 H372 0.949 . S
C353 C352 1.390 . S
C353 C354 1.357 . S
C354 C350 1.370 . S
C354 C353 1.357 . S
C354 H373 0.950 . S
Zn355 N349 2.020 . S
Zn355 O358 2.025 . S
Zn355 O363 2.024 . S
Zn355 O365 2.039 . S
Zn355 O367 2.034 . S
O356 C340 1.251 1_545 S
O356 Zn347 2.039 . S
C357 O362 1.246 . S
C357 O363 1.249 . S
O358 C340 1.254 1_545 S
O358 Zn355 2.025 . S
H359 C351 0.952 . S
H360 C342 0.952 . S
H361 C350 0.948 . S
O362 Zn347 2.034 . S
O362 C357 1.246 . S
O363 Zn355 2.024 . S
O363 C357 1.249 . S
H364 C346 0.948 . S
O365 Zn355 2.039 . S
O365 C369 1.251 . S
O366 Zn347 2.025 . S
O366 C369 1.254 . S
O367 C348 1.246 . S
O367 Zn355 2.034 . S
O368 Zn347 2.024 . S
O368 C348 1.249 . S
C369 O365 1.251 . S
C369 O366 1.254 . S
H370 C343 0.949 . S
H371 C345 0.950 . S
H372 C352 0.949 . S
H373 C354 0.950 . S
C374 O390 1.251 1_545 S
C374 O392 1.254 1_545 S
N375 C376 1.333 . S
N375 C380 1.307 . S
N375 Zn381 2.020 . S
C376 N375 1.333 . S
C376 C377 1.379 . S
C376 H394 0.952 . S
C377 C376 1.379 . S
C377 C378 1.390 . S
C377 H404 0.949 . S
C378 C377 1.390 . S
C378 C379 1.357 . S
C379 C378 1.357 . S
C379 C380 1.370 . S
C379 H405 0.950 . S
C380 N375 1.307 . S
C380 C379 1.370 . S
C380 H398 0.948 . S
Zn381 N375 2.020 . S
Zn381 O390 2.039 . S
Zn381 O396 2.034 . S
Zn381 O400 2.025 . S
Zn381 O402 2.024 . S
C382 O401 1.246 . S
C382 O402 1.249 . S
N383 C384 1.307 . S
N383 C385 1.333 . S
N383 Zn389 2.020 . S
C384 N383 1.307 . S
C384 C388 1.370 . S
C384 H395 0.948 . S
C385 N383 1.333 . S
C385 C386 1.379 . S
C385 H393 0.952 . S
C386 C385 1.379 . S
C386 C387 1.390 . S
C386 H406 0.949 . S
C387 C386 1.390 . S
C387 C388 1.357 . S
C388 C384 1.370 . S
C388 C387 1.357 . S
C388 H407 0.950 . S
Zn389 N383 2.020 . S
Zn389 O392 2.025 . S
Zn389 O397 2.024 . S
Zn389 O399 2.039 . S
Zn389 O401 2.034 . S
O390 C374 1.251 1_565 S
O390 Zn381 2.039 . S
C391 O396 1.246 . S
C391 O397 1.249 . S
O392 C374 1.254 1_565 S
O392 Zn389 2.025 . S
H393 C385 0.952 . S
H394 C376 0.952 . S
H395 C384 0.948 . S
O396 Zn381 2.034 . S
O396 C391 1.246 . S
O397 Zn389 2.024 . S
O397 C391 1.249 . S
H398 C380 0.948 . S
O399 Zn389 2.039 . S
O399 C403 1.251 . S
O400 Zn381 2.025 . S
O400 C403 1.254 . S
O401 C382 1.246 . S
O401 Zn389 2.034 . S
O402 Zn381 2.024 . S
O402 C382 1.249 . S
C403 O399 1.251 . S
C403 O400 1.254 . S
H404 C377 0.949 . S
H405 C379 0.950 . S
H406 C386 0.949 . S
H407 C388 0.950 . S
C408 O424 1.251 . S
C408 O426 1.254 . S
N409 C410 1.333 . S
N409 C414 1.307 . S
N409 Zn415 2.020 . S
C410 N409 1.333 . S
C410 C411 1.379 . S
C410 H428 0.952 . S
C411 C410 1.379 . S
C411 C412 1.390 . S
C411 H438 0.949 . S
C412 C411 1.390 . S
C412 C413 1.357 . S
C413 C412 1.357 . S
C413 C414 1.370 . S
C413 H439 0.950 . S
C414 N409 1.307 . S
C414 C413 1.370 . S
C414 H432 0.948 . S
Zn415 N409 2.020 . S
Zn415 O424 2.039 . S
Zn415 O430 2.034 . S
Zn415 O434 2.025 . S
Zn415 O436 2.024 . S
C416 O435 1.246 . S
C416 O436 1.249 . S
N417 C418 1.307 . S
N417 C419 1.333 . S
N417 Zn423 2.020 . S
C418 N417 1.307 . S
C418 C422 1.370 . S
C418 H429 0.948 . S
C419 N417 1.333 . S
C419 C420 1.379 . S
C419 H427 0.952 . S
C420 C419 1.379 . S
C420 C421 1.390 . S
C420 H440 0.949 . S
C421 C420 1.390 . S
C421 C422 1.357 . S
C422 C418 1.370 . S
C422 C421 1.357 . S
C422 H441 0.950 . S
Zn423 N417 2.020 . S
Zn423 O426 2.025 . S
Zn423 O431 2.024 . S
Zn423 O433 2.039 . S
Zn423 O435 2.034 . S
O424 C408 1.251 . S
O424 Zn415 2.039 . S
C425 O430 1.246 . S
C425 O431 1.249 . S
O426 C408 1.254 . S
O426 Zn423 2.025 . S
H427 C419 0.952 . S
H428 C410 0.952 . S
H429 C418 0.948 . S
O430 Zn415 2.034 . S
O430 C425 1.246 . S
O431 Zn423 2.024 . S
O431 C425 1.249 . S
H432 C414 0.948 . S
O433 Zn423 2.039 . S
O433 C437 1.251 1_545 S
O434 Zn415 2.025 . S
O434 C437 1.254 1_545 S
O435 C416 1.246 . S
O435 Zn423 2.034 . S
O436 Zn415 2.024 . S
O436 C416 1.249 . S
C437 O433 1.251 1_565 S
C437 O434 1.254 1_565 S
H438 C411 0.949 . S
H439 C413 0.950 . S
H440 C420 0.949 . S
H441 C422 0.950 . S
C442 O458 1.251 . S
C442 O460 1.254 . S
N443 C444 1.333 . S
N443 C448 1.307 . S
N443 Zn449 2.020 . S
C444 N443 1.333 . S
C444 C445 1.379 . S
C444 H462 0.952 . S
C445 C444 1.379 . S
C445 C446 1.390 . S
C445 H472 0.949 . S
C446 C445 1.390 . S
C446 C447 1.357 . S
C447 C446 1.357 . S
C447 C448 1.370 . S
C447 H473 0.950 . S
C448 N443 1.307 . S
C448 C447 1.370 . S
C448 H466 0.948 . S
Zn449 N443 2.020 . S
Zn449 O458 2.039 . S
Zn449 O464 2.034 . S
Zn449 O468 2.025 . S
Zn449 O470 2.024 . S
C450 O469 1.246 . S
C450 O470 1.249 . S
N451 C452 1.307 . S
N451 C453 1.333 . S
N451 Zn457 2.020 . S
C452 N451 1.307 . S
C452 C456 1.370 . S
C452 H463 0.948 . S
C453 N451 1.333 . S
C453 C454 1.379 . S
C453 H461 0.952 . S
C454 C453 1.379 . S
C454 C455 1.390 . S
C454 H474 0.949 . S
C455 C454 1.390 . S
C455 C456 1.357 . S
C456 C452 1.370 . S
C456 C455 1.357 . S
C456 H475 0.950 . S
Zn457 N451 2.020 . S
Zn457 O460 2.025 . S
Zn457 O465 2.024 . S
Zn457 O467 2.039 . S
Zn457 O469 2.034 . S
O458 C442 1.251 . S
O458 Zn449 2.039 . S
C459 O464 1.246 . S
C459 O465 1.249 . S
O460 C442 1.254 . S
O460 Zn457 2.025 . S
H461 C453 0.952 . S
H462 C444 0.952 . S
H463 C452 0.948 . S
O464 Zn449 2.034 . S
O464 C459 1.246 . S
O465 Zn457 2.024 . S
O465 C459 1.249 . S
H466 C448 0.948 . S
O467 Zn457 2.039 . S
O467 C471 1.251 1_565 S
O468 Zn449 2.025 . S
O468 C471 1.254 1_565 S
O469 C450 1.246 . S
O469 Zn457 2.034 . S
O470 Zn449 2.024 . S
O470 C450 1.249 . S
C471 O467 1.251 1_545 S
C471 O468 1.254 1_545 S
H472 C445 0.949 . S
H473 C447 0.950 . S
H474 C454 0.949 . S
H475 C456 0.950 . S
C476 O492 1.251 . S
C476 O494 1.254 . S
N477 C478 1.333 . S
N477 C482 1.307 . S
N477 Zn483 2.020 . S
C478 N477 1.333 . S
C478 C479 1.379 . S
C478 H496 0.952 . S
C479 C478 1.379 . S
C479 C480 1.390 . S
C479 H506 0.949 . S
C480 C479 1.390 . S
C480 C481 1.357 . S
C481 C480 1.357 . S
C481 C482 1.370 . S
C481 H507 0.950 . S
C482 N477 1.307 . S
C482 C481 1.370 . S
C482 H500 0.948 . S
Zn483 N477 2.020 . S
Zn483 O492 2.039 . S
Zn483 O498 2.034 . S
Zn483 O502 2.025 . S
Zn483 O504 2.024 . S
C484 O503 1.246 . S
C484 O504 1.249 . S
N485 C486 1.307 . S
N485 C487 1.333 . S
N485 Zn491 2.020 . S
C486 N485 1.307 . S
C486 C490 1.370 . S
C486 H497 0.948 . S
C487 N485 1.333 . S
C487 C488 1.379 . S
C487 H495 0.952 . S
C488 C487 1.379 . S
C488 C489 1.390 . S
C488 H508 0.949 . S
C489 C488 1.390 . S
C489 C490 1.357 . S
C490 C486 1.370 . S
C490 C489 1.357 . S
C490 H509 0.950 . S
Zn491 N485 2.020 . S
Zn491 O494 2.025 . S
Zn491 O499 2.024 . S
Zn491 O501 2.039 . S
Zn491 O503 2.034 . S
O492 C476 1.251 . S
O492 Zn483 2.039 . S
C493 O498 1.246 . S
C493 O499 1.249 . S
O494 C476 1.254 . S
O494 Zn491 2.025 . S
H495 C487 0.952 . S
H496 C478 0.952 . S
H497 C486 0.948 . S
O498 Zn483 2.034 . S
O498 C493 1.246 . S
O499 Zn491 2.024 . S
O499 C493 1.249 . S
H500 C482 0.948 . S
O501 Zn491 2.039 . S
O501 C505 1.251 1_565 S
O502 Zn483 2.025 . S
O502 C505 1.254 1_565 S
O503 C484 1.246 . S
O503 Zn491 2.034 . S
O504 Zn483 2.024 . S
O504 C484 1.249 . S
C505 O501 1.251 1_545 S
C505 O502 1.254 1_545 S
H506 C479 0.949 . S
H507 C481 0.950 . S
H508 C488 0.949 . S
H509 C490 0.950 . S
C510 O526 1.251 . S
C510 O528 1.254 . S
N511 C512 1.333 . S
N511 C516 1.307 . S
N511 Zn517 2.020 . S
C512 N511 1.333 . S
C512 C513 1.379 . S
C512 H530 0.952 . S
C513 C512 1.379 . S
C513 C514 1.390 . S
C513 H540 0.949 . S
C514 C513 1.390 . S
C514 C515 1.357 . S
C515 C514 1.357 . S
C515 C516 1.370 . S
C515 H541 0.950 . S
C516 N511 1.307 . S
C516 C515 1.370 . S
C516 H534 0.948 . S
Zn517 N511 2.020 . S
Zn517 O526 2.039 . S
Zn517 O532 2.034 . S
Zn517 O536 2.025 . S
Zn517 O538 2.024 . S
C518 O537 1.246 . S
C518 O538 1.249 . S
N519 C520 1.307 . S
N519 C521 1.333 . S
N519 Zn525 2.020 . S
C520 N519 1.307 . S
C520 C524 1.370 . S
C520 H531 0.948 . S
C521 N519 1.333 . S
C521 C522 1.379 . S
C521 H529 0.952 . S
C522 C521 1.379 . S
C522 C523 1.390 . S
C522 H542 0.949 . S
C523 C522 1.390 . S
C523 C524 1.357 . S
C524 C520 1.370 . S
C524 C523 1.357 . S
C524 H543 0.950 . S
Zn525 N519 2.020 . S
Zn525 O528 2.025 . S
Zn525 O533 2.024 . S
Zn525 O535 2.039 . S
Zn525 O537 2.034 . S
O526 C510 1.251 . S
O526 Zn517 2.039 . S
C527 O532 1.246 . S
C527 O533 1.249 . S
O528 C510 1.254 . S
O528 Zn525 2.025 . S
H529 C521 0.952 . S
H530 C512 0.952 . S
H531 C520 0.948 . S
O532 Zn517 2.034 . S
O532 C527 1.246 . S
O533 Zn525 2.024 . S
O533 C527 1.249 . S
H534 C516 0.948 . S
O535 Zn525 2.039 . S
O535 C539 1.251 1_545 S
O536 Zn517 2.025 . S
O536 C539 1.254 1_545 S
O537 C518 1.246 . S
O537 Zn525 2.034 . S
O538 Zn517 2.024 . S
O538 C518 1.249 . S
C539 O535 1.251 1_565 S
C539 O536 1.254 1_565 S
H540 C513 0.949 . S
H541 C515 0.950 . S
H542 C522 0.949 . S
H543 C524 0.950 . S
C8 C314 1.737 . S
C42 C280 1.736 . S
C382 C76 1.737 . S
C110 C348 1.736 . S
C459 C153 1.736 . S
C425 C187 1.736 . S
C527 C221 1.736 . S
C255 C493 1.736 . S
C81 C13 1.662 1_565 S
C115 C47 1.662 1_545 S
C208 C140 1.662 1_545 S
C174 C242 1.662 1_545 S
C353 C285 1.663 . S
C387 C319 1.663 . S
C412 C480 1.663 . S
C446 C514 1.663 . S
C183 C4 1.515 1_556 S
C149 C38 1.515 1_556 S
C72 C251 1.515 . S
C217 C106 1.515 . S
C276 C455 1.515 1_554 S
C421 C310 1.515 1_556 S
C344 C523 1.515 . S
C489 C378 1.515 . S
C51 C17 1.540 1_665 S
C119 C85 1.540 1_645 S
C178 C144 1.540 1_445 S
C212 C246 1.540 1_645 S
C323 C289 1.542 . S
C391 C357 1.542 . S
C416 C450 1.542 . S
C484 C518 1.542 . S
C29 C0 1.379 . S
C63 C34 1.379 . S
C97 C68 1.379 . S
C102 C131 1.379 . S
C136 C165 1.379 . S
C199 C170 1.379 . S
C204 C233 1.379 . S
C238 C267 1.379 . S
C272 C301 1.379 . S
C335 C306 1.379 . S
C340 C369 1.379 . S
C374 C403 1.379 . S
C408 C437 1.379 . S
C442 C471 1.379 . S
C505 C476 1.379 . S
C510 C539 1.379 . S
