# Generated by pormake.
# Topology dft, (4)-cn, num edge types: 1
# Building blocks:
#     Node 0, Type 0, BuildingBlock: NAHDIM_clean_sbu_0, # of connection points: 4
#     Node 1, Type 0, BuildingBlock: NAHDIM_clean_sbu_0, # of connection points: 4
#     Node 2, Type 0, BuildingBlock: NAHDIM_clean_sbu_0, # of connection points: 4
#     Node 3, Type 0, BuildingBlock: NAHDIM_clean_sbu_0, # of connection points: 4
#     Node 4, Type 0, BuildingBlock: NAHDIM_clean_sbu_0, # of connection points: 4
#     Node 5, Type 0, BuildingBlock: NAHDIM_clean_sbu_0, # of connection points: 4
#     Node 6, Type 0, BuildingBlock: NAHDIM_clean_sbu_0, # of connection points: 4
#     Node 7, Type 0, BuildingBlock: NAHDIM_clean_sbu_0, # of connection points: 4
#     Edge 8, Type (0, 0), BuildingBlock: MIFKUJ_clean_linker_0, # of connection points: 2
#     Edge 9, Type (0, 0), BuildingBlock: MIFKUJ_clean_linker_0, # of connection points: 2
#     Edge 10, Type (0, 0), BuildingBlock: MIFKUJ_clean_linker_0, # of connection points: 2
#     Edge 11, Type (0, 0), BuildingBlock: MIFKUJ_clean_linker_0, # of connection points: 2
#     Edge 12, Type (0, 0), BuildingBlock: MIFKUJ_clean_linker_0, # of connection points: 2
#     Edge 13, Type (0, 0), BuildingBlock: MIFKUJ_clean_linker_0, # of connection points: 2
#     Edge 14, Type (0, 0), BuildingBlock: MIFKUJ_clean_linker_0, # of connection points: 2
#     Edge 15, Type (0, 0), BuildingBlock: MIFKUJ_clean_linker_0, # of connection points: 2
#     Edge 16, Type (0, 0), BuildingBlock: MIFKUJ_clean_linker_0, # of connection points: 2
#     Edge 17, Type (0, 0), BuildingBlock: MIFKUJ_clean_linker_0, # of connection points: 2
#     Edge 18, Type (0, 0), BuildingBlock: MIFKUJ_clean_linker_0, # of connection points: 2
#     Edge 19, Type (0, 0), BuildingBlock: MIFKUJ_clean_linker_0, # of connection points: 2
#     Edge 20, Type (0, 0), BuildingBlock: MIFKUJ_clean_linker_0, # of connection points: 2
#     Edge 21, Type (0, 0), BuildingBlock: MIFKUJ_clean_linker_0, # of connection points: 2
#     Edge 22, Type (0, 0), BuildingBlock: MIFKUJ_clean_linker_0, # of connection points: 2
#     Edge 23, Type (0, 0), BuildingBlock: MIFKUJ_clean_linker_0, # of connection points: 2
# Relax obj value: 0.138
# Max RMSD: 0.138
# Mean RMSD: 0.138
data_MOF--net-dft--node1-NAHDIM_clean_sbu_0--edge1-MIFKUJ_clean_linker_0
_symmetry_space_group_name_H-M    P1
_symmetry_Int_Tables_number       1
_symmetry_cell_setting            triclinic
loop_
_symmetry_equiv_pos_as_xyz
'x, y, z'
_cell_length_a     45.044851
_cell_length_b     44.904502
_cell_length_c     50.157708
_cell_angle_alpha  90.041705
_cell_angle_beta   89.937394
_cell_angle_gamma 90.024062
loop_
_atom_site_label
_atom_site_type_symbol
_atom_site_fract_x
_atom_site_fract_y
_atom_site_fract_z
_atom_type_partial_charge
C0 C 0.35438 0.03871 0.22487 0.0
O1 O 0.3382 0.06173 0.23193 0.0
O2 O 0.28573 0.06339 0.20082 0.0
Zn3 Zn 0.30529 0.02535 0.18939 0.0
O4 O 0.31061 0.02594 0.14964 0.0
C5 C 0.26088 0.99279 0.21852 0.0
O6 O 0.25811 0.01825 0.23119 0.0
O7 O 0.34475 0.02085 0.20722 0.0
C8 C 0.3174 0.00253 0.13677 0.0
O9 O 0.32148 0.97752 0.14985 0.0
C10 C 0.26376 0.07336 0.18776 0.0
O11 O 0.25471 0.05885 0.16652 0.0
O12 O 0.27969 0.99055 0.19974 0.0
C13 C 0.00478 0.3563 0.7311 0.0
O14 O 0.98131 0.33936 0.73451 0.0
O15 O 0.98895 0.28386 0.71172 0.0
Zn16 Zn 0.02644 0.30533 0.70182 0.0
O17 O 0.02905 0.30835 0.66193 0.0
C18 C 0.05738 0.26803 0.73801 0.0
O19 O 0.03314 0.27277 0.75197 0.0
O20 O 0.02689 0.34627 0.71813 0.0
C21 C 0.02914 0.28449 0.64831 0.0
O22 O 0.02811 0.25879 0.6608 0.0
C23 C 0.9653 0.283 0.69799 0.0
O24 O 0.96412 0.29709 0.67507 0.0
O25 O 0.06035 0.28081 0.71556 0.0
C26 C 0.65472 0.9864 0.21543 0.0
O27 O 0.66163 0.95895 0.20879 0.0
O28 O 0.72598 0.95989 0.19852 0.0
Zn29 Zn 0.70931 -0.00036 0.18845 0.0
O30 O 0.70142 -9e-05 0.14904 0.0
C31 C 0.75825 0.02681 0.21593 0.0
O32 O 0.75832 0.00124 0.22862 0.0
O33 O 0.6719 0.00752 0.20869 0.0
C34 C 0.70001 0.02406 0.13594 0.0
O35 O 0.70311 0.04951 0.14857 0.0
C36 C 0.74819 0.95042 0.18544 0.0
O37 O 0.75822 0.96633 0.16537 0.0
O38 O 0.73911 0.03136 0.19778 0.0
C39 C 0.01035 0.66896 0.72228 0.0
O40 O 0.03414 0.68445 0.7283 0.0
O41 O 0.03246 0.74072 0.70108 0.0
Zn42 Zn 0.99498 0.72027 0.68968 0.0
O43 O 0.99493 0.71655 0.64978 0.0
C44 C 0.96303 0.75689 0.72509 0.0
O45 O 0.98595 0.74994 0.74002 0.0
O46 O 0.99115 0.67988 0.70651 0.0
C47 C 0.00032 0.73958 0.6359 0.0
O48 O 0.00512 0.76504 0.64808 0.0
C49 C 0.05834 0.7351 0.69237 0.0
O50 O 0.06208 0.71385 0.67467 0.0
O51 O 0.9612 0.746 0.70176 0.0
C52 C 0.36167 0.97705 0.77483 0.0
O53 O 0.35558 0.95028 0.78387 0.0
O54 O 0.28664 0.95268 0.78339 0.0
Zn55 Zn 0.30498 0.99015 0.79754 0.0
O56 O 0.31235 0.98735 0.83703 0.0
C57 C 0.25309 0.02677 0.803 0.0
O58 O 0.2461 0.00686 0.82114 0.0
O59 O 0.3431 -0.00209 0.77848 0.0
C60 C 0.31576 0.01109 0.85049 0.0
O61 O 0.31513 0.03688 0.83814 0.0
C62 C 0.27624 0.9324 0.79837 0.0
O63 O 0.27784 0.93553 0.82437 0.0
O64 O 0.27732 0.02406 0.79025 0.0
C65 C 0.00454 0.34956 0.27128 0.0
O66 O 0.02159 0.33121 0.25779 0.0
O67 O 0.03857 0.28422 0.29243 0.0
Zn68 Zn 0.00105 0.30046 0.30831 0.0
O69 O 0.00467 0.30336 0.34838 0.0
C70 C 0.97371 0.24513 0.29463 0.0
O71 O 0.00108 0.23574 0.29791 0.0
O72 O 0.99315 0.34104 0.29319 0.0
C73 C 0.00754 0.28011 0.36258 0.0
O74 O 0.00807 0.25395 0.3509 0.0
C75 C 0.06418 0.28405 0.30297 0.0
O76 O 0.06808 0.29624 0.32653 0.0
O77 O 0.96782 0.27255 0.29815 0.0
C78 C 0.66146 0.04076 0.76279 0.0
O79 O 0.67478 0.06638 0.75869 0.0
O80 O 0.73234 0.06494 0.78336 0.0
Zn81 Zn 0.71211 0.028 0.79673 0.0
O82 O 0.70482 0.03119 0.83619 0.0
C83 C 0.76228 0.98924 0.80252 0.0
O84 O 0.76917 0.00824 0.82146 0.0
O85 O 0.67343 0.02163 0.778 0.0
C86 C 0.69892 0.00828 0.85006 0.0
O87 O 0.69698 0.98224 0.83822 0.0
C88 C 0.74802 0.08069 0.79899 0.0
O89 O 0.75022 0.07296 0.82416 0.0
O90 O 0.73858 0.99311 0.78927 0.0
C91 C 0.99411 0.65952 0.28463 0.0
O92 O 0.97283 0.66886 0.30049 0.0
O93 O 0.97713 0.73843 0.28199 0.0
Zn94 Zn 0.01371 0.7178 0.2954 0.0
O95 O 0.01241 0.71436 0.33551 0.0
C96 C 0.04606 0.77009 0.28138 0.0
O97 O 0.01956 0.78177 0.28443 0.0
O98 O 0.01541 0.67702 0.27917 0.0
C99 C 0.01316 0.73772 0.34981 0.0
O100 O 0.01454 0.76383 0.33813 0.0
C101 C 0.95263 0.74063 0.29439 0.0
O102 O 0.94953 0.72783 0.31777 0.0
O103 O 0.04945 0.7422 0.28461 0.0
H104 H 0.32983 0.95634 0.10291 0.0
H105 H 0.3318 0.95757 0.05421 0.0
H106 H 0.31234 0.05162 0.05539 0.0
H107 H 0.30989 0.05053 0.10401 0.0
H108 H 0.27869 0.02356 0.01966 0.0
H109 H 0.38212 0.02626 0.04168 0.0
H110 H 0.42831 0.00943 0.06325 0.0
H111 H 0.4226 0.92587 0.02189 0.0
H112 H 0.37611 0.94206 0.00033 0.0
H113 H 0.31398 0.0575 0.88562 0.0
H114 H 0.31623 0.0552 0.93425 0.0
H115 H 0.3264 0.9598 0.93047 0.0
H116 H 0.32405 0.96183 0.88171 0.0
H117 H 0.36501 0.98763 0.96717 0.0
H118 H 0.26129 0.9857 0.94515 0.0
H119 H 0.21566 0.00349 0.92323 0.0
H120 H 0.22267 0.08688 0.96469 0.0
H121 H 0.26864 0.06976 0.98656 0.0
C122 C 0.3261 0.97732 0.09282 0.0
C123 C 0.3197 0.00334 0.10735 0.0
C124 C 0.32736 0.97801 0.06498 0.0
C125 C 0.32246 0.00475 0.05117 0.0
C126 C 0.31619 0.03075 0.06564 0.0
C127 C 0.31488 0.03009 0.09345 0.0
C128 C 0.32295 0.0055 0.02161 0.0
C129 C 0.29774 0.01609 0.00822 0.0
C130 C 0.34753 0.99507 0.00666 0.0
C131 C 0.37546 0.98526 0.01961 0.0
C132 C 0.39056 0.0042 0.03736 0.0
C133 C 0.41683 0.99479 0.04955 0.0
C134 C 0.42833 0.96657 0.044 0.0
C135 C 0.41363 0.94771 0.0262 0.0
C136 C 0.38733 0.957 0.01397 0.0
C137 C 0.31688 0.03603 0.89509 0.0
C138 C 0.3187 0.00982 0.87982 0.0
C139 C 0.31808 0.03476 0.92287 0.0
C140 C 0.32123 0.00731 0.9359 0.0
C141 C 0.32393 0.98119 0.92074 0.0
C142 C 0.32247 0.9824 0.89292 0.0
C143 C 0.32087 0.00587 0.96537 0.0
C144 C 0.34602 0.9951 0.9787 0.0
C145 C 0.2963 0.01624 0.9803 0.0
C146 C 0.26858 0.02656 0.96728 0.0
C147 C 0.25325 0.00793 0.94942 0.0
C148 C 0.2273 0.01788 0.93703 0.0
C149 C 0.21632 0.04633 0.94251 0.0
C150 C 0.23123 0.06487 0.96044 0.0
C151 C 0.25723 0.05504 0.97285 0.0
H152 H 0.19622 0.05399 0.93291 0.0
H153 H 0.44868 0.95933 0.05345 0.0
H154 H 0.03118 0.33382 0.61629 0.0
H155 H 0.0295 0.33541 0.56758 0.0
H156 H 0.02471 0.23949 0.56501 0.0
H157 H 0.02685 0.23766 0.61363 0.0
H158 H 0.06288 0.26045 0.52833 0.0
H159 H 0.9628 0.28256 0.55662 0.0
H160 H 0.92448 0.31037 0.58143 0.0
H161 H 0.94929 0.3908 0.54086 0.0
H162 H 0.98805 0.36353 0.51606 0.0
H163 H 0.00992 0.23459 0.39849 0.0
H164 H 0.01537 0.23803 0.44676 0.0
H165 H 0.01801 0.33388 0.44141 0.0
H166 H 0.01196 0.33067 0.39298 0.0
H167 H 0.98329 0.31635 0.48183 0.0
H168 H 0.08147 0.29396 0.45167 0.0
H169 H 0.11984 0.26635 0.42676 0.0
H170 H 0.09916 0.187 0.47075 0.0
H171 H 0.06036 0.21403 0.49568 0.0
C172 C 0.02987 0.31305 0.60536 0.0
C173 C 0.02904 0.2856 0.61884 0.0
C174 C 0.02879 0.31401 0.57752 0.0
C175 C 0.02662 0.28758 0.56269 0.0
C176 C 0.02635 0.26015 0.57608 0.0
C177 C 0.0275 0.25916 0.60388 0.0
C178 C 0.02439 0.28836 0.53321 0.0
C179 C 0.04531 0.27242 0.51816 0.0
C180 C 0.00196 0.3047 0.51994 0.0
C181 C 0.97852 0.32107 0.5347 0.0
C182 C 0.96023 0.30622 0.55314 0.0
C183 C 0.9384 0.32188 0.56717 0.0
C184 C 0.93451 0.35235 0.56278 0.0
C185 C 0.95236 0.36721 0.54427 0.0
C186 C 0.97425 0.35166 0.53021 0.0
C187 C 0.01168 0.25644 0.40753 0.0
C188 C 0.01064 0.28236 0.39187 0.0
C189 C 0.01493 0.25835 0.43514 0.0
C190 C 0.01757 0.2862 0.44765 0.0
C191 C 0.01612 0.31216 0.43214 0.0
C192 C 0.01272 0.31028 0.40448 0.0
C193 C 0.02155 0.28807 0.47696 0.0
C194 C 0.00099 0.30454 0.49197 0.0
C195 C 0.04436 0.27226 0.49021 0.0
C196 C 0.06784 0.25598 0.4754 0.0
C197 C 0.08496 0.27057 0.45591 0.0
C198 C 0.10681 0.25503 0.4418 0.0
C199 C 0.11189 0.22492 0.44713 0.0
C200 C 0.09518 0.21031 0.46663 0.0
C201 C 0.07328 0.22574 0.48078 0.0
H202 H 0.12881 0.21293 0.43618 0.0
H203 H 0.9176 0.36443 0.57367 0.0
H204 H 0.69022 0.96335 0.88602 0.0
H205 H 0.68709 0.96743 0.93452 0.0
H206 H 0.69681 0.06281 0.92882 0.0
H207 H 0.70051 0.05888 0.88035 0.0
H208 H 0.73249 0.04088 0.96604 0.0
H209 H 0.62957 0.03063 0.94379 0.0
H210 H 0.58582 0.00746 0.92277 0.0
H211 H 0.60064 0.92732 0.96746 0.0
H212 H 0.64475 0.94987 0.98849 0.0
H213 H 0.69911 0.07126 0.10148 0.0
H214 H 0.6957 0.06968 0.05284 0.0
H215 H 0.68972 0.97385 0.05541 0.0
H216 H 0.69282 0.9752 0.10403 0.0
H217 H 0.65073 0.99747 0.01983 0.0
H218 H 0.75459 0.00688 0.04047 0.0
H219 H 0.79855 0.02973 0.06142 0.0
H220 H 0.78189 0.11135 0.01946 0.0
H221 H 0.73755 0.08908 0.99853 0.0
C222 C 0.6915 0.98522 0.89506 0.0
C223 C 0.69561 0.01079 0.87932 0.0
C224 C 0.68957 0.98753 0.92279 0.0
C225 C 0.69141 0.01547 0.93528 0.0
C226 C 0.6953 0.04104 0.9196 0.0
C227 C 0.69734 0.03874 0.89189 0.0
C228 C 0.69049 0.01792 0.96477 0.0
C229 C 0.71435 0.03183 0.97776 0.0
C230 C 0.66719 0.00546 0.9801 0.0
C231 C 0.64063 0.99186 0.96753 0.0
C232 C 0.62364 0.00799 0.94898 0.0
C233 C 0.59875 0.99497 0.9371 0.0
C234 C 0.5905 0.96591 0.94373 0.0
C235 C 0.60708 0.94982 0.96232 0.0
C236 C 0.63201 0.96272 0.97425 0.0
C237 C 0.6969 0.04985 0.09172 0.0
C238 C 0.69642 0.02335 0.10662 0.0
C239 C 0.69504 0.04899 0.06393 0.0
C240 C 0.69281 0.02162 0.05053 0.0
C241 C 0.69147 0.9952 0.06537 0.0
C242 C 0.69335 0.99603 0.09315 0.0
C243 C 0.69269 0.02043 0.021 0.0
C244 C 0.66872 0.00669 0.00804 0.0
C245 C 0.71589 0.03302 0.00566 0.0
C246 C 0.74258 0.04642 0.01816 0.0
C247 C 0.76016 0.02978 0.03588 0.0
C248 C 0.78517 0.04261 0.04772 0.0
C249 C 0.79296 0.072 0.04184 0.0
C250 C 0.7758 0.0886 0.02404 0.0
C251 C 0.75074 0.07588 0.01217 0.0
H252 H 0.81233 0.0819 0.05102 0.0
H253 H 0.57122 0.95588 0.9345 0.0
H254 H 0.01898 0.78312 0.38554 0.0
H255 H 0.018 0.78012 0.43408 0.0
H256 H 0.00501 0.68509 0.42944 0.0
H257 H 0.00577 0.68788 0.38065 0.0
H258 H 0.96754 0.71174 0.46562 0.0
H259 H 0.07147 0.7112 0.44635 0.0
H260 H 0.11773 0.72895 0.42539 0.0
H261 H 0.10906 0.81279 0.46586 0.0
H262 H 0.06249 0.79569 0.48679 0.0
H263 H 0.99326 0.69013 0.60456 0.0
H264 H -0.00358 0.68714 0.55596 0.0
H265 H 0.01368 0.78155 0.55211 0.0
H266 H 0.01101 0.78468 0.60067 0.0
H267 H 0.05063 0.75128 0.52007 0.0
H268 H 0.94539 0.75317 0.53702 0.0
H269 H 0.8985 0.73614 0.55736 0.0
H270 H 0.90935 0.65027 0.52091 0.0
H271 H 0.95654 0.66668 0.50064 0.0
C272 C 0.01593 0.76155 0.39478 0.0
C273 C 0.01254 0.73572 0.37923 0.0
C274 C 0.01551 0.75987 0.42255 0.0
C275 C 0.01177 0.73234 0.43533 0.0
C276 C 0.00802 0.70653 0.41992 0.0
C277 C 0.00855 0.70816 0.39207 0.0
C278 C 0.01142 0.73078 0.46482 0.0
C279 C 0.9859 0.71989 0.47757 0.0
C280 C 0.03517 0.74196 0.48032 0.0
C281 C 0.06334 0.75224 0.46797 0.0
C282 C 0.07931 0.7335 0.45064 0.0
C283 C 0.10561 0.74343 0.43878 0.0
C284 C 0.11629 0.77201 0.44424 0.0
C285 C 0.10074 0.79067 0.46164 0.0
C286 C 0.07441 0.78086 0.47353 0.0
C287 C -0.00232 0.71028 0.59337 0.0
C288 C 0.00179 0.73767 0.60648 0.0
C289 C -0.00061 0.70853 0.56559 0.0
C290 C 0.00502 0.73418 0.55041 0.0
C291 C 0.00933 0.76149 0.56345 0.0
C292 C 0.00768 0.76325 0.59121 0.0
C293 C 0.00656 0.73264 0.52091 0.0
C294 C 0.03234 0.74292 0.50815 0.0
C295 C 0.98302 0.72094 0.50541 0.0
C296 C 0.95465 0.71104 0.51756 0.0
C297 C 0.9379 0.73057 0.53353 0.0
C298 C 0.91125 0.72105 0.54501 0.0
C299 C 0.901 0.69211 0.54049 0.0
C300 C 0.91735 0.67266 0.52443 0.0
C301 C 0.94404 0.68206 0.51293 0.0
H302 H 0.88035 0.68478 0.54939 0.0
H303 H 0.13665 0.77967 0.43503 0.0
H304 H 0.38808 0.07905 0.25241 0.0
H305 H 0.44025 0.07369 0.26539 0.0
H306 H 0.44044 0.9837 0.23526 0.0
H307 H 0.38856 0.98884 0.22216 0.0
H308 H 0.47429 0.99122 0.2828 0.0
H309 H 0.46034 0.03679 0.19477 0.0
H310 H 0.44068 0.07562 0.16485 0.0
H311 H 0.48569 0.14296 0.21029 0.0
H312 H 0.50531 0.10447 0.2407 0.0
H313 H 0.60802 0.94869 0.22331 0.0
H314 H 0.55867 0.9615 0.23958 0.0
H315 H 0.58758 0.05171 0.25419 0.0
H316 H 0.63686 0.03923 0.23715 0.0
H317 H 0.54036 0.05246 0.22567 0.0
H318 H 0.56541 0.00489 0.30626 0.0
H319 H 0.58551 0.96623 0.33605 0.0
H320 H 0.52112 0.90369 0.30691 0.0
H321 H 0.50089 0.94181 0.27662 0.0
C322 C 0.3991 0.05795 0.24901 0.0
C323 C 0.38443 0.03451 0.23589 0.0
C324 C 0.42882 0.05492 0.2565 0.0
C325 C 0.44411 0.02836 0.25112 0.0
C326 C 0.42894 0.00432 0.23965 0.0
C327 C 0.39939 0.00741 0.23195 0.0
C328 C 0.47667 0.02661 0.25399 0.0
C329 C 0.48891 0.00461 0.27047 0.0
C330 C 0.49559 0.04481 0.2385 0.0
C331 C 0.48394 0.06786 0.22017 0.0
C332 C 0.46584 0.05991 0.19849 0.0
C333 C 0.45474 0.08183 0.18143 0.0
C334 C 0.46184 0.11175 0.18572 0.0
C335 C 0.48014 0.11978 0.20704 0.0
C336 C 0.49126 0.09793 0.22418 0.0
C337 C 0.60404 0.97112 0.23043 0.0
C338 C 0.62618 0.99305 0.22862 0.0
C339 C 0.57586 0.97837 0.23999 0.0
C340 C 0.56944 0.00754 0.24834 0.0
C341 C 0.59202 0.02907 0.24786 0.0
C342 C 0.62014 0.02191 0.23805 0.0
C343 C 0.53833 0.01629 0.25394 0.0
C344 C 0.52618 0.03961 0.23886 0.0
C345 C 0.51965 -0.00062 0.27088 0.0
C346 C 0.5317 0.97625 0.28905 0.0
C347 C 0.55566 0.98284 0.30604 0.0
C348 C 0.56706 0.96102 0.32305 0.0
C349 C 0.55462 0.93252 0.32335 0.0
C350 C 0.53073 0.92578 0.30666 0.0
C351 C 0.51924 0.94752 0.2896 0.0
H352 H 0.56348 0.91565 0.33654 0.0
H353 H 0.45324 0.1287 0.17249 0.0
H354 H 0.95657 0.38893 0.74628 0.0
H355 H 0.95463 0.44261 0.75435 0.0
H356 H 0.04943 0.44839 0.74356 0.0
H357 H 0.0516 0.39473 0.73507 0.0
H358 H 0.02284 0.48632 0.78683 0.0
H359 H 0.01376 0.46088 0.69235 0.0
H360 H 0.99085 0.43369 0.65491 0.0
H361 H 0.90592 0.47125 0.67453 0.0
H362 H 0.92831 0.49832 0.71237 0.0
H363 H 0.05347 0.63217 0.74147 0.0
H364 H 0.04874 0.57943 0.7523 0.0
H365 H 0.95457 0.58374 0.73675 0.0
H366 H 0.95948 0.63622 0.72475 0.0
H367 H 0.97589 0.53997 0.71139 0.0
H368 H 0.98455 0.57175 0.8012 0.0
H369 H 0.00526 0.59846 0.8399 0.0
H370 H 0.08687 0.54985 0.83207 0.0
H371 H 0.06682 0.52313 0.79307 0.0
C372 C 0.9771 0.4015 0.74612 0.0
C373 C 0.00421 0.38773 0.73969 0.0
C374 C 0.97593 0.43211 0.7508 0.0
C375 C 0.00187 0.4493 0.74944 0.0
C376 C 0.02922 0.43536 0.74479 0.0
C377 C 0.03037 0.4048 0.73975 0.0
C378 C 2e-05 0.48208 0.74938 0.0
C379 C 0.01273 0.49825 0.77038 0.0
C380 C 0.986 0.49731 0.72824 0.0
C381 C 0.97263 0.48131 0.70535 0.0
C382 C 0.99016 0.46312 0.68882 0.0
C383 C 0.97728 0.44777 0.6675 0.0
C384 C 0.94693 0.45066 0.66239 0.0
C385 C 0.92941 0.46898 0.67854 0.0
C386 C 0.94219 0.48434 0.69992 0.0
C387 C 0.03169 0.62197 0.74076 0.0
C388 C 0.00689 0.63819 0.73202 0.0
C389 C 0.02895 0.59184 0.74716 0.0
C390 C 0.00124 0.57759 0.74557 0.0
C391 C 0.9762 0.5942 0.73805 0.0
C392 C 0.97903 0.62417 0.73119 0.0
C393 C -0.00103 0.54482 0.74886 0.0
C394 C 0.98558 0.52843 0.72827 0.0
C395 C 0.01201 0.52954 0.77061 0.0
C396 C 0.02424 0.54558 0.79405 0.0
C397 C 0.007 0.56691 0.80759 0.0
C398 C 0.01861 0.58203 0.82961 0.0
C399 C 0.04738 0.5759 0.8384 0.0
C400 C 0.06459 0.55459 0.82522 0.0
C401 C 0.0531 0.53942 0.80317 0.0
H402 H 0.05633 0.58763 0.85546 0.0
H403 H 0.93699 0.43876 0.64588 0.0
H404 H 0.63085 0.98845 0.7634 0.0
H405 H 0.57922 0.98044 0.75104 0.0
H406 H 0.57256 0.07179 0.72512 0.0
H407 H 0.62443 0.08011 0.73768 0.0
H408 H 0.53089 0.0579 0.76116 0.0
H409 H 0.56455 0.01604 0.67998 0.0
H410 H 0.59512 0.98467 0.65041 0.0
H411 H 0.56131 0.90598 0.6884 0.0
H412 H 0.53086 0.93687 0.71849 0.0
H413 H 0.3784 0.02772 0.74876 0.0
H414 H 0.42805 0.04067 0.73292 0.0
H415 H 0.46023 0.95449 0.75756 0.0
H416 H 0.41049 0.94107 0.77283 0.0
H417 H 0.48725 0.97254 0.71203 0.0
H418 H 0.4645 0.01451 0.79909 0.0
H419 H 0.4352 0.04485 0.83058 0.0
H420 H 0.45032 0.12251 0.78252 0.0
H421 H 0.47941 0.0925 0.75057 0.0
C422 C 0.6186 0.00674 0.75464 0.0
C423 C 0.63159 0.03503 0.75183 0.0
C424 C 0.58914 0.00203 0.74732 0.0
C425 C 0.57212 0.02547 0.73697 0.0
C426 C 0.5854 0.05339 0.73296 0.0
C427 C 0.615 0.0581 0.74018 0.0
C428 C 0.53966 0.02166 0.73409 0.0
C429 C 0.52125 0.03979 0.74974 0.0
C430 C 0.52722 0.9976 0.71968 0.0
C431 C 0.54548 0.97884 0.7016 0.0
C432 C 0.56378 0.99206 0.68218 0.0
C433 C 0.58107 0.97435 0.66529 0.0
C434 C 0.58018 0.94335 0.66754 0.0
C435 C 0.56196 0.93 0.68667 0.0
C436 C 0.54464 0.9476 0.70362 0.0
C437 C 0.39595 0.01135 0.75046 0.0
C438 C 0.39069 0.98355 0.76246 0.0
C439 C 0.42428 0.01878 0.74135 0.0
C440 C 0.44789 -0.00127 0.7445 0.0
C441 C 0.4423 0.9703 0.75497 0.0
C442 C 0.4139 0.96273 0.76384 0.0
C443 C 0.47886 0.00828 0.73966 0.0
C444 C 0.49689 0.99119 0.72271 0.0
C445 C 0.49113 0.03316 0.75304 0.0
C446 C 0.47378 0.05121 0.77229 0.0
C447 C 0.46138 0.03801 0.79516 0.0
C448 C 0.44485 0.05515 0.81309 0.0
C449 C 0.44081 0.08557 0.8085 0.0
C450 C 0.45339 0.09893 0.78601 0.0
C451 C 0.46991 0.08188 0.76799 0.0
H452 H 0.42801 0.0988 0.82242 0.0
H453 H 0.59358 0.92968 0.65445 0.0
H454 H 0.96411 0.38993 0.28939 0.0
H455 H 0.96118 0.44274 0.27838 0.0
H456 H 0.03324 0.43258 0.22239 0.0
H457 H 0.03628 0.37947 0.23325 0.0
H458 H 0.04302 0.47674 0.25909 0.0
H459 H 0.96703 0.45021 0.19854 0.0
H460 H 0.92163 0.4252 0.1827 0.0
H461 H 0.86995 0.47235 0.241 0.0
H462 H 0.9151 0.49733 0.25749 0.0
H463 H 0.03184 0.63418 0.24821 0.0
H464 H 0.03259 0.58222 0.23339 0.0
H465 H 0.95676 0.5634 0.28328 0.0
H466 H 0.95538 0.61524 0.29757 0.0
H467 H 0.95221 0.53422 0.23731 0.0
H468 H 0.02924 0.5502 0.30402 0.0
H469 H 0.07443 0.57403 0.32184 0.0
H470 H 0.12364 0.54536 0.25308 0.0
H471 H 0.07861 0.52165 0.23473 0.0
C472 C 0.97905 0.3988 0.27443 0.0
C473 C 0.00058 0.38062 0.26234 0.0
C474 C 0.97719 0.42894 0.268 0.0
C475 C -0.00313 0.44149 0.24943 0.0
C476 C 0.01777 0.42323 0.23666 0.0
C477 C 0.01945 0.39293 0.24289 0.0
C478 C -0.00241 0.47418 0.24593 0.0
C479 C 0.02342 0.48935 0.25359 0.0
C480 C 0.97185 0.49051 0.23917 0.0
C481 C 0.94454 0.47555 0.22935 0.0
C482 C 0.94603 0.45509 0.20813 0.0
C483 C 0.92032 0.44094 0.19901 0.0
C484 C 0.89293 0.44716 0.21085 0.0
C485 C 0.89119 0.46757 0.23183 0.0
C486 C 0.91683 0.48177 0.24105 0.0
C487 C 0.01518 0.619 0.25583 0.0
C488 C 0.99376 0.62871 0.2743 0.0
C489 C 0.01564 0.58934 0.24734 0.0
C490 C 0.99497 0.56886 0.2575 0.0
C491 C 0.97291 0.57882 0.27514 0.0
C492 C 0.97227 0.60845 0.28343 0.0
C493 C -0.00272 0.53664 0.25148 0.0
C494 C 0.97204 0.5216 0.24206 0.0
C495 C 0.02349 0.52033 0.25682 0.0
C496 C 0.05052 0.53452 0.26786 0.0
C497 C 0.04966 0.54919 0.29263 0.0
C498 C 0.07524 0.56263 0.30283 0.0
C499 C 0.10187 0.5613 0.28856 0.0
C500 C 0.10299 0.54644 0.26409 0.0
C501 C 0.07745 0.53299 0.25378 0.0
H502 H 0.12165 0.57172 0.29649 0.0
H503 H 0.87305 0.43618 0.20375 0.0
H504 H 0.12028 0.27267 0.32174 0.0
H505 H 0.15811 0.24099 0.30096 0.0
H506 H 0.10062 0.22688 0.2334 0.0
H507 H 0.06281 0.25815 0.25392 0.0
H508 H 0.12065 0.1751 0.25419 0.0
H509 H 0.16172 0.26965 0.22773 0.0
H510 H 0.18115 0.32033 0.23505 0.0
H511 H 0.25053 0.28522 0.28453 0.0
H512 H 0.23125 0.23432 0.27779 0.0
H513 H 0.214 0.09838 0.1663 0.0
H514 H 0.18381 0.13837 0.18514 0.0
H515 H 0.24513 0.14701 0.25069 0.0
H516 H 0.27568 0.10716 0.23187 0.0
H517 H 0.22493 0.20166 0.23279 0.0
H518 H 0.18459 0.10776 0.25967 0.0
H519 H 0.16557 0.05677 0.25319 0.0
H520 H 0.09473 0.09051 0.20462 0.0
H521 H 0.11365 0.14168 0.21042 0.0
C522 C 0.11588 0.26314 0.3023 0.0
C523 C 0.08846 0.26772 0.28958 0.0
C524 C 0.13754 0.24513 0.29044 0.0
C525 C 0.1321 0.23161 0.26566 0.0
C526 C 0.10517 0.23702 0.25257 0.0
C527 C 0.0836 0.25494 0.26435 0.0
C528 C 0.15339 0.2101 0.25408 0.0
C529 C 0.14333 0.18104 0.24917 0.0
C530 C 0.18323 0.21763 0.24842 0.0
C531 C 0.19484 0.24821 0.25249 0.0
C532 C 0.18096 0.27275 0.24037 0.0
C533 C 0.19198 0.30152 0.24437 0.0
C534 C 0.21701 0.306 0.26031 0.0
C535 C 0.23111 0.28171 0.27222 0.0
C536 C 0.22016 0.2529 0.2683 0.0
C537 C 0.22127 0.10897 0.18457 0.0
C538 C 0.24705 0.09938 0.19775 0.0
C539 C 0.20398 0.13179 0.19531 0.0
C540 C 0.21207 0.1453 0.21948 0.0
C541 C 0.23851 0.13678 0.23205 0.0
C542 C 0.25584 0.11393 0.22131 0.0
C543 C 0.19192 0.16695 0.23241 0.0
C544 C 0.20222 0.19583 0.23777 0.0
C545 C 0.16226 0.15928 0.23868 0.0
C546 C 0.15073 0.12853 0.23525 0.0
C547 C 0.16511 0.10429 0.24741 0.0
C548 C 0.15433 0.07535 0.24389 0.0
C549 C 0.129 0.0704 0.22844 0.0
C550 C 0.11438 0.09438 0.21654 0.0
C551 C 0.12511 0.12335 0.21994 0.0
H552 H 0.12068 0.04798 0.22575 0.0
H553 H 0.22552 0.32829 0.26337 0.0
H554 H 0.91404 0.26886 0.67133 0.0
H555 H 0.87324 0.23747 0.68735 0.0
H556 H 0.91784 0.22715 0.76288 0.0
H557 H 0.95874 0.25783 0.74695 0.0
H558 H 0.90065 0.17504 0.74427 0.0
H559 H 0.85608 0.27162 0.75574 0.0
H560 H 0.83901 0.32129 0.74151 0.0
H561 H 0.78032 0.28106 0.68448 0.0
H562 H 0.79735 0.23113 0.69813 0.0
H563 H 0.79041 0.11278 0.82507 0.0
H564 H 0.82339 0.1505 0.80629 0.0
H565 H 0.77899 0.14306 0.73046 0.0
H566 H 0.74581 0.10511 0.74904 0.0
H567 H 0.79416 0.20328 0.74609 0.0
H568 H 0.83856 0.10662 0.73574 0.0
H569 H 0.85517 0.05722 0.75112 0.0
H570 H 0.91443 0.09854 0.80704 0.0
H571 H 0.89779 0.14822 0.79229 0.0
C572 C 0.915 0.26006 0.69141 0.0
C573 C 0.93967 0.26566 0.70782 0.0
C574 C 0.89164 0.24225 0.70056 0.0
C575 C 0.89248 0.23008 0.72634 0.0
C576 C 0.9168 0.23621 0.74288 0.0
C577 C 0.94016 0.25378 0.73373 0.0
C578 C 0.8689 0.20969 0.73586 0.0
C579 C 0.87742 0.18141 0.74493 0.0
C580 C 0.83849 0.21766 0.73599 0.0
C581 C 0.82824 0.24765 0.72775 0.0
C582 C 0.83973 0.27337 0.74 0.0
C583 C 0.83002 0.30157 0.73207 0.0
C584 C 0.80866 0.30433 0.71204 0.0
C585 C 0.79691 0.27889 0.69995 0.0
C586 C 0.80656 0.25063 0.70779 0.0
C587 C 0.78735 0.1194 0.80449 0.0
C588 C 0.76573 0.10572 0.78844 0.0
C589 C 0.80622 0.14094 0.79382 0.0
C590 C 0.80373 0.14925 0.76697 0.0
C591 C 0.7812 0.13685 0.75123 0.0
C592 C 0.76241 0.1151 0.76185 0.0
C593 C 0.82617 0.16913 0.75497 0.0
C594 C 0.81741 0.19707 0.74531 0.0
C595 C 0.85646 0.16098 0.75435 0.0
C596 C 0.86672 0.13113 0.76308 0.0
C597 C 0.85496 0.10517 0.75147 0.0
C598 C 0.8644 0.07712 0.76005 0.0
C599 C 0.88579 0.07475 0.78009 0.0
C600 C 0.89783 0.10042 0.79154 0.0
C601 C 0.88842 0.12853 0.78306 0.0
H602 H 0.89307 0.05301 0.7867 0.0
H603 H 0.80117 0.32619 0.70594 0.0
H604 H 0.89573 0.7474 0.31297 0.0
H605 H 0.85708 0.78013 0.29496 0.0
H606 H 0.91682 0.80842 0.23266 0.0
H607 H 0.95539 0.77596 0.25036 0.0
H608 H 0.88975 0.85535 0.25874 0.0
H609 H 0.86255 0.76139 0.21839 0.0
H610 H 0.84861 0.70828 0.21879 0.0
H611 H 0.77181 0.72849 0.26624 0.0
H612 H 0.78553 0.78171 0.26644 0.0
H613 H 0.80107 0.92955 0.1667 0.0
H614 H 0.83179 0.89042 0.1861 0.0
H615 H 0.76431 0.87306 0.24513 0.0
H616 H 0.73328 0.9123 0.22586 0.0
H617 H 0.79221 0.82072 0.22468 0.0
H618 H 0.81735 0.91426 0.26378 0.0
H619 H 0.83019 0.96762 0.26355 0.0
H620 H 0.91019 0.94851 0.22017 0.0
H621 H 0.89754 0.89503 0.21973 0.0
C622 C 0.90055 0.76047 0.29535 0.0
C623 C 0.92862 0.75911 0.28311 0.0
C624 C 0.87844 0.77906 0.28507 0.0
C625 C 0.88416 0.7966 0.26248 0.0
C626 C 0.91204 0.79508 0.25014 0.0
C627 C 0.93401 0.77642 0.26025 0.0
C628 C 0.86155 0.81732 0.25197 0.0
C629 C 0.86853 0.84775 0.25108 0.0
C630 C 0.83353 0.80743 0.24282 0.0
C631 C 0.82526 0.77547 0.2427 0.0
C632 C 0.84284 0.75447 0.22912 0.0
C633 C 0.83495 0.72436 0.22919 0.0
C634 C 0.80939 0.715 0.2426 0.0
C635 C 0.79163 0.73576 0.25591 0.0
C636 C 0.79944 0.7659 0.25592 0.0
C637 C 0.79252 0.91715 0.18355 0.0
C638 C 0.7649 0.92424 0.19494 0.0
C639 C 0.81012 0.89484 0.19462 0.0
C640 C 0.8004 0.87922 0.21721 0.0
C641 C 0.77215 0.88498 0.22772 0.0
C642 C 0.75455 0.90746 0.21674 0.0
C643 C 0.8208 0.85853 0.23088 0.0
C644 C 0.81336 0.82827 0.23251 0.0
C645 C 0.84837 0.86855 0.24094 0.0
C646 C 0.85634 0.90065 0.2415 0.0
C647 C 0.83756 0.92145 0.254 0.0
C648 C 0.84482 0.95172 0.25402 0.0
C649 C 0.87095 0.96147 0.24179 0.0
C650 C 0.88993 0.94093 0.2296 0.0
C651 C 0.88273 0.91062 0.22948 0.0
H652 H 0.87652 0.98492 0.24181 0.0
H653 H 0.80331 0.69168 0.24263 0.0
H654 H 0.11764 0.72669 0.68209 0.0
H655 H 0.15927 0.75672 0.69861 0.0
H656 H 0.09796 0.813 0.74141 0.0
H657 H 0.05648 0.78341 0.72509 0.0
H658 H 0.13819 0.84516 0.7133 0.0
H659 H 0.13705 0.76198 0.77413 0.0
H660 H 0.1388 0.70883 0.78634 0.0
H661 H 0.22531 0.70107 0.75098 0.0
H662 H 0.22389 0.75413 0.73822 0.0
H663 H 0.24468 0.88914 0.82429 0.0
H664 H 0.21274 0.85124 0.80421 0.0
H665 H 0.23952 0.88009 0.72577 0.0
H666 H 0.27115 0.9183 0.7456 0.0
H667 H 0.21891 0.80406 0.76962 0.0
H668 H 0.17744 0.88273 0.68725 0.0
H669 H 0.17345 0.93662 0.67821 0.0
H670 H 0.16757 0.95432 0.76219 0.0
H671 H 0.1711 0.90055 0.77169 0.0
C672 C 0.11307 0.74546 0.69503 0.0
C673 C 0.08378 0.75268 0.70226 0.0
C674 C 0.13686 0.7625 0.70449 0.0
C675 C 0.13162 0.787 0.72125 0.0
C676 C 0.10243 0.79422 0.72842 0.0
C677 C 0.07876 0.7772 0.71913 0.0
C678 C 0.15633 0.80558 0.73126 0.0
C679 C 0.15598 0.83611 0.72542 0.0
C680 C 0.17933 0.79379 0.74727 0.0
C681 C 0.18021 0.76192 0.75494 0.0
C682 C 0.15633 0.74887 0.76874 0.0
C683 C 0.15728 0.71878 0.7758 0.0
C684 C 0.18211 0.70156 0.76936 0.0
C685 C 0.20607 0.71442 0.7559 0.0
C686 C 0.20521 0.74451 0.74876 0.0
C687 C 0.2441 0.88716 0.80277 0.0
C688 C 0.26004 0.90704 0.78652 0.0
C689 C 0.22597 0.86539 0.79134 0.0
C690 C 0.2235 0.86319 0.76353 0.0
C691 C 0.24085 0.88173 0.74729 0.0
C692 C 0.25887 0.90357 0.75867 0.0
C693 C 0.20068 0.84358 0.75164 0.0
C694 C 0.20139 0.81295 0.75711 0.0
C695 C 0.17764 0.85532 0.73563 0.0
C696 C 0.17488 0.88766 0.73016 0.0
C697 C 0.17518 0.89814 0.70376 0.0
C698 C 0.17301 0.92865 0.69856 0.0
C699 C 0.17037 0.94889 0.71961 0.0
C700 C 0.16973 0.93864 0.74591 0.0
C701 C 0.17184 0.90815 0.75121 0.0
H702 H 0.16875 0.9725 0.71555 0.0
H703 H 0.18281 0.67827 0.77486 0.0
H704 H 0.75476 0.94667 0.76417 0.0
H705 H 0.78812 0.90566 0.75314 0.0
H706 H 0.84777 0.93325 0.81572 0.0
H707 H 0.8147 0.97469 0.82666 0.0
H708 H 0.87738 0.92165 0.7707 0.0
H709 H 0.80405 0.87207 0.82333 0.0
H710 H 0.75359 0.85724 0.83701 0.0
H711 H 0.73981 0.81534 0.76104 0.0
H712 H 0.79007 0.8303 0.74675 0.0
H713 H 0.96598 0.79128 0.76984 0.0
H714 H 0.93078 0.82934 0.78442 0.0
H715 H 0.8748 0.8098 0.71694 0.0
H716 H 0.91 0.77168 0.70205 0.0
H717 H 0.84355 0.81659 0.76565 0.0
H718 H 0.91699 0.86785 0.71311 0.0
H719 H 0.96781 0.88239 0.70027 0.0
H720 H 0.98161 0.92083 0.77769 0.0
H721 H 0.93097 0.9061 0.79113 0.0
C722 C 0.77491 0.94398 0.77568 0.0
C723 C 0.78208 0.96393 0.79632 0.0
C724 C 0.79389 0.92043 0.76942 0.0
C725 C 0.82025 0.91622 0.78381 0.0
C726 C 0.82748 0.93609 0.80441 0.0
C727 C 0.80853 0.9597 0.81067 0.0
C728 C 0.84068 0.89159 0.77678 0.0
C729 C 0.87009 0.89863 0.77003 0.0
C730 C 0.83098 0.86164 0.77535 0.0
C731 C 0.80074 0.85257 0.78388 0.0
C732 C 0.79018 0.85991 0.80945 0.0
C733 C 0.76162 0.85144 0.81733 0.0
C734 C 0.74347 0.83542 0.79988 0.0
C735 C 0.75388 0.82778 0.77453 0.0
C736 C 0.78241 0.83623 0.76653 0.0
C737 C 0.94609 0.7949 0.75817 0.0
C738 C 0.94083 0.77858 0.73471 0.0
C739 C 0.92607 0.8167 0.7665 0.0
C740 C 0.90039 0.82248 0.75161 0.0
C741 C 0.89455 0.80563 0.72865 0.0
C742 C 0.91472 0.78396 0.72015 0.0
C743 C 0.88009 0.84675 0.7596 0.0
C744 C 0.85076 0.83963 0.76648 0.0
C745 C 0.88988 0.87661 0.76129 0.0
C746 C 0.9203 0.88558 0.75322 0.0
C747 C 0.93095 0.87916 0.72748 0.0
C748 C 0.95971 0.88749 0.72007 0.0
C749 C 0.97796 0.90245 0.73818 0.0
C750 C 0.96746 0.90919 0.7637 0.0
C751 C 0.93872 0.90088 0.77122 0.0
H752 H 0.00022 0.90888 0.73241 0.0
H753 H 0.72138 0.82887 0.80602 0.0
H754 H 0.26847 0.93444 0.20453 0.0
H755 H 0.237 0.89214 0.21659 0.0
H756 H 0.17905 0.95105 0.26045 0.0
H757 H 0.21096 0.99318 0.24927 0.0
H758 H 0.18704 0.90225 0.28763 0.0
H759 H 0.16272 0.92487 0.1961 0.0
H760 H 0.17345 0.93278 0.14839 0.0
H761 H 0.20706 0.84358 0.14209 0.0
H762 H 0.19686 0.83527 0.18987 0.0
H763 H 0.04852 0.83024 0.28643 0.0
H764 H 0.09046 0.86299 0.27712 0.0
H765 H 0.14325 0.78735 0.25345 0.0
H766 H 0.10125 0.75408 0.26313 0.0
H767 H 0.14349 0.83826 0.21706 0.0
H768 H 0.1605 0.81482 0.30875 0.0
H769 H 0.14656 0.80821 0.35593 0.0
H770 H 0.12351 0.90079 0.36137 0.0
H771 H 0.13687 0.90787 0.31409 0.0
C772 C 0.24904 0.93834 0.21678 0.0
C773 C 0.24209 0.96713 0.22587 0.0
C774 C 0.23103 0.91417 0.22359 0.0
C775 C 0.20544 0.91847 0.23913 0.0
C776 C 0.19871 0.94717 0.24848 0.0
C777 C 0.21692 0.97126 0.242 0.0
C778 C 0.18528 0.8933 0.24543 0.0
C779 C 0.17741 0.88839 0.27216 0.0
C780 C 0.17331 0.87464 0.22533 0.0
C781 C 0.17936 0.87957 0.19661 0.0
C782 C 0.17261 0.90703 0.18458 0.0
C783 C 0.17856 0.91157 0.15752 0.0
C784 C 0.19102 0.88873 0.14224 0.0
C785 C 0.19747 0.86127 0.15397 0.0
C786 C 0.19159 0.85662 0.18103 0.0
C787 C 0.06902 0.82049 0.27925 0.0
C788 C 0.07162 0.78958 0.27549 0.0
C789 C 0.09298 0.83923 0.27406 0.0
C790 C 0.1199 0.82749 0.26481 0.0
C791 C 0.12259 0.79671 0.26069 0.0
C792 C 0.09867 0.7778 0.26626 0.0
C793 C 0.14485 0.84784 0.25908 0.0
C794 C 0.15357 0.85183 0.2325 0.0
C795 C 0.15732 0.8659 0.27926 0.0
C796 C 0.1495 0.86182 0.30779 0.0
C797 C 0.15224 0.83372 0.31994 0.0
C798 C 0.14448 0.8299 0.34672 0.0
C799 C 0.13411 0.85405 0.36162 0.0
C800 C 0.13154 0.8821 0.3498 0.0
C801 C 0.13924 0.88603 0.32301 0.0
H802 H 0.1281 0.85104 0.38235 0.0
H803 H 0.19561 0.89229 0.1213 0.0
H804 H 0.0532 0.23057 0.7807 0.0
H805 H 0.08747 0.19094 0.79325 0.0
H806 H 0.14572 0.21569 0.72859 0.0
H807 H 0.11113 0.25496 0.71547 0.0
H808 H 0.13695 0.15756 0.7289 0.0
H809 H 0.16288 0.23078 0.79478 0.0
H810 H 0.15341 0.26677 0.83096 0.0
H811 H 0.11803 0.19681 0.87992 0.0
H812 H 0.12693 0.16045 0.84389 0.0
H813 H 0.26071 0.07064 0.76598 0.0
H814 H 0.22783 0.1125 0.75665 0.0
H815 H 0.16768 0.08254 0.818 0.0
H816 H 0.20064 0.04058 0.8277 0.0
H817 H 0.1772 0.14293 0.81999 0.0
H818 H 0.15106 0.06992 0.75434 0.0
H819 H 0.16064 0.03366 0.71841 0.0
H820 H 0.19625 0.10325 0.66915 0.0
H821 H 0.18729 0.13987 0.70497 0.0
C822 C 0.07346 0.22782 0.76931 0.0
C823 C 0.07944 0.24589 0.74706 0.0
C824 C 0.09309 0.2052 0.77658 0.0
C825 C 0.11929 0.2005 0.762 0.0
C826 C 0.12561 0.21891 0.74011 0.0
C827 C 0.10588 0.2414 0.73269 0.0
C828 C 0.13936 0.17544 0.76873 0.0
C829 C 0.14613 0.15465 0.74872 0.0
C830 C 0.15059 0.17113 0.7948 0.0
C831 C 0.14533 0.19294 0.81653 0.0
C832 C 0.15287 0.22311 0.81318 0.0
C833 C 0.14765 0.24357 0.83368 0.0
C834 C 0.13506 0.23409 0.85769 0.0
C835 C 0.12775 0.20412 0.86129 0.0
C836 C 0.13291 0.18357 0.84085 0.0
C837 C 0.2405 0.0729 0.77752 0.0
C838 C 0.2332 0.05219 0.7975 0.0
C839 C 0.2217 0.09681 0.7721 0.0
C840 C 0.1952 0.1004 0.78645 0.0
C841 C 0.18804 0.08008 0.80669 0.0
C842 C 0.20683 0.05609 0.81212 0.0
C843 C 0.17492 0.12533 0.78011 0.0
C844 C 0.16805 0.14597 0.80018 0.0
C845 C 0.16356 0.12953 0.7541 0.0
C846 C 0.16876 0.10759 0.73244 0.0
C847 C 0.16115 0.07745 0.73592 0.0
C848 C 0.16643 0.05684 0.71557 0.0
C849 C 0.17911 0.06613 0.69154 0.0
C850 C 0.18646 0.09608 0.68779 0.0
C851 C 0.18126 0.11678 0.7081 0.0
H852 H 0.18319 0.05014 0.6758 0.0
H853 H 0.13103 0.24997 0.87354 0.0
H854 H 0.97525 0.1848 0.29854 0.0
H855 H 0.9376 0.1493 0.28411 0.0
H856 H 0.88227 0.22173 0.25718 0.0
H857 H 0.91953 0.25754 0.27265 0.0
H858 H 0.8494 0.18202 0.28056 0.0
H859 H 0.92392 0.17793 0.21303 0.0
H860 H 0.97449 0.17315 0.19463 0.0
H861 H 0.9812 0.08482 0.22678 0.0
H862 H 0.93081 0.08921 0.2457 0.0
H863 H 0.75702 0.08575 0.20239 0.0
H864 H 0.79295 0.12429 0.2148 0.0
H865 H 0.84475 0.05889 0.25714 0.0
H866 H 0.80888 0.02028 0.24505 0.0
H867 H 0.87829 0.0967 0.22319 0.0
H868 H 0.80312 0.10318 0.29192 0.0
H869 H 0.75195 0.10897 0.30864 0.0
H870 H 0.74586 0.19459 0.27097 0.0
H871 H 0.79689 0.18911 0.25371 0.0
C872 C 0.95505 0.19319 0.28957 0.0
C873 C 0.95039 0.22392 0.28654 0.0
C874 C 0.93361 0.17286 0.28119 0.0
C875 C 0.9074 0.1828 0.26897 0.0
C876 C 0.90241 0.21354 0.26641 0.0
C877 C 0.92369 0.23396 0.27523 0.0
C878 C 0.88522 0.16101 0.25908 0.0
C879 C 0.85566 0.16367 0.26764 0.0
C880 C 0.89341 0.13682 0.24247 0.0
C881 C 0.92367 0.13401 0.23097 0.0
C882 C 0.93625 0.15756 0.21633 0.0
C883 C 0.96488 0.15491 0.20579 0.0
C884 C 0.98107 0.12872 0.20959 0.0
C885 C 0.96864 0.1051 0.22388 0.0
C886 C 0.94004 0.10764 0.23448 0.0
C887 C 0.77609 0.07958 0.21431 0.0
C888 C 0.78009 0.05004 0.22286 0.0
C889 C 0.7965 0.10161 0.22142 0.0
C890 C 0.82132 0.09438 0.23699 0.0
C891 C 0.82567 0.06484 0.24514 0.0
C892 C 0.80511 0.04288 0.23831 0.0
C893 C 0.84278 0.11763 0.24493 0.0
C894 C 0.87214 0.11522 0.23595 0.0
C895 C 0.83432 0.14223 0.26082 0.0
C896 C 0.8037 0.14558 0.27128 0.0
C897 C 0.79078 0.12312 0.287 0.0
C898 C 0.76182 0.12637 0.29662 0.0
C899 C 0.74563 0.1521 0.29081 0.0
C900 C 0.75841 0.17466 0.27542 0.0
C901 C 0.78735 0.1715 0.26573 0.0
H902 H 0.72321 0.15458 0.29827 0.0
H903 H 0.00323 0.12672 0.20142 0.0
loop_
_geom_bond_atom_site_label_1
_geom_bond_atom_site_label_2
_geom_bond_distance
_geom_bond_site_symmetry_2
_ccdc_geom_bond_type
C0 O1 1.160 . S
C0 O7 1.185 . S
O1 C0 1.160 . S
O2 Zn3 1.899 . S
O2 C10 1.284 . S
Zn3 O2 1.899 . S
Zn3 O4 2.032 . S
Zn3 O7 2.086 . S
Zn3 O12 1.977 1_545 S
O4 Zn3 2.032 . S
O4 C8 1.278 . S
C5 O6 1.203 . S
C5 O12 1.267 . S
O6 C5 1.203 . S
O7 C0 1.185 . S
O7 Zn3 2.086 . S
C8 O4 1.278 . S
C8 O9 1.206 1_545 S
O9 C8 1.206 1_565 S
C10 O2 1.284 . S
C10 O11 1.273 . S
O11 C10 1.273 . S
O12 Zn3 1.977 1_565 S
O12 C5 1.267 . S
C13 O14 1.160 1_455 S
C13 O20 1.185 . S
O14 C13 1.160 1_655 S
O15 Zn16 1.899 1_655 S
O15 C23 1.284 . S
Zn16 O15 1.899 1_455 S
Zn16 O17 2.032 . S
Zn16 O20 2.086 . S
Zn16 O25 1.977 . S
O17 Zn16 2.032 . S
O17 C21 1.278 . S
C18 O19 1.203 . S
C18 O25 1.267 . S
O19 C18 1.203 . S
O20 C13 1.185 . S
O20 Zn16 2.086 . S
C21 O17 1.278 . S
C21 O22 1.211 . S
O22 C21 1.211 . S
C23 O15 1.284 . S
C23 O24 1.273 . S
O24 C23 1.273 . S
O25 Zn16 1.977 . S
O25 C18 1.267 . S
C26 O27 1.160 1_545 S
C26 O33 1.185 . S
O27 C26 1.160 1_565 S
O28 Zn29 1.899 1_565 S
O28 C36 1.284 . S
Zn29 O28 1.899 1_545 S
Zn29 O30 2.032 . S
Zn29 O33 2.086 . S
Zn29 O38 1.977 . S
O30 Zn29 2.032 . S
O30 C34 1.278 . S
C31 O32 1.203 . S
C31 O38 1.267 . S
O32 C31 1.203 . S
O33 C26 1.185 . S
O33 Zn29 2.086 . S
C34 O30 1.278 . S
C34 O35 1.211 . S
O35 C34 1.211 . S
C36 O28 1.284 . S
C36 O37 1.273 . S
O37 C36 1.273 . S
O38 Zn29 1.977 . S
O38 C31 1.267 . S
C39 O40 1.160 . S
C39 O46 1.185 . S
O40 C39 1.160 . S
O41 Zn42 1.899 . S
O41 C49 1.284 . S
Zn42 O41 1.899 . S
Zn42 O43 2.032 . S
Zn42 O46 2.086 . S
Zn42 O51 1.977 1_455 S
O43 Zn42 2.032 . S
O43 C47 1.278 . S
C44 O45 1.203 . S
C44 O51 1.267 . S
O45 C44 1.203 . S
O46 C39 1.185 . S
O46 Zn42 2.086 . S
C47 O43 1.278 . S
C47 O48 1.206 1_455 S
O48 C47 1.206 1_655 S
C49 O41 1.284 . S
C49 O50 1.273 . S
O50 C49 1.273 . S
O51 Zn42 1.977 1_655 S
O51 C44 1.267 . S
C52 O53 1.160 1_545 S
C52 O59 1.185 . S
O53 C52 1.160 1_565 S
O54 Zn55 1.899 1_565 S
O54 C62 1.284 . S
Zn55 O54 1.899 1_545 S
Zn55 O56 2.032 . S
Zn55 O59 2.086 . S
Zn55 O64 1.977 . S
O56 Zn55 2.032 . S
O56 C60 1.278 . S
C57 O58 1.203 . S
C57 O64 1.267 . S
O58 C57 1.203 . S
O59 C52 1.185 . S
O59 Zn55 2.086 . S
C60 O56 1.278 . S
C60 O61 1.211 . S
O61 C60 1.211 . S
C62 O54 1.284 . S
C62 O63 1.273 . S
O63 C62 1.273 . S
O64 Zn55 1.977 . S
O64 C57 1.267 . S
C65 O66 1.160 . S
C65 O72 1.185 . S
O66 C65 1.160 . S
O67 Zn68 1.899 . S
O67 C75 1.284 . S
Zn68 O67 1.899 . S
Zn68 O69 2.032 . S
Zn68 O72 2.086 . S
Zn68 O77 1.977 1_455 S
O69 Zn68 2.032 . S
O69 C73 1.278 . S
C70 O71 1.203 . S
C70 O77 1.267 . S
O71 C70 1.203 . S
O72 C65 1.185 . S
O72 Zn68 2.086 . S
C73 O69 1.278 . S
C73 O74 1.206 1_455 S
O74 C73 1.206 1_655 S
C75 O67 1.284 . S
C75 O76 1.273 . S
O76 C75 1.273 . S
O77 Zn68 1.977 1_655 S
O77 C70 1.267 . S
C78 O79 1.160 . S
C78 O85 1.185 . S
O79 C78 1.160 . S
O80 Zn81 1.899 . S
O80 C88 1.284 . S
Zn81 O80 1.899 . S
Zn81 O82 2.032 . S
Zn81 O85 2.086 . S
Zn81 O90 1.977 1_545 S
O82 Zn81 2.032 . S
O82 C86 1.278 . S
C83 O84 1.203 . S
C83 O90 1.267 . S
O84 C83 1.203 . S
O85 C78 1.185 . S
O85 Zn81 2.086 . S
C86 O82 1.278 . S
C86 O87 1.206 1_545 S
O87 C86 1.206 1_565 S
C88 O80 1.284 . S
C88 O89 1.273 . S
O89 C88 1.273 . S
O90 Zn81 1.977 1_565 S
O90 C83 1.267 . S
C91 O92 1.160 1_455 S
C91 O98 1.185 . S
O92 C91 1.160 1_655 S
O93 Zn94 1.899 1_655 S
O93 C101 1.284 . S
Zn94 O93 1.899 1_455 S
Zn94 O95 2.032 . S
Zn94 O98 2.086 . S
Zn94 O103 1.977 . S
O95 Zn94 2.032 . S
O95 C99 1.278 . S
C96 O97 1.203 . S
C96 O103 1.267 . S
O97 C96 1.203 . S
O98 C91 1.185 . S
O98 Zn94 2.086 . S
C99 O95 1.278 . S
C99 O100 1.211 . S
O100 C99 1.211 . S
C101 O93 1.284 . S
C101 O102 1.273 . S
O102 C101 1.273 . S
O103 Zn94 1.977 . S
O103 C96 1.267 . S
H104 C122 0.951 . S
H105 C124 0.951 . S
H106 C126 0.950 . S
H107 C127 0.950 . S
H108 C129 0.950 . S
H109 C132 0.950 . S
H110 C133 0.950 . S
H111 C135 0.950 . S
H112 C136 0.950 . S
H113 C137 0.951 . S
H114 C139 0.951 . S
H115 C141 0.950 . S
H116 C142 0.950 . S
H117 C144 0.957 . S
H118 C147 0.950 . S
H119 C148 0.950 . S
H120 C150 0.950 . S
H121 C151 0.950 . S
C122 H104 0.951 . S
C122 C123 1.366 1_565 S
C122 C124 1.388 . S
C123 C122 1.366 1_545 S
C123 C127 1.385 . S
C124 H105 0.951 . S
C124 C122 1.388 . S
C124 C125 1.366 1_565 S
C125 C124 1.366 1_545 S
C125 C126 1.414 . S
C125 C128 1.499 . S
C126 H106 0.950 . S
C126 C125 1.414 . S
C126 C127 1.374 . S
C127 H107 0.950 . S
C127 C123 1.385 . S
C127 C126 1.374 . S
C128 C125 1.499 . S
C128 C129 1.373 . S
C128 C130 1.389 . S
C129 H108 0.950 . S
C129 C128 1.373 . S
C129 C145 1.377 1_554 S
C130 C128 1.389 . S
C130 C131 1.524 . S
C130 C144 1.377 1_554 S
C131 C130 1.524 . S
C131 C132 1.397 . S
C131 C136 1.363 1_545 S
C132 H109 0.950 . S
C132 C131 1.397 . S
C132 C133 1.334 . S
C133 H110 0.950 . S
C133 C132 1.334 . S
C133 C134 1.287 . S
C134 C133 1.287 . S
C134 C135 1.524 1_545 S
C134 H153 0.913 . S
C135 H111 0.950 . S
C135 C134 1.524 1_565 S
C135 C136 1.415 . S
C136 H112 0.950 . S
C136 C131 1.363 1_565 S
C136 C135 1.415 . S
C137 H113 0.951 . S
C137 C138 1.366 . S
C137 C139 1.388 . S
C138 C137 1.366 . S
C138 C142 1.385 1_545 S
C139 H114 0.951 . S
C139 C137 1.388 . S
C139 C140 1.366 . S
C140 C139 1.366 . S
C140 C141 1.414 1_545 S
C140 C143 1.499 . S
C141 H115 0.950 . S
C141 C140 1.414 1_565 S
C141 C142 1.374 . S
C142 H116 0.950 . S
C142 C138 1.385 1_565 S
C142 C141 1.374 . S
C143 C140 1.499 . S
C143 C144 1.373 . S
C143 C145 1.389 . S
C144 H117 0.957 . S
C144 C130 1.377 1_556 S
C144 C143 1.373 . S
C145 C129 1.377 1_556 S
C145 C143 1.389 . S
C145 C146 1.524 . S
C146 C145 1.524 . S
C146 C147 1.397 1_545 S
C146 C151 1.363 . S
C147 H118 0.950 . S
C147 C146 1.397 1_565 S
C147 C148 1.334 . S
C148 H119 0.950 . S
C148 C147 1.334 . S
C148 C149 1.287 1_565 S
C149 C148 1.287 1_545 S
C149 C150 1.524 . S
C149 H152 0.999 . S
C150 H120 0.950 . S
C150 C149 1.524 . S
C150 C151 1.415 . S
C151 H121 0.950 . S
C151 C146 1.363 . S
C151 C150 1.415 . S
H152 C149 0.999 . S
H153 C134 0.913 . S
H154 C172 0.951 . S
H155 C174 0.951 . S
H156 C176 0.950 1_655 S
H157 C177 0.950 1_655 S
H158 C179 0.950 . S
H159 C182 0.950 . S
H160 C183 0.950 . S
H161 C185 0.950 . S
H162 C186 0.966 . S
H163 C187 0.960 . S
H164 C189 0.962 . S
H165 C191 0.950 . S
H166 C192 0.950 . S
H167 C194 0.946 1_655 S
H168 C197 0.950 . S
H169 C198 0.950 . S
H170 C200 0.950 . S
H171 C201 0.950 . S
C172 H154 0.951 . S
C172 C173 1.366 . S
C172 C174 1.388 . S
C173 C172 1.366 . S
C173 C177 1.385 . S
C174 H155 0.951 . S
C174 C172 1.388 . S
C174 C175 1.366 . S
C175 C174 1.366 . S
C175 C176 1.414 . S
C175 C178 1.499 . S
C176 H156 0.950 1_455 S
C176 C175 1.414 . S
C176 C177 1.374 . S
C177 H157 0.950 1_455 S
C177 C173 1.385 . S
C177 C176 1.374 . S
C178 C175 1.499 . S
C178 C179 1.373 . S
C178 C180 1.389 1_455 S
C179 H158 0.950 . S
C179 C178 1.373 . S
C179 C195 1.377 . S
C180 C178 1.389 1_655 S
C180 C181 1.524 . S
C180 C194 1.376 1_655 S
C181 C180 1.524 . S
C181 C182 1.397 . S
C181 C186 1.363 . S
C182 H159 0.950 . S
C182 C181 1.397 . S
C182 C183 1.334 . S
C183 H160 0.950 . S
C183 C182 1.334 . S
C183 C184 1.287 . S
C184 C183 1.287 . S
C184 C185 1.524 . S
C184 H203 0.913 . S
C185 H161 0.950 . S
C185 C184 1.524 . S
C185 C186 1.415 . S
C186 H162 0.966 . S
C186 C181 1.363 . S
C186 C185 1.415 . S
C187 H163 0.960 . S
C187 C188 1.366 . S
C187 C189 1.388 . S
C188 C187 1.366 . S
C188 C192 1.385 . S
C189 H164 0.962 . S
C189 C187 1.388 . S
C189 C190 1.366 . S
C190 C189 1.366 . S
C190 C191 1.414 . S
C190 C193 1.499 . S
C191 H165 0.950 . S
C191 C190 1.414 . S
C191 C192 1.374 . S
C192 H166 0.950 . S
C192 C188 1.385 . S
C192 C191 1.374 . S
C193 C190 1.499 . S
C193 C194 1.379 . S
C193 C195 1.389 . S
C194 H167 0.946 1_455 S
C194 C180 1.376 1_455 S
C194 C193 1.379 . S
C195 C179 1.377 . S
C195 C193 1.389 . S
C195 C196 1.524 . S
C196 C195 1.524 . S
C196 C197 1.397 . S
C196 C201 1.363 . S
C197 H168 0.950 . S
C197 C196 1.397 . S
C197 C198 1.334 . S
C198 H169 0.950 . S
C198 C197 1.334 . S
C198 C199 1.287 . S
C199 C198 1.287 . S
C199 C200 1.524 . S
C199 H202 0.999 . S
C200 H170 0.950 . S
C200 C199 1.524 . S
C200 C201 1.415 . S
C201 H171 0.950 . S
C201 C196 1.363 . S
C201 C200 1.415 . S
H202 C199 0.999 . S
H203 C184 0.913 . S
H204 C222 0.951 . S
H205 C224 0.951 . S
H206 C226 0.950 . S
H207 C227 0.950 . S
H208 C229 0.950 . S
H209 C232 0.950 1_545 S
H210 C233 0.950 . S
H211 C235 0.950 . S
H212 C236 0.950 . S
H213 C237 0.951 . S
H214 C239 0.951 . S
H215 C241 0.950 . S
H216 C242 0.950 . S
H217 C244 0.950 . S
H218 C247 0.950 . S
H219 C248 0.950 . S
H220 C250 0.950 . S
H221 C251 0.950 . S
C222 H204 0.951 . S
C222 C223 1.366 1_565 S
C222 C224 1.388 . S
C223 C222 1.366 1_545 S
C223 C227 1.385 . S
C224 H205 0.951 . S
C224 C222 1.388 . S
C224 C225 1.366 1_565 S
C225 C224 1.366 1_545 S
C225 C226 1.414 . S
C225 C228 1.499 . S
C226 H206 0.950 . S
C226 C225 1.414 . S
C226 C227 1.374 . S
C227 H207 0.950 . S
C227 C223 1.385 . S
C227 C226 1.374 . S
C228 C225 1.499 . S
C228 C229 1.373 . S
C228 C230 1.389 1_545 S
C229 H208 0.950 . S
C229 C228 1.373 . S
C229 C245 1.377 1_556 S
C230 C228 1.389 1_565 S
C230 C231 1.524 . S
C230 C244 1.377 1_556 S
C231 C230 1.524 . S
C231 C232 1.397 . S
C231 C236 1.363 . S
C232 H209 0.950 1_565 S
C232 C231 1.397 . S
C232 C233 1.334 . S
C233 H210 0.950 . S
C233 C232 1.334 . S
C233 C234 1.287 . S
C234 C233 1.287 . S
C234 C235 1.524 . S
C234 H253 0.913 . S
C235 H211 0.950 . S
C235 C234 1.524 . S
C235 C236 1.415 . S
C236 H212 0.950 . S
C236 C231 1.363 . S
C236 C235 1.415 . S
C237 H213 0.951 . S
C237 C238 1.366 . S
C237 C239 1.388 . S
C238 C237 1.366 . S
C238 C242 1.385 1_545 S
C239 H214 0.951 . S
C239 C237 1.388 . S
C239 C240 1.366 . S
C240 C239 1.366 . S
C240 C241 1.414 1_545 S
C240 C243 1.499 . S
C241 H215 0.950 . S
C241 C240 1.414 1_565 S
C241 C242 1.374 . S
C242 H216 0.950 . S
C242 C238 1.385 1_565 S
C242 C241 1.374 . S
C243 C240 1.499 . S
C243 C244 1.373 1_545 S
C243 C245 1.389 . S
C244 H217 0.950 . S
C244 C230 1.377 1_554 S
C244 C243 1.373 1_565 S
C245 C229 1.377 1_554 S
C245 C243 1.389 . S
C245 C246 1.524 . S
C246 C245 1.524 . S
C246 C247 1.397 . S
C246 C251 1.363 . S
C247 H218 0.950 . S
C247 C246 1.397 . S
C247 C248 1.334 . S
C248 H219 0.950 . S
C248 C247 1.334 . S
C248 C249 1.287 . S
C249 C248 1.287 . S
C249 C250 1.524 . S
C249 H252 0.999 . S
C250 H220 0.950 . S
C250 C249 1.524 . S
C250 C251 1.415 . S
C251 H221 0.950 . S
C251 C246 1.363 . S
C251 C250 1.415 . S
H252 C249 0.999 . S
H253 C234 0.913 . S
H254 C272 0.951 . S
H255 C274 0.951 . S
H256 C276 0.950 . S
H257 C277 0.950 . S
H258 C279 0.950 . S
H259 C282 0.950 . S
H260 C283 0.950 . S
H261 C285 0.950 . S
H262 C286 0.950 . S
H263 C287 0.935 1_655 S
H264 C289 0.953 . S
H265 C291 0.950 . S
H266 C292 0.950 . S
H267 C294 0.950 . S
H268 C297 0.950 . S
H269 C298 0.950 . S
H270 C300 0.950 . S
H271 C301 0.950 . S
C272 H254 0.951 . S
C272 C273 1.366 . S
C272 C274 1.388 . S
C273 C272 1.366 . S
C273 C277 1.385 1_455 S
C274 H255 0.951 . S
C274 C272 1.388 . S
C274 C275 1.366 . S
C275 C274 1.366 . S
C275 C276 1.414 1_455 S
C275 C278 1.499 . S
C276 H256 0.950 . S
C276 C275 1.414 1_655 S
C276 C277 1.374 . S
C277 H257 0.950 . S
C277 C273 1.385 1_655 S
C277 C276 1.374 . S
C278 C275 1.499 . S
C278 C279 1.373 1_455 S
C278 C280 1.389 . S
C279 H258 0.950 . S
C279 C278 1.373 1_655 S
C279 C295 1.377 . S
C280 C278 1.389 . S
C280 C281 1.524 . S
C280 C294 1.377 . S
C281 C280 1.524 . S
C281 C282 1.397 . S
C281 C286 1.363 . S
C282 H259 0.950 . S
C282 C281 1.397 . S
C282 C283 1.334 . S
C283 H260 0.950 . S
C283 C282 1.334 . S
C283 C284 1.287 . S
C284 C283 1.287 . S
C284 C285 1.524 . S
C284 H303 0.913 . S
C285 H261 0.950 . S
C285 C284 1.524 . S
C285 C286 1.415 . S
C286 H262 0.950 . S
C286 C281 1.363 . S
C286 C285 1.415 . S
C287 H263 0.935 1_455 S
C287 C288 1.383 . S
C287 C289 1.387 1_455 S
C288 C287 1.383 . S
C288 C292 1.385 . S
C289 H264 0.953 . S
C289 C287 1.387 1_655 S
C289 C290 1.363 1_655 S
C290 C289 1.363 1_455 S
C290 C291 1.414 . S
C290 C293 1.499 . S
C291 H265 0.950 . S
C291 C290 1.414 . S
C291 C292 1.374 . S
C292 H266 0.950 . S
C292 C288 1.385 . S
C292 C291 1.374 . S
C293 C290 1.499 . S
C293 C294 1.373 . S
C293 C295 1.389 1_455 S
C294 H267 0.950 . S
C294 C280 1.377 . S
C294 C293 1.373 . S
C295 C279 1.377 . S
C295 C293 1.389 1_655 S
C295 C296 1.524 . S
C296 C295 1.524 . S
C296 C297 1.397 . S
C296 C301 1.363 . S
C297 H268 0.950 . S
C297 C296 1.397 . S
C297 C298 1.334 . S
C298 H269 0.950 . S
C298 C297 1.334 . S
C298 C299 1.287 . S
C299 C298 1.287 . S
C299 C300 1.524 . S
C299 H302 0.999 . S
C300 H270 0.950 . S
C300 C299 1.524 . S
C300 C301 1.415 . S
C301 H271 0.950 . S
C301 C296 1.363 . S
C301 C300 1.415 . S
H302 C299 0.999 . S
H303 C284 0.913 . S
H304 C322 0.951 . S
H305 C324 0.951 . S
H306 C326 0.950 . S
H307 C327 0.950 . S
H308 C329 0.950 . S
H309 C332 0.950 . S
H310 C333 0.950 . S
H311 C335 0.950 . S
H312 C336 0.950 . S
H313 C337 0.951 . S
H314 C339 0.951 . S
H315 C341 0.950 . S
H316 C342 0.950 . S
H317 C344 0.950 . S
H318 C347 0.950 1_545 S
H319 C348 0.950 . S
H320 C350 0.950 . S
H321 C351 0.950 . S
C322 H304 0.951 . S
C322 C323 1.366 . S
C322 C324 1.388 . S
C323 C322 1.366 . S
C323 C327 1.385 1_545 S
C324 H305 0.951 . S
C324 C322 1.388 . S
C324 C325 1.366 . S
C325 C324 1.366 . S
C325 C326 1.414 1_545 S
C325 C328 1.499 . S
C326 H306 0.950 . S
C326 C325 1.414 1_565 S
C326 C327 1.374 . S
C327 H307 0.950 . S
C327 C323 1.385 1_565 S
C327 C326 1.374 . S
C328 C325 1.499 . S
C328 C329 1.373 1_545 S
C328 C330 1.389 . S
C329 H308 0.950 . S
C329 C328 1.373 1_565 S
C329 C345 1.377 . S
C330 C328 1.389 . S
C330 C331 1.524 . S
C330 C344 1.377 . S
C331 C330 1.524 . S
C331 C332 1.397 . S
C331 C336 1.363 . S
C332 H309 0.950 . S
C332 C331 1.397 . S
C332 C333 1.334 . S
C333 H310 0.950 . S
C333 C332 1.334 . S
C333 C334 1.287 . S
C334 C333 1.287 . S
C334 C335 1.524 . S
C334 H353 0.913 . S
C335 H311 0.950 . S
C335 C334 1.524 . S
C335 C336 1.415 . S
C336 H312 0.950 . S
C336 C331 1.363 . S
C336 C335 1.415 . S
C337 H313 0.951 . S
C337 C338 1.366 1_565 S
C337 C339 1.388 . S
C338 C337 1.366 1_545 S
C338 C342 1.385 . S
C339 H314 0.951 . S
C339 C337 1.388 . S
C339 C340 1.366 1_565 S
C340 C339 1.366 1_545 S
C340 C341 1.414 . S
C340 C343 1.499 . S
C341 H315 0.950 . S
C341 C340 1.414 . S
C341 C342 1.374 . S
C342 H316 0.950 . S
C342 C338 1.385 . S
C342 C341 1.374 . S
C343 C340 1.499 . S
C343 C344 1.373 . S
C343 C345 1.389 1_545 S
C344 H317 0.950 . S
C344 C330 1.377 . S
C344 C343 1.373 . S
C345 C329 1.377 . S
C345 C343 1.389 1_565 S
C345 C346 1.524 . S
C346 C345 1.524 . S
C346 C347 1.397 . S
C346 C351 1.363 . S
C347 H318 0.950 1_565 S
C347 C346 1.397 . S
C347 C348 1.334 . S
C348 H319 0.950 . S
C348 C347 1.334 . S
C348 C349 1.287 . S
C349 C348 1.287 . S
C349 C350 1.524 . S
C349 H352 0.999 . S
C350 H320 0.950 . S
C350 C349 1.524 . S
C350 C351 1.415 . S
C351 H321 0.950 . S
C351 C346 1.363 . S
C351 C350 1.415 . S
H352 C349 0.999 . S
H353 C334 0.913 . S
H354 C372 0.951 . S
H355 C374 0.951 . S
H356 C376 0.950 . S
H357 C377 0.950 . S
H358 C379 0.950 . S
H359 C382 0.950 . S
H360 C383 0.950 . S
H361 C385 0.950 . S
H362 C386 0.950 . S
H363 C387 0.951 . S
H364 C389 0.951 . S
H365 C391 0.950 . S
H366 C392 0.950 . S
H367 C394 0.960 . S
H368 C397 0.950 1_655 S
H369 C398 0.950 1_655 S
H370 C400 0.950 . S
H371 C401 0.950 . S
C372 H354 0.951 . S
C372 C373 1.366 1_655 S
C372 C374 1.388 . S
C373 C372 1.366 1_455 S
C373 C377 1.385 . S
C374 H355 0.951 . S
C374 C372 1.388 . S
C374 C375 1.366 1_655 S
C375 C374 1.366 1_455 S
C375 C376 1.414 . S
C375 C378 1.499 . S
C376 H356 0.950 . S
C376 C375 1.414 . S
C376 C377 1.374 . S
C377 H357 0.950 . S
C377 C373 1.385 . S
C377 C376 1.374 . S
C378 C375 1.499 . S
C378 C379 1.373 . S
C378 C380 1.389 . S
C379 H358 0.950 . S
C379 C378 1.373 . S
C379 C395 1.377 . S
C380 C378 1.389 . S
C380 C381 1.530 . S
C380 C394 1.377 . S
C381 C380 1.530 . S
C381 C382 1.420 . S
C381 C386 1.338 1_455 S
C382 H359 0.950 . S
C382 C381 1.420 . S
C382 C383 1.334 . S
C383 H360 0.950 . S
C383 C382 1.334 . S
C383 C384 1.287 1_455 S
C384 C383 1.287 1_655 S
C384 C385 1.524 . S
C384 H403 0.913 . S
C385 H361 0.950 . S
C385 C384 1.524 . S
C385 C386 1.415 . S
C386 H362 0.950 . S
C386 C381 1.338 1_655 S
C386 C385 1.415 . S
C387 H363 0.951 . S
C387 C388 1.366 . S
C387 C389 1.388 . S
C388 C387 1.366 . S
C388 C392 1.385 1_455 S
C389 H364 0.951 . S
C389 C387 1.388 . S
C389 C390 1.366 . S
C390 C389 1.366 . S
C390 C391 1.414 1_455 S
C390 C393 1.499 . S
C391 H365 0.950 . S
C391 C390 1.414 1_655 S
C391 C392 1.374 . S
C392 H366 0.950 . S
C392 C388 1.385 1_655 S
C392 C391 1.374 . S
C393 C390 1.499 . S
C393 C394 1.373 . S
C393 C395 1.389 . S
C394 H367 0.960 . S
C394 C380 1.377 . S
C394 C393 1.373 . S
C395 C379 1.377 . S
C395 C393 1.389 . S
C395 C396 1.524 . S
C396 C395 1.524 . S
C396 C397 1.397 . S
C396 C401 1.363 . S
C397 H368 0.950 1_455 S
C397 C396 1.397 . S
C397 C398 1.334 . S
C398 H369 0.950 1_455 S
C398 C397 1.334 . S
C398 C399 1.287 . S
C399 C398 1.287 . S
C399 C400 1.524 . S
C399 H402 0.999 . S
C400 H370 0.950 . S
C400 C399 1.524 . S
C400 C401 1.415 . S
C401 H371 0.950 . S
C401 C396 1.363 . S
C401 C400 1.415 . S
H402 C399 0.999 . S
H403 C384 0.913 . S
H404 C422 0.951 . S
H405 C424 0.951 . S
H406 C426 0.950 . S
H407 C427 0.950 . S
H408 C429 0.950 . S
H409 C432 0.950 1_545 S
H410 C433 0.950 . S
H411 C435 0.950 . S
H412 C436 0.950 . S
H413 C437 0.951 . S
H414 C439 0.951 . S
H415 C441 0.950 . S
H416 C442 0.950 . S
H417 C444 0.950 . S
H418 C447 0.950 . S
H419 C448 0.950 . S
H420 C450 0.950 . S
H421 C451 0.950 . S
C422 H404 0.951 . S
C422 C423 1.366 1_565 S
C422 C424 1.388 . S
C423 C422 1.366 1_545 S
C423 C427 1.385 . S
C424 H405 0.951 . S
C424 C422 1.388 . S
C424 C425 1.366 1_565 S
C425 C424 1.366 1_545 S
C425 C426 1.414 . S
C425 C428 1.499 . S
C426 H406 0.950 . S
C426 C425 1.414 . S
C426 C427 1.374 . S
C427 H407 0.950 . S
C427 C423 1.385 . S
C427 C426 1.374 . S
C428 C425 1.499 . S
C428 C429 1.373 . S
C428 C430 1.389 1_545 S
C429 H408 0.950 . S
C429 C428 1.373 . S
C429 C445 1.377 . S
C430 C428 1.389 1_565 S
C430 C431 1.524 . S
C430 C444 1.377 . S
C431 C430 1.524 . S
C431 C432 1.397 . S
C431 C436 1.363 . S
C432 H409 0.950 1_565 S
C432 C431 1.397 . S
C432 C433 1.334 . S
C433 H410 0.950 . S
C433 C432 1.334 . S
C433 C434 1.287 . S
C434 C433 1.287 . S
C434 C435 1.524 . S
C434 H453 0.913 . S
C435 H411 0.950 . S
C435 C434 1.524 . S
C435 C436 1.415 . S
C436 H412 0.950 . S
C436 C431 1.363 . S
C436 C435 1.415 . S
C437 H413 0.951 . S
C437 C438 1.366 . S
C437 C439 1.388 . S
C438 C437 1.366 . S
C438 C442 1.385 1_545 S
C439 H414 0.951 . S
C439 C437 1.388 . S
C439 C440 1.366 . S
C440 C439 1.366 . S
C440 C441 1.414 1_545 S
C440 C443 1.499 . S
C441 H415 0.950 . S
C441 C440 1.414 1_565 S
C441 C442 1.374 . S
C442 H416 0.950 . S
C442 C438 1.385 1_565 S
C442 C441 1.374 . S
C443 C440 1.499 . S
C443 C444 1.373 1_545 S
C443 C445 1.389 . S
C444 H417 0.950 . S
C444 C430 1.377 . S
C444 C443 1.373 1_565 S
C445 C429 1.377 . S
C445 C443 1.389 . S
C445 C446 1.524 . S
C446 C445 1.524 . S
C446 C447 1.397 . S
C446 C451 1.363 . S
C447 H418 0.950 . S
C447 C446 1.397 . S
C447 C448 1.334 . S
C448 H419 0.950 . S
C448 C447 1.334 . S
C448 C449 1.287 . S
C449 C448 1.287 . S
C449 C450 1.524 . S
C449 H452 0.999 . S
C450 H420 0.950 . S
C450 C449 1.524 . S
C450 C451 1.415 . S
C451 H421 0.950 . S
C451 C446 1.363 . S
C451 C450 1.415 . S
H452 C449 0.999 . S
H453 C434 0.913 . S
H454 C472 0.951 . S
H455 C474 0.951 . S
H456 C476 0.950 . S
H457 C477 0.950 . S
H458 C479 0.950 . S
H459 C482 0.950 . S
H460 C483 0.950 . S
H461 C485 0.950 . S
H462 C486 0.950 . S
H463 C487 0.951 . S
H464 C489 0.951 . S
H465 C491 0.950 . S
H466 C492 0.950 . S
H467 C494 0.950 . S
H468 C497 0.950 . S
H469 C498 0.950 . S
H470 C500 0.950 . S
H471 C501 0.950 . S
C472 H454 0.951 . S
C472 C473 1.366 1_655 S
C472 C474 1.388 . S
C473 C472 1.366 1_455 S
C473 C477 1.385 . S
C474 H455 0.951 . S
C474 C472 1.388 . S
C474 C475 1.366 1_655 S
C475 C474 1.366 1_455 S
C475 C476 1.414 . S
C475 C478 1.499 . S
C476 H456 0.950 . S
C476 C475 1.414 . S
C476 C477 1.374 . S
C477 H457 0.950 . S
C477 C473 1.385 . S
C477 C476 1.374 . S
C478 C475 1.499 . S
C478 C479 1.373 . S
C478 C480 1.389 1_455 S
C479 H458 0.950 . S
C479 C478 1.373 . S
C479 C495 1.377 . S
C480 C478 1.389 1_655 S
C480 C481 1.524 . S
C480 C494 1.377 . S
C481 C480 1.524 . S
C481 C482 1.397 . S
C481 C486 1.363 . S
C482 H459 0.950 . S
C482 C481 1.397 . S
C482 C483 1.334 . S
C483 H460 0.950 . S
C483 C482 1.334 . S
C483 C484 1.287 . S
C484 C483 1.287 . S
C484 C485 1.524 . S
C484 H503 0.913 . S
C485 H461 0.950 . S
C485 C484 1.524 . S
C485 C486 1.415 . S
C486 H462 0.950 . S
C486 C481 1.363 . S
C486 C485 1.415 . S
C487 H463 0.951 . S
C487 C488 1.366 . S
C487 C489 1.388 . S
C488 C487 1.366 . S
C488 C492 1.385 1_455 S
C489 H464 0.951 . S
C489 C487 1.388 . S
C489 C490 1.366 . S
C490 C489 1.366 . S
C490 C491 1.414 1_455 S
C490 C493 1.499 . S
C491 H465 0.950 . S
C491 C490 1.414 1_655 S
C491 C492 1.374 . S
C492 H466 0.950 . S
C492 C488 1.385 1_655 S
C492 C491 1.374 . S
C493 C490 1.499 . S
C493 C494 1.373 1_455 S
C493 C495 1.389 . S
C494 H467 0.950 . S
C494 C480 1.377 . S
C494 C493 1.373 1_655 S
C495 C479 1.377 . S
C495 C493 1.389 . S
C495 C496 1.524 . S
C496 C495 1.524 . S
C496 C497 1.397 . S
C496 C501 1.363 . S
C497 H468 0.950 . S
C497 C496 1.397 . S
C497 C498 1.334 . S
C498 H469 0.950 . S
C498 C497 1.334 . S
C498 C499 1.287 . S
C499 C498 1.287 . S
C499 C500 1.524 . S
C499 H502 0.999 . S
C500 H470 0.950 . S
C500 C499 1.524 . S
C500 C501 1.415 . S
C501 H471 0.950 . S
C501 C496 1.363 . S
C501 C500 1.415 . S
H502 C499 0.999 . S
H503 C484 0.913 . S
H504 C522 0.951 . S
H505 C524 0.951 . S
H506 C526 0.950 . S
H507 C527 0.950 . S
H508 C529 0.950 . S
H509 C532 0.950 . S
H510 C533 0.950 . S
H511 C535 0.950 . S
H512 C536 0.950 . S
H513 C537 0.951 . S
H514 C539 0.951 . S
H515 C541 0.950 . S
H516 C542 0.950 . S
H517 C544 0.950 . S
H518 C547 0.950 . S
H519 C548 0.950 . S
H520 C550 0.950 . S
H521 C551 0.950 . S
C522 H504 0.951 . S
C522 C523 1.366 . S
C522 C524 1.388 . S
C523 C522 1.366 . S
C523 C527 1.385 . S
C524 H505 0.951 . S
C524 C522 1.388 . S
C524 C525 1.366 . S
C525 C524 1.366 . S
C525 C526 1.414 . S
C525 C528 1.499 . S
C526 H506 0.950 . S
C526 C525 1.414 . S
C526 C527 1.374 . S
C527 H507 0.950 . S
C527 C523 1.385 . S
C527 C526 1.374 . S
C528 C525 1.499 . S
C528 C529 1.373 . S
C528 C530 1.389 . S
C529 H508 0.950 . S
C529 C528 1.373 . S
C529 C545 1.377 . S
C530 C528 1.389 . S
C530 C531 1.524 . S
C530 C544 1.377 . S
C531 C530 1.524 . S
C531 C532 1.397 . S
C531 C536 1.363 . S
C532 H509 0.950 . S
C532 C531 1.397 . S
C532 C533 1.334 . S
C533 H510 0.950 . S
C533 C532 1.334 . S
C533 C534 1.287 . S
C534 C533 1.287 . S
C534 C535 1.524 . S
C534 H553 0.913 . S
C535 H511 0.950 . S
C535 C534 1.524 . S
C535 C536 1.415 . S
C536 H512 0.950 . S
C536 C531 1.363 . S
C536 C535 1.415 . S
C537 H513 0.951 . S
C537 C538 1.366 . S
C537 C539 1.388 . S
C538 C537 1.366 . S
C538 C542 1.385 . S
C539 H514 0.951 . S
C539 C537 1.388 . S
C539 C540 1.366 . S
C540 C539 1.366 . S
C540 C541 1.414 . S
C540 C543 1.499 . S
C541 H515 0.950 . S
C541 C540 1.414 . S
C541 C542 1.374 . S
C542 H516 0.950 . S
C542 C538 1.385 . S
C542 C541 1.374 . S
C543 C540 1.499 . S
C543 C544 1.373 . S
C543 C545 1.389 . S
C544 H517 0.950 . S
C544 C530 1.377 . S
C544 C543 1.373 . S
C545 C529 1.377 . S
C545 C543 1.389 . S
C545 C546 1.524 . S
C546 C545 1.524 . S
C546 C547 1.397 . S
C546 C551 1.363 . S
C547 H518 0.950 . S
C547 C546 1.397 . S
C547 C548 1.334 . S
C548 H519 0.950 . S
C548 C547 1.334 . S
C548 C549 1.287 . S
C549 C548 1.287 . S
C549 C550 1.524 . S
C549 H552 0.999 . S
C550 H520 0.950 . S
C550 C549 1.524 . S
C550 C551 1.415 . S
C551 H521 0.950 . S
C551 C546 1.363 . S
C551 C550 1.415 . S
H552 C549 0.999 . S
H553 C534 0.913 . S
H554 C572 0.951 . S
H555 C574 0.951 . S
H556 C576 0.950 . S
H557 C577 0.950 . S
H558 C579 0.950 . S
H559 C582 0.950 . S
H560 C583 0.950 . S
H561 C585 0.950 . S
H562 C586 0.950 . S
H563 C587 0.951 . S
H564 C589 0.951 . S
H565 C591 0.950 . S
H566 C592 0.950 . S
H567 C594 0.950 . S
H568 C597 0.950 . S
H569 C598 0.950 . S
H570 C600 0.950 . S
H571 C601 0.950 . S
C572 H554 0.951 . S
C572 C573 1.366 . S
C572 C574 1.388 . S
C573 C572 1.366 . S
C573 C577 1.385 . S
C574 H555 0.951 . S
C574 C572 1.388 . S
C574 C575 1.366 . S
C575 C574 1.366 . S
C575 C576 1.414 . S
C575 C578 1.499 . S
C576 H556 0.950 . S
C576 C575 1.414 . S
C576 C577 1.374 . S
C577 H557 0.950 . S
C577 C573 1.385 . S
C577 C576 1.374 . S
C578 C575 1.499 . S
C578 C579 1.373 . S
C578 C580 1.389 . S
C579 H558 0.950 . S
C579 C578 1.373 . S
C579 C595 1.377 . S
C580 C578 1.389 . S
C580 C581 1.524 . S
C580 C594 1.377 . S
C581 C580 1.524 . S
C581 C582 1.397 . S
C581 C586 1.363 . S
C582 H559 0.950 . S
C582 C581 1.397 . S
C582 C583 1.334 . S
C583 H560 0.950 . S
C583 C582 1.334 . S
C583 C584 1.287 . S
C584 C583 1.287 . S
C584 C585 1.524 . S
C584 H603 0.913 . S
C585 H561 0.950 . S
C585 C584 1.524 . S
C585 C586 1.415 . S
C586 H562 0.950 . S
C586 C581 1.363 . S
C586 C585 1.415 . S
C587 H563 0.951 . S
C587 C588 1.366 . S
C587 C589 1.388 . S
C588 C587 1.366 . S
C588 C592 1.385 . S
C589 H564 0.951 . S
C589 C587 1.388 . S
C589 C590 1.366 . S
C590 C589 1.366 . S
C590 C591 1.414 . S
C590 C593 1.499 . S
C591 H565 0.950 . S
C591 C590 1.414 . S
C591 C592 1.374 . S
C592 H566 0.950 . S
C592 C588 1.385 . S
C592 C591 1.374 . S
C593 C590 1.499 . S
C593 C594 1.373 . S
C593 C595 1.389 . S
C594 H567 0.950 . S
C594 C580 1.377 . S
C594 C593 1.373 . S
C595 C579 1.377 . S
C595 C593 1.389 . S
C595 C596 1.524 . S
C596 C595 1.524 . S
C596 C597 1.397 . S
C596 C601 1.363 . S
C597 H568 0.950 . S
C597 C596 1.397 . S
C597 C598 1.334 . S
C598 H569 0.950 . S
C598 C597 1.334 . S
C598 C599 1.287 . S
C599 C598 1.287 . S
C599 C600 1.524 . S
C599 H602 0.999 . S
C600 H570 0.950 . S
C600 C599 1.524 . S
C600 C601 1.415 . S
C601 H571 0.950 . S
C601 C596 1.363 . S
C601 C600 1.415 . S
H602 C599 0.999 . S
H603 C584 0.913 . S
H604 C622 0.951 . S
H605 C624 0.951 . S
H606 C626 0.950 . S
H607 C627 0.950 . S
H608 C629 0.950 . S
H609 C632 0.950 . S
H610 C633 0.950 . S
H611 C635 0.950 . S
H612 C636 0.950 . S
H613 C637 0.951 . S
H614 C639 0.951 . S
H615 C641 0.950 . S
H616 C642 0.950 . S
H617 C644 0.950 . S
H618 C647 0.950 . S
H619 C648 0.950 . S
H620 C650 0.950 . S
H621 C651 0.950 . S
C622 H604 0.951 . S
C622 C623 1.366 . S
C622 C624 1.388 . S
C623 C622 1.366 . S
C623 C627 1.385 . S
C624 H605 0.951 . S
C624 C622 1.388 . S
C624 C625 1.366 . S
C625 C624 1.366 . S
C625 C626 1.414 . S
C625 C628 1.499 . S
C626 H606 0.950 . S
C626 C625 1.414 . S
C626 C627 1.374 . S
C627 H607 0.950 . S
C627 C623 1.385 . S
C627 C626 1.374 . S
C628 C625 1.499 . S
C628 C629 1.373 . S
C628 C630 1.389 . S
C629 H608 0.950 . S
C629 C628 1.373 . S
C629 C645 1.377 . S
C630 C628 1.389 . S
C630 C631 1.524 . S
C630 C644 1.377 . S
C631 C630 1.524 . S
C631 C632 1.397 . S
C631 C636 1.363 . S
C632 H609 0.950 . S
C632 C631 1.397 . S
C632 C633 1.334 . S
C633 H610 0.950 . S
C633 C632 1.334 . S
C633 C634 1.287 . S
C634 C633 1.287 . S
C634 C635 1.524 . S
C634 H653 0.913 . S
C635 H611 0.950 . S
C635 C634 1.524 . S
C635 C636 1.415 . S
C636 H612 0.950 . S
C636 C631 1.363 . S
C636 C635 1.415 . S
C637 H613 0.951 . S
C637 C638 1.366 . S
C637 C639 1.388 . S
C638 C637 1.366 . S
C638 C642 1.385 . S
C639 H614 0.951 . S
C639 C637 1.388 . S
C639 C640 1.366 . S
C640 C639 1.366 . S
C640 C641 1.414 . S
C640 C643 1.499 . S
C641 H615 0.950 . S
C641 C640 1.414 . S
C641 C642 1.374 . S
C642 H616 0.950 . S
C642 C638 1.385 . S
C642 C641 1.374 . S
C643 C640 1.499 . S
C643 C644 1.373 . S
C643 C645 1.389 . S
C644 H617 0.950 . S
C644 C630 1.377 . S
C644 C643 1.373 . S
C645 C629 1.377 . S
C645 C643 1.389 . S
C645 C646 1.524 . S
C646 C645 1.524 . S
C646 C647 1.397 . S
C646 C651 1.363 . S
C647 H618 0.950 . S
C647 C646 1.397 . S
C647 C648 1.334 . S
C648 H619 0.950 . S
C648 C647 1.334 . S
C648 C649 1.287 . S
C649 C648 1.287 . S
C649 C650 1.524 . S
C649 H652 0.999 . S
C650 H620 0.950 . S
C650 C649 1.524 . S
C650 C651 1.415 . S
C651 H621 0.950 . S
C651 C646 1.363 . S
C651 C650 1.415 . S
H652 C649 0.999 . S
H653 C634 0.913 . S
H654 C672 0.951 . S
H655 C674 0.951 . S
H656 C676 0.950 . S
H657 C677 0.950 . S
H658 C679 0.950 . S
H659 C682 0.950 . S
H660 C683 0.950 . S
H661 C685 0.950 . S
H662 C686 0.950 . S
H663 C687 0.951 . S
H664 C689 0.951 . S
H665 C691 0.950 . S
H666 C692 0.950 . S
H667 C694 0.950 . S
H668 C697 0.950 . S
H669 C698 0.950 . S
H670 C700 0.950 . S
H671 C701 0.950 . S
C672 H654 0.951 . S
C672 C673 1.366 . S
C672 C674 1.388 . S
C673 C672 1.366 . S
C673 C677 1.385 . S
C674 H655 0.951 . S
C674 C672 1.388 . S
C674 C675 1.366 . S
C675 C674 1.366 . S
C675 C676 1.414 . S
C675 C678 1.499 . S
C676 H656 0.950 . S
C676 C675 1.414 . S
C676 C677 1.374 . S
C677 H657 0.950 . S
C677 C673 1.385 . S
C677 C676 1.374 . S
C678 C675 1.499 . S
C678 C679 1.373 . S
C678 C680 1.389 . S
C679 H658 0.950 . S
C679 C678 1.373 . S
C679 C695 1.377 . S
C680 C678 1.389 . S
C680 C681 1.524 . S
C680 C694 1.377 . S
C681 C680 1.524 . S
C681 C682 1.397 . S
C681 C686 1.363 . S
C682 H659 0.950 . S
C682 C681 1.397 . S
C682 C683 1.334 . S
C683 H660 0.950 . S
C683 C682 1.334 . S
C683 C684 1.287 . S
C684 C683 1.287 . S
C684 C685 1.524 . S
C684 H703 0.913 . S
C685 H661 0.950 . S
C685 C684 1.524 . S
C685 C686 1.415 . S
C686 H662 0.950 . S
C686 C681 1.363 . S
C686 C685 1.415 . S
C687 H663 0.951 . S
C687 C688 1.366 . S
C687 C689 1.388 . S
C688 C687 1.366 . S
C688 C692 1.385 . S
C689 H664 0.951 . S
C689 C687 1.388 . S
C689 C690 1.366 . S
C690 C689 1.366 . S
C690 C691 1.414 . S
C690 C693 1.499 . S
C691 H665 0.950 . S
C691 C690 1.414 . S
C691 C692 1.374 . S
C692 H666 0.950 . S
C692 C688 1.385 . S
C692 C691 1.374 . S
C693 C690 1.499 . S
C693 C694 1.373 . S
C693 C695 1.389 . S
C694 H667 0.950 . S
C694 C680 1.377 . S
C694 C693 1.373 . S
C695 C679 1.377 . S
C695 C693 1.389 . S
C695 C696 1.524 . S
C696 C695 1.524 . S
C696 C697 1.397 . S
C696 C701 1.363 . S
C697 H668 0.950 . S
C697 C696 1.397 . S
C697 C698 1.334 . S
C698 H669 0.950 . S
C698 C697 1.334 . S
C698 C699 1.287 . S
C699 C698 1.287 . S
C699 C700 1.524 . S
C699 H702 0.999 . S
C700 H670 0.950 . S
C700 C699 1.524 . S
C700 C701 1.415 . S
C701 H671 0.950 . S
C701 C696 1.363 . S
C701 C700 1.415 . S
H702 C699 0.999 . S
H703 C684 0.913 . S
H704 C722 0.951 . S
H705 C724 0.951 . S
H706 C726 0.950 . S
H707 C727 0.950 . S
H708 C729 0.950 . S
H709 C732 0.950 . S
H710 C733 0.950 . S
H711 C735 0.950 . S
H712 C736 0.950 . S
H713 C737 0.951 . S
H714 C739 0.951 . S
H715 C741 0.950 . S
H716 C742 0.950 . S
H717 C744 0.950 . S
H718 C747 0.950 . S
H719 C748 0.950 . S
H720 C750 0.950 . S
H721 C751 0.950 . S
C722 H704 0.951 . S
C722 C723 1.366 . S
C722 C724 1.388 . S
C723 C722 1.366 . S
C723 C727 1.385 . S
C724 H705 0.951 . S
C724 C722 1.388 . S
C724 C725 1.366 . S
C725 C724 1.366 . S
C725 C726 1.414 . S
C725 C728 1.499 . S
C726 H706 0.950 . S
C726 C725 1.414 . S
C726 C727 1.374 . S
C727 H707 0.950 . S
C727 C723 1.385 . S
C727 C726 1.374 . S
C728 C725 1.499 . S
C728 C729 1.373 . S
C728 C730 1.389 . S
C729 H708 0.950 . S
C729 C728 1.373 . S
C729 C745 1.377 . S
C730 C728 1.389 . S
C730 C731 1.524 . S
C730 C744 1.377 . S
C731 C730 1.524 . S
C731 C732 1.397 . S
C731 C736 1.363 . S
C732 H709 0.950 . S
C732 C731 1.397 . S
C732 C733 1.334 . S
C733 H710 0.950 . S
C733 C732 1.334 . S
C733 C734 1.287 . S
C734 C733 1.287 . S
C734 C735 1.524 . S
C734 H753 0.913 . S
C735 H711 0.950 . S
C735 C734 1.524 . S
C735 C736 1.415 . S
C736 H712 0.950 . S
C736 C731 1.363 . S
C736 C735 1.415 . S
C737 H713 0.951 . S
C737 C738 1.366 . S
C737 C739 1.388 . S
C738 C737 1.366 . S
C738 C742 1.385 . S
C739 H714 0.951 . S
C739 C737 1.388 . S
C739 C740 1.366 . S
C740 C739 1.366 . S
C740 C741 1.414 . S
C740 C743 1.499 . S
C741 H715 0.950 . S
C741 C740 1.414 . S
C741 C742 1.374 . S
C742 H716 0.950 . S
C742 C738 1.385 . S
C742 C741 1.374 . S
C743 C740 1.499 . S
C743 C744 1.373 . S
C743 C745 1.389 . S
C744 H717 0.950 . S
C744 C730 1.377 . S
C744 C743 1.373 . S
C745 C729 1.377 . S
C745 C743 1.389 . S
C745 C746 1.524 . S
C746 C745 1.524 . S
C746 C747 1.397 . S
C746 C751 1.363 . S
C747 H718 0.950 . S
C747 C746 1.397 . S
C747 C748 1.334 . S
C748 H719 0.950 . S
C748 C747 1.334 . S
C748 C749 1.287 . S
C749 C748 1.287 . S
C749 C750 1.524 . S
C749 H752 0.999 . S
C750 H720 0.950 . S
C750 C749 1.524 . S
C750 C751 1.415 . S
C751 H721 0.950 . S
C751 C746 1.363 . S
C751 C750 1.415 . S
H752 C749 0.999 . S
H753 C734 0.913 . S
H754 C772 0.951 . S
H755 C774 0.951 . S
H756 C776 0.950 . S
H757 C777 0.950 . S
H758 C779 0.950 . S
H759 C782 0.950 . S
H760 C783 0.950 . S
H761 C785 0.950 . S
H762 C786 0.950 . S
H763 C787 0.951 . S
H764 C789 0.951 . S
H765 C791 0.950 . S
H766 C792 0.950 . S
H767 C794 0.950 . S
H768 C797 0.950 . S
H769 C798 0.950 . S
H770 C800 0.950 . S
H771 C801 0.950 . S
C772 H754 0.951 . S
C772 C773 1.366 . S
C772 C774 1.388 . S
C773 C772 1.366 . S
C773 C777 1.385 . S
C774 H755 0.951 . S
C774 C772 1.388 . S
C774 C775 1.366 . S
C775 C774 1.366 . S
C775 C776 1.414 . S
C775 C778 1.499 . S
C776 H756 0.950 . S
C776 C775 1.414 . S
C776 C777 1.374 . S
C777 H757 0.950 . S
C777 C773 1.385 . S
C777 C776 1.374 . S
C778 C775 1.499 . S
C778 C779 1.373 . S
C778 C780 1.389 . S
C779 H758 0.950 . S
C779 C778 1.373 . S
C779 C795 1.377 . S
C780 C778 1.389 . S
C780 C781 1.524 . S
C780 C794 1.377 . S
C781 C780 1.524 . S
C781 C782 1.397 . S
C781 C786 1.363 . S
C782 H759 0.950 . S
C782 C781 1.397 . S
C782 C783 1.334 . S
C783 H760 0.950 . S
C783 C782 1.334 . S
C783 C784 1.287 . S
C784 C783 1.287 . S
C784 C785 1.524 . S
C784 H803 0.913 . S
C785 H761 0.950 . S
C785 C784 1.524 . S
C785 C786 1.415 . S
C786 H762 0.950 . S
C786 C781 1.363 . S
C786 C785 1.415 . S
C787 H763 0.951 . S
C787 C788 1.366 . S
C787 C789 1.388 . S
C788 C787 1.366 . S
C788 C792 1.385 . S
C789 H764 0.951 . S
C789 C787 1.388 . S
C789 C790 1.366 . S
C790 C789 1.366 . S
C790 C791 1.414 . S
C790 C793 1.499 . S
C791 H765 0.950 . S
C791 C790 1.414 . S
C791 C792 1.374 . S
C792 H766 0.950 . S
C792 C788 1.385 . S
C792 C791 1.374 . S
C793 C790 1.499 . S
C793 C794 1.373 . S
C793 C795 1.389 . S
C794 H767 0.950 . S
C794 C780 1.377 . S
C794 C793 1.373 . S
C795 C779 1.377 . S
C795 C793 1.389 . S
C795 C796 1.524 . S
C796 C795 1.524 . S
C796 C797 1.397 . S
C796 C801 1.363 . S
C797 H768 0.950 . S
C797 C796 1.397 . S
C797 C798 1.334 . S
C798 H769 0.950 . S
C798 C797 1.334 . S
C798 C799 1.287 . S
C799 C798 1.287 . S
C799 C800 1.524 . S
C799 H802 0.999 . S
C800 H770 0.950 . S
C800 C799 1.524 . S
C800 C801 1.415 . S
C801 H771 0.950 . S
C801 C796 1.363 . S
C801 C800 1.415 . S
H802 C799 0.999 . S
H803 C784 0.913 . S
H804 C822 0.951 . S
H805 C824 0.951 . S
H806 C826 0.950 . S
H807 C827 0.950 . S
H808 C829 0.950 . S
H809 C832 0.950 . S
H810 C833 0.950 . S
H811 C835 0.950 . S
H812 C836 0.950 . S
H813 C837 0.951 . S
H814 C839 0.951 . S
H815 C841 0.950 . S
H816 C842 0.950 . S
H817 C844 0.950 . S
H818 C847 0.950 . S
H819 C848 0.950 . S
H820 C850 0.950 . S
H821 C851 0.950 . S
C822 H804 0.951 . S
C822 C823 1.366 . S
C822 C824 1.388 . S
C823 C822 1.366 . S
C823 C827 1.385 . S
C824 H805 0.951 . S
C824 C822 1.388 . S
C824 C825 1.366 . S
C825 C824 1.366 . S
C825 C826 1.414 . S
C825 C828 1.499 . S
C826 H806 0.950 . S
C826 C825 1.414 . S
C826 C827 1.374 . S
C827 H807 0.950 . S
C827 C823 1.385 . S
C827 C826 1.374 . S
C828 C825 1.499 . S
C828 C829 1.373 . S
C828 C830 1.389 . S
C829 H808 0.950 . S
C829 C828 1.373 . S
C829 C845 1.377 . S
C830 C828 1.389 . S
C830 C831 1.524 . S
C830 C844 1.377 . S
C831 C830 1.524 . S
C831 C832 1.397 . S
C831 C836 1.363 . S
C832 H809 0.950 . S
C832 C831 1.397 . S
C832 C833 1.334 . S
C833 H810 0.950 . S
C833 C832 1.334 . S
C833 C834 1.287 . S
C834 C833 1.287 . S
C834 C835 1.524 . S
C834 H853 0.913 . S
C835 H811 0.950 . S
C835 C834 1.524 . S
C835 C836 1.415 . S
C836 H812 0.950 . S
C836 C831 1.363 . S
C836 C835 1.415 . S
C837 H813 0.951 . S
C837 C838 1.366 . S
C837 C839 1.388 . S
C838 C837 1.366 . S
C838 C842 1.385 . S
C839 H814 0.951 . S
C839 C837 1.388 . S
C839 C840 1.366 . S
C840 C839 1.366 . S
C840 C841 1.414 . S
C840 C843 1.499 . S
C841 H815 0.950 . S
C841 C840 1.414 . S
C841 C842 1.374 . S
C842 H816 0.950 . S
C842 C838 1.385 . S
C842 C841 1.374 . S
C843 C840 1.499 . S
C843 C844 1.373 . S
C843 C845 1.389 . S
C844 H817 0.950 . S
C844 C830 1.377 . S
C844 C843 1.373 . S
C845 C829 1.377 . S
C845 C843 1.389 . S
C845 C846 1.524 . S
C846 C845 1.524 . S
C846 C847 1.397 . S
C846 C851 1.363 . S
C847 H818 0.950 . S
C847 C846 1.397 . S
C847 C848 1.334 . S
C848 H819 0.950 . S
C848 C847 1.334 . S
C848 C849 1.287 . S
C849 C848 1.287 . S
C849 C850 1.524 . S
C849 H852 0.999 . S
C850 H820 0.950 . S
C850 C849 1.524 . S
C850 C851 1.415 . S
C851 H821 0.950 . S
C851 C846 1.363 . S
C851 C850 1.415 . S
H852 C849 0.999 . S
H853 C834 0.913 . S
H854 C872 0.951 . S
H855 C874 0.951 . S
H856 C876 0.950 . S
H857 C877 0.950 . S
H858 C879 0.950 . S
H859 C882 0.950 . S
H860 C883 0.950 . S
H861 C885 0.950 . S
H862 C886 0.950 . S
H863 C887 0.951 . S
H864 C889 0.951 . S
H865 C891 0.950 . S
H866 C892 0.950 . S
H867 C894 0.950 . S
H868 C897 0.950 . S
H869 C898 0.950 . S
H870 C900 0.950 . S
H871 C901 0.950 . S
C872 H854 0.951 . S
C872 C873 1.366 . S
C872 C874 1.388 . S
C873 C872 1.366 . S
C873 C877 1.385 . S
C874 H855 0.951 . S
C874 C872 1.388 . S
C874 C875 1.366 . S
C875 C874 1.366 . S
C875 C876 1.414 . S
C875 C878 1.499 . S
C876 H856 0.950 . S
C876 C875 1.414 . S
C876 C877 1.374 . S
C877 H857 0.950 . S
C877 C873 1.385 . S
C877 C876 1.374 . S
C878 C875 1.499 . S
C878 C879 1.373 . S
C878 C880 1.389 . S
C879 H858 0.950 . S
C879 C878 1.373 . S
C879 C895 1.377 . S
C880 C878 1.389 . S
C880 C881 1.524 . S
C880 C894 1.377 . S
C881 C880 1.524 . S
C881 C882 1.397 . S
C881 C886 1.363 . S
C882 H859 0.950 . S
C882 C881 1.397 . S
C882 C883 1.334 . S
C883 H860 0.950 . S
C883 C882 1.334 . S
C883 C884 1.287 . S
C884 C883 1.287 . S
C884 C885 1.524 . S
C884 H903 0.913 . S
C885 H861 0.950 . S
C885 C884 1.524 . S
C885 C886 1.415 . S
C886 H862 0.950 . S
C886 C881 1.363 . S
C886 C885 1.415 . S
C887 H863 0.951 . S
C887 C888 1.366 . S
C887 C889 1.388 . S
C888 C887 1.366 . S
C888 C892 1.385 . S
C889 H864 0.951 . S
C889 C887 1.388 . S
C889 C890 1.366 . S
C890 C889 1.366 . S
C890 C891 1.414 . S
C890 C893 1.499 . S
C891 H865 0.950 . S
C891 C890 1.414 . S
C891 C892 1.374 . S
C892 H866 0.950 . S
C892 C888 1.385 . S
C892 C891 1.374 . S
C893 C890 1.499 . S
C893 C894 1.373 . S
C893 C895 1.389 . S
C894 H867 0.950 . S
C894 C880 1.377 . S
C894 C893 1.373 . S
C895 C879 1.377 . S
C895 C893 1.389 . S
C895 C896 1.524 . S
C896 C895 1.524 . S
C896 C897 1.397 . S
C896 C901 1.363 . S
C897 H868 0.950 . S
C897 C896 1.397 . S
C897 C898 1.334 . S
C898 H869 0.950 . S
C898 C897 1.334 . S
C898 C899 1.287 . S
C899 C898 1.287 . S
C899 C900 1.524 . S
C899 H902 0.999 . S
C900 H870 0.950 . S
C900 C899 1.524 . S
C900 C901 1.415 . S
C901 H871 0.950 . S
C901 C896 1.363 . S
C901 C900 1.415 . S
H902 C899 0.999 . S
H903 C884 0.913 . S
C123 C8 1.542 . S
C138 C60 1.543 . S
C173 C21 1.542 . S
C188 C73 1.542 . S
C223 C86 1.542 . S
C238 C34 1.543 . S
C273 C99 1.543 . S
C288 C47 1.543 . S
C323 C0 0.959 . S
C338 C26 0.959 . S
C373 C13 0.959 . S
C388 C39 0.959 . S
C423 C78 0.959 . S
C438 C52 0.959 . S
C473 C65 0.959 . S
C488 C91 0.959 . S
C523 C75 1.212 . S
C538 C10 1.213 . S
C573 C23 1.212 . S
C588 C88 1.213 . S
C623 C101 1.212 . S
C638 C36 1.212 . S
C673 C49 1.212 . S
C688 C62 1.212 . S
C723 C83 1.141 . S
C738 C44 1.142 . S
C773 C5 1.142 . S
C788 C96 1.142 . S
C823 C18 1.141 . S
C838 C57 1.142 . S
C873 C70 1.142 . S
C888 C31 1.141 . S
