# Generated by pormake.
# Topology uos, (4)-cn, num edge types: 1
# Building blocks:
#     Node 0, Type 0, BuildingBlock: CEKHIL_clean_sbu_0, # of connection points: 4
#     Node 1, Type 0, BuildingBlock: CEKHIL_clean_sbu_0, # of connection points: 4
#     Node 2, Type 0, BuildingBlock: CEKHIL_clean_sbu_0, # of connection points: 4
#     Node 3, Type 0, BuildingBlock: CEKHIL_clean_sbu_0, # of connection points: 4
#     Node 4, Type 0, BuildingBlock: CEKHIL_clean_sbu_0, # of connection points: 4
#     Node 5, Type 0, BuildingBlock: CEKHIL_clean_sbu_0, # of connection points: 4
#     Node 6, Type 0, BuildingBlock: CEKHIL_clean_sbu_0, # of connection points: 4
#     Node 7, Type 0, BuildingBlock: CEKHIL_clean_sbu_0, # of connection points: 4
#     Node 8, Type 0, BuildingBlock: CEKHIL_clean_sbu_0, # of connection points: 4
#     Node 9, Type 0, BuildingBlock: CEKHIL_clean_sbu_0, # of connection points: 4
#     Node 10, Type 0, BuildingBlock: CEKHIL_clean_sbu_0, # of connection points: 4
#     Node 11, Type 0, BuildingBlock: CEKHIL_clean_sbu_0, # of connection points: 4
#     Node 12, Type 0, BuildingBlock: CEKHIL_clean_sbu_0, # of connection points: 4
#     Node 13, Type 0, BuildingBlock: CEKHIL_clean_sbu_0, # of connection points: 4
#     Node 14, Type 0, BuildingBlock: CEKHIL_clean_sbu_0, # of connection points: 4
#     Node 15, Type 0, BuildingBlock: CEKHIL_clean_sbu_0, # of connection points: 4
#     Node 16, Type 0, BuildingBlock: CEKHIL_clean_sbu_0, # of connection points: 4
#     Node 17, Type 0, BuildingBlock: CEKHIL_clean_sbu_0, # of connection points: 4
#     Node 18, Type 0, BuildingBlock: CEKHIL_clean_sbu_0, # of connection points: 4
#     Node 19, Type 0, BuildingBlock: CEKHIL_clean_sbu_0, # of connection points: 4
#     Node 20, Type 0, BuildingBlock: CEKHIL_clean_sbu_0, # of connection points: 4
#     Node 21, Type 0, BuildingBlock: CEKHIL_clean_sbu_0, # of connection points: 4
#     Node 22, Type 0, BuildingBlock: CEKHIL_clean_sbu_0, # of connection points: 4
#     Node 23, Type 0, BuildingBlock: CEKHIL_clean_sbu_0, # of connection points: 4
#     Node 24, Type 0, BuildingBlock: CEKHIL_clean_sbu_0, # of connection points: 4
#     Node 25, Type 0, BuildingBlock: CEKHIL_clean_sbu_0, # of connection points: 4
#     Node 26, Type 0, BuildingBlock: CEKHIL_clean_sbu_0, # of connection points: 4
#     Node 27, Type 0, BuildingBlock: CEKHIL_clean_sbu_0, # of connection points: 4
#     Node 28, Type 0, BuildingBlock: CEKHIL_clean_sbu_0, # of connection points: 4
#     Node 29, Type 0, BuildingBlock: CEKHIL_clean_sbu_0, # of connection points: 4
#     Node 30, Type 0, BuildingBlock: CEKHIL_clean_sbu_0, # of connection points: 4
#     Node 31, Type 0, BuildingBlock: CEKHIL_clean_sbu_0, # of connection points: 4
#     Edge 32, Type (0, 0), BuildingBlock: TEMPAE_clean_linker_10, # of connection points: 2
#     Edge 33, Type (0, 0), BuildingBlock: TEMPAE_clean_linker_10, # of connection points: 2
#     Edge 34, Type (0, 0), BuildingBlock: TEMPAE_clean_linker_10, # of connection points: 2
#     Edge 35, Type (0, 0), BuildingBlock: TEMPAE_clean_linker_10, # of connection points: 2
#     Edge 36, Type (0, 0), BuildingBlock: TEMPAE_clean_linker_10, # of connection points: 2
#     Edge 37, Type (0, 0), BuildingBlock: TEMPAE_clean_linker_10, # of connection points: 2
#     Edge 38, Type (0, 0), BuildingBlock: TEMPAE_clean_linker_10, # of connection points: 2
#     Edge 39, Type (0, 0), BuildingBlock: TEMPAE_clean_linker_10, # of connection points: 2
#     Edge 40, Type (0, 0), BuildingBlock: TEMPAE_clean_linker_10, # of connection points: 2
#     Edge 41, Type (0, 0), BuildingBlock: TEMPAE_clean_linker_10, # of connection points: 2
#     Edge 42, Type (0, 0), BuildingBlock: TEMPAE_clean_linker_10, # of connection points: 2
#     Edge 43, Type (0, 0), BuildingBlock: TEMPAE_clean_linker_10, # of connection points: 2
#     Edge 44, Type (0, 0), BuildingBlock: TEMPAE_clean_linker_10, # of connection points: 2
#     Edge 45, Type (0, 0), BuildingBlock: TEMPAE_clean_linker_10, # of connection points: 2
#     Edge 46, Type (0, 0), BuildingBlock: TEMPAE_clean_linker_10, # of connection points: 2
#     Edge 47, Type (0, 0), BuildingBlock: TEMPAE_clean_linker_10, # of connection points: 2
#     Edge 48, Type (0, 0), BuildingBlock: TEMPAE_clean_linker_10, # of connection points: 2
#     Edge 49, Type (0, 0), BuildingBlock: TEMPAE_clean_linker_10, # of connection points: 2
#     Edge 50, Type (0, 0), BuildingBlock: TEMPAE_clean_linker_10, # of connection points: 2
#     Edge 51, Type (0, 0), BuildingBlock: TEMPAE_clean_linker_10, # of connection points: 2
#     Edge 52, Type (0, 0), BuildingBlock: TEMPAE_clean_linker_10, # of connection points: 2
#     Edge 53, Type (0, 0), BuildingBlock: TEMPAE_clean_linker_10, # of connection points: 2
#     Edge 54, Type (0, 0), BuildingBlock: TEMPAE_clean_linker_10, # of connection points: 2
#     Edge 55, Type (0, 0), BuildingBlock: TEMPAE_clean_linker_10, # of connection points: 2
#     Edge 56, Type (0, 0), BuildingBlock: TEMPAE_clean_linker_10, # of connection points: 2
#     Edge 57, Type (0, 0), BuildingBlock: TEMPAE_clean_linker_10, # of connection points: 2
#     Edge 58, Type (0, 0), BuildingBlock: TEMPAE_clean_linker_10, # of connection points: 2
#     Edge 59, Type (0, 0), BuildingBlock: TEMPAE_clean_linker_10, # of connection points: 2
#     Edge 60, Type (0, 0), BuildingBlock: TEMPAE_clean_linker_10, # of connection points: 2
#     Edge 61, Type (0, 0), BuildingBlock: TEMPAE_clean_linker_10, # of connection points: 2
#     Edge 62, Type (0, 0), BuildingBlock: TEMPAE_clean_linker_10, # of connection points: 2
#     Edge 63, Type (0, 0), BuildingBlock: TEMPAE_clean_linker_10, # of connection points: 2
#     Edge 64, Type (0, 0), BuildingBlock: TEMPAE_clean_linker_10, # of connection points: 2
#     Edge 65, Type (0, 0), BuildingBlock: TEMPAE_clean_linker_10, # of connection points: 2
#     Edge 66, Type (0, 0), BuildingBlock: TEMPAE_clean_linker_10, # of connection points: 2
#     Edge 67, Type (0, 0), BuildingBlock: TEMPAE_clean_linker_10, # of connection points: 2
#     Edge 68, Type (0, 0), BuildingBlock: TEMPAE_clean_linker_10, # of connection points: 2
#     Edge 69, Type (0, 0), BuildingBlock: TEMPAE_clean_linker_10, # of connection points: 2
#     Edge 70, Type (0, 0), BuildingBlock: TEMPAE_clean_linker_10, # of connection points: 2
#     Edge 71, Type (0, 0), BuildingBlock: TEMPAE_clean_linker_10, # of connection points: 2
#     Edge 72, Type (0, 0), BuildingBlock: TEMPAE_clean_linker_10, # of connection points: 2
#     Edge 73, Type (0, 0), BuildingBlock: TEMPAE_clean_linker_10, # of connection points: 2
#     Edge 74, Type (0, 0), BuildingBlock: TEMPAE_clean_linker_10, # of connection points: 2
#     Edge 75, Type (0, 0), BuildingBlock: TEMPAE_clean_linker_10, # of connection points: 2
#     Edge 76, Type (0, 0), BuildingBlock: TEMPAE_clean_linker_10, # of connection points: 2
#     Edge 77, Type (0, 0), BuildingBlock: TEMPAE_clean_linker_10, # of connection points: 2
#     Edge 78, Type (0, 0), BuildingBlock: TEMPAE_clean_linker_10, # of connection points: 2
#     Edge 79, Type (0, 0), BuildingBlock: TEMPAE_clean_linker_10, # of connection points: 2
#     Edge 80, Type (0, 0), BuildingBlock: TEMPAE_clean_linker_10, # of connection points: 2
#     Edge 81, Type (0, 0), BuildingBlock: TEMPAE_clean_linker_10, # of connection points: 2
#     Edge 82, Type (0, 0), BuildingBlock: TEMPAE_clean_linker_10, # of connection points: 2
#     Edge 83, Type (0, 0), BuildingBlock: TEMPAE_clean_linker_10, # of connection points: 2
#     Edge 84, Type (0, 0), BuildingBlock: TEMPAE_clean_linker_10, # of connection points: 2
#     Edge 85, Type (0, 0), BuildingBlock: TEMPAE_clean_linker_10, # of connection points: 2
#     Edge 86, Type (0, 0), BuildingBlock: TEMPAE_clean_linker_10, # of connection points: 2
#     Edge 87, Type (0, 0), BuildingBlock: TEMPAE_clean_linker_10, # of connection points: 2
#     Edge 88, Type (0, 0), BuildingBlock: TEMPAE_clean_linker_10, # of connection points: 2
#     Edge 89, Type (0, 0), BuildingBlock: TEMPAE_clean_linker_10, # of connection points: 2
#     Edge 90, Type (0, 0), BuildingBlock: TEMPAE_clean_linker_10, # of connection points: 2
#     Edge 91, Type (0, 0), BuildingBlock: TEMPAE_clean_linker_10, # of connection points: 2
#     Edge 92, Type (0, 0), BuildingBlock: TEMPAE_clean_linker_10, # of connection points: 2
#     Edge 93, Type (0, 0), BuildingBlock: TEMPAE_clean_linker_10, # of connection points: 2
#     Edge 94, Type (0, 0), BuildingBlock: TEMPAE_clean_linker_10, # of connection points: 2
#     Edge 95, Type (0, 0), BuildingBlock: TEMPAE_clean_linker_10, # of connection points: 2
# Relax obj value: 0.049
# Max RMSD: 0.070
# Mean RMSD: 0.070
data_MOF--net-uos--node1-CEKHIL_clean_sbu_0--edge1-TEMPAE_clean_linker_10
_symmetry_space_group_name_H-M    P1
_symmetry_Int_Tables_number       1
_symmetry_cell_setting            triclinic
loop_
_symmetry_equiv_pos_as_xyz
'x, y, z'
_cell_length_a     85.874451
_cell_length_b     85.856404
_cell_length_c     23.106781
_cell_angle_alpha  89.989548
_cell_angle_beta   90.004199
_cell_angle_gamma 89.989258
loop_
_atom_site_label
_atom_site_type_symbol
_atom_site_fract_x
_atom_site_fract_y
_atom_site_fract_z
_atom_type_partial_charge
Co0 Co 0.17052 0.17014 0.12423 0.0
O1 O 0.15184 0.16596 0.07961 0.0
O2 O 0.17253 0.15083 0.07966 0.0
C3 C 0.17223 0.19578 0.09923 0.0
O4 O 0.1923 0.17108 0.16219 0.0
Co5 Co 0.17049 0.19481 0.22395 0.0
O6 O 0.19332 0.19238 0.21891 0.0
C7 C 0.15811 0.16311 0.2459 0.0
C8 C 0.1587 0.15369 0.05912 0.0
C9 C 0.19986 0.18075 0.19476 0.0
O10 O 0.16183 0.15848 0.19437 0.0
O11 O 0.15973 0.17717 0.2632 0.0
O12 O 0.17736 0.18508 0.06435 0.0
O13 O 0.16523 0.19065 0.14463 0.0
Co14 Co 0.08628 0.92182 0.36753 0.0
O15 O 0.09058 0.90356 0.32054 0.0
O16 O 0.10565 0.92431 0.32363 0.0
C17 C 0.06063 0.92355 0.3426 0.0
O18 O 0.08515 0.94332 0.40785 0.0
Co19 Co 0.06153 0.9207 0.46709 0.0
O20 O 0.06429 0.94354 0.46685 0.0
C21 C 0.0933 0.90834 0.48779 0.0
C22 C 0.10286 0.91066 0.30141 0.0
C23 C 0.07569 0.95044 0.44258 0.0
O24 O 0.09796 0.91264 0.43691 0.0
O25 O 0.07917 0.90959 0.50486 0.0
O26 O 0.07128 0.92904 0.30829 0.0
O27 O 0.06581 0.91624 0.38721 0.0
Co28 Co 0.33554 0.83758 0.61673 0.0
O29 O 0.35378 0.84174 0.57003 0.0
O30 O 0.33315 0.85691 0.57198 0.0
C31 C 0.33408 0.81205 0.59085 0.0
O32 O 0.31417 0.83654 0.65789 0.0
Co33 Co 0.33681 0.81266 0.7149 0.0
O34 O 0.31406 0.81591 0.71815 0.0
C35 C 0.34893 0.84453 0.73669 0.0
C36 C 0.34684 0.854 0.5501 0.0
C37 C 0.30721 0.82741 0.69428 0.0
O38 O 0.34486 0.84922 0.68563 0.0
O39 O 0.34757 0.83041 0.75372 0.0
O40 O 0.32796 0.8227 0.55805 0.0
O41 O 0.34152 0.81711 0.63532 0.0
Co42 Co 0.42096 0.08596 0.87003 0.0
O43 O 0.41736 0.10362 0.8193 0.0
O44 O 0.40155 0.08347 0.82656 0.0
C45 C 0.44653 0.08287 0.84666 0.0
O46 O 0.42133 0.06515 0.91471 0.0
Co47 Co 0.44532 0.0882 0.97059 0.0
O48 O 0.44131 0.0656 0.9779 0.0
C49 C 0.41464 0.10329 0.9834 0.0
C50 C 0.40481 0.09669 0.80177 0.0
C51 C 0.43006 0.05854 0.95321 0.0
O52 O 0.40956 0.09663 0.93682 0.0
O53 O 0.42885 0.10257 0.99992 0.0
O54 O 0.43577 0.0773 0.81294 0.0
O55 O 0.44151 0.09111 0.88926 0.0
Co56 Co 0.16725 0.83836 0.90082 0.0
O57 O 0.14998 0.84239 0.95273 0.0
O58 O 0.17057 0.85754 0.94556 0.0
C59 C 0.16912 0.81265 0.92396 0.0
O60 O 0.18778 0.83732 0.8544 0.0
Co61 Co 0.16372 0.81427 0.80074 0.0
O62 O 0.18659 0.81671 0.79434 0.0
C63 C 0.15008 0.8457 0.78808 0.0
C64 C 0.15734 0.85461 0.9709 0.0
C65 C 0.19409 0.82794 0.81726 0.0
O66 O 0.15671 0.85035 0.8353 0.0
O67 O 0.15036 0.83154 0.77076 0.0
O68 O 0.17582 0.82308 0.95623 0.0
O69 O 0.16086 0.81807 0.88211 0.0
Co70 Co 0.41906 0.9179 0.15009 0.0
O71 O 0.41421 0.90053 0.20093 0.0
O72 O 0.40023 0.92203 0.19507 0.0
C73 C 0.44498 0.91882 0.17155 0.0
O74 O 0.42069 0.93859 0.10539 0.0
Co75 Co 0.44272 0.9143 0.04816 0.0
O76 O 0.4406 0.93721 0.04224 0.0
C77 C 0.41101 0.9012 0.03746 0.0
C78 C 0.40236 0.9085 0.21911 0.0
C79 C 0.42979 0.94484 0.06726 0.0
O80 O 0.40655 0.90815 0.0843 0.0
O81 O 0.42516 0.90105 0.02001 0.0
O82 O 0.43489 0.92542 0.2056 0.0
O83 O 0.43902 0.91105 0.12942 0.0
Co84 Co 0.33955 0.16881 0.40324 0.0
O85 O 0.35728 0.16493 0.45301 0.0
O86 O 0.33707 0.14925 0.44627 0.0
C87 C 0.33707 0.19426 0.42958 0.0
O88 O 0.31869 0.16943 0.35899 0.0
Co89 Co 0.3413 0.19407 0.3061 0.0
O90 O 0.31889 0.18955 0.29623 0.0
C91 C 0.35439 0.16255 0.28499 0.0
C92 C 0.35035 0.15242 0.47084 0.0
C93 C 0.31207 0.17805 0.3202 0.0
O94 O 0.34986 0.1576 0.33519 0.0
O95 O 0.35302 0.17673 0.26869 0.0
O96 O 0.33092 0.18336 0.46117 0.0
O97 O 0.34515 0.18948 0.38624 0.0
Co98 Co 0.08782 0.0891 0.6575 0.0
O99 O 0.09223 0.10598 0.71087 0.0
O100 O 0.10683 0.08498 0.70179 0.0
C101 C 0.06205 0.08751 0.67979 0.0
O102 O 0.08657 0.06892 0.60939 0.0
Co103 Co 0.06402 0.09359 0.55703 0.0
O104 O 0.06719 0.071 0.5442 0.0
C105 C 0.09557 0.10698 0.54696 0.0
C106 C 0.10431 0.09819 0.72783 0.0
C107 C 0.07799 0.0632 0.56859 0.0
O108 O 0.10009 0.09979 0.5932 0.0
O109 O 0.08142 0.10717 0.52962 0.0
O110 O 0.07231 0.08046 0.7118 0.0
O111 O 0.06767 0.09595 0.6388 0.0
Co112 Co 0.8369 0.83666 0.89662 0.0
O113 O 0.85477 0.84185 0.94418 0.0
O114 O 0.83347 0.8561 0.93897 0.0
C115 C 0.83556 0.81133 0.92433 0.0
O116 O 0.81592 0.83477 0.85374 0.0
Co117 Co 0.8396 0.81139 0.80019 0.0
O118 O 0.81674 0.81392 0.7948 0.0
C119 C 0.85294 0.84276 0.78096 0.0
C120 C 0.84719 0.85402 0.96167 0.0
C121 C 0.80939 0.82525 0.81773 0.0
O122 O 0.84652 0.84797 0.82774 0.0
O123 O 0.85265 0.82838 0.76626 0.0
O124 O 0.82923 0.82209 0.956 0.0
O125 O 0.84335 0.8162 0.88034 0.0
Co126 Co 0.91932 0.08684 0.63971 0.0
O127 O 0.91413 0.10565 0.68244 0.0
O128 O 0.90041 0.084 0.68568 0.0
C129 C 0.94508 0.0864 0.66385 0.0
O130 O 0.92125 0.06492 0.60338 0.0
Co131 Co 0.94369 0.08755 0.53898 0.0
O132 O 0.94208 0.06465 0.54419 0.0
C133 C 0.91141 0.09846 0.51772 0.0
C134 C 0.90237 0.09819 0.70415 0.0
C135 C 0.93095 0.05769 0.56987 0.0
O136 O 0.90707 0.09454 0.56938 0.0
O137 O 0.92552 0.09752 0.50015 0.0
O138 O 0.93469 0.08107 0.69956 0.0
O139 O 0.93954 0.09298 0.61817 0.0
Co140 Co 0.66981 0.16989 0.4005 0.0
O141 O 0.65162 0.16455 0.4462 0.0
O142 O 0.67283 0.15017 0.44157 0.0
C143 C 0.67104 0.19502 0.43092 0.0
O144 O 0.6911 0.17178 0.35966 0.0
Co145 Co 0.66862 0.19605 0.30704 0.0
O146 O 0.69154 0.19385 0.30715 0.0
C147 C 0.65591 0.16461 0.28036 0.0
C148 C 0.65903 0.15227 0.46361 0.0
C149 C 0.69831 0.18187 0.32787 0.0
O150 O 0.6606 0.15913 0.32954 0.0
O151 O 0.65711 0.17901 0.26653 0.0
O152 O 0.6772 0.18401 0.46187 0.0
O153 O 0.66363 0.19053 0.38552 0.0
Co154 Co 0.58766 0.9204 0.15022 0.0
O155 O 0.59286 0.90185 0.1943 0.0
O156 O 0.60679 0.9234 0.19497 0.0
C157 C 0.56211 0.92105 0.17618 0.0
O158 O 0.58571 0.94207 0.11176 0.0
Co159 Co 0.56287 0.91895 0.05125 0.0
O160 O 0.56515 0.94183 0.05122 0.0
C161 C 0.59512 0.90806 0.02888 0.0
C162 C 0.60478 0.90933 0.21466 0.0
C163 C 0.57623 0.94899 0.07651 0.0
O164 O 0.5996 0.91213 0.08017 0.0
O165 O 0.58098 0.90899 0.01165 0.0
O166 O 0.57265 0.9268 0.21023 0.0
O167 O 0.56731 0.91408 0.13081 0.0
Co168 Co 0.83713 0.16874 0.10752 0.0
O169 O 0.85528 0.16457 0.05976 0.0
O170 O 0.83415 0.15003 0.06036 0.0
C171 C 0.83531 0.19462 0.0869 0.0
O172 O 0.81597 0.16964 0.14998 0.0
Co173 Co 0.83986 0.19212 0.21136 0.0
O174 O 0.81739 0.18774 0.22069 0.0
C175 C 0.85356 0.16072 0.22091 0.0
C176 C 0.84794 0.15261 0.03904 0.0
C177 C 0.8099 0.17745 0.1923 0.0
O178 O 0.84661 0.15627 0.17406 0.0
O179 O 0.85365 0.17485 0.23847 0.0
O180 O 0.82971 0.18438 0.05116 0.0
O181 O 0.84298 0.18892 0.12981 0.0
Co182 Co 0.58831 0.0886 0.8664 0.0
O183 O 0.59322 0.1062 0.81699 0.0
O184 O 0.60774 0.08511 0.82398 0.0
C185 C 0.56292 0.08684 0.83906 0.0
O186 O 0.58674 0.0679 0.91146 0.0
Co187 Co 0.56298 0.09166 0.96247 0.0
O188 O 0.56648 0.06909 0.97324 0.0
C189 C 0.59431 0.10526 0.98111 0.0
C190 C 0.60546 0.09865 0.80002 0.0
C191 C 0.57775 0.06171 0.95006 0.0
O192 O 0.59957 0.09887 0.93426 0.0
O193 O 0.57994 0.10478 0.99581 0.0
O194 O 0.57372 0.0803 0.80813 0.0
O195 O 0.5678 0.09498 0.88213 0.0
Co196 Co 0.66852 0.83747 0.61715 0.0
O197 O 0.65047 0.84221 0.56964 0.0
O198 O 0.67199 0.85618 0.57052 0.0
C199 C 0.66968 0.81158 0.59591 0.0
O200 O 0.68969 0.83591 0.65916 0.0
Co201 Co 0.66537 0.81407 0.72048 0.0
O202 O 0.68819 0.81688 0.72616 0.0
C203 C 0.65232 0.84571 0.73073 0.0
C204 C 0.65812 0.85402 0.54921 0.0
C205 C 0.69587 0.82728 0.69902 0.0
O206 O 0.65939 0.85006 0.68402 0.0
O207 O 0.65195 0.83157 0.74816 0.0
O208 O 0.67551 0.82175 0.56038 0.0
O209 O 0.66217 0.8174 0.63901 0.0
Co210 Co 0.91853 0.9179 0.36202 0.0
O211 O 0.91327 0.90003 0.31454 0.0
O212 O 0.89922 0.92148 0.31895 0.0
C213 C 0.94401 0.91889 0.33484 0.0
O214 O 0.92042 0.9389 0.40477 0.0
Co215 Co 0.94379 0.9152 0.45868 0.0
O216 O 0.94037 0.93782 0.46806 0.0
C217 C 0.91173 0.90366 0.48073 0.0
C218 C 0.90122 0.90771 0.29652 0.0
C219 C 0.92928 0.94517 0.44361 0.0
O220 O 0.9069 0.90857 0.4309 0.0
O221 O 0.92601 0.90427 0.49657 0.0
O222 O 0.93336 0.92538 0.30307 0.0
O223 O 0.93892 0.91122 0.37881 0.0
Co224 Co 0.66759 0.66879 0.61252 0.0
O225 O 0.64973 0.66361 0.56478 0.0
O226 O 0.67133 0.6498 0.56768 0.0
C227 C 0.66814 0.69445 0.58804 0.0
O228 O 0.68862 0.67067 0.65493 0.0
Co229 Co 0.66514 0.6932 0.71192 0.0
O230 O 0.68818 0.69195 0.71184 0.0
C231 C 0.65237 0.6614 0.72842 0.0
C232 C 0.65751 0.65174 0.54566 0.0
C233 C 0.6954 0.68056 0.68882 0.0
O234 O 0.65844 0.65668 0.68029 0.0
O235 O 0.6527 0.67562 0.74511 0.0
O236 O 0.67475 0.68416 0.55495 0.0
O237 O 0.6607 0.68892 0.6318 0.0
Co238 Co 0.58681 0.41861 0.85685 0.0
O239 O 0.59102 0.40164 0.80377 0.0
O240 O 0.60596 0.42235 0.81246 0.0
C241 C 0.56108 0.42029 0.83398 0.0
O242 O 0.58559 0.4389 0.90468 0.0
Co243 Co 0.5628 0.41431 0.95682 0.0
O244 O 0.56558 0.43702 0.9673 0.0
C245 C 0.59433 0.40088 0.96809 0.0
C246 C 0.60319 0.40919 0.78634 0.0
C247 C 0.57658 0.44478 0.94396 0.0
O248 O 0.59892 0.4079 0.9216 0.0
O249 O 0.58016 0.40082 0.98526 0.0
O250 O 0.5714 0.42728 0.80209 0.0
O251 O 0.56661 0.4119 0.87525 0.0
Co252 Co 0.83839 0.33727 0.11049 0.0
O253 O 0.85654 0.34229 0.06417 0.0
O254 O 0.83509 0.35633 0.06545 0.0
C255 C 0.83772 0.31161 0.08541 0.0
O256 O 0.81713 0.33554 0.1517 0.0
Co257 Co 0.84059 0.31253 0.20936 0.0
O258 O 0.81786 0.31566 0.21537 0.0
C259 C 0.85145 0.3449 0.23027 0.0
C260 C 0.84901 0.35424 0.04445 0.0
C261 C 0.81063 0.32671 0.19015 0.0
O262 O 0.84719 0.34935 0.17915 0.0
O263 O 0.85068 0.33076 0.24758 0.0
O264 O 0.83137 0.32202 0.05217 0.0
O265 O 0.84506 0.31701 0.12959 0.0
Co266 Co 0.91951 0.58794 0.36492 0.0
O267 O 0.91467 0.60616 0.31841 0.0
O268 O 0.90083 0.58456 0.31805 0.0
C269 C 0.94539 0.58703 0.34365 0.0
O270 O 0.92117 0.56664 0.40596 0.0
Co271 Co 0.94294 0.59087 0.46837 0.0
O272 O 0.94022 0.56802 0.4729 0.0
C273 C 0.91114 0.60343 0.47967 0.0
C274 C 0.90292 0.59852 0.29751 0.0
C275 C 0.92984 0.56037 0.44553 0.0
O276 O 0.90686 0.59666 0.43227 0.0
O277 O 0.92527 0.60385 0.49721 0.0
O278 O 0.93527 0.58127 0.30779 0.0
O279 O 0.93953 0.59433 0.38714 0.0
Co280 Co 0.66961 0.33724 0.3905 0.0
O281 O 0.65156 0.34169 0.43828 0.0
O282 O 0.67242 0.35659 0.43441 0.0
C283 C 0.67116 0.31154 0.41532 0.0
O284 O 0.69091 0.33587 0.34899 0.0
Co285 Co 0.66794 0.31247 0.29128 0.0
O286 O 0.69084 0.31446 0.29271 0.0
C287 C 0.65618 0.34448 0.27045 0.0
C288 C 0.65882 0.3539 0.45721 0.0
C289 C 0.69789 0.32601 0.31538 0.0
O290 O 0.66035 0.34903 0.32158 0.0
O291 O 0.65735 0.33037 0.25309 0.0
O292 O 0.67695 0.32215 0.44918 0.0
O293 O 0.66369 0.31685 0.37124 0.0
Co294 Co 0.91993 0.41925 0.64353 0.0
O295 O 0.91515 0.40119 0.69094 0.0
O296 O 0.9011 0.42268 0.68939 0.0
C297 C 0.94575 0.42052 0.66571 0.0
O298 O 0.92146 0.44039 0.60135 0.0
Co299 Co 0.94371 0.41633 0.5413 0.0
O300 O 0.94092 0.43915 0.53607 0.0
C301 C 0.91221 0.40301 0.52974 0.0
C302 C 0.90327 0.40883 0.7108 0.0
C303 C 0.93027 0.44671 0.56234 0.0
O304 O 0.90761 0.41001 0.57627 0.0
O305 O 0.92641 0.40281 0.51295 0.0
O306 O 0.93547 0.42635 0.7008 0.0
O307 O 0.94007 0.41298 0.62246 0.0
Co308 Co 0.83598 0.66835 0.89673 0.0
O309 O 0.85466 0.66363 0.9409 0.0
O310 O 0.83307 0.64984 0.94497 0.0
C311 C 0.83553 0.69436 0.91737 0.0
O312 O 0.81422 0.6698 0.8589 0.0
Co313 Co 0.83713 0.69194 0.79314 0.0
O314 O 0.81443 0.68844 0.78996 0.0
C315 C 0.8481 0.65946 0.77667 0.0
C316 C 0.84722 0.65199 0.96353 0.0
C317 C 0.80743 0.67798 0.81916 0.0
O318 O 0.84397 0.65548 0.82849 0.0
O319 O 0.84733 0.67343 0.75758 0.0
O320 O 0.82992 0.68434 0.95397 0.0
O321 O 0.84225 0.68832 0.87296 0.0
Co322 Co 0.58734 0.58598 0.14581 0.0
O323 O 0.59296 0.60423 0.19074 0.0
O324 O 0.60636 0.58235 0.19075 0.0
C325 C 0.56176 0.58622 0.1718 0.0
O326 O 0.5849 0.56451 0.10625 0.0
Co327 Co 0.56246 0.58809 0.04775 0.0
O328 O 0.56399 0.56512 0.04759 0.0
C329 C 0.59486 0.59875 0.02556 0.0
C330 C 0.60467 0.59642 0.21088 0.0
C331 C 0.57518 0.55777 0.07146 0.0
O332 O 0.59945 0.59425 0.07623 0.0
O333 O 0.58063 0.59818 0.00908 0.0
O334 O 0.57205 0.5797 0.2051 0.0
O335 O 0.56727 0.59311 0.12679 0.0
Co336 Co 0.33491 0.33659 0.40707 0.0
O337 O 0.35289 0.34085 0.45563 0.0
O338 O 0.33181 0.35551 0.45283 0.0
C339 C 0.33285 0.31083 0.4292 0.0
O340 O 0.31393 0.33562 0.36344 0.0
Co341 Co 0.33787 0.31269 0.30501 0.0
O342 O 0.31536 0.31683 0.29536 0.0
C343 C 0.35193 0.34389 0.29434 0.0
C344 C 0.3455 0.35293 0.47506 0.0
C345 C 0.30785 0.32743 0.32209 0.0
O346 O 0.34478 0.34865 0.34033 0.0
O347 O 0.35197 0.32967 0.27778 0.0
O348 O 0.32714 0.32125 0.46397 0.0
O349 O 0.34073 0.31629 0.38642 0.0
Co350 Co 0.41918 0.58711 0.14336 0.0
O351 O 0.41449 0.60572 0.18787 0.0
O352 O 0.40012 0.58446 0.18854 0.0
C353 C 0.44487 0.58577 0.16783 0.0
O354 O 0.42045 0.56549 0.10437 0.0
Co355 Co 0.44385 0.58829 0.04307 0.0
O356 O 0.43977 0.5657 0.03828 0.0
C357 C 0.41176 0.59987 0.02268 0.0
C358 C 0.40246 0.59845 0.20838 0.0
C359 C 0.42885 0.55873 0.0652 0.0
O360 O 0.40724 0.59563 0.07375 0.0
O361 O 0.42589 0.59895 1.00541 0.0
O362 O 0.43432 0.58044 0.20286 0.0
O363 O 0.43958 0.59284 0.12285 0.0
Co364 Co 0.16995 0.66985 0.89614 0.0
O365 O 0.15173 0.66507 0.94269 0.0
O366 O 0.17317 0.65097 0.94197 0.0
C367 C 0.17118 0.69566 0.91852 0.0
O368 O 0.19123 0.67135 0.85515 0.0
Co369 Co 0.16747 0.69366 0.79377 0.0
O370 O 0.19034 0.69099 0.7905 0.0
C371 C 0.15427 0.66212 0.78119 0.0
C372 C 0.15927 0.65316 0.96286 0.0
C373 C 0.19776 0.68031 0.81714 0.0
O374 O 0.16098 0.65756 0.82834 0.0
O375 O 0.15417 0.67631 0.76421 0.0
O376 O 0.17684 0.68535 0.9539 0.0
O377 O 0.16381 0.69003 0.87478 0.0
Co378 Co 0.08788 0.4196 0.64197 0.0
O379 O 0.09372 0.40149 0.68723 0.0
O380 O 0.10725 0.42328 0.68457 0.0
C381 C 0.06256 0.41971 0.67064 0.0
O382 O 0.08529 0.44093 0.60177 0.0
Co383 Co 0.06229 0.41749 0.54665 0.0
O384 O 0.0636 0.44048 0.54718 0.0
C385 C 0.09444 0.40654 0.52139 0.0
C386 C 0.10562 0.40932 0.70571 0.0
C387 C 0.07512 0.44775 0.56908 0.0
O388 O 0.0994 0.41103 0.57158 0.0
O389 O 0.08011 0.40725 0.50619 0.0
O390 O 0.07316 0.42625 0.70249 0.0
O391 O 0.06761 0.41257 0.62541 0.0
Co392 Co 0.33778 0.66948 0.61068 0.0
O393 O 0.35579 0.66522 0.56241 0.0
O394 O 0.33466 0.65065 0.56446 0.0
C395 C 0.33576 0.69529 0.58941 0.0
O396 O 0.31679 0.67046 0.65394 0.0
Co397 Co 0.34082 0.69308 0.71361 0.0
O398 O 0.31822 0.68924 0.72199 0.0
C399 C 0.3545 0.66172 0.7237 0.0
C400 C 0.3484 0.65319 0.54256 0.0
C401 C 0.31069 0.67869 0.69504 0.0
O402 O 0.34745 0.65719 0.67719 0.0
O403 O 0.35465 0.67589 0.74092 0.0
O404 O 0.33011 0.68495 0.55417 0.0
O405 O 0.34364 0.68971 0.63202 0.0
Co406 Co 0.08818 0.58819 0.36302 0.0
O407 O 0.0936 0.60627 0.31691 0.0
O408 O 0.10704 0.58442 0.31733 0.0
C409 C 0.0625 0.5882 0.33857 0.0
O410 O 0.08594 0.56691 0.40394 0.0
Co411 Co 0.06373 0.59094 0.46258 0.0
O412 O 0.06615 0.5681 0.46789 0.0
C413 C 0.09638 0.60103 0.48262 0.0
C414 C 0.10528 0.59843 0.29672 0.0
C415 C 0.07694 0.56059 0.4423 0.0
O416 O 0.10062 0.59663 0.43143 0.0
O417 O 0.08227 0.60059 0.50036 0.0
O418 O 0.07268 0.58162 0.305 0.0
O419 O 0.06815 0.59537 0.38271 0.0
Co420 Co 0.1687 0.33787 0.10763 0.0
O421 O 0.15111 0.34312 0.05879 0.0
O422 O 0.17257 0.3571 0.06437 0.0
C423 C 0.16968 0.31237 0.08135 0.0
O424 O 0.18945 0.33584 0.15192 0.0
Co425 Co 0.16532 0.31297 0.20501 0.0
O426 O 0.18826 0.31482 0.20999 0.0
C427 C 0.15241 0.34463 0.22221 0.0
C428 C 0.15889 0.35514 0.04113 0.0
C429 C 0.1958 0.3261 0.1876 0.0
O430 O 0.15897 0.34959 0.17529 0.0
O431 O 0.15252 0.33031 0.23775 0.0
O432 O 0.17642 0.32289 0.04965 0.0
O433 O 0.16181 0.31761 0.12457 0.0
Co434 Co 0.41859 0.41695 0.87428 0.0
O435 O 0.41388 0.39842 0.82936 0.0
O436 O 0.39942 0.41958 0.82949 0.0
C437 C 0.44428 0.41838 0.84949 0.0
O438 O 0.42004 0.43854 0.91335 0.0
Co439 Co 0.44322 0.41566 0.97427 0.0
O440 O 0.44073 0.43852 0.9733 0.0
C441 C 0.41114 0.40428 0.99535 0.0
C442 C 0.40179 0.40564 0.80907 0.0
C443 C 0.42948 0.44554 0.94851 0.0
O444 O 0.40669 0.40839 0.94403 0.0
O445 O 0.42525 0.40527 0.01279 0.0
O446 O 0.43366 0.4237 0.81472 0.0
O447 O 0.43902 0.41118 0.89432 0.0
C448 C 0.29197 0.17792 0.24233 0.0
C449 C 0.29601 0.17454 0.29988 0.0
C450 C 0.27657 0.17656 0.22262 0.0
C451 C 0.26473 0.17193 0.26157 0.0
C452 C 0.26884 0.1677 0.31902 0.0
C453 C 0.28448 0.16892 0.33741 0.0
C454 C 0.27286 0.18102 0.16089 0.0
C455 C 0.25658 0.16279 0.36205 0.0
C456 C 0.22519 0.19039 0.2343 0.0
C457 C 0.21667 0.17825 0.20843 0.0
C458 C 0.24064 0.18833 0.25231 0.0
C459 C 0.24801 0.17375 0.24431 0.0
C460 C 0.23963 0.16145 0.21758 0.0
C461 C 0.22406 0.16384 0.19985 0.0
C462 C 0.2491 0.20186 0.27994 0.0
C463 C 0.24711 0.14576 0.208 0.0
H464 H 0.30087 0.18202 0.2127 0.0
H465 H 0.28751 0.16627 0.38187 0.0
H466 H 0.26528 0.17212 0.14047 0.0
H467 H 0.26642 0.19222 0.16042 0.0
H468 H 0.28354 0.18237 0.1342 0.0
H469 H 0.26177 0.15801 0.40235 0.0
H470 H 0.24929 0.173 0.37358 0.0
H471 H 0.24876 0.1539 0.34283 0.0
H472 H 0.21973 0.20163 0.2409 0.0
H473 H 0.2176 0.15436 0.18033 0.0
H474 H 0.25936 0.20509 0.25336 0.0
H475 H 0.25344 0.19849 0.32338 0.0
H476 H 0.24156 0.21231 0.28465 0.0
H477 H 0.25764 0.14705 0.18065 0.0
H478 H 0.23907 0.13737 0.18683 0.0
H479 H 0.25093 0.14081 0.25001 0.0
C480 C 0.06694 0.97471 0.49326 0.0
C481 C 0.07801 0.96721 0.45798 0.0
C482 C 0.06874 0.99024 0.51074 0.0
C483 C 0.08195 0.99878 0.49258 0.0
C484 C 0.09323 0.9914 0.45701 0.0
C485 C 0.09114 0.9757 0.4401 0.0
C486 C 0.05633 0.99757 0.5483 0.0
C487 C 0.10745 1.00013 0.43653 0.0
C488 C 0.07449 0.04239 0.49361 0.0
C489 C 0.08063 0.04697 0.54742 0.0
C490 C 0.07573 0.02698 0.47374 0.0
C491 C 0.0832 0.01566 0.50854 0.0
C492 C 0.09003 0.02029 0.56178 0.0
C493 C 0.08873 0.0359 0.58049 0.0
C494 C 0.06833 0.02268 0.41662 0.0
C495 C 0.09805 0.00859 0.60033 0.0
H496 H 0.05669 0.96843 0.50753 0.0
H497 H 0.09981 0.97009 0.41315 0.0
H498 H 0.06161 1.00231 0.58841 0.0
H499 H 0.05084 0.00745 0.525 0.0
H500 H 0.04706 0.98917 0.5606 0.0
H501 H 0.11543 0.99263 0.41093 0.0
H502 H 0.10385 0.01016 0.40939 0.0
H503 H 0.11391 0.00489 0.47415 0.0
H504 H 0.06843 0.05084 0.46704 0.0
H505 H 0.09359 0.03928 0.62192 0.0
H506 H 0.05802 0.01518 0.42449 0.0
H507 H 0.0766 0.01592 0.38965 0.0
H508 H 0.06451 0.03309 0.3918 0.0
H509 H 0.08928 1.00048 0.61863 0.0
H510 H 0.10434 0.01426 0.63668 0.0
H511 H 0.10644 1.00152 0.575 0.0
C512 C 0.21976 0.84269 0.81767 0.0
C513 C 0.21064 0.83013 0.7984 0.0
C514 C 0.23538 0.84443 0.7995 0.0
C515 C 0.2421 0.83335 0.76135 0.0
C516 C 0.23285 0.82086 0.741 0.0
C517 C 0.21736 0.81942 0.75961 0.0
C518 C 0.24482 0.85794 0.82217 0.0
C519 C 0.23947 0.80866 0.70076 0.0
C520 C 0.28043 0.83932 0.67911 0.0
C521 C 0.29076 0.83036 0.71241 0.0
C522 C 0.26465 0.84102 0.69562 0.0
C523 C 0.25913 0.83372 0.74685 0.0
C524 C 0.26971 0.82527 0.78174 0.0
C525 C 0.28526 0.82368 0.76413 0.0
C526 C 0.25377 0.85011 0.65714 0.0
C527 C 0.26447 0.81732 0.83676 0.0
H528 H 0.21474 0.8511 0.84723 0.0
H529 H 0.21056 0.80966 0.744 0.0
H530 H 0.25425 0.85353 0.8506 0.0
H531 H 0.25045 0.86423 0.78582 0.0
H532 H 0.23761 0.86629 0.84723 0.0
H533 H 0.2305 0.80025 0.68583 0.0
H534 H 0.24478 0.81428 0.66229 0.0
H535 H 0.24881 0.80209 0.72321 0.0
H536 H 0.28452 0.8446 0.63931 0.0
H537 H 0.29313 0.81696 0.791 0.0
H538 H 0.24697 0.8586 0.68306 0.0
H539 H 0.24532 0.84204 0.63661 0.0
H540 H 0.26008 0.85647 0.62246 0.0
H541 H 0.25821 0.82567 0.86505 0.0
H542 H 0.27437 0.8123 0.86149 0.0
H543 H 0.25623 0.80779 0.82609 0.0
C544 C 0.41743 0.03208 0.93964 0.0
C545 C 0.42724 0.04206 0.97109 0.0
C546 C 0.41581 0.01625 0.95522 0.0
C547 C 0.42415 0.01027 1.00339 0.0
C548 C 0.43355 0.02044 0.03648 0.0
C549 C 0.43497 0.0361 0.02003 0.0
C550 C 0.40562 0.0058 0.91892 0.0
C551 C 0.44268 0.01466 0.08813 0.0
C552 C 0.41581 0.9708 0.07377 0.0
C553 C 0.42764 0.96148 0.04995 0.0
C554 C 0.41408 0.98655 0.0574 0.0
C555 C 0.42442 0.99318 0.01637 0.0
C556 C 0.43613 0.98375 0.99133 0.0
C557 C 0.43759 0.96812 0.0083 0.0
C558 C 0.40142 0.9962 0.08504 0.0
C559 C 0.44751 0.99029 0.94773 0.0
H560 H 0.41135 0.03652 0.90199 0.0
H561 H 0.44243 0.04365 0.0454 0.0
H562 H 0.41299 0.99732 0.8952 0.0
H563 H 0.39761 0.99901 0.94692 0.0
H564 H 0.39863 0.01247 0.88693 0.0
H565 H 0.44855 0.02427 0.11183 0.0
H566 H 0.4349 0.00843 0.11863 0.0
H567 H 0.45169 0.00626 0.0736 0.0
H568 H 0.40798 0.96584 0.10562 0.0
H569 H 0.44674 0.96113 0.98911 0.0
H570 H 0.39448 1.00224 0.05132 0.0
H571 H 0.40673 0.00531 0.11278 0.0
H572 H 0.39346 0.98905 0.11206 0.0
H573 H 0.44115 0.99594 0.9116 0.0
H574 H 0.4553 0.9812 0.92952 0.0
H575 H 0.45481 0.99935 0.96859 0.0
C576 C 0.78608 0.81732 0.75928 0.0
C577 C 0.79281 0.82754 0.79981 0.0
C578 C 0.77057 0.81898 0.74116 0.0
C579 C 0.76132 0.83116 0.76397 0.0
C580 C 0.76804 0.84173 0.80404 0.0
C581 C 0.78369 0.8398 0.82149 0.0
C582 C 0.76394 0.80736 0.69865 0.0
C583 C 0.75858 0.85486 0.82946 0.0
C584 C 0.72291 0.83859 0.68422 0.0
C585 C 0.71252 0.8294 0.71639 0.0
C586 C 0.73875 0.83982 0.70031 0.0
C587 C 0.74431 0.83173 0.74978 0.0
C588 C 0.73374 0.82289 0.78333 0.0
C589 C 0.7181 0.82183 0.7663 0.0
C590 C 0.74963 0.84937 0.66338 0.0
C591 C 0.73906 0.81405 0.83634 0.0
H592 H 0.7929 0.80782 0.7417 0.0
H593 H 0.78872 0.84784 0.85246 0.0
H594 H 0.75462 0.80046 0.71986 0.0
H595 H 0.7586 0.8135 0.66138 0.0
H596 H 0.77292 0.79918 0.68203 0.0
H597 H 0.76578 0.86284 0.85621 0.0
H598 H 0.75294 0.86168 0.79447 0.0
H599 H 0.74916 0.85002 0.85695 0.0
H600 H 0.71878 0.84455 0.64584 0.0
H601 H 0.71025 0.81484 0.79224 0.0
H602 H 0.75813 0.84157 0.64169 0.0
H603 H 0.75638 0.85757 0.69072 0.0
H604 H 0.74333 0.85612 0.62969 0.0
H605 H 0.74732 0.80474 0.82341 0.0
H606 H 0.72921 0.80861 0.86005 0.0
H607 H 0.74534 0.82194 0.86636 0.0
C608 C 0.93039 0.96546 0.52087 0.0
C609 C 0.92636 0.96138 0.46391 0.0
C610 C 0.92907 0.98083 0.54086 0.0
C611 C 0.92381 0.99263 0.50282 0.0
C612 C 0.91907 0.98851 0.44593 0.0
C613 C 0.92027 0.97289 0.42727 0.0
C614 C 0.93406 0.98456 0.60199 0.0
C615 C 0.91351 1.00073 0.40383 0.0
C616 C 0.91491 0.03289 0.56668 0.0
C617 C 0.92898 0.04078 0.55658 0.0
C618 C 0.9129 0.01727 0.54886 0.0
C619 C 0.92524 0.00936 0.52044 0.0
C620 C 0.93949 0.01722 0.51098 0.0
C621 C 0.94118 0.03271 0.52917 0.0
C622 C 0.89757 0.00926 0.5601 0.0
C623 C 0.95305 0.00928 0.48149 0.0
H624 H 0.93483 0.95659 0.54995 0.0
H625 H 0.91709 0.96983 0.38332 0.0
H626 H 0.94501 0.99143 0.60103 0.0
H627 H 0.92512 0.99177 0.62398 0.0
H628 H 0.9361 0.97389 0.62812 0.0
H629 H 0.90865 0.99552 0.3637 0.0
H630 H 0.90448 0.00818 0.42416 0.0
H631 H 0.92339 0.0084 0.39181 0.0
H632 H 0.90538 0.039 0.58738 0.0
H633 H 0.95216 0.03856 0.52137 0.0
H634 H 0.89946 0.99869 0.58684 0.0
H635 H 0.89237 0.00538 0.51857 0.0
H636 H 0.88912 0.01696 0.58262 0.0
H637 H 0.95683 0.99905 0.50728 0.0
H638 H 0.96319 0.01716 0.47582 0.0
H639 H 0.94944 0.00493 0.43831 0.0
C640 C 0.72186 0.16456 0.3134 0.0
C641 C 0.7149 0.17935 0.3109 0.0
C642 C 0.73715 0.16212 0.29272 0.0
C643 C 0.74573 0.17478 0.26944 0.0
C644 C 0.73879 0.18973 0.2675 0.0
C645 C 0.72355 0.19181 0.28806 0.0
C646 C 0.74412 0.14601 0.29562 0.0
C647 C 0.74752 0.20364 0.24397 0.0
C648 C 0.78989 0.17659 0.27037 0.0
C649 C 0.79364 0.17442 0.21172 0.0
C650 C 0.77447 0.17576 0.29015 0.0
C651 C 0.7623 0.17285 0.25033 0.0
C652 C 0.76604 0.16986 0.19146 0.0
C653 C 0.78171 0.17057 0.17286 0.0
C654 C 0.77115 0.17886 0.35332 0.0
C655 C 0.75342 0.16674 0.14756 0.0
H656 H 0.71527 0.15482 0.33041 0.0
H657 H 0.71838 0.20332 0.28611 0.0
H658 H 0.74769 0.14219 0.25173 0.0
H659 H 0.75474 0.14616 0.32291 0.0
H660 H 0.73585 0.13732 0.31367 0.0
H661 H 0.74032 0.21439 0.24384 0.0
H662 H 0.75807 0.20581 0.27049 0.0
H663 H 0.75145 0.20128 0.19909 0.0
H664 H 0.79907 0.17931 0.30097 0.0
H665 H 0.7845 0.16887 0.12755 0.0
H666 H 0.76339 0.16973 0.37127 0.0
H667 H 0.76502 0.19018 0.35783 0.0
H668 H 0.78196 0.17928 0.3797 0.0
H669 H 0.74529 0.15771 0.16382 0.0
H670 H 0.75824 0.16289 0.10531 0.0
H671 H 0.74655 0.17753 0.14049 0.0
C672 C 0.58833 0.03438 0.93696 0.0
C673 C 0.58054 0.04549 0.97084 0.0
C674 C 0.58962 0.01875 0.95551 0.0
C675 C 0.58316 0.01417 0.00947 0.0
C676 C 0.57605 0.02555 0.04503 0.0
C677 C 0.57477 0.04095 0.02525 0.0
C678 C 0.59723 0.00699 0.91611 0.0
C679 C 0.56909 0.02132 0.10298 0.0
C680 C 0.56689 0.9733 0.02759 0.0
C681 C 0.57827 0.96582 0.06147 0.0
C682 C 0.56858 0.98881 0.00957 0.0
C683 C 0.58198 0.99732 0.02585 0.0
C684 C 0.59354 0.98996 0.06025 0.0
C685 C 0.59156 0.9743 0.07768 0.0
C686 C 0.55586 0.99612 0.97338 0.0
C687 C 0.60795 0.99867 0.0788 0.0
H688 H 0.59288 0.03776 0.89503 0.0
H689 H 0.56897 0.04946 0.05241 0.0
H690 H 0.6058 0.99989 0.94048 0.0
H691 H 0.58825 0.99891 0.89902 0.0
H692 H 0.60321 0.01261 0.87895 0.0
H693 H 0.56551 0.03175 0.1281 0.0
H694 H 0.5587 0.01385 0.09635 0.0
H695 H 0.57755 0.01454 0.12912 0.0
H696 H 0.5565 0.96702 0.01476 0.0
H697 H 0.60048 0.96868 0.1035 0.0
H698 H 0.56081 1.00081 0.93259 0.0
H699 H 0.5506 0.00604 0.99715 0.0
H700 H 0.54647 0.98774 0.96235 0.0
H701 H 0.61415 0.00326 0.04027 0.0
H702 H 0.61609 0.99122 0.10394 0.0
H703 H 0.60464 0.00883 0.10578 0.0
C704 C 0.71871 0.66355 0.70958 0.0
C705 C 0.71204 0.67843 0.70516 0.0
C706 C 0.73402 0.66156 0.7306 0.0
C707 C 0.74297 0.67477 0.74651 0.0
C708 C 0.73635 0.68981 0.74098 0.0
C709 C 0.72099 0.69143 0.72092 0.0
C710 C 0.74057 0.64532 0.73629 0.0
C711 C 0.74552 0.70427 0.75603 0.0
C712 C 0.77916 0.67297 0.84315 0.0
C713 C 0.79105 0.67478 0.80221 0.0
C714 C 0.7634 0.67227 0.82566 0.0
C715 C 0.75955 0.67314 0.76591 0.0
C716 C 0.77166 0.674 0.72454 0.0
C717 C 0.78718 0.67494 0.74319 0.0
C718 C 0.75084 0.67144 0.87119 0.0
C719 C 0.76822 0.67473 0.66048 0.0
H720 H 0.7118 0.65343 0.69825 0.0
H721 H 0.71596 0.70298 0.71742 0.0
H722 H 0.75115 0.64413 0.70912 0.0
H723 H 0.74412 0.64316 0.78176 0.0
H724 H 0.73206 0.63624 0.72321 0.0
H725 H 0.73863 0.7151 0.75006 0.0
H726 H 0.7495 0.70368 0.80166 0.0
H727 H 0.75607 0.70499 0.72842 0.0
H728 H 0.78209 0.67291 0.88878 0.0
H729 H 0.79637 0.67615 0.7113 0.0
H730 H 0.74238 0.6621 0.86056 0.0
H731 H 0.74433 0.68259 0.87213 0.0
H732 H 0.75568 0.66923 0.91502 0.0
H733 H 0.76016 0.66523 0.64784 0.0
H734 H 0.77895 0.67381 0.63382 0.0
H735 H 0.76239 0.68593 0.65017 0.0
C736 C 0.57107 0.46623 0.01482 0.0
C737 C 0.57891 0.46113 0.9648 0.0
C738 C 0.5722 0.48167 0.0344 0.0
C739 C 0.58136 0.49252 1.00335 0.0
C740 C 0.58978 0.48739 0.954 0.0
C741 C 0.58849 0.47176 0.93538 0.0
C742 C 0.56302 0.48652 0.08721 0.0
C743 C 0.59967 0.49856 0.91957 0.0
C744 C 0.56709 0.53437 0.01374 0.0
C745 C 0.57719 0.54102 0.05491 0.0
C746 C 0.56868 0.51885 0.99561 0.0
C747 C 0.58063 0.50946 0.01919 0.0
C748 C 0.59099 0.51602 0.06042 0.0
C749 C 0.58917 0.53172 0.07773 0.0
C750 C 0.55731 0.51243 0.95172 0.0
C751 C 0.60384 0.50639 0.08684 0.0
H752 H 0.56378 0.45817 0.03867 0.0
H753 H 0.59467 0.46799 0.89695 0.0
H754 H 0.57065 0.49267 0.11844 0.0
H755 H 0.55368 0.49475 0.07431 0.0
H756 H 0.55756 0.47643 0.10949 0.0
H757 H 0.60674 0.49252 0.88616 0.0
H758 H 0.59207 0.50721 0.89775 0.0
H759 H 0.60759 0.5051 0.94869 0.0
H760 H 0.5578 0.54132 0.99523 0.0
H761 H 0.5971 0.53666 0.10923 0.0
H762 H 0.55039 0.50292 0.97151 0.0
H763 H 0.5637 0.5074 0.91441 0.0
H764 H 0.54916 0.52146 0.93531 0.0
H765 H 0.59874 0.49668 0.11226 0.0
H766 H 0.61146 0.51337 0.11576 0.0
H767 H 0.6111 0.50111 0.05229 0.0
C768 C 0.72297 0.3417 0.31281 0.0
C769 C 0.71461 0.32813 0.29906 0.0
C770 C 0.73858 0.34363 0.29469 0.0
C771 C 0.74601 0.33173 0.26218 0.0
C772 C 0.7376 0.31809 0.24814 0.0
C773 C 0.72214 0.31646 0.2667 0.0
C774 C 0.74717 0.35833 0.31073 0.0
C775 C 0.74501 0.305 0.2141 0.0
C776 C 0.7833 0.33699 0.17363 0.0
C777 C 0.7943 0.32965 0.20931 0.0
C778 C 0.76762 0.33851 0.19131 0.0
C779 C 0.76289 0.33274 0.24621 0.0
C780 C 0.77416 0.32611 0.28343 0.0
C781 C 0.78961 0.32458 0.2645 0.0
C782 C 0.75597 0.3456 0.15019 0.0
C783 C 0.76978 0.3199 0.34242 0.0
H784 H 0.71731 0.35084 0.33737 0.0
H785 H 0.71595 0.30587 0.2557 0.0
H786 H 0.7572 0.35545 0.33903 0.0
H787 H 0.75193 0.36396 0.27129 0.0
H788 H 0.73959 0.36681 0.33367 0.0
H789 H 0.73666 0.29548 0.20426 0.0
H790 H 0.74977 0.3095 0.17273 0.0
H791 H 0.75488 0.30002 0.23896 0.0
H792 H 0.78681 0.34102 0.13112 0.0
H793 H 0.79804 0.31917 0.29307 0.0
H794 H 0.74878 0.35445 0.17279 0.0
H795 H 0.74796 0.33641 0.13428 0.0
H796 H 0.76168 0.35115 0.1123 0.0
H797 H 0.76297 0.3287 0.36681 0.0
H798 H 0.78015 0.31663 0.3685 0.0
H799 H 0.76231 0.30945 0.33739 0.0
C800 C 0.937 0.46953 0.49943 0.0
C801 C 0.928 0.46333 0.54483 0.0
C802 C 0.93552 0.48509 0.48187 0.0
C803 C 0.92475 0.49495 0.51021 0.0
C804 C 0.9153 0.48877 0.55509 0.0
C805 C 0.91703 0.47303 0.57189 0.0
C806 C 0.94591 0.49112 0.43407 0.0
C807 C 0.90368 0.49889 0.58639 0.0
C808 C 0.93659 0.53754 0.50832 0.0
C809 C 0.92772 0.54369 0.46245 0.0
C810 C 0.93522 0.52194 0.52556 0.0
C811 C 0.92471 0.51199 0.49641 0.0
C812 C 0.9154 0.51811 0.45098 0.0
C813 C 0.917 0.53388 0.43452 0.0
C814 C 0.94546 0.51599 0.57399 0.0
C815 C 0.90404 0.50788 0.41882 0.0
H816 H 0.94545 0.46224 0.47754 0.0
H817 H 0.90992 0.46842 0.60666 0.0
H818 H 0.93885 0.49689 0.40008 0.0
H819 H 0.95403 0.49997 0.45176 0.0
H820 H 0.95289 0.48171 0.41361 0.0
H821 H 0.8962 0.49207 0.61631 0.0
H822 H 0.90993 0.5079 0.61178 0.0
H823 H 0.89614 0.50507 0.55484 0.0
H824 H 0.94485 0.5449 0.53089 0.0
H825 H 0.91 0.53845 0.39938 0.0
H826 H 0.95372 0.5072 0.55681 0.0
H827 H 0.93829 0.51017 0.60754 0.0
H828 H 0.95227 0.52544 0.59487 0.0
H829 H 0.91051 0.49891 0.39396 0.0
H830 H 0.89667 0.51463 0.38828 0.0
H831 H 0.89638 0.50165 0.4498 0.0
C832 C 0.28026 0.3371 0.33805 0.0
C833 C 0.29157 0.33033 0.30216 0.0
C834 C 0.2646 0.33834 0.31974 0.0
C835 C 0.2602 0.33282 0.26412 0.0
C836 C 0.27176 0.32673 0.22685 0.0
C837 C 0.28719 0.32554 0.24627 0.0
C838 C 0.25264 0.34491 0.36081 0.0
C839 C 0.26773 0.32078 0.16716 0.0
C840 C 0.21968 0.31634 0.23853 0.0
C841 C 0.21235 0.32814 0.20621 0.0
C842 C 0.235 0.31796 0.25877 0.0
C843 C 0.24342 0.33175 0.24673 0.0
C844 C 0.23614 0.34379 0.21448 0.0
C845 C 0.22072 0.34183 0.19445 0.0
C846 C 0.24229 0.30471 0.29229 0.0
C847 C 0.24471 0.35868 0.20068 0.0
H848 H 0.28351 0.34089 0.38113 0.0
H849 H 0.29584 0.32055 0.21758 0.0
H850 H 0.24541 0.35381 0.33864 0.0
H851 H 0.24472 0.33547 0.37524 0.0
H852 H 0.25808 0.35027 0.39963 0.0
H853 H 0.27824 0.3177 0.14159 0.0
H854 H 0.26029 0.31026 0.17096 0.0
H855 H 0.26098 0.32965 0.14287 0.0
H856 H 0.21344 0.30566 0.24795 0.0
H857 H 0.2152 0.35108 0.16999 0.0
H858 H 0.24672 0.30897 0.33451 0.0
H859 H 0.25237 0.29999 0.26794 0.0
H860 H 0.23395 0.29506 0.30041 0.0
H861 H 0.24921 0.36403 0.24106 0.0
H862 H 0.23719 0.36728 0.1781 0.0
H863 H 0.25491 0.35609 0.17282 0.0
C864 C 0.43119 0.53712 0.99343 0.0
C865 C 0.42568 0.54233 0.0474 0.0
C866 C 0.42957 0.52157 0.97596 0.0
C867 C 0.42228 0.51075 0.01329 0.0
C868 C 0.416 0.51601 0.06668 0.0
C869 C 0.41772 0.53178 0.08307 0.0
C870 C 0.43643 0.51659 0.91864 0.0
C871 C 0.40812 0.50485 0.10767 0.0
C872 C 0.41387 0.47066 0.94751 0.0
C873 C 0.42719 0.46228 0.96411 0.0
C874 C 0.41175 0.48631 0.9648 0.0
C875 C 0.42323 0.49375 0.99931 0.0
C876 C 0.43657 0.48528 0.01652 0.0
C877 C 0.43838 0.46979 0.99875 0.0
C878 C 0.39737 0.49496 0.94552 0.0
C879 C 0.44921 0.49271 0.05277 0.0
H880 H 0.43708 0.54518 0.96474 0.0
H881 H 0.41331 0.53569 0.12456 0.0
H882 H 0.44663 0.50893 0.92638 0.0
H883 H 0.42781 0.50979 0.89339 0.0
H884 H 0.44028 0.52667 0.89211 0.0
H885 H 0.40207 0.511 0.14351 0.0
H886 H 0.39954 0.49754 0.08415 0.0
H887 H 0.41693 0.49689 0.12662 0.0
H888 H 0.40508 0.46501 0.92124 0.0
H889 H 0.44876 0.46356 0.01208 0.0
H890 H 0.4007 0.50463 0.91618 0.0
H891 H 0.39143 0.50022 0.98341 0.0
H892 H 0.38901 0.48727 0.92251 0.0
H893 H 0.45472 0.50236 0.02824 0.0
H894 H 0.45843 0.48428 0.06531 0.0
H895 H 0.44415 0.49778 0.09272 0.0
C896 C 0.28345 0.66812 0.67932 0.0
C897 C 0.29432 0.67594 0.71414 0.0
C898 C 0.26773 0.66676 0.69661 0.0
C899 C 0.26281 0.67327 0.75006 0.0
C900 C 0.27391 0.68047 0.78646 0.0
C901 C 0.28942 0.68173 0.76811 0.0
C902 C 0.25625 0.65896 0.65658 0.0
C903 C 0.26928 0.68757 0.84379 0.0
C904 C 0.22183 0.68935 0.76607 0.0
C905 C 0.21447 0.67815 0.8011 0.0
C906 C 0.23733 0.68761 0.74807 0.0
C907 C 0.24589 0.67432 0.76528 0.0
C908 C 0.2386 0.66288 0.80033 0.0
C909 C 0.22298 0.66494 0.81799 0.0
C910 C 0.24462 0.70023 0.71136 0.0
C911 C 0.24734 0.64854 0.81959 0.0
H912 H 0.28709 0.66352 0.63778 0.0
H913 H 0.29771 0.68755 0.79609 0.0
H914 H 0.24907 0.65041 0.68072 0.0
H915 H 0.24821 0.66783 0.63848 0.0
H916 H 0.26212 0.65291 0.62012 0.0
H917 H 0.27952 0.69144 0.86941 0.0
H918 H 0.26165 0.69779 0.83616 0.0
H919 H 0.26256 0.67907 0.86993 0.0
H920 H 0.2155 0.69965 0.7527 0.0
H921 H 0.21743 0.65615 0.84462 0.0
H922 H 0.24947 0.69515 0.67107 0.0
H923 H 0.25442 0.70569 0.73522 0.0
H924 H 0.23617 0.70949 0.69942 0.0
H925 H 0.2523 0.64243 0.78152 0.0
H926 H 0.23981 0.6403 0.84386 0.0
H927 H 0.25724 0.65197 0.84771 0.0
C928 C 0.09079 0.47274 0.56394 0.0
C929 C 0.077 0.46449 0.55264 0.0
C930 C 0.09267 0.4883 0.54518 0.0
C931 C 0.08047 0.49581 0.51453 0.0
C932 C 0.06655 0.48752 0.50315 0.0
C933 C 0.065 0.47209 0.52229 0.0
C934 C 0.10766 0.49673 0.55843 0.0
C935 C 0.05316 0.49504 0.47121 0.0
C936 C 0.07463 0.53965 0.51685 0.0
C937 C 0.07939 0.54415 0.46108 0.0
C938 C 0.07573 0.52415 0.53565 0.0
C939 C 0.08158 0.51263 0.49768 0.0
C940 C 0.08695 0.51713 0.44197 0.0
C941 C 0.08591 0.53287 0.42445 0.0
C942 C 0.07001 0.52002 0.59556 0.0
C943 C 0.09318 0.5052 0.40002 0.0
H944 H 0.10019 0.46702 0.58691 0.0
H945 H 0.05424 0.46595 0.51326 0.0
H946 H 0.11293 0.50119 0.51783 0.0
H947 H 0.10524 0.50696 0.58637 0.0
H948 H 0.11626 0.48914 0.58064 0.0
H949 H 0.04339 0.48681 0.46349 0.0
H950 H 0.04867 0.50507 0.49648 0.0
H951 H 0.05719 0.49961 0.42887 0.0
H952 H 0.06985 0.5483 0.54606 0.0
H953 H 0.08967 0.53622 0.38144 0.0
H954 H 0.07892 0.51312 0.61901 0.0
H955 H 0.0594 0.51271 0.5922 0.0
H956 H 0.06716 0.5305 0.62169 0.0
H957 H 0.10221 0.49791 0.42116 0.0
H958 H 0.09827 0.51067 0.36076 0.0
H959 H 0.08362 0.49731 0.38644 0.0
C960 C 0.15647 0.12911 0.99886 0.0
C961 C 0.15142 0.14427 0.0118 0.0
C962 C 0.14961 0.12041 0.95351 0.0
C963 C 0.13766 0.12714 0.91908 0.0
C964 C 0.1327 0.14252 0.93164 0.0
C965 C 0.13946 0.15077 0.978 0.0
C966 C 0.15503 0.10395 0.94277 0.0
C967 C 0.12028 0.15038 0.89573 0.0
C968 C 0.12807 0.11157 0.76742 0.0
C969 C 0.11392 0.10386 0.777 0.0
C970 C 0.13618 0.1188 0.8134 0.0
C971 C 0.13009 0.11815 0.87055 0.0
C972 C 0.11606 0.10983 0.88043 0.0
C973 C 0.10808 0.10299 0.83354 0.0
C974 C 0.15089 0.12773 0.80035 0.0
C975 C 0.10919 0.10857 0.94037 0.0
H976 H 0.16567 0.12396 0.02466 0.0
H977 H 0.13555 0.16252 0.98707 0.0
H978 H 0.14505 0.09581 0.94664 0.0
H979 H 0.15961 0.10286 0.89807 0.0
H980 H 0.16426 0.10029 0.97361 0.0
H981 H 0.11814 0.16259 0.90951 0.0
H982 H 0.12373 0.15039 0.84945 0.0
H983 H 0.10919 0.14381 0.8991 0.0
H984 H 0.13249 0.11245 0.72359 0.0
H985 H 0.09706 0.09714 0.84093 0.0
H986 H 0.16047 0.12378 0.82899 0.0
H987 H 0.14899 0.14029 0.80913 0.0
H988 H 0.15463 0.12636 0.7546 0.0
H989 H 0.11815 0.10449 0.97148 0.0
H990 H 0.09912 0.10046 0.94186 0.0
H991 H 0.10523 0.12021 0.95509 0.0
C992 C 0.15235 0.88016 0.02278 0.0
C993 C 0.15111 0.86387 0.02053 0.0
C994 C 0.14532 0.88878 0.06808 0.0
C995 C 0.13738 0.88091 0.1135 0.0
C996 C 0.13674 0.86441 0.11238 0.0
C997 C 0.14329 0.85618 0.0656 0.0
C998 C 0.14588 0.90633 0.06612 0.0
C999 C 0.12893 0.85539 0.16038 0.0
C1000 C 0.12826 0.90176 0.25703 0.0
C1001 C 0.11213 0.90404 0.25273 0.0
C1002 C 0.1367 0.8944 0.21204 0.0
C1003 C 0.12895 0.88978 0.16044 0.0
C1004 C 0.11275 0.89272 0.15527 0.0
C1005 C 0.10453 0.89946 0.20178 0.0
C1006 C 0.15377 0.891 0.22071 0.0
C1007 C 0.104 0.88856 0.10075 0.0
H1008 H 0.15827 0.88619 0.98795 0.0
H1009 H 0.14241 0.84358 0.06452 0.0
H1010 H 0.13386 0.911 0.0624 0.0
H1011 H 0.15088 0.91099 0.10682 0.0
H1012 H 0.15287 0.91072 0.0291 0.0
H1013 H 0.13079 0.84263 0.15626 0.0
H1014 H 0.13342 0.85925 0.20307 0.0
H1015 H 0.11622 0.85767 0.15988 0.0
H1016 H 0.13416 0.90517 0.29651 0.0
H1017 H 0.09207 0.9013 0.19809 0.0
H1018 H 0.1607 0.89599 0.18473 0.0
H1019 H 0.15568 0.87821 0.22025 0.0
H1020 H 0.15823 0.89573 0.26226 0.0
H1021 H 0.11015 0.89326 0.06228 0.0
H1022 H 0.09189 0.89313 0.10098 0.0
H1023 H 0.1035 0.87572 0.09592 0.0
C1024 C 0.39761 0.9046 0.32484 0.0
C1025 C 0.39256 0.90274 0.2676 0.0
C1026 C 0.38935 0.89796 0.37148 0.0
C1027 C 0.37577 0.88898 0.36072 0.0
C1028 C 0.37045 0.88739 0.30278 0.0
C1029 C 0.3789 0.8943 0.25699 0.0
C1030 C 0.39547 0.9001 0.43218 0.0
C1031 C 0.35619 0.87784 0.2889 0.0
C1032 C 0.36646 0.85697 0.47048 0.0
C1033 C 0.35402 0.86332 0.50224 0.0
C1034 C 0.37338 0.86508 0.42418 0.0
C1035 C 0.36803 0.88017 0.4093 0.0
C1036 C 0.35554 0.88675 0.44141 0.0
C1037 C 0.34858 0.8782 0.48703 0.0
C1038 C 0.38645 0.85741 0.39098 0.0
C1039 C 0.34961 0.90288 0.42783 0.0
H1040 H 0.40825 0.91104 0.33305 0.0
H1041 H 0.37506 0.89272 0.21267 0.0
H1042 H 0.38604 0.90422 0.46119 0.0
H1043 H 0.39961 0.88876 0.44932 0.0
H1044 H 0.40526 0.90854 0.43397 0.0
H1045 H 0.3529 0.87864 0.24249 0.0
H1046 H 0.35841 0.86544 0.29963 0.0
H1047 H 0.34619 0.88172 0.31561 0.0
H1048 H 0.3707 0.84544 0.48128 0.0
H1049 H 0.33901 0.88324 0.51119 0.0
H1050 H 0.39722 0.86446 0.39483 0.0
H1051 H 0.38344 0.8568 0.34433 0.0
H1052 H 0.38895 0.84544 0.4067 0.0
H1053 H 0.35921 0.91144 0.43235 0.0
H1054 H 0.33989 0.90641 0.45671 0.0
H1055 H 0.34554 0.90342 0.38232 0.0
C1056 C 0.37963 0.10627 0.75806 0.0
C1057 C 0.39558 0.10309 0.75268 0.0
C1058 C 0.37129 0.11357 0.71274 0.0
C1059 C 0.37893 0.11723 0.65988 0.0
C1060 C 0.3949 0.11335 0.65369 0.0
C1061 C 0.40307 0.10667 0.70044 0.0
C1062 C 0.35449 0.118 0.72239 0.0
C1063 C 0.40348 0.11648 0.59786 0.0
C1064 C 0.35498 0.12697 0.5238 0.0
C1065 C 0.35696 0.14316 0.51975 0.0
C1066 C 0.36198 0.11834 0.56909 0.0
C1067 C 0.37069 0.12613 0.61266 0.0
C1068 C 0.37219 0.14256 0.60963 0.0
C1069 C 0.36559 0.15077 0.56291 0.0
C1070 C 0.36048 0.10084 0.5693 0.0
C1071 C 0.38088 0.15152 0.65567 0.0
H1072 H 0.37383 0.10363 0.79858 0.0
H1073 H 0.41538 0.10415 0.69603 0.0
H1074 H 0.35329 0.13086 0.72062 0.0
H1075 H 0.34706 0.11313 0.68757 0.0
H1076 H 0.35004 0.11385 0.76482 0.0
H1077 H 0.4153 0.1112 0.59763 0.0
H1078 H 0.3968 0.11179 0.56062 0.0
H1079 H 0.40469 0.12921 0.59127 0.0
H1080 H 0.34838 0.12099 0.49054 0.0
H1081 H 0.36704 0.1633 0.56055 0.0
H1082 H 0.35537 0.09682 0.61077 0.0
H1083 H 0.3722 0.09548 0.56566 0.0
H1084 H 0.35312 0.09652 0.53316 0.0
H1085 H 0.37644 0.14836 0.69922 0.0
H1086 H 0.37981 0.16432 0.64996 0.0
H1087 H 0.39342 0.14841 0.65445 0.0
C1088 C 0.8699 0.86671 0.01083 0.0
C1089 C 0.85377 0.86429 0.00762 0.0
C1090 C 0.87664 0.87508 0.05693 0.0
C1091 C 0.86713 0.88071 0.10257 0.0
C1092 C 0.85077 0.87848 0.0991 0.0
C1093 C 0.84427 0.87054 0.05123 0.0
C1094 C 0.89405 0.87757 0.05741 0.0
C1095 C 0.84019 0.88379 0.14736 0.0
C1096 C 0.88868 0.88504 0.24654 0.0
C1097 C 0.89097 0.90119 0.25037 0.0
C1098 C 0.88029 0.87837 0.20036 0.0
C1099 C 0.87449 0.88797 0.15527 0.0
C1100 C 0.8766 0.90434 0.15933 0.0
C1101 C 0.88457 0.91076 0.20726 0.0
C1102 C 0.87795 0.86094 0.19921 0.0
C1103 C 0.8711 0.91502 0.11167 0.0
H1104 H 0.87732 0.86195 0.97722 0.0
H1105 H 0.83182 0.86854 0.04943 0.0
H1106 H 0.89677 0.89001 0.06559 0.0
H1107 H 0.89936 0.8707 0.09294 0.0
H1108 H 0.89957 0.87402 0.01599 0.0
H1109 H 0.82769 0.88196 0.13694 0.0
H1110 H 0.843 0.87724 0.18744 0.0
H1111 H 0.84208 0.89631 0.15675 0.0
H1112 H 0.89355 0.87756 0.27976 0.0
H1113 H 0.88647 0.92323 0.20952 0.0
H1114 H 0.88475 0.8558 0.16317 0.0
H1115 H 0.86551 0.85814 0.19143 0.0
H1116 H 0.88167 0.85531 0.24024 0.0
H1117 H 0.87755 0.91236 0.07125 0.0
H1118 H 0.87287 0.9275 0.1225 0.0
H1119 H 0.85857 0.91307 0.10266 0.0
C1120 C 0.87107 0.14086 0.98875 0.0
C1121 C 0.85489 0.14297 0.99176 0.0
C1122 C 0.87804 0.13268 0.94257 0.0
C1123 C 0.86871 0.12692 0.8966 0.0
C1124 C 0.85232 0.129 0.89952 0.0
C1125 C 0.8456 0.13673 0.94747 0.0
C1126 C 0.89547 0.13034 0.94275 0.0
C1127 C 0.84192 0.1236 0.85088 0.0
C1128 C 0.89043 0.12149 0.75304 0.0
C1129 C 0.89249 0.10529 0.75046 0.0
C1130 C 0.88215 0.12856 0.79882 0.0
C1131 C 0.87623 0.11931 0.84475 0.0
C1132 C 0.87819 0.1029 0.8421 0.0
C1133 C 0.88604 0.09609 0.79463 0.0
C1134 C 0.87996 0.146 0.79841 0.0
C1135 C 0.87258 0.09258 0.89065 0.0
H1136 H 0.87834 0.1456 0.02286 0.0
H1137 H 0.8331 0.13847 0.94907 0.0
H1138 H 0.89829 0.11786 0.93591 0.0
H1139 H 0.90079 0.13697 0.90664 0.0
H1140 H 0.9009 0.13423 0.98392 0.0
H1141 H 0.82941 0.12581 0.85995 0.0
H1142 H 0.84515 0.12973 0.81033 0.0
H1143 H 0.84356 0.11096 0.84309 0.0
H1144 H 0.89532 0.12869 0.71906 0.0
H1145 H 0.88773 0.08358 0.7934 0.0
H1146 H 0.88667 0.15131 0.83437 0.0
H1147 H 0.86752 0.14894 0.80535 0.0
H1148 H 0.88387 0.15136 0.75712 0.0
H1149 H 0.87874 0.0957 0.93126 0.0
H1150 H 0.87459 0.08003 0.88157 0.0
H1151 H 0.85997 0.09442 0.89833 0.0
C1152 C 0.62116 0.09556 0.70856 0.0
C1153 C 0.61562 0.10507 0.75341 0.0
C1154 C 0.62893 0.10199 0.66017 0.0
C1155 C 0.63175 0.11828 0.65745 0.0
C1156 C 0.62681 0.12778 0.70423 0.0
C1157 C 0.61855 0.12113 0.75081 0.0
C1158 C 0.63344 0.09146 0.61067 0.0
C1159 C 0.62996 0.14508 0.70459 0.0
C1160 C 0.66186 0.13499 0.55132 0.0
C1161 C 0.65232 0.142 0.50942 0.0
C1162 C 0.6554 0.12704 0.59923 0.0
C1163 C 0.63898 0.1256 0.60457 0.0
C1164 C 0.62937 0.13202 0.56068 0.0
C1165 C 0.63612 0.14036 0.51446 0.0
C1166 C 0.66612 0.12086 0.6456 0.0
C1167 C 0.61188 0.13041 0.56317 0.0
H1168 H 0.61872 0.08317 0.70986 0.0
H1169 H 0.61431 0.12855 0.78536 0.0
H1170 H 0.62676 0.09477 0.57144 0.0
H1171 H 0.64596 0.09285 0.60023 0.0
H1172 H 0.63113 0.07899 0.62037 0.0
H1173 H 0.62691 0.15053 0.74668 0.0
H1174 H 0.64244 0.14736 0.6954 0.0
H1175 H 0.62307 0.15082 0.67007 0.0
H1176 H 0.67438 0.13638 0.54818 0.0
H1177 H 0.62866 0.14571 0.48224 0.0
H1178 H 0.66371 0.10836 0.65385 0.0
H1179 H 0.66395 0.12719 0.68669 0.0
H1180 H 0.67859 0.12219 0.63387 0.0
H1181 H 0.6086 0.11807 0.5705 0.0
H1182 H 0.60617 0.13455 0.52284 0.0
H1183 H 0.60724 0.13727 0.60001 0.0
C1184 C 0.63527 0.86608 0.49822 0.0
C1185 C 0.65144 0.86393 0.50221 0.0
C1186 C 0.62855 0.8745 0.45213 0.0
C1187 C 0.63812 0.88049 0.40729 0.0
C1188 C 0.65449 0.87843 0.41131 0.0
C1189 C 0.66096 0.87043 0.45913 0.0
C1190 C 0.61112 0.87678 0.45108 0.0
C1191 C 0.66515 0.88411 0.36389 0.0
C1192 C 0.61704 0.88613 0.2627 0.0
C1193 C 0.61477 0.90231 0.26072 0.0
C1194 C 0.62524 0.87903 0.30856 0.0
C1195 C 0.63085 0.8882 0.35518 0.0
C1196 C 0.62873 0.9046 0.35305 0.0
C1197 C 0.62096 0.91147 0.30546 0.0
C1198 C 0.62763 0.86161 0.30758 0.0
C1199 C 0.63402 0.91484 0.40234 0.0
H1200 H 0.62782 0.86116 0.53141 0.0
H1201 H 0.67344 0.86867 0.4615 0.0
H1202 H 0.60829 0.88928 0.44457 0.0
H1203 H 0.60601 0.87025 0.41427 0.0
H1204 H 0.60547 0.87274 0.49164 0.0
H1205 H 0.67762 0.88205 0.37408 0.0
H1206 H 0.66229 0.87804 0.32284 0.0
H1207 H 0.66339 0.89675 0.35638 0.0
H1208 H 0.61234 0.87897 0.22824 0.0
H1209 H 0.61909 0.92395 0.30467 0.0
H1210 H 0.62075 0.85612 0.34272 0.0
H1211 H 0.64006 0.85877 0.31546 0.0
H1212 H 0.62403 0.85635 0.26574 0.0
H1213 H 0.62755 0.91167 0.44224 0.0
H1214 H 0.63209 0.9274 0.3933 0.0
H1215 H 0.64656 0.91296 0.41127 0.0
C1216 C 0.66068 0.63456 0.45765 0.0
C1217 C 0.65099 0.64155 0.49916 0.0
C1218 C 0.65437 0.6264 0.4099 0.0
C1219 C 0.63799 0.62473 0.40432 0.0
C1220 C 0.62824 0.63119 0.44769 0.0
C1221 C 0.63482 0.63971 0.49376 0.0
C1222 C 0.66523 0.62017 0.3641 0.0
C1223 C 0.61077 0.62937 0.44491 0.0
C1224 C 0.6177 0.61925 0.25823 0.0
C1225 C 0.61482 0.60317 0.25697 0.0
C1226 C 0.6259 0.62623 0.3043 0.0
C1227 C 0.6309 0.61704 0.35186 0.0
C1228 C 0.62821 0.60072 0.3504 0.0
C1229 C 0.62045 0.59396 0.3026 0.0
C1230 C 0.62889 0.64355 0.30264 0.0
C1231 C 0.63284 0.59049 0.40065 0.0
H1232 H 0.67318 0.63607 0.46109 0.0
H1233 H 0.62724 0.64501 0.52572 0.0
H1234 H 0.66306 0.60759 0.35685 0.0
H1235 H 0.66297 0.62622 0.32249 0.0
H1236 H 0.67767 0.6218 0.37581 0.0
H1237 H 0.60493 0.63372 0.48466 0.0
H1238 H 0.60612 0.63591 0.40727 0.0
H1239 H 0.60765 0.61694 0.43873 0.0
H1240 H 0.61343 0.62645 0.22309 0.0
H1241 H 0.61809 0.58155 0.30235 0.0
H1242 H 0.64134 0.646 0.31174 0.0
H1243 H 0.62192 0.64941 0.33669 0.0
H1244 H 0.6258 0.64875 0.26013 0.0
H1245 H 0.64534 0.59211 0.41104 0.0
H1246 H 0.6307 0.57796 0.39181 0.0
H1247 H 0.6261 0.59392 0.43961 0.0
C1248 C 0.60491 0.39739 0.68769 0.0
C1249 C 0.61258 0.40327 0.73666 0.0
C1250 C 0.6132 0.39079 0.64114 0.0
C1251 C 0.62963 0.38933 0.64426 0.0
C1252 C 0.63748 0.39537 0.6936 0.0
C1253 C 0.62889 0.40254 0.73866 0.0
C1254 C 0.60428 0.38509 0.58895 0.0
C1255 C 0.65486 0.39361 0.7001 0.0
C1256 C 0.64562 0.35565 0.55348 0.0
C1257 C 0.65227 0.3633 0.50585 0.0
C1258 C 0.63899 0.364 0.59985 0.0
C1259 C 0.63829 0.3805 0.59778 0.0
C1260 C 0.64501 0.38831 0.54959 0.0
C1261 C 0.65221 0.37963 0.50485 0.0
C1262 C 0.63256 0.3551 0.65087 0.0
C1263 C 0.64404 0.40579 0.54415 0.0
H1264 H 0.59231 0.398 0.68573 0.0
H1265 H 0.63486 0.40691 0.77664 0.0
H1266 H 0.60964 0.38963 0.54863 0.0
H1267 H 0.60478 0.37219 0.58693 0.0
H1268 H 0.59186 0.38869 0.5901 0.0
H1269 H 0.65935 0.39953 0.73946 0.0
H1270 H 0.65787 0.38105 0.70272 0.0
H1271 H 0.66094 0.39841 0.66171 0.0
H1272 H 0.64577 0.34303 0.5548 0.0
H1273 H 0.65724 0.3856 0.46799 0.0
H1274 H 0.6197 0.35627 0.65212 0.0
H1275 H 0.63717 0.35998 0.69191 0.0
H1276 H 0.6355 0.34251 0.64895 0.0
H1277 H 0.63164 0.40939 0.54159 0.0
H1278 H 0.65021 0.41018 0.50517 0.0
H1279 H 0.64908 0.41145 0.583 0.0
C1280 C 0.88956 0.38624 0.75724 0.0
C1281 C 0.89328 0.40215 0.75743 0.0
C1282 C 0.88116 0.37939 0.80309 0.0
C1283 C 0.87691 0.38847 0.85193 0.0
C1284 C 0.88058 0.4046 0.8521 0.0
C1285 C 0.88843 0.41129 0.80442 0.0
C1286 C 0.87708 0.36231 0.79968 0.0
C1287 C 0.87685 0.41466 0.90383 0.0
C1288 C 0.84652 0.37212 0.95796 0.0
C1289 C 0.85592 0.3643 0.9983 0.0
C1290 C 0.85313 0.38018 0.91052 0.0
C1291 C 0.86957 0.38083 0.90398 0.0
C1292 C 0.87907 0.37348 0.94613 0.0
C1293 C 0.87216 0.36515 0.992 0.0
C1294 C 0.8425 0.38744 0.86609 0.0
C1295 C 0.89661 0.37417 0.94227 0.0
H1296 H 0.89323 0.37912 0.72097 0.0
H1297 H 0.89146 0.42355 0.8052 0.0
H1298 H 0.88377 0.35574 0.8327 0.0
H1299 H 0.86453 0.36058 0.80917 0.0
H1300 H 0.87968 0.35729 0.75645 0.0
H1301 H 0.87987 0.42708 0.89648 0.0
H1302 H 0.86429 0.41385 0.91459 0.0
H1303 H 0.88343 0.4104 0.94203 0.0
H1304 H 0.83397 0.3714 0.96209 0.0
H1305 H 0.87954 0.35921 0.02304 0.0
H1306 H 0.84422 0.38161 0.82369 0.0
H1307 H 0.84541 0.39992 0.8601 0.0
H1308 H 0.83003 0.38649 0.87836 0.0
H1309 H 0.90063 0.36765 0.90361 0.0
H1310 H 0.90234 0.36912 0.98109 0.0
H1311 H 0.90052 0.38641 0.9372 0.0
C1312 C 0.89078 0.62151 0.24759 0.0
C1313 C 0.89301 0.60534 0.25077 0.0
C1314 C 0.88236 0.62837 0.20176 0.0
C1315 C 0.87646 0.61893 0.15635 0.0
C1316 C 0.87862 0.60255 0.15952 0.0
C1317 C 0.88661 0.59595 0.20709 0.0
C1318 C 0.87997 0.64579 0.20161 0.0
C1319 C 0.87304 0.59204 0.11148 0.0
C1320 C 0.84533 0.63601 0.05499 0.0
C1321 C 0.85441 0.64232 0.01024 0.0
C1322 C 0.85228 0.62829 0.10252 0.0
C1323 C 0.86869 0.62634 0.10461 0.0
C1324 C 0.87781 0.63214 0.05814 0.0
C1325 C 0.87062 0.64028 0.01231 0.0
C1326 C 0.8421 0.62279 0.15166 0.0
C1327 C 0.89525 0.62996 0.05717 0.0
H1328 H 0.89562 0.62886 0.28124 0.0
H1329 H 0.88844 0.58346 0.20882 0.0
H1330 H 0.88647 0.65107 0.16509 0.0
H1331 H 0.86746 0.64856 0.19522 0.0
H1332 H 0.88396 0.6513 0.24248 0.0
H1333 H 0.87525 0.57955 0.12089 0.0
H1334 H 0.86039 0.5937 0.10416 0.0
H1335 H 0.87906 0.59516 0.07057 0.0
H1336 H 0.83282 0.63768 0.05412 0.0
H1337 H 0.87772 0.64506 0.97785 0.0
H1338 H 0.84533 0.62905 0.19193 0.0
H1339 H 0.84397 0.6102 0.15969 0.0
H1340 H 0.82953 0.62479 0.14299 0.0
H1341 H 0.90065 0.63672 0.09282 0.0
H1342 H 0.9005 0.63382 0.01563 0.0
H1343 H 0.89822 0.61752 0.06426 0.0
C1344 C 0.36691 0.36945 0.51618 0.0
C1345 C 0.35218 0.36261 0.52243 0.0
C1346 C 0.37405 0.37748 0.5624 0.0
C1347 C 0.36665 0.37811 0.6173 0.0
C1348 C 0.3517 0.37123 0.6236 0.0
C1349 C 0.34455 0.36382 0.57589 0.0
C1350 C 0.3897 0.38503 0.55272 0.0
C1351 C 0.34356 0.37108 0.68146 0.0
C1352 C 0.3938 0.38276 0.74775 0.0
C1353 C 0.39191 0.39852 0.7626 0.0
C1354 C 0.38542 0.37596 0.70175 0.0
C1355 C 0.37495 0.38513 0.66862 0.0
C1356 C 0.37284 0.40101 0.6838 0.0
C1357 C 0.38123 0.40747 0.73072 0.0
C1358 C 0.38793 0.35894 0.68816 0.0
C1359 C 0.36202 0.41132 0.64944 0.0
H1360 H 0.37286 0.36849 0.47495 0.0
H1361 H 0.33328 0.35831 0.58116 0.0
H1362 H 0.38947 0.3973 0.5679 0.0
H1363 H 0.39873 0.37885 0.57826 0.0
H1364 H 0.39319 0.38488 0.50643 0.0
H1365 H 0.33178 0.36577 0.67895 0.0
H1366 H 0.35062 0.36438 0.71308 0.0
H1367 H 0.34243 0.3831 0.69851 0.0
H1368 H 0.40197 0.37568 0.77198 0.0
H1369 H 0.37972 0.41967 0.74144 0.0
H1370 H 0.39314 0.35772 0.64447 0.0
H1371 H 0.3766 0.35272 0.68763 0.0
H1372 H 0.39573 0.35317 0.71997 0.0
H1373 H 0.36608 0.412 0.60392 0.0
H1374 H 0.36134 0.42331 0.66735 0.0
H1375 H 0.35014 0.40627 0.64873 0.0
C1376 C 0.3459 0.63745 0.4509 0.0
C1377 C 0.35523 0.64341 0.49559 0.0
C1378 C 0.35257 0.62964 0.40306 0.0
C1379 C 0.36891 0.62718 0.40074 0.0
C1380 C 0.37825 0.63262 0.4472 0.0
C1381 C 0.37136 0.64091 0.49323 0.0
C1382 C 0.34218 0.62458 0.35385 0.0
C1383 C 0.39561 0.62986 0.448 0.0
C1384 C 0.38584 0.59634 0.29804 0.0
C1385 C 0.39261 0.60557 0.25464 0.0
C1386 C 0.37801 0.60316 0.34552 0.0
C1387 C 0.3764 0.61959 0.34887 0.0
C1388 C 0.38264 0.62888 0.30367 0.0
C1389 C 0.3909 0.6218 0.25791 0.0
C1390 C 0.37204 0.59279 0.39336 0.0
C1391 C 0.38083 0.64637 0.30404 0.0
H1392 H 0.33345 0.6395 0.45206 0.0
H1393 H 0.37864 0.64544 0.5277 0.0
H1394 H 0.34561 0.63081 0.31372 0.0
H1395 H 0.34362 0.61195 0.34549 0.0
H1396 H 0.32969 0.62699 0.36266 0.0
H1397 H 0.40101 0.63346 0.4896 0.0
H1398 H 0.39816 0.61734 0.44062 0.0
H1399 H 0.40122 0.63649 0.41248 0.0
H1400 H 0.38727 0.58381 0.29624 0.0
H1401 H 0.39604 0.62901 0.22448 0.0
H1402 H 0.35946 0.59491 0.4008 0.0
H1403 H 0.37819 0.5956 0.43429 0.0
H1404 H 0.37376 0.58023 0.38365 0.0
H1405 H 0.36843 0.64955 0.31068 0.0
H1406 H 0.38496 0.65178 0.26316 0.0
H1407 H 0.38755 0.6514 0.3405 0.0
C1408 C 0.13625 0.64131 0.0135 0.0
C1409 C 0.15245 0.64315 0.0093 0.0
C1410 C 0.12944 0.63284 0.05927 0.0
C1411 C 0.13897 0.62647 0.10354 0.0
C1412 C 0.15537 0.62819 0.0992 0.0
C1413 C 0.16191 0.63626 0.05173 0.0
C1414 C 0.11197 0.63095 0.06072 0.0
C1415 C 0.16599 0.62207 0.14601 0.0
C1416 C 0.11814 0.62124 0.24867 0.0
C1417 C 0.1154 0.60513 0.25045 0.0
C1418 C 0.12641 0.62816 0.20267 0.0
C1419 C 0.13163 0.61888 0.15571 0.0
C1420 C 0.12905 0.60254 0.15764 0.0
C1421 C 0.12121 0.59584 0.20538 0.0
C1422 C 0.12928 0.6455 0.20383 0.0
C1423 C 0.13393 0.59222 0.10801 0.0
H1424 H 0.12885 0.64652 0.9808 0.0
H1425 H 0.17443 0.63777 0.04917 0.0
H1426 H 0.10886 0.61852 0.06702 0.0
H1427 H 0.10708 0.63754 0.09779 0.0
H1428 H 0.10634 0.63519 0.02038 0.0
H1429 H 0.17849 0.62377 0.13532 0.0
H1430 H 0.16345 0.62816 0.18731 0.0
H1431 H 0.16386 0.60949 0.15331 0.0
H1432 H 0.11373 0.6285 0.2834 0.0
H1433 H 0.11896 0.58342 0.20605 0.0
H1434 H 0.12248 0.65122 0.16898 0.0
H1435 H 0.14176 0.648 0.19562 0.0
H1436 H 0.12592 0.65081 0.24586 0.0
H1437 H 0.1274 0.59557 0.06847 0.0
H1438 H 0.13175 0.5797 0.11704 0.0
H1439 H 0.14649 0.59382 0.09848 0.0
C1440 C 0.11854 0.38663 0.75438 0.0
C1441 C 0.11599 0.40276 0.75146 0.0
C1442 C 0.1269 0.37989 0.80053 0.0
C1443 C 0.1324 0.38937 0.84644 0.0
C1444 C 0.13008 0.40573 0.84318 0.0
C1445 C 0.12214 0.41224 0.79533 0.0
C1446 C 0.12946 0.36249 0.80083 0.0
C1447 C 0.13527 0.41628 0.89168 0.0
C1448 C 0.13638 0.36773 0.99036 0.0
C1449 C 0.15252 0.36543 0.99477 0.0
C1450 C 0.12983 0.37614 0.944 0.0
C1451 C 0.13954 0.38198 0.89934 0.0
C1452 C 0.1559 0.37988 0.90401 0.0
C1453 C 0.16221 0.37186 0.95209 0.0
C1454 C 0.11241 0.37846 0.94221 0.0
C1455 C 0.1667 0.38543 0.85682 0.0
H1456 H 0.11387 0.37923 0.72059 0.0
H1457 H 0.12004 0.42469 0.79378 0.0
H1458 H 0.14189 0.35981 0.80943 0.0
H1459 H 0.12252 0.35711 0.83602 0.0
H1460 H 0.12604 0.357 0.75919 0.0
H1461 H 0.13349 0.42879 0.88124 0.0
H1462 H 0.12861 0.41347 0.93149 0.0
H1463 H 0.14776 0.41436 0.90157 0.0
H1464 H 0.12882 0.36284 0.02324 0.0
H1465 H 0.17466 0.36996 0.95481 0.0
H1466 H 0.10738 0.3717 0.90585 0.0
H1467 H 0.10961 0.39091 0.93453 0.0
H1468 H 0.10667 0.37468 0.98295 0.0
H1469 H 0.16419 0.37898 0.81626 0.0
H1470 H 0.17915 0.38369 0.86817 0.0
H1471 H 0.16473 0.39796 0.8478 0.0
C1472 C 0.15814 0.28591 0.0764 0.0
C1473 C 0.17129 0.29545 0.07144 0.0
C1474 C 0.15939 0.26963 0.07318 0.0
C1475 C 0.17427 0.26266 0.06726 0.0
C1476 C 0.18758 0.2723 0.0609 0.0
C1477 C 0.1859 0.28864 0.06213 0.0
C1478 C 0.14482 0.25989 0.07851 0.0
C1479 C 0.20369 0.26538 0.05636 0.0
C1480 C 0.17565 0.22272 0.1375 0.0
C1481 C 0.17462 0.2127 0.08977 0.0
C1482 C 0.17655 0.23892 0.13038 0.0
C1483 C 0.17585 0.2454 0.07408 0.0
C1484 C 0.17523 0.23533 0.02546 0.0
C1485 C 0.17485 0.21905 0.03388 0.0
C1486 C 0.17765 0.24914 0.18347 0.0
C1487 C 0.17411 0.24174 0.96481 0.0
H1488 H 0.14684 0.29122 0.08342 0.0
H1489 H 0.19609 0.29605 0.05906 0.0
H1490 H 0.14452 0.25087 0.04415 0.0
H1491 H 0.14479 0.25378 0.12082 0.0
H1492 H 0.13407 0.26705 0.07545 0.0
H1493 H 0.21262 0.27431 0.04585 0.0
H1494 H 0.20683 0.25985 0.09817 0.0
H1495 H 0.204 0.25616 0.02281 0.0
H1496 H 0.17562 0.21792 0.1808 0.0
H1497 H 0.17396 0.21135 0.99686 0.0
H1498 H 0.16656 0.25557 0.18941 0.0
H1499 H 0.18704 0.25789 0.17812 0.0
H1500 H 0.17997 0.24229 0.22335 0.0
H1501 H 0.1627 0.24763 0.95917 0.0
H1502 H 0.17518 0.23247 0.9315 0.0
H1503 H 0.18328 0.25059 0.95725 0.0
C1504 C 0.97081 0.90796 0.33505 0.0
C1505 C 0.96092 0.92059 0.3242 0.0
C1506 C 0.98703 0.90943 0.33017 0.0
C1507 C 0.99363 0.9241 0.31631 0.0
C1508 C 0.98365 0.93686 0.30413 0.0
C1509 C 0.96736 0.93488 0.30729 0.0
C1510 C 0.99714 0.89538 0.34191 0.0
C1511 C 0.99016 0.95279 0.29104 0.0
C1512 C 0.03399 0.92839 0.38133 0.0
C1513 C 0.04369 0.92584 0.33353 0.0
C1514 C 0.01773 0.92895 0.37538 0.0
C1515 C 0.01089 0.92623 0.32054 0.0
C1516 C 0.02066 0.92406 0.27164 0.0
C1517 C 0.03699 0.92416 0.27858 0.0
C1518 C 0.00787 0.93181 0.42846 0.0
C1519 C 0.01388 0.9207 0.21272 0.0
H1520 H 0.96582 0.89687 0.3478 0.0
H1521 H 0.9597 0.9447 0.29946 0.0
H1522 H 0.00596 0.894 0.30719 0.0
H1523 H 0.0035 0.89702 0.38326 0.0
H1524 H 0.99022 0.88448 0.34497 0.0
H1525 H 0.98097 0.96111 0.27726 0.0
H1526 H 0.99593 0.95749 0.33031 0.0
H1527 H 0.99912 0.95209 0.25661 0.0
H1528 H 0.03908 0.92978 0.42384 0.0
H1529 H 0.04447 0.92204 0.24162 0.0
H1530 H 1.00178 0.92091 0.4408 0.0
H1531 H 0.99884 0.94071 0.41929 0.0
H1532 H 0.01494 0.93576 0.46597 0.0
H1533 H 0.00831 0.90904 0.2132 0.0
H1534 H 0.02289 0.92085 0.17822 0.0
H1535 H 0.00471 0.9293 0.20178 0.0
C1536 C 0.34651 0.78609 0.58295 0.0
C1537 C 0.33303 0.7952 0.57894 0.0
C1538 C 0.34586 0.76983 0.57757 0.0
C1539 C 0.33127 0.76239 0.57038 0.0
C1540 C 0.3176 0.77159 0.56512 0.0
C1541 C 0.31869 0.78796 0.56853 0.0
C1542 C 0.36079 0.76058 0.58175 0.0
C1543 C 0.30178 0.76414 0.55929 0.0
C1544 C 0.33237 0.71933 0.52884 0.0
C1545 C 0.33289 0.71223 0.58343 0.0
C1546 C 0.33138 0.73567 0.52354 0.0
C1547 C 0.33036 0.74502 0.57401 0.0
C1548 C 0.32994 0.73774 0.62902 0.0
C1549 C 0.3315 0.72151 0.63305 0.0
C1550 C 0.33229 0.74294 0.4642 0.0
C1551 C 0.3284 0.74715 0.68395 0.0
H1552 H 0.35761 0.79174 0.59083 0.0
H1553 H 0.30824 0.79503 0.56617 0.0
H1554 H 0.36098 0.75397 0.623 0.0
H1555 H 0.36149 0.752 0.54594 0.0
H1556 H 0.37127 0.76816 0.58019 0.0
H1557 H 0.2925 0.77284 0.55039 0.0
H1558 H 0.30181 0.75536 0.52409 0.0
H1559 H 0.29886 0.75793 0.60002 0.0
H1560 H 0.33352 0.71218 0.49041 0.0
H1561 H 0.33171 0.71608 0.67533 0.0
H1562 H 0.34342 0.7494 0.45998 0.0
H1563 H 0.32273 0.75147 0.45807 0.0
H1564 H 0.33167 0.73411 0.42915 0.0
H1565 H 0.33922 0.75393 0.69134 0.0
H1566 H 0.32631 0.73968 0.72242 0.0
H1567 H 0.31867 0.7556 0.68008 0.0
C1568 C 0.47011 0.08037 0.78318 0.0
C1569 C 0.46339 0.08003 0.83842 0.0
C1570 C 0.48643 0.08011 0.77632 0.0
C1571 C 0.49616 0.079 0.82581 0.0
C1572 C 0.48929 0.07757 0.88127 0.0
C1573 C 0.47304 0.07839 0.88692 0.0
C1574 C 0.49325 0.08203 0.71659 0.0
C1575 C 0.49911 0.07589 0.93514 0.0
C1576 C 0.53971 0.0702 0.81591 0.0
C1577 C 0.54608 0.08485 0.8282 0.0
C1578 C 0.52344 0.0681 0.81319 0.0
C1579 C 0.51341 0.08107 0.82108 0.0
C1580 C 0.51994 0.09603 0.83013 0.0
C1581 C 0.53615 0.09766 0.83473 0.0
C1582 C 0.51698 0.0519 0.80526 0.0
C1583 C 0.50978 0.11026 0.83718 0.0
H1584 H 0.46267 0.08176 0.74564 0.0
H1585 H 0.46789 0.07799 0.92968 0.0
H1586 H 0.49876 0.09369 0.71312 0.0
H1587 H 0.50248 0.07324 0.70872 0.0
H1588 H 0.48428 0.08098 0.68219 0.0
H1589 H 0.49202 0.07283 0.97369 0.0
H1590 H 0.50813 0.06679 0.92888 0.0
H1591 H 0.50522 0.08702 0.94405 0.0
H1592 H 0.54741 0.06025 0.81152 0.0
H1593 H 0.5411 0.10901 0.84396 0.0
H1594 H 0.50797 0.05178 0.7709 0.0
H1595 H 0.51129 0.04808 0.84599 0.0
H1596 H 0.5262 0.04334 0.79399 0.0
H1597 H 0.501 0.11081 0.802 0.0
H1598 H 0.51666 0.12122 0.83684 0.0
H1599 H 0.50338 0.10957 0.87879 0.0
C1600 C 0.15765 0.78611 0.92311 0.0
C1601 C 0.17059 0.79566 0.93323 0.0
C1602 C 0.15874 0.76984 0.92728 0.0
C1603 C 0.17331 0.76284 0.93971 0.0
C1604 C 0.18641 0.77246 0.95083 0.0
C1605 C 0.18483 0.78881 0.94841 0.0
C1606 C 0.14435 0.76013 0.91672 0.0
C1607 C 0.20224 0.7655 0.96235 0.0
C1608 C 0.17238 0.71969 0.98021 0.0
C1609 C 0.17351 0.71265 0.92565 0.0
C1610 C 0.17274 0.73604 0.986 0.0
C1611 C 0.17487 0.7455 0.93625 0.0
C1612 C 0.17697 0.73831 0.88162 0.0
C1613 C 0.17593 0.72204 0.87686 0.0
C1614 C 0.16996 0.74319 0.04472 0.0
C1615 C 0.17979 0.74784 0.82767 0.0
H1616 H 0.1466 0.7914 0.91171 0.0
H1617 H 0.19488 0.7962 0.95565 0.0
H1618 H 0.14561 0.75361 0.87553 0.0
H1619 H 0.14287 0.75143 0.95185 0.0
H1620 H 0.13364 0.76735 0.91409 0.0
H1621 H 0.21097 0.77447 0.97442 0.0
H1622 H 0.20156 0.75673 0.99751 0.0
H1623 H 0.20638 0.75937 0.92296 0.0
H1624 H 0.1704 0.71245 0.01795 0.0
H1625 H 0.17693 0.71667 0.83465 0.0
H1626 H 0.15858 0.74934 0.04461 0.0
H1627 H 0.17904 0.75197 0.05465 0.0
H1628 H 0.16982 0.73432 0.07973 0.0
H1629 H 0.16901 0.75422 0.8159 0.0
H1630 H 0.18327 0.74048 0.7903 0.0
H1631 H 0.18903 0.75662 0.83546 0.0
C1632 C 0.47199 0.91303 0.13788 0.0
C1633 C 0.46215 0.92051 0.17764 0.0
C1634 C 0.48825 0.91415 0.14215 0.0
C1635 C 0.495 0.92298 0.18741 0.0
C1636 C 0.48515 0.93064 0.2277 0.0
C1637 C 0.46883 0.92931 0.22236 0.0
C1638 C 0.49823 0.9058 0.09813 0.0
C1639 C 0.49188 0.94018 0.27648 0.0
C1640 C 0.53712 0.91198 0.21921 0.0
C1641 C 0.54525 0.92297 0.18628 0.0
C1642 C 0.52076 0.91235 0.22264 0.0
C1643 C 0.51236 0.92397 0.19209 0.0
C1644 C 0.52066 0.93551 0.16081 0.0
C1645 C 0.53702 0.93484 0.1582 0.0
C1646 C 0.51244 0.89982 0.25642 0.0
C1647 C 0.51224 0.9481 0.12763 0.0
H1648 H 0.46698 0.90618 0.10318 0.0
H1649 H 0.46132 0.93513 0.25324 0.0
H1650 H 0.50585 0.91426 0.07542 0.0
H1651 H 0.50592 0.89729 0.12022 0.0
H1652 H 0.49118 0.8995 0.06532 0.0
H1653 H 0.4827 0.94556 0.30384 0.0
H1654 H 0.49935 0.93273 0.3042 0.0
H1655 H 0.49939 0.94956 0.25876 0.0
H1656 H 0.54355 0.90275 0.24057 0.0
H1657 H 0.54334 0.94336 0.13283 0.0
H1658 H 0.50613 0.89204 0.22609 0.0
H1659 H 0.50366 0.90507 0.28575 0.0
H1660 H 0.5206 0.89265 0.28254 0.0
H1661 H 0.50589 0.94283 0.09066 0.0
H1662 H 0.52034 0.95708 0.11054 0.0
H1663 H 0.50347 0.95387 0.15562 0.0
C1664 C 0.32065 0.21741 0.45643 0.0
C1665 C 0.3351 0.2111 0.44081 0.0
C1666 C 0.31856 0.23369 0.45995 0.0
C1667 C 0.33135 0.24377 0.44941 0.0
C1668 C 0.34614 0.23729 0.43675 0.0
C1669 C 0.34774 0.22109 0.43154 0.0
C1670 C 0.30252 0.24009 0.47183 0.0
C1671 C 0.36021 0.24749 0.42675 0.0
C1672 C 0.32785 0.28455 0.38745 0.0
C1673 C 0.33028 0.29389 0.43632 0.0
C1674 C 0.32698 0.26827 0.39197 0.0
C1675 C 0.32924 0.26105 0.44646 0.0
C1676 C 0.33122 0.27046 0.49638 0.0
C1677 C 0.33145 0.28682 0.49081 0.0
C1678 C 0.32433 0.25877 0.33784 0.0
C1679 C 0.3341 0.26328 0.555 0.0
H1680 H 0.31083 0.20967 0.46299 0.0
H1681 H 0.35895 0.2162 0.41977 0.0
H1682 H 0.30295 0.24893 0.50678 0.0
H1683 H 0.29807 0.246 0.43242 0.0
H1684 H 0.29415 0.23082 0.48434 0.0
H1685 H 0.37115 0.24063 0.42389 0.0
H1686 H 0.35876 0.25409 0.38582 0.0
H1687 H 0.3614 0.25611 0.46226 0.0
H1688 H 0.32678 0.28998 0.34533 0.0
H1689 H 0.33344 0.29403 0.52861 0.0
H1690 H 0.31532 0.24975 0.34556 0.0
H1691 H 0.33525 0.25269 0.32575 0.0
H1692 H 0.32062 0.26612 0.30072 0.0
H1693 H 0.32536 0.25411 0.56426 0.0
H1694 H 0.33375 0.27207 0.59027 0.0
H1695 H 0.34572 0.25762 0.55523 0.0
C1696 C 0.96869 0.08454 0.72781 0.0
C1697 C 0.96208 0.08426 0.67233 0.0
C1698 C 0.98498 0.08403 0.73533 0.0
C1699 C 0.99484 0.08265 0.6863 0.0
C1700 C 0.98809 0.08149 0.63052 0.0
C1701 C 0.97187 0.08262 0.62419 0.0
C1702 C 0.99167 0.08576 0.79536 0.0
C1703 C 0.99805 0.07953 0.57711 0.0
C1704 C 0.03572 0.09945 0.68077 0.0
C1705 C 0.04503 0.08621 0.68834 0.0
C1706 C 0.01942 0.09855 0.68365 0.0
C1707 C 0.01215 0.08391 0.69203 0.0
C1708 C 0.02153 0.0705 0.70077 0.0
C1709 C 0.03791 0.07185 0.69978 0.0
C1710 C 0.00998 0.11324 0.67577 0.0
C1711 C 0.01429 0.05461 0.70798 0.0
H1712 H 0.96116 0.08589 0.76513 0.0
H1713 H 0.96688 0.08225 0.58122 0.0
H1714 H 1.00022 0.07638 0.80424 0.0
H1715 H 0.99798 0.09701 0.79849 0.0
H1716 H 0.98251 0.08548 0.82931 0.0
H1717 H 0.99099 0.07686 0.53806 0.0
H1718 H 0.00469 0.09039 0.56892 0.0
H1719 H 0.00663 0.07002 0.58357 0.0
H1720 H 0.04124 0.11058 0.67223 0.0
H1721 H 0.04511 0.06158 0.705 0.0
H1722 H 1.00104 0.11421 0.71029 0.0
H1723 H 0.00377 0.11283 0.6337 0.0
H1724 H 0.01735 0.12387 0.67657 0.0
H1725 H 0.00524 0.05485 0.74217 0.0
H1726 H 0.02306 0.04558 0.71915 0.0
H1727 H 0.00847 0.05118 0.66704 0.0
C1728 C 0.82813 0.71825 0.97467 0.0
C1729 C 0.83378 0.71151 0.92349 0.0
C1730 C 0.82717 0.73457 0.98077 0.0
C1731 C 0.8318 0.74435 0.93437 0.0
C1732 C 0.83714 0.73755 0.88221 0.0
C1733 C 0.83816 0.72128 0.8776 0.0
C1734 C 0.82157 0.74137 0.03725 0.0
C1735 C 0.84206 0.74746 0.83136 0.0
C1736 C 0.81973 0.78698 0.92162 0.0
C1737 C 0.83367 0.79454 0.93559 0.0
C1738 C 0.81868 0.77061 0.92346 0.0
C1739 C 0.83183 0.7617 0.9405 0.0
C1740 C 0.84566 0.76946 0.95751 0.0
C1741 C 0.84648 0.78579 0.95398 0.0
C1742 C 0.80383 0.76284 0.9039 0.0
C1743 C 0.85988 0.7605 0.97673 0.0
H1744 H 0.82475 0.71078 0.01035 0.0
H1745 H 0.84251 0.71623 0.83782 0.0
H1746 H 0.83105 0.74827 0.05745 0.0
H1747 H 0.81169 0.74943 0.02944 0.0
H1748 H 0.81778 0.73224 0.06828 0.0
H1749 H 0.84508 0.74037 0.79276 0.0
H1750 H 0.83258 0.75564 0.81942 0.0
H1751 H 0.85235 0.75458 0.84336 0.0
H1752 H 0.80992 0.79381 0.90653 0.0
H1753 H 0.85728 0.79171 0.96435 0.0
H1754 H 0.80005 0.75401 0.93598 0.0
H1755 H 0.80593 0.75666 0.86244 0.0
H1756 H 0.79424 0.77135 0.89736 0.0
H1757 H 0.85667 0.75172 0.0099 0.0
H1758 H 0.86901 0.76825 0.9949 0.0
H1759 H 0.86488 0.75413 0.93933 0.0
C1760 C 0.68746 0.21899 0.43555 0.0
C1761 C 0.67303 0.21173 0.44354 0.0
C1762 C 0.68876 0.23536 0.437 0.0
C1763 C 0.67534 0.24456 0.44775 0.0
C1764 C 0.66095 0.2371 0.45939 0.0
C1765 C 0.65992 0.2208 0.45611 0.0
C1766 C 0.70423 0.24278 0.42305 0.0
C1767 C 0.6464 0.24637 0.47206 0.0
C1768 C 0.67798 0.28835 0.47743 0.0
C1769 C 0.67348 0.29453 0.42377 0.0
C1770 C 0.67901 0.27209 0.48589 0.0
C1771 C 0.67573 0.26184 0.43929 0.0
C1772 C 0.67179 0.26811 0.38455 0.0
C1773 C 0.67055 0.2843 0.37772 0.0
C1774 C 0.68303 0.26588 0.54509 0.0
C1775 C 0.66845 0.2577 0.3333 0.0
H1776 H 0.69753 0.21194 0.42485 0.0
H1777 H 0.64875 0.21512 0.46187 0.0
H1778 H 0.70358 0.2484 0.37986 0.0
H1779 H 0.70704 0.25201 0.45494 0.0
H1780 H 0.71386 0.23414 0.42246 0.0
H1781 H 0.63674 0.23888 0.48775 0.0
H1782 H 0.6488 0.25545 0.50506 0.0
H1783 H 0.64249 0.2524 0.43213 0.0
H1784 H 0.68022 0.29618 0.51327 0.0
H1785 H 0.66713 0.28891 0.33601 0.0
H1786 H 0.6928 0.25745 0.54212 0.0
H1787 H 0.67288 0.25952 0.56309 0.0
H1788 H 0.68632 0.2753 0.57569 0.0
H1789 H 0.67813 0.24931 0.3269 0.0
H1790 H 0.66681 0.26442 0.29264 0.0
H1791 H 0.65773 0.25084 0.34153 0.0
C1792 C 0.82218 0.28786 0.05898 0.0
C1793 C 0.83631 0.29463 0.07585 0.0
C1794 C 0.82053 0.27153 0.05634 0.0
C1795 C 0.83348 0.26183 0.06891 0.0
C1796 C 0.84796 0.26875 0.08318 0.0
C1797 C 0.8491 0.28501 0.08761 0.0
C1798 C 0.80477 0.26466 0.04294 0.0
C1799 C 0.86221 0.25895 0.09524 0.0
C1800 C 0.83013 0.2208 0.12941 0.0
C1801 C 0.83293 0.21161 0.08041 0.0
C1802 C 0.82922 0.2371 0.12539 0.0
C1803 C 0.83183 0.24449 0.07141 0.0
C1804 C 0.8343 0.23521 0.02142 0.0
C1805 C 0.83454 0.21884 0.02638 0.0
C1806 C 0.826 0.24643 0.17947 0.0
C1807 C 0.83761 0.24257 0.96341 0.0
H1808 H 0.81223 0.29531 0.05056 0.0
H1809 H 0.86006 0.29026 0.10042 0.0
H1810 H 0.80568 0.25601 0.00749 0.0
H1811 H 0.80032 0.25842 0.08162 0.0
H1812 H 0.79615 0.2737 0.03037 0.0
H1813 H 0.87292 0.26612 0.09951 0.0
H1814 H 0.86055 0.25233 0.13599 0.0
H1815 H 0.86399 0.25035 0.06 0.0
H1816 H 0.82873 0.21523 0.17116 0.0
H1817 H 0.83682 0.21174 0.98853 0.0
H1818 H 0.81686 0.25529 0.17107 0.0
H1819 H 0.8367 0.25273 0.19275 0.0
H1820 H 0.8222 0.23895 0.21607 0.0
H1821 H 0.82864 0.25142 0.95286 0.0
H1822 H 0.83801 0.23383 0.92799 0.0
H1823 H 0.849 0.24867 0.96516 0.0
C1824 C 0.65624 0.72081 0.5869 0.0
C1825 C 0.66942 0.71146 0.57897 0.0
C1826 C 0.65719 0.73711 0.58354 0.0
C1827 C 0.67183 0.74432 0.57442 0.0
C1828 C 0.68519 0.73488 0.56568 0.0
C1829 C 0.68378 0.71851 0.56707 0.0
C1830 C 0.64254 0.74663 0.59138 0.0
C1831 C 0.70109 0.74205 0.55788 0.0
C1832 C 0.67143 0.78753 0.53446 0.0
C1833 C 0.67183 0.79454 0.58923 0.0
C1834 C 0.67179 0.77119 0.52859 0.0
C1835 C 0.67314 0.76168 0.57858 0.0
C1836 C 0.67444 0.76882 0.63365 0.0
C1837 C 0.67344 0.7851 0.63836 0.0
C1838 C 0.66989 0.76409 0.46928 0.0
C1839 C 0.67642 0.75924 0.68798 0.0
H1840 H 0.64513 0.71533 0.59601 0.0
H1841 H 0.69401 0.71126 0.56177 0.0
H1842 H 0.6431 0.75306 0.63297 0.0
H1843 H 0.64149 0.75539 0.55628 0.0
H1844 H 0.6319 0.73928 0.59154 0.0
H1845 H 0.71012 0.7332 0.54767 0.0
H1846 H 0.70088 0.75085 0.52276 0.0
H1847 H 0.7045 0.74818 0.59823 0.0
H1848 H 0.67008 0.7948 0.49642 0.0
H1849 H 0.6739 0.79045 0.68075 0.0
H1850 H 0.65866 0.75772 0.46721 0.0
H1851 H 0.67927 0.7555 0.46085 0.0
H1852 H 0.67005 0.77301 0.43445 0.0
H1853 H 0.66554 0.75272 0.69703 0.0
H1854 H 0.67918 0.76656 0.72626 0.0
H1855 H 0.68587 0.75055 0.68217 0.0
C1856 C 0.53669 0.4357 0.81551 0.0
C1857 C 0.54409 0.42136 0.82448 0.0
C1858 C 0.52029 0.43673 0.81438 0.0
C1859 C 0.51119 0.42302 0.8205 0.0
C1860 C 0.51875 0.40844 0.82617 0.0
C1861 C 0.53506 0.40784 0.82923 0.0
C1862 C 0.51273 0.45255 0.81002 0.0
C1863 C 0.50961 0.39347 0.83125 0.0
C1864 C 0.47102 0.42246 0.88921 0.0
C1865 C 0.46119 0.42114 0.84102 0.0
C1866 C 0.48719 0.42411 0.88277 0.0
C1867 C 0.49386 0.42385 0.82672 0.0
C1868 C 0.48396 0.42286 0.77769 0.0
C1869 C 0.4677 0.42177 0.78542 0.0
C1870 C 0.49718 0.42561 0.93628 0.0
C1871 C 0.49058 0.42212 0.71728 0.0
H1872 H 0.54369 0.44618 0.81251 0.0
H1873 H 0.5408 0.39673 0.83591 0.0
H1874 H 0.50356 0.45254 0.77623 0.0
H1875 H 0.50699 0.45538 0.85174 0.0
H1876 H 0.52129 0.46186 0.79994 0.0
H1877 H 0.5172 0.38302 0.82832 0.0
H1878 H 0.50344 0.39317 0.8734 0.0
H1879 H 0.50067 0.3928 0.79667 0.0
H1880 H 0.46609 0.42213 0.93229 0.0
H1881 H 0.46014 0.4207 0.74805 0.0
H1882 H 0.50553 0.43539 0.93138 0.0
H1883 H 0.50408 0.41482 0.9424 0.0
H1884 H 0.49012 0.4276 0.97589 0.0
H1885 H 0.49896 0.43175 0.71014 0.0
H1886 H 0.48137 0.42274 0.68361 0.0
H1887 H 0.49707 0.41103 0.71179 0.0
C1888 C 0.96954 0.58598 0.28268 0.0
C1889 C 0.96243 0.58493 0.33712 0.0
C1890 C 0.98589 0.58568 0.27726 0.0
C1891 C 0.99528 0.58369 0.32725 0.0
C1892 C 0.98802 0.58175 0.38185 0.0
C1893 C 0.97174 0.58273 0.38623 0.0
C1894 C 0.99313 0.58831 0.21856 0.0
C1895 C 0.99748 0.57907 0.43606 0.0
C1896 C 0.03838 0.57298 0.31487 0.0
C1897 C 0.04549 0.58713 0.32951 0.0
C1898 C 0.02201 0.57168 0.31292 0.0
C1899 C 0.01263 0.58497 0.32382 0.0
C1900 C 0.0199 0.59944 0.33573 0.0
C1901 C 0.0362 0.60025 0.33964 0.0
C1902 C 0.01477 0.55593 0.30217 0.0
C1903 C 0.01045 0.61402 0.34589 0.0
H1904 H 0.96235 0.5878 0.2447 0.0
H1905 H 0.9663 0.58178 0.42834 0.0
H1906 H 0.99954 0.59953 0.21867 0.0
H1907 H 1.00169 0.57901 0.2087 0.0
H1908 H 0.98428 0.58864 0.18348 0.0
H1909 H 0.99007 0.57585 0.4736 0.0
H1910 H 0.00615 0.56968 0.42889 0.0
H1911 H 0.004 0.58981 0.44718 0.0
H1912 H 0.04558 0.56279 0.30778 0.0
H1913 H 0.04172 0.61121 0.35077 0.0
H1914 H 0.00608 0.55664 0.26677 0.0
H1915 H 0.0085 0.55207 0.34165 0.0
H1916 H 0.02359 0.54697 0.2908 0.0
H1917 H 1.00176 0.61557 0.31081 0.0
H1918 H 0.01786 0.62461 0.34805 0.0
H1919 H 0.00395 0.61299 0.38719 0.0
C1920 C 0.97233 0.42327 0.62341 0.0
C1921 C 0.96276 0.42282 0.67252 0.0
C1922 C 0.98858 0.42434 0.62832 0.0
C1923 C 0.99557 0.42441 0.68385 0.0
C1924 C 0.98595 0.42428 0.73376 0.0
C1925 C 0.96962 0.42374 0.72747 0.0
C1926 C 0.9983 0.4249 0.57387 0.0
C1927 C 0.99292 0.42395 0.7937 0.0
C1928 C 0.03647 0.40759 0.68015 0.0
C1929 C 0.04571 0.421 0.68217 0.0
C1930 C 0.02019 0.40851 0.68468 0.0
C1931 C 0.0129 0.42328 0.68884 0.0
C1932 C 0.02226 0.43688 0.69206 0.0
C1933 C 0.03861 0.43555 0.68962 0.0
C1934 C 0.01077 0.39367 0.68273 0.0
C1935 C 0.015 0.45287 0.69454 0.0
H1936 H 0.96712 0.42274 0.5808 0.0
H1937 H 0.96226 0.42331 0.76555 0.0
H1938 H 0.00689 0.43453 0.57639 0.0
H1939 H 0.00493 0.41388 0.56921 0.0
H1940 H 0.99107 0.42655 0.53446 0.0
H1941 H 0.98392 0.42508 0.828 0.0
H1942 H 0.99922 0.4128 0.80012 0.0
H1943 H 1.00153 0.43347 0.79889 0.0
H1944 H 0.04201 0.39634 0.67438 0.0
H1945 H 0.04579 0.44593 0.69027 0.0
H1946 H 0.00435 0.39299 0.64114 0.0
H1947 H 1.00201 0.39357 0.71805 0.0
H1948 H 0.01819 0.38313 0.68679 0.0
H1949 H 0.00899 0.45531 0.65299 0.0
H1950 H 0.02379 0.46214 0.70218 0.0
H1951 H 0.00609 0.45342 0.72923 0.0
C1952 C 0.46883 0.58627 0.22981 0.0
C1953 C 0.46177 0.58326 0.1763 0.0
C1954 C 0.48518 0.58591 0.23572 0.0
C1955 C 0.49458 0.58188 0.18748 0.0
C1956 C 0.48734 0.57788 0.13443 0.0
C1957 C 0.47109 0.57895 0.1292 0.0
C1958 C 0.49239 0.59074 0.29248 0.0
C1959 C 0.4968 0.57301 0.08238 0.0
C1960 C 0.53536 0.59796 0.16557 0.0
C1961 C 0.54476 0.58537 0.18193 0.0
C1962 C 0.51909 0.59724 0.17039 0.0
C1963 C 0.51193 0.58335 0.19007 0.0
C1964 C 0.5214 0.57065 0.20759 0.0
C1965 C 0.53775 0.57191 0.20419 0.0
C1966 C 0.50954 0.61124 0.15275 0.0
C1967 C 0.51426 0.55548 0.22709 0.0
H1968 H 0.46163 0.58974 0.26614 0.0
H1969 H 0.46567 0.57651 0.08789 0.0
H1970 H 0.50113 0.58204 0.30677 0.0
H1971 H 0.49859 0.60197 0.28667 0.0
H1972 H 0.48355 0.59218 0.32717 0.0
H1973 H 0.48937 0.56829 0.04711 0.0
H1974 H 0.5033 0.58318 0.0653 0.0
H1975 H 0.50548 0.56403 0.09474 0.0
H1976 H 0.54078 0.60843 0.14868 0.0
H1977 H 0.54501 0.56211 0.21632 0.0
H1978 H 0.5009 0.6141 0.18685 0.0
H1979 H 0.50298 0.60857 0.11261 0.0
H1980 H 0.51688 0.62167 0.1447 0.0
H1981 H 0.50552 0.55756 0.26157 0.0
H1982 H 0.52313 0.54716 0.2435 0.0
H1983 H 0.50806 0.54999 0.19019 0.0
C1984 C 0.14308 0.13892 0.27426 0.0
C1985 C 0.15193 0.15199 0.28961 0.0
C1986 C 0.13552 0.12995 0.31708 0.0
C1987 C 0.13693 0.13416 0.37632 0.0
C1988 C 0.14674 0.14668 0.39196 0.0
C1989 C 0.15409 0.15538 0.34861 0.0
C1990 C 0.12529 0.11655 0.29874 0.0
C1991 C 0.14866 0.15161 0.45433 0.0
C1992 C 0.10227 0.12749 0.47516 0.0
C1993 C 0.10704 0.11469 0.50848 0.0
C1994 C 0.11187 0.1338 0.43207 0.0
C1995 C 0.12663 0.12706 0.42122 0.0
C1996 C 0.13167 0.11427 0.45531 0.0
C1997 C 0.12185 0.10829 0.49894 0.0
C1998 C 0.10613 0.14767 0.39789 0.0
C1999 C 0.14728 0.10671 0.44479 0.0
H2000 H 0.14144 0.13617 0.22888 0.0
H2001 H 0.16121 0.16525 0.3611 0.0
H2002 H 0.12755 0.10618 0.32614 0.0
H2003 H 0.11289 0.1198 0.30465 0.0
H2004 H 0.12713 0.11336 0.25265 0.0
H2005 H 0.15802 0.16042 0.45981 0.0
H2006 H 0.13757 0.1567 0.47023 0.0
H2007 H 0.15137 0.14142 0.48206 0.0
H2008 H 0.09084 0.1325 0.48236 0.0
H2009 H 0.12548 0.09823 0.52387 0.0
H2010 H 0.10576 0.14477 0.35112 0.0
H2011 H 0.11428 0.15759 0.40326 0.0
H2012 H 0.09433 0.15149 0.41156 0.0
H2013 H 0.14775 0.1021 0.39996 0.0
H2014 H 0.14959 0.097 0.47543 0.0
H2015 H 0.15673 0.11544 0.44894 0.0
C2016 C 0.11788 0.89378 0.5156 0.0
C2017 C 0.10442 0.902 0.53127 0.0
C2018 C 0.12697 0.88617 0.558 0.0
C2019 C 0.1225 0.88687 0.61716 0.0
C2020 C 0.10952 0.89602 0.63324 0.0
C2021 C 0.10072 0.90344 0.59033 0.0
C2022 C 0.14086 0.87669 0.53921 0.0
C2023 C 0.10425 0.89715 0.69551 0.0
C2024 C 0.13008 0.85187 0.71356 0.0
C2025 C 0.14237 0.857 0.74876 0.0
C2026 C 0.12372 0.86142 0.6704 0.0
C2027 C 0.12988 0.87652 0.66137 0.0
C2028 C 0.1422 0.88189 0.69709 0.0
C2029 C 0.14824 0.87209 0.74077 0.0
C2030 C 0.11035 0.85531 0.63447 0.0
C2031 C 0.14916 0.89785 0.6885 0.0
H2032 H 0.12089 0.8927 0.47022 0.0
H2033 H 0.09054 0.91007 0.6032 0.0
H2034 H 0.15102 0.87913 0.56748 0.0
H2035 H 0.13812 0.86411 0.54341 0.0
H2036 H 0.14415 0.87908 0.49356 0.0
H2037 H 0.09495 0.906 0.70156 0.0
H2038 H 0.0997 0.88568 0.70987 0.0
H2039 H 0.11418 0.90015 0.7241 0.0
H2040 H 0.12547 0.84022 0.71952 0.0
H2041 H 0.15791 0.87602 0.76713 0.0
H2042 H 0.11349 0.8555 0.58791 0.0
H2043 H 0.10001 0.86292 0.64003 0.0
H2044 H 0.10704 0.84322 0.64646 0.0
H2045 H 0.15372 0.89893 0.64375 0.0
H2046 H 0.15877 0.90026 0.71942 0.0
H2047 H 0.14006 0.90691 0.69388 0.0
C2048 C 0.4044 0.88073 0.96556 0.0
C2049 C 0.39956 0.89351 0.99886 0.0
C2050 C 0.39484 0.87435 0.92255 0.0
C2051 C 0.38003 0.88098 0.9118 0.0
C2052 C 0.3749 0.89373 0.94589 0.0
C2053 C 0.38471 0.8998 0.98942 0.0
C2054 C 0.40068 0.86053 0.88838 0.0
C2055 C 0.35922 0.90115 0.93551 0.0
C2056 C 0.36371 0.86888 0.76494 0.0
C2057 C 0.35506 0.85567 0.78036 0.0
C2058 C 0.37114 0.87797 0.80773 0.0
C2059 C 0.36977 0.87377 0.86699 0.0
C2060 C 0.36015 0.86111 0.88268 0.0
C2061 C 0.35296 0.85226 0.83936 0.0
C2062 C 0.38119 0.89149 0.78931 0.0
C2063 C 0.35827 0.85618 0.94509 0.0
H2064 H 0.41586 0.87579 0.97275 0.0
H2065 H 0.38101 0.90983 0.01439 0.0
H2066 H 0.39264 0.85052 0.89398 0.0
H2067 H 0.40096 0.8634 0.84158 0.0
H2068 H 0.41254 0.85683 0.90187 0.0
H2069 H 0.35683 0.91082 0.96618 0.0
H2070 H 0.35868 0.90576 0.89069 0.0
H2071 H 0.34986 0.89232 0.9397 0.0
H2072 H 0.3653 0.87165 0.71956 0.0
H2073 H 0.34599 0.84229 0.85188 0.0
H2074 H 0.39364 0.8884 0.79527 0.0
H2075 H 0.3788 0.90184 0.81663 0.0
H2076 H 0.37932 0.89463 0.74319 0.0
H2077 H 0.3694 0.85119 0.96102 0.0
H2078 H 0.34898 0.8473 0.95062 0.0
H2079 H 0.35548 0.86636 0.97275 0.0
C2080 C 0.38832 0.10678 0.03016 0.0
C2081 C 0.40381 0.11157 0.02296 0.0
C2082 C 0.37887 0.11337 0.07378 0.0
C2083 C 0.38505 0.12512 0.11038 0.0
C2084 C 0.40056 0.1302 0.10219 0.0
C2085 C 0.40971 0.12336 0.05891 0.0
C2086 C 0.3624 0.10763 0.08128 0.0
C2087 C 0.40755 0.14293 0.13914 0.0
C2088 C 0.3601 0.15583 0.18228 0.0
C2089 C 0.36086 0.15163 0.24107 0.0
C2090 C 0.36711 0.14679 0.13914 0.0
C2091 C 0.37517 0.13307 0.15467 0.0
C2092 C 0.37529 0.12822 0.21347 0.0
C2093 C 0.36807 0.13755 0.25611 0.0
C2094 C 0.36662 0.15246 0.07722 0.0
C2095 C 0.38367 0.11358 0.23165 0.0
H2096 H 0.38375 0.09753 1.00313 0.0
H2097 H 0.42166 0.12718 0.05352 0.0
H2098 H 0.36081 0.10302 0.12575 0.0
H2099 H 0.35409 0.11742 0.0759 0.0
H2100 H 0.35937 0.09834 0.04979 0.0
H2101 H 0.41991 0.14532 0.12798 0.0
H2102 H 0.4008 0.15386 0.13369 0.0
H2103 H 0.40692 0.13965 0.18552 0.0
H2104 H 0.35422 0.16649 0.16973 0.0
H2105 H 0.36859 0.13412 0.30122 0.0
H2106 H 0.36293 0.14294 0.0478 0.0
H2107 H 0.37845 0.15614 0.06364 0.0
H2108 H 0.35856 0.16247 0.07146 0.0
H2109 H 0.38043 0.10374 0.20296 0.0
H2110 H 0.38105 0.11034 0.27717 0.0
H2111 H 0.39642 0.11534 0.22742 0.0
C2112 C 0.90489 0.8977 0.5831 0.0
C2113 C 0.90062 0.89742 0.52435 0.0
C2114 C 0.89574 0.89056 0.62566 0.0
C2115 C 0.88185 0.8829 0.60953 0.0
C2116 C 0.87692 0.88334 0.55087 0.0
C2117 C 0.88636 0.89065 0.50883 0.0
C2118 C 0.90152 0.89042 0.68746 0.0
C2119 C 0.86209 0.87541 0.53208 0.0
C2120 C 0.87204 0.84774 0.70195 0.0
C2121 C 0.86065 0.85358 0.73976 0.0
C2122 C 0.87871 0.85708 0.6589 0.0
C2123 C 0.87384 0.87274 0.65277 0.0
C2124 C 0.86236 0.8788 0.69077 0.0
C2125 C 0.85596 0.86917 0.73419 0.0
C2126 C 0.89115 0.8502 0.62035 0.0
C2127 C 0.8568 0.89541 0.68531 0.0
H2128 H 0.9157 0.90322 0.59597 0.0
H2129 H 0.8829 0.89049 0.46372 0.0
H2130 H 0.89212 0.89402 0.71755 0.0
H2131 H 0.90503 0.87841 0.69952 0.0
H2132 H 0.91167 0.89825 0.69391 0.0
H2133 H 0.85874 0.87863 0.4872 0.0
H2134 H 0.86367 0.8626 0.53405 0.0
H2135 H 0.85239 0.87844 0.56175 0.0
H2136 H 0.8758 0.83573 0.70604 0.0
H2137 H 0.84703 0.87371 0.76271 0.0
H2138 H 0.90224 0.85665 0.62622 0.0
H2139 H 0.88774 0.85137 0.57425 0.0
H2140 H 0.89331 0.83769 0.62968 0.0
H2141 H 0.86665 0.90353 0.6926 0.0
H2142 H 0.8474 0.89819 0.71666 0.0
H2143 H 0.85243 0.89754 0.64083 0.0
C2144 C 0.8554 0.13413 0.26688 0.0
C2145 C 0.8613 0.14923 0.25937 0.0
C2146 C 0.86157 0.12415 0.30969 0.0
C2147 C 0.87405 0.12936 0.34502 0.0
C2148 C 0.88025 0.14445 0.33636 0.0
C2149 C 0.87378 0.15417 0.29402 0.0
C2150 C 0.85459 0.10819 0.31788 0.0
C2151 C 0.89377 0.1504 0.37193 0.0
C2152 C 0.88644 0.1123 0.49037 0.0
C2153 C 0.89996 0.10423 0.47439 0.0
C2154 C 0.87713 0.11969 0.44813 0.0
C2155 C 0.88145 0.11891 0.38884 0.0
C2156 C 0.89443 0.10981 0.37247 0.0
C2157 C 0.90346 0.1026 0.41524 0.0
C2158 C 0.86323 0.12912 0.46726 0.0
C2159 C 0.89954 0.10862 0.31003 0.0
H2160 H 0.84561 0.13034 0.24085 0.0
H2161 H 0.87844 0.16581 0.28834 0.0
H2162 H 0.86367 0.09912 0.31251 0.0
H2163 H 0.84997 0.10707 0.36254 0.0
H2164 H 0.84501 0.10583 0.28678 0.0
H2165 H 0.89714 0.16248 0.36009 0.0
H2166 H 0.89074 0.15016 0.41859 0.0
H2167 H 0.90404 0.14272 0.36584 0.0
H2168 H 0.88359 0.11353 0.53584 0.0
H2169 H 0.91369 0.09608 0.40222 0.0
H2170 H 0.85305 0.1267 0.43908 0.0
H2171 H 0.86595 0.14171 0.4633 0.0
H2172 H 0.86 0.12666 0.5129 0.0
H2173 H 0.88951 0.10579 0.2817 0.0
H2174 H 0.90869 0.09963 0.30372 0.0
H2175 H 0.90425 0.12001 0.29562 0.0
C2176 C 0.6454 0.13849 0.24703 0.0
C2177 C 0.649 0.15414 0.23564 0.0
C2178 C 0.63821 0.1291 0.20457 0.0
C2179 C 0.63451 0.13553 0.14963 0.0
C2180 C 0.6387 0.15109 0.13729 0.0
C2181 C 0.64586 0.16013 0.18012 0.0
C2182 C 0.634 0.11251 0.21923 0.0
C2183 C 0.63491 0.15851 0.07964 0.0
C2184 C 0.62128 0.11129 0.01966 0.0
C2185 C 0.60505 0.11309 0.02263 0.0
C2186 C 0.63109 0.11807 0.06176 0.0
C2187 C 0.62451 0.12689 0.10759 0.0
C2188 C 0.60817 0.1287 0.11067 0.0
C2189 C 0.59872 0.12185 0.0684 0.0
C2190 C 0.64848 0.11591 0.05704 0.0
C2191 C 0.60061 0.13817 0.15816 0.0
H2192 H 0.64788 0.13367 0.28938 0.0
H2193 H 0.64874 0.17211 0.17001 0.0
H2194 H 0.62116 0.11145 0.22305 0.0
H2195 H 0.63778 0.10454 0.18414 0.0
H2196 H 0.63934 0.10865 0.2606 0.0
H2197 H 0.6402 0.17025 0.07494 0.0
H2198 H 0.63906 0.15107 0.04358 0.0
H2199 H 0.6221 0.15967 0.07508 0.0
H2200 H 0.62631 0.10446 0.98491 0.0
H2201 H 0.58623 0.12343 0.07139 0.0
H2202 H 0.65317 0.11115 0.09815 0.0
H2203 H 0.65416 0.12734 0.04974 0.0
H2204 H 0.65173 0.10796 0.02108 0.0
H2205 H 0.60432 0.13379 0.20118 0.0
H2206 H 0.58769 0.13782 0.15601 0.0
H2207 H 0.6044 0.15049 0.15494 0.0
C2208 C 0.65122 0.872 0.7791 0.0
C2209 C 0.64466 0.8573 0.76892 0.0
C2210 C 0.64507 0.88194 0.82208 0.0
C2211 C 0.63194 0.87711 0.8548 0.0
C2212 C 0.62505 0.86246 0.8432 0.0
C2213 C 0.63153 0.85275 0.80086 0.0
C2214 C 0.65281 0.89741 0.83344 0.0
C2215 C 0.61083 0.85695 0.87585 0.0
C2216 C 0.61946 0.89324 1.00147 0.0
C2217 C 0.60651 0.9022 0.98559 0.0
C2218 C 0.62862 0.88578 0.95897 0.0
C2219 C 0.62476 0.88745 0.89949 0.0
C2220 C 0.61241 0.89744 0.88343 0.0
C2221 C 0.60346 0.90462 0.92651 0.0
C2222 C 0.64179 0.87532 0.97787 0.0
C2223 C 0.60789 0.89968 0.82078 0.0
H2224 H 0.66151 0.87546 0.75516 0.0
H2225 H 0.62639 0.84141 0.79306 0.0
H2226 H 0.64423 0.907 0.82911 0.0
H2227 H 0.65725 0.89772 0.87852 0.0
H2228 H 0.66266 0.89964 0.80341 0.0
H2229 H 0.60688 0.84525 0.86156 0.0
H2230 H 0.61337 0.85647 0.92288 0.0
H2231 H 0.60111 0.86531 0.86964 0.0
H2232 H 0.62193 0.89137 0.04695 0.0
H2233 H 0.59365 0.9118 0.91377 0.0
H2234 H 0.65233 0.87753 0.95138 0.0
H2235 H 0.63841 0.86298 0.97115 0.0
H2236 H 0.64474 0.87697 0.02428 0.0
H2237 H 0.61829 0.9022 0.79396 0.0
H2238 H 0.59936 0.90929 0.81509 0.0
H2239 H 0.6026 0.88878 0.80402 0.0
C2240 C 0.62015 0.61198 0.99808 0.0
C2241 C 0.60614 0.60478 0.98214 0.0
C2242 C 0.62951 0.61947 0.95625 0.0
C2243 C 0.62471 0.61971 0.89741 0.0
C2244 C 0.61116 0.61153 0.88084 0.0
C2245 C 0.60211 0.60417 0.92319 0.0
C2246 C 0.64402 0.6279 0.9755 0.0
C2247 C 0.60553 0.61145 0.81886 0.0
C2248 C 0.6333 0.65546 0.80645 0.0
C2249 C 0.64495 0.65016 0.76871 0.0
C2250 C 0.6269 0.64574 0.8489 0.0
C2251 C 0.63236 0.63026 0.85457 0.0
C2252 C 0.64413 0.62475 0.81662 0.0
C2253 C 0.65021 0.63474 0.7737 0.0
C2254 C 0.61412 0.65203 0.88735 0.0
C2255 C 0.65035 0.60838 0.82174 0.0
H2256 H 0.62342 0.61241 0.04337 0.0
H2257 H 0.5915 0.59833 0.91006 0.0
H2258 H 0.65383 0.62537 0.94573 0.0
H2259 H 0.64193 0.64065 0.97422 0.0
H2260 H 0.64747 0.62464 0.02023 0.0
H2261 H 0.59576 0.60317 0.81204 0.0
H2262 H 0.60149 0.6233 0.80685 0.0
H2263 H 0.61514 0.60832 0.789 0.0
H2264 H 0.62912 0.66734 0.80276 0.0
H2265 H 0.65937 0.63064 0.74524 0.0
H2266 H 0.61755 0.65099 0.93347 0.0
H2267 H 0.60335 0.64509 0.8813 0.0
H2268 H 0.61142 0.66444 0.87811 0.0
H2269 H 0.65485 0.60638 0.86615 0.0
H2270 H 0.65984 0.60602 0.79027 0.0
H2271 H 0.64085 0.59986 0.81443 0.0
C2272 C 0.64138 0.36885 0.24225 0.0
C2273 C 0.65014 0.35571 0.22689 0.0
C2274 C 0.63391 0.3779 0.19936 0.0
C2275 C 0.63534 0.37371 0.14009 0.0
C2276 C 0.64508 0.36113 0.12451 0.0
C2277 C 0.65233 0.35236 0.16789 0.0
C2278 C 0.62377 0.39137 0.21766 0.0
C2279 C 0.64701 0.3562 0.06214 0.0
C2280 C 0.60083 0.38046 0.04057 0.0
C2281 C 0.60571 0.39318 0.00705 0.0
C2282 C 0.61032 0.37418 0.08404 0.0
C2283 C 0.6251 0.38087 0.09508 0.0
C2284 C 0.63025 0.39358 0.06085 0.0
C2285 C 0.62052 0.39954 0.01684 0.0
C2286 C 0.60447 0.36038 0.11833 0.0
C2287 C 0.64587 0.40108 0.07156 0.0
H2288 H 0.63971 0.37158 0.28763 0.0
H2289 H 0.65939 0.34243 0.15543 0.0
H2290 H 0.62609 0.40172 0.19021 0.0
H2291 H 0.61135 0.38819 0.2118 0.0
H2292 H 0.62564 0.39456 0.26374 0.0
H2293 H 0.65633 0.34733 0.05673 0.0
H2294 H 0.63591 0.35118 0.04612 0.0
H2295 H 0.64981 0.36637 0.03446 0.0
H2296 H 0.58939 0.3755 0.0332 0.0
H2297 H 0.62424 0.40954 0.99177 0.0
H2298 H 0.60411 0.36331 0.16506 0.0
H2299 H 0.61256 0.3504 0.1131 0.0
H2300 H 0.59265 0.35663 0.10461 0.0
H2301 H 0.64634 0.40567 0.11643 0.0
H2302 H 0.64824 0.41079 0.04101 0.0
H2303 H 0.65529 0.39231 0.06743 0.0
C2304 C 0.90586 0.38251 0.45771 0.0
C2305 C 0.90087 0.39525 0.49094 0.0
C2306 C 0.89635 0.37598 0.41491 0.0
C2307 C 0.88143 0.38239 0.40434 0.0
C2308 C 0.87616 0.3951 0.43833 0.0
C2309 C 0.88592 0.40134 0.48164 0.0
C2310 C 0.90235 0.3622 0.38082 0.0
C2311 C 0.86036 0.40228 0.42812 0.0
C2312 C 0.86542 0.36973 0.25789 0.0
C2313 C 0.85711 0.35634 0.27363 0.0
C2314 C 0.87257 0.3791 0.30047 0.0
C2315 C 0.87125 0.37498 0.35982 0.0
C2316 C 0.86189 0.36215 0.37581 0.0
C2317 C 0.85498 0.35303 0.33267 0.0
C2318 C 0.88233 0.3928 0.28176 0.0
C2319 C 0.86008 0.35731 0.43833 0.0
H2320 H 0.91738 0.37771 0.46486 0.0
H2321 H 0.88211 0.41132 0.50662 0.0
H2322 H 0.89447 0.35208 0.38677 0.0
H2323 H 0.90251 0.36502 0.33397 0.0
H2324 H 0.91428 0.3587 0.39412 0.0
H2325 H 0.85787 0.41195 0.4587 0.0
H2326 H 0.85969 0.40683 0.38325 0.0
H2327 H 0.85113 0.39332 0.43262 0.0
H2328 H 0.86701 0.37242 0.21243 0.0
H2329 H 0.84825 0.3429 0.34537 0.0
H2330 H 0.89484 0.38995 0.28746 0.0
H2331 H 0.87978 0.40312 0.30905 0.0
H2332 H 0.88032 0.39588 0.23565 0.0
H2333 H 0.87127 0.35245 0.45429 0.0
H2334 H 0.85089 0.34834 0.44406 0.0
H2335 H 0.8572 0.36749 0.46581 0.0
C2336 C 0.86292 0.63494 0.75127 0.0
C2337 C 0.85379 0.6477 0.73456 0.0
C2338 C 0.87047 0.62569 0.70928 0.0
C2339 C 0.86879 0.62933 0.64961 0.0
C2340 C 0.85857 0.64141 0.63279 0.0
C2341 C 0.8512 0.65037 0.67533 0.0
C2342 C 0.88108 0.61273 0.72889 0.0
C2343 C 0.85637 0.64576 0.56995 0.0
C2344 C 0.90374 0.62364 0.5515 0.0
C2345 C 0.89945 0.6106 0.51861 0.0
C2346 C 0.8939 0.62968 0.5943 0.0
C2347 C 0.87942 0.62239 0.60543 0.0
C2348 C 0.8749 0.60929 0.57203 0.0
C2349 C 0.88494 0.60361 0.52852 0.0
C2350 C 0.89905 0.64392 0.62766 0.0
C2351 C 0.85964 0.60111 0.58307 0.0
H2352 H 0.86488 0.63275 0.7969 0.0
H2353 H 0.84386 0.66001 0.66199 0.0
H2354 H 0.8793 0.60217 0.702 0.0
H2355 H 0.89338 0.6164 0.72352 0.0
H2356 H 0.87916 0.60967 0.77507 0.0
H2357 H 0.84659 0.65407 0.56372 0.0
H2358 H 0.86719 0.65127 0.55343 0.0
H2359 H 0.85414 0.63526 0.54328 0.0
H2360 H 0.91495 0.62909 0.54396 0.0
H2361 H 0.88171 0.59336 0.5039 0.0
H2362 H 0.89951 0.64125 0.6746 0.0
H2363 H 0.89051 0.65348 0.62161 0.0
H2364 H 0.9107 0.64816 0.61381 0.0
H2365 H 0.85935 0.59673 0.62825 0.0
H2366 H 0.85777 0.59115 0.55319 0.0
H2367 H 0.84982 0.60939 0.57822 0.0
C2368 C 0.37263 0.34981 0.22243 0.0
C2369 C 0.36001 0.35507 0.25566 0.0
C2370 C 0.37939 0.35918 0.17966 0.0
C2371 C 0.37335 0.37425 0.16915 0.0
C2372 C 0.36076 0.37981 0.20315 0.0
C2373 C 0.35428 0.37017 0.2464 0.0
C2374 C 0.39303 0.35287 0.14555 0.0
C2375 C 0.35397 0.39578 0.19306 0.0
C2376 C 0.40315 0.40035 0.09785 0.0
C2377 C 0.39974 0.39848 0.03874 0.0
C2378 C 0.394 0.39341 0.14085 0.0
C2379 C 0.381 0.38431 0.12472 0.0
C2380 C 0.37682 0.38321 0.06536 0.0
C2381 C 0.38624 0.39037 0.02291 0.0
C2382 C 0.39892 0.39497 0.20337 0.0
C2383 C 0.36295 0.37371 0.04648 0.0
H2384 H 0.37716 0.33817 0.22951 0.0
H2385 H 0.34438 0.37421 0.27135 0.0
H2386 H 0.39022 0.35282 0.09869 0.0
H2387 H 0.40333 0.3605 0.15159 0.0
H2388 H 0.39623 0.34085 0.15874 0.0
H2389 H 0.3443 0.39845 0.22342 0.0
H2390 H 0.36313 0.40479 0.19801 0.0
H2391 H 0.34952 0.39663 0.14807 0.0
H2392 H 0.41337 0.40691 0.11071 0.0
H2393 H 0.38346 0.38897 0.97745 0.0
H2394 H 0.40347 0.38362 0.21905 0.0
H2395 H 0.38884 0.39809 0.23098 0.0
H2396 H 0.40815 0.4039 0.20928 0.0
H2397 H 0.36556 0.36114 0.05221 0.0
H2398 H 0.35994 0.37578 1.00036 0.0
H2399 H 0.35267 0.37645 0.07369 0.0
C2400 C 0.40376 0.6037 0.92028 0.0
C2401 C 0.40041 0.60574 0.97933 0.0
C2402 C 0.39481 0.61084 0.87721 0.0
C2403 C 0.38208 0.62034 0.89325 0.0
C2404 C 0.37791 0.62158 0.95257 0.0
C2405 C 0.38713 0.61421 0.9951 0.0
C2406 C 0.39971 0.60913 0.81472 0.0
C2407 C 0.3643 0.63147 0.97134 0.0
C2408 C 0.37492 0.65516 0.79584 0.0
C2409 C 0.36221 0.65029 0.76229 0.0
C2410 C 0.38134 0.64554 0.83862 0.0
C2411 C 0.37481 0.63066 0.84884 0.0
C2412 C 0.36211 0.62552 0.81455 0.0
C2413 C 0.356 0.63538 0.77126 0.0
C2414 C 0.39512 0.65139 0.87304 0.0
C2415 C 0.35479 0.60977 0.82442 0.0
H2416 H 0.41381 0.59686 0.90754 0.0
H2417 H 0.38441 0.61574 0.04056 0.0
H2418 H 0.38954 0.60636 0.78699 0.0
H2419 H 0.40466 0.62031 0.79913 0.0
H2420 H 0.40862 0.59988 0.80889 0.0
H2421 H 0.36115 0.62941 0.01734 0.0
H2422 H 0.3673 0.64396 0.96601 0.0
H2423 H 0.35398 0.6291 0.94382 0.0
H2424 H 0.3798 0.66666 0.789 0.0
H2425 H 0.34602 0.63166 0.74607 0.0
H2426 H 0.40517 0.64342 0.86721 0.0
H2427 H 0.39223 0.65153 0.91984 0.0
H2428 H 0.39873 0.6633 0.85996 0.0
H2429 H 0.36366 0.60046 0.81979 0.0
H2430 H 0.34511 0.60741 0.79375 0.0
H2431 H 0.35021 0.60908 0.86926 0.0
C2432 C 0.13388 0.65558 0.70894 0.0
C2433 C 0.14669 0.65074 0.74206 0.0
C2434 C 0.12744 0.64598 0.66617 0.0
C2435 C 0.13407 0.63117 0.65539 0.0
C2436 C 0.14691 0.62608 0.68909 0.0
C2437 C 0.15302 0.6359 0.73249 0.0
C2438 C 0.11351 0.65177 0.63244 0.0
C2439 C 0.15437 0.61043 0.6785 0.0
C2440 C 0.10495 0.60427 0.58462 0.0
C2441 C 0.10802 0.60655 0.52548 0.0
C2442 C 0.11411 0.61126 0.62746 0.0
C2443 C 0.12673 0.62086 0.61107 0.0
C2444 C 0.13065 0.62228 0.55156 0.0
C2445 C 0.12124 0.61506 0.50928 0.0
C2446 C 0.10949 0.60933 0.69015 0.0
C2447 C 0.14414 0.63227 0.53239 0.0
H2448 H 0.12892 0.66702 0.71626 0.0
H2449 H 0.16307 0.63223 0.75735 0.0
H2450 H 0.11625 0.65201 0.58553 0.0
H2451 H 0.10354 0.64371 0.63853 0.0
H2452 H 0.10983 0.66363 0.64593 0.0
H2453 H 0.16417 0.60812 0.70868 0.0
H2454 H 0.14561 0.60102 0.68331 0.0
H2455 H 0.1588 0.60986 0.63345 0.0
H2456 H 0.09494 0.59741 0.59759 0.0
H2457 H 0.12373 0.61678 0.46373 0.0
H2458 H 0.10447 0.62041 0.70639 0.0
H2459 H 0.11979 0.60661 0.71722 0.0
H2460 H 0.1007 0.59996 0.69613 0.0
H2461 H 0.14107 0.64473 0.53791 0.0
H2462 H 0.14718 0.63026 0.48625 0.0
H2463 H 0.15455 0.62994 0.55949 0.0
C2464 C 0.14938 0.37134 0.26662 0.0
C2465 C 0.14475 0.3557 0.26263 0.0
C2466 C 0.14305 0.38122 0.3094 0.0
C2467 C 0.13172 0.37535 0.34841 0.0
C2468 C 0.12689 0.35965 0.34382 0.0
C2469 C 0.13347 0.35007 0.30132 0.0
C2470 C 0.14854 0.39788 0.31317 0.0
C2471 C 0.11462 0.35294 0.38357 0.0
C2472 C 0.11981 0.39377 0.49203 0.0
C2473 C 0.10543 0.40038 0.47715 0.0
C2474 C 0.12911 0.38639 0.44974 0.0
C2475 C 0.12389 0.3857 0.39147 0.0
C2476 C 0.10988 0.39323 0.37586 0.0
C2477 C 0.10088 0.40046 0.41867 0.0
C2478 C 0.14408 0.37862 0.46797 0.0
C2479 C 0.1038 0.3928 0.31449 0.0
H2480 H 0.15822 0.37573 0.23739 0.0
H2481 H 0.12973 0.33803 0.29845 0.0
H2482 H 0.13861 0.40592 0.30615 0.0
H2483 H 0.15318 0.40026 0.3571 0.0
H2484 H 0.15774 0.40055 0.28084 0.0
H2485 H 0.11244 0.34039 0.37523 0.0
H2486 H 0.11823 0.35434 0.42937 0.0
H2487 H 0.1035 0.35936 0.37793 0.0
H2488 H 0.12348 0.39375 0.53691 0.0
H2489 H 0.08996 0.40584 0.40626 0.0
H2490 H 0.1536 0.38154 0.43739 0.0
H2491 H 0.14254 0.36579 0.46701 0.0
H2492 H 0.14765 0.38207 0.51236 0.0
H2493 H 0.11305 0.39622 0.2835 0.0
H2494 H 0.09363 0.40062 0.30821 0.0
H2495 H 0.10021 0.38074 0.30352 0.0
loop_
_geom_bond_atom_site_label_1
_geom_bond_atom_site_label_2
_geom_bond_distance
_geom_bond_site_symmetry_2
_ccdc_geom_bond_type
Co0 O1 2.216 . S
Co0 O2 2.091 . S
Co0 O4 2.004 . S
Co0 O10 2.021 . S
Co0 O12 2.137 . S
Co0 O13 2.244 . S
O1 Co0 2.216 . S
O1 C8 1.247 . S
O2 Co0 2.091 . S
O2 C8 1.261 . S
C3 O12 1.247 . S
C3 O13 1.272 . S
O4 Co0 2.004 . S
O4 C9 1.259 . S
Co5 O6 2.061 . S
Co5 O11 2.052 . S
Co5 O13 2.135 . S
O6 Co5 2.061 . S
O6 C9 1.235 . S
C7 O10 1.238 . S
C7 O11 1.241 . S
C8 O1 1.247 . S
C8 O2 1.261 . S
C9 O4 1.259 . S
C9 O6 1.235 . S
O10 Co0 2.021 . S
O10 C7 1.238 . S
O11 Co5 2.052 . S
O11 C7 1.241 . S
O12 Co0 2.137 . S
O12 C3 1.247 . S
O13 Co0 2.244 . S
O13 C3 1.272 . S
O13 Co5 2.135 . S
Co14 O15 2.216 . S
Co14 O16 2.091 . S
Co14 O18 2.004 . S
Co14 O24 2.021 . S
Co14 O26 2.137 . S
Co14 O27 2.244 . S
O15 Co14 2.216 . S
O15 C22 1.247 . S
O16 Co14 2.091 . S
O16 C22 1.261 . S
C17 O26 1.247 . S
C17 O27 1.272 . S
O18 Co14 2.004 . S
O18 C23 1.259 . S
Co19 O20 2.061 . S
Co19 O25 2.052 . S
Co19 O27 2.135 . S
O20 Co19 2.061 . S
O20 C23 1.235 . S
C21 O24 1.238 . S
C21 O25 1.241 . S
C22 O15 1.247 . S
C22 O16 1.261 . S
C23 O18 1.259 . S
C23 O20 1.235 . S
O24 Co14 2.021 . S
O24 C21 1.238 . S
O25 Co19 2.052 . S
O25 C21 1.241 . S
O26 Co14 2.137 . S
O26 C17 1.247 . S
O27 Co14 2.244 . S
O27 C17 1.272 . S
O27 Co19 2.135 . S
Co28 O29 2.216 . S
Co28 O30 2.091 . S
Co28 O32 2.004 . S
Co28 O38 2.021 . S
Co28 O40 2.137 . S
Co28 O41 2.244 . S
O29 Co28 2.216 . S
O29 C36 1.247 . S
O30 Co28 2.091 . S
O30 C36 1.261 . S
C31 O40 1.247 . S
C31 O41 1.272 . S
O32 Co28 2.004 . S
O32 C37 1.259 . S
Co33 O34 2.061 . S
Co33 O39 2.052 . S
Co33 O41 2.135 . S
O34 Co33 2.061 . S
O34 C37 1.235 . S
C35 O38 1.238 . S
C35 O39 1.241 . S
C36 O29 1.247 . S
C36 O30 1.261 . S
C37 O32 1.259 . S
C37 O34 1.235 . S
O38 Co28 2.021 . S
O38 C35 1.238 . S
O39 Co33 2.052 . S
O39 C35 1.241 . S
O40 Co28 2.137 . S
O40 C31 1.247 . S
O41 Co28 2.244 . S
O41 C31 1.272 . S
O41 Co33 2.135 . S
Co42 O43 2.216 . S
Co42 O44 2.091 . S
Co42 O46 2.004 . S
Co42 O52 2.021 . S
Co42 O54 2.137 . S
Co42 O55 2.244 . S
O43 Co42 2.216 . S
O43 C50 1.247 . S
O44 Co42 2.091 . S
O44 C50 1.261 . S
C45 O54 1.247 . S
C45 O55 1.272 . S
O46 Co42 2.004 . S
O46 C51 1.259 . S
Co47 O48 2.061 . S
Co47 O53 2.052 . S
Co47 O55 2.135 . S
O48 Co47 2.061 . S
O48 C51 1.235 . S
C49 O52 1.238 . S
C49 O53 1.241 . S
C50 O43 1.247 . S
C50 O44 1.261 . S
C51 O46 1.259 . S
C51 O48 1.235 . S
O52 Co42 2.021 . S
O52 C49 1.238 . S
O53 Co47 2.052 . S
O53 C49 1.241 . S
O54 Co42 2.137 . S
O54 C45 1.247 . S
O55 Co42 2.244 . S
O55 C45 1.272 . S
O55 Co47 2.135 . S
Co56 O57 2.216 . S
Co56 O58 2.091 . S
Co56 O60 2.004 . S
Co56 O66 2.021 . S
Co56 O68 2.137 . S
Co56 O69 2.244 . S
O57 Co56 2.216 . S
O57 C64 1.247 . S
O58 Co56 2.091 . S
O58 C64 1.261 . S
C59 O68 1.247 . S
C59 O69 1.272 . S
O60 Co56 2.004 . S
O60 C65 1.259 . S
Co61 O62 2.061 . S
Co61 O67 2.052 . S
Co61 O69 2.135 . S
O62 Co61 2.061 . S
O62 C65 1.235 . S
C63 O66 1.238 . S
C63 O67 1.241 . S
C64 O57 1.247 . S
C64 O58 1.261 . S
C65 O60 1.259 . S
C65 O62 1.235 . S
O66 Co56 2.021 . S
O66 C63 1.238 . S
O67 Co61 2.052 . S
O67 C63 1.241 . S
O68 Co56 2.137 . S
O68 C59 1.247 . S
O69 Co56 2.244 . S
O69 C59 1.272 . S
O69 Co61 2.135 . S
Co70 O71 2.216 . S
Co70 O72 2.091 . S
Co70 O74 2.004 . S
Co70 O80 2.021 . S
Co70 O82 2.137 . S
Co70 O83 2.244 . S
O71 Co70 2.216 . S
O71 C78 1.247 . S
O72 Co70 2.091 . S
O72 C78 1.261 . S
C73 O82 1.247 . S
C73 O83 1.272 . S
O74 Co70 2.004 . S
O74 C79 1.259 . S
Co75 O76 2.061 . S
Co75 O81 2.052 . S
Co75 O83 2.135 . S
O76 Co75 2.061 . S
O76 C79 1.235 . S
C77 O80 1.238 . S
C77 O81 1.241 . S
C78 O71 1.247 . S
C78 O72 1.261 . S
C79 O74 1.259 . S
C79 O76 1.235 . S
O80 Co70 2.021 . S
O80 C77 1.238 . S
O81 Co75 2.052 . S
O81 C77 1.241 . S
O82 Co70 2.137 . S
O82 C73 1.247 . S
O83 Co70 2.244 . S
O83 C73 1.272 . S
O83 Co75 2.135 . S
Co84 O85 2.216 . S
Co84 O86 2.091 . S
Co84 O88 2.004 . S
Co84 O94 2.021 . S
Co84 O96 2.137 . S
Co84 O97 2.244 . S
O85 Co84 2.216 . S
O85 C92 1.247 . S
O86 Co84 2.091 . S
O86 C92 1.261 . S
C87 O96 1.247 . S
C87 O97 1.272 . S
O88 Co84 2.004 . S
O88 C93 1.259 . S
Co89 O90 2.061 . S
Co89 O95 2.052 . S
Co89 O97 2.135 . S
O90 Co89 2.061 . S
O90 C93 1.235 . S
C91 O94 1.238 . S
C91 O95 1.241 . S
C92 O85 1.247 . S
C92 O86 1.261 . S
C93 O88 1.259 . S
C93 O90 1.235 . S
O94 Co84 2.021 . S
O94 C91 1.238 . S
O95 Co89 2.052 . S
O95 C91 1.241 . S
O96 Co84 2.137 . S
O96 C87 1.247 . S
O97 Co84 2.244 . S
O97 C87 1.272 . S
O97 Co89 2.135 . S
Co98 O99 2.216 . S
Co98 O100 2.091 . S
Co98 O102 2.004 . S
Co98 O108 2.021 . S
Co98 O110 2.137 . S
Co98 O111 2.244 . S
O99 Co98 2.216 . S
O99 C106 1.247 . S
O100 Co98 2.091 . S
O100 C106 1.261 . S
C101 O110 1.247 . S
C101 O111 1.272 . S
O102 Co98 2.004 . S
O102 C107 1.259 . S
Co103 O104 2.061 . S
Co103 O109 2.052 . S
Co103 O111 2.135 . S
O104 Co103 2.061 . S
O104 C107 1.235 . S
C105 O108 1.238 . S
C105 O109 1.241 . S
C106 O99 1.247 . S
C106 O100 1.261 . S
C107 O102 1.259 . S
C107 O104 1.235 . S
O108 Co98 2.021 . S
O108 C105 1.238 . S
O109 Co103 2.052 . S
O109 C105 1.241 . S
O110 Co98 2.137 . S
O110 C101 1.247 . S
O111 Co98 2.244 . S
O111 C101 1.272 . S
O111 Co103 2.135 . S
Co112 O113 2.216 . S
Co112 O114 2.091 . S
Co112 O116 2.004 . S
Co112 O122 2.021 . S
Co112 O124 2.137 . S
Co112 O125 2.244 . S
O113 Co112 2.216 . S
O113 C120 1.247 . S
O114 Co112 2.091 . S
O114 C120 1.261 . S
C115 O124 1.247 . S
C115 O125 1.272 . S
O116 Co112 2.004 . S
O116 C121 1.259 . S
Co117 O118 2.061 . S
Co117 O123 2.052 . S
Co117 O125 2.135 . S
O118 Co117 2.061 . S
O118 C121 1.235 . S
C119 O122 1.238 . S
C119 O123 1.241 . S
C120 O113 1.247 . S
C120 O114 1.261 . S
C121 O116 1.259 . S
C121 O118 1.235 . S
O122 Co112 2.021 . S
O122 C119 1.238 . S
O123 Co117 2.052 . S
O123 C119 1.241 . S
O124 Co112 2.137 . S
O124 C115 1.247 . S
O125 Co112 2.244 . S
O125 C115 1.272 . S
O125 Co117 2.135 . S
Co126 O127 2.216 . S
Co126 O128 2.091 . S
Co126 O130 2.004 . S
Co126 O136 2.021 . S
Co126 O138 2.137 . S
Co126 O139 2.244 . S
O127 Co126 2.216 . S
O127 C134 1.247 . S
O128 Co126 2.091 . S
O128 C134 1.261 . S
C129 O138 1.247 . S
C129 O139 1.272 . S
O130 Co126 2.004 . S
O130 C135 1.259 . S
Co131 O132 2.061 . S
Co131 O137 2.052 . S
Co131 O139 2.135 . S
O132 Co131 2.061 . S
O132 C135 1.235 . S
C133 O136 1.238 . S
C133 O137 1.241 . S
C134 O127 1.247 . S
C134 O128 1.261 . S
C135 O130 1.259 . S
C135 O132 1.235 . S
O136 Co126 2.021 . S
O136 C133 1.238 . S
O137 Co131 2.052 . S
O137 C133 1.241 . S
O138 Co126 2.137 . S
O138 C129 1.247 . S
O139 Co126 2.244 . S
O139 C129 1.272 . S
O139 Co131 2.135 . S
Co140 O141 2.216 . S
Co140 O142 2.091 . S
Co140 O144 2.004 . S
Co140 O150 2.021 . S
Co140 O152 2.137 . S
Co140 O153 2.244 . S
O141 Co140 2.216 . S
O141 C148 1.247 . S
O142 Co140 2.091 . S
O142 C148 1.261 . S
C143 O152 1.247 . S
C143 O153 1.272 . S
O144 Co140 2.004 . S
O144 C149 1.259 . S
Co145 O146 2.061 . S
Co145 O151 2.052 . S
Co145 O153 2.135 . S
O146 Co145 2.061 . S
O146 C149 1.235 . S
C147 O150 1.238 . S
C147 O151 1.241 . S
C148 O141 1.247 . S
C148 O142 1.261 . S
C149 O144 1.259 . S
C149 O146 1.235 . S
O150 Co140 2.021 . S
O150 C147 1.238 . S
O151 Co145 2.052 . S
O151 C147 1.241 . S
O152 Co140 2.137 . S
O152 C143 1.247 . S
O153 Co140 2.244 . S
O153 C143 1.272 . S
O153 Co145 2.135 . S
Co154 O155 2.216 . S
Co154 O156 2.091 . S
Co154 O158 2.004 . S
Co154 O164 2.021 . S
Co154 O166 2.137 . S
Co154 O167 2.244 . S
O155 Co154 2.216 . S
O155 C162 1.247 . S
O156 Co154 2.091 . S
O156 C162 1.261 . S
C157 O166 1.247 . S
C157 O167 1.272 . S
O158 Co154 2.004 . S
O158 C163 1.259 . S
Co159 O160 2.061 . S
Co159 O165 2.052 . S
Co159 O167 2.135 . S
O160 Co159 2.061 . S
O160 C163 1.235 . S
C161 O164 1.238 . S
C161 O165 1.241 . S
C162 O155 1.247 . S
C162 O156 1.261 . S
C163 O158 1.259 . S
C163 O160 1.235 . S
O164 Co154 2.021 . S
O164 C161 1.238 . S
O165 Co159 2.052 . S
O165 C161 1.241 . S
O166 Co154 2.137 . S
O166 C157 1.247 . S
O167 Co154 2.244 . S
O167 C157 1.272 . S
O167 Co159 2.135 . S
Co168 O169 2.216 . S
Co168 O170 2.091 . S
Co168 O172 2.004 . S
Co168 O178 2.021 . S
Co168 O180 2.137 . S
Co168 O181 2.244 . S
O169 Co168 2.216 . S
O169 C176 1.247 . S
O170 Co168 2.091 . S
O170 C176 1.261 . S
C171 O180 1.247 . S
C171 O181 1.272 . S
O172 Co168 2.004 . S
O172 C177 1.259 . S
Co173 O174 2.061 . S
Co173 O179 2.052 . S
Co173 O181 2.135 . S
O174 Co173 2.061 . S
O174 C177 1.235 . S
C175 O178 1.238 . S
C175 O179 1.241 . S
C176 O169 1.247 . S
C176 O170 1.261 . S
C177 O172 1.259 . S
C177 O174 1.235 . S
O178 Co168 2.021 . S
O178 C175 1.238 . S
O179 Co173 2.052 . S
O179 C175 1.241 . S
O180 Co168 2.137 . S
O180 C171 1.247 . S
O181 Co168 2.244 . S
O181 C171 1.272 . S
O181 Co173 2.135 . S
Co182 O183 2.216 . S
Co182 O184 2.091 . S
Co182 O186 2.004 . S
Co182 O192 2.021 . S
Co182 O194 2.137 . S
Co182 O195 2.244 . S
O183 Co182 2.216 . S
O183 C190 1.247 . S
O184 Co182 2.091 . S
O184 C190 1.261 . S
C185 O194 1.247 . S
C185 O195 1.272 . S
O186 Co182 2.004 . S
O186 C191 1.259 . S
Co187 O188 2.061 . S
Co187 O193 2.052 . S
Co187 O195 2.135 . S
O188 Co187 2.061 . S
O188 C191 1.235 . S
C189 O192 1.238 . S
C189 O193 1.241 . S
C190 O183 1.247 . S
C190 O184 1.261 . S
C191 O186 1.259 . S
C191 O188 1.235 . S
O192 Co182 2.021 . S
O192 C189 1.238 . S
O193 Co187 2.052 . S
O193 C189 1.241 . S
O194 Co182 2.137 . S
O194 C185 1.247 . S
O195 Co182 2.244 . S
O195 C185 1.272 . S
O195 Co187 2.135 . S
Co196 O197 2.216 . S
Co196 O198 2.091 . S
Co196 O200 2.004 . S
Co196 O206 2.021 . S
Co196 O208 2.137 . S
Co196 O209 2.244 . S
O197 Co196 2.216 . S
O197 C204 1.247 . S
O198 Co196 2.091 . S
O198 C204 1.261 . S
C199 O208 1.247 . S
C199 O209 1.272 . S
O200 Co196 2.004 . S
O200 C205 1.259 . S
Co201 O202 2.061 . S
Co201 O207 2.052 . S
Co201 O209 2.135 . S
O202 Co201 2.061 . S
O202 C205 1.235 . S
C203 O206 1.238 . S
C203 O207 1.241 . S
C204 O197 1.247 . S
C204 O198 1.261 . S
C205 O200 1.259 . S
C205 O202 1.235 . S
O206 Co196 2.021 . S
O206 C203 1.238 . S
O207 Co201 2.052 . S
O207 C203 1.241 . S
O208 Co196 2.137 . S
O208 C199 1.247 . S
O209 Co196 2.244 . S
O209 C199 1.272 . S
O209 Co201 2.135 . S
Co210 O211 2.216 . S
Co210 O212 2.091 . S
Co210 O214 2.004 . S
Co210 O220 2.021 . S
Co210 O222 2.137 . S
Co210 O223 2.244 . S
O211 Co210 2.216 . S
O211 C218 1.247 . S
O212 Co210 2.091 . S
O212 C218 1.261 . S
C213 O222 1.247 . S
C213 O223 1.272 . S
O214 Co210 2.004 . S
O214 C219 1.259 . S
Co215 O216 2.061 . S
Co215 O221 2.052 . S
Co215 O223 2.135 . S
O216 Co215 2.061 . S
O216 C219 1.235 . S
C217 O220 1.238 . S
C217 O221 1.241 . S
C218 O211 1.247 . S
C218 O212 1.261 . S
C219 O214 1.259 . S
C219 O216 1.235 . S
O220 Co210 2.021 . S
O220 C217 1.238 . S
O221 Co215 2.052 . S
O221 C217 1.241 . S
O222 Co210 2.137 . S
O222 C213 1.247 . S
O223 Co210 2.244 . S
O223 C213 1.272 . S
O223 Co215 2.135 . S
Co224 O225 2.216 . S
Co224 O226 2.091 . S
Co224 O228 2.004 . S
Co224 O234 2.021 . S
Co224 O236 2.137 . S
Co224 O237 2.244 . S
O225 Co224 2.216 . S
O225 C232 1.247 . S
O226 Co224 2.091 . S
O226 C232 1.261 . S
C227 O236 1.247 . S
C227 O237 1.272 . S
O228 Co224 2.004 . S
O228 C233 1.259 . S
Co229 O230 2.061 . S
Co229 O235 2.052 . S
Co229 O237 2.135 . S
O230 Co229 2.061 . S
O230 C233 1.235 . S
C231 O234 1.238 . S
C231 O235 1.241 . S
C232 O225 1.247 . S
C232 O226 1.261 . S
C233 O228 1.259 . S
C233 O230 1.235 . S
O234 Co224 2.021 . S
O234 C231 1.238 . S
O235 Co229 2.052 . S
O235 C231 1.241 . S
O236 Co224 2.137 . S
O236 C227 1.247 . S
O237 Co224 2.244 . S
O237 C227 1.272 . S
O237 Co229 2.135 . S
Co238 O239 2.216 . S
Co238 O240 2.091 . S
Co238 O242 2.004 . S
Co238 O248 2.021 . S
Co238 O250 2.137 . S
Co238 O251 2.244 . S
O239 Co238 2.216 . S
O239 C246 1.247 . S
O240 Co238 2.091 . S
O240 C246 1.261 . S
C241 O250 1.247 . S
C241 O251 1.272 . S
O242 Co238 2.004 . S
O242 C247 1.259 . S
Co243 O244 2.061 . S
Co243 O249 2.052 . S
Co243 O251 2.135 . S
O244 Co243 2.061 . S
O244 C247 1.235 . S
C245 O248 1.238 . S
C245 O249 1.241 . S
C246 O239 1.247 . S
C246 O240 1.261 . S
C247 O242 1.259 . S
C247 O244 1.235 . S
O248 Co238 2.021 . S
O248 C245 1.238 . S
O249 Co243 2.052 . S
O249 C245 1.241 . S
O250 Co238 2.137 . S
O250 C241 1.247 . S
O251 Co238 2.244 . S
O251 C241 1.272 . S
O251 Co243 2.135 . S
Co252 O253 2.216 . S
Co252 O254 2.091 . S
Co252 O256 2.004 . S
Co252 O262 2.021 . S
Co252 O264 2.137 . S
Co252 O265 2.244 . S
O253 Co252 2.216 . S
O253 C260 1.247 . S
O254 Co252 2.091 . S
O254 C260 1.261 . S
C255 O264 1.247 . S
C255 O265 1.272 . S
O256 Co252 2.004 . S
O256 C261 1.259 . S
Co257 O258 2.061 . S
Co257 O263 2.052 . S
Co257 O265 2.135 . S
O258 Co257 2.061 . S
O258 C261 1.235 . S
C259 O262 1.238 . S
C259 O263 1.241 . S
C260 O253 1.247 . S
C260 O254 1.261 . S
C261 O256 1.259 . S
C261 O258 1.235 . S
O262 Co252 2.021 . S
O262 C259 1.238 . S
O263 Co257 2.052 . S
O263 C259 1.241 . S
O264 Co252 2.137 . S
O264 C255 1.247 . S
O265 Co252 2.244 . S
O265 C255 1.272 . S
O265 Co257 2.135 . S
Co266 O267 2.216 . S
Co266 O268 2.091 . S
Co266 O270 2.004 . S
Co266 O276 2.021 . S
Co266 O278 2.137 . S
Co266 O279 2.244 . S
O267 Co266 2.216 . S
O267 C274 1.247 . S
O268 Co266 2.091 . S
O268 C274 1.261 . S
C269 O278 1.247 . S
C269 O279 1.272 . S
O270 Co266 2.004 . S
O270 C275 1.259 . S
Co271 O272 2.061 . S
Co271 O277 2.052 . S
Co271 O279 2.135 . S
O272 Co271 2.061 . S
O272 C275 1.235 . S
C273 O276 1.238 . S
C273 O277 1.241 . S
C274 O267 1.247 . S
C274 O268 1.261 . S
C275 O270 1.259 . S
C275 O272 1.235 . S
O276 Co266 2.021 . S
O276 C273 1.238 . S
O277 Co271 2.052 . S
O277 C273 1.241 . S
O278 Co266 2.137 . S
O278 C269 1.247 . S
O279 Co266 2.244 . S
O279 C269 1.272 . S
O279 Co271 2.135 . S
Co280 O281 2.216 . S
Co280 O282 2.091 . S
Co280 O284 2.004 . S
Co280 O290 2.021 . S
Co280 O292 2.137 . S
Co280 O293 2.244 . S
O281 Co280 2.216 . S
O281 C288 1.247 . S
O282 Co280 2.091 . S
O282 C288 1.261 . S
C283 O292 1.247 . S
C283 O293 1.272 . S
O284 Co280 2.004 . S
O284 C289 1.259 . S
Co285 O286 2.061 . S
Co285 O291 2.052 . S
Co285 O293 2.135 . S
O286 Co285 2.061 . S
O286 C289 1.235 . S
C287 O290 1.238 . S
C287 O291 1.241 . S
C288 O281 1.247 . S
C288 O282 1.261 . S
C289 O284 1.259 . S
C289 O286 1.235 . S
O290 Co280 2.021 . S
O290 C287 1.238 . S
O291 Co285 2.052 . S
O291 C287 1.241 . S
O292 Co280 2.137 . S
O292 C283 1.247 . S
O293 Co280 2.244 . S
O293 C283 1.272 . S
O293 Co285 2.135 . S
Co294 O295 2.216 . S
Co294 O296 2.091 . S
Co294 O298 2.004 . S
Co294 O304 2.021 . S
Co294 O306 2.137 . S
Co294 O307 2.244 . S
O295 Co294 2.216 . S
O295 C302 1.247 . S
O296 Co294 2.091 . S
O296 C302 1.261 . S
C297 O306 1.247 . S
C297 O307 1.272 . S
O298 Co294 2.004 . S
O298 C303 1.259 . S
Co299 O300 2.061 . S
Co299 O305 2.052 . S
Co299 O307 2.135 . S
O300 Co299 2.061 . S
O300 C303 1.235 . S
C301 O304 1.238 . S
C301 O305 1.241 . S
C302 O295 1.247 . S
C302 O296 1.261 . S
C303 O298 1.259 . S
C303 O300 1.235 . S
O304 Co294 2.021 . S
O304 C301 1.238 . S
O305 Co299 2.052 . S
O305 C301 1.241 . S
O306 Co294 2.137 . S
O306 C297 1.247 . S
O307 Co294 2.244 . S
O307 C297 1.272 . S
O307 Co299 2.135 . S
Co308 O309 2.216 . S
Co308 O310 2.091 . S
Co308 O312 2.004 . S
Co308 O318 2.021 . S
Co308 O320 2.137 . S
Co308 O321 2.244 . S
O309 Co308 2.216 . S
O309 C316 1.247 . S
O310 Co308 2.091 . S
O310 C316 1.261 . S
C311 O320 1.247 . S
C311 O321 1.272 . S
O312 Co308 2.004 . S
O312 C317 1.259 . S
Co313 O314 2.061 . S
Co313 O319 2.052 . S
Co313 O321 2.135 . S
O314 Co313 2.061 . S
O314 C317 1.235 . S
C315 O318 1.238 . S
C315 O319 1.241 . S
C316 O309 1.247 . S
C316 O310 1.261 . S
C317 O312 1.259 . S
C317 O314 1.235 . S
O318 Co308 2.021 . S
O318 C315 1.238 . S
O319 Co313 2.052 . S
O319 C315 1.241 . S
O320 Co308 2.137 . S
O320 C311 1.247 . S
O321 Co308 2.244 . S
O321 C311 1.272 . S
O321 Co313 2.135 . S
Co322 O323 2.216 . S
Co322 O324 2.091 . S
Co322 O326 2.004 . S
Co322 O332 2.021 . S
Co322 O334 2.137 . S
Co322 O335 2.244 . S
O323 Co322 2.216 . S
O323 C330 1.247 . S
O324 Co322 2.091 . S
O324 C330 1.261 . S
C325 O334 1.247 . S
C325 O335 1.272 . S
O326 Co322 2.004 . S
O326 C331 1.259 . S
Co327 O328 2.061 . S
Co327 O333 2.052 . S
Co327 O335 2.135 . S
O328 Co327 2.061 . S
O328 C331 1.235 . S
C329 O332 1.238 . S
C329 O333 1.241 . S
C330 O323 1.247 . S
C330 O324 1.261 . S
C331 O326 1.259 . S
C331 O328 1.235 . S
O332 Co322 2.021 . S
O332 C329 1.238 . S
O333 Co327 2.052 . S
O333 C329 1.241 . S
O334 Co322 2.137 . S
O334 C325 1.247 . S
O335 Co322 2.244 . S
O335 C325 1.272 . S
O335 Co327 2.135 . S
Co336 O337 2.216 . S
Co336 O338 2.091 . S
Co336 O340 2.004 . S
Co336 O346 2.021 . S
Co336 O348 2.137 . S
Co336 O349 2.244 . S
O337 Co336 2.216 . S
O337 C344 1.247 . S
O338 Co336 2.091 . S
O338 C344 1.261 . S
C339 O348 1.247 . S
C339 O349 1.272 . S
O340 Co336 2.004 . S
O340 C345 1.259 . S
Co341 O342 2.061 . S
Co341 O347 2.052 . S
Co341 O349 2.135 . S
O342 Co341 2.061 . S
O342 C345 1.235 . S
C343 O346 1.238 . S
C343 O347 1.241 . S
C344 O337 1.247 . S
C344 O338 1.261 . S
C345 O340 1.259 . S
C345 O342 1.235 . S
O346 Co336 2.021 . S
O346 C343 1.238 . S
O347 Co341 2.052 . S
O347 C343 1.241 . S
O348 Co336 2.137 . S
O348 C339 1.247 . S
O349 Co336 2.244 . S
O349 C339 1.272 . S
O349 Co341 2.135 . S
Co350 O351 2.216 . S
Co350 O352 2.091 . S
Co350 O354 2.004 . S
Co350 O360 2.021 . S
Co350 O362 2.137 . S
Co350 O363 2.244 . S
O351 Co350 2.216 . S
O351 C358 1.247 . S
O352 Co350 2.091 . S
O352 C358 1.261 . S
C353 O362 1.247 . S
C353 O363 1.272 . S
O354 Co350 2.004 . S
O354 C359 1.259 . S
Co355 O356 2.061 . S
Co355 O361 2.052 . S
Co355 O363 2.135 . S
O356 Co355 2.061 . S
O356 C359 1.235 . S
C357 O360 1.238 . S
C357 O361 1.241 . S
C358 O351 1.247 . S
C358 O352 1.261 . S
C359 O354 1.259 . S
C359 O356 1.235 . S
O360 Co350 2.021 . S
O360 C357 1.238 . S
O361 Co355 2.052 . S
O361 C357 1.241 . S
O362 Co350 2.137 . S
O362 C353 1.247 . S
O363 Co350 2.244 . S
O363 C353 1.272 . S
O363 Co355 2.135 . S
Co364 O365 2.216 . S
Co364 O366 2.091 . S
Co364 O368 2.004 . S
Co364 O374 2.021 . S
Co364 O376 2.137 . S
Co364 O377 2.244 . S
O365 Co364 2.216 . S
O365 C372 1.247 . S
O366 Co364 2.091 . S
O366 C372 1.261 . S
C367 O376 1.247 . S
C367 O377 1.272 . S
O368 Co364 2.004 . S
O368 C373 1.259 . S
Co369 O370 2.061 . S
Co369 O375 2.052 . S
Co369 O377 2.135 . S
O370 Co369 2.061 . S
O370 C373 1.235 . S
C371 O374 1.238 . S
C371 O375 1.241 . S
C372 O365 1.247 . S
C372 O366 1.261 . S
C373 O368 1.259 . S
C373 O370 1.235 . S
O374 Co364 2.021 . S
O374 C371 1.238 . S
O375 Co369 2.052 . S
O375 C371 1.241 . S
O376 Co364 2.137 . S
O376 C367 1.247 . S
O377 Co364 2.244 . S
O377 C367 1.272 . S
O377 Co369 2.135 . S
Co378 O379 2.216 . S
Co378 O380 2.091 . S
Co378 O382 2.004 . S
Co378 O388 2.021 . S
Co378 O390 2.137 . S
Co378 O391 2.244 . S
O379 Co378 2.216 . S
O379 C386 1.247 . S
O380 Co378 2.091 . S
O380 C386 1.261 . S
C381 O390 1.247 . S
C381 O391 1.272 . S
O382 Co378 2.004 . S
O382 C387 1.259 . S
Co383 O384 2.061 . S
Co383 O389 2.052 . S
Co383 O391 2.135 . S
O384 Co383 2.061 . S
O384 C387 1.235 . S
C385 O388 1.238 . S
C385 O389 1.241 . S
C386 O379 1.247 . S
C386 O380 1.261 . S
C387 O382 1.259 . S
C387 O384 1.235 . S
O388 Co378 2.021 . S
O388 C385 1.238 . S
O389 Co383 2.052 . S
O389 C385 1.241 . S
O390 Co378 2.137 . S
O390 C381 1.247 . S
O391 Co378 2.244 . S
O391 C381 1.272 . S
O391 Co383 2.135 . S
Co392 O393 2.216 . S
Co392 O394 2.091 . S
Co392 O396 2.004 . S
Co392 O402 2.021 . S
Co392 O404 2.137 . S
Co392 O405 2.244 . S
O393 Co392 2.216 . S
O393 C400 1.247 . S
O394 Co392 2.091 . S
O394 C400 1.261 . S
C395 O404 1.247 . S
C395 O405 1.272 . S
O396 Co392 2.004 . S
O396 C401 1.259 . S
Co397 O398 2.061 . S
Co397 O403 2.052 . S
Co397 O405 2.135 . S
O398 Co397 2.061 . S
O398 C401 1.235 . S
C399 O402 1.238 . S
C399 O403 1.241 . S
C400 O393 1.247 . S
C400 O394 1.261 . S
C401 O396 1.259 . S
C401 O398 1.235 . S
O402 Co392 2.021 . S
O402 C399 1.238 . S
O403 Co397 2.052 . S
O403 C399 1.241 . S
O404 Co392 2.137 . S
O404 C395 1.247 . S
O405 Co392 2.244 . S
O405 C395 1.272 . S
O405 Co397 2.135 . S
Co406 O407 2.216 . S
Co406 O408 2.091 . S
Co406 O410 2.004 . S
Co406 O416 2.021 . S
Co406 O418 2.137 . S
Co406 O419 2.244 . S
O407 Co406 2.216 . S
O407 C414 1.247 . S
O408 Co406 2.091 . S
O408 C414 1.261 . S
C409 O418 1.247 . S
C409 O419 1.272 . S
O410 Co406 2.004 . S
O410 C415 1.259 . S
Co411 O412 2.061 . S
Co411 O417 2.052 . S
Co411 O419 2.135 . S
O412 Co411 2.061 . S
O412 C415 1.235 . S
C413 O416 1.238 . S
C413 O417 1.241 . S
C414 O407 1.247 . S
C414 O408 1.261 . S
C415 O410 1.259 . S
C415 O412 1.235 . S
O416 Co406 2.021 . S
O416 C413 1.238 . S
O417 Co411 2.052 . S
O417 C413 1.241 . S
O418 Co406 2.137 . S
O418 C409 1.247 . S
O419 Co406 2.244 . S
O419 C409 1.272 . S
O419 Co411 2.135 . S
Co420 O421 2.216 . S
Co420 O422 2.091 . S
Co420 O424 2.004 . S
Co420 O430 2.021 . S
Co420 O432 2.137 . S
Co420 O433 2.244 . S
O421 Co420 2.216 . S
O421 C428 1.247 . S
O422 Co420 2.091 . S
O422 C428 1.261 . S
C423 O432 1.247 . S
C423 O433 1.272 . S
O424 Co420 2.004 . S
O424 C429 1.259 . S
Co425 O426 2.061 . S
Co425 O431 2.052 . S
Co425 O433 2.135 . S
O426 Co425 2.061 . S
O426 C429 1.235 . S
C427 O430 1.238 . S
C427 O431 1.241 . S
C428 O421 1.247 . S
C428 O422 1.261 . S
C429 O424 1.259 . S
C429 O426 1.235 . S
O430 Co420 2.021 . S
O430 C427 1.238 . S
O431 Co425 2.052 . S
O431 C427 1.241 . S
O432 Co420 2.137 . S
O432 C423 1.247 . S
O433 Co420 2.244 . S
O433 C423 1.272 . S
O433 Co425 2.135 . S
Co434 O435 2.216 . S
Co434 O436 2.091 . S
Co434 O438 2.004 . S
Co434 O444 2.021 . S
Co434 O446 2.137 . S
Co434 O447 2.244 . S
O435 Co434 2.216 . S
O435 C442 1.247 . S
O436 Co434 2.091 . S
O436 C442 1.261 . S
C437 O446 1.247 . S
C437 O447 1.272 . S
O438 Co434 2.004 . S
O438 C443 1.259 . S
Co439 O440 2.061 . S
Co439 O445 2.052 . S
Co439 O447 2.135 . S
O440 Co439 2.061 . S
O440 C443 1.235 . S
C441 O444 1.238 . S
C441 O445 1.241 . S
C442 O435 1.247 . S
C442 O436 1.261 . S
C443 O438 1.259 . S
C443 O440 1.235 . S
O444 Co434 2.021 . S
O444 C441 1.238 . S
O445 Co439 2.052 . S
O445 C441 1.241 . S
O446 Co434 2.137 . S
O446 C437 1.247 . S
O447 Co434 2.244 . S
O447 C437 1.272 . S
O447 Co439 2.135 . S
C448 C449 1.391 . S
C448 C450 1.394 . S
C448 H464 0.931 . S
C449 C448 1.391 . S
C449 C453 1.376 . S
C450 C448 1.394 . S
C450 C451 1.369 . S
C450 C454 1.531 . S
C451 C450 1.369 . S
C451 C452 1.410 . S
C451 C459 1.503 . S
C452 C451 1.410 . S
C452 C453 1.392 . S
C452 C455 1.511 . S
C453 C449 1.376 . S
C453 C452 1.392 . S
C453 H465 0.929 . S
C454 C450 1.531 . S
C454 H466 0.960 . S
C454 H467 0.962 . S
C454 H468 0.960 . S
C455 C452 1.511 . S
C455 H469 0.961 . S
C455 H470 0.961 . S
C455 H471 0.961 . S
C456 C457 1.370 . S
C456 C458 1.363 . S
C456 H472 0.931 . S
C457 C456 1.370 . S
C457 C461 1.408 . S
C458 C456 1.363 . S
C458 C459 1.370 . S
C458 C462 1.524 . S
C459 C451 1.503 . S
C459 C458 1.370 . S
C459 C460 1.403 . S
C460 C459 1.403 . S
C460 C461 1.404 . S
C460 C463 1.539 . S
C461 C457 1.408 . S
C461 C460 1.404 . S
C461 H473 0.930 . S
C462 C458 1.524 . S
C462 H474 0.956 . S
C462 H475 0.961 . S
C462 H476 0.961 . S
C463 C460 1.539 . S
C463 H477 0.958 . S
C463 H478 0.961 . S
C463 H479 0.960 . S
H464 C448 0.931 . S
H465 C453 0.929 . S
H466 C454 0.960 . S
H467 C454 0.962 . S
H468 C454 0.960 . S
H469 C455 0.961 . S
H470 C455 0.961 . S
H471 C455 0.961 . S
H472 C456 0.931 . S
H473 C461 0.930 . S
H474 C462 0.956 . S
H475 C462 0.961 . S
H476 C462 0.961 . S
H477 C463 0.958 . S
H478 C463 0.961 . S
H479 C463 0.960 . S
C480 C481 1.391 . S
C480 C482 1.394 . S
C480 H496 0.931 . S
C481 C480 1.391 . S
C481 C485 1.376 . S
C482 C480 1.394 . S
C482 C483 1.369 . S
C482 C486 1.531 . S
C483 C482 1.369 . S
C483 C484 1.410 . S
C483 C491 1.503 1_565 S
C484 C483 1.410 . S
C484 C485 1.392 . S
C484 C487 1.511 . S
C485 C481 1.376 . S
C485 C484 1.392 . S
C485 H497 0.929 . S
C486 C482 1.531 . S
C486 H498 0.960 . S
C486 H499 0.962 . S
C486 H500 0.960 . S
C487 C484 1.511 . S
C487 H501 0.961 . S
C487 H502 0.961 1_565 S
C487 H503 0.961 . S
C488 C489 1.370 . S
C488 C490 1.363 . S
C488 H504 0.931 . S
C489 C488 1.370 . S
C489 C493 1.408 . S
C490 C488 1.363 . S
C490 C491 1.370 . S
C490 C494 1.524 . S
C491 C483 1.503 1_545 S
C491 C490 1.370 . S
C491 C492 1.403 . S
C492 C491 1.403 . S
C492 C493 1.404 . S
C492 C495 1.539 1_545 S
C493 C489 1.408 . S
C493 C492 1.404 . S
C493 H505 0.930 . S
C494 C490 1.524 . S
C494 H506 0.956 . S
C494 H507 0.961 . S
C494 H508 0.961 . S
C495 C492 1.539 1_565 S
C495 H509 0.958 . S
C495 H510 0.961 1_565 S
C495 H511 0.960 . S
H496 C480 0.931 . S
H497 C485 0.929 . S
H498 C486 0.960 . S
H499 C486 0.962 . S
H500 C486 0.960 . S
H501 C487 0.961 . S
H502 C487 0.961 1_545 S
H503 C487 0.961 . S
H504 C488 0.931 . S
H505 C493 0.930 . S
H506 C494 0.956 . S
H507 C494 0.961 . S
H508 C494 0.961 . S
H509 C495 0.958 . S
H510 C495 0.961 1_545 S
H511 C495 0.960 . S
C512 C513 1.391 . S
C512 C514 1.394 . S
C512 H528 0.931 . S
C513 C512 1.391 . S
C513 C517 1.376 . S
C514 C512 1.394 . S
C514 C515 1.369 . S
C514 C518 1.531 . S
C515 C514 1.369 . S
C515 C516 1.410 . S
C515 C523 1.503 . S
C516 C515 1.410 . S
C516 C517 1.392 . S
C516 C519 1.511 . S
C517 C513 1.376 . S
C517 C516 1.392 . S
C517 H529 0.929 . S
C518 C514 1.531 . S
C518 H530 0.960 . S
C518 H531 0.962 . S
C518 H532 0.960 . S
C519 C516 1.511 . S
C519 H533 0.961 . S
C519 H534 0.961 . S
C519 H535 0.961 . S
C520 C521 1.370 . S
C520 C522 1.363 . S
C520 H536 0.931 . S
C521 C520 1.370 . S
C521 C525 1.408 . S
C522 C520 1.363 . S
C522 C523 1.370 . S
C522 C526 1.524 . S
C523 C515 1.503 . S
C523 C522 1.370 . S
C523 C524 1.403 . S
C524 C523 1.403 . S
C524 C525 1.404 . S
C524 C527 1.539 . S
C525 C521 1.408 . S
C525 C524 1.404 . S
C525 H537 0.930 . S
C526 C522 1.524 . S
C526 H538 0.956 . S
C526 H539 0.961 . S
C526 H540 0.961 . S
C527 C524 1.539 . S
C527 H541 0.958 . S
C527 H542 0.961 . S
C527 H543 0.960 . S
H528 C512 0.931 . S
H529 C517 0.929 . S
H530 C518 0.960 . S
H531 C518 0.962 . S
H532 C518 0.960 . S
H533 C519 0.961 . S
H534 C519 0.961 . S
H535 C519 0.961 . S
H536 C520 0.931 . S
H537 C525 0.930 . S
H538 C526 0.956 . S
H539 C526 0.961 . S
H540 C526 0.961 . S
H541 C527 0.958 . S
H542 C527 0.961 . S
H543 C527 0.960 . S
C544 C545 1.391 . S
C544 C546 1.394 . S
C544 H560 0.931 . S
C545 C544 1.391 . S
C545 C549 1.376 . S
C546 C544 1.394 . S
C546 C547 1.369 . S
C546 C550 1.531 1_545 S
C547 C546 1.369 . S
C547 C548 1.410 1_556 S
C547 C555 1.503 1_546 S
C548 C547 1.410 1_554 S
C548 C549 1.392 1_554 S
C548 C551 1.511 . S
C549 C545 1.376 . S
C549 C548 1.392 1_556 S
C549 H561 0.929 1_556 S
C550 C546 1.531 1_565 S
C550 H562 0.960 . S
C550 H563 0.962 . S
C550 H564 0.949 1_565 S
C551 C548 1.511 . S
C551 H565 0.961 . S
C551 H566 0.961 . S
C551 H567 0.961 . S
C552 C553 1.370 . S
C552 C554 1.363 . S
C552 H568 0.931 . S
C553 C552 1.370 . S
C553 C557 1.408 . S
C554 C552 1.363 . S
C554 C555 1.370 . S
C554 C558 1.544 . S
C555 C547 1.503 1_564 S
C555 C554 1.370 . S
C555 C556 1.403 1_554 S
C556 C555 1.403 1_556 S
C556 C557 1.404 1_556 S
C556 C559 1.539 . S
C557 C553 1.408 . S
C557 C556 1.404 1_554 S
C557 H569 0.930 . S
C558 C554 1.544 . S
C558 H570 0.950 1_565 S
C558 H571 0.937 1_565 S
C558 H572 0.972 . S
C559 C556 1.539 . S
C559 H573 0.958 . S
C559 H574 0.961 . S
C559 H575 0.960 . S
H560 C544 0.931 . S
H561 C549 0.929 1_554 S
H562 C550 0.960 . S
H563 C550 0.962 . S
H564 C550 0.949 1_545 S
H565 C551 0.961 . S
H566 C551 0.961 . S
H567 C551 0.961 . S
H568 C552 0.931 . S
H569 C557 0.930 . S
H570 C558 0.950 1_545 S
H571 C558 0.937 1_545 S
H572 C558 0.972 . S
H573 C559 0.958 . S
H574 C559 0.961 . S
H575 C559 0.960 . S
C576 C577 1.391 . S
C576 C578 1.394 . S
C576 H592 0.931 . S
C577 C576 1.391 . S
C577 C581 1.376 . S
C578 C576 1.394 . S
C578 C579 1.369 . S
C578 C582 1.531 . S
C579 C578 1.369 . S
C579 C580 1.410 . S
C579 C587 1.503 . S
C580 C579 1.410 . S
C580 C581 1.392 . S
C580 C583 1.511 . S
C581 C577 1.376 . S
C581 C580 1.392 . S
C581 H593 0.929 . S
C582 C578 1.531 . S
C582 H594 0.960 . S
C582 H595 0.962 . S
C582 H596 0.960 . S
C583 C580 1.511 . S
C583 H597 0.961 . S
C583 H598 0.961 . S
C583 H599 0.961 . S
C584 C585 1.370 . S
C584 C586 1.363 . S
C584 H600 0.931 . S
C585 C584 1.370 . S
C585 C589 1.408 . S
C586 C584 1.363 . S
C586 C587 1.370 . S
C586 C590 1.524 . S
C587 C579 1.503 . S
C587 C586 1.370 . S
C587 C588 1.403 . S
C588 C587 1.403 . S
C588 C589 1.404 . S
C588 C591 1.539 . S
C589 C585 1.408 . S
C589 C588 1.404 . S
C589 H601 0.930 . S
C590 C586 1.524 . S
C590 H602 0.956 . S
C590 H603 0.961 . S
C590 H604 0.961 . S
C591 C588 1.539 . S
C591 H605 0.958 . S
C591 H606 0.961 . S
C591 H607 0.960 . S
H592 C576 0.931 . S
H593 C581 0.929 . S
H594 C582 0.960 . S
H595 C582 0.962 . S
H596 C582 0.960 . S
H597 C583 0.961 . S
H598 C583 0.961 . S
H599 C583 0.961 . S
H600 C584 0.931 . S
H601 C589 0.930 . S
H602 C590 0.956 . S
H603 C590 0.961 . S
H604 C590 0.961 . S
H605 C591 0.958 . S
H606 C591 0.961 . S
H607 C591 0.960 . S
C608 C609 1.391 . S
C608 C610 1.394 . S
C608 H624 0.931 . S
C609 C608 1.391 . S
C609 C613 1.376 . S
C610 C608 1.394 . S
C610 C611 1.369 . S
C610 C614 1.531 . S
C611 C610 1.369 . S
C611 C612 1.410 . S
C611 C619 1.503 1_565 S
C612 C611 1.410 . S
C612 C613 1.392 . S
C612 C615 1.511 1_565 S
C613 C609 1.376 . S
C613 C612 1.392 . S
C613 H625 0.929 . S
C614 C610 1.531 . S
C614 H626 0.960 . S
C614 H627 0.962 . S
C614 H628 0.960 . S
C615 C612 1.511 1_545 S
C615 H629 0.960 1_545 S
C615 H630 0.962 . S
C615 H631 0.961 . S
C616 C617 1.370 . S
C616 C618 1.363 . S
C616 H632 0.931 . S
C617 C616 1.370 . S
C617 C621 1.408 . S
C618 C616 1.363 . S
C618 C619 1.370 . S
C618 C622 1.524 . S
C619 C611 1.503 1_545 S
C619 C618 1.370 . S
C619 C620 1.403 . S
C620 C619 1.403 . S
C620 C621 1.404 . S
C620 C623 1.539 . S
C621 C617 1.408 . S
C621 C620 1.404 . S
C621 H633 0.930 . S
C622 C618 1.524 . S
C622 H634 0.956 . S
C622 H635 0.961 . S
C622 H636 0.961 . S
C623 C620 1.539 . S
C623 H637 0.958 1_545 S
C623 H638 0.961 . S
C623 H639 0.960 1_545 S
H624 C608 0.931 . S
H625 C613 0.929 . S
H626 C614 0.960 . S
H627 C614 0.962 . S
H628 C614 0.960 . S
H629 C615 0.960 1_565 S
H630 C615 0.962 . S
H631 C615 0.961 . S
H632 C616 0.931 . S
H633 C621 0.930 . S
H634 C622 0.956 . S
H635 C622 0.961 . S
H636 C622 0.961 . S
H637 C623 0.958 1_565 S
H638 C623 0.961 . S
H639 C623 0.960 1_565 S
C640 C641 1.391 . S
C640 C642 1.394 . S
C640 H656 0.931 . S
C641 C640 1.391 . S
C641 C645 1.376 . S
C642 C640 1.394 . S
C642 C643 1.369 . S
C642 C646 1.531 . S
C643 C642 1.369 . S
C643 C644 1.410 . S
C643 C651 1.503 . S
C644 C643 1.410 . S
C644 C645 1.392 . S
C644 C647 1.511 . S
C645 C641 1.376 . S
C645 C644 1.392 . S
C645 H657 0.929 . S
C646 C642 1.531 . S
C646 H658 0.960 . S
C646 H659 0.962 . S
C646 H660 0.960 . S
C647 C644 1.511 . S
C647 H661 0.961 . S
C647 H662 0.961 . S
C647 H663 0.961 . S
C648 C649 1.370 . S
C648 C650 1.363 . S
C648 H664 0.931 . S
C649 C648 1.370 . S
C649 C653 1.408 . S
C650 C648 1.363 . S
C650 C651 1.370 . S
C650 C654 1.524 . S
C651 C643 1.503 . S
C651 C650 1.370 . S
C651 C652 1.403 . S
C652 C651 1.403 . S
C652 C653 1.404 . S
C652 C655 1.539 . S
C653 C649 1.408 . S
C653 C652 1.404 . S
C653 H665 0.930 . S
C654 C650 1.524 . S
C654 H666 0.956 . S
C654 H667 0.961 . S
C654 H668 0.961 . S
C655 C652 1.539 . S
C655 H669 0.958 . S
C655 H670 0.961 . S
C655 H671 0.960 . S
H656 C640 0.931 . S
H657 C645 0.929 . S
H658 C646 0.960 . S
H659 C646 0.962 . S
H660 C646 0.960 . S
H661 C647 0.961 . S
H662 C647 0.961 . S
H663 C647 0.961 . S
H664 C648 0.931 . S
H665 C653 0.930 . S
H666 C654 0.956 . S
H667 C654 0.961 . S
H668 C654 0.961 . S
H669 C655 0.958 . S
H670 C655 0.961 . S
H671 C655 0.960 . S
C672 C673 1.391 . S
C672 C674 1.394 . S
C672 H688 0.931 . S
C673 C672 1.391 . S
C673 C677 1.376 1_556 S
C674 C672 1.394 . S
C674 C675 1.369 . S
C674 C678 1.531 1_545 S
C675 C674 1.369 . S
C675 C676 1.410 1_556 S
C675 C683 1.503 1_546 S
C676 C675 1.410 1_554 S
C676 C677 1.392 . S
C676 C679 1.511 . S
C677 C673 1.376 1_554 S
C677 C676 1.392 . S
C677 H689 0.929 . S
C678 C674 1.531 1_565 S
C678 H690 0.960 . S
C678 H691 0.962 . S
C678 H692 0.951 1_565 S
C679 C676 1.511 . S
C679 H693 0.961 . S
C679 H694 0.961 . S
C679 H695 0.961 . S
C680 C681 1.370 . S
C680 C682 1.363 . S
C680 H696 0.931 . S
C681 C680 1.370 . S
C681 C685 1.408 . S
C682 C680 1.363 . S
C682 C683 1.370 . S
C682 C686 1.524 . S
C683 C675 1.503 1_564 S
C683 C682 1.370 . S
C683 C684 1.403 . S
C684 C683 1.403 . S
C684 C685 1.404 . S
C684 C687 1.539 . S
C685 C681 1.408 . S
C685 C684 1.404 . S
C685 H697 0.930 . S
C686 C682 1.524 . S
C686 H698 0.956 1_554 S
C686 H699 0.961 1_565 S
C686 H700 0.961 . S
C687 C684 1.539 . S
C687 H701 0.958 1_554 S
C687 H702 0.961 . S
C687 H703 0.960 1_565 S
H688 C672 0.931 . S
H689 C677 0.929 . S
H690 C678 0.960 . S
H691 C678 0.962 . S
H692 C678 0.951 1_545 S
H693 C679 0.961 . S
H694 C679 0.961 . S
H695 C679 0.961 . S
H696 C680 0.931 . S
H697 C685 0.930 . S
H698 C686 0.956 1_556 S
H699 C686 0.961 1_545 S
H700 C686 0.961 . S
H701 C687 0.958 1_556 S
H702 C687 0.961 . S
H703 C687 0.960 1_545 S
C704 C705 1.391 . S
C704 C706 1.394 . S
C704 H720 0.931 . S
C705 C704 1.391 . S
C705 C709 1.376 . S
C706 C704 1.394 . S
C706 C707 1.369 . S
C706 C710 1.531 . S
C707 C706 1.369 . S
C707 C708 1.410 . S
C707 C715 1.503 . S
C708 C707 1.410 . S
C708 C709 1.392 . S
C708 C711 1.511 . S
C709 C705 1.376 . S
C709 C708 1.392 . S
C709 H721 0.929 . S
C710 C706 1.531 . S
C710 H722 0.960 . S
C710 H723 0.962 . S
C710 H724 0.960 . S
C711 C708 1.511 . S
C711 H725 0.961 . S
C711 H726 0.961 . S
C711 H727 0.961 . S
C712 C713 1.370 . S
C712 C714 1.363 . S
C712 H728 0.931 . S
C713 C712 1.370 . S
C713 C717 1.408 . S
C714 C712 1.363 . S
C714 C715 1.370 . S
C714 C718 1.524 . S
C715 C707 1.503 . S
C715 C714 1.370 . S
C715 C716 1.403 . S
C716 C715 1.403 . S
C716 C717 1.404 . S
C716 C719 1.539 . S
C717 C713 1.408 . S
C717 C716 1.404 . S
C717 H729 0.930 . S
C718 C714 1.524 . S
C718 H730 0.956 . S
C718 H731 0.961 . S
C718 H732 0.961 . S
C719 C716 1.539 . S
C719 H733 0.958 . S
C719 H734 0.961 . S
C719 H735 0.960 . S
H720 C704 0.931 . S
H721 C709 0.929 . S
H722 C710 0.960 . S
H723 C710 0.962 . S
H724 C710 0.960 . S
H725 C711 0.961 . S
H726 C711 0.961 . S
H727 C711 0.961 . S
H728 C712 0.931 . S
H729 C717 0.930 . S
H730 C718 0.956 . S
H731 C718 0.961 . S
H732 C718 0.961 . S
H733 C719 0.958 . S
H734 C719 0.961 . S
H735 C719 0.960 . S
C736 C737 1.391 . S
C736 C738 1.394 1_556 S
C736 H752 0.931 1_556 S
C737 C736 1.391 . S
C737 C741 1.376 . S
C738 C736 1.394 1_554 S
C738 C739 1.369 1_554 S
C738 C742 1.531 . S
C739 C738 1.369 1_556 S
C739 C740 1.410 . S
C739 C747 1.503 1_556 S
C740 C739 1.410 . S
C740 C741 1.392 . S
C740 C743 1.511 . S
C741 C737 1.376 . S
C741 C740 1.392 . S
C741 H753 0.929 . S
C742 C738 1.531 . S
C742 H754 0.960 . S
C742 H755 0.962 . S
C742 H756 0.960 . S
C743 C740 1.511 . S
C743 H757 0.961 . S
C743 H758 0.961 . S
C743 H759 0.961 . S
C744 C745 1.370 . S
C744 C746 1.363 1_554 S
C744 H760 0.931 1_554 S
C745 C744 1.370 . S
C745 C749 1.408 . S
C746 C744 1.363 1_556 S
C746 C747 1.370 1_556 S
C746 C750 1.524 . S
C747 C739 1.503 1_554 S
C747 C746 1.370 1_554 S
C747 C748 1.403 . S
C748 C747 1.403 . S
C748 C749 1.404 . S
C748 C751 1.539 . S
C749 C745 1.408 . S
C749 C748 1.404 . S
C749 H761 0.930 . S
C750 C746 1.524 . S
C750 H762 0.956 . S
C750 H763 0.961 . S
C750 H764 0.961 . S
C751 C748 1.539 . S
C751 H765 0.958 . S
C751 H766 0.961 . S
C751 H767 0.960 . S
H752 C736 0.931 1_554 S
H753 C741 0.929 . S
H754 C742 0.960 . S
H755 C742 0.962 . S
H756 C742 0.960 . S
H757 C743 0.961 . S
H758 C743 0.961 . S
H759 C743 0.961 . S
H760 C744 0.931 1_556 S
H761 C749 0.930 . S
H762 C750 0.956 . S
H763 C750 0.961 . S
H764 C750 0.961 . S
H765 C751 0.958 . S
H766 C751 0.961 . S
H767 C751 0.960 . S
C768 C769 1.391 . S
C768 C770 1.394 . S
C768 H784 0.931 . S
C769 C768 1.391 . S
C769 C773 1.376 . S
C770 C768 1.394 . S
C770 C771 1.369 . S
C770 C774 1.531 . S
C771 C770 1.369 . S
C771 C772 1.410 . S
C771 C779 1.503 . S
C772 C771 1.410 . S
C772 C773 1.392 . S
C772 C775 1.511 . S
C773 C769 1.376 . S
C773 C772 1.392 . S
C773 H785 0.929 . S
C774 C770 1.531 . S
C774 H786 0.960 . S
C774 H787 0.962 . S
C774 H788 0.960 . S
C775 C772 1.511 . S
C775 H789 0.961 . S
C775 H790 0.961 . S
C775 H791 0.961 . S
C776 C777 1.370 . S
C776 C778 1.363 . S
C776 H792 0.931 . S
C777 C776 1.370 . S
C777 C781 1.408 . S
C778 C776 1.363 . S
C778 C779 1.370 . S
C778 C782 1.524 . S
C779 C771 1.503 . S
C779 C778 1.370 . S
C779 C780 1.403 . S
C780 C779 1.403 . S
C780 C781 1.404 . S
C780 C783 1.539 . S
C781 C777 1.408 . S
C781 C780 1.404 . S
C781 H793 0.930 . S
C782 C778 1.524 . S
C782 H794 0.956 . S
C782 H795 0.961 . S
C782 H796 0.961 . S
C783 C780 1.539 . S
C783 H797 0.958 . S
C783 H798 0.961 . S
C783 H799 0.960 . S
H784 C768 0.931 . S
H785 C773 0.929 . S
H786 C774 0.960 . S
H787 C774 0.962 . S
H788 C774 0.960 . S
H789 C775 0.961 . S
H790 C775 0.961 . S
H791 C775 0.961 . S
H792 C776 0.931 . S
H793 C781 0.930 . S
H794 C782 0.956 . S
H795 C782 0.961 . S
H796 C782 0.961 . S
H797 C783 0.958 . S
H798 C783 0.961 . S
H799 C783 0.960 . S
C800 C801 1.391 . S
C800 C802 1.394 . S
C800 H816 0.931 . S
C801 C800 1.391 . S
C801 C805 1.376 . S
C802 C800 1.394 . S
C802 C803 1.369 . S
C802 C806 1.531 . S
C803 C802 1.369 . S
C803 C804 1.410 . S
C803 C811 1.503 . S
C804 C803 1.410 . S
C804 C805 1.392 . S
C804 C807 1.511 . S
C805 C801 1.376 . S
C805 C804 1.392 . S
C805 H817 0.929 . S
C806 C802 1.531 . S
C806 H818 0.960 . S
C806 H819 0.962 . S
C806 H820 0.960 . S
C807 C804 1.511 . S
C807 H821 0.961 . S
C807 H822 0.961 . S
C807 H823 0.961 . S
C808 C809 1.370 . S
C808 C810 1.363 . S
C808 H824 0.931 . S
C809 C808 1.370 . S
C809 C813 1.408 . S
C810 C808 1.363 . S
C810 C811 1.370 . S
C810 C814 1.524 . S
C811 C803 1.503 . S
C811 C810 1.370 . S
C811 C812 1.403 . S
C812 C811 1.403 . S
C812 C813 1.404 . S
C812 C815 1.539 . S
C813 C809 1.408 . S
C813 C812 1.404 . S
C813 H825 0.930 . S
C814 C810 1.524 . S
C814 H826 0.956 . S
C814 H827 0.961 . S
C814 H828 0.961 . S
C815 C812 1.539 . S
C815 H829 0.958 . S
C815 H830 0.961 . S
C815 H831 0.960 . S
H816 C800 0.931 . S
H817 C805 0.929 . S
H818 C806 0.960 . S
H819 C806 0.962 . S
H820 C806 0.960 . S
H821 C807 0.961 . S
H822 C807 0.961 . S
H823 C807 0.961 . S
H824 C808 0.931 . S
H825 C813 0.930 . S
H826 C814 0.956 . S
H827 C814 0.961 . S
H828 C814 0.961 . S
H829 C815 0.958 . S
H830 C815 0.961 . S
H831 C815 0.960 . S
C832 C833 1.391 . S
C832 C834 1.394 . S
C832 H848 0.931 . S
C833 C832 1.391 . S
C833 C837 1.376 . S
C834 C832 1.394 . S
C834 C835 1.369 . S
C834 C838 1.531 . S
C835 C834 1.369 . S
C835 C836 1.410 . S
C835 C843 1.503 . S
C836 C835 1.410 . S
C836 C837 1.392 . S
C836 C839 1.511 . S
C837 C833 1.376 . S
C837 C836 1.392 . S
C837 H849 0.929 . S
C838 C834 1.531 . S
C838 H850 0.960 . S
C838 H851 0.962 . S
C838 H852 0.960 . S
C839 C836 1.511 . S
C839 H853 0.961 . S
C839 H854 0.961 . S
C839 H855 0.961 . S
C840 C841 1.370 . S
C840 C842 1.363 . S
C840 H856 0.931 . S
C841 C840 1.370 . S
C841 C845 1.408 . S
C842 C840 1.363 . S
C842 C843 1.370 . S
C842 C846 1.524 . S
C843 C835 1.503 . S
C843 C842 1.370 . S
C843 C844 1.403 . S
C844 C843 1.403 . S
C844 C845 1.404 . S
C844 C847 1.539 . S
C845 C841 1.408 . S
C845 C844 1.404 . S
C845 H857 0.930 . S
C846 C842 1.524 . S
C846 H858 0.956 . S
C846 H859 0.961 . S
C846 H860 0.961 . S
C847 C844 1.539 . S
C847 H861 0.958 . S
C847 H862 0.961 . S
C847 H863 0.960 . S
H848 C832 0.931 . S
H849 C837 0.929 . S
H850 C838 0.960 . S
H851 C838 0.962 . S
H852 C838 0.960 . S
H853 C839 0.961 . S
H854 C839 0.961 . S
H855 C839 0.961 . S
H856 C840 0.931 . S
H857 C845 0.930 . S
H858 C846 0.956 . S
H859 C846 0.961 . S
H860 C846 0.961 . S
H861 C847 0.958 . S
H862 C847 0.961 . S
H863 C847 0.960 . S
C864 C865 1.391 . S
C864 C866 1.394 1_554 S
C864 H880 0.931 1_554 S
C865 C864 1.391 . S
C865 C869 1.376 . S
C866 C864 1.394 1_556 S
C866 C867 1.369 1_556 S
C866 C870 1.531 . S
C867 C866 1.369 1_554 S
C867 C868 1.410 . S
C867 C875 1.503 1_554 S
C868 C867 1.410 . S
C868 C869 1.392 . S
C868 C871 1.511 . S
C869 C865 1.376 . S
C869 C868 1.392 . S
C869 H881 0.929 . S
C870 C866 1.531 . S
C870 H882 0.960 . S
C870 H883 0.962 . S
C870 H884 0.960 . S
C871 C868 1.511 . S
C871 H885 0.961 . S
C871 H886 0.961 . S
C871 H887 0.961 . S
C872 C873 1.370 . S
C872 C874 1.363 . S
C872 H888 0.931 . S
C873 C872 1.370 . S
C873 C877 1.408 . S
C874 C872 1.363 . S
C874 C875 1.370 . S
C874 C878 1.524 . S
C875 C867 1.503 1_556 S
C875 C874 1.370 . S
C875 C876 1.403 1_556 S
C876 C875 1.403 1_554 S
C876 C877 1.404 1_554 S
C876 C879 1.539 . S
C877 C873 1.408 . S
C877 C876 1.404 1_556 S
C877 H889 0.930 . S
C878 C874 1.524 . S
C878 H890 0.956 . S
C878 H891 0.961 . S
C878 H892 0.961 . S
C879 C876 1.539 . S
C879 H893 0.958 . S
C879 H894 0.961 . S
C879 H895 0.960 . S
H880 C864 0.931 1_556 S
H881 C869 0.929 . S
H882 C870 0.960 . S
H883 C870 0.962 . S
H884 C870 0.960 . S
H885 C871 0.961 . S
H886 C871 0.961 . S
H887 C871 0.961 . S
H888 C872 0.931 . S
H889 C877 0.930 . S
H890 C878 0.956 . S
H891 C878 0.961 . S
H892 C878 0.961 . S
H893 C879 0.958 . S
H894 C879 0.961 . S
H895 C879 0.960 . S
C896 C897 1.391 . S
C896 C898 1.394 . S
C896 H912 0.931 . S
C897 C896 1.391 . S
C897 C901 1.376 . S
C898 C896 1.394 . S
C898 C899 1.369 . S
C898 C902 1.531 . S
C899 C898 1.369 . S
C899 C900 1.410 . S
C899 C907 1.503 . S
C900 C899 1.410 . S
C900 C901 1.392 . S
C900 C903 1.511 . S
C901 C897 1.376 . S
C901 C900 1.392 . S
C901 H913 0.929 . S
C902 C898 1.531 . S
C902 H914 0.960 . S
C902 H915 0.962 . S
C902 H916 0.960 . S
C903 C900 1.511 . S
C903 H917 0.961 . S
C903 H918 0.961 . S
C903 H919 0.961 . S
C904 C905 1.370 . S
C904 C906 1.363 . S
C904 H920 0.931 . S
C905 C904 1.370 . S
C905 C909 1.408 . S
C906 C904 1.363 . S
C906 C907 1.370 . S
C906 C910 1.524 . S
C907 C899 1.503 . S
C907 C906 1.370 . S
C907 C908 1.403 . S
C908 C907 1.403 . S
C908 C909 1.404 . S
C908 C911 1.539 . S
C909 C905 1.408 . S
C909 C908 1.404 . S
C909 H921 0.930 . S
C910 C906 1.524 . S
C910 H922 0.956 . S
C910 H923 0.961 . S
C910 H924 0.961 . S
C911 C908 1.539 . S
C911 H925 0.958 . S
C911 H926 0.961 . S
C911 H927 0.960 . S
H912 C896 0.931 . S
H913 C901 0.929 . S
H914 C902 0.960 . S
H915 C902 0.962 . S
H916 C902 0.960 . S
H917 C903 0.961 . S
H918 C903 0.961 . S
H919 C903 0.961 . S
H920 C904 0.931 . S
H921 C909 0.930 . S
H922 C910 0.956 . S
H923 C910 0.961 . S
H924 C910 0.961 . S
H925 C911 0.958 . S
H926 C911 0.961 . S
H927 C911 0.960 . S
C928 C929 1.391 . S
C928 C930 1.394 . S
C928 H944 0.931 . S
C929 C928 1.391 . S
C929 C933 1.376 . S
C930 C928 1.394 . S
C930 C931 1.369 . S
C930 C934 1.531 . S
C931 C930 1.369 . S
C931 C932 1.410 . S
C931 C939 1.503 . S
C932 C931 1.410 . S
C932 C933 1.392 . S
C932 C935 1.511 . S
C933 C929 1.376 . S
C933 C932 1.392 . S
C933 H945 0.929 . S
C934 C930 1.531 . S
C934 H946 0.960 . S
C934 H947 0.962 . S
C934 H948 0.960 . S
C935 C932 1.511 . S
C935 H949 0.961 . S
C935 H950 0.961 . S
C935 H951 0.961 . S
C936 C937 1.370 . S
C936 C938 1.363 . S
C936 H952 0.931 . S
C937 C936 1.370 . S
C937 C941 1.408 . S
C938 C936 1.363 . S
C938 C939 1.370 . S
C938 C942 1.524 . S
C939 C931 1.503 . S
C939 C938 1.370 . S
C939 C940 1.403 . S
C940 C939 1.403 . S
C940 C941 1.404 . S
C940 C943 1.539 . S
C941 C937 1.408 . S
C941 C940 1.404 . S
C941 H953 0.930 . S
C942 C938 1.524 . S
C942 H954 0.956 . S
C942 H955 0.961 . S
C942 H956 0.961 . S
C943 C940 1.539 . S
C943 H957 0.958 . S
C943 H958 0.961 . S
C943 H959 0.960 . S
H944 C928 0.931 . S
H945 C933 0.929 . S
H946 C934 0.960 . S
H947 C934 0.962 . S
H948 C934 0.960 . S
H949 C935 0.961 . S
H950 C935 0.961 . S
H951 C935 0.961 . S
H952 C936 0.931 . S
H953 C941 0.930 . S
H954 C942 0.956 . S
H955 C942 0.961 . S
H956 C942 0.961 . S
H957 C943 0.958 . S
H958 C943 0.961 . S
H959 C943 0.960 . S
C960 C961 1.391 . S
C960 C962 1.394 . S
C960 H976 0.931 1_556 S
C961 C960 1.391 . S
C961 C965 1.376 . S
C962 C960 1.394 . S
C962 C963 1.369 . S
C962 C966 1.531 . S
C963 C962 1.369 . S
C963 C964 1.410 . S
C963 C971 1.503 . S
C964 C963 1.410 . S
C964 C965 1.392 . S
C964 C967 1.511 . S
C965 C961 1.376 . S
C965 C964 1.392 . S
C965 H977 0.929 . S
C966 C962 1.531 . S
C966 H978 0.960 . S
C966 H979 0.962 . S
C966 H980 0.960 . S
C967 C964 1.511 . S
C967 H981 0.961 . S
C967 H982 0.961 . S
C967 H983 0.961 . S
C968 C969 1.370 . S
C968 C970 1.363 . S
C968 H984 0.931 . S
C969 C968 1.370 . S
C969 C973 1.408 . S
C970 C968 1.363 . S
C970 C971 1.370 . S
C970 C974 1.524 . S
C971 C963 1.503 . S
C971 C970 1.370 . S
C971 C972 1.403 . S
C972 C971 1.403 . S
C972 C973 1.404 . S
C972 C975 1.539 . S
C973 C969 1.408 . S
C973 C972 1.404 . S
C973 H985 0.930 . S
C974 C970 1.524 . S
C974 H986 0.956 . S
C974 H987 0.961 . S
C974 H988 0.961 . S
C975 C972 1.539 . S
C975 H989 0.958 . S
C975 H990 0.961 . S
C975 H991 0.960 . S
H976 C960 0.931 1_554 S
H977 C965 0.929 . S
H978 C966 0.960 . S
H979 C966 0.962 . S
H980 C966 0.960 . S
H981 C967 0.961 . S
H982 C967 0.961 . S
H983 C967 0.961 . S
H984 C968 0.931 . S
H985 C973 0.930 . S
H986 C974 0.956 . S
H987 C974 0.961 . S
H988 C974 0.961 . S
H989 C975 0.958 . S
H990 C975 0.961 . S
H991 C975 0.960 . S
C992 C993 1.391 . S
C992 C994 1.394 . S
C992 H1008 0.931 1_554 S
C993 C992 1.391 . S
C993 C997 1.376 . S
C994 C992 1.394 . S
C994 C995 1.369 . S
C994 C998 1.531 . S
C995 C994 1.369 . S
C995 C996 1.410 . S
C995 C1003 1.503 . S
C996 C995 1.410 . S
C996 C997 1.392 . S
C996 C999 1.511 . S
C997 C993 1.376 . S
C997 C996 1.392 . S
C997 H1009 0.929 . S
C998 C994 1.531 . S
C998 H1010 0.960 . S
C998 H1011 0.962 . S
C998 H1012 0.960 . S
C999 C996 1.511 . S
C999 H1013 0.961 . S
C999 H1014 0.961 . S
C999 H1015 0.961 . S
C1000 C1001 1.370 . S
C1000 C1002 1.363 . S
C1000 H1016 0.931 . S
C1001 C1000 1.370 . S
C1001 C1005 1.408 . S
C1002 C1000 1.363 . S
C1002 C1003 1.370 . S
C1002 C1006 1.524 . S
C1003 C995 1.503 . S
C1003 C1002 1.370 . S
C1003 C1004 1.403 . S
C1004 C1003 1.403 . S
C1004 C1005 1.404 . S
C1004 C1007 1.539 . S
C1005 C1001 1.408 . S
C1005 C1004 1.404 . S
C1005 H1017 0.930 . S
C1006 C1002 1.524 . S
C1006 H1018 0.956 . S
C1006 H1019 0.961 . S
C1006 H1020 0.961 . S
C1007 C1004 1.539 . S
C1007 H1021 0.958 . S
C1007 H1022 0.961 . S
C1007 H1023 0.960 . S
H1008 C992 0.931 1_556 S
H1009 C997 0.929 . S
H1010 C998 0.960 . S
H1011 C998 0.962 . S
H1012 C998 0.960 . S
H1013 C999 0.961 . S
H1014 C999 0.961 . S
H1015 C999 0.961 . S
H1016 C1000 0.931 . S
H1017 C1005 0.930 . S
H1018 C1006 0.956 . S
H1019 C1006 0.961 . S
H1020 C1006 0.961 . S
H1021 C1007 0.958 . S
H1022 C1007 0.961 . S
H1023 C1007 0.960 . S
C1024 C1025 1.391 . S
C1024 C1026 1.394 . S
C1024 H1040 0.931 . S
C1025 C1024 1.391 . S
C1025 C1029 1.376 . S
C1026 C1024 1.394 . S
C1026 C1027 1.369 . S
C1026 C1030 1.531 . S
C1027 C1026 1.369 . S
C1027 C1028 1.410 . S
C1027 C1035 1.503 . S
C1028 C1027 1.410 . S
C1028 C1029 1.392 . S
C1028 C1031 1.511 . S
C1029 C1025 1.376 . S
C1029 C1028 1.392 . S
C1029 H1041 0.929 . S
C1030 C1026 1.531 . S
C1030 H1042 0.960 . S
C1030 H1043 0.962 . S
C1030 H1044 0.960 . S
C1031 C1028 1.511 . S
C1031 H1045 0.961 . S
C1031 H1046 0.961 . S
C1031 H1047 0.961 . S
C1032 C1033 1.370 . S
C1032 C1034 1.363 . S
C1032 H1048 0.931 . S
C1033 C1032 1.370 . S
C1033 C1037 1.408 . S
C1034 C1032 1.363 . S
C1034 C1035 1.370 . S
C1034 C1038 1.524 . S
C1035 C1027 1.503 . S
C1035 C1034 1.370 . S
C1035 C1036 1.403 . S
C1036 C1035 1.403 . S
C1036 C1037 1.404 . S
C1036 C1039 1.539 . S
C1037 C1033 1.408 . S
C1037 C1036 1.404 . S
C1037 H1049 0.930 . S
C1038 C1034 1.524 . S
C1038 H1050 0.956 . S
C1038 H1051 0.961 . S
C1038 H1052 0.961 . S
C1039 C1036 1.539 . S
C1039 H1053 0.958 . S
C1039 H1054 0.961 . S
C1039 H1055 0.960 . S
H1040 C1024 0.931 . S
H1041 C1029 0.929 . S
H1042 C1030 0.960 . S
H1043 C1030 0.962 . S
H1044 C1030 0.960 . S
H1045 C1031 0.961 . S
H1046 C1031 0.961 . S
H1047 C1031 0.961 . S
H1048 C1032 0.931 . S
H1049 C1037 0.930 . S
H1050 C1038 0.956 . S
H1051 C1038 0.961 . S
H1052 C1038 0.961 . S
H1053 C1039 0.958 . S
H1054 C1039 0.961 . S
H1055 C1039 0.960 . S
C1056 C1057 1.391 . S
C1056 C1058 1.394 . S
C1056 H1072 0.931 . S
C1057 C1056 1.391 . S
C1057 C1061 1.376 . S
C1058 C1056 1.394 . S
C1058 C1059 1.369 . S
C1058 C1062 1.531 . S
C1059 C1058 1.369 . S
C1059 C1060 1.410 . S
C1059 C1067 1.503 . S
C1060 C1059 1.410 . S
C1060 C1061 1.392 . S
C1060 C1063 1.511 . S
C1061 C1057 1.376 . S
C1061 C1060 1.392 . S
C1061 H1073 0.929 . S
C1062 C1058 1.531 . S
C1062 H1074 0.960 . S
C1062 H1075 0.962 . S
C1062 H1076 0.960 . S
C1063 C1060 1.511 . S
C1063 H1077 0.961 . S
C1063 H1078 0.961 . S
C1063 H1079 0.961 . S
C1064 C1065 1.370 . S
C1064 C1066 1.363 . S
C1064 H1080 0.931 . S
C1065 C1064 1.370 . S
C1065 C1069 1.408 . S
C1066 C1064 1.363 . S
C1066 C1067 1.370 . S
C1066 C1070 1.524 . S
C1067 C1059 1.503 . S
C1067 C1066 1.370 . S
C1067 C1068 1.403 . S
C1068 C1067 1.403 . S
C1068 C1069 1.404 . S
C1068 C1071 1.539 . S
C1069 C1065 1.408 . S
C1069 C1068 1.404 . S
C1069 H1081 0.930 . S
C1070 C1066 1.524 . S
C1070 H1082 0.956 . S
C1070 H1083 0.961 . S
C1070 H1084 0.961 . S
C1071 C1068 1.539 . S
C1071 H1085 0.958 . S
C1071 H1086 0.961 . S
C1071 H1087 0.960 . S
H1072 C1056 0.931 . S
H1073 C1061 0.929 . S
H1074 C1062 0.960 . S
H1075 C1062 0.962 . S
H1076 C1062 0.960 . S
H1077 C1063 0.961 . S
H1078 C1063 0.961 . S
H1079 C1063 0.961 . S
H1080 C1064 0.931 . S
H1081 C1069 0.930 . S
H1082 C1070 0.956 . S
H1083 C1070 0.961 . S
H1084 C1070 0.961 . S
H1085 C1071 0.958 . S
H1086 C1071 0.961 . S
H1087 C1071 0.960 . S
C1088 C1089 1.390 1_556 S
C1088 C1090 1.390 1_556 S
C1088 H1104 0.935 . S
C1089 C1088 1.390 1_554 S
C1089 C1093 1.376 . S
C1090 C1088 1.390 1_554 S
C1090 C1091 1.369 . S
C1090 C1094 1.531 . S
C1091 C1090 1.369 . S
C1091 C1092 1.410 . S
C1091 C1099 1.503 . S
C1092 C1091 1.410 . S
C1092 C1093 1.392 . S
C1092 C1095 1.511 . S
C1093 C1089 1.376 . S
C1093 C1092 1.392 . S
C1093 H1105 0.929 . S
C1094 C1090 1.531 . S
C1094 H1106 0.960 . S
C1094 H1107 0.962 . S
C1094 H1108 0.960 1_554 S
C1095 C1092 1.511 . S
C1095 H1109 0.961 . S
C1095 H1110 0.961 . S
C1095 H1111 0.961 . S
C1096 C1097 1.370 . S
C1096 C1098 1.363 . S
C1096 H1112 0.931 . S
C1097 C1096 1.370 . S
C1097 C1101 1.408 . S
C1098 C1096 1.363 . S
C1098 C1099 1.370 . S
C1098 C1102 1.524 . S
C1099 C1091 1.503 . S
C1099 C1098 1.370 . S
C1099 C1100 1.403 . S
C1100 C1099 1.403 . S
C1100 C1101 1.404 . S
C1100 C1103 1.539 . S
C1101 C1097 1.408 . S
C1101 C1100 1.404 . S
C1101 H1113 0.930 . S
C1102 C1098 1.524 . S
C1102 H1114 0.956 . S
C1102 H1115 0.961 . S
C1102 H1116 0.961 . S
C1103 C1100 1.539 . S
C1103 H1117 0.958 . S
C1103 H1118 0.961 . S
C1103 H1119 0.960 . S
H1104 C1088 0.935 . S
H1105 C1093 0.929 . S
H1106 C1094 0.960 . S
H1107 C1094 0.962 . S
H1108 C1094 0.960 1_556 S
H1109 C1095 0.961 . S
H1110 C1095 0.961 . S
H1111 C1095 0.961 . S
H1112 C1096 0.931 . S
H1113 C1101 0.930 . S
H1114 C1102 0.956 . S
H1115 C1102 0.961 . S
H1116 C1102 0.961 . S
H1117 C1103 0.958 . S
H1118 C1103 0.961 . S
H1119 C1103 0.960 . S
C1120 C1121 1.388 1_554 S
C1120 C1122 1.383 1_554 S
C1120 H1136 0.944 . S
C1121 C1120 1.388 1_556 S
C1121 C1125 1.376 . S
C1122 C1120 1.383 1_556 S
C1122 C1123 1.369 . S
C1122 C1126 1.531 . S
C1123 C1122 1.369 . S
C1123 C1124 1.410 . S
C1123 C1131 1.503 . S
C1124 C1123 1.410 . S
C1124 C1125 1.392 . S
C1124 C1127 1.511 . S
C1125 C1121 1.376 . S
C1125 C1124 1.392 . S
C1125 H1137 0.929 . S
C1126 C1122 1.531 . S
C1126 H1138 0.960 . S
C1126 H1139 0.962 . S
C1126 H1140 0.960 1_556 S
C1127 C1124 1.511 . S
C1127 H1141 0.961 . S
C1127 H1142 0.961 . S
C1127 H1143 0.961 . S
C1128 C1129 1.370 . S
C1128 C1130 1.363 . S
C1128 H1144 0.931 . S
C1129 C1128 1.370 . S
C1129 C1133 1.408 . S
C1130 C1128 1.363 . S
C1130 C1131 1.370 . S
C1130 C1134 1.524 . S
C1131 C1123 1.503 . S
C1131 C1130 1.370 . S
C1131 C1132 1.403 . S
C1132 C1131 1.403 . S
C1132 C1133 1.404 . S
C1132 C1135 1.539 . S
C1133 C1129 1.408 . S
C1133 C1132 1.404 . S
C1133 H1145 0.930 . S
C1134 C1130 1.524 . S
C1134 H1146 0.956 . S
C1134 H1147 0.961 . S
C1134 H1148 0.961 . S
C1135 C1132 1.539 . S
C1135 H1149 0.958 . S
C1135 H1150 0.961 . S
C1135 H1151 0.960 . S
H1136 C1120 0.944 . S
H1137 C1125 0.929 . S
H1138 C1126 0.960 . S
H1139 C1126 0.962 . S
H1140 C1126 0.960 1_554 S
H1141 C1127 0.961 . S
H1142 C1127 0.961 . S
H1143 C1127 0.961 . S
H1144 C1128 0.931 . S
H1145 C1133 0.930 . S
H1146 C1134 0.956 . S
H1147 C1134 0.961 . S
H1148 C1134 0.961 . S
H1149 C1135 0.958 . S
H1150 C1135 0.961 . S
H1151 C1135 0.960 . S
C1152 C1153 1.391 . S
C1152 C1154 1.394 . S
C1152 H1168 0.931 . S
C1153 C1152 1.391 . S
C1153 C1157 1.376 . S
C1154 C1152 1.394 . S
C1154 C1155 1.369 . S
C1154 C1158 1.531 . S
C1155 C1154 1.369 . S
C1155 C1156 1.410 . S
C1155 C1163 1.503 . S
C1156 C1155 1.410 . S
C1156 C1157 1.392 . S
C1156 C1159 1.511 . S
C1157 C1153 1.376 . S
C1157 C1156 1.392 . S
C1157 H1169 0.929 . S
C1158 C1154 1.531 . S
C1158 H1170 0.960 . S
C1158 H1171 0.962 . S
C1158 H1172 0.960 . S
C1159 C1156 1.511 . S
C1159 H1173 0.961 . S
C1159 H1174 0.961 . S
C1159 H1175 0.961 . S
C1160 C1161 1.370 . S
C1160 C1162 1.363 . S
C1160 H1176 0.931 . S
C1161 C1160 1.370 . S
C1161 C1165 1.408 . S
C1162 C1160 1.363 . S
C1162 C1163 1.370 . S
C1162 C1166 1.524 . S
C1163 C1155 1.503 . S
C1163 C1162 1.370 . S
C1163 C1164 1.403 . S
C1164 C1163 1.403 . S
C1164 C1165 1.404 . S
C1164 C1167 1.539 . S
C1165 C1161 1.408 . S
C1165 C1164 1.404 . S
C1165 H1177 0.930 . S
C1166 C1162 1.524 . S
C1166 H1178 0.956 . S
C1166 H1179 0.961 . S
C1166 H1180 0.961 . S
C1167 C1164 1.539 . S
C1167 H1181 0.958 . S
C1167 H1182 0.961 . S
C1167 H1183 0.960 . S
H1168 C1152 0.931 . S
H1169 C1157 0.929 . S
H1170 C1158 0.960 . S
H1171 C1158 0.962 . S
H1172 C1158 0.960 . S
H1173 C1159 0.961 . S
H1174 C1159 0.961 . S
H1175 C1159 0.961 . S
H1176 C1160 0.931 . S
H1177 C1165 0.930 . S
H1178 C1166 0.956 . S
H1179 C1166 0.961 . S
H1180 C1166 0.961 . S
H1181 C1167 0.958 . S
H1182 C1167 0.961 . S
H1183 C1167 0.960 . S
C1184 C1185 1.391 . S
C1184 C1186 1.394 . S
C1184 H1200 0.931 . S
C1185 C1184 1.391 . S
C1185 C1189 1.376 . S
C1186 C1184 1.394 . S
C1186 C1187 1.369 . S
C1186 C1190 1.531 . S
C1187 C1186 1.369 . S
C1187 C1188 1.410 . S
C1187 C1195 1.503 . S
C1188 C1187 1.410 . S
C1188 C1189 1.392 . S
C1188 C1191 1.511 . S
C1189 C1185 1.376 . S
C1189 C1188 1.392 . S
C1189 H1201 0.929 . S
C1190 C1186 1.531 . S
C1190 H1202 0.960 . S
C1190 H1203 0.962 . S
C1190 H1204 0.960 . S
C1191 C1188 1.511 . S
C1191 H1205 0.961 . S
C1191 H1206 0.961 . S
C1191 H1207 0.961 . S
C1192 C1193 1.370 . S
C1192 C1194 1.363 . S
C1192 H1208 0.931 . S
C1193 C1192 1.370 . S
C1193 C1197 1.408 . S
C1194 C1192 1.363 . S
C1194 C1195 1.370 . S
C1194 C1198 1.524 . S
C1195 C1187 1.503 . S
C1195 C1194 1.370 . S
C1195 C1196 1.403 . S
C1196 C1195 1.403 . S
C1196 C1197 1.404 . S
C1196 C1199 1.539 . S
C1197 C1193 1.408 . S
C1197 C1196 1.404 . S
C1197 H1209 0.930 . S
C1198 C1194 1.524 . S
C1198 H1210 0.956 . S
C1198 H1211 0.961 . S
C1198 H1212 0.961 . S
C1199 C1196 1.539 . S
C1199 H1213 0.958 . S
C1199 H1214 0.961 . S
C1199 H1215 0.960 . S
H1200 C1184 0.931 . S
H1201 C1189 0.929 . S
H1202 C1190 0.960 . S
H1203 C1190 0.962 . S
H1204 C1190 0.960 . S
H1205 C1191 0.961 . S
H1206 C1191 0.961 . S
H1207 C1191 0.961 . S
H1208 C1192 0.931 . S
H1209 C1197 0.930 . S
H1210 C1198 0.956 . S
H1211 C1198 0.961 . S
H1212 C1198 0.961 . S
H1213 C1199 0.958 . S
H1214 C1199 0.961 . S
H1215 C1199 0.960 . S
C1216 C1217 1.391 . S
C1216 C1218 1.394 . S
C1216 H1232 0.931 . S
C1217 C1216 1.391 . S
C1217 C1221 1.376 . S
C1218 C1216 1.394 . S
C1218 C1219 1.369 . S
C1218 C1222 1.531 . S
C1219 C1218 1.369 . S
C1219 C1220 1.410 . S
C1219 C1227 1.503 . S
C1220 C1219 1.410 . S
C1220 C1221 1.392 . S
C1220 C1223 1.511 . S
C1221 C1217 1.376 . S
C1221 C1220 1.392 . S
C1221 H1233 0.929 . S
C1222 C1218 1.531 . S
C1222 H1234 0.960 . S
C1222 H1235 0.962 . S
C1222 H1236 0.960 . S
C1223 C1220 1.511 . S
C1223 H1237 0.961 . S
C1223 H1238 0.961 . S
C1223 H1239 0.961 . S
C1224 C1225 1.370 . S
C1224 C1226 1.363 . S
C1224 H1240 0.931 . S
C1225 C1224 1.370 . S
C1225 C1229 1.408 . S
C1226 C1224 1.363 . S
C1226 C1227 1.370 . S
C1226 C1230 1.524 . S
C1227 C1219 1.503 . S
C1227 C1226 1.370 . S
C1227 C1228 1.403 . S
C1228 C1227 1.403 . S
C1228 C1229 1.404 . S
C1228 C1231 1.539 . S
C1229 C1225 1.408 . S
C1229 C1228 1.404 . S
C1229 H1241 0.930 . S
C1230 C1226 1.524 . S
C1230 H1242 0.956 . S
C1230 H1243 0.961 . S
C1230 H1244 0.961 . S
C1231 C1228 1.539 . S
C1231 H1245 0.958 . S
C1231 H1246 0.961 . S
C1231 H1247 0.960 . S
H1232 C1216 0.931 . S
H1233 C1221 0.929 . S
H1234 C1222 0.960 . S
H1235 C1222 0.962 . S
H1236 C1222 0.960 . S
H1237 C1223 0.961 . S
H1238 C1223 0.961 . S
H1239 C1223 0.961 . S
H1240 C1224 0.931 . S
H1241 C1229 0.930 . S
H1242 C1230 0.956 . S
H1243 C1230 0.961 . S
H1244 C1230 0.961 . S
H1245 C1231 0.958 . S
H1246 C1231 0.961 . S
H1247 C1231 0.960 . S
C1248 C1249 1.391 . S
C1248 C1250 1.394 . S
C1248 H1264 0.931 . S
C1249 C1248 1.391 . S
C1249 C1253 1.376 . S
C1250 C1248 1.394 . S
C1250 C1251 1.369 . S
C1250 C1254 1.531 . S
C1251 C1250 1.369 . S
C1251 C1252 1.410 . S
C1251 C1259 1.503 . S
C1252 C1251 1.410 . S
C1252 C1253 1.392 . S
C1252 C1255 1.511 . S
C1253 C1249 1.376 . S
C1253 C1252 1.392 . S
C1253 H1265 0.929 . S
C1254 C1250 1.531 . S
C1254 H1266 0.960 . S
C1254 H1267 0.962 . S
C1254 H1268 0.960 . S
C1255 C1252 1.511 . S
C1255 H1269 0.961 . S
C1255 H1270 0.961 . S
C1255 H1271 0.961 . S
C1256 C1257 1.370 . S
C1256 C1258 1.363 . S
C1256 H1272 0.931 . S
C1257 C1256 1.370 . S
C1257 C1261 1.408 . S
C1258 C1256 1.363 . S
C1258 C1259 1.370 . S
C1258 C1262 1.524 . S
C1259 C1251 1.503 . S
C1259 C1258 1.370 . S
C1259 C1260 1.403 . S
C1260 C1259 1.403 . S
C1260 C1261 1.404 . S
C1260 C1263 1.539 . S
C1261 C1257 1.408 . S
C1261 C1260 1.404 . S
C1261 H1273 0.930 . S
C1262 C1258 1.524 . S
C1262 H1274 0.956 . S
C1262 H1275 0.961 . S
C1262 H1276 0.961 . S
C1263 C1260 1.539 . S
C1263 H1277 0.958 . S
C1263 H1278 0.961 . S
C1263 H1279 0.960 . S
H1264 C1248 0.931 . S
H1265 C1253 0.929 . S
H1266 C1254 0.960 . S
H1267 C1254 0.962 . S
H1268 C1254 0.960 . S
H1269 C1255 0.961 . S
H1270 C1255 0.961 . S
H1271 C1255 0.961 . S
H1272 C1256 0.931 . S
H1273 C1261 0.930 . S
H1274 C1262 0.956 . S
H1275 C1262 0.961 . S
H1276 C1262 0.961 . S
H1277 C1263 0.958 . S
H1278 C1263 0.961 . S
H1279 C1263 0.960 . S
C1280 C1281 1.391 . S
C1280 C1282 1.394 . S
C1280 H1296 0.931 . S
C1281 C1280 1.391 . S
C1281 C1285 1.376 . S
C1282 C1280 1.394 . S
C1282 C1283 1.369 . S
C1282 C1286 1.531 . S
C1283 C1282 1.369 . S
C1283 C1284 1.410 . S
C1283 C1291 1.503 . S
C1284 C1283 1.410 . S
C1284 C1285 1.392 . S
C1284 C1287 1.511 . S
C1285 C1281 1.376 . S
C1285 C1284 1.392 . S
C1285 H1297 0.929 . S
C1286 C1282 1.531 . S
C1286 H1298 0.960 . S
C1286 H1299 0.962 . S
C1286 H1300 0.960 . S
C1287 C1284 1.511 . S
C1287 H1301 0.961 . S
C1287 H1302 0.961 . S
C1287 H1303 0.961 . S
C1288 C1289 1.370 . S
C1288 C1290 1.363 . S
C1288 H1304 0.931 . S
C1289 C1288 1.370 . S
C1289 C1293 1.408 . S
C1290 C1288 1.363 . S
C1290 C1291 1.370 . S
C1290 C1294 1.524 . S
C1291 C1283 1.503 . S
C1291 C1290 1.370 . S
C1291 C1292 1.403 . S
C1292 C1291 1.403 . S
C1292 C1293 1.404 . S
C1292 C1295 1.539 . S
C1293 C1289 1.408 . S
C1293 C1292 1.404 . S
C1293 H1305 0.930 . S
C1294 C1290 1.524 . S
C1294 H1306 0.956 . S
C1294 H1307 0.961 . S
C1294 H1308 0.961 . S
C1295 C1292 1.539 . S
C1295 H1309 0.958 . S
C1295 H1310 0.961 . S
C1295 H1311 0.960 . S
H1296 C1280 0.931 . S
H1297 C1285 0.929 . S
H1298 C1286 0.960 . S
H1299 C1286 0.962 . S
H1300 C1286 0.960 . S
H1301 C1287 0.961 . S
H1302 C1287 0.961 . S
H1303 C1287 0.961 . S
H1304 C1288 0.931 . S
H1305 C1293 0.930 . S
H1306 C1294 0.956 . S
H1307 C1294 0.961 . S
H1308 C1294 0.961 . S
H1309 C1295 0.958 . S
H1310 C1295 0.961 . S
H1311 C1295 0.960 . S
C1312 C1313 1.391 . S
C1312 C1314 1.394 . S
C1312 H1328 0.931 . S
C1313 C1312 1.391 . S
C1313 C1317 1.376 . S
C1314 C1312 1.394 . S
C1314 C1315 1.369 . S
C1314 C1318 1.531 . S
C1315 C1314 1.369 . S
C1315 C1316 1.410 . S
C1315 C1323 1.503 . S
C1316 C1315 1.410 . S
C1316 C1317 1.392 . S
C1316 C1319 1.511 . S
C1317 C1313 1.376 . S
C1317 C1316 1.392 . S
C1317 H1329 0.929 . S
C1318 C1314 1.531 . S
C1318 H1330 0.960 . S
C1318 H1331 0.962 . S
C1318 H1332 0.960 . S
C1319 C1316 1.511 . S
C1319 H1333 0.961 . S
C1319 H1334 0.961 . S
C1319 H1335 0.961 . S
C1320 C1321 1.370 . S
C1320 C1322 1.363 . S
C1320 H1336 0.931 . S
C1321 C1320 1.370 . S
C1321 C1325 1.408 . S
C1322 C1320 1.363 . S
C1322 C1323 1.370 . S
C1322 C1326 1.524 . S
C1323 C1315 1.503 . S
C1323 C1322 1.370 . S
C1323 C1324 1.403 . S
C1324 C1323 1.403 . S
C1324 C1325 1.404 . S
C1324 C1327 1.539 . S
C1325 C1321 1.408 . S
C1325 C1324 1.404 . S
C1325 H1337 0.930 1_554 S
C1326 C1322 1.524 . S
C1326 H1338 0.956 . S
C1326 H1339 0.961 . S
C1326 H1340 0.961 . S
C1327 C1324 1.539 . S
C1327 H1341 0.958 . S
C1327 H1342 0.961 . S
C1327 H1343 0.960 . S
H1328 C1312 0.931 . S
H1329 C1317 0.929 . S
H1330 C1318 0.960 . S
H1331 C1318 0.962 . S
H1332 C1318 0.960 . S
H1333 C1319 0.961 . S
H1334 C1319 0.961 . S
H1335 C1319 0.961 . S
H1336 C1320 0.931 . S
H1337 C1325 0.930 1_556 S
H1338 C1326 0.956 . S
H1339 C1326 0.961 . S
H1340 C1326 0.961 . S
H1341 C1327 0.958 . S
H1342 C1327 0.961 . S
H1343 C1327 0.960 . S
C1344 C1345 1.391 . S
C1344 C1346 1.394 . S
C1344 H1360 0.931 . S
C1345 C1344 1.391 . S
C1345 C1349 1.376 . S
C1346 C1344 1.394 . S
C1346 C1347 1.369 . S
C1346 C1350 1.531 . S
C1347 C1346 1.369 . S
C1347 C1348 1.410 . S
C1347 C1355 1.503 . S
C1348 C1347 1.410 . S
C1348 C1349 1.392 . S
C1348 C1351 1.511 . S
C1349 C1345 1.376 . S
C1349 C1348 1.392 . S
C1349 H1361 0.929 . S
C1350 C1346 1.531 . S
C1350 H1362 0.960 . S
C1350 H1363 0.962 . S
C1350 H1364 0.960 . S
C1351 C1348 1.511 . S
C1351 H1365 0.961 . S
C1351 H1366 0.961 . S
C1351 H1367 0.961 . S
C1352 C1353 1.370 . S
C1352 C1354 1.363 . S
C1352 H1368 0.931 . S
C1353 C1352 1.370 . S
C1353 C1357 1.408 . S
C1354 C1352 1.363 . S
C1354 C1355 1.370 . S
C1354 C1358 1.524 . S
C1355 C1347 1.503 . S
C1355 C1354 1.370 . S
C1355 C1356 1.403 . S
C1356 C1355 1.403 . S
C1356 C1357 1.404 . S
C1356 C1359 1.539 . S
C1357 C1353 1.408 . S
C1357 C1356 1.404 . S
C1357 H1369 0.930 . S
C1358 C1354 1.524 . S
C1358 H1370 0.956 . S
C1358 H1371 0.961 . S
C1358 H1372 0.961 . S
C1359 C1356 1.539 . S
C1359 H1373 0.958 . S
C1359 H1374 0.961 . S
C1359 H1375 0.960 . S
H1360 C1344 0.931 . S
H1361 C1349 0.929 . S
H1362 C1350 0.960 . S
H1363 C1350 0.962 . S
H1364 C1350 0.960 . S
H1365 C1351 0.961 . S
H1366 C1351 0.961 . S
H1367 C1351 0.961 . S
H1368 C1352 0.931 . S
H1369 C1357 0.930 . S
H1370 C1358 0.956 . S
H1371 C1358 0.961 . S
H1372 C1358 0.961 . S
H1373 C1359 0.958 . S
H1374 C1359 0.961 . S
H1375 C1359 0.960 . S
C1376 C1377 1.391 . S
C1376 C1378 1.394 . S
C1376 H1392 0.931 . S
C1377 C1376 1.391 . S
C1377 C1381 1.376 . S
C1378 C1376 1.394 . S
C1378 C1379 1.369 . S
C1378 C1382 1.531 . S
C1379 C1378 1.369 . S
C1379 C1380 1.410 . S
C1379 C1387 1.503 . S
C1380 C1379 1.410 . S
C1380 C1381 1.392 . S
C1380 C1383 1.511 . S
C1381 C1377 1.376 . S
C1381 C1380 1.392 . S
C1381 H1393 0.929 . S
C1382 C1378 1.531 . S
C1382 H1394 0.960 . S
C1382 H1395 0.962 . S
C1382 H1396 0.960 . S
C1383 C1380 1.511 . S
C1383 H1397 0.961 . S
C1383 H1398 0.961 . S
C1383 H1399 0.961 . S
C1384 C1385 1.370 . S
C1384 C1386 1.363 . S
C1384 H1400 0.931 . S
C1385 C1384 1.370 . S
C1385 C1389 1.408 . S
C1386 C1384 1.363 . S
C1386 C1387 1.370 . S
C1386 C1390 1.524 . S
C1387 C1379 1.503 . S
C1387 C1386 1.370 . S
C1387 C1388 1.403 . S
C1388 C1387 1.403 . S
C1388 C1389 1.404 . S
C1388 C1391 1.539 . S
C1389 C1385 1.408 . S
C1389 C1388 1.404 . S
C1389 H1401 0.930 . S
C1390 C1386 1.524 . S
C1390 H1402 0.956 . S
C1390 H1403 0.961 . S
C1390 H1404 0.961 . S
C1391 C1388 1.539 . S
C1391 H1405 0.958 . S
C1391 H1406 0.961 . S
C1391 H1407 0.960 . S
H1392 C1376 0.931 . S
H1393 C1381 0.929 . S
H1394 C1382 0.960 . S
H1395 C1382 0.962 . S
H1396 C1382 0.960 . S
H1397 C1383 0.961 . S
H1398 C1383 0.961 . S
H1399 C1383 0.961 . S
H1400 C1384 0.931 . S
H1401 C1389 0.930 . S
H1402 C1390 0.956 . S
H1403 C1390 0.961 . S
H1404 C1390 0.961 . S
H1405 C1391 0.958 . S
H1406 C1391 0.961 . S
H1407 C1391 0.960 . S
C1408 C1409 1.391 . S
C1408 C1410 1.394 . S
C1408 H1424 0.931 1_554 S
C1409 C1408 1.391 . S
C1409 C1413 1.376 . S
C1410 C1408 1.394 . S
C1410 C1411 1.369 . S
C1410 C1414 1.531 . S
C1411 C1410 1.369 . S
C1411 C1412 1.410 . S
C1411 C1419 1.503 . S
C1412 C1411 1.410 . S
C1412 C1413 1.392 . S
C1412 C1415 1.511 . S
C1413 C1409 1.376 . S
C1413 C1412 1.392 . S
C1413 H1425 0.929 . S
C1414 C1410 1.531 . S
C1414 H1426 0.960 . S
C1414 H1427 0.962 . S
C1414 H1428 0.960 . S
C1415 C1412 1.511 . S
C1415 H1429 0.961 . S
C1415 H1430 0.961 . S
C1415 H1431 0.961 . S
C1416 C1417 1.370 . S
C1416 C1418 1.363 . S
C1416 H1432 0.931 . S
C1417 C1416 1.370 . S
C1417 C1421 1.408 . S
C1418 C1416 1.363 . S
C1418 C1419 1.370 . S
C1418 C1422 1.524 . S
C1419 C1411 1.503 . S
C1419 C1418 1.370 . S
C1419 C1420 1.403 . S
C1420 C1419 1.403 . S
C1420 C1421 1.404 . S
C1420 C1423 1.539 . S
C1421 C1417 1.408 . S
C1421 C1420 1.404 . S
C1421 H1433 0.930 . S
C1422 C1418 1.524 . S
C1422 H1434 0.956 . S
C1422 H1435 0.961 . S
C1422 H1436 0.961 . S
C1423 C1420 1.539 . S
C1423 H1437 0.958 . S
C1423 H1438 0.961 . S
C1423 H1439 0.960 . S
H1424 C1408 0.931 1_556 S
H1425 C1413 0.929 . S
H1426 C1414 0.960 . S
H1427 C1414 0.962 . S
H1428 C1414 0.960 . S
H1429 C1415 0.961 . S
H1430 C1415 0.961 . S
H1431 C1415 0.961 . S
H1432 C1416 0.931 . S
H1433 C1421 0.930 . S
H1434 C1422 0.956 . S
H1435 C1422 0.961 . S
H1436 C1422 0.961 . S
H1437 C1423 0.958 . S
H1438 C1423 0.961 . S
H1439 C1423 0.960 . S
C1440 C1441 1.391 . S
C1440 C1442 1.394 . S
C1440 H1456 0.931 . S
C1441 C1440 1.391 . S
C1441 C1445 1.376 . S
C1442 C1440 1.394 . S
C1442 C1443 1.369 . S
C1442 C1446 1.531 . S
C1443 C1442 1.369 . S
C1443 C1444 1.410 . S
C1443 C1451 1.503 . S
C1444 C1443 1.410 . S
C1444 C1445 1.392 . S
C1444 C1447 1.511 . S
C1445 C1441 1.376 . S
C1445 C1444 1.392 . S
C1445 H1457 0.929 . S
C1446 C1442 1.531 . S
C1446 H1458 0.960 . S
C1446 H1459 0.962 . S
C1446 H1460 0.960 . S
C1447 C1444 1.511 . S
C1447 H1461 0.961 . S
C1447 H1462 0.961 . S
C1447 H1463 0.961 . S
C1448 C1449 1.370 . S
C1448 C1450 1.363 . S
C1448 H1464 0.931 1_556 S
C1449 C1448 1.370 . S
C1449 C1453 1.408 . S
C1450 C1448 1.363 . S
C1450 C1451 1.370 . S
C1450 C1454 1.524 . S
C1451 C1443 1.503 . S
C1451 C1450 1.370 . S
C1451 C1452 1.403 . S
C1452 C1451 1.403 . S
C1452 C1453 1.404 . S
C1452 C1455 1.539 . S
C1453 C1449 1.408 . S
C1453 C1452 1.404 . S
C1453 H1465 0.930 . S
C1454 C1450 1.524 . S
C1454 H1466 0.956 . S
C1454 H1467 0.961 . S
C1454 H1468 0.961 . S
C1455 C1452 1.539 . S
C1455 H1469 0.958 . S
C1455 H1470 0.961 . S
C1455 H1471 0.960 . S
H1456 C1440 0.931 . S
H1457 C1445 0.929 . S
H1458 C1446 0.960 . S
H1459 C1446 0.962 . S
H1460 C1446 0.960 . S
H1461 C1447 0.961 . S
H1462 C1447 0.961 . S
H1463 C1447 0.961 . S
H1464 C1448 0.931 1_554 S
H1465 C1453 0.930 . S
H1466 C1454 0.956 . S
H1467 C1454 0.961 . S
H1468 C1454 0.961 . S
H1469 C1455 0.958 . S
H1470 C1455 0.961 . S
H1471 C1455 0.960 . S
C1472 C1473 1.391 . S
C1472 C1474 1.394 . S
C1472 H1488 0.931 . S
C1473 C1472 1.391 . S
C1473 C1477 1.376 . S
C1474 C1472 1.394 . S
C1474 C1475 1.369 . S
C1474 C1478 1.531 . S
C1475 C1474 1.369 . S
C1475 C1476 1.410 . S
C1475 C1483 1.503 . S
C1476 C1475 1.410 . S
C1476 C1477 1.392 . S
C1476 C1479 1.511 . S
C1477 C1473 1.376 . S
C1477 C1476 1.392 . S
C1477 H1489 0.929 . S
C1478 C1474 1.531 . S
C1478 H1490 0.960 . S
C1478 H1491 0.962 . S
C1478 H1492 0.960 . S
C1479 C1476 1.511 . S
C1479 H1493 0.961 . S
C1479 H1494 0.961 . S
C1479 H1495 0.961 . S
C1480 C1481 1.370 . S
C1480 C1482 1.363 . S
C1480 H1496 0.931 . S
C1481 C1480 1.370 . S
C1481 C1485 1.408 . S
C1482 C1480 1.363 . S
C1482 C1483 1.370 . S
C1482 C1486 1.524 . S
C1483 C1475 1.503 . S
C1483 C1482 1.370 . S
C1483 C1484 1.403 . S
C1484 C1483 1.403 . S
C1484 C1485 1.404 . S
C1484 C1487 1.540 . S
C1485 C1481 1.408 . S
C1485 C1484 1.404 . S
C1485 H1497 0.930 . S
C1486 C1482 1.524 . S
C1486 H1498 0.956 . S
C1486 H1499 0.961 . S
C1486 H1500 0.961 . S
C1487 C1484 1.540 . S
C1487 H1501 0.958 1_554 S
C1487 H1502 0.961 1_554 S
C1487 H1503 0.960 . S
H1488 C1472 0.931 . S
H1489 C1477 0.929 . S
H1490 C1478 0.960 . S
H1491 C1478 0.962 . S
H1492 C1478 0.960 . S
H1493 C1479 0.961 . S
H1494 C1479 0.961 . S
H1495 C1479 0.961 . S
H1496 C1480 0.931 . S
H1497 C1485 0.930 . S
H1498 C1486 0.956 . S
H1499 C1486 0.961 . S
H1500 C1486 0.961 . S
H1501 C1487 0.958 1_556 S
H1502 C1487 0.961 1_556 S
H1503 C1487 0.960 . S
C1504 C1505 1.391 . S
C1504 C1506 1.394 . S
C1504 H1520 0.931 . S
C1505 C1504 1.391 . S
C1505 C1509 1.376 . S
C1506 C1504 1.394 . S
C1506 C1507 1.369 . S
C1506 C1510 1.531 . S
C1507 C1506 1.369 . S
C1507 C1508 1.410 . S
C1507 C1515 1.503 1_655 S
C1508 C1507 1.410 . S
C1508 C1509 1.392 . S
C1508 C1511 1.511 . S
C1509 C1505 1.376 . S
C1509 C1508 1.392 . S
C1509 H1521 0.929 . S
C1510 C1506 1.531 . S
C1510 H1522 0.960 1_655 S
C1510 H1523 0.962 . S
C1510 H1524 0.960 . S
C1511 C1508 1.511 . S
C1511 H1525 0.961 . S
C1511 H1526 0.961 1_655 S
C1511 H1527 0.961 . S
C1512 C1513 1.370 . S
C1512 C1514 1.363 . S
C1512 H1528 0.931 . S
C1513 C1512 1.370 . S
C1513 C1517 1.408 . S
C1514 C1512 1.363 . S
C1514 C1515 1.370 . S
C1514 C1518 1.524 . S
C1515 C1507 1.503 1_455 S
C1515 C1514 1.370 . S
C1515 C1516 1.403 . S
C1516 C1515 1.403 . S
C1516 C1517 1.404 . S
C1516 C1519 1.539 . S
C1517 C1513 1.408 . S
C1517 C1516 1.404 . S
C1517 H1529 0.930 . S
C1518 C1514 1.524 . S
C1518 H1530 0.983 . S
C1518 H1531 0.918 1_455 S
C1518 H1532 0.961 . S
C1519 C1516 1.539 . S
C1519 H1533 0.958 . S
C1519 H1534 0.961 . S
C1519 H1535 0.968 . S
H1520 C1504 0.931 . S
H1521 C1509 0.929 . S
H1522 C1510 0.960 1_455 S
H1523 C1510 0.962 . S
H1524 C1510 0.960 . S
H1525 C1511 0.961 . S
H1526 C1511 0.961 1_455 S
H1527 C1511 0.961 . S
H1528 C1512 0.931 . S
H1529 C1517 0.930 . S
H1530 C1518 0.983 . S
H1531 C1518 0.918 1_655 S
H1532 C1518 0.961 . S
H1533 C1519 0.958 . S
H1534 C1519 0.961 . S
H1535 C1519 0.968 . S
C1536 C1537 1.391 . S
C1536 C1538 1.394 . S
C1536 H1552 0.931 . S
C1537 C1536 1.391 . S
C1537 C1541 1.376 . S
C1538 C1536 1.394 . S
C1538 C1539 1.369 . S
C1538 C1542 1.531 . S
C1539 C1538 1.369 . S
C1539 C1540 1.410 . S
C1539 C1547 1.503 . S
C1540 C1539 1.410 . S
C1540 C1541 1.392 . S
C1540 C1543 1.511 . S
C1541 C1537 1.376 . S
C1541 C1540 1.392 . S
C1541 H1553 0.929 . S
C1542 C1538 1.531 . S
C1542 H1554 0.960 . S
C1542 H1555 0.962 . S
C1542 H1556 0.960 . S
C1543 C1540 1.511 . S
C1543 H1557 0.961 . S
C1543 H1558 0.961 . S
C1543 H1559 0.961 . S
C1544 C1545 1.370 . S
C1544 C1546 1.363 . S
C1544 H1560 0.931 . S
C1545 C1544 1.370 . S
C1545 C1549 1.408 . S
C1546 C1544 1.363 . S
C1546 C1547 1.370 . S
C1546 C1550 1.524 . S
C1547 C1539 1.503 . S
C1547 C1546 1.370 . S
C1547 C1548 1.403 . S
C1548 C1547 1.403 . S
C1548 C1549 1.404 . S
C1548 C1551 1.539 . S
C1549 C1545 1.408 . S
C1549 C1548 1.404 . S
C1549 H1561 0.930 . S
C1550 C1546 1.524 . S
C1550 H1562 0.956 . S
C1550 H1563 0.961 . S
C1550 H1564 0.961 . S
C1551 C1548 1.539 . S
C1551 H1565 0.958 . S
C1551 H1566 0.961 . S
C1551 H1567 0.960 . S
H1552 C1536 0.931 . S
H1553 C1541 0.929 . S
H1554 C1542 0.960 . S
H1555 C1542 0.962 . S
H1556 C1542 0.960 . S
H1557 C1543 0.961 . S
H1558 C1543 0.961 . S
H1559 C1543 0.961 . S
H1560 C1544 0.931 . S
H1561 C1549 0.930 . S
H1562 C1550 0.956 . S
H1563 C1550 0.961 . S
H1564 C1550 0.961 . S
H1565 C1551 0.958 . S
H1566 C1551 0.961 . S
H1567 C1551 0.960 . S
C1568 C1569 1.391 . S
C1568 C1570 1.394 . S
C1568 H1584 0.931 . S
C1569 C1568 1.391 . S
C1569 C1573 1.376 . S
C1570 C1568 1.394 . S
C1570 C1571 1.369 . S
C1570 C1574 1.531 . S
C1571 C1570 1.369 . S
C1571 C1572 1.410 . S
C1571 C1579 1.503 . S
C1572 C1571 1.410 . S
C1572 C1573 1.392 . S
C1572 C1575 1.511 . S
C1573 C1569 1.376 . S
C1573 C1572 1.392 . S
C1573 H1585 0.929 . S
C1574 C1570 1.531 . S
C1574 H1586 0.960 . S
C1574 H1587 0.962 . S
C1574 H1588 0.960 . S
C1575 C1572 1.511 . S
C1575 H1589 0.961 . S
C1575 H1590 0.961 . S
C1575 H1591 0.961 . S
C1576 C1577 1.370 . S
C1576 C1578 1.363 . S
C1576 H1592 0.931 . S
C1577 C1576 1.370 . S
C1577 C1581 1.408 . S
C1578 C1576 1.363 . S
C1578 C1579 1.370 . S
C1578 C1582 1.524 . S
C1579 C1571 1.503 . S
C1579 C1578 1.370 . S
C1579 C1580 1.403 . S
C1580 C1579 1.403 . S
C1580 C1581 1.404 . S
C1580 C1583 1.539 . S
C1581 C1577 1.408 . S
C1581 C1580 1.404 . S
C1581 H1593 0.930 . S
C1582 C1578 1.524 . S
C1582 H1594 0.956 . S
C1582 H1595 0.961 . S
C1582 H1596 0.961 . S
C1583 C1580 1.539 . S
C1583 H1597 0.958 . S
C1583 H1598 0.961 . S
C1583 H1599 0.960 . S
H1584 C1568 0.931 . S
H1585 C1573 0.929 . S
H1586 C1574 0.960 . S
H1587 C1574 0.962 . S
H1588 C1574 0.960 . S
H1589 C1575 0.961 . S
H1590 C1575 0.961 . S
H1591 C1575 0.961 . S
H1592 C1576 0.931 . S
H1593 C1581 0.930 . S
H1594 C1582 0.956 . S
H1595 C1582 0.961 . S
H1596 C1582 0.961 . S
H1597 C1583 0.958 . S
H1598 C1583 0.961 . S
H1599 C1583 0.960 . S
C1600 C1601 1.391 . S
C1600 C1602 1.394 . S
C1600 H1616 0.931 . S
C1601 C1600 1.391 . S
C1601 C1605 1.376 . S
C1602 C1600 1.394 . S
C1602 C1603 1.369 . S
C1602 C1606 1.531 . S
C1603 C1602 1.369 . S
C1603 C1604 1.410 . S
C1603 C1611 1.503 . S
C1604 C1603 1.410 . S
C1604 C1605 1.392 . S
C1604 C1607 1.511 . S
C1605 C1601 1.376 . S
C1605 C1604 1.392 . S
C1605 H1617 0.929 . S
C1606 C1602 1.531 . S
C1606 H1618 0.960 . S
C1606 H1619 0.962 . S
C1606 H1620 0.960 . S
C1607 C1604 1.511 . S
C1607 H1621 0.961 . S
C1607 H1622 0.961 . S
C1607 H1623 0.961 . S
C1608 C1609 1.370 . S
C1608 C1610 1.363 . S
C1608 H1624 0.931 . S
C1609 C1608 1.370 . S
C1609 C1613 1.408 . S
C1610 C1608 1.363 . S
C1610 C1611 1.370 . S
C1610 C1614 1.524 . S
C1611 C1603 1.503 . S
C1611 C1610 1.370 . S
C1611 C1612 1.403 . S
C1612 C1611 1.403 . S
C1612 C1613 1.404 . S
C1612 C1615 1.539 . S
C1613 C1609 1.408 . S
C1613 C1612 1.404 . S
C1613 H1625 0.930 . S
C1614 C1610 1.524 . S
C1614 H1626 0.956 . S
C1614 H1627 0.961 . S
C1614 H1628 0.961 . S
C1615 C1612 1.539 . S
C1615 H1629 0.958 . S
C1615 H1630 0.961 . S
C1615 H1631 0.960 . S
H1616 C1600 0.931 . S
H1617 C1605 0.929 . S
H1618 C1606 0.960 . S
H1619 C1606 0.962 . S
H1620 C1606 0.960 . S
H1621 C1607 0.961 . S
H1622 C1607 0.961 . S
H1623 C1607 0.961 . S
H1624 C1608 0.931 . S
H1625 C1613 0.930 . S
H1626 C1614 0.956 . S
H1627 C1614 0.961 . S
H1628 C1614 0.961 . S
H1629 C1615 0.958 . S
H1630 C1615 0.961 . S
H1631 C1615 0.960 . S
C1632 C1633 1.391 . S
C1632 C1634 1.394 . S
C1632 H1648 0.931 . S
C1633 C1632 1.391 . S
C1633 C1637 1.376 . S
C1634 C1632 1.394 . S
C1634 C1635 1.369 . S
C1634 C1638 1.531 . S
C1635 C1634 1.369 . S
C1635 C1636 1.410 . S
C1635 C1643 1.503 . S
C1636 C1635 1.410 . S
C1636 C1637 1.392 . S
C1636 C1639 1.511 . S
C1637 C1633 1.376 . S
C1637 C1636 1.392 . S
C1637 H1649 0.929 . S
C1638 C1634 1.531 . S
C1638 H1650 0.960 . S
C1638 H1651 0.962 . S
C1638 H1652 0.960 . S
C1639 C1636 1.511 . S
C1639 H1653 0.961 . S
C1639 H1654 0.961 . S
C1639 H1655 0.961 . S
C1640 C1641 1.370 . S
C1640 C1642 1.363 . S
C1640 H1656 0.931 . S
C1641 C1640 1.370 . S
C1641 C1645 1.408 . S
C1642 C1640 1.363 . S
C1642 C1643 1.370 . S
C1642 C1646 1.524 . S
C1643 C1635 1.503 . S
C1643 C1642 1.370 . S
C1643 C1644 1.403 . S
C1644 C1643 1.403 . S
C1644 C1645 1.404 . S
C1644 C1647 1.539 . S
C1645 C1641 1.408 . S
C1645 C1644 1.404 . S
C1645 H1657 0.930 . S
C1646 C1642 1.524 . S
C1646 H1658 0.956 . S
C1646 H1659 0.961 . S
C1646 H1660 0.961 . S
C1647 C1644 1.539 . S
C1647 H1661 0.958 . S
C1647 H1662 0.961 . S
C1647 H1663 0.960 . S
H1648 C1632 0.931 . S
H1649 C1637 0.929 . S
H1650 C1638 0.960 . S
H1651 C1638 0.962 . S
H1652 C1638 0.960 . S
H1653 C1639 0.961 . S
H1654 C1639 0.961 . S
H1655 C1639 0.961 . S
H1656 C1640 0.931 . S
H1657 C1645 0.930 . S
H1658 C1646 0.956 . S
H1659 C1646 0.961 . S
H1660 C1646 0.961 . S
H1661 C1647 0.958 . S
H1662 C1647 0.961 . S
H1663 C1647 0.960 . S
C1664 C1665 1.391 . S
C1664 C1666 1.394 . S
C1664 H1680 0.931 . S
C1665 C1664 1.391 . S
C1665 C1669 1.376 . S
C1666 C1664 1.394 . S
C1666 C1667 1.369 . S
C1666 C1670 1.531 . S
C1667 C1666 1.369 . S
C1667 C1668 1.410 . S
C1667 C1675 1.503 . S
C1668 C1667 1.410 . S
C1668 C1669 1.392 . S
C1668 C1671 1.511 . S
C1669 C1665 1.376 . S
C1669 C1668 1.392 . S
C1669 H1681 0.929 . S
C1670 C1666 1.531 . S
C1670 H1682 0.960 . S
C1670 H1683 0.962 . S
C1670 H1684 0.960 . S
C1671 C1668 1.511 . S
C1671 H1685 0.961 . S
C1671 H1686 0.961 . S
C1671 H1687 0.961 . S
C1672 C1673 1.370 . S
C1672 C1674 1.363 . S
C1672 H1688 0.931 . S
C1673 C1672 1.370 . S
C1673 C1677 1.408 . S
C1674 C1672 1.363 . S
C1674 C1675 1.370 . S
C1674 C1678 1.524 . S
C1675 C1667 1.503 . S
C1675 C1674 1.370 . S
C1675 C1676 1.403 . S
C1676 C1675 1.403 . S
C1676 C1677 1.404 . S
C1676 C1679 1.539 . S
C1677 C1673 1.408 . S
C1677 C1676 1.404 . S
C1677 H1689 0.930 . S
C1678 C1674 1.524 . S
C1678 H1690 0.956 . S
C1678 H1691 0.961 . S
C1678 H1692 0.961 . S
C1679 C1676 1.539 . S
C1679 H1693 0.958 . S
C1679 H1694 0.961 . S
C1679 H1695 0.960 . S
H1680 C1664 0.931 . S
H1681 C1669 0.929 . S
H1682 C1670 0.960 . S
H1683 C1670 0.962 . S
H1684 C1670 0.960 . S
H1685 C1671 0.961 . S
H1686 C1671 0.961 . S
H1687 C1671 0.961 . S
H1688 C1672 0.931 . S
H1689 C1677 0.930 . S
H1690 C1678 0.956 . S
H1691 C1678 0.961 . S
H1692 C1678 0.961 . S
H1693 C1679 0.958 . S
H1694 C1679 0.961 . S
H1695 C1679 0.960 . S
C1696 C1697 1.391 . S
C1696 C1698 1.394 . S
C1696 H1712 0.931 . S
C1697 C1696 1.391 . S
C1697 C1701 1.376 . S
C1698 C1696 1.394 . S
C1698 C1699 1.369 . S
C1698 C1702 1.531 . S
C1699 C1698 1.369 . S
C1699 C1700 1.410 . S
C1699 C1707 1.503 1_655 S
C1700 C1699 1.410 . S
C1700 C1701 1.392 . S
C1700 C1703 1.511 . S
C1701 C1697 1.376 . S
C1701 C1700 1.392 . S
C1701 H1713 0.929 . S
C1702 C1698 1.531 . S
C1702 H1714 0.960 1_655 S
C1702 H1715 0.962 . S
C1702 H1716 0.960 . S
C1703 C1700 1.511 . S
C1703 H1717 0.961 . S
C1703 H1718 0.961 1_655 S
C1703 H1719 0.961 . S
C1704 C1705 1.370 . S
C1704 C1706 1.363 . S
C1704 H1720 0.931 . S
C1705 C1704 1.370 . S
C1705 C1709 1.408 . S
C1706 C1704 1.363 . S
C1706 C1707 1.370 . S
C1706 C1710 1.524 . S
C1707 C1699 1.503 1_455 S
C1707 C1706 1.370 . S
C1707 C1708 1.403 . S
C1708 C1707 1.403 . S
C1708 C1709 1.404 . S
C1708 C1711 1.539 . S
C1709 C1705 1.408 . S
C1709 C1708 1.404 . S
C1709 H1721 0.930 . S
C1710 C1706 1.524 . S
C1710 H1722 0.983 . S
C1710 H1723 0.918 1_455 S
C1710 H1724 0.961 . S
C1711 C1708 1.539 . S
C1711 H1725 0.958 . S
C1711 H1726 0.961 . S
C1711 H1727 0.968 . S
H1712 C1696 0.931 . S
H1713 C1701 0.929 . S
H1714 C1702 0.960 1_455 S
H1715 C1702 0.962 . S
H1716 C1702 0.960 . S
H1717 C1703 0.961 . S
H1718 C1703 0.961 1_455 S
H1719 C1703 0.961 . S
H1720 C1704 0.931 . S
H1721 C1709 0.930 . S
H1722 C1710 0.983 . S
H1723 C1710 0.918 1_655 S
H1724 C1710 0.961 . S
H1725 C1711 0.958 . S
H1726 C1711 0.961 . S
H1727 C1711 0.968 . S
C1728 C1729 1.391 . S
C1728 C1730 1.394 . S
C1728 H1744 0.931 . S
C1729 C1728 1.391 . S
C1729 C1733 1.376 . S
C1730 C1728 1.394 . S
C1730 C1731 1.369 . S
C1730 C1734 1.531 . S
C1731 C1730 1.369 . S
C1731 C1732 1.410 . S
C1731 C1739 1.503 . S
C1732 C1731 1.410 . S
C1732 C1733 1.392 . S
C1732 C1735 1.511 . S
C1733 C1729 1.376 . S
C1733 C1732 1.392 . S
C1733 H1745 0.929 . S
C1734 C1730 1.531 . S
C1734 H1746 0.960 . S
C1734 H1747 0.962 . S
C1734 H1748 0.960 1_556 S
C1735 C1732 1.511 . S
C1735 H1749 0.961 . S
C1735 H1750 0.961 . S
C1735 H1751 0.961 . S
C1736 C1737 1.370 . S
C1736 C1738 1.363 . S
C1736 H1752 0.931 . S
C1737 C1736 1.370 . S
C1737 C1741 1.408 . S
C1738 C1736 1.363 . S
C1738 C1739 1.370 . S
C1738 C1742 1.524 . S
C1739 C1731 1.503 . S
C1739 C1738 1.370 . S
C1739 C1740 1.403 . S
C1740 C1739 1.403 . S
C1740 C1741 1.404 . S
C1740 C1743 1.539 . S
C1741 C1737 1.408 . S
C1741 C1740 1.404 . S
C1741 H1753 0.930 . S
C1742 C1738 1.524 . S
C1742 H1754 0.956 . S
C1742 H1755 0.961 . S
C1742 H1756 0.961 . S
C1743 C1740 1.539 . S
C1743 H1757 0.958 . S
C1743 H1758 0.961 . S
C1743 H1759 0.960 . S
H1744 C1728 0.931 . S
H1745 C1733 0.929 . S
H1746 C1734 0.960 . S
H1747 C1734 0.962 . S
H1748 C1734 0.960 1_554 S
H1749 C1735 0.961 . S
H1750 C1735 0.961 . S
H1751 C1735 0.961 . S
H1752 C1736 0.931 . S
H1753 C1741 0.930 . S
H1754 C1742 0.956 . S
H1755 C1742 0.961 . S
H1756 C1742 0.961 . S
H1757 C1743 0.958 . S
H1758 C1743 0.961 . S
H1759 C1743 0.960 . S
C1760 C1761 1.391 . S
C1760 C1762 1.394 . S
C1760 H1776 0.931 . S
C1761 C1760 1.391 . S
C1761 C1765 1.376 . S
C1762 C1760 1.394 . S
C1762 C1763 1.369 . S
C1762 C1766 1.531 . S
C1763 C1762 1.369 . S
C1763 C1764 1.410 . S
C1763 C1771 1.503 . S
C1764 C1763 1.410 . S
C1764 C1765 1.392 . S
C1764 C1767 1.511 . S
C1765 C1761 1.376 . S
C1765 C1764 1.392 . S
C1765 H1777 0.929 . S
C1766 C1762 1.531 . S
C1766 H1778 0.960 . S
C1766 H1779 0.962 . S
C1766 H1780 0.960 . S
C1767 C1764 1.511 . S
C1767 H1781 0.961 . S
C1767 H1782 0.961 . S
C1767 H1783 0.961 . S
C1768 C1769 1.370 . S
C1768 C1770 1.363 . S
C1768 H1784 0.931 . S
C1769 C1768 1.370 . S
C1769 C1773 1.408 . S
C1770 C1768 1.363 . S
C1770 C1771 1.370 . S
C1770 C1774 1.524 . S
C1771 C1763 1.503 . S
C1771 C1770 1.370 . S
C1771 C1772 1.403 . S
C1772 C1771 1.403 . S
C1772 C1773 1.404 . S
C1772 C1775 1.539 . S
C1773 C1769 1.408 . S
C1773 C1772 1.404 . S
C1773 H1785 0.930 . S
C1774 C1770 1.524 . S
C1774 H1786 0.956 . S
C1774 H1787 0.961 . S
C1774 H1788 0.961 . S
C1775 C1772 1.539 . S
C1775 H1789 0.958 . S
C1775 H1790 0.961 . S
C1775 H1791 0.960 . S
H1776 C1760 0.931 . S
H1777 C1765 0.929 . S
H1778 C1766 0.960 . S
H1779 C1766 0.962 . S
H1780 C1766 0.960 . S
H1781 C1767 0.961 . S
H1782 C1767 0.961 . S
H1783 C1767 0.961 . S
H1784 C1768 0.931 . S
H1785 C1773 0.930 . S
H1786 C1774 0.956 . S
H1787 C1774 0.961 . S
H1788 C1774 0.961 . S
H1789 C1775 0.958 . S
H1790 C1775 0.961 . S
H1791 C1775 0.960 . S
C1792 C1793 1.391 . S
C1792 C1794 1.394 . S
C1792 H1808 0.931 . S
C1793 C1792 1.391 . S
C1793 C1797 1.376 . S
C1794 C1792 1.394 . S
C1794 C1795 1.369 . S
C1794 C1798 1.531 . S
C1795 C1794 1.369 . S
C1795 C1796 1.410 . S
C1795 C1803 1.503 . S
C1796 C1795 1.410 . S
C1796 C1797 1.392 . S
C1796 C1799 1.511 . S
C1797 C1793 1.376 . S
C1797 C1796 1.392 . S
C1797 H1809 0.929 . S
C1798 C1794 1.531 . S
C1798 H1810 0.960 . S
C1798 H1811 0.962 . S
C1798 H1812 0.960 . S
C1799 C1796 1.511 . S
C1799 H1813 0.961 . S
C1799 H1814 0.961 . S
C1799 H1815 0.961 . S
C1800 C1801 1.370 . S
C1800 C1802 1.363 . S
C1800 H1816 0.931 . S
C1801 C1800 1.370 . S
C1801 C1805 1.408 . S
C1802 C1800 1.363 . S
C1802 C1803 1.370 . S
C1802 C1806 1.524 . S
C1803 C1795 1.503 . S
C1803 C1802 1.370 . S
C1803 C1804 1.403 . S
C1804 C1803 1.403 . S
C1804 C1805 1.404 . S
C1804 C1807 1.539 1_554 S
C1805 C1801 1.408 . S
C1805 C1804 1.404 . S
C1805 H1817 0.930 . S
C1806 C1802 1.524 . S
C1806 H1818 0.956 . S
C1806 H1819 0.961 . S
C1806 H1820 0.961 . S
C1807 C1804 1.539 1_556 S
C1807 H1821 0.958 . S
C1807 H1822 0.961 . S
C1807 H1823 0.960 1_556 S
H1808 C1792 0.931 . S
H1809 C1797 0.929 . S
H1810 C1798 0.960 . S
H1811 C1798 0.962 . S
H1812 C1798 0.960 . S
H1813 C1799 0.961 . S
H1814 C1799 0.961 . S
H1815 C1799 0.961 . S
H1816 C1800 0.931 . S
H1817 C1805 0.930 . S
H1818 C1806 0.956 . S
H1819 C1806 0.961 . S
H1820 C1806 0.961 . S
H1821 C1807 0.958 . S
H1822 C1807 0.961 . S
H1823 C1807 0.960 1_554 S
C1824 C1825 1.391 . S
C1824 C1826 1.394 . S
C1824 H1840 0.931 . S
C1825 C1824 1.391 . S
C1825 C1829 1.376 . S
C1826 C1824 1.394 . S
C1826 C1827 1.369 . S
C1826 C1830 1.531 . S
C1827 C1826 1.369 . S
C1827 C1828 1.410 . S
C1827 C1835 1.503 . S
C1828 C1827 1.410 . S
C1828 C1829 1.392 . S
C1828 C1831 1.511 . S
C1829 C1825 1.376 . S
C1829 C1828 1.392 . S
C1829 H1841 0.929 . S
C1830 C1826 1.531 . S
C1830 H1842 0.960 . S
C1830 H1843 0.962 . S
C1830 H1844 0.960 . S
C1831 C1828 1.511 . S
C1831 H1845 0.961 . S
C1831 H1846 0.961 . S
C1831 H1847 0.961 . S
C1832 C1833 1.370 . S
C1832 C1834 1.363 . S
C1832 H1848 0.931 . S
C1833 C1832 1.370 . S
C1833 C1837 1.408 . S
C1834 C1832 1.363 . S
C1834 C1835 1.370 . S
C1834 C1838 1.524 . S
C1835 C1827 1.503 . S
C1835 C1834 1.370 . S
C1835 C1836 1.403 . S
C1836 C1835 1.403 . S
C1836 C1837 1.404 . S
C1836 C1839 1.539 . S
C1837 C1833 1.408 . S
C1837 C1836 1.404 . S
C1837 H1849 0.930 . S
C1838 C1834 1.524 . S
C1838 H1850 0.956 . S
C1838 H1851 0.961 . S
C1838 H1852 0.961 . S
C1839 C1836 1.539 . S
C1839 H1853 0.958 . S
C1839 H1854 0.961 . S
C1839 H1855 0.960 . S
H1840 C1824 0.931 . S
H1841 C1829 0.929 . S
H1842 C1830 0.960 . S
H1843 C1830 0.962 . S
H1844 C1830 0.960 . S
H1845 C1831 0.961 . S
H1846 C1831 0.961 . S
H1847 C1831 0.961 . S
H1848 C1832 0.931 . S
H1849 C1837 0.930 . S
H1850 C1838 0.956 . S
H1851 C1838 0.961 . S
H1852 C1838 0.961 . S
H1853 C1839 0.958 . S
H1854 C1839 0.961 . S
H1855 C1839 0.960 . S
C1856 C1857 1.391 . S
C1856 C1858 1.394 . S
C1856 H1872 0.931 . S
C1857 C1856 1.391 . S
C1857 C1861 1.376 . S
C1858 C1856 1.394 . S
C1858 C1859 1.369 . S
C1858 C1862 1.531 . S
C1859 C1858 1.369 . S
C1859 C1860 1.410 . S
C1859 C1867 1.503 . S
C1860 C1859 1.410 . S
C1860 C1861 1.392 . S
C1860 C1863 1.511 . S
C1861 C1857 1.376 . S
C1861 C1860 1.392 . S
C1861 H1873 0.929 . S
C1862 C1858 1.531 . S
C1862 H1874 0.960 . S
C1862 H1875 0.962 . S
C1862 H1876 0.960 . S
C1863 C1860 1.511 . S
C1863 H1877 0.961 . S
C1863 H1878 0.961 . S
C1863 H1879 0.961 . S
C1864 C1865 1.370 . S
C1864 C1866 1.363 . S
C1864 H1880 0.931 . S
C1865 C1864 1.370 . S
C1865 C1869 1.408 . S
C1866 C1864 1.363 . S
C1866 C1867 1.370 . S
C1866 C1870 1.524 . S
C1867 C1859 1.503 . S
C1867 C1866 1.370 . S
C1867 C1868 1.403 . S
C1868 C1867 1.403 . S
C1868 C1869 1.404 . S
C1868 C1871 1.539 . S
C1869 C1865 1.408 . S
C1869 C1868 1.404 . S
C1869 H1881 0.930 . S
C1870 C1866 1.524 . S
C1870 H1882 0.956 . S
C1870 H1883 0.961 . S
C1870 H1884 0.961 . S
C1871 C1868 1.539 . S
C1871 H1885 0.958 . S
C1871 H1886 0.961 . S
C1871 H1887 0.960 . S
H1872 C1856 0.931 . S
H1873 C1861 0.929 . S
H1874 C1862 0.960 . S
H1875 C1862 0.962 . S
H1876 C1862 0.960 . S
H1877 C1863 0.961 . S
H1878 C1863 0.961 . S
H1879 C1863 0.961 . S
H1880 C1864 0.931 . S
H1881 C1869 0.930 . S
H1882 C1870 0.956 . S
H1883 C1870 0.961 . S
H1884 C1870 0.961 . S
H1885 C1871 0.958 . S
H1886 C1871 0.961 . S
H1887 C1871 0.960 . S
C1888 C1889 1.391 . S
C1888 C1890 1.394 . S
C1888 H1904 0.931 . S
C1889 C1888 1.391 . S
C1889 C1893 1.376 . S
C1890 C1888 1.394 . S
C1890 C1891 1.369 . S
C1890 C1894 1.531 . S
C1891 C1890 1.369 . S
C1891 C1892 1.410 . S
C1891 C1899 1.503 1_655 S
C1892 C1891 1.410 . S
C1892 C1893 1.392 . S
C1892 C1895 1.511 . S
C1893 C1889 1.376 . S
C1893 C1892 1.392 . S
C1893 H1905 0.929 . S
C1894 C1890 1.531 . S
C1894 H1906 0.960 1_655 S
C1894 H1907 0.962 . S
C1894 H1908 0.960 . S
C1895 C1892 1.511 . S
C1895 H1909 0.961 . S
C1895 H1910 0.961 1_655 S
C1895 H1911 0.961 . S
C1896 C1897 1.370 . S
C1896 C1898 1.363 . S
C1896 H1912 0.931 . S
C1897 C1896 1.370 . S
C1897 C1901 1.408 . S
C1898 C1896 1.363 . S
C1898 C1899 1.370 . S
C1898 C1902 1.524 . S
C1899 C1891 1.503 1_455 S
C1899 C1898 1.370 . S
C1899 C1900 1.403 . S
C1900 C1899 1.403 . S
C1900 C1901 1.404 . S
C1900 C1903 1.539 . S
C1901 C1897 1.408 . S
C1901 C1900 1.404 . S
C1901 H1913 0.930 . S
C1902 C1898 1.524 . S
C1902 H1914 0.983 . S
C1902 H1915 0.918 1_455 S
C1902 H1916 0.961 . S
C1903 C1900 1.539 . S
C1903 H1917 0.958 . S
C1903 H1918 0.961 . S
C1903 H1919 0.968 . S
H1904 C1888 0.931 . S
H1905 C1893 0.929 . S
H1906 C1894 0.960 1_455 S
H1907 C1894 0.962 . S
H1908 C1894 0.960 . S
H1909 C1895 0.961 . S
H1910 C1895 0.961 1_455 S
H1911 C1895 0.961 . S
H1912 C1896 0.931 . S
H1913 C1901 0.930 . S
H1914 C1902 0.983 . S
H1915 C1902 0.918 1_655 S
H1916 C1902 0.961 . S
H1917 C1903 0.958 . S
H1918 C1903 0.961 . S
H1919 C1903 0.968 . S
C1920 C1921 1.391 . S
C1920 C1922 1.394 . S
C1920 H1936 0.931 . S
C1921 C1920 1.391 . S
C1921 C1925 1.376 . S
C1922 C1920 1.394 . S
C1922 C1923 1.369 . S
C1922 C1926 1.531 . S
C1923 C1922 1.369 . S
C1923 C1924 1.410 . S
C1923 C1931 1.503 1_655 S
C1924 C1923 1.410 . S
C1924 C1925 1.392 . S
C1924 C1927 1.511 . S
C1925 C1921 1.376 . S
C1925 C1924 1.392 . S
C1925 H1937 0.929 . S
C1926 C1922 1.531 . S
C1926 H1938 0.960 1_655 S
C1926 H1939 0.962 . S
C1926 H1940 0.960 . S
C1927 C1924 1.511 . S
C1927 H1941 0.961 . S
C1927 H1942 0.961 1_655 S
C1927 H1943 0.961 . S
C1928 C1929 1.370 . S
C1928 C1930 1.363 . S
C1928 H1944 0.931 . S
C1929 C1928 1.370 . S
C1929 C1933 1.408 . S
C1930 C1928 1.363 . S
C1930 C1931 1.370 . S
C1930 C1934 1.524 . S
C1931 C1923 1.503 1_455 S
C1931 C1930 1.370 . S
C1931 C1932 1.403 . S
C1932 C1931 1.403 . S
C1932 C1933 1.404 . S
C1932 C1935 1.539 . S
C1933 C1929 1.408 . S
C1933 C1932 1.404 . S
C1933 H1945 0.930 . S
C1934 C1930 1.524 . S
C1934 H1946 0.983 . S
C1934 H1947 0.918 1_455 S
C1934 H1948 0.961 . S
C1935 C1932 1.539 . S
C1935 H1949 0.958 . S
C1935 H1950 0.961 . S
C1935 H1951 0.968 . S
H1936 C1920 0.931 . S
H1937 C1925 0.929 . S
H1938 C1926 0.960 1_455 S
H1939 C1926 0.962 . S
H1940 C1926 0.960 . S
H1941 C1927 0.961 . S
H1942 C1927 0.961 1_455 S
H1943 C1927 0.961 . S
H1944 C1928 0.931 . S
H1945 C1933 0.930 . S
H1946 C1934 0.983 . S
H1947 C1934 0.918 1_655 S
H1948 C1934 0.961 . S
H1949 C1935 0.958 . S
H1950 C1935 0.961 . S
H1951 C1935 0.968 . S
C1952 C1953 1.391 . S
C1952 C1954 1.394 . S
C1952 H1968 0.931 . S
C1953 C1952 1.391 . S
C1953 C1957 1.376 . S
C1954 C1952 1.394 . S
C1954 C1955 1.369 . S
C1954 C1958 1.531 . S
C1955 C1954 1.369 . S
C1955 C1956 1.410 . S
C1955 C1963 1.503 . S
C1956 C1955 1.410 . S
C1956 C1957 1.392 . S
C1956 C1959 1.511 . S
C1957 C1953 1.376 . S
C1957 C1956 1.392 . S
C1957 H1969 0.929 . S
C1958 C1954 1.531 . S
C1958 H1970 0.960 . S
C1958 H1971 0.962 . S
C1958 H1972 0.960 . S
C1959 C1956 1.511 . S
C1959 H1973 0.961 . S
C1959 H1974 0.961 . S
C1959 H1975 0.961 . S
C1960 C1961 1.370 . S
C1960 C1962 1.363 . S
C1960 H1976 0.931 . S
C1961 C1960 1.370 . S
C1961 C1965 1.408 . S
C1962 C1960 1.363 . S
C1962 C1963 1.370 . S
C1962 C1966 1.524 . S
C1963 C1955 1.503 . S
C1963 C1962 1.370 . S
C1963 C1964 1.403 . S
C1964 C1963 1.403 . S
C1964 C1965 1.404 . S
C1964 C1967 1.539 . S
C1965 C1961 1.408 . S
C1965 C1964 1.404 . S
C1965 H1977 0.930 . S
C1966 C1962 1.524 . S
C1966 H1978 0.956 . S
C1966 H1979 0.961 . S
C1966 H1980 0.961 . S
C1967 C1964 1.539 . S
C1967 H1981 0.958 . S
C1967 H1982 0.961 . S
C1967 H1983 0.960 . S
H1968 C1952 0.931 . S
H1969 C1957 0.929 . S
H1970 C1958 0.960 . S
H1971 C1958 0.962 . S
H1972 C1958 0.960 . S
H1973 C1959 0.961 . S
H1974 C1959 0.961 . S
H1975 C1959 0.961 . S
H1976 C1960 0.931 . S
H1977 C1965 0.930 . S
H1978 C1966 0.956 . S
H1979 C1966 0.961 . S
H1980 C1966 0.961 . S
H1981 C1967 0.958 . S
H1982 C1967 0.961 . S
H1983 C1967 0.960 . S
C1984 C1985 1.391 . S
C1984 C1986 1.394 . S
C1984 H2000 0.931 . S
C1985 C1984 1.391 . S
C1985 C1989 1.376 . S
C1986 C1984 1.394 . S
C1986 C1987 1.369 . S
C1986 C1990 1.531 . S
C1987 C1986 1.369 . S
C1987 C1988 1.410 . S
C1987 C1995 1.503 . S
C1988 C1987 1.410 . S
C1988 C1989 1.392 . S
C1988 C1991 1.511 . S
C1989 C1985 1.376 . S
C1989 C1988 1.392 . S
C1989 H2001 0.929 . S
C1990 C1986 1.531 . S
C1990 H2002 0.960 . S
C1990 H2003 0.962 . S
C1990 H2004 0.960 . S
C1991 C1988 1.511 . S
C1991 H2005 0.961 . S
C1991 H2006 0.961 . S
C1991 H2007 0.961 . S
C1992 C1993 1.370 . S
C1992 C1994 1.363 . S
C1992 H2008 0.931 . S
C1993 C1992 1.370 . S
C1993 C1997 1.408 . S
C1994 C1992 1.363 . S
C1994 C1995 1.370 . S
C1994 C1998 1.524 . S
C1995 C1987 1.503 . S
C1995 C1994 1.370 . S
C1995 C1996 1.403 . S
C1996 C1995 1.403 . S
C1996 C1997 1.404 . S
C1996 C1999 1.539 . S
C1997 C1993 1.408 . S
C1997 C1996 1.404 . S
C1997 H2009 0.930 . S
C1998 C1994 1.524 . S
C1998 H2010 0.956 . S
C1998 H2011 0.961 . S
C1998 H2012 0.961 . S
C1999 C1996 1.539 . S
C1999 H2013 0.958 . S
C1999 H2014 0.961 . S
C1999 H2015 0.960 . S
H2000 C1984 0.931 . S
H2001 C1989 0.929 . S
H2002 C1990 0.960 . S
H2003 C1990 0.962 . S
H2004 C1990 0.960 . S
H2005 C1991 0.961 . S
H2006 C1991 0.961 . S
H2007 C1991 0.961 . S
H2008 C1992 0.931 . S
H2009 C1997 0.930 . S
H2010 C1998 0.956 . S
H2011 C1998 0.961 . S
H2012 C1998 0.961 . S
H2013 C1999 0.958 . S
H2014 C1999 0.961 . S
H2015 C1999 0.960 . S
C2016 C2017 1.391 . S
C2016 C2018 1.394 . S
C2016 H2032 0.931 . S
C2017 C2016 1.391 . S
C2017 C2021 1.376 . S
C2018 C2016 1.394 . S
C2018 C2019 1.369 . S
C2018 C2022 1.531 . S
C2019 C2018 1.369 . S
C2019 C2020 1.410 . S
C2019 C2027 1.503 . S
C2020 C2019 1.410 . S
C2020 C2021 1.392 . S
C2020 C2023 1.511 . S
C2021 C2017 1.376 . S
C2021 C2020 1.392 . S
C2021 H2033 0.929 . S
C2022 C2018 1.531 . S
C2022 H2034 0.960 . S
C2022 H2035 0.962 . S
C2022 H2036 0.960 . S
C2023 C2020 1.511 . S
C2023 H2037 0.961 . S
C2023 H2038 0.961 . S
C2023 H2039 0.961 . S
C2024 C2025 1.370 . S
C2024 C2026 1.363 . S
C2024 H2040 0.931 . S
C2025 C2024 1.370 . S
C2025 C2029 1.408 . S
C2026 C2024 1.363 . S
C2026 C2027 1.370 . S
C2026 C2030 1.524 . S
C2027 C2019 1.503 . S
C2027 C2026 1.370 . S
C2027 C2028 1.403 . S
C2028 C2027 1.403 . S
C2028 C2029 1.404 . S
C2028 C2031 1.539 . S
C2029 C2025 1.408 . S
C2029 C2028 1.404 . S
C2029 H2041 0.930 . S
C2030 C2026 1.524 . S
C2030 H2042 0.956 . S
C2030 H2043 0.961 . S
C2030 H2044 0.961 . S
C2031 C2028 1.539 . S
C2031 H2045 0.958 . S
C2031 H2046 0.961 . S
C2031 H2047 0.960 . S
H2032 C2016 0.931 . S
H2033 C2021 0.929 . S
H2034 C2022 0.960 . S
H2035 C2022 0.962 . S
H2036 C2022 0.960 . S
H2037 C2023 0.961 . S
H2038 C2023 0.961 . S
H2039 C2023 0.961 . S
H2040 C2024 0.931 . S
H2041 C2029 0.930 . S
H2042 C2030 0.956 . S
H2043 C2030 0.961 . S
H2044 C2030 0.961 . S
H2045 C2031 0.958 . S
H2046 C2031 0.961 . S
H2047 C2031 0.960 . S
C2048 C2049 1.391 . S
C2048 C2050 1.394 . S
C2048 H2064 0.931 1_556 S
C2049 C2048 1.391 . S
C2049 C2053 1.376 . S
C2050 C2048 1.394 . S
C2050 C2051 1.369 . S
C2050 C2054 1.531 . S
C2051 C2050 1.369 . S
C2051 C2052 1.410 . S
C2051 C2059 1.503 . S
C2052 C2051 1.410 . S
C2052 C2053 1.392 . S
C2052 C2055 1.511 . S
C2053 C2049 1.376 . S
C2053 C2052 1.392 . S
C2053 H2065 0.929 . S
C2054 C2050 1.531 . S
C2054 H2066 0.960 . S
C2054 H2067 0.962 . S
C2054 H2068 0.960 . S
C2055 C2052 1.511 . S
C2055 H2069 0.961 . S
C2055 H2070 0.961 . S
C2055 H2071 0.961 . S
C2056 C2057 1.370 . S
C2056 C2058 1.363 . S
C2056 H2072 0.931 . S
C2057 C2056 1.370 . S
C2057 C2061 1.408 . S
C2058 C2056 1.363 . S
C2058 C2059 1.370 . S
C2058 C2062 1.524 . S
C2059 C2051 1.503 . S
C2059 C2058 1.370 . S
C2059 C2060 1.403 . S
C2060 C2059 1.403 . S
C2060 C2061 1.404 . S
C2060 C2063 1.539 . S
C2061 C2057 1.408 . S
C2061 C2060 1.404 . S
C2061 H2073 0.930 . S
C2062 C2058 1.524 . S
C2062 H2074 0.956 . S
C2062 H2075 0.961 . S
C2062 H2076 0.961 . S
C2063 C2060 1.539 . S
C2063 H2077 0.958 . S
C2063 H2078 0.961 . S
C2063 H2079 0.960 . S
H2064 C2048 0.931 1_554 S
H2065 C2053 0.929 . S
H2066 C2054 0.960 . S
H2067 C2054 0.962 . S
H2068 C2054 0.960 . S
H2069 C2055 0.961 . S
H2070 C2055 0.961 . S
H2071 C2055 0.961 . S
H2072 C2056 0.931 . S
H2073 C2061 0.930 . S
H2074 C2062 0.956 . S
H2075 C2062 0.961 . S
H2076 C2062 0.961 . S
H2077 C2063 0.958 . S
H2078 C2063 0.961 . S
H2079 C2063 0.960 . S
C2080 C2081 1.391 . S
C2080 C2082 1.394 . S
C2080 H2096 0.931 1_554 S
C2081 C2080 1.391 . S
C2081 C2085 1.376 . S
C2082 C2080 1.394 . S
C2082 C2083 1.369 . S
C2082 C2086 1.531 . S
C2083 C2082 1.369 . S
C2083 C2084 1.410 . S
C2083 C2091 1.503 . S
C2084 C2083 1.410 . S
C2084 C2085 1.392 . S
C2084 C2087 1.511 . S
C2085 C2081 1.376 . S
C2085 C2084 1.392 . S
C2085 H2097 0.929 . S
C2086 C2082 1.531 . S
C2086 H2098 0.960 . S
C2086 H2099 0.962 . S
C2086 H2100 0.960 . S
C2087 C2084 1.511 . S
C2087 H2101 0.961 . S
C2087 H2102 0.961 . S
C2087 H2103 0.961 . S
C2088 C2089 1.370 . S
C2088 C2090 1.363 . S
C2088 H2104 0.931 . S
C2089 C2088 1.370 . S
C2089 C2093 1.408 . S
C2090 C2088 1.363 . S
C2090 C2091 1.370 . S
C2090 C2094 1.524 . S
C2091 C2083 1.503 . S
C2091 C2090 1.370 . S
C2091 C2092 1.403 . S
C2092 C2091 1.403 . S
C2092 C2093 1.404 . S
C2092 C2095 1.539 . S
C2093 C2089 1.408 . S
C2093 C2092 1.404 . S
C2093 H2105 0.930 . S
C2094 C2090 1.524 . S
C2094 H2106 0.956 . S
C2094 H2107 0.961 . S
C2094 H2108 0.961 . S
C2095 C2092 1.539 . S
C2095 H2109 0.958 . S
C2095 H2110 0.961 . S
C2095 H2111 0.960 . S
H2096 C2080 0.931 1_556 S
H2097 C2085 0.929 . S
H2098 C2086 0.960 . S
H2099 C2086 0.962 . S
H2100 C2086 0.960 . S
H2101 C2087 0.961 . S
H2102 C2087 0.961 . S
H2103 C2087 0.961 . S
H2104 C2088 0.931 . S
H2105 C2093 0.930 . S
H2106 C2094 0.956 . S
H2107 C2094 0.961 . S
H2108 C2094 0.961 . S
H2109 C2095 0.958 . S
H2110 C2095 0.961 . S
H2111 C2095 0.960 . S
C2112 C2113 1.391 . S
C2112 C2114 1.394 . S
C2112 H2128 0.931 . S
C2113 C2112 1.391 . S
C2113 C2117 1.376 . S
C2114 C2112 1.394 . S
C2114 C2115 1.369 . S
C2114 C2118 1.531 . S
C2115 C2114 1.369 . S
C2115 C2116 1.410 . S
C2115 C2123 1.503 . S
C2116 C2115 1.410 . S
C2116 C2117 1.392 . S
C2116 C2119 1.511 . S
C2117 C2113 1.376 . S
C2117 C2116 1.392 . S
C2117 H2129 0.929 . S
C2118 C2114 1.531 . S
C2118 H2130 0.960 . S
C2118 H2131 0.962 . S
C2118 H2132 0.960 . S
C2119 C2116 1.511 . S
C2119 H2133 0.961 . S
C2119 H2134 0.961 . S
C2119 H2135 0.961 . S
C2120 C2121 1.370 . S
C2120 C2122 1.363 . S
C2120 H2136 0.931 . S
C2121 C2120 1.370 . S
C2121 C2125 1.408 . S
C2122 C2120 1.363 . S
C2122 C2123 1.370 . S
C2122 C2126 1.524 . S
C2123 C2115 1.503 . S
C2123 C2122 1.370 . S
C2123 C2124 1.403 . S
C2124 C2123 1.403 . S
C2124 C2125 1.404 . S
C2124 C2127 1.539 . S
C2125 C2121 1.408 . S
C2125 C2124 1.404 . S
C2125 H2137 0.930 . S
C2126 C2122 1.524 . S
C2126 H2138 0.956 . S
C2126 H2139 0.961 . S
C2126 H2140 0.961 . S
C2127 C2124 1.539 . S
C2127 H2141 0.958 . S
C2127 H2142 0.961 . S
C2127 H2143 0.960 . S
H2128 C2112 0.931 . S
H2129 C2117 0.929 . S
H2130 C2118 0.960 . S
H2131 C2118 0.962 . S
H2132 C2118 0.960 . S
H2133 C2119 0.961 . S
H2134 C2119 0.961 . S
H2135 C2119 0.961 . S
H2136 C2120 0.931 . S
H2137 C2125 0.930 . S
H2138 C2126 0.956 . S
H2139 C2126 0.961 . S
H2140 C2126 0.961 . S
H2141 C2127 0.958 . S
H2142 C2127 0.961 . S
H2143 C2127 0.960 . S
C2144 C2145 1.391 . S
C2144 C2146 1.394 . S
C2144 H2160 0.931 . S
C2145 C2144 1.391 . S
C2145 C2149 1.376 . S
C2146 C2144 1.394 . S
C2146 C2147 1.369 . S
C2146 C2150 1.531 . S
C2147 C2146 1.369 . S
C2147 C2148 1.410 . S
C2147 C2155 1.503 . S
C2148 C2147 1.410 . S
C2148 C2149 1.392 . S
C2148 C2151 1.511 . S
C2149 C2145 1.376 . S
C2149 C2148 1.392 . S
C2149 H2161 0.929 . S
C2150 C2146 1.531 . S
C2150 H2162 0.960 . S
C2150 H2163 0.962 . S
C2150 H2164 0.960 . S
C2151 C2148 1.511 . S
C2151 H2165 0.961 . S
C2151 H2166 0.961 . S
C2151 H2167 0.961 . S
C2152 C2153 1.370 . S
C2152 C2154 1.363 . S
C2152 H2168 0.931 . S
C2153 C2152 1.370 . S
C2153 C2157 1.408 . S
C2154 C2152 1.363 . S
C2154 C2155 1.370 . S
C2154 C2158 1.524 . S
C2155 C2147 1.503 . S
C2155 C2154 1.370 . S
C2155 C2156 1.403 . S
C2156 C2155 1.403 . S
C2156 C2157 1.404 . S
C2156 C2159 1.539 . S
C2157 C2153 1.408 . S
C2157 C2156 1.404 . S
C2157 H2169 0.930 . S
C2158 C2154 1.524 . S
C2158 H2170 0.956 . S
C2158 H2171 0.961 . S
C2158 H2172 0.961 . S
C2159 C2156 1.539 . S
C2159 H2173 0.958 . S
C2159 H2174 0.961 . S
C2159 H2175 0.960 . S
H2160 C2144 0.931 . S
H2161 C2149 0.929 . S
H2162 C2150 0.960 . S
H2163 C2150 0.962 . S
H2164 C2150 0.960 . S
H2165 C2151 0.961 . S
H2166 C2151 0.961 . S
H2167 C2151 0.961 . S
H2168 C2152 0.931 . S
H2169 C2157 0.930 . S
H2170 C2158 0.956 . S
H2171 C2158 0.961 . S
H2172 C2158 0.961 . S
H2173 C2159 0.958 . S
H2174 C2159 0.961 . S
H2175 C2159 0.960 . S
C2176 C2177 1.391 . S
C2176 C2178 1.394 . S
C2176 H2192 0.931 . S
C2177 C2176 1.391 . S
C2177 C2181 1.376 . S
C2178 C2176 1.394 . S
C2178 C2179 1.369 . S
C2178 C2182 1.531 . S
C2179 C2178 1.369 . S
C2179 C2180 1.410 . S
C2179 C2187 1.503 . S
C2180 C2179 1.410 . S
C2180 C2181 1.392 . S
C2180 C2183 1.511 . S
C2181 C2177 1.376 . S
C2181 C2180 1.392 . S
C2181 H2193 0.929 . S
C2182 C2178 1.531 . S
C2182 H2194 0.960 . S
C2182 H2195 0.962 . S
C2182 H2196 0.960 . S
C2183 C2180 1.511 . S
C2183 H2197 0.961 . S
C2183 H2198 0.961 . S
C2183 H2199 0.961 . S
C2184 C2185 1.370 . S
C2184 C2186 1.363 . S
C2184 H2200 0.931 1_554 S
C2185 C2184 1.370 . S
C2185 C2189 1.408 . S
C2186 C2184 1.363 . S
C2186 C2187 1.370 . S
C2186 C2190 1.524 . S
C2187 C2179 1.503 . S
C2187 C2186 1.370 . S
C2187 C2188 1.403 . S
C2188 C2187 1.403 . S
C2188 C2189 1.404 . S
C2188 C2191 1.539 . S
C2189 C2185 1.408 . S
C2189 C2188 1.404 . S
C2189 H2201 0.930 . S
C2190 C2186 1.524 . S
C2190 H2202 0.956 . S
C2190 H2203 0.961 . S
C2190 H2204 0.961 . S
C2191 C2188 1.539 . S
C2191 H2205 0.958 . S
C2191 H2206 0.961 . S
C2191 H2207 0.960 . S
H2192 C2176 0.931 . S
H2193 C2181 0.929 . S
H2194 C2182 0.960 . S
H2195 C2182 0.962 . S
H2196 C2182 0.960 . S
H2197 C2183 0.961 . S
H2198 C2183 0.961 . S
H2199 C2183 0.961 . S
H2200 C2184 0.931 1_556 S
H2201 C2189 0.930 . S
H2202 C2190 0.956 . S
H2203 C2190 0.961 . S
H2204 C2190 0.961 . S
H2205 C2191 0.958 . S
H2206 C2191 0.961 . S
H2207 C2191 0.960 . S
C2208 C2209 1.391 . S
C2208 C2210 1.394 . S
C2208 H2224 0.931 . S
C2209 C2208 1.391 . S
C2209 C2213 1.376 . S
C2210 C2208 1.394 . S
C2210 C2211 1.369 . S
C2210 C2214 1.531 . S
C2211 C2210 1.369 . S
C2211 C2212 1.410 . S
C2211 C2219 1.503 . S
C2212 C2211 1.410 . S
C2212 C2213 1.392 . S
C2212 C2215 1.511 . S
C2213 C2209 1.376 . S
C2213 C2212 1.392 . S
C2213 H2225 0.929 . S
C2214 C2210 1.531 . S
C2214 H2226 0.960 . S
C2214 H2227 0.962 . S
C2214 H2228 0.960 . S
C2215 C2212 1.511 . S
C2215 H2229 0.961 . S
C2215 H2230 0.961 . S
C2215 H2231 0.961 . S
C2216 C2217 1.370 . S
C2216 C2218 1.363 . S
C2216 H2232 0.931 1_556 S
C2217 C2216 1.370 . S
C2217 C2221 1.408 . S
C2218 C2216 1.363 . S
C2218 C2219 1.370 . S
C2218 C2222 1.524 . S
C2219 C2211 1.503 . S
C2219 C2218 1.370 . S
C2219 C2220 1.403 . S
C2220 C2219 1.403 . S
C2220 C2221 1.404 . S
C2220 C2223 1.539 . S
C2221 C2217 1.408 . S
C2221 C2220 1.404 . S
C2221 H2233 0.930 . S
C2222 C2218 1.524 . S
C2222 H2234 0.956 . S
C2222 H2235 0.961 . S
C2222 H2236 0.961 . S
C2223 C2220 1.539 . S
C2223 H2237 0.958 . S
C2223 H2238 0.961 . S
C2223 H2239 0.960 . S
H2224 C2208 0.931 . S
H2225 C2213 0.929 . S
H2226 C2214 0.960 . S
H2227 C2214 0.962 . S
H2228 C2214 0.960 . S
H2229 C2215 0.961 . S
H2230 C2215 0.961 . S
H2231 C2215 0.961 . S
H2232 C2216 0.931 1_554 S
H2233 C2221 0.930 . S
H2234 C2222 0.956 . S
H2235 C2222 0.961 . S
H2236 C2222 0.961 . S
H2237 C2223 0.958 . S
H2238 C2223 0.961 . S
H2239 C2223 0.960 . S
C2240 C2241 1.388 1_554 S
C2240 C2242 1.378 1_554 S
C2240 H2256 0.949 . S
C2241 C2240 1.388 1_556 S
C2241 C2245 1.376 . S
C2242 C2240 1.378 1_556 S
C2242 C2243 1.369 . S
C2242 C2246 1.531 . S
C2243 C2242 1.369 . S
C2243 C2244 1.410 . S
C2243 C2251 1.503 . S
C2244 C2243 1.410 . S
C2244 C2245 1.392 . S
C2244 C2247 1.511 . S
C2245 C2241 1.376 . S
C2245 C2244 1.392 . S
C2245 H2257 0.929 . S
C2246 C2242 1.531 . S
C2246 H2258 0.960 . S
C2246 H2259 0.962 . S
C2246 H2260 0.960 . S
C2247 C2244 1.511 . S
C2247 H2261 0.961 . S
C2247 H2262 0.961 . S
C2247 H2263 0.961 . S
C2248 C2249 1.370 . S
C2248 C2250 1.363 . S
C2248 H2264 0.931 . S
C2249 C2248 1.370 . S
C2249 C2253 1.408 . S
C2250 C2248 1.363 . S
C2250 C2251 1.370 . S
C2250 C2254 1.524 . S
C2251 C2243 1.503 . S
C2251 C2250 1.370 . S
C2251 C2252 1.403 . S
C2252 C2251 1.403 . S
C2252 C2253 1.404 . S
C2252 C2255 1.539 . S
C2253 C2249 1.408 . S
C2253 C2252 1.404 . S
C2253 H2265 0.930 . S
C2254 C2250 1.524 . S
C2254 H2266 0.956 . S
C2254 H2267 0.961 . S
C2254 H2268 0.961 . S
C2255 C2252 1.539 . S
C2255 H2269 0.958 . S
C2255 H2270 0.961 . S
C2255 H2271 0.960 . S
H2256 C2240 0.949 . S
H2257 C2245 0.929 . S
H2258 C2246 0.960 . S
H2259 C2246 0.962 . S
H2260 C2246 0.960 . S
H2261 C2247 0.961 . S
H2262 C2247 0.961 . S
H2263 C2247 0.961 . S
H2264 C2248 0.931 . S
H2265 C2253 0.930 . S
H2266 C2254 0.956 . S
H2267 C2254 0.961 . S
H2268 C2254 0.961 . S
H2269 C2255 0.958 . S
H2270 C2255 0.961 . S
H2271 C2255 0.960 . S
C2272 C2273 1.391 . S
C2272 C2274 1.394 . S
C2272 H2288 0.931 . S
C2273 C2272 1.391 . S
C2273 C2277 1.376 . S
C2274 C2272 1.394 . S
C2274 C2275 1.369 . S
C2274 C2278 1.531 . S
C2275 C2274 1.369 . S
C2275 C2276 1.410 . S
C2275 C2283 1.503 . S
C2276 C2275 1.410 . S
C2276 C2277 1.392 . S
C2276 C2279 1.511 . S
C2277 C2273 1.376 . S
C2277 C2276 1.392 . S
C2277 H2289 0.929 . S
C2278 C2274 1.531 . S
C2278 H2290 0.960 . S
C2278 H2291 0.962 . S
C2278 H2292 0.960 . S
C2279 C2276 1.511 . S
C2279 H2293 0.961 . S
C2279 H2294 0.961 . S
C2279 H2295 0.961 . S
C2280 C2281 1.370 . S
C2280 C2282 1.363 . S
C2280 H2296 0.931 . S
C2281 C2280 1.370 . S
C2281 C2285 1.408 . S
C2282 C2280 1.363 . S
C2282 C2283 1.370 . S
C2282 C2286 1.524 . S
C2283 C2275 1.503 . S
C2283 C2282 1.370 . S
C2283 C2284 1.403 . S
C2284 C2283 1.403 . S
C2284 C2285 1.404 . S
C2284 C2287 1.539 . S
C2285 C2281 1.408 . S
C2285 C2284 1.404 . S
C2285 H2297 0.930 . S
C2286 C2282 1.524 . S
C2286 H2298 0.956 . S
C2286 H2299 0.961 . S
C2286 H2300 0.961 . S
C2287 C2284 1.539 . S
C2287 H2301 0.958 . S
C2287 H2302 0.961 . S
C2287 H2303 0.960 . S
H2288 C2272 0.931 . S
H2289 C2277 0.929 . S
H2290 C2278 0.960 . S
H2291 C2278 0.962 . S
H2292 C2278 0.960 . S
H2293 C2279 0.961 . S
H2294 C2279 0.961 . S
H2295 C2279 0.961 . S
H2296 C2280 0.931 . S
H2297 C2285 0.930 . S
H2298 C2286 0.956 . S
H2299 C2286 0.961 . S
H2300 C2286 0.961 . S
H2301 C2287 0.958 . S
H2302 C2287 0.961 . S
H2303 C2287 0.960 . S
C2304 C2305 1.391 . S
C2304 C2306 1.394 . S
C2304 H2320 0.931 . S
C2305 C2304 1.391 . S
C2305 C2309 1.376 . S
C2306 C2304 1.394 . S
C2306 C2307 1.369 . S
C2306 C2310 1.531 . S
C2307 C2306 1.369 . S
C2307 C2308 1.410 . S
C2307 C2315 1.503 . S
C2308 C2307 1.410 . S
C2308 C2309 1.392 . S
C2308 C2311 1.511 . S
C2309 C2305 1.376 . S
C2309 C2308 1.392 . S
C2309 H2321 0.929 . S
C2310 C2306 1.531 . S
C2310 H2322 0.960 . S
C2310 H2323 0.962 . S
C2310 H2324 0.960 . S
C2311 C2308 1.511 . S
C2311 H2325 0.961 . S
C2311 H2326 0.961 . S
C2311 H2327 0.961 . S
C2312 C2313 1.370 . S
C2312 C2314 1.363 . S
C2312 H2328 0.931 . S
C2313 C2312 1.370 . S
C2313 C2317 1.408 . S
C2314 C2312 1.363 . S
C2314 C2315 1.370 . S
C2314 C2318 1.524 . S
C2315 C2307 1.503 . S
C2315 C2314 1.370 . S
C2315 C2316 1.403 . S
C2316 C2315 1.403 . S
C2316 C2317 1.404 . S
C2316 C2319 1.539 . S
C2317 C2313 1.408 . S
C2317 C2316 1.404 . S
C2317 H2329 0.930 . S
C2318 C2314 1.524 . S
C2318 H2330 0.956 . S
C2318 H2331 0.961 . S
C2318 H2332 0.961 . S
C2319 C2316 1.539 . S
C2319 H2333 0.958 . S
C2319 H2334 0.961 . S
C2319 H2335 0.960 . S
H2320 C2304 0.931 . S
H2321 C2309 0.929 . S
H2322 C2310 0.960 . S
H2323 C2310 0.962 . S
H2324 C2310 0.960 . S
H2325 C2311 0.961 . S
H2326 C2311 0.961 . S
H2327 C2311 0.961 . S
H2328 C2312 0.931 . S
H2329 C2317 0.930 . S
H2330 C2318 0.956 . S
H2331 C2318 0.961 . S
H2332 C2318 0.961 . S
H2333 C2319 0.958 . S
H2334 C2319 0.961 . S
H2335 C2319 0.960 . S
C2336 C2337 1.391 . S
C2336 C2338 1.394 . S
C2336 H2352 0.931 . S
C2337 C2336 1.391 . S
C2337 C2341 1.376 . S
C2338 C2336 1.394 . S
C2338 C2339 1.369 . S
C2338 C2342 1.531 . S
C2339 C2338 1.369 . S
C2339 C2340 1.410 . S
C2339 C2347 1.503 . S
C2340 C2339 1.410 . S
C2340 C2341 1.392 . S
C2340 C2343 1.511 . S
C2341 C2337 1.376 . S
C2341 C2340 1.392 . S
C2341 H2353 0.929 . S
C2342 C2338 1.531 . S
C2342 H2354 0.960 . S
C2342 H2355 0.962 . S
C2342 H2356 0.960 . S
C2343 C2340 1.511 . S
C2343 H2357 0.961 . S
C2343 H2358 0.961 . S
C2343 H2359 0.961 . S
C2344 C2345 1.370 . S
C2344 C2346 1.363 . S
C2344 H2360 0.931 . S
C2345 C2344 1.370 . S
C2345 C2349 1.408 . S
C2346 C2344 1.363 . S
C2346 C2347 1.370 . S
C2346 C2350 1.524 . S
C2347 C2339 1.503 . S
C2347 C2346 1.370 . S
C2347 C2348 1.403 . S
C2348 C2347 1.403 . S
C2348 C2349 1.404 . S
C2348 C2351 1.539 . S
C2349 C2345 1.408 . S
C2349 C2348 1.404 . S
C2349 H2361 0.930 . S
C2350 C2346 1.524 . S
C2350 H2362 0.956 . S
C2350 H2363 0.961 . S
C2350 H2364 0.961 . S
C2351 C2348 1.539 . S
C2351 H2365 0.958 . S
C2351 H2366 0.961 . S
C2351 H2367 0.960 . S
H2352 C2336 0.931 . S
H2353 C2341 0.929 . S
H2354 C2342 0.960 . S
H2355 C2342 0.962 . S
H2356 C2342 0.960 . S
H2357 C2343 0.961 . S
H2358 C2343 0.961 . S
H2359 C2343 0.961 . S
H2360 C2344 0.931 . S
H2361 C2349 0.930 . S
H2362 C2350 0.956 . S
H2363 C2350 0.961 . S
H2364 C2350 0.961 . S
H2365 C2351 0.958 . S
H2366 C2351 0.961 . S
H2367 C2351 0.960 . S
C2368 C2369 1.391 . S
C2368 C2370 1.394 . S
C2368 H2384 0.931 . S
C2369 C2368 1.391 . S
C2369 C2373 1.376 . S
C2370 C2368 1.394 . S
C2370 C2371 1.369 . S
C2370 C2374 1.531 . S
C2371 C2370 1.369 . S
C2371 C2372 1.410 . S
C2371 C2379 1.503 . S
C2372 C2371 1.410 . S
C2372 C2373 1.392 . S
C2372 C2375 1.511 . S
C2373 C2369 1.376 . S
C2373 C2372 1.392 . S
C2373 H2385 0.929 . S
C2374 C2370 1.531 . S
C2374 H2386 0.960 . S
C2374 H2387 0.962 . S
C2374 H2388 0.960 . S
C2375 C2372 1.511 . S
C2375 H2389 0.961 . S
C2375 H2390 0.961 . S
C2375 H2391 0.961 . S
C2376 C2377 1.370 . S
C2376 C2378 1.363 . S
C2376 H2392 0.931 . S
C2377 C2376 1.370 . S
C2377 C2381 1.408 1_554 S
C2378 C2376 1.363 . S
C2378 C2379 1.370 . S
C2378 C2382 1.524 . S
C2379 C2371 1.503 . S
C2379 C2378 1.370 . S
C2379 C2380 1.403 . S
C2380 C2379 1.403 . S
C2380 C2381 1.404 1_554 S
C2380 C2383 1.539 . S
C2381 C2377 1.408 1_556 S
C2381 C2380 1.404 1_556 S
C2381 H2393 0.930 . S
C2382 C2378 1.524 . S
C2382 H2394 0.956 . S
C2382 H2395 0.961 . S
C2382 H2396 0.961 . S
C2383 C2380 1.539 . S
C2383 H2397 0.958 . S
C2383 H2398 0.961 1_554 S
C2383 H2399 0.960 . S
H2384 C2368 0.931 . S
H2385 C2373 0.929 . S
H2386 C2374 0.960 . S
H2387 C2374 0.962 . S
H2388 C2374 0.960 . S
H2389 C2375 0.961 . S
H2390 C2375 0.961 . S
H2391 C2375 0.961 . S
H2392 C2376 0.931 . S
H2393 C2381 0.930 . S
H2394 C2382 0.956 . S
H2395 C2382 0.961 . S
H2396 C2382 0.961 . S
H2397 C2383 0.958 . S
H2398 C2383 0.961 1_556 S
H2399 C2383 0.960 . S
C2400 C2401 1.391 . S
C2400 C2402 1.394 . S
C2400 H2416 0.931 . S
C2401 C2400 1.391 . S
C2401 C2405 1.376 1_556 S
C2402 C2400 1.394 . S
C2402 C2403 1.369 . S
C2402 C2406 1.531 . S
C2403 C2402 1.369 . S
C2403 C2404 1.410 . S
C2403 C2411 1.503 . S
C2404 C2403 1.410 . S
C2404 C2405 1.392 1_556 S
C2404 C2407 1.511 . S
C2405 C2401 1.376 1_554 S
C2405 C2404 1.392 1_554 S
C2405 H2417 0.929 . S
C2406 C2402 1.531 . S
C2406 H2418 0.960 . S
C2406 H2419 0.962 . S
C2406 H2420 0.960 . S
C2407 C2404 1.511 . S
C2407 H2421 0.960 . S
C2407 H2422 0.961 . S
C2407 H2423 0.961 . S
C2408 C2409 1.370 . S
C2408 C2410 1.363 . S
C2408 H2424 0.931 . S
C2409 C2408 1.370 . S
C2409 C2413 1.408 . S
C2410 C2408 1.363 . S
C2410 C2411 1.370 . S
C2410 C2414 1.524 . S
C2411 C2403 1.503 . S
C2411 C2410 1.370 . S
C2411 C2412 1.403 . S
C2412 C2411 1.403 . S
C2412 C2413 1.404 . S
C2412 C2415 1.539 . S
C2413 C2409 1.408 . S
C2413 C2412 1.404 . S
C2413 H2425 0.930 . S
C2414 C2410 1.524 . S
C2414 H2426 0.956 . S
C2414 H2427 0.961 . S
C2414 H2428 0.961 . S
C2415 C2412 1.539 . S
C2415 H2429 0.958 . S
C2415 H2430 0.961 . S
C2415 H2431 0.960 . S
H2416 C2400 0.931 . S
H2417 C2405 0.929 . S
H2418 C2406 0.960 . S
H2419 C2406 0.962 . S
H2420 C2406 0.960 . S
H2421 C2407 0.960 . S
H2422 C2407 0.961 . S
H2423 C2407 0.961 . S
H2424 C2408 0.931 . S
H2425 C2413 0.930 . S
H2426 C2414 0.956 . S
H2427 C2414 0.961 . S
H2428 C2414 0.961 . S
H2429 C2415 0.958 . S
H2430 C2415 0.961 . S
H2431 C2415 0.960 . S
C2432 C2433 1.391 . S
C2432 C2434 1.394 . S
C2432 H2448 0.931 . S
C2433 C2432 1.391 . S
C2433 C2437 1.376 . S
C2434 C2432 1.394 . S
C2434 C2435 1.369 . S
C2434 C2438 1.531 . S
C2435 C2434 1.369 . S
C2435 C2436 1.410 . S
C2435 C2443 1.503 . S
C2436 C2435 1.410 . S
C2436 C2437 1.392 . S
C2436 C2439 1.511 . S
C2437 C2433 1.376 . S
C2437 C2436 1.392 . S
C2437 H2449 0.929 . S
C2438 C2434 1.531 . S
C2438 H2450 0.960 . S
C2438 H2451 0.962 . S
C2438 H2452 0.960 . S
C2439 C2436 1.511 . S
C2439 H2453 0.961 . S
C2439 H2454 0.961 . S
C2439 H2455 0.961 . S
C2440 C2441 1.370 . S
C2440 C2442 1.363 . S
C2440 H2456 0.931 . S
C2441 C2440 1.370 . S
C2441 C2445 1.408 . S
C2442 C2440 1.363 . S
C2442 C2443 1.370 . S
C2442 C2446 1.524 . S
C2443 C2435 1.503 . S
C2443 C2442 1.370 . S
C2443 C2444 1.403 . S
C2444 C2443 1.403 . S
C2444 C2445 1.404 . S
C2444 C2447 1.539 . S
C2445 C2441 1.408 . S
C2445 C2444 1.404 . S
C2445 H2457 0.930 . S
C2446 C2442 1.524 . S
C2446 H2458 0.956 . S
C2446 H2459 0.961 . S
C2446 H2460 0.961 . S
C2447 C2444 1.539 . S
C2447 H2461 0.958 . S
C2447 H2462 0.961 . S
C2447 H2463 0.960 . S
H2448 C2432 0.931 . S
H2449 C2437 0.929 . S
H2450 C2438 0.960 . S
H2451 C2438 0.962 . S
H2452 C2438 0.960 . S
H2453 C2439 0.961 . S
H2454 C2439 0.961 . S
H2455 C2439 0.961 . S
H2456 C2440 0.931 . S
H2457 C2445 0.930 . S
H2458 C2446 0.956 . S
H2459 C2446 0.961 . S
H2460 C2446 0.961 . S
H2461 C2447 0.958 . S
H2462 C2447 0.961 . S
H2463 C2447 0.960 . S
C2464 C2465 1.391 . S
C2464 C2466 1.394 . S
C2464 H2480 0.931 . S
C2465 C2464 1.391 . S
C2465 C2469 1.376 . S
C2466 C2464 1.394 . S
C2466 C2467 1.369 . S
C2466 C2470 1.531 . S
C2467 C2466 1.369 . S
C2467 C2468 1.410 . S
C2467 C2475 1.503 . S
C2468 C2467 1.410 . S
C2468 C2469 1.392 . S
C2468 C2471 1.511 . S
C2469 C2465 1.376 . S
C2469 C2468 1.392 . S
C2469 H2481 0.929 . S
C2470 C2466 1.531 . S
C2470 H2482 0.960 . S
C2470 H2483 0.962 . S
C2470 H2484 0.960 . S
C2471 C2468 1.511 . S
C2471 H2485 0.961 . S
C2471 H2486 0.961 . S
C2471 H2487 0.961 . S
C2472 C2473 1.370 . S
C2472 C2474 1.363 . S
C2472 H2488 0.931 . S
C2473 C2472 1.370 . S
C2473 C2477 1.408 . S
C2474 C2472 1.363 . S
C2474 C2475 1.370 . S
C2474 C2478 1.524 . S
C2475 C2467 1.503 . S
C2475 C2474 1.370 . S
C2475 C2476 1.403 . S
C2476 C2475 1.403 . S
C2476 C2477 1.404 . S
C2476 C2479 1.539 . S
C2477 C2473 1.408 . S
C2477 C2476 1.404 . S
C2477 H2489 0.930 . S
C2478 C2474 1.524 . S
C2478 H2490 0.956 . S
C2478 H2491 0.961 . S
C2478 H2492 0.961 . S
C2479 C2476 1.539 . S
C2479 H2493 0.958 . S
C2479 H2494 0.961 . S
C2479 H2495 0.960 . S
H2480 C2464 0.931 . S
H2481 C2469 0.929 . S
H2482 C2470 0.960 . S
H2483 C2470 0.962 . S
H2484 C2470 0.960 . S
H2485 C2471 0.961 . S
H2486 C2471 0.961 . S
H2487 C2471 0.961 . S
H2488 C2472 0.931 . S
H2489 C2477 0.930 . S
H2490 C2478 0.956 . S
H2491 C2478 0.961 . S
H2492 C2478 0.961 . S
H2493 C2479 0.958 . S
H2494 C2479 0.961 . S
H2495 C2479 0.960 . S
C449 C93 1.503 . S
C457 C9 1.487 . S
C481 C23 1.476 . S
C489 C107 1.495 . S
C513 C65 1.497 . S
C521 C37 1.480 . S
C545 C51 1.480 . S
C553 C79 1.480 . S
C577 C121 1.486 . S
C585 C205 1.479 . S
C609 C219 1.464 . S
C617 C135 1.485 . S
C641 C149 1.464 . S
C649 C177 1.486 . S
C673 C191 1.496 . S
C681 C163 1.494 . S
C705 C233 1.503 . S
C713 C317 1.486 . S
C737 C247 1.482 . S
C745 C331 1.496 . S
C769 C289 1.498 . S
C777 C261 1.481 . S
C801 C303 1.482 . S
C809 C275 1.496 . S
C833 C345 1.502 . S
C841 C429 1.492 . S
C865 C359 1.480 . S
C873 C443 1.479 . S
C897 C401 1.495 . S
C905 C373 1.495 . S
C929 C387 1.464 . S
C937 C415 1.488 . S
C961 C8 1.488 1_556 S
C969 C106 1.492 . S
C993 C64 1.489 1_554 S
C1001 C22 1.492 . S
C1025 C78 1.483 . S
C1033 C36 1.489 . S
C1057 C50 1.491 . S
C1065 C92 1.493 . S
C1089 C120 1.482 1_554 S
C1097 C218 1.489 . S
C1121 C176 1.482 1_556 S
C1129 C134 1.489 . S
C1153 C190 1.492 . S
C1161 C148 1.493 . S
C1185 C204 1.483 . S
C1193 C162 1.489 . S
C1217 C232 1.486 . S
C1225 C330 1.491 . S
C1249 C246 1.484 . S
C1257 C288 1.489 . S
C1281 C302 1.492 . S
C1289 C260 1.493 1_556 S
C1313 C274 1.492 . S
C1321 C316 1.492 1_554 S
C1345 C344 1.482 . S
C1353 C442 1.489 . S
C1377 C400 1.492 . S
C1385 C358 1.493 . S
C1409 C372 1.484 1_554 S
C1417 C414 1.490 . S
C1441 C386 1.482 . S
C1449 C428 1.489 1_556 S
C1473 C423 1.481 . S
C1481 C3 1.484 . S
C1505 C213 1.484 . S
C1513 C17 1.485 . S
C1537 C31 1.477 . S
C1545 C395 1.482 . S
C1569 C45 1.486 . S
C1577 C185 1.486 . S
C1601 C59 1.474 . S
C1609 C367 1.481 . S
C1633 C73 1.473 . S
C1641 C157 1.481 . S
C1665 C87 1.485 . S
C1673 C339 1.486 . S
C1697 C129 1.474 . S
C1705 C101 1.481 . S
C1729 C311 1.486 . S
C1737 C115 1.486 . S
C1761 C143 1.479 . S
C1769 C283 1.484 . S
C1793 C255 1.484 . S
C1801 C171 1.486 . S
C1825 C227 1.475 . S
C1833 C199 1.481 . S
C1857 C241 1.482 . S
C1865 C437 1.485 . S
C1889 C269 1.485 . S
C1897 C409 1.485 . S
C1921 C297 1.474 . S
C1929 C381 1.481 . S
C1953 C353 1.478 . S
C1961 C325 1.483 . S
C1985 C7 1.438 . S
C1993 C105 1.427 . S
C2017 C21 1.428 . S
C2025 C63 1.432 . S
C2049 C77 1.452 1_556 S
C2057 C35 1.415 . S
C2081 C49 1.398 1_554 S
C2089 C91 1.438 . S
C2113 C217 1.421 . S
C2121 C119 1.430 . S
C2145 C175 1.449 . S
C2153 C133 1.413 . S
C2177 C147 1.437 . S
C2185 C189 1.416 1_554 S
C2209 C203 1.449 . S
C2217 C161 1.417 1_556 S
C2241 C329 1.424 1_556 S
C2249 C231 1.433 . S
C2273 C287 1.435 . S
C2281 C245 1.429 1_554 S
C2305 C301 1.450 . S
C2313 C259 1.413 . S
C2337 C315 1.431 . S
C2345 C273 1.431 . S
C2369 C343 1.391 . S
C2377 C441 1.438 1_554 S
C2401 C357 1.435 1_556 S
C2409 C399 1.425 . S
C2433 C371 1.392 . S
C2441 C413 1.436 . S
C2465 C427 1.449 . S
C2473 C385 1.413 . S
