# Generated by pormake.
# Topology wse, (4)-cn, num edge types: 1
# Building blocks:
#     Node 0, Type 0, BuildingBlock: NAHDIM_clean_sbu_0, # of connection points: 4
#     Node 1, Type 0, BuildingBlock: NAHDIM_clean_sbu_0, # of connection points: 4
#     Node 2, Type 0, BuildingBlock: NAHDIM_clean_sbu_0, # of connection points: 4
#     Node 3, Type 0, BuildingBlock: NAHDIM_clean_sbu_0, # of connection points: 4
#     Node 4, Type 0, BuildingBlock: NAHDIM_clean_sbu_0, # of connection points: 4
#     Node 5, Type 0, BuildingBlock: NAHDIM_clean_sbu_0, # of connection points: 4
#     Node 6, Type 0, BuildingBlock: NAHDIM_clean_sbu_0, # of connection points: 4
#     Node 7, Type 0, BuildingBlock: NAHDIM_clean_sbu_0, # of connection points: 4
#     Node 8, Type 0, BuildingBlock: NAHDIM_clean_sbu_0, # of connection points: 4
#     Node 9, Type 0, BuildingBlock: NAHDIM_clean_sbu_0, # of connection points: 4
#     Node 10, Type 0, BuildingBlock: NAHDIM_clean_sbu_0, # of connection points: 4
#     Node 11, Type 0, BuildingBlock: NAHDIM_clean_sbu_0, # of connection points: 4
#     Node 12, Type 0, BuildingBlock: NAHDIM_clean_sbu_0, # of connection points: 4
#     Node 13, Type 0, BuildingBlock: NAHDIM_clean_sbu_0, # of connection points: 4
#     Node 14, Type 0, BuildingBlock: NAHDIM_clean_sbu_0, # of connection points: 4
#     Node 15, Type 0, BuildingBlock: NAHDIM_clean_sbu_0, # of connection points: 4
#     Node 16, Type 0, BuildingBlock: NAHDIM_clean_sbu_0, # of connection points: 4
#     Node 17, Type 0, BuildingBlock: NAHDIM_clean_sbu_0, # of connection points: 4
#     Node 18, Type 0, BuildingBlock: NAHDIM_clean_sbu_0, # of connection points: 4
#     Node 19, Type 0, BuildingBlock: NAHDIM_clean_sbu_0, # of connection points: 4
#     Node 20, Type 0, BuildingBlock: NAHDIM_clean_sbu_0, # of connection points: 4
#     Node 21, Type 0, BuildingBlock: NAHDIM_clean_sbu_0, # of connection points: 4
#     Node 22, Type 0, BuildingBlock: NAHDIM_clean_sbu_0, # of connection points: 4
#     Node 23, Type 0, BuildingBlock: NAHDIM_clean_sbu_0, # of connection points: 4
#     Node 24, Type 0, BuildingBlock: NAHDIM_clean_sbu_0, # of connection points: 4
#     Node 25, Type 0, BuildingBlock: NAHDIM_clean_sbu_0, # of connection points: 4
#     Node 26, Type 0, BuildingBlock: NAHDIM_clean_sbu_0, # of connection points: 4
#     Node 27, Type 0, BuildingBlock: NAHDIM_clean_sbu_0, # of connection points: 4
#     Node 28, Type 0, BuildingBlock: NAHDIM_clean_sbu_0, # of connection points: 4
#     Node 29, Type 0, BuildingBlock: NAHDIM_clean_sbu_0, # of connection points: 4
#     Node 30, Type 0, BuildingBlock: NAHDIM_clean_sbu_0, # of connection points: 4
#     Node 31, Type 0, BuildingBlock: NAHDIM_clean_sbu_0, # of connection points: 4
#     Node 32, Type 0, BuildingBlock: NAHDIM_clean_sbu_0, # of connection points: 4
#     Node 33, Type 0, BuildingBlock: NAHDIM_clean_sbu_0, # of connection points: 4
#     Node 34, Type 0, BuildingBlock: NAHDIM_clean_sbu_0, # of connection points: 4
#     Node 35, Type 0, BuildingBlock: NAHDIM_clean_sbu_0, # of connection points: 4
#     Node 36, Type 0, BuildingBlock: NAHDIM_clean_sbu_0, # of connection points: 4
#     Node 37, Type 0, BuildingBlock: NAHDIM_clean_sbu_0, # of connection points: 4
#     Node 38, Type 0, BuildingBlock: NAHDIM_clean_sbu_0, # of connection points: 4
#     Node 39, Type 0, BuildingBlock: NAHDIM_clean_sbu_0, # of connection points: 4
#     Node 40, Type 0, BuildingBlock: NAHDIM_clean_sbu_0, # of connection points: 4
#     Node 41, Type 0, BuildingBlock: NAHDIM_clean_sbu_0, # of connection points: 4
#     Node 42, Type 0, BuildingBlock: NAHDIM_clean_sbu_0, # of connection points: 4
#     Node 43, Type 0, BuildingBlock: NAHDIM_clean_sbu_0, # of connection points: 4
#     Node 44, Type 0, BuildingBlock: NAHDIM_clean_sbu_0, # of connection points: 4
#     Node 45, Type 0, BuildingBlock: NAHDIM_clean_sbu_0, # of connection points: 4
#     Node 46, Type 0, BuildingBlock: NAHDIM_clean_sbu_0, # of connection points: 4
#     Node 47, Type 0, BuildingBlock: NAHDIM_clean_sbu_0, # of connection points: 4
#     Node 48, Type 0, BuildingBlock: NAHDIM_clean_sbu_0, # of connection points: 4
#     Node 49, Type 0, BuildingBlock: NAHDIM_clean_sbu_0, # of connection points: 4
#     Node 50, Type 0, BuildingBlock: NAHDIM_clean_sbu_0, # of connection points: 4
#     Node 51, Type 0, BuildingBlock: NAHDIM_clean_sbu_0, # of connection points: 4
#     Node 52, Type 0, BuildingBlock: NAHDIM_clean_sbu_0, # of connection points: 4
#     Node 53, Type 0, BuildingBlock: NAHDIM_clean_sbu_0, # of connection points: 4
#     Node 54, Type 0, BuildingBlock: NAHDIM_clean_sbu_0, # of connection points: 4
#     Node 55, Type 0, BuildingBlock: NAHDIM_clean_sbu_0, # of connection points: 4
#     Node 56, Type 0, BuildingBlock: NAHDIM_clean_sbu_0, # of connection points: 4
#     Node 57, Type 0, BuildingBlock: NAHDIM_clean_sbu_0, # of connection points: 4
#     Node 58, Type 0, BuildingBlock: NAHDIM_clean_sbu_0, # of connection points: 4
#     Node 59, Type 0, BuildingBlock: NAHDIM_clean_sbu_0, # of connection points: 4
#     Node 60, Type 0, BuildingBlock: NAHDIM_clean_sbu_0, # of connection points: 4
#     Node 61, Type 0, BuildingBlock: NAHDIM_clean_sbu_0, # of connection points: 4
#     Node 62, Type 0, BuildingBlock: NAHDIM_clean_sbu_0, # of connection points: 4
#     Node 63, Type 0, BuildingBlock: NAHDIM_clean_sbu_0, # of connection points: 4
#     Node 64, Type 0, BuildingBlock: NAHDIM_clean_sbu_0, # of connection points: 4
#     Node 65, Type 0, BuildingBlock: NAHDIM_clean_sbu_0, # of connection points: 4
#     Node 66, Type 0, BuildingBlock: NAHDIM_clean_sbu_0, # of connection points: 4
#     Node 67, Type 0, BuildingBlock: NAHDIM_clean_sbu_0, # of connection points: 4
#     Node 68, Type 0, BuildingBlock: NAHDIM_clean_sbu_0, # of connection points: 4
#     Node 69, Type 0, BuildingBlock: NAHDIM_clean_sbu_0, # of connection points: 4
#     Node 70, Type 0, BuildingBlock: NAHDIM_clean_sbu_0, # of connection points: 4
#     Node 71, Type 0, BuildingBlock: NAHDIM_clean_sbu_0, # of connection points: 4
#     Node 72, Type 0, BuildingBlock: NAHDIM_clean_sbu_0, # of connection points: 4
#     Node 73, Type 0, BuildingBlock: NAHDIM_clean_sbu_0, # of connection points: 4
#     Node 74, Type 0, BuildingBlock: NAHDIM_clean_sbu_0, # of connection points: 4
#     Node 75, Type 0, BuildingBlock: NAHDIM_clean_sbu_0, # of connection points: 4
#     Node 76, Type 0, BuildingBlock: NAHDIM_clean_sbu_0, # of connection points: 4
#     Node 77, Type 0, BuildingBlock: NAHDIM_clean_sbu_0, # of connection points: 4
#     Node 78, Type 0, BuildingBlock: NAHDIM_clean_sbu_0, # of connection points: 4
#     Node 79, Type 0, BuildingBlock: NAHDIM_clean_sbu_0, # of connection points: 4
#     Node 80, Type 0, BuildingBlock: NAHDIM_clean_sbu_0, # of connection points: 4
#     Node 81, Type 0, BuildingBlock: NAHDIM_clean_sbu_0, # of connection points: 4
#     Node 82, Type 0, BuildingBlock: NAHDIM_clean_sbu_0, # of connection points: 4
#     Node 83, Type 0, BuildingBlock: NAHDIM_clean_sbu_0, # of connection points: 4
#     Node 84, Type 0, BuildingBlock: NAHDIM_clean_sbu_0, # of connection points: 4
#     Node 85, Type 0, BuildingBlock: NAHDIM_clean_sbu_0, # of connection points: 4
#     Node 86, Type 0, BuildingBlock: NAHDIM_clean_sbu_0, # of connection points: 4
#     Node 87, Type 0, BuildingBlock: NAHDIM_clean_sbu_0, # of connection points: 4
#     Node 88, Type 0, BuildingBlock: NAHDIM_clean_sbu_0, # of connection points: 4
#     Node 89, Type 0, BuildingBlock: NAHDIM_clean_sbu_0, # of connection points: 4
#     Node 90, Type 0, BuildingBlock: NAHDIM_clean_sbu_0, # of connection points: 4
#     Node 91, Type 0, BuildingBlock: NAHDIM_clean_sbu_0, # of connection points: 4
#     Node 92, Type 0, BuildingBlock: NAHDIM_clean_sbu_0, # of connection points: 4
#     Node 93, Type 0, BuildingBlock: NAHDIM_clean_sbu_0, # of connection points: 4
#     Node 94, Type 0, BuildingBlock: NAHDIM_clean_sbu_0, # of connection points: 4
#     Node 95, Type 0, BuildingBlock: NAHDIM_clean_sbu_0, # of connection points: 4
#     Edge 96, Type (0, 0), BuildingBlock: OJICUG_clean_linker_0, # of connection points: 2
#     Edge 97, Type (0, 0), BuildingBlock: OJICUG_clean_linker_0, # of connection points: 2
#     Edge 98, Type (0, 0), BuildingBlock: OJICUG_clean_linker_0, # of connection points: 2
#     Edge 99, Type (0, 0), BuildingBlock: OJICUG_clean_linker_0, # of connection points: 2
#     Edge 100, Type (0, 0), BuildingBlock: OJICUG_clean_linker_0, # of connection points: 2
#     Edge 101, Type (0, 0), BuildingBlock: OJICUG_clean_linker_0, # of connection points: 2
#     Edge 102, Type (0, 0), BuildingBlock: OJICUG_clean_linker_0, # of connection points: 2
#     Edge 103, Type (0, 0), BuildingBlock: OJICUG_clean_linker_0, # of connection points: 2
#     Edge 104, Type (0, 0), BuildingBlock: OJICUG_clean_linker_0, # of connection points: 2
#     Edge 105, Type (0, 0), BuildingBlock: OJICUG_clean_linker_0, # of connection points: 2
#     Edge 106, Type (0, 0), BuildingBlock: OJICUG_clean_linker_0, # of connection points: 2
#     Edge 107, Type (0, 0), BuildingBlock: OJICUG_clean_linker_0, # of connection points: 2
#     Edge 108, Type (0, 0), BuildingBlock: OJICUG_clean_linker_0, # of connection points: 2
#     Edge 109, Type (0, 0), BuildingBlock: OJICUG_clean_linker_0, # of connection points: 2
#     Edge 110, Type (0, 0), BuildingBlock: OJICUG_clean_linker_0, # of connection points: 2
#     Edge 111, Type (0, 0), BuildingBlock: OJICUG_clean_linker_0, # of connection points: 2
#     Edge 112, Type (0, 0), BuildingBlock: OJICUG_clean_linker_0, # of connection points: 2
#     Edge 113, Type (0, 0), BuildingBlock: OJICUG_clean_linker_0, # of connection points: 2
#     Edge 114, Type (0, 0), BuildingBlock: OJICUG_clean_linker_0, # of connection points: 2
#     Edge 115, Type (0, 0), BuildingBlock: OJICUG_clean_linker_0, # of connection points: 2
#     Edge 116, Type (0, 0), BuildingBlock: OJICUG_clean_linker_0, # of connection points: 2
#     Edge 117, Type (0, 0), BuildingBlock: OJICUG_clean_linker_0, # of connection points: 2
#     Edge 118, Type (0, 0), BuildingBlock: OJICUG_clean_linker_0, # of connection points: 2
#     Edge 119, Type (0, 0), BuildingBlock: OJICUG_clean_linker_0, # of connection points: 2
#     Edge 120, Type (0, 0), BuildingBlock: OJICUG_clean_linker_0, # of connection points: 2
#     Edge 121, Type (0, 0), BuildingBlock: OJICUG_clean_linker_0, # of connection points: 2
#     Edge 122, Type (0, 0), BuildingBlock: OJICUG_clean_linker_0, # of connection points: 2
#     Edge 123, Type (0, 0), BuildingBlock: OJICUG_clean_linker_0, # of connection points: 2
#     Edge 124, Type (0, 0), BuildingBlock: OJICUG_clean_linker_0, # of connection points: 2
#     Edge 125, Type (0, 0), BuildingBlock: OJICUG_clean_linker_0, # of connection points: 2
#     Edge 126, Type (0, 0), BuildingBlock: OJICUG_clean_linker_0, # of connection points: 2
#     Edge 127, Type (0, 0), BuildingBlock: OJICUG_clean_linker_0, # of connection points: 2
#     Edge 128, Type (0, 0), BuildingBlock: OJICUG_clean_linker_0, # of connection points: 2
#     Edge 129, Type (0, 0), BuildingBlock: OJICUG_clean_linker_0, # of connection points: 2
#     Edge 130, Type (0, 0), BuildingBlock: OJICUG_clean_linker_0, # of connection points: 2
#     Edge 131, Type (0, 0), BuildingBlock: OJICUG_clean_linker_0, # of connection points: 2
#     Edge 132, Type (0, 0), BuildingBlock: OJICUG_clean_linker_0, # of connection points: 2
#     Edge 133, Type (0, 0), BuildingBlock: OJICUG_clean_linker_0, # of connection points: 2
#     Edge 134, Type (0, 0), BuildingBlock: OJICUG_clean_linker_0, # of connection points: 2
#     Edge 135, Type (0, 0), BuildingBlock: OJICUG_clean_linker_0, # of connection points: 2
#     Edge 136, Type (0, 0), BuildingBlock: OJICUG_clean_linker_0, # of connection points: 2
#     Edge 137, Type (0, 0), BuildingBlock: OJICUG_clean_linker_0, # of connection points: 2
#     Edge 138, Type (0, 0), BuildingBlock: OJICUG_clean_linker_0, # of connection points: 2
#     Edge 139, Type (0, 0), BuildingBlock: OJICUG_clean_linker_0, # of connection points: 2
#     Edge 140, Type (0, 0), BuildingBlock: OJICUG_clean_linker_0, # of connection points: 2
#     Edge 141, Type (0, 0), BuildingBlock: OJICUG_clean_linker_0, # of connection points: 2
#     Edge 142, Type (0, 0), BuildingBlock: OJICUG_clean_linker_0, # of connection points: 2
#     Edge 143, Type (0, 0), BuildingBlock: OJICUG_clean_linker_0, # of connection points: 2
#     Edge 144, Type (0, 0), BuildingBlock: OJICUG_clean_linker_0, # of connection points: 2
#     Edge 145, Type (0, 0), BuildingBlock: OJICUG_clean_linker_0, # of connection points: 2
#     Edge 146, Type (0, 0), BuildingBlock: OJICUG_clean_linker_0, # of connection points: 2
#     Edge 147, Type (0, 0), BuildingBlock: OJICUG_clean_linker_0, # of connection points: 2
#     Edge 148, Type (0, 0), BuildingBlock: OJICUG_clean_linker_0, # of connection points: 2
#     Edge 149, Type (0, 0), BuildingBlock: OJICUG_clean_linker_0, # of connection points: 2
#     Edge 150, Type (0, 0), BuildingBlock: OJICUG_clean_linker_0, # of connection points: 2
#     Edge 151, Type (0, 0), BuildingBlock: OJICUG_clean_linker_0, # of connection points: 2
#     Edge 152, Type (0, 0), BuildingBlock: OJICUG_clean_linker_0, # of connection points: 2
#     Edge 153, Type (0, 0), BuildingBlock: OJICUG_clean_linker_0, # of connection points: 2
#     Edge 154, Type (0, 0), BuildingBlock: OJICUG_clean_linker_0, # of connection points: 2
#     Edge 155, Type (0, 0), BuildingBlock: OJICUG_clean_linker_0, # of connection points: 2
#     Edge 156, Type (0, 0), BuildingBlock: OJICUG_clean_linker_0, # of connection points: 2
#     Edge 157, Type (0, 0), BuildingBlock: OJICUG_clean_linker_0, # of connection points: 2
#     Edge 158, Type (0, 0), BuildingBlock: OJICUG_clean_linker_0, # of connection points: 2
#     Edge 159, Type (0, 0), BuildingBlock: OJICUG_clean_linker_0, # of connection points: 2
#     Edge 160, Type (0, 0), BuildingBlock: OJICUG_clean_linker_0, # of connection points: 2
#     Edge 161, Type (0, 0), BuildingBlock: OJICUG_clean_linker_0, # of connection points: 2
#     Edge 162, Type (0, 0), BuildingBlock: OJICUG_clean_linker_0, # of connection points: 2
#     Edge 163, Type (0, 0), BuildingBlock: OJICUG_clean_linker_0, # of connection points: 2
#     Edge 164, Type (0, 0), BuildingBlock: OJICUG_clean_linker_0, # of connection points: 2
#     Edge 165, Type (0, 0), BuildingBlock: OJICUG_clean_linker_0, # of connection points: 2
#     Edge 166, Type (0, 0), BuildingBlock: OJICUG_clean_linker_0, # of connection points: 2
#     Edge 167, Type (0, 0), BuildingBlock: OJICUG_clean_linker_0, # of connection points: 2
#     Edge 168, Type (0, 0), BuildingBlock: OJICUG_clean_linker_0, # of connection points: 2
#     Edge 169, Type (0, 0), BuildingBlock: OJICUG_clean_linker_0, # of connection points: 2
#     Edge 170, Type (0, 0), BuildingBlock: OJICUG_clean_linker_0, # of connection points: 2
#     Edge 171, Type (0, 0), BuildingBlock: OJICUG_clean_linker_0, # of connection points: 2
#     Edge 172, Type (0, 0), BuildingBlock: OJICUG_clean_linker_0, # of connection points: 2
#     Edge 173, Type (0, 0), BuildingBlock: OJICUG_clean_linker_0, # of connection points: 2
#     Edge 174, Type (0, 0), BuildingBlock: OJICUG_clean_linker_0, # of connection points: 2
#     Edge 175, Type (0, 0), BuildingBlock: OJICUG_clean_linker_0, # of connection points: 2
#     Edge 176, Type (0, 0), BuildingBlock: OJICUG_clean_linker_0, # of connection points: 2
#     Edge 177, Type (0, 0), BuildingBlock: OJICUG_clean_linker_0, # of connection points: 2
#     Edge 178, Type (0, 0), BuildingBlock: OJICUG_clean_linker_0, # of connection points: 2
#     Edge 179, Type (0, 0), BuildingBlock: OJICUG_clean_linker_0, # of connection points: 2
#     Edge 180, Type (0, 0), BuildingBlock: OJICUG_clean_linker_0, # of connection points: 2
#     Edge 181, Type (0, 0), BuildingBlock: OJICUG_clean_linker_0, # of connection points: 2
#     Edge 182, Type (0, 0), BuildingBlock: OJICUG_clean_linker_0, # of connection points: 2
#     Edge 183, Type (0, 0), BuildingBlock: OJICUG_clean_linker_0, # of connection points: 2
#     Edge 184, Type (0, 0), BuildingBlock: OJICUG_clean_linker_0, # of connection points: 2
#     Edge 185, Type (0, 0), BuildingBlock: OJICUG_clean_linker_0, # of connection points: 2
#     Edge 186, Type (0, 0), BuildingBlock: OJICUG_clean_linker_0, # of connection points: 2
#     Edge 187, Type (0, 0), BuildingBlock: OJICUG_clean_linker_0, # of connection points: 2
#     Edge 188, Type (0, 0), BuildingBlock: OJICUG_clean_linker_0, # of connection points: 2
#     Edge 189, Type (0, 0), BuildingBlock: OJICUG_clean_linker_0, # of connection points: 2
#     Edge 190, Type (0, 0), BuildingBlock: OJICUG_clean_linker_0, # of connection points: 2
#     Edge 191, Type (0, 0), BuildingBlock: OJICUG_clean_linker_0, # of connection points: 2
#     Edge 192, Type (0, 0), BuildingBlock: OJICUG_clean_linker_0, # of connection points: 2
#     Edge 193, Type (0, 0), BuildingBlock: OJICUG_clean_linker_0, # of connection points: 2
#     Edge 194, Type (0, 0), BuildingBlock: OJICUG_clean_linker_0, # of connection points: 2
#     Edge 195, Type (0, 0), BuildingBlock: OJICUG_clean_linker_0, # of connection points: 2
#     Edge 196, Type (0, 0), BuildingBlock: OJICUG_clean_linker_0, # of connection points: 2
#     Edge 197, Type (0, 0), BuildingBlock: OJICUG_clean_linker_0, # of connection points: 2
#     Edge 198, Type (0, 0), BuildingBlock: OJICUG_clean_linker_0, # of connection points: 2
#     Edge 199, Type (0, 0), BuildingBlock: OJICUG_clean_linker_0, # of connection points: 2
#     Edge 200, Type (0, 0), BuildingBlock: OJICUG_clean_linker_0, # of connection points: 2
#     Edge 201, Type (0, 0), BuildingBlock: OJICUG_clean_linker_0, # of connection points: 2
#     Edge 202, Type (0, 0), BuildingBlock: OJICUG_clean_linker_0, # of connection points: 2
#     Edge 203, Type (0, 0), BuildingBlock: OJICUG_clean_linker_0, # of connection points: 2
#     Edge 204, Type (0, 0), BuildingBlock: OJICUG_clean_linker_0, # of connection points: 2
#     Edge 205, Type (0, 0), BuildingBlock: OJICUG_clean_linker_0, # of connection points: 2
#     Edge 206, Type (0, 0), BuildingBlock: OJICUG_clean_linker_0, # of connection points: 2
#     Edge 207, Type (0, 0), BuildingBlock: OJICUG_clean_linker_0, # of connection points: 2
#     Edge 208, Type (0, 0), BuildingBlock: OJICUG_clean_linker_0, # of connection points: 2
#     Edge 209, Type (0, 0), BuildingBlock: OJICUG_clean_linker_0, # of connection points: 2
#     Edge 210, Type (0, 0), BuildingBlock: OJICUG_clean_linker_0, # of connection points: 2
#     Edge 211, Type (0, 0), BuildingBlock: OJICUG_clean_linker_0, # of connection points: 2
#     Edge 212, Type (0, 0), BuildingBlock: OJICUG_clean_linker_0, # of connection points: 2
#     Edge 213, Type (0, 0), BuildingBlock: OJICUG_clean_linker_0, # of connection points: 2
#     Edge 214, Type (0, 0), BuildingBlock: OJICUG_clean_linker_0, # of connection points: 2
#     Edge 215, Type (0, 0), BuildingBlock: OJICUG_clean_linker_0, # of connection points: 2
#     Edge 216, Type (0, 0), BuildingBlock: OJICUG_clean_linker_0, # of connection points: 2
#     Edge 217, Type (0, 0), BuildingBlock: OJICUG_clean_linker_0, # of connection points: 2
#     Edge 218, Type (0, 0), BuildingBlock: OJICUG_clean_linker_0, # of connection points: 2
#     Edge 219, Type (0, 0), BuildingBlock: OJICUG_clean_linker_0, # of connection points: 2
#     Edge 220, Type (0, 0), BuildingBlock: OJICUG_clean_linker_0, # of connection points: 2
#     Edge 221, Type (0, 0), BuildingBlock: OJICUG_clean_linker_0, # of connection points: 2
#     Edge 222, Type (0, 0), BuildingBlock: OJICUG_clean_linker_0, # of connection points: 2
#     Edge 223, Type (0, 0), BuildingBlock: OJICUG_clean_linker_0, # of connection points: 2
#     Edge 224, Type (0, 0), BuildingBlock: OJICUG_clean_linker_0, # of connection points: 2
#     Edge 225, Type (0, 0), BuildingBlock: OJICUG_clean_linker_0, # of connection points: 2
#     Edge 226, Type (0, 0), BuildingBlock: OJICUG_clean_linker_0, # of connection points: 2
#     Edge 227, Type (0, 0), BuildingBlock: OJICUG_clean_linker_0, # of connection points: 2
#     Edge 228, Type (0, 0), BuildingBlock: OJICUG_clean_linker_0, # of connection points: 2
#     Edge 229, Type (0, 0), BuildingBlock: OJICUG_clean_linker_0, # of connection points: 2
#     Edge 230, Type (0, 0), BuildingBlock: OJICUG_clean_linker_0, # of connection points: 2
#     Edge 231, Type (0, 0), BuildingBlock: OJICUG_clean_linker_0, # of connection points: 2
#     Edge 232, Type (0, 0), BuildingBlock: OJICUG_clean_linker_0, # of connection points: 2
#     Edge 233, Type (0, 0), BuildingBlock: OJICUG_clean_linker_0, # of connection points: 2
#     Edge 234, Type (0, 0), BuildingBlock: OJICUG_clean_linker_0, # of connection points: 2
#     Edge 235, Type (0, 0), BuildingBlock: OJICUG_clean_linker_0, # of connection points: 2
#     Edge 236, Type (0, 0), BuildingBlock: OJICUG_clean_linker_0, # of connection points: 2
#     Edge 237, Type (0, 0), BuildingBlock: OJICUG_clean_linker_0, # of connection points: 2
#     Edge 238, Type (0, 0), BuildingBlock: OJICUG_clean_linker_0, # of connection points: 2
#     Edge 239, Type (0, 0), BuildingBlock: OJICUG_clean_linker_0, # of connection points: 2
#     Edge 240, Type (0, 0), BuildingBlock: OJICUG_clean_linker_0, # of connection points: 2
#     Edge 241, Type (0, 0), BuildingBlock: OJICUG_clean_linker_0, # of connection points: 2
#     Edge 242, Type (0, 0), BuildingBlock: OJICUG_clean_linker_0, # of connection points: 2
#     Edge 243, Type (0, 0), BuildingBlock: OJICUG_clean_linker_0, # of connection points: 2
#     Edge 244, Type (0, 0), BuildingBlock: OJICUG_clean_linker_0, # of connection points: 2
#     Edge 245, Type (0, 0), BuildingBlock: OJICUG_clean_linker_0, # of connection points: 2
#     Edge 246, Type (0, 0), BuildingBlock: OJICUG_clean_linker_0, # of connection points: 2
#     Edge 247, Type (0, 0), BuildingBlock: OJICUG_clean_linker_0, # of connection points: 2
#     Edge 248, Type (0, 0), BuildingBlock: OJICUG_clean_linker_0, # of connection points: 2
#     Edge 249, Type (0, 0), BuildingBlock: OJICUG_clean_linker_0, # of connection points: 2
#     Edge 250, Type (0, 0), BuildingBlock: OJICUG_clean_linker_0, # of connection points: 2
#     Edge 251, Type (0, 0), BuildingBlock: OJICUG_clean_linker_0, # of connection points: 2
#     Edge 252, Type (0, 0), BuildingBlock: OJICUG_clean_linker_0, # of connection points: 2
#     Edge 253, Type (0, 0), BuildingBlock: OJICUG_clean_linker_0, # of connection points: 2
#     Edge 254, Type (0, 0), BuildingBlock: OJICUG_clean_linker_0, # of connection points: 2
#     Edge 255, Type (0, 0), BuildingBlock: OJICUG_clean_linker_0, # of connection points: 2
#     Edge 256, Type (0, 0), BuildingBlock: OJICUG_clean_linker_0, # of connection points: 2
#     Edge 257, Type (0, 0), BuildingBlock: OJICUG_clean_linker_0, # of connection points: 2
#     Edge 258, Type (0, 0), BuildingBlock: OJICUG_clean_linker_0, # of connection points: 2
#     Edge 259, Type (0, 0), BuildingBlock: OJICUG_clean_linker_0, # of connection points: 2
#     Edge 260, Type (0, 0), BuildingBlock: OJICUG_clean_linker_0, # of connection points: 2
#     Edge 261, Type (0, 0), BuildingBlock: OJICUG_clean_linker_0, # of connection points: 2
#     Edge 262, Type (0, 0), BuildingBlock: OJICUG_clean_linker_0, # of connection points: 2
#     Edge 263, Type (0, 0), BuildingBlock: OJICUG_clean_linker_0, # of connection points: 2
#     Edge 264, Type (0, 0), BuildingBlock: OJICUG_clean_linker_0, # of connection points: 2
#     Edge 265, Type (0, 0), BuildingBlock: OJICUG_clean_linker_0, # of connection points: 2
#     Edge 266, Type (0, 0), BuildingBlock: OJICUG_clean_linker_0, # of connection points: 2
#     Edge 267, Type (0, 0), BuildingBlock: OJICUG_clean_linker_0, # of connection points: 2
#     Edge 268, Type (0, 0), BuildingBlock: OJICUG_clean_linker_0, # of connection points: 2
#     Edge 269, Type (0, 0), BuildingBlock: OJICUG_clean_linker_0, # of connection points: 2
#     Edge 270, Type (0, 0), BuildingBlock: OJICUG_clean_linker_0, # of connection points: 2
#     Edge 271, Type (0, 0), BuildingBlock: OJICUG_clean_linker_0, # of connection points: 2
#     Edge 272, Type (0, 0), BuildingBlock: OJICUG_clean_linker_0, # of connection points: 2
#     Edge 273, Type (0, 0), BuildingBlock: OJICUG_clean_linker_0, # of connection points: 2
#     Edge 274, Type (0, 0), BuildingBlock: OJICUG_clean_linker_0, # of connection points: 2
#     Edge 275, Type (0, 0), BuildingBlock: OJICUG_clean_linker_0, # of connection points: 2
#     Edge 276, Type (0, 0), BuildingBlock: OJICUG_clean_linker_0, # of connection points: 2
#     Edge 277, Type (0, 0), BuildingBlock: OJICUG_clean_linker_0, # of connection points: 2
#     Edge 278, Type (0, 0), BuildingBlock: OJICUG_clean_linker_0, # of connection points: 2
#     Edge 279, Type (0, 0), BuildingBlock: OJICUG_clean_linker_0, # of connection points: 2
#     Edge 280, Type (0, 0), BuildingBlock: OJICUG_clean_linker_0, # of connection points: 2
#     Edge 281, Type (0, 0), BuildingBlock: OJICUG_clean_linker_0, # of connection points: 2
#     Edge 282, Type (0, 0), BuildingBlock: OJICUG_clean_linker_0, # of connection points: 2
#     Edge 283, Type (0, 0), BuildingBlock: OJICUG_clean_linker_0, # of connection points: 2
#     Edge 284, Type (0, 0), BuildingBlock: OJICUG_clean_linker_0, # of connection points: 2
#     Edge 285, Type (0, 0), BuildingBlock: OJICUG_clean_linker_0, # of connection points: 2
#     Edge 286, Type (0, 0), BuildingBlock: OJICUG_clean_linker_0, # of connection points: 2
#     Edge 287, Type (0, 0), BuildingBlock: OJICUG_clean_linker_0, # of connection points: 2
# Relax obj value: 0.230
# Max RMSD: 0.099
# Mean RMSD: 0.098
data_MOF--net-wse--node1-NAHDIM_clean_sbu_0--edge1-OJICUG_clean_linker_0
_symmetry_space_group_name_H-M    P1
_symmetry_Int_Tables_number       1
_symmetry_cell_setting            triclinic
loop_
_symmetry_equiv_pos_as_xyz
'x, y, z'
_cell_length_a     73.888953
_cell_length_b     73.951935
_cell_length_c     73.920904
_cell_angle_alpha  90.019205
_cell_angle_beta   90.030053
_cell_angle_gamma 90.015092
loop_
_atom_site_label
_atom_site_type_symbol
_atom_site_fract_x
_atom_site_fract_y
_atom_site_fract_z
_atom_type_partial_charge
C0 C 0.09616 0.13984 0.40635 0.0
O1 O 0.07987 0.13436 0.4109 0.0
O2 O 0.05726 0.17204 0.41081 0.0
Zn3 Zn 0.08317 0.17429 0.41929 0.0
O4 O 0.0837 0.17076 0.44628 0.0
C5 C 0.08594 0.20917 0.40188 0.0
O6 O 0.074 0.20229 0.39064 0.0
O7 O 0.10012 0.15646 0.40795 0.0
C8 C 0.07698 0.18311 0.45616 0.0
O9 O 0.07014 0.19756 0.44841 0.0
C10 C 0.04598 0.16279 0.41993 0.0
O11 O 0.05176 0.15351 0.43393 0.0
O12 O 0.09205 0.19943 0.41463 0.0
C13 C 0.85454 0.10014 0.40188 0.0
O14 O 0.86162 0.08395 0.40368 0.0
O15 O 0.82647 0.05817 0.40338 0.0
Zn16 Zn 0.82344 0.08207 0.41615 0.0
O17 O 0.831 0.07904 0.44223 0.0
C18 C 0.7877 0.07714 0.42625 0.0
O19 O 0.79613 0.06419 0.43504 0.0
O20 O 0.83788 0.10237 0.40543 0.0
C21 C 0.82526 0.0897 0.45443 0.0
O22 O 0.81506 0.10348 0.44975 0.0
C23 C 0.8373 0.04636 0.4096 0.0
O24 O 0.84798 0.05071 0.42313 0.0
O25 O 0.79683 0.08761 0.41613 0.0
C26 C 0.89705 0.85217 0.40154 0.0
O27 O 0.91404 0.85735 0.4022 0.0
O28 O 0.93538 0.82364 0.41444 0.0
Zn29 Zn 0.90941 0.82107 0.42236 0.0
O30 O 0.90812 0.82612 0.44911 0.0
C31 C 0.90726 0.78622 0.40532 0.0
O32 O 0.91754 0.79403 0.3931 0.0
O33 O 0.89245 0.83735 0.4089 0.0
C34 C 0.91654 0.8152 0.45938 0.0
O35 O 0.92523 0.80154 0.45206 0.0
C36 C 0.94591 0.83452 0.42261 0.0
O37 O 0.93927 0.84512 0.43523 0.0
O38 O 0.90178 0.79539 0.41876 0.0
C39 C 0.14086 0.89645 0.40657 0.0
O40 O 0.13555 0.91339 0.40657 0.0
O41 O 0.17143 0.93599 0.40975 0.0
Zn42 Zn 0.17543 0.91078 0.41934 0.0
O43 O 0.17465 0.91247 0.44651 0.0
C44 C 0.20967 0.90947 0.4004 0.0
O45 O 0.20256 0.92247 0.3906 0.0
O46 O 0.15705 0.89268 0.41094 0.0
C47 C 0.18613 0.92283 0.45404 0.0
O48 O 0.19795 0.93137 0.44388 0.0
C49 C 0.16097 0.94656 0.41838 0.0
O50 O 0.15163 0.94014 0.43207 0.0
O51 O 0.20031 0.90225 0.41285 0.0
C52 C 0.08993 0.86177 0.59204 0.0
O53 O 0.07487 0.86809 0.58502 0.0
O54 O 0.04905 0.8281 0.59456 0.0
Zn55 Zn 0.07366 0.82785 0.58277 0.0
O56 O 0.07015 0.83397 0.55643 0.0
C57 C 0.08003 0.792 0.59685 0.0
O58 O 0.07046 0.79786 0.61064 0.0
O59 O 0.09191 0.84479 0.59351 0.0
C60 C 0.08015 0.82721 0.54421 0.0
O61 O 0.09361 0.81659 0.54891 0.0
C62 C 0.0368 0.83833 0.58815 0.0
O63 O 0.04117 0.85013 0.57562 0.0
O64 O 0.08335 0.80263 0.5838 0.0
C65 C 0.13482 0.10078 0.58538 0.0
O66 O 0.12763 0.0854 0.58011 0.0
O67 O 0.16453 0.05847 0.58668 0.0
Zn68 Zn 0.16916 0.08347 0.5768 0.0
O69 O 0.16848 0.08167 0.54961 0.0
C70 C 0.20294 0.08376 0.59634 0.0
O71 O 0.19464 0.07203 0.60679 0.0
O72 O 0.15191 0.10248 0.5855 0.0
C73 C 0.17997 0.071 0.54253 0.0
O74 O 0.19134 0.06239 0.55315 0.0
C75 C 0.1548 0.0475 0.5777 0.0
O76 O 0.14596 0.05349 0.56349 0.0
O77 O 0.19441 0.09083 0.58322 0.0
C78 C 0.90004 0.13608 0.58863 0.0
O79 O 0.91583 0.13009 0.58306 0.0
O80 O 0.93943 0.16697 0.58413 0.0
Zn81 Zn 0.9139 0.16959 0.57517 0.0
O82 O 0.91479 0.16383 0.54845 0.0
C83 C 0.91149 0.20532 0.59116 0.0
O84 O 0.92187 0.19826 0.60375 0.0
O85 O 0.89656 0.15283 0.58731 0.0
C86 C 0.90833 0.17445 0.53657 0.0
O87 O 0.89987 0.18917 0.54178 0.0
C88 C 0.95007 0.1781 0.57649 0.0
O89 O 0.94332 0.18967 0.5648 0.0
O90 O 0.90593 0.19538 0.5783 0.0
C91 C 0.84717 0.89281 0.57834 0.0
O92 O 0.85408 0.90883 0.58171 0.0
O93 O 0.82845 0.93733 0.5679 0.0
Zn94 Zn 0.81947 0.91311 0.55915 0.0
O95 O 0.82219 0.91325 0.53179 0.0
C96 C 0.78388 0.90801 0.5785 0.0
O97 O 0.79213 0.90191 0.59301 0.0
O98 O 0.83246 0.89169 0.56952 0.0
C99 C 0.8083 0.91204 0.52166 0.0
O100 O 0.79243 0.90897 0.52899 0.0
C101 C 0.82011 0.94992 0.55966 0.0
O102 O 0.80766 0.94552 0.54775 0.0
O103 O 0.793 0.91241 0.56465 0.0
C104 C 0.40545 0.09987 0.14718 0.0
O105 O 0.40331 0.08293 0.14232 0.0
O106 O 0.40939 0.06023 0.17697 0.0
Zn107 Zn 0.42039 0.08491 0.18056 0.0
O108 O 0.44739 0.08185 0.17849 0.0
C109 C 0.4027 0.08704 0.21527 0.0
O110 O 0.39128 0.07564 0.20783 0.0
O111 O 0.41188 0.10348 0.1627 0.0
C112 C 0.4546 0.07034 0.18904 0.0
O113 O 0.44425 0.0616 0.20055 0.0
C114 C 0.41666 0.04947 0.1657 0.0
O115 O 0.42974 0.05549 0.15528 0.0
O116 O 0.41564 0.0933 0.20586 0.0
C117 C 0.89578 0.40236 0.13035 0.0
O118 O 0.91089 0.40897 0.12369 0.0
O119 O 0.93732 0.40494 0.16008 0.0
Zn120 Zn 0.91163 0.41343 0.16415 0.0
O121 O 0.91198 0.44043 0.15977 0.0
C122 C 0.90899 0.39559 0.19934 0.0
O123 O 0.91878 0.38283 0.19177 0.0
O124 O 0.8936 0.40212 0.14738 0.0
C125 C 0.91356 0.4514 0.17293 0.0
O126 O 0.91405 0.44503 0.1895 0.0
C127 C 0.94837 0.40931 0.17252 0.0
O128 O 0.94219 0.41767 0.18693 0.0
O129 O 0.90401 0.40906 0.18992 0.0
C130 C 0.59272 0.89593 0.13706 0.0
O131 O 0.58953 0.91253 0.13163 0.0
O132 O 0.58769 0.93488 0.16903 0.0
Zn133 Zn 0.57874 0.90916 0.1711 0.0
O134 O 0.55181 0.90931 0.16705 0.0
C135 C 0.59562 0.90646 0.20611 0.0
O136 O 0.60732 0.91778 0.19896 0.0
O137 O 0.58999 0.89186 0.15352 0.0
C138 C 0.54218 0.91872 0.17772 0.0
O139 O 0.55015 0.92767 0.19086 0.0
C140 C 0.57938 0.94612 0.15901 0.0
O141 O 0.56619 0.94029 0.1486 0.0
O142 O 0.58271 0.90052 0.19645 0.0
C143 C 0.09869 0.59213 0.14212 0.0
O144 O 0.08175 0.59145 0.13676 0.0
O145 O 0.05968 0.58297 0.17154 0.0
Zn146 Zn 0.08534 0.57425 0.17445 0.0
O147 O 0.08571 0.54738 0.1701 0.0
C148 C 0.08805 0.59181 0.20903 0.0
O149 O 0.07754 0.6039 0.20132 0.0
O150 O 0.10285 0.58618 0.15767 0.0
C151 C 0.0751 0.53757 0.17942 0.0
O152 O 0.06455 0.54533 0.19145 0.0
C153 C 0.04922 0.57525 0.16028 0.0
O154 O 0.05584 0.56274 0.14953 0.0
O155 O 0.09331 0.57825 0.19993 0.0
C156 C 0.4017 0.89865 0.85128 0.0
O157 O 0.40025 0.91566 0.85617 0.0
O158 O 0.40879 0.93847 0.82285 0.0
Zn159 Zn 0.41798 0.91319 0.8184 0.0
O160 O 0.44516 0.91428 0.82017 0.0
C161 C 0.40059 0.91389 0.78341 0.0
O162 O 0.39076 0.9267 0.79083 0.0
O163 O 0.40834 0.89481 0.83591 0.0
C164 C 0.45293 0.92558 0.80978 0.0
O165 O 0.44297 0.9353 0.79873 0.0
C166 C 0.41692 0.94849 0.83421 0.0
O167 O 0.42985 0.94146 0.84419 0.0
O168 O 0.41239 0.9058 0.79291 0.0
C169 C 0.10573 0.40713 0.85523 0.0
O170 O 0.08942 0.4109 0.86119 0.0
O171 O 0.06599 0.41151 0.82491 0.0
Zn172 Zn 0.09131 0.42132 0.82215 0.0
O173 O 0.09078 0.44806 0.82725 0.0
C174 C 0.09281 0.40532 0.78685 0.0
O175 O 0.08252 0.39303 0.79454 0.0
O176 O 0.10934 0.40966 0.83864 0.0
C177 C 0.08096 0.45792 0.81716 0.0
O178 O 0.07184 0.45031 0.80393 0.0
C179 C 0.05462 0.41922 0.83524 0.0
O180 O 0.06 0.43272 0.84547 0.0
O181 O 0.09883 0.41832 0.79633 0.0
C182 C 0.59513 0.09226 0.85522 0.0
O183 O 0.59535 0.07552 0.86113 0.0
O184 O 0.59114 0.05095 0.82991 0.0
Zn185 Zn 0.58145 0.07539 0.82278 0.0
O186 O 0.55412 0.07421 0.82418 0.0
C187 C 0.59131 0.06673 0.78643 0.0
O188 O 0.5935 0.05071 0.79376 0.0
O189 O 0.59033 0.09536 0.839 0.0
C190 C 0.5461 0.06211 0.81493 0.0
O191 O 0.55582 0.05097 0.80509 0.0
C192 C 0.5823 0.0408 0.84059 0.0
O193 O 0.56813 0.04743 0.84904 0.0
O194 O 0.58734 0.08009 0.79651 0.0
C195 C 0.89563 0.58799 0.85301 0.0
O196 O 0.9122 0.58479 0.85859 0.0
O197 O 0.93479 0.58403 0.82175 0.0
Zn198 Zn 0.90936 0.57439 0.81903 0.0
O199 O 0.91007 0.54749 0.82327 0.0
C200 C 0.90757 0.59069 0.78362 0.0
O201 O 0.91981 0.60165 0.79043 0.0
O202 O 0.89169 0.58533 0.8365 0.0
C203 C 0.91916 0.53758 0.81256 0.0
O204 O 0.92755 0.54515 0.79884 0.0
C205 C 0.94599 0.57616 0.83217 0.0
O206 O 0.94039 0.56261 0.8422 0.0
O207 O 0.90087 0.57838 0.79355 0.0
C208 C 0.13826 0.41206 0.09657 0.0
O209 O 0.13203 0.41771 0.08091 0.0
O210 O 0.16929 0.41205 0.05585 0.0
Zn211 Zn 0.17312 0.42142 0.08122 0.0
O212 O 0.17188 0.44862 0.08016 0.0
C213 C 0.20839 0.40452 0.0804 0.0
O214 O 0.20163 0.39589 0.06641 0.0
O215 O 0.15522 0.41198 0.09932 0.0
C216 C 0.18357 0.45634 0.07017 0.0
O217 O 0.19553 0.44631 0.06165 0.0
C218 C 0.16028 0.42128 0.04448 0.0
O219 O 0.15153 0.43569 0.05009 0.0
O220 O 0.1984 0.41539 0.08919 0.0
C221 C 0.14028 0.59238 0.8983 0.0
O222 O 0.13417 0.59017 0.91483 0.0
O223 O 0.16763 0.5913 0.9394 0.0
Zn224 Zn 0.17348 0.58094 0.91481 0.0
O225 O 0.17037 0.55384 0.9165 0.0
C226 C 0.21042 0.58677 0.9226 0.0
O227 O 0.20399 0.58414 0.93895 0.0
O228 O 0.15703 0.59006 0.89521 0.0
C229 C 0.18228 0.54238 0.9118 0.0
O230 O 0.19757 0.54807 0.90476 0.0
C231 C 0.1577 0.58231 0.95018 0.0
O232 O 0.14942 0.56778 0.94417 0.0
O233 O 0.1996 0.58639 0.90923 0.0
C234 C 0.41288 0.14374 0.89904 0.0
O235 O 0.41178 0.13847 0.91596 0.0
O236 O 0.41658 0.17366 0.9386 0.0
Zn237 Zn 0.42759 0.17723 0.91392 0.0
O238 O 0.45465 0.17488 0.91649 0.0
C239 C 0.40948 0.21175 0.91137 0.0
O240 O 0.39861 0.20469 0.92352 0.0
O241 O 0.41871 0.15949 0.89546 0.0
C242 C 0.46261 0.18536 0.92757 0.0
O243 O 0.45295 0.19729 0.93654 0.0
C244 C 0.4237 0.16254 0.9496 0.0
O245 O 0.43723 0.15243 0.94409 0.0
O246 O 0.42246 0.20235 0.90519 0.0
C247 C 0.86056 0.40817 0.89574 0.0
O248 O 0.86496 0.41591 0.91113 0.0
O249 O 0.82833 0.40895 0.93394 0.0
Zn250 Zn 0.82584 0.41786 0.90831 0.0
O251 O 0.83063 0.44476 0.90924 0.0
C252 C 0.79105 0.40012 0.90414 0.0
O253 O 0.79842 0.38758 0.91435 0.0
O254 O 0.84394 0.40657 0.8917 0.0
C255 C 0.81784 0.45626 0.90889 0.0
O256 O 0.8011 0.45057 0.90706 0.0
C257 C 0.81635 0.41487 0.94475 0.0
O258 O 0.80329 0.42505 0.93829 0.0
O259 O 0.80051 0.41362 0.89932 0.0
C260 C 0.58426 0.8464 0.8913 0.0
O261 O 0.58929 0.85089 0.90774 0.0
O262 O 0.57787 0.81945 0.93237 0.0
Zn263 Zn 0.56547 0.81607 0.90837 0.0
O264 O 0.53882 0.82004 0.91225 0.0
C265 C 0.58271 0.78163 0.90402 0.0
O266 O 0.59612 0.78972 0.91244 0.0
O267 O 0.57457 0.83243 0.8889 0.0
C268 C 0.53136 0.81051 0.92446 0.0
O269 O 0.54128 0.79885 0.9335 0.0
C270 C 0.57228 0.83167 0.94307 0.0
O271 O 0.55987 0.84306 0.93739 0.0
O272 O 0.56844 0.79048 0.90047 0.0
C273 C 0.85345 0.5806 0.09794 0.0
O274 O 0.85884 0.58081 0.08101 0.0
O275 O 0.82268 0.57922 0.05852 0.0
Zn276 Zn 0.81869 0.56866 0.08334 0.0
O277 O 0.81855 0.54157 0.08074 0.0
C278 C 0.78585 0.58961 0.08693 0.0
O279 O 0.79392 0.60067 0.07562 0.0
O280 O 0.83725 0.57621 0.1016 0.0
C281 C 0.80646 0.53496 0.07043 0.0
O282 O 0.79499 0.54597 0.06247 0.0
C283 C 0.83272 0.57083 0.04737 0.0
O284 O 0.84162 0.55648 0.05291 0.0
O285 O 0.79413 0.57557 0.09231 0.0
C286 C 0.40913 0.85669 0.10067 0.0
O287 O 0.40909 0.86299 0.08406 0.0
O288 O 0.40848 0.82743 0.05976 0.0
Zn289 Zn 0.42033 0.82283 0.08391 0.0
O290 O 0.4473 0.82413 0.08021 0.0
C291 C 0.40215 0.78824 0.0851 0.0
O292 O 0.39145 0.79565 0.07299 0.0
O293 O 0.41298 0.84019 0.10341 0.0
C294 C 0.45411 0.81333 0.06869 0.0
O295 O 0.44337 0.80205 0.0601 0.0
C296 C 0.41583 0.83812 0.04849 0.0
O297 O 0.43005 0.84752 0.05354 0.0
O298 O 0.41489 0.79753 0.09191 0.0
C299 C 0.58878 0.14065 0.10231 0.0
O300 O 0.59027 0.13487 0.08557 0.0
O301 O 0.58624 0.16973 0.06157 0.0
Zn302 Zn 0.57474 0.17379 0.086 0.0
O303 O 0.54778 0.17148 0.08282 0.0
C304 C 0.59185 0.20899 0.08801 0.0
O305 O 0.60359 0.20187 0.07673 0.0
O306 O 0.58307 0.15657 0.10525 0.0
C307 C 0.54042 0.18196 0.07134 0.0
O308 O 0.55066 0.19341 0.06239 0.0
C309 C 0.57915 0.15848 0.05066 0.0
O310 O 0.5656 0.14843 0.05625 0.0
O311 O 0.57905 0.19928 0.09406 0.0
C312 C 0.8915 0.8292 0.58208 0.0
O313 O 0.88533 0.81393 0.57542 0.0
O314 O 0.92331 0.78803 0.58309 0.0
Zn315 Zn 0.92679 0.81367 0.57418 0.0
O316 O 0.92532 0.81292 0.54693 0.0
C317 C 0.96226 0.81642 0.59211 0.0
O318 O 0.95708 0.80245 0.60177 0.0
O319 O 0.90847 0.8314 0.58364 0.0
C320 C 0.91837 0.82513 0.53701 0.0
O321 O 0.91164 0.83973 0.54456 0.0
C322 C 0.91321 0.77751 0.57392 0.0
O323 O 0.90433 0.78408 0.56 0.0
O324 O 0.95162 0.82294 0.58029 0.0
C325 C 0.15332 0.9062 0.5883 0.0
O326 O 0.16952 0.89971 0.59166 0.0
O327 O 0.19644 0.92991 0.5775 0.0
Zn328 Zn 0.17151 0.93504 0.56755 0.0
O329 O 0.17178 0.92931 0.54094 0.0
C330 C 0.16872 0.97109 0.58364 0.0
O331 O 0.17746 0.96406 0.59743 0.0
O332 O 0.15171 0.92058 0.57907 0.0
C333 C 0.18359 0.93687 0.53099 0.0
O334 O 0.19512 0.9482 0.53839 0.0
C335 C 0.20536 0.9166 0.57123 0.0
O336 O 0.19747 0.90561 0.5597 0.0
O337 O 0.16519 0.9613 0.56997 0.0
C338 C 0.09219 0.16571 0.58668 0.0
O339 O 0.10038 0.18141 0.58812 0.0
O340 O 0.0724 0.21063 0.58099 0.0
Zn341 Zn 0.06373 0.1871 0.57047 0.0
O342 O 0.06736 0.18818 0.54349 0.0
C343 C 0.02776 0.17432 0.58283 0.0
O344 O 0.03599 0.16072 0.59077 0.0
O345 O 0.07622 0.16514 0.58038 0.0
C346 C 0.07319 0.17517 0.5339 0.0
O347 O 0.07747 0.1598 0.54171 0.0
C348 C 0.08465 0.21978 0.57311 0.0
O349 O 0.09322 0.21259 0.55929 0.0
O350 O 0.03698 0.18604 0.5743 0.0
C351 C 0.8387 0.08941 0.58825 0.0
O352 O 0.82249 0.09656 0.58972 0.0
O353 O 0.79543 0.06912 0.57716 0.0
Zn354 Zn 0.81975 0.06394 0.56599 0.0
O355 O 0.82027 0.07409 0.54073 0.0
C356 C 0.83005 0.026 0.57407 0.0
O357 O 0.83859 0.03197 0.58847 0.0
O358 O 0.84054 0.07468 0.57962 0.0
C359 C 0.83172 0.06833 0.52928 0.0
O360 O 0.84339 0.05587 0.53423 0.0
C361 C 0.78508 0.08131 0.57084 0.0
O362 O 0.79106 0.09185 0.55784 0.0
O363 O 0.82201 0.03709 0.56369 0.0
C364 C 0.90106 0.16188 0.40672 0.0
O365 O 0.89407 0.17797 0.40945 0.0
O366 O 0.92982 0.20272 0.41451 0.0
Zn367 Zn 0.93246 0.17739 0.42431 0.0
O368 O 0.92447 0.17786 0.45032 0.0
C369 C 0.96932 0.17493 0.41109 0.0
O370 O 0.96305 0.18493 0.3978 0.0
O371 O 0.91741 0.15899 0.41119 0.0
C372 C 0.92676 0.16477 0.4612 0.0
O373 O 0.93477 0.14999 0.45545 0.0
C374 C 0.91814 0.21334 0.42136 0.0
O375 O 0.90695 0.2071 0.43367 0.0
O376 O 0.95865 0.17003 0.42365 0.0
C377 C 0.83914 0.90208 0.39142 0.0
O378 O 0.82233 0.89644 0.39028 0.0
O379 O 0.798 0.92905 0.40172 0.0
Zn380 Zn 0.82384 0.93345 0.40987 0.0
O381 O 0.8249 0.92778 0.43649 0.0
C382 C 0.82354 0.97085 0.39667 0.0
O383 O 0.81032 0.96554 0.38603 0.0
O384 O 0.84237 0.91762 0.39797 0.0
C385 C 0.81225 0.93334 0.4467 0.0
O386 O 0.79919 0.9432 0.43975 0.0
C387 C 0.78907 0.91613 0.40878 0.0
O388 O 0.79746 0.90479 0.4196 0.0
O389 O 0.83096 0.95951 0.40723 0.0
C390 C 0.0901 0.83815 0.41181 0.0
O391 O 0.09586 0.82136 0.41236 0.0
O392 O 0.06304 0.79813 0.42199 0.0
Zn393 Zn 0.05941 0.82357 0.43121 0.0
O394 O 0.06667 0.82392 0.45744 0.0
C395 C 0.02308 0.82457 0.41664 0.0
O396 O 0.03007 0.81413 0.40407 0.0
O397 O 0.07463 0.84192 0.41825 0.0
C398 C 0.06014 0.83482 0.469 0.0
O399 O 0.04793 0.84667 0.46386 0.0
C400 C 0.07502 0.78805 0.42914 0.0
O401 O 0.08571 0.79484 0.44163 0.0
O402 O 0.03314 0.83032 0.42934 0.0
C403 C 0.15515 0.08983 0.40811 0.0
O404 O 0.17192 0.0955 0.4065 0.0
O405 O 0.19625 0.06411 0.41965 0.0
Zn406 Zn 0.17074 0.05965 0.42833 0.0
O407 O 0.16979 0.06509 0.45499 0.0
C408 C 0.17035 0.02364 0.4125 0.0
O409 O 0.1812 0.03078 0.40037 0.0
O410 O 0.15202 0.07497 0.4161 0.0
C411 C 0.18055 0.05686 0.46556 0.0
O412 O 0.1919 0.04499 0.45877 0.0
C413 C 0.20593 0.07642 0.4268 0.0
O414 O 0.1986 0.08727 0.43882 0.0
O415 O 0.1643 0.03348 0.42522 0.0
C416 C 0.58261 0.89675 0.83275 0.0
O417 O 0.57884 0.89137 0.81624 0.0
O418 O 0.57586 0.92891 0.79468 0.0
Zn419 Zn 0.56742 0.93066 0.8206 0.0
O420 O 0.54057 0.92615 0.82127 0.0
C421 C 0.58599 0.9645 0.8276 0.0
O422 O 0.59931 0.95705 0.81849 0.0
O423 O 0.57958 0.91306 0.83715 0.0
C424 C 0.53042 0.93645 0.81199 0.0
O425 O 0.53783 0.94954 0.80251 0.0
C426 C 0.56771 0.91846 0.78369 0.0
O427 O 0.55469 0.90799 0.78977 0.0
O428 O 0.57147 0.95566 0.83005 0.0
C429 C 0.09106 0.58815 0.83835 0.0
O430 O 0.09688 0.58916 0.8216 0.0
O431 O 0.06396 0.58133 0.79763 0.0
Zn432 Zn 0.05933 0.57093 0.82237 0.0
O433 O 0.06324 0.54401 0.82053 0.0
C434 C 0.02269 0.58575 0.82203 0.0
O435 O 0.02895 0.59665 0.80947 0.0
O436 O 0.07554 0.58145 0.8415 0.0
C437 C 0.07412 0.53478 0.83014 0.0
O438 O 0.08376 0.54287 0.84269 0.0
C439 C 0.07596 0.57413 0.78762 0.0
O440 O 0.08597 0.56101 0.79422 0.0
O441 O 0.0333 0.5744 0.82938 0.0
C442 C 0.41451 0.09308 0.84042 0.0
O443 O 0.4145 0.09863 0.82355 0.0
O444 O 0.42242 0.06572 0.8003 0.0
Zn445 Zn 0.43142 0.06092 0.82561 0.0
O446 O 0.45841 0.06454 0.82599 0.0
C447 C 0.41379 0.02577 0.82579 0.0
O448 O 0.40257 0.03335 0.81428 0.0
O449 O 0.42042 0.07739 0.84411 0.0
C450 C 0.46818 0.05435 0.81619 0.0
O451 O 0.46032 0.0419 0.80623 0.0
C452 C 0.43004 0.07745 0.79029 0.0
O453 O 0.44331 0.08723 0.79698 0.0
O454 O 0.42665 0.03508 0.8324 0.0
C455 C 0.91259 0.40491 0.83834 0.0
O456 O 0.90873 0.39788 0.82248 0.0
O457 O 0.93734 0.41228 0.79603 0.0
Zn458 Zn 0.94185 0.42471 0.81984 0.0
O459 O 0.93724 0.45137 0.81599 0.0
C460 C 0.97841 0.40986 0.82189 0.0
O461 O 0.97235 0.39749 0.81065 0.0
O462 O 0.92588 0.4157 0.83984 0.0
C463 C 0.92761 0.46102 0.82647 0.0
O464 O 0.92009 0.45356 0.84073 0.0
C465 C 0.92337 0.41669 0.78701 0.0
O466 O 0.91175 0.42807 0.79419 0.0
O467 O 0.96779 0.42218 0.8274 0.0
C468 C 0.58483 0.09113 0.16187 0.0
O469 O 0.58271 0.0972 0.17843 0.0
O470 O 0.5772 0.06202 0.20186 0.0
Zn471 Zn 0.5684 0.05848 0.17619 0.0
O472 O 0.54166 0.06364 0.17563 0.0
C473 C 0.58429 0.02241 0.17428 0.0
O474 O 0.59605 0.0288 0.18599 0.0
O475 O 0.58043 0.07493 0.15824 0.0
C476 C 0.53123 0.0546 0.18586 0.0
O477 O 0.53819 0.042 0.19629 0.0
C478 C 0.56954 0.07352 0.21211 0.0
O479 O 0.55675 0.08389 0.20541 0.0
O480 O 0.57181 0.03267 0.16841 0.0
C481 C 0.90406 0.57968 0.15688 0.0
O482 O 0.8982 0.57925 0.17364 0.0
O483 O 0.9326 0.57434 0.19734 0.0
Zn484 Zn 0.93649 0.56404 0.17235 0.0
O485 O 0.93153 0.53736 0.17398 0.0
C486 C 0.97217 0.58019 0.17069 0.0
O487 O 0.96506 0.59226 0.18162 0.0
O488 O 0.92013 0.57466 0.15348 0.0
C489 C 0.92664 0.52752 0.16075 0.0
O490 O 0.92501 0.53476 0.14461 0.0
C491 C 0.92107 0.56695 0.20775 0.0
O492 O 0.91092 0.55379 0.20142 0.0
O493 O 0.9624 0.56727 0.16492 0.0
C494 C 0.41267 0.90474 0.16166 0.0
O495 O 0.41306 0.89838 0.17824 0.0
O496 O 0.4192 0.93228 0.20279 0.0
Zn497 Zn 0.42841 0.93728 0.17759 0.0
O498 O 0.45554 0.93442 0.1783 0.0
C499 C 0.41107 0.9728 0.17715 0.0
O500 O 0.40006 0.96594 0.1893 0.0
O501 O 0.41792 0.92082 0.15869 0.0
C502 C 0.46469 0.92418 0.16796 0.0
O503 O 0.45636 0.91471 0.15544 0.0
C504 C 0.42733 0.92049 0.21234 0.0
O505 O 0.44044 0.91101 0.20499 0.0
O506 O 0.42353 0.963 0.17054 0.0
C507 C 0.09107 0.40784 0.15824 0.0
O508 O 0.09807 0.40564 0.17443 0.0
O509 O 0.07089 0.41491 0.20223 0.0
Zn510 Zn 0.06109 0.42328 0.17822 0.0
O511 O 0.06148 0.45056 0.17838 0.0
C512 C 0.02575 0.41074 0.1638 0.0
O513 O 0.03338 0.40989 0.14778 0.0
O514 O 0.07519 0.41423 0.15678 0.0
C515 C 0.07302 0.45998 0.16978 0.0
O516 O 0.08523 0.45181 0.15978 0.0
C517 C 0.08248 0.42414 0.21098 0.0
O518 O 0.08981 0.43836 0.20327 0.0
O519 O 0.03507 0.41562 0.1774 0.0
C520 C 0.8368 0.58729 0.90342 0.0
O521 O 0.82002 0.5893 0.89792 0.0
O522 O 0.79595 0.57938 0.9308 0.0
Zn523 Zn 0.82071 0.56839 0.93408 0.0
O524 O 0.81839 0.54212 0.92744 0.0
C525 C 0.82303 0.58205 0.97088 0.0
O526 O 0.81272 0.59514 0.96469 0.0
O527 O 0.83988 0.57958 0.91845 0.0
C528 C 0.83168 0.53166 0.92442 0.0
O529 O 0.84825 0.53796 0.9258 0.0
C530 C 0.7858 0.5732 0.91835 0.0
O531 O 0.7924 0.56118 0.90703 0.0
O532 O 0.82815 0.56961 0.96018 0.0
C533 C 0.83205 0.40124 0.08629 0.0
O534 O 0.81619 0.39987 0.09419 0.0
O535 O 0.78752 0.41205 0.06787 0.0
Zn536 Zn 0.81179 0.42059 0.05891 0.0
O537 O 0.81381 0.44728 0.06377 0.0
C538 C 0.82348 0.40916 0.0223 0.0
O539 O 0.83762 0.40161 0.02997 0.0
O540 O 0.83305 0.40857 0.0708 0.0
C541 C 0.80258 0.45807 0.05651 0.0
O542 O 0.7899 0.45151 0.0459 0.0
C543 C 0.77904 0.42025 0.08039 0.0
O544 O 0.78724 0.43328 0.08928 0.0
O545 O 0.81185 0.41726 0.032 0.0
C546 C 0.58902 0.83755 0.08649 0.0
O547 O 0.59041 0.82067 0.09182 0.0
O548 O 0.57634 0.79716 0.06059 0.0
Zn549 Zn 0.56817 0.82284 0.05625 0.0
O550 O 0.54153 0.82412 0.06173 0.0
C551 C 0.58252 0.82196 0.01958 0.0
O552 O 0.59335 0.80939 0.02595 0.0
O553 O 0.58085 0.8411 0.0718 0.0
C554 C 0.53083 0.81379 0.05311 0.0
O555 O 0.53751 0.8028 0.04084 0.0
C556 C 0.56908 0.78785 0.07311 0.0
O557 O 0.55737 0.79563 0.08398 0.0
O558 O 0.57122 0.82948 0.03012 0.0
C559 C 0.15724 0.59156 0.09208 0.0
O560 O 0.17412 0.59413 0.09704 0.0
O561 O 0.19775 0.57922 0.06709 0.0
Zn562 Zn 0.17234 0.57057 0.06219 0.0
O563 O 0.1715 0.54378 0.06693 0.0
C564 C 0.16971 0.58795 0.02678 0.0
O565 O 0.17945 0.60095 0.03401 0.0
O566 O 0.15386 0.58256 0.07785 0.0
C567 C 0.18265 0.53369 0.0586 0.0
O568 O 0.19412 0.54111 0.04722 0.0
C569 C 0.20667 0.57219 0.08004 0.0
O570 O 0.19868 0.56031 0.09056 0.0
O571 O 0.16549 0.57428 0.03626 0.0
C572 C 0.40915 0.15716 0.09514 0.0
O573 O 0.41069 0.17403 0.10049 0.0
O574 O 0.41725 0.19638 0.06642 0.0
Zn575 Zn 0.42617 0.17082 0.06278 0.0
O576 O 0.45292 0.1703 0.06782 0.0
C577 C 0.41194 0.17101 0.02608 0.0
O578 O 0.40115 0.18371 0.03223 0.0
O579 O 0.41413 0.15292 0.07926 0.0
C580 C 0.46328 0.18003 0.05816 0.0
O581 O 0.45616 0.19002 0.04529 0.0
C582 C 0.42497 0.20686 0.07768 0.0
O583 O 0.43815 0.20053 0.0878 0.0
O584 O 0.42303 0.16346 0.03683 0.0
C585 C 0.16595 0.40844 0.90367 0.0
O586 O 0.18249 0.40465 0.89841 0.0
O587 O 0.20752 0.41812 0.92878 0.0
Zn588 Zn 0.18298 0.42929 0.9328 0.0
O589 O 0.18493 0.45557 0.92607 0.0
C590 C 0.17718 0.41402 0.96874 0.0
O591 O 0.18467 0.39939 0.96202 0.0
O592 O 0.16351 0.41803 0.91771 0.0
C593 C 0.17186 0.46656 0.92796 0.0
O594 O 0.15644 0.46065 0.93454 0.0
C595 C 0.21684 0.42377 0.91546 0.0
O596 O 0.20961 0.43554 0.90429 0.0
O597 O 0.17549 0.42796 0.95885 0.0
C598 C 0.59298 0.1516 0.90521 0.0
O599 O 0.59332 0.1684 0.8995 0.0
O600 O 0.58633 0.19191 0.93333 0.0
Zn601 Zn 0.576 0.16697 0.93725 0.0
O602 O 0.54922 0.16809 0.93215 0.0
C603 C 0.59017 0.16701 0.97403 0.0
O604 O 0.60133 0.17934 0.96778 0.0
O605 O 0.58696 0.14816 0.92094 0.0
C606 C 0.53959 0.17935 0.94087 0.0
O607 O 0.54739 0.18977 0.95299 0.0
C608 C 0.57988 0.20201 0.921 0.0
O609 O 0.56735 0.19553 0.91018 0.0
O610 O 0.57881 0.15974 0.96334 0.0
C611 C 0.40087 0.84105 0.90307 0.0
O612 O 0.40109 0.82409 0.89781 0.0
O613 O 0.40939 0.80137 0.93208 0.0
Zn614 Zn 0.4181 0.82706 0.93555 0.0
O615 O 0.44485 0.82719 0.93059 0.0
C616 C 0.40372 0.82785 0.97231 0.0
O617 O 0.39263 0.81524 0.96647 0.0
O618 O 0.4065 0.84504 0.91881 0.0
C619 C 0.45495 0.81699 0.94005 0.0
O620 O 0.44759 0.80709 0.95285 0.0
C621 C 0.41686 0.79154 0.92009 0.0
O622 O 0.42894 0.79882 0.90927 0.0
O623 O 0.41501 0.83483 0.9614 0.0
C624 C 0.59464 0.63875 0.90631 0.0
O625 O 0.57829 0.63246 0.90333 0.0
O626 O 0.55223 0.66499 0.91265 0.0
Zn627 Zn 0.57709 0.67077 0.92207 0.0
O628 O 0.57546 0.67021 0.94921 0.0
C629 C 0.57645 0.70445 0.90232 0.0
O630 O 0.56419 0.69625 0.89239 0.0
O631 O 0.59663 0.65413 0.91366 0.0
C632 C 0.56358 0.68043 0.95628 0.0
O633 O 0.55358 0.69059 0.94565 0.0
C634 C 0.54294 0.65278 0.92039 0.0
O635 O 0.5507 0.6426 0.93272 0.0
O636 O 0.58385 0.696 0.91529 0.0
C637 C 0.35507 0.59893 0.91413 0.0
O638 O 0.36252 0.58285 0.91524 0.0
O639 O 0.32759 0.55655 0.9161 0.0
Zn640 Zn 0.32401 0.58038 0.92878 0.0
O641 O 0.33067 0.57691 0.95497 0.0
C642 C 0.28791 0.58613 0.91401 0.0
O643 O 0.2954 0.58242 0.89832 0.0
O644 O 0.33856 0.60082 0.9185 0.0
C645 C 0.32339 0.58634 0.96735 0.0
O646 O 0.31193 0.59916 0.96285 0.0
C647 C 0.33904 0.54542 0.92246 0.0
O648 O 0.34962 0.55059 0.93578 0.0
O649 O 0.29764 0.58636 0.92816 0.0
C650 C 0.40813 0.35708 0.90407 0.0
O651 O 0.42336 0.36301 0.9111 0.0
O652 O 0.44728 0.32335 0.90743 0.0
Zn653 Zn 0.42155 0.32295 0.91657 0.0
O654 O 0.42277 0.32925 0.94307 0.0
C655 C 0.41395 0.28829 0.90012 0.0
O656 O 0.42259 0.29528 0.88625 0.0
O657 O 0.40499 0.34022 0.90405 0.0
C658 C 0.41294 0.32139 0.95479 0.0
O659 O 0.40105 0.30931 0.94945 0.0
C660 C 0.45649 0.30972 0.91246 0.0
O661 O 0.44858 0.29714 0.92219 0.0
O662 O 0.41145 0.29788 0.91415 0.0
C663 C 0.64804 0.39597 0.92836 0.0
O664 O 0.6481 0.40668 0.94253 0.0
O665 O 0.67759 0.43905 0.91214 0.0
Zn666 Zn 0.68112 0.41441 0.92305 0.0
O667 O 0.68179 0.41777 0.95013 0.0
C668 C 0.71418 0.41049 0.90246 0.0
O669 O 0.70695 0.42318 0.89235 0.0
O670 O 0.66083 0.39715 0.91693 0.0
C671 C 0.69104 0.4301 0.95774 0.0
O672 O 0.70126 0.44069 0.94778 0.0
C673 C 0.66576 0.44948 0.91896 0.0
O674 O 0.65508 0.44321 0.93169 0.0
O675 O 0.70525 0.40427 0.91576 0.0
C676 C 0.59276 0.35536 0.08259 0.0
O677 O 0.57611 0.36048 0.07908 0.0
O678 O 0.55426 0.32292 0.08209 0.0
Zn679 Zn 0.57958 0.31968 0.07246 0.0
O680 O 0.5779 0.31969 0.04527 0.0
C681 C 0.58242 0.28587 0.09207 0.0
O682 O 0.56972 0.29289 0.10232 0.0
O683 O 0.59697 0.33878 0.08099 0.0
C684 C 0.56817 0.3074 0.03815 0.0
O685 O 0.56013 0.29559 0.04873 0.0
C686 C 0.54305 0.33231 0.07304 0.0
O687 O 0.54876 0.34097 0.05861 0.0
O688 O 0.58894 0.29517 0.0792 0.0
C689 C 0.64137 0.60249 0.09068 0.0
O690 O 0.63611 0.58567 0.09288 0.0
O691 O 0.67024 0.56205 0.08642 0.0
Zn692 Zn 0.67443 0.58677 0.07571 0.0
O693 O 0.67285 0.58411 0.04865 0.0
C694 C 0.70872 0.58852 0.0943 0.0
O695 O 0.70079 0.57748 0.10574 0.0
O696 O 0.65692 0.60569 0.08413 0.0
C697 C 0.68372 0.57288 0.04148 0.0
O698 O 0.69509 0.56408 0.05194 0.0
C699 C 0.65906 0.5514 0.07887 0.0
O700 O 0.64902 0.5575 0.06552 0.0
O701 O 0.69977 0.59468 0.08101 0.0
C702 C 0.3941 0.64431 0.09596 0.0
O703 O 0.41088 0.63845 0.09595 0.0
O704 O 0.434 0.67329 0.08706 0.0
Zn705 Zn 0.40873 0.67575 0.07715 0.0
O706 O 0.40937 0.67029 0.05045 0.0
C707 C 0.40627 0.7111 0.09299 0.0
O708 O 0.41629 0.70368 0.10566 0.0
O709 O 0.39055 0.6597 0.08922 0.0
C710 C 0.41974 0.67985 0.04061 0.0
O711 O 0.42946 0.69262 0.04825 0.0
C712 C 0.44498 0.66192 0.08033 0.0
O713 O 0.43911 0.65052 0.06801 0.0
O714 O 0.40101 0.70152 0.07973 0.0
C715 C 0.35316 0.39818 0.08965 0.0
O716 O 0.3603 0.4144 0.08846 0.0
O717 O 0.32352 0.43966 0.08758 0.0
Zn718 Zn 0.32125 0.41561 0.07494 0.0
O719 O 0.32825 0.41937 0.04887 0.0
C720 C 0.28541 0.41081 0.08939 0.0
O721 O 0.2925 0.41867 0.10368 0.0
O722 O 0.33666 0.39595 0.0854 0.0
C723 C 0.32129 0.4104 0.03597 0.0
O724 O 0.30937 0.39774 0.03964 0.0
C725 C 0.33467 0.45128 0.08156 0.0
O726 O 0.34586 0.44656 0.06858 0.0
O727 O 0.2953 0.4079 0.07565 0.0
C728 C 0.90647 0.58868 0.63744 0.0
O729 O 0.91474 0.57364 0.63285 0.0
O730 O 0.90677 0.55018 0.67168 0.0
Zn731 Zn 0.91575 0.57591 0.6724 0.0
O732 O 0.94239 0.57452 0.66692 0.0
C733 C 0.89851 0.58319 0.70685 0.0
O734 O 0.88511 0.57381 0.69987 0.0
O735 O 0.90419 0.59212 0.6541 0.0
C736 C 0.95415 0.58407 0.67504 0.0
O737 O 0.94887 0.59583 0.68727 0.0
C738 C 0.91169 0.54076 0.6852 0.0
O739 O 0.92102 0.54854 0.69818 0.0
O740 O 0.9125 0.58621 0.69734 0.0
C741 C 0.39503 0.90806 0.63884 0.0
O742 O 0.41149 0.91007 0.63243 0.0
O743 O 0.43513 0.91718 0.66821 0.0
Zn744 Zn 0.40935 0.92577 0.67104 0.0
O745 O 0.40877 0.95253 0.66612 0.0
C746 C 0.40687 0.90889 0.70608 0.0
O747 O 0.41696 0.89641 0.69845 0.0
O748 O 0.39158 0.91324 0.65485 0.0
C749 C 0.4183 0.96255 0.67635 0.0
O750 O 0.42769 0.95501 0.68944 0.0
C751 C 0.44583 0.92543 0.65757 0.0
O752 O 0.43939 0.93828 0.64713 0.0
O753 O 0.40176 0.92238 0.69679 0.0
C754 C 0.08588 0.40555 0.64211 0.0
O755 O 0.08368 0.42242 0.63704 0.0
O756 O 0.08089 0.44359 0.67365 0.0
Zn757 Zn 0.07189 0.41806 0.67669 0.0
O758 O 0.04466 0.41853 0.67529 0.0
C759 C 0.09218 0.41514 0.70988 0.0
O760 O 0.10293 0.42684 0.70193 0.0
O761 O 0.08199 0.401 0.65821 0.0
C762 C 0.0365 0.42825 0.68689 0.0
O763 O 0.04611 0.43704 0.699 0.0
C764 C 0.07215 0.4546 0.66375 0.0
O765 O 0.05818 0.44868 0.65447 0.0
O766 O 0.07842 0.40926 0.70143 0.0
C767 C 0.59511 0.09811 0.642 0.0
O768 O 0.5789 0.09669 0.63485 0.0
O769 O 0.55322 0.09714 0.67132 0.0
Zn770 Zn 0.57718 0.08441 0.6738 0.0
O771 O 0.57335 0.05842 0.66623 0.0
C772 C 0.57729 0.07283 0.7102 0.0
O773 O 0.56549 0.06144 0.70334 0.0
O774 O 0.59721 0.09469 0.65869 0.0
C775 C 0.58445 0.0458 0.66986 0.0
O776 O 0.59958 0.04972 0.67834 0.0
C777 C 0.54198 0.09138 0.65964 0.0
O778 O 0.54718 0.07888 0.64814 0.0
O779 O 0.58436 0.08475 0.70006 0.0
C780 C 0.91201 0.39634 0.3436 0.0
O781 O 0.90955 0.41336 0.34801 0.0
O782 O 0.91703 0.4354 0.31358 0.0
Zn783 Zn 0.92775 0.41056 0.31013 0.0
O784 O 0.9548 0.41315 0.31243 0.0
C785 C 0.90865 0.40685 0.27622 0.0
O786 O 0.8972 0.41808 0.28387 0.0
O787 O 0.91895 0.39245 0.32837 0.0
C788 C 0.96266 0.42449 0.30217 0.0
O789 O 0.95295 0.43351 0.29032 0.0
C790 C 0.92413 0.44601 0.32511 0.0
O791 O 0.93724 0.43994 0.33548 0.0
O792 O 0.92242 0.40158 0.28505 0.0
C793 C 0.60192 0.90355 0.35161 0.0
O794 O 0.58509 0.90358 0.3573 0.0
O795 O 0.56184 0.90727 0.32201 0.0
Zn796 Zn 0.58673 0.9178 0.31814 0.0
O797 O 0.58439 0.94483 0.32057 0.0
C798 C 0.58832 0.90031 0.28318 0.0
O799 O 0.57649 0.88918 0.29039 0.0
O800 O 0.6054 0.90855 0.33555 0.0
C801 C 0.57303 0.95246 0.31015 0.0
O802 O 0.56403 0.94249 0.29849 0.0
C803 C 0.55122 0.91486 0.3332 0.0
O804 O 0.55739 0.92817 0.34325 0.0
O805 O 0.5948 0.91303 0.29273 0.0
C806 C 0.09078 0.60133 0.35373 0.0
O807 O 0.09306 0.58463 0.35933 0.0
O808 O 0.08789 0.56063 0.32488 0.0
Zn809 Zn 0.07639 0.58498 0.32071 0.0
O810 O 0.0494 0.58163 0.32237 0.0
C811 C 0.09445 0.58677 0.28617 0.0
O812 O 0.10575 0.57533 0.29373 0.0
O813 O 0.08439 0.60419 0.33805 0.0
C814 C 0.04245 0.57004 0.31173 0.0
O815 O 0.05307 0.56123 0.30052 0.0
C816 C 0.08063 0.54962 0.3359 0.0
O817 O 0.067 0.55515 0.34588 0.0
O818 O 0.08141 0.59305 0.2954 0.0
C819 C 0.39738 0.08187 0.36098 0.0
O820 O 0.41376 0.07968 0.36753 0.0
O821 O 0.43833 0.08222 0.33016 0.0
Zn822 Zn 0.4135 0.07143 0.3264 0.0
O823 O 0.41623 0.04436 0.32753 0.0
C824 C 0.41067 0.09058 0.29237 0.0
O825 O 0.4221 0.10188 0.29998 0.0
O826 O 0.39465 0.07958 0.34417 0.0
C827 C 0.42722 0.03734 0.31632 0.0
O828 O 0.43571 0.04793 0.30485 0.0
C829 C 0.44957 0.07414 0.34037 0.0
O830 O 0.44401 0.06025 0.34996 0.0
O831 O 0.40495 0.07711 0.30134 0.0
C832 C 0.63622 0.90425 0.59526 0.0
O833 O 0.63009 0.90818 0.57904 0.0
O834 O 0.66628 0.9049 0.55435 0.0
Zn835 Zn 0.66966 0.91545 0.57937 0.0
O836 O 0.66508 0.94232 0.57768 0.0
C837 C 0.70647 0.9178 0.57423 0.0
O838 O 0.6997 0.9262 0.5601 0.0
O839 O 0.65311 0.90525 0.59824 0.0
C840 C 0.67331 0.9542 0.58699 0.0
O841 O 0.68543 0.94907 0.59895 0.0
C842 C 0.65703 0.91353 0.5427 0.0
O843 O 0.64766 0.92768 0.54795 0.0
O844 O 0.69567 0.91145 0.58598 0.0
C845 C 0.64242 0.08709 0.40195 0.0
O846 O 0.6355 0.08626 0.41829 0.0
O847 O 0.66576 0.08414 0.44487 0.0
Zn848 Zn 0.67453 0.07537 0.42056 0.0
O849 O 0.67457 0.04796 0.42091 0.0
C850 C 0.71003 0.07931 0.43182 0.0
O851 O 0.70219 0.07153 0.44575 0.0
O852 O 0.65914 0.08376 0.39979 0.0
C853 C 0.68791 0.03863 0.41536 0.0
O854 O 0.70191 0.04681 0.40809 0.0
C855 C 0.65686 0.07359 0.45513 0.0
O856 O 0.65126 0.05801 0.44868 0.0
O857 O 0.70039 0.08345 0.41818 0.0
C858 C 0.90774 0.64133 0.39477 0.0
O859 O 0.90553 0.63576 0.41149 0.0
O860 O 0.9113 0.6695 0.4357 0.0
Zn861 Zn 0.92185 0.67452 0.41108 0.0
O862 O 0.94895 0.67353 0.41376 0.0
C863 C 0.90324 0.70889 0.41086 0.0
O864 O 0.89294 0.70116 0.4231 0.0
O865 O 0.91394 0.65708 0.39186 0.0
C866 C 0.95591 0.68402 0.42549 0.0
O867 O 0.94524 0.69484 0.43472 0.0
C868 C 0.91925 0.65828 0.44602 0.0
O869 O 0.93281 0.64877 0.43956 0.0
O870 O 0.91586 0.69983 0.40355 0.0
C871 C 0.35537 0.9009 0.39648 0.0
O872 O 0.36053 0.90338 0.4133 0.0
O873 O 0.32272 0.90603 0.43465 0.0
Zn874 Zn 0.32163 0.916 0.40926 0.0
O875 O 0.32674 0.94271 0.41052 0.0
C876 C 0.28658 0.8999 0.40454 0.0
O877 O 0.29362 0.88708 0.41464 0.0
O878 O 0.33917 0.90455 0.39206 0.0
C879 C 0.31547 0.95259 0.41894 0.0
O880 O 0.30108 0.94501 0.42614 0.0
C881 C 0.33284 0.9135 0.44638 0.0
O882 O 0.34377 0.92655 0.4413 0.0
O883 O 0.29636 0.91325 0.39997 0.0
C884 C 0.09329 0.3545 0.39638 0.0
O885 O 0.09391 0.35952 0.41341 0.0
O886 O 0.08809 0.32473 0.4356 0.0
Zn887 Zn 0.07767 0.32126 0.41062 0.0
O888 O 0.05062 0.32389 0.41269 0.0
C889 C 0.09456 0.28602 0.40869 0.0
O890 O 0.1058 0.29287 0.42064 0.0
O891 O 0.08734 0.33888 0.39238 0.0
C892 C 0.04279 0.31338 0.42383 0.0
O893 O 0.05262 0.30168 0.43292 0.0
C894 C 0.08072 0.33607 0.44622 0.0
O895 O 0.06754 0.3463 0.44009 0.0
O896 O 0.0821 0.29591 0.40222 0.0
C897 C 0.34555 0.08416 0.60465 0.0
O898 O 0.34998 0.08903 0.58814 0.0
O899 O 0.31762 0.07878 0.56382 0.0
Zn900 Zn 0.31388 0.06694 0.58806 0.0
O901 O 0.31599 0.04007 0.58428 0.0
C902 C 0.28032 0.08616 0.59218 0.0
O903 O 0.28878 0.09864 0.58277 0.0
O904 O 0.33118 0.07511 0.60724 0.0
C905 C 0.30558 0.03315 0.57245 0.0
O906 O 0.29419 0.0437 0.56379 0.0
C907 C 0.32922 0.07223 0.55296 0.0
O908 O 0.33992 0.05922 0.55864 0.0
O909 O 0.28862 0.07172 0.59634 0.0
C910 C 0.91165 0.35032 0.59503 0.0
O911 O 0.91228 0.35713 0.57864 0.0
O912 O 0.91536 0.3214 0.55372 0.0
Zn913 Zn 0.92605 0.31729 0.5785 0.0
O914 O 0.95307 0.32037 0.57654 0.0
C915 C 0.90861 0.28223 0.58008 0.0
O916 O 0.89731 0.28947 0.56842 0.0
O917 O 0.91638 0.33401 0.59758 0.0
C918 C 0.96149 0.31004 0.56568 0.0
O919 O 0.9523 0.29789 0.55651 0.0
C920 C 0.92256 0.33286 0.54312 0.0
O921 O 0.93586 0.34301 0.54916 0.0
O922 O 0.92155 0.29169 0.58627 0.0
C923 C 0.09081 0.64678 0.59961 0.0
O924 O 0.0916 0.64087 0.58287 0.0
O925 O 0.08666 0.67611 0.55916 0.0
Zn926 Zn 0.07576 0.67976 0.58386 0.0
O927 O 0.04882 0.67661 0.58129 0.0
C928 C 0.09051 0.71605 0.58444 0.0
O929 O 0.10029 0.7103 0.57076 0.0
O930 O 0.08509 0.66268 0.60269 0.0
C931 C 0.04075 0.68708 0.57028 0.0
O932 O 0.05025 0.69932 0.56157 0.0
C933 C 0.07946 0.66468 0.54852 0.0
O934 O 0.06642 0.65426 0.55464 0.0
O935 O 0.07972 0.70521 0.59222 0.0
C936 C 0.39863 0.33568 0.0859 0.0
O937 O 0.39139 0.31963 0.08349 0.0
O938 O 0.4266 0.29433 0.07815 0.0
Zn939 Zn 0.42976 0.31958 0.06839 0.0
O940 O 0.42243 0.31939 0.04216 0.0
C941 C 0.4664 0.32168 0.08243 0.0
O942 O 0.45992 0.31181 0.09571 0.0
O943 O 0.41496 0.33828 0.08124 0.0
C944 C 0.42832 0.33092 0.03087 0.0
O945 O 0.4394 0.34366 0.03645 0.0
C946 C 0.41505 0.28375 0.07102 0.0
O947 O 0.40419 0.29004 0.05843 0.0
O948 O 0.45596 0.32653 0.06967 0.0
C949 C 0.65064 0.40713 0.08719 0.0
O950 O 0.66703 0.40225 0.09203 0.0
O951 O 0.69269 0.43278 0.08143 0.0
Zn952 Zn 0.66839 0.43831 0.0703 0.0
O953 O 0.67096 0.43454 0.04346 0.0
C954 C 0.66859 0.47448 0.08613 0.0
O955 O 0.68077 0.46776 0.0972 0.0
O956 O 0.64838 0.42195 0.0788 0.0
C957 C 0.68299 0.44298 0.03453 0.0
O958 O 0.69352 0.45454 0.04299 0.0
C959 C 0.70166 0.41947 0.07525 0.0
O960 O 0.69411 0.40896 0.06305 0.0
O961 O 0.66153 0.46433 0.07419 0.0
C962 C 0.59064 0.66102 0.08767 0.0
O963 O 0.59634 0.67771 0.08553 0.0
O964 O 0.5618 0.70055 0.07827 0.0
Zn965 Zn 0.55776 0.67449 0.07099 0.0
O966 O 0.56193 0.67257 0.04419 0.0
C967 C 0.52158 0.67467 0.08678 0.0
O968 O 0.52787 0.68782 0.09695 0.0
O969 O 0.57453 0.65701 0.08324 0.0
C970 C 0.55211 0.68194 0.03364 0.0
O971 O 0.53952 0.69237 0.04061 0.0
C972 C 0.57323 0.71011 0.06965 0.0
O973 O 0.58311 0.70246 0.05702 0.0
O974 O 0.53198 0.66713 0.07539 0.0
C975 C 0.33429 0.59553 0.09839 0.0
O976 O 0.31774 0.60178 0.09673 0.0
O977 O 0.29385 0.56737 0.08806 0.0
Zn978 Zn 0.31977 0.56413 0.07996 0.0
O979 O 0.32072 0.57156 0.0538 0.0
C980 C 0.32077 0.52698 0.0931 0.0
O981 O 0.30869 0.5326 0.10487 0.0
O982 O 0.33772 0.57951 0.09326 0.0
C983 C 0.33184 0.56548 0.04221 0.0
O984 O 0.3439 0.5534 0.04717 0.0
C985 C 0.28425 0.57936 0.08029 0.0
O986 O 0.29195 0.5903 0.0686 0.0
O987 O 0.32716 0.53806 0.08164 0.0
C988 C 0.39996 0.66229 0.91298 0.0
O989 O 0.39278 0.67848 0.91429 0.0
O990 O 0.4261 0.70464 0.9175 0.0
Zn991 Zn 0.43295 0.6797 0.92609 0.0
O992 O 0.43235 0.67997 0.95342 0.0
C993 C 0.46551 0.65929 0.923 0.0
O994 O 0.4557 0.6475 0.93198 0.0
O995 O 0.4166 0.66014 0.91668 0.0
C996 C 0.42262 0.66956 0.96305 0.0
O997 O 0.41241 0.65736 0.95513 0.0
C998 C 0.41493 0.71406 0.92659 0.0
O999 O 0.40688 0.70673 0.94064 0.0
O1000 O 0.45845 0.6743 0.91852 0.0
C1001 C 0.34664 0.40383 0.90267 0.0
O1002 O 0.3304 0.39752 0.8991 0.0
O1003 O 0.30353 0.42774 0.9122 0.0
Zn1004 Zn 0.32806 0.43214 0.92327 0.0
O1005 O 0.32626 0.42453 0.94933 0.0
C1006 C 0.32854 0.46929 0.91031 0.0
O1007 O 0.31802 0.46312 0.89736 0.0
O1008 O 0.34825 0.41822 0.91188 0.0
C1009 C 0.33605 0.43089 0.96195 0.0
O1010 O 0.34838 0.4431 0.9581 0.0
C1011 C 0.29394 0.41481 0.91828 0.0
O1012 O 0.30116 0.40348 0.92991 0.0
O1013 O 0.33419 0.45853 0.92246 0.0
C1014 C 0.59944 0.33529 0.92737 0.0
O1015 O 0.6007 0.32421 0.94118 0.0
O1016 O 0.57756 0.28878 0.91586 0.0
Zn1017 Zn 0.56899 0.31359 0.92326 0.0
O1018 O 0.56725 0.31453 0.95048 0.0
C1019 C 0.53392 0.30394 0.91092 0.0
O1020 O 0.54113 0.28786 0.91305 0.0
O1021 O 0.58669 0.33313 0.91602 0.0
C1022 C 0.55979 0.30274 0.96049 0.0
O1023 O 0.55175 0.28877 0.95301 0.0
C1024 C 0.58774 0.27906 0.92574 0.0
O1025 O 0.59471 0.28603 0.94052 0.0
O1026 O 0.5437 0.31784 0.91364 0.0
C1027 C 0.65726 0.5935 0.90987 0.0
O1028 O 0.67347 0.60057 0.91164 0.0
O1029 O 0.69878 0.56751 0.91837 0.0
Zn1030 Zn 0.6735 0.5625 0.9273 0.0
O1031 O 0.67256 0.56776 0.95399 0.0
C1032 C 0.6744 0.52641 0.91181 0.0
O1033 O 0.68593 0.53351 0.9003 0.0
O1034 O 0.65456 0.57735 0.91497 0.0
C1035 C 0.68295 0.55894 0.96447 0.0
O1036 O 0.69382 0.54672 0.95752 0.0
C1037 C 0.70866 0.57937 0.926 0.0
O1038 O 0.70174 0.58933 0.93899 0.0
O1039 O 0.66751 0.5363 0.92405 0.0
C1040 C 0.09432 0.40574 0.33836 0.0
O1041 O 0.09704 0.40084 0.32151 0.0
O1042 O 0.08562 0.43297 0.29783 0.0
Zn1043 Zn 0.07538 0.4368 0.32285 0.0
O1044 O 0.04866 0.4315 0.32153 0.0
C1045 C 0.09027 0.47326 0.32454 0.0
O1046 O 0.10229 0.46706 0.31301 0.0
O1047 O 0.08624 0.42053 0.34168 0.0
C1048 C 0.03913 0.43972 0.30982 0.0
O1049 O 0.04696 0.45162 0.29919 0.0
C1050 C 0.07962 0.41991 0.28838 0.0
O1051 O 0.0681 0.40854 0.29573 0.0
O1052 O 0.07807 0.46272 0.33048 0.0
C1053 C 0.5952 0.08173 0.34046 0.0
O1054 O 0.60193 0.07892 0.32426 0.0
O1055 O 0.56587 0.07497 0.2997 0.0
Zn1056 Zn 0.56239 0.066 0.3253 0.0
O1057 O 0.56754 0.03927 0.3255 0.0
C1058 C 0.52603 0.0815 0.32706 0.0
O1059 O 0.53231 0.09335 0.3154 0.0
O1060 O 0.57871 0.07795 0.34347 0.0
C1061 C 0.55837 0.02915 0.31504 0.0
O1062 O 0.5458 0.03646 0.30481 0.0
C1063 C 0.57738 0.06737 0.28941 0.0
O1064 O 0.58792 0.05473 0.29611 0.0
O1065 O 0.53647 0.06918 0.33298 0.0
C1066 C 0.91186 0.59166 0.33534 0.0
O1067 O 0.91465 0.59779 0.31891 0.0
O1068 O 0.9198 0.56383 0.29508 0.0
Zn1069 Zn 0.92818 0.55949 0.32071 0.0
O1070 O 0.95488 0.56465 0.32194 0.0
C1071 C 0.91386 0.52293 0.31887 0.0
O1072 O 0.90334 0.52967 0.30623 0.0
O1073 O 0.91578 0.57533 0.33893 0.0
C1074 C 0.96555 0.55537 0.31218 0.0
O1075 O 0.95881 0.54268 0.30171 0.0
C1076 C 0.92785 0.57506 0.28483 0.0
O1077 O 0.941 0.58499 0.2915 0.0
O1078 O 0.92489 0.53328 0.32706 0.0
C1079 C 0.40725 0.90296 0.33922 0.0
O1080 O 0.40218 0.9019 0.32223 0.0
O1081 O 0.43375 0.91533 0.29935 0.0
Zn1082 Zn 0.43807 0.92315 0.32513 0.0
O1083 O 0.43307 0.94986 0.32665 0.0
C1084 C 0.47417 0.90753 0.32458 0.0
O1085 O 0.46724 0.89645 0.31253 0.0
O1086 O 0.42211 0.91065 0.34313 0.0
C1087 C 0.44172 0.96047 0.31626 0.0
O1088 O 0.45375 0.95367 0.30508 0.0
C1089 C 0.42148 0.92286 0.28993 0.0
O1090 O 0.4107 0.9347 0.29765 0.0
O1091 O 0.46414 0.91949 0.33176 0.0
C1092 C 0.08697 0.59848 0.65986 0.0
O1093 O 0.08645 0.60474 0.67648 0.0
O1094 O 0.0777 0.57135 0.70045 0.0
Zn1095 Zn 0.0679 0.56794 0.67524 0.0
O1096 O 0.04165 0.57511 0.67568 0.0
C1097 C 0.08176 0.53128 0.67364 0.0
O1098 O 0.09483 0.53775 0.68382 0.0
O1099 O 0.08056 0.58289 0.65655 0.0
C1100 C 0.03016 0.569 0.66445 0.0
O1101 O 0.03555 0.55782 0.65173 0.0
C1102 C 0.07081 0.58336 0.71065 0.0
O1103 O 0.05852 0.59434 0.70399 0.0
O1104 O 0.06921 0.54176 0.66837 0.0
C1105 C 0.39611 0.08687 0.66362 0.0
O1106 O 0.39093 0.08206 0.67991 0.0
O1107 O 0.42845 0.08489 0.70273 0.0
Zn1108 Zn 0.43163 0.07689 0.67679 0.0
O1109 O 0.43051 0.04964 0.67682 0.0
C1110 C 0.46609 0.09605 0.67472 0.0
O1111 O 0.45981 0.10558 0.68834 0.0
O1112 O 0.41284 0.08663 0.65974 0.0
C1113 C 0.42147 0.03999 0.66582 0.0
O1114 O 0.41228 0.04783 0.65279 0.0
C1115 C 0.41888 0.07521 0.71326 0.0
O1116 O 0.41006 0.06131 0.70657 0.0
O1117 O 0.45629 0.08372 0.66781 0.0
C1118 C 0.90855 0.39614 0.65771 0.0
O1119 O 0.90994 0.38888 0.67386 0.0
O1120 O 0.91421 0.41863 0.7009 0.0
Zn1121 Zn 0.92169 0.42784 0.67628 0.0
O1122 O 0.94893 0.42681 0.67492 0.0
C1123 C 0.9105 0.4631 0.68798 0.0
O1124 O 0.91075 0.45494 0.70376 0.0
O1125 O 0.91197 0.41286 0.65576 0.0
C1126 C 0.95849 0.43515 0.68654 0.0
O1127 O 0.95036 0.44468 0.69915 0.0
C1128 C 0.92407 0.40785 0.70998 0.0
O1129 O 0.93828 0.40052 0.70223 0.0
O1130 O 0.91417 0.45404 0.67382 0.0
C1131 C 0.58871 0.91255 0.65579 0.0
O1132 O 0.59519 0.91274 0.67234 0.0
O1133 O 0.56251 0.92372 0.69642 0.0
Zn1134 Zn 0.5593 0.93361 0.6712 0.0
O1135 O 0.56794 0.9595 0.67107 0.0
C1136 C 0.52284 0.91968 0.6692 0.0
O1137 O 0.52981 0.90631 0.67859 0.0
O1138 O 0.57355 0.91996 0.65261 0.0
C1139 C 0.56099 0.97173 0.66121 0.0
O1140 O 0.54747 0.96759 0.65043 0.0
C1141 C 0.57452 0.93016 0.70695 0.0
O1142 O 0.58567 0.94256 0.70081 0.0
O1143 O 0.53293 0.93279 0.66451 0.0
C1144 C 0.33536 0.0811 0.40793 0.0
O1145 O 0.31896 0.08136 0.40109 0.0
O1146 O 0.29319 0.07635 0.43504 0.0
Zn1147 Zn 0.31795 0.06581 0.43998 0.0
O1148 O 0.31599 0.03892 0.43598 0.0
C1149 C 0.31827 0.08123 0.47643 0.0
O1150 O 0.30622 0.09262 0.47004 0.0
O1151 O 0.33765 0.07579 0.42411 0.0
C1152 C 0.32782 0.02931 0.42801 0.0
O1153 O 0.34266 0.03697 0.42195 0.0
C1154 C 0.28334 0.069 0.42298 0.0
O1155 O 0.29019 0.05592 0.41309 0.0
O1156 O 0.32492 0.06929 0.46601 0.0
C1157 C 0.33423 0.90275 0.59125 0.0
O1158 O 0.31773 0.9031 0.59786 0.0
O1159 O 0.29242 0.91093 0.56409 0.0
Zn1160 Zn 0.31799 0.91956 0.55944 0.0
O1161 O 0.31866 0.94626 0.56454 0.0
C1162 C 0.3176 0.90532 0.52242 0.0
O1163 O 0.30465 0.89459 0.52817 0.0
O1164 O 0.33691 0.90804 0.57514 0.0
C1165 C 0.30818 0.95675 0.55586 0.0
O1166 O 0.29735 0.94988 0.54354 0.0
C1167 C 0.28308 0.91866 0.57632 0.0
O1168 O 0.29084 0.93084 0.58668 0.0
O1169 O 0.32488 0.9164 0.53336 0.0
C1170 C 0.09186 0.34796 0.59058 0.0
O1171 O 0.09551 0.33137 0.59572 0.0
O1172 O 0.08545 0.3063 0.56499 0.0
Zn1173 Zn 0.07468 0.33074 0.55954 0.0
O1174 O 0.04778 0.32896 0.56351 0.0
C1175 C 0.08973 0.3291 0.52323 0.0
O1176 O 0.10026 0.31652 0.53007 0.0
O1177 O 0.084 0.35059 0.57552 0.0
C1178 C 0.03875 0.31712 0.55492 0.0
O1179 O 0.04722 0.3064 0.54356 0.0
C1180 C 0.07911 0.29683 0.57786 0.0
O1181 O 0.06662 0.30386 0.58838 0.0
O1182 O 0.07843 0.33708 0.53342 0.0
C1183 C 0.65734 0.08836 0.59717 0.0
O1184 O 0.67377 0.08809 0.60395 0.0
O1185 O 0.69791 0.07827 0.5698 0.0
Zn1186 Zn 0.67295 0.06754 0.56756 0.0
O1187 O 0.67399 0.04159 0.5759 0.0
C1188 C 0.66558 0.08199 0.53195 0.0
O1189 O 0.67098 0.09728 0.53925 0.0
O1190 O 0.65434 0.0809 0.58199 0.0
C1191 C 0.66275 0.02988 0.57025 0.0
O1192 O 0.64987 0.03492 0.55907 0.0
C1193 C 0.70866 0.07252 0.58195 0.0
O1194 O 0.70277 0.06056 0.5937 0.0
O1195 O 0.6654 0.06773 0.54151 0.0
C1196 C 0.90732 0.64814 0.58782 0.0
O1197 O 0.90191 0.66436 0.59264 0.0
O1198 O 0.91709 0.69089 0.56456 0.0
Zn1199 Zn 0.92799 0.66646 0.55927 0.0
O1200 O 0.95469 0.66797 0.5644 0.0
C1201 C 0.91227 0.66622 0.52316 0.0
O1202 O 0.89988 0.67672 0.53036 0.0
O1203 O 0.9177 0.64638 0.57425 0.0
C1204 C 0.96404 0.6799 0.5563 0.0
O1205 O 0.956 0.69075 0.54474 0.0
C1206 C 0.92299 0.70043 0.57762 0.0
O1207 O 0.93518 0.69351 0.58856 0.0
O1208 O 0.92509 0.66033 0.53298 0.0
C1209 C 0.66174 0.90475 0.40083 0.0
O1210 O 0.67843 0.90157 0.39563 0.0
O1211 O 0.70318 0.91608 0.42555 0.0
Zn1212 Zn 0.67784 0.92499 0.43106 0.0
O1213 O 0.67692 0.9519 0.42658 0.0
C1214 C 0.67508 0.9079 0.46709 0.0
O1215 O 0.68543 0.89497 0.46064 0.0
O1216 O 0.6589 0.91361 0.41527 0.0
C1217 C 0.69037 0.96203 0.43006 0.0
O1218 O 0.70514 0.9549 0.43693 0.0
C1219 C 0.71139 0.92213 0.41168 0.0
O1220 O 0.70278 0.93314 0.40069 0.0
O1221 O 0.67085 0.92117 0.45704 0.0
C1222 C 0.08673 0.6608 0.40325 0.0
O1223 O 0.08403 0.67727 0.39718 0.0
O1224 O 0.07822 0.70065 0.43205 0.0
Zn1225 Zn 0.0702 0.67483 0.43579 0.0
O1226 O 0.04345 0.67348 0.43085 0.0
C1227 C 0.08624 0.67446 0.47166 0.0
O1228 O 0.09741 0.68646 0.46481 0.0
O1229 O 0.08264 0.65709 0.4195 0.0
C1230 C 0.03281 0.68328 0.44013 0.0
O1231 O 0.03961 0.69376 0.45279 0.0
C1232 C 0.07004 0.7108 0.42082 0.0
O1233 O 0.05723 0.70388 0.41061 0.0
O1234 O 0.07401 0.66766 0.46167 0.0
C1235 C 0.91311 0.33988 0.39677 0.0
O1236 O 0.9148 0.32295 0.3917 0.0
O1237 O 0.91984 0.30074 0.42579 0.0
Zn1238 Zn 0.92857 0.32631 0.4299 0.0
O1239 O 0.95549 0.32676 0.42585 0.0
C1240 C 0.91322 0.32554 0.46615 0.0
O1241 O 0.90296 0.31263 0.45951 0.0
O1242 O 0.9173 0.34426 0.41286 0.0
C1243 C 0.96547 0.31672 0.43558 0.0
O1244 O 0.95789 0.30654 0.44803 0.0
C1245 C 0.92803 0.29026 0.41487 0.0
O1246 O 0.94159 0.29661 0.40529 0.0
O1247 O 0.92443 0.33351 0.45583 0.0
C1248 C 0.1075 0.10802 0.40538 0.0
C1249 C 0.11072 0.12657 0.40293 0.0
H1250 H 0.11909 0.08176 0.40874 0.0
C1251 C 0.12847 0.13246 0.39937 0.0
H1252 H 0.09398 0.103 0.40797 0.0
C1253 C 0.14289 0.12026 0.39978 0.0
C1254 C 0.13983 0.10196 0.40383 0.0
H1255 H 0.13137 0.14666 0.39722 0.0
H1256 H 0.15651 0.12538 0.39798 0.0
C1257 C 0.12193 0.09583 0.40586 0.0
C1258 C 0.8591 0.13361 0.39954 0.0
C1259 C 0.86639 0.11605 0.39933 0.0
H1260 H 0.86438 0.16196 0.40182 0.0
C1261 C 0.88528 0.11395 0.39883 0.0
H1262 H 0.84459 0.13571 0.39975 0.0
C1263 C 0.89663 0.129 0.40005 0.0
C1264 C 0.88931 0.14647 0.40175 0.0
H1265 H 0.89135 0.10062 0.39848 0.0
H1266 H 0.91112 0.12685 0.40059 0.0
C1267 C 0.87045 0.14868 0.40072 0.0
C1268 C 0.87226 0.89531 0.39037 0.0
C1269 C 0.85427 0.88917 0.38954 0.0
H1270 H 0.90005 0.88833 0.39459 0.0
C1271 C 0.85089 0.87048 0.38974 0.0
H1272 H 0.8753 0.90964 0.39006 0.0
C1273 C 0.86505 0.8583 0.39252 0.0
C1274 C 0.88285 0.86457 0.39494 0.0
H1275 H 0.8372 0.8653 0.38902 0.0
H1276 H 0.8619 0.84404 0.3937 0.0
C1277 C 0.88645 0.8831 0.39296 0.0
C1278 C 0.12115 0.8494 0.40457 0.0
C1279 C 0.10263 0.85294 0.40695 0.0
H1280 H 0.14781 0.86045 0.40247 0.0
C1281 C 0.09658 0.87097 0.40666 0.0
H1282 H 0.12625 0.83566 0.40459 0.0
C1283 C 0.10895 0.8852 0.40535 0.0
C1284 C 0.1276 0.88165 0.40444 0.0
H1285 H 0.08236 0.87413 0.40829 0.0
H1286 H 0.10395 0.89894 0.40606 0.0
C1287 C 0.13352 0.86362 0.4034 0.0
C1288 C 0.11969 0.90311 0.58951 0.0
C1289 C 0.13691 0.89566 0.5927 0.0
H1290 H 0.09128 0.89829 0.58709 0.0
C1291 C 0.1382 0.87757 0.59832 0.0
H1292 H 0.1182 0.91709 0.58541 0.0
C1293 C 0.1227 0.86675 0.59929 0.0
C1294 C 0.10565 0.87387 0.59469 0.0
H1295 H 0.15125 0.87147 0.60102 0.0
H1296 H 0.12424 0.8526 0.60272 0.0
C1297 C 0.10422 0.89233 0.59051 0.0
C1298 C 0.09424 0.13192 0.58565 0.0
C1299 C 0.10239 0.14871 0.58936 0.0
H1300 H 0.09808 0.10352 0.58162 0.0
C1301 C 0.12084 0.14921 0.59387 0.0
H1302 H 0.08001 0.13105 0.58225 0.0
C1303 C 0.1312 0.13342 0.5935 0.0
C1304 C 0.12331 0.11681 0.58861 0.0
H1305 H 0.1275 0.16189 0.59694 0.0
H1306 H 0.14555 0.13439 0.59633 0.0
C1307 C 0.1046 0.11612 0.58529 0.0
C1308 C 0.88735 0.10474 0.58936 0.0
C1309 C 0.88524 0.12331 0.59278 0.0
H1310 H 0.87419 0.07929 0.58547 0.0
C1311 C 0.86813 0.12985 0.59792 0.0
H1312 H 0.90039 0.09924 0.58556 0.0
C1313 C 0.85311 0.1184 0.59792 0.0
C1314 C 0.85491 0.10023 0.5927 0.0
H1315 H 0.86612 0.14405 0.60092 0.0
H1316 H 0.83993 0.12411 0.60085 0.0
C1317 C 0.87231 0.0933 0.58929 0.0
C1318 C 0.86101 0.84361 0.57921 0.0
C1319 C 0.87927 0.84487 0.58433 0.0
H1320 H 0.83647 0.85778 0.57342 0.0
C1321 C 0.8862 0.86177 0.58969 0.0
H1322 H 0.85521 0.83079 0.57513 0.0
C1323 C 0.87544 0.87728 0.58872 0.0
C1324 C 0.85757 0.87619 0.58233 0.0
H1325 H 0.90018 0.86319 0.59385 0.0
H1326 H 0.88142 0.8902 0.59216 0.0
C1327 C 0.85027 0.85911 0.57819 0.0
C1328 C 0.40205 0.11077 0.11532 0.0
C1329 C 0.40308 0.1146 0.13391 0.0
H1330 H 0.40309 0.12131 0.08839 0.0
C1331 C 0.40366 0.13273 0.13958 0.0
H1332 H 0.40149 0.09693 0.11053 0.0
C1333 C 0.40443 0.1467 0.12691 0.0
C1334 C 0.40482 0.14279 0.10832 0.0
H1335 H 0.40426 0.13612 0.15383 0.0
H1336 H 0.40569 0.16047 0.13174 0.0
C1337 C 0.403 0.12473 0.10264 0.0
C1338 C 0.88138 0.40187 0.0997 0.0
C1339 C 0.88024 0.39844 0.11835 0.0
H1340 H 0.86701 0.4052 0.07481 0.0
C1341 C 0.8635 0.39319 0.12572 0.0
H1342 H 0.8941 0.40576 0.09355 0.0
C1343 C 0.84795 0.39286 0.11498 0.0
C1344 C 0.84883 0.39779 0.09665 0.0
H1345 H 0.86219 0.39024 0.14002 0.0
H1346 H 0.83511 0.38972 0.12129 0.0
C1347 C 0.86583 0.40154 0.08895 0.0
C1348 C 0.59375 0.88482 0.10515 0.0
C1349 C 0.59573 0.88135 0.12372 0.0
H1350 H 0.59022 0.87361 0.07872 0.0
C1351 C 0.59834 0.86342 0.12951 0.0
H1352 H 0.59188 0.89848 0.10021 0.0
C1353 C 0.59745 0.84914 0.11716 0.0
C1354 C 0.59384 0.85254 0.09882 0.0
H1355 H 0.60011 0.86031 0.14372 0.0
H1356 H 0.59851 0.83542 0.12219 0.0
C1357 C 0.59275 0.87054 0.09282 0.0
C1358 C 0.10989 0.59555 0.11047 0.0
C1359 C 0.11327 0.59623 0.12914 0.0
H1360 H 0.12133 0.59361 0.08397 0.0
C1361 C 0.13116 0.59845 0.13525 0.0
H1362 H 0.09625 0.59396 0.10533 0.0
C1363 C 0.14553 0.59841 0.123 0.0
C1364 C 0.14223 0.59593 0.10446 0.0
H1365 H 0.13414 0.59924 0.14958 0.0
H1366 H 0.15923 0.59907 0.12819 0.0
C1367 C 0.12427 0.59529 0.09823 0.0
C1368 C 0.39786 0.86589 0.85862 0.0
C1369 C 0.39816 0.884 0.86438 0.0
H1370 H 0.39808 0.83804 0.86637 0.0
C1371 C 0.39681 0.88781 0.88295 0.0
H1372 H 0.39867 0.86253 0.84438 0.0
C1373 C 0.39661 0.87376 0.89558 0.0
C1374 C 0.39755 0.85565 0.88985 0.0
H1375 H 0.39691 0.90163 0.88781 0.0
H1376 H 0.39651 0.87712 0.90984 0.0
C1377 C 0.39745 0.85185 0.87123 0.0
C1378 C 0.13813 0.3998 0.86177 0.0
C1379 C 0.1206 0.40361 0.86811 0.0
H1380 H 0.16633 0.39807 0.86818 0.0
C1381 C 0.11789 0.40625 0.88672 0.0
H1382 H 0.14061 0.39751 0.84751 0.0
C1383 C 0.13263 0.4067 0.89851 0.0
C1384 C 0.15032 0.40433 0.89195 0.0
H1385 H 0.10454 0.40907 0.89206 0.0
H1386 H 0.13023 0.40976 0.91264 0.0
C1387 C 0.15287 0.40008 0.87361 0.0
C1388 C 0.59802 0.10426 0.8867 0.0
C1389 C 0.59767 0.10744 0.86796 0.0
H1390 H 0.59689 0.11577 0.91322 0.0
C1391 C 0.59804 0.12537 0.86166 0.0
H1392 H 0.59784 0.09061 0.892 0.0
C1393 C 0.59765 0.13981 0.87384 0.0
C1394 C 0.59668 0.13658 0.89255 0.0
H1395 H 0.59794 0.12826 0.84729 0.0
H1396 H 0.59717 0.15345 0.86854 0.0
C1397 C 0.59744 0.11868 0.89887 0.0
C1398 C 0.84885 0.59437 0.8726 0.0
C1399 C 0.85204 0.591 0.89102 0.0
H1400 H 0.86022 0.59618 0.84605 0.0
C1401 C 0.86998 0.58922 0.89711 0.0
H1402 H 0.83519 0.59591 0.86749 0.0
C1403 C 0.88434 0.58947 0.88484 0.0
C1404 C 0.88101 0.59136 0.86623 0.0
H1405 H 0.87291 0.58682 0.91127 0.0
H1406 H 0.89792 0.58719 0.88987 0.0
C1407 C 0.8632 0.59448 0.8603 0.0
C1408 C 0.1325 0.40296 0.12867 0.0
C1409 C 0.12572 0.40821 0.11169 0.0
H1410 H 0.12681 0.39849 0.15668 0.0
C1411 C 0.10705 0.41121 0.10975 0.0
H1412 H 0.1468 0.40038 0.13059 0.0
C1413 C 0.09558 0.41013 0.12474 0.0
C1414 C 0.10255 0.40599 0.14195 0.0
H1415 H 0.10137 0.41515 0.09683 0.0
H1416 H 0.08137 0.41327 0.12294 0.0
C1417 C 0.12102 0.40184 0.14364 0.0
C1418 C 0.1219 0.59496 0.85062 0.0
C1419 C 0.10332 0.59224 0.8536 0.0
H1420 H 0.14823 0.59724 0.86247 0.0
C1421 C 0.09681 0.59186 0.87146 0.0
H1422 H 0.12732 0.59542 0.83702 0.0
C1423 C 0.10877 0.593 0.88604 0.0
C1424 C 0.12749 0.59443 0.88305 0.0
H1425 H 0.08254 0.58997 0.87421 0.0
H1426 H 0.10338 0.5919 0.89962 0.0
C1427 C 0.13389 0.59598 0.86521 0.0
C1428 C 0.40997 0.09977 0.87328 0.0
C1429 C 0.41073 0.10588 0.85528 0.0
H1430 H 0.40978 0.107 0.9013 0.0
C1431 C 0.40978 0.12453 0.85183 0.0
H1432 H 0.4105 0.08546 0.87636 0.0
C1433 C 0.40952 0.13686 0.86612 0.0
C1434 C 0.41 0.13077 0.88413 0.0
H1435 H 0.41023 0.12967 0.83811 0.0
H1436 H 0.40966 0.15118 0.86304 0.0
C1437 C 0.40952 0.11211 0.88757 0.0
C1438 C 0.89256 0.40972 0.88502 0.0
C1439 C 0.87459 0.40427 0.88205 0.0
H1440 H 0.91872 0.41407 0.87351 0.0
C1441 C 0.86987 0.39681 0.86519 0.0
H1442 H 0.89669 0.41539 0.89788 0.0
C1443 C 0.88256 0.39595 0.8512 0.0
C1444 C 0.90015 0.40267 0.8538 0.0
H1445 H 0.85616 0.39234 0.86253 0.0
H1446 H 0.8783 0.39092 0.83811 0.0
C1447 C 0.90519 0.40899 0.87102 0.0
C1448 C 0.59124 0.88926 0.86458 0.0
C1449 C 0.58678 0.88344 0.84702 0.0
H1450 H 0.59421 0.88197 0.89245 0.0
C1451 C 0.58412 0.86492 0.84381 0.0
H1452 H 0.59355 0.90344 0.86742 0.0
C1453 C 0.58435 0.85267 0.85816 0.0
C1454 C 0.58743 0.8587 0.87593 0.0
H1455 H 0.58079 0.85999 0.83042 0.0
H1456 H 0.5813 0.8386 0.85542 0.0
C1457 C 0.59166 0.87696 0.87891 0.0
C1458 C 0.87268 0.5843 0.14515 0.0
C1459 C 0.89134 0.58296 0.1418 0.0
H1460 H 0.84605 0.58467 0.13385 0.0
C1461 C 0.89751 0.58295 0.12381 0.0
H1462 H 0.86749 0.58444 0.15884 0.0
C1463 C 0.88521 0.58315 0.10945 0.0
C1464 C 0.86651 0.58324 0.11284 0.0
H1465 H 0.91183 0.58206 0.12079 0.0
H1466 H 0.89035 0.58239 0.09575 0.0
C1467 C 0.86039 0.58437 0.13081 0.0
C1468 C 0.40738 0.88788 0.11367 0.0
C1469 C 0.40721 0.86907 0.11625 0.0
H1470 H 0.40914 0.91396 0.12605 0.0
C1471 C 0.40675 0.8622 0.13398 0.0
H1472 H 0.40763 0.89361 0.10019 0.0
C1473 C 0.40752 0.87387 0.14882 0.0
C1474 C 0.40889 0.89263 0.14622 0.0
H1475 H 0.40645 0.84776 0.13642 0.0
H1476 H 0.40787 0.86811 0.16229 0.0
C1477 C 0.40827 0.89954 0.12851 0.0
C1478 C 0.59026 0.13451 0.13553 0.0
C1479 C 0.59102 0.12805 0.11766 0.0
H1480 H 0.588 0.12788 0.16359 0.0
C1481 C 0.59218 0.10933 0.11466 0.0
H1482 H 0.58957 0.14888 0.1383 0.0
C1483 C 0.5912 0.09728 0.12918 0.0
C1484 C 0.58917 0.10373 0.14696 0.0
H1485 H 0.5929 0.10393 0.10106 0.0
H1486 H 0.59124 0.0829 0.12637 0.0
C1487 C 0.58941 0.12246 0.15005 0.0
C1488 C 0.64342 0.62391 0.90513 0.0
C1489 C 0.6416 0.60502 0.90529 0.0
H1490 H 0.62988 0.64944 0.90522 0.0
C1491 C 0.6243 0.59737 0.90317 0.0
H1492 H 0.65657 0.63023 0.9066 0.0
C1493 C 0.60898 0.6084 0.90226 0.0
C1494 C 0.61072 0.62724 0.90365 0.0
H1495 H 0.62249 0.58283 0.90305 0.0
H1496 H 0.59575 0.60211 0.90156 0.0
C1497 C 0.62811 0.63492 0.9044 0.0
C1498 C 0.36944 0.64785 0.9102 0.0
C1499 C 0.38838 0.64624 0.91015 0.0
H1500 H 0.34399 0.63411 0.91137 0.0
C1501 C 0.39615 0.62891 0.90914 0.0
H1502 H 0.36303 0.661 0.91087 0.0
C1503 C 0.38524 0.61349 0.90938 0.0
C1504 C 0.36635 0.61509 0.91072 0.0
H1505 H 0.41071 0.6272 0.9089 0.0
H1506 H 0.3917 0.60034 0.90937 0.0
C1507 C 0.35853 0.63242 0.91052 0.0
C1508 C 0.37634 0.36324 0.89413 0.0
C1509 C 0.39331 0.36979 0.89978 0.0
H1510 H 0.3482 0.36896 0.89039 0.0
C1511 C 0.39524 0.38831 0.9035 0.0
H1512 H 0.37445 0.34906 0.89095 0.0
C1513 C 0.38019 0.39969 0.9032 0.0
C1514 C 0.36292 0.39279 0.89912 0.0
H1515 H 0.40816 0.39383 0.9077 0.0
H1516 H 0.38195 0.4137 0.90711 0.0
C1517 C 0.36128 0.37464 0.89378 0.0
C1518 C 0.61809 0.35822 0.91062 0.0
C1519 C 0.61114 0.35133 0.9269 0.0
H1520 H 0.63576 0.37777 0.8983 0.0
C1521 C 0.61577 0.35967 0.9433 0.0
H1522 H 0.61466 0.35194 0.89783 0.0
C1523 C 0.62727 0.37453 0.94354 0.0
C1524 C 0.6348 0.38112 0.92742 0.0
H1525 H 0.61044 0.35469 0.95602 0.0
H1526 H 0.63069 0.38053 0.95648 0.0
C1527 C 0.63012 0.37289 0.91091 0.0
C1528 C 0.60358 0.3874 0.08357 0.0
C1529 C 0.60698 0.36892 0.08631 0.0
H1530 H 0.61474 0.41403 0.08178 0.0
C1531 C 0.62449 0.36342 0.09135 0.0
H1532 H 0.59022 0.39209 0.07977 0.0
C1533 C 0.63852 0.37602 0.09266 0.0
C1534 C 0.63535 0.39434 0.08878 0.0
H1535 H 0.6275 0.34928 0.09373 0.0
H1536 H 0.65199 0.37125 0.09589 0.0
C1537 C 0.61764 0.39998 0.08471 0.0
C1538 C 0.60989 0.61424 0.09487 0.0
C1539 C 0.62853 0.61759 0.09322 0.0
H1540 H 0.58321 0.62545 0.09452 0.0
C1541 C 0.63464 0.63556 0.09226 0.0
H1542 H 0.60477 0.60055 0.09575 0.0
C1543 C 0.6223 0.64984 0.09168 0.0
C1544 C 0.60361 0.64641 0.09189 0.0
H1545 H 0.64895 0.63859 0.0912 0.0
H1546 H 0.62743 0.66347 0.09008 0.0
C1547 C 0.59754 0.62852 0.09414 0.0
C1548 C 0.36732 0.60145 0.10296 0.0
C1549 C 0.34948 0.60801 0.10208 0.0
H1550 H 0.39554 0.60786 0.10196 0.0
C1551 C 0.34657 0.62678 0.10218 0.0
H1552 H 0.37001 0.58705 0.10311 0.0
C1553 C 0.36121 0.63869 0.10141 0.0
C1554 C 0.37902 0.63206 0.10067 0.0
H1555 H 0.333 0.63229 0.10167 0.0
H1556 H 0.35851 0.65305 0.10044 0.0
C1557 C 0.38197 0.61338 0.10232 0.0
C1558 C 0.39479 0.36873 0.09202 0.0
C1559 C 0.38717 0.35135 0.09064 0.0
H1560 H 0.38999 0.39723 0.09304 0.0
C1561 C 0.36829 0.34946 0.09174 0.0
H1562 H 0.40932 0.37063 0.09144 0.0
C1563 C 0.3572 0.36473 0.09263 0.0
C1564 C 0.3648 0.38217 0.09249 0.0
H1565 H 0.36199 0.33626 0.09089 0.0
H1566 H 0.34266 0.36285 0.09248 0.0
C1567 C 0.38371 0.384 0.09297 0.0
C1568 C 0.89678 0.63451 0.61699 0.0
C1569 C 0.9038 0.6323 0.59948 0.0
H1570 H 0.89194 0.62232 0.64278 0.0
C1571 C 0.90918 0.61496 0.59383 0.0
H1572 H 0.8924 0.64767 0.62171 0.0
C1573 C 0.90887 0.60043 0.60586 0.0
C1574 C 0.90324 0.60296 0.62382 0.0
H1575 H 0.91442 0.61274 0.58032 0.0
H1576 H 0.91395 0.58746 0.60132 0.0
C1577 C 0.89653 0.61997 0.62907 0.0
C1578 C 0.36764 0.9006 0.59637 0.0
C1579 C 0.34994 0.90006 0.60336 0.0
H1580 H 0.39588 0.90334 0.60216 0.0
C1581 C 0.34751 0.89934 0.62218 0.0
H1582 H 0.36998 0.90096 0.58191 0.0
C1583 C 0.36236 0.90078 0.63378 0.0
C1584 C 0.37994 0.90287 0.62678 0.0
H1585 H 0.33407 0.89876 0.62801 0.0
H1586 H 0.35996 0.90117 0.64823 0.0
C1587 C 0.38251 0.90195 0.60798 0.0
C1588 C 0.08928 0.39506 0.61014 0.0
C1589 C 0.09049 0.39144 0.62875 0.0
H1590 H 0.08889 0.38406 0.58338 0.0
C1591 C 0.09458 0.37379 0.63449 0.0
H1592 H 0.08625 0.40854 0.60529 0.0
C1593 C 0.09626 0.35979 0.62193 0.0
C1594 C 0.09368 0.36316 0.60341 0.0
H1595 H 0.09581 0.37064 0.64875 0.0
H1596 H 0.0986 0.34619 0.62684 0.0
C1597 C 0.09077 0.38102 0.59759 0.0
C1598 C 0.60934 0.09832 0.61136 0.0
C1599 C 0.6112 0.09963 0.63022 0.0
H1600 H 0.62257 0.09382 0.58605 0.0
C1601 C 0.62867 0.09996 0.63778 0.0
H1602 H 0.59609 0.09818 0.60509 0.0
C1603 C 0.64389 0.09752 0.62684 0.0
C1604 C 0.64187 0.09459 0.60818 0.0
H1605 H 0.63056 0.10114 0.65227 0.0
H1606 H 0.65709 0.09686 0.63317 0.0
C1607 C 0.62453 0.09576 0.60045 0.0
C1608 C 0.90775 0.37228 0.38848 0.0
C1609 C 0.90957 0.35411 0.38319 0.0
H1610 H 0.90683 0.39995 0.38005 0.0
C1611 C 0.90992 0.34989 0.36466 0.0
H1612 H 0.9073 0.37595 0.40266 0.0
C1613 C 0.90981 0.36363 0.35173 0.0
C1614 C 0.90916 0.38186 0.35706 0.0
H1615 H 0.91121 0.33602 0.36012 0.0
H1616 H 0.91092 0.35998 0.33758 0.0
C1617 C 0.90745 0.38603 0.37552 0.0
C1618 C 0.64933 0.89844 0.37002 0.0
C1619 C 0.64639 0.90097 0.38861 0.0
H1620 H 0.63744 0.89729 0.34364 0.0
C1621 C 0.62855 0.90194 0.39512 0.0
H1622 H 0.66292 0.89761 0.36461 0.0
C1623 C 0.61394 0.90157 0.38313 0.0
C1624 C 0.61695 0.9005 0.36441 0.0
H1625 H 0.62588 0.90372 0.40942 0.0
H1626 H 0.6004 0.90317 0.38848 0.0
C1627 C 0.63473 0.89834 0.358 0.0
C1628 C 0.09372 0.62827 0.39704 0.0
C1629 C 0.09122 0.64599 0.3906 0.0
H1630 H 0.09576 0.60018 0.39037 0.0
C1631 C 0.09103 0.64905 0.37186 0.0
H1632 H 0.0941 0.6255 0.41142 0.0
C1633 C 0.09188 0.63454 0.35982 0.0
C1634 C 0.09307 0.6167 0.36628 0.0
H1635 H 0.08926 0.66255 0.36646 0.0
H1636 H 0.09083 0.63726 0.34546 0.0
C1637 C 0.0947 0.61375 0.38498 0.0
C1638 C 0.36424 0.08667 0.36611 0.0
C1639 C 0.38176 0.08449 0.37322 0.0
H1640 H 0.33581 0.08753 0.37152 0.0
C1641 C 0.38397 0.08329 0.39205 0.0
H1642 H 0.36208 0.08781 0.35166 0.0
C1643 C 0.36889 0.0831 0.40344 0.0
C1644 C 0.3513 0.08418 0.39623 0.0
H1645 H 0.39729 0.08171 0.39797 0.0
H1646 H 0.37101 0.0814 0.41784 0.0
C1647 C 0.34916 0.08655 0.3775 0.0
C1648 C 0.61855 0.90266 0.64317 0.0
C1649 C 0.60017 0.90671 0.64047 0.0
H1650 H 0.64442 0.89848 0.6309 0.0
C1651 C 0.59332 0.9071 0.62273 0.0
H1652 H 0.62422 0.9021 0.65667 0.0
C1653 C 0.60489 0.90498 0.60795 0.0
C1654 C 0.62354 0.90249 0.61063 0.0
H1655 H 0.57916 0.90995 0.62019 0.0
H1656 H 0.59933 0.90632 0.59446 0.0
C1657 C 0.63014 0.90059 0.62838 0.0
C1658 C 0.6376 0.08803 0.36841 0.0
C1659 C 0.63044 0.08892 0.38601 0.0
H1660 H 0.63205 0.08526 0.34013 0.0
C1661 C 0.61158 0.08978 0.38823 0.0
H1662 H 0.65208 0.08751 0.36621 0.0
C1663 C 0.6001 0.08846 0.37328 0.0
C1664 C 0.60725 0.08631 0.35579 0.0
H1665 H 0.60563 0.09062 0.40159 0.0
H1666 H 0.58562 0.08836 0.37554 0.0
C1667 C 0.62611 0.08676 0.35344 0.0
C1668 C 0.90748 0.62303 0.34709 0.0
C1669 C 0.90746 0.60429 0.35019 0.0
H1670 H 0.9075 0.64946 0.35879 0.0
C1671 C 0.90515 0.5979 0.36796 0.0
H1672 H 0.9091 0.62841 0.33356 0.0
C1673 C 0.90414 0.61 0.38245 0.0
C1674 C 0.90556 0.6287 0.37944 0.0
H1675 H 0.90492 0.58353 0.37078 0.0
H1676 H 0.9032 0.60465 0.39606 0.0
C1677 C 0.90661 0.6351 0.36157 0.0
C1678 C 0.37606 0.89563 0.3501 0.0
C1679 C 0.39445 0.8985 0.35391 0.0
H1680 H 0.34917 0.89399 0.36068 0.0
C1681 C 0.40012 0.89926 0.37206 0.0
H1682 H 0.37128 0.89484 0.33626 0.0
C1683 C 0.38746 0.89868 0.38606 0.0
C1684 C 0.36889 0.89747 0.38217 0.0
H1685 H 0.41425 0.90122 0.37545 0.0
H1686 H 0.39217 0.90029 0.39985 0.0
C1687 C 0.36338 0.89518 0.3641 0.0
C1688 C 0.09685 0.39878 0.37134 0.0
C1689 C 0.09751 0.39287 0.35328 0.0
H1690 H 0.09532 0.39123 0.39922 0.0
C1691 C 0.09915 0.37429 0.34968 0.0
H1692 H 0.09574 0.41304 0.37451 0.0
C1693 C 0.09868 0.36179 0.36383 0.0
C1694 C 0.09684 0.36766 0.38182 0.0
H1695 H 0.09973 0.36932 0.33591 0.0
H1696 H 0.09905 0.3475 0.36061 0.0
C1697 C 0.09665 0.38629 0.38549 0.0
C1698 C 0.35215 0.0841 0.63778 0.0
C1699 C 0.35792 0.08751 0.61999 0.0
H1700 H 0.35963 0.08156 0.66559 0.0
C1701 C 0.3759 0.09285 0.61699 0.0
H1702 H 0.33831 0.08016 0.64057 0.0
C1703 C 0.38817 0.09359 0.63137 0.0
C1704 C 0.38263 0.08914 0.64902 0.0
H1705 H 0.38073 0.09567 0.60344 0.0
H1706 H 0.40215 0.09697 0.62852 0.0
C1707 C 0.36436 0.08497 0.65216 0.0
C1708 C 0.90665 0.35449 0.62822 0.0
C1709 C 0.90786 0.36203 0.6108 0.0
H1710 H 0.90563 0.35936 0.6567 0.0
C1711 C 0.90699 0.3809 0.60887 0.0
H1712 H 0.90707 0.33998 0.63016 0.0
C1713 C 0.9062 0.39205 0.62413 0.0
C1714 C 0.90619 0.38451 0.6416 0.0
H1715 H 0.90777 0.38712 0.59563 0.0
H1716 H 0.90638 0.40657 0.62223 0.0
C1717 C 0.90578 0.36561 0.64345 0.0
C1718 C 0.09249 0.60374 0.6269 0.0
C1719 C 0.09168 0.61054 0.64465 0.0
H1720 H 0.09314 0.60992 0.59864 0.0
C1721 C 0.09328 0.62925 0.64745 0.0
H1722 H 0.09149 0.58935 0.62433 0.0
C1723 C 0.0941 0.64103 0.63273 0.0
C1724 C 0.09351 0.6343 0.61495 0.0
H1725 H 0.09283 0.6349 0.66096 0.0
H1726 H 0.09436 0.65545 0.63529 0.0
C1727 C 0.09349 0.61552 0.61218 0.0
C1728 C 0.08037 0.24046 0.39034 0.0
C1729 C 0.09023 0.22868 0.40149 0.0
H1730 H 0.07408 0.26791 0.38379 0.0
C1731 C 0.10311 0.23591 0.4135 0.0
H1732 H 0.07042 0.23532 0.38088 0.0
C1733 C 0.10527 0.2546 0.41513 0.0
C1734 C 0.09452 0.26641 0.40485 0.0
H1735 H 0.11105 0.22716 0.42218 0.0
H1736 H 0.11476 0.25975 0.42504 0.0
C1737 C 0.08245 0.25916 0.39204 0.0
C1738 C 0.75768 0.08859 0.41525 0.0
C1739 C 0.76796 0.07917 0.42818 0.0
H1740 H 0.73112 0.09598 0.40618 0.0
C1741 C 0.75913 0.07101 0.44286 0.0
H1742 H 0.76418 0.09503 0.40381 0.0
C1743 C 0.74036 0.07176 0.44436 0.0
C1744 C 0.72996 0.08048 0.43106 0.0
H1745 H 0.76671 0.06383 0.45315 0.0
H1746 H 0.734 0.06498 0.45568 0.0
C1747 C 0.73879 0.08912 0.41661 0.0
C1748 C 0.89256 0.75836 0.41759 0.0
C1749 C 0.90411 0.76651 0.40487 0.0
H1750 H 0.88301 0.73369 0.42929 0.0
C1751 C 0.91377 0.7555 0.39278 0.0
H1752 H 0.88481 0.76649 0.427 0.0
C1753 C 0.9128 0.7367 0.39416 0.0
C1754 C 0.90206 0.72855 0.40757 0.0
H1755 H 0.92271 0.76137 0.38276 0.0
H1756 H 0.92099 0.72857 0.38513 0.0
C1757 C 0.89149 0.73955 0.41888 0.0
C1758 C 0.24076 0.91632 0.38894 0.0
C1759 C 0.22913 0.90514 0.39896 0.0
H1760 H 0.26814 0.92338 0.38278 0.0
C1761 C 0.23652 0.89079 0.40901 0.0
H1762 H 0.23548 0.92743 0.38098 0.0
C1763 C 0.25524 0.8884 0.40996 0.0
C1764 C 0.26692 0.90039 0.40099 0.0
H1765 H 0.22789 0.88182 0.41674 0.0
H1766 H 0.26054 0.8777 0.41845 0.0
C1767 C 0.25948 0.91401 0.39 0.0
C1768 C 0.09843 0.74826 0.57791 0.0
C1769 C 0.09008 0.73545 0.58917 0.0
H1770 H 0.10184 0.77625 0.57156 0.0
C1771 C 0.08001 0.74146 0.60415 0.0
H1772 H 0.10635 0.74407 0.56632 0.0
C1773 C 0.07749 0.75992 0.60721 0.0
C1774 C 0.08489 0.7727 0.59529 0.0
H1775 H 0.07354 0.7319 0.61317 0.0
H1776 H 0.0691 0.76411 0.61847 0.0
C1777 C 0.09581 0.76671 0.5809 0.0
C1778 C 0.23323 0.0745 0.60814 0.0
C1779 C 0.22268 0.08642 0.59778 0.0
H1780 H 0.25985 0.06509 0.61449 0.0
C1781 C 0.23134 0.09973 0.58733 0.0
H1782 H 0.22696 0.06415 0.61638 0.0
C1783 C 0.2502 0.10036 0.58634 0.0
C1784 C 0.26071 0.08757 0.59564 0.0
H1785 H 0.22356 0.10922 0.57932 0.0
H1786 H 0.25647 0.11026 0.57755 0.0
C1787 C 0.25208 0.07501 0.607 0.0
C1788 C 0.89633 0.2512 0.57447 0.0
C1789 C 0.90752 0.26279 0.58455 0.0
H1790 H 0.88874 0.22387 0.56872 0.0
C1791 C 0.91861 0.25542 0.59814 0.0
H1792 H 0.88757 0.25645 0.56396 0.0
C1793 C 0.91916 0.23676 0.60098 0.0
C1794 C 0.90877 0.22509 0.59018 0.0
H1795 H 0.92728 0.26403 0.60625 0.0
H1796 H 0.92834 0.23147 0.61111 0.0
C1797 C 0.89701 0.23252 0.5772 0.0
C1798 C 0.75618 0.91931 0.56307 0.0
C1799 C 0.76404 0.91049 0.57798 0.0
H1800 H 0.73205 0.92856 0.55031 0.0
C1801 C 0.7528 0.90429 0.59199 0.0
H1802 H 0.7644 0.9244 0.55207 0.0
C1803 C 0.73401 0.90671 0.59095 0.0
C1804 C 0.72624 0.91543 0.57591 0.0
H1805 H 0.75847 0.89748 0.60366 0.0
H1806 H 0.72559 0.9017 0.60184 0.0
C1807 C 0.73755 0.92176 0.56207 0.0
C1808 C 0.39357 0.08034 0.26504 0.0
C1809 C 0.40649 0.0919 0.27288 0.0
H1810 H 0.38202 0.06993 0.24063 0.0
C1811 C 0.41651 0.10349 0.26166 0.0
H1812 H 0.3855 0.07136 0.27335 0.0
C1813 C 0.41457 0.10261 0.24289 0.0
C1814 C 0.40248 0.09021 0.235 0.0
H1815 H 0.42649 0.11263 0.26729 0.0
H1816 H 0.42309 0.11112 0.23454 0.0
C1817 C 0.39153 0.07955 0.24628 0.0
C1818 C 0.8949 0.40892 0.22702 0.0
C1819 C 0.90674 0.39627 0.21918 0.0
H1820 H 0.88604 0.42201 0.25126 0.0
C1821 C 0.91782 0.38577 0.23049 0.0
H1822 H 0.88613 0.41715 0.21866 0.0
C1823 C 0.91791 0.3887 0.24917 0.0
C1824 C 0.90678 0.40204 0.2569 0.0
H1825 H 0.92709 0.37592 0.22487 0.0
H1826 H 0.92715 0.38092 0.25747 0.0
C1827 C 0.89484 0.4117 0.24571 0.0
C1828 C 0.58168 0.88889 0.25203 0.0
C1829 C 0.59215 0.89976 0.26358 0.0
H1830 H 0.57463 0.88243 0.22472 0.0
C1831 C 0.60524 0.91132 0.25605 0.0
H1832 H 0.57154 0.87978 0.25742 0.0
C1833 C 0.60708 0.91276 0.23731 0.0
C1834 C 0.59577 0.90278 0.22574 0.0
H1835 H 0.61364 0.91975 0.2646 0.0
H1836 H 0.61679 0.92232 0.23192 0.0
C1837 C 0.58343 0.89044 0.23329 0.0
C1838 C 0.08194 0.60429 0.23985 0.0
C1839 C 0.09179 0.59257 0.22862 0.0
H1840 H 0.07513 0.6117 0.26697 0.0
C1841 C 0.10415 0.58043 0.23648 0.0
H1842 H 0.07238 0.61385 0.23419 0.0
C1843 C 0.10582 0.57928 0.25525 0.0
C1844 C 0.09504 0.59013 0.2665 0.0
H1845 H 0.11207 0.57135 0.22815 0.0
H1846 H 0.11491 0.56928 0.2609 0.0
C1847 C 0.08349 0.60303 0.25863 0.0
C1848 C 0.39018 0.92259 0.75243 0.0
C1849 C 0.40002 0.91085 0.76366 0.0
H1850 H 0.3846 0.93114 0.72537 0.0
C1851 C 0.41065 0.89723 0.75572 0.0
H1852 H 0.38181 0.93318 0.75812 0.0
C1853 C 0.41221 0.89601 0.73692 0.0
C1854 C 0.40325 0.90847 0.72573 0.0
H1855 H 0.41831 0.88788 0.76401 0.0
H1856 H 0.42103 0.88579 0.73123 0.0
C1857 C 0.39183 0.92145 0.73365 0.0
C1858 C 0.08411 0.39467 0.75597 0.0
C1859 C 0.0949 0.40577 0.767 0.0
H1860 H 0.07481 0.38892 0.72919 0.0
C1861 C 0.10637 0.41856 0.75884 0.0
H1862 H 0.07518 0.38464 0.76184 0.0
C1863 C 0.10624 0.42094 0.7401 0.0
C1864 C 0.09452 0.41069 0.7292 0.0
H1865 H 0.11496 0.42722 0.76698 0.0
H1866 H 0.11469 0.4314 0.73428 0.0
C1867 C 0.08386 0.39716 0.73726 0.0
C1868 C 0.58168 0.05445 0.73794 0.0
C1869 C 0.58244 0.07135 0.72937 0.0
H1870 H 0.58441 0.03972 0.76259 0.0
C1871 C 0.58754 0.08666 0.73939 0.0
H1872 H 0.57796 0.04241 0.73045 0.0
C1873 C 0.59095 0.0852 0.75796 0.0
C1874 C 0.58978 0.06831 0.7666 0.0
H1875 H 0.58822 0.09984 0.73303 0.0
H1876 H 0.5942 0.09727 0.7656 0.0
C1877 C 0.58552 0.05291 0.75632 0.0
C1878 C 0.91233 0.59889 0.73342 0.0
C1879 C 0.89888 0.58743 0.72637 0.0
H1880 H 0.92545 0.60913 0.7571 0.0
C1881 C 0.88703 0.57864 0.73833 0.0
H1882 H 0.92159 0.60594 0.72452 0.0
C1883 C 0.88936 0.58033 0.75701 0.0
C1884 C 0.90345 0.591 0.76407 0.0
H1885 H 0.87652 0.56974 0.73331 0.0
H1886 H 0.8805 0.57278 0.76591 0.0
C1887 C 0.91452 0.60074 0.75209 0.0
C1888 C 0.23527 0.4128 0.09929 0.0
C1889 C 0.22802 0.40386 0.08414 0.0
H1890 H 0.25915 0.42184 0.11295 0.0
C1891 C 0.23985 0.39571 0.07171 0.0
H1892 H 0.22649 0.41912 0.10917 0.0
C1893 C 0.25855 0.39739 0.0738 0.0
C1894 C 0.26579 0.40712 0.08845 0.0
H1895 H 0.23471 0.38868 0.05992 0.0
H1896 H 0.26732 0.39152 0.06363 0.0
C1897 C 0.25399 0.41435 0.10147 0.0
C1898 C 0.24154 0.59088 0.93491 0.0
C1899 C 0.23014 0.58852 0.91989 0.0
H1900 H 0.26863 0.59221 0.94479 0.0
C1901 C 0.23787 0.58677 0.9026 0.0
H1902 H 0.236 0.59242 0.94839 0.0
C1903 C 0.2567 0.58657 0.90052 0.0
C1904 C 0.26808 0.58821 0.91568 0.0
H1905 H 0.22941 0.58495 0.89077 0.0
H1906 H 0.2623 0.58464 0.88713 0.0
C1907 C 0.26027 0.59078 0.93283 0.0
C1908 C 0.41831 0.23812 0.89215 0.0
C1909 C 0.40823 0.23111 0.90666 0.0
H1910 H 0.42774 0.26179 0.87845 0.0
C1911 C 0.39822 0.243 0.91757 0.0
H1912 H 0.42603 0.22925 0.8834 0.0
C1913 C 0.39932 0.26164 0.91483 0.0
C1914 C 0.41026 0.26871 0.90097 0.0
H1915 H 0.39027 0.238 0.92881 0.0
H1916 H 0.39215 0.27055 0.92399 0.0
C1917 C 0.41923 0.25675 0.88926 0.0
C1918 C 0.76356 0.41354 0.88969 0.0
C1919 C 0.77128 0.40046 0.90114 0.0
H1920 H 0.73938 0.42679 0.88092 0.0
C1921 C 0.75982 0.38913 0.9112 0.0
H1922 H 0.77202 0.42239 0.88165 0.0
C1923 C 0.7411 0.39175 0.91088 0.0
C1924 C 0.73347 0.40564 0.90037 0.0
H1925 H 0.76534 0.37888 0.92009 0.0
H1926 H 0.73268 0.38338 0.91947 0.0
C1927 C 0.74483 0.41605 0.88925 0.0
C1928 C 0.56928 0.7536 0.89079 0.0
C1929 C 0.58294 0.76191 0.9011 0.0
H1930 H 0.55666 0.72879 0.88286 0.0
C1931 C 0.59575 0.75107 0.90999 0.0
H1932 H 0.55932 0.76162 0.88364 0.0
C1933 C 0.59414 0.73227 0.90964 0.0
C1934 C 0.57981 0.72399 0.90025 0.0
H1935 H 0.60648 0.75708 0.91797 0.0
H1936 H 0.60374 0.72427 0.9173 0.0
C1937 C 0.56779 0.73479 0.89029 0.0
C1938 C 0.73938 0.58027 0.10594 0.0
C1939 C 0.72851 0.59124 0.09488 0.0
H1940 H 0.76614 0.57122 0.11214 0.0
C1941 C 0.73686 0.60343 0.08291 0.0
H1942 H 0.73336 0.57081 0.11537 0.0
C1943 C 0.75567 0.60374 0.08113 0.0
C1944 C 0.76644 0.59175 0.09117 0.0
H1945 H 0.72884 0.61219 0.07433 0.0
H1946 H 0.76165 0.61267 0.07118 0.0
C1947 C 0.75817 0.58047 0.10405 0.0
C1948 C 0.3916 0.73856 0.0798 0.0
C1949 C 0.40316 0.73082 0.09277 0.0
H1950 H 0.382 0.76284 0.06737 0.0
C1951 C 0.41286 0.7422 0.10449 0.0
H1952 H 0.38382 0.73013 0.07067 0.0
C1953 C 0.4119 0.76095 0.10252 0.0
C1954 C 0.4011 0.76867 0.0889 0.0
H1955 H 0.42182 0.73665 0.11467 0.0
H1956 H 0.4201 0.76937 0.11129 0.0
C1957 C 0.39051 0.75731 0.07794 0.0
C1958 C 0.60283 0.24028 0.08132 0.0
C1959 C 0.59167 0.22869 0.0914 0.0
H1960 H 0.60874 0.26754 0.07372 0.0
C1961 C 0.57903 0.23622 0.10346 0.0
H1962 H 0.61277 0.23491 0.07199 0.0
C1963 C 0.57676 0.25493 0.10451 0.0
C1964 C 0.58701 0.26647 0.09344 0.0
H1965 H 0.57034 0.22764 0.11156 0.0
H1966 H 0.56635 0.26027 0.11333 0.0
C1967 C 0.60049 0.25899 0.08229 0.0
C1968 C 0.92517 0.75008 0.58997 0.0
C1969 C 0.91358 0.75772 0.57697 0.0
H1970 H 0.93711 0.72591 0.6005 0.0
C1971 C 0.90355 0.74617 0.56565 0.0
H1972 H 0.93302 0.7586 0.59895 0.0
C1973 C 0.90592 0.72746 0.5665 0.0
C1974 C 0.91834 0.71987 0.57872 0.0
H1975 H 0.89439 0.75159 0.55558 0.0
H1976 H 0.89853 0.71901 0.55707 0.0
C1977 C 0.9275 0.73133 0.59085 0.0
C1978 C 0.23366 0.92693 0.58681 0.0
C1979 C 0.22506 0.91517 0.57461 0.0
H1980 H 0.25873 0.93707 0.59712 0.0
C1981 C 0.23571 0.90313 0.56442 0.0
H1982 H 0.22585 0.93629 0.59495 0.0
C1983 C 0.25459 0.90365 0.56557 0.0
C1984 C 0.26321 0.91612 0.57704 0.0
H1985 H 0.22951 0.89384 0.55493 0.0
H1986 H 0.26242 0.89473 0.55698 0.0
C1987 C 0.25253 0.92736 0.58806 0.0
C1988 C 0.07569 0.24746 0.5904 0.0
C1989 C 0.08629 0.23936 0.57685 0.0
H1990 H 0.06525 0.27205 0.60148 0.0
C1991 C 0.09663 0.25047 0.56539 0.0
H1992 H 0.0677 0.23929 0.59956 0.0
C1993 C 0.09518 0.26928 0.56645 0.0
C1994 C 0.08341 0.27734 0.57903 0.0
H1995 H 0.10505 0.24467 0.5549 0.0
H1996 H 0.10256 0.27745 0.55678 0.0
C1997 C 0.07428 0.26626 0.59148 0.0
C1998 C 0.75918 0.07004 0.58952 0.0
C1999 C 0.76569 0.08149 0.57582 0.0
H2000 H 0.73603 0.0584 0.60237 0.0
C2001 C 0.75324 0.09167 0.56567 0.0
H2002 H 0.76842 0.06212 0.59769 0.0
C2003 C 0.73464 0.08946 0.56828 0.0
C2004 C 0.72813 0.07711 0.58118 0.0
H2005 H 0.75781 0.10069 0.55507 0.0
H2006 H 0.72539 0.09688 0.55967 0.0
C2007 C 0.74059 0.06792 0.59221 0.0
C2008 C 0.93202 0.24006 0.40581 0.0
C2009 C 0.91891 0.23297 0.4176 0.0
H2010 H 0.9451 0.26375 0.39558 0.0
C2011 C 0.90757 0.24497 0.42705 0.0
H2012 H 0.94091 0.23119 0.39826 0.0
C2013 C 0.91001 0.26365 0.42556 0.0
C2014 C 0.92379 0.27071 0.41455 0.0
H2015 H 0.89726 0.23997 0.43617 0.0
H2016 H 0.90149 0.2725 0.43355 0.0
C2017 C 0.93443 0.25874 0.40429 0.0
C2018 C 0.74099 0.92913 0.39675 0.0
C2019 C 0.73099 0.91881 0.40921 0.0
H2020 H 0.76722 0.93637 0.38677 0.0
C2021 C 0.74014 0.90629 0.42019 0.0
H2022 H 0.73435 0.93888 0.38806 0.0
C2023 C 0.75897 0.90473 0.41931 0.0
C2024 C 0.76907 0.91579 0.40757 0.0
H2025 H 0.73282 0.89806 0.42985 0.0
H2026 H 0.76564 0.8954 0.42841 0.0
C2027 C 0.75984 0.92771 0.396 0.0
C2028 C 0.08715 0.75697 0.43478 0.0
C2029 C 0.07546 0.76846 0.42513 0.0
H2030 H 0.09471 0.72972 0.44091 0.0
C2031 C 0.06327 0.76085 0.41268 0.0
H2032 H 0.09679 0.7624 0.4444 0.0
C2033 C 0.06212 0.7421 0.41064 0.0
C2034 C 0.0731 0.73057 0.42104 0.0
H2035 H 0.05415 0.76933 0.40495 0.0
H2036 H 0.05212 0.73665 0.4014 0.0
C2037 C 0.08597 0.73822 0.43278 0.0
C2038 C 0.23369 0.06475 0.41129 0.0
C2039 C 0.22573 0.07667 0.42377 0.0
H2040 H 0.25814 0.05318 0.40107 0.0
C2041 C 0.23701 0.08759 0.43453 0.0
H2042 H 0.22539 0.05624 0.40271 0.0
C2043 C 0.25583 0.08578 0.43365 0.0
C2044 C 0.26374 0.07307 0.42194 0.0
H2045 H 0.23132 0.09698 0.44423 0.0
H2046 H 0.26412 0.09383 0.44268 0.0
C2047 C 0.25249 0.063 0.41036 0.0
C2048 C 0.56209 0.91268 0.73316 0.0
C2049 C 0.57446 0.92542 0.72639 0.0
H2050 H 0.55039 0.90034 0.75654 0.0
C2051 C 0.58583 0.93459 0.73859 0.0
H2052 H 0.55321 0.9053 0.72412 0.0
C2053 C 0.58418 0.93179 0.75722 0.0
C2054 C 0.57117 0.91971 0.76402 0.0
H2055 H 0.59557 0.94444 0.73382 0.0
H2056 H 0.59269 0.93954 0.76629 0.0
C2057 C 0.56048 0.90983 0.75177 0.0
C2058 C 0.06427 0.59415 0.74204 0.0
C2059 C 0.07438 0.58311 0.73033 0.0
H2060 H 0.05688 0.60006 0.7694 0.0
C2061 C 0.08662 0.5706 0.73775 0.0
H2062 H 0.0548 0.60401 0.73677 0.0
C2063 C 0.08787 0.56839 0.75648 0.0
C2064 C 0.07683 0.57858 0.76814 0.0
H2065 H 0.09472 0.56199 0.7291 0.0
H2066 H 0.09689 0.55811 0.76173 0.0
C2067 C 0.06545 0.59188 0.76077 0.0
C2068 C 0.4097 0.06652 0.74462 0.0
C2069 C 0.4198 0.07777 0.73309 0.0
H2070 H 0.40491 0.05767 0.77173 0.0
C2071 C 0.43199 0.09021 0.74073 0.0
H2072 H 0.40011 0.05686 0.73918 0.0
C2073 C 0.43477 0.09065 0.75944 0.0
C2074 C 0.42539 0.07868 0.77086 0.0
H2075 H 0.43993 0.09911 0.73223 0.0
H2076 H 0.44474 0.09993 0.76485 0.0
C2077 C 0.41246 0.06698 0.7633 0.0
C2078 C 0.93521 0.39865 0.74062 0.0
C2079 C 0.92185 0.40688 0.72986 0.0
H2080 H 0.94613 0.39519 0.76722 0.0
C2081 C 0.90763 0.41619 0.73838 0.0
H2082 H 0.94629 0.39128 0.7345 0.0
C2083 C 0.90754 0.41842 0.75714 0.0
C2084 C 0.92168 0.41143 0.76776 0.0
H2085 H 0.89705 0.42257 0.7305 0.0
H2086 H 0.89685 0.42643 0.76318 0.0
C2087 C 0.93513 0.40092 0.75939 0.0
C2088 C 0.56308 0.08474 0.24341 0.0
C2089 C 0.57331 0.0737 0.23178 0.0
H2090 H 0.5564 0.0915 0.27076 0.0
C2091 C 0.58616 0.06188 0.23928 0.0
H2092 H 0.55311 0.09407 0.23808 0.0
C2093 C 0.58808 0.06046 0.25803 0.0
C2094 C 0.57715 0.07079 0.26968 0.0
H2095 H 0.59433 0.05327 0.23069 0.0
H2096 H 0.59768 0.05076 0.26337 0.0
C2097 C 0.56496 0.08328 0.26217 0.0
C2098 C 0.90943 0.56155 0.23905 0.0
C2099 C 0.92089 0.57117 0.22731 0.0
H2100 H 0.90253 0.55533 0.26644 0.0
C2101 C 0.93327 0.58359 0.23466 0.0
H2102 H 0.89965 0.55197 0.23382 0.0
C2103 C 0.9349 0.58554 0.2534 0.0
C2104 C 0.92421 0.57509 0.26515 0.0
H2105 H 0.94222 0.59129 0.22599 0.0
H2106 H 0.94507 0.5947 0.25865 0.0
C2107 C 0.91108 0.56348 0.25777 0.0
C2108 C 0.41107 0.93046 0.24038 0.0
C2109 C 0.42387 0.91918 0.23201 0.0
H2110 H 0.40013 0.94034 0.26529 0.0
C2111 C 0.43449 0.9077 0.24283 0.0
H2112 H 0.40261 0.9394 0.23243 0.0
C2113 C 0.43311 0.90827 0.26167 0.0
C2114 C 0.42104 0.9203 0.27008 0.0
H2115 H 0.44441 0.89875 0.23682 0.0
H2116 H 0.44199 0.89976 0.26963 0.0
C2117 C 0.40965 0.93099 0.25923 0.0
C2118 C 0.07501 0.40572 0.25803 0.0
C2119 C 0.08326 0.41911 0.26872 0.0
H2120 H 0.0685 0.39665 0.23134 0.0
C2121 C 0.09345 0.4327 0.26019 0.0
H2122 H 0.06721 0.39495 0.26417 0.0
C2123 C 0.09424 0.43364 0.24132 0.0
C2124 C 0.0848 0.42105 0.23062 0.0
H2125 H 0.10011 0.44313 0.26805 0.0
H2126 H 0.10144 0.44482 0.23515 0.0
C2127 C 0.07576 0.40668 0.23918 0.0
C2128 C 0.73991 0.59033 0.93318 0.0
C2129 C 0.72828 0.58007 0.92215 0.0
H2130 H 0.76728 0.59631 0.94058 0.0
C2131 C 0.73578 0.56924 0.90846 0.0
H2132 H 0.73456 0.5989 0.9438 0.0
C2133 C 0.75453 0.56783 0.90656 0.0
C2134 C 0.76617 0.57714 0.91838 0.0
H2135 H 0.72719 0.56128 0.89963 0.0
H2136 H 0.75986 0.55879 0.89634 0.0
C2137 C 0.75867 0.58885 0.93135 0.0
C2138 C 0.74882 0.43018 0.09206 0.0
C2139 C 0.75925 0.41777 0.08211 0.0
H2140 H 0.72234 0.44043 0.09778 0.0
C2141 C 0.75036 0.40437 0.07196 0.0
H2142 H 0.75524 0.44062 0.10009 0.0
C2143 C 0.73151 0.40425 0.07066 0.0
C2144 C 0.72115 0.41755 0.07943 0.0
H2145 H 0.75798 0.3945 0.06427 0.0
H2146 H 0.72515 0.39426 0.06202 0.0
C2147 C 0.72994 0.4301 0.09071 0.0
C2148 C 0.58487 0.74069 0.06101 0.0
C2149 C 0.57388 0.72995 0.07222 0.0
H2150 H 0.59206 0.76742 0.05256 0.0
C2151 C 0.56259 0.73846 0.08491 0.0
H2152 H 0.5938 0.73457 0.05114 0.0
C2153 C 0.56165 0.75733 0.08577 0.0
C2154 C 0.57193 0.76806 0.0739 0.0
H2155 H 0.55402 0.73058 0.0938 0.0
H2156 H 0.55235 0.76346 0.09529 0.0
C2157 C 0.58388 0.75954 0.06182 0.0
C2158 C 0.25363 0.59052 0.0712 0.0
C2159 C 0.26432 0.57929 0.08222 0.0
H2160 H 0.22702 0.59712 0.06188 0.0
C2161 C 0.25573 0.56693 0.09382 0.0
H2162 H 0.2598 0.60024 0.06215 0.0
C2163 C 0.23688 0.56521 0.09371 0.0
C2164 C 0.22628 0.57573 0.08192 0.0
H2165 H 0.26357 0.55814 0.10253 0.0
H2166 H 0.23072 0.55513 0.10236 0.0
C2167 C 0.23481 0.58871 0.071 0.0
C2168 C 0.43085 0.23837 0.08857 0.0
C2169 C 0.42066 0.22639 0.07788 0.0
H2170 H 0.43699 0.26593 0.09492 0.0
C2171 C 0.40725 0.23343 0.06637 0.0
H2172 H 0.44121 0.23339 0.09766 0.0
C2173 C 0.40479 0.25209 0.06485 0.0
C2174 C 0.41572 0.26411 0.07476 0.0
H2175 H 0.39908 0.22455 0.05804 0.0
H2176 H 0.3948 0.25708 0.05536 0.0
C2177 C 0.42842 0.25705 0.08701 0.0
C2178 C 0.24407 0.40631 0.92557 0.0
C2179 C 0.23627 0.41922 0.91402 0.0
H2180 H 0.26846 0.39452 0.93571 0.0
C2181 C 0.24752 0.42896 0.90217 0.0
H2182 H 0.23575 0.39848 0.93474 0.0
C2183 C 0.26629 0.42679 0.9028 0.0
C2184 C 0.27417 0.41471 0.91517 0.0
H2185 H 0.24193 0.43893 0.89302 0.0
H2186 H 0.27465 0.43514 0.89413 0.0
C2187 C 0.26283 0.40401 0.92607 0.0
C2188 C 0.57875 0.25147 0.90833 0.0
C2189 C 0.58858 0.25933 0.9226 0.0
H2190 H 0.5684 0.22717 0.89657 0.0
C2191 C 0.59743 0.24798 0.93503 0.0
H2192 H 0.57186 0.25981 0.89845 0.0
C2193 C 0.59543 0.22921 0.93394 0.0
C2194 C 0.58453 0.22145 0.92042 0.0
H2195 H 0.60519 0.25359 0.94612 0.0
H2196 H 0.60174 0.22088 0.94421 0.0
C2197 C 0.57673 0.23273 0.90727 0.0
C2198 C 0.40315 0.76342 0.93315 0.0
C2199 C 0.41404 0.77173 0.91998 0.0
H2200 H 0.39473 0.73863 0.94546 0.0
C2201 C 0.42357 0.76079 0.90769 0.0
H2202 H 0.39555 0.77146 0.94277 0.0
C2203 C 0.42312 0.74197 0.90924 0.0
C2204 C 0.41312 0.73369 0.92312 0.0
H2205 H 0.43199 0.76675 0.89728 0.0
H2206 H 0.43121 0.73397 0.9 0.0
C2207 C 0.40269 0.74459 0.9347 0.0
C2208 C 0.01983 0.17517 0.40213 0.0
C2209 C 0.02633 0.16433 0.41634 0.0
H2210 H 0.99671 0.18696 0.38924 0.0
C2211 C 0.01382 0.15602 0.42799 0.0
H2212 H 0.02911 0.18175 0.39289 0.0
C2213 C 0.99528 0.15908 0.42597 0.0
C2214 C 0.98881 0.17047 0.41219 0.0
H2215 H 0.01834 0.14754 0.43905 0.0
H2216 H 0.98606 0.15282 0.43547 0.0
C2217 C 0.00126 0.17818 0.40005 0.0
C2218 C 0.82198 0.02183 0.3918 0.0
C2219 C 0.8356 0.02723 0.40396 0.0
H2220 H 0.80749 -0.00026 0.37986 0.0
C2221 C 0.84637 0.01392 0.41219 0.0
H2222 H 0.81347 0.03176 0.38518 0.0
C2223 C 0.84291 0.99561 0.40918 0.0
C2224 C 0.82861 0.99018 0.39786 0.0
H2225 H 0.85705 0.0176 0.42154 0.0
H2226 H 0.85109 0.98572 0.41625 0.0
C2227 C 0.81853 0.00348 0.38876 0.0
C2228 C 0.97292 0.82201 0.40635 0.0
C2229 C 0.96568 0.83353 0.41964 0.0
H2230 H 0.99676 0.81023 0.39489 0.0
C2231 C 0.97755 0.84308 0.43101 0.0
H2232 H 0.96413 0.81451 0.39734 0.0
C2233 C 0.99623 0.84054 0.42968 0.0
C2234 C 0.00345 0.82849 0.41687 0.0
H2235 H 0.97243 0.85209 0.44136 0.0
H2236 H 0.00498 0.84774 0.43899 0.0
C2237 C 0.99163 0.81956 0.40495 0.0
C2238 C 0.15168 0.97806 0.42622 0.0
C2239 C 0.16153 0.96627 0.41505 0.0
H2240 H 0.1467 0.0054 0.43414 0.0
C2241 C 0.17315 0.97359 0.40188 0.0
H2242 H 0.14256 0.97289 0.43645 0.0
C2243 C 0.17552 0.99231 0.40054 0.0
C2244 C 0.16638 0.00404 0.41239 0.0
H2245 H 0.1809 0.96486 0.39304 0.0
H2246 H 0.185 -0.00247 0.39067 0.0
C2247 C 0.1541 0.99673 0.42493 0.0
C2248 C 0.98593 0.83911 0.58387 0.0
C2249 C 0.98095 0.82351 0.59351 0.0
H2250 H 0.00741 0.85624 0.57493 0.0
C2251 C 0.99426 0.81414 0.60333 0.0
H2252 H 0.97596 0.84679 0.57634 0.0
C2253 C 0.01239 0.81959 0.60252 0.0
C2254 C 0.0175 0.83453 0.5919 0.0
H2255 H 0.99084 0.80214 0.61099 0.0
H2256 H 0.02247 0.81158 0.60953 0.0
C2257 C 0.00398 0.84458 0.58311 0.0
C2258 C 0.16715 0.02106 0.59504 0.0
C2259 C 0.15632 0.02782 0.58092 0.0
H2260 H 0.17954 -0.00224 0.60704 0.0
C2261 C 0.14847 0.01559 0.56868 0.0
H2262 H 0.17339 0.03013 0.60472 0.0
C2263 C 0.15214 0.99713 0.5699 0.0
C2264 C 0.16363 0.99044 0.5835 0.0
H2265 H 0.14003 0.02031 0.55767 0.0
H2266 H 0.14628 0.98815 0.5599 0.0
C2267 C 0.17072 0.00252 0.59635 0.0
C2268 C -0.00051 0.19036 0.5739 0.0
C2269 C 0.0078 0.1757 0.58268 0.0
H2270 H 0.97487 0.20262 0.56521 0.0
C2271 C 0.99686 0.16226 0.59052 0.0
H2272 H 0.00747 0.20104 0.56782 0.0
C2273 C 0.97797 0.16322 0.58905 0.0
C2274 C 0.96979 0.1776 0.57966 0.0
H2275 H 0.00286 0.15083 0.59743 0.0
H2276 H 0.96985 0.15249 0.59482 0.0
C2277 C 0.98074 0.19128 0.57239 0.0
C2278 C 0.83653 0.99339 0.58164 0.0
C2279 C 0.8287 0.00642 0.57018 0.0
H2280 H 0.84006 0.9651 0.58729 0.0
C2281 C 0.81886 0.00061 0.55499 0.0
H2282 H 0.84423 -0.00254 0.59343 0.0
C2283 C 0.81643 0.98228 0.55158 0.0
C2284 C 0.82385 0.96922 0.56319 0.0
H2285 H 0.81273 0.01022 0.54579 0.0
H2286 H 0.80855 0.97839 0.53984 0.0
C2287 C 0.83416 0.9749 0.57813 0.0
C2288 C 0.40083 0.02291 0.17966 0.0
C2289 C 0.41288 0.02986 0.16667 0.0
H2290 H 0.39071 -0.00066 0.19312 0.0
C2291 C 0.42278 0.01776 0.15589 0.0
H2292 H 0.39295 0.03189 0.18814 0.0
C2293 C 0.42157 -0.00084 0.15881 0.0
C2294 C 0.41036 0.99224 0.17252 0.0
H2295 H 0.4321 0.02265 0.14569 0.0
H2296 H 0.42991 0.99025 0.1507 0.0
C2297 C 0.39956 0.00426 0.18253 0.0
C2298 C -0.0018 0.40964 0.18325 0.0
C2299 C 0.00604 0.40791 0.16602 0.0
H2300 H 0.9739 0.41123 0.19876 0.0
C2301 C 0.99472 0.40469 0.15105 0.0
H2302 H 0.00648 0.41193 0.19513 0.0
C2303 C 0.97588 0.40417 0.15319 0.0
C2304 C 0.9681 0.40698 0.17032 0.0
H2305 H 0.00036 0.40319 0.13761 0.0
H2306 H 0.96742 0.40239 0.14135 0.0
C2307 C 0.97947 0.40923 0.18536 0.0
C2308 C 0.59514 0.97231 0.1738 0.0
C2309 C 0.58244 0.96577 0.16122 0.0
H2310 H 0.60576 0.99538 0.18777 0.0
C2311 C 0.57147 0.9782 0.15192 0.0
H2312 H 0.60383 0.9631 0.18117 0.0
C2313 C 0.57251 0.99665 0.15577 0.0
C2314 C 0.5846 0.00312 0.16896 0.0
H2315 H 0.56159 0.97364 0.14209 0.0
H2316 H 0.56347 0.00578 0.14873 0.0
C2317 C 0.59623 0.99082 0.17761 0.0
C2318 C 0.01765 0.56727 0.15116 0.0
C2319 C 0.02947 0.57829 0.16117 0.0
H2320 H 0.99028 0.55924 0.1463 0.0
C2321 C 0.02216 0.59111 0.17317 0.0
H2322 H 0.02282 0.5573 0.14175 0.0
C2323 C 0.00345 0.59227 0.17574 0.0
C2324 C 0.99171 0.58055 0.16644 0.0
H2325 H 0.03091 0.59986 0.18103 0.0
H2326 H -0.00173 0.60188 0.1855 0.0
C2327 C -0.00102 0.56834 0.15381 0.0
C2328 C 0.40167 0.97617 0.82191 0.0
C2329 C 0.41409 0.96828 0.83399 0.0
H2330 H 0.39174 0.00058 0.80992 0.0
C2331 C 0.42509 0.97959 0.84459 0.0
H2332 H 0.39296 0.96782 0.81359 0.0
C2333 C 0.42446 -0.00167 0.84242 0.0
C2334 C 0.41275 0.00618 0.82965 0.0
H2335 H 0.43474 0.97397 0.85408 0.0
H2336 H 0.43358 0.00661 0.85036 0.0
C2337 C 0.40099 0.99495 0.8198 0.0
C2338 C 0.02902 0.40171 0.82145 0.0
C2339 C 0.03512 0.41499 0.83364 0.0
H2340 H 0.00625 0.38957 0.80823 0.0
C2341 C 0.02232 0.42536 0.8431 0.0
H2342 H 0.03854 0.39344 0.81398 0.0
C2343 C 0.00387 0.4232 0.83974 0.0
C2344 C -0.00222 0.41056 0.82689 0.0
H2345 H 0.02655 0.43564 0.85265 0.0
H2346 H 0.9944 0.43182 0.84686 0.0
C2347 C 0.01051 0.39949 0.81814 0.0
C2348 C 0.59959 0.01373 0.82986 0.0
C2349 C 0.58538 0.02107 0.84017 0.0
H2350 H 0.61102 0.98997 0.81787 0.0
C2351 C 0.57274 0.00933 0.84812 0.0
H2352 H 0.60961 0.02242 0.82363 0.0
C2353 C 0.57347 0.99079 0.84469 0.0
C2354 C 0.58694 0.9836 0.83336 0.0
H2355 H 0.56168 0.01452 0.85622 0.0
H2356 H 0.56304 0.9822 0.85037 0.0
C2357 C 0.60039 0.99514 0.82653 0.0
C2358 C 0.99653 0.5732 0.83943 0.0
C2359 C 0.0031 0.58514 0.82618 0.0
H2360 H 0.97336 0.56116 0.85184 0.0
C2361 C 0.99069 0.59546 0.81613 0.0
H2362 H 0.00572 0.56515 0.84752 0.0
C2363 C 0.97206 0.59317 0.81863 0.0
C2364 C 0.96551 0.58052 0.83123 0.0
H2365 H 0.99532 0.60485 0.80588 0.0
H2366 H 0.96283 0.60083 0.81021 0.0
C2367 C 0.97794 0.57092 0.84193 0.0
C2368 C 0.15625 0.43075 0.01231 0.0
C2369 C 0.16253 0.41796 0.02488 0.0
H2370 H 0.15603 0.43957 0.98479 0.0
C2371 C 0.17255 0.40305 0.01861 0.0
H2372 H 0.14849 0.44239 0.01666 0.0
C2373 C 0.17683 0.40139 0.00025 0.0
C2374 C 0.17133 0.41471 0.98786 0.0
H2375 H 0.17757 0.39294 0.02796 0.0
H2376 H 0.18498 0.39003 0.99588 0.0
C2377 C 0.16067 0.42919 0.99403 0.0
C2378 C 0.14947 0.57428 0.9819 0.0
C2379 C 0.15844 0.5859 0.96985 0.0
H2380 H 0.14599 0.56584 0.0093 0.0
C2381 C 0.16974 0.59952 0.97687 0.0
H2382 H 0.14059 0.56371 0.97697 0.0
C2383 C 0.17283 0.60076 0.99551 0.0
C2384 C 0.16476 0.58835 0.00741 0.0
H2385 H 0.17682 0.60872 0.96794 0.0
H2386 H 0.18215 0.61093 0.00047 0.0
C2387 C 0.15263 0.57545 0.00046 0.0
C2388 C 0.40299 0.17744 0.994 0.0
C2389 C 0.41294 0.1671 0.00647 0.0
H2390 H 0.39847 0.18403 0.96617 0.0
C2391 C 0.42499 0.15392 -5e-05 0.0
H2392 H 0.39352 0.18764 -0.00142 0.0
C2393 C 0.42781 0.15183 0.9814 0.0
C2394 C 0.41865 0.16289 0.96895 0.0
H2395 H 0.43277 0.14562 0.00919 0.0
H2396 H 0.43769 0.142 0.97687 0.0
C2397 C 0.40582 0.17536 0.97542 0.0
C2398 C 0.80402 0.41828 0.97592 0.0
C2399 C 0.81771 0.41179 0.96446 0.0
H2400 H 0.79508 0.42247 0.00302 0.0
C2401 C 0.83296 0.4034 0.97214 0.0
H2402 H 0.79204 0.42473 0.97046 0.0
C2403 C 0.83474 0.4021 0.99096 0.0
C2404 C 0.82129 0.40919 0.0024 0.0
H2405 H 0.84373 0.39824 0.96364 0.0
H2406 H 0.84681 0.39594 0.99653 0.0
C2407 C 0.80579 0.417 0.99463 0.0
C2408 C 0.57088 0.84 0.99345 0.0
C2409 C 0.58201 0.82605 0.0 0.0
H2410 H 0.55932 0.85292 0.97031 0.0
C2411 C 0.59155 0.81529 0.98758 0.0
H2412 H 0.56347 0.84866 0.00266 0.0
C2413 C 0.58914 0.81772 0.96898 0.0
C2414 C 0.5772 0.83101 0.96245 0.0
H2415 H 0.60031 0.80449 0.9922 0.0
H2416 H 0.59609 0.80871 0.95975 0.0
C2417 C 0.56854 0.84249 0.97488 0.0
C2418 C 0.8413 0.56445 0.01531 0.0
C2419 C 0.83218 0.57538 0.02789 0.0
H2420 H 0.84562 0.55802 0.98745 0.0
C2421 C 0.8213 0.58962 0.02153 0.0
H2422 H 0.84986 0.55341 0.01974 0.0
C2423 C 0.81888 0.59229 0.00296 0.0
C2424 C 0.82724 0.58072 0.9904 0.0
H2425 H 0.81413 0.59833 0.03089 0.0
H2426 H 0.80994 0.60299 -0.00152 0.0
C2427 C 0.83883 0.56706 0.99677 0.0
C2428 C 0.41705 0.84548 -0.00205 0.0
C2429 C 0.40474 0.83234 0.9918 0.0
H2430 H 0.43001 0.85778 0.02069 0.0
C2431 C 0.39454 0.82261 0.00455 0.0
H2432 H 0.42501 0.85334 0.98849 0.0
C2433 C 0.39741 0.82519 0.02308 0.0
C2434 C 0.41053 0.83755 0.02919 0.0
H2435 H 0.38487 0.81247 0.00025 0.0
H2436 H 0.3899 0.81692 0.03256 0.0
C2437 C 0.4199 0.84806 0.01644 0.0
C2438 C 0.57715 0.15005 0.00027 0.0
C2439 C 0.58928 0.16311 0.99365 0.0
H2440 H 0.56464 0.13816 0.02346 0.0
C2441 C 0.5995 0.1733 0.00605 0.0
H2442 H 0.56917 0.14186 0.99109 0.0
C2443 C 0.59688 0.17118 0.02466 0.0
C2444 C 0.58402 0.1588 0.03124 0.0
H2445 H 0.60902 0.18341 0.00139 0.0
H2446 H 0.60444 0.17974 0.03385 0.0
C2447 C 0.57458 0.1479 0.01886 0.0
C2448 C 0.5142 0.66665 0.90905 0.0
C2449 C 0.52303 0.65261 0.91837 0.0
H2450 H 0.48908 0.67978 0.90322 0.0
C2451 C 0.51256 0.63966 0.92752 0.0
H2452 H 0.52186 0.67684 0.90183 0.0
C2453 C 0.49373 0.64132 0.92827 0.0
C2454 C 0.48503 0.65605 0.91999 0.0
H2455 H 0.51894 0.62862 0.93474 0.0
H2456 H 0.48612 0.6315 0.93602 0.0
C2457 C 0.4954 0.66839 0.90991 0.0
C2458 C 0.32593 0.52005 0.90409 0.0
C2459 C 0.33823 0.52611 0.9173 0.0
H2460 H 0.31327 0.49726 0.89142 0.0
C2461 C 0.34848 0.51332 0.92691 0.0
H2462 H 0.31787 0.52958 0.89641 0.0
C2463 C 0.34572 0.49486 0.92417 0.0
C2464 C 0.33277 0.48878 0.91165 0.0
H2465 H 0.35813 0.51751 0.93712 0.0
H2466 H 0.35342 0.48536 0.93225 0.0
C2467 C 0.32327 0.50154 0.90125 0.0
C2468 C 0.48448 0.29143 0.90951 0.0
C2469 C 0.47609 0.30844 0.909 0.0
H2470 H 0.50926 0.27669 0.91008 0.0
C2471 C 0.48681 0.324 0.907 0.0
H2472 H 0.47652 0.2792 0.91085 0.0
C2473 C 0.50573 0.32261 0.90679 0.0
C2474 C 0.51413 0.3056 0.90832 0.0
H2475 H 0.48064 0.33728 0.90659 0.0
H2476 H 0.51374 0.33485 0.90612 0.0
C2477 C 0.50327 0.29002 0.90903 0.0
C2478 C 0.65731 0.49961 0.92322 0.0
C2479 C 0.67063 0.50679 0.91172 0.0
H2480 H 0.64512 0.47588 0.93428 0.0
C2481 C 0.68103 0.49494 0.9011 0.0
H2482 H 0.64894 0.50838 0.93145 0.0
C2483 C 0.67885 0.47623 0.90276 0.0
C2484 C 0.66618 0.46906 0.915 0.0
H2485 H 0.69134 0.50007 0.89204 0.0
H2486 H 0.68757 0.46742 0.89495 0.0
C2487 C 0.65507 0.48095 0.92481 0.0
C2488 C 0.51103 0.34011 0.06559 0.0
C2489 C 0.52347 0.33139 0.07702 0.0
H2490 H 0.4833 0.34391 0.05837 0.0
C2491 C 0.51691 0.3206 0.09124 0.0
H2492 H 0.51562 0.34857 0.05455 0.0
C2493 C 0.4983 0.31794 0.09346 0.0
C2494 C 0.48592 0.32595 0.08144 0.0
H2495 H 0.52615 0.31373 0.10031 0.0
H2496 H 0.49366 0.30912 0.10419 0.0
C2497 C 0.49248 0.33739 0.06775 0.0
C2498 C 0.64887 0.51975 0.07276 0.0
C2499 C 0.6596 0.53179 0.08283 0.0
H2500 H 0.64325 0.49222 0.06596 0.0
C2501 C 0.67207 0.52476 0.09536 0.0
H2502 H 0.63907 0.5247 0.06306 0.0
C2503 C 0.67447 0.50607 0.09704 0.0
C2504 C 0.66448 0.49407 0.08618 0.0
H2505 H 0.6805 0.53368 0.10337 0.0
H2506 H 0.68465 0.50109 0.10633 0.0
C2507 C 0.65131 0.5011 0.0744 0.0
C2508 C 0.477 0.65257 0.07473 0.0
C2509 C 0.46458 0.66347 0.0841 0.0
H2510 H 0.50473 0.6475 0.06829 0.0
C2511 C 0.47118 0.67698 0.09577 0.0
H2512 H 0.47239 0.64199 0.0657 0.0
C2513 C 0.48978 0.68015 0.09727 0.0
C2514 C 0.50213 0.6699 0.08709 0.0
H2515 H 0.46196 0.68558 0.10325 0.0
H2516 H 0.4944 0.69108 0.10588 0.0
C2517 C 0.49556 0.65577 0.07619 0.0
C2518 C 0.31962 0.47612 0.09911 0.0
C2519 C 0.3329 0.47054 0.08668 0.0
H2520 H 0.30541 0.4984 0.11099 0.0
C2521 C 0.34327 0.48372 0.07776 0.0
H2522 H 0.31144 0.46629 0.10626 0.0
C2523 C 0.33973 0.50207 0.08037 0.0
C2524 C 0.32582 0.50766 0.09205 0.0
H2525 H 0.35367 0.4799 0.06816 0.0
H2526 H 0.34758 0.51186 0.0728 0.0
C2527 C 0.31615 0.49452 0.10181 0.0
C2528 C 0.90945 0.51201 0.70246 0.0
C2529 C 0.9087 0.52105 0.68579 0.0
H2530 H 0.91026 0.48667 0.71622 0.0
C2531 C 0.90681 0.51093 0.66982 0.0
H2532 H 0.91078 0.5195 0.715 0.0
C2533 C 0.90677 0.492 0.67048 0.0
C2534 C 0.90833 0.48296 0.68714 0.0
H2535 H 0.90625 0.51758 0.65678 0.0
H2536 H 0.90604 0.48447 0.65792 0.0
C2537 C 0.90913 0.49318 0.70314 0.0
C2538 C 0.49622 0.93327 0.65328 0.0
C2539 C 0.50327 0.92003 0.66494 0.0
H2540 H 0.4726 0.94515 0.64156 0.0
C2541 C 0.49136 0.90761 0.67302 0.0
H2542 H 0.50505 0.94296 0.64672 0.0
C2543 C 0.4727 0.90892 0.67012 0.0
C2544 C 0.4656 0.92257 0.65895 0.0
H2545 H 0.49637 0.89721 0.68204 0.0
H2546 H 0.46381 0.89951 0.67699 0.0
C2547 C 0.4776 0.93448 0.65025 0.0
C2548 C 0.06708 0.5051 0.65805 0.0
C2549 C 0.08068 0.51173 0.66958 0.0
H2550 H 0.05388 0.48189 0.64699 0.0
C2551 C 0.09251 0.49942 0.67793 0.0
H2552 H 0.05782 0.51424 0.6513 0.0
C2553 C 0.09022 0.48081 0.67548 0.0
C2554 C 0.0761 0.47418 0.66457 0.0
H2555 H 0.10317 0.5041 0.68683 0.0
H2556 H 0.09917 0.47163 0.68257 0.0
C2557 C 0.06484 0.48653 0.65554 0.0
C2558 C 0.49769 0.1074 0.67961 0.0
C2559 C 0.48518 0.09774 0.66902 0.0
H2560 H 0.52561 0.11313 0.68485 0.0
C2561 C 0.49141 0.08824 0.65378 0.0
H2562 H 0.49329 0.11496 0.69136 0.0
C2563 C 0.50988 0.08726 0.65 0.0
C2564 C 0.52252 0.0957 0.66142 0.0
H2565 H 0.48209 0.08087 0.64519 0.0
H2566 H 0.51425 0.0791 0.63865 0.0
C2567 C 0.51621 0.10636 0.67586 0.0
C2568 C 0.90714 0.47255 0.31256 0.0
C2569 C 0.91952 0.46547 0.32516 0.0
H2570 H 0.89553 0.49631 0.30076 0.0
C2571 C 0.92863 0.47739 0.33683 0.0
H2572 H 0.89985 0.46372 0.30341 0.0
C2573 C 0.92619 0.49604 0.33529 0.0
C2574 C 0.91455 0.50319 0.32205 0.0
H2575 H 0.93817 0.47238 0.34676 0.0
H2576 H 0.9339 0.50486 0.34409 0.0
C2577 C 0.90467 0.49124 0.31103 0.0
C2578 C 0.50101 0.91917 0.34158 0.0
C2579 C 0.49382 0.90748 0.32842 0.0
H2580 H 0.52476 0.93045 0.35361 0.0
C2581 C 0.50571 0.89675 0.31817 0.0
H2582 H 0.49223 0.9275 0.34984 0.0
C2583 C 0.52444 0.89846 0.32033 0.0
C2584 C 0.53161 0.91089 0.33282 0.0
H2585 H 0.50059 0.88755 0.30797 0.0
H2586 H 0.53326 0.89055 0.31172 0.0
C2587 C 0.51969 0.92083 0.34378 0.0
C2588 C 0.07504 0.51757 0.34502 0.0
C2589 C 0.08518 0.53016 0.33504 0.0
H2590 H 0.06874 0.48974 0.34958 0.0
C2591 C 0.09836 0.5238 0.32288 0.0
H2592 H 0.06484 0.522 0.35457 0.0
C2593 C 0.10061 0.50524 0.32002 0.0
C2594 C 0.08968 0.4927 0.32922 0.0
H2595 H 0.10644 0.53315 0.31502 0.0
H2596 H 0.1104 0.50078 0.31007 0.0
C2597 C 0.07724 0.49905 0.34211 0.0
C2598 C 0.49419 0.09272 0.32329 0.0
C2599 C 0.50664 0.08137 0.33211 0.0
H2600 H 0.46632 0.09949 0.31908 0.0
C2601 C 0.50023 0.06905 0.34508 0.0
H2602 H 0.4987 0.10243 0.31329 0.0
C2603 C 0.48172 0.06744 0.34848 0.0
C2604 C 0.46917 0.07805 0.33892 0.0
H2605 H 0.50947 0.06023 0.35226 0.0
H2606 H 0.47723 0.05734 0.35809 0.0
C2607 C 0.47563 0.09106 0.32664 0.0
C2608 C 0.67654 0.89564 0.49877 0.0
C2609 C 0.66898 0.90769 0.48616 0.0
H2610 H 0.67859 0.8879 0.52663 0.0
C2611 C 0.65601 0.92026 0.4921 0.0
H2612 H 0.6865 0.88574 0.4946 0.0
C2613 C 0.65136 0.92139 0.51035 0.0
C2614 C 0.65966 0.91006 0.52315 0.0
H2615 H 0.64973 0.92959 0.4827 0.0
H2616 H 0.64177 0.93166 0.51449 0.0
C2617 C 0.67196 0.89685 0.51711 0.0
C2618 C 0.65315 0.06523 0.50535 0.0
C2619 C 0.66108 0.08096 0.5125 0.0
H2620 H 0.64519 0.05075 0.48163 0.0
C2621 C 0.66559 0.09517 0.50072 0.0
H2622 H 0.64931 0.05412 0.51409 0.0
C2623 C 0.66329 0.09321 0.48204 0.0
C2624 C 0.65628 0.07706 0.47482 0.0
H2625 H 0.67162 0.10751 0.50584 0.0
H2626 H 0.66766 0.10407 0.47324 0.0
C2627 C 0.65069 0.06334 0.48672 0.0
C2628 C 0.90228 0.66984 0.47303 0.0
C2629 C 0.91552 0.65833 0.46568 0.0
H2630 H 0.89077 0.6813 0.49702 0.0
C2631 C 0.92647 0.64819 0.47745 0.0
H2632 H 0.89359 0.67779 0.46432 0.0
C2633 C 0.92493 0.6503 0.49615 0.0
C2634 C 0.91235 0.6625 0.5035 0.0
H2635 H 0.93675 0.63915 0.47225 0.0
H2636 H 0.934 0.64272 0.50482 0.0
C2637 C 0.90067 0.67186 0.49177 0.0
C2638 C 0.31687 0.89751 0.47173 0.0
C2639 C 0.33043 0.90951 0.46585 0.0
H2640 H 0.30219 0.88671 0.49426 0.0
C2641 C 0.34066 0.9189 0.47882 0.0
H2642 H 0.30876 0.89004 0.46207 0.0
C2643 C 0.33687 0.91703 0.49721 0.0
C2644 C 0.32276 0.90571 0.50308 0.0
H2645 H 0.35126 0.92817 0.47477 0.0
H2646 H 0.3447 0.92488 0.5068 0.0
C2647 C 0.31308 0.89562 0.49018 0.0
C2648 C 0.0995 0.32161 0.49162 0.0
C2649 C 0.0894 0.33248 0.50351 0.0
H2650 H 0.10479 0.31429 0.4641 0.0
C2651 C 0.07787 0.34577 0.49629 0.0
H2652 H 0.10856 0.31131 0.49675 0.0
C2653 C 0.07575 0.3475 0.47762 0.0
C2654 C 0.08507 0.33597 0.46574 0.0
H2655 H 0.07001 0.35447 0.50507 0.0
H2656 H 0.06628 0.35746 0.47254 0.0
C2657 C 0.09735 0.32333 0.47291 0.0
C2658 C 0.33905 0.06717 0.52102 0.0
C2659 C 0.32836 0.07674 0.53348 0.0
H2660 H 0.34428 0.06114 0.49324 0.0
C2661 C 0.31557 0.08923 0.52696 0.0
H2662 H 0.34908 0.05751 0.52557 0.0
C2663 C 0.31282 0.09133 0.50836 0.0
C2664 C 0.32276 0.08092 0.49593 0.0
H2665 H 0.30717 0.09687 0.53622 0.0
H2666 H 0.3024 0.10055 0.50377 0.0
C2667 C 0.33625 0.06921 0.50245 0.0
C2668 C 0.92515 0.34244 0.49297 0.0
C2669 C 0.91355 0.32916 0.48584 0.0
H2670 H 0.93693 0.35417 0.51664 0.0
C2671 C 0.90341 0.31844 0.49783 0.0
H2672 H 0.93306 0.35104 0.48412 0.0
C2673 C 0.90564 0.32024 0.51654 0.0
C2674 C 0.91804 0.33282 0.52361 0.0
H2675 H 0.89427 0.30814 0.49279 0.0
H2676 H 0.89818 0.31127 0.5254 0.0
C2677 C 0.92737 0.34426 0.51164 0.0
C2678 C 0.07497 0.65691 0.49825 0.0
C2679 C 0.08651 0.67028 0.49121 0.0
H2680 H 0.06393 0.64445 0.52187 0.0
C2681 C 0.09727 0.6804 0.50318 0.0
H2682 H 0.06663 0.64874 0.48939 0.0
C2683 C 0.0957 0.67795 0.52188 0.0
C2684 C 0.08339 0.66528 0.52892 0.0
H2685 H 0.10637 0.69074 0.49818 0.0
H2686 H 0.1036 0.6865 0.53079 0.0
C2687 C 0.07346 0.65441 0.5169 0.0
C2688 C 0.06906 0.1934 0.50568 0.0
C2689 C 0.07463 0.17726 0.51404 0.0
H2690 H 0.06542 0.20788 0.48093 0.0
C2691 C 0.0813 0.16313 0.50322 0.0
H2692 H 0.06388 0.20457 0.51361 0.0
C2693 C 0.08223 0.16505 0.48442 0.0
C2694 C 0.07646 0.18113 0.47607 0.0
H2695 H 0.08573 0.15053 0.50923 0.0
H2696 H 0.08733 0.15388 0.47643 0.0
C2697 C 0.06993 0.1953 0.48692 0.0
C2698 C 0.8399 0.07125 0.47879 0.0
C2699 C 0.82818 0.08534 0.47374 0.0
H2700 H 0.85033 0.05492 0.50029 0.0
C2701 C 0.81841 0.09447 0.48725 0.0
H2702 H 0.84766 0.06398 0.4687 0.0
C2703 C 0.81983 0.08918 0.50535 0.0
C2704 C 0.83117 0.07475 0.51033 0.0
H2705 H 0.80925 0.10538 0.48382 0.0
H2706 H 0.81181 0.09622 0.51539 0.0
C2707 C 0.84144 0.06606 0.4969 0.0
C2708 C 0.90928 0.83553 0.50597 0.0
C2709 C 0.91783 0.82273 0.51714 0.0
H2710 H 0.90209 0.8432 0.47895 0.0
C2711 C 0.92584 0.80746 0.50913 0.0
H2712 H 0.90295 0.84743 0.51172 0.0
C2713 C 0.92538 0.80507 0.49041 0.0
C2714 C 0.91684 0.81784 0.47923 0.0
H2715 H 0.93253 0.79732 0.51732 0.0
H2716 H 0.93173 0.79315 0.48472 0.0
C2717 C 0.90876 0.8331 0.4872 0.0
C2718 C 0.17265 0.91751 0.48473 0.0
C2719 C 0.18571 0.92597 0.47381 0.0
H2720 H 0.16171 0.9143 0.51135 0.0
C2721 C 0.1982 0.93783 0.4819 0.0
H2722 H 0.16283 0.90831 0.47892 0.0
C2723 C 0.19754 0.94128 0.50046 0.0
C2724 C 0.18439 0.93296 0.51137 0.0
H2725 H 0.20844 0.94457 0.47388 0.0
H2726 H 0.20732 0.95055 0.50623 0.0
C2727 C 0.172 0.92096 0.50332 0.0
C2728 C 0.08006 0.82209 0.49326 0.0
C2729 C 0.06586 0.83368 0.48815 0.0
H2730 H 0.09581 0.8111 0.5149 0.0
C2731 C 0.05696 0.84378 0.50157 0.0
H2732 H 0.08726 0.81418 0.48325 0.0
C2733 C 0.06183 0.84195 0.51976 0.0
C2734 C 0.07578 0.83008 0.52489 0.0
H2735 H 0.04599 0.85285 0.49808 0.0
H2736 H 0.05449 0.84968 0.52981 0.0
C2737 C 0.085 0.82036 0.51141 0.0
C2738 C 0.19269 0.05188 0.49676 0.0
C2739 C 0.18043 0.06067 0.48522 0.0
H2740 H 0.2022 0.04828 0.52383 0.0
C2741 C 0.16809 0.0731 0.49265 0.0
H2742 H 0.2024 0.04225 0.49149 0.0
C2743 C 0.16797 0.07657 0.51125 0.0
C2744 C 0.1802 0.0677 0.52279 0.0
H2745 H 0.15846 0.08012 0.48411 0.0
H2746 H 0.15825 0.08615 0.51658 0.0
C2747 C 0.19259 0.05536 0.51533 0.0
C2748 C 0.92113 0.15563 0.51137 0.0
C2749 C 0.91185 0.17121 0.51712 0.0
H2750 H 0.93306 0.14132 0.48918 0.0
C2751 C 0.90679 0.18418 0.50419 0.0
H2752 H 0.92519 0.14536 0.52099 0.0
C2753 C 0.91138 0.18192 0.48601 0.0
C2754 C 0.92107 0.16657 0.48031 0.0
H2755 H 0.89962 0.19633 0.50814 0.0
H2756 H 0.90754 0.19234 0.47646 0.0
C2757 C 0.92565 0.15332 0.49314 0.0
C2758 C 0.79479 0.92758 0.47492 0.0
C2759 C 0.81143 0.92762 0.46579 0.0
H2760 H 0.78074 0.92224 0.49958 0.0
C2761 C 0.82708 0.92189 0.47497 0.0
H2762 H 0.78248 0.93174 0.46814 0.0
C2763 C 0.82613 0.91661 0.49313 0.0
C2764 C 0.80945 0.91661 0.50225 0.0
H2765 H 0.84008 0.92176 0.46821 0.0
H2766 H 0.83842 0.91257 0.50002 0.0
C2767 C 0.79378 0.92197 0.4929 0.0
C2768 C 0.48181 0.05305 0.19933 0.0
C2769 C 0.47422 0.06642 0.18815 0.0
H2770 H 0.50569 0.0388 0.20733 0.0
C2771 C 0.48552 0.07582 0.17609 0.0
H2772 H 0.47349 0.04552 0.20874 0.0
C2773 C 0.50403 0.07196 0.17529 0.0
C2774 C 0.51161 0.05859 0.18649 0.0
H2775 H 0.48008 0.08619 0.16728 0.0
H2776 H 0.51239 0.07948 0.16589 0.0
C2777 C 0.50029 0.04917 0.1985 0.0
C2778 C 0.91952 0.48265 0.18429 0.0
C2779 C 0.91609 0.47098 0.16969 0.0
H2780 H 0.92558 0.50955 0.19292 0.0
C2781 C 0.91576 0.47812 0.15206 0.0
H2782 H 0.91987 0.47762 0.19804 0.0
C2783 C 0.91903 0.49653 0.14911 0.0
C2784 C 0.92277 0.50812 0.16372 0.0
H2785 H 0.91315 0.46947 0.14052 0.0
H2786 H 0.91882 0.50162 0.13537 0.0
C2787 C 0.92286 0.50099 0.18134 0.0
C2788 C 0.49494 0.91177 0.15883 0.0
C2789 C 0.48453 0.92276 0.17033 0.0
H2790 H 0.52133 0.90185 0.15212 0.0
C2791 C 0.49324 0.93234 0.18427 0.0
H2792 H 0.48865 0.90421 0.14797 0.0
C2793 C 0.51193 0.93095 0.18667 0.0
C2794 C 0.52236 0.91999 0.17518 0.0
H2795 H 0.48563 0.9409 0.1934 0.0
H2796 H 0.51819 0.93853 0.19755 0.0
C2797 C 0.51367 0.91041 0.16122 0.0
C2798 C 0.06189 0.50719 0.18626 0.0
C2799 C 0.07443 0.51777 0.17667 0.0
H2800 H 0.05153 0.48071 0.19154 0.0
C2801 C 0.08629 0.50923 0.16451 0.0
H2802 H 0.05251 0.51334 0.19569 0.0
C2803 C 0.08574 0.49047 0.16214 0.0
C2804 C 0.07327 0.47988 0.17183 0.0
H2805 H 0.0961 0.517 0.15689 0.0
H2806 H 0.09515 0.48429 0.15277 0.0
C2807 C 0.06129 0.48846 0.18384 0.0
C2808 C 0.48372 0.91743 0.82162 0.0
C2809 C 0.47277 0.92817 0.81038 0.0
H2810 H 0.51054 0.91158 0.83094 0.0
C2811 C 0.48095 0.94162 0.79973 0.0
H2812 H 0.47783 0.90696 0.83 0.0
C2813 C 0.49964 0.94432 0.80031 0.0
C2814 C 0.51061 0.93358 0.81152 0.0
H2815 H 0.47292 0.95017 0.79094 0.0
H2816 H 0.50548 0.95481 0.79193 0.0
C2817 C 0.50246 0.92009 0.82216 0.0
C2818 C 0.06625 0.50675 0.81286 0.0
C2819 C 0.07597 0.51511 0.82692 0.0
H2820 H 0.06023 0.48225 0.79875 0.0
C2821 C 0.08747 0.5045 0.83773 0.0
H2822 H 0.05729 0.51452 0.80424 0.0
C2823 C 0.08915 0.48592 0.83457 0.0
C2824 C 0.07939 0.47759 0.82051 0.0
H2825 H 0.09515 0.51052 0.84866 0.0
H2826 H 0.09808 0.4781 0.84316 0.0
C2827 C 0.06795 0.48822 0.80969 0.0
C2828 C 0.4988 0.04496 0.80525 0.0
C2829 C 0.4881 0.05647 0.81594 0.0
H2830 H 0.5254 0.03771 0.79657 0.0
C2831 C 0.49664 0.06994 0.82632 0.0
H2832 H 0.49267 0.03444 0.79709 0.0
C2833 C 0.51548 0.07184 0.82602 0.0
C2834 C 0.52615 0.06029 0.81533 0.0
H2835 H 0.48878 0.07904 0.83469 0.0
H2836 H 0.52166 0.08233 0.83417 0.0
C2837 C 0.51759 0.04684 0.80496 0.0
C2838 C 0.91477 0.49139 0.83443 0.0
C2839 C 0.9251 0.48054 0.82273 0.0
H2840 H 0.90476 0.51789 0.84042 0.0
C2841 C 0.93315 0.48854 0.80747 0.0
H2842 H 0.90837 0.48565 0.84629 0.0
C2843 C 0.93107 0.50702 0.8041 0.0
C2844 C 0.92089 0.51791 0.81589 0.0
H2845 H 0.94115 0.48057 0.79815 0.0
H2846 H 0.93755 0.51276 0.79228 0.0
C2847 C 0.91269 0.50988 0.83105 0.0
C2848 C 0.17063 0.4871 0.07642 0.0
C2849 C 0.18339 0.47617 0.06753 0.0
H2850 H 0.16036 0.51386 0.08059 0.0
C2851 C 0.19593 0.48434 0.0558 0.0
H2852 H 0.16078 0.48122 0.08553 0.0
C2853 C 0.19567 0.503 0.05294 0.0
C2854 C 0.18288 0.51394 0.06176 0.0
H2855 H 0.20595 0.47632 0.04873 0.0
H2856 H 0.20551 0.50882 0.04378 0.0
C2857 C 0.17038 0.5058 0.07358 0.0
C2858 C 0.19052 0.49195 0.91548 0.0
C2859 C 0.17423 0.48586 0.92321 0.0
H2860 H 0.20579 0.51451 0.90573 0.0
C2861 C 0.16039 0.49843 0.92661 0.0
H2862 H 0.20144 0.4826 0.91263 0.0
C2863 C 0.16291 0.51675 0.92267 0.0
C2864 C 0.1793 0.52288 0.91518 0.0
H2865 H 0.14768 0.49418 0.93253 0.0
H2866 H 0.15205 0.52612 0.92567 0.0
C2867 C 0.19301 0.51025 0.91149 0.0
C2868 C 0.49089 0.19516 0.94347 0.0
C2869 C 0.48234 0.18389 0.93075 0.0
H2870 H 0.51558 0.20256 0.95664 0.0
C2871 C 0.4928 0.17112 0.92131 0.0
H2872 H 0.48323 0.20513 0.95099 0.0
C2873 C 0.5114 0.16964 0.92456 0.0
C2874 C 0.51992 0.18088 0.93734 0.0
H2875 H 0.48664 0.16222 0.91143 0.0
H2876 H 0.51908 0.15966 0.91708 0.0
C2877 C 0.50945 0.19367 0.94673 0.0
C2878 C 0.81057 0.50625 0.91702 0.0
C2879 C 0.82835 0.51249 0.91969 0.0
H2880 H 0.79335 0.48373 0.91138 0.0
C2881 C 0.84276 0.5002 0.91806 0.0
H2882 H 0.79915 0.51538 0.91807 0.0
C2883 C 0.83941 0.48197 0.91423 0.0
C2884 C 0.82159 0.47569 0.91188 0.0
H2885 H 0.85661 0.50458 0.91999 0.0
H2886 H 0.85078 0.47276 0.91333 0.0
C2887 C 0.80724 0.48808 0.91313 0.0
C2888 C 0.4855 0.80381 0.94627 0.0
C2889 C 0.47456 0.8157 0.93626 0.0
H2890 H 0.51194 0.79285 0.95039 0.0
C2891 C 0.4825 0.82607 0.92243 0.0
H2892 H 0.47982 0.79563 0.95701 0.0
C2893 C 0.50097 0.82447 0.91863 0.0
C2894 C 0.51186 0.81246 0.92855 0.0
H2895 H 0.47444 0.83536 0.91447 0.0
H2896 H 0.50667 0.83259 0.90785 0.0
C2897 C 0.50393 0.8022 0.94245 0.0
C2898 C 0.81701 0.48479 0.07167 0.0
C2899 C 0.8036 0.47772 0.06016 0.0
H2900 H 0.82845 0.5084 0.08397 0.0
C2901 C 0.79111 0.48962 0.05218 0.0
H2902 H 0.82684 0.47599 0.07805 0.0
C2903 C 0.79203 0.50817 0.05559 0.0
C2904 C 0.80546 0.51526 0.06705 0.0
H2905 H 0.78059 0.48462 0.04327 0.0
H2906 H 0.78221 0.51695 0.04918 0.0
C2907 C 0.81793 0.50337 0.07508 0.0
C2908 C 0.48541 0.82541 0.07398 0.0
C2909 C 0.47374 0.81354 0.06477 0.0
H2910 H 0.51259 0.83482 0.07755 0.0
C2911 C 0.48101 0.80185 0.05166 0.0
H2912 H 0.48024 0.8346 0.08415 0.0
C2913 C 0.49952 0.80199 0.04785 0.0
C2914 C 0.5112 0.81382 0.05708 0.0
H2915 H 0.4724 0.79255 0.04429 0.0
H2916 H 0.50465 0.79278 0.03768 0.0
C2917 C 0.50395 0.82554 0.07019 0.0
C2918 C 0.50947 0.16973 0.07804 0.0
C2919 C 0.5207 0.1813 0.06797 0.0
H2920 H 0.48252 0.16027 0.08289 0.0
C2921 C 0.51289 0.19234 0.05461 0.0
H2922 H 0.51506 0.16105 0.08844 0.0
C2923 C 0.49427 0.19186 0.0514 0.0
C2924 C 0.48302 0.18036 0.06151 0.0
H2925 H 0.52116 0.20139 0.04658 0.0
H2926 H 0.48871 0.20057 0.04101 0.0
C2927 C 0.49081 0.16929 0.07487 0.0
C2928 C 0.54725 0.69181 0.98363 0.0
C2929 C 0.56075 0.68076 0.97608 0.0
H2930 H 0.53392 0.70082 0.00766 0.0
C2931 C 0.57138 0.67002 0.98762 0.0
H2932 H 0.53881 0.70024 0.97513 0.0
C2933 C 0.56856 0.67035 0.00632 0.0
C2934 C 0.55505 0.68142 0.01386 0.0
H2935 H 0.58188 0.66134 0.98223 0.0
H2936 H 0.57699 0.66194 0.01486 0.0
C2937 C 0.54443 0.69214 0.0023 0.0
C2938 C 0.34096 0.56316 0.0096 0.0
C2939 C 0.3306 0.57152 0.02317 0.0
H2940 H 0.34685 0.5613 0.98131 0.0
C2941 C 0.31858 0.58543 0.0183 0.0
H2942 H 0.35037 0.55243 0.01291 0.0
C2943 C 0.31662 0.59058 0.00024 0.0
C2944 C 0.32658 0.58187 0.9866 0.0
H2945 H 0.31046 0.59223 0.02843 0.0
H2946 H 0.30701 0.60113 0.99694 0.0
C2947 C 0.33893 0.56825 0.99149 0.0
C2948 C 0.41086 0.31636 0.00573 0.0
C2949 C 0.42351 0.32935 0.01149 0.0
H2950 H 0.39748 0.30378 0.98335 0.0
C2951 C 0.43195 0.34035 -0.0015 0.0
H2952 H 0.40404 0.30772 0.0154 0.0
C2953 C 0.42823 0.33805 0.9801 0.0
C2954 C 0.41591 0.32475 0.97431 0.0
H2955 H 0.44173 0.35051 0.00249 0.0
H2956 H 0.43523 0.3465 0.9704 0.0
C2957 C 0.40706 0.31412 0.98734 0.0
C2958 C 0.67494 0.42618 0.00623 0.0
C2959 C 0.68526 0.43958 0.01493 0.0
H2960 H 0.66876 0.41261 0.98144 0.0
C2961 C 0.69778 0.44962 0.00472 0.0
H2962 H 0.66522 0.41815 0.01369 0.0
C2963 C 0.6998 0.44645 0.98618 0.0
C2964 C 0.68941 0.43311 0.97747 0.0
H2965 H 0.70595 0.46002 0.01102 0.0
H2966 H 0.70946 0.45451 0.97867 0.0
C2967 C 0.67702 0.42296 0.98773 0.0
C2968 C 0.55555 0.29235 0.01051 0.0
C2969 C 0.56573 0.30642 0.0183 0.0
H2970 H 0.54562 0.28016 0.98617 0.0
C2971 C 0.57355 0.31948 0.00695 0.0
H2972 H 0.54931 0.28208 0.01889 0.0
C2973 C 0.57137 0.31841 0.98821 0.0
C2974 C 0.56136 0.30423 0.98039 0.0
H2975 H 0.58142 0.33052 0.01252 0.0
H2976 H 0.57771 0.32864 0.97985 0.0
C2977 C 0.5534 0.29125 0.99175 0.0
C2978 C 0.67133 0.57549 0.99174 0.0
C2979 C 0.68305 0.56257 0.98416 0.0
H2980 H 0.66232 0.5889 0.01579 0.0
C2981 C 0.69497 0.55314 0.99558 0.0
H2982 H 0.66199 0.583 0.98331 0.0
C2983 C 0.69518 0.55655 0.01416 0.0
C2984 C 0.68347 0.56945 0.02176 0.0
H2985 H 0.70419 0.54311 0.99018 0.0
H2986 H 0.70454 0.54902 0.02255 0.0
C2987 C 0.67153 0.57889 0.01036 0.0
C2988 C 0.41028 0.66333 0.01247 0.0
C2989 C 0.42076 0.67682 0.02084 0.0
H2990 H 0.40267 0.65041 0.98768 0.0
C2991 C 0.43215 0.68759 0.01009 0.0
H2992 H 0.40139 0.65478 0.02037 0.0
C2993 C 0.43289 0.68509 0.99137 0.0
C2994 C 0.42227 0.67174 0.98296 0.0
H2995 H 0.44044 0.69808 0.01609 0.0
H2996 H 0.44172 0.69374 0.9835 0.0
C2997 C 0.41102 0.66082 0.99373 0.0
C2998 C 0.32024 0.41146 0.98476 0.0
C2999 C 0.33298 0.42505 0.98085 0.0
H3000 H 0.30665 0.39611 0.00517 0.0
C3001 C 0.34236 0.43327 0.9952 0.0
H3002 H 0.31282 0.4048 0.97401 0.0
C3003 C 0.33878 0.4283 0.01309 0.0
C3004 C 0.3258 0.41495 0.01701 0.0
H3005 H 0.35227 0.44376 0.99265 0.0
H3006 H 0.34605 0.4351 0.02386 0.0
C3007 C 0.31672 0.40645 0.00263 0.0
C3008 C 0.97929 0.56895 0.65805 0.0
C3009 C 0.97364 0.5811 0.67155 0.0
H3010 H 0.00154 0.55568 0.64513 0.0
C3011 C 0.9868 0.58984 0.68213 0.0
H3012 H 0.96949 0.56203 0.64961 0.0
C3013 C 0.00517 0.58615 0.6796 0.0
C3014 C 0.01079 0.57369 0.66637 0.0
H3015 H 0.98292 0.59929 0.69264 0.0
H3016 H 0.01494 0.5929 0.6882 0.0
C3017 C 0.99766 0.56531 0.65546 0.0
C3018 C 0.43054 0.01188 0.68233 0.0
C3019 C 0.42085 0.02013 0.66819 0.0
H3020 H 0.43732 0.98733 0.69597 0.0
C3021 C 0.41035 0.00925 0.65664 0.0
H3022 H 0.43875 0.01986 0.69149 0.0
C3023 C 0.4095 0.99053 0.65925 0.0
C3024 C 0.41914 0.98232 0.67345 0.0
H3025 H 0.40271 0.01518 0.64564 0.0
H3026 H 0.40127 0.98251 0.65016 0.0
C3027 C 0.4297 0.99321 0.68492 0.0
C3028 C 0.0061 0.42102 0.67353 0.0
C3029 C 0.01654 0.43 0.68666 0.0
H3030 H 0.97958 0.41564 0.66314 0.0
C3031 C 0.00774 0.44081 0.69958 0.0
H3032 H 0.01247 0.41262 0.66336 0.0
C3033 C 0.98892 0.44255 0.69945 0.0
C3034 C 0.97846 0.43355 0.68638 0.0
H3035 H 0.01537 0.44793 0.70987 0.0
H3036 H 0.98259 0.45094 0.70966 0.0
C3037 C 0.98725 0.42278 0.67339 0.0
C3038 C 0.58335 0.99466 0.67241 0.0
C3039 C 0.56765 0.99058 0.66244 0.0
H3040 H 0.6011 0.01526 0.68238 0.0
C3041 C 0.55812 0.00474 0.65408 0.0
H3042 H 0.59106 0.98405 0.67894 0.0
C3043 C 0.56384 0.02265 0.65614 0.0
C3044 C 0.5793 0.02676 0.66645 0.0
H3045 H 0.54601 0.00206 0.64628 0.0
H3046 H 0.55597 0.03329 0.64985 0.0
C3047 C 0.58915 0.01255 0.67432 0.0
C3048 C 0.00919 0.44472 0.29477 0.0
C3049 C 0.01959 0.43571 0.30788 0.0
H3050 H 0.98314 0.44821 0.28264 0.0
C3051 C 0.01115 0.42279 0.31901 0.0
H3052 H 0.01526 0.45472 0.28595 0.0
C3053 C 0.9927 0.41903 0.31709 0.0
C3054 C 0.98229 0.4281 0.304 0.0
H3055 H 0.01879 0.41559 0.32923 0.0
H3056 H 0.98659 0.40907 0.32591 0.0
C3057 C 0.99075 0.44096 0.29285 0.0
C3058 C 0.55255 -0.00139 0.30169 0.0
C3059 C 0.56215 0.00953 0.31394 0.0
H3060 H 0.5485 0.97213 0.29085 0.0
C3061 C 0.57547 0.00153 0.32494 0.0
H3062 H 0.54223 0.00433 0.293 0.0
C3063 C 0.57907 0.983 0.32371 0.0
C3064 C 0.56946 0.97211 0.31143 0.0
H3065 H 0.58312 0.00958 0.33451 0.0
H3066 H 0.58938 0.97723 0.33238 0.0
C3067 C 0.55618 0.98013 0.30043 0.0
C3068 C 0.99258 0.57247 0.32359 0.0
C3069 C 0.98523 0.55908 0.31225 0.0
H3070 H 0.01641 0.58645 0.33236 0.0
C3071 C 0.99687 0.54931 0.30083 0.0
H3072 H 0.98398 0.58024 0.33255 0.0
C3073 C 0.01542 0.5529 0.3007 0.0
C3074 C 0.02278 0.56631 0.312 0.0
H3075 H 0.99166 0.53891 0.29192 0.0
H3076 H 0.02399 0.54513 0.2917 0.0
C3077 C 0.01117 0.57604 0.32348 0.0
C3078 C 0.42525 0.98754 0.32844 0.0
C3079 C 0.43801 0.98013 0.31642 0.0
H3080 H 0.41182 0.01142 0.33786 0.0
C3081 C 0.44712 0.99169 0.30441 0.0
H3082 H 0.41799 0.979 0.33786 0.0
C3083 C 0.44356 0.01023 0.30438 0.0
C3084 C 0.43081 0.01766 0.31638 0.0
H3085 H 0.45701 0.98644 0.29496 0.0
H3086 H 0.45084 0.01874 0.29493 0.0
C3087 C 0.42171 0.00612 0.32843 0.0
C3088 C 0.65636 0.97906 0.57141 0.0
C3089 C 0.66997 0.97364 0.58356 0.0
H3090 H 0.64333 0.001 0.55778 0.0
C3091 C 0.6807 0.98696 0.59187 0.0
H3092 H 0.6478 0.96915 0.5648 0.0
C3093 C 0.67818 0.00525 0.58778 0.0
C3094 C 0.6648 0.01062 0.57536 0.0
H3095 H 0.69129 0.98325 0.6013 0.0
H3096 H 0.68687 0.01515 0.5942 0.0
C3097 C 0.65377 -0.00266 0.56739 0.0
C3098 C 0.67292 0.99057 0.42477 0.0
C3099 C 0.68962 0.98155 0.42596 0.0
H3100 H 0.65929 0.01583 0.42069 0.0
C3101 C 0.70566 0.99134 0.4232 0.0
H3102 H 0.66035 0.98334 0.42687 0.0
C3103 C 0.70504 0.0098 0.41929 0.0
C3104 C 0.68838 0.01892 0.41845 0.0
H3105 H 0.71871 0.98471 0.42392 0.0
H3106 H 0.71765 0.01701 0.41731 0.0
C3107 C 0.67232 0.00914 0.42126 0.0
C3108 C 0.00577 0.67215 0.42287 0.0
C3109 C 0.01314 0.68332 0.4364 0.0
H3110 H 0.98192 0.6636 0.40878 0.0
C3111 C 0.00154 0.6947 0.44624 0.0
H3112 H 0.01435 0.66323 0.41503 0.0
C3113 C 0.98298 0.69494 0.44263 0.0
C3114 C 0.9756 0.68379 0.42911 0.0
H3115 H 0.00677 0.70349 0.45674 0.0
H3116 H 0.97444 0.70388 0.45049 0.0
C3117 C 0.98719 0.67237 0.41927 0.0
C3118 C 0.33759 -0.00117 0.41672 0.0
C3119 C 0.32472 0.00969 0.42555 0.0
H3120 H 0.34478 0.97227 0.40767 0.0
C3121 C 0.30876 0.00162 0.43202 0.0
H3122 H 0.35002 0.00463 0.41156 0.0
C3123 C 0.30576 0.98311 0.42979 0.0
C3124 C 0.31864 0.97223 0.42102 0.0
H3125 H 0.29853 0.00959 0.43885 0.0
H3126 H 0.29333 0.97735 0.43498 0.0
C3127 C 0.33458 0.98029 0.41447 0.0
C3128 C 0.99353 0.32717 0.41958 0.0
C3129 C 0.98527 0.31607 0.43263 0.0
H3130 H 0.01819 0.33507 0.40656 0.0
C3131 C 0.99609 0.30416 0.44274 0.0
H3132 H 0.98557 0.33649 0.41156 0.0
C3133 C 0.01474 0.30331 0.43984 0.0
C3134 C 0.02302 0.31438 0.42679 0.0
H3135 H 0.99016 0.29541 0.45288 0.0
H3136 H 0.02266 0.29396 0.44787 0.0
C3137 C 0.01222 0.32635 0.41671 0.0
C3138 C 0.29504 0.00623 0.55485 0.0
C3139 C 0.30638 0.01361 0.56823 0.0
H3140 H 0.28674 0.98256 0.54043 0.0
C3141 C 0.31845 0.00215 0.57741 0.0
H3142 H 0.2856 0.01468 0.54749 0.0
C3143 C 0.31911 0.9837 0.57335 0.0
C3144 C 0.30773 0.97632 0.56 0.0
H3145 H 0.32739 0.00742 0.58778 0.0
H3146 H 0.32852 0.97522 0.58071 0.0
C3147 C 0.29571 0.9878 0.55078 0.0
C3148 C 0.99042 0.30044 0.55092 0.0
C3149 C 0.98128 0.31183 0.56309 0.0
H3150 H 0.01568 0.29317 0.53879 0.0
C3151 C 0.9912 0.32498 0.5726 0.0
H3152 H 0.98319 0.29017 0.54336 0.0
C3153 C 0.00987 0.3267 0.56996 0.0
C3154 C 0.019 0.31533 0.55776 0.0
H3155 H 0.98457 0.33397 0.58207 0.0
H3156 H 0.01712 0.33698 0.57749 0.0
C3157 C 0.00907 0.30217 0.54828 0.0
C3158 C 0.9939 0.69501 0.55108 0.0
C3159 C 0.98365 0.68171 0.55998 0.0
H3160 H 0.01989 0.70714 0.54737 0.0
C3161 C 0.99232 0.67023 0.57242 0.0
H3162 H 0.98764 0.70408 0.54142 0.0
C3163 C 0.01085 0.67199 0.57585 0.0
C3164 C 0.02109 0.68528 0.56691 0.0
H3165 H 0.9848 0.65985 0.57952 0.0
H3166 H 0.01714 0.66291 0.58547 0.0
C3167 C 0.0124 0.69677 0.5545 0.0
loop_
_geom_bond_atom_site_label_1
_geom_bond_atom_site_label_2
_geom_bond_distance
_geom_bond_site_symmetry_2
_ccdc_geom_bond_type
C0 O1 1.160 . S
C0 O7 1.185 . S
O1 C0 1.160 . S
O2 Zn3 1.899 . S
O2 C10 1.284 . S
Zn3 O2 1.899 . S
Zn3 O4 2.032 . S
Zn3 O7 2.086 . S
Zn3 O12 1.977 . S
O4 Zn3 2.032 . S
O4 C8 1.278 . S
C5 O6 1.203 . S
C5 O12 1.267 . S
O6 C5 1.203 . S
O7 C0 1.185 . S
O7 Zn3 2.086 . S
C8 O4 1.278 . S
C8 O9 1.211 . S
O9 C8 1.211 . S
C10 O2 1.284 . S
C10 O11 1.273 . S
O11 C10 1.273 . S
O12 Zn3 1.977 . S
O12 C5 1.267 . S
C13 O14 1.160 . S
C13 O20 1.185 . S
O14 C13 1.160 . S
O15 Zn16 1.899 . S
O15 C23 1.284 . S
Zn16 O15 1.899 . S
Zn16 O17 2.032 . S
Zn16 O20 2.086 . S
Zn16 O25 1.977 . S
O17 Zn16 2.032 . S
O17 C21 1.278 . S
C18 O19 1.203 . S
C18 O25 1.267 . S
O19 C18 1.203 . S
O20 C13 1.185 . S
O20 Zn16 2.086 . S
C21 O17 1.278 . S
C21 O22 1.211 . S
O22 C21 1.211 . S
C23 O15 1.284 . S
C23 O24 1.273 . S
O24 C23 1.273 . S
O25 Zn16 1.977 . S
O25 C18 1.267 . S
C26 O27 1.160 . S
C26 O33 1.185 . S
O27 C26 1.160 . S
O28 Zn29 1.899 . S
O28 C36 1.284 . S
Zn29 O28 1.899 . S
Zn29 O30 2.032 . S
Zn29 O33 2.086 . S
Zn29 O38 1.977 . S
O30 Zn29 2.032 . S
O30 C34 1.278 . S
C31 O32 1.203 . S
C31 O38 1.267 . S
O32 C31 1.203 . S
O33 C26 1.185 . S
O33 Zn29 2.086 . S
C34 O30 1.278 . S
C34 O35 1.211 . S
O35 C34 1.211 . S
C36 O28 1.284 . S
C36 O37 1.273 . S
O37 C36 1.273 . S
O38 Zn29 1.977 . S
O38 C31 1.267 . S
C39 O40 1.160 . S
C39 O46 1.185 . S
O40 C39 1.160 . S
O41 Zn42 1.899 . S
O41 C49 1.284 . S
Zn42 O41 1.899 . S
Zn42 O43 2.032 . S
Zn42 O46 2.086 . S
Zn42 O51 1.977 . S
O43 Zn42 2.032 . S
O43 C47 1.278 . S
C44 O45 1.203 . S
C44 O51 1.267 . S
O45 C44 1.203 . S
O46 C39 1.185 . S
O46 Zn42 2.086 . S
C47 O43 1.278 . S
C47 O48 1.211 . S
O48 C47 1.211 . S
C49 O41 1.284 . S
C49 O50 1.273 . S
O50 C49 1.273 . S
O51 Zn42 1.977 . S
O51 C44 1.267 . S
C52 O53 1.160 . S
C52 O59 1.185 . S
O53 C52 1.160 . S
O54 Zn55 1.899 . S
O54 C62 1.284 . S
Zn55 O54 1.899 . S
Zn55 O56 2.032 . S
Zn55 O59 2.086 . S
Zn55 O64 1.977 . S
O56 Zn55 2.032 . S
O56 C60 1.278 . S
C57 O58 1.203 . S
C57 O64 1.267 . S
O58 C57 1.203 . S
O59 C52 1.185 . S
O59 Zn55 2.086 . S
C60 O56 1.278 . S
C60 O61 1.211 . S
O61 C60 1.211 . S
C62 O54 1.284 . S
C62 O63 1.273 . S
O63 C62 1.273 . S
O64 Zn55 1.977 . S
O64 C57 1.267 . S
C65 O66 1.160 . S
C65 O72 1.185 . S
O66 C65 1.160 . S
O67 Zn68 1.899 . S
O67 C75 1.284 . S
Zn68 O67 1.899 . S
Zn68 O69 2.032 . S
Zn68 O72 2.086 . S
Zn68 O77 1.977 . S
O69 Zn68 2.032 . S
O69 C73 1.278 . S
C70 O71 1.203 . S
C70 O77 1.267 . S
O71 C70 1.203 . S
O72 C65 1.185 . S
O72 Zn68 2.086 . S
C73 O69 1.278 . S
C73 O74 1.211 . S
O74 C73 1.211 . S
C75 O67 1.284 . S
C75 O76 1.273 . S
O76 C75 1.273 . S
O77 Zn68 1.977 . S
O77 C70 1.267 . S
C78 O79 1.160 . S
C78 O85 1.185 . S
O79 C78 1.160 . S
O80 Zn81 1.899 . S
O80 C88 1.284 . S
Zn81 O80 1.899 . S
Zn81 O82 2.032 . S
Zn81 O85 2.086 . S
Zn81 O90 1.977 . S
O82 Zn81 2.032 . S
O82 C86 1.278 . S
C83 O84 1.203 . S
C83 O90 1.267 . S
O84 C83 1.203 . S
O85 C78 1.185 . S
O85 Zn81 2.086 . S
C86 O82 1.278 . S
C86 O87 1.211 . S
O87 C86 1.211 . S
C88 O80 1.284 . S
C88 O89 1.273 . S
O89 C88 1.273 . S
O90 Zn81 1.977 . S
O90 C83 1.267 . S
C91 O92 1.160 . S
C91 O98 1.185 . S
O92 C91 1.160 . S
O93 Zn94 1.899 . S
O93 C101 1.284 . S
Zn94 O93 1.899 . S
Zn94 O95 2.032 . S
Zn94 O98 2.086 . S
Zn94 O103 1.977 . S
O95 Zn94 2.032 . S
O95 C99 1.278 . S
C96 O97 1.203 . S
C96 O103 1.267 . S
O97 C96 1.203 . S
O98 C91 1.185 . S
O98 Zn94 2.086 . S
C99 O95 1.278 . S
C99 O100 1.211 . S
O100 C99 1.211 . S
C101 O93 1.284 . S
C101 O102 1.273 . S
O102 C101 1.273 . S
O103 Zn94 1.977 . S
O103 C96 1.267 . S
C104 O105 1.160 . S
C104 O111 1.185 . S
O105 C104 1.160 . S
O106 Zn107 1.899 . S
O106 C114 1.284 . S
Zn107 O106 1.899 . S
Zn107 O108 2.032 . S
Zn107 O111 2.086 . S
Zn107 O116 1.977 . S
O108 Zn107 2.032 . S
O108 C112 1.278 . S
C109 O110 1.203 . S
C109 O116 1.267 . S
O110 C109 1.203 . S
O111 C104 1.185 . S
O111 Zn107 2.086 . S
C112 O108 1.278 . S
C112 O113 1.211 . S
O113 C112 1.211 . S
C114 O106 1.284 . S
C114 O115 1.273 . S
O115 C114 1.273 . S
O116 Zn107 1.977 . S
O116 C109 1.267 . S
C117 O118 1.160 . S
C117 O124 1.185 . S
O118 C117 1.160 . S
O119 Zn120 1.899 . S
O119 C127 1.284 . S
Zn120 O119 1.899 . S
Zn120 O121 2.032 . S
Zn120 O124 2.086 . S
Zn120 O129 1.977 . S
O121 Zn120 2.032 . S
O121 C125 1.278 . S
C122 O123 1.203 . S
C122 O129 1.267 . S
O123 C122 1.203 . S
O124 C117 1.185 . S
O124 Zn120 2.086 . S
C125 O121 1.278 . S
C125 O126 1.211 . S
O126 C125 1.211 . S
C127 O119 1.284 . S
C127 O128 1.273 . S
O128 C127 1.273 . S
O129 Zn120 1.977 . S
O129 C122 1.267 . S
C130 O131 1.160 . S
C130 O137 1.185 . S
O131 C130 1.160 . S
O132 Zn133 1.899 . S
O132 C140 1.284 . S
Zn133 O132 1.899 . S
Zn133 O134 2.032 . S
Zn133 O137 2.086 . S
Zn133 O142 1.977 . S
O134 Zn133 2.032 . S
O134 C138 1.278 . S
C135 O136 1.203 . S
C135 O142 1.267 . S
O136 C135 1.203 . S
O137 C130 1.185 . S
O137 Zn133 2.086 . S
C138 O134 1.278 . S
C138 O139 1.211 . S
O139 C138 1.211 . S
C140 O132 1.284 . S
C140 O141 1.273 . S
O141 C140 1.273 . S
O142 Zn133 1.977 . S
O142 C135 1.267 . S
C143 O144 1.160 . S
C143 O150 1.185 . S
O144 C143 1.160 . S
O145 Zn146 1.899 . S
O145 C153 1.284 . S
Zn146 O145 1.899 . S
Zn146 O147 2.032 . S
Zn146 O150 2.086 . S
Zn146 O155 1.977 . S
O147 Zn146 2.032 . S
O147 C151 1.278 . S
C148 O149 1.203 . S
C148 O155 1.267 . S
O149 C148 1.203 . S
O150 C143 1.185 . S
O150 Zn146 2.086 . S
C151 O147 1.278 . S
C151 O152 1.211 . S
O152 C151 1.211 . S
C153 O145 1.284 . S
C153 O154 1.273 . S
O154 C153 1.273 . S
O155 Zn146 1.977 . S
O155 C148 1.267 . S
C156 O157 1.160 . S
C156 O163 1.185 . S
O157 C156 1.160 . S
O158 Zn159 1.899 . S
O158 C166 1.284 . S
Zn159 O158 1.899 . S
Zn159 O160 2.032 . S
Zn159 O163 2.086 . S
Zn159 O168 1.977 . S
O160 Zn159 2.032 . S
O160 C164 1.278 . S
C161 O162 1.203 . S
C161 O168 1.267 . S
O162 C161 1.203 . S
O163 C156 1.185 . S
O163 Zn159 2.086 . S
C164 O160 1.278 . S
C164 O165 1.211 . S
O165 C164 1.211 . S
C166 O158 1.284 . S
C166 O167 1.273 . S
O167 C166 1.273 . S
O168 Zn159 1.977 . S
O168 C161 1.267 . S
C169 O170 1.160 . S
C169 O176 1.185 . S
O170 C169 1.160 . S
O171 Zn172 1.899 . S
O171 C179 1.284 . S
Zn172 O171 1.899 . S
Zn172 O173 2.032 . S
Zn172 O176 2.086 . S
Zn172 O181 1.977 . S
O173 Zn172 2.032 . S
O173 C177 1.278 . S
C174 O175 1.203 . S
C174 O181 1.267 . S
O175 C174 1.203 . S
O176 C169 1.185 . S
O176 Zn172 2.086 . S
C177 O173 1.278 . S
C177 O178 1.211 . S
O178 C177 1.211 . S
C179 O171 1.284 . S
C179 O180 1.273 . S
O180 C179 1.273 . S
O181 Zn172 1.977 . S
O181 C174 1.267 . S
C182 O183 1.160 . S
C182 O189 1.185 . S
O183 C182 1.160 . S
O184 Zn185 1.899 . S
O184 C192 1.284 . S
Zn185 O184 1.899 . S
Zn185 O186 2.032 . S
Zn185 O189 2.086 . S
Zn185 O194 1.977 . S
O186 Zn185 2.032 . S
O186 C190 1.278 . S
C187 O188 1.203 . S
C187 O194 1.267 . S
O188 C187 1.203 . S
O189 C182 1.185 . S
O189 Zn185 2.086 . S
C190 O186 1.278 . S
C190 O191 1.211 . S
O191 C190 1.211 . S
C192 O184 1.284 . S
C192 O193 1.273 . S
O193 C192 1.273 . S
O194 Zn185 1.977 . S
O194 C187 1.267 . S
C195 O196 1.160 . S
C195 O202 1.185 . S
O196 C195 1.160 . S
O197 Zn198 1.899 . S
O197 C205 1.284 . S
Zn198 O197 1.899 . S
Zn198 O199 2.032 . S
Zn198 O202 2.086 . S
Zn198 O207 1.977 . S
O199 Zn198 2.032 . S
O199 C203 1.278 . S
C200 O201 1.203 . S
C200 O207 1.267 . S
O201 C200 1.203 . S
O202 C195 1.185 . S
O202 Zn198 2.086 . S
C203 O199 1.278 . S
C203 O204 1.211 . S
O204 C203 1.211 . S
C205 O197 1.284 . S
C205 O206 1.273 . S
O206 C205 1.273 . S
O207 Zn198 1.977 . S
O207 C200 1.267 . S
C208 O209 1.160 . S
C208 O215 1.185 . S
O209 C208 1.160 . S
O210 Zn211 1.899 . S
O210 C218 1.284 . S
Zn211 O210 1.899 . S
Zn211 O212 2.032 . S
Zn211 O215 2.086 . S
Zn211 O220 1.977 . S
O212 Zn211 2.032 . S
O212 C216 1.278 . S
C213 O214 1.203 . S
C213 O220 1.267 . S
O214 C213 1.203 . S
O215 C208 1.185 . S
O215 Zn211 2.086 . S
C216 O212 1.278 . S
C216 O217 1.211 . S
O217 C216 1.211 . S
C218 O210 1.284 . S
C218 O219 1.273 . S
O219 C218 1.273 . S
O220 Zn211 1.977 . S
O220 C213 1.267 . S
C221 O222 1.160 . S
C221 O228 1.185 . S
O222 C221 1.160 . S
O223 Zn224 1.899 . S
O223 C231 1.284 . S
Zn224 O223 1.899 . S
Zn224 O225 2.032 . S
Zn224 O228 2.086 . S
Zn224 O233 1.977 . S
O225 Zn224 2.032 . S
O225 C229 1.278 . S
C226 O227 1.203 . S
C226 O233 1.267 . S
O227 C226 1.203 . S
O228 C221 1.185 . S
O228 Zn224 2.086 . S
C229 O225 1.278 . S
C229 O230 1.211 . S
O230 C229 1.211 . S
C231 O223 1.284 . S
C231 O232 1.273 . S
O232 C231 1.273 . S
O233 Zn224 1.977 . S
O233 C226 1.267 . S
C234 O235 1.160 . S
C234 O241 1.185 . S
O235 C234 1.160 . S
O236 Zn237 1.899 . S
O236 C244 1.284 . S
Zn237 O236 1.899 . S
Zn237 O238 2.032 . S
Zn237 O241 2.086 . S
Zn237 O246 1.977 . S
O238 Zn237 2.032 . S
O238 C242 1.278 . S
C239 O240 1.203 . S
C239 O246 1.267 . S
O240 C239 1.203 . S
O241 C234 1.185 . S
O241 Zn237 2.086 . S
C242 O238 1.278 . S
C242 O243 1.211 . S
O243 C242 1.211 . S
C244 O236 1.284 . S
C244 O245 1.273 . S
O245 C244 1.273 . S
O246 Zn237 1.977 . S
O246 C239 1.267 . S
C247 O248 1.160 . S
C247 O254 1.185 . S
O248 C247 1.160 . S
O249 Zn250 1.899 . S
O249 C257 1.284 . S
Zn250 O249 1.899 . S
Zn250 O251 2.032 . S
Zn250 O254 2.086 . S
Zn250 O259 1.977 . S
O251 Zn250 2.032 . S
O251 C255 1.278 . S
C252 O253 1.203 . S
C252 O259 1.267 . S
O253 C252 1.203 . S
O254 C247 1.185 . S
O254 Zn250 2.086 . S
C255 O251 1.278 . S
C255 O256 1.211 . S
O256 C255 1.211 . S
C257 O249 1.284 . S
C257 O258 1.273 . S
O258 C257 1.273 . S
O259 Zn250 1.977 . S
O259 C252 1.267 . S
C260 O261 1.160 . S
C260 O267 1.185 . S
O261 C260 1.160 . S
O262 Zn263 1.899 . S
O262 C270 1.284 . S
Zn263 O262 1.899 . S
Zn263 O264 2.032 . S
Zn263 O267 2.086 . S
Zn263 O272 1.977 . S
O264 Zn263 2.032 . S
O264 C268 1.278 . S
C265 O266 1.203 . S
C265 O272 1.267 . S
O266 C265 1.203 . S
O267 C260 1.185 . S
O267 Zn263 2.086 . S
C268 O264 1.278 . S
C268 O269 1.211 . S
O269 C268 1.211 . S
C270 O262 1.284 . S
C270 O271 1.273 . S
O271 C270 1.273 . S
O272 Zn263 1.977 . S
O272 C265 1.267 . S
C273 O274 1.160 . S
C273 O280 1.185 . S
O274 C273 1.160 . S
O275 Zn276 1.899 . S
O275 C283 1.284 . S
Zn276 O275 1.899 . S
Zn276 O277 2.032 . S
Zn276 O280 2.086 . S
Zn276 O285 1.977 . S
O277 Zn276 2.032 . S
O277 C281 1.278 . S
C278 O279 1.203 . S
C278 O285 1.267 . S
O279 C278 1.203 . S
O280 C273 1.185 . S
O280 Zn276 2.086 . S
C281 O277 1.278 . S
C281 O282 1.211 . S
O282 C281 1.211 . S
C283 O275 1.284 . S
C283 O284 1.273 . S
O284 C283 1.273 . S
O285 Zn276 1.977 . S
O285 C278 1.267 . S
C286 O287 1.160 . S
C286 O293 1.185 . S
O287 C286 1.160 . S
O288 Zn289 1.899 . S
O288 C296 1.284 . S
Zn289 O288 1.899 . S
Zn289 O290 2.032 . S
Zn289 O293 2.086 . S
Zn289 O298 1.977 . S
O290 Zn289 2.032 . S
O290 C294 1.278 . S
C291 O292 1.203 . S
C291 O298 1.267 . S
O292 C291 1.203 . S
O293 C286 1.185 . S
O293 Zn289 2.086 . S
C294 O290 1.278 . S
C294 O295 1.211 . S
O295 C294 1.211 . S
C296 O288 1.284 . S
C296 O297 1.273 . S
O297 C296 1.273 . S
O298 Zn289 1.977 . S
O298 C291 1.267 . S
C299 O300 1.160 . S
C299 O306 1.185 . S
O300 C299 1.160 . S
O301 Zn302 1.899 . S
O301 C309 1.284 . S
Zn302 O301 1.899 . S
Zn302 O303 2.032 . S
Zn302 O306 2.086 . S
Zn302 O311 1.977 . S
O303 Zn302 2.032 . S
O303 C307 1.278 . S
C304 O305 1.203 . S
C304 O311 1.267 . S
O305 C304 1.203 . S
O306 C299 1.185 . S
O306 Zn302 2.086 . S
C307 O303 1.278 . S
C307 O308 1.211 . S
O308 C307 1.211 . S
C309 O301 1.284 . S
C309 O310 1.273 . S
O310 C309 1.273 . S
O311 Zn302 1.977 . S
O311 C304 1.267 . S
C312 O313 1.160 . S
C312 O319 1.185 . S
O313 C312 1.160 . S
O314 Zn315 1.899 . S
O314 C322 1.284 . S
Zn315 O314 1.899 . S
Zn315 O316 2.032 . S
Zn315 O319 2.086 . S
Zn315 O324 1.977 . S
O316 Zn315 2.032 . S
O316 C320 1.278 . S
C317 O318 1.203 . S
C317 O324 1.267 . S
O318 C317 1.203 . S
O319 C312 1.185 . S
O319 Zn315 2.086 . S
C320 O316 1.278 . S
C320 O321 1.211 . S
O321 C320 1.211 . S
C322 O314 1.284 . S
C322 O323 1.273 . S
O323 C322 1.273 . S
O324 Zn315 1.977 . S
O324 C317 1.267 . S
C325 O326 1.160 . S
C325 O332 1.185 . S
O326 C325 1.160 . S
O327 Zn328 1.899 . S
O327 C335 1.284 . S
Zn328 O327 1.899 . S
Zn328 O329 2.032 . S
Zn328 O332 2.086 . S
Zn328 O337 1.977 . S
O329 Zn328 2.032 . S
O329 C333 1.278 . S
C330 O331 1.203 . S
C330 O337 1.267 . S
O331 C330 1.203 . S
O332 C325 1.185 . S
O332 Zn328 2.086 . S
C333 O329 1.278 . S
C333 O334 1.211 . S
O334 C333 1.211 . S
C335 O327 1.284 . S
C335 O336 1.273 . S
O336 C335 1.273 . S
O337 Zn328 1.977 . S
O337 C330 1.267 . S
C338 O339 1.160 . S
C338 O345 1.185 . S
O339 C338 1.160 . S
O340 Zn341 1.899 . S
O340 C348 1.284 . S
Zn341 O340 1.899 . S
Zn341 O342 2.032 . S
Zn341 O345 2.086 . S
Zn341 O350 1.977 . S
O342 Zn341 2.032 . S
O342 C346 1.278 . S
C343 O344 1.203 . S
C343 O350 1.267 . S
O344 C343 1.203 . S
O345 C338 1.185 . S
O345 Zn341 2.086 . S
C346 O342 1.278 . S
C346 O347 1.211 . S
O347 C346 1.211 . S
C348 O340 1.284 . S
C348 O349 1.273 . S
O349 C348 1.273 . S
O350 Zn341 1.977 . S
O350 C343 1.267 . S
C351 O352 1.160 . S
C351 O358 1.185 . S
O352 C351 1.160 . S
O353 Zn354 1.899 . S
O353 C361 1.284 . S
Zn354 O353 1.899 . S
Zn354 O355 2.032 . S
Zn354 O358 2.086 . S
Zn354 O363 1.977 . S
O355 Zn354 2.032 . S
O355 C359 1.278 . S
C356 O357 1.203 . S
C356 O363 1.267 . S
O357 C356 1.203 . S
O358 C351 1.185 . S
O358 Zn354 2.086 . S
C359 O355 1.278 . S
C359 O360 1.211 . S
O360 C359 1.211 . S
C361 O353 1.284 . S
C361 O362 1.273 . S
O362 C361 1.273 . S
O363 Zn354 1.977 . S
O363 C356 1.267 . S
C364 O365 1.160 . S
C364 O371 1.185 . S
O365 C364 1.160 . S
O366 Zn367 1.899 . S
O366 C374 1.284 . S
Zn367 O366 1.899 . S
Zn367 O368 2.032 . S
Zn367 O371 2.086 . S
Zn367 O376 1.977 . S
O368 Zn367 2.032 . S
O368 C372 1.278 . S
C369 O370 1.203 . S
C369 O376 1.267 . S
O370 C369 1.203 . S
O371 C364 1.185 . S
O371 Zn367 2.086 . S
C372 O368 1.278 . S
C372 O373 1.211 . S
O373 C372 1.211 . S
C374 O366 1.284 . S
C374 O375 1.273 . S
O375 C374 1.273 . S
O376 Zn367 1.977 . S
O376 C369 1.267 . S
C377 O378 1.160 . S
C377 O384 1.185 . S
O378 C377 1.160 . S
O379 Zn380 1.899 . S
O379 C387 1.284 . S
Zn380 O379 1.899 . S
Zn380 O381 2.032 . S
Zn380 O384 2.086 . S
Zn380 O389 1.977 . S
O381 Zn380 2.032 . S
O381 C385 1.278 . S
C382 O383 1.203 . S
C382 O389 1.267 . S
O383 C382 1.203 . S
O384 C377 1.185 . S
O384 Zn380 2.086 . S
C385 O381 1.278 . S
C385 O386 1.211 . S
O386 C385 1.211 . S
C387 O379 1.284 . S
C387 O388 1.273 . S
O388 C387 1.273 . S
O389 Zn380 1.977 . S
O389 C382 1.267 . S
C390 O391 1.160 . S
C390 O397 1.185 . S
O391 C390 1.160 . S
O392 Zn393 1.899 . S
O392 C400 1.284 . S
Zn393 O392 1.899 . S
Zn393 O394 2.032 . S
Zn393 O397 2.086 . S
Zn393 O402 1.977 . S
O394 Zn393 2.032 . S
O394 C398 1.278 . S
C395 O396 1.203 . S
C395 O402 1.267 . S
O396 C395 1.203 . S
O397 C390 1.185 . S
O397 Zn393 2.086 . S
C398 O394 1.278 . S
C398 O399 1.211 . S
O399 C398 1.211 . S
C400 O392 1.284 . S
C400 O401 1.273 . S
O401 C400 1.273 . S
O402 Zn393 1.977 . S
O402 C395 1.267 . S
C403 O404 1.160 . S
C403 O410 1.185 . S
O404 C403 1.160 . S
O405 Zn406 1.899 . S
O405 C413 1.284 . S
Zn406 O405 1.899 . S
Zn406 O407 2.032 . S
Zn406 O410 2.086 . S
Zn406 O415 1.977 . S
O407 Zn406 2.032 . S
O407 C411 1.278 . S
C408 O409 1.203 . S
C408 O415 1.267 . S
O409 C408 1.203 . S
O410 C403 1.185 . S
O410 Zn406 2.086 . S
C411 O407 1.278 . S
C411 O412 1.211 . S
O412 C411 1.211 . S
C413 O405 1.284 . S
C413 O414 1.273 . S
O414 C413 1.273 . S
O415 Zn406 1.977 . S
O415 C408 1.267 . S
C416 O417 1.160 . S
C416 O423 1.185 . S
O417 C416 1.160 . S
O418 Zn419 1.899 . S
O418 C426 1.284 . S
Zn419 O418 1.899 . S
Zn419 O420 2.032 . S
Zn419 O423 2.086 . S
Zn419 O428 1.977 . S
O420 Zn419 2.032 . S
O420 C424 1.278 . S
C421 O422 1.203 . S
C421 O428 1.267 . S
O422 C421 1.203 . S
O423 C416 1.185 . S
O423 Zn419 2.086 . S
C424 O420 1.278 . S
C424 O425 1.211 . S
O425 C424 1.211 . S
C426 O418 1.284 . S
C426 O427 1.273 . S
O427 C426 1.273 . S
O428 Zn419 1.977 . S
O428 C421 1.267 . S
C429 O430 1.160 . S
C429 O436 1.185 . S
O430 C429 1.160 . S
O431 Zn432 1.899 . S
O431 C439 1.284 . S
Zn432 O431 1.899 . S
Zn432 O433 2.032 . S
Zn432 O436 2.086 . S
Zn432 O441 1.977 . S
O433 Zn432 2.032 . S
O433 C437 1.278 . S
C434 O435 1.203 . S
C434 O441 1.267 . S
O435 C434 1.203 . S
O436 C429 1.185 . S
O436 Zn432 2.086 . S
C437 O433 1.278 . S
C437 O438 1.211 . S
O438 C437 1.211 . S
C439 O431 1.284 . S
C439 O440 1.273 . S
O440 C439 1.273 . S
O441 Zn432 1.977 . S
O441 C434 1.267 . S
C442 O443 1.160 . S
C442 O449 1.185 . S
O443 C442 1.160 . S
O444 Zn445 1.899 . S
O444 C452 1.284 . S
Zn445 O444 1.899 . S
Zn445 O446 2.032 . S
Zn445 O449 2.086 . S
Zn445 O454 1.977 . S
O446 Zn445 2.032 . S
O446 C450 1.278 . S
C447 O448 1.203 . S
C447 O454 1.267 . S
O448 C447 1.203 . S
O449 C442 1.185 . S
O449 Zn445 2.086 . S
C450 O446 1.278 . S
C450 O451 1.211 . S
O451 C450 1.211 . S
C452 O444 1.284 . S
C452 O453 1.273 . S
O453 C452 1.273 . S
O454 Zn445 1.977 . S
O454 C447 1.267 . S
C455 O456 1.160 . S
C455 O462 1.185 . S
O456 C455 1.160 . S
O457 Zn458 1.899 . S
O457 C465 1.284 . S
Zn458 O457 1.899 . S
Zn458 O459 2.032 . S
Zn458 O462 2.086 . S
Zn458 O467 1.977 . S
O459 Zn458 2.032 . S
O459 C463 1.278 . S
C460 O461 1.203 . S
C460 O467 1.267 . S
O461 C460 1.203 . S
O462 C455 1.185 . S
O462 Zn458 2.086 . S
C463 O459 1.278 . S
C463 O464 1.211 . S
O464 C463 1.211 . S
C465 O457 1.284 . S
C465 O466 1.273 . S
O466 C465 1.273 . S
O467 Zn458 1.977 . S
O467 C460 1.267 . S
C468 O469 1.160 . S
C468 O475 1.185 . S
O469 C468 1.160 . S
O470 Zn471 1.899 . S
O470 C478 1.284 . S
Zn471 O470 1.899 . S
Zn471 O472 2.032 . S
Zn471 O475 2.086 . S
Zn471 O480 1.977 . S
O472 Zn471 2.032 . S
O472 C476 1.278 . S
C473 O474 1.203 . S
C473 O480 1.267 . S
O474 C473 1.203 . S
O475 C468 1.185 . S
O475 Zn471 2.086 . S
C476 O472 1.278 . S
C476 O477 1.211 . S
O477 C476 1.211 . S
C478 O470 1.284 . S
C478 O479 1.273 . S
O479 C478 1.273 . S
O480 Zn471 1.977 . S
O480 C473 1.267 . S
C481 O482 1.160 . S
C481 O488 1.185 . S
O482 C481 1.160 . S
O483 Zn484 1.899 . S
O483 C491 1.284 . S
Zn484 O483 1.899 . S
Zn484 O485 2.032 . S
Zn484 O488 2.086 . S
Zn484 O493 1.977 . S
O485 Zn484 2.032 . S
O485 C489 1.278 . S
C486 O487 1.203 . S
C486 O493 1.267 . S
O487 C486 1.203 . S
O488 C481 1.185 . S
O488 Zn484 2.086 . S
C489 O485 1.278 . S
C489 O490 1.211 . S
O490 C489 1.211 . S
C491 O483 1.284 . S
C491 O492 1.273 . S
O492 C491 1.273 . S
O493 Zn484 1.977 . S
O493 C486 1.267 . S
C494 O495 1.160 . S
C494 O501 1.185 . S
O495 C494 1.160 . S
O496 Zn497 1.899 . S
O496 C504 1.284 . S
Zn497 O496 1.899 . S
Zn497 O498 2.032 . S
Zn497 O501 2.086 . S
Zn497 O506 1.977 . S
O498 Zn497 2.032 . S
O498 C502 1.278 . S
C499 O500 1.203 . S
C499 O506 1.267 . S
O500 C499 1.203 . S
O501 C494 1.185 . S
O501 Zn497 2.086 . S
C502 O498 1.278 . S
C502 O503 1.211 . S
O503 C502 1.211 . S
C504 O496 1.284 . S
C504 O505 1.273 . S
O505 C504 1.273 . S
O506 Zn497 1.977 . S
O506 C499 1.267 . S
C507 O508 1.160 . S
C507 O514 1.185 . S
O508 C507 1.160 . S
O509 Zn510 1.899 . S
O509 C517 1.284 . S
Zn510 O509 1.899 . S
Zn510 O511 2.032 . S
Zn510 O514 2.086 . S
Zn510 O519 1.977 . S
O511 Zn510 2.032 . S
O511 C515 1.278 . S
C512 O513 1.203 . S
C512 O519 1.267 . S
O513 C512 1.203 . S
O514 C507 1.185 . S
O514 Zn510 2.086 . S
C515 O511 1.278 . S
C515 O516 1.211 . S
O516 C515 1.211 . S
C517 O509 1.284 . S
C517 O518 1.273 . S
O518 C517 1.273 . S
O519 Zn510 1.977 . S
O519 C512 1.267 . S
C520 O521 1.160 . S
C520 O527 1.185 . S
O521 C520 1.160 . S
O522 Zn523 1.899 . S
O522 C530 1.284 . S
Zn523 O522 1.899 . S
Zn523 O524 2.032 . S
Zn523 O527 2.086 . S
Zn523 O532 1.977 . S
O524 Zn523 2.032 . S
O524 C528 1.278 . S
C525 O526 1.203 . S
C525 O532 1.267 . S
O526 C525 1.203 . S
O527 C520 1.185 . S
O527 Zn523 2.086 . S
C528 O524 1.278 . S
C528 O529 1.211 . S
O529 C528 1.211 . S
C530 O522 1.284 . S
C530 O531 1.273 . S
O531 C530 1.273 . S
O532 Zn523 1.977 . S
O532 C525 1.267 . S
C533 O534 1.160 . S
C533 O540 1.185 . S
O534 C533 1.160 . S
O535 Zn536 1.899 . S
O535 C543 1.284 . S
Zn536 O535 1.899 . S
Zn536 O537 2.032 . S
Zn536 O540 2.086 . S
Zn536 O545 1.977 . S
O537 Zn536 2.032 . S
O537 C541 1.278 . S
C538 O539 1.203 . S
C538 O545 1.267 . S
O539 C538 1.203 . S
O540 C533 1.185 . S
O540 Zn536 2.086 . S
C541 O537 1.278 . S
C541 O542 1.211 . S
O542 C541 1.211 . S
C543 O535 1.284 . S
C543 O544 1.273 . S
O544 C543 1.273 . S
O545 Zn536 1.977 . S
O545 C538 1.267 . S
C546 O547 1.160 . S
C546 O553 1.185 . S
O547 C546 1.160 . S
O548 Zn549 1.899 . S
O548 C556 1.284 . S
Zn549 O548 1.899 . S
Zn549 O550 2.032 . S
Zn549 O553 2.086 . S
Zn549 O558 1.977 . S
O550 Zn549 2.032 . S
O550 C554 1.278 . S
C551 O552 1.203 . S
C551 O558 1.267 . S
O552 C551 1.203 . S
O553 C546 1.185 . S
O553 Zn549 2.086 . S
C554 O550 1.278 . S
C554 O555 1.211 . S
O555 C554 1.211 . S
C556 O548 1.284 . S
C556 O557 1.273 . S
O557 C556 1.273 . S
O558 Zn549 1.977 . S
O558 C551 1.267 . S
C559 O560 1.160 . S
C559 O566 1.185 . S
O560 C559 1.160 . S
O561 Zn562 1.899 . S
O561 C569 1.284 . S
Zn562 O561 1.899 . S
Zn562 O563 2.032 . S
Zn562 O566 2.086 . S
Zn562 O571 1.977 . S
O563 Zn562 2.032 . S
O563 C567 1.278 . S
C564 O565 1.203 . S
C564 O571 1.267 . S
O565 C564 1.203 . S
O566 C559 1.185 . S
O566 Zn562 2.086 . S
C567 O563 1.278 . S
C567 O568 1.211 . S
O568 C567 1.211 . S
C569 O561 1.284 . S
C569 O570 1.273 . S
O570 C569 1.273 . S
O571 Zn562 1.977 . S
O571 C564 1.267 . S
C572 O573 1.160 . S
C572 O579 1.185 . S
O573 C572 1.160 . S
O574 Zn575 1.899 . S
O574 C582 1.284 . S
Zn575 O574 1.899 . S
Zn575 O576 2.032 . S
Zn575 O579 2.086 . S
Zn575 O584 1.977 . S
O576 Zn575 2.032 . S
O576 C580 1.278 . S
C577 O578 1.203 . S
C577 O584 1.267 . S
O578 C577 1.203 . S
O579 C572 1.185 . S
O579 Zn575 2.086 . S
C580 O576 1.278 . S
C580 O581 1.211 . S
O581 C580 1.211 . S
C582 O574 1.284 . S
C582 O583 1.273 . S
O583 C582 1.273 . S
O584 Zn575 1.977 . S
O584 C577 1.267 . S
C585 O586 1.160 . S
C585 O592 1.185 . S
O586 C585 1.160 . S
O587 Zn588 1.899 . S
O587 C595 1.284 . S
Zn588 O587 1.899 . S
Zn588 O589 2.032 . S
Zn588 O592 2.086 . S
Zn588 O597 1.977 . S
O589 Zn588 2.032 . S
O589 C593 1.278 . S
C590 O591 1.203 . S
C590 O597 1.267 . S
O591 C590 1.203 . S
O592 C585 1.185 . S
O592 Zn588 2.086 . S
C593 O589 1.278 . S
C593 O594 1.211 . S
O594 C593 1.211 . S
C595 O587 1.284 . S
C595 O596 1.273 . S
O596 C595 1.273 . S
O597 Zn588 1.977 . S
O597 C590 1.267 . S
C598 O599 1.160 . S
C598 O605 1.185 . S
O599 C598 1.160 . S
O600 Zn601 1.899 . S
O600 C608 1.284 . S
Zn601 O600 1.899 . S
Zn601 O602 2.032 . S
Zn601 O605 2.086 . S
Zn601 O610 1.977 . S
O602 Zn601 2.032 . S
O602 C606 1.278 . S
C603 O604 1.203 . S
C603 O610 1.267 . S
O604 C603 1.203 . S
O605 C598 1.185 . S
O605 Zn601 2.086 . S
C606 O602 1.278 . S
C606 O607 1.211 . S
O607 C606 1.211 . S
C608 O600 1.284 . S
C608 O609 1.273 . S
O609 C608 1.273 . S
O610 Zn601 1.977 . S
O610 C603 1.267 . S
C611 O612 1.160 . S
C611 O618 1.185 . S
O612 C611 1.160 . S
O613 Zn614 1.899 . S
O613 C621 1.284 . S
Zn614 O613 1.899 . S
Zn614 O615 2.032 . S
Zn614 O618 2.086 . S
Zn614 O623 1.977 . S
O615 Zn614 2.032 . S
O615 C619 1.278 . S
C616 O617 1.203 . S
C616 O623 1.267 . S
O617 C616 1.203 . S
O618 C611 1.185 . S
O618 Zn614 2.086 . S
C619 O615 1.278 . S
C619 O620 1.211 . S
O620 C619 1.211 . S
C621 O613 1.284 . S
C621 O622 1.273 . S
O622 C621 1.273 . S
O623 Zn614 1.977 . S
O623 C616 1.267 . S
C624 O625 1.160 . S
C624 O631 1.185 . S
O625 C624 1.160 . S
O626 Zn627 1.899 . S
O626 C634 1.284 . S
Zn627 O626 1.899 . S
Zn627 O628 2.032 . S
Zn627 O631 2.086 . S
Zn627 O636 1.977 . S
O628 Zn627 2.032 . S
O628 C632 1.278 . S
C629 O630 1.203 . S
C629 O636 1.267 . S
O630 C629 1.203 . S
O631 C624 1.185 . S
O631 Zn627 2.086 . S
C632 O628 1.278 . S
C632 O633 1.211 . S
O633 C632 1.211 . S
C634 O626 1.284 . S
C634 O635 1.273 . S
O635 C634 1.273 . S
O636 Zn627 1.977 . S
O636 C629 1.267 . S
C637 O638 1.160 . S
C637 O644 1.185 . S
O638 C637 1.160 . S
O639 Zn640 1.899 . S
O639 C647 1.284 . S
Zn640 O639 1.899 . S
Zn640 O641 2.032 . S
Zn640 O644 2.086 . S
Zn640 O649 1.977 . S
O641 Zn640 2.032 . S
O641 C645 1.278 . S
C642 O643 1.203 . S
C642 O649 1.267 . S
O643 C642 1.203 . S
O644 C637 1.185 . S
O644 Zn640 2.086 . S
C645 O641 1.278 . S
C645 O646 1.211 . S
O646 C645 1.211 . S
C647 O639 1.284 . S
C647 O648 1.273 . S
O648 C647 1.273 . S
O649 Zn640 1.977 . S
O649 C642 1.267 . S
C650 O651 1.160 . S
C650 O657 1.185 . S
O651 C650 1.160 . S
O652 Zn653 1.899 . S
O652 C660 1.284 . S
Zn653 O652 1.899 . S
Zn653 O654 2.032 . S
Zn653 O657 2.086 . S
Zn653 O662 1.977 . S
O654 Zn653 2.032 . S
O654 C658 1.278 . S
C655 O656 1.203 . S
C655 O662 1.267 . S
O656 C655 1.203 . S
O657 C650 1.185 . S
O657 Zn653 2.086 . S
C658 O654 1.278 . S
C658 O659 1.211 . S
O659 C658 1.211 . S
C660 O652 1.284 . S
C660 O661 1.273 . S
O661 C660 1.273 . S
O662 Zn653 1.977 . S
O662 C655 1.267 . S
C663 O664 1.160 . S
C663 O670 1.185 . S
O664 C663 1.160 . S
O665 Zn666 1.899 . S
O665 C673 1.284 . S
Zn666 O665 1.899 . S
Zn666 O667 2.032 . S
Zn666 O670 2.086 . S
Zn666 O675 1.977 . S
O667 Zn666 2.032 . S
O667 C671 1.278 . S
C668 O669 1.203 . S
C668 O675 1.267 . S
O669 C668 1.203 . S
O670 C663 1.185 . S
O670 Zn666 2.086 . S
C671 O667 1.278 . S
C671 O672 1.211 . S
O672 C671 1.211 . S
C673 O665 1.284 . S
C673 O674 1.273 . S
O674 C673 1.273 . S
O675 Zn666 1.977 . S
O675 C668 1.267 . S
C676 O677 1.160 . S
C676 O683 1.185 . S
O677 C676 1.160 . S
O678 Zn679 1.899 . S
O678 C686 1.284 . S
Zn679 O678 1.899 . S
Zn679 O680 2.032 . S
Zn679 O683 2.086 . S
Zn679 O688 1.977 . S
O680 Zn679 2.032 . S
O680 C684 1.278 . S
C681 O682 1.203 . S
C681 O688 1.267 . S
O682 C681 1.203 . S
O683 C676 1.185 . S
O683 Zn679 2.086 . S
C684 O680 1.278 . S
C684 O685 1.211 . S
O685 C684 1.211 . S
C686 O678 1.284 . S
C686 O687 1.273 . S
O687 C686 1.273 . S
O688 Zn679 1.977 . S
O688 C681 1.267 . S
C689 O690 1.160 . S
C689 O696 1.185 . S
O690 C689 1.160 . S
O691 Zn692 1.899 . S
O691 C699 1.284 . S
Zn692 O691 1.899 . S
Zn692 O693 2.032 . S
Zn692 O696 2.086 . S
Zn692 O701 1.977 . S
O693 Zn692 2.032 . S
O693 C697 1.278 . S
C694 O695 1.203 . S
C694 O701 1.267 . S
O695 C694 1.203 . S
O696 C689 1.185 . S
O696 Zn692 2.086 . S
C697 O693 1.278 . S
C697 O698 1.211 . S
O698 C697 1.211 . S
C699 O691 1.284 . S
C699 O700 1.273 . S
O700 C699 1.273 . S
O701 Zn692 1.977 . S
O701 C694 1.267 . S
C702 O703 1.160 . S
C702 O709 1.185 . S
O703 C702 1.160 . S
O704 Zn705 1.899 . S
O704 C712 1.284 . S
Zn705 O704 1.899 . S
Zn705 O706 2.032 . S
Zn705 O709 2.086 . S
Zn705 O714 1.977 . S
O706 Zn705 2.032 . S
O706 C710 1.278 . S
C707 O708 1.203 . S
C707 O714 1.267 . S
O708 C707 1.203 . S
O709 C702 1.185 . S
O709 Zn705 2.086 . S
C710 O706 1.278 . S
C710 O711 1.211 . S
O711 C710 1.211 . S
C712 O704 1.284 . S
C712 O713 1.273 . S
O713 C712 1.273 . S
O714 Zn705 1.977 . S
O714 C707 1.267 . S
C715 O716 1.160 . S
C715 O722 1.185 . S
O716 C715 1.160 . S
O717 Zn718 1.899 . S
O717 C725 1.284 . S
Zn718 O717 1.899 . S
Zn718 O719 2.032 . S
Zn718 O722 2.086 . S
Zn718 O727 1.977 . S
O719 Zn718 2.032 . S
O719 C723 1.278 . S
C720 O721 1.203 . S
C720 O727 1.267 . S
O721 C720 1.203 . S
O722 C715 1.185 . S
O722 Zn718 2.086 . S
C723 O719 1.278 . S
C723 O724 1.211 . S
O724 C723 1.211 . S
C725 O717 1.284 . S
C725 O726 1.273 . S
O726 C725 1.273 . S
O727 Zn718 1.977 . S
O727 C720 1.267 . S
C728 O729 1.160 . S
C728 O735 1.185 . S
O729 C728 1.160 . S
O730 Zn731 1.899 . S
O730 C738 1.284 . S
Zn731 O730 1.899 . S
Zn731 O732 2.032 . S
Zn731 O735 2.086 . S
Zn731 O740 1.977 . S
O732 Zn731 2.032 . S
O732 C736 1.278 . S
C733 O734 1.203 . S
C733 O740 1.267 . S
O734 C733 1.203 . S
O735 C728 1.185 . S
O735 Zn731 2.086 . S
C736 O732 1.278 . S
C736 O737 1.211 . S
O737 C736 1.211 . S
C738 O730 1.284 . S
C738 O739 1.273 . S
O739 C738 1.273 . S
O740 Zn731 1.977 . S
O740 C733 1.267 . S
C741 O742 1.160 . S
C741 O748 1.185 . S
O742 C741 1.160 . S
O743 Zn744 1.899 . S
O743 C751 1.284 . S
Zn744 O743 1.899 . S
Zn744 O745 2.032 . S
Zn744 O748 2.086 . S
Zn744 O753 1.977 . S
O745 Zn744 2.032 . S
O745 C749 1.278 . S
C746 O747 1.203 . S
C746 O753 1.267 . S
O747 C746 1.203 . S
O748 C741 1.185 . S
O748 Zn744 2.086 . S
C749 O745 1.278 . S
C749 O750 1.211 . S
O750 C749 1.211 . S
C751 O743 1.284 . S
C751 O752 1.273 . S
O752 C751 1.273 . S
O753 Zn744 1.977 . S
O753 C746 1.267 . S
C754 O755 1.160 . S
C754 O761 1.185 . S
O755 C754 1.160 . S
O756 Zn757 1.899 . S
O756 C764 1.284 . S
Zn757 O756 1.899 . S
Zn757 O758 2.032 . S
Zn757 O761 2.086 . S
Zn757 O766 1.977 . S
O758 Zn757 2.032 . S
O758 C762 1.278 . S
C759 O760 1.203 . S
C759 O766 1.267 . S
O760 C759 1.203 . S
O761 C754 1.185 . S
O761 Zn757 2.086 . S
C762 O758 1.278 . S
C762 O763 1.211 . S
O763 C762 1.211 . S
C764 O756 1.284 . S
C764 O765 1.273 . S
O765 C764 1.273 . S
O766 Zn757 1.977 . S
O766 C759 1.267 . S
C767 O768 1.160 . S
C767 O774 1.185 . S
O768 C767 1.160 . S
O769 Zn770 1.899 . S
O769 C777 1.284 . S
Zn770 O769 1.899 . S
Zn770 O771 2.032 . S
Zn770 O774 2.086 . S
Zn770 O779 1.977 . S
O771 Zn770 2.032 . S
O771 C775 1.278 . S
C772 O773 1.203 . S
C772 O779 1.267 . S
O773 C772 1.203 . S
O774 C767 1.185 . S
O774 Zn770 2.086 . S
C775 O771 1.278 . S
C775 O776 1.211 . S
O776 C775 1.211 . S
C777 O769 1.284 . S
C777 O778 1.273 . S
O778 C777 1.273 . S
O779 Zn770 1.977 . S
O779 C772 1.267 . S
C780 O781 1.160 . S
C780 O787 1.185 . S
O781 C780 1.160 . S
O782 Zn783 1.899 . S
O782 C790 1.284 . S
Zn783 O782 1.899 . S
Zn783 O784 2.032 . S
Zn783 O787 2.086 . S
Zn783 O792 1.977 . S
O784 Zn783 2.032 . S
O784 C788 1.278 . S
C785 O786 1.203 . S
C785 O792 1.267 . S
O786 C785 1.203 . S
O787 C780 1.185 . S
O787 Zn783 2.086 . S
C788 O784 1.278 . S
C788 O789 1.211 . S
O789 C788 1.211 . S
C790 O782 1.284 . S
C790 O791 1.273 . S
O791 C790 1.273 . S
O792 Zn783 1.977 . S
O792 C785 1.267 . S
C793 O794 1.160 . S
C793 O800 1.185 . S
O794 C793 1.160 . S
O795 Zn796 1.899 . S
O795 C803 1.284 . S
Zn796 O795 1.899 . S
Zn796 O797 2.032 . S
Zn796 O800 2.086 . S
Zn796 O805 1.977 . S
O797 Zn796 2.032 . S
O797 C801 1.278 . S
C798 O799 1.203 . S
C798 O805 1.267 . S
O799 C798 1.203 . S
O800 C793 1.185 . S
O800 Zn796 2.086 . S
C801 O797 1.278 . S
C801 O802 1.211 . S
O802 C801 1.211 . S
C803 O795 1.284 . S
C803 O804 1.273 . S
O804 C803 1.273 . S
O805 Zn796 1.977 . S
O805 C798 1.267 . S
C806 O807 1.160 . S
C806 O813 1.185 . S
O807 C806 1.160 . S
O808 Zn809 1.899 . S
O808 C816 1.284 . S
Zn809 O808 1.899 . S
Zn809 O810 2.032 . S
Zn809 O813 2.086 . S
Zn809 O818 1.977 . S
O810 Zn809 2.032 . S
O810 C814 1.278 . S
C811 O812 1.203 . S
C811 O818 1.267 . S
O812 C811 1.203 . S
O813 C806 1.185 . S
O813 Zn809 2.086 . S
C814 O810 1.278 . S
C814 O815 1.211 . S
O815 C814 1.211 . S
C816 O808 1.284 . S
C816 O817 1.273 . S
O817 C816 1.273 . S
O818 Zn809 1.977 . S
O818 C811 1.267 . S
C819 O820 1.160 . S
C819 O826 1.185 . S
O820 C819 1.160 . S
O821 Zn822 1.899 . S
O821 C829 1.284 . S
Zn822 O821 1.899 . S
Zn822 O823 2.032 . S
Zn822 O826 2.086 . S
Zn822 O831 1.977 . S
O823 Zn822 2.032 . S
O823 C827 1.278 . S
C824 O825 1.203 . S
C824 O831 1.267 . S
O825 C824 1.203 . S
O826 C819 1.185 . S
O826 Zn822 2.086 . S
C827 O823 1.278 . S
C827 O828 1.211 . S
O828 C827 1.211 . S
C829 O821 1.284 . S
C829 O830 1.273 . S
O830 C829 1.273 . S
O831 Zn822 1.977 . S
O831 C824 1.267 . S
C832 O833 1.160 . S
C832 O839 1.185 . S
O833 C832 1.160 . S
O834 Zn835 1.899 . S
O834 C842 1.284 . S
Zn835 O834 1.899 . S
Zn835 O836 2.032 . S
Zn835 O839 2.086 . S
Zn835 O844 1.977 . S
O836 Zn835 2.032 . S
O836 C840 1.278 . S
C837 O838 1.203 . S
C837 O844 1.267 . S
O838 C837 1.203 . S
O839 C832 1.185 . S
O839 Zn835 2.086 . S
C840 O836 1.278 . S
C840 O841 1.211 . S
O841 C840 1.211 . S
C842 O834 1.284 . S
C842 O843 1.273 . S
O843 C842 1.273 . S
O844 Zn835 1.977 . S
O844 C837 1.267 . S
C845 O846 1.160 . S
C845 O852 1.185 . S
O846 C845 1.160 . S
O847 Zn848 1.899 . S
O847 C855 1.284 . S
Zn848 O847 1.899 . S
Zn848 O849 2.032 . S
Zn848 O852 2.086 . S
Zn848 O857 1.977 . S
O849 Zn848 2.032 . S
O849 C853 1.278 . S
C850 O851 1.203 . S
C850 O857 1.267 . S
O851 C850 1.203 . S
O852 C845 1.185 . S
O852 Zn848 2.086 . S
C853 O849 1.278 . S
C853 O854 1.211 . S
O854 C853 1.211 . S
C855 O847 1.284 . S
C855 O856 1.273 . S
O856 C855 1.273 . S
O857 Zn848 1.977 . S
O857 C850 1.267 . S
C858 O859 1.160 . S
C858 O865 1.185 . S
O859 C858 1.160 . S
O860 Zn861 1.899 . S
O860 C868 1.284 . S
Zn861 O860 1.899 . S
Zn861 O862 2.032 . S
Zn861 O865 2.086 . S
Zn861 O870 1.977 . S
O862 Zn861 2.032 . S
O862 C866 1.278 . S
C863 O864 1.203 . S
C863 O870 1.267 . S
O864 C863 1.203 . S
O865 C858 1.185 . S
O865 Zn861 2.086 . S
C866 O862 1.278 . S
C866 O867 1.211 . S
O867 C866 1.211 . S
C868 O860 1.284 . S
C868 O869 1.273 . S
O869 C868 1.273 . S
O870 Zn861 1.977 . S
O870 C863 1.267 . S
C871 O872 1.160 . S
C871 O878 1.185 . S
O872 C871 1.160 . S
O873 Zn874 1.899 . S
O873 C881 1.284 . S
Zn874 O873 1.899 . S
Zn874 O875 2.032 . S
Zn874 O878 2.086 . S
Zn874 O883 1.977 . S
O875 Zn874 2.032 . S
O875 C879 1.278 . S
C876 O877 1.203 . S
C876 O883 1.267 . S
O877 C876 1.203 . S
O878 C871 1.185 . S
O878 Zn874 2.086 . S
C879 O875 1.278 . S
C879 O880 1.211 . S
O880 C879 1.211 . S
C881 O873 1.284 . S
C881 O882 1.273 . S
O882 C881 1.273 . S
O883 Zn874 1.977 . S
O883 C876 1.267 . S
C884 O885 1.160 . S
C884 O891 1.185 . S
O885 C884 1.160 . S
O886 Zn887 1.899 . S
O886 C894 1.284 . S
Zn887 O886 1.899 . S
Zn887 O888 2.032 . S
Zn887 O891 2.086 . S
Zn887 O896 1.977 . S
O888 Zn887 2.032 . S
O888 C892 1.278 . S
C889 O890 1.203 . S
C889 O896 1.267 . S
O890 C889 1.203 . S
O891 C884 1.185 . S
O891 Zn887 2.086 . S
C892 O888 1.278 . S
C892 O893 1.211 . S
O893 C892 1.211 . S
C894 O886 1.284 . S
C894 O895 1.273 . S
O895 C894 1.273 . S
O896 Zn887 1.977 . S
O896 C889 1.267 . S
C897 O898 1.160 . S
C897 O904 1.185 . S
O898 C897 1.160 . S
O899 Zn900 1.899 . S
O899 C907 1.284 . S
Zn900 O899 1.899 . S
Zn900 O901 2.032 . S
Zn900 O904 2.086 . S
Zn900 O909 1.977 . S
O901 Zn900 2.032 . S
O901 C905 1.278 . S
C902 O903 1.203 . S
C902 O909 1.267 . S
O903 C902 1.203 . S
O904 C897 1.185 . S
O904 Zn900 2.086 . S
C905 O901 1.278 . S
C905 O906 1.211 . S
O906 C905 1.211 . S
C907 O899 1.284 . S
C907 O908 1.273 . S
O908 C907 1.273 . S
O909 Zn900 1.977 . S
O909 C902 1.267 . S
C910 O911 1.160 . S
C910 O917 1.185 . S
O911 C910 1.160 . S
O912 Zn913 1.899 . S
O912 C920 1.284 . S
Zn913 O912 1.899 . S
Zn913 O914 2.032 . S
Zn913 O917 2.086 . S
Zn913 O922 1.977 . S
O914 Zn913 2.032 . S
O914 C918 1.278 . S
C915 O916 1.203 . S
C915 O922 1.267 . S
O916 C915 1.203 . S
O917 C910 1.185 . S
O917 Zn913 2.086 . S
C918 O914 1.278 . S
C918 O919 1.211 . S
O919 C918 1.211 . S
C920 O912 1.284 . S
C920 O921 1.273 . S
O921 C920 1.273 . S
O922 Zn913 1.977 . S
O922 C915 1.267 . S
C923 O924 1.160 . S
C923 O930 1.185 . S
O924 C923 1.160 . S
O925 Zn926 1.899 . S
O925 C933 1.284 . S
Zn926 O925 1.899 . S
Zn926 O927 2.032 . S
Zn926 O930 2.086 . S
Zn926 O935 1.977 . S
O927 Zn926 2.032 . S
O927 C931 1.278 . S
C928 O929 1.203 . S
C928 O935 1.267 . S
O929 C928 1.203 . S
O930 C923 1.185 . S
O930 Zn926 2.086 . S
C931 O927 1.278 . S
C931 O932 1.211 . S
O932 C931 1.211 . S
C933 O925 1.284 . S
C933 O934 1.273 . S
O934 C933 1.273 . S
O935 Zn926 1.977 . S
O935 C928 1.267 . S
C936 O937 1.160 . S
C936 O943 1.185 . S
O937 C936 1.160 . S
O938 Zn939 1.899 . S
O938 C946 1.284 . S
Zn939 O938 1.899 . S
Zn939 O940 2.032 . S
Zn939 O943 2.086 . S
Zn939 O948 1.977 . S
O940 Zn939 2.032 . S
O940 C944 1.278 . S
C941 O942 1.203 . S
C941 O948 1.267 . S
O942 C941 1.203 . S
O943 C936 1.185 . S
O943 Zn939 2.086 . S
C944 O940 1.278 . S
C944 O945 1.211 . S
O945 C944 1.211 . S
C946 O938 1.284 . S
C946 O947 1.273 . S
O947 C946 1.273 . S
O948 Zn939 1.977 . S
O948 C941 1.267 . S
C949 O950 1.160 . S
C949 O956 1.185 . S
O950 C949 1.160 . S
O951 Zn952 1.899 . S
O951 C959 1.284 . S
Zn952 O951 1.899 . S
Zn952 O953 2.032 . S
Zn952 O956 2.086 . S
Zn952 O961 1.977 . S
O953 Zn952 2.032 . S
O953 C957 1.278 . S
C954 O955 1.203 . S
C954 O961 1.267 . S
O955 C954 1.203 . S
O956 C949 1.185 . S
O956 Zn952 2.086 . S
C957 O953 1.278 . S
C957 O958 1.211 . S
O958 C957 1.211 . S
C959 O951 1.284 . S
C959 O960 1.273 . S
O960 C959 1.273 . S
O961 Zn952 1.977 . S
O961 C954 1.267 . S
C962 O963 1.160 . S
C962 O969 1.185 . S
O963 C962 1.160 . S
O964 Zn965 1.899 . S
O964 C972 1.284 . S
Zn965 O964 1.899 . S
Zn965 O966 2.032 . S
Zn965 O969 2.086 . S
Zn965 O974 1.977 . S
O966 Zn965 2.032 . S
O966 C970 1.278 . S
C967 O968 1.203 . S
C967 O974 1.267 . S
O968 C967 1.203 . S
O969 C962 1.185 . S
O969 Zn965 2.086 . S
C970 O966 1.278 . S
C970 O971 1.211 . S
O971 C970 1.211 . S
C972 O964 1.284 . S
C972 O973 1.273 . S
O973 C972 1.273 . S
O974 Zn965 1.977 . S
O974 C967 1.267 . S
C975 O976 1.160 . S
C975 O982 1.185 . S
O976 C975 1.160 . S
O977 Zn978 1.899 . S
O977 C985 1.284 . S
Zn978 O977 1.899 . S
Zn978 O979 2.032 . S
Zn978 O982 2.086 . S
Zn978 O987 1.977 . S
O979 Zn978 2.032 . S
O979 C983 1.278 . S
C980 O981 1.203 . S
C980 O987 1.267 . S
O981 C980 1.203 . S
O982 C975 1.185 . S
O982 Zn978 2.086 . S
C983 O979 1.278 . S
C983 O984 1.211 . S
O984 C983 1.211 . S
C985 O977 1.284 . S
C985 O986 1.273 . S
O986 C985 1.273 . S
O987 Zn978 1.977 . S
O987 C980 1.267 . S
C988 O989 1.160 . S
C988 O995 1.185 . S
O989 C988 1.160 . S
O990 Zn991 1.899 . S
O990 C998 1.284 . S
Zn991 O990 1.899 . S
Zn991 O992 2.032 . S
Zn991 O995 2.086 . S
Zn991 O1000 1.977 . S
O992 Zn991 2.032 . S
O992 C996 1.278 . S
C993 O994 1.203 . S
C993 O1000 1.267 . S
O994 C993 1.203 . S
O995 C988 1.185 . S
O995 Zn991 2.086 . S
C996 O992 1.278 . S
C996 O997 1.211 . S
O997 C996 1.211 . S
C998 O990 1.284 . S
C998 O999 1.273 . S
O999 C998 1.273 . S
O1000 Zn991 1.977 . S
O1000 C993 1.267 . S
C1001 O1002 1.160 . S
C1001 O1008 1.185 . S
O1002 C1001 1.160 . S
O1003 Zn1004 1.899 . S
O1003 C1011 1.284 . S
Zn1004 O1003 1.899 . S
Zn1004 O1005 2.032 . S
Zn1004 O1008 2.086 . S
Zn1004 O1013 1.977 . S
O1005 Zn1004 2.032 . S
O1005 C1009 1.278 . S
C1006 O1007 1.203 . S
C1006 O1013 1.267 . S
O1007 C1006 1.203 . S
O1008 C1001 1.185 . S
O1008 Zn1004 2.086 . S
C1009 O1005 1.278 . S
C1009 O1010 1.211 . S
O1010 C1009 1.211 . S
C1011 O1003 1.284 . S
C1011 O1012 1.273 . S
O1012 C1011 1.273 . S
O1013 Zn1004 1.977 . S
O1013 C1006 1.267 . S
C1014 O1015 1.160 . S
C1014 O1021 1.185 . S
O1015 C1014 1.160 . S
O1016 Zn1017 1.899 . S
O1016 C1024 1.284 . S
Zn1017 O1016 1.899 . S
Zn1017 O1018 2.032 . S
Zn1017 O1021 2.086 . S
Zn1017 O1026 1.977 . S
O1018 Zn1017 2.032 . S
O1018 C1022 1.278 . S
C1019 O1020 1.203 . S
C1019 O1026 1.267 . S
O1020 C1019 1.203 . S
O1021 C1014 1.185 . S
O1021 Zn1017 2.086 . S
C1022 O1018 1.278 . S
C1022 O1023 1.211 . S
O1023 C1022 1.211 . S
C1024 O1016 1.284 . S
C1024 O1025 1.273 . S
O1025 C1024 1.273 . S
O1026 Zn1017 1.977 . S
O1026 C1019 1.267 . S
C1027 O1028 1.160 . S
C1027 O1034 1.185 . S
O1028 C1027 1.160 . S
O1029 Zn1030 1.899 . S
O1029 C1037 1.284 . S
Zn1030 O1029 1.899 . S
Zn1030 O1031 2.032 . S
Zn1030 O1034 2.086 . S
Zn1030 O1039 1.977 . S
O1031 Zn1030 2.032 . S
O1031 C1035 1.278 . S
C1032 O1033 1.203 . S
C1032 O1039 1.267 . S
O1033 C1032 1.203 . S
O1034 C1027 1.185 . S
O1034 Zn1030 2.086 . S
C1035 O1031 1.278 . S
C1035 O1036 1.211 . S
O1036 C1035 1.211 . S
C1037 O1029 1.284 . S
C1037 O1038 1.273 . S
O1038 C1037 1.273 . S
O1039 Zn1030 1.977 . S
O1039 C1032 1.267 . S
C1040 O1041 1.160 . S
C1040 O1047 1.185 . S
O1041 C1040 1.160 . S
O1042 Zn1043 1.899 . S
O1042 C1050 1.284 . S
Zn1043 O1042 1.899 . S
Zn1043 O1044 2.032 . S
Zn1043 O1047 2.086 . S
Zn1043 O1052 1.977 . S
O1044 Zn1043 2.032 . S
O1044 C1048 1.278 . S
C1045 O1046 1.203 . S
C1045 O1052 1.267 . S
O1046 C1045 1.203 . S
O1047 C1040 1.185 . S
O1047 Zn1043 2.086 . S
C1048 O1044 1.278 . S
C1048 O1049 1.211 . S
O1049 C1048 1.211 . S
C1050 O1042 1.284 . S
C1050 O1051 1.273 . S
O1051 C1050 1.273 . S
O1052 Zn1043 1.977 . S
O1052 C1045 1.267 . S
C1053 O1054 1.160 . S
C1053 O1060 1.185 . S
O1054 C1053 1.160 . S
O1055 Zn1056 1.899 . S
O1055 C1063 1.284 . S
Zn1056 O1055 1.899 . S
Zn1056 O1057 2.032 . S
Zn1056 O1060 2.086 . S
Zn1056 O1065 1.977 . S
O1057 Zn1056 2.032 . S
O1057 C1061 1.278 . S
C1058 O1059 1.203 . S
C1058 O1065 1.267 . S
O1059 C1058 1.203 . S
O1060 C1053 1.185 . S
O1060 Zn1056 2.086 . S
C1061 O1057 1.278 . S
C1061 O1062 1.211 . S
O1062 C1061 1.211 . S
C1063 O1055 1.284 . S
C1063 O1064 1.273 . S
O1064 C1063 1.273 . S
O1065 Zn1056 1.977 . S
O1065 C1058 1.267 . S
C1066 O1067 1.160 . S
C1066 O1073 1.185 . S
O1067 C1066 1.160 . S
O1068 Zn1069 1.899 . S
O1068 C1076 1.284 . S
Zn1069 O1068 1.899 . S
Zn1069 O1070 2.032 . S
Zn1069 O1073 2.086 . S
Zn1069 O1078 1.977 . S
O1070 Zn1069 2.032 . S
O1070 C1074 1.278 . S
C1071 O1072 1.203 . S
C1071 O1078 1.267 . S
O1072 C1071 1.203 . S
O1073 C1066 1.185 . S
O1073 Zn1069 2.086 . S
C1074 O1070 1.278 . S
C1074 O1075 1.211 . S
O1075 C1074 1.211 . S
C1076 O1068 1.284 . S
C1076 O1077 1.273 . S
O1077 C1076 1.273 . S
O1078 Zn1069 1.977 . S
O1078 C1071 1.267 . S
C1079 O1080 1.160 . S
C1079 O1086 1.185 . S
O1080 C1079 1.160 . S
O1081 Zn1082 1.899 . S
O1081 C1089 1.284 . S
Zn1082 O1081 1.899 . S
Zn1082 O1083 2.032 . S
Zn1082 O1086 2.086 . S
Zn1082 O1091 1.977 . S
O1083 Zn1082 2.032 . S
O1083 C1087 1.278 . S
C1084 O1085 1.203 . S
C1084 O1091 1.267 . S
O1085 C1084 1.203 . S
O1086 C1079 1.185 . S
O1086 Zn1082 2.086 . S
C1087 O1083 1.278 . S
C1087 O1088 1.211 . S
O1088 C1087 1.211 . S
C1089 O1081 1.284 . S
C1089 O1090 1.273 . S
O1090 C1089 1.273 . S
O1091 Zn1082 1.977 . S
O1091 C1084 1.267 . S
C1092 O1093 1.160 . S
C1092 O1099 1.185 . S
O1093 C1092 1.160 . S
O1094 Zn1095 1.899 . S
O1094 C1102 1.284 . S
Zn1095 O1094 1.899 . S
Zn1095 O1096 2.032 . S
Zn1095 O1099 2.086 . S
Zn1095 O1104 1.977 . S
O1096 Zn1095 2.032 . S
O1096 C1100 1.278 . S
C1097 O1098 1.203 . S
C1097 O1104 1.267 . S
O1098 C1097 1.203 . S
O1099 C1092 1.185 . S
O1099 Zn1095 2.086 . S
C1100 O1096 1.278 . S
C1100 O1101 1.211 . S
O1101 C1100 1.211 . S
C1102 O1094 1.284 . S
C1102 O1103 1.273 . S
O1103 C1102 1.273 . S
O1104 Zn1095 1.977 . S
O1104 C1097 1.267 . S
C1105 O1106 1.160 . S
C1105 O1112 1.185 . S
O1106 C1105 1.160 . S
O1107 Zn1108 1.899 . S
O1107 C1115 1.284 . S
Zn1108 O1107 1.899 . S
Zn1108 O1109 2.032 . S
Zn1108 O1112 2.086 . S
Zn1108 O1117 1.977 . S
O1109 Zn1108 2.032 . S
O1109 C1113 1.278 . S
C1110 O1111 1.203 . S
C1110 O1117 1.267 . S
O1111 C1110 1.203 . S
O1112 C1105 1.185 . S
O1112 Zn1108 2.086 . S
C1113 O1109 1.278 . S
C1113 O1114 1.211 . S
O1114 C1113 1.211 . S
C1115 O1107 1.284 . S
C1115 O1116 1.273 . S
O1116 C1115 1.273 . S
O1117 Zn1108 1.977 . S
O1117 C1110 1.267 . S
C1118 O1119 1.160 . S
C1118 O1125 1.185 . S
O1119 C1118 1.160 . S
O1120 Zn1121 1.899 . S
O1120 C1128 1.284 . S
Zn1121 O1120 1.899 . S
Zn1121 O1122 2.032 . S
Zn1121 O1125 2.086 . S
Zn1121 O1130 1.977 . S
O1122 Zn1121 2.032 . S
O1122 C1126 1.278 . S
C1123 O1124 1.203 . S
C1123 O1130 1.267 . S
O1124 C1123 1.203 . S
O1125 C1118 1.185 . S
O1125 Zn1121 2.086 . S
C1126 O1122 1.278 . S
C1126 O1127 1.211 . S
O1127 C1126 1.211 . S
C1128 O1120 1.284 . S
C1128 O1129 1.273 . S
O1129 C1128 1.273 . S
O1130 Zn1121 1.977 . S
O1130 C1123 1.267 . S
C1131 O1132 1.160 . S
C1131 O1138 1.185 . S
O1132 C1131 1.160 . S
O1133 Zn1134 1.899 . S
O1133 C1141 1.284 . S
Zn1134 O1133 1.899 . S
Zn1134 O1135 2.032 . S
Zn1134 O1138 2.086 . S
Zn1134 O1143 1.977 . S
O1135 Zn1134 2.032 . S
O1135 C1139 1.278 . S
C1136 O1137 1.203 . S
C1136 O1143 1.267 . S
O1137 C1136 1.203 . S
O1138 C1131 1.185 . S
O1138 Zn1134 2.086 . S
C1139 O1135 1.278 . S
C1139 O1140 1.211 . S
O1140 C1139 1.211 . S
C1141 O1133 1.284 . S
C1141 O1142 1.273 . S
O1142 C1141 1.273 . S
O1143 Zn1134 1.977 . S
O1143 C1136 1.267 . S
C1144 O1145 1.160 . S
C1144 O1151 1.185 . S
O1145 C1144 1.160 . S
O1146 Zn1147 1.899 . S
O1146 C1154 1.284 . S
Zn1147 O1146 1.899 . S
Zn1147 O1148 2.032 . S
Zn1147 O1151 2.086 . S
Zn1147 O1156 1.977 . S
O1148 Zn1147 2.032 . S
O1148 C1152 1.278 . S
C1149 O1150 1.203 . S
C1149 O1156 1.267 . S
O1150 C1149 1.203 . S
O1151 C1144 1.185 . S
O1151 Zn1147 2.086 . S
C1152 O1148 1.278 . S
C1152 O1153 1.211 . S
O1153 C1152 1.211 . S
C1154 O1146 1.284 . S
C1154 O1155 1.273 . S
O1155 C1154 1.273 . S
O1156 Zn1147 1.977 . S
O1156 C1149 1.267 . S
C1157 O1158 1.160 . S
C1157 O1164 1.185 . S
O1158 C1157 1.160 . S
O1159 Zn1160 1.899 . S
O1159 C1167 1.284 . S
Zn1160 O1159 1.899 . S
Zn1160 O1161 2.032 . S
Zn1160 O1164 2.086 . S
Zn1160 O1169 1.977 . S
O1161 Zn1160 2.032 . S
O1161 C1165 1.278 . S
C1162 O1163 1.203 . S
C1162 O1169 1.267 . S
O1163 C1162 1.203 . S
O1164 C1157 1.185 . S
O1164 Zn1160 2.086 . S
C1165 O1161 1.278 . S
C1165 O1166 1.211 . S
O1166 C1165 1.211 . S
C1167 O1159 1.284 . S
C1167 O1168 1.273 . S
O1168 C1167 1.273 . S
O1169 Zn1160 1.977 . S
O1169 C1162 1.267 . S
C1170 O1171 1.160 . S
C1170 O1177 1.185 . S
O1171 C1170 1.160 . S
O1172 Zn1173 1.899 . S
O1172 C1180 1.284 . S
Zn1173 O1172 1.899 . S
Zn1173 O1174 2.032 . S
Zn1173 O1177 2.086 . S
Zn1173 O1182 1.977 . S
O1174 Zn1173 2.032 . S
O1174 C1178 1.278 . S
C1175 O1176 1.203 . S
C1175 O1182 1.267 . S
O1176 C1175 1.203 . S
O1177 C1170 1.185 . S
O1177 Zn1173 2.086 . S
C1178 O1174 1.278 . S
C1178 O1179 1.211 . S
O1179 C1178 1.211 . S
C1180 O1172 1.284 . S
C1180 O1181 1.273 . S
O1181 C1180 1.273 . S
O1182 Zn1173 1.977 . S
O1182 C1175 1.267 . S
C1183 O1184 1.160 . S
C1183 O1190 1.185 . S
O1184 C1183 1.160 . S
O1185 Zn1186 1.899 . S
O1185 C1193 1.284 . S
Zn1186 O1185 1.899 . S
Zn1186 O1187 2.032 . S
Zn1186 O1190 2.086 . S
Zn1186 O1195 1.977 . S
O1187 Zn1186 2.032 . S
O1187 C1191 1.278 . S
C1188 O1189 1.203 . S
C1188 O1195 1.267 . S
O1189 C1188 1.203 . S
O1190 C1183 1.185 . S
O1190 Zn1186 2.086 . S
C1191 O1187 1.278 . S
C1191 O1192 1.211 . S
O1192 C1191 1.211 . S
C1193 O1185 1.284 . S
C1193 O1194 1.273 . S
O1194 C1193 1.273 . S
O1195 Zn1186 1.977 . S
O1195 C1188 1.267 . S
C1196 O1197 1.160 . S
C1196 O1203 1.185 . S
O1197 C1196 1.160 . S
O1198 Zn1199 1.899 . S
O1198 C1206 1.284 . S
Zn1199 O1198 1.899 . S
Zn1199 O1200 2.032 . S
Zn1199 O1203 2.086 . S
Zn1199 O1208 1.977 . S
O1200 Zn1199 2.032 . S
O1200 C1204 1.278 . S
C1201 O1202 1.203 . S
C1201 O1208 1.267 . S
O1202 C1201 1.203 . S
O1203 C1196 1.185 . S
O1203 Zn1199 2.086 . S
C1204 O1200 1.278 . S
C1204 O1205 1.211 . S
O1205 C1204 1.211 . S
C1206 O1198 1.284 . S
C1206 O1207 1.273 . S
O1207 C1206 1.273 . S
O1208 Zn1199 1.977 . S
O1208 C1201 1.267 . S
C1209 O1210 1.160 . S
C1209 O1216 1.185 . S
O1210 C1209 1.160 . S
O1211 Zn1212 1.899 . S
O1211 C1219 1.284 . S
Zn1212 O1211 1.899 . S
Zn1212 O1213 2.032 . S
Zn1212 O1216 2.086 . S
Zn1212 O1221 1.977 . S
O1213 Zn1212 2.032 . S
O1213 C1217 1.278 . S
C1214 O1215 1.203 . S
C1214 O1221 1.267 . S
O1215 C1214 1.203 . S
O1216 C1209 1.185 . S
O1216 Zn1212 2.086 . S
C1217 O1213 1.278 . S
C1217 O1218 1.211 . S
O1218 C1217 1.211 . S
C1219 O1211 1.284 . S
C1219 O1220 1.273 . S
O1220 C1219 1.273 . S
O1221 Zn1212 1.977 . S
O1221 C1214 1.267 . S
C1222 O1223 1.160 . S
C1222 O1229 1.185 . S
O1223 C1222 1.160 . S
O1224 Zn1225 1.899 . S
O1224 C1232 1.284 . S
Zn1225 O1224 1.899 . S
Zn1225 O1226 2.032 . S
Zn1225 O1229 2.086 . S
Zn1225 O1234 1.977 . S
O1226 Zn1225 2.032 . S
O1226 C1230 1.278 . S
C1227 O1228 1.203 . S
C1227 O1234 1.267 . S
O1228 C1227 1.203 . S
O1229 C1222 1.185 . S
O1229 Zn1225 2.086 . S
C1230 O1226 1.278 . S
C1230 O1231 1.211 . S
O1231 C1230 1.211 . S
C1232 O1224 1.284 . S
C1232 O1233 1.273 . S
O1233 C1232 1.273 . S
O1234 Zn1225 1.977 . S
O1234 C1227 1.267 . S
C1235 O1236 1.160 . S
C1235 O1242 1.185 . S
O1236 C1235 1.160 . S
O1237 Zn1238 1.899 . S
O1237 C1245 1.284 . S
Zn1238 O1237 1.899 . S
Zn1238 O1239 2.032 . S
Zn1238 O1242 2.086 . S
Zn1238 O1247 1.977 . S
O1239 Zn1238 2.032 . S
O1239 C1243 1.278 . S
C1240 O1241 1.203 . S
C1240 O1247 1.267 . S
O1241 C1240 1.203 . S
O1242 C1235 1.185 . S
O1242 Zn1238 2.086 . S
C1243 O1239 1.278 . S
C1243 O1244 1.211 . S
O1244 C1243 1.211 . S
C1245 O1237 1.284 . S
C1245 O1246 1.273 . S
O1246 C1245 1.273 . S
O1247 Zn1238 1.977 . S
O1247 C1240 1.267 . S
C1248 C1249 1.387 . S
C1248 H1252 0.950 . S
C1248 C1257 1.390 . S
C1249 C1248 1.387 . S
C1249 C1251 1.387 . S
H1250 C1257 0.950 . S
C1251 C1249 1.387 . S
C1251 C1253 1.390 . S
C1251 H1255 0.950 . S
H1252 C1248 0.950 . S
C1253 C1251 1.390 . S
C1253 C1254 1.387 . S
C1253 H1256 0.950 . S
C1254 C1253 1.387 . S
C1254 C1257 1.387 . S
H1255 C1251 0.950 . S
H1256 C1253 0.950 . S
C1257 C1248 1.390 . S
C1257 H1250 0.950 . S
C1257 C1254 1.387 . S
C1258 C1259 1.387 . S
C1258 H1262 0.950 . S
C1258 C1267 1.390 . S
C1259 C1258 1.387 . S
C1259 C1261 1.387 . S
H1260 C1267 0.950 . S
C1261 C1259 1.387 . S
C1261 C1263 1.390 . S
C1261 H1265 0.950 . S
H1262 C1258 0.950 . S
C1263 C1261 1.390 . S
C1263 C1264 1.387 . S
C1263 H1266 0.950 . S
C1264 C1263 1.387 . S
C1264 C1267 1.387 . S
H1265 C1261 0.950 . S
H1266 C1263 0.950 . S
C1267 C1258 1.390 . S
C1267 H1260 0.950 . S
C1267 C1264 1.387 . S
C1268 C1269 1.387 . S
C1268 H1272 0.950 . S
C1268 C1277 1.390 . S
C1269 C1268 1.387 . S
C1269 C1271 1.387 . S
H1270 C1277 0.950 . S
C1271 C1269 1.387 . S
C1271 C1273 1.390 . S
C1271 H1275 0.950 . S
H1272 C1268 0.950 . S
C1273 C1271 1.390 . S
C1273 C1274 1.387 . S
C1273 H1276 0.950 . S
C1274 C1273 1.387 . S
C1274 C1277 1.387 . S
H1275 C1271 0.950 . S
H1276 C1273 0.950 . S
C1277 C1268 1.390 . S
C1277 H1270 0.950 . S
C1277 C1274 1.387 . S
C1278 C1279 1.387 . S
C1278 H1282 0.950 . S
C1278 C1287 1.390 . S
C1279 C1278 1.387 . S
C1279 C1281 1.387 . S
H1280 C1287 0.950 . S
C1281 C1279 1.387 . S
C1281 C1283 1.390 . S
C1281 H1285 0.950 . S
H1282 C1278 0.950 . S
C1283 C1281 1.390 . S
C1283 C1284 1.387 . S
C1283 H1286 0.950 . S
C1284 C1283 1.387 . S
C1284 C1287 1.387 . S
H1285 C1281 0.950 . S
H1286 C1283 0.950 . S
C1287 C1278 1.390 . S
C1287 H1280 0.950 . S
C1287 C1284 1.387 . S
C1288 C1289 1.387 . S
C1288 H1292 0.950 . S
C1288 C1297 1.390 . S
C1289 C1288 1.387 . S
C1289 C1291 1.387 . S
H1290 C1297 0.950 . S
C1291 C1289 1.387 . S
C1291 C1293 1.390 . S
C1291 H1295 0.950 . S
H1292 C1288 0.950 . S
C1293 C1291 1.390 . S
C1293 C1294 1.387 . S
C1293 H1296 0.950 . S
C1294 C1293 1.387 . S
C1294 C1297 1.387 . S
H1295 C1291 0.950 . S
H1296 C1293 0.950 . S
C1297 C1288 1.390 . S
C1297 H1290 0.950 . S
C1297 C1294 1.387 . S
C1298 C1299 1.387 . S
C1298 H1302 0.950 . S
C1298 C1307 1.390 . S
C1299 C1298 1.387 . S
C1299 C1301 1.387 . S
H1300 C1307 0.950 . S
C1301 C1299 1.387 . S
C1301 C1303 1.390 . S
C1301 H1305 0.950 . S
H1302 C1298 0.950 . S
C1303 C1301 1.390 . S
C1303 C1304 1.387 . S
C1303 H1306 0.950 . S
C1304 C1303 1.387 . S
C1304 C1307 1.387 . S
H1305 C1301 0.950 . S
H1306 C1303 0.950 . S
C1307 C1298 1.390 . S
C1307 H1300 0.950 . S
C1307 C1304 1.387 . S
C1308 C1309 1.387 . S
C1308 H1312 0.950 . S
C1308 C1317 1.390 . S
C1309 C1308 1.387 . S
C1309 C1311 1.387 . S
H1310 C1317 0.950 . S
C1311 C1309 1.387 . S
C1311 C1313 1.390 . S
C1311 H1315 0.950 . S
H1312 C1308 0.950 . S
C1313 C1311 1.390 . S
C1313 C1314 1.387 . S
C1313 H1316 0.950 . S
C1314 C1313 1.387 . S
C1314 C1317 1.387 . S
H1315 C1311 0.950 . S
H1316 C1313 0.950 . S
C1317 C1308 1.390 . S
C1317 H1310 0.950 . S
C1317 C1314 1.387 . S
C1318 C1319 1.387 . S
C1318 H1322 0.950 . S
C1318 C1327 1.390 . S
C1319 C1318 1.387 . S
C1319 C1321 1.387 . S
H1320 C1327 0.950 . S
C1321 C1319 1.387 . S
C1321 C1323 1.390 . S
C1321 H1325 0.950 . S
H1322 C1318 0.950 . S
C1323 C1321 1.390 . S
C1323 C1324 1.387 . S
C1323 H1326 0.950 . S
C1324 C1323 1.387 . S
C1324 C1327 1.387 . S
H1325 C1321 0.950 . S
H1326 C1323 0.950 . S
C1327 C1318 1.390 . S
C1327 H1320 0.950 . S
C1327 C1324 1.387 . S
C1328 C1329 1.387 . S
C1328 H1332 0.950 . S
C1328 C1337 1.390 . S
C1329 C1328 1.387 . S
C1329 C1331 1.387 . S
H1330 C1337 0.950 . S
C1331 C1329 1.387 . S
C1331 C1333 1.390 . S
C1331 H1335 0.950 . S
H1332 C1328 0.950 . S
C1333 C1331 1.390 . S
C1333 C1334 1.387 . S
C1333 H1336 0.950 . S
C1334 C1333 1.387 . S
C1334 C1337 1.387 . S
H1335 C1331 0.950 . S
H1336 C1333 0.950 . S
C1337 C1328 1.390 . S
C1337 H1330 0.950 . S
C1337 C1334 1.387 . S
C1338 C1339 1.387 . S
C1338 H1342 0.950 . S
C1338 C1347 1.390 . S
C1339 C1338 1.387 . S
C1339 C1341 1.387 . S
H1340 C1347 0.950 . S
C1341 C1339 1.387 . S
C1341 C1343 1.390 . S
C1341 H1345 0.950 . S
H1342 C1338 0.950 . S
C1343 C1341 1.390 . S
C1343 C1344 1.387 . S
C1343 H1346 0.950 . S
C1344 C1343 1.387 . S
C1344 C1347 1.387 . S
H1345 C1341 0.950 . S
H1346 C1343 0.950 . S
C1347 C1338 1.390 . S
C1347 H1340 0.950 . S
C1347 C1344 1.387 . S
C1348 C1349 1.387 . S
C1348 H1352 0.950 . S
C1348 C1357 1.390 . S
C1349 C1348 1.387 . S
C1349 C1351 1.387 . S
H1350 C1357 0.950 . S
C1351 C1349 1.387 . S
C1351 C1353 1.390 . S
C1351 H1355 0.950 . S
H1352 C1348 0.950 . S
C1353 C1351 1.390 . S
C1353 C1354 1.387 . S
C1353 H1356 0.950 . S
C1354 C1353 1.387 . S
C1354 C1357 1.387 . S
H1355 C1351 0.950 . S
H1356 C1353 0.950 . S
C1357 C1348 1.390 . S
C1357 H1350 0.950 . S
C1357 C1354 1.387 . S
C1358 C1359 1.387 . S
C1358 H1362 0.950 . S
C1358 C1367 1.390 . S
C1359 C1358 1.387 . S
C1359 C1361 1.387 . S
H1360 C1367 0.950 . S
C1361 C1359 1.387 . S
C1361 C1363 1.390 . S
C1361 H1365 0.950 . S
H1362 C1358 0.950 . S
C1363 C1361 1.390 . S
C1363 C1364 1.387 . S
C1363 H1366 0.950 . S
C1364 C1363 1.387 . S
C1364 C1367 1.387 . S
H1365 C1361 0.950 . S
H1366 C1363 0.950 . S
C1367 C1358 1.390 . S
C1367 H1360 0.950 . S
C1367 C1364 1.387 . S
C1368 C1369 1.387 . S
C1368 H1372 0.950 . S
C1368 C1377 1.390 . S
C1369 C1368 1.387 . S
C1369 C1371 1.387 . S
H1370 C1377 0.950 . S
C1371 C1369 1.387 . S
C1371 C1373 1.390 . S
C1371 H1375 0.950 . S
H1372 C1368 0.950 . S
C1373 C1371 1.390 . S
C1373 C1374 1.387 . S
C1373 H1376 0.950 . S
C1374 C1373 1.387 . S
C1374 C1377 1.387 . S
H1375 C1371 0.950 . S
H1376 C1373 0.950 . S
C1377 C1368 1.390 . S
C1377 H1370 0.950 . S
C1377 C1374 1.387 . S
C1378 C1379 1.387 . S
C1378 H1382 0.950 . S
C1378 C1387 1.390 . S
C1379 C1378 1.387 . S
C1379 C1381 1.387 . S
H1380 C1387 0.950 . S
C1381 C1379 1.387 . S
C1381 C1383 1.390 . S
C1381 H1385 0.950 . S
H1382 C1378 0.950 . S
C1383 C1381 1.390 . S
C1383 C1384 1.387 . S
C1383 H1386 0.950 . S
C1384 C1383 1.387 . S
C1384 C1387 1.387 . S
H1385 C1381 0.950 . S
H1386 C1383 0.950 . S
C1387 C1378 1.390 . S
C1387 H1380 0.950 . S
C1387 C1384 1.387 . S
C1388 C1389 1.387 . S
C1388 H1392 0.950 . S
C1388 C1397 1.390 . S
C1389 C1388 1.387 . S
C1389 C1391 1.387 . S
H1390 C1397 0.950 . S
C1391 C1389 1.387 . S
C1391 C1393 1.390 . S
C1391 H1395 0.950 . S
H1392 C1388 0.950 . S
C1393 C1391 1.390 . S
C1393 C1394 1.387 . S
C1393 H1396 0.950 . S
C1394 C1393 1.387 . S
C1394 C1397 1.387 . S
H1395 C1391 0.950 . S
H1396 C1393 0.950 . S
C1397 C1388 1.390 . S
C1397 H1390 0.950 . S
C1397 C1394 1.387 . S
C1398 C1399 1.387 . S
C1398 H1402 0.950 . S
C1398 C1407 1.390 . S
C1399 C1398 1.387 . S
C1399 C1401 1.387 . S
H1400 C1407 0.950 . S
C1401 C1399 1.387 . S
C1401 C1403 1.390 . S
C1401 H1405 0.950 . S
H1402 C1398 0.950 . S
C1403 C1401 1.390 . S
C1403 C1404 1.387 . S
C1403 H1406 0.950 . S
C1404 C1403 1.387 . S
C1404 C1407 1.387 . S
H1405 C1401 0.950 . S
H1406 C1403 0.950 . S
C1407 C1398 1.390 . S
C1407 H1400 0.950 . S
C1407 C1404 1.387 . S
C1408 C1409 1.387 . S
C1408 H1412 0.950 . S
C1408 C1417 1.390 . S
C1409 C1408 1.387 . S
C1409 C1411 1.387 . S
H1410 C1417 0.950 . S
C1411 C1409 1.387 . S
C1411 C1413 1.390 . S
C1411 H1415 0.950 . S
H1412 C1408 0.950 . S
C1413 C1411 1.390 . S
C1413 C1414 1.387 . S
C1413 H1416 0.950 . S
C1414 C1413 1.387 . S
C1414 C1417 1.387 . S
H1415 C1411 0.950 . S
H1416 C1413 0.950 . S
C1417 C1408 1.390 . S
C1417 H1410 0.950 . S
C1417 C1414 1.387 . S
C1418 C1419 1.387 . S
C1418 H1422 0.950 . S
C1418 C1427 1.390 . S
C1419 C1418 1.387 . S
C1419 C1421 1.387 . S
H1420 C1427 0.950 . S
C1421 C1419 1.387 . S
C1421 C1423 1.390 . S
C1421 H1425 0.950 . S
H1422 C1418 0.950 . S
C1423 C1421 1.390 . S
C1423 C1424 1.387 . S
C1423 H1426 0.950 . S
C1424 C1423 1.387 . S
C1424 C1427 1.387 . S
H1425 C1421 0.950 . S
H1426 C1423 0.950 . S
C1427 C1418 1.390 . S
C1427 H1420 0.950 . S
C1427 C1424 1.387 . S
C1428 C1429 1.387 . S
C1428 H1432 0.950 . S
C1428 C1437 1.390 . S
C1429 C1428 1.387 . S
C1429 C1431 1.387 . S
H1430 C1437 0.950 . S
C1431 C1429 1.387 . S
C1431 C1433 1.390 . S
C1431 H1435 0.950 . S
H1432 C1428 0.950 . S
C1433 C1431 1.390 . S
C1433 C1434 1.387 . S
C1433 H1436 0.950 . S
C1434 C1433 1.387 . S
C1434 C1437 1.387 . S
H1435 C1431 0.950 . S
H1436 C1433 0.950 . S
C1437 C1428 1.390 . S
C1437 H1430 0.950 . S
C1437 C1434 1.387 . S
C1438 C1439 1.387 . S
C1438 H1442 0.950 . S
C1438 C1447 1.390 . S
C1439 C1438 1.387 . S
C1439 C1441 1.387 . S
H1440 C1447 0.950 . S
C1441 C1439 1.387 . S
C1441 C1443 1.390 . S
C1441 H1445 0.950 . S
H1442 C1438 0.950 . S
C1443 C1441 1.390 . S
C1443 C1444 1.387 . S
C1443 H1446 0.950 . S
C1444 C1443 1.387 . S
C1444 C1447 1.387 . S
H1445 C1441 0.950 . S
H1446 C1443 0.950 . S
C1447 C1438 1.390 . S
C1447 H1440 0.950 . S
C1447 C1444 1.387 . S
C1448 C1449 1.387 . S
C1448 H1452 0.950 . S
C1448 C1457 1.390 . S
C1449 C1448 1.387 . S
C1449 C1451 1.387 . S
H1450 C1457 0.950 . S
C1451 C1449 1.387 . S
C1451 C1453 1.390 . S
C1451 H1455 0.950 . S
H1452 C1448 0.950 . S
C1453 C1451 1.390 . S
C1453 C1454 1.387 . S
C1453 H1456 0.950 . S
C1454 C1453 1.387 . S
C1454 C1457 1.387 . S
H1455 C1451 0.950 . S
H1456 C1453 0.950 . S
C1457 C1448 1.390 . S
C1457 H1450 0.950 . S
C1457 C1454 1.387 . S
C1458 C1459 1.387 . S
C1458 H1462 0.950 . S
C1458 C1467 1.390 . S
C1459 C1458 1.387 . S
C1459 C1461 1.387 . S
H1460 C1467 0.950 . S
C1461 C1459 1.387 . S
C1461 C1463 1.390 . S
C1461 H1465 0.950 . S
H1462 C1458 0.950 . S
C1463 C1461 1.390 . S
C1463 C1464 1.387 . S
C1463 H1466 0.950 . S
C1464 C1463 1.387 . S
C1464 C1467 1.387 . S
H1465 C1461 0.950 . S
H1466 C1463 0.950 . S
C1467 C1458 1.390 . S
C1467 H1460 0.950 . S
C1467 C1464 1.387 . S
C1468 C1469 1.387 . S
C1468 H1472 0.950 . S
C1468 C1477 1.390 . S
C1469 C1468 1.387 . S
C1469 C1471 1.387 . S
H1470 C1477 0.950 . S
C1471 C1469 1.387 . S
C1471 C1473 1.390 . S
C1471 H1475 0.950 . S
H1472 C1468 0.950 . S
C1473 C1471 1.390 . S
C1473 C1474 1.387 . S
C1473 H1476 0.950 . S
C1474 C1473 1.387 . S
C1474 C1477 1.387 . S
H1475 C1471 0.950 . S
H1476 C1473 0.950 . S
C1477 C1468 1.390 . S
C1477 H1470 0.950 . S
C1477 C1474 1.387 . S
C1478 C1479 1.387 . S
C1478 H1482 0.950 . S
C1478 C1487 1.390 . S
C1479 C1478 1.387 . S
C1479 C1481 1.387 . S
H1480 C1487 0.950 . S
C1481 C1479 1.387 . S
C1481 C1483 1.390 . S
C1481 H1485 0.950 . S
H1482 C1478 0.950 . S
C1483 C1481 1.390 . S
C1483 C1484 1.387 . S
C1483 H1486 0.950 . S
C1484 C1483 1.387 . S
C1484 C1487 1.387 . S
H1485 C1481 0.950 . S
H1486 C1483 0.950 . S
C1487 C1478 1.390 . S
C1487 H1480 0.950 . S
C1487 C1484 1.387 . S
C1488 C1489 1.387 . S
C1488 H1492 0.950 . S
C1488 C1497 1.390 . S
C1489 C1488 1.387 . S
C1489 C1491 1.387 . S
H1490 C1497 0.950 . S
C1491 C1489 1.387 . S
C1491 C1493 1.390 . S
C1491 H1495 0.950 . S
H1492 C1488 0.950 . S
C1493 C1491 1.390 . S
C1493 C1494 1.387 . S
C1493 H1496 0.950 . S
C1494 C1493 1.387 . S
C1494 C1497 1.387 . S
H1495 C1491 0.950 . S
H1496 C1493 0.950 . S
C1497 C1488 1.390 . S
C1497 H1490 0.950 . S
C1497 C1494 1.387 . S
C1498 C1499 1.387 . S
C1498 H1502 0.950 . S
C1498 C1507 1.390 . S
C1499 C1498 1.387 . S
C1499 C1501 1.387 . S
H1500 C1507 0.950 . S
C1501 C1499 1.387 . S
C1501 C1503 1.390 . S
C1501 H1505 0.950 . S
H1502 C1498 0.950 . S
C1503 C1501 1.390 . S
C1503 C1504 1.387 . S
C1503 H1506 0.950 . S
C1504 C1503 1.387 . S
C1504 C1507 1.387 . S
H1505 C1501 0.950 . S
H1506 C1503 0.950 . S
C1507 C1498 1.390 . S
C1507 H1500 0.950 . S
C1507 C1504 1.387 . S
C1508 C1509 1.387 . S
C1508 H1512 0.950 . S
C1508 C1517 1.390 . S
C1509 C1508 1.387 . S
C1509 C1511 1.387 . S
H1510 C1517 0.950 . S
C1511 C1509 1.387 . S
C1511 C1513 1.390 . S
C1511 H1515 0.950 . S
H1512 C1508 0.950 . S
C1513 C1511 1.390 . S
C1513 C1514 1.387 . S
C1513 H1516 0.950 . S
C1514 C1513 1.387 . S
C1514 C1517 1.387 . S
H1515 C1511 0.950 . S
H1516 C1513 0.950 . S
C1517 C1508 1.390 . S
C1517 H1510 0.950 . S
C1517 C1514 1.387 . S
C1518 C1519 1.387 . S
C1518 H1522 0.950 . S
C1518 C1527 1.390 . S
C1519 C1518 1.387 . S
C1519 C1521 1.387 . S
H1520 C1527 0.950 . S
C1521 C1519 1.387 . S
C1521 C1523 1.390 . S
C1521 H1525 0.950 . S
H1522 C1518 0.950 . S
C1523 C1521 1.390 . S
C1523 C1524 1.387 . S
C1523 H1526 0.950 . S
C1524 C1523 1.387 . S
C1524 C1527 1.387 . S
H1525 C1521 0.950 . S
H1526 C1523 0.950 . S
C1527 C1518 1.390 . S
C1527 H1520 0.950 . S
C1527 C1524 1.387 . S
C1528 C1529 1.387 . S
C1528 H1532 0.950 . S
C1528 C1537 1.390 . S
C1529 C1528 1.387 . S
C1529 C1531 1.387 . S
H1530 C1537 0.950 . S
C1531 C1529 1.387 . S
C1531 C1533 1.390 . S
C1531 H1535 0.950 . S
H1532 C1528 0.950 . S
C1533 C1531 1.390 . S
C1533 C1534 1.387 . S
C1533 H1536 0.950 . S
C1534 C1533 1.387 . S
C1534 C1537 1.387 . S
H1535 C1531 0.950 . S
H1536 C1533 0.950 . S
C1537 C1528 1.390 . S
C1537 H1530 0.950 . S
C1537 C1534 1.387 . S
C1538 C1539 1.387 . S
C1538 H1542 0.950 . S
C1538 C1547 1.390 . S
C1539 C1538 1.387 . S
C1539 C1541 1.387 . S
H1540 C1547 0.950 . S
C1541 C1539 1.387 . S
C1541 C1543 1.390 . S
C1541 H1545 0.950 . S
H1542 C1538 0.950 . S
C1543 C1541 1.390 . S
C1543 C1544 1.387 . S
C1543 H1546 0.950 . S
C1544 C1543 1.387 . S
C1544 C1547 1.387 . S
H1545 C1541 0.950 . S
H1546 C1543 0.950 . S
C1547 C1538 1.390 . S
C1547 H1540 0.950 . S
C1547 C1544 1.387 . S
C1548 C1549 1.387 . S
C1548 H1552 0.950 . S
C1548 C1557 1.390 . S
C1549 C1548 1.387 . S
C1549 C1551 1.387 . S
H1550 C1557 0.950 . S
C1551 C1549 1.387 . S
C1551 C1553 1.390 . S
C1551 H1555 0.950 . S
H1552 C1548 0.950 . S
C1553 C1551 1.390 . S
C1553 C1554 1.387 . S
C1553 H1556 0.950 . S
C1554 C1553 1.387 . S
C1554 C1557 1.387 . S
H1555 C1551 0.950 . S
H1556 C1553 0.950 . S
C1557 C1548 1.390 . S
C1557 H1550 0.950 . S
C1557 C1554 1.387 . S
C1558 C1559 1.387 . S
C1558 H1562 0.950 . S
C1558 C1567 1.390 . S
C1559 C1558 1.387 . S
C1559 C1561 1.387 . S
H1560 C1567 0.950 . S
C1561 C1559 1.387 . S
C1561 C1563 1.390 . S
C1561 H1565 0.950 . S
H1562 C1558 0.950 . S
C1563 C1561 1.390 . S
C1563 C1564 1.387 . S
C1563 H1566 0.950 . S
C1564 C1563 1.387 . S
C1564 C1567 1.387 . S
H1565 C1561 0.950 . S
H1566 C1563 0.950 . S
C1567 C1558 1.390 . S
C1567 H1560 0.950 . S
C1567 C1564 1.387 . S
C1568 C1569 1.387 . S
C1568 H1572 0.950 . S
C1568 C1577 1.390 . S
C1569 C1568 1.387 . S
C1569 C1571 1.387 . S
H1570 C1577 0.950 . S
C1571 C1569 1.387 . S
C1571 C1573 1.390 . S
C1571 H1575 0.950 . S
H1572 C1568 0.950 . S
C1573 C1571 1.390 . S
C1573 C1574 1.387 . S
C1573 H1576 0.950 . S
C1574 C1573 1.387 . S
C1574 C1577 1.387 . S
H1575 C1571 0.950 . S
H1576 C1573 0.950 . S
C1577 C1568 1.390 . S
C1577 H1570 0.950 . S
C1577 C1574 1.387 . S
C1578 C1579 1.387 . S
C1578 H1582 0.950 . S
C1578 C1587 1.390 . S
C1579 C1578 1.387 . S
C1579 C1581 1.387 . S
H1580 C1587 0.950 . S
C1581 C1579 1.387 . S
C1581 C1583 1.390 . S
C1581 H1585 0.950 . S
H1582 C1578 0.950 . S
C1583 C1581 1.390 . S
C1583 C1584 1.387 . S
C1583 H1586 0.950 . S
C1584 C1583 1.387 . S
C1584 C1587 1.387 . S
H1585 C1581 0.950 . S
H1586 C1583 0.950 . S
C1587 C1578 1.390 . S
C1587 H1580 0.950 . S
C1587 C1584 1.387 . S
C1588 C1589 1.387 . S
C1588 H1592 0.950 . S
C1588 C1597 1.390 . S
C1589 C1588 1.387 . S
C1589 C1591 1.387 . S
H1590 C1597 0.950 . S
C1591 C1589 1.387 . S
C1591 C1593 1.390 . S
C1591 H1595 0.950 . S
H1592 C1588 0.950 . S
C1593 C1591 1.390 . S
C1593 C1594 1.387 . S
C1593 H1596 0.950 . S
C1594 C1593 1.387 . S
C1594 C1597 1.387 . S
H1595 C1591 0.950 . S
H1596 C1593 0.950 . S
C1597 C1588 1.390 . S
C1597 H1590 0.950 . S
C1597 C1594 1.387 . S
C1598 C1599 1.387 . S
C1598 H1602 0.950 . S
C1598 C1607 1.390 . S
C1599 C1598 1.387 . S
C1599 C1601 1.387 . S
H1600 C1607 0.950 . S
C1601 C1599 1.387 . S
C1601 C1603 1.390 . S
C1601 H1605 0.950 . S
H1602 C1598 0.950 . S
C1603 C1601 1.390 . S
C1603 C1604 1.387 . S
C1603 H1606 0.950 . S
C1604 C1603 1.387 . S
C1604 C1607 1.387 . S
H1605 C1601 0.950 . S
H1606 C1603 0.950 . S
C1607 C1598 1.390 . S
C1607 H1600 0.950 . S
C1607 C1604 1.387 . S
C1608 C1609 1.387 . S
C1608 H1612 0.950 . S
C1608 C1617 1.390 . S
C1609 C1608 1.387 . S
C1609 C1611 1.387 . S
H1610 C1617 0.950 . S
C1611 C1609 1.387 . S
C1611 C1613 1.390 . S
C1611 H1615 0.950 . S
H1612 C1608 0.950 . S
C1613 C1611 1.390 . S
C1613 C1614 1.387 . S
C1613 H1616 0.950 . S
C1614 C1613 1.387 . S
C1614 C1617 1.387 . S
H1615 C1611 0.950 . S
H1616 C1613 0.950 . S
C1617 C1608 1.390 . S
C1617 H1610 0.950 . S
C1617 C1614 1.387 . S
C1618 C1619 1.387 . S
C1618 H1622 0.950 . S
C1618 C1627 1.390 . S
C1619 C1618 1.387 . S
C1619 C1621 1.387 . S
H1620 C1627 0.950 . S
C1621 C1619 1.387 . S
C1621 C1623 1.390 . S
C1621 H1625 0.950 . S
H1622 C1618 0.950 . S
C1623 C1621 1.390 . S
C1623 C1624 1.387 . S
C1623 H1626 0.950 . S
C1624 C1623 1.387 . S
C1624 C1627 1.387 . S
H1625 C1621 0.950 . S
H1626 C1623 0.950 . S
C1627 C1618 1.390 . S
C1627 H1620 0.950 . S
C1627 C1624 1.387 . S
C1628 C1629 1.387 . S
C1628 H1632 0.950 . S
C1628 C1637 1.390 . S
C1629 C1628 1.387 . S
C1629 C1631 1.387 . S
H1630 C1637 0.950 . S
C1631 C1629 1.387 . S
C1631 C1633 1.390 . S
C1631 H1635 0.950 . S
H1632 C1628 0.950 . S
C1633 C1631 1.390 . S
C1633 C1634 1.387 . S
C1633 H1636 0.950 . S
C1634 C1633 1.387 . S
C1634 C1637 1.387 . S
H1635 C1631 0.950 . S
H1636 C1633 0.950 . S
C1637 C1628 1.390 . S
C1637 H1630 0.950 . S
C1637 C1634 1.387 . S
C1638 C1639 1.387 . S
C1638 H1642 0.950 . S
C1638 C1647 1.390 . S
C1639 C1638 1.387 . S
C1639 C1641 1.387 . S
H1640 C1647 0.950 . S
C1641 C1639 1.387 . S
C1641 C1643 1.390 . S
C1641 H1645 0.950 . S
H1642 C1638 0.950 . S
C1643 C1641 1.390 . S
C1643 C1644 1.387 . S
C1643 H1646 0.950 . S
C1644 C1643 1.387 . S
C1644 C1647 1.387 . S
H1645 C1641 0.950 . S
H1646 C1643 0.950 . S
C1647 C1638 1.390 . S
C1647 H1640 0.950 . S
C1647 C1644 1.387 . S
C1648 C1649 1.387 . S
C1648 H1652 0.950 . S
C1648 C1657 1.390 . S
C1649 C1648 1.387 . S
C1649 C1651 1.387 . S
H1650 C1657 0.950 . S
C1651 C1649 1.387 . S
C1651 C1653 1.390 . S
C1651 H1655 0.950 . S
H1652 C1648 0.950 . S
C1653 C1651 1.390 . S
C1653 C1654 1.387 . S
C1653 H1656 0.950 . S
C1654 C1653 1.387 . S
C1654 C1657 1.387 . S
H1655 C1651 0.950 . S
H1656 C1653 0.950 . S
C1657 C1648 1.390 . S
C1657 H1650 0.950 . S
C1657 C1654 1.387 . S
C1658 C1659 1.387 . S
C1658 H1662 0.950 . S
C1658 C1667 1.390 . S
C1659 C1658 1.387 . S
C1659 C1661 1.387 . S
H1660 C1667 0.950 . S
C1661 C1659 1.387 . S
C1661 C1663 1.390 . S
C1661 H1665 0.950 . S
H1662 C1658 0.950 . S
C1663 C1661 1.390 . S
C1663 C1664 1.387 . S
C1663 H1666 0.950 . S
C1664 C1663 1.387 . S
C1664 C1667 1.387 . S
H1665 C1661 0.950 . S
H1666 C1663 0.950 . S
C1667 C1658 1.390 . S
C1667 H1660 0.950 . S
C1667 C1664 1.387 . S
C1668 C1669 1.387 . S
C1668 H1672 0.950 . S
C1668 C1677 1.390 . S
C1669 C1668 1.387 . S
C1669 C1671 1.387 . S
H1670 C1677 0.950 . S
C1671 C1669 1.387 . S
C1671 C1673 1.390 . S
C1671 H1675 0.950 . S
H1672 C1668 0.950 . S
C1673 C1671 1.390 . S
C1673 C1674 1.387 . S
C1673 H1676 0.950 . S
C1674 C1673 1.387 . S
C1674 C1677 1.387 . S
H1675 C1671 0.950 . S
H1676 C1673 0.950 . S
C1677 C1668 1.390 . S
C1677 H1670 0.950 . S
C1677 C1674 1.387 . S
C1678 C1679 1.387 . S
C1678 H1682 0.950 . S
C1678 C1687 1.390 . S
C1679 C1678 1.387 . S
C1679 C1681 1.387 . S
H1680 C1687 0.950 . S
C1681 C1679 1.387 . S
C1681 C1683 1.390 . S
C1681 H1685 0.950 . S
H1682 C1678 0.950 . S
C1683 C1681 1.390 . S
C1683 C1684 1.387 . S
C1683 H1686 0.950 . S
C1684 C1683 1.387 . S
C1684 C1687 1.387 . S
H1685 C1681 0.950 . S
H1686 C1683 0.950 . S
C1687 C1678 1.390 . S
C1687 H1680 0.950 . S
C1687 C1684 1.387 . S
C1688 C1689 1.387 . S
C1688 H1692 0.950 . S
C1688 C1697 1.390 . S
C1689 C1688 1.387 . S
C1689 C1691 1.387 . S
H1690 C1697 0.950 . S
C1691 C1689 1.387 . S
C1691 C1693 1.390 . S
C1691 H1695 0.950 . S
H1692 C1688 0.950 . S
C1693 C1691 1.390 . S
C1693 C1694 1.387 . S
C1693 H1696 0.950 . S
C1694 C1693 1.387 . S
C1694 C1697 1.387 . S
H1695 C1691 0.950 . S
H1696 C1693 0.950 . S
C1697 C1688 1.390 . S
C1697 H1690 0.950 . S
C1697 C1694 1.387 . S
C1698 C1699 1.387 . S
C1698 H1702 0.950 . S
C1698 C1707 1.390 . S
C1699 C1698 1.387 . S
C1699 C1701 1.387 . S
H1700 C1707 0.950 . S
C1701 C1699 1.387 . S
C1701 C1703 1.390 . S
C1701 H1705 0.950 . S
H1702 C1698 0.950 . S
C1703 C1701 1.390 . S
C1703 C1704 1.387 . S
C1703 H1706 0.950 . S
C1704 C1703 1.387 . S
C1704 C1707 1.387 . S
H1705 C1701 0.950 . S
H1706 C1703 0.950 . S
C1707 C1698 1.390 . S
C1707 H1700 0.950 . S
C1707 C1704 1.387 . S
C1708 C1709 1.387 . S
C1708 H1712 0.950 . S
C1708 C1717 1.390 . S
C1709 C1708 1.387 . S
C1709 C1711 1.387 . S
H1710 C1717 0.950 . S
C1711 C1709 1.387 . S
C1711 C1713 1.390 . S
C1711 H1715 0.950 . S
H1712 C1708 0.950 . S
C1713 C1711 1.390 . S
C1713 C1714 1.387 . S
C1713 H1716 0.950 . S
C1714 C1713 1.387 . S
C1714 C1717 1.387 . S
H1715 C1711 0.950 . S
H1716 C1713 0.950 . S
C1717 C1708 1.390 . S
C1717 H1710 0.950 . S
C1717 C1714 1.387 . S
C1718 C1719 1.387 . S
C1718 H1722 0.950 . S
C1718 C1727 1.390 . S
C1719 C1718 1.387 . S
C1719 C1721 1.387 . S
H1720 C1727 0.950 . S
C1721 C1719 1.387 . S
C1721 C1723 1.390 . S
C1721 H1725 0.950 . S
H1722 C1718 0.950 . S
C1723 C1721 1.390 . S
C1723 C1724 1.387 . S
C1723 H1726 0.950 . S
C1724 C1723 1.387 . S
C1724 C1727 1.387 . S
H1725 C1721 0.950 . S
H1726 C1723 0.950 . S
C1727 C1718 1.390 . S
C1727 H1720 0.950 . S
C1727 C1724 1.387 . S
C1728 C1729 1.387 . S
C1728 H1732 0.950 . S
C1728 C1737 1.390 . S
C1729 C1728 1.387 . S
C1729 C1731 1.387 . S
H1730 C1737 0.950 . S
C1731 C1729 1.387 . S
C1731 C1733 1.390 . S
C1731 H1735 0.950 . S
H1732 C1728 0.950 . S
C1733 C1731 1.390 . S
C1733 C1734 1.387 . S
C1733 H1736 0.950 . S
C1734 C1733 1.387 . S
C1734 C1737 1.387 . S
H1735 C1731 0.950 . S
H1736 C1733 0.950 . S
C1737 C1728 1.390 . S
C1737 H1730 0.950 . S
C1737 C1734 1.387 . S
C1738 C1739 1.387 . S
C1738 H1742 0.950 . S
C1738 C1747 1.390 . S
C1739 C1738 1.387 . S
C1739 C1741 1.387 . S
H1740 C1747 0.950 . S
C1741 C1739 1.387 . S
C1741 C1743 1.390 . S
C1741 H1745 0.950 . S
H1742 C1738 0.950 . S
C1743 C1741 1.390 . S
C1743 C1744 1.387 . S
C1743 H1746 0.950 . S
C1744 C1743 1.387 . S
C1744 C1747 1.387 . S
H1745 C1741 0.950 . S
H1746 C1743 0.950 . S
C1747 C1738 1.390 . S
C1747 H1740 0.950 . S
C1747 C1744 1.387 . S
C1748 C1749 1.387 . S
C1748 H1752 0.950 . S
C1748 C1757 1.390 . S
C1749 C1748 1.387 . S
C1749 C1751 1.387 . S
H1750 C1757 0.950 . S
C1751 C1749 1.387 . S
C1751 C1753 1.390 . S
C1751 H1755 0.950 . S
H1752 C1748 0.950 . S
C1753 C1751 1.390 . S
C1753 C1754 1.387 . S
C1753 H1756 0.950 . S
C1754 C1753 1.387 . S
C1754 C1757 1.387 . S
H1755 C1751 0.950 . S
H1756 C1753 0.950 . S
C1757 C1748 1.390 . S
C1757 H1750 0.950 . S
C1757 C1754 1.387 . S
C1758 C1759 1.387 . S
C1758 H1762 0.950 . S
C1758 C1767 1.390 . S
C1759 C1758 1.387 . S
C1759 C1761 1.387 . S
H1760 C1767 0.950 . S
C1761 C1759 1.387 . S
C1761 C1763 1.390 . S
C1761 H1765 0.950 . S
H1762 C1758 0.950 . S
C1763 C1761 1.390 . S
C1763 C1764 1.387 . S
C1763 H1766 0.950 . S
C1764 C1763 1.387 . S
C1764 C1767 1.387 . S
H1765 C1761 0.950 . S
H1766 C1763 0.950 . S
C1767 C1758 1.390 . S
C1767 H1760 0.950 . S
C1767 C1764 1.387 . S
C1768 C1769 1.387 . S
C1768 H1772 0.950 . S
C1768 C1777 1.390 . S
C1769 C1768 1.387 . S
C1769 C1771 1.387 . S
H1770 C1777 0.950 . S
C1771 C1769 1.387 . S
C1771 C1773 1.390 . S
C1771 H1775 0.950 . S
H1772 C1768 0.950 . S
C1773 C1771 1.390 . S
C1773 C1774 1.387 . S
C1773 H1776 0.950 . S
C1774 C1773 1.387 . S
C1774 C1777 1.387 . S
H1775 C1771 0.950 . S
H1776 C1773 0.950 . S
C1777 C1768 1.390 . S
C1777 H1770 0.950 . S
C1777 C1774 1.387 . S
C1778 C1779 1.387 . S
C1778 H1782 0.950 . S
C1778 C1787 1.390 . S
C1779 C1778 1.387 . S
C1779 C1781 1.387 . S
H1780 C1787 0.950 . S
C1781 C1779 1.387 . S
C1781 C1783 1.390 . S
C1781 H1785 0.950 . S
H1782 C1778 0.950 . S
C1783 C1781 1.390 . S
C1783 C1784 1.387 . S
C1783 H1786 0.950 . S
C1784 C1783 1.387 . S
C1784 C1787 1.387 . S
H1785 C1781 0.950 . S
H1786 C1783 0.950 . S
C1787 C1778 1.390 . S
C1787 H1780 0.950 . S
C1787 C1784 1.387 . S
C1788 C1789 1.387 . S
C1788 H1792 0.950 . S
C1788 C1797 1.390 . S
C1789 C1788 1.387 . S
C1789 C1791 1.387 . S
H1790 C1797 0.950 . S
C1791 C1789 1.387 . S
C1791 C1793 1.390 . S
C1791 H1795 0.950 . S
H1792 C1788 0.950 . S
C1793 C1791 1.390 . S
C1793 C1794 1.387 . S
C1793 H1796 0.950 . S
C1794 C1793 1.387 . S
C1794 C1797 1.387 . S
H1795 C1791 0.950 . S
H1796 C1793 0.950 . S
C1797 C1788 1.390 . S
C1797 H1790 0.950 . S
C1797 C1794 1.387 . S
C1798 C1799 1.387 . S
C1798 H1802 0.950 . S
C1798 C1807 1.390 . S
C1799 C1798 1.387 . S
C1799 C1801 1.387 . S
H1800 C1807 0.950 . S
C1801 C1799 1.387 . S
C1801 C1803 1.390 . S
C1801 H1805 0.950 . S
H1802 C1798 0.950 . S
C1803 C1801 1.390 . S
C1803 C1804 1.387 . S
C1803 H1806 0.950 . S
C1804 C1803 1.387 . S
C1804 C1807 1.387 . S
H1805 C1801 0.950 . S
H1806 C1803 0.950 . S
C1807 C1798 1.390 . S
C1807 H1800 0.950 . S
C1807 C1804 1.387 . S
C1808 C1809 1.387 . S
C1808 H1812 0.950 . S
C1808 C1817 1.390 . S
C1809 C1808 1.387 . S
C1809 C1811 1.387 . S
H1810 C1817 0.950 . S
C1811 C1809 1.387 . S
C1811 C1813 1.390 . S
C1811 H1815 0.950 . S
H1812 C1808 0.950 . S
C1813 C1811 1.390 . S
C1813 C1814 1.387 . S
C1813 H1816 0.950 . S
C1814 C1813 1.387 . S
C1814 C1817 1.387 . S
H1815 C1811 0.950 . S
H1816 C1813 0.950 . S
C1817 C1808 1.390 . S
C1817 H1810 0.950 . S
C1817 C1814 1.387 . S
C1818 C1819 1.387 . S
C1818 H1822 0.950 . S
C1818 C1827 1.390 . S
C1819 C1818 1.387 . S
C1819 C1821 1.387 . S
H1820 C1827 0.950 . S
C1821 C1819 1.387 . S
C1821 C1823 1.390 . S
C1821 H1825 0.950 . S
H1822 C1818 0.950 . S
C1823 C1821 1.390 . S
C1823 C1824 1.387 . S
C1823 H1826 0.950 . S
C1824 C1823 1.387 . S
C1824 C1827 1.387 . S
H1825 C1821 0.950 . S
H1826 C1823 0.950 . S
C1827 C1818 1.390 . S
C1827 H1820 0.950 . S
C1827 C1824 1.387 . S
C1828 C1829 1.387 . S
C1828 H1832 0.950 . S
C1828 C1837 1.390 . S
C1829 C1828 1.387 . S
C1829 C1831 1.387 . S
H1830 C1837 0.950 . S
C1831 C1829 1.387 . S
C1831 C1833 1.390 . S
C1831 H1835 0.950 . S
H1832 C1828 0.950 . S
C1833 C1831 1.390 . S
C1833 C1834 1.387 . S
C1833 H1836 0.950 . S
C1834 C1833 1.387 . S
C1834 C1837 1.387 . S
H1835 C1831 0.950 . S
H1836 C1833 0.950 . S
C1837 C1828 1.390 . S
C1837 H1830 0.950 . S
C1837 C1834 1.387 . S
C1838 C1839 1.387 . S
C1838 H1842 0.950 . S
C1838 C1847 1.390 . S
C1839 C1838 1.387 . S
C1839 C1841 1.387 . S
H1840 C1847 0.950 . S
C1841 C1839 1.387 . S
C1841 C1843 1.390 . S
C1841 H1845 0.950 . S
H1842 C1838 0.950 . S
C1843 C1841 1.390 . S
C1843 C1844 1.387 . S
C1843 H1846 0.950 . S
C1844 C1843 1.387 . S
C1844 C1847 1.387 . S
H1845 C1841 0.950 . S
H1846 C1843 0.950 . S
C1847 C1838 1.390 . S
C1847 H1840 0.950 . S
C1847 C1844 1.387 . S
C1848 C1849 1.387 . S
C1848 H1852 0.950 . S
C1848 C1857 1.390 . S
C1849 C1848 1.387 . S
C1849 C1851 1.387 . S
H1850 C1857 0.950 . S
C1851 C1849 1.387 . S
C1851 C1853 1.390 . S
C1851 H1855 0.950 . S
H1852 C1848 0.950 . S
C1853 C1851 1.390 . S
C1853 C1854 1.387 . S
C1853 H1856 0.950 . S
C1854 C1853 1.387 . S
C1854 C1857 1.387 . S
H1855 C1851 0.950 . S
H1856 C1853 0.950 . S
C1857 C1848 1.390 . S
C1857 H1850 0.950 . S
C1857 C1854 1.387 . S
C1858 C1859 1.387 . S
C1858 H1862 0.950 . S
C1858 C1867 1.390 . S
C1859 C1858 1.387 . S
C1859 C1861 1.387 . S
H1860 C1867 0.950 . S
C1861 C1859 1.387 . S
C1861 C1863 1.390 . S
C1861 H1865 0.950 . S
H1862 C1858 0.950 . S
C1863 C1861 1.390 . S
C1863 C1864 1.387 . S
C1863 H1866 0.950 . S
C1864 C1863 1.387 . S
C1864 C1867 1.387 . S
H1865 C1861 0.950 . S
H1866 C1863 0.950 . S
C1867 C1858 1.390 . S
C1867 H1860 0.950 . S
C1867 C1864 1.387 . S
C1868 C1869 1.387 . S
C1868 H1872 0.950 . S
C1868 C1877 1.390 . S
C1869 C1868 1.387 . S
C1869 C1871 1.387 . S
H1870 C1877 0.950 . S
C1871 C1869 1.387 . S
C1871 C1873 1.390 . S
C1871 H1875 0.950 . S
H1872 C1868 0.950 . S
C1873 C1871 1.390 . S
C1873 C1874 1.387 . S
C1873 H1876 0.950 . S
C1874 C1873 1.387 . S
C1874 C1877 1.387 . S
H1875 C1871 0.950 . S
H1876 C1873 0.950 . S
C1877 C1868 1.390 . S
C1877 H1870 0.950 . S
C1877 C1874 1.387 . S
C1878 C1879 1.387 . S
C1878 H1882 0.950 . S
C1878 C1887 1.390 . S
C1879 C1878 1.387 . S
C1879 C1881 1.387 . S
H1880 C1887 0.950 . S
C1881 C1879 1.387 . S
C1881 C1883 1.390 . S
C1881 H1885 0.950 . S
H1882 C1878 0.950 . S
C1883 C1881 1.390 . S
C1883 C1884 1.387 . S
C1883 H1886 0.950 . S
C1884 C1883 1.387 . S
C1884 C1887 1.387 . S
H1885 C1881 0.950 . S
H1886 C1883 0.950 . S
C1887 C1878 1.390 . S
C1887 H1880 0.950 . S
C1887 C1884 1.387 . S
C1888 C1889 1.387 . S
C1888 H1892 0.950 . S
C1888 C1897 1.390 . S
C1889 C1888 1.387 . S
C1889 C1891 1.387 . S
H1890 C1897 0.950 . S
C1891 C1889 1.387 . S
C1891 C1893 1.390 . S
C1891 H1895 0.950 . S
H1892 C1888 0.950 . S
C1893 C1891 1.390 . S
C1893 C1894 1.387 . S
C1893 H1896 0.950 . S
C1894 C1893 1.387 . S
C1894 C1897 1.387 . S
H1895 C1891 0.950 . S
H1896 C1893 0.950 . S
C1897 C1888 1.390 . S
C1897 H1890 0.950 . S
C1897 C1894 1.387 . S
C1898 C1899 1.387 . S
C1898 H1902 0.950 . S
C1898 C1907 1.390 . S
C1899 C1898 1.387 . S
C1899 C1901 1.387 . S
H1900 C1907 0.950 . S
C1901 C1899 1.387 . S
C1901 C1903 1.390 . S
C1901 H1905 0.950 . S
H1902 C1898 0.950 . S
C1903 C1901 1.390 . S
C1903 C1904 1.387 . S
C1903 H1906 0.950 . S
C1904 C1903 1.387 . S
C1904 C1907 1.387 . S
H1905 C1901 0.950 . S
H1906 C1903 0.950 . S
C1907 C1898 1.390 . S
C1907 H1900 0.950 . S
C1907 C1904 1.387 . S
C1908 C1909 1.387 . S
C1908 H1912 0.950 . S
C1908 C1917 1.390 . S
C1909 C1908 1.387 . S
C1909 C1911 1.387 . S
H1910 C1917 0.950 . S
C1911 C1909 1.387 . S
C1911 C1913 1.390 . S
C1911 H1915 0.950 . S
H1912 C1908 0.950 . S
C1913 C1911 1.390 . S
C1913 C1914 1.387 . S
C1913 H1916 0.950 . S
C1914 C1913 1.387 . S
C1914 C1917 1.387 . S
H1915 C1911 0.950 . S
H1916 C1913 0.950 . S
C1917 C1908 1.390 . S
C1917 H1910 0.950 . S
C1917 C1914 1.387 . S
C1918 C1919 1.387 . S
C1918 H1922 0.950 . S
C1918 C1927 1.390 . S
C1919 C1918 1.387 . S
C1919 C1921 1.387 . S
H1920 C1927 0.950 . S
C1921 C1919 1.387 . S
C1921 C1923 1.390 . S
C1921 H1925 0.950 . S
H1922 C1918 0.950 . S
C1923 C1921 1.390 . S
C1923 C1924 1.387 . S
C1923 H1926 0.950 . S
C1924 C1923 1.387 . S
C1924 C1927 1.387 . S
H1925 C1921 0.950 . S
H1926 C1923 0.950 . S
C1927 C1918 1.390 . S
C1927 H1920 0.950 . S
C1927 C1924 1.387 . S
C1928 C1929 1.387 . S
C1928 H1932 0.950 . S
C1928 C1937 1.390 . S
C1929 C1928 1.387 . S
C1929 C1931 1.387 . S
H1930 C1937 0.950 . S
C1931 C1929 1.387 . S
C1931 C1933 1.390 . S
C1931 H1935 0.950 . S
H1932 C1928 0.950 . S
C1933 C1931 1.390 . S
C1933 C1934 1.387 . S
C1933 H1936 0.950 . S
C1934 C1933 1.387 . S
C1934 C1937 1.387 . S
H1935 C1931 0.950 . S
H1936 C1933 0.950 . S
C1937 C1928 1.390 . S
C1937 H1930 0.950 . S
C1937 C1934 1.387 . S
C1938 C1939 1.387 . S
C1938 H1942 0.950 . S
C1938 C1947 1.390 . S
C1939 C1938 1.387 . S
C1939 C1941 1.387 . S
H1940 C1947 0.950 . S
C1941 C1939 1.387 . S
C1941 C1943 1.390 . S
C1941 H1945 0.950 . S
H1942 C1938 0.950 . S
C1943 C1941 1.390 . S
C1943 C1944 1.387 . S
C1943 H1946 0.950 . S
C1944 C1943 1.387 . S
C1944 C1947 1.387 . S
H1945 C1941 0.950 . S
H1946 C1943 0.950 . S
C1947 C1938 1.390 . S
C1947 H1940 0.950 . S
C1947 C1944 1.387 . S
C1948 C1949 1.387 . S
C1948 H1952 0.950 . S
C1948 C1957 1.390 . S
C1949 C1948 1.387 . S
C1949 C1951 1.387 . S
H1950 C1957 0.950 . S
C1951 C1949 1.387 . S
C1951 C1953 1.390 . S
C1951 H1955 0.950 . S
H1952 C1948 0.950 . S
C1953 C1951 1.390 . S
C1953 C1954 1.387 . S
C1953 H1956 0.950 . S
C1954 C1953 1.387 . S
C1954 C1957 1.387 . S
H1955 C1951 0.950 . S
H1956 C1953 0.950 . S
C1957 C1948 1.390 . S
C1957 H1950 0.950 . S
C1957 C1954 1.387 . S
C1958 C1959 1.387 . S
C1958 H1962 0.950 . S
C1958 C1967 1.390 . S
C1959 C1958 1.387 . S
C1959 C1961 1.387 . S
H1960 C1967 0.950 . S
C1961 C1959 1.387 . S
C1961 C1963 1.390 . S
C1961 H1965 0.950 . S
H1962 C1958 0.950 . S
C1963 C1961 1.390 . S
C1963 C1964 1.387 . S
C1963 H1966 0.950 . S
C1964 C1963 1.387 . S
C1964 C1967 1.387 . S
H1965 C1961 0.950 . S
H1966 C1963 0.950 . S
C1967 C1958 1.390 . S
C1967 H1960 0.950 . S
C1967 C1964 1.387 . S
C1968 C1969 1.387 . S
C1968 H1972 0.950 . S
C1968 C1977 1.390 . S
C1969 C1968 1.387 . S
C1969 C1971 1.387 . S
H1970 C1977 0.950 . S
C1971 C1969 1.387 . S
C1971 C1973 1.390 . S
C1971 H1975 0.950 . S
H1972 C1968 0.950 . S
C1973 C1971 1.390 . S
C1973 C1974 1.387 . S
C1973 H1976 0.950 . S
C1974 C1973 1.387 . S
C1974 C1977 1.387 . S
H1975 C1971 0.950 . S
H1976 C1973 0.950 . S
C1977 C1968 1.390 . S
C1977 H1970 0.950 . S
C1977 C1974 1.387 . S
C1978 C1979 1.387 . S
C1978 H1982 0.950 . S
C1978 C1987 1.390 . S
C1979 C1978 1.387 . S
C1979 C1981 1.387 . S
H1980 C1987 0.950 . S
C1981 C1979 1.387 . S
C1981 C1983 1.390 . S
C1981 H1985 0.950 . S
H1982 C1978 0.950 . S
C1983 C1981 1.390 . S
C1983 C1984 1.387 . S
C1983 H1986 0.950 . S
C1984 C1983 1.387 . S
C1984 C1987 1.387 . S
H1985 C1981 0.950 . S
H1986 C1983 0.950 . S
C1987 C1978 1.390 . S
C1987 H1980 0.950 . S
C1987 C1984 1.387 . S
C1988 C1989 1.387 . S
C1988 H1992 0.950 . S
C1988 C1997 1.390 . S
C1989 C1988 1.387 . S
C1989 C1991 1.387 . S
H1990 C1997 0.950 . S
C1991 C1989 1.387 . S
C1991 C1993 1.390 . S
C1991 H1995 0.950 . S
H1992 C1988 0.950 . S
C1993 C1991 1.390 . S
C1993 C1994 1.387 . S
C1993 H1996 0.950 . S
C1994 C1993 1.387 . S
C1994 C1997 1.387 . S
H1995 C1991 0.950 . S
H1996 C1993 0.950 . S
C1997 C1988 1.390 . S
C1997 H1990 0.950 . S
C1997 C1994 1.387 . S
C1998 C1999 1.387 . S
C1998 H2002 0.950 . S
C1998 C2007 1.390 . S
C1999 C1998 1.387 . S
C1999 C2001 1.387 . S
H2000 C2007 0.950 . S
C2001 C1999 1.387 . S
C2001 C2003 1.390 . S
C2001 H2005 0.950 . S
H2002 C1998 0.950 . S
C2003 C2001 1.390 . S
C2003 C2004 1.387 . S
C2003 H2006 0.950 . S
C2004 C2003 1.387 . S
C2004 C2007 1.387 . S
H2005 C2001 0.950 . S
H2006 C2003 0.950 . S
C2007 C1998 1.390 . S
C2007 H2000 0.950 . S
C2007 C2004 1.387 . S
C2008 C2009 1.387 . S
C2008 H2012 0.950 . S
C2008 C2017 1.390 . S
C2009 C2008 1.387 . S
C2009 C2011 1.387 . S
H2010 C2017 0.950 . S
C2011 C2009 1.387 . S
C2011 C2013 1.390 . S
C2011 H2015 0.950 . S
H2012 C2008 0.950 . S
C2013 C2011 1.390 . S
C2013 C2014 1.387 . S
C2013 H2016 0.950 . S
C2014 C2013 1.387 . S
C2014 C2017 1.387 . S
H2015 C2011 0.950 . S
H2016 C2013 0.950 . S
C2017 C2008 1.390 . S
C2017 H2010 0.950 . S
C2017 C2014 1.387 . S
C2018 C2019 1.387 . S
C2018 H2022 0.950 . S
C2018 C2027 1.390 . S
C2019 C2018 1.387 . S
C2019 C2021 1.387 . S
H2020 C2027 0.950 . S
C2021 C2019 1.387 . S
C2021 C2023 1.390 . S
C2021 H2025 0.950 . S
H2022 C2018 0.950 . S
C2023 C2021 1.390 . S
C2023 C2024 1.387 . S
C2023 H2026 0.950 . S
C2024 C2023 1.387 . S
C2024 C2027 1.387 . S
H2025 C2021 0.950 . S
H2026 C2023 0.950 . S
C2027 C2018 1.390 . S
C2027 H2020 0.950 . S
C2027 C2024 1.387 . S
C2028 C2029 1.387 . S
C2028 H2032 0.950 . S
C2028 C2037 1.390 . S
C2029 C2028 1.387 . S
C2029 C2031 1.387 . S
H2030 C2037 0.950 . S
C2031 C2029 1.387 . S
C2031 C2033 1.390 . S
C2031 H2035 0.950 . S
H2032 C2028 0.950 . S
C2033 C2031 1.390 . S
C2033 C2034 1.387 . S
C2033 H2036 0.950 . S
C2034 C2033 1.387 . S
C2034 C2037 1.387 . S
H2035 C2031 0.950 . S
H2036 C2033 0.950 . S
C2037 C2028 1.390 . S
C2037 H2030 0.950 . S
C2037 C2034 1.387 . S
C2038 C2039 1.387 . S
C2038 H2042 0.950 . S
C2038 C2047 1.390 . S
C2039 C2038 1.387 . S
C2039 C2041 1.387 . S
H2040 C2047 0.950 . S
C2041 C2039 1.387 . S
C2041 C2043 1.390 . S
C2041 H2045 0.950 . S
H2042 C2038 0.950 . S
C2043 C2041 1.390 . S
C2043 C2044 1.387 . S
C2043 H2046 0.950 . S
C2044 C2043 1.387 . S
C2044 C2047 1.387 . S
H2045 C2041 0.950 . S
H2046 C2043 0.950 . S
C2047 C2038 1.390 . S
C2047 H2040 0.950 . S
C2047 C2044 1.387 . S
C2048 C2049 1.387 . S
C2048 H2052 0.950 . S
C2048 C2057 1.390 . S
C2049 C2048 1.387 . S
C2049 C2051 1.387 . S
H2050 C2057 0.950 . S
C2051 C2049 1.387 . S
C2051 C2053 1.390 . S
C2051 H2055 0.950 . S
H2052 C2048 0.950 . S
C2053 C2051 1.390 . S
C2053 C2054 1.387 . S
C2053 H2056 0.950 . S
C2054 C2053 1.387 . S
C2054 C2057 1.387 . S
H2055 C2051 0.950 . S
H2056 C2053 0.950 . S
C2057 C2048 1.390 . S
C2057 H2050 0.950 . S
C2057 C2054 1.387 . S
C2058 C2059 1.387 . S
C2058 H2062 0.950 . S
C2058 C2067 1.390 . S
C2059 C2058 1.387 . S
C2059 C2061 1.387 . S
H2060 C2067 0.950 . S
C2061 C2059 1.387 . S
C2061 C2063 1.390 . S
C2061 H2065 0.950 . S
H2062 C2058 0.950 . S
C2063 C2061 1.390 . S
C2063 C2064 1.387 . S
C2063 H2066 0.950 . S
C2064 C2063 1.387 . S
C2064 C2067 1.387 . S
H2065 C2061 0.950 . S
H2066 C2063 0.950 . S
C2067 C2058 1.390 . S
C2067 H2060 0.950 . S
C2067 C2064 1.387 . S
C2068 C2069 1.387 . S
C2068 H2072 0.950 . S
C2068 C2077 1.390 . S
C2069 C2068 1.387 . S
C2069 C2071 1.387 . S
H2070 C2077 0.950 . S
C2071 C2069 1.387 . S
C2071 C2073 1.390 . S
C2071 H2075 0.950 . S
H2072 C2068 0.950 . S
C2073 C2071 1.390 . S
C2073 C2074 1.387 . S
C2073 H2076 0.950 . S
C2074 C2073 1.387 . S
C2074 C2077 1.387 . S
H2075 C2071 0.950 . S
H2076 C2073 0.950 . S
C2077 C2068 1.390 . S
C2077 H2070 0.950 . S
C2077 C2074 1.387 . S
C2078 C2079 1.387 . S
C2078 H2082 0.950 . S
C2078 C2087 1.390 . S
C2079 C2078 1.387 . S
C2079 C2081 1.387 . S
H2080 C2087 0.950 . S
C2081 C2079 1.387 . S
C2081 C2083 1.390 . S
C2081 H2085 0.950 . S
H2082 C2078 0.950 . S
C2083 C2081 1.390 . S
C2083 C2084 1.387 . S
C2083 H2086 0.950 . S
C2084 C2083 1.387 . S
C2084 C2087 1.387 . S
H2085 C2081 0.950 . S
H2086 C2083 0.950 . S
C2087 C2078 1.390 . S
C2087 H2080 0.950 . S
C2087 C2084 1.387 . S
C2088 C2089 1.387 . S
C2088 H2092 0.950 . S
C2088 C2097 1.390 . S
C2089 C2088 1.387 . S
C2089 C2091 1.387 . S
H2090 C2097 0.950 . S
C2091 C2089 1.387 . S
C2091 C2093 1.390 . S
C2091 H2095 0.950 . S
H2092 C2088 0.950 . S
C2093 C2091 1.390 . S
C2093 C2094 1.387 . S
C2093 H2096 0.950 . S
C2094 C2093 1.387 . S
C2094 C2097 1.387 . S
H2095 C2091 0.950 . S
H2096 C2093 0.950 . S
C2097 C2088 1.390 . S
C2097 H2090 0.950 . S
C2097 C2094 1.387 . S
C2098 C2099 1.387 . S
C2098 H2102 0.950 . S
C2098 C2107 1.390 . S
C2099 C2098 1.387 . S
C2099 C2101 1.387 . S
H2100 C2107 0.950 . S
C2101 C2099 1.387 . S
C2101 C2103 1.390 . S
C2101 H2105 0.950 . S
H2102 C2098 0.950 . S
C2103 C2101 1.390 . S
C2103 C2104 1.387 . S
C2103 H2106 0.950 . S
C2104 C2103 1.387 . S
C2104 C2107 1.387 . S
H2105 C2101 0.950 . S
H2106 C2103 0.950 . S
C2107 C2098 1.390 . S
C2107 H2100 0.950 . S
C2107 C2104 1.387 . S
C2108 C2109 1.387 . S
C2108 H2112 0.950 . S
C2108 C2117 1.390 . S
C2109 C2108 1.387 . S
C2109 C2111 1.387 . S
H2110 C2117 0.950 . S
C2111 C2109 1.387 . S
C2111 C2113 1.390 . S
C2111 H2115 0.950 . S
H2112 C2108 0.950 . S
C2113 C2111 1.390 . S
C2113 C2114 1.387 . S
C2113 H2116 0.950 . S
C2114 C2113 1.387 . S
C2114 C2117 1.387 . S
H2115 C2111 0.950 . S
H2116 C2113 0.950 . S
C2117 C2108 1.390 . S
C2117 H2110 0.950 . S
C2117 C2114 1.387 . S
C2118 C2119 1.387 . S
C2118 H2122 0.950 . S
C2118 C2127 1.390 . S
C2119 C2118 1.387 . S
C2119 C2121 1.387 . S
H2120 C2127 0.950 . S
C2121 C2119 1.387 . S
C2121 C2123 1.390 . S
C2121 H2125 0.950 . S
H2122 C2118 0.950 . S
C2123 C2121 1.390 . S
C2123 C2124 1.387 . S
C2123 H2126 0.950 . S
C2124 C2123 1.387 . S
C2124 C2127 1.387 . S
H2125 C2121 0.950 . S
H2126 C2123 0.950 . S
C2127 C2118 1.390 . S
C2127 H2120 0.950 . S
C2127 C2124 1.387 . S
C2128 C2129 1.387 . S
C2128 H2132 0.950 . S
C2128 C2137 1.390 . S
C2129 C2128 1.387 . S
C2129 C2131 1.387 . S
H2130 C2137 0.950 . S
C2131 C2129 1.387 . S
C2131 C2133 1.390 . S
C2131 H2135 0.950 . S
H2132 C2128 0.950 . S
C2133 C2131 1.390 . S
C2133 C2134 1.387 . S
C2133 H2136 0.950 . S
C2134 C2133 1.387 . S
C2134 C2137 1.387 . S
H2135 C2131 0.950 . S
H2136 C2133 0.950 . S
C2137 C2128 1.390 . S
C2137 H2130 0.950 . S
C2137 C2134 1.387 . S
C2138 C2139 1.387 . S
C2138 H2142 0.950 . S
C2138 C2147 1.390 . S
C2139 C2138 1.387 . S
C2139 C2141 1.387 . S
H2140 C2147 0.950 . S
C2141 C2139 1.387 . S
C2141 C2143 1.390 . S
C2141 H2145 0.950 . S
H2142 C2138 0.950 . S
C2143 C2141 1.390 . S
C2143 C2144 1.387 . S
C2143 H2146 0.950 . S
C2144 C2143 1.387 . S
C2144 C2147 1.387 . S
H2145 C2141 0.950 . S
H2146 C2143 0.950 . S
C2147 C2138 1.390 . S
C2147 H2140 0.950 . S
C2147 C2144 1.387 . S
C2148 C2149 1.387 . S
C2148 H2152 0.950 . S
C2148 C2157 1.390 . S
C2149 C2148 1.387 . S
C2149 C2151 1.387 . S
H2150 C2157 0.950 . S
C2151 C2149 1.387 . S
C2151 C2153 1.390 . S
C2151 H2155 0.950 . S
H2152 C2148 0.950 . S
C2153 C2151 1.390 . S
C2153 C2154 1.387 . S
C2153 H2156 0.950 . S
C2154 C2153 1.387 . S
C2154 C2157 1.387 . S
H2155 C2151 0.950 . S
H2156 C2153 0.950 . S
C2157 C2148 1.390 . S
C2157 H2150 0.950 . S
C2157 C2154 1.387 . S
C2158 C2159 1.387 . S
C2158 H2162 0.950 . S
C2158 C2167 1.390 . S
C2159 C2158 1.387 . S
C2159 C2161 1.387 . S
H2160 C2167 0.950 . S
C2161 C2159 1.387 . S
C2161 C2163 1.390 . S
C2161 H2165 0.950 . S
H2162 C2158 0.950 . S
C2163 C2161 1.390 . S
C2163 C2164 1.387 . S
C2163 H2166 0.950 . S
C2164 C2163 1.387 . S
C2164 C2167 1.387 . S
H2165 C2161 0.950 . S
H2166 C2163 0.950 . S
C2167 C2158 1.390 . S
C2167 H2160 0.950 . S
C2167 C2164 1.387 . S
C2168 C2169 1.387 . S
C2168 H2172 0.950 . S
C2168 C2177 1.390 . S
C2169 C2168 1.387 . S
C2169 C2171 1.387 . S
H2170 C2177 0.950 . S
C2171 C2169 1.387 . S
C2171 C2173 1.390 . S
C2171 H2175 0.950 . S
H2172 C2168 0.950 . S
C2173 C2171 1.390 . S
C2173 C2174 1.387 . S
C2173 H2176 0.950 . S
C2174 C2173 1.387 . S
C2174 C2177 1.387 . S
H2175 C2171 0.950 . S
H2176 C2173 0.950 . S
C2177 C2168 1.390 . S
C2177 H2170 0.950 . S
C2177 C2174 1.387 . S
C2178 C2179 1.387 . S
C2178 H2182 0.950 . S
C2178 C2187 1.390 . S
C2179 C2178 1.387 . S
C2179 C2181 1.387 . S
H2180 C2187 0.950 . S
C2181 C2179 1.387 . S
C2181 C2183 1.390 . S
C2181 H2185 0.950 . S
H2182 C2178 0.950 . S
C2183 C2181 1.390 . S
C2183 C2184 1.387 . S
C2183 H2186 0.950 . S
C2184 C2183 1.387 . S
C2184 C2187 1.387 . S
H2185 C2181 0.950 . S
H2186 C2183 0.950 . S
C2187 C2178 1.390 . S
C2187 H2180 0.950 . S
C2187 C2184 1.387 . S
C2188 C2189 1.387 . S
C2188 H2192 0.950 . S
C2188 C2197 1.390 . S
C2189 C2188 1.387 . S
C2189 C2191 1.387 . S
H2190 C2197 0.950 . S
C2191 C2189 1.387 . S
C2191 C2193 1.390 . S
C2191 H2195 0.950 . S
H2192 C2188 0.950 . S
C2193 C2191 1.390 . S
C2193 C2194 1.387 . S
C2193 H2196 0.950 . S
C2194 C2193 1.387 . S
C2194 C2197 1.387 . S
H2195 C2191 0.950 . S
H2196 C2193 0.950 . S
C2197 C2188 1.390 . S
C2197 H2190 0.950 . S
C2197 C2194 1.387 . S
C2198 C2199 1.387 . S
C2198 H2202 0.950 . S
C2198 C2207 1.390 . S
C2199 C2198 1.387 . S
C2199 C2201 1.387 . S
H2200 C2207 0.950 . S
C2201 C2199 1.387 . S
C2201 C2203 1.390 . S
C2201 H2205 0.950 . S
H2202 C2198 0.950 . S
C2203 C2201 1.390 . S
C2203 C2204 1.387 . S
C2203 H2206 0.950 . S
C2204 C2203 1.387 . S
C2204 C2207 1.387 . S
H2205 C2201 0.950 . S
H2206 C2203 0.950 . S
C2207 C2198 1.390 . S
C2207 H2200 0.950 . S
C2207 C2204 1.387 . S
C2208 C2209 1.387 . S
C2208 H2212 0.950 . S
C2208 C2217 1.390 1_455 S
C2209 C2208 1.387 . S
C2209 C2211 1.387 . S
H2210 C2217 0.950 . S
C2211 C2209 1.387 . S
C2211 C2213 1.390 1_455 S
C2211 H2215 0.950 . S
H2212 C2208 0.950 . S
C2213 C2211 1.390 1_655 S
C2213 C2214 1.387 . S
C2213 H2216 0.950 . S
C2214 C2213 1.387 . S
C2214 C2217 1.387 . S
H2215 C2211 0.950 . S
H2216 C2213 0.950 . S
C2217 C2208 1.390 1_655 S
C2217 H2210 0.950 . S
C2217 C2214 1.387 . S
C2218 C2219 1.387 . S
C2218 H2222 0.950 . S
C2218 C2227 1.390 1_545 S
C2219 C2218 1.387 . S
C2219 C2221 1.387 . S
H2220 C2227 0.950 . S
C2221 C2219 1.387 . S
C2221 C2223 1.390 1_545 S
C2221 H2225 0.950 . S
H2222 C2218 0.950 . S
C2223 C2221 1.390 1_565 S
C2223 C2224 1.387 . S
C2223 H2226 0.950 . S
C2224 C2223 1.387 . S
C2224 C2227 1.387 . S
H2225 C2221 0.950 . S
H2226 C2223 0.950 . S
C2227 C2218 1.390 1_565 S
C2227 H2220 0.950 . S
C2227 C2224 1.387 . S
C2228 C2229 1.387 . S
C2228 H2232 0.950 . S
C2228 C2237 1.390 1_655 S
C2229 C2228 1.387 . S
C2229 C2231 1.387 . S
H2230 C2237 0.950 . S
C2231 C2229 1.387 . S
C2231 C2233 1.390 1_655 S
C2231 H2235 0.950 . S
H2232 C2228 0.950 . S
C2233 C2231 1.390 1_455 S
C2233 C2234 1.387 . S
C2233 H2236 0.950 . S
C2234 C2233 1.387 . S
C2234 C2237 1.387 . S
H2235 C2231 0.950 . S
H2236 C2233 0.950 . S
C2237 C2228 1.390 1_455 S
C2237 H2230 0.950 . S
C2237 C2234 1.387 . S
C2238 C2239 1.387 . S
C2238 H2242 0.950 . S
C2238 C2247 1.390 1_565 S
C2239 C2238 1.387 . S
C2239 C2241 1.387 . S
H2240 C2247 0.950 . S
C2241 C2239 1.387 . S
C2241 C2243 1.390 1_565 S
C2241 H2245 0.950 . S
H2242 C2238 0.950 . S
C2243 C2241 1.390 1_545 S
C2243 C2244 1.387 . S
C2243 H2246 0.950 . S
C2244 C2243 1.387 . S
C2244 C2247 1.387 . S
H2245 C2241 0.950 . S
H2246 C2243 0.950 . S
C2247 C2238 1.390 1_545 S
C2247 H2240 0.950 . S
C2247 C2244 1.387 . S
C2248 C2249 1.387 . S
C2248 H2252 0.950 . S
C2248 C2257 1.390 1_655 S
C2249 C2248 1.387 . S
C2249 C2251 1.387 . S
H2250 C2257 0.950 . S
C2251 C2249 1.387 . S
C2251 C2253 1.390 1_655 S
C2251 H2255 0.950 . S
H2252 C2248 0.950 . S
C2253 C2251 1.390 1_455 S
C2253 C2254 1.387 . S
C2253 H2256 0.950 . S
C2254 C2253 1.387 . S
C2254 C2257 1.387 . S
H2255 C2251 0.950 . S
H2256 C2253 0.950 . S
C2257 C2248 1.390 1_455 S
C2257 H2250 0.950 . S
C2257 C2254 1.387 . S
C2258 C2259 1.387 . S
C2258 H2262 0.950 . S
C2258 C2267 1.390 1_545 S
C2259 C2258 1.387 . S
C2259 C2261 1.387 . S
H2260 C2267 0.950 . S
C2261 C2259 1.387 . S
C2261 C2263 1.390 1_545 S
C2261 H2265 0.950 . S
H2262 C2258 0.950 . S
C2263 C2261 1.390 1_565 S
C2263 C2264 1.387 . S
C2263 H2266 0.950 . S
C2264 C2263 1.387 . S
C2264 C2267 1.387 . S
H2265 C2261 0.950 . S
H2266 C2263 0.950 . S
C2267 C2258 1.390 1_565 S
C2267 H2260 0.950 . S
C2267 C2264 1.387 . S
C2268 C2269 1.387 . S
C2268 H2272 0.950 . S
C2268 C2277 1.390 1_455 S
C2269 C2268 1.387 . S
C2269 C2271 1.387 . S
H2270 C2277 0.950 . S
C2271 C2269 1.387 . S
C2271 C2273 1.390 1_455 S
C2271 H2275 0.950 . S
H2272 C2268 0.950 . S
C2273 C2271 1.390 1_655 S
C2273 C2274 1.387 . S
C2273 H2276 0.950 . S
C2274 C2273 1.387 . S
C2274 C2277 1.387 . S
H2275 C2271 0.950 . S
H2276 C2273 0.950 . S
C2277 C2268 1.390 1_655 S
C2277 H2270 0.950 . S
C2277 C2274 1.387 . S
C2278 C2279 1.387 . S
C2278 H2282 0.950 . S
C2278 C2287 1.390 1_545 S
C2279 C2278 1.387 . S
C2279 C2281 1.387 . S
H2280 C2287 0.950 . S
C2281 C2279 1.387 . S
C2281 C2283 1.390 1_545 S
C2281 H2285 0.950 . S
H2282 C2278 0.950 . S
C2283 C2281 1.390 1_565 S
C2283 C2284 1.387 . S
C2283 H2286 0.950 . S
C2284 C2283 1.387 . S
C2284 C2287 1.387 . S
H2285 C2281 0.950 . S
H2286 C2283 0.950 . S
C2287 C2278 1.390 1_565 S
C2287 H2280 0.950 . S
C2287 C2284 1.387 . S
C2288 C2289 1.387 . S
C2288 H2292 0.950 . S
C2288 C2297 1.390 1_545 S
C2289 C2288 1.387 . S
C2289 C2291 1.387 . S
H2290 C2297 0.950 . S
C2291 C2289 1.387 . S
C2291 C2293 1.390 1_545 S
C2291 H2295 0.950 . S
H2292 C2288 0.950 . S
C2293 C2291 1.390 1_565 S
C2293 C2294 1.387 . S
C2293 H2296 0.950 . S
C2294 C2293 1.387 . S
C2294 C2297 1.387 . S
H2295 C2291 0.950 . S
H2296 C2293 0.950 . S
C2297 C2288 1.390 1_565 S
C2297 H2290 0.950 . S
C2297 C2294 1.387 . S
C2298 C2299 1.387 . S
C2298 H2302 0.950 . S
C2298 C2307 1.390 1_455 S
C2299 C2298 1.387 . S
C2299 C2301 1.387 . S
H2300 C2307 0.950 . S
C2301 C2299 1.387 . S
C2301 C2303 1.390 1_455 S
C2301 H2305 0.950 . S
H2302 C2298 0.950 . S
C2303 C2301 1.390 1_655 S
C2303 C2304 1.387 . S
C2303 H2306 0.950 . S
C2304 C2303 1.387 . S
C2304 C2307 1.387 . S
H2305 C2301 0.950 . S
H2306 C2303 0.950 . S
C2307 C2298 1.390 1_655 S
C2307 H2300 0.950 . S
C2307 C2304 1.387 . S
C2308 C2309 1.387 . S
C2308 H2312 0.950 . S
C2308 C2317 1.390 1_565 S
C2309 C2308 1.387 . S
C2309 C2311 1.387 . S
H2310 C2317 0.950 . S
C2311 C2309 1.387 . S
C2311 C2313 1.390 1_565 S
C2311 H2315 0.950 . S
H2312 C2308 0.950 . S
C2313 C2311 1.390 1_545 S
C2313 C2314 1.387 . S
C2313 H2316 0.950 . S
C2314 C2313 1.387 . S
C2314 C2317 1.387 . S
H2315 C2311 0.950 . S
H2316 C2313 0.950 . S
C2317 C2308 1.390 1_545 S
C2317 H2310 0.950 . S
C2317 C2314 1.387 . S
C2318 C2319 1.387 . S
C2318 H2322 0.950 . S
C2318 C2327 1.390 1_455 S
C2319 C2318 1.387 . S
C2319 C2321 1.387 . S
H2320 C2327 0.950 . S
C2321 C2319 1.387 . S
C2321 C2323 1.390 1_455 S
C2321 H2325 0.950 . S
H2322 C2318 0.950 . S
C2323 C2321 1.390 1_655 S
C2323 C2324 1.387 . S
C2323 H2326 0.950 . S
C2324 C2323 1.387 . S
C2324 C2327 1.387 . S
H2325 C2321 0.950 . S
H2326 C2323 0.950 . S
C2327 C2318 1.390 1_655 S
C2327 H2320 0.950 . S
C2327 C2324 1.387 . S
C2328 C2329 1.387 . S
C2328 H2332 0.950 . S
C2328 C2337 1.390 1_565 S
C2329 C2328 1.387 . S
C2329 C2331 1.387 . S
H2330 C2337 0.950 . S
C2331 C2329 1.387 . S
C2331 C2333 1.390 1_565 S
C2331 H2335 0.950 . S
H2332 C2328 0.950 . S
C2333 C2331 1.390 1_545 S
C2333 C2334 1.387 . S
C2333 H2336 0.950 . S
C2334 C2333 1.387 . S
C2334 C2337 1.387 . S
H2335 C2331 0.950 . S
H2336 C2333 0.950 . S
C2337 C2328 1.390 1_545 S
C2337 H2330 0.950 . S
C2337 C2334 1.387 . S
C2338 C2339 1.387 . S
C2338 H2342 0.950 . S
C2338 C2347 1.390 1_455 S
C2339 C2338 1.387 . S
C2339 C2341 1.387 . S
H2340 C2347 0.950 . S
C2341 C2339 1.387 . S
C2341 C2343 1.390 1_455 S
C2341 H2345 0.950 . S
H2342 C2338 0.950 . S
C2343 C2341 1.390 1_655 S
C2343 C2344 1.387 . S
C2343 H2346 0.950 . S
C2344 C2343 1.387 . S
C2344 C2347 1.387 . S
H2345 C2341 0.950 . S
H2346 C2343 0.950 . S
C2347 C2338 1.390 1_655 S
C2347 H2340 0.950 . S
C2347 C2344 1.387 . S
C2348 C2349 1.387 . S
C2348 H2352 0.950 . S
C2348 C2357 1.390 1_545 S
C2349 C2348 1.387 . S
C2349 C2351 1.387 . S
H2350 C2357 0.950 . S
C2351 C2349 1.387 . S
C2351 C2353 1.390 1_545 S
C2351 H2355 0.950 . S
H2352 C2348 0.950 . S
C2353 C2351 1.390 1_565 S
C2353 C2354 1.387 . S
C2353 H2356 0.950 . S
C2354 C2353 1.387 . S
C2354 C2357 1.387 . S
H2355 C2351 0.950 . S
H2356 C2353 0.950 . S
C2357 C2348 1.390 1_565 S
C2357 H2350 0.950 . S
C2357 C2354 1.387 . S
C2358 C2359 1.387 . S
C2358 H2362 0.950 . S
C2358 C2367 1.390 1_455 S
C2359 C2358 1.387 . S
C2359 C2361 1.387 . S
H2360 C2367 0.950 . S
C2361 C2359 1.387 . S
C2361 C2363 1.390 1_455 S
C2361 H2365 0.950 . S
H2362 C2358 0.950 . S
C2363 C2361 1.390 1_655 S
C2363 C2364 1.387 . S
C2363 H2366 0.950 . S
C2364 C2363 1.387 . S
C2364 C2367 1.387 . S
H2365 C2361 0.950 . S
H2366 C2363 0.950 . S
C2367 C2358 1.390 1_655 S
C2367 H2360 0.950 . S
C2367 C2364 1.387 . S
C2368 C2369 1.387 . S
C2368 H2372 0.950 . S
C2368 C2377 1.390 1_554 S
C2369 C2368 1.387 . S
C2369 C2371 1.387 . S
H2370 C2377 0.950 . S
C2371 C2369 1.387 . S
C2371 C2373 1.390 1_554 S
C2371 H2375 0.950 . S
H2372 C2368 0.950 . S
C2373 C2371 1.390 1_556 S
C2373 C2374 1.387 . S
C2373 H2376 0.950 . S
C2374 C2373 1.387 . S
C2374 C2377 1.387 . S
H2375 C2371 0.950 . S
H2376 C2373 0.950 . S
C2377 C2368 1.390 1_556 S
C2377 H2370 0.950 . S
C2377 C2374 1.387 . S
C2378 C2379 1.387 . S
C2378 H2382 0.950 . S
C2378 C2387 1.390 1_556 S
C2379 C2378 1.387 . S
C2379 C2381 1.387 . S
H2380 C2387 0.950 . S
C2381 C2379 1.387 . S
C2381 C2383 1.390 1_556 S
C2381 H2385 0.950 . S
H2382 C2378 0.950 . S
C2383 C2381 1.390 1_554 S
C2383 C2384 1.387 . S
C2383 H2386 0.950 . S
C2384 C2383 1.387 . S
C2384 C2387 1.387 . S
H2385 C2381 0.950 . S
H2386 C2383 0.950 . S
C2387 C2378 1.390 1_554 S
C2387 H2380 0.950 . S
C2387 C2384 1.387 . S
C2388 C2389 1.387 . S
C2388 H2392 0.950 . S
C2388 C2397 1.390 1_554 S
C2389 C2388 1.387 . S
C2389 C2391 1.387 . S
H2390 C2397 0.950 . S
C2391 C2389 1.387 . S
C2391 C2393 1.390 1_554 S
C2391 H2395 0.950 . S
H2392 C2388 0.950 . S
C2393 C2391 1.390 1_556 S
C2393 C2394 1.387 . S
C2393 H2396 0.950 . S
C2394 C2393 1.387 . S
C2394 C2397 1.387 . S
H2395 C2391 0.950 . S
H2396 C2393 0.950 . S
C2397 C2388 1.390 1_556 S
C2397 H2390 0.950 . S
C2397 C2394 1.387 . S
C2398 C2399 1.387 . S
C2398 H2402 0.950 . S
C2398 C2407 1.390 1_556 S
C2399 C2398 1.387 . S
C2399 C2401 1.387 . S
H2400 C2407 0.950 . S
C2401 C2399 1.387 . S
C2401 C2403 1.390 1_556 S
C2401 H2405 0.950 . S
H2402 C2398 0.950 . S
C2403 C2401 1.390 1_554 S
C2403 C2404 1.387 . S
C2403 H2406 0.950 . S
C2404 C2403 1.387 . S
C2404 C2407 1.387 . S
H2405 C2401 0.950 . S
H2406 C2403 0.950 . S
C2407 C2398 1.390 1_554 S
C2407 H2400 0.950 . S
C2407 C2404 1.387 . S
C2408 C2409 1.387 . S
C2408 H2412 0.950 . S
C2408 C2417 1.390 1_554 S
C2409 C2408 1.387 . S
C2409 C2411 1.387 . S
H2410 C2417 0.950 . S
C2411 C2409 1.387 . S
C2411 C2413 1.390 1_554 S
C2411 H2415 0.950 . S
H2412 C2408 0.950 . S
C2413 C2411 1.390 1_556 S
C2413 C2414 1.387 . S
C2413 H2416 0.950 . S
C2414 C2413 1.387 . S
C2414 C2417 1.387 . S
H2415 C2411 0.950 . S
H2416 C2413 0.950 . S
C2417 C2408 1.390 1_556 S
C2417 H2410 0.950 . S
C2417 C2414 1.387 . S
C2418 C2419 1.387 . S
C2418 H2422 0.950 . S
C2418 C2427 1.390 1_554 S
C2419 C2418 1.387 . S
C2419 C2421 1.387 . S
H2420 C2427 0.950 . S
C2421 C2419 1.387 . S
C2421 C2423 1.390 1_554 S
C2421 H2425 0.950 . S
H2422 C2418 0.950 . S
C2423 C2421 1.390 1_556 S
C2423 C2424 1.387 . S
C2423 H2426 0.950 . S
C2424 C2423 1.387 . S
C2424 C2427 1.387 . S
H2425 C2421 0.950 . S
H2426 C2423 0.950 . S
C2427 C2418 1.390 1_556 S
C2427 H2420 0.950 . S
C2427 C2424 1.387 . S
C2428 C2429 1.387 . S
C2428 H2432 0.950 . S
C2428 C2437 1.390 1_556 S
C2429 C2428 1.387 . S
C2429 C2431 1.387 . S
H2430 C2437 0.950 . S
C2431 C2429 1.387 . S
C2431 C2433 1.390 1_556 S
C2431 H2435 0.950 . S
H2432 C2428 0.950 . S
C2433 C2431 1.390 1_554 S
C2433 C2434 1.387 . S
C2433 H2436 0.950 . S
C2434 C2433 1.387 . S
C2434 C2437 1.387 . S
H2435 C2431 0.950 . S
H2436 C2433 0.950 . S
C2437 C2428 1.390 1_554 S
C2437 H2430 0.950 . S
C2437 C2434 1.387 . S
C2438 C2439 1.387 . S
C2438 H2442 0.950 . S
C2438 C2447 1.390 1_556 S
C2439 C2438 1.387 . S
C2439 C2441 1.387 . S
H2440 C2447 0.950 . S
C2441 C2439 1.387 . S
C2441 C2443 1.390 1_556 S
C2441 H2445 0.950 . S
H2442 C2438 0.950 . S
C2443 C2441 1.390 1_554 S
C2443 C2444 1.387 . S
C2443 H2446 0.950 . S
C2444 C2443 1.387 . S
C2444 C2447 1.387 . S
H2445 C2441 0.950 . S
H2446 C2443 0.950 . S
C2447 C2438 1.390 1_554 S
C2447 H2440 0.950 . S
C2447 C2444 1.387 . S
C2448 C2449 1.387 . S
C2448 H2452 0.950 . S
C2448 C2457 1.390 . S
C2449 C2448 1.387 . S
C2449 C2451 1.387 . S
H2450 C2457 0.950 . S
C2451 C2449 1.387 . S
C2451 C2453 1.390 . S
C2451 H2455 0.950 . S
H2452 C2448 0.950 . S
C2453 C2451 1.390 . S
C2453 C2454 1.387 . S
C2453 H2456 0.950 . S
C2454 C2453 1.387 . S
C2454 C2457 1.387 . S
H2455 C2451 0.950 . S
H2456 C2453 0.950 . S
C2457 C2448 1.390 . S
C2457 H2450 0.950 . S
C2457 C2454 1.387 . S
C2458 C2459 1.387 . S
C2458 H2462 0.950 . S
C2458 C2467 1.390 . S
C2459 C2458 1.387 . S
C2459 C2461 1.387 . S
H2460 C2467 0.950 . S
C2461 C2459 1.387 . S
C2461 C2463 1.390 . S
C2461 H2465 0.950 . S
H2462 C2458 0.950 . S
C2463 C2461 1.390 . S
C2463 C2464 1.387 . S
C2463 H2466 0.950 . S
C2464 C2463 1.387 . S
C2464 C2467 1.387 . S
H2465 C2461 0.950 . S
H2466 C2463 0.950 . S
C2467 C2458 1.390 . S
C2467 H2460 0.950 . S
C2467 C2464 1.387 . S
C2468 C2469 1.387 . S
C2468 H2472 0.950 . S
C2468 C2477 1.390 . S
C2469 C2468 1.387 . S
C2469 C2471 1.387 . S
H2470 C2477 0.950 . S
C2471 C2469 1.387 . S
C2471 C2473 1.390 . S
C2471 H2475 0.950 . S
H2472 C2468 0.950 . S
C2473 C2471 1.390 . S
C2473 C2474 1.387 . S
C2473 H2476 0.950 . S
C2474 C2473 1.387 . S
C2474 C2477 1.387 . S
H2475 C2471 0.950 . S
H2476 C2473 0.950 . S
C2477 C2468 1.390 . S
C2477 H2470 0.950 . S
C2477 C2474 1.387 . S
C2478 C2479 1.387 . S
C2478 H2482 0.950 . S
C2478 C2487 1.390 . S
C2479 C2478 1.387 . S
C2479 C2481 1.387 . S
H2480 C2487 0.950 . S
C2481 C2479 1.387 . S
C2481 C2483 1.390 . S
C2481 H2485 0.950 . S
H2482 C2478 0.950 . S
C2483 C2481 1.390 . S
C2483 C2484 1.387 . S
C2483 H2486 0.950 . S
C2484 C2483 1.387 . S
C2484 C2487 1.387 . S
H2485 C2481 0.950 . S
H2486 C2483 0.950 . S
C2487 C2478 1.390 . S
C2487 H2480 0.950 . S
C2487 C2484 1.387 . S
C2488 C2489 1.387 . S
C2488 H2492 0.950 . S
C2488 C2497 1.390 . S
C2489 C2488 1.387 . S
C2489 C2491 1.387 . S
H2490 C2497 0.950 . S
C2491 C2489 1.387 . S
C2491 C2493 1.390 . S
C2491 H2495 0.950 . S
H2492 C2488 0.950 . S
C2493 C2491 1.390 . S
C2493 C2494 1.387 . S
C2493 H2496 0.950 . S
C2494 C2493 1.387 . S
C2494 C2497 1.387 . S
H2495 C2491 0.950 . S
H2496 C2493 0.950 . S
C2497 C2488 1.390 . S
C2497 H2490 0.950 . S
C2497 C2494 1.387 . S
C2498 C2499 1.387 . S
C2498 H2502 0.950 . S
C2498 C2507 1.390 . S
C2499 C2498 1.387 . S
C2499 C2501 1.387 . S
H2500 C2507 0.950 . S
C2501 C2499 1.387 . S
C2501 C2503 1.390 . S
C2501 H2505 0.950 . S
H2502 C2498 0.950 . S
C2503 C2501 1.390 . S
C2503 C2504 1.387 . S
C2503 H2506 0.950 . S
C2504 C2503 1.387 . S
C2504 C2507 1.387 . S
H2505 C2501 0.950 . S
H2506 C2503 0.950 . S
C2507 C2498 1.390 . S
C2507 H2500 0.950 . S
C2507 C2504 1.387 . S
C2508 C2509 1.387 . S
C2508 H2512 0.950 . S
C2508 C2517 1.390 . S
C2509 C2508 1.387 . S
C2509 C2511 1.387 . S
H2510 C2517 0.950 . S
C2511 C2509 1.387 . S
C2511 C2513 1.390 . S
C2511 H2515 0.950 . S
H2512 C2508 0.950 . S
C2513 C2511 1.390 . S
C2513 C2514 1.387 . S
C2513 H2516 0.950 . S
C2514 C2513 1.387 . S
C2514 C2517 1.387 . S
H2515 C2511 0.950 . S
H2516 C2513 0.950 . S
C2517 C2508 1.390 . S
C2517 H2510 0.950 . S
C2517 C2514 1.387 . S
C2518 C2519 1.387 . S
C2518 H2522 0.950 . S
C2518 C2527 1.390 . S
C2519 C2518 1.387 . S
C2519 C2521 1.387 . S
H2520 C2527 0.950 . S
C2521 C2519 1.387 . S
C2521 C2523 1.390 . S
C2521 H2525 0.950 . S
H2522 C2518 0.950 . S
C2523 C2521 1.390 . S
C2523 C2524 1.387 . S
C2523 H2526 0.950 . S
C2524 C2523 1.387 . S
C2524 C2527 1.387 . S
H2525 C2521 0.950 . S
H2526 C2523 0.950 . S
C2527 C2518 1.390 . S
C2527 H2520 0.950 . S
C2527 C2524 1.387 . S
C2528 C2529 1.387 . S
C2528 H2532 0.950 . S
C2528 C2537 1.390 . S
C2529 C2528 1.387 . S
C2529 C2531 1.387 . S
H2530 C2537 0.950 . S
C2531 C2529 1.387 . S
C2531 C2533 1.390 . S
C2531 H2535 0.950 . S
H2532 C2528 0.950 . S
C2533 C2531 1.390 . S
C2533 C2534 1.387 . S
C2533 H2536 0.950 . S
C2534 C2533 1.387 . S
C2534 C2537 1.387 . S
H2535 C2531 0.950 . S
H2536 C2533 0.950 . S
C2537 C2528 1.390 . S
C2537 H2530 0.950 . S
C2537 C2534 1.387 . S
C2538 C2539 1.387 . S
C2538 H2542 0.950 . S
C2538 C2547 1.390 . S
C2539 C2538 1.387 . S
C2539 C2541 1.387 . S
H2540 C2547 0.950 . S
C2541 C2539 1.387 . S
C2541 C2543 1.390 . S
C2541 H2545 0.950 . S
H2542 C2538 0.950 . S
C2543 C2541 1.390 . S
C2543 C2544 1.387 . S
C2543 H2546 0.950 . S
C2544 C2543 1.387 . S
C2544 C2547 1.387 . S
H2545 C2541 0.950 . S
H2546 C2543 0.950 . S
C2547 C2538 1.390 . S
C2547 H2540 0.950 . S
C2547 C2544 1.387 . S
C2548 C2549 1.387 . S
C2548 H2552 0.950 . S
C2548 C2557 1.390 . S
C2549 C2548 1.387 . S
C2549 C2551 1.387 . S
H2550 C2557 0.950 . S
C2551 C2549 1.387 . S
C2551 C2553 1.390 . S
C2551 H2555 0.950 . S
H2552 C2548 0.950 . S
C2553 C2551 1.390 . S
C2553 C2554 1.387 . S
C2553 H2556 0.950 . S
C2554 C2553 1.387 . S
C2554 C2557 1.387 . S
H2555 C2551 0.950 . S
H2556 C2553 0.950 . S
C2557 C2548 1.390 . S
C2557 H2550 0.950 . S
C2557 C2554 1.387 . S
C2558 C2559 1.387 . S
C2558 H2562 0.950 . S
C2558 C2567 1.390 . S
C2559 C2558 1.387 . S
C2559 C2561 1.387 . S
H2560 C2567 0.950 . S
C2561 C2559 1.387 . S
C2561 C2563 1.390 . S
C2561 H2565 0.950 . S
H2562 C2558 0.950 . S
C2563 C2561 1.390 . S
C2563 C2564 1.387 . S
C2563 H2566 0.950 . S
C2564 C2563 1.387 . S
C2564 C2567 1.387 . S
H2565 C2561 0.950 . S
H2566 C2563 0.950 . S
C2567 C2558 1.390 . S
C2567 H2560 0.950 . S
C2567 C2564 1.387 . S
C2568 C2569 1.387 . S
C2568 H2572 0.950 . S
C2568 C2577 1.390 . S
C2569 C2568 1.387 . S
C2569 C2571 1.387 . S
H2570 C2577 0.950 . S
C2571 C2569 1.387 . S
C2571 C2573 1.390 . S
C2571 H2575 0.950 . S
H2572 C2568 0.950 . S
C2573 C2571 1.390 . S
C2573 C2574 1.387 . S
C2573 H2576 0.950 . S
C2574 C2573 1.387 . S
C2574 C2577 1.387 . S
H2575 C2571 0.950 . S
H2576 C2573 0.950 . S
C2577 C2568 1.390 . S
C2577 H2570 0.950 . S
C2577 C2574 1.387 . S
C2578 C2579 1.387 . S
C2578 H2582 0.950 . S
C2578 C2587 1.390 . S
C2579 C2578 1.387 . S
C2579 C2581 1.387 . S
H2580 C2587 0.950 . S
C2581 C2579 1.387 . S
C2581 C2583 1.390 . S
C2581 H2585 0.950 . S
H2582 C2578 0.950 . S
C2583 C2581 1.390 . S
C2583 C2584 1.387 . S
C2583 H2586 0.950 . S
C2584 C2583 1.387 . S
C2584 C2587 1.387 . S
H2585 C2581 0.950 . S
H2586 C2583 0.950 . S
C2587 C2578 1.390 . S
C2587 H2580 0.950 . S
C2587 C2584 1.387 . S
C2588 C2589 1.387 . S
C2588 H2592 0.950 . S
C2588 C2597 1.390 . S
C2589 C2588 1.387 . S
C2589 C2591 1.387 . S
H2590 C2597 0.950 . S
C2591 C2589 1.387 . S
C2591 C2593 1.390 . S
C2591 H2595 0.950 . S
H2592 C2588 0.950 . S
C2593 C2591 1.390 . S
C2593 C2594 1.387 . S
C2593 H2596 0.950 . S
C2594 C2593 1.387 . S
C2594 C2597 1.387 . S
H2595 C2591 0.950 . S
H2596 C2593 0.950 . S
C2597 C2588 1.390 . S
C2597 H2590 0.950 . S
C2597 C2594 1.387 . S
C2598 C2599 1.387 . S
C2598 H2602 0.950 . S
C2598 C2607 1.390 . S
C2599 C2598 1.387 . S
C2599 C2601 1.387 . S
H2600 C2607 0.950 . S
C2601 C2599 1.387 . S
C2601 C2603 1.390 . S
C2601 H2605 0.950 . S
H2602 C2598 0.950 . S
C2603 C2601 1.390 . S
C2603 C2604 1.387 . S
C2603 H2606 0.950 . S
C2604 C2603 1.387 . S
C2604 C2607 1.387 . S
H2605 C2601 0.950 . S
H2606 C2603 0.950 . S
C2607 C2598 1.390 . S
C2607 H2600 0.950 . S
C2607 C2604 1.387 . S
C2608 C2609 1.387 . S
C2608 H2612 0.950 . S
C2608 C2617 1.390 . S
C2609 C2608 1.387 . S
C2609 C2611 1.387 . S
H2610 C2617 0.950 . S
C2611 C2609 1.387 . S
C2611 C2613 1.390 . S
C2611 H2615 0.950 . S
H2612 C2608 0.950 . S
C2613 C2611 1.390 . S
C2613 C2614 1.387 . S
C2613 H2616 0.950 . S
C2614 C2613 1.387 . S
C2614 C2617 1.387 . S
H2615 C2611 0.950 . S
H2616 C2613 0.950 . S
C2617 C2608 1.390 . S
C2617 H2610 0.950 . S
C2617 C2614 1.387 . S
C2618 C2619 1.387 . S
C2618 H2622 0.950 . S
C2618 C2627 1.390 . S
C2619 C2618 1.387 . S
C2619 C2621 1.387 . S
H2620 C2627 0.950 . S
C2621 C2619 1.387 . S
C2621 C2623 1.390 . S
C2621 H2625 0.950 . S
H2622 C2618 0.950 . S
C2623 C2621 1.390 . S
C2623 C2624 1.387 . S
C2623 H2626 0.950 . S
C2624 C2623 1.387 . S
C2624 C2627 1.387 . S
H2625 C2621 0.950 . S
H2626 C2623 0.950 . S
C2627 C2618 1.390 . S
C2627 H2620 0.950 . S
C2627 C2624 1.387 . S
C2628 C2629 1.387 . S
C2628 H2632 0.950 . S
C2628 C2637 1.390 . S
C2629 C2628 1.387 . S
C2629 C2631 1.387 . S
H2630 C2637 0.950 . S
C2631 C2629 1.387 . S
C2631 C2633 1.390 . S
C2631 H2635 0.950 . S
H2632 C2628 0.950 . S
C2633 C2631 1.390 . S
C2633 C2634 1.387 . S
C2633 H2636 0.950 . S
C2634 C2633 1.387 . S
C2634 C2637 1.387 . S
H2635 C2631 0.950 . S
H2636 C2633 0.950 . S
C2637 C2628 1.390 . S
C2637 H2630 0.950 . S
C2637 C2634 1.387 . S
C2638 C2639 1.387 . S
C2638 H2642 0.950 . S
C2638 C2647 1.390 . S
C2639 C2638 1.387 . S
C2639 C2641 1.387 . S
H2640 C2647 0.950 . S
C2641 C2639 1.387 . S
C2641 C2643 1.390 . S
C2641 H2645 0.950 . S
H2642 C2638 0.950 . S
C2643 C2641 1.390 . S
C2643 C2644 1.387 . S
C2643 H2646 0.950 . S
C2644 C2643 1.387 . S
C2644 C2647 1.387 . S
H2645 C2641 0.950 . S
H2646 C2643 0.950 . S
C2647 C2638 1.390 . S
C2647 H2640 0.950 . S
C2647 C2644 1.387 . S
C2648 C2649 1.387 . S
C2648 H2652 0.950 . S
C2648 C2657 1.390 . S
C2649 C2648 1.387 . S
C2649 C2651 1.387 . S
H2650 C2657 0.950 . S
C2651 C2649 1.387 . S
C2651 C2653 1.390 . S
C2651 H2655 0.950 . S
H2652 C2648 0.950 . S
C2653 C2651 1.390 . S
C2653 C2654 1.387 . S
C2653 H2656 0.950 . S
C2654 C2653 1.387 . S
C2654 C2657 1.387 . S
H2655 C2651 0.950 . S
H2656 C2653 0.950 . S
C2657 C2648 1.390 . S
C2657 H2650 0.950 . S
C2657 C2654 1.387 . S
C2658 C2659 1.387 . S
C2658 H2662 0.950 . S
C2658 C2667 1.390 . S
C2659 C2658 1.387 . S
C2659 C2661 1.387 . S
H2660 C2667 0.950 . S
C2661 C2659 1.387 . S
C2661 C2663 1.390 . S
C2661 H2665 0.950 . S
H2662 C2658 0.950 . S
C2663 C2661 1.390 . S
C2663 C2664 1.387 . S
C2663 H2666 0.950 . S
C2664 C2663 1.387 . S
C2664 C2667 1.387 . S
H2665 C2661 0.950 . S
H2666 C2663 0.950 . S
C2667 C2658 1.390 . S
C2667 H2660 0.950 . S
C2667 C2664 1.387 . S
C2668 C2669 1.387 . S
C2668 H2672 0.950 . S
C2668 C2677 1.390 . S
C2669 C2668 1.387 . S
C2669 C2671 1.387 . S
H2670 C2677 0.950 . S
C2671 C2669 1.387 . S
C2671 C2673 1.390 . S
C2671 H2675 0.950 . S
H2672 C2668 0.950 . S
C2673 C2671 1.390 . S
C2673 C2674 1.387 . S
C2673 H2676 0.950 . S
C2674 C2673 1.387 . S
C2674 C2677 1.387 . S
H2675 C2671 0.950 . S
H2676 C2673 0.950 . S
C2677 C2668 1.390 . S
C2677 H2670 0.950 . S
C2677 C2674 1.387 . S
C2678 C2679 1.387 . S
C2678 H2682 0.950 . S
C2678 C2687 1.390 . S
C2679 C2678 1.387 . S
C2679 C2681 1.387 . S
H2680 C2687 0.950 . S
C2681 C2679 1.387 . S
C2681 C2683 1.390 . S
C2681 H2685 0.950 . S
H2682 C2678 0.950 . S
C2683 C2681 1.390 . S
C2683 C2684 1.387 . S
C2683 H2686 0.950 . S
C2684 C2683 1.387 . S
C2684 C2687 1.387 . S
H2685 C2681 0.950 . S
H2686 C2683 0.950 . S
C2687 C2678 1.390 . S
C2687 H2680 0.950 . S
C2687 C2684 1.387 . S
C2688 C2689 1.387 . S
C2688 H2692 0.950 . S
C2688 C2697 1.390 . S
C2689 C2688 1.387 . S
C2689 C2691 1.387 . S
H2690 C2697 0.950 . S
C2691 C2689 1.387 . S
C2691 C2693 1.390 . S
C2691 H2695 0.950 . S
H2692 C2688 0.950 . S
C2693 C2691 1.390 . S
C2693 C2694 1.387 . S
C2693 H2696 0.950 . S
C2694 C2693 1.387 . S
C2694 C2697 1.387 . S
H2695 C2691 0.950 . S
H2696 C2693 0.950 . S
C2697 C2688 1.390 . S
C2697 H2690 0.950 . S
C2697 C2694 1.387 . S
C2698 C2699 1.387 . S
C2698 H2702 0.950 . S
C2698 C2707 1.390 . S
C2699 C2698 1.387 . S
C2699 C2701 1.387 . S
H2700 C2707 0.950 . S
C2701 C2699 1.387 . S
C2701 C2703 1.390 . S
C2701 H2705 0.950 . S
H2702 C2698 0.950 . S
C2703 C2701 1.390 . S
C2703 C2704 1.387 . S
C2703 H2706 0.950 . S
C2704 C2703 1.387 . S
C2704 C2707 1.387 . S
H2705 C2701 0.950 . S
H2706 C2703 0.950 . S
C2707 C2698 1.390 . S
C2707 H2700 0.950 . S
C2707 C2704 1.387 . S
C2708 C2709 1.387 . S
C2708 H2712 0.950 . S
C2708 C2717 1.390 . S
C2709 C2708 1.387 . S
C2709 C2711 1.387 . S
H2710 C2717 0.950 . S
C2711 C2709 1.387 . S
C2711 C2713 1.390 . S
C2711 H2715 0.950 . S
H2712 C2708 0.950 . S
C2713 C2711 1.390 . S
C2713 C2714 1.387 . S
C2713 H2716 0.950 . S
C2714 C2713 1.387 . S
C2714 C2717 1.387 . S
H2715 C2711 0.950 . S
H2716 C2713 0.950 . S
C2717 C2708 1.390 . S
C2717 H2710 0.950 . S
C2717 C2714 1.387 . S
C2718 C2719 1.387 . S
C2718 H2722 0.950 . S
C2718 C2727 1.390 . S
C2719 C2718 1.387 . S
C2719 C2721 1.387 . S
H2720 C2727 0.950 . S
C2721 C2719 1.387 . S
C2721 C2723 1.390 . S
C2721 H2725 0.950 . S
H2722 C2718 0.950 . S
C2723 C2721 1.390 . S
C2723 C2724 1.387 . S
C2723 H2726 0.950 . S
C2724 C2723 1.387 . S
C2724 C2727 1.387 . S
H2725 C2721 0.950 . S
H2726 C2723 0.950 . S
C2727 C2718 1.390 . S
C2727 H2720 0.950 . S
C2727 C2724 1.387 . S
C2728 C2729 1.387 . S
C2728 H2732 0.950 . S
C2728 C2737 1.390 . S
C2729 C2728 1.387 . S
C2729 C2731 1.387 . S
H2730 C2737 0.950 . S
C2731 C2729 1.387 . S
C2731 C2733 1.390 . S
C2731 H2735 0.950 . S
H2732 C2728 0.950 . S
C2733 C2731 1.390 . S
C2733 C2734 1.387 . S
C2733 H2736 0.950 . S
C2734 C2733 1.387 . S
C2734 C2737 1.387 . S
H2735 C2731 0.950 . S
H2736 C2733 0.950 . S
C2737 C2728 1.390 . S
C2737 H2730 0.950 . S
C2737 C2734 1.387 . S
C2738 C2739 1.387 . S
C2738 H2742 0.950 . S
C2738 C2747 1.390 . S
C2739 C2738 1.387 . S
C2739 C2741 1.387 . S
H2740 C2747 0.950 . S
C2741 C2739 1.387 . S
C2741 C2743 1.390 . S
C2741 H2745 0.950 . S
H2742 C2738 0.950 . S
C2743 C2741 1.390 . S
C2743 C2744 1.387 . S
C2743 H2746 0.950 . S
C2744 C2743 1.387 . S
C2744 C2747 1.387 . S
H2745 C2741 0.950 . S
H2746 C2743 0.950 . S
C2747 C2738 1.390 . S
C2747 H2740 0.950 . S
C2747 C2744 1.387 . S
C2748 C2749 1.387 . S
C2748 H2752 0.950 . S
C2748 C2757 1.390 . S
C2749 C2748 1.387 . S
C2749 C2751 1.387 . S
H2750 C2757 0.950 . S
C2751 C2749 1.387 . S
C2751 C2753 1.390 . S
C2751 H2755 0.950 . S
H2752 C2748 0.950 . S
C2753 C2751 1.390 . S
C2753 C2754 1.387 . S
C2753 H2756 0.950 . S
C2754 C2753 1.387 . S
C2754 C2757 1.387 . S
H2755 C2751 0.950 . S
H2756 C2753 0.950 . S
C2757 C2748 1.390 . S
C2757 H2750 0.950 . S
C2757 C2754 1.387 . S
C2758 C2759 1.387 . S
C2758 H2762 0.950 . S
C2758 C2767 1.390 . S
C2759 C2758 1.387 . S
C2759 C2761 1.387 . S
H2760 C2767 0.950 . S
C2761 C2759 1.387 . S
C2761 C2763 1.390 . S
C2761 H2765 0.950 . S
H2762 C2758 0.950 . S
C2763 C2761 1.390 . S
C2763 C2764 1.387 . S
C2763 H2766 0.950 . S
C2764 C2763 1.387 . S
C2764 C2767 1.387 . S
H2765 C2761 0.950 . S
H2766 C2763 0.950 . S
C2767 C2758 1.390 . S
C2767 H2760 0.950 . S
C2767 C2764 1.387 . S
C2768 C2769 1.387 . S
C2768 H2772 0.950 . S
C2768 C2777 1.390 . S
C2769 C2768 1.387 . S
C2769 C2771 1.387 . S
H2770 C2777 0.950 . S
C2771 C2769 1.387 . S
C2771 C2773 1.390 . S
C2771 H2775 0.950 . S
H2772 C2768 0.950 . S
C2773 C2771 1.390 . S
C2773 C2774 1.387 . S
C2773 H2776 0.950 . S
C2774 C2773 1.387 . S
C2774 C2777 1.387 . S
H2775 C2771 0.950 . S
H2776 C2773 0.950 . S
C2777 C2768 1.390 . S
C2777 H2770 0.950 . S
C2777 C2774 1.387 . S
C2778 C2779 1.387 . S
C2778 H2782 0.950 . S
C2778 C2787 1.390 . S
C2779 C2778 1.387 . S
C2779 C2781 1.387 . S
H2780 C2787 0.950 . S
C2781 C2779 1.387 . S
C2781 C2783 1.390 . S
C2781 H2785 0.950 . S
H2782 C2778 0.950 . S
C2783 C2781 1.390 . S
C2783 C2784 1.387 . S
C2783 H2786 0.950 . S
C2784 C2783 1.387 . S
C2784 C2787 1.387 . S
H2785 C2781 0.950 . S
H2786 C2783 0.950 . S
C2787 C2778 1.390 . S
C2787 H2780 0.950 . S
C2787 C2784 1.387 . S
C2788 C2789 1.387 . S
C2788 H2792 0.950 . S
C2788 C2797 1.390 . S
C2789 C2788 1.387 . S
C2789 C2791 1.387 . S
H2790 C2797 0.950 . S
C2791 C2789 1.387 . S
C2791 C2793 1.390 . S
C2791 H2795 0.950 . S
H2792 C2788 0.950 . S
C2793 C2791 1.390 . S
C2793 C2794 1.387 . S
C2793 H2796 0.950 . S
C2794 C2793 1.387 . S
C2794 C2797 1.387 . S
H2795 C2791 0.950 . S
H2796 C2793 0.950 . S
C2797 C2788 1.390 . S
C2797 H2790 0.950 . S
C2797 C2794 1.387 . S
C2798 C2799 1.387 . S
C2798 H2802 0.950 . S
C2798 C2807 1.390 . S
C2799 C2798 1.387 . S
C2799 C2801 1.387 . S
H2800 C2807 0.950 . S
C2801 C2799 1.387 . S
C2801 C2803 1.390 . S
C2801 H2805 0.950 . S
H2802 C2798 0.950 . S
C2803 C2801 1.390 . S
C2803 C2804 1.387 . S
C2803 H2806 0.950 . S
C2804 C2803 1.387 . S
C2804 C2807 1.387 . S
H2805 C2801 0.950 . S
H2806 C2803 0.950 . S
C2807 C2798 1.390 . S
C2807 H2800 0.950 . S
C2807 C2804 1.387 . S
C2808 C2809 1.387 . S
C2808 H2812 0.950 . S
C2808 C2817 1.390 . S
C2809 C2808 1.387 . S
C2809 C2811 1.387 . S
H2810 C2817 0.950 . S
C2811 C2809 1.387 . S
C2811 C2813 1.390 . S
C2811 H2815 0.950 . S
H2812 C2808 0.950 . S
C2813 C2811 1.390 . S
C2813 C2814 1.387 . S
C2813 H2816 0.950 . S
C2814 C2813 1.387 . S
C2814 C2817 1.387 . S
H2815 C2811 0.950 . S
H2816 C2813 0.950 . S
C2817 C2808 1.390 . S
C2817 H2810 0.950 . S
C2817 C2814 1.387 . S
C2818 C2819 1.387 . S
C2818 H2822 0.950 . S
C2818 C2827 1.390 . S
C2819 C2818 1.387 . S
C2819 C2821 1.387 . S
H2820 C2827 0.950 . S
C2821 C2819 1.387 . S
C2821 C2823 1.390 . S
C2821 H2825 0.950 . S
H2822 C2818 0.950 . S
C2823 C2821 1.390 . S
C2823 C2824 1.387 . S
C2823 H2826 0.950 . S
C2824 C2823 1.387 . S
C2824 C2827 1.387 . S
H2825 C2821 0.950 . S
H2826 C2823 0.950 . S
C2827 C2818 1.390 . S
C2827 H2820 0.950 . S
C2827 C2824 1.387 . S
C2828 C2829 1.387 . S
C2828 H2832 0.950 . S
C2828 C2837 1.390 . S
C2829 C2828 1.387 . S
C2829 C2831 1.387 . S
H2830 C2837 0.950 . S
C2831 C2829 1.387 . S
C2831 C2833 1.390 . S
C2831 H2835 0.950 . S
H2832 C2828 0.950 . S
C2833 C2831 1.390 . S
C2833 C2834 1.387 . S
C2833 H2836 0.950 . S
C2834 C2833 1.387 . S
C2834 C2837 1.387 . S
H2835 C2831 0.950 . S
H2836 C2833 0.950 . S
C2837 C2828 1.390 . S
C2837 H2830 0.950 . S
C2837 C2834 1.387 . S
C2838 C2839 1.387 . S
C2838 H2842 0.950 . S
C2838 C2847 1.390 . S
C2839 C2838 1.387 . S
C2839 C2841 1.387 . S
H2840 C2847 0.950 . S
C2841 C2839 1.387 . S
C2841 C2843 1.390 . S
C2841 H2845 0.950 . S
H2842 C2838 0.950 . S
C2843 C2841 1.390 . S
C2843 C2844 1.387 . S
C2843 H2846 0.950 . S
C2844 C2843 1.387 . S
C2844 C2847 1.387 . S
H2845 C2841 0.950 . S
H2846 C2843 0.950 . S
C2847 C2838 1.390 . S
C2847 H2840 0.950 . S
C2847 C2844 1.387 . S
C2848 C2849 1.387 . S
C2848 H2852 0.950 . S
C2848 C2857 1.390 . S
C2849 C2848 1.387 . S
C2849 C2851 1.387 . S
H2850 C2857 0.950 . S
C2851 C2849 1.387 . S
C2851 C2853 1.390 . S
C2851 H2855 0.950 . S
H2852 C2848 0.950 . S
C2853 C2851 1.390 . S
C2853 C2854 1.387 . S
C2853 H2856 0.950 . S
C2854 C2853 1.387 . S
C2854 C2857 1.387 . S
H2855 C2851 0.950 . S
H2856 C2853 0.950 . S
C2857 C2848 1.390 . S
C2857 H2850 0.950 . S
C2857 C2854 1.387 . S
C2858 C2859 1.387 . S
C2858 H2862 0.950 . S
C2858 C2867 1.390 . S
C2859 C2858 1.387 . S
C2859 C2861 1.387 . S
H2860 C2867 0.950 . S
C2861 C2859 1.387 . S
C2861 C2863 1.390 . S
C2861 H2865 0.950 . S
H2862 C2858 0.950 . S
C2863 C2861 1.390 . S
C2863 C2864 1.387 . S
C2863 H2866 0.950 . S
C2864 C2863 1.387 . S
C2864 C2867 1.387 . S
H2865 C2861 0.950 . S
H2866 C2863 0.950 . S
C2867 C2858 1.390 . S
C2867 H2860 0.950 . S
C2867 C2864 1.387 . S
C2868 C2869 1.387 . S
C2868 H2872 0.950 . S
C2868 C2877 1.390 . S
C2869 C2868 1.387 . S
C2869 C2871 1.387 . S
H2870 C2877 0.950 . S
C2871 C2869 1.387 . S
C2871 C2873 1.390 . S
C2871 H2875 0.950 . S
H2872 C2868 0.950 . S
C2873 C2871 1.390 . S
C2873 C2874 1.387 . S
C2873 H2876 0.950 . S
C2874 C2873 1.387 . S
C2874 C2877 1.387 . S
H2875 C2871 0.950 . S
H2876 C2873 0.950 . S
C2877 C2868 1.390 . S
C2877 H2870 0.950 . S
C2877 C2874 1.387 . S
C2878 C2879 1.387 . S
C2878 H2882 0.950 . S
C2878 C2887 1.390 . S
C2879 C2878 1.387 . S
C2879 C2881 1.387 . S
H2880 C2887 0.950 . S
C2881 C2879 1.387 . S
C2881 C2883 1.390 . S
C2881 H2885 0.950 . S
H2882 C2878 0.950 . S
C2883 C2881 1.390 . S
C2883 C2884 1.387 . S
C2883 H2886 0.950 . S
C2884 C2883 1.387 . S
C2884 C2887 1.387 . S
H2885 C2881 0.950 . S
H2886 C2883 0.950 . S
C2887 C2878 1.390 . S
C2887 H2880 0.950 . S
C2887 C2884 1.387 . S
C2888 C2889 1.387 . S
C2888 H2892 0.950 . S
C2888 C2897 1.390 . S
C2889 C2888 1.387 . S
C2889 C2891 1.387 . S
H2890 C2897 0.950 . S
C2891 C2889 1.387 . S
C2891 C2893 1.390 . S
C2891 H2895 0.950 . S
H2892 C2888 0.950 . S
C2893 C2891 1.390 . S
C2893 C2894 1.387 . S
C2893 H2896 0.950 . S
C2894 C2893 1.387 . S
C2894 C2897 1.387 . S
H2895 C2891 0.950 . S
H2896 C2893 0.950 . S
C2897 C2888 1.390 . S
C2897 H2890 0.950 . S
C2897 C2894 1.387 . S
C2898 C2899 1.387 . S
C2898 H2902 0.950 . S
C2898 C2907 1.390 . S
C2899 C2898 1.387 . S
C2899 C2901 1.387 . S
H2900 C2907 0.950 . S
C2901 C2899 1.387 . S
C2901 C2903 1.390 . S
C2901 H2905 0.950 . S
H2902 C2898 0.950 . S
C2903 C2901 1.390 . S
C2903 C2904 1.387 . S
C2903 H2906 0.950 . S
C2904 C2903 1.387 . S
C2904 C2907 1.387 . S
H2905 C2901 0.950 . S
H2906 C2903 0.950 . S
C2907 C2898 1.390 . S
C2907 H2900 0.950 . S
C2907 C2904 1.387 . S
C2908 C2909 1.387 . S
C2908 H2912 0.950 . S
C2908 C2917 1.390 . S
C2909 C2908 1.387 . S
C2909 C2911 1.387 . S
H2910 C2917 0.950 . S
C2911 C2909 1.387 . S
C2911 C2913 1.390 . S
C2911 H2915 0.950 . S
H2912 C2908 0.950 . S
C2913 C2911 1.390 . S
C2913 C2914 1.387 . S
C2913 H2916 0.950 . S
C2914 C2913 1.387 . S
C2914 C2917 1.387 . S
H2915 C2911 0.950 . S
H2916 C2913 0.950 . S
C2917 C2908 1.390 . S
C2917 H2910 0.950 . S
C2917 C2914 1.387 . S
C2918 C2919 1.387 . S
C2918 H2922 0.950 . S
C2918 C2927 1.390 . S
C2919 C2918 1.387 . S
C2919 C2921 1.387 . S
H2920 C2927 0.950 . S
C2921 C2919 1.387 . S
C2921 C2923 1.390 . S
C2921 H2925 0.950 . S
H2922 C2918 0.950 . S
C2923 C2921 1.390 . S
C2923 C2924 1.387 . S
C2923 H2926 0.950 . S
C2924 C2923 1.387 . S
C2924 C2927 1.387 . S
H2925 C2921 0.950 . S
H2926 C2923 0.950 . S
C2927 C2918 1.390 . S
C2927 H2920 0.950 . S
C2927 C2924 1.387 . S
C2928 C2929 1.387 . S
C2928 H2932 0.950 . S
C2928 C2937 1.390 1_556 S
C2929 C2928 1.387 . S
C2929 C2931 1.387 . S
H2930 C2937 0.950 . S
C2931 C2929 1.387 . S
C2931 C2933 1.390 1_556 S
C2931 H2935 0.950 . S
H2932 C2928 0.950 . S
C2933 C2931 1.390 1_554 S
C2933 C2934 1.387 . S
C2933 H2936 0.950 . S
C2934 C2933 1.387 . S
C2934 C2937 1.387 . S
H2935 C2931 0.950 . S
H2936 C2933 0.950 . S
C2937 C2928 1.390 1_554 S
C2937 H2930 0.950 . S
C2937 C2934 1.387 . S
C2938 C2939 1.387 . S
C2938 H2942 0.950 . S
C2938 C2947 1.390 1_554 S
C2939 C2938 1.387 . S
C2939 C2941 1.387 . S
H2940 C2947 0.950 . S
C2941 C2939 1.387 . S
C2941 C2943 1.390 1_554 S
C2941 H2945 0.950 . S
H2942 C2938 0.950 . S
C2943 C2941 1.390 1_556 S
C2943 C2944 1.387 . S
C2943 H2946 0.950 . S
C2944 C2943 1.387 . S
C2944 C2947 1.387 . S
H2945 C2941 0.950 . S
H2946 C2943 0.950 . S
C2947 C2938 1.390 1_556 S
C2947 H2940 0.950 . S
C2947 C2944 1.387 . S
C2948 C2949 1.387 . S
C2948 H2952 0.950 . S
C2948 C2957 1.390 1_554 S
C2949 C2948 1.387 . S
C2949 C2951 1.387 . S
H2950 C2957 0.950 . S
C2951 C2949 1.387 . S
C2951 C2953 1.390 1_554 S
C2951 H2955 0.950 . S
H2952 C2948 0.950 . S
C2953 C2951 1.390 1_556 S
C2953 C2954 1.387 . S
C2953 H2956 0.950 . S
C2954 C2953 1.387 . S
C2954 C2957 1.387 . S
H2955 C2951 0.950 . S
H2956 C2953 0.950 . S
C2957 C2948 1.390 1_556 S
C2957 H2950 0.950 . S
C2957 C2954 1.387 . S
C2958 C2959 1.387 . S
C2958 H2962 0.950 . S
C2958 C2967 1.390 1_554 S
C2959 C2958 1.387 . S
C2959 C2961 1.387 . S
H2960 C2967 0.950 . S
C2961 C2959 1.387 . S
C2961 C2963 1.390 1_554 S
C2961 H2965 0.950 . S
H2962 C2958 0.950 . S
C2963 C2961 1.390 1_556 S
C2963 C2964 1.387 . S
C2963 H2966 0.950 . S
C2964 C2963 1.387 . S
C2964 C2967 1.387 . S
H2965 C2961 0.950 . S
H2966 C2963 0.950 . S
C2967 C2958 1.390 1_556 S
C2967 H2960 0.950 . S
C2967 C2964 1.387 . S
C2968 C2969 1.387 . S
C2968 H2972 0.950 . S
C2968 C2977 1.390 1_554 S
C2969 C2968 1.387 . S
C2969 C2971 1.387 . S
H2970 C2977 0.950 . S
C2971 C2969 1.387 . S
C2971 C2973 1.390 1_554 S
C2971 H2975 0.950 . S
H2972 C2968 0.950 . S
C2973 C2971 1.390 1_556 S
C2973 C2974 1.387 . S
C2973 H2976 0.950 . S
C2974 C2973 1.387 . S
C2974 C2977 1.387 . S
H2975 C2971 0.950 . S
H2976 C2973 0.950 . S
C2977 C2968 1.390 1_556 S
C2977 H2970 0.950 . S
C2977 C2974 1.387 . S
C2978 C2979 1.387 . S
C2978 H2982 0.950 . S
C2978 C2987 1.390 1_556 S
C2979 C2978 1.387 . S
C2979 C2981 1.387 . S
H2980 C2987 0.950 . S
C2981 C2979 1.387 . S
C2981 C2983 1.390 1_556 S
C2981 H2985 0.950 . S
H2982 C2978 0.950 . S
C2983 C2981 1.390 1_554 S
C2983 C2984 1.387 . S
C2983 H2986 0.950 . S
C2984 C2983 1.387 . S
C2984 C2987 1.387 . S
H2985 C2981 0.950 . S
H2986 C2983 0.950 . S
C2987 C2978 1.390 1_554 S
C2987 H2980 0.950 . S
C2987 C2984 1.387 . S
C2988 C2989 1.387 . S
C2988 H2992 0.950 . S
C2988 C2997 1.390 1_554 S
C2989 C2988 1.387 . S
C2989 C2991 1.387 . S
H2990 C2997 0.950 . S
C2991 C2989 1.387 . S
C2991 C2993 1.390 1_554 S
C2991 H2995 0.950 . S
H2992 C2988 0.950 . S
C2993 C2991 1.390 1_556 S
C2993 C2994 1.387 . S
C2993 H2996 0.950 . S
C2994 C2993 1.387 . S
C2994 C2997 1.387 . S
H2995 C2991 0.950 . S
H2996 C2993 0.950 . S
C2997 C2988 1.390 1_556 S
C2997 H2990 0.950 . S
C2997 C2994 1.387 . S
C2998 C2999 1.387 . S
C2998 H3002 0.950 . S
C2998 C3007 1.390 1_556 S
C2999 C2998 1.387 . S
C2999 C3001 1.387 . S
H3000 C3007 0.950 . S
C3001 C2999 1.387 . S
C3001 C3003 1.390 1_556 S
C3001 H3005 0.950 . S
H3002 C2998 0.950 . S
C3003 C3001 1.390 1_554 S
C3003 C3004 1.387 . S
C3003 H3006 0.950 . S
C3004 C3003 1.387 . S
C3004 C3007 1.387 . S
H3005 C3001 0.950 . S
H3006 C3003 0.950 . S
C3007 C2998 1.390 1_554 S
C3007 H3000 0.950 . S
C3007 C3004 1.387 . S
C3008 C3009 1.387 . S
C3008 H3012 0.950 . S
C3008 C3017 1.390 1_655 S
C3009 C3008 1.387 . S
C3009 C3011 1.387 . S
H3010 C3017 0.950 . S
C3011 C3009 1.387 . S
C3011 C3013 1.390 1_655 S
C3011 H3015 0.950 . S
H3012 C3008 0.950 . S
C3013 C3011 1.390 1_455 S
C3013 C3014 1.387 . S
C3013 H3016 0.950 . S
C3014 C3013 1.387 . S
C3014 C3017 1.387 . S
H3015 C3011 0.950 . S
H3016 C3013 0.950 . S
C3017 C3008 1.390 1_455 S
C3017 H3010 0.950 . S
C3017 C3014 1.387 . S
C3018 C3019 1.387 . S
C3018 H3022 0.950 . S
C3018 C3027 1.390 1_545 S
C3019 C3018 1.387 . S
C3019 C3021 1.387 . S
H3020 C3027 0.950 . S
C3021 C3019 1.387 . S
C3021 C3023 1.390 1_545 S
C3021 H3025 0.950 . S
H3022 C3018 0.950 . S
C3023 C3021 1.390 1_565 S
C3023 C3024 1.387 . S
C3023 H3026 0.950 . S
C3024 C3023 1.387 . S
C3024 C3027 1.387 . S
H3025 C3021 0.950 . S
H3026 C3023 0.950 . S
C3027 C3018 1.390 1_565 S
C3027 H3020 0.950 . S
C3027 C3024 1.387 . S
C3028 C3029 1.387 . S
C3028 H3032 0.950 . S
C3028 C3037 1.390 1_455 S
C3029 C3028 1.387 . S
C3029 C3031 1.387 . S
H3030 C3037 0.950 . S
C3031 C3029 1.387 . S
C3031 C3033 1.390 1_455 S
C3031 H3035 0.950 . S
H3032 C3028 0.950 . S
C3033 C3031 1.390 1_655 S
C3033 C3034 1.387 . S
C3033 H3036 0.950 . S
C3034 C3033 1.387 . S
C3034 C3037 1.387 . S
H3035 C3031 0.950 . S
H3036 C3033 0.950 . S
C3037 C3028 1.390 1_655 S
C3037 H3030 0.950 . S
C3037 C3034 1.387 . S
C3038 C3039 1.387 . S
C3038 H3042 0.950 . S
C3038 C3047 1.390 1_565 S
C3039 C3038 1.387 . S
C3039 C3041 1.387 . S
H3040 C3047 0.950 . S
C3041 C3039 1.387 . S
C3041 C3043 1.390 1_565 S
C3041 H3045 0.950 . S
H3042 C3038 0.950 . S
C3043 C3041 1.390 1_545 S
C3043 C3044 1.387 . S
C3043 H3046 0.950 . S
C3044 C3043 1.387 . S
C3044 C3047 1.387 . S
H3045 C3041 0.950 . S
H3046 C3043 0.950 . S
C3047 C3038 1.390 1_545 S
C3047 H3040 0.950 . S
C3047 C3044 1.387 . S
C3048 C3049 1.387 . S
C3048 H3052 0.950 . S
C3048 C3057 1.390 1_455 S
C3049 C3048 1.387 . S
C3049 C3051 1.387 . S
H3050 C3057 0.950 . S
C3051 C3049 1.387 . S
C3051 C3053 1.390 1_455 S
C3051 H3055 0.950 . S
H3052 C3048 0.950 . S
C3053 C3051 1.390 1_655 S
C3053 C3054 1.387 . S
C3053 H3056 0.950 . S
C3054 C3053 1.387 . S
C3054 C3057 1.387 . S
H3055 C3051 0.950 . S
H3056 C3053 0.950 . S
C3057 C3048 1.390 1_655 S
C3057 H3050 0.950 . S
C3057 C3054 1.387 . S
C3058 C3059 1.387 . S
C3058 H3062 0.950 . S
C3058 C3067 1.390 1_545 S
C3059 C3058 1.387 . S
C3059 C3061 1.387 . S
H3060 C3067 0.950 . S
C3061 C3059 1.387 . S
C3061 C3063 1.390 1_545 S
C3061 H3065 0.950 . S
H3062 C3058 0.950 . S
C3063 C3061 1.390 1_565 S
C3063 C3064 1.387 . S
C3063 H3066 0.950 . S
C3064 C3063 1.387 . S
C3064 C3067 1.387 . S
H3065 C3061 0.950 . S
H3066 C3063 0.950 . S
C3067 C3058 1.390 1_565 S
C3067 H3060 0.950 . S
C3067 C3064 1.387 . S
C3068 C3069 1.387 . S
C3068 H3072 0.950 . S
C3068 C3077 1.390 1_655 S
C3069 C3068 1.387 . S
C3069 C3071 1.387 . S
H3070 C3077 0.950 . S
C3071 C3069 1.387 . S
C3071 C3073 1.390 1_655 S
C3071 H3075 0.950 . S
H3072 C3068 0.950 . S
C3073 C3071 1.390 1_455 S
C3073 C3074 1.387 . S
C3073 H3076 0.950 . S
C3074 C3073 1.387 . S
C3074 C3077 1.387 . S
H3075 C3071 0.950 . S
H3076 C3073 0.950 . S
C3077 C3068 1.390 1_455 S
C3077 H3070 0.950 . S
C3077 C3074 1.387 . S
C3078 C3079 1.387 . S
C3078 H3082 0.950 . S
C3078 C3087 1.390 1_565 S
C3079 C3078 1.387 . S
C3079 C3081 1.387 . S
H3080 C3087 0.950 . S
C3081 C3079 1.387 . S
C3081 C3083 1.390 1_565 S
C3081 H3085 0.950 . S
H3082 C3078 0.950 . S
C3083 C3081 1.390 1_545 S
C3083 C3084 1.387 . S
C3083 H3086 0.950 . S
C3084 C3083 1.387 . S
C3084 C3087 1.387 . S
H3085 C3081 0.950 . S
H3086 C3083 0.950 . S
C3087 C3078 1.390 1_545 S
C3087 H3080 0.950 . S
C3087 C3084 1.387 . S
C3088 C3089 1.387 . S
C3088 H3092 0.950 . S
C3088 C3097 1.390 1_565 S
C3089 C3088 1.387 . S
C3089 C3091 1.387 . S
H3090 C3097 0.950 . S
C3091 C3089 1.387 . S
C3091 C3093 1.390 1_565 S
C3091 H3095 0.950 . S
H3092 C3088 0.950 . S
C3093 C3091 1.390 1_545 S
C3093 C3094 1.387 . S
C3093 H3096 0.950 . S
C3094 C3093 1.387 . S
C3094 C3097 1.387 . S
H3095 C3091 0.950 . S
H3096 C3093 0.950 . S
C3097 C3088 1.390 1_545 S
C3097 H3090 0.950 . S
C3097 C3094 1.387 . S
C3098 C3099 1.387 . S
C3098 H3102 0.950 . S
C3098 C3107 1.390 1_565 S
C3099 C3098 1.387 . S
C3099 C3101 1.387 . S
H3100 C3107 0.950 . S
C3101 C3099 1.387 . S
C3101 C3103 1.390 1_565 S
C3101 H3105 0.950 . S
H3102 C3098 0.950 . S
C3103 C3101 1.390 1_545 S
C3103 C3104 1.387 . S
C3103 H3106 0.950 . S
C3104 C3103 1.387 . S
C3104 C3107 1.387 . S
H3105 C3101 0.950 . S
H3106 C3103 0.950 . S
C3107 C3098 1.390 1_545 S
C3107 H3100 0.950 . S
C3107 C3104 1.387 . S
C3108 C3109 1.387 . S
C3108 H3112 0.950 . S
C3108 C3117 1.390 1_455 S
C3109 C3108 1.387 . S
C3109 C3111 1.387 . S
H3110 C3117 0.950 . S
C3111 C3109 1.387 . S
C3111 C3113 1.390 1_455 S
C3111 H3115 0.950 . S
H3112 C3108 0.950 . S
C3113 C3111 1.390 1_655 S
C3113 C3114 1.387 . S
C3113 H3116 0.950 . S
C3114 C3113 1.387 . S
C3114 C3117 1.387 . S
H3115 C3111 0.950 . S
H3116 C3113 0.950 . S
C3117 C3108 1.390 1_655 S
C3117 H3110 0.950 . S
C3117 C3114 1.387 . S
C3118 C3119 1.387 . S
C3118 H3122 0.950 . S
C3118 C3127 1.390 1_545 S
C3119 C3118 1.387 . S
C3119 C3121 1.387 . S
H3120 C3127 0.950 . S
C3121 C3119 1.387 . S
C3121 C3123 1.390 1_545 S
C3121 H3125 0.950 . S
H3122 C3118 0.950 . S
C3123 C3121 1.390 1_565 S
C3123 C3124 1.387 . S
C3123 H3126 0.950 . S
C3124 C3123 1.387 . S
C3124 C3127 1.387 . S
H3125 C3121 0.950 . S
H3126 C3123 0.950 . S
C3127 C3118 1.390 1_565 S
C3127 H3120 0.950 . S
C3127 C3124 1.387 . S
C3128 C3129 1.387 . S
C3128 H3132 0.950 . S
C3128 C3137 1.390 1_655 S
C3129 C3128 1.387 . S
C3129 C3131 1.387 . S
H3130 C3137 0.950 . S
C3131 C3129 1.387 . S
C3131 C3133 1.390 1_655 S
C3131 H3135 0.950 . S
H3132 C3128 0.950 . S
C3133 C3131 1.390 1_455 S
C3133 C3134 1.387 . S
C3133 H3136 0.950 . S
C3134 C3133 1.387 . S
C3134 C3137 1.387 . S
H3135 C3131 0.950 . S
H3136 C3133 0.950 . S
C3137 C3128 1.390 1_455 S
C3137 H3130 0.950 . S
C3137 C3134 1.387 . S
C3138 C3139 1.387 . S
C3138 H3142 0.950 . S
C3138 C3147 1.390 1_545 S
C3139 C3138 1.387 . S
C3139 C3141 1.387 . S
H3140 C3147 0.950 . S
C3141 C3139 1.387 . S
C3141 C3143 1.390 1_545 S
C3141 H3145 0.950 . S
H3142 C3138 0.950 . S
C3143 C3141 1.390 1_565 S
C3143 C3144 1.387 . S
C3143 H3146 0.950 . S
C3144 C3143 1.387 . S
C3144 C3147 1.387 . S
H3145 C3141 0.950 . S
H3146 C3143 0.950 . S
C3147 C3138 1.390 1_565 S
C3147 H3140 0.950 . S
C3147 C3144 1.387 . S
C3148 C3149 1.387 . S
C3148 H3152 0.950 . S
C3148 C3157 1.390 1_655 S
C3149 C3148 1.387 . S
C3149 C3151 1.387 . S
H3150 C3157 0.950 . S
C3151 C3149 1.387 . S
C3151 C3153 1.390 1_655 S
C3151 H3155 0.950 . S
H3152 C3148 0.950 . S
C3153 C3151 1.390 1_455 S
C3153 C3154 1.387 . S
C3153 H3156 0.950 . S
C3154 C3153 1.387 . S
C3154 C3157 1.387 . S
H3155 C3151 0.950 . S
H3156 C3153 0.950 . S
C3157 C3148 1.390 1_455 S
C3157 H3150 0.950 . S
C3157 C3154 1.387 . S
C3158 C3159 1.387 . S
C3158 H3162 0.950 . S
C3158 C3167 1.390 1_655 S
C3159 C3158 1.387 . S
C3159 C3161 1.387 . S
H3160 C3167 0.950 . S
C3161 C3159 1.387 . S
C3161 C3163 1.390 1_655 S
C3161 H3165 0.950 . S
H3162 C3158 0.950 . S
C3163 C3161 1.390 1_455 S
C3163 C3164 1.387 . S
C3163 H3166 0.950 . S
C3164 C3163 1.387 . S
C3164 C3167 1.387 . S
H3165 C3161 0.950 . S
H3166 C3163 0.950 . S
C3167 C3158 1.390 1_455 S
C3167 H3160 0.950 . S
C3167 C3164 1.387 . S
C1249 C0 1.314 . S
C1254 C403 1.308 . S
C1259 C13 1.314 . S
C1264 C364 1.308 . S
C1269 C377 1.307 . S
C1274 C26 1.313 . S
C1279 C390 1.306 . S
C1284 C39 1.313 . S
C1289 C325 1.308 . S
C1294 C52 1.314 . S
C1299 C338 1.308 . S
C1304 C65 1.314 . S
C1309 C78 1.314 . S
C1314 C351 1.308 . S
C1319 C312 1.308 . S
C1324 C91 1.314 . S
C1329 C104 1.313 . S
C1334 C572 1.307 . S
C1339 C117 1.314 . S
C1344 C533 1.308 . S
C1349 C130 1.314 . S
C1354 C546 1.308 . S
C1359 C143 1.313 . S
C1364 C559 1.306 . S
C1369 C156 1.314 . S
C1374 C611 1.307 . S
C1379 C169 1.313 . S
C1384 C585 1.306 . S
C1389 C182 1.313 . S
C1394 C598 1.307 . S
C1399 C520 1.306 . S
C1404 C195 1.313 . S
C1409 C208 1.313 . S
C1414 C507 1.306 . S
C1419 C429 1.308 . S
C1424 C221 1.314 . S
C1429 C442 1.308 . S
C1434 C234 1.314 . S
C1439 C247 1.313 . S
C1444 C455 1.306 . S
C1449 C416 1.306 . S
C1454 C260 1.313 . S
C1459 C481 1.308 . S
C1464 C273 1.314 . S
C1469 C286 1.314 . S
C1474 C494 1.308 . S
C1479 C299 1.313 . S
C1484 C468 1.306 . S
C1489 C1027 1.306 . S
C1494 C624 1.313 . S
C1499 C988 1.308 . S
C1504 C637 1.314 . S
C1509 C650 1.314 . S
C1514 C1001 1.308 . S
C1519 C1014 1.306 . S
C1524 C663 1.313 . S
C1529 C676 1.314 . S
C1534 C949 1.308 . S
C1539 C689 1.313 . S
C1544 C962 1.307 . S
C1549 C975 1.307 . S
C1554 C702 1.313 . S
C1559 C936 1.306 . S
C1564 C715 1.313 . S
C1569 C1196 1.306 . S
C1574 C728 1.313 . S
C1579 C1157 1.306 . S
C1584 C741 1.313 . S
C1589 C754 1.314 . S
C1594 C1170 1.308 . S
C1599 C767 1.314 . S
C1604 C1183 1.308 . S
C1609 C1235 1.308 . S
C1614 C780 1.314 . S
C1619 C1209 1.308 . S
C1624 C793 1.314 . S
C1629 C1222 1.307 . S
C1634 C806 1.313 . S
C1639 C819 1.314 . S
C1644 C1144 1.307 . S
C1649 C1131 1.306 . S
C1654 C832 1.313 . S
C1659 C845 1.314 . S
C1664 C1053 1.308 . S
C1669 C1066 1.307 . S
C1674 C858 1.314 . S
C1679 C1079 1.308 . S
C1684 C871 1.314 . S
C1689 C1040 1.307 . S
C1694 C884 1.313 . S
C1699 C897 1.313 . S
C1704 C1105 1.306 . S
C1709 C910 1.314 . S
C1714 C1118 1.308 . S
C1719 C1092 1.306 . S
C1724 C923 1.313 . S
C1729 C5 1.298 . S
C1734 C889 1.295 . S
C1739 C18 1.297 . S
C1744 C850 1.296 . S
C1749 C31 1.295 . S
C1754 C863 1.298 . S
C1759 C44 1.297 . S
C1764 C876 1.296 . S
C1769 C928 1.297 . S
C1774 C57 1.296 . S
C1779 C70 1.296 . S
C1784 C902 1.296 . S
C1789 C915 1.298 . S
C1794 C83 1.295 . S
C1799 C96 1.296 . S
C1804 C837 1.297 . S
C1809 C824 1.295 . S
C1814 C109 1.298 . S
C1819 C122 1.295 . S
C1824 C785 1.297 . S
C1829 C798 1.298 . S
C1834 C135 1.295 . S
C1839 C148 1.298 . S
C1844 C811 1.295 . S
C1849 C161 1.298 . S
C1854 C746 1.295 . S
C1859 C174 1.298 . S
C1864 C759 1.295 . S
C1869 C772 1.296 . S
C1874 C187 1.297 . S
C1879 C733 1.295 . S
C1884 C200 1.298 . S
C1889 C213 1.295 . S
C1894 C720 1.298 . S
C1899 C226 1.297 . S
C1904 C642 1.296 . S
C1909 C239 1.296 . S
C1914 C655 1.297 . S
C1919 C252 1.296 . S
C1924 C668 1.297 . S
C1929 C265 1.296 . S
C1934 C629 1.297 . S
C1939 C694 1.297 . S
C1944 C278 1.296 . S
C1949 C707 1.296 . S
C1954 C291 1.297 . S
C1959 C304 1.298 . S
C1964 C681 1.295 . S
C1969 C322 1.548 . S
C1974 C1206 1.549 . S
C1979 C335 1.546 . S
C1984 C1167 1.547 . S
C1989 C348 1.546 . S
C1994 C1180 1.549 . S
C1999 C361 1.546 . S
C2004 C1193 1.548 . S
C2009 C374 1.548 . S
C2014 C1245 1.549 . S
C2019 C1219 1.546 . S
C2024 C387 1.546 . S
C2029 C400 1.547 . S
C2034 C1232 1.546 . S
C2039 C413 1.546 . S
C2044 C1154 1.547 . S
C2049 C1141 1.546 . S
C2054 C426 1.549 . S
C2059 C1102 1.549 . S
C2064 C439 1.547 . S
C2069 C1115 1.548 . S
C2074 C452 1.546 . S
C2079 C1128 1.548 . S
C2084 C465 1.546 . S
C2089 C478 1.549 . S
C2094 C1063 1.547 . S
C2099 C491 1.549 . S
C2104 C1076 1.548 . S
C2109 C504 1.547 . S
C2114 C1089 1.549 . S
C2119 C1050 1.549 . S
C2124 C517 1.547 . S
C2129 C1037 1.549 . S
C2134 C530 1.548 . S
C2139 C543 1.549 . S
C2144 C959 1.546 . S
C2149 C972 1.549 . S
C2154 C556 1.549 . S
C2159 C985 1.549 . S
C2164 C569 1.549 . S
C2169 C582 1.549 . S
C2174 C946 1.548 . S
C2179 C595 1.546 . S
C2184 C1011 1.549 . S
C2189 C1024 1.549 . S
C2194 C608 1.549 . S
C2199 C621 1.546 . S
C2204 C998 1.547 . S
C2209 C10 1.382 . S
C2214 C369 1.383 . S
C2219 C23 1.382 . S
C2224 C382 1.384 . S
C2229 C36 1.382 . S
C2234 C395 1.382 . S
C2239 C49 1.383 . S
C2244 C408 1.381 . S
C2249 C317 1.382 . S
C2254 C62 1.384 . S
C2259 C75 1.382 . S
C2264 C330 1.384 . S
C2269 C343 1.382 . S
C2274 C88 1.383 . S
C2279 C356 1.384 . S
C2284 C101 1.383 . S
C2289 C114 1.381 . S
C2294 C499 1.383 . S
C2299 C512 1.382 . S
C2304 C127 1.383 . S
C2309 C140 1.381 . S
C2314 C473 1.384 . S
C2319 C153 1.384 . S
C2324 C486 1.381 . S
C2329 C166 1.381 . S
C2334 C447 1.383 . S
C2339 C179 1.382 . S
C2344 C460 1.384 . S
C2349 C192 1.382 . S
C2354 C421 1.383 . S
C2359 C434 1.383 . S
C2364 C205 1.384 . S
C2369 C218 1.383 . S
C2374 C590 1.382 . S
C2379 C231 1.383 . S
C2384 C564 1.381 . S
C2389 C577 1.384 . S
C2394 C244 1.381 . S
C2399 C257 1.384 . S
C2404 C538 1.381 . S
C2409 C551 1.381 . S
C2414 C270 1.384 . S
C2419 C283 1.384 . S
C2424 C525 1.381 . S
C2429 C616 1.382 . S
C2434 C296 1.384 . S
C2439 C603 1.381 . S
C2444 C309 1.385 . S
C2449 C634 1.383 . S
C2454 C993 1.383 . S
C2459 C647 1.382 . S
C2464 C1006 1.383 . S
C2469 C660 1.382 . S
C2474 C1019 1.382 . S
C2479 C1032 1.381 . S
C2484 C673 1.383 . S
C2489 C686 1.382 . S
C2494 C941 1.382 . S
C2499 C699 1.383 . S
C2504 C954 1.381 . S
C2509 C712 1.382 . S
C2514 C967 1.382 . S
C2519 C725 1.382 . S
C2524 C980 1.384 . S
C2529 C738 1.382 . S
C2534 C1123 1.382 . S
C2539 C1136 1.382 . S
C2544 C751 1.382 . S
C2549 C1097 1.382 . S
C2554 C764 1.384 . S
C2559 C1110 1.383 . S
C2564 C777 1.383 . S
C2569 C790 1.382 . S
C2574 C1071 1.383 . S
C2579 C1084 1.382 . S
C2584 C803 1.384 . S
C2589 C816 1.385 . S
C2594 C1045 1.381 . S
C2599 C1058 1.382 . S
C2604 C829 1.382 . S
C2609 C1214 1.384 . S
C2614 C842 1.382 . S
C2619 C1188 1.381 . S
C2624 C855 1.383 . S
C2629 C868 1.381 . S
C2634 C1201 1.384 . S
C2639 C881 1.383 . S
C2644 C1162 1.384 . S
C2649 C1175 1.384 . S
C2654 C894 1.381 . S
C2659 C907 1.384 . S
C2664 C1149 1.381 . S
C2669 C1240 1.382 . S
C2674 C920 1.384 . S
C2679 C1227 1.382 . S
C2684 C933 1.384 . S
C2689 C346 1.504 . S
C2694 C8 1.499 . S
C2699 C21 1.498 . S
C2704 C359 1.507 . S
C2709 C320 1.507 . S
C2714 C34 1.499 . S
C2719 C47 1.499 . S
C2724 C333 1.507 . S
C2729 C398 1.504 . S
C2734 C60 1.500 . S
C2739 C411 1.505 . S
C2744 C73 1.499 . S
C2749 C86 1.498 . S
C2754 C372 1.507 . S
C2759 C385 1.505 . S
C2764 C99 1.499 . S
C2769 C112 1.499 . S
C2774 C476 1.504 . S
C2779 C125 1.500 . S
C2784 C489 1.504 . S
C2789 C502 1.507 . S
C2794 C138 1.499 . S
C2799 C151 1.499 . S
C2804 C515 1.504 . S
C2809 C164 1.499 . S
C2814 C424 1.507 . S
C2819 C437 1.504 . S
C2824 C177 1.499 . S
C2829 C450 1.505 . S
C2834 C190 1.499 . S
C2839 C463 1.506 . S
C2844 C203 1.498 . S
C2849 C216 1.500 . S
C2854 C567 1.505 . S
C2859 C593 1.504 . S
C2864 C229 1.500 . S
C2869 C242 1.499 . S
C2874 C606 1.504 . S
C2879 C528 1.504 . S
C2884 C255 1.500 . S
C2889 C619 1.504 . S
C2894 C268 1.499 . S
C2899 C541 1.506 . S
C2904 C281 1.499 . S
C2909 C294 1.499 . S
C2914 C554 1.507 . S
C2919 C307 1.499 . S
C2924 C580 1.506 . S
C2929 C632 1.499 . S
C2934 C970 1.504 . S
C2939 C983 1.506 . S
C2944 C645 1.498 . S
C2949 C944 1.504 . S
C2954 C658 1.499 . S
C2959 C957 1.505 . S
C2964 C671 1.500 . S
C2969 C684 1.499 . S
C2974 C1022 1.504 . S
C2979 C1035 1.507 . S
C2984 C697 1.499 . S
C2989 C710 1.499 . S
C2994 C996 1.507 . S
C2999 C1009 1.505 . S
C3004 C723 1.500 . S
C3009 C736 1.499 . S
C3014 C1100 1.507 . S
C3019 C1113 1.504 . S
C3024 C749 1.499 . S
C3029 C762 1.500 . S
C3034 C1126 1.506 . S
C3039 C1139 1.504 . S
C3044 C775 1.499 . S
C3049 C1048 1.505 . S
C3054 C788 1.499 . S
C3059 C1061 1.504 . S
C3064 C801 1.499 . S
C3069 C1074 1.507 . S
C3074 C814 1.499 . S
C3079 C1087 1.507 . S
C3084 C827 1.499 . S
C3089 C840 1.498 . S
C3094 C1191 1.507 . S
C3099 C1217 1.507 . S
C3104 C853 1.499 . S
C3109 C1230 1.507 . S
C3114 C866 1.499 . S
C3119 C1152 1.507 . S
C3124 C879 1.499 . S
C3129 C1243 1.506 . S
C3134 C892 1.499 . S
C3139 C905 1.499 . S
C3144 C1165 1.504 . S
C3149 C918 1.499 . S
C3154 C1178 1.504 . S
C3159 C1204 1.504 . S
C3164 C931 1.499 . S
