# Generated by pormake.
# Topology wjd, (6)-cn, num edge types: 1
# Building blocks:
#     Node 0, Type 0, BuildingBlock: VOLQOD_clean_sbu_1, # of connection points: 6
#     Node 1, Type 0, BuildingBlock: VOLQOD_clean_sbu_1, # of connection points: 6
#     Node 2, Type 0, BuildingBlock: VOLQOD_clean_sbu_1, # of connection points: 6
#     Node 3, Type 0, BuildingBlock: VOLQOD_clean_sbu_1, # of connection points: 6
#     Node 4, Type 0, BuildingBlock: VOLQOD_clean_sbu_1, # of connection points: 6
#     Node 5, Type 0, BuildingBlock: VOLQOD_clean_sbu_1, # of connection points: 6
#     Node 6, Type 0, BuildingBlock: VOLQOD_clean_sbu_1, # of connection points: 6
#     Node 7, Type 0, BuildingBlock: VOLQOD_clean_sbu_1, # of connection points: 6
#     Node 8, Type 0, BuildingBlock: VOLQOD_clean_sbu_1, # of connection points: 6
#     Node 9, Type 0, BuildingBlock: VOLQOD_clean_sbu_1, # of connection points: 6
#     Node 10, Type 0, BuildingBlock: VOLQOD_clean_sbu_1, # of connection points: 6
#     Node 11, Type 0, BuildingBlock: VOLQOD_clean_sbu_1, # of connection points: 6
#     Edge 12, Type (0, 0), BuildingBlock: EYOCIG_clean_linker_4, # of connection points: 2
#     Edge 13, Type (0, 0), BuildingBlock: EYOCIG_clean_linker_4, # of connection points: 2
#     Edge 14, Type (0, 0), BuildingBlock: EYOCIG_clean_linker_4, # of connection points: 2
#     Edge 15, Type (0, 0), BuildingBlock: EYOCIG_clean_linker_4, # of connection points: 2
#     Edge 16, Type (0, 0), BuildingBlock: EYOCIG_clean_linker_4, # of connection points: 2
#     Edge 17, Type (0, 0), BuildingBlock: EYOCIG_clean_linker_4, # of connection points: 2
#     Edge 18, Type (0, 0), BuildingBlock: EYOCIG_clean_linker_4, # of connection points: 2
#     Edge 19, Type (0, 0), BuildingBlock: EYOCIG_clean_linker_4, # of connection points: 2
#     Edge 20, Type (0, 0), BuildingBlock: EYOCIG_clean_linker_4, # of connection points: 2
#     Edge 21, Type (0, 0), BuildingBlock: EYOCIG_clean_linker_4, # of connection points: 2
#     Edge 22, Type (0, 0), BuildingBlock: EYOCIG_clean_linker_4, # of connection points: 2
#     Edge 23, Type (0, 0), BuildingBlock: EYOCIG_clean_linker_4, # of connection points: 2
#     Edge 24, Type (0, 0), BuildingBlock: EYOCIG_clean_linker_4, # of connection points: 2
#     Edge 25, Type (0, 0), BuildingBlock: EYOCIG_clean_linker_4, # of connection points: 2
#     Edge 26, Type (0, 0), BuildingBlock: EYOCIG_clean_linker_4, # of connection points: 2
#     Edge 27, Type (0, 0), BuildingBlock: EYOCIG_clean_linker_4, # of connection points: 2
#     Edge 28, Type (0, 0), BuildingBlock: EYOCIG_clean_linker_4, # of connection points: 2
#     Edge 29, Type (0, 0), BuildingBlock: EYOCIG_clean_linker_4, # of connection points: 2
#     Edge 30, Type (0, 0), BuildingBlock: EYOCIG_clean_linker_4, # of connection points: 2
#     Edge 31, Type (0, 0), BuildingBlock: EYOCIG_clean_linker_4, # of connection points: 2
#     Edge 32, Type (0, 0), BuildingBlock: EYOCIG_clean_linker_4, # of connection points: 2
#     Edge 33, Type (0, 0), BuildingBlock: EYOCIG_clean_linker_4, # of connection points: 2
#     Edge 34, Type (0, 0), BuildingBlock: EYOCIG_clean_linker_4, # of connection points: 2
#     Edge 35, Type (0, 0), BuildingBlock: EYOCIG_clean_linker_4, # of connection points: 2
#     Edge 36, Type (0, 0), BuildingBlock: EYOCIG_clean_linker_4, # of connection points: 2
#     Edge 37, Type (0, 0), BuildingBlock: EYOCIG_clean_linker_4, # of connection points: 2
#     Edge 38, Type (0, 0), BuildingBlock: EYOCIG_clean_linker_4, # of connection points: 2
#     Edge 39, Type (0, 0), BuildingBlock: EYOCIG_clean_linker_4, # of connection points: 2
#     Edge 40, Type (0, 0), BuildingBlock: EYOCIG_clean_linker_4, # of connection points: 2
#     Edge 41, Type (0, 0), BuildingBlock: EYOCIG_clean_linker_4, # of connection points: 2
#     Edge 42, Type (0, 0), BuildingBlock: EYOCIG_clean_linker_4, # of connection points: 2
#     Edge 43, Type (0, 0), BuildingBlock: EYOCIG_clean_linker_4, # of connection points: 2
#     Edge 44, Type (0, 0), BuildingBlock: EYOCIG_clean_linker_4, # of connection points: 2
#     Edge 45, Type (0, 0), BuildingBlock: EYOCIG_clean_linker_4, # of connection points: 2
#     Edge 46, Type (0, 0), BuildingBlock: EYOCIG_clean_linker_4, # of connection points: 2
#     Edge 47, Type (0, 0), BuildingBlock: EYOCIG_clean_linker_4, # of connection points: 2
# Relax obj value: 0.309
# Max RMSD: 0.232
# Mean RMSD: 0.231
data_MOF--net-wjd--node1-VOLQOD_clean_sbu_1--edge1-EYOCIG_clean_linker_4
_symmetry_space_group_name_H-M    P1
_symmetry_Int_Tables_number       1
_symmetry_cell_setting            triclinic
loop_
_symmetry_equiv_pos_as_xyz
'x, y, z'
_cell_length_a     26.586637
_cell_length_b     26.590704
_cell_length_c     53.815438
_cell_angle_alpha  90.115968
_cell_angle_beta   89.91091
_cell_angle_gamma 119.99676
loop_
_atom_site_label
_atom_site_type_symbol
_atom_site_fract_x
_atom_site_fract_y
_atom_site_fract_z
_atom_type_partial_charge
O0 O 0.35831 0.2086 0.08678 0.0
Zn1 Zn 0.28533 0.12931 0.08612 0.0
O2 O 0.28616 0.08084 0.11314 0.0
Zn3 Zn 0.28596 0.01213 0.10052 0.0
Zn4 Zn 0.35408 0.12561 0.13312 0.0
Zn5 Zn 0.2191 0.0563 0.13398 0.0
O6 O 0.21645 0.93769 0.11313 0.0
O7 O 0.16114 -0.02572 0.1255 0.0
O8 O 0.27061 0.08706 0.05275 0.0
O9 O 0.27144 0.00683 0.06396 0.0
O10 O 0.36499 0.01851 0.10504 0.0
O11 O 0.41406 0.10443 0.12397 0.0
O12 O 0.33602 0.11026 0.1697 0.0
O13 O 0.22294 0.14989 0.09239 0.0
O14 O 0.23943 0.05937 0.17019 0.0
O15 O 0.18405 0.10704 0.12847 0.0
C16 C 0.38921 0.236 0.10556 0.0
C17 C 0.16733 0.93149 0.11934 0.0
C18 C 0.41209 0.06051 0.11357 0.0
C19 C 0.26577 0.03793 0.04758 0.0
C20 C 0.28809 0.08277 0.18134 0.0
C21 C 0.18899 0.14059 0.11067 0.0
O22 O 0.38785 0.21046 0.12574 0.0
O23 O 0.79259 0.55743 0.3596 0.0
Zn24 Zn 0.78896 0.62838 0.35075 0.0
O25 O 0.73855 0.63927 0.37321 0.0
Zn26 Zn 0.67211 0.63334 0.3552 0.0
Zn27 Zn 0.71439 0.58197 0.39926 0.0
Zn28 Zn 0.78137 0.71425 0.38872 0.0
O29 O 0.6657 0.70567 0.36143 0.0
O30 O 0.75654 0.7665 0.37388 0.0
O31 O 0.76565 0.62648 0.31517 0.0
O32 O 0.68516 0.63234 0.31807 0.0
O33 O 0.5991 0.55686 0.364 0.0
O34 O 0.63408 0.51912 0.39137 0.0
O35 O 0.70942 0.61591 0.43259 0.0
O36 O 0.87096 0.69232 0.35446 0.0
O37 O 0.75872 0.71056 0.42463 0.0
O38 O 0.86807 0.7486 0.38445 0.0
C39 C 0.78824 0.53416 0.3807 0.0
C40 C 0.70709 0.75668 0.36644 0.0
C41 C 0.59305 0.51545 0.37799 0.0
C42 C 0.72385 0.62938 0.30521 0.0
C43 C 0.7288 0.66847 0.43923 0.0
C44 C 0.89612 0.73516 0.36919 0.0
O45 O 0.76505 0.54447 0.39937 0.0
O46 O 0.71671 0.13411 0.08642 0.0
Zn47 Zn 0.79598 0.14033 0.0859 0.0
O48 O 0.84417 0.18953 0.11307 0.0
Zn49 Zn 0.91306 0.25805 0.10068 0.0
Zn50 Zn 0.79921 0.21267 0.13299 0.0
Zn51 Zn 0.86835 0.14691 0.13393 0.0
O52 O -0.01269 0.26287 0.11347 0.0
O53 O 0.95048 0.17091 0.12564 0.0
O54 O 0.83865 0.16806 0.05264 0.0
O55 O 0.9188 0.249 0.06413 0.0
O56 O 0.9066 0.33068 0.10521 0.0
O57 O 0.82034 0.29374 0.12385 0.0
O58 O 0.81429 0.2101 0.1696 0.0
O59 O 0.77515 0.05728 0.09206 0.0
O60 O 0.86498 0.1642 0.17015 0.0
O61 O 0.81746 0.06117 0.12826 0.0
C62 C 0.68911 0.13743 0.10518 0.0
C63 C -0.00662 0.21991 0.11964 0.0
C64 C 0.86441 0.33572 0.11358 0.0
C65 C 0.88785 0.21236 0.04763 0.0
C66 C 0.8416 0.18958 0.18128 0.0
C67 C 0.78409 0.03259 0.11037 0.0
O68 O 0.71446 0.16148 0.12544 0.0
O69 O 0.36697 0.21918 0.35962 0.0
Zn70 Zn 0.29596 0.14446 0.35088 0.0
O71 O 0.28532 0.08347 0.37334 0.0
Zn72 Zn 0.29127 0.02282 0.35536 0.0
Zn73 Zn 0.34278 0.11701 0.39934 0.0
Zn74 Zn 0.2104 0.05129 0.38889 0.0
O75 O 0.21909 0.94411 0.36164 0.0
O76 O 0.15814 -0.02592 0.37405 0.0
O77 O 0.29764 0.12264 0.31531 0.0
O78 O 0.29212 0.03648 0.31823 0.0
O79 O 0.36779 0.02646 0.36414 0.0
O80 O 0.40562 0.09954 0.39145 0.0
O81 O 0.30908 0.0784 0.43269 0.0
O82 O 0.23197 0.16245 0.35468 0.0
O83 O 0.21437 0.03258 0.42476 0.0
O84 O 0.17593 0.10352 0.38472 0.0
C85 C 0.39044 0.23841 0.38069 0.0
C86 C 0.16805 0.93443 0.36665 0.0
C87 C 0.40926 0.06202 0.3781 0.0
C88 C 0.29488 0.07793 0.30536 0.0
C89 C 0.25659 0.04505 0.43934 0.0
C90 C 0.18923 0.14487 0.36945 0.0
O91 O 0.38027 0.20517 0.39939 0.0
O92 O 0.79114 0.56683 0.08621 0.0
Zn93 Zn 0.78475 0.6398 0.08572 0.0
O94 O 0.7356 0.63894 0.11292 0.0
Zn95 Zn 0.66699 0.63915 0.10054 0.0
Zn96 Zn 0.71261 0.57101 0.13283 0.0
Zn97 Zn 0.77823 0.70592 0.1338 0.0
O98 O 0.66233 0.70882 0.11324 0.0
O99 O 0.75423 0.76401 0.12554 0.0
O100 O 0.75689 0.65446 0.05246 0.0
O101 O 0.6758 0.65344 0.06395 0.0
O102 O 0.59431 0.56017 0.10525 0.0
O103 O 0.63139 0.51109 0.12387 0.0
O104 O 0.71555 0.58892 0.16944 0.0
O105 O 0.86777 0.70222 0.09187 0.0
O106 O 0.76109 0.68548 0.17004 0.0
O107 O 0.86396 0.74082 0.12811 0.0
C108 C 0.78767 0.53587 0.10492 0.0
C109 C 0.70526 0.75789 0.11946 0.0
C110 C 0.5893 0.51308 0.11369 0.0
C111 C 0.71247 0.65915 0.04745 0.0
C112 C 0.73596 0.63679 0.18115 0.0
C113 C 0.8925 0.736 0.11018 0.0
O114 O 0.76357 0.5372 0.12517 0.0
O115 O 0.70541 0.13207 0.35968 0.0
Zn116 Zn 0.78013 0.13587 0.35082 0.0
O117 O 0.84119 0.18625 0.37334 0.0
Zn118 Zn 0.9019 0.25272 0.35538 0.0
Zn119 Zn 0.80781 0.21045 0.39936 0.0
Zn120 Zn 0.87317 0.14339 0.38887 0.0
O121 O -0.01943 0.25916 0.36167 0.0
O122 O 0.95054 0.16842 0.3742 0.0
O123 O 0.80178 0.15945 0.31527 0.0
O124 O 0.88816 0.23985 0.31823 0.0
O125 O 0.89844 0.32573 0.36422 0.0
O126 O 0.82542 0.29078 0.39152 0.0
O127 O 0.84629 0.21533 0.43272 0.0
O128 O 0.76223 0.05389 0.35439 0.0
O129 O 0.89154 0.16582 0.42483 0.0
O130 O 0.82104 0.05671 0.38445 0.0
C131 C 0.68631 0.1366 0.38074 0.0
C132 C -0.00978 0.21787 0.36677 0.0
C133 C 0.86296 0.33181 0.37818 0.0
C134 C 0.84655 0.20128 0.30534 0.0
C135 C 0.87927 0.19581 0.43941 0.0
C136 C 0.7798 0.0287 0.3691 0.0
O137 O 0.71965 0.15993 0.39941 0.0
O138 O 0.20454 0.38233 0.6258 0.0
Zn139 Zn 0.12999 0.31115 0.63451 0.0
O140 O 0.0688 0.30041 0.61212 0.0
Zn141 Zn 0.0083 0.30638 0.6302 0.0
Zn142 Zn 0.10215 0.35777 0.58611 0.0
Zn143 Zn 0.0365 0.22546 0.59659 0.0
O144 O 0.9295 0.23433 0.62389 0.0
O145 O -0.04062 0.17331 0.6115 0.0
O146 O 0.10826 0.3125 0.67012 0.0
O147 O 0.02204 0.30691 0.6673 0.0
O148 O 0.0121 0.38303 0.62158 0.0
O149 O 0.08474 0.42062 0.59408 0.0
O150 O 0.06341 0.32396 0.55276 0.0
O151 O 0.14816 0.24735 0.63056 0.0
O152 O 0.01763 0.2293 0.56072 0.0
O153 O 0.08874 0.191 0.60069 0.0
C154 C 0.22366 0.40572 0.60472 0.0
C155 C 0.91978 0.18327 0.61891 0.0
C156 C 0.0475 0.4244 0.60756 0.0
C157 C 0.06352 0.30957 0.68012 0.0
C158 C 0.03005 0.27144 0.54613 0.0
C159 C 0.13037 0.20449 0.61584 0.0
O160 O 0.19034 0.39535 0.58602 0.0
O161 O 0.11954 0.73168 0.89875 0.0
Zn162 Zn 0.12585 0.81101 0.89937 0.0
O163 O 0.17506 0.85927 0.87225 0.0
Zn164 Zn 0.24365 0.9281 0.88468 0.0
Zn165 Zn 0.1981 0.81434 0.85225 0.0
Zn166 Zn 0.1325 0.88371 0.85148 0.0
O167 O 0.24864 0.00246 0.87195 0.0
O168 O 0.15661 0.96578 0.85987 0.0
O169 O 0.1536 0.85361 0.93266 0.0
O170 O 0.23454 0.93379 0.92123 0.0
O171 O 0.31621 0.92147 0.88017 0.0
O172 O 0.27921 0.83538 0.86136 0.0
O173 O 0.1954 0.82958 0.81567 0.0
O174 O 0.04283 0.79038 0.89323 0.0
O175 O 0.14967 0.88045 0.81526 0.0
O176 O 0.04676 0.83302 0.85712 0.0
C177 C 0.12291 0.70414 0.87998 0.0
C178 C 0.20567 0.00862 0.86585 0.0
C179 C 0.3212 0.87931 0.87171 0.0
C180 C 0.19788 0.90282 0.9377 0.0
C181 C 0.17492 0.85703 0.80406 0.0
C182 C 0.01816 0.79957 0.87497 0.0
O183 O 0.14695 0.72954 0.85973 0.0
O184 O 0.54314 0.80801 0.62597 0.0
Zn185 Zn 0.61407 0.80421 0.6347 0.0
O186 O 0.62479 0.75389 0.61212 0.0
Zn187 Zn 0.61888 0.68735 0.63001 0.0
Zn188 Zn 0.56732 0.72991 0.58614 0.0
Zn189 Zn 0.69968 0.79669 0.59655 0.0
O190 O 0.69104 0.68077 0.62355 0.0
O191 O 0.75195 0.77163 0.61119 0.0
O192 O 0.6123 0.78071 0.67023 0.0
O193 O 0.61821 0.70028 0.66718 0.0
O194 O 0.54224 0.61449 0.62123 0.0
O195 O 0.50438 0.64966 0.59399 0.0
O196 O 0.60097 0.72492 0.55274 0.0
O197 O 0.67805 0.88616 0.63105 0.0
O198 O 0.6957 0.77422 0.5606 0.0
O199 O 0.73414 0.88337 0.60095 0.0
C200 C 0.51984 0.80386 0.60489 0.0
C201 C 0.74206 0.72209 0.6185 0.0
C202 C 0.50073 0.60856 0.60731 0.0
C203 C 0.61528 0.7389 0.68011 0.0
C204 C 0.65348 0.74432 0.54603 0.0
C205 C 0.72082 0.91136 0.61631 0.0
O206 O 0.53003 0.78074 0.58616 0.0
O207 O 0.19394 0.37343 0.8987 0.0
Zn208 Zn 0.1147 0.30035 0.89937 0.0
O209 O 0.06614 0.30094 0.87233 0.0
Zn210 Zn -0.00255 0.30088 0.88489 0.0
Zn211 Zn 0.11088 0.36866 0.85227 0.0
Zn212 Zn 0.04153 0.23369 0.85159 0.0
O213 O 0.92296 0.23125 0.87233 0.0
O214 O -0.04046 0.17581 0.86014 0.0
O215 O 0.07236 0.28562 0.93271 0.0
O216 O -0.00784 0.28649 0.92145 0.0
O217 O 0.00395 0.37997 0.8803 0.0
O218 O 0.0898 0.42878 0.86131 0.0
O219 O 0.09547 0.35026 0.81573 0.0
O220 O 0.13546 0.23806 0.89316 0.0
O221 O 0.04447 0.25368 0.81535 0.0
O222 O 0.09236 0.19876 0.85715 0.0
C223 C 0.22131 0.40409 0.87989 0.0
C224 C 0.91676 0.18206 0.86624 0.0
C225 C 0.04595 0.42697 0.87171 0.0
C226 C 0.02323 0.2808 0.93785 0.0
C227 C 0.06792 0.30225 0.80414 0.0
C228 C 0.12608 0.20394 0.87494 0.0
O229 O 0.19574 0.40246 0.85967 0.0
O230 O 0.11771 0.72081 0.62587 0.0
Zn231 Zn 0.12118 0.79546 0.63453 0.0
O232 O 0.17169 0.85638 0.61202 0.0
Zn233 Zn 0.23806 0.9172 0.63001 0.0
Zn234 Zn 0.19605 0.8229 0.5861 0.0
Zn235 Zn 0.12888 0.88828 0.59638 0.0
O236 O 0.24447 -0.00423 0.62361 0.0
O237 O 0.15371 0.96564 0.61104 0.0
O238 O 0.14449 0.81739 0.67009 0.0
O239 O 0.22504 0.90364 0.66715 0.0
O240 O 0.31118 0.91387 0.62131 0.0
O241 O 0.27645 0.84078 0.59403 0.0
O242 O 0.20091 0.86113 0.55267 0.0
O243 O 0.03915 0.77728 0.63071 0.0
O244 O 0.15158 0.90658 0.56048 0.0
O245 O 0.04217 0.83602 0.6006 0.0
C246 C 0.12239 0.70156 0.60487 0.0
C247 C 0.20315 0.00537 0.61847 0.0
C248 C 0.31741 0.87842 0.60739 0.0
C249 C 0.18633 0.86215 0.68002 0.0
C250 C 0.1815 0.89417 0.54594 0.0
C251 C 0.01404 0.79474 0.61589 0.0
O252 O 0.1457 0.73473 0.58616 0.0
O253 O 0.55206 0.80558 0.89917 0.0
Zn254 Zn 0.6251 0.79926 0.89966 0.0
O255 O 0.62434 0.75034 0.87239 0.0
Zn256 Zn 0.62457 0.68167 0.88462 0.0
Zn257 Zn 0.55646 0.72744 0.85243 0.0
Zn258 Zn 0.69135 0.79315 0.85158 0.0
O259 O 0.69417 0.67703 0.87181 0.0
O260 O 0.74941 0.76914 0.85984 0.0
O261 O 0.63979 0.77117 0.93286 0.0
O262 O 0.63905 0.69031 0.9212 0.0
O263 O 0.54553 0.60907 0.87991 0.0
O264 O 0.49645 0.64625 0.86136 0.0
O265 O 0.57448 0.73042 0.81583 0.0
O266 O 0.68752 0.88234 0.89367 0.0
O267 O 0.67106 0.77617 0.81532 0.0
O268 O 0.72622 0.87883 0.85741 0.0
C269 C 0.52125 0.80233 0.88042 0.0
C270 C 0.74328 0.7201 0.86575 0.0
C271 C 0.49842 0.60413 0.87151 0.0
C272 C 0.64467 0.72682 0.93778 0.0
C273 C 0.6224 0.75095 0.80417 0.0
C274 C 0.72136 0.90722 0.8754 0.0
O275 O 0.52272 0.77844 0.86012 0.0
C276 C 0.089 0.21494 0.11573 0.0
C277 C 0.04859 0.22336 0.11692 0.0
C278 C 0.12793 0.19376 0.11345 0.0
C279 C 0.15638 0.17014 0.11164 0.0
C280 C 0.07036 0.83638 0.36517 0.0
C281 C 0.1189 0.87729 0.36475 0.0
C282 C 0.01019 0.79769 0.36685 0.0
C283 C -0.04192 0.76947 0.3681 0.0
C284 C 0.73092 0.91838 0.11311 0.0
C285 C 0.75448 -0.02958 0.11127 0.0
C286 C 0.71001 0.85835 0.11545 0.0
C287 C 0.7018 0.80962 0.11669 0.0
C288 C 0.12678 0.19647 0.36718 0.0
C289 C 0.15491 0.17251 0.36843 0.0
C290 C 0.0882 0.21807 0.36544 0.0
C291 C 0.04736 0.2258 0.36495 0.0
C292 C 0.06681 0.83593 0.11518 0.0
C293 C 0.11562 0.87632 0.11647 0.0
C294 C 0.00672 0.79701 0.11285 0.0
C295 C 0.95467 0.76857 0.11106 0.0
C296 C 0.70698 0.85449 0.36491 0.0
C297 C 0.69924 0.80591 0.36451 0.0
C298 C 0.72846 0.91466 0.36662 0.0
C299 C 0.75225 0.96676 0.36793 0.0
C300 C 0.20346 0.10338 0.61973 0.0
C301 C 0.21109 0.06249 0.62024 0.0
C302 C 0.18195 0.14203 0.61801 0.0
C303 C 0.158 0.17017 0.61681 0.0
C304 C 0.90395 0.74639 0.87219 0.0
C305 C -0.044 0.76997 0.87404 0.0
C306 C 0.84387 0.7252 0.86982 0.0
C307 C 0.79504 0.71672 0.86854 0.0
C308 C 0.78321 0.02541 0.61873 0.0
C309 C 0.75507 -0.02669 0.61743 0.0
C310 C 0.82178 0.08559 0.62044 0.0
C311 C 0.86263 0.13415 0.62084 0.0
C312 C 0.17944 0.14306 0.87217 0.0
C313 C 0.15575 0.17144 0.87398 0.0
C314 C 0.20071 0.10421 0.86987 0.0
C315 C 0.2092 0.06385 0.86863 0.0
C316 C 0.89994 0.74317 0.6181 0.0
C317 C 0.95206 0.76708 0.61691 0.0
C318 C 0.83976 0.7217 0.61979 0.0
C319 C 0.79122 0.71407 0.62028 0.0
C320 C 0.82124 0.08155 0.87053 0.0
C321 C 0.86159 0.13037 0.86917 0.0
C322 C 0.78235 0.02146 0.87287 0.0
C323 C 0.75389 0.9694 0.87461 0.0
C324 C 0.29184 0.07318 0.25637 0.0
C325 C 0.29313 0.07374 0.27876 0.0
C326 C 0.29008 0.07509 0.23019 0.0
C327 C 0.28894 0.07848 0.20789 0.0
C328 C 0.72253 0.63254 0.25621 0.0
C329 C 0.72166 0.63119 0.2786 0.0
C330 C 0.72631 0.63448 0.23003 0.0
C331 C 0.73084 0.6358 0.20771 0.0
C332 C 0.84908 0.19934 0.23015 0.0
C333 C 0.84575 0.19481 0.20784 0.0
C334 C 0.85104 0.203 0.25634 0.0
C335 C 0.8506 0.20372 0.27873 0.0
C336 C 0.05865 0.30599 0.7291 0.0
C337 C 0.05933 0.30753 0.70672 0.0
C338 C 0.06037 0.30405 0.75528 0.0
C339 C 0.06365 0.3029 0.77759 0.0
C340 C 0.18445 0.86472 0.7552 0.0
C341 C 0.18003 0.86129 0.77751 0.0
C342 C 0.18803 0.86675 0.72902 0.0
C343 C 0.18876 0.86626 0.70663 0.0
C344 C 0.61848 0.73745 0.72911 0.0
C345 C 0.61712 0.73658 0.70671 0.0
C346 C 0.62032 0.74126 0.75529 0.0
C347 C 0.62152 0.7458 0.7776 0.0
C348 C 0.21859 0.95362 0.98163 0.0
C349 C 0.20585 0.92718 0.96223 0.0
C350 C 0.23558 -0.01257 0.00361 0.0
C351 C 0.24933 0.01375 0.02303 0.0
C352 C 0.69694 0.69493 0.4817 0.0
C353 C 0.71048 0.68094 0.46254 0.0
C354 C 0.67961 0.71239 0.50349 0.0
C355 C 0.66576 0.72596 0.52269 0.0
C356 C -0.02744 0.25039 0.98177 0.0
C357 C -0.00105 0.26424 0.96237 0.0
C358 C 0.9387 0.23326 0.00372 0.0
C359 C 0.91222 0.22041 0.0231 0.0
C360 C 0.23057 -0.01318 0.48173 0.0
C361 C 0.24437 0.01433 0.4626 0.0
C362 C 0.21332 0.95203 0.50346 0.0
C363 C 0.19986 0.92465 0.52262 0.0
C364 C 0.69167 0.68903 0.00355 0.0
C365 C 0.70444 0.67542 0.02293 0.0
C366 C 0.67473 0.70591 0.98161 0.0
C367 C 0.66104 0.71868 0.96225 0.0
C368 C -0.02809 0.24511 0.50368 0.0
C369 C -0.00062 0.25908 0.52283 0.0
C370 C 0.93719 0.22768 0.48192 0.0
C371 C 0.90984 0.21413 0.46273 0.0
C372 C 0.57522 0.09123 0.10484 0.0
C373 C 0.62714 0.11157 0.10399 0.0
C374 C 0.51534 0.07179 0.10708 0.0
C375 C 0.46621 0.06232 0.10919 0.0
C376 C 0.50061 0.41154 0.37995 0.0
C377 C 0.54017 0.46059 0.37763 0.0
C378 C 0.46062 0.35165 0.38241 0.0
C379 C 0.42916 0.29973 0.38299 0.0
C380 C 0.85306 0.42755 0.10695 0.0
C381 C 0.86255 0.38794 0.10914 0.0
C382 C 0.83369 0.46801 0.1046 0.0
C383 C 0.81346 0.49968 0.10371 0.0
C384 C 0.51318 0.07355 0.38007 0.0
C385 C 0.46411 0.064 0.37775 0.0
C386 C 0.57307 0.0935 0.38253 0.0
C387 C 0.625 0.11401 0.38309 0.0
C388 C 0.45692 0.34989 0.10531 0.0
C389 C 0.42536 0.29797 0.10447 0.0
C390 C 0.49729 0.4098 0.10747 0.0
C391 C 0.53692 0.45897 0.10946 0.0
C392 C 0.83151 0.46418 0.38257 0.0
C393 C 0.81094 0.49556 0.38309 0.0
C394 C 0.8515 0.42425 0.38014 0.0
C395 C 0.86102 0.3847 0.37783 0.0
C396 C 0.07941 0.58834 0.60325 0.0
C397 C 0.09986 0.64025 0.60262 0.0
C398 C 0.05938 0.52845 0.60572 0.0
C399 C 0.04969 0.47934 0.608 0.0
C400 C 0.41292 0.86774 0.87838 0.0
C401 C 0.37335 0.8773 0.87618 0.0
C402 C 0.45337 0.84834 0.88075 0.0
C403 C 0.48505 0.82812 0.88165 0.0
C404 C 0.39675 0.51619 0.60538 0.0
C405 C 0.44584 0.55573 0.60767 0.0
C406 C 0.33687 0.47613 0.60295 0.0
C407 C 0.28496 0.44455 0.60239 0.0
C408 C 0.07689 0.59025 0.88029 0.0
C409 C 0.09716 0.64217 0.88113 0.0
C410 C 0.05745 0.53035 0.87808 0.0
C411 C 0.04789 0.48118 0.87603 0.0
C412 C 0.41001 0.86723 0.60554 0.0
C413 C 0.37038 0.87665 0.60781 0.0
C414 C 0.44998 0.84728 0.60313 0.0
C415 C 0.48131 0.82667 0.60258 0.0
C416 C 0.39511 0.51223 0.87782 0.0
C417 C 0.44428 0.55183 0.87578 0.0
C418 C 0.33521 0.47186 0.88006 0.0
C419 C 0.28329 0.44028 0.88096 0.0
loop_
_geom_bond_atom_site_label_1
_geom_bond_atom_site_label_2
_geom_bond_distance
_geom_bond_site_symmetry_2
_ccdc_geom_bond_type
O0 Zn1 1.953 . S
O0 C16 1.225 . S
Zn1 O0 1.953 . S
Zn1 O2 1.949 . S
Zn1 O8 1.919 . S
Zn1 O13 1.924 . S
O2 Zn1 1.949 . S
O2 Zn3 1.923 . S
O2 Zn4 1.950 . S
O2 Zn5 1.945 . S
Zn3 O2 1.923 . S
Zn3 O6 1.933 1_545 S
Zn3 O9 1.941 . S
Zn3 O10 1.965 . S
Zn4 O2 1.950 . S
Zn4 O11 1.938 . S
Zn4 O12 1.906 . S
Zn4 O22 1.953 . S
Zn5 O2 1.945 . S
Zn5 O7 1.932 1_545 S
Zn5 O14 1.977 . S
Zn5 O15 1.910 . S
O6 Zn3 1.933 1_565 S
O6 C17 1.226 . S
O7 Zn5 1.932 1_565 S
O7 C17 1.307 . S
O8 Zn1 1.919 . S
O8 C19 1.253 . S
O9 Zn3 1.941 . S
O9 C19 1.283 . S
O10 Zn3 1.965 . S
O10 C18 1.303 . S
O11 Zn4 1.938 . S
O11 C18 1.247 . S
O12 Zn4 1.906 . S
O12 C20 1.304 . S
O13 Zn1 1.924 . S
O13 C21 1.311 . S
O14 Zn5 1.977 . S
O14 C20 1.272 . S
O15 Zn5 1.910 . S
O15 C21 1.231 . S
C16 O0 1.225 . S
C16 O22 1.298 . S
C17 O6 1.226 . S
C17 O7 1.307 . S
C18 O10 1.303 . S
C18 O11 1.247 . S
C19 O8 1.253 . S
C19 O9 1.283 . S
C20 O12 1.304 . S
C20 O14 1.272 . S
C21 O13 1.311 . S
C21 O15 1.231 . S
O22 Zn4 1.953 . S
O22 C16 1.298 . S
O23 Zn24 1.953 . S
O23 C39 1.225 . S
Zn24 O23 1.953 . S
Zn24 O25 1.949 . S
Zn24 O31 1.919 . S
Zn24 O36 1.924 . S
O25 Zn24 1.949 . S
O25 Zn26 1.923 . S
O25 Zn27 1.950 . S
O25 Zn28 1.945 . S
Zn26 O25 1.923 . S
Zn26 O29 1.933 . S
Zn26 O32 1.941 . S
Zn26 O33 1.965 . S
Zn27 O25 1.950 . S
Zn27 O34 1.938 . S
Zn27 O35 1.906 . S
Zn27 O45 1.953 . S
Zn28 O25 1.945 . S
Zn28 O30 1.932 . S
Zn28 O37 1.977 . S
Zn28 O38 1.910 . S
O29 Zn26 1.933 . S
O29 C40 1.226 . S
O30 Zn28 1.932 . S
O30 C40 1.307 . S
O31 Zn24 1.919 . S
O31 C42 1.253 . S
O32 Zn26 1.941 . S
O32 C42 1.283 . S
O33 Zn26 1.965 . S
O33 C41 1.303 . S
O34 Zn27 1.938 . S
O34 C41 1.247 . S
O35 Zn27 1.906 . S
O35 C43 1.304 . S
O36 Zn24 1.924 . S
O36 C44 1.311 . S
O37 Zn28 1.977 . S
O37 C43 1.272 . S
O38 Zn28 1.910 . S
O38 C44 1.231 . S
C39 O23 1.225 . S
C39 O45 1.298 . S
C40 O29 1.226 . S
C40 O30 1.307 . S
C41 O33 1.303 . S
C41 O34 1.247 . S
C42 O31 1.253 . S
C42 O32 1.283 . S
C43 O35 1.304 . S
C43 O37 1.272 . S
C44 O36 1.311 . S
C44 O38 1.231 . S
O45 Zn27 1.953 . S
O45 C39 1.298 . S
O46 Zn47 1.953 . S
O46 C62 1.225 . S
Zn47 O46 1.953 . S
Zn47 O48 1.949 . S
Zn47 O54 1.919 . S
Zn47 O59 1.924 . S
O48 Zn47 1.949 . S
O48 Zn49 1.923 . S
O48 Zn50 1.950 . S
O48 Zn51 1.945 . S
Zn49 O48 1.923 . S
Zn49 O52 1.933 1_655 S
Zn49 O55 1.941 . S
Zn49 O56 1.965 . S
Zn50 O48 1.950 . S
Zn50 O57 1.938 . S
Zn50 O58 1.906 . S
Zn50 O68 1.953 . S
Zn51 O48 1.945 . S
Zn51 O53 1.932 1_655 S
Zn51 O60 1.977 . S
Zn51 O61 1.910 . S
O52 Zn49 1.933 1_455 S
O52 C63 1.226 . S
O53 Zn51 1.932 1_455 S
O53 C63 1.307 . S
O54 Zn47 1.919 . S
O54 C65 1.253 . S
O55 Zn49 1.941 . S
O55 C65 1.283 . S
O56 Zn49 1.965 . S
O56 C64 1.303 . S
O57 Zn50 1.938 . S
O57 C64 1.247 . S
O58 Zn50 1.906 . S
O58 C66 1.304 . S
O59 Zn47 1.924 . S
O59 C67 1.311 . S
O60 Zn51 1.977 . S
O60 C66 1.272 . S
O61 Zn51 1.910 . S
O61 C67 1.231 . S
C62 O46 1.225 . S
C62 O68 1.298 . S
C63 O52 1.226 . S
C63 O53 1.307 . S
C64 O56 1.303 . S
C64 O57 1.247 . S
C65 O54 1.253 . S
C65 O55 1.283 . S
C66 O58 1.304 . S
C66 O60 1.272 . S
C67 O59 1.311 . S
C67 O61 1.231 . S
O68 Zn50 1.953 . S
O68 C62 1.298 . S
O69 Zn70 1.953 . S
O69 C85 1.225 . S
Zn70 O69 1.953 . S
Zn70 O71 1.949 . S
Zn70 O77 1.919 . S
Zn70 O82 1.924 . S
O71 Zn70 1.949 . S
O71 Zn72 1.923 . S
O71 Zn73 1.950 . S
O71 Zn74 1.945 . S
Zn72 O71 1.923 . S
Zn72 O75 1.933 1_545 S
Zn72 O78 1.941 . S
Zn72 O79 1.965 . S
Zn73 O71 1.950 . S
Zn73 O80 1.938 . S
Zn73 O81 1.906 . S
Zn73 O91 1.953 . S
Zn74 O71 1.945 . S
Zn74 O76 1.932 1_545 S
Zn74 O83 1.977 . S
Zn74 O84 1.910 . S
O75 Zn72 1.933 1_565 S
O75 C86 1.226 . S
O76 Zn74 1.932 1_565 S
O76 C86 1.307 . S
O77 Zn70 1.919 . S
O77 C88 1.253 . S
O78 Zn72 1.941 . S
O78 C88 1.283 . S
O79 Zn72 1.965 . S
O79 C87 1.303 . S
O80 Zn73 1.938 . S
O80 C87 1.247 . S
O81 Zn73 1.906 . S
O81 C89 1.304 . S
O82 Zn70 1.924 . S
O82 C90 1.311 . S
O83 Zn74 1.977 . S
O83 C89 1.272 . S
O84 Zn74 1.910 . S
O84 C90 1.231 . S
C85 O69 1.225 . S
C85 O91 1.298 . S
C86 O75 1.226 . S
C86 O76 1.307 . S
C87 O79 1.303 . S
C87 O80 1.247 . S
C88 O77 1.253 . S
C88 O78 1.283 . S
C89 O81 1.304 . S
C89 O83 1.272 . S
C90 O82 1.311 . S
C90 O84 1.231 . S
O91 Zn73 1.953 . S
O91 C85 1.298 . S
O92 Zn93 1.953 . S
O92 C108 1.225 . S
Zn93 O92 1.953 . S
Zn93 O94 1.949 . S
Zn93 O100 1.919 . S
Zn93 O105 1.924 . S
O94 Zn93 1.949 . S
O94 Zn95 1.923 . S
O94 Zn96 1.950 . S
O94 Zn97 1.945 . S
Zn95 O94 1.923 . S
Zn95 O98 1.933 . S
Zn95 O101 1.941 . S
Zn95 O102 1.965 . S
Zn96 O94 1.950 . S
Zn96 O103 1.938 . S
Zn96 O104 1.906 . S
Zn96 O114 1.953 . S
Zn97 O94 1.945 . S
Zn97 O99 1.932 . S
Zn97 O106 1.977 . S
Zn97 O107 1.910 . S
O98 Zn95 1.933 . S
O98 C109 1.226 . S
O99 Zn97 1.932 . S
O99 C109 1.307 . S
O100 Zn93 1.919 . S
O100 C111 1.253 . S
O101 Zn95 1.941 . S
O101 C111 1.283 . S
O102 Zn95 1.965 . S
O102 C110 1.303 . S
O103 Zn96 1.938 . S
O103 C110 1.247 . S
O104 Zn96 1.906 . S
O104 C112 1.304 . S
O105 Zn93 1.924 . S
O105 C113 1.311 . S
O106 Zn97 1.977 . S
O106 C112 1.272 . S
O107 Zn97 1.910 . S
O107 C113 1.231 . S
C108 O92 1.225 . S
C108 O114 1.298 . S
C109 O98 1.226 . S
C109 O99 1.307 . S
C110 O102 1.303 . S
C110 O103 1.247 . S
C111 O100 1.253 . S
C111 O101 1.283 . S
C112 O104 1.304 . S
C112 O106 1.272 . S
C113 O105 1.311 . S
C113 O107 1.231 . S
O114 Zn96 1.953 . S
O114 C108 1.298 . S
O115 Zn116 1.953 . S
O115 C131 1.225 . S
Zn116 O115 1.953 . S
Zn116 O117 1.949 . S
Zn116 O123 1.919 . S
Zn116 O128 1.924 . S
O117 Zn116 1.949 . S
O117 Zn118 1.923 . S
O117 Zn119 1.950 . S
O117 Zn120 1.945 . S
Zn118 O117 1.923 . S
Zn118 O121 1.933 1_655 S
Zn118 O124 1.941 . S
Zn118 O125 1.965 . S
Zn119 O117 1.950 . S
Zn119 O126 1.938 . S
Zn119 O127 1.906 . S
Zn119 O137 1.953 . S
Zn120 O117 1.945 . S
Zn120 O122 1.932 1_655 S
Zn120 O129 1.977 . S
Zn120 O130 1.910 . S
O121 Zn118 1.933 1_455 S
O121 C132 1.226 . S
O122 Zn120 1.932 1_455 S
O122 C132 1.307 . S
O123 Zn116 1.919 . S
O123 C134 1.253 . S
O124 Zn118 1.941 . S
O124 C134 1.283 . S
O125 Zn118 1.965 . S
O125 C133 1.303 . S
O126 Zn119 1.938 . S
O126 C133 1.247 . S
O127 Zn119 1.906 . S
O127 C135 1.304 . S
O128 Zn116 1.924 . S
O128 C136 1.311 . S
O129 Zn120 1.977 . S
O129 C135 1.272 . S
O130 Zn120 1.910 . S
O130 C136 1.231 . S
C131 O115 1.225 . S
C131 O137 1.298 . S
C132 O121 1.226 . S
C132 O122 1.307 . S
C133 O125 1.303 . S
C133 O126 1.247 . S
C134 O123 1.253 . S
C134 O124 1.283 . S
C135 O127 1.304 . S
C135 O129 1.272 . S
C136 O128 1.311 . S
C136 O130 1.231 . S
O137 Zn119 1.953 . S
O137 C131 1.298 . S
O138 Zn139 1.953 . S
O138 C154 1.225 . S
Zn139 O138 1.953 . S
Zn139 O140 1.949 . S
Zn139 O146 1.919 . S
Zn139 O151 1.924 . S
O140 Zn139 1.949 . S
O140 Zn141 1.923 . S
O140 Zn142 1.950 . S
O140 Zn143 1.945 . S
Zn141 O140 1.923 . S
Zn141 O144 1.933 1_455 S
Zn141 O147 1.941 . S
Zn141 O148 1.965 . S
Zn142 O140 1.950 . S
Zn142 O149 1.938 . S
Zn142 O150 1.906 . S
Zn142 O160 1.953 . S
Zn143 O140 1.945 . S
Zn143 O145 1.932 1_455 S
Zn143 O152 1.977 . S
Zn143 O153 1.910 . S
O144 Zn141 1.933 1_655 S
O144 C155 1.226 . S
O145 Zn143 1.932 1_655 S
O145 C155 1.307 . S
O146 Zn139 1.919 . S
O146 C157 1.253 . S
O147 Zn141 1.941 . S
O147 C157 1.283 . S
O148 Zn141 1.965 . S
O148 C156 1.303 . S
O149 Zn142 1.938 . S
O149 C156 1.247 . S
O150 Zn142 1.906 . S
O150 C158 1.304 . S
O151 Zn139 1.924 . S
O151 C159 1.311 . S
O152 Zn143 1.977 . S
O152 C158 1.272 . S
O153 Zn143 1.910 . S
O153 C159 1.231 . S
C154 O138 1.225 . S
C154 O160 1.298 . S
C155 O144 1.226 . S
C155 O145 1.307 . S
C156 O148 1.303 . S
C156 O149 1.247 . S
C157 O146 1.253 . S
C157 O147 1.283 . S
C158 O150 1.304 . S
C158 O152 1.272 . S
C159 O151 1.311 . S
C159 O153 1.231 . S
O160 Zn142 1.953 . S
O160 C154 1.298 . S
O161 Zn162 1.953 . S
O161 C177 1.225 . S
Zn162 O161 1.953 . S
Zn162 O163 1.949 . S
Zn162 O169 1.919 . S
Zn162 O174 1.924 . S
O163 Zn162 1.949 . S
O163 Zn164 1.923 . S
O163 Zn165 1.950 . S
O163 Zn166 1.945 . S
Zn164 O163 1.923 . S
Zn164 O167 1.933 1_565 S
Zn164 O170 1.941 . S
Zn164 O171 1.965 . S
Zn165 O163 1.950 . S
Zn165 O172 1.938 . S
Zn165 O173 1.906 . S
Zn165 O183 1.953 . S
Zn166 O163 1.945 . S
Zn166 O168 1.932 1_565 S
Zn166 O175 1.977 . S
Zn166 O176 1.910 . S
O167 Zn164 1.933 1_545 S
O167 C178 1.226 . S
O168 Zn166 1.932 1_545 S
O168 C178 1.307 . S
O169 Zn162 1.919 . S
O169 C180 1.253 . S
O170 Zn164 1.941 . S
O170 C180 1.283 . S
O171 Zn164 1.965 . S
O171 C179 1.303 . S
O172 Zn165 1.938 . S
O172 C179 1.247 . S
O173 Zn165 1.906 . S
O173 C181 1.304 . S
O174 Zn162 1.924 . S
O174 C182 1.311 . S
O175 Zn166 1.977 . S
O175 C181 1.272 . S
O176 Zn166 1.910 . S
O176 C182 1.231 . S
C177 O161 1.225 . S
C177 O183 1.298 . S
C178 O167 1.226 . S
C178 O168 1.307 . S
C179 O171 1.303 . S
C179 O172 1.247 . S
C180 O169 1.253 . S
C180 O170 1.283 . S
C181 O173 1.304 . S
C181 O175 1.272 . S
C182 O174 1.311 . S
C182 O176 1.231 . S
O183 Zn165 1.953 . S
O183 C177 1.298 . S
O184 Zn185 1.953 . S
O184 C200 1.225 . S
Zn185 O184 1.953 . S
Zn185 O186 1.949 . S
Zn185 O192 1.919 . S
Zn185 O197 1.924 . S
O186 Zn185 1.949 . S
O186 Zn187 1.923 . S
O186 Zn188 1.950 . S
O186 Zn189 1.945 . S
Zn187 O186 1.923 . S
Zn187 O190 1.933 . S
Zn187 O193 1.941 . S
Zn187 O194 1.965 . S
Zn188 O186 1.950 . S
Zn188 O195 1.938 . S
Zn188 O196 1.906 . S
Zn188 O206 1.953 . S
Zn189 O186 1.945 . S
Zn189 O191 1.932 . S
Zn189 O198 1.977 . S
Zn189 O199 1.910 . S
O190 Zn187 1.933 . S
O190 C201 1.226 . S
O191 Zn189 1.932 . S
O191 C201 1.307 . S
O192 Zn185 1.919 . S
O192 C203 1.253 . S
O193 Zn187 1.941 . S
O193 C203 1.283 . S
O194 Zn187 1.965 . S
O194 C202 1.303 . S
O195 Zn188 1.938 . S
O195 C202 1.247 . S
O196 Zn188 1.906 . S
O196 C204 1.304 . S
O197 Zn185 1.924 . S
O197 C205 1.311 . S
O198 Zn189 1.977 . S
O198 C204 1.272 . S
O199 Zn189 1.910 . S
O199 C205 1.231 . S
C200 O184 1.225 . S
C200 O206 1.298 . S
C201 O190 1.226 . S
C201 O191 1.307 . S
C202 O194 1.303 . S
C202 O195 1.247 . S
C203 O192 1.253 . S
C203 O193 1.283 . S
C204 O196 1.304 . S
C204 O198 1.272 . S
C205 O197 1.311 . S
C205 O199 1.231 . S
O206 Zn188 1.953 . S
O206 C200 1.298 . S
O207 Zn208 1.953 . S
O207 C223 1.225 . S
Zn208 O207 1.953 . S
Zn208 O209 1.949 . S
Zn208 O215 1.919 . S
Zn208 O220 1.924 . S
O209 Zn208 1.949 . S
O209 Zn210 1.923 . S
O209 Zn211 1.950 . S
O209 Zn212 1.945 . S
Zn210 O209 1.923 . S
Zn210 O213 1.933 1_455 S
Zn210 O216 1.941 . S
Zn210 O217 1.965 . S
Zn211 O209 1.950 . S
Zn211 O218 1.938 . S
Zn211 O219 1.906 . S
Zn211 O229 1.953 . S
Zn212 O209 1.945 . S
Zn212 O214 1.932 1_455 S
Zn212 O221 1.977 . S
Zn212 O222 1.910 . S
O213 Zn210 1.933 1_655 S
O213 C224 1.226 . S
O214 Zn212 1.932 1_655 S
O214 C224 1.307 . S
O215 Zn208 1.919 . S
O215 C226 1.253 . S
O216 Zn210 1.941 . S
O216 C226 1.283 . S
O217 Zn210 1.965 . S
O217 C225 1.303 . S
O218 Zn211 1.938 . S
O218 C225 1.247 . S
O219 Zn211 1.906 . S
O219 C227 1.304 . S
O220 Zn208 1.924 . S
O220 C228 1.311 . S
O221 Zn212 1.977 . S
O221 C227 1.272 . S
O222 Zn212 1.910 . S
O222 C228 1.231 . S
C223 O207 1.225 . S
C223 O229 1.298 . S
C224 O213 1.226 . S
C224 O214 1.307 . S
C225 O217 1.303 . S
C225 O218 1.247 . S
C226 O215 1.253 . S
C226 O216 1.283 . S
C227 O219 1.304 . S
C227 O221 1.272 . S
C228 O220 1.311 . S
C228 O222 1.231 . S
O229 Zn211 1.953 . S
O229 C223 1.298 . S
O230 Zn231 1.953 . S
O230 C246 1.225 . S
Zn231 O230 1.953 . S
Zn231 O232 1.949 . S
Zn231 O238 1.919 . S
Zn231 O243 1.924 . S
O232 Zn231 1.949 . S
O232 Zn233 1.923 . S
O232 Zn234 1.950 . S
O232 Zn235 1.945 . S
Zn233 O232 1.923 . S
Zn233 O236 1.933 1_565 S
Zn233 O239 1.941 . S
Zn233 O240 1.965 . S
Zn234 O232 1.950 . S
Zn234 O241 1.938 . S
Zn234 O242 1.906 . S
Zn234 O252 1.953 . S
Zn235 O232 1.945 . S
Zn235 O237 1.932 1_565 S
Zn235 O244 1.977 . S
Zn235 O245 1.910 . S
O236 Zn233 1.933 1_545 S
O236 C247 1.226 . S
O237 Zn235 1.932 1_545 S
O237 C247 1.307 . S
O238 Zn231 1.919 . S
O238 C249 1.253 . S
O239 Zn233 1.941 . S
O239 C249 1.283 . S
O240 Zn233 1.965 . S
O240 C248 1.303 . S
O241 Zn234 1.938 . S
O241 C248 1.247 . S
O242 Zn234 1.906 . S
O242 C250 1.304 . S
O243 Zn231 1.924 . S
O243 C251 1.311 . S
O244 Zn235 1.977 . S
O244 C250 1.272 . S
O245 Zn235 1.910 . S
O245 C251 1.231 . S
C246 O230 1.225 . S
C246 O252 1.298 . S
C247 O236 1.226 . S
C247 O237 1.307 . S
C248 O240 1.303 . S
C248 O241 1.247 . S
C249 O238 1.253 . S
C249 O239 1.283 . S
C250 O242 1.304 . S
C250 O244 1.272 . S
C251 O243 1.311 . S
C251 O245 1.231 . S
O252 Zn234 1.953 . S
O252 C246 1.298 . S
O253 Zn254 1.953 . S
O253 C269 1.225 . S
Zn254 O253 1.953 . S
Zn254 O255 1.949 . S
Zn254 O261 1.919 . S
Zn254 O266 1.924 . S
O255 Zn254 1.949 . S
O255 Zn256 1.923 . S
O255 Zn257 1.950 . S
O255 Zn258 1.945 . S
Zn256 O255 1.923 . S
Zn256 O259 1.933 . S
Zn256 O262 1.941 . S
Zn256 O263 1.965 . S
Zn257 O255 1.950 . S
Zn257 O264 1.938 . S
Zn257 O265 1.906 . S
Zn257 O275 1.953 . S
Zn258 O255 1.945 . S
Zn258 O260 1.932 . S
Zn258 O267 1.977 . S
Zn258 O268 1.910 . S
O259 Zn256 1.933 . S
O259 C270 1.226 . S
O260 Zn258 1.932 . S
O260 C270 1.307 . S
O261 Zn254 1.919 . S
O261 C272 1.253 . S
O262 Zn256 1.941 . S
O262 C272 1.283 . S
O263 Zn256 1.965 . S
O263 C271 1.303 . S
O264 Zn257 1.938 . S
O264 C271 1.247 . S
O265 Zn257 1.906 . S
O265 C273 1.304 . S
O266 Zn254 1.924 . S
O266 C274 1.311 . S
O267 Zn258 1.977 . S
O267 C273 1.272 . S
O268 Zn258 1.910 . S
O268 C274 1.231 . S
C269 O253 1.225 . S
C269 O275 1.298 . S
C270 O259 1.226 . S
C270 O260 1.307 . S
C271 O263 1.303 . S
C271 O264 1.247 . S
C272 O261 1.253 . S
C272 O262 1.283 . S
C273 O265 1.304 . S
C273 O267 1.272 . S
C274 O266 1.311 . S
C274 O268 1.231 . S
O275 Zn257 1.953 . S
O275 C269 1.298 . S
C276 C277 1.170 . S
C276 C278 1.380 . S
C277 C276 1.170 . S
C278 C276 1.380 . S
C278 C279 1.170 . S
C279 C278 1.170 . S
C280 C281 1.170 . S
C280 C282 1.380 . S
C281 C280 1.170 . S
C282 C280 1.380 . S
C282 C283 1.170 1_455 S
C283 C282 1.170 1_655 S
C284 C285 1.170 1_565 S
C284 C286 1.380 . S
C285 C284 1.170 1_545 S
C286 C284 1.380 . S
C286 C287 1.170 . S
C287 C286 1.170 . S
C288 C289 1.170 . S
C288 C290 1.380 . S
C289 C288 1.170 . S
C290 C288 1.380 . S
C290 C291 1.170 . S
C291 C290 1.170 . S
C292 C293 1.170 . S
C292 C294 1.380 . S
C293 C292 1.170 . S
C294 C292 1.380 . S
C294 C295 1.170 1_455 S
C295 C294 1.170 1_655 S
C296 C297 1.170 . S
C296 C298 1.380 . S
C297 C296 1.170 . S
C298 C296 1.380 . S
C298 C299 1.170 1_565 S
C299 C298 1.170 1_545 S
C300 C301 1.170 . S
C300 C302 1.380 . S
C301 C300 1.170 . S
C302 C300 1.380 . S
C302 C303 1.170 . S
C303 C302 1.170 . S
C304 C305 1.170 1_655 S
C304 C306 1.380 . S
C305 C304 1.170 1_455 S
C306 C304 1.380 . S
C306 C307 1.170 . S
C307 C306 1.170 . S
C308 C309 1.170 1_545 S
C308 C310 1.380 . S
C309 C308 1.170 1_565 S
C310 C308 1.380 . S
C310 C311 1.170 . S
C311 C310 1.170 . S
C312 C313 1.170 . S
C312 C314 1.380 . S
C313 C312 1.170 . S
C314 C312 1.380 . S
C314 C315 1.170 . S
C315 C314 1.170 . S
C316 C317 1.170 1_655 S
C316 C318 1.380 . S
C317 C316 1.170 1_455 S
C318 C316 1.380 . S
C318 C319 1.170 . S
C319 C318 1.170 . S
C320 C321 1.170 . S
C320 C322 1.380 . S
C321 C320 1.170 . S
C322 C320 1.380 . S
C322 C323 1.170 1_545 S
C323 C322 1.170 1_565 S
C324 C325 1.170 . S
C324 C326 1.380 . S
C325 C324 1.170 . S
C326 C324 1.380 . S
C326 C327 1.170 . S
C327 C326 1.170 . S
C328 C329 1.170 . S
C328 C330 1.380 . S
C329 C328 1.170 . S
C330 C328 1.380 . S
C330 C331 1.170 . S
C331 C330 1.170 . S
C332 C333 1.170 . S
C332 C334 1.380 . S
C333 C332 1.170 . S
C334 C332 1.380 . S
C334 C335 1.170 . S
C335 C334 1.170 . S
C336 C337 1.170 . S
C336 C338 1.380 . S
C337 C336 1.170 . S
C338 C336 1.380 . S
C338 C339 1.170 . S
C339 C338 1.170 . S
C340 C341 1.170 . S
C340 C342 1.380 . S
C341 C340 1.170 . S
C342 C340 1.380 . S
C342 C343 1.170 . S
C343 C342 1.170 . S
C344 C345 1.170 . S
C344 C346 1.380 . S
C345 C344 1.170 . S
C346 C344 1.380 . S
C346 C347 1.170 . S
C347 C346 1.170 . S
C348 C349 1.170 . S
C348 C350 1.380 1_566 S
C349 C348 1.170 . S
C350 C348 1.380 1_544 S
C350 C351 1.170 . S
C351 C350 1.170 . S
C352 C353 1.170 . S
C352 C354 1.380 . S
C353 C352 1.170 . S
C354 C352 1.380 . S
C354 C355 1.170 . S
C355 C354 1.170 . S
C356 C357 1.170 . S
C356 C358 1.380 1_456 S
C357 C356 1.170 . S
C358 C356 1.380 1_654 S
C358 C359 1.170 . S
C359 C358 1.170 . S
C360 C361 1.170 . S
C360 C362 1.380 1_545 S
C361 C360 1.170 . S
C362 C360 1.380 1_565 S
C362 C363 1.170 . S
C363 C362 1.170 . S
C364 C365 1.170 . S
C364 C366 1.380 1_554 S
C365 C364 1.170 . S
C366 C364 1.380 1_556 S
C366 C367 1.170 . S
C367 C366 1.170 . S
C368 C369 1.170 . S
C368 C370 1.380 1_455 S
C369 C368 1.170 . S
C370 C368 1.380 1_655 S
C370 C371 1.170 . S
C371 C370 1.170 . S
C372 C373 1.170 . S
C372 C374 1.380 . S
C373 C372 1.170 . S
C374 C372 1.380 . S
C374 C375 1.170 . S
C375 C374 1.170 . S
C376 C377 1.170 . S
C376 C378 1.380 . S
C377 C376 1.170 . S
C378 C376 1.380 . S
C378 C379 1.170 . S
C379 C378 1.170 . S
C380 C381 1.170 . S
C380 C382 1.380 . S
C381 C380 1.170 . S
C382 C380 1.380 . S
C382 C383 1.170 . S
C383 C382 1.170 . S
C384 C385 1.170 . S
C384 C386 1.380 . S
C385 C384 1.170 . S
C386 C384 1.380 . S
C386 C387 1.170 . S
C387 C386 1.170 . S
C388 C389 1.170 . S
C388 C390 1.380 . S
C389 C388 1.170 . S
C390 C388 1.380 . S
C390 C391 1.170 . S
C391 C390 1.170 . S
C392 C393 1.170 . S
C392 C394 1.380 . S
C393 C392 1.170 . S
C394 C392 1.380 . S
C394 C395 1.170 . S
C395 C394 1.170 . S
C396 C397 1.170 . S
C396 C398 1.380 . S
C397 C396 1.170 . S
C398 C396 1.380 . S
C398 C399 1.170 . S
C399 C398 1.170 . S
C400 C401 1.170 . S
C400 C402 1.380 . S
C401 C400 1.170 . S
C402 C400 1.380 . S
C402 C403 1.170 . S
C403 C402 1.170 . S
C404 C405 1.170 . S
C404 C406 1.380 . S
C405 C404 1.170 . S
C406 C404 1.380 . S
C406 C407 1.170 . S
C407 C406 1.170 . S
C408 C409 1.170 . S
C408 C410 1.380 . S
C409 C408 1.170 . S
C410 C408 1.380 . S
C410 C411 1.170 . S
C411 C410 1.170 . S
C412 C413 1.170 . S
C412 C414 1.380 . S
C413 C412 1.170 . S
C414 C412 1.380 . S
C414 C415 1.170 . S
C415 C414 1.170 . S
C416 C417 1.170 . S
C416 C418 1.380 . S
C417 C416 1.170 . S
C418 C416 1.380 . S
C418 C419 1.170 . S
C419 C418 1.170 . S
C277 C63 1.082 . S
C279 C21 1.120 . S
C281 C86 1.083 . S
C283 C44 1.068 . S
C285 C67 1.128 . S
C287 C109 1.096 . S
C289 C90 1.082 . S
C291 C132 1.023 . S
C293 C17 1.122 . S
C295 C113 1.141 . S
C297 C40 1.068 . S
C299 C136 1.044 . S
C301 C247 1.022 . S
C303 C159 1.079 . S
C305 C182 1.132 . S
C307 C270 1.103 . S
C309 C205 1.049 . S
C311 C155 1.079 . S
C313 C228 1.131 . S
C315 C178 1.102 . S
C317 C251 1.083 . S
C319 C201 1.023 . S
C321 C224 1.109 . S
C323 C274 1.128 . S
C325 C88 1.495 . S
C327 C20 1.507 . S
C329 C42 1.491 . S
C331 C112 1.504 . S
C333 C66 1.491 . S
C335 C134 1.482 . S
C337 C157 1.504 . S
C339 C227 1.511 . S
C341 C181 1.510 . S
C343 C249 1.504 . S
C345 C203 1.484 . S
C347 C273 1.498 . S
C349 C180 1.537 . S
C351 C19 1.532 . S
C353 C43 1.557 . S
C355 C204 1.557 . S
C357 C226 1.539 . S
C359 C65 1.533 . S
C361 C89 1.552 . S
C363 C250 1.551 . S
C365 C111 1.536 . S
C367 C272 1.542 . S
C369 C158 1.553 . S
C371 C135 1.551 . S
C373 C62 1.254 . S
C375 C18 1.260 . S
C377 C41 1.275 . S
C379 C85 1.279 . S
C381 C64 1.257 . S
C383 C108 1.262 . S
C385 C87 1.274 . S
C387 C131 1.279 . S
C389 C16 1.252 . S
C391 C110 1.248 . S
C393 C39 1.285 . S
C395 C133 1.266 . S
C397 C246 1.272 . S
C399 C156 1.265 . S
C401 C179 1.259 . S
C403 C269 1.261 . S
C405 C202 1.252 . S
C407 C154 1.278 . S
C409 C177 1.256 . S
C411 C225 1.261 . S
C413 C248 1.276 . S
C415 C200 1.278 . S
C417 C271 1.243 . S
C419 C223 1.253 . S
