# Generated by pormake.
# Topology vcc, (6)-cn, num edge types: 1
# Building blocks:
#     Node 0, Type 0, BuildingBlock: BETDEL_clean_sbu_0, # of connection points: 6
#     Node 1, Type 0, BuildingBlock: BETDEL_clean_sbu_0, # of connection points: 6
#     Node 2, Type 0, BuildingBlock: BETDEL_clean_sbu_0, # of connection points: 6
#     Node 3, Type 0, BuildingBlock: BETDEL_clean_sbu_0, # of connection points: 6
#     Node 4, Type 0, BuildingBlock: BETDEL_clean_sbu_0, # of connection points: 6
#     Node 5, Type 0, BuildingBlock: BETDEL_clean_sbu_0, # of connection points: 6
#     Node 6, Type 0, BuildingBlock: BETDEL_clean_sbu_0, # of connection points: 6
#     Node 7, Type 0, BuildingBlock: BETDEL_clean_sbu_0, # of connection points: 6
#     Node 8, Type 0, BuildingBlock: BETDEL_clean_sbu_0, # of connection points: 6
#     Node 9, Type 0, BuildingBlock: BETDEL_clean_sbu_0, # of connection points: 6
#     Node 10, Type 0, BuildingBlock: BETDEL_clean_sbu_0, # of connection points: 6
#     Node 11, Type 0, BuildingBlock: BETDEL_clean_sbu_0, # of connection points: 6
#     Node 12, Type 0, BuildingBlock: BETDEL_clean_sbu_0, # of connection points: 6
#     Node 13, Type 0, BuildingBlock: BETDEL_clean_sbu_0, # of connection points: 6
#     Node 14, Type 0, BuildingBlock: BETDEL_clean_sbu_0, # of connection points: 6
#     Node 15, Type 0, BuildingBlock: BETDEL_clean_sbu_0, # of connection points: 6
#     Node 16, Type 0, BuildingBlock: BETDEL_clean_sbu_0, # of connection points: 6
#     Node 17, Type 0, BuildingBlock: BETDEL_clean_sbu_0, # of connection points: 6
#     Node 18, Type 0, BuildingBlock: BETDEL_clean_sbu_0, # of connection points: 6
#     Node 19, Type 0, BuildingBlock: BETDEL_clean_sbu_0, # of connection points: 6
#     Node 20, Type 0, BuildingBlock: BETDEL_clean_sbu_0, # of connection points: 6
#     Node 21, Type 0, BuildingBlock: BETDEL_clean_sbu_0, # of connection points: 6
#     Node 22, Type 0, BuildingBlock: BETDEL_clean_sbu_0, # of connection points: 6
#     Node 23, Type 0, BuildingBlock: BETDEL_clean_sbu_0, # of connection points: 6
#     Node 24, Type 0, BuildingBlock: BETDEL_clean_sbu_0, # of connection points: 6
#     Node 25, Type 0, BuildingBlock: BETDEL_clean_sbu_0, # of connection points: 6
#     Node 26, Type 0, BuildingBlock: BETDEL_clean_sbu_0, # of connection points: 6
#     Node 27, Type 0, BuildingBlock: BETDEL_clean_sbu_0, # of connection points: 6
#     Node 28, Type 0, BuildingBlock: BETDEL_clean_sbu_0, # of connection points: 6
#     Node 29, Type 0, BuildingBlock: BETDEL_clean_sbu_0, # of connection points: 6
#     Node 30, Type 0, BuildingBlock: BETDEL_clean_sbu_0, # of connection points: 6
#     Node 31, Type 0, BuildingBlock: BETDEL_clean_sbu_0, # of connection points: 6
#     Edge 32, Type (0, 0), BuildingBlock: AJUNOK_clean_linker_0, # of connection points: 2
#     Edge 33, Type (0, 0), BuildingBlock: AJUNOK_clean_linker_0, # of connection points: 2
#     Edge 34, Type (0, 0), BuildingBlock: AJUNOK_clean_linker_0, # of connection points: 2
#     Edge 35, Type (0, 0), BuildingBlock: AJUNOK_clean_linker_0, # of connection points: 2
#     Edge 36, Type (0, 0), BuildingBlock: AJUNOK_clean_linker_0, # of connection points: 2
#     Edge 37, Type (0, 0), BuildingBlock: AJUNOK_clean_linker_0, # of connection points: 2
#     Edge 38, Type (0, 0), BuildingBlock: AJUNOK_clean_linker_0, # of connection points: 2
#     Edge 39, Type (0, 0), BuildingBlock: AJUNOK_clean_linker_0, # of connection points: 2
#     Edge 40, Type (0, 0), BuildingBlock: AJUNOK_clean_linker_0, # of connection points: 2
#     Edge 41, Type (0, 0), BuildingBlock: AJUNOK_clean_linker_0, # of connection points: 2
#     Edge 42, Type (0, 0), BuildingBlock: AJUNOK_clean_linker_0, # of connection points: 2
#     Edge 43, Type (0, 0), BuildingBlock: AJUNOK_clean_linker_0, # of connection points: 2
#     Edge 44, Type (0, 0), BuildingBlock: AJUNOK_clean_linker_0, # of connection points: 2
#     Edge 45, Type (0, 0), BuildingBlock: AJUNOK_clean_linker_0, # of connection points: 2
#     Edge 46, Type (0, 0), BuildingBlock: AJUNOK_clean_linker_0, # of connection points: 2
#     Edge 47, Type (0, 0), BuildingBlock: AJUNOK_clean_linker_0, # of connection points: 2
#     Edge 48, Type (0, 0), BuildingBlock: AJUNOK_clean_linker_0, # of connection points: 2
#     Edge 49, Type (0, 0), BuildingBlock: AJUNOK_clean_linker_0, # of connection points: 2
#     Edge 50, Type (0, 0), BuildingBlock: AJUNOK_clean_linker_0, # of connection points: 2
#     Edge 51, Type (0, 0), BuildingBlock: AJUNOK_clean_linker_0, # of connection points: 2
#     Edge 52, Type (0, 0), BuildingBlock: AJUNOK_clean_linker_0, # of connection points: 2
#     Edge 53, Type (0, 0), BuildingBlock: AJUNOK_clean_linker_0, # of connection points: 2
#     Edge 54, Type (0, 0), BuildingBlock: AJUNOK_clean_linker_0, # of connection points: 2
#     Edge 55, Type (0, 0), BuildingBlock: AJUNOK_clean_linker_0, # of connection points: 2
#     Edge 56, Type (0, 0), BuildingBlock: AJUNOK_clean_linker_0, # of connection points: 2
#     Edge 57, Type (0, 0), BuildingBlock: AJUNOK_clean_linker_0, # of connection points: 2
#     Edge 58, Type (0, 0), BuildingBlock: AJUNOK_clean_linker_0, # of connection points: 2
#     Edge 59, Type (0, 0), BuildingBlock: AJUNOK_clean_linker_0, # of connection points: 2
#     Edge 60, Type (0, 0), BuildingBlock: AJUNOK_clean_linker_0, # of connection points: 2
#     Edge 61, Type (0, 0), BuildingBlock: AJUNOK_clean_linker_0, # of connection points: 2
#     Edge 62, Type (0, 0), BuildingBlock: AJUNOK_clean_linker_0, # of connection points: 2
#     Edge 63, Type (0, 0), BuildingBlock: AJUNOK_clean_linker_0, # of connection points: 2
#     Edge 64, Type (0, 0), BuildingBlock: AJUNOK_clean_linker_0, # of connection points: 2
#     Edge 65, Type (0, 0), BuildingBlock: AJUNOK_clean_linker_0, # of connection points: 2
#     Edge 66, Type (0, 0), BuildingBlock: AJUNOK_clean_linker_0, # of connection points: 2
#     Edge 67, Type (0, 0), BuildingBlock: AJUNOK_clean_linker_0, # of connection points: 2
#     Edge 68, Type (0, 0), BuildingBlock: AJUNOK_clean_linker_0, # of connection points: 2
#     Edge 69, Type (0, 0), BuildingBlock: AJUNOK_clean_linker_0, # of connection points: 2
#     Edge 70, Type (0, 0), BuildingBlock: AJUNOK_clean_linker_0, # of connection points: 2
#     Edge 71, Type (0, 0), BuildingBlock: AJUNOK_clean_linker_0, # of connection points: 2
#     Edge 72, Type (0, 0), BuildingBlock: AJUNOK_clean_linker_0, # of connection points: 2
#     Edge 73, Type (0, 0), BuildingBlock: AJUNOK_clean_linker_0, # of connection points: 2
#     Edge 74, Type (0, 0), BuildingBlock: AJUNOK_clean_linker_0, # of connection points: 2
#     Edge 75, Type (0, 0), BuildingBlock: AJUNOK_clean_linker_0, # of connection points: 2
#     Edge 76, Type (0, 0), BuildingBlock: AJUNOK_clean_linker_0, # of connection points: 2
#     Edge 77, Type (0, 0), BuildingBlock: AJUNOK_clean_linker_0, # of connection points: 2
#     Edge 78, Type (0, 0), BuildingBlock: AJUNOK_clean_linker_0, # of connection points: 2
#     Edge 79, Type (0, 0), BuildingBlock: AJUNOK_clean_linker_0, # of connection points: 2
#     Edge 80, Type (0, 0), BuildingBlock: AJUNOK_clean_linker_0, # of connection points: 2
#     Edge 81, Type (0, 0), BuildingBlock: AJUNOK_clean_linker_0, # of connection points: 2
#     Edge 82, Type (0, 0), BuildingBlock: AJUNOK_clean_linker_0, # of connection points: 2
#     Edge 83, Type (0, 0), BuildingBlock: AJUNOK_clean_linker_0, # of connection points: 2
#     Edge 84, Type (0, 0), BuildingBlock: AJUNOK_clean_linker_0, # of connection points: 2
#     Edge 85, Type (0, 0), BuildingBlock: AJUNOK_clean_linker_0, # of connection points: 2
#     Edge 86, Type (0, 0), BuildingBlock: AJUNOK_clean_linker_0, # of connection points: 2
#     Edge 87, Type (0, 0), BuildingBlock: AJUNOK_clean_linker_0, # of connection points: 2
#     Edge 88, Type (0, 0), BuildingBlock: AJUNOK_clean_linker_0, # of connection points: 2
#     Edge 89, Type (0, 0), BuildingBlock: AJUNOK_clean_linker_0, # of connection points: 2
#     Edge 90, Type (0, 0), BuildingBlock: AJUNOK_clean_linker_0, # of connection points: 2
#     Edge 91, Type (0, 0), BuildingBlock: AJUNOK_clean_linker_0, # of connection points: 2
#     Edge 92, Type (0, 0), BuildingBlock: AJUNOK_clean_linker_0, # of connection points: 2
#     Edge 93, Type (0, 0), BuildingBlock: AJUNOK_clean_linker_0, # of connection points: 2
#     Edge 94, Type (0, 0), BuildingBlock: AJUNOK_clean_linker_0, # of connection points: 2
#     Edge 95, Type (0, 0), BuildingBlock: AJUNOK_clean_linker_0, # of connection points: 2
#     Edge 96, Type (0, 0), BuildingBlock: AJUNOK_clean_linker_0, # of connection points: 2
#     Edge 97, Type (0, 0), BuildingBlock: AJUNOK_clean_linker_0, # of connection points: 2
#     Edge 98, Type (0, 0), BuildingBlock: AJUNOK_clean_linker_0, # of connection points: 2
#     Edge 99, Type (0, 0), BuildingBlock: AJUNOK_clean_linker_0, # of connection points: 2
#     Edge 100, Type (0, 0), BuildingBlock: AJUNOK_clean_linker_0, # of connection points: 2
#     Edge 101, Type (0, 0), BuildingBlock: AJUNOK_clean_linker_0, # of connection points: 2
#     Edge 102, Type (0, 0), BuildingBlock: AJUNOK_clean_linker_0, # of connection points: 2
#     Edge 103, Type (0, 0), BuildingBlock: AJUNOK_clean_linker_0, # of connection points: 2
#     Edge 104, Type (0, 0), BuildingBlock: AJUNOK_clean_linker_0, # of connection points: 2
#     Edge 105, Type (0, 0), BuildingBlock: AJUNOK_clean_linker_0, # of connection points: 2
#     Edge 106, Type (0, 0), BuildingBlock: AJUNOK_clean_linker_0, # of connection points: 2
#     Edge 107, Type (0, 0), BuildingBlock: AJUNOK_clean_linker_0, # of connection points: 2
#     Edge 108, Type (0, 0), BuildingBlock: AJUNOK_clean_linker_0, # of connection points: 2
#     Edge 109, Type (0, 0), BuildingBlock: AJUNOK_clean_linker_0, # of connection points: 2
#     Edge 110, Type (0, 0), BuildingBlock: AJUNOK_clean_linker_0, # of connection points: 2
#     Edge 111, Type (0, 0), BuildingBlock: AJUNOK_clean_linker_0, # of connection points: 2
#     Edge 112, Type (0, 0), BuildingBlock: AJUNOK_clean_linker_0, # of connection points: 2
#     Edge 113, Type (0, 0), BuildingBlock: AJUNOK_clean_linker_0, # of connection points: 2
#     Edge 114, Type (0, 0), BuildingBlock: AJUNOK_clean_linker_0, # of connection points: 2
#     Edge 115, Type (0, 0), BuildingBlock: AJUNOK_clean_linker_0, # of connection points: 2
#     Edge 116, Type (0, 0), BuildingBlock: AJUNOK_clean_linker_0, # of connection points: 2
#     Edge 117, Type (0, 0), BuildingBlock: AJUNOK_clean_linker_0, # of connection points: 2
#     Edge 118, Type (0, 0), BuildingBlock: AJUNOK_clean_linker_0, # of connection points: 2
#     Edge 119, Type (0, 0), BuildingBlock: AJUNOK_clean_linker_0, # of connection points: 2
#     Edge 120, Type (0, 0), BuildingBlock: AJUNOK_clean_linker_0, # of connection points: 2
#     Edge 121, Type (0, 0), BuildingBlock: AJUNOK_clean_linker_0, # of connection points: 2
#     Edge 122, Type (0, 0), BuildingBlock: AJUNOK_clean_linker_0, # of connection points: 2
#     Edge 123, Type (0, 0), BuildingBlock: AJUNOK_clean_linker_0, # of connection points: 2
#     Edge 124, Type (0, 0), BuildingBlock: AJUNOK_clean_linker_0, # of connection points: 2
#     Edge 125, Type (0, 0), BuildingBlock: AJUNOK_clean_linker_0, # of connection points: 2
#     Edge 126, Type (0, 0), BuildingBlock: AJUNOK_clean_linker_0, # of connection points: 2
#     Edge 127, Type (0, 0), BuildingBlock: AJUNOK_clean_linker_0, # of connection points: 2
# Relax obj value: 0.092
# Max RMSD: 0.136
# Mean RMSD: 0.136
data_MOF--net-vcc--node1-BETDEL_clean_sbu_0--edge1-AJUNOK_clean_linker_0
_symmetry_space_group_name_H-M    P1
_symmetry_Int_Tables_number       1
_symmetry_cell_setting            triclinic
loop_
_symmetry_equiv_pos_as_xyz
'x, y, z'
_cell_length_a     30.191262
_cell_length_b     39.479742
_cell_length_c     33.840508
_cell_angle_alpha  89.783815
_cell_angle_beta   90.011431
_cell_angle_gamma 89.934646
loop_
_atom_site_label
_atom_site_type_symbol
_atom_site_fract_x
_atom_site_fract_y
_atom_site_fract_z
_atom_type_partial_charge
Dy0 Dy 0.35935 0.03908 0.06113 0.0
C1 C 0.24509 0.04108 0.19555 0.0
C2 C 0.38527 0.04155 0.98392 0.0
Dy3 Dy 0.28268 1.0305 0.12376 0.0
O4 O 0.37614 0.06743 1.006 0.0
O5 O 0.38746 1.01463 1.00637 0.0
O6 O 0.37975 0.08701 0.08908 0.0
O7 O 0.31194 0.07354 0.09114 0.0
C8 C 0.3408 0.095 0.10269 0.0
C9 C 0.31317 0.96938 0.09905 0.0
O10 O 0.23966 0.04212 0.07138 0.0
O11 O 0.29676 1.03076 1.02744 0.0
O12 O 0.22852 1.02147 0.16832 0.0
O13 O 0.2796 0.05668 0.18186 0.0
O14 O 0.28005 0.97255 0.12325 0.0
O15 O 0.32483 0.99873 0.08944 0.0
O16 O 0.40195 1.02076 0.11095 0.0
O17 O 0.34636 1.03077 0.15747 0.0
C18 C 0.25459 0.03656 0.03503 0.0
C19 C 0.38756 1.02251 0.14816 0.0
Dy20 Dy 0.84765 0.27532 0.05952 0.0
C21 C 0.95891 0.28355 0.1916 0.0
C22 C 0.81859 0.28014 0.98288 0.0
Dy23 Dy 0.91776 0.28487 0.11957 0.0
O24 O 0.81735 0.25305 1.00483 0.0
O25 O 0.82892 0.30556 1.0054 0.0
O26 O 0.82775 0.22532 0.08191 0.0
O27 O 0.89536 0.23972 0.08731 0.0
C28 C 0.86621 0.2176 0.09681 0.0
C29 C 0.88724 0.34347 0.08673 0.0
O30 O 0.96371 0.26931 0.07099 0.0
O31 O 0.91024 0.28189 1.02516 0.0
O32 O 0.96536 0.30636 0.16446 0.0
O33 O 0.93255 0.26051 0.17808 0.0
O34 O 0.92827 0.33829 0.09656 0.0
O35 O 0.86526 0.31777 0.09656 0.0
O36 O 0.8007 0.28625 0.10986 0.0
O37 O 0.85667 0.27828 0.1558 0.0
C38 C 0.95144 0.27408 0.03385 0.0
C39 C 0.81432 0.28205 0.14707 0.0
Dy40 Dy 0.35344 0.26953 0.24427 0.0
C41 C 0.23265 0.27275 0.11162 0.0
C42 C 0.38121 0.26601 0.321 0.0
Dy43 Dy 0.27526 0.28013 0.18177 0.0
O44 O 0.37126 0.2404 0.29872 0.0
O45 O 0.38209 0.29337 0.29917 0.0
O46 O 0.37357 0.22199 0.21456 0.0
O47 O 0.30614 0.23689 0.21231 0.0
C48 C 0.33474 0.21582 0.19945 0.0
C49 C 0.30562 0.33998 0.21019 0.0
O50 O 0.23289 0.26759 0.23389 0.0
O51 O 0.29058 0.27635 0.2783 0.0
O52 O 0.22061 0.29349 0.13948 0.0
O53 O 0.26544 0.25416 0.12389 0.0
O54 O 0.27245 0.33788 0.18587 0.0
O55 O 0.31792 0.31026 0.21745 0.0
O56 O 0.39553 0.28805 0.19382 0.0
O57 O 0.33871 0.28104 0.14762 0.0
C58 C 0.24817 0.27188 0.27031 0.0
C59 C 0.38082 0.28674 0.15658 0.0
Dy60 Dy 0.84925 0.04526 0.24501 0.0
C61 C 0.96812 0.04264 0.11086 0.0
C62 C 0.82166 0.04367 0.32193 0.0
Dy63 Dy 0.92589 0.03508 0.18111 0.0
O64 O 0.82452 0.07061 0.29983 0.0
O65 O 0.8271 1.01714 0.2996 0.0
O66 O 0.82825 0.09285 0.21545 0.0
O67 O 0.89575 0.07803 0.21223 0.0
C68 C 0.8669 0.09911 0.19978 0.0
C69 C 0.89618 0.97508 0.20981 0.0
O70 O 0.96957 0.04685 0.23245 0.0
O71 O 0.91274 0.04557 0.27912 0.0
O72 O -0.0188 1.02268 0.13929 0.0
O73 O 0.93437 0.06043 0.12249 0.0
O74 O 0.92833 0.97735 0.18449 0.0
O75 O 0.88437 1.00471 0.21783 0.0
O76 O 0.80716 1.0259 0.19506 0.0
O77 O 0.86219 0.035 0.14744 0.0
C78 C 0.95509 0.0472 0.26953 0.0
C79 C 0.8208 1.02778 0.15753 0.0
Dy80 Dy 0.67651 1.02888 0.93274 0.0
C81 C 0.57134 1.03148 0.0729 0.0
C82 C 0.71934 1.01867 0.86308 0.0
Dy83 Dy 0.59898 1.02308 0.99661 0.0
O84 O 0.73334 0.03824 0.89134 0.0
O85 O 0.68401 1.00271 0.87459 0.0
O86 O 0.68155 0.08673 0.93353 0.0
O87 O 0.63619 0.06161 0.96758 0.0
C88 C 0.64927 0.0907 0.95842 0.0
C89 C 0.61254 0.96744 0.95379 0.0
O90 O 0.55773 0.0405 0.9447 0.0
O91 O 0.61343 1.02931 0.89851 0.0
O92 O 0.56744 1.00379 0.05236 0.0
O93 O 0.58426 0.05572 0.04938 0.0
O94 O 0.57476 0.9753 0.97021 0.0
O95 O 0.64293 0.98773 0.9651 0.0
O96 O 0.71934 1.01605 0.98462 0.0
O97 O 0.66202 1.01612 0.0309 0.0
C98 C 0.57176 0.03646 0.90751 0.0
C99 C 0.70445 1.01393 1.02151 0.0
Dy100 Dy 0.03391 0.78618 0.93434 0.0
C101 C 0.13904 0.7902 0.07392 0.0
C102 C -0.00298 0.79828 0.86245 0.0
Dy103 Dy 0.11136 0.79167 0.99715 0.0
O104 O -0.01938 0.7778 0.88902 0.0
O105 O 0.03084 0.81416 0.87701 0.0
O106 O 0.02722 0.72857 0.93568 0.0
O107 O 0.07354 0.75268 0.96968 0.0
C108 C 0.05983 0.72381 0.96016 0.0
C109 C 0.09797 0.84734 0.95352 0.0
O110 O 0.15216 0.77186 0.9468 0.0
O111 O 0.09701 0.7832 0.90027 0.0
O112 O 0.13515 0.81714 0.05204 0.0
O113 O 0.13497 0.76368 0.05137 0.0
O114 O 0.13603 0.83844 0.96856 0.0
O115 O 0.06743 0.82758 0.9658 0.0
O116 O -0.00886 0.79975 0.98597 0.0
O117 O 0.04798 0.79161 0.03136 0.0
C118 C 0.13768 0.77358 0.90961 0.0
C119 C 0.00588 0.79717 1.0229 0.0
Dy120 Dy 0.68074 0.78737 0.87843 0.0
C121 C 0.58084 0.78129 0.73842 0.0
C122 C 0.72807 0.79924 0.94524 0.0
Dy123 Dy 0.60992 0.7873 0.81484 0.0
O124 O 0.73872 0.77722 0.91826 0.0
O125 O 0.6945 0.81708 0.9331 0.0
O126 O 0.6663 0.73454 0.89661 0.0
O127 O 0.65481 0.74832 0.83787 0.0
C128 C 0.6493 0.72509 0.86344 0.0
C129 C 0.61587 0.84559 0.8554 0.0
O130 O 0.56861 0.76694 0.86489 0.0
O131 O 0.61643 0.78998 0.91105 0.0
O132 O 0.58482 0.80935 0.75795 0.0
O133 O 0.58674 0.75612 0.76286 0.0
O134 O 0.57892 0.83333 0.84159 0.0
O135 O 0.64821 0.82724 0.84468 0.0
O136 O 0.72698 0.79548 0.82747 0.0
O137 O 0.67164 0.79519 0.77991 0.0
C138 C 0.57888 0.77461 0.90205 0.0
C139 C 0.71364 0.79728 0.79012 0.0
Dy140 Dy 0.03706 1.03134 0.87335 0.0
C141 C 0.13833 1.02447 0.73142 0.0
C142 C -0.00237 1.01965 0.94411 0.0
Dy143 Dy 0.11302 1.02363 0.80878 0.0
O144 O -0.01767 0.04016 0.91705 0.0
O145 O 0.03218 1.00378 0.93083 0.0
O146 O 0.03281 0.0891 0.87173 0.0
O147 O 0.07737 0.06326 0.83728 0.0
C148 C 0.06499 0.09252 0.84653 0.0
C149 C 0.09821 0.96859 0.85301 0.0
O150 O 0.15616 0.04123 0.85839 0.0
O151 O 0.10112 0.03389 0.90669 0.0
O152 O 0.13402 0.99762 0.7534 0.0
O153 O 0.1363 0.0511 0.75409 0.0
O154 O 0.13609 0.97603 0.83667 0.0
O155 O 0.06827 0.98919 0.84132 0.0
O156 O -0.00698 1.01943 0.82183 0.0
O157 O 0.04925 1.02592 0.77559 0.0
C158 C 0.14255 0.04017 0.89591 0.0
C159 C 0.0071 1.0218 0.78469 0.0
Dy160 Dy 0.35785 0.54303 0.5614 0.0
C161 C 0.23863 0.54381 0.69512 0.0
C162 C 0.38637 0.53499 0.48537 0.0
Dy163 Dy 0.28129 0.53594 0.6249 0.0
O164 O 0.38868 0.56286 0.5057 0.0
O165 O 0.37506 0.51052 0.50917 0.0
O166 O 0.37945 0.59195 0.58552 0.0
O167 O 0.31162 0.57833 0.59135 0.0
C168 C 0.34133 0.59993 0.60108 0.0
C169 C 0.31137 0.47437 0.6005 0.0
O170 O 0.23787 0.54713 0.57299 0.0
O171 O 0.29483 0.54605 0.52651 0.0
O172 O 0.22512 0.5244 0.66652 0.0
O173 O 0.27299 0.56091 0.6836 0.0
O174 O 0.27862 0.47795 0.62492 0.0
O175 O 0.32335 0.50366 0.59111 0.0
O176 O 0.40004 0.52831 0.61379 0.0
O177 O 0.34382 0.53916 0.65935 0.0
C178 C 0.2524 0.54763 0.5359 0.0
C179 C 0.3857 0.53275 0.65076 0.0
Dy180 Dy 0.85396 0.7773 0.5632 0.0
C181 C 0.97799 0.77525 0.69443 0.0
C182 C 0.82434 0.78527 0.48747 0.0
Dy183 Dy 0.93438 0.78432 0.62489 0.0
O184 O 0.82412 0.757 0.50746 0.0
O185 O 0.83407 0.80988 0.5115 0.0
O186 O 0.83188 0.7291 0.59027 0.0
O187 O 0.89985 0.74284 0.59413 0.0
C188 C 0.87027 0.72209 0.60618 0.0
C189 C 0.90436 0.84525 0.59794 0.0
O190 O 0.97518 0.77038 0.57233 0.0
O191 O 0.91647 0.77321 0.52766 0.0
O192 O -0.01028 0.79652 0.66684 0.0
O193 O 0.94504 0.75699 0.68207 0.0
O194 O 0.93813 0.84237 0.6215 0.0
O195 O 0.89173 0.81576 0.5908 0.0
O196 O 0.81459 0.79426 0.61625 0.0
O197 O 0.87256 0.78467 0.66085 0.0
C198 C 0.95917 0.76991 0.53572 0.0
C199 C 0.83041 0.79116 0.65304 0.0
Dy200 Dy 0.35835 0.77363 0.7451 0.0
C201 C 0.24019 0.76753 0.61288 0.0
C202 C 0.38863 0.77686 0.82112 0.0
Dy203 Dy 0.27911 0.78083 0.68332 0.0
O204 O 0.38679 0.74969 0.79956 0.0
O205 O 0.38056 0.80292 0.79854 0.0
O206 O 0.38017 0.72589 0.7163 0.0
O207 O 0.31228 0.73942 0.71483 0.0
C208 C 0.34116 0.71865 0.70206 0.0
C209 C 0.30724 0.84233 0.70892 0.0
O210 O 0.23756 0.76733 0.73567 0.0
O211 O 0.29576 0.77159 0.78051 0.0
O212 O 0.22499 0.78908 0.63871 0.0
O213 O 0.27392 0.75145 0.62754 0.0
O214 O 0.27391 0.83846 0.68499 0.0
O215 O 0.32061 0.81315 0.7179 0.0
O216 O 0.39804 0.79247 0.69334 0.0
O217 O 0.34136 0.78291 0.64765 0.0
C218 C 0.25323 0.76769 0.77238 0.0
C219 C 0.38294 0.79055 0.65634 0.0
Dy220 Dy 0.84838 0.54399 0.74508 0.0
C221 C 0.9633 0.54775 0.61056 0.0
C222 C 0.82265 0.53401 0.82143 0.0
Dy223 Dy 0.92443 0.53704 0.68181 0.0
O224 O 0.8162 0.56175 0.80121 0.0
O225 O 0.83653 0.51059 0.7976 0.0
O226 O 0.82561 0.59233 0.71925 0.0
O227 O 0.8937 0.57939 0.71446 0.0
C228 C 0.86382 0.6006 0.70396 0.0
C229 C 0.89588 0.4752 0.70688 0.0
O230 O 0.96861 0.54843 0.73329 0.0
O231 O 0.91126 0.55049 0.77931 0.0
O232 O -0.02112 0.52762 0.63787 0.0
O233 O 0.92909 0.56391 0.62396 0.0
O234 O 0.92847 0.47917 0.68226 0.0
O235 O 0.88357 0.50437 0.71651 0.0
O236 O 0.80655 0.52606 0.6942 0.0
O237 O 0.86134 0.53696 0.64743 0.0
C238 C 0.95376 0.55146 0.77011 0.0
C239 C 0.82046 0.52807 0.65685 0.0
Dy240 Dy 0.66992 0.53001 0.43402 0.0
C241 C 0.56655 0.52537 0.57567 0.0
C242 C 0.71093 0.52353 0.36296 0.0
Dy243 Dy 0.59373 0.52246 0.49862 0.0
O244 O 0.67673 0.50613 0.37442 0.0
O245 O 0.72526 0.54209 0.39201 0.0
O246 O 0.67428 0.58778 0.43636 0.0
O247 O 0.62946 0.56179 0.46997 0.0
C248 C 0.64197 0.59108 0.46131 0.0
C249 C 0.60847 0.46723 0.45498 0.0
O250 O 0.552 0.54213 0.44833 0.0
O251 O 0.60614 0.53072 0.40074 0.0
O252 O 0.56914 0.49812 0.55432 0.0
O253 O 0.57232 0.55153 0.55262 0.0
O254 O 0.57053 0.47501 0.47107 0.0
O255 O 0.6385 0.48776 0.46635 0.0
O256 O 0.71367 0.51654 0.48518 0.0
O257 O 0.65777 0.52227 0.53195 0.0
C258 C 0.56554 0.54003 0.41079 0.0
C259 C 0.69986 0.51803 0.52246 0.0
Dy260 Dy 0.02942 0.28418 0.43027 0.0
C261 C 0.13278 0.27891 0.57124 0.0
C262 C -0.00978 0.29816 0.35968 0.0
Dy263 Dy 0.10556 0.28862 0.49517 0.0
O264 O 0.97421 0.27753 0.38628 0.0
O265 O 0.02576 0.31255 0.3731 0.0
O266 O 0.02324 0.22624 0.43085 0.0
O267 O 0.06857 0.25075 0.46533 0.0
C268 C 0.05545 0.2218 0.45585 0.0
C269 C 0.09271 0.34571 0.45378 0.0
O270 O 0.14764 0.27108 0.44501 0.0
O271 O 0.09325 0.28101 0.39678 0.0
O272 O 0.13817 0.30661 0.55079 0.0
O273 O 0.11839 0.25528 0.54784 0.0
O274 O 0.13017 0.33674 0.46999 0.0
O275 O 0.06212 0.32504 0.46389 0.0
O276 O -0.01397 0.29702 0.48223 0.0
O277 O 0.04273 0.29484 0.52882 0.0
C278 C 0.13422 0.27324 0.40758 0.0
C279 C 0.00048 0.29791 0.51943 0.0
Dy280 Dy 0.67163 0.28316 0.37408 0.0
C281 C 0.56749 0.29005 0.23337 0.0
C282 C 0.71354 0.29289 0.44407 0.0
Dy283 Dy 0.59537 0.29237 0.31002 0.0
O284 O 0.72701 0.27232 0.41655 0.0
O285 O 0.67949 0.31 0.43162 0.0
O286 O 0.67514 0.22543 0.37186 0.0
O287 O 0.63088 0.25207 0.3377 0.0
C288 C 0.64309 0.22261 0.34648 0.0
C289 C 0.61038 0.34654 0.35489 0.0
O290 O 0.55277 0.27444 0.36019 0.0
O291 O 0.6083 0.28042 0.40824 0.0
O292 O 0.56995 0.31712 0.25503 0.0
O293 O 0.57321 0.26368 0.25615 0.0
O294 O 0.57245 0.33949 0.3384 0.0
O295 O 0.64039 0.32613 0.34293 0.0
O296 O 0.7155 0.29411 0.32229 0.0
O297 O 0.65855 0.29399 0.27578 0.0
C298 C 0.56671 0.27474 0.39765 0.0
C299 C 0.70092 0.29507 0.28522 0.0
Dy300 Dy 0.03049 0.53045 0.37416 0.0
C301 C 0.13432 0.53083 0.23435 0.0
C302 C -0.01319 0.52228 0.44365 0.0
Dy303 Dy 0.10792 0.52129 0.31055 0.0
O304 O 0.9751 0.54316 0.41567 0.0
O305 O 0.01993 0.50389 0.43182 0.0
O306 O 0.02932 0.58843 0.37237 0.0
O307 O 0.0732 0.56115 0.33917 0.0
C308 C 0.06199 0.59081 0.34758 0.0
C309 C 0.09056 0.46643 0.35383 0.0
O310 O 0.14989 0.53777 0.36221 0.0
O311 O 0.09341 0.52934 0.40852 0.0
O312 O 0.1375 0.50241 0.25392 0.0
O313 O 0.12381 0.55481 0.25892 0.0
O314 O 0.12875 0.47243 0.337 0.0
O315 O 0.06159 0.488 0.34246 0.0
O316 O -0.01273 0.52038 0.32202 0.0
O317 O 0.04479 0.51673 0.27604 0.0
C318 C 0.13542 0.53507 0.39945 0.0
C319 C 0.00227 0.51749 0.28528 0.0
Dy320 Dy 0.86044 0.04494 0.56047 0.0
C321 C 0.74755 0.04418 0.69624 0.0
C322 C 0.88887 0.04276 0.48368 0.0
Dy323 Dy 0.78499 0.03575 0.62392 0.0
O324 O 0.88616 0.06977 0.50541 0.0
O325 O 0.88247 1.01644 0.50628 0.0
O326 O 0.88168 0.09303 0.58762 0.0
O327 O 0.81393 0.07923 0.5916 0.0
C328 C 0.84317 0.10069 0.60253 0.0
C329 C 0.81487 0.97467 0.59798 0.0
O330 O 0.74043 0.04821 0.57302 0.0
O331 O 0.79676 0.04444 0.52646 0.0
O332 O 0.73094 1.02537 0.66829 0.0
O333 O 0.78189 0.06028 0.683 0.0
O334 O 0.7822 0.97795 0.62261 0.0
O335 O 0.82654 1.00408 0.58843 0.0
O336 O 0.90327 1.02722 0.61095 0.0
O337 O 0.84815 0.03643 0.65792 0.0
C338 C 0.75444 0.04753 0.53578 0.0
C339 C 0.88925 1.02847 0.64831 0.0
Dy340 Dy 0.34992 0.27245 0.56204 0.0
C341 C 0.46361 0.27226 0.69671 0.0
C342 C 0.32277 0.26722 0.48525 0.0
Dy343 Dy 0.42573 0.28393 0.62537 0.0
O344 O 0.33352 0.24215 0.50831 0.0
O345 O 0.321 0.29488 0.50623 0.0
O346 O 0.32994 0.22546 0.59421 0.0
O347 O 0.39719 0.2404 0.59482 0.0
C348 C 0.3692 0.21936 0.60851 0.0
C349 C 0.3965 0.34387 0.59688 0.0
O350 O 0.46968 0.27248 0.57358 0.0
O351 O 0.41259 0.28028 0.52831 0.0
O352 O 0.47906 0.29326 0.67024 0.0
O353 O 0.42985 0.25601 0.68259 0.0
O354 O 0.42915 0.34131 0.62181 0.0
O355 O 0.38419 0.31434 0.58828 0.0
O356 O 0.30603 0.29194 0.6099 0.0
O357 O 0.36124 0.28817 0.65852 0.0
C358 C 0.45494 0.27642 0.53683 0.0
C359 C 0.31955 0.29328 0.64737 0.0
Dy360 Dy 0.85812 0.27501 0.74474 0.0
C361 C 0.74003 0.27245 0.61183 0.0
C362 C 0.88675 0.27832 0.8213 0.0
Dy363 Dy 0.77946 0.28413 0.68244 0.0
O364 O 0.8847 0.25099 0.79998 0.0
O365 O 0.88004 0.30435 0.79823 0.0
O366 O 0.87928 0.22747 0.71513 0.0
O367 O 0.81151 0.24178 0.71348 0.0
C368 C 0.84021 0.2209 0.70052 0.0
C369 C 0.80934 0.34467 0.70911 0.0
O370 O 0.73705 0.27238 0.73454 0.0
O371 O 0.7952 0.2733 0.77998 0.0
O372 O 0.72563 0.294 0.638 0.0
O373 O 0.77326 0.25553 0.62613 0.0
O374 O 0.77624 0.34192 0.68475 0.0
O375 O 0.8216 0.31515 0.71764 0.0
O376 O 0.89848 0.29462 0.69354 0.0
O377 O 0.84195 0.286 0.6475 0.0
C378 C 0.75256 0.27167 0.77128 0.0
C379 C 0.88332 0.2939 0.6564 0.0
Dy380 Dy 0.34829 0.04214 0.74656 0.0
C381 C 0.46475 0.04143 0.61162 0.0
C382 C 0.32034 1.03197 0.82234 0.0
Dy383 Dy 0.42375 0.03367 0.68241 0.0
O384 O 0.31502 0.05988 0.80216 0.0
O385 O 0.33498 1.0086 0.79877 0.0
O386 O 0.32825 0.09179 0.72178 0.0
O387 O 0.39534 0.0764 0.71598 0.0
C388 C 0.36671 0.09876 0.70609 0.0
C389 C 0.39317 0.9728 0.7081 0.0
O390 O 0.46793 0.04468 0.73397 0.0
O391 O 0.41149 0.04609 0.78104 0.0
O392 O 0.47975 1.02273 0.64049 0.0
O393 O 0.42974 0.05771 0.62303 0.0
O394 O 0.42566 0.97566 0.68327 0.0
O395 O 0.38179 1.00225 0.71709 0.0
O396 O 0.30586 1.02502 0.69575 0.0
O397 O 0.36019 0.03708 0.64873 0.0
C398 C 0.45386 0.04657 0.77118 0.0
C399 C 0.31901 1.02898 0.65836 0.0
Dy400 Dy 0.17377 1.02902 0.4328 0.0
C401 C 0.06787 1.03016 0.57124 0.0
C402 C 0.21676 1.01967 0.36304 0.0
Dy403 Dy 0.09759 1.02098 0.49579 0.0
O404 O 0.23035 0.0395 0.39123 0.0
O405 O 0.18192 1.00324 0.37464 0.0
O406 O 0.17472 0.08695 0.43131 0.0
O407 O 0.13071 0.0613 0.46613 0.0
C408 C 0.14173 0.09057 0.4555 0.0
C409 C 0.11526 0.96427 0.45588 0.0
O410 O 0.05529 0.03567 0.44364 0.0
O411 O 0.11148 1.02536 0.39798 0.0
O412 O 0.06496 1.00214 0.55121 0.0
O413 O 0.08078 0.05413 0.54745 0.0
O414 O 0.07681 0.97189 0.4711 0.0
O415 O 0.14437 0.98616 0.46608 0.0
O416 O 0.21773 1.01896 0.48485 0.0
O417 O 0.16038 1.01674 0.53088 0.0
C418 C 0.06961 1.03174 0.40665 0.0
C419 C 0.20294 1.01631 0.52172 0.0
Dy420 Dy 0.53446 0.78266 0.43557 0.0
C421 C 0.63195 0.77734 0.5723 0.0
C422 C 0.49662 0.78453 0.36222 0.0
Dy423 Dy 0.60508 0.79141 0.49667 0.0
O424 O 0.48901 0.76141 0.38878 0.0
O425 O 0.52173 0.80771 0.37719 0.0
O426 O 0.52166 0.72954 0.45895 0.0
O427 O 0.58492 0.74946 0.4604 0.0
C428 C 0.56217 0.72424 0.47035 0.0
C429 C 0.58923 0.84915 0.45839 0.0
O430 O 0.65133 0.77807 0.4466 0.0
O431 O 0.59631 0.78591 0.39969 0.0
O432 O 0.64088 0.80521 0.55296 0.0
O433 O 0.61347 0.75613 0.54822 0.0
O434 O 0.62715 0.84112 0.47444 0.0
O435 O 0.55934 0.82748 0.46756 0.0
O436 O 0.48725 0.79807 0.48315 0.0
O437 O 0.5418 0.79444 0.5308 0.0
C438 C 0.63808 0.78015 0.40907 0.0
C439 C 0.50008 0.79867 0.52056 0.0
Dy440 Dy 0.18035 0.78088 0.37388 0.0
C441 C 0.07306 0.78508 0.23542 0.0
C442 C 0.22046 0.78993 0.44478 0.0
Dy443 Dy 0.10325 0.79088 0.31114 0.0
O444 O 0.23457 0.76948 0.41737 0.0
O445 O 0.18715 0.80745 0.4316 0.0
O446 O 0.18345 0.72324 0.37152 0.0
O447 O 0.1386 0.74976 0.33788 0.0
C448 C 0.1507 0.72022 0.34688 0.0
C449 C 0.11993 0.84462 0.35628 0.0
O450 O 0.06151 0.77221 0.36173 0.0
O451 O 0.11753 0.77941 0.40851 0.0
O452 O 0.07253 0.81273 0.2563 0.0
O453 O 0.08412 0.75994 0.25833 0.0
O454 O 0.08129 0.83818 0.34067 0.0
O455 O 0.14904 0.82394 0.3435 0.0
O456 O 0.2238 0.7933 0.32236 0.0
O457 O 0.16618 0.79642 0.27647 0.0
C458 C 0.07606 0.77233 0.39895 0.0
C459 C 0.20877 0.79693 0.28565 0.0
Dy460 Dy 0.5302 1.03072 0.37423 0.0
C461 C 0.63626 1.0237 0.23525 0.0
C462 C 0.49083 1.01836 0.44471 0.0
Dy463 Dy 0.60879 1.0224 0.31223 0.0
O464 O 0.47559 0.0393 0.41804 0.0
O465 O 0.52511 1.00241 0.43107 0.0
O466 O 0.52524 0.08829 0.37139 0.0
O467 O 0.57166 0.06256 0.33872 0.0
C468 C 0.55838 0.09185 0.34719 0.0
C469 C 0.59062 0.96791 0.35661 0.0
O470 O 0.64968 0.04118 0.36319 0.0
O471 O 0.59297 1.03318 0.40922 0.0
O472 O 0.63131 0.9967 0.25692 0.0
O473 O 0.63349 0.05013 0.25813 0.0
O474 O 0.62983 0.97468 0.34244 0.0
O475 O 0.56228 0.98887 0.34321 0.0
O476 O 0.48797 1.01746 0.32238 0.0
O477 O 0.54567 1.02367 0.27745 0.0
C478 C 0.63458 0.04058 0.40029 0.0
C479 C 0.50324 1.01928 0.28563 0.0
Dy480 Dy 0.85784 0.54556 0.06121 0.0
C481 C 0.74042 0.54967 0.19635 0.0
C482 C 0.88327 0.54694 0.984 0.0
Dy483 Dy 0.78203 0.53925 0.12607 0.0
O484 O 0.86983 0.57273 1.00444 0.0
O485 O 0.88877 0.52104 1.00771 0.0
O486 O 0.88149 0.59321 0.08795 0.0
O487 O 0.81345 0.5809 0.09308 0.0
C488 C 0.8438 0.6013 0.10412 0.0
C489 C 0.80965 0.47748 0.10089 0.0
O490 O 0.73874 0.55057 0.07361 0.0
O491 O 0.79429 0.5366 0.02922 0.0
O492 O 0.72648 0.52934 0.16879 0.0
O493 O 0.77496 0.56609 0.18386 0.0
O494 O 0.77761 0.4815 0.12602 0.0
O495 O 0.82245 0.5065 0.09113 0.0
O496 O 0.90091 0.52752 0.11105 0.0
O497 O 0.84662 0.53925 0.15859 0.0
C498 C 0.75248 0.54347 0.03724 0.0
C499 C 0.88793 0.5317 0.14842 0.0
Dy500 Dy 0.35218 0.7713 0.05988 0.0
C501 C 0.47009 0.76385 0.19436 0.0
C502 C 0.32402 0.7782 0.98343 0.0
Dy503 Dy 0.42812 0.77574 0.12449 0.0
O504 O 0.32206 0.75059 1.00447 0.0
O505 O 0.3352 0.80303 1.00654 0.0
O506 O 0.32701 0.72353 0.08537 0.0
O507 O 0.39545 0.73484 0.09124 0.0
C508 C 0.36444 0.71466 0.10171 0.0
C509 C 0.40064 0.83852 0.10061 0.0
O510 O 0.47183 0.76315 0.07299 0.0
O511 O 0.41579 0.76746 1.0261 0.0
O512 O 0.48476 0.78376 0.16649 0.0
O513 O 0.43449 0.74859 0.1824 0.0
O514 O 0.43245 0.83363 0.12583 0.0
O515 O 0.38845 0.80967 0.08973 0.0
O516 O 0.3109 0.78908 0.11137 0.0
O517 O 0.36476 0.7751 0.1583 0.0
C518 C 0.45795 0.7636 0.03569 0.0
C519 C 0.32402 0.78452 0.14873 0.0
Dy520 Dy 0.86246 0.77658 0.24862 0.0
C521 C 0.74835 0.77191 0.11265 0.0
C522 C 0.88997 0.78082 0.32548 0.0
Dy523 Dy 0.78515 0.78283 0.18471 0.0
O524 O 0.88484 0.75299 0.30554 0.0
O525 O 0.88648 0.80636 0.30116 0.0
O526 O 0.88546 0.72847 0.2222 0.0
O527 O 0.8175 0.74143 0.21762 0.0
C528 C 0.84736 0.72064 0.20649 0.0
C529 C 0.81194 0.84454 0.21085 0.0
O530 O 0.74215 0.77007 0.23648 0.0
O531 O 0.79875 0.77796 0.2822 0.0
O532 O 0.73176 0.79186 0.13953 0.0
O533 O 0.78208 0.75567 0.12713 0.0
O534 O 0.7793 0.84052 0.18627 0.0
O535 O 0.82532 0.81542 0.21987 0.0
O536 O 0.90405 0.7944 0.19747 0.0
O537 O 0.84843 0.78501 0.15073 0.0
C538 C 0.75661 0.77297 0.27345 0.0
C539 C 0.88955 0.79317 0.16022 0.0
Dy540 Dy 0.34276 0.54012 0.24858 0.0
C541 C 0.4613 0.54127 0.11558 0.0
C542 C 0.31477 0.53922 0.32537 0.0
Dy543 Dy 0.41933 0.53124 0.18552 0.0
O544 O 0.31877 0.56599 0.30319 0.0
O545 O 0.31883 0.51256 0.30302 0.0
O546 O 0.32073 0.5877 0.21991 0.0
O547 O 0.38852 0.57404 0.21645 0.0
C548 C 0.35906 0.59477 0.20419 0.0
C549 C 0.39125 0.47013 0.21263 0.0
O550 O 0.46258 0.54445 0.23722 0.0
O551 O 0.40571 0.53994 0.28313 0.0
O552 O 0.4756 0.52143 0.14371 0.0
O553 O 0.4263 0.55747 0.12735 0.0
O554 O 0.42388 0.4737 0.18795 0.0
O555 O 0.37841 0.4994 0.22168 0.0
O556 O 0.30008 0.52334 0.19818 0.0
O557 O 0.35614 0.52902 0.15067 0.0
C558 C 0.44798 0.54363 0.27429 0.0
C559 C 0.31429 0.52369 0.16086 0.0
Dy560 Dy 0.17246 0.53053 0.93332 0.0
C561 C 0.06695 0.5229 0.07327 0.0
C562 C 0.21216 0.51953 0.86245 0.0
Dy563 Dy 0.09453 0.52357 0.99646 0.0
O564 O 0.22685 0.54024 0.88936 0.0
O565 O 0.17838 0.50293 0.87611 0.0
O566 O 0.17639 0.58851 0.93456 0.0
O567 O 0.13097 0.56262 0.96781 0.0
C568 C 0.14354 0.59192 0.95902 0.0
C569 C 0.11043 0.46816 0.95343 0.0
O570 O 0.05328 0.54215 0.94547 0.0
O571 O 0.10901 0.53124 0.89912 0.0
O572 O 0.07716 0.49652 0.05234 0.0
O573 O 0.06539 0.54934 0.04996 0.0
O574 O 0.07213 0.47597 0.96871 0.0
O575 O 0.14013 0.48873 0.96544 0.0
O576 O 0.21488 0.51872 0.98606 0.0
O577 O 0.15772 0.52989 0.03019 0.0
C578 C 0.06756 0.53918 0.90825 0.0
C579 C 0.19995 0.52422 1.02245 0.0
Dy580 Dy 0.53345 0.28325 0.93436 0.0
C581 C 0.63874 0.2884 0.07335 0.0
C582 C 0.49121 0.29154 0.86413 0.0
Dy583 Dy 0.60853 0.29277 0.99738 0.0
O584 O 0.47713 0.27216 0.89273 0.0
O585 O 0.52608 0.30794 0.87547 0.0
O586 O 0.53212 0.22549 0.93434 0.0
O587 O 0.5763 0.25137 0.9689 0.0
C588 C 0.56498 0.22207 0.95871 0.0
C589 C 0.58942 0.34899 0.95629 0.0
O590 O 0.65219 0.27862 0.94611 0.0
O591 O 0.59597 0.28749 0.90004 0.0
O592 O 0.63739 0.31579 0.05193 0.0
O593 O 0.63025 0.26269 0.05059 0.0
O594 O 0.62812 0.34186 0.97124 0.0
O595 O 0.56091 0.32684 0.96706 0.0
O596 O 0.48929 0.29466 0.98545 0.0
O597 O 0.54542 0.29313 0.03248 0.0
C598 C 0.63802 0.28223 0.909 0.0
C599 C 0.50307 0.29487 1.02272 0.0
Dy600 Dy 0.17502 0.28638 0.87283 0.0
C601 C 0.06919 0.28928 0.73319 0.0
C602 C 0.21334 0.29813 0.94399 0.0
Dy603 Dy 0.09729 0.29198 0.80983 0.0
O604 O 0.22887 0.27741 0.91745 0.0
O605 O 0.17963 0.31449 0.92971 0.0
O606 O 0.18086 0.22862 0.87225 0.0
O607 O 0.13465 0.25319 0.83838 0.0
C608 C 0.14813 0.2242 0.84788 0.0
C609 C 0.11163 0.34799 0.85208 0.0
O610 O 0.05627 0.27397 0.86119 0.0
O611 O 0.112 0.28447 0.90741 0.0
O612 O 0.07453 0.31664 0.75386 0.0
O613 O 0.07224 0.26324 0.75685 0.0
O614 O 0.07358 0.33957 0.83678 0.0
O615 O 0.14188 0.3277 0.84041 0.0
O616 O 0.21802 0.29855 0.8207 0.0
O617 O 0.16075 0.2899 0.77583 0.0
C618 C 0.07082 0.27601 0.89837 0.0
C619 C 0.20306 0.29466 0.78405 0.0
Dy620 Dy 0.52934 0.53357 0.87768 0.0
C621 C 0.63329 0.52683 0.73767 0.0
C622 C 0.49071 0.52073 0.94844 0.0
Dy623 Dy 0.60498 0.52497 0.81448 0.0
O624 O 0.47471 0.54131 0.92177 0.0
O625 O 0.52532 0.50528 0.93463 0.0
O626 O 0.52523 0.59051 0.87821 0.0
O627 O 0.56945 0.56641 0.84131 0.0
C628 C 0.55733 0.59526 0.85322 0.0
C629 C 0.58782 0.47043 0.85936 0.0
O630 O 0.64788 0.54423 0.86338 0.0
O631 O 0.59319 0.53681 0.91166 0.0
O632 O 0.6314 0.49996 0.75999 0.0
O633 O 0.62641 0.55327 0.75978 0.0
O634 O 0.62694 0.47762 0.84531 0.0
O635 O 0.55922 0.49121 0.84614 0.0
O636 O 0.48517 0.52313 0.82608 0.0
O637 O 0.54213 0.5231 0.77967 0.0
C638 C 0.63455 0.54348 0.90093 0.0
C639 C 0.49975 0.52192 0.78905 0.0
C640 C 0.4026 0.90185 0.10201 0.0
C641 C 0.37946 0.87202 0.09235 0.0
C642 C 0.38188 0.93379 0.101 0.0
C643 C 0.33685 0.93713 0.09117 0.0
H644 H 0.4367 0.90042 0.11188 0.0
H645 H 0.40064 0.95558 0.11049 0.0
S646 S 0.26219 0.86794 0.05952 0.0
N647 N 0.30983 0.84881 0.06862 0.0
N648 N 0.27048 0.90847 0.06889 0.0
C649 C 0.31379 0.90788 0.07981 0.0
C650 C 0.3352 0.87544 0.07973 0.0
C651 C 0.87489 0.43987 0.08563 0.0
C652 C 0.82882 0.44427 0.08953 0.0
C653 C 0.89369 0.40722 0.08278 0.0
C654 C 0.86701 0.3779 0.08308 0.0
H655 H 0.89672 0.46156 0.08712 0.0
H656 H 0.92942 0.40491 0.08197 0.0
S657 S 0.74394 0.37655 0.0861 0.0
N658 N 0.75683 0.41706 0.08949 0.0
N659 N 0.79156 0.35621 0.08248 0.0
C660 C 0.82068 0.38239 0.08383 0.0
C661 C 0.80177 0.41543 0.08754 0.0
C662 C 0.39469 0.40701 0.21663 0.0
C663 C 0.37013 0.43703 0.22211 0.0
C664 C 0.37416 0.37505 0.21666 0.0
C665 C 0.32806 0.37201 0.22099 0.0
H666 H 0.42985 0.40832 0.21039 0.0
H667 H 0.39411 0.35298 0.21022 0.0
S668 S 0.24934 0.44195 0.2413 0.0
N669 N 0.29789 0.46089 0.23711 0.0
N670 N 0.25897 0.40116 0.23465 0.0
C671 C 0.30351 0.40149 0.22888 0.0
C672 C 0.32464 0.43393 0.23017 0.0
C673 C 0.8076 0.90763 0.21459 0.0
C674 C 0.8324 0.87777 0.22051 0.0
C675 C 0.82776 0.93972 0.21518 0.0
C676 C 0.8737 0.94303 0.22044 0.0
H677 H 0.77263 0.90613 0.20762 0.0
H678 H 0.80774 0.96169 0.20848 0.0
S679 S 0.9528 0.87362 0.2422 0.0
N680 N 0.9046 0.85441 0.23706 0.0
N681 N 0.9428 0.91436 0.23538 0.0
C682 C 0.8984 0.91372 0.22876 0.0
C683 C 0.87765 0.88116 0.22957 0.0
C684 C 0.58177 0.127 0.96693 0.0
C685 C 0.62811 0.12368 0.96778 0.0
C686 C 0.56153 0.15914 0.96637 0.0
C687 C 0.58673 0.18914 0.9681 0.0
H688 H 0.56107 0.10482 0.96383 0.0
H689 H 0.52589 0.16052 0.96296 0.0
S690 S 0.70908 0.19386 0.97634 0.0
N691 N 0.69853 0.15289 0.97341 0.0
N692 N 0.66041 0.21299 0.97509 0.0
C693 C 0.63287 0.18598 0.97239 0.0
C694 C 0.65357 0.15332 0.97148 0.0
C695 C 0.05565 0.66054 0.96098 0.0
C696 C 0.08022 0.69012 0.96879 0.0
C697 C 0.07561 0.62832 0.96129 0.0
C698 C 0.12122 0.62447 0.96821 0.0
H699 H 0.02098 0.66239 0.95296 0.0
H700 H 0.0557 0.60669 0.95337 0.0
S701 S 0.19958 0.69281 0.995 0.0
N702 N 0.15177 0.71249 0.9887 0.0
N703 N 0.18974 0.65235 0.98638 0.0
C704 C 0.14573 0.65345 0.97805 0.0
C705 C 0.12509 0.68615 0.97917 0.0
C706 C 0.61763 0.67674 0.82203 0.0
C707 C 0.62682 0.69164 0.859 0.0
C708 C 0.59686 0.64457 0.81952 0.0
C709 C 0.58424 0.62675 0.85392 0.0
H710 H 0.62651 0.68992 0.79505 0.0
H711 H 0.58954 0.63412 0.79071 0.0
S712 S 0.60086 0.65444 0.95753 0.0
N713 N 0.62163 0.68538 0.93051 0.0
N714 N 0.583 0.62616 0.92558 0.0
C715 C 0.59364 0.64137 0.8907 0.0
C716 C 0.61477 0.67349 0.89331 0.0
C717 C 0.15277 0.16098 0.84507 0.0
C718 C 0.12789 0.19073 0.8386 0.0
C719 C 0.13296 0.12875 0.84398 0.0
C720 C 0.08724 0.12509 0.83748 0.0
H721 H 0.18756 0.16267 0.85267 0.0
H722 H 0.15308 0.10688 0.85108 0.0
S723 S 0.00795 0.19419 0.81478 0.0
N724 N 0.0558 0.2137 0.82098 0.0
N725 N 0.01821 0.15347 0.82151 0.0
C726 C 0.06242 0.15434 0.82902 0.0
C727 C 0.08284 0.18707 0.82883 0.0
C728 C 0.32794 0.37936 0.59198 0.0
C729 C 0.37402 0.37627 0.58732 0.0
C730 C 0.3076 0.41139 0.59394 0.0
C731 C 0.33236 0.44147 0.59012 0.0
H732 H 0.30786 0.35713 0.59717 0.0
H733 H 0.27245 0.41262 0.60021 0.0
S734 S 0.45332 0.44671 0.5718 0.0
N735 N 0.44335 0.4057 0.5757 0.0
N736 N 0.40487 0.46564 0.577 0.0
C737 C 0.37787 0.43852 0.582 0.0
C738 C 0.39876 0.40597 0.58127 0.0
C739 C 0.81349 0.91148 0.59491 0.0
C740 C 0.83696 0.94186 0.58869 0.0
C741 C 0.83491 0.87984 0.59434 0.0
C742 C 0.88093 0.87741 0.5888 0.0
H743 H 0.77849 0.91222 0.60193 0.0
H744 H 0.81567 0.85749 0.60106 0.0
S745 S 0.95696 0.9485 0.56612 0.0
N746 N 0.90807 0.96672 0.57155 0.0
N747 N 0.94873 0.90758 0.57334 0.0
C748 C 0.90442 0.90727 0.58038 0.0
C749 C 0.88233 0.93942 0.57952 0.0
C750 C 0.32455 0.93752 0.71167 0.0
C751 C 0.37035 0.94063 0.71786 0.0
C752 C 0.30403 0.90556 0.7111 0.0
C753 C 0.32829 0.87557 0.71789 0.0
H754 H 0.30495 0.95959 0.70447 0.0
H755 H 0.26917 0.90428 0.70362 0.0
S756 S 0.44794 0.87098 0.74264 0.0
N757 N 0.43865 0.9117 0.73485 0.0
N758 N 0.39978 0.85193 0.73633 0.0
C759 C 0.3734 0.87876 0.72768 0.0
C760 C 0.39452 0.91122 0.72695 0.0
C761 C 0.87824 0.38001 0.7115 0.0
C762 C 0.83241 0.37696 0.71792 0.0
C763 C 0.89882 0.41195 0.7102 0.0
C764 C 0.87471 0.44204 0.71643 0.0
H765 H 0.8979 0.35794 0.70467 0.0
H766 H 0.93366 0.41314 0.70263 0.0
S767 S 0.75489 0.44713 0.74042 0.0
N768 N 0.76413 0.4063 0.73382 0.0
N769 N 0.8032 0.46596 0.73409 0.0
C770 C 0.82958 0.43899 0.72627 0.0
C771 C 0.80833 0.40655 0.72624 0.0
C772 C 0.57513 0.62795 0.47318 0.0
C773 C 0.62146 0.62386 0.47243 0.0
C774 C 0.55575 0.66048 0.47469 0.0
C775 C 0.58208 0.68993 0.47616 0.0
H776 H 0.55371 0.60618 0.47002 0.0
H777 H 0.52003 0.66259 0.47284 0.0
S778 S 0.70501 0.692 0.48206 0.0
N779 N 0.6929 0.65143 0.47765 0.0
N780 N 0.657 0.71203 0.48238 0.0
C781 C 0.62836 0.6857 0.47889 0.0
C782 C 0.64791 0.65281 0.47647 0.0
C783 C 0.1442 0.15368 0.46067 0.0
C784 C 0.11961 0.12352 0.46426 0.0
C785 C 0.12359 0.18566 0.46144 0.0
C786 C 0.07731 0.18877 0.46436 0.0
H787 H 0.17965 0.15256 0.45583 0.0
H788 H 0.14391 0.20785 0.45706 0.0
S789 S -0.0021 0.11819 0.4785 0.0
N790 N 0.04665 0.09935 0.47539 0.0
N791 N 0.00771 0.15918 0.47389 0.0
C792 C 0.05248 0.15901 0.46976 0.0
C793 C 0.07367 0.12646 0.47052 0.0
C794 C 0.57478 0.18703 0.3416 0.0
C795 C 0.62079 0.19027 0.33675 0.0
C796 C 0.55453 0.15496 0.34246 0.0
C797 C 0.57929 0.12499 0.33735 0.0
H798 H 0.55469 0.20909 0.3477 0.0
H799 H 0.51944 0.15357 0.34897 0.0
S800 S 0.69999 0.12049 0.31733 0.0
N801 N 0.69004 0.16131 0.32329 0.0
N802 N 0.65165 0.10138 0.32219 0.0
C803 C 0.6247 0.12825 0.32888 0.0
C804 C 0.64555 0.16081 0.32937 0.0
C805 C 0.15257 0.65701 0.34337 0.0
C806 C 0.12879 0.68738 0.33747 0.0
C807 C 0.13138 0.62528 0.34294 0.0
C808 C 0.08534 0.62278 0.3377 0.0
H809 H 0.18762 0.65783 0.35016 0.0
H810 H 0.15076 0.60294 0.34965 0.0
S811 S 0.00846 0.69374 0.3162 0.0
N812 N 0.05726 0.71208 0.3213 0.0
N813 N 0.01716 0.65281 0.32296 0.0
C814 C 0.06156 0.6526 0.32954 0.0
C815 C 0.08336 0.68482 0.32871 0.0
C816 C 0.20895 1.01135 0.25208 0.0
C817 C 0.23646 0.03751 0.23831 0.0
C818 C 0.20499 1.0045 0.29257 0.0
C819 C 0.22811 1.02368 0.32083 0.0
H820 H 0.19088 0.99564 0.23145 0.0
H821 H 0.18301 0.98432 0.30183 0.0
S822 S 0.30544 0.09447 0.30004 0.0
N823 N 0.2881 0.08228 0.25607 0.0
N824 N 0.28024 0.06951 0.33217 0.0
C825 C 0.25619 0.04964 0.30747 0.0
C826 C 0.26029 0.05662 0.26622 0.0
C827 C 0.9551 0.26954 0.30223 0.0
C828 C -0.02079 0.29707 0.31719 0.0
C829 C 0.95035 0.26477 0.26145 0.0
C830 C 0.96896 0.2876 0.23407 0.0
H831 H 0.94091 0.2509 0.32208 0.0
H832 H 0.93163 0.24308 0.25134 0.0
S833 S 0.03396 0.36449 0.25818 0.0
N834 N 0.02147 0.3478 0.30159 0.0
N835 N 0.01162 0.33924 0.22487 0.0
C836 C -0.00739 0.31555 0.24863 0.0
C837 C -0.00217 0.32023 0.29021 0.0
C838 C 0.24345 0.2653 1.00089 0.0
C839 C 0.22027 0.29378 0.98687 0.0
C840 C 0.24478 0.25752 0.04128 0.0
C841 C 0.22329 0.27806 0.06922 0.0
H842 H 0.26007 0.24845 0.98049 0.0
H843 H 0.26366 0.23558 0.05072 0.0
S844 S 0.15675 0.35503 0.04761 0.0
N845 N 0.17421 0.34217 1.00394 0.0
N846 N 0.17713 0.32773 0.07995 0.0
C847 C 0.19944 0.30639 0.05559 0.0
C848 C 0.19802 0.3143 1.01441 0.0
C849 C 0.95522 0.05611 0.03995 0.0
C850 C -0.02121 0.03763 0.06873 0.0
C851 C 0.95968 0.04889 0.99968 0.0
C852 C -0.01207 1.02293 0.98665 0.0
H853 H 0.93259 0.07608 0.04859 0.0
H854 H 0.94152 0.06426 0.97859 0.0
S855 S 0.05653 0.96659 0.05004 0.0
N856 N 0.03103 0.99191 0.08143 0.0
N857 N 0.0395 0.97832 1.00569 0.0
C858 C 0.0115 1.00405 1.0151 0.0
C859 C 0.00705 1.01149 0.05614 0.0
C860 C 0.70642 1.0056 0.79206 0.0
C861 C 0.73071 1.02321 0.82092 0.0
C862 C 0.71048 1.01354 0.7518 0.0
C863 C 0.73919 0.0393 0.73892 0.0
H864 H 0.68343 0.98588 0.80067 0.0
H865 H 0.69142 0.99907 0.73065 0.0
S866 S 0.812 0.09186 0.80246 0.0
N867 N 0.78565 0.06678 0.8337 0.0
N868 N 0.79349 0.08171 0.75817 0.0
C869 C 0.76427 0.05673 0.76744 0.0
C870 C 0.76017 0.04858 0.80839 0.0
C871 C 0.96747 0.766 0.80513 0.0
C872 C -0.00961 0.79436 0.81949 0.0
C873 C 0.96627 0.7588 0.76464 0.0
C874 C -0.01247 0.77985 0.73691 0.0
H875 H 0.951 0.7488 0.82534 0.0
H876 H 0.9477 0.73689 0.75494 0.0
S877 S 0.05324 0.85679 0.75943 0.0
N878 N 0.03599 0.84316 0.80296 0.0
N879 N 0.03317 0.82987 0.72678 0.0
C880 C 0.01115 0.80804 0.75089 0.0
C881 C 0.01251 0.81532 0.79218 0.0
C882 C 0.71098 0.81089 1.01589 0.0
C883 C 0.73761 0.79434 0.98774 0.0
C884 C 0.71305 0.80229 0.05606 0.0
C885 C 0.74189 0.77686 0.0697 0.0
H886 H 0.68738 0.83008 1.00675 0.0
H887 H 0.69222 0.81599 0.07661 0.0
S888 S 0.8201 0.72687 1.00834 0.0
N889 N 0.79465 0.75199 0.97649 0.0
N890 N 0.79872 0.73581 0.05197 0.0
C891 C 0.76911 0.76036 0.04194 0.0
C892 C 0.76706 0.7692 1.00102 0.0
C893 C 0.24694 0.55059 0.80624 0.0
C894 C 0.22092 0.52341 0.81971 0.0
C895 C 0.25031 0.5581 0.76586 0.0
C896 C 0.22808 0.5386 0.73735 0.0
H897 H 0.26414 0.56669 0.82705 0.0
H898 H 0.27101 0.57915 0.75689 0.0
S899 S 0.15562 0.46462 0.75724 0.0
N900 N 0.17224 0.47695 0.80138 0.0
N901 N 0.17901 0.4909 0.72544 0.0
C902 C 0.2018 0.5114 0.75039 0.0
C903 C 0.19831 0.50375 0.79156 0.0
C904 C 0.20257 0.80308 0.51475 0.0
C905 C 0.2287 0.78516 0.48741 0.0
C906 C 0.20454 0.79586 0.55524 0.0
C907 C 0.23272 0.77045 0.56993 0.0
H908 H 0.1798 0.82255 0.50479 0.0
H909 H 0.18446 0.81079 0.57521 0.0
S910 S 0.30796 0.71604 0.51076 0.0
N911 N 0.28357 0.74081 0.47787 0.0
N912 N 0.28729 0.72711 0.55398 0.0
C913 C 0.25886 0.75214 0.54291 0.0
C914 C 0.25699 0.75963 0.50166 0.0
C915 C -0.00082 0.50791 0.5144 0.0
C916 C 0.97678 0.52749 0.48587 0.0
C917 C -0.0033 0.5158 0.55466 0.0
C918 C 0.97144 0.54342 0.5679 0.0
H919 H 0.01946 0.48661 0.50553 0.0
H920 H 0.01398 0.49967 0.57556 0.0
S921 S 0.90543 0.60217 0.50533 0.0
N922 N 0.9279 0.57542 0.47373 0.0
N923 N 0.92294 0.59015 0.54941 0.0
C924 C 0.94855 0.56307 0.53973 0.0
C925 C 0.95109 0.55503 0.49873 0.0
C926 C 0.70542 0.51724 0.25145 0.0
C927 C 0.72973 0.54561 0.23871 0.0
C928 C 0.70109 0.50954 0.29175 0.0
C929 C 0.72101 0.52985 0.32082 0.0
H930 H 0.69051 0.50031 0.23015 0.0
H931 H 0.68174 0.48757 0.30018 0.0
S932 S 0.78491 0.60872 0.30299 0.0
N933 N 0.77185 0.59521 0.25837 0.0
N934 N 0.7638 0.58075 0.33408 0.0
C935 C 0.7447 0.55869 0.3085 0.0
C936 C 0.74891 0.56662 0.26746 0.0
C937 C 0.69962 0.30767 0.51432 0.0
C938 C 0.72392 0.28891 0.48644 0.0
C939 C 0.70335 0.30104 0.55486 0.0
C940 C 0.7315 0.27539 0.56903 0.0
H941 H 0.67689 0.32731 0.50477 0.0
H942 H 0.68453 0.31651 0.57522 0.0
S943 S 0.80311 0.21938 0.50836 0.0
N944 N 0.7776 0.24387 0.47587 0.0
N945 N 0.78466 0.23132 0.55206 0.0
C946 C 0.75613 0.25645 0.54149 0.0
C947 C 0.75247 0.26333 0.5002 0.0
C948 C 0.50181 0.30809 0.79407 0.0
C949 C 0.48002 0.28757 0.82201 0.0
C950 C 0.49822 0.30182 0.75356 0.0
C951 C 0.47231 0.27496 0.73943 0.0
H952 H 0.52242 0.32897 0.80359 0.0
H953 H 0.51518 0.31861 0.7332 0.0
S954 S 0.40785 0.21398 0.80022 0.0
N955 N 0.43139 0.23933 0.83275 0.0
N956 N 0.42398 0.22777 0.75641 0.0
C957 C 0.44996 0.25435 0.76699 0.0
C958 C 0.45377 0.26069 0.80834 0.0
C959 C 0.45104 0.05505 0.54109 0.0
C960 C 0.47497 0.03638 0.56947 0.0
C961 C 0.45446 0.04777 0.5008 0.0
C962 C 0.48201 1.02157 0.48735 0.0
H963 H 0.42891 0.07523 0.55006 0.0
H964 H 0.43606 0.06329 0.48003 0.0
S965 S 0.55157 0.96492 0.54954 0.0
N966 N 0.52697 0.99036 0.58138 0.0
N967 N 0.53363 0.97669 0.50549 0.0
C968 C 0.50604 1.00255 0.51538 0.0
C969 C 0.50263 1.01005 0.55648 0.0
C970 C 0.45925 0.747 0.26477 0.0
C971 C 0.48157 0.76706 0.23664 0.0
C972 C 0.46345 0.75324 0.30538 0.0
C973 C 0.48963 0.78007 0.31931 0.0
H974 H 0.43757 0.72672 0.25533 0.0
H975 H 0.4459 0.73703 0.32598 0.0
S976 S 0.5568 0.83897 0.25796 0.0
N977 N 0.53241 0.81388 0.2257 0.0
N978 N 0.53975 0.82602 0.30182 0.0
C979 C 0.5127 0.79999 0.29152 0.0
C980 C 0.50894 0.79331 0.25024 0.0
C981 C 0.44712 0.55493 0.04498 0.0
C982 C 0.47234 0.53731 0.07339 0.0
C983 C 0.45166 0.54818 1.00461 0.0
C984 C 0.48164 0.52359 0.99112 0.0
H985 H 0.42303 0.57375 0.05399 0.0
H986 H 0.43202 0.56277 0.98383 0.0
S987 S 0.55604 0.47066 0.05335 0.0
N988 N 0.52869 0.49438 0.08521 0.0
N989 N 0.53739 0.48169 1.00928 0.0
C990 C 0.50722 0.50582 1.01918 0.0
C991 C 0.50267 0.51277 0.06032 0.0
C992 C 0.38213 1.01296 0.91777 0.0
C993 C 0.36983 0.04006 0.9422 0.0
C994 C 0.36394 1.00934 0.87973 0.0
C995 C 0.33218 1.03241 0.86489 0.0
H996 H 0.40609 0.99448 0.92805 0.0
H997 H 0.3758 0.98878 0.86145 0.0
S998 S 0.28447 0.1053 0.91873 0.0
N999 N 0.321 0.08894 0.94971 0.0
N1000 N 0.28698 0.08172 0.87864 0.0
C1001 C 0.3185 0.05889 0.88949 0.0
C1002 C 0.33727 0.06284 0.92797 0.0
C1003 C 0.84207 0.30937 0.92015 0.0
C1004 C 0.83181 0.27912 0.94039 0.0
C1005 C 0.86217 0.30901 0.88257 0.0
C1006 C 0.87352 0.27839 0.86381 0.0
H1007 H 0.83509 0.33361 0.93369 0.0
H1008 H 0.86822 0.33297 0.86785 0.0
S1009 S 0.85483 0.19202 0.90445 0.0
N1010 N 0.83483 0.21756 0.93857 0.0
N1011 N 0.8735 0.21693 0.86893 0.0
C1012 C 0.86394 0.24797 0.88397 0.0
C1013 C 0.84272 0.24832 0.92182 0.0
C1014 C 0.36135 0.29658 0.3836 0.0
C1015 C 0.37028 0.26596 0.36392 0.0
C1016 C 0.34363 0.29691 0.42212 0.0
C1017 C 0.3335 0.26664 0.44232 0.0
H1018 H 0.36733 0.32056 0.36892 0.0
H1019 H 0.33861 0.32112 0.43639 0.0
S1020 S 0.3498 0.17959 0.40379 0.0
N1021 N 0.36745 0.20448 0.36782 0.0
N1022 N 0.33342 0.20515 0.43941 0.0
C1023 C 0.34191 0.23588 0.42282 0.0
C1024 C 0.3605 0.23552 0.38393 0.0
C1025 C 0.84391 1.01336 0.38439 0.0
C1026 C 0.83507 0.04399 0.36436 0.0
C1027 C 0.86386 1.01298 0.42203 0.0
C1028 C 0.87632 0.0432 0.44107 0.0
H1029 H 0.8359 0.98939 0.37067 0.0
H1030 H 0.86874 0.9888 0.43663 0.0
S1031 S 0.86159 0.13024 0.40107 0.0
N1032 N 0.84069 0.10543 0.36667 0.0
N1033 N 0.87902 0.10464 0.43646 0.0
C1034 C 0.86823 0.07396 0.42111 0.0
C1035 C 0.84725 0.07438 0.38318 0.0
C1036 C 0.60733 0.05747 0.13261 0.0
C1037 C 0.58273 1.03079 0.11575 0.0
C1038 C 0.62604 0.05461 0.17064 0.0
C1039 C 0.62154 1.02478 0.19317 0.0
H1040 H 0.61321 0.08048 0.11591 0.0
H1041 H 0.64418 0.07594 0.1825 0.0
S1042 S 0.55726 0.94851 0.16383 0.0
N1043 N 0.55272 0.9744 0.12565 0.0
N1044 N 0.5881 0.96867 0.1964 0.0
C1045 C 0.59626 0.99816 0.17687 0.0
C1046 C 0.57677 1.0013 0.13847 0.0
C1047 C 0.12589 0.75973 0.13805 0.0
C1048 C 0.12418 0.78987 0.11583 0.0
C1049 C 0.10651 0.7576 0.17578 0.0
C1050 C 0.08421 0.78543 0.19267 0.0
H1051 H 0.14224 0.73757 0.12615 0.0
H1052 H 0.11021 0.7342 0.19228 0.0
S1053 S 0.06634 0.86917 0.1453 0.0
N1054 N 0.09566 0.84765 0.11276 0.0
N1055 N 0.0592 0.84332 0.1832 0.0
C1056 C 0.08098 0.81532 0.17026 0.0
C1057 C 0.10105 0.81767 0.13208 0.0
C1058 C 0.61221 0.80743 0.67714 0.0
C1059 C 0.59182 0.7794 0.6956 0.0
C1060 C 0.62796 0.80578 0.63816 0.0
C1061 C 0.62376 0.77609 0.61569 0.0
H1062 H 0.61647 0.83096 0.69303 0.0
H1063 H 0.64225 0.82838 0.62518 0.0
S1064 S 0.57426 0.69511 0.65045 0.0
N1065 N 0.5698 0.72063 0.68882 0.0
N1066 N 0.59844 0.71755 0.61526 0.0
C1067 C 0.60413 0.74762 0.63398 0.0
C1068 C 0.58838 0.74927 0.67391 0.0
C1069 C 0.12469 0.05489 0.66716 0.0
C1070 C 0.12184 1.02511 0.68993 0.0
C1071 C 0.10442 0.05726 0.62977 0.0
C1072 C 0.07998 1.03009 0.61385 0.0
H1073 H 0.14277 0.07653 0.67828 0.0
H1074 H 0.10913 0.08026 0.61274 0.0
S1075 S 0.05833 0.94773 0.66316 0.0
N1076 N 0.08984 0.96853 0.69465 0.0
N1077 N 0.05172 0.97334 0.62498 0.0
C1078 C 0.07551 1.00067 0.63693 0.0
C1079 C 0.0965 0.99805 0.6747 0.0
C1080 C 0.35126 0.50703 0.42656 0.0
C1081 C 0.37303 0.53526 0.44301 0.0
C1082 C 0.33045 0.50889 0.38935 0.0
C1083 C 0.3299 0.5392 0.36731 0.0
H1084 H 0.34938 0.48344 0.44292 0.0
H1085 H 0.31498 0.48632 0.37761 0.0
S1086 S 0.3843 0.61995 0.39621 0.0
N1087 N 0.39455 0.59394 0.43337 0.0
N1088 N 0.35466 0.5979 0.36445 0.0
C1089 C 0.35177 0.56758 0.38344 0.0
C1090 C 0.37367 0.56544 0.42086 0.0
C1091 C 0.84132 0.75511 0.4245 0.0
C1092 C 0.83671 0.78595 0.44483 0.0
C1093 C 0.86126 0.75358 0.3871 0.0
C1094 C 0.87705 0.7829 0.36789 0.0
H1095 H 0.83045 0.73162 0.438 0.0
H1096 H 0.86333 0.72914 0.37276 0.0
S1097 S 0.87304 0.8702 0.40795 0.0
N1098 N 0.85004 0.8467 0.44282 0.0
N1099 N 0.8865 0.84388 0.37206 0.0
C1100 C 0.87245 0.81401 0.38765 0.0
C1101 C 0.85238 0.81555 0.42604 0.0
C1102 C 0.36963 0.80714 0.88405 0.0
C1103 C 0.37621 0.77648 0.86372 0.0
C1104 C 0.35033 0.80777 0.92192 0.0
C1105 C 0.33607 0.77781 0.94077 0.0
H1106 H 0.37895 0.83094 0.87038 0.0
H1107 H 0.3472 0.8319 0.93679 0.0
S1108 S 0.34429 0.69087 0.89985 0.0
N1109 N 0.36649 0.71529 0.86551 0.0
N1110 N 0.3291 0.71664 0.93564 0.0
C1111 C 0.34183 0.74705 0.9205 0.0
C1112 C 0.36234 0.74632 0.88241 0.0
C1113 C 0.82349 0.56265 0.88703 0.0
C1114 C 0.83572 0.53482 0.86374 0.0
C1115 C 0.84068 0.56693 0.92518 0.0
C1116 C 0.87107 0.54364 0.9417 0.0
H1117 H 0.80078 0.58154 0.87555 0.0
H1118 H 0.82935 0.58852 0.94206 0.0
S1119 S 0.91564 0.46727 0.8925 0.0
N1120 N 0.8815 0.48401 0.85964 0.0
N1121 N 0.9133 0.49217 0.93155 0.0
C1122 C 0.8838 0.5158 0.91878 0.0
C1123 C 0.8663 0.51136 0.87979 0.0
C1124 C 0.61004 0.55632 0.67494 0.0
C1125 C 0.62028 0.52601 0.69514 0.0
C1126 C 0.59028 0.55603 0.63721 0.0
C1127 C 0.57935 0.52543 0.61826 0.0
H1128 H 0.61674 0.58054 0.68862 0.0
H1129 H 0.58422 0.58001 0.62251 0.0
S1130 S 0.59856 0.43897 0.65857 0.0
N1131 N 0.61797 0.46446 0.69298 0.0
N1132 N 0.5799 0.46394 0.62307 0.0
C1133 C 0.58897 0.49497 0.63836 0.0
C1134 C 0.60981 0.49525 0.67636 0.0
C1135 C 0.07472 0.25875 0.66831 0.0
C1136 C 0.08377 0.28752 0.69127 0.0
C1137 C 0.0928 0.25508 0.6302 0.0
C1138 C 0.1213 0.27979 0.61389 0.0
H1139 H 0.05341 0.23898 0.67982 0.0
H1140 H 0.08344 0.23312 0.61304 0.0
S1141 S 0.1603 0.35763 0.66384 0.0
N1142 N 0.12621 0.33988 0.6959 0.0
N1143 N 0.16039 0.33254 0.62496 0.0
C1144 C 0.1319 0.30798 0.63714 0.0
C1145 C 0.11307 0.31199 0.67557 0.0
C1146 C 0.61061 0.25885 0.13422 0.0
C1147 C 0.62556 0.28878 0.11573 0.0
C1148 C 0.58959 0.25957 0.17135 0.0
C1149 C 0.58205 0.29028 0.1913 0.0
H1150 H 0.61432 0.23468 0.11955 0.0
H1151 H 0.57964 0.2358 0.18473 0.0
S1152 S 0.61562 0.37581 0.15603 0.0
N1153 N 0.63241 0.34993 0.12092 0.0
N1154 N 0.59186 0.35149 0.18963 0.0
C1155 C 0.59679 0.3204 0.17303 0.0
C1156 C 0.61898 0.31957 0.13572 0.0
C1157 C 0.10833 0.49961 0.13121 0.0
C1158 C 0.08035 0.52496 0.11549 0.0
C1159 C 0.12774 0.50276 0.16867 0.0
C1160 C 0.11994 0.53131 0.1923 0.0
H1161 H 0.11633 0.47731 0.11407 0.0
H1162 H 0.14855 0.48235 0.17945 0.0
S1163 S 0.04743 0.60422 0.16585 0.0
N1164 N 0.04515 0.57929 0.12682 0.0
N1165 N 0.08063 0.58509 0.19771 0.0
C1166 C 0.0916 0.55678 0.17717 0.0
C1167 C 0.07205 0.55361 0.13875 0.0
C1168 C 0.29497 0.16451 0.17104 0.0
C1169 C 0.32875 0.18911 0.16892 0.0
C1170 C 0.29677 0.13476 0.14762 0.0
C1171 C 0.33266 0.12863 0.12183 0.0
H1172 H 0.26861 0.16721 0.1925 0.0
H1173 H 0.27118 0.11587 0.1512 0.0
S1174 S 0.4244 0.18876 0.10015 0.0
N1175 N 0.39533 0.20744 0.13509 0.0
N1176 N 0.39862 0.15276 0.09137 0.0
C1177 C 0.36425 0.15465 0.11728 0.0
C1178 C 0.36237 0.18449 0.14082 0.0
C1179 C 0.83569 0.135 0.14677 0.0
C1180 C 0.87276 0.12636 0.1697 0.0
C1181 C 0.83552 0.16354 0.12228 0.0
C1182 C 0.87236 0.18531 0.11945 0.0
H1183 H 0.80569 0.12 0.14852 0.0
H1184 H 0.80523 0.16905 0.10633 0.0
S1185 S -0.0202 0.17238 0.17061 0.0
N1186 N 0.94894 0.14039 0.18611 0.0
N1187 N 0.94874 0.19449 0.13957 0.0
C1188 C 0.91084 0.17608 0.14054 0.0
C1189 C 0.91103 0.14651 0.16573 0.0
C1190 C 0.57815 0.89248 0.89111 0.0
C1191 C 0.61811 0.87725 0.87939 0.0
C1192 C 0.57751 0.92173 0.91436 0.0
C1193 C 0.61678 0.93746 0.92723 0.0
H1194 H 0.54669 0.88154 0.88259 0.0
H1195 H 0.54549 0.93196 0.92253 0.0
S1196 S 0.73073 0.9088 0.90353 0.0
N1197 N 0.69854 0.88088 0.88131 0.0
N1198 N 0.69722 0.93597 0.92558 0.0
C1199 C 0.65725 0.92302 0.91524 0.0
C1200 C 0.65793 0.89291 0.89129 0.0
C1201 C 0.13324 0.89478 0.91729 0.0
C1202 C 0.09373 0.87842 0.92833 0.0
C1203 C 0.13325 0.92398 0.89393 0.0
C1204 C 0.09378 0.93871 0.87998 0.0
H1205 H 0.16508 0.88489 0.92658 0.0
H1206 H 0.16508 0.93499 0.88658 0.0
S1207 S -0.01944 0.90684 0.90086 0.0
N1208 N 0.0133 0.87976 0.92424 0.0
N1209 N 0.01339 0.93499 0.87949 0.0
C1210 C 0.05359 0.92314 0.89102 0.0
C1211 C 0.05356 0.89294 0.91525 0.0
C1212 C 0.30018 0.6681 0.67336 0.0
C1213 C 0.33488 0.69197 0.6716 0.0
C1214 C 0.30028 0.63903 0.6488 0.0
C1215 C 0.33512 0.63302 0.62191 0.0
H1216 H 0.27425 0.67089 0.69522 0.0
H1217 H 0.27409 0.62059 0.65215 0.0
S1218 S 0.42859 0.69182 0.60081 0.0
N1219 N 0.40126 0.70995 0.63723 0.0
N1220 N 0.40121 0.6567 0.59107 0.0
C1221 C 0.36768 0.65844 0.61786 0.0
C1222 C 0.36768 0.68749 0.64276 0.0
C1223 C 0.90975 0.67103 0.63625 0.0
C1224 C 0.87477 0.69473 0.63639 0.0
C1225 C 0.90774 0.64116 0.6597 0.0
C1226 C 0.87057 0.63406 0.6837 0.0
H1227 H 0.93752 0.6746 0.61643 0.0
H1228 H 0.93452 0.62302 0.65777 0.0
S1229 S 0.77441 0.69152 0.69958 0.0
N1230 N 0.80496 0.71107 0.66622 0.0
N1231 N 0.80128 0.65621 0.71003 0.0
C1232 C 0.83731 0.65909 0.6861 0.0
C1233 C 0.83936 0.68903 0.66247 0.0
C1234 C 0.57515 0.38887 0.39832 0.0
C1235 C 0.61463 0.37588 0.38238 0.0
C1236 C 0.57454 0.418 0.42152 0.0
C1237 C 0.61341 0.43609 0.43029 0.0
H1238 H 0.54374 0.37663 0.39249 0.0
H1239 H 0.54266 0.42653 0.43233 0.0
S1240 S 0.7265 0.41256 0.39715 0.0
N1241 N 0.69447 0.38296 0.3778 0.0
N1242 N 0.6934 0.43823 0.42201 0.0
C1243 C 0.65368 0.42326 0.41533 0.0
C1244 C 0.6543 0.39304 0.39138 0.0
C1245 C 0.05008 0.38742 0.40966 0.0
C1246 C 0.08777 0.3789 0.43242 0.0
C1247 C 0.04916 0.41708 0.38577 0.0
C1248 C 0.08577 0.43922 0.38423 0.0
H1249 H 0.02183 0.3706 0.40924 0.0
H1250 H 0.0207 0.42174 0.36703 0.0
S1251 S 0.18881 0.43208 0.4435 0.0
N1252 N 0.16 0.39809 0.45543 0.0
N1253 N 0.15803 0.45271 0.41117 0.0
C1254 C 0.12197 0.43216 0.40899 0.0
C1255 C 0.12302 0.40237 0.43295 0.0
C1256 C 0.80155 0.1394 0.65022 0.0
C1257 C 0.83549 0.13415 0.62221 0.0
C1258 C 0.80071 0.16887 0.67409 0.0
C1259 C 0.83352 0.19408 0.67028 0.0
H1260 H 0.77685 0.12005 0.65511 0.0
H1261 H 0.77592 0.17094 0.69708 0.0
S1262 S 0.92286 0.1965 0.59521 0.0
N1263 N 0.89788 0.15991 0.58778 0.0
N1264 N 0.89628 0.21425 0.63234 0.0
C1265 C 0.86491 0.19043 0.64005 0.0
C1266 C 0.86582 0.16082 0.61601 0.0
C1267 C 0.40776 0.16599 0.63246 0.0
C1268 C 0.37718 0.19246 0.63864 0.0
C1269 C 0.40711 0.13639 0.65632 0.0
C1270 C 0.37538 0.13219 0.68656 0.0
H1271 H 0.43042 0.16723 0.60769 0.0
H1272 H 0.42998 0.11617 0.64971 0.0
S1273 S 0.29605 0.19789 0.72053 0.0
N1274 N 0.32017 0.21495 0.6815 0.0
N1275 N 0.31868 0.16009 0.72577 0.0
C1276 C 0.34782 0.16001 0.69513 0.0
C1277 C 0.34867 0.18985 0.67121 0.0
C1278 C 0.15952 0.89585 0.38513 0.0
C1279 C 0.12557 0.87135 0.38686 0.0
C1280 C 0.15815 0.9252 0.40925 0.0
C1281 C 0.12261 0.93102 0.4355 0.0
H1282 H 0.18581 0.89332 0.36357 0.0
H1283 H 0.18391 0.94399 0.40601 0.0
S1284 S 0.0306 0.8708 0.45633 0.0
N1285 N 0.05924 0.85262 0.42074 0.0
N1286 N 0.0566 0.90661 0.4657 0.0
C1287 C 0.09073 0.90509 0.4395 0.0
C1288 C 0.09217 0.87564 0.41522 0.0
C1289 C 0.54958 0.88765 0.40894 0.0
C1290 C 0.58285 0.88243 0.43764 0.0
C1291 C 0.54989 0.91667 0.38409 0.0
C1292 C 0.5834 0.94137 0.38735 0.0
H1293 H 0.52453 0.86854 0.4043 0.0
H1294 H 0.5254 0.91875 0.36081 0.0
S1295 S 0.67197 0.9436 0.46316 0.0
N1296 N 0.64568 0.90768 0.47171 0.0
N1297 N 0.64642 0.96108 0.42512 0.0
C1298 C 0.61436 0.93773 0.41798 0.0
C1299 C 0.61399 0.90862 0.44315 0.0
C1300 C 0.88036 0.64449 0.14562 0.0
C1301 C 0.84039 0.63073 0.13161 0.0
C1302 C 0.88128 0.67323 0.16949 0.0
C1303 C 0.8423 0.69009 0.18089 0.0
H1304 H 0.91183 0.63305 0.13797 0.0
H1305 H 0.91342 0.6824 0.17884 0.0
S1306 S 0.72819 0.66402 0.15382 0.0
N1307 N 0.76012 0.63572 0.1318 0.0
N1308 N 0.76182 0.69018 0.1773 0.0
C1309 C 0.80166 0.67651 0.16781 0.0
C1310 C 0.80071 0.64673 0.14317 0.0
C1311 C 0.32588 0.63936 0.16199 0.0
C1312 C 0.36466 0.62439 0.17704 0.0
C1313 C 0.32715 0.66823 0.13809 0.0
C1314 C 0.3673 0.684 0.12768 0.0
H1315 H 0.29366 0.62878 0.1688 0.0
H1316 H 0.29578 0.67834 0.12788 0.0
S1317 S 0.47906 0.65481 0.15837 0.0
N1318 N 0.44509 0.62726 0.17937 0.0
N1319 N 0.44752 0.68195 0.1338 0.0
C1320 C 0.40677 0.6693 0.14203 0.0
C1321 C 0.40546 0.63939 0.16671 0.0
C1322 C 0.07588 0.42332 0.91304 0.0
C1323 C 0.11523 0.43828 0.92671 0.0
C1324 C 0.07615 0.39441 0.88948 0.0
C1325 C 0.11578 0.37854 0.87788 0.0
H1326 H 0.04391 0.43395 0.92067 0.0
H1327 H 0.04435 0.38438 0.88042 0.0
S1328 S 0.22874 0.40751 0.90472 0.0
N1329 N 0.19568 0.43513 0.92659 0.0
N1330 N 0.19622 0.38044 0.8814 0.0
C1331 C 0.15584 0.39317 0.89085 0.0
C1332 C 0.15556 0.4231 0.91532 0.0
C1333 C 0.54927 0.38722 0.9067 0.0
C1334 C 0.58093 0.38258 0.93693 0.0
C1335 C 0.54914 0.41688 0.88289 0.0
C1336 C 0.58042 0.44289 0.8889 0.0
H1337 H 0.52599 0.36731 0.90009 0.0
H1338 H 0.52623 0.41856 0.85833 0.0
S1339 S 0.66238 0.44695 0.97026 0.0
N1340 N 0.63864 0.40963 0.97578 0.0
N1341 N 0.63848 0.46433 0.9313 0.0
C1342 C 0.60917 0.43977 0.92124 0.0
C1343 C 0.60929 0.40998 0.94528 0.0
C1344 C 0.18853 0.05875 0.99763 0.0
C1345 C 0.22503 0.03679 0.99998 0.0
C1346 C 0.16346 0.06125 0.9627 0.0
C1347 C 0.17443 0.0423 0.9288 0.0
H1348 H 0.17957 0.07432 1.02268 0.0
H1349 H 0.13478 0.07778 0.96234 0.0
S1350 S 0.26338 0.9782 0.92112 0.0
N1351 N 0.26856 0.99362 0.96616 0.0
N1352 N 0.22188 0.99916 0.90074 0.0
C1353 C 0.21052 1.02016 0.93083 0.0
C1354 C 0.23563 1.01715 0.96639 0.0
C1355 C -0.00537 0.27543 0.92802 0.0
C1356 C 0.04043 0.27117 0.93254 0.0
C1357 C 0.96649 0.27565 0.96098 0.0
C1358 C -0.01721 0.27153 0.99997 0.0
H1359 H -0.0195 0.27989 0.89903 0.0
H1360 H 0.93156 0.27981 0.9556 0.0
S1361 S 0.09974 0.25527 1.02749 0.0
N1362 N 0.10059 0.25941 0.97895 0.0
N1363 N 0.04749 0.26031 0.04056 0.0
C1364 C 0.02826 0.26561 1.00474 0.0
C1365 C 0.05705 0.2653 0.97117 0.0
C1366 C 0.18188 0.25075 0.30777 0.0
C1367 C 0.21818 0.27279 0.30482 0.0
C1368 C 0.15606 0.24969 0.34231 0.0
C1369 C 0.16616 0.27025 0.37505 0.0
H1370 H 0.1737 0.23403 0.28354 0.0
H1371 H 0.12763 0.23297 0.34329 0.0
S1372 S 0.25334 0.33577 0.37993 0.0
N1373 N 0.26008 0.31805 0.33622 0.0
N1374 N 0.21185 0.31537 0.40099 0.0
C1375 C 0.20178 0.2927 0.37223 0.0
C1376 C 0.22769 0.29415 0.33709 0.0
C1377 C 0.97439 0.0594 0.34004 0.0
C1378 C -0.01352 0.0457 0.30305 0.0
C1379 C 0.00054 0.05421 0.37392 0.0
C1380 C 0.03947 0.03478 0.37208 0.0
H1381 H 0.94423 0.07409 0.34291 0.0
H1382 H -0.00954 0.06578 0.40147 0.0
S1383 S 0.08247 0.98991 0.28322 0.0
N1384 N 0.03811 1.01017 0.26729 0.0
N1385 N 0.08668 0.9994 0.33051 0.0
C1386 C 0.05115 1.0202 0.33533 0.0
C1387 C 0.02492 1.026 0.30092 0.0
C1388 C 0.80122 0.03712 0.08667 0.0
C1389 C 0.79001 1.02284 0.12373 0.0
C1390 C 0.77487 1.03226 0.05313 0.0
C1391 C 0.7359 1.01312 0.05514 0.0
H1392 H 0.83046 0.05278 0.08346 0.0
H1393 H 0.78418 0.04483 1.02586 0.0
S1394 S 0.69423 0.96674 0.1433 0.0
N1395 N 0.73904 0.98631 0.15932 0.0
N1396 N 0.68888 0.97747 0.0963 0.0
C1397 C 0.72475 0.99785 0.0916 0.0
C1398 C 0.75183 1.00271 0.12588 0.0
C1399 C -0.00801 0.79077 0.09565 0.0
C1400 C 0.97551 0.79912 0.05759 0.0
C1401 C 0.96482 0.79083 0.12922 0.0
C1402 C 0.9198 0.79881 0.12624 0.0
H1403 H 0.02603 0.78304 0.09964 0.0
H1404 H -0.02114 0.78304 0.15735 0.0
S1405 S 0.86055 0.82573 0.03474 0.0
N1406 N 0.91161 0.81795 1.01986 0.0
N1407 N 0.86029 0.81807 0.08273 0.0
C1408 C 0.90305 0.80855 0.08873 0.0
C1409 C 0.9309 0.80857 0.05454 0.0
C1410 C 0.75966 0.80973 0.68638 0.0
C1411 C 0.80106 0.7936 0.68838 0.0
C1412 C 0.73255 0.81228 0.72003 0.0
C1413 C 0.74577 0.79889 0.75703 0.0
H1414 H 0.74807 0.82042 0.65872 0.0
H1415 H 0.7006 0.82449 0.7169 0.0
S1416 S 0.84937 0.75202 0.77782 0.0
N1417 N 0.85293 0.76253 0.73073 0.0
N1418 N 0.80195 0.7679 0.79322 0.0
C1419 C 0.78701 0.78291 0.75953 0.0
C1420 C 0.81455 0.78005 0.72542 0.0
C1421 C 0.96474 1.03054 0.67897 0.0
C1422 C 0.91969 1.0228 0.68218 0.0
C1423 C -0.00778 1.02999 0.71235 0.0
C1424 C 0.97612 1.02116 0.75037 0.0
H1425 H -0.02144 0.03847 0.65087 0.0
H1426 H 0.02632 0.03753 0.7082 0.0
S1427 S 0.86104 0.99551 0.77381 0.0
N1428 N 0.86037 1.0037 0.72594 0.0
N1429 N 0.91238 1.0026 0.78836 0.0
C1430 C 0.93138 1.01219 0.75369 0.0
C1431 C 0.90321 1.01289 0.7197 0.0
C1432 C 0.23364 0.55913 0.46472 0.0
C1433 C 0.22083 0.5468 0.50231 0.0
C1434 C 0.20655 0.55492 0.43122 0.0
C1435 C 0.16584 0.53789 0.434 0.0
H1436 H 0.26507 0.57199 0.46106 0.0
H1437 H 0.21743 0.56527 0.40317 0.0
S1438 S 0.12001 0.49704 0.5248 0.0
N1439 N 0.16642 0.51491 0.53959 0.0
N1440 N 0.116 0.50609 0.47733 0.0
C1441 C 0.15334 0.52469 0.47141 0.0
C1442 C 0.18061 0.52943 0.50537 0.0
C1443 C 0.00022 0.7741 0.42928 0.0
C1444 C 0.04553 0.76692 0.43281 0.0
C1445 C 0.97265 0.77416 0.46265 0.0
C1446 C -0.01082 0.76703 0.50097 0.0
H1447 H -0.01374 0.78115 0.40092 0.0
H1448 H 0.93824 0.78096 0.45828 0.0
S1449 S 0.10453 0.74226 0.52528 0.0
N1450 N 0.10501 0.74903 0.47714 0.0
N1451 N 0.0532 0.74973 0.53956 0.0
C1452 C 0.03402 0.75824 0.50456 0.0
C1453 C 0.06209 0.75798 0.47058 0.0
C1454 C 0.2406 0.77012 0.84563 0.0
C1455 C 0.2232 0.76519 0.80718 0.0
C1456 C 0.21329 0.77095 0.87911 0.0
C1457 C 0.16738 0.76692 0.87557 0.0
H1458 H 0.27561 0.77456 0.85008 0.0
H1459 H 0.22807 0.77627 0.90759 0.0
S1460 S 0.10555 0.74836 0.78281 0.0
N1461 N 0.15744 0.75294 0.76846 0.0
N1462 N 0.10602 0.75384 0.83111 0.0
C1463 C 0.14977 0.75987 0.83768 0.0
C1464 C 0.17762 0.75922 0.80358 0.0
C1465 C 0.04962 0.52913 0.83718 0.0
C1466 C 0.03754 0.54374 0.87376 0.0
C1467 C 0.02391 0.53356 0.80308 0.0
C1468 C -0.0152 0.55263 0.80404 0.0
H1469 H 0.07906 0.51354 0.83477 0.0
H1470 H 0.03384 0.52073 0.77625 0.0
S1471 S 0.94083 0.59962 0.89061 0.0
N1472 N -0.01456 0.5803 0.90776 0.0
N1473 N 0.93672 0.58857 0.84373 0.0
C1474 C 0.97283 0.56825 0.84002 0.0
C1475 C -0.00084 0.56374 0.87485 0.0
C1476 C 0.71543 0.52078 0.59537 0.0
C1477 C 0.73158 0.51691 0.5563 0.0
C1478 C 0.744 0.52308 0.62796 0.0
C1479 C 0.79005 0.52165 0.62302 0.0
H1480 H 0.68027 0.52297 0.60106 0.0
H1481 H 0.72985 0.52713 0.65699 0.0
S1482 S 0.84948 0.50704 0.52796 0.0
N1483 N 0.79672 0.50869 0.5154 0.0
N1484 N 0.85055 0.5124 0.57627 0.0
C1485 C 0.80666 0.51592 0.58441 0.0
C1486 C 0.77748 0.51371 0.55122 0.0
C1487 C -0.01335 0.29774 0.5926 0.0
C1488 C 0.96962 0.30088 0.5537 0.0
C1489 C 0.959 0.29701 0.62587 0.0
C1490 C 0.91299 0.29967 0.62185 0.0
H1491 H 0.02181 0.29485 0.59769 0.0
H1492 H 0.9738 0.2931 0.6547 0.0
S1493 S 0.85167 0.31372 0.52742 0.0
N1494 N 0.90391 0.31 0.5138 0.0
N1495 N 0.85169 0.3097 0.57597 0.0
C1496 C 0.89556 0.30499 0.58334 0.0
C1497 C 0.92385 0.30533 0.54942 0.0
C1498 C 0.71924 0.30781 0.21449 0.0
C1499 C 0.73199 0.29388 0.25136 0.0
C1500 C 0.74482 0.30297 0.18023 0.0
C1501 C 0.78393 0.28376 0.18154 0.0
H1502 H 0.68904 0.32251 0.21204 0.0
H1503 H 0.73432 0.31484 0.15287 0.0
S1504 S 0.82905 0.23862 0.26972 0.0
N1505 N 0.78464 0.25836 0.28632 0.0
N1506 N 0.8323 0.24846 0.22238 0.0
C1507 C 0.79633 0.26894 0.21809 0.0
C1508 C 0.77062 0.2743 0.25289 0.0
C1509 C 0.953 0.50464 0.18298 0.0
C1510 C 0.91952 0.52934 0.1818 0.0
C1511 C -0.0212 0.49998 0.21726 0.0
C1512 C 0.97133 0.51944 0.25156 0.0
H1513 H 0.95864 0.48841 0.15773 0.0
H1514 H 0.00475 0.481 0.21699 0.0
S1515 S 0.89328 0.59133 0.26086 0.0
N1516 N 0.88437 0.57639 0.2161 0.0
N1517 N 0.93192 0.56684 0.28033 0.0
C1518 C 0.93907 0.5449 0.25012 0.0
C1519 C 0.91348 0.55007 0.21526 0.0
C1520 C 0.73922 0.04586 0.46274 0.0
C1521 C 0.72286 0.04884 0.50183 0.0
C1522 C 0.71084 0.04449 0.42993 0.0
C1523 C 0.66474 0.04607 0.43461 0.0
H1524 H 0.77441 0.04378 0.45716 0.0
H1525 H 0.72522 0.04115 0.40086 0.0
S1526 S 0.60478 0.05769 0.53003 0.0
N1527 N 0.65747 0.05574 0.54272 0.0
N1528 N 0.60399 0.0538 0.48152 0.0
C1529 C 0.64791 0.05061 0.47339 0.0
C1530 C 0.67692 0.05181 0.5068 0.0
C1531 C 0.52073 0.25438 0.49915 0.0
C1532 C 0.48506 0.27703 0.50225 0.0
C1533 C 0.54557 0.25235 0.46405 0.0
C1534 C 0.53509 0.27245 0.43074 0.0
H1535 H 0.52906 0.23782 0.52366 0.0
H1536 H 0.57358 0.23519 0.46305 0.0
S1537 S 0.44903 0.33905 0.42574 0.0
N1538 N 0.44332 0.32231 0.47023 0.0
N1539 N 0.48942 0.31766 0.4044 0.0
C1540 C 0.50001 0.29545 0.43371 0.0
C1541 C 0.47522 0.29797 0.46945 0.0
C1542 C 0.73475 0.25855 0.84213 0.0
C1543 C 0.72185 0.27248 0.80533 0.0
C1544 C 0.70841 0.26241 0.87613 0.0
C1545 C 0.66855 0.28075 0.87458 0.0
H1546 H 0.76551 0.24455 0.8447 0.0
H1547 H 0.71901 0.25061 0.90349 0.0
S1548 S 0.62354 0.3263 0.78655 0.0
N1549 N 0.66866 0.30741 0.77024 0.0
N1550 N 0.61991 0.31586 0.83367 0.0
C1551 C 0.65628 0.29582 0.83812 0.0
C1552 C 0.68263 0.29131 0.8036 0.0
C1553 C 0.47422 0.06096 0.84121 0.0
C1554 C 0.48582 0.04637 0.80452 0.0
C1555 C 0.50147 0.05743 0.87478 0.0
C1556 C 0.5411 0.03881 0.87302 0.0
H1557 H 0.44359 0.07506 0.8441 0.0
H1558 H 0.49157 0.06951 0.90208 0.0
S1559 S 0.58324 0.99188 0.78518 0.0
N1560 N 0.53784 1.01078 0.76934 0.0
N1561 N 0.58832 1.003 0.83189 0.0
C1562 C 0.55229 1.02332 0.83661 0.0
C1563 C 0.52496 1.02746 0.80251 0.0
C1564 C 0.27249 0.03592 0.55421 0.0
C1565 C 0.23423 1.0159 0.55551 0.0
C1566 C 0.29877 0.04037 0.58793 0.0
C1567 C 0.28809 1.02486 0.62446 0.0
H1568 H 0.28138 0.0493 0.52735 0.0
H1569 H 0.3276 0.05654 0.58529 0.0
S1570 S 0.19436 0.96625 0.64191 0.0
N1571 N 0.18861 0.97814 0.59534 0.0
N1572 N 0.23836 0.98641 0.65866 0.0
C1573 C 0.25055 1.00399 0.62586 0.0
C1574 C 0.22365 0.99947 0.59142 0.0
C1575 C 0.3993 0.78315 0.58433 0.0
C1576 C 0.41268 0.7954 0.62176 0.0
C1577 C 0.42642 0.78621 0.55089 0.0
C1578 C 0.46802 0.80169 0.55346 0.0
H1579 H 0.36806 0.77004 0.58083 0.0
H1580 H 0.41559 0.77493 0.5234 0.0
S1581 S 0.51585 0.84271 0.64246 0.0
N1582 N 0.46846 0.8267 0.65801 0.0
N1583 N 0.51951 0.83274 0.59523 0.0
C1584 C 0.48092 0.81561 0.59009 0.0
C1585 C 0.45333 0.81234 0.6242 0.0
C1586 C 0.30418 0.77325 0.21915 0.0
C1587 C 0.29346 0.78901 0.18277 0.0
C1588 C 0.27815 0.77768 0.25295 0.0
C1589 C 0.23996 0.79783 0.25188 0.0
H1590 H 0.33282 0.75681 0.22164 0.0
H1591 H 0.28707 0.76405 0.27965 0.0
S1592 S 0.19979 0.84792 0.16586 0.0
N1593 N 0.24385 0.82786 0.14894 0.0
N1594 N 0.19416 0.83583 0.21238 0.0
C1595 C 0.22928 0.8145 0.21612 0.0
C1596 C 0.25609 0.81011 0.18161 0.0
C1597 C 0.48959 1.02615 0.21299 0.0
C1598 C 0.47311 1.01751 0.25089 0.0
C1599 C 0.46261 1.0258 0.1793 0.0
C1600 C 0.41775 1.01728 0.18217 0.0
H1601 H 0.5235 0.03433 0.20922 0.0
H1602 H 0.47654 0.03376 0.15127 0.0
S1603 S 0.35841 0.99016 0.27342 0.0
N1604 N 0.40931 0.99827 0.28844 0.0
N1605 N 0.3583 0.99767 0.22541 0.0
C1606 C 0.40099 1.00748 0.21956 0.0
C1607 C 0.42861 1.00771 0.25384 0.0
C1608 C 0.65485 0.56271 0.96901 0.0
C1609 C 0.66692 0.54625 0.93364 0.0
C1610 C 0.68202 0.56147 1.00279 0.0
C1611 C 0.72173 0.54291 1.00277 0.0
H1612 H 0.62378 0.57632 0.97078 0.0
H1613 H 0.6719 0.5752 1.02894 0.0
S1614 S 0.76323 0.48951 0.92009 0.0
N1615 N 0.71876 0.50823 0.90194 0.0
N1616 N 0.76855 0.50394 0.96553 0.0
C1617 C 0.73313 0.52516 0.96791 0.0
C1618 C 0.70617 0.52738 0.93331 0.0
C1619 C 0.50242 0.76741 0.93015 0.0
C1620 C 0.54844 0.76706 0.93542 0.0
C1621 C 0.47372 0.76493 0.96268 0.0
C1622 C 0.48979 0.76184 1.00192 0.0
H1623 H 0.48842 0.77111 0.90096 0.0
H1624 H 0.43852 0.76655 0.95683 0.0
S1625 S 0.60799 0.75391 0.03055 0.0
N1626 N 0.60904 0.75919 0.98215 0.0
N1627 N 0.55515 0.7547 0.04307 0.0
C1628 C 0.53581 0.75927 1.00717 0.0
C1629 C 0.56505 0.76185 0.97403 0.0
C1630 C 0.71387 0.78241 0.37885 0.0
C1631 C 0.66875 0.77491 0.37538 0.0
C1632 C 0.74176 0.7812 0.34576 0.0
C1633 C 0.7258 0.77224 0.3078 0.0
H1634 H 0.72747 0.79039 0.40694 0.0
H1635 H 0.77609 0.78817 0.35011 0.0
S1636 S 0.6111 0.74584 0.28419 0.0
N1637 N 0.60993 0.75489 0.33175 0.0
N1638 N 0.66249 0.75299 0.26984 0.0
C1639 C 0.68109 0.76327 0.30435 0.0
C1640 C 0.65262 0.76444 0.33804 0.0
C1641 C 0.46234 0.53788 0.34708 0.0
C1642 C 0.47859 0.54571 0.30881 0.0
C1643 C 0.48979 0.53808 0.38051 0.0
C1644 C 0.53485 0.54585 0.37713 0.0
H1645 H 0.42821 0.53043 0.35137 0.0
H1646 H 0.47602 0.53056 0.40878 0.0
S1647 S 0.59344 0.57182 0.28501 0.0
N1648 N 0.54224 0.56405 0.27051 0.0
N1649 N 0.59403 0.5646 0.33309 0.0
C1650 C 0.55127 0.55524 0.33944 0.0
C1651 C 0.52321 0.55502 0.30538 0.0
C1652 C 0.29372 0.50249 0.09376 0.0
C1653 C 0.28263 0.52143 0.12765 0.0
C1654 C 0.26769 0.5039 0.05926 0.0
C1655 C 0.22998 0.5247 0.05731 0.0
H1656 H 0.32306 0.48665 0.09384 0.0
H1657 H 0.27687 0.48838 0.03424 0.0
S1658 S 0.19113 0.58338 0.13592 0.0
N1659 N 0.23395 0.5637 0.15585 0.0
N1660 N 0.18549 0.56721 0.09129 0.0
C1661 C 0.21938 0.54449 0.09079 0.0
C1662 C 0.2455 0.54261 0.12591 0.0
C1663 C 0.45543 0.30113 0.12699 0.0
C1664 C 0.41158 0.28997 0.12215 0.0
C1665 C 0.48437 0.30362 0.0945 0.0
C1666 C 0.47064 0.29516 0.05581 0.0
H1667 H 0.46763 0.30784 0.15602 0.0
H1668 H 0.51799 0.31199 0.09992 0.0
S1669 S 0.3603 0.26263 1.02703 0.0
N1670 N 0.35655 0.26914 0.07499 0.0
N1671 N 0.41093 0.27412 1.01488 0.0
C1672 C 0.42702 0.28408 0.05052 0.0
C1673 C 0.39758 0.28138 0.08339 0.0
C1674 C 0.29807 0.31558 0.71381 0.0
C1675 C 0.28706 0.29678 0.67979 0.0
C1676 C 0.27142 0.31464 0.74794 0.0
C1677 C 0.23326 0.29437 0.74939 0.0
H1678 H 0.3279 0.33081 0.71418 0.0
H1679 H 0.28062 0.32993 0.77315 0.0
S1680 S 0.19471 0.23587 0.67065 0.0
N1681 N 0.23768 0.25539 0.65093 0.0
N1682 N 0.18874 0.25219 0.71514 0.0
C1683 C 0.22268 0.2748 0.71579 0.0
C1684 C 0.24916 0.27645 0.68093 0.0
C1685 C 0.48099 0.50762 0.71886 0.0
C1686 C 0.46861 0.52241 0.75524 0.0
C1687 C 0.45494 0.51159 0.68466 0.0
C1688 C 0.41585 0.53086 0.6855 0.0
H1689 H 0.51127 0.49298 0.71675 0.0
H1690 H 0.46521 0.49918 0.65766 0.0
S1691 S 0.37219 0.57842 0.77224 0.0
N1692 N 0.41656 0.55881 0.78922 0.0
N1693 N 0.3683 0.56744 0.72539 0.0
C1694 C 0.40395 0.54659 0.72159 0.0
C1695 C 0.43003 0.54199 0.75634 0.0
loop_
_geom_bond_atom_site_label_1
_geom_bond_atom_site_label_2
_geom_bond_distance
_geom_bond_site_symmetry_2
_ccdc_geom_bond_type
Dy0 O4 2.398 1_554 S
Dy0 O5 2.491 1_544 S
Dy0 O6 2.403 . S
Dy0 O7 2.664 . S
Dy0 O11 2.326 . S
Dy0 O15 2.310 1_545 S
Dy0 O16 2.351 . S
C1 O12 1.185 . S
C1 O13 1.355 1_565 S
C2 O4 1.185 . S
C2 O5 1.355 1_545 S
Dy3 O7 2.310 1_565 S
Dy3 O10 2.351 . S
Dy3 O12 2.398 . S
Dy3 O13 2.491 1_565 S
Dy3 O14 2.403 . S
Dy3 O15 2.664 . S
Dy3 O17 2.326 . S
O4 Dy0 2.398 1_556 S
O4 C2 1.185 . S
O5 Dy0 2.491 1_566 S
O5 C2 1.355 1_565 S
O6 Dy0 2.403 . S
O6 C8 1.254 . S
O7 Dy0 2.664 . S
O7 Dy3 2.310 1_545 S
O7 C8 1.268 . S
C8 O6 1.254 . S
C8 O7 1.268 . S
C9 O14 1.254 . S
C9 O15 1.268 . S
O10 Dy3 2.351 . S
O10 C18 1.249 1_565 S
O11 Dy0 2.326 . S
O11 C18 1.267 . S
O12 C1 1.185 . S
O12 Dy3 2.398 . S
O13 C1 1.355 1_545 S
O13 Dy3 2.491 1_545 S
O14 Dy3 2.403 . S
O14 C9 1.254 . S
O15 Dy0 2.310 1_565 S
O15 Dy3 2.664 . S
O15 C9 1.268 . S
O16 Dy0 2.351 . S
O16 C19 1.249 . S
O17 Dy3 2.326 . S
O17 C19 1.267 1_565 S
C18 O10 1.249 1_545 S
C18 O11 1.267 . S
C19 O16 1.249 . S
C19 O17 1.267 1_545 S
Dy20 O24 2.398 1_554 S
Dy20 O25 2.491 1_554 S
Dy20 O26 2.403 . S
Dy20 O27 2.664 . S
Dy20 O31 2.326 . S
Dy20 O35 2.310 . S
Dy20 O36 2.351 . S
C21 O32 1.185 . S
C21 O33 1.355 . S
C22 O24 1.185 . S
C22 O25 1.355 . S
Dy23 O27 2.310 . S
Dy23 O30 2.351 . S
Dy23 O32 2.398 . S
Dy23 O33 2.491 . S
Dy23 O34 2.403 . S
Dy23 O35 2.664 . S
Dy23 O37 2.326 . S
O24 Dy20 2.398 1_556 S
O24 C22 1.185 . S
O25 Dy20 2.491 1_556 S
O25 C22 1.355 . S
O26 Dy20 2.403 . S
O26 C28 1.254 . S
O27 Dy20 2.664 . S
O27 Dy23 2.310 . S
O27 C28 1.268 . S
C28 O26 1.254 . S
C28 O27 1.268 . S
C29 O34 1.254 . S
C29 O35 1.268 . S
O30 Dy23 2.351 . S
O30 C38 1.249 . S
O31 Dy20 2.326 . S
O31 C38 1.267 . S
O32 C21 1.185 . S
O32 Dy23 2.398 . S
O33 C21 1.355 . S
O33 Dy23 2.491 . S
O34 Dy23 2.403 . S
O34 C29 1.254 . S
O35 Dy20 2.310 . S
O35 Dy23 2.664 . S
O35 C29 1.268 . S
O36 Dy20 2.351 . S
O36 C39 1.249 . S
O37 Dy23 2.326 . S
O37 C39 1.267 . S
C38 O30 1.249 . S
C38 O31 1.267 . S
C39 O36 1.249 . S
C39 O37 1.267 . S
Dy40 O44 2.398 . S
Dy40 O45 2.491 . S
Dy40 O46 2.403 . S
Dy40 O47 2.664 . S
Dy40 O51 2.326 . S
Dy40 O55 2.310 . S
Dy40 O56 2.351 . S
C41 O52 1.185 . S
C41 O53 1.355 . S
C42 O44 1.185 . S
C42 O45 1.355 . S
Dy43 O47 2.310 . S
Dy43 O50 2.351 . S
Dy43 O52 2.398 . S
Dy43 O53 2.491 . S
Dy43 O54 2.403 . S
Dy43 O55 2.664 . S
Dy43 O57 2.326 . S
O44 Dy40 2.398 . S
O44 C42 1.185 . S
O45 Dy40 2.491 . S
O45 C42 1.355 . S
O46 Dy40 2.403 . S
O46 C48 1.254 . S
O47 Dy40 2.664 . S
O47 Dy43 2.310 . S
O47 C48 1.268 . S
C48 O46 1.254 . S
C48 O47 1.268 . S
C49 O54 1.254 . S
C49 O55 1.268 . S
O50 Dy43 2.351 . S
O50 C58 1.249 . S
O51 Dy40 2.326 . S
O51 C58 1.267 . S
O52 C41 1.185 . S
O52 Dy43 2.398 . S
O53 C41 1.355 . S
O53 Dy43 2.491 . S
O54 Dy43 2.403 . S
O54 C49 1.254 . S
O55 Dy40 2.310 . S
O55 Dy43 2.664 . S
O55 C49 1.268 . S
O56 Dy40 2.351 . S
O56 C59 1.249 . S
O57 Dy43 2.326 . S
O57 C59 1.267 . S
C58 O50 1.249 . S
C58 O51 1.267 . S
C59 O56 1.249 . S
C59 O57 1.267 . S
Dy60 O64 2.398 . S
Dy60 O65 2.491 1_545 S
Dy60 O66 2.403 . S
Dy60 O67 2.664 . S
Dy60 O71 2.326 . S
Dy60 O75 2.310 1_545 S
Dy60 O76 2.351 . S
C61 O72 1.185 . S
C61 O73 1.355 1_565 S
C62 O64 1.185 . S
C62 O65 1.355 1_545 S
Dy63 O67 2.310 1_565 S
Dy63 O70 2.351 . S
Dy63 O72 2.398 . S
Dy63 O73 2.491 1_565 S
Dy63 O74 2.403 . S
Dy63 O75 2.664 . S
Dy63 O77 2.326 . S
O64 Dy60 2.398 . S
O64 C62 1.185 . S
O65 Dy60 2.491 1_565 S
O65 C62 1.355 1_565 S
O66 Dy60 2.403 . S
O66 C68 1.254 . S
O67 Dy60 2.664 . S
O67 Dy63 2.310 1_545 S
O67 C68 1.268 . S
C68 O66 1.254 . S
C68 O67 1.268 . S
C69 O74 1.254 . S
C69 O75 1.268 . S
O70 Dy63 2.351 . S
O70 C78 1.249 1_565 S
O71 Dy60 2.326 . S
O71 C78 1.267 . S
O72 C61 1.185 . S
O72 Dy63 2.398 . S
O73 C61 1.355 1_545 S
O73 Dy63 2.491 1_545 S
O74 Dy63 2.403 . S
O74 C69 1.254 . S
O75 Dy60 2.310 1_565 S
O75 Dy63 2.664 . S
O75 C69 1.268 . S
O76 Dy60 2.351 . S
O76 C79 1.249 . S
O77 Dy63 2.326 . S
O77 C79 1.267 1_565 S
C78 O70 1.249 1_545 S
C78 O71 1.267 . S
C79 O76 1.249 . S
C79 O77 1.267 1_545 S
Dy80 O84 2.398 . S
Dy80 O85 2.491 1_545 S
Dy80 O86 2.403 . S
Dy80 O87 2.664 . S
Dy80 O91 2.326 . S
Dy80 O95 2.310 1_545 S
Dy80 O96 2.351 . S
C81 O92 1.185 . S
C81 O93 1.355 1_565 S
C82 O84 1.185 . S
C82 O85 1.355 1_545 S
Dy83 O87 2.310 1_565 S
Dy83 O90 2.351 . S
Dy83 O92 2.398 1_556 S
Dy83 O93 2.491 1_566 S
Dy83 O94 2.403 . S
Dy83 O95 2.664 . S
Dy83 O97 2.326 . S
O84 Dy80 2.398 . S
O84 C82 1.185 . S
O85 Dy80 2.491 1_565 S
O85 C82 1.355 1_565 S
O86 Dy80 2.403 . S
O86 C88 1.254 . S
O87 Dy80 2.664 . S
O87 Dy83 2.310 1_545 S
O87 C88 1.268 . S
C88 O86 1.254 . S
C88 O87 1.268 . S
C89 O94 1.254 . S
C89 O95 1.268 . S
O90 Dy83 2.351 . S
O90 C98 1.249 . S
O91 Dy80 2.326 . S
O91 C98 1.267 1_545 S
O92 C81 1.185 . S
O92 Dy83 2.398 1_554 S
O93 C81 1.355 1_545 S
O93 Dy83 2.491 1_544 S
O94 Dy83 2.403 . S
O94 C89 1.254 . S
O95 Dy80 2.310 1_565 S
O95 Dy83 2.664 . S
O95 C89 1.268 . S
O96 Dy80 2.351 . S
O96 C99 1.249 1_545 S
O97 Dy83 2.326 . S
O97 C99 1.267 . S
C98 O90 1.249 . S
C98 O91 1.267 1_565 S
C99 O96 1.249 1_565 S
C99 O97 1.267 . S
Dy100 O104 2.398 . S
Dy100 O105 2.491 . S
Dy100 O106 2.403 . S
Dy100 O107 2.664 . S
Dy100 O111 2.326 . S
Dy100 O115 2.310 . S
Dy100 O116 2.351 . S
C101 O112 1.185 . S
C101 O113 1.355 . S
C102 O104 1.185 . S
C102 O105 1.355 . S
Dy103 O107 2.310 . S
Dy103 O110 2.351 . S
Dy103 O112 2.398 1_556 S
Dy103 O113 2.491 1_556 S
Dy103 O114 2.403 . S
Dy103 O115 2.664 . S
Dy103 O117 2.326 . S
O104 Dy100 2.398 . S
O104 C102 1.185 . S
O105 Dy100 2.491 . S
O105 C102 1.355 . S
O106 Dy100 2.403 . S
O106 C108 1.254 . S
O107 Dy100 2.664 . S
O107 Dy103 2.310 . S
O107 C108 1.268 . S
C108 O106 1.254 . S
C108 O107 1.268 . S
C109 O114 1.254 . S
C109 O115 1.268 . S
O110 Dy103 2.351 . S
O110 C118 1.249 . S
O111 Dy100 2.326 . S
O111 C118 1.267 . S
O112 C101 1.185 . S
O112 Dy103 2.398 1_554 S
O113 C101 1.355 . S
O113 Dy103 2.491 1_554 S
O114 Dy103 2.403 . S
O114 C109 1.254 . S
O115 Dy100 2.310 . S
O115 Dy103 2.664 . S
O115 C109 1.268 . S
O116 Dy100 2.351 . S
O116 C119 1.249 . S
O117 Dy103 2.326 . S
O117 C119 1.267 . S
C118 O110 1.249 . S
C118 O111 1.267 . S
C119 O116 1.249 . S
C119 O117 1.267 . S
Dy120 O124 2.398 . S
Dy120 O125 2.491 . S
Dy120 O126 2.403 . S
Dy120 O127 2.664 . S
Dy120 O131 2.326 . S
Dy120 O135 2.310 . S
Dy120 O136 2.351 . S
C121 O132 1.185 . S
C121 O133 1.355 . S
C122 O124 1.185 . S
C122 O125 1.355 . S
Dy123 O127 2.310 . S
Dy123 O130 2.351 . S
Dy123 O132 2.398 . S
Dy123 O133 2.491 . S
Dy123 O134 2.403 . S
Dy123 O135 2.664 . S
Dy123 O137 2.326 . S
O124 Dy120 2.398 . S
O124 C122 1.185 . S
O125 Dy120 2.491 . S
O125 C122 1.355 . S
O126 Dy120 2.403 . S
O126 C128 1.254 . S
O127 Dy120 2.664 . S
O127 Dy123 2.310 . S
O127 C128 1.268 . S
C128 O126 1.254 . S
C128 O127 1.268 . S
C129 O134 1.254 . S
C129 O135 1.268 . S
O130 Dy123 2.351 . S
O130 C138 1.249 . S
O131 Dy120 2.326 . S
O131 C138 1.267 . S
O132 C121 1.185 . S
O132 Dy123 2.398 . S
O133 C121 1.355 . S
O133 Dy123 2.491 . S
O134 Dy123 2.403 . S
O134 C129 1.254 . S
O135 Dy120 2.310 . S
O135 Dy123 2.664 . S
O135 C129 1.268 . S
O136 Dy120 2.351 . S
O136 C139 1.249 . S
O137 Dy123 2.326 . S
O137 C139 1.267 . S
C138 O130 1.249 . S
C138 O131 1.267 . S
C139 O136 1.249 . S
C139 O137 1.267 . S
Dy140 O144 2.398 . S
Dy140 O145 2.491 1_545 S
Dy140 O146 2.403 . S
Dy140 O147 2.664 . S
Dy140 O151 2.326 . S
Dy140 O155 2.310 1_545 S
Dy140 O156 2.351 . S
C141 O152 1.185 . S
C141 O153 1.355 1_565 S
C142 O144 1.185 . S
C142 O145 1.355 1_545 S
Dy143 O147 2.310 1_565 S
Dy143 O150 2.351 . S
Dy143 O152 2.398 . S
Dy143 O153 2.491 1_565 S
Dy143 O154 2.403 . S
Dy143 O155 2.664 . S
Dy143 O157 2.326 . S
O144 Dy140 2.398 . S
O144 C142 1.185 . S
O145 Dy140 2.491 1_565 S
O145 C142 1.355 1_565 S
O146 Dy140 2.403 . S
O146 C148 1.254 . S
O147 Dy140 2.664 . S
O147 Dy143 2.310 1_545 S
O147 C148 1.268 . S
C148 O146 1.254 . S
C148 O147 1.268 . S
C149 O154 1.254 . S
C149 O155 1.268 . S
O150 Dy143 2.351 . S
O150 C158 1.249 . S
O151 Dy140 2.326 . S
O151 C158 1.267 1_545 S
O152 C141 1.185 . S
O152 Dy143 2.398 . S
O153 C141 1.355 1_545 S
O153 Dy143 2.491 1_545 S
O154 Dy143 2.403 . S
O154 C149 1.254 . S
O155 Dy140 2.310 1_565 S
O155 Dy143 2.664 . S
O155 C149 1.268 . S
O156 Dy140 2.351 . S
O156 C159 1.249 1_545 S
O157 Dy143 2.326 . S
O157 C159 1.267 . S
C158 O150 1.249 . S
C158 O151 1.267 1_565 S
C159 O156 1.249 1_565 S
C159 O157 1.267 . S
Dy160 O164 2.398 . S
Dy160 O165 2.491 . S
Dy160 O166 2.403 . S
Dy160 O167 2.664 . S
Dy160 O171 2.326 . S
Dy160 O175 2.310 . S
Dy160 O176 2.351 . S
C161 O172 1.185 . S
C161 O173 1.355 . S
C162 O164 1.185 . S
C162 O165 1.355 . S
Dy163 O167 2.310 . S
Dy163 O170 2.351 . S
Dy163 O172 2.398 . S
Dy163 O173 2.491 . S
Dy163 O174 2.403 . S
Dy163 O175 2.664 . S
Dy163 O177 2.326 . S
O164 Dy160 2.398 . S
O164 C162 1.185 . S
O165 Dy160 2.491 . S
O165 C162 1.355 . S
O166 Dy160 2.403 . S
O166 C168 1.254 . S
O167 Dy160 2.664 . S
O167 Dy163 2.310 . S
O167 C168 1.268 . S
C168 O166 1.254 . S
C168 O167 1.268 . S
C169 O174 1.254 . S
C169 O175 1.268 . S
O170 Dy163 2.351 . S
O170 C178 1.249 . S
O171 Dy160 2.326 . S
O171 C178 1.267 . S
O172 C161 1.185 . S
O172 Dy163 2.398 . S
O173 C161 1.355 . S
O173 Dy163 2.491 . S
O174 Dy163 2.403 . S
O174 C169 1.254 . S
O175 Dy160 2.310 . S
O175 Dy163 2.664 . S
O175 C169 1.268 . S
O176 Dy160 2.351 . S
O176 C179 1.249 . S
O177 Dy163 2.326 . S
O177 C179 1.267 . S
C178 O170 1.249 . S
C178 O171 1.267 . S
C179 O176 1.249 . S
C179 O177 1.267 . S
Dy180 O184 2.398 . S
Dy180 O185 2.491 . S
Dy180 O186 2.403 . S
Dy180 O187 2.664 . S
Dy180 O191 2.326 . S
Dy180 O195 2.310 . S
Dy180 O196 2.351 . S
C181 O192 1.185 . S
C181 O193 1.355 . S
C182 O184 1.185 . S
C182 O185 1.355 . S
Dy183 O187 2.310 . S
Dy183 O190 2.351 . S
Dy183 O192 2.398 . S
Dy183 O193 2.491 . S
Dy183 O194 2.403 . S
Dy183 O195 2.664 . S
Dy183 O197 2.326 . S
O184 Dy180 2.398 . S
O184 C182 1.185 . S
O185 Dy180 2.491 . S
O185 C182 1.355 . S
O186 Dy180 2.403 . S
O186 C188 1.254 . S
O187 Dy180 2.664 . S
O187 Dy183 2.310 . S
O187 C188 1.268 . S
C188 O186 1.254 . S
C188 O187 1.268 . S
C189 O194 1.254 . S
C189 O195 1.268 . S
O190 Dy183 2.351 . S
O190 C198 1.249 . S
O191 Dy180 2.326 . S
O191 C198 1.267 . S
O192 C181 1.185 . S
O192 Dy183 2.398 . S
O193 C181 1.355 . S
O193 Dy183 2.491 . S
O194 Dy183 2.403 . S
O194 C189 1.254 . S
O195 Dy180 2.310 . S
O195 Dy183 2.664 . S
O195 C189 1.268 . S
O196 Dy180 2.351 . S
O196 C199 1.249 . S
O197 Dy183 2.326 . S
O197 C199 1.267 . S
C198 O190 1.249 . S
C198 O191 1.267 . S
C199 O196 1.249 . S
C199 O197 1.267 . S
Dy200 O204 2.398 . S
Dy200 O205 2.491 . S
Dy200 O206 2.403 . S
Dy200 O207 2.664 . S
Dy200 O211 2.326 . S
Dy200 O215 2.310 . S
Dy200 O216 2.351 . S
C201 O212 1.185 . S
C201 O213 1.355 . S
C202 O204 1.185 . S
C202 O205 1.355 . S
Dy203 O207 2.310 . S
Dy203 O210 2.351 . S
Dy203 O212 2.398 . S
Dy203 O213 2.491 . S
Dy203 O214 2.403 . S
Dy203 O215 2.664 . S
Dy203 O217 2.326 . S
O204 Dy200 2.398 . S
O204 C202 1.185 . S
O205 Dy200 2.491 . S
O205 C202 1.355 . S
O206 Dy200 2.403 . S
O206 C208 1.254 . S
O207 Dy200 2.664 . S
O207 Dy203 2.310 . S
O207 C208 1.268 . S
C208 O206 1.254 . S
C208 O207 1.268 . S
C209 O214 1.254 . S
C209 O215 1.268 . S
O210 Dy203 2.351 . S
O210 C218 1.249 . S
O211 Dy200 2.326 . S
O211 C218 1.267 . S
O212 C201 1.185 . S
O212 Dy203 2.398 . S
O213 C201 1.355 . S
O213 Dy203 2.491 . S
O214 Dy203 2.403 . S
O214 C209 1.254 . S
O215 Dy200 2.310 . S
O215 Dy203 2.664 . S
O215 C209 1.268 . S
O216 Dy200 2.351 . S
O216 C219 1.249 . S
O217 Dy203 2.326 . S
O217 C219 1.267 . S
C218 O210 1.249 . S
C218 O211 1.267 . S
C219 O216 1.249 . S
C219 O217 1.267 . S
Dy220 O224 2.398 . S
Dy220 O225 2.491 . S
Dy220 O226 2.403 . S
Dy220 O227 2.664 . S
Dy220 O231 2.326 . S
Dy220 O235 2.310 . S
Dy220 O236 2.351 . S
C221 O232 1.185 . S
C221 O233 1.355 . S
C222 O224 1.185 . S
C222 O225 1.355 . S
Dy223 O227 2.310 . S
Dy223 O230 2.351 . S
Dy223 O232 2.398 . S
Dy223 O233 2.491 . S
Dy223 O234 2.403 . S
Dy223 O235 2.664 . S
Dy223 O237 2.326 . S
O224 Dy220 2.398 . S
O224 C222 1.185 . S
O225 Dy220 2.491 . S
O225 C222 1.355 . S
O226 Dy220 2.403 . S
O226 C228 1.254 . S
O227 Dy220 2.664 . S
O227 Dy223 2.310 . S
O227 C228 1.268 . S
C228 O226 1.254 . S
C228 O227 1.268 . S
C229 O234 1.254 . S
C229 O235 1.268 . S
O230 Dy223 2.351 . S
O230 C238 1.249 . S
O231 Dy220 2.326 . S
O231 C238 1.267 . S
O232 C221 1.185 . S
O232 Dy223 2.398 . S
O233 C221 1.355 . S
O233 Dy223 2.491 . S
O234 Dy223 2.403 . S
O234 C229 1.254 . S
O235 Dy220 2.310 . S
O235 Dy223 2.664 . S
O235 C229 1.268 . S
O236 Dy220 2.351 . S
O236 C239 1.249 . S
O237 Dy223 2.326 . S
O237 C239 1.267 . S
C238 O230 1.249 . S
C238 O231 1.267 . S
C239 O236 1.249 . S
C239 O237 1.267 . S
Dy240 O244 2.398 . S
Dy240 O245 2.491 . S
Dy240 O246 2.403 . S
Dy240 O247 2.664 . S
Dy240 O251 2.326 . S
Dy240 O255 2.310 . S
Dy240 O256 2.351 . S
C241 O252 1.185 . S
C241 O253 1.355 . S
C242 O244 1.185 . S
C242 O245 1.355 . S
Dy243 O247 2.310 . S
Dy243 O250 2.351 . S
Dy243 O252 2.398 . S
Dy243 O253 2.491 . S
Dy243 O254 2.403 . S
Dy243 O255 2.664 . S
Dy243 O257 2.326 . S
O244 Dy240 2.398 . S
O244 C242 1.185 . S
O245 Dy240 2.491 . S
O245 C242 1.355 . S
O246 Dy240 2.403 . S
O246 C248 1.254 . S
O247 Dy240 2.664 . S
O247 Dy243 2.310 . S
O247 C248 1.268 . S
C248 O246 1.254 . S
C248 O247 1.268 . S
C249 O254 1.254 . S
C249 O255 1.268 . S
O250 Dy243 2.351 . S
O250 C258 1.249 . S
O251 Dy240 2.326 . S
O251 C258 1.267 . S
O252 C241 1.185 . S
O252 Dy243 2.398 . S
O253 C241 1.355 . S
O253 Dy243 2.491 . S
O254 Dy243 2.403 . S
O254 C249 1.254 . S
O255 Dy240 2.310 . S
O255 Dy243 2.664 . S
O255 C249 1.268 . S
O256 Dy240 2.351 . S
O256 C259 1.249 . S
O257 Dy243 2.326 . S
O257 C259 1.267 . S
C258 O250 1.249 . S
C258 O251 1.267 . S
C259 O256 1.249 . S
C259 O257 1.267 . S
Dy260 O264 2.398 . S
Dy260 O265 2.491 . S
Dy260 O266 2.403 . S
Dy260 O267 2.664 . S
Dy260 O271 2.326 . S
Dy260 O275 2.310 . S
Dy260 O276 2.351 . S
C261 O272 1.185 . S
C261 O273 1.355 . S
C262 O264 1.185 . S
C262 O265 1.355 . S
Dy263 O267 2.310 . S
Dy263 O270 2.351 . S
Dy263 O272 2.398 . S
Dy263 O273 2.491 . S
Dy263 O274 2.403 . S
Dy263 O275 2.664 . S
Dy263 O277 2.326 . S
O264 Dy260 2.398 . S
O264 C262 1.185 . S
O265 Dy260 2.491 . S
O265 C262 1.355 . S
O266 Dy260 2.403 . S
O266 C268 1.254 . S
O267 Dy260 2.664 . S
O267 Dy263 2.310 . S
O267 C268 1.268 . S
C268 O266 1.254 . S
C268 O267 1.268 . S
C269 O274 1.254 . S
C269 O275 1.268 . S
O270 Dy263 2.351 . S
O270 C278 1.249 . S
O271 Dy260 2.326 . S
O271 C278 1.267 . S
O272 C261 1.185 . S
O272 Dy263 2.398 . S
O273 C261 1.355 . S
O273 Dy263 2.491 . S
O274 Dy263 2.403 . S
O274 C269 1.254 . S
O275 Dy260 2.310 . S
O275 Dy263 2.664 . S
O275 C269 1.268 . S
O276 Dy260 2.351 . S
O276 C279 1.249 . S
O277 Dy263 2.326 . S
O277 C279 1.267 . S
C278 O270 1.249 . S
C278 O271 1.267 . S
C279 O276 1.249 . S
C279 O277 1.267 . S
Dy280 O284 2.398 . S
Dy280 O285 2.491 . S
Dy280 O286 2.403 . S
Dy280 O287 2.664 . S
Dy280 O291 2.326 . S
Dy280 O295 2.310 . S
Dy280 O296 2.351 . S
C281 O292 1.185 . S
C281 O293 1.355 . S
C282 O284 1.185 . S
C282 O285 1.355 . S
Dy283 O287 2.310 . S
Dy283 O290 2.351 . S
Dy283 O292 2.398 . S
Dy283 O293 2.491 . S
Dy283 O294 2.403 . S
Dy283 O295 2.664 . S
Dy283 O297 2.326 . S
O284 Dy280 2.398 . S
O284 C282 1.185 . S
O285 Dy280 2.491 . S
O285 C282 1.355 . S
O286 Dy280 2.403 . S
O286 C288 1.254 . S
O287 Dy280 2.664 . S
O287 Dy283 2.310 . S
O287 C288 1.268 . S
C288 O286 1.254 . S
C288 O287 1.268 . S
C289 O294 1.254 . S
C289 O295 1.268 . S
O290 Dy283 2.351 . S
O290 C298 1.249 . S
O291 Dy280 2.326 . S
O291 C298 1.267 . S
O292 C281 1.185 . S
O292 Dy283 2.398 . S
O293 C281 1.355 . S
O293 Dy283 2.491 . S
O294 Dy283 2.403 . S
O294 C289 1.254 . S
O295 Dy280 2.310 . S
O295 Dy283 2.664 . S
O295 C289 1.268 . S
O296 Dy280 2.351 . S
O296 C299 1.249 . S
O297 Dy283 2.326 . S
O297 C299 1.267 . S
C298 O290 1.249 . S
C298 O291 1.267 . S
C299 O296 1.249 . S
C299 O297 1.267 . S
Dy300 O304 2.398 . S
Dy300 O305 2.491 . S
Dy300 O306 2.403 . S
Dy300 O307 2.664 . S
Dy300 O311 2.326 . S
Dy300 O315 2.310 . S
Dy300 O316 2.351 . S
C301 O312 1.185 . S
C301 O313 1.355 . S
C302 O304 1.185 . S
C302 O305 1.355 . S
Dy303 O307 2.310 . S
Dy303 O310 2.351 . S
Dy303 O312 2.398 . S
Dy303 O313 2.491 . S
Dy303 O314 2.403 . S
Dy303 O315 2.664 . S
Dy303 O317 2.326 . S
O304 Dy300 2.398 . S
O304 C302 1.185 . S
O305 Dy300 2.491 . S
O305 C302 1.355 . S
O306 Dy300 2.403 . S
O306 C308 1.254 . S
O307 Dy300 2.664 . S
O307 Dy303 2.310 . S
O307 C308 1.268 . S
C308 O306 1.254 . S
C308 O307 1.268 . S
C309 O314 1.254 . S
C309 O315 1.268 . S
O310 Dy303 2.351 . S
O310 C318 1.249 . S
O311 Dy300 2.326 . S
O311 C318 1.267 . S
O312 C301 1.185 . S
O312 Dy303 2.398 . S
O313 C301 1.355 . S
O313 Dy303 2.491 . S
O314 Dy303 2.403 . S
O314 C309 1.254 . S
O315 Dy300 2.310 . S
O315 Dy303 2.664 . S
O315 C309 1.268 . S
O316 Dy300 2.351 . S
O316 C319 1.249 . S
O317 Dy303 2.326 . S
O317 C319 1.267 . S
C318 O310 1.249 . S
C318 O311 1.267 . S
C319 O316 1.249 . S
C319 O317 1.267 . S
Dy320 O324 2.398 . S
Dy320 O325 2.491 1_545 S
Dy320 O326 2.403 . S
Dy320 O327 2.664 . S
Dy320 O331 2.326 . S
Dy320 O335 2.310 1_545 S
Dy320 O336 2.351 . S
C321 O332 1.185 . S
C321 O333 1.355 1_565 S
C322 O324 1.185 . S
C322 O325 1.355 1_545 S
Dy323 O327 2.310 1_565 S
Dy323 O330 2.351 . S
Dy323 O332 2.398 . S
Dy323 O333 2.491 1_565 S
Dy323 O334 2.403 . S
Dy323 O335 2.664 . S
Dy323 O337 2.326 . S
O324 Dy320 2.398 . S
O324 C322 1.185 . S
O325 Dy320 2.491 1_565 S
O325 C322 1.355 1_565 S
O326 Dy320 2.403 . S
O326 C328 1.254 . S
O327 Dy320 2.664 . S
O327 Dy323 2.310 1_545 S
O327 C328 1.268 . S
C328 O326 1.254 . S
C328 O327 1.268 . S
C329 O334 1.254 . S
C329 O335 1.268 . S
O330 Dy323 2.351 . S
O330 C338 1.249 1_565 S
O331 Dy320 2.326 . S
O331 C338 1.267 . S
O332 C321 1.185 . S
O332 Dy323 2.398 . S
O333 C321 1.355 1_545 S
O333 Dy323 2.491 1_545 S
O334 Dy323 2.403 . S
O334 C329 1.254 . S
O335 Dy320 2.310 1_565 S
O335 Dy323 2.664 . S
O335 C329 1.268 . S
O336 Dy320 2.351 . S
O336 C339 1.249 . S
O337 Dy323 2.326 . S
O337 C339 1.267 1_565 S
C338 O330 1.249 1_545 S
C338 O331 1.267 . S
C339 O336 1.249 . S
C339 O337 1.267 1_545 S
Dy340 O344 2.398 . S
Dy340 O345 2.491 . S
Dy340 O346 2.403 . S
Dy340 O347 2.664 . S
Dy340 O351 2.326 . S
Dy340 O355 2.310 . S
Dy340 O356 2.351 . S
C341 O352 1.185 . S
C341 O353 1.355 . S
C342 O344 1.185 . S
C342 O345 1.355 . S
Dy343 O347 2.310 . S
Dy343 O350 2.351 . S
Dy343 O352 2.398 . S
Dy343 O353 2.491 . S
Dy343 O354 2.403 . S
Dy343 O355 2.664 . S
Dy343 O357 2.326 . S
O344 Dy340 2.398 . S
O344 C342 1.185 . S
O345 Dy340 2.491 . S
O345 C342 1.355 . S
O346 Dy340 2.403 . S
O346 C348 1.254 . S
O347 Dy340 2.664 . S
O347 Dy343 2.310 . S
O347 C348 1.268 . S
C348 O346 1.254 . S
C348 O347 1.268 . S
C349 O354 1.254 . S
C349 O355 1.268 . S
O350 Dy343 2.351 . S
O350 C358 1.249 . S
O351 Dy340 2.326 . S
O351 C358 1.267 . S
O352 C341 1.185 . S
O352 Dy343 2.398 . S
O353 C341 1.355 . S
O353 Dy343 2.491 . S
O354 Dy343 2.403 . S
O354 C349 1.254 . S
O355 Dy340 2.310 . S
O355 Dy343 2.664 . S
O355 C349 1.268 . S
O356 Dy340 2.351 . S
O356 C359 1.249 . S
O357 Dy343 2.326 . S
O357 C359 1.267 . S
C358 O350 1.249 . S
C358 O351 1.267 . S
C359 O356 1.249 . S
C359 O357 1.267 . S
Dy360 O364 2.398 . S
Dy360 O365 2.491 . S
Dy360 O366 2.403 . S
Dy360 O367 2.664 . S
Dy360 O371 2.326 . S
Dy360 O375 2.310 . S
Dy360 O376 2.351 . S
C361 O372 1.185 . S
C361 O373 1.355 . S
C362 O364 1.185 . S
C362 O365 1.355 . S
Dy363 O367 2.310 . S
Dy363 O370 2.351 . S
Dy363 O372 2.398 . S
Dy363 O373 2.491 . S
Dy363 O374 2.403 . S
Dy363 O375 2.664 . S
Dy363 O377 2.326 . S
O364 Dy360 2.398 . S
O364 C362 1.185 . S
O365 Dy360 2.491 . S
O365 C362 1.355 . S
O366 Dy360 2.403 . S
O366 C368 1.254 . S
O367 Dy360 2.664 . S
O367 Dy363 2.310 . S
O367 C368 1.268 . S
C368 O366 1.254 . S
C368 O367 1.268 . S
C369 O374 1.254 . S
C369 O375 1.268 . S
O370 Dy363 2.351 . S
O370 C378 1.249 . S
O371 Dy360 2.326 . S
O371 C378 1.267 . S
O372 C361 1.185 . S
O372 Dy363 2.398 . S
O373 C361 1.355 . S
O373 Dy363 2.491 . S
O374 Dy363 2.403 . S
O374 C369 1.254 . S
O375 Dy360 2.310 . S
O375 Dy363 2.664 . S
O375 C369 1.268 . S
O376 Dy360 2.351 . S
O376 C379 1.249 . S
O377 Dy363 2.326 . S
O377 C379 1.267 . S
C378 O370 1.249 . S
C378 O371 1.267 . S
C379 O376 1.249 . S
C379 O377 1.267 . S
Dy380 O384 2.398 . S
Dy380 O385 2.491 1_545 S
Dy380 O386 2.403 . S
Dy380 O387 2.664 . S
Dy380 O391 2.326 . S
Dy380 O395 2.310 1_545 S
Dy380 O396 2.351 . S
C381 O392 1.185 . S
C381 O393 1.355 1_565 S
C382 O384 1.185 . S
C382 O385 1.355 1_545 S
Dy383 O387 2.310 1_565 S
Dy383 O390 2.351 . S
Dy383 O392 2.398 . S
Dy383 O393 2.491 1_565 S
Dy383 O394 2.403 . S
Dy383 O395 2.664 . S
Dy383 O397 2.326 . S
O384 Dy380 2.398 . S
O384 C382 1.185 . S
O385 Dy380 2.491 1_565 S
O385 C382 1.355 1_565 S
O386 Dy380 2.403 . S
O386 C388 1.254 . S
O387 Dy380 2.664 . S
O387 Dy383 2.310 1_545 S
O387 C388 1.268 . S
C388 O386 1.254 . S
C388 O387 1.268 . S
C389 O394 1.254 . S
C389 O395 1.268 . S
O390 Dy383 2.351 . S
O390 C398 1.249 1_565 S
O391 Dy380 2.326 . S
O391 C398 1.267 . S
O392 C381 1.185 . S
O392 Dy383 2.398 . S
O393 C381 1.355 1_545 S
O393 Dy383 2.491 1_545 S
O394 Dy383 2.403 . S
O394 C389 1.254 . S
O395 Dy380 2.310 1_565 S
O395 Dy383 2.664 . S
O395 C389 1.268 . S
O396 Dy380 2.351 . S
O396 C399 1.249 . S
O397 Dy383 2.326 . S
O397 C399 1.267 1_565 S
C398 O390 1.249 1_545 S
C398 O391 1.267 . S
C399 O396 1.249 . S
C399 O397 1.267 1_545 S
Dy400 O404 2.398 . S
Dy400 O405 2.491 1_545 S
Dy400 O406 2.403 . S
Dy400 O407 2.664 . S
Dy400 O411 2.326 . S
Dy400 O415 2.310 1_545 S
Dy400 O416 2.351 . S
C401 O412 1.185 . S
C401 O413 1.355 1_565 S
C402 O404 1.185 . S
C402 O405 1.355 1_545 S
Dy403 O407 2.310 1_565 S
Dy403 O410 2.351 . S
Dy403 O412 2.398 . S
Dy403 O413 2.491 1_565 S
Dy403 O414 2.403 . S
Dy403 O415 2.664 . S
Dy403 O417 2.326 . S
O404 Dy400 2.398 . S
O404 C402 1.185 . S
O405 Dy400 2.491 1_565 S
O405 C402 1.355 1_565 S
O406 Dy400 2.403 . S
O406 C408 1.254 . S
O407 Dy400 2.664 . S
O407 Dy403 2.310 1_545 S
O407 C408 1.268 . S
C408 O406 1.254 . S
C408 O407 1.268 . S
C409 O414 1.254 . S
C409 O415 1.268 . S
O410 Dy403 2.351 . S
O410 C418 1.249 . S
O411 Dy400 2.326 . S
O411 C418 1.267 1_545 S
O412 C401 1.185 . S
O412 Dy403 2.398 . S
O413 C401 1.355 1_545 S
O413 Dy403 2.491 1_545 S
O414 Dy403 2.403 . S
O414 C409 1.254 . S
O415 Dy400 2.310 1_565 S
O415 Dy403 2.664 . S
O415 C409 1.268 . S
O416 Dy400 2.351 . S
O416 C419 1.249 1_545 S
O417 Dy403 2.326 . S
O417 C419 1.267 . S
C418 O410 1.249 . S
C418 O411 1.267 1_565 S
C419 O416 1.249 1_565 S
C419 O417 1.267 . S
Dy420 O424 2.398 . S
Dy420 O425 2.491 . S
Dy420 O426 2.403 . S
Dy420 O427 2.664 . S
Dy420 O431 2.326 . S
Dy420 O435 2.310 . S
Dy420 O436 2.351 . S
C421 O432 1.185 . S
C421 O433 1.355 . S
C422 O424 1.185 . S
C422 O425 1.355 . S
Dy423 O427 2.310 . S
Dy423 O430 2.351 . S
Dy423 O432 2.398 . S
Dy423 O433 2.491 . S
Dy423 O434 2.403 . S
Dy423 O435 2.664 . S
Dy423 O437 2.326 . S
O424 Dy420 2.398 . S
O424 C422 1.185 . S
O425 Dy420 2.491 . S
O425 C422 1.355 . S
O426 Dy420 2.403 . S
O426 C428 1.254 . S
O427 Dy420 2.664 . S
O427 Dy423 2.310 . S
O427 C428 1.268 . S
C428 O426 1.254 . S
C428 O427 1.268 . S
C429 O434 1.254 . S
C429 O435 1.268 . S
O430 Dy423 2.351 . S
O430 C438 1.249 . S
O431 Dy420 2.326 . S
O431 C438 1.267 . S
O432 C421 1.185 . S
O432 Dy423 2.398 . S
O433 C421 1.355 . S
O433 Dy423 2.491 . S
O434 Dy423 2.403 . S
O434 C429 1.254 . S
O435 Dy420 2.310 . S
O435 Dy423 2.664 . S
O435 C429 1.268 . S
O436 Dy420 2.351 . S
O436 C439 1.249 . S
O437 Dy423 2.326 . S
O437 C439 1.267 . S
C438 O430 1.249 . S
C438 O431 1.267 . S
C439 O436 1.249 . S
C439 O437 1.267 . S
Dy440 O444 2.398 . S
Dy440 O445 2.491 . S
Dy440 O446 2.403 . S
Dy440 O447 2.664 . S
Dy440 O451 2.326 . S
Dy440 O455 2.310 . S
Dy440 O456 2.351 . S
C441 O452 1.185 . S
C441 O453 1.355 . S
C442 O444 1.185 . S
C442 O445 1.355 . S
Dy443 O447 2.310 . S
Dy443 O450 2.351 . S
Dy443 O452 2.398 . S
Dy443 O453 2.491 . S
Dy443 O454 2.403 . S
Dy443 O455 2.664 . S
Dy443 O457 2.326 . S
O444 Dy440 2.398 . S
O444 C442 1.185 . S
O445 Dy440 2.491 . S
O445 C442 1.355 . S
O446 Dy440 2.403 . S
O446 C448 1.254 . S
O447 Dy440 2.664 . S
O447 Dy443 2.310 . S
O447 C448 1.268 . S
C448 O446 1.254 . S
C448 O447 1.268 . S
C449 O454 1.254 . S
C449 O455 1.268 . S
O450 Dy443 2.351 . S
O450 C458 1.249 . S
O451 Dy440 2.326 . S
O451 C458 1.267 . S
O452 C441 1.185 . S
O452 Dy443 2.398 . S
O453 C441 1.355 . S
O453 Dy443 2.491 . S
O454 Dy443 2.403 . S
O454 C449 1.254 . S
O455 Dy440 2.310 . S
O455 Dy443 2.664 . S
O455 C449 1.268 . S
O456 Dy440 2.351 . S
O456 C459 1.249 . S
O457 Dy443 2.326 . S
O457 C459 1.267 . S
C458 O450 1.249 . S
C458 O451 1.267 . S
C459 O456 1.249 . S
C459 O457 1.267 . S
Dy460 O464 2.398 . S
Dy460 O465 2.491 1_545 S
Dy460 O466 2.403 . S
Dy460 O467 2.664 . S
Dy460 O471 2.326 . S
Dy460 O475 2.310 1_545 S
Dy460 O476 2.351 . S
C461 O472 1.185 . S
C461 O473 1.355 1_565 S
C462 O464 1.185 . S
C462 O465 1.355 1_545 S
Dy463 O467 2.310 1_565 S
Dy463 O470 2.351 . S
Dy463 O472 2.398 . S
Dy463 O473 2.491 1_565 S
Dy463 O474 2.403 . S
Dy463 O475 2.664 . S
Dy463 O477 2.326 . S
O464 Dy460 2.398 . S
O464 C462 1.185 . S
O465 Dy460 2.491 1_565 S
O465 C462 1.355 1_565 S
O466 Dy460 2.403 . S
O466 C468 1.254 . S
O467 Dy460 2.664 . S
O467 Dy463 2.310 1_545 S
O467 C468 1.268 . S
C468 O466 1.254 . S
C468 O467 1.268 . S
C469 O474 1.254 . S
C469 O475 1.268 . S
O470 Dy463 2.351 . S
O470 C478 1.249 . S
O471 Dy460 2.326 . S
O471 C478 1.267 1_545 S
O472 C461 1.185 . S
O472 Dy463 2.398 . S
O473 C461 1.355 1_545 S
O473 Dy463 2.491 1_545 S
O474 Dy463 2.403 . S
O474 C469 1.254 . S
O475 Dy460 2.310 1_565 S
O475 Dy463 2.664 . S
O475 C469 1.268 . S
O476 Dy460 2.351 . S
O476 C479 1.249 1_545 S
O477 Dy463 2.326 . S
O477 C479 1.267 . S
C478 O470 1.249 . S
C478 O471 1.267 1_565 S
C479 O476 1.249 1_565 S
C479 O477 1.267 . S
Dy480 O484 2.398 1_554 S
Dy480 O485 2.491 1_554 S
Dy480 O486 2.403 . S
Dy480 O487 2.664 . S
Dy480 O491 2.326 . S
Dy480 O495 2.310 . S
Dy480 O496 2.351 . S
C481 O492 1.185 . S
C481 O493 1.355 . S
C482 O484 1.185 . S
C482 O485 1.355 . S
Dy483 O487 2.310 . S
Dy483 O490 2.351 . S
Dy483 O492 2.398 . S
Dy483 O493 2.491 . S
Dy483 O494 2.403 . S
Dy483 O495 2.664 . S
Dy483 O497 2.326 . S
O484 Dy480 2.398 1_556 S
O484 C482 1.185 . S
O485 Dy480 2.491 1_556 S
O485 C482 1.355 . S
O486 Dy480 2.403 . S
O486 C488 1.254 . S
O487 Dy480 2.664 . S
O487 Dy483 2.310 . S
O487 C488 1.268 . S
C488 O486 1.254 . S
C488 O487 1.268 . S
C489 O494 1.254 . S
C489 O495 1.268 . S
O490 Dy483 2.351 . S
O490 C498 1.249 . S
O491 Dy480 2.326 . S
O491 C498 1.267 . S
O492 C481 1.185 . S
O492 Dy483 2.398 . S
O493 C481 1.355 . S
O493 Dy483 2.491 . S
O494 Dy483 2.403 . S
O494 C489 1.254 . S
O495 Dy480 2.310 . S
O495 Dy483 2.664 . S
O495 C489 1.268 . S
O496 Dy480 2.351 . S
O496 C499 1.249 . S
O497 Dy483 2.326 . S
O497 C499 1.267 . S
C498 O490 1.249 . S
C498 O491 1.267 . S
C499 O496 1.249 . S
C499 O497 1.267 . S
Dy500 O504 2.398 1_554 S
Dy500 O505 2.491 1_554 S
Dy500 O506 2.403 . S
Dy500 O507 2.664 . S
Dy500 O511 2.326 . S
Dy500 O515 2.310 . S
Dy500 O516 2.351 . S
C501 O512 1.185 . S
C501 O513 1.355 . S
C502 O504 1.185 . S
C502 O505 1.355 . S
Dy503 O507 2.310 . S
Dy503 O510 2.351 . S
Dy503 O512 2.398 . S
Dy503 O513 2.491 . S
Dy503 O514 2.403 . S
Dy503 O515 2.664 . S
Dy503 O517 2.326 . S
O504 Dy500 2.398 1_556 S
O504 C502 1.185 . S
O505 Dy500 2.491 1_556 S
O505 C502 1.355 . S
O506 Dy500 2.403 . S
O506 C508 1.254 . S
O507 Dy500 2.664 . S
O507 Dy503 2.310 . S
O507 C508 1.268 . S
C508 O506 1.254 . S
C508 O507 1.268 . S
C509 O514 1.254 . S
C509 O515 1.268 . S
O510 Dy503 2.351 . S
O510 C518 1.249 . S
O511 Dy500 2.326 . S
O511 C518 1.267 . S
O512 C501 1.185 . S
O512 Dy503 2.398 . S
O513 C501 1.355 . S
O513 Dy503 2.491 . S
O514 Dy503 2.403 . S
O514 C509 1.254 . S
O515 Dy500 2.310 . S
O515 Dy503 2.664 . S
O515 C509 1.268 . S
O516 Dy500 2.351 . S
O516 C519 1.249 . S
O517 Dy503 2.326 . S
O517 C519 1.267 . S
C518 O510 1.249 . S
C518 O511 1.267 . S
C519 O516 1.249 . S
C519 O517 1.267 . S
Dy520 O524 2.398 . S
Dy520 O525 2.491 . S
Dy520 O526 2.403 . S
Dy520 O527 2.664 . S
Dy520 O531 2.326 . S
Dy520 O535 2.310 . S
Dy520 O536 2.351 . S
C521 O532 1.185 . S
C521 O533 1.355 . S
C522 O524 1.185 . S
C522 O525 1.355 . S
Dy523 O527 2.310 . S
Dy523 O530 2.351 . S
Dy523 O532 2.398 . S
Dy523 O533 2.491 . S
Dy523 O534 2.403 . S
Dy523 O535 2.664 . S
Dy523 O537 2.326 . S
O524 Dy520 2.398 . S
O524 C522 1.185 . S
O525 Dy520 2.491 . S
O525 C522 1.355 . S
O526 Dy520 2.403 . S
O526 C528 1.254 . S
O527 Dy520 2.664 . S
O527 Dy523 2.310 . S
O527 C528 1.268 . S
C528 O526 1.254 . S
C528 O527 1.268 . S
C529 O534 1.254 . S
C529 O535 1.268 . S
O530 Dy523 2.351 . S
O530 C538 1.249 . S
O531 Dy520 2.326 . S
O531 C538 1.267 . S
O532 C521 1.185 . S
O532 Dy523 2.398 . S
O533 C521 1.355 . S
O533 Dy523 2.491 . S
O534 Dy523 2.403 . S
O534 C529 1.254 . S
O535 Dy520 2.310 . S
O535 Dy523 2.664 . S
O535 C529 1.268 . S
O536 Dy520 2.351 . S
O536 C539 1.249 . S
O537 Dy523 2.326 . S
O537 C539 1.267 . S
C538 O530 1.249 . S
C538 O531 1.267 . S
C539 O536 1.249 . S
C539 O537 1.267 . S
Dy540 O544 2.398 . S
Dy540 O545 2.491 . S
Dy540 O546 2.403 . S
Dy540 O547 2.664 . S
Dy540 O551 2.326 . S
Dy540 O555 2.310 . S
Dy540 O556 2.351 . S
C541 O552 1.185 . S
C541 O553 1.355 . S
C542 O544 1.185 . S
C542 O545 1.355 . S
Dy543 O547 2.310 . S
Dy543 O550 2.351 . S
Dy543 O552 2.398 . S
Dy543 O553 2.491 . S
Dy543 O554 2.403 . S
Dy543 O555 2.664 . S
Dy543 O557 2.326 . S
O544 Dy540 2.398 . S
O544 C542 1.185 . S
O545 Dy540 2.491 . S
O545 C542 1.355 . S
O546 Dy540 2.403 . S
O546 C548 1.254 . S
O547 Dy540 2.664 . S
O547 Dy543 2.310 . S
O547 C548 1.268 . S
C548 O546 1.254 . S
C548 O547 1.268 . S
C549 O554 1.254 . S
C549 O555 1.268 . S
O550 Dy543 2.351 . S
O550 C558 1.249 . S
O551 Dy540 2.326 . S
O551 C558 1.267 . S
O552 C541 1.185 . S
O552 Dy543 2.398 . S
O553 C541 1.355 . S
O553 Dy543 2.491 . S
O554 Dy543 2.403 . S
O554 C549 1.254 . S
O555 Dy540 2.310 . S
O555 Dy543 2.664 . S
O555 C549 1.268 . S
O556 Dy540 2.351 . S
O556 C559 1.249 . S
O557 Dy543 2.326 . S
O557 C559 1.267 . S
C558 O550 1.249 . S
C558 O551 1.267 . S
C559 O556 1.249 . S
C559 O557 1.267 . S
Dy560 O564 2.398 . S
Dy560 O565 2.491 . S
Dy560 O566 2.403 . S
Dy560 O567 2.664 . S
Dy560 O571 2.326 . S
Dy560 O575 2.310 . S
Dy560 O576 2.351 . S
C561 O572 1.185 . S
C561 O573 1.355 . S
C562 O564 1.185 . S
C562 O565 1.355 . S
Dy563 O567 2.310 . S
Dy563 O570 2.351 . S
Dy563 O572 2.398 1_556 S
Dy563 O573 2.491 1_556 S
Dy563 O574 2.403 . S
Dy563 O575 2.664 . S
Dy563 O577 2.326 . S
O564 Dy560 2.398 . S
O564 C562 1.185 . S
O565 Dy560 2.491 . S
O565 C562 1.355 . S
O566 Dy560 2.403 . S
O566 C568 1.254 . S
O567 Dy560 2.664 . S
O567 Dy563 2.310 . S
O567 C568 1.268 . S
C568 O566 1.254 . S
C568 O567 1.268 . S
C569 O574 1.254 . S
C569 O575 1.268 . S
O570 Dy563 2.351 . S
O570 C578 1.249 . S
O571 Dy560 2.326 . S
O571 C578 1.267 . S
O572 C561 1.185 . S
O572 Dy563 2.398 1_554 S
O573 C561 1.355 . S
O573 Dy563 2.491 1_554 S
O574 Dy563 2.403 . S
O574 C569 1.254 . S
O575 Dy560 2.310 . S
O575 Dy563 2.664 . S
O575 C569 1.268 . S
O576 Dy560 2.351 . S
O576 C579 1.249 . S
O577 Dy563 2.326 . S
O577 C579 1.267 . S
C578 O570 1.249 . S
C578 O571 1.267 . S
C579 O576 1.249 . S
C579 O577 1.267 . S
Dy580 O584 2.398 . S
Dy580 O585 2.491 . S
Dy580 O586 2.403 . S
Dy580 O587 2.664 . S
Dy580 O591 2.326 . S
Dy580 O595 2.310 . S
Dy580 O596 2.351 . S
C581 O592 1.185 . S
C581 O593 1.355 . S
C582 O584 1.185 . S
C582 O585 1.355 . S
Dy583 O587 2.310 . S
Dy583 O590 2.351 . S
Dy583 O592 2.398 1_556 S
Dy583 O593 2.491 1_556 S
Dy583 O594 2.403 . S
Dy583 O595 2.664 . S
Dy583 O597 2.326 . S
O584 Dy580 2.398 . S
O584 C582 1.185 . S
O585 Dy580 2.491 . S
O585 C582 1.355 . S
O586 Dy580 2.403 . S
O586 C588 1.254 . S
O587 Dy580 2.664 . S
O587 Dy583 2.310 . S
O587 C588 1.268 . S
C588 O586 1.254 . S
C588 O587 1.268 . S
C589 O594 1.254 . S
C589 O595 1.268 . S
O590 Dy583 2.351 . S
O590 C598 1.249 . S
O591 Dy580 2.326 . S
O591 C598 1.267 . S
O592 C581 1.185 . S
O592 Dy583 2.398 1_554 S
O593 C581 1.355 . S
O593 Dy583 2.491 1_554 S
O594 Dy583 2.403 . S
O594 C589 1.254 . S
O595 Dy580 2.310 . S
O595 Dy583 2.664 . S
O595 C589 1.268 . S
O596 Dy580 2.351 . S
O596 C599 1.249 . S
O597 Dy583 2.326 . S
O597 C599 1.267 . S
C598 O590 1.249 . S
C598 O591 1.267 . S
C599 O596 1.249 . S
C599 O597 1.267 . S
Dy600 O604 2.398 . S
Dy600 O605 2.491 . S
Dy600 O606 2.403 . S
Dy600 O607 2.664 . S
Dy600 O611 2.326 . S
Dy600 O615 2.310 . S
Dy600 O616 2.351 . S
C601 O612 1.185 . S
C601 O613 1.355 . S
C602 O604 1.185 . S
C602 O605 1.355 . S
Dy603 O607 2.310 . S
Dy603 O610 2.351 . S
Dy603 O612 2.398 . S
Dy603 O613 2.491 . S
Dy603 O614 2.403 . S
Dy603 O615 2.664 . S
Dy603 O617 2.326 . S
O604 Dy600 2.398 . S
O604 C602 1.185 . S
O605 Dy600 2.491 . S
O605 C602 1.355 . S
O606 Dy600 2.403 . S
O606 C608 1.254 . S
O607 Dy600 2.664 . S
O607 Dy603 2.310 . S
O607 C608 1.268 . S
C608 O606 1.254 . S
C608 O607 1.268 . S
C609 O614 1.254 . S
C609 O615 1.268 . S
O610 Dy603 2.351 . S
O610 C618 1.249 . S
O611 Dy600 2.326 . S
O611 C618 1.267 . S
O612 C601 1.185 . S
O612 Dy603 2.398 . S
O613 C601 1.355 . S
O613 Dy603 2.491 . S
O614 Dy603 2.403 . S
O614 C609 1.254 . S
O615 Dy600 2.310 . S
O615 Dy603 2.664 . S
O615 C609 1.268 . S
O616 Dy600 2.351 . S
O616 C619 1.249 . S
O617 Dy603 2.326 . S
O617 C619 1.267 . S
C618 O610 1.249 . S
C618 O611 1.267 . S
C619 O616 1.249 . S
C619 O617 1.267 . S
Dy620 O624 2.398 . S
Dy620 O625 2.491 . S
Dy620 O626 2.403 . S
Dy620 O627 2.664 . S
Dy620 O631 2.326 . S
Dy620 O635 2.310 . S
Dy620 O636 2.351 . S
C621 O632 1.185 . S
C621 O633 1.355 . S
C622 O624 1.185 . S
C622 O625 1.355 . S
Dy623 O627 2.310 . S
Dy623 O630 2.351 . S
Dy623 O632 2.398 . S
Dy623 O633 2.491 . S
Dy623 O634 2.403 . S
Dy623 O635 2.664 . S
Dy623 O637 2.326 . S
O624 Dy620 2.398 . S
O624 C622 1.185 . S
O625 Dy620 2.491 . S
O625 C622 1.355 . S
O626 Dy620 2.403 . S
O626 C628 1.254 . S
O627 Dy620 2.664 . S
O627 Dy623 2.310 . S
O627 C628 1.268 . S
C628 O626 1.254 . S
C628 O627 1.268 . S
C629 O634 1.254 . S
C629 O635 1.268 . S
O630 Dy623 2.351 . S
O630 C638 1.249 . S
O631 Dy620 2.326 . S
O631 C638 1.267 . S
O632 C621 1.185 . S
O632 Dy623 2.398 . S
O633 C621 1.355 . S
O633 Dy623 2.491 . S
O634 Dy623 2.403 . S
O634 C629 1.254 . S
O635 Dy620 2.310 . S
O635 Dy623 2.664 . S
O635 C629 1.268 . S
O636 Dy620 2.351 . S
O636 C639 1.249 . S
O637 Dy623 2.326 . S
O637 C639 1.267 . S
C638 O630 1.249 . S
C638 O631 1.267 . S
C639 O636 1.249 . S
C639 O637 1.267 . S
C640 C641 1.369 . S
C640 C642 1.419 . S
C640 H644 0.930 . S
C641 C640 1.369 . S
C641 C650 1.429 . S
C642 C640 1.419 . S
C642 C643 1.363 . S
C642 H645 0.929 . S
C643 C642 1.363 . S
C643 C649 1.428 . S
H644 C640 0.930 . S
H645 C642 0.929 . S
S646 N647 1.613 . S
S646 N648 1.610 . S
N647 S646 1.613 . S
N647 C650 1.350 . S
N648 S646 1.610 . S
N648 C649 1.351 . S
C649 C643 1.428 . S
C649 N648 1.351 . S
C649 C650 1.434 . S
C650 C641 1.429 . S
C650 N647 1.350 . S
C650 C649 1.434 . S
C651 C652 1.369 . S
C651 C653 1.419 . S
C651 H655 0.930 . S
C652 C651 1.369 . S
C652 C661 1.429 . S
C653 C651 1.419 . S
C653 C654 1.363 . S
C653 H656 0.929 . S
C654 C653 1.363 . S
C654 C660 1.428 . S
H655 C651 0.930 . S
H656 C653 0.929 . S
S657 N658 1.613 . S
S657 N659 1.610 . S
N658 S657 1.613 . S
N658 C661 1.350 . S
N659 S657 1.610 . S
N659 C660 1.351 . S
C660 C654 1.428 . S
C660 N659 1.351 . S
C660 C661 1.434 . S
C661 C652 1.429 . S
C661 N658 1.350 . S
C661 C660 1.434 . S
C662 C663 1.369 . S
C662 C664 1.419 . S
C662 H666 0.930 . S
C663 C662 1.369 . S
C663 C672 1.429 . S
C664 C662 1.419 . S
C664 C665 1.363 . S
C664 H667 0.929 . S
C665 C664 1.363 . S
C665 C671 1.428 . S
H666 C662 0.930 . S
H667 C664 0.929 . S
S668 N669 1.613 . S
S668 N670 1.610 . S
N669 S668 1.613 . S
N669 C672 1.350 . S
N670 S668 1.610 . S
N670 C671 1.351 . S
C671 C665 1.428 . S
C671 N670 1.351 . S
C671 C672 1.434 . S
C672 C663 1.429 . S
C672 N669 1.350 . S
C672 C671 1.434 . S
C673 C674 1.369 . S
C673 C675 1.419 . S
C673 H677 0.930 . S
C674 C673 1.369 . S
C674 C683 1.429 . S
C675 C673 1.419 . S
C675 C676 1.363 . S
C675 H678 0.929 . S
C676 C675 1.363 . S
C676 C682 1.428 . S
H677 C673 0.930 . S
H678 C675 0.929 . S
S679 N680 1.613 . S
S679 N681 1.610 . S
N680 S679 1.613 . S
N680 C683 1.350 . S
N681 S679 1.610 . S
N681 C682 1.351 . S
C682 C676 1.428 . S
C682 N681 1.351 . S
C682 C683 1.434 . S
C683 C674 1.429 . S
C683 N680 1.350 . S
C683 C682 1.434 . S
C684 C685 1.369 . S
C684 C686 1.419 . S
C684 H688 0.930 . S
C685 C684 1.369 . S
C685 C694 1.429 . S
C686 C684 1.419 . S
C686 C687 1.363 . S
C686 H689 0.929 . S
C687 C686 1.363 . S
C687 C693 1.428 . S
H688 C684 0.930 . S
H689 C686 0.929 . S
S690 N691 1.613 . S
S690 N692 1.610 . S
N691 S690 1.613 . S
N691 C694 1.350 . S
N692 S690 1.610 . S
N692 C693 1.351 . S
C693 C687 1.428 . S
C693 N692 1.351 . S
C693 C694 1.434 . S
C694 C685 1.429 . S
C694 N691 1.350 . S
C694 C693 1.434 . S
C695 C696 1.369 . S
C695 C697 1.419 . S
C695 H699 0.930 . S
C696 C695 1.369 . S
C696 C705 1.429 . S
C697 C695 1.419 . S
C697 C698 1.363 . S
C697 H700 0.929 . S
C698 C697 1.363 . S
C698 C704 1.428 . S
H699 C695 0.930 . S
H700 C697 0.929 . S
S701 N702 1.613 . S
S701 N703 1.610 . S
N702 S701 1.613 . S
N702 C705 1.350 . S
N703 S701 1.610 . S
N703 C704 1.351 . S
C704 C698 1.428 . S
C704 N703 1.351 . S
C704 C705 1.434 . S
C705 C696 1.429 . S
C705 N702 1.350 . S
C705 C704 1.434 . S
C706 C707 1.369 . S
C706 C708 1.419 . S
C706 H710 0.930 . S
C707 C706 1.369 . S
C707 C716 1.429 . S
C708 C706 1.419 . S
C708 C709 1.363 . S
C708 H711 0.929 . S
C709 C708 1.363 . S
C709 C715 1.428 . S
H710 C706 0.930 . S
H711 C708 0.929 . S
S712 N713 1.613 . S
S712 N714 1.610 . S
N713 S712 1.613 . S
N713 C716 1.350 . S
N714 S712 1.610 . S
N714 C715 1.351 . S
C715 C709 1.428 . S
C715 N714 1.351 . S
C715 C716 1.434 . S
C716 C707 1.429 . S
C716 N713 1.350 . S
C716 C715 1.434 . S
C717 C718 1.369 . S
C717 C719 1.419 . S
C717 H721 0.930 . S
C718 C717 1.369 . S
C718 C727 1.429 . S
C719 C717 1.419 . S
C719 C720 1.363 . S
C719 H722 0.929 . S
C720 C719 1.363 . S
C720 C726 1.428 . S
H721 C717 0.930 . S
H722 C719 0.929 . S
S723 N724 1.613 . S
S723 N725 1.610 . S
N724 S723 1.613 . S
N724 C727 1.350 . S
N725 S723 1.610 . S
N725 C726 1.351 . S
C726 C720 1.428 . S
C726 N725 1.351 . S
C726 C727 1.434 . S
C727 C718 1.429 . S
C727 N724 1.350 . S
C727 C726 1.434 . S
C728 C729 1.369 . S
C728 C730 1.419 . S
C728 H732 0.930 . S
C729 C728 1.369 . S
C729 C738 1.429 . S
C730 C728 1.419 . S
C730 C731 1.363 . S
C730 H733 0.929 . S
C731 C730 1.363 . S
C731 C737 1.428 . S
H732 C728 0.930 . S
H733 C730 0.929 . S
S734 N735 1.613 . S
S734 N736 1.610 . S
N735 S734 1.613 . S
N735 C738 1.350 . S
N736 S734 1.610 . S
N736 C737 1.351 . S
C737 C731 1.428 . S
C737 N736 1.351 . S
C737 C738 1.434 . S
C738 C729 1.429 . S
C738 N735 1.350 . S
C738 C737 1.434 . S
C739 C740 1.369 . S
C739 C741 1.419 . S
C739 H743 0.930 . S
C740 C739 1.369 . S
C740 C749 1.429 . S
C741 C739 1.419 . S
C741 C742 1.363 . S
C741 H744 0.929 . S
C742 C741 1.363 . S
C742 C748 1.428 . S
H743 C739 0.930 . S
H744 C741 0.929 . S
S745 N746 1.613 . S
S745 N747 1.610 . S
N746 S745 1.613 . S
N746 C749 1.350 . S
N747 S745 1.610 . S
N747 C748 1.351 . S
C748 C742 1.428 . S
C748 N747 1.351 . S
C748 C749 1.434 . S
C749 C740 1.429 . S
C749 N746 1.350 . S
C749 C748 1.434 . S
C750 C751 1.369 . S
C750 C752 1.419 . S
C750 H754 0.930 . S
C751 C750 1.369 . S
C751 C760 1.429 . S
C752 C750 1.419 . S
C752 C753 1.363 . S
C752 H755 0.929 . S
C753 C752 1.363 . S
C753 C759 1.428 . S
H754 C750 0.930 . S
H755 C752 0.929 . S
S756 N757 1.613 . S
S756 N758 1.610 . S
N757 S756 1.613 . S
N757 C760 1.350 . S
N758 S756 1.610 . S
N758 C759 1.351 . S
C759 C753 1.428 . S
C759 N758 1.351 . S
C759 C760 1.434 . S
C760 C751 1.429 . S
C760 N757 1.350 . S
C760 C759 1.434 . S
C761 C762 1.369 . S
C761 C763 1.419 . S
C761 H765 0.930 . S
C762 C761 1.369 . S
C762 C771 1.429 . S
C763 C761 1.419 . S
C763 C764 1.363 . S
C763 H766 0.929 . S
C764 C763 1.363 . S
C764 C770 1.428 . S
H765 C761 0.930 . S
H766 C763 0.929 . S
S767 N768 1.613 . S
S767 N769 1.610 . S
N768 S767 1.613 . S
N768 C771 1.350 . S
N769 S767 1.610 . S
N769 C770 1.351 . S
C770 C764 1.428 . S
C770 N769 1.351 . S
C770 C771 1.434 . S
C771 C762 1.429 . S
C771 N768 1.350 . S
C771 C770 1.434 . S
C772 C773 1.369 . S
C772 C774 1.419 . S
C772 H776 0.930 . S
C773 C772 1.369 . S
C773 C782 1.429 . S
C774 C772 1.419 . S
C774 C775 1.363 . S
C774 H777 0.929 . S
C775 C774 1.363 . S
C775 C781 1.428 . S
H776 C772 0.930 . S
H777 C774 0.929 . S
S778 N779 1.613 . S
S778 N780 1.610 . S
N779 S778 1.613 . S
N779 C782 1.350 . S
N780 S778 1.610 . S
N780 C781 1.351 . S
C781 C775 1.428 . S
C781 N780 1.351 . S
C781 C782 1.434 . S
C782 C773 1.429 . S
C782 N779 1.350 . S
C782 C781 1.434 . S
C783 C784 1.369 . S
C783 C785 1.419 . S
C783 H787 0.930 . S
C784 C783 1.369 . S
C784 C793 1.429 . S
C785 C783 1.419 . S
C785 C786 1.363 . S
C785 H788 0.929 . S
C786 C785 1.363 . S
C786 C792 1.428 . S
H787 C783 0.930 . S
H788 C785 0.929 . S
S789 N790 1.613 . S
S789 N791 1.610 . S
N790 S789 1.613 . S
N790 C793 1.350 . S
N791 S789 1.610 . S
N791 C792 1.351 . S
C792 C786 1.428 . S
C792 N791 1.351 . S
C792 C793 1.434 . S
C793 C784 1.429 . S
C793 N790 1.350 . S
C793 C792 1.434 . S
C794 C795 1.369 . S
C794 C796 1.419 . S
C794 H798 0.930 . S
C795 C794 1.369 . S
C795 C804 1.429 . S
C796 C794 1.419 . S
C796 C797 1.363 . S
C796 H799 0.929 . S
C797 C796 1.363 . S
C797 C803 1.428 . S
H798 C794 0.930 . S
H799 C796 0.929 . S
S800 N801 1.613 . S
S800 N802 1.610 . S
N801 S800 1.613 . S
N801 C804 1.350 . S
N802 S800 1.610 . S
N802 C803 1.351 . S
C803 C797 1.428 . S
C803 N802 1.351 . S
C803 C804 1.434 . S
C804 C795 1.429 . S
C804 N801 1.350 . S
C804 C803 1.434 . S
C805 C806 1.369 . S
C805 C807 1.419 . S
C805 H809 0.930 . S
C806 C805 1.369 . S
C806 C815 1.429 . S
C807 C805 1.419 . S
C807 C808 1.363 . S
C807 H810 0.929 . S
C808 C807 1.363 . S
C808 C814 1.428 . S
H809 C805 0.930 . S
H810 C807 0.929 . S
S811 N812 1.613 . S
S811 N813 1.610 . S
N812 S811 1.613 . S
N812 C815 1.350 . S
N813 S811 1.610 . S
N813 C814 1.351 . S
C814 C808 1.428 . S
C814 N813 1.351 . S
C814 C815 1.434 . S
C815 C806 1.429 . S
C815 N812 1.350 . S
C815 C814 1.434 . S
C816 C817 1.369 . S
C816 C818 1.419 . S
C816 H820 0.930 . S
C817 C816 1.369 . S
C817 C826 1.429 1_565 S
C818 C816 1.419 . S
C818 C819 1.363 1_565 S
C818 H821 0.929 . S
C819 C818 1.363 1_545 S
C819 C825 1.428 . S
H820 C816 0.930 . S
H821 C818 0.929 . S
S822 N823 1.613 . S
S822 N824 1.610 . S
N823 S822 1.613 . S
N823 C826 1.350 . S
N824 S822 1.610 . S
N824 C825 1.351 . S
C825 C819 1.428 . S
C825 N824 1.351 . S
C825 C826 1.434 . S
C826 C817 1.429 1_545 S
C826 N823 1.350 . S
C826 C825 1.434 . S
C827 C828 1.369 . S
C827 C829 1.419 . S
C827 H831 0.930 . S
C828 C827 1.369 . S
C828 C837 1.429 1_455 S
C829 C827 1.419 . S
C829 C830 1.363 1_455 S
C829 H832 0.929 . S
C830 C829 1.363 1_655 S
C830 C836 1.428 . S
H831 C827 0.930 . S
H832 C829 0.929 . S
S833 N834 1.613 . S
S833 N835 1.610 . S
N834 S833 1.613 . S
N834 C837 1.350 . S
N835 S833 1.610 . S
N835 C836 1.351 . S
C836 C830 1.428 . S
C836 N835 1.351 . S
C836 C837 1.434 . S
C837 C828 1.429 1_655 S
C837 N834 1.350 . S
C837 C836 1.434 . S
C838 C839 1.369 . S
C838 C840 1.440 . S
C838 H842 0.930 . S
C839 C838 1.369 . S
C839 C848 1.429 1_556 S
C840 C838 1.440 . S
C840 C841 1.339 1_556 S
C840 H843 0.932 . S
C841 C840 1.339 1_554 S
C841 C847 1.428 . S
H842 C838 0.930 . S
H843 C840 0.932 . S
S844 N845 1.613 . S
S844 N846 1.610 . S
N845 S844 1.613 . S
N845 C848 1.350 . S
N846 S844 1.610 . S
N846 C847 1.351 . S
C847 C841 1.428 . S
C847 N846 1.351 . S
C847 C848 1.434 . S
C848 C839 1.429 1_554 S
C848 N845 1.350 . S
C848 C847 1.434 . S
C849 C850 1.369 1_556 S
C849 C851 1.419 . S
C849 H853 0.930 . S
C850 C849 1.369 1_554 S
C850 C859 1.429 1_665 S
C851 C849 1.419 . S
C851 C852 1.363 1_665 S
C851 H854 0.929 . S
C852 C851 1.363 1_445 S
C852 C858 1.428 1_556 S
H853 C849 0.930 . S
H854 C851 0.929 . S
S855 N856 1.613 . S
S855 N857 1.610 . S
N856 S855 1.613 . S
N856 C859 1.350 . S
N857 S855 1.610 . S
N857 C858 1.351 . S
C858 C852 1.428 1_554 S
C858 N857 1.351 . S
C858 C859 1.434 . S
C859 C850 1.429 1_445 S
C859 N856 1.350 . S
C859 C858 1.434 . S
C860 C861 1.369 1_565 S
C860 C862 1.419 . S
C860 H864 0.930 . S
C861 C860 1.369 1_545 S
C861 C870 1.429 . S
C862 C860 1.419 . S
C862 C863 1.363 . S
C862 H865 0.929 . S
C863 C862 1.363 . S
C863 C869 1.428 1_565 S
H864 C860 0.930 . S
H865 C862 0.929 . S
S866 N867 1.613 . S
S866 N868 1.610 . S
N867 S866 1.613 . S
N867 C870 1.350 . S
N868 S866 1.610 . S
N868 C869 1.351 . S
C869 C863 1.428 1_545 S
C869 N868 1.351 . S
C869 C870 1.434 . S
C870 C861 1.429 . S
C870 N867 1.350 . S
C870 C869 1.434 . S
C871 C872 1.369 1_655 S
C871 C873 1.419 . S
C871 H875 0.930 . S
C872 C871 1.369 1_455 S
C872 C881 1.429 . S
C873 C871 1.419 . S
C873 C874 1.363 . S
C873 H876 0.929 . S
C874 C873 1.363 . S
C874 C880 1.428 1_655 S
H875 C871 0.930 . S
H876 C873 0.929 . S
S877 N878 1.613 . S
S877 N879 1.610 . S
N878 S877 1.613 . S
N878 C881 1.350 . S
N879 S877 1.610 . S
N879 C880 1.351 . S
C880 C874 1.428 1_455 S
C880 N879 1.351 . S
C880 C881 1.434 . S
C881 C872 1.429 . S
C881 N878 1.350 . S
C881 C880 1.434 . S
C882 C883 1.357 1_554 S
C882 C884 1.430 . S
C882 H886 0.931 . S
C883 C882 1.357 1_556 S
C883 C892 1.429 . S
C884 C882 1.430 . S
C884 C885 1.363 . S
C884 H887 0.929 . S
C885 C884 1.363 . S
C885 C891 1.428 1_554 S
H886 C882 0.931 . S
H887 C884 0.929 . S
S888 N889 1.613 . S
S888 N890 1.610 . S
N889 S888 1.613 . S
N889 C892 1.350 . S
N890 S888 1.610 . S
N890 C891 1.351 . S
C891 C885 1.428 1_556 S
C891 N890 1.351 . S
C891 C892 1.434 . S
C892 C883 1.429 . S
C892 N889 1.350 . S
C892 C891 1.434 . S
C893 C894 1.369 . S
C893 C895 1.419 . S
C893 H897 0.930 . S
C894 C893 1.369 . S
C894 C903 1.429 . S
C895 C893 1.419 . S
C895 C896 1.363 . S
C895 H898 0.929 . S
C896 C895 1.363 . S
C896 C902 1.428 . S
H897 C893 0.930 . S
H898 C895 0.929 . S
S899 N900 1.613 . S
S899 N901 1.610 . S
N900 S899 1.613 . S
N900 C903 1.350 . S
N901 S899 1.610 . S
N901 C902 1.351 . S
C902 C896 1.428 . S
C902 N901 1.351 . S
C902 C903 1.434 . S
C903 C894 1.429 . S
C903 N900 1.350 . S
C903 C902 1.434 . S
C904 C905 1.369 . S
C904 C906 1.419 . S
C904 H908 0.930 . S
C905 C904 1.369 . S
C905 C914 1.429 . S
C906 C904 1.419 . S
C906 C907 1.363 . S
C906 H909 0.929 . S
C907 C906 1.363 . S
C907 C913 1.428 . S
H908 C904 0.930 . S
H909 C906 0.929 . S
S910 N911 1.613 . S
S910 N912 1.610 . S
N911 S910 1.613 . S
N911 C914 1.350 . S
N912 S910 1.610 . S
N912 C913 1.351 . S
C913 C907 1.428 . S
C913 N912 1.351 . S
C913 C914 1.434 . S
C914 C905 1.429 . S
C914 N911 1.350 . S
C914 C913 1.434 . S
C915 C916 1.369 1_655 S
C915 C917 1.419 . S
C915 H919 0.930 . S
C916 C915 1.369 1_455 S
C916 C925 1.429 . S
C917 C915 1.419 . S
C917 C918 1.363 . S
C917 H920 0.929 . S
C918 C917 1.363 . S
C918 C924 1.428 1_655 S
H919 C915 0.930 . S
H920 C917 0.929 . S
S921 N922 1.613 . S
S921 N923 1.610 . S
N922 S921 1.613 . S
N922 C925 1.350 . S
N923 S921 1.610 . S
N923 C924 1.351 . S
C924 C918 1.428 1_455 S
C924 N923 1.351 . S
C924 C925 1.434 . S
C925 C916 1.429 . S
C925 N922 1.350 . S
C925 C924 1.434 . S
C926 C927 1.369 . S
C926 C928 1.419 . S
C926 H930 0.930 . S
C927 C926 1.369 . S
C927 C936 1.429 . S
C928 C926 1.419 . S
C928 C929 1.363 . S
C928 H931 0.929 . S
C929 C928 1.363 . S
C929 C935 1.428 . S
H930 C926 0.930 . S
H931 C928 0.929 . S
S932 N933 1.613 . S
S932 N934 1.610 . S
N933 S932 1.613 . S
N933 C936 1.350 . S
N934 S932 1.610 . S
N934 C935 1.351 . S
C935 C929 1.428 . S
C935 N934 1.351 . S
C935 C936 1.434 . S
C936 C927 1.429 . S
C936 N933 1.350 . S
C936 C935 1.434 . S
C937 C938 1.369 . S
C937 C939 1.419 . S
C937 H941 0.930 . S
C938 C937 1.369 . S
C938 C947 1.429 . S
C939 C937 1.419 . S
C939 C940 1.363 . S
C939 H942 0.929 . S
C940 C939 1.363 . S
C940 C946 1.428 . S
H941 C937 0.930 . S
H942 C939 0.929 . S
S943 N944 1.613 . S
S943 N945 1.610 . S
N944 S943 1.613 . S
N944 C947 1.350 . S
N945 S943 1.610 . S
N945 C946 1.351 . S
C946 C940 1.428 . S
C946 N945 1.351 . S
C946 C947 1.434 . S
C947 C938 1.429 . S
C947 N944 1.350 . S
C947 C946 1.434 . S
C948 C949 1.369 . S
C948 C950 1.419 . S
C948 H952 0.930 . S
C949 C948 1.369 . S
C949 C958 1.429 . S
C950 C948 1.419 . S
C950 C951 1.363 . S
C950 H953 0.929 . S
C951 C950 1.363 . S
C951 C957 1.428 . S
H952 C948 0.930 . S
H953 C950 0.929 . S
S954 N955 1.613 . S
S954 N956 1.610 . S
N955 S954 1.613 . S
N955 C958 1.350 . S
N956 S954 1.610 . S
N956 C957 1.351 . S
C957 C951 1.428 . S
C957 N956 1.351 . S
C957 C958 1.434 . S
C958 C949 1.429 . S
C958 N955 1.350 . S
C958 C957 1.434 . S
C959 C960 1.369 1_545 S
C959 C961 1.419 . S
C959 H963 0.930 . S
C960 C959 1.369 1_565 S
C960 C969 1.429 . S
C961 C959 1.419 . S
C961 C962 1.363 . S
C961 H964 0.929 . S
C962 C961 1.363 . S
C962 C968 1.428 1_545 S
H963 C959 0.930 . S
H964 C961 0.929 . S
S965 N966 1.613 . S
S965 N967 1.610 . S
N966 S965 1.613 . S
N966 C969 1.350 . S
N967 S965 1.610 . S
N967 C968 1.351 . S
C968 C962 1.428 1_565 S
C968 N967 1.351 . S
C968 C969 1.434 . S
C969 C960 1.429 . S
C969 N966 1.350 . S
C969 C968 1.434 . S
C970 C971 1.369 . S
C970 C972 1.419 . S
C970 H974 0.930 . S
C971 C970 1.369 . S
C971 C980 1.429 . S
C972 C970 1.419 . S
C972 C973 1.363 . S
C972 H975 0.929 . S
C973 C972 1.363 . S
C973 C979 1.428 . S
H974 C970 0.930 . S
H975 C972 0.929 . S
S976 N977 1.613 . S
S976 N978 1.610 . S
N977 S976 1.613 . S
N977 C980 1.350 . S
N978 S976 1.610 . S
N978 C979 1.351 . S
C979 C973 1.428 . S
C979 N978 1.351 . S
C979 C980 1.434 . S
C980 C971 1.429 . S
C980 N977 1.350 . S
C980 C979 1.434 . S
C981 C982 1.390 . S
C981 C983 1.398 1_554 S
C981 H985 0.929 1_554 S
C982 C981 1.390 . S
C982 C991 1.429 . S
C983 C981 1.398 1_556 S
C983 C984 1.363 . S
C983 H986 0.929 . S
C984 C983 1.363 . S
C984 C990 1.413 1_556 S
H985 C981 0.929 1_556 S
H986 C983 0.929 . S
S987 N988 1.613 . S
S987 N989 1.610 . S
N988 S987 1.613 . S
N988 C991 1.350 . S
N989 S987 1.610 . S
N989 C990 1.354 . S
C990 C984 1.413 1_554 S
C990 N989 1.354 . S
C990 C991 1.449 . S
C991 C982 1.429 . S
C991 N988 1.350 . S
C991 C990 1.449 . S
C992 C993 1.369 . S
C992 C994 1.419 . S
C992 H996 0.930 1_545 S
C993 C992 1.369 . S
C993 C1002 1.429 . S
C994 C992 1.419 . S
C994 C995 1.363 . S
C994 H997 0.929 1_545 S
C995 C994 1.363 . S
C995 C1001 1.428 . S
H996 C992 0.930 1_565 S
H997 C994 0.929 1_565 S
S998 N999 1.613 . S
S998 N1000 1.610 . S
N999 S998 1.613 . S
N999 C1002 1.350 . S
N1000 S998 1.610 . S
N1000 C1001 1.351 . S
C1001 C995 1.428 . S
C1001 N1000 1.351 . S
C1001 C1002 1.434 . S
C1002 C993 1.429 . S
C1002 N999 1.350 . S
C1002 C1001 1.434 . S
C1003 C1004 1.369 . S
C1003 C1005 1.419 . S
C1003 H1007 0.930 . S
C1004 C1003 1.369 . S
C1004 C1013 1.429 . S
C1005 C1003 1.419 . S
C1005 C1006 1.363 . S
C1005 H1008 0.929 . S
C1006 C1005 1.363 . S
C1006 C1012 1.428 . S
H1007 C1003 0.930 . S
H1008 C1005 0.929 . S
S1009 N1010 1.613 . S
S1009 N1011 1.610 . S
N1010 S1009 1.613 . S
N1010 C1013 1.350 . S
N1011 S1009 1.610 . S
N1011 C1012 1.351 . S
C1012 C1006 1.428 . S
C1012 N1011 1.351 . S
C1012 C1013 1.434 . S
C1013 C1004 1.429 . S
C1013 N1010 1.350 . S
C1013 C1012 1.434 . S
C1014 C1015 1.369 . S
C1014 C1016 1.419 . S
C1014 H1018 0.930 . S
C1015 C1014 1.369 . S
C1015 C1024 1.429 . S
C1016 C1014 1.419 . S
C1016 C1017 1.363 . S
C1016 H1019 0.929 . S
C1017 C1016 1.363 . S
C1017 C1023 1.428 . S
H1018 C1014 0.930 . S
H1019 C1016 0.929 . S
S1020 N1021 1.613 . S
S1020 N1022 1.610 . S
N1021 S1020 1.613 . S
N1021 C1024 1.350 . S
N1022 S1020 1.610 . S
N1022 C1023 1.351 . S
C1023 C1017 1.428 . S
C1023 N1022 1.351 . S
C1023 C1024 1.434 . S
C1024 C1015 1.429 . S
C1024 N1021 1.350 . S
C1024 C1023 1.434 . S
C1025 C1026 1.369 1_565 S
C1025 C1027 1.419 . S
C1025 H1029 0.930 . S
C1026 C1025 1.369 1_545 S
C1026 C1035 1.429 . S
C1027 C1025 1.419 . S
C1027 C1028 1.363 1_565 S
C1027 H1030 0.929 . S
C1028 C1027 1.363 1_545 S
C1028 C1034 1.428 . S
H1029 C1025 0.930 . S
H1030 C1027 0.929 . S
S1031 N1032 1.613 . S
S1031 N1033 1.610 . S
N1032 S1031 1.613 . S
N1032 C1035 1.350 . S
N1033 S1031 1.610 . S
N1033 C1034 1.351 . S
C1034 C1028 1.428 . S
C1034 N1033 1.351 . S
C1034 C1035 1.434 . S
C1035 C1026 1.429 . S
C1035 N1032 1.350 . S
C1035 C1034 1.434 . S
C1036 C1037 1.369 1_545 S
C1036 C1038 1.419 . S
C1036 H1040 0.930 . S
C1037 C1036 1.369 1_565 S
C1037 C1046 1.429 . S
C1038 C1036 1.419 . S
C1038 C1039 1.363 1_545 S
C1038 H1041 0.929 . S
C1039 C1038 1.363 1_565 S
C1039 C1045 1.428 . S
H1040 C1036 0.930 . S
H1041 C1038 0.929 . S
S1042 N1043 1.613 . S
S1042 N1044 1.610 . S
N1043 S1042 1.613 . S
N1043 C1046 1.350 . S
N1044 S1042 1.610 . S
N1044 C1045 1.351 . S
C1045 C1039 1.428 . S
C1045 N1044 1.351 . S
C1045 C1046 1.434 . S
C1046 C1037 1.429 . S
C1046 N1043 1.350 . S
C1046 C1045 1.434 . S
C1047 C1048 1.369 . S
C1047 C1049 1.419 . S
C1047 H1051 0.930 . S
C1048 C1047 1.369 . S
C1048 C1057 1.429 . S
C1049 C1047 1.419 . S
C1049 C1050 1.363 . S
C1049 H1052 0.929 . S
C1050 C1049 1.363 . S
C1050 C1056 1.428 . S
H1051 C1047 0.930 . S
H1052 C1049 0.929 . S
S1053 N1054 1.613 . S
S1053 N1055 1.610 . S
N1054 S1053 1.613 . S
N1054 C1057 1.350 . S
N1055 S1053 1.610 . S
N1055 C1056 1.351 . S
C1056 C1050 1.428 . S
C1056 N1055 1.351 . S
C1056 C1057 1.434 . S
C1057 C1048 1.429 . S
C1057 N1054 1.350 . S
C1057 C1056 1.434 . S
C1058 C1059 1.369 . S
C1058 C1060 1.419 . S
C1058 H1062 0.930 . S
C1059 C1058 1.369 . S
C1059 C1068 1.429 . S
C1060 C1058 1.419 . S
C1060 C1061 1.363 . S
C1060 H1063 0.929 . S
C1061 C1060 1.363 . S
C1061 C1067 1.428 . S
H1062 C1058 0.930 . S
H1063 C1060 0.929 . S
S1064 N1065 1.613 . S
S1064 N1066 1.610 . S
N1065 S1064 1.613 . S
N1065 C1068 1.350 . S
N1066 S1064 1.610 . S
N1066 C1067 1.351 . S
C1067 C1061 1.428 . S
C1067 N1066 1.351 . S
C1067 C1068 1.434 . S
C1068 C1059 1.429 . S
C1068 N1065 1.350 . S
C1068 C1067 1.434 . S
C1069 C1070 1.369 1_545 S
C1069 C1071 1.419 . S
C1069 H1073 0.930 . S
C1070 C1069 1.369 1_565 S
C1070 C1079 1.429 . S
C1071 C1069 1.419 . S
C1071 C1072 1.363 1_545 S
C1071 H1074 0.929 . S
C1072 C1071 1.363 1_565 S
C1072 C1078 1.428 . S
H1073 C1069 0.930 . S
H1074 C1071 0.929 . S
S1075 N1076 1.613 . S
S1075 N1077 1.610 . S
N1076 S1075 1.613 . S
N1076 C1079 1.350 . S
N1077 S1075 1.610 . S
N1077 C1078 1.351 . S
C1078 C1072 1.428 . S
C1078 N1077 1.351 . S
C1078 C1079 1.434 . S
C1079 C1070 1.429 . S
C1079 N1076 1.350 . S
C1079 C1078 1.434 . S
C1080 C1081 1.369 . S
C1080 C1082 1.419 . S
C1080 H1084 0.930 . S
C1081 C1080 1.369 . S
C1081 C1090 1.429 . S
C1082 C1080 1.419 . S
C1082 C1083 1.363 . S
C1082 H1085 0.929 . S
C1083 C1082 1.363 . S
C1083 C1089 1.428 . S
H1084 C1080 0.930 . S
H1085 C1082 0.929 . S
S1086 N1087 1.613 . S
S1086 N1088 1.610 . S
N1087 S1086 1.613 . S
N1087 C1090 1.350 . S
N1088 S1086 1.610 . S
N1088 C1089 1.351 . S
C1089 C1083 1.428 . S
C1089 N1088 1.351 . S
C1089 C1090 1.434 . S
C1090 C1081 1.429 . S
C1090 N1087 1.350 . S
C1090 C1089 1.434 . S
C1091 C1092 1.369 . S
C1091 C1093 1.419 . S
C1091 H1095 0.930 . S
C1092 C1091 1.369 . S
C1092 C1101 1.429 . S
C1093 C1091 1.419 . S
C1093 C1094 1.363 . S
C1093 H1096 0.929 . S
C1094 C1093 1.363 . S
C1094 C1100 1.428 . S
H1095 C1091 0.930 . S
H1096 C1093 0.929 . S
S1097 N1098 1.613 . S
S1097 N1099 1.610 . S
N1098 S1097 1.613 . S
N1098 C1101 1.350 . S
N1099 S1097 1.610 . S
N1099 C1100 1.351 . S
C1100 C1094 1.428 . S
C1100 N1099 1.351 . S
C1100 C1101 1.434 . S
C1101 C1092 1.429 . S
C1101 N1098 1.350 . S
C1101 C1100 1.434 . S
C1102 C1103 1.369 . S
C1102 C1104 1.419 . S
C1102 H1106 0.930 . S
C1103 C1102 1.369 . S
C1103 C1112 1.429 . S
C1104 C1102 1.419 . S
C1104 C1105 1.363 . S
C1104 H1107 0.929 . S
C1105 C1104 1.363 . S
C1105 C1111 1.428 . S
H1106 C1102 0.930 . S
H1107 C1104 0.929 . S
S1108 N1109 1.613 . S
S1108 N1110 1.610 . S
N1109 S1108 1.613 . S
N1109 C1112 1.350 . S
N1110 S1108 1.610 . S
N1110 C1111 1.351 . S
C1111 C1105 1.428 . S
C1111 N1110 1.351 . S
C1111 C1112 1.434 . S
C1112 C1103 1.429 . S
C1112 N1109 1.350 . S
C1112 C1111 1.434 . S
C1113 C1114 1.369 . S
C1113 C1115 1.419 . S
C1113 H1117 0.930 . S
C1114 C1113 1.369 . S
C1114 C1123 1.429 . S
C1115 C1113 1.419 . S
C1115 C1116 1.363 . S
C1115 H1118 0.929 . S
C1116 C1115 1.363 . S
C1116 C1122 1.428 . S
H1117 C1113 0.930 . S
H1118 C1115 0.929 . S
S1119 N1120 1.613 . S
S1119 N1121 1.610 . S
N1120 S1119 1.613 . S
N1120 C1123 1.350 . S
N1121 S1119 1.610 . S
N1121 C1122 1.351 . S
C1122 C1116 1.428 . S
C1122 N1121 1.351 . S
C1122 C1123 1.434 . S
C1123 C1114 1.429 . S
C1123 N1120 1.350 . S
C1123 C1122 1.434 . S
C1124 C1125 1.369 . S
C1124 C1126 1.419 . S
C1124 H1128 0.930 . S
C1125 C1124 1.369 . S
C1125 C1134 1.429 . S
C1126 C1124 1.419 . S
C1126 C1127 1.363 . S
C1126 H1129 0.929 . S
C1127 C1126 1.363 . S
C1127 C1133 1.428 . S
H1128 C1124 0.930 . S
H1129 C1126 0.929 . S
S1130 N1131 1.613 . S
S1130 N1132 1.610 . S
N1131 S1130 1.613 . S
N1131 C1134 1.350 . S
N1132 S1130 1.610 . S
N1132 C1133 1.351 . S
C1133 C1127 1.428 . S
C1133 N1132 1.351 . S
C1133 C1134 1.434 . S
C1134 C1125 1.429 . S
C1134 N1131 1.350 . S
C1134 C1133 1.434 . S
C1135 C1136 1.369 . S
C1135 C1137 1.419 . S
C1135 H1139 0.930 . S
C1136 C1135 1.369 . S
C1136 C1145 1.429 . S
C1137 C1135 1.419 . S
C1137 C1138 1.363 . S
C1137 H1140 0.929 . S
C1138 C1137 1.363 . S
C1138 C1144 1.428 . S
H1139 C1135 0.930 . S
H1140 C1137 0.929 . S
S1141 N1142 1.613 . S
S1141 N1143 1.610 . S
N1142 S1141 1.613 . S
N1142 C1145 1.350 . S
N1143 S1141 1.610 . S
N1143 C1144 1.351 . S
C1144 C1138 1.428 . S
C1144 N1143 1.351 . S
C1144 C1145 1.434 . S
C1145 C1136 1.429 . S
C1145 N1142 1.350 . S
C1145 C1144 1.434 . S
C1146 C1147 1.369 . S
C1146 C1148 1.419 . S
C1146 H1150 0.930 . S
C1147 C1146 1.369 . S
C1147 C1156 1.429 . S
C1148 C1146 1.419 . S
C1148 C1149 1.363 . S
C1148 H1151 0.929 . S
C1149 C1148 1.363 . S
C1149 C1155 1.428 . S
H1150 C1146 0.930 . S
H1151 C1148 0.929 . S
S1152 N1153 1.613 . S
S1152 N1154 1.610 . S
N1153 S1152 1.613 . S
N1153 C1156 1.350 . S
N1154 S1152 1.610 . S
N1154 C1155 1.351 . S
C1155 C1149 1.428 . S
C1155 N1154 1.351 . S
C1155 C1156 1.434 . S
C1156 C1147 1.429 . S
C1156 N1153 1.350 . S
C1156 C1155 1.434 . S
C1157 C1158 1.369 . S
C1157 C1159 1.419 . S
C1157 H1161 0.930 . S
C1158 C1157 1.369 . S
C1158 C1167 1.429 . S
C1159 C1157 1.419 . S
C1159 C1160 1.363 . S
C1159 H1162 0.929 . S
C1160 C1159 1.363 . S
C1160 C1166 1.428 . S
H1161 C1157 0.930 . S
H1162 C1159 0.929 . S
S1163 N1164 1.613 . S
S1163 N1165 1.610 . S
N1164 S1163 1.613 . S
N1164 C1167 1.350 . S
N1165 S1163 1.610 . S
N1165 C1166 1.351 . S
C1166 C1160 1.428 . S
C1166 N1165 1.351 . S
C1166 C1167 1.434 . S
C1167 C1158 1.429 . S
C1167 N1164 1.350 . S
C1167 C1166 1.434 . S
C1168 C1169 1.369 . S
C1168 C1170 1.419 . S
C1168 H1172 0.930 . S
C1169 C1168 1.369 . S
C1169 C1178 1.429 . S
C1170 C1168 1.419 . S
C1170 C1171 1.363 . S
C1170 H1173 0.929 . S
C1171 C1170 1.363 . S
C1171 C1177 1.428 . S
H1172 C1168 0.930 . S
H1173 C1170 0.929 . S
S1174 N1175 1.613 . S
S1174 N1176 1.610 . S
N1175 S1174 1.613 . S
N1175 C1178 1.350 . S
N1176 S1174 1.610 . S
N1176 C1177 1.351 . S
C1177 C1171 1.428 . S
C1177 N1176 1.351 . S
C1177 C1178 1.434 . S
C1178 C1169 1.429 . S
C1178 N1175 1.350 . S
C1178 C1177 1.434 . S
C1179 C1180 1.369 . S
C1179 C1181 1.419 . S
C1179 H1183 0.930 . S
C1180 C1179 1.369 . S
C1180 C1189 1.429 . S
C1181 C1179 1.419 . S
C1181 C1182 1.363 . S
C1181 H1184 0.929 . S
C1182 C1181 1.363 . S
C1182 C1188 1.428 . S
H1183 C1179 0.930 . S
H1184 C1181 0.929 . S
S1185 N1186 1.613 . S
S1185 N1187 1.610 . S
N1186 S1185 1.613 . S
N1186 C1189 1.350 . S
N1187 S1185 1.610 . S
N1187 C1188 1.351 . S
C1188 C1182 1.428 . S
C1188 N1187 1.351 . S
C1188 C1189 1.434 . S
C1189 C1180 1.429 . S
C1189 N1186 1.350 . S
C1189 C1188 1.434 . S
C1190 C1191 1.369 . S
C1190 C1192 1.419 . S
C1190 H1194 0.930 . S
C1191 C1190 1.369 . S
C1191 C1200 1.429 . S
C1192 C1190 1.419 . S
C1192 C1193 1.363 . S
C1192 H1195 0.929 . S
C1193 C1192 1.363 . S
C1193 C1199 1.428 . S
H1194 C1190 0.930 . S
H1195 C1192 0.929 . S
S1196 N1197 1.613 . S
S1196 N1198 1.610 . S
N1197 S1196 1.613 . S
N1197 C1200 1.350 . S
N1198 S1196 1.610 . S
N1198 C1199 1.351 . S
C1199 C1193 1.428 . S
C1199 N1198 1.351 . S
C1199 C1200 1.434 . S
C1200 C1191 1.429 . S
C1200 N1197 1.350 . S
C1200 C1199 1.434 . S
C1201 C1202 1.369 . S
C1201 C1203 1.419 . S
C1201 H1205 0.930 . S
C1202 C1201 1.369 . S
C1202 C1211 1.429 . S
C1203 C1201 1.419 . S
C1203 C1204 1.363 . S
C1203 H1206 0.929 . S
C1204 C1203 1.363 . S
C1204 C1210 1.428 . S
H1205 C1201 0.930 . S
H1206 C1203 0.929 . S
S1207 N1208 1.613 . S
S1207 N1209 1.610 . S
N1208 S1207 1.613 . S
N1208 C1211 1.350 . S
N1209 S1207 1.610 . S
N1209 C1210 1.351 . S
C1210 C1204 1.428 . S
C1210 N1209 1.351 . S
C1210 C1211 1.434 . S
C1211 C1202 1.429 . S
C1211 N1208 1.350 . S
C1211 C1210 1.434 . S
C1212 C1213 1.369 . S
C1212 C1214 1.419 . S
C1212 H1216 0.930 . S
C1213 C1212 1.369 . S
C1213 C1222 1.429 . S
C1214 C1212 1.419 . S
C1214 C1215 1.363 . S
C1214 H1217 0.929 . S
C1215 C1214 1.363 . S
C1215 C1221 1.428 . S
H1216 C1212 0.930 . S
H1217 C1214 0.929 . S
S1218 N1219 1.613 . S
S1218 N1220 1.610 . S
N1219 S1218 1.613 . S
N1219 C1222 1.350 . S
N1220 S1218 1.610 . S
N1220 C1221 1.351 . S
C1221 C1215 1.428 . S
C1221 N1220 1.351 . S
C1221 C1222 1.434 . S
C1222 C1213 1.429 . S
C1222 N1219 1.350 . S
C1222 C1221 1.434 . S
C1223 C1224 1.369 . S
C1223 C1225 1.419 . S
C1223 H1227 0.930 . S
C1224 C1223 1.369 . S
C1224 C1233 1.429 . S
C1225 C1223 1.419 . S
C1225 C1226 1.363 . S
C1225 H1228 0.929 . S
C1226 C1225 1.363 . S
C1226 C1232 1.428 . S
H1227 C1223 0.930 . S
H1228 C1225 0.929 . S
S1229 N1230 1.613 . S
S1229 N1231 1.610 . S
N1230 S1229 1.613 . S
N1230 C1233 1.350 . S
N1231 S1229 1.610 . S
N1231 C1232 1.351 . S
C1232 C1226 1.428 . S
C1232 N1231 1.351 . S
C1232 C1233 1.434 . S
C1233 C1224 1.429 . S
C1233 N1230 1.350 . S
C1233 C1232 1.434 . S
C1234 C1235 1.369 . S
C1234 C1236 1.419 . S
C1234 H1238 0.930 . S
C1235 C1234 1.369 . S
C1235 C1244 1.429 . S
C1236 C1234 1.419 . S
C1236 C1237 1.363 . S
C1236 H1239 0.929 . S
C1237 C1236 1.363 . S
C1237 C1243 1.428 . S
H1238 C1234 0.930 . S
H1239 C1236 0.929 . S
S1240 N1241 1.613 . S
S1240 N1242 1.610 . S
N1241 S1240 1.613 . S
N1241 C1244 1.350 . S
N1242 S1240 1.610 . S
N1242 C1243 1.351 . S
C1243 C1237 1.428 . S
C1243 N1242 1.351 . S
C1243 C1244 1.434 . S
C1244 C1235 1.429 . S
C1244 N1241 1.350 . S
C1244 C1243 1.434 . S
C1245 C1246 1.369 . S
C1245 C1247 1.419 . S
C1245 H1249 0.930 . S
C1246 C1245 1.369 . S
C1246 C1255 1.429 . S
C1247 C1245 1.419 . S
C1247 C1248 1.363 . S
C1247 H1250 0.929 . S
C1248 C1247 1.363 . S
C1248 C1254 1.428 . S
H1249 C1245 0.930 . S
H1250 C1247 0.929 . S
S1251 N1252 1.613 . S
S1251 N1253 1.610 . S
N1252 S1251 1.613 . S
N1252 C1255 1.350 . S
N1253 S1251 1.610 . S
N1253 C1254 1.351 . S
C1254 C1248 1.428 . S
C1254 N1253 1.351 . S
C1254 C1255 1.434 . S
C1255 C1246 1.429 . S
C1255 N1252 1.350 . S
C1255 C1254 1.434 . S
C1256 C1257 1.369 . S
C1256 C1258 1.419 . S
C1256 H1260 0.930 . S
C1257 C1256 1.369 . S
C1257 C1266 1.429 . S
C1258 C1256 1.419 . S
C1258 C1259 1.363 . S
C1258 H1261 0.929 . S
C1259 C1258 1.363 . S
C1259 C1265 1.428 . S
H1260 C1256 0.930 . S
H1261 C1258 0.929 . S
S1262 N1263 1.613 . S
S1262 N1264 1.610 . S
N1263 S1262 1.613 . S
N1263 C1266 1.350 . S
N1264 S1262 1.610 . S
N1264 C1265 1.351 . S
C1265 C1259 1.428 . S
C1265 N1264 1.351 . S
C1265 C1266 1.434 . S
C1266 C1257 1.429 . S
C1266 N1263 1.350 . S
C1266 C1265 1.434 . S
C1267 C1268 1.369 . S
C1267 C1269 1.419 . S
C1267 H1271 0.930 . S
C1268 C1267 1.369 . S
C1268 C1277 1.429 . S
C1269 C1267 1.419 . S
C1269 C1270 1.363 . S
C1269 H1272 0.929 . S
C1270 C1269 1.363 . S
C1270 C1276 1.428 . S
H1271 C1267 0.930 . S
H1272 C1269 0.929 . S
S1273 N1274 1.613 . S
S1273 N1275 1.610 . S
N1274 S1273 1.613 . S
N1274 C1277 1.350 . S
N1275 S1273 1.610 . S
N1275 C1276 1.351 . S
C1276 C1270 1.428 . S
C1276 N1275 1.351 . S
C1276 C1277 1.434 . S
C1277 C1268 1.429 . S
C1277 N1274 1.350 . S
C1277 C1276 1.434 . S
C1278 C1279 1.369 . S
C1278 C1280 1.419 . S
C1278 H1282 0.930 . S
C1279 C1278 1.369 . S
C1279 C1288 1.429 . S
C1280 C1278 1.419 . S
C1280 C1281 1.363 . S
C1280 H1283 0.929 . S
C1281 C1280 1.363 . S
C1281 C1287 1.428 . S
H1282 C1278 0.930 . S
H1283 C1280 0.929 . S
S1284 N1285 1.613 . S
S1284 N1286 1.610 . S
N1285 S1284 1.613 . S
N1285 C1288 1.350 . S
N1286 S1284 1.610 . S
N1286 C1287 1.351 . S
C1287 C1281 1.428 . S
C1287 N1286 1.351 . S
C1287 C1288 1.434 . S
C1288 C1279 1.429 . S
C1288 N1285 1.350 . S
C1288 C1287 1.434 . S
C1289 C1290 1.369 . S
C1289 C1291 1.419 . S
C1289 H1293 0.930 . S
C1290 C1289 1.369 . S
C1290 C1299 1.429 . S
C1291 C1289 1.419 . S
C1291 C1292 1.363 . S
C1291 H1294 0.929 . S
C1292 C1291 1.363 . S
C1292 C1298 1.428 . S
H1293 C1289 0.930 . S
H1294 C1291 0.929 . S
S1295 N1296 1.613 . S
S1295 N1297 1.610 . S
N1296 S1295 1.613 . S
N1296 C1299 1.350 . S
N1297 S1295 1.610 . S
N1297 C1298 1.351 . S
C1298 C1292 1.428 . S
C1298 N1297 1.351 . S
C1298 C1299 1.434 . S
C1299 C1290 1.429 . S
C1299 N1296 1.350 . S
C1299 C1298 1.434 . S
C1300 C1301 1.369 . S
C1300 C1302 1.419 . S
C1300 H1304 0.930 . S
C1301 C1300 1.369 . S
C1301 C1310 1.429 . S
C1302 C1300 1.419 . S
C1302 C1303 1.363 . S
C1302 H1305 0.929 . S
C1303 C1302 1.363 . S
C1303 C1309 1.428 . S
H1304 C1300 0.930 . S
H1305 C1302 0.929 . S
S1306 N1307 1.613 . S
S1306 N1308 1.610 . S
N1307 S1306 1.613 . S
N1307 C1310 1.350 . S
N1308 S1306 1.610 . S
N1308 C1309 1.351 . S
C1309 C1303 1.428 . S
C1309 N1308 1.351 . S
C1309 C1310 1.434 . S
C1310 C1301 1.429 . S
C1310 N1307 1.350 . S
C1310 C1309 1.434 . S
C1311 C1312 1.369 . S
C1311 C1313 1.419 . S
C1311 H1315 0.930 . S
C1312 C1311 1.369 . S
C1312 C1321 1.429 . S
C1313 C1311 1.419 . S
C1313 C1314 1.363 . S
C1313 H1316 0.929 . S
C1314 C1313 1.363 . S
C1314 C1320 1.428 . S
H1315 C1311 0.930 . S
H1316 C1313 0.929 . S
S1317 N1318 1.613 . S
S1317 N1319 1.610 . S
N1318 S1317 1.613 . S
N1318 C1321 1.350 . S
N1319 S1317 1.610 . S
N1319 C1320 1.351 . S
C1320 C1314 1.428 . S
C1320 N1319 1.351 . S
C1320 C1321 1.434 . S
C1321 C1312 1.429 . S
C1321 N1318 1.350 . S
C1321 C1320 1.434 . S
C1322 C1323 1.369 . S
C1322 C1324 1.419 . S
C1322 H1326 0.930 . S
C1323 C1322 1.369 . S
C1323 C1332 1.429 . S
C1324 C1322 1.419 . S
C1324 C1325 1.363 . S
C1324 H1327 0.929 . S
C1325 C1324 1.363 . S
C1325 C1331 1.428 . S
H1326 C1322 0.930 . S
H1327 C1324 0.929 . S
S1328 N1329 1.613 . S
S1328 N1330 1.610 . S
N1329 S1328 1.613 . S
N1329 C1332 1.350 . S
N1330 S1328 1.610 . S
N1330 C1331 1.351 . S
C1331 C1325 1.428 . S
C1331 N1330 1.351 . S
C1331 C1332 1.434 . S
C1332 C1323 1.429 . S
C1332 N1329 1.350 . S
C1332 C1331 1.434 . S
C1333 C1334 1.369 . S
C1333 C1335 1.419 . S
C1333 H1337 0.930 . S
C1334 C1333 1.369 . S
C1334 C1343 1.429 . S
C1335 C1333 1.419 . S
C1335 C1336 1.363 . S
C1335 H1338 0.929 . S
C1336 C1335 1.363 . S
C1336 C1342 1.428 . S
H1337 C1333 0.930 . S
H1338 C1335 0.929 . S
S1339 N1340 1.613 . S
S1339 N1341 1.610 . S
N1340 S1339 1.613 . S
N1340 C1343 1.350 . S
N1341 S1339 1.610 . S
N1341 C1342 1.351 . S
C1342 C1336 1.428 . S
C1342 N1341 1.351 . S
C1342 C1343 1.434 . S
C1343 C1334 1.429 . S
C1343 N1340 1.350 . S
C1343 C1342 1.434 . S
C1344 C1345 1.397 . S
C1344 C1346 1.419 . S
C1344 H1348 0.930 . S
C1345 C1344 1.397 . S
C1345 C1354 1.398 1_545 S
C1346 C1344 1.419 . S
C1346 C1347 1.363 1_545 S
C1346 H1349 0.929 . S
C1347 C1346 1.363 1_565 S
C1347 C1353 1.428 . S
H1348 C1344 0.930 . S
H1349 C1346 0.929 . S
S1350 N1351 1.613 . S
S1350 N1352 1.610 . S
N1351 S1350 1.613 . S
N1351 C1354 1.350 . S
N1352 S1350 1.610 . S
N1352 C1353 1.351 . S
C1353 C1347 1.428 . S
C1353 N1352 1.351 . S
C1353 C1354 1.434 . S
C1354 C1345 1.398 1_565 S
C1354 N1351 1.350 . S
C1354 C1353 1.434 . S
C1355 C1356 1.369 . S
C1355 C1357 1.419 . S
C1355 H1359 0.930 . S
C1356 C1355 1.369 . S
C1356 C1365 1.429 . S
C1357 C1355 1.419 . S
C1357 C1358 1.363 . S
C1357 H1360 0.929 . S
C1358 C1357 1.363 . S
C1358 C1364 1.428 . S
H1359 C1355 0.930 . S
H1360 C1357 0.929 . S
S1361 N1362 1.613 . S
S1361 N1363 1.610 1_455 S
N1362 S1361 1.613 . S
N1362 C1365 1.350 . S
N1363 S1361 1.610 1_655 S
N1363 C1364 1.351 1_655 S
C1364 C1358 1.428 . S
C1364 N1363 1.351 1_455 S
C1364 C1365 1.434 . S
C1365 C1356 1.429 . S
C1365 N1362 1.350 . S
C1365 C1364 1.434 . S
C1366 C1367 1.369 . S
C1366 C1368 1.419 . S
C1366 H1370 0.930 . S
C1367 C1366 1.369 . S
C1367 C1376 1.429 . S
C1368 C1366 1.419 . S
C1368 C1369 1.363 . S
C1368 H1371 0.929 . S
C1369 C1368 1.363 . S
C1369 C1375 1.428 . S
H1370 C1366 0.930 . S
H1371 C1368 0.929 . S
S1372 N1373 1.613 . S
S1372 N1374 1.610 . S
N1373 S1372 1.613 . S
N1373 C1376 1.350 . S
N1374 S1372 1.610 . S
N1374 C1375 1.351 . S
C1375 C1369 1.428 . S
C1375 N1374 1.351 . S
C1375 C1376 1.434 . S
C1376 C1367 1.429 . S
C1376 N1373 1.350 . S
C1376 C1375 1.434 . S
C1377 C1378 1.379 1_655 S
C1377 C1379 1.419 1_655 S
C1377 H1381 0.930 . S
C1378 C1377 1.379 1_455 S
C1378 C1387 1.416 1_545 S
C1379 C1377 1.419 1_455 S
C1379 C1380 1.363 1_545 S
C1379 H1382 0.929 . S
C1380 C1379 1.363 1_565 S
C1380 C1386 1.428 . S
H1381 C1377 0.930 . S
H1382 C1379 0.929 . S
S1383 N1384 1.613 . S
S1383 N1385 1.610 . S
N1384 S1383 1.613 . S
N1384 C1387 1.350 . S
N1385 S1383 1.610 . S
N1385 C1386 1.351 . S
C1386 C1380 1.428 . S
C1386 N1385 1.351 . S
C1386 C1387 1.434 . S
C1387 C1378 1.416 1_565 S
C1387 N1384 1.350 . S
C1387 C1386 1.434 . S
C1388 C1389 1.369 . S
C1388 C1390 1.419 . S
C1388 H1392 0.930 . S
C1389 C1388 1.369 . S
C1389 C1398 1.429 1_545 S
C1390 C1388 1.419 . S
C1390 C1391 1.363 1_545 S
C1390 H1393 0.938 . S
C1391 C1390 1.363 1_565 S
C1391 C1397 1.428 . S
H1392 C1388 0.930 . S
H1393 C1390 0.938 . S
S1394 N1395 1.613 . S
S1394 N1396 1.610 . S
N1395 S1394 1.613 . S
N1395 C1398 1.350 . S
N1396 S1394 1.610 . S
N1396 C1397 1.351 . S
C1397 C1391 1.428 . S
C1397 N1396 1.351 . S
C1397 C1398 1.434 . S
C1398 C1389 1.429 1_565 S
C1398 N1395 1.350 . S
C1398 C1397 1.434 . S
C1399 C1400 1.369 . S
C1399 C1401 1.419 . S
C1399 H1403 0.930 1_655 S
C1400 C1399 1.369 . S
C1400 C1409 1.429 . S
C1401 C1399 1.419 . S
C1401 C1402 1.363 . S
C1401 H1404 0.929 . S
C1402 C1401 1.363 . S
C1402 C1408 1.428 . S
H1403 C1399 0.930 1_455 S
H1404 C1401 0.929 . S
S1405 N1406 1.623 . S
S1405 N1407 1.610 . S
N1406 S1405 1.623 . S
N1406 C1409 1.363 . S
N1407 S1405 1.610 . S
N1407 C1408 1.351 . S
C1408 C1402 1.428 . S
C1408 N1407 1.351 . S
C1408 C1409 1.434 . S
C1409 C1400 1.429 . S
C1409 N1406 1.363 . S
C1409 C1408 1.434 . S
C1410 C1411 1.369 . S
C1410 C1412 1.419 . S
C1410 H1414 0.930 . S
C1411 C1410 1.369 . S
C1411 C1420 1.429 . S
C1412 C1410 1.419 . S
C1412 C1413 1.363 . S
C1412 H1415 0.929 . S
C1413 C1412 1.363 . S
C1413 C1419 1.428 . S
H1414 C1410 0.930 . S
H1415 C1412 0.929 . S
S1416 N1417 1.613 . S
S1416 N1418 1.610 . S
N1417 S1416 1.613 . S
N1417 C1420 1.350 . S
N1418 S1416 1.610 . S
N1418 C1419 1.351 . S
C1419 C1413 1.428 . S
C1419 N1418 1.351 . S
C1419 C1420 1.434 . S
C1420 C1411 1.429 . S
C1420 N1417 1.350 . S
C1420 C1419 1.434 . S
C1421 C1422 1.369 1_565 S
C1421 C1423 1.419 1_655 S
C1421 H1425 0.930 . S
C1422 C1421 1.369 1_545 S
C1422 C1431 1.429 . S
C1423 C1421 1.419 1_455 S
C1423 C1424 1.363 1_455 S
C1423 H1426 0.929 . S
C1424 C1423 1.363 1_655 S
C1424 C1430 1.428 1_565 S
H1425 C1421 0.930 . S
H1426 C1423 0.929 . S
S1427 N1428 1.613 . S
S1427 N1429 1.610 . S
N1428 S1427 1.613 . S
N1428 C1431 1.350 . S
N1429 S1427 1.610 . S
N1429 C1430 1.351 . S
C1430 C1424 1.428 1_545 S
C1430 N1429 1.351 . S
C1430 C1431 1.434 . S
C1431 C1422 1.429 . S
C1431 N1428 1.350 . S
C1431 C1430 1.434 . S
C1432 C1433 1.369 . S
C1432 C1434 1.419 . S
C1432 H1436 0.930 . S
C1433 C1432 1.369 . S
C1433 C1442 1.429 . S
C1434 C1432 1.419 . S
C1434 C1435 1.363 . S
C1434 H1437 0.929 . S
C1435 C1434 1.363 . S
C1435 C1441 1.428 . S
H1436 C1432 0.930 . S
H1437 C1434 0.929 . S
S1438 N1439 1.613 . S
S1438 N1440 1.610 . S
N1439 S1438 1.613 . S
N1439 C1442 1.350 . S
N1440 S1438 1.610 . S
N1440 C1441 1.351 . S
C1441 C1435 1.428 . S
C1441 N1440 1.351 . S
C1441 C1442 1.434 . S
C1442 C1433 1.429 . S
C1442 N1439 1.350 . S
C1442 C1441 1.434 . S
C1443 C1444 1.369 . S
C1443 C1445 1.419 . S
C1443 H1447 0.930 . S
C1444 C1443 1.369 . S
C1444 C1453 1.429 . S
C1445 C1443 1.419 . S
C1445 C1446 1.363 . S
C1445 H1448 0.929 . S
C1446 C1445 1.363 . S
C1446 C1452 1.428 . S
H1447 C1443 0.930 . S
H1448 C1445 0.929 . S
S1449 N1450 1.613 . S
S1449 N1451 1.610 . S
N1450 S1449 1.613 . S
N1450 C1453 1.350 . S
N1451 S1449 1.610 . S
N1451 C1452 1.351 . S
C1452 C1446 1.428 . S
C1452 N1451 1.351 . S
C1452 C1453 1.434 . S
C1453 C1444 1.429 . S
C1453 N1450 1.350 . S
C1453 C1452 1.434 . S
C1454 C1455 1.369 . S
C1454 C1456 1.419 . S
C1454 H1458 0.930 . S
C1455 C1454 1.369 . S
C1455 C1464 1.429 . S
C1456 C1454 1.419 . S
C1456 C1457 1.363 . S
C1456 H1459 0.929 . S
C1457 C1456 1.363 . S
C1457 C1463 1.428 . S
H1458 C1454 0.930 . S
H1459 C1456 0.929 . S
S1460 N1461 1.613 . S
S1460 N1462 1.610 . S
N1461 S1460 1.613 . S
N1461 C1464 1.350 . S
N1462 S1460 1.610 . S
N1462 C1463 1.351 . S
C1463 C1457 1.428 . S
C1463 N1462 1.351 . S
C1463 C1464 1.434 . S
C1464 C1455 1.429 . S
C1464 N1461 1.350 . S
C1464 C1463 1.434 . S
C1465 C1466 1.369 . S
C1465 C1467 1.419 . S
C1465 H1469 0.930 . S
C1466 C1465 1.369 . S
C1466 C1475 1.429 . S
C1467 C1465 1.419 . S
C1467 C1468 1.363 . S
C1467 H1470 0.929 . S
C1468 C1467 1.363 . S
C1468 C1474 1.428 1_455 S
H1469 C1465 0.930 . S
H1470 C1467 0.929 . S
S1471 N1472 1.613 . S
S1471 N1473 1.610 . S
N1472 S1471 1.613 . S
N1472 C1475 1.350 1_655 S
N1473 S1471 1.610 . S
N1473 C1474 1.351 . S
C1474 C1468 1.428 1_655 S
C1474 N1473 1.351 . S
C1474 C1475 1.434 1_655 S
C1475 C1466 1.429 . S
C1475 N1472 1.350 1_455 S
C1475 C1474 1.434 1_455 S
C1476 C1477 1.369 . S
C1476 C1478 1.419 . S
C1476 H1480 0.930 . S
C1477 C1476 1.369 . S
C1477 C1486 1.429 . S
C1478 C1476 1.419 . S
C1478 C1479 1.363 . S
C1478 H1481 0.929 . S
C1479 C1478 1.363 . S
C1479 C1485 1.428 . S
H1480 C1476 0.930 . S
H1481 C1478 0.929 . S
S1482 N1483 1.613 . S
S1482 N1484 1.610 . S
N1483 S1482 1.613 . S
N1483 C1486 1.350 . S
N1484 S1482 1.610 . S
N1484 C1485 1.351 . S
C1485 C1479 1.428 . S
C1485 N1484 1.351 . S
C1485 C1486 1.434 . S
C1486 C1477 1.429 . S
C1486 N1483 1.350 . S
C1486 C1485 1.434 . S
C1487 C1488 1.369 . S
C1487 C1489 1.419 . S
C1487 H1491 0.930 1_655 S
C1488 C1487 1.369 . S
C1488 C1497 1.429 . S
C1489 C1487 1.419 . S
C1489 C1490 1.363 . S
C1489 H1492 0.929 . S
C1490 C1489 1.363 . S
C1490 C1496 1.428 . S
H1491 C1487 0.930 1_455 S
H1492 C1489 0.929 . S
S1493 N1494 1.613 . S
S1493 N1495 1.610 . S
N1494 S1493 1.613 . S
N1494 C1497 1.350 . S
N1495 S1493 1.610 . S
N1495 C1496 1.351 . S
C1496 C1490 1.428 . S
C1496 N1495 1.351 . S
C1496 C1497 1.434 . S
C1497 C1488 1.429 . S
C1497 N1494 1.350 . S
C1497 C1496 1.434 . S
C1498 C1499 1.369 . S
C1498 C1500 1.419 . S
C1498 H1502 0.930 . S
C1499 C1498 1.369 . S
C1499 C1508 1.429 . S
C1500 C1498 1.419 . S
C1500 C1501 1.363 . S
C1500 H1503 0.929 . S
C1501 C1500 1.363 . S
C1501 C1507 1.428 . S
H1502 C1498 0.930 . S
H1503 C1500 0.929 . S
S1504 N1505 1.613 . S
S1504 N1506 1.610 . S
N1505 S1504 1.613 . S
N1505 C1508 1.350 . S
N1506 S1504 1.610 . S
N1506 C1507 1.351 . S
C1507 C1501 1.428 . S
C1507 N1506 1.351 . S
C1507 C1508 1.434 . S
C1508 C1499 1.429 . S
C1508 N1505 1.350 . S
C1508 C1507 1.434 . S
C1509 C1510 1.369 . S
C1509 C1511 1.419 1_655 S
C1509 H1513 0.930 . S
C1510 C1509 1.369 . S
C1510 C1519 1.429 . S
C1511 C1509 1.419 1_455 S
C1511 C1512 1.363 1_455 S
C1511 H1514 0.929 . S
C1512 C1511 1.363 1_655 S
C1512 C1518 1.428 . S
H1513 C1509 0.930 . S
H1514 C1511 0.929 . S
S1515 N1516 1.613 . S
S1515 N1517 1.610 . S
N1516 S1515 1.613 . S
N1516 C1519 1.350 . S
N1517 S1515 1.610 . S
N1517 C1518 1.351 . S
C1518 C1512 1.428 . S
C1518 N1517 1.351 . S
C1518 C1519 1.434 . S
C1519 C1510 1.429 . S
C1519 N1516 1.350 . S
C1519 C1518 1.434 . S
C1520 C1521 1.393 . S
C1520 C1522 1.419 . S
C1520 H1524 0.930 . S
C1521 C1520 1.393 . S
C1521 C1530 1.402 1_545 S
C1522 C1520 1.419 . S
C1522 C1523 1.363 1_545 S
C1522 H1525 0.929 . S
C1523 C1522 1.363 1_565 S
C1523 C1529 1.428 . S
H1524 C1520 0.930 . S
H1525 C1522 0.929 . S
S1526 N1527 1.613 . S
S1526 N1528 1.610 . S
N1527 S1526 1.613 . S
N1527 C1530 1.350 . S
N1528 S1526 1.610 . S
N1528 C1529 1.351 . S
C1529 C1523 1.428 . S
C1529 N1528 1.351 . S
C1529 C1530 1.434 . S
C1530 C1521 1.402 1_565 S
C1530 N1527 1.350 . S
C1530 C1529 1.434 . S
C1531 C1532 1.369 . S
C1531 C1533 1.419 . S
C1531 H1535 0.930 . S
C1532 C1531 1.369 . S
C1532 C1541 1.429 . S
C1533 C1531 1.419 . S
C1533 C1534 1.363 . S
C1533 H1536 0.929 . S
C1534 C1533 1.363 . S
C1534 C1540 1.428 . S
H1535 C1531 0.930 . S
H1536 C1533 0.929 . S
S1537 N1538 1.613 . S
S1537 N1539 1.610 . S
N1538 S1537 1.613 . S
N1538 C1541 1.350 . S
N1539 S1537 1.610 . S
N1539 C1540 1.351 . S
C1540 C1534 1.428 . S
C1540 N1539 1.351 . S
C1540 C1541 1.434 . S
C1541 C1532 1.429 . S
C1541 N1538 1.350 . S
C1541 C1540 1.434 . S
C1542 C1543 1.369 . S
C1542 C1544 1.419 . S
C1542 H1546 0.930 . S
C1543 C1542 1.369 . S
C1543 C1552 1.429 . S
C1544 C1542 1.419 . S
C1544 C1545 1.363 . S
C1544 H1547 0.929 . S
C1545 C1544 1.363 . S
C1545 C1551 1.428 . S
H1546 C1542 0.930 . S
H1547 C1544 0.929 . S
S1548 N1549 1.613 . S
S1548 N1550 1.610 . S
N1549 S1548 1.613 . S
N1549 C1552 1.350 . S
N1550 S1548 1.610 . S
N1550 C1551 1.351 . S
C1551 C1545 1.428 . S
C1551 N1550 1.351 . S
C1551 C1552 1.434 . S
C1552 C1543 1.429 . S
C1552 N1549 1.350 . S
C1552 C1551 1.434 . S
C1553 C1554 1.391 . S
C1553 C1555 1.419 . S
C1553 H1557 0.930 . S
C1554 C1553 1.391 . S
C1554 C1563 1.404 1_545 S
C1555 C1553 1.419 . S
C1555 C1556 1.363 1_545 S
C1555 H1558 0.929 . S
C1556 C1555 1.363 1_565 S
C1556 C1562 1.428 . S
H1557 C1553 0.930 . S
H1558 C1555 0.929 . S
S1559 N1560 1.613 . S
S1559 N1561 1.610 . S
N1560 S1559 1.613 . S
N1560 C1563 1.350 . S
N1561 S1559 1.610 . S
N1561 C1562 1.351 . S
C1562 C1556 1.428 . S
C1562 N1561 1.351 . S
C1562 C1563 1.434 . S
C1563 C1554 1.404 1_565 S
C1563 N1560 1.350 . S
C1563 C1562 1.434 . S
C1564 C1565 1.369 1_545 S
C1564 C1566 1.419 . S
C1564 H1568 0.930 . S
C1565 C1564 1.369 1_565 S
C1565 C1574 1.429 . S
C1566 C1564 1.419 . S
C1566 C1567 1.363 . S
C1566 H1569 0.929 . S
C1567 C1566 1.363 . S
C1567 C1573 1.428 1_545 S
H1568 C1564 0.930 . S
H1569 C1566 0.929 . S
S1570 N1571 1.613 . S
S1570 N1572 1.610 . S
N1571 S1570 1.613 . S
N1571 C1574 1.350 . S
N1572 S1570 1.610 . S
N1572 C1573 1.351 . S
C1573 C1567 1.428 1_565 S
C1573 N1572 1.351 . S
C1573 C1574 1.434 . S
C1574 C1565 1.429 . S
C1574 N1571 1.350 . S
C1574 C1573 1.434 . S
C1575 C1576 1.369 . S
C1575 C1577 1.419 . S
C1575 H1579 0.930 . S
C1576 C1575 1.369 . S
C1576 C1585 1.429 . S
C1577 C1575 1.419 . S
C1577 C1578 1.363 . S
C1577 H1580 0.929 . S
C1578 C1577 1.363 . S
C1578 C1584 1.428 . S
H1579 C1575 0.930 . S
H1580 C1577 0.929 . S
S1581 N1582 1.613 . S
S1581 N1583 1.610 . S
N1582 S1581 1.613 . S
N1582 C1585 1.350 . S
N1583 S1581 1.610 . S
N1583 C1584 1.351 . S
C1584 C1578 1.428 . S
C1584 N1583 1.351 . S
C1584 C1585 1.434 . S
C1585 C1576 1.429 . S
C1585 N1582 1.350 . S
C1585 C1584 1.434 . S
C1586 C1587 1.369 . S
C1586 C1588 1.419 . S
C1586 H1590 0.930 . S
C1587 C1586 1.369 . S
C1587 C1596 1.429 . S
C1588 C1586 1.419 . S
C1588 C1589 1.363 . S
C1588 H1591 0.929 . S
C1589 C1588 1.363 . S
C1589 C1595 1.428 . S
H1590 C1586 0.930 . S
H1591 C1588 0.929 . S
S1592 N1593 1.613 . S
S1592 N1594 1.610 . S
N1593 S1592 1.613 . S
N1593 C1596 1.350 . S
N1594 S1592 1.610 . S
N1594 C1595 1.351 . S
C1595 C1589 1.428 . S
C1595 N1594 1.351 . S
C1595 C1596 1.434 . S
C1596 C1587 1.429 . S
C1596 N1593 1.350 . S
C1596 C1595 1.434 . S
C1597 C1598 1.369 1_545 S
C1597 C1599 1.419 . S
C1597 H1601 0.930 . S
C1598 C1597 1.369 1_565 S
C1598 C1607 1.429 . S
C1599 C1597 1.419 . S
C1599 C1600 1.363 . S
C1599 H1602 0.929 . S
C1600 C1599 1.363 . S
C1600 C1606 1.428 1_545 S
H1601 C1597 0.930 . S
H1602 C1599 0.929 . S
S1603 N1604 1.613 . S
S1603 N1605 1.610 . S
N1604 S1603 1.613 . S
N1604 C1607 1.350 . S
N1605 S1603 1.610 . S
N1605 C1606 1.351 . S
C1606 C1600 1.428 1_565 S
C1606 N1605 1.351 . S
C1606 C1607 1.434 . S
C1607 C1598 1.429 . S
C1607 N1604 1.350 . S
C1607 C1606 1.434 . S
C1608 C1609 1.369 . S
C1608 C1610 1.419 . S
C1608 H1612 0.930 . S
C1609 C1608 1.369 . S
C1609 C1618 1.429 . S
C1610 C1608 1.419 . S
C1610 C1611 1.363 . S
C1610 H1613 0.929 . S
C1611 C1610 1.363 . S
C1611 C1617 1.428 . S
H1612 C1608 0.930 . S
H1613 C1610 0.929 . S
S1614 N1615 1.613 . S
S1614 N1616 1.610 . S
N1615 S1614 1.613 . S
N1615 C1618 1.350 . S
N1616 S1614 1.610 . S
N1616 C1617 1.351 . S
C1617 C1611 1.428 . S
C1617 N1616 1.351 . S
C1617 C1618 1.434 . S
C1618 C1609 1.429 . S
C1618 N1615 1.350 . S
C1618 C1617 1.434 . S
C1619 C1620 1.369 . S
C1619 C1621 1.419 . S
C1619 H1623 0.930 . S
C1620 C1619 1.369 . S
C1620 C1629 1.429 . S
C1621 C1619 1.419 . S
C1621 C1622 1.363 . S
C1621 H1624 0.929 . S
C1622 C1621 1.363 . S
C1622 C1628 1.428 . S
H1623 C1619 0.930 . S
H1624 C1621 0.929 . S
S1625 N1626 1.613 . S
S1625 N1627 1.610 1_556 S
N1626 S1625 1.613 . S
N1626 C1629 1.350 . S
N1627 S1625 1.610 1_554 S
N1627 C1628 1.351 1_554 S
C1628 C1622 1.428 . S
C1628 N1627 1.351 1_556 S
C1628 C1629 1.434 . S
C1629 C1620 1.429 . S
C1629 N1626 1.350 . S
C1629 C1628 1.434 . S
C1630 C1631 1.369 . S
C1630 C1632 1.419 . S
C1630 H1634 0.930 . S
C1631 C1630 1.369 . S
C1631 C1640 1.429 . S
C1632 C1630 1.419 . S
C1632 C1633 1.363 . S
C1632 H1635 0.929 . S
C1633 C1632 1.363 . S
C1633 C1639 1.428 . S
H1634 C1630 0.930 . S
H1635 C1632 0.929 . S
S1636 N1637 1.613 . S
S1636 N1638 1.610 . S
N1637 S1636 1.613 . S
N1637 C1640 1.350 . S
N1638 S1636 1.610 . S
N1638 C1639 1.351 . S
C1639 C1633 1.428 . S
C1639 N1638 1.351 . S
C1639 C1640 1.434 . S
C1640 C1631 1.429 . S
C1640 N1637 1.350 . S
C1640 C1639 1.434 . S
C1641 C1642 1.369 . S
C1641 C1643 1.419 . S
C1641 H1645 0.930 . S
C1642 C1641 1.369 . S
C1642 C1651 1.429 . S
C1643 C1641 1.419 . S
C1643 C1644 1.363 . S
C1643 H1646 0.929 . S
C1644 C1643 1.363 . S
C1644 C1650 1.428 . S
H1645 C1641 0.930 . S
H1646 C1643 0.929 . S
S1647 N1648 1.613 . S
S1647 N1649 1.610 . S
N1648 S1647 1.613 . S
N1648 C1651 1.350 . S
N1649 S1647 1.610 . S
N1649 C1650 1.351 . S
C1650 C1644 1.428 . S
C1650 N1649 1.351 . S
C1650 C1651 1.434 . S
C1651 C1642 1.429 . S
C1651 N1648 1.350 . S
C1651 C1650 1.434 . S
C1652 C1653 1.369 . S
C1652 C1654 1.419 . S
C1652 H1656 0.930 . S
C1653 C1652 1.369 . S
C1653 C1662 1.429 . S
C1654 C1652 1.419 . S
C1654 C1655 1.363 . S
C1654 H1657 0.929 . S
C1655 C1654 1.363 . S
C1655 C1661 1.428 . S
H1656 C1652 0.930 . S
H1657 C1654 0.929 . S
S1658 N1659 1.613 . S
S1658 N1660 1.610 . S
N1659 S1658 1.613 . S
N1659 C1662 1.350 . S
N1660 S1658 1.610 . S
N1660 C1661 1.351 . S
C1661 C1655 1.428 . S
C1661 N1660 1.351 . S
C1661 C1662 1.434 . S
C1662 C1653 1.429 . S
C1662 N1659 1.350 . S
C1662 C1661 1.434 . S
C1663 C1664 1.369 . S
C1663 C1665 1.419 . S
C1663 H1667 0.930 . S
C1664 C1663 1.369 . S
C1664 C1673 1.429 . S
C1665 C1663 1.419 . S
C1665 C1666 1.363 . S
C1665 H1668 0.929 . S
C1666 C1665 1.363 . S
C1666 C1672 1.428 . S
H1667 C1663 0.930 . S
H1668 C1665 0.929 . S
S1669 N1670 1.613 1_556 S
S1669 N1671 1.610 . S
N1670 S1669 1.613 1_554 S
N1670 C1673 1.350 . S
N1671 S1669 1.610 . S
N1671 C1672 1.351 1_556 S
C1672 C1666 1.428 . S
C1672 N1671 1.351 1_554 S
C1672 C1673 1.434 . S
C1673 C1664 1.429 . S
C1673 N1670 1.350 . S
C1673 C1672 1.434 . S
C1674 C1675 1.369 . S
C1674 C1676 1.419 . S
C1674 H1678 0.930 . S
C1675 C1674 1.369 . S
C1675 C1684 1.429 . S
C1676 C1674 1.419 . S
C1676 C1677 1.363 . S
C1676 H1679 0.929 . S
C1677 C1676 1.363 . S
C1677 C1683 1.428 . S
H1678 C1674 0.930 . S
H1679 C1676 0.929 . S
S1680 N1681 1.613 . S
S1680 N1682 1.610 . S
N1681 S1680 1.613 . S
N1681 C1684 1.350 . S
N1682 S1680 1.610 . S
N1682 C1683 1.351 . S
C1683 C1677 1.428 . S
C1683 N1682 1.351 . S
C1683 C1684 1.434 . S
C1684 C1675 1.429 . S
C1684 N1681 1.350 . S
C1684 C1683 1.434 . S
C1685 C1686 1.369 . S
C1685 C1687 1.419 . S
C1685 H1689 0.930 . S
C1686 C1685 1.369 . S
C1686 C1695 1.429 . S
C1687 C1685 1.419 . S
C1687 C1688 1.363 . S
C1687 H1690 0.929 . S
C1688 C1687 1.363 . S
C1688 C1694 1.428 . S
H1689 C1685 0.930 . S
H1690 C1687 0.929 . S
S1691 N1692 1.613 . S
S1691 N1693 1.610 . S
N1692 S1691 1.613 . S
N1692 C1695 1.350 . S
N1693 S1691 1.610 . S
N1693 C1694 1.351 . S
C1694 C1688 1.428 . S
C1694 N1693 1.351 . S
C1694 C1695 1.434 . S
C1695 C1686 1.429 . S
C1695 N1692 1.350 . S
C1695 C1694 1.434 . S
C641 C509 1.665 . S
C643 C9 1.663 . S
C652 C489 1.663 . S
C654 C29 1.665 . S
C663 C549 1.668 . S
C665 C49 1.667 . S
C674 C529 1.668 . S
C676 C69 1.666 . S
C685 C88 1.662 . S
C687 C588 1.663 . S
C696 C108 1.665 . S
C698 C568 1.664 . S
C707 C128 1.662 . S
C709 C628 1.663 . S
C718 C608 1.666 . S
C720 C148 1.665 . S
C729 C349 1.663 . S
C731 C169 1.665 . S
C740 C329 1.663 . S
C742 C189 1.662 . S
C751 C389 1.662 . S
C753 C209 1.664 . S
C762 C369 1.662 . S
C764 C229 1.664 . S
C773 C248 1.663 . S
C775 C428 1.664 . S
C784 C408 1.663 . S
C786 C268 1.662 . S
C795 C288 1.667 . S
C797 C468 1.667 . S
C806 C448 1.668 . S
C808 C308 1.666 . S
C817 C1 0.912 . S
C819 C402 0.914 . S
C828 C262 0.905 . S
C830 C21 0.919 . S
C839 C602 0.919 . S
C841 C41 0.908 . S
C850 C61 0.907 . S
C852 C142 0.918 . S
C861 C82 0.909 . S
C863 C321 0.916 . S
C872 C102 0.918 . S
C874 C181 0.909 . S
C883 C122 0.907 . S
C885 C521 0.918 . S
C894 C562 0.906 . S
C896 C161 0.918 . S
C905 C442 0.912 . S
C907 C201 0.914 . S
C916 C302 0.920 . S
C918 C221 0.908 . S
C927 C481 0.920 . S
C929 C242 0.907 . S
C938 C282 0.910 . S
C940 C361 0.915 . S
C949 C582 0.919 . S
C951 C341 0.908 . S
C960 C381 0.913 . S
C962 C462 0.913 . S
C971 C501 0.905 . S
C973 C422 0.919 . S
C982 C541 0.905 . S
C984 C622 0.919 . S
C993 C2 1.587 . S
C995 C382 1.591 . S
C1004 C22 1.587 . S
C1006 C362 1.591 . S
C1015 C42 1.587 . S
C1017 C342 1.591 . S
C1026 C62 1.589 . S
C1028 C322 1.590 . S
C1037 C81 1.590 . S
C1039 C461 1.589 . S
C1048 C101 1.589 . S
C1050 C441 1.589 . S
C1059 C121 1.590 . S
C1061 C421 1.589 . S
C1070 C141 1.589 . S
C1072 C401 1.589 . S
C1081 C162 1.590 . S
C1083 C542 1.589 . S
C1092 C182 1.589 . S
C1094 C522 1.590 . S
C1103 C202 1.589 . S
C1105 C502 1.589 . S
C1114 C222 1.589 . S
C1116 C482 1.590 . S
C1125 C621 1.591 . S
C1127 C241 1.588 . S
C1136 C601 1.590 . S
C1138 C261 1.588 . S
C1147 C581 1.591 . S
C1149 C281 1.588 . S
C1158 C561 1.591 . S
C1160 C301 1.589 . S
C1169 C48 1.637 . S
C1171 C8 1.639 . S
C1180 C68 1.640 . S
C1182 C28 1.639 . S
C1191 C129 1.642 . S
C1193 C89 1.643 . S
C1202 C109 1.644 . S
C1204 C149 1.641 . S
C1213 C208 1.638 . S
C1215 C168 1.640 . S
C1224 C188 1.639 . S
C1226 C228 1.641 . S
C1235 C289 1.644 . S
C1237 C249 1.641 . S
C1246 C269 1.639 . S
C1248 C309 1.638 . S
C1257 C328 1.638 . S
C1259 C368 1.638 . S
C1268 C348 1.639 . S
C1270 C388 1.641 . S
C1279 C449 1.638 . S
C1281 C409 1.640 . S
C1290 C429 1.639 . S
C1292 C469 1.638 . S
C1301 C488 1.644 . S
C1303 C528 1.642 . S
C1312 C548 1.644 . S
C1314 C508 1.643 . S
C1323 C569 1.641 . S
C1325 C609 1.643 . S
C1334 C589 1.643 . S
C1336 C629 1.640 . S
C1345 C18 1.661 1_556 S
C1347 C158 1.644 . S
C1356 C618 1.641 . S
C1358 C38 1.654 1_456 S
C1367 C58 1.655 . S
C1369 C278 1.644 . S
C1378 C78 1.661 1_455 S
C1380 C418 1.644 . S
C1389 C79 1.641 . S
C1391 C99 1.654 1_554 S
C1400 C119 1.653 1_654 S
C1402 C539 1.641 . S
C1411 C199 1.644 . S
C1413 C139 1.655 . S
C1422 C339 1.644 . S
C1424 C159 1.655 1_655 S
C1433 C178 1.655 . S
C1435 C318 1.644 . S
C1444 C458 1.641 . S
C1446 C198 1.654 1_455 S
C1455 C218 1.654 . S
C1457 C118 1.642 . S
C1466 C578 1.643 . S
C1468 C238 1.654 1_455 S
C1477 C259 1.653 . S
C1479 C239 1.641 . S
C1488 C279 1.653 1_655 S
C1490 C379 1.641 . S
C1499 C299 1.655 . S
C1501 C39 1.644 . S
C1510 C499 1.645 . S
C1512 C319 1.655 1_655 S
C1521 C338 1.660 . S
C1523 C478 1.645 . S
C1532 C358 1.654 . S
C1534 C298 1.643 . S
C1543 C378 1.656 . S
C1545 C598 1.645 . S
C1554 C398 1.660 . S
C1556 C98 1.645 . S
C1565 C419 1.653 . S
C1567 C399 1.641 . S
C1576 C219 1.641 . S
C1578 C439 1.654 . S
C1587 C519 1.641 . S
C1589 C459 1.654 . S
C1598 C479 1.654 . S
C1600 C19 1.642 . S
C1609 C638 1.645 . S
C1611 C498 1.655 1_556 S
C1620 C138 1.641 . S
C1622 C518 1.654 1_556 S
C1631 C438 1.641 . S
C1633 C538 1.654 . S
C1642 C558 1.653 . S
C1644 C258 1.641 . S
C1653 C559 1.644 . S
C1655 C579 1.655 1_554 S
C1664 C59 1.644 . S
C1666 C599 1.655 1_554 S
C1675 C359 1.645 . S
C1677 C619 1.655 . S
C1686 C639 1.655 . S
C1688 C179 1.643 . S
