# Generated by pormake.
# Topology wfa, (4)-cn, num edge types: 1
# Building blocks:
#     Node 0, Type 0, BuildingBlock: QUQFOY_clean_sbu_3, # of connection points: 4
#     Node 1, Type 0, BuildingBlock: QUQFOY_clean_sbu_3, # of connection points: 4
#     Node 2, Type 0, BuildingBlock: QUQFOY_clean_sbu_3, # of connection points: 4
#     Node 3, Type 0, BuildingBlock: QUQFOY_clean_sbu_3, # of connection points: 4
#     Node 4, Type 0, BuildingBlock: QUQFOY_clean_sbu_3, # of connection points: 4
#     Node 5, Type 0, BuildingBlock: QUQFOY_clean_sbu_3, # of connection points: 4
#     Node 6, Type 0, BuildingBlock: QUQFOY_clean_sbu_3, # of connection points: 4
#     Node 7, Type 0, BuildingBlock: QUQFOY_clean_sbu_3, # of connection points: 4
#     Node 8, Type 0, BuildingBlock: QUQFOY_clean_sbu_3, # of connection points: 4
#     Node 9, Type 0, BuildingBlock: QUQFOY_clean_sbu_3, # of connection points: 4
#     Node 10, Type 0, BuildingBlock: QUQFOY_clean_sbu_3, # of connection points: 4
#     Node 11, Type 0, BuildingBlock: QUQFOY_clean_sbu_3, # of connection points: 4
#     Node 12, Type 0, BuildingBlock: QUQFOY_clean_sbu_3, # of connection points: 4
#     Node 13, Type 0, BuildingBlock: QUQFOY_clean_sbu_3, # of connection points: 4
#     Node 14, Type 0, BuildingBlock: QUQFOY_clean_sbu_3, # of connection points: 4
#     Node 15, Type 0, BuildingBlock: QUQFOY_clean_sbu_3, # of connection points: 4
#     Edge 16, Type (0, 0), BuildingBlock: EZIPEK_clean_linker_0, # of connection points: 2
#     Edge 17, Type (0, 0), BuildingBlock: EZIPEK_clean_linker_0, # of connection points: 2
#     Edge 18, Type (0, 0), BuildingBlock: EZIPEK_clean_linker_0, # of connection points: 2
#     Edge 19, Type (0, 0), BuildingBlock: EZIPEK_clean_linker_0, # of connection points: 2
#     Edge 20, Type (0, 0), BuildingBlock: EZIPEK_clean_linker_0, # of connection points: 2
#     Edge 21, Type (0, 0), BuildingBlock: EZIPEK_clean_linker_0, # of connection points: 2
#     Edge 22, Type (0, 0), BuildingBlock: EZIPEK_clean_linker_0, # of connection points: 2
#     Edge 23, Type (0, 0), BuildingBlock: EZIPEK_clean_linker_0, # of connection points: 2
#     Edge 24, Type (0, 0), BuildingBlock: EZIPEK_clean_linker_0, # of connection points: 2
#     Edge 25, Type (0, 0), BuildingBlock: EZIPEK_clean_linker_0, # of connection points: 2
#     Edge 26, Type (0, 0), BuildingBlock: EZIPEK_clean_linker_0, # of connection points: 2
#     Edge 27, Type (0, 0), BuildingBlock: EZIPEK_clean_linker_0, # of connection points: 2
#     Edge 28, Type (0, 0), BuildingBlock: EZIPEK_clean_linker_0, # of connection points: 2
#     Edge 29, Type (0, 0), BuildingBlock: EZIPEK_clean_linker_0, # of connection points: 2
#     Edge 30, Type (0, 0), BuildingBlock: EZIPEK_clean_linker_0, # of connection points: 2
#     Edge 31, Type (0, 0), BuildingBlock: EZIPEK_clean_linker_0, # of connection points: 2
#     Edge 32, Type (0, 0), BuildingBlock: EZIPEK_clean_linker_0, # of connection points: 2
#     Edge 33, Type (0, 0), BuildingBlock: EZIPEK_clean_linker_0, # of connection points: 2
#     Edge 34, Type (0, 0), BuildingBlock: EZIPEK_clean_linker_0, # of connection points: 2
#     Edge 35, Type (0, 0), BuildingBlock: EZIPEK_clean_linker_0, # of connection points: 2
#     Edge 36, Type (0, 0), BuildingBlock: EZIPEK_clean_linker_0, # of connection points: 2
#     Edge 37, Type (0, 0), BuildingBlock: EZIPEK_clean_linker_0, # of connection points: 2
#     Edge 38, Type (0, 0), BuildingBlock: EZIPEK_clean_linker_0, # of connection points: 2
#     Edge 39, Type (0, 0), BuildingBlock: EZIPEK_clean_linker_0, # of connection points: 2
#     Edge 40, Type (0, 0), BuildingBlock: EZIPEK_clean_linker_0, # of connection points: 2
#     Edge 41, Type (0, 0), BuildingBlock: EZIPEK_clean_linker_0, # of connection points: 2
#     Edge 42, Type (0, 0), BuildingBlock: EZIPEK_clean_linker_0, # of connection points: 2
#     Edge 43, Type (0, 0), BuildingBlock: EZIPEK_clean_linker_0, # of connection points: 2
#     Edge 44, Type (0, 0), BuildingBlock: EZIPEK_clean_linker_0, # of connection points: 2
#     Edge 45, Type (0, 0), BuildingBlock: EZIPEK_clean_linker_0, # of connection points: 2
#     Edge 46, Type (0, 0), BuildingBlock: EZIPEK_clean_linker_0, # of connection points: 2
#     Edge 47, Type (0, 0), BuildingBlock: EZIPEK_clean_linker_0, # of connection points: 2
# Relax obj value: 0.196
# Max RMSD: 0.267
# Mean RMSD: 0.265
data_MOF--net-wfa--node1-QUQFOY_clean_sbu_3--edge1-EZIPEK_clean_linker_0
_symmetry_space_group_name_H-M    P1
_symmetry_Int_Tables_number       1
_symmetry_cell_setting            triclinic
loop_
_symmetry_equiv_pos_as_xyz
'x, y, z'
_cell_length_a     34.753388
_cell_length_b     34.701198
_cell_length_c     18.259535
_cell_angle_alpha  89.950429
_cell_angle_beta   90.157223
_cell_angle_gamma 89.853797
loop_
_atom_site_label
_atom_site_type_symbol
_atom_site_fract_x
_atom_site_fract_y
_atom_site_fract_z
_atom_type_partial_charge
C0 C 0.55311 0.97254 0.10079 0.0
O1 O 0.55318 0.95701 0.16379 0.0
Cd2 Cd 0.61148 0.94948 0.23662 0.0
O3 O 0.5844 0.98234 0.07021 0.0
Cd4 Cd 0.65397 0.97977 0.09433 0.0
C5 C 0.63956 0.04447 0.22967 0.0
O6 O 0.66495 0.92273 0.17179 0.0
O7 O 0.7093 0.96622 0.16612 0.0
O8 O 0.6641 0.95176 0.97386 0.0
C9 C 0.69849 0.93382 0.19037 0.0
O10 O 0.62822 0.01547 0.26662 0.0
C11 C 0.68884 0.97665 0.95464 0.0
O12 O 0.64763 0.04079 0.16192 0.0
O13 O 0.69592 0.00386 -0.00075 0.0
C14 C 0.53779 0.57605 0.07472 0.0
O15 O 0.55152 0.58337 0.13782 0.0
Cd16 Cd 0.54595 0.64688 0.19874 0.0
O17 O 0.52202 0.60243 0.03716 0.0
Cd18 Cd 0.50639 0.66995 0.05342 0.0
C19 C 0.45389 0.63625 0.19665 0.0
O20 O 0.55406 0.70325 0.12708 0.0
O21 O 0.49695 0.7282 0.11944 0.0
O22 O 0.54233 0.68091 0.94496 0.0
C23 C 0.53145 0.73116 0.14217 0.0
O24 O 0.47916 0.65327 0.23508 0.0
C25 C 0.51448 0.69534 0.909 0.0
O26 O 0.45691 0.63525 0.12688 0.0
O27 O 0.48133 0.69636 0.93905 0.0
C28 C 0.90473 0.54003 0.10971 0.0
O29 O 0.89854 0.55331 0.17349 0.0
Cd30 Cd 0.83553 0.55157 0.23478 0.0
O31 O 0.87737 0.52674 0.07142 0.0
Cd32 Cd 0.80914 0.51527 0.08714 0.0
C33 C 0.83944 0.45754 0.22665 0.0
O34 O 0.77988 0.56454 0.16352 0.0
O35 O 0.75104 0.50947 0.15421 0.0
O36 O 0.7983 0.54974 0.97555 0.0
C37 C 0.75075 0.54374 0.17869 0.0
O38 O 0.82702 0.48449 0.2674 0.0
C39 C 0.78113 0.52216 0.94369 0.0
O40 O 0.8391 0.46131 0.15694 0.0
O41 O 0.77867 0.48997 0.97718 0.0
C42 C 0.97423 0.90381 0.98333 0.0
O43 O 0.94263 0.88944 0.00508 0.0
Cd44 Cd 0.97647 0.83155 0.04828 0.0
O45 O 0.00419 0.88297 0.98644 0.0
Cd46 Cd -0.00353 0.81248 0.02532 0.0
C47 C 0.05609 0.85317 0.1174 0.0
O48 O 0.96147 0.78747 0.13877 0.0
O49 O 0.01046 0.75576 0.09408 0.0
O50 O 0.94456 0.79857 0.93996 0.0
C51 C 0.9852 0.75932 0.1438 0.0
O52 O 0.02172 0.8641 0.12615 0.0
C53 C 0.9656 0.77801 0.89863 0.0
O54 O 0.06262 0.82774 0.06883 0.0
O55 O 0.00121 0.77456 0.91468 0.0
C56 C 0.05198 0.02656 0.42279 0.0
O57 O 0.04476 0.04652 0.36612 0.0
Cd58 Cd 0.09472 0.0538 0.27452 0.0
O59 O 0.08649 0.01802 0.43917 0.0
Cd60 Cd 0.15145 0.03347 0.39443 0.0
C61 C 0.12887 0.96122 0.28493 0.0
O62 O 0.15603 0.08307 0.29713 0.0
O63 O 0.19657 0.03495 0.29941 0.0
O64 O 0.16944 0.07569 0.49509 0.0
C65 C 0.18556 0.06623 0.27015 0.0
O66 O 0.11067 0.98738 0.25024 0.0
C67 C 0.19529 0.05313 0.51962 0.0
O68 O 0.1461 0.96824 0.34523 0.0
O69 O 0.20038 0.02129 0.48644 0.0
C70 C 0.45911 0.07223 0.45198 0.0
O71 O 0.44299 0.06809 0.39012 0.0
Cd72 Cd 0.44923 0.11918 0.30187 0.0
O73 O 0.4704 0.10519 0.47299 0.0
Cd74 Cd 0.46489 0.17247 0.43032 0.0
C75 C 0.54306 0.1424 0.34347 0.0
O76 O 0.42116 0.18101 0.32467 0.0
O77 O 0.47069 0.21881 0.336 0.0
O78 O 0.41811 0.18961 0.52373 0.0
C79 C 0.44029 0.20989 0.3015 0.0
O80 O 0.51833 0.12737 0.30066 0.0
C81 C 0.43939 0.21494 0.55329 0.0
O82 O 0.5327 0.16098 0.40038 0.0
O83 O 0.47267 0.22024 0.52627 0.0
C84 C 0.41299 0.43461 0.46367 0.0
O85 O 0.41673 0.42129 0.39934 0.0
Cd86 Cd 0.36475 0.4205 0.30924 0.0
O87 O 0.38017 0.4453 0.48615 0.0
Cd88 Cd 0.316 0.45285 0.43241 0.0
C89 C 0.35872 0.51627 0.31595 0.0
O90 O 0.2995 0.40425 0.33914 0.0
O91 O 0.26996 0.4598 0.33828 0.0
O92 O 0.28985 0.41735 0.53472 0.0
C93 C 0.27342 0.42613 0.31209 0.0
O94 O 0.36323 0.48731 0.27413 0.0
C95 C 0.26956 0.4451 0.55849 0.0
O96 O 0.34543 0.5123 0.38078 0.0
O97 O 0.27106 0.47703 0.52408 0.0
C98 C 0.04069 0.40906 0.41912 0.0
O99 O 0.06127 0.41157 0.36206 0.0
Cd100 Cd 0.04445 0.36394 0.27096 0.0
O101 O 0.0241 0.37759 0.43453 0.0
Cd102 Cd 0.02683 0.31055 0.39087 0.0
C103 C 0.9497 0.35047 0.31951 0.0
O104 O 0.06505 0.29838 0.28025 0.0
O105 O 0.01224 0.2656 0.2975 0.0
O106 O 0.07851 0.29305 0.47303 0.0
C107 C 0.0421 0.27182 0.25948 0.0
O108 O 0.97472 0.36449 0.27629 0.0
C109 C 0.05866 0.26894 0.50905 0.0
O110 O 0.95951 0.32879 0.37285 0.0
O111 O 0.02359 0.26429 0.4905 0.0
C112 C 0.41945 0.01737 0.93235 0.0
O113 O 0.42647 0.03243 0.87057 0.0
Cd114 Cd 0.37671 0.0337 0.77814 0.0
O115 O 0.38511 0.00957 0.95083 0.0
Cd116 Cd 0.31984 0.02107 0.90025 0.0
C117 C 0.33814 0.94312 0.80114 0.0
O118 O 0.31835 0.06882 0.79887 0.0
O119 O 0.27499 0.02368 0.80296 0.0
O120 O 0.30302 0.0687 -0.00756 0.0
C121 C 0.28768 0.05394 0.77271 0.0
O122 O 0.35789 0.96706 0.7642 0.0
C123 C 0.27639 0.04872 0.02078 0.0
O124 O 0.321 0.95349 0.8596 0.0
O125 O 0.27018 0.01549 -0.0062 0.0
C126 C 0.50305 0.43452 0.92439 0.0
O127 O 0.49281 0.43866 0.85804 0.0
Cd128 Cd 0.47773 0.38509 0.77734 0.0
O129 O 0.50339 0.40133 0.95393 0.0
Cd130 Cd 0.48684 0.33497 0.91673 0.0
C131 C 0.56056 0.33192 0.7986 0.0
O132 O 0.43458 0.33771 0.82454 0.0
O133 O 0.47007 0.28647 0.83166 0.0
O134 O 0.44308 0.3262 0.01892 0.0
C135 C 0.44128 0.30337 0.80343 0.0
O136 O 0.53789 0.3515 0.75805 0.0
C137 C 0.46185 0.2984 0.04678 0.0
O138 O 0.55156 0.32439 0.86478 0.0
O139 O 0.49298 0.28839 0.01556 0.0
C140 C 0.04416 0.49901 0.95951 0.0
O141 O 0.03858 0.48956 0.89328 0.0
Cd142 Cd 0.0914 0.48233 0.80919 0.0
O143 O 0.07804 0.4999 0.98586 0.0
Cd144 Cd 0.14394 0.48443 0.94247 0.0
C145 C 0.13799 0.56661 0.85146 0.0
O146 O 0.14388 0.4399 0.83566 0.0
O147 O 0.19127 0.47998 0.84866 0.0
O148 O 0.15322 0.43461 0.0353 0.0
C149 C 0.17643 0.45223 0.8136 0.0
O150 O 0.11926 0.5457 0.80663 0.0
C151 C 0.18154 0.45135 0.06554 0.0
O152 O 0.14899 0.55342 0.91328 0.0
O153 O 0.19203 0.4836 0.03928 0.0
C154 C 0.01214 0.0496 0.85199 0.0
O155 O 0.02486 0.04804 0.78691 0.0
Cd156 Cd 0.04177 0.10283 0.71076 0.0
O157 O 0.00853 0.08164 0.88491 0.0
Cd158 Cd 0.02044 0.14979 0.85747 0.0
C159 C 0.95484 0.14966 0.71804 0.0
O160 O 0.07679 0.14974 0.77735 0.0
O161 O 0.04477 0.20271 0.78964 0.0
O162 O 0.05387 0.15785 0.97292 0.0
C163 C 0.07271 0.18508 0.76035 0.0
O164 O 0.98077 0.13259 0.68095 0.0
C165 C 0.03112 0.18379 -0.00405 0.0
O166 O 0.96 0.15613 0.78624 0.0
O167 O 0.00245 0.19268 0.95586 0.0
C168 C 0.92082 0.97239 0.58225 0.0
O169 O 0.91806 0.96934 0.65127 0.0
Cd170 Cd 0.86043 0.98436 0.72023 0.0
O171 O 0.89064 0.97892 0.54444 0.0
Cd172 Cd 0.82008 0.98454 0.55892 0.0
C173 C 0.84415 0.07104 0.63081 0.0
O174 O 0.80493 0.9536 0.67464 0.0
O175 O 0.76234 0.99269 0.62937 0.0
O176 O 0.8083 0.92994 0.47837 0.0
C177 C 0.77269 0.97075 0.68141 0.0
O178 O 0.85309 0.05166 0.68776 0.0
C179 C 0.78775 0.94924 0.43387 0.0
O180 O 0.83281 0.05422 0.57244 0.0
O181 O 0.7835 0.9851 0.44599 0.0
C182 C 0.4998 0.92942 0.59203 0.0
O183 O 0.51219 0.9233 0.65654 0.0
Cd184 Cd 0.51326 0.85946 0.71176 0.0
O185 O 0.49072 0.90173 0.55004 0.0
Cd186 Cd 0.48894 0.83135 0.54731 0.0
C187 C 0.41768 0.84041 0.67206 0.0
O188 O 0.53736 0.81053 0.63368 0.0
O189 O 0.49392 0.76923 0.60435 0.0
O190 O 0.53236 0.83063 0.44461 0.0
C191 C 0.52411 0.7766 0.64095 0.0
O192 O 0.44512 0.84634 0.71714 0.0
C193 C 0.5097 0.81255 0.40234 0.0
O194 O 0.42438 0.83687 0.60355 0.0
O195 O 0.47614 0.80476 0.42595 0.0
C196 C 0.55409 0.47427 0.61469 0.0
O197 O 0.55822 0.48202 0.68225 0.0
Cd198 Cd 0.62021 0.49329 0.73985 0.0
O199 O 0.58276 0.47427 0.57158 0.0
Cd200 Cd 0.65246 0.48539 0.5745 0.0
C201 C 0.65718 0.4064 0.68241 0.0
O202 O 0.66207 0.53268 0.67018 0.0
O203 O 0.71137 0.49923 0.63806 0.0
O204 O 0.64742 0.53146 0.47509 0.0
C205 C 0.69786 0.52607 0.67759 0.0
O206 O 0.64727 0.42934 0.73355 0.0
C207 C 0.67111 0.51389 0.43417 0.0
O208 O 0.65854 0.41795 0.616 0.0
O209 O 0.68495 0.48207 0.45698 0.0
C210 C -0.0067 0.54591 0.5772 0.0
O211 O 0.97674 0.54605 0.63916 0.0
Cd212 Cd 0.96603 0.60521 0.70877 0.0
O213 O 0.00181 0.57735 0.5457 0.0
Cd214 Cd -0.00393 0.6467 0.56165 0.0
C215 C 0.05642 0.64727 0.70652 0.0
O216 O 0.93893 0.65572 0.6369 0.0
O217 O 0.97823 0.70362 0.6238 0.0
O218 O 0.96255 0.66654 0.45134 0.0
C219 C 0.94757 0.69054 0.65191 0.0
O220 O 0.02874 0.63111 0.74036 0.0
C221 C -0.00719 0.67655 0.41775 0.0
O222 O 0.05412 0.65389 0.6379 0.0
O223 O 0.02467 0.67123 0.45067 0.0
C224 C 0.59662 0.14084 0.25439 0.0
C225 C 0.58399 0.13435 0.32722 0.0
C226 C 0.633 0.08449 0.34199 0.0
C227 C 0.63624 0.08316 0.26489 0.0
N228 N 0.64027 0.12213 0.15642 0.0
N229 N 0.59564 0.1061 0.44614 0.0
C230 C 0.62448 0.11557 0.22356 0.0
C231 C 0.60498 0.10912 0.3738 0.0
N232 N 0.57975 0.16947 0.21413 0.0
N233 N 0.65634 0.06145 0.38345 0.0
H234 H 0.57683 0.12513 0.47184 0.0
H235 H 0.60612 0.08454 0.48052 0.0
H236 H 0.67731 0.04401 0.35927 0.0
H237 H 0.65744 0.06225 0.44039 0.0
H238 H 0.5842 0.17355 0.15834 0.0
H239 H 0.56047 0.18898 0.23767 0.0
H240 H 0.63384 0.14595 0.12395 0.0
H241 H 0.66334 0.10578 0.13717 0.0
C242 C 0.42161 0.5491 0.30595 0.0
C243 C 0.38114 0.55091 0.29666 0.0
C244 C 0.38752 0.61026 0.2243 0.0
C245 C 0.4281 0.60854 0.23431 0.0
N246 N 0.4834 0.57928 0.29508 0.0
N247 N 0.32447 0.58473 0.25705 0.0
C248 C 0.44488 0.57926 0.27912 0.0
C249 C 0.3637 0.58215 0.25909 0.0
N250 N 0.43834 0.51684 0.33552 0.0
N251 N 0.372 0.63852 0.18111 0.0
H252 H 0.30681 0.56429 0.28195 0.0
H253 H 0.30937 0.60802 0.23537 0.0
H254 H 0.38843 0.66064 0.15853 0.0
H255 H 0.34324 0.63954 0.16532 0.0
H256 H 0.46771 0.51097 0.33343 0.0
H257 H 0.4227 0.49418 0.35773 0.0
H258 H 0.4952 0.56381 0.33865 0.0
H259 H 0.50397 0.59474 0.2662 0.0
C260 C 0.88519 0.43224 0.32334 0.0
C261 C 0.86091 0.4251 0.26152 0.0
C262 C 0.88754 0.35978 0.2531 0.0
C263 C 0.91085 0.36739 0.31501 0.0
N264 N 0.92044 0.40424 0.42483 0.0
N265 N 0.83086 0.37782 0.18306 0.0
C266 C 0.90477 0.40101 0.35647 0.0
C267 C 0.85933 0.38736 0.23136 0.0
N268 N 0.89351 0.46892 0.34563 0.0
N269 N 0.8935 0.3269 0.21377 0.0
H270 H 0.80886 0.39691 0.1687 0.0
H271 H 0.82685 0.34992 0.16351 0.0
H272 H 0.91283 0.30565 0.23114 0.0
H273 H 0.88057 0.32166 0.16322 0.0
H274 H 0.9124 0.47486 0.38842 0.0
H275 H 0.88653 0.49355 0.31588 0.0
H276 H 0.91457 0.42733 0.45959 0.0
H277 H 0.93563 0.38176 0.44956 0.0
C278 C 0.07702 0.87074 0.24334 0.0
C279 C 0.08584 0.86903 0.16721 0.0
C280 C 0.13931 0.91364 0.18689 0.0
C281 C 0.12462 0.92164 0.25731 0.0
N282 N 0.08272 0.90601 0.35742 0.0
N283 N 0.12697 0.88713 0.06636 0.0
C284 C 0.09539 0.89858 0.28798 0.0
C285 C 0.11831 0.88897 0.13922 0.0
N286 N 0.04996 0.84663 0.27222 0.0
N287 N 0.17265 0.93103 0.16552 0.0
H288 H 0.11264 0.86922 0.02971 0.0
H289 H 0.14728 0.90465 0.04118 0.0
H290 H 0.18777 0.94941 0.20052 0.0
H291 H 0.18693 0.92473 0.11694 0.0
H292 H 0.04537 0.84317 0.32815 0.0
H293 H 0.03354 0.82803 0.24035 0.0
H294 H 0.05765 0.89461 0.37959 0.0
H295 H 0.09682 0.92497 0.39261 0.0
C296 C 0.33094 0.89771 0.69748 0.0
C297 C 0.33711 0.90291 0.77379 0.0
C298 C 0.37333 0.84274 0.7777 0.0
C299 C 0.37797 0.84578 0.70104 0.0
N300 N 0.34575 0.86017 0.58809 0.0
N301 N 0.35538 0.87531 0.89017 0.0
C302 C 0.35116 0.8678 0.66062 0.0
C303 C 0.35426 0.87296 0.8156 0.0
N304 N 0.30789 0.92318 0.66077 0.0
N305 N 0.38919 0.81192 0.81312 0.0
H306 H 0.33992 0.89595 0.91923 0.0
H307 H 0.37159 0.85696 0.92323 0.0
H308 H 0.4034 0.79022 0.78403 0.0
H309 H 0.3857 0.80636 0.86872 0.0
H310 H 0.30436 0.92361 0.6042 0.0
H311 H 0.29209 0.94423 0.68849 0.0
H312 H 0.3263 0.87479 0.55472 0.0
H313 H 0.35855 0.83631 0.56323 0.0
C314 C 0.66153 0.35521 0.77574 0.0
C315 C 0.65689 0.36469 0.70084 0.0
C316 C 0.60294 0.32089 0.69149 0.0
C317 C 0.59946 0.32343 0.7687 0.0
N318 N 0.63455 0.32267 0.88231 0.0
N319 N 0.63993 0.33908 0.58347 0.0
C320 C 0.63233 0.33317 0.81049 0.0
C321 C 0.63366 0.34072 0.657 0.0
N322 N 0.69145 0.37104 0.81348 0.0
N323 N 0.57509 0.30236 0.65242 0.0
H324 H 0.66339 0.35312 0.55987 0.0
H325 H 0.62429 0.32174 0.54776 0.0
H326 H 0.55315 0.28724 0.67881 0.0
H327 H 0.57361 0.30211 0.5955 0.0
H328 H 0.69551 0.36827 0.8697 0.0
H329 H 0.71228 0.38735 0.78639 0.0
H330 H 0.65788 0.32883 0.91611 0.0
H331 H 0.61415 0.30451 0.90585 0.0
C332 C 0.12785 0.64015 0.7165 0.0
C333 C 0.09294 0.65279 0.7479 0.0
C334 C 0.11588 0.63307 0.86857 0.0
C335 C 0.14125 0.60776 0.83227 0.0
N336 N 0.18214 0.59607 0.72962 0.0
N337 N 0.06172 0.67745 0.85498 0.0
C338 C 0.15188 0.61565 0.75912 0.0
C339 C 0.09037 0.65564 0.82513 0.0
N340 N 0.13695 0.65058 0.64672 0.0
N341 N 0.11438 0.63262 0.94313 0.0
H342 H 0.04366 0.69423 0.82193 0.0
H343 H 0.05629 0.67953 0.91082 0.0
H344 H 0.13371 0.61609 0.97384 0.0
H345 H 0.09603 0.64978 0.97409 0.0
H346 H 0.16256 0.64291 0.62108 0.0
H347 H 0.12027 0.67042 0.6176 0.0
H348 H 0.18963 0.59711 0.67451 0.0
H349 H 0.1993 0.57805 0.76205 0.0
C350 C 0.8825 0.1541 0.72568 0.0
C351 C 0.91628 0.15478 0.68281 0.0
C352 C 0.88129 0.12626 0.58027 0.0
C353 C 0.85432 0.1126 0.63197 0.0
N354 N 0.81907 0.12549 0.74156 0.0
N355 N 0.94047 0.16262 0.56086 0.0
C356 C 0.85103 0.1317 0.70017 0.0
C357 C 0.91293 0.14829 0.60643 0.0
N358 N 0.88095 0.17456 0.7893 0.0
N359 N 0.87763 0.11619 0.50844 0.0
H360 H 0.96254 0.18014 0.58086 0.0
H361 H 0.94026 0.15946 0.50423 0.0
H362 H 0.8528 0.10293 0.48864 0.0
H363 H 0.89797 0.1222 0.4684 0.0
H364 H 0.85695 0.1757 0.82315 0.0
H365 H 0.90285 0.19357 0.80407 0.0
H366 H 0.81554 0.1354 0.79487 0.0
H367 H 0.79579 0.1101 0.7204 0.0
C368 C 0.71262 0.00754 0.8398 0.0
C369 C 0.70904 0.97407 0.88352 0.0
C370 C 0.74362 0.93686 0.79028 0.0
C371 C 0.75163 0.97148 0.75194 0.0
N372 N 0.75284 0.0413 0.75427 0.0
N373 N 0.72901 0.90835 0.90777 0.0
C374 C 0.73868 0.00731 0.78053 0.0
C375 C 0.72664 0.939 0.8609 0.0
N376 N 0.69035 0.03927 0.85315 0.0
N377 N 0.75096 0.90194 0.7587 0.0
H378 H 0.71872 0.9091 0.96127 0.0
H379 H 0.7449 0.8836 0.89608 0.0
H380 H 0.76241 0.89907 0.70626 0.0
H381 H 0.74206 0.87593 0.78166 0.0
H382 H 0.68961 0.06305 0.8182 0.0
H383 H 0.66944 0.04007 0.89395 0.0
H384 H 0.74659 0.06781 0.77825 0.0
H385 H 0.77448 0.04271 0.71511 0.0
C386 C 0.55113 0.76629 0.7679 0.0
C387 C 0.53459 0.75088 0.70345 0.0
C388 C 0.51209 0.69448 0.77199 0.0
C389 C 0.52195 0.71373 0.8378 0.0
N390 N 0.54974 0.76842 0.90028 0.0
N391 N 0.51626 0.69348 0.63904 0.0
C392 C 0.54166 0.74954 0.83634 0.0
C393 C 0.52019 0.71266 0.70395 0.0
N394 N 0.57772 0.79508 0.76333 0.0
N395 N 0.49404 0.65955 0.77486 0.0
H396 H 0.52515 0.70559 0.58952 0.0
H397 H 0.5083 0.66471 0.63458 0.0
H398 H 0.48881 0.64508 0.82393 0.0
H399 H 0.48251 0.64566 0.72939 0.0
H400 H 0.59275 0.80572 0.80836 0.0
H401 H 0.58908 0.80412 0.71345 0.0
H402 H 0.55987 0.79663 0.90212 0.0
H403 H 0.54339 0.75717 0.95184 0.0
C404 C 0.78144 0.52786 0.80712 0.0
C405 C 0.76092 0.52917 0.87403 0.0
C406 C 0.70226 0.54839 0.80885 0.0
C407 C 0.72067 0.53932 0.74202 0.0
N408 N 0.78007 0.53822 0.67531 0.0
N409 N 0.70205 0.54091 0.94063 0.0
C410 C 0.76121 0.53458 0.74051 0.0
C411 C 0.72146 0.53989 0.87558 0.0
N412 N 0.81969 0.5185 0.80735 0.0
N413 N 0.66793 0.5676 0.80856 0.0
H414 H 0.71536 0.53618 -0.00888 0.0
H415 H 0.67228 0.54381 0.94414 0.0
H416 H 0.65585 0.57883 0.76078 0.0
H417 H 0.65466 0.57774 0.85582 0.0
H418 H 0.83566 0.51325 0.76027 0.0
H419 H 0.83532 0.51399 0.85547 0.0
H420 H 0.80983 0.53759 0.66972 0.0
H421 H 0.76563 0.54592 0.62719 0.0
C422 C 0.93849 0.77553 0.77159 0.0
C423 C 0.94857 0.7563 0.83749 0.0
C424 C 0.93019 0.6946 0.78345 0.0
C425 C 0.93085 0.7123 0.71392 0.0
N426 N 0.92512 0.76942 0.64102 0.0
N427 N 0.95077 0.6981 0.91006 0.0
C428 C 0.93064 0.75301 0.70827 0.0
C429 C 0.94292 0.716 0.84498 0.0
N430 N 0.93769 0.81492 0.76937 0.0
N431 N 0.91681 0.65788 0.79045 0.0
H432 H 0.95825 0.71313 0.95748 0.0
H433 H 0.95177 0.66828 0.91602 0.0
H434 H 0.90435 0.64326 0.74656 0.0
H435 H 0.91342 0.64408 0.84066 0.0
H436 H 0.92846 0.83087 0.72438 0.0
H437 H 0.94446 0.83198 0.81458 0.0
H438 H 0.92814 0.79865 0.62989 0.0
H439 H 0.91757 0.75283 0.59548 0.0
C440 C 0.20297 0.07014 0.65275 0.0
C441 C 0.21964 0.06378 0.58291 0.0
C442 C 0.28424 0.06451 0.63684 0.0
C443 C 0.26742 0.06866 0.70705 0.0
N444 N 0.21337 0.08823 0.77973 0.0
N445 N 0.27541 0.06743 0.5051 0.0
C446 C 0.22753 0.07609 0.71393 0.0
C447 C 0.26014 0.0651 0.57389 0.0
N448 N 0.164 0.06773 0.66171 0.0
N449 N 0.32277 0.05767 0.63048 0.0
H450 H 0.25837 0.06855 0.45797 0.0
H451 H 0.30452 0.07204 0.49503 0.0
H452 H 0.34161 0.05963 0.67464 0.0
H453 H 0.33579 0.04878 0.58204 0.0
H454 H 0.15065 0.06776 0.7127 0.0
H455 H 0.14491 0.06297 0.61857 0.0
H456 H 0.18507 0.09725 0.7874 0.0
H457 H 0.23127 0.09293 0.82489 0.0
C458 C 0.41982 0.27783 0.6083 0.0
C459 C 0.42612 0.23769 0.61667 0.0
C460 C 0.4164 0.2438 0.74835 0.0
C461 C 0.4213 0.2841 0.74164 0.0
N462 N 0.4187 0.34091 0.66559 0.0
N463 N 0.42666 0.18106 0.69356 0.0
C464 C 0.41926 0.30172 0.67164 0.0
C465 C 0.42223 0.22003 0.68622 0.0
N466 N 0.41372 0.29269 0.53995 0.0
N467 N 0.40726 0.22867 0.8151 0.0
H468 H 0.43061 0.16267 0.64907 0.0
H469 H 0.42845 0.16712 0.74396 0.0
H470 H 0.40267 0.2463 0.86061 0.0
H471 H 0.4006 0.19977 0.82357 0.0
H472 H 0.40431 0.32074 0.53058 0.0
H473 H 0.41421 0.27563 0.4929 0.0
H474 H 0.4223 0.35559 0.61642 0.0
H475 H 0.41402 0.359 0.7101 0.0
C476 C 0.20381 0.44208 0.6135 0.0
C477 C 0.24428 0.43994 0.6227 0.0
C478 C 0.23574 0.4283 0.75389 0.0
C479 C 0.19631 0.43805 0.7469 0.0
N480 N 0.14175 0.45247 0.66962 0.0
N481 N 0.29961 0.43171 0.70145 0.0
C482 C 0.17984 0.4437 0.67641 0.0
C483 C 0.26052 0.43253 0.69269 0.0
N484 N 0.18829 0.44154 0.54457 0.0
N485 N 0.24922 0.41488 0.81952 0.0
H486 H 0.31879 0.43491 0.65806 0.0
H487 H 0.31316 0.43072 0.75234 0.0
H488 H 0.23113 0.41083 0.86441 0.0
H489 H 0.27693 0.40412 0.82726 0.0
H490 H 0.15894 0.43891 0.53418 0.0
H491 H 0.20505 0.44025 0.49731 0.0
H492 H 0.1294 0.4631 0.62164 0.0
H493 H 0.12258 0.44985 0.71281 0.0
C494 C 0.07924 0.20612 0.56417 0.0
C495 C 0.07578 0.24683 0.57011 0.0
C496 C 0.09559 0.24361 0.69851 0.0
C497 C 0.09086 0.20325 0.69572 0.0
N498 N 0.09805 0.14606 0.62339 0.0
N499 N 0.08453 0.30541 0.63975 0.0
C500 C 0.0892 0.18433 0.62742 0.0
C501 C 0.08638 0.26608 0.6358 0.0
N502 N 0.07173 0.18844 0.49881 0.0
N503 N 0.1078 0.25987 0.76255 0.0
H504 H 0.07755 0.32283 0.59512 0.0
H505 H 0.08833 0.32105 0.68777 0.0
H506 H 0.11458 0.24292 0.80816 0.0
H507 H 0.11419 0.28894 0.76898 0.0
H508 H 0.06935 0.15874 0.49257 0.0
H509 H 0.0666 0.2038 0.45062 0.0
H510 H 0.09931 0.13053 0.57475 0.0
H511 H 0.1087 0.13096 0.66849 0.0
C512 C 0.24595 0.08398 0.20928 0.0
C513 C 0.20571 0.07905 0.20329 0.0
C514 C 0.21232 0.06761 0.07162 0.0
C515 C 0.25268 0.06388 0.08153 0.0
N516 N 0.30874 0.0689 0.15959 0.0
N517 N 0.14938 0.06987 0.12851 0.0
C518 C 0.26993 0.07315 0.14986 0.0
C519 C 0.18843 0.07287 0.13394 0.0
N520 N 0.26091 0.09808 0.27308 0.0
N521 N 0.19705 0.06666 0.00255 0.0
H522 H 0.13119 0.0769 0.17167 0.0
H523 H 0.13513 0.05981 0.0821 0.0
H524 H 0.21395 0.06335 0.95582 0.0
H525 H 0.1683 0.07258 -0.00913 0.0
H526 H 0.28975 0.10536 0.27995 0.0
H527 H 0.24332 0.106 0.31689 0.0
H528 H 0.32232 0.07112 0.21029 0.0
H529 H 0.32734 0.06045 0.11789 0.0
C530 C 0.43318 0.21363 0.16461 0.0
C531 C 0.43066 0.23165 0.23414 0.0
C532 C 0.44148 0.29492 0.17859 0.0
C533 C 0.44678 0.2766 0.10993 0.0
N534 N 0.43552 0.22145 0.03265 0.0
N535 N 0.41897 0.28905 0.30394 0.0
C536 C 0.43869 0.2368 0.10137 0.0
C537 C 0.43007 0.27234 0.23962 0.0
N538 N 0.43243 0.17441 0.15926 0.0
N539 N 0.44972 0.33319 0.18664 0.0
H540 H 0.41012 0.27264 0.34881 0.0
H541 H 0.41484 0.31858 0.31045 0.0
H542 H 0.45847 0.35069 0.14338 0.0
H543 H 0.45047 0.34712 0.23709 0.0
H544 H 0.44014 0.15939 0.11216 0.0
H545 H 0.42475 0.1567 0.20269 0.0
H546 H 0.42603 0.19353 0.02243 0.0
H547 H 0.43888 0.23784 0.98518 0.0
C548 C 0.20888 0.41868 0.25738 0.0
C549 C 0.24921 0.41565 0.24847 0.0
C550 C 0.24159 0.42192 0.11571 0.0
C551 C 0.20286 0.43339 0.12683 0.0
N552 N 0.14809 0.44071 0.20658 0.0
N553 N 0.30432 0.41001 0.16959 0.0
C554 C 0.1857 0.43027 0.19698 0.0
C555 C 0.26559 0.41498 0.17748 0.0
N556 N 0.19326 0.41103 0.32441 0.0
N557 N 0.2551 0.4174 0.04597 0.0
H558 H 0.32198 0.40158 0.21283 0.0
H559 H 0.31905 0.41479 0.12088 0.0
H560 H 0.23793 0.4221 -0.00016 0.0
H561 H 0.28198 0.40588 0.03362 0.0
H562 H 0.16382 0.40988 0.3344 0.0
H563 H 0.21021 0.40225 0.36874 0.0
H564 H 0.13501 0.44312 0.25757 0.0
H565 H 0.13018 0.44899 0.1634 0.0
C566 C 0.04542 0.24597 0.05779 0.0
C567 C 0.03974 0.20564 0.06314 0.0
C568 C 0.04925 0.20894 0.19571 0.0
C569 C 0.04783 0.24974 0.19136 0.0
N570 N 0.0405 0.3075 0.11839 0.0
N571 N 0.03421 0.14819 0.13696 0.0
C572 C 0.04537 0.26848 0.12242 0.0
C573 C 0.04163 0.18678 0.13197 0.0
N574 N 0.05175 0.26266 -0.00898 0.0
N575 N 0.05823 0.19157 0.26079 0.0
H576 H 0.02829 0.13102 0.09148 0.0
H577 H 0.03105 0.1337 0.18654 0.0
H578 H 0.06448 0.20727 0.30807 0.0
H579 H 0.06317 0.1621 0.26625 0.0
H580 H 0.05995 0.29133 0.98479 0.0
H581 H 0.05279 0.24695 0.94237 0.0
H582 H 0.03368 0.32191 0.06997 0.0
H583 H 0.04022 0.32528 0.16415 0.0
C584 C 0.76211 0.91732 0.2427 0.0
C585 C 0.72153 0.91602 0.2499 0.0
C586 C 0.72685 0.92255 0.3823 0.0
C587 C 0.76664 0.93038 0.37373 0.0
N588 N 0.82446 0.92463 0.30238 0.0
N589 N 0.66814 0.89855 0.32616 0.0
C590 C 0.7852 0.92366 0.30599 0.0
C591 C 0.70478 0.91214 0.31986 0.0
N592 N 0.77775 0.91462 0.17433 0.0
N593 N 0.71003 0.92665 0.44944 0.0
H594 H 0.65282 0.88823 0.28115 0.0
H595 H 0.65483 0.89304 0.37606 0.0
H596 H 0.72582 0.9324 0.49686 0.0
H597 H 0.68042 0.9259 0.45775 0.0
H598 H 0.80673 0.91853 0.16256 0.0
H599 H 0.76081 0.90825 0.12856 0.0
H600 H 0.84022 0.91853 0.25546 0.0
H601 H 0.84167 0.92956 0.34833 0.0
C602 C 0.54925 0.76578 0.33068 0.0
C603 C 0.52346 0.79759 0.33151 0.0
C604 C 0.51865 0.7956 0.19793 0.0
C605 C 0.54023 0.7608 0.19874 0.0
N606 N 0.59206 0.72639 0.25766 0.0
N607 N 0.4918 0.8493 0.26715 0.0
C608 C 0.56086 0.7502 0.26248 0.0
C609 C 0.51092 0.81483 0.2652 0.0
N610 N 0.56112 0.74917 0.39485 0.0
N611 N 0.5053 0.80944 0.13252 0.0
H612 H 0.48611 0.86379 0.31602 0.0
H613 H 0.48335 0.86473 0.22098 0.0
H614 H 0.51375 0.7973 0.08273 0.0
H615 H 0.48651 0.83262 0.12692 0.0
H616 H 0.57613 0.72317 0.39704 0.0
H617 H 0.55357 0.75976 0.44629 0.0
H618 H 0.60966 0.71968 0.30216 0.0
H619 H 0.6037 0.71814 0.20753 0.0
C620 C 0.71972 0.5545 0.37039 0.0
C621 C 0.68567 0.53207 0.36685 0.0
C622 C 0.68573 0.5362 0.23331 0.0
C623 C 0.72268 0.55339 0.23719 0.0
N624 N 0.7638 0.59622 0.30514 0.0
N625 N 0.63049 0.5103 0.29877 0.0
C626 C 0.73618 0.56834 0.30446 0.0
C627 C 0.66647 0.52613 0.29929 0.0
N628 N 0.73703 0.56134 0.43644 0.0
N629 N 0.67016 0.52866 0.16605 0.0
H630 H 0.61616 0.50264 0.34675 0.0
H631 H 0.6139 0.50641 0.25189 0.0
H632 H 0.68315 0.5384 0.11797 0.0
H633 H 0.64481 0.51348 0.15733 0.0
H634 H 0.76432 0.57336 0.44164 0.0
H635 H 0.72497 0.55302 0.48626 0.0
H636 H 0.77319 0.60989 0.35263 0.0
H637 H 0.77334 0.60949 0.25735 0.0
C638 C 0.95868 0.70855 0.22813 0.0
C639 C 0.98784 0.7354 0.2104 0.0
C640 C 0.0171 0.72628 0.33025 0.0
C641 C 0.99092 0.69611 0.34563 0.0
N642 N 0.94295 0.6518 0.29904 0.0
N643 N 0.05262 0.75814 0.23574 0.0
C644 C 0.96322 0.68527 0.29182 0.0
C645 C 0.0197 0.74031 0.25814 0.0
N646 N 0.92724 0.7047 0.18375 0.0
N647 N 0.03756 0.74385 0.38484 0.0
H648 H 0.05642 0.76984 0.18382 0.0
H649 H 0.07748 0.75863 0.26791 0.0
H650 H 0.03346 0.73804 0.44026 0.0
H651 H 0.05462 0.76804 0.3755 0.0
H652 H 0.90331 0.68835 0.19816 0.0
H653 H 0.92416 0.71981 0.13464 0.0
H654 H 0.92488 0.64114 0.25824 0.0
H655 H 0.94759 0.63233 0.34167 0.0
C656 C 0.46275 0.96605 0.98356 0.0
C657 C 0.45172 0.00552 0.98058 0.0
C658 C 0.50549 0.02277 0.06127 0.0
C659 C 0.51631 0.98324 0.06485 0.0
N660 N 0.50208 0.9165 0.04121 0.0
N661 N 0.45746 0.07037 0.02578 0.0
C662 C 0.49378 0.9546 0.02992 0.0
C663 C 0.47165 0.03361 0.02215 0.0
N664 N 0.44463 0.93983 0.93948 0.0
N665 N 0.52795 0.04997 0.09466 0.0
H666 H 0.4329 0.0792 -0.00269 0.0
H667 H 0.46809 0.09143 0.06089 0.0
H668 H 0.55134 0.04303 0.12816 0.0
H669 H 0.52461 0.0795 0.08695 0.0
H670 H 0.45393 0.91154 0.93258 0.0
H671 H 0.4215 0.94694 0.90548 0.0
H672 H 0.48449 0.89405 0.02387 0.0
H673 H 0.52533 0.90719 0.07292 0.0
C674 C 0.54748 0.49056 0.94563 0.0
C675 C 0.5151 0.4686 0.96794 0.0
C676 C 0.50682 0.51093 0.07443 0.0
C677 C 0.53543 0.53601 0.04614 0.0
N678 N 0.58223 0.55098 0.9535 0.0
N679 N 0.46125 0.45981 0.04935 0.0
C680 C 0.55571 0.52603 0.98153 0.0
C681 C 0.49434 0.47897 0.03183 0.0
N682 N 0.57111 0.47685 0.89179 0.0
N683 N 0.49115 0.51797 0.14163 0.0
H684 H 0.45065 0.4367 0.019 0.0
H685 H 0.44237 0.46877 0.09015 0.0
H686 H 0.49894 0.5415 0.17347 0.0
H687 H 0.47314 0.49878 0.16878 0.0
H688 H 0.59737 0.48938 0.87855 0.0
H689 H 0.56623 0.45085 0.86473 0.0
H690 H 0.59416 0.548 0.90157 0.0
H691 H 0.59088 0.57586 0.98102 0.0
C692 C 0.95648 0.55646 0.01979 0.0
C693 C 0.9444 0.5349 0.08153 0.0
C694 C -0.00084 0.49059 0.06617 0.0
C695 C 0.01123 0.51234 0.00455 0.0
N696 N 0.00738 0.57086 0.93338 0.0
N697 N 0.95687 0.48539 0.17146 0.0
C698 C 0.99165 0.54678 0.98453 0.0
C699 C 0.96689 0.50344 0.10769 0.0
N700 N 0.93367 0.58554 -0.00642 0.0
N701 N 0.01731 0.45659 0.08247 0.0
H702 H 0.93283 0.49309 0.20213 0.0
H703 H 0.97366 0.46449 0.19702 0.0
H704 H 0.04107 0.44642 0.05348 0.0
H705 H 0.00758 0.43701 0.12135 0.0
H706 H 0.93795 0.59875 0.94307 0.0
H707 H 0.90907 0.59508 0.02082 0.0
H708 H -0.00338 0.59822 0.92162 0.0
H709 H 0.03337 0.565 0.90709 0.0
C710 C 0.96826 0.99255 0.86074 0.0
C711 C -0.00029 0.01385 0.88929 0.0
C712 C 0.0048 0.96849 -0.00839 0.0
C713 C 0.97783 0.94395 0.9565 0.0
N714 N 0.93615 0.93081 0.85359 0.0
N715 N 0.05059 0.02055 0.97857 0.0
C716 C 0.95977 0.95563 0.89034 0.0
C717 C 0.01855 0.0016 0.95426 0.0
N718 N 0.94568 0.00815 0.80695 0.0
N719 N 0.01661 0.96042 0.06145 0.0
H720 H 0.06177 0.04477 0.9524 0.0
H721 H 0.06799 0.01042 0.02098 0.0
H722 H 0.00589 0.93711 0.09111 0.0
H723 H 0.03363 0.97889 0.09258 0.0
H724 H 0.91966 -0.00398 0.79085 0.0
H725 H 0.95089 0.03508 0.78362 0.0
H726 H 0.92597 0.93609 0.80078 0.0
H727 H 0.92884 0.90368 0.87366 0.0
C728 C -0.00568 0.98291 0.42919 0.0
C729 C 0.02019 0.00852 0.46491 0.0
C730 C 0.99133 0.99116 0.58261 0.0
C731 C 0.95945 0.97462 0.5454 0.0
N732 N 0.93481 0.9465 0.43419 0.0
N733 N 0.04234 0.03829 0.5767 0.0
C734 C 0.96232 0.96792 0.46874 0.0
C735 C 0.01859 0.01281 0.54203 0.0
N736 N 0.00153 0.97122 0.35898 0.0
N737 N -0.00281 0.98428 0.65539 0.0
H738 H 0.06211 0.05549 0.54899 0.0
H739 H 0.03983 0.04477 0.63215 0.0
H740 H 0.98136 0.96403 0.68464 0.0
H741 H 0.02177 0.99332 0.68316 0.0
H742 H 0.98603 0.94977 0.3323 0.0
H743 H 0.02539 0.98032 0.32918 0.0
H744 H 0.93165 0.94521 0.37753 0.0
H745 H 0.91486 0.93 0.46305 0.0
C746 C 0.51684 0.98393 0.50929 0.0
C747 C 0.49307 0.96913 0.56551 0.0
C748 C 0.45088 0.02577 0.55614 0.0
C749 C 0.47155 0.03774 0.49342 0.0
N750 N 0.52443 0.02937 0.40927 0.0
N751 N 0.43603 0.97379 0.64016 0.0
C752 C 0.50478 0.01724 0.4699 0.0
C753 C 0.45996 0.98971 0.58912 0.0
N754 N 0.5513 0.96641 0.49488 0.0
N755 N 0.42282 0.04901 0.58444 0.0
H756 H 0.44201 0.94785 0.6668 0.0
H757 H 0.40903 0.98498 0.65275 0.0
H758 H 0.4146 0.07499 0.56014 0.0
H759 H 0.40991 0.04412 0.63497 0.0
H760 H 0.57189 0.97749 0.45942 0.0
H761 H 0.56085 0.9421 0.52338 0.0
H762 H 0.54616 0.01355 0.38417 0.0
H763 H 0.51783 0.05478 0.38132 0.0
C764 C 0.48626 0.49025 0.57895 0.0
C765 C 0.51605 0.46261 0.58534 0.0
C766 C 0.47588 0.41455 0.52225 0.0
C767 C 0.44776 0.44351 0.50861 0.0
N768 N 0.42951 0.5111 0.51365 0.0
N769 N 0.54019 0.39828 0.56526 0.0
C770 C 0.45353 0.48182 0.53506 0.0
C771 C 0.51106 0.42464 0.5577 0.0
N772 N 0.48934 0.5249 0.61412 0.0
N773 N 0.46842 0.37721 0.50314 0.0
H774 H 0.5648 0.40345 0.59657 0.0
H775 H 0.54085 0.37176 0.53881 0.0
H776 H 0.44314 0.36885 0.47689 0.0
H777 H 0.4856 0.35389 0.51803 0.0
H778 H 0.46648 0.54415 0.61959 0.0
H779 H 0.51377 0.53329 0.64318 0.0
H780 H 0.43535 0.5401 0.52294 0.0
H781 H 0.40557 0.50743 0.48019 0.0
C782 C 0.02776 0.48163 0.57468 0.0
C783 C 0.00338 0.50921 0.53986 0.0
C784 C 0.00518 0.47184 0.42609 0.0
C785 C 0.02961 0.44419 0.46019 0.0
N786 N 0.05988 0.41921 0.56918 0.0
N787 N 0.9669 0.52936 0.43331 0.0
C788 C 0.03944 0.44795 0.53544 0.0
C789 C 0.99175 0.50393 0.46601 0.0
N790 N 0.04166 0.48881 0.64351 0.0
N791 N 0.99231 0.46754 0.35595 0.0
H792 H 0.95307 0.55152 0.4615 0.0
H793 H 0.95914 0.52747 0.37816 0.0
H794 H -0.00126 0.44419 0.32223 0.0
H795 H -0.00126 0.44419 0.32223 0.0
H796 H 0.06128 0.47131 0.67073 0.0
H797 H 0.0355 0.51379 0.67283 0.0
H798 H 0.06407 0.41737 0.6255 0.0
H799 H 0.07123 0.39568 0.54096 0.0
loop_
_geom_bond_atom_site_label_1
_geom_bond_atom_site_label_2
_geom_bond_distance
_geom_bond_site_symmetry_2
_ccdc_geom_bond_type
C0 O1 1.306 . S
C0 O3 1.160 . S
O1 C0 1.306 . S
O1 Cd2 2.228 . S
Cd2 O1 2.228 . S
Cd2 O6 2.273 . S
Cd2 O10 2.277 1_565 S
O3 C0 1.160 . S
O3 Cd4 2.203 1_565 S
Cd4 O3 2.203 1_545 S
Cd4 O6 2.411 1_545 S
Cd4 O7 2.333 . S
Cd4 O8 2.352 1_544 S
Cd4 O12 2.277 . S
Cd4 O13 2.356 1_554 S
C5 O10 1.209 . S
C5 O12 1.226 . S
O6 Cd2 2.273 . S
O6 Cd4 2.411 1_565 S
O6 C9 1.320 . S
O7 Cd4 2.333 . S
O7 C9 1.214 1_545 S
O8 Cd4 2.352 1_566 S
O8 C11 1.258 1_565 S
C9 O6 1.320 . S
C9 O7 1.214 1_565 S
O10 Cd2 2.277 1_545 S
O10 C5 1.209 . S
C11 O8 1.258 1_545 S
C11 O13 1.282 . S
O12 Cd4 2.277 . S
O12 C5 1.226 . S
O13 Cd4 2.356 1_556 S
O13 C11 1.282 . S
C14 O15 1.306 . S
C14 O17 1.160 . S
O15 C14 1.306 . S
O15 Cd16 2.228 . S
Cd16 O15 2.228 . S
Cd16 O20 2.273 . S
Cd16 O24 2.277 . S
O17 C14 1.160 . S
O17 Cd18 2.203 . S
Cd18 O17 2.203 . S
Cd18 O20 2.411 . S
Cd18 O21 2.333 . S
Cd18 O22 2.352 1_554 S
Cd18 O26 2.277 . S
Cd18 O27 2.356 1_554 S
C19 O24 1.209 . S
C19 O26 1.226 . S
O20 Cd16 2.273 . S
O20 Cd18 2.411 . S
O20 C23 1.320 . S
O21 Cd18 2.333 . S
O21 C23 1.214 . S
O22 Cd18 2.352 1_556 S
O22 C25 1.258 . S
C23 O20 1.320 . S
C23 O21 1.214 . S
O24 Cd16 2.277 . S
O24 C19 1.209 . S
C25 O22 1.258 . S
C25 O27 1.282 . S
O26 Cd18 2.277 . S
O26 C19 1.226 . S
O27 Cd18 2.356 1_556 S
O27 C25 1.282 . S
C28 O29 1.306 . S
C28 O31 1.160 . S
O29 C28 1.306 . S
O29 Cd30 2.228 . S
Cd30 O29 2.228 . S
Cd30 O34 2.273 . S
Cd30 O38 2.277 . S
O31 C28 1.160 . S
O31 Cd32 2.203 . S
Cd32 O31 2.203 . S
Cd32 O34 2.411 . S
Cd32 O35 2.333 . S
Cd32 O36 2.352 1_554 S
Cd32 O40 2.277 . S
Cd32 O41 2.356 1_554 S
C33 O38 1.209 . S
C33 O40 1.226 . S
O34 Cd30 2.273 . S
O34 Cd32 2.411 . S
O34 C37 1.320 . S
O35 Cd32 2.333 . S
O35 C37 1.214 . S
O36 Cd32 2.352 1_556 S
O36 C39 1.258 . S
C37 O34 1.320 . S
C37 O35 1.214 . S
O38 Cd30 2.277 . S
O38 C33 1.209 . S
C39 O36 1.258 . S
C39 O41 1.282 . S
O40 Cd32 2.277 . S
O40 C33 1.226 . S
O41 Cd32 2.356 1_556 S
O41 C39 1.282 . S
C42 O43 1.306 . S
C42 O45 1.160 . S
O43 C42 1.306 . S
O43 Cd44 2.228 . S
Cd44 O43 2.228 . S
Cd44 O48 2.273 . S
Cd44 O52 2.277 1_655 S
O45 C42 1.160 . S
O45 Cd46 2.203 1_655 S
Cd46 O45 2.203 1_455 S
Cd46 O48 2.411 1_455 S
Cd46 O49 2.333 . S
Cd46 O50 2.352 1_454 S
Cd46 O54 2.277 . S
Cd46 O55 2.356 1_554 S
C47 O52 1.209 . S
C47 O54 1.226 . S
O48 Cd44 2.273 . S
O48 Cd46 2.411 1_655 S
O48 C51 1.320 . S
O49 Cd46 2.333 . S
O49 C51 1.214 1_455 S
O50 Cd46 2.352 1_656 S
O50 C53 1.258 1_655 S
C51 O48 1.320 . S
C51 O49 1.214 1_655 S
O52 Cd44 2.277 1_455 S
O52 C47 1.209 . S
C53 O50 1.258 1_455 S
C53 O55 1.282 . S
O54 Cd46 2.277 . S
O54 C47 1.226 . S
O55 Cd46 2.356 1_556 S
O55 C53 1.282 . S
C56 O57 1.306 . S
C56 O59 1.160 . S
O57 C56 1.306 . S
O57 Cd58 2.228 . S
Cd58 O57 2.228 . S
Cd58 O62 2.273 . S
Cd58 O66 2.277 1_545 S
O59 C56 1.160 . S
O59 Cd60 2.203 1_545 S
Cd60 O59 2.203 1_565 S
Cd60 O62 2.411 1_565 S
Cd60 O63 2.333 . S
Cd60 O64 2.352 1_565 S
Cd60 O68 2.277 . S
Cd60 O69 2.356 . S
C61 O66 1.209 . S
C61 O68 1.226 . S
O62 Cd58 2.273 . S
O62 Cd60 2.411 1_545 S
O62 C65 1.320 . S
O63 Cd60 2.333 . S
O63 C65 1.214 1_565 S
O64 Cd60 2.352 1_545 S
O64 C67 1.258 1_545 S
C65 O62 1.320 . S
C65 O63 1.214 1_545 S
O66 Cd58 2.277 1_565 S
O66 C61 1.209 . S
C67 O64 1.258 1_565 S
C67 O69 1.282 . S
O68 Cd60 2.277 . S
O68 C61 1.226 . S
O69 Cd60 2.356 . S
O69 C67 1.282 . S
C70 O71 1.306 . S
C70 O73 1.160 . S
O71 C70 1.306 . S
O71 Cd72 2.228 . S
Cd72 O71 2.228 . S
Cd72 O76 2.273 . S
Cd72 O80 2.277 . S
O73 C70 1.160 . S
O73 Cd74 2.203 . S
Cd74 O73 2.203 . S
Cd74 O76 2.411 . S
Cd74 O77 2.333 . S
Cd74 O78 2.352 . S
Cd74 O82 2.277 . S
Cd74 O83 2.356 . S
C75 O80 1.209 . S
C75 O82 1.226 . S
O76 Cd72 2.273 . S
O76 Cd74 2.411 . S
O76 C79 1.320 . S
O77 Cd74 2.333 . S
O77 C79 1.214 . S
O78 Cd74 2.352 . S
O78 C81 1.258 . S
C79 O76 1.320 . S
C79 O77 1.214 . S
O80 Cd72 2.277 . S
O80 C75 1.209 . S
C81 O78 1.258 . S
C81 O83 1.282 . S
O82 Cd74 2.277 . S
O82 C75 1.226 . S
O83 Cd74 2.356 . S
O83 C81 1.282 . S
C84 O85 1.306 . S
C84 O87 1.160 . S
O85 C84 1.306 . S
O85 Cd86 2.228 . S
Cd86 O85 2.228 . S
Cd86 O90 2.273 . S
Cd86 O94 2.277 . S
O87 C84 1.160 . S
O87 Cd88 2.203 . S
Cd88 O87 2.203 . S
Cd88 O90 2.411 . S
Cd88 O91 2.333 . S
Cd88 O92 2.352 . S
Cd88 O96 2.277 . S
Cd88 O97 2.356 . S
C89 O94 1.209 . S
C89 O96 1.226 . S
O90 Cd86 2.273 . S
O90 Cd88 2.411 . S
O90 C93 1.320 . S
O91 Cd88 2.333 . S
O91 C93 1.214 . S
O92 Cd88 2.352 . S
O92 C95 1.258 . S
C93 O90 1.320 . S
C93 O91 1.214 . S
O94 Cd86 2.277 . S
O94 C89 1.209 . S
C95 O92 1.258 . S
C95 O97 1.282 . S
O96 Cd88 2.277 . S
O96 C89 1.226 . S
O97 Cd88 2.356 . S
O97 C95 1.282 . S
C98 O99 1.306 . S
C98 O101 1.160 . S
O99 C98 1.306 . S
O99 Cd100 2.228 . S
Cd100 O99 2.228 . S
Cd100 O104 2.273 . S
Cd100 O108 2.277 1_455 S
O101 C98 1.160 . S
O101 Cd102 2.203 1_455 S
Cd102 O101 2.203 1_655 S
Cd102 O104 2.411 1_655 S
Cd102 O105 2.333 . S
Cd102 O106 2.352 1_655 S
Cd102 O110 2.277 . S
Cd102 O111 2.356 . S
C103 O108 1.209 . S
C103 O110 1.226 . S
O104 Cd100 2.273 . S
O104 Cd102 2.411 1_455 S
O104 C107 1.320 . S
O105 Cd102 2.333 . S
O105 C107 1.214 1_655 S
O106 Cd102 2.352 1_455 S
O106 C109 1.258 1_455 S
C107 O104 1.320 . S
C107 O105 1.214 1_455 S
O108 Cd100 2.277 1_655 S
O108 C103 1.209 . S
C109 O106 1.258 1_655 S
C109 O111 1.282 . S
O110 Cd102 2.277 . S
O110 C103 1.226 . S
O111 Cd102 2.356 . S
O111 C109 1.282 . S
C112 O113 1.306 . S
C112 O115 1.160 . S
O113 C112 1.306 . S
O113 Cd114 2.228 . S
Cd114 O113 2.228 . S
Cd114 O118 2.273 . S
Cd114 O122 2.277 1_545 S
O115 C112 1.160 . S
O115 Cd116 2.203 1_545 S
Cd116 O115 2.203 1_565 S
Cd116 O118 2.411 1_565 S
Cd116 O119 2.333 . S
Cd116 O120 2.352 1_566 S
Cd116 O124 2.277 . S
Cd116 O125 2.356 1_556 S
C117 O122 1.209 . S
C117 O124 1.226 . S
O118 Cd114 2.273 . S
O118 Cd116 2.411 1_545 S
O118 C121 1.320 . S
O119 Cd116 2.333 . S
O119 C121 1.214 1_565 S
O120 Cd116 2.352 1_544 S
O120 C123 1.258 1_545 S
C121 O118 1.320 . S
C121 O119 1.214 1_545 S
O122 Cd114 2.277 1_565 S
O122 C117 1.209 . S
C123 O120 1.258 1_565 S
C123 O125 1.282 . S
O124 Cd116 2.277 . S
O124 C117 1.226 . S
O125 Cd116 2.356 1_554 S
O125 C123 1.282 . S
C126 O127 1.306 . S
C126 O129 1.160 . S
O127 C126 1.306 . S
O127 Cd128 2.228 . S
Cd128 O127 2.228 . S
Cd128 O132 2.273 . S
Cd128 O136 2.277 . S
O129 C126 1.160 . S
O129 Cd130 2.203 . S
Cd130 O129 2.203 . S
Cd130 O132 2.411 . S
Cd130 O133 2.333 . S
Cd130 O134 2.352 1_556 S
Cd130 O138 2.277 . S
Cd130 O139 2.356 1_556 S
C131 O136 1.209 . S
C131 O138 1.226 . S
O132 Cd128 2.273 . S
O132 Cd130 2.411 . S
O132 C135 1.320 . S
O133 Cd130 2.333 . S
O133 C135 1.214 . S
O134 Cd130 2.352 1_554 S
O134 C137 1.258 . S
C135 O132 1.320 . S
C135 O133 1.214 . S
O136 Cd128 2.277 . S
O136 C131 1.209 . S
C137 O134 1.258 . S
C137 O139 1.282 . S
O138 Cd130 2.277 . S
O138 C131 1.226 . S
O139 Cd130 2.356 1_554 S
O139 C137 1.282 . S
C140 O141 1.306 . S
C140 O143 1.160 . S
O141 C140 1.306 . S
O141 Cd142 2.228 . S
Cd142 O141 2.228 . S
Cd142 O146 2.273 . S
Cd142 O150 2.277 . S
O143 C140 1.160 . S
O143 Cd144 2.203 . S
Cd144 O143 2.203 . S
Cd144 O146 2.411 . S
Cd144 O147 2.333 . S
Cd144 O148 2.352 1_556 S
Cd144 O152 2.277 . S
Cd144 O153 2.356 1_556 S
C145 O150 1.209 . S
C145 O152 1.226 . S
O146 Cd142 2.273 . S
O146 Cd144 2.411 . S
O146 C149 1.320 . S
O147 Cd144 2.333 . S
O147 C149 1.214 . S
O148 Cd144 2.352 1_554 S
O148 C151 1.258 . S
C149 O146 1.320 . S
C149 O147 1.214 . S
O150 Cd142 2.277 . S
O150 C145 1.209 . S
C151 O148 1.258 . S
C151 O153 1.282 . S
O152 Cd144 2.277 . S
O152 C145 1.226 . S
O153 Cd144 2.356 1_554 S
O153 C151 1.282 . S
C154 O155 1.306 . S
C154 O157 1.160 . S
O155 C154 1.306 . S
O155 Cd156 2.228 . S
Cd156 O155 2.228 . S
Cd156 O160 2.273 . S
Cd156 O164 2.277 1_455 S
O157 C154 1.160 . S
O157 Cd158 2.203 1_455 S
Cd158 O157 2.203 1_655 S
Cd158 O160 2.411 1_655 S
Cd158 O161 2.333 . S
Cd158 O162 2.352 1_656 S
Cd158 O166 2.277 . S
Cd158 O167 2.356 1_556 S
C159 O164 1.209 . S
C159 O166 1.226 . S
O160 Cd156 2.273 . S
O160 Cd158 2.411 1_455 S
O160 C163 1.320 . S
O161 Cd158 2.333 . S
O161 C163 1.214 1_655 S
O162 Cd158 2.352 1_454 S
O162 C165 1.258 1_455 S
C163 O160 1.320 . S
C163 O161 1.214 1_455 S
O164 Cd156 2.277 1_655 S
O164 C159 1.209 . S
C165 O162 1.258 1_655 S
C165 O167 1.282 . S
O166 Cd158 2.277 . S
O166 C159 1.226 . S
O167 Cd158 2.356 1_554 S
O167 C165 1.282 . S
C168 O169 1.306 . S
C168 O171 1.160 . S
O169 C168 1.306 . S
O169 Cd170 2.228 . S
Cd170 O169 2.228 . S
Cd170 O174 2.273 . S
Cd170 O178 2.277 1_565 S
O171 C168 1.160 . S
O171 Cd172 2.203 1_565 S
Cd172 O171 2.203 1_545 S
Cd172 O174 2.411 1_545 S
Cd172 O175 2.333 . S
Cd172 O176 2.352 1_545 S
Cd172 O180 2.277 . S
Cd172 O181 2.356 . S
C173 O178 1.209 . S
C173 O180 1.226 . S
O174 Cd170 2.273 . S
O174 Cd172 2.411 1_565 S
O174 C177 1.320 . S
O175 Cd172 2.333 . S
O175 C177 1.214 1_545 S
O176 Cd172 2.352 1_565 S
O176 C179 1.258 1_565 S
C177 O174 1.320 . S
C177 O175 1.214 1_565 S
O178 Cd170 2.277 1_545 S
O178 C173 1.209 . S
C179 O176 1.258 1_545 S
C179 O181 1.282 . S
O180 Cd172 2.277 . S
O180 C173 1.226 . S
O181 Cd172 2.356 . S
O181 C179 1.282 . S
C182 O183 1.306 . S
C182 O185 1.160 . S
O183 C182 1.306 . S
O183 Cd184 2.228 . S
Cd184 O183 2.228 . S
Cd184 O188 2.273 . S
Cd184 O192 2.277 . S
O185 C182 1.160 . S
O185 Cd186 2.203 . S
Cd186 O185 2.203 . S
Cd186 O188 2.411 . S
Cd186 O189 2.333 . S
Cd186 O190 2.352 . S
Cd186 O194 2.277 . S
Cd186 O195 2.356 . S
C187 O192 1.209 . S
C187 O194 1.226 . S
O188 Cd184 2.273 . S
O188 Cd186 2.411 . S
O188 C191 1.320 . S
O189 Cd186 2.333 . S
O189 C191 1.214 . S
O190 Cd186 2.352 . S
O190 C193 1.258 . S
C191 O188 1.320 . S
C191 O189 1.214 . S
O192 Cd184 2.277 . S
O192 C187 1.209 . S
C193 O190 1.258 . S
C193 O195 1.282 . S
O194 Cd186 2.277 . S
O194 C187 1.226 . S
O195 Cd186 2.356 . S
O195 C193 1.282 . S
C196 O197 1.306 . S
C196 O199 1.160 . S
O197 C196 1.306 . S
O197 Cd198 2.228 . S
Cd198 O197 2.228 . S
Cd198 O202 2.273 . S
Cd198 O206 2.277 . S
O199 C196 1.160 . S
O199 Cd200 2.203 . S
Cd200 O199 2.203 . S
Cd200 O202 2.411 . S
Cd200 O203 2.333 . S
Cd200 O204 2.352 . S
Cd200 O208 2.277 . S
Cd200 O209 2.356 . S
C201 O206 1.209 . S
C201 O208 1.226 . S
O202 Cd198 2.273 . S
O202 Cd200 2.411 . S
O202 C205 1.320 . S
O203 Cd200 2.333 . S
O203 C205 1.214 . S
O204 Cd200 2.352 . S
O204 C207 1.258 . S
C205 O202 1.320 . S
C205 O203 1.214 . S
O206 Cd198 2.277 . S
O206 C201 1.209 . S
C207 O204 1.258 . S
C207 O209 1.282 . S
O208 Cd200 2.277 . S
O208 C201 1.226 . S
O209 Cd200 2.356 . S
O209 C207 1.282 . S
C210 O211 1.306 . S
C210 O213 1.160 . S
O211 C210 1.306 . S
O211 Cd212 2.228 . S
Cd212 O211 2.228 . S
Cd212 O216 2.273 . S
Cd212 O220 2.277 1_655 S
O213 C210 1.160 . S
O213 Cd214 2.203 1_655 S
Cd214 O213 2.203 1_455 S
Cd214 O216 2.411 1_455 S
Cd214 O217 2.333 . S
Cd214 O218 2.352 1_455 S
Cd214 O222 2.277 . S
Cd214 O223 2.356 . S
C215 O220 1.209 . S
C215 O222 1.226 . S
O216 Cd212 2.273 . S
O216 Cd214 2.411 1_655 S
O216 C219 1.320 . S
O217 Cd214 2.333 . S
O217 C219 1.214 1_455 S
O218 Cd214 2.352 1_655 S
O218 C221 1.258 1_655 S
C219 O216 1.320 . S
C219 O217 1.214 1_655 S
O220 Cd212 2.277 1_455 S
O220 C215 1.209 . S
C221 O218 1.258 1_455 S
C221 O223 1.282 . S
O222 Cd214 2.277 . S
O222 C215 1.226 . S
O223 Cd214 2.356 . S
O223 C221 1.282 . S
C224 C225 1.363 . S
C224 C230 1.379 . S
C224 N232 1.356 . S
C225 C224 1.363 . S
C225 C231 1.363 . S
C226 C227 1.363 . S
C226 C231 1.379 . S
C226 N233 1.356 . S
C227 C226 1.363 . S
C227 C230 1.363 . S
N228 C230 1.356 . S
N228 H240 0.984 . S
N228 H241 0.985 . S
N229 C231 1.356 . S
N229 H234 0.984 . S
N229 H235 0.985 . S
C230 C224 1.379 . S
C230 C227 1.363 . S
C230 N228 1.356 . S
C231 C225 1.363 . S
C231 C226 1.379 . S
C231 N229 1.356 . S
N232 C224 1.356 . S
N232 H238 0.984 . S
N232 H239 0.984 . S
N233 C226 1.356 . S
N233 H236 0.984 . S
N233 H237 0.985 . S
H234 N229 0.984 . S
H235 N229 0.985 . S
H236 N233 0.984 . S
H237 N233 0.985 . S
H238 N232 0.984 . S
H239 N232 0.984 . S
H240 N228 0.984 . S
H241 N228 0.985 . S
C242 C243 1.363 . S
C242 C248 1.379 . S
C242 N250 1.356 . S
C243 C242 1.363 . S
C243 C249 1.363 . S
C244 C245 1.363 . S
C244 C249 1.379 . S
C244 N251 1.356 . S
C245 C244 1.363 . S
C245 C248 1.363 . S
N246 C248 1.356 . S
N246 H258 0.984 . S
N246 H259 0.985 . S
N247 C249 1.356 . S
N247 H252 0.984 . S
N247 H253 0.985 . S
C248 C242 1.379 . S
C248 C245 1.363 . S
C248 N246 1.356 . S
C249 C243 1.363 . S
C249 C244 1.379 . S
C249 N247 1.356 . S
N250 C242 1.356 . S
N250 H256 0.984 . S
N250 H257 0.984 . S
N251 C244 1.356 . S
N251 H254 0.984 . S
N251 H255 0.985 . S
H252 N247 0.984 . S
H253 N247 0.985 . S
H254 N251 0.984 . S
H255 N251 0.985 . S
H256 N250 0.984 . S
H257 N250 0.984 . S
H258 N246 0.984 . S
H259 N246 0.985 . S
C260 C261 1.363 . S
C260 C266 1.379 . S
C260 N268 1.356 . S
C261 C260 1.363 . S
C261 C267 1.363 . S
C262 C263 1.363 . S
C262 C267 1.379 . S
C262 N269 1.356 . S
C263 C262 1.363 . S
C263 C266 1.363 . S
N264 C266 1.356 . S
N264 H276 0.984 . S
N264 H277 0.985 . S
N265 C267 1.356 . S
N265 H270 0.984 . S
N265 H271 0.985 . S
C266 C260 1.379 . S
C266 C263 1.363 . S
C266 N264 1.356 . S
C267 C261 1.363 . S
C267 C262 1.379 . S
C267 N265 1.356 . S
N268 C260 1.356 . S
N268 H274 0.984 . S
N268 H275 0.984 . S
N269 C262 1.356 . S
N269 H272 0.984 . S
N269 H273 0.985 . S
H270 N265 0.984 . S
H271 N265 0.985 . S
H272 N269 0.984 . S
H273 N269 0.985 . S
H274 N268 0.984 . S
H275 N268 0.984 . S
H276 N264 0.984 . S
H277 N264 0.985 . S
C278 C279 1.363 . S
C278 C284 1.379 . S
C278 N286 1.356 . S
C279 C278 1.363 . S
C279 C285 1.363 . S
C280 C281 1.363 . S
C280 C285 1.379 . S
C280 N287 1.356 . S
C281 C280 1.363 . S
C281 C284 1.363 . S
N282 C284 1.356 . S
N282 H294 0.984 . S
N282 H295 0.985 . S
N283 C285 1.356 . S
N283 H288 0.984 . S
N283 H289 0.985 . S
C284 C278 1.379 . S
C284 C281 1.363 . S
C284 N282 1.356 . S
C285 C279 1.363 . S
C285 C280 1.379 . S
C285 N283 1.356 . S
N286 C278 1.356 . S
N286 H292 0.984 1_455 S
N286 H293 0.984 . S
N287 C280 1.356 . S
N287 H290 0.984 . S
N287 H291 0.985 . S
H288 N283 0.984 . S
H289 N283 0.985 . S
H290 N287 0.984 . S
H291 N287 0.985 . S
H292 N286 0.984 1_655 S
H293 N286 0.984 . S
H294 N282 0.984 . S
H295 N282 0.985 . S
C296 C297 1.363 . S
C296 C302 1.379 . S
C296 N304 1.356 . S
C297 C296 1.363 . S
C297 C303 1.363 . S
C298 C299 1.363 . S
C298 C303 1.379 . S
C298 N305 1.356 . S
C299 C298 1.363 . S
C299 C302 1.363 . S
N300 C302 1.356 . S
N300 H312 0.984 . S
N300 H313 0.985 . S
N301 C303 1.356 . S
N301 H306 0.984 . S
N301 H307 0.985 . S
C302 C296 1.379 . S
C302 C299 1.363 . S
C302 N300 1.356 . S
C303 C297 1.363 . S
C303 C298 1.379 . S
C303 N301 1.356 . S
N304 C296 1.356 . S
N304 H310 0.984 . S
N304 H311 0.984 . S
N305 C298 1.356 . S
N305 H308 0.984 . S
N305 H309 0.985 . S
H306 N301 0.984 . S
H307 N301 0.985 . S
H308 N305 0.984 . S
H309 N305 0.985 . S
H310 N304 0.984 . S
H311 N304 0.984 . S
H312 N300 0.984 . S
H313 N300 0.985 . S
C314 C315 1.363 . S
C314 C320 1.379 . S
C314 N322 1.356 . S
C315 C314 1.363 . S
C315 C321 1.363 . S
C316 C317 1.363 . S
C316 C321 1.379 . S
C316 N323 1.356 . S
C317 C316 1.363 . S
C317 C320 1.363 . S
N318 C320 1.356 . S
N318 H330 0.984 . S
N318 H331 0.985 . S
N319 C321 1.356 . S
N319 H324 0.984 . S
N319 H325 0.985 . S
C320 C314 1.379 . S
C320 C317 1.363 . S
C320 N318 1.356 . S
C321 C315 1.363 . S
C321 C316 1.379 . S
C321 N319 1.356 . S
N322 C314 1.356 . S
N322 H328 0.984 . S
N322 H329 0.984 . S
N323 C316 1.356 . S
N323 H326 0.984 . S
N323 H327 0.985 . S
H324 N319 0.984 . S
H325 N319 0.985 . S
H326 N323 0.984 . S
H327 N323 0.985 . S
H328 N322 0.984 . S
H329 N322 0.984 . S
H330 N318 0.984 . S
H331 N318 0.985 . S
C332 C333 1.363 . S
C332 C338 1.379 . S
C332 N340 1.356 . S
C333 C332 1.363 . S
C333 C339 1.363 . S
C334 C335 1.363 . S
C334 C339 1.379 . S
C334 N341 1.356 . S
C335 C334 1.363 . S
C335 C338 1.363 . S
N336 C338 1.356 . S
N336 H348 0.984 . S
N336 H349 0.985 . S
N337 C339 1.356 . S
N337 H342 0.984 . S
N337 H343 0.985 . S
C338 C332 1.379 . S
C338 C335 1.363 . S
C338 N336 1.356 . S
C339 C333 1.363 . S
C339 C334 1.379 . S
C339 N337 1.356 . S
N340 C332 1.356 . S
N340 H346 0.984 . S
N340 H347 0.984 . S
N341 C334 1.356 . S
N341 H344 0.984 . S
N341 H345 0.985 . S
H342 N337 0.984 . S
H343 N337 0.985 . S
H344 N341 0.984 . S
H345 N341 0.985 . S
H346 N340 0.984 . S
H347 N340 0.984 . S
H348 N336 0.984 . S
H349 N336 0.985 . S
C350 C351 1.363 . S
C350 C356 1.379 . S
C350 N358 1.356 . S
C351 C350 1.363 . S
C351 C357 1.363 . S
C352 C353 1.363 . S
C352 C357 1.379 . S
C352 N359 1.356 . S
C353 C352 1.363 . S
C353 C356 1.363 . S
N354 C356 1.356 . S
N354 H366 0.984 . S
N354 H367 0.985 . S
N355 C357 1.356 . S
N355 H360 0.984 . S
N355 H361 0.985 . S
C356 C350 1.379 . S
C356 C353 1.363 . S
C356 N354 1.356 . S
C357 C351 1.363 . S
C357 C352 1.379 . S
C357 N355 1.356 . S
N358 C350 1.356 . S
N358 H364 0.984 . S
N358 H365 0.984 . S
N359 C352 1.356 . S
N359 H362 0.984 . S
N359 H363 0.985 . S
H360 N355 0.984 . S
H361 N355 0.985 . S
H362 N359 0.984 . S
H363 N359 0.985 . S
H364 N358 0.984 . S
H365 N358 0.984 . S
H366 N354 0.984 . S
H367 N354 0.985 . S
C368 C369 1.363 1_545 S
C368 C374 1.379 . S
C368 N376 1.356 . S
C369 C368 1.363 1_565 S
C369 C375 1.363 . S
C370 C371 1.363 . S
C370 C375 1.379 . S
C370 N377 1.356 . S
C371 C370 1.363 . S
C371 C374 1.363 1_565 S
N372 C374 1.356 . S
N372 H384 0.984 . S
N372 H385 0.985 . S
N373 C375 1.356 . S
N373 H378 0.984 . S
N373 H379 0.985 . S
C374 C368 1.379 . S
C374 C371 1.363 1_545 S
C374 N372 1.356 . S
C375 C369 1.363 . S
C375 C370 1.379 . S
C375 N373 1.356 . S
N376 C368 1.356 . S
N376 H382 0.984 . S
N376 H383 0.984 . S
N377 C370 1.356 . S
N377 H380 0.984 . S
N377 H381 0.985 . S
H378 N373 0.984 . S
H379 N373 0.985 . S
H380 N377 0.984 . S
H381 N377 0.985 . S
H382 N376 0.984 . S
H383 N376 0.984 . S
H384 N372 0.984 . S
H385 N372 0.985 . S
C386 C387 1.363 . S
C386 C392 1.379 . S
C386 N394 1.356 . S
C387 C386 1.363 . S
C387 C393 1.363 . S
C388 C389 1.363 . S
C388 C393 1.379 . S
C388 N395 1.356 . S
C389 C388 1.363 . S
C389 C392 1.363 . S
N390 C392 1.356 . S
N390 H402 0.984 . S
N390 H403 0.985 . S
N391 C393 1.356 . S
N391 H396 0.984 . S
N391 H397 0.985 . S
C392 C386 1.379 . S
C392 C389 1.363 . S
C392 N390 1.356 . S
C393 C387 1.363 . S
C393 C388 1.379 . S
C393 N391 1.356 . S
N394 C386 1.356 . S
N394 H400 0.984 . S
N394 H401 0.984 . S
N395 C388 1.356 . S
N395 H398 0.984 . S
N395 H399 0.985 . S
H396 N391 0.984 . S
H397 N391 0.985 . S
H398 N395 0.984 . S
H399 N395 0.985 . S
H400 N394 0.984 . S
H401 N394 0.984 . S
H402 N390 0.984 . S
H403 N390 0.985 . S
C404 C405 1.363 . S
C404 C410 1.379 . S
C404 N412 1.356 . S
C405 C404 1.363 . S
C405 C411 1.363 . S
C406 C407 1.363 . S
C406 C411 1.379 . S
C406 N413 1.356 . S
C407 C406 1.363 . S
C407 C410 1.363 . S
N408 C410 1.356 . S
N408 H420 0.984 . S
N408 H421 0.985 . S
N409 C411 1.356 . S
N409 H414 0.984 . S
N409 H415 0.985 . S
C410 C404 1.379 . S
C410 C407 1.363 . S
C410 N408 1.356 . S
C411 C405 1.363 . S
C411 C406 1.379 . S
C411 N409 1.356 . S
N412 C404 1.356 . S
N412 H418 0.984 . S
N412 H419 0.984 . S
N413 C406 1.356 . S
N413 H416 0.984 . S
N413 H417 0.985 . S
H414 N409 0.984 . S
H415 N409 0.985 . S
H416 N413 0.984 . S
H417 N413 0.985 . S
H418 N412 0.984 . S
H419 N412 0.984 . S
H420 N408 0.984 . S
H421 N408 0.985 . S
C422 C423 1.363 . S
C422 C428 1.379 . S
C422 N430 1.356 . S
C423 C422 1.363 . S
C423 C429 1.363 . S
C424 C425 1.363 . S
C424 C429 1.379 . S
C424 N431 1.356 . S
C425 C424 1.363 . S
C425 C428 1.363 . S
N426 C428 1.356 . S
N426 H438 0.984 . S
N426 H439 0.985 . S
N427 C429 1.356 1_455 S
N427 H432 0.984 . S
N427 H433 0.985 . S
C428 C422 1.379 . S
C428 C425 1.363 . S
C428 N426 1.356 . S
C429 C423 1.363 . S
C429 C424 1.379 . S
C429 N427 1.356 1_655 S
N430 C422 1.356 . S
N430 H436 0.984 . S
N430 H437 0.984 1_655 S
N431 C424 1.356 . S
N431 H434 0.984 . S
N431 H435 0.985 . S
H432 N427 0.984 . S
H433 N427 0.985 . S
H434 N431 0.984 . S
H435 N431 0.985 . S
H436 N430 0.984 . S
H437 N430 0.984 1_455 S
H438 N426 0.984 . S
H439 N426 0.985 . S
C440 C441 1.363 1_565 S
C440 C446 1.379 1_565 S
C440 N448 1.356 . S
C441 C440 1.363 1_545 S
C441 C447 1.363 . S
C442 C443 1.363 . S
C442 C447 1.379 . S
C442 N449 1.356 . S
C443 C442 1.363 . S
C443 C446 1.363 . S
N444 C446 1.356 1_565 S
N444 H456 0.984 . S
N444 H457 0.985 1_565 S
N445 C447 1.356 . S
N445 H450 0.984 . S
N445 H451 0.985 . S
C446 C440 1.379 1_545 S
C446 C443 1.363 . S
C446 N444 1.356 1_545 S
C447 C441 1.363 . S
C447 C442 1.379 . S
C447 N445 1.356 . S
N448 C440 1.356 . S
N448 H454 0.984 . S
N448 H455 0.984 . S
N449 C442 1.356 . S
N449 H452 0.984 . S
N449 H453 0.985 . S
H450 N445 0.984 . S
H451 N445 0.985 . S
H452 N449 0.984 . S
H453 N449 0.985 . S
H454 N448 0.984 . S
H455 N448 0.984 . S
H456 N444 0.984 . S
H457 N444 0.985 1_545 S
C458 C459 1.363 . S
C458 C464 1.379 . S
C458 N466 1.356 . S
C459 C458 1.363 . S
C459 C465 1.363 . S
C460 C461 1.363 . S
C460 C465 1.379 . S
C460 N467 1.356 . S
C461 C460 1.363 . S
C461 C464 1.363 . S
N462 C464 1.356 . S
N462 H474 0.984 . S
N462 H475 0.985 . S
N463 C465 1.356 . S
N463 H468 0.984 . S
N463 H469 0.985 . S
C464 C458 1.379 . S
C464 C461 1.363 . S
C464 N462 1.356 . S
C465 C459 1.363 . S
C465 C460 1.379 . S
C465 N463 1.356 . S
N466 C458 1.356 . S
N466 H472 0.984 . S
N466 H473 0.984 . S
N467 C460 1.356 . S
N467 H470 0.984 . S
N467 H471 0.985 . S
H468 N463 0.984 . S
H469 N463 0.985 . S
H470 N467 0.984 . S
H471 N467 0.985 . S
H472 N466 0.984 . S
H473 N466 0.984 . S
H474 N462 0.984 . S
H475 N462 0.985 . S
C476 C477 1.363 . S
C476 C482 1.379 . S
C476 N484 1.356 . S
C477 C476 1.363 . S
C477 C483 1.363 . S
C478 C479 1.363 . S
C478 C483 1.379 . S
C478 N485 1.356 . S
C479 C478 1.363 . S
C479 C482 1.363 . S
N480 C482 1.356 . S
N480 H492 0.984 . S
N480 H493 0.985 . S
N481 C483 1.356 . S
N481 H486 0.984 . S
N481 H487 0.985 . S
C482 C476 1.379 . S
C482 C479 1.363 . S
C482 N480 1.356 . S
C483 C477 1.363 . S
C483 C478 1.379 . S
C483 N481 1.356 . S
N484 C476 1.356 . S
N484 H490 0.984 . S
N484 H491 0.984 . S
N485 C478 1.356 . S
N485 H488 0.984 . S
N485 H489 0.985 . S
H486 N481 0.984 . S
H487 N481 0.985 . S
H488 N485 0.984 . S
H489 N485 0.985 . S
H490 N484 0.984 . S
H491 N484 0.984 . S
H492 N480 0.984 . S
H493 N480 0.985 . S
C494 C495 1.363 1_655 S
C494 C500 1.379 1_655 S
C494 N502 1.356 . S
C495 C494 1.363 1_455 S
C495 C501 1.363 . S
C496 C497 1.363 . S
C496 C501 1.379 . S
C496 N503 1.356 . S
C497 C496 1.363 . S
C497 C500 1.363 . S
N498 C500 1.358 . S
N498 H510 0.977 1_455 S
N498 H511 0.990 . S
N499 C501 1.356 . S
N499 H504 0.984 . S
N499 H505 0.985 . S
C500 C494 1.379 1_455 S
C500 C497 1.363 . S
C500 N498 1.358 . S
C501 C495 1.363 . S
C501 C496 1.379 . S
C501 N499 1.356 . S
N502 C494 1.356 . S
N502 H508 0.984 . S
N502 H509 0.984 . S
N503 C496 1.356 . S
N503 H506 0.984 . S
N503 H507 0.985 . S
H504 N499 0.984 . S
H505 N499 0.985 . S
H506 N503 0.984 . S
H507 N503 0.985 . S
H508 N502 0.984 . S
H509 N502 0.984 . S
H510 N498 0.977 1_655 S
H511 N498 0.990 . S
C512 C513 1.363 . S
C512 C518 1.379 . S
C512 N520 1.356 . S
C513 C512 1.363 . S
C513 C519 1.363 . S
C514 C515 1.363 1_565 S
C514 C519 1.379 1_565 S
C514 N521 1.356 . S
C515 C514 1.363 1_545 S
C515 C518 1.363 . S
N516 C518 1.356 . S
N516 H528 0.984 . S
N516 H529 0.985 . S
N517 C519 1.356 . S
N517 H522 0.984 . S
N517 H523 0.985 1_545 S
C518 C512 1.379 . S
C518 C515 1.363 . S
C518 N516 1.356 . S
C519 C513 1.363 . S
C519 C514 1.379 1_545 S
C519 N517 1.356 . S
N520 C512 1.356 . S
N520 H526 0.984 . S
N520 H527 0.984 . S
N521 C514 1.356 . S
N521 H524 0.984 . S
N521 H525 0.985 . S
H522 N517 0.984 . S
H523 N517 0.985 1_565 S
H524 N521 0.984 . S
H525 N521 0.985 . S
H526 N520 0.984 . S
H527 N520 0.984 . S
H528 N516 0.984 . S
H529 N516 0.985 . S
C530 C531 1.363 . S
C530 C536 1.379 . S
C530 N538 1.356 . S
C531 C530 1.363 . S
C531 C537 1.363 . S
C532 C533 1.363 . S
C532 C537 1.379 . S
C532 N539 1.356 . S
C533 C532 1.363 . S
C533 C536 1.363 . S
N534 C536 1.356 . S
N534 H546 0.984 . S
N534 H547 0.985 . S
N535 C537 1.356 . S
N535 H540 0.984 . S
N535 H541 0.985 . S
C536 C530 1.379 . S
C536 C533 1.363 . S
C536 N534 1.356 . S
C537 C531 1.363 . S
C537 C532 1.379 . S
C537 N535 1.356 . S
N538 C530 1.356 . S
N538 H544 0.984 . S
N538 H545 0.984 . S
N539 C532 1.356 . S
N539 H542 0.984 . S
N539 H543 0.985 . S
H540 N535 0.984 . S
H541 N535 0.985 . S
H542 N539 0.984 . S
H543 N539 0.985 . S
H544 N538 0.984 . S
H545 N538 0.984 . S
H546 N534 0.984 . S
H547 N534 0.985 . S
C548 C549 1.363 . S
C548 C554 1.379 . S
C548 N556 1.356 . S
C549 C548 1.363 . S
C549 C555 1.363 . S
C550 C551 1.363 . S
C550 C555 1.379 . S
C550 N557 1.356 . S
C551 C550 1.363 . S
C551 C554 1.363 . S
N552 C554 1.356 . S
N552 H564 0.984 . S
N552 H565 0.985 . S
N553 C555 1.356 . S
N553 H558 0.984 . S
N553 H559 0.985 . S
C554 C548 1.379 . S
C554 C551 1.363 . S
C554 N552 1.356 . S
C555 C549 1.363 . S
C555 C550 1.379 . S
C555 N553 1.356 . S
N556 C548 1.356 . S
N556 H562 0.984 . S
N556 H563 0.984 . S
N557 C550 1.356 . S
N557 H560 0.984 . S
N557 H561 0.985 . S
H558 N553 0.984 . S
H559 N553 0.985 . S
H560 N557 0.984 . S
H561 N557 0.985 . S
H562 N556 0.984 . S
H563 N556 0.984 . S
H564 N552 0.984 . S
H565 N552 0.985 . S
C566 C567 1.363 . S
C566 C572 1.379 . S
C566 N574 1.356 . S
C567 C566 1.363 . S
C567 C573 1.363 1_455 S
C568 C569 1.363 . S
C568 C573 1.379 1_455 S
C568 N575 1.356 . S
C569 C568 1.363 . S
C569 C572 1.363 . S
N570 C572 1.356 . S
N570 H582 0.984 . S
N570 H583 0.985 . S
N571 C573 1.356 . S
N571 H576 0.984 . S
N571 H577 0.985 . S
C572 C566 1.379 . S
C572 C569 1.363 . S
C572 N570 1.356 . S
C573 C567 1.363 1_655 S
C573 C568 1.379 1_655 S
C573 N571 1.356 . S
N574 C566 1.356 . S
N574 H580 0.984 . S
N574 H581 0.984 . S
N575 C568 1.356 . S
N575 H578 0.984 . S
N575 H579 0.985 1_455 S
H576 N571 0.984 . S
H577 N571 0.985 . S
H578 N575 0.984 . S
H579 N575 0.985 1_655 S
H580 N574 0.984 . S
H581 N574 0.984 . S
H582 N570 0.984 . S
H583 N570 0.985 . S
C584 C585 1.363 . S
C584 C590 1.379 1_565 S
C584 N592 1.356 1_565 S
C585 C584 1.363 . S
C585 C591 1.363 . S
C586 C587 1.363 . S
C586 C591 1.379 . S
C586 N593 1.356 . S
C587 C586 1.363 . S
C587 C590 1.363 1_565 S
N588 C590 1.356 . S
N588 H600 0.984 . S
N588 H601 0.985 . S
N589 C591 1.356 . S
N589 H594 0.984 . S
N589 H595 0.985 . S
C590 C584 1.379 1_545 S
C590 C587 1.363 1_545 S
C590 N588 1.356 . S
C591 C585 1.363 . S
C591 C586 1.379 . S
C591 N589 1.356 . S
N592 C584 1.356 1_545 S
N592 H598 0.984 . S
N592 H599 0.984 1_545 S
N593 C586 1.356 . S
N593 H596 0.984 . S
N593 H597 0.985 . S
H594 N589 0.984 . S
H595 N589 0.985 . S
H596 N593 0.984 . S
H597 N593 0.985 . S
H598 N592 0.984 . S
H599 N592 0.984 1_565 S
H600 N588 0.984 . S
H601 N588 0.985 . S
C602 C603 1.363 . S
C602 C608 1.379 . S
C602 N610 1.356 . S
C603 C602 1.363 . S
C603 C609 1.363 . S
C604 C605 1.363 . S
C604 C609 1.379 . S
C604 N611 1.356 . S
C605 C604 1.363 . S
C605 C608 1.363 . S
N606 C608 1.356 . S
N606 H618 0.984 . S
N606 H619 0.985 . S
N607 C609 1.356 . S
N607 H612 0.984 . S
N607 H613 0.985 . S
C608 C602 1.379 . S
C608 C605 1.363 . S
C608 N606 1.356 . S
C609 C603 1.363 . S
C609 C604 1.379 . S
C609 N607 1.356 . S
N610 C602 1.356 . S
N610 H616 0.984 . S
N610 H617 0.984 . S
N611 C604 1.356 . S
N611 H614 0.984 . S
N611 H615 0.985 . S
H612 N607 0.984 . S
H613 N607 0.985 . S
H614 N611 0.984 . S
H615 N611 0.985 . S
H616 N610 0.984 . S
H617 N610 0.984 . S
H618 N606 0.984 . S
H619 N606 0.985 . S
C620 C621 1.363 . S
C620 C626 1.379 . S
C620 N628 1.356 . S
C621 C620 1.363 . S
C621 C627 1.363 . S
C622 C623 1.363 . S
C622 C627 1.379 . S
C622 N629 1.356 . S
C623 C622 1.363 . S
C623 C626 1.363 . S
N624 C626 1.356 . S
N624 H636 0.984 . S
N624 H637 0.985 . S
N625 C627 1.356 . S
N625 H630 0.984 . S
N625 H631 0.985 . S
C626 C620 1.379 . S
C626 C623 1.363 . S
C626 N624 1.356 . S
C627 C621 1.363 . S
C627 C622 1.379 . S
C627 N625 1.356 . S
N628 C620 1.356 . S
N628 H634 0.984 . S
N628 H635 0.984 . S
N629 C622 1.356 . S
N629 H632 0.984 . S
N629 H633 0.985 . S
H630 N625 0.984 . S
H631 N625 0.985 . S
H632 N629 0.984 . S
H633 N629 0.985 . S
H634 N628 0.984 . S
H635 N628 0.984 . S
H636 N624 0.984 . S
H637 N624 0.985 . S
C638 C639 1.363 . S
C638 C644 1.379 . S
C638 N646 1.356 . S
C639 C638 1.363 . S
C639 C645 1.363 1_655 S
C640 C641 1.363 1_455 S
C640 C645 1.379 . S
C640 N647 1.356 . S
C641 C640 1.363 1_655 S
C641 C644 1.363 . S
N642 C644 1.356 . S
N642 H654 0.984 . S
N642 H655 0.985 . S
N643 C645 1.356 . S
N643 H648 0.999 . S
N643 H649 0.985 . S
C644 C638 1.379 . S
C644 C641 1.363 . S
C644 N642 1.356 . S
C645 C639 1.363 1_455 S
C645 C640 1.379 . S
C645 N643 1.356 . S
N646 C638 1.356 . S
N646 H652 0.984 . S
N646 H653 0.984 . S
N647 C640 1.356 . S
N647 H650 0.984 . S
N647 H651 0.985 . S
H648 N643 0.999 . S
H649 N643 0.985 . S
H650 N647 0.984 . S
H651 N647 0.985 . S
H652 N646 0.984 . S
H653 N646 0.984 . S
H654 N642 0.984 . S
H655 N642 0.985 . S
C656 C657 1.363 1_565 S
C656 C662 1.379 . S
C656 N664 1.356 . S
C657 C656 1.363 1_545 S
C657 C663 1.363 1_556 S
C658 C659 1.363 1_545 S
C658 C663 1.379 . S
C658 N665 1.356 . S
C659 C658 1.363 1_565 S
C659 C662 1.363 1_554 S
N660 C662 1.356 . S
N660 H672 0.984 . S
N660 H673 0.985 . S
N661 C663 1.356 . S
N661 H666 0.984 . S
N661 H667 0.985 . S
C662 C656 1.379 . S
C662 C659 1.363 1_556 S
C662 N660 1.356 . S
C663 C657 1.363 1_554 S
C663 C658 1.379 . S
C663 N661 1.356 . S
N664 C656 1.356 . S
N664 H670 0.984 . S
N664 H671 0.984 1_565 S
N665 C658 1.356 . S
N665 H668 0.984 1_545 S
N665 H669 0.985 . S
H666 N661 0.984 . S
H667 N661 0.985 . S
H668 N665 0.984 1_565 S
H669 N665 0.985 . S
H670 N664 0.984 . S
H671 N664 0.984 1_545 S
H672 N660 0.984 . S
H673 N660 0.985 . S
C674 C675 1.363 . S
C674 C680 1.379 . S
C674 N682 1.356 . S
C675 C674 1.363 . S
C675 C681 1.363 1_556 S
C676 C677 1.363 . S
C676 C681 1.379 . S
C676 N683 1.356 . S
C677 C676 1.363 . S
C677 C680 1.363 1_554 S
N678 C680 1.356 . S
N678 H690 0.984 . S
N678 H691 0.985 . S
N679 C681 1.356 . S
N679 H684 0.984 . S
N679 H685 0.985 . S
C680 C674 1.379 . S
C680 C677 1.363 1_556 S
C680 N678 1.356 . S
C681 C675 1.363 1_554 S
C681 C676 1.379 . S
C681 N679 1.356 . S
N682 C674 1.356 . S
N682 H688 0.984 . S
N682 H689 0.984 . S
N683 C676 1.356 . S
N683 H686 0.984 . S
N683 H687 0.985 . S
H684 N679 0.984 . S
H685 N679 0.985 . S
H686 N683 0.984 . S
H687 N683 0.985 . S
H688 N682 0.984 . S
H689 N682 0.984 . S
H690 N678 0.984 . S
H691 N678 0.985 . S
C692 C693 1.363 1_556 S
C692 C698 1.379 1_655 S
C692 N700 1.356 . S
C693 C692 1.363 1_554 S
C693 C699 1.363 . S
C694 C695 1.363 1_554 S
C694 C699 1.379 1_455 S
C694 N701 1.356 . S
C695 C694 1.363 1_556 S
C695 C698 1.363 . S
N696 C698 1.356 . S
N696 H708 0.984 . S
N696 H709 0.985 . S
N697 C699 1.356 . S
N697 H702 0.984 . S
N697 H703 0.985 . S
C698 C692 1.379 1_455 S
C698 C695 1.363 . S
C698 N696 1.356 . S
C699 C693 1.363 . S
C699 C694 1.379 1_655 S
C699 N697 1.356 . S
N700 C692 1.356 . S
N700 H706 0.984 . S
N700 H707 0.984 . S
N701 C694 1.356 . S
N701 H704 0.984 . S
N701 H705 0.985 . S
H702 N697 0.984 . S
H703 N697 0.985 . S
H704 N701 0.984 . S
H705 N701 0.985 . S
H706 N700 0.984 . S
H707 N700 0.984 . S
H708 N696 0.984 . S
H709 N696 0.985 . S
C710 C711 1.363 1_655 S
C710 C716 1.379 1_545 S
C710 N718 1.356 . S
C711 C710 1.363 1_455 S
C711 C717 1.363 1_556 S
C712 C713 1.363 1_455 S
C712 C717 1.379 1_565 S
C712 N719 1.356 . S
C713 C712 1.363 1_655 S
C713 C716 1.363 1_554 S
N714 C716 1.356 . S
N714 H726 0.984 . S
N714 H727 0.985 . S
N715 C717 1.356 . S
N715 H720 0.984 . S
N715 H721 0.985 . S
C716 C710 1.379 1_565 S
C716 C713 1.363 1_556 S
C716 N714 1.356 . S
C717 C711 1.363 1_554 S
C717 C712 1.379 1_545 S
C717 N715 1.356 . S
N718 C710 1.356 . S
N718 H724 0.984 . S
N718 H725 0.984 1_655 S
N719 C712 1.356 . S
N719 H722 0.984 1_455 S
N719 H723 0.985 . S
H720 N715 0.984 . S
H721 N715 0.985 . S
H722 N719 0.984 1_655 S
H723 N719 0.985 . S
H724 N718 0.984 . S
H725 N718 0.984 1_455 S
H726 N714 0.984 . S
H727 N714 0.985 . S
C728 C729 1.363 . S
C728 C734 1.379 1_455 S
C728 N736 1.356 . S
C729 C728 1.363 . S
C729 C735 1.363 1_545 S
C730 C731 1.363 . S
C730 C735 1.379 1_655 S
C730 N737 1.356 . S
C731 C730 1.363 . S
C731 C734 1.363 1_565 S
N732 C734 1.355 1_565 S
N732 H744 0.980 1_565 S
N732 H745 0.990 . S
N733 C735 1.356 1_545 S
N733 H738 0.985 . S
N733 H739 0.984 1_545 S
C734 C728 1.379 1_655 S
C734 C731 1.363 1_545 S
C734 N732 1.355 1_545 S
C735 C729 1.363 1_565 S
C735 C730 1.379 1_455 S
C735 N733 1.356 1_565 S
N736 C728 1.356 . S
N736 H742 0.984 . S
N736 H743 0.984 . S
N737 C730 1.356 . S
N737 H740 0.984 . S
N737 H741 0.985 . S
H738 N733 0.985 . S
H739 N733 0.984 1_565 S
H740 N737 0.984 . S
H741 N737 0.985 . S
H742 N736 0.984 . S
H743 N736 0.984 . S
H744 N732 0.980 1_545 S
H745 N732 0.990 . S
C746 C747 1.363 . S
C746 C752 1.379 1_565 S
C746 N754 1.356 . S
C747 C746 1.363 . S
C747 C753 1.363 . S
C748 C749 1.363 . S
C748 C753 1.379 1_545 S
C748 N755 1.356 . S
C749 C748 1.363 . S
C749 C752 1.363 . S
N750 C752 1.356 . S
N750 H762 0.984 . S
N750 H763 0.985 . S
N751 C753 1.356 . S
N751 H756 0.984 . S
N751 H757 0.985 . S
C752 C746 1.379 1_545 S
C752 C749 1.363 . S
C752 N750 1.356 . S
C753 C747 1.363 . S
C753 C748 1.379 1_565 S
C753 N751 1.356 . S
N754 C746 1.356 . S
N754 H760 0.984 . S
N754 H761 0.984 . S
N755 C748 1.356 . S
N755 H758 0.984 . S
N755 H759 0.985 . S
H756 N751 0.984 . S
H757 N751 0.985 . S
H758 N755 0.984 . S
H759 N755 0.985 . S
H760 N754 0.984 . S
H761 N754 0.984 . S
H762 N750 0.984 . S
H763 N750 0.985 . S
C764 C765 1.363 . S
C764 C770 1.379 . S
C764 N772 1.356 . S
C765 C764 1.363 . S
C765 C771 1.363 . S
C766 C767 1.363 . S
C766 C771 1.379 . S
C766 N773 1.356 . S
C767 C766 1.363 . S
C767 C770 1.363 . S
N768 C770 1.356 . S
N768 H780 0.984 . S
N768 H781 0.985 . S
N769 C771 1.356 . S
N769 H774 0.984 . S
N769 H775 0.985 . S
C770 C764 1.379 . S
C770 C767 1.363 . S
C770 N768 1.356 . S
C771 C765 1.363 . S
C771 C766 1.379 . S
C771 N769 1.356 . S
N772 C764 1.356 . S
N772 H778 0.984 . S
N772 H779 0.984 . S
N773 C766 1.356 . S
N773 H776 0.984 . S
N773 H777 0.985 . S
H774 N769 0.984 . S
H775 N769 0.985 . S
H776 N773 0.984 . S
H777 N773 0.985 . S
H778 N772 0.984 . S
H779 N772 0.984 . S
H780 N768 0.984 . S
H781 N768 0.985 . S
C782 C783 1.363 1_455 S
C782 C788 1.379 . S
C782 N790 1.356 . S
C783 C782 1.363 1_655 S
C783 C789 1.363 . S
C784 C785 1.363 1_655 S
C784 C789 1.379 . S
C784 N791 1.356 . S
C785 C784 1.363 1_455 S
C785 C788 1.363 . S
N786 C788 1.356 . S
N786 H798 0.984 . S
N786 H799 0.985 . S
N787 C789 1.356 . S
N787 H792 0.984 . S
N787 H793 0.985 . S
C788 C782 1.379 . S
C788 C785 1.363 . S
C788 N786 1.356 . S
C789 C783 1.363 . S
C789 C784 1.379 . S
C789 N787 1.356 . S
N790 C782 1.356 . S
N790 H796 0.984 . S
N790 H797 0.984 1_455 S
N791 C784 1.356 . S
N791 H794 0.984 1_655 S
N791 H795 0.985 . S
H792 N787 0.984 . S
H793 N787 0.985 . S
H794 N791 0.984 1_455 S
H795 N791 0.985 . S
H796 N790 0.984 . S
H797 N790 0.984 1_655 S
H798 N786 0.984 . S
H799 N786 0.985 . S
C225 C75 0.628 . S
C227 C5 0.627 . S
C243 C89 0.635 . S
C245 C19 0.635 . S
C261 C33 0.628 . S
C263 C103 0.627 . S
C279 C47 0.624 . S
C281 C61 0.620 . S
C297 C117 0.630 . S
C299 C187 0.627 . S
C315 C201 0.635 . S
C317 C131 0.635 . S
C333 C215 0.630 . S
C335 C145 0.627 . S
C351 C159 0.624 . S
C353 C173 0.620 . S
C369 C11 1.665 1_565 S
C371 C177 1.565 . S
C387 C191 1.574 . S
C389 C25 1.683 . S
C405 C39 1.671 . S
C407 C205 1.572 . S
C423 C53 1.667 1_655 S
C425 C219 1.567 . S
C441 C67 1.667 1_545 S
C443 C121 1.567 . S
C459 C81 1.671 . S
C461 C135 1.572 . S
C477 C95 1.683 . S
C479 C149 1.574 . S
C495 C109 1.665 1_455 S
C497 C163 1.565 . S
C513 C65 1.565 . S
C515 C123 1.665 1_545 S
C531 C79 1.574 . S
C533 C137 1.683 . S
C549 C93 1.572 . S
C551 C151 1.671 . S
C567 C165 1.667 1_455 S
C569 C107 1.567 . S
C585 C9 1.567 . S
C587 C179 1.667 1_565 S
C603 C193 1.671 . S
C605 C23 1.572 . S
C621 C207 1.683 . S
C623 C37 1.574 . S
C639 C51 1.565 . S
C641 C221 1.665 1_655 S
C657 C112 1.765 . S
C659 C0 1.764 . S
C675 C126 1.777 . S
C677 C14 1.777 . S
C693 C28 1.815 . S
C695 C140 1.815 . S
C711 C154 1.778 . S
C713 C42 1.777 . S
C729 C56 1.778 . S
C731 C168 1.777 . S
C747 C182 1.815 . S
C749 C70 1.815 . S
C765 C196 1.777 . S
C767 C84 1.777 . S
C783 C210 1.765 . S
C785 C98 1.764 . S
