# Generated by pormake.
# Topology whw, (6)-cn, num edge types: 1
# Building blocks:
#     Node 0, Type 0, BuildingBlock: LEVNOQ01_clean_sbu_1, # of connection points: 6
#     Node 1, Type 0, BuildingBlock: LEVNOQ01_clean_sbu_1, # of connection points: 6
#     Node 2, Type 0, BuildingBlock: LEVNOQ01_clean_sbu_1, # of connection points: 6
#     Node 3, Type 0, BuildingBlock: LEVNOQ01_clean_sbu_1, # of connection points: 6
#     Node 4, Type 0, BuildingBlock: LEVNOQ01_clean_sbu_1, # of connection points: 6
#     Node 5, Type 0, BuildingBlock: LEVNOQ01_clean_sbu_1, # of connection points: 6
#     Node 6, Type 0, BuildingBlock: LEVNOQ01_clean_sbu_1, # of connection points: 6
#     Node 7, Type 0, BuildingBlock: LEVNOQ01_clean_sbu_1, # of connection points: 6
#     Node 8, Type 0, BuildingBlock: LEVNOQ01_clean_sbu_1, # of connection points: 6
#     Node 9, Type 0, BuildingBlock: LEVNOQ01_clean_sbu_1, # of connection points: 6
#     Node 10, Type 0, BuildingBlock: LEVNOQ01_clean_sbu_1, # of connection points: 6
#     Node 11, Type 0, BuildingBlock: LEVNOQ01_clean_sbu_1, # of connection points: 6
#     Node 12, Type 0, BuildingBlock: LEVNOQ01_clean_sbu_1, # of connection points: 6
#     Node 13, Type 0, BuildingBlock: LEVNOQ01_clean_sbu_1, # of connection points: 6
#     Node 14, Type 0, BuildingBlock: LEVNOQ01_clean_sbu_1, # of connection points: 6
#     Node 15, Type 0, BuildingBlock: LEVNOQ01_clean_sbu_1, # of connection points: 6
#     Edge 16, Type (0, 0), BuildingBlock: ZUJKAS_clean_linker_0, # of connection points: 2
#     Edge 17, Type (0, 0), BuildingBlock: ZUJKAS_clean_linker_0, # of connection points: 2
#     Edge 18, Type (0, 0), BuildingBlock: ZUJKAS_clean_linker_0, # of connection points: 2
#     Edge 19, Type (0, 0), BuildingBlock: ZUJKAS_clean_linker_0, # of connection points: 2
#     Edge 20, Type (0, 0), BuildingBlock: ZUJKAS_clean_linker_0, # of connection points: 2
#     Edge 21, Type (0, 0), BuildingBlock: ZUJKAS_clean_linker_0, # of connection points: 2
#     Edge 22, Type (0, 0), BuildingBlock: ZUJKAS_clean_linker_0, # of connection points: 2
#     Edge 23, Type (0, 0), BuildingBlock: ZUJKAS_clean_linker_0, # of connection points: 2
#     Edge 24, Type (0, 0), BuildingBlock: ZUJKAS_clean_linker_0, # of connection points: 2
#     Edge 25, Type (0, 0), BuildingBlock: ZUJKAS_clean_linker_0, # of connection points: 2
#     Edge 26, Type (0, 0), BuildingBlock: ZUJKAS_clean_linker_0, # of connection points: 2
#     Edge 27, Type (0, 0), BuildingBlock: ZUJKAS_clean_linker_0, # of connection points: 2
#     Edge 28, Type (0, 0), BuildingBlock: ZUJKAS_clean_linker_0, # of connection points: 2
#     Edge 29, Type (0, 0), BuildingBlock: ZUJKAS_clean_linker_0, # of connection points: 2
#     Edge 30, Type (0, 0), BuildingBlock: ZUJKAS_clean_linker_0, # of connection points: 2
#     Edge 31, Type (0, 0), BuildingBlock: ZUJKAS_clean_linker_0, # of connection points: 2
#     Edge 32, Type (0, 0), BuildingBlock: ZUJKAS_clean_linker_0, # of connection points: 2
#     Edge 33, Type (0, 0), BuildingBlock: ZUJKAS_clean_linker_0, # of connection points: 2
#     Edge 34, Type (0, 0), BuildingBlock: ZUJKAS_clean_linker_0, # of connection points: 2
#     Edge 35, Type (0, 0), BuildingBlock: ZUJKAS_clean_linker_0, # of connection points: 2
#     Edge 36, Type (0, 0), BuildingBlock: ZUJKAS_clean_linker_0, # of connection points: 2
#     Edge 37, Type (0, 0), BuildingBlock: ZUJKAS_clean_linker_0, # of connection points: 2
#     Edge 38, Type (0, 0), BuildingBlock: ZUJKAS_clean_linker_0, # of connection points: 2
#     Edge 39, Type (0, 0), BuildingBlock: ZUJKAS_clean_linker_0, # of connection points: 2
#     Edge 40, Type (0, 0), BuildingBlock: ZUJKAS_clean_linker_0, # of connection points: 2
#     Edge 41, Type (0, 0), BuildingBlock: ZUJKAS_clean_linker_0, # of connection points: 2
#     Edge 42, Type (0, 0), BuildingBlock: ZUJKAS_clean_linker_0, # of connection points: 2
#     Edge 43, Type (0, 0), BuildingBlock: ZUJKAS_clean_linker_0, # of connection points: 2
#     Edge 44, Type (0, 0), BuildingBlock: ZUJKAS_clean_linker_0, # of connection points: 2
#     Edge 45, Type (0, 0), BuildingBlock: ZUJKAS_clean_linker_0, # of connection points: 2
#     Edge 46, Type (0, 0), BuildingBlock: ZUJKAS_clean_linker_0, # of connection points: 2
#     Edge 47, Type (0, 0), BuildingBlock: ZUJKAS_clean_linker_0, # of connection points: 2
#     Edge 48, Type (0, 0), BuildingBlock: ZUJKAS_clean_linker_0, # of connection points: 2
#     Edge 49, Type (0, 0), BuildingBlock: ZUJKAS_clean_linker_0, # of connection points: 2
#     Edge 50, Type (0, 0), BuildingBlock: ZUJKAS_clean_linker_0, # of connection points: 2
#     Edge 51, Type (0, 0), BuildingBlock: ZUJKAS_clean_linker_0, # of connection points: 2
#     Edge 52, Type (0, 0), BuildingBlock: ZUJKAS_clean_linker_0, # of connection points: 2
#     Edge 53, Type (0, 0), BuildingBlock: ZUJKAS_clean_linker_0, # of connection points: 2
#     Edge 54, Type (0, 0), BuildingBlock: ZUJKAS_clean_linker_0, # of connection points: 2
#     Edge 55, Type (0, 0), BuildingBlock: ZUJKAS_clean_linker_0, # of connection points: 2
#     Edge 56, Type (0, 0), BuildingBlock: ZUJKAS_clean_linker_0, # of connection points: 2
#     Edge 57, Type (0, 0), BuildingBlock: ZUJKAS_clean_linker_0, # of connection points: 2
#     Edge 58, Type (0, 0), BuildingBlock: ZUJKAS_clean_linker_0, # of connection points: 2
#     Edge 59, Type (0, 0), BuildingBlock: ZUJKAS_clean_linker_0, # of connection points: 2
#     Edge 60, Type (0, 0), BuildingBlock: ZUJKAS_clean_linker_0, # of connection points: 2
#     Edge 61, Type (0, 0), BuildingBlock: ZUJKAS_clean_linker_0, # of connection points: 2
#     Edge 62, Type (0, 0), BuildingBlock: ZUJKAS_clean_linker_0, # of connection points: 2
#     Edge 63, Type (0, 0), BuildingBlock: ZUJKAS_clean_linker_0, # of connection points: 2
# Relax obj value: 0.533
# Max RMSD: 0.235
# Mean RMSD: 0.235
data_MOF--net-whw--node1-LEVNOQ01_clean_sbu_1--edge1-ZUJKAS_clean_linker_0
_symmetry_space_group_name_H-M    P1
_symmetry_Int_Tables_number       1
_symmetry_cell_setting            triclinic
loop_
_symmetry_equiv_pos_as_xyz
'x, y, z'
_cell_length_a     64.08574
_cell_length_b     64.131507
_cell_length_c     31.585827
_cell_angle_alpha  90.02003
_cell_angle_beta   90.137048
_cell_angle_gamma 89.926235
loop_
_atom_site_label
_atom_site_type_symbol
_atom_site_fract_x
_atom_site_fract_y
_atom_site_fract_z
_atom_type_partial_charge
O0 O 0.0271 0.10713 0.21499 0.0
Mg1 Mg 0.00088 0.09538 0.17975 0.0
O2 O 0.03386 0.13543 0.17635 0.0
Mg3 Mg 0.00945 0.13798 0.12365 0.0
O4 O 0.00807 0.10323 0.11953 0.0
O5 O 0.00419 0.07034 0.13795 0.0
O6 O 0.98372 0.13967 0.07093 0.0
O7 O 0.03631 0.13676 0.07226 0.0
Mg8 Mg 0.01134 0.18195 0.0694 0.0
O9 O 0.0121 0.17305 0.13055 0.0
O10 O 0.98212 0.1719 0.04505 0.0
O11 O 0.03823 0.16822 0.04238 0.0
O12 O 0.0143 0.20626 0.11316 0.0
C13 C 0.96989 0.12824 0.19459 0.0
C14 C 0.03796 0.12336 0.20743 0.0
C15 C 0.0093 0.08384 0.10965 0.0
C16 C 0.97503 0.15343 0.04746 0.0
C17 C 0.04497 0.14969 0.04681 0.0
C18 C 0.01395 0.19222 0.14235 0.0
O19 O 0.9716 0.10856 0.19463 0.0
O20 O 0.98286 0.1398 0.17474 0.0
O21 O 0.08946 0.78201 0.28234 0.0
Mg22 Mg 0.07246 0.75707 0.30939 0.0
O23 O 0.11916 0.78162 0.31988 0.0
Mg24 Mg 0.11491 0.75464 0.37011 0.0
O25 O 0.08044 0.75962 0.37037 0.0
O26 O 0.04779 0.7636 0.35119 0.0
O27 O 0.10986 0.7276 0.41817 0.0
O28 O 0.11582 0.77878 0.42459 0.0
Mg29 Mg 0.15568 0.74718 0.43575 0.0
O30 O 0.14921 0.75034 0.37359 0.0
O31 O 0.13926 0.72004 0.45282 0.0
O32 O 0.14439 0.77513 0.46424 0.0
O33 O 0.18148 0.74531 0.39522 0.0
C34 C 0.10044 0.71998 0.29373 0.0
C35 C 0.10749 0.78926 0.29064 0.0
C36 C 0.06157 0.76389 0.38095 0.0
C37 C 0.12032 0.71619 0.4438 0.0
C38 C 0.12736 0.78447 0.45555 0.0
C39 C 0.16853 0.74808 0.36447 0.0
O40 O 0.08179 0.72664 0.29166 0.0
O41 O 0.11436 0.72932 0.31582 0.0
O42 O 0.45842 0.89691 0.68875 0.0
Mg43 Mg 0.48846 0.90956 0.67992 0.0
O44 O 0.47004 0.86605 0.66809 0.0
Mg45 Mg 0.49838 0.86788 0.62301 0.0
O46 O 0.49799 0.90266 0.62052 0.0
O47 O 0.49394 0.93529 0.64131 0.0
O48 O 0.5276 0.86937 0.5773 0.0
O49 O 0.47551 0.86736 0.56563 0.0
Mg50 Mg 0.50561 0.8248 0.56759 0.0
O51 O 0.49811 0.83299 0.62722 0.0
O52 O 0.53578 0.83697 0.55805 0.0
O53 O 0.48176 0.83828 0.52887 0.0
O54 O 0.4997 0.79992 0.60936 0.0
C55 C 0.52277 0.87996 0.71395 0.0
C56 C 0.45658 0.87723 0.68731 0.0
C57 C 0.49927 0.92222 0.61229 0.0
C58 C 0.53998 0.85629 0.55972 0.0
C59 C 0.47185 0.8553 0.53426 0.0
C60 C 0.49633 0.81375 0.63813 0.0
O61 O 0.51208 0.89649 0.71962 0.0
O62 O 0.52031 0.86846 0.68122 0.0
O63 O 0.34252 0.24166 0.95292 0.0
Mg64 Mg 0.33698 0.26688 0.90898 0.0
O65 O 0.36917 0.22563 0.9209 0.0
Mg66 Mg 0.37873 0.24506 0.86351 0.0
O67 O 0.34565 0.25382 0.85366 0.0
O68 O 0.31363 0.26506 0.86156 0.0
O69 O 0.38836 0.26593 0.80699 0.0
O70 O 0.37287 0.21682 0.81714 0.0
Mg71 Mg 0.42174 0.22628 0.81959 0.0
O72 O 0.41198 0.23638 0.87652 0.0
O73 O 0.41751 0.25288 0.77902 0.0
O74 O 0.40279 0.20015 0.80563 0.0
O75 O 0.44438 0.22607 0.8682 0.0
C76 C 0.37649 0.28943 0.92293 0.0
C77 C 0.356 0.22699 0.95111 0.0
C78 C 0.32702 0.25499 0.83909 0.0
C79 C 0.40307 0.26658 0.77977 0.0
C80 C 0.38309 0.20136 0.80201 0.0
C81 C 0.4302 0.23358 0.89268 0.0
O82 O 0.35701 0.29267 0.91922 0.0
O83 O 0.38497 0.27301 0.90792 0.0
O84 O 0.01891 0.91186 0.78198 0.0
Mg85 Mg 0.99154 0.92099 0.81694 0.0
O86 O 0.02723 0.88331 0.81875 0.0
Mg87 Mg 0.00363 0.87798 0.87216 0.0
O88 O 0.99853 0.91203 0.87692 0.0
O89 O 0.99201 0.94489 0.86313 0.0
O90 O 0.9785 0.87297 0.92558 0.0
O91 O 0.03032 0.88007 0.92318 0.0
Mg92 Mg 0.0085 0.83182 0.92144 0.0
O93 O 0.00931 0.84421 0.8635 0.0
O94 O 0.97803 0.8392 0.94267 0.0
O95 O 0.033 0.84832 0.95242 0.0
O96 O 0.0142 0.81064 0.87129 0.0
C97 C 0.96416 0.88446 0.79966 0.0
C98 C 0.03056 0.89601 0.78834 0.0
C99 C 0.99801 0.93094 0.88985 0.0
C100 C 0.97021 0.85741 0.94452 0.0
C101 C 0.03887 0.86721 0.94903 0.0
C102 C 0.01309 0.82649 0.84643 0.0
O103 O 0.96457 0.90424 0.7977 0.0
O104 O 0.97733 0.87441 0.82225 0.0
O105 O 0.36971 0.78043 0.03925 0.0
Mg106 Mg 0.35368 0.7539 0.05986 0.0
O107 O 0.39648 0.77601 0.08316 0.0
Mg108 Mg 0.38898 0.74861 0.12887 0.0
O109 O 0.35391 0.75471 0.12395 0.0
O110 O 0.32496 0.75816 0.08479 0.0
O111 O 0.38213 0.72082 0.17677 0.0
O112 O 0.38868 0.77316 0.18383 0.0
Mg113 Mg 0.42899 0.74085 0.19488 0.0
O114 O 0.42361 0.7447 0.13285 0.0
O115 O 0.41209 0.71374 0.2102 0.0
O116 O 0.41784 0.76907 0.22169 0.0
O117 O 0.45559 0.7405 0.15604 0.0
C118 C 0.3791 0.71659 0.04387 0.0
C119 C 0.38731 0.78605 0.05361 0.0
C120 C 0.33405 0.75817 0.12132 0.0
C121 C 0.39315 0.70954 0.20188 0.0
C122 C 0.40102 0.77887 0.21353 0.0
C123 C 0.44322 0.74386 0.12454 0.0
O124 O 0.36171 0.72486 0.03495 0.0
O125 O 0.3904 0.72383 0.07384 0.0
O126 O 0.46169 0.10843 0.28578 0.0
Mg127 Mg 0.48717 0.09192 0.31153 0.0
O128 O 0.46977 0.13913 0.31443 0.0
Mg129 Mg 0.49569 0.1361 0.36589 0.0
O130 O 0.4902 0.10211 0.37191 0.0
O131 O 0.48432 0.06901 0.3588 0.0
O132 O 0.52166 0.13348 0.41848 0.0
O133 O 0.46987 0.1416 0.41731 0.0
Mg134 Mg 0.50121 0.18146 0.41657 0.0
O135 O 0.50156 0.17012 0.35706 0.0
O136 O 0.52568 0.16499 0.44774 0.0
O137 O 0.4707 0.17459 0.43944 0.0
O138 O 0.50725 0.20337 0.36806 0.0
C139 C 0.52635 0.11666 0.28759 0.0
C140 C 0.45877 0.12795 0.28936 0.0
C141 C 0.48831 0.08347 0.38593 0.0
C142 C 0.53074 0.14587 0.44446 0.0
C143 C 0.46214 0.15669 0.43874 0.0
C144 C 0.50537 0.18822 0.34155 0.0
O145 O 0.51619 0.09978 0.28249 0.0
O146 O 0.52071 0.13041 0.31457 0.0
O147 O 0.09536 0.19702 0.67934 0.0
Mg148 Mg 0.07691 0.22375 0.6679 0.0
O149 O 0.1258 0.21309 0.66987 0.0
Mg150 Mg 0.12036 0.24198 0.62417 0.0
O151 O 0.08689 0.23433 0.61176 0.0
O152 O 0.05416 0.22529 0.61942 0.0
O153 O 0.11416 0.26997 0.57921 0.0
O154 O 0.12958 0.2222 0.56714 0.0
Mg155 Mg 0.16167 0.26289 0.57697 0.0
O156 O 0.15373 0.25025 0.63346 0.0
O157 O 0.14217 0.28907 0.5659 0.0
O158 O 0.15641 0.23725 0.53391 0.0
O159 O 0.18551 0.26189 0.62309 0.0
C160 C 0.09719 0.26287 0.70987 0.0
C161 C 0.11507 0.19762 0.68348 0.0
C162 C 0.06857 0.23274 0.59549 0.0
C163 C 0.12265 0.28608 0.56296 0.0
C164 C 0.14286 0.22275 0.53704 0.0
C165 C 0.17254 0.25204 0.6469 0.0
O166 O 0.0825 0.24946 0.71012 0.0
O167 O 0.11152 0.26253 0.68178 0.0
O168 O 0.84766 0.26922 0.54654 0.0
Mg169 Mg 0.83691 0.24171 0.57891 0.0
O170 O 0.87801 0.2728 0.58041 0.0
Mg171 Mg 0.88224 0.24749 0.63031 0.0
O172 O 0.84797 0.24565 0.6384 0.0
O173 O 0.8143 0.24322 0.62718 0.0
O174 O 0.88529 0.22073 0.68055 0.0
O175 O 0.88274 0.27328 0.68321 0.0
Mg176 Mg 0.92724 0.24694 0.67852 0.0
O177 O 0.91696 0.25095 0.61842 0.0
O178 O 0.9186 0.21657 0.69844 0.0
O179 O 0.91452 0.27265 0.71236 0.0
O180 O 0.95052 0.25216 0.63375 0.0
C181 C 0.86973 0.21055 0.55566 0.0
C182 C 0.86488 0.27876 0.5525 0.0
C183 C 0.82941 0.24682 0.65312 0.0
C184 C 0.89977 0.21051 0.69914 0.0
C185 C 0.89628 0.28036 0.70937 0.0
C186 C 0.9359 0.2537 0.60583 0.0
O187 O 0.85017 0.21372 0.55602 0.0
O188 O 0.88219 0.22182 0.57765 0.0
O189 O 0.59414 0.71115 0.18968 0.0
Mg190 Mg 0.5797 0.73966 0.17149 0.0
O191 O 0.62656 0.71945 0.17049 0.0
Mg192 Mg 0.62528 0.74801 0.12369 0.0
O193 O 0.59082 0.74576 0.11345 0.0
O194 O 0.55712 0.7424 0.12308 0.0
O195 O 0.6237 0.77602 0.07758 0.0
O196 O 0.62931 0.72564 0.06753 0.0
Mg197 Mg 0.6693 0.75774 0.07073 0.0
O198 O 0.65972 0.75042 0.13014 0.0
O199 O 0.65456 0.78607 0.05323 0.0
O200 O 0.65917 0.73158 0.03354 0.0
O201 O 0.693 0.75508 0.11677 0.0
C202 C 0.60621 0.77639 0.20553 0.0
C203 C 0.61361 0.70737 0.1891 0.0
C204 C 0.57231 0.74647 0.0978 0.0
C205 C 0.63494 0.78853 0.05601 0.0
C206 C 0.64221 0.72144 0.03793 0.0
C207 C 0.67867 0.74965 0.14307 0.0
O208 O 0.58888 0.76672 0.20615 0.0
O209 O 0.62102 0.7713 0.18038 0.0
O210 O 0.58859 0.26908 0.78172 0.0
Mg211 Mg 0.57421 0.2456 0.81911 0.0
O212 O 0.61876 0.27331 0.81614 0.0
Mg213 Mg 0.61876 0.24752 0.86911 0.0
O214 O 0.58409 0.25072 0.87877 0.0
O215 O 0.55064 0.25213 0.86301 0.0
O216 O 0.61816 0.22142 0.9209 0.0
O217 O 0.62146 0.27268 0.92094 0.0
Mg218 Mg 0.66283 0.24247 0.92336 0.0
O219 O 0.65346 0.2463 0.86258 0.0
O220 O 0.64989 0.21437 0.94556 0.0
O221 O 0.65175 0.26982 0.95528 0.0
O222 O 0.68681 0.24366 0.87866 0.0
C223 C 0.60202 0.2097 0.80041 0.0
C224 C 0.60616 0.27807 0.78611 0.0
C225 C 0.56515 0.25345 0.8912 0.0
C226 C 0.63049 0.2105 0.94391 0.0
C227 C 0.63422 0.27879 0.94948 0.0
C228 C 0.67259 0.24712 0.85063 0.0
O229 O 0.58297 0.21484 0.80381 0.0
O230 O 0.61649 0.22079 0.81715 0.0
O231 O 0.84951 0.72915 0.46759 0.0
Mg232 Mg 0.84448 0.75556 0.42624 0.0
O233 O 0.87527 0.7134 0.43236 0.0
Mg234 Mg 0.88478 0.73439 0.37699 0.0
O235 O 0.85157 0.74382 0.36866 0.0
O236 O 0.82019 0.75612 0.38131 0.0
O237 O 0.89455 0.75632 0.32181 0.0
O238 O 0.87873 0.70727 0.32786 0.0
Mg239 Mg 0.92927 0.71686 0.3315 0.0
O240 O 0.91745 0.72467 0.38763 0.0
O241 O 0.92557 0.7457 0.29748 0.0
O242 O 0.90922 0.69254 0.31082 0.0
O243 O 0.95013 0.71534 0.38405 0.0
C244 C 0.88389 0.77758 0.44081 0.0
C245 C 0.86245 0.71414 0.46325 0.0
C246 C 0.83266 0.74637 0.35622 0.0
C247 C 0.91034 0.75855 0.29748 0.0
C248 C 0.88939 0.69305 0.30921 0.0
C249 C 0.93502 0.72253 0.40648 0.0
O250 O 0.86449 0.78114 0.43744 0.0
O251 O 0.89212 0.76123 0.42479 0.0
O252 O 0.5306 0.60406 0.70465 0.0
Mg253 Mg 0.50584 0.5897 0.6713 0.0
O254 O 0.53236 0.63288 0.66558 0.0
Mg255 Mg 0.50792 0.6307 0.61125 0.0
O256 O 0.51103 0.59581 0.60952 0.0
O257 O 0.51097 0.56358 0.63497 0.0
O258 O 0.48291 0.62926 0.55658 0.0
O259 O 0.5356 0.63089 0.56166 0.0
Mg260 Mg 0.51113 0.67384 0.5534 0.0
O261 O 0.50505 0.66514 0.61325 0.0
O262 O 0.48752 0.6581 0.51783 0.0
O263 O 0.54196 0.66354 0.54168 0.0
O264 O 0.50359 0.69815 0.59605 0.0
C265 C 0.47088 0.61854 0.6857 0.0
C266 C 0.53857 0.62178 0.69683 0.0
C267 C 0.51368 0.57613 0.60356 0.0
C268 C 0.47827 0.64087 0.52487 0.0
C269 C 0.547 0.64438 0.54275 0.0
C270 C 0.50146 0.68399 0.62462 0.0
O271 O 0.47589 0.59947 0.68839 0.0
O272 O 0.48105 0.63101 0.66182 0.0
O273 O 0.98604 0.39483 0.23006 0.0
Mg274 Mg 0.00847 0.40843 0.18783 0.0
O275 O 0.97609 0.36748 0.19097 0.0
Mg276 Mg 0.99645 0.36572 0.13163 0.0
O277 O 0.99734 0.39986 0.13052 0.0
O278 O -7e-05 0.43296 0.14648 0.0
O279 O 0.01762 0.364 0.0717 0.0
O280 O 0.96657 0.36677 0.0878 0.0
Mg281 Mg 0.98789 0.32021 0.08022 0.0
O282 O 0.99541 0.33166 0.13686 0.0
O283 O 0.01141 0.33331 0.04029 0.0
O284 O 0.95825 0.33411 0.06975 0.0
O285 O 0.99404 0.29794 0.12924 0.0
C286 C 0.04019 0.37506 0.19121 0.0
C287 C 0.97472 0.37873 0.22422 0.0
C288 C 0.99389 0.4188 0.12028 0.0
C289 C 0.02083 0.3508 0.04201 0.0
C290 C 0.95418 0.35356 0.07046 0.0
C291 C 0.99713 0.31365 0.15378 0.0
O292 O 0.03847 0.39479 0.19291 0.0
O293 O 0.02609 0.3639 0.17372 0.0
O294 O 0.53196 0.39765 0.29014 0.0
Mg295 Mg 0.50374 0.41108 0.31409 0.0
O296 O 0.52827 0.36608 0.31875 0.0
Mg297 Mg 0.50106 0.3651 0.36645 0.0
O298 O 0.50169 0.39912 0.37297 0.0
O299 O 0.50248 0.43296 0.36428 0.0
O300 O 0.47313 0.36497 0.41464 0.0
O301 O 0.52481 0.36227 0.42319 0.0
Mg302 Mg 0.49393 0.31996 0.41389 0.0
O303 O 0.50077 0.3306 0.35583 0.0
O304 O 0.46414 0.33222 0.42839 0.0
O305 O 0.51841 0.33141 0.45295 0.0
O306 O 0.49871 0.29691 0.36759 0.0
C307 C 0.46991 0.38098 0.28503 0.0
C308 C 0.53784 0.37877 0.29439 0.0
C309 C 0.50181 0.41725 0.3896 0.0
C310 C 0.46071 0.35169 0.43123 0.0
C311 C 0.5284 0.34856 0.45184 0.0
C312 C 0.50178 0.31191 0.34122 0.0
O313 O 0.47675 0.39956 0.28294 0.0
O314 O 0.47742 0.36774 0.31124 0.0
O315 O 0.97572 0.59468 0.78307 0.0
Mg316 Mg 0.00425 0.5875 0.81628 0.0
O317 O 0.96686 0.62212 0.82232 0.0
Mg318 Mg 0.99091 0.62847 0.87457 0.0
O319 O 0.99855 0.59436 0.87794 0.0
O320 O 0.00734 0.56255 0.85809 0.0
O321 O 0.01479 0.63589 0.92821 0.0
O322 O 0.96533 0.6219 0.92685 0.0
Mg323 Mg 0.97264 0.66873 0.92572 0.0
O324 O 0.98352 0.66275 0.86758 0.0
O325 O -0.00037 0.66189 0.96393 0.0
O326 O 0.94587 0.65009 0.93487 0.0
O327 O 0.97238 0.69423 0.88399 0.0
C328 C 0.02985 0.62479 0.80063 0.0
C329 C 0.96334 0.60967 0.7916 0.0
C330 C 0.00159 0.57513 0.88768 0.0
C331 C 0.01457 0.6489 0.95903 0.0
C332 C 0.94895 0.63084 0.94117 0.0
C333 C 0.98106 0.68199 0.85688 0.0
O334 O 0.03036 0.60508 0.79814 0.0
O335 O 0.01628 0.63429 0.82315 0.0
H336 H 0.07823 0.17311 0.02513 0.0
H337 H 0.10104 0.16784 0.9645 0.0
H338 H 0.07387 0.10721 0.94353 0.0
H339 H 0.05069 0.11254 0.00469 0.0
H340 H 0.12986 0.13822 0.92965 0.0
H341 H 0.05434 0.14276 0.84187 0.0
H342 H 0.05609 0.14847 0.89762 0.0
H343 H 0.05736 0.12195 0.87948 0.0
C344 C 0.07756 0.15835 0.00846 0.0
C345 C 0.06247 0.14338 0.01914 0.0
C346 C 0.0907 0.15532 0.97387 0.0
C347 C 0.08889 0.13734 0.94892 0.0
C348 C 0.07534 0.12134 0.96209 0.0
H349 H 0.10971 0.15567 0.68269 0.0
H350 H 0.11007 0.13376 0.7459 0.0
C351 C 0.0622 0.12432 0.99715 0.0
C352 C 0.09832 0.13753 0.90593 0.0
H353 H 0.08471 0.14687 0.80327 0.0
C354 C 0.12007 0.13959 0.90173 0.0
C355 C 0.08555 0.13945 0.86952 0.0
C356 C 0.06204 0.13819 0.87204 0.0
C357 C 0.12925 0.14442 0.86244 0.0
C358 C 0.11632 0.14767 0.82665 0.0
C359 C 0.09473 0.1443 0.83049 0.0
C360 C 0.12388 0.15723 0.78644 0.0
C361 C 0.15264 0.14648 0.85996 0.0
C362 C 0.13326 0.17707 0.78707 0.0
C363 C 0.13361 0.18941 0.75044 0.0
C364 C 0.12412 0.18226 0.71307 0.0
C365 C 0.11719 0.16151 0.71111 0.0
C366 C 0.11725 0.14903 0.74739 0.0
H367 H 0.16041 0.13585 0.88288 0.0
H368 H 0.15851 0.14299 0.82767 0.0
H369 H 0.15714 0.16266 0.8684 0.0
H370 H 0.1382 0.18399 0.8167 0.0
H371 H 0.1388 0.20544 0.75295 0.0
H372 H 0.08616 0.82478 0.27946 0.0
H373 H 0.08905 0.84817 0.21921 0.0
H374 H 0.14609 0.81757 0.18159 0.0
H375 H 0.14265 0.79338 0.24163 0.0
H376 H 0.1144 0.87535 0.17907 0.0
H377 H 0.10772 0.80156 0.0863 0.0
H378 H 0.10578 0.80176 0.14312 0.0
H379 H 0.13076 0.80474 0.11801 0.0
C380 C 0.09975 0.82354 0.25924 0.0
C381 C 0.1141 0.80723 0.26492 0.0
C382 C 0.10141 0.83694 0.22472 0.0
C383 C 0.11743 0.83427 0.19501 0.0
C384 C 0.13328 0.81959 0.2035 0.0
H385 H 0.08041 0.86281 0.93696 0.0
H386 H 0.10656 0.86077 0.99358 0.0
C387 C 0.13153 0.80598 0.23817 0.0
C388 C 0.11496 0.84433 0.1528 0.0
H389 H 0.09993 0.83241 0.05191 0.0
C390 C 0.11176 0.86602 0.15091 0.0
C391 C 0.11149 0.83223 0.11587 0.0
C392 C 0.11396 0.80879 0.11568 0.0
C393 C 0.10379 0.87565 0.11424 0.0
C394 C 0.09879 0.86327 0.07859 0.0
C395 C 0.10373 0.84193 0.07924 0.0
C396 C 0.08556 0.87099 0.04303 0.0
C397 C 0.10004 0.89886 0.11468 0.0
C398 C 0.06535 0.87848 0.05146 0.0
C399 C 0.05054 0.87994 0.01898 0.0
C400 C 0.05567 0.87385 0.97765 0.0
C401 C 0.07629 0.86807 0.96846 0.0
C402 C 0.09117 0.86675 0.00087 0.0
H403 H 0.11162 0.90687 0.13523 0.0
H404 H 0.10084 0.9056 0.08235 0.0
H405 H 0.08433 0.90203 0.12792 0.0
H406 H 0.06038 0.8813 0.0837 0.0
H407 H 0.03456 0.88384 0.02694 0.0
H408 H 0.42893 0.80649 0.24317 0.0
H409 H 0.42354 0.83331 0.29614 0.0
H410 H 0.35741 0.82055 0.29599 0.0
H411 H 0.3629 0.79314 0.24221 0.0
H412 H 0.39882 0.86959 0.30644 0.0
H413 H 0.37567 0.80594 0.41729 0.0
H414 H 0.3862 0.7994 0.3661 0.0
H415 H 0.36074 0.81094 0.37001 0.0
C416 C 0.41316 0.8096 0.25379 0.0
C417 C 0.3964 0.7975 0.23928 0.0
C418 C 0.41005 0.82509 0.28385 0.0
C419 C 0.39012 0.82879 0.3005 0.0
C420 C 0.37297 0.81779 0.28389 0.0
H421 H 0.43175 0.86814 0.54899 0.0
H422 H 0.40338 0.8702 0.49618 0.0
C423 C 0.37609 0.80224 0.25314 0.0
C424 C 0.38882 0.84188 0.33914 0.0
H425 H 0.39513 0.83358 0.44499 0.0
C426 C 0.39709 0.86214 0.33706 0.0
C427 C 0.38616 0.8324 0.37926 0.0
C428 C 0.37669 0.81099 0.38371 0.0
C429 C 0.40602 0.87153 0.37289 0.0
C430 C 0.40654 0.86039 0.41142 0.0
C431 C 0.395 0.84192 0.41511 0.0
C432 C 0.42344 0.86389 0.44267 0.0
C433 C 0.4169 0.89221 0.36822 0.0
C434 C 0.44402 0.85982 0.42997 0.0
C435 C 0.45993 0.8581 0.45987 0.0
C436 C 0.45567 0.86078 0.50302 0.0
C437 C 0.43537 0.86622 0.51573 0.0
C438 C 0.41922 0.86742 0.48571 0.0
H439 H 0.40908 0.90197 0.34381 0.0
H440 H 0.41724 0.90084 0.3987 0.0
H441 H 0.43321 0.88949 0.35783 0.0
H442 H 0.44756 0.85656 0.39709 0.0
H443 H 0.47546 0.85385 0.4494 0.0
H444 H 0.3841 0.15891 0.79833 0.0
H445 H 0.38467 0.13931 0.7318 0.0
H446 H 0.36505 0.19449 0.66451 0.0
H447 H 0.36277 0.21349 0.73126 0.0
H448 H 0.35607 0.16055 0.61844 0.0
H449 H 0.43808 0.15539 0.67625 0.0
H450 H 0.41965 0.14118 0.70748 0.0
H451 H 0.41825 0.16922 0.705 0.0
C452 C 0.37862 0.16641 0.76964 0.0
C453 C 0.37368 0.18775 0.76969 0.0
C454 C 0.37929 0.15532 0.7315 0.0
C455 C 0.37606 0.16576 0.69291 0.0
C456 C 0.368 0.18616 0.69375 0.0
H457 H 0.43296 0.18516 0.46269 0.0
H458 H 0.40737 0.18163 0.51939 0.0
C459 C 0.36658 0.19702 0.73206 0.0
C460 C 0.38502 0.15749 0.65276 0.0
H461 H 0.43181 0.14569 0.60672 0.0
C462 C 0.37256 0.15693 0.61604 0.0
C463 C 0.40667 0.15301 0.64931 0.0
C464 C 0.42151 0.15488 0.68642 0.0
C465 C 0.3813 0.15283 0.57601 0.0
C466 C 0.40296 0.14904 0.57273 0.0
C467 C 0.41515 0.14835 0.60954 0.0
C468 C 0.41414 0.14914 0.53167 0.0
C469 C 0.36752 0.15329 0.53731 0.0
C470 C 0.42614 0.13188 0.51902 0.0
C471 C 0.44072 0.13381 0.48622 0.0
C472 C 0.44387 0.15319 0.46643 0.0
C473 C 0.43095 0.17006 0.47751 0.0
C474 C 0.41616 0.16801 0.50965 0.0
H475 H 0.35087 0.15083 0.5456 0.0
H476 H 0.36893 0.16875 0.52178 0.0
H477 H 0.3724 0.1412 0.51416 0.0
H478 H 0.42504 0.11727 0.53605 0.0
H479 H 0.45053 0.12058 0.47851 0.0
H480 H 0.94438 0.78129 0.27695 0.0
H481 H 0.94733 0.80781 0.22193 0.0
H482 H 0.88158 0.80182 0.19472 0.0
H483 H 0.8784 0.77593 0.25162 0.0
H484 H 0.94126 0.79764 0.14317 0.0
H485 H 0.88867 0.86392 0.17988 0.0
H486 H 0.89608 0.84473 0.21902 0.0
H487 H 0.87593 0.83901 0.18104 0.0
C488 C 0.93047 0.78599 0.25988 0.0
C489 C 0.91122 0.77645 0.26814 0.0
C490 C 0.93213 0.80121 0.22856 0.0
C491 C 0.91469 0.80691 0.20409 0.0
C492 C 0.89518 0.79808 0.21365 0.0
H493 H 0.9335 0.83667 0.94571 0.0
H494 H 0.91351 0.82959 0.00986 0.0
C495 C 0.89341 0.78314 0.24589 0.0
C496 C 0.9179 0.81931 0.16486 0.0
H497 H 0.90249 0.86258 0.10931 0.0
C498 C 0.93286 0.81193 0.13616 0.0
C499 C 0.90686 0.83792 0.15539 0.0
C500 C 0.89112 0.847 0.18563 0.0
C501 C 0.93722 0.82253 0.0986 0.0
C502 C 0.92592 0.84083 0.08854 0.0
C503 C 0.91094 0.84842 0.11702 0.0
C504 C 0.93028 0.85186 0.04839 0.0
C505 C 0.95403 0.81404 0.06982 0.0
C506 C 0.94498 0.86808 0.04802 0.0
C507 C 0.95621 0.8724 0.01104 0.0
C508 C 0.95294 0.86033 0.97454 0.0
C509 C 0.93622 0.84622 0.9735 0.0
C510 C 0.92477 0.84219 0.01014 0.0
H511 H 0.96366 0.80188 0.08562 0.0
H512 H 0.94668 0.80696 0.04141 0.0
H513 H 0.96452 0.82672 0.05901 0.0
H514 H 0.94953 0.87562 0.07731 0.0
H515 H 0.96918 0.8832 0.01265 0.0
H516 H 0.91148 0.17005 0.68979 0.0
H517 H 0.91204 0.14362 0.74574 0.0
H518 H 0.88006 0.18644 0.829 0.0
H519 H 0.87806 0.21193 0.77206 0.0
H520 H 0.93485 0.14938 0.8067 0.0
H521 H 0.85915 0.13542 0.88046 0.0
H522 H 0.86099 0.1469 0.82839 0.0
H523 H 0.86146 0.16307 0.87532 0.0
C524 C 0.9036 0.17324 0.71941 0.0
C525 C 0.89465 0.19286 0.72684 0.0
C526 C 0.90398 0.1582 0.75148 0.0
C527 C 0.89614 0.16287 0.792 0.0
C528 C 0.8857 0.18198 0.79804 0.0
H529 H 0.94423 0.17887 0.01895 0.0
H530 H 0.9207 0.17237 0.9597 0.0
C531 C 0.88472 0.19672 0.76551 0.0
C532 C 0.90316 0.15059 0.82957 0.0
H533 H 0.8892 0.13965 0.93151 0.0
C534 C 0.92463 0.1464 0.83331 0.0
C535 C 0.89002 0.14637 0.86457 0.0
C536 C 0.8666 0.14799 0.86161 0.0
C537 C 0.93359 0.14068 0.8721 0.0
C538 C 0.92076 0.13914 0.90829 0.0
C539 C 0.89905 0.14112 0.9038 0.0
C540 C 0.93018 0.14028 0.95107 0.0
C541 C 0.95702 0.13842 0.87499 0.0
C542 C 0.94253 0.12401 0.9673 0.0
C543 C 0.95604 0.12769 0.00149 0.0
C544 C 0.95747 0.14775 0.01933 0.0
C545 C 0.94366 0.16335 0.00543 0.0
C546 C 0.93007 0.15961 0.97179 0.0
H547 H 0.96481 0.14095 0.84404 0.0
H548 H 0.96341 0.14979 0.89816 0.0
H549 H 0.96103 0.12253 0.88628 0.0
H550 H 0.94279 0.10896 0.95171 0.0
H551 H 0.96649 0.11536 0.01164 0.0
H552 H 0.57853 0.17539 0.78545 0.0
H553 H 0.5801 0.1531 0.72339 0.0
H554 H 0.63757 0.18258 0.68547 0.0
H555 H 0.63585 0.20534 0.74791 0.0
H556 H 0.60824 0.18736 0.62766 0.0
H557 H 0.60835 0.1043 0.66965 0.0
H558 H 0.58917 0.11749 0.70094 0.0
H559 H 0.61636 0.12424 0.70673 0.0
C560 C 0.59195 0.1766 0.76481 0.0
C561 C 0.60692 0.19229 0.77126 0.0
C562 C 0.59296 0.16364 0.72939 0.0
C563 C 0.60901 0.166 0.6996 0.0
C564 C 0.6251 0.18036 0.7081 0.0
H565 H 0.5729 0.1454 0.43462 0.0
H566 H 0.5985 0.14454 0.49266 0.0
C567 C 0.62415 0.19332 0.74388 0.0
C568 C 0.60613 0.15704 0.65646 0.0
H569 H 0.58756 0.11363 0.60618 0.0
C570 C 0.60444 0.17108 0.62253 0.0
C571 C 0.60114 0.1358 0.64963 0.0
C572 C 0.60409 0.11961 0.68371 0.0
C573 C 0.59583 0.16502 0.58353 0.0
C574 C 0.58914 0.14414 0.57784 0.0
C575 C 0.59253 0.12965 0.61053 0.0
C576 C 0.57565 0.13822 0.54135 0.0
C577 C 0.59223 0.18156 0.55023 0.0
C578 C 0.55467 0.1331 0.5489 0.0
C579 C 0.5402 0.13311 0.5157 0.0
C580 C 0.5465 0.13814 0.47447 0.0
C581 C 0.56778 0.1412 0.46615 0.0
C582 C 0.58233 0.14096 0.49935 0.0
H583 H 0.59531 0.19753 0.56237 0.0
H584 H 0.60282 0.17876 0.52309 0.0
H585 H 0.57591 0.18099 0.5384 0.0
H586 H 0.54912 0.1309 0.58096 0.0
H587 H 0.52381 0.13103 0.52288 0.0
H588 H 0.57983 0.84258 0.56341 0.0
H589 H 0.60267 0.84013 0.50191 0.0
H590 H 0.56154 0.88088 0.43226 0.0
H591 H 0.53889 0.88378 0.49434 0.0
H592 H 0.57627 0.82188 0.43673 0.0
H593 H 0.62152 0.8897 0.37661 0.0
H594 H 0.6169 0.88555 0.43248 0.0
H595 H 0.59614 0.89457 0.39908 0.0
C596 C 0.57642 0.85213 0.53594 0.0
C597 C 0.55759 0.86325 0.53342 0.0
C598 C 0.58946 0.85068 0.50072 0.0
C599 C 0.58372 0.86015 0.46236 0.0
C600 C 0.56643 0.87364 0.46165 0.0
H601 H 0.58002 0.80897 0.21543 0.0
H602 H 0.5789 0.83323 0.27523 0.0
C603 C 0.55348 0.87533 0.49723 0.0
C604 C 0.59145 0.85094 0.42227 0.0
H605 H 0.61769 0.86063 0.33018 0.0
C606 C 0.58562 0.83027 0.41378 0.0
C607 C 0.60329 0.86206 0.39212 0.0
C608 C 0.61 0.88419 0.40031 0.0
C609 C 0.59106 0.82046 0.37584 0.0
C610 C 0.6028 0.83152 0.34548 0.0
C611 C 0.60886 0.85218 0.35382 0.0
C612 C 0.6073 0.82176 0.30404 0.0
C613 C 0.58368 0.79846 0.36777 0.0
C614 C 0.62415 0.80788 0.29962 0.0
C615 C 0.62495 0.79413 0.26509 0.0
C616 C 0.6087 0.79394 0.23522 0.0
C617 C 0.59272 0.80887 0.23815 0.0
C618 C 0.59213 0.82281 0.27209 0.0
H619 H 0.5748 0.79197 0.39491 0.0
H620 H 0.57349 0.79814 0.3393 0.0
H621 H 0.59726 0.78817 0.36143 0.0
H622 H 0.6358 0.80663 0.32439 0.0
H623 H 0.63728 0.78258 0.26366 0.0
H624 H 0.60655 0.66581 0.18001 0.0
H625 H 0.60696 0.64032 0.23783 0.0
H626 H 0.63466 0.6863 0.32028 0.0
H627 H 0.63573 0.71115 0.26158 0.0
H628 H 0.64412 0.64748 0.34784 0.0
H629 H 0.55894 0.6528 0.31361 0.0
H630 H 0.5742 0.64117 0.27242 0.0
H631 H 0.57776 0.66827 0.2856 0.0
C632 C 0.61373 0.67002 0.20989 0.0
C633 C 0.62101 0.69039 0.21661 0.0
C634 C 0.61372 0.65557 0.2431 0.0
C635 C 0.61994 0.66169 0.28396 0.0
C636 C 0.62952 0.68124 0.28923 0.0
H637 H 0.5828 0.66567 0.52816 0.0
H638 H 0.60565 0.66144 0.46728 0.0
C639 C 0.63019 0.69545 0.25563 0.0
C640 C 0.61303 0.64986 0.32205 0.0
H641 H 0.56881 0.63672 0.37596 0.0
C642 C 0.62767 0.64476 0.35367 0.0
C643 C 0.59152 0.6463 0.32994 0.0
C644 C 0.57466 0.65255 0.29886 0.0
C645 C 0.6213 0.63728 0.39353 0.0
C646 C 0.59977 0.63484 0.40194 0.0
C647 C 0.58533 0.63841 0.36934 0.0
C648 C 0.59131 0.63282 0.44553 0.0
C649 C 0.63758 0.63279 0.42681 0.0
C650 C 0.57621 0.61761 0.45496 0.0
C651 C 0.56311 0.61998 0.49017 0.0
C652 C 0.56469 0.63782 0.51581 0.0
C653 C 0.58119 0.65181 0.5088 0.0
C654 C 0.59441 0.64929 0.4741 0.0
H655 H 0.65256 0.62795 0.41213 0.0
H656 H 0.64054 0.64719 0.44536 0.0
H657 H 0.63233 0.6204 0.4489 0.0
H658 H 0.57341 0.60486 0.43316 0.0
H659 H 0.55047 0.609 0.49471 0.0
H660 H 0.62324 0.31734 0.79613 0.0
H661 H 0.62459 0.34477 0.74127 0.0
H662 H 0.60267 0.30045 0.64846 0.0
H663 H 0.60142 0.27351 0.70234 0.0
H664 H 0.6314 0.32933 0.61484 0.0
H665 H 0.56763 0.36839 0.70522 0.0
H666 H 0.59282 0.36452 0.72927 0.0
H667 H 0.57609 0.34256 0.7199 0.0
C668 C 0.61934 0.31346 0.76369 0.0
C669 C 0.61189 0.29347 0.75343 0.0
C670 C 0.62 0.32911 0.73247 0.0
C671 C 0.6134 0.32476 0.69083 0.0
C672 C 0.60784 0.30426 0.68024 0.0
H673 H 0.53089 0.32814 0.52654 0.0
H674 H 0.55611 0.33236 0.5829 0.0
C675 C 0.60699 0.28886 0.71115 0.0
C676 C 0.60888 0.3413 0.65909 0.0
H677 H 0.56682 0.37102 0.63154 0.0
C678 C 0.61786 0.33932 0.61872 0.0
C679 C 0.59137 0.35455 0.66423 0.0
C680 C 0.58131 0.35776 0.70688 0.0
C681 C 0.6079 0.34749 0.58263 0.0
C682 C 0.58863 0.35795 0.58729 0.0
C683 C 0.58153 0.3628 0.62813 0.0
C684 C 0.57293 0.35747 0.55271 0.0
C685 C 0.61652 0.34252 0.53942 0.0
C686 C 0.57389 0.37035 0.51675 0.0
C687 C 0.55926 0.36792 0.48375 0.0
C688 C 0.5437 0.35246 0.48635 0.0
C689 C 0.54274 0.34003 0.52296 0.0
C690 C 0.5571 0.34252 0.55556 0.0
H691 H 0.63251 0.33586 0.54116 0.0
H692 H 0.60617 0.33112 0.52331 0.0
H693 H 0.61693 0.35685 0.51975 0.0
H694 H 0.58601 0.38202 0.51401 0.0
H695 H 0.56041 0.37775 0.456 0.0
H696 H 0.91702 0.33445 0.05697 0.0
H697 H 0.89772 0.33583 0.99046 0.0
H698 H 0.93409 0.3889 0.95136 0.0
H699 H 0.95364 0.38751 0.01811 0.0
H700 H 0.87668 0.36347 0.92938 0.0
H701 H 0.95671 0.33797 0.88312 0.0
H702 H 0.94901 0.34024 0.93774 0.0
H703 H 0.95428 0.36324 0.90716 0.0
C704 C 0.92019 0.34709 0.03516 0.0
C705 C 0.93713 0.36056 0.04223 0.0
C706 C 0.90912 0.34787 0.99708 0.0
C707 C 0.91488 0.36207 0.96549 0.0
C708 C 0.9296 0.37763 0.97517 0.0
H709 H 0.91333 0.31867 0.70604 0.0
H710 H 0.91363 0.3446 0.76282 0.0
C711 C 0.94067 0.37691 0.0135 0.0
C712 C 0.9094 0.3571 0.92092 0.0
H713 H 0.93022 0.33349 0.83395 0.0
C714 C 0.8884 0.35733 0.90801 0.0
C715 C 0.9247 0.34888 0.89325 0.0
C716 C 0.94743 0.34737 0.90586 0.0
C717 C 0.88226 0.34906 0.86854 0.0
C718 C 0.89746 0.33991 0.84187 0.0
C719 C 0.91853 0.34059 0.85415 0.0
C720 C 0.89219 0.32774 0.80309 0.0
C721 C 0.85956 0.34997 0.85612 0.0
C722 C 0.87916 0.31012 0.80564 0.0
C723 C 0.87865 0.29549 0.77263 0.0
C724 C 0.8914 0.29816 0.73702 0.0
C725 C 0.9032 0.31645 0.73309 0.0
C726 C 0.90343 0.33122 0.7656 0.0
H727 H 0.85168 0.36359 0.87089 0.0
H728 H 0.85761 0.35093 0.82123 0.0
H729 H 0.85161 0.33568 0.86752 0.0
H730 H 0.87073 0.30674 0.83449 0.0
H731 H 0.86974 0.28128 0.77658 0.0
H732 H 0.87707 0.65203 0.31203 0.0
H733 H 0.87397 0.62916 0.24986 0.0
H734 H 0.88195 0.68267 0.16841 0.0
H735 H 0.88263 0.70532 0.22987 0.0
H736 H 0.86205 0.65716 0.1269 0.0
H737 H 0.92578 0.61035 0.20045 0.0
H738 H 0.901 0.60862 0.22623 0.0
H739 H 0.91517 0.63292 0.22628 0.0
C740 C 0.87701 0.65885 0.28066 0.0
C741 C 0.87992 0.68039 0.2755 0.0
C742 C 0.8758 0.64575 0.24508 0.0
C743 C 0.87885 0.6539 0.20411 0.0
C744 C 0.87974 0.67571 0.19932 0.0
H745 H 0.96324 0.62785 0.02026 0.0
H746 H 0.94201 0.62671 0.08371 0.0
C747 C 0.88003 0.68878 0.23459 0.0
C748 C 0.88362 0.64041 0.16657 0.0
H749 H 0.91952 0.60551 0.12911 0.0
C750 C 0.8746 0.64579 0.12743 0.0
C751 C 0.89975 0.62518 0.16706 0.0
C752 C 0.91111 0.61899 0.20711 0.0
C753 C 0.88296 0.63874 0.08884 0.0
C754 C 0.89982 0.62432 0.08927 0.0
C755 C 0.9069 0.61679 0.12857 0.0
C756 C 0.91293 0.62007 0.05095 0.0
C757 C 0.87481 0.64852 0.04853 0.0
C758 C 0.90424 0.61531 0.01106 0.0
C759 C 0.91642 0.61684 0.97427 0.0
C760 C 0.9377 0.62178 0.97723 0.0
C761 C 0.94691 0.62372 0.01729 0.0
C762 C 0.93465 0.62313 0.05368 0.0
H763 H 0.8649 0.6624 0.05482 0.0
H764 H 0.88785 0.65349 0.02781 0.0
H765 H 0.86508 0.63703 0.03121 0.0
H766 H 0.88782 0.61177 0.00794 0.0
H767 H 0.909 0.61539 0.94357 0.0
H768 H 0.46038 0.38666 0.48149 0.0
H769 H 0.442 0.38927 0.54931 0.0
H770 H 0.40733 0.33361 0.51883 0.0
H771 H 0.42498 0.33138 0.45107 0.0
H772 H 0.38615 0.35765 0.57563 0.0
H773 H 0.46903 0.34714 0.62665 0.0
H774 H 0.46193 0.37118 0.60134 0.0
H775 H 0.46203 0.34729 0.57147 0.0
C776 C 0.44808 0.37561 0.48841 0.0
C777 C 0.44457 0.35839 0.46171 0.0
C778 C 0.43772 0.377 0.5274 0.0
C779 C 0.42399 0.36108 0.53997 0.0
C780 C 0.41811 0.3459 0.51026 0.0
H781 H 0.42331 0.26699 0.70431 0.0
H782 H 0.42609 0.2956 0.65407 0.0
C783 C 0.4283 0.34457 0.47145 0.0
C784 C 0.41939 0.35687 0.58529 0.0
H785 H 0.44327 0.33461 0.67082 0.0
C786 C 0.39858 0.3532 0.59717 0.0
C787 C 0.43567 0.35114 0.61351 0.0
C788 C 0.45843 0.35427 0.60281 0.0
C789 C 0.39376 0.34182 0.63396 0.0
C790 C 0.41021 0.33427 0.65966 0.0
C791 C 0.43076 0.3402 0.65057 0.0
C792 C 0.4072 0.31709 0.69051 0.0
C793 C 0.37133 0.33633 0.64296 0.0
C794 C 0.39537 0.31951 0.72755 0.0
C795 C 0.39352 0.30293 0.75629 0.0
C796 C 0.40375 0.28384 0.74865 0.0
C797 C 0.41539 0.28151 0.71135 0.0
C798 C 0.417 0.29789 0.6826 0.0
H799 H 0.36057 0.34199 0.61783 0.0
H800 H 0.36958 0.31917 0.64594 0.0
H801 H 0.36655 0.34345 0.67346 0.0
H802 H 0.38793 0.33427 0.73462 0.0
H803 H 0.38457 0.30523 0.78495 0.0
H804 H 0.48017 0.63931 0.43968 0.0
H805 H 0.45072 0.63979 0.39039 0.0
H806 H 0.40805 0.63242 0.49457 0.0
H807 H 0.43777 0.63138 0.54428 0.0
H808 H 0.40716 0.61161 0.38249 0.0
H809 H 0.40409 0.69486 0.43316 0.0
H810 H 0.4284 0.68079 0.43721 0.0
H811 H 0.40708 0.67405 0.47115 0.0
C812 C 0.46457 0.63692 0.45189 0.0
C813 C 0.46119 0.63523 0.49565 0.0
C814 C 0.44776 0.63718 0.42374 0.0
C815 C 0.42723 0.63616 0.43884 0.0
C816 C 0.4238 0.63301 0.48231 0.0
H817 H 0.36073 0.71024 0.25789 0.0
H818 H 0.35829 0.68677 0.31898 0.0
C819 C 0.44075 0.63236 0.51059 0.0
C820 C 0.41008 0.64223 0.40977 0.0
H821 H 0.38961 0.68654 0.36725 0.0
C822 C 0.40272 0.62787 0.37974 0.0
C823 C 0.40395 0.66334 0.4067 0.0
C824 C 0.41116 0.67927 0.43871 0.0
C825 C 0.39081 0.63449 0.34467 0.0
C826 C 0.38699 0.65608 0.33869 0.0
C827 C 0.39254 0.67001 0.37123 0.0
C828 C 0.3818 0.66517 0.29638 0.0
C829 C 0.3832 0.61833 0.31364 0.0
C830 C 0.39448 0.66005 0.26165 0.0
C831 C 0.39558 0.67325 0.22663 0.0
C832 C 0.3842 0.69194 0.22568 0.0
C833 C 0.36946 0.69576 0.25758 0.0
C834 C 0.36826 0.68243 0.29275 0.0
H835 H 0.37791 0.60415 0.33071 0.0
H836 H 0.37014 0.62425 0.29383 0.0
H837 H 0.39627 0.61357 0.29276 0.0
H838 H 0.40546 0.64724 0.26349 0.0
H839 H 0.40724 0.6701 0.20264 0.0
H840 H 0.07764 0.68532 0.27987 0.0
H841 H 0.07966 0.66288 0.2182 0.0
H842 H 0.13699 0.69284 0.18068 0.0
H843 H 0.13483 0.71565 0.24305 0.0
H844 H 0.10854 0.6981 0.12286 0.0
H845 H 0.10643 0.61489 0.16018 0.0
H846 H 0.0881 0.62737 0.19452 0.0
H847 H 0.11546 0.6339 0.1983 0.0
C848 C 0.09118 0.68649 0.25952 0.0
C849 C 0.10593 0.70233 0.26589 0.0
C850 C 0.09247 0.67346 0.22431 0.0
C851 C 0.10852 0.67602 0.19456 0.0
C852 C 0.12452 0.69045 0.20325 0.0
H853 H 0.05203 0.62733 0.95729 0.0
H854 H 0.0815 0.63097 0.00706 0.0
C855 C 0.12332 0.70345 0.23895 0.0
C856 C 0.10526 0.66763 0.15109 0.0
H857 H 0.08135 0.6264 0.10278 0.0
C858 C 0.10347 0.68214 0.11797 0.0
C859 C 0.09899 0.64676 0.1438 0.0
C860 C 0.10262 0.62986 0.17613 0.0
C861 C 0.09284 0.67714 0.08049 0.0
C862 C 0.08361 0.65725 0.07626 0.0
C863 C 0.08797 0.64185 0.10655 0.0
C864 C 0.06613 0.65397 0.04623 0.0
C865 C 0.08989 0.69382 0.04735 0.0
C866 C 0.04766 0.66525 0.05255 0.0
C867 C 0.03096 0.66319 0.02466 0.0
C868 C 0.03221 0.64971 0.9896 0.0
C869 C 0.05056 0.63789 0.98388 0.0
C870 C 0.06741 0.63996 0.01217 0.0
H871 H 0.10297 0.70518 0.04795 0.0
H872 H 0.08872 0.68693 0.01516 0.0
H873 H 0.07525 0.70248 0.05396 0.0
H874 H 0.04622 0.67584 0.07913 0.0
H875 H 0.01708 0.6724 0.03053 0.0
H876 H 0.12075 0.29877 0.71362 0.0
H877 H 0.1207 0.32522 0.77013 0.0
H878 H 0.07501 0.2894 0.83864 0.0
H879 H 0.07478 0.26325 0.78291 0.0
H880 H 0.08376 0.34819 0.80085 0.0
H881 H 0.12177 0.30242 0.92721 0.0
H882 H 0.12528 0.29671 0.87158 0.0
H883 H 0.10271 0.28716 0.89933 0.0
C884 C 0.11079 0.29651 0.74089 0.0
C885 C 0.09774 0.27889 0.74371 0.0
C886 C 0.11082 0.31161 0.77308 0.0
C887 C 0.09813 0.30904 0.80883 0.0
C888 C 0.08522 0.29146 0.81167 0.0
H889 H 0.01298 0.34772 0.95869 0.0
H890 H 0.03831 0.34738 0.90152 0.0
C891 C 0.08499 0.27659 0.77954 0.0
C892 C 0.09685 0.32501 0.84257 0.0
H893 H 0.09453 0.32671 0.95015 0.0
C894 C 0.0868 0.34393 0.83353 0.0
C895 C 0.10141 0.31985 0.88508 0.0
C896 C 0.11362 0.30051 0.89637 0.0
C897 C 0.07853 0.35627 0.86622 0.0
C898 C 0.0801 0.34921 0.90856 0.0
C899 C 0.0929 0.33199 0.91768 0.0
C900 C 0.06471 0.35551 0.94119 0.0
C901 C 0.06678 0.37586 0.85492 0.0
C902 C 0.07093 0.36066 0.98266 0.0
C903 C 0.05626 0.36098 0.01561 0.0
C904 C 0.03539 0.35565 0.00744 0.0
C905 C 0.02902 0.35187 0.96566 0.0
C906 C 0.04349 0.35192 0.93286 0.0
H907 H 0.07425 0.38381 0.82763 0.0
H908 H 0.05064 0.37173 0.84526 0.0
H909 H 0.06603 0.38686 0.88204 0.0
H910 H 0.08726 0.36319 0.98992 0.0
H911 H 0.0615 0.36378 0.04774 0.0
H912 H 0.97567 0.32586 0.2244 0.0
H913 H 0.97893 0.30951 0.29445 0.0
H914 H 0.03433 0.27739 0.25174 0.0
H915 H 0.03069 0.29317 0.18287 0.0
H916 H 0.97085 0.27085 0.29383 0.0
H917 H 0.04698 0.26757 0.37027 0.0
H918 H 0.03446 0.29185 0.35559 0.0
H919 H 0.05092 0.2782 0.31854 0.0
C920 C 0.98908 0.31609 0.23105 0.0
C921 C 0.00281 0.31044 0.1984 0.0
C922 C 0.99099 0.3068 0.27114 0.0
C923 C 0.00671 0.29187 0.27884 0.0
C924 C 0.02208 0.28881 0.2476 0.0
H925 H 0.03675 0.22414 0.17282 0.0
H926 H 0.03382 0.24031 0.24168 0.0
C927 C 0.0199 0.29767 0.20763 0.0
C928 C 0.00336 0.27465 0.30987 0.0
H929 H 0.0368 0.23479 0.32948 0.0
C930 C 0.98504 0.26301 0.30373 0.0
C931 C 0.02072 0.26426 0.32779 0.0
C932 C 0.03926 0.27622 0.3441 0.0
C933 C 0.98617 0.24122 0.29975 0.0
C934 C 0.006 0.23152 0.30255 0.0
C935 C 0.02198 0.24246 0.32367 0.0
C936 C 0.01244 0.21737 0.26746 0.0
C937 C 0.96712 0.22959 0.28468 0.0
C938 C 0.00253 0.19822 0.25917 0.0
C939 C 0.00429 0.18891 0.219 0.0
C940 C 0.01589 0.19859 0.18703 0.0
C941 C 0.02743 0.21648 0.19679 0.0
C942 C 0.02585 0.22565 0.23654 0.0
H943 H 0.9526 0.23867 0.29023 0.0
H944 H 0.9684 0.2265 0.25019 0.0
H945 H 0.96579 0.21446 0.30145 0.0
H946 H 0.99239 0.19123 0.28253 0.0
H947 H 0.99533 0.17517 0.21161 0.0
H948 H 0.95113 0.76042 0.41463 0.0
H949 H 0.97045 0.77344 0.47488 0.0
H950 H 0.94909 0.72137 0.55009 0.0
H951 H 0.93055 0.70761 0.48769 0.0
H952 H 0.97156 0.78446 0.55735 0.0
H953 H 0.00809 0.706 0.55178 0.0
H954 H 0.98763 0.71014 0.51367 0.0
H955 H 0.98175 0.71001 0.56954 0.0
C956 C 0.95002 0.75212 0.44445 0.0
C957 C 0.93975 0.73295 0.44663 0.0
C958 C 0.96098 0.75962 0.47925 0.0
C959 C 0.96196 0.74805 0.5171 0.0
C960 C 0.94929 0.73022 0.52097 0.0
H961 H 0.07908 0.75199 0.45724 0.0
H962 H 0.06182 0.75441 0.5265 0.0
C963 C 0.9385 0.72246 0.48552 0.0
C964 C 0.9799 0.75235 0.54598 0.0
H965 H 0.02955 0.73459 0.53607 0.0
C966 C 0.98432 0.77342 0.55465 0.0
C967 C 0.99673 0.73798 0.54704 0.0
C968 C 0.99341 0.71473 0.54549 0.0
C969 C 0.00475 0.78102 0.55008 0.0
C970 C 0.02068 0.76706 0.53734 0.0
C971 C 0.01712 0.74561 0.54256 0.0
C972 C 0.03583 0.77301 0.50371 0.0
C973 C 0.00851 0.80412 0.55366 0.0
C974 C 0.02797 0.78391 0.46847 0.0
C975 C 0.03761 0.78228 0.42929 0.0
C976 C 0.05539 0.76981 0.42425 0.0
C977 C 0.06506 0.76129 0.46026 0.0
C978 C 0.05527 0.76284 0.49989 0.0
H979 H 0.0035 0.80954 0.5854 0.0
H980 H 0.02517 0.80823 0.54918 0.0
H981 H 0.99884 0.81255 0.52998 0.0
H982 H 0.01298 0.79168 0.46952 0.0
H983 H 0.03013 0.78948 0.40217 0.0
H984 H 0.47291 0.71324 0.64194 0.0
H985 H 0.4658 0.72916 0.70957 0.0
H986 H 0.50508 0.68361 0.77171 0.0
H987 H 0.51237 0.6675 0.70243 0.0
H988 H 0.45327 0.72334 0.794 0.0
H989 H 0.5386 0.73488 0.79569 0.0
H990 H 0.52951 0.72118 0.74946 0.0
H991 H 0.52648 0.70966 0.80112 0.0
C992 C 0.47964 0.70627 0.67009 0.0
C993 C 0.49369 0.68963 0.66695 0.0
C994 C 0.47536 0.71522 0.70911 0.0
C995 C 0.48529 0.708 0.74607 0.0
C996 C 0.49755 0.68979 0.74368 0.0
H997 H 0.51259 0.82326 0.71642 0.0
H998 H 0.50679 0.80286 0.78134 0.0
C999 C 0.50169 0.68057 0.70415 0.0
C1000 C 0.48638 0.72281 0.78232 0.0
H1001 H 0.51761 0.7654 0.78258 0.0
C1002 C 0.46755 0.73239 0.79436 0.0
C1003 C 0.50494 0.73452 0.78703 0.0
C1004 C 0.52612 0.72453 0.78324 0.0
C1005 C 0.46619 0.75426 0.79609 0.0
C1006 C 0.48394 0.76616 0.78501 0.0
C1007 C 0.50353 0.75637 0.78747 0.0
C1008 C 0.48206 0.7839 0.75461 0.0
C1009 C 0.44526 0.76433 0.80301 0.0
C1010 C 0.46938 0.78101 0.71862 0.0
C1011 C 0.47291 0.79235 0.6818 0.0
C1012 C 0.48896 0.80709 0.68009 0.0
C1013 C 0.50007 0.81194 0.71718 0.0
C1014 C 0.4967 0.8003 0.75427 0.0
H1015 H 0.43761 0.75731 0.83111 0.0
H1016 H 0.44675 0.78142 0.80782 0.0
H1017 H 0.43497 0.76129 0.77536 0.0
H1018 H 0.4583 0.76832 0.71691 0.0
H1019 H 0.46415 0.78839 0.65353 0.0
H1020 H 0.53872 0.28359 0.91516 0.0
H1021 H 0.51929 0.28464 0.98027 0.0
H1022 H 0.55851 0.23604 0.03224 0.0
H1023 H 0.57812 0.23504 0.96544 0.0
H1024 H 0.5226 0.22187 0.03004 0.0
H1025 H 0.50653 0.29712 0.09822 0.0
H1026 H 0.5092 0.30332 0.04342 0.0
H1027 H 0.53113 0.29222 0.07193 0.0
C1028 C 0.54384 0.27382 0.94118 0.0
C1029 C 0.55951 0.25889 0.93506 0.0
C1030 C 0.53287 0.27461 0.9791 0.0
C1031 C 0.53714 0.2603 0.01179 0.0
C1032 C 0.55476 0.24723 0.00767 0.0
H1033 H 0.41983 0.21813 0.97113 0.0
H1034 H 0.43963 0.22474 0.0368 0.0
C1035 C 0.56596 0.24659 0.96946 0.0
C1036 C 0.51971 0.25494 0.04114 0.0
H1037 H 0.47386 0.27987 0.0601 0.0
C1038 C 0.51212 0.23443 0.03875 0.0
C1039 C 0.50609 0.27057 0.05655 0.0
C1040 C 0.5139 0.29196 0.06818 0.0
C1041 C 0.49056 0.23059 0.0386 0.0
C1042 C 0.47668 0.24779 0.04038 0.0
C1043 C 0.48447 0.26687 0.05568 0.0
C1044 C 0.4592 0.24869 0.00925 0.0
C1045 C 0.48308 0.20885 0.02877 0.0
C1046 C 0.46224 0.26118 0.97319 0.0
C1047 C 0.451 0.25747 0.93623 0.0
C1048 C 0.43621 0.24147 0.93463 0.0
C1049 C 0.43121 0.2306 0.97186 0.0
C1050 C 0.44261 0.23429 0.00923 0.0
H1051 H 0.49558 0.19706 0.03358 0.0
H1052 H 0.46973 0.20476 0.04946 0.0
H1053 H 0.47786 0.20799 0.99527 0.0
H1054 H 0.47487 0.27238 0.97199 0.0
H1055 H 0.45508 0.26601 0.90783 0.0
H1056 H 0.04923 0.83053 0.80294 0.0
H1057 H 0.0581 0.80802 0.74333 0.0
H1058 H 0.99322 0.79072 0.73202 0.0
H1059 H 0.98462 0.81349 0.78994 0.0
H1060 H 0.0542 0.77275 0.77481 0.0
H1061 H 0.01148 0.76283 0.62879 0.0
H1062 H 0.01718 0.78868 0.64887 0.0
H1063 H 0.99313 0.77549 0.66258 0.0
C1064 C 0.03672 0.82323 0.78525 0.0
C1065 C 0.01627 0.82358 0.80093 0.0
C1066 C 0.04179 0.81025 0.75113 0.0
C1067 C 0.02655 0.79684 0.73406 0.0
C1068 C 0.00549 0.8006 0.74431 0.0
H1069 H 0.96431 0.71198 0.80716 0.0
H1070 H 0.98299 0.7337 0.75671 0.0
C1071 C 0.00044 0.8137 0.77797 0.0
C1072 C 0.03231 0.77498 0.72305 0.0
H1073 H 0.00487 0.73395 0.68343 0.0
C1074 C 0.0441 0.76414 0.75352 0.0
C1075 C 0.0203 0.76329 0.69403 0.0
C1076 C 0.01004 0.77336 0.65644 0.0
C1077 C 0.03986 0.74321 0.76289 0.0
C1078 C 0.02413 0.73272 0.73949 0.0
C1079 C 0.01619 0.74222 0.70271 0.0
C1080 C 0.01171 0.7158 0.75936 0.0
C1081 C 0.05005 0.73381 0.80166 0.0
C1082 C 0.0211 0.69779 0.77602 0.0
C1083 C 0.0105 0.68566 0.8059 0.0
C1084 C 0.99011 0.69086 0.81808 0.0
C1085 C 0.98 0.70756 0.79806 0.0
C1086 C 0.99067 0.71989 0.76894 0.0
H1087 H 0.06098 0.74476 0.8175 0.0
H1088 H 0.03802 0.72918 0.82507 0.0
H1089 H 0.05908 0.71976 0.7925 0.0
H1090 H 0.03713 0.69402 0.76854 0.0
H1091 H 0.0189 0.67337 0.82199 0.0
H1092 H 0.58251 0.72899 0.02102 0.0
H1093 H 0.56295 0.73489 0.95515 0.0
H1094 H 0.53079 0.78632 0.01521 0.0
H1095 H 0.55051 0.78069 0.07889 0.0
H1096 H 0.52734 0.72429 0.95293 0.0
H1097 H 0.51308 0.8025 0.90379 0.0
H1098 H 0.53801 0.79637 0.92741 0.0
H1099 H 0.51712 0.80741 0.95882 0.0
C1100 C 0.57206 0.74223 0.01889 0.0
C1101 C 0.56762 0.75419 0.05496 0.0
C1102 C 0.56079 0.74563 0.98125 0.0
C1103 C 0.54479 0.76079 0.97968 0.0
C1104 C 0.54291 0.7746 0.01421 0.0
H1105 H 0.48222 0.75659 0.10781 0.0
H1106 H 0.49875 0.76103 0.03972 0.0
C1107 C 0.55408 0.77121 0.0514 0.0
C1108 C 0.52623 0.75804 0.95123 0.0
H1109 H 0.48135 0.78625 0.95188 0.0
C1110 C 0.51743 0.73793 0.95019 0.0
C1111 C 0.51272 0.77507 0.94269 0.0
C1112 C 0.52094 0.79648 0.93269 0.0
C1113 C 0.4959 0.73535 0.9562 0.0
C1114 C 0.48352 0.75321 0.96341 0.0
C1115 C 0.49122 0.77254 0.94974 0.0
C1116 C 0.47124 0.75343 0.00293 0.0
C1117 C 0.48766 0.71385 0.96526 0.0
C1118 C 0.45004 0.74803 0.00493 0.0
C1119 C 0.44033 0.74567 0.04457 0.0
C1120 C 0.45194 0.74812 0.08217 0.0
C1121 C 0.47289 0.75423 0.07955 0.0
C1122 C 0.48234 0.75697 0.04054 0.0
H1123 H 0.49421 0.70245 0.94236 0.0
H1124 H 0.49266 0.70903 0.9975 0.0
H1125 H 0.47038 0.71339 0.96375 0.0
H1126 H 0.44126 0.74512 0.97619 0.0
H1127 H 0.42406 0.74134 0.04576 0.0
H1128 H 0.47968 0.17628 0.27625 0.0
H1129 H 0.47787 0.19335 0.20677 0.0
H1130 H 0.53424 0.22724 0.23696 0.0
H1131 H 0.53592 0.21023 0.30486 0.0
H1132 H 0.46829 0.23064 0.20414 0.0
H1133 H 0.53981 0.23461 0.11551 0.0
H1134 H 0.53318 0.21135 0.14505 0.0
H1135 H 0.54908 0.23169 0.16842 0.0
C1136 C 0.4922 0.18656 0.26679 0.0
C1137 C 0.50778 0.19223 0.2959 0.0
C1138 C 0.49118 0.19636 0.22703 0.0
C1139 C 0.50582 0.21181 0.21598 0.0
C1140 C 0.52284 0.21524 0.24343 0.0
H1141 H 0.52871 0.28301 0.31362 0.0
H1142 H 0.52817 0.2662 0.24515 0.0
C1143 C 0.52371 0.20568 0.28294 0.0
C1144 C 0.50053 0.22855 0.18482 0.0
H1145 H 0.53003 0.2699 0.15514 0.0
C1146 C 0.48151 0.23901 0.19125 0.0
C1147 C 0.51654 0.23948 0.16351 0.0
C1148 C 0.53563 0.22846 0.14721 0.0
C1149 C 0.48079 0.26089 0.19029 0.0
C1150 C 0.49964 0.27195 0.18406 0.0
C1151 C 0.51603 0.2614 0.1636 0.0
C1152 C 0.50565 0.28745 0.21703 0.0
C1153 C 0.46113 0.2717 0.20444 0.0
C1154 C 0.49458 0.30616 0.22348 0.0
C1155 C 0.49511 0.31598 0.2633 0.0
C1156 C 0.50651 0.30702 0.29673 0.0
C1157 C 0.51958 0.29003 0.28844 0.0
C1158 C 0.51934 0.28049 0.24895 0.0
H1159 H 0.44724 0.26154 0.20031 0.0
H1160 H 0.46243 0.2758 0.2385 0.0
H1161 H 0.45867 0.28624 0.18604 0.0
H1162 H 0.48424 0.31215 0.19921 0.0
H1163 H 0.48514 0.32928 0.26902 0.0
H1164 H 0.04482 0.26652 0.58555 0.0
H1165 H 0.02506 0.27586 0.52294 0.0
H1166 H 0.05878 0.22974 0.45037 0.0
H1167 H 0.07829 0.21985 0.51467 0.0
H1168 H 0.02479 0.28677 0.43847 0.0
H1169 H 0.0034 0.20301 0.44529 0.0
H1170 H 0.02154 0.21144 0.48531 0.0
H1171 H 0.02903 0.21164 0.4303 0.0
C1172 C 0.04853 0.25888 0.55589 0.0
C1173 C 0.06271 0.24229 0.55489 0.0
C1174 C 0.03732 0.26431 0.51977 0.0
C1175 C 0.03983 0.25307 0.48185 0.0
C1176 C 0.05602 0.23823 0.47943 0.0
H1177 H 0.92207 0.2379 0.52942 0.0
H1178 H 0.94063 0.24143 0.46166 0.0
C1179 C 0.0673 0.23269 0.51603 0.0
C1180 C 0.02219 0.2538 0.45097 0.0
H1181 H 0.9764 0.22739 0.45607 0.0
C1182 C 0.01426 0.27357 0.44011 0.0
C1183 C 0.00837 0.23658 0.44878 0.0
C1184 C 0.01595 0.2144 0.45256 0.0
C1185 C 0.99262 0.27717 0.43987 0.0
C1186 C 0.97915 0.26086 0.45255 0.0
C1187 C 0.98679 0.24037 0.44996 0.0
C1188 C 0.96243 0.26472 0.48456 0.0
C1189 C 0.98463 0.29894 0.43228 0.0
C1190 C 0.96739 0.27755 0.51932 0.0
C1191 C 0.95708 0.27523 0.55773 0.0
C1192 C 0.9414 0.26022 0.56245 0.0
C1193 C 0.93434 0.24937 0.52658 0.0
C1194 C 0.9449 0.2515 0.48781 0.0
H1195 H 0.99126 0.30506 0.40229 0.0
H1196 H 0.96732 0.29942 0.43033 0.0
H1197 H 0.99001 0.3094 0.4581 0.0
H1198 H 0.98091 0.28763 0.51882 0.0
H1199 H 0.96262 0.284 0.58485 0.0
H1200 H 0.99257 0.06604 0.04016 0.0
H1201 H 0.01027 0.03833 0.00127 0.0
H1202 H 0.06849 0.05479 0.0612 0.0
H1203 H 0.05084 0.08313 0.09899 0.0
H1204 H 0.05441 0.02897 0.95566 0.0
H1205 H 0.03997 -0.0007 0.11894 0.0
H1206 H 0.02567 0.02181 0.10069 0.0
H1207 H 0.05325 0.02367 0.1098 0.0
C1208 C 0.00939 0.06472 0.04255 0.0
C1209 C 0.02042 0.07653 0.0723 0.0
C1210 C 0.01951 0.04883 0.0206 0.0
C1211 C 0.04057 0.04439 0.02911 0.0
C1212 C 0.05225 0.05807 0.05427 0.0
H1213 H 0.03701 0.92167 0.91688 0.0
H1214 H 0.05769 0.94407 0.96387 0.0
C1215 C 0.04217 0.0743 0.07557 0.0
C1216 C 0.0478 0.02296 0.02114 0.0
H1217 H 0.03743 0.9751 0.06288 0.0
C1218 C 0.05188 0.01702 0.97939 0.0
C1219 C 0.0446 0.0075 0.05246 0.0
C1220 C 0.04069 0.01324 0.09812 0.0
C1221 C 0.05002 0.99611 0.96701 0.0
C1222 C 0.04352 0.98114 0.99718 0.0
C1223 C 0.04237 0.98667 0.03996 0.0
C1224 C 0.03137 0.96297 0.98289 0.0
C1225 C 0.05216 0.99065 0.92076 0.0
C1226 C 0.00961 0.96532 0.98082 0.0
C1227 C 0.9979 0.95278 0.95383 0.0
C1228 C 0.00779 0.93748 0.9295 0.0
C1229 C 0.02906 0.93318 0.93608 0.0
C1230 C 0.04091 0.94604 0.9626 0.0
H1231 H 0.05858 0.00378 0.90193 0.0
H1232 H 0.06262 0.97696 0.91708 0.0
H1233 H 0.03666 0.9864 0.90757 0.0
H1234 H 0.00202 0.97837 0.99627 0.0
H1235 H 0.98155 0.95639 0.94886 0.0
H1236 H 0.16154 0.77856 0.30687 0.0
H1237 H 0.18456 0.78611 0.24681 0.0
H1238 H 0.21645 0.72764 0.26784 0.0
H1239 H 0.19368 0.72029 0.32723 0.0
H1240 H 0.2247 0.79064 0.27362 0.0
H1241 H 0.22373 0.73435 0.14225 0.0
H1242 H 0.20124 0.73855 0.17569 0.0
H1243 H 0.22149 0.72051 0.19124 0.0
C1244 C 0.17269 0.76688 0.29681 0.0
C1245 C 0.17616 0.74898 0.32126 0.0
C1246 C 0.18581 0.7712 0.26272 0.0
C1247 C 0.20215 0.75743 0.25294 0.0
C1248 C 0.20371 0.73829 0.27424 0.0
H1249 H 0.32434 0.73616 0.1919 0.0
H1250 H 0.29202 0.74191 0.23171 0.0
C1251 C 0.19085 0.73416 0.30844 0.0
C1252 C 0.22073 0.76484 0.23038 0.0
H1253 H 0.25867 0.74577 0.16615 0.0
C1254 C 0.23195 0.78131 0.24904 0.0
C1255 C 0.23006 0.75266 0.19845 0.0
C1256 C 0.21833 0.73568 0.17555 0.0
C1257 C 0.25306 0.78443 0.23972 0.0
C1258 C 0.26286 0.77077 0.21111 0.0
C1259 C 0.25114 0.75568 0.18942 0.0
C1260 C 0.28527 0.77165 0.20221 0.0
C1261 C 0.26509 0.80132 0.26229 0.0
C1262 C 0.29272 0.78731 0.1755 0.0
C1263 C 0.3111 0.78407 0.1532 0.0
C1264 C 0.32193 0.76516 0.15742 0.0
C1265 C 0.31615 0.75087 0.18863 0.0
C1266 C 0.29772 0.75412 0.21106 0.0
H1267 H 0.25564 0.80913 0.28712 0.0
H1268 H 0.27936 0.79468 0.2771 0.0
H1269 H 0.27012 0.81325 0.23904 0.0
H1270 H 0.28319 0.80079 0.16806 0.0
H1271 H 0.31546 0.79521 0.12897 0.0
H1272 H 0.52565 0.08956 0.42322 0.0
H1273 H 0.54084 0.06394 0.47178 0.0
H1274 H 0.47989 0.03736 0.49167 0.0
H1275 H 0.46485 0.06243 0.4422 0.0
H1276 H 0.51629 0.03363 0.56255 0.0
H1277 H 0.53004 0.00638 0.397 0.0
H1278 H 0.53722 0.03241 0.41289 0.0
H1279 H 0.51021 0.0256 0.40793 0.0
C1280 C 0.51534 0.07917 0.44026 0.0
C1281 C 0.49421 0.0776 0.42888 0.0
C1282 C 0.52406 0.06448 0.46776 0.0
C1283 C 0.51149 0.04862 0.48434 0.0
C1284 C 0.48978 0.04952 0.4789 0.0
H1285 H 0.47849 0.93548 0.54325 0.0
H1286 H 0.49064 0.96488 0.50095 0.0
C1287 C 0.48117 0.06387 0.45081 0.0
C1288 C 0.5206 0.02838 0.49601 0.0
H1289 H 0.52978 0.98097 0.45046 0.0
C1290 C 0.52015 0.02223 0.53841 0.0
C1291 C 0.5253 0.01363 0.464 0.0
C1292 C 0.52577 0.01968 0.41781 0.0
C1293 C 0.52272 0.00124 0.54947 0.0
C1294 C 0.52571 0.98623 0.51708 0.0
C1295 C 0.52773 0.99262 0.47501 0.0
C1296 C 0.5221 0.96403 0.52598 0.0
C1297 C 0.52027 0.99494 0.59526 0.0
C1298 C 0.53641 0.95271 0.55045 0.0
C1299 C 0.52951 0.9357 0.57413 0.0
C1300 C 0.50834 0.93019 0.57336 0.0
C1301 C 0.49493 0.93942 0.54378 0.0
C1302 C 0.50185 0.95627 0.51984 0.0
H1303 H 0.51744 0.00853 0.61631 0.0
H1304 H 0.50702 0.98392 0.59857 0.0
H1305 H 0.53459 0.98683 0.60624 0.0
H1306 H 0.55209 0.95854 0.55536 0.0
H1307 H 0.53997 0.92882 0.59724 0.0
H1308 H 0.30361 0.26632 0.77194 0.0
H1309 H 0.27913 0.24331 0.73583 0.0
H1310 H 0.30696 0.19002 0.79733 0.0
H1311 H 0.33175 0.21315 0.83327 0.0
H1312 H 0.277 0.20199 0.68927 0.0
H1313 H 0.24869 0.20152 0.85608 0.0
H1314 H 0.26867 0.21986 0.8412 0.0
H1315 H 0.27449 0.19248 0.84268 0.0
C1316 C 0.3053 0.2496 0.77573 0.0
C1317 C 0.31949 0.24144 0.80509 0.0
C1318 C 0.29131 0.23643 0.7552 0.0
C1319 C 0.29106 0.21502 0.76454 0.0
C1320 C 0.30693 0.20649 0.78981 0.0
H1321 H 0.16791 0.2105 0.65906 0.0
H1322 H 0.19312 0.18857 0.69713 0.0
C1323 C 0.3212 0.21971 0.80995 0.0
C1324 C 0.27145 0.20368 0.75622 0.0
H1325 H 0.22341 0.20399 0.80216 0.0
C1326 C 0.2653 0.20114 0.71398 0.0
C1327 C 0.25631 0.20229 0.7887 0.0
C1328 C 0.26223 0.20409 0.83482 0.0
C1329 C 0.2441 0.20086 0.70296 0.0
C1330 C 0.22896 0.20341 0.73516 0.0
C1331 C 0.23511 0.20226 0.77765 0.0
C1332 C 0.20943 0.21461 0.72532 0.0
C1333 C 0.23814 0.20112 0.65672 0.0
C1334 C 0.20939 0.23631 0.7313 0.0
C1335 C 0.19521 0.24878 0.70948 0.0
C1336 C 0.18064 0.23965 0.68219 0.0
C1337 C 0.17881 0.21782 0.68069 0.0
C1338 C 0.19329 0.20528 0.70206 0.0
H1339 H 0.25161 0.19751 0.63587 0.0
H1340 H 0.22565 0.18953 0.65061 0.0
H1341 H 0.232 0.21676 0.64808 0.0
H1342 H 0.22179 0.24379 0.74908 0.0
H1343 H 0.19698 0.26558 0.71068 0.0
H1344 H 0.66877 0.28737 0.82871 0.0
H1345 H 0.69588 0.30535 0.78834 0.0
H1346 H 0.71904 0.24606 0.74429 0.0
H1347 H 0.69271 0.22813 0.78628 0.0
H1348 H 0.73652 0.28813 0.82325 0.0
H1349 H 0.73357 0.29045 0.64795 0.0
H1350 H 0.71042 0.29192 0.6806 0.0
H1351 H 0.72272 0.26719 0.67075 0.0
C1352 C 0.67878 0.2783 0.80808 0.0
C1353 C 0.67889 0.25644 0.81054 0.0
C1354 C 0.69433 0.2886 0.78528 0.0
C1355 C 0.7095 0.277 0.76372 0.0
C1356 C 0.70732 0.25527 0.76047 0.0
H1357 H 0.81219 0.22929 0.72257 0.0
H1358 H 0.78681 0.24807 0.76548 0.0
C1359 C 0.69221 0.24499 0.78425 0.0
C1360 C 0.73036 0.28586 0.75621 0.0
H1361 H 0.76766 0.28551 0.68 0.0
C1362 C 0.74331 0.28852 0.79182 0.0
C1363 C 0.73908 0.28638 0.71536 0.0
C1364 C 0.7257 0.28401 0.67638 0.0
C1365 C 0.76508 0.28878 0.78773 0.0
C1366 C 0.77386 0.28677 0.74713 0.0
C1367 C 0.76083 0.28707 0.71124 0.0
C1368 C 0.79509 0.27848 0.74107 0.0
C1369 C 0.77857 0.28905 0.82683 0.0
C1370 C 0.80951 0.28965 0.71676 0.0
C1371 C 0.82458 0.2789 0.69342 0.0
C1372 C 0.82465 0.25701 0.69325 0.0
C1373 C 0.81248 0.24618 0.72264 0.0
C1374 C 0.79792 0.25696 0.74703 0.0
H1375 H 0.77028 0.29624 0.85404 0.0
H1376 H 0.7827 0.27279 0.8355 0.0
H1377 H 0.79328 0.29771 0.82095 0.0
H1378 H 0.80746 0.30623 0.71164 0.0
H1379 H 0.83377 0.28749 0.67054 0.0
H1380 H 0.80961 0.76154 0.29178 0.0
H1381 H 0.78265 0.7417 0.255 0.0
H1382 H 0.80636 0.68472 0.30948 0.0
H1383 H 0.83398 0.7046 0.34526 0.0
H1384 H 0.77856 0.69815 0.20524 0.0
H1385 H 0.7477 0.70447 0.3695 0.0
H1386 H 0.76821 0.722 0.35365 0.0
H1387 H 0.77356 0.69465 0.3587 0.0
C1388 C 0.80987 0.74467 0.29368 0.0
C1389 C 0.82374 0.73453 0.32106 0.0
C1390 C 0.79443 0.73333 0.27289 0.0
C1391 C 0.79243 0.71183 0.28013 0.0
C1392 C 0.80777 0.70129 0.3035 0.0
H1393 H 0.6706 0.70977 0.16542 0.0
H1394 H 0.69383 0.6889 0.2106 0.0
C1395 C 0.82359 0.71264 0.3236 0.0
C1396 C 0.77195 0.70235 0.27131 0.0
H1397 H 0.72331 0.70756 0.31331 0.0
C1398 C 0.76641 0.69893 0.22903 0.0
C1399 C 0.75623 0.70322 0.30266 0.0
C1400 C 0.76158 0.70619 0.3488 0.0
C1401 C 0.74542 0.69951 0.21646 0.0
C1402 C 0.72992 0.70401 0.24704 0.0
C1403 C 0.73527 0.7042 0.29003 0.0
C1404 C 0.71106 0.71552 0.2339 0.0
C1405 C 0.74025 0.69839 0.16988 0.0
C1406 C 0.71212 0.73738 0.23484 0.0
C1407 C 0.69918 0.74919 0.20878 0.0
C1408 C 0.68472 0.73929 0.18239 0.0
C1409 C 0.68153 0.71769 0.18613 0.0
C1410 C 0.69483 0.70575 0.21165 0.0
H1411 H 0.75385 0.69335 0.15064 0.0
H1412 H 0.72727 0.68726 0.16455 0.0
H1413 H 0.73508 0.71395 0.15853 0.0
H1414 H 0.7246 0.74517 0.2518 0.0
H1415 H 0.70198 0.7658 0.20594 0.0
H1416 H 0.55373 0.56674 0.58909 0.0
H1417 H 0.56232 0.53337 0.55636 0.0
H1418 H 0.50097 0.53117 0.50029 0.0
H1419 H 0.49218 0.56422 0.53416 0.0
H1420 H 0.51273 0.50521 0.58133 0.0
H1421 H 0.56553 0.49508 0.44278 0.0
H1422 H 0.56923 0.51594 0.48054 0.0
H1423 H 0.54777 0.51697 0.44416 0.0
C1424 C 0.54268 0.5599 0.56709 0.0
C1425 C 0.52219 0.56757 0.56463 0.0
C1426 C 0.54757 0.54075 0.54869 0.0
C1427 C 0.53207 0.52973 0.52694 0.0
C1428 C 0.51305 0.53954 0.5173 0.0
H1429 H 0.47462 0.43806 0.43859 0.0
H1430 H 0.48569 0.459 0.49843 0.0
C1431 C 0.50808 0.55853 0.53623 0.0
C1432 C 0.53275 0.50685 0.52659 0.0
H1433 H 0.54705 0.46552 0.46638 0.0
C1434 C 0.52058 0.49637 0.55676 0.0
C1435 C 0.54367 0.49551 0.4957 0.0
C1436 C 0.5574 0.50631 0.46387 0.0
C1437 C 0.51715 0.4749 0.5538 0.0
C1438 C 0.526 0.46387 0.51967 0.0
C1439 C 0.54024 0.47399 0.49267 0.0
C1440 C 0.51627 0.44465 0.50341 0.0
C1441 C 0.50277 0.46459 0.58512 0.0
C1442 C 0.52889 0.42815 0.48935 0.0
C1443 C 0.52236 0.41599 0.45513 0.0
C1444 C 0.50337 0.42055 0.43506 0.0
C1445 C 0.48933 0.43441 0.45389 0.0
C1446 C 0.49569 0.4463 0.48836 0.0
H1447 H 0.50475 0.47155 0.6171 0.0
H1448 H 0.48635 0.46727 0.57526 0.0
H1449 H 0.5056 0.44753 0.58706 0.0
H1450 H 0.5448 0.42662 0.50063 0.0
H1451 H 0.5334 0.4054 0.44061 0.0
H1452 H 0.02338 0.54799 0.93522 0.0
H1453 H 0.00787 0.52328 0.98462 0.0
H1454 H 0.9494 0.55656 0.97804 0.0
H1455 H 0.96496 0.58134 0.92829 0.0
H1456 H 0.98164 0.52421 0.06267 0.0
H1457 H 0.94194 0.49854 0.91406 0.0
H1458 H 0.96394 0.51605 0.91245 0.0
H1459 H 0.93929 0.52509 0.93202 0.0
C1460 C 0.00757 0.55064 0.9461 0.0
C1461 C 0.99533 0.56648 0.92837 0.0
C1462 C 0.99869 0.53652 0.97411 0.0
C1463 C 0.97744 0.538 0.98413 0.0
C1464 C 0.96581 0.55523 0.97035 0.0
H1465 H 0.95304 0.42736 0.12509 0.0
H1466 H 0.93713 0.45504 0.0829 0.0
C1467 C 0.97479 0.56953 0.9425 0.0
C1468 C 0.96726 0.5195 0.00199 0.0
H1469 H 0.94592 0.47367 0.96796 0.0
C1470 C 0.97301 0.51341 0.04283 0.0
C1471 C 0.9563 0.50548 0.97536 0.0
C1472 C 0.94996 0.51146 0.93094 0.0
C1473 C 0.96977 0.49296 0.05657 0.0
C1474 C 0.96031 0.47844 0.02866 0.0
C1475 C 0.95295 0.48498 0.98914 0.0
C1476 C 0.96221 0.45601 0.03738 0.0
C1477 C 0.97843 0.48652 0.09918 0.0
C1478 C 0.9802 0.4459 0.02248 0.0
C1479 C 0.9894 0.43021 0.04674 0.0
C1480 C 0.98031 0.42456 0.08523 0.0
C1481 C 0.96021 0.43166 0.0953 0.0
C1482 C 0.95107 0.44743 0.0712 0.0
H1483 H 0.98611 0.49964 0.11608 0.0
H1484 H 0.96566 0.48051 0.11942 0.0
H1485 H 0.99006 0.47383 0.09517 0.0
H1486 H 0.98888 0.45231 0.99612 0.0
H1487 H 0.00492 0.42483 0.03865 0.0
H1488 H 0.0512 0.10219 0.27778 0.0
H1489 H 0.07565 0.1145 0.33179 0.0
H1490 H 0.087 0.17014 0.25894 0.0
H1491 H 0.06259 0.15812 0.20469 0.0
H1492 H 0.12456 0.1462 0.30554 0.0
H1493 H 0.05493 0.17028 0.39938 0.0
H1494 H 0.05494 0.14467 0.37596 0.0
H1495 H 0.05394 0.16725 0.34258 0.0
C1496 C 0.05915 0.11687 0.27281 0.0
C1497 C 0.05477 0.12927 0.23714 0.0
C1498 C 0.07315 0.12381 0.30361 0.0
C1499 C 0.08299 0.14316 0.2991 0.0
C1500 C 0.07958 0.15507 0.26261 0.0
H1501 H 0.15377 0.22706 0.454 0.0
H1502 H 0.14268 0.20469 0.39545 0.0
C1503 C 0.06556 0.14819 0.2318 0.0
C1504 C 0.0948 0.15212 0.33465 0.0
H1505 H 0.08779 0.17654 0.42921 0.0
C1506 C 0.11665 0.15273 0.33282 0.0
C1507 C 0.08425 0.16067 0.36976 0.0
C1508 C 0.06072 0.16087 0.37228 0.0
C1509 C 0.12834 0.16165 0.36584 0.0
C1510 C 0.11775 0.17036 0.40089 0.0
C1511 C 0.09587 0.16962 0.40252 0.0
C1512 C 0.12863 0.18128 0.43568 0.0
C1513 C 0.15182 0.16155 0.36309 0.0
C1514 C 0.12476 0.17532 0.47765 0.0
C1515 C 0.13071 0.18824 0.51099 0.0
C1516 C 0.14077 0.20726 0.50291 0.0
C1517 C 0.14616 0.21241 0.46111 0.0
C1518 C 0.13993 0.19958 0.42763 0.0
H1519 H 0.15751 0.14913 0.34147 0.0
H1520 H 0.15717 0.17677 0.35041 0.0
H1521 H 0.15902 0.15928 0.39476 0.0
H1522 H 0.11604 0.16126 0.48447 0.0
H1523 H 0.12652 0.18382 0.54297 0.0
H1524 H 0.14811 0.80165 0.52273 0.0
H1525 H 0.13367 0.82421 0.57761 0.0
H1526 H 0.07493 0.8264 0.5109 0.0
H1527 H 0.08913 0.8037 0.45577 0.0
H1528 H 0.11394 0.86494 0.57322 0.0
H1529 H 0.06057 0.80227 0.62977 0.0
H1530 H 0.08376 0.79671 0.5993 0.0
H1531 H 0.06114 0.80731 0.57377 0.0
C1532 C 0.1322 0.80713 0.51932 0.0
C1533 C 0.11971 0.80069 0.48502 0.0
C1534 C 0.124 0.82002 0.55074 0.0
C1535 C 0.10318 0.82662 0.54855 0.0
C1536 C 0.09096 0.82116 0.51337 0.0
H1537 H 0.03513 0.912 0.70852 0.0
H1538 H 0.05524 0.89667 0.65071 0.0
C1539 C 0.09916 0.80829 0.4818 0.0
C1540 C 0.09409 0.83843 0.58415 0.0
H1541 H 0.05892 0.8346 0.66465 0.0
C1542 C 0.10186 0.8584 0.59318 0.0
C1543 C 0.07861 0.82959 0.61041 0.0
C1544 C 0.07054 0.80775 0.60327 0.0
C1545 C 0.09431 0.86993 0.62768 0.0
C1546 C 0.07857 0.86125 0.65342 0.0
C1547 C 0.07096 0.8412 0.64463 0.0
C1548 C 0.06943 0.87271 0.68945 0.0
C1549 C 0.10342 0.89113 0.63685 0.0
C1550 C 0.07126 0.86464 0.73053 0.0
C1551 C 0.05991 0.87343 0.76368 0.0
C1552 C 0.04623 0.89019 0.75613 0.0
C1553 C 0.04553 0.89912 0.71546 0.0
C1554 C 0.05701 0.89038 0.68233 0.0
H1555 H 0.11836 0.89365 0.61984 0.0
H1556 H 0.09222 0.90333 0.62652 0.0
H1557 H 0.10615 0.89314 0.67134 0.0
H1558 H 0.08084 0.85101 0.73658 0.0
H1559 H 0.06105 0.86643 0.79478 0.0
H1560 H 0.42821 0.78891 0.03107 0.0
H1561 H 0.44121 0.81081 0.97326 0.0
H1562 H 0.38264 0.84396 0.97028 0.0
H1563 H 0.36941 0.8218 0.02697 0.0
H1564 H 0.40253 0.80747 0.89979 0.0
H1565 H 0.43974 0.88405 0.93553 0.0
H1566 H 0.44381 0.86177 0.9697 0.0
H1567 H 0.41881 0.87422 0.96808 0.0
C1568 C 0.41853 0.80151 0.01938 0.0
C1569 C 0.3977 0.80345 0.03239 0.0
C1570 C 0.42597 0.81404 0.98657 0.0
C1571 C 0.41276 0.82882 0.96766 0.0
C1572 C 0.39303 0.83268 0.98482 0.0
H1573 H 0.42412 0.89501 0.73036 0.0
H1574 H 0.40969 0.88219 0.79698 0.0
C1575 C 0.38547 0.81996 0.01695 0.0
C1576 C 0.41668 0.8355 0.92403 0.0
H1577 H 0.43534 0.87508 0.86347 0.0
C1578 C 0.40978 0.82221 0.89164 0.0
C1579 C 0.42554 0.85493 0.91415 0.0
C1580 C 0.43246 0.86971 0.94851 0.0
C1581 C 0.41166 0.82784 0.84909 0.0
C1582 C 0.42131 0.84696 0.83886 0.0
C1583 C 0.42793 0.86041 0.87146 0.0
C1584 C 0.42605 0.85268 0.7947 0.0
C1585 C 0.40285 0.81351 0.81564 0.0
C1586 C 0.43901 0.83978 0.77034 0.0
C1587 C 0.44693 0.84687 0.73195 0.0
C1588 C 0.44249 0.86722 0.71798 0.0
C1589 C 0.42795 0.87933 0.74049 0.0
C1590 C 0.41983 0.87211 0.77869 0.0
H1591 H 0.39038 0.80337 0.82868 0.0
H1592 H 0.39638 0.82248 0.78856 0.0
H1593 H 0.41542 0.80323 0.8036 0.0
H1594 H 0.44429 0.82486 0.78239 0.0
H1595 H 0.4581 0.83716 0.71548 0.0
H1596 H 0.44411 0.11264 0.21507 0.0
H1597 H 0.42144 0.12987 0.1642 0.0
H1598 H 0.4158 0.18282 0.24782 0.0
H1599 H 0.43944 0.1659 0.29852 0.0
H1600 H 0.38237 0.14263 0.16718 0.0
H1601 H 0.43447 0.21074 0.14096 0.0
H1602 H 0.44263 0.18814 0.17057 0.0
H1603 H 0.4262 0.20749 0.19477 0.0
C1604 C 0.43796 0.1279 0.2229 0.0
C1605 C 0.44359 0.13797 0.26076 0.0
C1606 C 0.42499 0.13774 0.19373 0.0
C1607 C 0.41715 0.15774 0.20192 0.0
C1608 C 0.4221 0.16759 0.24041 0.0
H1609 H 0.33938 0.23145 0.03035 0.0
H1610 H 0.35074 0.21337 0.09463 0.0
C1611 C 0.43545 0.15787 0.26945 0.0
C1612 C 0.40423 0.16816 0.1693 0.0
H1613 H 0.40299 0.20994 0.10245 0.0
C1614 C 0.38676 0.15746 0.15333 0.0
C1615 C 0.41016 0.18741 0.15097 0.0
C1616 C 0.42948 0.19906 0.16484 0.0
C1617 C 0.37537 0.16524 0.11885 0.0
C1618 C 0.38141 0.18431 0.10058 0.0
C1619 C 0.39839 0.19538 0.1172 0.0
C1620 C 0.3715 0.19231 0.06185 0.0
C1621 C 0.35741 0.15283 0.10109 0.0
C1622 C 0.37903 0.18587 0.02238 0.0
C1623 C 0.3727 0.19617 0.98566 0.0
C1624 C 0.35877 0.2131 0.98799 0.0
C1625 C 0.35009 0.21846 0.02743 0.0
C1626 C 0.35657 0.20822 0.0642 0.0
H1627 H 0.35354 0.13913 0.12109 0.0
H1628 H 0.34338 0.16291 0.09809 0.0
H1629 H 0.36148 0.14725 0.06886 0.0
H1630 H 0.39065 0.17363 0.02024 0.0
H1631 H 0.3796 0.19159 0.95579 0.0
H1632 H 0.91404 0.76436 0.49476 0.0
H1633 H 0.92807 0.78329 0.55558 0.0
H1634 H 0.89414 0.83829 0.51701 0.0
H1635 H 0.8798 0.8192 0.45636 0.0
H1636 H 0.95018 0.8187 0.57082 0.0
H1637 H 0.86951 0.82663 0.63231 0.0
H1638 H 0.87576 0.81058 0.5872 0.0
H1639 H 0.87301 0.83836 0.58128 0.0
C1640 C 0.91022 0.7807 0.49837 0.0
C1641 C 0.89594 0.79037 0.47086 0.0
C1642 C 0.91804 0.79144 0.53341 0.0
C1643 C 0.91164 0.81199 0.54145 0.0
C1644 C 0.89876 0.82223 0.51202 0.0
H1645 H 0.93792 0.90033 0.73907 0.0
H1646 H 0.92356 0.88149 0.67843 0.0
C1647 C 0.89075 0.81141 0.47723 0.0
C1648 C 0.91722 0.82211 0.58204 0.0
H1649 H 0.89613 0.84411 0.67076 0.0
C1650 C 0.93838 0.82419 0.59273 0.0
C1651 C 0.90174 0.82899 0.61086 0.0
C1652 C 0.87874 0.82585 0.60261 0.0
C1653 C 0.94448 0.83349 0.63099 0.0
C1654 C 0.929 0.84073 0.65927 0.0
C1655 C 0.90788 0.83854 0.64882 0.0
C1656 C 0.93459 0.85129 0.69919 0.0
C1657 C 0.96745 0.8358 0.64063 0.0
C1658 C 0.94448 0.84028 0.73189 0.0
C1659 C 0.9525 0.85095 0.76684 0.0
C1660 C 0.95099 0.87281 0.76928 0.0
C1661 C 0.93952 0.88352 0.73807 0.0
C1662 C 0.93136 0.87281 0.7033 0.0
H1663 H 0.97714 0.83392 0.61179 0.0
H1664 H 0.97081 0.85128 0.6548 0.0
H1665 H 0.97219 0.82366 0.66382 0.0
H1666 H 0.94678 0.82358 0.72948 0.0
H1667 H 0.9609 0.84222 0.79073 0.0
H1668 H 0.91078 0.20243 0.53766 0.0
H1669 H 0.92411 0.18564 0.47363 0.0
H1670 H 0.86153 0.16868 0.43737 0.0
H1671 H 0.84792 0.18569 0.50076 0.0
H1672 H 0.89936 0.13712 0.4241 0.0
H1673 H 0.90564 0.21694 0.35595 0.0
H1674 H 0.91562 0.21314 0.40874 0.0
H1675 H 0.88814 0.21082 0.39895 0.0
C1676 C 0.89986 0.19484 0.51651 0.0
C1677 C 0.87825 0.19594 0.52376 0.0
C1678 C 0.90751 0.18522 0.48003 0.0
C1679 C 0.8937 0.17631 0.45069 0.0
C1680 C 0.87235 0.17564 0.45966 0.0
H1681 H 0.92806 0.12115 0.20391 0.0
H1682 H 0.90595 0.13317 0.26288 0.0
C1683 C 0.86465 0.18538 0.49594 0.0
C1684 C 0.90134 0.16972 0.40881 0.0
H1685 H 0.92011 0.18931 0.31608 0.0
C1686 C 0.9037 0.14843 0.40017 0.0
C1687 C 0.90673 0.18464 0.37782 0.0
C1688 C 0.90382 0.2077 0.38545 0.0
C1689 C 0.91241 0.14165 0.36178 0.0
C1690 C 0.91847 0.15663 0.3313 0.0
C1691 C 0.91532 0.1779 0.33945 0.0
C1692 C 0.93057 0.1508 0.29334 0.0
C1693 C 0.91607 0.11865 0.355 0.0
C1694 C 0.95141 0.15721 0.29055 0.0
C1695 C 0.96384 0.15046 0.25719 0.0
C1696 C 0.95558 0.13762 0.22543 0.0
C1697 C 0.93458 0.13147 0.22763 0.0
C1698 C 0.92206 0.13818 0.26131 0.0
H1699 H 0.91341 0.10945 0.38429 0.0
H1700 H 0.90526 0.11285 0.33018 0.0
H1701 H 0.93227 0.1158 0.34397 0.0
H1702 H 0.95834 0.16666 0.31531 0.0
H1703 H 0.98029 0.15408 0.25795 0.0
H1704 H 0.58969 0.19828 0.95359 0.0
H1705 H 0.5753 0.17825 0.01263 0.0
H1706 H 0.63738 0.1682 0.06163 0.0
H1707 H 0.65191 0.18773 0.00268 0.0
H1708 H 0.61352 0.13444 0.07383 0.0
H1709 H 0.57368 0.2058 0.12857 0.0
H1710 H 0.56377 0.19786 0.07785 0.0
H1711 H 0.59062 0.20578 0.08334 0.0
C1712 C 0.6003 0.19151 0.97652 0.0
C1713 C 0.6219 0.19503 0.97391 0.0
C1714 C 0.59205 0.18014 0.01032 0.0
C1715 C 0.60526 0.17227 0.04208 0.0
C1716 C 0.6269 0.17433 0.03769 0.0
H1717 H 0.5543 0.14886 0.29222 0.0
H1718 H 0.57756 0.16085 0.23611 0.0
C1719 C 0.63516 0.18555 0.00389 0.0
C1720 C 0.59661 0.16325 0.0814 0.0
H1721 H 0.5641 0.17416 0.16372 0.0
C1722 C 0.60276 0.14311 0.09363 0.0
C1723 C 0.58322 0.1749 0.108 0.0
C1724 C 0.57763 0.19735 0.09897 0.0
C1725 C 0.59527 0.13402 0.13105 0.0
C1726 C 0.58073 0.14514 0.15607 0.0
C1727 C 0.57512 0.16553 0.14444 0.0
C1728 C 0.57004 0.13569 0.19294 0.0
C1729 C 0.60328 0.11276 0.14356 0.0
C1730 C 0.55865 0.11719 0.18795 0.0
C1731 C 0.54561 0.11012 0.22019 0.0
C1732 C 0.54334 0.12171 0.25772 0.0
C1733 C 0.55562 0.13963 0.26362 0.0
C1734 C 0.56889 0.14652 0.23154 0.0
H1735 H 0.61928 0.11007 0.13121 0.0
H1736 H 0.60354 0.11077 0.17848 0.0
H1737 H 0.59299 0.10063 0.12967 0.0
H1738 H 0.55883 0.10882 0.15818 0.0
H1739 H 0.53632 0.09631 0.21448 0.0
H1740 H 0.52464 0.89462 0.79476 0.0
H1741 H 0.54583 0.88152 0.85287 0.0
H1742 H 0.57472 0.83698 0.76892 0.0
H1743 H 0.55279 0.84948 0.71056 0.0
H1744 H 0.56368 0.81877 0.83935 0.0
H1745 H 0.60553 0.89112 0.88138 0.0
H1746 H 0.57788 0.89526 0.88239 0.0
H1747 H 0.59054 0.88867 0.83324 0.0
C1748 C 0.5357 0.88223 0.78836 0.0
C1749 C 0.53713 0.87318 0.74792 0.0
C1750 C 0.54793 0.87485 0.82167 0.0
C1751 C 0.5622 0.85859 0.81509 0.0
C1752 C 0.56389 0.84966 0.77462 0.0
H1753 H 0.65315 0.81367 0.99676 0.0
H1754 H 0.63549 0.83199 0.93923 0.0
C1755 C 0.55141 0.85685 0.7413 0.0
C1756 C 0.57431 0.85012 0.8512 0.0
H1757 H 0.60512 0.8643 0.93472 0.0
C1758 C 0.57283 0.82871 0.86004 0.0
C1759 C 0.58666 0.86302 0.87766 0.0
C1760 C 0.59044 0.88573 0.86788 0.0
C1761 C 0.58288 0.81998 0.8953 0.0
C1762 C 0.59399 0.83317 0.92322 0.0
C1763 C 0.59604 0.85441 0.9138 0.0
C1764 C 0.60441 0.82484 0.96133 0.0
C1765 C 0.58242 0.79662 0.90143 0.0
C1766 C 0.59268 0.81582 0.99396 0.0
C1767 C 0.60269 0.80529 0.02691 0.0
C1768 C 0.62459 0.80375 0.02776 0.0
C1769 C 0.63627 0.81442 0.99694 0.0
C1770 C 0.62623 0.82485 0.96393 0.0
H1771 H 0.57445 0.78846 0.87493 0.0
H1772 H 0.59861 0.79057 0.90417 0.0
H1773 H 0.57428 0.79265 0.93124 0.0
H1774 H 0.57578 0.81613 0.99292 0.0
H1775 H 0.59325 0.79745 0.0504 0.0
H1776 H 0.55542 0.6021 0.76535 0.0
H1777 H 0.57692 0.61732 0.82086 0.0
H1778 H 0.57878 0.67552 0.75258 0.0
H1779 H 0.55666 0.66058 0.69704 0.0
H1780 H 0.61571 0.63568 0.82372 0.0
H1781 H 0.55298 0.692 0.86547 0.0
H1782 H 0.5487 0.67049 0.8297 0.0
H1783 H 0.56191 0.69354 0.81173 0.0
C1784 C 0.56052 0.6181 0.76177 0.0
C1785 C 0.55406 0.63023 0.72699 0.0
C1786 C 0.57289 0.62673 0.79354 0.0
C1787 C 0.57908 0.64763 0.79117 0.0
C1788 C 0.57376 0.65946 0.75533 0.0
H1789 H 0.66191 0.71272 0.96309 0.0
H1790 H 0.64805 0.69237 0.90406 0.0
C1791 C 0.56125 0.65086 0.72352 0.0
C1792 C 0.58994 0.65719 0.82761 0.0
H1793 H 0.58449 0.69445 0.90381 0.0
C1794 C 0.60896 0.64858 0.84122 0.0
C1795 C 0.58082 0.67371 0.8508 0.0
C1796 C 0.55988 0.68288 0.83904 0.0
C1797 C 0.61922 0.6562 0.87735 0.0
C1798 C 0.61031 0.67301 0.89987 0.0
C1799 C 0.59127 0.68155 0.88634 0.0
C1800 C 0.62039 0.68232 0.93746 0.0
C1801 C 0.63922 0.64593 0.89164 0.0
C1802 C 0.60957 0.68312 0.97596 0.0
C1803 C 0.61736 0.69483 0.00965 0.0
C1804 C 0.63606 0.70608 0.00532 0.0
C1805 C 0.64748 0.70424 0.96751 0.0
C1806 C 0.63963 0.69253 0.93375 0.0
H1807 H 0.64104 0.6301 0.8778 0.0
H1808 H 0.65265 0.65553 0.88125 0.0
H1809 H 0.63982 0.64467 0.92669 0.0
H1810 H 0.59467 0.67533 0.97935 0.0
H1811 H 0.60822 0.69578 0.0384 0.0
H1812 H 0.54653 0.33806 0.27621 0.0
H1813 H 0.56836 0.32501 0.21899 0.0
H1814 H 0.58783 0.38779 0.19014 0.0
H1815 H 0.56556 0.4011 0.24682 0.0
H1816 H 0.57257 0.36807 0.12154 0.0
H1817 H 0.6301 0.3169 0.201 0.0
H1818 H 0.60384 0.31071 0.21588 0.0
H1819 H 0.61462 0.33574 0.22961 0.0
C1820 C 0.55589 0.34908 0.25853 0.0
C1821 C 0.55424 0.37065 0.26595 0.0
C1822 C 0.56844 0.34156 0.22585 0.0
C1823 C 0.57986 0.35541 0.20051 0.0
C1824 C 0.57915 0.37684 0.20937 0.0
H1825 H 0.65851 0.30215 0.00264 0.0
H1826 H 0.64662 0.32436 0.06082 0.0
C1827 C 0.56645 0.38441 0.24181 0.0
C1828 C 0.59054 0.34776 0.162 0.0
H1829 H 0.62466 0.3109 0.12658 0.0
C1830 C 0.58423 0.35581 0.12265 0.0
C1831 C 0.60587 0.33191 0.16349 0.0
C1832 C 0.61416 0.32347 0.20483 0.0
C1833 C 0.59222 0.34785 0.08464 0.0
C1834 C 0.60658 0.33111 0.08605 0.0
C1835 C 0.61353 0.32365 0.12547 0.0
C1836 C 0.61376 0.32025 0.04732 0.0
C1837 C 0.58506 0.35741 0.04343 0.0
C1838 C 0.59923 0.31096 0.01986 0.0
C1839 C 0.60597 0.29856 0.98624 0.0
C1840 C 0.62738 0.29483 0.98004 0.0
C1841 C 0.64192 0.30471 0.00668 0.0
C1842 C 0.63516 0.31736 0.03996 0.0
H1843 H 0.5802 0.3739 0.04785 0.0
H1844 H 0.59752 0.35681 0.01909 0.0
H1845 H 0.57133 0.34867 0.03143 0.0
H1846 H 0.58264 0.31248 0.02554 0.0
H1847 H 0.59435 0.29095 0.96665 0.0
H1848 H 0.97989 0.3836 0.30908 0.0
H1849 H 0.95769 0.36977 0.36535 0.0
H1850 H 0.91495 0.34573 0.27149 0.0
H1851 H 0.93766 0.35863 0.21514 0.0
H1852 H 0.91844 0.37696 0.38801 0.0
H1853 H 0.92665 0.29432 0.339 0.0
H1854 H 0.94209 0.31486 0.31612 0.0
H1855 H 0.91586 0.31031 0.29784 0.0
C1856 C 0.96568 0.37547 0.30055 0.0
C1857 C 0.96046 0.37208 0.25792 0.0
C1858 C 0.95305 0.36757 0.33264 0.0
C1859 C 0.93488 0.3564 0.32255 0.0
C1860 C 0.92921 0.35378 0.27994 0.0
H1861 H 0.84526 0.29122 0.47964 0.0
H1862 H 0.85983 0.31359 0.42441 0.0
C1863 C 0.94207 0.36128 0.24784 0.0
C1864 C 0.92206 0.3473 0.3567 0.0
H1865 H 0.90197 0.30145 0.39292 0.0
C1866 C 0.91481 0.36046 0.38907 0.0
C1867 C 0.91753 0.32571 0.35818 0.0
C1868 C 0.92612 0.31045 0.32618 0.0
C1869 C 0.90305 0.35259 0.42285 0.0
C1870 C 0.89834 0.33112 0.42386 0.0
C1871 C 0.90537 0.318 0.3914 0.0
C1872 C 0.88762 0.32141 0.45994 0.0
C1873 C 0.89587 0.36714 0.45738 0.0
C1874 C 0.89826 0.31898 0.49837 0.0
C1875 C 0.89009 0.30617 0.52983 0.0
C1876 C 0.87117 0.29552 0.52319 0.0
C1877 C 0.85986 0.29917 0.48571 0.0
C1878 C 0.86814 0.31192 0.45414 0.0
H1879 H 0.89713 0.38376 0.44779 0.0
H1880 H 0.87945 0.36377 0.46621 0.0
H1881 H 0.90571 0.36473 0.48593 0.0
H1882 H 0.91348 0.32598 0.50305 0.0
H1883 H 0.89918 0.30376 0.55838 0.0
H1884 H 0.95683 0.59486 0.71126 0.0
H1885 H 0.93232 0.60876 0.65884 0.0
H1886 H 0.9059 0.64934 0.75353 0.0
H1887 H 0.93052 0.63586 0.80594 0.0
H1888 H 0.88803 0.61431 0.65173 0.0
H1889 H 0.93122 0.68919 0.66523 0.0
H1890 H 0.94084 0.66519 0.68775 0.0
H1891 H 0.92068 0.67968 0.71418 0.0
C1892 C 0.94549 0.60639 0.7212 0.0
C1893 C 0.94587 0.61454 0.76255 0.0
C1894 C 0.9315 0.61431 0.6912 0.0
C1895 C 0.91766 0.63038 0.70219 0.0
C1896 C 0.91677 0.63722 0.7443 0.0
H1897 H 0.84722 0.71626 0.544 0.0
H1898 H 0.85674 0.69376 0.60354 0.0
C1899 C 0.93083 0.62946 0.7742 0.0
C1900 C 0.90585 0.6415 0.66886 0.0
H1901 H 0.90225 0.68866 0.61936 0.0
C1902 C 0.89101 0.63059 0.64474 0.0
C1903 C 0.90999 0.66269 0.65961 0.0
C1904 C 0.92667 0.67488 0.68272 0.0
C1905 C 0.88014 0.64041 0.61157 0.0
C1906 C 0.88432 0.66155 0.60251 0.0
C1907 C 0.89893 0.6725 0.62693 0.0
C1908 C 0.87506 0.67241 0.5658 0.0
C1909 C 0.86435 0.62822 0.58629 0.0
C1910 C 0.88189 0.66753 0.52487 0.0
C1911 C 0.87669 0.68044 0.49086 0.0
C1912 C 0.86452 0.69844 0.49729 0.0
C1913 C 0.85656 0.70249 0.53794 0.0
C1914 C 0.86197 0.68967 0.57201 0.0
H1915 H 0.85999 0.61342 0.60222 0.0
H1916 H 0.85004 0.63768 0.581 0.0
H1917 H 0.87102 0.6244 0.55483 0.0
H1918 H 0.89227 0.65443 0.51963 0.0
H1919 H 0.88301 0.67684 0.45993 0.0
H1920 H 0.45006 0.3432 0.27956 0.0
H1921 H 0.4332 0.32872 0.21643 0.0
H1922 H 0.43981 0.3878 0.1528 0.0
H1923 H 0.45697 0.40233 0.21504 0.0
H1924 H 0.39742 0.34336 0.16365 0.0
H1925 H 0.47439 0.34288 0.08302 0.0
H1926 H 0.47166 0.34476 0.13978 0.0
H1927 H 0.46724 0.36727 0.10717 0.0
C1928 C 0.44767 0.3532 0.25235 0.0
C1929 C 0.45536 0.37374 0.25189 0.0
C1930 C 0.43799 0.34492 0.21645 0.0
C1931 C 0.43579 0.35714 0.17995 0.0
C1932 C 0.44177 0.37811 0.18063 0.0
H1933 H 0.36658 0.32839 0.95195 0.0
H1934 H 0.38236 0.34617 0.0126 0.0
C1935 C 0.45146 0.38638 0.21635 0.0
C1936 C 0.42856 0.34771 0.14011 0.0
H1937 H 0.44483 0.33519 0.04059 0.0
C1938 C 0.4077 0.34153 0.13667 0.0
C1939 C 0.44229 0.34495 0.1056 0.0
C1940 C 0.46521 0.35012 0.10897 0.0
C1941 C 0.39999 0.33305 0.09888 0.0
C1942 C 0.41344 0.33133 0.06351 0.0
C1943 C 0.43447 0.337 0.06746 0.0
C1944 C 0.40615 0.32269 0.02278 0.0
C1945 C 0.37766 0.3256 0.09757 0.0
C1946 C 0.41538 0.30455 0.0066 0.0
C1947 C 0.40669 0.29463 0.9715 0.0
C1948 C 0.38856 0.30263 0.95228 0.0
C1949 C 0.3804 0.32173 0.96645 0.0
C1950 C 0.38926 0.33179 0.00129 0.0
H1951 H 0.37142 0.32278 0.12986 0.0
H1952 H 0.36778 0.33769 0.08234 0.0
H1953 H 0.37622 0.31097 0.07897 0.0
H1954 H 0.42859 0.29742 0.0225 0.0
H1955 H 0.41331 0.27991 0.96144 0.0
H1956 H 0.41959 0.70287 0.03484 0.0
H1957 H 0.43361 0.68366 0.9741 0.0
H1958 H 0.37127 0.67617 0.92445 0.0
H1959 H 0.35721 0.69468 0.9851 0.0
H1960 H 0.39284 0.64297 0.90852 0.0
H1961 H 0.43826 0.7124 0.8611 0.0
H1962 H 0.44646 0.70236 0.91135 0.0
H1963 H 0.4205 0.7127 0.90514 0.0
C1964 C 0.40886 0.69671 0.01147 0.0
C1965 C 0.38734 0.70076 0.01423 0.0
C1966 C 0.4169 0.68593 0.97654 0.0
C1967 C 0.40353 0.67916 0.94397 0.0
C1968 C 0.38193 0.68153 0.9488 0.0
H1969 H 0.45126 0.65686 0.68798 0.0
H1970 H 0.43193 0.67171 0.74794 0.0
C1971 C 0.37391 0.69215 0.98359 0.0
C1972 C 0.41178 0.67058 0.90375 0.0
H1973 H 0.44426 0.68137 0.82118 0.0
C1974 C 0.40404 0.65139 0.88934 0.0
C1975 C 0.42574 0.68195 0.87789 0.0
C1976 C 0.43302 0.7036 0.88939 0.0
C1977 C 0.41016 0.64305 0.85028 0.0
C1978 C 0.42537 0.65364 0.82588 0.0
C1979 C 0.43276 0.67309 0.83987 0.0
C1980 C 0.43487 0.64421 0.78748 0.0
C1981 C 0.39977 0.62322 0.83541 0.0
C1982 C 0.44277 0.62385 0.78943 0.0
C1983 C 0.45294 0.61514 0.75489 0.0
C1984 C 0.45641 0.62688 0.71796 0.0
C1985 C 0.44854 0.64732 0.71573 0.0
C1986 C 0.43768 0.65585 0.75012 0.0
H1987 H 0.3835 0.62224 0.8473 0.0
H1988 H 0.39939 0.6221 0.80035 0.0
H1989 H 0.40836 0.6096 0.84835 0.0
H1990 H 0.44179 0.61483 0.81831 0.0
H1991 H 0.45922 0.59954 0.75834 0.0
H1992 H 0.13841 0.68302 0.48288 0.0
H1993 H 0.12306 0.66221 0.5394 0.0
H1994 H 0.06351 0.69185 0.51777 0.0
H1995 H 0.07867 0.71254 0.46068 0.0
H1996 H 0.10772 0.68617 0.60754 0.0
H1997 H 0.04802 0.63092 0.54699 0.0
H1998 H 0.06881 0.64098 0.51428 0.0
H1999 H 0.04633 0.6568 0.52541 0.0
C2000 C 0.12187 0.68461 0.48921 0.0
C2001 C 0.10981 0.69973 0.46816 0.0
C2002 C 0.11315 0.67268 0.5214 0.0
C2003 C 0.09226 0.67566 0.53281 0.0
C2004 C 0.07964 0.6892 0.50903 0.0
H2005 H 0.01455 0.65319 0.74649 0.0
H2006 H 0.03171 0.66703 0.68356 0.0
C2007 C 0.08834 0.70108 0.47654 0.0
C2008 C 0.08489 0.66783 0.57392 0.0
H2009 H 0.04714 0.63865 0.62089 0.0
C2010 C 0.09465 0.67554 0.61057 0.0
C2011 C 0.06775 0.65418 0.57744 0.0
C2012 C 0.05719 0.64507 0.53896 0.0
C2013 C 0.0873 0.67042 0.65091 0.0
C2014 C 0.06996 0.65704 0.65443 0.0
C2015 C 0.06042 0.649 0.61783 0.0
C2016 C 0.06107 0.65145 0.69578 0.0
C2017 C 0.09759 0.6799 0.68937 0.0
C2018 C 0.07221 0.63867 0.72393 0.0
C2019 C 0.06253 0.63108 0.76036 0.0
C2020 C 0.04173 0.6364 0.76902 0.0
C2021 C 0.03092 0.64975 0.74151 0.0
C2022 C 0.04056 0.65733 0.70522 0.0
H2023 H 0.10822 0.69291 0.68085 0.0
H2024 H 0.08565 0.68583 0.71181 0.0
H2025 H 0.10687 0.66777 0.70596 0.0
H2026 H 0.08797 0.63372 0.71664 0.0
H2027 H 0.07091 0.62032 0.78067 0.0
H2028 H 0.04618 0.33328 0.20314 0.0
H2029 H 0.06246 0.31736 0.26535 0.0
H2030 H 0.08548 0.3775 0.30443 0.0
H2031 H 0.06914 0.39362 0.24273 0.0
H2032 H 0.11275 0.33805 0.31891 0.0
H2033 H 0.03115 0.33507 0.37994 0.0
H2034 H 0.03628 0.32733 0.32614 0.0
H2035 H 0.03905 0.35411 0.341 0.0
C2036 C 0.0552 0.34303 0.22429 0.0
C2037 C 0.05577 0.36479 0.21878 0.0
C2038 C 0.06445 0.33391 0.25978 0.0
C2039 C 0.0746 0.34643 0.28976 0.0
C2040 C 0.07743 0.36771 0.28171 0.0
H2041 H 0.13019 0.32606 0.53696 0.0
H2042 H 0.11653 0.34244 0.47255 0.0
C2043 C 0.06812 0.37686 0.24633 0.0
C2044 C 0.07985 0.33804 0.33182 0.0
H2045 H 0.05786 0.32443 0.42608 0.0
C2046 C 0.10083 0.33499 0.34242 0.0
C2047 C 0.06412 0.33414 0.36207 0.0
C2048 C 0.04135 0.33784 0.35211 0.0
C2049 C 0.10658 0.32783 0.38274 0.0
C2050 C 0.09089 0.32439 0.41356 0.0
C2051 C 0.06985 0.32731 0.40262 0.0
C2052 C 0.09599 0.3168 0.45662 0.0
C2053 C 0.12936 0.32351 0.39139 0.0
C2054 C 0.08749 0.29795 0.47099 0.0
C2055 C 0.09479 0.28892 0.50836 0.0
C2056 C 0.11084 0.29848 0.53172 0.0
C2057 C 0.11796 0.31826 0.51931 0.0
C2058 C 0.11037 0.32748 0.48229 0.0
H2059 H 0.13828 0.32127 0.36161 0.0
H2060 H 0.13627 0.33701 0.40834 0.0
H2061 H 0.13137 0.3094 0.41135 0.0
H2062 H 0.07617 0.28956 0.45198 0.0
H2063 H 0.08913 0.27362 0.51686 0.0
loop_
_geom_bond_atom_site_label_1
_geom_bond_atom_site_label_2
_geom_bond_distance
_geom_bond_site_symmetry_2
_ccdc_geom_bond_type
O0 Mg1 1.990 . S
O0 C14 1.253 . S
Mg1 O0 1.990 . S
Mg1 O4 2.180 1_455 S
Mg1 O5 2.117 . S
Mg1 O19 2.030 1_455 S
O2 Mg3 2.093 . S
O2 C14 1.260 . S
Mg3 O2 2.093 . S
Mg3 O4 2.098 1_455 S
Mg3 O6 2.058 1_455 S
Mg3 O7 2.093 . S
Mg3 O9 2.098 1_455 S
Mg3 O20 2.058 1_455 S
O4 Mg1 2.180 1_655 S
O4 Mg3 2.098 1_655 S
O4 C15 1.279 1_655 S
O5 Mg1 2.117 . S
O5 C15 1.250 . S
O6 Mg3 2.058 1_655 S
O6 C16 1.264 . S
O7 Mg3 2.093 . S
O7 C17 1.260 . S
Mg8 O9 2.181 1_455 S
Mg8 O10 2.030 1_455 S
Mg8 O11 1.990 . S
Mg8 O12 2.117 . S
O9 Mg3 2.098 1_655 S
O9 Mg8 2.181 1_655 S
O9 C18 1.281 1_655 S
O10 Mg8 2.030 1_655 S
O10 C16 1.248 . S
O11 Mg8 1.990 . S
O11 C17 1.253 . S
O12 Mg8 2.117 . S
O12 C18 1.250 . S
C13 O19 1.248 . S
C13 O20 1.264 . S
C14 O0 1.253 . S
C14 O2 1.260 . S
C15 O4 1.279 1_455 S
C15 O5 1.250 . S
C16 O6 1.264 . S
C16 O10 1.248 . S
C17 O7 1.260 . S
C17 O11 1.253 . S
C18 O9 1.281 1_455 S
C18 O12 1.250 . S
O19 Mg1 2.030 1_655 S
O19 C13 1.248 . S
O20 Mg3 2.058 1_655 S
O20 C13 1.264 . S
O21 Mg22 1.990 . S
O21 C35 1.253 . S
Mg22 O21 1.990 . S
Mg22 O25 2.180 . S
Mg22 O26 2.117 . S
Mg22 O40 2.030 . S
O23 Mg24 2.072 . S
O23 C35 1.260 . S
Mg24 O23 2.072 . S
Mg24 O25 2.099 . S
Mg24 O27 2.079 . S
Mg24 O28 2.072 . S
Mg24 O30 2.099 . S
Mg24 O41 2.079 . S
O25 Mg22 2.180 . S
O25 Mg24 2.099 . S
O25 C36 1.279 . S
O26 Mg22 2.117 . S
O26 C36 1.250 . S
O27 Mg24 2.079 . S
O27 C37 1.264 . S
O28 Mg24 2.072 . S
O28 C38 1.260 . S
Mg29 O30 2.180 . S
Mg29 O31 2.030 . S
Mg29 O32 1.990 . S
Mg29 O33 2.117 . S
O30 Mg24 2.099 . S
O30 Mg29 2.180 . S
O30 C39 1.279 . S
O31 Mg29 2.030 . S
O31 C37 1.248 . S
O32 Mg29 1.990 . S
O32 C38 1.253 . S
O33 Mg29 2.117 . S
O33 C39 1.250 . S
C34 O40 1.248 . S
C34 O41 1.264 . S
C35 O21 1.253 . S
C35 O23 1.260 . S
C36 O25 1.279 . S
C36 O26 1.250 . S
C37 O27 1.264 . S
C37 O31 1.248 . S
C38 O28 1.260 . S
C38 O32 1.253 . S
C39 O30 1.279 . S
C39 O33 1.250 . S
O40 Mg22 2.030 . S
O40 C34 1.248 . S
O41 Mg24 2.079 . S
O41 C34 1.264 . S
O42 Mg43 1.990 . S
O42 C56 1.253 . S
Mg43 O42 1.990 . S
Mg43 O46 2.180 . S
Mg43 O47 2.117 . S
Mg43 O61 2.030 . S
O44 Mg45 2.072 . S
O44 C56 1.260 . S
Mg45 O44 2.072 . S
Mg45 O46 2.099 . S
Mg45 O48 2.079 . S
Mg45 O49 2.072 . S
Mg45 O51 2.099 . S
Mg45 O62 2.079 . S
O46 Mg43 2.180 . S
O46 Mg45 2.099 . S
O46 C57 1.279 . S
O47 Mg43 2.117 . S
O47 C57 1.250 . S
O48 Mg45 2.079 . S
O48 C58 1.264 . S
O49 Mg45 2.072 . S
O49 C59 1.260 . S
Mg50 O51 2.180 . S
Mg50 O52 2.030 . S
Mg50 O53 1.990 . S
Mg50 O54 2.117 . S
O51 Mg45 2.099 . S
O51 Mg50 2.180 . S
O51 C60 1.279 . S
O52 Mg50 2.030 . S
O52 C58 1.248 . S
O53 Mg50 1.990 . S
O53 C59 1.253 . S
O54 Mg50 2.117 . S
O54 C60 1.250 . S
C55 O61 1.248 . S
C55 O62 1.264 . S
C56 O42 1.253 . S
C56 O44 1.260 . S
C57 O46 1.279 . S
C57 O47 1.250 . S
C58 O48 1.264 . S
C58 O52 1.248 . S
C59 O49 1.260 . S
C59 O53 1.253 . S
C60 O51 1.279 . S
C60 O54 1.250 . S
O61 Mg43 2.030 . S
O61 C55 1.248 . S
O62 Mg45 2.079 . S
O62 C55 1.264 . S
O63 Mg64 1.990 . S
O63 C77 1.253 . S
Mg64 O63 1.990 . S
Mg64 O67 2.180 . S
Mg64 O68 2.117 . S
Mg64 O82 2.030 . S
O65 Mg66 2.072 . S
O65 C77 1.260 . S
Mg66 O65 2.072 . S
Mg66 O67 2.099 . S
Mg66 O69 2.079 . S
Mg66 O70 2.072 . S
Mg66 O72 2.099 . S
Mg66 O83 2.079 . S
O67 Mg64 2.180 . S
O67 Mg66 2.099 . S
O67 C78 1.279 . S
O68 Mg64 2.117 . S
O68 C78 1.250 . S
O69 Mg66 2.079 . S
O69 C79 1.264 . S
O70 Mg66 2.072 . S
O70 C80 1.260 . S
Mg71 O72 2.180 . S
Mg71 O73 2.030 . S
Mg71 O74 1.990 . S
Mg71 O75 2.117 . S
O72 Mg66 2.099 . S
O72 Mg71 2.180 . S
O72 C81 1.279 . S
O73 Mg71 2.030 . S
O73 C79 1.248 . S
O74 Mg71 1.990 . S
O74 C80 1.253 . S
O75 Mg71 2.117 . S
O75 C81 1.250 . S
C76 O82 1.248 . S
C76 O83 1.264 . S
C77 O63 1.253 . S
C77 O65 1.260 . S
C78 O67 1.279 . S
C78 O68 1.250 . S
C79 O69 1.264 . S
C79 O73 1.248 . S
C80 O70 1.260 . S
C80 O74 1.253 . S
C81 O72 1.279 . S
C81 O75 1.250 . S
O82 Mg64 2.030 . S
O82 C76 1.248 . S
O83 Mg66 2.079 . S
O83 C76 1.264 . S
O84 Mg85 1.990 . S
O84 C98 1.253 . S
Mg85 O84 1.990 . S
Mg85 O88 2.180 1_455 S
Mg85 O89 2.117 . S
Mg85 O103 2.030 1_455 S
O86 Mg87 2.093 . S
O86 C98 1.260 . S
Mg87 O86 2.093 . S
Mg87 O88 2.098 1_455 S
Mg87 O90 2.058 1_455 S
Mg87 O91 2.093 . S
Mg87 O93 2.098 1_455 S
Mg87 O104 2.058 1_455 S
O88 Mg85 2.180 1_655 S
O88 Mg87 2.098 1_655 S
O88 C99 1.279 1_655 S
O89 Mg85 2.117 . S
O89 C99 1.250 . S
O90 Mg87 2.058 1_655 S
O90 C100 1.264 . S
O91 Mg87 2.093 . S
O91 C101 1.260 . S
Mg92 O93 2.181 1_455 S
Mg92 O94 2.030 1_455 S
Mg92 O95 1.990 . S
Mg92 O96 2.117 . S
O93 Mg87 2.098 1_655 S
O93 Mg92 2.181 1_655 S
O93 C102 1.281 1_655 S
O94 Mg92 2.030 1_655 S
O94 C100 1.248 . S
O95 Mg92 1.990 . S
O95 C101 1.253 . S
O96 Mg92 2.117 . S
O96 C102 1.250 . S
C97 O103 1.248 . S
C97 O104 1.264 . S
C98 O84 1.253 . S
C98 O86 1.260 . S
C99 O88 1.279 1_455 S
C99 O89 1.250 . S
C100 O90 1.264 . S
C100 O94 1.248 . S
C101 O91 1.260 . S
C101 O95 1.253 . S
C102 O93 1.281 1_455 S
C102 O96 1.250 . S
O103 Mg85 2.030 1_655 S
O103 C97 1.248 . S
O104 Mg87 2.058 1_655 S
O104 C97 1.264 . S
O105 Mg106 1.990 . S
O105 C119 1.253 . S
Mg106 O105 1.990 . S
Mg106 O109 2.180 . S
Mg106 O110 2.117 . S
Mg106 O124 2.030 . S
O107 Mg108 2.072 . S
O107 C119 1.260 . S
Mg108 O107 2.072 . S
Mg108 O109 2.099 . S
Mg108 O111 2.079 . S
Mg108 O112 2.072 . S
Mg108 O114 2.099 . S
Mg108 O125 2.079 . S
O109 Mg106 2.180 . S
O109 Mg108 2.099 . S
O109 C120 1.279 . S
O110 Mg106 2.117 . S
O110 C120 1.250 . S
O111 Mg108 2.079 . S
O111 C121 1.264 . S
O112 Mg108 2.072 . S
O112 C122 1.260 . S
Mg113 O114 2.180 . S
Mg113 O115 2.030 . S
Mg113 O116 1.990 . S
Mg113 O117 2.117 . S
O114 Mg108 2.099 . S
O114 Mg113 2.180 . S
O114 C123 1.279 . S
O115 Mg113 2.030 . S
O115 C121 1.248 . S
O116 Mg113 1.990 . S
O116 C122 1.253 . S
O117 Mg113 2.117 . S
O117 C123 1.250 . S
C118 O124 1.248 . S
C118 O125 1.264 . S
C119 O105 1.253 . S
C119 O107 1.260 . S
C120 O109 1.279 . S
C120 O110 1.250 . S
C121 O111 1.264 . S
C121 O115 1.248 . S
C122 O112 1.260 . S
C122 O116 1.253 . S
C123 O114 1.279 . S
C123 O117 1.250 . S
O124 Mg106 2.030 . S
O124 C118 1.248 . S
O125 Mg108 2.079 . S
O125 C118 1.264 . S
O126 Mg127 1.990 . S
O126 C140 1.253 . S
Mg127 O126 1.990 . S
Mg127 O130 2.180 . S
Mg127 O131 2.117 . S
Mg127 O145 2.030 . S
O128 Mg129 2.072 . S
O128 C140 1.260 . S
Mg129 O128 2.072 . S
Mg129 O130 2.099 . S
Mg129 O132 2.079 . S
Mg129 O133 2.072 . S
Mg129 O135 2.099 . S
Mg129 O146 2.079 . S
O130 Mg127 2.180 . S
O130 Mg129 2.099 . S
O130 C141 1.279 . S
O131 Mg127 2.117 . S
O131 C141 1.250 . S
O132 Mg129 2.079 . S
O132 C142 1.264 . S
O133 Mg129 2.072 . S
O133 C143 1.260 . S
Mg134 O135 2.180 . S
Mg134 O136 2.030 . S
Mg134 O137 1.990 . S
Mg134 O138 2.117 . S
O135 Mg129 2.099 . S
O135 Mg134 2.180 . S
O135 C144 1.279 . S
O136 Mg134 2.030 . S
O136 C142 1.248 . S
O137 Mg134 1.990 . S
O137 C143 1.253 . S
O138 Mg134 2.117 . S
O138 C144 1.250 . S
C139 O145 1.248 . S
C139 O146 1.264 . S
C140 O126 1.253 . S
C140 O128 1.260 . S
C141 O130 1.279 . S
C141 O131 1.250 . S
C142 O132 1.264 . S
C142 O136 1.248 . S
C143 O133 1.260 . S
C143 O137 1.253 . S
C144 O135 1.279 . S
C144 O138 1.250 . S
O145 Mg127 2.030 . S
O145 C139 1.248 . S
O146 Mg129 2.079 . S
O146 C139 1.264 . S
O147 Mg148 1.990 . S
O147 C161 1.253 . S
Mg148 O147 1.990 . S
Mg148 O151 2.180 . S
Mg148 O152 2.117 . S
Mg148 O166 2.030 . S
O149 Mg150 2.072 . S
O149 C161 1.260 . S
Mg150 O149 2.072 . S
Mg150 O151 2.099 . S
Mg150 O153 2.079 . S
Mg150 O154 2.072 . S
Mg150 O156 2.099 . S
Mg150 O167 2.079 . S
O151 Mg148 2.180 . S
O151 Mg150 2.099 . S
O151 C162 1.279 . S
O152 Mg148 2.117 . S
O152 C162 1.250 . S
O153 Mg150 2.079 . S
O153 C163 1.264 . S
O154 Mg150 2.072 . S
O154 C164 1.260 . S
Mg155 O156 2.180 . S
Mg155 O157 2.030 . S
Mg155 O158 1.990 . S
Mg155 O159 2.117 . S
O156 Mg150 2.099 . S
O156 Mg155 2.180 . S
O156 C165 1.279 . S
O157 Mg155 2.030 . S
O157 C163 1.248 . S
O158 Mg155 1.990 . S
O158 C164 1.253 . S
O159 Mg155 2.117 . S
O159 C165 1.250 . S
C160 O166 1.248 . S
C160 O167 1.264 . S
C161 O147 1.253 . S
C161 O149 1.260 . S
C162 O151 1.279 . S
C162 O152 1.250 . S
C163 O153 1.264 . S
C163 O157 1.248 . S
C164 O154 1.260 . S
C164 O158 1.253 . S
C165 O156 1.279 . S
C165 O159 1.250 . S
O166 Mg148 2.030 . S
O166 C160 1.248 . S
O167 Mg150 2.079 . S
O167 C160 1.264 . S
O168 Mg169 1.990 . S
O168 C182 1.253 . S
Mg169 O168 1.990 . S
Mg169 O172 2.180 . S
Mg169 O173 2.117 . S
Mg169 O187 2.030 . S
O170 Mg171 2.072 . S
O170 C182 1.260 . S
Mg171 O170 2.072 . S
Mg171 O172 2.099 . S
Mg171 O174 2.079 . S
Mg171 O175 2.072 . S
Mg171 O177 2.099 . S
Mg171 O188 2.079 . S
O172 Mg169 2.180 . S
O172 Mg171 2.099 . S
O172 C183 1.279 . S
O173 Mg169 2.117 . S
O173 C183 1.250 . S
O174 Mg171 2.079 . S
O174 C184 1.264 . S
O175 Mg171 2.072 . S
O175 C185 1.260 . S
Mg176 O177 2.180 . S
Mg176 O178 2.030 . S
Mg176 O179 1.990 . S
Mg176 O180 2.117 . S
O177 Mg171 2.099 . S
O177 Mg176 2.180 . S
O177 C186 1.279 . S
O178 Mg176 2.030 . S
O178 C184 1.248 . S
O179 Mg176 1.990 . S
O179 C185 1.253 . S
O180 Mg176 2.117 . S
O180 C186 1.250 . S
C181 O187 1.248 . S
C181 O188 1.264 . S
C182 O168 1.253 . S
C182 O170 1.260 . S
C183 O172 1.279 . S
C183 O173 1.250 . S
C184 O174 1.264 . S
C184 O178 1.248 . S
C185 O175 1.260 . S
C185 O179 1.253 . S
C186 O177 1.279 . S
C186 O180 1.250 . S
O187 Mg169 2.030 . S
O187 C181 1.248 . S
O188 Mg171 2.079 . S
O188 C181 1.264 . S
O189 Mg190 1.990 . S
O189 C203 1.253 . S
Mg190 O189 1.990 . S
Mg190 O193 2.180 . S
Mg190 O194 2.117 . S
Mg190 O208 2.030 . S
O191 Mg192 2.072 . S
O191 C203 1.260 . S
Mg192 O191 2.072 . S
Mg192 O193 2.099 . S
Mg192 O195 2.079 . S
Mg192 O196 2.072 . S
Mg192 O198 2.099 . S
Mg192 O209 2.079 . S
O193 Mg190 2.180 . S
O193 Mg192 2.099 . S
O193 C204 1.279 . S
O194 Mg190 2.117 . S
O194 C204 1.250 . S
O195 Mg192 2.079 . S
O195 C205 1.264 . S
O196 Mg192 2.072 . S
O196 C206 1.260 . S
Mg197 O198 2.180 . S
Mg197 O199 2.030 . S
Mg197 O200 1.990 . S
Mg197 O201 2.117 . S
O198 Mg192 2.099 . S
O198 Mg197 2.180 . S
O198 C207 1.279 . S
O199 Mg197 2.030 . S
O199 C205 1.248 . S
O200 Mg197 1.990 . S
O200 C206 1.253 . S
O201 Mg197 2.117 . S
O201 C207 1.250 . S
C202 O208 1.248 . S
C202 O209 1.264 . S
C203 O189 1.253 . S
C203 O191 1.260 . S
C204 O193 1.279 . S
C204 O194 1.250 . S
C205 O195 1.264 . S
C205 O199 1.248 . S
C206 O196 1.260 . S
C206 O200 1.253 . S
C207 O198 1.279 . S
C207 O201 1.250 . S
O208 Mg190 2.030 . S
O208 C202 1.248 . S
O209 Mg192 2.079 . S
O209 C202 1.264 . S
O210 Mg211 1.990 . S
O210 C224 1.253 . S
Mg211 O210 1.990 . S
Mg211 O214 2.180 . S
Mg211 O215 2.117 . S
Mg211 O229 2.030 . S
O212 Mg213 2.072 . S
O212 C224 1.260 . S
Mg213 O212 2.072 . S
Mg213 O214 2.099 . S
Mg213 O216 2.079 . S
Mg213 O217 2.072 . S
Mg213 O219 2.099 . S
Mg213 O230 2.079 . S
O214 Mg211 2.180 . S
O214 Mg213 2.099 . S
O214 C225 1.279 . S
O215 Mg211 2.117 . S
O215 C225 1.250 . S
O216 Mg213 2.079 . S
O216 C226 1.264 . S
O217 Mg213 2.072 . S
O217 C227 1.260 . S
Mg218 O219 2.180 . S
Mg218 O220 2.030 . S
Mg218 O221 1.990 . S
Mg218 O222 2.117 . S
O219 Mg213 2.099 . S
O219 Mg218 2.180 . S
O219 C228 1.279 . S
O220 Mg218 2.030 . S
O220 C226 1.248 . S
O221 Mg218 1.990 . S
O221 C227 1.253 . S
O222 Mg218 2.117 . S
O222 C228 1.250 . S
C223 O229 1.248 . S
C223 O230 1.264 . S
C224 O210 1.253 . S
C224 O212 1.260 . S
C225 O214 1.279 . S
C225 O215 1.250 . S
C226 O216 1.264 . S
C226 O220 1.248 . S
C227 O217 1.260 . S
C227 O221 1.253 . S
C228 O219 1.279 . S
C228 O222 1.250 . S
O229 Mg211 2.030 . S
O229 C223 1.248 . S
O230 Mg213 2.079 . S
O230 C223 1.264 . S
O231 Mg232 1.990 . S
O231 C245 1.253 . S
Mg232 O231 1.990 . S
Mg232 O235 2.180 . S
Mg232 O236 2.117 . S
Mg232 O250 2.030 . S
O233 Mg234 2.072 . S
O233 C245 1.260 . S
Mg234 O233 2.072 . S
Mg234 O235 2.099 . S
Mg234 O237 2.079 . S
Mg234 O238 2.072 . S
Mg234 O240 2.099 . S
Mg234 O251 2.079 . S
O235 Mg232 2.180 . S
O235 Mg234 2.099 . S
O235 C246 1.279 . S
O236 Mg232 2.117 . S
O236 C246 1.250 . S
O237 Mg234 2.079 . S
O237 C247 1.264 . S
O238 Mg234 2.072 . S
O238 C248 1.260 . S
Mg239 O240 2.180 . S
Mg239 O241 2.030 . S
Mg239 O242 1.990 . S
Mg239 O243 2.117 . S
O240 Mg234 2.099 . S
O240 Mg239 2.180 . S
O240 C249 1.279 . S
O241 Mg239 2.030 . S
O241 C247 1.248 . S
O242 Mg239 1.990 . S
O242 C248 1.253 . S
O243 Mg239 2.117 . S
O243 C249 1.250 . S
C244 O250 1.248 . S
C244 O251 1.264 . S
C245 O231 1.253 . S
C245 O233 1.260 . S
C246 O235 1.279 . S
C246 O236 1.250 . S
C247 O237 1.264 . S
C247 O241 1.248 . S
C248 O238 1.260 . S
C248 O242 1.253 . S
C249 O240 1.279 . S
C249 O243 1.250 . S
O250 Mg232 2.030 . S
O250 C244 1.248 . S
O251 Mg234 2.079 . S
O251 C244 1.264 . S
O252 Mg253 1.990 . S
O252 C266 1.253 . S
Mg253 O252 1.990 . S
Mg253 O256 2.180 . S
Mg253 O257 2.117 . S
Mg253 O271 2.030 . S
O254 Mg255 2.072 . S
O254 C266 1.260 . S
Mg255 O254 2.072 . S
Mg255 O256 2.099 . S
Mg255 O258 2.079 . S
Mg255 O259 2.072 . S
Mg255 O261 2.099 . S
Mg255 O272 2.079 . S
O256 Mg253 2.180 . S
O256 Mg255 2.099 . S
O256 C267 1.279 . S
O257 Mg253 2.117 . S
O257 C267 1.250 . S
O258 Mg255 2.079 . S
O258 C268 1.264 . S
O259 Mg255 2.072 . S
O259 C269 1.260 . S
Mg260 O261 2.180 . S
Mg260 O262 2.030 . S
Mg260 O263 1.990 . S
Mg260 O264 2.117 . S
O261 Mg255 2.099 . S
O261 Mg260 2.180 . S
O261 C270 1.279 . S
O262 Mg260 2.030 . S
O262 C268 1.248 . S
O263 Mg260 1.990 . S
O263 C269 1.253 . S
O264 Mg260 2.117 . S
O264 C270 1.250 . S
C265 O271 1.248 . S
C265 O272 1.264 . S
C266 O252 1.253 . S
C266 O254 1.260 . S
C267 O256 1.279 . S
C267 O257 1.250 . S
C268 O258 1.264 . S
C268 O262 1.248 . S
C269 O259 1.260 . S
C269 O263 1.253 . S
C270 O261 1.279 . S
C270 O264 1.250 . S
O271 Mg253 2.030 . S
O271 C265 1.248 . S
O272 Mg255 2.079 . S
O272 C265 1.264 . S
O273 Mg274 1.990 1_655 S
O273 C287 1.253 . S
Mg274 O273 1.990 1_455 S
Mg274 O277 2.180 . S
Mg274 O278 2.117 1_455 S
Mg274 O292 2.030 . S
O275 Mg276 2.072 1_655 S
O275 C287 1.260 . S
Mg276 O275 2.072 1_455 S
Mg276 O277 2.099 . S
Mg276 O279 2.079 . S
Mg276 O280 2.072 1_455 S
Mg276 O282 2.099 . S
Mg276 O293 2.079 . S
O277 Mg274 2.180 . S
O277 Mg276 2.099 . S
O277 C288 1.279 1_455 S
O278 Mg274 2.117 1_655 S
O278 C288 1.250 . S
O279 Mg276 2.079 . S
O279 C289 1.264 . S
O280 Mg276 2.072 1_655 S
O280 C290 1.260 . S
Mg281 O282 2.180 . S
Mg281 O283 2.030 . S
Mg281 O284 1.990 1_455 S
Mg281 O285 2.117 1_455 S
O282 Mg276 2.099 . S
O282 Mg281 2.180 . S
O282 C291 1.279 1_455 S
O283 Mg281 2.030 . S
O283 C289 1.248 . S
O284 Mg281 1.990 1_655 S
O284 C290 1.253 . S
O285 Mg281 2.117 1_655 S
O285 C291 1.250 . S
C286 O292 1.248 . S
C286 O293 1.264 . S
C287 O273 1.253 . S
C287 O275 1.260 . S
C288 O277 1.279 1_655 S
C288 O278 1.250 . S
C289 O279 1.264 . S
C289 O283 1.248 . S
C290 O280 1.260 . S
C290 O284 1.253 . S
C291 O282 1.279 1_655 S
C291 O285 1.250 . S
O292 Mg274 2.030 . S
O292 C286 1.248 . S
O293 Mg276 2.079 . S
O293 C286 1.264 . S
O294 Mg295 1.990 . S
O294 C308 1.253 . S
Mg295 O294 1.990 . S
Mg295 O298 2.180 . S
Mg295 O299 2.117 . S
Mg295 O313 2.030 . S
O296 Mg297 2.072 . S
O296 C308 1.260 . S
Mg297 O296 2.072 . S
Mg297 O298 2.099 . S
Mg297 O300 2.079 . S
Mg297 O301 2.072 . S
Mg297 O303 2.099 . S
Mg297 O314 2.079 . S
O298 Mg295 2.180 . S
O298 Mg297 2.099 . S
O298 C309 1.279 . S
O299 Mg295 2.117 . S
O299 C309 1.250 . S
O300 Mg297 2.079 . S
O300 C310 1.264 . S
O301 Mg297 2.072 . S
O301 C311 1.260 . S
Mg302 O303 2.180 . S
Mg302 O304 2.030 . S
Mg302 O305 1.990 . S
Mg302 O306 2.117 . S
O303 Mg297 2.099 . S
O303 Mg302 2.180 . S
O303 C312 1.279 . S
O304 Mg302 2.030 . S
O304 C310 1.248 . S
O305 Mg302 1.990 . S
O305 C311 1.253 . S
O306 Mg302 2.117 . S
O306 C312 1.250 . S
C307 O313 1.248 . S
C307 O314 1.264 . S
C308 O294 1.253 . S
C308 O296 1.260 . S
C309 O298 1.279 . S
C309 O299 1.250 . S
C310 O300 1.264 . S
C310 O304 1.248 . S
C311 O301 1.260 . S
C311 O305 1.253 . S
C312 O303 1.279 . S
C312 O306 1.250 . S
O313 Mg295 2.030 . S
O313 C307 1.248 . S
O314 Mg297 2.079 . S
O314 C307 1.264 . S
O315 Mg316 1.990 1_655 S
O315 C329 1.253 . S
Mg316 O315 1.990 1_455 S
Mg316 O319 2.180 . S
Mg316 O320 2.117 1_455 S
Mg316 O334 2.030 . S
O317 Mg318 2.072 1_655 S
O317 C329 1.260 . S
Mg318 O317 2.072 1_455 S
Mg318 O319 2.099 . S
Mg318 O321 2.079 . S
Mg318 O322 2.072 1_455 S
Mg318 O324 2.099 . S
Mg318 O335 2.079 . S
O319 Mg316 2.180 . S
O319 Mg318 2.099 . S
O319 C330 1.279 1_455 S
O320 Mg316 2.117 1_655 S
O320 C330 1.250 . S
O321 Mg318 2.079 . S
O321 C331 1.264 . S
O322 Mg318 2.072 1_655 S
O322 C332 1.260 . S
Mg323 O324 2.180 . S
Mg323 O325 2.030 . S
Mg323 O326 1.990 1_455 S
Mg323 O327 2.117 1_455 S
O324 Mg318 2.099 . S
O324 Mg323 2.180 . S
O324 C333 1.279 1_455 S
O325 Mg323 2.030 . S
O325 C331 1.248 . S
O326 Mg323 1.990 1_655 S
O326 C332 1.253 . S
O327 Mg323 2.117 1_655 S
O327 C333 1.250 . S
C328 O334 1.248 . S
C328 O335 1.264 . S
C329 O315 1.253 . S
C329 O317 1.260 . S
C330 O319 1.279 1_655 S
C330 O320 1.250 . S
C331 O321 1.264 . S
C331 O325 1.248 . S
C332 O322 1.260 . S
C332 O326 1.253 . S
C333 O324 1.279 1_655 S
C333 O327 1.250 . S
O334 Mg316 2.030 . S
O334 C328 1.248 . S
O335 Mg318 2.079 . S
O335 C328 1.264 . S
H336 C344 0.929 . S
H337 C346 0.930 . S
H338 C348 0.930 . S
H339 C351 0.929 . S
H340 C354 0.930 . S
H341 C356 0.960 . S
H342 C356 0.960 . S
H343 C356 0.960 . S
C344 H336 0.929 . S
C344 C345 1.377 . S
C344 C346 1.384 1_554 S
C345 C344 1.377 . S
C345 C351 1.390 1_554 S
C346 H337 0.930 . S
C346 C344 1.384 1_556 S
C346 C347 1.372 . S
C347 C346 1.372 . S
C347 C348 1.400 . S
C347 C352 1.490 . S
C348 H338 0.930 . S
C348 C347 1.400 . S
C348 C351 1.386 . S
H349 C365 0.930 . S
H350 C366 0.931 . S
C351 H339 0.929 . S
C351 C345 1.390 1_556 S
C351 C348 1.386 . S
C352 C347 1.490 . S
C352 C354 1.395 . S
C352 C355 1.403 . S
H353 C359 0.930 . S
C354 H340 0.930 . S
C354 C352 1.395 . S
C354 C357 1.403 . S
C355 C352 1.403 . S
C355 C356 1.524 . S
C355 C359 1.400 . S
C356 H341 0.960 . S
C356 H342 0.960 . S
C356 H343 0.960 . S
C356 C355 1.524 . S
C357 C354 1.403 . S
C357 C358 1.392 . S
C357 C361 1.495 . S
C358 C357 1.392 . S
C358 C359 1.385 . S
C358 C360 1.478 . S
C359 H353 0.930 . S
C359 C355 1.400 . S
C359 C358 1.385 . S
C360 C358 1.478 . S
C360 C362 1.381 . S
C360 C366 1.383 . S
C361 C357 1.495 . S
C361 H367 0.959 . S
C361 H368 0.961 . S
C361 H369 0.960 . S
C362 C360 1.381 . S
C362 C363 1.394 . S
C362 H370 0.930 . S
C363 C362 1.394 . S
C363 C364 1.383 . S
C363 H371 0.929 . S
C364 C363 1.383 . S
C364 C365 1.377 . S
C365 H349 0.930 . S
C365 C364 1.377 . S
C365 C366 1.379 . S
C366 H350 0.931 . S
C366 C360 1.383 . S
C366 C365 1.379 . S
H367 C361 0.959 . S
H368 C361 0.961 . S
H369 C361 0.960 . S
H370 C362 0.930 . S
H371 C363 0.929 . S
H372 C380 0.929 . S
H373 C382 0.930 . S
H374 C384 0.930 . S
H375 C387 0.929 . S
H376 C390 0.930 . S
H377 C392 0.960 . S
H378 C392 0.960 . S
H379 C392 0.960 . S
C380 H372 0.929 . S
C380 C381 1.377 . S
C380 C382 1.384 . S
C381 C380 1.377 . S
C381 C387 1.390 . S
C382 H373 0.930 . S
C382 C380 1.384 . S
C382 C383 1.372 . S
C383 C382 1.372 . S
C383 C384 1.400 . S
C383 C388 1.490 . S
C384 H374 0.930 . S
C384 C383 1.400 . S
C384 C387 1.386 . S
H385 C401 0.930 . S
H386 C402 0.931 . S
C387 H375 0.929 . S
C387 C381 1.390 . S
C387 C384 1.386 . S
C388 C383 1.490 . S
C388 C390 1.395 . S
C388 C391 1.403 . S
H389 C395 0.930 . S
C390 H376 0.930 . S
C390 C388 1.395 . S
C390 C393 1.403 . S
C391 C388 1.403 . S
C391 C392 1.524 . S
C391 C395 1.400 . S
C392 H377 0.960 . S
C392 H378 0.960 . S
C392 H379 0.960 . S
C392 C391 1.524 . S
C393 C390 1.403 . S
C393 C394 1.392 . S
C393 C397 1.495 . S
C394 C393 1.392 . S
C394 C395 1.385 . S
C394 C396 1.478 . S
C395 H389 0.930 . S
C395 C391 1.400 . S
C395 C394 1.385 . S
C396 C394 1.478 . S
C396 C398 1.381 . S
C396 C402 1.383 . S
C397 C393 1.495 . S
C397 H403 0.959 . S
C397 H404 0.961 . S
C397 H405 0.960 . S
C398 C396 1.381 . S
C398 C399 1.394 . S
C398 H406 0.930 . S
C399 C398 1.394 . S
C399 C400 1.383 1_554 S
C399 H407 0.929 . S
C400 C399 1.383 1_556 S
C400 C401 1.377 . S
C401 H385 0.930 . S
C401 C400 1.377 . S
C401 C402 1.379 1_556 S
C402 H386 0.931 . S
C402 C396 1.383 . S
C402 C401 1.379 1_554 S
H403 C397 0.959 . S
H404 C397 0.961 . S
H405 C397 0.960 . S
H406 C398 0.930 . S
H407 C399 0.929 . S
H408 C416 0.929 . S
H409 C418 0.930 . S
H410 C420 0.930 . S
H411 C423 0.929 . S
H412 C426 0.930 . S
H413 C428 0.960 . S
H414 C428 0.960 . S
H415 C428 0.960 . S
C416 H408 0.929 . S
C416 C417 1.377 . S
C416 C418 1.384 . S
C417 C416 1.377 . S
C417 C423 1.390 . S
C418 H409 0.930 . S
C418 C416 1.384 . S
C418 C419 1.372 . S
C419 C418 1.372 . S
C419 C420 1.400 . S
C419 C424 1.490 . S
C420 H410 0.930 . S
C420 C419 1.400 . S
C420 C423 1.386 . S
H421 C437 0.930 . S
H422 C438 0.931 . S
C423 H411 0.929 . S
C423 C417 1.390 . S
C423 C420 1.386 . S
C424 C419 1.490 . S
C424 C426 1.395 . S
C424 C427 1.403 . S
H425 C431 0.930 . S
C426 H412 0.930 . S
C426 C424 1.395 . S
C426 C429 1.403 . S
C427 C424 1.403 . S
C427 C428 1.524 . S
C427 C431 1.400 . S
C428 H413 0.960 . S
C428 H414 0.960 . S
C428 H415 0.960 . S
C428 C427 1.524 . S
C429 C426 1.403 . S
C429 C430 1.392 . S
C429 C433 1.495 . S
C430 C429 1.392 . S
C430 C431 1.385 . S
C430 C432 1.478 . S
C431 H425 0.930 . S
C431 C427 1.400 . S
C431 C430 1.385 . S
C432 C430 1.478 . S
C432 C434 1.381 . S
C432 C438 1.383 . S
C433 C429 1.495 . S
C433 H439 0.959 . S
C433 H440 0.961 . S
C433 H441 0.960 . S
C434 C432 1.381 . S
C434 C435 1.394 . S
C434 H442 0.930 . S
C435 C434 1.394 . S
C435 C436 1.383 . S
C435 H443 0.929 . S
C436 C435 1.383 . S
C436 C437 1.377 . S
C437 H421 0.930 . S
C437 C436 1.377 . S
C437 C438 1.379 . S
C438 H422 0.931 . S
C438 C432 1.383 . S
C438 C437 1.379 . S
H439 C433 0.959 . S
H440 C433 0.961 . S
H441 C433 0.960 . S
H442 C434 0.930 . S
H443 C435 0.929 . S
H444 C452 0.929 . S
H445 C454 0.930 . S
H446 C456 0.930 . S
H447 C459 0.929 . S
H448 C462 0.930 . S
H449 C464 0.960 . S
H450 C464 0.960 . S
H451 C464 0.960 . S
C452 H444 0.929 . S
C452 C453 1.377 . S
C452 C454 1.384 . S
C453 C452 1.377 . S
C453 C459 1.390 . S
C454 H445 0.930 . S
C454 C452 1.384 . S
C454 C455 1.372 . S
C455 C454 1.372 . S
C455 C456 1.400 . S
C455 C460 1.490 . S
C456 H446 0.930 . S
C456 C455 1.400 . S
C456 C459 1.386 . S
H457 C473 0.930 . S
H458 C474 0.931 . S
C459 H447 0.929 . S
C459 C453 1.390 . S
C459 C456 1.386 . S
C460 C455 1.490 . S
C460 C462 1.395 . S
C460 C463 1.403 . S
H461 C467 0.930 . S
C462 H448 0.930 . S
C462 C460 1.395 . S
C462 C465 1.403 . S
C463 C460 1.403 . S
C463 C464 1.524 . S
C463 C467 1.400 . S
C464 H449 0.960 . S
C464 H450 0.960 . S
C464 H451 0.960 . S
C464 C463 1.524 . S
C465 C462 1.403 . S
C465 C466 1.392 . S
C465 C469 1.495 . S
C466 C465 1.392 . S
C466 C467 1.385 . S
C466 C468 1.478 . S
C467 H461 0.930 . S
C467 C463 1.400 . S
C467 C466 1.385 . S
C468 C466 1.478 . S
C468 C470 1.381 . S
C468 C474 1.383 . S
C469 C465 1.495 . S
C469 H475 0.959 . S
C469 H476 0.961 . S
C469 H477 0.960 . S
C470 C468 1.381 . S
C470 C471 1.394 . S
C470 H478 0.930 . S
C471 C470 1.394 . S
C471 C472 1.383 . S
C471 H479 0.929 . S
C472 C471 1.383 . S
C472 C473 1.377 . S
C473 H457 0.930 . S
C473 C472 1.377 . S
C473 C474 1.379 . S
C474 H458 0.931 . S
C474 C468 1.383 . S
C474 C473 1.379 . S
H475 C469 0.959 . S
H476 C469 0.961 . S
H477 C469 0.960 . S
H478 C470 0.930 . S
H479 C471 0.929 . S
H480 C488 0.929 . S
H481 C490 0.930 . S
H482 C492 0.930 . S
H483 C495 0.929 . S
H484 C498 0.930 . S
H485 C500 0.960 . S
H486 C500 0.960 . S
H487 C500 0.960 . S
C488 H480 0.929 . S
C488 C489 1.377 . S
C488 C490 1.384 . S
C489 C488 1.377 . S
C489 C495 1.390 . S
C490 H481 0.930 . S
C490 C488 1.384 . S
C490 C491 1.372 . S
C491 C490 1.372 . S
C491 C492 1.400 . S
C491 C496 1.490 . S
C492 H482 0.930 . S
C492 C491 1.400 . S
C492 C495 1.386 . S
H493 C509 0.930 . S
H494 C510 0.931 . S
C495 H483 0.929 . S
C495 C489 1.390 . S
C495 C492 1.386 . S
C496 C491 1.490 . S
C496 C498 1.395 . S
C496 C499 1.403 . S
H497 C503 0.930 . S
C498 H484 0.930 . S
C498 C496 1.395 . S
C498 C501 1.403 . S
C499 C496 1.403 . S
C499 C500 1.524 . S
C499 C503 1.400 . S
C500 H485 0.960 . S
C500 H486 0.960 . S
C500 H487 0.960 . S
C500 C499 1.524 . S
C501 C498 1.403 . S
C501 C502 1.392 . S
C501 C505 1.495 . S
C502 C501 1.392 . S
C502 C503 1.385 . S
C502 C504 1.478 . S
C503 H497 0.930 . S
C503 C499 1.400 . S
C503 C502 1.385 . S
C504 C502 1.478 . S
C504 C506 1.381 . S
C504 C510 1.383 . S
C505 C501 1.495 . S
C505 H511 0.959 . S
C505 H512 0.961 . S
C505 H513 0.960 . S
C506 C504 1.381 . S
C506 C507 1.394 . S
C506 H514 0.930 . S
C507 C506 1.394 . S
C507 C508 1.383 1_554 S
C507 H515 0.929 . S
C508 C507 1.383 1_556 S
C508 C509 1.377 . S
C509 H493 0.930 . S
C509 C508 1.377 . S
C509 C510 1.379 1_556 S
C510 H494 0.931 . S
C510 C504 1.383 . S
C510 C509 1.379 1_554 S
H511 C505 0.959 . S
H512 C505 0.961 . S
H513 C505 0.960 . S
H514 C506 0.930 . S
H515 C507 0.929 . S
H516 C524 0.929 . S
H517 C526 0.930 . S
H518 C528 0.930 . S
H519 C531 0.929 . S
H520 C534 0.930 . S
H521 C536 0.960 . S
H522 C536 0.960 . S
H523 C536 0.960 . S
C524 H516 0.929 . S
C524 C525 1.377 . S
C524 C526 1.384 . S
C525 C524 1.377 . S
C525 C531 1.390 . S
C526 H517 0.930 . S
C526 C524 1.384 . S
C526 C527 1.372 . S
C527 C526 1.372 . S
C527 C528 1.400 . S
C527 C532 1.490 . S
C528 H518 0.930 . S
C528 C527 1.400 . S
C528 C531 1.386 . S
H529 C545 0.930 . S
H530 C546 0.931 . S
C531 H519 0.929 . S
C531 C525 1.390 . S
C531 C528 1.386 . S
C532 C527 1.490 . S
C532 C534 1.395 . S
C532 C535 1.403 . S
H533 C539 0.930 . S
C534 H520 0.930 . S
C534 C532 1.395 . S
C534 C537 1.403 . S
C535 C532 1.403 . S
C535 C536 1.524 . S
C535 C539 1.400 . S
C536 H521 0.960 . S
C536 H522 0.960 . S
C536 H523 0.960 . S
C536 C535 1.524 . S
C537 C534 1.403 . S
C537 C538 1.392 . S
C537 C541 1.495 . S
C538 C537 1.392 . S
C538 C539 1.385 . S
C538 C540 1.478 . S
C539 H533 0.930 . S
C539 C535 1.400 . S
C539 C538 1.385 . S
C540 C538 1.478 . S
C540 C542 1.381 . S
C540 C546 1.383 . S
C541 C537 1.495 . S
C541 H547 0.959 . S
C541 H548 0.961 . S
C541 H549 0.960 . S
C542 C540 1.381 . S
C542 C543 1.394 . S
C542 H550 0.930 . S
C543 C542 1.394 . S
C543 C544 1.383 1_556 S
C543 H551 0.929 . S
C544 C543 1.383 1_554 S
C544 C545 1.377 . S
C545 H529 0.930 . S
C545 C544 1.377 . S
C545 C546 1.379 1_554 S
C546 H530 0.931 . S
C546 C540 1.383 . S
C546 C545 1.379 1_556 S
H547 C541 0.959 . S
H548 C541 0.961 . S
H549 C541 0.960 . S
H550 C542 0.930 . S
H551 C543 0.929 . S
H552 C560 0.929 . S
H553 C562 0.930 . S
H554 C564 0.930 . S
H555 C567 0.929 . S
H556 C570 0.930 . S
H557 C572 0.960 . S
H558 C572 0.960 . S
H559 C572 0.960 . S
C560 H552 0.929 . S
C560 C561 1.377 . S
C560 C562 1.384 . S
C561 C560 1.377 . S
C561 C567 1.390 . S
C562 H553 0.930 . S
C562 C560 1.384 . S
C562 C563 1.372 . S
C563 C562 1.372 . S
C563 C564 1.400 . S
C563 C568 1.490 . S
C564 H554 0.930 . S
C564 C563 1.400 . S
C564 C567 1.386 . S
H565 C581 0.930 . S
H566 C582 0.931 . S
C567 H555 0.929 . S
C567 C561 1.390 . S
C567 C564 1.386 . S
C568 C563 1.490 . S
C568 C570 1.395 . S
C568 C571 1.403 . S
H569 C575 0.930 . S
C570 H556 0.930 . S
C570 C568 1.395 . S
C570 C573 1.403 . S
C571 C568 1.403 . S
C571 C572 1.524 . S
C571 C575 1.400 . S
C572 H557 0.960 . S
C572 H558 0.960 . S
C572 H559 0.960 . S
C572 C571 1.524 . S
C573 C570 1.403 . S
C573 C574 1.392 . S
C573 C577 1.495 . S
C574 C573 1.392 . S
C574 C575 1.385 . S
C574 C576 1.478 . S
C575 H569 0.930 . S
C575 C571 1.400 . S
C575 C574 1.385 . S
C576 C574 1.478 . S
C576 C578 1.381 . S
C576 C582 1.383 . S
C577 C573 1.495 . S
C577 H583 0.959 . S
C577 H584 0.961 . S
C577 H585 0.960 . S
C578 C576 1.381 . S
C578 C579 1.394 . S
C578 H586 0.930 . S
C579 C578 1.394 . S
C579 C580 1.383 . S
C579 H587 0.929 . S
C580 C579 1.383 . S
C580 C581 1.377 . S
C581 H565 0.930 . S
C581 C580 1.377 . S
C581 C582 1.379 . S
C582 H566 0.931 . S
C582 C576 1.383 . S
C582 C581 1.379 . S
H583 C577 0.959 . S
H584 C577 0.961 . S
H585 C577 0.960 . S
H586 C578 0.930 . S
H587 C579 0.929 . S
H588 C596 0.929 . S
H589 C598 0.930 . S
H590 C600 0.930 . S
H591 C603 0.929 . S
H592 C606 0.930 . S
H593 C608 0.960 . S
H594 C608 0.960 . S
H595 C608 0.960 . S
C596 H588 0.929 . S
C596 C597 1.377 . S
C596 C598 1.384 . S
C597 C596 1.377 . S
C597 C603 1.390 . S
C598 H589 0.930 . S
C598 C596 1.384 . S
C598 C599 1.372 . S
C599 C598 1.372 . S
C599 C600 1.400 . S
C599 C604 1.490 . S
C600 H590 0.930 . S
C600 C599 1.400 . S
C600 C603 1.386 . S
H601 C617 0.930 . S
H602 C618 0.931 . S
C603 H591 0.929 . S
C603 C597 1.390 . S
C603 C600 1.386 . S
C604 C599 1.490 . S
C604 C606 1.395 . S
C604 C607 1.403 . S
H605 C611 0.930 . S
C606 H592 0.930 . S
C606 C604 1.395 . S
C606 C609 1.403 . S
C607 C604 1.403 . S
C607 C608 1.524 . S
C607 C611 1.400 . S
C608 H593 0.960 . S
C608 H594 0.960 . S
C608 H595 0.960 . S
C608 C607 1.524 . S
C609 C606 1.403 . S
C609 C610 1.392 . S
C609 C613 1.495 . S
C610 C609 1.392 . S
C610 C611 1.385 . S
C610 C612 1.478 . S
C611 H605 0.930 . S
C611 C607 1.400 . S
C611 C610 1.385 . S
C612 C610 1.478 . S
C612 C614 1.381 . S
C612 C618 1.383 . S
C613 C609 1.495 . S
C613 H619 0.959 . S
C613 H620 0.961 . S
C613 H621 0.960 . S
C614 C612 1.381 . S
C614 C615 1.394 . S
C614 H622 0.930 . S
C615 C614 1.394 . S
C615 C616 1.383 . S
C615 H623 0.929 . S
C616 C615 1.383 . S
C616 C617 1.377 . S
C617 H601 0.930 . S
C617 C616 1.377 . S
C617 C618 1.379 . S
C618 H602 0.931 . S
C618 C612 1.383 . S
C618 C617 1.379 . S
H619 C613 0.959 . S
H620 C613 0.961 . S
H621 C613 0.960 . S
H622 C614 0.930 . S
H623 C615 0.929 . S
H624 C632 0.929 . S
H625 C634 0.930 . S
H626 C636 0.930 . S
H627 C639 0.929 . S
H628 C642 0.930 . S
H629 C644 0.960 . S
H630 C644 0.960 . S
H631 C644 0.960 . S
C632 H624 0.929 . S
C632 C633 1.377 . S
C632 C634 1.384 . S
C633 C632 1.377 . S
C633 C639 1.390 . S
C634 H625 0.930 . S
C634 C632 1.384 . S
C634 C635 1.372 . S
C635 C634 1.372 . S
C635 C636 1.400 . S
C635 C640 1.490 . S
C636 H626 0.930 . S
C636 C635 1.400 . S
C636 C639 1.386 . S
H637 C653 0.930 . S
H638 C654 0.931 . S
C639 H627 0.929 . S
C639 C633 1.390 . S
C639 C636 1.386 . S
C640 C635 1.490 . S
C640 C642 1.395 . S
C640 C643 1.403 . S
H641 C647 0.930 . S
C642 H628 0.930 . S
C642 C640 1.395 . S
C642 C645 1.403 . S
C643 C640 1.403 . S
C643 C644 1.524 . S
C643 C647 1.400 . S
C644 H629 0.960 . S
C644 H630 0.960 . S
C644 H631 0.960 . S
C644 C643 1.524 . S
C645 C642 1.403 . S
C645 C646 1.392 . S
C645 C649 1.495 . S
C646 C645 1.392 . S
C646 C647 1.385 . S
C646 C648 1.478 . S
C647 H641 0.930 . S
C647 C643 1.400 . S
C647 C646 1.385 . S
C648 C646 1.478 . S
C648 C650 1.381 . S
C648 C654 1.383 . S
C649 C645 1.495 . S
C649 H655 0.959 . S
C649 H656 0.961 . S
C649 H657 0.960 . S
C650 C648 1.381 . S
C650 C651 1.394 . S
C650 H658 0.930 . S
C651 C650 1.394 . S
C651 C652 1.383 . S
C651 H659 0.929 . S
C652 C651 1.383 . S
C652 C653 1.377 . S
C653 H637 0.930 . S
C653 C652 1.377 . S
C653 C654 1.379 . S
C654 H638 0.931 . S
C654 C648 1.383 . S
C654 C653 1.379 . S
H655 C649 0.959 . S
H656 C649 0.961 . S
H657 C649 0.960 . S
H658 C650 0.930 . S
H659 C651 0.929 . S
H660 C668 0.929 . S
H661 C670 0.930 . S
H662 C672 0.930 . S
H663 C675 0.929 . S
H664 C678 0.930 . S
H665 C680 0.960 . S
H666 C680 0.960 . S
H667 C680 0.960 . S
C668 H660 0.929 . S
C668 C669 1.377 . S
C668 C670 1.384 . S
C669 C668 1.377 . S
C669 C675 1.390 . S
C670 H661 0.930 . S
C670 C668 1.384 . S
C670 C671 1.372 . S
C671 C670 1.372 . S
C671 C672 1.400 . S
C671 C676 1.490 . S
C672 H662 0.930 . S
C672 C671 1.400 . S
C672 C675 1.386 . S
H673 C689 0.930 . S
H674 C690 0.931 . S
C675 H663 0.929 . S
C675 C669 1.390 . S
C675 C672 1.386 . S
C676 C671 1.490 . S
C676 C678 1.395 . S
C676 C679 1.403 . S
H677 C683 0.930 . S
C678 H664 0.930 . S
C678 C676 1.395 . S
C678 C681 1.403 . S
C679 C676 1.403 . S
C679 C680 1.524 . S
C679 C683 1.400 . S
C680 H665 0.960 . S
C680 H666 0.960 . S
C680 H667 0.960 . S
C680 C679 1.524 . S
C681 C678 1.403 . S
C681 C682 1.392 . S
C681 C685 1.495 . S
C682 C681 1.392 . S
C682 C683 1.385 . S
C682 C684 1.478 . S
C683 H677 0.930 . S
C683 C679 1.400 . S
C683 C682 1.385 . S
C684 C682 1.478 . S
C684 C686 1.381 . S
C684 C690 1.383 . S
C685 C681 1.495 . S
C685 H691 0.959 . S
C685 H692 0.961 . S
C685 H693 0.960 . S
C686 C684 1.381 . S
C686 C687 1.394 . S
C686 H694 0.930 . S
C687 C686 1.394 . S
C687 C688 1.383 . S
C687 H695 0.929 . S
C688 C687 1.383 . S
C688 C689 1.377 . S
C689 H673 0.930 . S
C689 C688 1.377 . S
C689 C690 1.379 . S
C690 H674 0.931 . S
C690 C684 1.383 . S
C690 C689 1.379 . S
H691 C685 0.959 . S
H692 C685 0.961 . S
H693 C685 0.960 . S
H694 C686 0.930 . S
H695 C687 0.929 . S
H696 C704 0.929 . S
H697 C706 0.930 . S
H698 C708 0.930 . S
H699 C711 0.929 . S
H700 C714 0.930 . S
H701 C716 0.960 . S
H702 C716 0.960 . S
H703 C716 0.960 . S
C704 H696 0.929 . S
C704 C705 1.377 . S
C704 C706 1.384 1_554 S
C705 C704 1.377 . S
C705 C711 1.390 1_554 S
C706 H697 0.930 . S
C706 C704 1.384 1_556 S
C706 C707 1.372 . S
C707 C706 1.372 . S
C707 C708 1.400 . S
C707 C712 1.490 . S
C708 H698 0.930 . S
C708 C707 1.400 . S
C708 C711 1.386 . S
H709 C725 0.930 . S
H710 C726 0.931 . S
C711 H699 0.929 . S
C711 C705 1.390 1_556 S
C711 C708 1.386 . S
C712 C707 1.490 . S
C712 C714 1.395 . S
C712 C715 1.403 . S
H713 C719 0.930 . S
C714 H700 0.930 . S
C714 C712 1.395 . S
C714 C717 1.403 . S
C715 C712 1.403 . S
C715 C716 1.524 . S
C715 C719 1.400 . S
C716 H701 0.960 . S
C716 H702 0.960 . S
C716 H703 0.960 . S
C716 C715 1.524 . S
C717 C714 1.403 . S
C717 C718 1.392 . S
C717 C721 1.495 . S
C718 C717 1.392 . S
C718 C719 1.385 . S
C718 C720 1.478 . S
C719 H713 0.930 . S
C719 C715 1.400 . S
C719 C718 1.385 . S
C720 C718 1.478 . S
C720 C722 1.381 . S
C720 C726 1.383 . S
C721 C717 1.495 . S
C721 H727 0.959 . S
C721 H728 0.961 . S
C721 H729 0.960 . S
C722 C720 1.381 . S
C722 C723 1.394 . S
C722 H730 0.930 . S
C723 C722 1.394 . S
C723 C724 1.383 . S
C723 H731 0.929 . S
C724 C723 1.383 . S
C724 C725 1.377 . S
C725 H709 0.930 . S
C725 C724 1.377 . S
C725 C726 1.379 . S
C726 H710 0.931 . S
C726 C720 1.383 . S
C726 C725 1.379 . S
H727 C721 0.959 . S
H728 C721 0.961 . S
H729 C721 0.960 . S
H730 C722 0.930 . S
H731 C723 0.929 . S
H732 C740 0.929 . S
H733 C742 0.930 . S
H734 C744 0.930 . S
H735 C747 0.929 . S
H736 C750 0.930 . S
H737 C752 0.960 . S
H738 C752 0.960 . S
H739 C752 0.960 . S
C740 H732 0.929 . S
C740 C741 1.377 . S
C740 C742 1.384 . S
C741 C740 1.377 . S
C741 C747 1.390 . S
C742 H733 0.930 . S
C742 C740 1.384 . S
C742 C743 1.372 . S
C743 C742 1.372 . S
C743 C744 1.400 . S
C743 C748 1.490 . S
C744 H734 0.930 . S
C744 C743 1.400 . S
C744 C747 1.386 . S
H745 C761 0.930 . S
H746 C762 0.931 . S
C747 H735 0.929 . S
C747 C741 1.390 . S
C747 C744 1.386 . S
C748 C743 1.490 . S
C748 C750 1.395 . S
C748 C751 1.403 . S
H749 C755 0.930 . S
C750 H736 0.930 . S
C750 C748 1.395 . S
C750 C753 1.403 . S
C751 C748 1.403 . S
C751 C752 1.524 . S
C751 C755 1.400 . S
C752 H737 0.960 . S
C752 H738 0.960 . S
C752 H739 0.960 . S
C752 C751 1.524 . S
C753 C750 1.403 . S
C753 C754 1.392 . S
C753 C757 1.495 . S
C754 C753 1.392 . S
C754 C755 1.385 . S
C754 C756 1.478 . S
C755 H749 0.930 . S
C755 C751 1.400 . S
C755 C754 1.385 . S
C756 C754 1.478 . S
C756 C758 1.381 . S
C756 C762 1.383 . S
C757 C753 1.495 . S
C757 H763 0.959 . S
C757 H764 0.961 . S
C757 H765 0.960 . S
C758 C756 1.381 . S
C758 C759 1.399 . S
C758 H766 0.930 . S
C759 C758 1.399 . S
C759 C760 1.380 1_554 S
C759 H767 0.928 1_554 S
C760 C759 1.380 1_556 S
C760 C761 1.377 . S
C761 H745 0.930 . S
C761 C760 1.377 . S
C761 C762 1.379 1_556 S
C762 H746 0.931 . S
C762 C756 1.383 . S
C762 C761 1.379 1_554 S
H763 C757 0.959 . S
H764 C757 0.961 . S
H765 C757 0.960 . S
H766 C758 0.930 . S
H767 C759 0.928 1_556 S
H768 C776 0.929 . S
H769 C778 0.930 . S
H770 C780 0.930 . S
H771 C783 0.929 . S
H772 C786 0.930 . S
H773 C788 0.960 . S
H774 C788 0.960 . S
H775 C788 0.960 . S
C776 H768 0.929 . S
C776 C777 1.377 . S
C776 C778 1.384 . S
C777 C776 1.377 . S
C777 C783 1.390 . S
C778 H769 0.930 . S
C778 C776 1.384 . S
C778 C779 1.372 . S
C779 C778 1.372 . S
C779 C780 1.400 . S
C779 C784 1.490 . S
C780 H770 0.930 . S
C780 C779 1.400 . S
C780 C783 1.386 . S
H781 C797 0.930 . S
H782 C798 0.931 . S
C783 H771 0.929 . S
C783 C777 1.390 . S
C783 C780 1.386 . S
C784 C779 1.490 . S
C784 C786 1.395 . S
C784 C787 1.403 . S
H785 C791 0.930 . S
C786 H772 0.930 . S
C786 C784 1.395 . S
C786 C789 1.403 . S
C787 C784 1.403 . S
C787 C788 1.524 . S
C787 C791 1.400 . S
C788 H773 0.960 . S
C788 H774 0.960 . S
C788 H775 0.960 . S
C788 C787 1.524 . S
C789 C786 1.403 . S
C789 C790 1.392 . S
C789 C793 1.495 . S
C790 C789 1.392 . S
C790 C791 1.385 . S
C790 C792 1.478 . S
C791 H785 0.930 . S
C791 C787 1.400 . S
C791 C790 1.385 . S
C792 C790 1.478 . S
C792 C794 1.381 . S
C792 C798 1.383 . S
C793 C789 1.495 . S
C793 H799 0.959 . S
C793 H800 0.961 . S
C793 H801 0.960 . S
C794 C792 1.381 . S
C794 C795 1.394 . S
C794 H802 0.930 . S
C795 C794 1.394 . S
C795 C796 1.383 . S
C795 H803 0.929 . S
C796 C795 1.383 . S
C796 C797 1.377 . S
C797 H781 0.930 . S
C797 C796 1.377 . S
C797 C798 1.379 . S
C798 H782 0.931 . S
C798 C792 1.383 . S
C798 C797 1.379 . S
H799 C793 0.959 . S
H800 C793 0.961 . S
H801 C793 0.960 . S
H802 C794 0.930 . S
H803 C795 0.929 . S
H804 C812 0.929 . S
H805 C814 0.930 . S
H806 C816 0.930 . S
H807 C819 0.929 . S
H808 C822 0.930 . S
H809 C824 0.960 . S
H810 C824 0.960 . S
H811 C824 0.960 . S
C812 H804 0.929 . S
C812 C813 1.377 . S
C812 C814 1.384 . S
C813 C812 1.377 . S
C813 C819 1.390 . S
C814 H805 0.930 . S
C814 C812 1.384 . S
C814 C815 1.372 . S
C815 C814 1.372 . S
C815 C816 1.400 . S
C815 C820 1.490 . S
C816 H806 0.930 . S
C816 C815 1.400 . S
C816 C819 1.386 . S
H817 C833 0.930 . S
H818 C834 0.931 . S
C819 H807 0.929 . S
C819 C813 1.390 . S
C819 C816 1.386 . S
C820 C815 1.490 . S
C820 C822 1.395 . S
C820 C823 1.403 . S
H821 C827 0.930 . S
C822 H808 0.930 . S
C822 C820 1.395 . S
C822 C825 1.403 . S
C823 C820 1.403 . S
C823 C824 1.524 . S
C823 C827 1.400 . S
C824 H809 0.960 . S
C824 H810 0.960 . S
C824 H811 0.960 . S
C824 C823 1.524 . S
C825 C822 1.403 . S
C825 C826 1.392 . S
C825 C829 1.495 . S
C826 C825 1.392 . S
C826 C827 1.385 . S
C826 C828 1.478 . S
C827 H821 0.930 . S
C827 C823 1.400 . S
C827 C826 1.385 . S
C828 C826 1.478 . S
C828 C830 1.381 . S
C828 C834 1.383 . S
C829 C825 1.495 . S
C829 H835 0.959 . S
C829 H836 0.961 . S
C829 H837 0.960 . S
C830 C828 1.381 . S
C830 C831 1.394 . S
C830 H838 0.930 . S
C831 C830 1.394 . S
C831 C832 1.383 . S
C831 H839 0.929 . S
C832 C831 1.383 . S
C832 C833 1.377 . S
C833 H817 0.930 . S
C833 C832 1.377 . S
C833 C834 1.379 . S
C834 H818 0.931 . S
C834 C828 1.383 . S
C834 C833 1.379 . S
H835 C829 0.959 . S
H836 C829 0.961 . S
H837 C829 0.960 . S
H838 C830 0.930 . S
H839 C831 0.929 . S
H840 C848 0.929 . S
H841 C850 0.930 . S
H842 C852 0.930 . S
H843 C855 0.929 . S
H844 C858 0.930 . S
H845 C860 0.960 . S
H846 C860 0.960 . S
H847 C860 0.960 . S
C848 H840 0.929 . S
C848 C849 1.377 . S
C848 C850 1.384 . S
C849 C848 1.377 . S
C849 C855 1.390 . S
C850 H841 0.930 . S
C850 C848 1.384 . S
C850 C851 1.372 . S
C851 C850 1.372 . S
C851 C852 1.400 . S
C851 C856 1.490 . S
C852 H842 0.930 . S
C852 C851 1.400 . S
C852 C855 1.386 . S
H853 C869 0.930 . S
H854 C870 0.931 . S
C855 H843 0.929 . S
C855 C849 1.390 . S
C855 C852 1.386 . S
C856 C851 1.490 . S
C856 C858 1.395 . S
C856 C859 1.403 . S
H857 C863 0.930 . S
C858 H844 0.930 . S
C858 C856 1.395 . S
C858 C861 1.403 . S
C859 C856 1.403 . S
C859 C860 1.524 . S
C859 C863 1.400 . S
C860 H845 0.960 . S
C860 H846 0.960 . S
C860 H847 0.960 . S
C860 C859 1.524 . S
C861 C858 1.403 . S
C861 C862 1.392 . S
C861 C865 1.495 . S
C862 C861 1.392 . S
C862 C863 1.385 . S
C862 C864 1.478 . S
C863 H857 0.930 . S
C863 C859 1.400 . S
C863 C862 1.385 . S
C864 C862 1.478 . S
C864 C866 1.381 . S
C864 C870 1.383 . S
C865 C861 1.495 . S
C865 H871 0.959 . S
C865 H872 0.961 . S
C865 H873 0.960 . S
C866 C864 1.381 . S
C866 C867 1.394 . S
C866 H874 0.930 . S
C867 C866 1.394 . S
C867 C868 1.383 1_554 S
C867 H875 0.928 1_554 S
C868 C867 1.383 1_556 S
C868 C869 1.377 . S
C869 H853 0.930 . S
C869 C868 1.377 . S
C869 C870 1.379 1_556 S
C870 H854 0.931 . S
C870 C864 1.383 . S
C870 C869 1.379 1_554 S
H871 C865 0.959 . S
H872 C865 0.961 . S
H873 C865 0.960 . S
H874 C866 0.930 . S
H875 C867 0.928 1_556 S
H876 C884 0.929 . S
H877 C886 0.930 . S
H878 C888 0.930 . S
H879 C891 0.929 . S
H880 C894 0.930 . S
H881 C896 0.960 . S
H882 C896 0.960 . S
H883 C896 0.960 . S
C884 H876 0.929 . S
C884 C885 1.377 . S
C884 C886 1.384 . S
C885 C884 1.377 . S
C885 C891 1.390 . S
C886 H877 0.930 . S
C886 C884 1.384 . S
C886 C887 1.372 . S
C887 C886 1.372 . S
C887 C888 1.400 . S
C887 C892 1.490 . S
C888 H878 0.930 . S
C888 C887 1.400 . S
C888 C891 1.386 . S
H889 C905 0.930 1_554 S
H890 C906 0.931 . S
C891 H879 0.929 . S
C891 C885 1.390 . S
C891 C888 1.386 . S
C892 C887 1.490 . S
C892 C894 1.395 . S
C892 C895 1.403 . S
H893 C899 0.930 . S
C894 H880 0.930 . S
C894 C892 1.395 . S
C894 C897 1.403 . S
C895 C892 1.403 . S
C895 C896 1.524 . S
C895 C899 1.400 . S
C896 H881 0.960 . S
C896 H882 0.960 . S
C896 H883 0.960 . S
C896 C895 1.524 . S
C897 C894 1.403 . S
C897 C898 1.392 . S
C897 C901 1.495 . S
C898 C897 1.392 . S
C898 C899 1.385 . S
C898 C900 1.478 . S
C899 H893 0.930 . S
C899 C895 1.400 . S
C899 C898 1.385 . S
C900 C898 1.478 . S
C900 C902 1.381 . S
C900 C906 1.383 . S
C901 C897 1.495 . S
C901 H907 0.959 . S
C901 H908 0.961 . S
C901 H909 0.960 . S
C902 C900 1.381 . S
C902 C903 1.394 1_556 S
C902 H910 0.930 . S
C903 C902 1.394 1_554 S
C903 C904 1.383 . S
C903 H911 0.929 . S
C904 C903 1.383 . S
C904 C905 1.377 1_554 S
C905 H889 0.930 1_556 S
C905 C904 1.377 1_556 S
C905 C906 1.379 . S
C906 H890 0.931 . S
C906 C900 1.383 . S
C906 C905 1.379 . S
H907 C901 0.959 . S
H908 C901 0.961 . S
H909 C901 0.960 . S
H910 C902 0.930 . S
H911 C903 0.929 . S
H912 C920 0.929 . S
H913 C922 0.930 . S
H914 C924 0.930 . S
H915 C927 0.929 . S
H916 C930 0.930 . S
H917 C932 0.960 . S
H918 C932 0.960 . S
H919 C932 0.960 . S
C920 H912 0.929 . S
C920 C921 1.377 . S
C920 C922 1.384 . S
C921 C920 1.377 . S
C921 C927 1.390 1_655 S
C922 H913 0.930 . S
C922 C920 1.384 . S
C922 C923 1.372 . S
C923 C922 1.372 . S
C923 C924 1.400 1_655 S
C923 C928 1.493 . S
C924 H914 0.930 . S
C924 C923 1.400 1_455 S
C924 C927 1.386 . S
H925 C941 0.930 . S
H926 C942 0.931 . S
C927 H915 0.929 . S
C927 C921 1.390 1_455 S
C927 C924 1.386 . S
C928 C923 1.493 . S
C928 C930 1.410 . S
C928 C931 1.386 1_655 S
H929 C935 0.930 . S
C930 H916 0.930 . S
C930 C928 1.410 . S
C930 C933 1.403 . S
C931 C928 1.386 1_455 S
C931 C932 1.524 . S
C931 C935 1.400 . S
C932 H917 0.960 . S
C932 H918 0.960 . S
C932 H919 0.960 . S
C932 C931 1.524 . S
C933 C930 1.403 . S
C933 C934 1.392 1_655 S
C933 C937 1.495 . S
C934 C933 1.392 1_455 S
C934 C935 1.385 . S
C934 C936 1.478 . S
C935 H929 0.930 . S
C935 C931 1.400 . S
C935 C934 1.385 . S
C936 C934 1.478 . S
C936 C938 1.381 1_455 S
C936 C942 1.383 . S
C937 C933 1.495 . S
C937 H943 0.959 . S
C937 H944 0.961 . S
C937 H945 0.960 . S
C938 C936 1.381 1_655 S
C938 C939 1.394 . S
C938 H946 0.930 . S
C939 C938 1.394 . S
C939 C940 1.383 1_655 S
C939 H947 0.929 . S
C940 C939 1.383 1_455 S
C940 C941 1.377 . S
C941 H925 0.930 . S
C941 C940 1.377 . S
C941 C942 1.379 . S
C942 H926 0.931 . S
C942 C936 1.383 . S
C942 C941 1.379 . S
H943 C937 0.959 . S
H944 C937 0.961 . S
H945 C937 0.960 . S
H946 C938 0.930 . S
H947 C939 0.929 . S
H948 C956 0.929 . S
H949 C958 0.930 . S
H950 C960 0.930 . S
H951 C963 0.929 . S
H952 C966 0.930 . S
H953 C968 0.960 . S
H954 C968 0.960 . S
H955 C968 0.960 . S
C956 H948 0.929 . S
C956 C957 1.377 . S
C956 C958 1.384 . S
C957 C956 1.377 . S
C957 C963 1.390 . S
C958 H949 0.930 . S
C958 C956 1.384 . S
C958 C959 1.372 . S
C959 C958 1.372 . S
C959 C960 1.400 . S
C959 C964 1.490 . S
C960 H950 0.930 . S
C960 C959 1.400 . S
C960 C963 1.386 . S
H961 C977 0.930 . S
H962 C978 0.931 . S
C963 H951 0.929 . S
C963 C957 1.390 . S
C963 C960 1.386 . S
C964 C959 1.490 . S
C964 C966 1.395 . S
C964 C967 1.403 . S
H965 C971 0.930 . S
C966 H952 0.930 . S
C966 C964 1.395 . S
C966 C969 1.403 1_655 S
C967 C964 1.403 . S
C967 C968 1.524 . S
C967 C971 1.400 1_655 S
C968 H953 0.960 . S
C968 H954 0.960 . S
C968 H955 0.960 . S
C968 C967 1.524 . S
C969 C966 1.403 1_455 S
C969 C970 1.392 . S
C969 C973 1.495 . S
C970 C969 1.392 . S
C970 C971 1.385 . S
C970 C972 1.478 . S
C971 H965 0.930 . S
C971 C967 1.400 1_455 S
C971 C970 1.385 . S
C972 C970 1.478 . S
C972 C974 1.381 . S
C972 C978 1.383 . S
C973 C969 1.495 . S
C973 H979 0.959 . S
C973 H980 0.961 . S
C973 H981 0.960 . S
C974 C972 1.381 . S
C974 C975 1.394 . S
C974 H982 0.930 . S
C975 C974 1.394 . S
C975 C976 1.383 . S
C975 H983 0.929 . S
C976 C975 1.383 . S
C976 C977 1.377 . S
C977 H961 0.930 . S
C977 C976 1.377 . S
C977 C978 1.379 . S
C978 H962 0.931 . S
C978 C972 1.383 . S
C978 C977 1.379 . S
H979 C973 0.959 . S
H980 C973 0.961 . S
H981 C973 0.960 . S
H982 C974 0.930 . S
H983 C975 0.929 . S
H984 C992 0.929 . S
H985 C994 0.930 . S
H986 C996 0.930 . S
H987 C999 0.929 . S
H988 C1002 0.930 . S
H989 C1004 0.960 . S
H990 C1004 0.960 . S
H991 C1004 0.960 . S
C992 H984 0.929 . S
C992 C993 1.377 . S
C992 C994 1.384 . S
C993 C992 1.377 . S
C993 C999 1.390 . S
C994 H985 0.930 . S
C994 C992 1.384 . S
C994 C995 1.372 . S
C995 C994 1.372 . S
C995 C996 1.400 . S
C995 C1000 1.490 . S
C996 H986 0.930 . S
C996 C995 1.400 . S
C996 C999 1.386 . S
H997 C1013 0.930 . S
H998 C1014 0.931 . S
C999 H987 0.929 . S
C999 C993 1.390 . S
C999 C996 1.386 . S
C1000 C995 1.490 . S
C1000 C1002 1.395 . S
C1000 C1003 1.403 . S
H1001 C1007 0.930 . S
C1002 H988 0.930 . S
C1002 C1000 1.395 . S
C1002 C1005 1.403 . S
C1003 C1000 1.403 . S
C1003 C1004 1.524 . S
C1003 C1007 1.400 . S
C1004 H989 0.960 . S
C1004 H990 0.960 . S
C1004 H991 0.960 . S
C1004 C1003 1.524 . S
C1005 C1002 1.403 . S
C1005 C1006 1.392 . S
C1005 C1009 1.495 . S
C1006 C1005 1.392 . S
C1006 C1007 1.385 . S
C1006 C1008 1.478 . S
C1007 H1001 0.930 . S
C1007 C1003 1.400 . S
C1007 C1006 1.385 . S
C1008 C1006 1.478 . S
C1008 C1010 1.381 . S
C1008 C1014 1.383 . S
C1009 C1005 1.495 . S
C1009 H1015 0.959 . S
C1009 H1016 0.961 . S
C1009 H1017 0.960 . S
C1010 C1008 1.381 . S
C1010 C1011 1.394 . S
C1010 H1018 0.930 . S
C1011 C1010 1.394 . S
C1011 C1012 1.383 . S
C1011 H1019 0.929 . S
C1012 C1011 1.383 . S
C1012 C1013 1.377 . S
C1013 H997 0.930 . S
C1013 C1012 1.377 . S
C1013 C1014 1.379 . S
C1014 H998 0.931 . S
C1014 C1008 1.383 . S
C1014 C1013 1.379 . S
H1015 C1009 0.959 . S
H1016 C1009 0.961 . S
H1017 C1009 0.960 . S
H1018 C1010 0.930 . S
H1019 C1011 0.929 . S
H1020 C1028 0.929 . S
H1021 C1030 0.930 . S
H1022 C1032 0.930 . S
H1023 C1035 0.929 . S
H1024 C1038 0.930 . S
H1025 C1040 0.960 . S
H1026 C1040 0.960 . S
H1027 C1040 0.960 . S
C1028 H1020 0.929 . S
C1028 C1029 1.377 . S
C1028 C1030 1.384 . S
C1029 C1028 1.377 . S
C1029 C1035 1.390 . S
C1030 H1021 0.930 . S
C1030 C1028 1.384 . S
C1030 C1031 1.372 . S
C1031 C1030 1.372 . S
C1031 C1032 1.400 . S
C1031 C1036 1.490 . S
C1032 H1022 0.930 . S
C1032 C1031 1.400 . S
C1032 C1035 1.386 . S
H1033 C1049 0.930 . S
H1034 C1050 0.931 . S
C1035 H1023 0.929 . S
C1035 C1029 1.390 . S
C1035 C1032 1.386 . S
C1036 C1031 1.490 . S
C1036 C1038 1.395 . S
C1036 C1039 1.403 . S
H1037 C1043 0.930 . S
C1038 H1024 0.930 . S
C1038 C1036 1.395 . S
C1038 C1041 1.403 . S
C1039 C1036 1.403 . S
C1039 C1040 1.524 . S
C1039 C1043 1.400 . S
C1040 H1025 0.960 . S
C1040 H1026 0.960 . S
C1040 H1027 0.960 . S
C1040 C1039 1.524 . S
C1041 C1038 1.403 . S
C1041 C1042 1.392 . S
C1041 C1045 1.495 . S
C1042 C1041 1.392 . S
C1042 C1043 1.385 . S
C1042 C1044 1.478 . S
C1043 H1037 0.930 . S
C1043 C1039 1.400 . S
C1043 C1042 1.385 . S
C1044 C1042 1.478 . S
C1044 C1046 1.381 . S
C1044 C1050 1.383 . S
C1045 C1041 1.495 . S
C1045 H1051 0.959 . S
C1045 H1052 0.961 . S
C1045 H1053 0.960 . S
C1046 C1044 1.381 . S
C1046 C1047 1.394 . S
C1046 H1054 0.930 . S
C1047 C1046 1.394 . S
C1047 C1048 1.383 . S
C1047 H1055 0.929 . S
C1048 C1047 1.383 . S
C1048 C1049 1.377 . S
C1049 H1033 0.930 . S
C1049 C1048 1.377 . S
C1049 C1050 1.379 . S
C1050 H1034 0.931 . S
C1050 C1044 1.383 . S
C1050 C1049 1.379 . S
H1051 C1045 0.959 . S
H1052 C1045 0.961 . S
H1053 C1045 0.960 . S
H1054 C1046 0.930 . S
H1055 C1047 0.929 . S
H1056 C1064 0.929 . S
H1057 C1066 0.930 . S
H1058 C1068 0.930 . S
H1059 C1071 0.925 1_655 S
H1060 C1074 0.930 . S
H1061 C1076 0.960 . S
H1062 C1076 0.960 . S
H1063 C1076 0.960 . S
C1064 H1056 0.929 . S
C1064 C1065 1.377 . S
C1064 C1066 1.384 . S
C1065 C1064 1.377 . S
C1065 C1071 1.395 . S
C1066 H1057 0.930 . S
C1066 C1064 1.384 . S
C1066 C1067 1.372 . S
C1067 C1066 1.372 . S
C1067 C1068 1.400 1_455 S
C1067 C1072 1.490 . S
C1068 H1058 0.930 . S
C1068 C1067 1.400 1_655 S
C1068 C1071 1.385 1_655 S
H1069 C1085 0.930 . S
H1070 C1086 0.931 . S
C1071 H1059 0.925 1_455 S
C1071 C1065 1.395 . S
C1071 C1068 1.385 1_455 S
C1072 C1067 1.490 . S
C1072 C1074 1.395 1_455 S
C1072 C1075 1.403 . S
H1073 C1079 0.930 . S
C1074 H1060 0.930 . S
C1074 C1072 1.395 1_655 S
C1074 C1077 1.403 . S
C1075 C1072 1.403 . S
C1075 C1076 1.524 . S
C1075 C1079 1.400 . S
C1076 H1061 0.960 . S
C1076 H1062 0.960 . S
C1076 H1063 0.960 . S
C1076 C1075 1.524 . S
C1077 C1074 1.403 . S
C1077 C1078 1.404 . S
C1077 C1081 1.495 . S
C1078 C1077 1.404 . S
C1078 C1079 1.369 1_655 S
C1078 C1080 1.482 . S
C1079 H1073 0.930 . S
C1079 C1075 1.400 . S
C1079 C1078 1.369 1_455 S
C1080 C1078 1.482 . S
C1080 C1082 1.381 1_655 S
C1080 C1086 1.383 . S
C1081 C1077 1.495 . S
C1081 H1087 0.959 . S
C1081 H1088 0.961 . S
C1081 H1089 0.960 . S
C1082 C1080 1.381 1_455 S
C1082 C1083 1.394 . S
C1082 H1090 0.930 . S
C1083 C1082 1.394 . S
C1083 C1084 1.383 1_455 S
C1083 H1091 0.929 . S
C1084 C1083 1.383 1_655 S
C1084 C1085 1.377 . S
C1085 H1069 0.930 . S
C1085 C1084 1.377 . S
C1085 C1086 1.379 . S
C1086 H1070 0.931 . S
C1086 C1080 1.383 . S
C1086 C1085 1.379 . S
H1087 C1081 0.959 . S
H1088 C1081 0.961 . S
H1089 C1081 0.960 . S
H1090 C1082 0.930 . S
H1091 C1083 0.929 . S
H1092 C1100 0.929 . S
H1093 C1102 0.930 . S
H1094 C1104 0.930 . S
H1095 C1107 0.929 . S
H1096 C1110 0.930 . S
H1097 C1112 0.960 . S
H1098 C1112 0.960 . S
H1099 C1112 0.960 . S
C1100 H1092 0.929 . S
C1100 C1101 1.377 . S
C1100 C1102 1.384 . S
C1101 C1100 1.377 . S
C1101 C1107 1.390 . S
C1102 H1093 0.930 . S
C1102 C1100 1.384 . S
C1102 C1103 1.372 . S
C1103 C1102 1.372 . S
C1103 C1104 1.400 . S
C1103 C1108 1.490 . S
C1104 H1094 0.930 . S
C1104 C1103 1.400 . S
C1104 C1107 1.386 . S
H1105 C1121 0.930 . S
H1106 C1122 0.931 . S
C1107 H1095 0.929 . S
C1107 C1101 1.390 . S
C1107 C1104 1.386 . S
C1108 C1103 1.490 . S
C1108 C1110 1.395 . S
C1108 C1111 1.403 . S
H1109 C1115 0.930 . S
C1110 H1096 0.930 . S
C1110 C1108 1.395 . S
C1110 C1113 1.403 . S
C1111 C1108 1.403 . S
C1111 C1112 1.524 . S
C1111 C1115 1.400 . S
C1112 H1097 0.960 . S
C1112 H1098 0.960 . S
C1112 H1099 0.960 . S
C1112 C1111 1.524 . S
C1113 C1110 1.403 . S
C1113 C1114 1.392 . S
C1113 C1117 1.495 . S
C1114 C1113 1.392 . S
C1114 C1115 1.385 . S
C1114 C1116 1.478 . S
C1115 H1109 0.930 . S
C1115 C1111 1.400 . S
C1115 C1114 1.385 . S
C1116 C1114 1.478 . S
C1116 C1118 1.381 . S
C1116 C1122 1.383 . S
C1117 C1113 1.495 . S
C1117 H1123 0.959 . S
C1117 H1124 0.961 . S
C1117 H1125 0.960 . S
C1118 C1116 1.381 . S
C1118 C1119 1.394 . S
C1118 H1126 0.930 . S
C1119 C1118 1.394 . S
C1119 C1120 1.383 . S
C1119 H1127 0.929 . S
C1120 C1119 1.383 . S
C1120 C1121 1.377 . S
C1121 H1105 0.930 . S
C1121 C1120 1.377 . S
C1121 C1122 1.379 . S
C1122 H1106 0.931 . S
C1122 C1116 1.383 . S
C1122 C1121 1.379 . S
H1123 C1117 0.959 . S
H1124 C1117 0.961 . S
H1125 C1117 0.960 . S
H1126 C1118 0.930 . S
H1127 C1119 0.929 . S
H1128 C1136 0.929 . S
H1129 C1138 0.930 . S
H1130 C1140 0.930 . S
H1131 C1143 0.929 . S
H1132 C1146 0.930 . S
H1133 C1148 0.960 . S
H1134 C1148 0.960 . S
H1135 C1148 0.960 . S
C1136 H1128 0.929 . S
C1136 C1137 1.377 . S
C1136 C1138 1.384 . S
C1137 C1136 1.377 . S
C1137 C1143 1.390 . S
C1138 H1129 0.930 . S
C1138 C1136 1.384 . S
C1138 C1139 1.372 . S
C1139 C1138 1.372 . S
C1139 C1140 1.400 . S
C1139 C1144 1.490 . S
C1140 H1130 0.930 . S
C1140 C1139 1.400 . S
C1140 C1143 1.386 . S
H1141 C1157 0.930 . S
H1142 C1158 0.931 . S
C1143 H1131 0.929 . S
C1143 C1137 1.390 . S
C1143 C1140 1.386 . S
C1144 C1139 1.490 . S
C1144 C1146 1.395 . S
C1144 C1147 1.403 . S
H1145 C1151 0.930 . S
C1146 H1132 0.930 . S
C1146 C1144 1.395 . S
C1146 C1149 1.403 . S
C1147 C1144 1.403 . S
C1147 C1148 1.524 . S
C1147 C1151 1.400 . S
C1148 H1133 0.960 . S
C1148 H1134 0.960 . S
C1148 H1135 0.960 . S
C1148 C1147 1.524 . S
C1149 C1146 1.403 . S
C1149 C1150 1.392 . S
C1149 C1153 1.495 . S
C1150 C1149 1.392 . S
C1150 C1151 1.385 . S
C1150 C1152 1.478 . S
C1151 H1145 0.930 . S
C1151 C1147 1.400 . S
C1151 C1150 1.385 . S
C1152 C1150 1.478 . S
C1152 C1154 1.381 . S
C1152 C1158 1.383 . S
C1153 C1149 1.495 . S
C1153 H1159 0.959 . S
C1153 H1160 0.961 . S
C1153 H1161 0.960 . S
C1154 C1152 1.381 . S
C1154 C1155 1.394 . S
C1154 H1162 0.930 . S
C1155 C1154 1.394 . S
C1155 C1156 1.383 . S
C1155 H1163 0.929 . S
C1156 C1155 1.383 . S
C1156 C1157 1.377 . S
C1157 H1141 0.930 . S
C1157 C1156 1.377 . S
C1157 C1158 1.379 . S
C1158 H1142 0.931 . S
C1158 C1152 1.383 . S
C1158 C1157 1.379 . S
H1159 C1153 0.959 . S
H1160 C1153 0.961 . S
H1161 C1153 0.960 . S
H1162 C1154 0.930 . S
H1163 C1155 0.929 . S
H1164 C1172 0.929 . S
H1165 C1174 0.930 . S
H1166 C1176 0.930 . S
H1167 C1179 0.929 . S
H1168 C1182 0.930 . S
H1169 C1184 0.960 . S
H1170 C1184 0.960 . S
H1171 C1184 0.960 . S
C1172 H1164 0.929 . S
C1172 C1173 1.377 . S
C1172 C1174 1.384 . S
C1173 C1172 1.377 . S
C1173 C1179 1.390 . S
C1174 H1165 0.930 . S
C1174 C1172 1.384 . S
C1174 C1175 1.372 . S
C1175 C1174 1.372 . S
C1175 C1176 1.400 . S
C1175 C1180 1.490 . S
C1176 H1166 0.930 . S
C1176 C1175 1.400 . S
C1176 C1179 1.386 . S
H1177 C1193 0.930 . S
H1178 C1194 0.931 . S
C1179 H1167 0.929 . S
C1179 C1173 1.390 . S
C1179 C1176 1.386 . S
C1180 C1175 1.490 . S
C1180 C1182 1.395 . S
C1180 C1183 1.403 . S
H1181 C1187 0.930 . S
C1182 H1168 0.930 . S
C1182 C1180 1.395 . S
C1182 C1185 1.403 1_455 S
C1183 C1180 1.403 . S
C1183 C1184 1.524 . S
C1183 C1187 1.400 1_455 S
C1184 H1169 0.960 . S
C1184 H1170 0.960 . S
C1184 H1171 0.960 . S
C1184 C1183 1.524 . S
C1185 C1182 1.403 1_655 S
C1185 C1186 1.392 . S
C1185 C1189 1.495 . S
C1186 C1185 1.392 . S
C1186 C1187 1.385 . S
C1186 C1188 1.478 . S
C1187 H1181 0.930 . S
C1187 C1183 1.400 1_655 S
C1187 C1186 1.385 . S
C1188 C1186 1.478 . S
C1188 C1190 1.381 . S
C1188 C1194 1.383 . S
C1189 C1185 1.495 . S
C1189 H1195 0.959 . S
C1189 H1196 0.961 . S
C1189 H1197 0.960 . S
C1190 C1188 1.381 . S
C1190 C1191 1.394 . S
C1190 H1198 0.930 . S
C1191 C1190 1.394 . S
C1191 C1192 1.383 . S
C1191 H1199 0.929 . S
C1192 C1191 1.383 . S
C1192 C1193 1.377 . S
C1193 H1177 0.930 . S
C1193 C1192 1.377 . S
C1193 C1194 1.379 . S
C1194 H1178 0.931 . S
C1194 C1188 1.383 . S
C1194 C1193 1.379 . S
H1195 C1189 0.959 . S
H1196 C1189 0.961 . S
H1197 C1189 0.960 . S
H1198 C1190 0.930 . S
H1199 C1191 0.929 . S
H1200 C1208 0.929 . S
H1201 C1210 0.930 . S
H1202 C1212 0.930 . S
H1203 C1215 0.929 . S
H1204 C1218 0.930 . S
H1205 C1220 0.960 . S
H1206 C1220 0.960 1_545 S
H1207 C1220 0.958 1_445 S
C1208 H1200 0.929 . S
C1208 C1209 1.377 1_655 S
C1208 C1210 1.384 . S
C1209 C1208 1.377 1_455 S
C1209 C1215 1.390 . S
C1210 H1201 0.930 . S
C1210 C1208 1.384 . S
C1210 C1211 1.372 1_655 S
C1211 C1210 1.372 1_455 S
C1211 C1212 1.400 . S
C1211 C1216 1.490 . S
C1212 H1202 0.930 . S
C1212 C1211 1.400 . S
C1212 C1215 1.386 . S
H1213 C1229 0.930 . S
H1214 C1230 0.931 . S
C1215 H1203 0.929 . S
C1215 C1209 1.390 . S
C1215 C1212 1.386 . S
C1216 C1211 1.490 . S
C1216 C1218 1.395 1_554 S
C1216 C1219 1.403 1_545 S
H1217 C1223 0.930 . S
C1218 H1204 0.930 . S
C1218 C1216 1.395 1_556 S
C1218 C1221 1.403 . S
C1219 C1216 1.403 1_565 S
C1219 C1220 1.524 1_455 S
C1219 C1223 1.400 . S
C1220 H1205 0.960 . S
C1220 H1206 0.960 1_565 S
C1220 H1207 0.958 1_665 S
C1220 C1219 1.524 1_655 S
C1221 C1218 1.403 . S
C1221 C1222 1.392 1_545 S
C1221 C1225 1.495 . S
C1222 C1221 1.392 1_565 S
C1222 C1223 1.385 1_556 S
C1222 C1224 1.478 . S
C1223 H1217 0.930 . S
C1223 C1219 1.400 . S
C1223 C1222 1.385 1_554 S
C1224 C1222 1.478 . S
C1224 C1226 1.381 1_455 S
C1224 C1230 1.383 . S
C1225 C1221 1.495 . S
C1225 H1231 0.959 . S
C1225 H1232 0.947 1_545 S
C1225 H1233 0.960 . S
C1226 C1224 1.381 1_655 S
C1226 C1227 1.394 . S
C1226 H1234 0.930 . S
C1227 C1226 1.394 . S
C1227 C1228 1.383 1_655 S
C1227 H1235 0.929 . S
C1228 C1227 1.383 1_455 S
C1228 C1229 1.377 . S
C1229 H1213 0.930 . S
C1229 C1228 1.377 . S
C1229 C1230 1.379 . S
C1230 H1214 0.931 . S
C1230 C1224 1.383 . S
C1230 C1229 1.379 . S
H1231 C1225 0.959 . S
H1232 C1225 0.947 1_565 S
H1233 C1225 0.960 . S
H1234 C1226 0.930 . S
H1235 C1227 0.929 . S
H1236 C1244 0.929 . S
H1237 C1246 0.930 . S
H1238 C1248 0.930 . S
H1239 C1251 0.929 . S
H1240 C1254 0.930 . S
H1241 C1256 0.960 . S
H1242 C1256 0.960 . S
H1243 C1256 0.960 . S
C1244 H1236 0.929 . S
C1244 C1245 1.377 . S
C1244 C1246 1.384 . S
C1245 C1244 1.377 . S
C1245 C1251 1.390 . S
C1246 H1237 0.930 . S
C1246 C1244 1.384 . S
C1246 C1247 1.372 . S
C1247 C1246 1.372 . S
C1247 C1248 1.400 . S
C1247 C1252 1.490 . S
C1248 H1238 0.930 . S
C1248 C1247 1.400 . S
C1248 C1251 1.386 . S
H1249 C1265 0.930 . S
H1250 C1266 0.931 . S
C1251 H1239 0.929 . S
C1251 C1245 1.390 . S
C1251 C1248 1.386 . S
C1252 C1247 1.490 . S
C1252 C1254 1.395 . S
C1252 C1255 1.403 . S
H1253 C1259 0.930 . S
C1254 H1240 0.930 . S
C1254 C1252 1.395 . S
C1254 C1257 1.403 . S
C1255 C1252 1.403 . S
C1255 C1256 1.524 . S
C1255 C1259 1.400 . S
C1256 H1241 0.960 . S
C1256 H1242 0.960 . S
C1256 H1243 0.960 . S
C1256 C1255 1.524 . S
C1257 C1254 1.403 . S
C1257 C1258 1.392 . S
C1257 C1261 1.495 . S
C1258 C1257 1.392 . S
C1258 C1259 1.385 . S
C1258 C1260 1.478 . S
C1259 H1253 0.930 . S
C1259 C1255 1.400 . S
C1259 C1258 1.385 . S
C1260 C1258 1.478 . S
C1260 C1262 1.381 . S
C1260 C1266 1.383 . S
C1261 C1257 1.495 . S
C1261 H1267 0.959 . S
C1261 H1268 0.961 . S
C1261 H1269 0.960 . S
C1262 C1260 1.381 . S
C1262 C1263 1.394 . S
C1262 H1270 0.930 . S
C1263 C1262 1.394 . S
C1263 C1264 1.383 . S
C1263 H1271 0.929 . S
C1264 C1263 1.383 . S
C1264 C1265 1.377 . S
C1265 H1249 0.930 . S
C1265 C1264 1.377 . S
C1265 C1266 1.379 . S
C1266 H1250 0.931 . S
C1266 C1260 1.383 . S
C1266 C1265 1.379 . S
H1267 C1261 0.959 . S
H1268 C1261 0.961 . S
H1269 C1261 0.960 . S
H1270 C1262 0.930 . S
H1271 C1263 0.929 . S
H1272 C1280 0.929 . S
H1273 C1282 0.930 . S
H1274 C1284 0.930 . S
H1275 C1287 0.929 . S
H1276 C1290 0.930 . S
H1277 C1292 0.960 . S
H1278 C1292 0.960 . S
H1279 C1292 0.960 1_545 S
C1280 H1272 0.929 . S
C1280 C1281 1.377 . S
C1280 C1282 1.384 . S
C1281 C1280 1.377 . S
C1281 C1287 1.390 . S
C1282 H1273 0.930 . S
C1282 C1280 1.384 . S
C1282 C1283 1.372 . S
C1283 C1282 1.372 . S
C1283 C1284 1.400 . S
C1283 C1288 1.490 . S
C1284 H1274 0.930 . S
C1284 C1283 1.400 . S
C1284 C1287 1.386 . S
H1285 C1301 0.930 . S
H1286 C1302 0.931 . S
C1287 H1275 0.929 . S
C1287 C1281 1.390 . S
C1287 C1284 1.386 . S
C1288 C1283 1.490 . S
C1288 C1290 1.395 . S
C1288 C1291 1.403 1_545 S
H1289 C1295 0.930 . S
C1290 H1276 0.930 . S
C1290 C1288 1.395 . S
C1290 C1293 1.403 . S
C1291 C1288 1.403 1_565 S
C1291 C1292 1.524 . S
C1291 C1295 1.400 . S
C1292 H1277 0.960 . S
C1292 H1278 0.960 . S
C1292 H1279 0.960 1_565 S
C1292 C1291 1.524 . S
C1293 C1290 1.403 . S
C1293 C1294 1.392 1_545 S
C1293 C1297 1.495 . S
C1294 C1293 1.392 1_565 S
C1294 C1295 1.385 . S
C1294 C1296 1.478 . S
C1295 H1289 0.930 . S
C1295 C1291 1.400 . S
C1295 C1294 1.385 . S
C1296 C1294 1.478 . S
C1296 C1298 1.381 . S
C1296 C1302 1.383 . S
C1297 C1293 1.495 . S
C1297 H1303 0.959 . S
C1297 H1304 0.961 . S
C1297 H1305 0.940 1_545 S
C1298 C1296 1.381 . S
C1298 C1299 1.394 . S
C1298 H1306 0.930 . S
C1299 C1298 1.394 . S
C1299 C1300 1.383 . S
C1299 H1307 0.929 . S
C1300 C1299 1.383 . S
C1300 C1301 1.377 . S
C1301 H1285 0.930 . S
C1301 C1300 1.377 . S
C1301 C1302 1.379 . S
C1302 H1286 0.931 . S
C1302 C1296 1.383 . S
C1302 C1301 1.379 . S
H1303 C1297 0.959 . S
H1304 C1297 0.961 . S
H1305 C1297 0.940 1_565 S
H1306 C1298 0.930 . S
H1307 C1299 0.929 . S
H1308 C1316 0.929 . S
H1309 C1318 0.930 . S
H1310 C1320 0.930 . S
H1311 C1323 0.929 . S
H1312 C1326 0.930 . S
H1313 C1328 0.960 . S
H1314 C1328 0.960 . S
H1315 C1328 0.960 . S
C1316 H1308 0.929 . S
C1316 C1317 1.377 . S
C1316 C1318 1.384 . S
C1317 C1316 1.377 . S
C1317 C1323 1.390 . S
C1318 H1309 0.930 . S
C1318 C1316 1.384 . S
C1318 C1319 1.372 . S
C1319 C1318 1.372 . S
C1319 C1320 1.400 . S
C1319 C1324 1.490 . S
C1320 H1310 0.930 . S
C1320 C1319 1.400 . S
C1320 C1323 1.386 . S
H1321 C1337 0.930 . S
H1322 C1338 0.931 . S
C1323 H1311 0.929 . S
C1323 C1317 1.390 . S
C1323 C1320 1.386 . S
C1324 C1319 1.490 . S
C1324 C1326 1.395 . S
C1324 C1327 1.403 . S
H1325 C1331 0.930 . S
C1326 H1312 0.930 . S
C1326 C1324 1.395 . S
C1326 C1329 1.403 . S
C1327 C1324 1.403 . S
C1327 C1328 1.524 . S
C1327 C1331 1.400 . S
C1328 H1313 0.960 . S
C1328 H1314 0.960 . S
C1328 H1315 0.960 . S
C1328 C1327 1.524 . S
C1329 C1326 1.403 . S
C1329 C1330 1.392 . S
C1329 C1333 1.495 . S
C1330 C1329 1.392 . S
C1330 C1331 1.385 . S
C1330 C1332 1.478 . S
C1331 H1325 0.930 . S
C1331 C1327 1.400 . S
C1331 C1330 1.385 . S
C1332 C1330 1.478 . S
C1332 C1334 1.381 . S
C1332 C1338 1.383 . S
C1333 C1329 1.495 . S
C1333 H1339 0.959 . S
C1333 H1340 0.961 . S
C1333 H1341 0.960 . S
C1334 C1332 1.381 . S
C1334 C1335 1.394 . S
C1334 H1342 0.930 . S
C1335 C1334 1.394 . S
C1335 C1336 1.383 . S
C1335 H1343 0.929 . S
C1336 C1335 1.383 . S
C1336 C1337 1.377 . S
C1337 H1321 0.930 . S
C1337 C1336 1.377 . S
C1337 C1338 1.379 . S
C1338 H1322 0.931 . S
C1338 C1332 1.383 . S
C1338 C1337 1.379 . S
H1339 C1333 0.959 . S
H1340 C1333 0.961 . S
H1341 C1333 0.960 . S
H1342 C1334 0.930 . S
H1343 C1335 0.929 . S
H1344 C1352 0.929 . S
H1345 C1354 0.930 . S
H1346 C1356 0.930 . S
H1347 C1359 0.929 . S
H1348 C1362 0.930 . S
H1349 C1364 0.960 . S
H1350 C1364 0.960 . S
H1351 C1364 0.960 . S
C1352 H1344 0.929 . S
C1352 C1353 1.377 . S
C1352 C1354 1.384 . S
C1353 C1352 1.377 . S
C1353 C1359 1.390 . S
C1354 H1345 0.930 . S
C1354 C1352 1.384 . S
C1354 C1355 1.372 . S
C1355 C1354 1.372 . S
C1355 C1356 1.400 . S
C1355 C1360 1.490 . S
C1356 H1346 0.930 . S
C1356 C1355 1.400 . S
C1356 C1359 1.386 . S
H1357 C1373 0.930 . S
H1358 C1374 0.931 . S
C1359 H1347 0.929 . S
C1359 C1353 1.390 . S
C1359 C1356 1.386 . S
C1360 C1355 1.490 . S
C1360 C1362 1.395 . S
C1360 C1363 1.403 . S
H1361 C1367 0.930 . S
C1362 H1348 0.930 . S
C1362 C1360 1.395 . S
C1362 C1365 1.403 . S
C1363 C1360 1.403 . S
C1363 C1364 1.524 . S
C1363 C1367 1.400 . S
C1364 H1349 0.960 . S
C1364 H1350 0.960 . S
C1364 H1351 0.960 . S
C1364 C1363 1.524 . S
C1365 C1362 1.403 . S
C1365 C1366 1.392 . S
C1365 C1369 1.495 . S
C1366 C1365 1.392 . S
C1366 C1367 1.385 . S
C1366 C1368 1.478 . S
C1367 H1361 0.930 . S
C1367 C1363 1.400 . S
C1367 C1366 1.385 . S
C1368 C1366 1.478 . S
C1368 C1370 1.381 . S
C1368 C1374 1.383 . S
C1369 C1365 1.495 . S
C1369 H1375 0.959 . S
C1369 H1376 0.961 . S
C1369 H1377 0.960 . S
C1370 C1368 1.381 . S
C1370 C1371 1.394 . S
C1370 H1378 0.930 . S
C1371 C1370 1.394 . S
C1371 C1372 1.383 . S
C1371 H1379 0.929 . S
C1372 C1371 1.383 . S
C1372 C1373 1.377 . S
C1373 H1357 0.930 . S
C1373 C1372 1.377 . S
C1373 C1374 1.379 . S
C1374 H1358 0.931 . S
C1374 C1368 1.383 . S
C1374 C1373 1.379 . S
H1375 C1369 0.959 . S
H1376 C1369 0.961 . S
H1377 C1369 0.960 . S
H1378 C1370 0.930 . S
H1379 C1371 0.929 . S
H1380 C1388 0.929 . S
H1381 C1390 0.930 . S
H1382 C1392 0.930 . S
H1383 C1395 0.929 . S
H1384 C1398 0.930 . S
H1385 C1400 0.960 . S
H1386 C1400 0.960 . S
H1387 C1400 0.960 . S
C1388 H1380 0.929 . S
C1388 C1389 1.377 . S
C1388 C1390 1.384 . S
C1389 C1388 1.377 . S
C1389 C1395 1.390 . S
C1390 H1381 0.930 . S
C1390 C1388 1.384 . S
C1390 C1391 1.372 . S
C1391 C1390 1.372 . S
C1391 C1392 1.400 . S
C1391 C1396 1.490 . S
C1392 H1382 0.930 . S
C1392 C1391 1.400 . S
C1392 C1395 1.386 . S
H1393 C1409 0.930 . S
H1394 C1410 0.931 . S
C1395 H1383 0.929 . S
C1395 C1389 1.390 . S
C1395 C1392 1.386 . S
C1396 C1391 1.490 . S
C1396 C1398 1.395 . S
C1396 C1399 1.403 . S
H1397 C1403 0.930 . S
C1398 H1384 0.930 . S
C1398 C1396 1.395 . S
C1398 C1401 1.403 . S
C1399 C1396 1.403 . S
C1399 C1400 1.524 . S
C1399 C1403 1.400 . S
C1400 H1385 0.960 . S
C1400 H1386 0.960 . S
C1400 H1387 0.960 . S
C1400 C1399 1.524 . S
C1401 C1398 1.403 . S
C1401 C1402 1.392 . S
C1401 C1405 1.495 . S
C1402 C1401 1.392 . S
C1402 C1403 1.385 . S
C1402 C1404 1.478 . S
C1403 H1397 0.930 . S
C1403 C1399 1.400 . S
C1403 C1402 1.385 . S
C1404 C1402 1.478 . S
C1404 C1406 1.381 . S
C1404 C1410 1.383 . S
C1405 C1401 1.495 . S
C1405 H1411 0.959 . S
C1405 H1412 0.961 . S
C1405 H1413 0.960 . S
C1406 C1404 1.381 . S
C1406 C1407 1.394 . S
C1406 H1414 0.930 . S
C1407 C1406 1.394 . S
C1407 C1408 1.383 . S
C1407 H1415 0.929 . S
C1408 C1407 1.383 . S
C1408 C1409 1.377 . S
C1409 H1393 0.930 . S
C1409 C1408 1.377 . S
C1409 C1410 1.379 . S
C1410 H1394 0.931 . S
C1410 C1404 1.383 . S
C1410 C1409 1.379 . S
H1411 C1405 0.959 . S
H1412 C1405 0.961 . S
H1413 C1405 0.960 . S
H1414 C1406 0.930 . S
H1415 C1407 0.929 . S
H1416 C1424 0.929 . S
H1417 C1426 0.930 . S
H1418 C1428 0.930 . S
H1419 C1431 0.929 . S
H1420 C1434 0.930 . S
H1421 C1436 0.960 . S
H1422 C1436 0.960 . S
H1423 C1436 0.960 . S
C1424 H1416 0.929 . S
C1424 C1425 1.377 . S
C1424 C1426 1.384 . S
C1425 C1424 1.377 . S
C1425 C1431 1.390 . S
C1426 H1417 0.930 . S
C1426 C1424 1.384 . S
C1426 C1427 1.372 . S
C1427 C1426 1.372 . S
C1427 C1428 1.400 . S
C1427 C1432 1.490 . S
C1428 H1418 0.930 . S
C1428 C1427 1.400 . S
C1428 C1431 1.386 . S
H1429 C1445 0.930 . S
H1430 C1446 0.931 . S
C1431 H1419 0.929 . S
C1431 C1425 1.390 . S
C1431 C1428 1.386 . S
C1432 C1427 1.490 . S
C1432 C1434 1.395 . S
C1432 C1435 1.403 . S
H1433 C1439 0.930 . S
C1434 H1420 0.930 . S
C1434 C1432 1.395 . S
C1434 C1437 1.403 . S
C1435 C1432 1.403 . S
C1435 C1436 1.524 . S
C1435 C1439 1.400 . S
C1436 H1421 0.960 . S
C1436 H1422 0.960 . S
C1436 H1423 0.960 . S
C1436 C1435 1.524 . S
C1437 C1434 1.403 . S
C1437 C1438 1.392 . S
C1437 C1441 1.495 . S
C1438 C1437 1.392 . S
C1438 C1439 1.385 . S
C1438 C1440 1.478 . S
C1439 H1433 0.930 . S
C1439 C1435 1.400 . S
C1439 C1438 1.385 . S
C1440 C1438 1.478 . S
C1440 C1442 1.381 . S
C1440 C1446 1.383 . S
C1441 C1437 1.495 . S
C1441 H1447 0.959 . S
C1441 H1448 0.961 . S
C1441 H1449 0.960 . S
C1442 C1440 1.381 . S
C1442 C1443 1.394 . S
C1442 H1450 0.930 . S
C1443 C1442 1.394 . S
C1443 C1444 1.383 . S
C1443 H1451 0.929 . S
C1444 C1443 1.383 . S
C1444 C1445 1.377 . S
C1445 H1429 0.930 . S
C1445 C1444 1.377 . S
C1445 C1446 1.379 . S
C1446 H1430 0.931 . S
C1446 C1440 1.383 . S
C1446 C1445 1.379 . S
H1447 C1441 0.959 . S
H1448 C1441 0.961 . S
H1449 C1441 0.960 . S
H1450 C1442 0.930 . S
H1451 C1443 0.929 . S
H1452 C1460 0.929 . S
H1453 C1462 0.930 . S
H1454 C1464 0.930 . S
H1455 C1467 0.929 . S
H1456 C1470 0.930 . S
H1457 C1472 0.960 . S
H1458 C1472 0.960 . S
H1459 C1472 0.960 . S
C1460 H1452 0.929 . S
C1460 C1461 1.377 1_455 S
C1460 C1462 1.384 . S
C1461 C1460 1.377 1_655 S
C1461 C1467 1.390 . S
C1462 H1453 0.930 . S
C1462 C1460 1.384 . S
C1462 C1463 1.372 1_455 S
C1463 C1462 1.372 1_655 S
C1463 C1464 1.400 . S
C1463 C1468 1.490 . S
C1464 H1454 0.930 . S
C1464 C1463 1.400 . S
C1464 C1467 1.386 . S
H1465 C1481 0.930 . S
H1466 C1482 0.931 . S
C1467 H1455 0.929 . S
C1467 C1461 1.390 . S
C1467 C1464 1.386 . S
C1468 C1463 1.490 . S
C1468 C1470 1.395 1_655 S
C1468 C1471 1.403 . S
H1469 C1475 0.930 . S
C1470 H1456 0.930 . S
C1470 C1468 1.395 1_455 S
C1470 C1473 1.403 1_556 S
C1471 C1468 1.403 . S
C1471 C1472 1.524 . S
C1471 C1475 1.400 1_556 S
C1472 H1457 0.960 . S
C1472 H1458 0.960 . S
C1472 H1459 0.960 . S
C1472 C1471 1.524 . S
C1473 C1470 1.403 1_554 S
C1473 C1474 1.436 . S
C1473 C1477 1.495 . S
C1474 C1473 1.436 . S
C1474 C1475 1.340 1_455 S
C1474 C1476 1.478 . S
C1475 H1469 0.930 . S
C1475 C1471 1.400 1_554 S
C1475 C1474 1.340 1_655 S
C1476 C1474 1.478 . S
C1476 C1478 1.410 . S
C1476 C1482 1.352 1_455 S
C1477 C1473 1.495 . S
C1477 H1483 0.959 . S
C1477 H1484 0.961 . S
C1477 H1485 0.960 . S
C1478 C1476 1.410 . S
C1478 C1479 1.394 . S
C1478 H1486 0.930 . S
C1479 C1478 1.394 . S
C1479 C1480 1.383 1_455 S
C1479 H1487 0.929 . S
C1480 C1479 1.383 1_655 S
C1480 C1481 1.377 . S
C1481 H1465 0.930 . S
C1481 C1480 1.377 . S
C1481 C1482 1.379 . S
C1482 H1466 0.931 . S
C1482 C1476 1.352 1_655 S
C1482 C1481 1.379 . S
H1483 C1477 0.959 . S
H1484 C1477 0.961 . S
H1485 C1477 0.960 . S
H1486 C1478 0.930 . S
H1487 C1479 0.929 . S
H1488 C1496 0.929 . S
H1489 C1498 0.930 . S
H1490 C1500 0.930 . S
H1491 C1503 0.929 . S
H1492 C1506 0.930 . S
H1493 C1508 0.960 . S
H1494 C1508 0.960 . S
H1495 C1508 0.960 . S
C1496 H1488 0.929 . S
C1496 C1497 1.377 . S
C1496 C1498 1.384 . S
C1497 C1496 1.377 . S
C1497 C1503 1.390 . S
C1498 H1489 0.930 . S
C1498 C1496 1.384 . S
C1498 C1499 1.372 . S
C1499 C1498 1.372 . S
C1499 C1500 1.400 . S
C1499 C1504 1.490 . S
C1500 H1490 0.930 . S
C1500 C1499 1.400 . S
C1500 C1503 1.386 . S
H1501 C1517 0.930 . S
H1502 C1518 0.931 . S
C1503 H1491 0.929 . S
C1503 C1497 1.390 . S
C1503 C1500 1.386 . S
C1504 C1499 1.490 . S
C1504 C1506 1.395 . S
C1504 C1507 1.403 . S
H1505 C1511 0.930 . S
C1506 H1492 0.930 . S
C1506 C1504 1.395 . S
C1506 C1509 1.403 . S
C1507 C1504 1.403 . S
C1507 C1508 1.524 . S
C1507 C1511 1.400 . S
C1508 H1493 0.960 . S
C1508 H1494 0.960 . S
C1508 H1495 0.960 . S
C1508 C1507 1.524 . S
C1509 C1506 1.403 . S
C1509 C1510 1.392 . S
C1509 C1513 1.495 . S
C1510 C1509 1.392 . S
C1510 C1511 1.385 . S
C1510 C1512 1.478 . S
C1511 H1505 0.930 . S
C1511 C1507 1.400 . S
C1511 C1510 1.385 . S
C1512 C1510 1.478 . S
C1512 C1514 1.381 . S
C1512 C1518 1.383 . S
C1513 C1509 1.495 . S
C1513 H1519 0.959 . S
C1513 H1520 0.961 . S
C1513 H1521 0.960 . S
C1514 C1512 1.381 . S
C1514 C1515 1.394 . S
C1514 H1522 0.930 . S
C1515 C1514 1.394 . S
C1515 C1516 1.383 . S
C1515 H1523 0.929 . S
C1516 C1515 1.383 . S
C1516 C1517 1.377 . S
C1517 H1501 0.930 . S
C1517 C1516 1.377 . S
C1517 C1518 1.379 . S
C1518 H1502 0.931 . S
C1518 C1512 1.383 . S
C1518 C1517 1.379 . S
H1519 C1513 0.959 . S
H1520 C1513 0.961 . S
H1521 C1513 0.960 . S
H1522 C1514 0.930 . S
H1523 C1515 0.929 . S
H1524 C1532 0.929 . S
H1525 C1534 0.930 . S
H1526 C1536 0.930 . S
H1527 C1539 0.929 . S
H1528 C1542 0.930 . S
H1529 C1544 0.960 . S
H1530 C1544 0.960 . S
H1531 C1544 0.960 . S
C1532 H1524 0.929 . S
C1532 C1533 1.377 . S
C1532 C1534 1.384 . S
C1533 C1532 1.377 . S
C1533 C1539 1.390 . S
C1534 H1525 0.930 . S
C1534 C1532 1.384 . S
C1534 C1535 1.372 . S
C1535 C1534 1.372 . S
C1535 C1536 1.400 . S
C1535 C1540 1.490 . S
C1536 H1526 0.930 . S
C1536 C1535 1.400 . S
C1536 C1539 1.386 . S
H1537 C1553 0.930 . S
H1538 C1554 0.931 . S
C1539 H1527 0.929 . S
C1539 C1533 1.390 . S
C1539 C1536 1.386 . S
C1540 C1535 1.490 . S
C1540 C1542 1.395 . S
C1540 C1543 1.403 . S
H1541 C1547 0.930 . S
C1542 H1528 0.930 . S
C1542 C1540 1.395 . S
C1542 C1545 1.403 . S
C1543 C1540 1.403 . S
C1543 C1544 1.524 . S
C1543 C1547 1.400 . S
C1544 H1529 0.960 . S
C1544 H1530 0.960 . S
C1544 H1531 0.960 . S
C1544 C1543 1.524 . S
C1545 C1542 1.403 . S
C1545 C1546 1.392 . S
C1545 C1549 1.495 . S
C1546 C1545 1.392 . S
C1546 C1547 1.385 . S
C1546 C1548 1.478 . S
C1547 H1541 0.930 . S
C1547 C1543 1.400 . S
C1547 C1546 1.385 . S
C1548 C1546 1.478 . S
C1548 C1550 1.381 . S
C1548 C1554 1.383 . S
C1549 C1545 1.495 . S
C1549 H1555 0.959 . S
C1549 H1556 0.961 . S
C1549 H1557 0.960 . S
C1550 C1548 1.381 . S
C1550 C1551 1.394 . S
C1550 H1558 0.930 . S
C1551 C1550 1.394 . S
C1551 C1552 1.383 . S
C1551 H1559 0.929 . S
C1552 C1551 1.383 . S
C1552 C1553 1.377 . S
C1553 H1537 0.930 . S
C1553 C1552 1.377 . S
C1553 C1554 1.379 . S
C1554 H1538 0.931 . S
C1554 C1548 1.383 . S
C1554 C1553 1.379 . S
H1555 C1549 0.959 . S
H1556 C1549 0.961 . S
H1557 C1549 0.960 . S
H1558 C1550 0.930 . S
H1559 C1551 0.929 . S
H1560 C1568 0.929 . S
H1561 C1570 0.930 . S
H1562 C1572 0.930 . S
H1563 C1575 0.925 1_554 S
H1564 C1578 0.930 . S
H1565 C1580 0.960 . S
H1566 C1580 0.960 . S
H1567 C1580 0.960 . S
C1568 H1560 0.929 . S
C1568 C1569 1.377 . S
C1568 C1570 1.384 1_554 S
C1569 C1568 1.377 . S
C1569 C1575 1.390 1_554 S
C1570 H1561 0.930 . S
C1570 C1568 1.384 1_556 S
C1570 C1571 1.372 . S
C1571 C1570 1.372 . S
C1571 C1572 1.400 . S
C1571 C1576 1.490 . S
C1572 H1562 0.930 . S
C1572 C1571 1.400 . S
C1572 C1575 1.386 . S
H1573 C1589 0.930 . S
H1574 C1590 0.931 . S
C1575 H1563 0.925 1_556 S
C1575 C1569 1.390 1_556 S
C1575 C1572 1.386 . S
C1576 C1571 1.490 . S
C1576 C1578 1.395 . S
C1576 C1579 1.403 . S
H1577 C1583 0.930 . S
C1578 H1564 0.930 . S
C1578 C1576 1.395 . S
C1578 C1581 1.403 . S
C1579 C1576 1.403 . S
C1579 C1580 1.524 . S
C1579 C1583 1.400 . S
C1580 H1565 0.960 . S
C1580 H1566 0.960 . S
C1580 H1567 0.960 . S
C1580 C1579 1.524 . S
C1581 C1578 1.403 . S
C1581 C1582 1.392 . S
C1581 C1585 1.495 . S
C1582 C1581 1.392 . S
C1582 C1583 1.385 . S
C1582 C1584 1.478 . S
C1583 H1577 0.930 . S
C1583 C1579 1.400 . S
C1583 C1582 1.385 . S
C1584 C1582 1.478 . S
C1584 C1586 1.381 . S
C1584 C1590 1.383 . S
C1585 C1581 1.495 . S
C1585 H1591 0.959 . S
C1585 H1592 0.961 . S
C1585 H1593 0.960 . S
C1586 C1584 1.381 . S
C1586 C1587 1.394 . S
C1586 H1594 0.930 . S
C1587 C1586 1.394 . S
C1587 C1588 1.383 . S
C1587 H1595 0.929 . S
C1588 C1587 1.383 . S
C1588 C1589 1.377 . S
C1589 H1573 0.930 . S
C1589 C1588 1.377 . S
C1589 C1590 1.379 . S
C1590 H1574 0.931 . S
C1590 C1584 1.383 . S
C1590 C1589 1.379 . S
H1591 C1585 0.959 . S
H1592 C1585 0.961 . S
H1593 C1585 0.960 . S
H1594 C1586 0.930 . S
H1595 C1587 0.929 . S
H1596 C1604 0.929 . S
H1597 C1606 0.930 . S
H1598 C1608 0.930 . S
H1599 C1611 0.929 . S
H1600 C1614 0.930 . S
H1601 C1616 0.960 . S
H1602 C1616 0.960 . S
H1603 C1616 0.960 . S
C1604 H1596 0.929 . S
C1604 C1605 1.377 . S
C1604 C1606 1.384 . S
C1605 C1604 1.377 . S
C1605 C1611 1.390 . S
C1606 H1597 0.930 . S
C1606 C1604 1.384 . S
C1606 C1607 1.372 . S
C1607 C1606 1.372 . S
C1607 C1608 1.400 . S
C1607 C1612 1.490 . S
C1608 H1598 0.930 . S
C1608 C1607 1.400 . S
C1608 C1611 1.386 . S
H1609 C1625 0.930 . S
H1610 C1626 0.931 . S
C1611 H1599 0.929 . S
C1611 C1605 1.390 . S
C1611 C1608 1.386 . S
C1612 C1607 1.490 . S
C1612 C1614 1.395 . S
C1612 C1615 1.403 . S
H1613 C1619 0.930 . S
C1614 H1600 0.930 . S
C1614 C1612 1.395 . S
C1614 C1617 1.403 . S
C1615 C1612 1.403 . S
C1615 C1616 1.524 . S
C1615 C1619 1.400 . S
C1616 H1601 0.960 . S
C1616 H1602 0.960 . S
C1616 H1603 0.960 . S
C1616 C1615 1.524 . S
C1617 C1614 1.403 . S
C1617 C1618 1.392 . S
C1617 C1621 1.495 . S
C1618 C1617 1.392 . S
C1618 C1619 1.385 . S
C1618 C1620 1.478 . S
C1619 H1613 0.930 . S
C1619 C1615 1.400 . S
C1619 C1618 1.385 . S
C1620 C1618 1.478 . S
C1620 C1622 1.381 . S
C1620 C1626 1.383 . S
C1621 C1617 1.495 . S
C1621 H1627 0.959 . S
C1621 H1628 0.961 . S
C1621 H1629 0.960 . S
C1622 C1620 1.381 . S
C1622 C1623 1.394 1_554 S
C1622 H1630 0.930 . S
C1623 C1622 1.394 1_556 S
C1623 C1624 1.383 . S
C1623 H1631 0.929 . S
C1624 C1623 1.383 . S
C1624 C1625 1.377 1_556 S
C1625 H1609 0.930 . S
C1625 C1624 1.377 1_554 S
C1625 C1626 1.379 . S
C1626 H1610 0.931 . S
C1626 C1620 1.383 . S
C1626 C1625 1.379 . S
H1627 C1621 0.959 . S
H1628 C1621 0.961 . S
H1629 C1621 0.960 . S
H1630 C1622 0.930 . S
H1631 C1623 0.929 . S
H1632 C1640 0.929 . S
H1633 C1642 0.930 . S
H1634 C1644 0.930 . S
H1635 C1647 0.929 . S
H1636 C1650 0.930 . S
H1637 C1652 0.960 . S
H1638 C1652 0.960 . S
H1639 C1652 0.960 . S
C1640 H1632 0.929 . S
C1640 C1641 1.377 . S
C1640 C1642 1.384 . S
C1641 C1640 1.377 . S
C1641 C1647 1.390 . S
C1642 H1633 0.930 . S
C1642 C1640 1.384 . S
C1642 C1643 1.372 . S
C1643 C1642 1.372 . S
C1643 C1644 1.400 . S
C1643 C1648 1.490 . S
C1644 H1634 0.930 . S
C1644 C1643 1.400 . S
C1644 C1647 1.386 . S
H1645 C1661 0.930 . S
H1646 C1662 0.931 . S
C1647 H1635 0.929 . S
C1647 C1641 1.390 . S
C1647 C1644 1.386 . S
C1648 C1643 1.490 . S
C1648 C1650 1.395 . S
C1648 C1651 1.403 . S
H1649 C1655 0.930 . S
C1650 H1636 0.930 . S
C1650 C1648 1.395 . S
C1650 C1653 1.403 . S
C1651 C1648 1.403 . S
C1651 C1652 1.524 . S
C1651 C1655 1.400 . S
C1652 H1637 0.960 . S
C1652 H1638 0.960 . S
C1652 H1639 0.960 . S
C1652 C1651 1.524 . S
C1653 C1650 1.403 . S
C1653 C1654 1.392 . S
C1653 C1657 1.495 . S
C1654 C1653 1.392 . S
C1654 C1655 1.385 . S
C1654 C1656 1.478 . S
C1655 H1649 0.930 . S
C1655 C1651 1.400 . S
C1655 C1654 1.385 . S
C1656 C1654 1.478 . S
C1656 C1658 1.381 . S
C1656 C1662 1.383 . S
C1657 C1653 1.495 . S
C1657 H1663 0.959 . S
C1657 H1664 0.961 . S
C1657 H1665 0.960 . S
C1658 C1656 1.381 . S
C1658 C1659 1.394 . S
C1658 H1666 0.930 . S
C1659 C1658 1.394 . S
C1659 C1660 1.383 . S
C1659 H1667 0.929 . S
C1660 C1659 1.383 . S
C1660 C1661 1.377 . S
C1661 H1645 0.930 . S
C1661 C1660 1.377 . S
C1661 C1662 1.379 . S
C1662 H1646 0.931 . S
C1662 C1656 1.383 . S
C1662 C1661 1.379 . S
H1663 C1657 0.959 . S
H1664 C1657 0.961 . S
H1665 C1657 0.960 . S
H1666 C1658 0.930 . S
H1667 C1659 0.929 . S
H1668 C1676 0.929 . S
H1669 C1678 0.930 . S
H1670 C1680 0.930 . S
H1671 C1683 0.929 . S
H1672 C1686 0.930 . S
H1673 C1688 0.960 . S
H1674 C1688 0.960 . S
H1675 C1688 0.960 . S
C1676 H1668 0.929 . S
C1676 C1677 1.377 . S
C1676 C1678 1.384 . S
C1677 C1676 1.377 . S
C1677 C1683 1.390 . S
C1678 H1669 0.930 . S
C1678 C1676 1.384 . S
C1678 C1679 1.372 . S
C1679 C1678 1.372 . S
C1679 C1680 1.400 . S
C1679 C1684 1.490 . S
C1680 H1670 0.930 . S
C1680 C1679 1.400 . S
C1680 C1683 1.386 . S
H1681 C1697 0.930 . S
H1682 C1698 0.931 . S
C1683 H1671 0.929 . S
C1683 C1677 1.390 . S
C1683 C1680 1.386 . S
C1684 C1679 1.490 . S
C1684 C1686 1.395 . S
C1684 C1687 1.403 . S
H1685 C1691 0.930 . S
C1686 H1672 0.930 . S
C1686 C1684 1.395 . S
C1686 C1689 1.403 . S
C1687 C1684 1.403 . S
C1687 C1688 1.524 . S
C1687 C1691 1.400 . S
C1688 H1673 0.960 . S
C1688 H1674 0.960 . S
C1688 H1675 0.960 . S
C1688 C1687 1.524 . S
C1689 C1686 1.403 . S
C1689 C1690 1.392 . S
C1689 C1693 1.495 . S
C1690 C1689 1.392 . S
C1690 C1691 1.385 . S
C1690 C1692 1.478 . S
C1691 H1685 0.930 . S
C1691 C1687 1.400 . S
C1691 C1690 1.385 . S
C1692 C1690 1.478 . S
C1692 C1694 1.381 . S
C1692 C1698 1.383 . S
C1693 C1689 1.495 . S
C1693 H1699 0.959 . S
C1693 H1700 0.961 . S
C1693 H1701 0.960 . S
C1694 C1692 1.381 . S
C1694 C1695 1.394 . S
C1694 H1702 0.930 . S
C1695 C1694 1.394 . S
C1695 C1696 1.383 . S
C1695 H1703 0.929 . S
C1696 C1695 1.383 . S
C1696 C1697 1.377 . S
C1697 H1681 0.930 . S
C1697 C1696 1.377 . S
C1697 C1698 1.379 . S
C1698 H1682 0.931 . S
C1698 C1692 1.383 . S
C1698 C1697 1.379 . S
H1699 C1693 0.959 . S
H1700 C1693 0.961 . S
H1701 C1693 0.960 . S
H1702 C1694 0.930 . S
H1703 C1695 0.929 . S
H1704 C1712 0.929 . S
H1705 C1714 0.930 . S
H1706 C1716 0.930 . S
H1707 C1719 0.929 . S
H1708 C1722 0.930 . S
H1709 C1724 0.960 . S
H1710 C1724 0.960 . S
H1711 C1724 0.960 . S
C1712 H1704 0.929 . S
C1712 C1713 1.377 . S
C1712 C1714 1.384 1_556 S
C1713 C1712 1.377 . S
C1713 C1719 1.390 1_556 S
C1714 H1705 0.930 . S
C1714 C1712 1.384 1_554 S
C1714 C1715 1.372 . S
C1715 C1714 1.372 . S
C1715 C1716 1.400 . S
C1715 C1720 1.490 . S
C1716 H1706 0.930 . S
C1716 C1715 1.400 . S
C1716 C1719 1.386 . S
H1717 C1733 0.930 . S
H1718 C1734 0.931 . S
C1719 H1707 0.929 . S
C1719 C1713 1.390 1_554 S
C1719 C1716 1.386 . S
C1720 C1715 1.490 . S
C1720 C1722 1.395 . S
C1720 C1723 1.403 . S
H1721 C1727 0.930 . S
C1722 H1708 0.930 . S
C1722 C1720 1.395 . S
C1722 C1725 1.403 . S
C1723 C1720 1.403 . S
C1723 C1724 1.524 . S
C1723 C1727 1.400 . S
C1724 H1709 0.960 . S
C1724 H1710 0.960 . S
C1724 H1711 0.960 . S
C1724 C1723 1.524 . S
C1725 C1722 1.403 . S
C1725 C1726 1.392 . S
C1725 C1729 1.495 . S
C1726 C1725 1.392 . S
C1726 C1727 1.385 . S
C1726 C1728 1.478 . S
C1727 H1721 0.930 . S
C1727 C1723 1.400 . S
C1727 C1726 1.385 . S
C1728 C1726 1.478 . S
C1728 C1730 1.381 . S
C1728 C1734 1.383 . S
C1729 C1725 1.495 . S
C1729 H1735 0.959 . S
C1729 H1736 0.961 . S
C1729 H1737 0.960 . S
C1730 C1728 1.381 . S
C1730 C1731 1.394 . S
C1730 H1738 0.930 . S
C1731 C1730 1.394 . S
C1731 C1732 1.383 . S
C1731 H1739 0.929 . S
C1732 C1731 1.383 . S
C1732 C1733 1.377 . S
C1733 H1717 0.930 . S
C1733 C1732 1.377 . S
C1733 C1734 1.379 . S
C1734 H1718 0.931 . S
C1734 C1728 1.383 . S
C1734 C1733 1.379 . S
H1735 C1729 0.959 . S
H1736 C1729 0.961 . S
H1737 C1729 0.960 . S
H1738 C1730 0.930 . S
H1739 C1731 0.929 . S
H1740 C1748 0.929 . S
H1741 C1750 0.930 . S
H1742 C1752 0.930 . S
H1743 C1755 0.929 . S
H1744 C1758 0.930 . S
H1745 C1760 0.960 . S
H1746 C1760 0.960 . S
H1747 C1760 0.960 . S
C1748 H1740 0.929 . S
C1748 C1749 1.377 . S
C1748 C1750 1.384 . S
C1749 C1748 1.377 . S
C1749 C1755 1.390 . S
C1750 H1741 0.930 . S
C1750 C1748 1.384 . S
C1750 C1751 1.372 . S
C1751 C1750 1.372 . S
C1751 C1752 1.400 . S
C1751 C1756 1.490 . S
C1752 H1742 0.930 . S
C1752 C1751 1.400 . S
C1752 C1755 1.386 . S
H1753 C1769 0.930 . S
H1754 C1770 0.931 . S
C1755 H1743 0.929 . S
C1755 C1749 1.390 . S
C1755 C1752 1.386 . S
C1756 C1751 1.490 . S
C1756 C1758 1.395 . S
C1756 C1759 1.403 . S
H1757 C1763 0.930 . S
C1758 H1744 0.930 . S
C1758 C1756 1.395 . S
C1758 C1761 1.403 . S
C1759 C1756 1.403 . S
C1759 C1760 1.524 . S
C1759 C1763 1.400 . S
C1760 H1745 0.960 . S
C1760 H1746 0.960 . S
C1760 H1747 0.960 . S
C1760 C1759 1.524 . S
C1761 C1758 1.403 . S
C1761 C1762 1.392 . S
C1761 C1765 1.495 . S
C1762 C1761 1.392 . S
C1762 C1763 1.385 . S
C1762 C1764 1.478 . S
C1763 H1757 0.930 . S
C1763 C1759 1.400 . S
C1763 C1762 1.385 . S
C1764 C1762 1.478 . S
C1764 C1766 1.381 . S
C1764 C1770 1.383 . S
C1765 C1761 1.495 . S
C1765 H1771 0.959 . S
C1765 H1772 0.961 . S
C1765 H1773 0.960 . S
C1766 C1764 1.381 . S
C1766 C1767 1.394 1_556 S
C1766 H1774 0.930 . S
C1767 C1766 1.394 1_554 S
C1767 C1768 1.383 . S
C1767 H1775 0.929 . S
C1768 C1767 1.383 . S
C1768 C1769 1.377 1_554 S
C1769 H1753 0.930 . S
C1769 C1768 1.377 1_556 S
C1769 C1770 1.379 . S
C1770 H1754 0.931 . S
C1770 C1764 1.383 . S
C1770 C1769 1.379 . S
H1771 C1765 0.959 . S
H1772 C1765 0.961 . S
H1773 C1765 0.960 . S
H1774 C1766 0.930 . S
H1775 C1767 0.929 . S
H1776 C1784 0.929 . S
H1777 C1786 0.930 . S
H1778 C1788 0.930 . S
H1779 C1791 0.929 . S
H1780 C1794 0.930 . S
H1781 C1796 0.960 . S
H1782 C1796 0.960 . S
H1783 C1796 0.960 . S
C1784 H1776 0.929 . S
C1784 C1785 1.377 . S
C1784 C1786 1.384 . S
C1785 C1784 1.377 . S
C1785 C1791 1.390 . S
C1786 H1777 0.930 . S
C1786 C1784 1.384 . S
C1786 C1787 1.372 . S
C1787 C1786 1.372 . S
C1787 C1788 1.400 . S
C1787 C1792 1.490 . S
C1788 H1778 0.930 . S
C1788 C1787 1.400 . S
C1788 C1791 1.386 . S
H1789 C1805 0.930 . S
H1790 C1806 0.931 . S
C1791 H1779 0.929 . S
C1791 C1785 1.390 . S
C1791 C1788 1.386 . S
C1792 C1787 1.490 . S
C1792 C1794 1.395 . S
C1792 C1795 1.403 . S
H1793 C1799 0.930 . S
C1794 H1780 0.930 . S
C1794 C1792 1.395 . S
C1794 C1797 1.403 . S
C1795 C1792 1.403 . S
C1795 C1796 1.524 . S
C1795 C1799 1.400 . S
C1796 H1781 0.960 . S
C1796 H1782 0.960 . S
C1796 H1783 0.960 . S
C1796 C1795 1.524 . S
C1797 C1794 1.403 . S
C1797 C1798 1.392 . S
C1797 C1801 1.495 . S
C1798 C1797 1.392 . S
C1798 C1799 1.385 . S
C1798 C1800 1.478 . S
C1799 H1793 0.930 . S
C1799 C1795 1.400 . S
C1799 C1798 1.385 . S
C1800 C1798 1.478 . S
C1800 C1802 1.381 . S
C1800 C1806 1.383 . S
C1801 C1797 1.495 . S
C1801 H1807 0.959 . S
C1801 H1808 0.961 . S
C1801 H1809 0.960 . S
C1802 C1800 1.381 . S
C1802 C1803 1.394 1_556 S
C1802 H1810 0.930 . S
C1803 C1802 1.394 1_554 S
C1803 C1804 1.383 . S
C1803 H1811 0.929 . S
C1804 C1803 1.383 . S
C1804 C1805 1.377 1_554 S
C1805 H1789 0.930 . S
C1805 C1804 1.377 1_556 S
C1805 C1806 1.379 . S
C1806 H1790 0.931 . S
C1806 C1800 1.383 . S
C1806 C1805 1.379 . S
H1807 C1801 0.959 . S
H1808 C1801 0.961 . S
H1809 C1801 0.960 . S
H1810 C1802 0.930 . S
H1811 C1803 0.929 . S
H1812 C1820 0.929 . S
H1813 C1822 0.930 . S
H1814 C1824 0.930 . S
H1815 C1827 0.929 . S
H1816 C1830 0.930 . S
H1817 C1832 0.960 . S
H1818 C1832 0.960 . S
H1819 C1832 0.960 . S
C1820 H1812 0.929 . S
C1820 C1821 1.377 . S
C1820 C1822 1.384 . S
C1821 C1820 1.377 . S
C1821 C1827 1.390 . S
C1822 H1813 0.930 . S
C1822 C1820 1.384 . S
C1822 C1823 1.372 . S
C1823 C1822 1.372 . S
C1823 C1824 1.400 . S
C1823 C1828 1.490 . S
C1824 H1814 0.930 . S
C1824 C1823 1.400 . S
C1824 C1827 1.386 . S
H1825 C1841 0.930 1_556 S
H1826 C1842 0.931 . S
C1827 H1815 0.929 . S
C1827 C1821 1.390 . S
C1827 C1824 1.386 . S
C1828 C1823 1.490 . S
C1828 C1830 1.395 . S
C1828 C1831 1.403 . S
H1829 C1835 0.930 . S
C1830 H1816 0.930 . S
C1830 C1828 1.395 . S
C1830 C1833 1.403 . S
C1831 C1828 1.403 . S
C1831 C1832 1.524 . S
C1831 C1835 1.400 . S
C1832 H1817 0.960 . S
C1832 H1818 0.960 . S
C1832 H1819 0.960 . S
C1832 C1831 1.524 . S
C1833 C1830 1.403 . S
C1833 C1834 1.392 . S
C1833 C1837 1.495 . S
C1834 C1833 1.392 . S
C1834 C1835 1.385 . S
C1834 C1836 1.478 . S
C1835 H1829 0.930 . S
C1835 C1831 1.400 . S
C1835 C1834 1.385 . S
C1836 C1834 1.478 . S
C1836 C1838 1.381 . S
C1836 C1842 1.383 . S
C1837 C1833 1.495 . S
C1837 H1843 0.959 . S
C1837 H1844 0.961 . S
C1837 H1845 0.960 . S
C1838 C1836 1.381 . S
C1838 C1839 1.394 1_554 S
C1838 H1846 0.930 . S
C1839 C1838 1.394 1_556 S
C1839 C1840 1.383 . S
C1839 H1847 0.929 . S
C1840 C1839 1.383 . S
C1840 C1841 1.377 1_556 S
C1841 H1825 0.930 1_554 S
C1841 C1840 1.377 1_554 S
C1841 C1842 1.379 . S
C1842 H1826 0.931 . S
C1842 C1836 1.383 . S
C1842 C1841 1.379 . S
H1843 C1837 0.959 . S
H1844 C1837 0.961 . S
H1845 C1837 0.960 . S
H1846 C1838 0.930 . S
H1847 C1839 0.929 . S
H1848 C1856 0.929 . S
H1849 C1858 0.930 . S
H1850 C1860 0.930 . S
H1851 C1863 0.929 . S
H1852 C1866 0.930 . S
H1853 C1868 0.960 . S
H1854 C1868 0.960 . S
H1855 C1868 0.960 . S
C1856 H1848 0.929 . S
C1856 C1857 1.377 . S
C1856 C1858 1.384 . S
C1857 C1856 1.377 . S
C1857 C1863 1.390 . S
C1858 H1849 0.930 . S
C1858 C1856 1.384 . S
C1858 C1859 1.372 . S
C1859 C1858 1.372 . S
C1859 C1860 1.400 . S
C1859 C1864 1.490 . S
C1860 H1850 0.930 . S
C1860 C1859 1.400 . S
C1860 C1863 1.386 . S
H1861 C1877 0.930 . S
H1862 C1878 0.931 . S
C1863 H1851 0.929 . S
C1863 C1857 1.390 . S
C1863 C1860 1.386 . S
C1864 C1859 1.490 . S
C1864 C1866 1.395 . S
C1864 C1867 1.403 . S
H1865 C1871 0.930 . S
C1866 H1852 0.930 . S
C1866 C1864 1.395 . S
C1866 C1869 1.403 . S
C1867 C1864 1.403 . S
C1867 C1868 1.524 . S
C1867 C1871 1.400 . S
C1868 H1853 0.960 . S
C1868 H1854 0.960 . S
C1868 H1855 0.960 . S
C1868 C1867 1.524 . S
C1869 C1866 1.403 . S
C1869 C1870 1.392 . S
C1869 C1873 1.495 . S
C1870 C1869 1.392 . S
C1870 C1871 1.385 . S
C1870 C1872 1.478 . S
C1871 H1865 0.930 . S
C1871 C1867 1.400 . S
C1871 C1870 1.385 . S
C1872 C1870 1.478 . S
C1872 C1874 1.381 . S
C1872 C1878 1.383 . S
C1873 C1869 1.495 . S
C1873 H1879 0.959 . S
C1873 H1880 0.961 . S
C1873 H1881 0.960 . S
C1874 C1872 1.381 . S
C1874 C1875 1.394 . S
C1874 H1882 0.930 . S
C1875 C1874 1.394 . S
C1875 C1876 1.383 . S
C1875 H1883 0.929 . S
C1876 C1875 1.383 . S
C1876 C1877 1.377 . S
C1877 H1861 0.930 . S
C1877 C1876 1.377 . S
C1877 C1878 1.379 . S
C1878 H1862 0.931 . S
C1878 C1872 1.383 . S
C1878 C1877 1.379 . S
H1879 C1873 0.959 . S
H1880 C1873 0.961 . S
H1881 C1873 0.960 . S
H1882 C1874 0.930 . S
H1883 C1875 0.929 . S
H1884 C1892 0.929 . S
H1885 C1894 0.930 . S
H1886 C1896 0.930 . S
H1887 C1899 0.929 . S
H1888 C1902 0.930 . S
H1889 C1904 0.960 . S
H1890 C1904 0.960 . S
H1891 C1904 0.960 . S
C1892 H1884 0.929 . S
C1892 C1893 1.377 . S
C1892 C1894 1.384 . S
C1893 C1892 1.377 . S
C1893 C1899 1.390 . S
C1894 H1885 0.930 . S
C1894 C1892 1.384 . S
C1894 C1895 1.372 . S
C1895 C1894 1.372 . S
C1895 C1896 1.400 . S
C1895 C1900 1.490 . S
C1896 H1886 0.930 . S
C1896 C1895 1.400 . S
C1896 C1899 1.386 . S
H1897 C1913 0.930 . S
H1898 C1914 0.931 . S
C1899 H1887 0.929 . S
C1899 C1893 1.390 . S
C1899 C1896 1.386 . S
C1900 C1895 1.490 . S
C1900 C1902 1.395 . S
C1900 C1903 1.403 . S
H1901 C1907 0.930 . S
C1902 H1888 0.930 . S
C1902 C1900 1.395 . S
C1902 C1905 1.403 . S
C1903 C1900 1.403 . S
C1903 C1904 1.524 . S
C1903 C1907 1.400 . S
C1904 H1889 0.960 . S
C1904 H1890 0.960 . S
C1904 H1891 0.960 . S
C1904 C1903 1.524 . S
C1905 C1902 1.403 . S
C1905 C1906 1.392 . S
C1905 C1909 1.495 . S
C1906 C1905 1.392 . S
C1906 C1907 1.385 . S
C1906 C1908 1.478 . S
C1907 H1901 0.930 . S
C1907 C1903 1.400 . S
C1907 C1906 1.385 . S
C1908 C1906 1.478 . S
C1908 C1910 1.381 . S
C1908 C1914 1.383 . S
C1909 C1905 1.495 . S
C1909 H1915 0.959 . S
C1909 H1916 0.961 . S
C1909 H1917 0.960 . S
C1910 C1908 1.381 . S
C1910 C1911 1.394 . S
C1910 H1918 0.930 . S
C1911 C1910 1.394 . S
C1911 C1912 1.383 . S
C1911 H1919 0.929 . S
C1912 C1911 1.383 . S
C1912 C1913 1.377 . S
C1913 H1897 0.930 . S
C1913 C1912 1.377 . S
C1913 C1914 1.379 . S
C1914 H1898 0.931 . S
C1914 C1908 1.383 . S
C1914 C1913 1.379 . S
H1915 C1909 0.959 . S
H1916 C1909 0.961 . S
H1917 C1909 0.960 . S
H1918 C1910 0.930 . S
H1919 C1911 0.929 . S
H1920 C1928 0.929 . S
H1921 C1930 0.930 . S
H1922 C1932 0.930 . S
H1923 C1935 0.929 . S
H1924 C1938 0.930 . S
H1925 C1940 0.960 . S
H1926 C1940 0.960 . S
H1927 C1940 0.960 . S
C1928 H1920 0.929 . S
C1928 C1929 1.377 . S
C1928 C1930 1.384 . S
C1929 C1928 1.377 . S
C1929 C1935 1.390 . S
C1930 H1921 0.930 . S
C1930 C1928 1.384 . S
C1930 C1931 1.372 . S
C1931 C1930 1.372 . S
C1931 C1932 1.400 . S
C1931 C1936 1.490 . S
C1932 H1922 0.930 . S
C1932 C1931 1.400 . S
C1932 C1935 1.386 . S
H1933 C1949 0.930 . S
H1934 C1950 0.931 . S
C1935 H1923 0.929 . S
C1935 C1929 1.390 . S
C1935 C1932 1.386 . S
C1936 C1931 1.490 . S
C1936 C1938 1.395 . S
C1936 C1939 1.403 . S
H1937 C1943 0.930 . S
C1938 H1924 0.930 . S
C1938 C1936 1.395 . S
C1938 C1941 1.403 . S
C1939 C1936 1.403 . S
C1939 C1940 1.524 . S
C1939 C1943 1.400 . S
C1940 H1925 0.960 . S
C1940 H1926 0.960 . S
C1940 H1927 0.960 . S
C1940 C1939 1.524 . S
C1941 C1938 1.403 . S
C1941 C1942 1.392 . S
C1941 C1945 1.495 . S
C1942 C1941 1.392 . S
C1942 C1943 1.385 . S
C1942 C1944 1.478 . S
C1943 H1937 0.930 . S
C1943 C1939 1.400 . S
C1943 C1942 1.385 . S
C1944 C1942 1.478 . S
C1944 C1946 1.381 . S
C1944 C1950 1.383 . S
C1945 C1941 1.495 . S
C1945 H1951 0.959 . S
C1945 H1952 0.961 . S
C1945 H1953 0.960 . S
C1946 C1944 1.381 . S
C1946 C1947 1.394 . S
C1946 H1954 0.930 . S
C1947 C1946 1.394 . S
C1947 C1948 1.383 1_554 S
C1947 H1955 0.929 . S
C1948 C1947 1.383 1_556 S
C1948 C1949 1.377 . S
C1949 H1933 0.930 . S
C1949 C1948 1.377 . S
C1949 C1950 1.379 1_556 S
C1950 H1934 0.931 . S
C1950 C1944 1.383 . S
C1950 C1949 1.379 1_554 S
H1951 C1945 0.959 . S
H1952 C1945 0.961 . S
H1953 C1945 0.960 . S
H1954 C1946 0.930 . S
H1955 C1947 0.929 . S
H1956 C1964 0.929 . S
H1957 C1966 0.930 . S
H1958 C1968 0.930 . S
H1959 C1971 0.929 . S
H1960 C1974 0.930 . S
H1961 C1976 0.960 . S
H1962 C1976 0.960 . S
H1963 C1976 0.960 . S
C1964 H1956 0.929 . S
C1964 C1965 1.377 . S
C1964 C1966 1.384 1_554 S
C1965 C1964 1.377 . S
C1965 C1971 1.390 1_554 S
C1966 H1957 0.930 . S
C1966 C1964 1.384 1_556 S
C1966 C1967 1.372 . S
C1967 C1966 1.372 . S
C1967 C1968 1.400 . S
C1967 C1972 1.490 . S
C1968 H1958 0.930 . S
C1968 C1967 1.400 . S
C1968 C1971 1.386 . S
H1969 C1985 0.930 . S
H1970 C1986 0.931 . S
C1971 H1959 0.929 . S
C1971 C1965 1.390 1_556 S
C1971 C1968 1.386 . S
C1972 C1967 1.490 . S
C1972 C1974 1.395 . S
C1972 C1975 1.403 . S
H1973 C1979 0.930 . S
C1974 H1960 0.930 . S
C1974 C1972 1.395 . S
C1974 C1977 1.403 . S
C1975 C1972 1.403 . S
C1975 C1976 1.524 . S
C1975 C1979 1.400 . S
C1976 H1961 0.960 . S
C1976 H1962 0.960 . S
C1976 H1963 0.960 . S
C1976 C1975 1.524 . S
C1977 C1974 1.403 . S
C1977 C1978 1.392 . S
C1977 C1981 1.495 . S
C1978 C1977 1.392 . S
C1978 C1979 1.385 . S
C1978 C1980 1.478 . S
C1979 H1973 0.930 . S
C1979 C1975 1.400 . S
C1979 C1978 1.385 . S
C1980 C1978 1.478 . S
C1980 C1982 1.381 . S
C1980 C1986 1.383 . S
C1981 C1977 1.495 . S
C1981 H1987 0.959 . S
C1981 H1988 0.961 . S
C1981 H1989 0.960 . S
C1982 C1980 1.381 . S
C1982 C1983 1.394 . S
C1982 H1990 0.930 . S
C1983 C1982 1.394 . S
C1983 C1984 1.383 . S
C1983 H1991 0.929 . S
C1984 C1983 1.383 . S
C1984 C1985 1.377 . S
C1985 H1969 0.930 . S
C1985 C1984 1.377 . S
C1985 C1986 1.379 . S
C1986 H1970 0.931 . S
C1986 C1980 1.383 . S
C1986 C1985 1.379 . S
H1987 C1981 0.959 . S
H1988 C1981 0.961 . S
H1989 C1981 0.960 . S
H1990 C1982 0.930 . S
H1991 C1983 0.929 . S
H1992 C2000 0.929 . S
H1993 C2002 0.930 . S
H1994 C2004 0.930 . S
H1995 C2007 0.929 . S
H1996 C2010 0.930 . S
H1997 C2012 0.960 . S
H1998 C2012 0.960 . S
H1999 C2012 0.960 . S
C2000 H1992 0.929 . S
C2000 C2001 1.377 . S
C2000 C2002 1.384 . S
C2001 C2000 1.377 . S
C2001 C2007 1.390 . S
C2002 H1993 0.930 . S
C2002 C2000 1.384 . S
C2002 C2003 1.372 . S
C2003 C2002 1.372 . S
C2003 C2004 1.400 . S
C2003 C2008 1.490 . S
C2004 H1994 0.930 . S
C2004 C2003 1.400 . S
C2004 C2007 1.386 . S
H2005 C2021 0.930 . S
H2006 C2022 0.931 . S
C2007 H1995 0.929 . S
C2007 C2001 1.390 . S
C2007 C2004 1.386 . S
C2008 C2003 1.490 . S
C2008 C2010 1.395 . S
C2008 C2011 1.403 . S
H2009 C2015 0.930 . S
C2010 H1996 0.930 . S
C2010 C2008 1.395 . S
C2010 C2013 1.403 . S
C2011 C2008 1.403 . S
C2011 C2012 1.524 . S
C2011 C2015 1.400 . S
C2012 H1997 0.960 . S
C2012 H1998 0.960 . S
C2012 H1999 0.960 . S
C2012 C2011 1.524 . S
C2013 C2010 1.403 . S
C2013 C2014 1.392 . S
C2013 C2017 1.495 . S
C2014 C2013 1.392 . S
C2014 C2015 1.385 . S
C2014 C2016 1.478 . S
C2015 H2009 0.930 . S
C2015 C2011 1.400 . S
C2015 C2014 1.385 . S
C2016 C2014 1.478 . S
C2016 C2018 1.381 . S
C2016 C2022 1.383 . S
C2017 C2013 1.495 . S
C2017 H2023 0.959 . S
C2017 H2024 0.961 . S
C2017 H2025 0.960 . S
C2018 C2016 1.381 . S
C2018 C2019 1.394 . S
C2018 H2026 0.930 . S
C2019 C2018 1.394 . S
C2019 C2020 1.383 . S
C2019 H2027 0.929 . S
C2020 C2019 1.383 . S
C2020 C2021 1.377 . S
C2021 H2005 0.930 . S
C2021 C2020 1.377 . S
C2021 C2022 1.379 . S
C2022 H2006 0.931 . S
C2022 C2016 1.383 . S
C2022 C2021 1.379 . S
H2023 C2017 0.959 . S
H2024 C2017 0.961 . S
H2025 C2017 0.960 . S
H2026 C2018 0.930 . S
H2027 C2019 0.929 . S
H2028 C2036 0.929 . S
H2029 C2038 0.930 . S
H2030 C2040 0.930 . S
H2031 C2043 0.929 . S
H2032 C2046 0.930 . S
H2033 C2048 0.960 . S
H2034 C2048 0.960 . S
H2035 C2048 0.960 . S
C2036 H2028 0.929 . S
C2036 C2037 1.377 . S
C2036 C2038 1.384 . S
C2037 C2036 1.377 . S
C2037 C2043 1.390 . S
C2038 H2029 0.930 . S
C2038 C2036 1.384 . S
C2038 C2039 1.372 . S
C2039 C2038 1.372 . S
C2039 C2040 1.400 . S
C2039 C2044 1.490 . S
C2040 H2030 0.930 . S
C2040 C2039 1.400 . S
C2040 C2043 1.386 . S
H2041 C2057 0.930 . S
H2042 C2058 0.931 . S
C2043 H2031 0.929 . S
C2043 C2037 1.390 . S
C2043 C2040 1.386 . S
C2044 C2039 1.490 . S
C2044 C2046 1.395 . S
C2044 C2047 1.403 . S
H2045 C2051 0.930 . S
C2046 H2032 0.930 . S
C2046 C2044 1.395 . S
C2046 C2049 1.403 . S
C2047 C2044 1.403 . S
C2047 C2048 1.524 . S
C2047 C2051 1.400 . S
C2048 H2033 0.960 . S
C2048 H2034 0.960 . S
C2048 H2035 0.960 . S
C2048 C2047 1.524 . S
C2049 C2046 1.403 . S
C2049 C2050 1.392 . S
C2049 C2053 1.495 . S
C2050 C2049 1.392 . S
C2050 C2051 1.385 . S
C2050 C2052 1.478 . S
C2051 H2045 0.930 . S
C2051 C2047 1.400 . S
C2051 C2050 1.385 . S
C2052 C2050 1.478 . S
C2052 C2054 1.381 . S
C2052 C2058 1.383 . S
C2053 C2049 1.495 . S
C2053 H2059 0.959 . S
C2053 H2060 0.961 . S
C2053 H2061 0.960 . S
C2054 C2052 1.381 . S
C2054 C2055 1.394 . S
C2054 H2062 0.930 . S
C2055 C2054 1.394 . S
C2055 C2056 1.383 . S
C2055 H2063 0.929 . S
C2056 C2055 1.383 . S
C2056 C2057 1.377 . S
C2057 H2041 0.930 . S
C2057 C2056 1.377 . S
C2057 C2058 1.379 . S
C2058 H2042 0.931 . S
C2058 C2052 1.383 . S
C2058 C2057 1.379 . S
H2059 C2053 0.959 . S
H2060 C2053 0.961 . S
H2061 C2053 0.960 . S
H2062 C2054 0.930 . S
H2063 C2055 0.929 . S
C345 C17 1.264 . S
C364 C161 1.321 . S
C381 C35 1.267 . S
C400 C101 1.295 . S
C417 C122 1.267 . S
C436 C59 1.295 . S
C453 C80 1.275 . S
C472 C143 1.287 . S
C489 C247 1.123 . S
C508 C100 1.062 . S
C525 C184 1.129 . S
C544 C16 1.073 . S
C561 C223 1.114 . S
C580 C142 1.079 . S
C597 C58 1.127 . S
C616 C202 1.067 . S
C633 C203 1.274 . S
C652 C269 1.292 . S
C669 C224 1.277 . S
C688 C311 1.279 . S
C705 C290 1.268 . S
C724 C185 1.316 . S
C741 C248 1.276 . S
C760 C332 1.282 . S
C777 C310 1.116 . S
C796 C79 1.173 . S
C813 C268 1.111 . S
C832 C121 1.163 . S
C849 C34 1.115 . S
C868 C331 1.075 . S
C885 C160 1.128 . S
C904 C289 1.146 . S
C921 C291 1.376 . S
C940 C18 1.327 . S
C957 C249 1.360 . S
C976 C36 1.365 . S
C993 C270 1.358 . S
C1012 C60 1.385 . S
C1029 C225 1.363 . S
C1048 C81 1.350 . S
C1065 C102 1.367 . S
C1084 C333 1.333 . S
C1101 C204 1.378 . S
C1120 C123 1.366 . S
C1137 C144 1.378 . S
C1156 C312 1.362 . S
C1173 C162 1.358 . S
C1192 C186 1.379 . S
C1209 C15 0.924 . S
C1228 C99 0.876 . S
C1245 C39 0.933 . S
C1264 C120 0.918 . S
C1281 C141 0.919 . S
C1300 C57 0.873 . S
C1317 C78 0.920 . S
C1336 C165 0.873 . S
C1353 C228 0.933 . S
C1372 C183 0.970 . S
C1389 C246 0.919 . S
C1408 C207 0.873 . S
C1425 C267 0.922 . S
C1444 C309 0.960 . S
C1461 C330 0.915 . S
C1480 C288 0.901 . S
C1497 C14 1.287 . S
C1516 C164 1.279 . S
C1533 C38 1.287 . S
C1552 C98 1.294 . S
C1569 C119 1.292 . S
C1588 C56 1.295 . S
C1605 C140 1.287 . S
C1624 C77 1.298 . S
C1641 C244 1.165 . S
C1660 C97 1.143 . S
C1677 C181 1.167 . S
C1696 C13 1.165 . S
C1713 C226 1.168 . S
C1732 C139 1.169 . S
C1749 C55 1.167 . S
C1768 C205 1.151 . S
C1785 C266 1.286 . S
C1804 C206 1.287 . S
C1821 C308 1.291 . S
C1840 C227 1.301 . S
C1857 C287 1.289 . S
C1876 C182 1.303 . S
C1893 C329 1.287 . S
C1912 C245 1.292 . S
C1929 C307 1.166 . S
C1948 C76 1.155 . S
C1965 C118 1.169 . S
C1984 C265 1.172 . S
C2001 C37 1.174 . S
C2020 C328 1.188 . S
C2037 C286 1.168 . S
C2056 C163 1.166 . S
