# Generated by pormake.
# Topology wjd, (6)-cn, num edge types: 1
# Building blocks:
#     Node 0, Type 0, BuildingBlock: KUMBUR_clean_sbu_1, # of connection points: 6
#     Node 1, Type 0, BuildingBlock: KUMBUR_clean_sbu_1, # of connection points: 6
#     Node 2, Type 0, BuildingBlock: KUMBUR_clean_sbu_1, # of connection points: 6
#     Node 3, Type 0, BuildingBlock: KUMBUR_clean_sbu_1, # of connection points: 6
#     Node 4, Type 0, BuildingBlock: KUMBUR_clean_sbu_1, # of connection points: 6
#     Node 5, Type 0, BuildingBlock: KUMBUR_clean_sbu_1, # of connection points: 6
#     Node 6, Type 0, BuildingBlock: KUMBUR_clean_sbu_1, # of connection points: 6
#     Node 7, Type 0, BuildingBlock: KUMBUR_clean_sbu_1, # of connection points: 6
#     Node 8, Type 0, BuildingBlock: KUMBUR_clean_sbu_1, # of connection points: 6
#     Node 9, Type 0, BuildingBlock: KUMBUR_clean_sbu_1, # of connection points: 6
#     Node 10, Type 0, BuildingBlock: KUMBUR_clean_sbu_1, # of connection points: 6
#     Node 11, Type 0, BuildingBlock: KUMBUR_clean_sbu_1, # of connection points: 6
#     Edge 12, Type (0, 0), BuildingBlock: XIVTED_clean_linker_0, # of connection points: 2
#     Edge 13, Type (0, 0), BuildingBlock: XIVTED_clean_linker_0, # of connection points: 2
#     Edge 14, Type (0, 0), BuildingBlock: XIVTED_clean_linker_0, # of connection points: 2
#     Edge 15, Type (0, 0), BuildingBlock: XIVTED_clean_linker_0, # of connection points: 2
#     Edge 16, Type (0, 0), BuildingBlock: XIVTED_clean_linker_0, # of connection points: 2
#     Edge 17, Type (0, 0), BuildingBlock: XIVTED_clean_linker_0, # of connection points: 2
#     Edge 18, Type (0, 0), BuildingBlock: XIVTED_clean_linker_0, # of connection points: 2
#     Edge 19, Type (0, 0), BuildingBlock: XIVTED_clean_linker_0, # of connection points: 2
#     Edge 20, Type (0, 0), BuildingBlock: XIVTED_clean_linker_0, # of connection points: 2
#     Edge 21, Type (0, 0), BuildingBlock: XIVTED_clean_linker_0, # of connection points: 2
#     Edge 22, Type (0, 0), BuildingBlock: XIVTED_clean_linker_0, # of connection points: 2
#     Edge 23, Type (0, 0), BuildingBlock: XIVTED_clean_linker_0, # of connection points: 2
#     Edge 24, Type (0, 0), BuildingBlock: XIVTED_clean_linker_0, # of connection points: 2
#     Edge 25, Type (0, 0), BuildingBlock: XIVTED_clean_linker_0, # of connection points: 2
#     Edge 26, Type (0, 0), BuildingBlock: XIVTED_clean_linker_0, # of connection points: 2
#     Edge 27, Type (0, 0), BuildingBlock: XIVTED_clean_linker_0, # of connection points: 2
#     Edge 28, Type (0, 0), BuildingBlock: XIVTED_clean_linker_0, # of connection points: 2
#     Edge 29, Type (0, 0), BuildingBlock: XIVTED_clean_linker_0, # of connection points: 2
#     Edge 30, Type (0, 0), BuildingBlock: XIVTED_clean_linker_0, # of connection points: 2
#     Edge 31, Type (0, 0), BuildingBlock: XIVTED_clean_linker_0, # of connection points: 2
#     Edge 32, Type (0, 0), BuildingBlock: XIVTED_clean_linker_0, # of connection points: 2
#     Edge 33, Type (0, 0), BuildingBlock: XIVTED_clean_linker_0, # of connection points: 2
#     Edge 34, Type (0, 0), BuildingBlock: XIVTED_clean_linker_0, # of connection points: 2
#     Edge 35, Type (0, 0), BuildingBlock: XIVTED_clean_linker_0, # of connection points: 2
#     Edge 36, Type (0, 0), BuildingBlock: XIVTED_clean_linker_0, # of connection points: 2
#     Edge 37, Type (0, 0), BuildingBlock: XIVTED_clean_linker_0, # of connection points: 2
#     Edge 38, Type (0, 0), BuildingBlock: XIVTED_clean_linker_0, # of connection points: 2
#     Edge 39, Type (0, 0), BuildingBlock: XIVTED_clean_linker_0, # of connection points: 2
#     Edge 40, Type (0, 0), BuildingBlock: XIVTED_clean_linker_0, # of connection points: 2
#     Edge 41, Type (0, 0), BuildingBlock: XIVTED_clean_linker_0, # of connection points: 2
#     Edge 42, Type (0, 0), BuildingBlock: XIVTED_clean_linker_0, # of connection points: 2
#     Edge 43, Type (0, 0), BuildingBlock: XIVTED_clean_linker_0, # of connection points: 2
#     Edge 44, Type (0, 0), BuildingBlock: XIVTED_clean_linker_0, # of connection points: 2
#     Edge 45, Type (0, 0), BuildingBlock: XIVTED_clean_linker_0, # of connection points: 2
#     Edge 46, Type (0, 0), BuildingBlock: XIVTED_clean_linker_0, # of connection points: 2
#     Edge 47, Type (0, 0), BuildingBlock: XIVTED_clean_linker_0, # of connection points: 2
# Relax obj value: 0.072
# Max RMSD: 0.186
# Mean RMSD: 0.186
data_MOF--net-wjd--node1-KUMBUR_clean_sbu_1--edge1-XIVTED_clean_linker_0
_symmetry_space_group_name_H-M    P1
_symmetry_Int_Tables_number       1
_symmetry_cell_setting            triclinic
loop_
_symmetry_equiv_pos_as_xyz
'x, y, z'
_cell_length_a     39.12227
_cell_length_b     39.174837
_cell_length_c     54.224031
_cell_angle_alpha  89.911142
_cell_angle_beta   90.188474
_cell_angle_gamma 119.98716
loop_
_atom_site_label
_atom_site_type_symbol
_atom_site_fract_x
_atom_site_fract_y
_atom_site_fract_z
_atom_type_partial_charge
Tb0 Tb 0.31587 0.07285 0.14232 0.0
C1 C 0.31774 0.21431 0.09314 0.0
N2 N 0.33395 0.19406 0.08303 0.0
C3 C 0.30613 0.19453 0.04366 0.0
C4 C 0.29413 0.22476 0.07891 0.0
C5 C 0.32928 0.1848 0.05853 0.0
C6 C 0.28828 0.2144 0.05392 0.0
C7 C 0.30836 0.24551 0.12897 0.0
C8 C 0.32463 0.22425 0.11791 0.0
C9 C 0.28415 0.2553 0.11503 0.0
C10 C 0.27711 0.24502 0.09004 0.0
Tb11 Tb 0.3726 0.18134 0.10834 0.0
N12 N 0.34818 0.21417 0.13089 0.0
C13 C 0.31769 0.25719 0.15356 0.0
C14 C 0.3608 0.22964 0.15394 0.0
C15 C 0.3447 0.24994 0.16592 0.0
H16 H 0.34368 0.17024 0.05038 0.0
H17 H 0.35409 0.26102 0.18444 0.0
H18 H 0.28153 0.08767 0.19437 0.0
H19 H 0.38219 0.983 0.12445 0.0
H20 H 0.38459 0.22836 0.16299 0.0
H21 H 0.30566 0.27338 0.16277 0.0
H22 H 0.34385 0.01569 0.11398 0.0
H23 H 0.30227 0.18691 0.02428 0.0
H24 H 0.27112 0.27127 0.12331 0.0
H25 H 0.25861 0.25302 0.07948 0.0
H26 H 0.29555 0.08786 0.23903 0.0
H27 H 0.27034 0.2219 0.04236 0.0
H28 H 0.4064 0.98649 0.16717 0.0
N29 N 0.32095 0.06786 0.1838 0.0
C30 C 0.34467 0.0539 0.19134 0.0
C31 C 0.30963 0.0783 0.22576 0.0
C32 C 0.35337 0.05315 0.21644 0.0
C33 C 0.30171 0.07812 0.20055 0.0
C34 C 0.33673 0.06712 0.23363 0.0
N35 N 0.34726 0.03797 0.15011 0.0
C36 C 0.35387 0.01681 0.13263 0.0
C37 C 0.37995 0.0199 0.1808 0.0
C38 C 0.35802 0.03792 0.17385 0.0
C39 C 0.38951 1.0007 0.16264 0.0
C40 C 0.37578 0.99855 0.13852 0.0
H41 H 0.34401 0.06856 0.253 0.0
H42 H 0.38468 0.03692 0.24273 0.0
H43 H 0.40776 1.00741 0.21145 0.0
O44 O 0.26498 0.0409 0.12038 0.0
O45 O 0.37801 0.09332 0.13306 0.0
O46 O 0.40961 0.15508 0.11318 0.0
O47 O 0.26911 0.02007 0.15629 0.0
O48 O 0.32548 0.07202 0.10296 0.0
O49 O 0.35884 0.13279 0.08191 0.0
O50 O 0.41614 0.24152 0.11229 0.0
O51 O 0.30861 0.13958 0.10484 0.0
O52 O 0.29473 0.11481 0.14352 0.0
O53 O 0.41051 0.21 0.07823 0.0
O54 O 0.39139 0.17651 0.14637 0.0
O55 O 0.33173 0.12871 0.15922 0.0
C56 C 0.40854 0.12337 0.12232 0.0
C57 C 0.207 1.00947 0.14418 0.0
C58 C 0.13544 0.9677 0.14657 0.0
C59 C 0.13341 0.99853 0.15846 0.0
C60 C 0.20421 0.03943 0.15653 0.0
C61 C 0.1676 0.03416 0.16331 0.0
C62 C 0.17245 0.97358 0.13903 0.0
C63 C 0.34007 0.09353 0.08287 0.0
C64 C 0.24607 0.01526 0.1377 0.0
C65 C 0.37732 0.03745 0.22351 0.0
C66 C 0.39045 0.02065 0.2057 0.0
C67 C 0.28445 0.12666 0.12368 0.0
C68 C 0.46167 0.27961 0.0792 0.0
C69 C 0.51558 0.3479 0.08266 0.0
C70 C 0.52229 0.34817 0.05725 0.0
C71 C 0.46918 0.28074 0.05381 0.0
C72 C 0.48512 0.31354 0.09369 0.0
C73 C 0.49922 0.31482 0.04296 0.0
C74 C 0.36844 0.15403 0.16422 0.0
C75 C 0.42877 0.24332 0.08999 0.0
H76 H 0.10527 0.99497 0.1641 0.0
H77 H 0.23032 0.06673 0.16131 0.0
H78 H 0.16576 0.05758 0.17266 0.0
H79 H 0.17447 0.95002 0.12995 0.0
H80 H 0.54572 0.37425 0.04849 0.0
H81 H 0.45158 0.25531 0.04224 0.0
H82 H 0.47996 0.3132 0.11334 0.0
H83 H 0.5047 0.31536 0.02337 0.0
Tb84 Tb 0.82967 0.64649 0.40343 0.0
C85 C 0.72246 0.6819 0.33127 0.0
N86 N 0.76188 0.70305 0.33554 0.0
C87 C 0.77406 0.71455 0.29225 0.0
C88 C 0.70721 0.67502 0.30717 0.0
C89 C 0.78773 0.72085 0.31661 0.0
C90 C 0.73365 0.69103 0.28758 0.0
C91 C 0.65616 0.64998 0.34787 0.0
C92 C 0.69733 0.66967 0.35127 0.0
C93 C 0.64061 0.64115 0.32383 0.0
C94 C 0.66613 0.65367 0.30349 0.0
Tb95 Tb 0.78057 0.70825 0.37569 0.0
N96 N 0.71354 0.67881 0.37414 0.0
C97 C 0.63207 0.64093 0.36871 0.0
C98 C 0.69049 0.67285 0.39436 0.0
C99 C 0.64936 0.65305 0.39202 0.0
H100 H 0.8189 0.73951 0.32033 0.0
H101 H 0.63107 0.64732 0.40816 0.0
H102 H 0.84896 0.67206 0.46207 0.0
H103 H 0.92597 0.67141 0.32525 0.0
H104 H 0.70382 0.6827 0.41228 0.0
H105 H 0.60023 0.62578 0.36692 0.0
H106 H 0.86338 0.63886 0.34752 0.0
H107 H 0.79461 0.72791 0.27717 0.0
H108 H 0.60901 0.62566 0.32077 0.0
H109 H 0.65382 0.6477 0.28502 0.0
H110 H 0.90778 0.71148 0.48801 0.0
H111 H 0.72277 0.68638 0.26895 0.0
H112 H 0.98729 0.71855 0.34695 0.0
N113 N 0.8818 0.68327 0.42886 0.0
C114 C 0.91807 0.70037 0.41833 0.0
C115 C 0.91106 0.70875 0.46842 0.0
C116 C 0.95246 0.72296 0.43248 0.0
C117 C 0.87778 0.6867 0.45363 0.0
C118 C 0.94857 0.72704 0.4578 0.0
N119 N 0.8865 0.67298 0.38033 0.0
C120 C 0.88873 0.6621 0.3567 0.0
C121 C 0.95766 0.71304 0.38161 0.0
C122 C 0.92045 0.69562 0.3932 0.0
C123 C 0.95933 0.70566 0.35657 0.0
C124 C 0.92476 0.67936 0.3442 0.0
H125 H 0.97429 0.74419 0.46929 0.0
H126 H 1.01621 0.75891 0.43137 0.0
H127 H 0.0208 0.75014 0.38683 0.0
O128 O 0.83575 0.59778 0.39354 0.0
O129 O 0.85279 0.7096 0.41044 0.0
O130 O 0.84392 0.72967 0.3732 0.0
O131 O 0.8284 0.60813 0.43126 0.0
O132 O 0.80518 0.63364 0.36515 0.0
O133 O 0.81973 0.69543 0.35474 0.0
O134 O 0.80024 0.75891 0.39781 0.0
O135 O 0.73872 0.64442 0.3807 0.0
O136 O 0.76584 0.61315 0.40405 0.0
O137 O 0.77497 0.75538 0.36201 0.0
O138 O 0.7747 0.69904 0.41551 0.0
O139 O 0.7948 0.65589 0.43188 0.0
C140 C 0.8651 0.73649 0.39322 0.0
C141 C 0.86902 0.58035 0.42267 0.0
C142 C 0.90105 0.5406 0.41865 0.0
C143 C 0.9325 0.56824 0.43324 0.0
C144 C 0.90044 0.60693 0.43765 0.0
C145 C 0.93208 0.60108 0.44266 0.0
C146 C 0.86936 0.547 0.41331 0.0
C147 C 0.80866 0.65936 0.34821 0.0
C148 C 0.83628 0.58734 0.41616 0.0
C149 C 0.98944 0.74109 0.42088 0.0
C150 C 0.99203 0.73626 0.39549 0.0
C151 C 0.73631 0.61421 0.39314 0.0
C152 C 0.82714 0.81676 0.37381 0.0
C153 C 0.85718 0.88808 0.37096 0.0
C154 C 0.88959 0.88976 0.35866 0.0
C155 C 0.85918 0.81904 0.36078 0.0
C156 C 0.82625 0.85142 0.37898 0.0
C157 C 0.89054 0.8554 0.35368 0.0
C158 C 0.77899 0.67899 0.43365 0.0
C159 C 0.79368 0.77813 0.38054 0.0
H160 H 0.95696 0.56389 0.43802 0.0
H161 H 0.90065 0.6321 0.44571 0.0
H162 H 0.95617 0.62187 0.45417 0.0
H163 H 0.84512 0.52623 0.40183 0.0
H164 H 0.91406 0.91771 0.35268 0.0
H165 H 0.85969 0.79278 0.35559 0.0
H166 H 0.801 0.84971 0.38835 0.0
H167 H 0.91529 0.85688 0.34385 0.0
Tb168 Tb 0.9546 0.24826 0.13757 0.0
C169 C 0.8054 0.11655 0.09186 0.0
N170 N 0.82755 0.15438 0.08387 0.0
C171 C 0.8246 0.13184 0.04246 0.0
C172 C 0.79338 0.08469 0.07546 0.0
C173 C 0.83622 0.16252 0.05946 0.0
C174 C 0.80335 0.09276 0.05051 0.0
C175 C 0.77495 0.07102 0.1259 0.0
C176 C 0.79622 0.10993 0.11684 0.0
C177 C 0.76335 0.03916 0.10966 0.0
C178 C 0.77236 0.04597 0.0845 0.0
Tb179 Tb 0.84237 0.20159 0.1128 0.0
N180 N 0.80826 0.14155 0.13216 0.0
C181 C 0.76569 0.06524 0.15099 0.0
C182 C 0.79645 0.13575 0.15627 0.0
C183 C 0.77603 0.09773 0.16614 0.0
H184 H 0.85172 0.19258 0.05298 0.0
H185 H 0.76752 0.09348 0.18537 0.0
H186 H 0.94867 0.23603 0.19866 0.0
H187 H 0.04884 0.37556 0.08285 0.0
H188 H 0.80112 0.1598 0.16797 0.0
H189 H 0.74959 0.03583 0.1587 0.0
H190 H 1.00554 0.30431 0.09111 0.0
H191 H 0.83186 0.13834 0.02315 0.0
H192 H 0.74716 1.0091 0.11634 0.0
H193 H 0.76309 0.02107 0.07221 0.0
H194 H 0.96458 0.2782 0.23548 0.0
H195 H 0.7946 0.06908 0.0373 0.0
H196 H 0.06456 0.42396 0.1165 0.0
N197 N 0.97048 0.28393 0.17333 0.0
C198 C 0.99203 0.32365 0.17065 0.0
C199 C 0.97199 0.2914 0.21732 0.0
C200 C 1.00323 0.34901 0.19119 0.0
C201 C 0.96226 0.26753 0.19634 0.0
C202 C 0.99203 0.33236 0.21472 0.0
N203 N 0.99511 0.31295 0.12836 0.0
C204 C 1.01159 0.32542 0.10561 0.0
C205 C 0.03016 0.37943 0.14374 0.0
C206 C 1.00532 0.3387 0.14737 0.0
C207 C 0.04526 0.39285 0.12008 0.0
C208 C 0.03641 0.36563 0.10102 0.0
H209 H 1.00001 0.35079 0.23101 0.0
H210 H 0.0351 0.40998 0.20315 0.0
H211 H 0.05871 0.43663 0.16154 0.0
O212 O 0.98996 0.23034 0.11853 0.0
O213 O 0.93497 0.28899 0.1235 0.0
O214 O 0.86821 0.25826 0.13185 0.0
O215 O 1.00026 0.2462 0.15677 0.0
O216 O 0.94235 0.23348 0.09861 0.0
O217 O 0.88897 0.24011 0.08605 0.0
O218 O 0.78114 0.17866 0.11438 0.0
O219 O 0.87741 0.17226 0.10753 0.0
O220 O 0.91132 0.18648 0.14361 0.0
O221 O 0.81613 0.22433 0.08859 0.0
O222 O 0.85189 0.21979 0.15224 0.0
O223 O 0.90551 0.21306 0.16262 0.0
C224 C 0.90235 0.29016 0.12776 0.0
C225 C 0.05474 0.25424 0.13376 0.0
C226 C 0.1141 0.24888 0.13047 0.0
C227 C 0.13706 0.29019 0.13032 0.0
C228 C 0.07815 0.29544 0.13356 0.0
C229 C 0.1191 0.31326 0.13163 0.0
C230 C 0.07278 0.231 0.13186 0.0
C231 C 0.92413 0.24361 0.08225 0.0
C232 C 1.01191 0.23486 0.13767 0.0
C233 C 0.02645 0.38994 0.18763 0.0
C234 C 0.03994 0.40512 0.16394 0.0
C235 C 0.89249 0.16184 0.12564 0.0
C236 C 0.75724 0.22084 0.10419 0.0
C237 C 0.69289 0.21334 0.11427 0.0
C238 C 0.71164 0.25362 0.12016 0.0
C239 C 0.77517 0.26118 0.10953 0.0
C240 C 0.71589 0.19709 0.10621 0.0
C241 C 0.75247 0.27739 0.11758 0.0
C242 C 0.87619 0.21857 0.16883 0.0
C243 C 0.78098 0.20238 0.0978 0.0
H244 H 0.16893 0.30459 0.12922 0.0
H245 H 0.06495 0.31382 0.13542 0.0
H246 H 0.13705 0.34508 0.13157 0.0
H247 H 0.05485 0.19913 0.13241 0.0
H248 H 0.69453 0.26684 0.12626 0.0
H249 H 0.80668 0.28004 0.10757 0.0
H250 H 0.70173 0.16591 0.10196 0.0
H251 H 0.76657 0.30852 0.12182 0.0
Tb252 Tb 0.37395 0.18035 0.40119 0.0
C253 C 0.31332 0.03021 0.32437 0.0
N254 N 0.29939 0.05271 0.33395 0.0
C255 C 0.26811 0.05064 0.29545 0.0
C256 C 0.30629 0.01784 0.2996 0.0
C257 C 0.27617 0.0623 0.32014 0.0
C258 C 0.28314 0.02818 0.28516 0.0
C259 C 0.34347 0.99028 0.33181 0.0
C260 C 0.33084 0.01614 0.34024 0.0
C261 C 0.3396 0.9803 0.30666 0.0
C262 C 0.32073 0.99383 0.29058 0.0
Tb263 Tb 0.31088 0.06783 0.37476 0.0
N264 N 0.33208 0.02502 0.36444 0.0
C265 C 0.35768 0.97381 0.34913 0.0
C266 C 0.3432 1.00686 0.38163 0.0
C267 C 0.35697 0.98169 0.37421 0.0
H268 H 0.26343 0.07854 0.32831 0.0
H269 H 0.36672 0.96815 0.38783 0.0
H270 H 0.3631 0.18609 0.46079 0.0
H271 H 0.33521 0.24102 0.32232 0.0
H272 H 0.34221 0.01246 0.40103 0.0
H273 H 0.3678 0.95385 0.34344 0.0
H274 H 0.37285 0.21545 0.34339 0.0
H275 H 0.24975 0.05833 0.28452 0.0
H276 H 0.34949 0.96079 0.2997 0.0
H277 H 0.3163 0.98454 0.27146 0.0
H278 H 0.32815 0.20903 0.48815 0.0
H279 H 0.27566 0.01794 0.26632 0.0
H280 H 0.29111 0.25682 0.34606 0.0
N281 N 0.34309 0.20008 0.42787 0.0
C282 C 0.32333 0.2168 0.41754 0.0
C283 C 0.32635 0.21114 0.46833 0.0
C284 C 0.3033 0.23061 0.43242 0.0
C285 C 0.34583 0.19793 0.45284 0.0
C286 C 0.30475 0.2273 0.45809 0.0
N287 N 0.34437 0.20788 0.37816 0.0
C288 C 0.35087 0.21789 0.35375 0.0
C289 C 0.30337 0.23787 0.38083 0.0
C290 C 0.32337 0.22019 0.39195 0.0
C291 C 0.30614 0.24349 0.35531 0.0
C292 C 0.33072 0.23428 0.34181 0.0
H293 H 0.28968 0.23751 0.47014 0.0
H294 H 0.26656 0.25754 0.43237 0.0
H295 H 0.26657 0.26386 0.38726 0.0
O296 O 0.40822 0.24204 0.40002 0.0
O297 O 0.3121 0.13978 0.41047 0.0
O298 O 0.29232 0.11171 0.37311 0.0
O299 O 0.425 0.20932 0.42373 0.0
O300 O 0.38764 0.1707 0.3631 0.0
O301 O 0.32671 0.1211 0.35423 0.0
O302 O 0.26876 0.04718 0.40331 0.0
O303 O 0.37436 0.08681 0.37968 0.0
O304 O 0.40869 0.15211 0.39442 0.0
O305 O 0.25616 0.01659 0.36863 0.0
O306 O 0.3377 0.0735 0.41103 0.0
O307 O 0.35372 0.13374 0.43012 0.0
C308 C 0.28477 0.12447 0.39346 0.0
C309 C 0.47567 0.26742 0.40427 0.0
C310 C 0.53177 0.33191 0.39333 0.0
C311 C 0.54708 0.3128 0.37901 0.0
C312 C 0.49125 0.2493 0.38933 0.0
C313 C 0.52704 0.27182 0.37717 0.0
C314 C 0.49624 0.30894 0.40634 0.0
C315 C 0.36287 0.1448 0.34718 0.0
C316 C 0.43544 0.2439 0.41447 0.0
C317 C 0.2825 0.24714 0.42127 0.0
C318 C 0.28239 0.2506 0.39556 0.0
C319 C 0.40685 0.11905 0.38723 0.0
C320 C 0.21963 0.97952 0.40292 0.0
C321 C 0.15511 0.92173 0.41108 0.0
C322 C 0.17346 0.90794 0.42751 0.0
C323 C 0.23734 0.96525 0.41929 0.0
C324 C 0.17865 0.95761 0.39872 0.0
C325 C 0.21424 0.92953 0.43149 0.0
C326 C 0.34361 0.09578 0.43061 0.0
C327 C 0.24277 0.01751 0.39035 0.0
H328 H 0.57456 0.32968 0.36909 0.0
H329 H 0.47517 0.21785 0.38636 0.0
H330 H 0.53883 0.25749 0.36577 0.0
H331 H 0.48372 0.32334 0.41707 0.0
H332 H 0.15631 0.88025 0.43715 0.0
H333 H 0.26885 0.98177 0.42269 0.0
H334 H 0.16502 0.96902 0.38624 0.0
H335 H 0.22796 0.91856 0.44416 0.0
Tb336 Tb 0.77549 0.70993 0.13613 0.0
C337 C 0.90743 0.69525 0.08474 0.0
N338 N 0.86917 0.67889 0.07738 0.0
C339 C 0.88979 0.69793 0.03559 0.0
C340 C 0.93855 0.71436 0.06776 0.0
C341 C 0.8599 0.67962 0.05316 0.0
C342 C 0.92928 0.71546 0.04291 0.0
C343 C 0.95456 0.71168 0.11808 0.0
C344 C 0.91524 0.69389 0.1096 0.0
C345 C 0.98572 0.73082 0.10124 0.0
C346 C 0.97774 0.73206 0.07614 0.0
Tb347 Tb 0.82309 0.64836 0.10736 0.0
N348 N 0.88427 0.67594 0.12548 0.0
C349 C 0.96137 0.7097 0.14323 0.0
C350 C 0.89092 0.67158 0.14971 0.0
C351 C 0.9294 0.68915 0.15905 0.0
H352 H 0.8295 0.66542 0.04719 0.0
H353 H 0.93436 0.68617 0.17838 0.0
H354 H 0.79543 0.72101 0.19596 0.0
H355 H 0.64072 0.65916 0.08435 0.0
H356 H 0.86709 0.65357 0.1619 0.0
H357 H 0.99113 0.72315 0.15051 0.0
H358 H 0.71259 0.68782 0.0896 0.0
H359 H 0.88236 0.69837 0.0164 0.0
H360 H 1.01611 0.74475 0.10744 0.0
H361 H 1.00209 0.74697 0.06338 0.0
H362 H 0.758 0.70214 0.23442 0.0
H363 H 0.95236 0.72974 0.02926 0.0
H364 H 0.59728 0.63842 0.12099 0.0
N365 N 0.74436 0.69586 0.17306 0.0
C366 C 0.70445 0.67866 0.17192 0.0
C367 C 0.74224 0.69499 0.21712 0.0
C368 C 0.68163 0.6685 0.19354 0.0
C369 C 0.76357 0.70508 0.1952 0.0
C370 C 0.70101 0.67637 0.21634 0.0
N371 N 0.70968 0.68154 0.1285 0.0
C372 C 0.69392 0.67813 0.10557 0.0
C373 C 0.64543 0.65582 0.14692 0.0
C374 C 0.68656 0.67213 0.14893 0.0
C375 C 0.6288 0.65079 0.12336 0.0
C376 C 0.65321 0.66228 0.10261 0.0
H377 H 0.68436 0.66878 0.23334 0.0
H378 H 0.62233 0.64321 0.2081 0.0
H379 H 0.59066 0.63231 0.16729 0.0
O380 O 0.787 0.76156 0.11701 0.0
O381 O 0.73484 0.64513 0.13329 0.0
O382 O 0.75989 0.62219 0.10301 0.0
O383 O 0.77498 0.75586 0.15577 0.0
O384 O 0.79042 0.71644 0.09702 0.0
O385 O 0.78535 0.65917 0.08115 0.0
O386 O 0.82677 0.59892 0.11968 0.0
O387 O 0.85497 0.71332 0.10528 0.0
O388 O 0.83824 0.73026 0.14164 0.0
O389 O 0.81797 0.60603 0.08153 0.0
O390 O 0.8018 0.63578 0.14642 0.0
O391 O 0.81262 0.6962 0.159 0.0
C392 C 0.73293 0.61666 0.11926 0.0
C393 C 0.82059 0.81878 0.1415 0.0
C394 C 0.85087 0.8903 0.14272 0.0
C395 C 0.8853 0.89288 0.15268 0.0
C396 C 0.85489 0.8221 0.1521 0.0
C397 C 0.88728 0.85893 0.15724 0.0
C398 C 0.8187 0.85307 0.13663 0.0
C399 C 0.78164 0.69101 0.07901 0.0
C400 C 0.7862 0.77953 0.137 0.0
C401 C 0.64044 0.65135 0.19167 0.0
C402 C 0.6224 0.64518 0.16843 0.0
C403 C 0.8637 0.73778 0.12381 0.0
C404 C 0.85651 0.57613 0.09074 0.0
C405 C 0.88676 0.53426 0.09459 0.0
C406 C 0.91426 0.55749 0.07639 0.0
C407 C 0.8845 0.59833 0.07262 0.0
C408 C 0.8577 0.54387 0.1017 0.0
C409 C 0.91321 0.58924 0.0657 0.0
C410 C 0.80424 0.66015 0.16412 0.0
C411 C 0.82551 0.58587 0.09748 0.0
H412 H 0.91057 0.92125 0.15722 0.0
H413 H 0.85627 0.79618 0.157 0.0
H414 H 0.91368 0.86114 0.16528 0.0
H415 H 0.79191 0.85074 0.12908 0.0
H416 H 0.93623 0.55062 0.06983 0.0
H417 H 0.88395 0.62237 0.06329 0.0
H418 H 0.83615 0.52646 0.11563 0.0
H419 H 0.93439 0.60654 0.0516 0.0
Tb420 Tb 0.84117 0.19449 0.40662 0.0
C421 C 0.99872 0.31402 0.34492 0.0
N422 N 0.97452 0.27437 0.34413 0.0
C423 C 0.97749 0.27576 0.29994 0.0
C424 C 1.01279 0.33637 0.32315 0.0
C425 C 0.96491 0.25483 0.32211 0.0
C426 C 1.00124 0.31678 0.30044 0.0
C427 C 0.03739 0.37271 0.36957 0.0
C428 C 1.01067 0.33198 0.36774 0.0
C429 C 0.05087 0.39539 0.34795 0.0
C430 C 0.03849 0.37729 0.32479 0.0
Tb431 Tb 0.95475 0.24387 0.38141 0.0
N432 N 0.9963 0.30922 0.38822 0.0
C433 C 0.0499 0.38921 0.39308 0.0
C434 C 1.00981 0.32466 0.4111 0.0
C435 C 0.03635 0.36498 0.41392 0.0
H436 H 0.94796 0.22303 0.32162 0.0
H437 H 0.04662 0.37725 0.43211 0.0
H438 H 0.85249 0.18375 0.46615 0.0
H439 H 0.77301 0.08959 0.33191 0.0
H440 H 1.0005 0.30572 0.42702 0.0
H441 H 0.07048 0.42042 0.3953 0.0
H442 H 0.80583 0.15536 0.35045 0.0
H443 H 0.96926 0.2602 0.28252 0.0
H444 H 0.07117 0.42685 0.34894 0.0
H445 H 0.04949 0.39506 0.30827 0.0
H446 H 0.83271 0.12842 0.4952 0.0
H447 H 1.01127 0.33288 0.28324 0.0
H448 H 0.75346 0.03086 0.35797 0.0
N449 N 0.82718 0.14657 0.43491 0.0
C450 C 0.8059 0.10901 0.4263 0.0
C451 C 0.82522 0.1226 0.47584 0.0
C452 C 0.79405 0.07659 0.44222 0.0
C453 C 0.83668 0.15388 0.45931 0.0
C454 C 0.80386 0.0838 0.46727 0.0
N455 N 0.81014 0.13542 0.38627 0.0
C456 C 0.8001 0.13068 0.36187 0.0
C457 C 0.77693 0.06475 0.39148 0.0
C458 C 0.79745 0.10328 0.40118 0.0
C459 C 0.76899 0.05997 0.36617 0.0
C460 C 0.78027 0.09306 0.35136 0.0
H461 H 0.79519 0.05966 0.48012 0.0
H462 H 0.76413 0.01289 0.44452 0.0
H463 H 0.74929 1.00252 0.40014 0.0
O464 O 0.78652 0.18698 0.39494 0.0
O465 O 0.87716 0.16567 0.40999 0.0
O466 O 0.91113 0.18264 0.37392 0.0
O467 O 0.80293 0.19702 0.43308 0.0
O468 O 0.85208 0.21792 0.36841 0.0
O469 O 0.90413 0.21018 0.35756 0.0
O470 O 0.98783 0.22654 0.40337 0.0
O471 O 0.9367 0.28817 0.38872 0.0
O472 O 0.87075 0.25748 0.40153 0.0
O473 O 0.99983 0.23779 0.36463 0.0
O474 O 0.93957 0.22934 0.42017 0.0
O475 O 0.88642 0.23462 0.43357 0.0
C476 C 0.89325 0.15708 0.39164 0.0
C477 C 0.7345 0.15651 0.42325 0.0
C478 C 0.66294 0.12498 0.41695 0.0
C479 C 0.65796 0.09366 0.43208 0.0
C480 C 0.72842 0.12541 0.43889 0.0
C481 C 0.69046 0.09405 0.44302 0.0
C482 C 0.70152 0.15641 0.41253 0.0
C483 C 0.87742 0.21965 0.35179 0.0
C484 C 0.77484 0.18833 0.4171 0.0
C485 C 0.77342 0.03821 0.43259 0.0
C486 C 0.76501 0.03232 0.4073 0.0
C487 C 0.90432 0.28855 0.39519 0.0
C488 C 0.05262 0.24704 0.39015 0.0
C489 C 0.11087 0.24061 0.39609 0.0
C490 C 0.1331 0.28111 0.4013 0.0
C491 C 0.0754 0.28757 0.3948 0.0
C492 C 0.07055 0.22372 0.3905 0.0
C493 C 0.11543 0.30445 0.40049 0.0
C494 C 0.9234 0.24234 0.436 0.0
C495 C 1.01016 0.22821 0.38511 0.0
H496 H 0.62875 0.06936 0.43608 0.0
H497 H 0.75284 0.12524 0.44803 0.0
H498 H 0.68617 0.07008 0.45498 0.0
H499 H 0.70589 0.18052 0.40062 0.0
H500 H 0.16428 0.2948 0.40556 0.0
H501 H 0.06248 0.30619 0.39399 0.0
H502 H 0.05304 0.19238 0.38677 0.0
H503 H 0.13282 0.33574 0.4042 0.0
Tb504 Tb 0.1901 0.37304 0.61156 0.0
C505 C 0.04386 0.3501 0.66741 0.0
N506 N 0.06354 0.33004 0.6706 0.0
C507 C 0.06242 0.33758 0.71447 0.0
C508 C 0.0342 0.36628 0.68758 0.0
C509 C 0.07071 0.32158 0.69384 0.0
C510 C 0.04473 0.36067 0.7113 0.0
C511 C 1.00822 0.37011 0.6398 0.0
C512 C 0.03087 0.35187 0.644 0.0
C513 C 1.00011 0.38804 0.6596 0.0
C514 C 1.01309 0.38614 0.68346 0.0
Tb515 Tb 0.07777 0.30763 0.63529 0.0
N516 N 0.03949 0.33437 0.62538 0.0
C517 C 0.99361 0.3688 0.61598 0.0
C518 C 0.02308 0.3305 0.60256 0.0
C519 C 1.00056 0.34834 0.59737 0.0
H520 H 0.08222 0.30192 0.69662 0.0
H521 H 0.98837 0.34607 0.5791 0.0
H522 H 0.18169 0.3582 0.55123 0.0
H523 H 0.26668 0.3381 0.68238 0.0
H524 H 0.0276 0.31385 0.58841 0.0
H525 H 0.97601 0.38245 0.61196 0.0
H526 H 0.23283 0.37142 0.66601 0.0
H527 H 0.06909 0.33155 0.73281 0.0
H528 H 0.98301 0.40256 0.65678 0.0
H529 H 1.00569 0.39911 0.69869 0.0
H530 H 0.20073 0.32436 0.52056 0.0
H531 H 0.03787 0.37262 0.72732 0.0
H532 H 0.28373 0.29869 0.65481 0.0
N533 N 0.20534 0.34231 0.58167 0.0
C534 C 0.22716 0.3259 0.58913 0.0
C535 C 0.20795 0.32421 0.53983 0.0
C536 C 0.23872 0.30632 0.57223 0.0
C537 C 0.19678 0.34296 0.55732 0.0
C538 C 0.22869 0.30549 0.54733 0.0
N539 N 0.22509 0.347 0.62983 0.0
C540 C 0.23732 0.35235 0.65389 0.0
C541 C 0.25787 0.30952 0.62252 0.0
C542 C 0.23666 0.32764 0.61403 0.0
C543 C 0.26764 0.31238 0.64754 0.0
C544 C 0.25781 0.33436 0.6632 0.0
H545 H 0.2371 0.29081 0.53375 0.0
H546 H 0.26843 0.27254 0.56802 0.0
H547 H 0.28501 0.27515 0.61203 0.0
O548 O 0.25132 0.41155 0.61298 0.0
O549 O 0.15532 0.30898 0.60562 0.0
O550 O 0.11941 0.28644 0.64089 0.0
O551 O 0.21514 0.42416 0.58926 0.0
O552 O 0.18028 0.37885 0.65138 0.0
O553 O 0.12554 0.3187 0.66116 0.0
O554 O 0.03962 0.25497 0.61635 0.0
O555 O 0.09893 0.36791 0.62086 0.0
O556 O 0.16393 0.40164 0.63259 0.0
O557 O 0.03156 0.26139 0.65481 0.0
O558 O 0.09044 0.30449 0.59646 0.0
O559 O 0.14337 0.36493 0.58445 0.0
C560 C 0.14048 0.28294 0.62339 0.0
C561 C 0.27257 0.47822 0.6073 0.0
C562 C 0.33562 0.53555 0.61937 0.0
C563 C 0.31485 0.5534 0.62872 0.0
C564 C 0.25265 0.49684 0.61661 0.0
C565 C 0.27373 0.53424 0.62719 0.0
C566 C 0.31418 0.49791 0.60848 0.0
C567 C 0.15663 0.35229 0.66766 0.0
C568 C 0.25049 0.43717 0.59826 0.0
C569 C 0.25953 0.28799 0.5807 0.0
C570 C 0.26892 0.28944 0.60578 0.0
C571 C 0.13094 0.40082 0.62709 0.0
C572 C 0.97511 0.21711 0.6324 0.0
C573 C 0.91377 0.15419 0.6298 0.0
C574 C 0.89247 0.17429 0.63062 0.0
C575 C 0.95344 0.23678 0.63311 0.0
C576 C 0.9552 0.17585 0.63038 0.0
C577 C 0.91228 0.21539 0.63202 0.0
C578 C 0.10849 0.33296 0.58021 0.0
C579 C 0.0181 0.23848 0.63571 0.0
H580 H 0.33051 0.58247 0.63693 0.0
H581 H 0.22081 0.48229 0.61594 0.0
H582 H 0.25809 0.54836 0.63437 0.0
H583 H 0.32972 0.48348 0.60156 0.0
H584 H 0.8605 0.15814 0.63014 0.0
H585 H 0.96817 0.26845 0.63505 0.0
H586 H 0.97185 0.16051 0.6302 0.0
H587 H 0.89565 0.23066 0.63268 0.0
Tb588 Tb 0.24577 0.9424 0.87282 0.0
C589 C 0.12601 0.79462 0.93169 0.0
N590 N 0.16478 0.81889 0.93714 0.0
C591 C 0.1492 0.81637 0.98007 0.0
C592 C 0.09713 0.78052 0.95033 0.0
C593 C 0.17678 0.82973 0.96094 0.0
C594 C 0.1092 0.79168 0.97476 0.0
C595 C 0.07525 0.76048 0.90073 0.0
C596 C 0.11528 0.78478 0.90716 0.0
C597 C 0.04635 0.74621 0.91925 0.0
C598 C 0.05727 0.75614 0.94399 0.0
Tb599 Tb 0.20701 0.83629 0.9047 0.0
N600 N 0.14402 0.79986 0.88964 0.0
C601 C 0.06547 0.7512 0.87587 0.0
C602 C 0.13472 0.78877 0.86558 0.0
C603 C 0.09539 0.76512 0.85826 0.0
H604 H 0.20768 0.84776 0.96535 0.0
H605 H 0.08825 0.75698 0.83908 0.0
H606 H 0.21677 0.92989 0.81442 0.0
H607 H 0.38774 0.03077 0.91642 0.0
H608 H 0.15721 0.79664 0.85197 0.0
H609 H 0.03505 0.7327 0.87014 0.0
H610 H 0.31558 0.98667 0.91542 0.0
H611 H 0.15884 0.82487 0.99892 0.0
H612 H 1.01545 0.72749 0.91464 0.0
H613 H 0.03463 0.74498 0.95806 0.0
H614 H 0.24862 0.9481 0.77345 0.0
H615 H 0.08792 0.7814 0.98963 0.0
H616 H 0.4252 0.05224 0.87733 0.0
N617 N 0.271 0.95921 0.83415 0.0
C618 C 0.31079 0.98267 0.83291 0.0
C619 C 0.26646 0.95791 0.79003 0.0
C620 C 0.33015 0.99455 0.81002 0.0
C621 C 0.24855 0.94725 0.81321 0.0
C622 C 0.30746 0.98153 0.78842 0.0
N623 N 0.31228 0.98244 0.87642 0.0
C624 C 0.33155 0.99572 0.89839 0.0
C625 C 0.3733 0.02029 0.85434 0.0
C626 C 0.33209 0.99522 0.85475 0.0
C627 C 0.3935 0.03289 0.87684 0.0
C628 C 0.37247 0.02078 0.89895 0.0
H629 H 0.32124 0.98989 0.77044 0.0
H630 H 0.38684 0.02855 0.79205 0.0
H631 H 0.42458 0.05122 0.83085 0.0
O632 O 0.23037 0.978 0.89338 0.0
O633 O 0.28912 0.92151 0.87516 0.0
O634 O 0.27022 0.8763 0.90736 0.0
O635 O 0.23768 0.98512 0.85411 0.0
O636 O 0.23695 0.93746 0.9127 0.0
O637 O 0.24444 0.88693 0.92941 0.0
O638 O 0.2065 0.78527 0.89144 0.0
O639 O 0.1707 0.86497 0.90721 0.0
O640 O 0.18421 0.89649 0.87019 0.0
O641 O 0.21578 0.80017 0.92973 0.0
O642 O 0.22564 0.84354 0.8652 0.0
O643 O 0.20885 0.88881 0.85255 0.0
C644 C 0.29578 0.89968 0.89091 0.0
C645 C 0.25007 0.041 0.87761 0.0
C646 C 0.24506 0.09987 0.88461 0.0
C647 C 0.28636 0.12216 0.88677 0.0
C648 C 0.29126 0.06374 0.87956 0.0
C649 C 0.30926 0.10417 0.88409 0.0
C650 C 0.22709 0.0592 0.8799 0.0
C651 C 0.24767 0.92235 0.9307 0.0
C652 C 0.2303 0.9981 0.87427 0.0
C653 C 0.37136 0.01914 0.80947 0.0
C654 C 0.39286 0.03205 0.83157 0.0
C655 C 0.16161 0.88218 0.88963 0.0
C656 C 0.17957 0.73189 0.91971 0.0
C657 C 0.15027 0.66066 0.91317 0.0
C658 C 0.12126 0.65402 0.93072 0.0
C659 C 0.15117 0.7239 0.93801 0.0
C660 C 0.17945 0.69987 0.90758 0.0
C661 C 0.12192 0.6854 0.94311 0.0
C662 C 0.22028 0.86347 0.84741 0.0
C663 C 0.20914 0.77331 0.91338 0.0
H664 H 0.30093 0.1536 0.89012 0.0
H665 H 0.30943 0.05032 0.87774 0.0
H666 H 0.34107 0.12162 0.88559 0.0
H667 H 0.19521 0.04162 0.87847 0.0
H668 H 0.09877 0.6243 0.93552 0.0
H669 H 0.15164 0.74726 0.94871 0.0
H670 H 0.20179 0.70538 0.89392 0.0
H671 H 0.10001 0.67984 0.95707 0.0
Tb672 Tb 0.65249 0.81853 0.60503 0.0
C673 C 0.66992 0.69059 0.66133 0.0
N674 N 0.68392 0.72885 0.66774 0.0
C675 C 0.65959 0.7091 0.70887 0.0
C676 C 0.64922 0.65988 0.67834 0.0
C677 C 0.68012 0.73855 0.69134 0.0
C678 C 0.64388 0.66956 0.70233 0.0
C679 C 0.66242 0.64323 0.63003 0.0
C680 C 0.67594 0.68244 0.63737 0.0
C681 C 0.64121 0.61236 0.64678 0.0
C682 C 0.63458 0.62066 0.67087 0.0
Tb683 Tb 0.7149 0.77421 0.63725 0.0
N684 N 0.69615 0.71309 0.62157 0.0
C685 C 0.67162 0.63637 0.6063 0.0
C686 C 0.70868 0.70669 0.59952 0.0
C687 C 0.69563 0.66834 0.59118 0.0
H688 H 0.69361 0.76904 0.6968 0.0
H689 H 0.70493 0.66354 0.57337 0.0
H690 H 0.67359 0.82459 0.54562 0.0
H691 H 0.68023 0.93035 0.67379 0.0
H692 H 0.73012 0.73089 0.58875 0.0
H693 H 0.66187 0.60669 0.59993 0.0
H694 H 0.65003 0.86314 0.65793 0.0
H695 H 0.65597 0.71689 0.72742 0.0
H696 H 0.63034 0.58201 0.64142 0.0
H697 H 0.61845 0.59659 0.68365 0.0
H698 H 0.70767 0.87713 0.51465 0.0
H699 H 0.62808 0.64682 0.71597 0.0
H700 H 0.71942 0.98684 0.64613 0.0
N701 N 0.68324 0.86448 0.57495 0.0
C702 C 0.69824 0.90268 0.58185 0.0
C703 C 0.70536 0.88471 0.53351 0.0
C704 C 0.71815 0.93361 0.56483 0.0
C705 C 0.68629 0.85503 0.55114 0.0
C706 C 0.72144 0.92417 0.54038 0.0
N707 N 0.67671 0.87989 0.62242 0.0
C708 C 0.66941 0.88676 0.646 0.0
C709 C 0.71155 0.95001 0.61446 0.0
C710 C 0.69521 0.91066 0.60642 0.0
C711 C 0.70718 0.95705 0.63919 0.0
C712 C 0.68543 0.92526 0.65491 0.0
H713 H 0.73646 0.94709 0.52672 0.0
H714 H 0.75026 0.99702 0.56004 0.0
H715 H 0.74442 0.01139 0.60348 0.0
O716 O 0.59931 0.81728 0.61545 0.0
O717 O 0.71727 0.85133 0.60277 0.0
O718 O 0.73696 0.83779 0.63948 0.0
O719 O 0.61307 0.81372 0.57707 0.0
O720 O 0.64045 0.80082 0.64456 0.0
O721 O 0.70116 0.81288 0.65832 0.0
O722 O 0.77218 0.78328 0.62822 0.0
O723 O 0.64942 0.73753 0.63731 0.0
O724 O 0.62969 0.75539 0.60191 0.0
O725 O 0.75238 0.77936 0.66611 0.0
O726 O 0.72432 0.78882 0.59772 0.0
O727 O 0.66554 0.78038 0.58127 0.0
C728 C 0.7423 0.86187 0.62114 0.0
C729 C 0.55121 0.81238 0.5842 0.0
C730 C 0.49595 0.82438 0.58945 0.0
C731 C 0.48116 0.80692 0.56639 0.0
C732 C 0.53572 0.79524 0.56114 0.0
C733 C 0.50094 0.79251 0.55236 0.0
C734 C 0.53113 0.82707 0.59847 0.0
C735 C 0.6654 0.80616 0.66264 0.0
C736 C 0.58862 0.81518 0.59252 0.0
C737 C 0.7347 0.97281 0.57282 0.0
C738 C 0.73146 0.98099 0.59758 0.0
C739 C 0.62327 0.73043 0.6198 0.0
C740 C 0.81807 0.78945 0.66174 0.0
C741 C 0.88662 0.80516 0.65773 0.0
C742 C 0.88776 0.79933 0.68323 0.0
C743 C 0.8202 0.78375 0.6872 0.0
C744 C 0.85168 0.80051 0.64692 0.0
C745 C 0.85481 0.78878 0.69781 0.0
C746 C 0.6991 0.77982 0.57929 0.0
C747 C 0.78065 0.78424 0.65156 0.0
H748 H 0.45414 0.80447 0.5592 0.0
H749 H 0.55045 0.78373 0.54984 0.0
H750 H 0.48925 0.77914 0.53458 0.0
H751 H 0.54272 0.8405 0.61628 0.0
H752 H 0.91439 0.80299 0.69191 0.0
H753 H 0.79499 0.77533 0.69907 0.0
H754 H 0.8506 0.80501 0.62727 0.0
H755 H 0.85606 0.78435 0.71743 0.0
Tb756 Tb 0.07126 0.30202 0.88367 0.0
C757 C 0.21036 0.31333 0.93313 0.0
N758 N 0.19236 0.33445 0.93852 0.0
C759 C 0.18711 0.31445 0.98094 0.0
C760 C 0.21566 0.29038 0.95114 0.0
C761 C 0.18315 0.33724 0.96249 0.0
C762 C 0.20271 0.29028 0.97515 0.0
C763 C 0.24674 0.29747 0.90357 0.0
C764 C 0.22586 0.31684 0.90982 0.0
C765 C 0.2505 0.27306 0.92105 0.0
C766 C 0.23494 0.26947 0.9448 0.0
Tb767 Tb 0.18583 0.36906 0.9062 0.0
N768 N 0.22097 0.34015 0.89333 0.0
C769 C 0.26358 0.30371 0.88007 0.0
C770 C 0.239 0.34802 0.87083 0.0
C771 C 0.26009 0.32948 0.86374 0.0
H772 H 0.17342 0.35754 0.9678 0.0
H773 H 0.2736 0.33504 0.8457 0.0
H774 H 0.07368 0.33861 0.82867 0.0
H775 H 0.96882 0.26664 0.95897 0.0
H776 H 0.23629 0.36795 0.85822 0.0
H777 H 0.27984 0.28931 0.87451 0.0
H778 H 0.01836 0.26074 0.93403 0.0
H779 H 0.17883 0.31614 0.99973 0.0
H780 H 0.26598 0.25742 0.91655 0.0
H781 H 0.23886 0.2513 0.9583 0.0
H782 H 0.0437 0.3735 0.80768 0.0
H783 H 0.20621 0.27305 0.98955 0.0
H784 H 0.94322 0.30973 0.94481 0.0
N785 N 0.04577 0.33482 0.86296 0.0
C786 C 0.01878 0.34033 0.87523 0.0
C787 C 0.03668 0.36461 0.82675 0.0
C788 C 1.00062 0.35968 0.86404 0.0
C789 C 0.05371 0.34503 0.83867 0.0
C790 C 1.01035 0.3724 0.83958 0.0
N791 N 0.02429 0.30368 0.90775 0.0
C792 C 1.00895 0.28122 0.92842 0.0
C793 C 0.97883 0.328 0.91171 0.0
C794 C 1.00822 0.32483 0.89868 0.0
C795 C 0.96579 0.30812 0.93421 0.0
C796 C 0.98024 0.28383 0.94229 0.0
H797 H 0.99708 0.38743 0.83028 0.0
H798 H 0.95891 0.38013 0.86929 0.0
H799 H 0.93971 0.35227 0.91108 0.0
O800 O 1.01569 0.24997 0.88131 0.0
O801 O 0.09941 0.36744 0.88008 0.0
O802 O 0.14521 0.39095 0.91134 0.0
O803 O 0.05915 0.26448 0.85326 0.0
O804 O 0.08889 0.29753 0.92141 0.0
O805 O 0.13837 0.35921 0.93283 0.0
O806 O 0.23198 0.42214 0.89123 0.0
O807 O 0.16273 0.31325 0.88634 0.0
O808 O 0.1013 0.27402 0.90192 0.0
O809 O 0.23032 0.40985 0.92966 0.0
O810 O 0.17427 0.37823 0.86727 0.0
O811 O 0.11712 0.31978 0.85568 0.0
C812 C 0.12535 0.3967 0.89399 0.0
C813 C 0.02078 0.19722 0.86445 0.0
C814 C 0.97974 0.12706 0.8737 0.0
C815 C 1.01333 0.12292 0.87248 0.0
C816 C 0.05359 0.19185 0.86235 0.0
C817 C 0.04996 0.1551 0.86664 0.0
C818 C 0.98354 0.16437 0.86969 0.0
C819 C 0.1049 0.3263 0.93751 0.0
C820 C 0.02576 0.23715 0.8622 0.0
C821 C 0.9729 0.3649 0.87743 0.0
C822 C 0.96206 0.34914 0.90126 0.0
C823 C 0.13533 0.27901 0.89439 0.0
C824 C 0.29296 0.441 0.91106 0.0
C825 C 0.36276 0.48409 0.90135 0.0
C826 C 0.37029 0.454 0.90855 0.0
C827 C 0.30196 0.41232 0.91927 0.0
C828 C 0.3238 0.47741 0.90246 0.0
C829 C 0.34008 0.41848 0.91758 0.0
C830 C 0.15003 0.35283 0.85053 0.0
C831 C 0.2516 0.43259 0.91184 0.0
H832 H 1.01101 0.09447 0.87542 0.0
H833 H 0.08214 0.21614 0.8574 0.0
H834 H 0.07559 0.15151 0.86529 0.0
H835 H 0.95782 0.16788 0.87099 0.0
H836 H 0.39998 0.45857 0.9081 0.0
H837 H 0.27967 0.38526 0.92742 0.0
H838 H 0.31763 0.50034 0.89679 0.0
H839 H 0.34637 0.39589 0.92375 0.0
Tb840 Tb 0.20228 0.83568 0.60896 0.0
C841 C 0.34197 0.99488 0.643 0.0
N842 N 0.30746 0.96996 0.65434 0.0
C843 C 0.3423 0.97411 0.6917 0.0
C844 C 0.37837 1.00905 0.65523 0.0
C845 C 0.30691 0.96081 0.67872 0.0
C846 C 0.37824 0.99789 0.6798 0.0
C847 C 0.37528 0.03314 0.60681 0.0
C848 C 0.34035 1.00644 0.61915 0.0
C849 C 0.41192 0.04623 0.61846 0.0
C850 C 0.41346 0.03425 0.64265 0.0
Tb851 Tb 0.2515 0.94947 0.63156 0.0
N852 N 0.30433 0.99355 0.60874 0.0
C853 C 0.37215 0.04703 0.58359 0.0
C854 C 0.30111 1.01015 0.58736 0.0
C855 C 0.33484 0.03615 0.57408 0.0
H856 H 0.27926 0.94311 0.68812 0.0
H857 H 0.33205 0.04842 0.5568 0.0
H858 H 0.20664 0.84609 0.5468 0.0
H859 H 0.07726 0.74634 0.66659 0.0
H860 H 0.27257 1.0042 0.58093 0.0
H861 H 0.39826 0.06756 0.57345 0.0
H862 H 0.14835 0.78477 0.65592 0.0
H863 H 0.34182 0.96619 0.71088 0.0
H864 H 0.43915 0.06647 0.60919 0.0
H865 H 0.44184 0.04523 0.65161 0.0
H866 H 0.16166 0.841 0.51359 0.0
H867 H 0.4056 1.00819 0.6899 0.0
H868 H 0.027 0.74068 0.63641 0.0
N869 N 0.16338 0.82901 0.57528 0.0
C870 C 0.12401 0.81145 0.5799 0.0
C871 C 0.15079 0.83334 0.53227 0.0
C872 C 0.09676 0.80619 0.56114 0.0
C873 C 0.1765 0.83717 0.55143 0.0
C874 C 0.11086 0.81862 0.53724 0.0
N875 N 0.13783 0.80105 0.62052 0.0
C876 C 0.12638 0.7822 0.64274 0.0
C877 C 0.07004 0.77485 0.60839 0.0
C878 C 0.11069 0.79598 0.60313 0.0
C879 C 0.058 0.7573 0.63166 0.0
C880 C 0.0863 0.76048 0.64877 0.0
H881 H 0.09092 0.81516 0.5223 0.0
H882 H 0.03491 0.78332 0.55251 0.0
H883 H 1.01151 0.75588 0.59396 0.0
O884 O 0.21306 0.79277 0.6251 0.0
O885 O 0.16977 0.85897 0.62857 0.0
O886 O 0.19291 0.92104 0.61377 0.0
O887 O 0.18848 0.78451 0.58881 0.0
O888 O 0.22274 0.84749 0.64796 0.0
O889 O 0.22064 0.90396 0.65945 0.0
O890 O 0.25871 1.00664 0.63205 0.0
O891 O 0.28652 0.91883 0.6343 0.0
O892 O 0.26508 0.8735 0.60248 0.0
O893 O 0.22896 0.96604 0.66147 0.0
O894 O 0.22921 0.93373 0.59372 0.0
O895 O 0.23941 0.88294 0.58192 0.0
C896 C 0.16342 0.88689 0.62076 0.0
C897 C 0.21766 0.74618 0.59925 0.0
C898 C 0.21384 0.682 0.59684 0.0
C899 C 0.24789 0.69906 0.58212 0.0
C900 C 0.25181 0.76277 0.58476 0.0
C901 C 0.26693 0.73925 0.57637 0.0
C902 C 0.1991 0.70593 0.6056 0.0
C903 C 0.22178 0.87164 0.66475 0.0
C904 C 0.1988 0.76903 0.6064 0.0
C905 C 0.05624 0.78717 0.56661 0.0
C906 C 0.04289 0.77141 0.59018 0.0
C907 C 0.29142 0.89524 0.61914 0.0
C908 C 0.20328 1.00667 0.64889 0.0
C909 C 0.1779 0.05121 0.64055 0.0
C910 C 0.13932 0.01897 0.64063 0.0
C911 C 0.16425 0.97502 0.64963 0.0
C912 C 0.20997 0.04505 0.64467 0.0
C913 C 0.13257 0.98114 0.64534 0.0
C914 C 0.23981 0.91639 0.57717 0.0
C915 C 0.23676 0.99936 0.65143 0.0
H916 H 0.25992 0.68131 0.57524 0.0
H917 H 0.2663 0.79362 0.57965 0.0
H918 H 0.29324 0.75209 0.5651 0.0
H919 H 0.17247 0.69296 0.61664 0.0
H920 H 0.11433 0.02323 0.63751 0.0
H921 H 0.15816 0.94545 0.6535 0.0
H922 H 0.23986 0.06983 0.64429 0.0
H923 H 0.10268 0.95648 0.64573 0.0
Tb924 Tb 0.71484 0.77407 0.8702 0.0
C925 C 0.71297 0.91446 0.91496 0.0
N926 N 0.69362 0.87839 0.92573 0.0
C927 C 0.71824 0.90711 0.9654 0.0
C928 C 0.73704 0.94842 0.92904 0.0
C929 C 0.69475 0.87428 0.95064 0.0
C930 C 0.73979 0.94431 0.95452 0.0
C931 C 0.72812 0.95434 0.87804 0.0
C932 C 0.70865 0.91718 0.8897 0.0
C933 C 0.75315 0.98813 0.89184 0.0
C934 C 0.75751 0.98519 0.91729 0.0
Tb935 Tb 0.65645 0.82721 0.90024 0.0
N936 N 0.68436 0.88373 0.87682 0.0
C937 C 0.721 0.9566 0.85298 0.0
C938 C 0.67381 0.88685 0.85321 0.0
C939 C 0.69298 0.92285 0.84069 0.0
H940 H 0.67742 0.84573 0.95915 0.0
H941 H 0.68528 0.92472 0.82174 0.0
H942 H 0.75244 0.82629 0.81922 0.0
H943 H 0.65305 0.61826 0.88577 0.0
H944 H 0.64953 0.86242 0.84406 0.0
H945 H 0.73546 0.98453 0.84331 0.0
H946 H 0.68768 0.68893 0.89733 0.0
H947 H 0.71955 0.90376 0.98513 0.0
H948 H 0.76871 0.0168 0.8831 0.0
H949 H 0.77653 0.01159 0.92774 0.0
H950 H 0.74758 0.81429 0.77436 0.0
H951 H 0.75802 0.96969 0.96599 0.0
H952 H 0.63447 0.59885 0.84216 0.0
N953 N 0.71426 0.76609 0.82842 0.0
C954 C 0.69322 0.72867 0.81993 0.0
C955 C 0.73196 0.78991 0.78698 0.0
C956 C 0.68948 0.72029 0.79449 0.0
C957 C 0.73483 0.79657 0.81244 0.0
C958 C 0.70869 0.75166 0.77793 0.0
N959 N 0.68617 0.70856 0.86106 0.0
C960 C 0.67919 0.68046 0.87839 0.0
C961 C 0.65958 0.65902 0.8293 0.0
C962 C 0.67856 0.69865 0.83696 0.0
C963 C 0.64918 0.62972 0.84724 0.0
C964 C 0.65971 0.64056 0.87186 0.0
H965 H 0.70694 0.74658 0.75824 0.0
H966 H 0.66461 0.67374 0.7671 0.0
H967 H 0.63833 0.61993 0.79768 0.0
O968 O 0.76437 0.79619 0.89382 0.0
O969 O 0.65356 0.73231 0.88069 0.0
O970 O 0.61902 0.7648 0.89224 0.0
O971 O 0.76295 0.76751 0.85987 0.0
O972 O 0.69982 0.76094 0.90916 0.0
O973 O 0.67139 0.79524 0.9283 0.0
O974 O 0.62124 0.85382 0.89871 0.0
O975 O 0.71939 0.84732 0.90655 0.0
O976 O 0.73495 0.83677 0.86842 0.0
O977 O 0.61093 0.81098 0.92642 0.0
O978 O 0.63923 0.80333 0.86227 0.0
O979 O 0.69898 0.81314 0.85157 0.0
C980 C 0.62143 0.73312 0.88719 0.0
C981 C 0.82336 0.82192 0.87118 0.0
C982 C 0.89543 0.85519 0.87091 0.0
C983 C 0.89582 0.88366 0.85477 0.0
C984 C 0.82488 0.8512 0.85559 0.0
C985 C 0.86084 0.88187 0.84748 0.0
C986 C 0.85866 0.82413 0.87906 0.0
C987 C 0.68661 0.7714 0.92852 0.0
C988 C 0.78479 0.78849 0.8782 0.0
C989 C 0.6683 0.68086 0.78659 0.0
C990 C 0.65333 0.65023 0.80399 0.0
C991 C 0.74477 0.8582 0.88843 0.0
C992 C 0.55535 0.81312 0.90991 0.0
C993 C 0.49692 0.81806 0.89951 0.0
C994 C 0.47658 0.77766 0.89379 0.0
C995 C 0.53436 0.77301 0.90372 0.0
C996 C 0.53632 0.83563 0.90794 0.0
C997 C 0.49516 0.75534 0.89601 0.0
C998 C 0.66262 0.80189 0.84544 0.0
C999 C 0.59786 0.83236 0.91616 0.0
H1000 H 0.92312 0.90712 0.84727 0.0
H1001 H 0.79824 0.85009 0.84932 0.0
H1002 H 0.86158 0.904 0.83516 0.0
H1003 H 0.85732 0.80174 0.89142 0.0
H1004 H 0.44616 0.7633 0.88761 0.0
H1005 H 0.54848 0.75546 0.90442 0.0
H1006 H 0.55248 0.86686 0.91214 0.0
H1007 H 0.47929 0.7243 0.89139 0.0
H1008 H 0.10438 0.19168 0.09746 0.0
H1009 H 0.26115 0.14875 0.16501 0.0
H1010 H 0.16847 0.25197 0.16307 0.0
H1011 H 0.23708 0.12898 0.08707 0.0
H1012 H 0.21495 0.1734 0.16758 0.0
H1013 H 0.14149 0.15609 0.09626 0.0
C1014 C 0.12595 0.19703 0.11172 0.0
C1015 C 0.13372 0.2249 0.13029 0.0
C1016 C 0.21941 0.16325 0.14996 0.0
C1017 C 0.17553 0.18422 0.12926 0.0
C1018 C 0.24557 0.14895 0.14849 0.0
C1019 C 0.25321 0.13724 0.1257 0.0
C1020 C 0.20018 0.16527 0.12859 0.0
C1021 C 0.23224 0.13816 0.10491 0.0
C1022 C 0.14714 0.17693 0.11098 0.0
C1023 C 0.16195 0.23095 0.14834 0.0
N1024 N 0.20673 0.15216 0.1068 0.0
N1025 N 0.18178 0.21075 0.14741 0.0
H1026 H 0.11292 0.90545 0.3676 0.0
H1027 H 0.90447 0.77481 0.43465 0.0
H1028 H 0.09778 0.88632 0.44613 0.0
H1029 H 0.91801 0.77492 0.3558 0.0
H1030 H 0.97431 0.82396 0.43849 0.0
H1031 H 0.04103 0.86527 0.36228 0.0
C1032 C 0.0945 0.89308 0.38373 0.0
C1033 C 0.11149 0.89896 0.40735 0.0
C1034 C 0.96206 0.81369 0.42027 0.0
C1035 C 0.02931 0.85315 0.40139 0.0
C1036 C 0.92214 0.78571 0.41809 0.0
C1037 C 0.90563 0.77055 0.39492 0.0
C1038 C 0.98585 0.82676 0.39911 0.0
C1039 C 0.9297 0.78589 0.37402 0.0
C1040 C 0.0535 0.87003 0.38066 0.0
C1041 C 0.08614 0.88204 0.42755 0.0
N1042 N 0.96879 0.81288 0.37661 0.0
N1043 N 0.04651 0.85996 0.4241 0.0
H1044 H 0.88651 0.12218 0.16801 0.0
H1045 H 0.832 0.91858 0.1015 0.0
H1046 H 0.87624 0.10755 0.08901 0.0
H1047 H 0.86516 0.94471 0.178 0.0
H1048 H 0.83757 0.98377 0.097 0.0
H1049 H 0.86956 0.05362 0.17234 0.0
C1050 C 0.88073 0.10448 0.15154 0.0
C1051 C 0.88267 0.12044 0.12812 0.0
C1052 C 0.84331 0.97501 0.11479 0.0
C1053 C 0.86302 0.04172 0.1329 0.0
C1054 C 0.83988 0.93785 0.11738 0.0
C1055 C 0.84869 0.92672 0.14006 0.0
C1056 C 0.85524 1.00074 0.13512 0.0
C1057 C 0.85876 0.95255 0.1601 0.0
C1058 C 0.87082 0.06524 0.15402 0.0
C1059 C 0.87461 0.09611 0.10742 0.0
N1060 N 0.86196 0.98839 0.15713 0.0
N1061 N 0.86514 0.05785 0.11027 0.0
H1062 H 0.25115 0.13483 0.43451 0.0
H1063 H 0.10904 0.19071 0.36023 0.0
H1064 H 0.24201 0.12983 0.35513 0.0
H1065 H 0.15625 0.23556 0.43252 0.0
H1066 H 0.14525 0.15443 0.36001 0.0
H1067 H 0.20271 0.15689 0.43596 0.0
C1068 C 0.23842 0.13778 0.41742 0.0
C1069 C 0.25103 0.13126 0.39467 0.0
C1070 C 0.14734 0.17197 0.37597 0.0
C1071 C 0.19567 0.15619 0.39618 0.0
C1072 C 0.12665 0.19247 0.37615 0.0
C1073 C 0.13002 0.21628 0.39636 0.0
C1074 C 0.17088 0.17483 0.39634 0.0
C1075 C 0.1533 0.21783 0.4165 0.0
C1076 C 0.2109 0.15042 0.41826 0.0
C1077 C 0.23325 0.13489 0.37306 0.0
N1078 N 0.17288 0.19739 0.41598 0.0
N1079 N 0.20673 0.14761 0.37432 0.0
H1080 H 0.10762 0.92338 0.10421 0.0
H1081 H 0.90193 0.76981 0.16707 0.0
H1082 H 0.07962 0.92532 0.18086 0.0
H1083 H 0.91978 0.77716 0.08835 0.0
H1084 H 0.97007 0.82207 0.17265 0.0
H1085 H 0.04247 0.86421 0.09832 0.0
C1086 C 0.08795 0.91102 0.11982 0.0
C1087 C 0.09866 0.92946 0.14297 0.0
C1088 C 0.95923 0.81228 0.15412 0.0
C1089 C 0.02449 0.86234 0.13642 0.0
C1090 C 0.92019 0.7826 0.15092 0.0
C1091 C 0.90506 0.76949 0.12719 0.0
C1092 C 0.98356 0.82901 0.13344 0.0
C1093 C 0.93034 0.78654 0.10696 0.0
C1094 C 0.05077 0.87751 0.11643 0.0
C1095 C 0.07219 0.91238 0.16261 0.0
N1096 N 0.9684 0.81554 0.11053 0.0
N1097 N 0.03634 0.87999 0.15886 0.0
H1098 H 0.84018 0.91584 0.413 0.0
H1099 H 0.89027 0.11984 0.34877 0.0
H1100 H 0.87027 0.94329 0.33628 0.0
H1101 H 0.87758 0.10187 0.42747 0.0
H1102 H 0.87542 0.05205 0.34359 0.0
H1103 H 0.84474 0.98033 0.41831 0.0
C1104 C 0.84732 0.93529 0.39727 0.0
C1105 C 0.85556 0.92469 0.37428 0.0
C1106 C 0.87572 0.06278 0.36202 0.0
C1107 C 0.86095 0.99802 0.38016 0.0
C1108 C 0.88446 0.10158 0.36499 0.0
C1109 C 0.88508 0.11635 0.38858 0.0
C1110 C 0.8678 0.03856 0.38282 0.0
C1111 C 0.87698 0.09135 0.40894 0.0
C1112 C 0.85014 0.97207 0.40032 0.0
C1113 C 0.86456 0.95076 0.35443 0.0
N1114 N 0.86868 0.05357 0.40562 0.0
N1115 N 0.86723 0.98625 0.35787 0.0
H1116 H 0.20024 0.10972 0.67449 0.0
H1117 H 0.15337 0.24495 0.58554 0.0
H1118 H 0.16584 0.08145 0.5984 0.0
H1119 H 0.15077 0.24971 0.6649 0.0
H1120 H 0.17092 0.19312 0.58874 0.0
H1121 H 0.19618 0.17005 0.66992 0.0
C1122 C 0.19286 0.11688 0.65667 0.0
C1123 C 0.18353 0.09099 0.63674 0.0
C1124 C 0.16654 0.20554 0.60544 0.0
C1125 C 0.17827 0.15914 0.63142 0.0
C1126 C 0.1566 0.23508 0.60362 0.0
C1127 C 0.15048 0.25136 0.62499 0.0
C1128 C 0.17051 0.19235 0.62881 0.0
C1129 C 0.15482 0.23753 0.64799 0.0
C1130 C 0.19016 0.15097 0.65412 0.0
C1131 C 0.1734 0.10096 0.61412 0.0
N1132 N 0.16464 0.20883 0.64931 0.0
N1133 N 0.17089 0.13422 0.61208 0.0
H1134 H 0.13263 0.91206 0.85527 0.0
H1135 H 0.91103 0.79474 0.8806 0.0
H1136 H 0.10151 0.84707 0.92372 0.0
H1137 H 0.96723 0.92191 0.87839 0.0
H1138 H 0.97589 0.80116 0.8883 0.0
H1139 H 0.0667 0.90448 0.85375 0.0
C1140 C 0.11194 0.89583 0.86986 0.0
C1141 C 0.12237 0.87916 0.88935 0.0
C1142 C 0.97352 0.82742 0.88625 0.0
C1143 C 0.04696 0.8698 0.88723 0.0
C1144 C 0.93661 0.82394 0.88199 0.0
C1145 C 0.93345 0.85785 0.87829 0.0
C1146 C 1.00729 0.86488 0.88618 0.0
C1147 C 0.96807 0.89483 0.88011 0.0
C1148 C 0.07445 0.89157 0.86891 0.0
C1149 C 0.09434 0.859 0.9079 0.0
N1150 N 1.0036 0.89732 0.88339 0.0
N1151 N 0.05752 0.85427 0.90621 0.0
H1152 H 0.76728 0.90602 0.66307 0.0
H1153 H 0.92015 0.1062 0.59578 0.0
H1154 H 0.78438 0.91312 0.58431 0.0
H1155 H 0.85938 0.10361 0.66253 0.0
H1156 H 0.88131 0.03377 0.59407 0.0
H1157 H 0.8121 0.97736 0.66597 0.0
C1158 C 0.78109 0.92254 0.64647 0.0
C1159 C 0.77235 0.90385 0.62343 0.0
C1160 C 0.87667 0.04915 0.60912 0.0
C1161 C 0.82354 0.98505 0.6266 0.0
C1162 C 0.89885 0.09027 0.61014 0.0
C1163 C 0.89253 0.11063 0.62919 0.0
C1164 C 0.84874 0.02842 0.62758 0.0
C1165 C 0.86468 0.08885 0.6474 0.0
C1166 C 0.80633 0.96319 0.6481 0.0
C1167 C 0.79049 0.92659 0.60241 0.0
N1168 N 0.84386 0.04886 0.64621 0.0
N1169 N 0.81536 0.96609 0.60448 0.0
H1170 H 0.16471 0.26077 0.85481 0.0
H1171 H 0.18938 0.09619 0.85246 0.0
H1172 H 0.12386 0.22318 0.92899 0.0
H1173 H 0.24657 0.14807 0.92157 0.0
H1174 H 0.15498 0.13426 0.85436 0.0
H1175 H 0.18436 0.21054 0.85221 0.0
C1176 C 0.15926 0.24134 0.87038 0.0
C1177 C 0.14206 0.24543 0.89199 0.0
C1178 C 0.17475 0.13681 0.86919 0.0
C1179 C 0.16546 0.18903 0.88939 0.0
C1180 C 0.1942 0.11512 0.86819 0.0
C1181 C 0.22111 0.11942 0.88676 0.0
C1182 C 0.18175 0.16229 0.88914 0.0
C1183 C 0.22639 0.14439 0.90675 0.0
C1184 C 0.17033 0.21275 0.86885 0.0
C1185 C 0.13624 0.22016 0.91185 0.0
N1186 N 0.20685 0.16495 0.90744 0.0
N1187 N 0.14878 0.19343 0.9103 0.0
H1188 H 0.12371 0.91398 0.59159 0.0
H1189 H 0.92039 0.76022 0.6522 0.0
H1190 H 0.11191 0.84609 0.65691 0.0
H1191 H 0.93519 0.8733 0.63212 0.0
H1192 H 0.98834 0.78291 0.63963 0.0
H1193 H 0.05293 0.89408 0.59503 0.0
C1194 C 0.10635 0.89522 0.60667 0.0
C1195 C 0.12322 0.88078 0.62366 0.0
C1196 C 0.97645 0.80249 0.63746 0.0
C1197 C 0.04325 0.85738 0.62719 0.0
C1198 C 0.93768 0.78946 0.64439 0.0
C1199 C 0.92243 0.81504 0.6433 0.0
C1200 C 1.00027 0.8414 0.62936 0.0
C1201 C 0.94604 0.85275 0.63315 0.0
C1202 C 0.06618 0.88376 0.60851 0.0
C1203 C 0.09976 0.85684 0.64298 0.0
N1204 N 0.98426 0.86517 0.62683 0.0
N1205 N 0.06095 0.84543 0.64399 0.0
H1206 H 0.91448 0.09579 0.84413 0.0
H1207 H 0.78984 0.90335 0.92697 0.0
H1208 H 0.95787 0.07739 0.91312 0.0
H1209 H 0.77578 0.90536 0.84815 0.0
H1210 H 0.84433 0.9719 0.92513 0.0
H1211 H 0.85477 0.03091 0.84867 0.0
C1212 C 0.91094 0.0784 0.86048 0.0
C1213 C 0.94094 0.09167 0.87827 0.0
C1214 C 0.82934 0.9572 0.90826 0.0
C1215 C 0.87338 0.01777 0.88349 0.0
C1216 C 0.79841 0.91821 0.90931 0.0
C1217 C 0.77857 0.89878 0.8877 0.0
C1218 C 0.84005 0.97687 0.88547 0.0
C1219 C 0.79061 0.91923 0.86524 0.0
C1220 C 0.87718 0.04134 0.86295 0.0
C1221 C 0.93533 0.06796 0.89899 0.0
N1222 N 0.82042 0.95726 0.86472 0.0
N1223 N 0.90222 0.03207 0.90103 0.0
H1224 H 0.42791 0.15793 0.32003 0.0
H1225 H 0.32912 0.17647 0.19473 0.0
H1226 H 0.3143 0.14989 0.31358 0.0
H1227 H 0.42652 0.15448 0.19346 0.0
H1228 H 0.33378 0.18152 0.23935 0.0
H1229 H 0.43639 0.168 0.27488 0.0
C1230 C 0.405 0.15861 0.30914 0.0
C1231 C 0.37024 0.15276 0.32043 0.0
C1232 C 0.3548 0.17639 0.22946 0.0
C1233 C 0.37991 0.1649 0.2693 0.0
C1234 C 0.35249 0.17408 0.20387 0.0
C1235 C 0.37803 0.1659 0.19035 0.0
C1236 C 0.3822 0.16938 0.24195 0.0
C1237 C 0.40683 0.16161 0.20326 0.0
C1238 C 0.40978 0.16424 0.28348 0.0
C1239 C 0.34133 0.15371 0.30559 0.0
N1240 N 0.40785 0.16287 0.22847 0.0
N1241 N 0.34684 0.15969 0.28094 0.0
H1242 H 0.86732 0.70532 0.31686 0.0
H1243 H 0.75218 0.59664 0.19253 0.0
H1244 H 0.75455 0.59839 0.31869 0.0
H1245 H 0.8626 0.70601 0.19589 0.0
H1246 H 0.75402 0.59139 0.23795 0.0
H1247 H 0.86802 0.70068 0.27217 0.0
C1248 C 0.84293 0.68035 0.30778 0.0
C1249 C 0.811 0.652 0.32154 0.0
C1250 C 0.77813 0.61615 0.22865 0.0
C1251 C 0.811 0.64683 0.26981 0.0
C1252 C 0.77727 0.61889 0.20275 0.0
C1253 C 0.80751 0.65157 0.19045 0.0
C1254 C 0.80958 0.64621 0.24217 0.0
C1255 C 0.83881 0.68018 0.2046 0.0
C1256 C 0.84319 0.67779 0.28216 0.0
C1257 C 0.77999 0.62053 0.30876 0.0
N1258 N 0.83893 0.67689 0.22953 0.0
N1259 N 0.78053 0.61896 0.28355 0.0
H1260 H 0.87121 0.16234 0.19972 0.0
H1261 H 0.86379 0.27001 0.32328 0.0
H1262 H 0.85913 0.26574 0.19777 0.0
H1263 H 0.86847 0.1625 0.32035 0.0
H1264 H 0.85658 0.2677 0.27791 0.0
H1265 H 0.86464 0.16016 0.24433 0.0
C1266 C 0.86652 0.18428 0.2088 0.0
C1267 C 0.8656 0.21418 0.19518 0.0
C1268 C 0.8586 0.24437 0.28731 0.0
C1269 C 0.85874 0.21251 0.24654 0.0
C1270 C 0.86243 0.24557 0.31312 0.0
C1271 C 0.86674 0.21644 0.32542 0.0
C1272 C 0.85894 0.2137 0.27399 0.0
C1273 C 0.86539 0.18565 0.31152 0.0
C1274 C 0.86289 0.18318 0.23432 0.0
C1275 C 0.85957 0.242 0.20775 0.0
N1276 N 0.86186 0.18525 0.28666 0.0
N1277 N 0.85684 0.24082 0.23287 0.0
H1278 H 0.18311 0.41938 0.69571 0.0
H1279 H 0.14468 0.29597 0.82028 0.0
H1280 H 0.15204 0.29737 0.69982 0.0
H1281 H 0.18109 0.41955 0.82121 0.0
H1282 H 0.1539 0.29918 0.77595 0.0
H1283 H 0.18912 0.42355 0.74109 0.0
C1284 C 0.17845 0.39381 0.70615 0.0
C1285 C 0.16692 0.35793 0.69415 0.0
C1286 C 0.16039 0.32588 0.78568 0.0
C1287 C 0.17339 0.36228 0.74568 0.0
C1288 C 0.15518 0.32404 0.81108 0.0
C1289 C 0.1621 0.35755 0.82439 0.0
C1290 C 0.17217 0.36145 0.77315 0.0
C1291 C 0.17575 0.39315 0.81156 0.0
C1292 C 0.1816 0.39609 0.73198 0.0
C1293 C 0.16074 0.3255 0.7084 0.0
N1294 N 0.17987 0.39411 0.78651 0.0
N1295 N 0.16377 0.3284 0.73331 0.0
H1296 H 0.27386 0.85536 0.81859 0.0
H1297 H 0.17185 0.87596 0.69709 0.0
H1298 H 0.1597 0.84675 0.81668 0.0
H1299 H 0.26207 0.84376 0.69237 0.0
H1300 H 0.16909 0.86623 0.74153 0.0
H1301 H 0.27212 0.85056 0.77308 0.0
C1302 C 0.24797 0.85116 0.80865 0.0
C1303 C 0.21677 0.85119 0.82132 0.0
C1304 C 0.18919 0.86069 0.73088 0.0
C1305 C 0.21498 0.84679 0.76968 0.0
C1306 C 0.19076 0.86629 0.70547 0.0
C1307 C 0.21701 0.86036 0.69107 0.0
C1308 C 0.21458 0.84972 0.74228 0.0
C1309 C 0.24104 0.84806 0.70287 0.0
C1310 C 0.24711 0.8488 0.78275 0.0
C1311 C 0.18432 0.84673 0.80761 0.0
N1312 N 0.23965 0.84362 0.72792 0.0
N1313 N 0.18449 0.84517 0.78265 0.0
H1314 H 0.71114 0.86491 0.69382 0.0
H1315 H 0.60155 0.74754 0.81637 0.0
H1316 H 0.60077 0.75547 0.69058 0.0
H1317 H 0.7072 0.86135 0.81422 0.0
H1318 H 0.59609 0.75031 0.77102 0.0
H1319 H 0.70534 0.86553 0.73838 0.0
C1320 C 0.6851 0.84141 0.70256 0.0
C1321 C 0.65623 0.81032 0.68853 0.0
C1322 C 0.61997 0.77495 0.78061 0.0
C1323 C 0.64975 0.80997 0.74001 0.0
C1324 C 0.62292 0.77345 0.80642 0.0
C1325 C 0.65462 0.80444 0.81899 0.0
C1326 C 0.64885 0.80781 0.76752 0.0
C1327 C 0.68205 0.837 0.80529 0.0
C1328 C 0.68186 0.84156 0.7281 0.0
C1329 C 0.62327 0.78034 0.70079 0.0
N1330 N 0.67859 0.83773 0.78044 0.0
N1331 N 0.62117 0.78055 0.72596 0.0
H1332 H 0.26021 0.997 0.93764 0.0
H1333 H 0.31226 0.01418 0.07898 0.0
H1334 H 0.27193 0.90628 0.97556 0.0
H1335 H 0.34881 0.11732 0.0336 0.0
H1336 H 0.29393 0.97367 0.04239 0.0
H1337 H 0.28752 0.03952 0.97319 0.0
C1338 C 0.26821 0.98561 0.95345 0.0
C1339 C 0.2633 0.94736 0.95336 0.0
C1340 C 0.30643 1.0052 0.04035 0.0
C1341 C 0.29487 0.99698 0.99472 0.0
C1342 C 0.31727 0.02878 0.06138 0.0
C1343 C 0.3327 0.06987 0.05975 0.0
C1344 C 0.3099 0.02224 0.01718 0.0
C1345 C 0.33718 0.08605 0.03603 0.0
C1346 C 0.28424 1.01039 0.97377 0.0
C1347 C 0.27475 0.93516 0.97466 0.0
N1348 N 0.32534 0.06214 0.01572 0.0
N1349 N 0.28965 0.95976 0.99456 0.0
H1350 H 0.82598 0.72409 0.4711 0.0
H1351 H 0.64873 0.72561 0.54523 0.0
H1352 H 0.70399 0.65234 0.45021 0.0
H1353 H 0.77217 0.80349 0.56064 0.0
H1354 H 0.66723 0.69696 0.51098 0.0
H1355 H 0.80585 0.74948 0.50612 0.0
C1356 C 0.79483 0.71277 0.47438 0.0
C1357 C 0.76654 0.68568 0.45801 0.0
C1358 C 0.69025 0.72053 0.52175 0.0
C1359 C 0.74318 0.71584 0.49741 0.0
C1360 C 0.67967 0.73722 0.54109 0.0
C1361 C 0.70893 0.76695 0.55585 0.0
C1362 C 0.73038 0.7337 0.51713 0.0
C1363 C 0.74861 0.78051 0.54983 0.0
C1364 C 0.78332 0.72777 0.49411 0.0
C1365 C 0.72665 0.67309 0.46254 0.0
N1366 N 0.7581 0.76365 0.53115 0.0
N1367 N 0.71613 0.68836 0.48172 0.0
H1368 H 0.08335 0.37437 0.96162 0.0
H1369 H 0.94585 0.2004 0.0551 0.0
H1370 H 0.07888 0.26253 0.96705 0.0
H1371 H 0.94904 0.31187 0.05534 0.0
H1372 H 0.99301 0.22336 0.02136 0.0
H1373 H 0.03603 0.35467 0.99606 0.0
C1374 C 0.07333 0.34622 0.97059 0.0
C1375 C 0.08497 0.31999 0.96161 0.0
C1376 C 0.98317 0.24284 0.0284 0.0
C1377 C 0.03027 0.29684 1.00028 0.0
C1378 C 0.95572 0.22944 0.04746 0.0
C1379 C 0.94302 0.254 0.05771 0.0
C1380 C 0.9987 0.28148 0.01949 0.0
C1381 C 0.9574 0.2917 0.0475 0.0
C1382 C 0.04592 0.33475 0.98995 0.0
C1383 C 0.07058 0.28356 0.97344 0.0
N1384 N 0.98483 0.3045 0.02904 0.0
N1385 N 0.04385 0.273 0.99193 0.0
H1386 H 0.30325 0.10083 0.47042 0.0
H1387 H 0.30052 0.92464 0.54738 0.0
H1388 H 0.36209 0.03978 0.44424 0.0
H1389 H 0.2088 0.95474 0.55201 0.0
H1390 H 0.32915 0.97043 0.5123 0.0
H1391 H 0.27648 0.05405 0.50501 0.0
C1392 C 0.31145 0.07831 0.47234 0.0
C1393 C 0.33516 0.0744 0.45451 0.0
C1394 C 0.30248 0.96661 0.52085 0.0
C1395 C 0.30399 0.02021 0.4937 0.0
C1396 C 0.28588 0.9401 0.54063 0.0
C1397 C 0.25239 0.93607 0.55271 0.0
C1398 C 0.28566 0.98945 0.51332 0.0
C1399 C 0.23484 0.95719 0.54334 0.0
C1400 C 0.29564 0.05119 0.49183 0.0
C1401 C 0.34398 0.04392 0.4576 0.0
N1402 N 0.25199 0.98338 0.52456 0.0
N1403 N 0.32846 0.01807 0.47674 0.0
H1404 H 0.74415 0.6437 0.03809 0.0
H1405 H 0.71073 0.81023 0.97302 0.0
H1406 H 0.78832 0.76147 0.06622 0.0
H1407 H 0.67863 0.69926 0.93839 0.0
H1408 H 0.73328 0.78949 0.00932 0.0
H1409 H 0.71678 0.66107 1.00227 0.0
C1410 C 0.74845 0.67317 0.0367 0.0
C1411 C 0.76845 0.70091 0.05544 0.0
C1412 C 0.72097 0.76945 0.99385 0.0
C1413 C 0.73651 0.72081 0.0148 0.0
C1414 C 0.7075 0.78113 0.97325 0.0
C1415 C 0.69271 0.75652 0.95253 0.0
C1416 C 0.71963 0.73279 0.99387 0.0
C1417 C 0.69023 0.71942 0.95378 0.0
C1418 C 0.73254 0.68302 0.01636 0.0
C1419 C 0.77283 0.7387 0.05257 0.0
N1420 N 0.70368 0.70878 0.97393 0.0
N1421 N 0.7569 0.74732 0.03289 0.0
H1422 H 0.08964 0.38118 0.55292 0.0
H1423 H 0.94833 0.20151 0.46338 0.0
H1424 H 0.07829 0.26603 0.55367 0.0
H1425 H 0.94778 0.31115 0.46243 0.0
H1426 H 0.99616 0.22628 0.49688 0.0
H1427 H 0.04088 0.35936 0.51891 0.0
C1428 C 0.07792 0.35183 0.54539 0.0
C1429 C 0.0884 0.32551 0.5559 0.0
C1430 C 0.98538 0.24499 0.48975 0.0
C1431 C 0.03187 0.29996 0.51775 0.0
C1432 C 0.9576 0.23058 0.47075 0.0
C1433 C 0.94361 0.25407 0.46031 0.0
C1434 C 1.00005 0.28364 0.49846 0.0
C1435 C 0.95719 0.29179 0.47034 0.0
C1436 C 0.04957 0.33914 0.52631 0.0
C1437 C 0.07133 0.28739 0.546 0.0
N1438 N 0.98503 0.30564 0.48871 0.0
N1439 N 0.04402 0.27584 0.52769 0.0
H1440 H 0.6405 0.17281 0.07739 0.0
H1441 H 0.44759 0.10933 0.15939 0.0
H1442 H 0.64644 0.19979 0.15482 0.0
H1443 H 0.4553 0.13902 0.08228 0.0
H1444 H 0.51635 0.1231 0.15802 0.0
H1445 H 0.56817 0.14103 0.07922 0.0
C1446 C 0.62645 0.17127 0.09486 0.0
C1447 C 0.64929 0.18908 0.11595 0.0
C1448 C 0.50262 0.1258 0.14133 0.0
C1449 C 0.56692 0.15264 0.11825 0.0
C1450 C 0.46343 0.11764 0.14206 0.0
C1451 C 0.44606 0.12319 0.12092 0.0
C1452 C 0.524 0.13871 0.11918 0.0
C1453 C 0.46785 0.13456 0.09897 0.0
C1454 C 0.58532 0.15335 0.09588 0.0
C1455 C 0.62975 0.18659 0.13814 0.0
N1456 N 0.5057 0.14202 0.09866 0.0
N1457 N 0.58967 0.1688 0.13872 0.0
H1458 H 0.70659 0.56626 0.43289 0.0
H1459 H 0.5557 0.38235 0.35412 0.0
H1460 H 0.67958 0.57763 0.35724 0.0
H1461 H 0.55698 0.38111 0.43358 0.0
H1462 H 0.59872 0.45406 0.35481 0.0
H1463 H 0.64997 0.49947 0.43386 0.0
C1464 C 0.68822 0.55482 0.41658 0.0
C1465 C 0.69785 0.57736 0.3949 0.0
C1466 C 0.58916 0.43827 0.37212 0.0
C1467 C 0.6333 0.50044 0.39571 0.0
C1468 C 0.56471 0.39733 0.37174 0.0
C1469 C 0.55303 0.37576 0.39384 0.0
C1470 C 0.60269 0.45785 0.39477 0.0
C1471 C 0.56527 0.39662 0.41614 0.0
C1472 C 0.65588 0.51667 0.41714 0.0
C1473 C 0.67304 0.56123 0.37433 0.0
N1474 N 0.58995 0.43642 0.41603 0.0
N1475 N 0.64229 0.52342 0.37509 0.0
H1476 H 0.9589 0.36085 0.10796 0.0
H1477 H 0.82526 0.46026 0.10726 0.0
H1478 H 0.84642 0.30661 0.14496 0.0
H1479 H 0.95252 0.52875 0.10545 0.0
H1480 H 0.83005 0.40193 0.11835 0.0
H1481 H 0.95563 0.4214 0.10359 0.0
C1482 C 0.93375 0.36173 0.11541 0.0
C1483 C 0.90278 0.32835 0.12665 0.0
C1484 C 0.85686 0.4299 0.11567 0.0
C1485 C 0.89823 0.39728 0.12107 0.0
C1486 C 0.85417 0.46331 0.1095 0.0
C1487 C 0.8885 0.49959 0.10491 0.0
C1488 C 0.89409 0.43265 0.11697 0.0
C1489 C 0.92513 0.50134 0.108 0.0
C1490 C 0.93176 0.39626 0.11278 0.0
C1491 C 0.87065 0.33129 0.13568 0.0
N1492 N 0.92691 0.46838 0.11343 0.0
N1493 N 0.86891 0.36484 0.13239 0.0
H1494 H 0.47157 0.16978 0.4139 0.0
H1495 H 0.59752 0.06473 0.39452 0.0
H1496 H 0.42861 0.06715 0.36718 0.0
H1497 H 0.64705 0.18556 0.41786 0.0
H1498 H 0.5352 0.06276 0.38483 0.0
H1499 H 0.53471 0.17319 0.4167 0.0
C1500 C 0.47544 0.14816 0.40379 0.0
C1501 C 0.44468 0.11879 0.38956 0.0
C1502 C 0.55988 0.08982 0.39175 0.0
C1503 C 0.51767 0.12176 0.39372 0.0
C1504 C 0.5954 0.09098 0.39734 0.0
C1505 C 0.62745 0.12529 0.40723 0.0
C1506 C 0.55616 0.12301 0.39645 0.0
C1507 C 0.62324 0.15854 0.41023 0.0
C1508 C 0.51176 0.15007 0.4056 0.0
C1509 C 0.45145 0.09053 0.37814 0.0
N1510 N 0.58813 0.15639 0.40519 0.0
N1511 N 0.48726 0.09263 0.38053 0.0
H1512 H 0.58629 0.36611 0.1024 0.0
H1513 H 0.65419 0.59301 0.12798 0.0
H1514 H 0.50687 0.4114 0.09356 0.0
H1515 H 0.73252 0.54837 0.11221 0.0
H1516 H 0.59771 0.5254 0.12482 0.0
H1517 H 0.63766 0.43106 0.11663 0.0
C1518 C 0.57941 0.38956 0.10421 0.0
C1519 C 0.54237 0.38349 0.09708 0.0
C1520 C 0.62736 0.53053 0.1223 0.0
C1521 C 0.60121 0.45824 0.11261 0.0
C1522 C 0.65954 0.56908 0.12418 0.0
C1523 C 0.69803 0.57644 0.12004 0.0
C1524 C 0.63403 0.49922 0.11684 0.0
C1525 C 0.7033 0.54419 0.11518 0.0
C1526 C 0.60879 0.42673 0.11206 0.0
C1527 C 0.53505 0.41499 0.09921 0.0
N1528 N 0.67181 0.50719 0.1137 0.0
N1529 N 0.56436 0.45122 0.10659 0.0
H1530 H 0.96252 0.53382 0.39991 0.0
H1531 H 0.84291 0.29927 0.40804 0.0
H1532 H 0.8393 0.46463 0.41898 0.0
H1533 H 0.96471 0.36459 0.38497 0.0
H1534 H 0.84144 0.35994 0.41037 0.0
H1535 H 0.9638 0.47295 0.39208 0.0
C1536 C 0.93565 0.50582 0.40228 0.0
C1537 C 0.90083 0.50433 0.41039 0.0
C1538 C 0.86857 0.3612 0.40471 0.0
C1539 C 0.90215 0.43461 0.40144 0.0
C1540 C 0.86961 0.32635 0.4034 0.0
C1541 C 0.90429 0.32647 0.39636 0.0
C1542 C 0.90242 0.39699 0.39905 0.0
C1543 C 0.93752 0.36288 0.3906 0.0
C1544 C 0.93642 0.47111 0.39776 0.0
C1545 C 0.86675 0.46728 0.41268 0.0
N1546 N 0.93583 0.39675 0.39216 0.0
N1547 N 0.86838 0.43394 0.40847 0.0
H1548 H 0.19825 0.64692 0.6423 0.0
H1549 H 0.10058 0.42604 0.59033 0.0
H1550 H 0.18417 0.62007 0.56464 0.0
H1551 H 0.16605 0.4629 0.6585 0.0
H1552 H 0.11484 0.49414 0.58362 0.0
H1553 H 0.17066 0.57638 0.65131 0.0
C1554 C 0.18882 0.62606 0.62719 0.0
C1555 C 0.19377 0.63923 0.6027 0.0
C1556 C 0.12553 0.4871 0.60021 0.0
C1557 C 0.16177 0.55875 0.61281 0.0
C1558 C 0.11714 0.44829 0.60412 0.0
C1559 C 0.13243 0.43912 0.62489 0.0
C1560 C 0.14858 0.51654 0.61749 0.0
C1561 C 0.15391 0.46896 0.64219 0.0
C1562 C 0.17325 0.58594 0.63232 0.0
C1563 C 0.18118 0.61106 0.58376 0.0
N1564 N 0.16145 0.50636 0.63809 0.0
N1565 N 0.16574 0.57214 0.58919 0.0
H1566 H 0.33875 0.90264 0.93106 0.0
H1567 H 0.45837 0.8222 0.85861 0.0
H1568 H 0.33938 0.89902 0.85165 0.0
H1569 H 0.4877 0.86517 0.9332 0.0
H1570 H 0.41636 0.85187 0.85522 0.0
H1571 H 0.39499 0.89161 0.93212 0.0
C1572 C 0.35136 0.90031 0.91381 0.0
C1573 C 0.3345 0.9017 0.89122 0.0
C1574 C 0.43245 0.85542 0.8722 0.0
C1575 C 0.39822 0.88799 0.89229 0.0
C1576 C 0.45634 0.83839 0.87417 0.0
C1577 C 0.47634 0.84106 0.89627 0.0
C1578 C 0.42789 0.87472 0.89264 0.0
C1579 C 0.47285 0.86252 0.91583 0.0
C1580 C 0.38343 0.89397 0.91442 0.0
C1581 C 0.35179 0.89841 0.86942 0.0
N1582 N 0.44855 0.87798 0.9137 0.0
N1583 N 0.38227 0.89093 0.87049 0.0
H1584 H 0.57668 0.69179 0.58053 0.0
H1585 H 0.38247 0.57214 0.65951 0.0
H1586 H 0.58024 0.68725 0.65992 0.0
H1587 H 0.38874 0.54791 0.58265 0.0
H1588 H 0.45453 0.61356 0.66052 0.0
H1589 H 0.50818 0.63847 0.58111 0.0
C1590 C 0.56312 0.67917 0.59811 0.0
C1591 C 0.58409 0.69415 0.62024 0.0
C1592 C 0.44022 0.5988 0.64351 0.0
C1593 C 0.50518 0.63331 0.62104 0.0
C1594 C 0.39909 0.5753 0.64289 0.0
C1595 C 0.37954 0.55682 0.62089 0.0
C1596 C 0.46204 0.60448 0.62187 0.0
C1597 C 0.40257 0.56157 0.59999 0.0
C1598 C 0.52398 0.64865 0.59842 0.0
C1599 C 0.56512 0.67652 0.64245 0.0
N1600 N 0.4425 0.58537 0.60089 0.0
N1601 N 0.52647 0.64743 0.64232 0.0
H1602 H 0.08966 0.59716 0.89011 0.0
H1603 H 0.18856 0.4647 0.91019 0.0
H1604 H 0.21048 0.64406 0.91312 0.0
H1605 H 0.07743 0.42192 0.87241 0.0
H1606 H 0.19788 0.5309 0.90959 0.0
H1607 H 0.08554 0.53395 0.88105 0.0
C1608 C 0.1156 0.59433 0.89273 0.0
C1609 C 0.15047 0.62586 0.90239 0.0
C1610 C 0.17152 0.50717 0.90125 0.0
C1611 C 0.14571 0.55329 0.89263 0.0
C1612 C 0.16599 0.46914 0.90168 0.0
C1613 C 0.1317 0.43729 0.89163 0.0
C1614 C 0.14236 0.51372 0.89094 0.0
C1615 C 0.104 0.44529 0.88055 0.0
C1616 C 0.11319 0.55821 0.88765 0.0
C1617 C 0.18316 0.62063 0.90552 0.0
N1618 N 0.10966 0.48259 0.88078 0.0
N1619 N 0.17979 0.58486 0.90102 0.0
H1620 H 0.37094 0.94996 0.61784 0.0
H1621 H 0.42845 0.78016 0.61487 0.0
H1622 H 0.28909 0.82585 0.62585 0.0
H1623 H 0.50963 0.89992 0.59368 0.0
H1624 H 0.38125 0.80013 0.62791 0.0
H1625 H 0.42567 0.93589 0.61715 0.0
C1626 C 0.36459 0.91994 0.62013 0.0
C1627 C 0.32549 0.88902 0.62209 0.0
C1628 C 0.40967 0.82236 0.62091 0.0
C1629 C 0.38751 0.87255 0.62091 0.0
C1630 C 0.43675 0.81098 0.61374 0.0
C1631 C 0.47303 0.83853 0.60349 0.0
C1632 C 0.41863 0.86158 0.6175 0.0
C1633 C 0.4821 0.87796 0.60185 0.0
C1634 C 0.39574 0.91184 0.61947 0.0
C1635 C 0.31875 0.85049 0.62422 0.0
N1636 N 0.45486 0.88829 0.6085 0.0
N1637 N 0.3493 0.84336 0.6235 0.0
H1638 H 0.56545 0.71224 0.92235 0.0
H1639 H 0.41925 0.4995 0.86686 0.0
H1640 H 0.593 0.66802 0.85716 0.0
H1641 H 0.38464 0.55597 0.92158 0.0
H1642 H 0.48274 0.56043 0.86254 0.0
H1643 H 0.49975 0.65398 0.92296 0.0
C1644 C 0.55743 0.69025 0.90803 0.0
C1645 C 0.58413 0.69538 0.88926 0.0
C1646 C 0.46108 0.55974 0.87522 0.0
C1647 C 0.50936 0.62798 0.8902 0.0
C1648 C 0.42481 0.5251 0.87758 0.0
C1649 C 0.39678 0.52283 0.89459 0.0
C1650 C 0.4696 0.59219 0.89025 0.0
C1651 C 0.40535 0.55666 0.90811 0.0
C1652 C 0.52 0.65694 0.90844 0.0
C1653 C 0.57311 0.66522 0.87186 0.0
N1654 N 0.44124 0.58982 0.90589 0.0
N1655 N 0.53641 0.63276 0.87269 0.0
loop_
_geom_bond_atom_site_label_1
_geom_bond_atom_site_label_2
_geom_bond_distance
_geom_bond_site_symmetry_2
_ccdc_geom_bond_type
Tb0 N29 2.617 . S
Tb0 N35 2.572 . S
Tb0 O44 2.465 . S
Tb0 O45 2.387 . S
Tb0 O47 2.428 . S
Tb0 O48 2.308 . S
Tb0 O52 2.349 . S
Tb0 O55 2.393 . S
Tb0 C64 2.802 . S
C1 N2 1.379 . S
C1 C4 1.416 . S
C1 C8 1.424 . S
N2 C1 1.379 . S
N2 C5 1.334 . S
N2 Tb11 2.617 . S
C3 C5 1.390 . S
C3 C6 1.339 . S
C3 H23 0.930 1_554 S
C4 C1 1.416 . S
C4 C6 1.416 . S
C4 C10 1.448 . S
C5 N2 1.334 . S
C5 C3 1.390 . S
C5 H16 0.930 . S
C6 C3 1.339 . S
C6 C4 1.416 . S
C6 H27 0.930 . S
C7 C8 1.413 . S
C7 C9 1.427 . S
C7 C13 1.416 . S
C8 C1 1.424 . S
C8 C7 1.413 . S
C8 N12 1.361 . S
C9 C7 1.427 . S
C9 C10 1.328 . S
C9 H24 0.929 . S
C10 C4 1.448 . S
C10 C9 1.328 . S
C10 H25 0.930 . S
Tb11 N2 2.617 . S
Tb11 N12 2.572 . S
Tb11 O46 2.349 . S
Tb11 O49 2.393 . S
Tb11 O50 2.465 . S
Tb11 O51 2.387 . S
Tb11 O53 2.428 . S
Tb11 O54 2.308 . S
Tb11 C75 2.802 . S
N12 C8 1.361 . S
N12 Tb11 2.572 . S
N12 C14 1.340 . S
C13 C7 1.416 . S
C13 C15 1.332 . S
C13 H21 0.931 . S
C14 N12 1.340 . S
C14 C15 1.407 . S
C14 H20 0.930 . S
C15 C13 1.332 . S
C15 C14 1.407 . S
C15 H17 0.929 . S
H16 C5 0.930 . S
H17 C15 0.929 . S
H18 C33 0.930 . S
H19 C40 0.929 1_565 S
H20 C14 0.930 . S
H21 C13 0.931 . S
H22 C36 0.930 . S
H23 C3 0.930 1_556 S
H24 C9 0.929 . S
H25 C10 0.930 . S
H26 C31 0.930 . S
H27 C6 0.930 . S
H28 C39 0.931 . S
N29 Tb0 2.617 . S
N29 C30 1.379 . S
N29 C33 1.334 . S
C30 N29 1.379 . S
C30 C32 1.416 . S
C30 C38 1.424 . S
C31 H26 0.930 . S
C31 C33 1.390 . S
C31 C34 1.339 . S
C32 C30 1.416 . S
C32 C34 1.416 . S
C32 C65 1.448 . S
C33 H18 0.930 . S
C33 N29 1.334 . S
C33 C31 1.390 . S
C34 C31 1.339 . S
C34 C32 1.416 . S
C34 H41 0.930 . S
N35 Tb0 2.572 . S
N35 C36 1.340 . S
N35 C38 1.361 . S
C36 H22 0.930 . S
C36 N35 1.340 . S
C36 C40 1.407 . S
C37 C38 1.413 . S
C37 C39 1.416 1_545 S
C37 C66 1.427 1_545 S
C38 C30 1.424 . S
C38 N35 1.361 . S
C38 C37 1.413 . S
C39 H28 0.931 . S
C39 C37 1.416 1_565 S
C39 C40 1.332 1_565 S
C40 H19 0.929 1_545 S
C40 C36 1.407 . S
C40 C39 1.332 1_545 S
H41 C34 0.930 . S
H42 C65 0.917 1_565 S
H43 C66 0.929 . S
O44 Tb0 2.465 . S
O44 C64 1.264 . S
O45 Tb0 2.387 . S
O45 C56 1.264 . S
O46 Tb11 2.349 . S
O46 C56 1.243 . S
O47 Tb0 2.428 . S
O47 C64 1.256 . S
O48 Tb0 2.308 . S
O48 C63 1.266 . S
O49 Tb11 2.393 . S
O49 C63 1.248 . S
O50 Tb11 2.465 . S
O50 C75 1.264 . S
O51 Tb11 2.387 . S
O51 C67 1.264 . S
O52 Tb0 2.349 . S
O52 C67 1.243 . S
O53 Tb11 2.428 . S
O53 C75 1.256 . S
O54 Tb11 2.308 . S
O54 C74 1.266 . S
O55 Tb0 2.393 . S
O55 C74 1.248 . S
C56 O45 1.264 . S
C56 O46 1.243 . S
C57 C60 1.399 . S
C57 C62 1.383 . S
C57 C64 1.496 1_565 S
C58 C59 1.399 . S
C58 C62 1.389 . S
C59 C58 1.399 . S
C59 C61 1.380 . S
C59 H76 0.929 . S
C60 C57 1.399 . S
C60 C61 1.392 . S
C60 H77 0.929 . S
C61 C59 1.380 . S
C61 C60 1.392 . S
C61 H78 0.929 . S
C62 C57 1.383 . S
C62 C58 1.389 . S
C62 H79 0.931 . S
C63 O48 1.266 . S
C63 O49 1.248 . S
C64 Tb0 2.802 . S
C64 O44 1.264 . S
C64 O47 1.256 . S
C64 C57 1.496 1_545 S
C65 C32 1.448 . S
C65 H42 0.917 1_545 S
C65 C66 1.328 1_545 S
C66 C37 1.427 1_565 S
C66 H43 0.929 . S
C66 C65 1.328 1_565 S
C67 O51 1.264 . S
C67 O52 1.243 . S
C68 C71 1.399 . S
C68 C72 1.383 . S
C68 C75 1.496 . S
C69 C70 1.399 . S
C69 C72 1.389 . S
C70 C69 1.399 . S
C70 C73 1.380 . S
C70 H80 0.929 . S
C71 C68 1.399 . S
C71 C73 1.392 . S
C71 H81 0.929 . S
C72 C68 1.383 . S
C72 C69 1.389 . S
C72 H82 0.931 . S
C73 C70 1.380 . S
C73 C71 1.392 . S
C73 H83 0.929 . S
C74 O54 1.266 . S
C74 O55 1.248 . S
C75 Tb11 2.802 . S
C75 O50 1.264 . S
C75 O53 1.256 . S
C75 C68 1.496 . S
H76 C59 0.929 . S
H77 C60 0.929 . S
H78 C61 0.929 . S
H79 C62 0.931 . S
H80 C70 0.929 . S
H81 C71 0.929 . S
H82 C72 0.931 . S
H83 C73 0.929 . S
Tb84 N113 2.617 . S
Tb84 N119 2.572 . S
Tb84 O128 2.465 . S
Tb84 O129 2.387 . S
Tb84 O131 2.428 . S
Tb84 O132 2.308 . S
Tb84 O136 2.349 . S
Tb84 O139 2.393 . S
Tb84 C148 2.802 . S
C85 N86 1.379 . S
C85 C88 1.416 . S
C85 C92 1.424 . S
N86 C85 1.379 . S
N86 C89 1.334 . S
N86 Tb95 2.617 . S
C87 C89 1.390 . S
C87 C90 1.339 . S
C87 H107 0.930 . S
C88 C85 1.416 . S
C88 C90 1.416 . S
C88 C94 1.448 . S
C89 N86 1.334 . S
C89 C87 1.390 . S
C89 H100 0.930 . S
C90 C87 1.339 . S
C90 C88 1.416 . S
C90 H111 0.930 . S
C91 C92 1.413 . S
C91 C93 1.427 . S
C91 C97 1.416 . S
C92 C85 1.424 . S
C92 C91 1.413 . S
C92 N96 1.361 . S
C93 C91 1.427 . S
C93 C94 1.328 . S
C93 H108 0.929 . S
C94 C88 1.448 . S
C94 C93 1.328 . S
C94 H109 0.930 . S
Tb95 N86 2.617 . S
Tb95 N96 2.572 . S
Tb95 O130 2.349 . S
Tb95 O133 2.393 . S
Tb95 O134 2.465 . S
Tb95 O135 2.387 . S
Tb95 O137 2.428 . S
Tb95 O138 2.308 . S
Tb95 C159 2.802 . S
N96 C92 1.361 . S
N96 Tb95 2.572 . S
N96 C98 1.340 . S
C97 C91 1.416 . S
C97 C99 1.332 . S
C97 H105 0.931 . S
C98 N96 1.340 . S
C98 C99 1.407 . S
C98 H104 0.930 . S
C99 C97 1.332 . S
C99 C98 1.407 . S
C99 H101 0.929 . S
H100 C89 0.930 . S
H101 C99 0.929 . S
H102 C117 0.930 . S
H103 C124 0.929 . S
H104 C98 0.930 . S
H105 C97 0.931 . S
H106 C120 0.930 . S
H107 C87 0.930 . S
H108 C93 0.929 . S
H109 C94 0.930 . S
H110 C115 0.930 . S
H111 C90 0.930 . S
H112 C123 0.931 1_455 S
N113 Tb84 2.617 . S
N113 C114 1.379 . S
N113 C117 1.334 . S
C114 N113 1.379 . S
C114 C116 1.416 . S
C114 C122 1.424 . S
C115 H110 0.930 . S
C115 C117 1.390 . S
C115 C118 1.339 . S
C116 C114 1.416 . S
C116 C118 1.416 . S
C116 C149 1.432 1_655 S
C117 H102 0.930 . S
C117 N113 1.334 . S
C117 C115 1.390 . S
C118 C115 1.339 . S
C118 C116 1.416 . S
C118 H125 0.930 . S
N119 Tb84 2.572 . S
N119 C120 1.340 . S
N119 C122 1.361 . S
C120 H106 0.930 . S
C120 N119 1.340 . S
C120 C124 1.407 . S
C121 C122 1.413 . S
C121 C123 1.416 . S
C121 C150 1.427 1_655 S
C122 C114 1.424 . S
C122 N119 1.361 . S
C122 C121 1.413 . S
C123 H112 0.931 1_655 S
C123 C121 1.416 . S
C123 C124 1.332 . S
C124 H103 0.929 . S
C124 C120 1.407 . S
C124 C123 1.332 . S
H125 C118 0.930 . S
H126 C149 0.940 . S
H127 C150 0.929 . S
O128 Tb84 2.465 . S
O128 C148 1.264 . S
O129 Tb84 2.387 . S
O129 C140 1.264 . S
O130 Tb95 2.349 . S
O130 C140 1.243 . S
O131 Tb84 2.428 . S
O131 C148 1.256 . S
O132 Tb84 2.308 . S
O132 C147 1.266 . S
O133 Tb95 2.393 . S
O133 C147 1.248 . S
O134 Tb95 2.465 . S
O134 C159 1.264 . S
O135 Tb95 2.387 . S
O135 C151 1.264 . S
O136 Tb84 2.349 . S
O136 C151 1.243 . S
O137 Tb95 2.428 . S
O137 C159 1.256 . S
O138 Tb95 2.308 . S
O138 C158 1.266 . S
O139 Tb84 2.393 . S
O139 C158 1.248 . S
C140 O129 1.264 . S
C140 O130 1.243 . S
C141 C144 1.399 . S
C141 C146 1.383 . S
C141 C148 1.496 . S
C142 C143 1.399 . S
C142 C146 1.389 . S
C143 C142 1.399 . S
C143 C145 1.380 . S
C143 H160 0.929 . S
C144 C141 1.399 . S
C144 C145 1.392 . S
C144 H161 0.929 . S
C145 C143 1.380 . S
C145 C144 1.392 . S
C145 H162 0.929 . S
C146 C141 1.383 . S
C146 C142 1.389 . S
C146 H163 0.931 . S
C147 O132 1.266 . S
C147 O133 1.248 . S
C148 Tb84 2.802 . S
C148 O128 1.264 . S
C148 O131 1.256 . S
C148 C141 1.496 . S
C149 C116 1.432 1_455 S
C149 H126 0.940 . S
C149 C150 1.335 . S
C150 C121 1.427 1_455 S
C150 H127 0.929 . S
C150 C149 1.335 . S
C151 O135 1.264 . S
C151 O136 1.243 . S
C152 C155 1.399 . S
C152 C156 1.383 . S
C152 C159 1.496 . S
C153 C154 1.399 . S
C153 C156 1.389 . S
C154 C153 1.399 . S
C154 C157 1.380 . S
C154 H164 0.929 . S
C155 C152 1.399 . S
C155 C157 1.392 . S
C155 H165 0.929 . S
C156 C152 1.383 . S
C156 C153 1.389 . S
C156 H166 0.931 . S
C157 C154 1.380 . S
C157 C155 1.392 . S
C157 H167 0.929 . S
C158 O138 1.266 . S
C158 O139 1.248 . S
C159 Tb95 2.802 . S
C159 O134 1.264 . S
C159 O137 1.256 . S
C159 C152 1.496 . S
H160 C143 0.929 . S
H161 C144 0.929 . S
H162 C145 0.929 . S
H163 C146 0.931 . S
H164 C154 0.929 . S
H165 C155 0.929 . S
H166 C156 0.931 . S
H167 C157 0.929 . S
Tb168 N197 2.617 . S
Tb168 N203 2.572 . S
Tb168 O212 2.465 . S
Tb168 O213 2.387 . S
Tb168 O215 2.428 . S
Tb168 O216 2.308 . S
Tb168 O220 2.349 . S
Tb168 O223 2.393 . S
Tb168 C232 2.802 . S
C169 N170 1.379 . S
C169 C172 1.416 . S
C169 C176 1.424 . S
N170 C169 1.379 . S
N170 C173 1.334 . S
N170 Tb179 2.617 . S
C171 C173 1.390 . S
C171 C174 1.339 . S
C171 H191 0.930 1_554 S
C172 C169 1.416 . S
C172 C174 1.416 . S
C172 C178 1.435 1_545 S
C173 N170 1.334 . S
C173 C171 1.390 . S
C173 H184 0.930 . S
C174 C171 1.339 . S
C174 C172 1.416 . S
C174 H195 0.930 . S
C175 C176 1.413 . S
C175 C177 1.427 1_545 S
C175 C181 1.416 . S
C176 C169 1.424 . S
C176 C175 1.413 . S
C176 N180 1.361 . S
C177 C175 1.427 1_565 S
C177 C178 1.331 . S
C177 H192 0.929 . S
C178 C172 1.435 1_565 S
C178 C177 1.331 . S
C178 H193 0.941 . S
Tb179 N170 2.617 . S
Tb179 N180 2.572 . S
Tb179 O214 2.349 . S
Tb179 O217 2.393 . S
Tb179 O218 2.465 . S
Tb179 O219 2.387 . S
Tb179 O221 2.428 . S
Tb179 O222 2.308 . S
Tb179 C243 2.802 . S
N180 C176 1.361 . S
N180 Tb179 2.572 . S
N180 C182 1.340 . S
C181 C175 1.416 . S
C181 C183 1.332 . S
C181 H189 0.931 1_545 S
C182 N180 1.340 . S
C182 C183 1.407 . S
C182 H188 0.930 . S
C183 C181 1.332 . S
C183 C182 1.407 . S
C183 H185 0.929 . S
H184 C173 0.930 . S
H185 C183 0.929 . S
H186 C201 0.930 . S
H187 C208 0.929 1_455 S
H188 C182 0.930 . S
H189 C181 0.931 1_565 S
H190 C204 0.930 . S
H191 C171 0.930 1_556 S
H192 C177 0.929 . S
H193 C178 0.941 . S
H194 C199 0.930 . S
H195 C174 0.930 . S
H196 C207 0.931 . S
N197 Tb168 2.617 . S
N197 C198 1.379 . S
N197 C201 1.334 . S
C198 N197 1.379 . S
C198 C200 1.416 . S
C198 C206 1.424 . S
C199 H194 0.930 . S
C199 C201 1.390 . S
C199 C202 1.339 . S
C200 C198 1.416 . S
C200 C202 1.416 . S
C200 C233 1.448 . S
C201 H186 0.930 . S
C201 N197 1.334 . S
C201 C199 1.390 . S
C202 C199 1.339 . S
C202 C200 1.416 . S
C202 H209 0.930 . S
N203 Tb168 2.572 . S
N203 C204 1.340 . S
N203 C206 1.361 . S
C204 H190 0.930 . S
C204 N203 1.340 . S
C204 C208 1.407 . S
C205 C206 1.413 . S
C205 C207 1.416 1_655 S
C205 C234 1.427 1_655 S
C206 C198 1.424 . S
C206 N203 1.361 . S
C206 C205 1.413 . S
C207 H196 0.931 . S
C207 C205 1.416 1_455 S
C207 C208 1.332 1_455 S
C208 H187 0.929 1_655 S
C208 C204 1.407 . S
C208 C207 1.332 1_655 S
H209 C202 0.930 . S
H210 C233 0.932 1_455 S
H211 C234 0.929 . S
O212 Tb168 2.465 . S
O212 C232 1.264 . S
O213 Tb168 2.387 . S
O213 C224 1.264 . S
O214 Tb179 2.349 . S
O214 C224 1.243 . S
O215 Tb168 2.428 . S
O215 C232 1.256 . S
O216 Tb168 2.308 . S
O216 C231 1.266 . S
O217 Tb179 2.393 . S
O217 C231 1.248 . S
O218 Tb179 2.465 . S
O218 C243 1.264 . S
O219 Tb179 2.387 . S
O219 C235 1.264 . S
O220 Tb168 2.349 . S
O220 C235 1.243 . S
O221 Tb179 2.428 . S
O221 C243 1.256 . S
O222 Tb179 2.308 . S
O222 C242 1.266 . S
O223 Tb168 2.393 . S
O223 C242 1.248 . S
C224 O213 1.264 . S
C224 O214 1.243 . S
C225 C228 1.399 . S
C225 C230 1.383 . S
C225 C232 1.496 1_455 S
C226 C227 1.399 . S
C226 C230 1.389 . S
C227 C226 1.399 . S
C227 C229 1.380 . S
C227 H244 0.929 . S
C228 C225 1.399 . S
C228 C229 1.392 . S
C228 H245 0.929 . S
C229 C227 1.380 . S
C229 C228 1.392 . S
C229 H246 0.929 . S
C230 C225 1.383 . S
C230 C226 1.389 . S
C230 H247 0.931 . S
C231 O216 1.266 . S
C231 O217 1.248 . S
C232 Tb168 2.802 . S
C232 O212 1.264 . S
C232 O215 1.256 . S
C232 C225 1.496 1_655 S
C233 C200 1.448 . S
C233 H210 0.932 1_655 S
C233 C234 1.328 1_655 S
C234 C205 1.427 1_455 S
C234 H211 0.929 . S
C234 C233 1.328 1_455 S
C235 O219 1.264 . S
C235 O220 1.243 . S
C236 C239 1.399 . S
C236 C240 1.383 . S
C236 C243 1.496 . S
C237 C238 1.399 . S
C237 C240 1.389 . S
C238 C237 1.399 . S
C238 C241 1.380 . S
C238 H248 0.929 . S
C239 C236 1.399 . S
C239 C241 1.392 . S
C239 H249 0.929 . S
C240 C236 1.383 . S
C240 C237 1.389 . S
C240 H250 0.931 . S
C241 C238 1.380 . S
C241 C239 1.392 . S
C241 H251 0.929 . S
C242 O222 1.266 . S
C242 O223 1.248 . S
C243 Tb179 2.802 . S
C243 O218 1.264 . S
C243 O221 1.256 . S
C243 C236 1.496 . S
H244 C227 0.929 . S
H245 C228 0.929 . S
H246 C229 0.929 . S
H247 C230 0.931 . S
H248 C238 0.929 . S
H249 C239 0.929 . S
H250 C240 0.931 . S
H251 C241 0.929 . S
Tb252 N281 2.617 . S
Tb252 N287 2.572 . S
Tb252 O296 2.465 . S
Tb252 O297 2.387 . S
Tb252 O299 2.428 . S
Tb252 O300 2.308 . S
Tb252 O304 2.349 . S
Tb252 O307 2.393 . S
Tb252 C316 2.802 . S
C253 N254 1.379 . S
C253 C256 1.416 . S
C253 C260 1.424 . S
N254 C253 1.379 . S
N254 C257 1.334 . S
N254 Tb263 2.617 . S
C255 C257 1.390 . S
C255 C258 1.339 . S
C255 H275 0.930 . S
C256 C253 1.416 . S
C256 C258 1.416 . S
C256 C262 1.448 . S
C257 N254 1.334 . S
C257 C255 1.390 . S
C257 H268 0.930 . S
C258 C255 1.339 . S
C258 C256 1.416 . S
C258 H279 0.930 . S
C259 C260 1.413 . S
C259 C261 1.427 1_545 S
C259 C265 1.416 1_545 S
C260 C253 1.424 . S
C260 C259 1.413 . S
C260 N264 1.361 . S
C261 C259 1.427 1_565 S
C261 C262 1.328 1_565 S
C261 H276 0.929 . S
C262 C256 1.448 . S
C262 C261 1.328 1_545 S
C262 H277 0.917 1_545 S
Tb263 N254 2.617 . S
Tb263 N264 2.572 . S
Tb263 O298 2.349 . S
Tb263 O301 2.393 . S
Tb263 O302 2.465 . S
Tb263 O303 2.387 . S
Tb263 O305 2.428 . S
Tb263 O306 2.308 . S
Tb263 C327 2.802 . S
N264 C260 1.361 . S
N264 Tb263 2.572 . S
N264 C266 1.340 . S
C265 C259 1.416 1_565 S
C265 C267 1.332 1_565 S
C265 H273 0.931 . S
C266 N264 1.340 . S
C266 C267 1.407 . S
C266 H272 0.930 . S
C267 C265 1.332 1_545 S
C267 C266 1.407 . S
C267 H269 0.929 1_545 S
H268 C257 0.930 . S
H269 C267 0.929 1_565 S
H270 C285 0.930 . S
H271 C292 0.929 . S
H272 C266 0.930 . S
H273 C265 0.931 . S
H274 C288 0.930 . S
H275 C255 0.930 . S
H276 C261 0.929 . S
H277 C262 0.917 1_565 S
H278 C283 0.930 . S
H279 C258 0.930 . S
H280 C291 0.931 . S
N281 Tb252 2.617 . S
N281 C282 1.379 . S
N281 C285 1.334 . S
C282 N281 1.379 . S
C282 C284 1.416 . S
C282 C290 1.424 . S
C283 H278 0.930 . S
C283 C285 1.390 . S
C283 C286 1.339 . S
C284 C282 1.416 . S
C284 C286 1.416 . S
C284 C317 1.448 . S
C285 H270 0.930 . S
C285 N281 1.334 . S
C285 C283 1.390 . S
C286 C283 1.339 . S
C286 C284 1.416 . S
C286 H293 0.930 . S
N287 Tb252 2.572 . S
N287 C288 1.340 . S
N287 C290 1.361 . S
C288 H274 0.930 . S
C288 N287 1.340 . S
C288 C292 1.407 . S
C289 C290 1.413 . S
C289 C291 1.416 . S
C289 C318 1.427 . S
C290 C282 1.424 . S
C290 N287 1.361 . S
C290 C289 1.413 . S
C291 H280 0.931 . S
C291 C289 1.416 . S
C291 C292 1.332 . S
C292 H271 0.929 . S
C292 C288 1.407 . S
C292 C291 1.332 . S
H293 C286 0.930 . S
H294 C317 0.930 . S
H295 C318 0.929 . S
O296 Tb252 2.465 . S
O296 C316 1.264 . S
O297 Tb252 2.387 . S
O297 C308 1.264 . S
O298 Tb263 2.349 . S
O298 C308 1.243 . S
O299 Tb252 2.428 . S
O299 C316 1.256 . S
O300 Tb252 2.308 . S
O300 C315 1.266 . S
O301 Tb263 2.393 . S
O301 C315 1.248 . S
O302 Tb263 2.465 . S
O302 C327 1.264 . S
O303 Tb263 2.387 . S
O303 C319 1.264 . S
O304 Tb252 2.349 . S
O304 C319 1.243 . S
O305 Tb263 2.428 . S
O305 C327 1.256 . S
O306 Tb263 2.308 . S
O306 C326 1.266 . S
O307 Tb252 2.393 . S
O307 C326 1.248 . S
C308 O297 1.264 . S
C308 O298 1.243 . S
C309 C312 1.399 . S
C309 C314 1.383 . S
C309 C316 1.496 . S
C310 C311 1.399 . S
C310 C314 1.389 . S
C311 C310 1.399 . S
C311 C313 1.380 . S
C311 H328 0.929 . S
C312 C309 1.399 . S
C312 C313 1.392 . S
C312 H329 0.929 . S
C313 C311 1.380 . S
C313 C312 1.392 . S
C313 H330 0.929 . S
C314 C309 1.383 . S
C314 C310 1.389 . S
C314 H331 0.931 . S
C315 O300 1.266 . S
C315 O301 1.248 . S
C316 Tb252 2.802 . S
C316 O296 1.264 . S
C316 O299 1.256 . S
C316 C309 1.496 . S
C317 C284 1.448 . S
C317 H294 0.930 . S
C317 C318 1.328 . S
C318 C289 1.427 . S
C318 H295 0.929 . S
C318 C317 1.328 . S
C319 O303 1.264 . S
C319 O304 1.243 . S
C320 C323 1.399 . S
C320 C324 1.383 . S
C320 C327 1.496 1_565 S
C321 C322 1.399 . S
C321 C324 1.389 . S
C322 C321 1.399 . S
C322 C325 1.380 . S
C322 H332 0.929 . S
C323 C320 1.399 . S
C323 C325 1.392 . S
C323 H333 0.929 . S
C324 C320 1.383 . S
C324 C321 1.389 . S
C324 H334 0.931 . S
C325 C322 1.380 . S
C325 C323 1.392 . S
C325 H335 0.929 . S
C326 O306 1.266 . S
C326 O307 1.248 . S
C327 Tb263 2.802 . S
C327 O302 1.264 . S
C327 O305 1.256 . S
C327 C320 1.496 1_545 S
H328 C311 0.929 . S
H329 C312 0.929 . S
H330 C313 0.929 . S
H331 C314 0.931 . S
H332 C322 0.929 . S
H333 C323 0.929 . S
H334 C324 0.931 . S
H335 C325 0.929 . S
Tb336 N365 2.617 . S
Tb336 N371 2.572 . S
Tb336 O380 2.465 . S
Tb336 O381 2.387 . S
Tb336 O383 2.428 . S
Tb336 O384 2.308 . S
Tb336 O388 2.349 . S
Tb336 O391 2.393 . S
Tb336 C400 2.802 . S
C337 N338 1.379 . S
C337 C340 1.416 . S
C337 C344 1.424 . S
N338 C337 1.379 . S
N338 C341 1.334 . S
N338 Tb347 2.617 . S
C339 C341 1.390 . S
C339 C342 1.339 . S
C339 H359 0.930 1_554 S
C340 C337 1.416 . S
C340 C342 1.416 . S
C340 C346 1.432 1_655 S
C341 N338 1.334 . S
C341 C339 1.390 . S
C341 H352 0.930 . S
C342 C339 1.339 . S
C342 C340 1.416 . S
C342 H363 0.930 . S
C343 C344 1.413 . S
C343 C345 1.427 1_655 S
C343 C349 1.416 . S
C344 C337 1.424 . S
C344 C343 1.413 . S
C344 N348 1.361 . S
C345 C343 1.427 1_455 S
C345 C346 1.335 . S
C345 H360 0.929 . S
C346 C340 1.432 1_455 S
C346 C345 1.335 . S
C346 H361 0.940 . S
Tb347 N338 2.617 . S
Tb347 N348 2.572 . S
Tb347 O382 2.349 . S
Tb347 O385 2.393 . S
Tb347 O386 2.465 . S
Tb347 O387 2.387 . S
Tb347 O389 2.428 . S
Tb347 O390 2.308 . S
Tb347 C411 2.802 . S
N348 C344 1.361 . S
N348 Tb347 2.572 . S
N348 C350 1.340 . S
C349 C343 1.416 . S
C349 C351 1.332 . S
C349 H357 0.931 1_655 S
C350 N348 1.340 . S
C350 C351 1.407 . S
C350 H356 0.930 . S
C351 C349 1.332 . S
C351 C350 1.407 . S
C351 H353 0.929 . S
H352 C341 0.930 . S
H353 C351 0.929 . S
H354 C369 0.930 . S
H355 C376 0.929 . S
H356 C350 0.930 . S
H357 C349 0.931 1_455 S
H358 C372 0.930 . S
H359 C339 0.930 1_556 S
H360 C345 0.929 . S
H361 C346 0.940 . S
H362 C367 0.930 . S
H363 C342 0.930 . S
H364 C375 0.931 . S
N365 Tb336 2.617 . S
N365 C366 1.379 . S
N365 C369 1.334 . S
C366 N365 1.379 . S
C366 C368 1.416 . S
C366 C374 1.424 . S
C367 H362 0.930 . S
C367 C369 1.390 . S
C367 C370 1.339 . S
C368 C366 1.416 . S
C368 C370 1.416 . S
C368 C401 1.448 . S
C369 H354 0.930 . S
C369 N365 1.334 . S
C369 C367 1.390 . S
C370 C367 1.339 . S
C370 C368 1.416 . S
C370 H377 0.930 . S
N371 Tb336 2.572 . S
N371 C372 1.340 . S
N371 C374 1.361 . S
C372 H358 0.930 . S
C372 N371 1.340 . S
C372 C376 1.407 . S
C373 C374 1.413 . S
C373 C375 1.416 . S
C373 C402 1.427 . S
C374 C366 1.424 . S
C374 N371 1.361 . S
C374 C373 1.413 . S
C375 H364 0.931 . S
C375 C373 1.416 . S
C375 C376 1.332 . S
C376 H355 0.929 . S
C376 C372 1.407 . S
C376 C375 1.332 . S
H377 C370 0.930 . S
H378 C401 0.930 . S
H379 C402 0.929 . S
O380 Tb336 2.465 . S
O380 C400 1.264 . S
O381 Tb336 2.387 . S
O381 C392 1.264 . S
O382 Tb347 2.349 . S
O382 C392 1.243 . S
O383 Tb336 2.428 . S
O383 C400 1.256 . S
O384 Tb336 2.308 . S
O384 C399 1.266 . S
O385 Tb347 2.393 . S
O385 C399 1.248 . S
O386 Tb347 2.465 . S
O386 C411 1.264 . S
O387 Tb347 2.387 . S
O387 C403 1.264 . S
O388 Tb336 2.349 . S
O388 C403 1.243 . S
O389 Tb347 2.428 . S
O389 C411 1.256 . S
O390 Tb347 2.308 . S
O390 C410 1.266 . S
O391 Tb336 2.393 . S
O391 C410 1.248 . S
C392 O381 1.264 . S
C392 O382 1.243 . S
C393 C396 1.399 . S
C393 C398 1.383 . S
C393 C400 1.496 . S
C394 C395 1.399 . S
C394 C398 1.389 . S
C395 C394 1.399 . S
C395 C397 1.380 . S
C395 H412 0.929 . S
C396 C393 1.399 . S
C396 C397 1.392 . S
C396 H413 0.929 . S
C397 C395 1.380 . S
C397 C396 1.392 . S
C397 H414 0.929 . S
C398 C393 1.383 . S
C398 C394 1.389 . S
C398 H415 0.931 . S
C399 O384 1.266 . S
C399 O385 1.248 . S
C400 Tb336 2.802 . S
C400 O380 1.264 . S
C400 O383 1.256 . S
C400 C393 1.496 . S
C401 C368 1.448 . S
C401 H378 0.930 . S
C401 C402 1.328 . S
C402 C373 1.427 . S
C402 H379 0.929 . S
C402 C401 1.328 . S
C403 O387 1.264 . S
C403 O388 1.243 . S
C404 C407 1.399 . S
C404 C408 1.383 . S
C404 C411 1.496 . S
C405 C406 1.399 . S
C405 C408 1.389 . S
C406 C405 1.399 . S
C406 C409 1.380 . S
C406 H416 0.929 . S
C407 C404 1.399 . S
C407 C409 1.392 . S
C407 H417 0.929 . S
C408 C404 1.383 . S
C408 C405 1.389 . S
C408 H418 0.931 . S
C409 C406 1.380 . S
C409 C407 1.392 . S
C409 H419 0.929 . S
C410 O390 1.266 . S
C410 O391 1.248 . S
C411 Tb347 2.802 . S
C411 O386 1.264 . S
C411 O389 1.256 . S
C411 C404 1.496 . S
H412 C395 0.929 . S
H413 C396 0.929 . S
H414 C397 0.929 . S
H415 C398 0.931 . S
H416 C406 0.929 . S
H417 C407 0.929 . S
H418 C408 0.931 . S
H419 C409 0.929 . S
Tb420 N449 2.617 . S
Tb420 N455 2.572 . S
Tb420 O464 2.465 . S
Tb420 O465 2.387 . S
Tb420 O467 2.428 . S
Tb420 O468 2.308 . S
Tb420 O472 2.349 . S
Tb420 O475 2.393 . S
Tb420 C484 2.802 . S
C421 N422 1.379 . S
C421 C424 1.416 . S
C421 C428 1.424 . S
N422 C421 1.379 . S
N422 C425 1.334 . S
N422 Tb431 2.617 . S
C423 C425 1.390 . S
C423 C426 1.339 . S
C423 H443 0.930 . S
C424 C421 1.416 . S
C424 C426 1.416 . S
C424 C430 1.448 . S
C425 N422 1.334 . S
C425 C423 1.390 . S
C425 H436 0.930 . S
C426 C423 1.339 . S
C426 C424 1.416 . S
C426 H447 0.930 . S
C427 C428 1.413 . S
C427 C429 1.427 1_655 S
C427 C433 1.416 1_655 S
C428 C421 1.424 . S
C428 C427 1.413 . S
C428 N432 1.361 . S
C429 C427 1.427 1_455 S
C429 C430 1.328 1_455 S
C429 H444 0.929 . S
C430 C424 1.448 . S
C430 C429 1.328 1_655 S
C430 H445 0.932 1_655 S
Tb431 N422 2.617 . S
Tb431 N432 2.572 . S
Tb431 O466 2.349 . S
Tb431 O469 2.393 . S
Tb431 O470 2.465 . S
Tb431 O471 2.387 . S
Tb431 O473 2.428 . S
Tb431 O474 2.308 . S
Tb431 C495 2.802 . S
N432 C428 1.361 . S
N432 Tb431 2.572 . S
N432 C434 1.340 . S
C433 C427 1.416 1_455 S
C433 C435 1.332 1_455 S
C433 H441 0.931 . S
C434 N432 1.340 . S
C434 C435 1.407 . S
C434 H440 0.930 . S
C435 C433 1.332 1_655 S
C435 C434 1.407 . S
C435 H437 0.929 1_655 S
H436 C425 0.930 . S
H437 C435 0.929 1_455 S
H438 C453 0.930 . S
H439 C460 0.929 . S
H440 C434 0.930 . S
H441 C433 0.931 . S
H442 C456 0.930 . S
H443 C423 0.930 . S
H444 C429 0.929 . S
H445 C430 0.932 1_455 S
H446 C451 0.930 . S
H447 C426 0.930 . S
H448 C459 0.931 1_565 S
N449 Tb420 2.617 . S
N449 C450 1.379 . S
N449 C453 1.334 . S
C450 N449 1.379 . S
C450 C452 1.416 . S
C450 C458 1.424 . S
C451 H446 0.930 . S
C451 C453 1.390 . S
C451 C454 1.339 . S
C452 C450 1.416 . S
C452 C454 1.416 . S
C452 C485 1.435 1_545 S
C453 H438 0.930 . S
C453 N449 1.334 . S
C453 C451 1.390 . S
C454 C451 1.339 . S
C454 C452 1.416 . S
C454 H461 0.930 . S
N455 Tb420 2.572 . S
N455 C456 1.340 . S
N455 C458 1.361 . S
C456 H442 0.930 . S
C456 N455 1.340 . S
C456 C460 1.407 . S
C457 C458 1.413 . S
C457 C459 1.416 . S
C457 C486 1.427 1_545 S
C458 C450 1.424 . S
C458 N455 1.361 . S
C458 C457 1.413 . S
C459 H448 0.931 1_545 S
C459 C457 1.416 . S
C459 C460 1.332 . S
C460 H439 0.929 . S
C460 C456 1.407 . S
C460 C459 1.332 . S
H461 C454 0.930 . S
H462 C485 0.941 . S
H463 C486 0.929 . S
O464 Tb420 2.465 . S
O464 C484 1.264 . S
O465 Tb420 2.387 . S
O465 C476 1.264 . S
O466 Tb431 2.349 . S
O466 C476 1.243 . S
O467 Tb420 2.428 . S
O467 C484 1.256 . S
O468 Tb420 2.308 . S
O468 C483 1.266 . S
O469 Tb431 2.393 . S
O469 C483 1.248 . S
O470 Tb431 2.465 . S
O470 C495 1.264 . S
O471 Tb431 2.387 . S
O471 C487 1.264 . S
O472 Tb420 2.349 . S
O472 C487 1.243 . S
O473 Tb431 2.428 . S
O473 C495 1.256 . S
O474 Tb431 2.308 . S
O474 C494 1.266 . S
O475 Tb420 2.393 . S
O475 C494 1.248 . S
C476 O465 1.264 . S
C476 O466 1.243 . S
C477 C480 1.399 . S
C477 C482 1.383 . S
C477 C484 1.496 . S
C478 C479 1.399 . S
C478 C482 1.389 . S
C479 C478 1.399 . S
C479 C481 1.380 . S
C479 H496 0.929 . S
C480 C477 1.399 . S
C480 C481 1.392 . S
C480 H497 0.929 . S
C481 C479 1.380 . S
C481 C480 1.392 . S
C481 H498 0.929 . S
C482 C477 1.383 . S
C482 C478 1.389 . S
C482 H499 0.931 . S
C483 O468 1.266 . S
C483 O469 1.248 . S
C484 Tb420 2.802 . S
C484 O464 1.264 . S
C484 O467 1.256 . S
C484 C477 1.496 . S
C485 C452 1.435 1_565 S
C485 H462 0.941 . S
C485 C486 1.331 . S
C486 C457 1.427 1_565 S
C486 H463 0.929 . S
C486 C485 1.331 . S
C487 O471 1.264 . S
C487 O472 1.243 . S
C488 C491 1.399 . S
C488 C492 1.383 . S
C488 C495 1.496 1_455 S
C489 C490 1.399 . S
C489 C492 1.389 . S
C490 C489 1.399 . S
C490 C493 1.380 . S
C490 H500 0.929 . S
C491 C488 1.399 . S
C491 C493 1.392 . S
C491 H501 0.929 . S
C492 C488 1.383 . S
C492 C489 1.389 . S
C492 H502 0.931 . S
C493 C490 1.380 . S
C493 C491 1.392 . S
C493 H503 0.929 . S
C494 O474 1.266 . S
C494 O475 1.248 . S
C495 Tb431 2.802 . S
C495 O470 1.264 . S
C495 O473 1.256 . S
C495 C488 1.496 1_655 S
H496 C479 0.929 . S
H497 C480 0.929 . S
H498 C481 0.929 . S
H499 C482 0.931 . S
H500 C490 0.929 . S
H501 C491 0.929 . S
H502 C492 0.931 . S
H503 C493 0.929 . S
Tb504 N533 2.617 . S
Tb504 N539 2.572 . S
Tb504 O548 2.465 . S
Tb504 O549 2.387 . S
Tb504 O551 2.428 . S
Tb504 O552 2.308 . S
Tb504 O556 2.349 . S
Tb504 O559 2.393 . S
Tb504 C568 2.802 . S
C505 N506 1.379 . S
C505 C508 1.416 . S
C505 C512 1.424 . S
N506 C505 1.379 . S
N506 C509 1.334 . S
N506 Tb515 2.617 . S
C507 C509 1.390 . S
C507 C510 1.339 . S
C507 H527 0.930 . S
C508 C505 1.416 . S
C508 C510 1.416 . S
C508 C514 1.448 . S
C509 N506 1.334 . S
C509 C507 1.390 . S
C509 H520 0.930 . S
C510 C507 1.339 . S
C510 C508 1.416 . S
C510 H531 0.930 . S
C511 C512 1.413 . S
C511 C513 1.427 1_455 S
C511 C517 1.416 1_455 S
C512 C505 1.424 . S
C512 C511 1.413 . S
C512 N516 1.361 . S
C513 C511 1.427 1_655 S
C513 C514 1.328 1_655 S
C513 H528 0.929 . S
C514 C508 1.448 . S
C514 C513 1.328 1_455 S
C514 H529 0.917 1_455 S
Tb515 N506 2.617 . S
Tb515 N516 2.572 . S
Tb515 O550 2.349 . S
Tb515 O553 2.393 . S
Tb515 O554 2.465 . S
Tb515 O555 2.387 . S
Tb515 O557 2.428 . S
Tb515 O558 2.308 . S
Tb515 C579 2.802 . S
N516 C512 1.361 . S
N516 Tb515 2.572 . S
N516 C518 1.340 . S
C517 C511 1.416 1_655 S
C517 C519 1.332 1_655 S
C517 H525 0.931 . S
C518 N516 1.340 . S
C518 C519 1.407 . S
C518 H524 0.930 . S
C519 C517 1.332 1_455 S
C519 C518 1.407 . S
C519 H521 0.929 1_455 S
H520 C509 0.930 . S
H521 C519 0.929 1_655 S
H522 C537 0.930 . S
H523 C544 0.929 . S
H524 C518 0.930 . S
H525 C517 0.931 . S
H526 C540 0.930 . S
H527 C507 0.930 . S
H528 C513 0.929 . S
H529 C514 0.917 1_655 S
H530 C535 0.930 . S
H531 C510 0.930 . S
H532 C543 0.931 . S
N533 Tb504 2.617 . S
N533 C534 1.379 . S
N533 C537 1.334 . S
C534 N533 1.379 . S
C534 C536 1.416 . S
C534 C542 1.424 . S
C535 H530 0.930 . S
C535 C537 1.390 . S
C535 C538 1.339 . S
C536 C534 1.416 . S
C536 C538 1.416 . S
C536 C569 1.448 . S
C537 H522 0.930 . S
C537 N533 1.334 . S
C537 C535 1.390 . S
C538 C535 1.339 . S
C538 C536 1.416 . S
C538 H545 0.930 . S
N539 Tb504 2.572 . S
N539 C540 1.340 . S
N539 C542 1.361 . S
C540 H526 0.930 . S
C540 N539 1.340 . S
C540 C544 1.407 . S
C541 C542 1.413 . S
C541 C543 1.416 . S
C541 C570 1.427 . S
C542 C534 1.424 . S
C542 N539 1.361 . S
C542 C541 1.413 . S
C543 H532 0.931 . S
C543 C541 1.416 . S
C543 C544 1.332 . S
C544 H523 0.929 . S
C544 C540 1.407 . S
C544 C543 1.332 . S
H545 C538 0.930 . S
H546 C569 0.930 . S
H547 C570 0.929 . S
O548 Tb504 2.465 . S
O548 C568 1.264 . S
O549 Tb504 2.387 . S
O549 C560 1.264 . S
O550 Tb515 2.349 . S
O550 C560 1.243 . S
O551 Tb504 2.428 . S
O551 C568 1.256 . S
O552 Tb504 2.308 . S
O552 C567 1.266 . S
O553 Tb515 2.393 . S
O553 C567 1.248 . S
O554 Tb515 2.465 . S
O554 C579 1.264 . S
O555 Tb515 2.387 . S
O555 C571 1.264 . S
O556 Tb504 2.349 . S
O556 C571 1.243 . S
O557 Tb515 2.428 . S
O557 C579 1.256 . S
O558 Tb515 2.308 . S
O558 C578 1.266 . S
O559 Tb504 2.393 . S
O559 C578 1.248 . S
C560 O549 1.264 . S
C560 O550 1.243 . S
C561 C564 1.399 . S
C561 C566 1.383 . S
C561 C568 1.496 . S
C562 C563 1.399 . S
C562 C566 1.389 . S
C563 C562 1.399 . S
C563 C565 1.380 . S
C563 H580 0.929 . S
C564 C561 1.399 . S
C564 C565 1.392 . S
C564 H581 0.929 . S
C565 C563 1.380 . S
C565 C564 1.392 . S
C565 H582 0.929 . S
C566 C561 1.383 . S
C566 C562 1.389 . S
C566 H583 0.931 . S
C567 O552 1.266 . S
C567 O553 1.248 . S
C568 Tb504 2.802 . S
C568 O548 1.264 . S
C568 O551 1.256 . S
C568 C561 1.496 . S
C569 C536 1.448 . S
C569 H546 0.930 . S
C569 C570 1.328 . S
C570 C541 1.427 . S
C570 H547 0.929 . S
C570 C569 1.328 . S
C571 O555 1.264 . S
C571 O556 1.243 . S
C572 C575 1.399 . S
C572 C576 1.383 . S
C572 C579 1.496 1_655 S
C573 C574 1.399 . S
C573 C576 1.389 . S
C574 C573 1.399 . S
C574 C577 1.380 . S
C574 H584 0.929 . S
C575 C572 1.399 . S
C575 C577 1.392 . S
C575 H585 0.929 . S
C576 C572 1.383 . S
C576 C573 1.389 . S
C576 H586 0.931 . S
C577 C574 1.380 . S
C577 C575 1.392 . S
C577 H587 0.929 . S
C578 O558 1.266 . S
C578 O559 1.248 . S
C579 Tb515 2.802 . S
C579 O554 1.264 . S
C579 O557 1.256 . S
C579 C572 1.496 1_455 S
H580 C563 0.929 . S
H581 C564 0.929 . S
H582 C565 0.929 . S
H583 C566 0.931 . S
H584 C574 0.929 . S
H585 C575 0.929 . S
H586 C576 0.931 . S
H587 C577 0.929 . S
Tb588 N617 2.617 . S
Tb588 N623 2.572 . S
Tb588 O632 2.465 . S
Tb588 O633 2.387 . S
Tb588 O635 2.428 . S
Tb588 O636 2.308 . S
Tb588 O640 2.349 . S
Tb588 O643 2.393 . S
Tb588 C652 2.802 . S
C589 N590 1.379 . S
C589 C592 1.416 . S
C589 C596 1.424 . S
N590 C589 1.379 . S
N590 C593 1.334 . S
N590 Tb599 2.617 . S
C591 C593 1.390 . S
C591 C594 1.339 . S
C591 H611 0.930 1_556 S
C592 C589 1.416 . S
C592 C594 1.416 . S
C592 C598 1.435 1_455 S
C593 N590 1.334 . S
C593 C591 1.390 . S
C593 H604 0.930 . S
C594 C591 1.339 . S
C594 C592 1.416 . S
C594 H615 0.930 . S
C595 C596 1.413 . S
C595 C597 1.427 1_455 S
C595 C601 1.416 . S
C596 C589 1.424 . S
C596 C595 1.413 . S
C596 N600 1.361 . S
C597 C595 1.427 1_655 S
C597 C598 1.331 . S
C597 H612 0.929 . S
C598 C592 1.435 1_655 S
C598 C597 1.331 . S
C598 H613 0.941 . S
Tb599 N590 2.617 . S
Tb599 N600 2.572 . S
Tb599 O634 2.349 . S
Tb599 O637 2.393 . S
Tb599 O638 2.465 . S
Tb599 O639 2.387 . S
Tb599 O641 2.428 . S
Tb599 O642 2.308 . S
Tb599 C663 2.802 . S
N600 C596 1.361 . S
N600 Tb599 2.572 . S
N600 C602 1.340 . S
C601 C595 1.416 . S
C601 C603 1.332 . S
C601 H609 0.931 1_455 S
C602 N600 1.340 . S
C602 C603 1.407 . S
C602 H608 0.930 . S
C603 C601 1.332 . S
C603 C602 1.407 . S
C603 H605 0.929 . S
H604 C593 0.930 . S
H605 C603 0.929 . S
H606 C621 0.930 . S
H607 C628 0.929 1_545 S
H608 C602 0.930 . S
H609 C601 0.931 1_655 S
H610 C624 0.930 . S
H611 C591 0.930 1_554 S
H612 C597 0.929 . S
H613 C598 0.941 . S
H614 C619 0.930 . S
H615 C594 0.930 . S
H616 C627 0.931 . S
N617 Tb588 2.617 . S
N617 C618 1.379 . S
N617 C621 1.334 . S
C618 N617 1.379 . S
C618 C620 1.416 . S
C618 C626 1.424 . S
C619 H614 0.930 . S
C619 C621 1.390 . S
C619 C622 1.339 . S
C620 C618 1.416 . S
C620 C622 1.416 . S
C620 C653 1.448 . S
C621 H606 0.930 . S
C621 N617 1.334 . S
C621 C619 1.390 . S
C622 C619 1.339 . S
C622 C620 1.416 . S
C622 H629 0.930 . S
N623 Tb588 2.572 . S
N623 C624 1.340 . S
N623 C626 1.361 . S
C624 H610 0.930 . S
C624 N623 1.340 . S
C624 C628 1.407 . S
C625 C626 1.413 . S
C625 C627 1.416 1_565 S
C625 C654 1.427 1_565 S
C626 C618 1.424 . S
C626 N623 1.361 . S
C626 C625 1.413 . S
C627 H616 0.931 . S
C627 C625 1.416 1_545 S
C627 C628 1.332 1_545 S
C628 H607 0.929 1_565 S
C628 C624 1.407 . S
C628 C627 1.332 1_565 S
H629 C622 0.930 . S
H630 C653 0.932 1_545 S
H631 C654 0.929 . S
O632 Tb588 2.465 . S
O632 C652 1.264 . S
O633 Tb588 2.387 . S
O633 C644 1.264 . S
O634 Tb599 2.349 . S
O634 C644 1.243 . S
O635 Tb588 2.428 . S
O635 C652 1.256 . S
O636 Tb588 2.308 . S
O636 C651 1.266 . S
O637 Tb599 2.393 . S
O637 C651 1.248 . S
O638 Tb599 2.465 . S
O638 C663 1.264 . S
O639 Tb599 2.387 . S
O639 C655 1.264 . S
O640 Tb588 2.349 . S
O640 C655 1.243 . S
O641 Tb599 2.428 . S
O641 C663 1.256 . S
O642 Tb599 2.308 . S
O642 C662 1.266 . S
O643 Tb588 2.393 . S
O643 C662 1.248 . S
C644 O633 1.264 . S
C644 O634 1.243 . S
C645 C648 1.399 . S
C645 C650 1.383 . S
C645 C652 1.496 1_545 S
C646 C647 1.399 . S
C646 C650 1.389 . S
C647 C646 1.399 . S
C647 C649 1.380 . S
C647 H664 0.929 . S
C648 C645 1.399 . S
C648 C649 1.392 . S
C648 H665 0.929 . S
C649 C647 1.380 . S
C649 C648 1.392 . S
C649 H666 0.929 . S
C650 C645 1.383 . S
C650 C646 1.389 . S
C650 H667 0.931 . S
C651 O636 1.266 . S
C651 O637 1.248 . S
C652 Tb588 2.802 . S
C652 O632 1.264 . S
C652 O635 1.256 . S
C652 C645 1.496 1_565 S
C653 C620 1.448 . S
C653 H630 0.932 1_565 S
C653 C654 1.328 1_565 S
C654 C625 1.427 1_545 S
C654 H631 0.929 . S
C654 C653 1.328 1_545 S
C655 O639 1.264 . S
C655 O640 1.243 . S
C656 C659 1.399 . S
C656 C660 1.383 . S
C656 C663 1.496 . S
C657 C658 1.399 . S
C657 C660 1.389 . S
C658 C657 1.399 . S
C658 C661 1.380 . S
C658 H668 0.929 . S
C659 C656 1.399 . S
C659 C661 1.392 . S
C659 H669 0.929 . S
C660 C656 1.383 . S
C660 C657 1.389 . S
C660 H670 0.931 . S
C661 C658 1.380 . S
C661 C659 1.392 . S
C661 H671 0.929 . S
C662 O642 1.266 . S
C662 O643 1.248 . S
C663 Tb599 2.802 . S
C663 O638 1.264 . S
C663 O641 1.256 . S
C663 C656 1.496 . S
H664 C647 0.929 . S
H665 C648 0.929 . S
H666 C649 0.929 . S
H667 C650 0.931 . S
H668 C658 0.929 . S
H669 C659 0.929 . S
H670 C660 0.931 . S
H671 C661 0.929 . S
Tb672 N701 2.617 . S
Tb672 N707 2.572 . S
Tb672 O716 2.465 . S
Tb672 O717 2.387 . S
Tb672 O719 2.428 . S
Tb672 O720 2.308 . S
Tb672 O724 2.349 . S
Tb672 O727 2.393 . S
Tb672 C736 2.802 . S
C673 N674 1.379 . S
C673 C676 1.416 . S
C673 C680 1.424 . S
N674 C673 1.379 . S
N674 C677 1.334 . S
N674 Tb683 2.617 . S
C675 C677 1.390 . S
C675 C678 1.339 . S
C675 H695 0.930 . S
C676 C673 1.416 . S
C676 C678 1.416 . S
C676 C682 1.448 . S
C677 N674 1.334 . S
C677 C675 1.390 . S
C677 H688 0.930 . S
C678 C675 1.339 . S
C678 C676 1.416 . S
C678 H699 0.930 . S
C679 C680 1.413 . S
C679 C681 1.427 . S
C679 C685 1.416 . S
C680 C673 1.424 . S
C680 C679 1.413 . S
C680 N684 1.361 . S
C681 C679 1.427 . S
C681 C682 1.328 . S
C681 H696 0.929 . S
C682 C676 1.448 . S
C682 C681 1.328 . S
C682 H697 0.930 . S
Tb683 N674 2.617 . S
Tb683 N684 2.572 . S
Tb683 O718 2.349 . S
Tb683 O721 2.393 . S
Tb683 O722 2.465 . S
Tb683 O723 2.387 . S
Tb683 O725 2.428 . S
Tb683 O726 2.308 . S
Tb683 C747 2.802 . S
N684 C680 1.361 . S
N684 Tb683 2.572 . S
N684 C686 1.340 . S
C685 C679 1.416 . S
C685 C687 1.332 . S
C685 H693 0.931 . S
C686 N684 1.340 . S
C686 C687 1.407 . S
C686 H692 0.930 . S
C687 C685 1.332 . S
C687 C686 1.407 . S
C687 H689 0.929 . S
H688 C677 0.930 . S
H689 C687 0.929 . S
H690 C705 0.930 . S
H691 C712 0.929 . S
H692 C686 0.930 . S
H693 C685 0.931 . S
H694 C708 0.930 . S
H695 C675 0.930 . S
H696 C681 0.929 . S
H697 C682 0.930 . S
H698 C703 0.930 . S
H699 C678 0.930 . S
H700 C711 0.931 1_545 S
N701 Tb672 2.617 . S
N701 C702 1.379 . S
N701 C705 1.334 . S
C702 N701 1.379 . S
C702 C704 1.416 . S
C702 C710 1.424 . S
C703 H698 0.930 . S
C703 C705 1.390 . S
C703 C706 1.339 . S
C704 C702 1.416 . S
C704 C706 1.416 . S
C704 C737 1.432 1_565 S
C705 H690 0.930 . S
C705 N701 1.334 . S
C705 C703 1.390 . S
C706 C703 1.339 . S
C706 C704 1.416 . S
C706 H713 0.930 . S
N707 Tb672 2.572 . S
N707 C708 1.340 . S
N707 C710 1.361 . S
C708 H694 0.930 . S
C708 N707 1.340 . S
C708 C712 1.407 . S
C709 C710 1.413 . S
C709 C711 1.416 . S
C709 C738 1.427 1_565 S
C710 C702 1.424 . S
C710 N707 1.361 . S
C710 C709 1.413 . S
C711 H700 0.931 1_565 S
C711 C709 1.416 . S
C711 C712 1.332 . S
C712 H691 0.929 . S
C712 C708 1.407 . S
C712 C711 1.332 . S
H713 C706 0.930 . S
H714 C737 0.940 . S
H715 C738 0.929 . S
O716 Tb672 2.465 . S
O716 C736 1.264 . S
O717 Tb672 2.387 . S
O717 C728 1.264 . S
O718 Tb683 2.349 . S
O718 C728 1.243 . S
O719 Tb672 2.428 . S
O719 C736 1.256 . S
O720 Tb672 2.308 . S
O720 C735 1.266 . S
O721 Tb683 2.393 . S
O721 C735 1.248 . S
O722 Tb683 2.465 . S
O722 C747 1.264 . S
O723 Tb683 2.387 . S
O723 C739 1.264 . S
O724 Tb672 2.349 . S
O724 C739 1.243 . S
O725 Tb683 2.428 . S
O725 C747 1.256 . S
O726 Tb683 2.308 . S
O726 C746 1.266 . S
O727 Tb672 2.393 . S
O727 C746 1.248 . S
C728 O717 1.264 . S
C728 O718 1.243 . S
C729 C732 1.399 . S
C729 C734 1.383 . S
C729 C736 1.496 . S
C730 C731 1.399 . S
C730 C734 1.389 . S
C731 C730 1.399 . S
C731 C733 1.380 . S
C731 H748 0.929 . S
C732 C729 1.399 . S
C732 C733 1.392 . S
C732 H749 0.929 . S
C733 C731 1.380 . S
C733 C732 1.392 . S
C733 H750 0.929 . S
C734 C729 1.383 . S
C734 C730 1.389 . S
C734 H751 0.931 . S
C735 O720 1.266 . S
C735 O721 1.248 . S
C736 Tb672 2.802 . S
C736 O716 1.264 . S
C736 O719 1.256 . S
C736 C729 1.496 . S
C737 C704 1.432 1_545 S
C737 H714 0.940 . S
C737 C738 1.335 . S
C738 C709 1.427 1_545 S
C738 H715 0.929 . S
C738 C737 1.335 . S
C739 O723 1.264 . S
C739 O724 1.243 . S
C740 C743 1.399 . S
C740 C744 1.383 . S
C740 C747 1.496 . S
C741 C742 1.399 . S
C741 C744 1.389 . S
C742 C741 1.399 . S
C742 C745 1.380 . S
C742 H752 0.929 . S
C743 C740 1.399 . S
C743 C745 1.392 . S
C743 H753 0.929 . S
C744 C740 1.383 . S
C744 C741 1.389 . S
C744 H754 0.931 . S
C745 C742 1.380 . S
C745 C743 1.392 . S
C745 H755 0.929 . S
C746 O726 1.266 . S
C746 O727 1.248 . S
C747 Tb683 2.802 . S
C747 O722 1.264 . S
C747 O725 1.256 . S
C747 C740 1.496 . S
H748 C731 0.929 . S
H749 C732 0.929 . S
H750 C733 0.929 . S
H751 C734 0.931 . S
H752 C742 0.929 . S
H753 C743 0.929 . S
H754 C744 0.931 . S
H755 C745 0.929 . S
Tb756 N785 2.617 . S
Tb756 N791 2.572 . S
Tb756 O800 2.465 . S
Tb756 O801 2.387 . S
Tb756 O803 2.428 . S
Tb756 O804 2.308 . S
Tb756 O808 2.349 . S
Tb756 O811 2.393 . S
Tb756 C820 2.802 . S
C757 N758 1.379 . S
C757 C760 1.416 . S
C757 C764 1.424 . S
N758 C757 1.379 . S
N758 C761 1.334 . S
N758 Tb767 2.617 . S
C759 C761 1.390 . S
C759 C762 1.339 . S
C759 H779 0.930 1_556 S
C760 C757 1.416 . S
C760 C762 1.416 . S
C760 C766 1.448 . S
C761 N758 1.334 . S
C761 C759 1.390 . S
C761 H772 0.930 . S
C762 C759 1.339 . S
C762 C760 1.416 . S
C762 H783 0.930 . S
C763 C764 1.413 . S
C763 C765 1.427 . S
C763 C769 1.416 . S
C764 C757 1.424 . S
C764 C763 1.413 . S
C764 N768 1.361 . S
C765 C763 1.427 . S
C765 C766 1.328 . S
C765 H780 0.929 . S
C766 C760 1.448 . S
C766 C765 1.328 . S
C766 H781 0.930 . S
Tb767 N758 2.617 . S
Tb767 N768 2.572 . S
Tb767 O802 2.349 . S
Tb767 O805 2.393 . S
Tb767 O806 2.465 . S
Tb767 O807 2.387 . S
Tb767 O809 2.428 . S
Tb767 O810 2.308 . S
Tb767 C831 2.802 . S
N768 C764 1.361 . S
N768 Tb767 2.572 . S
N768 C770 1.340 . S
C769 C763 1.416 . S
C769 C771 1.332 . S
C769 H777 0.931 . S
C770 N768 1.340 . S
C770 C771 1.407 . S
C770 H776 0.930 . S
C771 C769 1.332 . S
C771 C770 1.407 . S
C771 H773 0.929 . S
H772 C761 0.930 . S
H773 C771 0.929 . S
H774 C789 0.930 . S
H775 C796 0.929 1_655 S
H776 C770 0.930 . S
H777 C769 0.931 . S
H778 C792 0.930 . S
H779 C759 0.930 1_554 S
H780 C765 0.929 . S
H781 C766 0.930 . S
H782 C787 0.930 . S
H783 C762 0.930 . S
H784 C795 0.931 . S
N785 Tb756 2.617 . S
N785 C786 1.379 . S
N785 C789 1.334 . S
C786 N785 1.379 . S
C786 C788 1.416 . S
C786 C794 1.424 . S
C787 H782 0.930 . S
C787 C789 1.390 . S
C787 C790 1.339 . S
C788 C786 1.416 . S
C788 C790 1.416 . S
C788 C821 1.448 . S
C789 H774 0.930 . S
C789 N785 1.334 . S
C789 C787 1.390 . S
C790 C787 1.339 . S
C790 C788 1.416 . S
C790 H797 0.930 . S
N791 Tb756 2.572 . S
N791 C792 1.340 . S
N791 C794 1.361 . S
C792 H778 0.930 . S
C792 N791 1.340 . S
C792 C796 1.407 . S
C793 C794 1.413 . S
C793 C795 1.416 1_455 S
C793 C822 1.427 1_455 S
C794 C786 1.424 . S
C794 N791 1.361 . S
C794 C793 1.413 . S
C795 H784 0.931 . S
C795 C793 1.416 1_655 S
C795 C796 1.332 1_655 S
C796 H775 0.929 1_455 S
C796 C792 1.407 . S
C796 C795 1.332 1_455 S
H797 C790 0.930 . S
H798 C821 0.917 1_655 S
H799 C822 0.929 . S
O800 Tb756 2.465 . S
O800 C820 1.264 . S
O801 Tb756 2.387 . S
O801 C812 1.264 . S
O802 Tb767 2.349 . S
O802 C812 1.243 . S
O803 Tb756 2.428 . S
O803 C820 1.256 . S
O804 Tb756 2.308 . S
O804 C819 1.266 . S
O805 Tb767 2.393 . S
O805 C819 1.248 . S
O806 Tb767 2.465 . S
O806 C831 1.264 . S
O807 Tb767 2.387 . S
O807 C823 1.264 . S
O808 Tb756 2.349 . S
O808 C823 1.243 . S
O809 Tb767 2.428 . S
O809 C831 1.256 . S
O810 Tb767 2.308 . S
O810 C830 1.266 . S
O811 Tb756 2.393 . S
O811 C830 1.248 . S
C812 O801 1.264 . S
C812 O802 1.243 . S
C813 C816 1.399 . S
C813 C818 1.383 . S
C813 C820 1.496 1_655 S
C814 C815 1.399 . S
C814 C818 1.389 . S
C815 C814 1.399 . S
C815 C817 1.380 . S
C815 H832 0.929 . S
C816 C813 1.399 . S
C816 C817 1.392 . S
C816 H833 0.929 . S
C817 C815 1.380 . S
C817 C816 1.392 . S
C817 H834 0.929 . S
C818 C813 1.383 . S
C818 C814 1.389 . S
C818 H835 0.931 . S
C819 O804 1.266 . S
C819 O805 1.248 . S
C820 Tb756 2.802 . S
C820 O800 1.264 . S
C820 O803 1.256 . S
C820 C813 1.496 1_455 S
C821 C788 1.448 . S
C821 H798 0.917 1_455 S
C821 C822 1.328 1_455 S
C822 C793 1.427 1_655 S
C822 H799 0.929 . S
C822 C821 1.328 1_655 S
C823 O807 1.264 . S
C823 O808 1.243 . S
C824 C827 1.399 . S
C824 C828 1.383 . S
C824 C831 1.496 . S
C825 C826 1.399 . S
C825 C828 1.389 . S
C826 C825 1.399 . S
C826 C829 1.380 . S
C826 H836 0.929 . S
C827 C824 1.399 . S
C827 C829 1.392 . S
C827 H837 0.929 . S
C828 C824 1.383 . S
C828 C825 1.389 . S
C828 H838 0.931 . S
C829 C826 1.380 . S
C829 C827 1.392 . S
C829 H839 0.929 . S
C830 O810 1.266 . S
C830 O811 1.248 . S
C831 Tb767 2.802 . S
C831 O806 1.264 . S
C831 O809 1.256 . S
C831 C824 1.496 . S
H832 C815 0.929 . S
H833 C816 0.929 . S
H834 C817 0.929 . S
H835 C818 0.931 . S
H836 C826 0.929 . S
H837 C827 0.929 . S
H838 C828 0.931 . S
H839 C829 0.929 . S
Tb840 N869 2.617 . S
Tb840 N875 2.572 . S
Tb840 O884 2.465 . S
Tb840 O885 2.387 . S
Tb840 O887 2.428 . S
Tb840 O888 2.308 . S
Tb840 O892 2.349 . S
Tb840 O895 2.393 . S
Tb840 C904 2.802 . S
C841 N842 1.379 . S
C841 C844 1.416 . S
C841 C848 1.424 . S
N842 C841 1.379 . S
N842 C845 1.334 . S
N842 Tb851 2.617 . S
C843 C845 1.390 . S
C843 C846 1.339 . S
C843 H863 0.930 . S
C844 C841 1.416 . S
C844 C846 1.416 . S
C844 C850 1.448 . S
C845 N842 1.334 . S
C845 C843 1.390 . S
C845 H856 0.930 . S
C846 C843 1.339 . S
C846 C844 1.416 . S
C846 H867 0.930 . S
C847 C848 1.413 . S
C847 C849 1.427 1_565 S
C847 C853 1.416 1_565 S
C848 C841 1.424 . S
C848 C847 1.413 . S
C848 N852 1.361 . S
C849 C847 1.427 1_545 S
C849 C850 1.328 1_545 S
C849 H864 0.929 . S
C850 C844 1.448 . S
C850 C849 1.328 1_565 S
C850 H865 0.932 1_565 S
Tb851 N842 2.617 . S
Tb851 N852 2.572 . S
Tb851 O886 2.349 . S
Tb851 O889 2.393 . S
Tb851 O890 2.465 . S
Tb851 O891 2.387 . S
Tb851 O893 2.428 . S
Tb851 O894 2.308 . S
Tb851 C915 2.802 . S
N852 C848 1.361 . S
N852 Tb851 2.572 . S
N852 C854 1.340 . S
C853 C847 1.416 1_545 S
C853 C855 1.332 1_545 S
C853 H861 0.931 . S
C854 N852 1.340 . S
C854 C855 1.407 . S
C854 H860 0.930 . S
C855 C853 1.332 1_565 S
C855 C854 1.407 . S
C855 H857 0.929 1_565 S
H856 C845 0.930 . S
H857 C855 0.929 1_545 S
H858 C873 0.930 . S
H859 C880 0.929 . S
H860 C854 0.930 . S
H861 C853 0.931 . S
H862 C876 0.930 . S
H863 C843 0.930 . S
H864 C849 0.929 . S
H865 C850 0.932 1_545 S
H866 C871 0.930 . S
H867 C846 0.930 . S
H868 C879 0.931 1_655 S
N869 Tb840 2.617 . S
N869 C870 1.379 . S
N869 C873 1.334 . S
C870 N869 1.379 . S
C870 C872 1.416 . S
C870 C878 1.424 . S
C871 H866 0.930 . S
C871 C873 1.390 . S
C871 C874 1.339 . S
C872 C870 1.416 . S
C872 C874 1.416 . S
C872 C905 1.435 1_455 S
C873 H858 0.930 . S
C873 N869 1.334 . S
C873 C871 1.390 . S
C874 C871 1.339 . S
C874 C872 1.416 . S
C874 H881 0.930 . S
N875 Tb840 2.572 . S
N875 C876 1.340 . S
N875 C878 1.361 . S
C876 H862 0.930 . S
C876 N875 1.340 . S
C876 C880 1.407 . S
C877 C878 1.413 . S
C877 C879 1.416 . S
C877 C906 1.427 1_455 S
C878 C870 1.424 . S
C878 N875 1.361 . S
C878 C877 1.413 . S
C879 H868 0.931 1_455 S
C879 C877 1.416 . S
C879 C880 1.332 . S
C880 H859 0.929 . S
C880 C876 1.407 . S
C880 C879 1.332 . S
H881 C874 0.930 . S
H882 C905 0.941 . S
H883 C906 0.929 . S
O884 Tb840 2.465 . S
O884 C904 1.264 . S
O885 Tb840 2.387 . S
O885 C896 1.264 . S
O886 Tb851 2.349 . S
O886 C896 1.243 . S
O887 Tb840 2.428 . S
O887 C904 1.256 . S
O888 Tb840 2.308 . S
O888 C903 1.266 . S
O889 Tb851 2.393 . S
O889 C903 1.248 . S
O890 Tb851 2.465 . S
O890 C915 1.264 . S
O891 Tb851 2.387 . S
O891 C907 1.264 . S
O892 Tb840 2.349 . S
O892 C907 1.243 . S
O893 Tb851 2.428 . S
O893 C915 1.256 . S
O894 Tb851 2.308 . S
O894 C914 1.266 . S
O895 Tb840 2.393 . S
O895 C914 1.248 . S
C896 O885 1.264 . S
C896 O886 1.243 . S
C897 C900 1.399 . S
C897 C902 1.383 . S
C897 C904 1.496 . S
C898 C899 1.399 . S
C898 C902 1.389 . S
C899 C898 1.399 . S
C899 C901 1.380 . S
C899 H916 0.929 . S
C900 C897 1.399 . S
C900 C901 1.392 . S
C900 H917 0.929 . S
C901 C899 1.380 . S
C901 C900 1.392 . S
C901 H918 0.929 . S
C902 C897 1.383 . S
C902 C898 1.389 . S
C902 H919 0.931 . S
C903 O888 1.266 . S
C903 O889 1.248 . S
C904 Tb840 2.802 . S
C904 O884 1.264 . S
C904 O887 1.256 . S
C904 C897 1.496 . S
C905 C872 1.435 1_655 S
C905 H882 0.941 . S
C905 C906 1.331 . S
C906 C877 1.427 1_655 S
C906 H883 0.929 . S
C906 C905 1.331 . S
C907 O891 1.264 . S
C907 O892 1.243 . S
C908 C911 1.399 . S
C908 C912 1.383 . S
C908 C915 1.496 1_545 S
C909 C910 1.399 . S
C909 C912 1.389 . S
C910 C909 1.399 . S
C910 C913 1.380 . S
C910 H920 0.929 . S
C911 C908 1.399 . S
C911 C913 1.392 . S
C911 H921 0.929 . S
C912 C908 1.383 . S
C912 C909 1.389 . S
C912 H922 0.931 . S
C913 C910 1.380 . S
C913 C911 1.392 . S
C913 H923 0.929 . S
C914 O894 1.266 . S
C914 O895 1.248 . S
C915 Tb851 2.802 . S
C915 O890 1.264 . S
C915 O893 1.256 . S
C915 C908 1.496 1_565 S
H916 C899 0.929 . S
H917 C900 0.929 . S
H918 C901 0.929 . S
H919 C902 0.931 . S
H920 C910 0.929 . S
H921 C911 0.929 . S
H922 C912 0.931 . S
H923 C913 0.929 . S
Tb924 N953 2.617 . S
Tb924 N959 2.572 . S
Tb924 O968 2.465 . S
Tb924 O969 2.387 . S
Tb924 O971 2.428 . S
Tb924 O972 2.308 . S
Tb924 O976 2.349 . S
Tb924 O979 2.393 . S
Tb924 C988 2.802 . S
C925 N926 1.379 . S
C925 C928 1.416 . S
C925 C932 1.424 . S
N926 C925 1.379 . S
N926 C929 1.334 . S
N926 Tb935 2.617 . S
C927 C929 1.390 . S
C927 C930 1.339 . S
C927 H947 0.930 1_556 S
C928 C925 1.416 . S
C928 C930 1.416 . S
C928 C934 1.432 1_565 S
C929 N926 1.334 . S
C929 C927 1.390 . S
C929 H940 0.930 . S
C930 C927 1.339 . S
C930 C928 1.416 . S
C930 H951 0.930 . S
C931 C932 1.413 . S
C931 C933 1.427 1_565 S
C931 C937 1.416 . S
C932 C925 1.424 . S
C932 C931 1.413 . S
C932 N936 1.361 . S
C933 C931 1.427 1_545 S
C933 C934 1.335 . S
C933 H948 0.929 . S
C934 C928 1.432 1_545 S
C934 C933 1.335 . S
C934 H949 0.940 . S
Tb935 N926 2.617 . S
Tb935 N936 2.572 . S
Tb935 O970 2.349 . S
Tb935 O973 2.393 . S
Tb935 O974 2.465 . S
Tb935 O975 2.387 . S
Tb935 O977 2.428 . S
Tb935 O978 2.308 . S
Tb935 C999 2.802 . S
N936 C932 1.361 . S
N936 Tb935 2.572 . S
N936 C938 1.340 . S
C937 C931 1.416 . S
C937 C939 1.332 . S
C937 H945 0.931 1_565 S
C938 N936 1.340 . S
C938 C939 1.407 . S
C938 H944 0.930 . S
C939 C937 1.332 . S
C939 C938 1.407 . S
C939 H941 0.929 . S
H940 C929 0.930 . S
H941 C939 0.929 . S
H942 C957 0.930 . S
H943 C964 0.929 . S
H944 C938 0.930 . S
H945 C937 0.931 1_545 S
H946 C960 0.930 . S
H947 C927 0.930 1_554 S
H948 C933 0.929 . S
H949 C934 0.940 . S
H950 C955 0.930 . S
H951 C930 0.930 . S
H952 C963 0.931 . S
N953 Tb924 2.617 . S
N953 C954 1.379 . S
N953 C957 1.334 . S
C954 N953 1.379 . S
C954 C956 1.416 . S
C954 C962 1.424 . S
C955 H950 0.930 . S
C955 C957 1.390 . S
C955 C958 1.339 . S
C956 C954 1.416 . S
C956 C958 1.416 . S
C956 C989 1.448 . S
C957 H942 0.930 . S
C957 N953 1.334 . S
C957 C955 1.390 . S
C958 C955 1.339 . S
C958 C956 1.416 . S
C958 H965 0.930 . S
N959 Tb924 2.572 . S
N959 C960 1.340 . S
N959 C962 1.361 . S
C960 H946 0.930 . S
C960 N959 1.340 . S
C960 C964 1.407 . S
C961 C962 1.413 . S
C961 C963 1.416 . S
C961 C990 1.427 . S
C962 C954 1.424 . S
C962 N959 1.361 . S
C962 C961 1.413 . S
C963 H952 0.931 . S
C963 C961 1.416 . S
C963 C964 1.332 . S
C964 H943 0.929 . S
C964 C960 1.407 . S
C964 C963 1.332 . S
H965 C958 0.930 . S
H966 C989 0.930 . S
H967 C990 0.929 . S
O968 Tb924 2.465 . S
O968 C988 1.264 . S
O969 Tb924 2.387 . S
O969 C980 1.264 . S
O970 Tb935 2.349 . S
O970 C980 1.243 . S
O971 Tb924 2.428 . S
O971 C988 1.256 . S
O972 Tb924 2.308 . S
O972 C987 1.266 . S
O973 Tb935 2.393 . S
O973 C987 1.248 . S
O974 Tb935 2.465 . S
O974 C999 1.264 . S
O975 Tb935 2.387 . S
O975 C991 1.264 . S
O976 Tb924 2.349 . S
O976 C991 1.243 . S
O977 Tb935 2.428 . S
O977 C999 1.256 . S
O978 Tb935 2.308 . S
O978 C998 1.266 . S
O979 Tb924 2.393 . S
O979 C998 1.248 . S
C980 O969 1.264 . S
C980 O970 1.243 . S
C981 C984 1.399 . S
C981 C986 1.383 . S
C981 C988 1.496 . S
C982 C983 1.399 . S
C982 C986 1.389 . S
C983 C982 1.399 . S
C983 C985 1.380 . S
C983 H1000 0.929 . S
C984 C981 1.399 . S
C984 C985 1.392 . S
C984 H1001 0.929 . S
C985 C983 1.380 . S
C985 C984 1.392 . S
C985 H1002 0.929 . S
C986 C981 1.383 . S
C986 C982 1.389 . S
C986 H1003 0.931 . S
C987 O972 1.266 . S
C987 O973 1.248 . S
C988 Tb924 2.802 . S
C988 O968 1.264 . S
C988 O971 1.256 . S
C988 C981 1.496 . S
C989 C956 1.448 . S
C989 H966 0.930 . S
C989 C990 1.328 . S
C990 C961 1.427 . S
C990 H967 0.929 . S
C990 C989 1.328 . S
C991 O975 1.264 . S
C991 O976 1.243 . S
C992 C995 1.399 . S
C992 C996 1.383 . S
C992 C999 1.496 . S
C993 C994 1.399 . S
C993 C996 1.389 . S
C994 C993 1.399 . S
C994 C997 1.380 . S
C994 H1004 0.929 . S
C995 C992 1.399 . S
C995 C997 1.392 . S
C995 H1005 0.929 . S
C996 C992 1.383 . S
C996 C993 1.389 . S
C996 H1006 0.931 . S
C997 C994 1.380 . S
C997 C995 1.392 . S
C997 H1007 0.929 . S
C998 O978 1.266 . S
C998 O979 1.248 . S
C999 Tb935 2.802 . S
C999 O974 1.264 . S
C999 O977 1.256 . S
C999 C992 1.496 . S
H1000 C983 0.929 . S
H1001 C984 0.929 . S
H1002 C985 0.929 . S
H1003 C986 0.931 . S
H1004 C994 0.929 . S
H1005 C995 0.929 . S
H1006 C996 0.931 . S
H1007 C997 0.929 . S
H1008 C1014 0.930 . S
H1009 C1018 0.930 . S
H1010 C1023 0.929 . S
H1011 C1021 0.929 . S
H1012 C1016 0.929 . S
H1013 C1022 0.929 . S
C1014 H1008 0.930 . S
C1014 C1015 1.367 . S
C1014 C1022 1.378 . S
C1015 C1014 1.367 . S
C1015 C1023 1.433 . S
C1016 H1012 0.929 . S
C1016 C1018 1.378 . S
C1016 C1020 1.350 . S
C1017 C1020 1.463 . S
C1017 C1022 1.350 . S
C1017 N1025 1.427 . S
C1018 H1009 0.930 . S
C1018 C1016 1.378 . S
C1018 C1019 1.367 . S
C1019 C1018 1.367 . S
C1019 C1021 1.433 . S
C1020 C1016 1.350 . S
C1020 C1017 1.463 . S
C1020 N1024 1.427 . S
C1021 H1011 0.929 . S
C1021 C1019 1.433 . S
C1021 N1024 1.384 . S
C1022 H1013 0.929 . S
C1022 C1014 1.378 . S
C1022 C1017 1.350 . S
C1023 H1010 0.929 . S
C1023 C1015 1.433 . S
C1023 N1025 1.384 . S
N1024 C1020 1.427 . S
N1024 C1021 1.384 . S
N1025 C1017 1.427 . S
N1025 C1023 1.384 . S
H1026 C1032 0.930 . S
H1027 C1036 0.930 . S
H1028 C1041 0.929 . S
H1029 C1039 0.929 . S
H1030 C1034 0.929 . S
H1031 C1040 0.929 . S
C1032 H1026 0.930 . S
C1032 C1033 1.367 . S
C1032 C1040 1.378 . S
C1033 C1032 1.367 . S
C1033 C1041 1.433 . S
C1034 H1030 0.929 . S
C1034 C1036 1.378 . S
C1034 C1038 1.350 . S
C1035 C1038 1.463 1_455 S
C1035 C1040 1.350 . S
C1035 N1043 1.427 . S
C1036 H1027 0.930 . S
C1036 C1034 1.378 . S
C1036 C1037 1.367 . S
C1037 C1036 1.367 . S
C1037 C1039 1.433 . S
C1038 C1034 1.350 . S
C1038 C1035 1.463 1_655 S
C1038 N1042 1.427 . S
C1039 H1029 0.929 . S
C1039 C1037 1.433 . S
C1039 N1042 1.384 . S
C1040 H1031 0.929 . S
C1040 C1032 1.378 . S
C1040 C1035 1.350 . S
C1041 H1028 0.929 . S
C1041 C1033 1.433 . S
C1041 N1043 1.384 . S
N1042 C1038 1.427 . S
N1042 C1039 1.384 . S
N1043 C1035 1.427 . S
N1043 C1041 1.384 . S
H1044 C1050 0.930 . S
H1045 C1054 0.930 . S
H1046 C1059 0.929 . S
H1047 C1057 0.929 . S
H1048 C1052 0.929 . S
H1049 C1058 0.929 1_565 S
C1050 H1044 0.930 . S
C1050 C1051 1.367 . S
C1050 C1058 1.378 . S
C1051 C1050 1.367 . S
C1051 C1059 1.433 . S
C1052 H1048 0.929 . S
C1052 C1054 1.378 . S
C1052 C1056 1.350 . S
C1053 C1056 1.463 1_545 S
C1053 C1058 1.350 . S
C1053 N1061 1.427 . S
C1054 H1045 0.930 . S
C1054 C1052 1.378 . S
C1054 C1055 1.367 . S
C1055 C1054 1.367 . S
C1055 C1057 1.433 . S
C1056 C1052 1.350 . S
C1056 C1053 1.463 1_565 S
C1056 N1060 1.427 . S
C1057 H1047 0.929 . S
C1057 C1055 1.433 . S
C1057 N1060 1.384 . S
C1058 H1049 0.929 1_545 S
C1058 C1050 1.378 . S
C1058 C1053 1.350 . S
C1059 H1046 0.929 . S
C1059 C1051 1.433 . S
C1059 N1061 1.384 . S
N1060 C1056 1.427 . S
N1060 C1057 1.384 . S
N1061 C1053 1.427 . S
N1061 C1059 1.384 . S
H1062 C1068 0.930 . S
H1063 C1072 0.930 . S
H1064 C1077 0.929 . S
H1065 C1075 0.929 . S
H1066 C1070 0.929 . S
H1067 C1076 0.929 . S
C1068 H1062 0.930 . S
C1068 C1069 1.367 . S
C1068 C1076 1.378 . S
C1069 C1068 1.367 . S
C1069 C1077 1.433 . S
C1070 H1066 0.929 . S
C1070 C1072 1.378 . S
C1070 C1074 1.350 . S
C1071 C1074 1.463 . S
C1071 C1076 1.350 . S
C1071 N1079 1.427 . S
C1072 H1063 0.930 . S
C1072 C1070 1.378 . S
C1072 C1073 1.367 . S
C1073 C1072 1.367 . S
C1073 C1075 1.433 . S
C1074 C1070 1.350 . S
C1074 C1071 1.463 . S
C1074 N1078 1.427 . S
C1075 H1065 0.929 . S
C1075 C1073 1.433 . S
C1075 N1078 1.384 . S
C1076 H1067 0.929 . S
C1076 C1068 1.378 . S
C1076 C1071 1.350 . S
C1077 H1064 0.929 . S
C1077 C1069 1.433 . S
C1077 N1079 1.384 . S
N1078 C1074 1.427 . S
N1078 C1075 1.384 . S
N1079 C1071 1.427 . S
N1079 C1077 1.384 . S
H1080 C1086 0.930 . S
H1081 C1090 0.930 . S
H1082 C1095 0.929 . S
H1083 C1093 0.929 . S
H1084 C1088 0.929 . S
H1085 C1094 0.929 . S
C1086 H1080 0.930 . S
C1086 C1087 1.367 . S
C1086 C1094 1.378 . S
C1087 C1086 1.367 . S
C1087 C1095 1.433 . S
C1088 H1084 0.929 . S
C1088 C1090 1.378 . S
C1088 C1092 1.350 . S
C1089 C1092 1.463 1_455 S
C1089 C1094 1.350 . S
C1089 N1097 1.427 . S
C1090 H1081 0.930 . S
C1090 C1088 1.378 . S
C1090 C1091 1.367 . S
C1091 C1090 1.367 . S
C1091 C1093 1.433 . S
C1092 C1088 1.350 . S
C1092 C1089 1.463 1_655 S
C1092 N1096 1.427 . S
C1093 H1083 0.929 . S
C1093 C1091 1.433 . S
C1093 N1096 1.384 . S
C1094 H1085 0.929 . S
C1094 C1086 1.378 . S
C1094 C1089 1.350 . S
C1095 H1082 0.929 . S
C1095 C1087 1.433 . S
C1095 N1097 1.384 . S
N1096 C1092 1.427 . S
N1096 C1093 1.384 . S
N1097 C1089 1.427 . S
N1097 C1095 1.384 . S
H1098 C1104 0.930 . S
H1099 C1108 0.930 . S
H1100 C1113 0.929 . S
H1101 C1111 0.929 . S
H1102 C1106 0.929 1_565 S
H1103 C1112 0.929 . S
C1104 H1098 0.930 . S
C1104 C1105 1.367 . S
C1104 C1112 1.378 . S
C1105 C1104 1.367 . S
C1105 C1113 1.433 . S
C1106 H1102 0.929 1_545 S
C1106 C1108 1.378 . S
C1106 C1110 1.350 . S
C1107 C1110 1.463 1_565 S
C1107 C1112 1.350 . S
C1107 N1115 1.427 . S
C1108 H1099 0.930 . S
C1108 C1106 1.378 . S
C1108 C1109 1.367 . S
C1109 C1108 1.367 . S
C1109 C1111 1.433 . S
C1110 C1106 1.350 . S
C1110 C1107 1.463 1_545 S
C1110 N1114 1.427 . S
C1111 H1101 0.929 . S
C1111 C1109 1.433 . S
C1111 N1114 1.384 . S
C1112 H1103 0.929 . S
C1112 C1104 1.378 . S
C1112 C1107 1.350 . S
C1113 H1100 0.929 . S
C1113 C1105 1.433 . S
C1113 N1115 1.384 . S
N1114 C1110 1.427 . S
N1114 C1111 1.384 . S
N1115 C1107 1.427 . S
N1115 C1113 1.384 . S
H1116 C1122 0.930 . S
H1117 C1126 0.930 . S
H1118 C1131 0.929 . S
H1119 C1129 0.929 . S
H1120 C1124 0.929 . S
H1121 C1130 0.929 . S
C1122 H1116 0.930 . S
C1122 C1123 1.367 . S
C1122 C1130 1.378 . S
C1123 C1122 1.367 . S
C1123 C1131 1.433 . S
C1124 H1120 0.929 . S
C1124 C1126 1.378 . S
C1124 C1128 1.350 . S
C1125 C1128 1.463 . S
C1125 C1130 1.350 . S
C1125 N1133 1.427 . S
C1126 H1117 0.930 . S
C1126 C1124 1.378 . S
C1126 C1127 1.367 . S
C1127 C1126 1.367 . S
C1127 C1129 1.433 . S
C1128 C1124 1.350 . S
C1128 C1125 1.463 . S
C1128 N1132 1.427 . S
C1129 H1119 0.929 . S
C1129 C1127 1.433 . S
C1129 N1132 1.384 . S
C1130 H1121 0.929 . S
C1130 C1122 1.378 . S
C1130 C1125 1.350 . S
C1131 H1118 0.929 . S
C1131 C1123 1.433 . S
C1131 N1133 1.384 . S
N1132 C1128 1.427 . S
N1132 C1129 1.384 . S
N1133 C1125 1.427 . S
N1133 C1131 1.384 . S
H1134 C1140 0.930 . S
H1135 C1144 0.930 . S
H1136 C1149 0.929 . S
H1137 C1147 0.929 . S
H1138 C1142 0.929 . S
H1139 C1148 0.929 . S
C1140 H1134 0.930 . S
C1140 C1141 1.367 . S
C1140 C1148 1.378 . S
C1141 C1140 1.367 . S
C1141 C1149 1.433 . S
C1142 H1138 0.929 . S
C1142 C1144 1.378 . S
C1142 C1146 1.350 . S
C1143 C1146 1.463 1_455 S
C1143 C1148 1.350 . S
C1143 N1151 1.427 . S
C1144 H1135 0.930 . S
C1144 C1142 1.378 . S
C1144 C1145 1.367 . S
C1145 C1144 1.367 . S
C1145 C1147 1.433 . S
C1146 C1142 1.350 . S
C1146 C1143 1.463 1_655 S
C1146 N1150 1.427 . S
C1147 H1137 0.929 . S
C1147 C1145 1.433 . S
C1147 N1150 1.384 . S
C1148 H1139 0.929 . S
C1148 C1140 1.378 . S
C1148 C1143 1.350 . S
C1149 H1136 0.929 . S
C1149 C1141 1.433 . S
C1149 N1151 1.384 . S
N1150 C1146 1.427 . S
N1150 C1147 1.384 . S
N1151 C1143 1.427 . S
N1151 C1149 1.384 . S
H1152 C1158 0.930 . S
H1153 C1162 0.930 . S
H1154 C1167 0.929 . S
H1155 C1165 0.929 . S
H1156 C1160 0.929 . S
H1157 C1166 0.929 . S
C1158 H1152 0.930 . S
C1158 C1159 1.367 . S
C1158 C1166 1.378 . S
C1159 C1158 1.367 . S
C1159 C1167 1.433 . S
C1160 H1156 0.929 . S
C1160 C1162 1.378 . S
C1160 C1164 1.350 . S
C1161 C1164 1.463 1_565 S
C1161 C1166 1.350 . S
C1161 N1169 1.427 . S
C1162 H1153 0.930 . S
C1162 C1160 1.378 . S
C1162 C1163 1.367 . S
C1163 C1162 1.367 . S
C1163 C1165 1.433 . S
C1164 C1160 1.350 . S
C1164 C1161 1.463 1_545 S
C1164 N1168 1.427 . S
C1165 H1155 0.929 . S
C1165 C1163 1.433 . S
C1165 N1168 1.384 . S
C1166 H1157 0.929 . S
C1166 C1158 1.378 . S
C1166 C1161 1.350 . S
C1167 H1154 0.929 . S
C1167 C1159 1.433 . S
C1167 N1169 1.384 . S
N1168 C1164 1.427 . S
N1168 C1165 1.384 . S
N1169 C1161 1.427 . S
N1169 C1167 1.384 . S
H1170 C1176 0.930 . S
H1171 C1180 0.930 . S
H1172 C1185 0.929 . S
H1173 C1183 0.929 . S
H1174 C1178 0.929 . S
H1175 C1184 0.929 . S
C1176 H1170 0.930 . S
C1176 C1177 1.367 . S
C1176 C1184 1.378 . S
C1177 C1176 1.367 . S
C1177 C1185 1.433 . S
C1178 H1174 0.929 . S
C1178 C1180 1.378 . S
C1178 C1182 1.350 . S
C1179 C1182 1.463 . S
C1179 C1184 1.350 . S
C1179 N1187 1.427 . S
C1180 H1171 0.930 . S
C1180 C1178 1.378 . S
C1180 C1181 1.367 . S
C1181 C1180 1.367 . S
C1181 C1183 1.433 . S
C1182 C1178 1.350 . S
C1182 C1179 1.463 . S
C1182 N1186 1.427 . S
C1183 H1173 0.929 . S
C1183 C1181 1.433 . S
C1183 N1186 1.384 . S
C1184 H1175 0.929 . S
C1184 C1176 1.378 . S
C1184 C1179 1.350 . S
C1185 H1172 0.929 . S
C1185 C1177 1.433 . S
C1185 N1187 1.384 . S
N1186 C1182 1.427 . S
N1186 C1183 1.384 . S
N1187 C1179 1.427 . S
N1187 C1185 1.384 . S
H1188 C1194 0.930 . S
H1189 C1198 0.930 . S
H1190 C1203 0.929 . S
H1191 C1201 0.929 . S
H1192 C1196 0.929 . S
H1193 C1202 0.929 . S
C1194 H1188 0.930 . S
C1194 C1195 1.367 . S
C1194 C1202 1.378 . S
C1195 C1194 1.367 . S
C1195 C1203 1.433 . S
C1196 H1192 0.929 . S
C1196 C1198 1.378 . S
C1196 C1200 1.350 . S
C1197 C1200 1.463 1_455 S
C1197 C1202 1.350 . S
C1197 N1205 1.427 . S
C1198 H1189 0.930 . S
C1198 C1196 1.378 . S
C1198 C1199 1.367 . S
C1199 C1198 1.367 . S
C1199 C1201 1.433 . S
C1200 C1196 1.350 . S
C1200 C1197 1.463 1_655 S
C1200 N1204 1.427 . S
C1201 H1191 0.929 . S
C1201 C1199 1.433 . S
C1201 N1204 1.384 . S
C1202 H1193 0.929 . S
C1202 C1194 1.378 . S
C1202 C1197 1.350 . S
C1203 H1190 0.929 . S
C1203 C1195 1.433 . S
C1203 N1205 1.384 . S
N1204 C1200 1.427 . S
N1204 C1201 1.384 . S
N1205 C1197 1.427 . S
N1205 C1203 1.384 . S
H1206 C1212 0.930 . S
H1207 C1216 0.930 . S
H1208 C1221 0.929 . S
H1209 C1219 0.929 . S
H1210 C1214 0.929 . S
H1211 C1220 0.929 . S
C1212 H1206 0.930 . S
C1212 C1213 1.367 . S
C1212 C1220 1.378 . S
C1213 C1212 1.367 . S
C1213 C1221 1.433 . S
C1214 H1210 0.929 . S
C1214 C1216 1.378 . S
C1214 C1218 1.350 . S
C1215 C1218 1.463 1_545 S
C1215 C1220 1.350 . S
C1215 N1223 1.427 . S
C1216 H1207 0.930 . S
C1216 C1214 1.378 . S
C1216 C1217 1.367 . S
C1217 C1216 1.367 . S
C1217 C1219 1.433 . S
C1218 C1214 1.350 . S
C1218 C1215 1.463 1_565 S
C1218 N1222 1.427 . S
C1219 H1209 0.929 . S
C1219 C1217 1.433 . S
C1219 N1222 1.384 . S
C1220 H1211 0.929 . S
C1220 C1212 1.378 . S
C1220 C1215 1.350 . S
C1221 H1208 0.929 . S
C1221 C1213 1.433 . S
C1221 N1223 1.384 . S
N1222 C1218 1.427 . S
N1222 C1219 1.384 . S
N1223 C1215 1.427 . S
N1223 C1221 1.384 . S
H1224 C1230 0.930 . S
H1225 C1234 0.930 . S
H1226 C1239 0.929 . S
H1227 C1237 0.929 . S
H1228 C1232 0.929 . S
H1229 C1238 0.929 . S
C1230 H1224 0.930 . S
C1230 C1231 1.367 . S
C1230 C1238 1.378 . S
C1231 C1230 1.367 . S
C1231 C1239 1.433 . S
C1232 H1228 0.929 . S
C1232 C1234 1.378 . S
C1232 C1236 1.350 . S
C1233 C1236 1.463 . S
C1233 C1238 1.350 . S
C1233 N1241 1.427 . S
C1234 H1225 0.930 . S
C1234 C1232 1.378 . S
C1234 C1235 1.367 . S
C1235 C1234 1.367 . S
C1235 C1237 1.433 . S
C1236 C1232 1.350 . S
C1236 C1233 1.463 . S
C1236 N1240 1.427 . S
C1237 H1227 0.929 . S
C1237 C1235 1.433 . S
C1237 N1240 1.384 . S
C1238 H1229 0.929 . S
C1238 C1230 1.378 . S
C1238 C1233 1.350 . S
C1239 H1226 0.929 . S
C1239 C1231 1.433 . S
C1239 N1241 1.384 . S
N1240 C1236 1.427 . S
N1240 C1237 1.384 . S
N1241 C1233 1.427 . S
N1241 C1239 1.384 . S
H1242 C1248 0.930 . S
H1243 C1252 0.930 . S
H1244 C1257 0.929 . S
H1245 C1255 0.929 . S
H1246 C1250 0.929 . S
H1247 C1256 0.929 . S
C1248 H1242 0.930 . S
C1248 C1249 1.367 . S
C1248 C1256 1.378 . S
C1249 C1248 1.367 . S
C1249 C1257 1.433 . S
C1250 H1246 0.929 . S
C1250 C1252 1.378 . S
C1250 C1254 1.350 . S
C1251 C1254 1.463 . S
C1251 C1256 1.350 . S
C1251 N1259 1.427 . S
C1252 H1243 0.930 . S
C1252 C1250 1.378 . S
C1252 C1253 1.367 . S
C1253 C1252 1.367 . S
C1253 C1255 1.433 . S
C1254 C1250 1.350 . S
C1254 C1251 1.463 . S
C1254 N1258 1.427 . S
C1255 H1245 0.929 . S
C1255 C1253 1.433 . S
C1255 N1258 1.384 . S
C1256 H1247 0.929 . S
C1256 C1248 1.378 . S
C1256 C1251 1.350 . S
C1257 H1244 0.929 . S
C1257 C1249 1.433 . S
C1257 N1259 1.384 . S
N1258 C1254 1.427 . S
N1258 C1255 1.384 . S
N1259 C1251 1.427 . S
N1259 C1257 1.384 . S
H1260 C1266 0.930 . S
H1261 C1270 0.930 . S
H1262 C1275 0.929 . S
H1263 C1273 0.929 . S
H1264 C1268 0.929 . S
H1265 C1274 0.929 . S
C1266 H1260 0.930 . S
C1266 C1267 1.367 . S
C1266 C1274 1.378 . S
C1267 C1266 1.367 . S
C1267 C1275 1.433 . S
C1268 H1264 0.929 . S
C1268 C1270 1.378 . S
C1268 C1272 1.350 . S
C1269 C1272 1.463 . S
C1269 C1274 1.350 . S
C1269 N1277 1.427 . S
C1270 H1261 0.930 . S
C1270 C1268 1.378 . S
C1270 C1271 1.367 . S
C1271 C1270 1.367 . S
C1271 C1273 1.433 . S
C1272 C1268 1.350 . S
C1272 C1269 1.463 . S
C1272 N1276 1.427 . S
C1273 H1263 0.929 . S
C1273 C1271 1.433 . S
C1273 N1276 1.384 . S
C1274 H1265 0.929 . S
C1274 C1266 1.378 . S
C1274 C1269 1.350 . S
C1275 H1262 0.929 . S
C1275 C1267 1.433 . S
C1275 N1277 1.384 . S
N1276 C1272 1.427 . S
N1276 C1273 1.384 . S
N1277 C1269 1.427 . S
N1277 C1275 1.384 . S
H1278 C1284 0.930 . S
H1279 C1288 0.930 . S
H1280 C1293 0.929 . S
H1281 C1291 0.929 . S
H1282 C1286 0.929 . S
H1283 C1292 0.929 . S
C1284 H1278 0.930 . S
C1284 C1285 1.367 . S
C1284 C1292 1.378 . S
C1285 C1284 1.367 . S
C1285 C1293 1.433 . S
C1286 H1282 0.929 . S
C1286 C1288 1.378 . S
C1286 C1290 1.350 . S
C1287 C1290 1.463 . S
C1287 C1292 1.350 . S
C1287 N1295 1.427 . S
C1288 H1279 0.930 . S
C1288 C1286 1.378 . S
C1288 C1289 1.367 . S
C1289 C1288 1.367 . S
C1289 C1291 1.433 . S
C1290 C1286 1.350 . S
C1290 C1287 1.463 . S
C1290 N1294 1.427 . S
C1291 H1281 0.929 . S
C1291 C1289 1.433 . S
C1291 N1294 1.384 . S
C1292 H1283 0.929 . S
C1292 C1284 1.378 . S
C1292 C1287 1.350 . S
C1293 H1280 0.929 . S
C1293 C1285 1.433 . S
C1293 N1295 1.384 . S
N1294 C1290 1.427 . S
N1294 C1291 1.384 . S
N1295 C1287 1.427 . S
N1295 C1293 1.384 . S
H1296 C1302 0.930 . S
H1297 C1306 0.930 . S
H1298 C1311 0.929 . S
H1299 C1309 0.929 . S
H1300 C1304 0.929 . S
H1301 C1310 0.929 . S
C1302 H1296 0.930 . S
C1302 C1303 1.367 . S
C1302 C1310 1.378 . S
C1303 C1302 1.367 . S
C1303 C1311 1.433 . S
C1304 H1300 0.929 . S
C1304 C1306 1.378 . S
C1304 C1308 1.350 . S
C1305 C1308 1.463 . S
C1305 C1310 1.350 . S
C1305 N1313 1.427 . S
C1306 H1297 0.930 . S
C1306 C1304 1.378 . S
C1306 C1307 1.367 . S
C1307 C1306 1.367 . S
C1307 C1309 1.433 . S
C1308 C1304 1.350 . S
C1308 C1305 1.463 . S
C1308 N1312 1.427 . S
C1309 H1299 0.929 . S
C1309 C1307 1.433 . S
C1309 N1312 1.384 . S
C1310 H1301 0.929 . S
C1310 C1302 1.378 . S
C1310 C1305 1.350 . S
C1311 H1298 0.929 . S
C1311 C1303 1.433 . S
C1311 N1313 1.384 . S
N1312 C1308 1.427 . S
N1312 C1309 1.384 . S
N1313 C1305 1.427 . S
N1313 C1311 1.384 . S
H1314 C1320 0.930 . S
H1315 C1324 0.930 . S
H1316 C1329 0.929 . S
H1317 C1327 0.929 . S
H1318 C1322 0.929 . S
H1319 C1328 0.929 . S
C1320 H1314 0.930 . S
C1320 C1321 1.367 . S
C1320 C1328 1.378 . S
C1321 C1320 1.367 . S
C1321 C1329 1.433 . S
C1322 H1318 0.929 . S
C1322 C1324 1.378 . S
C1322 C1326 1.350 . S
C1323 C1326 1.463 . S
C1323 C1328 1.350 . S
C1323 N1331 1.427 . S
C1324 H1315 0.930 . S
C1324 C1322 1.378 . S
C1324 C1325 1.367 . S
C1325 C1324 1.367 . S
C1325 C1327 1.433 . S
C1326 C1322 1.350 . S
C1326 C1323 1.463 . S
C1326 N1330 1.427 . S
C1327 H1317 0.929 . S
C1327 C1325 1.433 . S
C1327 N1330 1.384 . S
C1328 H1319 0.929 . S
C1328 C1320 1.378 . S
C1328 C1323 1.350 . S
C1329 H1316 0.929 . S
C1329 C1321 1.433 . S
C1329 N1331 1.384 . S
N1330 C1326 1.427 . S
N1330 C1327 1.384 . S
N1331 C1323 1.427 . S
N1331 C1329 1.384 . S
H1332 C1338 0.930 . S
H1333 C1342 0.930 . S
H1334 C1347 0.929 . S
H1335 C1345 0.929 . S
H1336 C1340 0.929 1_565 S
H1337 C1346 0.929 1_545 S
C1338 H1332 0.930 . S
C1338 C1339 1.367 . S
C1338 C1346 1.378 . S
C1339 C1338 1.367 . S
C1339 C1347 1.433 . S
C1340 H1336 0.929 1_545 S
C1340 C1342 1.378 . S
C1340 C1344 1.350 . S
C1341 C1344 1.463 1_566 S
C1341 C1346 1.350 . S
C1341 N1349 1.427 1_556 S
C1342 H1333 0.930 . S
C1342 C1340 1.378 . S
C1342 C1343 1.367 . S
C1343 C1342 1.367 . S
C1343 C1345 1.433 . S
C1344 C1340 1.350 . S
C1344 C1341 1.463 1_544 S
C1344 N1348 1.427 1_554 S
C1345 H1335 0.929 . S
C1345 C1343 1.433 . S
C1345 N1348 1.384 1_554 S
C1346 H1337 0.929 1_565 S
C1346 C1338 1.378 . S
C1346 C1341 1.350 . S
C1347 H1334 0.929 . S
C1347 C1339 1.433 . S
C1347 N1349 1.384 1_556 S
N1348 C1344 1.427 1_556 S
N1348 C1345 1.384 1_556 S
N1349 C1341 1.427 1_554 S
N1349 C1347 1.384 1_554 S
H1350 C1356 0.930 . S
H1351 C1360 0.930 . S
H1352 C1365 0.929 . S
H1353 C1363 0.929 . S
H1354 C1358 0.929 . S
H1355 C1364 0.929 . S
C1356 H1350 0.930 . S
C1356 C1357 1.367 . S
C1356 C1364 1.378 . S
C1357 C1356 1.367 . S
C1357 C1365 1.433 . S
C1358 H1354 0.929 . S
C1358 C1360 1.378 . S
C1358 C1362 1.350 . S
C1359 C1362 1.463 . S
C1359 C1364 1.350 . S
C1359 N1367 1.427 . S
C1360 H1351 0.930 . S
C1360 C1358 1.378 . S
C1360 C1361 1.367 . S
C1361 C1360 1.367 . S
C1361 C1363 1.433 . S
C1362 C1358 1.350 . S
C1362 C1359 1.463 . S
C1362 N1366 1.427 . S
C1363 H1353 0.929 . S
C1363 C1361 1.433 . S
C1363 N1366 1.384 . S
C1364 H1355 0.929 . S
C1364 C1356 1.378 . S
C1364 C1359 1.350 . S
C1365 H1352 0.929 . S
C1365 C1357 1.433 . S
C1365 N1367 1.384 . S
N1366 C1362 1.427 . S
N1366 C1363 1.384 . S
N1367 C1359 1.427 . S
N1367 C1365 1.384 . S
H1368 C1374 0.930 . S
H1369 C1378 0.930 . S
H1370 C1383 0.929 . S
H1371 C1381 0.929 . S
H1372 C1376 0.929 1_455 S
H1373 C1382 0.929 1_655 S
C1374 H1368 0.930 . S
C1374 C1375 1.367 . S
C1374 C1382 1.378 . S
C1375 C1374 1.367 . S
C1375 C1383 1.433 . S
C1376 H1372 0.929 1_655 S
C1376 C1378 1.378 . S
C1376 C1380 1.350 . S
C1377 C1380 1.463 1_456 S
C1377 C1382 1.350 . S
C1377 N1385 1.427 . S
C1378 H1369 0.930 . S
C1378 C1376 1.378 . S
C1378 C1379 1.367 . S
C1379 C1378 1.367 . S
C1379 C1381 1.433 . S
C1380 C1376 1.350 . S
C1380 C1377 1.463 1_654 S
C1380 N1384 1.427 . S
C1381 H1371 0.929 . S
C1381 C1379 1.433 . S
C1381 N1384 1.384 . S
C1382 H1373 0.929 1_455 S
C1382 C1374 1.378 . S
C1382 C1377 1.350 . S
C1383 H1370 0.929 . S
C1383 C1375 1.433 . S
C1383 N1385 1.384 . S
N1384 C1380 1.427 . S
N1384 C1381 1.384 . S
N1385 C1377 1.427 . S
N1385 C1383 1.384 . S
H1386 C1392 0.930 . S
H1387 C1396 0.930 . S
H1388 C1401 0.929 . S
H1389 C1399 0.929 . S
H1390 C1394 0.929 . S
H1391 C1400 0.929 . S
C1392 H1386 0.930 . S
C1392 C1393 1.367 . S
C1392 C1400 1.378 . S
C1393 C1392 1.367 . S
C1393 C1401 1.433 . S
C1394 H1390 0.929 . S
C1394 C1396 1.378 . S
C1394 C1398 1.350 . S
C1395 C1398 1.463 1_545 S
C1395 C1400 1.350 . S
C1395 N1403 1.427 . S
C1396 H1387 0.930 . S
C1396 C1394 1.378 . S
C1396 C1397 1.367 . S
C1397 C1396 1.367 . S
C1397 C1399 1.433 . S
C1398 C1394 1.350 . S
C1398 C1395 1.463 1_565 S
C1398 N1402 1.427 . S
C1399 H1389 0.929 . S
C1399 C1397 1.433 . S
C1399 N1402 1.384 . S
C1400 H1391 0.929 . S
C1400 C1392 1.378 . S
C1400 C1395 1.350 . S
C1401 H1388 0.929 . S
C1401 C1393 1.433 . S
C1401 N1403 1.384 . S
N1402 C1398 1.427 . S
N1402 C1399 1.384 . S
N1403 C1395 1.427 . S
N1403 C1401 1.384 . S
H1404 C1410 0.930 . S
H1405 C1414 0.930 . S
H1406 C1419 0.929 . S
H1407 C1417 0.929 . S
H1408 C1412 0.929 . S
H1409 C1418 0.929 . S
C1410 H1404 0.930 . S
C1410 C1411 1.367 . S
C1410 C1418 1.378 . S
C1411 C1410 1.367 . S
C1411 C1419 1.433 . S
C1412 H1408 0.929 . S
C1412 C1414 1.378 . S
C1412 C1416 1.350 . S
C1413 C1416 1.463 1_554 S
C1413 C1418 1.350 . S
C1413 N1421 1.427 . S
C1414 H1405 0.930 . S
C1414 C1412 1.378 . S
C1414 C1415 1.367 . S
C1415 C1414 1.367 . S
C1415 C1417 1.433 . S
C1416 C1412 1.350 . S
C1416 C1413 1.463 1_556 S
C1416 N1420 1.427 . S
C1417 H1407 0.929 . S
C1417 C1415 1.433 . S
C1417 N1420 1.384 . S
C1418 H1409 0.929 . S
C1418 C1410 1.378 . S
C1418 C1413 1.350 . S
C1419 H1406 0.929 . S
C1419 C1411 1.433 . S
C1419 N1421 1.384 . S
N1420 C1416 1.427 . S
N1420 C1417 1.384 . S
N1421 C1413 1.427 . S
N1421 C1419 1.384 . S
H1422 C1428 0.930 . S
H1423 C1432 0.930 . S
H1424 C1437 0.929 . S
H1425 C1435 0.929 . S
H1426 C1430 0.929 . S
H1427 C1436 0.929 . S
C1428 H1422 0.930 . S
C1428 C1429 1.367 . S
C1428 C1436 1.378 . S
C1429 C1428 1.367 . S
C1429 C1437 1.433 . S
C1430 H1426 0.929 . S
C1430 C1432 1.378 . S
C1430 C1434 1.350 . S
C1431 C1434 1.463 1_455 S
C1431 C1436 1.350 . S
C1431 N1439 1.427 . S
C1432 H1423 0.930 . S
C1432 C1430 1.378 . S
C1432 C1433 1.367 . S
C1433 C1432 1.367 . S
C1433 C1435 1.433 . S
C1434 C1430 1.350 . S
C1434 C1431 1.463 1_655 S
C1434 N1438 1.427 . S
C1435 H1425 0.929 . S
C1435 C1433 1.433 . S
C1435 N1438 1.384 . S
C1436 H1427 0.929 . S
C1436 C1428 1.378 . S
C1436 C1431 1.350 . S
C1437 H1424 0.929 . S
C1437 C1429 1.433 . S
C1437 N1439 1.384 . S
N1438 C1434 1.427 . S
N1438 C1435 1.384 . S
N1439 C1431 1.427 . S
N1439 C1437 1.384 . S
H1440 C1446 0.930 . S
H1441 C1450 0.930 . S
H1442 C1455 0.929 . S
H1443 C1453 0.929 . S
H1444 C1448 0.929 . S
H1445 C1454 0.929 . S
C1446 H1440 0.930 . S
C1446 C1447 1.367 . S
C1446 C1454 1.378 . S
C1447 C1446 1.367 . S
C1447 C1455 1.433 . S
C1448 H1444 0.929 . S
C1448 C1450 1.378 . S
C1448 C1452 1.350 . S
C1449 C1452 1.463 . S
C1449 C1454 1.350 . S
C1449 N1457 1.427 . S
C1450 H1441 0.930 . S
C1450 C1448 1.378 . S
C1450 C1451 1.367 . S
C1451 C1450 1.367 . S
C1451 C1453 1.433 . S
C1452 C1448 1.350 . S
C1452 C1449 1.463 . S
C1452 N1456 1.427 . S
C1453 H1443 0.929 . S
C1453 C1451 1.433 . S
C1453 N1456 1.384 . S
C1454 H1445 0.929 . S
C1454 C1446 1.378 . S
C1454 C1449 1.350 . S
C1455 H1442 0.929 . S
C1455 C1447 1.433 . S
C1455 N1457 1.384 . S
N1456 C1452 1.427 . S
N1456 C1453 1.384 . S
N1457 C1449 1.427 . S
N1457 C1455 1.384 . S
H1458 C1464 0.930 . S
H1459 C1468 0.930 . S
H1460 C1473 0.929 . S
H1461 C1471 0.929 . S
H1462 C1466 0.929 . S
H1463 C1472 0.929 . S
C1464 H1458 0.930 . S
C1464 C1465 1.367 . S
C1464 C1472 1.378 . S
C1465 C1464 1.367 . S
C1465 C1473 1.433 . S
C1466 H1462 0.929 . S
C1466 C1468 1.378 . S
C1466 C1470 1.350 . S
C1467 C1470 1.463 . S
C1467 C1472 1.350 . S
C1467 N1475 1.427 . S
C1468 H1459 0.930 . S
C1468 C1466 1.378 . S
C1468 C1469 1.367 . S
C1469 C1468 1.367 . S
C1469 C1471 1.433 . S
C1470 C1466 1.350 . S
C1470 C1467 1.463 . S
C1470 N1474 1.427 . S
C1471 H1461 0.929 . S
C1471 C1469 1.433 . S
C1471 N1474 1.384 . S
C1472 H1463 0.929 . S
C1472 C1464 1.378 . S
C1472 C1467 1.350 . S
C1473 H1460 0.929 . S
C1473 C1465 1.433 . S
C1473 N1475 1.384 . S
N1474 C1470 1.427 . S
N1474 C1471 1.384 . S
N1475 C1467 1.427 . S
N1475 C1473 1.384 . S
H1476 C1482 0.930 . S
H1477 C1486 0.930 . S
H1478 C1491 0.929 . S
H1479 C1489 0.929 . S
H1480 C1484 0.929 . S
H1481 C1490 0.929 . S
C1482 H1476 0.930 . S
C1482 C1483 1.367 . S
C1482 C1490 1.378 . S
C1483 C1482 1.367 . S
C1483 C1491 1.433 . S
C1484 H1480 0.929 . S
C1484 C1486 1.378 . S
C1484 C1488 1.350 . S
C1485 C1488 1.463 . S
C1485 C1490 1.350 . S
C1485 N1493 1.427 . S
C1486 H1477 0.930 . S
C1486 C1484 1.378 . S
C1486 C1487 1.367 . S
C1487 C1486 1.367 . S
C1487 C1489 1.433 . S
C1488 C1484 1.350 . S
C1488 C1485 1.463 . S
C1488 N1492 1.427 . S
C1489 H1479 0.929 . S
C1489 C1487 1.433 . S
C1489 N1492 1.384 . S
C1490 H1481 0.929 . S
C1490 C1482 1.378 . S
C1490 C1485 1.350 . S
C1491 H1478 0.929 . S
C1491 C1483 1.433 . S
C1491 N1493 1.384 . S
N1492 C1488 1.427 . S
N1492 C1489 1.384 . S
N1493 C1485 1.427 . S
N1493 C1491 1.384 . S
H1494 C1500 0.930 . S
H1495 C1504 0.930 . S
H1496 C1509 0.929 . S
H1497 C1507 0.929 . S
H1498 C1502 0.929 . S
H1499 C1508 0.929 . S
C1500 H1494 0.930 . S
C1500 C1501 1.367 . S
C1500 C1508 1.378 . S
C1501 C1500 1.367 . S
C1501 C1509 1.433 . S
C1502 H1498 0.929 . S
C1502 C1504 1.378 . S
C1502 C1506 1.350 . S
C1503 C1506 1.463 . S
C1503 C1508 1.350 . S
C1503 N1511 1.427 . S
C1504 H1495 0.930 . S
C1504 C1502 1.378 . S
C1504 C1505 1.367 . S
C1505 C1504 1.367 . S
C1505 C1507 1.433 . S
C1506 C1502 1.350 . S
C1506 C1503 1.463 . S
C1506 N1510 1.427 . S
C1507 H1497 0.929 . S
C1507 C1505 1.433 . S
C1507 N1510 1.384 . S
C1508 H1499 0.929 . S
C1508 C1500 1.378 . S
C1508 C1503 1.350 . S
C1509 H1496 0.929 . S
C1509 C1501 1.433 . S
C1509 N1511 1.384 . S
N1510 C1506 1.427 . S
N1510 C1507 1.384 . S
N1511 C1503 1.427 . S
N1511 C1509 1.384 . S
H1512 C1518 0.930 . S
H1513 C1522 0.930 . S
H1514 C1527 0.929 . S
H1515 C1525 0.929 . S
H1516 C1520 0.929 . S
H1517 C1526 0.929 . S
C1518 H1512 0.930 . S
C1518 C1519 1.367 . S
C1518 C1526 1.378 . S
C1519 C1518 1.367 . S
C1519 C1527 1.433 . S
C1520 H1516 0.929 . S
C1520 C1522 1.378 . S
C1520 C1524 1.350 . S
C1521 C1524 1.463 . S
C1521 C1526 1.350 . S
C1521 N1529 1.427 . S
C1522 H1513 0.930 . S
C1522 C1520 1.378 . S
C1522 C1523 1.367 . S
C1523 C1522 1.367 . S
C1523 C1525 1.433 . S
C1524 C1520 1.350 . S
C1524 C1521 1.463 . S
C1524 N1528 1.427 . S
C1525 H1515 0.929 . S
C1525 C1523 1.433 . S
C1525 N1528 1.384 . S
C1526 H1517 0.929 . S
C1526 C1518 1.378 . S
C1526 C1521 1.350 . S
C1527 H1514 0.929 . S
C1527 C1519 1.433 . S
C1527 N1529 1.384 . S
N1528 C1524 1.427 . S
N1528 C1525 1.384 . S
N1529 C1521 1.427 . S
N1529 C1527 1.384 . S
H1530 C1536 0.930 . S
H1531 C1540 0.930 . S
H1532 C1545 0.929 . S
H1533 C1543 0.929 . S
H1534 C1538 0.929 . S
H1535 C1544 0.929 . S
C1536 H1530 0.930 . S
C1536 C1537 1.367 . S
C1536 C1544 1.378 . S
C1537 C1536 1.367 . S
C1537 C1545 1.433 . S
C1538 H1534 0.929 . S
C1538 C1540 1.378 . S
C1538 C1542 1.350 . S
C1539 C1542 1.463 . S
C1539 C1544 1.350 . S
C1539 N1547 1.427 . S
C1540 H1531 0.930 . S
C1540 C1538 1.378 . S
C1540 C1541 1.367 . S
C1541 C1540 1.367 . S
C1541 C1543 1.433 . S
C1542 C1538 1.350 . S
C1542 C1539 1.463 . S
C1542 N1546 1.427 . S
C1543 H1533 0.929 . S
C1543 C1541 1.433 . S
C1543 N1546 1.384 . S
C1544 H1535 0.929 . S
C1544 C1536 1.378 . S
C1544 C1539 1.350 . S
C1545 H1532 0.929 . S
C1545 C1537 1.433 . S
C1545 N1547 1.384 . S
N1546 C1542 1.427 . S
N1546 C1543 1.384 . S
N1547 C1539 1.427 . S
N1547 C1545 1.384 . S
H1548 C1554 0.930 . S
H1549 C1558 0.930 . S
H1550 C1563 0.929 . S
H1551 C1561 0.929 . S
H1552 C1556 0.929 . S
H1553 C1562 0.929 . S
C1554 H1548 0.930 . S
C1554 C1555 1.367 . S
C1554 C1562 1.378 . S
C1555 C1554 1.367 . S
C1555 C1563 1.433 . S
C1556 H1552 0.929 . S
C1556 C1558 1.378 . S
C1556 C1560 1.350 . S
C1557 C1560 1.463 . S
C1557 C1562 1.350 . S
C1557 N1565 1.427 . S
C1558 H1549 0.930 . S
C1558 C1556 1.378 . S
C1558 C1559 1.367 . S
C1559 C1558 1.367 . S
C1559 C1561 1.433 . S
C1560 C1556 1.350 . S
C1560 C1557 1.463 . S
C1560 N1564 1.427 . S
C1561 H1551 0.929 . S
C1561 C1559 1.433 . S
C1561 N1564 1.384 . S
C1562 H1553 0.929 . S
C1562 C1554 1.378 . S
C1562 C1557 1.350 . S
C1563 H1550 0.929 . S
C1563 C1555 1.433 . S
C1563 N1565 1.384 . S
N1564 C1560 1.427 . S
N1564 C1561 1.384 . S
N1565 C1557 1.427 . S
N1565 C1563 1.384 . S
H1566 C1572 0.930 . S
H1567 C1576 0.930 . S
H1568 C1581 0.929 . S
H1569 C1579 0.929 . S
H1570 C1574 0.929 . S
H1571 C1580 0.929 . S
C1572 H1566 0.930 . S
C1572 C1573 1.367 . S
C1572 C1580 1.378 . S
C1573 C1572 1.367 . S
C1573 C1581 1.433 . S
C1574 H1570 0.929 . S
C1574 C1576 1.378 . S
C1574 C1578 1.350 . S
C1575 C1578 1.463 . S
C1575 C1580 1.350 . S
C1575 N1583 1.427 . S
C1576 H1567 0.930 . S
C1576 C1574 1.378 . S
C1576 C1577 1.367 . S
C1577 C1576 1.367 . S
C1577 C1579 1.433 . S
C1578 C1574 1.350 . S
C1578 C1575 1.463 . S
C1578 N1582 1.427 . S
C1579 H1569 0.929 . S
C1579 C1577 1.433 . S
C1579 N1582 1.384 . S
C1580 H1571 0.929 . S
C1580 C1572 1.378 . S
C1580 C1575 1.350 . S
C1581 H1568 0.929 . S
C1581 C1573 1.433 . S
C1581 N1583 1.384 . S
N1582 C1578 1.427 . S
N1582 C1579 1.384 . S
N1583 C1575 1.427 . S
N1583 C1581 1.384 . S
H1584 C1590 0.930 . S
H1585 C1594 0.930 . S
H1586 C1599 0.929 . S
H1587 C1597 0.929 . S
H1588 C1592 0.929 . S
H1589 C1598 0.929 . S
C1590 H1584 0.930 . S
C1590 C1591 1.367 . S
C1590 C1598 1.378 . S
C1591 C1590 1.367 . S
C1591 C1599 1.433 . S
C1592 H1588 0.929 . S
C1592 C1594 1.378 . S
C1592 C1596 1.350 . S
C1593 C1596 1.463 . S
C1593 C1598 1.350 . S
C1593 N1601 1.427 . S
C1594 H1585 0.930 . S
C1594 C1592 1.378 . S
C1594 C1595 1.367 . S
C1595 C1594 1.367 . S
C1595 C1597 1.433 . S
C1596 C1592 1.350 . S
C1596 C1593 1.463 . S
C1596 N1600 1.427 . S
C1597 H1587 0.929 . S
C1597 C1595 1.433 . S
C1597 N1600 1.384 . S
C1598 H1589 0.929 . S
C1598 C1590 1.378 . S
C1598 C1593 1.350 . S
C1599 H1586 0.929 . S
C1599 C1591 1.433 . S
C1599 N1601 1.384 . S
N1600 C1596 1.427 . S
N1600 C1597 1.384 . S
N1601 C1593 1.427 . S
N1601 C1599 1.384 . S
H1602 C1608 0.930 . S
H1603 C1612 0.930 . S
H1604 C1617 0.929 . S
H1605 C1615 0.929 . S
H1606 C1610 0.929 . S
H1607 C1616 0.929 . S
C1608 H1602 0.930 . S
C1608 C1609 1.367 . S
C1608 C1616 1.378 . S
C1609 C1608 1.367 . S
C1609 C1617 1.433 . S
C1610 H1606 0.929 . S
C1610 C1612 1.378 . S
C1610 C1614 1.350 . S
C1611 C1614 1.463 . S
C1611 C1616 1.350 . S
C1611 N1619 1.427 . S
C1612 H1603 0.930 . S
C1612 C1610 1.378 . S
C1612 C1613 1.367 . S
C1613 C1612 1.367 . S
C1613 C1615 1.433 . S
C1614 C1610 1.350 . S
C1614 C1611 1.463 . S
C1614 N1618 1.427 . S
C1615 H1605 0.929 . S
C1615 C1613 1.433 . S
C1615 N1618 1.384 . S
C1616 H1607 0.929 . S
C1616 C1608 1.378 . S
C1616 C1611 1.350 . S
C1617 H1604 0.929 . S
C1617 C1609 1.433 . S
C1617 N1619 1.384 . S
N1618 C1614 1.427 . S
N1618 C1615 1.384 . S
N1619 C1611 1.427 . S
N1619 C1617 1.384 . S
H1620 C1626 0.930 . S
H1621 C1630 0.930 . S
H1622 C1635 0.929 . S
H1623 C1633 0.929 . S
H1624 C1628 0.929 . S
H1625 C1634 0.929 . S
C1626 H1620 0.930 . S
C1626 C1627 1.367 . S
C1626 C1634 1.378 . S
C1627 C1626 1.367 . S
C1627 C1635 1.433 . S
C1628 H1624 0.929 . S
C1628 C1630 1.378 . S
C1628 C1632 1.350 . S
C1629 C1632 1.463 . S
C1629 C1634 1.350 . S
C1629 N1637 1.427 . S
C1630 H1621 0.930 . S
C1630 C1628 1.378 . S
C1630 C1631 1.367 . S
C1631 C1630 1.367 . S
C1631 C1633 1.433 . S
C1632 C1628 1.350 . S
C1632 C1629 1.463 . S
C1632 N1636 1.427 . S
C1633 H1623 0.929 . S
C1633 C1631 1.433 . S
C1633 N1636 1.384 . S
C1634 H1625 0.929 . S
C1634 C1626 1.378 . S
C1634 C1629 1.350 . S
C1635 H1622 0.929 . S
C1635 C1627 1.433 . S
C1635 N1637 1.384 . S
N1636 C1632 1.427 . S
N1636 C1633 1.384 . S
N1637 C1629 1.427 . S
N1637 C1635 1.384 . S
H1638 C1644 0.930 . S
H1639 C1648 0.930 . S
H1640 C1653 0.929 . S
H1641 C1651 0.929 . S
H1642 C1646 0.929 . S
H1643 C1652 0.929 . S
C1644 H1638 0.930 . S
C1644 C1645 1.367 . S
C1644 C1652 1.378 . S
C1645 C1644 1.367 . S
C1645 C1653 1.433 . S
C1646 H1642 0.929 . S
C1646 C1648 1.378 . S
C1646 C1650 1.350 . S
C1647 C1650 1.463 . S
C1647 C1652 1.350 . S
C1647 N1655 1.427 . S
C1648 H1639 0.930 . S
C1648 C1646 1.378 . S
C1648 C1649 1.367 . S
C1649 C1648 1.367 . S
C1649 C1651 1.433 . S
C1650 C1646 1.350 . S
C1650 C1647 1.463 . S
C1650 N1654 1.427 . S
C1651 H1641 0.929 . S
C1651 C1649 1.433 . S
C1651 N1654 1.384 . S
C1652 H1643 0.929 . S
C1652 C1644 1.378 . S
C1652 C1647 1.350 . S
C1653 H1640 0.929 . S
C1653 C1645 1.433 . S
C1653 N1655 1.384 . S
N1654 C1650 1.427 . S
N1654 C1651 1.384 . S
N1655 C1647 1.427 . S
N1655 C1653 1.384 . S
C1015 C226 1.133 . S
C1019 C67 1.268 . S
C1033 C321 1.103 . S
C1037 C140 1.262 . S
C1051 C235 1.268 . S
C1055 C394 1.132 . S
C1069 C308 1.262 . S
C1073 C489 1.103 . S
C1087 C58 1.134 . S
C1091 C403 1.269 . S
C1105 C153 1.132 . S
C1109 C476 1.268 . S
C1123 C909 1.104 . S
C1127 C560 1.262 . S
C1141 C655 1.265 . S
C1145 C982 1.118 . S
C1159 C728 1.267 . S
C1163 C573 1.125 . S
C1177 C823 1.265 . S
C1181 C646 1.117 . S
C1195 C896 1.266 . S
C1199 C741 1.120 . S
C1213 C814 1.103 . S
C1217 C991 1.262 . S
C1231 C315 1.929 . S
C1235 C74 1.915 . S
C1249 C147 1.921 . S
C1253 C410 1.923 . S
C1267 C242 1.919 . S
C1271 C483 1.924 . S
C1285 C567 1.925 . S
C1289 C830 1.918 . S
C1303 C662 1.918 . S
C1307 C903 1.925 . S
C1321 C735 1.927 . S
C1325 C998 1.916 . S
C1339 C651 2.161 . S
C1343 C63 2.161 . S
C1357 C158 2.167 . S
C1361 C746 2.164 . S
C1375 C819 2.160 . S
C1379 C231 2.164 . S
C1393 C326 2.167 . S
C1397 C914 2.165 . S
C1411 C399 2.162 . S
C1415 C987 2.167 . S
C1429 C578 2.164 . S
C1433 C494 2.167 . S
C1447 C237 1.247 . S
C1451 C56 1.413 . S
C1465 C151 1.421 . S
C1469 C310 1.271 . S
C1483 C224 1.418 . S
C1487 C405 1.251 . S
C1501 C319 1.420 . S
C1505 C478 1.272 . S
C1519 C69 1.259 . S
C1523 C392 1.420 . S
C1537 C142 1.269 . S
C1541 C487 1.418 . S
C1555 C898 1.272 . S
C1559 C571 1.421 . S
C1573 C644 1.421 . S
C1577 C993 1.263 . S
C1591 C739 1.421 . S
C1595 C562 1.269 . S
C1609 C657 1.271 . S
C1613 C812 1.420 . S
C1627 C907 1.420 . S
C1631 C730 1.258 . S
C1645 C980 1.417 . S
C1649 C825 1.267 . S
