# Generated by pormake.
# Topology wku, (7)-cn, num edge types: 1
# Building blocks:
#     Node 0, Type 0, BuildingBlock: OLANEW_clean_sbu_3, # of connection points: 7
#     Node 1, Type 0, BuildingBlock: OLANEW_clean_sbu_3, # of connection points: 7
#     Node 2, Type 0, BuildingBlock: OLANEW_clean_sbu_3, # of connection points: 7
#     Node 3, Type 0, BuildingBlock: OLANEW_clean_sbu_3, # of connection points: 7
#     Node 4, Type 0, BuildingBlock: OLANEW_clean_sbu_3, # of connection points: 7
#     Node 5, Type 0, BuildingBlock: OLANEW_clean_sbu_3, # of connection points: 7
#     Node 6, Type 0, BuildingBlock: OLANEW_clean_sbu_3, # of connection points: 7
#     Node 7, Type 0, BuildingBlock: OLANEW_clean_sbu_3, # of connection points: 7
#     Node 8, Type 0, BuildingBlock: OLANEW_clean_sbu_3, # of connection points: 7
#     Node 9, Type 0, BuildingBlock: OLANEW_clean_sbu_3, # of connection points: 7
#     Node 10, Type 0, BuildingBlock: OLANEW_clean_sbu_3, # of connection points: 7
#     Node 11, Type 0, BuildingBlock: OLANEW_clean_sbu_3, # of connection points: 7
#     Edge 12, Type (0, 0), BuildingBlock: TEMPAE_clean_linker_10, # of connection points: 2
#     Edge 13, Type (0, 0), BuildingBlock: TEMPAE_clean_linker_10, # of connection points: 2
#     Edge 14, Type (0, 0), BuildingBlock: TEMPAE_clean_linker_10, # of connection points: 2
#     Edge 15, Type (0, 0), BuildingBlock: TEMPAE_clean_linker_10, # of connection points: 2
#     Edge 16, Type (0, 0), BuildingBlock: TEMPAE_clean_linker_10, # of connection points: 2
#     Edge 17, Type (0, 0), BuildingBlock: TEMPAE_clean_linker_10, # of connection points: 2
#     Edge 18, Type (0, 0), BuildingBlock: TEMPAE_clean_linker_10, # of connection points: 2
#     Edge 19, Type (0, 0), BuildingBlock: TEMPAE_clean_linker_10, # of connection points: 2
#     Edge 20, Type (0, 0), BuildingBlock: TEMPAE_clean_linker_10, # of connection points: 2
#     Edge 21, Type (0, 0), BuildingBlock: TEMPAE_clean_linker_10, # of connection points: 2
#     Edge 22, Type (0, 0), BuildingBlock: TEMPAE_clean_linker_10, # of connection points: 2
#     Edge 23, Type (0, 0), BuildingBlock: TEMPAE_clean_linker_10, # of connection points: 2
#     Edge 24, Type (0, 0), BuildingBlock: TEMPAE_clean_linker_10, # of connection points: 2
#     Edge 25, Type (0, 0), BuildingBlock: TEMPAE_clean_linker_10, # of connection points: 2
#     Edge 26, Type (0, 0), BuildingBlock: TEMPAE_clean_linker_10, # of connection points: 2
#     Edge 27, Type (0, 0), BuildingBlock: TEMPAE_clean_linker_10, # of connection points: 2
#     Edge 28, Type (0, 0), BuildingBlock: TEMPAE_clean_linker_10, # of connection points: 2
#     Edge 29, Type (0, 0), BuildingBlock: TEMPAE_clean_linker_10, # of connection points: 2
#     Edge 30, Type (0, 0), BuildingBlock: TEMPAE_clean_linker_10, # of connection points: 2
#     Edge 31, Type (0, 0), BuildingBlock: TEMPAE_clean_linker_10, # of connection points: 2
#     Edge 32, Type (0, 0), BuildingBlock: TEMPAE_clean_linker_10, # of connection points: 2
#     Edge 33, Type (0, 0), BuildingBlock: TEMPAE_clean_linker_10, # of connection points: 2
#     Edge 34, Type (0, 0), BuildingBlock: TEMPAE_clean_linker_10, # of connection points: 2
#     Edge 35, Type (0, 0), BuildingBlock: TEMPAE_clean_linker_10, # of connection points: 2
#     Edge 36, Type (0, 0), BuildingBlock: TEMPAE_clean_linker_10, # of connection points: 2
#     Edge 37, Type (0, 0), BuildingBlock: TEMPAE_clean_linker_10, # of connection points: 2
#     Edge 38, Type (0, 0), BuildingBlock: TEMPAE_clean_linker_10, # of connection points: 2
#     Edge 39, Type (0, 0), BuildingBlock: TEMPAE_clean_linker_10, # of connection points: 2
#     Edge 40, Type (0, 0), BuildingBlock: TEMPAE_clean_linker_10, # of connection points: 2
#     Edge 41, Type (0, 0), BuildingBlock: TEMPAE_clean_linker_10, # of connection points: 2
#     Edge 42, Type (0, 0), BuildingBlock: TEMPAE_clean_linker_10, # of connection points: 2
#     Edge 43, Type (0, 0), BuildingBlock: TEMPAE_clean_linker_10, # of connection points: 2
#     Edge 44, Type (0, 0), BuildingBlock: TEMPAE_clean_linker_10, # of connection points: 2
#     Edge 45, Type (0, 0), BuildingBlock: TEMPAE_clean_linker_10, # of connection points: 2
#     Edge 46, Type (0, 0), BuildingBlock: TEMPAE_clean_linker_10, # of connection points: 2
#     Edge 47, Type (0, 0), BuildingBlock: TEMPAE_clean_linker_10, # of connection points: 2
#     Edge 48, Type (0, 0), BuildingBlock: TEMPAE_clean_linker_10, # of connection points: 2
#     Edge 49, Type (0, 0), BuildingBlock: TEMPAE_clean_linker_10, # of connection points: 2
#     Edge 50, Type (0, 0), BuildingBlock: TEMPAE_clean_linker_10, # of connection points: 2
#     Edge 51, Type (0, 0), BuildingBlock: TEMPAE_clean_linker_10, # of connection points: 2
#     Edge 52, Type (0, 0), BuildingBlock: TEMPAE_clean_linker_10, # of connection points: 2
#     Edge 53, Type (0, 0), BuildingBlock: TEMPAE_clean_linker_10, # of connection points: 2
# Relax obj value: 0.106
# Max RMSD: 0.199
# Mean RMSD: 0.198
data_MOF--net-wku--node1-OLANEW_clean_sbu_3--edge1-TEMPAE_clean_linker_10
_symmetry_space_group_name_H-M    P1
_symmetry_Int_Tables_number       1
_symmetry_cell_setting            triclinic
loop_
_symmetry_equiv_pos_as_xyz
'x, y, z'
_cell_length_a     31.025929
_cell_length_b     31.029028
_cell_length_c     126.65392
_cell_angle_alpha  89.9045
_cell_angle_beta   90.053267
_cell_angle_gamma 119.80101
loop_
_atom_site_label
_atom_site_type_symbol
_atom_site_fract_x
_atom_site_fract_y
_atom_site_fract_z
_atom_type_partial_charge
C0 C 0.25006 0.34531 0.05247 0.0
C1 C 0.20526 0.31035 0.04781 0.0
C2 C 0.20653 0.27704 0.04036 0.0
C3 C 0.25181 0.27896 0.03779 0.0
C4 C 0.29512 0.31498 0.04274 0.0
N5 N 0.29159 0.34562 0.04964 0.0
C6 C 0.34641 0.32479 0.04138 0.0
C7 C 0.43446 0.38408 0.04559 0.0
C8 C 0.45432 0.35273 0.04748 0.0
C9 C 0.50488 0.36983 0.04595 0.0
C10 C 0.53601 0.41805 0.04231 0.0
C11 C 0.51629 0.44869 0.03992 0.0
C12 C 0.46575 0.43169 0.04147 0.0
Cd13 Cd 0.35065 0.28024 0.01643 0.0
Cd14 Cd 0.29819 0.28617 0.99944 0.0
C15 C 0.31835 0.43985 0.07364 0.0
C16 C 0.35773 0.52045 0.08254 0.0
C17 C 0.33658 0.49628 0.09205 0.0
C18 C 0.30162 0.44554 0.09231 0.0
C19 C 0.29477 0.41693 0.08321 0.0
C20 C 0.34733 0.49211 0.07324 0.0
Co21 Co 0.34919 0.39244 0.05604 0.0
N22 N 0.34544 0.34826 0.06745 0.0
N23 N 0.40643 0.43992 0.06248 0.0
C24 C 0.41431 0.42836 0.07216 0.0
C25 C 0.45136 0.46568 0.07837 0.0
C26 C 0.47706 0.5144 0.0742 0.0
C27 C 0.4644 0.52508 0.06418 0.0
C28 C 0.42695 0.48578 0.05844 0.0
N29 N 0.36082 0.44431 0.04599 0.0
N30 N 0.38205 0.36589 0.04679 0.0
N31 N 0.30645 0.4104 0.06412 0.0
O32 O 0.35962 0.28431 0.98833 0.0
O33 O 0.35224 0.23102 1.00071 0.0
C34 C 0.44851 0.34713 0.01104 0.0
O35 O 0.41182 0.34716 1.00655 0.0
O36 O 0.43938 0.31449 0.01817 0.0
C37 C 0.24516 0.17335 0.00967 0.0
O38 O 0.28246 0.19216 0.0159 0.0
O39 O 0.23904 0.20075 1.00307 0.0
C40 C 0.37896 0.37668 0.07511 0.0
O41 O 0.38398 0.35713 0.08393 0.0
O42 O 0.31869 0.33508 0.01586 0.0
O43 O 0.2797 0.35196 1.00368 0.0
C44 C 0.40095 0.48832 0.04893 0.0
O45 O 0.4154 0.52964 0.04359 0.0
C46 C 0.33129 0.43832 0.03688 0.0
C47 C 0.33453 0.41215 0.0284 0.0
C48 C 0.3 0.39681 0.02015 0.0
C49 C 0.26572 0.41347 0.01981 0.0
C50 C 0.26447 0.44341 0.02803 0.0
C51 C 0.29671 0.45471 0.03673 0.0
C52 C 0.36222 0.24636 0.99118 0.0
O53 O 0.35616 0.29237 0.03609 0.0
C54 C 0.29834 0.35946 0.01284 0.0
C55 C 0.33366 0.29749 0.06592 0.0
C56 C 0.28566 0.25995 0.06336 0.0
C57 C 0.27697 0.21242 0.06085 0.0
C58 C 0.31544 0.20126 0.06139 0.0
C59 C 0.36319 0.23739 0.06479 0.0
C60 C 0.37157 0.28554 0.06678 0.0
C61 C 0.25841 0.38219 0.06068 0.0
O62 O 0.2216 0.38597 0.06483 0.0
H63 H 0.17054 0.30851 0.04987 0.0
H64 H 0.17245 0.24961 0.03664 0.0
H65 H 0.25284 0.25343 0.03211 0.0
H66 H 0.43076 0.31478 0.04993 0.0
H67 H 0.57511 0.43125 0.04111 0.0
H68 H 0.45115 0.45508 0.03899 0.0
H69 H 0.34288 0.51825 0.09914 0.0
H70 H 0.26848 0.37744 0.08332 0.0
H71 H 0.36003 0.5108 0.06574 0.0
H72 H 0.45925 0.45793 0.08625 0.0
H73 H 0.50536 0.54415 0.07888 0.0
H74 H 0.48177 0.56285 0.06127 0.0
H75 H 0.36298 0.40165 0.02854 0.0
H76 H 0.24023 0.40308 0.01321 0.0
H77 H 0.29459 0.47549 0.04338 0.0
H78 H 0.25515 0.26739 0.06312 0.0
H79 H 0.30699 0.16392 0.05948 0.0
H80 H 0.4078 0.31445 0.06926 0.0
C81 C 0.87882 0.24497 0.21954 0.0
C82 C 0.8667 0.19957 0.21482 0.0
C83 C 0.89752 0.19972 0.20657 0.0
C84 C 0.93946 0.24451 0.20326 0.0
C85 C 0.94919 0.28846 0.20834 0.0
N86 N 0.91875 0.28593 0.21606 0.0
C87 C 0.98976 0.33943 0.20633 0.0
C88 C 0.0212 0.42811 0.21072 0.0
C89 C 0.07275 0.44659 0.21137 0.0
C90 C 0.10619 0.49693 0.20965 0.0
C91 C 0.08867 0.52928 0.20712 0.0
C92 C 0.03771 0.5111 0.20612 0.0
C93 C 0.00417 0.46079 0.20787 0.0
Cd94 Cd 0.04145 0.34896 0.18095 0.0
Cd95 Cd 0.97688 0.28674 0.16727 0.0
C96 C 0.86853 0.3155 0.24227 0.0
C97 C 0.83473 0.35227 0.25458 0.0
C98 C 0.85708 0.34022 0.26288 0.0
C99 C 0.87654 0.30876 0.26122 0.0
C100 C 0.88326 0.29737 0.25089 0.0
C101 C 0.84213 0.3409 0.24413 0.0
Co102 Co 0.93198 0.3444 0.22242 0.0
N103 N 0.97826 0.34328 0.23276 0.0
N104 N 0.94354 0.40246 0.22887 0.0
C105 C 0.96791 0.4124 0.23802 0.0
C106 C 0.96868 0.44914 0.24455 0.0
C107 C 0.94148 0.4723 0.24131 0.0
C108 C 0.91299 0.4573 0.23194 0.0
C109 C 0.91396 0.42022 0.22585 0.0
N110 N 0.88646 0.35365 0.21344 0.0
N111 N 0.98661 0.37591 0.21202 0.0
N112 N 0.87595 0.30305 0.23172 0.0
O113 O 0.0144 0.32266 0.15109 0.0
O114 O 0.07528 0.34968 0.16263 0.0
C115 C 0.10045 0.45242 0.18014 0.0
O116 O 0.05694 0.42986 0.17625 0.0
O117 O 0.11647 0.42657 0.18472 0.0
C118 C 0.04349 0.24144 0.17664 0.0
O119 O 0.06543 0.28344 0.18129 0.0
O120 O 0.00429 0.22904 0.17133 0.0
C121 C 0.98676 0.37832 0.24035 0.0
O122 O 0.01445 0.38435 0.2487 0.0
O123 O 0.95353 0.32156 0.18208 0.0
O124 O 0.8949 0.26994 0.17148 0.0
C125 C 0.88168 0.39269 0.21691 0.0
O126 O 0.85212 0.40596 0.21228 0.0
C127 C 0.86248 0.3255 0.20422 0.0
C128 C 0.89087 0.33272 0.19528 0.0
C129 C 0.87234 0.29917 0.18688 0.0
C130 C 0.82225 0.2626 0.18681 0.0
C131 C 0.79152 0.25765 0.19545 0.0
C132 C 0.81239 0.28851 0.20433 0.0
C133 C 0.06037 0.3418 0.15305 0.0
O134 O 0.03049 0.34787 0.20064 0.0
C135 C 0.90811 0.29829 0.17944 0.0
C136 C 0.01649 0.33109 0.2304 0.0
C137 C 0.00529 0.28283 0.2278 0.0
C138 C 0.04338 0.27343 0.22495 0.0
C139 C 0.09309 0.31135 0.22524 0.0
C140 C 0.10563 0.35934 0.22871 0.0
C141 C 0.06645 0.36864 0.23079 0.0
C142 C 0.85437 0.2546 0.22846 0.0
O143 O 0.81779 0.2183 0.23372 0.0
H144 H 0.83488 0.16527 0.21742 0.0
H145 H 0.88901 0.16517 0.20277 0.0
H146 H 0.96306 0.24471 0.19695 0.0
H147 H 0.08741 0.42225 0.21306 0.0
H148 H 0.11458 0.5682 0.20575 0.0
H149 H 0.96527 0.4474 0.20655 0.0
H150 H 0.85405 0.35002 0.27094 0.0
H151 H 0.89842 0.27302 0.24954 0.0
H152 H 0.82544 0.3491 0.23749 0.0
H153 H 0.98806 0.45843 0.25203 0.0
H154 H 0.94079 0.5003 0.24627 0.0
H155 H 0.88959 0.47267 0.2298 0.0
H156 H 0.92894 0.36276 0.19524 0.0
H157 H 0.8075 0.23801 0.18008 0.0
H158 H 0.79022 0.28354 0.21131 0.0
H159 H 0.96743 0.25253 0.22791 0.0
H160 H 0.12134 0.30216 0.22317 0.0
H161 H 0.07429 0.4052 0.23314 0.0
C162 C 0.62113 0.89293 0.38495 0.0
C163 C 0.66144 0.88738 0.38188 0.0
C164 C 0.69922 0.92548 0.37571 0.0
C165 C 0.6964 0.9681 0.37287 0.0
C166 C 0.65516 0.97117 0.37628 0.0
N167 N 0.62032 0.93368 0.38194 0.0
C168 C 0.6429 0.01049 0.37414 0.0
C169 C 0.57569 0.03144 0.37535 0.0
C170 C 0.60026 0.08169 0.37833 0.0
C171 C 0.58076 0.11223 0.37557 0.0
C172 C 0.53706 0.09314 0.36967 0.0
C173 C 0.51341 0.04376 0.36634 0.0
C174 C 0.53275 0.01311 0.36911 0.0
Cd175 Cd 0.70155 0.0624 0.34993 0.0
Cd176 Cd 0.73145 0.99306 0.33802 0.0
C177 C 0.5214 0.86441 0.40457 0.0
C178 C 0.44265 0.82617 0.41407 0.0
C179 C 0.46806 0.83032 0.4235 0.0
C180 C 0.51907 0.8469 0.42354 0.0
C181 C 0.54608 0.86635 0.41413 0.0
C182 C 0.46939 0.84223 0.40457 0.0
Co183 Co 0.56743 0.93978 0.38658 0.0
N184 N 0.60216 0.9795 0.39886 0.0
N185 N 0.51397 0.94509 0.39127 0.0
C186 C 0.51863 0.96442 0.40087 0.0
C187 C 0.47684 0.96194 0.40567 0.0
C188 C 0.43111 0.93722 0.40021 0.0
C189 C 0.4278 0.91461 0.39033 0.0
C190 C 0.47126 0.91866 0.38606 0.0
N191 N 0.52276 0.89931 0.37525 0.0
N192 N 0.59674 0.00052 0.37779 0.0
N193 N 0.54873 0.87906 0.39474 0.0
O194 O 0.7556 0.05015 0.3238 0.0
O195 O 0.75049 0.10642 0.33362 0.0
C196 C 0.63926 0.1003 0.34406 0.0
O197 O 0.63773 0.0632 0.33945 0.0
O198 O 0.67058 0.12038 0.35153 0.0
C199 C 0.81534 0.06943 0.3545 0.0
O200 O 0.79099 0.09272 0.35436 0.0
O201 O 0.79594 0.02543 0.35092 0.0
C202 C 0.56843 0.98309 0.40529 0.0
O203 O 0.58121 0.0063 0.41442 0.0
O204 O 0.65418 0.97409 0.34784 0.0
O205 O 0.65682 0.91387 0.33963 0.0
C206 C 0.47619 0.89251 0.3769 0.0
O207 O 0.43912 0.86689 0.37037 0.0
C208 C 0.53487 0.87928 0.36629 0.0
C209 C 0.57151 0.91137 0.3594 0.0
C210 C 0.58854 0.89341 0.35126 0.0
C211 C 0.56266 0.84284 0.34891 0.0
C212 C 0.52023 0.81064 0.35478 0.0
C213 C 0.5081 0.82847 0.36387 0.0
C214 C 0.76358 0.09406 0.3251 0.0
O215 O 0.67547 0.05308 0.36908 0.0
C216 C 0.63434 0.92827 0.34575 0.0
C217 C 0.65355 0.01733 0.3992 0.0
C218 C 0.69143 0.00532 0.39954 0.0
C219 C 0.7405 0.04266 0.40114 0.0
C220 C 0.75159 0.09151 0.40301 0.0
C221 C 0.71326 0.10343 0.40337 0.0
C222 C 0.66551 0.06697 0.4004 0.0
C223 C 0.57989 0.86129 0.39206 0.0
O224 O 0.57702 0.82181 0.39661 0.0
H225 H 0.66413 0.85529 0.38427 0.0
H226 H 0.7308 0.92218 0.37322 0.0
H227 H 0.72523 -0.0027 0.36816 0.0
H228 H 0.63485 0.0976 0.38262 0.0
H229 H 0.52208 0.11682 0.36751 0.0
H230 H 0.51516 0.97588 0.36602 0.0
H231 H 0.44699 0.81573 0.43073 0.0
H232 H 0.5857 0.87997 0.41405 0.0
H233 H 0.4496 0.83549 0.39718 0.0
H234 H 0.47905 0.97729 0.41345 0.0
H235 H 0.39802 0.93411 0.40379 0.0
H236 H 0.39236 0.89334 0.38641 0.0
H237 H 0.58677 0.95062 0.36038 0.0
H238 H 0.57441 0.8288 0.34234 0.0
H239 H 0.47683 0.80368 0.36876 0.0
H240 H 0.68316 0.96727 0.39891 0.0
H241 H 0.78937 0.11839 0.40512 0.0
H242 H 0.63599 0.07595 0.40021 0.0
C243 C 0.74151 0.6442 0.55037 0.0
C244 C 0.78663 0.67896 0.54578 0.0
C245 C 0.78582 0.71182 0.53811 0.0
C246 C 0.74069 0.70969 0.53526 0.0
C247 C 0.69706 0.67391 0.54017 0.0
N248 N 0.70017 0.6437 0.54727 0.0
C249 C 0.64578 0.66369 0.53854 0.0
C250 C 0.55751 0.60544 0.54297 0.0
C251 C 0.53872 0.63789 0.54439 0.0
C252 C 0.48792 0.62087 0.54337 0.0
C253 C 0.45549 0.57149 0.54065 0.0
C254 C 0.4741 0.53959 0.53865 0.0
C255 C 0.52489 0.55656 0.53972 0.0
Cd256 Cd 0.64138 0.70608 0.5132 0.0
Cd257 Cd 0.72535 0.71893 0.49848 0.0
C258 C 0.67196 0.55295 0.57197 0.0
C259 C 0.63863 0.47424 0.58148 0.0
C260 C 0.65684 0.50059 0.59091 0.0
C261 C 0.68402 0.55263 0.59109 0.0
C262 C 0.69045 0.57864 0.58157 0.0
C263 C 0.64736 0.50061 0.57194 0.0
Co264 Co 0.64222 0.59761 0.55367 0.0
N265 N 0.64539 0.64286 0.5647 0.0
N266 N 0.58476 0.55071 0.56015 0.0
C267 C 0.5754 0.5637 0.56953 0.0
C268 C 0.53831 0.52703 0.57586 0.0
C269 C 0.51411 0.47752 0.57214 0.0
C270 C 0.52817 0.46551 0.56244 0.0
C271 C 0.56555 0.50422 0.55655 0.0
N272 N 0.63095 0.54506 0.54392 0.0
N273 N 0.60987 0.62309 0.54404 0.0
N274 N 0.68435 0.58045 0.56218 0.0
O275 O 0.67503 0.72364 0.48468 0.0
O276 O 0.63614 0.74608 0.4961 0.0
C277 C 0.54126 0.63781 0.51012 0.0
O278 O 0.57552 0.6353 0.50515 0.0
O279 O 0.55394 0.67364 0.51659 0.0
C280 C 0.74902 0.8183 0.5131 0.0
O281 O 0.70318 0.79491 0.51566 0.0
O282 O 0.76773 0.797 0.50774 0.0
C283 C 0.60976 0.61606 0.57214 0.0
O284 O 0.60329 0.6371 0.58054 0.0
O285 O 0.67828 0.65498 0.51284 0.0
O286 O 0.73331 0.64792 0.5036 0.0
C287 C 0.59191 0.50092 0.54719 0.0
O288 O 0.57826 0.45899 0.54219 0.0
C289 C 0.66102 0.5506 0.53494 0.0
C290 C 0.65993 0.5778 0.52631 0.0
C291 C 0.69648 0.59359 0.51847 0.0
C292 C 0.73011 0.57608 0.5186 0.0
C293 C 0.72903 0.54524 0.52687 0.0
C294 C 0.69514 0.53372 0.5352 0.0
C295 C 0.64779 0.74263 0.48657 0.0
O296 O 0.63613 0.69516 0.53285 0.0
C297 C 0.70228 0.63272 0.51108 0.0
C298 C 0.662 0.69468 0.56299 0.0
C299 C 0.71204 0.72919 0.56116 0.0
C300 C 0.72601 0.77798 0.55835 0.0
C301 C 0.69063 0.79335 0.55788 0.0
C302 C 0.6408 0.76027 0.5606 0.0
C303 C 0.62709 0.71077 0.56287 0.0
C304 C 0.73262 0.60827 0.55886 0.0
O305 O 0.76922 0.60579 0.56353 0.0
H306 H 0.82123 0.68108 0.54808 0.0
H307 H 0.82015 0.7391 0.53444 0.0
H308 H 0.74003 0.73485 0.52943 0.0
H309 H 0.56341 0.67651 0.54614 0.0
H310 H 0.41618 0.5583 0.53984 0.0
H311 H 0.53851 0.53194 0.5376 0.0
H312 H 0.65347 0.47984 0.59806 0.0
H313 H 0.71144 0.61885 0.58149 0.0
H314 H 0.63648 0.48062 0.56455 0.0
H315 H 0.52935 0.53589 0.58352 0.0
H316 H 0.48579 0.44828 0.57693 0.0
H317 H 0.5117 0.42731 0.55987 0.0
H318 H 0.63203 0.58897 0.52607 0.0
H319 H 0.75695 0.58645 0.51227 0.0
H320 H 0.69572 0.51249 0.54195 0.0
H321 H 0.74016 0.71848 0.56174 0.0
H322 H 0.7029 0.8316 0.55585 0.0
H323 H 0.58909 0.68433 0.56492 0.0
C324 C 0.12401 0.74575 0.71464 0.0
C325 C 0.13906 0.79002 0.7091 0.0
C326 C 0.10712 0.79035 0.70115 0.0
C327 C 0.06122 0.74719 0.69896 0.0
C328 C 0.0488 0.70423 0.70478 0.0
N329 N 0.08061 0.70619 0.71213 0.0
C330 C 0.00382 0.65495 0.70402 0.0
C331 C 0.96474 0.56762 0.71027 0.0
C332 C 0.9154 0.55624 0.71182 0.0
C333 C 0.87677 0.50696 0.7119 0.0
C334 C 0.88692 0.46849 0.71019 0.0
C335 C 0.93545 0.47944 0.70807 0.0
C336 C 0.97407 0.52874 0.708 0.0
Cd337 Cd 0.9382 0.63004 0.68006 0.0
Cd338 Cd -0.00244 0.68814 0.66472 0.0
C339 C 0.13721 0.67701 0.73769 0.0
C340 C 0.16864 0.63224 0.74805 0.0
C341 C 0.1672 0.65721 0.75711 0.0
C342 C 0.15411 0.69422 0.75652 0.0
C343 C 0.13727 0.70284 0.74687 0.0
C344 C 0.15515 0.64349 0.73829 0.0
Co345 Co 0.06338 0.64888 0.71953 0.0
N346 N 0.02573 0.66107 0.73024 0.0
N347 N 0.04733 0.59175 0.72691 0.0
C348 C 0.0258 0.58725 0.73626 0.0
C349 C 0.02006 0.54903 0.74302 0.0
C350 C 0.03913 0.51824 0.7397 0.0
C351 C 0.0643 0.52682 0.72995 0.0
C352 C 0.06861 0.56578 0.72362 0.0
N353 N 0.09967 0.62865 0.71025 0.0
N354 N 0.00447 0.6185 0.71023 0.0
N355 N 0.12424 0.68905 0.72761 0.0
O356 O 0.95128 0.6379 0.65021 0.0
O357 O 0.89724 0.62767 0.66256 0.0
C358 C 0.8784 0.52804 0.68291 0.0
O359 O 0.91772 0.54662 0.67738 0.0
O360 O 0.86632 0.55745 0.68725 0.0
C361 C 0.9292 0.73165 0.67413 0.0
O362 O 0.91124 0.69139 0.67938 0.0
O363 O 0.96738 0.74521 0.66837 0.0
C364 C 0.01376 0.62681 0.73821 0.0
O365 O 0.98847 0.62633 0.74658 0.0
O366 O 0.0249 0.65398 0.67958 0.0
O367 O 0.0801 0.70338 0.66817 0.0
C368 C 0.09838 0.5867 0.71396 0.0
O369 O 0.12043 0.56566 0.70904 0.0
C370 C 0.12159 0.65202 0.70047 0.0
C371 C 0.09088 0.64267 0.69179 0.0
C372 C 0.10697 0.67495 0.6831 0.0
C373 C 0.15666 0.7124 0.68252 0.0
C374 C 0.18915 0.72024 0.691 0.0
C375 C 0.17094 0.69027 0.70007 0.0
C376 C 0.90761 0.62688 0.65285 0.0
O377 O 0.96239 0.64899 0.699 0.0
C378 C 0.06915 0.67554 0.6762 0.0
C379 C -0.00439 0.6835 0.72819 0.0
C380 C 0.01663 0.73393 0.72567 0.0
C381 C 0.98606 0.75346 0.72296 0.0
C382 C 0.93436 0.72339 0.72317 0.0
C383 C 0.91261 0.67345 0.72638 0.0
C384 C 0.94389 0.654 0.72862 0.0
C385 C 0.14882 0.73617 0.72351 0.0
O386 O 0.1903 0.7714 0.72766 0.0
H387 H 0.17389 0.82317 0.71086 0.0
H388 H 0.1178 0.82406 0.69673 0.0
H389 H 0.03669 0.74742 0.6929 0.0
H390 H 0.9067 0.58552 0.7128 0.0
H391 H 0.85705 0.43034 0.71023 0.0
H392 H 0.01054 0.53616 0.70575 0.0
H393 H 0.18107 0.65128 0.76453 0.0
H394 H 0.12706 0.73148 0.74633 0.0
H395 H 0.16057 0.62773 0.73115 0.0
H396 H 0.00264 0.54381 0.75067 0.0
H397 H 0.03578 0.48879 0.74483 0.0
H398 H 0.08108 0.50492 0.72763 0.0
H399 H 0.0526 0.61318 0.69236 0.0
H400 H 0.1694 0.7364 0.67565 0.0
H401 H 0.19422 0.69784 0.70698 0.0
H402 H 0.05637 0.75821 0.7258 0.0
H403 H 0.91168 0.73984 0.72125 0.0
H404 H 0.92821 0.61579 0.73114 0.0
C405 C 0.34044 0.08806 0.88631 0.0
C406 C 0.305 0.09793 0.88181 0.0
C407 C 0.27366 0.06549 0.87385 0.0
C408 C 0.27786 0.02408 0.87063 0.0
C409 C 0.31405 0.01651 0.87551 0.0
N410 N 0.34293 0.04877 0.88286 0.0
C411 C 0.3263 0.97704 0.87354 0.0
C412 C 0.38609 0.94839 0.87789 0.0
C413 C 0.35504 0.89697 0.8792 0.0
C414 C 0.37399 0.8647 0.87814 0.0
C415 C 0.42387 0.88335 0.87554 0.0
C416 C 0.45441 0.9341 0.8737 0.0
C417 C 0.43554 0.96643 0.87479 0.0
Cd418 Cd 0.29482 0.94336 0.84731 0.0
Cd419 Cd 0.28546 0.02184 0.83126 0.0
C420 C 0.43032 0.10759 0.90807 0.0
C421 C 0.50618 0.1605 0.91796 0.0
C422 C 0.47955 0.14193 0.92737 0.0
C423 C 0.42808 0.11003 0.92735 0.0
C424 C 0.4036 0.09272 0.91763 0.0
C425 C 0.48163 0.14226 0.90826 0.0
Co426 Co 0.38943 0.03709 0.88923 0.0
N427 N 0.34333 0.99195 0.89982 0.0
N428 N 0.43669 0.02675 0.89575 0.0
C429 C 0.42298 0.00276 0.90497 0.0
C430 C 0.45946 0.00284 0.91149 0.0
C431 C 0.5095 0.03042 0.90818 0.0
C432 C 0.52213 0.05824 0.89871 0.0
C433 C 0.48358 0.05624 0.8926 0.0
N434 N 0.44312 0.08152 0.87994 0.0
N435 N 0.36679 0.98171 0.87913 0.0
N436 N 0.40362 0.09385 0.89821 0.0
O437 O 0.28798 0.96551 0.81863 0.0
O438 O 0.26029 0.90213 0.82977 0.0
C439 C 0.36777 0.91664 0.8444 0.0
O440 O 0.37055 0.95481 0.83999 0.0
O441 O 0.32988 0.89007 0.85015 0.0
C442 C 0.1817 0.93804 0.84431 0.0
O443 O 0.20484 0.91638 0.84774 0.0
O444 O 0.2044 0.97863 0.83919 0.0
C445 C 0.37006 0.98302 0.9073 0.0
O446 O 0.34876 0.95457 0.91556 0.0
O447 O 0.34021 0.03121 0.84707 0.0
O448 O 0.35239 0.09757 0.83886 0.0
C449 C 0.48731 0.08728 0.88348 0.0
O450 O 0.52984 0.11731 0.87887 0.0
C451 C 0.43897 0.10857 0.87123 0.0
C452 C 0.41051 0.08285 0.86253 0.0
C453 C 0.3996 0.10741 0.85458 0.0
C454 C 0.42256 0.15917 0.8548 0.0
C455 C 0.45566 0.18583 0.86298 0.0
C456 C 0.4628 0.16045 0.87137 0.0
C457 C 0.26734 0.919 0.82033 0.0
O458 O 0.29803 0.9384 0.86702 0.0
C459 C 0.36302 0.07799 0.84643 0.0
C460 C 0.29212 0.9557 0.89784 0.0
C461 C 0.25615 0.96957 0.89604 0.0
C462 C 0.20743 0.93352 0.89356 0.0
C463 C 0.19361 0.88321 0.89338 0.0
C464 C 0.22836 0.86825 0.89598 0.0
C465 C 0.27772 0.90514 0.89783 0.0
C466 C 0.37498 0.11381 0.89507 0.0
O467 O 0.37524 0.15088 0.90014 0.0
H468 H 0.30123 0.12911 0.88441 0.0
H469 H 0.24594 0.07222 0.87023 0.0
H470 H 0.25385 -0.00083 0.86457 0.0
H471 H 0.31613 0.88174 0.88095 0.0
H472 H 0.43856 0.85841 0.87472 0.0
H473 H 0.45925 0.00505 0.87289 0.0
H474 H 0.49851 0.1568 0.9348 0.0
H475 H 0.36357 0.06929 0.91744 0.0
H476 H 0.50133 0.15732 0.90092 0.0
H477 H 0.44996 0.98377 0.91902 0.0
H478 H 0.53857 0.03177 0.91314 0.0
H479 H 0.56061 0.08174 0.89648 0.0
H480 H 0.39648 0.04341 0.86201 0.0
H481 H 0.41615 0.17882 0.84846 0.0
H482 H 0.48688 0.18085 0.8779 0.0
H483 H 0.26545 0.00796 0.89653 0.0
H484 H 0.1553 0.85613 0.89172 0.0
H485 H 0.30521 0.89467 0.8998 0.0
C486 C 0.6334 0.74108 0.79827 0.0
C487 C 0.67261 0.78593 0.80201 0.0
C488 C 0.70676 0.78382 0.80911 0.0
C489 C 0.70139 0.73765 0.81227 0.0
C490 C 0.66133 0.69438 0.80819 0.0
N491 N 0.63038 0.69876 0.80151 0.0
C492 C 0.64686 0.64236 0.81048 0.0
C493 C 0.58169 0.55496 0.80731 0.0
C494 C 0.60956 0.53225 0.80453 0.0
C495 C 0.58984 0.48115 0.80589 0.0
C496 C 0.5425 0.4524 0.8102 0.0
C497 C 0.51529 0.47492 0.81335 0.0
C498 C 0.53488 0.526 0.81198 0.0
Cd499 Cd 0.70069 0.63883 0.83483 0.0
Cd500 Cd 0.69895 0.68854 0.85108 0.0
C501 C 0.53428 0.67195 0.77814 0.0
C502 C 0.45469 0.6286 0.76905 0.0
C503 C 0.47854 0.64902 0.75947 0.0
C504 C 0.52917 0.6843 0.75915 0.0
C505 C 0.55759 0.69362 0.76841 0.0
C506 C 0.48238 0.642 0.77842 0.0
Co507 Co 0.57719 0.64113 0.79657 0.0
N508 N 0.61297 0.63329 0.78484 0.0
N509 N 0.52311 0.58363 0.79174 0.0
C510 C 0.52864 0.56726 0.78241 0.0
C511 C 0.48696 0.52821 0.77758 0.0
C512 C 0.44061 0.50913 0.78275 0.0
C513 C 0.43665 0.52989 0.79238 0.0
C514 C 0.48003 0.56895 0.79671 0.0
N515 N 0.53186 0.64031 0.80722 0.0
N516 N 0.60206 0.60761 0.80605 0.0
N517 N 0.56274 0.68475 0.78781 0.0
O518 O 0.70469 0.63304 0.86317 0.0
O519 O 0.75581 0.6427 0.85015 0.0
C520 C 0.64817 0.5394 0.84054 0.0
O521 O 0.64466 0.57272 0.84568 0.0
O522 O 0.67536 0.5523 0.83229 0.0
C523 C 0.80831 0.74404 0.83947 0.0
O524 O 0.78826 0.7059 0.8335 0.0
O525 O 0.78246 0.74996 0.84649 0.0
C526 C 0.57948 0.59614 0.77836 0.0
O527 O 0.59275 0.58485 0.76938 0.0
O528 O 0.64491 0.67052 0.83591 0.0
O529 O 0.63387 0.70938 0.8491 0.0
C530 C 0.48504 0.60135 0.80563 0.0
O531 O 0.44772 0.59249 0.81189 0.0
C532 C 0.5451 0.6717 0.81624 0.0
C533 C 0.56742 0.66214 0.82464 0.0
C534 C 0.58618 0.69488 0.83315 0.0
C535 C 0.57594 0.73378 0.83395 0.0
C536 C 0.54986 0.742 0.82577 0.0
C537 C 0.53624 0.71161 0.81669 0.0
C538 C 0.74312 0.63274 0.85984 0.0
O539 O 0.67871 0.63049 0.81542 0.0
C540 C 0.62255 0.6913 0.83989 0.0
C541 C 0.6646 0.64724 0.7847 0.0
C542 C 0.70207 0.69714 0.78465 0.0
C543 C 0.75143 0.70953 0.78308 0.0
C544 C 0.76333 0.6725 0.78096 0.0
C545 C 0.72551 0.62239 0.78031 0.0
C546 C 0.67741 0.61022 0.78325 0.0
C547 C 0.59494 0.73323 0.79048 0.0
O548 O 0.5942 0.77059 0.78574 0.0
H549 H 0.67699 0.82125 0.7995 0.0
H550 H 0.73739 0.81791 0.81214 0.0
H551 H 0.72729 0.73596 0.81775 0.0
H552 H 0.64669 0.55393 0.80141 0.0
H553 H 0.52728 0.41288 0.81126 0.0
H554 H 0.51405 0.54283 0.81487 0.0
H555 H 0.45648 0.64117 0.75233 0.0
H556 H 0.59707 0.71992 0.76822 0.0
H557 H 0.46329 0.63072 0.7859 0.0
H558 H 0.48976 0.51369 0.77001 0.0
H559 H 0.40762 0.47937 0.77913 0.0
H560 H 0.40087 0.51704 0.79608 0.0
H561 H 0.57248 0.63009 0.82424 0.0
H562 H 0.58855 0.75736 0.84086 0.0
H563 H 0.51855 0.71841 0.81002 0.0
H564 H 0.69339 0.72662 0.78531 0.0
H565 H 0.80131 0.68393 0.77885 0.0
H566 H 0.64837 0.57166 0.78318 0.0
C567 C 0.90936 0.64488 0.96079 0.0
C568 C 0.90887 0.68772 0.96406 0.0
C569 C 0.9439 0.7181 0.97175 0.0
C570 C 0.97857 0.70558 0.97592 0.0
C571 C 0.97691 0.6623 0.97224 0.0
N572 N 0.94283 0.63499 0.96503 0.0
C573 C 0.008 0.64095 0.97541 0.0
C574 C 0.01826 0.56678 0.97357 0.0
C575 C 0.07019 0.58869 0.9728 0.0
C576 C 0.0937 0.56177 0.97553 0.0
C577 C 0.06579 0.51306 0.97919 0.0
C578 C 0.01441 0.49149 0.98028 0.0
C579 C 0.99076 0.51825 0.97753 0.0
Cd580 Cd 0.0545 0.68812 1.00067 0.0
Cd581 Cd -0.00354 0.69516 0.01594 0.0
C582 C 0.88038 0.54949 0.94009 0.0
C583 C 0.83116 0.47738 0.9288 0.0
C584 C 0.85503 0.50702 0.91997 0.0
C585 C 0.88622 0.55839 0.92089 0.0
C586 C 0.89991 0.57922 0.931 0.0
C587 C 0.84487 0.49875 0.93895 0.0
Co588 Co 0.9418 0.57846 0.96033 0.0
N589 N -0.00672 0.61254 0.94972 0.0
N590 N 0.93916 0.52105 0.95552 0.0
C591 C 0.9643 0.52575 0.94666 0.0
C592 C 0.95598 0.48283 0.94132 0.0
C593 C 0.91953 0.43641 0.94538 0.0
C594 C 0.89138 0.43388 0.95436 0.0
C595 C 0.90176 0.47846 0.95924 0.0
N596 N 0.8887 0.53469 0.96987 0.0
N597 N -0.00603 0.59476 0.97108 0.0
N598 N 0.89113 0.57302 0.95032 0.0
O599 O 0.05181 0.69347 0.02882 0.0
O600 O 0.10382 0.73968 0.01635 0.0
C601 C 0.08829 0.62382 1.00689 0.0
O602 O 0.05215 0.62416 0.01157 0.0
O603 O 0.10866 0.65384 0.9992 0.0
C604 C 0.06436 0.80107 1.00293 0.0
O605 O 0.0833 0.77769 0.99837 0.0
O606 O 0.02861 0.77861 0.00939 0.0
C607 C -0.00528 0.57761 0.9433 0.0
O608 O 0.02478 0.59 0.93513 0.0
O609 O 0.96618 0.64122 1.00039 0.0
O610 O 0.91104 0.63443 0.01194 0.0
C611 C 0.87317 0.48616 0.96752 0.0
O612 O 0.83736 0.44909 0.97277 0.0
C613 C 0.86931 0.54902 0.97856 0.0
C614 C 0.89974 0.57191 0.98713 0.0
C615 C 0.88361 0.58894 0.99561 0.0
C616 C 0.83373 0.57616 0.99622 0.0
C617 C 0.8007 0.54806 0.98807 0.0
C618 C 0.81941 0.53665 0.97899 0.0
C619 C 0.09492 0.727 0.02605 0.0
O620 O 0.04981 0.66768 0.98129 0.0
C621 C 0.92125 0.62247 1.00313 0.0
C622 C 0.03681 0.66064 0.95089 0.0
C623 C 0.0337 0.70405 0.95071 0.0
C624 C 0.077 0.7502 0.95077 0.0
C625 C 0.12348 0.75336 0.95028 0.0
C626 C 0.12733 0.70989 0.94957 0.0
C627 C 0.08377 0.66427 0.95111 0.0
C628 C 0.87956 0.60942 0.95248 0.0
O629 O 0.84861 0.61626 0.94656 0.0
H630 H 0.88287 0.6977 0.96073 0.0
H631 H 0.94436 0.75142 0.97444 0.0
H632 H 0.00536 0.72873 0.98182 0.0
H633 H 0.09274 0.62666 0.97021 0.0
H634 H 0.08405 0.49233 0.98133 0.0
H635 H 0.95141 0.50155 0.97888 0.0
H636 H 0.84468 0.49079 0.91216 0.0
H637 H 0.92375 0.619 0.93184 0.0
H638 H 0.8259 0.47711 0.94587 0.0
H639 H 0.97566 0.48502 0.93411 0.0
H640 H 0.91178 0.40261 0.94134 0.0
H641 H 0.86145 0.39859 0.95712 0.0
H642 H 0.93645 0.57634 0.98718 0.0
H643 H 0.82065 0.5866 1.00316 0.0
H644 H 0.79512 0.51667 0.97246 0.0
H645 H -0.00176 0.70253 0.95024 0.0
H646 H 0.15539 0.79004 0.94945 0.0
H647 H 0.0855 0.63039 0.95146 0.0
C648 C 0.25025 0.89485 0.12911 0.0
C649 C 0.2048 0.88766 0.13293 0.0
C650 C 0.2056 0.92276 0.14016 0.0
C651 C 0.25106 0.96429 0.14329 0.0
C652 C 0.29499 0.96916 0.13911 0.0
N653 N 0.29193 0.9341 0.13252 0.0
C654 C 0.34649 0.00916 0.14093 0.0
C655 C 0.43475 0.03323 0.13807 0.0
C656 C 0.4578 0.08478 0.13637 0.0
C657 C 0.50809 0.11551 0.13871 0.0
C658 C 0.5357 0.09531 0.14295 0.0
C659 C 0.51275 0.0445 0.14505 0.0
C660 C 0.4625 0.01366 0.14269 0.0
Cd661 Cd 0.34263 0.05546 0.16598 0.0
Cd662 Cd 0.27097 0.99087 0.17961 0.0
C663 C 0.32078 0.86914 0.10842 0.0
C664 C 0.35478 0.82341 0.09928 0.0
C665 C 0.33863 0.83277 0.08967 0.0
C666 C 0.31217 0.85853 0.08922 0.0
C667 C 0.30444 0.87766 0.09865 0.0
C668 C 0.34461 0.84058 0.10871 0.0
Co669 Co 0.35012 0.94351 0.12659 0.0
N670 N 0.34979 0.98627 0.11525 0.0
N671 N 0.40784 0.95198 0.12051 0.0
C672 C 0.41776 0.97264 0.11093 0.0
C673 C 0.4544 0.97084 0.10482 0.0
C674 C 0.47752 0.94504 0.10893 0.0
C675 C 0.46265 0.92046 0.11878 0.0
C676 C 0.42572 0.9239 0.12442 0.0
N677 N 0.35857 0.90022 0.13662 0.0
N678 N 0.38246 0.00177 0.13612 0.0
N679 N 0.30779 0.88479 0.11805 0.0
O680 O 0.31044 0.04238 0.19419 0.0
O681 O 0.34071 0.10222 0.18227 0.0
C682 C 0.44013 0.08834 0.17247 0.0
O683 O 0.40307 0.05167 0.17682 0.0
O684 O 0.43154 0.11065 0.16497 0.0
C685 C 0.23242 0.05725 0.16762 0.0
O686 O 0.27733 0.08056 0.16434 0.0
O687 O 0.2165 0.01659 0.1726 0.0
C688 C 0.38422 0.99116 0.10783 0.0
O689 O 0.39145 0.01702 0.09911 0.0
O690 O 0.30974 0.96762 0.16615 0.0
O691 O 0.25744 0.90841 0.17651 0.0
C692 C 0.39793 0.89468 0.13368 0.0
O693 O 0.41146 0.86706 0.13905 0.0
C694 C 0.32921 0.87725 0.14584 0.0
C695 C 0.32687 0.90743 0.15355 0.0
C696 C 0.29366 0.88774 0.16197 0.0
C697 C 0.26878 0.83669 0.16367 0.0
C698 C 0.27722 0.80572 0.1569 0.0
C699 C 0.30524 0.8257 0.14759 0.0
C700 C 0.33046 0.08819 0.1919 0.0
O701 O 0.35645 0.05089 0.14642 0.0
C702 C 0.28619 0.92211 0.1686 0.0
C703 C 0.33943 0.02632 0.11674 0.0
C704 C 0.29136 0.01755 0.11863 0.0
C705 C 0.28377 0.05718 0.12107 0.0
C706 C 0.32349 0.10603 0.12102 0.0
C707 C 0.37161 0.11628 0.11812 0.0
C708 C 0.37875 0.07545 0.1164 0.0
C709 C 0.25919 0.86651 0.12094 0.0
O710 O 0.22248 0.82873 0.11604 0.0
H711 H 0.16996 0.85661 0.13032 0.0
H712 H 0.17102 0.91818 0.14323 0.0
H713 H 0.25171 0.99155 0.1487 0.0
H714 H 0.43698 0.10158 0.13342 0.0
H715 H 0.57458 0.11913 0.14479 0.0
H716 H 0.44518 0.97515 0.14492 0.0
H717 H 0.34314 0.81586 0.08258 0.0
H718 H 0.28429 0.89787 0.09851 0.0
H719 H 0.354 0.83068 0.11621 0.0
H720 H 0.46371 0.98729 0.09702 0.0
H721 H 0.5054 0.94234 0.10431 0.0
H722 H 0.47792 0.89792 0.12162 0.0
H723 H 0.35149 0.94678 0.15295 0.0
H724 H 0.24444 0.82127 0.17044 0.0
H725 H 0.31005 0.80198 0.14202 0.0
H726 H 0.25997 0.98027 0.11846 0.0
H727 H 0.31553 0.13533 0.12286 0.0
H728 H 0.41501 0.08111 0.11445 0.0
C729 C 0.34459 0.24476 0.29614 0.0
C730 C 0.3111 0.19943 0.30084 0.0
C731 C 0.27938 0.19965 0.30884 0.0
C732 C 0.28137 0.24443 0.31191 0.0
C733 C 0.31586 0.28832 0.30687 0.0
N734 N 0.34498 0.28578 0.29942 0.0
C735 C 0.32454 0.33905 0.30849 0.0
C736 C 0.37941 0.42755 0.30357 0.0
C737 C 0.34492 0.44424 0.3025 0.0
C738 C 0.35991 0.49454 0.30363 0.0
C739 C 0.40926 0.52867 0.30603 0.0
C740 C 0.44338 0.51232 0.30751 0.0
C741 C 0.42851 0.46204 0.30635 0.0
Cd742 Cd 0.28403 0.35437 0.33366 0.0
Cd743 Cd 0.30144 0.31473 0.35046 0.0
C744 C 0.43581 0.31633 0.27462 0.0
C745 C 0.51546 0.34862 0.26554 0.0
C746 C 0.49027 0.3363 0.25589 0.0
C747 C 0.43853 0.3078 0.25551 0.0
C748 C 0.41119 0.29949 0.26485 0.0
C749 C 0.48812 0.3392 0.27496 0.0
Co750 Co 0.38978 0.34404 0.29291 0.0
N751 N 0.3432 0.34012 0.28204 0.0
N752 N 0.43572 0.40179 0.28629 0.0
C753 C 0.42231 0.4089 0.27672 0.0
C754 C 0.45852 0.44475 0.27009 0.0
C755 C 0.5082 0.46994 0.27369 0.0
C756 C 0.52089 0.45765 0.28352 0.0
C757 C 0.48264 0.4213 0.28969 0.0
N758 N 0.44386 0.35579 0.30238 0.0
N759 N 0.36386 0.37552 0.30273 0.0
N760 N 0.40714 0.30268 0.28425 0.0
O761 O 0.31007 0.37803 0.36227 0.0
O762 O 0.24827 0.36044 0.35137 0.0
C763 C 0.33051 0.45743 0.33301 0.0
O764 O 0.34954 0.43472 0.33776 0.0
O765 O 0.28872 0.43165 0.32845 0.0
C766 C 0.18282 0.25421 0.34336 0.0
O767 O 0.19737 0.28598 0.33587 0.0
O768 O 0.21418 0.25394 0.3498 0.0
C769 C 0.37032 0.37304 0.27416 0.0
O770 O 0.34942 0.3768 0.26542 0.0
O771 O 0.34489 0.32826 0.33378 0.0
O772 O 0.36538 0.2942 0.34648 0.0
C773 C 0.4872 0.3956 0.29903 0.0
O774 O 0.5295 0.41081 0.30402 0.0
C775 C 0.43973 0.3296 0.31194 0.0
C776 C 0.4177 0.33805 0.32055 0.0
C777 C 0.40624 0.30864 0.32962 0.0
C778 C 0.42338 0.27484 0.33057 0.0
C779 C 0.44984 0.26881 0.3222 0.0
C780 C 0.45669 0.29549 0.31272 0.0
C781 C 0.26855 0.37521 0.36041 0.0
O782 O 0.29138 0.34707 0.31399 0.0
C783 C 0.37142 0.31069 0.33713 0.0
C784 C 0.29307 0.32964 0.28405 0.0
C785 C 0.25542 0.28249 0.28711 0.0
C786 C 0.20824 0.2749 0.2896 0.0
C787 C 0.19739 0.31344 0.28851 0.0
C788 C 0.23353 0.36017 0.2846 0.0
C789 C 0.28156 0.36775 0.28284 0.0
C790 C 0.37985 0.25426 0.28748 0.0
O791 O 0.38281 0.21816 0.28273 0.0
H792 H 0.30922 0.16511 0.29842 0.0
H793 H 0.25308 0.16514 0.31261 0.0
H794 H 0.25693 0.24462 0.31798 0.0
H795 H 0.30628 0.41856 0.30091 0.0
H796 H 0.42081 0.56757 0.30694 0.0
H797 H 0.45499 0.4502 0.30807 0.0
H798 H 0.51132 0.34244 0.24865 0.0
H799 H 0.37106 0.27697 0.26468 0.0
H800 H 0.50697 0.34636 0.28248 0.0
H801 H 0.44918 0.45184 0.26229 0.0
H802 H 0.53709 0.49728 0.26867 0.0
H803 H 0.55932 0.47429 0.28596 0.0
H804 H 0.4076 0.36668 0.31998 0.0
H805 H 0.41615 0.25355 0.33779 0.0
H806 H 0.47492 0.28985 0.306 0.0
H807 H 0.26229 0.25167 0.28764 0.0
H808 H 0.16021 0.30565 0.29037 0.0
H809 H 0.31073 0.40338 0.28015 0.0
C810 C 0.10516 0.35711 0.46703 0.0
C811 C 0.11511 0.32239 0.47186 0.0
C812 C 0.08083 0.28982 0.47945 0.0
C813 C 0.03751 0.29204 0.48196 0.0
C814 C 0.03 0.32768 0.47681 0.0
N815 N 0.06409 0.3578 0.46984 0.0
C816 C 0.98838 0.33765 0.47798 0.0
C817 C 0.95981 0.39694 0.47319 0.0
C818 C 0.90924 0.36571 0.471 0.0
C819 C 0.87556 0.38298 0.472 0.0
C820 C 0.89201 0.43151 0.47537 0.0
C821 C 0.94191 0.46231 0.47798 0.0
C822 C 0.97561 0.44504 0.47696 0.0
Cd823 Cd 0.93467 0.29454 0.50264 0.0
Cd824 Cd 0.98875 0.3034 0.51953 0.0
C825 C 0.12504 0.44477 0.44469 0.0
C826 C 0.16039 0.52183 0.4346 0.0
C827 C 0.15228 0.49468 0.42529 0.0
C828 C 0.13275 0.44308 0.42547 0.0
C829 C 0.11822 0.41809 0.43524 0.0
C830 C 0.1481 0.49683 0.44433 0.0
Co831 Co 0.05222 0.40304 0.463 0.0
N832 N 0.0107 0.35668 0.4521 0.0
N833 N 0.04118 0.44902 0.45618 0.0
C834 C 0.0173 0.43465 0.44698 0.0
C835 C 0.01457 0.47022 0.44065 0.0
C836 C 0.03876 0.51999 0.44423 0.0
C837 C 0.06567 0.53331 0.45383 0.0
C838 C 0.0667 0.49566 0.45973 0.0
N839 N 0.09333 0.45683 0.47252 0.0
N840 N -0.00591 0.37856 0.47241 0.0
N841 N 0.11129 0.41902 0.45467 0.0
O842 O 0.92504 0.30063 0.53057 0.0
O843 O 0.88192 0.24544 0.51833 0.0
C844 C 0.89936 0.35822 0.50739 0.0
O845 O 0.9363 0.35997 0.51216 0.0
O846 O 0.87832 0.32592 0.5001 0.0
C847 C 0.93597 0.19031 0.50986 0.0
O848 O 0.9179 0.20824 0.50329 0.0
O849 O 0.96728 0.21827 0.51673 0.0
C850 C -0.00041 0.38199 0.44467 0.0
O851 O 0.97162 0.35972 0.43641 0.0
O852 O 0.02028 0.35236 0.50299 0.0
O853 O 0.07238 0.37108 0.51604 0.0
C854 C 0.0966 0.50022 0.46916 0.0
O855 O 0.12263 0.54231 0.47426 0.0
C856 C 0.11481 0.45185 0.48209 0.0
C857 C 0.08404 0.42913 0.49065 0.0
C858 C 0.10094 0.41441 0.49945 0.0
C859 C 0.15108 0.42884 0.50025 0.0
C860 C 0.18373 0.45482 0.49188 0.0
C861 C 0.16487 0.46503 0.48265 0.0
C862 C 0.88551 0.26188 0.52773 0.0
O863 O 0.9456 0.30521 0.48305 0.0
C864 C 0.06361 0.37794 0.50661 0.0
C865 C 0.97988 0.304 0.4536 0.0
C866 C 0.00034 0.27308 0.45499 0.0
C867 C 0.96971 0.22305 0.45755 0.0
C868 C 0.91827 0.20293 0.45822 0.0
C869 C 0.89668 0.23248 0.45592 0.0
C870 C 0.92827 0.28324 0.45388 0.0
C871 C 0.13206 0.39186 0.45833 0.0
O872 O 0.17089 0.39346 0.45377 0.0
H873 H 0.14761 0.3199 0.46977 0.0
H874 H 0.08755 0.26255 0.4833 0.0
H875 H 0.01111 0.26693 0.4877 0.0
H876 H 0.89583 0.32779 0.46873 0.0
H877 H 0.86598 0.4449 0.47617 0.0
H878 H 0.01333 0.46874 0.47949 0.0
H879 H 0.16543 0.51478 0.4179 0.0
H880 H 0.10249 0.37816 0.43556 0.0
H881 H 0.15733 0.51792 0.45158 0.0
H882 H -0.00442 0.46033 0.43312 0.0
H883 H 0.03782 0.54841 0.43944 0.0
H884 H 0.08604 0.57168 0.45635 0.0
H885 H 0.04564 0.42012 0.49015 0.0
H886 H 0.16417 0.41913 0.5073 0.0
H887 H 0.18855 0.48237 0.47587 0.0
H888 H 0.03975 0.2874 0.45415 0.0
H889 H 0.89553 0.16384 0.46003 0.0
H890 H 0.91295 0.30693 0.45201 0.0
C891 C 0.73469 0.08883 0.62957 0.0
C892 C 0.77985 0.0919 0.63232 0.0
C893 C 0.77849 0.05428 0.63888 0.0
C894 C 0.73269 0.0145 0.64243 0.0
C895 C 0.68907 0.01368 0.63927 0.0
N896 N 0.69278 0.05069 0.63322 0.0
C897 C 0.63738 0.97761 0.64211 0.0
C898 C 0.55036 0.96069 0.64095 0.0
C899 C 0.52317 0.90975 0.63859 0.0
C900 C 0.47231 0.88245 0.64074 0.0
C901 C 0.44843 0.90539 0.64552 0.0
C902 C 0.47572 0.95525 0.64845 0.0
C903 C 0.52652 0.98268 0.64625 0.0
Cd904 Cd 0.64062 0.93474 0.6678 0.0
Cd905 Cd 0.73623 0.00592 0.68525 0.0
C906 C 0.66352 0.11959 0.61031 0.0
C907 C 0.63068 0.16524 0.60064 0.0
C908 C 0.64595 0.15376 0.59117 0.0
C909 C 0.67161 0.12726 0.59104 0.0
C910 C 0.67926 0.10926 0.60065 0.0
C911 C 0.64034 0.14878 0.61027 0.0
Co912 Co 0.63464 0.04762 0.62896 0.0
N913 N 0.62465 0.00402 0.61706 0.0
N914 N 0.5769 0.04547 0.62454 0.0
C915 C 0.55977 0.02458 0.61515 0.0
C916 C 0.5219 0.02977 0.61038 0.0
C917 C 0.50503 0.05882 0.61561 0.0
C918 C 0.52701 0.08293 0.62521 0.0
C919 C 0.56478 0.07598 0.62946 0.0
N920 N 0.63575 0.09232 0.63996 0.0
N921 N 0.60234 0.9893 0.63843 0.0
N922 N 0.67705 0.10556 0.62013 0.0
O923 O 0.66806 0.95451 0.69662 0.0
O924 O 0.63466 0.89192 0.6853 0.0
C925 C 0.54209 0.90863 0.67182 0.0
O926 O 0.57798 0.94655 0.67611 0.0
O927 O 0.55257 0.88285 0.66561 0.0
C928 C 0.73724 0.91271 0.67009 0.0
O929 O 0.69515 0.89809 0.6657 0.0
O930 O 0.75596 0.9494 0.6764 0.0
C931 C 0.5873 0.00162 0.61081 0.0
O932 O 0.57343 0.9757 0.60201 0.0
O933 O 0.69124 0.02174 0.66959 0.0
O934 O 0.75088 0.08378 0.67783 0.0
C935 C 0.59797 0.1024 0.63831 0.0
O936 O 0.5895 0.13073 0.6447 0.0
C937 C 0.67037 0.11358 0.64852 0.0
C938 C 0.67629 0.08257 0.65559 0.0
C939 C 0.71078 0.10187 0.6638 0.0
C940 C 0.73433 0.15261 0.66588 0.0
C941 C 0.7226 0.18334 0.65987 0.0
C942 C 0.69358 0.16462 0.65072 0.0
C943 C 0.64268 0.90813 0.69481 0.0
O944 O 0.62643 0.93722 0.64817 0.0
C945 C 0.7185 0.06809 0.67063 0.0
C946 C 0.63461 0.96351 0.61703 0.0
C947 C 0.68298 0.97166 0.61612 0.0
C948 C 0.69069 0.93145 0.61463 0.0
C949 C 0.65027 0.88346 0.61346 0.0
C950 C 0.60109 0.875 0.61377 0.0
C951 C 0.59445 0.91486 0.61662 0.0
C952 C 0.72588 0.12055 0.62226 0.0
O953 O 0.7625 0.15697 0.61703 0.0
H954 H 0.81482 0.12178 0.62943 0.0
H955 H 0.81283 0.05576 0.64115 0.0
H956 H 0.73156 0.98573 0.64747 0.0
H957 H 0.54111 0.89093 0.63516 0.0
H958 H 0.4091 0.88422 0.64721 0.0
H959 H 0.54714 0.02043 0.649 0.0
H960 H 0.64182 0.1698 0.58389 0.0
H961 H 0.69918 0.08881 0.6007 0.0
H962 H 0.63142 0.15998 0.61766 0.0
H963 H 0.50689 0.01329 0.60277 0.0
H964 H 0.47626 0.06408 0.61204 0.0
H965 H 0.51611 0.10742 0.62893 0.0
H966 H 0.65212 0.04327 0.65507 0.0
H967 H 0.75869 0.16761 0.67266 0.0
H968 H 0.68604 0.18871 0.6458 0.0
H969 H 0.71454 0.00882 0.61621 0.0
H970 H 0.65832 0.8544 0.61142 0.0
H971 H 0.55743 0.90937 0.61746 0.0
C972 C 0.34889 0.7424 0.10373 0.0
C973 C 0.37555 0.78943 0.09909 0.0
C974 C 0.35802 0.70394 0.10082 0.0
C975 C 0.39495 0.71296 0.09316 0.0
C976 C 0.42526 0.76176 0.08927 0.0
C977 C 0.41497 0.79936 0.09223 0.0
C978 C 0.3252 0.65259 0.10529 0.0
C979 C 0.46585 0.77351 0.08132 0.0
C980 C 0.4166 0.60351 0.09017 0.0
C981 C 0.38097 0.57541 0.08248 0.0
C982 C 0.42504 0.65071 0.09315 0.0
C983 C 0.39702 0.67006 0.08835 0.0
C984 C 0.36528 0.64425 0.07975 0.0
C985 C 0.35775 0.59723 0.0769 0.0
C986 C 0.46031 0.67743 0.10212 0.0
C987 C 0.33536 0.66391 0.07425 0.0
H988 H 0.31809 0.73452 0.10893 0.0
H989 H 0.43558 0.83581 0.08862 0.0
H990 H 0.34803 0.63665 0.10821 0.0
H991 H 0.30156 0.65267 0.11187 0.0
H992 H 0.30064 0.62775 0.09897 0.0
H993 H 0.49242 0.81405 0.08085 0.0
H994 H 0.48662 0.75402 0.08331 0.0
H995 H 0.44904 0.76059 0.07341 0.0
H996 H 0.43468 0.58668 0.09449 0.0
H997 H 0.32991 0.57554 0.07102 0.0
H998 H 0.43874 0.67144 0.1095 0.0
H999 H 0.48175 0.71802 0.10064 0.0
H1000 H 0.4867 0.66351 0.1034 0.0
H1001 H 0.30621 0.66153 0.07969 0.0
H1002 H 0.31706 0.64261 0.06698 0.0
H1003 H 0.35937 0.70354 0.07211 0.0
C1004 C 0.77067 0.35283 0.26674 0.0
C1005 C 0.79747 0.36834 0.25718 0.0
C1006 C 0.73173 0.3618 0.26901 0.0
C1007 C 0.71648 0.38437 0.26132 0.0
C1008 C 0.74447 0.40261 0.25188 0.0
C1009 C 0.78501 0.39495 0.24998 0.0
C1010 C 0.70372 0.34236 0.27927 0.0
C1011 C 0.72926 0.42667 0.24342 0.0
C1012 C 0.5766 0.32338 0.26054 0.0
C1013 C 0.56744 0.35864 0.26538 0.0
C1014 C 0.62487 0.33261 0.25879 0.0
C1015 C 0.66567 0.37796 0.26222 0.0
C1016 C 0.65688 0.41357 0.26736 0.0
C1017 C 0.60758 0.40356 0.26884 0.0
C1018 C 0.632 0.29327 0.25333 0.0
C1019 C 0.69941 0.46196 0.27126 0.0
H1020 H 0.77747 0.33057 0.27235 0.0
H1021 H 0.80552 0.40815 0.24266 0.0
H1022 H 0.6935 0.36899 0.28267 0.0
H1023 H 0.66884 0.30698 0.27778 0.0
H1024 H 0.72576 0.33515 0.28522 0.0
H1025 H 0.75936 0.44695 0.23756 0.0
H1026 H 0.69624 0.39756 0.2392 0.0
H1027 H 0.71871 0.45283 0.24694 0.0
H1028 H 0.54549 0.28847 0.25791 0.0
H1029 H 0.60047 0.43099 0.27249 0.0
H1030 H 0.64884 0.27818 0.2589 0.0
H1031 H 0.65774 0.30962 0.24655 0.0
H1032 H 0.59646 0.26191 0.2504 0.0
H1033 H 0.72232 0.45464 0.27693 0.0
H1034 H 0.68643 0.48545 0.27519 0.0
H1035 H 0.72386 0.48304 0.26456 0.0
C1036 C 0.17302 0.60103 0.42673 0.0
C1037 C 0.18851 0.57667 0.43383 0.0
C1038 C 0.20606 0.64949 0.42325 0.0
C1039 C 0.25583 0.67347 0.42683 0.0
C1040 C 0.26996 0.6509 0.43484 0.0
C1041 C 0.23591 0.60275 0.4383 0.0
C1042 C 0.1888 0.67284 0.41504 0.0
C1043 C 0.32254 0.67541 0.43899 0.0
C1044 C 0.36637 0.74853 0.40926 0.0
C1045 C 0.38795 0.79472 0.41429 0.0
C1046 C 0.32034 0.70953 0.41262 0.0
C1047 C 0.29522 0.71737 0.4211 0.0
C1048 C 0.31366 0.76585 0.42516 0.0
C1049 C 0.36022 0.80402 0.42177 0.0
C1050 C 0.30171 0.65856 0.40793 0.0
C1051 C 0.28701 0.77643 0.43385 0.0
H1052 H 0.1361 0.58083 0.42333 0.0
H1053 H 0.24793 0.58382 0.44374 0.0
H1054 H 0.20686 0.71364 0.41613 0.0
H1055 H 0.19886 0.66584 0.40708 0.0
H1056 H 0.14784 0.65677 0.4153 0.0
H1057 H 0.32626 0.65526 0.44588 0.0
H1058 H 0.34782 0.67661 0.43266 0.0
H1059 H 0.33508 0.71425 0.44137 0.0
H1060 H 0.3879 0.74124 0.40352 0.0
H1061 H 0.37691 0.83993 0.42562 0.0
H1062 H 0.26166 0.64111 0.40598 0.0
H1063 H 0.30608 0.63439 0.4138 0.0
H1064 H 0.32234 0.65981 0.40066 0.0
H1065 H 0.24613 0.75408 0.43286 0.0
H1066 H 0.29814 0.81643 0.43407 0.0
H1067 H 0.2966 0.76644 0.44157 0.0
C1068 C 0.5804 0.39177 0.58942 0.0
C1069 C 0.61748 0.41957 0.58196 0.0
C1070 C 0.57128 0.3447 0.59271 0.0
C1071 C 0.60006 0.32506 0.58845 0.0
C1072 C 0.63411 0.35091 0.58018 0.0
C1073 C 0.64239 0.39792 0.57702 0.0
C1074 C 0.53395 0.31816 0.60138 0.0
C1075 C 0.66497 0.33093 0.57528 0.0
C1076 C 0.63961 0.24781 0.60479 0.0
C1077 C 0.61223 0.20112 0.60006 0.0
C1078 C 0.63357 0.28787 0.60156 0.0
C1079 C 0.59924 0.28091 0.59341 0.0
C1080 C 0.56816 0.23266 0.58935 0.0
C1081 C 0.57507 0.19334 0.59272 0.0
C1082 C 0.66689 0.33855 0.60624 0.0
C1083 C 0.53049 0.22321 0.58083 0.0
H1084 H 0.56113 0.40857 0.59326 0.0
H1085 H 0.67139 0.41948 0.57134 0.0
H1086 H 0.51157 0.27781 0.59972 0.0
H1087 H 0.55388 0.32257 0.60893 0.0
H1088 H 0.50846 0.33332 0.60243 0.0
H1089 H 0.68554 0.35251 0.5682 0.0
H1090 H 0.69227 0.33247 0.58115 0.0
H1091 H 0.64111 0.29149 0.57298 0.0
H1092 H 0.66869 0.2541 0.61037 0.0
H1093 H 0.55387 0.15717 0.58905 0.0
H1094 H 0.64477 0.35601 0.60867 0.0
H1095 H 0.6939 0.36296 0.60019 0.0
H1096 H 0.68788 0.33687 0.61319 0.0
H1097 H 0.50992 0.24317 0.58252 0.0
H1098 H 0.50339 0.18298 0.57994 0.0
H1099 H 0.54997 0.23732 0.57318 0.0
C1100 C 0.18012 0.56624 0.75661 0.0
C1101 C 0.19433 0.60308 0.74883 0.0
C1102 C 0.21369 0.55166 0.76027 0.0
C1103 C 0.26265 0.57561 0.75622 0.0
C1104 C 0.27478 0.60802 0.74743 0.0
C1105 C 0.24015 0.62105 0.74377 0.0
C1106 C 0.19826 0.51472 0.7692 0.0
C1107 C 0.32639 0.63395 0.74274 0.0
C1108 C 0.3761 0.62622 0.77341 0.0
C1109 C 0.39993 0.6022 0.76909 0.0
C1110 C 0.32832 0.61405 0.77007 0.0
C1111 C 0.30379 0.57631 0.76239 0.0
C1112 C 0.32494 0.54716 0.75922 0.0
C1113 C 0.37336 0.561 0.7625 0.0
C1114 C 0.30699 0.64587 0.77377 0.0
C1115 C 0.29893 0.5048 0.75155 0.0
H1116 H 0.14432 0.55196 0.76044 0.0
H1117 H 0.25108 0.64957 0.73777 0.0
H1118 H 0.21777 0.49295 0.7688 0.0
H1119 H 0.20776 0.53481 0.77683 0.0
H1120 H 0.15752 0.48875 0.76909 0.0
H1121 H 0.32833 0.65416 0.73535 0.0
H1122 H 0.35289 0.66108 0.74852 0.0
H1123 H 0.33881 0.60683 0.741 0.0
H1124 H 0.39687 0.65819 0.77847 0.0
H1125 H 0.39192 0.54226 0.75922 0.0
H1126 H 0.26789 0.62231 0.77631 0.0
H1127 H 0.3073 0.66951 0.76715 0.0
H1128 H 0.32845 0.67043 0.78044 0.0
H1129 H 0.25798 0.48622 0.75243 0.0
H1130 H 0.31102 0.47686 0.75265 0.0
H1131 H 0.30848 0.51924 0.74336 0.0
C1132 C 0.75447 0.42053 0.9186 0.0
C1133 C 0.787 0.42713 0.92699 0.0
C1134 C 0.71289 0.37435 0.91645 0.0
C1135 C 0.70175 0.33351 0.92309 0.0
C1136 C 0.73418 0.33949 0.93159 0.0
C1137 C 0.77659 0.38624 0.93342 0.0
C1138 C 0.67957 0.37003 0.90731 0.0
C1139 C 0.72311 0.29698 0.93896 0.0
C1140 C 0.56364 0.24428 0.92521 0.0
C1141 C 0.55674 0.20475 0.9187 0.0
C1142 C 0.61079 0.28507 0.927 0.0
C1143 C 0.65256 0.28737 0.92198 0.0
C1144 C 0.646 0.24804 0.91523 0.0
C1145 C 0.59798 0.20701 0.91365 0.0
C1146 C 0.61565 0.32613 0.93419 0.0
C1147 C 0.68961 0.24959 0.90962 0.0
H1148 H 0.76072 0.452 0.91378 0.0
H1149 H 0.80134 0.39084 0.9399 0.0
H1150 H 0.67062 0.33685 0.90247 0.0
H1151 H 0.64403 0.36543 0.91038 0.0
H1152 H 0.69677 0.40332 0.90212 0.0
H1153 H 0.75423 0.30606 0.9445 0.0
H1154 H 0.68931 0.28762 0.94362 0.0
H1155 H 0.71536 0.26341 0.93439 0.0
H1156 H 0.53173 0.24316 0.92898 0.0
H1157 H 0.59277 0.17647 0.90865 0.0
H1158 H 0.62832 0.36078 0.92957 0.0
H1159 H 0.64392 0.33392 0.94037 0.0
H1160 H 0.58002 0.31681 0.9381 0.0
H1161 H 0.70661 0.28191 0.90418 0.0
H1162 H 0.67874 0.21528 0.905 0.0
H1163 H 0.71853 0.25459 0.91542 0.0
C1164 C 0.13786 0.88462 0.99914 0.0
C1165 C 0.08772 0.85571 1.00198 0.0
C1166 C 0.16265 0.93662 1.00008 0.0
C1167 C 0.13653 0.96015 1.00386 0.0
C1168 C 0.08532 0.93128 1.00621 0.0
C1169 C 0.06161 0.87945 1.00528 0.0
C1170 C 0.21725 0.96618 0.99743 0.0
C1171 C 0.05596 0.95499 0.0101 0.0
C1172 C 0.21148 0.08691 0.01684 0.0
C1173 C 0.21377 0.11873 0.00872 0.0
C1174 C 0.1858 0.0351 0.01542 0.0
C1175 C 0.16289 0.01484 1.00557 0.0
C1176 C 0.16499 0.04681 0.99738 0.0
C1177 C 0.18991 0.09822 0.99909 0.0
C1178 C 0.18372 0.00203 0.02439 0.0
C1179 C 0.1421 0.02684 0.9867 0.0
H1180 H 0.15839 0.86652 0.99668 0.0
H1181 H 0.02277 0.85733 1.00744 0.0
H1182 H 0.22436 -0.00323 0.99191 0.0
H1183 H 0.23889 0.98334 1.00472 0.0
H1184 H 0.2312 0.94285 0.99381 0.0
H1185 H 0.01592 0.92753 0.01112 0.0
H1186 H 0.07111 0.97349 0.01778 0.0
H1187 H 0.05949 0.98401 1.00447 0.0
H1188 H 0.23008 0.10254 0.02426 0.0
H1189 H 0.19231 0.12253 0.99268 0.0
H1190 H 0.20202 0.98061 0.02201 0.0
H1191 H 0.1445 0.97477 0.0263 0.0
H1192 H 0.20217 0.02344 0.03164 0.0
H1193 H 0.16032 0.00758 0.98301 0.0
H1194 H 0.1458 0.05661 0.98125 0.0
H1195 H 0.10212 -0.00088 0.98757 0.0
C1196 C 0.21655 0.12643 0.1623 0.0
C1197 C 0.20103 0.081 0.16746 0.0
C1198 C 0.19019 0.1522 0.16354 0.0
C1199 C 0.14809 0.13254 0.17026 0.0
C1200 C 0.13168 0.08623 0.17527 0.0
C1201 C 0.15787 0.06081 0.17369 0.0
C1202 C 0.20795 0.20092 0.15784 0.0
C1203 C 0.08743 0.06428 0.18261 0.0
C1204 C 0.10887 0.22054 0.18209 0.0
C1205 C 0.06765 0.21064 0.17583 0.0
C1206 C 0.13538 0.19529 0.18039 0.0
C1207 C 0.12089 0.16008 0.17211 0.0
C1208 C 0.07914 0.14971 0.16583 0.0
C1209 C 0.05275 0.17463 0.16784 0.0
C1210 C 0.17905 0.20647 0.18742 0.0
C1211 C 0.06291 0.11299 0.15684 0.0
H1212 H 0.24983 0.14238 0.15749 0.0
H1213 H 0.14554 0.0259 0.17778 0.0
H1214 H 0.17703 0.20009 0.15327 0.0
H1215 H 0.22041 0.2315 0.16367 0.0
H1216 H 0.2392 0.20952 0.15237 0.0
H1217 H 0.07943 0.02781 0.18589 0.0
H1218 H 0.09427 0.09012 0.18927 0.0
H1219 H 0.05391 0.05928 0.17839 0.0
H1220 H 0.12075 0.24843 0.18823 0.0
H1221 H 0.02135 0.16708 0.16286 0.0
H1222 H 0.21341 0.22132 0.18262 0.0
H1223 H 0.1734 0.1718 0.19123 0.0
H1224 H 0.18475 0.23386 0.19367 0.0
H1225 H 0.09395 0.12428 0.15116 0.0
H1226 H 0.03035 0.11005 0.15253 0.0
H1227 H 0.05314 0.07567 0.15986 0.0
C1228 C 0.09297 0.21331 0.33817 0.0
C1229 C 0.12929 0.22395 0.34587 0.0
C1230 C 0.04229 0.18863 0.34085 0.0
C1231 C 0.02781 0.17558 0.35152 0.0
C1232 C 0.06442 0.18679 0.35934 0.0
C1233 C 0.11458 0.21012 0.3564 0.0
C1234 C 0.0042 0.17654 0.33225 0.0
C1235 C 0.05072 0.17473 0.37084 0.0
C1236 C 0.89641 0.14814 0.35743 0.0
C1237 C 0.86973 0.09622 0.35648 0.0
C1238 C 0.9485 0.17453 0.3565 0.0
C1239 C 0.97419 0.14838 0.35439 0.0
C1240 C 0.94785 0.09589 0.35425 0.0
C1241 C 0.89613 0.0705 0.35544 0.0
C1242 C 0.97563 0.2305 0.35712 0.0
C1243 C 0.97371 0.06651 0.35201 0.0
H1244 H 0.10418 0.22432 0.33005 0.0
H1245 H 0.1425 0.2192 0.36246 0.0
H1246 H 0.97786 0.13594 0.33209 0.0
H1247 H 0.98226 0.19512 0.3339 0.0
H1248 H 0.02145 0.18839 0.32432 0.0
H1249 H 0.08391 0.18972 0.37604 0.0
H1250 H 0.027 0.19019 0.37343 0.0
H1251 H 0.02886 0.13391 0.37194 0.0
H1252 H 0.87652 0.16841 0.35831 0.0
H1253 H 0.87609 0.03035 0.35482 0.0
H1254 H 0.98794 0.24632 0.3491 0.0
H1255 H 0.00934 0.24421 0.36211 0.0
H1256 H 0.95178 0.24464 0.36037 0.0
H1257 H 0.98796 0.07376 0.34379 0.0
H1258 H 0.94856 0.0259 0.35298 0.0
H1259 H 0.00608 0.07831 0.35732 0.0
C1260 C 0.83043 0.89715 0.5125 0.0
C1261 C 0.77968 0.8724 0.51505 0.0
C1262 C 0.85843 0.94912 0.51239 0.0
C1263 C 0.83524 0.97712 0.51493 0.0
C1264 C 0.78491 0.95251 0.51819 0.0
C1265 C 0.75765 0.90033 0.51821 0.0
C1266 C 0.91216 0.974 0.50898 0.0
C1267 C 0.75914 0.98121 0.52112 0.0
C1268 C 0.91737 0.11486 0.52031 0.0
C1269 C 0.91451 0.1359 0.5107 0.0
C1270 C 0.89152 0.06328 0.52184 0.0
C1271 C 0.86284 0.03192 0.51349 0.0
C1272 C 0.86087 0.05282 0.50366 0.0
C1273 C 0.88642 0.10464 0.50241 0.0
C1274 C 0.89377 0.04246 0.53248 0.0
C1275 C 0.83112 0.02046 0.49453 0.0
H1276 H 0.84798 0.87593 0.51017 0.0
H1277 H 0.71852 0.88158 0.52022 0.0
H1278 H 0.91657 0.99324 0.50133 0.0
H1279 H 0.93611 0.00255 0.51482 0.0
H1280 H 0.92565 0.94709 0.50804 0.0
H1281 H 0.72188 0.95696 0.52463 0.0
H1282 H 0.7819 0.01107 0.52683 0.0
H1283 H 0.75459 -0.00072 0.51397 0.0
H1284 H 0.93826 0.1388 0.52683 0.0
H1285 H 0.88389 0.12071 0.49499 0.0
H1286 H 0.90654 0.01502 0.53159 0.0
H1287 H 0.85607 0.02262 0.53601 0.0
H1288 H 0.91902 0.07183 0.53806 0.0
H1289 H 0.8438 0.99367 0.49259 0.0
H1290 H 0.83441 0.04245 0.48734 0.0
H1291 H 0.79134 -0.00146 0.49675 0.0
C1292 C 0.84831 0.7298 0.67393 0.0
C1293 C 0.90027 0.75743 0.67322 0.0
C1294 C 0.81917 0.75203 0.67219 0.0
C1295 C 0.84266 0.80341 0.66992 0.0
C1296 C 0.89512 0.83143 0.66909 0.0
C1297 C 0.92334 0.80791 0.67063 0.0
C1298 C 0.76334 0.72073 0.67299 0.0
C1299 C 0.92146 0.88651 0.66687 0.0
C1300 C 0.76673 0.86168 0.66026 0.0
C1301 C 0.76136 0.88216 0.66966 0.0
C1302 C 0.79298 0.83543 0.66016 0.0
C1303 C 0.813 0.82896 0.66972 0.0
C1304 C 0.80557 0.84783 0.67927 0.0
C1305 C 0.78026 0.87449 0.6791 0.0
C1306 C 0.80024 0.81558 0.64985 0.0
C1307 C 0.82497 0.84054 0.68969 0.0
H1308 H 0.83022 0.69036 0.67564 0.0
H1309 H 0.96345 0.8291 0.66994 0.0
H1310 H 0.75004 0.73263 0.67992 0.0
H1311 H 0.74551 0.726 0.66589 0.0
H1312 H 0.75077 0.68054 0.67384 0.0
H1313 H 0.96208 0.90228 0.66578 0.0
H1314 H 0.90589 0.89412 0.65968 0.0
H1315 H 0.91542 0.9061 0.67353 0.0
H1316 H 0.75184 0.8675 0.65299 0.0
H1317 H 0.7751 0.88941 0.68642 0.0
H1318 H 0.78639 0.77513 0.65051 0.0
H1319 H 0.84045 0.83369 0.64798 0.0
H1320 H 0.78084 0.8221 0.64319 0.0
H1321 H 0.81007 0.80038 0.69121 0.0
H1322 H 0.81472 0.85648 0.69643 0.0
H1323 H 0.86604 0.85831 0.68939 0.0
C1324 C 0.88487 0.81441 0.84727 0.0
C1325 C 0.86296 0.77704 0.83958 0.0
C1326 C 0.93649 0.84121 0.84866 0.0
C1327 C 0.96716 0.83093 0.84212 0.0
C1328 C 0.94553 0.7943 0.83414 0.0
C1329 C 0.89364 0.76767 0.83298 0.0
C1330 C 0.95812 0.87988 0.85728 0.0
C1331 C 0.9772 0.78272 0.82694 0.0
C1332 C 0.10146 0.931 0.83866 0.0
C1333 C 0.12672 0.91294 0.84484 0.0
C1334 C 0.04965 0.9048 0.83778 0.0
C1335 C 0.02204 0.85978 0.84337 0.0
C1336 C 0.04692 0.84221 0.84998 0.0
C1337 C 0.0991 0.86886 0.85059 0.0
C1338 C 0.02458 0.92455 0.83057 0.0
C1339 C 0.01844 0.79505 0.85632 0.0
H1340 H 0.86158 0.82182 0.85247 0.0
H1341 H 0.8771 0.73868 0.82708 0.0
H1342 H 0.97932 0.87016 0.86292 0.0
H1343 H 0.98452 0.91662 0.85385 0.0
H1344 H 0.92909 0.88333 0.8617 0.0
H1345 H 0.95473 0.75375 0.82102 0.0
H1346 H 0.00442 0.81683 0.82271 0.0
H1347 H -0.00133 0.76974 0.83168 0.0
H1348 H 0.12227 0.9649 0.83414 0.0
H1349 H 0.11825 0.85474 0.85541 0.0
H1350 H -0.00349 0.92941 0.83501 0.0
H1351 H 0.00469 0.8974 0.82417 0.0
H1352 H 0.05139 0.96068 0.82692 0.0
H1353 H -0.0069 0.7991 0.86188 0.0
H1354 H 0.0433 0.7858 0.86091 0.0
H1355 H -0.00492 0.76349 0.85102 0.0
C1356 C 0.3644 0.11868 0.93771 0.0
C1357 C 0.40095 0.10469 0.93738 0.0
C1358 C 0.35164 0.13224 0.9473 0.0
C1359 C 0.37654 0.13239 0.9567 0.0
C1360 C 0.40905 0.11272 0.95657 0.0
C1361 C 0.42028 0.0984 0.94692 0.0
C1362 C 0.31535 0.15126 0.94716 0.0
C1363 C 0.43659 0.11222 0.96636 0.0
C1364 C 0.40414 0.24003 0.97498 0.0
C1365 C 0.36961 0.2165 0.98308 0.0
C1366 C 0.40795 0.2126 0.96659 0.0
C1367 C 0.37504 0.16059 0.96609 0.0
C1368 C 0.34028 0.13658 0.97432 0.0
C1369 C 0.33863 0.16478 0.98284 0.0
C1370 C 0.44647 0.23959 0.95813 0.0
C1371 C 0.3038 0.08156 0.97396 0.0
H1372 H 0.34922 0.12366 0.9304 0.0
H1373 H 0.44804 0.08689 0.9467 0.0
H1374 H 0.29017 0.13721 0.95408 0.0
H1375 H 0.33607 0.19242 0.94761 0.0
H1376 H 0.29262 0.14025 0.93984 0.0
H1377 H 0.45311 0.08786 0.96541 0.0
H1378 H 0.46705 0.15053 0.96798 0.0
H1379 H 0.41176 0.09963 0.97334 0.0
H1380 H 0.42803 0.28003 0.97519 0.0
H1381 H 0.31136 0.14671 0.98905 0.0
H1382 H 0.42781 0.23769 0.95053 0.0
H1383 H 0.46927 0.22153 0.95693 0.0
H1384 H 0.47161 0.27929 0.96011 0.0
H1385 H 0.28284 0.07181 0.96642 0.0
H1386 H 0.27689 0.06932 0.9806 0.0
H1387 H 0.32398 0.06047 0.97429 0.0
C1388 C 0.14739 0.37501 0.14639 0.0
C1389 C 0.09631 0.35311 0.14432 0.0
C1390 C 0.18163 0.38565 0.13817 0.0
C1391 C 0.1644 0.37405 0.12764 0.0
C1392 C 0.11284 0.35079 0.12553 0.0
C1393 C 0.07947 0.34072 0.13389 0.0
C1394 C 0.23638 0.41088 0.14072 0.0
C1395 C 0.09298 0.338 0.1144 0.0
C1396 C 0.24835 0.45517 0.10574 0.0
C1397 C 0.26691 0.42586 0.10145 0.0
C1398 C 0.216 0.43904 0.11436 0.0
C1399 C 0.20038 0.39159 0.11872 0.0
C1400 C 0.21805 0.36115 0.11436 0.0
C1401 C 0.25124 0.37869 0.10575 0.0
C1402 C 0.19824 0.47283 0.11874 0.0
C1403 C 0.20177 0.31016 0.11878 0.0
H1404 H 0.16077 0.38442 0.15444 0.0
H1405 H 0.04008 0.32338 0.13221 0.0
H1406 H 0.25345 0.39051 0.13705 0.0
H1407 H 0.25533 0.449 0.13738 0.0
H1408 H 0.24345 0.41344 0.14936 0.0
H1409 H 0.05176 0.31601 0.11419 0.0
H1410 H 0.10517 0.37263 0.10981 0.0
H1411 H 0.10808 0.31657 0.1104 0.0
H1412 H 0.25869 0.49096 0.10225 0.0
H1413 H 0.26519 0.35577 0.10246 0.0
H1414 H 0.20709 0.47936 0.12728 0.0
H1415 H 0.15731 0.45494 0.11794 0.0
H1416 H 0.2154 0.50937 0.11466 0.0
H1417 H 0.2119 0.313 0.12726 0.0
H1418 H 0.21886 0.2911 0.11453 0.0
H1419 H 0.16076 0.28685 0.11828 0.0
C1420 C 0.90215 0.29939 0.27943 0.0
C1421 C 0.87534 0.27772 0.27018 0.0
C1422 C 0.89089 0.27192 0.28887 0.0
C1423 C 0.8507 0.22245 0.28908 0.0
C1424 C 0.82502 0.19995 0.27962 0.0
C1425 C 0.83819 0.22769 0.27026 0.0
C1426 C 0.92024 0.29668 0.2987 0.0
C1427 C 0.78129 0.1477 0.27952 0.0
C1428 C 0.82653 0.12884 0.31075 0.0
C1429 C 0.78935 0.1309 0.31665 0.0
C1430 C 0.84927 0.16084 0.30217 0.0
C1431 C 0.8333 0.1946 0.29921 0.0
C1432 C 0.79684 0.19797 0.30535 0.0
C1433 C 0.7758 0.1665 0.31412 0.0
C1434 C 0.88909 0.15721 0.29605 0.0
C1435 C 0.77814 0.23289 0.30232 0.0
H1436 H 0.93037 0.33834 0.27938 0.0
H1437 H 0.81667 0.21139 0.26315 0.0
H1438 H 0.89745 0.30553 0.30405 0.0
H1439 H 0.92981 0.27142 0.30302 0.0
H1440 H 0.95503 0.33171 0.29686 0.0
H1441 H 0.7663 0.1352 0.27144 0.0
H1442 H 0.79211 0.12135 0.28284 0.0
H1443 H 0.75116 0.14579 0.28456 0.0
H1444 H 0.83762 0.10182 0.31282 0.0
H1445 H 0.74706 0.16808 0.31868 0.0
H1446 H 0.92149 0.19474 0.29471 0.0
H1447 H 0.87448 0.14055 0.2882 0.0
H1448 H 0.90194 0.13404 0.3002 0.0
H1449 H 0.80966 0.2713 0.30148 0.0
H1450 H 0.75164 0.23292 0.30821 0.0
H1451 H 0.7592 0.2218 0.29454 0.0
C1452 C 0.58761 0.87065 0.43708 0.0
C1453 C 0.54103 0.83602 0.43299 0.0
C1454 C 0.60703 0.85939 0.44609 0.0
C1455 C 0.57939 0.81233 0.45107 0.0
C1456 C 0.53254 0.77733 0.44692 0.0
C1457 C 0.51426 0.78943 0.43794 0.0
C1458 C 0.65714 0.89769 0.45029 0.0
C1459 C 0.50182 0.7266 0.45186 0.0
C1460 C 0.64261 0.75588 0.46718 0.0
C1461 C 0.6309 0.76178 0.4776 0.0
C1462 C 0.6275 0.7736 0.45854 0.0
C1463 C 0.59994 0.7981 0.46028 0.0
C1464 C 0.58858 0.80495 0.47077 0.0
C1465 C 0.60407 0.78664 0.4793 0.0
C1466 C 0.64001 0.76494 0.44751 0.0
C1467 C 0.55917 0.83075 0.47297 0.0
H1468 H 0.60853 0.90664 0.43331 0.0
H1469 H 0.47885 0.76178 0.4347 0.0
H1470 H 0.65377 0.9059 0.45867 0.0
H1471 H 0.68313 0.88288 0.45003 0.0
H1472 H 0.67348 0.93288 0.44571 0.0
H1473 H 0.4653 0.70434 0.4479 0.0
H1474 H 0.52227 0.70578 0.45145 0.0
H1475 H 0.49518 0.73035 0.46033 0.0
H1476 H 0.66338 0.73689 0.46572 0.0
H1477 H 0.59502 0.7917 0.4873 0.0
H1478 H 0.65925 0.80055 0.44311 0.0
H1479 H 0.60533 0.74016 0.44315 0.0
H1480 H 0.66402 0.74775 0.4475 0.0
H1481 H 0.57672 0.8675 0.469 0.0
H1482 H 0.55622 0.83615 0.48155 0.0
H1483 H 0.52115 0.80853 0.46969 0.0
C1484 C 0.76128 0.61514 0.60058 0.0
C1485 C 0.71125 0.57763 0.60098 0.0
C1486 C 0.79117 0.62907 0.60969 0.0
C1487 C 0.77099 0.60381 0.61933 0.0
C1488 C 0.71959 0.56921 0.61999 0.0
C1489 C 0.69015 0.55761 0.61087 0.0
C1490 C 0.84527 0.66814 0.6088 0.0
C1491 C 0.69647 0.54082 0.63004 0.0
C1492 C 0.86191 0.58583 0.63634 0.0
C1493 C 0.87055 0.61869 0.64466 0.0
C1494 C 0.82829 0.57957 0.62825 0.0
C1495 C 0.80457 0.60865 0.62825 0.0
C1496 C 0.81342 0.64209 0.63666 0.0
C1497 C 0.84568 0.64602 0.64488 0.0
C1498 C 0.81832 0.54192 0.61969 0.0
C1499 C 0.79061 0.67521 0.63678 0.0
H1500 H 0.77818 0.63119 0.59304 0.0
H1501 H 0.65113 0.52983 0.61135 0.0
H1502 H 0.85684 0.69366 0.61567 0.0
H1503 H 0.86837 0.65002 0.60879 0.0
H1504 H 0.85305 0.69029 0.60144 0.0
H1505 H 0.65527 0.5194 0.62958 0.0
H1506 H 0.71015 0.51442 0.63154 0.0
H1507 H 0.70741 0.56627 0.63689 0.0
H1508 H 0.88112 0.56466 0.63623 0.0
H1509 H 0.85304 0.67199 0.65128 0.0
H1510 H 0.83217 0.56113 0.61201 0.0
H1511 H 0.77774 0.51639 0.61886 0.0
H1512 H 0.83651 0.51951 0.62132 0.0
H1513 H 0.80772 0.70351 0.63045 0.0
H1514 H 0.79641 0.6947 0.64445 0.0
H1515 H 0.7502 0.65362 0.63514 0.0
C1516 C 0.24325 0.90247 0.80129 0.0
C1517 C 0.2482 0.88459 0.81116 0.0
C1518 C 0.22424 0.87102 0.79251 0.0
C1519 C 0.21027 0.82032 0.79351 0.0
C1520 C 0.21472 0.80175 0.80345 0.0
C1521 C 0.23334 0.83403 0.81218 0.0
C1522 C 0.21997 0.89237 0.78209 0.0
C1523 C 0.20075 0.74801 0.8048 0.0
C1524 C 0.13101 0.73171 0.77157 0.0
C1525 C 0.16727 0.72879 0.76555 0.0
C1526 C 0.14423 0.76094 0.7808 0.0
C1527 C 0.19482 0.78801 0.78394 0.0
C1528 C 0.23144 0.78563 0.77772 0.0
C1529 C 0.21718 0.75602 0.76864 0.0
C1530 C 0.10413 0.76234 0.78726 0.0
C1531 C 0.28578 0.81411 0.78069 0.0
H1532 H 0.25395 0.94127 0.80042 0.0
H1533 H 0.23686 0.81982 0.81976 0.0
H1534 H 0.2451 0.88982 0.77621 0.0
H1535 H 0.18158 0.87059 0.77898 0.0
H1536 H 0.22964 0.93186 0.78277 0.0
H1537 H 0.20391 0.7387 0.81313 0.0
H1538 H 0.16209 0.72341 0.80207 0.0
H1539 H 0.22528 0.73979 0.79985 0.0
H1540 H 0.09239 0.71015 0.76922 0.0
H1541 H 0.24516 0.75359 0.76396 0.0
H1542 H 0.112 0.80119 0.78806 0.0
H1543 H 0.1037 0.74823 0.79534 0.0
H1544 H 0.06671 0.73968 0.7837 0.0
H1545 H 0.29867 0.85444 0.78102 0.0
H1546 H 0.30952 0.80808 0.775 0.0
H1547 H 0.29119 0.80269 0.78866 0.0
C1548 C 0.8762 0.62392 0.91173 0.0
C1549 C 0.89269 0.58925 0.91138 0.0
C1550 C 0.86201 0.63852 0.90246 0.0
C1551 C 0.86406 0.61765 0.89267 0.0
C1552 C 0.88679 0.58788 0.89213 0.0
C1553 C 0.90143 0.57452 0.90151 0.0
C1554 C 0.83954 0.67178 0.90334 0.0
C1555 C 0.89003 0.56495 0.88188 0.0
C1556 C 0.75391 0.58814 0.87501 0.0
C1557 C 0.77515 0.62575 0.86742 0.0
C1558 C 0.78311 0.5839 0.88296 0.0
C1559 C 0.83447 0.61942 0.88356 0.0
C1560 C 0.85619 0.65723 0.87581 0.0
C1561 C 0.82634 0.65934 0.86768 0.0
C1562 C 0.75858 0.54212 0.89089 0.0
C1563 C 0.91042 0.69632 0.87629 0.0
H1564 H 0.86933 0.63561 0.91931 0.0
H1565 H 0.91489 0.5483 0.90119 0.0
H1566 H 0.85241 0.69917 0.89679 0.0
H1567 H 0.7985 0.64891 0.90278 0.0
H1568 H 0.84897 0.69205 0.91097 0.0
H1569 H 0.91711 0.55146 0.88238 0.0
H1570 H 0.85299 0.53286 0.88 0.0
H1571 H 0.90079 0.5918 0.87527 0.0
H1572 H 0.71429 0.56216 0.87476 0.0
H1573 H 0.84254 0.68876 0.86183 0.0
H1574 H 0.75901 0.55755 0.89881 0.0
H1575 H 0.77941 0.5217 0.89149 0.0
H1576 H 0.71944 0.51529 0.88877 0.0
H1577 H 0.91964 0.7142 0.88417 0.0
H1578 H 0.92045 0.72551 0.87018 0.0
H1579 H 0.93375 0.67886 0.87512 0.0
C1580 C 0.23766 0.84806 0.07913 0.0
C1581 C 0.28711 0.85822 0.07911 0.0
C1582 C 0.20954 0.83491 0.06978 0.0
C1583 C 0.23087 0.83042 0.06025 0.0
C1584 C 0.28185 0.84475 0.06001 0.0
C1585 C 0.30957 0.85958 0.06939 0.0
C1586 C 0.15585 0.82206 0.07027 0.0
C1587 C 0.30608 0.83995 0.05008 0.0
C1588 C 0.13988 0.72708 0.04231 0.0
C1589 C 0.13293 0.75366 0.0342 0.0
C1590 C 0.17311 0.75183 0.0506 0.0
C1591 C 0.19845 0.80446 0.05101 0.0
C1592 C 0.19172 0.83152 0.04277 0.0
C1593 C 0.15961 0.80571 0.03435 0.0
C1594 C 0.18049 0.72151 0.05901 0.0
C1595 C 0.21667 0.88746 0.04308 0.0
H1596 H 0.21969 0.84691 0.08654 0.0
H1597 H 0.34821 0.86899 0.06921 0.0
H1598 H 0.14636 0.83808 0.06342 0.0
H1599 H 0.13157 0.78113 0.06995 0.0
H1600 H 0.14744 0.83572 0.07766 0.0
H1601 H 0.34715 0.85862 0.05083 0.0
H1602 H 0.29184 0.80001 0.04842 0.0
H1603 H 0.29671 0.85582 0.04319 0.0
H1604 H 0.11928 0.68681 0.04215 0.0
H1605 H 0.15359 0.82617 0.02812 0.0
H1606 H 0.16597 0.72616 0.06667 0.0
H1607 H 0.22067 0.73475 0.06008 0.0
H1608 H 0.16129 0.68131 0.05706 0.0
H1609 H 0.20179 0.89889 0.04981 0.0
H1610 H 0.21053 0.9031 0.0357 0.0
H1611 H 0.2572 0.90404 0.04436 0.0
C1612 C 0.3773 0.27764 0.24037 0.0
C1613 C 0.41616 0.27735 0.24593 0.0
C1614 C 0.3593 0.25023 0.23093 0.0
C1615 C 0.38065 0.222 0.22713 0.0
C1616 C 0.41945 0.22135 0.23286 0.0
C1617 C 0.43631 0.2486 0.24218 0.0
C1618 C 0.31778 0.25159 0.22502 0.0
C1619 C 0.44318 0.19161 0.22919 0.0
C1620 C 0.31526 0.10735 0.21015 0.0
C1621 C 0.33989 0.12435 0.20045 0.0
C1622 C 0.32531 0.13976 0.21866 0.0
C1623 C 0.36137 0.1905 0.21752 0.0
C1624 C 0.38459 0.20852 0.2076 0.0
C1625 C 0.37337 0.17521 0.19914 0.0
C1626 C 0.29959 0.11893 0.22908 0.0
C1627 C 0.42349 0.26235 0.2061 0.0
H1628 H 0.36174 0.29983 0.24328 0.0
H1629 H 0.46575 0.24756 0.2466 0.0
H1630 H 0.33027 0.26608 0.21692 0.0
H1631 H 0.2857 0.21345 0.22422 0.0
H1632 H 0.30513 0.2752 0.22901 0.0
H1633 H 0.41497 0.15154 0.22895 0.0
H1634 H 0.45796 0.2029 0.22107 0.0
H1635 H 0.47406 0.19646 0.23441 0.0
H1636 H 0.28858 0.06826 0.21118 0.0
H1637 H 0.39224 0.18867 0.19164 0.0
H1638 H 0.28568 0.14268 0.23246 0.0
H1639 H 0.32651 0.11846 0.23479 0.0
H1640 H 0.26792 0.08047 0.22828 0.0
H1641 H 0.41075 0.287 0.20952 0.0
H1642 H 0.43267 0.27199 0.19764 0.0
H1643 H 0.45793 0.27 0.21032 0.0
C1644 C 0.12479 0.43317 0.4058 0.0
C1645 C 0.1345 0.41809 0.41555 0.0
C1646 C 0.14013 0.42196 0.39627 0.0
C1647 C 0.16429 0.39348 0.39646 0.0
C1648 C 0.16901 0.37335 0.40616 0.0
C1649 C 0.15452 0.38628 0.41562 0.0
C1650 C 0.13432 0.44425 0.38614 0.0
C1651 C 0.19272 0.3411 0.40664 0.0
C1652 C 0.19019 0.34903 0.37043 0.0
C1653 C 0.24104 0.38246 0.36909 0.0
C1654 C 0.16446 0.35188 0.37929 0.0
C1655 C 0.18999 0.39004 0.38681 0.0
C1656 C 0.24095 0.42513 0.38522 0.0
C1657 C 0.26608 0.42028 0.37649 0.0
C1658 C 0.11073 0.3127 0.3808 0.0
C1659 C 0.26915 0.46756 0.39282 0.0
H1660 H 0.10817 0.45673 0.40566 0.0
H1661 H 0.16218 0.37433 0.42309 0.0
H1662 H 0.17141 0.47357 0.38339 0.0
H1663 H 0.11835 0.41572 0.37985 0.0
H1664 H 0.11025 0.46107 0.38715 0.0
H1665 H 0.1868 0.32232 0.41441 0.0
H1666 H 0.17753 0.31249 0.40035 0.0
H1667 H 0.23329 0.36428 0.40529 0.0
H1668 H 0.17099 0.31926 0.36477 0.0
H1669 H 0.30537 0.44617 0.37543 0.0
H1670 H 0.08816 0.32944 0.38339 0.0
H1671 H 0.10824 0.28658 0.38708 0.0
H1672 H 0.09422 0.2911 0.37347 0.0
H1673 H 0.24917 0.48858 0.39394 0.0
H1674 H 0.30742 0.49367 0.39003 0.0
H1675 H 0.27158 0.45281 0.40064 0.0
C1676 C 0.8249 0.18168 0.53629 0.0
C1677 C 0.84678 0.2335 0.53568 0.0
C1678 C 0.79336 0.15503 0.54475 0.0
C1679 C 0.78243 0.18079 0.55258 0.0
C1680 C 0.80259 0.23289 0.55165 0.0
C1681 C 0.83519 0.25867 0.54332 0.0
C1682 C 0.77363 0.09981 0.54555 0.0
C1683 C 0.79075 0.2617 0.55962 0.0
C1684 C 0.67268 0.121 0.5713 0.0
C1685 C 0.6966 0.12643 0.58104 0.0
C1686 C 0.69959 0.13536 0.5618 0.0
C1687 C 0.75155 0.15434 0.562 0.0
C1688 C 0.77487 0.15437 0.57163 0.0
C1689 C 0.74721 0.14078 0.58106 0.0
C1690 C 0.67306 0.13476 0.55176 0.0
C1691 C 0.82993 0.17285 0.57214 0.0
H1692 H 0.83444 0.16229 0.53045 0.0
H1693 H 0.85202 0.29873 0.54282 0.0
H1694 H 0.78963 0.0918 0.55262 0.0
H1695 H 0.73272 0.07977 0.54657 0.0
H1696 H 0.78294 0.08485 0.53849 0.0
H1697 H 0.80617 0.30122 0.5573 0.0
H1698 H 0.74993 0.24462 0.56056 0.0
H1699 H 0.8063 0.26045 0.56743 0.0
H1700 H 0.63335 0.10895 0.57119 0.0
H1701 H 0.76618 0.14518 0.58851 0.0
H1702 H 0.68539 0.12068 0.54504 0.0
H1703 H 0.68218 0.17327 0.5498 0.0
H1704 H 0.63208 0.11159 0.55255 0.0
H1705 H 0.84151 0.15737 0.56554 0.0
H1706 H 0.84078 0.16287 0.57973 0.0
H1707 H 0.85063 0.21389 0.57134 0.0
C1708 C 0.59295 0.72529 0.74462 0.0
C1709 C 0.54884 0.71623 0.74958 0.0
C1710 C 0.60948 0.75426 0.73534 0.0
C1711 C 0.58154 0.77503 0.73103 0.0
C1712 C 0.53732 0.76628 0.7361 0.0
C1713 C 0.52171 0.73724 0.74528 0.0
C1714 C 0.65677 0.76269 0.73013 0.0
C1715 C 0.50661 0.78809 0.73192 0.0
C1716 C 0.64241 0.89184 0.71419 0.0
C1717 C 0.62639 0.87323 0.70395 0.0
C1718 C 0.62951 0.86016 0.72296 0.0
C1719 C 0.59941 0.80828 0.72157 0.0
C1720 C 0.58324 0.789 0.71128 0.0
C1721 C 0.59703 0.82167 0.70258 0.0
C1722 C 0.64745 0.88242 0.73378 0.0
C1723 C 0.55071 0.73392 0.70948 0.0
H1724 H 0.61397 0.70911 0.74791 0.0
H1725 H 0.48806 0.73121 0.74919 0.0
H1726 H 0.64919 0.74969 0.72182 0.0
H1727 H 0.68421 0.80299 0.72994 0.0
H1728 H 0.67358 0.74308 0.73429 0.0
H1729 H 0.47233 0.77642 0.73662 0.0
H1730 H 0.52892 0.82923 0.73201 0.0
H1731 H 0.49584 0.77658 0.7236 0.0
H1732 H 0.66544 0.9315 0.71538 0.0
H1733 H 0.58463 0.8068 0.69473 0.0
H1734 H 0.66715 0.86506 0.73766 0.0
H1735 H 0.61522 0.8748 0.73883 0.0
H1736 H 0.67286 0.92323 0.73346 0.0
H1737 H 0.56832 0.71356 0.71294 0.0
H1738 H 0.54357 0.7245 0.70097 0.0
H1739 H 0.51455 0.72049 0.71354 0.0
C1740 C 0.5402 0.38925 0.01373 0.0
C1741 C 0.49947 0.3831 1.00779 0.0
C1742 C 0.58875 0.42183 0.01033 0.0
C1743 C 0.59633 0.448 1.00071 0.0
C1744 C 0.55534 0.44322 0.99489 0.0
C1745 C 0.50731 0.41094 0.99854 0.0
C1746 C 0.63185 0.42686 0.01683 0.0
C1747 C 0.56209 0.47024 0.98456 0.0
C1748 C 0.72708 0.55151 0.99518 0.0
C1749 C 0.74653 0.52573 0.98969 0.0
C1750 C 0.67756 0.52714 0.99857 0.0
C1751 C 0.64685 0.4762 0.99623 0.0
C1752 C 0.66523 0.45098 0.99004 0.0
C1753 C 0.71497 0.47596 0.98691 0.0
C1754 C 0.659 0.55511 1.00515 0.0
C1755 C 0.63316 0.39677 0.98722 0.0
H1756 H 0.53417 0.36818 0.02094 0.0
H1757 H 0.47584 0.40639 0.99393 0.0
H1758 H 0.65143 0.41074 0.01244 0.0
H1759 H 0.65901 0.46663 0.01823 0.0
H1760 H 0.61974 0.40771 0.02458 0.0
H1761 H 0.52669 0.46647 0.98157 0.0
H1762 H 0.58953 0.51029 0.98544 0.0
H1763 H 0.57685 0.45503 0.97853 0.0
H1764 H 0.75106 0.59027 0.99716 0.0
H1765 H 0.72973 0.45548 0.9828 0.0
H1766 H 0.65276 0.54089 0.01338 0.0
H1767 H 0.6229 0.54909 1.00211 0.0
H1768 H 0.68579 0.59566 1.00531 0.0
H1769 H 0.62423 0.37378 0.99447 0.0
H1770 H 0.65173 0.38405 0.98153 0.0
H1771 H 0.5975 0.38997 0.98373 0.0
C1772 C 0.18233 0.52525 0.17586 0.0
C1773 C 0.13218 0.50584 0.17844 0.0
C1774 C 0.21085 0.57442 0.17236 0.0
C1775 C 0.18869 0.60467 0.17172 0.0
C1776 C 0.13885 0.58592 0.17495 0.0
C1777 C 0.11091 0.53633 0.17813 0.0
C1778 C 0.26375 0.59315 0.16886 0.0
C1779 C 0.11455 0.61773 0.17473 0.0
C1780 C 0.26575 0.74418 0.1707 0.0
C1781 C 0.25932 0.75389 0.16017 0.0
C1782 C 0.24453 0.69561 0.17449 0.0
C1783 C 0.21699 0.65578 0.16751 0.0
C1784 C 0.21302 0.66516 0.15669 0.0
C1785 C 0.23423 0.7144 0.15313 0.0
C1786 C 0.24937 0.68709 0.18607 0.0
C1787 C 0.18451 0.62326 0.14901 0.0
H1788 H 0.19843 0.50122 0.17601 0.0
H1789 H 0.0721 0.52107 0.18021 0.0
H1790 H 0.2668 0.60058 0.16024 0.0
H1791 H 0.28924 0.62871 0.17283 0.0
H1792 H 0.27641 0.56605 0.17054 0.0
H1793 H 0.07675 0.5985 0.17825 0.0
H1794 H 0.13757 0.65282 0.1791 0.0
H1795 H 0.11163 0.62779 0.16646 0.0
H1796 H 0.2864 0.77484 0.17608 0.0
H1797 H 0.22952 0.72194 0.14497 0.0
H1798 H 0.26273 0.66018 0.1871 0.0
H1799 H 0.2124 0.67088 0.18991 0.0
H1800 H 0.27526 0.722 0.19025 0.0
H1801 H 0.19669 0.59525 0.14964 0.0
H1802 H 0.18933 0.63656 0.14071 0.0
H1803 H 0.14437 0.60432 0.15097 0.0
C1804 C 0.52094 0.25314 0.32036 0.0
C1805 C 0.472 0.23652 0.32362 0.0
C1806 C 0.54527 0.2269 0.32308 0.0
C1807 C 0.52013 0.1833 0.32928 0.0
C1808 C 0.46984 0.16478 0.33208 0.0
C1809 C 0.44624 0.1915 0.32916 0.0
C1810 C 0.59874 0.24731 0.31981 0.0
C1811 C 0.44177 0.11824 0.33864 0.0
C1812 C 0.57905 0.10207 0.33128 0.0
C1813 C 0.60667 0.11966 0.34063 0.0
C1814 C 0.54974 0.12165 0.32758 0.0
C1815 C 0.54773 0.15934 0.33344 0.0
C1816 C 0.57415 0.17603 0.34307 0.0
C1817 C 0.60367 0.15623 0.34652 0.0
C1818 C 0.52218 0.10309 0.31727 0.0
C1819 C 0.57205 0.21556 0.34963 0.0
H1820 H 0.54115 0.28803 0.31614 0.0
H1821 H 0.408 0.17791 0.33148 0.0
H1822 H 0.62299 0.26062 0.32689 0.0
H1823 H 0.6039 0.21777 0.31612 0.0
H1824 H 0.61128 0.27867 0.31415 0.0
H1825 H 0.40165 0.10626 0.33928 0.0
H1826 H 0.44554 0.08742 0.33521 0.0
H1827 H 0.45776 0.12502 0.34671 0.0
H1828 H 0.58117 0.0737 0.3267 0.0
H1829 H 0.6246 0.16958 0.35379 0.0
H1830 H 0.53758 0.13356 0.31136 0.0
H1831 H 0.48238 0.09146 0.31831 0.0
H1832 H 0.52495 0.07128 0.31404 0.0
H1833 H 0.58862 0.25097 0.34514 0.0
H1834 H 0.59225 0.22216 0.35723 0.0
H1835 H 0.53288 0.20472 0.35134 0.0
C1836 C 0.27224 0.51976 0.48934 0.0
C1837 C 0.23739 0.47248 0.49303 0.0
C1838 C 0.32254 0.54047 0.49183 0.0
C1839 C 0.33798 0.51372 0.49839 0.0
C1840 C 0.30365 0.46486 0.50162 0.0
C1841 C 0.25375 0.44445 0.49874 0.0
C1842 C 0.35865 0.59221 0.48795 0.0
C1843 C 0.31876 0.4354 0.5087 0.0
C1844 C 0.47667 0.56805 0.49961 0.0
C1845 C 0.48892 0.60157 0.50801 0.0
C1846 C 0.42716 0.53688 0.49671 0.0
C1847 C 0.38929 0.53893 0.50247 0.0
C1848 C 0.40122 0.57002 0.51143 0.0
C1849 C 0.45113 0.60157 0.51403 0.0
C1850 C 0.41574 0.50435 0.48707 0.0
C1851 C 0.3614 0.57181 0.51795 0.0
H1852 H 0.26001 0.54178 0.48496 0.0
H1853 H 0.22724 0.40718 0.50132 0.0
H1854 H 0.37132 0.61843 0.4947 0.0
H1855 H 0.39196 0.59329 0.48446 0.0
H1856 H 0.34177 0.60547 0.48195 0.0
H1857 H 0.28982 0.39552 0.50904 0.0
H1858 H 0.35412 0.43833 0.506 0.0
H1859 H 0.32492 0.45075 0.51681 0.0
H1860 H 0.50583 0.56762 0.49499 0.0
H1861 H 0.46052 0.62707 0.52059 0.0
H1862 H 0.40382 0.51993 0.48054 0.0
H1863 H 0.38475 0.46631 0.48867 0.0
H1864 H 0.44851 0.50185 0.48439 0.0
H1865 H 0.3438 0.58919 0.51327 0.0
H1866 H 0.37648 0.59347 0.52534 0.0
H1867 H 0.33189 0.53367 0.52004 0.0
C1868 C 0.8683 0.44443 0.68342 0.0
C1869 C 0.8464 0.47433 0.68332 0.0
C1870 C 0.84026 0.39393 0.68115 0.0
C1871 C 0.78972 0.37376 0.67835 0.0
C1872 C 0.76639 0.40288 0.67915 0.0
C1873 C 0.7952 0.45321 0.68178 0.0
C1874 C 0.86591 0.36339 0.68081 0.0
C1875 C 0.7125 0.3824 0.67626 0.0
C1876 C 0.75633 0.27459 0.65783 0.0
C1877 C 0.73462 0.23205 0.66414 0.0
C1878 C 0.77122 0.32119 0.66227 0.0
C1879 C 0.76416 0.32471 0.67323 0.0
C1880 C 0.73902 0.28144 0.67945 0.0
C1881 C 0.72436 0.23548 0.6748 0.0
C1882 C 0.79723 0.36688 0.65539 0.0
C1883 C 0.73064 0.28375 0.69113 0.0
H1884 H 0.90796 0.46115 0.68474 0.0
H1885 H 0.77857 0.47678 0.68169 0.0
H1886 H 0.84295 0.327 0.68475 0.0
H1887 H 0.87107 0.35604 0.67247 0.0
H1888 H 0.90292 0.38267 0.68469 0.0
H1889 H 0.6976 0.40568 0.67948 0.0
H1890 H 0.70897 0.3816 0.66754 0.0
H1891 H 0.68931 0.3438 0.67917 0.0
H1892 H 0.76351 0.27164 0.64956 0.0
H1893 H 0.70592 0.20213 0.67959 0.0
H1894 H 0.83714 0.38814 0.65756 0.0
H1895 H 0.78131 0.39152 0.65667 0.0
H1896 H 0.7944 0.35742 0.64687 0.0
H1897 H 0.7662 0.29655 0.6954 0.0
H1898 H 0.70292 0.24691 0.69435 0.0
H1899 H 0.71791 0.31072 0.6928 0.0
C1900 C 0.563 0.82318 0.83297 0.0
C1901 C 0.53431 0.77989 0.82703 0.0
C1902 C 0.54398 0.854 0.8359 0.0
C1903 C 0.49594 0.84207 0.83249 0.0
C1904 C 0.4689 0.80135 0.82565 0.0
C1905 C 0.488 0.77027 0.82316 0.0
C1906 C 0.57384 0.89698 0.84326 0.0
C1907 C 0.41811 0.78844 0.82155 0.0
C1908 C 0.40565 0.86386 0.84815 0.0
C1909 C 0.40589 0.90259 0.84243 0.0
C1910 C 0.43837 0.84674 0.84557 0.0
C1911 C 0.47097 0.86806 0.83688 0.0
C1912 C 0.47355 0.90921 0.83151 0.0
C1913 C 0.44112 0.92629 0.83441 0.0
C1914 C 0.43586 0.80376 0.8517 0.0
C1915 C 0.50765 0.93269 0.82218 0.0
H1916 H 0.59962 0.83208 0.83569 0.0
H1917 H 0.46512 0.73691 0.81865 0.0
H1918 H 0.57081 0.92997 0.84105 0.0
H1919 H 0.55902 0.88616 0.85139 0.0
H1920 H 0.6137 0.90755 0.84336 0.0
H1921 H 0.40512 0.75994 0.81522 0.0
H1922 H 0.39084 0.77382 0.82811 0.0
H1923 H 0.4185 0.82201 0.8184 0.0
H1924 H 0.37885 0.84587 0.85443 0.0
H1925 H 0.44173 0.95661 0.83002 0.0
H1926 H 0.47373 0.81198 0.85399 0.0
H1927 H 0.41958 0.77008 0.84666 0.0
H1928 H 0.41284 0.79528 0.85894 0.0
H1929 H 0.54506 0.93782 0.82378 0.0
H1930 H 0.51154 0.96924 0.82008 0.0
H1931 H 0.49234 0.90775 0.81524 0.0
C1932 C 0.61868 0.47963 0.85532 0.0
C1933 C 0.62317 0.48827 0.84442 0.0
C1934 C 0.59398 0.43127 0.85932 0.0
C1935 C 0.57226 0.39096 0.8522 0.0
C1936 C 0.57716 0.3995 0.84116 0.0
C1937 C 0.60331 0.44836 0.83738 0.0
C1938 C 0.59051 0.42338 0.87113 0.0
C1939 C 0.55374 0.3572 0.83336 0.0
C1940 C 0.53748 0.26153 0.86113 0.0
C1941 C 0.48594 0.23991 0.86209 0.0
C1942 C 0.56648 0.31133 0.85816 0.0
C1943 C 0.54308 0.33982 0.8563 0.0
C1944 C 0.49132 0.31877 0.85788 0.0
C1945 C 0.46316 0.26865 0.86067 0.0
C1946 C 0.62153 0.33258 0.85644 0.0
C1947 C 0.46541 0.34847 0.85613 0.0
H1948 H 0.63489 0.51082 0.86073 0.0
H1949 H 0.60697 0.45543 0.82895 0.0
H1950 H 0.5511 0.40556 0.87365 0.0
H1951 H 0.60451 0.39796 0.87337 0.0
H1952 H 0.61203 0.45873 0.87554 0.0
H1953 H 0.5637 0.37005 0.82507 0.0
H1954 H 0.56543 0.32942 0.83506 0.0
H1955 H 0.51272 0.33805 0.83415 0.0
H1956 H 0.55467 0.2387 0.8621 0.0
H1957 H 0.42314 0.2514 0.86142 0.0
H1958 H 0.64287 0.36814 0.86076 0.0
H1959 H 0.63022 0.34066 0.84793 0.0
H1960 H 0.63446 0.30669 0.85905 0.0
H1961 H 0.48407 0.38355 0.86071 0.0
H1962 H 0.42566 0.32756 0.85847 0.0
H1963 H 0.46767 0.35863 0.84767 0.0
C1964 C 0.13914 0.58318 1.00413 0.0
C1965 C 0.10697 0.59112 0.01051 0.0
C1966 C 0.15952 0.55454 1.00775 0.0
C1967 C 0.14799 0.53423 0.01806 0.0
C1968 C 0.11444 0.54095 0.02444 0.0
C1969 C 0.09403 0.56918 0.02055 0.0
C1970 C 0.19458 0.54733 1.00067 0.0
C1971 C 0.10164 0.52003 0.03549 0.0
C1972 C 0.18273 0.43553 0.02325 0.0
C1973 C 0.23099 0.4643 0.02724 0.0
C1974 C 0.15389 0.4573 0.02072 0.0
C1975 C 0.17382 0.50882 0.02234 0.0
C1976 C 0.22098 0.53724 0.02712 0.0
C1977 C 0.24914 0.51461 0.02948 0.0
C1978 C 0.10358 0.42585 0.0157 0.0
C1979 C 0.24312 0.59225 0.02907 0.0
H1980 H 0.14885 0.5998 0.99634 0.0
H1981 H 0.06916 0.57538 0.02551 0.0
H1982 H 0.23241 0.56619 1.00415 0.0
H1983 H 0.18259 0.50727 1.00001 0.0
H1984 H 0.19667 0.56242 0.99261 0.0
H1985 H 0.07165 0.52493 0.03906 0.0
H1986 H 0.08978 0.47991 0.03548 0.0
H1987 H 0.13508 0.53893 0.04058 0.0
H1988 H 0.16821 0.39632 0.02174 0.0
H1989 H 0.28651 0.53701 0.03253 0.0
H1990 H 0.10541 0.43608 1.00725 0.0
H1991 H 0.07539 0.43275 0.0195 0.0
H1992 H 0.09096 0.38555 0.01621 0.0
H1993 H 0.25259 0.61227 0.02141 0.0
H1994 H 0.27735 0.60757 0.03396 0.0
H1995 H 0.21587 0.5999 0.03309 0.0
C1996 C 0.72015 0.1759 0.18983 0.0
C1997 C 0.73758 0.22201 0.19481 0.0
C1998 C 0.67018 0.14707 0.18693 0.0
C1999 C 0.63697 0.16453 0.18926 0.0
C2000 C 0.6533 0.20841 0.19526 0.0
C2001 C 0.7036 0.23685 0.19791 0.0
C2002 C 0.65404 0.1002 0.18065 0.0
C2003 C 0.61852 0.22745 0.19813 0.0
C2004 C 0.53206 0.14061 0.17068 0.0
C2005 C 0.49084 0.10486 0.17627 0.0
C2006 C 0.5802 0.15857 0.17461 0.0
C2007 C 0.58698 0.1407 0.18441 0.0
C2008 C 0.54567 0.10313 0.18988 0.0
C2009 C 0.498 0.08552 0.18572 0.0
C2010 C 0.62368 0.19789 0.16844 0.0
C2011 C 0.55154 0.08307 0.20033 0.0
H2012 H 0.74609 0.16352 0.18771 0.0
H2013 H 0.71677 0.27237 0.20178 0.0
H2014 H 0.61739 0.07002 0.18336 0.0
H2015 H 0.65012 0.10752 0.17222 0.0
H2016 H 0.68144 0.08712 0.18118 0.0
H2017 H 0.63532 0.25821 0.20395 0.0
H2018 H 0.60896 0.24127 0.19091 0.0
H2019 H 0.58339 0.19712 0.20145 0.0
H2020 H 0.52669 0.15508 0.1633 0.0
H2021 H 0.4662 0.05757 0.19005 0.0
H2022 H 0.65222 0.1867 0.16731 0.0
H2023 H 0.64126 0.23324 0.17293 0.0
H2024 H 0.61243 0.20478 0.16056 0.0
H2025 H 0.58129 0.0732 0.19986 0.0
H2026 H 0.51659 0.04979 0.20289 0.0
H2027 H 0.5627 0.11215 0.20647 0.0
C2028 C 0.40691 0.53897 0.33384 0.0
C2029 C 0.35506 0.51156 0.33352 0.0
C2030 C 0.43142 0.58956 0.33622 0.0
C2031 C 0.40309 0.61258 0.33862 0.0
C2032 C 0.35071 0.58568 0.33769 0.0
C2033 C 0.32717 0.53523 0.33501 0.0
C2034 C 0.48747 0.61755 0.33678 0.0
C2035 C 0.31943 0.60913 0.34025 0.0
C2036 C 0.46787 0.71914 0.35777 0.0
C2037 C 0.48734 0.75981 0.35089 0.0
C2038 C 0.43834 0.67084 0.3539 0.0
C2039 C 0.42845 0.66348 0.34293 0.0
C2040 C 0.44645 0.70456 0.33602 0.0
C2041 C 0.47554 0.75233 0.3401 0.0
C2042 C 0.41926 0.62759 0.36149 0.0
C2043 C 0.43659 0.698 0.32429 0.0
H2044 H 0.42826 0.52041 0.33255 0.0
H2045 H 0.28695 0.51364 0.3348 0.0
H2046 H 0.5028 0.65316 0.33241 0.0
H2047 H 0.49939 0.62653 0.34513 0.0
H2048 H 0.50386 0.59574 0.33348 0.0
H2049 H 0.28014 0.58536 0.33777 0.0
H2050 H 0.32026 0.61526 0.34889 0.0
H2051 H 0.33458 0.6459 0.33636 0.0
H2052 H 0.4769 0.72496 0.3661 0.0
H2053 H 0.48954 0.78398 0.33482 0.0
H2054 H 0.4373 0.60517 0.35978 0.0
H2055 H 0.37866 0.60296 0.36045 0.0
H2056 H 0.42672 0.63984 0.36985 0.0
H2057 H 0.45535 0.67877 0.32084 0.0
H2058 H 0.45015 0.73403 0.32013 0.0
H2059 H 0.39625 0.67438 0.32275 0.0
C2060 C 0.81038 0.55137 0.5226 0.0
C2061 C 0.76171 0.52344 0.52644 0.0
C2062 C 0.83809 0.52845 0.52011 0.0
C2063 C 0.81673 0.47676 0.52172 0.0
C2064 C 0.76941 0.44925 0.52646 0.0
C2065 C 0.74221 0.47294 0.5287 0.0
C2066 C 0.88863 0.55887 0.5151 0.0
C2067 C 0.7461 0.39417 0.52852 0.0
C2068 C 0.84924 0.3993 0.50408 0.0
C2069 C 0.88078 0.39128 0.51065 0.0
C2070 C 0.82987 0.42919 0.50743 0.0
C2071 C 0.8417 0.45037 0.51765 0.0
C2072 C 0.87449 0.44335 0.52422 0.0
C2073 C 0.89397 0.41406 0.52059 0.0
C2074 C 0.79569 0.43695 0.50016 0.0
C2075 C 0.88733 0.46495 0.53521 0.0
H2076 H 0.82599 0.59077 0.52112 0.0
H2077 H 0.70456 0.4512 0.53164 0.0
H2078 H 0.91614 0.55087 0.51889 0.0
H2079 H 0.88646 0.54872 0.50664 0.0
H2080 H 0.90236 0.59939 0.51563 0.0
H2081 H 0.71187 0.37965 0.53338 0.0
H2082 H 0.7363 0.37394 0.52089 0.0
H2083 H 0.77274 0.38581 0.53261 0.0
H2084 H 0.83949 0.38201 0.49636 0.0
H2085 H 0.91831 0.40771 0.52571 0.0
H2086 H 0.8086 0.47717 0.49935 0.0
H2087 H 0.75777 0.41905 0.50358 0.0
H2088 H 0.79351 0.42123 0.49217 0.0
H2089 H 0.89986 0.50521 0.53504 0.0
H2090 H 0.91686 0.45967 0.53892 0.0
H2091 H 0.85374 0.4468 0.54027 0.0
C2092 C 0.25482 0.805 0.68524 0.0
C2093 C 0.24172 0.75992 0.69035 0.0
C2094 C 0.30443 0.83866 0.68279 0.0
C2095 C 0.34155 0.82728 0.68575 0.0
C2096 C 0.32907 0.7845 0.69189 0.0
C2097 C 0.27914 0.75099 0.69402 0.0
C2098 C 0.31634 0.88401 0.67627 0.0
C2099 C 0.36801 0.77193 0.69546 0.0
C2100 C 0.45156 0.85533 0.66875 0.0
C2101 C 0.49035 0.89335 0.67447 0.0
C2102 C 0.40223 0.83652 0.67186 0.0
C2103 C 0.39181 0.85503 0.68114 0.0
C2104 C 0.43054 0.89528 0.68663 0.0
C2105 C 0.47955 0.91437 0.68316 0.0
C2106 C 0.36158 0.79471 0.66558 0.0
C2107 C 0.42079 0.91575 0.69659 0.0
H2108 H 0.22611 0.81301 0.68275 0.0
H2109 H 0.26938 0.71638 0.69801 0.0
H2110 H 0.35131 0.91679 0.67894 0.0
H2111 H 0.32157 0.87689 0.66791 0.0
H2112 H 0.28593 0.89308 0.67658 0.0
H2113 H 0.35333 0.74174 0.70145 0.0
H2114 H 0.38122 0.75968 0.68857 0.0
H2115 H 0.40056 0.80509 0.69885 0.0
H2116 H 0.45979 0.83927 0.66199 0.0
H2117 H 0.50955 0.94398 0.68758 0.0
H2118 H 0.33058 0.80212 0.66411 0.0
H2119 H 0.34645 0.7596 0.67014 0.0
H2120 H 0.37519 0.78928 0.65786 0.0
H2121 H 0.38716 0.91941 0.69576 0.0
H2122 H 0.45277 0.95254 0.69871 0.0
H2123 H 0.41407 0.88968 0.70321 0.0
C2124 C 0.39736 0.20064 0.11058 0.0
C2125 C 0.41123 0.16713 0.11464 0.0
C2126 C 0.42207 0.22989 0.10178 0.0
C2127 C 0.45894 0.22275 0.0968 0.0
C2128 C 0.48225 0.20162 0.10272 0.0
C2129 C 0.45912 0.17577 0.11202 0.0
C2130 C 0.40139 0.25967 0.09663 0.0
C2131 C 0.52656 0.19978 0.09843 0.0
C2132 C 0.38603 0.17784 0.07294 0.0
C2133 C 0.40145 0.22429 0.06827 0.0
C2134 C 0.41364 0.17339 0.08119 0.0
C2135 C 0.45528 0.21702 0.08513 0.0
C2136 C 0.4778 0.25945 0.07862 0.0
C2137 C 0.45108 0.26195 0.06992 0.0
C2138 C 0.39222 0.12444 0.08697 0.0
C2139 C 0.52608 0.30441 0.08173 0.0
H2140 H 0.36357 0.19949 0.11312 0.0
H2141 H 0.47493 0.15638 0.11617 0.0
H2142 H 0.43091 0.29259 0.09246 0.0
H2143 H 0.37252 0.23611 0.09079 0.0
H2144 H 0.38378 0.2724 0.10255 0.0
H2145 H 0.54267 0.18532 0.10435 0.0
H2146 H 0.51554 0.17551 0.09136 0.0
H2147 H 0.55554 0.23749 0.09595 0.0
H2148 H 0.3496 0.14661 0.07132 0.0
H2149 H 0.46636 0.29619 0.06546 0.0
H2150 H 0.36704 0.12335 0.09331 0.0
H2151 H 0.42191 0.11929 0.09059 0.0
H2152 H 0.37012 0.09285 0.08156 0.0
H2153 H 0.52108 0.32049 0.08914 0.0
H2154 H 0.54012 0.33352 0.07551 0.0
H2155 H 0.55449 0.2934 0.08326 0.0
C2156 C 0.16861 0.44516 0.23494 0.0
C2157 C 0.15693 0.39621 0.23245 0.0
C2158 C 0.19436 0.46744 0.24428 0.0
C2159 C 0.21343 0.44249 0.25033 0.0
C2160 C 0.21685 0.40285 0.24564 0.0
C2161 C 0.18712 0.37894 0.23685 0.0
C2162 C 0.19347 0.51255 0.24837 0.0
C2163 C 0.24342 0.37934 0.25107 0.0
C2164 C 0.25836 0.44547 0.27751 0.0
C2165 C 0.22042 0.39726 0.28025 0.0
C2166 C 0.25533 0.46729 0.26803 0.0
C2167 C 0.21128 0.4428 0.26204 0.0
C2168 C 0.16801 0.40412 0.26685 0.0
C2169 C 0.1733 0.38052 0.27579 0.0
C2170 C 0.30164 0.51139 0.26379 0.0
C2171 C 0.11804 0.38126 0.26146 0.0
H2172 H 0.15103 0.46261 0.23068 0.0
H2173 H 0.18274 0.34343 0.23455 0.0
H2174 H 0.15513 0.50161 0.25091 0.0
H2175 H 0.21891 0.52999 0.25515 0.0
H2176 H 0.20365 0.54038 0.24195 0.0
H2177 H 0.25326 0.3584 0.24538 0.0
H2178 H 0.27784 0.40788 0.25498 0.0
H2179 H 0.2188 0.35289 0.25718 0.0
H2180 H 0.29328 0.46265 0.28175 0.0
H2181 H 0.14183 0.34562 0.27823 0.0
H2182 H 0.29408 0.52873 0.2569 0.0
H2183 H 0.32839 0.49932 0.26137 0.0
H2184 H 0.31972 0.53964 0.2701 0.0
H2185 H 0.08732 0.36139 0.26721 0.0
H2186 H 0.11551 0.35397 0.25549 0.0
H2187 H 0.11283 0.41004 0.2574 0.0
C2188 C 0.81961 0.16584 0.44763 0.0
C2189 C 0.84291 0.21019 0.45337 0.0
C2190 C 0.78053 0.15608 0.44077 0.0
C2191 C 0.76609 0.1926 0.43941 0.0
C2192 C 0.78231 0.23185 0.44671 0.0
C2193 C 0.81952 0.23908 0.45393 0.0
C2194 C 0.76056 0.11046 0.43387 0.0
C2195 C 0.76455 0.26914 0.4464 0.0
C2196 C 0.76647 0.18865 0.41083 0.0
C2197 C 0.71944 0.14647 0.40973 0.0
C2198 C 0.78012 0.21402 0.42048 0.0
C2199 C 0.74607 0.19545 0.42899 0.0
C2200 C 0.69549 0.16329 0.4269 0.0
C2201 C 0.68239 0.13879 0.41717 0.0
C2202 C 0.83341 0.25373 0.42216 0.0
C2203 C 0.65712 0.1472 0.43552 0.0
H2204 H 0.83545 0.14166 0.4474 0.0
H2205 H 0.83417 0.27104 0.45905 0.0
H2206 H 0.71985 0.0933 0.43281 0.0
H2207 H 0.77847 0.12106 0.42599 0.0
H2208 H 0.76843 0.08204 0.43726 0.0
H2209 H 0.79679 0.30749 0.44665 0.0
H2210 H 0.74167 0.26536 0.43936 0.0
H2211 H 0.74193 0.26422 0.45356 0.0
H2212 H 0.79444 0.19751 0.4048 0.0
H2213 H 0.64475 0.10844 0.41631 0.0
H2214 H 0.85445 0.23668 0.42556 0.0
H2215 H 0.83574 0.28224 0.42778 0.0
H2216 H 0.85136 0.27206 0.41461 0.0
H2217 H 0.65543 0.11518 0.43982 0.0
H2218 H 0.61972 0.13524 0.43219 0.0
H2219 H 0.66683 0.17764 0.44127 0.0
C2220 C 0.55383 0.74484 0.56335 0.0
C2221 C 0.60545 0.77803 0.56329 0.0
C2222 C 0.52333 0.74962 0.57087 0.0
C2223 C 0.54503 0.78962 0.57801 0.0
C2224 C 0.59345 0.82981 0.57593 0.0
C2225 C 0.62346 0.82316 0.56865 0.0
C2226 C 0.46973 0.70944 0.57191 0.0
C2227 C 0.61708 0.87634 0.58258 0.0
C2228 C 0.52442 0.83699 0.60238 0.0
C2229 C 0.55974 0.83096 0.60832 0.0
C2230 C 0.50739 0.81272 0.59269 0.0
C2231 C 0.52676 0.78308 0.58903 0.0
C2232 C 0.54844 0.76502 0.59641 0.0
C2233 C 0.56454 0.78923 0.60615 0.0
C2234 C 0.47734 0.82666 0.58556 0.0
C2235 C 0.56392 0.7278 0.59326 0.0
H2236 H 0.53826 0.71187 0.55852 0.0
H2237 H 0.66256 0.85065 0.56836 0.0
H2238 H 0.46199 0.69353 0.57999 0.0
H2239 H 0.44546 0.72574 0.57057 0.0
H2240 H 0.45949 0.67892 0.56614 0.0
H2241 H 0.65029 0.90687 0.57867 0.0
H2242 H 0.59055 0.88963 0.58418 0.0
H2243 H 0.6292 0.86837 0.59022 0.0
H2244 H 0.51564 0.86572 0.60423 0.0
H2245 H 0.58707 0.78023 0.61123 0.0
H2246 H 0.45317 0.79535 0.58028 0.0
H2247 H 0.5027 0.85873 0.58056 0.0
H2248 H 0.45397 0.83755 0.59023 0.0
H2249 H 0.53511 0.69809 0.58827 0.0
H2250 H 0.57072 0.71049 0.60028 0.0
H2251 H 0.59883 0.74679 0.58861 0.0
C2252 C 0.83828 0.66731 0.73523 0.0
C2253 C 0.85945 0.64395 0.7295 0.0
C2254 C 0.7998 0.64025 0.74237 0.0
C2255 C 0.78345 0.58908 0.74397 0.0
C2256 C 0.79803 0.56389 0.73685 0.0
C2257 C 0.835 0.59168 0.72944 0.0
C2258 C 0.78218 0.6682 0.74925 0.0
C2259 C 0.78003 0.50906 0.73779 0.0
C2260 C 0.77956 0.59149 0.77269 0.0
C2261 C 0.73258 0.58711 0.77359 0.0
C2262 C 0.79443 0.58095 0.76306 0.0
C2263 C 0.76164 0.56713 0.75433 0.0
C2264 C 0.71095 0.55021 0.75606 0.0
C2265 C 0.69667 0.56013 0.7658 0.0
C2266 C 0.84782 0.59389 0.7617 0.0
C2267 C 0.67385 0.53123 0.74714 0.0
H2268 H 0.85541 0.70741 0.73516 0.0
H2269 H 0.84861 0.57259 0.72457 0.0
H2270 H 0.74131 0.64677 0.75029 0.0
H2271 H 0.79968 0.67433 0.75716 0.0
H2272 H 0.79218 0.70505 0.74586 0.0
H2273 H 0.80992 0.50388 0.74132 0.0
H2274 H 0.74629 0.4892 0.74275 0.0
H2275 H 0.77211 0.49182 0.72983 0.0
H2276 H 0.80663 0.60921 0.77895 0.0
H2277 H 0.65919 0.55371 0.76648 0.0
H2278 H 0.86952 0.632 0.75841 0.0
H2279 H 0.85068 0.5679 0.75612 0.0
H2280 H 0.86474 0.59282 0.76936 0.0
H2281 H 0.67217 0.5629 0.74349 0.0
H2282 H 0.63613 0.50452 0.75012 0.0
H2283 H 0.68437 0.51297 0.74094 0.0
C2284 C 0.21391 0.75685 0.94224 0.0
C2285 C 0.17101 0.711 0.94415 0.0
C2286 C 0.23563 0.76717 0.93218 0.0
C2287 C 0.21456 0.72997 0.92431 0.0
C2288 C 0.18454 0.68028 0.92748 0.0
C2289 C 0.16301 0.67095 0.93755 0.0
C2290 C 0.27378 0.81994 0.92946 0.0
C2291 C 0.16713 0.63827 0.91969 0.0
C2292 C 0.16998 0.7902 0.90527 0.0
C2293 C 0.21275 0.81621 0.89911 0.0
C2294 C 0.16602 0.75445 0.91254 0.0
C2295 C 0.20643 0.74542 0.91373 0.0
C2296 C 0.24428 0.76362 0.90603 0.0
C2297 C 0.24654 0.7984 0.89863 0.0
C2298 C 0.12213 0.73286 0.91998 0.0
C2299 C 0.28557 0.75135 0.90621 0.0
H2300 H 0.22537 0.78688 0.94786 0.0
H2301 H 0.13433 0.63336 0.93924 0.0
H2302 H 0.30241 0.82064 0.92411 0.0
H2303 H 0.25541 0.83803 0.9253 0.0
H2304 H 0.29233 0.84197 0.93663 0.0
H2305 H 0.16189 0.60405 0.92366 0.0
H2306 H 0.13071 0.63011 0.91637 0.0
H2307 H 0.19383 0.64779 0.91307 0.0
H2308 H 0.14247 0.80199 0.9055 0.0
H2309 H 0.27806 0.81567 0.89335 0.0
H2310 H 0.13371 0.7525 0.92764 0.0
H2311 H 0.10799 0.69279 0.92135 0.0
H2312 H 0.09099 0.73723 0.91688 0.0
H2313 H 0.32063 0.78463 0.90869 0.0
H2314 H 0.29171 0.74167 0.89813 0.0
H2315 H 0.27781 0.72014 0.91162 0.0
loop_
_geom_bond_atom_site_label_1
_geom_bond_atom_site_label_2
_geom_bond_distance
_geom_bond_site_symmetry_2
_ccdc_geom_bond_type
C0 C1 1.359 . S
C0 N5 1.330 . S
C0 C61 1.504 . S
C1 C0 1.359 . S
C1 C2 1.366 . S
C1 H63 0.929 . S
C2 C1 1.366 . S
C2 C3 1.415 . S
C2 H64 0.932 . S
C3 C2 1.415 . S
C3 C4 1.366 . S
C3 H65 0.931 . S
C4 C3 1.366 . S
C4 N5 1.325 . S
C4 C6 1.516 . S
N5 C0 1.330 . S
N5 C4 1.325 . S
N5 Co21 1.869 . S
C6 C4 1.516 . S
C6 N30 1.316 . S
C6 O53 1.263 . S
C7 C8 1.421 . S
C7 C12 1.360 . S
C7 N30 1.436 . S
C8 C7 1.421 . S
C8 C9 1.379 . S
C8 H66 0.929 . S
C9 C8 1.379 . S
C9 C10 1.417 . S
C10 C9 1.417 . S
C10 C11 1.352 . S
C10 H67 0.929 . S
C11 C10 1.352 . S
C11 C12 1.393 . S
C12 C7 1.360 . S
C12 C11 1.393 . S
C12 H68 0.931 . S
Cd13 O33 2.329 1_554 S
Cd13 O35 2.350 . S
Cd13 O36 2.277 . S
Cd13 O38 2.173 . S
Cd13 O42 2.263 . S
Cd13 O53 2.366 . S
Cd14 O32 2.352 . S
Cd14 O39 2.277 . S
Cd14 O43 2.308 . S
C15 C19 1.403 . S
C15 C20 1.370 . S
C15 N31 1.423 . S
C16 C17 1.389 . S
C16 C20 1.389 . S
C17 C16 1.389 . S
C17 C18 1.379 . S
C17 H69 0.929 . S
C18 C17 1.379 . S
C18 C19 1.405 . S
C19 C15 1.403 . S
C19 C18 1.405 . S
C19 H70 0.932 . S
C20 C15 1.370 . S
C20 C16 1.389 . S
C20 H71 0.931 . S
Co21 N5 1.869 . S
Co21 N22 1.955 . S
Co21 N23 1.864 . S
Co21 N29 1.958 . S
Co21 N30 1.953 . S
Co21 N31 1.974 . S
N22 Co21 1.955 . S
N22 C40 1.329 . S
N22 C55 1.432 . S
N23 Co21 1.864 . S
N23 C24 1.327 . S
N23 C28 1.342 . S
C24 N23 1.327 . S
C24 C25 1.407 . S
C24 C40 1.481 . S
C25 C24 1.407 . S
C25 C26 1.364 . S
C25 H72 0.930 . S
C26 C25 1.364 . S
C26 C27 1.390 . S
C26 H73 0.931 . S
C27 C26 1.390 . S
C27 C28 1.346 . S
C27 H74 0.930 . S
C28 N23 1.342 . S
C28 C27 1.346 . S
C28 C44 1.516 . S
N29 Co21 1.958 . S
N29 C44 1.324 . S
N29 C46 1.427 . S
N30 C6 1.316 . S
N30 C7 1.436 . S
N30 Co21 1.953 . S
N31 C15 1.423 . S
N31 Co21 1.974 . S
N31 C61 1.309 . S
O32 Cd14 2.352 . S
O32 C52 1.235 . S
O33 Cd13 2.329 1_556 S
O33 C52 1.270 . S
C34 O35 1.270 . S
C34 O36 1.248 . S
O35 Cd13 2.350 . S
O35 C34 1.270 . S
O36 Cd13 2.277 . S
O36 C34 1.248 . S
C37 O38 1.277 . S
C37 O39 1.198 1_554 S
O38 Cd13 2.173 . S
O38 C37 1.277 . S
O39 Cd14 2.277 . S
O39 C37 1.198 1_556 S
C40 N22 1.329 . S
C40 C24 1.481 . S
C40 O41 1.246 . S
O41 C40 1.246 . S
O42 Cd13 2.263 . S
O42 C54 1.258 . S
O43 Cd14 2.308 . S
O43 C54 1.274 1_556 S
C44 C28 1.516 . S
C44 N29 1.324 . S
C44 O45 1.238 . S
O45 C44 1.238 . S
C46 N29 1.427 . S
C46 C47 1.394 . S
C46 C51 1.395 . S
C47 C46 1.394 . S
C47 C48 1.380 . S
C47 H75 0.929 . S
C48 C47 1.380 . S
C48 C49 1.384 . S
C48 C54 1.495 . S
C49 C48 1.384 . S
C49 C50 1.382 . S
C49 H76 0.930 . S
C50 C49 1.382 . S
C50 C51 1.398 . S
C51 C46 1.395 . S
C51 C50 1.398 . S
C51 H77 0.930 . S
C52 O32 1.235 . S
C52 O33 1.270 . S
O53 C6 1.263 . S
O53 Cd13 2.366 . S
C54 O42 1.258 . S
C54 O43 1.274 1_554 S
C54 C48 1.495 . S
C55 N22 1.432 . S
C55 C56 1.381 . S
C55 C60 1.385 . S
C56 C55 1.381 . S
C56 C57 1.371 . S
C56 H78 0.932 . S
C57 C56 1.371 . S
C57 C58 1.400 . S
C58 C57 1.400 . S
C58 C59 1.351 . S
C58 H79 0.930 . S
C59 C58 1.351 . S
C59 C60 1.388 . S
C60 C55 1.385 . S
C60 C59 1.388 . S
C60 H80 0.929 . S
C61 C0 1.504 . S
C61 N31 1.309 . S
C61 O62 1.258 . S
O62 C61 1.258 . S
H63 C1 0.929 . S
H64 C2 0.932 . S
H65 C3 0.931 . S
H66 C8 0.929 . S
H67 C10 0.929 . S
H68 C12 0.931 . S
H69 C17 0.929 . S
H70 C19 0.932 . S
H71 C20 0.931 . S
H72 C25 0.930 . S
H73 C26 0.931 . S
H74 C27 0.930 . S
H75 C47 0.929 . S
H76 C49 0.930 . S
H77 C51 0.930 . S
H78 C56 0.932 . S
H79 C58 0.930 . S
H80 C60 0.929 . S
C81 C82 1.359 . S
C81 N86 1.330 . S
C81 C142 1.504 . S
C82 C81 1.359 . S
C82 C83 1.366 . S
C82 H144 0.929 . S
C83 C82 1.366 . S
C83 C84 1.415 1_655 S
C83 H145 0.932 1_655 S
C84 C83 1.415 1_455 S
C84 C85 1.366 . S
C84 H146 0.931 . S
C85 C84 1.366 . S
C85 N86 1.325 1_455 S
C85 C87 1.516 . S
N86 C81 1.330 . S
N86 C85 1.325 1_655 S
N86 Co102 1.869 . S
C87 C85 1.516 . S
C87 N111 1.316 . S
C87 O134 1.263 . S
C88 C89 1.421 . S
C88 C93 1.360 . S
C88 N111 1.436 . S
C89 C88 1.421 . S
C89 C90 1.379 . S
C89 H147 0.929 . S
C90 C89 1.379 . S
C90 C91 1.417 . S
C91 C90 1.417 . S
C91 C92 1.352 . S
C91 H148 0.929 . S
C92 C91 1.352 . S
C92 C93 1.393 . S
C93 C88 1.360 . S
C93 C92 1.393 . S
C93 H149 0.931 1_455 S
Cd94 O114 2.329 . S
Cd94 O116 2.350 . S
Cd94 O117 2.277 . S
Cd94 O119 2.173 . S
Cd94 O123 2.263 . S
Cd94 O134 2.366 . S
Cd95 O113 2.352 . S
Cd95 O120 2.250 . S
Cd95 O124 2.308 1_455 S
C96 C100 1.403 . S
C96 C101 1.370 . S
C96 N112 1.423 . S
C97 C98 1.389 . S
C97 C101 1.389 . S
C98 C97 1.389 . S
C98 C99 1.379 . S
C98 H150 0.929 . S
C99 C98 1.379 . S
C99 C100 1.405 . S
C100 C96 1.403 . S
C100 C99 1.405 . S
C100 H151 0.932 . S
C101 C96 1.370 . S
C101 C97 1.389 . S
C101 H152 0.931 . S
Co102 N86 1.869 . S
Co102 N103 1.955 1_655 S
Co102 N104 1.864 . S
Co102 N110 1.958 . S
Co102 N111 1.953 1_655 S
Co102 N112 1.974 . S
N103 Co102 1.955 1_455 S
N103 C121 1.329 . S
N103 C136 1.432 . S
N104 Co102 1.864 . S
N104 C105 1.327 . S
N104 C109 1.342 . S
C105 N104 1.327 . S
C105 C106 1.407 . S
C105 C121 1.481 1_655 S
C106 C105 1.407 . S
C106 C107 1.364 . S
C106 H153 0.930 . S
C107 C106 1.364 . S
C107 C108 1.390 . S
C107 H154 0.931 . S
C108 C107 1.390 . S
C108 C109 1.346 . S
C108 H155 0.930 . S
C109 N104 1.342 . S
C109 C108 1.346 . S
C109 C125 1.516 . S
N110 Co102 1.958 . S
N110 C125 1.324 . S
N110 C127 1.427 . S
N111 C87 1.316 . S
N111 C88 1.436 . S
N111 Co102 1.953 1_455 S
N112 C96 1.423 . S
N112 Co102 1.974 . S
N112 C142 1.309 . S
O113 Cd95 2.352 . S
O113 C133 1.235 . S
O114 Cd94 2.329 . S
O114 C133 1.270 . S
C115 O116 1.270 . S
C115 O117 1.248 . S
O116 Cd94 2.350 . S
O116 C115 1.270 . S
O117 Cd94 2.277 . S
O117 C115 1.248 . S
C118 O119 1.277 . S
C118 O120 1.230 . S
O119 Cd94 2.173 . S
O119 C118 1.277 . S
O120 Cd95 2.250 . S
O120 C118 1.230 . S
C121 N103 1.329 . S
C121 C105 1.481 1_455 S
C121 O122 1.246 . S
O122 C121 1.246 . S
O123 Cd94 2.263 . S
O123 C135 1.258 1_455 S
O124 Cd95 2.308 1_655 S
O124 C135 1.274 . S
C125 C109 1.516 . S
C125 N110 1.324 . S
C125 O126 1.238 . S
O126 C125 1.238 . S
C127 N110 1.427 . S
C127 C128 1.394 . S
C127 C132 1.395 . S
C128 C127 1.394 . S
C128 C129 1.380 . S
C128 H156 0.929 . S
C129 C128 1.380 . S
C129 C130 1.384 . S
C129 C135 1.495 . S
C130 C129 1.384 . S
C130 C131 1.382 . S
C130 H157 0.930 . S
C131 C130 1.382 . S
C131 C132 1.398 . S
C132 C127 1.395 . S
C132 C131 1.398 . S
C132 H158 0.930 . S
C133 O113 1.235 . S
C133 O114 1.270 . S
O134 C87 1.263 . S
O134 Cd94 2.366 . S
C135 O123 1.258 1_655 S
C135 O124 1.274 . S
C135 C129 1.495 . S
C136 N103 1.432 . S
C136 C137 1.381 . S
C136 C141 1.385 . S
C137 C136 1.381 . S
C137 C138 1.371 . S
C137 H159 0.932 1_455 S
C138 C137 1.371 . S
C138 C139 1.400 . S
C139 C138 1.400 . S
C139 C140 1.351 . S
C139 H160 0.930 . S
C140 C139 1.351 . S
C140 C141 1.388 . S
C141 C136 1.385 . S
C141 C140 1.388 . S
C141 H161 0.929 . S
C142 C81 1.504 . S
C142 N112 1.309 . S
C142 O143 1.258 . S
O143 C142 1.258 . S
H144 C82 0.929 . S
H145 C83 0.932 1_455 S
H146 C84 0.931 . S
H147 C89 0.929 . S
H148 C91 0.929 . S
H149 C93 0.931 1_655 S
H150 C98 0.929 . S
H151 C100 0.932 . S
H152 C101 0.931 . S
H153 C106 0.930 . S
H154 C107 0.931 . S
H155 C108 0.930 . S
H156 C128 0.929 . S
H157 C130 0.930 . S
H158 C132 0.930 . S
H159 C137 0.932 1_655 S
H160 C139 0.930 . S
H161 C141 0.929 . S
C162 C163 1.359 . S
C162 N167 1.330 . S
C162 C223 1.504 . S
C163 C162 1.359 . S
C163 C164 1.366 . S
C163 H225 0.929 . S
C164 C163 1.366 . S
C164 C165 1.415 1_565 S
C164 H226 0.932 1_565 S
C165 C164 1.415 1_545 S
C165 C166 1.366 . S
C165 H227 0.931 . S
C166 C165 1.366 . S
C166 N167 1.325 1_545 S
C166 C168 1.516 . S
N167 C162 1.330 . S
N167 C166 1.325 1_565 S
N167 Co183 1.869 . S
C168 C166 1.516 . S
C168 N192 1.316 . S
C168 O215 1.263 . S
C169 C170 1.421 . S
C169 C174 1.360 . S
C169 N192 1.436 . S
C170 C169 1.421 . S
C170 C171 1.379 . S
C170 H228 0.929 . S
C171 C170 1.379 . S
C171 C172 1.417 . S
C172 C171 1.417 . S
C172 C173 1.352 . S
C172 H229 0.929 . S
C173 C172 1.352 . S
C173 C174 1.393 . S
C174 C169 1.360 . S
C174 C173 1.393 . S
C174 H230 0.931 1_545 S
Cd175 O195 2.329 . S
Cd175 O197 2.350 . S
Cd175 O198 2.277 . S
Cd175 O200 2.173 . S
Cd175 O204 2.263 . S
Cd175 O215 2.366 . S
Cd176 O194 2.352 . S
Cd176 O201 2.250 . S
Cd176 O205 2.308 1_545 S
C177 C181 1.403 . S
C177 C182 1.370 . S
C177 N193 1.423 . S
C178 C179 1.389 . S
C178 C182 1.389 . S
C179 C178 1.389 . S
C179 C180 1.379 . S
C179 H231 0.929 . S
C180 C179 1.379 . S
C180 C181 1.405 . S
C181 C177 1.403 . S
C181 C180 1.405 . S
C181 H232 0.932 . S
C182 C177 1.370 . S
C182 C178 1.389 . S
C182 H233 0.931 . S
Co183 N167 1.869 . S
Co183 N184 1.955 1_565 S
Co183 N185 1.864 . S
Co183 N191 1.958 . S
Co183 N192 1.953 1_565 S
Co183 N193 1.974 . S
N184 Co183 1.955 1_545 S
N184 C202 1.329 . S
N184 C217 1.432 . S
N185 Co183 1.864 . S
N185 C186 1.327 . S
N185 C190 1.342 . S
C186 N185 1.327 . S
C186 C187 1.407 . S
C186 C202 1.481 1_565 S
C187 C186 1.407 . S
C187 C188 1.364 . S
C187 H234 0.930 . S
C188 C187 1.364 . S
C188 C189 1.390 . S
C188 H235 0.931 . S
C189 C188 1.390 . S
C189 C190 1.346 . S
C189 H236 0.930 . S
C190 N185 1.342 . S
C190 C189 1.346 . S
C190 C206 1.516 . S
N191 Co183 1.958 . S
N191 C206 1.324 . S
N191 C208 1.427 . S
N192 C168 1.316 . S
N192 C169 1.436 . S
N192 Co183 1.953 1_545 S
N193 C177 1.423 . S
N193 Co183 1.974 . S
N193 C223 1.309 . S
O194 Cd176 2.352 . S
O194 C214 1.235 . S
O195 Cd175 2.329 . S
O195 C214 1.270 . S
C196 O197 1.270 . S
C196 O198 1.248 . S
O197 Cd175 2.350 . S
O197 C196 1.270 . S
O198 Cd175 2.277 . S
O198 C196 1.248 . S
C199 O200 1.277 . S
C199 O201 1.230 . S
O200 Cd175 2.173 . S
O200 C199 1.277 . S
O201 Cd176 2.250 . S
O201 C199 1.230 . S
C202 N184 1.329 . S
C202 C186 1.481 1_545 S
C202 O203 1.246 . S
O203 C202 1.246 . S
O204 Cd175 2.263 . S
O204 C216 1.258 1_545 S
O205 Cd176 2.308 1_565 S
O205 C216 1.274 . S
C206 C190 1.516 . S
C206 N191 1.324 . S
C206 O207 1.238 . S
O207 C206 1.238 . S
C208 N191 1.427 . S
C208 C209 1.394 . S
C208 C213 1.395 . S
C209 C208 1.394 . S
C209 C210 1.380 . S
C209 H237 0.929 . S
C210 C209 1.380 . S
C210 C211 1.384 . S
C210 C216 1.495 . S
C211 C210 1.384 . S
C211 C212 1.382 . S
C211 H238 0.930 . S
C212 C211 1.382 . S
C212 C213 1.398 . S
C213 C208 1.395 . S
C213 C212 1.398 . S
C213 H239 0.930 . S
C214 O194 1.235 . S
C214 O195 1.270 . S
O215 C168 1.263 . S
O215 Cd175 2.366 . S
C216 O204 1.258 1_565 S
C216 O205 1.274 . S
C216 C210 1.495 . S
C217 N184 1.432 . S
C217 C218 1.381 . S
C217 C222 1.385 . S
C218 C217 1.381 . S
C218 C219 1.371 . S
C218 H240 0.932 1_545 S
C219 C218 1.371 . S
C219 C220 1.400 . S
C220 C219 1.400 . S
C220 C221 1.351 . S
C220 H241 0.930 . S
C221 C220 1.351 . S
C221 C222 1.388 . S
C222 C217 1.385 . S
C222 C221 1.388 . S
C222 H242 0.929 . S
C223 C162 1.504 . S
C223 N193 1.309 . S
C223 O224 1.258 . S
O224 C223 1.258 . S
H225 C163 0.929 . S
H226 C164 0.932 1_545 S
H227 C165 0.931 . S
H228 C170 0.929 . S
H229 C172 0.929 . S
H230 C174 0.931 1_565 S
H231 C179 0.929 . S
H232 C181 0.932 . S
H233 C182 0.931 . S
H234 C187 0.930 . S
H235 C188 0.931 . S
H236 C189 0.930 . S
H237 C209 0.929 . S
H238 C211 0.930 . S
H239 C213 0.930 . S
H240 C218 0.932 1_565 S
H241 C220 0.930 . S
H242 C222 0.929 . S
C243 C244 1.359 . S
C243 N248 1.330 . S
C243 C304 1.504 . S
C244 C243 1.359 . S
C244 C245 1.366 . S
C244 H306 0.929 . S
C245 C244 1.366 . S
C245 C246 1.415 . S
C245 H307 0.932 . S
C246 C245 1.415 . S
C246 C247 1.366 . S
C246 H308 0.931 . S
C247 C246 1.366 . S
C247 N248 1.325 . S
C247 C249 1.516 . S
N248 C243 1.330 . S
N248 C247 1.325 . S
N248 Co264 1.869 . S
C249 C247 1.516 . S
C249 N273 1.316 . S
C249 O296 1.263 . S
C250 C251 1.421 . S
C250 C255 1.360 . S
C250 N273 1.436 . S
C251 C250 1.421 . S
C251 C252 1.379 . S
C251 H309 0.929 . S
C252 C251 1.379 . S
C252 C253 1.417 . S
C253 C252 1.417 . S
C253 C254 1.352 . S
C253 H310 0.929 . S
C254 C253 1.352 . S
C254 C255 1.393 . S
C255 C250 1.360 . S
C255 C254 1.393 . S
C255 H311 0.931 . S
Cd256 O276 2.329 . S
Cd256 O278 2.350 . S
Cd256 O279 2.277 . S
Cd256 O281 2.173 . S
Cd256 O285 2.263 . S
Cd256 O296 2.366 . S
Cd257 O275 2.352 . S
Cd257 O282 2.250 . S
Cd257 O286 2.308 . S
C258 C262 1.403 . S
C258 C263 1.370 . S
C258 N274 1.423 . S
C259 C260 1.389 . S
C259 C263 1.389 . S
C260 C259 1.389 . S
C260 C261 1.379 . S
C260 H312 0.929 . S
C261 C260 1.379 . S
C261 C262 1.405 . S
C262 C258 1.403 . S
C262 C261 1.405 . S
C262 H313 0.932 . S
C263 C258 1.370 . S
C263 C259 1.389 . S
C263 H314 0.931 . S
Co264 N248 1.869 . S
Co264 N265 1.955 . S
Co264 N266 1.864 . S
Co264 N272 1.958 . S
Co264 N273 1.953 . S
Co264 N274 1.974 . S
N265 Co264 1.955 . S
N265 C283 1.329 . S
N265 C298 1.432 . S
N266 Co264 1.864 . S
N266 C267 1.327 . S
N266 C271 1.342 . S
C267 N266 1.327 . S
C267 C268 1.407 . S
C267 C283 1.481 . S
C268 C267 1.407 . S
C268 C269 1.364 . S
C268 H315 0.930 . S
C269 C268 1.364 . S
C269 C270 1.390 . S
C269 H316 0.931 . S
C270 C269 1.390 . S
C270 C271 1.346 . S
C270 H317 0.930 . S
C271 N266 1.342 . S
C271 C270 1.346 . S
C271 C287 1.516 . S
N272 Co264 1.958 . S
N272 C287 1.324 . S
N272 C289 1.427 . S
N273 C249 1.316 . S
N273 C250 1.436 . S
N273 Co264 1.953 . S
N274 C258 1.423 . S
N274 Co264 1.974 . S
N274 C304 1.309 . S
O275 Cd257 2.352 . S
O275 C295 1.235 . S
O276 Cd256 2.329 . S
O276 C295 1.270 . S
C277 O278 1.270 . S
C277 O279 1.248 . S
O278 Cd256 2.350 . S
O278 C277 1.270 . S
O279 Cd256 2.277 . S
O279 C277 1.248 . S
C280 O281 1.277 . S
C280 O282 1.230 . S
O281 Cd256 2.173 . S
O281 C280 1.277 . S
O282 Cd257 2.250 . S
O282 C280 1.230 . S
C283 N265 1.329 . S
C283 C267 1.481 . S
C283 O284 1.246 . S
O284 C283 1.246 . S
O285 Cd256 2.263 . S
O285 C297 1.258 . S
O286 Cd257 2.308 . S
O286 C297 1.274 . S
C287 C271 1.516 . S
C287 N272 1.324 . S
C287 O288 1.238 . S
O288 C287 1.238 . S
C289 N272 1.427 . S
C289 C290 1.394 . S
C289 C294 1.395 . S
C290 C289 1.394 . S
C290 C291 1.380 . S
C290 H318 0.929 . S
C291 C290 1.380 . S
C291 C292 1.384 . S
C291 C297 1.495 . S
C292 C291 1.384 . S
C292 C293 1.382 . S
C292 H319 0.930 . S
C293 C292 1.382 . S
C293 C294 1.398 . S
C294 C289 1.395 . S
C294 C293 1.398 . S
C294 H320 0.930 . S
C295 O275 1.235 . S
C295 O276 1.270 . S
O296 C249 1.263 . S
O296 Cd256 2.366 . S
C297 O285 1.258 . S
C297 O286 1.274 . S
C297 C291 1.495 . S
C298 N265 1.432 . S
C298 C299 1.381 . S
C298 C303 1.385 . S
C299 C298 1.381 . S
C299 C300 1.371 . S
C299 H321 0.932 . S
C300 C299 1.371 . S
C300 C301 1.400 . S
C301 C300 1.400 . S
C301 C302 1.351 . S
C301 H322 0.930 . S
C302 C301 1.351 . S
C302 C303 1.388 . S
C303 C298 1.385 . S
C303 C302 1.388 . S
C303 H323 0.929 . S
C304 C243 1.504 . S
C304 N274 1.309 . S
C304 O305 1.258 . S
O305 C304 1.258 . S
H306 C244 0.929 . S
H307 C245 0.932 . S
H308 C246 0.931 . S
H309 C251 0.929 . S
H310 C253 0.929 . S
H311 C255 0.931 . S
H312 C260 0.929 . S
H313 C262 0.932 . S
H314 C263 0.931 . S
H315 C268 0.930 . S
H316 C269 0.931 . S
H317 C270 0.930 . S
H318 C290 0.929 . S
H319 C292 0.930 . S
H320 C294 0.930 . S
H321 C299 0.932 . S
H322 C301 0.930 . S
H323 C303 0.929 . S
C324 C325 1.359 . S
C324 N329 1.330 . S
C324 C385 1.504 . S
C325 C324 1.359 . S
C325 C326 1.366 . S
C325 H387 0.929 . S
C326 C325 1.366 . S
C326 C327 1.415 1_455 S
C326 H388 0.932 1_455 S
C327 C326 1.415 1_655 S
C327 C328 1.366 . S
C327 H389 0.931 . S
C328 C327 1.366 . S
C328 N329 1.325 1_655 S
C328 C330 1.516 . S
N329 C324 1.330 . S
N329 C328 1.325 1_455 S
N329 Co345 1.869 . S
C330 C328 1.516 . S
C330 N354 1.316 . S
C330 O377 1.263 . S
C331 C332 1.421 . S
C331 C336 1.360 . S
C331 N354 1.436 . S
C332 C331 1.421 . S
C332 C333 1.379 . S
C332 H390 0.929 . S
C333 C332 1.379 . S
C333 C334 1.417 . S
C334 C333 1.417 . S
C334 C335 1.352 . S
C334 H391 0.929 . S
C335 C334 1.352 . S
C335 C336 1.393 . S
C336 C331 1.360 . S
C336 C335 1.393 . S
C336 H392 0.931 1_655 S
Cd337 O357 2.329 . S
Cd337 O359 2.350 . S
Cd337 O360 2.277 . S
Cd337 O362 2.173 . S
Cd337 O366 2.263 . S
Cd337 O377 2.366 . S
Cd338 O356 2.352 . S
Cd338 O363 2.250 . S
Cd338 O367 2.308 1_655 S
C339 C343 1.403 . S
C339 C344 1.370 . S
C339 N355 1.423 . S
C340 C341 1.389 . S
C340 C344 1.389 . S
C341 C340 1.389 . S
C341 C342 1.379 . S
C341 H393 0.929 . S
C342 C341 1.379 . S
C342 C343 1.405 . S
C343 C339 1.403 . S
C343 C342 1.405 . S
C343 H394 0.932 . S
C344 C339 1.370 . S
C344 C340 1.389 . S
C344 H395 0.931 . S
Co345 N329 1.869 . S
Co345 N346 1.955 1_455 S
Co345 N347 1.864 . S
Co345 N353 1.958 . S
Co345 N354 1.953 1_455 S
Co345 N355 1.974 . S
N346 Co345 1.955 1_655 S
N346 C364 1.329 . S
N346 C379 1.432 . S
N347 Co345 1.864 . S
N347 C348 1.327 . S
N347 C352 1.342 . S
C348 N347 1.327 . S
C348 C349 1.407 . S
C348 C364 1.481 1_455 S
C349 C348 1.407 . S
C349 C350 1.364 . S
C349 H396 0.930 . S
C350 C349 1.364 . S
C350 C351 1.390 . S
C350 H397 0.931 . S
C351 C350 1.390 . S
C351 C352 1.346 . S
C351 H398 0.930 . S
C352 N347 1.342 . S
C352 C351 1.346 . S
C352 C368 1.516 . S
N353 Co345 1.958 . S
N353 C368 1.324 . S
N353 C370 1.427 . S
N354 C330 1.316 . S
N354 C331 1.436 . S
N354 Co345 1.953 1_655 S
N355 C339 1.423 . S
N355 Co345 1.974 . S
N355 C385 1.309 . S
O356 Cd338 2.352 . S
O356 C376 1.235 . S
O357 Cd337 2.329 . S
O357 C376 1.270 . S
C358 O359 1.270 . S
C358 O360 1.248 . S
O359 Cd337 2.350 . S
O359 C358 1.270 . S
O360 Cd337 2.277 . S
O360 C358 1.248 . S
C361 O362 1.277 . S
C361 O363 1.230 . S
O362 Cd337 2.173 . S
O362 C361 1.277 . S
O363 Cd338 2.250 . S
O363 C361 1.230 . S
C364 N346 1.329 . S
C364 C348 1.481 1_655 S
C364 O365 1.246 . S
O365 C364 1.246 . S
O366 Cd337 2.263 . S
O366 C378 1.258 1_655 S
O367 Cd338 2.308 1_455 S
O367 C378 1.274 . S
C368 C352 1.516 . S
C368 N353 1.324 . S
C368 O369 1.238 . S
O369 C368 1.238 . S
C370 N353 1.427 . S
C370 C371 1.394 . S
C370 C375 1.395 . S
C371 C370 1.394 . S
C371 C372 1.380 . S
C371 H399 0.929 . S
C372 C371 1.380 . S
C372 C373 1.384 . S
C372 C378 1.495 . S
C373 C372 1.384 . S
C373 C374 1.382 . S
C373 H400 0.930 . S
C374 C373 1.382 . S
C374 C375 1.398 . S
C375 C370 1.395 . S
C375 C374 1.398 . S
C375 H401 0.930 . S
C376 O356 1.235 . S
C376 O357 1.270 . S
O377 C330 1.263 . S
O377 Cd337 2.366 . S
C378 O366 1.258 1_455 S
C378 O367 1.274 . S
C378 C372 1.495 . S
C379 N346 1.432 . S
C379 C380 1.381 . S
C379 C384 1.385 . S
C380 C379 1.381 . S
C380 C381 1.371 . S
C380 H402 0.932 1_655 S
C381 C380 1.371 . S
C381 C382 1.400 . S
C382 C381 1.400 . S
C382 C383 1.351 . S
C382 H403 0.930 . S
C383 C382 1.351 . S
C383 C384 1.388 . S
C384 C379 1.385 . S
C384 C383 1.388 . S
C384 H404 0.929 . S
C385 C324 1.504 . S
C385 N355 1.309 . S
C385 O386 1.258 . S
O386 C385 1.258 . S
H387 C325 0.929 . S
H388 C326 0.932 1_655 S
H389 C327 0.931 . S
H390 C332 0.929 . S
H391 C334 0.929 . S
H392 C336 0.931 1_455 S
H393 C341 0.929 . S
H394 C343 0.932 . S
H395 C344 0.931 . S
H396 C349 0.930 . S
H397 C350 0.931 . S
H398 C351 0.930 . S
H399 C371 0.929 . S
H400 C373 0.930 . S
H401 C375 0.930 . S
H402 C380 0.932 1_455 S
H403 C382 0.930 . S
H404 C384 0.929 . S
C405 C406 1.359 . S
C405 N410 1.330 . S
C405 C466 1.504 . S
C406 C405 1.359 . S
C406 C407 1.366 . S
C406 H468 0.929 . S
C407 C406 1.366 . S
C407 C408 1.415 1_545 S
C407 H469 0.932 1_545 S
C408 C407 1.415 1_565 S
C408 C409 1.366 . S
C408 H470 0.931 . S
C409 C408 1.366 . S
C409 N410 1.325 1_565 S
C409 C411 1.516 . S
N410 C405 1.330 . S
N410 C409 1.325 1_545 S
N410 Co426 1.869 . S
C411 C409 1.516 . S
C411 N435 1.316 . S
C411 O458 1.263 . S
C412 C413 1.421 . S
C412 C417 1.360 . S
C412 N435 1.436 . S
C413 C412 1.421 . S
C413 C414 1.379 . S
C413 H471 0.929 . S
C414 C413 1.379 . S
C414 C415 1.417 . S
C415 C414 1.417 . S
C415 C416 1.352 . S
C415 H472 0.929 . S
C416 C415 1.352 . S
C416 C417 1.393 . S
C417 C412 1.360 . S
C417 C416 1.393 . S
C417 H473 0.931 1_565 S
Cd418 O438 2.329 . S
Cd418 O440 2.350 . S
Cd418 O441 2.277 . S
Cd418 O443 2.173 . S
Cd418 O447 2.263 . S
Cd418 O458 2.366 . S
Cd419 O437 2.352 . S
Cd419 O444 2.250 . S
Cd419 O448 2.308 1_565 S
C420 C424 1.403 . S
C420 C425 1.370 . S
C420 N436 1.423 . S
C421 C422 1.389 . S
C421 C425 1.389 . S
C422 C421 1.389 . S
C422 C423 1.379 . S
C422 H474 0.929 . S
C423 C422 1.379 . S
C423 C424 1.405 . S
C424 C420 1.403 . S
C424 C423 1.405 . S
C424 H475 0.932 . S
C425 C420 1.370 . S
C425 C421 1.389 . S
C425 H476 0.931 . S
Co426 N410 1.869 . S
Co426 N427 1.955 1_545 S
Co426 N428 1.864 . S
Co426 N434 1.958 . S
Co426 N435 1.953 1_545 S
Co426 N436 1.974 . S
N427 Co426 1.955 1_565 S
N427 C445 1.329 . S
N427 C460 1.432 . S
N428 Co426 1.864 . S
N428 C429 1.327 . S
N428 C433 1.342 . S
C429 N428 1.327 . S
C429 C430 1.407 . S
C429 C445 1.481 1_545 S
C430 C429 1.407 . S
C430 C431 1.364 . S
C430 H477 0.930 . S
C431 C430 1.364 . S
C431 C432 1.390 . S
C431 H478 0.931 . S
C432 C431 1.390 . S
C432 C433 1.346 . S
C432 H479 0.930 . S
C433 N428 1.342 . S
C433 C432 1.346 . S
C433 C449 1.516 . S
N434 Co426 1.958 . S
N434 C449 1.324 . S
N434 C451 1.427 . S
N435 C411 1.316 . S
N435 C412 1.436 . S
N435 Co426 1.953 1_565 S
N436 C420 1.423 . S
N436 Co426 1.974 . S
N436 C466 1.309 . S
O437 Cd419 2.352 . S
O437 C457 1.235 . S
O438 Cd418 2.329 . S
O438 C457 1.270 . S
C439 O440 1.270 . S
C439 O441 1.248 . S
O440 Cd418 2.350 . S
O440 C439 1.270 . S
O441 Cd418 2.277 . S
O441 C439 1.248 . S
C442 O443 1.277 . S
C442 O444 1.230 . S
O443 Cd418 2.173 . S
O443 C442 1.277 . S
O444 Cd419 2.250 . S
O444 C442 1.230 . S
C445 N427 1.329 . S
C445 C429 1.481 1_565 S
C445 O446 1.246 . S
O446 C445 1.246 . S
O447 Cd418 2.263 . S
O447 C459 1.258 1_565 S
O448 Cd419 2.308 1_545 S
O448 C459 1.274 . S
C449 C433 1.516 . S
C449 N434 1.324 . S
C449 O450 1.238 . S
O450 C449 1.238 . S
C451 N434 1.427 . S
C451 C452 1.394 . S
C451 C456 1.395 . S
C452 C451 1.394 . S
C452 C453 1.380 . S
C452 H480 0.929 . S
C453 C452 1.380 . S
C453 C454 1.384 . S
C453 C459 1.495 . S
C454 C453 1.384 . S
C454 C455 1.382 . S
C454 H481 0.930 . S
C455 C454 1.382 . S
C455 C456 1.398 . S
C456 C451 1.395 . S
C456 C455 1.398 . S
C456 H482 0.930 . S
C457 O437 1.235 . S
C457 O438 1.270 . S
O458 C411 1.263 . S
O458 Cd418 2.366 . S
C459 O447 1.258 1_545 S
C459 O448 1.274 . S
C459 C453 1.495 . S
C460 N427 1.432 . S
C460 C461 1.381 . S
C460 C465 1.385 . S
C461 C460 1.381 . S
C461 C462 1.371 . S
C461 H483 0.932 1_565 S
C462 C461 1.371 . S
C462 C463 1.400 . S
C463 C462 1.400 . S
C463 C464 1.351 . S
C463 H484 0.930 . S
C464 C463 1.351 . S
C464 C465 1.388 . S
C465 C460 1.385 . S
C465 C464 1.388 . S
C465 H485 0.929 . S
C466 C405 1.504 . S
C466 N436 1.309 . S
C466 O467 1.258 . S
O467 C466 1.258 . S
H468 C406 0.929 . S
H469 C407 0.932 1_565 S
H470 C408 0.931 . S
H471 C413 0.929 . S
H472 C415 0.929 . S
H473 C417 0.931 1_545 S
H474 C422 0.929 . S
H475 C424 0.932 . S
H476 C425 0.931 . S
H477 C430 0.930 . S
H478 C431 0.931 . S
H479 C432 0.930 . S
H480 C452 0.929 . S
H481 C454 0.930 . S
H482 C456 0.930 . S
H483 C461 0.932 1_545 S
H484 C463 0.930 . S
H485 C465 0.929 . S
C486 C487 1.359 . S
C486 N491 1.330 . S
C486 C547 1.504 . S
C487 C486 1.359 . S
C487 C488 1.366 . S
C487 H549 0.929 . S
C488 C487 1.366 . S
C488 C489 1.415 . S
C488 H550 0.932 . S
C489 C488 1.415 . S
C489 C490 1.366 . S
C489 H551 0.931 . S
C490 C489 1.366 . S
C490 N491 1.325 . S
C490 C492 1.516 . S
N491 C486 1.330 . S
N491 C490 1.325 . S
N491 Co507 1.869 . S
C492 C490 1.516 . S
C492 N516 1.316 . S
C492 O539 1.263 . S
C493 C494 1.421 . S
C493 C498 1.360 . S
C493 N516 1.436 . S
C494 C493 1.421 . S
C494 C495 1.379 . S
C494 H552 0.929 . S
C495 C494 1.379 . S
C495 C496 1.417 . S
C496 C495 1.417 . S
C496 C497 1.352 . S
C496 H553 0.929 . S
C497 C496 1.352 . S
C497 C498 1.393 . S
C498 C493 1.360 . S
C498 C497 1.393 . S
C498 H554 0.931 . S
Cd499 O519 2.329 . S
Cd499 O521 2.350 . S
Cd499 O522 2.277 . S
Cd499 O524 2.173 . S
Cd499 O528 2.263 . S
Cd499 O539 2.366 . S
Cd500 O518 2.352 . S
Cd500 O525 2.250 . S
Cd500 O529 2.308 . S
C501 C505 1.403 . S
C501 C506 1.370 . S
C501 N517 1.423 . S
C502 C503 1.389 . S
C502 C506 1.389 . S
C503 C502 1.389 . S
C503 C504 1.379 . S
C503 H555 0.929 . S
C504 C503 1.379 . S
C504 C505 1.405 . S
C505 C501 1.403 . S
C505 C504 1.405 . S
C505 H556 0.932 . S
C506 C501 1.370 . S
C506 C502 1.389 . S
C506 H557 0.931 . S
Co507 N491 1.869 . S
Co507 N508 1.955 . S
Co507 N509 1.864 . S
Co507 N515 1.958 . S
Co507 N516 1.953 . S
Co507 N517 1.974 . S
N508 Co507 1.955 . S
N508 C526 1.329 . S
N508 C541 1.432 . S
N509 Co507 1.864 . S
N509 C510 1.327 . S
N509 C514 1.342 . S
C510 N509 1.327 . S
C510 C511 1.407 . S
C510 C526 1.481 . S
C511 C510 1.407 . S
C511 C512 1.364 . S
C511 H558 0.930 . S
C512 C511 1.364 . S
C512 C513 1.390 . S
C512 H559 0.931 . S
C513 C512 1.390 . S
C513 C514 1.346 . S
C513 H560 0.930 . S
C514 N509 1.342 . S
C514 C513 1.346 . S
C514 C530 1.516 . S
N515 Co507 1.958 . S
N515 C530 1.324 . S
N515 C532 1.427 . S
N516 C492 1.316 . S
N516 C493 1.436 . S
N516 Co507 1.953 . S
N517 C501 1.423 . S
N517 Co507 1.974 . S
N517 C547 1.309 . S
O518 Cd500 2.352 . S
O518 C538 1.235 . S
O519 Cd499 2.329 . S
O519 C538 1.270 . S
C520 O521 1.270 . S
C520 O522 1.248 . S
O521 Cd499 2.350 . S
O521 C520 1.270 . S
O522 Cd499 2.277 . S
O522 C520 1.248 . S
C523 O524 1.277 . S
C523 O525 1.230 . S
O524 Cd499 2.173 . S
O524 C523 1.277 . S
O525 Cd500 2.250 . S
O525 C523 1.230 . S
C526 N508 1.329 . S
C526 C510 1.481 . S
C526 O527 1.246 . S
O527 C526 1.246 . S
O528 Cd499 2.263 . S
O528 C540 1.258 . S
O529 Cd500 2.308 . S
O529 C540 1.274 . S
C530 C514 1.516 . S
C530 N515 1.324 . S
C530 O531 1.238 . S
O531 C530 1.238 . S
C532 N515 1.427 . S
C532 C533 1.394 . S
C532 C537 1.395 . S
C533 C532 1.394 . S
C533 C534 1.380 . S
C533 H561 0.929 . S
C534 C533 1.380 . S
C534 C535 1.384 . S
C534 C540 1.495 . S
C535 C534 1.384 . S
C535 C536 1.382 . S
C535 H562 0.930 . S
C536 C535 1.382 . S
C536 C537 1.398 . S
C537 C532 1.395 . S
C537 C536 1.398 . S
C537 H563 0.930 . S
C538 O518 1.235 . S
C538 O519 1.270 . S
O539 C492 1.263 . S
O539 Cd499 2.366 . S
C540 O528 1.258 . S
C540 O529 1.274 . S
C540 C534 1.495 . S
C541 N508 1.432 . S
C541 C542 1.381 . S
C541 C546 1.385 . S
C542 C541 1.381 . S
C542 C543 1.371 . S
C542 H564 0.932 . S
C543 C542 1.371 . S
C543 C544 1.400 . S
C544 C543 1.400 . S
C544 C545 1.351 . S
C544 H565 0.930 . S
C545 C544 1.351 . S
C545 C546 1.388 . S
C546 C541 1.385 . S
C546 C545 1.388 . S
C546 H566 0.929 . S
C547 C486 1.504 . S
C547 N517 1.309 . S
C547 O548 1.258 . S
O548 C547 1.258 . S
H549 C487 0.929 . S
H550 C488 0.932 . S
H551 C489 0.931 . S
H552 C494 0.929 . S
H553 C496 0.929 . S
H554 C498 0.931 . S
H555 C503 0.929 . S
H556 C505 0.932 . S
H557 C506 0.931 . S
H558 C511 0.930 . S
H559 C512 0.931 . S
H560 C513 0.930 . S
H561 C533 0.929 . S
H562 C535 0.930 . S
H563 C537 0.930 . S
H564 C542 0.932 . S
H565 C544 0.930 . S
H566 C546 0.929 . S
C567 C568 1.359 . S
C567 N572 1.330 . S
C567 C628 1.504 . S
C568 C567 1.359 . S
C568 C569 1.366 . S
C568 H630 0.929 . S
C569 C568 1.366 . S
C569 C570 1.415 1_655 S
C569 H631 0.932 1_655 S
C570 C569 1.415 1_455 S
C570 C571 1.366 . S
C570 H632 0.931 . S
C571 C570 1.366 . S
C571 N572 1.325 1_455 S
C571 C573 1.516 . S
N572 C567 1.330 . S
N572 C571 1.325 1_655 S
N572 Co588 1.869 . S
C573 C571 1.516 . S
C573 N597 1.316 . S
C573 O620 1.263 . S
C574 C575 1.421 . S
C574 C579 1.360 . S
C574 N597 1.436 . S
C575 C574 1.421 . S
C575 C576 1.379 . S
C575 H633 0.929 . S
C576 C575 1.379 . S
C576 C577 1.417 . S
C577 C576 1.417 . S
C577 C578 1.352 . S
C577 H634 0.929 . S
C578 C577 1.352 . S
C578 C579 1.393 . S
C579 C574 1.360 . S
C579 C578 1.393 . S
C579 H635 0.931 1_455 S
Cd580 O600 2.329 1_556 S
Cd580 O602 2.350 . S
Cd580 O603 2.277 . S
Cd580 O605 2.173 . S
Cd580 O609 2.263 . S
Cd580 O620 2.366 . S
Cd581 O599 2.352 . S
Cd581 O606 2.324 . S
Cd581 O610 2.308 1_455 S
C582 C586 1.403 . S
C582 C587 1.370 . S
C582 N598 1.423 . S
C583 C584 1.389 . S
C583 C587 1.389 . S
C584 C583 1.389 . S
C584 C585 1.379 . S
C584 H636 0.929 . S
C585 C584 1.379 . S
C585 C586 1.405 . S
C586 C582 1.403 . S
C586 C585 1.405 . S
C586 H637 0.932 . S
C587 C582 1.370 . S
C587 C583 1.389 . S
C587 H638 0.931 . S
Co588 N572 1.869 . S
Co588 N589 1.955 1_655 S
Co588 N590 1.864 . S
Co588 N596 1.958 . S
Co588 N597 1.953 1_655 S
Co588 N598 1.974 . S
N589 Co588 1.955 1_455 S
N589 C607 1.329 . S
N589 C622 1.432 . S
N590 Co588 1.864 . S
N590 C591 1.327 . S
N590 C595 1.342 . S
C591 N590 1.327 . S
C591 C592 1.407 . S
C591 C607 1.481 1_655 S
C592 C591 1.407 . S
C592 C593 1.364 . S
C592 H639 0.930 . S
C593 C592 1.364 . S
C593 C594 1.390 . S
C593 H640 0.931 . S
C594 C593 1.390 . S
C594 C595 1.346 . S
C594 H641 0.930 . S
C595 N590 1.342 . S
C595 C594 1.346 . S
C595 C611 1.516 . S
N596 Co588 1.958 . S
N596 C611 1.324 . S
N596 C613 1.427 . S
N597 C573 1.316 . S
N597 C574 1.436 . S
N597 Co588 1.953 1_455 S
N598 C582 1.423 . S
N598 Co588 1.974 . S
N598 C628 1.309 . S
O599 Cd581 2.352 . S
O599 C619 1.235 . S
O600 Cd580 2.329 1_554 S
O600 C619 1.270 . S
C601 O602 1.270 . S
C601 O603 1.248 . S
O602 Cd580 2.350 . S
O602 C601 1.270 . S
O603 Cd580 2.277 . S
O603 C601 1.248 . S
C604 O605 1.277 . S
C604 O606 1.145 1_556 S
O605 Cd580 2.173 . S
O605 C604 1.277 . S
O606 Cd581 2.324 . S
O606 C604 1.145 1_554 S
C607 N589 1.329 . S
C607 C591 1.481 1_455 S
C607 O608 1.246 . S
O608 C607 1.246 . S
O609 Cd580 2.263 . S
O609 C621 1.258 1_455 S
O610 Cd581 2.308 1_655 S
O610 C621 1.274 1_554 S
C611 C595 1.516 . S
C611 N596 1.324 . S
C611 O612 1.238 . S
O612 C611 1.238 . S
C613 N596 1.427 . S
C613 C614 1.394 . S
C613 C618 1.395 . S
C614 C613 1.394 . S
C614 C615 1.380 . S
C614 H642 0.929 . S
C615 C614 1.380 . S
C615 C616 1.384 . S
C615 C621 1.495 . S
C616 C615 1.384 . S
C616 C617 1.382 . S
C616 H643 0.930 . S
C617 C616 1.382 . S
C617 C618 1.398 . S
C618 C613 1.395 . S
C618 C617 1.398 . S
C618 H644 0.930 . S
C619 O599 1.235 . S
C619 O600 1.270 . S
O620 C573 1.263 . S
O620 Cd580 2.366 . S
C621 O609 1.258 1_655 S
C621 O610 1.274 1_556 S
C621 C615 1.495 . S
C622 N589 1.432 . S
C622 C623 1.381 . S
C622 C627 1.385 . S
C623 C622 1.381 . S
C623 C624 1.371 . S
C623 H645 0.932 1_455 S
C624 C623 1.371 . S
C624 C625 1.400 . S
C625 C624 1.400 . S
C625 C626 1.351 . S
C625 H646 0.930 . S
C626 C625 1.351 . S
C626 C627 1.388 . S
C627 C622 1.385 . S
C627 C626 1.388 . S
C627 H647 0.929 . S
C628 C567 1.504 . S
C628 N598 1.309 . S
C628 O629 1.258 . S
O629 C628 1.258 . S
H630 C568 0.929 . S
H631 C569 0.932 1_455 S
H632 C570 0.931 . S
H633 C575 0.929 . S
H634 C577 0.929 . S
H635 C579 0.931 1_655 S
H636 C584 0.929 . S
H637 C586 0.932 . S
H638 C587 0.931 . S
H639 C592 0.930 . S
H640 C593 0.931 . S
H641 C594 0.930 . S
H642 C614 0.929 . S
H643 C616 0.930 . S
H644 C618 0.930 . S
H645 C623 0.932 1_655 S
H646 C625 0.930 . S
H647 C627 0.929 . S
C648 C649 1.359 . S
C648 N653 1.330 . S
C648 C709 1.504 . S
C649 C648 1.359 . S
C649 C650 1.366 . S
C649 H711 0.929 . S
C650 C649 1.366 . S
C650 C651 1.415 1_565 S
C650 H712 0.932 1_565 S
C651 C650 1.415 1_545 S
C651 C652 1.366 . S
C651 H713 0.931 . S
C652 C651 1.366 . S
C652 N653 1.325 1_545 S
C652 C654 1.516 . S
N653 C648 1.330 . S
N653 C652 1.325 1_565 S
N653 Co669 1.869 . S
C654 C652 1.516 . S
C654 N678 1.316 . S
C654 O701 1.263 . S
C655 C656 1.421 . S
C655 C660 1.360 . S
C655 N678 1.436 . S
C656 C655 1.421 . S
C656 C657 1.379 . S
C656 H714 0.929 . S
C657 C656 1.379 . S
C657 C658 1.417 . S
C658 C657 1.417 . S
C658 C659 1.352 . S
C658 H715 0.929 . S
C659 C658 1.352 . S
C659 C660 1.393 . S
C660 C655 1.360 . S
C660 C659 1.393 . S
C660 H716 0.931 1_545 S
Cd661 O681 2.329 . S
Cd661 O683 2.350 . S
Cd661 O684 2.277 . S
Cd661 O686 2.173 . S
Cd661 O690 2.263 . S
Cd661 O701 2.366 . S
Cd662 O680 2.352 . S
Cd662 O687 2.250 . S
Cd662 O691 2.308 1_545 S
C663 C667 1.403 . S
C663 C668 1.370 . S
C663 N679 1.423 . S
C664 C665 1.389 . S
C664 C668 1.389 . S
C665 C664 1.389 . S
C665 C666 1.379 . S
C665 H717 0.929 . S
C666 C665 1.379 . S
C666 C667 1.405 . S
C667 C663 1.403 . S
C667 C666 1.405 . S
C667 H718 0.932 . S
C668 C663 1.370 . S
C668 C664 1.389 . S
C668 H719 0.931 . S
Co669 N653 1.869 . S
Co669 N670 1.955 1_565 S
Co669 N671 1.864 . S
Co669 N677 1.958 . S
Co669 N678 1.953 1_565 S
Co669 N679 1.974 . S
N670 Co669 1.955 1_545 S
N670 C688 1.329 . S
N670 C703 1.432 . S
N671 Co669 1.864 . S
N671 C672 1.327 . S
N671 C676 1.342 . S
C672 N671 1.327 . S
C672 C673 1.407 . S
C672 C688 1.481 1_565 S
C673 C672 1.407 . S
C673 C674 1.364 . S
C673 H720 0.930 . S
C674 C673 1.364 . S
C674 C675 1.390 . S
C674 H721 0.931 . S
C675 C674 1.390 . S
C675 C676 1.346 . S
C675 H722 0.930 . S
C676 N671 1.342 . S
C676 C675 1.346 . S
C676 C692 1.516 . S
N677 Co669 1.958 . S
N677 C692 1.324 . S
N677 C694 1.427 . S
N678 C654 1.316 . S
N678 C655 1.436 . S
N678 Co669 1.953 1_545 S
N679 C663 1.423 . S
N679 Co669 1.974 . S
N679 C709 1.309 . S
O680 Cd662 2.352 . S
O680 C700 1.235 . S
O681 Cd661 2.329 . S
O681 C700 1.270 . S
C682 O683 1.270 . S
C682 O684 1.248 . S
O683 Cd661 2.350 . S
O683 C682 1.270 . S
O684 Cd661 2.277 . S
O684 C682 1.248 . S
C685 O686 1.277 . S
C685 O687 1.230 . S
O686 Cd661 2.173 . S
O686 C685 1.277 . S
O687 Cd662 2.250 . S
O687 C685 1.230 . S
C688 N670 1.329 . S
C688 C672 1.481 1_545 S
C688 O689 1.246 . S
O689 C688 1.246 . S
O690 Cd661 2.263 . S
O690 C702 1.258 1_545 S
O691 Cd662 2.308 1_565 S
O691 C702 1.274 . S
C692 C676 1.516 . S
C692 N677 1.324 . S
C692 O693 1.238 . S
O693 C692 1.238 . S
C694 N677 1.427 . S
C694 C695 1.394 . S
C694 C699 1.395 . S
C695 C694 1.394 . S
C695 C696 1.380 . S
C695 H723 0.929 . S
C696 C695 1.380 . S
C696 C697 1.384 . S
C696 C702 1.495 . S
C697 C696 1.384 . S
C697 C698 1.382 . S
C697 H724 0.930 . S
C698 C697 1.382 . S
C698 C699 1.398 . S
C699 C694 1.395 . S
C699 C698 1.398 . S
C699 H725 0.930 . S
C700 O680 1.235 . S
C700 O681 1.270 . S
O701 C654 1.263 . S
O701 Cd661 2.366 . S
C702 O690 1.258 1_565 S
C702 O691 1.274 . S
C702 C696 1.495 . S
C703 N670 1.432 . S
C703 C704 1.381 . S
C703 C708 1.385 . S
C704 C703 1.381 . S
C704 C705 1.371 . S
C704 H726 0.932 1_545 S
C705 C704 1.371 . S
C705 C706 1.400 . S
C706 C705 1.400 . S
C706 C707 1.351 . S
C706 H727 0.930 . S
C707 C706 1.351 . S
C707 C708 1.388 . S
C708 C703 1.385 . S
C708 C707 1.388 . S
C708 H728 0.929 . S
C709 C648 1.504 . S
C709 N679 1.309 . S
C709 O710 1.258 . S
O710 C709 1.258 . S
H711 C649 0.929 . S
H712 C650 0.932 1_545 S
H713 C651 0.931 . S
H714 C656 0.929 . S
H715 C658 0.929 . S
H716 C660 0.931 1_565 S
H717 C665 0.929 . S
H718 C667 0.932 . S
H719 C668 0.931 . S
H720 C673 0.930 . S
H721 C674 0.931 . S
H722 C675 0.930 . S
H723 C695 0.929 . S
H724 C697 0.930 . S
H725 C699 0.930 . S
H726 C704 0.932 1_565 S
H727 C706 0.930 . S
H728 C708 0.929 . S
C729 C730 1.359 . S
C729 N734 1.330 . S
C729 C790 1.504 . S
C730 C729 1.359 . S
C730 C731 1.366 . S
C730 H792 0.929 . S
C731 C730 1.366 . S
C731 C732 1.415 . S
C731 H793 0.932 . S
C732 C731 1.415 . S
C732 C733 1.366 . S
C732 H794 0.931 . S
C733 C732 1.366 . S
C733 N734 1.325 . S
C733 C735 1.516 . S
N734 C729 1.330 . S
N734 C733 1.325 . S
N734 Co750 1.869 . S
C735 C733 1.516 . S
C735 N759 1.316 . S
C735 O782 1.263 . S
C736 C737 1.421 . S
C736 C741 1.360 . S
C736 N759 1.436 . S
C737 C736 1.421 . S
C737 C738 1.379 . S
C737 H795 0.929 . S
C738 C737 1.379 . S
C738 C739 1.417 . S
C739 C738 1.417 . S
C739 C740 1.352 . S
C739 H796 0.929 . S
C740 C739 1.352 . S
C740 C741 1.393 . S
C741 C736 1.360 . S
C741 C740 1.393 . S
C741 H797 0.931 . S
Cd742 O762 2.329 . S
Cd742 O764 2.350 . S
Cd742 O765 2.277 . S
Cd742 O767 2.173 . S
Cd742 O771 2.263 . S
Cd742 O782 2.366 . S
Cd743 O761 2.352 . S
Cd743 O768 2.250 . S
Cd743 O772 2.308 . S
C744 C748 1.403 . S
C744 C749 1.370 . S
C744 N760 1.423 . S
C745 C746 1.389 . S
C745 C749 1.389 . S
C746 C745 1.389 . S
C746 C747 1.379 . S
C746 H798 0.929 . S
C747 C746 1.379 . S
C747 C748 1.405 . S
C748 C744 1.403 . S
C748 C747 1.405 . S
C748 H799 0.932 . S
C749 C744 1.370 . S
C749 C745 1.389 . S
C749 H800 0.931 . S
Co750 N734 1.869 . S
Co750 N751 1.955 . S
Co750 N752 1.864 . S
Co750 N758 1.958 . S
Co750 N759 1.953 . S
Co750 N760 1.974 . S
N751 Co750 1.955 . S
N751 C769 1.329 . S
N751 C784 1.432 . S
N752 Co750 1.864 . S
N752 C753 1.327 . S
N752 C757 1.342 . S
C753 N752 1.327 . S
C753 C754 1.407 . S
C753 C769 1.481 . S
C754 C753 1.407 . S
C754 C755 1.364 . S
C754 H801 0.930 . S
C755 C754 1.364 . S
C755 C756 1.390 . S
C755 H802 0.931 . S
C756 C755 1.390 . S
C756 C757 1.346 . S
C756 H803 0.930 . S
C757 N752 1.342 . S
C757 C756 1.346 . S
C757 C773 1.516 . S
N758 Co750 1.958 . S
N758 C773 1.324 . S
N758 C775 1.427 . S
N759 C735 1.316 . S
N759 C736 1.436 . S
N759 Co750 1.953 . S
N760 C744 1.423 . S
N760 Co750 1.974 . S
N760 C790 1.309 . S
O761 Cd743 2.352 . S
O761 C781 1.235 . S
O762 Cd742 2.329 . S
O762 C781 1.270 . S
C763 O764 1.270 . S
C763 O765 1.248 . S
O764 Cd742 2.350 . S
O764 C763 1.270 . S
O765 Cd742 2.277 . S
O765 C763 1.248 . S
C766 O767 1.277 . S
C766 O768 1.230 . S
O767 Cd742 2.173 . S
O767 C766 1.277 . S
O768 Cd743 2.250 . S
O768 C766 1.230 . S
C769 N751 1.329 . S
C769 C753 1.481 . S
C769 O770 1.246 . S
O770 C769 1.246 . S
O771 Cd742 2.263 . S
O771 C783 1.258 . S
O772 Cd743 2.308 . S
O772 C783 1.274 . S
C773 C757 1.516 . S
C773 N758 1.324 . S
C773 O774 1.238 . S
O774 C773 1.238 . S
C775 N758 1.427 . S
C775 C776 1.394 . S
C775 C780 1.395 . S
C776 C775 1.394 . S
C776 C777 1.380 . S
C776 H804 0.929 . S
C777 C776 1.380 . S
C777 C778 1.384 . S
C777 C783 1.495 . S
C778 C777 1.384 . S
C778 C779 1.382 . S
C778 H805 0.930 . S
C779 C778 1.382 . S
C779 C780 1.398 . S
C780 C775 1.395 . S
C780 C779 1.398 . S
C780 H806 0.930 . S
C781 O761 1.235 . S
C781 O762 1.270 . S
O782 C735 1.263 . S
O782 Cd742 2.366 . S
C783 O771 1.258 . S
C783 O772 1.274 . S
C783 C777 1.495 . S
C784 N751 1.432 . S
C784 C785 1.381 . S
C784 C789 1.385 . S
C785 C784 1.381 . S
C785 C786 1.371 . S
C785 H807 0.932 . S
C786 C785 1.371 . S
C786 C787 1.400 . S
C787 C786 1.400 . S
C787 C788 1.351 . S
C787 H808 0.930 . S
C788 C787 1.351 . S
C788 C789 1.388 . S
C789 C784 1.385 . S
C789 C788 1.388 . S
C789 H809 0.929 . S
C790 C729 1.504 . S
C790 N760 1.309 . S
C790 O791 1.258 . S
O791 C790 1.258 . S
H792 C730 0.929 . S
H793 C731 0.932 . S
H794 C732 0.931 . S
H795 C737 0.929 . S
H796 C739 0.929 . S
H797 C741 0.931 . S
H798 C746 0.929 . S
H799 C748 0.932 . S
H800 C749 0.931 . S
H801 C754 0.930 . S
H802 C755 0.931 . S
H803 C756 0.930 . S
H804 C776 0.929 . S
H805 C778 0.930 . S
H806 C780 0.930 . S
H807 C785 0.932 . S
H808 C787 0.930 . S
H809 C789 0.929 . S
C810 C811 1.359 . S
C810 N815 1.330 . S
C810 C871 1.504 . S
C811 C810 1.359 . S
C811 C812 1.366 . S
C811 H873 0.929 . S
C812 C811 1.366 . S
C812 C813 1.415 1_455 S
C812 H874 0.932 1_455 S
C813 C812 1.415 1_655 S
C813 C814 1.366 . S
C813 H875 0.931 . S
C814 C813 1.366 . S
C814 N815 1.325 1_655 S
C814 C816 1.516 . S
N815 C810 1.330 . S
N815 C814 1.325 1_455 S
N815 Co831 1.869 . S
C816 C814 1.516 . S
C816 N840 1.316 . S
C816 O863 1.263 . S
C817 C818 1.421 . S
C817 C822 1.360 . S
C817 N840 1.436 . S
C818 C817 1.421 . S
C818 C819 1.379 . S
C818 H876 0.929 . S
C819 C818 1.379 . S
C819 C820 1.417 . S
C820 C819 1.417 . S
C820 C821 1.352 . S
C820 H877 0.929 . S
C821 C820 1.352 . S
C821 C822 1.393 . S
C822 C817 1.360 . S
C822 C821 1.393 . S
C822 H878 0.931 1_655 S
Cd823 O843 2.329 . S
Cd823 O845 2.350 . S
Cd823 O846 2.277 . S
Cd823 O848 2.173 . S
Cd823 O852 2.263 . S
Cd823 O863 2.366 . S
Cd824 O842 2.352 . S
Cd824 O849 2.250 . S
Cd824 O853 2.308 1_655 S
C825 C829 1.403 . S
C825 C830 1.370 . S
C825 N841 1.423 . S
C826 C827 1.389 . S
C826 C830 1.389 . S
C827 C826 1.389 . S
C827 C828 1.379 . S
C827 H879 0.929 . S
C828 C827 1.379 . S
C828 C829 1.405 . S
C829 C825 1.403 . S
C829 C828 1.405 . S
C829 H880 0.932 . S
C830 C825 1.370 . S
C830 C826 1.389 . S
C830 H881 0.931 . S
Co831 N815 1.869 . S
Co831 N832 1.955 1_455 S
Co831 N833 1.864 . S
Co831 N839 1.958 . S
Co831 N840 1.953 1_455 S
Co831 N841 1.974 . S
N832 Co831 1.955 1_655 S
N832 C850 1.329 . S
N832 C865 1.432 . S
N833 Co831 1.864 . S
N833 C834 1.327 . S
N833 C838 1.342 . S
C834 N833 1.327 . S
C834 C835 1.407 . S
C834 C850 1.481 1_455 S
C835 C834 1.407 . S
C835 C836 1.364 . S
C835 H882 0.930 . S
C836 C835 1.364 . S
C836 C837 1.390 . S
C836 H883 0.931 . S
C837 C836 1.390 . S
C837 C838 1.346 . S
C837 H884 0.930 . S
C838 N833 1.342 . S
C838 C837 1.346 . S
C838 C854 1.516 . S
N839 Co831 1.958 . S
N839 C854 1.324 . S
N839 C856 1.427 . S
N840 C816 1.316 . S
N840 C817 1.436 . S
N840 Co831 1.953 1_655 S
N841 C825 1.423 . S
N841 Co831 1.974 . S
N841 C871 1.309 . S
O842 Cd824 2.352 . S
O842 C862 1.235 . S
O843 Cd823 2.329 . S
O843 C862 1.270 . S
C844 O845 1.270 . S
C844 O846 1.248 . S
O845 Cd823 2.350 . S
O845 C844 1.270 . S
O846 Cd823 2.277 . S
O846 C844 1.248 . S
C847 O848 1.277 . S
C847 O849 1.230 . S
O848 Cd823 2.173 . S
O848 C847 1.277 . S
O849 Cd824 2.250 . S
O849 C847 1.230 . S
C850 N832 1.329 . S
C850 C834 1.481 1_655 S
C850 O851 1.246 . S
O851 C850 1.246 . S
O852 Cd823 2.263 . S
O852 C864 1.258 1_655 S
O853 Cd824 2.308 1_455 S
O853 C864 1.274 . S
C854 C838 1.516 . S
C854 N839 1.324 . S
C854 O855 1.238 . S
O855 C854 1.238 . S
C856 N839 1.427 . S
C856 C857 1.394 . S
C856 C861 1.395 . S
C857 C856 1.394 . S
C857 C858 1.380 . S
C857 H885 0.929 . S
C858 C857 1.380 . S
C858 C859 1.384 . S
C858 C864 1.495 . S
C859 C858 1.384 . S
C859 C860 1.382 . S
C859 H886 0.930 . S
C860 C859 1.382 . S
C860 C861 1.398 . S
C861 C856 1.395 . S
C861 C860 1.398 . S
C861 H887 0.930 . S
C862 O842 1.235 . S
C862 O843 1.270 . S
O863 C816 1.263 . S
O863 Cd823 2.366 . S
C864 O852 1.258 1_455 S
C864 O853 1.274 . S
C864 C858 1.495 . S
C865 N832 1.432 . S
C865 C866 1.381 . S
C865 C870 1.385 . S
C866 C865 1.381 . S
C866 C867 1.371 . S
C866 H888 0.932 1_655 S
C867 C866 1.371 . S
C867 C868 1.400 . S
C868 C867 1.400 . S
C868 C869 1.351 . S
C868 H889 0.930 . S
C869 C868 1.351 . S
C869 C870 1.388 . S
C870 C865 1.385 . S
C870 C869 1.388 . S
C870 H890 0.929 . S
C871 C810 1.504 . S
C871 N841 1.309 . S
C871 O872 1.258 . S
O872 C871 1.258 . S
H873 C811 0.929 . S
H874 C812 0.932 1_655 S
H875 C813 0.931 . S
H876 C818 0.929 . S
H877 C820 0.929 . S
H878 C822 0.931 1_455 S
H879 C827 0.929 . S
H880 C829 0.932 . S
H881 C830 0.931 . S
H882 C835 0.930 . S
H883 C836 0.931 . S
H884 C837 0.930 . S
H885 C857 0.929 . S
H886 C859 0.930 . S
H887 C861 0.930 . S
H888 C866 0.932 1_455 S
H889 C868 0.930 . S
H890 C870 0.929 . S
C891 C892 1.359 . S
C891 N896 1.330 . S
C891 C952 1.504 . S
C892 C891 1.359 . S
C892 C893 1.366 . S
C892 H954 0.929 . S
C893 C892 1.366 . S
C893 C894 1.415 1_545 S
C893 H955 0.932 1_545 S
C894 C893 1.415 1_565 S
C894 C895 1.366 . S
C894 H956 0.931 . S
C895 C894 1.366 . S
C895 N896 1.325 1_565 S
C895 C897 1.516 . S
N896 C891 1.330 . S
N896 C895 1.325 1_545 S
N896 Co912 1.869 . S
C897 C895 1.516 . S
C897 N921 1.316 . S
C897 O944 1.263 . S
C898 C899 1.421 . S
C898 C903 1.360 . S
C898 N921 1.436 . S
C899 C898 1.421 . S
C899 C900 1.379 . S
C899 H957 0.929 . S
C900 C899 1.379 . S
C900 C901 1.417 . S
C901 C900 1.417 . S
C901 C902 1.352 . S
C901 H958 0.929 . S
C902 C901 1.352 . S
C902 C903 1.393 . S
C903 C898 1.360 . S
C903 C902 1.393 . S
C903 H959 0.931 1_565 S
Cd904 O924 2.329 . S
Cd904 O926 2.350 . S
Cd904 O927 2.277 . S
Cd904 O929 2.173 . S
Cd904 O933 2.263 . S
Cd904 O944 2.366 . S
Cd905 O923 2.352 . S
Cd905 O930 2.250 . S
Cd905 O934 2.308 1_565 S
C906 C910 1.403 . S
C906 C911 1.370 . S
C906 N922 1.423 . S
C907 C908 1.389 . S
C907 C911 1.389 . S
C908 C907 1.389 . S
C908 C909 1.379 . S
C908 H960 0.929 . S
C909 C908 1.379 . S
C909 C910 1.405 . S
C910 C906 1.403 . S
C910 C909 1.405 . S
C910 H961 0.932 . S
C911 C906 1.370 . S
C911 C907 1.389 . S
C911 H962 0.931 . S
Co912 N896 1.869 . S
Co912 N913 1.955 1_545 S
Co912 N914 1.864 . S
Co912 N920 1.958 . S
Co912 N921 1.953 1_545 S
Co912 N922 1.974 . S
N913 Co912 1.955 1_565 S
N913 C931 1.329 . S
N913 C946 1.432 . S
N914 Co912 1.864 . S
N914 C915 1.327 . S
N914 C919 1.342 . S
C915 N914 1.327 . S
C915 C916 1.407 . S
C915 C931 1.481 1_545 S
C916 C915 1.407 . S
C916 C917 1.364 . S
C916 H963 0.930 . S
C917 C916 1.364 . S
C917 C918 1.390 . S
C917 H964 0.931 . S
C918 C917 1.390 . S
C918 C919 1.346 . S
C918 H965 0.930 . S
C919 N914 1.342 . S
C919 C918 1.346 . S
C919 C935 1.516 . S
N920 Co912 1.958 . S
N920 C935 1.324 . S
N920 C937 1.427 . S
N921 C897 1.316 . S
N921 C898 1.436 . S
N921 Co912 1.953 1_565 S
N922 C906 1.423 . S
N922 Co912 1.974 . S
N922 C952 1.309 . S
O923 Cd905 2.352 . S
O923 C943 1.235 . S
O924 Cd904 2.329 . S
O924 C943 1.270 . S
C925 O926 1.270 . S
C925 O927 1.248 . S
O926 Cd904 2.350 . S
O926 C925 1.270 . S
O927 Cd904 2.277 . S
O927 C925 1.248 . S
C928 O929 1.277 . S
C928 O930 1.230 . S
O929 Cd904 2.173 . S
O929 C928 1.277 . S
O930 Cd905 2.250 . S
O930 C928 1.230 . S
C931 N913 1.329 . S
C931 C915 1.481 1_565 S
C931 O932 1.246 . S
O932 C931 1.246 . S
O933 Cd904 2.263 . S
O933 C945 1.258 1_565 S
O934 Cd905 2.308 1_545 S
O934 C945 1.274 . S
C935 C919 1.516 . S
C935 N920 1.324 . S
C935 O936 1.238 . S
O936 C935 1.238 . S
C937 N920 1.427 . S
C937 C938 1.394 . S
C937 C942 1.395 . S
C938 C937 1.394 . S
C938 C939 1.380 . S
C938 H966 0.929 . S
C939 C938 1.380 . S
C939 C940 1.384 . S
C939 C945 1.495 . S
C940 C939 1.384 . S
C940 C941 1.382 . S
C940 H967 0.930 . S
C941 C940 1.382 . S
C941 C942 1.398 . S
C942 C937 1.395 . S
C942 C941 1.398 . S
C942 H968 0.930 . S
C943 O923 1.235 . S
C943 O924 1.270 . S
O944 C897 1.263 . S
O944 Cd904 2.366 . S
C945 O933 1.258 1_545 S
C945 O934 1.274 . S
C945 C939 1.495 . S
C946 N913 1.432 . S
C946 C947 1.381 . S
C946 C951 1.385 . S
C947 C946 1.381 . S
C947 C948 1.371 . S
C947 H969 0.932 1_565 S
C948 C947 1.371 . S
C948 C949 1.400 . S
C949 C948 1.400 . S
C949 C950 1.351 . S
C949 H970 0.930 . S
C950 C949 1.351 . S
C950 C951 1.388 . S
C951 C946 1.385 . S
C951 C950 1.388 . S
C951 H971 0.929 . S
C952 C891 1.504 . S
C952 N922 1.309 . S
C952 O953 1.258 . S
O953 C952 1.258 . S
H954 C892 0.929 . S
H955 C893 0.932 1_565 S
H956 C894 0.931 . S
H957 C899 0.929 . S
H958 C901 0.929 . S
H959 C903 0.931 1_545 S
H960 C908 0.929 . S
H961 C910 0.932 . S
H962 C911 0.931 . S
H963 C916 0.930 . S
H964 C917 0.931 . S
H965 C918 0.930 . S
H966 C938 0.929 . S
H967 C940 0.930 . S
H968 C942 0.930 . S
H969 C947 0.932 1_545 S
H970 C949 0.930 . S
H971 C951 0.929 . S
C972 C973 1.391 . S
C972 C974 1.394 . S
C972 H988 0.931 . S
C973 C972 1.391 . S
C973 C977 1.376 . S
C974 C972 1.394 . S
C974 C975 1.369 . S
C974 C978 1.531 . S
C975 C974 1.369 . S
C975 C976 1.410 . S
C975 C983 1.503 . S
C976 C975 1.410 . S
C976 C977 1.392 . S
C976 C979 1.511 . S
C977 C973 1.376 . S
C977 C976 1.392 . S
C977 H989 0.929 . S
C978 C974 1.531 . S
C978 H990 0.960 . S
C978 H991 0.962 . S
C978 H992 0.960 . S
C979 C976 1.511 . S
C979 H993 0.961 . S
C979 H994 0.961 . S
C979 H995 0.961 . S
C980 C981 1.370 . S
C980 C982 1.363 . S
C980 H996 0.931 . S
C981 C980 1.370 . S
C981 C985 1.408 . S
C982 C980 1.363 . S
C982 C983 1.370 . S
C982 C986 1.524 . S
C983 C975 1.503 . S
C983 C982 1.370 . S
C983 C984 1.403 . S
C984 C983 1.403 . S
C984 C985 1.404 . S
C984 C987 1.539 . S
C985 C981 1.408 . S
C985 C984 1.404 . S
C985 H997 0.930 . S
C986 C982 1.524 . S
C986 H998 0.956 . S
C986 H999 0.961 . S
C986 H1000 0.961 . S
C987 C984 1.539 . S
C987 H1001 0.958 . S
C987 H1002 0.961 . S
C987 H1003 0.960 . S
H988 C972 0.931 . S
H989 C977 0.929 . S
H990 C978 0.960 . S
H991 C978 0.962 . S
H992 C978 0.960 . S
H993 C979 0.961 . S
H994 C979 0.961 . S
H995 C979 0.961 . S
H996 C980 0.931 . S
H997 C985 0.930 . S
H998 C986 0.956 . S
H999 C986 0.961 . S
H1000 C986 0.961 . S
H1001 C987 0.958 . S
H1002 C987 0.961 . S
H1003 C987 0.960 . S
C1004 C1005 1.391 . S
C1004 C1006 1.394 . S
C1004 H1020 0.931 . S
C1005 C1004 1.391 . S
C1005 C1009 1.376 . S
C1006 C1004 1.394 . S
C1006 C1007 1.369 . S
C1006 C1010 1.531 . S
C1007 C1006 1.369 . S
C1007 C1008 1.410 . S
C1007 C1015 1.503 . S
C1008 C1007 1.410 . S
C1008 C1009 1.392 . S
C1008 C1011 1.511 . S
C1009 C1005 1.376 . S
C1009 C1008 1.392 . S
C1009 H1021 0.929 . S
C1010 C1006 1.531 . S
C1010 H1022 0.960 . S
C1010 H1023 0.962 . S
C1010 H1024 0.960 . S
C1011 C1008 1.511 . S
C1011 H1025 0.961 . S
C1011 H1026 0.961 . S
C1011 H1027 0.961 . S
C1012 C1013 1.370 . S
C1012 C1014 1.363 . S
C1012 H1028 0.931 . S
C1013 C1012 1.370 . S
C1013 C1017 1.408 . S
C1014 C1012 1.363 . S
C1014 C1015 1.370 . S
C1014 C1018 1.524 . S
C1015 C1007 1.503 . S
C1015 C1014 1.370 . S
C1015 C1016 1.403 . S
C1016 C1015 1.403 . S
C1016 C1017 1.404 . S
C1016 C1019 1.539 . S
C1017 C1013 1.408 . S
C1017 C1016 1.404 . S
C1017 H1029 0.930 . S
C1018 C1014 1.524 . S
C1018 H1030 0.956 . S
C1018 H1031 0.961 . S
C1018 H1032 0.961 . S
C1019 C1016 1.539 . S
C1019 H1033 0.958 . S
C1019 H1034 0.961 . S
C1019 H1035 0.960 . S
H1020 C1004 0.931 . S
H1021 C1009 0.929 . S
H1022 C1010 0.960 . S
H1023 C1010 0.962 . S
H1024 C1010 0.960 . S
H1025 C1011 0.961 . S
H1026 C1011 0.961 . S
H1027 C1011 0.961 . S
H1028 C1012 0.931 . S
H1029 C1017 0.930 . S
H1030 C1018 0.956 . S
H1031 C1018 0.961 . S
H1032 C1018 0.961 . S
H1033 C1019 0.958 . S
H1034 C1019 0.961 . S
H1035 C1019 0.960 . S
C1036 C1037 1.391 . S
C1036 C1038 1.394 . S
C1036 H1052 0.931 . S
C1037 C1036 1.391 . S
C1037 C1041 1.376 . S
C1038 C1036 1.394 . S
C1038 C1039 1.369 . S
C1038 C1042 1.531 . S
C1039 C1038 1.369 . S
C1039 C1040 1.410 . S
C1039 C1047 1.503 . S
C1040 C1039 1.410 . S
C1040 C1041 1.392 . S
C1040 C1043 1.511 . S
C1041 C1037 1.376 . S
C1041 C1040 1.392 . S
C1041 H1053 0.929 . S
C1042 C1038 1.531 . S
C1042 H1054 0.960 . S
C1042 H1055 0.962 . S
C1042 H1056 0.960 . S
C1043 C1040 1.511 . S
C1043 H1057 0.961 . S
C1043 H1058 0.961 . S
C1043 H1059 0.961 . S
C1044 C1045 1.370 . S
C1044 C1046 1.363 . S
C1044 H1060 0.931 . S
C1045 C1044 1.370 . S
C1045 C1049 1.408 . S
C1046 C1044 1.363 . S
C1046 C1047 1.370 . S
C1046 C1050 1.524 . S
C1047 C1039 1.503 . S
C1047 C1046 1.370 . S
C1047 C1048 1.403 . S
C1048 C1047 1.403 . S
C1048 C1049 1.404 . S
C1048 C1051 1.539 . S
C1049 C1045 1.408 . S
C1049 C1048 1.404 . S
C1049 H1061 0.930 . S
C1050 C1046 1.524 . S
C1050 H1062 0.956 . S
C1050 H1063 0.961 . S
C1050 H1064 0.961 . S
C1051 C1048 1.539 . S
C1051 H1065 0.958 . S
C1051 H1066 0.961 . S
C1051 H1067 0.960 . S
H1052 C1036 0.931 . S
H1053 C1041 0.929 . S
H1054 C1042 0.960 . S
H1055 C1042 0.962 . S
H1056 C1042 0.960 . S
H1057 C1043 0.961 . S
H1058 C1043 0.961 . S
H1059 C1043 0.961 . S
H1060 C1044 0.931 . S
H1061 C1049 0.930 . S
H1062 C1050 0.956 . S
H1063 C1050 0.961 . S
H1064 C1050 0.961 . S
H1065 C1051 0.958 . S
H1066 C1051 0.961 . S
H1067 C1051 0.960 . S
C1068 C1069 1.391 . S
C1068 C1070 1.394 . S
C1068 H1084 0.931 . S
C1069 C1068 1.391 . S
C1069 C1073 1.376 . S
C1070 C1068 1.394 . S
C1070 C1071 1.369 . S
C1070 C1074 1.531 . S
C1071 C1070 1.369 . S
C1071 C1072 1.410 . S
C1071 C1079 1.503 . S
C1072 C1071 1.410 . S
C1072 C1073 1.392 . S
C1072 C1075 1.511 . S
C1073 C1069 1.376 . S
C1073 C1072 1.392 . S
C1073 H1085 0.929 . S
C1074 C1070 1.531 . S
C1074 H1086 0.960 . S
C1074 H1087 0.962 . S
C1074 H1088 0.960 . S
C1075 C1072 1.511 . S
C1075 H1089 0.961 . S
C1075 H1090 0.961 . S
C1075 H1091 0.961 . S
C1076 C1077 1.370 . S
C1076 C1078 1.363 . S
C1076 H1092 0.931 . S
C1077 C1076 1.370 . S
C1077 C1081 1.408 . S
C1078 C1076 1.363 . S
C1078 C1079 1.370 . S
C1078 C1082 1.524 . S
C1079 C1071 1.503 . S
C1079 C1078 1.370 . S
C1079 C1080 1.403 . S
C1080 C1079 1.403 . S
C1080 C1081 1.404 . S
C1080 C1083 1.539 . S
C1081 C1077 1.408 . S
C1081 C1080 1.404 . S
C1081 H1093 0.930 . S
C1082 C1078 1.524 . S
C1082 H1094 0.956 . S
C1082 H1095 0.961 . S
C1082 H1096 0.961 . S
C1083 C1080 1.539 . S
C1083 H1097 0.958 . S
C1083 H1098 0.961 . S
C1083 H1099 0.960 . S
H1084 C1068 0.931 . S
H1085 C1073 0.929 . S
H1086 C1074 0.960 . S
H1087 C1074 0.962 . S
H1088 C1074 0.960 . S
H1089 C1075 0.961 . S
H1090 C1075 0.961 . S
H1091 C1075 0.961 . S
H1092 C1076 0.931 . S
H1093 C1081 0.930 . S
H1094 C1082 0.956 . S
H1095 C1082 0.961 . S
H1096 C1082 0.961 . S
H1097 C1083 0.958 . S
H1098 C1083 0.961 . S
H1099 C1083 0.960 . S
C1100 C1101 1.391 . S
C1100 C1102 1.394 . S
C1100 H1116 0.931 . S
C1101 C1100 1.391 . S
C1101 C1105 1.376 . S
C1102 C1100 1.394 . S
C1102 C1103 1.369 . S
C1102 C1106 1.531 . S
C1103 C1102 1.369 . S
C1103 C1104 1.410 . S
C1103 C1111 1.503 . S
C1104 C1103 1.410 . S
C1104 C1105 1.392 . S
C1104 C1107 1.511 . S
C1105 C1101 1.376 . S
C1105 C1104 1.392 . S
C1105 H1117 0.929 . S
C1106 C1102 1.531 . S
C1106 H1118 0.960 . S
C1106 H1119 0.962 . S
C1106 H1120 0.960 . S
C1107 C1104 1.511 . S
C1107 H1121 0.961 . S
C1107 H1122 0.961 . S
C1107 H1123 0.961 . S
C1108 C1109 1.370 . S
C1108 C1110 1.363 . S
C1108 H1124 0.931 . S
C1109 C1108 1.370 . S
C1109 C1113 1.408 . S
C1110 C1108 1.363 . S
C1110 C1111 1.370 . S
C1110 C1114 1.524 . S
C1111 C1103 1.503 . S
C1111 C1110 1.370 . S
C1111 C1112 1.403 . S
C1112 C1111 1.403 . S
C1112 C1113 1.404 . S
C1112 C1115 1.539 . S
C1113 C1109 1.408 . S
C1113 C1112 1.404 . S
C1113 H1125 0.930 . S
C1114 C1110 1.524 . S
C1114 H1126 0.956 . S
C1114 H1127 0.961 . S
C1114 H1128 0.961 . S
C1115 C1112 1.539 . S
C1115 H1129 0.958 . S
C1115 H1130 0.961 . S
C1115 H1131 0.960 . S
H1116 C1100 0.931 . S
H1117 C1105 0.929 . S
H1118 C1106 0.960 . S
H1119 C1106 0.962 . S
H1120 C1106 0.960 . S
H1121 C1107 0.961 . S
H1122 C1107 0.961 . S
H1123 C1107 0.961 . S
H1124 C1108 0.931 . S
H1125 C1113 0.930 . S
H1126 C1114 0.956 . S
H1127 C1114 0.961 . S
H1128 C1114 0.961 . S
H1129 C1115 0.958 . S
H1130 C1115 0.961 . S
H1131 C1115 0.960 . S
C1132 C1133 1.391 . S
C1132 C1134 1.394 . S
C1132 H1148 0.931 . S
C1133 C1132 1.391 . S
C1133 C1137 1.376 . S
C1134 C1132 1.394 . S
C1134 C1135 1.369 . S
C1134 C1138 1.531 . S
C1135 C1134 1.369 . S
C1135 C1136 1.410 . S
C1135 C1143 1.503 . S
C1136 C1135 1.410 . S
C1136 C1137 1.392 . S
C1136 C1139 1.511 . S
C1137 C1133 1.376 . S
C1137 C1136 1.392 . S
C1137 H1149 0.929 . S
C1138 C1134 1.531 . S
C1138 H1150 0.960 . S
C1138 H1151 0.962 . S
C1138 H1152 0.960 . S
C1139 C1136 1.511 . S
C1139 H1153 0.961 . S
C1139 H1154 0.961 . S
C1139 H1155 0.961 . S
C1140 C1141 1.370 . S
C1140 C1142 1.363 . S
C1140 H1156 0.931 . S
C1141 C1140 1.370 . S
C1141 C1145 1.408 . S
C1142 C1140 1.363 . S
C1142 C1143 1.370 . S
C1142 C1146 1.524 . S
C1143 C1135 1.503 . S
C1143 C1142 1.370 . S
C1143 C1144 1.403 . S
C1144 C1143 1.403 . S
C1144 C1145 1.404 . S
C1144 C1147 1.539 . S
C1145 C1141 1.408 . S
C1145 C1144 1.404 . S
C1145 H1157 0.930 . S
C1146 C1142 1.524 . S
C1146 H1158 0.956 . S
C1146 H1159 0.961 . S
C1146 H1160 0.961 . S
C1147 C1144 1.539 . S
C1147 H1161 0.958 . S
C1147 H1162 0.961 . S
C1147 H1163 0.960 . S
H1148 C1132 0.931 . S
H1149 C1137 0.929 . S
H1150 C1138 0.960 . S
H1151 C1138 0.962 . S
H1152 C1138 0.960 . S
H1153 C1139 0.961 . S
H1154 C1139 0.961 . S
H1155 C1139 0.961 . S
H1156 C1140 0.931 . S
H1157 C1145 0.930 . S
H1158 C1146 0.956 . S
H1159 C1146 0.961 . S
H1160 C1146 0.961 . S
H1161 C1147 0.958 . S
H1162 C1147 0.961 . S
H1163 C1147 0.960 . S
C1164 C1165 1.391 . S
C1164 C1166 1.408 . S
C1164 H1180 0.950 . S
C1165 C1164 1.391 . S
C1165 C1169 1.376 . S
C1166 C1164 1.408 . S
C1166 C1167 1.390 . S
C1166 C1170 1.503 1_556 S
C1167 C1166 1.390 . S
C1167 C1168 1.410 . S
C1167 C1175 1.508 1_565 S
C1168 C1167 1.410 . S
C1168 C1169 1.392 . S
C1168 C1171 1.511 . S
C1169 C1165 1.376 . S
C1169 C1168 1.392 . S
C1169 H1181 0.929 . S
C1170 C1166 1.503 1_554 S
C1170 H1182 0.996 . S
C1170 H1183 0.962 . S
C1170 H1184 0.960 . S
C1171 C1168 1.511 . S
C1171 H1185 0.961 . S
C1171 H1186 0.961 1_565 S
C1171 H1187 0.961 . S
C1172 C1173 1.370 . S
C1172 C1174 1.363 . S
C1172 H1188 0.931 . S
C1173 C1172 1.370 . S
C1173 C1177 1.408 1_554 S
C1174 C1172 1.363 . S
C1174 C1175 1.353 1_554 S
C1174 C1178 1.524 . S
C1175 C1167 1.508 1_545 S
C1175 C1174 1.353 1_556 S
C1175 C1176 1.415 . S
C1176 C1175 1.415 . S
C1176 C1177 1.404 . S
C1176 C1179 1.539 . S
C1177 C1173 1.408 1_556 S
C1177 C1176 1.404 . S
C1177 H1189 0.930 . S
C1178 C1174 1.524 . S
C1178 H1190 0.956 1_545 S
C1178 H1191 0.961 1_545 S
C1178 H1192 0.961 . S
C1179 C1176 1.539 . S
C1179 H1193 0.958 . S
C1179 H1194 0.961 . S
C1179 H1195 0.960 . S
H1180 C1164 0.950 . S
H1181 C1169 0.929 . S
H1182 C1170 0.996 . S
H1183 C1170 0.962 . S
H1184 C1170 0.960 . S
H1185 C1171 0.961 . S
H1186 C1171 0.961 1_545 S
H1187 C1171 0.961 . S
H1188 C1172 0.931 . S
H1189 C1177 0.930 . S
H1190 C1178 0.956 1_565 S
H1191 C1178 0.961 1_565 S
H1192 C1178 0.961 . S
H1193 C1179 0.958 . S
H1194 C1179 0.961 . S
H1195 C1179 0.960 . S
C1196 C1197 1.391 . S
C1196 C1198 1.394 . S
C1196 H1212 0.931 . S
C1197 C1196 1.391 . S
C1197 C1201 1.376 . S
C1198 C1196 1.394 . S
C1198 C1199 1.369 . S
C1198 C1202 1.531 . S
C1199 C1198 1.369 . S
C1199 C1200 1.410 . S
C1199 C1207 1.503 . S
C1200 C1199 1.410 . S
C1200 C1201 1.392 . S
C1200 C1203 1.511 . S
C1201 C1197 1.376 . S
C1201 C1200 1.392 . S
C1201 H1213 0.929 . S
C1202 C1198 1.531 . S
C1202 H1214 0.960 . S
C1202 H1215 0.962 . S
C1202 H1216 0.960 . S
C1203 C1200 1.511 . S
C1203 H1217 0.961 . S
C1203 H1218 0.961 . S
C1203 H1219 0.961 . S
C1204 C1205 1.370 . S
C1204 C1206 1.363 . S
C1204 H1220 0.931 . S
C1205 C1204 1.370 . S
C1205 C1209 1.408 . S
C1206 C1204 1.363 . S
C1206 C1207 1.370 . S
C1206 C1210 1.524 . S
C1207 C1199 1.503 . S
C1207 C1206 1.370 . S
C1207 C1208 1.403 . S
C1208 C1207 1.403 . S
C1208 C1209 1.404 . S
C1208 C1211 1.539 . S
C1209 C1205 1.408 . S
C1209 C1208 1.404 . S
C1209 H1221 0.930 . S
C1210 C1206 1.524 . S
C1210 H1222 0.956 . S
C1210 H1223 0.961 . S
C1210 H1224 0.961 . S
C1211 C1208 1.539 . S
C1211 H1225 0.958 . S
C1211 H1226 0.961 . S
C1211 H1227 0.960 . S
H1212 C1196 0.931 . S
H1213 C1201 0.929 . S
H1214 C1202 0.960 . S
H1215 C1202 0.962 . S
H1216 C1202 0.960 . S
H1217 C1203 0.961 . S
H1218 C1203 0.961 . S
H1219 C1203 0.961 . S
H1220 C1204 0.931 . S
H1221 C1209 0.930 . S
H1222 C1210 0.956 . S
H1223 C1210 0.961 . S
H1224 C1210 0.961 . S
H1225 C1211 0.958 . S
H1226 C1211 0.961 . S
H1227 C1211 0.960 . S
C1228 C1229 1.391 . S
C1228 C1230 1.394 . S
C1228 H1244 0.931 . S
C1229 C1228 1.391 . S
C1229 C1233 1.376 . S
C1230 C1228 1.394 . S
C1230 C1231 1.369 . S
C1230 C1234 1.531 . S
C1231 C1230 1.369 . S
C1231 C1232 1.410 . S
C1231 C1239 1.503 1_455 S
C1232 C1231 1.410 . S
C1232 C1233 1.392 . S
C1232 C1235 1.511 . S
C1233 C1229 1.376 . S
C1233 C1232 1.392 . S
C1233 H1245 0.929 . S
C1234 C1230 1.531 . S
C1234 H1246 0.960 1_455 S
C1234 H1247 0.962 1_455 S
C1234 H1248 0.960 . S
C1235 C1232 1.511 . S
C1235 H1249 0.961 . S
C1235 H1250 0.961 . S
C1235 H1251 0.961 . S
C1236 C1237 1.370 . S
C1236 C1238 1.363 . S
C1236 H1252 0.931 . S
C1237 C1236 1.370 . S
C1237 C1241 1.408 . S
C1238 C1236 1.363 . S
C1238 C1239 1.370 . S
C1238 C1242 1.524 . S
C1239 C1231 1.503 1_655 S
C1239 C1238 1.370 . S
C1239 C1240 1.403 . S
C1240 C1239 1.403 . S
C1240 C1241 1.404 . S
C1240 C1243 1.539 . S
C1241 C1237 1.408 . S
C1241 C1240 1.404 . S
C1241 H1253 0.930 . S
C1242 C1238 1.524 . S
C1242 H1254 0.956 . S
C1242 H1255 0.961 1_655 S
C1242 H1256 0.961 . S
C1243 C1240 1.539 . S
C1243 H1257 0.958 . S
C1243 H1258 0.961 . S
C1243 H1259 0.964 . S
H1244 C1228 0.931 . S
H1245 C1233 0.929 . S
H1246 C1234 0.960 1_655 S
H1247 C1234 0.962 1_655 S
H1248 C1234 0.960 . S
H1249 C1235 0.961 . S
H1250 C1235 0.961 . S
H1251 C1235 0.961 . S
H1252 C1236 0.931 . S
H1253 C1241 0.930 . S
H1254 C1242 0.956 . S
H1255 C1242 0.961 1_455 S
H1256 C1242 0.961 . S
H1257 C1243 0.958 . S
H1258 C1243 0.961 . S
H1259 C1243 0.964 . S
C1260 C1261 1.391 . S
C1260 C1262 1.394 . S
C1260 H1276 0.931 . S
C1261 C1260 1.391 . S
C1261 C1265 1.376 . S
C1262 C1260 1.394 . S
C1262 C1263 1.369 . S
C1262 C1266 1.531 . S
C1263 C1262 1.369 . S
C1263 C1264 1.410 . S
C1263 C1271 1.503 1_565 S
C1264 C1263 1.410 . S
C1264 C1265 1.392 . S
C1264 C1267 1.511 . S
C1265 C1261 1.376 . S
C1265 C1264 1.392 . S
C1265 H1277 0.929 . S
C1266 C1262 1.531 . S
C1266 H1278 0.958 1_565 S
C1266 H1279 0.962 . S
C1266 H1280 0.960 . S
C1267 C1264 1.511 . S
C1267 H1281 0.961 . S
C1267 H1282 0.961 1_565 S
C1267 H1283 0.961 . S
C1268 C1269 1.370 . S
C1268 C1270 1.363 . S
C1268 H1284 0.931 . S
C1269 C1268 1.370 . S
C1269 C1273 1.408 . S
C1270 C1268 1.363 . S
C1270 C1271 1.370 . S
C1270 C1274 1.524 . S
C1271 C1263 1.503 1_545 S
C1271 C1270 1.370 . S
C1271 C1272 1.403 . S
C1272 C1271 1.403 . S
C1272 C1273 1.404 . S
C1272 C1275 1.539 . S
C1273 C1269 1.408 . S
C1273 C1272 1.404 . S
C1273 H1285 0.930 . S
C1274 C1270 1.524 . S
C1274 H1286 0.956 . S
C1274 H1287 0.961 . S
C1274 H1288 0.961 . S
C1275 C1272 1.539 . S
C1275 H1289 0.958 . S
C1275 H1290 0.961 . S
C1275 H1291 0.960 1_545 S
H1276 C1260 0.931 . S
H1277 C1265 0.929 . S
H1278 C1266 0.958 1_545 S
H1279 C1266 0.962 . S
H1280 C1266 0.960 . S
H1281 C1267 0.961 . S
H1282 C1267 0.961 1_545 S
H1283 C1267 0.961 . S
H1284 C1268 0.931 . S
H1285 C1273 0.930 . S
H1286 C1274 0.956 . S
H1287 C1274 0.961 . S
H1288 C1274 0.961 . S
H1289 C1275 0.958 . S
H1290 C1275 0.961 . S
H1291 C1275 0.960 1_565 S
C1292 C1293 1.391 . S
C1292 C1294 1.394 . S
C1292 H1308 0.931 . S
C1293 C1292 1.391 . S
C1293 C1297 1.376 . S
C1294 C1292 1.394 . S
C1294 C1295 1.369 . S
C1294 C1298 1.531 . S
C1295 C1294 1.369 . S
C1295 C1296 1.410 . S
C1295 C1303 1.503 . S
C1296 C1295 1.410 . S
C1296 C1297 1.392 . S
C1296 C1299 1.511 . S
C1297 C1293 1.376 . S
C1297 C1296 1.392 . S
C1297 H1309 0.929 . S
C1298 C1294 1.531 . S
C1298 H1310 0.960 . S
C1298 H1311 0.962 . S
C1298 H1312 0.960 . S
C1299 C1296 1.511 . S
C1299 H1313 0.961 . S
C1299 H1314 0.961 . S
C1299 H1315 0.961 . S
C1300 C1301 1.370 . S
C1300 C1302 1.363 . S
C1300 H1316 0.931 . S
C1301 C1300 1.370 . S
C1301 C1305 1.408 . S
C1302 C1300 1.363 . S
C1302 C1303 1.370 . S
C1302 C1306 1.524 . S
C1303 C1295 1.503 . S
C1303 C1302 1.370 . S
C1303 C1304 1.403 . S
C1304 C1303 1.403 . S
C1304 C1305 1.404 . S
C1304 C1307 1.539 . S
C1305 C1301 1.408 . S
C1305 C1304 1.404 . S
C1305 H1317 0.930 . S
C1306 C1302 1.524 . S
C1306 H1318 0.956 . S
C1306 H1319 0.961 . S
C1306 H1320 0.961 . S
C1307 C1304 1.539 . S
C1307 H1321 0.958 . S
C1307 H1322 0.961 . S
C1307 H1323 0.960 . S
H1308 C1292 0.931 . S
H1309 C1297 0.929 . S
H1310 C1298 0.960 . S
H1311 C1298 0.962 . S
H1312 C1298 0.960 . S
H1313 C1299 0.961 . S
H1314 C1299 0.961 . S
H1315 C1299 0.961 . S
H1316 C1300 0.931 . S
H1317 C1305 0.930 . S
H1318 C1306 0.956 . S
H1319 C1306 0.961 . S
H1320 C1306 0.961 . S
H1321 C1307 0.958 . S
H1322 C1307 0.961 . S
H1323 C1307 0.960 . S
C1324 C1325 1.391 . S
C1324 C1326 1.394 . S
C1324 H1340 0.931 . S
C1325 C1324 1.391 . S
C1325 C1329 1.376 . S
C1326 C1324 1.394 . S
C1326 C1327 1.369 . S
C1326 C1330 1.531 . S
C1327 C1326 1.369 . S
C1327 C1328 1.410 . S
C1327 C1335 1.503 1_655 S
C1328 C1327 1.410 . S
C1328 C1329 1.392 . S
C1328 C1331 1.511 . S
C1329 C1325 1.376 . S
C1329 C1328 1.392 . S
C1329 H1341 0.929 . S
C1330 C1326 1.531 . S
C1330 H1342 0.960 . S
C1330 H1343 0.962 . S
C1330 H1344 0.960 . S
C1331 C1328 1.511 . S
C1331 H1345 0.961 . S
C1331 H1346 0.961 1_655 S
C1331 H1347 0.961 . S
C1332 C1333 1.370 . S
C1332 C1334 1.363 . S
C1332 H1348 0.931 . S
C1333 C1332 1.370 . S
C1333 C1337 1.408 . S
C1334 C1332 1.363 . S
C1334 C1335 1.370 . S
C1334 C1338 1.524 . S
C1335 C1327 1.503 1_455 S
C1335 C1334 1.370 . S
C1335 C1336 1.403 . S
C1336 C1335 1.403 . S
C1336 C1337 1.404 . S
C1336 C1339 1.539 . S
C1337 C1333 1.408 . S
C1337 C1336 1.404 . S
C1337 H1349 0.930 . S
C1338 C1334 1.524 . S
C1338 H1350 0.956 . S
C1338 H1351 0.961 . S
C1338 H1352 0.961 . S
C1339 C1336 1.539 . S
C1339 H1353 0.958 . S
C1339 H1354 0.961 . S
C1339 H1355 0.960 1_455 S
H1340 C1324 0.931 . S
H1341 C1329 0.929 . S
H1342 C1330 0.960 . S
H1343 C1330 0.962 . S
H1344 C1330 0.960 . S
H1345 C1331 0.961 . S
H1346 C1331 0.961 1_455 S
H1347 C1331 0.961 . S
H1348 C1332 0.931 . S
H1349 C1337 0.930 . S
H1350 C1338 0.956 . S
H1351 C1338 0.961 . S
H1352 C1338 0.961 . S
H1353 C1339 0.958 . S
H1354 C1339 0.961 . S
H1355 C1339 0.960 1_655 S
C1356 C1357 1.391 . S
C1356 C1358 1.394 . S
C1356 H1372 0.931 . S
C1357 C1356 1.391 . S
C1357 C1361 1.376 . S
C1358 C1356 1.394 . S
C1358 C1359 1.369 . S
C1358 C1362 1.531 . S
C1359 C1358 1.369 . S
C1359 C1360 1.410 . S
C1359 C1367 1.503 . S
C1360 C1359 1.410 . S
C1360 C1361 1.392 . S
C1360 C1363 1.511 . S
C1361 C1357 1.376 . S
C1361 C1360 1.392 . S
C1361 H1373 0.929 . S
C1362 C1358 1.531 . S
C1362 H1374 0.960 . S
C1362 H1375 0.962 . S
C1362 H1376 0.960 . S
C1363 C1360 1.511 . S
C1363 H1377 0.961 . S
C1363 H1378 0.961 . S
C1363 H1379 0.961 . S
C1364 C1365 1.370 . S
C1364 C1366 1.363 . S
C1364 H1380 0.931 . S
C1365 C1364 1.370 . S
C1365 C1369 1.408 . S
C1366 C1364 1.363 . S
C1366 C1367 1.370 . S
C1366 C1370 1.524 . S
C1367 C1359 1.503 . S
C1367 C1366 1.370 . S
C1367 C1368 1.403 . S
C1368 C1367 1.403 . S
C1368 C1369 1.404 . S
C1368 C1371 1.539 . S
C1369 C1365 1.408 . S
C1369 C1368 1.404 . S
C1369 H1381 0.930 . S
C1370 C1366 1.524 . S
C1370 H1382 0.956 . S
C1370 H1383 0.961 . S
C1370 H1384 0.961 . S
C1371 C1368 1.539 . S
C1371 H1385 0.958 . S
C1371 H1386 0.961 . S
C1371 H1387 0.960 . S
H1372 C1356 0.931 . S
H1373 C1361 0.929 . S
H1374 C1362 0.960 . S
H1375 C1362 0.962 . S
H1376 C1362 0.960 . S
H1377 C1363 0.961 . S
H1378 C1363 0.961 . S
H1379 C1363 0.961 . S
H1380 C1364 0.931 . S
H1381 C1369 0.930 . S
H1382 C1370 0.956 . S
H1383 C1370 0.961 . S
H1384 C1370 0.961 . S
H1385 C1371 0.958 . S
H1386 C1371 0.961 . S
H1387 C1371 0.960 . S
C1388 C1389 1.391 . S
C1388 C1390 1.394 . S
C1388 H1404 0.931 . S
C1389 C1388 1.391 . S
C1389 C1393 1.376 . S
C1390 C1388 1.394 . S
C1390 C1391 1.369 . S
C1390 C1394 1.531 . S
C1391 C1390 1.369 . S
C1391 C1392 1.410 . S
C1391 C1399 1.503 . S
C1392 C1391 1.410 . S
C1392 C1393 1.392 . S
C1392 C1395 1.511 . S
C1393 C1389 1.376 . S
C1393 C1392 1.392 . S
C1393 H1405 0.929 . S
C1394 C1390 1.531 . S
C1394 H1406 0.960 . S
C1394 H1407 0.962 . S
C1394 H1408 0.960 . S
C1395 C1392 1.511 . S
C1395 H1409 0.961 . S
C1395 H1410 0.961 . S
C1395 H1411 0.961 . S
C1396 C1397 1.370 . S
C1396 C1398 1.363 . S
C1396 H1412 0.931 . S
C1397 C1396 1.370 . S
C1397 C1401 1.408 . S
C1398 C1396 1.363 . S
C1398 C1399 1.370 . S
C1398 C1402 1.524 . S
C1399 C1391 1.503 . S
C1399 C1398 1.370 . S
C1399 C1400 1.403 . S
C1400 C1399 1.403 . S
C1400 C1401 1.404 . S
C1400 C1403 1.539 . S
C1401 C1397 1.408 . S
C1401 C1400 1.404 . S
C1401 H1413 0.930 . S
C1402 C1398 1.524 . S
C1402 H1414 0.956 . S
C1402 H1415 0.961 . S
C1402 H1416 0.961 . S
C1403 C1400 1.539 . S
C1403 H1417 0.958 . S
C1403 H1418 0.961 . S
C1403 H1419 0.960 . S
H1404 C1388 0.931 . S
H1405 C1393 0.929 . S
H1406 C1394 0.960 . S
H1407 C1394 0.962 . S
H1408 C1394 0.960 . S
H1409 C1395 0.961 . S
H1410 C1395 0.961 . S
H1411 C1395 0.961 . S
H1412 C1396 0.931 . S
H1413 C1401 0.930 . S
H1414 C1402 0.956 . S
H1415 C1402 0.961 . S
H1416 C1402 0.961 . S
H1417 C1403 0.958 . S
H1418 C1403 0.961 . S
H1419 C1403 0.960 . S
C1420 C1421 1.391 . S
C1420 C1422 1.394 . S
C1420 H1436 0.931 . S
C1421 C1420 1.391 . S
C1421 C1425 1.376 . S
C1422 C1420 1.394 . S
C1422 C1423 1.369 . S
C1422 C1426 1.531 . S
C1423 C1422 1.369 . S
C1423 C1424 1.410 . S
C1423 C1431 1.503 . S
C1424 C1423 1.410 . S
C1424 C1425 1.392 . S
C1424 C1427 1.511 . S
C1425 C1421 1.376 . S
C1425 C1424 1.392 . S
C1425 H1437 0.929 . S
C1426 C1422 1.531 . S
C1426 H1438 0.960 . S
C1426 H1439 0.962 . S
C1426 H1440 0.960 . S
C1427 C1424 1.511 . S
C1427 H1441 0.961 . S
C1427 H1442 0.961 . S
C1427 H1443 0.961 . S
C1428 C1429 1.370 . S
C1428 C1430 1.363 . S
C1428 H1444 0.931 . S
C1429 C1428 1.370 . S
C1429 C1433 1.408 . S
C1430 C1428 1.363 . S
C1430 C1431 1.370 . S
C1430 C1434 1.524 . S
C1431 C1423 1.503 . S
C1431 C1430 1.370 . S
C1431 C1432 1.403 . S
C1432 C1431 1.403 . S
C1432 C1433 1.404 . S
C1432 C1435 1.539 . S
C1433 C1429 1.408 . S
C1433 C1432 1.404 . S
C1433 H1445 0.930 . S
C1434 C1430 1.524 . S
C1434 H1446 0.956 . S
C1434 H1447 0.961 . S
C1434 H1448 0.961 . S
C1435 C1432 1.539 . S
C1435 H1449 0.958 . S
C1435 H1450 0.961 . S
C1435 H1451 0.960 . S
H1436 C1420 0.931 . S
H1437 C1425 0.929 . S
H1438 C1426 0.960 . S
H1439 C1426 0.962 . S
H1440 C1426 0.960 . S
H1441 C1427 0.961 . S
H1442 C1427 0.961 . S
H1443 C1427 0.961 . S
H1444 C1428 0.931 . S
H1445 C1433 0.930 . S
H1446 C1434 0.956 . S
H1447 C1434 0.961 . S
H1448 C1434 0.961 . S
H1449 C1435 0.958 . S
H1450 C1435 0.961 . S
H1451 C1435 0.960 . S
C1452 C1453 1.391 . S
C1452 C1454 1.394 . S
C1452 H1468 0.931 . S
C1453 C1452 1.391 . S
C1453 C1457 1.376 . S
C1454 C1452 1.394 . S
C1454 C1455 1.369 . S
C1454 C1458 1.531 . S
C1455 C1454 1.369 . S
C1455 C1456 1.410 . S
C1455 C1463 1.503 . S
C1456 C1455 1.410 . S
C1456 C1457 1.392 . S
C1456 C1459 1.511 . S
C1457 C1453 1.376 . S
C1457 C1456 1.392 . S
C1457 H1469 0.929 . S
C1458 C1454 1.531 . S
C1458 H1470 0.960 . S
C1458 H1471 0.962 . S
C1458 H1472 0.960 . S
C1459 C1456 1.511 . S
C1459 H1473 0.961 . S
C1459 H1474 0.961 . S
C1459 H1475 0.961 . S
C1460 C1461 1.370 . S
C1460 C1462 1.363 . S
C1460 H1476 0.931 . S
C1461 C1460 1.370 . S
C1461 C1465 1.408 . S
C1462 C1460 1.363 . S
C1462 C1463 1.370 . S
C1462 C1466 1.524 . S
C1463 C1455 1.503 . S
C1463 C1462 1.370 . S
C1463 C1464 1.403 . S
C1464 C1463 1.403 . S
C1464 C1465 1.404 . S
C1464 C1467 1.539 . S
C1465 C1461 1.408 . S
C1465 C1464 1.404 . S
C1465 H1477 0.930 . S
C1466 C1462 1.524 . S
C1466 H1478 0.956 . S
C1466 H1479 0.961 . S
C1466 H1480 0.961 . S
C1467 C1464 1.539 . S
C1467 H1481 0.958 . S
C1467 H1482 0.961 . S
C1467 H1483 0.960 . S
H1468 C1452 0.931 . S
H1469 C1457 0.929 . S
H1470 C1458 0.960 . S
H1471 C1458 0.962 . S
H1472 C1458 0.960 . S
H1473 C1459 0.961 . S
H1474 C1459 0.961 . S
H1475 C1459 0.961 . S
H1476 C1460 0.931 . S
H1477 C1465 0.930 . S
H1478 C1466 0.956 . S
H1479 C1466 0.961 . S
H1480 C1466 0.961 . S
H1481 C1467 0.958 . S
H1482 C1467 0.961 . S
H1483 C1467 0.960 . S
C1484 C1485 1.391 . S
C1484 C1486 1.394 . S
C1484 H1500 0.931 . S
C1485 C1484 1.391 . S
C1485 C1489 1.376 . S
C1486 C1484 1.394 . S
C1486 C1487 1.369 . S
C1486 C1490 1.531 . S
C1487 C1486 1.369 . S
C1487 C1488 1.410 . S
C1487 C1495 1.503 . S
C1488 C1487 1.410 . S
C1488 C1489 1.392 . S
C1488 C1491 1.511 . S
C1489 C1485 1.376 . S
C1489 C1488 1.392 . S
C1489 H1501 0.929 . S
C1490 C1486 1.531 . S
C1490 H1502 0.960 . S
C1490 H1503 0.962 . S
C1490 H1504 0.960 . S
C1491 C1488 1.511 . S
C1491 H1505 0.961 . S
C1491 H1506 0.961 . S
C1491 H1507 0.961 . S
C1492 C1493 1.370 . S
C1492 C1494 1.363 . S
C1492 H1508 0.931 . S
C1493 C1492 1.370 . S
C1493 C1497 1.408 . S
C1494 C1492 1.363 . S
C1494 C1495 1.370 . S
C1494 C1498 1.524 . S
C1495 C1487 1.503 . S
C1495 C1494 1.370 . S
C1495 C1496 1.403 . S
C1496 C1495 1.403 . S
C1496 C1497 1.404 . S
C1496 C1499 1.539 . S
C1497 C1493 1.408 . S
C1497 C1496 1.404 . S
C1497 H1509 0.930 . S
C1498 C1494 1.524 . S
C1498 H1510 0.956 . S
C1498 H1511 0.961 . S
C1498 H1512 0.961 . S
C1499 C1496 1.539 . S
C1499 H1513 0.958 . S
C1499 H1514 0.961 . S
C1499 H1515 0.960 . S
H1500 C1484 0.931 . S
H1501 C1489 0.929 . S
H1502 C1490 0.960 . S
H1503 C1490 0.962 . S
H1504 C1490 0.960 . S
H1505 C1491 0.961 . S
H1506 C1491 0.961 . S
H1507 C1491 0.961 . S
H1508 C1492 0.931 . S
H1509 C1497 0.930 . S
H1510 C1498 0.956 . S
H1511 C1498 0.961 . S
H1512 C1498 0.961 . S
H1513 C1499 0.958 . S
H1514 C1499 0.961 . S
H1515 C1499 0.960 . S
C1516 C1517 1.391 . S
C1516 C1518 1.394 . S
C1516 H1532 0.931 . S
C1517 C1516 1.391 . S
C1517 C1521 1.376 . S
C1518 C1516 1.394 . S
C1518 C1519 1.369 . S
C1518 C1522 1.531 . S
C1519 C1518 1.369 . S
C1519 C1520 1.410 . S
C1519 C1527 1.503 . S
C1520 C1519 1.410 . S
C1520 C1521 1.392 . S
C1520 C1523 1.511 . S
C1521 C1517 1.376 . S
C1521 C1520 1.392 . S
C1521 H1533 0.929 . S
C1522 C1518 1.531 . S
C1522 H1534 0.960 . S
C1522 H1535 0.962 . S
C1522 H1536 0.960 . S
C1523 C1520 1.511 . S
C1523 H1537 0.961 . S
C1523 H1538 0.961 . S
C1523 H1539 0.961 . S
C1524 C1525 1.370 . S
C1524 C1526 1.363 . S
C1524 H1540 0.931 . S
C1525 C1524 1.370 . S
C1525 C1529 1.408 . S
C1526 C1524 1.363 . S
C1526 C1527 1.370 . S
C1526 C1530 1.524 . S
C1527 C1519 1.503 . S
C1527 C1526 1.370 . S
C1527 C1528 1.403 . S
C1528 C1527 1.403 . S
C1528 C1529 1.404 . S
C1528 C1531 1.539 . S
C1529 C1525 1.408 . S
C1529 C1528 1.404 . S
C1529 H1541 0.930 . S
C1530 C1526 1.524 . S
C1530 H1542 0.956 . S
C1530 H1543 0.961 . S
C1530 H1544 0.961 . S
C1531 C1528 1.539 . S
C1531 H1545 0.958 . S
C1531 H1546 0.961 . S
C1531 H1547 0.960 . S
H1532 C1516 0.931 . S
H1533 C1521 0.929 . S
H1534 C1522 0.960 . S
H1535 C1522 0.962 . S
H1536 C1522 0.960 . S
H1537 C1523 0.961 . S
H1538 C1523 0.961 . S
H1539 C1523 0.961 . S
H1540 C1524 0.931 . S
H1541 C1529 0.930 . S
H1542 C1530 0.956 . S
H1543 C1530 0.961 . S
H1544 C1530 0.961 . S
H1545 C1531 0.958 . S
H1546 C1531 0.961 . S
H1547 C1531 0.960 . S
C1548 C1549 1.391 . S
C1548 C1550 1.394 . S
C1548 H1564 0.931 . S
C1549 C1548 1.391 . S
C1549 C1553 1.376 . S
C1550 C1548 1.394 . S
C1550 C1551 1.369 . S
C1550 C1554 1.531 . S
C1551 C1550 1.369 . S
C1551 C1552 1.410 . S
C1551 C1559 1.503 . S
C1552 C1551 1.410 . S
C1552 C1553 1.392 . S
C1552 C1555 1.511 . S
C1553 C1549 1.376 . S
C1553 C1552 1.392 . S
C1553 H1565 0.929 . S
C1554 C1550 1.531 . S
C1554 H1566 0.960 . S
C1554 H1567 0.962 . S
C1554 H1568 0.960 . S
C1555 C1552 1.511 . S
C1555 H1569 0.961 . S
C1555 H1570 0.961 . S
C1555 H1571 0.961 . S
C1556 C1557 1.370 . S
C1556 C1558 1.363 . S
C1556 H1572 0.931 . S
C1557 C1556 1.370 . S
C1557 C1561 1.408 . S
C1558 C1556 1.363 . S
C1558 C1559 1.370 . S
C1558 C1562 1.524 . S
C1559 C1551 1.503 . S
C1559 C1558 1.370 . S
C1559 C1560 1.403 . S
C1560 C1559 1.403 . S
C1560 C1561 1.404 . S
C1560 C1563 1.539 . S
C1561 C1557 1.408 . S
C1561 C1560 1.404 . S
C1561 H1573 0.930 . S
C1562 C1558 1.524 . S
C1562 H1574 0.956 . S
C1562 H1575 0.961 . S
C1562 H1576 0.961 . S
C1563 C1560 1.539 . S
C1563 H1577 0.958 . S
C1563 H1578 0.961 . S
C1563 H1579 0.960 . S
H1564 C1548 0.931 . S
H1565 C1553 0.929 . S
H1566 C1554 0.960 . S
H1567 C1554 0.962 . S
H1568 C1554 0.960 . S
H1569 C1555 0.961 . S
H1570 C1555 0.961 . S
H1571 C1555 0.961 . S
H1572 C1556 0.931 . S
H1573 C1561 0.930 . S
H1574 C1562 0.956 . S
H1575 C1562 0.961 . S
H1576 C1562 0.961 . S
H1577 C1563 0.958 . S
H1578 C1563 0.961 . S
H1579 C1563 0.960 . S
C1580 C1581 1.391 . S
C1580 C1582 1.394 . S
C1580 H1596 0.931 . S
C1581 C1580 1.391 . S
C1581 C1585 1.376 . S
C1582 C1580 1.394 . S
C1582 C1583 1.369 . S
C1582 C1586 1.531 . S
C1583 C1582 1.369 . S
C1583 C1584 1.410 . S
C1583 C1591 1.503 . S
C1584 C1583 1.410 . S
C1584 C1585 1.392 . S
C1584 C1587 1.511 . S
C1585 C1581 1.376 . S
C1585 C1584 1.392 . S
C1585 H1597 0.929 . S
C1586 C1582 1.531 . S
C1586 H1598 0.960 . S
C1586 H1599 0.962 . S
C1586 H1600 0.960 . S
C1587 C1584 1.511 . S
C1587 H1601 0.961 . S
C1587 H1602 0.961 . S
C1587 H1603 0.961 . S
C1588 C1589 1.370 . S
C1588 C1590 1.363 . S
C1588 H1604 0.931 . S
C1589 C1588 1.370 . S
C1589 C1593 1.408 . S
C1590 C1588 1.363 . S
C1590 C1591 1.370 . S
C1590 C1594 1.524 . S
C1591 C1583 1.503 . S
C1591 C1590 1.370 . S
C1591 C1592 1.403 . S
C1592 C1591 1.403 . S
C1592 C1593 1.404 . S
C1592 C1595 1.539 . S
C1593 C1589 1.408 . S
C1593 C1592 1.404 . S
C1593 H1605 0.930 . S
C1594 C1590 1.524 . S
C1594 H1606 0.956 . S
C1594 H1607 0.961 . S
C1594 H1608 0.961 . S
C1595 C1592 1.539 . S
C1595 H1609 0.958 . S
C1595 H1610 0.961 . S
C1595 H1611 0.960 . S
H1596 C1580 0.931 . S
H1597 C1585 0.929 . S
H1598 C1586 0.960 . S
H1599 C1586 0.962 . S
H1600 C1586 0.960 . S
H1601 C1587 0.961 . S
H1602 C1587 0.961 . S
H1603 C1587 0.961 . S
H1604 C1588 0.931 . S
H1605 C1593 0.930 . S
H1606 C1594 0.956 . S
H1607 C1594 0.961 . S
H1608 C1594 0.961 . S
H1609 C1595 0.958 . S
H1610 C1595 0.961 . S
H1611 C1595 0.960 . S
C1612 C1613 1.391 . S
C1612 C1614 1.394 . S
C1612 H1628 0.931 . S
C1613 C1612 1.391 . S
C1613 C1617 1.376 . S
C1614 C1612 1.394 . S
C1614 C1615 1.369 . S
C1614 C1618 1.531 . S
C1615 C1614 1.369 . S
C1615 C1616 1.410 . S
C1615 C1623 1.503 . S
C1616 C1615 1.410 . S
C1616 C1617 1.392 . S
C1616 C1619 1.511 . S
C1617 C1613 1.376 . S
C1617 C1616 1.392 . S
C1617 H1629 0.929 . S
C1618 C1614 1.531 . S
C1618 H1630 0.960 . S
C1618 H1631 0.962 . S
C1618 H1632 0.960 . S
C1619 C1616 1.511 . S
C1619 H1633 0.961 . S
C1619 H1634 0.961 . S
C1619 H1635 0.961 . S
C1620 C1621 1.370 . S
C1620 C1622 1.363 . S
C1620 H1636 0.931 . S
C1621 C1620 1.370 . S
C1621 C1625 1.408 . S
C1622 C1620 1.363 . S
C1622 C1623 1.370 . S
C1622 C1626 1.524 . S
C1623 C1615 1.503 . S
C1623 C1622 1.370 . S
C1623 C1624 1.403 . S
C1624 C1623 1.403 . S
C1624 C1625 1.404 . S
C1624 C1627 1.539 . S
C1625 C1621 1.408 . S
C1625 C1624 1.404 . S
C1625 H1637 0.930 . S
C1626 C1622 1.524 . S
C1626 H1638 0.956 . S
C1626 H1639 0.961 . S
C1626 H1640 0.961 . S
C1627 C1624 1.539 . S
C1627 H1641 0.958 . S
C1627 H1642 0.961 . S
C1627 H1643 0.960 . S
H1628 C1612 0.931 . S
H1629 C1617 0.929 . S
H1630 C1618 0.960 . S
H1631 C1618 0.962 . S
H1632 C1618 0.960 . S
H1633 C1619 0.961 . S
H1634 C1619 0.961 . S
H1635 C1619 0.961 . S
H1636 C1620 0.931 . S
H1637 C1625 0.930 . S
H1638 C1626 0.956 . S
H1639 C1626 0.961 . S
H1640 C1626 0.961 . S
H1641 C1627 0.958 . S
H1642 C1627 0.961 . S
H1643 C1627 0.960 . S
C1644 C1645 1.391 . S
C1644 C1646 1.394 . S
C1644 H1660 0.931 . S
C1645 C1644 1.391 . S
C1645 C1649 1.376 . S
C1646 C1644 1.394 . S
C1646 C1647 1.369 . S
C1646 C1650 1.531 . S
C1647 C1646 1.369 . S
C1647 C1648 1.410 . S
C1647 C1655 1.503 . S
C1648 C1647 1.410 . S
C1648 C1649 1.392 . S
C1648 C1651 1.511 . S
C1649 C1645 1.376 . S
C1649 C1648 1.392 . S
C1649 H1661 0.929 . S
C1650 C1646 1.531 . S
C1650 H1662 0.960 . S
C1650 H1663 0.962 . S
C1650 H1664 0.960 . S
C1651 C1648 1.511 . S
C1651 H1665 0.961 . S
C1651 H1666 0.961 . S
C1651 H1667 0.961 . S
C1652 C1653 1.370 . S
C1652 C1654 1.363 . S
C1652 H1668 0.931 . S
C1653 C1652 1.370 . S
C1653 C1657 1.408 . S
C1654 C1652 1.363 . S
C1654 C1655 1.370 . S
C1654 C1658 1.524 . S
C1655 C1647 1.503 . S
C1655 C1654 1.370 . S
C1655 C1656 1.403 . S
C1656 C1655 1.403 . S
C1656 C1657 1.404 . S
C1656 C1659 1.539 . S
C1657 C1653 1.408 . S
C1657 C1656 1.404 . S
C1657 H1669 0.930 . S
C1658 C1654 1.524 . S
C1658 H1670 0.956 . S
C1658 H1671 0.961 . S
C1658 H1672 0.961 . S
C1659 C1656 1.539 . S
C1659 H1673 0.958 . S
C1659 H1674 0.961 . S
C1659 H1675 0.960 . S
H1660 C1644 0.931 . S
H1661 C1649 0.929 . S
H1662 C1650 0.960 . S
H1663 C1650 0.962 . S
H1664 C1650 0.960 . S
H1665 C1651 0.961 . S
H1666 C1651 0.961 . S
H1667 C1651 0.961 . S
H1668 C1652 0.931 . S
H1669 C1657 0.930 . S
H1670 C1658 0.956 . S
H1671 C1658 0.961 . S
H1672 C1658 0.961 . S
H1673 C1659 0.958 . S
H1674 C1659 0.961 . S
H1675 C1659 0.960 . S
C1676 C1677 1.391 . S
C1676 C1678 1.394 . S
C1676 H1692 0.931 . S
C1677 C1676 1.391 . S
C1677 C1681 1.376 . S
C1678 C1676 1.394 . S
C1678 C1679 1.369 . S
C1678 C1682 1.531 . S
C1679 C1678 1.369 . S
C1679 C1680 1.410 . S
C1679 C1687 1.503 . S
C1680 C1679 1.410 . S
C1680 C1681 1.392 . S
C1680 C1683 1.511 . S
C1681 C1677 1.376 . S
C1681 C1680 1.392 . S
C1681 H1693 0.929 . S
C1682 C1678 1.531 . S
C1682 H1694 0.960 . S
C1682 H1695 0.962 . S
C1682 H1696 0.960 . S
C1683 C1680 1.511 . S
C1683 H1697 0.961 . S
C1683 H1698 0.961 . S
C1683 H1699 0.961 . S
C1684 C1685 1.370 . S
C1684 C1686 1.363 . S
C1684 H1700 0.931 . S
C1685 C1684 1.370 . S
C1685 C1689 1.408 . S
C1686 C1684 1.363 . S
C1686 C1687 1.370 . S
C1686 C1690 1.524 . S
C1687 C1679 1.503 . S
C1687 C1686 1.370 . S
C1687 C1688 1.403 . S
C1688 C1687 1.403 . S
C1688 C1689 1.404 . S
C1688 C1691 1.539 . S
C1689 C1685 1.408 . S
C1689 C1688 1.404 . S
C1689 H1701 0.930 . S
C1690 C1686 1.524 . S
C1690 H1702 0.956 . S
C1690 H1703 0.961 . S
C1690 H1704 0.961 . S
C1691 C1688 1.539 . S
C1691 H1705 0.958 . S
C1691 H1706 0.961 . S
C1691 H1707 0.960 . S
H1692 C1676 0.931 . S
H1693 C1681 0.929 . S
H1694 C1682 0.960 . S
H1695 C1682 0.962 . S
H1696 C1682 0.960 . S
H1697 C1683 0.961 . S
H1698 C1683 0.961 . S
H1699 C1683 0.961 . S
H1700 C1684 0.931 . S
H1701 C1689 0.930 . S
H1702 C1690 0.956 . S
H1703 C1690 0.961 . S
H1704 C1690 0.961 . S
H1705 C1691 0.958 . S
H1706 C1691 0.961 . S
H1707 C1691 0.960 . S
C1708 C1709 1.391 . S
C1708 C1710 1.394 . S
C1708 H1724 0.931 . S
C1709 C1708 1.391 . S
C1709 C1713 1.376 . S
C1710 C1708 1.394 . S
C1710 C1711 1.369 . S
C1710 C1714 1.531 . S
C1711 C1710 1.369 . S
C1711 C1712 1.410 . S
C1711 C1719 1.503 . S
C1712 C1711 1.410 . S
C1712 C1713 1.392 . S
C1712 C1715 1.511 . S
C1713 C1709 1.376 . S
C1713 C1712 1.392 . S
C1713 H1725 0.929 . S
C1714 C1710 1.531 . S
C1714 H1726 0.960 . S
C1714 H1727 0.962 . S
C1714 H1728 0.960 . S
C1715 C1712 1.511 . S
C1715 H1729 0.961 . S
C1715 H1730 0.961 . S
C1715 H1731 0.961 . S
C1716 C1717 1.370 . S
C1716 C1718 1.363 . S
C1716 H1732 0.931 . S
C1717 C1716 1.370 . S
C1717 C1721 1.408 . S
C1718 C1716 1.363 . S
C1718 C1719 1.370 . S
C1718 C1722 1.524 . S
C1719 C1711 1.503 . S
C1719 C1718 1.370 . S
C1719 C1720 1.403 . S
C1720 C1719 1.403 . S
C1720 C1721 1.404 . S
C1720 C1723 1.539 . S
C1721 C1717 1.408 . S
C1721 C1720 1.404 . S
C1721 H1733 0.930 . S
C1722 C1718 1.524 . S
C1722 H1734 0.956 . S
C1722 H1735 0.961 . S
C1722 H1736 0.961 . S
C1723 C1720 1.539 . S
C1723 H1737 0.958 . S
C1723 H1738 0.961 . S
C1723 H1739 0.960 . S
H1724 C1708 0.931 . S
H1725 C1713 0.929 . S
H1726 C1714 0.960 . S
H1727 C1714 0.962 . S
H1728 C1714 0.960 . S
H1729 C1715 0.961 . S
H1730 C1715 0.961 . S
H1731 C1715 0.961 . S
H1732 C1716 0.931 . S
H1733 C1721 0.930 . S
H1734 C1722 0.956 . S
H1735 C1722 0.961 . S
H1736 C1722 0.961 . S
H1737 C1723 0.958 . S
H1738 C1723 0.961 . S
H1739 C1723 0.960 . S
C1740 C1741 1.391 . S
C1740 C1742 1.394 . S
C1740 H1756 0.931 . S
C1741 C1740 1.391 . S
C1741 C1745 1.376 . S
C1742 C1740 1.394 . S
C1742 C1743 1.369 . S
C1742 C1746 1.531 . S
C1743 C1742 1.369 . S
C1743 C1744 1.410 1_554 S
C1743 C1751 1.503 1_554 S
C1744 C1743 1.410 1_556 S
C1744 C1745 1.392 1_556 S
C1744 C1747 1.511 . S
C1745 C1741 1.376 . S
C1745 C1744 1.392 1_554 S
C1745 H1757 0.933 1_554 S
C1746 C1742 1.531 . S
C1746 H1758 0.960 . S
C1746 H1759 0.962 . S
C1746 H1760 0.960 . S
C1747 C1744 1.511 . S
C1747 H1761 0.961 . S
C1747 H1762 0.961 . S
C1747 H1763 0.961 . S
C1748 C1749 1.370 . S
C1748 C1750 1.363 . S
C1748 H1764 0.931 . S
C1749 C1748 1.370 . S
C1749 C1753 1.408 . S
C1750 C1748 1.363 . S
C1750 C1751 1.370 . S
C1750 C1754 1.524 1_556 S
C1751 C1743 1.503 1_556 S
C1751 C1750 1.370 . S
C1751 C1752 1.403 . S
C1752 C1751 1.403 . S
C1752 C1753 1.404 . S
C1752 C1755 1.539 . S
C1753 C1749 1.408 . S
C1753 C1752 1.404 . S
C1753 H1765 0.930 . S
C1754 C1750 1.524 1_554 S
C1754 H1766 0.957 . S
C1754 H1767 0.960 1_554 S
C1754 H1768 0.960 1_554 S
C1755 C1752 1.539 . S
C1755 H1769 0.958 . S
C1755 H1770 0.961 . S
C1755 H1771 0.960 . S
H1756 C1740 0.931 . S
H1757 C1745 0.933 1_556 S
H1758 C1746 0.960 . S
H1759 C1746 0.962 . S
H1760 C1746 0.960 . S
H1761 C1747 0.961 . S
H1762 C1747 0.961 . S
H1763 C1747 0.961 . S
H1764 C1748 0.931 . S
H1765 C1753 0.930 . S
H1766 C1754 0.957 . S
H1767 C1754 0.960 1_556 S
H1768 C1754 0.960 1_556 S
H1769 C1755 0.958 . S
H1770 C1755 0.961 . S
H1771 C1755 0.960 . S
C1772 C1773 1.391 . S
C1772 C1774 1.394 . S
C1772 H1788 0.931 . S
C1773 C1772 1.391 . S
C1773 C1777 1.376 . S
C1774 C1772 1.394 . S
C1774 C1775 1.369 . S
C1774 C1778 1.531 . S
C1775 C1774 1.369 . S
C1775 C1776 1.410 . S
C1775 C1783 1.503 . S
C1776 C1775 1.410 . S
C1776 C1777 1.392 . S
C1776 C1779 1.511 . S
C1777 C1773 1.376 . S
C1777 C1776 1.392 . S
C1777 H1789 0.929 . S
C1778 C1774 1.531 . S
C1778 H1790 0.960 . S
C1778 H1791 0.962 . S
C1778 H1792 0.960 . S
C1779 C1776 1.511 . S
C1779 H1793 0.961 . S
C1779 H1794 0.961 . S
C1779 H1795 0.961 . S
C1780 C1781 1.370 . S
C1780 C1782 1.363 . S
C1780 H1796 0.931 . S
C1781 C1780 1.370 . S
C1781 C1785 1.408 . S
C1782 C1780 1.363 . S
C1782 C1783 1.370 . S
C1782 C1786 1.524 . S
C1783 C1775 1.503 . S
C1783 C1782 1.370 . S
C1783 C1784 1.403 . S
C1784 C1783 1.403 . S
C1784 C1785 1.404 . S
C1784 C1787 1.539 . S
C1785 C1781 1.408 . S
C1785 C1784 1.404 . S
C1785 H1797 0.930 . S
C1786 C1782 1.524 . S
C1786 H1798 0.956 . S
C1786 H1799 0.961 . S
C1786 H1800 0.961 . S
C1787 C1784 1.539 . S
C1787 H1801 0.958 . S
C1787 H1802 0.961 . S
C1787 H1803 0.960 . S
H1788 C1772 0.931 . S
H1789 C1777 0.929 . S
H1790 C1778 0.960 . S
H1791 C1778 0.962 . S
H1792 C1778 0.960 . S
H1793 C1779 0.961 . S
H1794 C1779 0.961 . S
H1795 C1779 0.961 . S
H1796 C1780 0.931 . S
H1797 C1785 0.930 . S
H1798 C1786 0.956 . S
H1799 C1786 0.961 . S
H1800 C1786 0.961 . S
H1801 C1787 0.958 . S
H1802 C1787 0.961 . S
H1803 C1787 0.960 . S
C1804 C1805 1.391 . S
C1804 C1806 1.394 . S
C1804 H1820 0.931 . S
C1805 C1804 1.391 . S
C1805 C1809 1.376 . S
C1806 C1804 1.394 . S
C1806 C1807 1.369 . S
C1806 C1810 1.531 . S
C1807 C1806 1.369 . S
C1807 C1808 1.410 . S
C1807 C1815 1.503 . S
C1808 C1807 1.410 . S
C1808 C1809 1.392 . S
C1808 C1811 1.511 . S
C1809 C1805 1.376 . S
C1809 C1808 1.392 . S
C1809 H1821 0.929 . S
C1810 C1806 1.531 . S
C1810 H1822 0.960 . S
C1810 H1823 0.962 . S
C1810 H1824 0.960 . S
C1811 C1808 1.511 . S
C1811 H1825 0.961 . S
C1811 H1826 0.961 . S
C1811 H1827 0.961 . S
C1812 C1813 1.370 . S
C1812 C1814 1.363 . S
C1812 H1828 0.931 . S
C1813 C1812 1.370 . S
C1813 C1817 1.408 . S
C1814 C1812 1.363 . S
C1814 C1815 1.370 . S
C1814 C1818 1.524 . S
C1815 C1807 1.503 . S
C1815 C1814 1.370 . S
C1815 C1816 1.403 . S
C1816 C1815 1.403 . S
C1816 C1817 1.404 . S
C1816 C1819 1.539 . S
C1817 C1813 1.408 . S
C1817 C1816 1.404 . S
C1817 H1829 0.930 . S
C1818 C1814 1.524 . S
C1818 H1830 0.956 . S
C1818 H1831 0.961 . S
C1818 H1832 0.961 . S
C1819 C1816 1.539 . S
C1819 H1833 0.958 . S
C1819 H1834 0.961 . S
C1819 H1835 0.960 . S
H1820 C1804 0.931 . S
H1821 C1809 0.929 . S
H1822 C1810 0.960 . S
H1823 C1810 0.962 . S
H1824 C1810 0.960 . S
H1825 C1811 0.961 . S
H1826 C1811 0.961 . S
H1827 C1811 0.961 . S
H1828 C1812 0.931 . S
H1829 C1817 0.930 . S
H1830 C1818 0.956 . S
H1831 C1818 0.961 . S
H1832 C1818 0.961 . S
H1833 C1819 0.958 . S
H1834 C1819 0.961 . S
H1835 C1819 0.960 . S
C1836 C1837 1.391 . S
C1836 C1838 1.394 . S
C1836 H1852 0.931 . S
C1837 C1836 1.391 . S
C1837 C1841 1.376 . S
C1838 C1836 1.394 . S
C1838 C1839 1.369 . S
C1838 C1842 1.531 . S
C1839 C1838 1.369 . S
C1839 C1840 1.410 . S
C1839 C1847 1.503 . S
C1840 C1839 1.410 . S
C1840 C1841 1.392 . S
C1840 C1843 1.511 . S
C1841 C1837 1.376 . S
C1841 C1840 1.392 . S
C1841 H1853 0.929 . S
C1842 C1838 1.531 . S
C1842 H1854 0.960 . S
C1842 H1855 0.962 . S
C1842 H1856 0.960 . S
C1843 C1840 1.511 . S
C1843 H1857 0.961 . S
C1843 H1858 0.961 . S
C1843 H1859 0.961 . S
C1844 C1845 1.370 . S
C1844 C1846 1.363 . S
C1844 H1860 0.931 . S
C1845 C1844 1.370 . S
C1845 C1849 1.408 . S
C1846 C1844 1.363 . S
C1846 C1847 1.370 . S
C1846 C1850 1.524 . S
C1847 C1839 1.503 . S
C1847 C1846 1.370 . S
C1847 C1848 1.403 . S
C1848 C1847 1.403 . S
C1848 C1849 1.404 . S
C1848 C1851 1.539 . S
C1849 C1845 1.408 . S
C1849 C1848 1.404 . S
C1849 H1861 0.930 . S
C1850 C1846 1.524 . S
C1850 H1862 0.956 . S
C1850 H1863 0.961 . S
C1850 H1864 0.961 . S
C1851 C1848 1.539 . S
C1851 H1865 0.958 . S
C1851 H1866 0.961 . S
C1851 H1867 0.960 . S
H1852 C1836 0.931 . S
H1853 C1841 0.929 . S
H1854 C1842 0.960 . S
H1855 C1842 0.962 . S
H1856 C1842 0.960 . S
H1857 C1843 0.961 . S
H1858 C1843 0.961 . S
H1859 C1843 0.961 . S
H1860 C1844 0.931 . S
H1861 C1849 0.930 . S
H1862 C1850 0.956 . S
H1863 C1850 0.961 . S
H1864 C1850 0.961 . S
H1865 C1851 0.958 . S
H1866 C1851 0.961 . S
H1867 C1851 0.960 . S
C1868 C1869 1.391 . S
C1868 C1870 1.394 . S
C1868 H1884 0.931 . S
C1869 C1868 1.391 . S
C1869 C1873 1.376 . S
C1870 C1868 1.394 . S
C1870 C1871 1.369 . S
C1870 C1874 1.531 . S
C1871 C1870 1.369 . S
C1871 C1872 1.410 . S
C1871 C1879 1.503 . S
C1872 C1871 1.410 . S
C1872 C1873 1.392 . S
C1872 C1875 1.511 . S
C1873 C1869 1.376 . S
C1873 C1872 1.392 . S
C1873 H1885 0.929 . S
C1874 C1870 1.531 . S
C1874 H1886 0.960 . S
C1874 H1887 0.962 . S
C1874 H1888 0.960 . S
C1875 C1872 1.511 . S
C1875 H1889 0.961 . S
C1875 H1890 0.961 . S
C1875 H1891 0.961 . S
C1876 C1877 1.370 . S
C1876 C1878 1.363 . S
C1876 H1892 0.931 . S
C1877 C1876 1.370 . S
C1877 C1881 1.408 . S
C1878 C1876 1.363 . S
C1878 C1879 1.370 . S
C1878 C1882 1.524 . S
C1879 C1871 1.503 . S
C1879 C1878 1.370 . S
C1879 C1880 1.403 . S
C1880 C1879 1.403 . S
C1880 C1881 1.404 . S
C1880 C1883 1.539 . S
C1881 C1877 1.408 . S
C1881 C1880 1.404 . S
C1881 H1893 0.930 . S
C1882 C1878 1.524 . S
C1882 H1894 0.956 . S
C1882 H1895 0.961 . S
C1882 H1896 0.961 . S
C1883 C1880 1.539 . S
C1883 H1897 0.958 . S
C1883 H1898 0.961 . S
C1883 H1899 0.960 . S
H1884 C1868 0.931 . S
H1885 C1873 0.929 . S
H1886 C1874 0.960 . S
H1887 C1874 0.962 . S
H1888 C1874 0.960 . S
H1889 C1875 0.961 . S
H1890 C1875 0.961 . S
H1891 C1875 0.961 . S
H1892 C1876 0.931 . S
H1893 C1881 0.930 . S
H1894 C1882 0.956 . S
H1895 C1882 0.961 . S
H1896 C1882 0.961 . S
H1897 C1883 0.958 . S
H1898 C1883 0.961 . S
H1899 C1883 0.960 . S
C1900 C1901 1.391 . S
C1900 C1902 1.394 . S
C1900 H1916 0.931 . S
C1901 C1900 1.391 . S
C1901 C1905 1.376 . S
C1902 C1900 1.394 . S
C1902 C1903 1.369 . S
C1902 C1906 1.531 . S
C1903 C1902 1.369 . S
C1903 C1904 1.410 . S
C1903 C1911 1.503 . S
C1904 C1903 1.410 . S
C1904 C1905 1.392 . S
C1904 C1907 1.511 . S
C1905 C1901 1.376 . S
C1905 C1904 1.392 . S
C1905 H1917 0.929 . S
C1906 C1902 1.531 . S
C1906 H1918 0.960 . S
C1906 H1919 0.962 . S
C1906 H1920 0.960 . S
C1907 C1904 1.511 . S
C1907 H1921 0.961 . S
C1907 H1922 0.961 . S
C1907 H1923 0.961 . S
C1908 C1909 1.370 . S
C1908 C1910 1.363 . S
C1908 H1924 0.931 . S
C1909 C1908 1.370 . S
C1909 C1913 1.408 . S
C1910 C1908 1.363 . S
C1910 C1911 1.370 . S
C1910 C1914 1.524 . S
C1911 C1903 1.503 . S
C1911 C1910 1.370 . S
C1911 C1912 1.403 . S
C1912 C1911 1.403 . S
C1912 C1913 1.404 . S
C1912 C1915 1.539 . S
C1913 C1909 1.408 . S
C1913 C1912 1.404 . S
C1913 H1925 0.930 . S
C1914 C1910 1.524 . S
C1914 H1926 0.956 . S
C1914 H1927 0.961 . S
C1914 H1928 0.961 . S
C1915 C1912 1.539 . S
C1915 H1929 0.958 . S
C1915 H1930 0.961 . S
C1915 H1931 0.960 . S
H1916 C1900 0.931 . S
H1917 C1905 0.929 . S
H1918 C1906 0.960 . S
H1919 C1906 0.962 . S
H1920 C1906 0.960 . S
H1921 C1907 0.961 . S
H1922 C1907 0.961 . S
H1923 C1907 0.961 . S
H1924 C1908 0.931 . S
H1925 C1913 0.930 . S
H1926 C1914 0.956 . S
H1927 C1914 0.961 . S
H1928 C1914 0.961 . S
H1929 C1915 0.958 . S
H1930 C1915 0.961 . S
H1931 C1915 0.960 . S
C1932 C1933 1.391 . S
C1932 C1934 1.394 . S
C1932 H1948 0.931 . S
C1933 C1932 1.391 . S
C1933 C1937 1.376 . S
C1934 C1932 1.394 . S
C1934 C1935 1.369 . S
C1934 C1938 1.531 . S
C1935 C1934 1.369 . S
C1935 C1936 1.410 . S
C1935 C1943 1.503 . S
C1936 C1935 1.410 . S
C1936 C1937 1.392 . S
C1936 C1939 1.511 . S
C1937 C1933 1.376 . S
C1937 C1936 1.392 . S
C1937 H1949 0.929 . S
C1938 C1934 1.531 . S
C1938 H1950 0.960 . S
C1938 H1951 0.962 . S
C1938 H1952 0.960 . S
C1939 C1936 1.511 . S
C1939 H1953 0.961 . S
C1939 H1954 0.961 . S
C1939 H1955 0.961 . S
C1940 C1941 1.370 . S
C1940 C1942 1.363 . S
C1940 H1956 0.931 . S
C1941 C1940 1.370 . S
C1941 C1945 1.408 . S
C1942 C1940 1.363 . S
C1942 C1943 1.370 . S
C1942 C1946 1.524 . S
C1943 C1935 1.503 . S
C1943 C1942 1.370 . S
C1943 C1944 1.403 . S
C1944 C1943 1.403 . S
C1944 C1945 1.404 . S
C1944 C1947 1.539 . S
C1945 C1941 1.408 . S
C1945 C1944 1.404 . S
C1945 H1957 0.930 . S
C1946 C1942 1.524 . S
C1946 H1958 0.956 . S
C1946 H1959 0.961 . S
C1946 H1960 0.961 . S
C1947 C1944 1.539 . S
C1947 H1961 0.958 . S
C1947 H1962 0.961 . S
C1947 H1963 0.960 . S
H1948 C1932 0.931 . S
H1949 C1937 0.929 . S
H1950 C1938 0.960 . S
H1951 C1938 0.962 . S
H1952 C1938 0.960 . S
H1953 C1939 0.961 . S
H1954 C1939 0.961 . S
H1955 C1939 0.961 . S
H1956 C1940 0.931 . S
H1957 C1945 0.930 . S
H1958 C1946 0.956 . S
H1959 C1946 0.961 . S
H1960 C1946 0.961 . S
H1961 C1947 0.958 . S
H1962 C1947 0.961 . S
H1963 C1947 0.960 . S
C1964 C1965 1.391 . S
C1964 C1966 1.394 . S
C1964 H1980 0.931 . S
C1965 C1964 1.391 . S
C1965 C1969 1.376 . S
C1966 C1964 1.394 . S
C1966 C1967 1.369 . S
C1966 C1970 1.531 . S
C1967 C1966 1.369 . S
C1967 C1968 1.410 1_556 S
C1967 C1975 1.503 1_556 S
C1968 C1967 1.410 1_554 S
C1968 C1969 1.392 1_554 S
C1968 C1971 1.511 . S
C1969 C1965 1.376 . S
C1969 C1968 1.392 1_556 S
C1969 H1981 0.885 1_556 S
C1970 C1966 1.531 . S
C1970 H1982 0.960 . S
C1970 H1983 0.962 . S
C1970 H1984 0.960 . S
C1971 C1968 1.511 . S
C1971 H1985 0.961 . S
C1971 H1986 0.961 . S
C1971 H1987 0.961 . S
C1972 C1973 1.370 . S
C1972 C1974 1.363 . S
C1972 H1988 0.931 . S
C1973 C1972 1.370 . S
C1973 C1977 1.408 . S
C1974 C1972 1.363 . S
C1974 C1975 1.370 . S
C1974 C1978 1.524 . S
C1975 C1967 1.503 1_554 S
C1975 C1974 1.370 . S
C1975 C1976 1.403 . S
C1976 C1975 1.403 . S
C1976 C1977 1.404 . S
C1976 C1979 1.539 . S
C1977 C1973 1.408 . S
C1977 C1976 1.404 . S
C1977 H1989 0.930 . S
C1978 C1974 1.524 . S
C1978 H1990 0.956 1_554 S
C1978 H1991 0.961 . S
C1978 H1992 0.961 . S
C1979 C1976 1.539 . S
C1979 H1993 1.032 . S
C1979 H1994 0.961 . S
C1979 H1995 0.960 . S
H1980 C1964 0.931 . S
H1981 C1969 0.885 1_554 S
H1982 C1970 0.960 . S
H1983 C1970 0.962 . S
H1984 C1970 0.960 . S
H1985 C1971 0.961 . S
H1986 C1971 0.961 . S
H1987 C1971 0.961 . S
H1988 C1972 0.931 . S
H1989 C1977 0.930 . S
H1990 C1978 0.956 1_556 S
H1991 C1978 0.961 . S
H1992 C1978 0.961 . S
H1993 C1979 1.032 . S
H1994 C1979 0.961 . S
H1995 C1979 0.960 . S
C1996 C1997 1.391 . S
C1996 C1998 1.394 . S
C1996 H2012 0.931 . S
C1997 C1996 1.391 . S
C1997 C2001 1.376 . S
C1998 C1996 1.394 . S
C1998 C1999 1.369 . S
C1998 C2002 1.531 . S
C1999 C1998 1.369 . S
C1999 C2000 1.410 . S
C1999 C2007 1.503 . S
C2000 C1999 1.410 . S
C2000 C2001 1.392 . S
C2000 C2003 1.511 . S
C2001 C1997 1.376 . S
C2001 C2000 1.392 . S
C2001 H2013 0.929 . S
C2002 C1998 1.531 . S
C2002 H2014 0.960 . S
C2002 H2015 0.962 . S
C2002 H2016 0.960 . S
C2003 C2000 1.511 . S
C2003 H2017 0.961 . S
C2003 H2018 0.961 . S
C2003 H2019 0.961 . S
C2004 C2005 1.370 . S
C2004 C2006 1.363 . S
C2004 H2020 0.931 . S
C2005 C2004 1.370 . S
C2005 C2009 1.408 . S
C2006 C2004 1.363 . S
C2006 C2007 1.370 . S
C2006 C2010 1.524 . S
C2007 C1999 1.503 . S
C2007 C2006 1.370 . S
C2007 C2008 1.403 . S
C2008 C2007 1.403 . S
C2008 C2009 1.404 . S
C2008 C2011 1.539 . S
C2009 C2005 1.408 . S
C2009 C2008 1.404 . S
C2009 H2021 0.930 . S
C2010 C2006 1.524 . S
C2010 H2022 0.956 . S
C2010 H2023 0.961 . S
C2010 H2024 0.961 . S
C2011 C2008 1.539 . S
C2011 H2025 0.958 . S
C2011 H2026 0.961 . S
C2011 H2027 0.960 . S
H2012 C1996 0.931 . S
H2013 C2001 0.929 . S
H2014 C2002 0.960 . S
H2015 C2002 0.962 . S
H2016 C2002 0.960 . S
H2017 C2003 0.961 . S
H2018 C2003 0.961 . S
H2019 C2003 0.961 . S
H2020 C2004 0.931 . S
H2021 C2009 0.930 . S
H2022 C2010 0.956 . S
H2023 C2010 0.961 . S
H2024 C2010 0.961 . S
H2025 C2011 0.958 . S
H2026 C2011 0.961 . S
H2027 C2011 0.960 . S
C2028 C2029 1.391 . S
C2028 C2030 1.394 . S
C2028 H2044 0.931 . S
C2029 C2028 1.391 . S
C2029 C2033 1.376 . S
C2030 C2028 1.394 . S
C2030 C2031 1.369 . S
C2030 C2034 1.531 . S
C2031 C2030 1.369 . S
C2031 C2032 1.410 . S
C2031 C2039 1.503 . S
C2032 C2031 1.410 . S
C2032 C2033 1.392 . S
C2032 C2035 1.511 . S
C2033 C2029 1.376 . S
C2033 C2032 1.392 . S
C2033 H2045 0.929 . S
C2034 C2030 1.531 . S
C2034 H2046 0.960 . S
C2034 H2047 0.962 . S
C2034 H2048 0.960 . S
C2035 C2032 1.511 . S
C2035 H2049 0.961 . S
C2035 H2050 0.961 . S
C2035 H2051 0.961 . S
C2036 C2037 1.370 . S
C2036 C2038 1.363 . S
C2036 H2052 0.931 . S
C2037 C2036 1.370 . S
C2037 C2041 1.408 . S
C2038 C2036 1.363 . S
C2038 C2039 1.370 . S
C2038 C2042 1.524 . S
C2039 C2031 1.503 . S
C2039 C2038 1.370 . S
C2039 C2040 1.403 . S
C2040 C2039 1.403 . S
C2040 C2041 1.404 . S
C2040 C2043 1.539 . S
C2041 C2037 1.408 . S
C2041 C2040 1.404 . S
C2041 H2053 0.930 . S
C2042 C2038 1.524 . S
C2042 H2054 0.956 . S
C2042 H2055 0.961 . S
C2042 H2056 0.961 . S
C2043 C2040 1.539 . S
C2043 H2057 0.958 . S
C2043 H2058 0.961 . S
C2043 H2059 0.960 . S
H2044 C2028 0.931 . S
H2045 C2033 0.929 . S
H2046 C2034 0.960 . S
H2047 C2034 0.962 . S
H2048 C2034 0.960 . S
H2049 C2035 0.961 . S
H2050 C2035 0.961 . S
H2051 C2035 0.961 . S
H2052 C2036 0.931 . S
H2053 C2041 0.930 . S
H2054 C2042 0.956 . S
H2055 C2042 0.961 . S
H2056 C2042 0.961 . S
H2057 C2043 0.958 . S
H2058 C2043 0.961 . S
H2059 C2043 0.960 . S
C2060 C2061 1.391 . S
C2060 C2062 1.394 . S
C2060 H2076 0.931 . S
C2061 C2060 1.391 . S
C2061 C2065 1.376 . S
C2062 C2060 1.394 . S
C2062 C2063 1.369 . S
C2062 C2066 1.531 . S
C2063 C2062 1.369 . S
C2063 C2064 1.410 . S
C2063 C2071 1.503 . S
C2064 C2063 1.410 . S
C2064 C2065 1.392 . S
C2064 C2067 1.511 . S
C2065 C2061 1.376 . S
C2065 C2064 1.392 . S
C2065 H2077 0.929 . S
C2066 C2062 1.531 . S
C2066 H2078 0.960 . S
C2066 H2079 0.962 . S
C2066 H2080 0.960 . S
C2067 C2064 1.511 . S
C2067 H2081 0.961 . S
C2067 H2082 0.961 . S
C2067 H2083 0.961 . S
C2068 C2069 1.370 . S
C2068 C2070 1.363 . S
C2068 H2084 0.931 . S
C2069 C2068 1.370 . S
C2069 C2073 1.408 . S
C2070 C2068 1.363 . S
C2070 C2071 1.370 . S
C2070 C2074 1.524 . S
C2071 C2063 1.503 . S
C2071 C2070 1.370 . S
C2071 C2072 1.403 . S
C2072 C2071 1.403 . S
C2072 C2073 1.404 . S
C2072 C2075 1.539 . S
C2073 C2069 1.408 . S
C2073 C2072 1.404 . S
C2073 H2085 0.930 . S
C2074 C2070 1.524 . S
C2074 H2086 0.956 . S
C2074 H2087 0.961 . S
C2074 H2088 0.961 . S
C2075 C2072 1.539 . S
C2075 H2089 0.958 . S
C2075 H2090 0.961 . S
C2075 H2091 0.960 . S
H2076 C2060 0.931 . S
H2077 C2065 0.929 . S
H2078 C2066 0.960 . S
H2079 C2066 0.962 . S
H2080 C2066 0.960 . S
H2081 C2067 0.961 . S
H2082 C2067 0.961 . S
H2083 C2067 0.961 . S
H2084 C2068 0.931 . S
H2085 C2073 0.930 . S
H2086 C2074 0.956 . S
H2087 C2074 0.961 . S
H2088 C2074 0.961 . S
H2089 C2075 0.958 . S
H2090 C2075 0.961 . S
H2091 C2075 0.960 . S
C2092 C2093 1.391 . S
C2092 C2094 1.394 . S
C2092 H2108 0.931 . S
C2093 C2092 1.391 . S
C2093 C2097 1.376 . S
C2094 C2092 1.394 . S
C2094 C2095 1.369 . S
C2094 C2098 1.531 . S
C2095 C2094 1.369 . S
C2095 C2096 1.410 . S
C2095 C2103 1.503 . S
C2096 C2095 1.410 . S
C2096 C2097 1.392 . S
C2096 C2099 1.511 . S
C2097 C2093 1.376 . S
C2097 C2096 1.392 . S
C2097 H2109 0.929 . S
C2098 C2094 1.531 . S
C2098 H2110 0.960 . S
C2098 H2111 0.962 . S
C2098 H2112 0.960 . S
C2099 C2096 1.511 . S
C2099 H2113 0.961 . S
C2099 H2114 0.961 . S
C2099 H2115 0.961 . S
C2100 C2101 1.370 . S
C2100 C2102 1.363 . S
C2100 H2116 0.931 . S
C2101 C2100 1.370 . S
C2101 C2105 1.408 . S
C2102 C2100 1.363 . S
C2102 C2103 1.370 . S
C2102 C2106 1.524 . S
C2103 C2095 1.503 . S
C2103 C2102 1.370 . S
C2103 C2104 1.403 . S
C2104 C2103 1.403 . S
C2104 C2105 1.404 . S
C2104 C2107 1.539 . S
C2105 C2101 1.408 . S
C2105 C2104 1.404 . S
C2105 H2117 0.930 . S
C2106 C2102 1.524 . S
C2106 H2118 0.956 . S
C2106 H2119 0.961 . S
C2106 H2120 0.961 . S
C2107 C2104 1.539 . S
C2107 H2121 0.958 . S
C2107 H2122 0.961 . S
C2107 H2123 0.960 . S
H2108 C2092 0.931 . S
H2109 C2097 0.929 . S
H2110 C2098 0.960 . S
H2111 C2098 0.962 . S
H2112 C2098 0.960 . S
H2113 C2099 0.961 . S
H2114 C2099 0.961 . S
H2115 C2099 0.961 . S
H2116 C2100 0.931 . S
H2117 C2105 0.930 . S
H2118 C2106 0.956 . S
H2119 C2106 0.961 . S
H2120 C2106 0.961 . S
H2121 C2107 0.958 . S
H2122 C2107 0.961 . S
H2123 C2107 0.960 . S
C2124 C2125 1.391 . S
C2124 C2126 1.394 . S
C2124 H2140 0.931 . S
C2125 C2124 1.391 . S
C2125 C2129 1.376 . S
C2126 C2124 1.394 . S
C2126 C2127 1.369 . S
C2126 C2130 1.531 . S
C2127 C2126 1.369 . S
C2127 C2128 1.410 . S
C2127 C2135 1.503 . S
C2128 C2127 1.410 . S
C2128 C2129 1.392 . S
C2128 C2131 1.511 . S
C2129 C2125 1.376 . S
C2129 C2128 1.392 . S
C2129 H2141 0.929 . S
C2130 C2126 1.531 . S
C2130 H2142 0.960 . S
C2130 H2143 0.962 . S
C2130 H2144 0.960 . S
C2131 C2128 1.511 . S
C2131 H2145 0.961 . S
C2131 H2146 0.961 . S
C2131 H2147 0.961 . S
C2132 C2133 1.370 . S
C2132 C2134 1.363 . S
C2132 H2148 0.931 . S
C2133 C2132 1.370 . S
C2133 C2137 1.408 . S
C2134 C2132 1.363 . S
C2134 C2135 1.370 . S
C2134 C2138 1.524 . S
C2135 C2127 1.503 . S
C2135 C2134 1.370 . S
C2135 C2136 1.403 . S
C2136 C2135 1.403 . S
C2136 C2137 1.404 . S
C2136 C2139 1.539 . S
C2137 C2133 1.408 . S
C2137 C2136 1.404 . S
C2137 H2149 0.930 . S
C2138 C2134 1.524 . S
C2138 H2150 0.956 . S
C2138 H2151 0.961 . S
C2138 H2152 0.961 . S
C2139 C2136 1.539 . S
C2139 H2153 0.958 . S
C2139 H2154 0.961 . S
C2139 H2155 0.960 . S
H2140 C2124 0.931 . S
H2141 C2129 0.929 . S
H2142 C2130 0.960 . S
H2143 C2130 0.962 . S
H2144 C2130 0.960 . S
H2145 C2131 0.961 . S
H2146 C2131 0.961 . S
H2147 C2131 0.961 . S
H2148 C2132 0.931 . S
H2149 C2137 0.930 . S
H2150 C2138 0.956 . S
H2151 C2138 0.961 . S
H2152 C2138 0.961 . S
H2153 C2139 0.958 . S
H2154 C2139 0.961 . S
H2155 C2139 0.960 . S
C2156 C2157 1.391 . S
C2156 C2158 1.394 . S
C2156 H2172 0.931 . S
C2157 C2156 1.391 . S
C2157 C2161 1.376 . S
C2158 C2156 1.394 . S
C2158 C2159 1.369 . S
C2158 C2162 1.531 . S
C2159 C2158 1.369 . S
C2159 C2160 1.410 . S
C2159 C2167 1.503 . S
C2160 C2159 1.410 . S
C2160 C2161 1.392 . S
C2160 C2163 1.511 . S
C2161 C2157 1.376 . S
C2161 C2160 1.392 . S
C2161 H2173 0.929 . S
C2162 C2158 1.531 . S
C2162 H2174 0.960 . S
C2162 H2175 0.962 . S
C2162 H2176 0.960 . S
C2163 C2160 1.511 . S
C2163 H2177 0.961 . S
C2163 H2178 0.961 . S
C2163 H2179 0.961 . S
C2164 C2165 1.370 . S
C2164 C2166 1.363 . S
C2164 H2180 0.931 . S
C2165 C2164 1.370 . S
C2165 C2169 1.408 . S
C2166 C2164 1.363 . S
C2166 C2167 1.370 . S
C2166 C2170 1.524 . S
C2167 C2159 1.503 . S
C2167 C2166 1.370 . S
C2167 C2168 1.403 . S
C2168 C2167 1.403 . S
C2168 C2169 1.404 . S
C2168 C2171 1.539 . S
C2169 C2165 1.408 . S
C2169 C2168 1.404 . S
C2169 H2181 0.930 . S
C2170 C2166 1.524 . S
C2170 H2182 0.956 . S
C2170 H2183 0.961 . S
C2170 H2184 0.961 . S
C2171 C2168 1.539 . S
C2171 H2185 0.958 . S
C2171 H2186 0.961 . S
C2171 H2187 0.960 . S
H2172 C2156 0.931 . S
H2173 C2161 0.929 . S
H2174 C2162 0.960 . S
H2175 C2162 0.962 . S
H2176 C2162 0.960 . S
H2177 C2163 0.961 . S
H2178 C2163 0.961 . S
H2179 C2163 0.961 . S
H2180 C2164 0.931 . S
H2181 C2169 0.930 . S
H2182 C2170 0.956 . S
H2183 C2170 0.961 . S
H2184 C2170 0.961 . S
H2185 C2171 0.958 . S
H2186 C2171 0.961 . S
H2187 C2171 0.960 . S
C2188 C2189 1.391 . S
C2188 C2190 1.394 . S
C2188 H2204 0.931 . S
C2189 C2188 1.391 . S
C2189 C2193 1.376 . S
C2190 C2188 1.394 . S
C2190 C2191 1.369 . S
C2190 C2194 1.531 . S
C2191 C2190 1.369 . S
C2191 C2192 1.410 . S
C2191 C2199 1.503 . S
C2192 C2191 1.410 . S
C2192 C2193 1.392 . S
C2192 C2195 1.511 . S
C2193 C2189 1.376 . S
C2193 C2192 1.392 . S
C2193 H2205 0.929 . S
C2194 C2190 1.531 . S
C2194 H2206 0.960 . S
C2194 H2207 0.962 . S
C2194 H2208 0.960 . S
C2195 C2192 1.511 . S
C2195 H2209 0.961 . S
C2195 H2210 0.961 . S
C2195 H2211 0.961 . S
C2196 C2197 1.370 . S
C2196 C2198 1.363 . S
C2196 H2212 0.931 . S
C2197 C2196 1.370 . S
C2197 C2201 1.408 . S
C2198 C2196 1.363 . S
C2198 C2199 1.370 . S
C2198 C2202 1.524 . S
C2199 C2191 1.503 . S
C2199 C2198 1.370 . S
C2199 C2200 1.403 . S
C2200 C2199 1.403 . S
C2200 C2201 1.404 . S
C2200 C2203 1.539 . S
C2201 C2197 1.408 . S
C2201 C2200 1.404 . S
C2201 H2213 0.930 . S
C2202 C2198 1.524 . S
C2202 H2214 0.956 . S
C2202 H2215 0.961 . S
C2202 H2216 0.961 . S
C2203 C2200 1.539 . S
C2203 H2217 0.958 . S
C2203 H2218 0.961 . S
C2203 H2219 0.960 . S
H2204 C2188 0.931 . S
H2205 C2193 0.929 . S
H2206 C2194 0.960 . S
H2207 C2194 0.962 . S
H2208 C2194 0.960 . S
H2209 C2195 0.961 . S
H2210 C2195 0.961 . S
H2211 C2195 0.961 . S
H2212 C2196 0.931 . S
H2213 C2201 0.930 . S
H2214 C2202 0.956 . S
H2215 C2202 0.961 . S
H2216 C2202 0.961 . S
H2217 C2203 0.958 . S
H2218 C2203 0.961 . S
H2219 C2203 0.960 . S
C2220 C2221 1.391 . S
C2220 C2222 1.394 . S
C2220 H2236 0.931 . S
C2221 C2220 1.391 . S
C2221 C2225 1.376 . S
C2222 C2220 1.394 . S
C2222 C2223 1.369 . S
C2222 C2226 1.531 . S
C2223 C2222 1.369 . S
C2223 C2224 1.410 . S
C2223 C2231 1.503 . S
C2224 C2223 1.410 . S
C2224 C2225 1.392 . S
C2224 C2227 1.511 . S
C2225 C2221 1.376 . S
C2225 C2224 1.392 . S
C2225 H2237 0.929 . S
C2226 C2222 1.531 . S
C2226 H2238 0.960 . S
C2226 H2239 0.962 . S
C2226 H2240 0.960 . S
C2227 C2224 1.511 . S
C2227 H2241 0.961 . S
C2227 H2242 0.961 . S
C2227 H2243 0.961 . S
C2228 C2229 1.370 . S
C2228 C2230 1.363 . S
C2228 H2244 0.931 . S
C2229 C2228 1.370 . S
C2229 C2233 1.408 . S
C2230 C2228 1.363 . S
C2230 C2231 1.370 . S
C2230 C2234 1.524 . S
C2231 C2223 1.503 . S
C2231 C2230 1.370 . S
C2231 C2232 1.403 . S
C2232 C2231 1.403 . S
C2232 C2233 1.404 . S
C2232 C2235 1.539 . S
C2233 C2229 1.408 . S
C2233 C2232 1.404 . S
C2233 H2245 0.930 . S
C2234 C2230 1.524 . S
C2234 H2246 0.956 . S
C2234 H2247 0.961 . S
C2234 H2248 0.961 . S
C2235 C2232 1.539 . S
C2235 H2249 0.958 . S
C2235 H2250 0.961 . S
C2235 H2251 0.960 . S
H2236 C2220 0.931 . S
H2237 C2225 0.929 . S
H2238 C2226 0.960 . S
H2239 C2226 0.962 . S
H2240 C2226 0.960 . S
H2241 C2227 0.961 . S
H2242 C2227 0.961 . S
H2243 C2227 0.961 . S
H2244 C2228 0.931 . S
H2245 C2233 0.930 . S
H2246 C2234 0.956 . S
H2247 C2234 0.961 . S
H2248 C2234 0.961 . S
H2249 C2235 0.958 . S
H2250 C2235 0.961 . S
H2251 C2235 0.960 . S
C2252 C2253 1.391 . S
C2252 C2254 1.394 . S
C2252 H2268 0.931 . S
C2253 C2252 1.391 . S
C2253 C2257 1.376 . S
C2254 C2252 1.394 . S
C2254 C2255 1.369 . S
C2254 C2258 1.531 . S
C2255 C2254 1.369 . S
C2255 C2256 1.410 . S
C2255 C2263 1.503 . S
C2256 C2255 1.410 . S
C2256 C2257 1.392 . S
C2256 C2259 1.511 . S
C2257 C2253 1.376 . S
C2257 C2256 1.392 . S
C2257 H2269 0.929 . S
C2258 C2254 1.531 . S
C2258 H2270 0.960 . S
C2258 H2271 0.962 . S
C2258 H2272 0.960 . S
C2259 C2256 1.511 . S
C2259 H2273 0.961 . S
C2259 H2274 0.961 . S
C2259 H2275 0.961 . S
C2260 C2261 1.370 . S
C2260 C2262 1.363 . S
C2260 H2276 0.931 . S
C2261 C2260 1.370 . S
C2261 C2265 1.408 . S
C2262 C2260 1.363 . S
C2262 C2263 1.370 . S
C2262 C2266 1.524 . S
C2263 C2255 1.503 . S
C2263 C2262 1.370 . S
C2263 C2264 1.403 . S
C2264 C2263 1.403 . S
C2264 C2265 1.404 . S
C2264 C2267 1.539 . S
C2265 C2261 1.408 . S
C2265 C2264 1.404 . S
C2265 H2277 0.930 . S
C2266 C2262 1.524 . S
C2266 H2278 0.956 . S
C2266 H2279 0.961 . S
C2266 H2280 0.961 . S
C2267 C2264 1.539 . S
C2267 H2281 0.958 . S
C2267 H2282 0.961 . S
C2267 H2283 0.960 . S
H2268 C2252 0.931 . S
H2269 C2257 0.929 . S
H2270 C2258 0.960 . S
H2271 C2258 0.962 . S
H2272 C2258 0.960 . S
H2273 C2259 0.961 . S
H2274 C2259 0.961 . S
H2275 C2259 0.961 . S
H2276 C2260 0.931 . S
H2277 C2265 0.930 . S
H2278 C2266 0.956 . S
H2279 C2266 0.961 . S
H2280 C2266 0.961 . S
H2281 C2267 0.958 . S
H2282 C2267 0.961 . S
H2283 C2267 0.960 . S
C2284 C2285 1.391 . S
C2284 C2286 1.394 . S
C2284 H2300 0.931 . S
C2285 C2284 1.391 . S
C2285 C2289 1.376 . S
C2286 C2284 1.394 . S
C2286 C2287 1.369 . S
C2286 C2290 1.531 . S
C2287 C2286 1.369 . S
C2287 C2288 1.410 . S
C2287 C2295 1.503 . S
C2288 C2287 1.410 . S
C2288 C2289 1.392 . S
C2288 C2291 1.511 . S
C2289 C2285 1.376 . S
C2289 C2288 1.392 . S
C2289 H2301 0.929 . S
C2290 C2286 1.531 . S
C2290 H2302 0.960 . S
C2290 H2303 0.962 . S
C2290 H2304 0.960 . S
C2291 C2288 1.511 . S
C2291 H2305 0.961 . S
C2291 H2306 0.961 . S
C2291 H2307 0.961 . S
C2292 C2293 1.370 . S
C2292 C2294 1.363 . S
C2292 H2308 0.931 . S
C2293 C2292 1.370 . S
C2293 C2297 1.408 . S
C2294 C2292 1.363 . S
C2294 C2295 1.370 . S
C2294 C2298 1.524 . S
C2295 C2287 1.503 . S
C2295 C2294 1.370 . S
C2295 C2296 1.403 . S
C2296 C2295 1.403 . S
C2296 C2297 1.404 . S
C2296 C2299 1.539 . S
C2297 C2293 1.408 . S
C2297 C2296 1.404 . S
C2297 H2309 0.930 . S
C2298 C2294 1.524 . S
C2298 H2310 0.956 . S
C2298 H2311 0.961 . S
C2298 H2312 0.961 . S
C2299 C2296 1.539 . S
C2299 H2313 0.958 . S
C2299 H2314 0.961 . S
C2299 H2315 0.960 . S
H2300 C2284 0.931 . S
H2301 C2289 0.929 . S
H2302 C2290 0.960 . S
H2303 C2290 0.962 . S
H2304 C2290 0.960 . S
H2305 C2291 0.961 . S
H2306 C2291 0.961 . S
H2307 C2291 0.961 . S
H2308 C2292 0.931 . S
H2309 C2297 0.930 . S
H2310 C2298 0.956 . S
H2311 C2298 0.961 . S
H2312 C2298 0.961 . S
H2313 C2299 0.958 . S
H2314 C2299 0.961 . S
H2315 C2299 0.960 . S
C973 C664 1.247 . S
C981 C16 1.314 . S
C1005 C97 1.276 . S
C1013 C745 1.311 . S
C1037 C826 1.233 . S
C1045 C178 1.228 . S
C1069 C259 1.345 . S
C1077 C907 1.276 . S
C1101 C340 1.318 . S
C1109 C502 1.296 . S
C1133 C583 1.213 . S
C1141 C421 1.235 . S
C1165 C604 3.171 . S
C1173 C37 3.166 . S
C1197 C685 3.171 . S
C1205 C118 3.165 . S
C1229 C766 3.176 . S
C1237 C199 3.172 . S
C1261 C280 3.152 . S
C1269 C847 3.172 . S
C1293 C361 3.161 . S
C1301 C928 3.158 . S
C1325 C523 3.150 . S
C1333 C442 3.170 . S
C1357 C423 2.051 . S
C1365 C52 1.832 . S
C1389 C133 1.815 . S
C1397 C18 2.056 . S
C1421 C99 2.039 . S
C1429 C214 1.859 . S
C1453 C180 2.044 . S
C1461 C295 1.836 . S
C1485 C261 2.067 . S
C1493 C376 1.854 . S
C1517 C457 1.829 . S
C1525 C342 2.040 . S
C1549 C585 2.049 . S
C1557 C538 1.813 . S
C1581 C666 2.062 . S
C1589 C619 1.856 . S
C1613 C747 2.049 . S
C1621 C700 1.865 . S
C1645 C828 2.015 . S
C1653 C781 1.823 . S
C1677 C862 1.800 . S
C1685 C909 2.050 . S
C1709 C504 2.048 . S
C1717 C943 1.865 . S
C1741 C34 1.223 . S
C1749 C617 1.265 . S
C1773 C115 1.215 . S
C1781 C698 1.319 . S
C1805 C779 1.305 . S
C1813 C196 1.322 . S
C1837 C860 1.230 . S
C1845 C277 1.249 . S
C1869 C358 1.304 . S
C1877 C941 1.285 . S
C1901 C536 1.381 . S
C1909 C439 1.290 . S
C1933 C520 1.204 . S
C1941 C455 1.292 . S
C1965 C601 1.290 . S
C1973 C50 1.338 . S
C1997 C131 1.342 . S
C2005 C682 1.244 . S
C2029 C763 1.280 . S
C2037 C212 1.257 . S
C2061 C293 1.375 . S
C2069 C844 1.281 . S
C2093 C374 1.341 . S
C2101 C925 1.238 . S
C2125 C707 0.770 . S
C2133 C59 0.688 . S
C2157 C140 0.541 . S
C2165 C788 0.664 . S
C2189 C869 0.674 . S
C2197 C221 0.608 . S
C2221 C302 0.600 . S
C2229 C950 0.688 . S
C2253 C383 0.682 . S
C2261 C545 0.618 . S
C2285 C626 0.676 . S
C2293 C464 0.703 . S
