# Generated by pormake.
# Topology qtz-e, (6)-cn, num edge types: 1
# Building blocks:
#     Node 0, Type 0, BuildingBlock: PAMTOO_clean_sbu_0, # of connection points: 6
#     Node 1, Type 0, BuildingBlock: PAMTOO_clean_sbu_0, # of connection points: 6
#     Node 2, Type 0, BuildingBlock: PAMTOO_clean_sbu_0, # of connection points: 6
#     Node 3, Type 0, BuildingBlock: PAMTOO_clean_sbu_0, # of connection points: 6
#     Node 4, Type 0, BuildingBlock: PAMTOO_clean_sbu_0, # of connection points: 6
#     Node 5, Type 0, BuildingBlock: PAMTOO_clean_sbu_0, # of connection points: 6
#     Edge 6, Type (0, 0), BuildingBlock: XUDNAN_clean_linker_2, # of connection points: 2
#     Edge 7, Type (0, 0), BuildingBlock: XUDNAN_clean_linker_2, # of connection points: 2
#     Edge 8, Type (0, 0), BuildingBlock: XUDNAN_clean_linker_2, # of connection points: 2
#     Edge 9, Type (0, 0), BuildingBlock: XUDNAN_clean_linker_2, # of connection points: 2
#     Edge 10, Type (0, 0), BuildingBlock: XUDNAN_clean_linker_2, # of connection points: 2
#     Edge 11, Type (0, 0), BuildingBlock: XUDNAN_clean_linker_2, # of connection points: 2
#     Edge 12, Type (0, 0), BuildingBlock: XUDNAN_clean_linker_2, # of connection points: 2
#     Edge 13, Type (0, 0), BuildingBlock: XUDNAN_clean_linker_2, # of connection points: 2
#     Edge 14, Type (0, 0), BuildingBlock: XUDNAN_clean_linker_2, # of connection points: 2
#     Edge 15, Type (0, 0), BuildingBlock: XUDNAN_clean_linker_2, # of connection points: 2
#     Edge 16, Type (0, 0), BuildingBlock: XUDNAN_clean_linker_2, # of connection points: 2
#     Edge 17, Type (0, 0), BuildingBlock: XUDNAN_clean_linker_2, # of connection points: 2
#     Edge 18, Type (0, 0), BuildingBlock: XUDNAN_clean_linker_2, # of connection points: 2
#     Edge 19, Type (0, 0), BuildingBlock: XUDNAN_clean_linker_2, # of connection points: 2
#     Edge 20, Type (0, 0), BuildingBlock: XUDNAN_clean_linker_2, # of connection points: 2
#     Edge 21, Type (0, 0), BuildingBlock: XUDNAN_clean_linker_2, # of connection points: 2
#     Edge 22, Type (0, 0), BuildingBlock: XUDNAN_clean_linker_2, # of connection points: 2
#     Edge 23, Type (0, 0), BuildingBlock: XUDNAN_clean_linker_2, # of connection points: 2
# Relax obj value: 0.196
# Max RMSD: 0.212
# Mean RMSD: 0.212
data_MOF--net-qtz-e--node1-PAMTOO_clean_sbu_0--edge1-XUDNAN_clean_linker_2
_symmetry_space_group_name_H-M    P1
_symmetry_Int_Tables_number       1
_symmetry_cell_setting            triclinic
loop_
_symmetry_equiv_pos_as_xyz
'x, y, z'
_cell_length_a     26.805213
_cell_length_b     26.948718
_cell_length_c     51.203947
_cell_angle_alpha  89.918022
_cell_angle_beta   90.100064
_cell_angle_gamma 119.73487
loop_
_atom_site_label
_atom_site_type_symbol
_atom_site_fract_x
_atom_site_fract_y
_atom_site_fract_z
_atom_type_partial_charge
Dy0 Dy 0.13036 0.35442 0.14548 0.0
Dy1 Dy 0.22281 0.46023 0.18428 0.0
C2 C 0.25768 0.37582 0.15776 0.0
O3 O 0.10466 0.3204 0.18621 0.0
O4 O 0.14617 0.40512 0.20895 0.0
O5 O 0.0905 0.26604 0.13344 0.0
O6 O 0.07541 0.32575 0.11124 0.0
O7 O 0.16426 0.48864 0.16723 0.0
O8 O 0.08512 0.40282 0.15574 0.0
O9 O 0.2666 0.48034 0.14549 0.0
O10 O 0.18393 0.43233 0.12144 0.0
O11 O 0.27174 0.549 0.19563 0.0
O12 O 0.27531 0.48362 0.21892 0.0
C13 C 0.11035 0.3499 0.20759 0.0
O14 O 0.21482 0.35808 0.14127 0.0
O15 O 0.25675 0.39976 0.17992 0.0
C16 C 0.0924 0.26076 0.0872 0.0
C17 C 0.13679 0.24301 0.04002 0.0
C18 C 0.16602 0.25066 0.06384 0.0
C19 C 0.14418 0.25945 0.08707 0.0
C20 C 0.0623 0.25183 0.0636 0.0
C21 C 0.08414 0.24284 0.04025 0.0
C22 C 0.07249 0.27596 0.11136 0.0
C23 C 0.11009 0.45833 0.16005 0.0
C24 C 0.23987 0.46573 0.12292 0.0
C25 C 0.27285 0.55745 0.24128 0.0
C26 C 0.24295 0.59215 0.28762 0.0
C27 C 0.20014 0.55547 0.27007 0.0
C28 C 0.21499 0.53828 0.2471 0.0
C29 C 0.31575 0.5936 0.25875 0.0
C30 C 0.30093 0.61092 0.28179 0.0
C31 C 0.2876 0.53682 0.21773 0.0
H32 H 0.20616 0.25019 0.06458 0.0
H33 H 0.16865 0.26646 0.10487 0.0
H34 H 0.02256 0.25313 0.06312 0.0
H35 H 0.0607 0.2376 0.02228 0.0
H36 H 0.15513 0.53978 0.27418 0.0
H37 H 0.18128 0.50971 0.23392 0.0
H38 H 0.36057 0.6083 0.25458 0.0
H39 H 0.33483 0.63972 0.29482 0.0
Dy40 Dy 0.8913 0.23937 0.43649 0.0
Dy41 Dy 0.82277 0.28718 0.40047 0.0
C42 C 0.75522 0.16628 0.42797 0.0
O43 O 0.93003 0.25613 0.3961 0.0
O44 O 0.84832 0.23747 0.37425 0.0
O45 O 0.91451 0.17417 0.44373 0.0
O46 O 0.94656 0.24815 0.46895 0.0
O47 O 0.91547 0.35166 0.39886 0.0
O48 O 0.93903 0.33508 0.43936 0.0
O49 O 0.82301 0.31822 0.44086 0.0
O50 O 0.83375 0.25126 0.46428 0.0
O51 O 0.81342 0.35731 0.38584 0.0
O52 O 0.75242 0.26983 0.37486 0.0
C53 C 0.90014 0.24402 0.37431 0.0
O54 O 0.80326 0.16426 0.42884 0.0
O55 O 0.75518 0.21329 0.42177 0.0
C56 C 0.92162 0.15987 0.48878 0.0
C57 C 0.88574 0.08748 0.53304 0.0
C58 C 0.85663 0.11667 0.52557 0.0
C59 C 0.87424 0.1523 0.50358 0.0
C60 C 0.95082 0.131 0.49616 0.0
C61 C 0.93303 0.09507 0.51804 0.0
C62 C 0.94048 0.19747 0.46565 0.0
C63 C 0.94586 0.37058 0.42028 0.0
C64 C 0.81948 0.29137 0.46281 0.0
C65 C 0.77127 0.34167 0.34431 0.0
C66 C 0.76859 0.37216 0.29226 0.0
C67 C 0.79329 0.33838 0.29869 0.0
C68 C 0.79492 0.32344 0.32465 0.0
C69 C 0.74744 0.376 0.33801 0.0
C70 C 0.74618 0.39129 0.31214 0.0
C71 C 0.76939 0.32386 0.37134 0.0
H72 H 0.81968 0.11128 0.53648 0.0
H73 H 0.85079 0.17389 0.4981 0.0
H74 H 0.98745 0.1363 0.485 0.0
H75 H 0.95678 0.07374 0.52341 0.0
H76 H 0.81126 0.32361 0.28367 0.0
H77 H 0.81386 0.29712 0.32935 0.0
H78 H 0.72901 0.39025 0.35305 0.0
H79 H 0.72636 0.41687 0.30761 0.0
Dy80 Dy 0.64329 0.78492 0.81365 0.0
Dy81 Dy 0.52717 0.71109 0.84996 0.0
C82 C 0.5752 0.84099 0.83757 0.0
O83 O 0.67159 0.75562 0.84902 0.0
O84 O 0.60261 0.74978 0.87689 0.0
O85 O 0.70394 0.86715 0.79741 0.0
O86 O 0.71658 0.79447 0.79179 0.0
O87 O 0.55159 0.64955 0.83325 0.0
O88 O 0.59527 0.69824 0.79591 0.0
O89 O 0.48985 0.71148 0.81081 0.0
O90 O 0.57157 0.77323 0.78732 0.0
O91 O 0.45422 0.63168 0.86255 0.0
O92 O 0.4752 0.71136 0.88192 0.0
C93 C 0.65185 0.7519 0.87287 0.0
O94 O 0.62587 0.84454 0.8373 0.0
O95 O 0.52865 0.79123 0.83926 0.0
C96 C 0.74536 0.86312 0.75749 0.0
C97 C 0.76922 0.89659 0.70453 0.0
C98 C 0.79809 0.93601 0.72469 0.0
C99 C 0.78637 0.91936 0.75087 0.0
C100 C 0.71577 0.82371 0.73745 0.0
C101 C 0.72785 0.84022 0.71121 0.0
C102 C 0.73313 0.84732 0.78534 0.0
C103 C 0.56583 0.65002 0.80868 0.0
C104 C 0.51535 0.74111 0.78959 0.0
C105 C 0.44027 0.62995 0.90851 0.0
C106 C 0.43023 0.58229 0.95853 0.0
C107 C 0.45078 0.56412 0.93749 0.0
C108 C 0.45614 0.58803 0.91268 0.0
C109 C 0.42096 0.64887 0.92965 0.0
C110 C 0.41622 0.6255 0.95444 0.0
C111 C 0.44477 0.65576 0.88263 0.0
H112 H 0.83055 0.97955 0.72022 0.0
H113 H 0.80941 0.95053 0.76602 0.0
H114 H 0.68326 0.78025 0.74206 0.0
H115 H 0.70438 0.80904 0.69614 0.0
H116 H 0.46179 0.53082 0.94018 0.0
H117 H 0.472 0.57321 0.89679 0.0
H118 H 0.40881 0.68136 0.92691 0.0
H119 H 0.39924 0.63957 0.97018 0.0
Dy120 Dy 0.7804 0.65976 0.10183 0.0
Dy121 Dy 0.73904 0.54591 0.0643 0.0
C122 C 0.85964 0.60128 0.09427 0.0
O123 O 0.76193 0.68081 0.0614 0.0
O124 O 0.78636 0.62285 0.03916 0.0
O125 O 0.84319 0.74746 0.11089 0.0
O126 O 0.7649 0.70341 0.13353 0.0
O127 O 0.6673 0.5651 0.06511 0.0
O128 O 0.68456 0.60534 0.10564 0.0
O129 O 0.71487 0.51149 0.10476 0.0
O130 O 0.77182 0.59203 0.12923 0.0
O131 O 0.67243 0.46463 0.04956 0.0
O132 O 0.76103 0.49965 0.03685 0.0
C133 C 0.77585 0.66535 0.03946 0.0
O134 O 0.85886 0.64958 0.09714 0.0
O135 O 0.81548 0.5553 0.08495 0.0
C136 C 0.8484 0.77042 0.15615 0.0
C137 C 0.91083 0.81413 0.20338 0.0
C138 C 0.92059 0.77726 0.18736 0.0
C139 C 0.88964 0.75557 0.16399 0.0
C140 C 0.83771 0.80598 0.17232 0.0
C141 C 0.86831 0.82742 0.19562 0.0
C142 C 0.81536 0.74889 0.13154 0.0
C143 C 0.64845 0.5751 0.08698 0.0
C144 C 0.73902 0.53639 0.12695 0.0
C145 C 0.68798 0.43588 0.00802 0.0
C146 C 0.65565 0.38172 0.95913 0.0
C147 C 0.6221 0.35571 0.98138 0.0
C148 C 0.63828 0.38247 1.0056 0.0
C149 C 0.72029 0.46335 0.98563 0.0
C150 C 0.70412 0.43643 0.96132 0.0
C151 C 0.70802 0.45849 0.03435 0.0
H152 H 0.95302 0.76617 0.19256 0.0
H153 H 0.89823 0.72761 0.15196 0.0
H154 H 0.80558 0.81737 0.16688 0.0
H155 H 0.85838 0.85442 0.20763 0.0
H156 H 0.5837 0.31417 0.98015 0.0
H157 H 0.61283 0.36059 0.02263 0.0
H158 H 0.75891 0.50467 0.98701 0.0
H159 H 0.73066 0.45743 0.94445 0.0
Dy160 Dy 0.23483 0.88621 0.47557 0.0
Dy161 Dy 0.25684 0.79493 0.5118 0.0
C162 C 0.13479 0.75969 0.48823 0.0
O163 O 0.22209 0.90164 0.51753 0.0
O164 O 0.28197 0.87313 0.53556 0.0
O165 O 0.18178 0.92286 0.46513 0.0
O166 O 0.26207 0.94962 0.4448 0.0
O167 O 0.33649 0.84761 0.48917 0.0
O168 O 0.32953 0.92854 0.48371 0.0
O169 O 0.23675 0.75284 0.47273 0.0
O170 O 0.2444 0.82803 0.44751 0.0
O171 O 0.31023 0.76118 0.5261 0.0
O172 O 0.22524 0.73066 0.54199 0.0
C173 C 0.25397 0.90141 0.53704 0.0
O174 O 0.1567 0.80151 0.47129 0.0
O175 O 0.16228 0.76245 0.50989 0.0
C176 C 0.18396 0.94063 0.4195 0.0
C177 C 0.12793 0.92439 0.37048 0.0
C178 C 0.11008 0.87881 0.38832 0.0
C179 C 0.13789 0.8868 0.41251 0.0
C180 C 0.20263 0.98575 0.40161 0.0
C181 C 0.17519 0.97775 0.37741 0.0
C182 C 0.21365 0.95015 0.44502 0.0
C183 C 0.35998 0.90233 0.48408 0.0
C184 C 0.23806 0.77651 0.45005 0.0
C185 C 0.29708 0.73795 0.57093 0.0
C186 C 0.33806 0.74696 0.62245 0.0
C187 C 0.31177 0.77853 0.61454 0.0
C188 C 0.29177 0.77436 0.58895 0.0
C189 C 0.32425 0.70728 0.57861 0.0
C190 C 0.34479 0.71189 0.60413 0.0
C191 C 0.27382 0.73097 0.54428 0.0
H192 H 0.07381 0.83721 0.38389 0.0
H193 H 0.12307 0.85097 0.42583 0.0
H194 H 0.23858 0.02738 0.40637 0.0
H195 H 0.19135 0.01361 0.36407 0.0
H196 H 0.30666 0.80641 0.62817 0.0
H197 H 0.27157 0.79903 0.58333 0.0
H198 H 0.32891 0.67918 0.56495 0.0
H199 H 0.36451 0.68678 0.60973 0.0
Dy200 Dy 0.35772 0.13351 0.76562 0.0
Dy201 Dy 0.47543 0.21161 0.73038 0.0
C202 C 0.39628 0.2577 0.74542 0.0
O203 O 0.33101 0.11032 0.72369 0.0
O204 O 0.41896 0.13821 0.7047 0.0
O205 O 0.27219 0.11725 0.77479 0.0
O206 O 0.30894 0.07434 0.79657 0.0
O207 O 0.49076 0.15132 0.7536 0.0
O208 O 0.39877 0.07834 0.76146 0.0
O209 O 0.49913 0.24898 0.77069 0.0
O210 O 0.42921 0.17329 0.79418 0.0
O211 O 0.55203 0.22375 0.71137 0.0
O212 O 0.53056 0.29146 0.71039 0.0
C213 C 0.36254 0.10971 0.70408 0.0
O214 O 0.38284 0.22594 0.7664 0.0
O215 O 0.41214 0.24101 0.72471 0.0
C216 C 0.2571 0.10861 0.8204 0.0
C217 C 0.24142 0.14901 0.86909 0.0
C218 C 0.28121 0.18684 0.85071 0.0
C219 C 0.28915 0.16686 0.82677 0.0
C220 C 0.21652 0.07071 0.83834 0.0
C221 C 0.20863 0.09069 0.86245 0.0
C222 C 0.26834 0.08762 0.79565 0.0
C223 C 0.45488 0.09856 0.76065 0.0
C224 C 0.47867 0.22091 0.79271 0.0
C225 C 0.58197 0.28367 0.67453 0.0
C226 C 0.62532 0.30054 0.62333 0.0
C227 C 0.57794 0.2479 0.63063 0.0
C228 C 0.55624 0.23957 0.65604 0.0
C229 C 0.62782 0.33675 0.66707 0.0
C230 C 0.64929 0.34522 0.64166 0.0
C231 C 0.56508 0.2738 0.70211 0.0
H232 H 0.30654 0.23212 0.85484 0.0
H233 H 0.32092 0.19698 0.81332 0.0
H234 H 0.19163 0.02554 0.83389 0.0
H235 H 0.17805 0.0602 0.87616 0.0
H236 H 0.55823 0.21297 0.61681 0.0
H237 H 0.52053 0.19828 0.66143 0.0
H238 H 0.64828 0.37111 0.68114 0.0
H239 H 0.68617 0.38603 0.63669 0.0
H240 H 0.28162 0.70857 0.43366 0.0
H241 H 0.16339 0.76821 0.4128 0.0
H242 H 0.14304 0.71698 0.37087 0.0
H243 H 0.34439 0.73018 0.37243 0.0
H244 H 0.35346 0.66823 0.37264 0.0
H245 H 0.35161 0.7009 0.40296 0.0
H246 H 0.26783 0.60425 0.41919 0.0
H247 H 0.26956 0.57105 0.38892 0.0
H248 H 0.20367 0.5671 0.39965 0.0
H249 H 0.14294 0.66907 0.32991 0.0
H250 H 0.16528 0.62923 0.29129 0.0
H251 H 0.28602 0.60235 0.33733 0.0
C252 C 0.25054 0.70951 0.42042 0.0
C253 C 0.22389 0.74194 0.42625 0.0
C254 C 0.18433 0.7436 0.40845 0.0
C255 C 0.17219 0.71436 0.38472 0.0
C256 C 0.20032 0.68401 0.37906 0.0
C257 C 0.23873 0.68132 0.39631 0.0
C258 C 0.2675 0.65073 0.38414 0.0
C259 C 0.33311 0.68986 0.38297 0.0
C260 C 0.25115 0.59496 0.39885 0.0
C261 C 0.24088 0.63876 0.35712 0.0
C262 C 0.20133 0.65723 0.35487 0.0
C263 C 0.17311 0.65354 0.33149 0.0
C264 C 0.186 0.63076 0.30969 0.0
C265 C 0.22717 0.61251 0.31136 0.0
C266 C 0.25444 0.61608 0.3355 0.0
H267 H 0.64969 0.22609 0.59758 0.0
H268 H 0.66244 0.39253 0.59059 0.0
H269 H 0.71418 0.40839 0.5488 0.0
H270 H 0.7875 0.26564 0.57295 0.0
H271 H 0.76521 0.20004 0.55535 0.0
H272 H 0.72649 0.20011 0.58403 0.0
H273 H 0.6317 0.1559 0.55745 0.0
H274 H 0.66995 0.15527 0.52867 0.0
H275 H 0.62808 0.19085 0.52805 0.0
H276 H 0.76615 0.40711 0.50855 0.0
H277 H 0.81344 0.38798 0.47171 0.0
H278 H 0.76799 0.2228 0.50525 0.0
C279 C 0.66244 0.26542 0.58701 0.0
C280 C 0.65201 0.3081 0.59726 0.0
C281 C 0.67039 0.3595 0.58314 0.0
C282 C 0.69961 0.3688 0.55939 0.0
C283 C 0.71009 0.32628 0.55008 0.0
C284 C 0.69183 0.27547 0.56334 0.0
C285 C 0.70965 0.23727 0.54932 0.0
C286 C 0.74959 0.22508 0.56644 0.0
C287 C 0.6567 0.18153 0.54034 0.0
C288 C 0.74153 0.27495 0.52631 0.0
C289 C 0.74089 0.3259 0.52703 0.0
C290 C 0.76689 0.36736 0.50773 0.0
C291 C 0.79365 0.35611 0.48692 0.0
C292 C 0.79456 0.30406 0.48573 0.0
C293 C 0.76857 0.26326 0.50583 0.0
H294 H 0.33908 0.56031 0.10567 0.0
H295 H 0.21501 0.38465 0.08671 0.0
H296 H 0.26829 0.39091 0.04681 0.0
H297 H 0.34471 0.61036 0.04378 0.0
H298 H 0.42005 0.66308 0.04368 0.0
H299 H 0.38167 0.64109 0.07404 0.0
H300 H 0.45605 0.6144 0.09139 0.0
H301 H 0.49411 0.63483 0.06075 0.0
H302 H 0.46879 0.56408 0.07362 0.0
H303 H 0.32502 0.41747 0.00693 0.0
H304 H 0.37042 0.46749 0.96605 0.0
H305 H 0.45496 0.62872 0.0077 0.0
C306 C 0.32417 0.52308 0.09327 0.0
C307 C 0.27316 0.47206 0.09915 0.0
C308 C 0.25386 0.42431 0.08237 0.0
C309 C 0.28442 0.42708 0.0599 0.0
C310 C 0.33402 0.47816 0.05421 0.0
C311 C 0.35345 0.52573 0.07014 0.0
C312 C 0.40134 0.57809 0.05695 0.0
C313 C 0.38598 0.62593 0.05445 0.0
C314 C 0.45845 0.59906 0.07155 0.0
C315 C 0.40262 0.55318 0.03056 0.0
C316 C 0.36545 0.49488 0.02996 0.0
C317 C 0.35514 0.46292 0.00721 0.0
C318 C 0.38126 0.49167 0.98408 0.0
C319 C 0.41618 0.55183 0.98383 0.0
C320 C 0.42875 0.58259 0.00753 0.0
H321 H 0.79582 0.47645 0.27258 0.0
H322 H 0.73095 0.29951 0.25052 0.0
H323 H 0.71555 0.322 0.20536 0.0
H324 H 0.69742 0.49886 0.23586 0.0
H325 H 0.74865 0.57116 0.22666 0.0
H326 H 0.75793 0.54197 0.25673 0.0
H327 H 0.86009 0.56534 0.24231 0.0
H328 H 0.85135 0.59536 0.21237 0.0
H329 H 0.86943 0.53928 0.21133 0.0
H330 H 0.70187 0.36288 0.16361 0.0
H331 H 0.69856 0.42092 0.12704 0.0
H332 H 0.77239 0.57073 0.17714 0.0
C333 C 0.77869 0.44257 0.25817 0.0
C334 C 0.76438 0.38631 0.26486 0.0
C335 C 0.7426 0.34302 0.24557 0.0
C336 C 0.7334 0.3553 0.22 0.0
C337 C 0.74668 0.41104 0.21421 0.0
C338 C 0.76953 0.4541 0.23266 0.0
C339 C 0.77962 0.51029 0.22158 0.0
C340 C 0.74375 0.5318 0.23607 0.0
C341 C 0.84394 0.5552 0.22191 0.0
C342 C 0.75802 0.49191 0.19409 0.0
C343 C 0.73914 0.43457 0.19019 0.0
C344 C 0.71675 0.4079 0.16637 0.0
C345 C 0.71466 0.44113 0.1458 0.0
C346 C 0.73511 0.5003 0.14929 0.0
C347 C 0.75643 0.52562 0.17385 0.0
H348 H 0.54332 0.75571 0.73777 0.0
H349 H 0.40676 0.7259 0.79186 0.0
H350 H 0.34804 0.72844 0.7551 0.0
H351 H 0.52571 0.85125 0.69426 0.0
H352 H 0.53994 0.82261 0.66522 0.0
H353 H 0.57191 0.82041 0.69587 0.0
H354 H 0.5278 0.71084 0.69143 0.0
H355 H 0.49587 0.71259 0.66072 0.0
H356 H 0.45142 0.66665 0.68662 0.0
H357 H 0.30469 0.73487 0.71239 0.0
H358 H 0.2768 0.73756 0.66657 0.0
H359 H 0.44038 0.75964 0.6403 0.0
C360 C 0.50108 0.74983 0.74186 0.0
C361 C 0.47941 0.74053 0.7676 0.0
C362 C 0.42383 0.7325 0.77221 0.0
C363 C 0.39039 0.73427 0.7515 0.0
C364 C 0.413 0.74349 0.72632 0.0
C365 C 0.46684 0.75058 0.7214 0.0
C366 C 0.48026 0.75758 0.69247 0.0
C367 C 0.53255 0.81647 0.68662 0.0
C368 C 0.48935 0.70901 0.68221 0.0
C369 C 0.42542 0.75306 0.68183 0.0
C370 C 0.38746 0.74565 0.70169 0.0
C371 C 0.33403 0.74062 0.69667 0.0
C372 C 0.3187 0.74249 0.67063 0.0
C373 C 0.3564 0.74872 0.64994 0.0
C374 C 0.41055 0.7544 0.65573 0.0
H375 H 0.65377 0.4238 0.91053 0.0
H376 H 0.62234 0.26956 0.9512 0.0
H377 H 0.5857 0.21459 0.91052 0.0
H378 H 0.53128 0.36525 0.87354 0.0
H379 H 0.56521 0.40714 0.84479 0.0
H380 H 0.59575 0.43397 0.87627 0.0
H381 H 0.69213 0.44542 0.85866 0.0
H382 H 0.65894 0.41595 0.82758 0.0
H383 H 0.69352 0.38397 0.84567 0.0
H384 H 0.53956 0.17427 0.86869 0.0
H385 H 0.48753 0.14997 0.82692 0.0
H386 H 0.54948 0.32972 0.81174 0.0
C387 C 0.64084 0.37883 0.91061 0.0
C388 C 0.64039 0.35076 0.93399 0.0
C389 C 0.62217 0.29166 0.93355 0.0
C390 C 0.60193 0.26023 0.91049 0.0
C391 C 0.60109 0.28872 0.88797 0.0
C392 C 0.62071 0.34677 0.88766 0.0
C393 C 0.60998 0.36566 0.86137 0.0
C394 C 0.57326 0.39461 0.86424 0.0
C395 C 0.66705 0.40509 0.8475 0.0
C396 C 0.57752 0.3085 0.84761 0.0
C397 C 0.5743 0.26503 0.86322 0.0
C398 C 0.54268 0.2079 0.85604 0.0
C399 C 0.51286 0.19455 0.83242 0.0
C400 C 0.51466 0.23808 0.81627 0.0
C401 C 0.54837 0.29591 0.82363 0.0
H402 H 0.36611 0.45295 0.17543 0.0
H403 H 0.27616 0.33038 0.11358 0.0
H404 H 0.3656 0.37109 0.08801 0.0
H405 H 0.44858 0.56829 0.13513 0.0
H406 H 0.51345 0.59873 0.1544 0.0
H407 H 0.44465 0.55683 0.16991 0.0
H408 H 0.4757 0.48786 0.18951 0.0
H409 H 0.54575 0.53071 0.17523 0.0
H410 H 0.50504 0.45522 0.16841 0.0
H411 H 0.46199 0.43147 0.06714 0.0
H412 H 0.56312 0.49658 0.05545 0.0
H413 H 0.59161 0.5791 0.13113 0.0
C414 C 0.3656 0.43301 0.15701 0.0
C415 C 0.31384 0.38804 0.14666 0.0
C416 C 0.31514 0.36443 0.12209 0.0
C417 C 0.36572 0.38766 0.10726 0.0
C418 C 0.41504 0.43402 0.11739 0.0
C419 C 0.41585 0.45554 0.14196 0.0
C420 C 0.47431 0.50654 0.14796 0.0
C421 C 0.46998 0.56081 0.15209 0.0
C422 C 0.50183 0.49434 0.17168 0.0
C423 C 0.50621 0.51023 0.12295 0.0
C424 C 0.47096 0.4684 0.10547 0.0
C425 C 0.49026 0.46386 0.08083 0.0
C426 C 0.54781 0.50147 0.0743 0.0
C427 C 0.58572 0.54295 0.09239 0.0
C428 C 0.56397 0.54797 0.11682 0.0
H429 H 0.10755 0.65335 0.50672 0.0
H430 H 0.0652 0.73906 0.44597 0.0
H431 H 0.01503 0.64889 0.42142 0.0
H432 H 0.13853 0.5706 0.46583 0.0
H433 H 0.10744 0.50712 0.4858 0.0
H434 H 0.13414 0.57618 0.50074 0.0
H435 H 0.03508 0.54383 0.52215 0.0
H436 H 0.00857 0.47396 0.50805 0.0
H437 H 0.97142 0.51322 0.50205 0.0
H438 H 0.98142 0.55397 0.40072 0.0
H439 H 0.94839 0.45397 0.3889 0.0
H440 H 0.0095 0.42803 0.46356 0.0
C441 C 0.08566 0.6527 0.48882 0.0
C442 C 0.09025 0.70339 0.47833 0.0
C443 C 0.06207 0.70079 0.45449 0.0
C444 C 0.03387 0.64985 0.44026 0.0
C445 C 0.03337 0.60164 0.45032 0.0
C446 C 0.05698 0.60203 0.47438 0.0
C447 C 0.05194 0.54456 0.48027 0.0
C448 C 0.11156 0.54998 0.48334 0.0
C449 C 0.01451 0.51728 0.50457 0.0
C450 C 0.02229 0.51209 0.45566 0.0
C451 C 0.0127 0.54614 0.43854 0.0
C452 C 0.98777 0.52652 0.41414 0.0
C453 C 0.96965 0.46968 0.40752 0.0
C454 C 0.97597 0.43284 0.42536 0.0
C455 C 0.00395 0.45496 0.44949 0.0
H456 H 0.40239 0.99094 0.78405 0.0
H457 H 0.56836 0.13093 0.75977 0.0
H458 H 0.61647 0.08364 0.77981 0.0
H459 H 0.44778 0.96381 0.84562 0.0
H460 H 0.40523 0.88707 0.84355 0.0
H461 H 0.38175 0.93115 0.82718 0.0
H462 H 0.37718 0.88176 0.78305 0.0
H463 H 0.3995 0.83682 0.79945 0.0
H464 H 0.43961 0.87925 0.77182 0.0
H465 H 0.6485 0.0241 0.80315 0.0
H466 H 0.66074 0.94811 0.82386 0.0
H467 H 0.47551 0.8451 0.83263 0.0
C468 C 0.44873 0.01129 0.78275 0.0
C469 C 0.48127 0.06504 0.77049 0.0
C470 C 0.54201 0.09007 0.7692 0.0
C471 C 0.57013 0.06367 0.78062 0.0
C472 C 0.53719 0.01176 0.79314 0.0
C473 C 0.47784 0.98509 0.7939 0.0
C474 C 0.45316 0.92818 0.80795 0.0
C475 C 0.42002 0.92755 0.83253 0.0
C476 C 0.41513 0.87859 0.78946 0.0
C477 C 0.50796 0.92769 0.81497 0.0
C478 C 0.5559 0.97656 0.8064 0.0
C479 C 0.61133 0.9855 0.81002 0.0
C480 C 0.6179 0.94228 0.82198 0.0
C481 C 0.56925 0.89074 0.83 0.0
C482 C 0.51372 0.88419 0.82697 0.0
H483 H 0.49545 0.54101 0.8271 0.0
H484 H 0.58303 0.63544 0.75721 0.0
H485 H 0.53898 0.54565 0.73208 0.0
H486 H 0.51248 0.42033 0.81382 0.0
H487 H 0.4441 0.36984 0.82776 0.0
H488 H 0.48144 0.44242 0.83941 0.0
H489 H 0.39063 0.45051 0.8285 0.0
H490 H 0.35448 0.3785 0.81603 0.0
H491 H 0.36279 0.4367 0.79563 0.0
H492 H 0.48874 0.44529 0.71486 0.0
H493 H 0.44359 0.34127 0.70796 0.0
H494 H 0.38792 0.31234 0.78887 0.0
C495 C 0.50546 0.5429 0.80652 0.0
C496 C 0.54285 0.59542 0.79419 0.0
C497 C 0.55472 0.59582 0.76718 0.0
C498 C 0.52949 0.54506 0.75264 0.0
C499 C 0.49216 0.4942 0.76531 0.0
C500 C 0.48048 0.49267 0.79167 0.0
C501 C 0.44152 0.43197 0.80089 0.0
C502 C 0.47163 0.41514 0.82177 0.0
C503 C 0.38393 0.42398 0.81085 0.0
C504 C 0.43396 0.39955 0.77572 0.0
C505 C 0.46296 0.43627 0.75534 0.0
C506 C 0.46545 0.41611 0.73061 0.0
C507 C 0.43953 0.35687 0.72687 0.0
C508 C 0.41208 0.31853 0.74785 0.0
C509 C 0.40786 0.34037 0.77233 0.0
H510 H 0.0058 0.41785 0.1353 0.0
H511 H 0.143 0.56977 0.17182 0.0
H512 H 0.09521 0.62427 0.15897 0.0
H513 H 0.98829 0.48657 0.08045 0.0
H514 H 0.91122 0.44252 0.07908 0.0
H515 H 0.954 0.4144 0.09278 0.0
H516 H 0.89578 0.39013 0.13592 0.0
H517 H 0.85229 0.41745 0.12216 0.0
H518 H 0.88922 0.44543 0.15267 0.0
H519 H 0.03239 0.66338 0.14056 0.0
H520 H 0.95912 0.68112 0.11951 0.0
H521 H 0.86706 0.50402 0.09422 0.0
C522 C 0.02544 0.46232 0.14098 0.0
C523 C 0.0782 0.48931 0.15462 0.0
C524 C 0.10261 0.54792 0.16135 0.0
C525 C 0.0758 0.57939 0.15413 0.0
C526 C 0.0245 0.55178 0.14015 0.0
C527 C 0.99944 0.49441 0.13383 0.0
C528 C 0.94504 0.475 0.11814 0.0
C529 C 0.94998 0.45337 0.09101 0.0
C530 C 0.89249 0.42931 0.13312 0.0
C531 C 0.94391 0.53048 0.11624 0.0
C532 C 0.98964 0.57435 0.12919 0.0
C533 C 0.99644 0.62924 0.13029 0.0
C534 C 0.95486 0.63909 0.11815 0.0
C535 C 0.90748 0.59433 0.10493 0.0
C536 C 0.90282 0.53966 0.10388 0.0
H537 H 0.42468 0.01338 0.46698 0.0
H538 H 0.43604 0.86259 0.48699 0.0
H539 H 0.53839 0.91291 0.47488 0.0
H540 H 0.51503 0.05315 0.41124 0.0
H541 H 0.54835 0.12886 0.41725 0.0
H542 H 0.47636 0.08175 0.42853 0.0
H543 H 0.5069 0.11955 0.47576 0.0
H544 H 0.57901 0.16695 0.46466 0.0
H545 H 0.56658 0.117 0.49066 0.0
H546 H 0.64033 0.97985 0.45976 0.0
H547 H 0.73289 0.05878 0.44336 0.0
H548 H 0.65266 0.16341 0.43278 0.0
C549 C 0.44872 0.99105 0.46902 0.0
C550 C 0.42213 0.93402 0.47793 0.0
C551 C 0.45526 0.9063 0.48016 0.0
C552 C 0.51356 0.93449 0.47334 0.0
C553 C 0.53827 0.99044 0.46432 0.0
C554 C 0.50694 0.01847 0.46225 0.0
C555 C 0.54343 0.07827 0.45169 0.0
C556 C 0.51935 0.08592 0.42563 0.0
C557 C 0.54933 0.12308 0.4719 0.0
C558 C 0.5998 0.07915 0.44784 0.0
C559 C 0.59632 0.02837 0.45536 0.0
C560 C 0.64356 0.01985 0.45375 0.0
C561 C 0.69586 0.06476 0.44434 0.0
C562 C 0.7001 0.11715 0.43657 0.0
C563 C 0.6511 0.12387 0.43832 0.0
H564 H 0.14298 0.11696 0.8984 0.0
H565 H 0.32802 0.22906 0.89959 0.0
H566 H 0.32059 0.26628 0.9424 0.0
H567 H 0.10581 0.21438 0.9294 0.0
H568 H 0.04768 0.15979 0.94823 0.0
H569 H 0.06685 0.14212 0.91731 0.0
H570 H 0.08058 0.06342 0.93967 0.0
H571 H 0.06121 0.08069 0.97063 0.0
H572 H 0.12866 0.0818 0.96716 0.0
H573 H 0.29398 0.29148 0.98513 0.0
H574 H 0.25002 0.30157 0.02545 0.0
H575 H 0.0821 0.17174 0.99789 0.0
C576 C 0.182 0.14908 0.90771 0.0
C577 C 0.23609 0.17038 0.89531 0.0
C578 C 0.28593 0.21278 0.90825 0.0
C579 C 0.28224 0.23401 0.93272 0.0
C580 C 0.2284 0.21245 0.94424 0.0
C581 C 0.17913 0.17082 0.93226 0.0
C582 C 0.1267 0.15471 0.94916 0.0
C583 C 0.08426 0.16859 0.93519 0.0
C584 C 0.09758 0.0914 0.95713 0.0
C585 C 0.15432 0.19367 0.9725 0.0
C586 C 0.21302 0.22663 0.96917 0.0
C587 C 0.24806 0.26567 0.98801 0.0
C588 C 0.22261 0.27089 0.01097 0.0
C589 C 0.16251 0.23728 0.01509 0.0
C590 C 0.12804 0.19843 0.99536 0.0
H591 H 0.0073 0.3228 0.35666 0.0
H592 H 0.85118 0.16967 0.3339 0.0
H593 H 0.89076 0.17632 0.28955 0.0
H594 H 0.02157 0.39644 0.29729 0.0
H595 H 0.09896 0.43257 0.29659 0.0
H596 H 0.0617 0.41195 0.32735 0.0
H597 H 0.11361 0.3554 0.33895 0.0
H598 H 0.15118 0.37615 0.30822 0.0
H599 H 0.10943 0.30159 0.31676 0.0
H600 H 0.94645 0.20141 0.24713 0.0
H601 H 0.01024 0.2466 0.20922 0.0
H602 H 0.12699 0.38793 0.2585 0.0
C603 C 0.98226 0.28985 0.3425 0.0
C604 C 0.92679 0.24474 0.34885 0.0
C605 C 0.89415 0.20387 0.32952 0.0
C606 C 0.91629 0.20738 0.30429 0.0
C607 C 0.97081 0.25276 0.29848 0.0
C608 C 0.00319 0.29363 0.31697 0.0
C609 C 0.05819 0.3409 0.30501 0.0
C610 C 0.06018 0.39888 0.30666 0.0
C611 C 0.11124 0.34364 0.31801 0.0
C612 C 0.05161 0.32029 0.27696 0.0
C613 C 0.00133 0.26896 0.27369 0.0
C614 C 0.98594 0.24161 0.24949 0.0
C615 C 0.02256 0.26756 0.22804 0.0
C616 C 0.07365 0.32089 0.23074 0.0
C617 C 0.08821 0.34724 0.25567 0.0
H618 H 0.78464 0.99515 0.68095 0.0
H619 H 0.78638 0.83785 0.66523 0.0
H620 H 0.81395 0.86833 0.61947 0.0
H621 H 0.72667 0.00403 0.61782 0.0
H622 H 0.7697 0.08077 0.61612 0.0
H623 H 0.74838 0.04576 0.6474 0.0
H624 H 0.85503 0.09503 0.66187 0.0
H625 H 0.87666 0.13014 0.63064 0.0
H626 H 0.90623 0.08688 0.64219 0.0
H627 H 0.8459 0.91809 0.57594 0.0
H628 H 0.87586 0.98155 0.53737 0.0
H629 H 0.85274 0.10631 0.58128 0.0
C630 C 0.7908 0.9671 0.66787 0.0
C631 C 0.78334 0.91404 0.67669 0.0
C632 C 0.79121 0.87834 0.65886 0.0
C633 C 0.80715 0.89543 0.63286 0.0
C634 C 0.8146 0.94817 0.62487 0.0
C635 C 0.80624 0.98329 0.64179 0.0
C636 C 0.81724 0.03795 0.62829 0.0
C637 C 0.76222 0.04236 0.62736 0.0
C638 C 0.86674 0.0906 0.64154 0.0
C639 C 0.83406 0.02853 0.60127 0.0
C640 C 0.83222 0.97646 0.59971 0.0
C641 C 0.84725 0.95885 0.57691 0.0
C642 C 0.86458 0.99537 0.55515 0.0
C643 C 0.8667 0.04895 0.55624 0.0
C644 C 0.85091 0.06537 0.57967 0.0
H645 H 0.62093 0.73976 0.92484 0.0
H646 H 0.75496 0.75285 0.87299 0.0
H647 H 0.80489 0.73961 0.91068 0.0
H648 H 0.71405 0.81378 0.98062 0.0
H649 H 0.66196 0.76736 1.00427 0.0
H650 H 0.63837 0.78109 0.97348 0.0
H651 H 0.57974 0.67238 0.96437 0.0
H652 H 0.60297 0.65829 0.99511 0.0
H653 H 0.61534 0.63057 0.9653 0.0
H654 H 0.83607 0.71687 0.95339 0.0
H655 H 0.84727 0.68846 0.998 0.0
H656 H 0.6957 0.69414 0.02282 0.0
C657 C 0.66121 0.74068 0.92138 0.0
C658 C 0.68407 0.7477 0.89578 0.0
C659 C 0.73658 0.74786 0.89228 0.0
C660 C 0.76531 0.74037 0.91363 0.0
C661 C 0.7413 0.73307 0.93848 0.0
C662 C 0.69056 0.73344 0.94249 0.0
C663 C 0.67279 0.72259 0.97104 0.0
C664 C 0.67175 0.7743 0.98306 0.0
C665 C 0.61427 0.66771 0.97412 0.0
C666 C 0.72121 0.71542 0.98246 0.0
C667 C 0.7602 0.72157 0.96329 0.0
C668 C 0.8064 0.71299 0.96862 0.0
C669 C 0.81251 0.69698 0.99402 0.0
C670 C 0.77325 0.69046 0.014 0.0
C671 C 0.72747 0.70067 0.00816 0.0
H672 H 0.07745 0.82994 0.33732 0.0
H673 H 0.10602 0.00247 0.34623 0.0
H674 H 0.05674 0.99326 0.3045 0.0
H675 H 0.09552 0.83375 0.26743 0.0
H676 H 0.03886 0.76126 0.2623 0.0
H677 H 0.07762 0.78107 0.29278 0.0
H678 H 0.98202 0.74373 0.31803 0.0
H679 H 0.94295 0.72355 0.28764 0.0
H680 H 0.93428 0.77055 0.30985 0.0
H681 H 0.00522 0.96672 0.26179 0.0
H682 H 0.95138 0.92315 0.22145 0.0
H683 H 0.95031 0.76536 0.24024 0.0
C684 C 0.07309 0.86571 0.33063 0.0
C685 C 0.0967 0.91736 0.34517 0.0
C686 C 0.08996 0.963 0.33538 0.0
C687 C 0.06153 0.95807 0.31169 0.0
C688 C 0.03936 0.90702 0.29784 0.0
C689 C 0.04439 0.86143 0.30695 0.0
C690 C 0.01558 0.81103 0.28826 0.0
C691 C 0.05953 0.7959 0.27703 0.0
C692 C 0.96574 0.75915 0.30175 0.0
C693 C 0.99367 0.83556 0.26729 0.0
C694 C 0.00816 0.89108 0.27328 0.0
C695 C 0.99318 0.92308 0.25702 0.0
C696 C 0.96211 0.89766 0.23416 0.0
C697 C 0.9456 0.84037 0.2276 0.0
C698 C 0.96227 0.80923 0.24446 0.0
H699 H 0.40425 0.06172 0.66966 0.0
H700 H 0.25703 0.08365 0.68424 0.0
H701 H 0.21304 0.03386 0.64269 0.0
H702 H 0.41217 0.08185 0.6009 0.0
H703 H 0.43081 0.02739 0.59424 0.0
H704 H 0.45024 0.06456 0.62502 0.0
H705 H 0.39682 0.96785 0.64967 0.0
H706 H 0.37748 0.9304 0.61895 0.0
H707 H 0.32243 0.91894 0.64222 0.0
H708 H 0.1882 0.98613 0.59773 0.0
H709 H 0.17999 0.93586 0.55605 0.0
H710 H 0.34077 0.94027 0.573 0.0
C711 C 0.36267 0.05594 0.66415 0.0
C712 C 0.33418 0.07689 0.68009 0.0
C713 C 0.27952 0.06783 0.67236 0.0
C714 C 0.25436 0.03983 0.64874 0.0
C715 C 0.28395 0.02024 0.63333 0.0
C716 C 0.33649 0.0271 0.64099 0.0
C717 C 0.35888 0.00081 0.6214 0.0
C718 C 0.41642 0.04637 0.6097 0.0
C719 C 0.3642 0.95159 0.6338 0.0
C720 C 0.31121 0.9788 0.60126 0.0
C721 C 0.26856 0.99079 0.6083 0.0
C722 C 0.22112 0.97606 0.5922 0.0
C723 C 0.21692 0.94777 0.5685 0.0
C724 C 0.25949 0.93381 0.56132 0.0
C725 C 0.30717 0.9498 0.57801 0.0
loop_
_geom_bond_atom_site_label_1
_geom_bond_atom_site_label_2
_geom_bond_distance
_geom_bond_site_symmetry_2
_ccdc_geom_bond_type
Dy0 O3 2.307 . S
Dy0 O5 2.395 . S
Dy0 O6 2.379 . S
Dy0 O8 2.339 . S
Dy0 O10 2.298 . S
Dy0 O14 2.275 . S
Dy0 C22 2.738 . S
Dy1 O4 2.298 . S
Dy1 O7 2.275 . S
Dy1 O9 2.307 . S
Dy1 O11 2.395 . S
Dy1 O12 2.379 . S
Dy1 O15 2.339 . S
Dy1 C31 2.738 . S
C2 O14 1.254 . S
C2 O15 1.257 . S
O3 Dy0 2.307 . S
O3 C13 1.266 . S
O4 Dy1 2.298 . S
O4 C13 1.236 . S
O5 Dy0 2.395 . S
O5 C22 1.255 . S
O6 Dy0 2.379 . S
O6 C22 1.249 . S
O7 Dy1 2.275 . S
O7 C23 1.254 . S
O8 Dy0 2.339 . S
O8 C23 1.257 . S
O9 Dy1 2.307 . S
O9 C24 1.266 . S
O10 Dy0 2.298 . S
O10 C24 1.236 . S
O11 Dy1 2.395 . S
O11 C31 1.255 . S
O12 Dy1 2.379 . S
O12 C31 1.249 . S
C13 O3 1.266 . S
C13 O4 1.236 . S
O14 Dy0 2.275 . S
O14 C2 1.254 . S
O15 Dy1 2.339 . S
O15 C2 1.257 . S
C16 C19 1.344 . S
C16 C20 1.328 . S
C16 C22 1.516 . S
C17 C18 1.304 . S
C17 C21 1.323 . S
C18 C17 1.304 . S
C18 C19 1.371 . S
C18 H32 0.930 . S
C19 C16 1.344 . S
C19 C18 1.371 . S
C19 H33 0.931 . S
C20 C16 1.328 . S
C20 C21 1.433 . S
C20 H34 0.931 . S
C21 C17 1.323 . S
C21 C20 1.433 . S
C21 H35 0.933 . S
C22 Dy0 2.738 . S
C22 O5 1.255 . S
C22 O6 1.249 . S
C22 C16 1.516 . S
C23 O7 1.254 . S
C23 O8 1.257 . S
C24 O9 1.266 . S
C24 O10 1.236 . S
C25 C28 1.344 . S
C25 C29 1.328 . S
C25 C31 1.516 . S
C26 C27 1.304 . S
C26 C30 1.323 . S
C27 C26 1.304 . S
C27 C28 1.371 . S
C27 H36 0.930 . S
C28 C25 1.344 . S
C28 C27 1.371 . S
C28 H37 0.931 . S
C29 C25 1.328 . S
C29 C30 1.433 . S
C29 H38 0.931 . S
C30 C26 1.323 . S
C30 C29 1.433 . S
C30 H39 0.933 . S
C31 Dy1 2.738 . S
C31 O11 1.255 . S
C31 O12 1.249 . S
C31 C25 1.516 . S
H32 C18 0.930 . S
H33 C19 0.931 . S
H34 C20 0.931 . S
H35 C21 0.933 . S
H36 C27 0.930 . S
H37 C28 0.931 . S
H38 C29 0.931 . S
H39 C30 0.933 . S
Dy40 O43 2.307 . S
Dy40 O45 2.395 . S
Dy40 O46 2.379 . S
Dy40 O48 2.339 . S
Dy40 O50 2.298 . S
Dy40 O54 2.275 . S
Dy40 C62 2.738 . S
Dy41 O44 2.298 . S
Dy41 O47 2.275 . S
Dy41 O49 2.307 . S
Dy41 O51 2.395 . S
Dy41 O52 2.379 . S
Dy41 O55 2.339 . S
Dy41 C71 2.738 . S
C42 O54 1.254 . S
C42 O55 1.257 . S
O43 Dy40 2.307 . S
O43 C53 1.266 . S
O44 Dy41 2.298 . S
O44 C53 1.236 . S
O45 Dy40 2.395 . S
O45 C62 1.255 . S
O46 Dy40 2.379 . S
O46 C62 1.249 . S
O47 Dy41 2.275 . S
O47 C63 1.254 . S
O48 Dy40 2.339 . S
O48 C63 1.257 . S
O49 Dy41 2.307 . S
O49 C64 1.266 . S
O50 Dy40 2.298 . S
O50 C64 1.236 . S
O51 Dy41 2.395 . S
O51 C71 1.255 . S
O52 Dy41 2.379 . S
O52 C71 1.249 . S
C53 O43 1.266 . S
C53 O44 1.236 . S
O54 Dy40 2.275 . S
O54 C42 1.254 . S
O55 Dy41 2.339 . S
O55 C42 1.257 . S
C56 C59 1.344 . S
C56 C60 1.328 . S
C56 C62 1.516 . S
C57 C58 1.304 . S
C57 C61 1.323 . S
C58 C57 1.304 . S
C58 C59 1.371 . S
C58 H72 0.930 . S
C59 C56 1.344 . S
C59 C58 1.371 . S
C59 H73 0.931 . S
C60 C56 1.328 . S
C60 C61 1.433 . S
C60 H74 0.931 . S
C61 C57 1.323 . S
C61 C60 1.433 . S
C61 H75 0.933 . S
C62 Dy40 2.738 . S
C62 O45 1.255 . S
C62 O46 1.249 . S
C62 C56 1.516 . S
C63 O47 1.254 . S
C63 O48 1.257 . S
C64 O49 1.266 . S
C64 O50 1.236 . S
C65 C68 1.344 . S
C65 C69 1.328 . S
C65 C71 1.516 . S
C66 C67 1.304 . S
C66 C70 1.323 . S
C67 C66 1.304 . S
C67 C68 1.371 . S
C67 H76 0.930 . S
C68 C65 1.344 . S
C68 C67 1.371 . S
C68 H77 0.931 . S
C69 C65 1.328 . S
C69 C70 1.433 . S
C69 H78 0.931 . S
C70 C66 1.323 . S
C70 C69 1.433 . S
C70 H79 0.933 . S
C71 Dy41 2.738 . S
C71 O51 1.255 . S
C71 O52 1.249 . S
C71 C65 1.516 . S
H72 C58 0.930 . S
H73 C59 0.931 . S
H74 C60 0.931 . S
H75 C61 0.933 . S
H76 C67 0.930 . S
H77 C68 0.931 . S
H78 C69 0.931 . S
H79 C70 0.933 . S
Dy80 O83 2.307 . S
Dy80 O85 2.395 . S
Dy80 O86 2.379 . S
Dy80 O88 2.339 . S
Dy80 O90 2.298 . S
Dy80 O94 2.275 . S
Dy80 C102 2.738 . S
Dy81 O84 2.298 . S
Dy81 O87 2.275 . S
Dy81 O89 2.307 . S
Dy81 O91 2.395 . S
Dy81 O92 2.379 . S
Dy81 O95 2.339 . S
Dy81 C111 2.738 . S
C82 O94 1.254 . S
C82 O95 1.257 . S
O83 Dy80 2.307 . S
O83 C93 1.266 . S
O84 Dy81 2.298 . S
O84 C93 1.236 . S
O85 Dy80 2.395 . S
O85 C102 1.255 . S
O86 Dy80 2.379 . S
O86 C102 1.249 . S
O87 Dy81 2.275 . S
O87 C103 1.254 . S
O88 Dy80 2.339 . S
O88 C103 1.257 . S
O89 Dy81 2.307 . S
O89 C104 1.266 . S
O90 Dy80 2.298 . S
O90 C104 1.236 . S
O91 Dy81 2.395 . S
O91 C111 1.255 . S
O92 Dy81 2.379 . S
O92 C111 1.249 . S
C93 O83 1.266 . S
C93 O84 1.236 . S
O94 Dy80 2.275 . S
O94 C82 1.254 . S
O95 Dy81 2.339 . S
O95 C82 1.257 . S
C96 C99 1.344 . S
C96 C100 1.328 . S
C96 C102 1.516 . S
C97 C98 1.304 . S
C97 C101 1.323 . S
C98 C97 1.304 . S
C98 C99 1.371 . S
C98 H112 0.930 . S
C99 C96 1.344 . S
C99 C98 1.371 . S
C99 H113 0.931 . S
C100 C96 1.328 . S
C100 C101 1.433 . S
C100 H114 0.931 . S
C101 C97 1.323 . S
C101 C100 1.433 . S
C101 H115 0.933 . S
C102 Dy80 2.738 . S
C102 O85 1.255 . S
C102 O86 1.249 . S
C102 C96 1.516 . S
C103 O87 1.254 . S
C103 O88 1.257 . S
C104 O89 1.266 . S
C104 O90 1.236 . S
C105 C108 1.344 . S
C105 C109 1.328 . S
C105 C111 1.516 . S
C106 C107 1.304 . S
C106 C110 1.323 . S
C107 C106 1.304 . S
C107 C108 1.371 . S
C107 H116 0.930 . S
C108 C105 1.344 . S
C108 C107 1.371 . S
C108 H117 0.931 . S
C109 C105 1.328 . S
C109 C110 1.433 . S
C109 H118 0.931 . S
C110 C106 1.323 . S
C110 C109 1.433 . S
C110 H119 0.933 . S
C111 Dy81 2.738 . S
C111 O91 1.255 . S
C111 O92 1.249 . S
C111 C105 1.516 . S
H112 C98 0.930 . S
H113 C99 0.931 . S
H114 C100 0.931 . S
H115 C101 0.933 . S
H116 C107 0.930 . S
H117 C108 0.931 . S
H118 C109 0.931 . S
H119 C110 0.933 . S
Dy120 O123 2.307 . S
Dy120 O125 2.395 . S
Dy120 O126 2.379 . S
Dy120 O128 2.339 . S
Dy120 O130 2.298 . S
Dy120 O134 2.275 . S
Dy120 C142 2.738 . S
Dy121 O124 2.298 . S
Dy121 O127 2.275 . S
Dy121 O129 2.307 . S
Dy121 O131 2.395 . S
Dy121 O132 2.379 . S
Dy121 O135 2.339 . S
Dy121 C151 2.738 . S
C122 O134 1.254 . S
C122 O135 1.257 . S
O123 Dy120 2.307 . S
O123 C133 1.266 . S
O124 Dy121 2.298 . S
O124 C133 1.236 . S
O125 Dy120 2.395 . S
O125 C142 1.255 . S
O126 Dy120 2.379 . S
O126 C142 1.249 . S
O127 Dy121 2.275 . S
O127 C143 1.254 . S
O128 Dy120 2.339 . S
O128 C143 1.257 . S
O129 Dy121 2.307 . S
O129 C144 1.266 . S
O130 Dy120 2.298 . S
O130 C144 1.236 . S
O131 Dy121 2.395 . S
O131 C151 1.255 . S
O132 Dy121 2.379 . S
O132 C151 1.249 . S
C133 O123 1.266 . S
C133 O124 1.236 . S
O134 Dy120 2.275 . S
O134 C122 1.254 . S
O135 Dy121 2.339 . S
O135 C122 1.257 . S
C136 C139 1.344 . S
C136 C140 1.328 . S
C136 C142 1.516 . S
C137 C138 1.304 . S
C137 C141 1.323 . S
C138 C137 1.304 . S
C138 C139 1.371 . S
C138 H152 0.930 . S
C139 C136 1.344 . S
C139 C138 1.371 . S
C139 H153 0.931 . S
C140 C136 1.328 . S
C140 C141 1.433 . S
C140 H154 0.931 . S
C141 C137 1.323 . S
C141 C140 1.433 . S
C141 H155 0.933 . S
C142 Dy120 2.738 . S
C142 O125 1.255 . S
C142 O126 1.249 . S
C142 C136 1.516 . S
C143 O127 1.254 . S
C143 O128 1.257 . S
C144 O129 1.266 . S
C144 O130 1.236 . S
C145 C148 1.344 . S
C145 C149 1.328 . S
C145 C151 1.516 1_556 S
C146 C147 1.304 . S
C146 C150 1.323 . S
C147 C146 1.304 . S
C147 C148 1.371 . S
C147 H156 0.930 . S
C148 C145 1.344 . S
C148 C147 1.371 . S
C148 H157 0.931 . S
C149 C145 1.328 . S
C149 C150 1.433 . S
C149 H158 0.931 . S
C150 C146 1.323 . S
C150 C149 1.433 . S
C150 H159 0.933 . S
C151 Dy121 2.738 . S
C151 O131 1.255 . S
C151 O132 1.249 . S
C151 C145 1.516 1_554 S
H152 C138 0.930 . S
H153 C139 0.931 . S
H154 C140 0.931 . S
H155 C141 0.933 . S
H156 C147 0.930 . S
H157 C148 0.931 . S
H158 C149 0.931 . S
H159 C150 0.933 . S
Dy160 O163 2.307 . S
Dy160 O165 2.395 . S
Dy160 O166 2.379 . S
Dy160 O168 2.339 . S
Dy160 O170 2.298 . S
Dy160 O174 2.275 . S
Dy160 C182 2.738 . S
Dy161 O164 2.298 . S
Dy161 O167 2.275 . S
Dy161 O169 2.307 . S
Dy161 O171 2.395 . S
Dy161 O172 2.379 . S
Dy161 O175 2.339 . S
Dy161 C191 2.738 . S
C162 O174 1.254 . S
C162 O175 1.257 . S
O163 Dy160 2.307 . S
O163 C173 1.266 . S
O164 Dy161 2.298 . S
O164 C173 1.236 . S
O165 Dy160 2.395 . S
O165 C182 1.255 . S
O166 Dy160 2.379 . S
O166 C182 1.249 . S
O167 Dy161 2.275 . S
O167 C183 1.254 . S
O168 Dy160 2.339 . S
O168 C183 1.257 . S
O169 Dy161 2.307 . S
O169 C184 1.266 . S
O170 Dy160 2.298 . S
O170 C184 1.236 . S
O171 Dy161 2.395 . S
O171 C191 1.255 . S
O172 Dy161 2.379 . S
O172 C191 1.249 . S
C173 O163 1.266 . S
C173 O164 1.236 . S
O174 Dy160 2.275 . S
O174 C162 1.254 . S
O175 Dy161 2.339 . S
O175 C162 1.257 . S
C176 C179 1.344 . S
C176 C180 1.328 . S
C176 C182 1.516 . S
C177 C178 1.304 . S
C177 C181 1.323 . S
C178 C177 1.304 . S
C178 C179 1.371 . S
C178 H192 0.930 . S
C179 C176 1.344 . S
C179 C178 1.371 . S
C179 H193 0.931 . S
C180 C176 1.328 . S
C180 C181 1.433 . S
C180 H194 0.931 . S
C181 C177 1.323 . S
C181 C180 1.433 . S
C181 H195 0.933 . S
C182 Dy160 2.738 . S
C182 O165 1.255 . S
C182 O166 1.249 . S
C182 C176 1.516 . S
C183 O167 1.254 . S
C183 O168 1.257 . S
C184 O169 1.266 . S
C184 O170 1.236 . S
C185 C188 1.344 . S
C185 C189 1.328 . S
C185 C191 1.516 . S
C186 C187 1.304 . S
C186 C190 1.323 . S
C187 C186 1.304 . S
C187 C188 1.371 . S
C187 H196 0.930 . S
C188 C185 1.344 . S
C188 C187 1.371 . S
C188 H197 0.931 . S
C189 C185 1.328 . S
C189 C190 1.433 . S
C189 H198 0.931 . S
C190 C186 1.323 . S
C190 C189 1.433 . S
C190 H199 0.933 . S
C191 Dy161 2.738 . S
C191 O171 1.255 . S
C191 O172 1.249 . S
C191 C185 1.516 . S
H192 C178 0.930 . S
H193 C179 0.931 . S
H194 C180 0.931 . S
H195 C181 0.933 . S
H196 C187 0.930 . S
H197 C188 0.931 . S
H198 C189 0.931 . S
H199 C190 0.933 . S
Dy200 O203 2.307 . S
Dy200 O205 2.395 . S
Dy200 O206 2.379 . S
Dy200 O208 2.339 . S
Dy200 O210 2.298 . S
Dy200 O214 2.275 . S
Dy200 C222 2.738 . S
Dy201 O204 2.298 . S
Dy201 O207 2.275 . S
Dy201 O209 2.307 . S
Dy201 O211 2.395 . S
Dy201 O212 2.379 . S
Dy201 O215 2.339 . S
Dy201 C231 2.738 . S
C202 O214 1.254 . S
C202 O215 1.257 . S
O203 Dy200 2.307 . S
O203 C213 1.266 . S
O204 Dy201 2.298 . S
O204 C213 1.236 . S
O205 Dy200 2.395 . S
O205 C222 1.255 . S
O206 Dy200 2.379 . S
O206 C222 1.249 . S
O207 Dy201 2.275 . S
O207 C223 1.254 . S
O208 Dy200 2.339 . S
O208 C223 1.257 . S
O209 Dy201 2.307 . S
O209 C224 1.266 . S
O210 Dy200 2.298 . S
O210 C224 1.236 . S
O211 Dy201 2.395 . S
O211 C231 1.255 . S
O212 Dy201 2.379 . S
O212 C231 1.249 . S
C213 O203 1.266 . S
C213 O204 1.236 . S
O214 Dy200 2.275 . S
O214 C202 1.254 . S
O215 Dy201 2.339 . S
O215 C202 1.257 . S
C216 C219 1.344 . S
C216 C220 1.328 . S
C216 C222 1.516 . S
C217 C218 1.304 . S
C217 C221 1.323 . S
C218 C217 1.304 . S
C218 C219 1.371 . S
C218 H232 0.930 . S
C219 C216 1.344 . S
C219 C218 1.371 . S
C219 H233 0.931 . S
C220 C216 1.328 . S
C220 C221 1.433 . S
C220 H234 0.931 . S
C221 C217 1.323 . S
C221 C220 1.433 . S
C221 H235 0.933 . S
C222 Dy200 2.738 . S
C222 O205 1.255 . S
C222 O206 1.249 . S
C222 C216 1.516 . S
C223 O207 1.254 . S
C223 O208 1.257 . S
C224 O209 1.266 . S
C224 O210 1.236 . S
C225 C228 1.344 . S
C225 C229 1.328 . S
C225 C231 1.516 . S
C226 C227 1.304 . S
C226 C230 1.323 . S
C227 C226 1.304 . S
C227 C228 1.371 . S
C227 H236 0.930 . S
C228 C225 1.344 . S
C228 C227 1.371 . S
C228 H237 0.931 . S
C229 C225 1.328 . S
C229 C230 1.433 . S
C229 H238 0.931 . S
C230 C226 1.323 . S
C230 C229 1.433 . S
C230 H239 0.933 . S
C231 Dy201 2.738 . S
C231 O211 1.255 . S
C231 O212 1.249 . S
C231 C225 1.516 . S
H232 C218 0.930 . S
H233 C219 0.931 . S
H234 C220 0.931 . S
H235 C221 0.933 . S
H236 C227 0.930 . S
H237 C228 0.931 . S
H238 C229 0.931 . S
H239 C230 0.933 . S
H240 C252 0.930 . S
H241 C254 0.930 . S
H242 C255 0.930 . S
H243 C259 0.959 . S
H244 C259 0.959 . S
H245 C259 0.961 . S
H246 C260 0.960 . S
H247 C260 0.961 . S
H248 C260 0.959 . S
H249 C263 0.929 . S
H250 C264 0.931 . S
H251 C266 0.930 . S
C252 H240 0.930 . S
C252 C253 1.399 . S
C252 C257 1.399 . S
C253 C252 1.399 . S
C253 C254 1.376 . S
C254 H241 0.930 . S
C254 C253 1.376 . S
C254 C255 1.388 . S
C255 H242 0.930 . S
C255 C254 1.388 . S
C255 C256 1.390 . S
C256 C255 1.390 . S
C256 C257 1.394 . S
C256 C262 1.465 . S
C257 C252 1.399 . S
C257 C256 1.394 . S
C257 C258 1.516 . S
C258 C257 1.516 . S
C258 C259 1.502 . S
C258 C260 1.561 . S
C258 C261 1.526 . S
C259 H243 0.959 . S
C259 H244 0.959 . S
C259 H245 0.961 . S
C259 C258 1.502 . S
C260 H246 0.960 . S
C260 H247 0.961 . S
C260 H248 0.959 . S
C260 C258 1.561 . S
C261 C258 1.526 . S
C261 C262 1.396 . S
C261 C266 1.390 . S
C262 C256 1.465 . S
C262 C261 1.396 . S
C262 C263 1.399 . S
C263 H249 0.929 . S
C263 C262 1.399 . S
C263 C264 1.385 . S
C264 H250 0.931 . S
C264 C263 1.385 . S
C264 C265 1.389 . S
C265 C264 1.389 . S
C265 C266 1.387 . S
C266 H251 0.930 . S
C266 C261 1.390 . S
C266 C265 1.387 . S
H267 C279 0.930 . S
H268 C281 0.930 . S
H269 C282 0.930 . S
H270 C286 0.959 . S
H271 C286 0.959 . S
H272 C286 0.961 . S
H273 C287 0.960 . S
H274 C287 0.961 . S
H275 C287 0.959 . S
H276 C290 0.929 . S
H277 C291 0.931 . S
H278 C293 0.930 . S
C279 H267 0.930 . S
C279 C280 1.399 . S
C279 C284 1.399 . S
C280 C279 1.399 . S
C280 C281 1.376 . S
C281 H268 0.930 . S
C281 C280 1.376 . S
C281 C282 1.388 . S
C282 H269 0.930 . S
C282 C281 1.388 . S
C282 C283 1.390 . S
C283 C282 1.390 . S
C283 C284 1.394 . S
C283 C289 1.465 . S
C284 C279 1.399 . S
C284 C283 1.394 . S
C284 C285 1.516 . S
C285 C284 1.516 . S
C285 C286 1.502 . S
C285 C287 1.561 . S
C285 C288 1.526 . S
C286 H270 0.959 . S
C286 H271 0.959 . S
C286 H272 0.961 . S
C286 C285 1.502 . S
C287 H273 0.960 . S
C287 H274 0.961 . S
C287 H275 0.959 . S
C287 C285 1.561 . S
C288 C285 1.526 . S
C288 C289 1.396 . S
C288 C293 1.390 . S
C289 C283 1.465 . S
C289 C288 1.396 . S
C289 C290 1.399 . S
C290 H276 0.929 . S
C290 C289 1.399 . S
C290 C291 1.385 . S
C291 H277 0.931 . S
C291 C290 1.385 . S
C291 C292 1.389 . S
C292 C291 1.389 . S
C292 C293 1.387 . S
C293 H278 0.930 . S
C293 C288 1.390 . S
C293 C292 1.387 . S
H294 C306 0.930 . S
H295 C308 0.930 . S
H296 C309 0.930 . S
H297 C313 0.959 . S
H298 C313 0.959 . S
H299 C313 0.961 . S
H300 C314 0.960 . S
H301 C314 0.961 . S
H302 C314 0.959 . S
H303 C317 0.929 . S
H304 C318 0.931 . S
H305 C320 0.930 . S
C306 H294 0.930 . S
C306 C307 1.399 . S
C306 C311 1.399 . S
C307 C306 1.399 . S
C307 C308 1.376 . S
C308 H295 0.930 . S
C308 C307 1.376 . S
C308 C309 1.388 . S
C309 H296 0.930 . S
C309 C308 1.388 . S
C309 C310 1.390 . S
C310 C309 1.390 . S
C310 C311 1.394 . S
C310 C316 1.465 . S
C311 C306 1.399 . S
C311 C310 1.394 . S
C311 C312 1.516 . S
C312 C311 1.516 . S
C312 C313 1.502 . S
C312 C314 1.561 . S
C312 C315 1.526 . S
C313 H297 0.959 . S
C313 H298 0.959 . S
C313 H299 0.961 . S
C313 C312 1.502 . S
C314 H300 0.960 . S
C314 H301 0.961 . S
C314 H302 0.959 . S
C314 C312 1.561 . S
C315 C312 1.526 . S
C315 C316 1.396 . S
C315 C320 1.390 1_554 S
C316 C310 1.465 . S
C316 C315 1.396 . S
C316 C317 1.399 1_554 S
C317 H303 0.929 . S
C317 C316 1.399 1_556 S
C317 C318 1.385 . S
C318 H304 0.931 . S
C318 C317 1.385 . S
C318 C319 1.389 . S
C319 C318 1.389 . S
C319 C320 1.387 . S
C320 H305 0.930 . S
C320 C315 1.390 1_556 S
C320 C319 1.387 . S
H321 C333 0.930 . S
H322 C335 0.930 . S
H323 C336 0.930 . S
H324 C340 0.959 . S
H325 C340 0.959 . S
H326 C340 0.961 . S
H327 C341 0.960 . S
H328 C341 0.961 . S
H329 C341 0.959 . S
H330 C344 0.929 . S
H331 C345 0.931 . S
H332 C347 0.930 . S
C333 H321 0.930 . S
C333 C334 1.399 . S
C333 C338 1.399 . S
C334 C333 1.399 . S
C334 C335 1.376 . S
C335 H322 0.930 . S
C335 C334 1.376 . S
C335 C336 1.388 . S
C336 H323 0.930 . S
C336 C335 1.388 . S
C336 C337 1.390 . S
C337 C336 1.390 . S
C337 C338 1.394 . S
C337 C343 1.465 . S
C338 C333 1.399 . S
C338 C337 1.394 . S
C338 C339 1.516 . S
C339 C338 1.516 . S
C339 C340 1.502 . S
C339 C341 1.561 . S
C339 C342 1.526 . S
C340 H324 0.959 . S
C340 H325 0.959 . S
C340 H326 0.961 . S
C340 C339 1.502 . S
C341 H327 0.960 . S
C341 H328 0.961 . S
C341 H329 0.959 . S
C341 C339 1.561 . S
C342 C339 1.526 . S
C342 C343 1.396 . S
C342 C347 1.390 . S
C343 C337 1.465 . S
C343 C342 1.396 . S
C343 C344 1.399 . S
C344 H330 0.929 . S
C344 C343 1.399 . S
C344 C345 1.385 . S
C345 H331 0.931 . S
C345 C344 1.385 . S
C345 C346 1.389 . S
C346 C345 1.389 . S
C346 C347 1.387 . S
C347 H332 0.930 . S
C347 C342 1.390 . S
C347 C346 1.387 . S
H348 C360 0.930 . S
H349 C362 0.930 . S
H350 C363 0.930 . S
H351 C367 0.959 . S
H352 C367 0.959 . S
H353 C367 0.961 . S
H354 C368 0.960 . S
H355 C368 0.961 . S
H356 C368 0.959 . S
H357 C371 0.929 . S
H358 C372 0.931 . S
H359 C374 0.930 . S
C360 H348 0.930 . S
C360 C361 1.399 . S
C360 C365 1.399 . S
C361 C360 1.399 . S
C361 C362 1.376 . S
C362 H349 0.930 . S
C362 C361 1.376 . S
C362 C363 1.388 . S
C363 H350 0.930 . S
C363 C362 1.388 . S
C363 C364 1.390 . S
C364 C363 1.390 . S
C364 C365 1.394 . S
C364 C370 1.465 . S
C365 C360 1.399 . S
C365 C364 1.394 . S
C365 C366 1.516 . S
C366 C365 1.516 . S
C366 C367 1.502 . S
C366 C368 1.561 . S
C366 C369 1.526 . S
C367 H351 0.959 . S
C367 H352 0.959 . S
C367 H353 0.961 . S
C367 C366 1.502 . S
C368 H354 0.960 . S
C368 H355 0.961 . S
C368 H356 0.959 . S
C368 C366 1.561 . S
C369 C366 1.526 . S
C369 C370 1.396 . S
C369 C374 1.390 . S
C370 C364 1.465 . S
C370 C369 1.396 . S
C370 C371 1.399 . S
C371 H357 0.929 . S
C371 C370 1.399 . S
C371 C372 1.385 . S
C372 H358 0.931 . S
C372 C371 1.385 . S
C372 C373 1.389 . S
C373 C372 1.389 . S
C373 C374 1.387 . S
C374 H359 0.930 . S
C374 C369 1.390 . S
C374 C373 1.387 . S
H375 C387 0.930 . S
H376 C389 0.930 . S
H377 C390 0.930 . S
H378 C394 0.959 . S
H379 C394 0.959 . S
H380 C394 0.961 . S
H381 C395 0.960 . S
H382 C395 0.961 . S
H383 C395 0.959 . S
H384 C398 0.929 . S
H385 C399 0.931 . S
H386 C401 0.930 . S
C387 H375 0.930 . S
C387 C388 1.399 . S
C387 C392 1.399 . S
C388 C387 1.399 . S
C388 C389 1.376 . S
C389 H376 0.930 . S
C389 C388 1.376 . S
C389 C390 1.388 . S
C390 H377 0.930 . S
C390 C389 1.388 . S
C390 C391 1.390 . S
C391 C390 1.390 . S
C391 C392 1.394 . S
C391 C397 1.465 . S
C392 C387 1.399 . S
C392 C391 1.394 . S
C392 C393 1.516 . S
C393 C392 1.516 . S
C393 C394 1.502 . S
C393 C395 1.561 . S
C393 C396 1.526 . S
C394 H378 0.959 . S
C394 H379 0.959 . S
C394 H380 0.961 . S
C394 C393 1.502 . S
C395 H381 0.960 . S
C395 H382 0.961 . S
C395 H383 0.959 . S
C395 C393 1.561 . S
C396 C393 1.526 . S
C396 C397 1.396 . S
C396 C401 1.390 . S
C397 C391 1.465 . S
C397 C396 1.396 . S
C397 C398 1.399 . S
C398 H384 0.929 . S
C398 C397 1.399 . S
C398 C399 1.385 . S
C399 H385 0.931 . S
C399 C398 1.385 . S
C399 C400 1.389 . S
C400 C399 1.389 . S
C400 C401 1.387 . S
C401 H386 0.930 . S
C401 C396 1.390 . S
C401 C400 1.387 . S
H402 C414 0.930 . S
H403 C416 0.930 . S
H404 C417 0.930 . S
H405 C421 0.959 . S
H406 C421 0.959 . S
H407 C421 0.961 . S
H408 C422 0.960 . S
H409 C422 0.961 . S
H410 C422 0.959 . S
H411 C425 0.929 . S
H412 C426 0.931 . S
H413 C428 0.930 . S
C414 H402 0.930 . S
C414 C415 1.399 . S
C414 C419 1.399 . S
C415 C414 1.399 . S
C415 C416 1.376 . S
C416 H403 0.930 . S
C416 C415 1.376 . S
C416 C417 1.388 . S
C417 H404 0.930 . S
C417 C416 1.388 . S
C417 C418 1.390 . S
C418 C417 1.390 . S
C418 C419 1.394 . S
C418 C424 1.465 . S
C419 C414 1.399 . S
C419 C418 1.394 . S
C419 C420 1.516 . S
C420 C419 1.516 . S
C420 C421 1.502 . S
C420 C422 1.561 . S
C420 C423 1.526 . S
C421 H405 0.959 . S
C421 H406 0.959 . S
C421 H407 0.961 . S
C421 C420 1.502 . S
C422 H408 0.960 . S
C422 H409 0.961 . S
C422 H410 0.959 . S
C422 C420 1.561 . S
C423 C420 1.526 . S
C423 C424 1.396 . S
C423 C428 1.390 . S
C424 C418 1.465 . S
C424 C423 1.396 . S
C424 C425 1.399 . S
C425 H411 0.929 . S
C425 C424 1.399 . S
C425 C426 1.385 . S
C426 H412 0.931 . S
C426 C425 1.385 . S
C426 C427 1.389 . S
C427 C426 1.389 . S
C427 C428 1.387 . S
C428 H413 0.930 . S
C428 C423 1.390 . S
C428 C427 1.387 . S
H429 C441 0.930 . S
H430 C443 0.930 . S
H431 C444 0.930 . S
H432 C448 0.959 . S
H433 C448 0.959 . S
H434 C448 0.961 . S
H435 C449 0.960 . S
H436 C449 0.961 . S
H437 C449 0.959 . S
H438 C452 0.929 . S
H439 C453 0.931 1_655 S
H440 C455 0.930 . S
C441 H429 0.930 . S
C441 C442 1.399 . S
C441 C446 1.399 . S
C442 C441 1.399 . S
C442 C443 1.376 . S
C443 H430 0.930 . S
C443 C442 1.376 . S
C443 C444 1.388 . S
C444 H431 0.930 . S
C444 C443 1.388 . S
C444 C445 1.390 . S
C445 C444 1.390 . S
C445 C446 1.394 . S
C445 C451 1.465 . S
C446 C441 1.399 . S
C446 C445 1.394 . S
C446 C447 1.516 . S
C447 C446 1.516 . S
C447 C448 1.502 . S
C447 C449 1.561 . S
C447 C450 1.526 . S
C448 H432 0.959 . S
C448 H433 0.959 . S
C448 H434 0.961 . S
C448 C447 1.502 . S
C449 H435 0.960 . S
C449 H436 0.961 . S
C449 H437 0.959 . S
C449 C447 1.561 . S
C450 C447 1.526 . S
C450 C451 1.396 . S
C450 C455 1.390 . S
C451 C445 1.465 . S
C451 C450 1.396 . S
C451 C452 1.399 . S
C452 H438 0.929 . S
C452 C451 1.399 . S
C452 C453 1.385 . S
C453 H439 0.931 1_455 S
C453 C452 1.385 . S
C453 C454 1.389 . S
C454 C453 1.389 . S
C454 C455 1.387 . S
C455 H440 0.930 . S
C455 C450 1.390 . S
C455 C454 1.387 . S
H456 C468 0.930 . S
H457 C470 0.930 . S
H458 C471 0.930 . S
H459 C475 0.959 1_545 S
H460 C475 0.959 . S
H461 C475 0.961 . S
H462 C476 0.960 . S
H463 C476 0.961 . S
H464 C476 0.959 . S
H465 C479 0.929 . S
H466 C480 0.931 . S
H467 C482 0.930 . S
C468 H456 0.930 . S
C468 C469 1.399 . S
C468 C473 1.399 . S
C469 C468 1.399 . S
C469 C470 1.376 . S
C470 H457 0.930 . S
C470 C469 1.376 . S
C470 C471 1.388 . S
C471 H458 0.930 . S
C471 C470 1.388 . S
C471 C472 1.390 . S
C472 C471 1.390 . S
C472 C473 1.394 . S
C472 C478 1.465 . S
C473 C468 1.399 . S
C473 C472 1.394 . S
C473 C474 1.516 . S
C474 C473 1.516 . S
C474 C475 1.502 . S
C474 C476 1.561 . S
C474 C477 1.526 . S
C475 H459 0.959 1_565 S
C475 H460 0.959 . S
C475 H461 0.961 . S
C475 C474 1.502 . S
C476 H462 0.960 . S
C476 H463 0.961 . S
C476 H464 0.959 . S
C476 C474 1.561 . S
C477 C474 1.526 . S
C477 C478 1.396 . S
C477 C482 1.390 . S
C478 C472 1.465 . S
C478 C477 1.396 . S
C478 C479 1.399 . S
C479 H465 0.929 . S
C479 C478 1.399 . S
C479 C480 1.385 . S
C480 H466 0.931 . S
C480 C479 1.385 . S
C480 C481 1.389 . S
C481 C480 1.389 . S
C481 C482 1.387 . S
C482 H467 0.930 . S
C482 C477 1.390 . S
C482 C481 1.387 . S
H483 C495 0.930 . S
H484 C497 0.930 . S
H485 C498 0.930 . S
H486 C502 0.959 . S
H487 C502 0.959 . S
H488 C502 0.961 . S
H489 C503 0.960 . S
H490 C503 0.961 . S
H491 C503 0.959 . S
H492 C506 0.929 . S
H493 C507 0.931 . S
H494 C509 0.930 . S
C495 H483 0.930 . S
C495 C496 1.399 . S
C495 C500 1.399 . S
C496 C495 1.399 . S
C496 C497 1.376 . S
C497 H484 0.930 . S
C497 C496 1.376 . S
C497 C498 1.388 . S
C498 H485 0.930 . S
C498 C497 1.388 . S
C498 C499 1.390 . S
C499 C498 1.390 . S
C499 C500 1.394 . S
C499 C505 1.465 . S
C500 C495 1.399 . S
C500 C499 1.394 . S
C500 C501 1.516 . S
C501 C500 1.516 . S
C501 C502 1.502 . S
C501 C503 1.561 . S
C501 C504 1.526 . S
C502 H486 0.959 . S
C502 H487 0.959 . S
C502 H488 0.961 . S
C502 C501 1.502 . S
C503 H489 0.960 . S
C503 H490 0.961 . S
C503 H491 0.959 . S
C503 C501 1.561 . S
C504 C501 1.526 . S
C504 C505 1.396 . S
C504 C509 1.390 . S
C505 C499 1.465 . S
C505 C504 1.396 . S
C505 C506 1.399 . S
C506 H492 0.929 . S
C506 C505 1.399 . S
C506 C507 1.385 . S
C507 H493 0.931 . S
C507 C506 1.385 . S
C507 C508 1.389 . S
C508 C507 1.389 . S
C508 C509 1.387 . S
C509 H494 0.930 . S
C509 C504 1.390 . S
C509 C508 1.387 . S
H510 C522 0.930 . S
H511 C524 0.930 . S
H512 C525 0.930 . S
H513 C529 0.959 . S
H514 C529 0.959 . S
H515 C529 0.961 . S
H516 C530 0.960 . S
H517 C530 0.961 . S
H518 C530 0.959 . S
H519 C533 0.929 . S
H520 C534 0.931 . S
H521 C536 0.930 . S
C522 H510 0.930 . S
C522 C523 1.386 1_655 S
C522 C527 1.399 . S
C523 C522 1.386 1_455 S
C523 C524 1.377 . S
C524 H511 0.930 . S
C524 C523 1.377 . S
C524 C525 1.388 . S
C525 H512 0.930 . S
C525 C524 1.388 . S
C525 C526 1.390 1_455 S
C526 C525 1.390 1_655 S
C526 C527 1.394 . S
C526 C532 1.465 . S
C527 C522 1.399 . S
C527 C526 1.394 . S
C527 C528 1.516 . S
C528 C527 1.516 . S
C528 C529 1.502 . S
C528 C530 1.561 . S
C528 C531 1.526 . S
C529 H513 0.959 . S
C529 H514 0.959 . S
C529 H515 0.961 . S
C529 C528 1.502 . S
C530 H516 0.960 . S
C530 H517 0.961 . S
C530 H518 0.959 . S
C530 C528 1.561 . S
C531 C528 1.526 . S
C531 C532 1.396 . S
C531 C536 1.390 . S
C532 C526 1.465 . S
C532 C531 1.396 . S
C532 C533 1.399 . S
C533 H519 0.929 . S
C533 C532 1.399 . S
C533 C534 1.385 . S
C534 H520 0.931 . S
C534 C533 1.385 . S
C534 C535 1.389 . S
C535 C534 1.389 . S
C535 C536 1.387 . S
C536 H521 0.930 . S
C536 C531 1.390 . S
C536 C535 1.387 . S
H537 C549 0.930 1_565 S
H538 C551 0.930 . S
H539 C552 0.930 . S
H540 C556 0.959 1_565 S
H541 C556 0.959 . S
H542 C556 0.961 1_565 S
H543 C557 0.960 . S
H544 C557 0.961 . S
H545 C557 0.959 . S
H546 C560 0.929 . S
H547 C561 0.931 . S
H548 C563 0.930 . S
C549 H537 0.930 1_545 S
C549 C550 1.399 . S
C549 C554 1.399 . S
C550 C549 1.399 . S
C550 C551 1.376 . S
C551 H538 0.930 . S
C551 C550 1.376 . S
C551 C552 1.388 . S
C552 H539 0.930 . S
C552 C551 1.388 . S
C552 C553 1.390 . S
C553 C552 1.390 . S
C553 C554 1.394 . S
C553 C559 1.465 . S
C554 C549 1.399 . S
C554 C553 1.394 . S
C554 C555 1.516 . S
C555 C554 1.516 . S
C555 C556 1.502 . S
C555 C557 1.561 . S
C555 C558 1.526 . S
C556 H540 0.959 1_545 S
C556 H541 0.959 . S
C556 H542 0.961 1_545 S
C556 C555 1.502 . S
C557 H543 0.960 . S
C557 H544 0.961 . S
C557 H545 0.959 . S
C557 C555 1.561 . S
C558 C555 1.526 . S
C558 C559 1.396 . S
C558 C563 1.390 . S
C559 C553 1.465 . S
C559 C558 1.396 . S
C559 C560 1.399 . S
C560 H546 0.929 . S
C560 C559 1.399 . S
C560 C561 1.385 . S
C561 H547 0.931 . S
C561 C560 1.385 . S
C561 C562 1.389 . S
C562 C561 1.389 . S
C562 C563 1.387 . S
C563 H548 0.930 . S
C563 C558 1.390 . S
C563 C562 1.387 . S
H564 C576 0.930 . S
H565 C578 0.930 . S
H566 C579 0.930 . S
H567 C583 0.959 . S
H568 C583 0.959 . S
H569 C583 0.961 . S
H570 C584 0.960 . S
H571 C584 0.961 . S
H572 C584 0.959 . S
H573 C587 0.929 . S
H574 C588 0.931 1_554 S
H575 C590 0.932 . S
C576 H564 0.930 . S
C576 C577 1.399 . S
C576 C581 1.399 . S
C577 C576 1.399 . S
C577 C578 1.376 . S
C578 H565 0.930 . S
C578 C577 1.376 . S
C578 C579 1.388 . S
C579 H566 0.930 . S
C579 C578 1.388 . S
C579 C580 1.390 . S
C580 C579 1.390 . S
C580 C581 1.394 . S
C580 C586 1.465 . S
C581 C576 1.399 . S
C581 C580 1.394 . S
C581 C582 1.516 . S
C582 C581 1.516 . S
C582 C583 1.502 . S
C582 C584 1.561 . S
C582 C585 1.526 . S
C583 H567 0.959 . S
C583 H568 0.959 . S
C583 H569 0.961 . S
C583 C582 1.502 . S
C584 H570 0.960 . S
C584 H571 0.961 . S
C584 H572 0.959 . S
C584 C582 1.561 . S
C585 C582 1.526 . S
C585 C586 1.396 . S
C585 C590 1.390 . S
C586 C580 1.465 . S
C586 C585 1.396 . S
C586 C587 1.399 . S
C587 H573 0.929 . S
C587 C586 1.399 . S
C587 C588 1.385 . S
C588 H574 0.931 1_556 S
C588 C587 1.385 . S
C588 C589 1.389 1_556 S
C589 C588 1.389 1_554 S
C589 C590 1.387 1_554 S
C590 H575 0.932 . S
C590 C585 1.390 . S
C590 C589 1.387 1_556 S
H591 C603 0.930 . S
H592 C605 0.930 . S
H593 C606 0.930 . S
H594 C610 0.959 . S
H595 C610 0.959 . S
H596 C610 0.961 . S
H597 C611 0.960 . S
H598 C611 0.961 . S
H599 C611 0.959 . S
H600 C614 0.929 . S
H601 C615 0.931 . S
H602 C617 0.930 . S
C603 H591 0.930 . S
C603 C604 1.399 . S
C603 C608 1.399 . S
C604 C603 1.399 . S
C604 C605 1.376 . S
C605 H592 0.930 . S
C605 C604 1.376 . S
C605 C606 1.388 . S
C606 H593 0.930 . S
C606 C605 1.388 . S
C606 C607 1.390 . S
C607 C606 1.390 . S
C607 C608 1.394 . S
C607 C613 1.465 1_655 S
C608 C603 1.399 . S
C608 C607 1.394 . S
C608 C609 1.516 . S
C609 C608 1.516 . S
C609 C610 1.502 1_655 S
C609 C611 1.561 . S
C609 C612 1.526 1_655 S
C610 H594 0.959 . S
C610 H595 0.959 . S
C610 H596 0.961 . S
C610 C609 1.502 1_455 S
C611 H597 0.960 . S
C611 H598 0.961 . S
C611 H599 0.959 . S
C611 C609 1.561 . S
C612 C609 1.526 1_455 S
C612 C613 1.396 . S
C612 C617 1.390 . S
C613 C607 1.465 1_455 S
C613 C612 1.396 . S
C613 C614 1.399 . S
C614 H600 0.929 . S
C614 C613 1.399 . S
C614 C615 1.385 . S
C615 H601 0.931 . S
C615 C614 1.385 . S
C615 C616 1.389 . S
C616 C615 1.389 . S
C616 C617 1.387 . S
C617 H602 0.930 . S
C617 C612 1.390 . S
C617 C616 1.387 . S
H618 C630 0.930 . S
H619 C632 0.930 . S
H620 C633 0.930 . S
H621 C637 0.959 1_565 S
H622 C637 0.959 . S
H623 C637 0.960 1_565 S
H624 C638 0.960 . S
H625 C638 0.961 . S
H626 C638 0.959 . S
H627 C641 0.929 . S
H628 C642 0.931 . S
H629 C644 0.930 . S
C630 H618 0.930 . S
C630 C631 1.399 . S
C630 C635 1.399 . S
C631 C630 1.399 . S
C631 C632 1.376 . S
C632 H619 0.930 . S
C632 C631 1.376 . S
C632 C633 1.388 . S
C633 H620 0.930 . S
C633 C632 1.388 . S
C633 C634 1.390 . S
C634 C633 1.390 . S
C634 C635 1.394 . S
C634 C640 1.465 1_565 S
C635 C630 1.399 . S
C635 C634 1.394 . S
C635 C636 1.516 1_565 S
C636 C635 1.516 1_545 S
C636 C637 1.502 . S
C636 C638 1.561 . S
C636 C639 1.526 . S
C637 H621 0.959 1_545 S
C637 H622 0.959 . S
C637 H623 0.960 1_545 S
C637 C636 1.502 . S
C638 H624 0.960 . S
C638 H625 0.961 . S
C638 H626 0.959 . S
C638 C636 1.561 . S
C639 C636 1.526 . S
C639 C640 1.396 . S
C639 C644 1.390 . S
C640 C634 1.465 1_545 S
C640 C639 1.396 . S
C640 C641 1.399 . S
C641 H627 0.929 . S
C641 C640 1.399 . S
C641 C642 1.385 . S
C642 H628 0.931 . S
C642 C641 1.385 . S
C642 C643 1.389 . S
C643 C642 1.389 . S
C643 C644 1.387 . S
C644 H629 0.930 . S
C644 C639 1.390 . S
C644 C643 1.387 . S
H645 C657 0.930 . S
H646 C659 0.930 . S
H647 C660 0.930 . S
H648 C664 0.959 . S
H649 C664 0.959 . S
H650 C664 0.961 . S
H651 C665 0.960 . S
H652 C665 0.961 . S
H653 C665 0.959 . S
H654 C668 0.929 . S
H655 C669 0.931 . S
H656 C671 0.930 1_554 S
C657 H645 0.930 . S
C657 C658 1.399 . S
C657 C662 1.399 . S
C658 C657 1.399 . S
C658 C659 1.376 . S
C659 H646 0.930 . S
C659 C658 1.376 . S
C659 C660 1.388 . S
C660 H647 0.930 . S
C660 C659 1.388 . S
C660 C661 1.390 . S
C661 C660 1.390 . S
C661 C662 1.394 . S
C661 C667 1.465 . S
C662 C657 1.399 . S
C662 C661 1.394 . S
C662 C663 1.516 . S
C663 C662 1.516 . S
C663 C664 1.502 . S
C663 C665 1.561 . S
C663 C666 1.526 . S
C664 H648 0.959 . S
C664 H649 0.959 . S
C664 H650 0.961 . S
C664 C663 1.502 . S
C665 H651 0.960 . S
C665 H652 0.961 . S
C665 H653 0.959 . S
C665 C663 1.561 . S
C666 C663 1.526 . S
C666 C667 1.396 . S
C666 C671 1.390 . S
C667 C661 1.465 . S
C667 C666 1.396 . S
C667 C668 1.399 . S
C668 H654 0.929 . S
C668 C667 1.399 . S
C668 C669 1.385 1_556 S
C669 H655 0.931 . S
C669 C668 1.385 1_554 S
C669 C670 1.389 . S
C670 C669 1.389 . S
C670 C671 1.387 1_554 S
C671 H656 0.930 1_556 S
C671 C666 1.390 . S
C671 C670 1.387 1_556 S
H672 C684 0.930 . S
H673 C686 0.930 . S
H674 C687 0.930 . S
H675 C691 0.959 . S
H676 C691 0.963 . S
H677 C691 0.961 . S
H678 C692 0.960 . S
H679 C692 0.961 . S
H680 C692 0.959 . S
H681 C695 0.929 . S
H682 C696 0.931 . S
H683 C698 0.930 . S
C684 H672 0.930 . S
C684 C685 1.399 . S
C684 C689 1.399 . S
C685 C684 1.399 . S
C685 C686 1.376 . S
C686 H673 0.930 . S
C686 C685 1.376 . S
C686 C687 1.388 . S
C687 H674 0.930 . S
C687 C686 1.388 . S
C687 C688 1.390 . S
C688 C687 1.390 . S
C688 C689 1.394 . S
C688 C694 1.465 1_455 S
C689 C684 1.399 . S
C689 C688 1.394 . S
C689 C690 1.516 1_455 S
C690 C689 1.516 1_655 S
C690 C691 1.502 1_655 S
C690 C692 1.561 . S
C690 C693 1.526 . S
C691 H675 0.959 . S
C691 H676 0.963 . S
C691 H677 0.961 . S
C691 C690 1.502 1_455 S
C692 H678 0.960 . S
C692 H679 0.961 . S
C692 H680 0.959 . S
C692 C690 1.561 . S
C693 C690 1.526 . S
C693 C694 1.396 . S
C693 C698 1.390 . S
C694 C688 1.465 1_655 S
C694 C693 1.396 . S
C694 C695 1.399 . S
C695 H681 0.929 . S
C695 C694 1.399 . S
C695 C696 1.385 . S
C696 H682 0.931 . S
C696 C695 1.385 . S
C696 C697 1.389 . S
C697 C696 1.389 . S
C697 C698 1.387 . S
C698 H683 0.930 . S
C698 C693 1.390 . S
C698 C697 1.387 . S
H699 C711 0.930 . S
H700 C713 0.930 . S
H701 C714 0.930 . S
H702 C718 0.959 . S
H703 C718 0.959 . S
H704 C718 0.961 . S
H705 C719 0.960 . S
H706 C719 0.961 . S
H707 C719 0.959 . S
H708 C722 0.929 . S
H709 C723 0.931 . S
H710 C725 0.930 . S
C711 H699 0.930 . S
C711 C712 1.399 . S
C711 C716 1.399 . S
C712 C711 1.399 . S
C712 C713 1.376 1_545 S
C713 H700 0.930 . S
C713 C712 1.376 1_565 S
C713 C714 1.388 . S
C714 H701 0.930 . S
C714 C713 1.388 . S
C714 C715 1.390 . S
C715 C714 1.390 . S
C715 C716 1.394 1_565 S
C715 C721 1.465 . S
C716 C711 1.399 . S
C716 C715 1.394 1_545 S
C716 C717 1.516 . S
C717 C716 1.516 . S
C717 C718 1.502 . S
C717 C719 1.561 . S
C717 C720 1.526 . S
C718 H702 0.959 . S
C718 H703 0.959 . S
C718 H704 0.961 . S
C718 C717 1.502 . S
C719 H705 0.960 . S
C719 H706 0.961 . S
C719 H707 0.959 . S
C719 C717 1.561 . S
C720 C717 1.526 . S
C720 C721 1.396 1_545 S
C720 C725 1.390 . S
C721 C715 1.465 . S
C721 C720 1.396 1_565 S
C721 C722 1.399 . S
C722 H708 0.929 . S
C722 C721 1.399 . S
C722 C723 1.385 . S
C723 H709 0.931 . S
C723 C722 1.385 . S
C723 C724 1.389 . S
C724 C723 1.389 . S
C724 C725 1.387 1_565 S
C725 H710 0.930 . S
C725 C720 1.390 . S
C725 C724 1.387 1_545 S
C253 C184 1.330 . S
C265 C26 1.386 . S
C280 C226 1.335 . S
C292 C64 1.385 . S
C307 C24 1.331 . S
C319 C106 1.385 . S
C334 C66 1.376 . S
C346 C144 1.344 . S
C361 C104 1.360 . S
C373 C186 1.361 . S
C388 C146 1.354 . S
C400 C224 1.365 . S
C415 C2 1.619 . S
C427 C143 1.714 . S
C442 C162 1.644 . S
C454 C63 1.699 1_455 S
C469 C223 1.719 1_565 S
C481 C82 1.595 . S
C496 C103 1.647 . S
C508 C202 1.602 . S
C523 C23 1.714 . S
C535 C122 1.642 . S
C550 C183 1.718 1_545 S
C562 C42 1.576 . S
C577 C217 0.716 . S
C589 C17 0.715 . S
C604 C53 1.541 . S
C616 C13 1.546 . S
C631 C97 0.834 . S
C643 C57 0.830 . S
C658 C93 1.542 . S
C670 C133 1.543 . S
C685 C177 0.830 . S
C697 C137 0.834 . S
C712 C213 1.565 . S
C724 C173 1.541 . S
