# Generated by pormake.
# Topology pem, (4)-cn, num edge types: 1
# Building blocks:
#     Node 0, Type 0, BuildingBlock: QUQFOY_clean_sbu_3, # of connection points: 4
#     Node 1, Type 0, BuildingBlock: QUQFOY_clean_sbu_3, # of connection points: 4
#     Node 2, Type 0, BuildingBlock: QUQFOY_clean_sbu_3, # of connection points: 4
#     Node 3, Type 0, BuildingBlock: QUQFOY_clean_sbu_3, # of connection points: 4
#     Node 4, Type 0, BuildingBlock: QUQFOY_clean_sbu_3, # of connection points: 4
#     Node 5, Type 0, BuildingBlock: QUQFOY_clean_sbu_3, # of connection points: 4
#     Node 6, Type 0, BuildingBlock: QUQFOY_clean_sbu_3, # of connection points: 4
#     Node 7, Type 0, BuildingBlock: QUQFOY_clean_sbu_3, # of connection points: 4
#     Node 8, Type 0, BuildingBlock: QUQFOY_clean_sbu_3, # of connection points: 4
#     Node 9, Type 0, BuildingBlock: QUQFOY_clean_sbu_3, # of connection points: 4
#     Node 10, Type 0, BuildingBlock: QUQFOY_clean_sbu_3, # of connection points: 4
#     Node 11, Type 0, BuildingBlock: QUQFOY_clean_sbu_3, # of connection points: 4
#     Node 12, Type 0, BuildingBlock: QUQFOY_clean_sbu_3, # of connection points: 4
#     Node 13, Type 0, BuildingBlock: QUQFOY_clean_sbu_3, # of connection points: 4
#     Node 14, Type 0, BuildingBlock: QUQFOY_clean_sbu_3, # of connection points: 4
#     Node 15, Type 0, BuildingBlock: QUQFOY_clean_sbu_3, # of connection points: 4
#     Node 16, Type 0, BuildingBlock: QUQFOY_clean_sbu_3, # of connection points: 4
#     Node 17, Type 0, BuildingBlock: QUQFOY_clean_sbu_3, # of connection points: 4
#     Node 18, Type 0, BuildingBlock: QUQFOY_clean_sbu_3, # of connection points: 4
#     Node 19, Type 0, BuildingBlock: QUQFOY_clean_sbu_3, # of connection points: 4
#     Node 20, Type 0, BuildingBlock: QUQFOY_clean_sbu_3, # of connection points: 4
#     Node 21, Type 0, BuildingBlock: QUQFOY_clean_sbu_3, # of connection points: 4
#     Node 22, Type 0, BuildingBlock: QUQFOY_clean_sbu_3, # of connection points: 4
#     Node 23, Type 0, BuildingBlock: QUQFOY_clean_sbu_3, # of connection points: 4
#     Node 24, Type 0, BuildingBlock: QUQFOY_clean_sbu_3, # of connection points: 4
#     Node 25, Type 0, BuildingBlock: QUQFOY_clean_sbu_3, # of connection points: 4
#     Node 26, Type 0, BuildingBlock: QUQFOY_clean_sbu_3, # of connection points: 4
#     Node 27, Type 0, BuildingBlock: QUQFOY_clean_sbu_3, # of connection points: 4
#     Node 28, Type 0, BuildingBlock: QUQFOY_clean_sbu_3, # of connection points: 4
#     Node 29, Type 0, BuildingBlock: QUQFOY_clean_sbu_3, # of connection points: 4
#     Node 30, Type 0, BuildingBlock: QUQFOY_clean_sbu_3, # of connection points: 4
#     Node 31, Type 0, BuildingBlock: QUQFOY_clean_sbu_3, # of connection points: 4
#     Edge 32, Type (0, 0), BuildingBlock: UVAHIK_clean_linker_0, # of connection points: 2
#     Edge 33, Type (0, 0), BuildingBlock: UVAHIK_clean_linker_0, # of connection points: 2
#     Edge 34, Type (0, 0), BuildingBlock: UVAHIK_clean_linker_0, # of connection points: 2
#     Edge 35, Type (0, 0), BuildingBlock: UVAHIK_clean_linker_0, # of connection points: 2
#     Edge 36, Type (0, 0), BuildingBlock: UVAHIK_clean_linker_0, # of connection points: 2
#     Edge 37, Type (0, 0), BuildingBlock: UVAHIK_clean_linker_0, # of connection points: 2
#     Edge 38, Type (0, 0), BuildingBlock: UVAHIK_clean_linker_0, # of connection points: 2
#     Edge 39, Type (0, 0), BuildingBlock: UVAHIK_clean_linker_0, # of connection points: 2
#     Edge 40, Type (0, 0), BuildingBlock: UVAHIK_clean_linker_0, # of connection points: 2
#     Edge 41, Type (0, 0), BuildingBlock: UVAHIK_clean_linker_0, # of connection points: 2
#     Edge 42, Type (0, 0), BuildingBlock: UVAHIK_clean_linker_0, # of connection points: 2
#     Edge 43, Type (0, 0), BuildingBlock: UVAHIK_clean_linker_0, # of connection points: 2
#     Edge 44, Type (0, 0), BuildingBlock: UVAHIK_clean_linker_0, # of connection points: 2
#     Edge 45, Type (0, 0), BuildingBlock: UVAHIK_clean_linker_0, # of connection points: 2
#     Edge 46, Type (0, 0), BuildingBlock: UVAHIK_clean_linker_0, # of connection points: 2
#     Edge 47, Type (0, 0), BuildingBlock: UVAHIK_clean_linker_0, # of connection points: 2
#     Edge 48, Type (0, 0), BuildingBlock: UVAHIK_clean_linker_0, # of connection points: 2
#     Edge 49, Type (0, 0), BuildingBlock: UVAHIK_clean_linker_0, # of connection points: 2
#     Edge 50, Type (0, 0), BuildingBlock: UVAHIK_clean_linker_0, # of connection points: 2
#     Edge 51, Type (0, 0), BuildingBlock: UVAHIK_clean_linker_0, # of connection points: 2
#     Edge 52, Type (0, 0), BuildingBlock: UVAHIK_clean_linker_0, # of connection points: 2
#     Edge 53, Type (0, 0), BuildingBlock: UVAHIK_clean_linker_0, # of connection points: 2
#     Edge 54, Type (0, 0), BuildingBlock: UVAHIK_clean_linker_0, # of connection points: 2
#     Edge 55, Type (0, 0), BuildingBlock: UVAHIK_clean_linker_0, # of connection points: 2
#     Edge 56, Type (0, 0), BuildingBlock: UVAHIK_clean_linker_0, # of connection points: 2
#     Edge 57, Type (0, 0), BuildingBlock: UVAHIK_clean_linker_0, # of connection points: 2
#     Edge 58, Type (0, 0), BuildingBlock: UVAHIK_clean_linker_0, # of connection points: 2
#     Edge 59, Type (0, 0), BuildingBlock: UVAHIK_clean_linker_0, # of connection points: 2
#     Edge 60, Type (0, 0), BuildingBlock: UVAHIK_clean_linker_0, # of connection points: 2
#     Edge 61, Type (0, 0), BuildingBlock: UVAHIK_clean_linker_0, # of connection points: 2
#     Edge 62, Type (0, 0), BuildingBlock: UVAHIK_clean_linker_0, # of connection points: 2
#     Edge 63, Type (0, 0), BuildingBlock: UVAHIK_clean_linker_0, # of connection points: 2
#     Edge 64, Type (0, 0), BuildingBlock: UVAHIK_clean_linker_0, # of connection points: 2
#     Edge 65, Type (0, 0), BuildingBlock: UVAHIK_clean_linker_0, # of connection points: 2
#     Edge 66, Type (0, 0), BuildingBlock: UVAHIK_clean_linker_0, # of connection points: 2
#     Edge 67, Type (0, 0), BuildingBlock: UVAHIK_clean_linker_0, # of connection points: 2
#     Edge 68, Type (0, 0), BuildingBlock: UVAHIK_clean_linker_0, # of connection points: 2
#     Edge 69, Type (0, 0), BuildingBlock: UVAHIK_clean_linker_0, # of connection points: 2
#     Edge 70, Type (0, 0), BuildingBlock: UVAHIK_clean_linker_0, # of connection points: 2
#     Edge 71, Type (0, 0), BuildingBlock: UVAHIK_clean_linker_0, # of connection points: 2
#     Edge 72, Type (0, 0), BuildingBlock: UVAHIK_clean_linker_0, # of connection points: 2
#     Edge 73, Type (0, 0), BuildingBlock: UVAHIK_clean_linker_0, # of connection points: 2
#     Edge 74, Type (0, 0), BuildingBlock: UVAHIK_clean_linker_0, # of connection points: 2
#     Edge 75, Type (0, 0), BuildingBlock: UVAHIK_clean_linker_0, # of connection points: 2
#     Edge 76, Type (0, 0), BuildingBlock: UVAHIK_clean_linker_0, # of connection points: 2
#     Edge 77, Type (0, 0), BuildingBlock: UVAHIK_clean_linker_0, # of connection points: 2
#     Edge 78, Type (0, 0), BuildingBlock: UVAHIK_clean_linker_0, # of connection points: 2
#     Edge 79, Type (0, 0), BuildingBlock: UVAHIK_clean_linker_0, # of connection points: 2
#     Edge 80, Type (0, 0), BuildingBlock: UVAHIK_clean_linker_0, # of connection points: 2
#     Edge 81, Type (0, 0), BuildingBlock: UVAHIK_clean_linker_0, # of connection points: 2
#     Edge 82, Type (0, 0), BuildingBlock: UVAHIK_clean_linker_0, # of connection points: 2
#     Edge 83, Type (0, 0), BuildingBlock: UVAHIK_clean_linker_0, # of connection points: 2
#     Edge 84, Type (0, 0), BuildingBlock: UVAHIK_clean_linker_0, # of connection points: 2
#     Edge 85, Type (0, 0), BuildingBlock: UVAHIK_clean_linker_0, # of connection points: 2
#     Edge 86, Type (0, 0), BuildingBlock: UVAHIK_clean_linker_0, # of connection points: 2
#     Edge 87, Type (0, 0), BuildingBlock: UVAHIK_clean_linker_0, # of connection points: 2
#     Edge 88, Type (0, 0), BuildingBlock: UVAHIK_clean_linker_0, # of connection points: 2
#     Edge 89, Type (0, 0), BuildingBlock: UVAHIK_clean_linker_0, # of connection points: 2
#     Edge 90, Type (0, 0), BuildingBlock: UVAHIK_clean_linker_0, # of connection points: 2
#     Edge 91, Type (0, 0), BuildingBlock: UVAHIK_clean_linker_0, # of connection points: 2
#     Edge 92, Type (0, 0), BuildingBlock: UVAHIK_clean_linker_0, # of connection points: 2
#     Edge 93, Type (0, 0), BuildingBlock: UVAHIK_clean_linker_0, # of connection points: 2
#     Edge 94, Type (0, 0), BuildingBlock: UVAHIK_clean_linker_0, # of connection points: 2
#     Edge 95, Type (0, 0), BuildingBlock: UVAHIK_clean_linker_0, # of connection points: 2
# Relax obj value: 0.223
# Max RMSD: 0.159
# Mean RMSD: 0.155
data_MOF--net-pem--node1-QUQFOY_clean_sbu_3--edge1-UVAHIK_clean_linker_0
_symmetry_space_group_name_H-M    P1
_symmetry_Int_Tables_number       1
_symmetry_cell_setting            triclinic
loop_
_symmetry_equiv_pos_as_xyz
'x, y, z'
_cell_length_a     61.93527
_cell_length_b     51.941522
_cell_length_c     51.951485
_cell_angle_alpha  89.959732
_cell_angle_beta   90.008989
_cell_angle_gamma 90.052834
loop_
_atom_site_label
_atom_site_type_symbol
_atom_site_fract_x
_atom_site_fract_y
_atom_site_fract_z
_atom_type_partial_charge
C0 C 0.13273 0.08806 0.01068 0.0
O1 O 0.12111 0.06839 0.00645 0.0
Cd2 Cd 0.0877 0.05955 0.02706 0.0
O3 O 0.12659 0.10534 0.02649 0.0
Cd4 Cd 0.09418 0.11213 0.05392 0.0
C5 C 0.10312 0.05966 0.09038 0.0
O6 O 0.06603 0.0976 0.02443 0.0
O7 O 0.05696 0.10168 0.06432 0.0
O8 O 0.09053 0.1572 0.04155 0.0
C9 C 0.05115 0.09882 0.04115 0.0
O10 O 0.09678 0.047 0.07083 0.0
C11 C 0.08807 0.16513 0.06445 0.0
O12 O 0.10477 0.08408 0.08963 0.0
O13 O 0.09168 0.14899 0.08232 0.0
C14 C 0.07058 0.80048 0.331 0.0
O15 O 0.07494 0.79657 0.3075 0.0
Cd16 Cd 0.10876 0.80685 0.28905 0.0
O17 O 0.08365 0.81264 0.34558 0.0
Cd18 Cd 0.1189 0.83462 0.33756 0.0
C19 C 0.10714 0.87143 0.28577 0.0
O20 O 0.13555 0.79585 0.32106 0.0
O21 O 0.15417 0.83069 0.31657 0.0
O22 O 0.13073 0.82725 0.38194 0.0
C23 C 0.15373 0.80635 0.31752 0.0
O24 O 0.10716 0.85059 0.27303 0.0
C25 C 0.13795 0.84987 0.38515 0.0
O26 O 0.10969 0.87128 0.31004 0.0
O27 O 0.134 0.86595 0.36739 0.0
C28 C 0.3461 0.88808 0.49412 0.0
O29 O 0.3557 0.90813 0.48615 0.0
Cd30 Cd 0.38672 0.92772 0.50451 0.0
O31 O 0.35375 0.87512 0.51286 0.0
Cd32 Cd 0.38659 0.88015 0.54004 0.0
C33 C 0.36866 0.93484 0.56629 0.0
O34 O 0.41499 0.89736 0.51163 0.0
O35 O 0.41802 0.90374 0.55254 0.0
O36 O 0.40036 0.8365 0.53694 0.0
C37 C 0.42674 0.90409 0.53054 0.0
O38 O 0.37415 0.94533 0.54514 0.0
C39 C 0.40294 0.83414 0.56108 0.0
O40 O 0.37032 0.91065 0.5697 0.0
O41 O 0.3942 0.85111 0.57524 0.0
C42 C 0.38583 0.18345 0.81588 0.0
O43 O 0.37759 0.19634 0.79762 0.0
Cd44 Cd 0.34293 0.18984 0.78022 0.0
O45 O 0.37545 0.16517 0.82667 0.0
Cd46 Cd 0.33787 0.14825 0.82098 0.0
C47 C 0.34401 0.12772 0.76006 0.0
O48 O 0.3216 0.19054 0.81887 0.0
O49 O 0.30028 0.15903 0.80986 0.0
O50 O 0.33506 0.14364 0.86726 0.0
C51 C 0.30252 0.18239 0.81626 0.0
O52 O 0.34409 0.15128 0.75349 0.0
C53 C 0.3255 0.12205 0.86658 0.0
O54 O 0.34253 0.12123 0.78354 0.0
O55 O 0.32398 0.11127 0.84476 0.0
C56 C 0.13996 0.89308 0.47269 0.0
O57 O 0.13265 0.9157 0.47553 0.0
Cd58 Cd 0.09952 0.93175 0.45858 0.0
O59 O 0.12993 0.87686 0.45869 0.0
Cd60 Cd 0.09693 0.8824 0.43178 0.0
C61 C 0.11104 0.93217 0.39523 0.0
O62 O 0.07118 0.90092 0.46266 0.0
O63 O 0.0641 0.90599 0.42233 0.0
O64 O 0.0829 0.83908 0.43958 0.0
C65 C 0.05733 0.90566 0.44531 0.0
O66 O 0.10418 0.94519 0.41425 0.0
C67 C 0.07743 0.83563 0.41629 0.0
O68 O 0.11344 0.90791 0.39708 0.0
O69 O 0.08477 0.8516 0.39998 0.0
C70 C 0.41094 0.81564 0.66003 0.0
O71 O 0.40832 0.81919 0.68397 0.0
Cd72 Cd 0.37633 0.83613 0.70232 0.0
O73 O 0.39703 0.82376 0.6438 0.0
Cd74 Cd 0.36253 0.84886 0.64728 0.0
C75 C 0.37589 0.89906 0.68606 0.0
O76 O 0.34693 0.81856 0.67774 0.0
O77 O 0.32823 0.85277 0.67032 0.0
O78 O 0.34582 0.82862 0.60971 0.0
C79 C 0.32907 0.83023 0.67951 0.0
O80 O 0.3779 0.88251 0.70388 0.0
C81 C 0.34168 0.8495 0.59808 0.0
O82 O 0.37156 0.89221 0.66313 0.0
O83 O 0.34917 0.86992 0.6081 0.0
C84 C 0.34873 0.10792 0.95638 0.0
O85 O 0.35294 0.08404 0.95576 0.0
Cd86 Cd 0.3796 0.06131 0.93314 0.0
O87 O 0.36008 0.12395 0.94342 0.0
Cd88 Cd 0.39346 0.11795 0.91543 0.0
C89 C 0.36917 0.08103 0.87087 0.0
O90 O 0.41138 0.08483 0.94074 0.0
O91 O 0.4228 0.08958 0.90188 0.0
O92 O 0.41339 0.15437 0.93425 0.0
C93 C 0.42536 0.0795 0.92381 0.0
O94 O 0.36999 0.06358 0.88806 0.0
C95 C 0.42087 0.16195 0.9128 0.0
O96 O 0.37541 0.10394 0.87566 0.0
O97 O 0.41316 0.15148 0.89273 0.0
C98 C 0.10876 0.20035 0.17826 0.0
O99 O 0.11846 0.20275 0.19964 0.0
Cd100 Cd 0.15375 0.18658 0.20848 0.0
O101 O 0.11701 0.18701 0.16013 0.0
Cd102 Cd 0.15031 0.16028 0.15582 0.0
C103 C 0.14508 0.12205 0.20777 0.0
O104 O 0.17533 0.19305 0.17097 0.0
O105 O 0.18808 0.15456 0.16854 0.0
O106 O 0.15484 0.17161 0.11051 0.0
C107 C 0.19167 0.17843 0.17095 0.0
O108 O 0.15163 0.14158 0.22029 0.0
C109 C 0.15884 0.14883 0.10312 0.0
O110 O 0.14058 0.12386 0.1839 0.0
O111 O 0.15605 0.13109 0.11962 0.0
C112 C 0.62773 0.40218 0.92081 0.0
O113 O 0.62236 0.42524 0.92564 0.0
Cd114 Cd 0.58801 0.44439 0.91851 0.0
O115 O 0.61477 0.38676 0.90958 0.0
Cd116 Cd 0.57799 0.3912 0.89066 0.0
C117 C 0.5856 0.44396 0.85312 0.0
O118 O 0.56169 0.41208 0.92775 0.0
O119 O 0.54209 0.40923 0.89351 0.0
O120 O 0.56701 0.34835 0.90301 0.0
C121 C 0.54344 0.41498 0.91711 0.0
O122 O 0.58703 0.45682 0.87384 0.0
C123 C 0.56194 0.34111 0.8805 0.0
O124 O 0.58342 0.41958 0.85341 0.0
O125 O 0.56633 0.35641 0.86215 0.0
C126 C 0.89164 0.29038 0.10634 0.0
O127 O 0.88524 0.28151 0.12778 0.0
Cd128 Cd 0.85331 0.29091 0.1504 0.0
O129 O 0.88026 0.30684 0.0941 0.0
Cd130 Cd 0.84381 0.32584 0.10481 0.0
C131 C 0.8584 0.35568 0.15936 0.0
O132 O 0.82544 0.28677 0.11916 0.0
O133 O 0.81026 0.32258 0.12935 0.0
O134 O 0.82895 0.32308 0.0615 0.0
C135 C 0.80869 0.29843 0.1267 0.0
O136 O 0.8573 0.3334 0.16944 0.0
C137 C 0.82139 0.34579 0.06169 0.0
O138 O 0.85566 0.3587 0.13529 0.0
O139 O 0.82709 0.3602 0.08019 0.0
C140 C 0.84865 0.55733 0.4549 0.0
O141 O 0.85309 0.53348 0.45439 0.0
Cd142 Cd 0.87964 0.51261 0.42868 0.0
O143 O 0.85858 0.57321 0.4403 0.0
Cd144 Cd 0.88827 0.57133 0.40775 0.0
C145 C 0.86471 0.52859 0.36697 0.0
O146 O 0.90999 0.54044 0.43081 0.0
O147 O 0.92179 0.55074 0.39325 0.0
O148 O 0.90432 0.61179 0.42183 0.0
C149 C 0.92425 0.53769 0.41359 0.0
O150 O 0.86698 0.51156 0.38439 0.0
C151 C 0.90416 0.62203 0.39962 0.0
O152 O 0.87009 0.55195 0.37082 0.0
O153 O 0.89519 0.60932 0.38168 0.0
C154 C 0.86944 0.72319 0.37665 0.0
O155 O 0.86192 0.73018 0.35503 0.0
Cd156 Cd 0.83339 0.71062 0.33191 0.0
O157 O 0.86143 0.70384 0.38845 0.0
Cd158 Cd 0.83 0.6751 0.37766 0.0
C159 C 0.85031 0.64881 0.32403 0.0
O160 O 0.80402 0.70675 0.36149 0.0
O161 O 0.79737 0.66696 0.35282 0.0
O162 O 0.81393 0.67413 0.42045 0.0
C163 C 0.79054 0.68985 0.35438 0.0
O164 O 0.84566 0.67009 0.31325 0.0
C165 C 0.81196 0.6498 0.42087 0.0
O166 O 0.8477 0.64577 0.3481 0.0
O167 O 0.82143 0.63736 0.40317 0.0
C168 C 0.62125 0.29889 0.89838 0.0
O169 O 0.64025 0.29181 0.90336 0.0
Cd170 Cd 0.65504 0.32451 0.8729 0.0
O171 O 0.61928 0.31877 0.88461 0.0
Cd172 Cd 0.658 0.33331 0.87067 0.0
C173 C 0.63116 0.37007 0.84481 0.0
O174 O 0.66997 0.29765 0.84168 0.0
O175 O 0.66957 0.33536 0.82467 0.0
O176 O 0.68626 0.32116 0.90347 0.0
C177 C 0.67353 0.31156 0.82217 0.0
O178 O 0.62713 0.3462 0.84366 0.0
C179 C 0.69524 0.34316 0.9022 0.0
O180 O 0.64598 0.37683 0.86006 0.0
O181 O 0.68578 0.36011 0.88879 0.0
C182 C 0.86522 0.85255 0.97976 0.0
O183 O 0.88021 0.85422 -0.00367 0.0
Cd184 Cd 0.91092 0.88137 0.99163 0.0
O185 O 0.86718 0.86296 0.95763 0.0
Cd186 Cd 0.89713 0.88642 0.9357 0.0
C187 C 0.94068 0.84849 0.94894 0.0
O188 O 0.89728 0.91887 0.96988 0.0
O189 O 0.92083 0.92378 0.93981 0.0
O190 O 0.87022 0.90425 0.90581 0.0
C191 C 0.91094 0.93321 0.9589 0.0
O192 O 0.93993 0.8576 0.9716 0.0
C193 C 0.88262 0.90352 0.88636 0.0
O194 O 0.92598 0.85394 0.93271 0.0
O195 O 0.90073 0.89261 0.88945 0.0
C196 C 0.87957 0.1665 0.61503 0.0
O197 O 0.86447 0.17971 0.60508 0.0
Cd198 Cd 0.82772 0.17998 0.61883 0.0
O199 O 0.87545 0.14914 0.63176 0.0
Cd200 Cd 0.84122 0.13074 0.64984 0.0
C201 C 0.81153 0.12161 0.59688 0.0
O202 O 0.82906 0.17325 0.66369 0.0
O203 O 0.80608 0.14255 0.66786 0.0
O204 O 0.86321 0.11343 0.68564 0.0
C205 C 0.81086 0.16588 0.67182 0.0
O206 O 0.80768 0.14556 0.59879 0.0
C207 C 0.85108 0.09402 0.68913 0.0
O208 O 0.82625 0.11101 0.6103 0.0
O209 O 0.83543 0.09125 0.67366 0.0
C210 C 0.65046 0.1287 0.43591 0.0
O211 O 0.64103 0.13866 0.45514 0.0
Cd212 Cd 0.60406 0.13122 0.46418 0.0
O213 O 0.6396 0.11681 0.41876 0.0
Cd214 Cd 0.60045 0.10709 0.41111 0.0
C215 C 0.57641 0.16532 0.41951 0.0
O216 O 0.59695 0.08695 0.45348 0.0
O217 O 0.56755 0.09155 0.4317 0.0
O218 O 0.61408 0.06906 0.38889 0.0
C219 C 0.5772 0.08148 0.45067 0.0
O220 O 0.5814 0.1624 0.44304 0.0
C221 C 0.60148 0.07019 0.36973 0.0
O222 O 0.58273 0.14914 0.40266 0.0
O223 O 0.58878 0.08934 0.36892 0.0
C224 C 0.59537 0.77924 0.11769 0.0
O225 O 0.60789 0.76058 0.12274 0.0
Cd226 Cd 0.6381 0.76085 0.15047 0.0
O227 O 0.59869 0.80152 0.12744 0.0
Cd228 Cd 0.62682 0.82063 0.15684 0.0
C229 C 0.66978 0.80461 0.11912 0.0
O230 O 0.62564 0.78452 0.18691 0.0
O231 O 0.65071 0.81256 0.19317 0.0
O232 O 0.60138 0.84936 0.17917 0.0
C233 C 0.64036 0.7932 0.20135 0.0
O234 O 0.66644 0.78145 0.12595 0.0
C235 C 0.61358 0.869 0.17814 0.0
O236 O 0.65742 0.82272 0.1266 0.0
O237 O 0.63064 0.86683 0.16479 0.0
C238 C 0.86243 0.13475 0.52936 0.0
O239 O 0.87691 0.12853 0.51323 0.0
Cd240 Cd 0.90244 0.09467 0.51606 0.0
O241 O 0.86084 0.12295 0.5509 0.0
Cd242 Cd 0.8828 0.08793 0.57163 0.0
C243 C 0.93191 0.11687 0.56621 0.0
O244 O 0.88316 0.05919 0.53424 0.0
O245 O 0.9043 0.04938 0.56557 0.0
O246 O 0.8545 0.06596 0.59686 0.0
C247 C 0.8955 0.04281 0.54461 0.0
O248 O 0.93157 0.11088 0.54249 0.0
C249 C 0.86515 0.06698 0.61777 0.0
O250 O 0.91572 0.11239 0.58061 0.0
O251 O 0.88228 0.08038 0.61756 0.0
C252 C 0.61118 0.24406 0.36816 0.0
O253 O 0.62645 0.25938 0.36265 0.0
Cd254 Cd 0.65838 0.24865 0.33996 0.0
O255 O 0.61229 0.22015 0.36274 0.0
Cd256 Cd 0.6406 0.19203 0.34369 0.0
C257 C 0.68112 0.20913 0.38425 0.0
O258 O 0.64745 0.21967 0.30647 0.0
O259 O 0.66844 0.18688 0.31148 0.0
O260 O 0.61326 0.1647 0.32416 0.0
C261 C 0.66179 0.20498 0.29724 0.0
O262 O 0.68181 0.23042 0.37225 0.0
C263 C 0.62225 0.14362 0.3303 0.0
O264 O 0.66711 0.19205 0.37872 0.0
O265 O 0.63836 0.14504 0.34534 0.0
C266 C 0.63193 0.87036 0.06329 0.0
O267 O 0.61686 0.86738 0.04697 0.0
Cd268 Cd 0.58514 0.89254 0.04168 0.0
O269 O 0.62995 0.88624 0.08191 0.0
Cd270 Cd 0.59894 0.91336 0.09662 0.0
C271 C 0.55627 0.87286 0.09344 0.0
O272 O 0.5957 0.9343 0.05481 0.0
O273 O 0.57085 0.94299 0.08213 0.0
O274 O 0.62087 0.94453 0.12111 0.0
C275 C 0.5791 0.94724 0.06026 0.0
O276 O 0.55675 0.87662 0.06926 0.0
C277 C 0.60866 0.94355 0.14075 0.0
O278 O 0.57157 0.88077 0.10777 0.0
O279 O 0.59352 0.92713 0.14034 0.0
C280 C 0.88395 0.79846 0.87865 0.0
O281 O 0.87231 0.77896 0.88347 0.0
Cd282 Cd 0.83719 0.77047 0.86862 0.0
O283 O 0.8767 0.81749 0.86573 0.0
Cd284 Cd 0.84021 0.82857 0.84781 0.0
C285 C 0.81096 0.8173 0.90222 0.0
O286 O 0.83685 0.78749 0.8262 0.0
O287 O 0.80812 0.81062 0.82641 0.0
O288 O 0.85765 0.85202 0.8128 0.0
C289 C 0.81775 0.79066 0.81844 0.0
O290 O 0.81425 0.79358 0.89774 0.0
C291 C 0.84595 0.87198 0.81423 0.0
O292 O 0.81952 0.8347 0.88817 0.0
O293 O 0.83223 0.87257 0.83239 0.0
C294 C 0.32201 0.62895 0.03722 0.0
O295 O 0.33298 0.63925 0.01935 0.0
Cd296 Cd 0.37091 0.6346 0.01594 0.0
O297 O 0.3314 0.61886 0.05659 0.0
Cd298 Cd 0.36971 0.61451 0.07064 0.0
C299 C 0.39179 0.67323 0.06165 0.0
O300 O 0.37851 0.59172 0.03065 0.0
O301 O 0.40473 0.5985 0.05706 0.0
O302 O 0.35479 0.57994 0.09737 0.0
C303 C 0.39773 0.58698 0.03732 0.0
O304 O 0.39054 0.66803 0.03782 0.0
C305 C 0.36848 0.58222 0.11536 0.0
O306 O 0.38311 0.65843 0.07825 0.0
O307 O 0.38175 0.60072 0.11353 0.0
C308 C 0.11234 0.68169 0.86723 0.0
O309 O 0.13078 0.68838 0.87549 0.0
Cd310 Cd 0.16227 0.68253 0.84974 0.0
O311 O 0.11067 0.66733 0.84739 0.0
Cd312 Cd 0.13925 0.64456 0.82224 0.0
C313 C 0.17404 0.62382 0.86669 0.0
O314 O 0.15148 0.68594 0.80569 0.0
O315 O 0.17218 0.65403 0.79704 0.0
O316 O 0.11165 0.63045 0.79033 0.0
C317 C 0.16674 0.67705 0.79234 0.0
O318 O 0.18317 0.64525 0.86227 0.0
C319 C 0.12215 0.61031 0.78434 0.0
O320 O 0.15514 0.6197 0.85817 0.0
O321 O 0.13911 0.60576 0.79716 0.0
C322 C 0.14654 0.34932 0.54807 0.0
O323 O 0.13923 0.33239 0.53278 0.0
Cd324 Cd 0.10206 0.32965 0.52153 0.0
O325 O 0.13362 0.36337 0.56099 0.0
Cd326 Cd 0.09373 0.36752 0.56615 0.0
C327 C 0.07468 0.30647 0.57293 0.0
O328 O 0.08863 0.37298 0.51961 0.0
O329 O 0.05988 0.37211 0.54305 0.0
O330 O 0.09877 0.41292 0.57639 0.0
C331 C 0.06837 0.37572 0.52116 0.0
O332 O 0.08091 0.30306 0.5499 0.0
C333 C 0.08975 0.41233 0.59827 0.0
O334 O 0.07897 0.32739 0.58469 0.0
O335 O 0.08269 0.39062 0.60573 0.0
C336 C 0.11003 0.26696 0.65748 0.0
O337 O 0.12612 0.25557 0.66738 0.0
Cd338 Cd 0.15646 0.27485 0.68647 0.0
O339 O 0.10906 0.29154 0.65655 0.0
Cd340 Cd 0.13463 0.32698 0.66998 0.0
C341 C 0.17546 0.305 0.6325 0.0
O342 O 0.1415 0.30883 0.71193 0.0
O343 O 0.16378 0.33831 0.70029 0.0
O344 O 0.10572 0.35589 0.68345 0.0
C345 C 0.1562 0.32446 0.71821 0.0
O346 O 0.17783 0.28735 0.64924 0.0
C347 C 0.11421 0.376 0.6739 0.0
O348 O 0.16047 0.32163 0.63459 0.0
O349 O 0.1307 0.37271 0.65979 0.0
C350 C 0.37404 0.71691 0.14645 0.0
O351 O 0.35864 0.73261 0.14976 0.0
Cd352 Cd 0.32378 0.72249 0.16433 0.0
O353 O 0.37143 0.6927 0.14965 0.0
Cd354 Cd 0.33887 0.66553 0.16066 0.0
C355 C 0.30674 0.68774 0.11251 0.0
O356 O 0.32998 0.69165 0.19782 0.0
O357 O 0.30566 0.66449 0.18617 0.0
O358 O 0.3628 0.6348 0.18236 0.0
C359 C 0.31296 0.67943 0.20331 0.0
O360 O 0.30521 0.70811 0.12591 0.0
C361 C 0.35133 0.61522 0.17717 0.0
O362 O 0.31873 0.66914 0.1197 0.0
O363 O 0.33576 0.61861 0.16168 0.0
C364 C 0.61649 0.55908 0.53823 0.0
O365 O 0.60766 0.53781 0.53243 0.0
Cd366 Cd 0.57583 0.52263 0.55388 0.0
O367 O 0.60869 0.57293 0.55618 0.0
Cd368 Cd 0.57768 0.57008 0.5861 0.0
C369 C 0.59293 0.51591 0.61565 0.0
O370 O 0.5497 0.55671 0.55576 0.0
O371 O 0.54217 0.55287 0.59619 0.0
O372 O 0.57215 0.61585 0.57907 0.0
C373 C 0.53552 0.55392 0.57316 0.0
O374 O 0.58502 0.50493 0.5959 0.0
C375 C 0.5682 0.62119 0.60241 0.0
O376 O 0.59464 0.54033 0.61655 0.0
O377 O 0.57079 0.60317 0.61862 0.0
C378 C 0.87998 0.42124 0.04637 0.0
O379 O 0.88455 0.44503 0.04492 0.0
Cd380 Cd 0.90907 0.46895 0.07037 0.0
O381 O 0.88851 0.40705 0.0637 0.0
Cd382 Cd 0.91571 0.41452 0.09884 0.0
C383 C 0.88935 0.46171 0.1314 0.0
O384 O 0.93936 0.44104 0.07257 0.0
O385 O 0.94944 0.43586 0.11197 0.0
O386 O 0.93238 0.37311 0.09089 0.0
C387 C 0.95339 0.44482 0.08982 0.0
O388 O 0.89291 0.4762 0.11214 0.0
C389 C 0.93248 0.36586 0.11422 0.0
O390 O 0.89518 0.43821 0.13144 0.0
O391 O 0.92268 0.38015 0.13022 0.0
C392 C 0.60208 0.71833 0.62679 0.0
O393 O 0.60589 0.72268 0.65037 0.0
Cd394 Cd 0.62637 0.69574 0.67769 0.0
O395 O 0.61004 0.6986 0.6157 0.0
Cd396 Cd 0.63575 0.66446 0.63033 0.0
C397 C 0.60157 0.63709 0.67156 0.0
O398 O 0.66026 0.68953 0.6568 0.0
O399 O 0.66026 0.64861 0.66385 0.0
O400 O 0.65821 0.66865 0.59211 0.0
C401 C 0.66966 0.67012 0.66635 0.0
O402 O 0.60644 0.65593 0.68612 0.0
C403 C 0.65999 0.6446 0.58847 0.0
O404 O 0.60869 0.63607 0.64862 0.0
O405 O 0.64837 0.63004 0.60238 0.0
C406 C 0.34647 0.35646 0.46743 0.0
O407 O 0.35898 0.36488 0.48486 0.0
Cd408 Cd 0.38287 0.40011 0.48548 0.0
O409 O 0.34608 0.36696 0.44507 0.0
Cd410 Cd 0.36878 0.40351 0.42573 0.0
C411 C 0.4176 0.37644 0.44122 0.0
O412 O 0.36316 0.43205 0.46242 0.0
O413 O 0.38671 0.44452 0.43492 0.0
O414 O 0.34444 0.42294 0.39307 0.0
C415 C 0.37539 0.44978 0.45446 0.0
O416 O 0.41461 0.38302 0.4645 0.0
C417 C 0.3586 0.42243 0.37537 0.0
O418 O 0.40329 0.38052 0.42413 0.0
O419 O 0.37598 0.41054 0.38036 0.0
C420 C 0.14139 0.65112 0.93703 0.0
O421 O 0.12891 0.64788 0.95615 0.0
Cd422 Cd 0.10148 0.61734 0.96377 0.0
O423 O 0.139 0.63792 0.91637 0.0
Cd424 Cd 0.10981 0.60533 0.90337 0.0
C425 C 0.06567 0.64107 0.92078 0.0
O426 O 0.11533 0.58079 0.94234 0.0
O427 O 0.08839 0.56846 0.91978 0.0
O428 O 0.12846 0.578 0.87168 0.0
C429 C 0.10054 0.56449 0.93895 0.0
O430 O 0.06971 0.63544 0.9441 0.0
C431 C 0.11426 0.58066 0.85427 0.0
O432 O 0.07843 0.63423 0.90284 0.0
O433 O 0.09924 0.59662 0.85879 0.0
C434 C 0.38759 0.32024 0.38897 0.0
O435 O 0.37166 0.30788 0.3981 0.0
Cd436 Cd 0.33855 0.30722 0.37435 0.0
O437 O 0.38472 0.33611 0.37054 0.0
Cd438 Cd 0.35188 0.3515 0.34775 0.0
C439 C 0.3132 0.36056 0.39124 0.0
O440 O 0.348 0.30791 0.32968 0.0
O441 O 0.32302 0.33498 0.32009 0.0
O442 O 0.37843 0.37378 0.31953 0.0
C443 C 0.33235 0.31386 0.3153 0.0
O444 O 0.31053 0.33653 0.38818 0.0
C445 C 0.36438 0.3891 0.3105 0.0
O446 O 0.33 0.37141 0.38236 0.0
O447 O 0.34565 0.38787 0.32014 0.0
C448 C 0.02251 0.08976 0.0087 0.0
C449 C 0.02833 0.09483 0.03428 0.0
C450 C 0.00129 0.08326 0.00259 0.0
C451 C 0.95453 0.07208 0.99243 0.0
H452 H 0.93936 0.0142 0.03598 0.0
C453 C 0.9059 0.9686 0.99092 0.0
C454 C 0.91521 0.95956 0.96797 0.0
C455 C 0.9111 0.99304 0.00025 0.0
C456 C 0.94278 0.03074 0.02393 0.0
H457 H 0.01623 0.0994 0.07322 0.0
H458 H 0.97908 0.08787 0.06251 0.0
H459 H 0.96522 0.04562 0.05122 0.0
H460 H 0.93604 0.96949 0.93592 0.0
H461 H 0.9454 0.01181 0.95233 0.0
H462 H 0.93334 0.05574 0.96427 0.0
C463 C -0.00901 0.08863 0.04726 0.0
C464 C 0.95765 0.04885 0.0327 0.0
C465 C 0.01226 0.09511 0.05338 0.0
C466 C 0.92883 0.97584 0.95381 0.0
C467 C 0.93391 0.00027 0.96304 0.0
C468 C 0.93967 0.05391 0.98363 0.0
C469 C 0.98546 0.08176 0.02195 0.0
C470 C 0.96475 0.06869 0.01635 0.0
C471 C 0.92555 0.00887 0.98666 0.0
C472 C 0.9348 0.03218 -0.00133 0.0
H473 H 0.03451 0.08969 0.99354 0.0
H474 H -0.00231 0.07773 0.98296 0.0
H475 H 0.95933 0.08758 0.97969 0.0
H476 H 0.89514 0.95652 0.00208 0.0
H477 H 0.90441 -0.00077 0.01848 0.0
C478 C 0.27907 0.6782 0.22888 0.0
C479 C 0.30093 0.68486 0.22702 0.0
C480 C 0.26699 0.68606 0.25004 0.0
C481 C 0.26697 0.73921 0.29602 0.0
H482 H 0.21129 0.70866 0.31084 0.0
C483 C 0.17446 0.76736 0.32988 0.0
C484 C 0.1736 0.79107 0.31697 0.0
C485 C 0.19333 0.75275 0.3296 0.0
C486 C 0.22692 0.71743 0.3077 0.0
H487 H 0.32795 0.70259 0.24678 0.0
H488 H 0.30697 0.71571 0.28426 0.0
H489 H 0.23965 0.68227 0.29288 0.0
H490 H 0.1917 0.81866 0.29439 0.0
H491 H 0.22412 0.79249 0.29217 0.0
H492 H 0.25434 0.7743 0.31112 0.0
C493 C 0.29894 0.70522 0.269 0.0
C494 C 0.24314 0.70229 0.29698 0.0
C495 C 0.31095 0.69773 0.24756 0.0
C496 C 0.19199 0.80032 0.30434 0.0
C497 C 0.21069 0.78543 0.30347 0.0
C498 C 0.25095 0.75419 0.30739 0.0
C499 C 0.27662 0.70039 0.27 0.0
C500 C 0.26272 0.7135 0.28919 0.0
C501 C 0.21151 0.76127 0.31582 0.0
C502 C 0.23023 0.74396 0.31153 0.0
H503 H 0.271 0.66812 0.21336 0.0
H504 H 0.2498 0.68229 0.24979 0.0
H505 H 0.28192 0.74856 0.29059 0.0
H506 H 0.16057 0.76015 0.34033 0.0
H507 H 0.19348 0.73456 0.33979 0.0
C508 C 0.46 0.92362 0.5489 0.0
C509 C 0.44837 0.91535 0.52718 0.0
C510 C 0.47922 0.93723 0.54602 0.0
C511 C 0.52161 0.95694 0.50048 0.0
H512 H 0.51534 0.02409 0.5324 0.0
C513 C 0.5438 0.06292 0.46952 0.0
C514 C 0.56635 0.06268 0.46732 0.0
C515 C 0.53326 0.0435 0.48308 0.0
C516 C 0.51752 0.00525 0.52383 0.0
H517 H 0.44855 0.9129 0.48553 0.0
H518 H 0.48224 0.93694 0.48045 0.0
H519 H 0.4905 0.98945 0.54389 0.0
H520 H 0.59572 0.04256 0.47792 0.0
H521 H 0.57701 0.00786 0.50098 0.0
H522 H 0.54806 0.97334 0.47952 0.0
C523 C 0.47644 0.93282 0.49969 0.0
C524 C 0.50342 0.98544 0.53043 0.0
C525 C 0.45709 0.91928 0.50257 0.0
C526 C 0.57829 0.04317 0.47951 0.0
C527 C 0.56767 0.02337 0.49259 0.0
C528 C 0.53595 0.97671 0.49418 0.0
C529 C 0.48723 0.94263 0.52138 0.0
C530 C 0.50485 0.96143 0.5181 0.0
C531 C 0.54508 0.02331 0.49417 0.0
C532 C 0.53343 0.00123 0.50511 0.0
H533 H 0.45385 0.92049 0.56818 0.0
H534 H 0.48738 0.94443 0.563 0.0
H535 H 0.52302 0.93854 0.49084 0.0
H536 H 0.53429 0.07781 0.46031 0.0
H537 H 0.51577 0.04362 0.48389 0.0
C538 C 0.26388 0.19386 0.80956 0.0
C539 C 0.28397 0.19945 0.82055 0.0
C540 C 0.24681 0.21114 0.81216 0.0
C541 C 0.23861 0.28044 0.82182 0.0
H542 H 0.18 0.25882 0.80763 0.0
C543 C 0.1892 0.32724 0.74534 0.0
C544 C 0.16712 0.3219 0.74316 0.0
C545 C 0.20057 0.31923 0.76706 0.0
C546 C 0.19603 0.26564 0.81234 0.0
H547 H 0.30164 0.22614 0.84477 0.0
H548 H 0.27163 0.25594 0.85009 0.0
H549 H 0.20533 0.22824 0.82524 0.0
H550 H 0.13888 0.30749 0.76313 0.0
H551 H 0.15852 0.29454 0.80168 0.0
H552 H 0.22929 0.31788 0.80901 0.0
C553 C 0.26918 0.23877 0.83865 0.0
C554 C 0.21073 0.24782 0.82204 0.0
C555 C 0.28637 0.22172 0.83559 0.0
C556 C 0.15607 0.31123 0.7642 0.0
C557 C 0.16734 0.30375 0.78622 0.0
C558 C 0.22376 0.29845 0.81276 0.0
C559 C 0.24938 0.23413 0.82627 0.0
C560 C 0.23258 0.25448 0.82484 0.0
C561 C 0.18995 0.30613 0.7872 0.0
C562 C 0.2028 0.29071 0.80583 0.0
H563 H 0.26161 0.17671 0.79801 0.0
H564 H 0.232 0.20703 0.80189 0.0
H565 H 0.25522 0.28652 0.82409 0.0
H566 H 0.19804 0.33563 0.72941 0.0
H567 H 0.21795 0.32134 0.76682 0.0
C568 C 0.01983 0.91616 0.43139 0.0
C569 C 0.03461 0.91128 0.45134 0.0
C570 C -0.00162 0.92209 0.43699 0.0
C571 C 0.96229 0.95586 0.45703 0.0
H572 H 0.93179 0.92814 0.51606 0.0
C573 C 0.91497 0.00104 0.54401 0.0
C574 C 0.9021 0.01917 0.53119 0.0
C575 C 0.92391 0.98047 0.5306 0.0
C576 C 0.93995 0.93588 0.49931 0.0
H577 H 0.03839 0.90761 0.49267 0.0
H578 H 0.00105 0.91853 0.50251 0.0
H579 H 0.96279 0.90496 0.49854 0.0
H580 H 0.88685 0.02887 0.49487 0.0
H581 H 0.90271 0.99284 0.47125 0.0
H582 H 0.9406 0.98765 0.45882 0.0
C583 C 0.00594 0.91741 0.48252 0.0
C584 C 0.95769 0.92267 0.48935 0.0
C585 C 0.02739 0.9115 0.47693 0.0
C586 C 0.89695 0.01531 0.50514 0.0
C587 C 0.906 0.99471 0.49165 0.0
C588 C 0.94462 0.96909 0.46702 0.0
C589 C -0.00868 0.92318 0.46263 0.0
C590 C 0.96966 0.93325 0.46897 0.0
C591 C 0.9202 0.97764 0.50407 0.0
C592 C 0.93403 0.95992 0.48911 0.0
H593 H 0.02488 0.91575 0.41143 0.0
H594 H 0.98742 0.92631 0.42129 0.0
H595 H 0.97124 0.96456 0.44136 0.0
H596 H 0.91897 0.00337 0.56418 0.0
H597 H 0.93498 0.96788 0.54072 0.0
C598 C 0.29 0.83029 0.69177 0.0
C599 C 0.30966 0.81706 0.68918 0.0
C600 C 0.27134 0.8171 0.6992 0.0
C601 C 0.24772 0.75246 0.70011 0.0
H602 H 0.21501 0.77603 0.75916 0.0
C603 C 0.19818 0.68463 0.76333 0.0
C604 C 0.17925 0.69374 0.77498 0.0
C605 C 0.21086 0.7011 0.74847 0.0
C606 C 0.22363 0.76946 0.74226 0.0
H607 H 0.32533 0.77984 0.69255 0.0
H608 H 0.29283 0.75693 0.70546 0.0
H609 H 0.24356 0.80316 0.74152 0.0
H610 H 0.15805 0.72673 0.77919 0.0
H611 H 0.18015 0.75544 0.75299 0.0
H612 H 0.22821 0.7185 0.70116 0.0
C613 C 0.29179 0.77739 0.70153 0.0
C614 C 0.23999 0.78497 0.73224 0.0
C615 C 0.31042 0.79056 0.69441 0.0
C616 C 0.17273 0.71928 0.77065 0.0
C617 C 0.18537 0.73573 0.75572 0.0
C618 C 0.23129 0.73703 0.71 0.0
C619 C 0.27208 0.79048 0.70378 0.0
C620 C 0.25262 0.77618 0.71165 0.0
C621 C 0.20478 0.72694 0.74489 0.0
C622 C 0.21958 0.74499 0.73172 0.0
H623 H 0.28898 0.85073 0.68781 0.0
H624 H 0.25629 0.82757 0.70092 0.0
H625 H 0.25705 0.74551 0.6839 0.0
H626 H 0.20354 0.66501 0.76629 0.0
H627 H 0.22589 0.69384 0.74068 0.0
C628 C 0.46042 0.05875 0.91233 0.0
C629 C 0.44244 0.06057 0.92873 0.0
C630 C 0.47728 0.04189 0.9182 0.0
C631 C 0.49133 0.9863 0.9592 0.0
H632 H 0.54635 0.02073 0.96908 0.0
C633 C 0.54492 0.96637 0.04423 0.0
C634 C 0.56664 0.96012 0.03992 0.0
C635 C 0.53217 0.97533 0.02413 0.0
C636 C 0.53127 0.01066 0.96581 0.0
H637 H 0.42741 0.04556 0.96333 0.0
H638 H 0.45668 0.01625 0.97354 0.0
H639 H 0.51824 0.04144 0.94326 0.0
H640 H 0.59242 0.95953 0.01162 0.0
H641 H 0.56997 0.97618 0.97639 0.0
H642 H 0.50374 0.95653 0.98347 0.0
C643 C 0.45779 0.02763 0.95611 0.0
C644 C 0.51524 0.02241 0.95102 0.0
C645 C 0.44114 0.04463 0.95044 0.0
C646 C 0.57566 0.96415 0.01539 0.0
C647 C 0.56291 0.97353 0.99528 0.0
C648 C 0.50726 0.97468 0.97406 0.0
C649 C 0.47615 0.02638 0.94029 0.0
C650 C 0.49476 0.01092 0.94883 0.0
C651 C 0.54096 0.97853 -0.00055 0.0
C652 C 0.52687 0.98743 0.97853 0.0
H653 H 0.46175 0.07089 0.89543 0.0
H654 H 0.49133 0.04129 0.9058 0.0
H655 H 0.47578 0.97691 0.95739 0.0
H656 H 0.53752 0.96353 0.06292 0.0
H657 H 0.51533 0.97963 0.02781 0.0
C658 C 0.33419 0.27238 0.29106 0.0
C659 C 0.32535 0.29711 0.29407 0.0
C660 C 0.32714 0.25639 0.27115 0.0
C661 C 0.29644 0.25625 0.21 0.0
H662 H 0.27352 0.19126 0.23462 0.0
C663 C 0.21689 0.21518 0.17694 0.0
C664 C 0.2134 0.18851 0.17633 0.0
C665 C 0.23689 0.22501 0.18418 0.0
C666 C 0.28035 0.20893 0.22708 0.0
H667 H 0.30291 0.32493 0.27817 0.0
H668 H 0.29047 0.29701 0.24366 0.0
H669 H 0.29815 0.21569 0.26166 0.0
H670 H 0.2284 0.15109 0.18125 0.0
H671 H 0.26347 0.16841 0.19438 0.0
H672 H 0.27749 0.25022 0.17609 0.0
C673 C 0.30298 0.29003 0.25645 0.0
C674 C 0.29445 0.22296 0.24261 0.0
C675 C 0.30988 0.30589 0.27642 0.0
C676 C 0.23062 0.17177 0.18181 0.0
C677 C 0.25066 0.18163 0.18926 0.0
C678 C 0.28238 0.2422 0.19444 0.0
C679 C 0.31133 0.26502 0.25381 0.0
C680 C 0.30163 0.24737 0.23477 0.0
C681 C 0.25381 0.20836 0.19106 0.0
C682 C 0.27328 0.21913 0.20349 0.0
H683 H 0.34626 0.26521 0.30433 0.0
H684 H 0.3338 0.23719 0.26951 0.0
H685 H 0.30214 0.27482 0.20334 0.0
H686 H 0.20396 0.22853 0.17257 0.0
H687 H 0.23868 0.24569 0.18578 0.0
C688 C 0.43082 0.56005 0.03421 0.0
C689 C 0.41071 0.56735 0.02413 0.0
C690 C 0.44256 0.54029 0.02276 0.0
C691 C 0.45039 0.50687 0.96212 0.0
H692 H 0.47853 0.45578 0.00508 0.0
C693 C 0.50516 0.42959 0.91848 0.0
C694 C 0.52529 0.42708 0.93068 0.0
C695 C 0.48842 0.44285 0.93049 0.0
C696 C 0.47078 0.46994 0.99287 0.0
H697 H 0.38718 0.56007 0.99404 0.0
H698 H 0.40792 0.52556 0.97384 0.0
H699 H 0.45446 0.48738 0.02467 0.0
H700 H 0.54348 0.43542 0.96537 0.0
H701 H 0.5144 0.45904 0.98615 0.0
H702 H 0.46726 0.49014 0.93046 0.0
C703 C 0.4145 0.53514 0.99061 0.0
C704 C 0.45705 0.48797 0.00406 0.0
C705 C 0.40268 0.55484 0.00216 0.0
C706 C 0.52814 0.43713 0.95551 0.0
C707 C 0.51143 0.45048 0.96748 0.0
C708 C 0.4642 0.48892 0.95095 0.0
C709 C 0.43444 0.52758 0.00098 0.0
C710 C 0.44713 0.50692 0.98884 0.0
C711 C 0.49155 0.45388 0.95487 0.0
C712 C 0.47488 0.47064 0.9663 0.0
H713 H 0.4374 0.56936 0.05114 0.0
H714 H 0.45809 0.5351 0.03083 0.0
H715 H 0.44305 0.52143 0.95002 0.0
H716 H 0.50246 0.42175 0.89943 0.0
H717 H 0.47316 0.44488 0.92052 0.0
C718 C 0.78826 0.25743 0.13251 0.0
C719 C 0.78907 0.28439 0.13428 0.0
C720 C 0.77025 0.24403 0.14148 0.0
C721 C 0.71414 0.25143 0.16542 0.0
H722 H 0.73233 0.20108 0.21604 0.0
C723 C 0.6688 0.23297 0.25917 0.0
C724 C 0.67079 0.20903 0.27142 0.0
C725 C 0.67907 0.23738 0.23569 0.0
C726 C 0.72672 0.21448 0.20154 0.0
H727 H 0.77122 0.31862 0.14514 0.0
H728 H 0.74 0.29519 0.16135 0.0
H729 H 0.75828 0.21767 0.18552 0.0
H730 H 0.68329 0.17021 0.26791 0.0
H731 H 0.70076 0.17768 0.22657 0.0
H732 H 0.6827 0.24898 0.18236 0.0
C733 C 0.75312 0.2844 0.15278 0.0
C734 C 0.74168 0.22403 0.184 0.0
C735 C 0.77111 0.2978 0.14382 0.0
C736 C 0.68194 0.18904 0.25907 0.0
C737 C 0.6919 0.19331 0.23541 0.0
C738 C 0.69908 0.24172 0.18291 0.0
C739 C 0.75277 0.25737 0.15234 0.0
C740 C 0.73576 0.24335 0.16649 0.0
C741 C 0.69123 0.21779 0.22391 0.0
C742 C 0.70547 0.22393 0.20185 0.0
H743 H 0.80176 0.24663 0.12487 0.0
H744 H 0.77029 0.22318 0.14072 0.0
H745 H 0.70912 0.26608 0.15183 0.0
H746 H 0.66016 0.24864 0.26827 0.0
H747 H 0.67844 0.25657 0.22756 0.0
C748 C 0.03277 0.38414 0.50076 0.0
C749 C 0.05536 0.38409 0.499 0.0
C750 C 0.02036 0.39487 0.48118 0.0
C751 C 0.02396 0.44683 0.43554 0.0
H752 H 0.96509 0.42552 0.42154 0.0
C753 C 0.95816 0.51667 0.39813 0.0
C754 C 0.94062 0.51728 0.41528 0.0
C755 C 0.97343 0.49692 0.39966 0.0
C756 C 0.9816 0.43154 0.42491 0.0
H757 H 0.08271 0.39366 0.47471 0.0
H758 H 0.06088 0.41281 0.44043 0.0
H759 H -0.00922 0.39444 0.43899 0.0
H760 H 0.92496 0.4976 0.44706 0.0
H761 H 0.95147 0.46318 0.44963 0.0
H762 H 0.01436 0.48433 0.42287 0.0
C763 C 0.05285 0.40457 0.45703 0.0
C764 C -0.00373 0.41383 0.43489 0.0
C765 C 0.0653 0.39362 0.47661 0.0
C766 C 0.93839 0.49769 0.43369 0.0
C767 C 0.95339 0.47782 0.43494 0.0
C768 C 0.0093 0.46452 0.42539 0.0
C769 C 0.03029 0.40587 0.45946 0.0
C770 C 0.01719 0.42172 0.44172 0.0
C771 C 0.97106 0.47729 0.41802 0.0
C772 C 0.98772 0.45733 0.42141 0.0
H773 H 0.02467 0.37675 0.51771 0.0
H774 H 0.00304 0.39592 0.48385 0.0
H775 H 0.03995 0.45351 0.4407 0.0
H776 H 0.9602 0.53157 0.38373 0.0
H777 H 0.98704 0.49696 0.38658 0.0
C778 C 0.76171 0.72239 0.34668 0.0
C779 C 0.76822 0.69655 0.34741 0.0
C780 C 0.74085 0.7288 0.33899 0.0
C781 C 0.69876 0.70434 0.29706 0.0
H782 H 0.67045 0.76726 0.31873 0.0
C783 C 0.63903 0.75514 0.23075 0.0
C784 C 0.64649 0.78013 0.22536 0.0
C785 C 0.64662 0.74193 0.25235 0.0
C786 C 0.67795 0.74941 0.31273 0.0
H787 H 0.75771 0.65702 0.34222 0.0
H788 H 0.72116 0.66827 0.32881 0.0
H789 H 0.6983 0.74814 0.34597 0.0
H790 H 0.66634 0.81164 0.23912 0.0
H791 H 0.67964 0.78863 0.27665 0.0
H792 H 0.67936 0.7064 0.26316 0.0
C793 C 0.73228 0.68357 0.33384 0.0
C794 C 0.69392 0.73854 0.32822 0.0
C795 C 0.75321 0.67715 0.34143 0.0
C796 C 0.66053 0.79228 0.24269 0.0
C797 C 0.66791 0.77922 0.26437 0.0
C798 C 0.68271 0.71512 0.28167 0.0
C799 C 0.72603 0.70949 0.33202 0.0
C800 C 0.70533 0.71675 0.31978 0.0
C801 C 0.66151 0.75368 0.26901 0.0
C802 C 0.67307 0.73853 0.28869 0.0
H803 H 0.77291 0.73773 0.35135 0.0
H804 H 0.73671 0.74899 0.33734 0.0
H805 H 0.70728 0.6876 0.28993 0.0
H806 H 0.62805 0.74541 0.21776 0.0
H807 H 0.64145 0.72226 0.25556 0.0
C808 C 0.77527 0.17558 0.69177 0.0
C809 C 0.7946 0.18438 0.68083 0.0
C810 C 0.75967 0.19305 0.69998 0.0
C811 C 0.75419 0.25988 0.72145 0.0
H812 H 0.69336 0.24199 0.7209 0.0
C813 C 0.69231 0.31702 0.78007 0.0
C814 C 0.68241 0.30086 0.79827 0.0
C815 C 0.70294 0.30646 0.75887 0.0
C816 C 0.71026 0.24738 0.72084 0.0
H817 H 0.81265 0.21826 0.66919 0.0
H818 H 0.78522 0.24884 0.68317 0.0
H819 H 0.71887 0.21638 0.69584 0.0
H820 H 0.67441 0.26135 0.80783 0.0
H821 H 0.69276 0.24294 0.77068 0.0
H822 H 0.74562 0.29039 0.74706 0.0
C823 C 0.78226 0.22846 0.68583 0.0
C824 C 0.72488 0.23267 0.70672 0.0
C825 C 0.79797 0.21096 0.67786 0.0
C826 C 0.68209 0.27419 0.79416 0.0
C827 C 0.69239 0.26369 0.77279 0.0
C828 C 0.73954 0.27475 0.73531 0.0
C829 C 0.76301 0.21969 0.69716 0.0
C830 C 0.74711 0.23809 0.70781 0.0
C831 C 0.7034 0.27968 0.75539 0.0
C832 C 0.71762 0.26796 0.73595 0.0
H833 H 0.77229 0.15517 0.69432 0.0
H834 H 0.74526 0.18564 0.70917 0.0
H835 H 0.7712 0.26449 0.72288 0.0
H836 H 0.69269 0.33769 0.7828 0.0
H837 H 0.71136 0.31911 0.74565 0.0
C838 C 0.78378 0.77007 0.80317 0.0
C839 C 0.80639 0.77021 0.80436 0.0
C840 C 0.77302 0.75049 0.7901 0.0
C841 C 0.7546 0.69972 0.7714 0.0
H842 H 0.76815 0.69625 0.6986 0.0
C843 C 0.69638 0.65393 0.69858 0.0
C844 C 0.68988 0.67282 0.68083 0.0
C845 C 0.71495 0.65763 0.71339 0.0
C846 C 0.7645 0.69654 0.71899 0.0
H847 H 0.83557 0.75008 0.79303 0.0
H848 H 0.81661 0.71614 0.76935 0.0
H849 H 0.79274 0.71858 0.72787 0.0
H850 H 0.69819 0.70944 0.66337 0.0
H851 H 0.73062 0.71577 0.68902 0.0
H852 H 0.72565 0.67921 0.76227 0.0
C853 C 0.80732 0.73099 0.77891 0.0
C854 C 0.77855 0.70921 0.73571 0.0
C855 C 0.81809 0.75039 0.79235 0.0
C856 C 0.70274 0.69474 0.67715 0.0
C857 C 0.72144 0.69818 0.69156 0.0
C858 C 0.74067 0.68682 0.75474 0.0
C859 C 0.7847 0.73091 0.77772 0.0
C860 C 0.7731 0.71202 0.76177 0.0
C861 C 0.72746 0.67995 0.71017 0.0
C862 C 0.74498 0.68635 0.72823 0.0
H863 H 0.77438 0.78505 0.81235 0.0
H864 H 0.75556 0.75107 0.78901 0.0
H865 H 0.75023 0.70149 0.79152 0.0
H866 H 0.68673 0.6368 0.70164 0.0
H867 H 0.71928 0.64341 0.72776 0.0
C868 C 0.39412 0.49162 0.46106 0.0
C869 C 0.38004 0.47261 0.47031 0.0
C870 C 0.40185 0.51066 0.47752 0.0
C871 C 0.41728 0.51302 0.54388 0.0
H872 H 0.44255 0.57748 0.52126 0.0
C873 C 0.49696 0.54878 0.58651 0.0
C874 C 0.51233 0.55291 0.56702 0.0
C875 C 0.475 0.54757 0.58051 0.0
C876 C 0.43539 0.55971 0.52809 0.0
H877 H 0.361 0.46019 0.50312 0.0
H878 H 0.37473 0.49346 0.53204 0.0
H879 H 0.41077 0.56051 0.49918 0.0
H880 H 0.51678 0.56011 0.52624 0.0
H881 H 0.47862 0.55751 0.5157 0.0
H882 H 0.44278 0.51113 0.57142 0.0
C883 C 0.37995 0.49346 0.51214 0.0
C884 C 0.4172 0.55004 0.51551 0.0
C885 C 0.37215 0.47441 0.4956 0.0
C886 C 0.50532 0.55668 0.54162 0.0
C887 C 0.48342 0.5556 0.53566 0.0
C888 C 0.43541 0.52271 0.55648 0.0
C889 C 0.39567 0.511 0.50357 0.0
C890 C 0.40893 0.52573 0.52216 0.0
C891 C 0.46805 0.55066 0.55496 0.0
C892 C 0.44545 0.54525 0.54754 0.0
H893 H 0.4002 0.49092 0.44152 0.0
H894 H 0.41408 0.52371 0.47029 0.0
H895 H 0.41136 0.49421 0.54949 0.0
H896 H 0.50191 0.54609 0.60632 0.0
H897 H 0.46349 0.54373 0.59574 0.0
C898 C 0.07904 0.52723 0.95504 0.0
C899 C 0.09421 0.54674 0.95968 0.0
C900 C 0.07072 0.51288 0.97547 0.0
C901 C 0.06063 0.48062 0.02354 0.0
H902 H 0.02927 0.52778 0.06775 0.0
C903 C -0.00686 0.45012 0.0953 0.0
C904 C 0.97368 0.45802 0.08385 0.0
C905 C 0.01274 0.4605 0.08688 0.0
C906 C 0.03842 0.51439 0.05607 0.0
H907 H 0.11363 0.56556 0.98898 0.0
H908 H 0.09844 0.54097 0.02478 0.0
H909 H 0.05718 0.54438 0.03885 0.0
H910 H 0.95903 0.48374 0.05602 0.0
H911 H -0.00673 0.50256 0.04209 0.0
H912 H 0.0409 0.45085 0.03984 0.0
C913 C 0.09325 0.53664 0.00534 0.0
C914 C 0.05434 0.52381 0.0396 0.0
C915 C 0.10188 0.55066 0.98486 0.0
C916 C 0.97391 0.47736 0.06503 0.0
C917 C -0.00663 0.4882 0.05719 0.0
C918 C 0.04498 0.47113 0.0404 0.0
C919 C 0.07722 0.51812 0.00083 0.0
C920 C 0.06485 0.50714 0.02241 0.0
C921 C 0.01291 0.4794 0.06761 0.0
C922 C 0.03318 0.48815 0.05591 0.0
H923 H 0.07299 0.52374 0.93579 0.0
H924 H 0.05817 0.49885 0.9716 0.0
H925 H 0.06854 0.46749 0.01038 0.0
H926 H -0.00675 0.43512 0.1097 0.0
H927 H 0.02776 0.45339 0.09492 0.0
C928 C 0.09997 0.05548 0.1381 0.0
C929 C 0.10726 0.04563 0.1145 0.0
C930 C 0.10106 0.04039 0.16037 0.0
C931 C 0.12865 0.98519 0.18972 0.0
H932 H 0.07471 0.97322 0.22579 0.0
C933 C 0.12194 0.91469 0.27544 0.0
C934 C 0.10591 0.89597 0.27183 0.0
C935 C 0.12253 0.93658 0.25979 0.0
C936 C 0.08991 0.97656 0.21601 0.0
H937 H 0.12228 0.01305 0.09569 0.0
H938 H 0.12523 0.98721 0.13488 0.0
H939 H 0.07618 0.00505 0.19107 0.0
H940 H 0.07765 0.88536 0.24976 0.0
H941 H 0.07808 0.92419 0.22301 0.0
H942 H 0.14226 0.95629 0.21423 0.0
C943 C 0.11836 0.00634 0.13611 0.0
C944 C 0.09078 0.99483 0.19628 0.0
C945 C 0.11662 0.02106 0.11373 0.0
C946 C 0.09002 0.89977 0.25301 0.0
C947 C 0.09024 0.92198 0.23784 0.0
C948 C 0.12785 0.96719 0.20968 0.0
C949 C 0.1102 0.01565 0.15954 0.0
C950 C 0.11 -0.00124 0.18248 0.0
C951 C 0.10673 0.94037 0.24076 0.0
C952 C 0.10831 0.96216 0.22248 0.0
H953 H 0.09246 0.07428 0.13908 0.0
H954 H 0.09447 0.04789 0.17816 0.0
H955 H 0.14372 0.98812 0.17955 0.0
H956 H 0.13464 0.91167 0.28944 0.0
H957 H 0.13557 0.95026 0.26218 0.0
C958 C 0.31389 0.89996 0.46803 0.0
C959 C 0.3248 0.88159 0.48306 0.0
C960 C 0.29285 0.89552 0.45975 0.0
C961 C 0.25144 0.84538 0.44964 0.0
H962 H 0.21299 0.90409 0.45379 0.0
C963 C 0.16228 0.83564 0.42078 0.0
C964 C 0.15423 0.85555 0.40516 0.0
C965 C 0.18171 0.83877 0.43409 0.0
C966 C 0.22344 0.88747 0.45243 0.0
H967 H 0.32259 0.84349 0.49991 0.0
H968 H 0.286 0.83522 0.48433 0.0
H969 H 0.25001 0.90825 0.46834 0.0
H970 H 0.15909 0.89519 0.3934 0.0
H971 H 0.19277 0.90066 0.41641 0.0
H972 H 0.2248 0.82455 0.43383 0.0
C973 C 0.29354 0.85343 0.47972 0.0
C974 C 0.24477 0.88991 0.46064 0.0
C975 C 0.31455 0.85808 0.48851 0.0
C976 C 0.16487 0.87943 0.40517 0.0
C977 C 0.18429 0.88255 0.41844 0.0
C978 C 0.22997 0.84284 0.44169 0.0
C979 C 0.28218 0.87251 0.46606 0.0
C980 C 0.25916 0.86907 0.45885 0.0
C981 C 0.19344 0.8619 0.43218 0.0
C982 C 0.21573 0.86396 0.44274 0.0
H983 H 0.32133 0.91824 0.46329 0.0
H984 H 0.28486 0.91029 0.44854 0.0
H985 H 0.26213 0.829 0.44784 0.0
H986 H 0.15434 0.81706 0.42138 0.0
H987 H 0.18789 0.82275 0.44522 0.0
C988 C 0.3321 0.08581 0.74182 0.0
C989 C 0.34535 0.10766 0.74026 0.0
C990 C 0.33323 0.06677 0.72293 0.0
C991 C 0.37083 0.03868 0.67661 0.0
H992 H 0.31947 0.00943 0.64541 0.0
C993 C 0.34849 0.97211 0.58414 0.0
C994 C 0.36277 0.95152 0.58789 0.0
C995 C 0.34516 0.99008 0.6037 0.0
C996 C 0.33393 0.01749 0.65395 0.0
H997 H 0.3702 0.12693 0.71816 0.0
H998 H 0.37307 0.09284 0.68577 0.0
H999 H 0.31593 0.04372 0.67737 0.0
H1000 H 0.38501 0.93347 0.6145 0.0
H1001 H 0.38029 0.96586 0.64811 0.0
H1002 H 0.38885 0.01245 0.65327 0.0
C1003 C 0.36155 0.09067 0.70131 0.0
C1004 C 0.3319 0.03693 0.67233 0.0
C1005 C 0.35986 0.11017 0.71969 0.0
C1006 C 0.37358 0.94897 0.61145 0.0
C1007 C 0.37091 0.9675 0.63061 0.0
C1008 C 0.37285 0.01902 0.65849 0.0
C1009 C 0.34829 0.06875 0.70282 0.0
C1010 C 0.35035 0.04786 0.68365 0.0
C1011 C 0.35664 0.9882 0.62696 0.0
C1012 C 0.35442 0.00839 0.64684 0.0
H1013 H 0.32071 0.0836 0.75749 0.0
H1014 H 0.32271 0.05018 0.7244 0.0
H1015 H 0.3853 0.04654 0.68532 0.0
H1016 H 0.34022 0.97452 0.56591 0.0
H1017 H 0.3343 0.00605 0.60024 0.0
C1018 C 0.30149 0.08948 0.88753 0.0
C1019 C 0.31217 0.11334 0.88841 0.0
C1020 C 0.28382 0.08471 0.90365 0.0
C1021 C 0.24117 0.12249 0.93478 0.0
H1022 H 0.22449 0.05768 0.96588 0.0
C1023 C 0.16572 0.11339 -0.00116 0.0
C1024 C 0.15356 0.09065 -0.00293 0.0
C1025 C 0.18535 0.11562 0.98582 0.0
C1026 C 0.22876 0.0758 0.95692 0.0
H1027 H 0.31401 0.14996 0.90838 0.0
H1028 H 0.28295 0.14201 0.93553 0.0
H1029 H 0.25953 0.06141 0.9447 0.0
H1030 H 0.15243 0.05242 0.98019 0.0
H1031 H 0.18666 0.05629 0.95772 0.0
H1032 H 0.2105 0.13692 0.94666 0.0
C1033 C 0.28824 0.12686 0.92274 0.0
C1034 C 0.24889 0.07794 0.94492 0.0
C1035 C 0.30615 0.13135 0.9072 0.0
C1036 C 0.16144 0.07021 0.98204 0.0
C1037 C 0.18116 0.07234 0.96927 0.0
C1038 C 0.2211 0.12035 0.94669 0.0
C1039 C 0.27642 0.10393 0.92054 0.0
C1040 C 0.25535 0.10138 0.93385 0.0
C1041 C 0.19343 0.095 0.97112 0.0
C1042 C 0.21466 0.09703 0.95799 0.0
H1043 H 0.3058 0.07525 0.87319 0.0
H1044 H 0.27501 0.06683 0.90144 0.0
H1045 H 0.24538 0.14065 0.92581 0.0
H1046 H 0.1601 0.1295 0.01024 0.0
H1047 H 0.1944 0.13335 0.98774 0.0
C1048 C 0.13123 0.07666 0.21087 0.0
C1049 C 0.14325 0.09708 0.22129 0.0
C1050 C 0.12901 0.05352 0.22448 0.0
C1051 C 0.15262 0.01579 0.27826 0.0
H1052 H 0.09406 0.99171 0.28905 0.0
C1053 C 0.13107 0.93724 0.35347 0.0
C1054 C 0.11491 0.94543 0.37056 0.0
C1055 C 0.1351 0.95109 0.33082 0.0
C1056 C 0.11052 -0.00188 0.28606 0.0
H1057 H 0.16307 0.10891 0.25368 0.0
H1058 H 0.15932 0.06872 0.27713 0.0
H1059 H 0.10113 0.02483 0.25677 0.0
H1060 H 0.08965 0.97359 0.37692 0.0
H1061 H 0.09619 -0.00289 0.33717 0.0
H1062 H 0.16183 0.98994 0.30844 0.0
C1063 C 0.15162 0.07045 0.25849 0.0
C1064 C 0.1146 0.01689 0.26742 0.0
C1065 C 0.15355 0.09362 0.24515 0.0
C1066 C 0.10233 0.96698 0.36417 0.0
C1067 C 0.10593 0.98028 0.34129 0.0
C1068 C 0.14856 -0.00309 0.2968 0.0
C1069 C 0.13916 0.05021 0.24844 0.0
C1070 C 0.13557 0.02671 0.26412 0.0
C1071 C 0.12248 0.97269 0.32449 0.0
C1072 C 0.12734 0.98869 0.3016 0.0
H1073 H 0.12316 0.07881 0.19251 0.0
H1074 H 0.11921 0.03833 0.21645 0.0
H1075 H 0.16901 0.02268 0.27578 0.0
H1076 H 0.14099 0.92069 0.35799 0.0
H1077 H 0.14814 0.94504 0.31834 0.0
C1078 C 0.31979 0.87424 0.56611 0.0
C1079 C 0.32531 0.85056 0.57736 0.0
C1080 C 0.30063 0.87676 0.55216 0.0
C1081 C 0.25399 0.8414 0.52369 0.0
H1082 H 0.22327 0.90297 0.54417 0.0
C1083 C 0.16597 0.86052 0.49061 0.0
C1084 C 0.16051 0.88622 0.48535 0.0
C1085 C 0.18565 0.85458 0.50254 0.0
C1086 C 0.23168 0.88591 0.5377 0.0
H1087 H 0.31616 0.81035 0.58059 0.0
H1088 H 0.2826 0.81487 0.55664 0.0
H1089 H 0.25956 0.89581 0.5597 0.0
H1090 H 0.17131 0.92581 0.48837 0.0
H1091 H 0.20553 0.91565 0.50808 0.0
H1092 H 0.22631 0.83185 0.50104 0.0
C1093 C 0.29304 0.8315 0.55851 0.0
C1094 C 0.2526 0.8818 0.54668 0.0
C1095 C 0.31233 0.82891 0.57226 0.0
C1096 C 0.17494 0.90581 0.4924 0.0
C1097 C 0.19456 0.89993 0.50407 0.0
C1098 C 0.23318 0.84581 0.51415 0.0
C1099 C 0.28646 0.85574 0.54942 0.0
C1100 C 0.26419 0.85974 0.53945 0.0
C1101 C 0.20031 0.87424 0.50926 0.0
C1102 C 0.22183 0.86834 0.52076 0.0
H1103 H 0.32951 0.89123 0.56945 0.0
H1104 H 0.2964 0.89552 0.54457 0.0
H1105 H 0.26227 0.82392 0.51816 0.0
H1106 H 0.15504 0.84504 0.48557 0.0
H1107 H 0.18928 0.8346 0.50652 0.0
C1108 C 0.37227 0.08529 0.82292 0.0
C1109 C 0.36309 0.07325 0.84453 0.0
C1110 C 0.37048 0.07392 0.79855 0.0
C1111 C 0.34348 0.01978 0.76314 0.0
H1112 H 0.39902 0.01381 0.72931 0.0
C1113 C 0.39174 0.93611 0.70964 0.0
C1114 C 0.37575 0.92641 0.69321 0.0
C1115 C 0.38946 0.96044 0.7207 0.0
C1116 C 0.38334 0.01549 0.73838 0.0
H1117 H 0.34307 0.0415 0.85732 0.0
H1118 H 0.33998 0.02176 0.81533 0.0
H1119 H 0.39418 0.04549 0.76334 0.0
H1120 H 0.34509 0.93441 0.67489 0.0
H1121 H 0.34083 0.9769 0.69465 0.0
H1122 H 0.33306 0.98872 0.73924 0.0
C1123 C 0.34859 0.03985 0.81679 0.0
C1124 C 0.38046 0.03385 0.75772 0.0
C1125 C 0.3505 0.05106 0.84102 0.0
C1126 C 0.35778 0.94172 0.68724 0.0
C1127 C 0.35531 0.96593 0.69864 0.0
C1128 C 0.34634 0.00153 0.74373 0.0
C1129 C 0.35925 0.05054 0.7954 0.0
C1130 C 0.36076 0.03544 0.77112 0.0
C1131 C 0.37088 0.97528 0.71599 0.0
C1132 C 0.36658 -0.00158 0.73194 0.0
H1133 H 0.38199 0.10251 0.82507 0.0
H1134 H 0.37856 0.08291 0.78239 0.0
H1135 H 0.32791 0.02095 0.77254 0.0
H1136 H 0.40556 0.9244 0.71478 0.0
H1137 H 0.40157 0.96682 0.73433 0.0
C1138 C 0.31953 0.09772 0.98758 0.0
C1139 C 0.32987 0.1161 0.97196 0.0
C1140 C 0.30024 0.10338 -8e-05 0.0
C1141 C 0.26216 0.15514 0.01853 0.0
H1142 H 0.2221 0.09772 0.01756 0.0
C1143 C 0.17769 0.16486 0.06365 0.0
C1144 C 0.17138 0.14411 0.07934 0.0
C1145 C 0.19492 0.16223 0.04643 0.0
C1146 C 0.233 0.114 0.01814 0.0
H1147 H 0.32889 0.15575 0.95902 0.0
H1148 H 0.29458 0.16568 0.98054 0.0
H1149 H 0.25718 0.09317 -0.00209 0.0
H1150 H 0.17661 0.1036 0.0872 0.0
H1151 H 0.20664 0.09907 0.05779 0.0
H1152 H 0.23794 0.17579 0.03939 0.0
C1153 C 0.30158 0.14675 0.98306 0.0
C1154 C 0.25325 0.11138 0.00682 0.0
C1155 C 0.32118 0.14107 0.97064 0.0
C1156 C 0.18112 0.12002 0.0755 0.0
C1157 C 0.19846 0.11746 0.05853 0.0
C1158 C 0.24175 0.15782 0.02989 0.0
C1159 C 0.29044 0.12753 -0.0031 0.0
C1160 C 0.2683 0.13167 0.00732 0.0
C1161 C 0.20626 0.13884 0.04467 0.0
C1162 C 0.22701 0.1371 0.03018 0.0
H1163 H 0.32602 0.07849 0.98983 0.0
H1164 H 0.29276 0.08846 0.01146 0.0
H1165 H 0.27338 0.17111 0.01945 0.0
H1166 H 0.17035 0.18364 0.06594 0.0
H1167 H 0.19996 0.17887 0.03539 0.0
C1168 C 0.92394 0.29371 0.07661 0.0
C1169 C 0.91255 0.28095 0.09629 0.0
C1170 C 0.94478 0.28549 0.06971 0.0
C1171 C 0.99034 0.25474 0.10102 0.0
H1172 H 0.01298 0.23684 0.03402 0.0
C1173 C 0.06349 0.19006 0.09245 0.0
C1174 C 0.07544 0.18867 0.06959 0.0
C1175 C 0.04598 0.20669 0.09441 0.0
C1176 C 0.00723 0.24252 0.05284 0.0
H1177 H 0.9134 0.24838 0.12259 0.0
H1178 H 0.94925 0.23454 0.11081 0.0
H1179 H 0.97654 0.25472 0.03763 0.0
H1180 H 0.07997 0.2057 0.03188 0.0
H1181 H 0.05049 0.23666 0.03623 0.0
H1182 H 0.02051 0.24337 0.11654 0.0
C1183 C 0.9424 0.25105 0.101 0.0
C1184 C 0.98625 0.25258 0.05483 0.0
C1185 C 0.92182 0.25908 0.10777 0.0
C1186 C 0.07101 0.20636 0.04978 0.0
C1187 C 0.05383 0.22375 0.0521 0.0
C1188 C 0.01134 0.24564 0.09903 0.0
C1189 C 0.9544 0.26462 0.08259 0.0
C1190 C 0.97743 0.25789 0.07911 0.0
C1191 C 0.04047 0.22336 0.07403 0.0
C1192 C 0.01984 0.23822 0.0751 0.0
H1193 H 0.91717 0.31056 0.06736 0.0
H1194 H 0.95377 0.29623 0.0554 0.0
H1195 H 0.98384 0.25855 0.11993 0.0
H1196 H 0.0663 0.17659 0.10803 0.0
H1197 H 0.03606 0.20512 0.11147 0.0
C1198 C 0.54362 0.30937 0.85158 0.0
C1199 C 0.54854 0.318 0.8765 0.0
C1200 C 0.52841 0.28981 0.8479 0.0
C1201 C 0.48121 0.26148 0.88033 0.0
H1202 H 0.48405 0.212 0.82454 0.0
C1203 C 0.40656 0.21956 0.83367 0.0
C1204 C 0.40575 0.19336 0.82741 0.0
C1205 C 0.4254 0.23039 0.84326 0.0
C1206 C 0.48322 0.22542 0.84046 0.0
H1207 H 0.5419 0.31247 0.91716 0.0
H1208 H 0.51539 0.27867 0.91074 0.0
H1209 H 0.51533 0.23931 0.83382 0.0
H1210 H 0.42365 0.15762 0.82633 0.0
H1211 H 0.45751 0.17709 0.8422 0.0
H1212 H 0.44903 0.24806 0.8866 0.0
C1213 C 0.52317 0.28692 0.894 0.0
C1214 C 0.50096 0.24133 0.84551 0.0
C1215 C 0.53849 0.30621 0.89769 0.0
C1216 C 0.42404 0.17789 0.83117 0.0
C1217 C 0.44327 0.18899 0.84017 0.0
C1218 C 0.46353 0.24577 0.87516 0.0
C1219 C 0.51774 0.27867 0.86908 0.0
C1220 C 0.49995 0.25993 0.86515 0.0
C1221 C 0.44401 0.21535 0.84638 0.0
C1222 C 0.46414 0.22809 0.85477 0.0
H1223 H 0.55102 0.31824 0.83489 0.0
H1224 H 0.52437 0.2842 0.82841 0.0
H1225 H 0.47975 0.27567 0.89547 0.0
H1226 H 0.39257 0.23179 0.83094 0.0
H1227 H 0.42559 0.25083 0.84742 0.0
C1228 C 0.92066 0.65296 0.36862 0.0
C1229 C 0.91649 0.64573 0.39415 0.0
C1230 C 0.9355 0.67242 0.36314 0.0
C1231 C 0.9803 0.71026 0.39454 0.0
H1232 H 0.9808 0.74211 0.32727 0.0
C1233 C 0.05392 0.76987 0.36172 0.0
C1234 C 0.05153 0.7877 0.34172 0.0
C1235 C 0.0367 0.75396 0.36873 0.0
C1236 C 0.98094 0.73403 0.34643 0.0
H1237 H 0.92357 0.65425 0.43407 0.0
H1238 H 0.94857 0.68878 0.42483 0.0
H1239 H 0.95083 0.71574 0.33941 0.0
H1240 H 0.02951 0.8037 0.31375 0.0
H1241 H -0.00108 0.77804 0.32729 0.0
H1242 H 0.00904 0.73105 0.40276 0.0
C1243 C 0.94119 0.67904 0.40871 0.0
C1244 C 0.96374 0.71805 0.35323 0.0
C1245 C 0.92652 0.65934 0.41415 0.0
C1246 C 0.03157 0.79013 0.32941 0.0
C1247 C 0.01415 0.77483 0.3369 0.0
C1248 C -0.00303 0.72725 0.38822 0.0
C1249 C 0.94629 0.68565 0.38308 0.0
C1250 C 0.96343 0.70516 0.37706 0.0
C1251 C 0.01644 0.75612 0.35644 0.0
C1252 C -0.00206 0.73893 0.36377 0.0
H1253 H 0.91333 0.64266 0.35272 0.0
H1254 H 0.93912 0.67603 0.34311 0.0
H1255 H 0.98112 0.70083 0.41306 0.0
H1256 H 0.06943 0.7673 0.37102 0.0
H1257 H 0.03969 0.73955 0.38331 0.0
C1258 C 0.94799 0.33773 0.14893 0.0
C1259 C 0.94682 0.34481 0.12283 0.0
C1260 C 0.96474 0.3219 0.15773 0.0
C1261 C 0.02021 0.30327 0.13931 0.0
H1262 H 0.01255 0.24636 0.18677 0.0
C1263 C 0.08332 0.22354 0.14906 0.0
C1264 C 0.08875 0.21515 0.17391 0.0
C1265 C 0.06596 0.24026 0.14537 0.0
C1266 C 0.01499 0.26247 0.17385 0.0
H1267 H 0.96158 0.33968 0.08532 0.0
H1268 H 0.99039 0.31206 0.10049 0.0
H1269 H 0.98178 0.27389 0.17608 0.0
H1270 H 0.07986 0.2169 0.21425 0.0
H1271 H 0.04895 0.24539 0.20759 0.0
H1272 H 0.05322 0.29164 0.1366 0.0
C1273 C 0.9787 0.31904 0.11432 0.0
C1274 C -0.0026 0.27825 0.16778 0.0
C1275 C 0.96197 0.33462 0.10554 0.0
C1276 C 0.07599 0.22304 0.19486 0.0
C1277 C 0.05831 0.23931 0.19107 0.0
C1278 C 0.03773 0.2876 0.14542 0.0
C1279 C 0.98068 0.31311 0.14061 0.0
C1280 C -0.0003 0.29834 0.14983 0.0
C1281 C 0.05333 0.24843 0.16632 0.0
C1282 C 0.0352 0.26661 0.1622 0.0
H1283 H 0.93657 0.34538 0.16274 0.0
H1284 H 0.96578 0.31757 0.17809 0.0
H1285 H 0.02264 0.319 0.12593 0.0
H1286 H 0.09299 0.218 0.1326 0.0
H1287 H 0.06248 0.24694 0.12606 0.0
C1288 C 0.58184 0.75956 0.62387 0.0
C1289 C 0.58691 0.7355 0.61319 0.0
C1290 C 0.56445 0.77374 0.61456 0.0
C1291 C 0.51978 0.7738 0.56539 0.0
H1292 H 0.48898 0.80369 0.6228 0.0
C1293 C 0.42913 0.79775 0.55711 0.0
C1294 C 0.42132 0.81903 0.57085 0.0
C1295 C 0.44999 0.78845 0.56166 0.0
C1296 C 0.49714 0.79551 0.60641 0.0
H1297 H 0.57966 0.70906 0.58217 0.0
H1298 H 0.5488 0.73342 0.56629 0.0
H1299 H 0.52462 0.78748 0.62935 0.0
H1300 H 0.42892 0.84672 0.60075 0.0
H1301 H 0.4652 0.83176 0.60766 0.0
H1302 H 0.49147 0.78074 0.5429 0.0
C1303 C 0.55803 0.74129 0.5821 0.0
C1304 C 0.51804 0.7865 0.61008 0.0
C1305 C 0.57572 0.72723 0.59121 0.0
C1306 C 0.43429 0.82997 0.59012 0.0
C1307 C 0.45533 0.82135 0.59401 0.0
C1308 C 0.49852 0.78228 0.56189 0.0
C1309 C 0.55135 0.76389 0.59476 0.0
C1310 C 0.5297 0.77538 0.58971 0.0
C1311 C 0.46373 0.80085 0.57942 0.0
C1312 C 0.48672 0.79278 0.58255 0.0
H1313 H 0.59071 0.76696 0.64026 0.0
H1314 H 0.5607 0.79185 0.62383 0.0
H1315 H 0.52832 0.76592 0.54903 0.0
H1316 H 0.41949 0.7891 0.542 0.0
H1317 H 0.45551 0.77203 0.55068 0.0
C1318 C 0.89301 0.76197 0.37711 0.0
C1319 C 0.88806 0.73757 0.38719 0.0
C1320 C 0.91208 0.77442 0.38384 0.0
C1321 C 0.96085 0.77153 0.4264 0.0
H1322 H 0.98672 0.80335 0.36654 0.0
C1323 C 0.05138 0.79988 0.42596 0.0
C1324 C 0.05791 0.82048 0.41029 0.0
C1325 C 0.03032 0.79009 0.4242 0.0
C1326 C 0.97998 0.79483 0.3837 0.0
H1327 H 0.89823 0.70822 0.41421 0.0
H1328 H 0.93193 0.73004 0.42587 0.0
H1329 H 0.95092 0.78663 0.36365 0.0
H1330 H 0.04756 0.84686 0.38039 0.0
H1331 H 0.0111 0.83137 0.37844 0.0
H1332 H 0.99046 0.77907 0.44615 0.0
C1333 C 0.92111 0.73931 0.41244 0.0
C1334 C 0.95904 0.78535 0.38206 0.0
C1335 C 0.90182 0.72681 0.40579 0.0
C1336 C 0.04324 0.83055 0.39235 0.0
C1337 C 0.02208 0.82154 0.39129 0.0
C1338 C 0.98209 0.78076 0.42795 0.0
C1339 C 0.92696 0.76265 0.40053 0.0
C1340 C 0.9491 0.77356 0.40332 0.0
C1341 C 0.0151 0.80134 0.40738 0.0
C1342 C -0.00786 0.79223 0.40643 0.0
H1343 H 0.88242 0.77122 0.36333 0.0
H1344 H 0.91546 0.79298 0.37522 0.0
H1345 H 0.95364 0.76293 0.44333 0.0
H1346 H 0.06232 0.79193 0.44015 0.0
H1347 H 0.02599 0.77397 0.43634 0.0
C1348 C 0.45843 0.1647 0.89735 0.0
C1349 C 0.44164 0.17575 0.91163 0.0
C1350 C 0.47928 0.17468 0.89855 0.0
C1351 C 0.51409 0.22193 0.93497 0.0
H1352 H 0.55008 0.21381 0.87456 0.0
C1353 C 0.59888 0.26997 0.9268 0.0
C1354 C 0.60264 0.28187 0.90296 0.0
C1355 C 0.5811 0.25344 0.92996 0.0
C1356 C 0.5403 0.21636 0.89164 0.0
H1357 H 0.43337 0.20581 0.9386 0.0
H1358 H 0.46947 0.22503 0.93901 0.0
H1359 H 0.5149 0.19435 0.8754 0.0
H1360 H 0.59195 0.28472 0.86341 0.0
H1361 H 0.56179 0.25558 0.86845 0.0
H1362 H 0.53931 0.24574 0.9502 0.0
C1363 C 0.46688 0.20787 0.92765 0.0
C1364 C 0.52001 0.20475 0.89235 0.0
C1365 C 0.44603 0.19725 0.92706 0.0
C1366 C 0.58911 0.27616 0.88215 0.0
C1367 C 0.57194 0.25913 0.88502 0.0
C1368 C 0.53439 0.23389 0.9341 0.0
C1369 C 0.48393 0.1966 0.91352 0.0
C1370 C 0.50629 0.20776 0.91377 0.0
C1371 C 0.56732 0.24793 0.90906 0.0
C1372 C 0.54749 0.23186 0.91207 0.0
H1373 H 0.45562 0.14751 0.886 0.0
H1374 H 0.49177 0.16465 0.88805 0.0
H1375 H 0.50448 0.22418 0.9522 0.0
H1376 H 0.60943 0.27377 0.94299 0.0
H1377 H 0.57826 0.24484 0.94865 0.0
C1378 C 0.87488 0.07276 0.72195 0.0
C1379 C 0.85452 0.07557 0.71035 0.0
C1380 C 0.87809 0.05411 0.74105 0.0
C1381 C 0.8804 -0.00026 0.76549 0.0
H1382 H 0.84281 -0.00335 0.82495 0.0
C1383 C 0.8949 0.92533 0.8462 0.0
C1384 C 0.87798 0.91867 0.86291 0.0
C1385 C 0.89192 0.94395 0.82715 0.0
C1386 C 0.85315 -0.00343 0.80819 0.0
H1387 H 0.8214 0.06194 0.71032 0.0
H1388 H 0.82685 0.03026 0.74441 0.0
H1389 H 0.83804 0.03064 0.79343 0.0
H1390 H 0.8442 0.9249 0.87155 0.0
H1391 H 0.83848 0.95605 0.8374 0.0
H1392 H 0.8945 0.96479 0.77862 0.0
C1393 C 0.84036 0.04207 0.73839 0.0
C1394 C 0.85055 0.01642 0.7903 0.0
C1395 C 0.83729 0.06013 0.71885 0.0
C1396 C 0.85761 0.92979 0.85908 0.0
C1397 C 0.8545 0.94812 0.8397 0.0
C1398 C 0.8825 0.97929 0.78281 0.0
C1399 C 0.86084 0.03859 0.74936 0.0
C1400 C 0.86417 0.0182 0.76884 0.0
C1401 C 0.87176 0.95607 0.82382 0.0
C1402 C 0.86901 0.97741 0.80463 0.0
H1403 H 0.88843 0.08439 0.71571 0.0
H1404 H 0.89402 0.05181 0.74934 0.0
H1405 H 0.89099 0.00061 0.74892 0.0
H1406 H 0.91089 0.91732 0.84881 0.0
H1407 H 0.90587 0.94956 0.81597 0.0
C1408 C 0.68398 0.10315 0.42832 0.0
C1409 C 0.67417 0.1259 0.43719 0.0
C1410 C 0.70451 0.09614 0.43716 0.0
C1411 C 0.75345 0.11708 0.47058 0.0
H1412 H 0.74312 0.06202 0.51955 0.0
C1413 C 0.77686 0.11097 0.57616 0.0
C1414 C 0.79922 0.10711 0.57751 0.0
C1415 C 0.76543 0.10396 0.55418 0.0
C1416 C 0.74657 0.07677 0.50538 0.0
H1417 H 0.67906 0.16049 0.45978 0.0
H1418 H 0.71504 0.14856 0.4746 0.0
H1419 H 0.71692 0.07015 0.48518 0.0
H1420 H 0.82707 0.09139 0.55787 0.0
H1421 H 0.80707 0.08039 0.51837 0.0
H1422 H 0.78239 0.12478 0.49189 0.0
C1423 C 0.70676 0.13599 0.46118 0.0
C1424 C 0.73163 0.08145 0.48576 0.0
C1425 C 0.68618 0.14281 0.45269 0.0
C1426 C 0.80978 0.09434 0.55727 0.0
C1427 C 0.79842 0.08817 0.53473 0.0
C1428 C 0.76863 0.11205 0.48985 0.0
C1429 C 0.71569 0.11212 0.45439 0.0
C1430 C 0.73443 0.10247 0.46907 0.0
C1431 C 0.77627 0.0936 0.5329 0.0
C1432 C 0.76473 0.09268 0.50813 0.0
H1433 H 0.67503 0.0896 0.41659 0.0
H1434 H 0.71108 0.07756 0.43185 0.0
H1435 H 0.75581 0.1334 0.45797 0.0
H1436 H 0.76843 0.12092 0.59149 0.0
H1437 H 0.74838 0.10852 0.55304 0.0
C1438 C 0.59196 0.89291 0.2113 0.0
C1439 C 0.60995 0.89173 0.19487 0.0
C1440 C 0.59031 0.91231 0.22993 0.0
C1441 C 0.62414 0.96145 0.26427 0.0
H1442 H 0.56835 0.98709 0.2861 0.0
C1443 C 0.61713 0.03025 0.35047 0.0
C1444 C 0.60145 0.04976 0.34982 0.0
C1445 C 0.61739 0.01092 0.3318 0.0
C1446 C 0.5841 0.9804 0.2801 0.0
H1447 H 0.64003 0.91052 0.18466 0.0
H1448 H 0.6369 0.9446 0.2163 0.0
H1449 H 0.57029 0.95459 0.25262 0.0
H1450 H 0.57338 0.06391 0.32935 0.0
H1451 H 0.57384 0.03026 0.29663 0.0
H1452 H 0.63802 0.98822 0.29064 0.0
C1453 C 0.6243 0.93017 0.21558 0.0
C1454 C 0.58522 0.9613 0.26112 0.0
C1455 C 0.62593 0.91082 0.197 0.0
C1456 C 0.58573 0.0492 0.33032 0.0
C1457 C 0.58595 0.02975 0.31163 0.0
C1458 C 0.62303 0.98072 0.28298 0.0
C1459 C 0.6066 0.93109 0.23258 0.0
C1460 C 0.60527 0.95145 0.25294 0.0
C1461 C 0.60201 0.01054 0.31186 0.0
C1462 C 0.603 0.99036 0.29137 0.0
H1463 H 0.57947 0.87833 0.21039 0.0
H1464 H 0.57657 0.91197 0.24278 0.0
H1465 H 0.63991 0.95429 0.25894 0.0
H1466 H 0.62934 0.02993 0.36539 0.0
H1467 H 0.62964 -0.00387 0.33322 0.0
C1468 C 0.84315 0.82334 0.0072 0.0
C1469 C 0.84415 0.84273 0.98841 0.0
C1470 C 0.82377 0.81805 0.01986 0.0
C1471 C 0.77317 0.85005 0.03825 0.0
H1472 H 0.75525 0.78103 0.05682 0.0
C1473 C 0.70125 0.83228 0.10704 0.0
C1474 C 0.68869 0.8102 0.10289 0.0
C1475 C 0.72045 0.83595 0.09333 0.0
C1476 C 0.7598 0.80046 0.05161 0.0
H1477 H 0.82567 0.87135 0.96756 0.0
H1478 H 0.792 0.86281 0.99032 0.0
H1479 H 0.78719 0.78711 0.0304 0.0
H1480 H 0.68567 0.7752 0.08058 0.0
H1481 H 0.71823 0.78225 0.05554 0.0
H1482 H 0.74548 0.86348 0.0586 0.0
C1483 C 0.80604 0.85133 0.99497 0.0
C1484 C 0.77832 0.80393 0.03669 0.0
C1485 C 0.82526 0.85604 0.98172 0.0
C1486 C 0.69521 0.7923 0.08426 0.0
C1487 C 0.71406 0.79624 0.07014 0.0
C1488 C 0.75457 0.8466 0.05305 0.0
C1489 C 0.80514 0.8325 0.01441 0.0
C1490 C 0.78519 0.82875 0.02978 0.0
C1491 C 0.72716 0.81793 0.07469 0.0
C1492 C 0.74751 0.82174 0.0598 0.0
H1493 H 0.85759 0.81303 0.01287 0.0
H1494 H 0.82369 0.80362 0.03492 0.0
H1495 H 0.77817 0.86947 0.03353 0.0
H1496 H 0.69663 0.84623 0.12151 0.0
H1497 H 0.73016 0.85272 0.09767 0.0
C1498 C 0.84112 0.03521 0.64059 0.0
C1499 C 0.86024 0.0498 0.63975 0.0
C1500 C 0.8383 0.01614 0.65943 0.0
C1501 C 0.83287 0.98427 0.70872 0.0
H1502 H 0.88413 0.94575 0.72714 0.0
C1503 C 0.83337 0.91388 0.79525 0.0
C1504 C 0.84732 0.89259 0.79456 0.0
C1505 C 0.83426 0.93277 0.77604 0.0
C1506 C 0.86946 0.95582 0.72202 0.0
H1507 H 0.8911 0.05626 0.65846 0.0
H1508 H 0.88618 0.02342 0.69105 0.0
H1509 H 0.88625 0.97828 0.69405 0.0
H1510 H 0.87258 0.87393 0.77256 0.0
H1511 H 0.87334 0.90576 0.73852 0.0
H1512 H 0.81591 0.96122 0.73619 0.0
C1513 C 0.87346 0.02627 0.67705 0.0
C1514 C 0.87081 0.97497 0.70326 0.0
C1515 C 0.87616 0.04542 0.65851 0.0
C1516 C 0.86183 0.89031 0.77394 0.0
C1517 C 0.86237 0.9088 0.75443 0.0
C1518 C 0.83146 0.96492 0.72745 0.0
C1519 C 0.85467 0.01108 0.67756 0.0
C1520 C 0.85264 0.98976 0.69663 0.0
C1521 C 0.84871 0.93046 0.75522 0.0
C1522 C 0.84982 0.95058 0.73461 0.0
H1523 H 0.82864 0.03801 0.62626 0.0
H1524 H 0.82368 0.00472 0.65913 0.0
H1525 H 0.81854 0.99531 0.70417 0.0
H1526 H 0.82184 0.91607 0.81077 0.0
H1527 H 0.82378 0.94934 0.77781 0.0
C1528 C 0.82564 0.15436 0.53342 0.0
C1529 C 0.84564 0.15314 0.52087 0.0
C1530 C 0.80785 0.1657 0.52135 0.0
C1531 C 0.77235 0.19456 0.49245 0.0
H1532 H 0.77167 0.17573 0.42018 0.0
C1533 C 0.70516 0.22351 0.41984 0.0
C1534 C 0.69785 0.20379 0.40354 0.0
C1535 C 0.72266 0.21935 0.43625 0.0
C1536 C 0.77162 0.18108 0.44033 0.0
H1537 H 0.86371 0.16676 0.48774 0.0
H1538 H 0.83312 0.18764 0.46729 0.0
H1539 H 0.80373 0.1675 0.44572 0.0
H1540 H 0.70281 0.16434 0.3915 0.0
H1541 H 0.73409 0.15737 0.41937 0.0
H1542 H 0.73969 0.2072 0.48692 0.0
C1543 C 0.83073 0.17844 0.48579 0.0
C1544 C 0.79011 0.17675 0.45493 0.0
C1545 C 0.84831 0.16663 0.49763 0.0
C1546 C 0.70808 0.17974 0.40408 0.0
C1547 C 0.72602 0.17586 0.41985 0.0
C1548 C 0.75375 0.19887 0.47777 0.0
C1549 C 0.81003 0.17669 0.49674 0.0
C1550 C 0.79071 0.18334 0.48119 0.0
C1551 C 0.7335 0.19563 0.43603 0.0
C1552 C 0.75319 0.19187 0.45165 0.0
H1553 H 0.82339 0.14496 0.55166 0.0
H1554 H 0.79219 0.16416 0.53049 0.0
H1555 H 0.77231 0.1999 0.51259 0.0
H1556 H 0.69751 0.24227 0.41959 0.0
H1557 H 0.72825 0.23497 0.44835 0.0
C1558 C 0.62855 0.97807 0.16489 0.0
C1559 C 0.61035 0.96222 0.16205 0.0
C1560 C 0.62931 -0.00351 0.18453 0.0
C1561 C 0.59336 0.03206 0.22989 0.0
H1562 H 0.64758 0.04888 0.26301 0.0
C1563 C 0.60135 0.11968 0.29696 0.0
C1564 C 0.6171 0.11955 0.3164 0.0
C1565 C 0.5998 0.09925 0.27962 0.0
C1566 C 0.6322 0.04422 0.2543 0.0
H1567 H 0.57856 0.95343 0.17726 0.0
H1568 H 0.57986 0.98514 0.21124 0.0
H1569 H 0.64663 0.01561 0.2303 0.0
H1570 H 0.64259 0.09702 0.33402 0.0
H1571 H 0.63927 0.06086 0.30454 0.0
H1572 H 0.57867 0.05957 0.25472 0.0
C1573 C 0.59358 0.98369 0.19844 0.0
C1574 C 0.63174 0.02541 0.23508 0.0
C1575 C 0.5929 0.96525 0.17901 0.0
C1576 C 0.63033 0.09777 0.31917 0.0
C1577 C 0.62869 0.07722 0.30191 0.0
C1578 C 0.59376 0.05056 0.24933 0.0
C1579 C 0.61181 -0.00047 0.20161 0.0
C1580 C 0.61235 0.01923 0.22243 0.0
C1581 C 0.61377 0.07796 0.28146 0.0
C1582 C 0.61321 0.05715 0.26166 0.0
H1583 H 0.64214 0.97633 0.15189 0.0
H1584 H 0.64345 0.00868 0.18595 0.0
H1585 H 0.57812 0.02818 0.22048 0.0
H1586 H 0.59101 0.13625 0.29415 0.0
H1587 H 0.58828 0.10088 0.26404 0.0
C1588 C 0.65394 0.83773 0.04027 0.0
C1589 C 0.65309 0.85898 0.05694 0.0
C1590 C 0.67297 0.83166 0.02734 0.0
C1591 C 0.7225 0.8643 0.00472 0.0
H1592 H 0.73697 0.7957 0.98122 0.0
C1593 C 0.78372 0.8467 0.92246 0.0
C1594 C 0.79599 0.82402 0.92326 0.0
C1595 C 0.76737 0.85088 0.94059 0.0
C1596 C 0.73342 0.815 0.98782 0.0
H1597 H 0.67204 0.88888 0.07526 0.0
H1598 H 0.70554 0.87791 0.05314 0.0
H1599 H 0.70783 0.80138 0.01171 0.0
H1600 H 0.80182 0.78877 0.94455 0.0
H1601 H 0.77414 0.79647 0.97659 0.0
H1602 H 0.74861 0.8778 0.98143 0.0
C1603 C 0.69128 0.86643 0.04939 0.0
C1604 C 0.71644 0.81829 0.00512 0.0
C1605 C 0.6722 0.87243 0.06246 0.0
C1606 C 0.79238 0.80626 0.94321 0.0
C1607 C 0.77627 0.81054 0.96141 0.0
C1608 C 0.73966 0.86098 0.98758 0.0
C1609 C 0.69164 0.84668 0.03083 0.0
C1610 C 0.71066 0.84298 0.01373 0.0
C1611 C 0.76322 0.83262 0.96007 0.0
C1612 C 0.74526 0.83629 0.97876 0.0
H1613 H 0.63945 0.82693 0.03575 0.0
H1614 H 0.67252 0.81634 0.01324 0.0
H1615 H 0.71834 0.88367 0.01057 0.0
H1616 H 0.78608 0.86062 0.90719 0.0
H1617 H 0.75757 0.86802 0.93878 0.0
C1618 C 0.96311 0.82632 0.91544 0.0
C1619 C 0.95907 0.83194 0.94143 0.0
C1620 C 0.98058 0.8108 0.90848 0.0
C1621 C 0.01814 0.76196 0.93589 0.0
H1622 H 0.04799 0.77235 0.87115 0.0
C1623 C 0.09295 0.70243 0.90389 0.0
C1624 C 0.09322 0.69467 0.87799 0.0
C1625 C 0.07691 0.71908 0.91289 0.0
C1626 C 0.03976 0.76916 0.88927 0.0
H1627 H 0.97056 0.82618 0.98046 0.0
H1628 H 0.00102 0.79936 0.96837 0.0
H1629 H 0.02024 0.8027 0.88442 0.0
H1630 H 0.07677 0.69771 0.84132 0.0
H1631 H 0.04897 0.72704 0.85686 0.0
H1632 H 0.03834 0.72895 0.94108 0.0
C1633 C 0.9905 0.80646 0.95332 0.0
C1634 C 0.02375 0.7865 0.89685 0.0
C1635 C 0.97308 0.82203 0.96026 0.0
C1636 C 0.0768 0.70317 0.86145 0.0
C1637 C 0.06109 0.72028 0.87027 0.0
C1638 C 0.03449 0.74496 0.92856 0.0
C1639 C -0.00562 0.80039 0.92735 0.0
C1640 C 0.01242 0.78287 0.92003 0.0
C1641 C 0.06115 0.72874 0.89597 0.0
C1642 C 0.04506 0.74796 0.90484 0.0
H1643 H 0.95269 0.83377 0.90043 0.0
H1644 H 0.98285 0.80642 0.8883 0.0
H1645 H 0.00961 0.75821 0.95369 0.0
H1646 H 0.10555 0.69625 0.91698 0.0
H1647 H 0.0774 0.72525 0.93278 0.0
C1648 C 0.41481 0.71153 0.05201 0.0
C1649 C 0.40724 0.69329 0.06987 0.0
C1650 C 0.43358 0.72563 0.05697 0.0
C1651 C 0.48353 0.71726 0.09438 0.0
H1652 H 0.49823 0.78415 0.06621 0.0
C1653 C 0.55892 0.79215 0.10111 0.0
C1654 C 0.57524 0.77362 0.10338 0.0
C1655 C 0.53814 0.78495 0.09335 0.0
C1656 C 0.49439 0.76547 0.07427 0.0
H1657 H 0.41226 0.67727 0.10795 0.0
H1658 H 0.44479 0.70189 0.1167 0.0
H1659 H 0.46091 0.76903 0.06442 0.0
H1660 H 0.58348 0.73375 0.09548 0.0
H1661 H 0.54761 0.72146 0.08149 0.0
H1662 H 0.51646 0.71399 0.10545 0.0
C1663 C 0.43654 0.705 0.09859 0.0
C1664 C 0.473 0.75673 0.07308 0.0
C1665 C 0.41769 0.6911 0.09373 0.0
C1666 C 0.57108 0.74843 0.09478 0.0
C1667 C 0.5504 0.7413 0.08697 0.0
C1668 C 0.50471 0.72609 0.09588 0.0
C1669 C 0.44522 0.72165 0.07986 0.0
C1670 C 0.46737 0.73236 0.08291 0.0
C1671 C 0.53334 0.7591 0.08776 0.0
C1672 C 0.51057 0.75009 0.08548 0.0
H1673 H 0.40705 0.71368 0.03344 0.0
H1674 H 0.43976 0.73816 0.04202 0.0
H1675 H 0.48002 0.69823 0.1018 0.0
H1676 H 0.56194 0.81183 0.10672 0.0
H1677 H 0.52561 0.79928 0.09327 0.0
C1678 C 0.05696 0.26336 0.57301 0.0
C1679 C 0.05881 0.2881 0.58369 0.0
C1680 C 0.03877 0.24825 0.57786 0.0
C1681 C 0.99038 0.24174 0.61982 0.0
H1682 H 0.96767 0.20519 0.56065 0.0
C1683 C 0.91796 0.17234 0.62881 0.0
C1684 C 0.90206 0.17435 0.60965 0.0
C1685 C 0.93784 0.18482 0.62585 0.0
C1686 C 0.97375 0.21527 0.57739 0.0
H1687 H 0.04369 0.31571 0.60924 0.0
H1688 H 0.0119 0.28933 0.61774 0.0
H1689 H 0.00082 0.2298 0.55649 0.0
H1690 H 0.89496 0.18947 0.57169 0.0
H1691 H 0.92975 0.21061 0.56622 0.0
H1692 H 0.96302 0.22742 0.64056 0.0
C1693 C 0.02451 0.28156 0.6056 0.0
C1694 C -0.00706 0.2292 0.57508 0.0
C1695 C 0.04283 0.29664 0.60087 0.0
C1696 C 0.90693 0.1876 0.58679 0.0
C1697 C 0.9269 0.19971 0.58366 0.0
C1698 C 0.97125 0.22758 0.62217 0.0
C1699 C 0.02197 0.25748 0.59353 0.0
C1700 C 0.00158 0.24252 0.59629 0.0
C1701 C 0.94238 0.19908 0.60345 0.0
C1702 C 0.9628 0.214 0.60102 0.0
H1703 H 0.06908 0.25618 0.55982 0.0
H1704 H 0.03765 0.22958 0.56872 0.0
H1705 H -0.00343 0.25165 0.63659 0.0
H1706 H 0.91463 0.16235 0.64668 0.0
H1707 H 0.94957 0.18353 0.64125 0.0
C1708 C 0.04036 0.66204 0.8893 0.0
C1709 C 0.04628 0.65656 0.91485 0.0
C1710 C 0.02279 0.67815 0.88411 0.0
C1711 C 0.9746 0.70764 0.91454 0.0
H1712 H 0.9834 0.76198 0.86444 0.0
C1713 C 0.91344 0.78843 0.90876 0.0
C1714 C 0.90701 0.79569 0.88395 0.0
C1715 C 0.93244 0.77452 0.91233 0.0
C1716 C 0.98051 0.74681 0.87832 0.0
H1717 H 0.03789 0.66292 0.95493 0.0
H1718 H 0.00762 0.69091 0.94593 0.0
H1719 H 0.01023 0.72811 0.86895 0.0
H1720 H 0.91606 0.79648 0.84377 0.0
H1721 H 0.94903 0.7718 0.84973 0.0
H1722 H 0.94465 0.72556 0.92345 0.0
C1723 C 0.01629 0.68264 0.92984 0.0
C1724 C -0.00407 0.72734 0.88087 0.0
C1725 C 0.03382 0.66671 0.93501 0.0
C1726 C 0.92096 0.79141 0.86315 0.0
C1727 C 0.93977 0.77699 0.86661 0.0
C1728 C 0.95909 0.72683 0.91177 0.0
C1729 C 0.01081 0.68897 0.90438 0.0
C1730 C -0.00664 0.70787 0.89942 0.0
C1731 C 0.94502 0.76704 0.89104 0.0
C1732 C 0.96199 0.74698 0.89398 0.0
H1733 H 0.04953 0.65433 0.87333 0.0
H1734 H 0.01878 0.68242 0.86428 0.0
H1735 H 0.97185 0.69254 0.92855 0.0
H1736 H 0.90283 0.79154 0.92505 0.0
H1737 H 0.93654 0.76831 0.93162 0.0
C1738 C 0.41325 0.29632 0.41752 0.0
C1739 C 0.40968 0.31181 0.39574 0.0
C1740 C 0.43275 0.28309 0.42055 0.0
C1741 C 0.47759 0.25758 0.38085 0.0
H1742 H 0.50374 0.24356 0.4471 0.0
C1743 C 0.55879 0.20748 0.42881 0.0
C1744 C 0.56075 0.18578 0.41287 0.0
C1745 C 0.54139 0.22434 0.42603 0.0
C1746 C 0.49686 0.24746 0.42835 0.0
H1747 H 0.4243 0.32683 0.36089 0.0
H1748 H 0.45801 0.30369 0.36597 0.0
H1749 H 0.47235 0.27143 0.44465 0.0
H1750 H 0.54654 0.16531 0.38076 0.0
H1751 H 0.51593 0.19437 0.37611 0.0
H1752 H 0.50232 0.23421 0.36441 0.0
C1753 C 0.44582 0.30155 0.38072 0.0
C1754 C 0.47859 0.26321 0.42702 0.0
C1755 C 0.42651 0.31511 0.37794 0.0
C1756 C 0.54557 0.18202 0.39317 0.0
C1757 C 0.52795 0.1987 0.3906 0.0
C1758 C 0.49588 0.24191 0.38216 0.0
C1759 C 0.44901 0.28487 0.40171 0.0
C1760 C 0.46872 0.2685 0.40324 0.0
C1761 C 0.52532 0.21976 0.40743 0.0
C1762 C 0.50583 0.23663 0.40593 0.0
H1763 H 0.40057 0.29338 0.43158 0.0
H1764 H 0.43455 0.27038 0.43693 0.0
H1765 H 0.47026 0.26084 0.36222 0.0
H1766 H 0.57039 0.21102 0.44401 0.0
H1767 H 0.54047 0.24084 0.4387 0.0
C1768 C 0.95583 0.12784 0.60351 0.0
C1769 C 0.95144 0.12899 0.57702 0.0
C1770 C 0.97442 0.13939 0.61352 0.0
C1771 C 0.02684 0.16913 0.59354 0.0
H1772 H 0.02131 0.20563 0.65826 0.0
C1773 C 0.09727 0.22655 0.63715 0.0
C1774 C 0.09238 0.25083 0.64749 0.0
C1775 C 0.08085 0.20973 0.6299 0.0
C1776 C 0.02308 0.19556 0.64014 0.0
H1777 H 0.96306 0.14294 0.5402 0.0
H1778 H -0.00514 0.16379 0.55758 0.0
H1779 H -0.00827 0.17871 0.64319 0.0
H1780 H 0.06657 0.27662 0.65855 0.0
H1781 H 0.03763 0.24681 0.64646 0.0
H1782 H 0.05777 0.18691 0.58994 0.0
C1783 C 0.98448 0.15335 0.5707 0.0
C1784 C 0.00624 0.1798 0.63163 0.0
C1785 C 0.96607 0.14162 0.5607 0.0
C1786 C 0.07072 0.25811 0.65033 0.0
C1787 C 0.05422 0.24096 0.64363 0.0
C1788 C 0.04361 0.18489 0.60201 0.0
C1789 C 0.98882 0.15264 0.59727 0.0
C1790 C 0.00768 0.16689 0.60789 0.0
C1791 C 0.05913 0.21665 0.63318 0.0
C1792 C 0.04175 0.1987 0.62514 0.0
H1793 H 0.94492 0.11797 0.6165 0.0
H1794 H 0.97739 0.13805 0.63401 0.0
H1795 H 0.02882 0.159 0.57549 0.0
H1796 H 0.11388 0.22043 0.63487 0.0
H1797 H 0.0852 0.19105 0.62225 0.0
C1798 C 0.39672 0.74677 0.12133 0.0
C1799 C 0.39526 0.72793 0.14055 0.0
C1800 C 0.41506 0.76213 0.11932 0.0
C1801 C 0.47171 0.77041 0.14042 0.0
H1802 H 0.45898 0.84176 0.12426 0.0
C1803 C 0.53795 0.84897 0.12958 0.0
C1804 C 0.53733 0.85967 0.1047 0.0
C1805 C 0.52047 0.8345 0.13879 0.0
C1806 C 0.46274 0.82195 0.129 0.0
H1807 H 0.41187 0.70955 0.17225 0.0
H1808 H 0.44411 0.7369 0.16912 0.0
H1809 H 0.42951 0.81123 0.1296 0.0
H1810 H 0.5172 0.86561 0.07099 0.0
H1811 H 0.4867 0.84123 0.08732 0.0
H1812 H 0.5051 0.78142 0.13945 0.0
C1813 C 0.4312 0.73951 0.15531 0.0
C1814 C 0.44592 0.80437 0.13177 0.0
C1815 C 0.41288 0.72375 0.15701 0.0
C1816 C 0.51837 0.85725 0.09005 0.0
C1817 C 0.50077 0.84352 0.0995 0.0
C1818 C 0.48861 0.78814 0.13783 0.0
C1819 C 0.43215 0.75942 0.13694 0.0
C1820 C 0.45021 0.77823 0.13664 0.0
C1821 C 0.50186 0.83143 0.12362 0.0
C1822 C 0.48423 0.81389 0.13135 0.0
H1823 H 0.38327 0.75026 0.10843 0.0
H1824 H 0.41559 0.77665 0.10436 0.0
H1825 H 0.47554 0.75042 0.14416 0.0
H1826 H 0.5523 0.85071 0.14138 0.0
H1827 H 0.52162 0.82535 0.15747 0.0
C1828 C 0.63154 0.41284 0.82297 0.0
C1829 C 0.62238 0.38822 0.82558 0.0
C1830 C 0.62724 0.42777 0.80123 0.0
C1831 C 0.59117 0.43418 0.74447 0.0
H1832 H 0.64166 0.46584 0.71363 0.0
C1833 C 0.58818 0.47646 0.64244 0.0
C1834 C 0.59844 0.50025 0.63845 0.0
C1835 C 0.59145 0.46277 0.66522 0.0
C1836 C 0.62733 0.45744 0.72214 0.0
H1837 H 0.60011 0.36087 0.80857 0.0
H1838 H 0.59235 0.38709 0.77079 0.0
H1839 H 0.64497 0.44365 0.75468 0.0
H1840 H 0.62128 0.52756 0.65434 0.0
H1841 H 0.62718 0.50354 0.69412 0.0
H1842 H 0.57343 0.44836 0.71218 0.0
C1843 C 0.60301 0.3948 0.7854 0.0
C1844 C 0.62921 0.44475 0.74574 0.0
C1845 C 0.60745 0.37974 0.80707 0.0
C1846 C 0.61294 0.50943 0.65708 0.0
C1847 C 0.61634 0.49562 0.67983 0.0
C1848 C 0.58922 0.44719 0.72106 0.0
C1849 C 0.61348 0.41858 0.78178 0.0
C1850 C 0.61115 0.43293 0.75718 0.0
C1851 C 0.60517 0.47247 0.68447 0.0
C1852 C 0.60731 0.45881 0.7095 0.0
H1853 H 0.64299 0.42003 0.837 0.0
H1854 H 0.63512 0.44631 0.79937 0.0
H1855 H 0.57691 0.42545 0.75282 0.0
H1856 H 0.57703 0.46878 0.62833 0.0
H1857 H 0.58305 0.44465 0.66783 0.0
C1858 C 0.85938 0.38408 0.02688 0.0
C1859 C 0.86468 0.41041 0.02731 0.0
C1860 C 0.8441 0.37473 0.00927 0.0
C1861 C 0.79705 0.40007 0.9737 0.0
H1862 H 0.79453 0.33211 0.94313 0.0
C1863 C 0.72591 0.37304 0.91007 0.0
C1864 C 0.71651 0.34872 0.91387 0.0
C1865 C 0.74605 0.37882 0.92043 0.0
C1866 C 0.79503 0.35115 0.95157 0.0
H1867 H 0.8593 0.44709 0.00821 0.0
H1868 H 0.83292 0.43096 0.9781 0.0
H1869 H 0.82675 0.34525 0.9672 0.0
H1870 H 0.72145 0.31085 0.93037 0.0
H1871 H 0.75662 0.32125 0.94935 0.0
H1872 H 0.76578 0.40636 0.95819 0.0
C1873 C 0.84 0.41755 0.99166 0.0
C1874 C 0.81346 0.35866 0.96539 0.0
C1875 C 0.85525 0.42681 0.00897 0.0
C1876 C 0.72815 0.3299 0.92747 0.0
C1877 C 0.74842 0.33576 0.93803 0.0
C1878 C 0.77898 0.3928 0.95963 0.0
C1879 C 0.83353 0.39164 0.99225 0.0
C1880 C 0.81462 0.38325 0.97669 0.0
C1881 C 0.75737 0.36052 0.93507 0.0
C1882 C 0.77753 0.36817 0.94865 0.0
H1883 H 0.8667 0.37082 0.04039 0.0
H1884 H 0.83994 0.35451 0.00978 0.0
H1885 H 0.79693 0.41883 0.98278 0.0
H1886 H 0.71766 0.38782 0.89914 0.0
H1887 H 0.75267 0.39783 0.91708 0.0
C1888 C 0.86799 0.63029 0.28506 0.0
C1889 C 0.85635 0.62665 0.30795 0.0
C1890 C 0.87167 0.60961 0.26846 0.0
C1891 C 0.84783 0.54945 0.24748 0.0
H1892 H 0.90454 0.53471 0.21952 0.0
C1893 C 0.86445 0.49131 0.15446 0.0
C1894 C 0.88162 0.47374 0.1552 0.0
C1895 C 0.85995 0.50672 0.17582 0.0
C1896 C 0.88864 0.53848 0.22733 0.0
H1897 H 0.83934 0.59874 0.3315 0.0
H1898 H 0.84481 0.56289 0.30175 0.0
H1899 H 0.90037 0.56877 0.25159 0.0
H1900 H 0.90731 0.45794 0.17863 0.0
H1901 H 0.90023 0.48599 0.21549 0.0
H1902 H 0.83599 0.51981 0.22245 0.0
C1903 C 0.85168 0.5815 0.2971 0.0
C1904 C 0.88625 0.55808 0.24547 0.0
C1905 C 0.84863 0.60197 0.31411 0.0
C1906 C 0.89379 0.47114 0.17781 0.0
C1907 C 0.88982 0.48723 0.19879 0.0
C1908 C 0.85015 0.53024 0.22888 0.0
C1909 C 0.86321 0.58515 0.27413 0.0
C1910 C 0.86583 0.56378 0.25564 0.0
C1911 C 0.87307 0.50541 0.19784 0.0
C1912 C 0.87058 0.52459 0.21865 0.0
H1913 H 0.87401 0.64918 0.27986 0.0
H1914 H 0.88046 0.61293 0.25074 0.0
H1915 H 0.83189 0.5536 0.25498 0.0
H1916 H 0.85506 0.49377 0.13704 0.0
H1917 H 0.84709 0.52078 0.17451 0.0
C1918 C 0.78363 0.65178 0.45505 0.0
C1919 C 0.7952 0.63737 0.43685 0.0
C1920 C 0.76459 0.64206 0.46573 0.0
C1921 C 0.73036 0.58286 0.47069 0.0
H1922 H 0.68554 0.63336 0.48291 0.0
C1923 C 0.64579 0.55197 0.50566 0.0
C1924 C 0.63582 0.56791 0.524 0.0
C1925 C 0.66431 0.56021 0.49265 0.0
C1926 C 0.69792 0.61896 0.48002 0.0
H1927 H 0.79642 0.60094 0.41648 0.0
H1928 H 0.76301 0.58442 0.4343 0.0
H1929 H 0.72038 0.64728 0.46707 0.0
H1930 H 0.63711 0.60535 0.54241 0.0
H1931 H 0.66913 0.61962 0.51981 0.0
H1932 H 0.70809 0.55459 0.48424 0.0
C1933 C 0.76871 0.60298 0.44087 0.0
C1934 C 0.71803 0.627 0.47095 0.0
C1935 C 0.78795 0.6125 0.43058 0.0
C1936 C 0.64446 0.59247 0.52856 0.0
C1937 C 0.66285 0.60073 0.51545 0.0
C1938 C 0.7103 0.57483 0.48006 0.0
C1939 C 0.7564 0.61798 0.45796 0.0
C1940 C 0.73472 0.60914 0.46674 0.0
C1941 C 0.67331 0.58458 0.49767 0.0
C1942 C 0.69394 0.59283 0.48536 0.0
H1943 H 0.78884 0.67097 0.46036 0.0
H1944 H 0.75602 0.65377 0.4796 0.0
H1945 H 0.74274 0.56847 0.46777 0.0
H1946 H 0.63941 0.53301 0.50147 0.0
H1947 H 0.6715 0.54743 0.47862 0.0
C1948 C 0.56953 0.45291 0.81 0.0
C1949 C 0.58532 0.45812 0.82868 0.0
C1950 C 0.56751 0.46891 0.78844 0.0
C1951 C 0.59782 0.51365 0.74808 0.0
H1952 H 0.54395 0.55022 0.73718 0.0
C1953 C 0.58007 0.61634 0.70674 0.0
C1954 C 0.59035 0.61455 0.68267 0.0
C1955 C 0.57381 0.59407 0.7199 0.0
C1956 C 0.55893 0.53978 0.73979 0.0
H1957 H 0.61179 0.48316 0.83935 0.0
H1958 H 0.60917 0.51009 0.80093 0.0
H1959 H 0.54576 0.51548 0.76933 0.0
H1960 H 0.60048 0.58813 0.65264 0.0
H1961 H 0.58908 0.54951 0.67556 0.0
H1962 H 0.61128 0.53855 0.71952 0.0
C1963 C 0.59808 0.49409 0.80314 0.0
C1964 C 0.55996 0.51994 0.758 0.0
C1965 C 0.59957 0.47877 0.82508 0.0
C1966 C 0.59248 0.59026 0.67105 0.0
C1967 C 0.58618 0.56808 0.6842 0.0
C1968 C 0.59671 0.5331 0.72969 0.0
C1969 C 0.58184 0.48956 0.78484 0.0
C1970 C 0.5796 0.50724 0.76275 0.0
C1971 C 0.57781 0.56975 0.70919 0.0
C1972 C 0.57741 0.54668 0.72575 0.0
H1973 H 0.55822 0.4372 0.81261 0.0
H1974 H 0.55486 0.46512 0.77454 0.0
H1975 H 0.61315 0.5042 0.75149 0.0
H1976 H 0.57807 0.63482 0.7161 0.0
H1977 H 0.56745 0.59579 0.73926 0.0
C1978 C 0.79605 0.33609 0.02552 0.0
C1979 C 0.80366 0.35335 0.04422 0.0
C1980 C 0.77683 0.34102 0.01238 0.0
C1981 C 0.73694 0.39305 -0.00146 0.0
H1982 H 0.70228 0.33492 0.97673 0.0
C1983 C 0.66669 0.4089 0.92918 0.0
C1984 C 0.64849 0.393 0.93086 0.0
C1985 C 0.68538 0.40292 0.94286 0.0
C1986 C 0.71149 0.3515 0.98293 0.0
H1987 H 0.7975 0.38982 0.06313 0.0
H1988 H 0.76389 0.3982 0.04074 0.0
H1989 H 0.73447 0.3276 0.00205 0.0
H1990 H 0.63549 0.358 0.94729 0.0
H1991 H 0.66768 0.34804 0.97232 0.0
H1992 H 0.71358 0.41706 0.98057 0.0
C1993 C 0.77279 0.38099 0.03578 0.0
C1994 C 0.73029 0.34723 -0.00283 0.0
C1995 C 0.79215 0.37619 0.04869 0.0
C1996 C 0.64949 0.37039 0.94554 0.0
C1997 C 0.66801 0.36476 0.95991 0.0
C1998 C 0.71806 0.39733 0.98458 0.0
C1999 C 0.76464 0.36324 0.01776 0.0
C2000 C 0.74364 0.3679 0.0045 0.0
C2001 C 0.68606 0.38133 0.95928 0.0
C2002 C 0.70536 0.3766 0.97586 0.0
H2003 H 0.80463 0.31837 0.02153 0.0
H2004 H 0.77155 0.32729 -0.00197 0.0
H2005 H 0.74665 0.40957 0.00377 0.0
H2006 H 0.66628 0.42635 0.91774 0.0
H2007 H 0.69916 0.41557 0.94076 0.0
C2008 C 0.87458 0.52601 0.32093 0.0
C2009 C 0.86003 0.51986 0.34071 0.0
C2010 C 0.87374 0.51287 0.29754 0.0
C2011 C 0.84116 0.47164 0.25549 0.0
H2012 H 0.89514 0.43621 0.24214 0.0
C2013 C 0.87063 0.37513 0.20071 0.0
C2014 C 0.86135 0.37824 0.17625 0.0
C2015 C 0.87134 0.39564 0.21797 0.0
C2016 C 0.88 0.44606 0.24557 0.0
H2017 H 0.83256 0.49641 0.35137 0.0
H2018 H 0.83034 0.47429 0.30975 0.0
H2019 H 0.89318 0.4679 0.27672 0.0
H2020 H 0.84602 0.40546 0.15037 0.0
H2021 H 0.8468 0.44131 0.18099 0.0
H2022 H 0.828 0.4497 0.22425 0.0
C2023 C 0.84247 0.48908 0.31246 0.0
C2024 C 0.87893 0.46433 0.26517 0.0
C2025 C 0.84371 0.50168 0.33618 0.0
C2026 C 0.85333 0.40253 0.16909 0.0
C2027 C 0.85365 0.42297 0.18661 0.0
C2028 C 0.84238 0.45381 0.23538 0.0
C2029 C 0.85798 0.49391 0.29332 0.0
C2030 C 0.85941 0.47692 0.27061 0.0
C2031 C 0.86249 0.41961 0.21128 0.0
C2032 C 0.86172 0.44049 0.23061 0.0
H2033 H 0.88753 0.53966 0.32418 0.0
H2034 H 0.88597 0.51671 0.28316 0.0
H2035 H 0.82595 0.48114 0.25938 0.0
H2036 H 0.87699 0.35665 0.20672 0.0
H2037 H 0.8781 0.39246 0.23694 0.0
C2038 C 0.8206 0.54883 0.48848 0.0
C2039 C 0.83167 0.56647 0.47274 0.0
C2040 C 0.80378 0.55696 0.50434 0.0
C2041 C 0.77498 0.61616 0.52821 0.0
H2042 H 0.72715 0.56823 0.53254 0.0
C2043 C 0.69017 0.65043 0.55703 0.0
C2044 C 0.67766 0.63409 0.57259 0.0
C2045 C 0.70924 0.64151 0.54578 0.0
C2046 C 0.74039 0.58183 0.53189 0.0
H2047 H 0.8347 0.60682 0.46271 0.0
H2048 H 0.80535 0.62099 0.49015 0.0
H2049 H 0.76069 0.55443 0.51361 0.0
H2050 H 0.67499 0.59538 0.58797 0.0
H2051 H 0.70841 0.58008 0.56911 0.0
H2052 H 0.75411 0.64382 0.5457 0.0
C2053 C 0.80939 0.60078 0.49015 0.0
C2054 C 0.75989 0.57382 0.52114 0.0
C2055 C 0.82626 0.59264 0.47424 0.0
C2056 C 0.68417 0.6084 0.5759 0.0
C2057 C 0.7034 0.59961 0.56502 0.0
C2058 C 0.75534 0.62427 0.53866 0.0
C2059 C 0.79736 0.58294 0.50471 0.0
C2060 C 0.77739 0.59097 0.51866 0.0
C2061 C 0.71644 0.61621 0.55028 0.0
C2062 C 0.73764 0.60734 0.54014 0.0
H2063 H 0.82468 0.52856 0.48832 0.0
H2064 H 0.79569 0.54269 0.51607 0.0
H2065 H 0.78819 0.62979 0.52753 0.0
H2066 H 0.68553 0.67032 0.55408 0.0
H2067 H 0.71849 0.6546 0.53387 0.0
C2068 C 0.55119 0.66285 0.59013 0.0
C2069 C 0.55738 0.64552 0.60949 0.0
C2070 C 0.53693 0.68289 0.59551 0.0
C2071 C 0.51024 0.71823 0.65002 0.0
H2072 H 0.47049 0.73738 0.59577 0.0
C2073 C 0.44851 0.79967 0.6654 0.0
C2074 C 0.42899 0.79917 0.65176 0.0
C2075 C 0.46467 0.78174 0.66016 0.0
C2076 C 0.48107 0.73199 0.61144 0.0
H2077 H 0.55426 0.63638 0.65002 0.0
H2078 H 0.52974 0.67149 0.6596 0.0
H2079 H 0.4975 0.70518 0.58753 0.0
H2080 H 0.41082 0.77946 0.62215 0.0
H2081 H 0.43858 0.7476 0.6134 0.0
H2082 H 0.49268 0.74346 0.67455 0.0
C2083 C 0.53589 0.66988 0.64018 0.0
C2084 C 0.49713 0.71383 0.60646 0.0
C2085 C 0.55004 0.64962 0.63472 0.0
C2086 C 0.42594 0.78055 0.63259 0.0
C2087 C 0.44196 0.76225 0.62763 0.0
C2088 C 0.49378 0.73585 0.65522 0.0
C2089 C 0.52874 0.68653 0.6205 0.0
C2090 C 0.51201 0.70663 0.62566 0.0
C2091 C 0.46161 0.76249 0.64138 0.0
C2092 C 0.47894 0.74313 0.63599 0.0
H2093 H 0.55649 0.66022 0.57044 0.0
H2094 H 0.53207 0.69518 0.57977 0.0
H2095 H 0.52154 0.71374 0.66526 0.0
H2096 H 0.45122 0.81385 0.68034 0.0
H2097 H 0.47969 0.78338 0.67065 0.0
C2098 C 0.33521 0.57536 0.19589 0.0
C2099 C 0.35334 0.59124 0.19233 0.0
C2100 C 0.33549 0.55559 0.21416 0.0
C2101 C 0.3672 0.53376 0.27184 0.0
H2102 H 0.32892 0.47487 0.26744 0.0
C2103 C 0.37553 0.44706 0.33955 0.0
C2104 C 0.35667 0.43836 0.35184 0.0
C2105 C 0.37441 0.46475 0.31938 0.0
C2106 C 0.33973 0.49118 0.26886 0.0
H2107 H 0.3864 0.59792 0.204 0.0
H2108 H 0.38754 0.5625 0.23452 0.0
H2109 H 0.32998 0.50583 0.23228 0.0
H2110 H 0.32176 0.4408 0.35209 0.0
H2111 H 0.31974 0.4712 0.31586 0.0
H2112 H 0.37786 0.518 0.30772 0.0
C2113 C 0.37261 0.56591 0.22428 0.0
C2114 C 0.34018 0.50924 0.24883 0.0
C2115 C 0.37215 0.58606 0.20641 0.0
C2116 C 0.33655 0.44709 0.34288 0.0
C2117 C 0.3354 0.46444 0.32219 0.0
C2118 C 0.36728 0.51524 0.29134 0.0
C2119 C 0.35407 0.5508 0.22905 0.0
C2120 C 0.35388 0.53094 0.25003 0.0
C2121 C 0.35438 0.47384 0.31062 0.0
C2122 C 0.35362 0.49371 0.29005 0.0
H2123 H 0.32034 0.57909 0.18556 0.0
H2124 H 0.32073 0.5449 0.21724 0.0
H2125 H 0.37748 0.55043 0.27423 0.0
H2126 H 0.39131 0.44083 0.34605 0.0
H2127 H 0.38928 0.47134 0.31059 0.0
C2128 C 0.28105 0.66361 0.08445 0.0
C2129 C 0.29352 0.68567 0.08903 0.0
C2130 C 0.26601 0.66334 0.06436 0.0
C2131 C 0.25193 0.69248 0.00215 0.0
H2132 H 0.19374 0.67137 0.0198 0.0
C2133 C 0.1593 0.68671 0.96047 0.0
C2134 C 0.16077 0.66709 0.94191 0.0
C2135 C 0.17753 0.69443 0.97422 0.0
C2136 C 0.2099 0.67747 0.01462 0.0
H2137 H 0.30094 0.72421 0.07576 0.0
H2138 H 0.27558 0.72309 0.03957 0.0
H2139 H 0.22161 0.6717 0.05291 0.0
H2140 H 0.183 0.64348 0.92041 0.0
H2141 H 0.21504 0.65706 0.94425 0.0
H2142 H 0.24012 0.69722 0.96345 0.0
C2143 C 0.27706 0.7063 0.05182 0.0
C2144 C 0.22588 0.67742 0.03351 0.0
C2145 C 0.29153 0.70693 0.07247 0.0
C2146 C 0.18133 0.65837 0.93461 0.0
C2147 C 0.19969 0.66615 0.94837 0.0
C2148 C 0.23597 0.69188 0.98299 0.0
C2149 C 0.26382 0.68471 0.0479 0.0
C2150 C 0.24705 0.6849 0.02752 0.0
C2151 C 0.1976 0.68292 0.96943 0.0
C2152 C 0.21478 0.68455 0.98917 0.0
H2153 H 0.2822 0.64708 0.0971 0.0
H2154 H 0.25606 0.64639 0.06168 0.0
H2155 H 0.2682 0.69817 -0.00298 0.0
H2156 H 0.14369 0.69408 0.96632 0.0
H2157 H 0.17559 0.70774 0.9901 0.0
C2158 C 0.09547 0.56317 0.81534 0.0
C2159 C 0.11379 0.56382 0.83129 0.0
C2160 C 0.094 0.54542 0.79519 0.0
C2161 C 0.08902 0.49776 0.76239 0.0
H2162 H 0.14098 0.47498 0.72777 0.0
C2163 C 0.09274 0.40441 0.70296 0.0
C2164 C 0.10837 0.40188 0.68354 0.0
C2165 C 0.09126 0.42709 0.71729 0.0
C2166 C 0.1262 0.48137 0.73684 0.0
H2167 H 0.14496 0.54638 0.83856 0.0
H2168 H 0.14238 0.51529 0.80376 0.0
H2169 H 0.14331 0.5084 0.76006 0.0
H2170 H 0.13321 0.42214 0.66215 0.0
H2171 H 0.13014 0.46201 0.68654 0.0
H2172 H 0.07187 0.4711 0.73858 0.0
C2173 C 0.12925 0.52877 0.80633 0.0
C2174 C 0.1276 0.50026 0.75589 0.0
C2175 C 0.13073 0.54656 0.82644 0.0
C2176 C 0.12114 0.42335 0.67719 0.0
C2177 C 0.11959 0.44611 0.69145 0.0
C2178 C 0.0876 0.47894 0.74322 0.0
C2179 C 0.11081 0.52784 0.79044 0.0
C2180 C 0.1091 0.50849 0.76924 0.0
C2181 C 0.10524 0.4479 0.71239 0.0
C2182 C 0.10622 0.47014 0.7305 0.0
H2183 H 0.0821 0.57619 0.81858 0.0
H2184 H 0.07974 0.54579 0.78316 0.0
H2185 H 0.07436 0.50332 0.77226 0.0
H2186 H 0.08264 0.38825 0.70836 0.0
H2187 H 0.08008 0.42756 0.7333 0.0
C2188 C 0.19877 0.28365 0.59972 0.0
C2189 C 0.19078 0.30637 0.61087 0.0
C2190 C 0.21457 0.28475 0.58055 0.0
C2191 C 0.26013 0.32326 0.56162 0.0
H2192 H 0.25711 0.28957 0.49501 0.0
C2193 C 0.30973 0.3359 0.46429 0.0
C2194 C 0.33027 0.33707 0.47563 0.0
C2195 C 0.29225 0.32543 0.47789 0.0
C2196 C 0.25815 0.29888 0.51361 0.0
H2197 H 0.19272 0.348 0.61066 0.0
H2198 H 0.22129 0.34988 0.57811 0.0
H2199 H 0.22639 0.28658 0.52498 0.0
H2200 H 0.34953 0.32344 0.50779 0.0
H2201 H 0.31932 0.30497 0.53121 0.0
H2202 H 0.29169 0.33556 0.55067 0.0
C2203 C 0.21494 0.33129 0.5838 0.0
C2204 C 0.24069 0.29714 0.53071 0.0
C2205 C 0.19859 0.33024 0.6023 0.0
C2206 C 0.33373 0.3237 0.49883 0.0
C2207 C 0.31642 0.31316 0.51233 0.0
C2208 C 0.27765 0.32451 0.54489 0.0
C2209 C 0.2231 0.30855 0.57283 0.0
C2210 C 0.24147 0.30965 0.5547 0.0
C2211 C 0.29532 0.31566 0.50286 0.0
C2212 C 0.27685 0.31246 0.52069 0.0
H2213 H 0.19292 0.26502 0.60602 0.0
H2214 H 0.22074 0.26698 0.57252 0.0
H2215 H 0.26118 0.3329 0.58006 0.0
H2216 H 0.30675 0.34507 0.44614 0.0
H2217 H 0.27615 0.32725 0.46993 0.0
C2218 C 0.38978 0.41484 0.28272 0.0
C2219 C 0.36878 0.40653 0.28872 0.0
C2220 C 0.3932 0.43204 0.26229 0.0
C2221 C 0.3906 0.48209 0.23021 0.0
H2222 H 0.35815 0.47318 0.16702 0.0
C2223 C 0.38985 0.55932 0.14921 0.0
C2224 C 0.37031 0.56265 0.13588 0.0
C2225 C 0.39242 0.5389 0.16651 0.0
C2226 C 0.36716 0.47617 0.18463 0.0
H2227 H 0.3351 0.40862 0.27747 0.0
H2228 H 0.34113 0.43746 0.2415 0.0
H2229 H 0.35843 0.43901 0.19895 0.0
H2230 H 0.33787 0.5479 0.13088 0.0
H2231 H 0.34182 0.51325 0.16202 0.0
H2232 H 0.39898 0.51947 0.21621 0.0
C2233 C 0.35493 0.43127 0.25271 0.0
C2234 C 0.36744 0.45646 0.20284 0.0
C2235 C 0.35146 0.41487 0.27346 0.0
C2236 C 0.35317 0.54568 0.14075 0.0
C2237 C 0.35559 0.52558 0.15836 0.0
C2238 C 0.39034 0.50188 0.21192 0.0
C2239 C 0.37574 0.44042 0.24712 0.0
C2240 C 0.37859 0.45952 0.22617 0.0
C2241 C 0.37537 0.52159 0.17115 0.0
C2242 C 0.37793 0.49955 0.18931 0.0
H2243 H 0.40341 0.40862 0.29421 0.0
H2244 H 0.40942 0.43873 0.25832 0.0
H2245 H 0.39921 0.48507 0.24812 0.0
H2246 H 0.40342 0.572 0.14565 0.0
H2247 H 0.40792 0.53642 0.17581 0.0
C2248 C 0.28822 0.63803 0.01309 0.0
C2249 C 0.29891 0.62396 0.03234 0.0
C2250 C 0.2686 0.62941 0.00327 0.0
C2251 C 0.22191 0.60715 0.99517 0.0
H2252 H 0.23924 0.55747 0.94339 0.0
C2253 C 0.17206 0.59389 0.90434 0.0
C2254 C 0.18436 0.60595 0.88503 0.0
C2255 C 0.18205 0.58472 0.92668 0.0
C2256 C 0.23386 0.57063 0.95823 0.0
H2257 H 0.29676 0.59065 0.05748 0.0
H2258 H 0.26245 0.57521 0.0395 0.0
H2259 H 0.26291 0.56609 0.98014 0.0
H2260 H 0.21683 0.61453 0.87215 0.0
H2261 H 0.23434 0.59749 0.91052 0.0
H2262 H 0.19362 0.61315 0.97232 0.0
C2263 C 0.26923 0.59316 0.03259 0.0
C2264 C 0.24732 0.5755 0.97924 0.0
C2265 C 0.28878 0.60207 0.04285 0.0
C2266 C 0.20696 0.60546 0.8868 0.0
C2267 C 0.21697 0.59563 0.90874 0.0
C2268 C 0.20821 0.60187 0.97449 0.0
C2269 C 0.25938 0.60649 0.01229 0.0
C2270 C 0.24197 0.59483 -0.00302 0.0
C2271 C 0.20452 0.5866 0.92946 0.0
C2272 C 0.21473 0.58473 0.95505 0.0
H2273 H 0.29561 0.65494 0.00461 0.0
H2274 H 0.26138 0.63964 0.98725 0.0
H2275 H 0.21768 0.62231 0.00854 0.0
H2276 H 0.15467 0.59417 0.9037 0.0
H2277 H 0.17215 0.57795 0.94249 0.0
C2278 C 0.09767 0.45884 0.60595 0.0
C2279 C 0.08811 0.43579 0.61433 0.0
C2280 C 0.09773 0.48058 0.6217 0.0
C2281 C 0.11132 0.51504 0.66481 0.0
H2282 H 0.06742 0.5322 0.71507 0.0
C2283 C 0.13123 0.57602 0.75292 0.0
C2284 C 0.11592 0.59331 0.76278 0.0
C2285 C 0.12596 0.55954 0.73278 0.0
C2286 C 0.07968 0.52798 0.70084 0.0
H2287 H 0.06979 0.41798 0.64512 0.0
H2288 H 0.07006 0.4559 0.67282 0.0
H2289 H 0.0602 0.49887 0.68301 0.0
H2290 H 0.08309 0.60716 0.75902 0.0
H2291 H 0.07361 0.57767 0.72383 0.0
H2292 H 0.13069 0.54419 0.68216 0.0
C2293 C 0.07753 0.45724 0.65404 0.0
C2294 C 0.07566 0.50861 0.68267 0.0
C2295 C 0.07753 0.43539 0.63825 0.0
C2296 C 0.09518 0.59394 0.75182 0.0
C2297 C 0.08975 0.57698 0.73181 0.0
C2298 C 0.11523 0.53444 0.68271 0.0
C2299 C 0.08835 0.47983 0.64635 0.0
C2300 C 0.09156 0.50168 0.6646 0.0
C2301 C 0.10511 0.55951 0.72211 0.0
C2302 C 0.09969 0.54082 0.70135 0.0
H2303 H 0.10561 0.45998 0.58741 0.0
H2304 H 0.10555 0.49786 0.61469 0.0
H2305 H 0.12418 0.51003 0.65162 0.0
H2306 H 0.14739 0.57509 0.76083 0.0
H2307 H 0.13819 0.54625 0.7261 0.0
C2308 C 0.18388 0.34019 0.53276 0.0
C2309 C 0.16953 0.35669 0.54566 0.0
C2310 C 0.20322 0.34967 0.52278 0.0
C2311 C 0.24718 0.37928 0.51217 0.0
H2312 H 0.22867 0.41176 0.44859 0.0
C2313 C 0.30395 0.39352 0.42483 0.0
C2314 C 0.2973 0.37484 0.40689 0.0
C2315 C 0.29 0.40122 0.44461 0.0
C2316 C 0.23419 0.40349 0.46658 0.0
H2317 H 0.16525 0.39547 0.56036 0.0
H2318 H 0.19911 0.41201 0.54243 0.0
H2319 H 0.20269 0.40517 0.48352 0.0
H2320 H 0.27018 0.3521 0.39357 0.0
H2321 H 0.24556 0.36662 0.4271 0.0
H2322 H 0.27844 0.37638 0.49469 0.0
C2323 C 0.19529 0.39177 0.54033 0.0
C2324 C 0.2194 0.39976 0.48652 0.0
C2325 C 0.17599 0.38221 0.55064 0.0
C2326 C 0.27578 0.36637 0.40723 0.0
C2327 C 0.26169 0.3747 0.42639 0.0
C2328 C 0.26214 0.38359 0.49246 0.0
C2329 C 0.2086 0.37573 0.52558 0.0
C2330 C 0.22556 0.38653 0.5089 0.0
C2331 C 0.26897 0.39124 0.44589 0.0
C2332 C 0.25544 0.39452 0.46903 0.0
H2333 H 0.17944 0.32042 0.52868 0.0
H2334 H 0.21314 0.33714 0.51106 0.0
H2335 H 0.25213 0.36893 0.52925 0.0
H2336 H 0.32042 0.40031 0.42513 0.0
H2337 H 0.29593 0.41393 0.45955 0.0
C2338 C 0.44791 0.36891 0.41051 0.0
C2339 C 0.43792 0.36367 0.43415 0.0
C2340 C 0.46753 0.35721 0.40424 0.0
C2341 C 0.51229 0.31791 0.43304 0.0
H2342 H 0.52302 0.30081 0.36158 0.0
C2343 C 0.59258 0.27433 0.39764 0.0
C2344 C 0.59133 0.25496 0.37891 0.0
C2345 C 0.57404 0.28748 0.40528 0.0
C2346 C 0.52016 0.30525 0.38166 0.0
H2347 H 0.44001 0.34173 0.46948 0.0
H2348 H 0.4733 0.31994 0.45797 0.0
H2349 H 0.49104 0.32505 0.37286 0.0
H2350 H 0.57007 0.23396 0.35338 0.0
H2351 H 0.53777 0.25778 0.36577 0.0
H2352 H 0.54135 0.29744 0.4417 0.0
C2353 C 0.46685 0.33403 0.4447 0.0
C2354 C 0.50189 0.31949 0.38817 0.0
C2355 C 0.4476 0.34629 0.45125 0.0
C2356 C 0.5713 0.24861 0.36814 0.0
C2357 C 0.55288 0.2624 0.3751 0.0
C2358 C 0.53055 0.30362 0.42651 0.0
C2359 C 0.47719 0.33939 0.42116 0.0
C2360 C 0.49749 0.32573 0.414 0.0
C2361 C 0.55404 0.28195 0.39378 0.0
C2362 C 0.53461 0.29701 0.40077 0.0
H2363 H 0.44077 0.38242 0.39709 0.0
H2364 H 0.47507 0.36226 0.38615 0.0
H2365 H 0.50986 0.3228 0.45307 0.0
H2366 H 0.60798 0.27966 0.40597 0.0
H2367 H 0.57554 0.30269 0.41942 0.0
loop_
_geom_bond_atom_site_label_1
_geom_bond_atom_site_label_2
_geom_bond_distance
_geom_bond_site_symmetry_2
_ccdc_geom_bond_type
C0 O1 1.306 . S
C0 O3 1.160 . S
O1 C0 1.306 . S
O1 Cd2 2.228 . S
Cd2 O1 2.228 . S
Cd2 O6 2.273 . S
Cd2 O10 2.277 . S
O3 C0 1.160 . S
O3 Cd4 2.203 . S
Cd4 O3 2.203 . S
Cd4 O6 2.411 . S
Cd4 O7 2.333 . S
Cd4 O8 2.352 . S
Cd4 O12 2.277 . S
Cd4 O13 2.356 . S
C5 O10 1.209 . S
C5 O12 1.226 . S
O6 Cd2 2.273 . S
O6 Cd4 2.411 . S
O6 C9 1.320 . S
O7 Cd4 2.333 . S
O7 C9 1.214 . S
O8 Cd4 2.352 . S
O8 C11 1.258 . S
C9 O6 1.320 . S
C9 O7 1.214 . S
O10 Cd2 2.277 . S
O10 C5 1.209 . S
C11 O8 1.258 . S
C11 O13 1.282 . S
O12 Cd4 2.277 . S
O12 C5 1.226 . S
O13 Cd4 2.356 . S
O13 C11 1.282 . S
C14 O15 1.306 . S
C14 O17 1.160 . S
O15 C14 1.306 . S
O15 Cd16 2.228 . S
Cd16 O15 2.228 . S
Cd16 O20 2.273 . S
Cd16 O24 2.277 . S
O17 C14 1.160 . S
O17 Cd18 2.203 . S
Cd18 O17 2.203 . S
Cd18 O20 2.411 . S
Cd18 O21 2.333 . S
Cd18 O22 2.352 . S
Cd18 O26 2.277 . S
Cd18 O27 2.356 . S
C19 O24 1.209 . S
C19 O26 1.226 . S
O20 Cd16 2.273 . S
O20 Cd18 2.411 . S
O20 C23 1.320 . S
O21 Cd18 2.333 . S
O21 C23 1.214 . S
O22 Cd18 2.352 . S
O22 C25 1.258 . S
C23 O20 1.320 . S
C23 O21 1.214 . S
O24 Cd16 2.277 . S
O24 C19 1.209 . S
C25 O22 1.258 . S
C25 O27 1.282 . S
O26 Cd18 2.277 . S
O26 C19 1.226 . S
O27 Cd18 2.356 . S
O27 C25 1.282 . S
C28 O29 1.306 . S
C28 O31 1.160 . S
O29 C28 1.306 . S
O29 Cd30 2.228 . S
Cd30 O29 2.228 . S
Cd30 O34 2.273 . S
Cd30 O38 2.277 . S
O31 C28 1.160 . S
O31 Cd32 2.203 . S
Cd32 O31 2.203 . S
Cd32 O34 2.411 . S
Cd32 O35 2.333 . S
Cd32 O36 2.352 . S
Cd32 O40 2.277 . S
Cd32 O41 2.356 . S
C33 O38 1.209 . S
C33 O40 1.226 . S
O34 Cd30 2.273 . S
O34 Cd32 2.411 . S
O34 C37 1.320 . S
O35 Cd32 2.333 . S
O35 C37 1.214 . S
O36 Cd32 2.352 . S
O36 C39 1.258 . S
C37 O34 1.320 . S
C37 O35 1.214 . S
O38 Cd30 2.277 . S
O38 C33 1.209 . S
C39 O36 1.258 . S
C39 O41 1.282 . S
O40 Cd32 2.277 . S
O40 C33 1.226 . S
O41 Cd32 2.356 . S
O41 C39 1.282 . S
C42 O43 1.306 . S
C42 O45 1.160 . S
O43 C42 1.306 . S
O43 Cd44 2.228 . S
Cd44 O43 2.228 . S
Cd44 O48 2.273 . S
Cd44 O52 2.277 . S
O45 C42 1.160 . S
O45 Cd46 2.203 . S
Cd46 O45 2.203 . S
Cd46 O48 2.411 . S
Cd46 O49 2.333 . S
Cd46 O50 2.352 . S
Cd46 O54 2.277 . S
Cd46 O55 2.356 . S
C47 O52 1.209 . S
C47 O54 1.226 . S
O48 Cd44 2.273 . S
O48 Cd46 2.411 . S
O48 C51 1.320 . S
O49 Cd46 2.333 . S
O49 C51 1.214 . S
O50 Cd46 2.352 . S
O50 C53 1.258 . S
C51 O48 1.320 . S
C51 O49 1.214 . S
O52 Cd44 2.277 . S
O52 C47 1.209 . S
C53 O50 1.258 . S
C53 O55 1.282 . S
O54 Cd46 2.277 . S
O54 C47 1.226 . S
O55 Cd46 2.356 . S
O55 C53 1.282 . S
C56 O57 1.306 . S
C56 O59 1.160 . S
O57 C56 1.306 . S
O57 Cd58 2.228 . S
Cd58 O57 2.228 . S
Cd58 O62 2.273 . S
Cd58 O66 2.277 . S
O59 C56 1.160 . S
O59 Cd60 2.203 . S
Cd60 O59 2.203 . S
Cd60 O62 2.411 . S
Cd60 O63 2.333 . S
Cd60 O64 2.352 . S
Cd60 O68 2.277 . S
Cd60 O69 2.356 . S
C61 O66 1.209 . S
C61 O68 1.226 . S
O62 Cd58 2.273 . S
O62 Cd60 2.411 . S
O62 C65 1.320 . S
O63 Cd60 2.333 . S
O63 C65 1.214 . S
O64 Cd60 2.352 . S
O64 C67 1.258 . S
C65 O62 1.320 . S
C65 O63 1.214 . S
O66 Cd58 2.277 . S
O66 C61 1.209 . S
C67 O64 1.258 . S
C67 O69 1.282 . S
O68 Cd60 2.277 . S
O68 C61 1.226 . S
O69 Cd60 2.356 . S
O69 C67 1.282 . S
C70 O71 1.306 . S
C70 O73 1.160 . S
O71 C70 1.306 . S
O71 Cd72 2.228 . S
Cd72 O71 2.228 . S
Cd72 O76 2.273 . S
Cd72 O80 2.277 . S
O73 C70 1.160 . S
O73 Cd74 2.203 . S
Cd74 O73 2.203 . S
Cd74 O76 2.411 . S
Cd74 O77 2.333 . S
Cd74 O78 2.352 . S
Cd74 O82 2.277 . S
Cd74 O83 2.356 . S
C75 O80 1.209 . S
C75 O82 1.226 . S
O76 Cd72 2.273 . S
O76 Cd74 2.411 . S
O76 C79 1.320 . S
O77 Cd74 2.333 . S
O77 C79 1.214 . S
O78 Cd74 2.352 . S
O78 C81 1.258 . S
C79 O76 1.320 . S
C79 O77 1.214 . S
O80 Cd72 2.277 . S
O80 C75 1.209 . S
C81 O78 1.258 . S
C81 O83 1.282 . S
O82 Cd74 2.277 . S
O82 C75 1.226 . S
O83 Cd74 2.356 . S
O83 C81 1.282 . S
C84 O85 1.306 . S
C84 O87 1.160 . S
O85 C84 1.306 . S
O85 Cd86 2.228 . S
Cd86 O85 2.228 . S
Cd86 O90 2.273 . S
Cd86 O94 2.277 . S
O87 C84 1.160 . S
O87 Cd88 2.203 . S
Cd88 O87 2.203 . S
Cd88 O90 2.411 . S
Cd88 O91 2.333 . S
Cd88 O92 2.352 . S
Cd88 O96 2.277 . S
Cd88 O97 2.356 . S
C89 O94 1.209 . S
C89 O96 1.226 . S
O90 Cd86 2.273 . S
O90 Cd88 2.411 . S
O90 C93 1.320 . S
O91 Cd88 2.333 . S
O91 C93 1.214 . S
O92 Cd88 2.352 . S
O92 C95 1.258 . S
C93 O90 1.320 . S
C93 O91 1.214 . S
O94 Cd86 2.277 . S
O94 C89 1.209 . S
C95 O92 1.258 . S
C95 O97 1.282 . S
O96 Cd88 2.277 . S
O96 C89 1.226 . S
O97 Cd88 2.356 . S
O97 C95 1.282 . S
C98 O99 1.306 . S
C98 O101 1.160 . S
O99 C98 1.306 . S
O99 Cd100 2.228 . S
Cd100 O99 2.228 . S
Cd100 O104 2.273 . S
Cd100 O108 2.277 . S
O101 C98 1.160 . S
O101 Cd102 2.203 . S
Cd102 O101 2.203 . S
Cd102 O104 2.411 . S
Cd102 O105 2.333 . S
Cd102 O106 2.352 . S
Cd102 O110 2.277 . S
Cd102 O111 2.356 . S
C103 O108 1.209 . S
C103 O110 1.226 . S
O104 Cd100 2.273 . S
O104 Cd102 2.411 . S
O104 C107 1.320 . S
O105 Cd102 2.333 . S
O105 C107 1.214 . S
O106 Cd102 2.352 . S
O106 C109 1.258 . S
C107 O104 1.320 . S
C107 O105 1.214 . S
O108 Cd100 2.277 . S
O108 C103 1.209 . S
C109 O106 1.258 . S
C109 O111 1.282 . S
O110 Cd102 2.277 . S
O110 C103 1.226 . S
O111 Cd102 2.356 . S
O111 C109 1.282 . S
C112 O113 1.306 . S
C112 O115 1.160 . S
O113 C112 1.306 . S
O113 Cd114 2.228 . S
Cd114 O113 2.228 . S
Cd114 O118 2.273 . S
Cd114 O122 2.277 . S
O115 C112 1.160 . S
O115 Cd116 2.203 . S
Cd116 O115 2.203 . S
Cd116 O118 2.411 . S
Cd116 O119 2.333 . S
Cd116 O120 2.352 . S
Cd116 O124 2.277 . S
Cd116 O125 2.356 . S
C117 O122 1.209 . S
C117 O124 1.226 . S
O118 Cd114 2.273 . S
O118 Cd116 2.411 . S
O118 C121 1.320 . S
O119 Cd116 2.333 . S
O119 C121 1.214 . S
O120 Cd116 2.352 . S
O120 C123 1.258 . S
C121 O118 1.320 . S
C121 O119 1.214 . S
O122 Cd114 2.277 . S
O122 C117 1.209 . S
C123 O120 1.258 . S
C123 O125 1.282 . S
O124 Cd116 2.277 . S
O124 C117 1.226 . S
O125 Cd116 2.356 . S
O125 C123 1.282 . S
C126 O127 1.306 . S
C126 O129 1.160 . S
O127 C126 1.306 . S
O127 Cd128 2.228 . S
Cd128 O127 2.228 . S
Cd128 O132 2.273 . S
Cd128 O136 2.277 . S
O129 C126 1.160 . S
O129 Cd130 2.203 . S
Cd130 O129 2.203 . S
Cd130 O132 2.411 . S
Cd130 O133 2.333 . S
Cd130 O134 2.352 . S
Cd130 O138 2.277 . S
Cd130 O139 2.356 . S
C131 O136 1.209 . S
C131 O138 1.226 . S
O132 Cd128 2.273 . S
O132 Cd130 2.411 . S
O132 C135 1.320 . S
O133 Cd130 2.333 . S
O133 C135 1.214 . S
O134 Cd130 2.352 . S
O134 C137 1.258 . S
C135 O132 1.320 . S
C135 O133 1.214 . S
O136 Cd128 2.277 . S
O136 C131 1.209 . S
C137 O134 1.258 . S
C137 O139 1.282 . S
O138 Cd130 2.277 . S
O138 C131 1.226 . S
O139 Cd130 2.356 . S
O139 C137 1.282 . S
C140 O141 1.306 . S
C140 O143 1.160 . S
O141 C140 1.306 . S
O141 Cd142 2.228 . S
Cd142 O141 2.228 . S
Cd142 O146 2.273 . S
Cd142 O150 2.277 . S
O143 C140 1.160 . S
O143 Cd144 2.203 . S
Cd144 O143 2.203 . S
Cd144 O146 2.411 . S
Cd144 O147 2.333 . S
Cd144 O148 2.352 . S
Cd144 O152 2.277 . S
Cd144 O153 2.356 . S
C145 O150 1.209 . S
C145 O152 1.226 . S
O146 Cd142 2.273 . S
O146 Cd144 2.411 . S
O146 C149 1.320 . S
O147 Cd144 2.333 . S
O147 C149 1.214 . S
O148 Cd144 2.352 . S
O148 C151 1.258 . S
C149 O146 1.320 . S
C149 O147 1.214 . S
O150 Cd142 2.277 . S
O150 C145 1.209 . S
C151 O148 1.258 . S
C151 O153 1.282 . S
O152 Cd144 2.277 . S
O152 C145 1.226 . S
O153 Cd144 2.356 . S
O153 C151 1.282 . S
C154 O155 1.306 . S
C154 O157 1.160 . S
O155 C154 1.306 . S
O155 Cd156 2.228 . S
Cd156 O155 2.228 . S
Cd156 O160 2.273 . S
Cd156 O164 2.277 . S
O157 C154 1.160 . S
O157 Cd158 2.203 . S
Cd158 O157 2.203 . S
Cd158 O160 2.411 . S
Cd158 O161 2.333 . S
Cd158 O162 2.352 . S
Cd158 O166 2.277 . S
Cd158 O167 2.356 . S
C159 O164 1.209 . S
C159 O166 1.226 . S
O160 Cd156 2.273 . S
O160 Cd158 2.411 . S
O160 C163 1.320 . S
O161 Cd158 2.333 . S
O161 C163 1.214 . S
O162 Cd158 2.352 . S
O162 C165 1.258 . S
C163 O160 1.320 . S
C163 O161 1.214 . S
O164 Cd156 2.277 . S
O164 C159 1.209 . S
C165 O162 1.258 . S
C165 O167 1.282 . S
O166 Cd158 2.277 . S
O166 C159 1.226 . S
O167 Cd158 2.356 . S
O167 C165 1.282 . S
C168 O169 1.306 . S
C168 O171 1.160 . S
O169 C168 1.306 . S
O169 Cd170 2.228 . S
Cd170 O169 2.228 . S
Cd170 O174 2.273 . S
Cd170 O178 2.277 . S
O171 C168 1.160 . S
O171 Cd172 2.203 . S
Cd172 O171 2.203 . S
Cd172 O174 2.411 . S
Cd172 O175 2.333 . S
Cd172 O176 2.352 . S
Cd172 O180 2.277 . S
Cd172 O181 2.356 . S
C173 O178 1.209 . S
C173 O180 1.226 . S
O174 Cd170 2.273 . S
O174 Cd172 2.411 . S
O174 C177 1.320 . S
O175 Cd172 2.333 . S
O175 C177 1.214 . S
O176 Cd172 2.352 . S
O176 C179 1.258 . S
C177 O174 1.320 . S
C177 O175 1.214 . S
O178 Cd170 2.277 . S
O178 C173 1.209 . S
C179 O176 1.258 . S
C179 O181 1.282 . S
O180 Cd172 2.277 . S
O180 C173 1.226 . S
O181 Cd172 2.356 . S
O181 C179 1.282 . S
C182 O183 1.306 . S
C182 O185 1.160 . S
O183 C182 1.306 . S
O183 Cd184 2.228 . S
Cd184 O183 2.228 . S
Cd184 O188 2.273 . S
Cd184 O192 2.277 . S
O185 C182 1.160 . S
O185 Cd186 2.203 . S
Cd186 O185 2.203 . S
Cd186 O188 2.411 . S
Cd186 O189 2.333 . S
Cd186 O190 2.352 . S
Cd186 O194 2.277 . S
Cd186 O195 2.356 . S
C187 O192 1.209 . S
C187 O194 1.226 . S
O188 Cd184 2.273 . S
O188 Cd186 2.411 . S
O188 C191 1.320 . S
O189 Cd186 2.333 . S
O189 C191 1.214 . S
O190 Cd186 2.352 . S
O190 C193 1.258 . S
C191 O188 1.320 . S
C191 O189 1.214 . S
O192 Cd184 2.277 . S
O192 C187 1.209 . S
C193 O190 1.258 . S
C193 O195 1.282 . S
O194 Cd186 2.277 . S
O194 C187 1.226 . S
O195 Cd186 2.356 . S
O195 C193 1.282 . S
C196 O197 1.306 . S
C196 O199 1.160 . S
O197 C196 1.306 . S
O197 Cd198 2.228 . S
Cd198 O197 2.228 . S
Cd198 O202 2.273 . S
Cd198 O206 2.277 . S
O199 C196 1.160 . S
O199 Cd200 2.203 . S
Cd200 O199 2.203 . S
Cd200 O202 2.411 . S
Cd200 O203 2.333 . S
Cd200 O204 2.352 . S
Cd200 O208 2.277 . S
Cd200 O209 2.356 . S
C201 O206 1.209 . S
C201 O208 1.226 . S
O202 Cd198 2.273 . S
O202 Cd200 2.411 . S
O202 C205 1.320 . S
O203 Cd200 2.333 . S
O203 C205 1.214 . S
O204 Cd200 2.352 . S
O204 C207 1.258 . S
C205 O202 1.320 . S
C205 O203 1.214 . S
O206 Cd198 2.277 . S
O206 C201 1.209 . S
C207 O204 1.258 . S
C207 O209 1.282 . S
O208 Cd200 2.277 . S
O208 C201 1.226 . S
O209 Cd200 2.356 . S
O209 C207 1.282 . S
C210 O211 1.306 . S
C210 O213 1.160 . S
O211 C210 1.306 . S
O211 Cd212 2.228 . S
Cd212 O211 2.228 . S
Cd212 O216 2.273 . S
Cd212 O220 2.277 . S
O213 C210 1.160 . S
O213 Cd214 2.203 . S
Cd214 O213 2.203 . S
Cd214 O216 2.411 . S
Cd214 O217 2.333 . S
Cd214 O218 2.352 . S
Cd214 O222 2.277 . S
Cd214 O223 2.356 . S
C215 O220 1.209 . S
C215 O222 1.226 . S
O216 Cd212 2.273 . S
O216 Cd214 2.411 . S
O216 C219 1.320 . S
O217 Cd214 2.333 . S
O217 C219 1.214 . S
O218 Cd214 2.352 . S
O218 C221 1.258 . S
C219 O216 1.320 . S
C219 O217 1.214 . S
O220 Cd212 2.277 . S
O220 C215 1.209 . S
C221 O218 1.258 . S
C221 O223 1.282 . S
O222 Cd214 2.277 . S
O222 C215 1.226 . S
O223 Cd214 2.356 . S
O223 C221 1.282 . S
C224 O225 1.306 . S
C224 O227 1.160 . S
O225 C224 1.306 . S
O225 Cd226 2.228 . S
Cd226 O225 2.228 . S
Cd226 O230 2.273 . S
Cd226 O234 2.277 . S
O227 C224 1.160 . S
O227 Cd228 2.203 . S
Cd228 O227 2.203 . S
Cd228 O230 2.411 . S
Cd228 O231 2.333 . S
Cd228 O232 2.352 . S
Cd228 O236 2.277 . S
Cd228 O237 2.356 . S
C229 O234 1.209 . S
C229 O236 1.226 . S
O230 Cd226 2.273 . S
O230 Cd228 2.411 . S
O230 C233 1.320 . S
O231 Cd228 2.333 . S
O231 C233 1.214 . S
O232 Cd228 2.352 . S
O232 C235 1.258 . S
C233 O230 1.320 . S
C233 O231 1.214 . S
O234 Cd226 2.277 . S
O234 C229 1.209 . S
C235 O232 1.258 . S
C235 O237 1.282 . S
O236 Cd228 2.277 . S
O236 C229 1.226 . S
O237 Cd228 2.356 . S
O237 C235 1.282 . S
C238 O239 1.306 . S
C238 O241 1.160 . S
O239 C238 1.306 . S
O239 Cd240 2.228 . S
Cd240 O239 2.228 . S
Cd240 O244 2.273 . S
Cd240 O248 2.277 . S
O241 C238 1.160 . S
O241 Cd242 2.203 . S
Cd242 O241 2.203 . S
Cd242 O244 2.411 . S
Cd242 O245 2.333 . S
Cd242 O246 2.352 . S
Cd242 O250 2.277 . S
Cd242 O251 2.356 . S
C243 O248 1.209 . S
C243 O250 1.226 . S
O244 Cd240 2.273 . S
O244 Cd242 2.411 . S
O244 C247 1.320 . S
O245 Cd242 2.333 . S
O245 C247 1.214 . S
O246 Cd242 2.352 . S
O246 C249 1.258 . S
C247 O244 1.320 . S
C247 O245 1.214 . S
O248 Cd240 2.277 . S
O248 C243 1.209 . S
C249 O246 1.258 . S
C249 O251 1.282 . S
O250 Cd242 2.277 . S
O250 C243 1.226 . S
O251 Cd242 2.356 . S
O251 C249 1.282 . S
C252 O253 1.306 . S
C252 O255 1.160 . S
O253 C252 1.306 . S
O253 Cd254 2.228 . S
Cd254 O253 2.228 . S
Cd254 O258 2.273 . S
Cd254 O262 2.277 . S
O255 C252 1.160 . S
O255 Cd256 2.203 . S
Cd256 O255 2.203 . S
Cd256 O258 2.411 . S
Cd256 O259 2.333 . S
Cd256 O260 2.352 . S
Cd256 O264 2.277 . S
Cd256 O265 2.356 . S
C257 O262 1.209 . S
C257 O264 1.226 . S
O258 Cd254 2.273 . S
O258 Cd256 2.411 . S
O258 C261 1.320 . S
O259 Cd256 2.333 . S
O259 C261 1.214 . S
O260 Cd256 2.352 . S
O260 C263 1.258 . S
C261 O258 1.320 . S
C261 O259 1.214 . S
O262 Cd254 2.277 . S
O262 C257 1.209 . S
C263 O260 1.258 . S
C263 O265 1.282 . S
O264 Cd256 2.277 . S
O264 C257 1.226 . S
O265 Cd256 2.356 . S
O265 C263 1.282 . S
C266 O267 1.306 . S
C266 O269 1.160 . S
O267 C266 1.306 . S
O267 Cd268 2.228 . S
Cd268 O267 2.228 . S
Cd268 O272 2.273 . S
Cd268 O276 2.277 . S
O269 C266 1.160 . S
O269 Cd270 2.203 . S
Cd270 O269 2.203 . S
Cd270 O272 2.411 . S
Cd270 O273 2.333 . S
Cd270 O274 2.352 . S
Cd270 O278 2.277 . S
Cd270 O279 2.356 . S
C271 O276 1.209 . S
C271 O278 1.226 . S
O272 Cd268 2.273 . S
O272 Cd270 2.411 . S
O272 C275 1.320 . S
O273 Cd270 2.333 . S
O273 C275 1.214 . S
O274 Cd270 2.352 . S
O274 C277 1.258 . S
C275 O272 1.320 . S
C275 O273 1.214 . S
O276 Cd268 2.277 . S
O276 C271 1.209 . S
C277 O274 1.258 . S
C277 O279 1.282 . S
O278 Cd270 2.277 . S
O278 C271 1.226 . S
O279 Cd270 2.356 . S
O279 C277 1.282 . S
C280 O281 1.306 . S
C280 O283 1.160 . S
O281 C280 1.306 . S
O281 Cd282 2.228 . S
Cd282 O281 2.228 . S
Cd282 O286 2.273 . S
Cd282 O290 2.277 . S
O283 C280 1.160 . S
O283 Cd284 2.203 . S
Cd284 O283 2.203 . S
Cd284 O286 2.411 . S
Cd284 O287 2.333 . S
Cd284 O288 2.352 . S
Cd284 O292 2.277 . S
Cd284 O293 2.356 . S
C285 O290 1.209 . S
C285 O292 1.226 . S
O286 Cd282 2.273 . S
O286 Cd284 2.411 . S
O286 C289 1.320 . S
O287 Cd284 2.333 . S
O287 C289 1.214 . S
O288 Cd284 2.352 . S
O288 C291 1.258 . S
C289 O286 1.320 . S
C289 O287 1.214 . S
O290 Cd282 2.277 . S
O290 C285 1.209 . S
C291 O288 1.258 . S
C291 O293 1.282 . S
O292 Cd284 2.277 . S
O292 C285 1.226 . S
O293 Cd284 2.356 . S
O293 C291 1.282 . S
C294 O295 1.306 . S
C294 O297 1.160 . S
O295 C294 1.306 . S
O295 Cd296 2.228 . S
Cd296 O295 2.228 . S
Cd296 O300 2.273 . S
Cd296 O304 2.277 . S
O297 C294 1.160 . S
O297 Cd298 2.203 . S
Cd298 O297 2.203 . S
Cd298 O300 2.411 . S
Cd298 O301 2.333 . S
Cd298 O302 2.352 . S
Cd298 O306 2.277 . S
Cd298 O307 2.356 . S
C299 O304 1.209 . S
C299 O306 1.226 . S
O300 Cd296 2.273 . S
O300 Cd298 2.411 . S
O300 C303 1.320 . S
O301 Cd298 2.333 . S
O301 C303 1.214 . S
O302 Cd298 2.352 . S
O302 C305 1.258 . S
C303 O300 1.320 . S
C303 O301 1.214 . S
O304 Cd296 2.277 . S
O304 C299 1.209 . S
C305 O302 1.258 . S
C305 O307 1.282 . S
O306 Cd298 2.277 . S
O306 C299 1.226 . S
O307 Cd298 2.356 . S
O307 C305 1.282 . S
C308 O309 1.306 . S
C308 O311 1.160 . S
O309 C308 1.306 . S
O309 Cd310 2.228 . S
Cd310 O309 2.228 . S
Cd310 O314 2.273 . S
Cd310 O318 2.277 . S
O311 C308 1.160 . S
O311 Cd312 2.203 . S
Cd312 O311 2.203 . S
Cd312 O314 2.411 . S
Cd312 O315 2.333 . S
Cd312 O316 2.352 . S
Cd312 O320 2.277 . S
Cd312 O321 2.356 . S
C313 O318 1.209 . S
C313 O320 1.226 . S
O314 Cd310 2.273 . S
O314 Cd312 2.411 . S
O314 C317 1.320 . S
O315 Cd312 2.333 . S
O315 C317 1.214 . S
O316 Cd312 2.352 . S
O316 C319 1.258 . S
C317 O314 1.320 . S
C317 O315 1.214 . S
O318 Cd310 2.277 . S
O318 C313 1.209 . S
C319 O316 1.258 . S
C319 O321 1.282 . S
O320 Cd312 2.277 . S
O320 C313 1.226 . S
O321 Cd312 2.356 . S
O321 C319 1.282 . S
C322 O323 1.306 . S
C322 O325 1.160 . S
O323 C322 1.306 . S
O323 Cd324 2.228 . S
Cd324 O323 2.228 . S
Cd324 O328 2.273 . S
Cd324 O332 2.277 . S
O325 C322 1.160 . S
O325 Cd326 2.203 . S
Cd326 O325 2.203 . S
Cd326 O328 2.411 . S
Cd326 O329 2.333 . S
Cd326 O330 2.352 . S
Cd326 O334 2.277 . S
Cd326 O335 2.356 . S
C327 O332 1.209 . S
C327 O334 1.226 . S
O328 Cd324 2.273 . S
O328 Cd326 2.411 . S
O328 C331 1.320 . S
O329 Cd326 2.333 . S
O329 C331 1.214 . S
O330 Cd326 2.352 . S
O330 C333 1.258 . S
C331 O328 1.320 . S
C331 O329 1.214 . S
O332 Cd324 2.277 . S
O332 C327 1.209 . S
C333 O330 1.258 . S
C333 O335 1.282 . S
O334 Cd326 2.277 . S
O334 C327 1.226 . S
O335 Cd326 2.356 . S
O335 C333 1.282 . S
C336 O337 1.306 . S
C336 O339 1.160 . S
O337 C336 1.306 . S
O337 Cd338 2.228 . S
Cd338 O337 2.228 . S
Cd338 O342 2.273 . S
Cd338 O346 2.277 . S
O339 C336 1.160 . S
O339 Cd340 2.203 . S
Cd340 O339 2.203 . S
Cd340 O342 2.411 . S
Cd340 O343 2.333 . S
Cd340 O344 2.352 . S
Cd340 O348 2.277 . S
Cd340 O349 2.356 . S
C341 O346 1.209 . S
C341 O348 1.226 . S
O342 Cd338 2.273 . S
O342 Cd340 2.411 . S
O342 C345 1.320 . S
O343 Cd340 2.333 . S
O343 C345 1.214 . S
O344 Cd340 2.352 . S
O344 C347 1.258 . S
C345 O342 1.320 . S
C345 O343 1.214 . S
O346 Cd338 2.277 . S
O346 C341 1.209 . S
C347 O344 1.258 . S
C347 O349 1.282 . S
O348 Cd340 2.277 . S
O348 C341 1.226 . S
O349 Cd340 2.356 . S
O349 C347 1.282 . S
C350 O351 1.306 . S
C350 O353 1.160 . S
O351 C350 1.306 . S
O351 Cd352 2.228 . S
Cd352 O351 2.228 . S
Cd352 O356 2.273 . S
Cd352 O360 2.277 . S
O353 C350 1.160 . S
O353 Cd354 2.203 . S
Cd354 O353 2.203 . S
Cd354 O356 2.411 . S
Cd354 O357 2.333 . S
Cd354 O358 2.352 . S
Cd354 O362 2.277 . S
Cd354 O363 2.356 . S
C355 O360 1.209 . S
C355 O362 1.226 . S
O356 Cd352 2.273 . S
O356 Cd354 2.411 . S
O356 C359 1.320 . S
O357 Cd354 2.333 . S
O357 C359 1.214 . S
O358 Cd354 2.352 . S
O358 C361 1.258 . S
C359 O356 1.320 . S
C359 O357 1.214 . S
O360 Cd352 2.277 . S
O360 C355 1.209 . S
C361 O358 1.258 . S
C361 O363 1.282 . S
O362 Cd354 2.277 . S
O362 C355 1.226 . S
O363 Cd354 2.356 . S
O363 C361 1.282 . S
C364 O365 1.306 . S
C364 O367 1.160 . S
O365 C364 1.306 . S
O365 Cd366 2.228 . S
Cd366 O365 2.228 . S
Cd366 O370 2.273 . S
Cd366 O374 2.277 . S
O367 C364 1.160 . S
O367 Cd368 2.203 . S
Cd368 O367 2.203 . S
Cd368 O370 2.411 . S
Cd368 O371 2.333 . S
Cd368 O372 2.352 . S
Cd368 O376 2.277 . S
Cd368 O377 2.356 . S
C369 O374 1.209 . S
C369 O376 1.226 . S
O370 Cd366 2.273 . S
O370 Cd368 2.411 . S
O370 C373 1.320 . S
O371 Cd368 2.333 . S
O371 C373 1.214 . S
O372 Cd368 2.352 . S
O372 C375 1.258 . S
C373 O370 1.320 . S
C373 O371 1.214 . S
O374 Cd366 2.277 . S
O374 C369 1.209 . S
C375 O372 1.258 . S
C375 O377 1.282 . S
O376 Cd368 2.277 . S
O376 C369 1.226 . S
O377 Cd368 2.356 . S
O377 C375 1.282 . S
C378 O379 1.306 . S
C378 O381 1.160 . S
O379 C378 1.306 . S
O379 Cd380 2.228 . S
Cd380 O379 2.228 . S
Cd380 O384 2.273 . S
Cd380 O388 2.277 . S
O381 C378 1.160 . S
O381 Cd382 2.203 . S
Cd382 O381 2.203 . S
Cd382 O384 2.411 . S
Cd382 O385 2.333 . S
Cd382 O386 2.352 . S
Cd382 O390 2.277 . S
Cd382 O391 2.356 . S
C383 O388 1.209 . S
C383 O390 1.226 . S
O384 Cd380 2.273 . S
O384 Cd382 2.411 . S
O384 C387 1.320 . S
O385 Cd382 2.333 . S
O385 C387 1.214 . S
O386 Cd382 2.352 . S
O386 C389 1.258 . S
C387 O384 1.320 . S
C387 O385 1.214 . S
O388 Cd380 2.277 . S
O388 C383 1.209 . S
C389 O386 1.258 . S
C389 O391 1.282 . S
O390 Cd382 2.277 . S
O390 C383 1.226 . S
O391 Cd382 2.356 . S
O391 C389 1.282 . S
C392 O393 1.306 . S
C392 O395 1.160 . S
O393 C392 1.306 . S
O393 Cd394 2.228 . S
Cd394 O393 2.228 . S
Cd394 O398 2.273 . S
Cd394 O402 2.277 . S
O395 C392 1.160 . S
O395 Cd396 2.203 . S
Cd396 O395 2.203 . S
Cd396 O398 2.411 . S
Cd396 O399 2.333 . S
Cd396 O400 2.352 . S
Cd396 O404 2.277 . S
Cd396 O405 2.356 . S
C397 O402 1.209 . S
C397 O404 1.226 . S
O398 Cd394 2.273 . S
O398 Cd396 2.411 . S
O398 C401 1.320 . S
O399 Cd396 2.333 . S
O399 C401 1.214 . S
O400 Cd396 2.352 . S
O400 C403 1.258 . S
C401 O398 1.320 . S
C401 O399 1.214 . S
O402 Cd394 2.277 . S
O402 C397 1.209 . S
C403 O400 1.258 . S
C403 O405 1.282 . S
O404 Cd396 2.277 . S
O404 C397 1.226 . S
O405 Cd396 2.356 . S
O405 C403 1.282 . S
C406 O407 1.306 . S
C406 O409 1.160 . S
O407 C406 1.306 . S
O407 Cd408 2.228 . S
Cd408 O407 2.228 . S
Cd408 O412 2.273 . S
Cd408 O416 2.277 . S
O409 C406 1.160 . S
O409 Cd410 2.203 . S
Cd410 O409 2.203 . S
Cd410 O412 2.411 . S
Cd410 O413 2.333 . S
Cd410 O414 2.352 . S
Cd410 O418 2.277 . S
Cd410 O419 2.356 . S
C411 O416 1.209 . S
C411 O418 1.226 . S
O412 Cd408 2.273 . S
O412 Cd410 2.411 . S
O412 C415 1.320 . S
O413 Cd410 2.333 . S
O413 C415 1.214 . S
O414 Cd410 2.352 . S
O414 C417 1.258 . S
C415 O412 1.320 . S
C415 O413 1.214 . S
O416 Cd408 2.277 . S
O416 C411 1.209 . S
C417 O414 1.258 . S
C417 O419 1.282 . S
O418 Cd410 2.277 . S
O418 C411 1.226 . S
O419 Cd410 2.356 . S
O419 C417 1.282 . S
C420 O421 1.306 . S
C420 O423 1.160 . S
O421 C420 1.306 . S
O421 Cd422 2.228 . S
Cd422 O421 2.228 . S
Cd422 O426 2.273 . S
Cd422 O430 2.277 . S
O423 C420 1.160 . S
O423 Cd424 2.203 . S
Cd424 O423 2.203 . S
Cd424 O426 2.411 . S
Cd424 O427 2.333 . S
Cd424 O428 2.352 . S
Cd424 O432 2.277 . S
Cd424 O433 2.356 . S
C425 O430 1.209 . S
C425 O432 1.226 . S
O426 Cd422 2.273 . S
O426 Cd424 2.411 . S
O426 C429 1.320 . S
O427 Cd424 2.333 . S
O427 C429 1.214 . S
O428 Cd424 2.352 . S
O428 C431 1.258 . S
C429 O426 1.320 . S
C429 O427 1.214 . S
O430 Cd422 2.277 . S
O430 C425 1.209 . S
C431 O428 1.258 . S
C431 O433 1.282 . S
O432 Cd424 2.277 . S
O432 C425 1.226 . S
O433 Cd424 2.356 . S
O433 C431 1.282 . S
C434 O435 1.306 . S
C434 O437 1.160 . S
O435 C434 1.306 . S
O435 Cd436 2.228 . S
Cd436 O435 2.228 . S
Cd436 O440 2.273 . S
Cd436 O444 2.277 . S
O437 C434 1.160 . S
O437 Cd438 2.203 . S
Cd438 O437 2.203 . S
Cd438 O440 2.411 . S
Cd438 O441 2.333 . S
Cd438 O442 2.352 . S
Cd438 O446 2.277 . S
Cd438 O447 2.356 . S
C439 O444 1.209 . S
C439 O446 1.226 . S
O440 Cd436 2.273 . S
O440 Cd438 2.411 . S
O440 C443 1.320 . S
O441 Cd438 2.333 . S
O441 C443 1.214 . S
O442 Cd438 2.352 . S
O442 C445 1.258 . S
C443 O440 1.320 . S
C443 O441 1.214 . S
O444 Cd436 2.277 . S
O444 C439 1.209 . S
C445 O442 1.258 . S
C445 O447 1.282 . S
O446 Cd438 2.277 . S
O446 C439 1.226 . S
O447 Cd438 2.356 . S
O447 C445 1.282 . S
C448 C449 1.349 . S
C448 C450 1.327 . S
C448 H473 0.950 . S
C449 C448 1.349 . S
C449 C465 1.349 . S
C450 C448 1.327 . S
C450 C469 1.429 . S
C450 H474 0.950 . S
C451 C468 1.574 1_545 S
C451 C470 1.368 1_655 S
C451 H475 0.949 . S
H452 C456 0.949 . S
C453 C454 1.349 . S
C453 C455 1.327 . S
C453 H476 0.950 . S
C454 C453 1.349 . S
C454 C466 1.349 . S
C455 C453 1.327 . S
C455 C471 1.429 . S
C455 H477 0.950 . S
C456 H452 0.949 . S
C456 C464 1.579 1_556 S
C456 C472 1.368 1_455 S
H457 C465 0.950 . S
H458 C463 0.950 1_655 S
H459 C464 0.944 1_546 S
H460 C466 0.950 . S
H461 C467 0.950 . S
H462 C468 0.949 . S
C463 H458 0.950 1_455 S
C463 C465 1.327 . S
C463 C469 1.429 . S
C464 C456 1.579 1_554 S
C464 H459 0.944 1_564 S
C464 C470 1.371 1_565 S
C465 C449 1.349 . S
C465 H457 0.950 . S
C465 C463 1.327 . S
C466 C454 1.349 . S
C466 H460 0.950 . S
C466 C467 1.327 . S
C467 H461 0.950 . S
C467 C466 1.327 . S
C467 C471 1.429 . S
C468 C451 1.574 1_565 S
C468 H462 0.949 . S
C468 C472 1.368 1_554 S
C469 C450 1.429 . S
C469 C463 1.429 . S
C469 C470 1.523 . S
C470 C451 1.368 1_455 S
C470 C464 1.371 1_545 S
C470 C469 1.523 . S
C471 C455 1.429 . S
C471 C467 1.429 . S
C471 C472 1.523 . S
C472 C456 1.368 1_655 S
C472 C468 1.368 1_556 S
C472 C471 1.523 . S
H473 C448 0.950 . S
H474 C450 0.950 . S
H475 C451 0.949 . S
H476 C453 0.950 . S
H477 C455 0.950 . S
C478 C479 1.349 . S
C478 C480 1.327 . S
C478 H503 0.950 . S
C479 C478 1.349 . S
C479 C495 1.349 . S
C480 C478 1.327 . S
C480 C499 1.429 . S
C480 H504 0.950 . S
C481 C498 1.574 . S
C481 C500 1.368 . S
C481 H505 0.949 . S
H482 C486 0.949 . S
C483 C484 1.349 . S
C483 C485 1.327 . S
C483 H506 0.950 . S
C484 C483 1.349 . S
C484 C496 1.349 . S
C485 C483 1.327 . S
C485 C501 1.429 . S
C485 H507 0.950 . S
C486 H482 0.949 . S
C486 C494 1.574 . S
C486 C502 1.368 . S
H487 C495 0.950 . S
H488 C493 0.950 . S
H489 C494 0.949 . S
H490 C496 0.950 . S
H491 C497 0.950 . S
H492 C498 0.949 . S
C493 H488 0.950 . S
C493 C495 1.327 . S
C493 C499 1.429 . S
C494 C486 1.574 . S
C494 H489 0.949 . S
C494 C500 1.368 . S
C495 C479 1.349 . S
C495 H487 0.950 . S
C495 C493 1.327 . S
C496 C484 1.349 . S
C496 H490 0.950 . S
C496 C497 1.327 . S
C497 H491 0.950 . S
C497 C496 1.327 . S
C497 C501 1.429 . S
C498 C481 1.574 . S
C498 H492 0.949 . S
C498 C502 1.368 . S
C499 C480 1.429 . S
C499 C493 1.429 . S
C499 C500 1.523 . S
C500 C481 1.368 . S
C500 C494 1.368 . S
C500 C499 1.523 . S
C501 C485 1.429 . S
C501 C497 1.429 . S
C501 C502 1.523 . S
C502 C486 1.368 . S
C502 C498 1.368 . S
C502 C501 1.523 . S
H503 C478 0.950 . S
H504 C480 0.950 . S
H505 C481 0.949 . S
H506 C483 0.950 . S
H507 C485 0.950 . S
C508 C509 1.349 . S
C508 C510 1.327 . S
C508 H533 0.950 . S
C509 C508 1.349 . S
C509 C525 1.349 . S
C510 C508 1.327 . S
C510 C529 1.429 . S
C510 H534 0.950 . S
C511 C528 1.574 . S
C511 C530 1.368 . S
C511 H535 0.949 . S
H512 C516 0.949 . S
C513 C514 1.349 . S
C513 C515 1.327 . S
C513 H536 0.950 . S
C514 C513 1.349 . S
C514 C526 1.349 . S
C515 C513 1.327 . S
C515 C531 1.429 . S
C515 H537 0.950 . S
C516 H512 0.949 . S
C516 C524 1.574 . S
C516 C532 1.368 . S
H517 C525 0.950 . S
H518 C523 0.950 . S
H519 C524 0.949 . S
H520 C526 0.950 . S
H521 C527 0.950 . S
H522 C528 0.949 . S
C523 H518 0.950 . S
C523 C525 1.327 . S
C523 C529 1.429 . S
C524 C516 1.574 . S
C524 H519 0.949 . S
C524 C530 1.368 1_545 S
C525 C509 1.349 . S
C525 H517 0.950 . S
C525 C523 1.327 . S
C526 C514 1.349 . S
C526 H520 0.950 . S
C526 C527 1.327 . S
C527 H521 0.950 . S
C527 C526 1.327 . S
C527 C531 1.429 . S
C528 C511 1.574 . S
C528 H522 0.949 . S
C528 C532 1.368 1_565 S
C529 C510 1.429 . S
C529 C523 1.429 . S
C529 C530 1.523 . S
C530 C511 1.368 . S
C530 C524 1.368 1_565 S
C530 C529 1.523 . S
C531 C515 1.429 . S
C531 C527 1.429 . S
C531 C532 1.523 . S
C532 C516 1.368 . S
C532 C528 1.368 1_545 S
C532 C531 1.523 . S
H533 C508 0.950 . S
H534 C510 0.950 . S
H535 C511 0.949 . S
H536 C513 0.950 . S
H537 C515 0.950 . S
C538 C539 1.349 . S
C538 C540 1.327 . S
C538 H563 0.950 . S
C539 C538 1.349 . S
C539 C555 1.349 . S
C540 C538 1.327 . S
C540 C559 1.429 . S
C540 H564 0.950 . S
C541 C558 1.574 . S
C541 C560 1.368 . S
C541 H565 0.949 . S
H542 C546 0.949 . S
C543 C544 1.349 . S
C543 C545 1.327 . S
C543 H566 0.950 . S
C544 C543 1.349 . S
C544 C556 1.349 . S
C545 C543 1.327 . S
C545 C561 1.429 . S
C545 H567 0.950 . S
C546 H542 0.949 . S
C546 C554 1.574 . S
C546 C562 1.368 . S
H547 C555 0.950 . S
H548 C553 0.950 . S
H549 C554 0.949 . S
H550 C556 0.950 . S
H551 C557 0.950 . S
H552 C558 0.949 . S
C553 H548 0.950 . S
C553 C555 1.327 . S
C553 C559 1.429 . S
C554 C546 1.574 . S
C554 H549 0.949 . S
C554 C560 1.368 . S
C555 C539 1.349 . S
C555 H547 0.950 . S
C555 C553 1.327 . S
C556 C544 1.349 . S
C556 H550 0.950 . S
C556 C557 1.327 . S
C557 H551 0.950 . S
C557 C556 1.327 . S
C557 C561 1.429 . S
C558 C541 1.574 . S
C558 H552 0.949 . S
C558 C562 1.368 . S
C559 C540 1.429 . S
C559 C553 1.429 . S
C559 C560 1.523 . S
C560 C541 1.368 . S
C560 C554 1.368 . S
C560 C559 1.523 . S
C561 C545 1.429 . S
C561 C557 1.429 . S
C561 C562 1.523 . S
C562 C546 1.368 . S
C562 C558 1.368 . S
C562 C561 1.523 . S
H563 C538 0.950 . S
H564 C540 0.950 . S
H565 C541 0.949 . S
H566 C543 0.950 . S
H567 C545 0.950 . S
C568 C569 1.349 . S
C568 C570 1.327 . S
C568 H593 0.950 . S
C569 C568 1.349 . S
C569 C585 1.349 . S
C570 C568 1.327 . S
C570 C589 1.429 . S
C570 H594 0.950 . S
C571 C588 1.574 1_565 S
C571 C590 1.368 . S
C571 H595 0.949 . S
H572 C576 0.949 . S
C573 C574 1.349 . S
C573 C575 1.327 . S
C573 H596 0.950 . S
C574 C573 1.349 . S
C574 C586 1.349 . S
C575 C573 1.327 . S
C575 C591 1.429 . S
C575 H597 0.950 . S
C576 H572 0.949 . S
C576 C584 1.574 1_545 S
C576 C592 1.368 . S
H577 C585 0.950 . S
H578 C583 0.950 . S
H579 C584 0.949 . S
H580 C586 0.950 . S
H581 C587 0.950 . S
H582 C588 0.949 . S
C583 H578 0.950 . S
C583 C585 1.327 . S
C583 C589 1.429 . S
C584 C576 1.574 1_565 S
C584 H579 0.949 . S
C584 C590 1.368 1_655 S
C585 C569 1.349 . S
C585 H577 0.950 . S
C585 C583 1.327 . S
C586 C574 1.349 . S
C586 H580 0.950 . S
C586 C587 1.327 . S
C587 H581 0.950 . S
C587 C586 1.327 . S
C587 C591 1.429 . S
C588 C571 1.574 1_545 S
C588 H582 0.949 . S
C588 C592 1.368 1_455 S
C589 C570 1.429 . S
C589 C583 1.429 . S
C589 C590 1.523 . S
C590 C571 1.368 . S
C590 C584 1.368 1_455 S
C590 C589 1.523 . S
C591 C575 1.429 . S
C591 C587 1.429 . S
C591 C592 1.523 . S
C592 C576 1.368 . S
C592 C588 1.368 1_655 S
C592 C591 1.523 . S
H593 C568 0.950 . S
H594 C570 0.950 . S
H595 C571 0.949 . S
H596 C573 0.950 . S
H597 C575 0.950 . S
C598 C599 1.349 . S
C598 C600 1.327 . S
C598 H623 0.950 . S
C599 C598 1.349 . S
C599 C615 1.349 . S
C600 C598 1.327 . S
C600 C619 1.429 . S
C600 H624 0.950 . S
C601 C618 1.574 . S
C601 C620 1.368 . S
C601 H625 0.949 . S
H602 C606 0.949 . S
C603 C604 1.349 . S
C603 C605 1.327 . S
C603 H626 0.950 . S
C604 C603 1.349 . S
C604 C616 1.349 . S
C605 C603 1.327 . S
C605 C621 1.429 . S
C605 H627 0.950 . S
C606 H602 0.949 . S
C606 C614 1.574 . S
C606 C622 1.368 . S
H607 C615 0.950 . S
H608 C613 0.950 . S
H609 C614 0.949 . S
H610 C616 0.950 . S
H611 C617 0.950 . S
H612 C618 0.949 . S
C613 H608 0.950 . S
C613 C615 1.327 . S
C613 C619 1.429 . S
C614 C606 1.574 . S
C614 H609 0.949 . S
C614 C620 1.368 . S
C615 C599 1.349 . S
C615 H607 0.950 . S
C615 C613 1.327 . S
C616 C604 1.349 . S
C616 H610 0.950 . S
C616 C617 1.327 . S
C617 H611 0.950 . S
C617 C616 1.327 . S
C617 C621 1.429 . S
C618 C601 1.574 . S
C618 H612 0.949 . S
C618 C622 1.368 . S
C619 C600 1.429 . S
C619 C613 1.429 . S
C619 C620 1.523 . S
C620 C601 1.368 . S
C620 C614 1.368 . S
C620 C619 1.523 . S
C621 C605 1.429 . S
C621 C617 1.429 . S
C621 C622 1.523 . S
C622 C606 1.368 . S
C622 C618 1.368 . S
C622 C621 1.523 . S
H623 C598 0.950 . S
H624 C600 0.950 . S
H625 C601 0.949 . S
H626 C603 0.950 . S
H627 C605 0.950 . S
C628 C629 1.349 . S
C628 C630 1.327 . S
C628 H653 0.950 . S
C629 C628 1.349 . S
C629 C645 1.349 . S
C630 C628 1.327 . S
C630 C649 1.429 . S
C630 H654 0.950 . S
C631 C648 1.574 1_545 S
C631 C650 1.368 1_554 S
C631 H655 0.949 . S
H632 C636 0.949 . S
C633 C634 1.349 . S
C633 C635 1.327 . S
C633 H656 0.950 . S
C634 C633 1.349 . S
C634 C646 1.349 . S
C635 C633 1.327 . S
C635 C651 1.429 . S
C635 H657 0.950 . S
C636 H632 0.949 . S
C636 C644 1.574 1_565 S
C636 C652 1.368 1_556 S
H637 C645 0.950 . S
H638 C643 0.950 . S
H639 C644 0.949 . S
H640 C646 0.950 . S
H641 C647 0.950 . S
H642 C648 0.949 . S
C643 H638 0.950 . S
C643 C645 1.327 . S
C643 C649 1.429 . S
C644 C636 1.574 1_545 S
C644 H639 0.949 . S
C644 C650 1.368 . S
C645 C629 1.349 . S
C645 H637 0.950 . S
C645 C643 1.327 . S
C646 C634 1.349 . S
C646 H640 0.950 . S
C646 C647 1.327 . S
C647 H641 0.950 . S
C647 C646 1.327 . S
C647 C651 1.429 . S
C648 C631 1.574 1_565 S
C648 H642 0.949 . S
C648 C652 1.368 . S
C649 C630 1.429 . S
C649 C643 1.429 . S
C649 C650 1.523 . S
C650 C631 1.368 1_556 S
C650 C644 1.368 . S
C650 C649 1.523 . S
C651 C635 1.429 . S
C651 C647 1.429 . S
C651 C652 1.523 . S
C652 C636 1.368 1_554 S
C652 C648 1.368 . S
C652 C651 1.523 . S
H653 C628 0.950 . S
H654 C630 0.950 . S
H655 C631 0.949 . S
H656 C633 0.950 . S
H657 C635 0.950 . S
C658 C659 1.349 . S
C658 C660 1.327 . S
C658 H683 0.950 . S
C659 C658 1.349 . S
C659 C675 1.349 . S
C660 C658 1.327 . S
C660 C679 1.429 . S
C660 H684 0.950 . S
C661 C678 1.574 . S
C661 C680 1.368 . S
C661 H685 0.949 . S
H662 C666 0.949 . S
C663 C664 1.349 . S
C663 C665 1.327 . S
C663 H686 0.950 . S
C664 C663 1.349 . S
C664 C676 1.349 . S
C665 C663 1.327 . S
C665 C681 1.429 . S
C665 H687 0.950 . S
C666 H662 0.949 . S
C666 C674 1.574 . S
C666 C682 1.368 . S
H667 C675 0.950 . S
H668 C673 0.950 . S
H669 C674 0.949 . S
H670 C676 0.950 . S
H671 C677 0.950 . S
H672 C678 0.949 . S
C673 H668 0.950 . S
C673 C675 1.327 . S
C673 C679 1.429 . S
C674 C666 1.574 . S
C674 H669 0.949 . S
C674 C680 1.368 . S
C675 C659 1.349 . S
C675 H667 0.950 . S
C675 C673 1.327 . S
C676 C664 1.349 . S
C676 H670 0.950 . S
C676 C677 1.327 . S
C677 H671 0.950 . S
C677 C676 1.327 . S
C677 C681 1.429 . S
C678 C661 1.574 . S
C678 H672 0.949 . S
C678 C682 1.368 . S
C679 C660 1.429 . S
C679 C673 1.429 . S
C679 C680 1.523 . S
C680 C661 1.368 . S
C680 C674 1.368 . S
C680 C679 1.523 . S
C681 C665 1.429 . S
C681 C677 1.429 . S
C681 C682 1.523 . S
C682 C666 1.368 . S
C682 C678 1.368 . S
C682 C681 1.523 . S
H683 C658 0.950 . S
H684 C660 0.950 . S
H685 C661 0.949 . S
H686 C663 0.950 . S
H687 C665 0.950 . S
C688 C689 1.349 . S
C688 C690 1.327 . S
C688 H713 0.950 . S
C689 C688 1.349 . S
C689 C705 1.349 . S
C690 C688 1.327 . S
C690 C709 1.429 . S
C690 H714 0.950 . S
C691 C708 1.574 . S
C691 C710 1.368 1_556 S
C691 H715 0.949 . S
H692 C696 0.949 . S
C693 C694 1.349 . S
C693 C695 1.327 . S
C693 H716 0.950 . S
C694 C693 1.349 . S
C694 C706 1.349 . S
C695 C693 1.327 . S
C695 C711 1.429 . S
C695 H717 0.950 . S
C696 H692 0.949 . S
C696 C704 1.574 . S
C696 C712 1.368 1_554 S
H697 C705 0.950 . S
H698 C703 0.950 . S
H699 C704 0.949 . S
H700 C706 0.950 . S
H701 C707 0.950 . S
H702 C708 0.949 . S
C703 H698 0.950 . S
C703 C705 1.327 . S
C703 C709 1.429 . S
C704 C696 1.574 . S
C704 H699 0.949 . S
C704 C710 1.368 . S
C705 C689 1.349 . S
C705 H697 0.950 . S
C705 C703 1.327 . S
C706 C694 1.349 . S
C706 H700 0.950 . S
C706 C707 1.327 . S
C707 H701 0.950 . S
C707 C706 1.327 . S
C707 C711 1.429 . S
C708 C691 1.574 . S
C708 H702 0.949 . S
C708 C712 1.368 . S
C709 C690 1.429 . S
C709 C703 1.429 . S
C709 C710 1.523 . S
C710 C691 1.368 1_554 S
C710 C704 1.368 . S
C710 C709 1.523 . S
C711 C695 1.429 . S
C711 C707 1.429 . S
C711 C712 1.523 . S
C712 C696 1.368 1_556 S
C712 C708 1.368 . S
C712 C711 1.523 . S
H713 C688 0.950 . S
H714 C690 0.950 . S
H715 C691 0.949 . S
H716 C693 0.950 . S
H717 C695 0.950 . S
C718 C719 1.349 . S
C718 C720 1.327 . S
C718 H743 0.950 . S
C719 C718 1.349 . S
C719 C735 1.349 . S
C720 C718 1.327 . S
C720 C739 1.429 . S
C720 H744 0.950 . S
C721 C738 1.574 . S
C721 C740 1.368 . S
C721 H745 0.949 . S
H722 C726 0.949 . S
C723 C724 1.349 . S
C723 C725 1.327 . S
C723 H746 0.950 . S
C724 C723 1.349 . S
C724 C736 1.349 . S
C725 C723 1.327 . S
C725 C741 1.429 . S
C725 H747 0.950 . S
C726 H722 0.949 . S
C726 C734 1.574 . S
C726 C742 1.368 . S
H727 C735 0.950 . S
H728 C733 0.950 . S
H729 C734 0.949 . S
H730 C736 0.950 . S
H731 C737 0.950 . S
H732 C738 0.949 . S
C733 H728 0.950 . S
C733 C735 1.327 . S
C733 C739 1.429 . S
C734 C726 1.574 . S
C734 H729 0.949 . S
C734 C740 1.368 . S
C735 C719 1.349 . S
C735 H727 0.950 . S
C735 C733 1.327 . S
C736 C724 1.349 . S
C736 H730 0.950 . S
C736 C737 1.327 . S
C737 H731 0.950 . S
C737 C736 1.327 . S
C737 C741 1.429 . S
C738 C721 1.574 . S
C738 H732 0.949 . S
C738 C742 1.368 . S
C739 C720 1.429 . S
C739 C733 1.429 . S
C739 C740 1.523 . S
C740 C721 1.368 . S
C740 C734 1.368 . S
C740 C739 1.523 . S
C741 C725 1.429 . S
C741 C737 1.429 . S
C741 C742 1.523 . S
C742 C726 1.368 . S
C742 C738 1.368 . S
C742 C741 1.523 . S
H743 C718 0.950 . S
H744 C720 0.950 . S
H745 C721 0.949 . S
H746 C723 0.950 . S
H747 C725 0.950 . S
C748 C749 1.349 . S
C748 C750 1.327 . S
C748 H773 0.950 . S
C749 C748 1.349 . S
C749 C765 1.349 . S
C750 C748 1.327 . S
C750 C769 1.429 . S
C750 H774 0.950 . S
C751 C768 1.574 . S
C751 C770 1.368 . S
C751 H775 0.949 . S
H752 C756 0.949 . S
C753 C754 1.349 . S
C753 C755 1.327 . S
C753 H776 0.950 . S
C754 C753 1.349 . S
C754 C766 1.349 . S
C755 C753 1.327 . S
C755 C771 1.429 . S
C755 H777 0.946 1_655 S
C756 H752 0.949 . S
C756 C764 1.574 . S
C756 C772 1.368 . S
H757 C765 0.950 . S
H758 C763 0.950 . S
H759 C764 0.949 . S
H760 C766 0.950 . S
H761 C767 0.950 . S
H762 C768 0.949 . S
C763 H758 0.950 . S
C763 C765 1.327 . S
C763 C769 1.429 . S
C764 C756 1.574 . S
C764 H759 0.949 . S
C764 C770 1.368 1_655 S
C765 C749 1.349 . S
C765 H757 0.950 . S
C765 C763 1.327 . S
C766 C754 1.349 . S
C766 H760 0.950 . S
C766 C767 1.327 . S
C767 H761 0.950 . S
C767 C766 1.327 . S
C767 C771 1.429 . S
C768 C751 1.574 . S
C768 H762 0.949 . S
C768 C772 1.368 1_455 S
C769 C750 1.429 . S
C769 C763 1.429 . S
C769 C770 1.523 . S
C770 C751 1.368 . S
C770 C764 1.368 1_455 S
C770 C769 1.523 . S
C771 C755 1.429 . S
C771 C767 1.429 . S
C771 C772 1.523 . S
C772 C756 1.368 . S
C772 C768 1.368 1_655 S
C772 C771 1.523 . S
H773 C748 0.950 . S
H774 C750 0.950 . S
H775 C751 0.949 . S
H776 C753 0.950 . S
H777 C755 0.946 1_455 S
C778 C779 1.349 . S
C778 C780 1.327 . S
C778 H803 0.950 . S
C779 C778 1.349 . S
C779 C795 1.349 . S
C780 C778 1.327 . S
C780 C799 1.429 . S
C780 H804 0.950 . S
C781 C798 1.574 . S
C781 C800 1.368 . S
C781 H805 0.949 . S
H782 C786 0.949 . S
C783 C784 1.349 . S
C783 C785 1.327 . S
C783 H806 0.950 . S
C784 C783 1.349 . S
C784 C796 1.349 . S
C785 C783 1.327 . S
C785 C801 1.429 . S
C785 H807 0.950 . S
C786 H782 0.949 . S
C786 C794 1.574 . S
C786 C802 1.368 . S
H787 C795 0.950 . S
H788 C793 0.950 . S
H789 C794 0.949 . S
H790 C796 0.950 . S
H791 C797 0.950 . S
H792 C798 0.949 . S
C793 H788 0.950 . S
C793 C795 1.327 . S
C793 C799 1.429 . S
C794 C786 1.574 . S
C794 H789 0.949 . S
C794 C800 1.368 . S
C795 C779 1.349 . S
C795 H787 0.950 . S
C795 C793 1.327 . S
C796 C784 1.349 . S
C796 H790 0.950 . S
C796 C797 1.327 . S
C797 H791 0.950 . S
C797 C796 1.327 . S
C797 C801 1.429 . S
C798 C781 1.574 . S
C798 H792 0.949 . S
C798 C802 1.368 . S
C799 C780 1.429 . S
C799 C793 1.429 . S
C799 C800 1.523 . S
C800 C781 1.368 . S
C800 C794 1.368 . S
C800 C799 1.523 . S
C801 C785 1.429 . S
C801 C797 1.429 . S
C801 C802 1.523 . S
C802 C786 1.368 . S
C802 C798 1.368 . S
C802 C801 1.523 . S
H803 C778 0.950 . S
H804 C780 0.950 . S
H805 C781 0.949 . S
H806 C783 0.950 . S
H807 C785 0.950 . S
C808 C809 1.349 . S
C808 C810 1.327 . S
C808 H833 0.950 . S
C809 C808 1.349 . S
C809 C825 1.349 . S
C810 C808 1.327 . S
C810 C829 1.429 . S
C810 H834 0.950 . S
C811 C828 1.574 . S
C811 C830 1.368 . S
C811 H835 0.949 . S
H812 C816 0.949 . S
C813 C814 1.349 . S
C813 C815 1.327 . S
C813 H836 0.950 . S
C814 C813 1.349 . S
C814 C826 1.349 . S
C815 C813 1.327 . S
C815 C831 1.429 . S
C815 H837 0.950 . S
C816 H812 0.949 . S
C816 C824 1.574 . S
C816 C832 1.368 . S
H817 C825 0.950 . S
H818 C823 0.950 . S
H819 C824 0.949 . S
H820 C826 0.950 . S
H821 C827 0.950 . S
H822 C828 0.949 . S
C823 H818 0.950 . S
C823 C825 1.327 . S
C823 C829 1.429 . S
C824 C816 1.574 . S
C824 H819 0.949 . S
C824 C830 1.368 . S
C825 C809 1.349 . S
C825 H817 0.950 . S
C825 C823 1.327 . S
C826 C814 1.349 . S
C826 H820 0.950 . S
C826 C827 1.327 . S
C827 H821 0.950 . S
C827 C826 1.327 . S
C827 C831 1.429 . S
C828 C811 1.574 . S
C828 H822 0.949 . S
C828 C832 1.368 . S
C829 C810 1.429 . S
C829 C823 1.429 . S
C829 C830 1.523 . S
C830 C811 1.368 . S
C830 C824 1.368 . S
C830 C829 1.523 . S
C831 C815 1.429 . S
C831 C827 1.429 . S
C831 C832 1.523 . S
C832 C816 1.368 . S
C832 C828 1.368 . S
C832 C831 1.523 . S
H833 C808 0.950 . S
H834 C810 0.950 . S
H835 C811 0.949 . S
H836 C813 0.950 . S
H837 C815 0.950 . S
C838 C839 1.349 . S
C838 C840 1.327 . S
C838 H863 0.950 . S
C839 C838 1.349 . S
C839 C855 1.349 . S
C840 C838 1.327 . S
C840 C859 1.429 . S
C840 H864 0.950 . S
C841 C858 1.574 . S
C841 C860 1.368 . S
C841 H865 0.949 . S
H842 C846 0.949 . S
C843 C844 1.349 . S
C843 C845 1.327 . S
C843 H866 0.950 . S
C844 C843 1.349 . S
C844 C856 1.349 . S
C845 C843 1.327 . S
C845 C861 1.429 . S
C845 H867 0.950 . S
C846 H842 0.949 . S
C846 C854 1.574 . S
C846 C862 1.368 . S
H847 C855 0.950 . S
H848 C853 0.950 . S
H849 C854 0.949 . S
H850 C856 0.950 . S
H851 C857 0.950 . S
H852 C858 0.949 . S
C853 H848 0.950 . S
C853 C855 1.327 . S
C853 C859 1.429 . S
C854 C846 1.574 . S
C854 H849 0.949 . S
C854 C860 1.368 . S
C855 C839 1.349 . S
C855 H847 0.950 . S
C855 C853 1.327 . S
C856 C844 1.349 . S
C856 H850 0.950 . S
C856 C857 1.327 . S
C857 H851 0.950 . S
C857 C856 1.327 . S
C857 C861 1.429 . S
C858 C841 1.574 . S
C858 H852 0.949 . S
C858 C862 1.368 . S
C859 C840 1.429 . S
C859 C853 1.429 . S
C859 C860 1.523 . S
C860 C841 1.368 . S
C860 C854 1.368 . S
C860 C859 1.523 . S
C861 C845 1.429 . S
C861 C857 1.429 . S
C861 C862 1.523 . S
C862 C846 1.368 . S
C862 C858 1.368 . S
C862 C861 1.523 . S
H863 C838 0.950 . S
H864 C840 0.950 . S
H865 C841 0.949 . S
H866 C843 0.950 . S
H867 C845 0.950 . S
C868 C869 1.349 . S
C868 C870 1.327 . S
C868 H893 0.950 . S
C869 C868 1.349 . S
C869 C885 1.349 . S
C870 C868 1.327 . S
C870 C889 1.429 . S
C870 H894 0.950 . S
C871 C888 1.574 . S
C871 C890 1.368 . S
C871 H895 0.949 . S
H872 C876 0.949 . S
C873 C874 1.349 . S
C873 C875 1.327 . S
C873 H896 0.950 . S
C874 C873 1.349 . S
C874 C886 1.349 . S
C875 C873 1.327 . S
C875 C891 1.429 . S
C875 H897 0.950 . S
C876 H872 0.949 . S
C876 C884 1.574 . S
C876 C892 1.368 . S
H877 C885 0.950 . S
H878 C883 0.950 . S
H879 C884 0.949 . S
H880 C886 0.950 . S
H881 C887 0.950 . S
H882 C888 0.949 . S
C883 H878 0.950 . S
C883 C885 1.327 . S
C883 C889 1.429 . S
C884 C876 1.574 . S
C884 H879 0.949 . S
C884 C890 1.368 . S
C885 C869 1.349 . S
C885 H877 0.950 . S
C885 C883 1.327 . S
C886 C874 1.349 . S
C886 H880 0.950 . S
C886 C887 1.327 . S
C887 H881 0.950 . S
C887 C886 1.327 . S
C887 C891 1.429 . S
C888 C871 1.574 . S
C888 H882 0.949 . S
C888 C892 1.368 . S
C889 C870 1.429 . S
C889 C883 1.429 . S
C889 C890 1.523 . S
C890 C871 1.368 . S
C890 C884 1.368 . S
C890 C889 1.523 . S
C891 C875 1.429 . S
C891 C887 1.429 . S
C891 C892 1.523 . S
C892 C876 1.368 . S
C892 C888 1.368 . S
C892 C891 1.523 . S
H893 C868 0.950 . S
H894 C870 0.950 . S
H895 C871 0.949 . S
H896 C873 0.950 . S
H897 C875 0.950 . S
C898 C899 1.349 . S
C898 C900 1.327 . S
C898 H923 0.950 . S
C899 C898 1.349 . S
C899 C915 1.349 . S
C900 C898 1.327 . S
C900 C919 1.429 . S
C900 H924 0.950 . S
C901 C918 1.574 . S
C901 C920 1.368 1_554 S
C901 H925 0.949 . S
H902 C906 0.949 . S
C903 C904 1.349 . S
C903 C905 1.327 . S
C903 H926 0.950 . S
C904 C903 1.349 . S
C904 C916 1.349 . S
C905 C903 1.327 . S
C905 C921 1.429 . S
C905 H927 0.950 . S
C906 H902 0.949 . S
C906 C914 1.574 . S
C906 C922 1.368 1_556 S
H907 C915 0.950 . S
H908 C913 0.950 . S
H909 C914 0.949 . S
H910 C916 0.950 . S
H911 C917 0.950 . S
H912 C918 0.949 . S
C913 H908 0.950 . S
C913 C915 1.327 . S
C913 C919 1.429 . S
C914 C906 1.574 . S
C914 H909 0.949 . S
C914 C920 1.368 1_655 S
C915 C899 1.349 . S
C915 H907 0.950 . S
C915 C913 1.327 . S
C916 C904 1.349 . S
C916 H910 0.950 . S
C916 C917 1.327 . S
C917 H911 0.950 . S
C917 C916 1.327 . S
C917 C921 1.429 . S
C918 C901 1.574 . S
C918 H912 0.949 . S
C918 C922 1.368 1_455 S
C919 C900 1.429 . S
C919 C913 1.429 . S
C919 C920 1.523 . S
C920 C901 1.368 1_556 S
C920 C914 1.368 1_455 S
C920 C919 1.523 . S
C921 C905 1.429 . S
C921 C917 1.429 . S
C921 C922 1.523 . S
C922 C906 1.368 1_554 S
C922 C918 1.368 1_655 S
C922 C921 1.523 . S
H923 C898 0.950 . S
H924 C900 0.950 . S
H925 C901 0.949 . S
H926 C903 0.950 . S
H927 C905 0.950 . S
C928 C929 1.349 . S
C928 C930 1.327 . S
C928 H953 0.950 . S
C929 C928 1.349 . S
C929 C945 1.349 . S
C930 C928 1.327 . S
C930 C949 1.429 . S
C930 H954 0.950 . S
C931 C948 1.574 . S
C931 C950 1.368 . S
C931 H955 0.949 1_565 S
H932 C936 0.949 . S
C933 C934 1.349 . S
C933 C935 1.327 . S
C933 H956 0.950 . S
C934 C933 1.349 . S
C934 C946 1.349 . S
C935 C933 1.327 . S
C935 C951 1.429 . S
C935 H957 0.950 . S
C936 H932 0.949 . S
C936 C944 1.574 . S
C936 C952 1.368 . S
H937 C945 0.950 . S
H938 C943 0.950 . S
H939 C944 0.949 . S
H940 C946 0.950 . S
H941 C947 0.950 . S
H942 C948 0.949 . S
C943 H938 0.950 . S
C943 C945 1.327 . S
C943 C949 1.429 . S
C944 C936 1.574 . S
C944 H939 0.949 . S
C944 C950 1.368 . S
C945 C929 1.349 . S
C945 H937 0.950 . S
C945 C943 1.327 . S
C946 C934 1.349 . S
C946 H940 0.950 . S
C946 C947 1.327 . S
C947 H941 0.950 . S
C947 C946 1.327 . S
C947 C951 1.429 . S
C948 C931 1.574 . S
C948 H942 0.949 . S
C948 C952 1.368 . S
C949 C930 1.429 . S
C949 C943 1.429 . S
C949 C950 1.523 1_545 S
C950 C931 1.368 . S
C950 C944 1.368 . S
C950 C949 1.523 1_565 S
C951 C935 1.429 . S
C951 C947 1.429 . S
C951 C952 1.523 . S
C952 C936 1.368 . S
C952 C948 1.368 . S
C952 C951 1.523 . S
H953 C928 0.950 . S
H954 C930 0.950 . S
H955 C931 0.949 1_545 S
H956 C933 0.950 . S
H957 C935 0.950 . S
C958 C959 1.349 . S
C958 C960 1.327 . S
C958 H983 0.950 . S
C959 C958 1.349 . S
C959 C975 1.349 . S
C960 C958 1.327 . S
C960 C979 1.429 . S
C960 H984 0.950 . S
C961 C978 1.574 . S
C961 C980 1.368 . S
C961 H985 0.949 . S
H962 C966 0.949 . S
C963 C964 1.349 . S
C963 C965 1.327 . S
C963 H986 0.950 . S
C964 C963 1.349 . S
C964 C976 1.349 . S
C965 C963 1.327 . S
C965 C981 1.429 . S
C965 H987 0.950 . S
C966 H962 0.949 . S
C966 C974 1.574 . S
C966 C982 1.368 . S
H967 C975 0.950 . S
H968 C973 0.950 . S
H969 C974 0.949 . S
H970 C976 0.950 . S
H971 C977 0.950 . S
H972 C978 0.949 . S
C973 H968 0.950 . S
C973 C975 1.327 . S
C973 C979 1.429 . S
C974 C966 1.574 . S
C974 H969 0.949 . S
C974 C980 1.368 . S
C975 C959 1.349 . S
C975 H967 0.950 . S
C975 C973 1.327 . S
C976 C964 1.349 . S
C976 H970 0.950 . S
C976 C977 1.327 . S
C977 H971 0.950 . S
C977 C976 1.327 . S
C977 C981 1.429 . S
C978 C961 1.574 . S
C978 H972 0.949 . S
C978 C982 1.368 . S
C979 C960 1.429 . S
C979 C973 1.429 . S
C979 C980 1.523 . S
C980 C961 1.368 . S
C980 C974 1.368 . S
C980 C979 1.523 . S
C981 C965 1.429 . S
C981 C977 1.429 . S
C981 C982 1.523 . S
C982 C966 1.368 . S
C982 C978 1.368 . S
C982 C981 1.523 . S
H983 C958 0.950 . S
H984 C960 0.950 . S
H985 C961 0.949 . S
H986 C963 0.950 . S
H987 C965 0.950 . S
C988 C989 1.349 . S
C988 C990 1.327 . S
C988 H1013 0.950 . S
C989 C988 1.349 . S
C989 C1005 1.349 . S
C990 C988 1.327 . S
C990 C1009 1.429 . S
C990 H1014 0.950 . S
C991 C1008 1.574 . S
C991 C1010 1.368 . S
C991 H1015 0.949 . S
H992 C996 0.949 . S
C993 C994 1.349 . S
C993 C995 1.327 . S
C993 H1016 0.950 . S
C994 C993 1.349 . S
C994 C1006 1.349 . S
C995 C993 1.327 . S
C995 C1011 1.429 . S
C995 H1017 0.950 1_565 S
C996 H992 0.949 . S
C996 C1004 1.574 1_565 S
C996 C1012 1.368 1_565 S
H997 C1005 0.950 . S
H998 C1003 0.950 . S
H999 C1004 0.949 . S
H1000 C1006 0.950 . S
H1001 C1007 0.950 . S
H1002 C1008 0.949 . S
C1003 H998 0.950 . S
C1003 C1005 1.327 . S
C1003 C1009 1.429 . S
C1004 C996 1.574 1_545 S
C1004 H999 0.949 . S
C1004 C1010 1.368 . S
C1005 C989 1.349 . S
C1005 H997 0.950 . S
C1005 C1003 1.327 . S
C1006 C994 1.349 . S
C1006 H1000 0.950 . S
C1006 C1007 1.327 . S
C1007 H1001 0.950 . S
C1007 C1006 1.327 . S
C1007 C1011 1.429 . S
C1008 C991 1.574 . S
C1008 H1002 0.949 . S
C1008 C1012 1.368 . S
C1009 C990 1.429 . S
C1009 C1003 1.429 . S
C1009 C1010 1.523 . S
C1010 C991 1.368 . S
C1010 C1004 1.368 . S
C1010 C1009 1.523 . S
C1011 C995 1.429 . S
C1011 C1007 1.429 . S
C1011 C1012 1.523 1_565 S
C1012 C996 1.368 1_545 S
C1012 C1008 1.368 . S
C1012 C1011 1.523 1_545 S
H1013 C988 0.950 . S
H1014 C990 0.950 . S
H1015 C991 0.949 . S
H1016 C993 0.950 . S
H1017 C995 0.950 1_545 S
C1018 C1019 1.349 . S
C1018 C1020 1.327 . S
C1018 H1043 0.950 . S
C1019 C1018 1.349 . S
C1019 C1035 1.349 . S
C1020 C1018 1.327 . S
C1020 C1039 1.429 . S
C1020 H1044 0.950 . S
C1021 C1038 1.574 1_556 S
C1021 C1040 1.368 . S
C1021 H1045 0.949 . S
H1022 C1026 0.949 . S
C1023 C1024 1.349 . S
C1023 C1025 1.327 . S
C1023 H1046 0.950 . S
C1024 C1023 1.349 . S
C1024 C1036 1.349 . S
C1025 C1023 1.327 . S
C1025 C1041 1.429 . S
C1025 H1047 0.950 . S
C1026 H1022 0.949 . S
C1026 C1034 1.574 1_554 S
C1026 C1042 1.368 . S
H1027 C1035 0.950 . S
H1028 C1033 0.950 . S
H1029 C1034 0.949 . S
H1030 C1036 0.950 . S
H1031 C1037 0.950 . S
H1032 C1038 0.949 . S
C1033 H1028 0.950 . S
C1033 C1035 1.327 . S
C1033 C1039 1.429 . S
C1034 C1026 1.574 1_556 S
C1034 H1029 0.949 . S
C1034 C1040 1.368 . S
C1035 C1019 1.349 . S
C1035 H1027 0.950 . S
C1035 C1033 1.327 . S
C1036 C1024 1.349 . S
C1036 H1030 0.950 . S
C1036 C1037 1.327 . S
C1037 H1031 0.950 . S
C1037 C1036 1.327 . S
C1037 C1041 1.429 . S
C1038 C1021 1.574 1_554 S
C1038 H1032 0.949 . S
C1038 C1042 1.368 . S
C1039 C1020 1.429 . S
C1039 C1033 1.429 . S
C1039 C1040 1.523 . S
C1040 C1021 1.368 . S
C1040 C1034 1.368 . S
C1040 C1039 1.523 . S
C1041 C1025 1.429 . S
C1041 C1037 1.429 . S
C1041 C1042 1.523 . S
C1042 C1026 1.368 . S
C1042 C1038 1.368 . S
C1042 C1041 1.523 . S
H1043 C1018 0.950 . S
H1044 C1020 0.950 . S
H1045 C1021 0.949 . S
H1046 C1023 0.950 . S
H1047 C1025 0.950 . S
C1048 C1049 1.349 . S
C1048 C1050 1.327 . S
C1048 H1073 0.950 . S
C1049 C1048 1.349 . S
C1049 C1065 1.349 . S
C1050 C1048 1.327 . S
C1050 C1069 1.429 . S
C1050 H1074 0.950 . S
C1051 C1068 1.574 . S
C1051 C1070 1.368 . S
C1051 H1075 0.949 . S
H1052 C1056 0.949 . S
C1053 C1054 1.349 . S
C1053 C1055 1.327 . S
C1053 H1076 0.950 . S
C1054 C1053 1.349 . S
C1054 C1066 1.349 . S
C1055 C1053 1.327 . S
C1055 C1071 1.429 . S
C1055 H1077 0.950 1_565 S
C1056 H1052 0.949 . S
C1056 C1064 1.574 1_565 S
C1056 C1072 1.368 1_565 S
H1057 C1065 0.950 . S
H1058 C1063 0.950 . S
H1059 C1064 0.949 . S
H1060 C1066 0.950 . S
H1061 C1067 0.950 . S
H1062 C1068 0.949 . S
C1063 H1058 0.950 . S
C1063 C1065 1.327 . S
C1063 C1069 1.429 . S
C1064 C1056 1.574 1_545 S
C1064 H1059 0.949 . S
C1064 C1070 1.368 . S
C1065 C1049 1.349 . S
C1065 H1057 0.950 . S
C1065 C1063 1.327 . S
C1066 C1054 1.349 . S
C1066 H1060 0.950 . S
C1066 C1067 1.327 . S
C1067 H1061 0.950 . S
C1067 C1066 1.327 . S
C1067 C1071 1.429 . S
C1068 C1051 1.574 . S
C1068 H1062 0.949 . S
C1068 C1072 1.368 . S
C1069 C1050 1.429 . S
C1069 C1063 1.429 . S
C1069 C1070 1.523 . S
C1070 C1051 1.368 . S
C1070 C1064 1.368 . S
C1070 C1069 1.523 . S
C1071 C1055 1.429 . S
C1071 C1067 1.429 . S
C1071 C1072 1.523 1_565 S
C1072 C1056 1.368 1_545 S
C1072 C1068 1.368 . S
C1072 C1071 1.523 1_545 S
H1073 C1048 0.950 . S
H1074 C1050 0.950 . S
H1075 C1051 0.949 . S
H1076 C1053 0.950 . S
H1077 C1055 0.950 1_545 S
C1078 C1079 1.349 . S
C1078 C1080 1.327 . S
C1078 H1103 0.950 . S
C1079 C1078 1.349 . S
C1079 C1095 1.349 . S
C1080 C1078 1.327 . S
C1080 C1099 1.429 . S
C1080 H1104 0.950 . S
C1081 C1098 1.574 . S
C1081 C1100 1.368 . S
C1081 H1105 0.949 . S
H1082 C1086 0.949 . S
C1083 C1084 1.349 . S
C1083 C1085 1.327 . S
C1083 H1106 0.950 . S
C1084 C1083 1.349 . S
C1084 C1096 1.349 . S
C1085 C1083 1.327 . S
C1085 C1101 1.429 . S
C1085 H1107 0.950 . S
C1086 H1082 0.949 . S
C1086 C1094 1.574 . S
C1086 C1102 1.368 . S
H1087 C1095 0.950 . S
H1088 C1093 0.950 . S
H1089 C1094 0.949 . S
H1090 C1096 0.950 . S
H1091 C1097 0.950 . S
H1092 C1098 0.949 . S
C1093 H1088 0.950 . S
C1093 C1095 1.327 . S
C1093 C1099 1.429 . S
C1094 C1086 1.574 . S
C1094 H1089 0.949 . S
C1094 C1100 1.368 . S
C1095 C1079 1.349 . S
C1095 H1087 0.950 . S
C1095 C1093 1.327 . S
C1096 C1084 1.349 . S
C1096 H1090 0.950 . S
C1096 C1097 1.327 . S
C1097 H1091 0.950 . S
C1097 C1096 1.327 . S
C1097 C1101 1.429 . S
C1098 C1081 1.574 . S
C1098 H1092 0.949 . S
C1098 C1102 1.368 . S
C1099 C1080 1.429 . S
C1099 C1093 1.429 . S
C1099 C1100 1.523 . S
C1100 C1081 1.368 . S
C1100 C1094 1.368 . S
C1100 C1099 1.523 . S
C1101 C1085 1.429 . S
C1101 C1097 1.429 . S
C1101 C1102 1.523 . S
C1102 C1086 1.368 . S
C1102 C1098 1.368 . S
C1102 C1101 1.523 . S
H1103 C1078 0.950 . S
H1104 C1080 0.950 . S
H1105 C1081 0.949 . S
H1106 C1083 0.950 . S
H1107 C1085 0.950 . S
C1108 C1109 1.349 . S
C1108 C1110 1.327 . S
C1108 H1133 0.950 . S
C1109 C1108 1.349 . S
C1109 C1125 1.349 . S
C1110 C1108 1.327 . S
C1110 C1129 1.429 . S
C1110 H1134 0.950 . S
C1111 C1128 1.574 . S
C1111 C1130 1.368 . S
C1111 H1135 0.949 . S
H1112 C1116 0.949 . S
C1113 C1114 1.349 . S
C1113 C1115 1.327 . S
C1113 H1136 0.950 . S
C1114 C1113 1.349 . S
C1114 C1126 1.349 . S
C1115 C1113 1.327 . S
C1115 C1131 1.429 . S
C1115 H1137 0.950 . S
C1116 H1112 0.949 . S
C1116 C1124 1.574 1_565 S
C1116 C1132 1.368 . S
H1117 C1125 0.950 . S
H1118 C1123 0.950 . S
H1119 C1124 0.949 . S
H1120 C1126 0.950 . S
H1121 C1127 0.950 . S
H1122 C1128 0.949 . S
C1123 H1118 0.950 . S
C1123 C1125 1.327 . S
C1123 C1129 1.429 . S
C1124 C1116 1.574 1_545 S
C1124 H1119 0.949 . S
C1124 C1130 1.368 1_545 S
C1125 C1109 1.349 . S
C1125 H1117 0.950 . S
C1125 C1123 1.327 . S
C1126 C1114 1.349 . S
C1126 H1120 0.950 . S
C1126 C1127 1.327 . S
C1127 H1121 0.950 . S
C1127 C1126 1.327 . S
C1127 C1131 1.429 . S
C1128 C1111 1.574 . S
C1128 H1122 0.949 . S
C1128 C1132 1.368 . S
C1129 C1110 1.429 . S
C1129 C1123 1.429 . S
C1129 C1130 1.523 1_545 S
C1130 C1111 1.368 . S
C1130 C1124 1.368 1_565 S
C1130 C1129 1.523 1_565 S
C1131 C1115 1.429 . S
C1131 C1127 1.429 . S
C1131 C1132 1.523 . S
C1132 C1116 1.368 . S
C1132 C1128 1.368 . S
C1132 C1131 1.523 . S
H1133 C1108 0.950 . S
H1134 C1110 0.950 . S
H1135 C1111 0.949 . S
H1136 C1113 0.950 . S
H1137 C1115 0.950 . S
C1138 C1139 1.349 . S
C1138 C1140 1.327 . S
C1138 H1163 0.950 . S
C1139 C1138 1.349 . S
C1139 C1155 1.349 . S
C1140 C1138 1.327 . S
C1140 C1159 1.429 . S
C1140 H1164 0.950 . S
C1141 C1158 1.567 1_556 S
C1141 C1160 1.368 . S
C1141 H1165 0.949 . S
H1142 C1146 0.949 . S
C1143 C1144 1.349 . S
C1143 C1145 1.327 . S
C1143 H1166 0.950 . S
C1144 C1143 1.349 . S
C1144 C1156 1.349 . S
C1145 C1143 1.327 . S
C1145 C1161 1.429 . S
C1145 H1167 0.950 . S
C1146 H1142 0.949 . S
C1146 C1154 1.574 . S
C1146 C1162 1.368 . S
H1147 C1155 0.950 . S
H1148 C1153 0.950 . S
H1149 C1154 0.949 . S
H1150 C1156 0.950 . S
H1151 C1157 0.950 . S
H1152 C1158 0.948 1_556 S
C1153 H1148 0.950 . S
C1153 C1155 1.327 . S
C1153 C1159 1.429 . S
C1154 C1146 1.574 . S
C1154 H1149 0.949 . S
C1154 C1160 1.368 1_554 S
C1155 C1139 1.349 . S
C1155 H1147 0.950 . S
C1155 C1153 1.327 . S
C1156 C1144 1.349 . S
C1156 H1150 0.950 . S
C1156 C1157 1.327 . S
C1157 H1151 0.950 . S
C1157 C1156 1.327 . S
C1157 C1161 1.429 . S
C1158 C1141 1.567 1_554 S
C1158 H1152 0.948 1_554 S
C1158 C1162 1.377 . S
C1159 C1140 1.429 . S
C1159 C1153 1.429 . S
C1159 C1160 1.523 . S
C1160 C1141 1.368 . S
C1160 C1154 1.368 1_556 S
C1160 C1159 1.523 . S
C1161 C1145 1.429 . S
C1161 C1157 1.429 . S
C1161 C1162 1.523 . S
C1162 C1146 1.368 . S
C1162 C1158 1.377 . S
C1162 C1161 1.523 . S
H1163 C1138 0.950 . S
H1164 C1140 0.950 . S
H1165 C1141 0.949 . S
H1166 C1143 0.950 . S
H1167 C1145 0.950 . S
C1168 C1169 1.349 . S
C1168 C1170 1.327 . S
C1168 H1193 0.950 . S
C1169 C1168 1.349 . S
C1169 C1185 1.349 . S
C1170 C1168 1.327 . S
C1170 C1189 1.429 . S
C1170 H1194 0.950 . S
C1171 C1188 1.574 . S
C1171 C1190 1.368 . S
C1171 H1195 0.949 . S
H1172 C1176 0.932 1_455 S
C1173 C1174 1.349 . S
C1173 C1175 1.327 . S
C1173 H1196 0.950 . S
C1174 C1173 1.349 . S
C1174 C1186 1.349 . S
C1175 C1173 1.327 . S
C1175 C1191 1.429 . S
C1175 H1197 0.950 1_455 S
C1176 H1172 0.932 1_655 S
C1176 C1184 1.574 . S
C1176 C1192 1.368 . S
H1177 C1185 0.950 . S
H1178 C1183 0.950 . S
H1179 C1184 0.949 . S
H1180 C1186 0.950 . S
H1181 C1187 0.950 . S
H1182 C1188 0.949 . S
C1183 H1178 0.950 . S
C1183 C1185 1.327 . S
C1183 C1189 1.429 . S
C1184 C1176 1.574 . S
C1184 H1179 0.949 . S
C1184 C1190 1.368 . S
C1185 C1169 1.349 . S
C1185 H1177 0.950 . S
C1185 C1183 1.327 . S
C1186 C1174 1.349 . S
C1186 H1180 0.950 . S
C1186 C1187 1.327 . S
C1187 H1181 0.950 . S
C1187 C1186 1.327 . S
C1187 C1191 1.429 . S
C1188 C1171 1.574 . S
C1188 H1182 0.949 . S
C1188 C1192 1.368 . S
C1189 C1170 1.429 . S
C1189 C1183 1.429 . S
C1189 C1190 1.523 . S
C1190 C1171 1.368 . S
C1190 C1184 1.368 . S
C1190 C1189 1.523 . S
C1191 C1175 1.429 . S
C1191 C1187 1.429 . S
C1191 C1192 1.523 1_455 S
C1192 C1176 1.368 . S
C1192 C1188 1.368 . S
C1192 C1191 1.523 1_655 S
H1193 C1168 0.950 . S
H1194 C1170 0.950 . S
H1195 C1171 0.949 . S
H1196 C1173 0.950 . S
H1197 C1175 0.950 1_655 S
C1198 C1199 1.349 . S
C1198 C1200 1.327 . S
C1198 H1223 0.950 . S
C1199 C1198 1.349 . S
C1199 C1215 1.349 . S
C1200 C1198 1.327 . S
C1200 C1219 1.429 . S
C1200 H1224 0.950 . S
C1201 C1218 1.574 . S
C1201 C1220 1.368 . S
C1201 H1225 0.949 . S
H1202 C1206 0.949 . S
C1203 C1204 1.349 . S
C1203 C1205 1.327 . S
C1203 H1226 0.950 . S
C1204 C1203 1.349 . S
C1204 C1216 1.349 . S
C1205 C1203 1.327 . S
C1205 C1221 1.429 . S
C1205 H1227 0.950 . S
C1206 H1202 0.949 . S
C1206 C1214 1.574 . S
C1206 C1222 1.368 . S
H1207 C1215 0.950 . S
H1208 C1213 0.950 . S
H1209 C1214 0.949 . S
H1210 C1216 0.950 . S
H1211 C1217 0.950 . S
H1212 C1218 0.949 . S
C1213 H1208 0.950 . S
C1213 C1215 1.327 . S
C1213 C1219 1.429 . S
C1214 C1206 1.574 . S
C1214 H1209 0.949 . S
C1214 C1220 1.368 . S
C1215 C1199 1.349 . S
C1215 H1207 0.950 . S
C1215 C1213 1.327 . S
C1216 C1204 1.349 . S
C1216 H1210 0.950 . S
C1216 C1217 1.327 . S
C1217 H1211 0.950 . S
C1217 C1216 1.327 . S
C1217 C1221 1.429 . S
C1218 C1201 1.574 . S
C1218 H1212 0.949 . S
C1218 C1222 1.368 . S
C1219 C1200 1.429 . S
C1219 C1213 1.429 . S
C1219 C1220 1.523 . S
C1220 C1201 1.368 . S
C1220 C1214 1.368 . S
C1220 C1219 1.523 . S
C1221 C1205 1.429 . S
C1221 C1217 1.429 . S
C1221 C1222 1.523 . S
C1222 C1206 1.368 . S
C1222 C1218 1.368 . S
C1222 C1221 1.523 . S
H1223 C1198 0.950 . S
H1224 C1200 0.950 . S
H1225 C1201 0.949 . S
H1226 C1203 0.950 . S
H1227 C1205 0.950 . S
C1228 C1229 1.349 . S
C1228 C1230 1.327 . S
C1228 H1253 0.950 . S
C1229 C1228 1.349 . S
C1229 C1245 1.349 . S
C1230 C1228 1.327 . S
C1230 C1249 1.429 . S
C1230 H1254 0.950 . S
C1231 C1248 1.574 . S
C1231 C1250 1.368 . S
C1231 H1255 0.949 . S
H1232 C1236 0.949 . S
C1233 C1234 1.349 . S
C1233 C1235 1.327 . S
C1233 H1256 0.950 . S
C1234 C1233 1.349 . S
C1234 C1246 1.349 . S
C1235 C1233 1.327 . S
C1235 C1251 1.429 . S
C1235 H1257 0.950 . S
C1236 H1232 0.949 . S
C1236 C1244 1.574 . S
C1236 C1252 1.368 . S
H1237 C1245 0.950 . S
H1238 C1243 0.950 1_455 S
H1239 C1244 0.949 . S
H1240 C1246 0.950 . S
H1241 C1247 0.950 . S
H1242 C1248 0.949 . S
C1243 H1238 0.950 1_655 S
C1243 C1245 1.327 . S
C1243 C1249 1.429 . S
C1244 C1236 1.574 . S
C1244 H1239 0.949 . S
C1244 C1250 1.368 . S
C1245 C1229 1.349 . S
C1245 H1237 0.950 . S
C1245 C1243 1.327 . S
C1246 C1234 1.349 . S
C1246 H1240 0.950 . S
C1246 C1247 1.327 . S
C1247 H1241 0.950 . S
C1247 C1246 1.327 . S
C1247 C1251 1.429 . S
C1248 C1231 1.574 . S
C1248 H1242 0.949 . S
C1248 C1252 1.368 . S
C1249 C1230 1.429 . S
C1249 C1243 1.429 . S
C1249 C1250 1.523 1_655 S
C1250 C1231 1.368 . S
C1250 C1244 1.368 . S
C1250 C1249 1.523 1_455 S
C1251 C1235 1.429 . S
C1251 C1247 1.429 . S
C1251 C1252 1.523 . S
C1252 C1236 1.368 . S
C1252 C1248 1.368 . S
C1252 C1251 1.523 . S
H1253 C1228 0.950 . S
H1254 C1230 0.950 . S
H1255 C1231 0.949 . S
H1256 C1233 0.950 . S
H1257 C1235 0.950 . S
C1258 C1259 1.349 . S
C1258 C1260 1.327 . S
C1258 H1283 0.950 . S
C1259 C1258 1.349 . S
C1259 C1275 1.349 . S
C1260 C1258 1.327 . S
C1260 C1279 1.429 . S
C1260 H1284 0.950 . S
C1261 C1278 1.574 . S
C1261 C1280 1.368 . S
C1261 H1285 0.949 . S
H1262 C1266 0.949 . S
C1263 C1264 1.349 . S
C1263 C1265 1.327 . S
C1263 H1286 0.950 . S
C1264 C1263 1.349 . S
C1264 C1276 1.349 . S
C1265 C1263 1.327 . S
C1265 C1281 1.429 . S
C1265 H1287 0.950 . S
C1266 H1262 0.949 . S
C1266 C1274 1.574 . S
C1266 C1282 1.368 . S
H1267 C1275 0.950 . S
H1268 C1273 0.950 1_455 S
H1269 C1274 0.914 1_655 S
H1270 C1276 0.950 . S
H1271 C1277 0.950 . S
H1272 C1278 0.949 . S
C1273 H1268 0.950 1_655 S
C1273 C1275 1.327 . S
C1273 C1279 1.429 . S
C1274 C1266 1.574 . S
C1274 H1269 0.914 1_455 S
C1274 C1280 1.368 . S
C1275 C1259 1.349 . S
C1275 H1267 0.950 . S
C1275 C1273 1.327 . S
C1276 C1264 1.349 . S
C1276 H1270 0.950 . S
C1276 C1277 1.327 . S
C1277 H1271 0.950 . S
C1277 C1276 1.327 . S
C1277 C1281 1.429 . S
C1278 C1261 1.574 . S
C1278 H1272 0.949 . S
C1278 C1282 1.368 . S
C1279 C1260 1.429 . S
C1279 C1273 1.429 . S
C1279 C1280 1.523 1_655 S
C1280 C1261 1.368 . S
C1280 C1274 1.368 . S
C1280 C1279 1.523 1_455 S
C1281 C1265 1.429 . S
C1281 C1277 1.429 . S
C1281 C1282 1.523 . S
C1282 C1266 1.368 . S
C1282 C1278 1.368 . S
C1282 C1281 1.523 . S
H1283 C1258 0.950 . S
H1284 C1260 0.950 . S
H1285 C1261 0.949 . S
H1286 C1263 0.950 . S
H1287 C1265 0.950 . S
C1288 C1289 1.349 . S
C1288 C1290 1.327 . S
C1288 H1313 0.950 . S
C1289 C1288 1.349 . S
C1289 C1305 1.349 . S
C1290 C1288 1.327 . S
C1290 C1309 1.429 . S
C1290 H1314 0.950 . S
C1291 C1308 1.574 . S
C1291 C1310 1.368 . S
C1291 H1315 0.949 . S
H1292 C1296 0.949 . S
C1293 C1294 1.349 . S
C1293 C1295 1.327 . S
C1293 H1316 0.950 . S
C1294 C1293 1.349 . S
C1294 C1306 1.349 . S
C1295 C1293 1.327 . S
C1295 C1311 1.429 . S
C1295 H1317 0.950 . S
C1296 H1292 0.949 . S
C1296 C1304 1.574 . S
C1296 C1312 1.368 . S
H1297 C1305 0.950 . S
H1298 C1303 0.950 . S
H1299 C1304 0.949 . S
H1300 C1306 0.950 . S
H1301 C1307 0.950 . S
H1302 C1308 0.949 . S
C1303 H1298 0.950 . S
C1303 C1305 1.327 . S
C1303 C1309 1.429 . S
C1304 C1296 1.574 . S
C1304 H1299 0.949 . S
C1304 C1310 1.368 . S
C1305 C1289 1.349 . S
C1305 H1297 0.950 . S
C1305 C1303 1.327 . S
C1306 C1294 1.349 . S
C1306 H1300 0.950 . S
C1306 C1307 1.327 . S
C1307 H1301 0.950 . S
C1307 C1306 1.327 . S
C1307 C1311 1.429 . S
C1308 C1291 1.574 . S
C1308 H1302 0.949 . S
C1308 C1312 1.368 . S
C1309 C1290 1.429 . S
C1309 C1303 1.429 . S
C1309 C1310 1.523 . S
C1310 C1291 1.368 . S
C1310 C1304 1.368 . S
C1310 C1309 1.523 . S
C1311 C1295 1.429 . S
C1311 C1307 1.429 . S
C1311 C1312 1.523 . S
C1312 C1296 1.368 . S
C1312 C1308 1.368 . S
C1312 C1311 1.523 . S
H1313 C1288 0.950 . S
H1314 C1290 0.950 . S
H1315 C1291 0.949 . S
H1316 C1293 0.950 . S
H1317 C1295 0.950 . S
C1318 C1319 1.349 . S
C1318 C1320 1.327 . S
C1318 H1343 0.950 . S
C1319 C1318 1.349 . S
C1319 C1335 1.349 . S
C1320 C1318 1.327 . S
C1320 C1339 1.429 . S
C1320 H1344 0.950 . S
C1321 C1338 1.574 . S
C1321 C1340 1.368 . S
C1321 H1345 0.949 . S
H1322 C1326 0.949 . S
C1323 C1324 1.349 . S
C1323 C1325 1.327 . S
C1323 H1346 0.950 . S
C1324 C1323 1.349 . S
C1324 C1336 1.349 . S
C1325 C1323 1.327 . S
C1325 C1341 1.429 . S
C1325 H1347 0.950 . S
C1326 H1322 0.949 . S
C1326 C1334 1.574 . S
C1326 C1342 1.368 . S
H1327 C1335 0.950 . S
H1328 C1333 0.950 . S
H1329 C1334 0.949 . S
H1330 C1336 0.950 . S
H1331 C1337 0.950 . S
H1332 C1338 0.949 . S
C1333 H1328 0.950 . S
C1333 C1335 1.327 . S
C1333 C1339 1.429 . S
C1334 C1326 1.574 . S
C1334 H1329 0.949 . S
C1334 C1340 1.368 . S
C1335 C1319 1.349 . S
C1335 H1327 0.950 . S
C1335 C1333 1.327 . S
C1336 C1324 1.349 . S
C1336 H1330 0.950 . S
C1336 C1337 1.327 . S
C1337 H1331 0.950 . S
C1337 C1336 1.327 . S
C1337 C1341 1.429 . S
C1338 C1321 1.574 . S
C1338 H1332 0.949 . S
C1338 C1342 1.368 . S
C1339 C1320 1.429 . S
C1339 C1333 1.429 . S
C1339 C1340 1.523 . S
C1340 C1321 1.368 . S
C1340 C1334 1.368 . S
C1340 C1339 1.523 . S
C1341 C1325 1.429 . S
C1341 C1337 1.429 . S
C1341 C1342 1.523 1_455 S
C1342 C1326 1.368 . S
C1342 C1338 1.368 . S
C1342 C1341 1.523 1_655 S
H1343 C1318 0.950 . S
H1344 C1320 0.950 . S
H1345 C1321 0.949 . S
H1346 C1323 0.950 . S
H1347 C1325 0.950 . S
C1348 C1349 1.349 . S
C1348 C1350 1.327 . S
C1348 H1373 0.950 . S
C1349 C1348 1.349 . S
C1349 C1365 1.349 . S
C1350 C1348 1.327 . S
C1350 C1369 1.429 . S
C1350 H1374 0.950 . S
C1351 C1368 1.574 . S
C1351 C1370 1.368 . S
C1351 H1375 0.949 . S
H1352 C1356 0.949 . S
C1353 C1354 1.349 . S
C1353 C1355 1.327 . S
C1353 H1376 0.950 . S
C1354 C1353 1.349 . S
C1354 C1366 1.349 . S
C1355 C1353 1.327 . S
C1355 C1371 1.429 . S
C1355 H1377 0.950 . S
C1356 H1352 0.949 . S
C1356 C1364 1.574 . S
C1356 C1372 1.368 . S
H1357 C1365 0.950 . S
H1358 C1363 0.950 . S
H1359 C1364 0.949 . S
H1360 C1366 0.950 . S
H1361 C1367 0.950 . S
H1362 C1368 0.949 . S
C1363 H1358 0.950 . S
C1363 C1365 1.327 . S
C1363 C1369 1.429 . S
C1364 C1356 1.574 . S
C1364 H1359 0.949 . S
C1364 C1370 1.368 . S
C1365 C1349 1.349 . S
C1365 H1357 0.950 . S
C1365 C1363 1.327 . S
C1366 C1354 1.349 . S
C1366 H1360 0.950 . S
C1366 C1367 1.327 . S
C1367 H1361 0.950 . S
C1367 C1366 1.327 . S
C1367 C1371 1.429 . S
C1368 C1351 1.574 . S
C1368 H1362 0.949 . S
C1368 C1372 1.368 . S
C1369 C1350 1.429 . S
C1369 C1363 1.429 . S
C1369 C1370 1.523 . S
C1370 C1351 1.368 . S
C1370 C1364 1.368 . S
C1370 C1369 1.523 . S
C1371 C1355 1.429 . S
C1371 C1367 1.429 . S
C1371 C1372 1.523 . S
C1372 C1356 1.368 . S
C1372 C1368 1.368 . S
C1372 C1371 1.523 . S
H1373 C1348 0.950 . S
H1374 C1350 0.950 . S
H1375 C1351 0.949 . S
H1376 C1353 0.950 . S
H1377 C1355 0.950 . S
C1378 C1379 1.349 . S
C1378 C1380 1.327 . S
C1378 H1403 0.950 . S
C1379 C1378 1.349 . S
C1379 C1395 1.349 . S
C1380 C1378 1.327 . S
C1380 C1399 1.429 . S
C1380 H1404 0.950 . S
C1381 C1398 1.574 1_545 S
C1381 C1400 1.368 . S
C1381 H1405 0.949 . S
H1382 C1386 0.949 . S
C1383 C1384 1.349 . S
C1383 C1385 1.327 . S
C1383 H1406 0.950 . S
C1384 C1383 1.349 . S
C1384 C1396 1.349 . S
C1385 C1383 1.327 . S
C1385 C1401 1.429 . S
C1385 H1407 0.950 . S
C1386 H1382 0.949 . S
C1386 C1394 1.574 . S
C1386 C1402 1.368 . S
H1387 C1395 0.950 . S
H1388 C1393 0.950 . S
H1389 C1394 0.949 . S
H1390 C1396 0.950 . S
H1391 C1397 0.950 1_545 S
H1392 C1398 0.949 . S
C1393 H1388 0.950 . S
C1393 C1395 1.327 . S
C1393 C1399 1.429 . S
C1394 C1386 1.574 . S
C1394 H1389 0.949 . S
C1394 C1400 1.368 . S
C1395 C1379 1.349 . S
C1395 H1387 0.950 . S
C1395 C1393 1.327 . S
C1396 C1384 1.349 . S
C1396 H1390 0.950 . S
C1396 C1397 1.327 . S
C1397 H1391 0.950 1_565 S
C1397 C1396 1.327 . S
C1397 C1401 1.429 . S
C1398 C1381 1.574 1_565 S
C1398 H1392 0.949 . S
C1398 C1402 1.368 1_565 S
C1399 C1380 1.429 . S
C1399 C1393 1.429 . S
C1399 C1400 1.523 . S
C1400 C1381 1.368 . S
C1400 C1394 1.368 . S
C1400 C1399 1.523 . S
C1401 C1385 1.429 . S
C1401 C1397 1.429 . S
C1401 C1402 1.523 1_565 S
C1402 C1386 1.368 . S
C1402 C1398 1.368 1_545 S
C1402 C1401 1.523 1_545 S
H1403 C1378 0.950 . S
H1404 C1380 0.950 . S
H1405 C1381 0.949 . S
H1406 C1383 0.950 . S
H1407 C1385 0.950 . S
C1408 C1409 1.349 . S
C1408 C1410 1.327 . S
C1408 H1433 0.950 . S
C1409 C1408 1.349 . S
C1409 C1425 1.349 . S
C1410 C1408 1.327 . S
C1410 C1429 1.429 . S
C1410 H1434 0.950 . S
C1411 C1428 1.574 . S
C1411 C1430 1.368 . S
C1411 H1435 0.949 . S
H1412 C1416 0.949 . S
C1413 C1414 1.349 . S
C1413 C1415 1.327 . S
C1413 H1436 0.950 . S
C1414 C1413 1.349 . S
C1414 C1426 1.349 . S
C1415 C1413 1.327 . S
C1415 C1431 1.429 . S
C1415 H1437 0.950 . S
C1416 H1412 0.949 . S
C1416 C1424 1.574 . S
C1416 C1432 1.368 . S
H1417 C1425 0.950 . S
H1418 C1423 0.950 . S
H1419 C1424 0.949 . S
H1420 C1426 0.950 . S
H1421 C1427 0.950 . S
H1422 C1428 0.949 . S
C1423 H1418 0.950 . S
C1423 C1425 1.327 . S
C1423 C1429 1.429 . S
C1424 C1416 1.574 . S
C1424 H1419 0.949 . S
C1424 C1430 1.368 . S
C1425 C1409 1.349 . S
C1425 H1417 0.950 . S
C1425 C1423 1.327 . S
C1426 C1414 1.349 . S
C1426 H1420 0.950 . S
C1426 C1427 1.327 . S
C1427 H1421 0.950 . S
C1427 C1426 1.327 . S
C1427 C1431 1.429 . S
C1428 C1411 1.574 . S
C1428 H1422 0.949 . S
C1428 C1432 1.368 . S
C1429 C1410 1.429 . S
C1429 C1423 1.429 . S
C1429 C1430 1.523 . S
C1430 C1411 1.368 . S
C1430 C1424 1.368 . S
C1430 C1429 1.523 . S
C1431 C1415 1.429 . S
C1431 C1427 1.429 . S
C1431 C1432 1.523 . S
C1432 C1416 1.368 . S
C1432 C1428 1.368 . S
C1432 C1431 1.523 . S
H1433 C1408 0.950 . S
H1434 C1410 0.950 . S
H1435 C1411 0.949 . S
H1436 C1413 0.950 . S
H1437 C1415 0.950 . S
C1438 C1439 1.349 . S
C1438 C1440 1.327 . S
C1438 H1463 0.950 . S
C1439 C1438 1.349 . S
C1439 C1455 1.349 . S
C1440 C1438 1.327 . S
C1440 C1459 1.429 . S
C1440 H1464 0.950 . S
C1441 C1458 1.574 . S
C1441 C1460 1.368 . S
C1441 H1465 0.949 . S
H1442 C1446 0.949 1_545 S
C1443 C1444 1.349 . S
C1443 C1445 1.327 . S
C1443 H1466 0.950 . S
C1444 C1443 1.349 . S
C1444 C1456 1.349 . S
C1445 C1443 1.327 . S
C1445 C1461 1.429 . S
C1445 H1467 0.950 . S
C1446 H1442 0.949 1_565 S
C1446 C1454 1.574 . S
C1446 C1462 1.368 . S
H1447 C1455 0.950 . S
H1448 C1453 0.950 . S
H1449 C1454 0.949 . S
H1450 C1456 0.950 . S
H1451 C1457 0.950 . S
H1452 C1458 0.949 . S
C1453 H1448 0.950 . S
C1453 C1455 1.327 . S
C1453 C1459 1.429 . S
C1454 C1446 1.574 . S
C1454 H1449 0.949 . S
C1454 C1460 1.368 . S
C1455 C1439 1.349 . S
C1455 H1447 0.950 . S
C1455 C1453 1.327 . S
C1456 C1444 1.349 . S
C1456 H1450 0.950 . S
C1456 C1457 1.327 . S
C1457 H1451 0.950 . S
C1457 C1456 1.327 . S
C1457 C1461 1.429 . S
C1458 C1441 1.574 . S
C1458 H1452 0.949 . S
C1458 C1462 1.368 . S
C1459 C1440 1.429 . S
C1459 C1453 1.429 . S
C1459 C1460 1.523 . S
C1460 C1441 1.368 . S
C1460 C1454 1.368 . S
C1460 C1459 1.523 . S
C1461 C1445 1.429 . S
C1461 C1457 1.429 . S
C1461 C1462 1.523 1_545 S
C1462 C1446 1.368 . S
C1462 C1458 1.368 . S
C1462 C1461 1.523 1_565 S
H1463 C1438 0.950 . S
H1464 C1440 0.950 . S
H1465 C1441 0.949 . S
H1466 C1443 0.950 . S
H1467 C1445 0.950 . S
C1468 C1469 1.349 . S
C1468 C1470 1.327 . S
C1468 H1493 0.950 . S
C1469 C1468 1.349 . S
C1469 C1485 1.349 . S
C1470 C1468 1.327 . S
C1470 C1489 1.429 . S
C1470 H1494 0.950 . S
C1471 C1488 1.574 1_556 S
C1471 C1490 1.368 . S
C1471 H1495 0.949 . S
H1472 C1476 0.949 . S
C1473 C1474 1.349 . S
C1473 C1475 1.327 . S
C1473 H1496 0.950 . S
C1474 C1473 1.349 . S
C1474 C1486 1.349 . S
C1475 C1473 1.327 . S
C1475 C1491 1.429 . S
C1475 H1497 0.950 . S
C1476 H1472 0.949 . S
C1476 C1484 1.574 . S
C1476 C1492 1.368 . S
H1477 C1485 0.950 . S
H1478 C1483 0.950 . S
H1479 C1484 0.949 . S
H1480 C1486 0.950 . S
H1481 C1487 0.950 . S
H1482 C1488 0.949 . S
C1483 H1478 0.950 . S
C1483 C1485 1.327 . S
C1483 C1489 1.429 . S
C1484 C1476 1.574 . S
C1484 H1479 0.949 . S
C1484 C1490 1.368 1_554 S
C1485 C1469 1.349 . S
C1485 H1477 0.950 . S
C1485 C1483 1.327 . S
C1486 C1474 1.349 . S
C1486 H1480 0.950 . S
C1486 C1487 1.327 . S
C1487 H1481 0.950 . S
C1487 C1486 1.327 . S
C1487 C1491 1.429 . S
C1488 C1471 1.574 1_554 S
C1488 H1482 0.949 . S
C1488 C1492 1.368 . S
C1489 C1470 1.429 . S
C1489 C1483 1.429 . S
C1489 C1490 1.523 . S
C1490 C1471 1.368 . S
C1490 C1484 1.368 1_556 S
C1490 C1489 1.523 . S
C1491 C1475 1.429 . S
C1491 C1487 1.429 . S
C1491 C1492 1.523 . S
C1492 C1476 1.368 . S
C1492 C1488 1.368 . S
C1492 C1491 1.523 . S
H1493 C1468 0.950 . S
H1494 C1470 0.950 . S
H1495 C1471 0.949 . S
H1496 C1473 0.950 . S
H1497 C1475 0.950 . S
C1498 C1499 1.349 . S
C1498 C1500 1.327 . S
C1498 H1523 0.950 . S
C1499 C1498 1.349 . S
C1499 C1515 1.349 . S
C1500 C1498 1.327 . S
C1500 C1519 1.429 . S
C1500 H1524 0.950 1_545 S
C1501 C1518 1.574 1_545 S
C1501 C1520 1.368 1_545 S
C1501 H1525 0.949 . S
H1502 C1506 0.949 . S
C1503 C1504 1.349 . S
C1503 C1505 1.327 . S
C1503 H1526 0.950 . S
C1504 C1503 1.349 . S
C1504 C1516 1.349 . S
C1505 C1503 1.327 . S
C1505 C1521 1.429 . S
C1505 H1527 0.950 . S
C1506 H1502 0.949 . S
C1506 C1514 1.574 . S
C1506 C1522 1.368 . S
H1507 C1515 0.950 . S
H1508 C1513 0.950 . S
H1509 C1514 0.949 . S
H1510 C1516 0.950 . S
H1511 C1517 0.950 . S
H1512 C1518 0.949 . S
C1513 H1508 0.950 . S
C1513 C1515 1.327 . S
C1513 C1519 1.429 . S
C1514 C1506 1.574 . S
C1514 H1509 0.949 . S
C1514 C1520 1.368 . S
C1515 C1499 1.349 . S
C1515 H1507 0.950 . S
C1515 C1513 1.327 . S
C1516 C1504 1.349 . S
C1516 H1510 0.950 . S
C1516 C1517 1.327 . S
C1517 H1511 0.950 . S
C1517 C1516 1.327 . S
C1517 C1521 1.429 . S
C1518 C1501 1.574 1_565 S
C1518 H1512 0.949 . S
C1518 C1522 1.368 . S
C1519 C1500 1.429 . S
C1519 C1513 1.429 . S
C1519 C1520 1.523 1_545 S
C1520 C1501 1.368 1_565 S
C1520 C1514 1.368 . S
C1520 C1519 1.523 1_565 S
C1521 C1505 1.429 . S
C1521 C1517 1.429 . S
C1521 C1522 1.523 . S
C1522 C1506 1.368 . S
C1522 C1518 1.368 . S
C1522 C1521 1.523 . S
H1523 C1498 0.950 . S
H1524 C1500 0.950 1_565 S
H1525 C1501 0.949 . S
H1526 C1503 0.950 . S
H1527 C1505 0.950 . S
C1528 C1529 1.349 . S
C1528 C1530 1.327 . S
C1528 H1553 0.950 . S
C1529 C1528 1.349 . S
C1529 C1545 1.349 . S
C1530 C1528 1.327 . S
C1530 C1549 1.429 . S
C1530 H1554 0.950 . S
C1531 C1548 1.574 . S
C1531 C1550 1.368 . S
C1531 H1555 0.949 . S
H1532 C1536 0.949 . S
C1533 C1534 1.349 . S
C1533 C1535 1.327 . S
C1533 H1556 0.950 . S
C1534 C1533 1.349 . S
C1534 C1546 1.349 . S
C1535 C1533 1.327 . S
C1535 C1551 1.429 . S
C1535 H1557 0.950 . S
C1536 H1532 0.949 . S
C1536 C1544 1.574 . S
C1536 C1552 1.368 . S
H1537 C1545 0.950 . S
H1538 C1543 0.950 . S
H1539 C1544 0.949 . S
H1540 C1546 0.950 . S
H1541 C1547 0.950 . S
H1542 C1548 0.949 . S
C1543 H1538 0.950 . S
C1543 C1545 1.327 . S
C1543 C1549 1.429 . S
C1544 C1536 1.574 . S
C1544 H1539 0.949 . S
C1544 C1550 1.368 . S
C1545 C1529 1.349 . S
C1545 H1537 0.950 . S
C1545 C1543 1.327 . S
C1546 C1534 1.349 . S
C1546 H1540 0.950 . S
C1546 C1547 1.327 . S
C1547 H1541 0.950 . S
C1547 C1546 1.327 . S
C1547 C1551 1.429 . S
C1548 C1531 1.574 . S
C1548 H1542 0.949 . S
C1548 C1552 1.368 . S
C1549 C1530 1.429 . S
C1549 C1543 1.429 . S
C1549 C1550 1.523 . S
C1550 C1531 1.368 . S
C1550 C1544 1.368 . S
C1550 C1549 1.523 . S
C1551 C1535 1.429 . S
C1551 C1547 1.429 . S
C1551 C1552 1.523 . S
C1552 C1536 1.368 . S
C1552 C1548 1.368 . S
C1552 C1551 1.523 . S
H1553 C1528 0.950 . S
H1554 C1530 0.950 . S
H1555 C1531 0.949 . S
H1556 C1533 0.950 . S
H1557 C1535 0.950 . S
C1558 C1559 1.349 . S
C1558 C1560 1.327 . S
C1558 H1583 0.950 . S
C1559 C1558 1.349 . S
C1559 C1575 1.349 . S
C1560 C1558 1.327 . S
C1560 C1579 1.429 . S
C1560 H1584 0.950 . S
C1561 C1578 1.574 . S
C1561 C1580 1.368 . S
C1561 H1585 0.949 . S
H1562 C1566 0.949 . S
C1563 C1564 1.349 . S
C1563 C1565 1.327 . S
C1563 H1586 0.950 . S
C1564 C1563 1.349 . S
C1564 C1576 1.349 . S
C1565 C1563 1.327 . S
C1565 C1581 1.429 . S
C1565 H1587 0.950 . S
C1566 H1562 0.949 . S
C1566 C1574 1.574 1_545 S
C1566 C1582 1.368 . S
H1567 C1575 0.950 . S
H1568 C1573 0.950 1_545 S
H1569 C1574 0.949 . S
H1570 C1576 0.950 . S
H1571 C1577 0.950 . S
H1572 C1578 0.949 . S
C1573 H1568 0.950 1_565 S
C1573 C1575 1.327 . S
C1573 C1579 1.429 . S
C1574 C1566 1.574 1_565 S
C1574 H1569 0.949 . S
C1574 C1580 1.368 1_565 S
C1575 C1559 1.349 . S
C1575 H1567 0.950 . S
C1575 C1573 1.327 . S
C1576 C1564 1.349 . S
C1576 H1570 0.950 . S
C1576 C1577 1.327 . S
C1577 H1571 0.950 . S
C1577 C1576 1.327 . S
C1577 C1581 1.429 . S
C1578 C1561 1.574 . S
C1578 H1572 0.949 . S
C1578 C1582 1.368 . S
C1579 C1560 1.429 . S
C1579 C1573 1.429 . S
C1579 C1580 1.523 1_565 S
C1580 C1561 1.368 . S
C1580 C1574 1.368 1_545 S
C1580 C1579 1.523 1_545 S
C1581 C1565 1.429 . S
C1581 C1577 1.429 . S
C1581 C1582 1.523 . S
C1582 C1566 1.368 . S
C1582 C1578 1.368 . S
C1582 C1581 1.523 . S
H1583 C1558 0.950 . S
H1584 C1560 0.950 . S
H1585 C1561 0.949 . S
H1586 C1563 0.950 . S
H1587 C1565 0.950 . S
C1588 C1589 1.349 . S
C1588 C1590 1.327 . S
C1588 H1613 0.950 . S
C1589 C1588 1.349 . S
C1589 C1605 1.349 . S
C1590 C1588 1.327 . S
C1590 C1609 1.429 . S
C1590 H1614 0.950 . S
C1591 C1608 1.574 1_554 S
C1591 C1610 1.368 . S
C1591 H1615 0.949 . S
H1592 C1596 0.949 . S
C1593 C1594 1.349 . S
C1593 C1595 1.327 . S
C1593 H1616 0.950 . S
C1594 C1593 1.349 . S
C1594 C1606 1.349 . S
C1595 C1593 1.327 . S
C1595 C1611 1.429 . S
C1595 H1617 0.950 . S
C1596 H1592 0.949 . S
C1596 C1604 1.574 . S
C1596 C1612 1.368 . S
H1597 C1605 0.950 . S
H1598 C1603 0.950 . S
H1599 C1604 0.949 . S
H1600 C1606 0.950 . S
H1601 C1607 0.950 . S
H1602 C1608 0.949 . S
C1603 H1598 0.950 . S
C1603 C1605 1.327 . S
C1603 C1609 1.429 . S
C1604 C1596 1.574 . S
C1604 H1599 0.949 . S
C1604 C1610 1.368 1_556 S
C1605 C1589 1.349 . S
C1605 H1597 0.950 . S
C1605 C1603 1.327 . S
C1606 C1594 1.349 . S
C1606 H1600 0.950 . S
C1606 C1607 1.327 . S
C1607 H1601 0.950 . S
C1607 C1606 1.327 . S
C1607 C1611 1.429 . S
C1608 C1591 1.574 1_556 S
C1608 H1602 0.949 . S
C1608 C1612 1.368 . S
C1609 C1590 1.429 . S
C1609 C1603 1.429 . S
C1609 C1610 1.523 . S
C1610 C1591 1.368 . S
C1610 C1604 1.368 1_554 S
C1610 C1609 1.523 . S
C1611 C1595 1.429 . S
C1611 C1607 1.429 . S
C1611 C1612 1.523 . S
C1612 C1596 1.368 . S
C1612 C1608 1.368 . S
C1612 C1611 1.523 . S
H1613 C1588 0.950 . S
H1614 C1590 0.950 . S
H1615 C1591 0.949 . S
H1616 C1593 0.950 . S
H1617 C1595 0.950 . S
C1618 C1619 1.349 . S
C1618 C1620 1.327 . S
C1618 H1643 0.950 . S
C1619 C1618 1.349 . S
C1619 C1635 1.349 . S
C1620 C1618 1.327 . S
C1620 C1639 1.429 . S
C1620 H1644 0.950 . S
C1621 C1638 1.574 . S
C1621 C1640 1.368 . S
C1621 H1645 0.949 1_455 S
H1622 C1626 0.949 . S
C1623 C1624 1.349 . S
C1623 C1625 1.327 . S
C1623 H1646 0.950 . S
C1624 C1623 1.349 . S
C1624 C1636 1.349 . S
C1625 C1623 1.327 . S
C1625 C1641 1.429 . S
C1625 H1647 0.950 . S
C1626 H1622 0.949 . S
C1626 C1634 1.574 . S
C1626 C1642 1.368 . S
H1627 C1635 0.950 . S
H1628 C1633 0.950 . S
H1629 C1634 0.949 . S
H1630 C1636 0.950 . S
H1631 C1637 0.950 . S
H1632 C1638 0.949 . S
C1633 H1628 0.950 . S
C1633 C1635 1.327 . S
C1633 C1639 1.429 . S
C1634 C1626 1.574 . S
C1634 H1629 0.949 . S
C1634 C1640 1.368 . S
C1635 C1619 1.349 . S
C1635 H1627 0.950 . S
C1635 C1633 1.327 . S
C1636 C1624 1.349 . S
C1636 H1630 0.950 . S
C1636 C1637 1.327 . S
C1637 H1631 0.950 . S
C1637 C1636 1.327 . S
C1637 C1641 1.429 . S
C1638 C1621 1.574 . S
C1638 H1632 0.949 . S
C1638 C1642 1.368 . S
C1639 C1620 1.429 . S
C1639 C1633 1.429 . S
C1639 C1640 1.523 1_655 S
C1640 C1621 1.368 . S
C1640 C1634 1.368 . S
C1640 C1639 1.523 1_455 S
C1641 C1625 1.429 . S
C1641 C1637 1.429 . S
C1641 C1642 1.523 . S
C1642 C1626 1.368 . S
C1642 C1638 1.368 . S
C1642 C1641 1.523 . S
H1643 C1618 0.950 . S
H1644 C1620 0.950 . S
H1645 C1621 0.949 1_655 S
H1646 C1623 0.950 . S
H1647 C1625 0.950 . S
C1648 C1649 1.349 . S
C1648 C1650 1.327 . S
C1648 H1673 0.950 . S
C1649 C1648 1.349 . S
C1649 C1665 1.349 . S
C1650 C1648 1.327 . S
C1650 C1669 1.429 . S
C1650 H1674 0.950 . S
C1651 C1668 1.574 . S
C1651 C1670 1.368 . S
C1651 H1675 0.949 . S
H1652 C1656 0.949 . S
C1653 C1654 1.349 . S
C1653 C1655 1.327 . S
C1653 H1676 0.950 . S
C1654 C1653 1.349 . S
C1654 C1666 1.349 . S
C1655 C1653 1.327 . S
C1655 C1671 1.429 . S
C1655 H1677 0.950 . S
C1656 H1652 0.949 . S
C1656 C1664 1.574 . S
C1656 C1672 1.368 . S
H1657 C1665 0.950 . S
H1658 C1663 0.950 . S
H1659 C1664 0.949 . S
H1660 C1666 0.950 . S
H1661 C1667 0.950 . S
H1662 C1668 0.949 . S
C1663 H1658 0.950 . S
C1663 C1665 1.327 . S
C1663 C1669 1.429 . S
C1664 C1656 1.574 . S
C1664 H1659 0.949 . S
C1664 C1670 1.368 . S
C1665 C1649 1.349 . S
C1665 H1657 0.950 . S
C1665 C1663 1.327 . S
C1666 C1654 1.349 . S
C1666 H1660 0.950 . S
C1666 C1667 1.327 . S
C1667 H1661 0.950 . S
C1667 C1666 1.327 . S
C1667 C1671 1.429 . S
C1668 C1651 1.574 . S
C1668 H1662 0.949 . S
C1668 C1672 1.368 . S
C1669 C1650 1.429 . S
C1669 C1663 1.429 . S
C1669 C1670 1.523 . S
C1670 C1651 1.368 . S
C1670 C1664 1.368 . S
C1670 C1669 1.523 . S
C1671 C1655 1.429 . S
C1671 C1667 1.429 . S
C1671 C1672 1.523 . S
C1672 C1656 1.368 . S
C1672 C1668 1.368 . S
C1672 C1671 1.523 . S
H1673 C1648 0.950 . S
H1674 C1650 0.950 . S
H1675 C1651 0.949 . S
H1676 C1653 0.950 . S
H1677 C1655 0.950 . S
C1678 C1679 1.349 . S
C1678 C1680 1.327 . S
C1678 H1703 0.950 . S
C1679 C1678 1.349 . S
C1679 C1695 1.349 . S
C1680 C1678 1.327 . S
C1680 C1699 1.429 . S
C1680 H1704 0.950 . S
C1681 C1698 1.574 . S
C1681 C1700 1.368 . S
C1681 H1705 0.949 . S
H1682 C1686 0.949 . S
C1683 C1684 1.349 . S
C1683 C1685 1.327 . S
C1683 H1706 0.950 . S
C1684 C1683 1.349 . S
C1684 C1696 1.349 . S
C1685 C1683 1.327 . S
C1685 C1701 1.429 . S
C1685 H1707 0.950 . S
C1686 H1682 0.949 . S
C1686 C1694 1.574 . S
C1686 C1702 1.368 . S
H1687 C1695 0.950 . S
H1688 C1693 0.950 . S
H1689 C1694 0.949 . S
H1690 C1696 0.950 . S
H1691 C1697 0.950 . S
H1692 C1698 0.949 . S
C1693 H1688 0.950 . S
C1693 C1695 1.327 . S
C1693 C1699 1.429 . S
C1694 C1686 1.574 . S
C1694 H1689 0.949 . S
C1694 C1700 1.368 . S
C1695 C1679 1.349 . S
C1695 H1687 0.950 . S
C1695 C1693 1.327 . S
C1696 C1684 1.349 . S
C1696 H1690 0.950 . S
C1696 C1697 1.327 . S
C1697 H1691 0.950 . S
C1697 C1696 1.327 . S
C1697 C1701 1.429 . S
C1698 C1681 1.574 . S
C1698 H1692 0.949 . S
C1698 C1702 1.368 . S
C1699 C1680 1.429 . S
C1699 C1693 1.429 . S
C1699 C1700 1.523 1_455 S
C1700 C1681 1.368 . S
C1700 C1694 1.368 . S
C1700 C1699 1.523 1_655 S
C1701 C1685 1.429 . S
C1701 C1697 1.429 . S
C1701 C1702 1.523 . S
C1702 C1686 1.368 . S
C1702 C1698 1.368 . S
C1702 C1701 1.523 . S
H1703 C1678 0.950 . S
H1704 C1680 0.950 . S
H1705 C1681 0.949 . S
H1706 C1683 0.950 . S
H1707 C1685 0.950 . S
C1708 C1709 1.349 . S
C1708 C1710 1.327 . S
C1708 H1733 0.950 . S
C1709 C1708 1.349 . S
C1709 C1725 1.349 . S
C1710 C1708 1.327 . S
C1710 C1729 1.429 . S
C1710 H1734 0.950 . S
C1711 C1728 1.574 . S
C1711 C1730 1.368 . S
C1711 H1735 0.949 1_655 S
H1712 C1716 0.949 . S
C1713 C1714 1.349 . S
C1713 C1715 1.327 . S
C1713 H1736 0.950 . S
C1714 C1713 1.349 . S
C1714 C1726 1.349 . S
C1715 C1713 1.327 . S
C1715 C1731 1.429 . S
C1715 H1737 0.950 . S
C1716 H1712 0.949 . S
C1716 C1724 1.574 . S
C1716 C1732 1.368 . S
H1717 C1725 0.950 . S
H1718 C1723 0.950 . S
H1719 C1724 0.949 . S
H1720 C1726 0.950 . S
H1721 C1727 0.950 . S
H1722 C1728 0.949 . S
C1723 H1718 0.950 . S
C1723 C1725 1.327 . S
C1723 C1729 1.429 . S
C1724 C1716 1.574 . S
C1724 H1719 0.949 . S
C1724 C1730 1.368 . S
C1725 C1709 1.349 . S
C1725 H1717 0.950 . S
C1725 C1723 1.327 . S
C1726 C1714 1.349 . S
C1726 H1720 0.950 . S
C1726 C1727 1.327 . S
C1727 H1721 0.950 . S
C1727 C1726 1.327 . S
C1727 C1731 1.429 . S
C1728 C1711 1.574 . S
C1728 H1722 0.949 . S
C1728 C1732 1.368 . S
C1729 C1710 1.429 . S
C1729 C1723 1.429 . S
C1729 C1730 1.523 1_455 S
C1730 C1711 1.368 . S
C1730 C1724 1.368 . S
C1730 C1729 1.523 1_655 S
C1731 C1715 1.429 . S
C1731 C1727 1.429 . S
C1731 C1732 1.523 . S
C1732 C1716 1.368 . S
C1732 C1728 1.368 . S
C1732 C1731 1.523 . S
H1733 C1708 0.950 . S
H1734 C1710 0.950 . S
H1735 C1711 0.949 1_455 S
H1736 C1713 0.950 . S
H1737 C1715 0.950 . S
C1738 C1739 1.349 . S
C1738 C1740 1.327 . S
C1738 H1763 0.950 . S
C1739 C1738 1.349 . S
C1739 C1755 1.349 . S
C1740 C1738 1.327 . S
C1740 C1759 1.429 . S
C1740 H1764 0.950 . S
C1741 C1758 1.574 . S
C1741 C1760 1.368 . S
C1741 H1765 0.949 . S
H1742 C1746 0.949 . S
C1743 C1744 1.349 . S
C1743 C1745 1.327 . S
C1743 H1766 0.950 . S
C1744 C1743 1.349 . S
C1744 C1756 1.349 . S
C1745 C1743 1.327 . S
C1745 C1761 1.429 . S
C1745 H1767 0.950 . S
C1746 H1742 0.949 . S
C1746 C1754 1.574 . S
C1746 C1762 1.368 . S
H1747 C1755 0.950 . S
H1748 C1753 0.950 . S
H1749 C1754 0.949 . S
H1750 C1756 0.950 . S
H1751 C1757 0.950 . S
H1752 C1758 0.949 . S
C1753 H1748 0.950 . S
C1753 C1755 1.327 . S
C1753 C1759 1.429 . S
C1754 C1746 1.574 . S
C1754 H1749 0.949 . S
C1754 C1760 1.368 . S
C1755 C1739 1.349 . S
C1755 H1747 0.950 . S
C1755 C1753 1.327 . S
C1756 C1744 1.349 . S
C1756 H1750 0.950 . S
C1756 C1757 1.327 . S
C1757 H1751 0.950 . S
C1757 C1756 1.327 . S
C1757 C1761 1.429 . S
C1758 C1741 1.574 . S
C1758 H1752 0.949 . S
C1758 C1762 1.368 . S
C1759 C1740 1.429 . S
C1759 C1753 1.429 . S
C1759 C1760 1.523 . S
C1760 C1741 1.368 . S
C1760 C1754 1.368 . S
C1760 C1759 1.523 . S
C1761 C1745 1.429 . S
C1761 C1757 1.429 . S
C1761 C1762 1.523 . S
C1762 C1746 1.368 . S
C1762 C1758 1.368 . S
C1762 C1761 1.523 . S
H1763 C1738 0.950 . S
H1764 C1740 0.950 . S
H1765 C1741 0.949 . S
H1766 C1743 0.950 . S
H1767 C1745 0.950 . S
C1768 C1769 1.349 . S
C1768 C1770 1.327 . S
C1768 H1793 0.950 . S
C1769 C1768 1.349 . S
C1769 C1785 1.349 . S
C1770 C1768 1.327 . S
C1770 C1789 1.429 . S
C1770 H1794 0.950 . S
C1771 C1788 1.574 . S
C1771 C1790 1.368 . S
C1771 H1795 0.916 1_455 S
H1772 C1776 0.949 . S
C1773 C1774 1.349 . S
C1773 C1775 1.327 . S
C1773 H1796 0.950 . S
C1774 C1773 1.349 . S
C1774 C1786 1.349 . S
C1775 C1773 1.327 . S
C1775 C1791 1.429 . S
C1775 H1797 0.950 . S
C1776 H1772 0.949 . S
C1776 C1784 1.574 . S
C1776 C1792 1.368 . S
H1777 C1785 0.950 . S
H1778 C1783 0.950 . S
H1779 C1784 0.949 . S
H1780 C1786 0.950 . S
H1781 C1787 0.950 . S
H1782 C1788 0.949 . S
C1783 H1778 0.950 . S
C1783 C1785 1.327 . S
C1783 C1789 1.429 . S
C1784 C1776 1.574 . S
C1784 H1779 0.949 . S
C1784 C1790 1.368 . S
C1785 C1769 1.349 . S
C1785 H1777 0.950 . S
C1785 C1783 1.327 . S
C1786 C1774 1.349 . S
C1786 H1780 0.950 . S
C1786 C1787 1.327 . S
C1787 H1781 0.950 . S
C1787 C1786 1.327 . S
C1787 C1791 1.429 . S
C1788 C1771 1.574 . S
C1788 H1782 0.949 . S
C1788 C1792 1.368 . S
C1789 C1770 1.429 . S
C1789 C1783 1.429 . S
C1789 C1790 1.523 1_655 S
C1790 C1771 1.368 . S
C1790 C1784 1.368 . S
C1790 C1789 1.523 1_455 S
C1791 C1775 1.429 . S
C1791 C1787 1.429 . S
C1791 C1792 1.523 . S
C1792 C1776 1.368 . S
C1792 C1788 1.368 . S
C1792 C1791 1.523 . S
H1793 C1768 0.950 . S
H1794 C1770 0.950 . S
H1795 C1771 0.916 1_655 S
H1796 C1773 0.950 . S
H1797 C1775 0.950 . S
C1798 C1799 1.349 . S
C1798 C1800 1.327 . S
C1798 H1823 0.950 . S
C1799 C1798 1.349 . S
C1799 C1815 1.349 . S
C1800 C1798 1.327 . S
C1800 C1819 1.429 . S
C1800 H1824 0.950 . S
C1801 C1818 1.574 . S
C1801 C1820 1.368 . S
C1801 H1825 0.949 . S
H1802 C1806 0.949 . S
C1803 C1804 1.349 . S
C1803 C1805 1.327 . S
C1803 H1826 0.950 . S
C1804 C1803 1.349 . S
C1804 C1816 1.349 . S
C1805 C1803 1.327 . S
C1805 C1821 1.429 . S
C1805 H1827 0.950 . S
C1806 H1802 0.949 . S
C1806 C1814 1.574 . S
C1806 C1822 1.368 . S
H1807 C1815 0.950 . S
H1808 C1813 0.950 . S
H1809 C1814 0.949 . S
H1810 C1816 0.950 . S
H1811 C1817 0.950 . S
H1812 C1818 0.949 . S
C1813 H1808 0.950 . S
C1813 C1815 1.327 . S
C1813 C1819 1.429 . S
C1814 C1806 1.574 . S
C1814 H1809 0.949 . S
C1814 C1820 1.368 . S
C1815 C1799 1.349 . S
C1815 H1807 0.950 . S
C1815 C1813 1.327 . S
C1816 C1804 1.349 . S
C1816 H1810 0.950 . S
C1816 C1817 1.327 . S
C1817 H1811 0.950 . S
C1817 C1816 1.327 . S
C1817 C1821 1.429 . S
C1818 C1801 1.574 . S
C1818 H1812 0.949 . S
C1818 C1822 1.368 . S
C1819 C1800 1.429 . S
C1819 C1813 1.429 . S
C1819 C1820 1.523 . S
C1820 C1801 1.368 . S
C1820 C1814 1.368 . S
C1820 C1819 1.523 . S
C1821 C1805 1.429 . S
C1821 C1817 1.429 . S
C1821 C1822 1.523 . S
C1822 C1806 1.368 . S
C1822 C1818 1.368 . S
C1822 C1821 1.523 . S
H1823 C1798 0.950 . S
H1824 C1800 0.950 . S
H1825 C1801 0.949 . S
H1826 C1803 0.950 . S
H1827 C1805 0.950 . S
C1828 C1829 1.349 . S
C1828 C1830 1.327 . S
C1828 H1853 0.950 . S
C1829 C1828 1.349 . S
C1829 C1845 1.349 . S
C1830 C1828 1.327 . S
C1830 C1849 1.429 . S
C1830 H1854 0.950 . S
C1831 C1848 1.574 . S
C1831 C1850 1.368 . S
C1831 H1855 0.949 . S
H1832 C1836 0.949 . S
C1833 C1834 1.349 . S
C1833 C1835 1.327 . S
C1833 H1856 0.950 . S
C1834 C1833 1.349 . S
C1834 C1846 1.349 . S
C1835 C1833 1.327 . S
C1835 C1851 1.429 . S
C1835 H1857 0.950 . S
C1836 H1832 0.949 . S
C1836 C1844 1.574 . S
C1836 C1852 1.368 . S
H1837 C1845 0.950 . S
H1838 C1843 0.950 . S
H1839 C1844 0.949 . S
H1840 C1846 0.950 . S
H1841 C1847 0.950 . S
H1842 C1848 0.949 . S
C1843 H1838 0.950 . S
C1843 C1845 1.327 . S
C1843 C1849 1.429 . S
C1844 C1836 1.574 . S
C1844 H1839 0.949 . S
C1844 C1850 1.368 . S
C1845 C1829 1.349 . S
C1845 H1837 0.950 . S
C1845 C1843 1.327 . S
C1846 C1834 1.349 . S
C1846 H1840 0.950 . S
C1846 C1847 1.327 . S
C1847 H1841 0.950 . S
C1847 C1846 1.327 . S
C1847 C1851 1.429 . S
C1848 C1831 1.574 . S
C1848 H1842 0.949 . S
C1848 C1852 1.368 . S
C1849 C1830 1.429 . S
C1849 C1843 1.429 . S
C1849 C1850 1.523 . S
C1850 C1831 1.368 . S
C1850 C1844 1.368 . S
C1850 C1849 1.523 . S
C1851 C1835 1.429 . S
C1851 C1847 1.429 . S
C1851 C1852 1.523 . S
C1852 C1836 1.368 . S
C1852 C1848 1.368 . S
C1852 C1851 1.523 . S
H1853 C1828 0.950 . S
H1854 C1830 0.950 . S
H1855 C1831 0.949 . S
H1856 C1833 0.950 . S
H1857 C1835 0.950 . S
C1858 C1859 1.349 . S
C1858 C1860 1.327 . S
C1858 H1883 0.950 . S
C1859 C1858 1.349 . S
C1859 C1875 1.349 . S
C1860 C1858 1.327 . S
C1860 C1879 1.429 . S
C1860 H1884 0.950 . S
C1861 C1878 1.574 . S
C1861 C1880 1.368 1_556 S
C1861 H1885 0.949 . S
H1862 C1866 0.953 . S
C1863 C1864 1.349 . S
C1863 C1865 1.327 . S
C1863 H1886 0.950 . S
C1864 C1863 1.349 . S
C1864 C1876 1.349 . S
C1865 C1863 1.327 . S
C1865 C1881 1.429 . S
C1865 H1887 0.950 . S
C1866 H1862 0.953 . S
C1866 C1874 1.574 1_556 S
C1866 C1882 1.368 . S
H1867 C1875 0.950 . S
H1868 C1873 0.950 . S
H1869 C1874 0.949 . S
H1870 C1876 0.950 . S
H1871 C1877 0.950 . S
H1872 C1878 0.949 . S
C1873 H1868 0.950 . S
C1873 C1875 1.327 . S
C1873 C1879 1.429 . S
C1874 C1866 1.574 1_554 S
C1874 H1869 0.949 . S
C1874 C1880 1.368 . S
C1875 C1859 1.349 . S
C1875 H1867 0.950 . S
C1875 C1873 1.327 . S
C1876 C1864 1.349 . S
C1876 H1870 0.950 . S
C1876 C1877 1.327 . S
C1877 H1871 0.950 . S
C1877 C1876 1.327 . S
C1877 C1881 1.429 . S
C1878 C1861 1.574 . S
C1878 H1872 0.949 . S
C1878 C1882 1.368 . S
C1879 C1860 1.429 . S
C1879 C1873 1.429 . S
C1879 C1880 1.523 . S
C1880 C1861 1.368 1_554 S
C1880 C1874 1.368 . S
C1880 C1879 1.523 . S
C1881 C1865 1.429 . S
C1881 C1877 1.429 . S
C1881 C1882 1.523 . S
C1882 C1866 1.368 . S
C1882 C1878 1.368 . S
C1882 C1881 1.523 . S
H1883 C1858 0.950 . S
H1884 C1860 0.950 . S
H1885 C1861 0.949 . S
H1886 C1863 0.950 . S
H1887 C1865 0.950 . S
C1888 C1889 1.349 . S
C1888 C1890 1.327 . S
C1888 H1913 0.950 . S
C1889 C1888 1.349 . S
C1889 C1905 1.349 . S
C1890 C1888 1.327 . S
C1890 C1909 1.429 . S
C1890 H1914 0.950 . S
C1891 C1908 1.574 . S
C1891 C1910 1.368 . S
C1891 H1915 0.949 . S
H1892 C1896 0.949 . S
C1893 C1894 1.349 . S
C1893 C1895 1.327 . S
C1893 H1916 0.950 . S
C1894 C1893 1.349 . S
C1894 C1906 1.349 . S
C1895 C1893 1.327 . S
C1895 C1911 1.429 . S
C1895 H1917 0.950 . S
C1896 H1892 0.949 . S
C1896 C1904 1.574 . S
C1896 C1912 1.368 . S
H1897 C1905 0.950 . S
H1898 C1903 0.950 . S
H1899 C1904 0.949 . S
H1900 C1906 0.950 . S
H1901 C1907 0.950 . S
H1902 C1908 0.949 . S
C1903 H1898 0.950 . S
C1903 C1905 1.327 . S
C1903 C1909 1.429 . S
C1904 C1896 1.574 . S
C1904 H1899 0.949 . S
C1904 C1910 1.368 . S
C1905 C1889 1.349 . S
C1905 H1897 0.950 . S
C1905 C1903 1.327 . S
C1906 C1894 1.349 . S
C1906 H1900 0.950 . S
C1906 C1907 1.327 . S
C1907 H1901 0.950 . S
C1907 C1906 1.327 . S
C1907 C1911 1.429 . S
C1908 C1891 1.574 . S
C1908 H1902 0.949 . S
C1908 C1912 1.368 . S
C1909 C1890 1.429 . S
C1909 C1903 1.429 . S
C1909 C1910 1.523 . S
C1910 C1891 1.368 . S
C1910 C1904 1.368 . S
C1910 C1909 1.523 . S
C1911 C1895 1.429 . S
C1911 C1907 1.429 . S
C1911 C1912 1.523 . S
C1912 C1896 1.368 . S
C1912 C1908 1.368 . S
C1912 C1911 1.523 . S
H1913 C1888 0.950 . S
H1914 C1890 0.950 . S
H1915 C1891 0.949 . S
H1916 C1893 0.950 . S
H1917 C1895 0.950 . S
C1918 C1919 1.349 . S
C1918 C1920 1.327 . S
C1918 H1943 0.950 . S
C1919 C1918 1.349 . S
C1919 C1935 1.349 . S
C1920 C1918 1.327 . S
C1920 C1939 1.429 . S
C1920 H1944 0.950 . S
C1921 C1938 1.574 . S
C1921 C1940 1.368 . S
C1921 H1945 0.949 . S
H1922 C1926 0.949 . S
C1923 C1924 1.349 . S
C1923 C1925 1.327 . S
C1923 H1946 0.950 . S
C1924 C1923 1.349 . S
C1924 C1936 1.349 . S
C1925 C1923 1.327 . S
C1925 C1941 1.429 . S
C1925 H1947 0.950 . S
C1926 H1922 0.949 . S
C1926 C1934 1.574 . S
C1926 C1942 1.368 . S
H1927 C1935 0.950 . S
H1928 C1933 0.950 . S
H1929 C1934 0.949 . S
H1930 C1936 0.950 . S
H1931 C1937 0.950 . S
H1932 C1938 0.949 . S
C1933 H1928 0.950 . S
C1933 C1935 1.327 . S
C1933 C1939 1.429 . S
C1934 C1926 1.574 . S
C1934 H1929 0.949 . S
C1934 C1940 1.368 . S
C1935 C1919 1.349 . S
C1935 H1927 0.950 . S
C1935 C1933 1.327 . S
C1936 C1924 1.349 . S
C1936 H1930 0.950 . S
C1936 C1937 1.327 . S
C1937 H1931 0.950 . S
C1937 C1936 1.327 . S
C1937 C1941 1.429 . S
C1938 C1921 1.574 . S
C1938 H1932 0.949 . S
C1938 C1942 1.368 . S
C1939 C1920 1.429 . S
C1939 C1933 1.429 . S
C1939 C1940 1.523 . S
C1940 C1921 1.368 . S
C1940 C1934 1.368 . S
C1940 C1939 1.523 . S
C1941 C1925 1.429 . S
C1941 C1937 1.429 . S
C1941 C1942 1.523 . S
C1942 C1926 1.368 . S
C1942 C1938 1.368 . S
C1942 C1941 1.523 . S
H1943 C1918 0.950 . S
H1944 C1920 0.950 . S
H1945 C1921 0.949 . S
H1946 C1923 0.950 . S
H1947 C1925 0.950 . S
C1948 C1949 1.349 . S
C1948 C1950 1.327 . S
C1948 H1973 0.950 . S
C1949 C1948 1.349 . S
C1949 C1965 1.349 . S
C1950 C1948 1.327 . S
C1950 C1969 1.429 . S
C1950 H1974 0.950 . S
C1951 C1968 1.574 . S
C1951 C1970 1.368 . S
C1951 H1975 0.949 . S
H1952 C1956 0.949 . S
C1953 C1954 1.349 . S
C1953 C1955 1.327 . S
C1953 H1976 0.950 . S
C1954 C1953 1.349 . S
C1954 C1966 1.349 . S
C1955 C1953 1.327 . S
C1955 C1971 1.429 . S
C1955 H1977 0.950 . S
C1956 H1952 0.949 . S
C1956 C1964 1.574 . S
C1956 C1972 1.368 . S
H1957 C1965 0.950 . S
H1958 C1963 0.950 . S
H1959 C1964 0.949 . S
H1960 C1966 0.950 . S
H1961 C1967 0.950 . S
H1962 C1968 0.949 . S
C1963 H1958 0.950 . S
C1963 C1965 1.327 . S
C1963 C1969 1.429 . S
C1964 C1956 1.574 . S
C1964 H1959 0.949 . S
C1964 C1970 1.368 . S
C1965 C1949 1.349 . S
C1965 H1957 0.950 . S
C1965 C1963 1.327 . S
C1966 C1954 1.349 . S
C1966 H1960 0.950 . S
C1966 C1967 1.327 . S
C1967 H1961 0.950 . S
C1967 C1966 1.327 . S
C1967 C1971 1.429 . S
C1968 C1951 1.574 . S
C1968 H1962 0.949 . S
C1968 C1972 1.368 . S
C1969 C1950 1.429 . S
C1969 C1963 1.429 . S
C1969 C1970 1.523 . S
C1970 C1951 1.368 . S
C1970 C1964 1.368 . S
C1970 C1969 1.523 . S
C1971 C1955 1.429 . S
C1971 C1967 1.429 . S
C1971 C1972 1.523 . S
C1972 C1956 1.368 . S
C1972 C1968 1.368 . S
C1972 C1971 1.523 . S
H1973 C1948 0.950 . S
H1974 C1950 0.950 . S
H1975 C1951 0.949 . S
H1976 C1953 0.950 . S
H1977 C1955 0.950 . S
C1978 C1979 1.349 . S
C1978 C1980 1.327 . S
C1978 H2003 0.950 . S
C1979 C1978 1.349 . S
C1979 C1995 1.349 . S
C1980 C1978 1.327 . S
C1980 C1999 1.429 . S
C1980 H2004 0.950 . S
C1981 C1998 1.574 1_554 S
C1981 C2000 1.368 . S
C1981 H2005 0.949 . S
H1982 C1986 0.949 . S
C1983 C1984 1.349 . S
C1983 C1985 1.327 . S
C1983 H2006 0.950 . S
C1984 C1983 1.349 . S
C1984 C1996 1.349 . S
C1985 C1983 1.327 . S
C1985 C2001 1.429 . S
C1985 H2007 0.950 . S
C1986 H1982 0.949 . S
C1986 C1994 1.574 . S
C1986 C2002 1.368 1_554 S
H1987 C1995 0.950 . S
H1988 C1993 0.950 . S
H1989 C1994 0.949 . S
H1990 C1996 0.950 . S
H1991 C1997 0.950 . S
H1992 C1998 0.949 . S
C1993 H1988 0.950 . S
C1993 C1995 1.327 . S
C1993 C1999 1.429 . S
C1994 C1986 1.574 . S
C1994 H1989 0.949 . S
C1994 C2000 1.368 . S
C1995 C1979 1.349 . S
C1995 H1987 0.950 . S
C1995 C1993 1.327 . S
C1996 C1984 1.349 . S
C1996 H1990 0.950 . S
C1996 C1997 1.327 . S
C1997 H1991 0.950 . S
C1997 C1996 1.327 . S
C1997 C2001 1.429 . S
C1998 C1981 1.574 1_556 S
C1998 H1992 0.949 . S
C1998 C2002 1.368 . S
C1999 C1980 1.429 . S
C1999 C1993 1.429 . S
C1999 C2000 1.523 . S
C2000 C1981 1.368 . S
C2000 C1994 1.368 . S
C2000 C1999 1.523 . S
C2001 C1985 1.429 . S
C2001 C1997 1.429 . S
C2001 C2002 1.523 . S
C2002 C1986 1.368 1_556 S
C2002 C1998 1.368 . S
C2002 C2001 1.523 . S
H2003 C1978 0.950 . S
H2004 C1980 0.950 . S
H2005 C1981 0.949 . S
H2006 C1983 0.950 . S
H2007 C1985 0.950 . S
C2008 C2009 1.349 . S
C2008 C2010 1.327 . S
C2008 H2033 0.950 . S
C2009 C2008 1.349 . S
C2009 C2025 1.349 . S
C2010 C2008 1.327 . S
C2010 C2029 1.429 . S
C2010 H2034 0.950 . S
C2011 C2028 1.574 . S
C2011 C2030 1.368 . S
C2011 H2035 0.949 . S
H2012 C2016 0.949 . S
C2013 C2014 1.349 . S
C2013 C2015 1.327 . S
C2013 H2036 0.950 . S
C2014 C2013 1.349 . S
C2014 C2026 1.349 . S
C2015 C2013 1.327 . S
C2015 C2031 1.429 . S
C2015 H2037 0.950 . S
C2016 H2012 0.949 . S
C2016 C2024 1.574 . S
C2016 C2032 1.368 . S
H2017 C2025 0.950 . S
H2018 C2023 0.950 . S
H2019 C2024 0.949 . S
H2020 C2026 0.950 . S
H2021 C2027 0.950 . S
H2022 C2028 0.949 . S
C2023 H2018 0.950 . S
C2023 C2025 1.327 . S
C2023 C2029 1.429 . S
C2024 C2016 1.574 . S
C2024 H2019 0.949 . S
C2024 C2030 1.368 . S
C2025 C2009 1.349 . S
C2025 H2017 0.950 . S
C2025 C2023 1.327 . S
C2026 C2014 1.349 . S
C2026 H2020 0.950 . S
C2026 C2027 1.327 . S
C2027 H2021 0.950 . S
C2027 C2026 1.327 . S
C2027 C2031 1.429 . S
C2028 C2011 1.574 . S
C2028 H2022 0.949 . S
C2028 C2032 1.368 . S
C2029 C2010 1.429 . S
C2029 C2023 1.429 . S
C2029 C2030 1.523 . S
C2030 C2011 1.368 . S
C2030 C2024 1.368 . S
C2030 C2029 1.523 . S
C2031 C2015 1.429 . S
C2031 C2027 1.429 . S
C2031 C2032 1.523 . S
C2032 C2016 1.368 . S
C2032 C2028 1.368 . S
C2032 C2031 1.523 . S
H2033 C2008 0.950 . S
H2034 C2010 0.950 . S
H2035 C2011 0.949 . S
H2036 C2013 0.950 . S
H2037 C2015 0.950 . S
C2038 C2039 1.349 . S
C2038 C2040 1.327 . S
C2038 H2063 0.950 . S
C2039 C2038 1.349 . S
C2039 C2055 1.349 . S
C2040 C2038 1.327 . S
C2040 C2059 1.429 . S
C2040 H2064 0.950 . S
C2041 C2058 1.574 . S
C2041 C2060 1.368 . S
C2041 H2065 0.949 . S
H2042 C2046 0.949 . S
C2043 C2044 1.349 . S
C2043 C2045 1.327 . S
C2043 H2066 0.950 . S
C2044 C2043 1.349 . S
C2044 C2056 1.349 . S
C2045 C2043 1.327 . S
C2045 C2061 1.429 . S
C2045 H2067 0.950 . S
C2046 H2042 0.949 . S
C2046 C2054 1.574 . S
C2046 C2062 1.368 . S
H2047 C2055 0.950 . S
H2048 C2053 0.950 . S
H2049 C2054 0.949 . S
H2050 C2056 0.950 . S
H2051 C2057 0.950 . S
H2052 C2058 0.949 . S
C2053 H2048 0.950 . S
C2053 C2055 1.327 . S
C2053 C2059 1.429 . S
C2054 C2046 1.574 . S
C2054 H2049 0.949 . S
C2054 C2060 1.368 . S
C2055 C2039 1.349 . S
C2055 H2047 0.950 . S
C2055 C2053 1.327 . S
C2056 C2044 1.349 . S
C2056 H2050 0.950 . S
C2056 C2057 1.327 . S
C2057 H2051 0.950 . S
C2057 C2056 1.327 . S
C2057 C2061 1.429 . S
C2058 C2041 1.574 . S
C2058 H2052 0.949 . S
C2058 C2062 1.368 . S
C2059 C2040 1.429 . S
C2059 C2053 1.429 . S
C2059 C2060 1.523 . S
C2060 C2041 1.368 . S
C2060 C2054 1.368 . S
C2060 C2059 1.523 . S
C2061 C2045 1.429 . S
C2061 C2057 1.429 . S
C2061 C2062 1.523 . S
C2062 C2046 1.368 . S
C2062 C2058 1.368 . S
C2062 C2061 1.523 . S
H2063 C2038 0.950 . S
H2064 C2040 0.950 . S
H2065 C2041 0.949 . S
H2066 C2043 0.950 . S
H2067 C2045 0.950 . S
C2068 C2069 1.349 . S
C2068 C2070 1.327 . S
C2068 H2093 0.950 . S
C2069 C2068 1.349 . S
C2069 C2085 1.349 . S
C2070 C2068 1.327 . S
C2070 C2089 1.429 . S
C2070 H2094 0.950 . S
C2071 C2088 1.574 . S
C2071 C2090 1.368 . S
C2071 H2095 0.949 . S
H2072 C2076 0.949 . S
C2073 C2074 1.349 . S
C2073 C2075 1.327 . S
C2073 H2096 0.950 . S
C2074 C2073 1.349 . S
C2074 C2086 1.349 . S
C2075 C2073 1.327 . S
C2075 C2091 1.429 . S
C2075 H2097 0.950 . S
C2076 H2072 0.949 . S
C2076 C2084 1.574 . S
C2076 C2092 1.368 . S
H2077 C2085 0.950 . S
H2078 C2083 0.950 . S
H2079 C2084 0.949 . S
H2080 C2086 0.950 . S
H2081 C2087 0.950 . S
H2082 C2088 0.949 . S
C2083 H2078 0.950 . S
C2083 C2085 1.327 . S
C2083 C2089 1.429 . S
C2084 C2076 1.574 . S
C2084 H2079 0.949 . S
C2084 C2090 1.368 . S
C2085 C2069 1.349 . S
C2085 H2077 0.950 . S
C2085 C2083 1.327 . S
C2086 C2074 1.349 . S
C2086 H2080 0.950 . S
C2086 C2087 1.327 . S
C2087 H2081 0.950 . S
C2087 C2086 1.327 . S
C2087 C2091 1.429 . S
C2088 C2071 1.574 . S
C2088 H2082 0.949 . S
C2088 C2092 1.368 . S
C2089 C2070 1.429 . S
C2089 C2083 1.429 . S
C2089 C2090 1.523 . S
C2090 C2071 1.368 . S
C2090 C2084 1.368 . S
C2090 C2089 1.523 . S
C2091 C2075 1.429 . S
C2091 C2087 1.429 . S
C2091 C2092 1.523 . S
C2092 C2076 1.368 . S
C2092 C2088 1.368 . S
C2092 C2091 1.523 . S
H2093 C2068 0.950 . S
H2094 C2070 0.950 . S
H2095 C2071 0.949 . S
H2096 C2073 0.950 . S
H2097 C2075 0.950 . S
C2098 C2099 1.349 . S
C2098 C2100 1.327 . S
C2098 H2123 0.950 . S
C2099 C2098 1.349 . S
C2099 C2115 1.349 . S
C2100 C2098 1.327 . S
C2100 C2119 1.429 . S
C2100 H2124 0.950 . S
C2101 C2118 1.574 . S
C2101 C2120 1.368 . S
C2101 H2125 0.949 . S
H2102 C2106 0.949 . S
C2103 C2104 1.349 . S
C2103 C2105 1.327 . S
C2103 H2126 0.950 . S
C2104 C2103 1.349 . S
C2104 C2116 1.349 . S
C2105 C2103 1.327 . S
C2105 C2121 1.429 . S
C2105 H2127 0.950 . S
C2106 H2102 0.949 . S
C2106 C2114 1.574 . S
C2106 C2122 1.368 . S
H2107 C2115 0.950 . S
H2108 C2113 0.950 . S
H2109 C2114 0.949 . S
H2110 C2116 0.950 . S
H2111 C2117 0.950 . S
H2112 C2118 0.949 . S
C2113 H2108 0.950 . S
C2113 C2115 1.327 . S
C2113 C2119 1.429 . S
C2114 C2106 1.574 . S
C2114 H2109 0.949 . S
C2114 C2120 1.368 . S
C2115 C2099 1.349 . S
C2115 H2107 0.950 . S
C2115 C2113 1.327 . S
C2116 C2104 1.349 . S
C2116 H2110 0.950 . S
C2116 C2117 1.327 . S
C2117 H2111 0.950 . S
C2117 C2116 1.327 . S
C2117 C2121 1.429 . S
C2118 C2101 1.574 . S
C2118 H2112 0.949 . S
C2118 C2122 1.368 . S
C2119 C2100 1.429 . S
C2119 C2113 1.429 . S
C2119 C2120 1.523 . S
C2120 C2101 1.368 . S
C2120 C2114 1.368 . S
C2120 C2119 1.523 . S
C2121 C2105 1.429 . S
C2121 C2117 1.429 . S
C2121 C2122 1.523 . S
C2122 C2106 1.368 . S
C2122 C2118 1.368 . S
C2122 C2121 1.523 . S
H2123 C2098 0.950 . S
H2124 C2100 0.950 . S
H2125 C2101 0.949 . S
H2126 C2103 0.950 . S
H2127 C2105 0.950 . S
C2128 C2129 1.349 . S
C2128 C2130 1.327 . S
C2128 H2153 0.950 . S
C2129 C2128 1.349 . S
C2129 C2145 1.349 . S
C2130 C2128 1.327 . S
C2130 C2149 1.429 . S
C2130 H2154 0.950 . S
C2131 C2148 1.574 1_554 S
C2131 C2150 1.368 . S
C2131 H2155 0.955 . S
H2132 C2136 0.949 . S
C2133 C2134 1.349 . S
C2133 C2135 1.327 . S
C2133 H2156 0.950 . S
C2134 C2133 1.349 . S
C2134 C2146 1.349 . S
C2135 C2133 1.327 . S
C2135 C2151 1.429 . S
C2135 H2157 0.950 . S
C2136 H2132 0.949 . S
C2136 C2144 1.574 . S
C2136 C2152 1.368 1_554 S
H2137 C2145 0.950 . S
H2138 C2143 0.950 . S
H2139 C2144 0.949 . S
H2140 C2146 0.950 . S
H2141 C2147 0.950 . S
H2142 C2148 0.949 . S
C2143 H2138 0.950 . S
C2143 C2145 1.327 . S
C2143 C2149 1.429 . S
C2144 C2136 1.574 . S
C2144 H2139 0.949 . S
C2144 C2150 1.368 . S
C2145 C2129 1.349 . S
C2145 H2137 0.950 . S
C2145 C2143 1.327 . S
C2146 C2134 1.349 . S
C2146 H2140 0.950 . S
C2146 C2147 1.327 . S
C2147 H2141 0.950 . S
C2147 C2146 1.327 . S
C2147 C2151 1.429 . S
C2148 C2131 1.574 1_556 S
C2148 H2142 0.949 . S
C2148 C2152 1.368 . S
C2149 C2130 1.429 . S
C2149 C2143 1.429 . S
C2149 C2150 1.523 . S
C2150 C2131 1.368 . S
C2150 C2144 1.368 . S
C2150 C2149 1.523 . S
C2151 C2135 1.429 . S
C2151 C2147 1.429 . S
C2151 C2152 1.523 . S
C2152 C2136 1.368 1_556 S
C2152 C2148 1.368 . S
C2152 C2151 1.523 . S
H2153 C2128 0.950 . S
H2154 C2130 0.950 . S
H2155 C2131 0.955 . S
H2156 C2133 0.950 . S
H2157 C2135 0.950 . S
C2158 C2159 1.349 . S
C2158 C2160 1.327 . S
C2158 H2183 0.950 . S
C2159 C2158 1.349 . S
C2159 C2175 1.349 . S
C2160 C2158 1.327 . S
C2160 C2179 1.429 . S
C2160 H2184 0.950 . S
C2161 C2178 1.574 . S
C2161 C2180 1.368 . S
C2161 H2185 0.949 . S
H2162 C2166 0.949 . S
C2163 C2164 1.349 . S
C2163 C2165 1.327 . S
C2163 H2186 0.950 . S
C2164 C2163 1.349 . S
C2164 C2176 1.349 . S
C2165 C2163 1.327 . S
C2165 C2181 1.429 . S
C2165 H2187 0.950 . S
C2166 H2162 0.949 . S
C2166 C2174 1.574 . S
C2166 C2182 1.368 . S
H2167 C2175 0.950 . S
H2168 C2173 0.950 . S
H2169 C2174 0.949 . S
H2170 C2176 0.950 . S
H2171 C2177 0.950 . S
H2172 C2178 0.949 . S
C2173 H2168 0.950 . S
C2173 C2175 1.327 . S
C2173 C2179 1.429 . S
C2174 C2166 1.574 . S
C2174 H2169 0.949 . S
C2174 C2180 1.368 . S
C2175 C2159 1.349 . S
C2175 H2167 0.950 . S
C2175 C2173 1.327 . S
C2176 C2164 1.349 . S
C2176 H2170 0.950 . S
C2176 C2177 1.327 . S
C2177 H2171 0.950 . S
C2177 C2176 1.327 . S
C2177 C2181 1.429 . S
C2178 C2161 1.574 . S
C2178 H2172 0.949 . S
C2178 C2182 1.368 . S
C2179 C2160 1.429 . S
C2179 C2173 1.429 . S
C2179 C2180 1.523 . S
C2180 C2161 1.368 . S
C2180 C2174 1.368 . S
C2180 C2179 1.523 . S
C2181 C2165 1.429 . S
C2181 C2177 1.429 . S
C2181 C2182 1.523 . S
C2182 C2166 1.368 . S
C2182 C2178 1.368 . S
C2182 C2181 1.523 . S
H2183 C2158 0.950 . S
H2184 C2160 0.950 . S
H2185 C2161 0.949 . S
H2186 C2163 0.950 . S
H2187 C2165 0.950 . S
C2188 C2189 1.349 . S
C2188 C2190 1.327 . S
C2188 H2213 0.950 . S
C2189 C2188 1.349 . S
C2189 C2205 1.349 . S
C2190 C2188 1.327 . S
C2190 C2209 1.429 . S
C2190 H2214 0.950 . S
C2191 C2208 1.574 . S
C2191 C2210 1.368 . S
C2191 H2215 0.949 . S
H2192 C2196 0.949 . S
C2193 C2194 1.349 . S
C2193 C2195 1.327 . S
C2193 H2216 0.950 . S
C2194 C2193 1.349 . S
C2194 C2206 1.349 . S
C2195 C2193 1.327 . S
C2195 C2211 1.429 . S
C2195 H2217 0.950 . S
C2196 H2192 0.949 . S
C2196 C2204 1.574 . S
C2196 C2212 1.368 . S
H2197 C2205 0.950 . S
H2198 C2203 0.950 . S
H2199 C2204 0.949 . S
H2200 C2206 0.950 . S
H2201 C2207 0.950 . S
H2202 C2208 0.949 . S
C2203 H2198 0.950 . S
C2203 C2205 1.327 . S
C2203 C2209 1.429 . S
C2204 C2196 1.574 . S
C2204 H2199 0.949 . S
C2204 C2210 1.368 . S
C2205 C2189 1.349 . S
C2205 H2197 0.950 . S
C2205 C2203 1.327 . S
C2206 C2194 1.349 . S
C2206 H2200 0.950 . S
C2206 C2207 1.327 . S
C2207 H2201 0.950 . S
C2207 C2206 1.327 . S
C2207 C2211 1.429 . S
C2208 C2191 1.574 . S
C2208 H2202 0.949 . S
C2208 C2212 1.368 . S
C2209 C2190 1.429 . S
C2209 C2203 1.429 . S
C2209 C2210 1.523 . S
C2210 C2191 1.368 . S
C2210 C2204 1.368 . S
C2210 C2209 1.523 . S
C2211 C2195 1.429 . S
C2211 C2207 1.429 . S
C2211 C2212 1.523 . S
C2212 C2196 1.368 . S
C2212 C2208 1.368 . S
C2212 C2211 1.523 . S
H2213 C2188 0.950 . S
H2214 C2190 0.950 . S
H2215 C2191 0.949 . S
H2216 C2193 0.950 . S
H2217 C2195 0.950 . S
C2218 C2219 1.349 . S
C2218 C2220 1.327 . S
C2218 H2243 0.950 . S
C2219 C2218 1.349 . S
C2219 C2235 1.349 . S
C2220 C2218 1.327 . S
C2220 C2239 1.429 . S
C2220 H2244 0.950 . S
C2221 C2238 1.574 . S
C2221 C2240 1.368 . S
C2221 H2245 0.949 . S
H2222 C2226 0.949 . S
C2223 C2224 1.349 . S
C2223 C2225 1.327 . S
C2223 H2246 0.950 . S
C2224 C2223 1.349 . S
C2224 C2236 1.349 . S
C2225 C2223 1.327 . S
C2225 C2241 1.429 . S
C2225 H2247 0.950 . S
C2226 H2222 0.949 . S
C2226 C2234 1.574 . S
C2226 C2242 1.368 . S
H2227 C2235 0.950 . S
H2228 C2233 0.950 . S
H2229 C2234 0.949 . S
H2230 C2236 0.950 . S
H2231 C2237 0.950 . S
H2232 C2238 0.949 . S
C2233 H2228 0.950 . S
C2233 C2235 1.327 . S
C2233 C2239 1.429 . S
C2234 C2226 1.574 . S
C2234 H2229 0.949 . S
C2234 C2240 1.368 . S
C2235 C2219 1.349 . S
C2235 H2227 0.950 . S
C2235 C2233 1.327 . S
C2236 C2224 1.349 . S
C2236 H2230 0.950 . S
C2236 C2237 1.327 . S
C2237 H2231 0.950 . S
C2237 C2236 1.327 . S
C2237 C2241 1.429 . S
C2238 C2221 1.574 . S
C2238 H2232 0.949 . S
C2238 C2242 1.368 . S
C2239 C2220 1.429 . S
C2239 C2233 1.429 . S
C2239 C2240 1.523 . S
C2240 C2221 1.368 . S
C2240 C2234 1.368 . S
C2240 C2239 1.523 . S
C2241 C2225 1.429 . S
C2241 C2237 1.429 . S
C2241 C2242 1.523 . S
C2242 C2226 1.368 . S
C2242 C2238 1.368 . S
C2242 C2241 1.523 . S
H2243 C2218 0.950 . S
H2244 C2220 0.950 . S
H2245 C2221 0.949 . S
H2246 C2223 0.950 . S
H2247 C2225 0.950 . S
C2248 C2249 1.349 . S
C2248 C2250 1.327 . S
C2248 H2273 0.950 . S
C2249 C2248 1.349 . S
C2249 C2265 1.349 . S
C2250 C2248 1.327 . S
C2250 C2269 1.429 . S
C2250 H2274 0.950 . S
C2251 C2268 1.574 1_554 S
C2251 C2270 1.368 . S
C2251 H2275 0.949 . S
H2252 C2256 0.949 . S
C2253 C2254 1.349 . S
C2253 C2255 1.327 . S
C2253 H2276 0.950 . S
C2254 C2253 1.349 . S
C2254 C2266 1.349 . S
C2255 C2253 1.327 . S
C2255 C2271 1.429 . S
C2255 H2277 0.950 . S
C2256 H2252 0.949 . S
C2256 C2264 1.574 . S
C2256 C2272 1.368 . S
H2257 C2265 0.950 . S
H2258 C2263 0.950 . S
H2259 C2264 0.949 . S
H2260 C2266 0.950 . S
H2261 C2267 0.950 . S
H2262 C2268 0.949 . S
C2263 H2258 0.950 . S
C2263 C2265 1.327 . S
C2263 C2269 1.429 . S
C2264 C2256 1.574 . S
C2264 H2259 0.949 . S
C2264 C2270 1.368 1_556 S
C2265 C2249 1.349 . S
C2265 H2257 0.950 . S
C2265 C2263 1.327 . S
C2266 C2254 1.349 . S
C2266 H2260 0.950 . S
C2266 C2267 1.327 . S
C2267 H2261 0.950 . S
C2267 C2266 1.327 . S
C2267 C2271 1.429 . S
C2268 C2251 1.574 1_556 S
C2268 H2262 0.949 . S
C2268 C2272 1.368 . S
C2269 C2250 1.429 . S
C2269 C2263 1.429 . S
C2269 C2270 1.523 . S
C2270 C2251 1.368 . S
C2270 C2264 1.368 1_554 S
C2270 C2269 1.523 . S
C2271 C2255 1.429 . S
C2271 C2267 1.429 . S
C2271 C2272 1.523 . S
C2272 C2256 1.368 . S
C2272 C2268 1.368 . S
C2272 C2271 1.523 . S
H2273 C2248 0.950 . S
H2274 C2250 0.950 . S
H2275 C2251 0.949 . S
H2276 C2253 0.950 . S
H2277 C2255 0.950 . S
C2278 C2279 1.349 . S
C2278 C2280 1.327 . S
C2278 H2303 0.950 . S
C2279 C2278 1.349 . S
C2279 C2295 1.349 . S
C2280 C2278 1.327 . S
C2280 C2299 1.429 . S
C2280 H2304 0.950 . S
C2281 C2298 1.574 . S
C2281 C2300 1.368 . S
C2281 H2305 0.949 . S
H2282 C2286 0.949 . S
C2283 C2284 1.349 . S
C2283 C2285 1.327 . S
C2283 H2306 0.950 . S
C2284 C2283 1.349 . S
C2284 C2296 1.349 . S
C2285 C2283 1.327 . S
C2285 C2301 1.429 . S
C2285 H2307 0.950 . S
C2286 H2282 0.949 . S
C2286 C2294 1.574 . S
C2286 C2302 1.368 . S
H2287 C2295 0.950 . S
H2288 C2293 0.950 . S
H2289 C2294 0.949 . S
H2290 C2296 0.950 . S
H2291 C2297 0.950 . S
H2292 C2298 0.949 . S
C2293 H2288 0.950 . S
C2293 C2295 1.327 . S
C2293 C2299 1.429 . S
C2294 C2286 1.574 . S
C2294 H2289 0.949 . S
C2294 C2300 1.368 . S
C2295 C2279 1.349 . S
C2295 H2287 0.950 . S
C2295 C2293 1.327 . S
C2296 C2284 1.349 . S
C2296 H2290 0.950 . S
C2296 C2297 1.327 . S
C2297 H2291 0.950 . S
C2297 C2296 1.327 . S
C2297 C2301 1.429 . S
C2298 C2281 1.574 . S
C2298 H2292 0.949 . S
C2298 C2302 1.368 . S
C2299 C2280 1.429 . S
C2299 C2293 1.429 . S
C2299 C2300 1.523 . S
C2300 C2281 1.368 . S
C2300 C2294 1.368 . S
C2300 C2299 1.523 . S
C2301 C2285 1.429 . S
C2301 C2297 1.429 . S
C2301 C2302 1.523 . S
C2302 C2286 1.368 . S
C2302 C2298 1.368 . S
C2302 C2301 1.523 . S
H2303 C2278 0.950 . S
H2304 C2280 0.950 . S
H2305 C2281 0.949 . S
H2306 C2283 0.950 . S
H2307 C2285 0.950 . S
C2308 C2309 1.349 . S
C2308 C2310 1.327 . S
C2308 H2333 0.950 . S
C2309 C2308 1.349 . S
C2309 C2325 1.349 . S
C2310 C2308 1.327 . S
C2310 C2329 1.429 . S
C2310 H2334 0.950 . S
C2311 C2328 1.574 . S
C2311 C2330 1.368 . S
C2311 H2335 0.949 . S
H2312 C2316 0.949 . S
C2313 C2314 1.349 . S
C2313 C2315 1.327 . S
C2313 H2336 0.950 . S
C2314 C2313 1.349 . S
C2314 C2326 1.349 . S
C2315 C2313 1.327 . S
C2315 C2331 1.429 . S
C2315 H2337 0.950 . S
C2316 H2312 0.949 . S
C2316 C2324 1.574 . S
C2316 C2332 1.368 . S
H2317 C2325 0.950 . S
H2318 C2323 0.950 . S
H2319 C2324 0.949 . S
H2320 C2326 0.950 . S
H2321 C2327 0.950 . S
H2322 C2328 0.949 . S
C2323 H2318 0.950 . S
C2323 C2325 1.327 . S
C2323 C2329 1.429 . S
C2324 C2316 1.574 . S
C2324 H2319 0.949 . S
C2324 C2330 1.368 . S
C2325 C2309 1.349 . S
C2325 H2317 0.950 . S
C2325 C2323 1.327 . S
C2326 C2314 1.349 . S
C2326 H2320 0.950 . S
C2326 C2327 1.327 . S
C2327 H2321 0.950 . S
C2327 C2326 1.327 . S
C2327 C2331 1.429 . S
C2328 C2311 1.574 . S
C2328 H2322 0.949 . S
C2328 C2332 1.368 . S
C2329 C2310 1.429 . S
C2329 C2323 1.429 . S
C2329 C2330 1.523 . S
C2330 C2311 1.368 . S
C2330 C2324 1.368 . S
C2330 C2329 1.523 . S
C2331 C2315 1.429 . S
C2331 C2327 1.429 . S
C2331 C2332 1.523 . S
C2332 C2316 1.368 . S
C2332 C2328 1.368 . S
C2332 C2331 1.523 . S
H2333 C2308 0.950 . S
H2334 C2310 0.950 . S
H2335 C2311 0.949 . S
H2336 C2313 0.950 . S
H2337 C2315 0.950 . S
C2338 C2339 1.349 . S
C2338 C2340 1.327 . S
C2338 H2363 0.950 . S
C2339 C2338 1.349 . S
C2339 C2355 1.349 . S
C2340 C2338 1.327 . S
C2340 C2359 1.429 . S
C2340 H2364 0.950 . S
C2341 C2358 1.574 . S
C2341 C2360 1.368 . S
C2341 H2365 0.949 . S
H2342 C2346 0.949 . S
C2343 C2344 1.349 . S
C2343 C2345 1.327 . S
C2343 H2366 0.950 . S
C2344 C2343 1.349 . S
C2344 C2356 1.349 . S
C2345 C2343 1.327 . S
C2345 C2361 1.429 . S
C2345 H2367 0.950 . S
C2346 H2342 0.949 . S
C2346 C2354 1.574 . S
C2346 C2362 1.368 . S
H2347 C2355 0.950 . S
H2348 C2353 0.950 . S
H2349 C2354 0.949 . S
H2350 C2356 0.950 . S
H2351 C2357 0.950 . S
H2352 C2358 0.949 . S
C2353 H2348 0.950 . S
C2353 C2355 1.327 . S
C2353 C2359 1.429 . S
C2354 C2346 1.574 . S
C2354 H2349 0.949 . S
C2354 C2360 1.368 . S
C2355 C2339 1.349 . S
C2355 H2347 0.950 . S
C2355 C2353 1.327 . S
C2356 C2344 1.349 . S
C2356 H2350 0.950 . S
C2356 C2357 1.327 . S
C2357 H2351 0.950 . S
C2357 C2356 1.327 . S
C2357 C2361 1.429 . S
C2358 C2341 1.574 . S
C2358 H2352 0.949 . S
C2358 C2362 1.368 . S
C2359 C2340 1.429 . S
C2359 C2353 1.429 . S
C2359 C2360 1.523 . S
C2360 C2341 1.368 . S
C2360 C2354 1.368 . S
C2360 C2359 1.523 . S
C2361 C2345 1.429 . S
C2361 C2357 1.429 . S
C2361 C2362 1.523 . S
C2362 C2346 1.368 . S
C2362 C2358 1.368 . S
C2362 C2361 1.523 . S
H2363 C2338 0.950 . S
H2364 C2340 0.950 . S
H2365 C2341 0.949 . S
H2366 C2343 0.950 . S
H2367 C2345 0.950 . S
C449 C9 1.081 . S
C454 C191 1.080 . S
C479 C359 1.080 . S
C484 C23 1.081 . S
C509 C37 1.081 . S
C514 C219 1.080 . S
C539 C51 1.081 . S
C544 C345 1.080 . S
C569 C65 1.081 . S
C574 C247 1.080 . S
C599 C79 1.081 . S
C604 C317 1.080 . S
C629 C93 1.081 . S
C634 C275 1.080 . S
C659 C443 1.080 . S
C664 C107 1.081 . S
C689 C303 1.080 . S
C694 C121 1.081 . S
C719 C135 1.081 . S
C724 C261 1.080 . S
C749 C331 1.080 . S
C754 C149 1.081 . S
C779 C163 1.081 . S
C784 C233 1.080 . S
C809 C205 1.080 . S
C814 C177 1.081 . S
C839 C289 1.080 . S
C844 C401 1.081 . S
C869 C415 1.080 . S
C874 C373 1.081 . S
C899 C429 1.080 . S
C904 C387 1.081 . S
C929 C5 1.791 . S
C934 C19 1.791 . S
C959 C28 1.409 . S
C964 C25 1.434 . S
C989 C47 1.791 . S
C994 C33 1.791 . S
C1019 C53 1.434 . S
C1024 C0 1.409 . S
C1049 C103 1.791 . S
C1054 C61 1.791 . S
C1079 C81 1.434 . S
C1084 C56 1.409 . S
C1109 C89 1.791 . S
C1114 C75 1.791 . S
C1139 C84 1.409 . S
C1144 C109 1.434 . S
C1169 C126 1.409 . S
C1174 C11 1.434 . S
C1199 C123 1.434 . S
C1204 C42 1.409 . S
C1229 C151 1.434 . S
C1234 C14 1.409 . S
C1259 C389 1.434 . S
C1264 C98 1.409 . S
C1289 C392 1.409 . S
C1294 C39 1.434 . S
C1319 C154 1.409 . S
C1324 C67 1.434 . S
C1349 C95 1.434 . S
C1354 C168 1.409 . S
C1379 C207 1.759 . S
C1384 C193 1.759 . S
C1409 C210 1.467 . S
C1414 C201 1.478 . S
C1439 C235 1.759 . S
C1444 C221 1.759 . S
C1469 C182 1.467 . S
C1474 C229 1.478 . S
C1499 C249 1.759 . S
C1504 C291 1.759 . S
C1529 C238 1.467 . S
C1534 C257 1.478 . S
C1559 C277 1.759 . S
C1564 C263 1.759 . S
C1589 C266 1.467 . S
C1594 C285 1.478 . S
C1619 C187 1.478 . S
C1624 C308 1.467 . S
C1649 C299 1.478 . S
C1654 C224 1.467 . S
C1679 C327 1.478 . S
C1684 C196 1.467 . S
C1709 C425 1.478 . S
C1714 C280 1.467 . S
C1739 C434 1.467 . S
C1744 C215 1.478 . S
C1769 C243 1.478 . S
C1774 C336 1.467 . S
C1799 C350 1.467 . S
C1804 C271 1.478 . S
C1829 C173 1.791 . S
C1834 C369 1.791 . S
C1859 C378 1.409 . S
C1864 C179 1.434 . S
C1889 C159 1.791 . S
C1894 C383 1.791 . S
C1919 C165 1.434 . S
C1924 C364 1.409 . S
C1949 C117 1.791 . S
C1954 C397 1.791 . S
C1979 C137 1.434 . S
C1984 C112 1.409 . S
C2009 C145 1.791 . S
C2014 C131 1.791 . S
C2039 C140 1.409 . S
C2044 C403 1.434 . S
C2069 C375 1.434 . S
C2074 C70 1.409 . S
C2099 C361 1.759 . S
C2104 C417 1.759 . S
C2129 C355 1.478 . S
C2134 C420 1.467 . S
C2159 C431 1.759 . S
C2164 C347 1.759 . S
C2189 C341 1.478 . S
C2194 C406 1.467 . S
C2219 C445 1.759 . S
C2224 C305 1.759 . S
C2249 C294 1.467 . S
C2254 C313 1.478 . S
C2279 C333 1.759 . S
C2284 C319 1.759 . S
C2309 C322 1.467 . S
C2314 C439 1.478 . S
C2339 C411 1.478 . S
C2344 C252 1.467 . S
