# Generated by pormake.
# Topology ung, (4)-cn, num edge types: 1
# Building blocks:
#     Node 0, Type 0, BuildingBlock: NAWXER_clean_sbu_0, # of connection points: 4
#     Node 1, Type 0, BuildingBlock: NAWXER_clean_sbu_0, # of connection points: 4
#     Node 2, Type 0, BuildingBlock: NAWXER_clean_sbu_0, # of connection points: 4
#     Node 3, Type 0, BuildingBlock: NAWXER_clean_sbu_0, # of connection points: 4
#     Node 4, Type 0, BuildingBlock: NAWXER_clean_sbu_0, # of connection points: 4
#     Node 5, Type 0, BuildingBlock: NAWXER_clean_sbu_0, # of connection points: 4
#     Node 6, Type 0, BuildingBlock: NAWXER_clean_sbu_0, # of connection points: 4
#     Node 7, Type 0, BuildingBlock: NAWXER_clean_sbu_0, # of connection points: 4
#     Node 8, Type 0, BuildingBlock: NAWXER_clean_sbu_0, # of connection points: 4
#     Node 9, Type 0, BuildingBlock: NAWXER_clean_sbu_0, # of connection points: 4
#     Node 10, Type 0, BuildingBlock: NAWXER_clean_sbu_0, # of connection points: 4
#     Node 11, Type 0, BuildingBlock: NAWXER_clean_sbu_0, # of connection points: 4
#     Node 12, Type 0, BuildingBlock: NAWXER_clean_sbu_0, # of connection points: 4
#     Node 13, Type 0, BuildingBlock: NAWXER_clean_sbu_0, # of connection points: 4
#     Node 14, Type 0, BuildingBlock: NAWXER_clean_sbu_0, # of connection points: 4
#     Node 15, Type 0, BuildingBlock: NAWXER_clean_sbu_0, # of connection points: 4
#     Node 16, Type 0, BuildingBlock: NAWXER_clean_sbu_0, # of connection points: 4
#     Node 17, Type 0, BuildingBlock: NAWXER_clean_sbu_0, # of connection points: 4
#     Edge 18, Type (0, 0), BuildingBlock: XIVTED_clean_linker_0, # of connection points: 2
#     Edge 19, Type (0, 0), BuildingBlock: XIVTED_clean_linker_0, # of connection points: 2
#     Edge 20, Type (0, 0), BuildingBlock: XIVTED_clean_linker_0, # of connection points: 2
#     Edge 21, Type (0, 0), BuildingBlock: XIVTED_clean_linker_0, # of connection points: 2
#     Edge 22, Type (0, 0), BuildingBlock: XIVTED_clean_linker_0, # of connection points: 2
#     Edge 23, Type (0, 0), BuildingBlock: XIVTED_clean_linker_0, # of connection points: 2
#     Edge 24, Type (0, 0), BuildingBlock: XIVTED_clean_linker_0, # of connection points: 2
#     Edge 25, Type (0, 0), BuildingBlock: XIVTED_clean_linker_0, # of connection points: 2
#     Edge 26, Type (0, 0), BuildingBlock: XIVTED_clean_linker_0, # of connection points: 2
#     Edge 27, Type (0, 0), BuildingBlock: XIVTED_clean_linker_0, # of connection points: 2
#     Edge 28, Type (0, 0), BuildingBlock: XIVTED_clean_linker_0, # of connection points: 2
#     Edge 29, Type (0, 0), BuildingBlock: XIVTED_clean_linker_0, # of connection points: 2
#     Edge 30, Type (0, 0), BuildingBlock: XIVTED_clean_linker_0, # of connection points: 2
#     Edge 31, Type (0, 0), BuildingBlock: XIVTED_clean_linker_0, # of connection points: 2
#     Edge 32, Type (0, 0), BuildingBlock: XIVTED_clean_linker_0, # of connection points: 2
#     Edge 33, Type (0, 0), BuildingBlock: XIVTED_clean_linker_0, # of connection points: 2
#     Edge 34, Type (0, 0), BuildingBlock: XIVTED_clean_linker_0, # of connection points: 2
#     Edge 35, Type (0, 0), BuildingBlock: XIVTED_clean_linker_0, # of connection points: 2
#     Edge 36, Type (0, 0), BuildingBlock: XIVTED_clean_linker_0, # of connection points: 2
#     Edge 37, Type (0, 0), BuildingBlock: XIVTED_clean_linker_0, # of connection points: 2
#     Edge 38, Type (0, 0), BuildingBlock: XIVTED_clean_linker_0, # of connection points: 2
#     Edge 39, Type (0, 0), BuildingBlock: XIVTED_clean_linker_0, # of connection points: 2
#     Edge 40, Type (0, 0), BuildingBlock: XIVTED_clean_linker_0, # of connection points: 2
#     Edge 41, Type (0, 0), BuildingBlock: XIVTED_clean_linker_0, # of connection points: 2
#     Edge 42, Type (0, 0), BuildingBlock: XIVTED_clean_linker_0, # of connection points: 2
#     Edge 43, Type (0, 0), BuildingBlock: XIVTED_clean_linker_0, # of connection points: 2
#     Edge 44, Type (0, 0), BuildingBlock: XIVTED_clean_linker_0, # of connection points: 2
#     Edge 45, Type (0, 0), BuildingBlock: XIVTED_clean_linker_0, # of connection points: 2
#     Edge 46, Type (0, 0), BuildingBlock: XIVTED_clean_linker_0, # of connection points: 2
#     Edge 47, Type (0, 0), BuildingBlock: XIVTED_clean_linker_0, # of connection points: 2
#     Edge 48, Type (0, 0), BuildingBlock: XIVTED_clean_linker_0, # of connection points: 2
#     Edge 49, Type (0, 0), BuildingBlock: XIVTED_clean_linker_0, # of connection points: 2
#     Edge 50, Type (0, 0), BuildingBlock: XIVTED_clean_linker_0, # of connection points: 2
#     Edge 51, Type (0, 0), BuildingBlock: XIVTED_clean_linker_0, # of connection points: 2
#     Edge 52, Type (0, 0), BuildingBlock: XIVTED_clean_linker_0, # of connection points: 2
#     Edge 53, Type (0, 0), BuildingBlock: XIVTED_clean_linker_0, # of connection points: 2
# Relax obj value: 0.020
# Max RMSD: 0.247
# Mean RMSD: 0.247
data_MOF--net-ung--node1-NAWXER_clean_sbu_0--edge1-XIVTED_clean_linker_0
_symmetry_space_group_name_H-M    P1
_symmetry_Int_Tables_number       1
_symmetry_cell_setting            triclinic
loop_
_symmetry_equiv_pos_as_xyz
'x, y, z'
_cell_length_a     78.556215
_cell_length_b     78.557658
_cell_length_c     21.667845
_cell_angle_alpha  89.995285
_cell_angle_beta   90.00293
_cell_angle_gamma 119.97258
loop_
_atom_site_label
_atom_site_type_symbol
_atom_site_fract_x
_atom_site_fract_y
_atom_site_fract_z
_atom_type_partial_charge
C0 C 0.07462 0.62332 0.34009 0.0
C1 C 0.05456 0.65677 0.19507 0.0
O2 O 0.05811 0.62217 0.33201 0.0
Zn3 Zn 0.0654 0.64015 0.26539 0.0
O4 O 0.08923 0.63491 0.30573 0.0
Zn5 Zn 0.09355 0.65499 0.22947 0.0
O6 O 0.11336 0.67992 0.25861 0.0
O7 O 0.0852 0.66848 0.30838 0.0
O8 O 0.07289 0.66252 0.18813 0.0
O9 O 0.04458 0.64351 0.23426 0.0
O10 O 0.07088 0.62503 0.19072 0.0
O11 O 0.10151 0.6448 0.16241 0.0
C12 C 0.10311 0.68206 0.29976 0.0
C13 C 0.08554 0.62875 0.15574 0.0
C14 C 0.47659 0.49931 0.30515 0.0
C15 C 0.53016 0.53345 0.16076 0.0
O16 O 0.4797 0.51253 0.26599 0.0
Zn17 Zn 0.5041 0.51633 0.23524 0.0
O18 O 0.48941 0.49387 0.31234 0.0
Zn19 Zn 0.51776 0.50187 0.27146 0.0
O20 O 0.53579 0.51227 0.33867 0.0
O21 O 0.52452 0.53171 0.31016 0.0
O22 O 0.53336 0.52202 0.19528 0.0
O23 O 0.51463 0.53434 0.16857 0.0
O24 O 0.49604 0.48806 0.19244 0.0
O25 O 0.51311 0.47708 0.24256 0.0
C26 C 0.53558 0.52819 0.34529 0.0
C27 C 0.50067 0.4747 0.20132 0.0
C28 C 0.65832 0.05514 0.30192 0.0
C29 C 0.62437 0.07518 0.15894 0.0
O30 O 0.64603 0.04555 0.25986 0.0
Zn31 Zn 0.64161 0.06606 0.23254 0.0
O32 O 0.66304 0.07307 0.31225 0.0
Zn33 Zn 0.65563 0.09384 0.27076 0.0
O34 O 0.64508 0.10125 0.3376 0.0
O35 O 0.62591 0.07052 0.30877 0.0
O36 O 0.6356 0.08965 0.19432 0.0
O37 O 0.62374 0.05886 0.16569 0.0
O38 O 0.66984 0.08655 0.19104 0.0
O39 O 0.68069 0.11414 0.24339 0.0
C40 C 0.62928 0.08503 0.34416 0.0
C41 C 0.68321 0.10442 0.2013 0.0
C42 C 0.05579 0.47722 0.69355 0.0
C43 C 0.07458 0.5301 0.84004 0.0
O44 O 0.07418 0.48984 0.68781 0.0
Zn45 Zn 0.09441 0.51813 0.73068 0.0
O46 O 0.04552 0.48033 0.7321 0.0
Zn47 Zn 0.06604 0.50422 0.76471 0.0
O48 O 0.07166 0.52501 0.69041 0.0
O49 O 0.10257 0.53646 0.664 0.0
O50 O 0.0583 0.51449 0.83188 0.0
O51 O 0.08931 0.53347 0.80587 0.0
O52 O 0.11447 0.51385 0.7628 0.0
O53 O 0.08564 0.49524 0.80678 0.0
C54 C 0.08647 0.53624 0.65634 0.0
C55 C 0.1039 0.50047 0.80097 0.0
C56 C 0.65727 0.68003 0.80752 0.0
C57 C 0.62269 0.62712 0.6612 0.0
O58 O 0.66293 0.66731 0.81285 0.0
Zn59 Zn 0.65468 0.63902 0.76989 0.0
O60 O 0.64381 0.67701 0.76937 0.0
Zn61 Zn 0.64019 0.65302 0.73643 0.0
O62 O 0.62516 0.63224 0.81084 0.0
O63 O 0.6446 0.62069 0.83658 0.0
O64 O 0.622 0.64273 0.66954 0.0
O65 O 0.63413 0.62377 0.69506 0.0
O66 O 0.67891 0.6432 0.73708 0.0
O67 O 0.66862 0.66184 0.69356 0.0
C68 C 0.62876 0.62097 0.84465 0.0
C69 C 0.68163 0.65656 0.6989 0.0
C70 C 0.53033 0.07374 0.65973 0.0
C71 C 0.47712 0.05481 0.80534 0.0
O72 O 0.53346 0.08855 0.69325 0.0
Zn73 Zn 0.51792 0.09345 0.76904 0.0
O74 O 0.51493 0.05731 0.66857 0.0
Zn75 Zn 0.50445 0.06508 0.73474 0.0
O76 O 0.49585 0.08469 0.69057 0.0
O77 O 0.51278 0.11314 0.73855 0.0
O78 O 0.48027 0.04454 0.76691 0.0
O79 O 0.48979 0.07314 0.81133 0.0
O80 O 0.53622 0.10173 0.83593 0.0
O81 O 0.52519 0.07092 0.80934 0.0
C82 C 0.50023 0.10266 0.69812 0.0
C83 C 0.53625 0.08576 0.84357 0.0
C84 C 0.74237 0.95703 0.6723 0.0
C85 C 0.72211 0.99144 0.53183 0.0
O86 O 0.72602 0.95642 0.66656 0.0
Zn87 Zn 0.73306 0.97445 0.60019 0.0
O88 O 0.75672 0.9683 0.63656 0.0
Zn89 Zn 0.76076 0.98848 0.56081 0.0
O90 O 0.7812 0.01347 0.58858 0.0
O91 O 0.75382 0.00237 0.64222 0.0
O92 O 0.73997 0.99603 0.52078 0.0
O93 O 0.7126 0.97916 0.57403 0.0
O94 O 0.73718 0.95879 0.52342 0.0
O95 O 0.76779 0.97783 0.49314 0.0
C96 C 0.77166 0.01575 0.63181 0.0
C97 C 0.7515 0.96206 0.48729 0.0
C98 C 0.14195 0.83362 0.63419 0.0
C99 C 0.1956 0.86777 0.49001 0.0
O100 O 0.14425 0.84571 0.59184 0.0
Zn101 Zn 0.16926 0.85044 0.5636 0.0
O102 O 0.15533 0.82911 0.64387 0.0
Zn103 Zn 0.18328 0.83649 0.60155 0.0
O104 O 0.20136 0.84724 0.66807 0.0
O105 O 0.18942 0.86614 0.63952 0.0
O106 O 0.19886 0.85653 0.52529 0.0
O107 O 0.17991 0.86841 0.49674 0.0
O108 O 0.16176 0.8224 0.52178 0.0
O109 O 0.17847 0.81141 0.57367 0.0
C110 C 0.20072 0.86294 0.6747 0.0
C111 C 0.16628 0.80902 0.53157 0.0
C112 C 0.34702 0.43463 0.52469 0.0
C113 C 0.29386 0.41444 0.67093 0.0
O114 O 0.34373 0.44456 0.56406 0.0
Zn115 Zn 0.31971 0.42366 0.59552 0.0
O116 O 0.3345 0.41629 0.51778 0.0
Zn117 Zn 0.3064 0.39555 0.55962 0.0
O118 O 0.2881 0.38751 0.49294 0.0
O119 O 0.29889 0.41812 0.52134 0.0
O120 O 0.29076 0.39983 0.63644 0.0
O121 O 0.30921 0.43094 0.66264 0.0
O122 O 0.32854 0.40394 0.63773 0.0
O123 O 0.31167 0.37577 0.58817 0.0
C124 C 0.28792 0.40344 0.48647 0.0
C125 C 0.32423 0.38604 0.62887 0.0
C126 C 0.76932 0.83287 0.13324 0.0
C127 C 0.75155 0.86819 0.9878 0.0
O128 O 0.75143 0.82861 0.14183 0.0
Zn129 Zn 0.73158 0.83699 0.09846 0.0
O130 O 0.77956 0.84511 0.09174 0.0
Zn131 Zn 0.75972 0.85018 0.06209 0.0
O132 O 0.75545 0.86619 0.13767 0.0
O133 O 0.72438 0.84795 0.16473 0.0
O134 O 0.76755 0.86812 0.99427 0.0
O135 O 0.73698 0.85735 0.02321 0.0
O136 O 0.71078 0.81268 0.06802 0.0
O137 O 0.73906 0.82186 0.02182 0.0
C138 C 0.74091 0.86334 0.17213 0.0
C139 C 0.72075 0.80927 0.02913 0.0
C140 C 0.32433 0.01371 0.13655 0.0
C141 C 0.28933 0.96051 0.99139 0.0
O142 O 0.32974 1.00082 0.14261 0.0
Zn143 Zn 0.32119 0.97235 0.10047 0.0
O144 O 0.31103 0.01081 0.09793 0.0
Zn145 Zn 0.30711 0.9866 0.06586 0.0
O146 O 0.29176 0.96608 0.14077 0.0
O147 O 0.31087 0.95425 0.1676 0.0
O148 O 0.28894 0.97631 0.99882 0.0
O149 O 0.30059 0.95706 0.0258 0.0
O150 O 0.3453 0.97604 0.06834 0.0
O151 O 0.33555 0.99495 0.02363 0.0
C152 C 0.29515 0.95477 0.17518 0.0
C153 C 0.34832 0.98938 0.02971 0.0
C154 C 0.16748 0.43509 0.02445 0.0
C155 C 0.2004 0.41481 0.17074 0.0
O156 O 0.16159 0.41673 0.01767 0.0
Zn157 Zn 0.16887 0.39594 0.05965 0.0
O158 O 0.18075 0.44502 0.06367 0.0
Zn159 Zn 0.18383 0.4241 0.09528 0.0
O160 O 0.19896 0.41837 0.02113 0.0
O161 O 0.17903 0.38775 0.993 0.0
O162 O 0.20165 0.43136 0.16228 0.0
O163 O 0.18881 0.40019 0.1364 0.0
O164 O 0.14381 0.37631 0.08849 0.0
O165 O 0.15533 0.40455 0.13777 0.0
C166 C 0.19517 0.40364 0.98639 0.0
C167 C 0.14166 0.38668 0.12913 0.0
C168 C 0.40941 0.29029 0.00538 0.0
C169 C 0.38893 0.32411 0.86305 0.0
O170 O 0.39302 0.28958 0.99941 0.0
Zn171 Zn 0.39994 0.3074 0.93235 0.0
O172 O 0.42372 0.30151 0.96948 0.0
Zn173 Zn 0.42768 0.32142 0.8931 0.0
O174 O 0.44801 0.34656 0.9202 0.0
O175 O 0.42055 0.33556 0.97339 0.0
O176 O 0.40681 0.32873 0.85232 0.0
O177 O 0.37941 0.31192 0.90544 0.0
O178 O 0.40418 0.29162 0.85616 0.0
O179 O 0.4348 0.31066 0.82597 0.0
C180 C 0.43836 0.34898 0.96279 0.0
C181 C 0.41853 0.29485 0.82023 0.0
C182 C 0.81023 0.16656 0.96923 0.0
C183 C 0.86474 0.20073 0.82823 0.0
O184 O 0.81305 0.17892 0.92725 0.0
Zn185 Zn 0.8381 0.18341 0.90062 0.0
O186 O 0.82337 0.16177 0.97985 0.0
Zn187 Zn 0.85158 0.16911 0.93924 0.0
O188 O 0.86934 0.17946 0.00668 0.0
O189 O 0.85804 0.19883 0.9774 0.0
O190 O 0.86773 0.18932 0.86356 0.0
O191 O 0.84911 0.20153 0.83448 0.0
O192 O 0.83065 0.15546 0.85795 0.0
O193 O 0.84682 0.1441 0.91104 0.0
C194 C 0.86902 0.19532 0.01312 0.0
C195 C 0.835 0.14197 0.868 0.0
C196 C 0.99071 0.72221 0.9735 0.0
C197 C 0.95678 0.74186 0.82887 0.0
O198 O 0.97747 0.71213 0.93434 0.0
Zn199 Zn 0.9738 0.73278 0.90333 0.0
O200 O 0.99624 0.74048 0.98053 0.0
Zn201 Zn 0.98845 0.76096 0.93944 0.0
O202 O 0.97807 0.76872 0.00668 0.0
O203 O 0.95856 0.73806 0.97802 0.0
O204 O 0.96829 0.75647 0.86331 0.0
O205 O 0.95577 0.72539 0.83674 0.0
O206 O 0.002 0.75278 0.86023 0.0
O207 O 0.01332 0.78091 0.91007 0.0
C208 C 0.96211 0.75264 0.01313 0.0
C209 C 0.01549 0.77072 0.86877 0.0
C210 C 0.38805 0.14254 0.36055 0.0
C211 C 0.40824 0.19625 0.50506 0.0
O212 O 0.40636 0.15514 0.35341 0.0
Zn213 Zn 0.42705 0.18333 0.39437 0.0
O214 O 0.37807 0.14585 0.39973 0.0
Zn215 Zn 0.3989 0.17006 0.43072 0.0
O216 O 0.40431 0.19062 0.35602 0.0
O217 O 0.43489 0.20146 0.32699 0.0
O218 O 0.39171 0.18086 0.49747 0.0
O219 O 0.42277 0.19917 0.47048 0.0
O220 O 0.44685 0.17811 0.42359 0.0
O221 O 0.4187 0.1615 0.47346 0.0
C222 C 0.41889 0.20154 0.32074 0.0
C223 C 0.43658 0.16575 0.46476 0.0
C224 C 0.99134 0.34802 0.47189 0.0
C225 C 0.957 0.2946 0.32713 0.0
O226 O 0.99678 0.33519 0.47871 0.0
Zn227 Zn 0.98877 0.3069 0.43734 0.0
O228 O 0.97805 0.34494 0.433 0.0
Zn229 Zn 0.97424 0.32061 0.40174 0.0
O230 O 0.95901 0.3001 0.47655 0.0
O231 O 0.97844 0.28877 0.50454 0.0
O232 O 0.95617 0.31014 0.33514 0.0
O233 O 0.96848 0.29137 0.36137 0.0
O234 O 0.01359 0.3117 0.40787 0.0
O235 O 0.0025 0.32886 0.35877 0.0
C236 C 0.96254 0.28899 0.51142 0.0
C237 C 0.01592 0.32429 0.36717 0.0
C238 C 0.83306 0.77043 0.36941 0.0
C239 C 0.86916 0.75337 0.51397 0.0
O240 O 0.82902 0.75261 0.36082 0.0
Zn241 Zn 0.83783 0.73307 0.4039 0.0
O242 O 0.8453 0.78079 0.41073 0.0
Zn243 Zn 0.85078 0.7612 0.44012 0.0
O244 O 0.86682 0.75717 0.36412 0.0
O245 O 0.8488 0.72604 0.33743 0.0
O246 O 0.86889 0.76926 0.50752 0.0
O247 O 0.85837 0.73872 0.47875 0.0
O248 O 0.81372 0.71206 0.43466 0.0
O249 O 0.82265 0.74027 0.48102 0.0
C250 C 0.86405 0.74266 0.32968 0.0
C251 C 0.81024 0.72191 0.47383 0.0
H252 H 0.04627 0.52684 0.92044 0.0
H253 H 0.11398 0.63214 0.07547 0.0
H254 H 0.10663 0.56592 0.86825 0.0
H255 H 0.05384 0.5926 0.12891 0.0
H256 H 0.11156 0.60816 0.99931 0.0
H257 H 0.04886 0.55072 0.99712 0.0
C258 C 0.06011 0.54043 0.92514 0.0
C259 C 0.07627 0.54437 0.88771 0.0
C260 C 0.09889 0.60472 0.02765 0.0
C261 C 0.0793 0.57187 0.97564 0.0
C262 C 0.10024 0.61842 0.07118 0.0
C263 C 0.08407 0.61439 0.10873 0.0
C264 C 0.08125 0.58681 0.02145 0.0
C265 C 0.06667 0.59635 0.10099 0.0
C266 C 0.06156 0.55409 0.969 0.0
C267 C 0.0938 0.56225 0.89605 0.0
N268 N 0.06573 0.58323 0.05825 0.0
N269 N 0.09484 0.57536 0.93907 0.0
H270 H 0.63204 0.59551 0.92357 0.0
H271 H 0.52705 0.5585 0.08017 0.0
H272 H 0.5929 0.61693 0.87326 0.0
H273 H 0.56596 0.537 0.13257 0.0
H274 H 0.55095 0.5797 0.0036 0.0
H275 H 0.60811 0.57392 0.9999 0.0
C276 C 0.61842 0.59571 0.92859 0.0
C277 C 0.61449 0.60809 0.89186 0.0
C278 C 0.55429 0.57035 0.03172 0.0
C279 C 0.58697 0.58331 0.97928 0.0
C280 C 0.54062 0.55819 0.07554 0.0
C281 C 0.54449 0.54592 0.11304 0.0
C282 C 0.57204 0.57032 0.0251 0.0
C283 C 0.56234 0.54619 0.10472 0.0
C284 C 0.60475 0.58335 0.97222 0.0
C285 C 0.59658 0.60767 0.90051 0.0
N286 N 0.57547 0.55822 0.06169 0.0
N287 N 0.5835 0.59548 0.94327 0.0
H288 H 0.59985 0.04729 0.07694 0.0
H289 H 0.56124 0.11442 0.92353 0.0
H290 H 0.62014 0.10719 0.13259 0.0
H291 H 0.54095 0.05426 0.87113 0.0
H292 H 0.58299 0.11227 0.9998 0.0
H293 H 0.57853 0.0499 0.00072 0.0
C294 C 0.59987 0.06105 0.07311 0.0
C295 C 0.61184 0.07706 0.11142 0.0
C296 C 0.57377 0.09953 0.97167 0.0
C297 C 0.58727 0.08011 0.02381 0.0
C298 C 0.56132 0.10073 0.92808 0.0
C299 C 0.54921 0.08448 0.89077 0.0
C300 C 0.57418 0.08196 0.9781 0.0
C301 C 0.54999 0.06715 0.89882 0.0
C302 C 0.58764 0.06251 0.02947 0.0
C303 C 0.61119 0.09448 0.10408 0.0
N304 N 0.56225 0.06637 0.94154 0.0
N305 N 0.59908 0.09554 0.06117 0.0
H306 H 0.63246 0.11317 0.42501 0.0
H307 H 0.52724 0.04531 0.58013 0.0
H308 H 0.59317 0.05303 0.37102 0.0
H309 H 0.56604 0.10589 0.63065 0.0
H310 H 0.55117 0.04783 0.5037 0.0
H311 H 0.60843 0.11061 0.50099 0.0
C312 C 0.61878 0.09938 0.42915 0.0
C313 C 0.61485 0.08327 0.39141 0.0
C314 C 0.55446 0.06059 0.53139 0.0
C315 C 0.58716 0.08029 0.47867 0.0
C316 C 0.54079 0.05919 0.57512 0.0
C317 C 0.54462 0.07543 0.61204 0.0
C318 C 0.57218 0.07836 0.52435 0.0
C319 C 0.56244 0.093 0.60327 0.0
C320 C 0.60504 0.09796 0.47262 0.0
C321 C 0.59685 0.06582 0.39908 0.0
N322 N 0.57556 0.09398 0.56041 0.0
N323 N 0.58367 0.0648 0.44181 0.0
H324 H 0.04662 0.59822 0.42089 0.0
H325 H 0.11509 0.56172 0.57718 0.0
H326 H 0.10707 0.62009 0.36836 0.0
H327 H 0.05459 0.54024 0.62822 0.0
H328 H 0.1126 0.58325 0.5009 0.0
H329 H 0.04954 0.57719 0.49758 0.0
C330 C 0.06056 0.59865 0.42551 0.0
C331 C 0.07664 0.61097 0.38794 0.0
C332 C 0.09987 0.57383 0.52874 0.0
C333 C 0.08004 0.58675 0.47603 0.0
C334 C 0.10126 0.5615 0.57234 0.0
C335 C 0.085 0.54912 0.60924 0.0
C336 C 0.0821 0.57383 0.52188 0.0
C337 C 0.06749 0.54951 0.60083 0.0
C338 C 0.0622 0.58659 0.46941 0.0
C339 C 0.0943 0.61085 0.39628 0.0
N340 N 0.06651 0.56166 0.55808 0.0
N341 N 0.09552 0.5989 0.43938 0.0
H342 H 0.59734 0.63017 0.5814 0.0
H343 H 0.56076 0.52512 0.4257 0.0
H344 H 0.61919 0.59146 0.63256 0.0
H345 H 0.53954 0.56417 0.37221 0.0
H346 H 0.5821 0.54918 0.50193 0.0
H347 H 0.57611 0.60622 0.50467 0.0
C348 C 0.59771 0.61665 0.57648 0.0
C349 C 0.61009 0.61283 0.61361 0.0
C350 C 0.57278 0.5525 0.47358 0.0
C351 C 0.58571 0.58527 0.52567 0.0
C352 C 0.56055 0.53875 0.43001 0.0
C353 C 0.5483 0.54261 0.39241 0.0
C354 C 0.57282 0.5703 0.47982 0.0
C355 C 0.54871 0.56055 0.40018 0.0
C356 C 0.58556 0.60296 0.53259 0.0
C357 C 0.60991 0.59504 0.60501 0.0
N358 N 0.56077 0.57373 0.44299 0.0
N359 N 0.5979 0.58192 0.562 0.0
H360 H 0.77348 0.89901 0.19862 0.0
H361 H 0.71918 0.9261 0.4622 0.0
H362 H 0.71309 0.86104 0.25285 0.0
H363 H 0.77917 0.96465 0.40532 0.0
H364 H 0.71669 0.90198 0.38596 0.0
H365 H 0.77602 0.92312 0.27502 0.0
C366 C 0.76078 0.89571 0.22665 0.0
C367 C 0.74305 0.87797 0.2192 0.0
C368 C 0.73039 0.91574 0.39012 0.0
C369 C 0.74582 0.90552 0.30663 0.0
C370 C 0.7318 0.92953 0.43361 0.0
C371 C 0.7494 0.94744 0.44024 0.0
C372 C 0.7467 0.91987 0.353 0.0
C373 C 0.7653 0.95105 0.40191 0.0
C374 C 0.76222 0.9095 0.2702 0.0
C375 C 0.72706 0.87452 0.25684 0.0
N376 N 0.76358 0.9374 0.36008 0.0
N377 N 0.72883 0.88815 0.29879 0.0
H378 H 0.19269 0.89277 0.40854 0.0
H379 H 0.29814 0.92951 0.25558 0.0
H380 H 0.23155 0.87147 0.46362 0.0
H381 H 0.2593 0.95102 0.2025 0.0
H382 H 0.27401 0.90816 0.33177 0.0
H383 H 0.21686 0.91397 0.33247 0.0
C384 C 0.2063 0.8925 0.40461 0.0
C385 C 0.21008 0.88028 0.44267 0.0
C386 C 0.27076 0.91756 0.30353 0.0
C387 C 0.23792 0.90467 0.35537 0.0
C388 C 0.28455 0.92979 0.25997 0.0
C389 C 0.28075 0.94211 0.22247 0.0
C390 C 0.25299 0.91759 0.30977 0.0
C391 C 0.26287 0.94179 0.23036 0.0
C392 C 0.22012 0.90466 0.36109 0.0
C393 C 0.228 0.88062 0.43529 0.0
N394 N 0.24966 0.92972 0.27307 0.0
N395 N 0.24126 0.89263 0.39254 0.0
H396 H 0.2628 0.37494 0.40643 0.0
H397 H 0.22512 0.44274 0.25238 0.0
H398 H 0.28322 0.43503 0.46011 0.0
H399 H 0.20387 0.38249 0.19883 0.0
H400 H 0.24618 0.43993 0.32922 0.0
H401 H 0.24108 0.37728 0.3306 0.0
C402 C 0.26275 0.38865 0.40227 0.0
C403 C 0.2749 0.40484 0.43977 0.0
C404 C 0.23691 0.42729 0.30082 0.0
C405 C 0.24995 0.40757 0.35289 0.0
C406 C 0.22483 0.42886 0.25683 0.0
C407 C 0.21269 0.41281 0.21889 0.0
C408 C 0.23695 0.40954 0.30714 0.0
C409 C 0.21297 0.39523 0.22703 0.0
C410 C 0.2503 0.38996 0.35894 0.0
C411 C 0.27414 0.42219 0.43223 0.0
N412 N 0.22495 0.39408 0.27019 0.0
N413 N 0.26189 0.42309 0.38968 0.0
H414 H 0.19165 0.37503 0.90649 0.0
H415 H 0.29721 0.44239 0.75274 0.0
H416 H 0.23149 0.43509 0.95993 0.0
H417 H 0.25798 0.38223 0.6988 0.0
H418 H 0.27337 0.43969 0.82949 0.0
H419 H 0.21567 0.37722 0.83072 0.0
C420 C 0.20544 0.38871 0.90229 0.0
C421 C 0.20954 0.40493 0.9397 0.0
C422 C 0.26995 0.42705 0.80103 0.0
C423 C 0.23715 0.40748 0.85291 0.0
C424 C 0.28358 0.42856 0.75708 0.0
C425 C 0.2796 0.4125 0.71906 0.0
C426 C 0.2521 0.40936 0.80722 0.0
C427 C 0.26168 0.39498 0.72707 0.0
C428 C 0.21916 0.38992 0.85899 0.0
C429 C 0.22768 0.42222 0.93212 0.0
N430 N 0.24857 0.39389 0.7702 0.0
N431 N 0.24079 0.42303 0.88962 0.0
H432 H 0.71983 0.87267 0.96235 0.0
H433 H 0.77461 0.95304 0.69663 0.0
H434 H 0.7797 0.89305 0.90622 0.0
H435 H 0.71482 0.93224 0.75469 0.0
H436 H 0.77701 0.93136 0.77318 0.0
H437 H 0.71784 0.89448 0.88598 0.0
C438 C 0.73255 0.88169 0.9339 0.0
C439 C 0.74995 0.881 0.94077 0.0
C440 C 0.76338 0.93158 0.76914 0.0
C441 C 0.74781 0.9061 0.85319 0.0
C442 C 0.76202 0.94398 0.7255 0.0
C443 C 0.74449 0.94447 0.71913 0.0
C444 C 0.7471 0.91961 0.80663 0.0
C445 C 0.72863 0.93237 0.7578 0.0
C446 C 0.73142 0.89418 0.8903 0.0
C447 C 0.76597 0.89307 0.90257 0.0
N448 N 0.73032 0.92045 0.79973 0.0
N449 N 0.76452 0.90513 0.86049 0.0
H450 H 0.28555 0.92467 0.96408 0.0
H451 H 0.2043 0.89883 0.70114 0.0
H452 H 0.26389 0.96344 0.91151 0.0
H453 H 0.22592 0.86019 0.75563 0.0
H454 H 0.22592 0.92272 0.77802 0.0
H455 H 0.26382 0.90091 0.88744 0.0
C456 C 0.27627 0.92822 0.93637 0.0
C457 C 0.27657 0.94609 0.94431 0.0
C458 C 0.2259 0.909 0.77314 0.0
C459 C 0.25158 0.91892 0.85647 0.0
C460 C 0.21354 0.89534 0.72931 0.0
C461 C 0.21328 0.87747 0.72183 0.0
C462 C 0.2381 0.90475 0.80975 0.0
C463 C 0.22561 0.87376 0.75964 0.0
C464 C 0.26383 0.91463 0.89263 0.0
C465 C 0.26417 0.94985 0.90705 0.0
N466 N 0.2375 0.88727 0.80182 0.0
N467 N 0.25219 0.93639 0.86483 0.0
H468 H 0.38627 0.25882 0.79531 0.0
H469 H 0.44077 0.2319 0.53185 0.0
H470 H 0.44628 0.29743 0.73864 0.0
H471 H 0.3804 0.1938 0.58604 0.0
H472 H 0.44325 0.25595 0.60844 0.0
H473 H 0.38387 0.23468 0.71924 0.0
C474 C 0.39892 0.26225 0.76682 0.0
C475 C 0.41649 0.28019 0.77343 0.0
C476 C 0.42947 0.24231 0.60359 0.0
C477 C 0.41389 0.25261 0.6864 0.0
C478 C 0.42806 0.22856 0.55992 0.0
C479 C 0.41036 0.2108 0.55239 0.0
C480 C 0.41305 0.23828 0.64003 0.0
C481 C 0.39436 0.20729 0.59009 0.0
C482 C 0.39756 0.24846 0.72343 0.0
C483 C 0.43242 0.28381 0.73524 0.0
N484 N 0.39609 0.22089 0.63214 0.0
N485 N 0.43074 0.27015 0.6935 0.0
H486 H 0.90067 0.20423 0.80254 0.0
H487 H 0.9266 0.28505 0.53798 0.0
H488 H 0.86215 0.22587 0.74677 0.0
H489 H 0.96553 0.26375 0.59203 0.0
H490 H 0.90283 0.26339 0.61468 0.0
H491 H 0.92466 0.22576 0.72559 0.0
C492 C 0.89723 0.21345 0.7741 0.0
C493 C 0.87937 0.21323 0.78122 0.0
C494 C 0.91658 0.26346 0.60981 0.0
C495 C 0.90673 0.23792 0.69324 0.0
C496 C 0.93018 0.27585 0.56602 0.0
C497 C 0.9481 0.27624 0.55849 0.0
C498 C 0.92091 0.25133 0.64644 0.0
C499 C 0.95191 0.26395 0.59619 0.0
C500 C 0.91094 0.22576 0.73022 0.0
C501 C 0.87572 0.22553 0.74306 0.0
N502 N 0.93844 0.252 0.63846 0.0
N503 N 0.88926 0.23735 0.70088 0.0
H504 H 0.93195 0.71393 0.74736 0.0
H505 H 0.89408 0.78178 0.5947 0.0
H506 H 0.95312 0.77411 0.80167 0.0
H507 H 0.87388 0.72181 0.5401 0.0
H508 H 0.91576 0.77937 0.67063 0.0
H509 H 0.91079 0.71677 0.67095 0.0
C510 C 0.9322 0.72779 0.74318 0.0
C511 C 0.94435 0.74381 0.78117 0.0
C512 C 0.90658 0.76674 0.64207 0.0
C513 C 0.91998 0.74713 0.69345 0.0
C514 C 0.89417 0.76808 0.5987 0.0
C515 C 0.8821 0.75195 0.5609 0.0
C516 C 0.90698 0.74914 0.64783 0.0
C517 C 0.88289 0.73461 0.56821 0.0
C518 C 0.92006 0.72938 0.69945 0.0
C519 C 0.94401 0.76138 0.77341 0.0
N520 N 0.89511 0.73367 0.61078 0.0
N521 N 0.93198 0.76256 0.73049 0.0
H522 H 0.89957 0.77538 0.30242 0.0
H523 H 0.92619 0.72062 0.03932 0.0
H524 H 0.86171 0.71492 0.24876 0.0
H525 H 0.96489 0.78087 0.09341 0.0
H526 H 0.90228 0.71845 0.11557 0.0
H527 H 0.92357 0.778 0.22526 0.0
C528 C 0.89627 0.76269 0.27436 0.0
C529 C 0.8786 0.74491 0.28219 0.0
C530 C 0.91601 0.73215 0.11081 0.0
C531 C 0.90599 0.74776 0.194 0.0
C532 C 0.92969 0.73339 0.06728 0.0
C533 C 0.94759 0.75094 0.05992 0.0
C534 C 0.92023 0.7486 0.14733 0.0
C535 C 0.95129 0.76702 0.09747 0.0
C536 C 0.90999 0.76417 0.23038 0.0
C537 C 0.87513 0.72893 0.24452 0.0
N538 N 0.93773 0.76546 0.13949 0.0
N539 N 0.88868 0.73074 0.20222 0.0
H540 H 0.38714 0.20603 0.2957 0.0
H541 H 0.44173 0.28648 0.03002 0.0
H542 H 0.44704 0.22658 0.23944 0.0
H543 H 0.38193 0.26558 0.08818 0.0
H544 H 0.44423 0.26491 0.10676 0.0
H545 H 0.38511 0.2279 0.21966 0.0
C546 C 0.39986 0.2151 0.26731 0.0
C547 C 0.41728 0.21444 0.27402 0.0
C548 C 0.43058 0.26509 0.10271 0.0
C549 C 0.41508 0.2396 0.18679 0.0
C550 C 0.42916 0.27742 0.05897 0.0
C551 C 0.4116 0.27785 0.05253 0.0
C552 C 0.41432 0.2531 0.14026 0.0
C553 C 0.39577 0.26575 0.09133 0.0
C554 C 0.3987 0.22762 0.22389 0.0
C555 C 0.4333 0.22658 0.2359 0.0
N556 N 0.39751 0.25389 0.13335 0.0
N557 N 0.43181 0.23866 0.19399 0.0
H558 H 0.93209 0.29786 0.24616 0.0
H559 H 0.89357 0.19189 0.09516 0.0
H560 H 0.95295 0.25855 0.3 0.0
H561 H 0.8735 0.23163 0.03883 0.0
H562 H 0.91513 0.21597 0.17087 0.0
H563 H 0.91057 0.27381 0.17027 0.0
C564 C 0.93219 0.28418 0.24199 0.0
C565 C 0.94438 0.28023 0.27968 0.0
C566 C 0.90601 0.21945 0.14205 0.0
C567 C 0.91961 0.25252 0.19263 0.0
C568 C 0.89364 0.20567 0.09876 0.0
C569 C 0.88167 0.20972 0.06043 0.0
C570 C 0.90648 0.23748 0.14729 0.0
C571 C 0.88245 0.22786 0.06737 0.0
C572 C 0.91986 0.27043 0.19857 0.0
C573 C 0.94384 0.26223 0.27198 0.0
N574 N 0.89466 0.24107 0.10991 0.0
N575 N 0.93164 0.24904 0.2294 0.0
H576 H 0.09585 0.6874 0.41978 0.0
H577 H 0.15366 0.80347 0.41175 0.0
H578 H 0.12952 0.71865 0.25941 0.0
H579 H 0.15675 0.77253 0.57199 0.0
H580 H 0.13755 0.77219 0.35476 0.0
H581 H 0.111 0.71865 0.47721 0.0
C582 C 0.10633 0.70084 0.39671 0.0
C583 C 0.11161 0.70053 0.33511 0.0
C584 C 0.14177 0.77236 0.40244 0.0
C585 C 0.12842 0.73601 0.39944 0.0
C586 C 0.15088 0.79009 0.43487 0.0
C587 C 0.15665 0.79051 0.49633 0.0
C588 C 0.1379 0.75495 0.43245 0.0
C589 C 0.15271 0.77281 0.52438 0.0
C590 C 0.11497 0.71855 0.42939 0.0
C591 C 0.12525 0.7183 0.30711 0.0
N592 N 0.14339 0.75566 0.49238 0.0
N593 N 0.13307 0.73539 0.33933 0.0
H594 H 0.45901 0.46344 0.36273 0.0
H595 H 0.37083 0.47371 0.5019 0.0
H596 H 0.45156 0.51332 0.32581 0.0
H597 H 0.36569 0.41716 0.46871 0.0
H598 H 0.40259 0.48947 0.44925 0.0
H599 H 0.42697 0.44722 0.41485 0.0
C600 C 0.45072 0.47103 0.36605 0.0
C601 C 0.45793 0.48974 0.33995 0.0
C602 C 0.39446 0.47361 0.45322 0.0
C603 C 0.42147 0.47136 0.39936 0.0
C604 C 0.37636 0.4646 0.48329 0.0
C605 C 0.3656 0.44409 0.48948 0.0
C606 C 0.40206 0.46207 0.43013 0.0
C607 C 0.37346 0.43301 0.46449 0.0
C608 C 0.43242 0.46172 0.39531 0.0
C609 C 0.44653 0.49886 0.34511 0.0
N610 N 0.39134 0.44216 0.43632 0.0
N611 N 0.42891 0.48962 0.37448 0.0
H612 H 0.6953 1.00066 0.57579 0.0
H613 H 0.66734 0.02814 0.25866 0.0
H614 H 0.72815 0.00424 0.412 0.0
H615 H 0.67127 0.06142 0.42172 0.0
H616 H 0.68379 0.01323 0.31446 0.0
H617 H 0.68035 0.01713 0.52022 0.0
C618 C 0.69926 0.00482 0.52801 0.0
C619 C 0.71292 1.00108 0.49821 0.0
C620 C 0.68104 0.02381 0.33782 0.0
C621 C 0.6957 0.01953 0.43467 0.0
C622 C 0.67157 0.0322 0.30635 0.0
C623 C 0.66794 0.04597 0.33586 0.0
C624 C 0.68637 0.0288 0.39968 0.0
C625 C 0.67386 0.05088 0.39743 0.0
C626 C 0.69085 0.0143 0.49667 0.0
C627 C 0.71771 0.00692 0.43651 0.0
N628 N 0.68259 0.04209 0.42774 0.0
N629 N 0.70889 0.01565 0.40637 0.0
H630 H 0.71942 0.13112 0.24402 0.0
H631 H 0.77424 0.15771 0.92594 0.0
H632 H 0.68953 0.0979 0.08144 0.0
H633 H 0.80356 0.15377 0.08909 0.0
H634 H 0.74293 0.14161 0.98209 0.0
H635 H 0.75067 0.1456 0.1877 0.0
C636 C 0.71944 0.12698 0.19633 0.0
C637 C 0.70193 0.11335 0.1671 0.0
C638 C 0.75625 0.14428 0.00538 0.0
C639 C 0.7374 0.13004 0.1027 0.0
C640 C 0.77408 0.15354 0.9737 0.0
C641 C 0.79145 0.15708 0.00316 0.0
C642 C 0.75592 0.13906 0.06737 0.0
C643 C 0.79045 0.15125 0.06484 0.0
C644 C 0.73724 0.13513 0.16456 0.0
C645 C 0.70275 0.10833 0.10551 0.0
N646 N 0.77297 0.14273 0.09532 0.0
N647 N 0.72022 0.11689 0.07493 0.0
H648 H 0.02654 0.74033 0.03132 0.0
H649 H 0.0155 0.64178 0.17246 0.0
H650 H 0.97646 0.68316 0.9946 0.0
H651 H 0.07223 0.69287 0.1389 0.0
H652 H 0.99992 0.6579 0.11931 0.0
H653 H 0.04253 0.72438 0.0841 0.0
C654 C 0.01885 0.72445 0.03482 0.0
C655 C 1.00015 0.71303 0.00858 0.0
C656 C 0.01578 0.66554 0.12334 0.0
C657 C 0.01828 0.69481 0.06878 0.0
C658 C 0.02468 0.65638 0.15371 0.0
C659 C 0.04519 0.666 0.15991 0.0
C660 C 0.02743 0.68462 0.09998 0.0
C661 C 0.05638 0.68489 0.1347 0.0
C662 C 0.02804 0.71539 0.06447 0.0
C663 C 0.99091 0.69251 0.01399 0.0
N664 N 0.04733 0.69368 0.10624 0.0
N665 N 1.00002 0.68406 0.04376 0.0
H666 H 0.46522 0.38538 0.92141 0.0
H667 H 0.49111 0.43835 0.24245 0.0
H668 H 0.43168 0.35481 0.08277 0.0
H669 H 0.48809 0.46893 0.08117 0.0
H670 H 0.47497 0.40743 0.18439 0.0
H671 H 0.47962 0.41639 0.97911 0.0
C672 C 0.461 0.38521 0.9691 0.0
C673 C 0.44731 0.36757 0.99762 0.0
C674 C 0.47783 0.42093 0.16192 0.0
C675 C 0.46386 0.40275 0.06353 0.0
C676 C 0.48711 0.43854 0.1947 0.0
C677 C 0.49093 0.45615 0.16632 0.0
C678 C 0.47287 0.42106 0.0999 0.0
C679 C 0.48532 0.45561 0.10459 0.0
C680 C 0.46908 0.40287 0.00165 0.0
C681 C 0.44217 0.36813 0.05924 0.0
N682 N 0.47678 0.43833 0.07299 0.0
N683 N 0.45066 0.38545 0.09055 0.0
H684 H 0.02714 0.36537 0.5301 0.0
H685 H 0.01695 0.4538 0.66751 0.0
H686 H 0.9776 0.37328 0.49196 0.0
H687 H 0.07351 0.45846 0.6393 0.0
H688 H 1.00136 0.42222 0.61415 0.0
H689 H 0.04345 0.39739 0.58237 0.0
C690 C 0.01964 0.37376 0.53317 0.0
C691 C 1.00098 0.36667 0.50673 0.0
C692 C 0.01719 0.43019 0.61932 0.0
C693 C 0.01949 0.40312 0.56626 0.0
C694 C 0.0261 0.4482 0.64984 0.0
C695 C 0.04656 0.45877 0.65769 0.0
C696 C 0.02875 0.42248 0.59738 0.0
C697 C 0.0577 0.45082 0.63378 0.0
C698 C 0.02901 0.39205 0.56251 0.0
C699 C 0.992 0.3782 0.51155 0.0
N700 N 0.04862 0.43302 0.60511 0.0
N701 N 1.00129 0.3958 0.54098 0.0
H702 H 0.69887 0.69274 0.64295 0.0
H703 H 0.78623 0.68273 0.49456 0.0
H704 H 0.70638 0.64259 0.67354 0.0
H705 H 0.79165 0.73923 0.53138 0.0
H706 H 0.75459 0.66684 0.54783 0.0
H707 H 0.73055 0.70912 0.58859 0.0
C708 C 0.70709 0.68513 0.63777 0.0
C709 C 0.70002 0.6663 0.66279 0.0
C710 C 0.76274 0.68272 0.54447 0.0
C711 C 0.73605 0.68485 0.60082 0.0
C712 C 0.78078 0.6918 0.51403 0.0
C713 C 0.7916 0.71233 0.50877 0.0
C714 C 0.75528 0.69421 0.56894 0.0
C715 C 0.78383 0.72336 0.53487 0.0
C716 C 0.72519 0.69453 0.60723 0.0
C717 C 0.71132 0.65714 0.65519 0.0
N718 N 0.76603 0.71414 0.56349 0.0
N719 N 0.72872 0.66647 0.62467 0.0
H720 H 0.42914 0.15304 0.58458 0.0
H721 H 0.48714 0.09475 0.57865 0.0
H722 H 0.46291 0.15536 0.42457 0.0
H723 H 0.49005 0.12918 0.73757 0.0
H724 H 0.47071 0.10951 0.52091 0.0
H725 H 0.44403 0.1367 0.64209 0.0
C726 C 0.43959 0.15 0.5616 0.0
C727 C 0.44499 0.15566 0.5001 0.0
C728 C 0.47494 0.11372 0.5685 0.0
C729 C 0.46149 0.13668 0.56453 0.0
C730 C 0.48421 0.10531 0.60134 0.0
C731 C 0.49006 0.11093 0.66259 0.0
C732 C 0.47097 0.12728 0.59795 0.0
C733 C 0.48595 0.12466 0.69012 0.0
C734 C 0.44807 0.14078 0.59431 0.0
C735 C 0.45857 0.15141 0.47221 0.0
N736 N 0.47649 0.13226 0.65776 0.0
N737 N 0.46625 0.142 0.50449 0.0
H738 H 0.3723 0.97448 0.00498 0.0
H739 H 0.45944 0.07309 0.86281 0.0
H740 H 0.3666 0.02569 0.9743 0.0
H741 H 0.45237 0.01584 0.82741 0.0
H742 H 0.42758 0.05725 0.91608 0.0
H743 H 0.40381 0.99067 0.95116 0.0
C744 C 0.37766 0.98913 0.98671 0.0
C745 C 0.36681 0.99875 0.99396 0.0
C746 C 0.43307 0.04821 0.8966 0.0
C747 C 0.40301 0.01746 0.9331 0.0
C748 C 0.45128 0.05722 0.86669 0.0
C749 C 0.45855 0.04574 0.84071 0.0
C750 C 0.42228 0.02764 0.90141 0.0
C751 C 0.4473 0.02524 0.8466 0.0
C752 C 0.39563 0.99833 0.95593 0.0
C753 C 0.37446 0.01771 0.96929 0.0
N754 N 0.42979 0.01686 0.87657 0.0
N755 N 0.39221 0.02655 0.94033 0.0
H756 H 0.08505 0.46427 0.85689 0.0
H757 H 0.1827 0.4742 0.00254 0.0
H758 H 0.14265 0.51431 0.82512 0.0
H759 H 0.13149 0.41769 0.96737 0.0
H760 H 0.16688 0.49004 0.94938 0.0
H761 H 0.10044 0.44781 0.91042 0.0
C762 C 0.1009 0.47184 0.86163 0.0
C763 C 0.11261 0.49067 0.83655 0.0
C764 C 0.15914 0.47417 0.95304 0.0
C765 C 0.13019 0.47203 0.89754 0.0
C766 C 0.16814 0.46512 0.98341 0.0
C767 C 0.15841 0.44459 0.98915 0.0
C768 C 0.14012 0.46267 0.92911 0.0
C769 C 0.13955 0.43355 0.96349 0.0
C770 C 0.10965 0.4624 0.89169 0.0
C771 C 0.13307 0.49977 0.84354 0.0
N772 N 0.13093 0.44274 0.93494 0.0
N773 N 0.1412 0.49041 0.87361 0.0
H774 H 0.69353 0.69803 0.86305 0.0
H775 H 0.68164 0.78463 0.00898 0.0
H776 H 0.64254 0.70415 0.83282 0.0
H777 H 0.73857 0.79105 0.97233 0.0
H778 H 0.6662 0.75282 0.95676 0.0
H779 H 0.70944 0.72985 0.91665 0.0
C780 C 0.68563 0.70597 0.86818 0.0
C781 C 0.6667 0.69848 0.84345 0.0
C782 C 0.68207 0.76122 0.95993 0.0
C783 C 0.68472 0.73467 0.90453 0.0
C784 C 0.6909 0.77936 0.98977 0.0
C785 C 0.71142 0.79052 0.99477 0.0
C786 C 0.69381 0.754 0.93581 0.0
C787 C 0.72269 0.78297 0.96903 0.0
C788 C 0.69476 0.72416 0.89828 0.0
C789 C 0.65718 0.70943 0.85095 0.0
N790 N 0.71373 0.76507 0.94099 0.0
N791 N 0.66625 0.72692 0.88102 0.0
H792 H 0.765 0.02094 0.75241 0.0
H793 H 0.82316 0.1369 0.74731 0.0
H794 H 0.79881 0.0523 0.59234 0.0
H795 H 0.82534 0.10535 0.90729 0.0
H796 H 0.8075 0.10585 0.68899 0.0
H797 H 0.78048 0.05201 0.81053 0.0
C798 C 0.77563 0.03437 0.72959 0.0
C799 C 0.78079 0.03412 0.6678 0.0
C800 C 0.81145 0.10584 0.73689 0.0
C801 C 0.79798 0.06946 0.73302 0.0
C802 C 0.82028 0.12344 0.77008 0.0
C803 C 0.82563 0.12362 0.8319 0.0
C804 C 0.80744 0.08832 0.76647 0.0
C805 C 0.8216 0.10582 0.85946 0.0
C806 C 0.78444 0.05198 0.76266 0.0
C807 C 0.79461 0.05188 0.64016 0.0
N808 N 0.81255 0.08881 0.82672 0.0
N809 N 0.80261 0.06892 0.6728 0.0
H810 H 0.13668 0.82134 0.75434 0.0
H811 H 0.02065 0.76333 0.74878 0.0
H812 H 0.10537 0.82401 0.59446 0.0
H813 H 0.05211 0.79746 0.90822 0.0
H814 H 0.05178 0.77847 0.69074 0.0
H815 H 0.10553 0.8054 0.81209 0.0
C816 C 0.12325 0.8185 0.73147 0.0
C817 C 0.12352 0.8241 0.66988 0.0
C818 C 0.05175 0.78255 0.73849 0.0
C819 C 0.08811 0.80555 0.73462 0.0
C820 C 0.03411 0.77392 0.77151 0.0
C821 C 0.03389 0.77932 0.83303 0.0
C822 C 0.06925 0.79612 0.76801 0.0
C823 C 0.05168 0.79309 0.86059 0.0
C824 C 0.10559 0.8095 0.76432 0.0
C825 C 0.10575 0.8201 0.64215 0.0
N826 N 0.06872 0.80091 0.82804 0.0
N827 N 0.08868 0.81088 0.67456 0.0
H828 H 0.33446 0.35986 0.58652 0.0
H829 H 0.36183 0.33315 0.90558 0.0
H830 H 0.33722 0.39303 0.74862 0.0
H831 H 0.39535 0.33693 0.74328 0.0
H832 H 0.34696 0.34952 0.84893 0.0
H833 H 0.35131 0.34559 0.64343 0.0
C834 C 0.33856 0.36406 0.6342 0.0
C835 C 0.33444 0.37758 0.66316 0.0
C836 C 0.3576 0.34677 0.82596 0.0
C837 C 0.35332 0.36111 0.72829 0.0
C838 C 0.36596 0.33733 0.8579 0.0
C839 C 0.37976 0.33366 0.82881 0.0
C840 C 0.36268 0.35202 0.76408 0.0
C841 C 0.38477 0.33954 0.76724 0.0
C842 C 0.34825 0.35603 0.66633 0.0
C843 C 0.3402 0.38268 0.72477 0.0
N844 N 0.37601 0.34822 0.7365 0.0
N845 N 0.34913 0.37421 0.75575 0.0
H846 H 0.05233 0.33389 0.40806 0.0
H847 H 0.1051 0.36062 0.08761 0.0
H848 H 0.02172 0.33755 0.24783 0.0
H849 H 0.13601 0.39395 0.24885 0.0
H850 H 0.07415 0.34655 0.14539 0.0
H851 H 0.08331 0.35061 0.35031 0.0
C852 C 0.05215 0.33815 0.36061 0.0
C853 C 0.03451 0.33431 0.33239 0.0
C854 C 0.08772 0.357 0.16788 0.0
C855 C 0.06966 0.35306 0.26637 0.0
C856 C 0.10535 0.36491 0.13527 0.0
C857 C 0.12307 0.37839 0.16378 0.0
C858 C 0.08794 0.36217 0.22985 0.0
C859 C 0.12261 0.38362 0.22536 0.0
C860 C 0.06979 0.34778 0.32804 0.0
C861 C 0.03505 0.34029 0.2711 0.0
N862 N 0.10531 0.37526 0.25681 0.0
N863 N 0.05236 0.34914 0.23966 0.0
H864 H 0.82041 0.76268 0.24959 0.0
H865 H 0.7618 0.82037 0.25325 0.0
H866 H 0.82251 0.79674 0.40857 0.0
H867 H 0.79585 0.82264 0.09404 0.0
H868 H 0.77676 0.80426 0.3116 0.0
H869 H 0.80398 0.77733 0.1913 0.0
C870 C 0.81731 0.77314 0.27218 0.0
C871 C 0.82292 0.77868 0.33363 0.0
C872 C 0.78085 0.80828 0.26381 0.0
C873 C 0.80385 0.79491 0.2683 0.0
C874 C 0.77233 0.81737 0.23063 0.0
C875 C 0.77777 0.82294 0.1691 0.0
C876 C 0.79436 0.80422 0.23448 0.0
C877 C 0.79146 0.81875 0.14168 0.0
C878 C 0.80804 0.78148 0.23902 0.0
C879 C 0.81859 0.79227 0.361 0.0
N880 N 0.79918 0.80947 0.17442 0.0
N881 N 0.80914 0.79982 0.32829 0.0
H882 H 0.3604 0.03136 0.1933 0.0
H883 H 0.34896 0.11818 0.33918 0.0
H884 H 0.30996 0.03821 0.16051 0.0
H885 H 0.40581 0.1243 0.30366 0.0
H886 H 0.33348 0.08652 0.28602 0.0
H887 H 0.37639 0.06313 0.24725 0.0
C888 C 0.35264 0.03946 0.19791 0.0
C889 C 0.33384 0.03218 0.17239 0.0
C890 C 0.34934 0.09483 0.28964 0.0
C891 C 0.35194 0.06829 0.23391 0.0
C892 C 0.35819 0.11288 0.32002 0.0
C893 C 0.37871 0.1239 0.32561 0.0
C894 C 0.36105 0.08755 0.26561 0.0
C895 C 0.38995 0.11632 0.2999 0.0
C896 C 0.36181 0.0576 0.22822 0.0
C897 C 0.32449 0.04332 0.17925 0.0
N898 N 0.38096 0.0985 0.27137 0.0
N899 N 0.33359 0.06076 0.20959 0.0
loop_
_geom_bond_atom_site_label_1
_geom_bond_atom_site_label_2
_geom_bond_distance
_geom_bond_site_symmetry_2
_ccdc_geom_bond_type
C0 O2 1.247 . S
C0 O4 1.258 . S
C1 O8 1.247 . S
C1 O9 1.258 . S
O2 C0 1.247 . S
O2 Zn3 2.028 . S
Zn3 O2 2.028 . S
Zn3 O7 2.035 . S
Zn3 O9 2.035 . S
Zn3 O10 2.028 . S
O4 C0 1.258 . S
O4 Zn5 2.035 . S
Zn5 O4 2.035 . S
Zn5 O6 2.028 . S
Zn5 O8 2.028 . S
Zn5 O11 2.035 . S
O6 Zn5 2.028 . S
O6 C12 1.247 . S
O7 Zn3 2.035 . S
O7 C12 1.258 . S
O8 C1 1.247 . S
O8 Zn5 2.028 . S
O9 C1 1.258 . S
O9 Zn3 2.035 . S
O10 Zn3 2.028 . S
O10 C13 1.247 . S
O11 Zn5 2.035 . S
O11 C13 1.258 . S
C12 O6 1.247 . S
C12 O7 1.258 . S
C13 O10 1.247 . S
C13 O11 1.258 . S
C14 O16 1.247 . S
C14 O18 1.258 . S
C15 O22 1.247 . S
C15 O23 1.258 . S
O16 C14 1.247 . S
O16 Zn17 2.028 . S
Zn17 O16 2.028 . S
Zn17 O21 2.035 . S
Zn17 O23 2.035 . S
Zn17 O24 2.028 . S
O18 C14 1.258 . S
O18 Zn19 2.035 . S
Zn19 O18 2.035 . S
Zn19 O20 2.028 . S
Zn19 O22 2.028 . S
Zn19 O25 2.035 . S
O20 Zn19 2.028 . S
O20 C26 1.247 . S
O21 Zn17 2.035 . S
O21 C26 1.258 . S
O22 C15 1.247 . S
O22 Zn19 2.028 . S
O23 C15 1.258 . S
O23 Zn17 2.035 . S
O24 Zn17 2.028 . S
O24 C27 1.247 . S
O25 Zn19 2.035 . S
O25 C27 1.258 . S
C26 O20 1.247 . S
C26 O21 1.258 . S
C27 O24 1.247 . S
C27 O25 1.258 . S
C28 O30 1.247 . S
C28 O32 1.258 . S
C29 O36 1.247 . S
C29 O37 1.258 . S
O30 C28 1.247 . S
O30 Zn31 2.028 . S
Zn31 O30 2.028 . S
Zn31 O35 2.035 . S
Zn31 O37 2.035 . S
Zn31 O38 2.028 . S
O32 C28 1.258 . S
O32 Zn33 2.035 . S
Zn33 O32 2.035 . S
Zn33 O34 2.028 . S
Zn33 O36 2.028 . S
Zn33 O39 2.035 . S
O34 Zn33 2.028 . S
O34 C40 1.247 . S
O35 Zn31 2.035 . S
O35 C40 1.258 . S
O36 C29 1.247 . S
O36 Zn33 2.028 . S
O37 C29 1.258 . S
O37 Zn31 2.035 . S
O38 Zn31 2.028 . S
O38 C41 1.247 . S
O39 Zn33 2.035 . S
O39 C41 1.258 . S
C40 O34 1.247 . S
C40 O35 1.258 . S
C41 O38 1.247 . S
C41 O39 1.258 . S
C42 O44 1.247 . S
C42 O46 1.258 . S
C43 O50 1.247 . S
C43 O51 1.258 . S
O44 C42 1.247 . S
O44 Zn45 2.028 . S
Zn45 O44 2.028 . S
Zn45 O49 2.035 . S
Zn45 O51 2.035 . S
Zn45 O52 2.028 . S
O46 C42 1.258 . S
O46 Zn47 2.035 . S
Zn47 O46 2.035 . S
Zn47 O48 2.028 . S
Zn47 O50 2.028 . S
Zn47 O53 2.035 . S
O48 Zn47 2.028 . S
O48 C54 1.247 . S
O49 Zn45 2.035 . S
O49 C54 1.258 . S
O50 C43 1.247 . S
O50 Zn47 2.028 . S
O51 C43 1.258 . S
O51 Zn45 2.035 . S
O52 Zn45 2.028 . S
O52 C55 1.247 . S
O53 Zn47 2.035 . S
O53 C55 1.258 . S
C54 O48 1.247 . S
C54 O49 1.258 . S
C55 O52 1.247 . S
C55 O53 1.258 . S
C56 O58 1.247 . S
C56 O60 1.258 . S
C57 O64 1.247 . S
C57 O65 1.258 . S
O58 C56 1.247 . S
O58 Zn59 2.028 . S
Zn59 O58 2.028 . S
Zn59 O63 2.035 . S
Zn59 O65 2.035 . S
Zn59 O66 2.028 . S
O60 C56 1.258 . S
O60 Zn61 2.035 . S
Zn61 O60 2.035 . S
Zn61 O62 2.028 . S
Zn61 O64 2.028 . S
Zn61 O67 2.035 . S
O62 Zn61 2.028 . S
O62 C68 1.247 . S
O63 Zn59 2.035 . S
O63 C68 1.258 . S
O64 C57 1.247 . S
O64 Zn61 2.028 . S
O65 C57 1.258 . S
O65 Zn59 2.035 . S
O66 Zn59 2.028 . S
O66 C69 1.247 . S
O67 Zn61 2.035 . S
O67 C69 1.258 . S
C68 O62 1.247 . S
C68 O63 1.258 . S
C69 O66 1.247 . S
C69 O67 1.258 . S
C70 O72 1.247 . S
C70 O74 1.258 . S
C71 O78 1.247 . S
C71 O79 1.258 . S
O72 C70 1.247 . S
O72 Zn73 2.028 . S
Zn73 O72 2.028 . S
Zn73 O77 2.035 . S
Zn73 O79 2.035 . S
Zn73 O80 2.028 . S
O74 C70 1.258 . S
O74 Zn75 2.035 . S
Zn75 O74 2.035 . S
Zn75 O76 2.028 . S
Zn75 O78 2.028 . S
Zn75 O81 2.035 . S
O76 Zn75 2.028 . S
O76 C82 1.247 . S
O77 Zn73 2.035 . S
O77 C82 1.258 . S
O78 C71 1.247 . S
O78 Zn75 2.028 . S
O79 C71 1.258 . S
O79 Zn73 2.035 . S
O80 Zn73 2.028 . S
O80 C83 1.247 . S
O81 Zn75 2.035 . S
O81 C83 1.258 . S
C82 O76 1.247 . S
C82 O77 1.258 . S
C83 O80 1.247 . S
C83 O81 1.258 . S
C84 O86 1.247 . S
C84 O88 1.258 . S
C85 O92 1.239 . S
C85 O93 1.250 1_545 S
O86 C84 1.247 . S
O86 Zn87 2.028 . S
Zn87 O86 2.028 . S
Zn87 O91 2.035 . S
Zn87 O93 2.035 . S
Zn87 O94 2.028 . S
O88 C84 1.258 . S
O88 Zn89 2.035 . S
Zn89 O88 2.035 . S
Zn89 O90 2.028 1_565 S
Zn89 O92 2.028 1_565 S
Zn89 O95 2.035 . S
O90 Zn89 2.028 1_545 S
O90 C96 1.247 . S
O91 Zn87 2.035 . S
O91 C96 1.258 1_565 S
O92 C85 1.239 . S
O92 Zn89 2.028 1_545 S
O93 C85 1.250 1_565 S
O93 Zn87 2.035 . S
O94 Zn87 2.028 . S
O94 C97 1.247 . S
O95 Zn89 2.035 . S
O95 C97 1.258 . S
C96 O90 1.247 . S
C96 O91 1.258 1_545 S
C97 O94 1.247 . S
C97 O95 1.258 . S
C98 O100 1.247 . S
C98 O102 1.258 . S
C99 O106 1.247 . S
C99 O107 1.258 . S
O100 C98 1.247 . S
O100 Zn101 2.028 . S
Zn101 O100 2.028 . S
Zn101 O105 2.035 . S
Zn101 O107 2.035 . S
Zn101 O108 2.028 . S
O102 C98 1.258 . S
O102 Zn103 2.035 . S
Zn103 O102 2.035 . S
Zn103 O104 2.028 . S
Zn103 O106 2.028 . S
Zn103 O109 2.035 . S
O104 Zn103 2.028 . S
O104 C110 1.247 . S
O105 Zn101 2.035 . S
O105 C110 1.258 . S
O106 C99 1.247 . S
O106 Zn103 2.028 . S
O107 C99 1.258 . S
O107 Zn101 2.035 . S
O108 Zn101 2.028 . S
O108 C111 1.247 . S
O109 Zn103 2.035 . S
O109 C111 1.258 . S
C110 O104 1.247 . S
C110 O105 1.258 . S
C111 O108 1.247 . S
C111 O109 1.258 . S
C112 O114 1.247 . S
C112 O116 1.258 . S
C113 O120 1.247 . S
C113 O121 1.258 . S
O114 C112 1.247 . S
O114 Zn115 2.028 . S
Zn115 O114 2.028 . S
Zn115 O119 2.035 . S
Zn115 O121 2.035 . S
Zn115 O122 2.028 . S
O116 C112 1.258 . S
O116 Zn117 2.035 . S
Zn117 O116 2.035 . S
Zn117 O118 2.028 . S
Zn117 O120 2.028 . S
Zn117 O123 2.035 . S
O118 Zn117 2.028 . S
O118 C124 1.247 . S
O119 Zn115 2.035 . S
O119 C124 1.258 . S
O120 C113 1.247 . S
O120 Zn117 2.028 . S
O121 C113 1.258 . S
O121 Zn115 2.035 . S
O122 Zn115 2.028 . S
O122 C125 1.247 . S
O123 Zn117 2.035 . S
O123 C125 1.258 . S
C124 O118 1.247 . S
C124 O119 1.258 . S
C125 O122 1.247 . S
C125 O123 1.258 . S
C126 O128 1.247 . S
C126 O130 1.258 . S
C127 O134 1.247 . S
C127 O135 1.258 . S
O128 C126 1.247 . S
O128 Zn129 2.028 . S
Zn129 O128 2.028 . S
Zn129 O133 2.035 . S
Zn129 O135 2.035 . S
Zn129 O136 2.028 . S
O130 C126 1.258 . S
O130 Zn131 2.035 . S
Zn131 O130 2.035 . S
Zn131 O132 2.028 . S
Zn131 O134 2.028 . S
Zn131 O137 2.035 . S
O132 Zn131 2.028 . S
O132 C138 1.247 . S
O133 Zn129 2.035 . S
O133 C138 1.258 . S
O134 C127 1.247 . S
O134 Zn131 2.028 . S
O135 C127 1.258 . S
O135 Zn129 2.035 . S
O136 Zn129 2.028 . S
O136 C139 1.247 . S
O137 Zn131 2.035 . S
O137 C139 1.258 . S
C138 O132 1.247 . S
C138 O133 1.258 . S
C139 O136 1.247 . S
C139 O137 1.258 . S
C140 O142 1.247 1_545 S
C140 O144 1.258 . S
C141 O148 1.247 . S
C141 O149 1.258 . S
O142 C140 1.247 1_565 S
O142 Zn143 2.028 . S
Zn143 O142 2.028 . S
Zn143 O147 2.035 . S
Zn143 O149 2.035 . S
Zn143 O150 2.028 . S
O144 C140 1.258 . S
O144 Zn145 2.035 1_545 S
Zn145 O144 2.035 1_565 S
Zn145 O146 2.028 . S
Zn145 O148 2.028 . S
Zn145 O151 2.035 1_565 S
O146 Zn145 2.028 . S
O146 C152 1.247 . S
O147 Zn143 2.035 . S
O147 C152 1.258 . S
O148 C141 1.247 . S
O148 Zn145 2.028 . S
O149 C141 1.258 . S
O149 Zn143 2.035 . S
O150 Zn143 2.028 . S
O150 C153 1.234 1_565 S
O151 Zn145 2.035 1_545 S
O151 C153 1.268 . S
C152 O146 1.247 . S
C152 O147 1.258 . S
C153 O150 1.234 1_545 S
C153 O151 1.268 . S
C154 O156 1.247 . S
C154 O158 1.258 . S
C155 O162 1.247 . S
C155 O163 1.258 . S
O156 C154 1.247 . S
O156 Zn157 2.028 . S
Zn157 O156 2.028 . S
Zn157 O161 2.035 . S
Zn157 O163 2.035 . S
Zn157 O164 2.028 . S
O158 C154 1.258 . S
O158 Zn159 2.035 . S
Zn159 O158 2.035 . S
Zn159 O160 2.028 . S
Zn159 O162 2.028 . S
Zn159 O165 2.035 . S
O160 Zn159 2.028 . S
O160 C166 1.247 . S
O161 Zn157 2.035 . S
O161 C166 1.258 . S
O162 C155 1.247 . S
O162 Zn159 2.028 . S
O163 C155 1.258 . S
O163 Zn157 2.035 . S
O164 Zn157 2.028 . S
O164 C167 1.247 . S
O165 Zn159 2.035 . S
O165 C167 1.258 . S
C166 O160 1.247 . S
C166 O161 1.258 . S
C167 O164 1.247 . S
C167 O165 1.258 . S
C168 O170 1.247 . S
C168 O172 1.258 . S
C169 O176 1.247 . S
C169 O177 1.258 . S
O170 C168 1.247 . S
O170 Zn171 2.028 . S
Zn171 O170 2.028 . S
Zn171 O175 2.035 . S
Zn171 O177 2.035 . S
Zn171 O178 2.028 . S
O172 C168 1.258 . S
O172 Zn173 2.035 . S
Zn173 O172 2.035 . S
Zn173 O174 2.028 . S
Zn173 O176 2.028 . S
Zn173 O179 2.035 . S
O174 Zn173 2.028 . S
O174 C180 1.247 . S
O175 Zn171 2.035 . S
O175 C180 1.258 . S
O176 C169 1.247 . S
O176 Zn173 2.028 . S
O177 C169 1.258 . S
O177 Zn171 2.035 . S
O178 Zn171 2.028 . S
O178 C181 1.247 . S
O179 Zn173 2.035 . S
O179 C181 1.258 . S
C180 O174 1.247 . S
C180 O175 1.258 . S
C181 O178 1.247 . S
C181 O179 1.258 . S
C182 O184 1.247 . S
C182 O186 1.258 . S
C183 O190 1.247 . S
C183 O191 1.258 . S
O184 C182 1.247 . S
O184 Zn185 2.028 . S
Zn185 O184 2.028 . S
Zn185 O189 2.035 . S
Zn185 O191 2.035 . S
Zn185 O192 2.028 . S
O186 C182 1.258 . S
O186 Zn187 2.035 . S
Zn187 O186 2.035 . S
Zn187 O188 2.028 . S
Zn187 O190 2.028 . S
Zn187 O193 2.035 . S
O188 Zn187 2.028 . S
O188 C194 1.247 . S
O189 Zn185 2.035 . S
O189 C194 1.258 . S
O190 C183 1.247 . S
O190 Zn187 2.028 . S
O191 C183 1.258 . S
O191 Zn185 2.035 . S
O192 Zn185 2.028 . S
O192 C195 1.247 . S
O193 Zn187 2.035 . S
O193 C195 1.258 . S
C194 O188 1.247 . S
C194 O189 1.258 . S
C195 O192 1.247 . S
C195 O193 1.258 . S
C196 O198 1.240 1_455 S
C196 O200 1.252 . S
C197 O204 1.247 . S
C197 O205 1.258 . S
O198 C196 1.240 1_655 S
O198 Zn199 2.028 . S
Zn199 O198 2.028 . S
Zn199 O203 2.035 . S
Zn199 O205 2.035 . S
Zn199 O206 2.028 . S
O200 C196 1.252 . S
O200 Zn201 2.035 1_455 S
Zn201 O200 2.035 1_655 S
Zn201 O202 2.028 . S
Zn201 O204 2.028 . S
Zn201 O207 2.035 1_655 S
O202 Zn201 2.028 . S
O202 C208 1.247 . S
O203 Zn199 2.035 . S
O203 C208 1.258 . S
O204 C197 1.247 . S
O204 Zn201 2.028 . S
O205 C197 1.258 . S
O205 Zn199 2.035 . S
O206 Zn199 2.028 . S
O206 C209 1.247 1_655 S
O207 Zn201 2.035 1_455 S
O207 C209 1.258 . S
C208 O202 1.247 . S
C208 O203 1.258 . S
C209 O206 1.247 1_455 S
C209 O207 1.258 . S
C210 O212 1.247 . S
C210 O214 1.258 . S
C211 O218 1.247 . S
C211 O219 1.258 . S
O212 C210 1.247 . S
O212 Zn213 2.028 . S
Zn213 O212 2.028 . S
Zn213 O217 2.035 . S
Zn213 O219 2.035 . S
Zn213 O220 2.028 . S
O214 C210 1.258 . S
O214 Zn215 2.035 . S
Zn215 O214 2.035 . S
Zn215 O216 2.028 . S
Zn215 O218 2.028 . S
Zn215 O221 2.035 . S
O216 Zn215 2.028 . S
O216 C222 1.247 . S
O217 Zn213 2.035 . S
O217 C222 1.258 . S
O218 C211 1.247 . S
O218 Zn215 2.028 . S
O219 C211 1.258 . S
O219 Zn213 2.035 . S
O220 Zn213 2.028 . S
O220 C223 1.247 . S
O221 Zn215 2.035 . S
O221 C223 1.258 . S
C222 O216 1.247 . S
C222 O217 1.258 . S
C223 O220 1.247 . S
C223 O221 1.258 . S
C224 O226 1.260 . S
C224 O228 1.241 1_455 S
C225 O232 1.247 . S
C225 O233 1.258 . S
O226 C224 1.260 . S
O226 Zn227 2.028 1_455 S
Zn227 O226 2.028 1_655 S
Zn227 O231 2.035 . S
Zn227 O233 2.035 . S
Zn227 O234 2.028 1_655 S
O228 C224 1.241 1_655 S
O228 Zn229 2.035 . S
Zn229 O228 2.035 . S
Zn229 O230 2.028 . S
Zn229 O232 2.028 . S
Zn229 O235 2.035 . S
O230 Zn229 2.028 . S
O230 C236 1.247 . S
O231 Zn227 2.035 . S
O231 C236 1.258 . S
O232 C225 1.247 . S
O232 Zn229 2.028 . S
O233 C225 1.258 . S
O233 Zn227 2.035 . S
O234 Zn227 2.028 1_455 S
O234 C237 1.247 . S
O235 Zn229 2.035 . S
O235 C237 1.258 1_655 S
C236 O230 1.247 . S
C236 O231 1.258 . S
C237 O234 1.247 . S
C237 O235 1.258 1_455 S
C238 O240 1.247 . S
C238 O242 1.258 . S
C239 O246 1.247 . S
C239 O247 1.258 . S
O240 C238 1.247 . S
O240 Zn241 2.028 . S
Zn241 O240 2.028 . S
Zn241 O245 2.035 . S
Zn241 O247 2.035 . S
Zn241 O248 2.028 . S
O242 C238 1.258 . S
O242 Zn243 2.035 . S
Zn243 O242 2.035 . S
Zn243 O244 2.028 . S
Zn243 O246 2.028 . S
Zn243 O249 2.035 . S
O244 Zn243 2.028 . S
O244 C250 1.247 . S
O245 Zn241 2.035 . S
O245 C250 1.258 . S
O246 C239 1.247 . S
O246 Zn243 2.028 . S
O247 C239 1.258 . S
O247 Zn241 2.035 . S
O248 Zn241 2.028 . S
O248 C251 1.247 . S
O249 Zn243 2.035 . S
O249 C251 1.258 . S
C250 O244 1.247 . S
C250 O245 1.258 . S
C251 O248 1.247 . S
C251 O249 1.258 . S
H252 C258 0.930 . S
H253 C262 0.930 . S
H254 C267 0.929 . S
H255 C265 0.929 . S
H256 C260 0.929 . S
H257 C266 0.929 . S
C258 H252 0.930 . S
C258 C259 1.367 . S
C258 C266 1.378 . S
C259 C258 1.367 . S
C259 C267 1.433 . S
C260 H256 0.929 . S
C260 C262 1.378 . S
C260 C264 1.350 . S
C261 C264 1.463 1_556 S
C261 C266 1.350 . S
C261 N269 1.427 . S
C262 H253 0.930 . S
C262 C260 1.378 . S
C262 C263 1.367 . S
C263 C262 1.367 . S
C263 C265 1.433 . S
C264 C260 1.350 . S
C264 C261 1.463 1_554 S
C264 N268 1.427 . S
C265 H255 0.929 . S
C265 C263 1.433 . S
C265 N268 1.384 . S
C266 H257 0.929 . S
C266 C258 1.378 . S
C266 C261 1.350 . S
C267 H254 0.929 . S
C267 C259 1.433 . S
C267 N269 1.384 . S
N268 C264 1.427 . S
N268 C265 1.384 . S
N269 C261 1.427 . S
N269 C267 1.384 . S
H270 C276 0.930 . S
H271 C280 0.930 . S
H272 C285 0.929 . S
H273 C283 0.929 . S
H274 C278 0.929 . S
H275 C284 0.929 . S
C276 H270 0.930 . S
C276 C277 1.367 . S
C276 C284 1.378 . S
C277 C276 1.367 . S
C277 C285 1.433 . S
C278 H274 0.929 . S
C278 C280 1.378 . S
C278 C282 1.350 . S
C279 C282 1.463 1_556 S
C279 C284 1.350 . S
C279 N287 1.427 . S
C280 H271 0.930 . S
C280 C278 1.378 . S
C280 C281 1.367 . S
C281 C280 1.367 . S
C281 C283 1.433 . S
C282 C278 1.350 . S
C282 C279 1.463 1_554 S
C282 N286 1.427 . S
C283 H273 0.929 . S
C283 C281 1.433 . S
C283 N286 1.384 . S
C284 H275 0.929 . S
C284 C276 1.378 . S
C284 C279 1.350 . S
C285 H272 0.929 . S
C285 C277 1.433 . S
C285 N287 1.384 . S
N286 C282 1.427 . S
N286 C283 1.384 . S
N287 C279 1.427 . S
N287 C285 1.384 . S
H288 C294 0.930 . S
H289 C298 0.930 . S
H290 C303 0.929 . S
H291 C301 0.929 . S
H292 C296 0.929 . S
H293 C302 0.929 . S
C294 H288 0.930 . S
C294 C295 1.367 . S
C294 C302 1.378 . S
C295 C294 1.367 . S
C295 C303 1.433 . S
C296 H292 0.929 . S
C296 C298 1.378 . S
C296 C300 1.350 . S
C297 C300 1.463 1_554 S
C297 C302 1.350 . S
C297 N305 1.427 . S
C298 H289 0.930 . S
C298 C296 1.378 . S
C298 C299 1.367 . S
C299 C298 1.367 . S
C299 C301 1.433 . S
C300 C296 1.350 . S
C300 C297 1.463 1_556 S
C300 N304 1.427 . S
C301 H291 0.929 . S
C301 C299 1.433 . S
C301 N304 1.384 . S
C302 H293 0.929 . S
C302 C294 1.378 . S
C302 C297 1.350 . S
C303 H290 0.929 . S
C303 C295 1.433 . S
C303 N305 1.384 . S
N304 C300 1.427 . S
N304 C301 1.384 . S
N305 C297 1.427 . S
N305 C303 1.384 . S
H306 C312 0.930 . S
H307 C316 0.930 . S
H308 C321 0.929 . S
H309 C319 0.929 . S
H310 C314 0.929 . S
H311 C320 0.929 . S
C312 H306 0.930 . S
C312 C313 1.367 . S
C312 C320 1.378 . S
C313 C312 1.367 . S
C313 C321 1.433 . S
C314 H310 0.929 . S
C314 C316 1.378 . S
C314 C318 1.350 . S
C315 C318 1.463 . S
C315 C320 1.350 . S
C315 N323 1.427 . S
C316 H307 0.930 . S
C316 C314 1.378 . S
C316 C317 1.367 . S
C317 C316 1.367 . S
C317 C319 1.433 . S
C318 C314 1.350 . S
C318 C315 1.463 . S
C318 N322 1.427 . S
C319 H309 0.929 . S
C319 C317 1.433 . S
C319 N322 1.384 . S
C320 H311 0.929 . S
C320 C312 1.378 . S
C320 C315 1.350 . S
C321 H308 0.929 . S
C321 C313 1.433 . S
C321 N323 1.384 . S
N322 C318 1.427 . S
N322 C319 1.384 . S
N323 C315 1.427 . S
N323 C321 1.384 . S
H324 C330 0.930 . S
H325 C334 0.930 . S
H326 C339 0.929 . S
H327 C337 0.929 . S
H328 C332 0.929 . S
H329 C338 0.929 . S
C330 H324 0.930 . S
C330 C331 1.367 . S
C330 C338 1.378 . S
C331 C330 1.367 . S
C331 C339 1.433 . S
C332 H328 0.929 . S
C332 C334 1.378 . S
C332 C336 1.350 . S
C333 C336 1.463 . S
C333 C338 1.350 . S
C333 N341 1.427 . S
C334 H325 0.930 . S
C334 C332 1.378 . S
C334 C335 1.367 . S
C335 C334 1.367 . S
C335 C337 1.433 . S
C336 C332 1.350 . S
C336 C333 1.463 . S
C336 N340 1.427 . S
C337 H327 0.929 . S
C337 C335 1.433 . S
C337 N340 1.384 . S
C338 H329 0.929 . S
C338 C330 1.378 . S
C338 C333 1.350 . S
C339 H326 0.929 . S
C339 C331 1.433 . S
C339 N341 1.384 . S
N340 C336 1.427 . S
N340 C337 1.384 . S
N341 C333 1.427 . S
N341 C339 1.384 . S
H342 C348 0.930 . S
H343 C352 0.930 . S
H344 C357 0.929 . S
H345 C355 0.929 . S
H346 C350 0.929 . S
H347 C356 0.929 . S
C348 H342 0.930 . S
C348 C349 1.367 . S
C348 C356 1.378 . S
C349 C348 1.367 . S
C349 C357 1.433 . S
C350 H346 0.929 . S
C350 C352 1.378 . S
C350 C354 1.350 . S
C351 C354 1.463 . S
C351 C356 1.350 . S
C351 N359 1.427 . S
C352 H343 0.930 . S
C352 C350 1.378 . S
C352 C353 1.367 . S
C353 C352 1.367 . S
C353 C355 1.433 . S
C354 C350 1.350 . S
C354 C351 1.463 . S
C354 N358 1.427 . S
C355 H345 0.929 . S
C355 C353 1.433 . S
C355 N358 1.384 . S
C356 H347 0.929 . S
C356 C348 1.378 . S
C356 C351 1.350 . S
C357 H344 0.929 . S
C357 C349 1.433 . S
C357 N359 1.384 . S
N358 C354 1.427 . S
N358 C355 1.384 . S
N359 C351 1.427 . S
N359 C357 1.384 . S
H360 C366 0.930 . S
H361 C370 0.930 . S
H362 C375 0.929 . S
H363 C373 0.929 . S
H364 C368 0.929 . S
H365 C374 0.929 . S
C366 H360 0.930 . S
C366 C367 1.367 . S
C366 C374 1.378 . S
C367 C366 1.367 . S
C367 C375 1.433 . S
C368 H364 0.929 . S
C368 C370 1.378 . S
C368 C372 1.350 . S
C369 C372 1.463 . S
C369 C374 1.350 . S
C369 N377 1.427 . S
C370 H361 0.930 . S
C370 C368 1.378 . S
C370 C371 1.367 . S
C371 C370 1.367 . S
C371 C373 1.433 . S
C372 C368 1.350 . S
C372 C369 1.463 . S
C372 N376 1.427 . S
C373 H363 0.929 . S
C373 C371 1.433 . S
C373 N376 1.384 . S
C374 H365 0.929 . S
C374 C366 1.378 . S
C374 C369 1.350 . S
C375 H362 0.929 . S
C375 C367 1.433 . S
C375 N377 1.384 . S
N376 C372 1.427 . S
N376 C373 1.384 . S
N377 C369 1.427 . S
N377 C375 1.384 . S
H378 C384 0.930 . S
H379 C388 0.930 . S
H380 C393 0.929 . S
H381 C391 0.929 . S
H382 C386 0.929 . S
H383 C392 0.929 . S
C384 H378 0.930 . S
C384 C385 1.367 . S
C384 C392 1.378 . S
C385 C384 1.367 . S
C385 C393 1.433 . S
C386 H382 0.929 . S
C386 C388 1.378 . S
C386 C390 1.350 . S
C387 C390 1.463 . S
C387 C392 1.350 . S
C387 N395 1.427 . S
C388 H379 0.930 . S
C388 C386 1.378 . S
C388 C389 1.367 . S
C389 C388 1.367 . S
C389 C391 1.433 . S
C390 C386 1.350 . S
C390 C387 1.463 . S
C390 N394 1.427 . S
C391 H381 0.929 . S
C391 C389 1.433 . S
C391 N394 1.384 . S
C392 H383 0.929 . S
C392 C384 1.378 . S
C392 C387 1.350 . S
C393 H380 0.929 . S
C393 C385 1.433 . S
C393 N395 1.384 . S
N394 C390 1.427 . S
N394 C391 1.384 . S
N395 C387 1.427 . S
N395 C393 1.384 . S
H396 C402 0.930 . S
H397 C406 0.930 . S
H398 C411 0.929 . S
H399 C409 0.929 . S
H400 C404 0.929 . S
H401 C410 0.929 . S
C402 H396 0.930 . S
C402 C403 1.367 . S
C402 C410 1.378 . S
C403 C402 1.367 . S
C403 C411 1.433 . S
C404 H400 0.929 . S
C404 C406 1.378 . S
C404 C408 1.350 . S
C405 C408 1.463 . S
C405 C410 1.350 . S
C405 N413 1.427 . S
C406 H397 0.930 . S
C406 C404 1.378 . S
C406 C407 1.367 . S
C407 C406 1.367 . S
C407 C409 1.433 . S
C408 C404 1.350 . S
C408 C405 1.463 . S
C408 N412 1.427 . S
C409 H399 0.929 . S
C409 C407 1.433 . S
C409 N412 1.384 . S
C410 H401 0.929 . S
C410 C402 1.378 . S
C410 C405 1.350 . S
C411 H398 0.929 . S
C411 C403 1.433 . S
C411 N413 1.384 . S
N412 C408 1.427 . S
N412 C409 1.384 . S
N413 C405 1.427 . S
N413 C411 1.384 . S
H414 C420 0.930 . S
H415 C424 0.930 . S
H416 C429 0.929 . S
H417 C427 0.929 . S
H418 C422 0.929 . S
H419 C428 0.929 . S
C420 H414 0.930 . S
C420 C421 1.367 . S
C420 C428 1.378 . S
C421 C420 1.367 . S
C421 C429 1.433 . S
C422 H418 0.929 . S
C422 C424 1.378 . S
C422 C426 1.350 . S
C423 C426 1.463 . S
C423 C428 1.350 . S
C423 N431 1.427 . S
C424 H415 0.930 . S
C424 C422 1.378 . S
C424 C425 1.367 . S
C425 C424 1.367 . S
C425 C427 1.433 . S
C426 C422 1.350 . S
C426 C423 1.463 . S
C426 N430 1.427 . S
C427 H417 0.929 . S
C427 C425 1.433 . S
C427 N430 1.384 . S
C428 H419 0.929 . S
C428 C420 1.378 . S
C428 C423 1.350 . S
C429 H416 0.929 . S
C429 C421 1.433 . S
C429 N431 1.384 . S
N430 C426 1.427 . S
N430 C427 1.384 . S
N431 C423 1.427 . S
N431 C429 1.384 . S
H432 C438 0.930 1_554 S
H433 C442 0.930 . S
H434 C447 0.929 . S
H435 C445 0.929 . S
H436 C440 0.929 . S
H437 C446 0.929 . S
C438 H432 0.930 1_556 S
C438 C439 1.367 . S
C438 C446 1.378 . S
C439 C438 1.367 . S
C439 C447 1.433 . S
C440 H436 0.929 . S
C440 C442 1.378 . S
C440 C444 1.350 . S
C441 C444 1.463 . S
C441 C446 1.350 . S
C441 N449 1.427 . S
C442 H433 0.930 . S
C442 C440 1.378 . S
C442 C443 1.367 . S
C443 C442 1.367 . S
C443 C445 1.433 . S
C444 C440 1.350 . S
C444 C441 1.463 . S
C444 N448 1.427 . S
C445 H435 0.929 . S
C445 C443 1.433 . S
C445 N448 1.384 . S
C446 H437 0.929 . S
C446 C438 1.378 . S
C446 C441 1.350 . S
C447 H434 0.929 . S
C447 C439 1.433 . S
C447 N449 1.384 . S
N448 C444 1.427 . S
N448 C445 1.384 . S
N449 C441 1.427 . S
N449 C447 1.384 . S
H450 C456 0.930 1_554 S
H451 C460 0.930 . S
H452 C465 0.929 . S
H453 C463 0.929 . S
H454 C458 0.929 . S
H455 C464 0.929 . S
C456 H450 0.930 1_556 S
C456 C457 1.367 . S
C456 C464 1.378 . S
C457 C456 1.367 . S
C457 C465 1.433 . S
C458 H454 0.929 . S
C458 C460 1.378 . S
C458 C462 1.350 . S
C459 C462 1.463 . S
C459 C464 1.350 . S
C459 N467 1.427 . S
C460 H451 0.930 . S
C460 C458 1.378 . S
C460 C461 1.367 . S
C461 C460 1.367 . S
C461 C463 1.433 . S
C462 C458 1.350 . S
C462 C459 1.463 . S
C462 N466 1.427 . S
C463 H453 0.929 . S
C463 C461 1.433 . S
C463 N466 1.384 . S
C464 H455 0.929 . S
C464 C456 1.378 . S
C464 C459 1.350 . S
C465 H452 0.929 . S
C465 C457 1.433 . S
C465 N467 1.384 . S
N466 C462 1.427 . S
N466 C463 1.384 . S
N467 C459 1.427 . S
N467 C465 1.384 . S
H468 C474 0.930 . S
H469 C478 0.930 . S
H470 C483 0.929 . S
H471 C481 0.929 . S
H472 C476 0.929 . S
H473 C482 0.929 . S
C474 H468 0.930 . S
C474 C475 1.367 . S
C474 C482 1.378 . S
C475 C474 1.367 . S
C475 C483 1.433 . S
C476 H472 0.929 . S
C476 C478 1.378 . S
C476 C480 1.350 . S
C477 C480 1.463 . S
C477 C482 1.350 . S
C477 N485 1.427 . S
C478 H469 0.930 . S
C478 C476 1.378 . S
C478 C479 1.367 . S
C479 C478 1.367 . S
C479 C481 1.433 . S
C480 C476 1.350 . S
C480 C477 1.463 . S
C480 N484 1.427 . S
C481 H471 0.929 . S
C481 C479 1.433 . S
C481 N484 1.384 . S
C482 H473 0.929 . S
C482 C474 1.378 . S
C482 C477 1.350 . S
C483 H470 0.929 . S
C483 C475 1.433 . S
C483 N485 1.384 . S
N484 C480 1.427 . S
N484 C481 1.384 . S
N485 C477 1.427 . S
N485 C483 1.384 . S
H486 C492 0.930 . S
H487 C496 0.930 . S
H488 C501 0.929 . S
H489 C499 0.929 . S
H490 C494 0.929 . S
H491 C500 0.929 . S
C492 H486 0.930 . S
C492 C493 1.367 . S
C492 C500 1.378 . S
C493 C492 1.367 . S
C493 C501 1.433 . S
C494 H490 0.929 . S
C494 C496 1.378 . S
C494 C498 1.350 . S
C495 C498 1.463 . S
C495 C500 1.350 . S
C495 N503 1.427 . S
C496 H487 0.930 . S
C496 C494 1.378 . S
C496 C497 1.367 . S
C497 C496 1.367 . S
C497 C499 1.433 . S
C498 C494 1.350 . S
C498 C495 1.463 . S
C498 N502 1.427 . S
C499 H489 0.929 . S
C499 C497 1.433 . S
C499 N502 1.384 . S
C500 H491 0.929 . S
C500 C492 1.378 . S
C500 C495 1.350 . S
C501 H488 0.929 . S
C501 C493 1.433 . S
C501 N503 1.384 . S
N502 C498 1.427 . S
N502 C499 1.384 . S
N503 C495 1.427 . S
N503 C501 1.384 . S
H504 C510 0.930 . S
H505 C514 0.930 . S
H506 C519 0.929 . S
H507 C517 0.929 . S
H508 C512 0.929 . S
H509 C518 0.929 . S
C510 H504 0.930 . S
C510 C511 1.367 . S
C510 C518 1.378 . S
C511 C510 1.367 . S
C511 C519 1.433 . S
C512 H508 0.929 . S
C512 C514 1.378 . S
C512 C516 1.350 . S
C513 C516 1.463 . S
C513 C518 1.350 . S
C513 N521 1.427 . S
C514 H505 0.930 . S
C514 C512 1.378 . S
C514 C515 1.367 . S
C515 C514 1.367 . S
C515 C517 1.433 . S
C516 C512 1.350 . S
C516 C513 1.463 . S
C516 N520 1.427 . S
C517 H507 0.929 . S
C517 C515 1.433 . S
C517 N520 1.384 . S
C518 H509 0.929 . S
C518 C510 1.378 . S
C518 C513 1.350 . S
C519 H506 0.929 . S
C519 C511 1.433 . S
C519 N521 1.384 . S
N520 C516 1.427 . S
N520 C517 1.384 . S
N521 C513 1.427 . S
N521 C519 1.384 . S
H522 C528 0.930 . S
H523 C532 0.930 . S
H524 C537 0.929 . S
H525 C535 0.929 . S
H526 C530 0.929 . S
H527 C536 0.929 . S
C528 H522 0.930 . S
C528 C529 1.367 . S
C528 C536 1.378 . S
C529 C528 1.367 . S
C529 C537 1.433 . S
C530 H526 0.929 . S
C530 C532 1.378 . S
C530 C534 1.350 . S
C531 C534 1.463 . S
C531 C536 1.350 . S
C531 N539 1.427 . S
C532 H523 0.930 . S
C532 C530 1.378 . S
C532 C533 1.367 . S
C533 C532 1.367 . S
C533 C535 1.433 . S
C534 C530 1.350 . S
C534 C531 1.463 . S
C534 N538 1.427 . S
C535 H525 0.929 . S
C535 C533 1.433 . S
C535 N538 1.384 . S
C536 H527 0.929 . S
C536 C528 1.378 . S
C536 C531 1.350 . S
C537 H524 0.929 . S
C537 C529 1.433 . S
C537 N539 1.384 . S
N538 C534 1.427 . S
N538 C535 1.384 . S
N539 C531 1.427 . S
N539 C537 1.384 . S
H540 C546 0.930 . S
H541 C550 0.930 . S
H542 C555 0.929 . S
H543 C553 0.929 . S
H544 C548 0.929 . S
H545 C554 0.929 . S
C546 H540 0.930 . S
C546 C547 1.367 . S
C546 C554 1.378 . S
C547 C546 1.367 . S
C547 C555 1.433 . S
C548 H544 0.929 . S
C548 C550 1.378 . S
C548 C552 1.350 . S
C549 C552 1.463 . S
C549 C554 1.350 . S
C549 N557 1.427 . S
C550 H541 0.930 . S
C550 C548 1.378 . S
C550 C551 1.367 . S
C551 C550 1.367 . S
C551 C553 1.433 . S
C552 C548 1.350 . S
C552 C549 1.463 . S
C552 N556 1.427 . S
C553 H543 0.929 . S
C553 C551 1.433 . S
C553 N556 1.384 . S
C554 H545 0.929 . S
C554 C546 1.378 . S
C554 C549 1.350 . S
C555 H542 0.929 . S
C555 C547 1.433 . S
C555 N557 1.384 . S
N556 C552 1.427 . S
N556 C553 1.384 . S
N557 C549 1.427 . S
N557 C555 1.384 . S
H558 C564 0.930 . S
H559 C568 0.930 . S
H560 C573 0.929 . S
H561 C571 0.929 1_556 S
H562 C566 0.929 . S
H563 C572 0.929 . S
C564 H558 0.930 . S
C564 C565 1.367 . S
C564 C572 1.378 . S
C565 C564 1.367 . S
C565 C573 1.433 . S
C566 H562 0.929 . S
C566 C568 1.378 . S
C566 C570 1.350 . S
C567 C570 1.463 . S
C567 C572 1.350 . S
C567 N575 1.427 . S
C568 H559 0.930 . S
C568 C566 1.378 . S
C568 C569 1.367 . S
C569 C568 1.367 . S
C569 C571 1.433 . S
C570 C566 1.350 . S
C570 C567 1.463 . S
C570 N574 1.427 . S
C571 H561 0.929 1_554 S
C571 C569 1.433 . S
C571 N574 1.384 . S
C572 H563 0.929 . S
C572 C564 1.378 . S
C572 C567 1.350 . S
C573 H560 0.929 . S
C573 C565 1.433 . S
C573 N575 1.384 . S
N574 C570 1.427 . S
N574 C571 1.384 . S
N575 C567 1.427 . S
N575 C573 1.384 . S
H576 C582 0.930 . S
H577 C586 0.930 . S
H578 C591 0.929 . S
H579 C589 0.929 . S
H580 C584 0.929 . S
H581 C590 0.929 . S
C582 H576 0.930 . S
C582 C583 1.367 . S
C582 C590 1.378 . S
C583 C582 1.367 . S
C583 C591 1.433 . S
C584 H580 0.929 . S
C584 C586 1.378 . S
C584 C588 1.350 . S
C585 C588 1.463 . S
C585 C590 1.350 . S
C585 N593 1.427 . S
C586 H577 0.930 . S
C586 C584 1.378 . S
C586 C587 1.367 . S
C587 C586 1.367 . S
C587 C589 1.433 . S
C588 C584 1.350 . S
C588 C585 1.463 . S
C588 N592 1.427 . S
C589 H579 0.929 . S
C589 C587 1.433 . S
C589 N592 1.384 . S
C590 H581 0.929 . S
C590 C582 1.378 . S
C590 C585 1.350 . S
C591 H578 0.929 . S
C591 C583 1.433 . S
C591 N593 1.384 . S
N592 C588 1.427 . S
N592 C589 1.384 . S
N593 C585 1.427 . S
N593 C591 1.384 . S
H594 C600 0.930 . S
H595 C604 0.930 . S
H596 C609 0.929 . S
H597 C607 0.929 . S
H598 C602 0.929 . S
H599 C608 0.929 . S
C600 H594 0.930 . S
C600 C601 1.367 . S
C600 C608 1.378 . S
C601 C600 1.367 . S
C601 C609 1.433 . S
C602 H598 0.929 . S
C602 C604 1.378 . S
C602 C606 1.350 . S
C603 C606 1.463 . S
C603 C608 1.350 . S
C603 N611 1.427 . S
C604 H595 0.930 . S
C604 C602 1.378 . S
C604 C605 1.367 . S
C605 C604 1.367 . S
C605 C607 1.433 . S
C606 C602 1.350 . S
C606 C603 1.463 . S
C606 N610 1.427 . S
C607 H597 0.929 . S
C607 C605 1.433 . S
C607 N610 1.384 . S
C608 H599 0.929 . S
C608 C600 1.378 . S
C608 C603 1.350 . S
C609 H596 0.929 . S
C609 C601 1.433 . S
C609 N611 1.384 . S
N610 C606 1.427 . S
N610 C607 1.384 . S
N611 C603 1.427 . S
N611 C609 1.384 . S
H612 C618 0.930 . S
H613 C622 0.930 . S
H614 C627 0.929 . S
H615 C625 0.929 . S
H616 C620 0.929 . S
H617 C626 0.929 . S
C618 H612 0.930 . S
C618 C619 1.367 . S
C618 C626 1.378 . S
C619 C618 1.367 . S
C619 C627 1.433 . S
C620 H616 0.929 . S
C620 C622 1.378 . S
C620 C624 1.350 . S
C621 C624 1.463 . S
C621 C626 1.350 . S
C621 N629 1.427 . S
C622 H613 0.930 . S
C622 C620 1.378 . S
C622 C623 1.367 . S
C623 C622 1.367 . S
C623 C625 1.433 . S
C624 C620 1.350 . S
C624 C621 1.463 . S
C624 N628 1.427 . S
C625 H615 0.929 . S
C625 C623 1.433 . S
C625 N628 1.384 . S
C626 H617 0.929 . S
C626 C618 1.378 . S
C626 C621 1.350 . S
C627 H614 0.929 . S
C627 C619 1.433 . S
C627 N629 1.384 . S
N628 C624 1.427 . S
N628 C625 1.384 . S
N629 C621 1.427 . S
N629 C627 1.384 . S
H630 C636 0.930 . S
H631 C640 0.930 . S
H632 C645 0.929 . S
H633 C643 0.929 . S
H634 C638 0.929 1_556 S
H635 C644 0.929 . S
C636 H630 0.930 . S
C636 C637 1.367 . S
C636 C644 1.378 . S
C637 C636 1.367 . S
C637 C645 1.433 . S
C638 H634 0.929 1_554 S
C638 C640 1.378 1_554 S
C638 C642 1.350 . S
C639 C642 1.463 . S
C639 C644 1.350 . S
C639 N647 1.427 . S
C640 H631 0.930 . S
C640 C638 1.378 1_556 S
C640 C641 1.367 1_556 S
C641 C640 1.367 1_554 S
C641 C643 1.433 . S
C642 C638 1.350 . S
C642 C639 1.463 . S
C642 N646 1.427 . S
C643 H633 0.929 . S
C643 C641 1.433 . S
C643 N646 1.384 . S
C644 H635 0.929 . S
C644 C636 1.378 . S
C644 C639 1.350 . S
C645 H632 0.929 . S
C645 C637 1.433 . S
C645 N647 1.384 . S
N646 C642 1.427 . S
N646 C643 1.384 . S
N647 C639 1.427 . S
N647 C645 1.384 . S
H648 C654 0.930 . S
H649 C658 0.930 . S
H650 C663 0.929 1_655 S
H651 C661 0.929 . S
H652 C656 0.929 . S
H653 C662 0.929 . S
C654 H648 0.930 . S
C654 C655 1.367 . S
C654 C662 1.378 . S
C655 C654 1.367 . S
C655 C663 1.433 . S
C656 H652 0.929 . S
C656 C658 1.378 . S
C656 C660 1.350 . S
C657 C660 1.463 . S
C657 C662 1.350 . S
C657 N665 1.427 . S
C658 H649 0.930 . S
C658 C656 1.378 . S
C658 C659 1.367 . S
C659 C658 1.367 . S
C659 C661 1.433 . S
C660 C656 1.350 . S
C660 C657 1.463 . S
C660 N664 1.427 . S
C661 H651 0.929 . S
C661 C659 1.433 . S
C661 N664 1.384 . S
C662 H653 0.929 . S
C662 C654 1.378 . S
C662 C657 1.350 . S
C663 H650 0.929 1_455 S
C663 C655 1.433 . S
C663 N665 1.384 . S
N664 C660 1.427 . S
N664 C661 1.384 . S
N665 C657 1.427 . S
N665 C663 1.384 . S
H666 C672 0.930 . S
H667 C676 0.930 . S
H668 C681 0.929 . S
H669 C679 0.929 . S
H670 C674 0.929 . S
H671 C680 0.929 1_556 S
C672 H666 0.930 . S
C672 C673 1.367 1_556 S
C672 C680 1.378 1_556 S
C673 C672 1.367 1_554 S
C673 C681 1.433 . S
C674 H670 0.929 . S
C674 C676 1.378 . S
C674 C678 1.350 . S
C675 C678 1.463 . S
C675 C680 1.350 . S
C675 N683 1.427 . S
C676 H667 0.930 . S
C676 C674 1.378 . S
C676 C677 1.367 . S
C677 C676 1.367 . S
C677 C679 1.433 . S
C678 C674 1.350 . S
C678 C675 1.463 . S
C678 N682 1.427 . S
C679 H669 0.929 . S
C679 C677 1.433 . S
C679 N682 1.384 . S
C680 H671 0.929 1_554 S
C680 C672 1.378 1_554 S
C680 C675 1.350 . S
C681 H668 0.929 . S
C681 C673 1.433 . S
C681 N683 1.384 . S
N682 C678 1.427 . S
N682 C679 1.384 . S
N683 C675 1.427 . S
N683 C681 1.384 . S
H684 C690 0.930 . S
H685 C694 0.930 . S
H686 C699 0.929 1_655 S
H687 C697 0.929 . S
H688 C692 0.929 . S
H689 C698 0.929 . S
C690 H684 0.930 . S
C690 C691 1.367 . S
C690 C698 1.378 . S
C691 C690 1.367 . S
C691 C699 1.433 . S
C692 H688 0.929 . S
C692 C694 1.378 . S
C692 C696 1.350 . S
C693 C696 1.463 . S
C693 C698 1.350 . S
C693 N701 1.427 . S
C694 H685 0.930 . S
C694 C692 1.378 . S
C694 C695 1.367 . S
C695 C694 1.367 . S
C695 C697 1.433 . S
C696 C692 1.350 . S
C696 C693 1.463 . S
C696 N700 1.427 . S
C697 H687 0.929 . S
C697 C695 1.433 . S
C697 N700 1.384 . S
C698 H689 0.929 . S
C698 C690 1.378 . S
C698 C693 1.350 . S
C699 H686 0.929 1_455 S
C699 C691 1.433 . S
C699 N701 1.384 . S
N700 C696 1.427 . S
N700 C697 1.384 . S
N701 C693 1.427 . S
N701 C699 1.384 . S
H702 C708 0.930 . S
H703 C712 0.930 . S
H704 C717 0.929 . S
H705 C715 0.929 . S
H706 C710 0.929 . S
H707 C716 0.929 . S
C708 H702 0.930 . S
C708 C709 1.367 . S
C708 C716 1.378 . S
C709 C708 1.367 . S
C709 C717 1.433 . S
C710 H706 0.929 . S
C710 C712 1.378 . S
C710 C714 1.350 . S
C711 C714 1.463 . S
C711 C716 1.350 . S
C711 N719 1.427 . S
C712 H703 0.930 . S
C712 C710 1.378 . S
C712 C713 1.367 . S
C713 C712 1.367 . S
C713 C715 1.433 . S
C714 C710 1.350 . S
C714 C711 1.463 . S
C714 N718 1.427 . S
C715 H705 0.929 . S
C715 C713 1.433 . S
C715 N718 1.384 . S
C716 H707 0.929 . S
C716 C708 1.378 . S
C716 C711 1.350 . S
C717 H704 0.929 . S
C717 C709 1.433 . S
C717 N719 1.384 . S
N718 C714 1.427 . S
N718 C715 1.384 . S
N719 C711 1.427 . S
N719 C717 1.384 . S
H720 C726 0.930 . S
H721 C730 0.930 . S
H722 C735 0.929 . S
H723 C733 0.929 . S
H724 C728 0.929 . S
H725 C734 0.929 . S
C726 H720 0.930 . S
C726 C727 1.367 . S
C726 C734 1.378 . S
C727 C726 1.367 . S
C727 C735 1.433 . S
C728 H724 0.929 . S
C728 C730 1.378 . S
C728 C732 1.350 . S
C729 C732 1.463 . S
C729 C734 1.350 . S
C729 N737 1.427 . S
C730 H721 0.930 . S
C730 C728 1.378 . S
C730 C731 1.367 . S
C731 C730 1.367 . S
C731 C733 1.433 . S
C732 C728 1.350 . S
C732 C729 1.463 . S
C732 N736 1.427 . S
C733 H723 0.929 . S
C733 C731 1.433 . S
C733 N736 1.384 . S
C734 H725 0.929 . S
C734 C726 1.378 . S
C734 C729 1.350 . S
C735 H722 0.929 . S
C735 C727 1.433 . S
C735 N737 1.384 . S
N736 C732 1.427 . S
N736 C733 1.384 . S
N737 C729 1.427 . S
N737 C735 1.384 . S
H738 C744 0.930 1_565 S
H739 C748 0.930 . S
H740 C753 0.929 . S
H741 C751 0.929 . S
H742 C746 0.929 . S
H743 C752 0.929 . S
C744 H738 0.930 1_545 S
C744 C745 1.367 . S
C744 C752 1.378 . S
C745 C744 1.367 . S
C745 C753 1.433 1_556 S
C746 H742 0.929 . S
C746 C748 1.378 . S
C746 C750 1.350 . S
C747 C750 1.463 . S
C747 C752 1.350 . S
C747 N755 1.427 . S
C748 H739 0.930 . S
C748 C746 1.378 . S
C748 C749 1.367 . S
C749 C748 1.367 . S
C749 C751 1.433 . S
C750 C746 1.350 . S
C750 C747 1.463 . S
C750 N754 1.427 . S
C751 H741 0.929 . S
C751 C749 1.433 . S
C751 N754 1.384 . S
C752 H743 0.929 . S
C752 C744 1.378 . S
C752 C747 1.350 . S
C753 H740 0.929 . S
C753 C745 1.433 1_554 S
C753 N755 1.384 1_554 S
N754 C750 1.427 . S
N754 C751 1.384 . S
N755 C747 1.427 . S
N755 C753 1.384 1_556 S
H756 C762 0.930 . S
H757 C766 0.930 . S
H758 C771 0.929 . S
H759 C769 0.929 . S
H760 C764 0.929 1_554 S
H761 C770 0.929 . S
C762 H756 0.930 . S
C762 C763 1.367 . S
C762 C770 1.378 . S
C763 C762 1.367 . S
C763 C771 1.433 . S
C764 H760 0.929 1_556 S
C764 C766 1.378 1_556 S
C764 C768 1.350 . S
C765 C768 1.463 . S
C765 C770 1.350 . S
C765 N773 1.427 . S
C766 H757 0.930 . S
C766 C764 1.378 1_554 S
C766 C767 1.367 1_554 S
C767 C766 1.367 1_556 S
C767 C769 1.433 . S
C768 C764 1.350 . S
C768 C765 1.463 . S
C768 N772 1.427 . S
C769 H759 0.929 . S
C769 C767 1.433 . S
C769 N772 1.384 . S
C770 H761 0.929 . S
C770 C762 1.378 . S
C770 C765 1.350 . S
C771 H758 0.929 . S
C771 C763 1.433 . S
C771 N773 1.384 . S
N772 C768 1.427 . S
N772 C769 1.384 . S
N773 C765 1.427 . S
N773 C771 1.384 . S
H774 C780 0.930 . S
H775 C784 0.930 . S
H776 C789 0.929 . S
H777 C787 0.929 1_554 S
H778 C782 0.929 . S
H779 C788 0.929 . S
C780 H774 0.930 . S
C780 C781 1.367 . S
C780 C788 1.378 . S
C781 C780 1.367 . S
C781 C789 1.433 . S
C782 H778 0.929 . S
C782 C784 1.378 . S
C782 C786 1.350 . S
C783 C786 1.463 . S
C783 C788 1.350 . S
C783 N791 1.427 . S
C784 H775 0.930 . S
C784 C782 1.378 . S
C784 C785 1.367 . S
C785 C784 1.367 . S
C785 C787 1.433 . S
C786 C782 1.350 . S
C786 C783 1.463 . S
C786 N790 1.427 . S
C787 H777 0.929 1_556 S
C787 C785 1.433 . S
C787 N790 1.384 . S
C788 H779 0.929 . S
C788 C780 1.378 . S
C788 C783 1.350 . S
C789 H776 0.929 . S
C789 C781 1.433 . S
C789 N791 1.384 . S
N790 C786 1.427 . S
N790 C787 1.384 . S
N791 C783 1.427 . S
N791 C789 1.384 . S
H792 C798 0.930 . S
H793 C802 0.930 . S
H794 C807 0.929 . S
H795 C805 0.929 . S
H796 C800 0.929 . S
H797 C806 0.929 . S
C798 H792 0.930 . S
C798 C799 1.367 . S
C798 C806 1.378 . S
C799 C798 1.367 . S
C799 C807 1.433 . S
C800 H796 0.929 . S
C800 C802 1.378 . S
C800 C804 1.350 . S
C801 C804 1.463 . S
C801 C806 1.350 . S
C801 N809 1.427 . S
C802 H793 0.930 . S
C802 C800 1.378 . S
C802 C803 1.367 . S
C803 C802 1.367 . S
C803 C805 1.433 . S
C804 C800 1.350 . S
C804 C801 1.463 . S
C804 N808 1.427 . S
C805 H795 0.929 . S
C805 C803 1.433 . S
C805 N808 1.384 . S
C806 H797 0.929 . S
C806 C798 1.378 . S
C806 C801 1.350 . S
C807 H794 0.929 . S
C807 C799 1.433 . S
C807 N809 1.384 . S
N808 C804 1.427 . S
N808 C805 1.384 . S
N809 C801 1.427 . S
N809 C807 1.384 . S
H810 C816 0.930 . S
H811 C820 0.930 . S
H812 C825 0.929 . S
H813 C823 0.929 . S
H814 C818 0.929 . S
H815 C824 0.929 . S
C816 H810 0.930 . S
C816 C817 1.367 . S
C816 C824 1.378 . S
C817 C816 1.367 . S
C817 C825 1.433 . S
C818 H814 0.929 . S
C818 C820 1.378 . S
C818 C822 1.350 . S
C819 C822 1.463 . S
C819 C824 1.350 . S
C819 N827 1.427 . S
C820 H811 0.930 . S
C820 C818 1.378 . S
C820 C821 1.367 . S
C821 C820 1.367 . S
C821 C823 1.433 . S
C822 C818 1.350 . S
C822 C819 1.463 . S
C822 N826 1.427 . S
C823 H813 0.929 . S
C823 C821 1.433 . S
C823 N826 1.384 . S
C824 H815 0.929 . S
C824 C816 1.378 . S
C824 C819 1.350 . S
C825 H812 0.929 . S
C825 C817 1.433 . S
C825 N827 1.384 . S
N826 C822 1.427 . S
N826 C823 1.384 . S
N827 C819 1.427 . S
N827 C825 1.384 . S
H828 C834 0.930 . S
H829 C838 0.930 . S
H830 C843 0.929 . S
H831 C841 0.929 . S
H832 C836 0.929 . S
H833 C842 0.929 . S
C834 H828 0.930 . S
C834 C835 1.367 . S
C834 C842 1.378 . S
C835 C834 1.367 . S
C835 C843 1.433 . S
C836 H832 0.929 . S
C836 C838 1.378 . S
C836 C840 1.350 . S
C837 C840 1.463 . S
C837 C842 1.350 . S
C837 N845 1.427 . S
C838 H829 0.930 . S
C838 C836 1.378 . S
C838 C839 1.367 . S
C839 C838 1.367 . S
C839 C841 1.433 . S
C840 C836 1.350 . S
C840 C837 1.463 . S
C840 N844 1.427 . S
C841 H831 0.929 . S
C841 C839 1.433 . S
C841 N844 1.384 . S
C842 H833 0.929 . S
C842 C834 1.378 . S
C842 C837 1.350 . S
C843 H830 0.929 . S
C843 C835 1.433 . S
C843 N845 1.384 . S
N844 C840 1.427 . S
N844 C841 1.384 . S
N845 C837 1.427 . S
N845 C843 1.384 . S
H846 C852 0.930 . S
H847 C856 0.930 . S
H848 C861 0.929 . S
H849 C859 0.929 . S
H850 C854 0.929 . S
H851 C860 0.929 . S
C852 H846 0.930 . S
C852 C853 1.367 . S
C852 C860 1.378 . S
C853 C852 1.367 . S
C853 C861 1.433 . S
C854 H850 0.929 . S
C854 C856 1.378 . S
C854 C858 1.350 . S
C855 C858 1.463 . S
C855 C860 1.350 . S
C855 N863 1.427 . S
C856 H847 0.930 . S
C856 C854 1.378 . S
C856 C857 1.367 . S
C857 C856 1.367 . S
C857 C859 1.433 . S
C858 C854 1.350 . S
C858 C855 1.463 . S
C858 N862 1.427 . S
C859 H849 0.929 . S
C859 C857 1.433 . S
C859 N862 1.384 . S
C860 H851 0.929 . S
C860 C852 1.378 . S
C860 C855 1.350 . S
C861 H848 0.929 . S
C861 C853 1.433 . S
C861 N863 1.384 . S
N862 C858 1.427 . S
N862 C859 1.384 . S
N863 C855 1.427 . S
N863 C861 1.384 . S
H864 C870 0.930 . S
H865 C874 0.930 . S
H866 C879 0.929 . S
H867 C877 0.929 . S
H868 C872 0.929 . S
H869 C878 0.929 . S
C870 H864 0.930 . S
C870 C871 1.367 . S
C870 C878 1.378 . S
C871 C870 1.367 . S
C871 C879 1.433 . S
C872 H868 0.929 . S
C872 C874 1.378 . S
C872 C876 1.350 . S
C873 C876 1.463 . S
C873 C878 1.350 . S
C873 N881 1.427 . S
C874 H865 0.930 . S
C874 C872 1.378 . S
C874 C875 1.367 . S
C875 C874 1.367 . S
C875 C877 1.433 . S
C876 C872 1.350 . S
C876 C873 1.463 . S
C876 N880 1.427 . S
C877 H867 0.929 . S
C877 C875 1.433 . S
C877 N880 1.384 . S
C878 H869 0.929 . S
C878 C870 1.378 . S
C878 C873 1.350 . S
C879 H866 0.929 . S
C879 C871 1.433 . S
C879 N881 1.384 . S
N880 C876 1.427 . S
N880 C877 1.384 . S
N881 C873 1.427 . S
N881 C879 1.384 . S
H882 C888 0.930 . S
H883 C892 0.930 . S
H884 C897 0.929 . S
H885 C895 0.929 . S
H886 C890 0.929 . S
H887 C896 0.929 . S
C888 H882 0.930 . S
C888 C889 1.367 . S
C888 C896 1.378 . S
C889 C888 1.367 . S
C889 C897 1.433 . S
C890 H886 0.929 . S
C890 C892 1.378 . S
C890 C894 1.350 . S
C891 C894 1.463 . S
C891 C896 1.350 . S
C891 N899 1.427 . S
C892 H883 0.930 . S
C892 C890 1.378 . S
C892 C893 1.367 . S
C893 C892 1.367 . S
C893 C895 1.433 . S
C894 C890 1.350 . S
C894 C891 1.463 . S
C894 N898 1.427 . S
C895 H885 0.929 . S
C895 C893 1.433 . S
C895 N898 1.384 . S
C896 H887 0.929 . S
C896 C888 1.378 . S
C896 C891 1.350 . S
C897 H884 0.929 . S
C897 C889 1.433 . S
C897 N899 1.384 . S
N898 C894 1.427 . S
N898 C895 1.384 . S
N899 C891 1.427 . S
N899 C897 1.384 . S
C259 C43 1.858 . S
C263 C13 1.861 . S
C277 C68 1.861 . S
C281 C15 1.861 . S
C295 C29 1.861 . S
C299 C83 1.858 . S
C313 C40 1.860 . S
C317 C70 1.862 . S
C331 C0 1.859 . S
C335 C54 1.862 . S
C349 C57 1.863 . S
C353 C26 1.863 . S
C367 C138 1.868 . S
C371 C97 1.868 . S
C385 C99 1.863 . S
C389 C152 1.863 . S
C403 C124 1.860 . S
C407 C155 1.860 . S
C421 C166 1.861 1_556 S
C425 C113 1.861 . S
C439 C127 1.865 1_556 S
C443 C84 1.865 . S
C457 C141 1.866 1_556 S
C461 C110 1.866 . S
C475 C181 1.870 . S
C479 C211 1.867 . S
C493 C183 1.870 . S
C497 C236 1.870 . S
C511 C197 1.862 . S
C515 C239 1.860 . S
C529 C250 1.870 . S
C533 C208 1.868 1_554 S
C547 C222 1.870 . S
C551 C168 1.868 1_554 S
C565 C225 1.861 . S
C569 C194 1.861 1_554 S
C583 C12 1.620 . S
C587 C111 1.623 . S
C601 C14 1.619 . S
C605 C112 1.614 . S
C619 C85 1.635 . S
C623 C28 1.616 . S
C637 C41 1.617 . S
C641 C182 1.615 1_554 S
C655 C196 1.634 1_554 S
C659 C1 1.616 . S
C673 C180 1.615 1_554 S
C677 C27 1.617 . S
C691 C224 1.626 . S
C695 C42 1.618 . S
C709 C69 1.621 . S
C713 C251 1.615 . S
C727 C223 1.620 . S
C731 C82 1.623 . S
C745 C153 1.620 1_556 S
C749 C71 1.622 . S
C763 C55 1.618 . S
C767 C154 1.616 1_556 S
C781 C56 1.624 . S
C785 C139 1.617 1_556 S
C799 C96 1.622 . S
C803 C195 1.621 . S
C817 C98 1.622 . S
C821 C209 1.621 . S
C835 C125 1.616 . S
C839 C169 1.617 . S
C853 C237 1.615 . S
C857 C167 1.615 . S
C871 C238 1.623 . S
C875 C126 1.621 . S
C889 C140 1.623 . S
C893 C210 1.620 . S
