# Generated by pormake.
# Topology umy, (4)-cn, num edge types: 1
# Building blocks:
#     Node 0, Type 0, BuildingBlock: QUQFOY_clean_sbu_3, # of connection points: 4
#     Node 1, Type 0, BuildingBlock: QUQFOY_clean_sbu_3, # of connection points: 4
#     Node 2, Type 0, BuildingBlock: QUQFOY_clean_sbu_3, # of connection points: 4
#     Node 3, Type 0, BuildingBlock: QUQFOY_clean_sbu_3, # of connection points: 4
#     Node 4, Type 0, BuildingBlock: QUQFOY_clean_sbu_3, # of connection points: 4
#     Node 5, Type 0, BuildingBlock: QUQFOY_clean_sbu_3, # of connection points: 4
#     Node 6, Type 0, BuildingBlock: QUQFOY_clean_sbu_3, # of connection points: 4
#     Node 7, Type 0, BuildingBlock: QUQFOY_clean_sbu_3, # of connection points: 4
#     Node 8, Type 0, BuildingBlock: QUQFOY_clean_sbu_3, # of connection points: 4
#     Node 9, Type 0, BuildingBlock: QUQFOY_clean_sbu_3, # of connection points: 4
#     Node 10, Type 0, BuildingBlock: QUQFOY_clean_sbu_3, # of connection points: 4
#     Node 11, Type 0, BuildingBlock: QUQFOY_clean_sbu_3, # of connection points: 4
#     Edge 12, Type (0, 0), BuildingBlock: MIFKUJ_clean_linker_0, # of connection points: 2
#     Edge 13, Type (0, 0), BuildingBlock: MIFKUJ_clean_linker_0, # of connection points: 2
#     Edge 14, Type (0, 0), BuildingBlock: MIFKUJ_clean_linker_0, # of connection points: 2
#     Edge 15, Type (0, 0), BuildingBlock: MIFKUJ_clean_linker_0, # of connection points: 2
#     Edge 16, Type (0, 0), BuildingBlock: MIFKUJ_clean_linker_0, # of connection points: 2
#     Edge 17, Type (0, 0), BuildingBlock: MIFKUJ_clean_linker_0, # of connection points: 2
#     Edge 18, Type (0, 0), BuildingBlock: MIFKUJ_clean_linker_0, # of connection points: 2
#     Edge 19, Type (0, 0), BuildingBlock: MIFKUJ_clean_linker_0, # of connection points: 2
#     Edge 20, Type (0, 0), BuildingBlock: MIFKUJ_clean_linker_0, # of connection points: 2
#     Edge 21, Type (0, 0), BuildingBlock: MIFKUJ_clean_linker_0, # of connection points: 2
#     Edge 22, Type (0, 0), BuildingBlock: MIFKUJ_clean_linker_0, # of connection points: 2
#     Edge 23, Type (0, 0), BuildingBlock: MIFKUJ_clean_linker_0, # of connection points: 2
#     Edge 24, Type (0, 0), BuildingBlock: MIFKUJ_clean_linker_0, # of connection points: 2
#     Edge 25, Type (0, 0), BuildingBlock: MIFKUJ_clean_linker_0, # of connection points: 2
#     Edge 26, Type (0, 0), BuildingBlock: MIFKUJ_clean_linker_0, # of connection points: 2
#     Edge 27, Type (0, 0), BuildingBlock: MIFKUJ_clean_linker_0, # of connection points: 2
#     Edge 28, Type (0, 0), BuildingBlock: MIFKUJ_clean_linker_0, # of connection points: 2
#     Edge 29, Type (0, 0), BuildingBlock: MIFKUJ_clean_linker_0, # of connection points: 2
#     Edge 30, Type (0, 0), BuildingBlock: MIFKUJ_clean_linker_0, # of connection points: 2
#     Edge 31, Type (0, 0), BuildingBlock: MIFKUJ_clean_linker_0, # of connection points: 2
#     Edge 32, Type (0, 0), BuildingBlock: MIFKUJ_clean_linker_0, # of connection points: 2
#     Edge 33, Type (0, 0), BuildingBlock: MIFKUJ_clean_linker_0, # of connection points: 2
#     Edge 34, Type (0, 0), BuildingBlock: MIFKUJ_clean_linker_0, # of connection points: 2
#     Edge 35, Type (0, 0), BuildingBlock: MIFKUJ_clean_linker_0, # of connection points: 2
# Relax obj value: 0.099
# Max RMSD: 0.072
# Mean RMSD: 0.072
data_MOF--net-umy--node1-QUQFOY_clean_sbu_3--edge1-MIFKUJ_clean_linker_0
_symmetry_space_group_name_H-M    P1
_symmetry_Int_Tables_number       1
_symmetry_cell_setting            triclinic
loop_
_symmetry_equiv_pos_as_xyz
'x, y, z'
_cell_length_a     50.98109
_cell_length_b     51.09873
_cell_length_c     67.739586
_cell_angle_alpha  90.000134
_cell_angle_beta   90.021715
_cell_angle_gamma 119.95514
loop_
_atom_site_label
_atom_site_type_symbol
_atom_site_fract_x
_atom_site_fract_y
_atom_site_fract_z
_atom_type_partial_charge
C0 C -0.00339 0.26882 0.13186 0.0
O1 O 0.01068 0.25495 0.12743 0.0
Cd2 Cd 0.0617 0.27993 0.11545 0.0
O3 O 0.00931 0.29738 0.12994 0.0
Cd4 Cd 0.05799 0.3399 0.11867 0.0
C5 C 0.09628 0.32731 0.15469 0.0
O6 O 0.06243 0.31334 0.09047 0.0
O7 O 0.10193 0.35625 0.09684 0.0
O8 O 0.02686 0.35984 0.10596 0.0
C9 C 0.08856 0.33384 0.08532 0.0
O10 O 0.09372 0.30556 0.1441 0.0
C11 C 0.04497 0.38692 0.11105 0.0
O12 O 0.08358 0.34232 0.14961 0.0
O13 O 0.06871 0.39193 0.1203 0.0
C14 C 0.7211 -0.00181 0.29163 0.0
O15 O 0.74829 0.01342 0.28568 0.0
Cd16 Cd 0.77079 0.06488 0.27496 0.0
O17 O 0.70382 0.00954 0.29138 0.0
Cd18 Cd 0.70471 0.05634 0.28126 0.0
C19 C 0.75727 0.09608 0.31617 0.0
O20 O 0.73592 0.06645 0.25229 0.0
O21 O 0.72868 0.10277 0.26153 0.0
O22 O 0.65647 0.02631 0.26503 0.0
C23 C 0.73957 0.09245 0.24892 0.0
O24 O 0.77609 0.09407 0.3048 0.0
C25 C 0.64278 0.03743 0.27439 0.0
O26 O 0.7292 0.08297 0.31184 0.0
O27 O 0.65773 0.05699 0.28758 0.0
C28 C 0.71233 0.72461 0.46334 0.0
O29 O 0.72634 0.75186 0.45749 0.0
Cd30 Cd 0.70033 0.77704 0.44574 0.0
O31 O 0.68358 0.7091 0.46236 0.0
Cd32 Cd 0.64001 0.71323 0.45078 0.0
C33 C 0.65406 0.76595 0.48575 0.0
O34 O 0.66453 0.74349 0.42212 0.0
O35 O 0.62149 0.73952 0.4295 0.0
O36 O 0.62113 0.66458 0.43519 0.0
C37 C 0.6435 0.74874 0.41754 0.0
O38 O 0.67629 0.78403 0.475 0.0
C39 C 0.59561 0.65195 0.44375 0.0
O40 O 0.63776 0.73826 0.48096 0.0
O41 O 0.5907 0.66779 0.45608 0.0
C42 C 0.98488 0.71829 0.62247 0.0
O43 O 0.96984 0.73055 0.61666 0.0
Cd44 Cd 0.91844 0.70207 0.60505 0.0
O45 O 0.97328 0.68973 0.62201 0.0
Cd46 Cd 0.92625 0.6444 0.61227 0.0
C47 C 0.88692 0.65894 0.64646 0.0
O48 O 0.91707 0.66524 0.58279 0.0
O49 O 0.88004 0.62241 0.59236 0.0
O50 O 0.95721 0.62487 0.59888 0.0
C51 C 0.89082 0.6432 0.57949 0.0
O52 O 0.88748 0.67839 0.63445 0.0
C53 C 0.943 0.59947 0.60749 0.0
O54 O 0.90129 0.64502 0.64287 0.0
O55 O 0.9214 0.5953 0.61885 0.0
C56 C 0.26184 -0.00012 0.78983 0.0
O57 O 0.23389 0.98712 0.78553 0.0
Cd58 Cd 0.20449 0.93416 0.77877 0.0
O59 O 0.27567 0.98492 0.78984 0.0
Cd60 Cd 0.26655 0.93377 0.78258 0.0
C61 C 0.2177 0.90463 0.82091 0.0
O62 O 0.23269 0.92346 0.755 0.0
O63 O 0.23626 0.88552 0.76578 0.0
O64 O 0.31239 0.95415 0.76314 0.0
C65 C 0.22604 0.89617 0.75292 0.0
O66 O 0.19975 0.90974 0.81069 0.0
C67 C 0.32563 0.94425 0.77414 0.0
O68 O 0.24387 0.9117 0.81445 0.0
O69 O 0.31151 0.92958 0.78942 0.0
C70 C 0.26073 0.25551 0.95989 0.0
O71 O 0.24924 0.22857 0.95362 0.0
Cd72 Cd 0.27883 0.20691 0.94252 0.0
O73 O 0.28933 0.27299 0.96003 0.0
Cd74 Cd 0.33569 0.2724 0.95033 0.0
C75 C 0.32207 0.21797 0.98405 0.0
O76 O 0.31528 0.24346 0.9204 0.0
O77 O 0.35913 0.25085 0.92924 0.0
O78 O 0.35551 0.32283 0.93694 0.0
C79 C 0.33816 0.24089 0.91646 0.0
O80 O 0.30125 0.19961 0.9725 0.0
C81 C 0.38026 0.33436 0.94644 0.0
O82 O 0.33723 0.24602 0.97997 0.0
O83 O 0.38385 0.31719 0.95835 0.0
C84 C 0.7134 0.98546 0.70133 0.0
O85 O 0.72515 0.97 0.7072 0.0
Cd86 Cd 0.69614 0.91851 0.71783 0.0
O87 O 0.68479 0.97421 0.70133 0.0
Cd88 Cd 0.63884 0.92703 0.71059 0.0
C89 C 0.65301 0.88776 0.67604 0.0
O90 O 0.6589 0.91673 0.73997 0.0
O91 O 0.61586 0.88028 0.7301 0.0
O92 O 0.6191 0.95606 0.72636 0.0
C93 C 0.63657 0.89064 0.74308 0.0
O94 O 0.67336 0.88948 0.68776 0.0
C95 C 0.59469 0.9447 0.71652 0.0
O96 O 0.63803 0.90093 0.68008 0.0
O97 O 0.59107 0.92556 0.70327 0.0
C98 C 0.71586 0.7133 0.85984 0.0
O99 O 0.74355 0.72739 0.86488 0.0
Cd100 Cd 0.76997 0.70178 0.87512 0.0
O101 O 0.70063 0.68459 0.86062 0.0
Cd102 Cd 0.70649 0.64151 0.87044 0.0
C103 C 0.75774 0.65721 0.83421 0.0
O104 O 0.73804 0.6652 0.89893 0.0
O105 O 0.7346 0.6231 0.88987 0.0
O106 O 0.65785 0.62172 0.88636 0.0
C107 C 0.74393 0.64432 0.90241 0.0
O108 O 0.7765 0.67853 0.84528 0.0
C109 C 0.64595 0.59583 0.87839 0.0
O110 O 0.73 0.64126 0.83908 0.0
O111 O 0.66212 0.59123 0.86614 0.0
C112 C -0.00731 0.71784 0.02935 0.0
O113 O 0.00468 0.74357 0.03761 0.0
Cd114 Cd 0.0554 0.76896 0.04958 0.0
O115 O 0.00709 0.70346 0.02801 0.0
Cd116 Cd 0.05592 0.70825 0.03858 0.0
C117 C 0.09249 0.76707 0.0073 0.0
O118 O 0.05813 0.73212 0.06982 0.0
O119 O 0.09876 0.73184 0.06159 0.0
O120 O 0.02515 0.65481 0.04609 0.0
C121 C 0.08458 0.73798 0.07442 0.0
O122 O 0.08614 0.78211 0.01947 0.0
C123 C 0.04422 0.64781 0.03968 0.0
O124 O 0.08352 0.73925 0.01028 0.0
O125 O 0.06838 0.66883 0.03211 0.0
C126 C 0.25414 0.98942 0.19733 0.0
O127 O 0.24179 0.00469 0.20238 0.0
Cd128 Cd 0.26931 0.0565 0.2121 0.0
O129 O 0.28284 0.00112 0.19778 0.0
Cd130 Cd 0.3282 0.04927 0.20723 0.0
C131 C 0.31502 0.08769 0.17133 0.0
O132 O 0.30548 0.05869 0.23531 0.0
O133 O 0.34916 0.09584 0.22727 0.0
O134 O 0.34979 0.02318 0.22482 0.0
C135 C 0.32706 0.08485 0.23923 0.0
O136 O 0.29296 0.08459 0.18187 0.0
C137 C 0.37342 0.03329 0.21427 0.0
O138 O 0.33098 0.07612 0.1767 0.0
O139 O 0.37583 0.05044 0.19997 0.0
C140 C 0.25589 0.26275 0.36553 0.0
O141 O 0.22833 0.25145 0.37054 0.0
Cd142 Cd 0.20665 0.28039 0.38294 0.0
O143 O 0.2741 0.29104 0.36702 0.0
Cd144 Cd 0.27289 0.33645 0.37777 0.0
C145 C 0.22083 0.32691 0.34317 0.0
O146 O 0.24178 0.31465 0.40646 0.0
O147 O 0.24774 0.35786 0.39782 0.0
O148 O 0.32061 0.35667 0.39516 0.0
C149 C 0.23763 0.33653 0.41032 0.0
O150 O 0.20119 0.3066 0.35442 0.0
C151 C 0.33444 0.3803 0.38471 0.0
O152 O 0.24893 0.33993 0.34733 0.0
O153 O 0.31988 0.38334 0.37051 0.0
C154 C 0.97842 0.2544 0.52871 0.0
O155 O 0.96378 0.22703 0.53427 0.0
Cd156 Cd 0.91304 0.2034 0.54657 0.0
O157 O 0.96667 0.27126 0.5299 0.0
Cd158 Cd 0.91953 0.2687 0.54138 0.0
C159 C 0.87836 0.21561 0.50691 0.0
O160 O 0.91361 0.23853 0.57 0.0
O161 O 0.87541 0.24432 0.56375 0.0
O162 O 0.94948 0.31819 0.55619 0.0
C163 C 0.88792 0.23416 0.5752 0.0
O164 O 0.8816 0.19695 0.51765 0.0
C165 C 0.93666 0.33031 0.54693 0.0
O166 O 0.89101 0.24343 0.51159 0.0
O167 O 0.91602 0.31383 0.53473 0.0
H168 H -0.00892 0.59555 0.04628 0.0
H169 H 0.98485 0.5465 0.05563 0.0
H170 H 0.08142 0.58316 0.0507 0.0
H171 H 0.08746 0.63156 0.04031 0.0
H172 H 0.05539 0.52868 0.03888 0.0
H173 H 0.04312 0.57802 0.09611 0.0
H174 H 0.02 0.60187 0.11578 0.0
H175 H 0.93382 0.52023 0.1129 0.0
H176 H 0.95638 0.49601 0.093 0.0
H177 H 0.08633 0.44694 0.11009 0.0
H178 H 0.07967 0.48732 0.09601 0.0
H179 H 0.98578 0.42359 0.08421 0.0
H180 H -0.00764 0.38275 0.09789 0.0
H181 H 0.00363 0.48604 0.10266 0.0
H182 H 0.02099 0.43625 0.04753 0.0
H183 H 0.04837 0.41455 0.03033 0.0
H184 H 0.13018 0.50065 0.03204 0.0
H185 H 0.10337 0.52274 0.04954 0.0
C186 C 0.01086 0.59289 0.04686 0.0
C187 C 0.03977 0.61733 0.04273 0.0
C188 C 0.00732 0.56496 0.05234 0.0
C189 C 0.03275 0.56135 0.05438 0.0
C190 C 0.06144 0.58538 0.0493 0.0
C191 C 0.0649 0.61306 0.04338 0.0
C192 C 0.03 0.53326 0.06277 0.0
C193 C 0.04412 0.51949 0.05285 0.0
C194 C 0.0149 0.52085 0.08088 0.0
C195 C 0.00134 0.53534 0.09288 0.0
C196 C 0.01919 0.56523 0.09956 0.0
C197 C 0.0062 0.5788 0.11077 0.0
C198 C 0.97544 0.56261 0.11553 0.0
C199 C 0.95762 0.53277 0.10916 0.0
C200 C 0.9705 0.5191 0.09792 0.0
C201 C 0.06415 0.44156 0.10477 0.0
C202 C 0.03988 0.41172 0.10498 0.0
C203 C 0.06043 0.4646 0.0967 0.0
C204 C 0.03233 0.45821 0.089 0.0
C205 C 0.00763 0.42878 0.09008 0.0
C206 C 0.01145 0.40557 0.09785 0.0
C207 C 0.02946 0.48219 0.07891 0.0
C208 C 0.01437 0.49509 0.08853 0.0
C209 C 0.04417 0.4942 0.06075 0.0
C210 C 0.06023 0.48107 0.05 0.0
C211 C 0.04488 0.45049 0.04439 0.0
C212 C 0.06028 0.43813 0.03456 0.0
C213 C 0.09101 0.45619 0.03014 0.0
C214 C 0.10638 0.48668 0.03549 0.0
C215 C 0.09108 0.49913 0.04535 0.0
H216 H 0.1029 0.44658 0.02253 0.0
H217 H 0.96542 0.57315 0.12421 0.0
H218 H 0.60309 0.04733 0.29582 0.0
H219 H 0.55342 0.03878 0.28502 0.0
H220 H 0.56357 0.00296 0.22976 0.0
H221 H 0.61266 0.01055 0.24057 0.0
H222 H 0.55261 0.0594 0.23237 0.0
H223 H 0.51612 0.95437 0.24991 0.0
H224 H 0.50956 0.9141 0.27288 0.0
H225 H 0.46364 0.9415 0.31389 0.0
H226 H 0.47037 0.98227 0.29128 0.0
H227 H 0.41611 0.03381 0.1897 0.0
H228 H 0.45873 0.02695 0.19891 0.0
H229 H 0.42933 0.01404 0.2597 0.0
H230 H 0.38575 0.01886 0.2503 0.0
H231 H 0.45033 0.97951 0.25333 0.0
H232 H 0.48749 0.08447 0.23987 0.0
H233 H 0.49577 0.12869 0.22032 0.0
H234 H 0.54237 0.10726 0.17604 0.0
H235 H 0.53403 0.06269 0.19522 0.0
C236 C 0.59446 0.03715 0.28152 0.0
C237 C 0.6117 0.02965 0.26901 0.0
C238 C 0.56616 0.03224 0.27542 0.0
C239 C 0.55503 0.02019 0.25666 0.0
C240 C 0.57185 0.0121 0.24433 0.0
C241 C 0.59982 0.01642 0.25056 0.0
C242 C 0.52717 0.01866 0.24922 0.0
C243 C 0.53015 0.04171 0.23664 0.0
C244 C 0.4982 -0.00388 0.25545 0.0
C245 C 0.49408 0.97159 0.26901 0.0
C246 C 0.50494 0.95203 0.26392 0.0
C247 C 0.50111 0.92905 0.27685 0.0
C248 C 0.48628 0.9253 0.29486 0.0
C249 C 0.47517 0.94446 0.29995 0.0
C250 C 0.47896 0.96749 0.28708 0.0
C251 C 0.41864 0.02914 0.20497 0.0
C252 C 0.39786 0.02707 0.21932 0.0
C253 C 0.44306 0.02541 0.21026 0.0
C254 C 0.44774 0.02075 0.23011 0.0
C255 C 0.42632 0.01766 0.24431 0.0
C256 C 0.40146 0.02052 0.23893 0.0
C257 C 0.4755 0.0204 0.23632 0.0
C258 C 0.47265 -0.00287 0.2488 0.0
C259 C 0.50477 0.04327 0.23042 0.0
C260 C 0.50984 0.07007 0.21887 0.0
C261 C 0.49932 0.08908 0.22589 0.0
C262 C 0.50405 0.11421 0.21489 0.0
C263 C 0.5195 0.12072 0.19692 0.0
C264 C 0.53035 0.10216 0.18994 0.0
C265 C 0.52564 0.07697 0.20087 0.0
H266 H 0.52314 0.1402 0.18842 0.0
H267 H 0.48333 0.9075 0.30485 0.0
H268 H 0.59428 0.61952 0.41158 0.0
H269 H 0.55352 0.56974 0.40144 0.0
H270 H 0.50385 0.56399 0.4543 0.0
H271 H 0.54427 0.61429 0.46439 0.0
H272 H 0.50936 0.50759 0.43932 0.0
H273 H 0.47993 0.58308 0.42171 0.0
H274 H 0.49055 0.63084 0.40584 0.0
H275 H 0.50527 0.59945 0.3504 0.0
H276 H 0.49518 0.55167 0.36606 0.0
H277 H 0.359 0.39489 0.42125 0.0
H278 H 0.4075 0.43795 0.43061 0.0
H279 H 0.42842 0.46182 0.36912 0.0
H280 H 0.37858 0.41989 0.35989 0.0
H281 H 0.44205 0.50886 0.38685 0.0
H282 H 0.46581 0.43207 0.40065 0.0
H283 H 0.4594 0.38447 0.41427 0.0
H284 H 0.46104 0.41635 0.47315 0.0
H285 H 0.46704 0.46398 0.4599 0.0
C286 C 0.57486 0.60753 0.42118 0.0
C287 C 0.57229 0.62082 0.43872 0.0
C288 C 0.55169 0.57913 0.41538 0.0
C289 C 0.52589 0.5634 0.42717 0.0
C290 C 0.52379 0.57591 0.44511 0.0
C291 C 0.54673 0.60461 0.45077 0.0
C292 C 0.49999 0.53515 0.41989 0.0
C293 C 0.49434 0.50762 0.42799 0.0
C294 C 0.4815 0.53548 0.40451 0.0
C295 C 0.48716 0.56401 0.39509 0.0
C296 C 0.48571 0.5865 0.40618 0.0
C297 C 0.49158 0.61354 0.39722 0.0
C298 C 0.49868 0.61822 0.37713 0.0
C299 C 0.49982 0.59582 0.36596 0.0
C300 C 0.49402 0.56876 0.37487 0.0
C301 C 0.37416 0.40913 0.40973 0.0
C302 C 0.36519 0.4042 0.38987 0.0
C303 C 0.40206 0.43363 0.41508 0.0
C304 C 0.42207 0.45297 0.40059 0.0
C305 C 0.41345 0.44731 0.38061 0.0
C306 C 0.38506 0.42335 0.37532 0.0
C307 C 0.4506 0.48053 0.40642 0.0
C308 C 0.45696 0.50825 0.39805 0.0
C309 C 0.47019 0.48015 0.42118 0.0
C310 C 0.46666 0.45154 0.42925 0.0
C311 C 0.4646 0.42886 0.4165 0.0
C312 C 0.46107 0.40188 0.42416 0.0
C313 C 0.45976 0.39737 0.44456 0.0
C314 C 0.46205 0.41986 0.45735 0.0
C315 C 0.46556 0.44688 0.44977 0.0
H316 H 0.45702 0.37646 0.45046 0.0
H317 H 0.50321 0.63917 0.37022 0.0
H318 H 0.98592 0.60145 0.58246 0.0
H319 H -0.00862 0.55886 0.57138 0.0
H320 H 0.92058 0.49991 0.61142 0.0
H321 H 0.91469 0.54223 0.62241 0.0
H322 H 0.00323 0.51695 0.58801 0.0
H323 H 0.87323 0.43616 0.58663 0.0
H324 H 0.82663 0.43912 0.58291 0.0
H325 H 0.87591 0.52196 0.55049 0.0
H326 H 0.92267 0.51924 0.55375 0.0
H327 H 0.96606 0.36427 0.57907 0.0
H328 H 0.97378 0.41394 0.58773 0.0
H329 H 0.93302 0.41717 0.53256 0.0
H330 H 0.9239 0.36671 0.52429 0.0
H331 H 0.90937 0.43187 0.55995 0.0
H332 H 0.01161 0.4635 0.54316 0.0
H333 H 0.05976 0.46307 0.54358 0.0
H334 H 0.0693 0.48275 0.60564 0.0
H335 H 0.021 0.48291 0.60567 0.0
C336 C 0.97184 0.57951 0.58914 0.0
C337 C 0.94957 0.57505 0.6031 0.0
C338 C 0.97508 0.55526 0.58284 0.0
C339 C 0.95604 0.52624 0.59036 0.0
C340 C 0.93517 0.52212 0.60524 0.0
C341 C 0.93188 0.54631 0.61153 0.0
C342 C 0.9561 0.49983 0.58152 0.0
C343 C 0.98279 0.49827 0.58186 0.0
C344 C 0.92964 0.47606 0.57291 0.0
C345 C 0.9015 0.47763 0.57062 0.0
C346 C 0.87408 0.45493 0.57864 0.0
C347 C 0.84765 0.45658 0.57661 0.0
C348 C 0.84833 0.48076 0.56652 0.0
C349 C 0.87543 0.5033 0.55836 0.0
C350 C 0.90191 0.50173 0.56031 0.0
C351 C 0.95911 0.37575 0.56867 0.0
C352 C 0.94424 0.36162 0.55105 0.0
C353 C 0.96374 0.40427 0.57358 0.0
C354 C 0.9543 0.41951 0.56071 0.0
C355 C 0.94044 0.40583 0.54275 0.0
C356 C 0.93527 0.37704 0.53801 0.0
C357 C 0.95641 0.44839 0.56678 0.0
C358 C 0.93001 0.45048 0.56595 0.0
C359 C 0.9834 0.47294 0.5744 0.0
C360 C 0.01255 0.473 0.57444 0.0
C361 C 0.02387 0.46754 0.55693 0.0
C362 C 0.05121 0.46737 0.55708 0.0
C363 C 0.06755 0.47282 0.57463 0.0
C364 C 0.05662 0.47852 0.59206 0.0
C365 C 0.02928 0.47869 0.592 0.0
H366 H 0.08871 0.47268 0.57472 0.0
H367 H 0.82785 0.48201 0.56499 0.0
H368 H 0.54571 0.9342 0.69414 0.0
H369 H 0.50321 0.94095 0.70423 0.0
H370 H 0.54634 0.97609 0.76039 0.0
H371 H 0.58921 0.97027 0.75029 0.0
H372 H 0.48122 0.92005 0.75793 0.0
H373 H 0.54622 0.02426 0.73807 0.0
H374 H 0.57883 0.06419 0.71456 0.0
H375 H 0.50496 0.03268 0.67352 0.0
H376 H 0.47202 -0.00776 0.69669 0.0
H377 H 0.3682 0.94464 0.79877 0.0
H378 H 0.41744 0.95092 0.78955 0.0
H379 H 0.39875 0.95846 0.72826 0.0
H380 H 0.35051 0.95411 0.73759 0.0
H381 H 0.45414 -0.00467 0.7341 0.0
H382 H 0.38982 0.89076 0.75024 0.0
H383 H 0.35536 0.84717 0.77081 0.0
H384 H 0.42457 0.8738 0.81496 0.0
H385 H 0.45933 0.91778 0.79474 0.0
C386 C 0.54634 0.94385 0.70849 0.0
C387 C 0.57067 0.95164 0.72146 0.0
C388 C 0.52217 0.94773 0.71419 0.0
C389 C 0.52187 0.95901 0.73301 0.0
C390 C 0.5464 0.96747 0.74578 0.0
C391 C 0.57082 0.96418 0.73996 0.0
C392 C 0.49478 0.95948 0.73999 0.0
C393 C 0.47541 0.93673 0.75302 0.0
C394 C 0.48701 0.98069 0.73294 0.0
C395 C 0.50677 0.00501 0.71902 0.0
C396 C 0.53702 0.02563 0.72395 0.0
C397 C 0.55555 0.04841 0.7107 0.0
C398 C 0.544 0.05092 0.69253 0.0
C399 C 0.51389 0.03069 0.68759 0.0
C400 C 0.49528 0.00785 0.70078 0.0
C401 C 0.37478 0.94782 0.78336 0.0
C402 C 0.35558 0.94872 0.76886 0.0
C403 C 0.40281 0.95125 0.77808 0.0
C404 C 0.41158 0.95452 0.75814 0.0
C405 C 0.39256 0.95598 0.74373 0.0
C406 C 0.36494 0.95337 0.74906 0.0
C407 C 0.44015 0.9557 0.75216 0.0
C408 C 0.45985 0.97867 0.73922 0.0
C409 C 0.44789 0.93416 0.7589 0.0
C410 C 0.42705 0.90773 0.77108 0.0
C411 C 0.39761 0.88743 0.7644 0.0
C412 C 0.37804 0.86264 0.77599 0.0
C413 C 0.38774 0.85777 0.79421 0.0
C414 C 0.41707 0.87764 0.80086 0.0
C415 C 0.43672 0.90248 0.78934 0.0
H416 H 0.37255 0.83857 0.80315 0.0
H417 H 0.55837 0.06857 0.6823 0.0
H418 H 0.43363 0.36654 0.96635 0.0
H419 H 0.47674 0.41531 0.95696 0.0
H420 H 0.42588 0.42021 0.90754 0.0
H421 H 0.38248 0.37204 0.9172 0.0
H422 H 0.50839 0.42654 0.92516 0.0
H423 H 0.45196 0.49257 0.8937 0.0
H424 H 0.408 0.49898 0.90064 0.0
H425 H 0.40844 0.47436 0.96119 0.0
H426 H 0.45264 0.46821 0.9547 0.0
H427 H 0.61279 0.53936 0.86241 0.0
H428 H 0.56481 0.4979 0.87466 0.0
H429 H 0.56312 0.55604 0.92025 0.0
H430 H 0.61047 0.59774 0.90775 0.0
H431 H 0.50784 0.52038 0.90713 0.0
H432 H 0.58999 0.50785 0.92976 0.0
H433 H 0.63585 0.50355 0.92629 0.0
H434 H 0.58678 0.42457 0.89019 0.0
H435 H 0.54072 0.42865 0.89323 0.0
C436 C 0.43145 0.37833 0.95372 0.0
C437 C 0.40476 0.36544 0.94246 0.0
C438 C 0.45611 0.40613 0.94834 0.0
C439 C 0.45453 0.42144 0.93156 0.0
C440 C 0.42748 0.40909 0.92072 0.0
C441 C 0.40272 0.38146 0.92622 0.0
C442 C 0.48194 0.44882 0.92439 0.0
C443 C 0.50825 0.44709 0.92132 0.0
C444 C 0.4819 0.47575 0.91954 0.0
C445 C 0.45546 0.47966 0.92365 0.0
C446 C 0.44275 0.48864 0.90852 0.0
C447 C 0.41778 0.49221 0.91237 0.0
C448 C 0.40538 0.48699 0.93133 0.0
C449 C 0.41799 0.47828 0.9465 0.0
C450 C 0.44298 0.4747 0.94273 0.0
C451 C 0.60196 0.5434 0.87487 0.0
C452 C 0.61553 0.57167 0.88425 0.0
C453 C 0.57463 0.51969 0.88189 0.0
C454 C 0.56074 0.52376 0.8986 0.0
C455 C 0.5735 0.55239 0.90737 0.0
C456 C 0.60063 0.57616 0.90024 0.0
C457 C 0.53399 0.49782 0.9077 0.0
C458 C 0.50787 0.49981 0.91105 0.0
C459 C 0.5344 0.47137 0.91333 0.0
C460 C 0.56199 0.46872 0.91158 0.0
C461 C 0.58904 0.48968 0.92098 0.0
C462 C 0.61506 0.48727 0.9191 0.0
C463 C 0.61424 0.46384 0.90798 0.0
C464 C 0.58738 0.44272 0.89877 0.0
C465 C 0.56131 0.44506 0.90058 0.0
H466 H 0.63441 0.46201 0.90654 0.0
H467 H 0.38604 0.48975 0.93428 0.0
H468 H 0.06466 0.2881 0.0585 0.0
H469 H 0.09146 0.27783 0.03252 0.0
H470 H 0.17414 0.35917 0.04776 0.0
H471 H 0.14736 0.36989 0.0737 0.0
H472 H 0.16747 0.34871 0.00714 0.0
H473 H 0.16177 0.29498 0.06691 0.0
H474 H 0.13559 0.26115 0.09497 0.0
H475 H 0.08287 0.1884 0.05487 0.0
H476 H 0.10843 0.22196 0.02654 0.0
H477 H 0.27763 0.31059 0.9763 0.0
H478 H 0.24521 0.32628 0.99279 0.0
H479 H 0.1666 0.24079 0.97833 0.0
H480 H 0.19889 0.22466 0.96205 0.0
H481 H 0.16867 0.253 0.01665 0.0
H482 H 0.17852 0.30626 0.95662 0.0
H483 H 0.20544 0.3406 0.92893 0.0
H484 H 0.25147 0.4145 0.96942 0.0
H485 H 0.22514 0.38051 -0.0026 0.0
C486 C 0.08846 0.30402 0.05618 0.0
C487 C 0.10406 0.32955 0.06832 0.0
C488 C 0.1037 0.29814 0.04132 0.0
C489 C 0.13481 0.31752 0.03847 0.0
C490 C 0.1501 0.34394 0.0498 0.0
C491 C 0.13483 0.34993 0.06465 0.0
C492 C 0.15184 0.30877 0.02496 0.0
C493 C 0.16799 0.32792 0.00923 0.0
C494 C 0.15196 0.28137 0.0276 0.0
C495 C 0.13677 0.26107 0.04461 0.0
C496 C 0.14443 0.27183 0.06408 0.0
C497 C 0.12973 0.2527 0.08003 0.0
C498 C 0.10752 0.22267 0.07671 0.0
C499 C 0.10004 0.21168 0.05742 0.0
C500 C 0.11463 0.23074 0.04141 0.0
C501 C 0.25341 0.29524 0.97638 0.0
C502 C 0.24087 0.26625 0.96802 0.0
C503 C 0.23488 0.30435 0.9857 0.0
C504 C 0.20349 0.28476 0.98667 0.0
C505 C 0.1908 0.25624 0.97772 0.0
C506 C 0.2093 0.24707 0.96844 0.0
C507 C 0.18435 0.29286 -0.00134 0.0
C508 C 0.16792 0.27362 0.01428 0.0
C509 C 0.18416 0.32022 -0.00407 0.0
C510 C 0.20003 0.34076 0.97913 0.0
C511 C 0.19457 0.32978 0.95964 0.0
C512 C 0.20969 0.3492 0.94388 0.0
C513 C 0.2302 0.3797 0.94741 0.0
C514 C 0.23559 0.39086 0.96671 0.0
C515 C 0.22054 0.37154 0.98252 0.0
H516 H 0.24189 0.39469 0.9352 0.0
H517 H 0.09616 0.20789 0.08908 0.0
H518 H 0.7546 0.1503 0.23926 0.0
H519 H 0.79123 0.18275 0.21434 0.0
H520 H 0.80629 0.10977 0.19771 0.0
H521 H 0.76944 0.0772 0.22218 0.0
H522 H 0.84951 0.20059 0.21441 0.0
H523 H 0.82834 0.11526 0.15085 0.0
H524 H 0.78518 0.072 0.1346 0.0
H525 H 0.72641 0.10529 0.15249 0.0
H526 H 0.76927 0.14899 0.1686 0.0
H527 H 0.96245 0.20795 0.13809 0.0
H528 H 0.91268 0.18057 0.15363 0.0
H529 H 0.91043 0.26355 0.159 0.0
H530 H 0.96036 0.29125 0.14365 0.0
H531 H 0.85635 0.17289 0.14516 0.0
H532 H 0.87958 0.26214 0.20443 0.0
H533 H 0.92277 0.30456 0.22136 0.0
H534 H 0.97621 0.26192 0.21276 0.0
H535 H 0.93323 0.2191 0.19602 0.0
C536 C 0.76536 0.14107 0.23006 0.0
C537 C 0.75931 0.11129 0.23274 0.0
C538 C 0.78625 0.15961 0.21584 0.0
C539 C 0.80126 0.1486 0.20404 0.0
C540 C 0.79453 0.11858 0.20634 0.0
C541 C 0.77362 0.10005 0.22046 0.0
C542 C 0.82622 0.16908 0.1908 0.0
C543 C 0.85062 0.19494 0.1991 0.0
C544 C 0.82791 0.16137 0.17095 0.0
C545 C 0.80204 0.13534 0.16105 0.0
C546 C 0.80626 0.11347 0.15122 0.0
C547 C 0.78183 0.08884 0.14205 0.0
C548 C 0.75306 0.08587 0.14255 0.0
C549 C 0.74868 0.10757 0.15217 0.0
C550 C 0.77303 0.13225 0.16135 0.0
C551 C 0.9513 0.22038 0.14243 0.0
C552 C 0.96554 0.25184 0.13985 0.0
C553 C 0.92278 0.20466 0.15119 0.0
C554 C 0.90808 0.22012 0.1576 0.0
C555 C 0.92161 0.2513 0.15432 0.0
C556 C 0.95014 0.26706 0.14556 0.0
C557 C 0.87964 0.20383 0.16896 0.0
C558 C 0.85475 0.17881 0.16031 0.0
C559 C 0.87743 0.21223 0.18851 0.0
C560 C 0.90334 0.23766 0.19875 0.0
C561 C 0.90054 0.26182 0.20619 0.0
C562 C 0.92498 0.28592 0.21576 0.0
C563 C 0.95226 0.286 0.21806 0.0
C564 C 0.95512 0.2619 0.21089 0.0
C565 C 0.93074 0.23774 0.20134 0.0
H566 H 0.97115 0.30469 0.22545 0.0
H567 H 0.73418 0.06677 0.13545 0.0
H568 H 0.68629 0.76797 0.38874 0.0
H569 H 0.69561 0.80471 0.36278 0.0
H570 H 0.61821 0.81081 0.38209 0.0
H571 H 0.60835 0.77353 0.40799 0.0
H572 H 0.62449 0.8136 0.34123 0.0
H573 H 0.68596 0.86077 0.39873 0.0
H574 H 0.72219 0.86695 0.42495 0.0
H575 H 0.78936 0.88223 0.38125 0.0
H576 H 0.75334 0.87567 0.35474 0.0
H577 H 0.66685 0.96221 0.30978 0.0
H578 H 0.65057 0.91431 0.32654 0.0
H579 H 0.73313 0.91685 0.30889 0.0
H580 H 0.74996 0.9652 0.29243 0.0
H581 H 0.72416 0.90742 0.34709 0.0
H582 H 0.66355 0.8647 0.28936 0.0
H583 H 0.62697 0.85865 0.26344 0.0
H584 H 0.55809 0.83566 0.30733 0.0
H585 H 0.59438 0.84199 0.33355 0.0
C586 C 0.67099 0.77682 0.38733 0.0
C587 C 0.64687 0.76827 0.40058 0.0
C588 C 0.67634 0.79776 0.37247 0.0
C589 C 0.65789 0.81078 0.37078 0.0
C590 C 0.63273 0.80102 0.38323 0.0
C591 C 0.62723 0.77987 0.39806 0.0
C592 C 0.66652 0.83648 0.35725 0.0
C593 C 0.64616 0.83424 0.34254 0.0
C594 C 0.69504 0.8631 0.35883 0.0
C595 C 0.71686 0.86742 0.37476 0.0
C596 C 0.70839 0.86523 0.39471 0.0
C597 C 0.72889 0.86883 0.40962 0.0
C598 C 0.75803 0.87489 0.40477 0.0
C599 C 0.76676 0.87747 0.38498 0.0
C600 C 0.74632 0.87384 0.37001 0.0
C601 C 0.6814 0.95241 0.30921 0.0
C602 C 0.70983 0.96765 0.2999 0.0
C603 C 0.67194 0.92489 0.3187 0.0
C604 C 0.69054 0.9119 0.31884 0.0
C605 C 0.71844 0.92651 0.30895 0.0
C606 C 0.72802 0.95414 0.29956 0.0
C607 C 0.68221 0.88468 0.33087 0.0
C608 C 0.70262 0.88669 0.3455 0.0
C609 C 0.65371 0.85799 0.32919 0.0
C610 C 0.63178 0.85406 0.31344 0.0
C611 C 0.64067 0.85858 0.29351 0.0
C612 C 0.61997 0.85506 0.27875 0.0
C613 C 0.59024 0.84684 0.28374 0.0
C614 C 0.58113 0.84205 0.30349 0.0
C615 C 0.60175 0.84556 0.3183 0.0
H616 H 0.57425 0.84413 0.27229 0.0
H617 H 0.77388 0.87767 0.41633 0.0
H618 H 0.77374 0.74838 0.46463 0.0
H619 H 0.80155 0.72676 0.48067 0.0
H620 H 0.71728 0.64848 0.49755 0.0
H621 H 0.68923 0.66984 0.48158 0.0
H622 H 0.75653 0.67401 0.52856 0.0
H623 H 0.75891 0.64088 0.46305 0.0
H624 H 0.76754 0.646 0.4271 0.0
H625 H 0.86197 0.70852 0.43662 0.0
H626 H 0.85383 0.70412 0.47265 0.0
H627 H 0.83088 0.60389 0.57243 0.0
H628 H 0.79824 0.61027 0.54876 0.0
H629 H 0.87511 0.69209 0.5272 0.0
H630 H 0.90791 0.6858 0.55067 0.0
H631 H 0.83574 0.65849 0.49726 0.0
H632 H 0.8325 0.69707 0.56171 0.0
H633 H 0.82503 0.69372 0.59779 0.0
H634 H 0.73296 0.62284 0.59011 0.0
H635 H 0.74006 0.62546 0.55397 0.0
C636 C 0.76111 0.72644 0.4716 0.0
C637 C 0.72929 0.71089 0.47191 0.0
C638 C 0.77702 0.71405 0.48064 0.0
C639 C 0.7614 0.68595 0.49015 0.0
C640 C 0.72968 0.67015 0.49022 0.0
C641 C 0.71374 0.68242 0.48107 0.0
C642 C 0.77825 0.67416 0.50124 0.0
C643 C 0.77338 0.66996 0.52165 0.0
C644 C 0.80068 0.66963 0.49223 0.0
C645 C 0.8057 0.67235 0.47056 0.0
C646 C 0.78147 0.65592 0.45748 0.0
C647 C 0.78628 0.65866 0.43709 0.0
C648 C 0.81527 0.67762 0.42958 0.0
C649 C 0.83952 0.69385 0.44246 0.0
C650 C 0.83483 0.69122 0.46287 0.0
C651 C 0.84091 0.62296 0.56242 0.0
C652 C 0.87185 0.64461 0.56358 0.0
C653 C 0.82225 0.62656 0.54893 0.0
C654 C 0.83427 0.65186 0.53647 0.0
C655 C 0.86545 0.67244 0.53674 0.0
C656 C 0.8841 0.6689 0.55023 0.0
C657 C 0.8141 0.65856 0.52453 0.0
C658 C 0.81847 0.66199 0.50405 0.0
C659 C 0.79131 0.66264 0.53346 0.0
C660 C 0.78692 0.6612 0.55517 0.0
C661 C 0.81074 0.6806 0.56773 0.0
C662 C 0.80657 0.67886 0.58818 0.0
C663 C 0.77857 0.65802 0.59624 0.0
C664 C 0.75466 0.63893 0.58385 0.0
C665 C 0.75874 0.64053 0.56338 0.0
H666 H 0.77537 0.65671 0.61208 0.0
H667 H 0.81895 0.67971 0.41379 0.0
H668 H 0.02114 0.69878 0.63861 0.0
H669 H 0.06792 0.72861 0.6571 0.0
H670 H 0.06423 0.80954 0.64491 0.0
H671 H 0.01726 0.7799 0.62632 0.0
H672 H 0.12395 0.81726 0.64353 0.0
H673 H 0.03584 0.77632 0.68593 0.0
H674 H 0.98815 0.73535 0.69969 0.0
H675 H 0.03485 0.69042 0.7208 0.0
H676 H 0.08276 0.73093 0.70687 0.0
H677 H 0.20133 0.91358 0.7237 0.0
H678 H 0.16621 0.88207 0.698 0.0
H679 H 0.17051 0.80497 0.71985 0.0
H680 H 0.20551 0.83636 0.74583 0.0
H681 H 0.1133 0.79244 0.71499 0.0
H682 H 0.20294 0.8366 0.67613 0.0
H683 H 0.25063 0.87747 0.66236 0.0
H684 H 0.20221 0.91631 0.63468 0.0
H685 H 0.15424 0.8759 0.64853 0.0
C686 C 0.03046 0.72299 0.63957 0.0
C687 C 0.01522 0.73693 0.63125 0.0
C688 C 0.05721 0.73996 0.65011 0.0
C689 C 0.0692 0.77112 0.65251 0.0
C690 C 0.05521 0.78546 0.64319 0.0
C691 C 0.02832 0.76847 0.63268 0.0
C692 C 0.09446 0.78813 0.66634 0.0
C693 C 0.1217 0.81206 0.65918 0.0
C694 C 0.09152 0.78069 0.68663 0.0
C695 C 0.06279 0.75645 0.69516 0.0
C696 C 0.03588 0.75757 0.69335 0.0
C697 C 0.00882 0.73446 0.70121 0.0
C698 C 0.00845 0.71025 0.71106 0.0
C699 C 0.03516 0.70916 0.71313 0.0
C700 C 0.06227 0.73219 0.70527 0.0
C701 C 0.195 0.88997 0.72296 0.0
C702 C 0.20603 0.87738 0.73683 0.0
C703 C 0.17511 0.87205 0.70817 0.0
C704 C 0.16605 0.84129 0.70691 0.0
C705 C 0.17737 0.82872 0.72056 0.0
C706 C 0.19731 0.84666 0.73537 0.0
C707 C 0.14297 0.82189 0.69228 0.0
C708 C 0.11593 0.79749 0.69931 0.0
C709 C 0.14619 0.82894 0.6719 0.0
C710 C 0.175 0.85331 0.66351 0.0
C711 C 0.20247 0.85398 0.66724 0.0
C712 C 0.22956 0.87705 0.6594 0.0
C713 C 0.22946 0.8995 0.64768 0.0
C714 C 0.20226 0.8989 0.64377 0.0
C715 C 0.1751 0.8759 0.65159 0.0
H716 H 0.25046 0.91734 0.64162 0.0
H717 H 0.98747 0.69238 0.71713 0.0
H718 H 0.23888 0.03784 0.7939 0.0
H719 H 0.26347 0.08761 0.80927 0.0
H720 H 0.34577 0.08398 0.81588 0.0
H721 H 0.32123 0.03392 0.80074 0.0
H722 H 0.32755 0.09474 0.8501 0.0
H723 H 0.34414 0.1367 0.78569 0.0
H724 H 0.33125 0.14255 0.75151 0.0
H725 H 0.26599 0.16546 0.77291 0.0
H726 H 0.27814 0.15933 0.80722 0.0
H727 H 0.38316 0.22996 0.90475 0.0
H728 H 0.38144 0.19789 0.87734 0.0
H729 H 0.29254 0.18161 0.86147 0.0
H730 H 0.29429 0.21395 0.88851 0.0
H731 H 0.32577 0.18678 0.82891 0.0
H732 H 0.3006 0.13331 0.89155 0.0
H733 H 0.31059 0.12549 0.92605 0.0
H734 H 0.38963 0.12241 0.90771 0.0
H735 H 0.38029 0.13062 0.8731 0.0
C736 C 0.26239 0.04783 0.79826 0.0
C737 C 0.27797 0.03175 0.79633 0.0
C738 C 0.27651 0.07643 0.80691 0.0
C739 C 0.30651 0.08955 0.81361 0.0
C740 C 0.32262 0.07423 0.81076 0.0
C741 C 0.30851 0.04561 0.80214 0.0
C742 C 0.31941 0.11716 0.82588 0.0
C743 C 0.32801 0.11522 0.84526 0.0
C744 C 0.31933 0.14356 0.81969 0.0
C745 C 0.31198 0.14741 0.79906 0.0
C746 C 0.32688 0.14279 0.78312 0.0
C747 C 0.31973 0.14619 0.76371 0.0
C748 C 0.29779 0.15434 0.76004 0.0
C749 C 0.28299 0.15916 0.77577 0.0
C750 C 0.29005 0.15578 0.79521 0.0
C751 C 0.36344 0.21986 0.89525 0.0
C752 C 0.33866 0.22406 0.89893 0.0
C753 C 0.36252 0.20161 0.8796 0.0
C754 C 0.33671 0.18714 0.86756 0.0
C755 C 0.31268 0.19263 0.87058 0.0
C756 C 0.31363 0.21093 0.88614 0.0
C757 C 0.33315 0.16391 0.85312 0.0
C758 C 0.32619 0.16663 0.83345 0.0
C759 C 0.33443 0.13803 0.85904 0.0
C760 C 0.33998 0.13297 0.8798 0.0
C761 C 0.32023 0.13119 0.89491 0.0
C762 C 0.32576 0.12666 0.91447 0.0
C763 C 0.35079 0.12356 0.91908 0.0
C764 C 0.3703 0.1249 0.90412 0.0
C765 C 0.3649 0.12948 0.88453 0.0
H766 H 0.35503 0.12005 0.93424 0.0
H767 H 0.29228 0.15696 0.745 0.0
H768 H 0.74001 0.77458 0.85761 0.0
H769 H 0.71727 0.80189 0.8424 0.0
H770 H 0.63631 0.71748 0.82963 0.0
H771 H 0.65882 0.68993 0.84473 0.0
H772 H 0.65904 0.75323 0.79726 0.0
H773 H 0.63336 0.76359 0.86329 0.0
H774 H 0.64215 0.77561 0.89877 0.0
H775 H 0.70612 0.86804 0.88498 0.0
H776 H 0.69806 0.8565 0.8494 0.0
H777 H 0.5948 0.83183 0.75122 0.0
H778 H 0.59925 0.79908 0.77576 0.0
H779 H 0.68415 0.87377 0.79568 0.0
H780 H 0.67969 0.90667 0.77147 0.0
H781 H 0.65105 0.8381 0.82637 0.0
H782 H 0.68365 0.82622 0.76155 0.0
H783 H 0.67728 0.81538 0.72584 0.0
H784 H 0.60265 0.7266 0.73746 0.0
H785 H 0.60833 0.73711 0.77326 0.0
C786 C 0.71723 0.76182 0.85178 0.0
C787 C 0.70133 0.73008 0.85224 0.0
C788 C 0.70419 0.77747 0.84322 0.0
C789 C 0.67505 0.76166 0.83502 0.0
C790 C 0.6588 0.73005 0.83594 0.0
C791 C 0.67174 0.71438 0.84457 0.0
C792 C 0.66282 0.77804 0.82385 0.0
C793 C 0.65657 0.7713 0.80374 0.0
C794 C 0.66033 0.80203 0.83226 0.0
C795 C 0.66525 0.80911 0.85365 0.0
C796 C 0.64949 0.78643 0.86781 0.0
C797 C 0.6543 0.79317 0.88795 0.0
C798 C 0.67472 0.82256 0.89412 0.0
C799 C 0.69032 0.84528 0.88017 0.0
C800 C 0.6856 0.83866 0.86002 0.0
C801 C 0.61418 0.84137 0.76105 0.0
C802 C 0.63716 0.87168 0.75925 0.0
C803 C 0.61666 0.82265 0.77503 0.0
C804 C 0.64222 0.83396 0.78731 0.0
C805 C 0.66425 0.86463 0.78632 0.0
C806 C 0.66178 0.88335 0.7724 0.0
C807 C 0.64769 0.81347 0.7998 0.0
C808 C 0.65285 0.81954 0.82006 0.0
C809 C 0.64948 0.78898 0.79154 0.0
C810 C 0.64616 0.78258 0.77004 0.0
C811 C 0.66573 0.80448 0.75648 0.0
C812 C 0.66228 0.79839 0.73623 0.0
C813 C 0.63951 0.77036 0.72938 0.0
C814 C 0.62023 0.74833 0.74279 0.0
C815 C 0.62355 0.75434 0.76305 0.0
H816 H 0.63687 0.76568 0.7137 0.0
H817 H 0.67841 0.82773 0.90972 0.0
H818 H 0.76946 0.60921 0.90968 0.0
H819 H 0.80666 0.61708 0.93522 0.0
H820 H 0.80018 0.69252 0.95802 0.0
H821 H 0.76356 0.68521 0.93234 0.0
H822 H 0.85707 0.70781 0.95134 0.0
H823 H 0.77233 0.62595 0.98383 0.0
H824 H 0.72788 0.57489 0.98679 0.0
H825 H 0.78392 0.53572 0.97581 0.0
H826 H 0.82867 0.58656 0.9725 0.0
H827 H 0.95386 0.73996 0.03193 0.0
H828 H 0.90634 0.72236 0.01415 0.0
H829 H 0.91539 0.65005 0.98843 0.0
H830 H 0.96281 0.66717 0.00643 0.0
H831 H 0.85594 0.6322 -0.00216 0.0
H832 H 0.93935 0.71335 0.96308 0.0
H833 H 0.98401 0.76419 0.95963 0.0
H834 H 0.92987 0.80426 0.97429 0.0
H835 H 0.88495 0.7536 0.97811 0.0
C836 C 0.7757 0.62722 0.9203 0.0
C837 C 0.76388 0.6468 0.91892 0.0
C838 C 0.79679 0.63157 0.93495 0.0
C839 C 0.80606 0.65531 0.94855 0.0
C840 C 0.79336 0.67411 0.94763 0.0
C841 C 0.77247 0.66991 0.93295 0.0
C842 C 0.83101 0.66241 0.96256 0.0
C843 C 0.85652 0.69141 0.96177 0.0
C844 C 0.83067 0.64071 0.9757 0.0
C845 C 0.80381 0.61009 0.97774 0.0
C846 C 0.77514 0.60646 0.98188 0.0
C847 C 0.7499 0.57755 0.98365 0.0
C848 C 0.75306 0.55208 0.98144 0.0
C849 C 0.7815 0.55547 0.9775 0.0
C850 C 0.80682 0.58433 0.9757 0.0
C851 C 0.94561 0.72008 0.02269 0.0
C852 C 0.96236 0.70524 0.02034 0.0
C853 C 0.91843 0.71005 0.01257 0.0
C854 C 0.9077 0.68523 -0.00024 0.0
C855 C 0.9234 0.6693 -0.00177 0.0
C856 C 0.95055 0.67922 0.00845 0.0
C857 C 0.88164 0.67762 0.98669 0.0
C858 C 0.85617 0.64857 0.98754 0.0
C859 C 0.88194 0.69922 0.9735 0.0
C860 C 0.90887 0.7297 0.97108 0.0
C861 C 0.93702 0.733 0.96571 0.0
C862 C 0.96237 0.76178 0.96367 0.0
C863 C 0.9598 0.78744 0.96679 0.0
C864 C 0.93184 0.78436 0.97191 0.0
C865 C 0.90643 0.75563 0.974 0.0
H866 H 0.97945 0.8097 0.9652 0.0
H867 H 0.73349 0.52971 0.98281 0.0
H868 H 0.19241 0.95551 0.19762 0.0
H869 H 0.1609 0.90602 0.18258 0.0
H870 H 0.24103 0.90374 0.16485 0.0
H871 H 0.27273 0.95294 0.18021 0.0
H872 H 0.1596 0.89481 0.14459 0.0
H873 H 0.22518 0.831 0.15961 0.0
H874 H 0.25597 0.82634 0.18598 0.0
H875 H 0.21085 0.85123 0.22928 0.0
H876 H 0.1795 0.85563 0.20322 0.0
H877 H 0.14409 0.7625 0.08485 0.0
H878 H 0.1705 0.79894 0.11131 0.0
H879 H 0.08587 0.79038 0.13046 0.0
H880 H 0.05938 0.75431 0.10393 0.0
H881 H 0.16664 0.80194 0.15242 0.0
H882 H 0.09801 0.86147 0.13742 0.0
H883 H 0.06793 0.86644 0.11064 0.0
H884 H 0.12067 0.85137 0.06748 0.0
H885 H 0.15134 0.84681 0.09397 0.0
C886 C 0.20335 0.9443 0.19078 0.0
C887 C 0.23508 0.95827 0.18996 0.0
C888 C 0.1853 0.916 0.18222 0.0
C889 C 0.19861 0.90115 0.17269 0.0
C890 C 0.23026 0.91456 0.17242 0.0
C891 C 0.24835 0.9428 0.1811 0.0
C892 C 0.17956 0.87324 0.1613 0.0
C893 C 0.16067 0.8743 0.14664 0.0
C894 C 0.18165 0.8468 0.16357 0.0
C895 C 0.20018 0.84391 0.17941 0.0
C896 C 0.22173 0.83535 0.17476 0.0
C897 C 0.2393 0.83278 0.18966 0.0
C898 C 0.23543 0.83857 0.20928 0.0
C899 C 0.21391 0.84686 0.21406 0.0
C900 C 0.19627 0.84945 0.19922 0.0
C901 C 0.13106 0.76797 0.0949 0.0
C902 C 0.0998 0.75604 0.09211 0.0
C903 C 0.14613 0.78865 0.11007 0.0
C904 C 0.13014 0.79761 0.12259 0.0
C905 C 0.09861 0.78398 0.12075 0.0
C906 C 0.08357 0.76345 0.10557 0.0
C907 C 0.14677 0.82368 0.13592 0.0
C908 C 0.1653 0.82235 0.15072 0.0
C909 C 0.14454 0.85003 0.13379 0.0
C910 C 0.1267 0.85343 0.1177 0.0
C911 C 0.10325 0.85934 0.12221 0.0
C912 C 0.0861 0.86208 0.10708 0.0
C913 C 0.09231 0.8591 0.08738 0.0
C914 C 0.1158 0.85355 0.08275 0.0
C915 C 0.13306 0.85088 0.09782 0.0
H916 H 0.07897 0.86117 0.07569 0.0
H917 H 0.24907 0.83659 0.22079 0.0
H918 H 0.27952 0.06761 0.26415 0.0
H919 H 0.27222 0.0986 0.28841 0.0
H920 H 0.36058 0.17373 0.27492 0.0
H921 H 0.36817 0.14275 0.25038 0.0
H922 H 0.34419 0.16519 0.31685 0.0
H923 H 0.30711 0.17569 0.25395 0.0
H924 H 0.2782 0.15722 0.22296 0.0
H925 H 0.19554 0.10906 0.25588 0.0
H926 H 0.22405 0.12686 0.28711 0.0
H927 H 0.31315 0.27914 0.35312 0.0
H928 H 0.32906 0.24824 0.33483 0.0
H929 H 0.23874 0.17168 0.33928 0.0
H930 H 0.2225 0.20238 0.35743 0.0
H931 H 0.25906 0.18292 0.30162 0.0
H932 H 0.29609 0.17293 0.36467 0.0
H933 H 0.32511 0.19086 0.39566 0.0
H934 H 0.40784 0.23833 0.36273 0.0
H935 H 0.37926 0.22102 0.33152 0.0
C936 C 0.29759 0.09062 0.26645 0.0
C937 C 0.32428 0.10291 0.25519 0.0
C938 C 0.29338 0.10824 0.28034 0.0
C939 C 0.31575 0.13843 0.28325 0.0
C940 C 0.3431 0.15042 0.27281 0.0
C941 C 0.34731 0.13278 0.25877 0.0
C942 C 0.30924 0.15783 0.29603 0.0
C943 C 0.3259 0.16953 0.31346 0.0
C944 C 0.28504 0.1629 0.29162 0.0
C945 C 0.26776 0.15238 0.27287 0.0
C946 C 0.2828 0.16096 0.25459 0.0
C947 C 0.26649 0.15064 0.23698 0.0
C948 C 0.23506 0.13192 0.23745 0.0
C949 C 0.21989 0.12354 0.25554 0.0
C950 C 0.23612 0.13375 0.2732 0.0
C951 C 0.29674 0.25561 0.35046 0.0
C952 C 0.26647 0.24328 0.35658 0.0
C953 C 0.30594 0.23797 0.34009 0.0
C954 C 0.28507 0.20771 0.33575 0.0
C955 C 0.25515 0.19504 0.34248 0.0
C956 C 0.24594 0.21262 0.35287 0.0
C957 C 0.29364 0.19 0.32274 0.0
C958 C 0.2774 0.17871 0.30511 0.0
C959 C 0.31825 0.18545 0.327 0.0
C960 C 0.33549 0.19594 0.34575 0.0
C961 C 0.32044 0.18743 0.36403 0.0
C962 C 0.33682 0.19742 0.38164 0.0
C963 C 0.36828 0.21579 0.38116 0.0
C964 C 0.38345 0.22414 0.36308 0.0
C965 C 0.36718 0.21422 0.34542 0.0
H966 H 0.38092 0.2235 0.39482 0.0
H967 H 0.22247 0.12395 0.2238 0.0
H968 H 0.21432 0.29377 0.439 0.0
H969 H 0.17476 0.28512 0.46265 0.0
H970 H 0.1746 0.36477 0.44174 0.0
H971 H 0.21457 0.37381 0.41797 0.0
H972 H 0.16607 0.35511 0.48371 0.0
H973 H 0.12573 0.30253 0.42248 0.0
H974 H 0.12201 0.26955 0.39478 0.0
H975 H 0.09726 0.19588 0.43499 0.0
H976 H 0.10136 0.22861 0.46299 0.0
H977 H 0.01421 0.31018 0.51238 0.0
H978 H 0.06275 0.3285 0.49573 0.0
H979 H 0.06035 0.24475 0.50901 0.0
H980 H 0.01158 0.22599 0.52539 0.0
H981 H 0.0712 0.25855 0.47097 0.0
H982 H 0.11 0.31084 0.53233 0.0
H983 H 0.11433 0.34412 0.56 0.0
H984 H 0.14154 0.41829 0.51985 0.0
H985 H 0.13697 0.38533 0.49188 0.0
C986 C 0.20625 0.30976 0.43961 0.0
C987 C 0.21712 0.33418 0.42641 0.0
C988 C 0.18372 0.30481 0.45316 0.0
C989 C 0.17156 0.32407 0.45367 0.0
C990 C 0.18376 0.34967 0.44149 0.0
C991 C 0.20644 0.3547 0.42789 0.0
C992 C 0.14405 0.31548 0.46538 0.0
C993 C 0.14517 0.33421 0.48086 0.0
C994 C 0.11706 0.28798 0.4617 0.0
C995 C 0.11414 0.26811 0.44485 0.0
C996 C 0.11972 0.27936 0.42544 0.0
C997 C 0.11752 0.26071 0.40968 0.0
C998 C 0.10947 0.23066 0.41312 0.0
C999 C 0.10353 0.21918 0.43234 0.0
C1000 C 0.10578 0.23777 0.44816 0.0
C1001 C 0.02415 0.29575 0.51195 0.0
C1002 C 0.00892 0.26652 0.52009 0.0
C1003 C 0.05198 0.30636 0.50253 0.0
C1004 C 0.0652 0.28804 0.50125 0.0
C1005 C 0.05048 0.25921 0.50984 0.0
C1006 C 0.02261 0.24854 0.51919 0.0
C1007 C 0.09315 0.2979 0.48965 0.0
C1008 C 0.09206 0.27944 0.47399 0.0
C1009 C 0.12003 0.32564 0.49319 0.0
C1010 C 0.12285 0.34552 0.50998 0.0
C1011 C 0.11665 0.33418 0.52937 0.0
C1012 C 0.11921 0.353 0.54512 0.0
C1013 C 0.12812 0.38328 0.54168 0.0
C1014 C 0.13459 0.39482 0.52249 0.0
C1015 C 0.13206 0.37608 0.50669 0.0
H1016 H 0.13009 0.39781 0.55389 0.0
H1017 H 0.10778 0.21624 0.4009 0.0
H1018 H 0.83074 0.21668 0.58854 0.0
H1019 H 0.80276 0.17948 0.61442 0.0
H1020 H 0.88081 0.16981 0.62557 0.0
H1021 H 0.9088 0.20672 0.59987 0.0
H1022 H 0.82935 0.11605 0.61792 0.0
H1023 H 0.86011 0.20314 0.65905 0.0
H1024 H 0.86552 0.25224 0.66836 0.0
H1025 H 0.76884 0.2128 0.66882 0.0
H1026 H 0.76284 0.16352 0.65923 0.0
H1027 H 0.77495 0.01561 0.69715 0.0
H1028 H 0.80613 0.06315 0.67978 0.0
H1029 H 0.72736 0.07184 0.66937 0.0
H1030 H 0.69593 0.02443 0.6869 0.0
H1031 H 0.779 0.12713 0.67746 0.0
H1032 H 0.74781 0.04175 0.63465 0.0
H1033 H 0.74106 -0.0076 0.62455 0.0
H1034 H 0.83733 0.02881 0.62601 0.0
H1035 H 0.84461 0.0783 0.63642 0.0
C1036 C 0.84203 0.20692 0.59672 0.0
C1037 C 0.87182 0.21435 0.59206 0.0
C1038 C 0.8261 0.18582 0.61153 0.0
C1039 C 0.8398 0.17198 0.62185 0.0
C1040 C 0.86988 0.18025 0.61772 0.0
C1041 C 0.88581 0.20133 0.60302 0.0
C1042 C 0.82207 0.14687 0.63564 0.0
C1043 C 0.81877 0.11861 0.63112 0.0
C1044 C 0.8075 0.1501 0.65246 0.0
C1045 C 0.81104 0.1797 0.65822 0.0
C1046 C 0.84 0.20499 0.66095 0.0
C1047 C 0.84318 0.23284 0.66632 0.0
C1048 C 0.81755 0.23566 0.66913 0.0
C1049 C 0.78868 0.2106 0.66662 0.0
C1050 C 0.78538 0.18269 0.66123 0.0
C1051 C 0.76429 0.02782 0.69145 0.0
C1052 C 0.73288 0.016 0.69314 0.0
C1053 C 0.78215 0.05498 0.68154 0.0
C1054 C 0.7689 0.07067 0.67308 0.0
C1055 C 0.73793 0.05997 0.67579 0.0
C1056 C 0.72002 0.03279 0.68571 0.0
C1057 C 0.78678 0.09655 0.65985 0.0
C1058 C 0.78984 0.12475 0.66434 0.0
C1059 C 0.80101 0.09332 0.64285 0.0
C1060 C 0.79673 0.06362 0.63653 0.0
C1061 C 0.76752 0.03916 0.63298 0.0
C1062 C 0.7636 0.01118 0.62717 0.0
C1063 C 0.78875 0.00745 0.62469 0.0
C1064 C 0.81787 0.03172 0.62797 0.0
C1065 C 0.82191 0.05975 0.63382 0.0
H1066 H 0.78567 0.98577 0.62019 0.0
H1067 H 0.82005 0.25724 0.67329 0.0
H1068 H 0.16743 0.3251 0.33598 0.0
H1069 H 0.14879 0.33222 0.30434 0.0
H1070 H 0.23207 0.34959 0.27637 0.0
H1071 H 0.25148 0.34436 0.30829 0.0
H1072 H 0.21498 0.38301 0.25965 0.0
H1073 H 0.16422 0.27781 0.27554 0.0
H1074 H 0.13419 0.23222 0.29574 0.0
H1075 H 0.05927 0.24845 0.29516 0.0
H1076 H 0.08902 0.29437 0.27515 0.0
H1077 H 0.14062 0.31483 0.16506 0.0
H1078 H 0.16483 0.32211 0.19744 0.0
H1079 H 0.11232 0.36059 0.21973 0.0
H1080 H 0.08862 0.35426 0.18725 0.0
H1081 H 0.11358 0.30104 0.23883 0.0
H1082 H 0.16923 0.40822 0.22081 0.0
H1083 H 0.20128 0.44992 0.19819 0.0
H1084 H 0.26945 0.42401 0.20003 0.0
H1085 H 0.23754 0.38184 0.22243 0.0
C1086 C 0.18186 0.33081 0.3231 0.0
C1087 C 0.21076 0.33392 0.3245 0.0
C1088 C 0.17115 0.33469 0.305 0.0
C1089 C 0.18864 0.34058 0.2878 0.0
C1090 C 0.21805 0.34492 0.28937 0.0
C1091 C 0.22912 0.34188 0.3076 0.0
C1092 C 0.17582 0.34086 0.26812 0.0
C1093 C 0.19286 0.36496 0.25514 0.0
C1094 C 0.14694 0.31734 0.26205 0.0
C1095 C 0.12896 0.28969 0.27403 0.0
C1096 C 0.14141 0.27176 0.27983 0.0
C1097 C 0.12444 0.24585 0.29123 0.0
C1098 C 0.09488 0.23749 0.29678 0.0
C1099 C 0.0822 0.25498 0.29088 0.0
C1100 C 0.09909 0.28094 0.2795 0.0
C1101 C 0.13455 0.32524 0.17677 0.0
C1102 C 0.11272 0.33396 0.17365 0.0
C1103 C 0.14845 0.32945 0.19519 0.0
C1104 C 0.1404 0.34202 0.21081 0.0
C1105 C 0.11895 0.35111 0.20772 0.0
C1106 C 0.1055 0.34751 0.18919 0.0
C1107 C 0.15257 0.34322 0.23075 0.0
C1108 C 0.1355 0.31919 0.24361 0.0
C1109 C 0.18164 0.36629 0.23646 0.0
C1110 C 0.20084 0.39167 0.22308 0.0
C1111 C 0.19089 0.4112 0.2162 0.0
C1112 C 0.20907 0.43498 0.20347 0.0
C1113 C 0.23734 0.43955 0.19762 0.0
C1114 C 0.24753 0.42041 0.20454 0.0
C1115 C 0.22941 0.39659 0.21727 0.0
H1116 H 0.25139 0.45797 0.18777 0.0
H1117 H 0.08177 0.21742 0.3056 0.0
H1118 H 0.84335 0.15736 0.49431 0.0
H1119 H 0.81998 0.14009 0.46195 0.0
H1120 H 0.85192 0.23228 0.44435 0.0
H1121 H 0.87495 0.24981 0.4769 0.0
H1122 H 0.79603 0.19504 0.42953 0.0
H1123 H 0.89166 0.19869 0.43167 0.0
H1124 H 0.93023 0.18794 0.44517 0.0
H1125 H 0.86947 0.09279 0.43788 0.0
H1126 H 0.83037 0.10297 0.42458 0.0
H1127 H 0.81577 0.13456 0.32696 0.0
H1128 H 0.83442 0.15908 0.35881 0.0
H1129 H 0.74267 0.1193 0.3802 0.0
H1130 H 0.72373 0.09524 0.34809 0.0
H1131 H 0.83042 0.13385 0.39249 0.0
H1132 H 0.73902 0.16319 0.41713 0.0
H1133 H 0.70478 0.17878 0.40222 0.0
H1134 H 0.76477 0.21661 0.35272 0.0
H1135 H 0.79955 0.20163 0.36745 0.0
C1136 C 0.84515 0.174 0.48366 0.0
C1137 C 0.86137 0.20502 0.48811 0.0
C1138 C 0.83178 0.16407 0.46516 0.0
C1139 C 0.83469 0.18494 0.45063 0.0
C1140 C 0.84949 0.2158 0.45534 0.0
C1141 C 0.86272 0.22578 0.47393 0.0
C1142 C 0.82417 0.17465 0.43019 0.0
C1143 C 0.80346 0.18161 0.4214 0.0
C1144 C 0.83448 0.15779 0.41943 0.0
C1145 C 0.858 0.15158 0.4273 0.0
C1146 C 0.88646 0.17547 0.43307 0.0
C1147 C 0.90842 0.16948 0.44067 0.0
C1148 C 0.90228 0.1397 0.44243 0.0
C1149 C 0.87418 0.11584 0.43654 0.0
C1150 C 0.85212 0.12171 0.42895 0.0
C1151 C 0.79949 0.13125 0.33835 0.0
C1152 C 0.76825 0.1128 0.33501 0.0
C1153 C 0.81021 0.14528 0.35658 0.0
C1154 C 0.78999 0.1411 0.37192 0.0
C1155 C 0.75872 0.12324 0.36851 0.0
C1156 C 0.74792 0.10939 0.35017 0.0
C1157 C 0.80185 0.15382 0.39178 0.0
C1158 C 0.82286 0.14725 0.40053 0.0
C1159 C 0.79237 0.17166 0.40223 0.0
C1160 C 0.77172 0.18099 0.39331 0.0
C1161 C 0.74495 0.17493 0.4031 0.0
C1162 C 0.72544 0.18364 0.39467 0.0
C1163 C 0.73255 0.19858 0.37651 0.0
C1164 C 0.75923 0.20492 0.36675 0.0
C1165 C 0.77882 0.19628 0.37512 0.0
H1166 H 0.71741 0.20529 0.37001 0.0
H1167 H 0.91931 0.13511 0.44832 0.0
H1168 H 0.62203 0.88975 0.6435 0.0
H1169 H 0.61748 0.86578 0.61145 0.0
H1170 H 0.66728 0.82431 0.63393 0.0
H1171 H 0.67262 0.84879 0.66575 0.0
H1172 H 0.68947 0.84884 0.60027 0.0
H1173 H 0.58964 0.78322 0.62462 0.0
H1174 H 0.53995 0.76981 0.63881 0.0
H1175 H 0.52053 0.80876 0.58868 0.0
H1176 H 0.5703 0.82277 0.5743 0.0
H1177 H 0.61588 0.73268 0.5158 0.0
H1178 H 0.61116 0.7509 0.54828 0.0
H1179 H 0.67427 0.84236 0.53067 0.0
H1180 H 0.67962 0.82439 0.49839 0.0
H1181 H 0.59411 0.78937 0.56258 0.0
H1182 H 0.72137 0.87902 0.56837 0.0
H1183 H 0.77046 0.88781 0.55561 0.0
H1184 H 0.73374 0.79227 0.54858 0.0
H1185 H 0.6846 0.78289 0.56155 0.0
C1186 C 0.63173 0.87527 0.64168 0.0
C1187 C 0.64783 0.87131 0.65715 0.0
C1188 C 0.629 0.86147 0.62336 0.0
C1189 C 0.64191 0.8431 0.62029 0.0
C1190 C 0.65726 0.8385 0.6359 0.0
C1191 C 0.66025 0.85249 0.65411 0.0
C1192 C 0.64106 0.83008 0.60053 0.0
C1193 C 0.66857 0.83582 0.59208 0.0
C1194 C 0.61379 0.81272 0.58989 0.0
C1195 C 0.58382 0.80429 0.59847 0.0
C1196 C 0.57487 0.78914 0.61669 0.0
C1197 C 0.54667 0.78139 0.62476 0.0
C1198 C 0.52713 0.7885 0.61468 0.0
C1199 C 0.53571 0.8033 0.59648 0.0
C1200 C 0.5639 0.81112 0.58836 0.0
C1201 C 0.62852 0.75671 0.51877 0.0
C1202 C 0.64845 0.77704 0.50459 0.0
C1203 C 0.62572 0.76708 0.53732 0.0
C1204 C 0.64274 0.79791 0.542 0.0
C1205 C 0.66135 0.8184 0.5275 0.0
C1206 C 0.66435 0.80807 0.50903 0.0
C1207 C 0.64253 0.80853 0.56235 0.0
C1208 C 0.61493 0.80241 0.57084 0.0
C1209 C 0.66962 0.82493 0.57329 0.0
C1210 C 0.69923 0.8303 0.56574 0.0
C1211 C 0.72382 0.85989 0.56417 0.0
C1212 C 0.75165 0.86497 0.55689 0.0
C1213 C 0.75519 0.84062 0.55123 0.0
C1214 C 0.73094 0.81112 0.5529 0.0
C1215 C 0.70309 0.80591 0.5602 0.0
H1216 H 0.77673 0.8446 0.54558 0.0
H1217 H 0.5053 0.78248 0.62094 0.0
H1218 H 0.83236 0.6551 0.65242 0.0
H1219 H 0.80627 0.6487 0.68387 0.0
H1220 H 0.87986 0.64696 0.71434 0.0
H1221 H 0.90467 0.65092 0.6827 0.0
H1222 H 0.83262 0.61066 0.73188 0.0
H1223 H 0.86999 0.71268 0.71075 0.0
H1224 H 0.87715 0.75363 0.68819 0.0
H1225 H 0.78136 0.72029 0.68828 0.0
H1226 H 0.7736 0.67891 0.71066 0.0
H1227 H 0.81511 0.67129 0.82417 0.0
H1228 H 0.83313 0.66553 0.79183 0.0
H1229 H 0.7426 0.62674 0.76853 0.0
H1230 H 0.72415 0.63165 0.80099 0.0
H1231 H 0.79502 0.68102 0.74756 0.0
H1232 H 0.76174 0.58033 0.77255 0.0
H1233 H 0.76012 0.54423 0.79736 0.0
H1234 H 0.85637 0.5823 0.79256 0.0
H1235 H 0.85863 0.61894 0.76792 0.0
C1236 C 0.84272 0.65304 0.66586 0.0
C1237 C 0.87051 0.65362 0.66524 0.0
C1238 C 0.82796 0.64964 0.68385 0.0
C1239 C 0.84143 0.64819 0.70164 0.0
C1240 C 0.86894 0.64807 0.7009 0.0
C1241 C 0.88317 0.65041 0.68283 0.0
C1242 C 0.82729 0.64746 0.72103 0.0
C1243 C 0.82469 0.62628 0.73528 0.0
C1244 C 0.81659 0.66761 0.7256 0.0
C1245 C 0.82119 0.69252 0.7122 0.0
C1246 C 0.85044 0.71398 0.70585 0.0
C1247 C 0.8546 0.73727 0.69312 0.0
C1248 C 0.82971 0.7395 0.68676 0.0
C1249 C 0.80061 0.7185 0.69319 0.0
C1250 C 0.79632 0.69513 0.70591 0.0
C1251 C 0.79898 0.66125 0.81221 0.0
C1252 C 0.76823 0.65194 0.81508 0.0
C1253 C 0.8093 0.65792 0.7938 0.0
C1254 C 0.78914 0.6457 0.7779 0.0
C1255 C 0.7584 0.63614 0.78071 0.0
C1256 C 0.74793 0.63887 0.79923 0.0
C1257 C 0.8006 0.64443 0.75812 0.0
C1258 C 0.80278 0.66532 0.74392 0.0
C1259 C 0.81176 0.62473 0.75384 0.0
C1260 C 0.81038 0.60256 0.76853 0.0
C1261 C 0.7826 0.58119 0.77692 0.0
C1262 C 0.78156 0.56059 0.79092 0.0
C1263 C 0.80814 0.56102 0.79657 0.0
C1264 C 0.83581 0.58201 0.78818 0.0
C1265 C 0.83697 0.60267 0.77419 0.0
H1266 H 0.80728 0.54506 0.80741 0.0
H1267 H 0.83298 0.75755 0.6769 0.0
H1268 H 0.23804 0.87209 0.84144 0.0
H1269 H 0.22095 0.84844 0.87401 0.0
H1270 H 0.15929 0.88294 0.87757 0.0
H1271 H 0.17555 0.9059 0.84492 0.0
H1272 H 0.20036 0.89212 0.91277 0.0
H1273 H 0.12787 0.81672 0.86691 0.0
H1274 H 0.11457 0.78289 0.83811 0.0
H1275 H 0.15869 0.73873 0.86462 0.0
H1276 H 0.17264 0.77265 0.89346 0.0
H1277 H 0.0985 0.81777 0.98981 0.0
H1278 H 0.12436 0.84104 0.95905 0.0
H1279 H 0.1517 0.77392 0.95313 0.0
H1280 H 0.12446 0.7496 0.98354 0.0
H1281 H 0.13434 0.78116 0.91949 0.0
H1282 H 0.20264 0.85026 0.9665 0.0
H1283 H 0.21953 0.88399 -0.00454 0.0
H1284 H 0.18978 0.94032 0.96786 0.0
H1285 H 0.17231 0.90668 0.93883 0.0
C1286 C 0.22087 0.87464 0.8492 0.0
C1287 C 0.20803 0.89074 0.84063 0.0
C1288 C 0.21115 0.86113 0.86773 0.0
C1289 C 0.18893 0.86405 0.87809 0.0
C1290 C 0.17651 0.88054 0.86976 0.0
C1291 C 0.18571 0.89349 0.85109 0.0
C1292 C 0.17811 0.84953 0.89753 0.0
C1293 C 0.18577 0.86789 0.91433 0.0
C1294 C 0.16013 0.81788 0.89949 0.0
C1295 C 0.15163 0.79746 0.8822 0.0
C1296 C 0.13501 0.80001 0.8665 0.0
C1297 C 0.12729 0.78077 0.85019 0.0
C1298 C 0.13587 0.75874 0.8495 0.0
C1299 C 0.15212 0.75585 0.86515 0.0
C1300 C 0.15992 0.77506 0.88148 0.0
C1301 C 0.11021 0.80808 0.98205 0.0
C1302 C 0.10954 0.78191 0.98914 0.0
C1303 C 0.12518 0.82153 0.9645 0.0
C1304 C 0.14058 0.80966 0.95391 0.0
C1305 C 0.14009 0.78359 0.96104 0.0
C1306 C 0.12456 0.76974 0.97843 0.0
C1307 C 0.15597 0.82377 0.935 0.0
C1308 C 0.14924 0.80537 0.91819 0.0
C1309 C 0.17541 0.8554 0.93312 0.0
C1310 C 0.18596 0.8758 0.95053 0.0
C1311 C 0.1995 0.86972 0.96665 0.0
C1312 C 0.20921 0.88884 0.98308 0.0
C1313 C 0.20567 0.91425 0.98351 0.0
C1314 C 0.19249 0.92062 0.9675 0.0
C1315 C 0.18271 0.90155 0.95104 0.0
H1316 H 0.2132 0.92902 -0.00376 0.0
H1317 H 0.12987 0.74386 0.83687 0.0
H1318 H 0.3626 0.10292 0.14605 0.0
H1319 H 0.37252 0.12973 0.11455 0.0
H1320 H 0.29179 0.13599 0.12206 0.0
H1321 H 0.28212 0.10998 0.15362 0.0
H1322 H 0.34184 0.1155 0.08142 0.0
H1323 H 0.29935 0.19884 0.10209 0.0
H1324 H 0.29871 0.22766 0.13111 0.0
H1325 H 0.37577 0.22597 0.15519 0.0
H1326 H 0.37716 0.19753 0.12619 0.0
H1327 H 0.29115 0.16056 -0.0012 0.0
H1328 H 0.29869 0.14248 0.03039 0.0
H1329 H 0.37369 0.23119 0.04326 0.0
H1330 H 0.36588 0.24973 0.01176 0.0
H1331 H 0.33829 0.2103 0.07404 0.0
H1332 H 0.38557 0.17229 0.03193 0.0
H1333 H 0.39116 0.14617 0.00302 0.0
H1334 H 0.31472 0.06276 0.02207 0.0
H1335 H 0.30837 0.08846 0.05096 0.0
C1336 C 0.34708 0.1102 0.14105 0.0
C1337 C 0.32162 0.10439 0.15241 0.0
C1338 C 0.35276 0.12547 0.12303 0.0
C1339 C 0.33314 0.13524 0.11605 0.0
C1340 C 0.30764 0.12928 0.12732 0.0
C1341 C 0.30205 0.11423 0.14535 0.0
C1342 C 0.33848 0.15071 0.09669 0.0
C1343 C 0.34127 0.13634 0.07981 0.0
C1344 C 0.33862 0.17835 0.09462 0.0
C1345 C 0.33821 0.19585 0.11201 0.0
C1346 C 0.31627 0.20477 0.11352 0.0
C1347 C 0.31575 0.221 0.12998 0.0
C1348 C 0.33713 0.22858 0.14501 0.0
C1349 C 0.35915 0.22001 0.14357 0.0
C1350 C 0.35979 0.20379 0.12713 0.0
C1351 C 0.30943 0.17624 0.00824 0.0
C1352 C 0.32789 0.20663 0.00273 0.0
C1353 C 0.31383 0.16579 0.02628 0.0
C1354 C 0.337 0.18538 0.03911 0.0
C1355 C 0.35571 0.21566 0.03358 0.0
C1356 C 0.35124 0.22619 0.01555 0.0
C1357 C 0.34046 0.17448 0.05873 0.0
C1358 C 0.33929 0.1897 0.07565 0.0
C1359 C 0.34259 0.14804 0.06085 0.0
C1360 C 0.34639 0.13237 0.04356 0.0
C1361 C 0.36982 0.14842 0.02989 0.0
C1362 C 0.37315 0.13368 0.01352 0.0
C1363 C 0.35328 0.10283 0.0107 0.0
C1364 C 0.33009 0.08665 0.02428 0.0
C1365 C 0.32665 0.10129 0.04067 0.0
H1366 H 0.35589 0.09147 -0.002 0.0
H1367 H 0.33667 0.24112 0.15775 0.0
loop_
_geom_bond_atom_site_label_1
_geom_bond_atom_site_label_2
_geom_bond_distance
_geom_bond_site_symmetry_2
_ccdc_geom_bond_type
C0 O1 1.306 . S
C0 O3 1.160 . S
O1 C0 1.306 . S
O1 Cd2 2.228 . S
Cd2 O1 2.228 . S
Cd2 O6 2.273 . S
Cd2 O10 2.277 . S
O3 C0 1.160 . S
O3 Cd4 2.203 . S
Cd4 O3 2.203 . S
Cd4 O6 2.411 . S
Cd4 O7 2.333 . S
Cd4 O8 2.352 . S
Cd4 O12 2.277 . S
Cd4 O13 2.356 . S
C5 O10 1.209 . S
C5 O12 1.226 . S
O6 Cd2 2.273 . S
O6 Cd4 2.411 . S
O6 C9 1.320 . S
O7 Cd4 2.333 . S
O7 C9 1.214 . S
O8 Cd4 2.352 . S
O8 C11 1.258 . S
C9 O6 1.320 . S
C9 O7 1.214 . S
O10 Cd2 2.277 . S
O10 C5 1.209 . S
C11 O8 1.258 . S
C11 O13 1.282 . S
O12 Cd4 2.277 . S
O12 C5 1.226 . S
O13 Cd4 2.356 . S
O13 C11 1.282 . S
C14 O15 1.306 . S
C14 O17 1.160 . S
O15 C14 1.306 . S
O15 Cd16 2.228 . S
Cd16 O15 2.228 . S
Cd16 O20 2.273 . S
Cd16 O24 2.277 . S
O17 C14 1.160 . S
O17 Cd18 2.203 . S
Cd18 O17 2.203 . S
Cd18 O20 2.411 . S
Cd18 O21 2.333 . S
Cd18 O22 2.352 . S
Cd18 O26 2.277 . S
Cd18 O27 2.356 . S
C19 O24 1.209 . S
C19 O26 1.226 . S
O20 Cd16 2.273 . S
O20 Cd18 2.411 . S
O20 C23 1.320 . S
O21 Cd18 2.333 . S
O21 C23 1.214 . S
O22 Cd18 2.352 . S
O22 C25 1.258 . S
C23 O20 1.320 . S
C23 O21 1.214 . S
O24 Cd16 2.277 . S
O24 C19 1.209 . S
C25 O22 1.258 . S
C25 O27 1.282 . S
O26 Cd18 2.277 . S
O26 C19 1.226 . S
O27 Cd18 2.356 . S
O27 C25 1.282 . S
C28 O29 1.306 . S
C28 O31 1.160 . S
O29 C28 1.306 . S
O29 Cd30 2.228 . S
Cd30 O29 2.228 . S
Cd30 O34 2.273 . S
Cd30 O38 2.277 . S
O31 C28 1.160 . S
O31 Cd32 2.203 . S
Cd32 O31 2.203 . S
Cd32 O34 2.411 . S
Cd32 O35 2.333 . S
Cd32 O36 2.352 . S
Cd32 O40 2.277 . S
Cd32 O41 2.356 . S
C33 O38 1.209 . S
C33 O40 1.226 . S
O34 Cd30 2.273 . S
O34 Cd32 2.411 . S
O34 C37 1.320 . S
O35 Cd32 2.333 . S
O35 C37 1.214 . S
O36 Cd32 2.352 . S
O36 C39 1.258 . S
C37 O34 1.320 . S
C37 O35 1.214 . S
O38 Cd30 2.277 . S
O38 C33 1.209 . S
C39 O36 1.258 . S
C39 O41 1.282 . S
O40 Cd32 2.277 . S
O40 C33 1.226 . S
O41 Cd32 2.356 . S
O41 C39 1.282 . S
C42 O43 1.306 . S
C42 O45 1.160 . S
O43 C42 1.306 . S
O43 Cd44 2.228 . S
Cd44 O43 2.228 . S
Cd44 O48 2.273 . S
Cd44 O52 2.277 . S
O45 C42 1.160 . S
O45 Cd46 2.203 . S
Cd46 O45 2.203 . S
Cd46 O48 2.411 . S
Cd46 O49 2.333 . S
Cd46 O50 2.352 . S
Cd46 O54 2.277 . S
Cd46 O55 2.356 . S
C47 O52 1.209 . S
C47 O54 1.226 . S
O48 Cd44 2.273 . S
O48 Cd46 2.411 . S
O48 C51 1.320 . S
O49 Cd46 2.333 . S
O49 C51 1.214 . S
O50 Cd46 2.352 . S
O50 C53 1.258 . S
C51 O48 1.320 . S
C51 O49 1.214 . S
O52 Cd44 2.277 . S
O52 C47 1.209 . S
C53 O50 1.258 . S
C53 O55 1.282 . S
O54 Cd46 2.277 . S
O54 C47 1.226 . S
O55 Cd46 2.356 . S
O55 C53 1.282 . S
C56 O57 1.306 . S
C56 O59 1.160 . S
O57 C56 1.306 . S
O57 Cd58 2.228 . S
Cd58 O57 2.228 . S
Cd58 O62 2.273 . S
Cd58 O66 2.277 . S
O59 C56 1.160 . S
O59 Cd60 2.203 . S
Cd60 O59 2.203 . S
Cd60 O62 2.411 . S
Cd60 O63 2.333 . S
Cd60 O64 2.352 . S
Cd60 O68 2.277 . S
Cd60 O69 2.356 . S
C61 O66 1.209 . S
C61 O68 1.226 . S
O62 Cd58 2.273 . S
O62 Cd60 2.411 . S
O62 C65 1.320 . S
O63 Cd60 2.333 . S
O63 C65 1.214 . S
O64 Cd60 2.352 . S
O64 C67 1.258 . S
C65 O62 1.320 . S
C65 O63 1.214 . S
O66 Cd58 2.277 . S
O66 C61 1.209 . S
C67 O64 1.258 . S
C67 O69 1.282 . S
O68 Cd60 2.277 . S
O68 C61 1.226 . S
O69 Cd60 2.356 . S
O69 C67 1.282 . S
C70 O71 1.306 . S
C70 O73 1.160 . S
O71 C70 1.306 . S
O71 Cd72 2.228 . S
Cd72 O71 2.228 . S
Cd72 O76 2.273 . S
Cd72 O80 2.277 . S
O73 C70 1.160 . S
O73 Cd74 2.203 . S
Cd74 O73 2.203 . S
Cd74 O76 2.411 . S
Cd74 O77 2.333 . S
Cd74 O78 2.352 . S
Cd74 O82 2.277 . S
Cd74 O83 2.356 . S
C75 O80 1.220 . S
C75 O82 1.230 . S
O76 Cd72 2.273 . S
O76 Cd74 2.411 . S
O76 C79 1.320 . S
O77 Cd74 2.333 . S
O77 C79 1.214 . S
O78 Cd74 2.352 . S
O78 C81 1.258 . S
C79 O76 1.320 . S
C79 O77 1.214 . S
O80 Cd72 2.277 . S
O80 C75 1.220 . S
C81 O78 1.258 . S
C81 O83 1.282 . S
O82 Cd74 2.277 . S
O82 C75 1.230 . S
O83 Cd74 2.356 . S
O83 C81 1.282 . S
C84 O85 1.306 . S
C84 O87 1.160 . S
O85 C84 1.306 . S
O85 Cd86 2.228 . S
Cd86 O85 2.228 . S
Cd86 O90 2.273 . S
Cd86 O94 2.277 . S
O87 C84 1.160 . S
O87 Cd88 2.203 . S
Cd88 O87 2.203 . S
Cd88 O90 2.411 . S
Cd88 O91 2.333 . S
Cd88 O92 2.352 . S
Cd88 O96 2.277 . S
Cd88 O97 2.356 . S
C89 O94 1.209 . S
C89 O96 1.226 . S
O90 Cd86 2.273 . S
O90 Cd88 2.411 . S
O90 C93 1.320 . S
O91 Cd88 2.333 . S
O91 C93 1.214 . S
O92 Cd88 2.352 . S
O92 C95 1.258 . S
C93 O90 1.320 . S
C93 O91 1.214 . S
O94 Cd86 2.277 . S
O94 C89 1.209 . S
C95 O92 1.258 . S
C95 O97 1.282 . S
O96 Cd88 2.277 . S
O96 C89 1.226 . S
O97 Cd88 2.356 . S
O97 C95 1.282 . S
C98 O99 1.306 . S
C98 O101 1.160 . S
O99 C98 1.306 . S
O99 Cd100 2.228 . S
Cd100 O99 2.228 . S
Cd100 O104 2.273 . S
Cd100 O108 2.277 . S
O101 C98 1.160 . S
O101 Cd102 2.203 . S
Cd102 O101 2.203 . S
Cd102 O104 2.411 . S
Cd102 O105 2.333 . S
Cd102 O106 2.352 . S
Cd102 O110 2.277 . S
Cd102 O111 2.356 . S
C103 O108 1.209 . S
C103 O110 1.226 . S
O104 Cd100 2.273 . S
O104 Cd102 2.411 . S
O104 C107 1.320 . S
O105 Cd102 2.333 . S
O105 C107 1.214 . S
O106 Cd102 2.352 . S
O106 C109 1.258 . S
C107 O104 1.320 . S
C107 O105 1.214 . S
O108 Cd100 2.277 . S
O108 C103 1.209 . S
C109 O106 1.258 . S
C109 O111 1.282 . S
O110 Cd102 2.277 . S
O110 C103 1.226 . S
O111 Cd102 2.356 . S
O111 C109 1.282 . S
C112 O113 1.306 . S
C112 O115 1.160 . S
O113 C112 1.306 . S
O113 Cd114 2.228 . S
Cd114 O113 2.228 . S
Cd114 O118 2.273 . S
Cd114 O122 2.277 . S
O115 C112 1.160 . S
O115 Cd116 2.203 . S
Cd116 O115 2.203 . S
Cd116 O118 2.411 . S
Cd116 O119 2.333 . S
Cd116 O120 2.352 . S
Cd116 O124 2.277 . S
Cd116 O125 2.356 . S
C117 O122 1.220 . S
C117 O124 1.230 . S
O118 Cd114 2.273 . S
O118 Cd116 2.411 . S
O118 C121 1.320 . S
O119 Cd116 2.333 . S
O119 C121 1.214 . S
O120 Cd116 2.352 . S
O120 C123 1.258 . S
C121 O118 1.320 . S
C121 O119 1.214 . S
O122 Cd114 2.277 . S
O122 C117 1.220 . S
C123 O120 1.258 . S
C123 O125 1.282 . S
O124 Cd116 2.277 . S
O124 C117 1.230 . S
O125 Cd116 2.356 . S
O125 C123 1.282 . S
C126 O127 1.306 . S
C126 O129 1.160 . S
O127 C126 1.306 . S
O127 Cd128 2.228 . S
Cd128 O127 2.228 . S
Cd128 O132 2.273 . S
Cd128 O136 2.277 . S
O129 C126 1.160 . S
O129 Cd130 2.203 . S
Cd130 O129 2.203 . S
Cd130 O132 2.411 . S
Cd130 O133 2.333 . S
Cd130 O134 2.352 . S
Cd130 O138 2.277 . S
Cd130 O139 2.356 . S
C131 O136 1.209 . S
C131 O138 1.226 . S
O132 Cd128 2.273 . S
O132 Cd130 2.411 . S
O132 C135 1.320 . S
O133 Cd130 2.333 . S
O133 C135 1.214 . S
O134 Cd130 2.352 . S
O134 C137 1.258 . S
C135 O132 1.320 . S
C135 O133 1.214 . S
O136 Cd128 2.277 . S
O136 C131 1.209 . S
C137 O134 1.258 . S
C137 O139 1.282 . S
O138 Cd130 2.277 . S
O138 C131 1.226 . S
O139 Cd130 2.356 . S
O139 C137 1.282 . S
C140 O141 1.306 . S
C140 O143 1.160 . S
O141 C140 1.306 . S
O141 Cd142 2.228 . S
Cd142 O141 2.228 . S
Cd142 O146 2.273 . S
Cd142 O150 2.277 . S
O143 C140 1.160 . S
O143 Cd144 2.203 . S
Cd144 O143 2.203 . S
Cd144 O146 2.411 . S
Cd144 O147 2.333 . S
Cd144 O148 2.352 . S
Cd144 O152 2.277 . S
Cd144 O153 2.356 . S
C145 O150 1.209 . S
C145 O152 1.226 . S
O146 Cd142 2.273 . S
O146 Cd144 2.411 . S
O146 C149 1.320 . S
O147 Cd144 2.333 . S
O147 C149 1.214 . S
O148 Cd144 2.352 . S
O148 C151 1.258 . S
C149 O146 1.320 . S
C149 O147 1.214 . S
O150 Cd142 2.277 . S
O150 C145 1.209 . S
C151 O148 1.258 . S
C151 O153 1.282 . S
O152 Cd144 2.277 . S
O152 C145 1.226 . S
O153 Cd144 2.356 . S
O153 C151 1.282 . S
C154 O155 1.306 . S
C154 O157 1.160 . S
O155 C154 1.306 . S
O155 Cd156 2.228 . S
Cd156 O155 2.228 . S
Cd156 O160 2.273 . S
Cd156 O164 2.277 . S
O157 C154 1.160 . S
O157 Cd158 2.203 . S
Cd158 O157 2.203 . S
Cd158 O160 2.411 . S
Cd158 O161 2.333 . S
Cd158 O162 2.352 . S
Cd158 O166 2.277 . S
Cd158 O167 2.356 . S
C159 O164 1.209 . S
C159 O166 1.226 . S
O160 Cd156 2.273 . S
O160 Cd158 2.411 . S
O160 C163 1.320 . S
O161 Cd158 2.333 . S
O161 C163 1.214 . S
O162 Cd158 2.352 . S
O162 C165 1.258 . S
C163 O160 1.320 . S
C163 O161 1.214 . S
O164 Cd156 2.277 . S
O164 C159 1.209 . S
C165 O162 1.258 . S
C165 O167 1.282 . S
O166 Cd158 2.277 . S
O166 C159 1.226 . S
O167 Cd158 2.356 . S
O167 C165 1.282 . S
H168 C186 0.951 . S
H169 C188 0.951 . S
H170 C190 0.950 . S
H171 C191 0.950 . S
H172 C193 0.950 . S
H173 C196 0.950 1_455 S
H174 C197 0.950 . S
H175 C199 0.950 . S
H176 C200 0.950 . S
H177 C201 0.951 . S
H178 C203 0.951 . S
H179 C205 0.950 . S
H180 C206 0.950 . S
H181 C208 0.950 . S
H182 C211 0.950 . S
H183 C212 0.950 . S
H184 C214 0.950 . S
H185 C215 0.950 . S
C186 H168 0.951 . S
C186 C187 1.366 . S
C186 C188 1.388 . S
C187 C186 1.366 . S
C187 C191 1.385 . S
C188 H169 0.951 . S
C188 C186 1.388 . S
C188 C189 1.366 . S
C189 C188 1.366 . S
C189 C190 1.414 . S
C189 C192 1.499 . S
C190 H170 0.950 . S
C190 C189 1.414 . S
C190 C191 1.374 . S
C191 H171 0.950 . S
C191 C187 1.385 . S
C191 C190 1.374 . S
C192 C189 1.499 . S
C192 C193 1.373 . S
C192 C194 1.389 . S
C193 H172 0.950 . S
C193 C192 1.373 . S
C193 C209 1.377 . S
C194 C192 1.389 . S
C194 C195 1.524 1_455 S
C194 C208 1.377 . S
C195 C194 1.524 1_655 S
C195 C196 1.397 . S
C195 C200 1.363 . S
C196 H173 0.950 1_655 S
C196 C195 1.397 . S
C196 C197 1.334 . S
C197 H174 0.950 . S
C197 C196 1.334 . S
C197 C198 1.287 . S
C198 C197 1.287 . S
C198 C199 1.524 . S
C198 H217 0.913 . S
C199 H175 0.950 . S
C199 C198 1.524 . S
C199 C200 1.415 . S
C200 H176 0.950 . S
C200 C195 1.363 . S
C200 C199 1.415 . S
C201 H177 0.951 . S
C201 C202 1.366 . S
C201 C203 1.388 . S
C202 C201 1.366 . S
C202 C206 1.385 . S
C203 H178 0.951 . S
C203 C201 1.388 . S
C203 C204 1.366 . S
C204 C203 1.366 . S
C204 C205 1.414 . S
C204 C207 1.499 . S
C205 H179 0.950 . S
C205 C204 1.414 . S
C205 C206 1.374 . S
C206 H180 0.950 . S
C206 C202 1.385 . S
C206 C205 1.374 . S
C207 C204 1.499 . S
C207 C208 1.373 . S
C207 C209 1.389 . S
C208 H181 0.950 . S
C208 C194 1.377 . S
C208 C207 1.373 . S
C209 C193 1.377 . S
C209 C207 1.389 . S
C209 C210 1.524 . S
C210 C209 1.524 . S
C210 C211 1.397 . S
C210 C215 1.363 . S
C211 H182 0.950 . S
C211 C210 1.397 . S
C211 C212 1.334 . S
C212 H183 0.950 . S
C212 C211 1.334 . S
C212 C213 1.287 . S
C213 C212 1.287 . S
C213 C214 1.524 . S
C213 H216 0.999 . S
C214 H184 0.950 . S
C214 C213 1.524 . S
C214 C215 1.415 . S
C215 H185 0.950 . S
C215 C210 1.363 . S
C215 C214 1.415 . S
H216 C213 0.999 . S
H217 C198 0.913 . S
H218 C236 0.951 . S
H219 C238 0.951 . S
H220 C240 0.950 . S
H221 C241 0.950 . S
H222 C243 0.950 . S
H223 C246 0.950 . S
H224 C247 0.950 . S
H225 C249 0.950 . S
H226 C250 0.950 . S
H227 C251 0.951 . S
H228 C253 0.951 . S
H229 C255 0.950 . S
H230 C256 0.950 . S
H231 C258 0.950 . S
H232 C261 0.950 . S
H233 C262 0.950 . S
H234 C264 0.950 . S
H235 C265 0.950 . S
C236 H218 0.951 . S
C236 C237 1.366 . S
C236 C238 1.388 . S
C237 C236 1.366 . S
C237 C241 1.385 . S
C238 H219 0.951 . S
C238 C236 1.388 . S
C238 C239 1.366 . S
C239 C238 1.366 . S
C239 C240 1.414 . S
C239 C242 1.499 . S
C240 H220 0.950 . S
C240 C239 1.414 . S
C240 C241 1.374 . S
C241 H221 0.950 . S
C241 C237 1.385 . S
C241 C240 1.374 . S
C242 C239 1.499 . S
C242 C243 1.373 . S
C242 C244 1.389 . S
C243 H222 0.950 . S
C243 C242 1.373 . S
C243 C259 1.377 . S
C244 C242 1.389 . S
C244 C245 1.524 . S
C244 C258 1.377 . S
C245 C244 1.524 . S
C245 C246 1.397 1_545 S
C245 C250 1.363 . S
C246 H223 0.950 . S
C246 C245 1.397 1_565 S
C246 C247 1.334 . S
C247 H224 0.950 . S
C247 C246 1.334 . S
C247 C248 1.287 . S
C248 C247 1.287 . S
C248 C249 1.524 . S
C248 H267 0.913 . S
C249 H225 0.950 . S
C249 C248 1.524 . S
C249 C250 1.415 1_565 S
C250 H226 0.950 . S
C250 C245 1.363 . S
C250 C249 1.415 1_545 S
C251 H227 0.951 . S
C251 C252 1.366 . S
C251 C253 1.388 . S
C252 C251 1.366 . S
C252 C256 1.385 . S
C253 H228 0.951 . S
C253 C251 1.388 . S
C253 C254 1.366 . S
C254 C253 1.366 . S
C254 C255 1.414 . S
C254 C257 1.499 . S
C255 H229 0.950 . S
C255 C254 1.414 . S
C255 C256 1.374 . S
C256 H230 0.950 . S
C256 C252 1.385 . S
C256 C255 1.374 . S
C257 C254 1.499 . S
C257 C258 1.373 . S
C257 C259 1.389 . S
C258 H231 0.950 . S
C258 C244 1.377 . S
C258 C257 1.373 . S
C259 C243 1.377 . S
C259 C257 1.389 . S
C259 C260 1.524 . S
C260 C259 1.524 . S
C260 C261 1.397 . S
C260 C265 1.363 . S
C261 H232 0.950 . S
C261 C260 1.397 . S
C261 C262 1.334 . S
C262 H233 0.950 . S
C262 C261 1.334 . S
C262 C263 1.287 . S
C263 C262 1.287 . S
C263 C264 1.524 . S
C263 H266 0.999 . S
C264 H234 0.950 . S
C264 C263 1.524 . S
C264 C265 1.415 . S
C265 H235 0.950 . S
C265 C260 1.363 . S
C265 C264 1.415 . S
H266 C263 0.999 . S
H267 C248 0.913 . S
H268 C286 0.951 . S
H269 C288 0.951 . S
H270 C290 0.950 . S
H271 C291 0.950 . S
H272 C293 0.950 . S
H273 C296 0.950 . S
H274 C297 0.950 . S
H275 C299 0.950 . S
H276 C300 0.950 . S
H277 C301 0.951 . S
H278 C303 0.951 . S
H279 C305 0.950 . S
H280 C306 0.950 . S
H281 C308 0.950 . S
H282 C311 0.950 . S
H283 C312 0.950 . S
H284 C314 0.950 . S
H285 C315 0.950 . S
C286 H268 0.951 . S
C286 C287 1.366 . S
C286 C288 1.388 . S
C287 C286 1.366 . S
C287 C291 1.385 . S
C288 H269 0.951 . S
C288 C286 1.388 . S
C288 C289 1.366 . S
C289 C288 1.366 . S
C289 C290 1.414 . S
C289 C292 1.499 . S
C290 H270 0.950 . S
C290 C289 1.414 . S
C290 C291 1.374 . S
C291 H271 0.950 . S
C291 C287 1.385 . S
C291 C290 1.374 . S
C292 C289 1.499 . S
C292 C293 1.373 . S
C292 C294 1.389 . S
C293 H272 0.950 . S
C293 C292 1.373 . S
C293 C309 1.377 . S
C294 C292 1.389 . S
C294 C295 1.524 . S
C294 C308 1.377 . S
C295 C294 1.524 . S
C295 C296 1.397 . S
C295 C300 1.363 . S
C296 H273 0.950 . S
C296 C295 1.397 . S
C296 C297 1.334 . S
C297 H274 0.950 . S
C297 C296 1.334 . S
C297 C298 1.287 . S
C298 C297 1.287 . S
C298 C299 1.524 . S
C298 H317 0.913 . S
C299 H275 0.950 . S
C299 C298 1.524 . S
C299 C300 1.415 . S
C300 H276 0.950 . S
C300 C295 1.363 . S
C300 C299 1.415 . S
C301 H277 0.951 . S
C301 C302 1.366 . S
C301 C303 1.388 . S
C302 C301 1.366 . S
C302 C306 1.385 . S
C303 H278 0.951 . S
C303 C301 1.388 . S
C303 C304 1.366 . S
C304 C303 1.366 . S
C304 C305 1.414 . S
C304 C307 1.499 . S
C305 H279 0.950 . S
C305 C304 1.414 . S
C305 C306 1.374 . S
C306 H280 0.950 . S
C306 C302 1.385 . S
C306 C305 1.374 . S
C307 C304 1.499 . S
C307 C308 1.373 . S
C307 C309 1.389 . S
C308 H281 0.950 . S
C308 C294 1.377 . S
C308 C307 1.373 . S
C309 C293 1.377 . S
C309 C307 1.389 . S
C309 C310 1.524 . S
C310 C309 1.524 . S
C310 C311 1.397 . S
C310 C315 1.363 . S
C311 H282 0.950 . S
C311 C310 1.397 . S
C311 C312 1.334 . S
C312 H283 0.950 . S
C312 C311 1.334 . S
C312 C313 1.287 . S
C313 C312 1.287 . S
C313 C314 1.524 . S
C313 H316 0.999 . S
C314 H284 0.950 . S
C314 C313 1.524 . S
C314 C315 1.415 . S
C315 H285 0.950 . S
C315 C310 1.363 . S
C315 C314 1.415 . S
H316 C313 0.999 . S
H317 C298 0.913 . S
H318 C336 0.951 . S
H319 C338 0.951 . S
H320 C340 0.950 . S
H321 C341 0.950 . S
H322 C343 0.950 . S
H323 C346 0.950 . S
H324 C347 0.950 . S
H325 C349 0.950 . S
H326 C350 0.950 . S
H327 C351 0.951 . S
H328 C353 0.951 . S
H329 C355 0.950 . S
H330 C356 0.950 . S
H331 C358 0.950 . S
H332 C361 0.950 . S
H333 C362 0.950 . S
H334 C364 0.950 . S
H335 C365 0.950 1_655 S
C336 H318 0.951 . S
C336 C337 1.366 . S
C336 C338 1.388 . S
C337 C336 1.366 . S
C337 C341 1.385 . S
C338 H319 0.951 . S
C338 C336 1.388 . S
C338 C339 1.366 . S
C339 C338 1.366 . S
C339 C340 1.414 . S
C339 C342 1.499 . S
C340 H320 0.950 . S
C340 C339 1.414 . S
C340 C341 1.374 . S
C341 H321 0.950 . S
C341 C337 1.385 . S
C341 C340 1.374 . S
C342 C339 1.499 . S
C342 C343 1.373 . S
C342 C344 1.389 . S
C343 H322 0.950 . S
C343 C342 1.373 . S
C343 C359 1.377 . S
C344 C342 1.389 . S
C344 C345 1.524 . S
C344 C358 1.377 . S
C345 C344 1.524 . S
C345 C346 1.397 . S
C345 C350 1.363 . S
C346 H323 0.950 . S
C346 C345 1.397 . S
C346 C347 1.334 . S
C347 H324 0.950 . S
C347 C346 1.334 . S
C347 C348 1.287 . S
C348 C347 1.287 . S
C348 C349 1.524 . S
C348 H367 0.913 . S
C349 H325 0.950 . S
C349 C348 1.524 . S
C349 C350 1.415 . S
C350 H326 0.950 . S
C350 C345 1.363 . S
C350 C349 1.415 . S
C351 H327 0.951 . S
C351 C352 1.366 . S
C351 C353 1.388 . S
C352 C351 1.366 . S
C352 C356 1.385 . S
C353 H328 0.951 . S
C353 C351 1.388 . S
C353 C354 1.366 . S
C354 C353 1.366 . S
C354 C355 1.414 . S
C354 C357 1.499 . S
C355 H329 0.950 . S
C355 C354 1.414 . S
C355 C356 1.374 . S
C356 H330 0.950 . S
C356 C352 1.385 . S
C356 C355 1.374 . S
C357 C354 1.499 . S
C357 C358 1.373 . S
C357 C359 1.389 . S
C358 H331 0.950 . S
C358 C344 1.377 . S
C358 C357 1.373 . S
C359 C343 1.377 . S
C359 C357 1.389 . S
C359 C360 1.530 . S
C360 C359 1.530 . S
C360 C361 1.392 1_655 S
C360 C365 1.362 1_655 S
C361 H332 0.950 . S
C361 C360 1.392 1_455 S
C361 C362 1.334 . S
C362 H333 0.950 . S
C362 C361 1.334 . S
C362 C363 1.287 . S
C363 C362 1.287 . S
C363 C364 1.524 . S
C363 H366 0.999 . S
C364 H334 0.950 . S
C364 C363 1.524 . S
C364 C365 1.415 . S
C365 H335 0.950 1_455 S
C365 C360 1.362 1_455 S
C365 C364 1.415 . S
H366 C363 0.999 . S
H367 C348 0.913 . S
H368 C386 0.951 . S
H369 C388 0.951 . S
H370 C390 0.950 . S
H371 C391 0.950 . S
H372 C393 0.950 . S
H373 C396 0.950 . S
H374 C397 0.950 . S
H375 C399 0.950 . S
H376 C400 0.950 . S
H377 C401 0.951 . S
H378 C403 0.951 . S
H379 C405 0.950 . S
H380 C406 0.950 . S
H381 C408 0.950 . S
H382 C411 0.950 . S
H383 C412 0.950 . S
H384 C414 0.950 . S
H385 C415 0.950 . S
C386 H368 0.951 . S
C386 C387 1.366 . S
C386 C388 1.388 . S
C387 C386 1.366 . S
C387 C391 1.385 . S
C388 H369 0.951 . S
C388 C386 1.388 . S
C388 C389 1.366 . S
C389 C388 1.366 . S
C389 C390 1.414 . S
C389 C392 1.499 . S
C390 H370 0.950 . S
C390 C389 1.414 . S
C390 C391 1.374 . S
C391 H371 0.950 . S
C391 C387 1.385 . S
C391 C390 1.374 . S
C392 C389 1.499 . S
C392 C393 1.373 . S
C392 C394 1.389 . S
C393 H372 0.950 . S
C393 C392 1.373 . S
C393 C409 1.377 . S
C394 C392 1.389 . S
C394 C395 1.524 . S
C394 C408 1.377 . S
C395 C394 1.524 . S
C395 C396 1.397 1_565 S
C395 C400 1.363 . S
C396 H373 0.950 . S
C396 C395 1.397 1_545 S
C396 C397 1.334 . S
C397 H374 0.950 . S
C397 C396 1.334 . S
C397 C398 1.287 . S
C398 C397 1.287 . S
C398 C399 1.524 . S
C398 H417 0.913 . S
C399 H375 0.950 . S
C399 C398 1.524 . S
C399 C400 1.415 1_545 S
C400 H376 0.950 . S
C400 C395 1.363 . S
C400 C399 1.415 1_565 S
C401 H377 0.951 . S
C401 C402 1.366 . S
C401 C403 1.388 . S
C402 C401 1.366 . S
C402 C406 1.385 . S
C403 H378 0.951 . S
C403 C401 1.388 . S
C403 C404 1.366 . S
C404 C403 1.366 . S
C404 C405 1.414 . S
C404 C407 1.499 . S
C405 H379 0.950 . S
C405 C404 1.414 . S
C405 C406 1.374 . S
C406 H380 0.950 . S
C406 C402 1.385 . S
C406 C405 1.374 . S
C407 C404 1.499 . S
C407 C408 1.373 . S
C407 C409 1.389 . S
C408 H381 0.950 . S
C408 C394 1.377 . S
C408 C407 1.373 . S
C409 C393 1.377 . S
C409 C407 1.389 . S
C409 C410 1.524 . S
C410 C409 1.524 . S
C410 C411 1.397 . S
C410 C415 1.363 . S
C411 H382 0.950 . S
C411 C410 1.397 . S
C411 C412 1.334 . S
C412 H383 0.950 . S
C412 C411 1.334 . S
C412 C413 1.287 . S
C413 C412 1.287 . S
C413 C414 1.524 . S
C413 H416 0.999 . S
C414 H384 0.950 . S
C414 C413 1.524 . S
C414 C415 1.415 . S
C415 H385 0.950 . S
C415 C410 1.363 . S
C415 C414 1.415 . S
H416 C413 0.999 . S
H417 C398 0.913 . S
H418 C436 0.951 . S
H419 C438 0.951 . S
H420 C440 0.950 . S
H421 C441 0.950 . S
H422 C443 0.950 . S
H423 C446 0.950 . S
H424 C447 0.950 . S
H425 C449 0.950 . S
H426 C450 0.950 . S
H427 C451 0.951 . S
H428 C453 0.951 . S
H429 C455 0.950 . S
H430 C456 0.950 . S
H431 C458 0.950 . S
H432 C461 0.950 . S
H433 C462 0.950 . S
H434 C464 0.950 . S
H435 C465 0.950 . S
C436 H418 0.951 . S
C436 C437 1.366 . S
C436 C438 1.388 . S
C437 C436 1.366 . S
C437 C441 1.385 . S
C438 H419 0.951 . S
C438 C436 1.388 . S
C438 C439 1.366 . S
C439 C438 1.366 . S
C439 C440 1.414 . S
C439 C442 1.499 . S
C440 H420 0.950 . S
C440 C439 1.414 . S
C440 C441 1.374 . S
C441 H421 0.950 . S
C441 C437 1.385 . S
C441 C440 1.374 . S
C442 C439 1.499 . S
C442 C443 1.373 . S
C442 C444 1.389 . S
C443 H422 0.950 . S
C443 C442 1.373 . S
C443 C459 1.377 . S
C444 C442 1.389 . S
C444 C445 1.524 . S
C444 C458 1.377 . S
C445 C444 1.524 . S
C445 C446 1.397 . S
C445 C450 1.363 . S
C446 H423 0.950 . S
C446 C445 1.397 . S
C446 C447 1.334 . S
C447 H424 0.950 . S
C447 C446 1.334 . S
C447 C448 1.287 . S
C448 C447 1.287 . S
C448 C449 1.524 . S
C448 H467 0.913 . S
C449 H425 0.950 . S
C449 C448 1.524 . S
C449 C450 1.415 . S
C450 H426 0.950 . S
C450 C445 1.363 . S
C450 C449 1.415 . S
C451 H427 0.951 . S
C451 C452 1.366 . S
C451 C453 1.388 . S
C452 C451 1.366 . S
C452 C456 1.385 . S
C453 H428 0.951 . S
C453 C451 1.388 . S
C453 C454 1.366 . S
C454 C453 1.366 . S
C454 C455 1.414 . S
C454 C457 1.499 . S
C455 H429 0.950 . S
C455 C454 1.414 . S
C455 C456 1.374 . S
C456 H430 0.950 . S
C456 C452 1.385 . S
C456 C455 1.374 . S
C457 C454 1.499 . S
C457 C458 1.373 . S
C457 C459 1.389 . S
C458 H431 0.950 . S
C458 C444 1.377 . S
C458 C457 1.373 . S
C459 C443 1.377 . S
C459 C457 1.389 . S
C459 C460 1.524 . S
C460 C459 1.524 . S
C460 C461 1.397 . S
C460 C465 1.363 . S
C461 H432 0.950 . S
C461 C460 1.397 . S
C461 C462 1.334 . S
C462 H433 0.950 . S
C462 C461 1.334 . S
C462 C463 1.287 . S
C463 C462 1.287 . S
C463 C464 1.524 . S
C463 H466 0.999 . S
C464 H434 0.950 . S
C464 C463 1.524 . S
C464 C465 1.415 . S
C465 H435 0.950 . S
C465 C460 1.363 . S
C465 C464 1.415 . S
H466 C463 0.999 . S
H467 C448 0.913 . S
H468 C486 0.951 . S
H469 C488 0.951 . S
H470 C490 0.950 . S
H471 C491 0.950 . S
H472 C493 0.950 . S
H473 C496 0.950 . S
H474 C497 0.950 . S
H475 C499 0.950 . S
H476 C500 0.950 . S
H477 C501 0.944 1_556 S
H478 C503 0.951 . S
H479 C505 0.950 . S
H480 C506 0.950 . S
H481 C508 0.950 . S
H482 C511 0.950 . S
H483 C512 0.950 . S
H484 C514 0.950 . S
H485 C515 0.950 . S
C486 H468 0.951 . S
C486 C487 1.366 . S
C486 C488 1.388 . S
C487 C486 1.366 . S
C487 C491 1.385 . S
C488 H469 0.951 . S
C488 C486 1.388 . S
C488 C489 1.366 . S
C489 C488 1.366 . S
C489 C490 1.414 . S
C489 C492 1.499 . S
C490 H470 0.950 . S
C490 C489 1.414 . S
C490 C491 1.374 . S
C491 H471 0.950 . S
C491 C487 1.385 . S
C491 C490 1.374 . S
C492 C489 1.499 . S
C492 C493 1.373 . S
C492 C494 1.389 . S
C493 H472 0.950 . S
C493 C492 1.373 . S
C493 C509 1.377 . S
C494 C492 1.389 . S
C494 C495 1.524 . S
C494 C508 1.377 . S
C495 C494 1.524 . S
C495 C496 1.397 . S
C495 C500 1.363 . S
C496 H473 0.950 . S
C496 C495 1.397 . S
C496 C497 1.334 . S
C497 H474 0.950 . S
C497 C496 1.334 . S
C497 C498 1.287 . S
C498 C497 1.287 . S
C498 C499 1.524 . S
C498 H517 0.913 . S
C499 H475 0.950 . S
C499 C498 1.524 . S
C499 C500 1.415 . S
C500 H476 0.950 . S
C500 C495 1.363 . S
C500 C499 1.415 . S
C501 H477 0.944 1_554 S
C501 C502 1.347 1_554 S
C501 C503 1.416 . S
C502 C501 1.347 1_556 S
C502 C506 1.385 . S
C503 H478 0.951 . S
C503 C501 1.416 . S
C503 C504 1.366 . S
C504 C503 1.366 . S
C504 C505 1.414 . S
C504 C507 1.499 . S
C505 H479 0.950 . S
C505 C504 1.414 . S
C505 C506 1.374 1_554 S
C506 H480 0.950 . S
C506 C502 1.385 . S
C506 C505 1.374 1_556 S
C507 C504 1.499 . S
C507 C508 1.373 . S
C507 C509 1.389 . S
C508 H481 0.950 . S
C508 C494 1.377 . S
C508 C507 1.373 . S
C509 C493 1.377 . S
C509 C507 1.389 . S
C509 C510 1.524 . S
C510 C509 1.524 . S
C510 C511 1.397 1_554 S
C510 C515 1.363 . S
C511 H482 0.950 . S
C511 C510 1.397 1_556 S
C511 C512 1.334 . S
C512 H483 0.950 . S
C512 C511 1.334 . S
C512 C513 1.287 . S
C513 C512 1.287 . S
C513 C514 1.524 . S
C513 H516 0.999 . S
C514 H484 0.950 . S
C514 C513 1.524 . S
C514 C515 1.415 1_556 S
C515 H485 0.950 . S
C515 C510 1.363 . S
C515 C514 1.415 1_554 S
H516 C513 0.999 . S
H517 C498 0.913 . S
H518 C536 0.951 . S
H519 C538 0.951 . S
H520 C540 0.950 . S
H521 C541 0.950 . S
H522 C543 0.950 . S
H523 C546 0.950 . S
H524 C547 0.950 . S
H525 C549 0.950 . S
H526 C550 0.950 . S
H527 C551 0.950 1_455 S
H528 C553 0.951 . S
H529 C555 0.950 . S
H530 C556 0.950 . S
H531 C558 0.950 . S
H532 C561 0.950 . S
H533 C562 0.950 . S
H534 C564 0.950 . S
H535 C565 0.950 . S
C536 H518 0.951 . S
C536 C537 1.366 . S
C536 C538 1.388 . S
C537 C536 1.366 . S
C537 C541 1.385 . S
C538 H519 0.951 . S
C538 C536 1.388 . S
C538 C539 1.366 . S
C539 C538 1.366 . S
C539 C540 1.414 . S
C539 C542 1.499 . S
C540 H520 0.950 . S
C540 C539 1.414 . S
C540 C541 1.374 . S
C541 H521 0.950 . S
C541 C537 1.385 . S
C541 C540 1.374 . S
C542 C539 1.499 . S
C542 C543 1.373 . S
C542 C544 1.389 . S
C543 H522 0.950 . S
C543 C542 1.373 . S
C543 C559 1.377 . S
C544 C542 1.389 . S
C544 C545 1.524 . S
C544 C558 1.377 . S
C545 C544 1.524 . S
C545 C546 1.397 . S
C545 C550 1.363 . S
C546 H523 0.950 . S
C546 C545 1.397 . S
C546 C547 1.334 . S
C547 H524 0.950 . S
C547 C546 1.334 . S
C547 C548 1.287 . S
C548 C547 1.287 . S
C548 C549 1.524 . S
C548 H567 0.913 . S
C549 H525 0.950 . S
C549 C548 1.524 . S
C549 C550 1.415 . S
C550 H526 0.950 . S
C550 C545 1.363 . S
C550 C549 1.415 . S
C551 H527 0.950 1_655 S
C551 C552 1.366 . S
C551 C553 1.388 . S
C552 C551 1.366 . S
C552 C556 1.385 . S
C553 H528 0.951 . S
C553 C551 1.388 . S
C553 C554 1.366 . S
C554 C553 1.366 . S
C554 C555 1.414 . S
C554 C557 1.499 . S
C555 H529 0.950 . S
C555 C554 1.414 . S
C555 C556 1.374 . S
C556 H530 0.950 . S
C556 C552 1.385 . S
C556 C555 1.374 . S
C557 C554 1.499 . S
C557 C558 1.373 . S
C557 C559 1.389 . S
C558 H531 0.950 . S
C558 C544 1.377 . S
C558 C557 1.373 . S
C559 C543 1.377 . S
C559 C557 1.389 . S
C559 C560 1.524 . S
C560 C559 1.524 . S
C560 C561 1.397 . S
C560 C565 1.363 . S
C561 H532 0.950 . S
C561 C560 1.397 . S
C561 C562 1.334 . S
C562 H533 0.950 . S
C562 C561 1.334 . S
C562 C563 1.287 . S
C563 C562 1.287 . S
C563 C564 1.524 . S
C563 H566 0.999 . S
C564 H534 0.950 . S
C564 C563 1.524 . S
C564 C565 1.415 . S
C565 H535 0.950 . S
C565 C560 1.363 . S
C565 C564 1.415 . S
H566 C563 0.999 . S
H567 C548 0.913 . S
H568 C586 0.951 . S
H569 C588 0.951 . S
H570 C590 0.950 . S
H571 C591 0.950 . S
H572 C593 0.950 . S
H573 C596 0.950 . S
H574 C597 0.950 . S
H575 C599 0.950 . S
H576 C600 0.950 . S
H577 C601 0.951 . S
H578 C603 0.951 . S
H579 C605 0.950 . S
H580 C606 0.950 . S
H581 C608 0.950 . S
H582 C611 0.950 . S
H583 C612 0.950 . S
H584 C614 0.950 . S
H585 C615 0.950 . S
C586 H568 0.951 . S
C586 C587 1.366 . S
C586 C588 1.388 . S
C587 C586 1.366 . S
C587 C591 1.385 . S
C588 H569 0.951 . S
C588 C586 1.388 . S
C588 C589 1.366 . S
C589 C588 1.366 . S
C589 C590 1.414 . S
C589 C592 1.499 . S
C590 H570 0.950 . S
C590 C589 1.414 . S
C590 C591 1.374 . S
C591 H571 0.950 . S
C591 C587 1.385 . S
C591 C590 1.374 . S
C592 C589 1.499 . S
C592 C593 1.373 . S
C592 C594 1.389 . S
C593 H572 0.950 . S
C593 C592 1.373 . S
C593 C609 1.377 . S
C594 C592 1.389 . S
C594 C595 1.524 . S
C594 C608 1.377 . S
C595 C594 1.524 . S
C595 C596 1.397 . S
C595 C600 1.363 . S
C596 H573 0.950 . S
C596 C595 1.397 . S
C596 C597 1.334 . S
C597 H574 0.950 . S
C597 C596 1.334 . S
C597 C598 1.287 . S
C598 C597 1.287 . S
C598 C599 1.524 . S
C598 H617 0.913 . S
C599 H575 0.950 . S
C599 C598 1.524 . S
C599 C600 1.415 . S
C600 H576 0.950 . S
C600 C595 1.363 . S
C600 C599 1.415 . S
C601 H577 0.951 . S
C601 C602 1.366 . S
C601 C603 1.388 . S
C602 C601 1.366 . S
C602 C606 1.385 . S
C603 H578 0.951 . S
C603 C601 1.388 . S
C603 C604 1.366 . S
C604 C603 1.366 . S
C604 C605 1.414 . S
C604 C607 1.499 . S
C605 H579 0.950 . S
C605 C604 1.414 . S
C605 C606 1.374 . S
C606 H580 0.950 . S
C606 C602 1.385 . S
C606 C605 1.374 . S
C607 C604 1.499 . S
C607 C608 1.373 . S
C607 C609 1.389 . S
C608 H581 0.950 . S
C608 C594 1.377 . S
C608 C607 1.373 . S
C609 C593 1.377 . S
C609 C607 1.389 . S
C609 C610 1.524 . S
C610 C609 1.524 . S
C610 C611 1.397 . S
C610 C615 1.363 . S
C611 H582 0.950 . S
C611 C610 1.397 . S
C611 C612 1.334 . S
C612 H583 0.950 . S
C612 C611 1.334 . S
C612 C613 1.287 . S
C613 C612 1.287 . S
C613 C614 1.524 . S
C613 H616 0.999 . S
C614 H584 0.950 . S
C614 C613 1.524 . S
C614 C615 1.415 . S
C615 H585 0.950 . S
C615 C610 1.363 . S
C615 C614 1.415 . S
H616 C613 0.999 . S
H617 C598 0.913 . S
H618 C636 0.951 . S
H619 C638 0.951 . S
H620 C640 0.950 . S
H621 C641 0.950 . S
H622 C643 0.950 . S
H623 C646 0.950 . S
H624 C647 0.950 . S
H625 C649 0.950 . S
H626 C650 0.950 . S
H627 C651 0.951 . S
H628 C653 0.951 . S
H629 C655 0.950 . S
H630 C656 0.950 . S
H631 C658 0.950 . S
H632 C661 0.950 . S
H633 C662 0.950 . S
H634 C664 0.950 . S
H635 C665 0.950 . S
C636 H618 0.951 . S
C636 C637 1.366 . S
C636 C638 1.388 . S
C637 C636 1.366 . S
C637 C641 1.385 . S
C638 H619 0.951 . S
C638 C636 1.388 . S
C638 C639 1.366 . S
C639 C638 1.366 . S
C639 C640 1.414 . S
C639 C642 1.499 . S
C640 H620 0.950 . S
C640 C639 1.414 . S
C640 C641 1.374 . S
C641 H621 0.950 . S
C641 C637 1.385 . S
C641 C640 1.374 . S
C642 C639 1.499 . S
C642 C643 1.373 . S
C642 C644 1.389 . S
C643 H622 0.950 . S
C643 C642 1.373 . S
C643 C659 1.377 . S
C644 C642 1.389 . S
C644 C645 1.524 . S
C644 C658 1.377 . S
C645 C644 1.524 . S
C645 C646 1.397 . S
C645 C650 1.363 . S
C646 H623 0.950 . S
C646 C645 1.397 . S
C646 C647 1.334 . S
C647 H624 0.950 . S
C647 C646 1.334 . S
C647 C648 1.287 . S
C648 C647 1.287 . S
C648 C649 1.524 . S
C648 H667 0.913 . S
C649 H625 0.950 . S
C649 C648 1.524 . S
C649 C650 1.415 . S
C650 H626 0.950 . S
C650 C645 1.363 . S
C650 C649 1.415 . S
C651 H627 0.951 . S
C651 C652 1.366 . S
C651 C653 1.388 . S
C652 C651 1.366 . S
C652 C656 1.385 . S
C653 H628 0.951 . S
C653 C651 1.388 . S
C653 C654 1.366 . S
C654 C653 1.366 . S
C654 C655 1.414 . S
C654 C657 1.499 . S
C655 H629 0.950 . S
C655 C654 1.414 . S
C655 C656 1.374 . S
C656 H630 0.950 . S
C656 C652 1.385 . S
C656 C655 1.374 . S
C657 C654 1.499 . S
C657 C658 1.373 . S
C657 C659 1.389 . S
C658 H631 0.950 . S
C658 C644 1.377 . S
C658 C657 1.373 . S
C659 C643 1.377 . S
C659 C657 1.389 . S
C659 C660 1.524 . S
C660 C659 1.524 . S
C660 C661 1.397 . S
C660 C665 1.363 . S
C661 H632 0.950 . S
C661 C660 1.397 . S
C661 C662 1.334 . S
C662 H633 0.950 . S
C662 C661 1.334 . S
C662 C663 1.287 . S
C663 C662 1.287 . S
C663 C664 1.524 . S
C663 H666 0.999 . S
C664 H634 0.950 . S
C664 C663 1.524 . S
C664 C665 1.415 . S
C665 H635 0.950 . S
C665 C660 1.363 . S
C665 C664 1.415 . S
H666 C663 0.999 . S
H667 C648 0.913 . S
H668 C686 0.951 . S
H669 C688 0.951 . S
H670 C690 0.950 . S
H671 C691 0.950 . S
H672 C693 0.950 . S
H673 C696 0.950 . S
H674 C697 0.950 . S
H675 C699 0.950 . S
H676 C700 0.950 . S
H677 C701 0.951 . S
H678 C703 0.951 . S
H679 C705 0.950 . S
H680 C706 0.950 . S
H681 C708 0.950 . S
H682 C711 0.950 . S
H683 C712 0.950 . S
H684 C714 0.950 . S
H685 C715 0.950 . S
C686 H668 0.951 . S
C686 C687 1.366 . S
C686 C688 1.388 . S
C687 C686 1.366 . S
C687 C691 1.385 . S
C688 H669 0.951 . S
C688 C686 1.388 . S
C688 C689 1.366 . S
C689 C688 1.366 . S
C689 C690 1.414 . S
C689 C692 1.499 . S
C690 H670 0.950 . S
C690 C689 1.414 . S
C690 C691 1.374 . S
C691 H671 0.950 . S
C691 C687 1.385 . S
C691 C690 1.374 . S
C692 C689 1.499 . S
C692 C693 1.373 . S
C692 C694 1.389 . S
C693 H672 0.950 . S
C693 C692 1.373 . S
C693 C709 1.377 . S
C694 C692 1.389 . S
C694 C695 1.524 . S
C694 C708 1.377 . S
C695 C694 1.524 . S
C695 C696 1.397 . S
C695 C700 1.363 . S
C696 H673 0.950 . S
C696 C695 1.397 . S
C696 C697 1.334 . S
C697 H674 0.950 . S
C697 C696 1.334 . S
C697 C698 1.287 . S
C698 C697 1.287 . S
C698 C699 1.524 . S
C698 H717 0.913 1_455 S
C699 H675 0.950 . S
C699 C698 1.524 . S
C699 C700 1.415 . S
C700 H676 0.950 . S
C700 C695 1.363 . S
C700 C699 1.415 . S
C701 H677 0.951 . S
C701 C702 1.366 . S
C701 C703 1.388 . S
C702 C701 1.366 . S
C702 C706 1.385 . S
C703 H678 0.951 . S
C703 C701 1.388 . S
C703 C704 1.366 . S
C704 C703 1.366 . S
C704 C705 1.414 . S
C704 C707 1.499 . S
C705 H679 0.950 . S
C705 C704 1.414 . S
C705 C706 1.374 . S
C706 H680 0.950 . S
C706 C702 1.385 . S
C706 C705 1.374 . S
C707 C704 1.499 . S
C707 C708 1.373 . S
C707 C709 1.389 . S
C708 H681 0.950 . S
C708 C694 1.377 . S
C708 C707 1.373 . S
C709 C693 1.377 . S
C709 C707 1.389 . S
C709 C710 1.524 . S
C710 C709 1.524 . S
C710 C711 1.397 . S
C710 C715 1.363 . S
C711 H682 0.950 . S
C711 C710 1.397 . S
C711 C712 1.334 . S
C712 H683 0.950 . S
C712 C711 1.334 . S
C712 C713 1.287 . S
C713 C712 1.287 . S
C713 C714 1.524 . S
C713 H716 0.999 . S
C714 H684 0.950 . S
C714 C713 1.524 . S
C714 C715 1.415 . S
C715 H685 0.950 . S
C715 C710 1.363 . S
C715 C714 1.415 . S
H716 C713 0.999 . S
H717 C698 0.913 1_655 S
H718 C736 0.951 . S
H719 C738 0.951 . S
H720 C740 0.950 . S
H721 C741 0.950 . S
H722 C743 0.950 . S
H723 C746 0.950 . S
H724 C747 0.950 . S
H725 C749 0.950 . S
H726 C750 0.950 . S
H727 C751 0.951 . S
H728 C753 0.951 . S
H729 C755 0.950 . S
H730 C756 0.950 . S
H731 C758 0.950 . S
H732 C761 0.950 . S
H733 C762 0.950 . S
H734 C764 0.950 . S
H735 C765 0.950 . S
C736 H718 0.951 . S
C736 C737 1.366 . S
C736 C738 1.388 . S
C737 C736 1.366 . S
C737 C741 1.385 . S
C738 H719 0.951 . S
C738 C736 1.388 . S
C738 C739 1.366 . S
C739 C738 1.366 . S
C739 C740 1.414 . S
C739 C742 1.499 . S
C740 H720 0.950 . S
C740 C739 1.414 . S
C740 C741 1.374 . S
C741 H721 0.950 . S
C741 C737 1.385 . S
C741 C740 1.374 . S
C742 C739 1.499 . S
C742 C743 1.373 . S
C742 C744 1.389 . S
C743 H722 0.950 . S
C743 C742 1.373 . S
C743 C759 1.377 . S
C744 C742 1.389 . S
C744 C745 1.524 . S
C744 C758 1.377 . S
C745 C744 1.524 . S
C745 C746 1.397 . S
C745 C750 1.363 . S
C746 H723 0.950 . S
C746 C745 1.397 . S
C746 C747 1.334 . S
C747 H724 0.950 . S
C747 C746 1.334 . S
C747 C748 1.287 . S
C748 C747 1.287 . S
C748 C749 1.524 . S
C748 H767 0.913 . S
C749 H725 0.950 . S
C749 C748 1.524 . S
C749 C750 1.415 . S
C750 H726 0.950 . S
C750 C745 1.363 . S
C750 C749 1.415 . S
C751 H727 0.951 . S
C751 C752 1.366 . S
C751 C753 1.388 . S
C752 C751 1.366 . S
C752 C756 1.385 . S
C753 H728 0.951 . S
C753 C751 1.388 . S
C753 C754 1.366 . S
C754 C753 1.366 . S
C754 C755 1.414 . S
C754 C757 1.499 . S
C755 H729 0.950 . S
C755 C754 1.414 . S
C755 C756 1.374 . S
C756 H730 0.950 . S
C756 C752 1.385 . S
C756 C755 1.374 . S
C757 C754 1.499 . S
C757 C758 1.373 . S
C757 C759 1.389 . S
C758 H731 0.950 . S
C758 C744 1.377 . S
C758 C757 1.373 . S
C759 C743 1.377 . S
C759 C757 1.389 . S
C759 C760 1.524 . S
C760 C759 1.524 . S
C760 C761 1.397 . S
C760 C765 1.363 . S
C761 H732 0.950 . S
C761 C760 1.397 . S
C761 C762 1.334 . S
C762 H733 0.950 . S
C762 C761 1.334 . S
C762 C763 1.287 . S
C763 C762 1.287 . S
C763 C764 1.524 . S
C763 H766 0.999 . S
C764 H734 0.950 . S
C764 C763 1.524 . S
C764 C765 1.415 . S
C765 H735 0.950 . S
C765 C760 1.363 . S
C765 C764 1.415 . S
H766 C763 0.999 . S
H767 C748 0.913 . S
H768 C786 0.951 . S
H769 C788 0.951 . S
H770 C790 0.950 . S
H771 C791 0.950 . S
H772 C793 0.950 . S
H773 C796 0.950 . S
H774 C797 0.950 . S
H775 C799 0.950 . S
H776 C800 0.950 . S
H777 C801 0.951 . S
H778 C803 0.951 . S
H779 C805 0.950 . S
H780 C806 0.950 . S
H781 C808 0.950 . S
H782 C811 0.950 . S
H783 C812 0.950 . S
H784 C814 0.950 . S
H785 C815 0.950 . S
C786 H768 0.951 . S
C786 C787 1.366 . S
C786 C788 1.388 . S
C787 C786 1.366 . S
C787 C791 1.385 . S
C788 H769 0.951 . S
C788 C786 1.388 . S
C788 C789 1.366 . S
C789 C788 1.366 . S
C789 C790 1.414 . S
C789 C792 1.499 . S
C790 H770 0.950 . S
C790 C789 1.414 . S
C790 C791 1.374 . S
C791 H771 0.950 . S
C791 C787 1.385 . S
C791 C790 1.374 . S
C792 C789 1.499 . S
C792 C793 1.373 . S
C792 C794 1.389 . S
C793 H772 0.950 . S
C793 C792 1.373 . S
C793 C809 1.377 . S
C794 C792 1.389 . S
C794 C795 1.524 . S
C794 C808 1.377 . S
C795 C794 1.524 . S
C795 C796 1.397 . S
C795 C800 1.363 . S
C796 H773 0.950 . S
C796 C795 1.397 . S
C796 C797 1.334 . S
C797 H774 0.950 . S
C797 C796 1.334 . S
C797 C798 1.287 . S
C798 C797 1.287 . S
C798 C799 1.524 . S
C798 H817 0.913 . S
C799 H775 0.950 . S
C799 C798 1.524 . S
C799 C800 1.415 . S
C800 H776 0.950 . S
C800 C795 1.363 . S
C800 C799 1.415 . S
C801 H777 0.951 . S
C801 C802 1.366 . S
C801 C803 1.388 . S
C802 C801 1.366 . S
C802 C806 1.385 . S
C803 H778 0.951 . S
C803 C801 1.388 . S
C803 C804 1.366 . S
C804 C803 1.366 . S
C804 C805 1.414 . S
C804 C807 1.499 . S
C805 H779 0.950 . S
C805 C804 1.414 . S
C805 C806 1.374 . S
C806 H780 0.950 . S
C806 C802 1.385 . S
C806 C805 1.374 . S
C807 C804 1.499 . S
C807 C808 1.373 . S
C807 C809 1.389 . S
C808 H781 0.950 . S
C808 C794 1.377 . S
C808 C807 1.373 . S
C809 C793 1.377 . S
C809 C807 1.389 . S
C809 C810 1.524 . S
C810 C809 1.524 . S
C810 C811 1.397 . S
C810 C815 1.363 . S
C811 H782 0.950 . S
C811 C810 1.397 . S
C811 C812 1.334 . S
C812 H783 0.950 . S
C812 C811 1.334 . S
C812 C813 1.287 . S
C813 C812 1.287 . S
C813 C814 1.524 . S
C813 H816 0.999 . S
C814 H784 0.950 . S
C814 C813 1.524 . S
C814 C815 1.415 . S
C815 H785 0.950 . S
C815 C810 1.363 . S
C815 C814 1.415 . S
H816 C813 0.999 . S
H817 C798 0.913 . S
H818 C836 0.951 . S
H819 C838 0.951 . S
H820 C840 0.950 . S
H821 C841 0.950 . S
H822 C843 0.950 . S
H823 C846 0.950 . S
H824 C847 0.950 . S
H825 C849 0.950 . S
H826 C850 0.950 . S
H827 C851 0.951 . S
H828 C853 0.951 . S
H829 C855 0.950 . S
H830 C856 0.950 . S
H831 C858 0.950 . S
H832 C861 0.950 . S
H833 C862 0.950 . S
H834 C864 0.950 . S
H835 C865 0.950 . S
C836 H818 0.951 . S
C836 C837 1.366 . S
C836 C838 1.388 . S
C837 C836 1.366 . S
C837 C841 1.385 . S
C838 H819 0.951 . S
C838 C836 1.388 . S
C838 C839 1.366 . S
C839 C838 1.366 . S
C839 C840 1.414 . S
C839 C842 1.499 . S
C840 H820 0.950 . S
C840 C839 1.414 . S
C840 C841 1.374 . S
C841 H821 0.950 . S
C841 C837 1.385 . S
C841 C840 1.374 . S
C842 C839 1.499 . S
C842 C843 1.373 . S
C842 C844 1.389 . S
C843 H822 0.950 . S
C843 C842 1.373 . S
C843 C859 1.377 . S
C844 C842 1.389 . S
C844 C845 1.524 . S
C844 C858 1.377 . S
C845 C844 1.524 . S
C845 C846 1.397 . S
C845 C850 1.363 . S
C846 H823 0.950 . S
C846 C845 1.397 . S
C846 C847 1.334 . S
C847 H824 0.950 . S
C847 C846 1.334 . S
C847 C848 1.287 . S
C848 C847 1.287 . S
C848 C849 1.524 . S
C848 H867 0.913 . S
C849 H825 0.950 . S
C849 C848 1.524 . S
C849 C850 1.415 . S
C850 H826 0.950 . S
C850 C845 1.363 . S
C850 C849 1.415 . S
C851 H827 0.951 . S
C851 C852 1.366 . S
C851 C853 1.388 . S
C852 C851 1.366 . S
C852 C856 1.385 1_554 S
C853 H828 0.951 . S
C853 C851 1.388 . S
C853 C854 1.366 1_554 S
C854 C853 1.366 1_556 S
C854 C855 1.414 . S
C854 C857 1.499 . S
C855 H829 0.950 . S
C855 C854 1.414 . S
C855 C856 1.374 . S
C856 H830 0.950 . S
C856 C852 1.385 1_556 S
C856 C855 1.374 . S
C857 C854 1.499 . S
C857 C858 1.373 . S
C857 C859 1.389 . S
C858 H831 0.950 . S
C858 C844 1.377 . S
C858 C857 1.373 . S
C859 C843 1.377 . S
C859 C857 1.389 . S
C859 C860 1.524 . S
C860 C859 1.524 . S
C860 C861 1.397 . S
C860 C865 1.363 . S
C861 H832 0.950 . S
C861 C860 1.397 . S
C861 C862 1.334 . S
C862 H833 0.950 . S
C862 C861 1.334 . S
C862 C863 1.287 . S
C863 C862 1.287 . S
C863 C864 1.524 . S
C863 H866 0.999 . S
C864 H834 0.950 . S
C864 C863 1.524 . S
C864 C865 1.415 . S
C865 H835 0.950 . S
C865 C860 1.363 . S
C865 C864 1.415 . S
H866 C863 0.999 . S
H867 C848 0.913 . S
H868 C886 0.951 . S
H869 C888 0.951 . S
H870 C890 0.950 . S
H871 C891 0.950 . S
H872 C893 0.950 . S
H873 C896 0.950 . S
H874 C897 0.950 . S
H875 C899 0.950 . S
H876 C900 0.950 . S
H877 C901 0.951 . S
H878 C903 0.951 . S
H879 C905 0.950 . S
H880 C906 0.950 . S
H881 C908 0.950 . S
H882 C911 0.950 . S
H883 C912 0.950 . S
H884 C914 0.950 . S
H885 C915 0.950 . S
C886 H868 0.951 . S
C886 C887 1.366 . S
C886 C888 1.388 . S
C887 C886 1.366 . S
C887 C891 1.385 . S
C888 H869 0.951 . S
C888 C886 1.388 . S
C888 C889 1.366 . S
C889 C888 1.366 . S
C889 C890 1.414 . S
C889 C892 1.499 . S
C890 H870 0.950 . S
C890 C889 1.414 . S
C890 C891 1.374 . S
C891 H871 0.950 . S
C891 C887 1.385 . S
C891 C890 1.374 . S
C892 C889 1.499 . S
C892 C893 1.373 . S
C892 C894 1.389 . S
C893 H872 0.950 . S
C893 C892 1.373 . S
C893 C909 1.377 . S
C894 C892 1.389 . S
C894 C895 1.524 . S
C894 C908 1.377 . S
C895 C894 1.524 . S
C895 C896 1.397 . S
C895 C900 1.363 . S
C896 H873 0.950 . S
C896 C895 1.397 . S
C896 C897 1.334 . S
C897 H874 0.950 . S
C897 C896 1.334 . S
C897 C898 1.287 . S
C898 C897 1.287 . S
C898 C899 1.524 . S
C898 H917 0.913 . S
C899 H875 0.950 . S
C899 C898 1.524 . S
C899 C900 1.415 . S
C900 H876 0.950 . S
C900 C895 1.363 . S
C900 C899 1.415 . S
C901 H877 0.951 . S
C901 C902 1.366 . S
C901 C903 1.388 . S
C902 C901 1.366 . S
C902 C906 1.385 . S
C903 H878 0.951 . S
C903 C901 1.388 . S
C903 C904 1.366 . S
C904 C903 1.366 . S
C904 C905 1.414 . S
C904 C907 1.499 . S
C905 H879 0.950 . S
C905 C904 1.414 . S
C905 C906 1.374 . S
C906 H880 0.950 . S
C906 C902 1.385 . S
C906 C905 1.374 . S
C907 C904 1.499 . S
C907 C908 1.373 . S
C907 C909 1.389 . S
C908 H881 0.950 . S
C908 C894 1.377 . S
C908 C907 1.373 . S
C909 C893 1.377 . S
C909 C907 1.389 . S
C909 C910 1.524 . S
C910 C909 1.524 . S
C910 C911 1.397 . S
C910 C915 1.363 . S
C911 H882 0.950 . S
C911 C910 1.397 . S
C911 C912 1.334 . S
C912 H883 0.950 . S
C912 C911 1.334 . S
C912 C913 1.287 . S
C913 C912 1.287 . S
C913 C914 1.524 . S
C913 H916 0.999 . S
C914 H884 0.950 . S
C914 C913 1.524 . S
C914 C915 1.415 . S
C915 H885 0.950 . S
C915 C910 1.363 . S
C915 C914 1.415 . S
H916 C913 0.999 . S
H917 C898 0.913 . S
H918 C936 0.951 . S
H919 C938 0.951 . S
H920 C940 0.950 . S
H921 C941 0.950 . S
H922 C943 0.950 . S
H923 C946 0.950 . S
H924 C947 0.950 . S
H925 C949 0.950 . S
H926 C950 0.950 . S
H927 C951 0.951 . S
H928 C953 0.951 . S
H929 C955 0.950 . S
H930 C956 0.950 . S
H931 C958 0.950 . S
H932 C961 0.950 . S
H933 C962 0.950 . S
H934 C964 0.950 . S
H935 C965 0.950 . S
C936 H918 0.951 . S
C936 C937 1.366 . S
C936 C938 1.388 . S
C937 C936 1.366 . S
C937 C941 1.385 . S
C938 H919 0.951 . S
C938 C936 1.388 . S
C938 C939 1.366 . S
C939 C938 1.366 . S
C939 C940 1.414 . S
C939 C942 1.499 . S
C940 H920 0.950 . S
C940 C939 1.414 . S
C940 C941 1.374 . S
C941 H921 0.950 . S
C941 C937 1.385 . S
C941 C940 1.374 . S
C942 C939 1.499 . S
C942 C943 1.373 . S
C942 C944 1.389 . S
C943 H922 0.950 . S
C943 C942 1.373 . S
C943 C959 1.377 . S
C944 C942 1.389 . S
C944 C945 1.524 . S
C944 C958 1.377 . S
C945 C944 1.524 . S
C945 C946 1.397 . S
C945 C950 1.363 . S
C946 H923 0.950 . S
C946 C945 1.397 . S
C946 C947 1.334 . S
C947 H924 0.950 . S
C947 C946 1.334 . S
C947 C948 1.287 . S
C948 C947 1.287 . S
C948 C949 1.524 . S
C948 H967 0.913 . S
C949 H925 0.950 . S
C949 C948 1.524 . S
C949 C950 1.415 . S
C950 H926 0.950 . S
C950 C945 1.363 . S
C950 C949 1.415 . S
C951 H927 0.951 . S
C951 C952 1.366 . S
C951 C953 1.388 . S
C952 C951 1.366 . S
C952 C956 1.385 . S
C953 H928 0.951 . S
C953 C951 1.388 . S
C953 C954 1.366 . S
C954 C953 1.366 . S
C954 C955 1.414 . S
C954 C957 1.499 . S
C955 H929 0.950 . S
C955 C954 1.414 . S
C955 C956 1.374 . S
C956 H930 0.950 . S
C956 C952 1.385 . S
C956 C955 1.374 . S
C957 C954 1.499 . S
C957 C958 1.373 . S
C957 C959 1.389 . S
C958 H931 0.950 . S
C958 C944 1.377 . S
C958 C957 1.373 . S
C959 C943 1.377 . S
C959 C957 1.389 . S
C959 C960 1.524 . S
C960 C959 1.524 . S
C960 C961 1.397 . S
C960 C965 1.363 . S
C961 H932 0.950 . S
C961 C960 1.397 . S
C961 C962 1.334 . S
C962 H933 0.950 . S
C962 C961 1.334 . S
C962 C963 1.287 . S
C963 C962 1.287 . S
C963 C964 1.524 . S
C963 H966 0.999 . S
C964 H934 0.950 . S
C964 C963 1.524 . S
C964 C965 1.415 . S
C965 H935 0.950 . S
C965 C960 1.363 . S
C965 C964 1.415 . S
H966 C963 0.999 . S
H967 C948 0.913 . S
H968 C986 0.951 . S
H969 C988 0.951 . S
H970 C990 0.950 . S
H971 C991 0.950 . S
H972 C993 0.950 . S
H973 C996 0.950 . S
H974 C997 0.950 . S
H975 C999 0.950 . S
H976 C1000 0.950 . S
H977 C1001 0.951 . S
H978 C1003 0.951 . S
H979 C1005 0.950 . S
H980 C1006 0.950 . S
H981 C1008 0.950 . S
H982 C1011 0.950 . S
H983 C1012 0.950 . S
H984 C1014 0.950 . S
H985 C1015 0.950 . S
C986 H968 0.951 . S
C986 C987 1.366 . S
C986 C988 1.388 . S
C987 C986 1.366 . S
C987 C991 1.385 . S
C988 H969 0.951 . S
C988 C986 1.388 . S
C988 C989 1.366 . S
C989 C988 1.366 . S
C989 C990 1.414 . S
C989 C992 1.499 . S
C990 H970 0.950 . S
C990 C989 1.414 . S
C990 C991 1.374 . S
C991 H971 0.950 . S
C991 C987 1.385 . S
C991 C990 1.374 . S
C992 C989 1.499 . S
C992 C993 1.373 . S
C992 C994 1.389 . S
C993 H972 0.950 . S
C993 C992 1.373 . S
C993 C1009 1.377 . S
C994 C992 1.389 . S
C994 C995 1.524 . S
C994 C1008 1.377 . S
C995 C994 1.524 . S
C995 C996 1.397 . S
C995 C1000 1.363 . S
C996 H973 0.950 . S
C996 C995 1.397 . S
C996 C997 1.334 . S
C997 H974 0.950 . S
C997 C996 1.334 . S
C997 C998 1.287 . S
C998 C997 1.287 . S
C998 C999 1.524 . S
C998 H1017 0.913 . S
C999 H975 0.950 . S
C999 C998 1.524 . S
C999 C1000 1.415 . S
C1000 H976 0.950 . S
C1000 C995 1.363 . S
C1000 C999 1.415 . S
C1001 H977 0.951 . S
C1001 C1002 1.366 . S
C1001 C1003 1.388 . S
C1002 C1001 1.366 . S
C1002 C1006 1.385 . S
C1003 H978 0.951 . S
C1003 C1001 1.388 . S
C1003 C1004 1.366 . S
C1004 C1003 1.366 . S
C1004 C1005 1.414 . S
C1004 C1007 1.499 . S
C1005 H979 0.950 . S
C1005 C1004 1.414 . S
C1005 C1006 1.374 . S
C1006 H980 0.950 . S
C1006 C1002 1.385 . S
C1006 C1005 1.374 . S
C1007 C1004 1.499 . S
C1007 C1008 1.373 . S
C1007 C1009 1.389 . S
C1008 H981 0.950 . S
C1008 C994 1.377 . S
C1008 C1007 1.373 . S
C1009 C993 1.377 . S
C1009 C1007 1.389 . S
C1009 C1010 1.524 . S
C1010 C1009 1.524 . S
C1010 C1011 1.397 . S
C1010 C1015 1.363 . S
C1011 H982 0.950 . S
C1011 C1010 1.397 . S
C1011 C1012 1.334 . S
C1012 H983 0.950 . S
C1012 C1011 1.334 . S
C1012 C1013 1.287 . S
C1013 C1012 1.287 . S
C1013 C1014 1.524 . S
C1013 H1016 0.999 . S
C1014 H984 0.950 . S
C1014 C1013 1.524 . S
C1014 C1015 1.415 . S
C1015 H985 0.950 . S
C1015 C1010 1.363 . S
C1015 C1014 1.415 . S
H1016 C1013 0.999 . S
H1017 C998 0.913 . S
H1018 C1036 0.951 . S
H1019 C1038 0.951 . S
H1020 C1040 0.950 . S
H1021 C1041 0.950 . S
H1022 C1043 0.950 . S
H1023 C1046 0.950 . S
H1024 C1047 0.950 . S
H1025 C1049 0.950 . S
H1026 C1050 0.950 . S
H1027 C1051 0.951 . S
H1028 C1053 0.951 . S
H1029 C1055 0.950 . S
H1030 C1056 0.950 . S
H1031 C1058 0.950 . S
H1032 C1061 0.950 . S
H1033 C1062 0.950 . S
H1034 C1064 0.950 . S
H1035 C1065 0.950 . S
C1036 H1018 0.951 . S
C1036 C1037 1.366 . S
C1036 C1038 1.388 . S
C1037 C1036 1.366 . S
C1037 C1041 1.385 . S
C1038 H1019 0.951 . S
C1038 C1036 1.388 . S
C1038 C1039 1.366 . S
C1039 C1038 1.366 . S
C1039 C1040 1.414 . S
C1039 C1042 1.499 . S
C1040 H1020 0.950 . S
C1040 C1039 1.414 . S
C1040 C1041 1.374 . S
C1041 H1021 0.950 . S
C1041 C1037 1.385 . S
C1041 C1040 1.374 . S
C1042 C1039 1.499 . S
C1042 C1043 1.373 . S
C1042 C1044 1.389 . S
C1043 H1022 0.950 . S
C1043 C1042 1.373 . S
C1043 C1059 1.377 . S
C1044 C1042 1.389 . S
C1044 C1045 1.524 . S
C1044 C1058 1.377 . S
C1045 C1044 1.524 . S
C1045 C1046 1.397 . S
C1045 C1050 1.363 . S
C1046 H1023 0.950 . S
C1046 C1045 1.397 . S
C1046 C1047 1.334 . S
C1047 H1024 0.950 . S
C1047 C1046 1.334 . S
C1047 C1048 1.287 . S
C1048 C1047 1.287 . S
C1048 C1049 1.524 . S
C1048 H1067 0.913 . S
C1049 H1025 0.950 . S
C1049 C1048 1.524 . S
C1049 C1050 1.415 . S
C1050 H1026 0.950 . S
C1050 C1045 1.363 . S
C1050 C1049 1.415 . S
C1051 H1027 0.951 . S
C1051 C1052 1.366 . S
C1051 C1053 1.388 . S
C1052 C1051 1.366 . S
C1052 C1056 1.385 . S
C1053 H1028 0.951 . S
C1053 C1051 1.388 . S
C1053 C1054 1.366 . S
C1054 C1053 1.366 . S
C1054 C1055 1.414 . S
C1054 C1057 1.499 . S
C1055 H1029 0.950 . S
C1055 C1054 1.414 . S
C1055 C1056 1.374 . S
C1056 H1030 0.950 . S
C1056 C1052 1.385 . S
C1056 C1055 1.374 . S
C1057 C1054 1.499 . S
C1057 C1058 1.373 . S
C1057 C1059 1.389 . S
C1058 H1031 0.950 . S
C1058 C1044 1.377 . S
C1058 C1057 1.373 . S
C1059 C1043 1.377 . S
C1059 C1057 1.389 . S
C1059 C1060 1.524 . S
C1060 C1059 1.524 . S
C1060 C1061 1.397 . S
C1060 C1065 1.363 . S
C1061 H1032 0.950 . S
C1061 C1060 1.397 . S
C1061 C1062 1.334 . S
C1062 H1033 0.950 . S
C1062 C1061 1.334 . S
C1062 C1063 1.287 . S
C1063 C1062 1.287 . S
C1063 C1064 1.524 . S
C1063 H1066 0.999 1_545 S
C1064 H1034 0.950 . S
C1064 C1063 1.524 . S
C1064 C1065 1.415 . S
C1065 H1035 0.950 . S
C1065 C1060 1.363 . S
C1065 C1064 1.415 . S
H1066 C1063 0.999 1_565 S
H1067 C1048 0.913 . S
H1068 C1086 0.951 . S
H1069 C1088 0.951 . S
H1070 C1090 0.950 . S
H1071 C1091 0.950 . S
H1072 C1093 0.950 . S
H1073 C1096 0.950 . S
H1074 C1097 0.950 . S
H1075 C1099 0.950 . S
H1076 C1100 0.950 . S
H1077 C1101 0.951 . S
H1078 C1103 0.951 . S
H1079 C1105 0.950 . S
H1080 C1106 0.950 . S
H1081 C1108 0.950 . S
H1082 C1111 0.950 . S
H1083 C1112 0.950 . S
H1084 C1114 0.950 . S
H1085 C1115 0.950 . S
C1086 H1068 0.951 . S
C1086 C1087 1.366 . S
C1086 C1088 1.388 . S
C1087 C1086 1.366 . S
C1087 C1091 1.385 . S
C1088 H1069 0.951 . S
C1088 C1086 1.388 . S
C1088 C1089 1.366 . S
C1089 C1088 1.366 . S
C1089 C1090 1.414 . S
C1089 C1092 1.499 . S
C1090 H1070 0.950 . S
C1090 C1089 1.414 . S
C1090 C1091 1.374 . S
C1091 H1071 0.950 . S
C1091 C1087 1.385 . S
C1091 C1090 1.374 . S
C1092 C1089 1.499 . S
C1092 C1093 1.373 . S
C1092 C1094 1.389 . S
C1093 H1072 0.950 . S
C1093 C1092 1.373 . S
C1093 C1109 1.377 . S
C1094 C1092 1.389 . S
C1094 C1095 1.524 . S
C1094 C1108 1.377 . S
C1095 C1094 1.524 . S
C1095 C1096 1.397 . S
C1095 C1100 1.363 . S
C1096 H1073 0.950 . S
C1096 C1095 1.397 . S
C1096 C1097 1.334 . S
C1097 H1074 0.950 . S
C1097 C1096 1.334 . S
C1097 C1098 1.287 . S
C1098 C1097 1.287 . S
C1098 C1099 1.524 . S
C1098 H1117 0.913 . S
C1099 H1075 0.950 . S
C1099 C1098 1.524 . S
C1099 C1100 1.415 . S
C1100 H1076 0.950 . S
C1100 C1095 1.363 . S
C1100 C1099 1.415 . S
C1101 H1077 0.951 . S
C1101 C1102 1.366 . S
C1101 C1103 1.388 . S
C1102 C1101 1.366 . S
C1102 C1106 1.385 . S
C1103 H1078 0.951 . S
C1103 C1101 1.388 . S
C1103 C1104 1.366 . S
C1104 C1103 1.366 . S
C1104 C1105 1.414 . S
C1104 C1107 1.499 . S
C1105 H1079 0.950 . S
C1105 C1104 1.414 . S
C1105 C1106 1.374 . S
C1106 H1080 0.950 . S
C1106 C1102 1.385 . S
C1106 C1105 1.374 . S
C1107 C1104 1.499 . S
C1107 C1108 1.373 . S
C1107 C1109 1.389 . S
C1108 H1081 0.950 . S
C1108 C1094 1.377 . S
C1108 C1107 1.373 . S
C1109 C1093 1.377 . S
C1109 C1107 1.389 . S
C1109 C1110 1.524 . S
C1110 C1109 1.524 . S
C1110 C1111 1.397 . S
C1110 C1115 1.363 . S
C1111 H1082 0.950 . S
C1111 C1110 1.397 . S
C1111 C1112 1.334 . S
C1112 H1083 0.950 . S
C1112 C1111 1.334 . S
C1112 C1113 1.287 . S
C1113 C1112 1.287 . S
C1113 C1114 1.524 . S
C1113 H1116 0.999 . S
C1114 H1084 0.950 . S
C1114 C1113 1.524 . S
C1114 C1115 1.415 . S
C1115 H1085 0.950 . S
C1115 C1110 1.363 . S
C1115 C1114 1.415 . S
H1116 C1113 0.999 . S
H1117 C1098 0.913 . S
H1118 C1136 0.951 . S
H1119 C1138 0.951 . S
H1120 C1140 0.950 . S
H1121 C1141 0.950 . S
H1122 C1143 0.950 . S
H1123 C1146 0.950 . S
H1124 C1147 0.950 . S
H1125 C1149 0.950 . S
H1126 C1150 0.950 . S
H1127 C1151 0.951 . S
H1128 C1153 0.951 . S
H1129 C1155 0.950 . S
H1130 C1156 0.950 . S
H1131 C1158 0.950 . S
H1132 C1161 0.950 . S
H1133 C1162 0.950 . S
H1134 C1164 0.950 . S
H1135 C1165 0.950 . S
C1136 H1118 0.951 . S
C1136 C1137 1.366 . S
C1136 C1138 1.388 . S
C1137 C1136 1.366 . S
C1137 C1141 1.385 . S
C1138 H1119 0.951 . S
C1138 C1136 1.388 . S
C1138 C1139 1.366 . S
C1139 C1138 1.366 . S
C1139 C1140 1.414 . S
C1139 C1142 1.499 . S
C1140 H1120 0.950 . S
C1140 C1139 1.414 . S
C1140 C1141 1.374 . S
C1141 H1121 0.950 . S
C1141 C1137 1.385 . S
C1141 C1140 1.374 . S
C1142 C1139 1.499 . S
C1142 C1143 1.373 . S
C1142 C1144 1.389 . S
C1143 H1122 0.950 . S
C1143 C1142 1.373 . S
C1143 C1159 1.377 . S
C1144 C1142 1.389 . S
C1144 C1145 1.524 . S
C1144 C1158 1.377 . S
C1145 C1144 1.524 . S
C1145 C1146 1.397 . S
C1145 C1150 1.363 . S
C1146 H1123 0.950 . S
C1146 C1145 1.397 . S
C1146 C1147 1.334 . S
C1147 H1124 0.950 . S
C1147 C1146 1.334 . S
C1147 C1148 1.287 . S
C1148 C1147 1.287 . S
C1148 C1149 1.524 . S
C1148 H1167 0.913 . S
C1149 H1125 0.950 . S
C1149 C1148 1.524 . S
C1149 C1150 1.415 . S
C1150 H1126 0.950 . S
C1150 C1145 1.363 . S
C1150 C1149 1.415 . S
C1151 H1127 0.951 . S
C1151 C1152 1.366 . S
C1151 C1153 1.388 . S
C1152 C1151 1.366 . S
C1152 C1156 1.385 . S
C1153 H1128 0.951 . S
C1153 C1151 1.388 . S
C1153 C1154 1.366 . S
C1154 C1153 1.366 . S
C1154 C1155 1.414 . S
C1154 C1157 1.499 . S
C1155 H1129 0.950 . S
C1155 C1154 1.414 . S
C1155 C1156 1.374 . S
C1156 H1130 0.950 . S
C1156 C1152 1.385 . S
C1156 C1155 1.374 . S
C1157 C1154 1.499 . S
C1157 C1158 1.373 . S
C1157 C1159 1.389 . S
C1158 H1131 0.950 . S
C1158 C1144 1.377 . S
C1158 C1157 1.373 . S
C1159 C1143 1.377 . S
C1159 C1157 1.389 . S
C1159 C1160 1.524 . S
C1160 C1159 1.524 . S
C1160 C1161 1.397 . S
C1160 C1165 1.363 . S
C1161 H1132 0.950 . S
C1161 C1160 1.397 . S
C1161 C1162 1.334 . S
C1162 H1133 0.950 . S
C1162 C1161 1.334 . S
C1162 C1163 1.287 . S
C1163 C1162 1.287 . S
C1163 C1164 1.524 . S
C1163 H1166 0.999 . S
C1164 H1134 0.950 . S
C1164 C1163 1.524 . S
C1164 C1165 1.415 . S
C1165 H1135 0.950 . S
C1165 C1160 1.363 . S
C1165 C1164 1.415 . S
H1166 C1163 0.999 . S
H1167 C1148 0.913 . S
H1168 C1186 0.951 . S
H1169 C1188 0.951 . S
H1170 C1190 0.950 . S
H1171 C1191 0.950 . S
H1172 C1193 0.950 . S
H1173 C1196 0.950 . S
H1174 C1197 0.950 . S
H1175 C1199 0.950 . S
H1176 C1200 0.950 . S
H1177 C1201 0.951 . S
H1178 C1203 0.951 . S
H1179 C1205 0.950 . S
H1180 C1206 0.950 . S
H1181 C1208 0.950 . S
H1182 C1211 0.950 . S
H1183 C1212 0.950 . S
H1184 C1214 0.950 . S
H1185 C1215 0.950 . S
C1186 H1168 0.951 . S
C1186 C1187 1.366 . S
C1186 C1188 1.388 . S
C1187 C1186 1.366 . S
C1187 C1191 1.385 . S
C1188 H1169 0.951 . S
C1188 C1186 1.388 . S
C1188 C1189 1.366 . S
C1189 C1188 1.366 . S
C1189 C1190 1.414 . S
C1189 C1192 1.499 . S
C1190 H1170 0.950 . S
C1190 C1189 1.414 . S
C1190 C1191 1.374 . S
C1191 H1171 0.950 . S
C1191 C1187 1.385 . S
C1191 C1190 1.374 . S
C1192 C1189 1.499 . S
C1192 C1193 1.373 . S
C1192 C1194 1.389 . S
C1193 H1172 0.950 . S
C1193 C1192 1.373 . S
C1193 C1209 1.377 . S
C1194 C1192 1.389 . S
C1194 C1195 1.524 . S
C1194 C1208 1.377 . S
C1195 C1194 1.524 . S
C1195 C1196 1.397 . S
C1195 C1200 1.363 . S
C1196 H1173 0.950 . S
C1196 C1195 1.397 . S
C1196 C1197 1.334 . S
C1197 H1174 0.950 . S
C1197 C1196 1.334 . S
C1197 C1198 1.287 . S
C1198 C1197 1.287 . S
C1198 C1199 1.524 . S
C1198 H1217 0.913 . S
C1199 H1175 0.950 . S
C1199 C1198 1.524 . S
C1199 C1200 1.415 . S
C1200 H1176 0.950 . S
C1200 C1195 1.363 . S
C1200 C1199 1.415 . S
C1201 H1177 0.951 . S
C1201 C1202 1.366 . S
C1201 C1203 1.388 . S
C1202 C1201 1.366 . S
C1202 C1206 1.385 . S
C1203 H1178 0.951 . S
C1203 C1201 1.388 . S
C1203 C1204 1.366 . S
C1204 C1203 1.366 . S
C1204 C1205 1.414 . S
C1204 C1207 1.499 . S
C1205 H1179 0.950 . S
C1205 C1204 1.414 . S
C1205 C1206 1.374 . S
C1206 H1180 0.950 . S
C1206 C1202 1.385 . S
C1206 C1205 1.374 . S
C1207 C1204 1.499 . S
C1207 C1208 1.373 . S
C1207 C1209 1.389 . S
C1208 H1181 0.950 . S
C1208 C1194 1.377 . S
C1208 C1207 1.373 . S
C1209 C1193 1.377 . S
C1209 C1207 1.389 . S
C1209 C1210 1.524 . S
C1210 C1209 1.524 . S
C1210 C1211 1.397 . S
C1210 C1215 1.363 . S
C1211 H1182 0.950 . S
C1211 C1210 1.397 . S
C1211 C1212 1.334 . S
C1212 H1183 0.950 . S
C1212 C1211 1.334 . S
C1212 C1213 1.287 . S
C1213 C1212 1.287 . S
C1213 C1214 1.524 . S
C1213 H1216 0.999 . S
C1214 H1184 0.950 . S
C1214 C1213 1.524 . S
C1214 C1215 1.415 . S
C1215 H1185 0.950 . S
C1215 C1210 1.363 . S
C1215 C1214 1.415 . S
H1216 C1213 0.999 . S
H1217 C1198 0.913 . S
H1218 C1236 0.951 . S
H1219 C1238 0.951 . S
H1220 C1240 0.950 . S
H1221 C1241 0.950 . S
H1222 C1243 0.950 . S
H1223 C1246 0.950 . S
H1224 C1247 0.950 . S
H1225 C1249 0.950 . S
H1226 C1250 0.950 . S
H1227 C1251 0.951 . S
H1228 C1253 0.951 . S
H1229 C1255 0.950 . S
H1230 C1256 0.950 . S
H1231 C1258 0.950 . S
H1232 C1261 0.950 . S
H1233 C1262 0.950 . S
H1234 C1264 0.950 . S
H1235 C1265 0.950 . S
C1236 H1218 0.951 . S
C1236 C1237 1.366 . S
C1236 C1238 1.388 . S
C1237 C1236 1.366 . S
C1237 C1241 1.385 . S
C1238 H1219 0.951 . S
C1238 C1236 1.388 . S
C1238 C1239 1.366 . S
C1239 C1238 1.366 . S
C1239 C1240 1.414 . S
C1239 C1242 1.499 . S
C1240 H1220 0.950 . S
C1240 C1239 1.414 . S
C1240 C1241 1.374 . S
C1241 H1221 0.950 . S
C1241 C1237 1.385 . S
C1241 C1240 1.374 . S
C1242 C1239 1.499 . S
C1242 C1243 1.373 . S
C1242 C1244 1.389 . S
C1243 H1222 0.950 . S
C1243 C1242 1.373 . S
C1243 C1259 1.377 . S
C1244 C1242 1.389 . S
C1244 C1245 1.524 . S
C1244 C1258 1.377 . S
C1245 C1244 1.524 . S
C1245 C1246 1.397 . S
C1245 C1250 1.363 . S
C1246 H1223 0.950 . S
C1246 C1245 1.397 . S
C1246 C1247 1.334 . S
C1247 H1224 0.950 . S
C1247 C1246 1.334 . S
C1247 C1248 1.287 . S
C1248 C1247 1.287 . S
C1248 C1249 1.524 . S
C1248 H1267 0.913 . S
C1249 H1225 0.950 . S
C1249 C1248 1.524 . S
C1249 C1250 1.415 . S
C1250 H1226 0.950 . S
C1250 C1245 1.363 . S
C1250 C1249 1.415 . S
C1251 H1227 0.951 . S
C1251 C1252 1.366 . S
C1251 C1253 1.388 . S
C1252 C1251 1.366 . S
C1252 C1256 1.385 . S
C1253 H1228 0.951 . S
C1253 C1251 1.388 . S
C1253 C1254 1.366 . S
C1254 C1253 1.366 . S
C1254 C1255 1.414 . S
C1254 C1257 1.499 . S
C1255 H1229 0.950 . S
C1255 C1254 1.414 . S
C1255 C1256 1.374 . S
C1256 H1230 0.950 . S
C1256 C1252 1.385 . S
C1256 C1255 1.374 . S
C1257 C1254 1.499 . S
C1257 C1258 1.373 . S
C1257 C1259 1.389 . S
C1258 H1231 0.950 . S
C1258 C1244 1.377 . S
C1258 C1257 1.373 . S
C1259 C1243 1.377 . S
C1259 C1257 1.389 . S
C1259 C1260 1.524 . S
C1260 C1259 1.524 . S
C1260 C1261 1.397 . S
C1260 C1265 1.363 . S
C1261 H1232 0.950 . S
C1261 C1260 1.397 . S
C1261 C1262 1.334 . S
C1262 H1233 0.950 . S
C1262 C1261 1.334 . S
C1262 C1263 1.287 . S
C1263 C1262 1.287 . S
C1263 C1264 1.524 . S
C1263 H1266 0.999 . S
C1264 H1234 0.950 . S
C1264 C1263 1.524 . S
C1264 C1265 1.415 . S
C1265 H1235 0.950 . S
C1265 C1260 1.363 . S
C1265 C1264 1.415 . S
H1266 C1263 0.999 . S
H1267 C1248 0.913 . S
H1268 C1286 0.951 . S
H1269 C1288 0.951 . S
H1270 C1290 0.950 . S
H1271 C1291 0.950 . S
H1272 C1293 0.950 . S
H1273 C1296 0.950 . S
H1274 C1297 0.950 . S
H1275 C1299 0.950 . S
H1276 C1300 0.950 . S
H1277 C1301 0.951 . S
H1278 C1303 0.951 . S
H1279 C1305 0.950 . S
H1280 C1306 0.950 . S
H1281 C1308 0.950 . S
H1282 C1311 0.950 . S
H1283 C1312 0.950 . S
H1284 C1314 0.950 . S
H1285 C1315 0.950 . S
C1286 H1268 0.951 . S
C1286 C1287 1.366 . S
C1286 C1288 1.388 . S
C1287 C1286 1.366 . S
C1287 C1291 1.385 . S
C1288 H1269 0.951 . S
C1288 C1286 1.388 . S
C1288 C1289 1.366 . S
C1289 C1288 1.366 . S
C1289 C1290 1.414 . S
C1289 C1292 1.499 . S
C1290 H1270 0.950 . S
C1290 C1289 1.414 . S
C1290 C1291 1.374 . S
C1291 H1271 0.950 . S
C1291 C1287 1.385 . S
C1291 C1290 1.374 . S
C1292 C1289 1.499 . S
C1292 C1293 1.373 . S
C1292 C1294 1.389 . S
C1293 H1272 0.950 . S
C1293 C1292 1.373 . S
C1293 C1309 1.377 . S
C1294 C1292 1.389 . S
C1294 C1295 1.524 . S
C1294 C1308 1.377 . S
C1295 C1294 1.524 . S
C1295 C1296 1.397 . S
C1295 C1300 1.363 . S
C1296 H1273 0.950 . S
C1296 C1295 1.397 . S
C1296 C1297 1.334 . S
C1297 H1274 0.950 . S
C1297 C1296 1.334 . S
C1297 C1298 1.287 . S
C1298 C1297 1.287 . S
C1298 C1299 1.524 . S
C1298 H1317 0.913 . S
C1299 H1275 0.950 . S
C1299 C1298 1.524 . S
C1299 C1300 1.415 . S
C1300 H1276 0.950 . S
C1300 C1295 1.363 . S
C1300 C1299 1.415 . S
C1301 H1277 0.951 . S
C1301 C1302 1.366 . S
C1301 C1303 1.388 . S
C1302 C1301 1.366 . S
C1302 C1306 1.385 . S
C1303 H1278 0.951 . S
C1303 C1301 1.388 . S
C1303 C1304 1.366 . S
C1304 C1303 1.366 . S
C1304 C1305 1.414 . S
C1304 C1307 1.499 . S
C1305 H1279 0.950 . S
C1305 C1304 1.414 . S
C1305 C1306 1.374 . S
C1306 H1280 0.950 . S
C1306 C1302 1.385 . S
C1306 C1305 1.374 . S
C1307 C1304 1.499 . S
C1307 C1308 1.373 . S
C1307 C1309 1.389 . S
C1308 H1281 0.950 . S
C1308 C1294 1.377 . S
C1308 C1307 1.373 . S
C1309 C1293 1.377 . S
C1309 C1307 1.389 . S
C1309 C1310 1.524 . S
C1310 C1309 1.524 . S
C1310 C1311 1.397 . S
C1310 C1315 1.363 . S
C1311 H1282 0.950 . S
C1311 C1310 1.397 . S
C1311 C1312 1.334 . S
C1312 H1283 0.950 . S
C1312 C1311 1.334 . S
C1312 C1313 1.287 . S
C1313 C1312 1.287 . S
C1313 C1314 1.524 . S
C1313 H1316 0.999 . S
C1314 H1284 0.950 . S
C1314 C1313 1.524 . S
C1314 C1315 1.415 . S
C1315 H1285 0.950 . S
C1315 C1310 1.363 . S
C1315 C1314 1.415 . S
H1316 C1313 0.999 . S
H1317 C1298 0.913 . S
H1318 C1336 0.951 . S
H1319 C1338 0.951 . S
H1320 C1340 0.950 . S
H1321 C1341 0.950 . S
H1322 C1343 0.950 . S
H1323 C1346 0.950 . S
H1324 C1347 0.950 . S
H1325 C1349 0.950 . S
H1326 C1350 0.950 . S
H1327 C1351 0.951 . S
H1328 C1353 0.951 . S
H1329 C1355 0.950 . S
H1330 C1356 0.950 . S
H1331 C1358 0.950 . S
H1332 C1361 0.950 . S
H1333 C1362 0.950 . S
H1334 C1364 0.950 . S
H1335 C1365 0.950 . S
C1336 H1318 0.951 . S
C1336 C1337 1.366 . S
C1336 C1338 1.388 . S
C1337 C1336 1.366 . S
C1337 C1341 1.385 . S
C1338 H1319 0.951 . S
C1338 C1336 1.388 . S
C1338 C1339 1.366 . S
C1339 C1338 1.366 . S
C1339 C1340 1.414 . S
C1339 C1342 1.499 . S
C1340 H1320 0.950 . S
C1340 C1339 1.414 . S
C1340 C1341 1.374 . S
C1341 H1321 0.950 . S
C1341 C1337 1.385 . S
C1341 C1340 1.374 . S
C1342 C1339 1.499 . S
C1342 C1343 1.373 . S
C1342 C1344 1.389 . S
C1343 H1322 0.950 . S
C1343 C1342 1.373 . S
C1343 C1359 1.377 . S
C1344 C1342 1.389 . S
C1344 C1345 1.524 . S
C1344 C1358 1.377 . S
C1345 C1344 1.524 . S
C1345 C1346 1.397 . S
C1345 C1350 1.363 . S
C1346 H1323 0.950 . S
C1346 C1345 1.397 . S
C1346 C1347 1.334 . S
C1347 H1324 0.950 . S
C1347 C1346 1.334 . S
C1347 C1348 1.287 . S
C1348 C1347 1.287 . S
C1348 C1349 1.524 . S
C1348 H1367 0.913 . S
C1349 H1325 0.950 . S
C1349 C1348 1.524 . S
C1349 C1350 1.415 . S
C1350 H1326 0.950 . S
C1350 C1345 1.363 . S
C1350 C1349 1.415 . S
C1351 H1327 0.951 . S
C1351 C1352 1.366 . S
C1351 C1353 1.388 . S
C1352 C1351 1.366 . S
C1352 C1356 1.385 . S
C1353 H1328 0.951 . S
C1353 C1351 1.388 . S
C1353 C1354 1.366 . S
C1354 C1353 1.366 . S
C1354 C1355 1.414 . S
C1354 C1357 1.499 . S
C1355 H1329 0.950 . S
C1355 C1354 1.414 . S
C1355 C1356 1.374 . S
C1356 H1330 0.950 . S
C1356 C1352 1.385 . S
C1356 C1355 1.374 . S
C1357 C1354 1.499 . S
C1357 C1358 1.373 . S
C1357 C1359 1.389 . S
C1358 H1331 0.950 . S
C1358 C1344 1.377 . S
C1358 C1357 1.373 . S
C1359 C1343 1.377 . S
C1359 C1357 1.389 . S
C1359 C1360 1.524 . S
C1360 C1359 1.524 . S
C1360 C1361 1.397 . S
C1360 C1365 1.363 . S
C1361 H1332 0.950 . S
C1361 C1360 1.397 . S
C1361 C1362 1.334 . S
C1362 H1333 0.950 . S
C1362 C1361 1.334 . S
C1362 C1363 1.287 . S
C1363 C1362 1.287 . S
C1363 C1364 1.524 . S
C1363 H1366 0.999 . S
C1364 H1334 0.950 . S
C1364 C1363 1.524 . S
C1364 C1365 1.415 . S
C1365 H1335 0.950 . S
C1365 C1360 1.363 . S
C1365 C1364 1.415 . S
H1366 C1363 0.999 . S
H1367 C1348 0.913 . S
C187 C123 1.353 . S
C202 C11 1.354 . S
C237 C25 1.353 . S
C252 C137 1.354 . S
C287 C39 1.354 . S
C302 C151 1.353 . S
C337 C53 1.354 . S
C352 C165 1.353 . S
C387 C95 1.353 . S
C402 C67 1.354 . S
C437 C81 1.353 . S
C452 C109 1.354 . S
C487 C9 1.505 . S
C502 C70 1.480 . S
C537 C23 1.504 . S
C552 C0 1.480 1_655 S
C587 C37 1.504 . S
C602 C14 1.480 1_565 S
C637 C28 1.479 . S
C652 C51 1.504 . S
C687 C42 1.481 1_455 S
C702 C65 1.505 . S
C737 C56 1.480 1_545 S
C752 C79 1.505 . S
C787 C98 1.480 . S
C802 C93 1.504 . S
C837 C107 1.505 . S
C852 C112 1.480 1_655 S
C887 C126 1.480 1_565 S
C902 C121 1.504 . S
C937 C135 1.505 . S
C952 C140 1.480 . S
C987 C149 1.504 . S
C1002 C154 1.480 1_455 S
C1037 C163 1.504 . S
C1052 C84 1.480 1_545 S
C1087 C145 1.224 . S
C1102 C5 1.224 . S
C1137 C159 1.224 . S
C1152 C19 1.224 . S
C1187 C89 1.224 . S
C1202 C33 1.224 . S
C1237 C47 1.224 . S
C1252 C103 1.224 . S
C1287 C61 1.224 . S
C1302 C117 1.209 1_556 S
C1337 C131 1.224 . S
C1352 C75 1.209 1_554 S
