# Generated by pormake.
# Topology sxg, (6)-cn, num edge types: 1
# Building blocks:
#     Node 0, Type 0, BuildingBlock: IZENUY_clean_sbu_0, # of connection points: 6
#     Node 1, Type 0, BuildingBlock: IZENUY_clean_sbu_0, # of connection points: 6
#     Node 2, Type 0, BuildingBlock: IZENUY_clean_sbu_0, # of connection points: 6
#     Node 3, Type 0, BuildingBlock: IZENUY_clean_sbu_0, # of connection points: 6
#     Node 4, Type 0, BuildingBlock: IZENUY_clean_sbu_0, # of connection points: 6
#     Node 5, Type 0, BuildingBlock: IZENUY_clean_sbu_0, # of connection points: 6
#     Node 6, Type 0, BuildingBlock: IZENUY_clean_sbu_0, # of connection points: 6
#     Node 7, Type 0, BuildingBlock: IZENUY_clean_sbu_0, # of connection points: 6
#     Node 8, Type 0, BuildingBlock: IZENUY_clean_sbu_0, # of connection points: 6
#     Node 9, Type 0, BuildingBlock: IZENUY_clean_sbu_0, # of connection points: 6
#     Node 10, Type 0, BuildingBlock: IZENUY_clean_sbu_0, # of connection points: 6
#     Node 11, Type 0, BuildingBlock: IZENUY_clean_sbu_0, # of connection points: 6
#     Node 12, Type 0, BuildingBlock: IZENUY_clean_sbu_0, # of connection points: 6
#     Node 13, Type 0, BuildingBlock: IZENUY_clean_sbu_0, # of connection points: 6
#     Node 14, Type 0, BuildingBlock: IZENUY_clean_sbu_0, # of connection points: 6
#     Node 15, Type 0, BuildingBlock: IZENUY_clean_sbu_0, # of connection points: 6
#     Node 16, Type 0, BuildingBlock: IZENUY_clean_sbu_0, # of connection points: 6
#     Node 17, Type 0, BuildingBlock: IZENUY_clean_sbu_0, # of connection points: 6
#     Node 18, Type 0, BuildingBlock: IZENUY_clean_sbu_0, # of connection points: 6
#     Node 19, Type 0, BuildingBlock: IZENUY_clean_sbu_0, # of connection points: 6
#     Node 20, Type 0, BuildingBlock: IZENUY_clean_sbu_0, # of connection points: 6
#     Node 21, Type 0, BuildingBlock: IZENUY_clean_sbu_0, # of connection points: 6
#     Node 22, Type 0, BuildingBlock: IZENUY_clean_sbu_0, # of connection points: 6
#     Node 23, Type 0, BuildingBlock: IZENUY_clean_sbu_0, # of connection points: 6
#     Edge 24, Type (0, 0), None
#     Edge 25, Type (0, 0), None
#     Edge 26, Type (0, 0), None
#     Edge 27, Type (0, 0), None
#     Edge 28, Type (0, 0), None
#     Edge 29, Type (0, 0), None
#     Edge 30, Type (0, 0), None
#     Edge 31, Type (0, 0), None
#     Edge 32, Type (0, 0), None
#     Edge 33, Type (0, 0), None
#     Edge 34, Type (0, 0), None
#     Edge 35, Type (0, 0), None
#     Edge 36, Type (0, 0), None
#     Edge 37, Type (0, 0), None
#     Edge 38, Type (0, 0), None
#     Edge 39, Type (0, 0), None
#     Edge 40, Type (0, 0), None
#     Edge 41, Type (0, 0), None
#     Edge 42, Type (0, 0), None
#     Edge 43, Type (0, 0), None
#     Edge 44, Type (0, 0), None
#     Edge 45, Type (0, 0), None
#     Edge 46, Type (0, 0), None
#     Edge 47, Type (0, 0), None
#     Edge 48, Type (0, 0), None
#     Edge 49, Type (0, 0), None
#     Edge 50, Type (0, 0), None
#     Edge 51, Type (0, 0), None
#     Edge 52, Type (0, 0), None
#     Edge 53, Type (0, 0), None
#     Edge 54, Type (0, 0), None
#     Edge 55, Type (0, 0), None
#     Edge 56, Type (0, 0), None
#     Edge 57, Type (0, 0), None
#     Edge 58, Type (0, 0), None
#     Edge 59, Type (0, 0), None
#     Edge 60, Type (0, 0), None
#     Edge 61, Type (0, 0), None
#     Edge 62, Type (0, 0), None
#     Edge 63, Type (0, 0), None
#     Edge 64, Type (0, 0), None
#     Edge 65, Type (0, 0), None
#     Edge 66, Type (0, 0), None
#     Edge 67, Type (0, 0), None
#     Edge 68, Type (0, 0), None
#     Edge 69, Type (0, 0), None
#     Edge 70, Type (0, 0), None
#     Edge 71, Type (0, 0), None
#     Edge 72, Type (0, 0), None
#     Edge 73, Type (0, 0), None
#     Edge 74, Type (0, 0), None
#     Edge 75, Type (0, 0), None
#     Edge 76, Type (0, 0), None
#     Edge 77, Type (0, 0), None
#     Edge 78, Type (0, 0), None
#     Edge 79, Type (0, 0), None
#     Edge 80, Type (0, 0), None
#     Edge 81, Type (0, 0), None
#     Edge 82, Type (0, 0), None
#     Edge 83, Type (0, 0), None
#     Edge 84, Type (0, 0), None
#     Edge 85, Type (0, 0), None
#     Edge 86, Type (0, 0), None
#     Edge 87, Type (0, 0), None
#     Edge 88, Type (0, 0), None
#     Edge 89, Type (0, 0), None
#     Edge 90, Type (0, 0), None
#     Edge 91, Type (0, 0), None
#     Edge 92, Type (0, 0), None
#     Edge 93, Type (0, 0), None
#     Edge 94, Type (0, 0), None
#     Edge 95, Type (0, 0), None
# Relax obj value: 0.225
# Max RMSD: 0.256
# Mean RMSD: 0.256
data_MOF--net-sxg--node1-IZENUY_clean_sbu_0--edge1-none
_symmetry_space_group_name_H-M    P1
_symmetry_Int_Tables_number       1
_symmetry_cell_setting            triclinic
loop_
_symmetry_equiv_pos_as_xyz
'x, y, z'
_cell_length_a     20.38603
_cell_length_b     20.386994
_cell_length_c     20.386404
_cell_angle_alpha  89.998976
_cell_angle_beta   90.00226
_cell_angle_gamma 90.000529
loop_
_atom_site_label
_atom_site_type_symbol
_atom_site_fract_x
_atom_site_fract_y
_atom_site_fract_z
_atom_type_partial_charge
Fe0 Fe 0.1429 0.45312 0.17455 0.0
Fe1 Fe 0.09749 0.41697 0.31469 0.0
O2 O 0.11637 0.39386 0.23331 0.0
Fe3 Fe 0.11481 0.30987 0.212 0.0
O4 O 0.0524 0.32229 0.15069 0.0
O5 O 0.10272 0.40765 0.10465 0.0
O6 O 0.06742 0.49765 0.18042 0.0
C7 C 1.04021 0.51679 0.23204 0.0
C8 C 0.22954 0.35634 0.15894 0.0
O9 O 0.05934 0.49648 0.28847 0.0
C10 C 0.16473 0.2948 0.32861 0.0
O11 O 0.18767 0.50457 0.23579 0.0
O12 O 0.17852 0.45022 0.32773 0.0
O13 O 0.18035 0.31906 0.1517 0.0
O14 O 0.22152 0.41596 0.16552 0.0
C15 C 1.01251 0.31922 0.31028 0.0
O16 O 0.1302 0.34052 0.35308 0.0
O17 O 0.17848 0.29565 0.26943 0.0
C18 C 0.21261 0.48485 0.28997 0.0
O19 O 1.0169 0.38092 0.30788 0.0
O20 O 0.04963 0.28518 0.27318 0.0
C21 C 0.06052 0.36049 0.10254 0.0
Fe22 Fe 0.4427 0.63242 0.67455 0.0
Fe23 Fe 0.48812 0.66857 0.81468 0.0
O24 O 0.46924 0.69167 0.73331 0.0
Fe25 Fe 0.4708 0.77566 0.712 0.0
O26 O 0.5332 0.76325 0.65068 0.0
O27 O 0.48288 0.67789 0.60464 0.0
O28 O 0.51818 0.58788 0.68042 0.0
C29 C 0.5454 0.56875 0.73203 0.0
C30 C 0.35606 0.72919 0.65894 0.0
O31 O 0.52628 0.58906 0.78847 0.0
C32 C 0.42088 0.79073 0.82861 0.0
O33 O 0.39794 0.58097 0.73578 0.0
O34 O 0.40711 0.63531 0.82773 0.0
O35 O 0.40524 0.76648 0.6517 0.0
O36 O 0.36409 0.66958 0.66551 0.0
C37 C 0.57311 0.76631 0.81027 0.0
O38 O 0.45543 0.74501 0.85308 0.0
O39 O 0.40713 0.78989 0.76942 0.0
C40 C 0.373 0.60069 0.78996 0.0
O41 O 0.56871 0.70462 0.80787 0.0
O42 O 0.53598 0.80036 0.77317 0.0
C43 C 0.52508 0.72505 0.60253 0.0
Fe44 Fe 0.59749 0.16856 0.76959 0.0
Fe45 Fe 0.61481 0.27566 0.87227 0.0
O46 O 0.61637 0.19167 0.85097 0.0
Fe47 Fe 0.6429 0.13242 0.90974 0.0
O48 O 0.56742 0.08788 0.90386 0.0
O49 O 0.55934 0.08905 0.79581 0.0
O50 O 0.5169 0.20461 0.7764 0.0
C51 C 0.5125 0.26631 0.77399 0.0
C52 C 0.71261 0.10068 0.79432 0.0
O53 O 0.54963 0.30035 0.8111 0.0
C54 C 0.72955 0.22919 0.92534 0.0
O55 O 0.63019 0.24501 0.7312 0.0
O56 O 0.67848 0.28989 0.81485 0.0
O57 O 0.68767 0.08096 0.8485 0.0
O58 O 0.67851 0.13531 0.75656 0.0
C59 C 0.56052 0.22504 0.98175 0.0
O60 O 0.68036 0.26647 0.93258 0.0
O61 O 0.72152 0.16958 0.91877 0.0
C62 C 0.66473 0.29073 0.75567 0.0
O63 O 0.55241 0.26324 0.93359 0.0
O64 O 0.60273 0.17789 0.97963 0.0
C65 C 0.54021 0.06874 0.85225 0.0
Fe66 Fe 0.98811 0.91697 0.26958 0.0
Fe67 Fe 0.97079 0.80987 0.37227 0.0
O68 O 0.96924 0.89386 0.35096 0.0
Fe69 Fe 0.94271 0.95312 0.40972 0.0
O70 O 1.01819 0.99765 0.40385 0.0
O71 O 1.02626 0.99648 0.2958 0.0
O72 O 0.0687 0.88092 0.27639 0.0
C73 C 0.07309 0.81922 0.27399 0.0
C74 C 0.87299 0.98485 0.29431 0.0
O75 O 1.03597 0.78518 0.31109 0.0
C76 C 0.85606 0.85634 0.42533 0.0
O77 O 0.9554 0.84052 0.23119 0.0
O78 O 0.90712 0.79565 0.31485 0.0
O79 O 0.89793 1.00457 0.34849 0.0
O80 O 0.90709 0.95022 0.25655 0.0
C81 C 1.02508 0.86049 0.48174 0.0
O82 O 0.90525 0.81906 0.43257 0.0
O83 O 0.86409 0.91596 0.41876 0.0
C84 C 0.92087 0.7948 0.25566 0.0
O85 O 1.0332 0.82229 0.43359 0.0
O86 O 0.98288 0.90765 0.47962 0.0
C87 C 0.04539 1.01679 0.35223 0.0
Fe88 Fe 0.21266 0.11476 0.30925 0.0
Fe89 Fe 0.1752 0.14284 0.4525 0.0
O90 O 0.23397 0.11631 0.39324 0.0
Fe91 Fe 0.31535 0.09745 0.41635 0.0
O92 O 0.30855 1.01686 0.38029 0.0
O93 O 0.27384 0.04959 0.28455 0.0
O94 O 0.15134 0.05235 0.32167 0.0
C95 C 0.10319 0.06047 0.35987 0.0
C96 C 0.32926 0.16469 0.29418 0.0
O97 O 0.1053 0.10266 0.40703 0.0
C98 C 0.29061 0.21255 0.48424 0.0
O99 O 0.15236 0.1803 0.31844 0.0
O100 O 0.16616 0.22145 0.41535 0.0
O101 O 0.35374 0.13015 0.3399 0.0
O102 O 0.27007 0.17843 0.29502 0.0
C103 C 0.2327 1.04015 0.51616 0.0
O104 O 0.23644 0.18761 0.50396 0.0
O105 O 0.32838 0.17846 0.44961 0.0
C106 C 0.1596 0.22948 0.35573 0.0
O107 O 0.18109 0.06736 0.49703 0.0
O108 O 0.28914 0.05928 0.49586 0.0
C109 C 0.31095 1.01247 0.31859 0.0
Fe110 Fe 0.27026 0.98808 0.91635 0.0
Fe111 Fe 0.37295 0.97078 0.80926 0.0
O112 O 0.35164 0.96922 0.89325 0.0
Fe113 Fe 0.4104 0.94269 0.95251 0.0
O114 O 0.40452 1.01816 0.99704 0.0
O115 O 0.29647 1.02624 0.99586 0.0
O116 O 0.27706 0.06867 0.8803 0.0
C117 C 0.27466 0.07307 0.8186 0.0
C118 C 0.29499 0.87297 0.98424 0.0
O119 O 0.31177 1.03595 0.78456 0.0
C120 C 0.42601 0.85605 0.85573 0.0
O121 O 0.23187 0.95538 0.8399 0.0
O122 O 0.31553 0.90711 0.79503 0.0
O123 O 0.34917 0.89791 1.00396 0.0
O124 O 0.25723 0.90707 0.94961 0.0
C125 C 0.48242 1.02506 0.85988 0.0
O126 O 0.43325 0.90524 0.81845 0.0
O127 O 0.41945 0.86407 0.91535 0.0
C128 C 0.25635 0.92085 0.79418 0.0
O129 O 0.43426 1.03318 0.82168 0.0
O130 O 0.4803 0.98286 0.90704 0.0
C131 C 0.35291 0.04538 1.01617 0.0
Fe132 Fe 0.81534 0.48809 0.66792 0.0
Fe133 Fe 0.71266 0.47077 0.77502 0.0
O134 O 0.73396 0.46922 0.69102 0.0
Fe135 Fe 0.6752 0.44269 0.63177 0.0
O136 O 0.68108 0.51817 0.58723 0.0
O137 O 0.78913 0.52625 0.58841 0.0
O138 O 0.80854 0.56867 0.70398 0.0
C139 C 0.81094 0.57307 0.76567 0.0
C140 C 0.79061 0.37298 0.60003 0.0
O141 O 0.77384 0.53594 0.79972 0.0
C142 C 0.65959 0.35605 0.72854 0.0
O143 O 0.85373 0.45538 0.74437 0.0
O144 O 0.77007 0.4071 0.78925 0.0
O145 O 0.73643 0.39792 0.58031 0.0
O146 O 0.82837 0.40707 0.63466 0.0
C147 C 0.60319 0.52506 0.7244 0.0
O148 O 0.65235 0.40523 0.76583 0.0
O149 O 0.66615 0.36408 0.66893 0.0
C150 C 0.82926 0.42085 0.79009 0.0
O151 O 0.65134 0.53318 0.7626 0.0
O152 O 0.6053 0.48287 0.67723 0.0
C153 C 0.73269 0.54538 0.56811 0.0
Fe154 Fe 0.87295 0.61475 0.27502 0.0
Fe155 Fe 0.9104 0.64284 0.13177 0.0
O156 O 0.85163 0.61631 0.19103 0.0
Fe157 Fe 0.77026 0.59744 0.16793 0.0
O158 O 0.77706 0.51686 0.20399 0.0
O159 O 0.81177 0.54958 0.29973 0.0
O160 O 0.93426 0.55235 0.2626 0.0
C161 C 0.98242 0.56047 0.2244 0.0
C162 C 0.75634 0.66468 0.2901 0.0
O163 O 0.9803 0.60267 0.17724 0.0
C164 C 0.79499 0.71255 0.10004 0.0
O165 O 0.93325 0.6803 0.26583 0.0
O166 O 0.91944 0.72145 0.16893 0.0
O167 O 0.73187 0.63015 0.24437 0.0
O168 O 0.81553 0.67842 0.28925 0.0
C169 C 0.8529 0.54015 0.06811 0.0
O170 O 0.84916 0.68761 0.08032 0.0
O171 O 0.75722 0.67846 0.13466 0.0
C172 C 0.926 0.72948 0.22854 0.0
O173 O 0.90452 0.56736 0.08724 0.0
O174 O 0.79647 0.55928 0.08842 0.0
C175 C 0.77466 0.51246 0.26568 0.0
Fe176 Fe 0.3099 0.21262 0.11414 0.0
Fe177 Fe 0.45316 0.17519 0.14223 0.0
O178 O 0.3939 0.23395 0.1157 0.0
Fe179 Fe 0.417 0.31532 0.09682 0.0
O180 O 0.38093 0.30851 1.01624 0.0
O181 O 0.28519 0.27381 0.04898 0.0
O182 O 0.32234 0.15132 0.05172 0.0
C183 C 0.36054 0.10317 0.05985 0.0
C184 C 0.29487 0.32922 0.16411 0.0
O185 O 0.4077 0.10529 0.10205 0.0
C186 C 0.48489 0.2906 0.21193 0.0
O187 O 0.3191 0.15232 0.17967 0.0
O188 O 0.416 0.16614 0.22084 0.0
O189 O 0.34055 0.3537 0.12953 0.0
O190 O 0.29565 0.27002 0.17782 0.0
C191 C 0.51684 0.23268 1.03954 0.0
O192 O 0.50461 0.23642 0.187 0.0
O193 O 0.45027 0.32836 0.17783 0.0
C194 C 0.35639 0.15956 0.22886 0.0
O195 O 0.4977 0.18107 0.06675 0.0
O196 O 0.49651 0.28911 0.05865 0.0
C197 C 0.31923 0.31092 1.01185 0.0
Fe198 Fe 0.95316 0.41035 0.94205 0.0
Fe199 Fe 0.917 0.27021 0.98745 0.0
O200 O 0.8939 0.35159 0.96857 0.0
Fe201 Fe 0.8099 0.37291 0.97013 0.0
O202 O 0.82234 0.4342 1.03255 0.0
O203 O 0.9077 0.48025 0.98223 0.0
O204 O 0.9977 0.40447 1.01753 0.0
C205 C 1.01684 0.35286 0.04474 0.0
C206 C 0.85639 0.42598 0.85541 0.0
O207 O 0.99651 0.29642 1.02562 0.0
C208 C 0.79487 0.25632 0.92015 0.0
O209 O 1.00462 0.34912 0.89728 0.0
O210 O 0.95028 0.25718 0.90644 0.0
O211 O 0.8191 0.43322 0.9046 0.0
O212 O 0.916 0.4194 0.86344 0.0
C213 C 0.81924 0.27461 0.07242 0.0
O214 O 0.84056 0.23183 0.95473 0.0
O215 O 0.79565 0.31551 0.90644 0.0
C216 C 0.9849 0.29494 0.87234 0.0
O217 O 0.88094 0.27702 0.06803 0.0
O218 O 0.7852 0.31171 1.03529 0.0
C219 C 0.86054 0.48236 1.02443 0.0
Fe220 Fe 0.63244 0.67519 0.44205 0.0
Fe221 Fe 0.6686 0.81532 0.48745 0.0
O222 O 0.6917 0.73395 0.46857 0.0
Fe223 Fe 0.7757 0.71263 0.47014 0.0
O224 O 0.76326 0.65133 0.53255 0.0
O225 O 0.6779 0.60529 0.48223 0.0
O226 O 0.5879 0.68107 0.51752 0.0
C227 C 0.56876 0.73268 0.54473 0.0
C228 C 0.72921 0.65956 0.35542 0.0
O229 O 0.58909 0.78912 0.52562 0.0
C230 C 0.79073 0.82922 0.42016 0.0
O231 O 0.58099 0.73642 0.39727 0.0
O232 O 0.63533 0.82837 0.40644 0.0
O233 O 0.7665 0.65232 0.4046 0.0
O234 O 0.6696 0.66615 0.36343 0.0
C235 C 0.76636 0.81092 0.57242 0.0
O236 O 0.74505 0.85371 0.45474 0.0
O237 O 0.78995 0.77003 0.40645 0.0
C238 C 0.60071 0.7906 0.37233 0.0
O239 O 0.70467 0.80852 0.56803 0.0
O240 O 0.80041 0.77382 0.5353 0.0
C241 C 0.72506 0.60318 0.52443 0.0
Fe242 Fe 0.1686 0.77021 0.59682 0.0
Fe243 Fe 0.2757 0.8729 0.61414 0.0
O244 O 0.19171 0.85158 0.6157 0.0
Fe245 Fe 0.13244 0.91034 0.64222 0.0
O246 O 0.08791 0.90447 0.56674 0.0
O247 O 0.08909 0.79642 0.55865 0.0
O248 O 0.20467 0.77701 0.51624 0.0
C249 C 0.26637 0.77461 0.51186 0.0
C250 C 0.10071 0.79494 0.71193 0.0
O251 O 0.30041 0.81171 0.54899 0.0
C252 C 0.22922 0.92597 0.72886 0.0
O253 O 0.24505 0.73183 0.62954 0.0
O254 O 0.28995 0.81551 0.67783 0.0
O255 O 0.08099 0.84911 0.68699 0.0
O256 O 0.13533 0.75717 0.67784 0.0
C257 C 0.22507 0.98235 0.55984 0.0
O258 O 0.2665 0.93321 0.67968 0.0
O259 O 0.1696 0.91939 0.72084 0.0
C260 C 0.29073 0.75631 0.66412 0.0
O261 O 0.26327 0.9342 0.55173 0.0
O262 O 0.17791 0.98024 0.60204 0.0
C263 C 0.06877 0.85285 0.53953 0.0
Fe264 Fe 0.94271 0.63242 0.90972 0.0
Fe265 Fe 0.98811 0.66857 0.76957 0.0
O266 O 0.96924 0.69167 0.85095 0.0
Fe267 Fe 0.97079 0.77566 0.87226 0.0
O268 O 1.0332 0.76325 0.93358 0.0
O269 O 0.98289 0.67789 0.97962 0.0
O270 O 1.0182 0.58789 0.90384 0.0
C271 C 0.0454 0.56875 0.85222 0.0
C272 C 0.85606 0.72918 0.92533 0.0
O273 O 1.02627 0.58905 0.79579 0.0
C274 C 0.92087 0.79073 0.75566 0.0
O275 O 0.89794 0.58096 0.84848 0.0
O276 O 0.90709 0.63531 0.75654 0.0
O277 O 0.90525 0.76647 0.93256 0.0
O278 O 0.86409 0.66957 0.91875 0.0
C279 C 0.0731 0.76631 0.774 0.0
O280 O 0.95541 0.74502 0.73118 0.0
O281 O 0.90712 0.78988 0.81484 0.0
C282 C 0.87301 0.60068 0.7943 0.0
O283 O 0.06871 0.70461 0.77637 0.0
O284 O 1.03597 0.80036 0.81109 0.0
C285 C 1.02509 0.72505 0.98173 0.0
Fe286 Fe 0.61481 0.30987 0.37227 0.0
Fe287 Fe 0.64289 0.45311 0.40973 0.0
O288 O 0.61636 0.39386 0.35096 0.0
Fe289 Fe 0.59748 0.41697 0.26958 0.0
O290 O 0.51689 0.38092 0.27638 0.0
O291 O 0.54963 0.28517 0.31109 0.0
O292 O 0.55241 0.32228 0.43359 0.0
C293 C 0.56052 0.36048 0.48174 0.0
C294 C 0.66472 0.2948 0.25566 0.0
O295 O 0.60272 0.40764 0.47962 0.0
C296 C 0.71259 0.48485 0.29431 0.0
O297 O 0.68036 0.31906 0.43257 0.0
O298 O 0.72151 0.41596 0.41876 0.0
O299 O 0.63018 0.34052 0.23119 0.0
O300 O 0.67847 0.29565 0.31484 0.0
C301 C 0.5402 0.51678 0.35223 0.0
O302 O 0.68766 0.50457 0.34849 0.0
O303 O 0.6785 0.45022 0.25655 0.0
C304 C 0.72954 0.35635 0.42533 0.0
O305 O 0.56741 0.49764 0.40385 0.0
O306 O 0.55933 0.49648 0.2958 0.0
C307 C 0.5125 0.31923 0.27401 0.0
Fe308 Fe 0.48812 0.91697 0.31469 0.0
Fe309 Fe 0.47079 0.80987 0.21201 0.0
O310 O 0.46924 0.89386 0.23331 0.0
Fe311 Fe 0.44271 0.95311 0.17454 0.0
O312 O 0.51819 0.99764 0.18042 0.0
O313 O 0.52627 0.99648 0.28847 0.0
O314 O 0.56871 0.88092 0.30789 0.0
C315 C 0.5731 0.81923 0.31026 0.0
C316 C 0.37301 0.98485 0.28996 0.0
O317 O 0.53597 0.78517 0.27318 0.0
C318 C 0.35606 0.85634 0.15894 0.0
O319 O 0.45542 0.84052 0.35308 0.0
O320 O 0.40712 0.79565 0.26943 0.0
O321 O 0.39794 1.00457 0.23578 0.0
O322 O 0.4071 0.95022 0.32773 0.0
C323 C 0.52508 0.86048 0.10253 0.0
O324 O 0.40524 0.81906 0.15171 0.0
O325 O 0.36409 0.91596 0.16551 0.0
C326 C 0.42088 0.7948 0.32861 0.0
O327 O 0.53319 0.82228 0.15069 0.0
O328 O 0.48289 0.90764 0.10465 0.0
C329 C 0.5454 1.01679 0.23204 0.0
Fe330 Fe 0.14289 0.13242 0.67456 0.0
Fe331 Fe 0.09749 0.16857 0.8147 0.0
O332 O 0.11636 0.19168 0.73332 0.0
Fe333 Fe 0.11481 0.27567 0.71201 0.0
O334 O 0.05241 0.26326 0.65069 0.0
O335 O 0.10271 0.17789 0.60466 0.0
O336 O 0.0674 0.08789 0.68044 0.0
C337 C 1.0402 0.06875 0.73205 0.0
C338 C 0.22954 0.22918 0.65894 0.0
O339 O 0.05934 0.08906 0.78849 0.0
C340 C 0.16474 0.29074 0.82861 0.0
O341 O 0.18766 0.08096 0.73579 0.0
O342 O 0.17852 0.13532 0.82773 0.0
O343 O 0.18036 0.26647 0.65171 0.0
O344 O 0.22151 0.16957 0.66552 0.0
C345 C 1.01251 0.26631 0.81027 0.0
O346 O 0.1302 0.24502 0.85309 0.0
O347 O 0.17849 0.28988 0.76943 0.0
C348 C 0.21259 0.10068 0.78997 0.0
O349 O 1.0169 0.20462 0.8079 0.0
O350 O 0.04964 0.30037 0.77318 0.0
C351 C 0.06051 0.22505 0.60254 0.0
Fe352 Fe 0.91039 0.94271 0.63178 0.0
Fe353 Fe 0.77024 0.98809 0.66793 0.0
O354 O 0.85163 0.96923 0.69104 0.0
Fe355 Fe 0.87294 0.97077 0.77503 0.0
O356 O 0.93426 1.03318 0.76262 0.0
O357 O 0.98029 0.98288 0.67725 0.0
O358 O 0.90451 1.01819 0.58725 0.0
C359 C 0.85289 0.04539 0.56812 0.0
C360 C 0.926 0.85606 0.72854 0.0
O361 O 0.79645 1.02625 0.58842 0.0
C362 C 0.75633 0.92085 0.7901 0.0
O363 O 0.84916 0.89793 0.58032 0.0
O364 O 0.75722 0.90707 0.63467 0.0
O365 O 0.93324 0.90523 0.76584 0.0
O366 O 0.91944 0.86409 0.66893 0.0
C367 C 0.77467 0.07307 0.76568 0.0
O368 O 0.73186 0.95539 0.74438 0.0
O369 O 0.81552 0.9071 0.78925 0.0
C370 C 0.79498 0.873 0.60003 0.0
O371 O 0.77703 0.06868 0.70398 0.0
O372 O 0.81176 1.03594 0.79974 0.0
C373 C 0.98241 1.02507 0.72442 0.0
Fe374 Fe 0.6752 0.14284 0.13177 0.0
Fe375 Fe 0.81535 0.09744 0.16793 0.0
O376 O 0.73397 0.11631 0.19103 0.0
Fe377 Fe 0.71266 0.11476 0.27502 0.0
O378 O 0.65135 0.05236 0.26261 0.0
O379 O 0.60531 0.10266 0.17724 0.0
O380 O 0.68109 0.06736 0.08724 0.0
C381 C 0.73271 1.04015 0.06811 0.0
C382 C 0.65959 0.22948 0.22854 0.0
O383 O 0.78914 0.05929 0.08841 0.0
C384 C 0.82927 0.16469 0.29009 0.0
O385 O 0.73643 0.18761 0.08031 0.0
O386 O 0.82838 0.17846 0.13467 0.0
O387 O 0.65236 0.1803 0.26583 0.0
O388 O 0.66616 0.22145 0.16892 0.0
C389 C 0.81093 1.01246 0.26567 0.0
O390 O 0.85374 0.13015 0.24438 0.0
O391 O 0.77008 0.17843 0.28924 0.0
C392 C 0.79062 0.21254 0.10003 0.0
O393 O 0.80856 1.01686 0.20397 0.0
O394 O 0.77384 0.04959 0.29973 0.0
C395 C 0.60319 0.06047 0.2244 0.0
Fe396 Fe 0.37294 0.61476 0.30925 0.0
Fe397 Fe 0.4104 0.64283 0.45251 0.0
O398 O 0.35163 0.61631 0.39325 0.0
Fe399 Fe 0.27025 0.59744 0.41635 0.0
O400 O 0.27704 0.51686 0.3803 0.0
O401 O 0.31176 0.54959 0.28455 0.0
O402 O 0.43426 0.55236 0.32167 0.0
C403 C 0.48241 0.56047 0.35987 0.0
C404 C 0.25633 0.66469 0.29418 0.0
O405 O 0.4803 0.60266 0.40704 0.0
C406 C 0.29499 0.71254 0.48425 0.0
O407 O 0.43324 0.6803 0.31845 0.0
O408 O 0.41945 0.72145 0.41535 0.0
O409 O 0.23186 0.63015 0.3399 0.0
O410 O 0.31552 0.67843 0.29503 0.0
C411 C 0.3529 0.54015 0.51617 0.0
O412 O 0.34917 0.68761 0.50396 0.0
O413 O 0.25722 0.67846 0.44961 0.0
C414 C 0.42601 0.72948 0.35574 0.0
O415 O 0.40452 0.56735 0.49704 0.0
O416 O 0.29646 0.55929 0.49586 0.0
C417 C 0.27467 0.51246 0.31861 0.0
Fe418 Fe 0.31536 0.48809 0.91637 0.0
Fe419 Fe 0.17521 0.4427 0.9525 0.0
O420 O 0.23398 0.46923 0.89324 0.0
Fe421 Fe 0.21268 0.47079 0.80925 0.0
O422 O 0.2701 0.40712 0.79502 0.0
O423 O 0.35375 0.45539 0.83992 0.0
O424 O 0.32838 0.40707 0.94962 0.0
C425 C 0.2906 0.37298 0.98423 0.0
C426 C 0.31095 0.57307 0.81862 0.0
O427 O 0.23644 0.39793 1.00396 0.0
C428 C 0.1032 0.52507 0.85986 0.0
O429 O 0.28914 0.52624 0.99588 0.0
O430 O 0.18109 0.51818 0.99703 0.0
O431 O 0.27386 0.53596 0.78455 0.0
O432 O 0.30857 0.56868 0.88032 0.0
C433 C 0.15961 0.35606 0.85573 0.0
O434 O 0.10531 0.48287 0.90702 0.0
O435 O 0.15136 0.53319 0.82166 0.0
C436 C 0.2327 0.54539 1.01616 0.0
O437 O 0.16616 0.36409 0.91534 0.0
O438 O 0.15238 0.40524 0.81843 0.0
C439 C 0.32929 0.42085 0.7942 0.0
Fe440 Fe 0.63244 0.91034 0.94206 0.0
Fe441 Fe 0.6686 0.7702 0.98746 0.0
O442 O 0.69171 0.85158 0.96858 0.0
Fe443 Fe 0.7757 0.8729 0.97014 0.0
O444 O 0.76327 0.9342 1.03255 0.0
O445 O 0.67791 0.98024 0.98223 0.0
O446 O 0.58791 0.90446 1.01753 0.0
C447 C 0.56877 0.85284 0.04474 0.0
C448 C 0.72921 0.92597 0.85542 0.0
O449 O 0.58909 0.79641 1.02562 0.0
C450 C 0.79073 0.75631 0.92017 0.0
O451 O 0.58099 0.84911 0.89728 0.0
O452 O 0.63534 0.75716 0.90644 0.0
O453 O 0.7665 0.93321 0.9046 0.0
O454 O 0.6696 0.91939 0.86344 0.0
C455 C 0.76636 0.77462 0.07243 0.0
O456 O 0.74505 0.73182 0.95475 0.0
O457 O 0.78995 0.8155 0.90646 0.0
C458 C 0.60071 0.79493 0.87235 0.0
O459 O 0.70466 0.777 0.06805 0.0
O460 O 0.80041 0.81171 1.0353 0.0
C461 C 0.72507 0.98235 1.02443 0.0
Fe462 Fe 0.13244 0.67519 0.14222 0.0
Fe463 Fe 0.1686 0.81533 0.09682 0.0
O464 O 0.1917 0.73395 0.1157 0.0
Fe465 Fe 0.2757 0.71263 0.11415 0.0
O466 O 0.26327 0.65133 0.05173 0.0
O467 O 0.17791 0.60529 0.10204 0.0
O468 O 0.08791 0.68107 0.06674 0.0
C469 C 0.06877 0.73269 1.03953 0.0
C470 C 0.22921 0.65956 0.22886 0.0
O471 O 0.08909 0.78912 0.05865 0.0
C472 C 0.29073 0.82923 0.16412 0.0
O473 O 0.08099 0.73642 0.18699 0.0
O474 O 0.13533 0.82837 0.17783 0.0
O475 O 0.2665 0.65232 0.17968 0.0
O476 O 0.1696 0.66614 0.22083 0.0
C477 C 0.26636 0.81091 1.01185 0.0
O478 O 0.24505 0.85371 0.12953 0.0
O479 O 0.28995 0.77003 0.17783 0.0
C480 C 0.1007 0.7906 0.21192 0.0
O481 O 0.20466 0.80853 1.01623 0.0
O482 O 0.30041 0.77382 0.04899 0.0
C483 C 0.22507 0.60318 0.05985 0.0
Fe484 Fe 0.3099 0.37289 0.61414 0.0
Fe485 Fe 0.45316 0.41033 0.64222 0.0
O486 O 0.3939 0.35157 0.61569 0.0
Fe487 Fe 0.417 0.2702 0.59682 0.0
O488 O 0.38094 0.277 0.51623 0.0
O489 O 0.28519 0.31171 0.54898 0.0
O490 O 0.32232 0.4342 0.55173 0.0
C491 C 0.36053 0.48235 0.55985 0.0
C492 C 0.29487 0.2563 0.66411 0.0
O493 O 0.40769 0.48023 0.60204 0.0
C494 C 0.4849 0.29492 0.71192 0.0
O495 O 0.3191 0.43319 0.67968 0.0
O496 O 0.41601 0.41938 0.72083 0.0
O497 O 0.34055 0.23181 0.62953 0.0
O498 O 0.29566 0.31549 0.67783 0.0
C499 C 0.51683 0.35284 0.53953 0.0
O500 O 0.50462 0.34911 0.68699 0.0
O501 O 0.45027 0.25716 0.67783 0.0
C502 C 0.3564 0.42595 0.72886 0.0
O503 O 0.49769 0.40446 0.56674 0.0
O504 O 0.49651 0.29641 0.55865 0.0
C505 C 0.31924 0.27462 0.51185 0.0
Fe506 Fe 0.917 0.31533 0.48745 0.0
Fe507 Fe 0.80989 0.21264 0.47013 0.0
O508 O 0.89389 0.23396 0.46858 0.0
Fe509 Fe 0.95316 0.17519 0.44206 0.0
O510 O 0.99769 0.18108 0.51754 0.0
O511 O 0.99651 0.28912 0.52562 0.0
O512 O 0.88094 0.30854 0.56804 0.0
C513 C 0.81924 0.31091 0.57242 0.0
C514 C 0.9849 0.2906 0.37236 0.0
O515 O 0.78518 0.27383 0.53529 0.0
C516 C 0.85639 0.15956 0.35542 0.0
O517 O 0.84055 0.35371 0.45474 0.0
O518 O 0.79565 0.27004 0.40644 0.0
O519 O 1.00461 0.23642 0.39729 0.0
O520 O 0.95027 0.32837 0.40644 0.0
C521 C 0.86052 0.10319 0.52443 0.0
O522 O 0.8191 0.15233 0.4046 0.0
O523 O 0.916 0.16615 0.36345 0.0
C524 C 0.79487 0.32923 0.42015 0.0
O525 O 0.82232 0.15134 0.53255 0.0
O526 O 0.90769 0.1053 0.48224 0.0
C527 C 1.01683 0.23269 0.54475 0.0
loop_
_geom_bond_atom_site_label_1
_geom_bond_atom_site_label_2
_geom_bond_distance
_geom_bond_site_symmetry_2
_ccdc_geom_bond_type
Fe0 O2 1.918 . S
Fe0 O5 1.997 1_455 S
Fe0 O6 2.002 . S
Fe0 O11 1.976 . S
Fe0 O14 1.996 . S
Fe1 O2 1.918 . S
Fe1 O9 1.997 1_455 S
Fe1 O12 1.996 . S
Fe1 O16 1.976 . S
Fe1 O19 2.002 1_455 S
O2 Fe0 1.918 . S
O2 Fe1 1.918 . S
O2 Fe3 1.918 . S
Fe3 O2 1.918 . S
Fe3 O4 2.002 1_455 S
Fe3 O13 1.976 . S
Fe3 O17 1.996 . S
Fe3 O20 1.997 1_455 S
O4 Fe3 2.002 1_655 S
O4 C21 1.295 . S
O5 Fe0 1.997 1_655 S
O5 C21 1.235 . S
O6 Fe0 2.002 . S
O6 C7 1.295 1_455 S
C7 O6 1.295 1_655 S
C7 O9 1.235 . S
C8 O13 1.287 . S
C8 O14 1.255 . S
O9 Fe1 1.997 1_655 S
O9 C7 1.235 . S
C10 O16 1.287 . S
C10 O17 1.255 . S
O11 Fe0 1.976 . S
O11 C18 1.287 . S
O12 Fe1 1.996 . S
O12 C18 1.255 . S
O13 Fe3 1.976 . S
O13 C8 1.287 . S
O14 Fe0 1.996 . S
O14 C8 1.255 . S
C15 O19 1.295 . S
C15 O20 1.235 . S
O16 Fe1 1.976 . S
O16 C10 1.287 . S
O17 Fe3 1.996 . S
O17 C10 1.255 . S
C18 O11 1.287 . S
C18 O12 1.255 . S
O19 Fe1 2.002 1_655 S
O19 C15 1.295 . S
O20 Fe3 1.997 1_655 S
O20 C15 1.235 . S
C21 O4 1.295 . S
C21 O5 1.235 . S
Fe22 O24 1.918 . S
Fe22 O27 1.997 . S
Fe22 O28 2.002 . S
Fe22 O33 1.976 . S
Fe22 O36 1.996 . S
Fe23 O24 1.918 . S
Fe23 O31 1.997 . S
Fe23 O34 1.996 . S
Fe23 O38 1.976 . S
Fe23 O41 2.002 . S
O24 Fe22 1.918 . S
O24 Fe23 1.918 . S
O24 Fe25 1.918 . S
Fe25 O24 1.918 . S
Fe25 O26 2.002 . S
Fe25 O35 1.976 . S
Fe25 O39 1.996 . S
Fe25 O42 1.997 . S
O26 Fe25 2.002 . S
O26 C43 1.295 . S
O27 Fe22 1.997 . S
O27 C43 1.235 . S
O28 Fe22 2.002 . S
O28 C29 1.295 . S
C29 O28 1.295 . S
C29 O31 1.235 . S
C30 O35 1.287 . S
C30 O36 1.255 . S
O31 Fe23 1.997 . S
O31 C29 1.235 . S
C32 O38 1.287 . S
C32 O39 1.255 . S
O33 Fe22 1.976 . S
O33 C40 1.287 . S
O34 Fe23 1.996 . S
O34 C40 1.255 . S
O35 Fe25 1.976 . S
O35 C30 1.287 . S
O36 Fe22 1.996 . S
O36 C30 1.255 . S
C37 O41 1.295 . S
C37 O42 1.235 . S
O38 Fe23 1.976 . S
O38 C32 1.287 . S
O39 Fe25 1.996 . S
O39 C32 1.255 . S
C40 O33 1.287 . S
C40 O34 1.255 . S
O41 Fe23 2.002 . S
O41 C37 1.295 . S
O42 Fe25 1.997 . S
O42 C37 1.235 . S
C43 O26 1.295 . S
C43 O27 1.235 . S
Fe44 O46 1.918 . S
Fe44 O49 1.997 . S
Fe44 O50 2.002 . S
Fe44 O55 1.976 . S
Fe44 O58 1.996 . S
Fe45 O46 1.918 . S
Fe45 O53 1.997 . S
Fe45 O56 1.996 . S
Fe45 O60 1.976 . S
Fe45 O63 2.002 . S
O46 Fe44 1.918 . S
O46 Fe45 1.918 . S
O46 Fe47 1.918 . S
Fe47 O46 1.918 . S
Fe47 O48 2.002 . S
Fe47 O57 1.976 . S
Fe47 O61 1.996 . S
Fe47 O64 1.997 . S
O48 Fe47 2.002 . S
O48 C65 1.295 . S
O49 Fe44 1.997 . S
O49 C65 1.235 . S
O50 Fe44 2.002 . S
O50 C51 1.295 . S
C51 O50 1.295 . S
C51 O53 1.235 . S
C52 O57 1.287 . S
C52 O58 1.255 . S
O53 Fe45 1.997 . S
O53 C51 1.235 . S
C54 O60 1.287 . S
C54 O61 1.255 . S
O55 Fe44 1.976 . S
O55 C62 1.287 . S
O56 Fe45 1.996 . S
O56 C62 1.255 . S
O57 Fe47 1.976 . S
O57 C52 1.287 . S
O58 Fe44 1.996 . S
O58 C52 1.255 . S
C59 O63 1.295 . S
C59 O64 1.235 . S
O60 Fe45 1.976 . S
O60 C54 1.287 . S
O61 Fe47 1.996 . S
O61 C54 1.255 . S
C62 O55 1.287 . S
C62 O56 1.255 . S
O63 Fe45 2.002 . S
O63 C59 1.295 . S
O64 Fe47 1.997 . S
O64 C59 1.235 . S
C65 O48 1.295 . S
C65 O49 1.235 . S
Fe66 O68 1.918 . S
Fe66 O71 1.997 1_655 S
Fe66 O72 2.002 1_655 S
Fe66 O77 1.976 . S
Fe66 O80 1.996 . S
Fe67 O68 1.918 . S
Fe67 O75 1.997 1_655 S
Fe67 O78 1.996 . S
Fe67 O82 1.976 . S
Fe67 O85 2.002 1_655 S
O68 Fe66 1.918 . S
O68 Fe67 1.918 . S
O68 Fe69 1.918 . S
Fe69 O68 1.918 . S
Fe69 O70 2.002 . S
Fe69 O79 1.976 . S
Fe69 O83 1.996 . S
Fe69 O86 1.997 1_655 S
O70 Fe69 2.002 . S
O70 C87 1.295 1_655 S
O71 Fe66 1.997 1_455 S
O71 C87 1.235 . S
O72 Fe66 2.002 1_455 S
O72 C73 1.295 . S
C73 O72 1.295 . S
C73 O75 1.235 . S
C74 O79 1.287 . S
C74 O80 1.255 . S
O75 Fe67 1.997 1_455 S
O75 C73 1.235 . S
C76 O82 1.287 . S
C76 O83 1.255 . S
O77 Fe66 1.976 . S
O77 C84 1.287 . S
O78 Fe67 1.996 . S
O78 C84 1.255 . S
O79 Fe69 1.976 . S
O79 C74 1.287 . S
O80 Fe66 1.996 . S
O80 C74 1.255 . S
C81 O85 1.295 . S
C81 O86 1.235 . S
O82 Fe67 1.976 . S
O82 C76 1.287 . S
O83 Fe69 1.996 . S
O83 C76 1.255 . S
C84 O77 1.287 . S
C84 O78 1.255 . S
O85 Fe67 2.002 1_455 S
O85 C81 1.295 . S
O86 Fe69 1.997 1_455 S
O86 C81 1.235 . S
C87 O70 1.295 1_455 S
C87 O71 1.235 . S
Fe88 O90 1.918 . S
Fe88 O93 1.997 1_545 S
Fe88 O94 2.002 1_545 S
Fe88 O99 1.976 . S
Fe88 O102 1.996 . S
Fe89 O90 1.918 . S
Fe89 O97 1.997 1_545 S
Fe89 O100 1.996 . S
Fe89 O104 1.976 . S
Fe89 O107 2.002 . S
O90 Fe88 1.918 . S
O90 Fe89 1.918 . S
O90 Fe91 1.918 . S
Fe91 O90 1.918 . S
Fe91 O92 2.002 1_545 S
Fe91 O101 1.976 . S
Fe91 O105 1.996 . S
Fe91 O108 1.997 1_545 S
O92 Fe91 2.002 1_565 S
O92 C109 1.295 . S
O93 Fe88 1.997 1_565 S
O93 C109 1.235 . S
O94 Fe88 2.002 1_565 S
O94 C95 1.295 . S
C95 O94 1.295 . S
C95 O97 1.235 . S
C96 O101 1.287 . S
C96 O102 1.255 . S
O97 Fe89 1.997 1_565 S
O97 C95 1.235 . S
C98 O104 1.287 . S
C98 O105 1.255 . S
O99 Fe88 1.976 . S
O99 C106 1.287 . S
O100 Fe89 1.996 . S
O100 C106 1.255 . S
O101 Fe91 1.976 . S
O101 C96 1.287 . S
O102 Fe88 1.996 . S
O102 C96 1.255 . S
C103 O107 1.295 1_565 S
C103 O108 1.235 . S
O104 Fe89 1.976 . S
O104 C98 1.287 . S
O105 Fe91 1.996 . S
O105 C98 1.255 . S
C106 O99 1.287 . S
C106 O100 1.255 . S
O107 Fe89 2.002 . S
O107 C103 1.295 1_545 S
O108 Fe91 1.997 1_565 S
O108 C103 1.235 . S
C109 O92 1.295 . S
C109 O93 1.235 . S
Fe110 O112 1.918 . S
Fe110 O115 1.997 1_565 S
Fe110 O116 2.002 1_565 S
Fe110 O121 1.976 . S
Fe110 O124 1.996 . S
Fe111 O112 1.918 . S
Fe111 O119 1.997 1_565 S
Fe111 O122 1.996 . S
Fe111 O126 1.976 . S
Fe111 O129 2.002 1_565 S
O112 Fe110 1.918 . S
O112 Fe111 1.918 . S
O112 Fe113 1.918 . S
Fe113 O112 1.918 . S
Fe113 O114 2.002 . S
Fe113 O123 1.976 . S
Fe113 O127 1.996 . S
Fe113 O130 1.983 1_565 S
O114 Fe113 2.002 . S
O114 C131 1.295 1_565 S
O115 Fe110 1.997 1_545 S
O115 C131 1.235 . S
O116 Fe110 2.002 1_545 S
O116 C117 1.295 . S
C117 O116 1.295 . S
C117 O119 1.235 . S
C118 O123 1.287 . S
C118 O124 1.255 . S
O119 Fe111 1.997 1_545 S
O119 C117 1.235 . S
C120 O126 1.287 . S
C120 O127 1.255 . S
O121 Fe110 1.976 . S
O121 C128 1.287 . S
O122 Fe111 1.996 . S
O122 C128 1.255 . S
O123 Fe113 1.976 . S
O123 C118 1.287 . S
O124 Fe110 1.996 . S
O124 C118 1.255 . S
C125 O129 1.295 . S
C125 O130 1.245 . S
O126 Fe111 1.976 . S
O126 C120 1.287 . S
O127 Fe113 1.996 . S
O127 C120 1.255 . S
C128 O121 1.287 . S
C128 O122 1.255 . S
O129 Fe111 2.002 1_545 S
O129 C125 1.295 . S
O130 Fe113 1.983 1_545 S
O130 C125 1.245 . S
C131 O114 1.295 1_545 S
C131 O115 1.235 . S
Fe132 O134 1.918 . S
Fe132 O137 1.997 . S
Fe132 O138 2.002 . S
Fe132 O143 1.976 . S
Fe132 O146 1.996 . S
Fe133 O134 1.918 . S
Fe133 O141 1.997 . S
Fe133 O144 1.996 . S
Fe133 O148 1.976 . S
Fe133 O151 2.002 . S
O134 Fe132 1.918 . S
O134 Fe133 1.918 . S
O134 Fe135 1.918 . S
Fe135 O134 1.918 . S
Fe135 O136 2.002 . S
Fe135 O145 1.976 . S
Fe135 O149 1.996 . S
Fe135 O152 1.997 . S
O136 Fe135 2.002 . S
O136 C153 1.295 . S
O137 Fe132 1.997 . S
O137 C153 1.235 . S
O138 Fe132 2.002 . S
O138 C139 1.295 . S
C139 O138 1.295 . S
C139 O141 1.235 . S
C140 O145 1.287 . S
C140 O146 1.255 . S
O141 Fe133 1.997 . S
O141 C139 1.235 . S
C142 O148 1.287 . S
C142 O149 1.255 . S
O143 Fe132 1.976 . S
O143 C150 1.287 . S
O144 Fe133 1.996 . S
O144 C150 1.255 . S
O145 Fe135 1.976 . S
O145 C140 1.287 . S
O146 Fe132 1.996 . S
O146 C140 1.255 . S
C147 O151 1.295 . S
C147 O152 1.235 . S
O148 Fe133 1.976 . S
O148 C142 1.287 . S
O149 Fe135 1.996 . S
O149 C142 1.255 . S
C150 O143 1.287 . S
C150 O144 1.255 . S
O151 Fe133 2.002 . S
O151 C147 1.295 . S
O152 Fe135 1.997 . S
O152 C147 1.235 . S
C153 O136 1.295 . S
C153 O137 1.235 . S
Fe154 O156 1.918 . S
Fe154 O159 1.997 . S
Fe154 O160 2.002 . S
Fe154 O165 1.976 . S
Fe154 O168 1.996 . S
Fe155 O156 1.918 . S
Fe155 O163 1.997 . S
Fe155 O166 1.996 . S
Fe155 O170 1.976 . S
Fe155 O173 2.002 . S
O156 Fe154 1.918 . S
O156 Fe155 1.918 . S
O156 Fe157 1.918 . S
Fe157 O156 1.918 . S
Fe157 O158 2.002 . S
Fe157 O167 1.976 . S
Fe157 O171 1.996 . S
Fe157 O174 1.997 . S
O158 Fe157 2.002 . S
O158 C175 1.295 . S
O159 Fe154 1.997 . S
O159 C175 1.235 . S
O160 Fe154 2.002 . S
O160 C161 1.295 . S
C161 O160 1.295 . S
C161 O163 1.235 . S
C162 O167 1.287 . S
C162 O168 1.255 . S
O163 Fe155 1.997 . S
O163 C161 1.235 . S
C164 O170 1.287 . S
C164 O171 1.255 . S
O165 Fe154 1.976 . S
O165 C172 1.287 . S
O166 Fe155 1.996 . S
O166 C172 1.255 . S
O167 Fe157 1.976 . S
O167 C162 1.287 . S
O168 Fe154 1.996 . S
O168 C162 1.255 . S
C169 O173 1.295 . S
C169 O174 1.235 . S
O170 Fe155 1.976 . S
O170 C164 1.287 . S
O171 Fe157 1.996 . S
O171 C164 1.255 . S
C172 O165 1.287 . S
C172 O166 1.255 . S
O173 Fe155 2.002 . S
O173 C169 1.295 . S
O174 Fe157 1.997 . S
O174 C169 1.235 . S
C175 O158 1.295 . S
C175 O159 1.235 . S
Fe176 O178 1.918 . S
Fe176 O181 1.997 1_554 S
Fe176 O182 2.002 1_554 S
Fe176 O187 1.976 . S
Fe176 O190 1.996 . S
Fe177 O178 1.918 . S
Fe177 O185 1.997 1_554 S
Fe177 O188 1.996 . S
Fe177 O192 1.976 . S
Fe177 O195 2.002 . S
O178 Fe176 1.918 . S
O178 Fe177 1.918 . S
O178 Fe179 1.918 . S
Fe179 O178 1.918 . S
Fe179 O180 2.002 1_554 S
Fe179 O189 1.976 . S
Fe179 O193 1.996 . S
Fe179 O196 1.997 1_554 S
O180 Fe179 2.002 1_556 S
O180 C197 1.295 . S
O181 Fe176 1.997 1_556 S
O181 C197 1.235 . S
O182 Fe176 2.002 1_556 S
O182 C183 1.295 . S
C183 O182 1.295 . S
C183 O185 1.235 . S
C184 O189 1.287 . S
C184 O190 1.255 . S
O185 Fe177 1.997 1_556 S
O185 C183 1.235 . S
C186 O192 1.287 . S
C186 O193 1.255 . S
O187 Fe176 1.976 . S
O187 C194 1.287 . S
O188 Fe177 1.996 . S
O188 C194 1.255 . S
O189 Fe179 1.976 . S
O189 C184 1.287 . S
O190 Fe176 1.996 . S
O190 C184 1.255 . S
C191 O195 1.295 1_556 S
C191 O196 1.235 . S
O192 Fe177 1.976 . S
O192 C186 1.287 . S
O193 Fe179 1.996 . S
O193 C186 1.255 . S
C194 O187 1.287 . S
C194 O188 1.255 . S
O195 Fe177 2.002 . S
O195 C191 1.295 1_554 S
O196 Fe179 1.997 1_556 S
O196 C191 1.235 . S
C197 O180 1.295 . S
C197 O181 1.235 . S
Fe198 O200 1.918 . S
Fe198 O203 1.997 1_556 S
Fe198 O204 2.002 . S
Fe198 O209 1.976 . S
Fe198 O212 1.996 . S
Fe199 O200 1.918 . S
Fe199 O207 1.997 1_556 S
Fe199 O210 1.996 . S
Fe199 O214 1.976 . S
Fe199 O217 2.002 1_556 S
O200 Fe198 1.918 . S
O200 Fe199 1.918 . S
O200 Fe201 1.918 . S
Fe201 O200 1.918 . S
Fe201 O202 2.002 1_556 S
Fe201 O211 1.976 . S
Fe201 O215 1.996 . S
Fe201 O218 1.997 1_556 S
O202 Fe201 2.002 1_554 S
O202 C219 1.295 . S
O203 Fe198 1.997 1_554 S
O203 C219 1.235 . S
O204 Fe198 2.002 . S
O204 C205 1.295 1_556 S
C205 O204 1.295 1_554 S
C205 O207 1.235 . S
C206 O211 1.287 . S
C206 O212 1.255 . S
O207 Fe199 1.997 1_554 S
O207 C205 1.235 . S
C208 O214 1.287 . S
C208 O215 1.255 . S
O209 Fe198 1.976 . S
O209 C216 1.287 . S
O210 Fe199 1.996 . S
O210 C216 1.255 . S
O211 Fe201 1.976 . S
O211 C206 1.287 . S
O212 Fe198 1.996 . S
O212 C206 1.255 . S
C213 O217 1.295 . S
C213 O218 1.235 . S
O214 Fe199 1.976 . S
O214 C208 1.287 . S
O215 Fe201 1.996 . S
O215 C208 1.255 . S
C216 O209 1.287 . S
C216 O210 1.255 . S
O217 Fe199 2.002 1_554 S
O217 C213 1.295 . S
O218 Fe201 1.997 1_554 S
O218 C213 1.235 . S
C219 O202 1.295 . S
C219 O203 1.235 . S
Fe220 O222 1.918 . S
Fe220 O225 1.997 . S
Fe220 O226 2.002 . S
Fe220 O231 1.976 . S
Fe220 O234 1.996 . S
Fe221 O222 1.918 . S
Fe221 O229 1.997 . S
Fe221 O232 1.996 . S
Fe221 O236 1.976 . S
Fe221 O239 2.002 . S
O222 Fe220 1.918 . S
O222 Fe221 1.918 . S
O222 Fe223 1.918 . S
Fe223 O222 1.918 . S
Fe223 O224 2.002 . S
Fe223 O233 1.976 . S
Fe223 O237 1.996 . S
Fe223 O240 1.997 . S
O224 Fe223 2.002 . S
O224 C241 1.295 . S
O225 Fe220 1.997 . S
O225 C241 1.235 . S
O226 Fe220 2.002 . S
O226 C227 1.295 . S
C227 O226 1.295 . S
C227 O229 1.235 . S
C228 O233 1.287 . S
C228 O234 1.255 . S
O229 Fe221 1.997 . S
O229 C227 1.235 . S
C230 O236 1.287 . S
C230 O237 1.255 . S
O231 Fe220 1.976 . S
O231 C238 1.287 . S
O232 Fe221 1.996 . S
O232 C238 1.255 . S
O233 Fe223 1.976 . S
O233 C228 1.287 . S
O234 Fe220 1.996 . S
O234 C228 1.255 . S
C235 O239 1.295 . S
C235 O240 1.235 . S
O236 Fe221 1.976 . S
O236 C230 1.287 . S
O237 Fe223 1.996 . S
O237 C230 1.255 . S
C238 O231 1.287 . S
C238 O232 1.255 . S
O239 Fe221 2.002 . S
O239 C235 1.295 . S
O240 Fe223 1.997 . S
O240 C235 1.235 . S
C241 O224 1.295 . S
C241 O225 1.235 . S
Fe242 O244 1.918 . S
Fe242 O247 1.997 . S
Fe242 O248 2.002 . S
Fe242 O253 1.976 . S
Fe242 O256 1.996 . S
Fe243 O244 1.918 . S
Fe243 O251 1.997 . S
Fe243 O254 1.996 . S
Fe243 O258 1.976 . S
Fe243 O261 2.002 . S
O244 Fe242 1.918 . S
O244 Fe243 1.918 . S
O244 Fe245 1.918 . S
Fe245 O244 1.918 . S
Fe245 O246 2.002 . S
Fe245 O255 1.976 . S
Fe245 O259 1.996 . S
Fe245 O262 1.997 . S
O246 Fe245 2.002 . S
O246 C263 1.295 . S
O247 Fe242 1.997 . S
O247 C263 1.235 . S
O248 Fe242 2.002 . S
O248 C249 1.295 . S
C249 O248 1.295 . S
C249 O251 1.235 . S
C250 O255 1.287 . S
C250 O256 1.255 . S
O251 Fe243 1.997 . S
O251 C249 1.235 . S
C252 O258 1.287 . S
C252 O259 1.255 . S
O253 Fe242 1.976 . S
O253 C260 1.287 . S
O254 Fe243 1.996 . S
O254 C260 1.255 . S
O255 Fe245 1.976 . S
O255 C250 1.287 . S
O256 Fe242 1.996 . S
O256 C250 1.255 . S
C257 O261 1.295 . S
C257 O262 1.235 . S
O258 Fe243 1.976 . S
O258 C252 1.287 . S
O259 Fe245 1.996 . S
O259 C252 1.255 . S
C260 O253 1.287 . S
C260 O254 1.255 . S
O261 Fe243 2.002 . S
O261 C257 1.295 . S
O262 Fe245 1.997 . S
O262 C257 1.235 . S
C263 O246 1.295 . S
C263 O247 1.235 . S
Fe264 O266 1.918 . S
Fe264 O269 1.991 1_655 S
Fe264 O270 2.002 . S
Fe264 O275 1.976 . S
Fe264 O278 1.996 . S
Fe265 O266 1.918 . S
Fe265 O273 1.997 1_655 S
Fe265 O276 1.996 . S
Fe265 O280 1.976 . S
Fe265 O283 2.002 1_655 S
O266 Fe264 1.918 . S
O266 Fe265 1.918 . S
O266 Fe267 1.918 . S
Fe267 O266 1.918 . S
Fe267 O268 2.002 1_655 S
Fe267 O277 1.976 . S
Fe267 O281 1.996 . S
Fe267 O284 1.997 1_655 S
O268 Fe267 2.002 1_455 S
O268 C285 1.295 . S
O269 Fe264 1.991 1_455 S
O269 C285 1.239 . S
O270 Fe264 2.002 . S
O270 C271 1.295 1_655 S
C271 O270 1.295 1_455 S
C271 O273 1.235 . S
C272 O277 1.287 . S
C272 O278 1.255 . S
O273 Fe265 1.997 1_455 S
O273 C271 1.235 . S
C274 O280 1.287 . S
C274 O281 1.255 . S
O275 Fe264 1.976 . S
O275 C282 1.287 . S
O276 Fe265 1.996 . S
O276 C282 1.255 . S
O277 Fe267 1.976 . S
O277 C272 1.287 . S
O278 Fe264 1.996 . S
O278 C272 1.255 . S
C279 O283 1.295 . S
C279 O284 1.235 . S
O280 Fe265 1.976 . S
O280 C274 1.287 . S
O281 Fe267 1.996 . S
O281 C274 1.255 . S
C282 O275 1.287 . S
C282 O276 1.255 . S
O283 Fe265 2.002 1_455 S
O283 C279 1.295 . S
O284 Fe267 1.997 1_455 S
O284 C279 1.235 . S
C285 O268 1.295 . S
C285 O269 1.239 . S
Fe286 O288 1.918 . S
Fe286 O291 1.997 . S
Fe286 O292 2.002 . S
Fe286 O297 1.976 . S
Fe286 O300 1.996 . S
Fe287 O288 1.918 . S
Fe287 O295 1.997 . S
Fe287 O298 1.996 . S
Fe287 O302 1.976 . S
Fe287 O305 2.002 . S
O288 Fe286 1.918 . S
O288 Fe287 1.918 . S
O288 Fe289 1.918 . S
Fe289 O288 1.918 . S
Fe289 O290 2.002 . S
Fe289 O299 1.976 . S
Fe289 O303 1.996 . S
Fe289 O306 1.997 . S
O290 Fe289 2.002 . S
O290 C307 1.295 . S
O291 Fe286 1.997 . S
O291 C307 1.235 . S
O292 Fe286 2.002 . S
O292 C293 1.295 . S
C293 O292 1.295 . S
C293 O295 1.235 . S
C294 O299 1.287 . S
C294 O300 1.255 . S
O295 Fe287 1.997 . S
O295 C293 1.235 . S
C296 O302 1.287 . S
C296 O303 1.255 . S
O297 Fe286 1.976 . S
O297 C304 1.287 . S
O298 Fe287 1.996 . S
O298 C304 1.255 . S
O299 Fe289 1.976 . S
O299 C294 1.287 . S
O300 Fe286 1.996 . S
O300 C294 1.255 . S
C301 O305 1.295 . S
C301 O306 1.235 . S
O302 Fe287 1.976 . S
O302 C296 1.287 . S
O303 Fe289 1.996 . S
O303 C296 1.255 . S
C304 O297 1.287 . S
C304 O298 1.255 . S
O305 Fe287 2.002 . S
O305 C301 1.295 . S
O306 Fe289 1.997 . S
O306 C301 1.235 . S
C307 O290 1.295 . S
C307 O291 1.235 . S
Fe308 O310 1.918 . S
Fe308 O313 1.997 . S
Fe308 O314 2.002 . S
Fe308 O319 1.976 . S
Fe308 O322 1.996 . S
Fe309 O310 1.918 . S
Fe309 O317 1.997 . S
Fe309 O320 1.996 . S
Fe309 O324 1.976 . S
Fe309 O327 2.002 . S
O310 Fe308 1.918 . S
O310 Fe309 1.918 . S
O310 Fe311 1.918 . S
Fe311 O310 1.918 . S
Fe311 O312 2.002 . S
Fe311 O321 1.976 . S
Fe311 O325 1.996 . S
Fe311 O328 1.997 . S
O312 Fe311 2.002 . S
O312 C329 1.295 . S
O313 Fe308 1.997 . S
O313 C329 1.235 . S
O314 Fe308 2.002 . S
O314 C315 1.295 . S
C315 O314 1.295 . S
C315 O317 1.235 . S
C316 O321 1.287 . S
C316 O322 1.255 . S
O317 Fe309 1.997 . S
O317 C315 1.235 . S
C318 O324 1.287 . S
C318 O325 1.255 . S
O319 Fe308 1.976 . S
O319 C326 1.287 . S
O320 Fe309 1.996 . S
O320 C326 1.255 . S
O321 Fe311 1.976 . S
O321 C316 1.287 . S
O322 Fe308 1.996 . S
O322 C316 1.255 . S
C323 O327 1.295 . S
C323 O328 1.235 . S
O324 Fe309 1.976 . S
O324 C318 1.287 . S
O325 Fe311 1.996 . S
O325 C318 1.255 . S
C326 O319 1.287 . S
C326 O320 1.255 . S
O327 Fe309 2.002 . S
O327 C323 1.295 . S
O328 Fe311 1.997 . S
O328 C323 1.235 . S
C329 O312 1.295 . S
C329 O313 1.235 . S
Fe330 O332 1.918 . S
Fe330 O335 1.988 1_455 S
Fe330 O336 2.002 . S
Fe330 O341 1.976 . S
Fe330 O344 1.996 . S
Fe331 O332 1.918 . S
Fe331 O339 1.997 1_455 S
Fe331 O342 1.996 . S
Fe331 O346 1.976 . S
Fe331 O349 2.002 1_455 S
O332 Fe330 1.918 . S
O332 Fe331 1.918 . S
O332 Fe333 1.918 . S
Fe333 O332 1.918 . S
Fe333 O334 2.002 1_455 S
Fe333 O343 1.976 . S
Fe333 O347 1.996 . S
Fe333 O350 1.997 1_455 S
O334 Fe333 2.002 1_655 S
O334 C351 1.295 . S
O335 Fe330 1.988 1_655 S
O335 C351 1.241 . S
O336 Fe330 2.002 . S
O336 C337 1.295 1_455 S
C337 O336 1.295 1_655 S
C337 O339 1.235 . S
C338 O343 1.287 . S
C338 O344 1.255 . S
O339 Fe331 1.997 1_655 S
O339 C337 1.235 . S
C340 O346 1.287 . S
C340 O347 1.255 . S
O341 Fe330 1.976 . S
O341 C348 1.287 . S
O342 Fe331 1.996 . S
O342 C348 1.255 . S
O343 Fe333 1.976 . S
O343 C338 1.287 . S
O344 Fe330 1.996 . S
O344 C338 1.255 . S
C345 O349 1.295 . S
C345 O350 1.235 . S
O346 Fe331 1.976 . S
O346 C340 1.287 . S
O347 Fe333 1.996 . S
O347 C340 1.255 . S
C348 O341 1.287 . S
C348 O342 1.255 . S
O349 Fe331 2.002 1_655 S
O349 C345 1.295 . S
O350 Fe333 1.997 1_655 S
O350 C345 1.235 . S
C351 O334 1.295 . S
C351 O335 1.241 . S
Fe352 O354 1.918 . S
Fe352 O357 1.997 1_565 S
Fe352 O358 2.002 . S
Fe352 O363 1.976 . S
Fe352 O366 1.996 . S
Fe353 O354 1.918 . S
Fe353 O361 1.997 1_565 S
Fe353 O364 1.996 . S
Fe353 O368 1.976 . S
Fe353 O371 2.002 1_565 S
O354 Fe352 1.918 . S
O354 Fe353 1.918 . S
O354 Fe355 1.918 . S
Fe355 O354 1.918 . S
Fe355 O356 2.002 1_565 S
Fe355 O365 1.976 . S
Fe355 O369 1.996 . S
Fe355 O372 1.997 1_565 S
O356 Fe355 2.002 1_545 S
O356 C373 1.295 . S
O357 Fe352 1.997 1_545 S
O357 C373 1.235 . S
O358 Fe352 2.002 . S
O358 C359 1.295 1_565 S
C359 O358 1.295 1_545 S
C359 O361 1.235 . S
C360 O365 1.287 . S
C360 O366 1.255 . S
O361 Fe353 1.997 1_545 S
O361 C359 1.235 . S
C362 O368 1.287 . S
C362 O369 1.255 . S
O363 Fe352 1.976 . S
O363 C370 1.287 . S
O364 Fe353 1.996 . S
O364 C370 1.255 . S
O365 Fe355 1.976 . S
O365 C360 1.287 . S
O366 Fe352 1.996 . S
O366 C360 1.255 . S
C367 O371 1.295 . S
C367 O372 1.235 . S
O368 Fe353 1.976 . S
O368 C362 1.287 . S
O369 Fe355 1.996 . S
O369 C362 1.255 . S
C370 O363 1.287 . S
C370 O364 1.255 . S
O371 Fe353 2.002 1_545 S
O371 C367 1.295 . S
O372 Fe355 1.997 1_545 S
O372 C367 1.235 . S
C373 O356 1.295 . S
C373 O357 1.235 . S
Fe374 O376 1.918 . S
Fe374 O379 1.997 1_545 S
Fe374 O380 2.002 . S
Fe374 O385 1.976 . S
Fe374 O388 1.996 . S
Fe375 O376 1.918 . S
Fe375 O383 1.997 1_545 S
Fe375 O386 1.996 . S
Fe375 O390 1.976 . S
Fe375 O393 2.002 1_545 S
O376 Fe374 1.918 . S
O376 Fe375 1.918 . S
O376 Fe377 1.918 . S
Fe377 O376 1.918 . S
Fe377 O378 2.002 1_545 S
Fe377 O387 1.976 . S
Fe377 O391 1.996 . S
Fe377 O394 1.997 1_545 S
O378 Fe377 2.002 1_565 S
O378 C395 1.295 . S
O379 Fe374 1.997 1_565 S
O379 C395 1.235 . S
O380 Fe374 2.002 . S
O380 C381 1.295 1_545 S
C381 O380 1.295 1_565 S
C381 O383 1.235 . S
C382 O387 1.287 . S
C382 O388 1.255 . S
O383 Fe375 1.997 1_565 S
O383 C381 1.235 . S
C384 O390 1.287 . S
C384 O391 1.255 . S
O385 Fe374 1.976 . S
O385 C392 1.287 . S
O386 Fe375 1.996 . S
O386 C392 1.255 . S
O387 Fe377 1.976 . S
O387 C382 1.287 . S
O388 Fe374 1.996 . S
O388 C382 1.255 . S
C389 O393 1.295 . S
C389 O394 1.235 . S
O390 Fe375 1.976 . S
O390 C384 1.287 . S
O391 Fe377 1.996 . S
O391 C384 1.255 . S
C392 O385 1.287 . S
C392 O386 1.255 . S
O393 Fe375 2.002 1_565 S
O393 C389 1.295 . S
O394 Fe377 1.997 1_565 S
O394 C389 1.235 . S
C395 O378 1.295 . S
C395 O379 1.235 . S
Fe396 O398 1.918 . S
Fe396 O401 1.997 . S
Fe396 O402 2.002 . S
Fe396 O407 1.976 . S
Fe396 O410 1.996 . S
Fe397 O398 1.918 . S
Fe397 O405 1.997 . S
Fe397 O408 1.996 . S
Fe397 O412 1.976 . S
Fe397 O415 2.002 . S
O398 Fe396 1.918 . S
O398 Fe397 1.918 . S
O398 Fe399 1.918 . S
Fe399 O398 1.918 . S
Fe399 O400 2.002 . S
Fe399 O409 1.976 . S
Fe399 O413 1.996 . S
Fe399 O416 1.997 . S
O400 Fe399 2.002 . S
O400 C417 1.295 . S
O401 Fe396 1.997 . S
O401 C417 1.235 . S
O402 Fe396 2.002 . S
O402 C403 1.295 . S
C403 O402 1.295 . S
C403 O405 1.235 . S
C404 O409 1.287 . S
C404 O410 1.255 . S
O405 Fe397 1.997 . S
O405 C403 1.235 . S
C406 O412 1.287 . S
C406 O413 1.255 . S
O407 Fe396 1.976 . S
O407 C414 1.287 . S
O408 Fe397 1.996 . S
O408 C414 1.255 . S
O409 Fe399 1.976 . S
O409 C404 1.287 . S
O410 Fe396 1.996 . S
O410 C404 1.255 . S
C411 O415 1.295 . S
C411 O416 1.235 . S
O412 Fe397 1.976 . S
O412 C406 1.287 . S
O413 Fe399 1.996 . S
O413 C406 1.255 . S
C414 O407 1.287 . S
C414 O408 1.255 . S
O415 Fe397 2.002 . S
O415 C411 1.295 . S
O416 Fe399 1.997 . S
O416 C411 1.235 . S
C417 O400 1.295 . S
C417 O401 1.235 . S
Fe418 O420 1.918 . S
Fe418 O423 1.997 . S
Fe418 O424 2.002 . S
Fe418 O429 1.976 . S
Fe418 O432 1.996 . S
Fe419 O420 1.918 . S
Fe419 O427 1.997 . S
Fe419 O430 1.996 . S
Fe419 O434 1.976 . S
Fe419 O437 2.002 . S
O420 Fe418 1.918 . S
O420 Fe419 1.918 . S
O420 Fe421 1.918 . S
Fe421 O420 1.918 . S
Fe421 O422 2.002 . S
Fe421 O431 1.976 . S
Fe421 O435 1.996 . S
Fe421 O438 1.997 . S
O422 Fe421 2.002 . S
O422 C439 1.295 . S
O423 Fe418 1.997 . S
O423 C439 1.235 . S
O424 Fe418 2.002 . S
O424 C425 1.295 . S
C425 O424 1.295 . S
C425 O427 1.235 . S
C426 O431 1.287 . S
C426 O432 1.255 . S
O427 Fe419 1.997 . S
O427 C425 1.235 . S
C428 O434 1.287 . S
C428 O435 1.255 . S
O429 Fe418 1.976 . S
O429 C436 1.287 . S
O430 Fe419 1.996 . S
O430 C436 1.255 . S
O431 Fe421 1.976 . S
O431 C426 1.287 . S
O432 Fe418 1.996 . S
O432 C426 1.255 . S
C433 O437 1.295 . S
C433 O438 1.235 . S
O434 Fe419 1.976 . S
O434 C428 1.287 . S
O435 Fe421 1.996 . S
O435 C428 1.255 . S
C436 O429 1.287 . S
C436 O430 1.255 . S
O437 Fe419 2.002 . S
O437 C433 1.295 . S
O438 Fe421 1.997 . S
O438 C433 1.235 . S
C439 O422 1.295 . S
C439 O423 1.235 . S
Fe440 O442 1.918 . S
Fe440 O445 1.997 1_556 S
Fe440 O446 2.002 . S
Fe440 O451 1.976 . S
Fe440 O454 1.996 . S
Fe441 O442 1.918 . S
Fe441 O449 1.997 1_556 S
Fe441 O452 1.996 . S
Fe441 O456 1.976 . S
Fe441 O459 2.002 1_556 S
O442 Fe440 1.918 . S
O442 Fe441 1.918 . S
O442 Fe443 1.918 . S
Fe443 O442 1.918 . S
Fe443 O444 2.002 1_556 S
Fe443 O453 1.976 . S
Fe443 O457 1.996 . S
Fe443 O460 1.997 1_556 S
O444 Fe443 2.002 1_554 S
O444 C461 1.295 . S
O445 Fe440 1.997 1_554 S
O445 C461 1.235 . S
O446 Fe440 2.002 . S
O446 C447 1.295 1_556 S
C447 O446 1.295 1_554 S
C447 O449 1.235 . S
C448 O453 1.287 . S
C448 O454 1.255 . S
O449 Fe441 1.997 1_554 S
O449 C447 1.235 . S
C450 O456 1.287 . S
C450 O457 1.255 . S
O451 Fe440 1.976 . S
O451 C458 1.287 . S
O452 Fe441 1.996 . S
O452 C458 1.255 . S
O453 Fe443 1.976 . S
O453 C448 1.287 . S
O454 Fe440 1.996 . S
O454 C448 1.255 . S
C455 O459 1.295 . S
C455 O460 1.235 . S
O456 Fe441 1.976 . S
O456 C450 1.287 . S
O457 Fe443 1.996 . S
O457 C450 1.255 . S
C458 O451 1.287 . S
C458 O452 1.255 . S
O459 Fe441 2.002 1_554 S
O459 C455 1.295 . S
O460 Fe443 1.997 1_554 S
O460 C455 1.235 . S
C461 O444 1.295 . S
C461 O445 1.235 . S
Fe462 O464 1.918 . S
Fe462 O467 1.991 1_554 S
Fe462 O468 2.002 . S
Fe462 O473 1.976 . S
Fe462 O476 1.996 . S
Fe463 O464 1.918 . S
Fe463 O471 1.997 1_554 S
Fe463 O474 1.996 . S
Fe463 O478 1.976 . S
Fe463 O481 2.002 1_554 S
O464 Fe462 1.918 . S
O464 Fe463 1.918 . S
O464 Fe465 1.918 . S
Fe465 O464 1.918 . S
Fe465 O466 2.002 1_554 S
Fe465 O475 1.976 . S
Fe465 O479 1.996 . S
Fe465 O482 1.997 1_554 S
O466 Fe465 2.002 1_556 S
O466 C483 1.295 . S
O467 Fe462 1.991 1_556 S
O467 C483 1.239 . S
O468 Fe462 2.002 . S
O468 C469 1.295 1_554 S
C469 O468 1.295 1_556 S
C469 O471 1.235 . S
C470 O475 1.287 . S
C470 O476 1.255 . S
O471 Fe463 1.997 1_556 S
O471 C469 1.235 . S
C472 O478 1.287 . S
C472 O479 1.255 . S
O473 Fe462 1.976 . S
O473 C480 1.287 . S
O474 Fe463 1.996 . S
O474 C480 1.255 . S
O475 Fe465 1.976 . S
O475 C470 1.287 . S
O476 Fe462 1.996 . S
O476 C470 1.255 . S
C477 O481 1.295 . S
C477 O482 1.235 . S
O478 Fe463 1.976 . S
O478 C472 1.287 . S
O479 Fe465 1.996 . S
O479 C472 1.255 . S
C480 O473 1.287 . S
C480 O474 1.255 . S
O481 Fe463 2.002 1_556 S
O481 C477 1.295 . S
O482 Fe465 1.997 1_556 S
O482 C477 1.235 . S
C483 O466 1.295 . S
C483 O467 1.239 . S
Fe484 O486 1.918 . S
Fe484 O489 1.997 . S
Fe484 O490 2.002 . S
Fe484 O495 1.976 . S
Fe484 O498 1.996 . S
Fe485 O486 1.918 . S
Fe485 O493 1.997 . S
Fe485 O496 1.996 . S
Fe485 O500 1.976 . S
Fe485 O503 2.002 . S
O486 Fe484 1.918 . S
O486 Fe485 1.918 . S
O486 Fe487 1.918 . S
Fe487 O486 1.918 . S
Fe487 O488 2.002 . S
Fe487 O497 1.976 . S
Fe487 O501 1.996 . S
Fe487 O504 1.997 . S
O488 Fe487 2.002 . S
O488 C505 1.295 . S
O489 Fe484 1.997 . S
O489 C505 1.235 . S
O490 Fe484 2.002 . S
O490 C491 1.295 . S
C491 O490 1.295 . S
C491 O493 1.235 . S
C492 O497 1.287 . S
C492 O498 1.255 . S
O493 Fe485 1.997 . S
O493 C491 1.235 . S
C494 O500 1.287 . S
C494 O501 1.255 . S
O495 Fe484 1.976 . S
O495 C502 1.287 . S
O496 Fe485 1.996 . S
O496 C502 1.255 . S
O497 Fe487 1.976 . S
O497 C492 1.287 . S
O498 Fe484 1.996 . S
O498 C492 1.255 . S
C499 O503 1.295 . S
C499 O504 1.235 . S
O500 Fe485 1.976 . S
O500 C494 1.287 . S
O501 Fe487 1.996 . S
O501 C494 1.255 . S
C502 O495 1.287 . S
C502 O496 1.255 . S
O503 Fe485 2.002 . S
O503 C499 1.295 . S
O504 Fe487 1.997 . S
O504 C499 1.235 . S
C505 O488 1.295 . S
C505 O489 1.235 . S
Fe506 O508 1.918 . S
Fe506 O511 1.997 . S
Fe506 O512 2.002 . S
Fe506 O517 1.976 . S
Fe506 O520 1.996 . S
Fe507 O508 1.918 . S
Fe507 O515 1.997 . S
Fe507 O518 1.996 . S
Fe507 O522 1.976 . S
Fe507 O525 2.002 . S
O508 Fe506 1.918 . S
O508 Fe507 1.918 . S
O508 Fe509 1.918 . S
Fe509 O508 1.918 . S
Fe509 O510 2.002 . S
Fe509 O519 1.976 . S
Fe509 O523 1.996 . S
Fe509 O526 1.997 . S
O510 Fe509 2.002 . S
O510 C527 1.295 . S
O511 Fe506 1.997 . S
O511 C527 1.235 . S
O512 Fe506 2.002 . S
O512 C513 1.295 . S
C513 O512 1.295 . S
C513 O515 1.235 . S
C514 O519 1.287 . S
C514 O520 1.255 . S
O515 Fe507 1.997 . S
O515 C513 1.235 . S
C516 O522 1.287 . S
C516 O523 1.255 . S
O517 Fe506 1.976 . S
O517 C524 1.287 . S
O518 Fe507 1.996 . S
O518 C524 1.255 . S
O519 Fe509 1.976 . S
O519 C514 1.287 . S
O520 Fe506 1.996 . S
O520 C514 1.255 . S
C521 O525 1.295 . S
C521 O526 1.235 . S
O522 Fe507 1.976 . S
O522 C516 1.287 . S
O523 Fe509 1.996 . S
O523 C516 1.255 . S
C524 O517 1.287 . S
C524 O518 1.255 . S
O525 Fe507 2.002 . S
O525 C521 1.295 . S
O526 Fe509 1.997 . S
O526 C521 1.235 . S
C527 O510 1.295 . S
C527 O511 1.235 . S
C18 C417 1.828 . S
C426 C40 1.799 . S
C52 C367 1.831 . S
C74 C389 1.833 . S
C505 C98 1.829 . S
C118 C477 1.829 . S
C513 C140 1.823 . S
C164 C455 1.829 . S
C186 C307 1.851 . S
C216 C345 1.827 . S
C315 C238 1.824 . S
C250 C279 1.834 . S
C282 C139 1.813 . S
C296 C175 1.836 . S
C316 C109 1.835 . S
C117 C348 1.826 . S
C370 C235 1.832 . S
C213 C392 1.827 . S
C249 C406 1.829 . S
C197 C425 1.873 . S
C37 C458 1.829 . S
C73 C480 1.817 . S
C51 C494 1.809 . S
C514 C15 1.828 . S
C106 C10 1.934 . S
C120 C32 1.923 . S
C142 C62 1.933 . S
C172 C84 1.936 . S
C96 C194 1.953 . S
C128 C252 1.931 . S
C150 C206 1.931 . S
C162 C228 1.930 . S
C184 C8 1.921 . S
C208 C54 1.940 . S
C230 C76 1.933 . S
C30 C260 1.964 . S
C360 C274 1.941 . S
C382 C294 1.937 . S
C326 C414 1.940 . S
C340 C433 1.967 . S
C448 C362 1.932 . S
C384 C516 1.930 . S
C470 C404 1.916 . S
C439 C502 1.944 . S
C272 C450 1.921 . S
C472 C318 1.942 . S
C492 C338 1.924 . S
C304 C524 1.947 . S
C21 C205 1.496 . S
C227 C43 1.486 . S
C191 C59 1.491 . S
C263 C81 1.500 . S
C95 C87 1.503 . S
C65 C125 1.508 . S
C147 C29 1.483 . S
C7 C161 1.509 . S
C183 C131 1.497 . S
C219 C169 1.506 . S
C241 C153 1.507 . S
C257 C103 1.508 . S
C285 C469 1.520 . S
C293 C499 1.521 . S
C447 C323 1.510 . S
C527 C351 1.516 . S
C373 C337 1.513 . S
C395 C329 1.506 . S
C301 C403 1.501 . S
C428 C271 1.456 . S
C461 C381 1.503 . S
C436 C483 1.469 . S
C491 C411 1.507 . S
C521 C359 1.500 . S
