# Generated by pormake.
# Topology fnv, (5)-cn, num edge types: 1
# Building blocks:
#     Node 0, Type 0, BuildingBlock: BEQFEK_clean_sbu_0, # of connection points: 5
#     Node 1, Type 0, BuildingBlock: BEQFEK_clean_sbu_0, # of connection points: 5
#     Node 2, Type 0, BuildingBlock: BEQFEK_clean_sbu_0, # of connection points: 5
#     Node 3, Type 0, BuildingBlock: BEQFEK_clean_sbu_0, # of connection points: 5
#     Node 4, Type 0, BuildingBlock: BEQFEK_clean_sbu_0, # of connection points: 5
#     Node 5, Type 0, BuildingBlock: BEQFEK_clean_sbu_0, # of connection points: 5
#     Edge 6, Type (0, 0), BuildingBlock: EZIPEK_clean_linker_0, # of connection points: 2
#     Edge 7, Type (0, 0), BuildingBlock: EZIPEK_clean_linker_0, # of connection points: 2
#     Edge 8, Type (0, 0), BuildingBlock: EZIPEK_clean_linker_0, # of connection points: 2
#     Edge 9, Type (0, 0), BuildingBlock: EZIPEK_clean_linker_0, # of connection points: 2
#     Edge 10, Type (0, 0), BuildingBlock: EZIPEK_clean_linker_0, # of connection points: 2
#     Edge 11, Type (0, 0), BuildingBlock: EZIPEK_clean_linker_0, # of connection points: 2
#     Edge 12, Type (0, 0), BuildingBlock: EZIPEK_clean_linker_0, # of connection points: 2
#     Edge 13, Type (0, 0), BuildingBlock: EZIPEK_clean_linker_0, # of connection points: 2
#     Edge 14, Type (0, 0), BuildingBlock: EZIPEK_clean_linker_0, # of connection points: 2
#     Edge 15, Type (0, 0), BuildingBlock: EZIPEK_clean_linker_0, # of connection points: 2
#     Edge 16, Type (0, 0), BuildingBlock: EZIPEK_clean_linker_0, # of connection points: 2
#     Edge 17, Type (0, 0), BuildingBlock: EZIPEK_clean_linker_0, # of connection points: 2
#     Edge 18, Type (0, 0), BuildingBlock: EZIPEK_clean_linker_0, # of connection points: 2
#     Edge 19, Type (0, 0), BuildingBlock: EZIPEK_clean_linker_0, # of connection points: 2
#     Edge 20, Type (0, 0), BuildingBlock: EZIPEK_clean_linker_0, # of connection points: 2
# Relax obj value: 0.508
# Max RMSD: 0.271
# Mean RMSD: 0.271
data_MOF--net-fnv--node1-BEQFEK_clean_sbu_0--edge1-EZIPEK_clean_linker_0
_symmetry_space_group_name_H-M    P1
_symmetry_Int_Tables_number       1
_symmetry_cell_setting            triclinic
loop_
_symmetry_equiv_pos_as_xyz
'x, y, z'
_cell_length_a     26.796984
_cell_length_b     26.681416
_cell_length_c     23.153894
_cell_angle_alpha  90.577079
_cell_angle_beta   89.40019
_cell_angle_gamma 119.85339
loop_
_atom_site_label
_atom_site_type_symbol
_atom_site_fract_x
_atom_site_fract_y
_atom_site_fract_z
_atom_type_partial_charge
Co0 Co 0.29679 0.37721 0.98563 0.0
Co1 Co 0.28904 0.48253 0.03799 0.0
C2 C 0.28598 0.46573 0.9126 0.0
O3 O 0.29173 0.42161 0.91955 0.0
O4 O 0.28214 0.49349 0.95582 0.0
C5 C 0.2466 0.27416 0.91715 0.0
O6 O 0.20462 0.28577 0.9119 0.0
C7 C 0.25624 0.56954 0.07065 0.0
C8 C 0.28364 0.58518 0.16193 0.0
C9 C 0.2565 0.59949 0.12004 0.0
N10 N 0.2808 0.5377 0.08337 0.0
N11 N 0.29797 0.54806 0.13766 0.0
C12 C 0.23255 0.57043 0.01271 0.0
H13 H 0.20161 0.52557 -0.00105 0.0
H14 H 0.2111 0.59687 0.01334 0.0
H15 H 0.26822 0.58861 0.98064 0.0
C16 C 0.19513 0.31376 0.06359 0.0
N17 N 0.23944 0.36277 0.04227 0.0
N18 N 0.23461 0.40694 0.06094 0.0
C19 C 0.18613 0.38722 0.09259 0.0
C20 C 0.15966 0.32773 0.09521 0.0
C21 C 0.18561 0.25452 0.0527 0.0
H22 H 0.2278 0.25648 0.04891 0.0
H23 H 0.16113 0.23721 0.01215 0.0
H24 H 0.16016 0.22498 0.08832 0.0
O25 O 0.37576 0.42526 0.01634 0.0
O26 O 0.36855 0.49981 0.05006 0.0
H27 H 0.11901 0.39783 0.13419 0.0
H28 H 0.15974 0.44902 0.07799 0.0
C29 C 0.16233 0.42396 0.11451 0.0
H30 H 0.19155 0.45453 0.14751 0.0
H31 H 0.3181 0.5285 0.15858 0.0
O32 O 0.28853 0.30512 0.95043 0.0
C33 C 0.3979 0.47522 0.03958 0.0
Co34 Co 0.88081 0.26956 0.27725 0.0
Co35 Co 0.77307 0.2615 0.3418 0.0
C36 C 0.77968 0.26625 0.21487 0.0
O37 O 0.82913 0.27027 0.21632 0.0
O38 O 0.75124 0.26045 0.26119 0.0
C39 C 0.93843 0.22815 0.19851 0.0
O40 O 0.88659 0.18817 0.18292 0.0
C41 C 0.65937 0.23797 0.38516 0.0
C42 C 0.6783 0.25629 0.47822 0.0
C43 C 0.63498 0.23884 0.43793 0.0
N44 N 0.71465 0.25333 0.39411 0.0
N45 N 0.72577 0.26476 0.44968 0.0
C46 C 0.63124 0.22378 0.3273 0.0
H47 H 0.65305 0.26246 0.29933 0.0
H48 H 0.6366 0.189 0.30673 0.0
H49 H 0.58482 0.20999 0.33077 0.0
C50 C 0.84497 0.16322 0.3463 0.0
N51 N 0.83952 0.20868 0.33043 0.0
N52 N 0.79296 0.20418 0.35503 0.0
C53 C 0.76653 0.15496 0.38565 0.0
C54 C 0.79889 0.12777 0.38128 0.0
C55 C 0.89205 0.15265 0.3269 0.0
H56 H 0.88153 0.13271 0.28327 0.0
H57 H 0.89663 0.12266 0.35638 0.0
H58 H 0.93303 0.19434 0.32508 0.0
O59 O 0.91513 0.34646 0.3154 0.0
O60 O 0.83698 0.33947 0.35732 0.0
H61 H 0.71682 0.15902 0.45628 0.0
H62 H 0.69124 0.08713 0.4288 0.0
C63 C 0.71013 0.13313 0.41643 0.0
H64 H 0.67957 0.13814 0.38846 0.0
H65 H 0.76585 0.27807 0.46813 0.0
O66 O 0.94459 0.26408 0.23819 0.0
C67 C 0.89018 0.36817 0.34495 0.0
Co68 Co 0.61873 0.87687 0.59579 0.0
Co69 Co 0.52494 0.78935 0.67975 0.0
C70 C 0.50603 0.7836 0.55215 0.0
O71 O 0.55629 0.82563 0.54308 0.0
O72 O 0.48861 0.76527 0.60306 0.0
C73 C 0.7009 0.91748 0.50209 0.0
O74 O 0.68126 0.86278 0.48922 0.0
C75 C 0.43814 0.67853 0.72833 0.0
C76 C 0.43548 0.70217 0.81964 0.0
C77 C 0.41195 0.6564 0.78098 0.0
N78 N 0.47611 0.73496 0.73554 0.0
N79 N 0.47407 0.74891 0.79011 0.0
C80 C 0.42698 0.64702 0.67202 0.0
H81 H 0.40183 0.65985 0.64417 0.0
H82 H 0.46848 0.65956 0.64993 0.0
H83 H 0.40222 0.5995 0.67801 0.0
C84 C 0.69042 0.84032 0.65891 0.0
N85 N 0.63928 0.83527 0.64595 0.0
N86 N 0.59951 0.79746 0.68081 0.0
C87 C 0.62415 0.7767 0.71656 0.0
C88 C 0.6824 0.80322 0.70381 0.0
C89 C 0.74649 0.88383 0.63284 0.0
H90 H 0.74841 0.92624 0.63032 0.0
H91 H 0.74936 0.86956 0.58839 0.0
H92 H 0.7835 0.88839 0.65812 0.0
O93 O 0.59425 0.92439 0.64061 0.0
O94 O 0.52885 0.86306 0.70106 0.0
H95 H 0.58196 0.75815 0.79869 0.0
H96 H 0.62103 0.72025 0.78471 0.0
C97 C 0.59368 0.73586 0.76507 0.0
H98 H 0.55365 0.69841 0.74874 0.0
H99 H 0.49925 0.79032 0.80726 0.0
O100 O 0.68293 0.93134 0.547 0.0
C101 C 0.55934 0.91428 0.68238 0.0
Co102 Co 0.73922 0.64992 0.94733 0.0
Co103 Co 0.72761 0.54852 0.0231 0.0
C104 C 0.71404 0.53756 0.89525 0.0
O105 O 0.72544 0.58945 0.88931 0.0
O106 O 0.71383 0.51699 0.94448 0.0
C107 C 0.78987 0.73235 0.85883 0.0
O108 O 0.81319 0.70031 0.84685 0.0
C109 C 0.73943 0.45043 0.05993 0.0
C110 C 0.72013 0.44695 0.15337 0.0
C111 C 0.73446 0.4203 0.1099 0.0
N112 N 0.72924 0.49365 0.0733 0.0
N113 N 0.71737 0.49112 0.12912 0.0
C114 C 0.75202 0.43751 0.00025 0.0
H115 H 0.71239 0.42015 0.97395 0.0
H116 H 0.78541 0.478 0.97978 0.0
H117 H 0.76653 0.40516 0.00054 0.0
C118 C 0.84594 0.71375 0.01484 0.0
N119 N 0.7996 0.6642 -0.00223 0.0
N120 N 0.79588 0.62111 0.02829 0.0
C121 C 0.84057 0.64179 0.0649 0.0
C122 C 0.87339 0.70106 0.05778 0.0
C123 C 0.85922 0.77251 -0.0042 0.0
H124 H 0.8196 0.77582 -0.00148 0.0
H125 H 0.87379 0.77872 0.95011 0.0
H126 H 0.8934 0.80706 0.02254 0.0
O127 O 0.66679 0.62532 -0.00866 0.0
O128 O 0.66042 0.55524 0.0463 0.0
H129 H 0.81725 0.59683 0.14513 0.0
H130 H 0.8929 0.63039 0.12804 0.0
C131 C 0.84891 0.60666 0.10971 0.0
H132 H 0.84168 0.56538 0.09047 0.0
H133 H 0.70714 0.51945 0.15058 0.0
O134 O 0.757 0.71932 0.90279 0.0
C135 C 0.64093 0.5877 0.03054 0.0
Co136 Co 0.06777 0.72215 0.30192 0.0
Co137 Co 0.15279 0.69818 0.37241 0.0
C138 C 0.15722 0.70494 0.24336 0.0
O139 O 0.11709 0.71697 0.24075 0.0
O140 O 0.17464 0.69704 0.29138 0.0
C141 C 0.04193 0.78574 0.22355 0.0
O142 O 0.09756 0.80963 0.21454 0.0
C143 C 0.26402 0.7126 0.4069 0.0
C144 C 0.24715 0.68168 0.49702 0.0
C145 C 0.29003 0.706 0.45536 0.0
N146 N 0.20856 0.69437 0.41973 0.0
N147 N 0.1985 0.67505 0.47335 0.0
C148 C 0.29146 0.73668 0.34962 0.0
H149 H 0.27254 0.70189 0.31653 0.0
H150 H 0.2821 0.77117 0.33703 0.0
H151 H 0.33864 0.75409 0.35041 0.0
C152 C 0.11153 0.82178 0.38271 0.0
N153 N 0.11112 0.77456 0.36093 0.0
N154 N 0.14719 0.76477 0.39031 0.0
C155 C 0.17181 0.80571 0.43147 0.0
C156 C 0.15019 0.84298 0.42775 0.0
C157 C 0.07401 0.84472 0.36258 0.0
H158 H 0.02906 0.80869 0.35938 0.0
H159 H 0.0885 0.86385 0.31912 0.0
H160 H 0.07579 0.87833 0.39251 0.0
O161 O 0.0183 0.64365 0.33441 0.0
O162 O 0.07833 0.62793 0.3855 0.0
H163 H 0.1927 0.77164 0.5044 0.0
H164 H 0.23352 0.84947 0.4998 0.0
C165 C 0.21439 0.80865 0.47441 0.0
H166 H 0.24894 0.80541 0.45137 0.0
H167 H 0.15875 0.65861 0.49422 0.0
O168 O 0.01918 0.74703 0.26217 0.0
C169 C 0.0276 0.61165 0.36806 0.0
Co170 Co 0.36494 0.06991 0.64957 0.0
Co171 Co 0.47209 0.17792 0.70234 0.0
C172 C 0.45131 0.17138 0.57754 0.0
O173 O 0.40724 0.12177 0.58411 0.0
O174 O 0.48091 0.20008 0.62085 0.0
C175 C 0.26239 0.02659 0.5861 0.0
O176 O 0.27347 0.0803 0.59018 0.0
C177 C 0.55868 0.29637 0.73619 0.0
C178 C 0.58465 0.28132 0.82169 0.0
C179 C 0.59346 0.32432 0.78316 0.0
N180 N 0.52966 0.23936 0.74702 0.0
N181 N 0.54603 0.23062 0.7978 0.0
C182 C 0.5526 0.32316 0.68225 0.0
H183 H 0.50633 0.30556 0.67265 0.0
H184 H 0.57454 0.37095 0.68591 0.0
H185 H 0.57193 0.31139 0.6457 0.0
C186 C 0.30519 0.10326 0.73875 0.0
N187 N 0.3527 0.10989 0.71117 0.0
N188 N 0.39776 0.15718 0.73049 0.0
C189 C 0.38004 0.18305 0.76912 0.0
C190 C 0.32111 0.14993 0.7755 0.0
C191 C 0.2458 0.05372 0.73023 0.0
H192 H 0.22481 0.06388 0.69479 0.0
H193 H 0.21953 0.04613 0.77001 0.0
H194 H 0.24773 0.01427 0.71884 0.0
O195 O 0.41094 0.0347 0.67422 0.0
O196 O 0.48751 0.11309 0.70887 0.0
H197 H 0.39349 0.256 0.82246 0.0
H198 H 0.44026 0.2721 0.76032 0.0
C199 C 0.41805 0.24092 0.79561 0.0
H200 H 0.45067 0.23893 0.82296 0.0
H201 H 0.52982 0.19006 0.8167 0.0
O202 O 0.2929 0.01084 0.61382 0.0
C203 C 0.46097 0.05949 0.69634 0.0
C204 C 0.55115 0.52834 0.09042 0.0
C205 C 0.58181 0.57344 0.0501 0.0
C206 C 0.49181 0.56077 0.01204 0.0
C207 C 0.46096 0.51011 0.04602 0.0
N208 N 0.45953 0.44664 0.12012 0.0
N209 N 0.58015 0.65179 0.00124 0.0
C210 C 0.49008 0.49445 0.08656 0.0
C211 C 0.55186 0.59587 0.0197 0.0
N212 N 0.58036 0.52112 0.13456 0.0
N213 N 0.46468 0.5735 0.9697 0.0
H214 H 0.62263 0.68048 0.01285 0.0
H215 H 0.5594 0.67173 0.98244 0.0
H216 H 0.42098 0.54804 0.96061 0.0
H217 H 0.48676 0.60634 0.93975 0.0
H218 H 0.56091 0.49138 0.16769 0.0
H219 H 0.62388 0.55018 0.14174 0.0
H220 H 0.47836 0.429 0.14596 0.0
H221 H 0.41467 0.42274 0.12015 0.0
C222 C 0.9302 0.52583 0.34596 0.0
C223 C 0.98133 0.55047 0.37879 0.0
C224 C 0.96469 0.45348 0.40078 0.0
C225 C 0.9209 0.43055 0.35844 0.0
N226 N 0.8641 0.44522 0.28699 0.0
N227 N 0.02735 0.5362 0.46057 0.0
C228 C 0.9036 0.46662 0.33055 0.0
C229 C -0.00708 0.51377 0.41329 0.0
N230 N 0.90487 0.55783 0.33317 0.0
N231 N 0.98003 0.41793 0.42789 0.0
H232 H 0.04228 0.57866 0.47437 0.0
H233 H 0.03503 0.51166 0.49003 0.0
H234 H 0.95845 0.37327 0.42145 0.0
H235 H 0.01589 0.43277 0.45431 0.0
H236 H 0.86514 0.54072 0.31285 0.0
H237 H 0.91915 0.59881 0.35089 0.0
H238 H 0.85507 0.47134 0.26099 0.0
H239 H 0.84419 0.4023 0.27306 0.0
C240 C 0.50218 0.94834 0.74286 0.0
C241 C 0.54722 0.96079 0.70268 0.0
C242 C 0.54304 0.04475 0.66833 0.0
C243 C 0.4922 0.02718 0.70163 0.0
N244 N 0.42424 0.96458 0.77318 0.0
N245 N 0.6299 0.03923 0.65677 0.0
C246 C 0.47223 0.97987 0.74016 0.0
C247 C 0.57387 0.01483 0.6744 0.0
N248 N 0.4918 0.91017 0.78644 0.0
N249 N 0.55998 0.08743 0.62801 0.0
H250 H 0.65559 0.02148 0.66738 0.0
H251 H 0.65292 0.08073 0.63973 0.0
H252 H 0.53783 0.10959 0.62028 0.0
H253 H 0.59297 0.09703 0.59829 0.0
H254 H 0.46193 0.90126 0.81943 0.0
H255 H 0.51895 0.89341 0.79401 0.0
H256 H 0.40336 0.92657 0.79689 0.0
H257 H 0.40345 0.98884 0.77478 0.0
C258 C 0.24078 0.72103 0.18223 0.0
C259 C 0.18041 0.69265 0.19029 0.0
C260 C 0.16862 0.60947 0.13469 0.0
C261 C 0.22946 0.63543 0.13102 0.0
N262 N 0.32212 0.72174 0.13397 0.0
N263 N 0.08694 0.62266 0.1541 0.0
C264 C 0.26512 0.69358 0.14871 0.0
C265 C 0.14436 0.64151 0.15904 0.0
N266 N 0.27449 0.77293 0.20892 0.0
N267 N 0.13402 0.55281 0.11982 0.0
H268 H 0.06789 0.64559 0.17063 0.0
H269 H 0.05961 0.58808 0.12774 0.0
H270 H 0.1496 0.52748 0.10181 0.0
H271 H 0.09012 0.52968 0.12906 0.0
H272 H 0.31915 0.79312 0.21086 0.0
H273 H 0.25683 0.79493 0.23083 0.0
H274 H 0.34999 0.7654 0.14217 0.0
H275 H 0.34029 0.70219 0.10876 0.0
C276 C 0.51576 0.25059 0.51066 0.0
C277 C 0.47666 0.19111 0.51896 0.0
C278 C 0.53093 0.16488 0.45261 0.0
C279 C 0.5752 0.2236 0.45204 0.0
N280 N 0.60283 0.32383 0.46292 0.0
N281 N 0.43004 0.09827 0.47137 0.0
C282 C 0.56487 0.26719 0.47476 0.0
C283 C 0.47829 0.15033 0.48067 0.0
N284 N 0.50647 0.29018 0.5393 0.0
N285 N 0.54038 0.12262 0.43059 0.0
H286 H 0.39005 0.08893 0.48799 0.0
H287 H 0.42825 0.06826 0.44109 0.0
H288 H 0.57849 0.13127 0.40983 0.0
H289 H 0.51165 0.07872 0.43635 0.0
H290 H 0.53533 0.3344 0.54004 0.0
H291 H 0.46865 0.27757 0.56291 0.0
H292 H 0.59733 0.35811 0.4763 0.0
H293 H 0.6384 0.33609 0.43581 0.0
C294 C 0.38441 0.55316 0.79896 0.0
C295 C 0.36848 0.59639 0.79562 0.0
C296 C 0.27746 0.53312 0.84485 0.0
C297 C 0.29767 0.4941 0.85517 0.0
N298 N 0.35105 0.45169 0.81373 0.0
N299 N 0.2935 0.62116 0.79777 0.0
C300 C 0.34461 0.49879 0.82241 0.0
C301 C 0.31241 0.58397 0.81237 0.0
N302 N 0.43853 0.56493 0.78365 0.0
N303 N 0.22613 0.52209 0.86848 0.0
H304 H 0.31848 0.65813 0.77324 0.0
H305 H 0.25208 0.61356 0.80602 0.0
H306 H 0.19913 0.48302 0.8892 0.0
H307 H 0.21072 0.55099 0.86832 0.0
H308 H 0.45405 0.53685 0.79195 0.0
H309 H 0.46933 0.60434 0.76641 0.0
H310 H 0.38292 0.45225 0.7871 0.0
H311 H 0.31965 0.41045 0.82642 0.0
C312 C 0.70407 0.27313 0.15883 0.0
C313 C 0.76121 0.28367 0.16181 0.0
C314 C 0.79726 0.37515 0.11218 0.0
C315 C 0.74187 0.36946 0.11739 0.0
N316 N 0.63947 0.30707 0.12773 0.0
N317 N 0.85082 0.32415 0.10967 0.0
C318 C 0.69391 0.316 0.13444 0.0
C319 C 0.80413 0.3278 0.12751 0.0
N320 N 0.66066 0.223 0.18116 0.0
N321 N 0.84393 0.42652 0.09667 0.0
H322 H 0.8534 0.28696 0.11663 0.0
H323 H 0.882 0.35379 0.08161 0.0
H324 H 0.84128 0.46302 0.08624 0.0
H325 H 0.88595 0.43398 0.09845 0.0
H326 H 0.61823 0.21365 0.18564 0.0
H327 H 0.66822 0.19034 0.19542 0.0
H328 H 0.60225 0.2685 0.1373 0.0
H329 H 0.63148 0.33766 0.1087 0.0
C330 C 0.36703 0.68241 0.47911 0.0
C331 C 0.35151 0.72434 0.46434 0.0
C332 C 0.45183 0.80025 0.47503 0.0
C333 C 0.46296 0.76097 0.50504 0.0
N334 N 0.4364 0.66293 0.52603 0.0
N335 N 0.37949 0.82519 0.45257 0.0
C336 C 0.42221 0.70116 0.5033 0.0
C337 C 0.39415 0.78379 0.46237 0.0
N338 N 0.32914 0.62512 0.4697 0.0
N339 N 0.49581 0.85299 0.45862 0.0
H340 H 0.33766 0.81576 0.44449 0.0
H341 H 0.40825 0.86924 0.45759 0.0
H342 H 0.5389 0.86474 0.46281 0.0
H343 H 0.48959 0.88139 0.43314 0.0
H344 H 0.33909 0.59251 0.47579 0.0
H345 H 0.28896 0.61061 0.45094 0.0
H346 H 0.40715 0.61935 0.53257 0.0
H347 H 0.47818 0.67599 0.53964 0.0
C348 C 0.6029 0.42118 0.80561 0.0
C349 C 0.62924 0.38708 0.79484 0.0
C350 C 0.72039 0.46438 0.8328 0.0
C351 C 0.69299 0.49682 0.84601 0.0
N352 N 0.61606 0.51616 0.82526 0.0
N353 N 0.71596 0.38215 0.78204 0.0
C354 C 0.63716 0.47891 0.825 0.0
C355 C 0.68923 0.41089 0.80289 0.0
N356 N 0.54458 0.39726 0.80231 0.0
N357 N 0.77539 0.48392 0.85101 0.0
H358 H 0.69389 0.3432 0.75932 0.0
H359 H 0.76034 0.39915 0.7826 0.0
H360 H 0.79999 0.5247 0.86984 0.0
H361 H 0.79571 0.45932 0.84935 0.0
H362 H 0.52254 0.41795 0.81695 0.0
H363 H 0.51749 0.35484 0.78953 0.0
H364 H 0.57746 0.5066 0.80566 0.0
H365 H 0.63983 0.55895 0.83896 0.0
C366 C 0.27708 0.15632 0.86877 0.0
C367 C 0.28434 0.16678 0.8087 0.0
C368 C 0.25527 0.23999 0.81775 0.0
C369 C 0.25001 0.23123 0.87855 0.0
N370 N 0.23819 0.16955 0.95883 0.0
N371 N 0.2651 0.20501 0.72354 0.0
C372 C 0.25527 0.18558 0.9031 0.0
C373 C 0.26773 0.20377 0.78239 0.0
N374 N 0.29323 0.12018 0.89314 0.0
N375 N 0.2528 0.28545 0.79407 0.0
H376 H 0.27511 0.17965 0.69661 0.0
H377 H 0.24786 0.22677 0.70169 0.0
H378 H 0.24317 0.31298 0.81763 0.0
H379 H 0.26414 0.2985 0.75143 0.0
H380 H 0.29599 0.11626 0.93753 0.0
H381 H 0.30645 0.09583 0.86853 0.0
H382 H 0.23656 0.13366 0.97808 0.0
H383 H 0.2196 0.18865 0.98373 0.0
C384 C 0.03368 0.2326 0.1926 0.0
C385 C 0.98975 0.23792 0.16474 0.0
C386 C 0.05381 0.28268 0.08188 0.0
C387 C 0.10032 0.28844 0.11538 0.0
N388 N 0.13606 0.26947 0.20264 0.0
N389 N 0.95697 0.2675 0.08183 0.0
C390 C 0.09067 0.26291 0.17054 0.0
C391 C -0.00092 0.26174 0.10847 0.0
N392 N 0.02026 0.19695 0.23894 0.0
N393 N 0.06226 0.29763 0.02484 0.0
H394 H 0.91555 0.25053 0.0986 0.0
H395 H 0.96385 0.2916 0.04451 0.0
H396 H 0.10208 0.31329 0.00432 0.0
H397 H 0.02899 0.28952 -0.00331 0.0
H398 H 0.04948 0.1879 0.25896 0.0
H399 H 0.97784 0.1706 0.25208 0.0
H400 H 0.13237 0.25766 0.24589 0.0
H401 H 0.17821 0.28984 0.18686 0.0
C402 C 0.81019 0.06522 0.45391 0.0
C403 C 0.78343 0.07014 0.40359 0.0
C404 C 0.71 0.96817 0.40877 0.0
C405 C 0.73557 0.96366 0.46045 0.0
N406 N 0.8189 0.00084 0.52098 0.0
N407 N 0.72035 0.02414 0.32306 0.0
C408 C 0.78889 0.01004 0.47917 0.0
C409 C 0.73765 0.02063 0.37746 0.0
N410 N 0.85387 0.1135 0.47911 0.0
N411 N 0.65741 0.92432 0.39189 0.0
H412 H 0.73989 0.06231 0.29926 0.0
H413 H 0.69067 0.98827 0.29958 0.0
H414 H 0.6358 0.88464 0.41275 0.0
H415 H 0.63343 0.9285 0.3591 0.0
H416 H 0.87053 0.11342 0.51951 0.0
H417 H 0.87129 0.15456 0.4611 0.0
H418 H 0.8602 0.03168 0.53375 0.0
H419 H 0.80467 0.95992 0.53813 0.0
C420 C 0.74031 0.8276 0.79422 0.0
C421 C 0.72723 0.80125 0.73873 0.0
C422 C 0.79052 0.76175 0.75591 0.0
C423 C 0.78889 0.77291 0.81557 0.0
N424 N 0.78308 0.83435 0.88841 0.0
N425 N 0.74308 0.74706 0.66385 0.0
C426 C 0.77088 0.81236 0.83359 0.0
C427 C 0.75422 0.77039 0.71818 0.0
N428 N 0.7228 0.86627 0.80881 0.0
N429 N 0.82812 0.74533 0.73527 0.0
H430 H 0.71766 0.75365 0.63452 0.0
H431 H 0.75631 0.71844 0.64922 0.0
H432 H 0.85991 0.74578 0.7612 0.0
H433 H 0.83344 0.7399 0.69145 0.0
H434 H 0.73114 0.88796 0.84815 0.0
H435 H 0.70172 0.87902 0.77983 0.0
H436 H 0.76821 0.86008 0.90707 0.0
H437 H 0.81036 0.82757 0.915 0.0
C438 C 0.90257 0.74897 0.15442 0.0
C439 C 0.91833 0.74207 0.09746 0.0
C440 C 0.0197 0.80091 0.12219 0.0
C441 C 0.00376 0.79194 0.18127 0.0
N442 N 0.9336 0.77868 0.25357 0.0
N443 N -0.00854 0.76576 0.02445 0.0
C444 C 0.946 0.7733 0.19729 0.0
C445 C 0.97683 0.77037 0.08013 0.0
N446 N 0.84629 0.7315 0.16697 0.0
N447 N 0.07479 0.83987 0.10649 0.0
H448 H 0.96097 0.74492 -0.00784 0.0
H449 H 0.03364 0.77984 0.01118 0.0
H450 H 0.10488 0.8677 0.13641 0.0
H451 H 0.08793 0.8505 0.0637 0.0
H452 H 0.8313 0.73582 0.20723 0.0
H453 H 0.8143 0.71502 0.13555 0.0
H454 H 0.89232 0.76228 0.27044 0.0
H455 H 0.96618 0.80169 0.28346 0.0
C456 C 0.14511 0.88776 0.52086 0.0
C457 C 0.1669 0.89483 0.46382 0.0
C458 C 0.23539 -0.00339 0.48324 0.0
C459 C 0.22134 0.98638 0.54292 0.0
N460 N 0.1598 0.92532 0.61887 0.0
N461 N 0.23126 0.95469 0.38875 0.0
C462 C 0.17462 0.93298 0.56169 0.0
C463 C 0.21071 0.94928 0.44402 0.0
N464 N 0.0964 0.83767 0.53556 0.0
N465 N 0.27291 0.05109 0.4641 0.0
H466 H 0.21282 0.92152 0.35818 0.0
H467 H 0.26842 0.99078 0.37381 0.0
H468 H 0.2935 0.08687 0.49123 0.0
H469 H 0.28015 0.06212 0.42061 0.0
H470 H 0.0754 0.83088 0.57518 0.0
H471 H 0.07414 0.80415 0.50599 0.0
H472 H 0.13112 0.88565 0.63714 0.0
H473 H 0.17756 0.95926 0.64859 0.0
loop_
_geom_bond_atom_site_label_1
_geom_bond_atom_site_label_2
_geom_bond_distance
_geom_bond_site_symmetry_2
_ccdc_geom_bond_type
Co0 O3 1.970 . S
Co0 N17 1.989 1_556 S
Co0 O25 1.967 . S
Co0 O32 1.920 . S
Co1 O4 1.966 1_554 S
Co1 N10 2.022 . S
Co1 N18 1.993 . S
Co1 O26 1.941 . S
C2 O3 1.258 . S
C2 O4 1.263 . S
O3 Co0 1.970 . S
O3 C2 1.258 . S
O4 Co1 1.966 1_556 S
O4 C2 1.263 . S
C5 O6 1.235 . S
C5 O32 1.289 . S
O6 C5 1.235 . S
C7 C9 1.400 . S
C7 N10 1.351 . S
C7 C12 1.501 . S
C8 C9 1.387 . S
C8 N11 1.341 . S
C9 C7 1.400 . S
C9 C8 1.387 . S
N10 Co1 2.022 . S
N10 C7 1.351 . S
N10 N11 1.365 . S
N11 C8 1.341 . S
N11 N10 1.365 . S
N11 H31 0.862 . S
C12 C7 1.501 . S
C12 H13 0.965 . S
C12 H14 0.961 . S
C12 H15 0.960 . S
H13 C12 0.965 . S
H14 C12 0.961 . S
H15 C12 0.960 . S
C16 N17 1.342 . S
C16 C20 1.401 . S
C16 C21 1.499 1_554 S
N17 Co0 1.989 1_554 S
N17 C16 1.342 . S
N17 N18 1.388 . S
N18 Co1 1.993 . S
N18 N17 1.388 . S
N18 C19 1.346 . S
C19 N18 1.346 . S
C19 C20 1.396 . S
C19 C29 1.510 . S
C20 C16 1.401 . S
C20 C19 1.396 . S
C21 C16 1.499 1_556 S
C21 H22 0.959 . S
C21 H23 0.960 . S
C21 H24 0.961 1_556 S
H22 C21 0.959 . S
H23 C21 0.960 . S
H24 C21 0.961 1_554 S
O25 Co0 1.967 . S
O25 C33 1.258 1_556 S
O26 Co1 1.941 . S
O26 C33 1.266 . S
H27 C29 0.959 . S
H28 C29 0.961 . S
C29 C19 1.510 . S
C29 H27 0.959 . S
C29 H28 0.961 . S
C29 H30 0.960 . S
H30 C29 0.960 . S
H31 N11 0.862 . S
O32 Co0 1.920 . S
O32 C5 1.289 . S
C33 O25 1.258 1_554 S
C33 O26 1.266 . S
Co34 O37 1.970 . S
Co34 N51 1.989 . S
Co34 O59 1.967 . S
Co34 O66 1.920 . S
Co35 O38 1.966 . S
Co35 N44 2.022 . S
Co35 N52 1.993 . S
Co35 O60 1.941 . S
C36 O37 1.258 . S
C36 O38 1.263 . S
O37 Co34 1.970 . S
O37 C36 1.258 . S
O38 Co35 1.966 . S
O38 C36 1.263 . S
C39 O40 1.235 . S
C39 O66 1.289 . S
O40 C39 1.235 . S
C41 C43 1.400 . S
C41 N44 1.351 . S
C41 C46 1.501 . S
C42 C43 1.387 . S
C42 N45 1.341 . S
C43 C41 1.400 . S
C43 C42 1.387 . S
N44 Co35 2.022 . S
N44 C41 1.351 . S
N44 N45 1.365 . S
N45 C42 1.341 . S
N45 N44 1.365 . S
N45 H65 0.862 . S
C46 C41 1.501 . S
C46 H47 0.961 . S
C46 H48 0.961 . S
C46 H49 0.960 . S
H47 C46 0.961 . S
H48 C46 0.961 . S
H49 C46 0.960 . S
C50 N51 1.342 . S
C50 C54 1.401 . S
C50 C55 1.499 . S
N51 Co34 1.989 . S
N51 C50 1.342 . S
N51 N52 1.388 . S
N52 Co35 1.993 . S
N52 N51 1.388 . S
N52 C53 1.346 . S
C53 N52 1.346 . S
C53 C54 1.396 . S
C53 C63 1.510 . S
C54 C50 1.401 . S
C54 C53 1.396 . S
C55 C50 1.499 . S
C55 H56 0.959 . S
C55 H57 0.960 . S
C55 H58 0.961 . S
H56 C55 0.959 . S
H57 C55 0.960 . S
H58 C55 0.961 . S
O59 Co34 1.967 . S
O59 C67 1.258 . S
O60 Co35 1.941 . S
O60 C67 1.266 . S
H61 C63 0.959 . S
H62 C63 0.961 . S
C63 C53 1.510 . S
C63 H61 0.959 . S
C63 H62 0.961 . S
C63 H64 0.960 . S
H64 C63 0.960 . S
H65 N45 0.862 . S
O66 Co34 1.920 . S
O66 C39 1.289 . S
C67 O59 1.258 . S
C67 O60 1.266 . S
Co68 O71 1.970 . S
Co68 N85 1.989 . S
Co68 O93 1.967 . S
Co68 O100 1.920 . S
Co69 O72 1.966 . S
Co69 N78 2.022 . S
Co69 N86 1.993 . S
Co69 O94 1.941 . S
C70 O71 1.258 . S
C70 O72 1.263 . S
O71 Co68 1.970 . S
O71 C70 1.258 . S
O72 Co69 1.966 . S
O72 C70 1.263 . S
C73 O74 1.235 . S
C73 O100 1.289 . S
O74 C73 1.235 . S
C75 C77 1.400 . S
C75 N78 1.351 . S
C75 C80 1.501 . S
C76 C77 1.387 . S
C76 N79 1.341 . S
C77 C75 1.400 . S
C77 C76 1.387 . S
N78 Co69 2.022 . S
N78 C75 1.351 . S
N78 N79 1.365 . S
N79 C76 1.341 . S
N79 N78 1.365 . S
N79 H99 0.862 . S
C80 C75 1.501 . S
C80 H81 0.961 . S
C80 H82 0.961 . S
C80 H83 0.960 . S
H81 C80 0.961 . S
H82 C80 0.961 . S
H83 C80 0.960 . S
C84 N85 1.342 . S
C84 C88 1.401 . S
C84 C89 1.499 . S
N85 Co68 1.989 . S
N85 C84 1.342 . S
N85 N86 1.388 . S
N86 Co69 1.993 . S
N86 N85 1.388 . S
N86 C87 1.346 . S
C87 N86 1.346 . S
C87 C88 1.396 . S
C87 C97 1.510 . S
C88 C84 1.401 . S
C88 C87 1.396 . S
C89 C84 1.499 . S
C89 H90 0.959 . S
C89 H91 0.960 . S
C89 H92 0.961 . S
H90 C89 0.959 . S
H91 C89 0.960 . S
H92 C89 0.961 . S
O93 Co68 1.967 . S
O93 C101 1.258 . S
O94 Co69 1.941 . S
O94 C101 1.266 . S
H95 C97 0.959 . S
H96 C97 0.961 . S
C97 C87 1.510 . S
C97 H95 0.959 . S
C97 H96 0.961 . S
C97 H98 0.960 . S
H98 C97 0.960 . S
H99 N79 0.862 . S
O100 Co68 1.920 . S
O100 C73 1.289 . S
C101 O93 1.258 . S
C101 O94 1.266 . S
Co102 O105 1.970 . S
Co102 N119 1.989 1_556 S
Co102 O127 1.967 . S
Co102 O134 1.920 . S
Co103 O106 1.966 1_554 S
Co103 N112 2.022 . S
Co103 N120 1.993 . S
Co103 O128 1.941 . S
C104 O105 1.258 . S
C104 O106 1.263 . S
O105 Co102 1.970 . S
O105 C104 1.258 . S
O106 Co103 1.966 1_556 S
O106 C104 1.263 . S
C107 O108 1.235 . S
C107 O134 1.289 . S
O108 C107 1.235 . S
C109 C111 1.400 . S
C109 N112 1.351 . S
C109 C114 1.501 . S
C110 C111 1.387 . S
C110 N113 1.341 . S
C111 C109 1.400 . S
C111 C110 1.387 . S
N112 Co103 2.022 . S
N112 C109 1.351 . S
N112 N113 1.365 . S
N113 C110 1.341 . S
N113 N112 1.365 . S
N113 H133 0.862 . S
C114 C109 1.501 . S
C114 H115 0.965 . S
C114 H116 0.961 . S
C114 H117 0.960 . S
H115 C114 0.965 . S
H116 C114 0.961 . S
H117 C114 0.960 . S
C118 N119 1.342 . S
C118 C122 1.401 . S
C118 C123 1.499 1_554 S
N119 Co102 1.989 1_554 S
N119 C118 1.342 . S
N119 N120 1.388 . S
N120 Co103 1.993 . S
N120 N119 1.388 . S
N120 C121 1.346 . S
C121 N120 1.346 . S
C121 C122 1.396 . S
C121 C131 1.510 . S
C122 C118 1.401 . S
C122 C121 1.396 . S
C123 C118 1.499 1_556 S
C123 H124 0.959 . S
C123 H125 0.960 . S
C123 H126 0.961 1_556 S
H124 C123 0.959 . S
H125 C123 0.960 . S
H126 C123 0.961 1_554 S
O127 Co102 1.967 . S
O127 C135 1.258 1_556 S
O128 Co103 1.941 . S
O128 C135 1.266 . S
H129 C131 0.959 . S
H130 C131 0.961 . S
C131 C121 1.510 . S
C131 H129 0.959 . S
C131 H130 0.961 . S
C131 H132 0.960 . S
H132 C131 0.960 . S
H133 N113 0.862 . S
O134 Co102 1.920 . S
O134 C107 1.289 . S
C135 O127 1.258 1_554 S
C135 O128 1.266 . S
Co136 O139 1.970 . S
Co136 N153 1.989 . S
Co136 O161 1.967 . S
Co136 O168 1.920 . S
Co137 O140 1.966 . S
Co137 N146 2.022 . S
Co137 N154 1.993 . S
Co137 O162 1.941 . S
C138 O139 1.258 . S
C138 O140 1.263 . S
O139 Co136 1.970 . S
O139 C138 1.258 . S
O140 Co137 1.966 . S
O140 C138 1.263 . S
C141 O142 1.235 . S
C141 O168 1.289 . S
O142 C141 1.235 . S
C143 C145 1.400 . S
C143 N146 1.351 . S
C143 C148 1.501 . S
C144 C145 1.387 . S
C144 N147 1.341 . S
C145 C143 1.400 . S
C145 C144 1.387 . S
N146 Co137 2.022 . S
N146 C143 1.351 . S
N146 N147 1.365 . S
N147 C144 1.341 . S
N147 N146 1.365 . S
N147 H167 0.862 . S
C148 C143 1.501 . S
C148 H149 0.961 . S
C148 H150 0.961 . S
C148 H151 0.960 . S
H149 C148 0.961 . S
H150 C148 0.961 . S
H151 C148 0.960 . S
C152 N153 1.342 . S
C152 C156 1.401 . S
C152 C157 1.499 . S
N153 Co136 1.989 . S
N153 C152 1.342 . S
N153 N154 1.388 . S
N154 Co137 1.993 . S
N154 N153 1.388 . S
N154 C155 1.346 . S
C155 N154 1.346 . S
C155 C156 1.396 . S
C155 C165 1.510 . S
C156 C152 1.401 . S
C156 C155 1.396 . S
C157 C152 1.499 . S
C157 H158 0.959 . S
C157 H159 0.960 . S
C157 H160 0.961 . S
H158 C157 0.959 . S
H159 C157 0.960 . S
H160 C157 0.961 . S
O161 Co136 1.967 . S
O161 C169 1.258 . S
O162 Co137 1.941 . S
O162 C169 1.266 . S
H163 C165 0.959 . S
H164 C165 0.961 . S
C165 C155 1.510 . S
C165 H163 0.959 . S
C165 H164 0.961 . S
C165 H166 0.960 . S
H166 C165 0.960 . S
H167 N147 0.862 . S
O168 Co136 1.920 . S
O168 C141 1.289 . S
C169 O161 1.258 . S
C169 O162 1.266 . S
Co170 O173 1.970 . S
Co170 N187 1.989 . S
Co170 O195 1.967 . S
Co170 O202 1.920 . S
Co171 O174 1.966 . S
Co171 N180 2.022 . S
Co171 N188 1.993 . S
Co171 O196 1.941 . S
C172 O173 1.258 . S
C172 O174 1.263 . S
O173 Co170 1.970 . S
O173 C172 1.258 . S
O174 Co171 1.966 . S
O174 C172 1.263 . S
C175 O176 1.235 . S
C175 O202 1.289 . S
O176 C175 1.235 . S
C177 C179 1.400 . S
C177 N180 1.351 . S
C177 C182 1.501 . S
C178 C179 1.387 . S
C178 N181 1.341 . S
C179 C177 1.400 . S
C179 C178 1.387 . S
N180 Co171 2.022 . S
N180 C177 1.351 . S
N180 N181 1.365 . S
N181 C178 1.341 . S
N181 N180 1.365 . S
N181 H201 0.862 . S
C182 C177 1.501 . S
C182 H183 0.961 . S
C182 H184 0.961 . S
C182 H185 0.960 . S
H183 C182 0.961 . S
H184 C182 0.961 . S
H185 C182 0.960 . S
C186 N187 1.342 . S
C186 C190 1.401 . S
C186 C191 1.499 . S
N187 Co170 1.989 . S
N187 C186 1.342 . S
N187 N188 1.388 . S
N188 Co171 1.993 . S
N188 N187 1.388 . S
N188 C189 1.346 . S
C189 N188 1.346 . S
C189 C190 1.396 . S
C189 C199 1.510 . S
C190 C186 1.401 . S
C190 C189 1.396 . S
C191 C186 1.499 . S
C191 H192 0.959 . S
C191 H193 0.960 . S
C191 H194 0.961 . S
H192 C191 0.959 . S
H193 C191 0.960 . S
H194 C191 0.961 . S
O195 Co170 1.967 . S
O195 C203 1.258 . S
O196 Co171 1.941 . S
O196 C203 1.266 . S
H197 C199 0.959 . S
H198 C199 0.961 . S
C199 C189 1.510 . S
C199 H197 0.959 . S
C199 H198 0.961 . S
C199 H200 0.960 . S
H200 C199 0.960 . S
H201 N181 0.862 . S
O202 Co170 1.920 . S
O202 C175 1.289 . S
C203 O195 1.258 . S
C203 O196 1.266 . S
C204 C205 1.363 . S
C204 C210 1.379 . S
C204 N212 1.356 . S
C205 C204 1.363 . S
C205 C211 1.363 . S
C206 C207 1.363 . S
C206 C211 1.379 . S
C206 N213 1.356 1_554 S
C207 C206 1.363 . S
C207 C210 1.363 . S
N208 C210 1.356 . S
N208 H220 0.984 . S
N208 H221 0.985 . S
N209 C211 1.356 1_556 S
N209 H214 0.984 . S
N209 H215 0.985 . S
C210 C204 1.379 . S
C210 C207 1.363 . S
C210 N208 1.356 . S
C211 C205 1.363 . S
C211 C206 1.379 . S
C211 N209 1.356 1_554 S
N212 C204 1.356 . S
N212 H218 0.984 . S
N212 H219 0.984 . S
N213 C206 1.356 1_556 S
N213 H216 0.984 . S
N213 H217 0.985 . S
H214 N209 0.984 . S
H215 N209 0.985 . S
H216 N213 0.984 . S
H217 N213 0.985 . S
H218 N212 0.984 . S
H219 N212 0.984 . S
H220 N208 0.984 . S
H221 N208 0.985 . S
C222 C223 1.363 1_655 S
C222 C228 1.379 . S
C222 N230 1.356 . S
C223 C222 1.363 1_455 S
C223 C229 1.363 . S
C224 C225 1.363 1_455 S
C224 C229 1.379 . S
C224 N231 1.356 . S
C225 C224 1.363 1_655 S
C225 C228 1.363 . S
N226 C228 1.356 . S
N226 H238 0.984 . S
N226 H239 0.985 . S
N227 C229 1.356 . S
N227 H232 0.984 . S
N227 H233 0.985 . S
C228 C222 1.379 . S
C228 C225 1.363 . S
C228 N226 1.356 . S
C229 C223 1.363 . S
C229 C224 1.379 . S
C229 N227 1.356 . S
N230 C222 1.356 . S
N230 H236 0.984 . S
N230 H237 0.984 . S
N231 C224 1.356 . S
N231 H234 0.984 . S
N231 H235 0.985 . S
H232 N227 0.984 . S
H233 N227 0.985 . S
H234 N231 0.984 . S
H235 N231 0.985 . S
H236 N230 0.984 . S
H237 N230 0.984 . S
H238 N226 0.984 . S
H239 N226 0.985 . S
C240 C241 1.363 . S
C240 C246 1.379 . S
C240 N248 1.356 . S
C241 C240 1.363 . S
C241 C247 1.363 1_565 S
C242 C243 1.363 . S
C242 C247 1.379 . S
C242 N249 1.356 . S
C243 C242 1.363 . S
C243 C246 1.363 1_545 S
N244 C246 1.356 . S
N244 H256 0.984 . S
N244 H257 0.985 . S
N245 C247 1.356 . S
N245 H250 0.984 . S
N245 H251 0.985 . S
C246 C240 1.379 . S
C246 C243 1.363 1_565 S
C246 N244 1.356 . S
C247 C241 1.363 1_545 S
C247 C242 1.379 . S
C247 N245 1.356 . S
N248 C240 1.356 . S
N248 H254 0.984 . S
N248 H255 0.984 . S
N249 C242 1.356 . S
N249 H252 0.984 . S
N249 H253 0.985 . S
H250 N245 0.984 . S
H251 N245 0.985 . S
H252 N249 0.984 . S
H253 N249 0.985 . S
H254 N248 0.984 . S
H255 N248 0.984 . S
H256 N244 0.984 . S
H257 N244 0.985 . S
C258 C259 1.363 . S
C258 C264 1.379 . S
C258 N266 1.356 . S
C259 C258 1.363 . S
C259 C265 1.363 . S
C260 C261 1.363 . S
C260 C265 1.379 . S
C260 N267 1.356 . S
C261 C260 1.363 . S
C261 C264 1.363 . S
N262 C264 1.356 . S
N262 H274 0.984 . S
N262 H275 0.985 . S
N263 C265 1.356 . S
N263 H268 0.984 . S
N263 H269 0.985 . S
C264 C258 1.379 . S
C264 C261 1.363 . S
C264 N262 1.356 . S
C265 C259 1.363 . S
C265 C260 1.379 . S
C265 N263 1.356 . S
N266 C258 1.356 . S
N266 H272 0.984 . S
N266 H273 0.984 . S
N267 C260 1.356 . S
N267 H270 0.984 . S
N267 H271 0.985 . S
H268 N263 0.984 . S
H269 N263 0.985 . S
H270 N267 0.984 . S
H271 N267 0.985 . S
H272 N266 0.984 . S
H273 N266 0.984 . S
H274 N262 0.984 . S
H275 N262 0.985 . S
C276 C277 1.363 . S
C276 C282 1.379 . S
C276 N284 1.356 . S
C277 C276 1.363 . S
C277 C283 1.363 . S
C278 C279 1.363 . S
C278 C283 1.379 . S
C278 N285 1.356 . S
C279 C278 1.363 . S
C279 C282 1.363 . S
N280 C282 1.356 . S
N280 H292 0.984 . S
N280 H293 0.985 . S
N281 C283 1.356 . S
N281 H286 0.984 . S
N281 H287 0.985 . S
C282 C276 1.379 . S
C282 C279 1.363 . S
C282 N280 1.356 . S
C283 C277 1.363 . S
C283 C278 1.379 . S
C283 N281 1.356 . S
N284 C276 1.356 . S
N284 H290 0.984 . S
N284 H291 0.984 . S
N285 C278 1.356 . S
N285 H288 0.984 . S
N285 H289 0.985 . S
H286 N281 0.984 . S
H287 N281 0.985 . S
H288 N285 0.984 . S
H289 N285 0.985 . S
H290 N284 0.984 . S
H291 N284 0.984 . S
H292 N280 0.984 . S
H293 N280 0.985 . S
C294 C295 1.363 . S
C294 C300 1.379 . S
C294 N302 1.356 . S
C295 C294 1.363 . S
C295 C301 1.363 . S
C296 C297 1.363 . S
C296 C301 1.379 . S
C296 N303 1.356 . S
C297 C296 1.363 . S
C297 C300 1.363 . S
N298 C300 1.356 . S
N298 H310 0.984 . S
N298 H311 0.985 . S
N299 C301 1.356 . S
N299 H304 0.984 . S
N299 H305 0.985 . S
C300 C294 1.379 . S
C300 C297 1.363 . S
C300 N298 1.356 . S
C301 C295 1.363 . S
C301 C296 1.379 . S
C301 N299 1.356 . S
N302 C294 1.356 . S
N302 H308 0.984 . S
N302 H309 0.984 . S
N303 C296 1.356 . S
N303 H306 0.984 . S
N303 H307 0.985 . S
H304 N299 0.984 . S
H305 N299 0.985 . S
H306 N303 0.984 . S
H307 N303 0.985 . S
H308 N302 0.984 . S
H309 N302 0.984 . S
H310 N298 0.984 . S
H311 N298 0.985 . S
C312 C313 1.363 . S
C312 C318 1.379 . S
C312 N320 1.356 . S
C313 C312 1.363 . S
C313 C319 1.363 . S
C314 C315 1.363 . S
C314 C319 1.379 . S
C314 N321 1.356 . S
C315 C314 1.363 . S
C315 C318 1.363 . S
N316 C318 1.356 . S
N316 H328 0.984 . S
N316 H329 0.985 . S
N317 C319 1.356 . S
N317 H322 0.984 . S
N317 H323 0.985 . S
C318 C312 1.379 . S
C318 C315 1.363 . S
C318 N316 1.356 . S
C319 C313 1.363 . S
C319 C314 1.379 . S
C319 N317 1.356 . S
N320 C312 1.356 . S
N320 H326 0.984 . S
N320 H327 0.984 . S
N321 C314 1.356 . S
N321 H324 0.984 . S
N321 H325 0.985 . S
H322 N317 0.984 . S
H323 N317 0.985 . S
H324 N321 0.984 . S
H325 N321 0.985 . S
H326 N320 0.984 . S
H327 N320 0.984 . S
H328 N316 0.984 . S
H329 N316 0.985 . S
C330 C331 1.363 . S
C330 C336 1.379 . S
C330 N338 1.356 . S
C331 C330 1.363 . S
C331 C337 1.363 . S
C332 C333 1.363 . S
C332 C337 1.379 . S
C332 N339 1.356 . S
C333 C332 1.363 . S
C333 C336 1.363 . S
N334 C336 1.356 . S
N334 H346 0.984 . S
N334 H347 0.985 . S
N335 C337 1.356 . S
N335 H340 0.984 . S
N335 H341 0.985 . S
C336 C330 1.379 . S
C336 C333 1.363 . S
C336 N334 1.356 . S
C337 C331 1.363 . S
C337 C332 1.379 . S
C337 N335 1.356 . S
N338 C330 1.356 . S
N338 H344 0.984 . S
N338 H345 0.984 . S
N339 C332 1.356 . S
N339 H342 0.984 . S
N339 H343 0.985 . S
H340 N335 0.984 . S
H341 N335 0.985 . S
H342 N339 0.984 . S
H343 N339 0.985 . S
H344 N338 0.984 . S
H345 N338 0.984 . S
H346 N334 0.984 . S
H347 N334 0.985 . S
C348 C349 1.363 . S
C348 C354 1.379 . S
C348 N356 1.356 . S
C349 C348 1.363 . S
C349 C355 1.363 . S
C350 C351 1.363 . S
C350 C355 1.379 . S
C350 N357 1.356 . S
C351 C350 1.363 . S
C351 C354 1.363 . S
N352 C354 1.356 . S
N352 H364 0.984 . S
N352 H365 0.985 . S
N353 C355 1.356 . S
N353 H358 0.984 . S
N353 H359 0.985 . S
C354 C348 1.379 . S
C354 C351 1.363 . S
C354 N352 1.356 . S
C355 C349 1.363 . S
C355 C350 1.379 . S
C355 N353 1.356 . S
N356 C348 1.356 . S
N356 H362 0.984 . S
N356 H363 0.984 . S
N357 C350 1.356 . S
N357 H360 0.984 . S
N357 H361 0.985 . S
H358 N353 0.984 . S
H359 N353 0.985 . S
H360 N357 0.984 . S
H361 N357 0.985 . S
H362 N356 0.984 . S
H363 N356 0.984 . S
H364 N352 0.984 . S
H365 N352 0.985 . S
C366 C367 1.363 . S
C366 C372 1.379 . S
C366 N374 1.356 . S
C367 C366 1.363 . S
C367 C373 1.363 . S
C368 C369 1.363 . S
C368 C373 1.379 . S
C368 N375 1.356 . S
C369 C368 1.363 . S
C369 C372 1.363 . S
N370 C372 1.356 . S
N370 H382 0.984 . S
N370 H383 0.985 . S
N371 C373 1.356 . S
N371 H376 0.984 . S
N371 H377 0.985 . S
C372 C366 1.379 . S
C372 C369 1.363 . S
C372 N370 1.356 . S
C373 C367 1.363 . S
C373 C368 1.379 . S
C373 N371 1.356 . S
N374 C366 1.356 . S
N374 H380 0.984 . S
N374 H381 0.984 . S
N375 C368 1.356 . S
N375 H378 0.984 . S
N375 H379 0.985 . S
H376 N371 0.984 . S
H377 N371 0.985 . S
H378 N375 0.984 . S
H379 N375 0.985 . S
H380 N374 0.984 . S
H381 N374 0.984 . S
H382 N370 0.984 . S
H383 N370 0.985 . S
C384 C385 1.363 . S
C384 C390 1.379 . S
C384 N392 1.356 . S
C385 C384 1.363 . S
C385 C391 1.363 . S
C386 C387 1.363 . S
C386 C391 1.379 . S
C386 N393 1.356 . S
C387 C386 1.363 . S
C387 C390 1.363 . S
N388 C390 1.356 . S
N388 H400 0.984 . S
N388 H401 0.985 . S
N389 C391 1.356 1_655 S
N389 H394 0.984 . S
N389 H395 0.985 . S
C390 C384 1.379 . S
C390 C387 1.363 . S
C390 N388 1.356 . S
C391 C385 1.363 . S
C391 C386 1.379 . S
C391 N389 1.356 1_455 S
N392 C384 1.356 . S
N392 H398 0.984 . S
N392 H399 0.984 1_455 S
N393 C386 1.356 . S
N393 H396 0.984 . S
N393 H397 0.985 . S
H394 N389 0.984 . S
H395 N389 0.985 . S
H396 N393 0.984 . S
H397 N393 0.985 . S
H398 N392 0.984 . S
H399 N392 0.984 1_655 S
H400 N388 0.984 . S
H401 N388 0.985 . S
C402 C403 1.363 . S
C402 C408 1.379 . S
C402 N410 1.356 . S
C403 C402 1.363 . S
C403 C409 1.363 . S
C404 C405 1.363 . S
C404 C409 1.379 . S
C404 N411 1.356 . S
C405 C404 1.363 . S
C405 C408 1.363 . S
N406 C408 1.356 1_565 S
N406 H418 0.984 . S
N406 H419 0.985 . S
N407 C409 1.356 . S
N407 H412 0.984 . S
N407 H413 0.985 . S
C408 C402 1.379 . S
C408 C405 1.363 . S
C408 N406 1.356 1_545 S
C409 C403 1.363 . S
C409 C404 1.379 . S
C409 N407 1.356 . S
N410 C402 1.356 . S
N410 H416 0.984 . S
N410 H417 0.984 . S
N411 C404 1.356 . S
N411 H414 0.984 1_545 S
N411 H415 0.985 . S
H412 N407 0.984 . S
H413 N407 0.985 . S
H414 N411 0.984 1_565 S
H415 N411 0.985 . S
H416 N410 0.984 . S
H417 N410 0.984 . S
H418 N406 0.984 . S
H419 N406 0.985 . S
C420 C421 1.363 . S
C420 C426 1.379 . S
C420 N428 1.356 . S
C421 C420 1.363 . S
C421 C427 1.363 . S
C422 C423 1.363 . S
C422 C427 1.379 . S
C422 N429 1.356 . S
C423 C422 1.363 . S
C423 C426 1.363 . S
N424 C426 1.356 . S
N424 H436 0.984 . S
N424 H437 0.985 . S
N425 C427 1.356 . S
N425 H430 0.984 . S
N425 H431 0.985 . S
C426 C420 1.379 . S
C426 C423 1.363 . S
C426 N424 1.356 . S
C427 C421 1.363 . S
C427 C422 1.379 . S
C427 N425 1.356 . S
N428 C420 1.356 . S
N428 H434 0.984 . S
N428 H435 0.984 . S
N429 C422 1.356 . S
N429 H432 0.984 . S
N429 H433 0.985 . S
H430 N425 0.984 . S
H431 N425 0.985 . S
H432 N429 0.984 . S
H433 N429 0.985 . S
H434 N428 0.984 . S
H435 N428 0.984 . S
H436 N424 0.984 . S
H437 N424 0.985 . S
C438 C439 1.363 . S
C438 C444 1.379 . S
C438 N446 1.356 . S
C439 C438 1.363 . S
C439 C445 1.363 . S
C440 C441 1.363 1_455 S
C440 C445 1.379 1_455 S
C440 N447 1.356 . S
C441 C440 1.363 1_655 S
C441 C444 1.363 . S
N442 C444 1.356 . S
N442 H454 0.984 . S
N442 H455 0.985 . S
N443 C445 1.356 . S
N443 H448 0.984 . S
N443 H449 0.985 . S
C444 C438 1.379 . S
C444 C441 1.363 . S
C444 N442 1.356 . S
C445 C439 1.363 . S
C445 C440 1.379 1_655 S
C445 N443 1.356 . S
N446 C438 1.356 . S
N446 H452 0.984 . S
N446 H453 0.984 . S
N447 C440 1.356 . S
N447 H450 0.984 . S
N447 H451 0.985 . S
H448 N443 0.984 . S
H449 N443 0.985 . S
H450 N447 0.984 . S
H451 N447 0.985 . S
H452 N446 0.984 . S
H453 N446 0.984 . S
H454 N442 0.984 . S
H455 N442 0.985 . S
C456 C457 1.363 . S
C456 C462 1.379 . S
C456 N464 1.356 . S
C457 C456 1.363 . S
C457 C463 1.363 . S
C458 C459 1.363 . S
C458 C463 1.379 . S
C458 N465 1.356 1_565 S
C459 C458 1.363 . S
C459 C462 1.363 . S
N460 C462 1.356 . S
N460 H472 0.984 . S
N460 H473 0.983 1_565 S
N461 C463 1.356 . S
N461 H466 0.984 . S
N461 H467 0.985 . S
C462 C456 1.379 . S
C462 C459 1.363 . S
C462 N460 1.356 . S
C463 C457 1.363 . S
C463 C458 1.379 . S
C463 N461 1.356 . S
N464 C456 1.356 . S
N464 H470 0.984 . S
N464 H471 0.984 . S
N465 C458 1.356 1_545 S
N465 H468 0.984 . S
N465 H469 0.985 . S
H466 N461 0.984 . S
H467 N461 0.985 . S
H468 N465 0.984 . S
H469 N465 0.985 . S
H470 N464 0.984 . S
H471 N464 0.984 . S
H472 N460 0.984 . S
H473 N460 0.983 1_545 S
C205 C135 1.459 . S
C207 C33 1.459 . S
C223 C169 1.459 . S
C225 C67 1.459 . S
C241 C101 1.459 . S
C243 C203 1.459 . S
C259 C138 1.149 . S
C261 C9 1.133 . S
C277 C172 1.149 . S
C279 C43 1.133 . S
C295 C77 1.133 . S
C297 C2 1.149 . S
C313 C36 1.149 . S
C315 C111 1.133 . S
C331 C145 1.133 . S
C333 C70 1.149 . S
C349 C179 1.133 . S
C351 C104 1.149 . S
C367 C190 1.101 . S
C369 C5 1.137 . S
C385 C39 1.137 1_455 S
C387 C20 1.101 . S
C403 C54 1.101 . S
C405 C73 1.137 1_545 S
C421 C88 1.101 . S
C423 C107 1.137 . S
C439 C122 1.101 . S
C441 C141 1.137 1_655 S
C457 C156 1.101 . S
C459 C175 1.137 1_565 S
