# Generated by pormake.
# Topology kfi, (4)-cn, num edge types: 1
# Building blocks:
#     Node 0, Type 0, BuildingBlock: KUFVIS_clean_sbu_0, # of connection points: 4
#     Node 1, Type 0, BuildingBlock: KUFVIS_clean_sbu_0, # of connection points: 4
#     Node 2, Type 0, BuildingBlock: KUFVIS_clean_sbu_0, # of connection points: 4
#     Node 3, Type 0, BuildingBlock: KUFVIS_clean_sbu_0, # of connection points: 4
#     Node 4, Type 0, BuildingBlock: KUFVIS_clean_sbu_0, # of connection points: 4
#     Node 5, Type 0, BuildingBlock: KUFVIS_clean_sbu_0, # of connection points: 4
#     Node 6, Type 0, BuildingBlock: KUFVIS_clean_sbu_0, # of connection points: 4
#     Node 7, Type 0, BuildingBlock: KUFVIS_clean_sbu_0, # of connection points: 4
#     Node 8, Type 0, BuildingBlock: KUFVIS_clean_sbu_0, # of connection points: 4
#     Node 9, Type 0, BuildingBlock: KUFVIS_clean_sbu_0, # of connection points: 4
#     Node 10, Type 0, BuildingBlock: KUFVIS_clean_sbu_0, # of connection points: 4
#     Node 11, Type 0, BuildingBlock: KUFVIS_clean_sbu_0, # of connection points: 4
#     Node 12, Type 0, BuildingBlock: KUFVIS_clean_sbu_0, # of connection points: 4
#     Node 13, Type 0, BuildingBlock: KUFVIS_clean_sbu_0, # of connection points: 4
#     Node 14, Type 0, BuildingBlock: KUFVIS_clean_sbu_0, # of connection points: 4
#     Node 15, Type 0, BuildingBlock: KUFVIS_clean_sbu_0, # of connection points: 4
#     Node 16, Type 0, BuildingBlock: KUFVIS_clean_sbu_0, # of connection points: 4
#     Node 17, Type 0, BuildingBlock: KUFVIS_clean_sbu_0, # of connection points: 4
#     Node 18, Type 0, BuildingBlock: KUFVIS_clean_sbu_0, # of connection points: 4
#     Node 19, Type 0, BuildingBlock: KUFVIS_clean_sbu_0, # of connection points: 4
#     Node 20, Type 0, BuildingBlock: KUFVIS_clean_sbu_0, # of connection points: 4
#     Node 21, Type 0, BuildingBlock: KUFVIS_clean_sbu_0, # of connection points: 4
#     Node 22, Type 0, BuildingBlock: KUFVIS_clean_sbu_0, # of connection points: 4
#     Node 23, Type 0, BuildingBlock: KUFVIS_clean_sbu_0, # of connection points: 4
#     Node 24, Type 0, BuildingBlock: KUFVIS_clean_sbu_0, # of connection points: 4
#     Node 25, Type 0, BuildingBlock: KUFVIS_clean_sbu_0, # of connection points: 4
#     Node 26, Type 0, BuildingBlock: KUFVIS_clean_sbu_0, # of connection points: 4
#     Node 27, Type 0, BuildingBlock: KUFVIS_clean_sbu_0, # of connection points: 4
#     Node 28, Type 0, BuildingBlock: KUFVIS_clean_sbu_0, # of connection points: 4
#     Node 29, Type 0, BuildingBlock: KUFVIS_clean_sbu_0, # of connection points: 4
#     Node 30, Type 0, BuildingBlock: KUFVIS_clean_sbu_0, # of connection points: 4
#     Node 31, Type 0, BuildingBlock: KUFVIS_clean_sbu_0, # of connection points: 4
#     Node 32, Type 0, BuildingBlock: KUFVIS_clean_sbu_0, # of connection points: 4
#     Node 33, Type 0, BuildingBlock: KUFVIS_clean_sbu_0, # of connection points: 4
#     Node 34, Type 0, BuildingBlock: KUFVIS_clean_sbu_0, # of connection points: 4
#     Node 35, Type 0, BuildingBlock: KUFVIS_clean_sbu_0, # of connection points: 4
#     Node 36, Type 0, BuildingBlock: KUFVIS_clean_sbu_0, # of connection points: 4
#     Node 37, Type 0, BuildingBlock: KUFVIS_clean_sbu_0, # of connection points: 4
#     Node 38, Type 0, BuildingBlock: KUFVIS_clean_sbu_0, # of connection points: 4
#     Node 39, Type 0, BuildingBlock: KUFVIS_clean_sbu_0, # of connection points: 4
#     Node 40, Type 0, BuildingBlock: KUFVIS_clean_sbu_0, # of connection points: 4
#     Node 41, Type 0, BuildingBlock: KUFVIS_clean_sbu_0, # of connection points: 4
#     Node 42, Type 0, BuildingBlock: KUFVIS_clean_sbu_0, # of connection points: 4
#     Node 43, Type 0, BuildingBlock: KUFVIS_clean_sbu_0, # of connection points: 4
#     Node 44, Type 0, BuildingBlock: KUFVIS_clean_sbu_0, # of connection points: 4
#     Node 45, Type 0, BuildingBlock: KUFVIS_clean_sbu_0, # of connection points: 4
#     Node 46, Type 0, BuildingBlock: KUFVIS_clean_sbu_0, # of connection points: 4
#     Node 47, Type 0, BuildingBlock: KUFVIS_clean_sbu_0, # of connection points: 4
#     Node 48, Type 0, BuildingBlock: KUFVIS_clean_sbu_0, # of connection points: 4
#     Node 49, Type 0, BuildingBlock: KUFVIS_clean_sbu_0, # of connection points: 4
#     Node 50, Type 0, BuildingBlock: KUFVIS_clean_sbu_0, # of connection points: 4
#     Node 51, Type 0, BuildingBlock: KUFVIS_clean_sbu_0, # of connection points: 4
#     Node 52, Type 0, BuildingBlock: KUFVIS_clean_sbu_0, # of connection points: 4
#     Node 53, Type 0, BuildingBlock: KUFVIS_clean_sbu_0, # of connection points: 4
#     Node 54, Type 0, BuildingBlock: KUFVIS_clean_sbu_0, # of connection points: 4
#     Node 55, Type 0, BuildingBlock: KUFVIS_clean_sbu_0, # of connection points: 4
#     Node 56, Type 0, BuildingBlock: KUFVIS_clean_sbu_0, # of connection points: 4
#     Node 57, Type 0, BuildingBlock: KUFVIS_clean_sbu_0, # of connection points: 4
#     Node 58, Type 0, BuildingBlock: KUFVIS_clean_sbu_0, # of connection points: 4
#     Node 59, Type 0, BuildingBlock: KUFVIS_clean_sbu_0, # of connection points: 4
#     Node 60, Type 0, BuildingBlock: KUFVIS_clean_sbu_0, # of connection points: 4
#     Node 61, Type 0, BuildingBlock: KUFVIS_clean_sbu_0, # of connection points: 4
#     Node 62, Type 0, BuildingBlock: KUFVIS_clean_sbu_0, # of connection points: 4
#     Node 63, Type 0, BuildingBlock: KUFVIS_clean_sbu_0, # of connection points: 4
#     Node 64, Type 0, BuildingBlock: KUFVIS_clean_sbu_0, # of connection points: 4
#     Node 65, Type 0, BuildingBlock: KUFVIS_clean_sbu_0, # of connection points: 4
#     Node 66, Type 0, BuildingBlock: KUFVIS_clean_sbu_0, # of connection points: 4
#     Node 67, Type 0, BuildingBlock: KUFVIS_clean_sbu_0, # of connection points: 4
#     Node 68, Type 0, BuildingBlock: KUFVIS_clean_sbu_0, # of connection points: 4
#     Node 69, Type 0, BuildingBlock: KUFVIS_clean_sbu_0, # of connection points: 4
#     Node 70, Type 0, BuildingBlock: KUFVIS_clean_sbu_0, # of connection points: 4
#     Node 71, Type 0, BuildingBlock: KUFVIS_clean_sbu_0, # of connection points: 4
#     Node 72, Type 0, BuildingBlock: KUFVIS_clean_sbu_0, # of connection points: 4
#     Node 73, Type 0, BuildingBlock: KUFVIS_clean_sbu_0, # of connection points: 4
#     Node 74, Type 0, BuildingBlock: KUFVIS_clean_sbu_0, # of connection points: 4
#     Node 75, Type 0, BuildingBlock: KUFVIS_clean_sbu_0, # of connection points: 4
#     Node 76, Type 0, BuildingBlock: KUFVIS_clean_sbu_0, # of connection points: 4
#     Node 77, Type 0, BuildingBlock: KUFVIS_clean_sbu_0, # of connection points: 4
#     Node 78, Type 0, BuildingBlock: KUFVIS_clean_sbu_0, # of connection points: 4
#     Node 79, Type 0, BuildingBlock: KUFVIS_clean_sbu_0, # of connection points: 4
#     Node 80, Type 0, BuildingBlock: KUFVIS_clean_sbu_0, # of connection points: 4
#     Node 81, Type 0, BuildingBlock: KUFVIS_clean_sbu_0, # of connection points: 4
#     Node 82, Type 0, BuildingBlock: KUFVIS_clean_sbu_0, # of connection points: 4
#     Node 83, Type 0, BuildingBlock: KUFVIS_clean_sbu_0, # of connection points: 4
#     Node 84, Type 0, BuildingBlock: KUFVIS_clean_sbu_0, # of connection points: 4
#     Node 85, Type 0, BuildingBlock: KUFVIS_clean_sbu_0, # of connection points: 4
#     Node 86, Type 0, BuildingBlock: KUFVIS_clean_sbu_0, # of connection points: 4
#     Node 87, Type 0, BuildingBlock: KUFVIS_clean_sbu_0, # of connection points: 4
#     Node 88, Type 0, BuildingBlock: KUFVIS_clean_sbu_0, # of connection points: 4
#     Node 89, Type 0, BuildingBlock: KUFVIS_clean_sbu_0, # of connection points: 4
#     Node 90, Type 0, BuildingBlock: KUFVIS_clean_sbu_0, # of connection points: 4
#     Node 91, Type 0, BuildingBlock: KUFVIS_clean_sbu_0, # of connection points: 4
#     Node 92, Type 0, BuildingBlock: KUFVIS_clean_sbu_0, # of connection points: 4
#     Node 93, Type 0, BuildingBlock: KUFVIS_clean_sbu_0, # of connection points: 4
#     Node 94, Type 0, BuildingBlock: KUFVIS_clean_sbu_0, # of connection points: 4
#     Node 95, Type 0, BuildingBlock: KUFVIS_clean_sbu_0, # of connection points: 4
#     Edge 96, Type (0, 0), BuildingBlock: AJUNOK_clean_linker_0, # of connection points: 2
#     Edge 97, Type (0, 0), BuildingBlock: AJUNOK_clean_linker_0, # of connection points: 2
#     Edge 98, Type (0, 0), BuildingBlock: AJUNOK_clean_linker_0, # of connection points: 2
#     Edge 99, Type (0, 0), BuildingBlock: AJUNOK_clean_linker_0, # of connection points: 2
#     Edge 100, Type (0, 0), BuildingBlock: AJUNOK_clean_linker_0, # of connection points: 2
#     Edge 101, Type (0, 0), BuildingBlock: AJUNOK_clean_linker_0, # of connection points: 2
#     Edge 102, Type (0, 0), BuildingBlock: AJUNOK_clean_linker_0, # of connection points: 2
#     Edge 103, Type (0, 0), BuildingBlock: AJUNOK_clean_linker_0, # of connection points: 2
#     Edge 104, Type (0, 0), BuildingBlock: AJUNOK_clean_linker_0, # of connection points: 2
#     Edge 105, Type (0, 0), BuildingBlock: AJUNOK_clean_linker_0, # of connection points: 2
#     Edge 106, Type (0, 0), BuildingBlock: AJUNOK_clean_linker_0, # of connection points: 2
#     Edge 107, Type (0, 0), BuildingBlock: AJUNOK_clean_linker_0, # of connection points: 2
#     Edge 108, Type (0, 0), BuildingBlock: AJUNOK_clean_linker_0, # of connection points: 2
#     Edge 109, Type (0, 0), BuildingBlock: AJUNOK_clean_linker_0, # of connection points: 2
#     Edge 110, Type (0, 0), BuildingBlock: AJUNOK_clean_linker_0, # of connection points: 2
#     Edge 111, Type (0, 0), BuildingBlock: AJUNOK_clean_linker_0, # of connection points: 2
#     Edge 112, Type (0, 0), BuildingBlock: AJUNOK_clean_linker_0, # of connection points: 2
#     Edge 113, Type (0, 0), BuildingBlock: AJUNOK_clean_linker_0, # of connection points: 2
#     Edge 114, Type (0, 0), BuildingBlock: AJUNOK_clean_linker_0, # of connection points: 2
#     Edge 115, Type (0, 0), BuildingBlock: AJUNOK_clean_linker_0, # of connection points: 2
#     Edge 116, Type (0, 0), BuildingBlock: AJUNOK_clean_linker_0, # of connection points: 2
#     Edge 117, Type (0, 0), BuildingBlock: AJUNOK_clean_linker_0, # of connection points: 2
#     Edge 118, Type (0, 0), BuildingBlock: AJUNOK_clean_linker_0, # of connection points: 2
#     Edge 119, Type (0, 0), BuildingBlock: AJUNOK_clean_linker_0, # of connection points: 2
#     Edge 120, Type (0, 0), BuildingBlock: AJUNOK_clean_linker_0, # of connection points: 2
#     Edge 121, Type (0, 0), BuildingBlock: AJUNOK_clean_linker_0, # of connection points: 2
#     Edge 122, Type (0, 0), BuildingBlock: AJUNOK_clean_linker_0, # of connection points: 2
#     Edge 123, Type (0, 0), BuildingBlock: AJUNOK_clean_linker_0, # of connection points: 2
#     Edge 124, Type (0, 0), BuildingBlock: AJUNOK_clean_linker_0, # of connection points: 2
#     Edge 125, Type (0, 0), BuildingBlock: AJUNOK_clean_linker_0, # of connection points: 2
#     Edge 126, Type (0, 0), BuildingBlock: AJUNOK_clean_linker_0, # of connection points: 2
#     Edge 127, Type (0, 0), BuildingBlock: AJUNOK_clean_linker_0, # of connection points: 2
#     Edge 128, Type (0, 0), BuildingBlock: AJUNOK_clean_linker_0, # of connection points: 2
#     Edge 129, Type (0, 0), BuildingBlock: AJUNOK_clean_linker_0, # of connection points: 2
#     Edge 130, Type (0, 0), BuildingBlock: AJUNOK_clean_linker_0, # of connection points: 2
#     Edge 131, Type (0, 0), BuildingBlock: AJUNOK_clean_linker_0, # of connection points: 2
#     Edge 132, Type (0, 0), BuildingBlock: AJUNOK_clean_linker_0, # of connection points: 2
#     Edge 133, Type (0, 0), BuildingBlock: AJUNOK_clean_linker_0, # of connection points: 2
#     Edge 134, Type (0, 0), BuildingBlock: AJUNOK_clean_linker_0, # of connection points: 2
#     Edge 135, Type (0, 0), BuildingBlock: AJUNOK_clean_linker_0, # of connection points: 2
#     Edge 136, Type (0, 0), BuildingBlock: AJUNOK_clean_linker_0, # of connection points: 2
#     Edge 137, Type (0, 0), BuildingBlock: AJUNOK_clean_linker_0, # of connection points: 2
#     Edge 138, Type (0, 0), BuildingBlock: AJUNOK_clean_linker_0, # of connection points: 2
#     Edge 139, Type (0, 0), BuildingBlock: AJUNOK_clean_linker_0, # of connection points: 2
#     Edge 140, Type (0, 0), BuildingBlock: AJUNOK_clean_linker_0, # of connection points: 2
#     Edge 141, Type (0, 0), BuildingBlock: AJUNOK_clean_linker_0, # of connection points: 2
#     Edge 142, Type (0, 0), BuildingBlock: AJUNOK_clean_linker_0, # of connection points: 2
#     Edge 143, Type (0, 0), BuildingBlock: AJUNOK_clean_linker_0, # of connection points: 2
#     Edge 144, Type (0, 0), BuildingBlock: AJUNOK_clean_linker_0, # of connection points: 2
#     Edge 145, Type (0, 0), BuildingBlock: AJUNOK_clean_linker_0, # of connection points: 2
#     Edge 146, Type (0, 0), BuildingBlock: AJUNOK_clean_linker_0, # of connection points: 2
#     Edge 147, Type (0, 0), BuildingBlock: AJUNOK_clean_linker_0, # of connection points: 2
#     Edge 148, Type (0, 0), BuildingBlock: AJUNOK_clean_linker_0, # of connection points: 2
#     Edge 149, Type (0, 0), BuildingBlock: AJUNOK_clean_linker_0, # of connection points: 2
#     Edge 150, Type (0, 0), BuildingBlock: AJUNOK_clean_linker_0, # of connection points: 2
#     Edge 151, Type (0, 0), BuildingBlock: AJUNOK_clean_linker_0, # of connection points: 2
#     Edge 152, Type (0, 0), BuildingBlock: AJUNOK_clean_linker_0, # of connection points: 2
#     Edge 153, Type (0, 0), BuildingBlock: AJUNOK_clean_linker_0, # of connection points: 2
#     Edge 154, Type (0, 0), BuildingBlock: AJUNOK_clean_linker_0, # of connection points: 2
#     Edge 155, Type (0, 0), BuildingBlock: AJUNOK_clean_linker_0, # of connection points: 2
#     Edge 156, Type (0, 0), BuildingBlock: AJUNOK_clean_linker_0, # of connection points: 2
#     Edge 157, Type (0, 0), BuildingBlock: AJUNOK_clean_linker_0, # of connection points: 2
#     Edge 158, Type (0, 0), BuildingBlock: AJUNOK_clean_linker_0, # of connection points: 2
#     Edge 159, Type (0, 0), BuildingBlock: AJUNOK_clean_linker_0, # of connection points: 2
#     Edge 160, Type (0, 0), BuildingBlock: AJUNOK_clean_linker_0, # of connection points: 2
#     Edge 161, Type (0, 0), BuildingBlock: AJUNOK_clean_linker_0, # of connection points: 2
#     Edge 162, Type (0, 0), BuildingBlock: AJUNOK_clean_linker_0, # of connection points: 2
#     Edge 163, Type (0, 0), BuildingBlock: AJUNOK_clean_linker_0, # of connection points: 2
#     Edge 164, Type (0, 0), BuildingBlock: AJUNOK_clean_linker_0, # of connection points: 2
#     Edge 165, Type (0, 0), BuildingBlock: AJUNOK_clean_linker_0, # of connection points: 2
#     Edge 166, Type (0, 0), BuildingBlock: AJUNOK_clean_linker_0, # of connection points: 2
#     Edge 167, Type (0, 0), BuildingBlock: AJUNOK_clean_linker_0, # of connection points: 2
#     Edge 168, Type (0, 0), BuildingBlock: AJUNOK_clean_linker_0, # of connection points: 2
#     Edge 169, Type (0, 0), BuildingBlock: AJUNOK_clean_linker_0, # of connection points: 2
#     Edge 170, Type (0, 0), BuildingBlock: AJUNOK_clean_linker_0, # of connection points: 2
#     Edge 171, Type (0, 0), BuildingBlock: AJUNOK_clean_linker_0, # of connection points: 2
#     Edge 172, Type (0, 0), BuildingBlock: AJUNOK_clean_linker_0, # of connection points: 2
#     Edge 173, Type (0, 0), BuildingBlock: AJUNOK_clean_linker_0, # of connection points: 2
#     Edge 174, Type (0, 0), BuildingBlock: AJUNOK_clean_linker_0, # of connection points: 2
#     Edge 175, Type (0, 0), BuildingBlock: AJUNOK_clean_linker_0, # of connection points: 2
#     Edge 176, Type (0, 0), BuildingBlock: AJUNOK_clean_linker_0, # of connection points: 2
#     Edge 177, Type (0, 0), BuildingBlock: AJUNOK_clean_linker_0, # of connection points: 2
#     Edge 178, Type (0, 0), BuildingBlock: AJUNOK_clean_linker_0, # of connection points: 2
#     Edge 179, Type (0, 0), BuildingBlock: AJUNOK_clean_linker_0, # of connection points: 2
#     Edge 180, Type (0, 0), BuildingBlock: AJUNOK_clean_linker_0, # of connection points: 2
#     Edge 181, Type (0, 0), BuildingBlock: AJUNOK_clean_linker_0, # of connection points: 2
#     Edge 182, Type (0, 0), BuildingBlock: AJUNOK_clean_linker_0, # of connection points: 2
#     Edge 183, Type (0, 0), BuildingBlock: AJUNOK_clean_linker_0, # of connection points: 2
#     Edge 184, Type (0, 0), BuildingBlock: AJUNOK_clean_linker_0, # of connection points: 2
#     Edge 185, Type (0, 0), BuildingBlock: AJUNOK_clean_linker_0, # of connection points: 2
#     Edge 186, Type (0, 0), BuildingBlock: AJUNOK_clean_linker_0, # of connection points: 2
#     Edge 187, Type (0, 0), BuildingBlock: AJUNOK_clean_linker_0, # of connection points: 2
#     Edge 188, Type (0, 0), BuildingBlock: AJUNOK_clean_linker_0, # of connection points: 2
#     Edge 189, Type (0, 0), BuildingBlock: AJUNOK_clean_linker_0, # of connection points: 2
#     Edge 190, Type (0, 0), BuildingBlock: AJUNOK_clean_linker_0, # of connection points: 2
#     Edge 191, Type (0, 0), BuildingBlock: AJUNOK_clean_linker_0, # of connection points: 2
#     Edge 192, Type (0, 0), BuildingBlock: AJUNOK_clean_linker_0, # of connection points: 2
#     Edge 193, Type (0, 0), BuildingBlock: AJUNOK_clean_linker_0, # of connection points: 2
#     Edge 194, Type (0, 0), BuildingBlock: AJUNOK_clean_linker_0, # of connection points: 2
#     Edge 195, Type (0, 0), BuildingBlock: AJUNOK_clean_linker_0, # of connection points: 2
#     Edge 196, Type (0, 0), BuildingBlock: AJUNOK_clean_linker_0, # of connection points: 2
#     Edge 197, Type (0, 0), BuildingBlock: AJUNOK_clean_linker_0, # of connection points: 2
#     Edge 198, Type (0, 0), BuildingBlock: AJUNOK_clean_linker_0, # of connection points: 2
#     Edge 199, Type (0, 0), BuildingBlock: AJUNOK_clean_linker_0, # of connection points: 2
#     Edge 200, Type (0, 0), BuildingBlock: AJUNOK_clean_linker_0, # of connection points: 2
#     Edge 201, Type (0, 0), BuildingBlock: AJUNOK_clean_linker_0, # of connection points: 2
#     Edge 202, Type (0, 0), BuildingBlock: AJUNOK_clean_linker_0, # of connection points: 2
#     Edge 203, Type (0, 0), BuildingBlock: AJUNOK_clean_linker_0, # of connection points: 2
#     Edge 204, Type (0, 0), BuildingBlock: AJUNOK_clean_linker_0, # of connection points: 2
#     Edge 205, Type (0, 0), BuildingBlock: AJUNOK_clean_linker_0, # of connection points: 2
#     Edge 206, Type (0, 0), BuildingBlock: AJUNOK_clean_linker_0, # of connection points: 2
#     Edge 207, Type (0, 0), BuildingBlock: AJUNOK_clean_linker_0, # of connection points: 2
#     Edge 208, Type (0, 0), BuildingBlock: AJUNOK_clean_linker_0, # of connection points: 2
#     Edge 209, Type (0, 0), BuildingBlock: AJUNOK_clean_linker_0, # of connection points: 2
#     Edge 210, Type (0, 0), BuildingBlock: AJUNOK_clean_linker_0, # of connection points: 2
#     Edge 211, Type (0, 0), BuildingBlock: AJUNOK_clean_linker_0, # of connection points: 2
#     Edge 212, Type (0, 0), BuildingBlock: AJUNOK_clean_linker_0, # of connection points: 2
#     Edge 213, Type (0, 0), BuildingBlock: AJUNOK_clean_linker_0, # of connection points: 2
#     Edge 214, Type (0, 0), BuildingBlock: AJUNOK_clean_linker_0, # of connection points: 2
#     Edge 215, Type (0, 0), BuildingBlock: AJUNOK_clean_linker_0, # of connection points: 2
#     Edge 216, Type (0, 0), BuildingBlock: AJUNOK_clean_linker_0, # of connection points: 2
#     Edge 217, Type (0, 0), BuildingBlock: AJUNOK_clean_linker_0, # of connection points: 2
#     Edge 218, Type (0, 0), BuildingBlock: AJUNOK_clean_linker_0, # of connection points: 2
#     Edge 219, Type (0, 0), BuildingBlock: AJUNOK_clean_linker_0, # of connection points: 2
#     Edge 220, Type (0, 0), BuildingBlock: AJUNOK_clean_linker_0, # of connection points: 2
#     Edge 221, Type (0, 0), BuildingBlock: AJUNOK_clean_linker_0, # of connection points: 2
#     Edge 222, Type (0, 0), BuildingBlock: AJUNOK_clean_linker_0, # of connection points: 2
#     Edge 223, Type (0, 0), BuildingBlock: AJUNOK_clean_linker_0, # of connection points: 2
#     Edge 224, Type (0, 0), BuildingBlock: AJUNOK_clean_linker_0, # of connection points: 2
#     Edge 225, Type (0, 0), BuildingBlock: AJUNOK_clean_linker_0, # of connection points: 2
#     Edge 226, Type (0, 0), BuildingBlock: AJUNOK_clean_linker_0, # of connection points: 2
#     Edge 227, Type (0, 0), BuildingBlock: AJUNOK_clean_linker_0, # of connection points: 2
#     Edge 228, Type (0, 0), BuildingBlock: AJUNOK_clean_linker_0, # of connection points: 2
#     Edge 229, Type (0, 0), BuildingBlock: AJUNOK_clean_linker_0, # of connection points: 2
#     Edge 230, Type (0, 0), BuildingBlock: AJUNOK_clean_linker_0, # of connection points: 2
#     Edge 231, Type (0, 0), BuildingBlock: AJUNOK_clean_linker_0, # of connection points: 2
#     Edge 232, Type (0, 0), BuildingBlock: AJUNOK_clean_linker_0, # of connection points: 2
#     Edge 233, Type (0, 0), BuildingBlock: AJUNOK_clean_linker_0, # of connection points: 2
#     Edge 234, Type (0, 0), BuildingBlock: AJUNOK_clean_linker_0, # of connection points: 2
#     Edge 235, Type (0, 0), BuildingBlock: AJUNOK_clean_linker_0, # of connection points: 2
#     Edge 236, Type (0, 0), BuildingBlock: AJUNOK_clean_linker_0, # of connection points: 2
#     Edge 237, Type (0, 0), BuildingBlock: AJUNOK_clean_linker_0, # of connection points: 2
#     Edge 238, Type (0, 0), BuildingBlock: AJUNOK_clean_linker_0, # of connection points: 2
#     Edge 239, Type (0, 0), BuildingBlock: AJUNOK_clean_linker_0, # of connection points: 2
#     Edge 240, Type (0, 0), BuildingBlock: AJUNOK_clean_linker_0, # of connection points: 2
#     Edge 241, Type (0, 0), BuildingBlock: AJUNOK_clean_linker_0, # of connection points: 2
#     Edge 242, Type (0, 0), BuildingBlock: AJUNOK_clean_linker_0, # of connection points: 2
#     Edge 243, Type (0, 0), BuildingBlock: AJUNOK_clean_linker_0, # of connection points: 2
#     Edge 244, Type (0, 0), BuildingBlock: AJUNOK_clean_linker_0, # of connection points: 2
#     Edge 245, Type (0, 0), BuildingBlock: AJUNOK_clean_linker_0, # of connection points: 2
#     Edge 246, Type (0, 0), BuildingBlock: AJUNOK_clean_linker_0, # of connection points: 2
#     Edge 247, Type (0, 0), BuildingBlock: AJUNOK_clean_linker_0, # of connection points: 2
#     Edge 248, Type (0, 0), BuildingBlock: AJUNOK_clean_linker_0, # of connection points: 2
#     Edge 249, Type (0, 0), BuildingBlock: AJUNOK_clean_linker_0, # of connection points: 2
#     Edge 250, Type (0, 0), BuildingBlock: AJUNOK_clean_linker_0, # of connection points: 2
#     Edge 251, Type (0, 0), BuildingBlock: AJUNOK_clean_linker_0, # of connection points: 2
#     Edge 252, Type (0, 0), BuildingBlock: AJUNOK_clean_linker_0, # of connection points: 2
#     Edge 253, Type (0, 0), BuildingBlock: AJUNOK_clean_linker_0, # of connection points: 2
#     Edge 254, Type (0, 0), BuildingBlock: AJUNOK_clean_linker_0, # of connection points: 2
#     Edge 255, Type (0, 0), BuildingBlock: AJUNOK_clean_linker_0, # of connection points: 2
#     Edge 256, Type (0, 0), BuildingBlock: AJUNOK_clean_linker_0, # of connection points: 2
#     Edge 257, Type (0, 0), BuildingBlock: AJUNOK_clean_linker_0, # of connection points: 2
#     Edge 258, Type (0, 0), BuildingBlock: AJUNOK_clean_linker_0, # of connection points: 2
#     Edge 259, Type (0, 0), BuildingBlock: AJUNOK_clean_linker_0, # of connection points: 2
#     Edge 260, Type (0, 0), BuildingBlock: AJUNOK_clean_linker_0, # of connection points: 2
#     Edge 261, Type (0, 0), BuildingBlock: AJUNOK_clean_linker_0, # of connection points: 2
#     Edge 262, Type (0, 0), BuildingBlock: AJUNOK_clean_linker_0, # of connection points: 2
#     Edge 263, Type (0, 0), BuildingBlock: AJUNOK_clean_linker_0, # of connection points: 2
#     Edge 264, Type (0, 0), BuildingBlock: AJUNOK_clean_linker_0, # of connection points: 2
#     Edge 265, Type (0, 0), BuildingBlock: AJUNOK_clean_linker_0, # of connection points: 2
#     Edge 266, Type (0, 0), BuildingBlock: AJUNOK_clean_linker_0, # of connection points: 2
#     Edge 267, Type (0, 0), BuildingBlock: AJUNOK_clean_linker_0, # of connection points: 2
#     Edge 268, Type (0, 0), BuildingBlock: AJUNOK_clean_linker_0, # of connection points: 2
#     Edge 269, Type (0, 0), BuildingBlock: AJUNOK_clean_linker_0, # of connection points: 2
#     Edge 270, Type (0, 0), BuildingBlock: AJUNOK_clean_linker_0, # of connection points: 2
#     Edge 271, Type (0, 0), BuildingBlock: AJUNOK_clean_linker_0, # of connection points: 2
#     Edge 272, Type (0, 0), BuildingBlock: AJUNOK_clean_linker_0, # of connection points: 2
#     Edge 273, Type (0, 0), BuildingBlock: AJUNOK_clean_linker_0, # of connection points: 2
#     Edge 274, Type (0, 0), BuildingBlock: AJUNOK_clean_linker_0, # of connection points: 2
#     Edge 275, Type (0, 0), BuildingBlock: AJUNOK_clean_linker_0, # of connection points: 2
#     Edge 276, Type (0, 0), BuildingBlock: AJUNOK_clean_linker_0, # of connection points: 2
#     Edge 277, Type (0, 0), BuildingBlock: AJUNOK_clean_linker_0, # of connection points: 2
#     Edge 278, Type (0, 0), BuildingBlock: AJUNOK_clean_linker_0, # of connection points: 2
#     Edge 279, Type (0, 0), BuildingBlock: AJUNOK_clean_linker_0, # of connection points: 2
#     Edge 280, Type (0, 0), BuildingBlock: AJUNOK_clean_linker_0, # of connection points: 2
#     Edge 281, Type (0, 0), BuildingBlock: AJUNOK_clean_linker_0, # of connection points: 2
#     Edge 282, Type (0, 0), BuildingBlock: AJUNOK_clean_linker_0, # of connection points: 2
#     Edge 283, Type (0, 0), BuildingBlock: AJUNOK_clean_linker_0, # of connection points: 2
#     Edge 284, Type (0, 0), BuildingBlock: AJUNOK_clean_linker_0, # of connection points: 2
#     Edge 285, Type (0, 0), BuildingBlock: AJUNOK_clean_linker_0, # of connection points: 2
#     Edge 286, Type (0, 0), BuildingBlock: AJUNOK_clean_linker_0, # of connection points: 2
#     Edge 287, Type (0, 0), BuildingBlock: AJUNOK_clean_linker_0, # of connection points: 2
# Relax obj value: 0.152
# Max RMSD: 0.090
# Mean RMSD: 0.090
data_MOF--net-kfi--node1-KUFVIS_clean_sbu_0--edge1-AJUNOK_clean_linker_0
_symmetry_space_group_name_H-M    P1
_symmetry_Int_Tables_number       1
_symmetry_cell_setting            triclinic
loop_
_symmetry_equiv_pos_as_xyz
'x, y, z'
_cell_length_a     65.204217
_cell_length_b     65.243597
_cell_length_c     65.148486
_cell_angle_alpha  90.019256
_cell_angle_beta   90.00567
_cell_angle_gamma 90.00289
loop_
_atom_site_label
_atom_site_type_symbol
_atom_site_fract_x
_atom_site_fract_y
_atom_site_fract_z
_atom_type_partial_charge
Mn0 Mn 0.08023 0.2005 0.32003 0.0
Mn1 Mn 0.12391 0.21042 0.29406 0.0
C2 C 0.08158 0.22763 0.29675 0.0
C3 C 0.04726 0.18583 0.32316 0.0
C4 C 0.11652 0.2257 0.33723 0.0
O5 O 0.0963 0.17349 0.32435 0.0
O6 O 0.1252 0.18407 0.30889 0.0
C7 C 0.12266 0.17433 0.26441 0.0
N8 N 0.12445 0.19488 0.26785 0.0
C9 C 0.14745 0.19555 0.23343 0.0
C10 C 0.14282 0.17493 0.23141 0.0
C11 C 0.13062 0.16479 0.24635 0.0
C12 C 0.1342 0.20607 0.25402 0.0
H13 H 0.11519 0.1648 0.27571 0.0
C14 C 0.11505 0.17089 0.31915 0.0
O15 O 0.05749 0.19214 0.33906 0.0
O16 O 0.05699 0.18628 0.30582 0.0
N17 N 0.12632 0.2366 0.27971 0.0
C18 C 0.12563 0.25702 0.28945 0.0
C19 C 0.13756 0.27668 0.2816 0.0
C20 C 0.16133 0.27435 0.24982 0.0
C21 C 0.16068 0.25132 0.24051 0.0
C22 C 0.13665 0.23034 0.26128 0.0
H23 H 0.11777 0.25857 0.3039 0.0
O24 O 0.06828 0.22722 0.31147 0.0
O25 O 0.09376 0.21174 0.29533 0.0
O26 O 0.09978 0.21587 0.34028 0.0
O27 O 0.12614 0.22538 0.32023 0.0
C28 C 0.17211 0.23695 0.21995 0.0
C29 C 0.16549 0.20913 0.21683 0.0
H30 H 0.14849 0.16671 0.21824 0.0
H31 H 0.12785 0.14856 0.24432 0.0
H32 H 0.13417 0.28959 0.29191 0.0
H33 H 0.17105 0.2856 0.24199 0.0
H34 H 0.18308 0.24744 0.21036 0.0
H35 H 0.17046 0.22343 0.21641 0.0
Mn36 Mn 0.7965 0.08154 0.32207 0.0
Mn37 Mn 0.78888 0.12633 0.29712 0.0
C38 C 0.76943 0.0844 0.29909 0.0
C39 C 0.81216 0.04893 0.32336 0.0
C40 C 0.77919 0.11917 0.34223 0.0
O41 O 0.82314 0.09821 0.32684 0.0
O42 O 0.81859 0.12251 0.30252 0.0
C43 C 0.81126 0.11886 0.25886 0.0
N44 N 0.79289 0.12319 0.26752 0.0
C45 C 0.78081 0.1408 0.23394 0.0
C46 C 0.80035 0.13279 0.22601 0.0
C47 C 0.81453 0.12217 0.23808 0.0
C48 C 0.77686 0.12899 0.25559 0.0
H49 H 0.82364 0.11261 0.26787 0.0
C50 C 0.82948 0.1135 0.31617 0.0
O51 O 0.8056 0.05808 0.33982 0.0
O52 O 0.81119 0.0595 0.30653 0.0
N53 N 0.76038 0.13377 0.29221 0.0
C54 C 0.74929 0.14935 0.3084 0.0
C55 C 0.73138 0.16904 0.30222 0.0
C56 C 0.72244 0.17496 0.27737 0.0
C57 C 0.73137 0.16115 0.25589 0.0
C58 C 0.7571 0.13323 0.26789 0.0
H59 H 0.75389 0.14924 0.32422 0.0
O60 O 0.76978 0.06972 0.31248 0.0
O61 O 0.78499 0.09668 0.29935 0.0
O62 O 0.78112 0.09974 0.34246 0.0
O63 O 0.78466 0.13041 0.32708 0.0
C64 C 0.73468 0.17278 0.23529 0.0
C65 C 0.75464 0.16804 0.22237 0.0
H66 H 0.80614 0.13527 0.21064 0.0
H67 H 0.82906 0.11763 0.23143 0.0
H68 H 0.72603 0.17859 0.31469 0.0
H69 H 0.71304 0.18843 0.27512 0.0
H70 H 0.72491 0.18555 0.23121 0.0
H71 H 0.75441 0.17806 0.20884 0.0
Mn72 Mn 0.93213 0.80648 0.3191 0.0
Mn73 Mn 0.8896 0.79927 0.29022 0.0
C74 C 0.93152 0.78067 0.29419 0.0
C75 C 0.96496 0.82123 0.32383 0.0
C76 C 0.89448 0.78147 0.33332 0.0
O77 O 0.91566 0.83305 0.32493 0.0
O78 O 0.88871 0.82571 0.30476 0.0
C79 C 0.8944 0.83482 0.26051 0.0
N80 N 0.89132 0.81443 0.26386 0.0
C81 C 0.86838 0.81525 0.22945 0.0
C82 C 0.87441 0.83559 0.22742 0.0
C83 C 0.88721 0.84487 0.24242 0.0
C84 C 0.88112 0.8038 0.24987 0.0
H85 H 0.90222 0.84383 0.27201 0.0
C86 C 0.89811 0.8374 0.31725 0.0
O87 O 0.95457 0.81375 0.33911 0.0
O88 O 0.95542 0.8219 0.30641 0.0
N89 N 0.88642 0.77316 0.27607 0.0
C90 C 0.88543 0.75296 0.28618 0.0
C91 C 0.87085 0.73468 0.27954 0.0
C92 C 0.84626 0.73896 0.24853 0.0
C93 C 0.84919 0.76152 0.23853 0.0
C94 C 0.87626 0.7801 0.25781 0.0
H95 H 0.89419 0.75073 0.30001 0.0
O96 O 0.94465 0.78055 0.30905 0.0
O97 O 0.91946 0.79667 0.29331 0.0
O98 O 0.91202 0.78937 0.33749 0.0
O99 O 0.8853 0.78461 0.31631 0.0
C100 C 0.83872 0.7766 0.21797 0.0
C101 C 0.84835 0.8034 0.21385 0.0
H102 H 0.86892 0.84456 0.21462 0.0
H103 H 0.89085 0.86095 0.24057 0.0
H104 H 0.87318 0.72169 0.29003 0.0
H105 H 0.83499 0.72875 0.2414 0.0
H106 H 0.82623 0.76727 0.20904 0.0
H107 H 0.84179 0.78974 0.214 0.0
Mn108 Mn 0.21389 0.92446 0.31699 0.0
Mn109 Mn 0.22425 0.88186 0.29002 0.0
C110 C 0.24104 0.92419 0.29317 0.0
C111 C 0.19678 0.95609 0.31954 0.0
C112 C 0.23194 0.88673 0.33622 0.0
O113 O 0.18778 0.90636 0.32043 0.0
O114 O 0.19424 0.88328 0.29532 0.0
C115 C 0.2017 0.88929 0.25227 0.0
N116 N 0.22024 0.8854 0.26071 0.0
C117 C 0.23184 0.8659 0.22831 0.0
C118 C 0.21204 0.8734 0.22028 0.0
C119 C 0.19806 0.88481 0.23183 0.0
C120 C 0.23611 0.87906 0.24888 0.0
H121 H 0.18953 0.89599 0.26126 0.0
C122 C 0.18246 0.89114 0.30901 0.0
O123 O 0.20363 0.9466 0.33566 0.0
O124 O 0.19843 0.94639 0.30224 0.0
N125 N 0.25341 0.87744 0.28512 0.0
C126 C 0.26549 0.86418 0.30218 0.0
C127 C 0.28348 0.84431 0.29781 0.0
C128 C 0.2925 0.83584 0.27387 0.0
C129 C 0.28242 0.84755 0.25043 0.0
C130 C 0.25616 0.87601 0.26093 0.0
H131 H 0.26567 0.87042 0.3172 0.0
O132 O 0.24044 0.93789 0.30759 0.0
O133 O 0.22608 0.91128 0.29337 0.0
O134 O 0.22946 0.90606 0.33744 0.0
O135 O 0.22821 0.87675 0.31971 0.0
C136 C 0.2782 0.8345 0.22943 0.0
C137 C 0.25779 0.83837 0.21743 0.0
H138 H 0.20587 0.86997 0.20525 0.0
H139 H 0.18341 0.88894 0.22517 0.0
H140 H 0.29053 0.83756 0.31122 0.0
H141 H 0.28918 0.84 0.25976 0.0
H142 H 0.28779 0.82155 0.22551 0.0
H143 H 0.25789 0.82785 0.2044 0.0
Mn144 Mn 0.07987 0.79932 0.69188 0.0
Mn145 Mn 0.12345 0.78913 0.71834 0.0
C146 C 0.08118 0.77295 0.71568 0.0
C147 C 0.04735 0.81432 0.68748 0.0
C148 C 0.11558 0.77296 0.6757 0.0
O149 O 0.09611 0.82592 0.68701 0.0
O150 O 0.12496 0.81503 0.70237 0.0
C151 C 0.11981 0.82614 0.74644 0.0
N152 N 0.12297 0.80564 0.74388 0.0
C153 C 0.14521 0.80773 0.7785 0.0
C154 C 0.13898 0.828 0.77988 0.0
C155 C 0.1265 0.83678 0.76436 0.0
C156 C 0.13247 0.79541 0.75859 0.0
H157 H 0.1121 0.83475 0.73457 0.0
C158 C 0.11496 0.82819 0.69184 0.0
O159 O 0.05788 0.80737 0.67208 0.0
O160 O 0.05649 0.81413 0.70518 0.0
N161 N 0.12668 0.76331 0.73405 0.0
C162 C 0.12767 0.74234 0.72525 0.0
C163 C 0.14184 0.724 0.7335 0.0
C164 C 0.16597 0.73018 0.76442 0.0
C165 C 0.1633 0.75324 0.77282 0.0
C166 C 0.13679 0.7711 0.75211 0.0
H167 H 0.11956 0.73953 0.71127 0.0
O168 O 0.06768 0.77292 0.7011 0.0
O169 O 0.09341 0.78865 0.71666 0.0
O170 O 0.09939 0.7835 0.67243 0.0
O171 O 0.12538 0.77309 0.69267 0.0
C172 C 0.17392 0.76929 0.79248 0.0
C173 C 0.16484 0.79644 0.79492 0.0
H174 H 0.14362 0.83703 0.79293 0.0
H175 H 0.12256 0.85284 0.76578 0.0
H176 H 0.13947 0.71029 0.72398 0.0
H177 H 0.17705 0.72041 0.77243 0.0
H178 H 0.18624 0.76025 0.80187 0.0
H179 H 0.17112 0.78269 0.79562 0.0
Mn180 Mn 0.19711 0.07859 0.68801 0.0
Mn181 Mn 0.20832 0.12297 0.71274 0.0
C182 C 0.22398 0.07961 0.7114 0.0
C183 C 0.18173 0.04598 0.6854 0.0
C184 C 0.22385 0.11323 0.66984 0.0
O185 O 0.17073 0.09542 0.68308 0.0
O186 O 0.1814 0.12445 0.69837 0.0
C187 C 0.17283 0.12544 0.7429 0.0
N188 N 0.19343 0.12551 0.7393 0.0
C189 C 0.19584 0.15065 0.77225 0.0
C190 C 0.17474 0.14835 0.77404 0.0
C191 C 0.1638 0.1358 0.75999 0.0
C192 C 0.20535 0.13551 0.75241 0.0
H193 H 0.16282 0.11779 0.73222 0.0
C194 C 0.16809 0.11415 0.68829 0.0
O195 O 0.18836 0.05575 0.66936 0.0
O196 O 0.18194 0.05616 0.70251 0.0
N197 N 0.23491 0.12492 0.72652 0.0
C198 C 0.25507 0.12268 0.7165 0.0
C199 C 0.27535 0.1344 0.72299 0.0
C200 C 0.27474 0.16035 0.75314 0.0
C201 C 0.25193 0.16116 0.76304 0.0
C202 C 0.22955 0.13656 0.74443 0.0
H203 H 0.25594 0.11361 0.70279 0.0
O204 O 0.22294 0.06585 0.69715 0.0
O205 O 0.20862 0.09258 0.7125 0.0
O206 O 0.21377 0.09658 0.66738 0.0
O207 O 0.22302 0.12381 0.68624 0.0
C208 C 0.23851 0.17447 0.78309 0.0
C209 C 0.21054 0.16917 0.78726 0.0
H210 H 0.16652 0.15672 0.7858 0.0
H211 H 0.14731 0.13485 0.76173 0.0
H212 H 0.28787 0.1298 0.71265 0.0
H213 H 0.28654 0.17015 0.76 0.0
H214 H 0.24957 0.18576 0.79168 0.0
H215 H 0.22504 0.17356 0.78702 0.0
Mn216 Mn 0.92105 0.20515 0.68779 0.0
Mn217 Mn 0.87717 0.21688 0.71316 0.0
C218 C 0.91959 0.23299 0.70969 0.0
C219 C 0.95473 0.19131 0.6851 0.0
C220 C 0.88508 0.23059 0.66975 0.0
O221 O 0.90513 0.17783 0.68542 0.0
O222 O 0.87551 0.18998 0.69837 0.0
C223 C 0.87769 0.18072 0.74254 0.0
N224 N 0.87631 0.20136 0.73935 0.0
C225 C 0.8535 0.20191 0.77389 0.0
C226 C 0.85676 0.18092 0.77502 0.0
C227 C 0.86889 0.17088 0.76001 0.0
C228 C 0.86694 0.2126 0.7534 0.0
H229 H 0.88529 0.17125 0.73132 0.0
C230 C 0.88603 0.17582 0.6897 0.0
O231 O 0.9441 0.19635 0.66901 0.0
O232 O 0.94492 0.1921 0.70239 0.0
N233 N 0.87479 0.24354 0.72781 0.0
C234 C 0.87544 0.26435 0.71852 0.0
C235 C 0.86331 0.2841 0.72685 0.0
C236 C 0.83967 0.2808 0.75858 0.0
C237 C 0.84049 0.25776 0.76742 0.0
C238 C 0.86458 0.2371 0.74634 0.0
H239 H 0.88324 0.26617 0.70406 0.0
O240 O 0.93276 0.23215 0.69486 0.0
O241 O 0.9074 0.21728 0.71197 0.0
O242 O 0.90109 0.21947 0.66702 0.0
O243 O 0.87573 0.23185 0.68689 0.0
C244 C 0.82906 0.24322 0.78775 0.0
C245 C 0.83557 0.21541 0.79055 0.0
H246 H 0.84956 0.17212 0.78711 0.0
H247 H 0.87077 0.15445 0.76136 0.0
H248 H 0.86662 0.29734 0.71696 0.0
H249 H 0.8298 0.29172 0.76669 0.0
H250 H 0.81803 0.25362 0.7974 0.0
H251 H 0.8307 0.22972 0.79111 0.0
Mn252 Mn 0.79769 0.92028 0.68462 0.0
Mn253 Mn 0.78869 0.87469 0.70837 0.0
C254 C 0.76976 0.91652 0.70675 0.0
C255 C 0.81208 0.95378 0.68374 0.0
C256 C 0.77937 0.88294 0.6633 0.0
O257 O 0.82532 0.90446 0.6813 0.0
O258 O 0.81846 0.87771 0.70229 0.0
C259 C 0.81189 0.88239 0.74619 0.0
N260 N 0.79355 0.87752 0.73786 0.0
C261 C 0.78231 0.85957 0.77149 0.0
C262 C 0.80219 0.86726 0.77892 0.0
C263 C 0.8158 0.87859 0.76679 0.0
C264 C 0.77787 0.87169 0.75016 0.0
H265 H 0.82368 0.88933 0.73698 0.0
C266 C 0.83072 0.88813 0.691 0.0
O267 O 0.80665 0.9441 0.6672 0.0
O268 O 0.81091 0.94326 0.70062 0.0
N269 N 0.76016 0.86774 0.71408 0.0
C270 C 0.7482 0.8526 0.69809 0.0
C271 C 0.73 0.83328 0.70462 0.0
C272 C 0.7217 0.8273 0.72967 0.0
C273 C 0.73166 0.84063 0.75101 0.0
C274 C 0.75767 0.86805 0.73848 0.0
H275 H 0.75254 0.85253 0.6822 0.0
O276 O 0.7702 0.93119 0.69335 0.0
O277 O 0.78553 0.90454 0.70683 0.0
O278 O 0.78339 0.90206 0.66327 0.0
O279 O 0.78318 0.87113 0.67851 0.0
C280 C 0.73539 0.82866 0.77137 0.0
C281 C 0.75591 0.83279 0.78369 0.0
H282 H 0.80855 0.86428 0.79396 0.0
H283 H 0.83043 0.88324 0.77315 0.0
H284 H 0.72407 0.82397 0.69223 0.0
H285 H 0.71206 0.81402 0.73208 0.0
H286 H 0.72548 0.81607 0.77563 0.0
H287 H 0.75592 0.82259 0.79711 0.0
Mn288 Mn 0.32444 0.08278 0.20741 0.0
Mn289 Mn 0.29755 0.12622 0.21399 0.0
C290 C 0.30119 0.08474 0.23449 0.0
C291 C 0.3266 0.05081 0.1907 0.0
C292 C 0.34282 0.12111 0.22451 0.0
O293 O 0.3294 0.0999 0.18109 0.0
O294 O 0.30267 0.1215 0.18426 0.0
C295 C 0.25964 0.11501 0.19271 0.0
N296 N 0.2682 0.12111 0.21064 0.0
C297 C 0.23365 0.13657 0.22242 0.0
C298 C 0.226 0.12668 0.20361 0.0
C299 C 0.23863 0.11631 0.18975 0.0
C300 C 0.2561 0.12664 0.22666 0.0
H301 H 0.26892 0.10877 0.18051 0.0
C302 C 0.31771 0.11407 0.17409 0.0
O303 O 0.34279 0.05994 0.19792 0.0
O304 O 0.30955 0.0609 0.19203 0.0
N305 N 0.29253 0.13489 0.24212 0.0
C306 C 0.30776 0.15227 0.25177 0.0
C307 C 0.30055 0.17275 0.26837 0.0
C308 C 0.27554 0.17765 0.27737 0.0
C309 C 0.25493 0.16187 0.26986 0.0
C310 C 0.26836 0.133 0.24588 0.0
H311 H 0.32341 0.15292 0.24684 0.0
O312 O 0.31479 0.07027 0.23398 0.0
O313 O 0.30132 0.09706 0.21899 0.0
O314 O 0.34386 0.10163 0.22326 0.0
O315 O 0.32745 0.13153 0.21786 0.0
C316 C 0.23355 0.17188 0.26614 0.0
C317 C 0.22066 0.16487 0.24679 0.0
H318 H 0.21038 0.1275 0.19807 0.0
H319 H 0.23211 0.11034 0.17567 0.0
H320 H 0.31242 0.18346 0.27277 0.0
H321 H 0.27254 0.19159 0.28585 0.0
H322 H 0.22878 0.18504 0.27505 0.0
H323 H 0.2065 0.17404 0.2465 0.0
Mn324 Mn 0.92387 0.32168 0.21043 0.0
Mn325 Mn 0.87834 0.29766 0.21812 0.0
C326 C 0.92048 0.29852 0.2374 0.0
C327 C 0.95692 0.32307 0.19542 0.0
C328 C 0.88662 0.34242 0.2285 0.0
O329 O 0.90744 0.32664 0.18351 0.0
O330 O 0.882 0.30362 0.18855 0.0
C331 C 0.88495 0.25973 0.19483 0.0
N332 N 0.8809 0.26811 0.21341 0.0
C333 C 0.86337 0.23438 0.2252 0.0
C334 C 0.87114 0.22674 0.20544 0.0
C335 C 0.88156 0.23902 0.19129 0.0
C336 C 0.87526 0.25594 0.22934 0.0
H337 H 0.89106 0.2689 0.1825 0.0
C338 C 0.89164 0.31656 0.17739 0.0
O339 O 0.94755 0.33941 0.20185 0.0
O340 O 0.94629 0.30625 0.19595 0.0
N341 N 0.87079 0.29226 0.24644 0.0
C342 C 0.85529 0.30831 0.25785 0.0
C343 C 0.83574 0.30194 0.27587 0.0
C344 C 0.82985 0.27704 0.28453 0.0
C345 C 0.84352 0.25569 0.27517 0.0
C346 C 0.87125 0.26795 0.24933 0.0
H347 H 0.85511 0.32408 0.2532 0.0
O348 O 0.93529 0.31177 0.23723 0.0
O349 O 0.90821 0.29907 0.22179 0.0
O350 O 0.90596 0.34227 0.2259 0.0
O351 O 0.87486 0.32759 0.22326 0.0
C352 C 0.8318 0.23519 0.27169 0.0
C353 C 0.83631 0.22254 0.2515 0.0
H354 H 0.86859 0.21147 0.19948 0.0
H355 H 0.8859 0.2326 0.17658 0.0
H356 H 0.82621 0.31433 0.28141 0.0
H357 H 0.81643 0.27469 0.29402 0.0
H358 H 0.8191 0.23102 0.28153 0.0
H359 H 0.82618 0.20908 0.25161 0.0
Mn360 Mn 0.68384 0.92197 0.21152 0.0
Mn361 Mn 0.70797 0.87677 0.22079 0.0
C362 C 0.70575 0.91874 0.23961 0.0
C363 C 0.68364 0.9548 0.19592 0.0
C364 C 0.66265 0.88452 0.22913 0.0
O365 O 0.68014 0.9056 0.18446 0.0
O366 O 0.70208 0.87957 0.19096 0.0
C367 C 0.74564 0.88498 0.19792 0.0
N368 N 0.73738 0.88026 0.21638 0.0
C369 C 0.77134 0.86346 0.22789 0.0
C370 C 0.77889 0.87185 0.20833 0.0
C371 C 0.76643 0.88229 0.19437 0.0
C372 C 0.74968 0.87492 0.23231 0.0
H373 H 0.73629 0.89111 0.18572 0.0
C374 C 0.68998 0.88943 0.17903 0.0
O375 O 0.66684 0.94581 0.20174 0.0
O376 O 0.70025 0.94402 0.19769 0.0
N377 N 0.71341 0.86968 0.24935 0.0
C378 C 0.69755 0.85379 0.26045 0.0
C379 C 0.70416 0.83384 0.27793 0.0
C380 C 0.72916 0.82796 0.28638 0.0
C381 C 0.75038 0.84207 0.27736 0.0
C382 C 0.73777 0.87036 0.25228 0.0
H383 H 0.68171 0.85373 0.25594 0.0
O384 O 0.69249 0.93351 0.23882 0.0
O385 O 0.70583 0.90648 0.22405 0.0
O386 O 0.6625 0.90379 0.22582 0.0
O387 O 0.67812 0.87295 0.22564 0.0
C388 C 0.77102 0.83068 0.27351 0.0
C389 C 0.78359 0.83588 0.25341 0.0
H390 H 0.79421 0.86976 0.20232 0.0
H391 H 0.77278 0.88713 0.1798 0.0
H392 H 0.69186 0.8241 0.28329 0.0
H393 H 0.73166 0.81435 0.2955 0.0
H394 H 0.77536 0.81776 0.28295 0.0
H395 H 0.79719 0.82591 0.2532 0.0
Mn396 Mn 0.08049 0.68832 0.20907 0.0
Mn397 Mn 0.12566 0.71362 0.21675 0.0
C398 C 0.08427 0.7105 0.23682 0.0
C399 C 0.04738 0.68576 0.19507 0.0
C400 C 0.11844 0.66918 0.22894 0.0
O401 O 0.09497 0.68416 0.18132 0.0
O402 O 0.12311 0.70259 0.18859 0.0
C403 C 0.1294 0.74405 0.18908 0.0
N404 N 0.12258 0.74133 0.2083 0.0
C405 C 0.15247 0.75102 0.22882 0.0
C406 C 0.16195 0.74415 0.2053 0.0
C407 C 0.15036 0.7432 0.18711 0.0
C408 C 0.13207 0.75369 0.22246 0.0
H409 H 0.11968 0.74074 0.17603 0.0
C410 C 0.11231 0.69182 0.17641 0.0
O411 O 0.05752 0.66972 0.20103 0.0
O412 O 0.05702 0.70315 0.19604 0.0
N413 N 0.13276 0.72539 0.24223 0.0
C414 C 0.13052 0.71499 0.26038 0.0
C415 C 0.13999 0.72202 0.27921 0.0
C416 C 0.16184 0.74871 0.28477 0.0
C417 C 0.16475 0.7613 0.26235 0.0
C418 C 0.14513 0.74512 0.23767 0.0
H419 H 0.12124 0.70135 0.26052 0.0
O420 O 0.07007 0.69663 0.23664 0.0
O421 O 0.09573 0.71165 0.22056 0.0
O422 O 0.09996 0.66789 0.22272 0.0
O423 O 0.12964 0.68523 0.22717 0.0
C424 C 0.18048 0.77909 0.26382 0.0
C425 C 0.16728 0.76683 0.25549 0.0
H426 H 0.17798 0.74098 0.20206 0.0
H427 H 0.1575 0.74072 0.17231 0.0
H428 H 0.1336 0.7106 0.28995 0.0
H429 H 0.17015 0.75503 0.29809 0.0
H430 H 0.18667 0.77932 0.28045 0.0
H431 H 0.17984 0.78588 0.25371 0.0
Mn432 Mn 0.32015 0.92477 0.8005 0.0
Mn433 Mn 0.29629 0.87969 0.79164 0.0
C434 C 0.29815 0.92158 0.77227 0.0
C435 C 0.32172 0.95759 0.81548 0.0
C436 C 0.34117 0.88759 0.78327 0.0
O437 O 0.32387 0.90819 0.82772 0.0
O438 O 0.30061 0.88332 0.82156 0.0
C439 C 0.25771 0.88854 0.81254 0.0
N440 N 0.2668 0.88312 0.79468 0.0
C441 C 0.23365 0.86558 0.7823 0.0
C442 C 0.2252 0.87439 0.80133 0.0
C443 C 0.23687 0.88559 0.81538 0.0
C444 C 0.25529 0.87718 0.77845 0.0
H445 H 0.26643 0.89553 0.82472 0.0
C446 C 0.31317 0.89262 0.83343 0.0
O447 O 0.33806 0.94779 0.8098 0.0
O448 O 0.30459 0.94747 0.81432 0.0
N449 N 0.29228 0.8719 0.76304 0.0
C450 C 0.30873 0.85591 0.75293 0.0
C451 C 0.30301 0.83555 0.7356 0.0
C452 C 0.27843 0.82925 0.72628 0.0
C453 C 0.25675 0.84332 0.73415 0.0
C454 C 0.26808 0.87228 0.75912 0.0
H455 H 0.32429 0.85582 0.75822 0.0
O456 O 0.31139 0.93637 0.77315 0.0
O457 O 0.29803 0.90942 0.78794 0.0
O458 O 0.3409 0.90686 0.78584 0.0
O459 O 0.32635 0.87575 0.78827 0.0
C460 C 0.23609 0.83175 0.73745 0.0
C461 C 0.22269 0.83723 0.75696 0.0
H462 H 0.2097 0.87219 0.80683 0.0
H463 H 0.22984 0.89089 0.82948 0.0
H464 H 0.31559 0.82581 0.73094 0.0
H465 H 0.27643 0.81541 0.71736 0.0
H466 H 0.23227 0.81858 0.72811 0.0
H467 H 0.20919 0.82711 0.75689 0.0
Mn468 Mn 0.08468 0.31882 0.80158 0.0
Mn469 Mn 0.12752 0.29066 0.79167 0.0
C470 C 0.08569 0.29595 0.77446 0.0
C471 C 0.05074 0.32287 0.81489 0.0
C472 C 0.12246 0.33459 0.77729 0.0
O473 O 0.10049 0.32146 0.82917 0.0
O474 O 0.12898 0.30472 0.81893 0.0
C475 C 0.1252 0.26066 0.82714 0.0
N476 N 0.12692 0.26416 0.80656 0.0
C477 C 0.14969 0.22962 0.80585 0.0
C478 C 0.14602 0.2281 0.82678 0.0
C479 C 0.13374 0.24299 0.83686 0.0
C480 C 0.13655 0.25033 0.79527 0.0
H481 H 0.11757 0.27183 0.83665 0.0
C482 C 0.11887 0.31501 0.83229 0.0
O483 O 0.06194 0.33845 0.80953 0.0
O484 O 0.0601 0.30535 0.81475 0.0
N485 N 0.12986 0.27661 0.76461 0.0
C486 C 0.12987 0.28629 0.74393 0.0
C487 C 0.14231 0.27809 0.72426 0.0
C488 C 0.16555 0.24611 0.72765 0.0
C489 C 0.16408 0.23694 0.7506 0.0
C490 C 0.13961 0.25784 0.77094 0.0
H491 H 0.1227 0.30113 0.74228 0.0
O492 O 0.07312 0.31129 0.77454 0.0
O493 O 0.09747 0.2937 0.79048 0.0
O494 O 0.10562 0.33844 0.78677 0.0
O495 O 0.13091 0.31697 0.77755 0.0
C496 C 0.17481 0.21656 0.76539 0.0
C497 C 0.16783 0.21339 0.79203 0.0
H498 H 0.153 0.21585 0.83551 0.0
H499 H 0.13157 0.24138 0.85325 0.0
H500 H 0.13948 0.28823 0.7111 0.0
H501 H 0.17562 0.23809 0.71684 0.0
H502 H 0.18575 0.20632 0.75842 0.0
H503 H 0.17521 0.20117 0.80048 0.0
Mn504 Mn 0.69023 0.07836 0.80989 0.0
Mn505 Mn 0.71482 0.12281 0.79905 0.0
C506 C 0.71349 0.07975 0.78306 0.0
C507 C 0.68833 0.04574 0.82534 0.0
C508 C 0.67198 0.11319 0.78353 0.0
O509 O 0.68517 0.09496 0.83633 0.0
O510 O 0.70024 0.12414 0.82574 0.0
C511 C 0.74463 0.12507 0.83491 0.0
N512 N 0.74122 0.12518 0.81424 0.0
C513 C 0.77474 0.14955 0.8121 0.0
C514 C 0.77626 0.14729 0.83324 0.0
C515 C 0.76183 0.1351 0.84408 0.0
C516 C 0.75462 0.1349 0.80243 0.0
H517 H 0.73373 0.11762 0.84488 0.0
C518 C 0.69016 0.11375 0.83894 0.0
O519 O 0.67206 0.05513 0.81871 0.0
O520 O 0.7052 0.05623 0.82493 0.0
N521 N 0.72886 0.12478 0.77258 0.0
C522 C 0.71898 0.12275 0.75231 0.0
C523 C 0.72617 0.13397 0.73197 0.0
C524 C 0.75707 0.15893 0.73277 0.0
C525 C 0.76665 0.15969 0.75572 0.0
C526 C 0.74701 0.13594 0.7781 0.0
H527 H 0.70485 0.11438 0.75137 0.0
O528 O 0.69931 0.06591 0.78379 0.0
O529 O 0.71453 0.09252 0.79857 0.0
O530 O 0.66949 0.09647 0.79352 0.0
O531 O 0.68843 0.12368 0.78424 0.0
C532 C 0.78687 0.17257 0.76931 0.0
C533 C 0.79048 0.16747 0.79742 0.0
H534 H 0.78813 0.15538 0.84155 0.0
H535 H 0.76341 0.13416 0.86059 0.0
H536 H 0.71585 0.12959 0.71936 0.0
H537 H 0.7644 0.16838 0.72097 0.0
H538 H 0.79593 0.18346 0.75824 0.0
H539 H 0.79058 0.1717 0.78286 0.0
Mn540 Mn 0.92855 0.68879 0.80758 0.0
Mn541 Mn 0.88536 0.71641 0.79986 0.0
C542 C 0.92733 0.71299 0.78143 0.0
C543 C 0.96097 0.683 0.8217 0.0
C544 C 0.8915 0.67344 0.78293 0.0
O545 O 0.91261 0.68338 0.83439 0.0
O546 O 0.88467 0.70187 0.82643 0.0
C547 C 0.88961 0.7464 0.83546 0.0
N548 N 0.88661 0.74282 0.81504 0.0
C549 C 0.86486 0.77806 0.81524 0.0
C550 C 0.8708 0.78018 0.83558 0.0
C551 C 0.88295 0.76486 0.84519 0.0
C552 C 0.87691 0.75693 0.80414 0.0
H553 H 0.89703 0.73484 0.84474 0.0
C554 C 0.89469 0.69019 0.83848 0.0
O555 O 0.94973 0.6682 0.81465 0.0
O556 O 0.9525 0.70101 0.82243 0.0
N557 N 0.88207 0.73051 0.77361 0.0
C558 C 0.88142 0.72046 0.75335 0.0
C559 C 0.86826 0.72795 0.73435 0.0
C560 C 0.84479 0.75966 0.73768 0.0
C561 C 0.84704 0.76937 0.76074 0.0
C562 C 0.87231 0.74909 0.78021 0.0
H563 H 0.8891 0.70603 0.75158 0.0
O564 O 0.9406 0.69825 0.78125 0.0
O565 O 0.91543 0.71413 0.79755 0.0
O566 O 0.90887 0.67014 0.79125 0.0
O567 O 0.88153 0.69011 0.78514 0.0
C568 C 0.83704 0.79063 0.77535 0.0
C569 C 0.84591 0.79459 0.80259 0.0
H570 H 0.86594 0.79348 0.84417 0.0
H571 H 0.8866 0.76688 0.86127 0.0
H572 H 0.87084 0.71743 0.72141 0.0
H573 H 0.83441 0.76735 0.72695 0.0
H574 H 0.82564 0.80017 0.76537 0.0
H575 H 0.8398 0.79469 0.78868 0.0
Mn576 Mn 0.20849 0.32131 0.0864 0.0
Mn577 Mn 0.21765 0.29568 0.13071 0.0
C578 C 0.23658 0.29909 0.08874 0.0
C579 C 0.19389 0.32289 0.05296 0.0
C580 C 0.2261 0.34136 0.12458 0.0
O581 O 0.181 0.32397 0.10291 0.0
O582 O 0.18769 0.30073 0.12778 0.0
C583 C 0.19566 0.25727 0.12285 0.0
N584 N 0.21395 0.26613 0.12705 0.0
C585 C 0.22697 0.23238 0.14359 0.0
C586 C 0.20736 0.22434 0.13587 0.0
C587 C 0.19279 0.2364 0.12577 0.0
C588 C 0.23029 0.25434 0.1322 0.0
H589 H 0.18305 0.2662 0.11696 0.0
C590 C 0.17552 0.31308 0.11851 0.0
O591 O 0.19917 0.33925 0.06301 0.0
O592 O 0.19513 0.30586 0.06316 0.0
N593 N 0.24638 0.291 0.13741 0.0
C594 C 0.25769 0.30694 0.15308 0.0
C595 C 0.2762 0.30059 0.17217 0.0
C596 C 0.28563 0.27579 0.17727 0.0
C597 C 0.27663 0.25456 0.16318 0.0
C598 C 0.24997 0.26681 0.13621 0.0
H599 H 0.25312 0.32265 0.15323 0.0
O600 O 0.2359 0.31317 0.07475 0.0
O601 O 0.22095 0.29847 0.10095 0.0
O602 O 0.22286 0.34222 0.10529 0.0
O603 O 0.22175 0.32551 0.13535 0.0
C604 C 0.27395 0.23368 0.1744 0.0
C605 C 0.25406 0.2206 0.16988 0.0
H606 H 0.20188 0.20885 0.13814 0.0
H607 H 0.17828 0.22962 0.12134 0.0
H608 H 0.28168 0.31292 0.18183 0.0
H609 H 0.29545 0.27337 0.19043 0.0
H610 H 0.28412 0.22945 0.18682 0.0
H611 H 0.25479 0.20687 0.17958 0.0
Mn612 Mn 0.2053 0.68745 0.92867 0.0
Mn613 Mn 0.21446 0.71279 0.88414 0.0
C614 C 0.2325 0.7102 0.926 0.0
C615 C 0.19127 0.6839 0.96182 0.0
C616 C 0.2289 0.66976 0.89162 0.0
O617 O 0.17787 0.68353 0.91374 0.0
O618 O 0.18772 0.698 0.88402 0.0
C619 C 0.17837 0.74197 0.88699 0.0
N620 N 0.19886 0.73882 0.88412 0.0
C621 C 0.1974 0.77232 0.85992 0.0
C622 C 0.17672 0.77355 0.8648 0.0
C623 C 0.16776 0.75903 0.8783 0.0
C624 C 0.20927 0.75242 0.87337 0.0
H625 H 0.16966 0.73099 0.89574 0.0
C626 C 0.1747 0.68829 0.895 0.0
O627 O 0.19737 0.66819 0.95124 0.0
O628 O 0.19192 0.70148 0.95251 0.0
N629 N 0.24094 0.72728 0.87996 0.0
C630 C 0.26185 0.71817 0.87972 0.0
C631 C 0.28075 0.72607 0.86601 0.0
C632 C 0.2755 0.7562 0.84094 0.0
C633 C 0.25219 0.76483 0.84284 0.0
C634 C 0.23362 0.74514 0.86926 0.0
H635 H 0.26423 0.70394 0.88784 0.0
O636 O 0.23243 0.69575 0.93963 0.0
O637 O 0.21631 0.71173 0.91433 0.0
O638 O 0.21945 0.66717 0.90861 0.0
O639 O 0.22916 0.68663 0.88181 0.0
C640 C 0.23684 0.78474 0.83163 0.0
C641 C 0.20952 0.78812 0.84014 0.0
H642 H 0.16729 0.78528 0.85781 0.0
H643 H 0.15151 0.76041 0.88142 0.0
H644 H 0.29431 0.71654 0.86906 0.0
H645 H 0.28567 0.76389 0.82999 0.0
H646 H 0.24654 0.7936 0.81953 0.0
H647 H 0.22342 0.7884 0.83409 0.0
Mn648 Mn 0.32051 0.20106 0.92305 0.0
Mn649 Mn 0.29464 0.21201 0.87944 0.0
C650 C 0.29751 0.22823 0.92235 0.0
C651 C 0.32369 0.18645 0.95619 0.0
C652 C 0.33788 0.2271 0.88716 0.0
O653 O 0.32403 0.17411 0.90665 0.0
O654 O 0.30946 0.18554 0.87754 0.0
C655 C 0.26525 0.17567 0.87849 0.0
N656 N 0.26846 0.19634 0.87797 0.0
C657 C 0.23398 0.19777 0.85478 0.0
C658 C 0.23282 0.17667 0.85732 0.0
C659 C 0.24782 0.16619 0.86915 0.0
C660 C 0.25466 0.20783 0.86853 0.0
H661 H 0.27643 0.16594 0.88579 0.0
C662 C 0.31906 0.17188 0.88775 0.0
O663 O 0.33957 0.19241 0.94575 0.0
O664 O 0.30635 0.18689 0.94646 0.0
N665 N 0.28012 0.23819 0.87793 0.0
C666 C 0.28948 0.25865 0.88016 0.0
C667 C 0.28124 0.27899 0.86977 0.0
C668 C 0.24969 0.27786 0.84578 0.0
C669 C 0.24078 0.2544 0.84478 0.0
C670 C 0.26177 0.23236 0.86723 0.0
H671 H 0.30392 0.25987 0.88811 0.0
O672 O 0.31245 0.22752 0.93538 0.0
O673 O 0.29575 0.2126 0.90979 0.0
O674 O 0.34086 0.21662 0.90354 0.0
O675 O 0.32082 0.2272 0.87762 0.0
C676 C 0.22006 0.24063 0.8327 0.0
C677 C 0.21705 0.21236 0.83767 0.0
H678 H 0.2207 0.16815 0.84985 0.0
H679 H 0.24645 0.1497 0.87041 0.0
H680 H 0.29127 0.29179 0.87424 0.0
H681 H 0.24164 0.28966 0.83696 0.0
H682 H 0.21028 0.25168 0.82245 0.0
H683 H 0.21649 0.22695 0.83356 0.0
Mn684 Mn 0.80573 0.31472 0.92592 0.0
Mn685 Mn 0.79246 0.29136 0.88126 0.0
C686 C 0.77768 0.29312 0.92444 0.0
C687 C 0.82125 0.31667 0.9586 0.0
C688 C 0.77928 0.33426 0.89182 0.0
O689 O 0.83227 0.31813 0.90929 0.0
O690 O 0.81947 0.30605 0.87958 0.0
C691 C 0.82822 0.26164 0.87988 0.0
N692 N 0.80759 0.26506 0.87897 0.0
C693 C 0.8063 0.23159 0.85475 0.0
C694 C 0.82733 0.23008 0.85767 0.0
C695 C 0.83774 0.24446 0.87025 0.0
C696 C 0.796 0.25149 0.8693 0.0
H697 H 0.83789 0.2725 0.88771 0.0
C698 C 0.83376 0.31464 0.89004 0.0
O699 O 0.81553 0.33292 0.94865 0.0
O700 O 0.81985 0.29948 0.94866 0.0
N701 N 0.76553 0.27718 0.87856 0.0
C702 C 0.74487 0.28677 0.87969 0.0
C703 C 0.72498 0.27962 0.86699 0.0
C704 C 0.72775 0.24925 0.84156 0.0
C705 C 0.7506 0.23988 0.84199 0.0
C706 C 0.77163 0.25914 0.86732 0.0
H707 H 0.7433 0.30064 0.88842 0.0
O708 O 0.77922 0.30715 0.93839 0.0
O709 O 0.79295 0.29126 0.91159 0.0
O710 O 0.7908 0.33618 0.9076 0.0
O711 O 0.77776 0.31772 0.88151 0.0
C712 C 0.76478 0.21995 0.82948 0.0
C713 C 0.79251 0.21624 0.8359 0.0
H714 H 0.83591 0.21828 0.84976 0.0
H715 H 0.8542 0.24289 0.87178 0.0
H716 H 0.71192 0.28955 0.87082 0.0
H717 H 0.71672 0.24195 0.83119 0.0
H718 H 0.75425 0.21117 0.81784 0.0
H719 H 0.7782 0.21626 0.83097 0.0
Mn720 Mn 0.68449 0.79477 0.92592 0.0
Mn721 Mn 0.70977 0.78677 0.88134 0.0
C722 C 0.70608 0.76652 0.92259 0.0
C723 C 0.68428 0.81021 0.9588 0.0
C724 C 0.66429 0.77841 0.88758 0.0
O725 O 0.68094 0.82195 0.90984 0.0
O726 O 0.70476 0.81651 0.88531 0.0
C727 C 0.74774 0.80806 0.89224 0.0
N728 N 0.73911 0.79028 0.88595 0.0
C729 C 0.7731 0.77881 0.86922 0.0
C730 C 0.78089 0.79779 0.87868 0.0
C731 C 0.76865 0.81126 0.89002 0.0
C732 C 0.75113 0.77443 0.88001 0.0
H733 H 0.73856 0.82003 0.89902 0.0
C734 C 0.69179 0.82795 0.89456 0.0
O735 O 0.66743 0.80446 0.9498 0.0
O736 O 0.70088 0.80834 0.94805 0.0
N737 N 0.71465 0.75843 0.87326 0.0
C738 C 0.69896 0.7482 0.85662 0.0
C739 C 0.7057 0.73124 0.83627 0.0
C740 C 0.73067 0.72245 0.83073 0.0
C741 C 0.7517 0.73057 0.84567 0.0
C742 C 0.73891 0.75498 0.87443 0.0
H743 H 0.68321 0.75302 0.85636 0.0
O744 O 0.69275 0.76731 0.93732 0.0
O745 O 0.70659 0.78233 0.9107 0.0
O746 O 0.66365 0.78071 0.90704 0.0
O747 O 0.67989 0.78289 0.87649 0.0
C748 C 0.77271 0.73437 0.83486 0.0
C749 C 0.78555 0.75403 0.84104 0.0
H750 H 0.79631 0.80365 0.877 0.0
H751 H 0.77527 0.82534 0.89585 0.0
H752 H 0.69354 0.72644 0.82605 0.0
H753 H 0.73333 0.71372 0.81687 0.0
H754 H 0.77717 0.72526 0.82173 0.0
H755 H 0.79941 0.7543 0.83141 0.0
Mn756 Mn 0.79849 0.68288 0.08694 0.0
Mn757 Mn 0.78929 0.70691 0.13228 0.0
C758 C 0.77065 0.70508 0.09007 0.0
C759 C 0.81352 0.68213 0.05381 0.0
C760 C 0.77996 0.66189 0.12416 0.0
O761 O 0.8258 0.67938 0.10321 0.0
O762 O 0.81912 0.70123 0.12931 0.0
C763 C 0.81214 0.74498 0.12512 0.0
N764 N 0.79371 0.73646 0.12936 0.0
C765 C 0.78152 0.77023 0.14641 0.0
C766 C 0.8013 0.77794 0.13879 0.0
C767 C 0.81553 0.76572 0.1284 0.0
C768 C 0.77766 0.74857 0.13462 0.0
H769 H 0.82436 0.73587 0.11884 0.0
C770 C 0.83128 0.68952 0.11924 0.0
O771 O 0.80778 0.66552 0.06317 0.0
O772 O 0.81226 0.69888 0.06448 0.0
N773 N 0.76072 0.7122 0.13913 0.0
C774 C 0.74913 0.69622 0.15457 0.0
C775 C 0.7308 0.70267 0.17381 0.0
C776 C 0.72194 0.72758 0.17939 0.0
C777 C 0.73139 0.74887 0.16567 0.0
C778 C 0.75769 0.7365 0.13841 0.0
H779 H 0.75377 0.68044 0.15486 0.0
O780 O 0.7713 0.69164 0.07544 0.0
O781 O 0.7862 0.70516 0.10238 0.0
O782 O 0.78373 0.66177 0.10497 0.0
O783 O 0.78422 0.677 0.13596 0.0
C784 C 0.7346 0.76948 0.17729 0.0
C785 C 0.75479 0.78217 0.17298 0.0
H786 H 0.80717 0.79324 0.14134 0.0
H787 H 0.83016 0.77223 0.12397 0.0
H788 H 0.72514 0.69032 0.18331 0.0
H789 H 0.71224 0.72999 0.19264 0.0
H790 H 0.72456 0.77371 0.18982 0.0
H791 H 0.75445 0.79573 0.18298 0.0
Mn792 Mn 0.32257 0.79654 0.08003 0.0
Mn793 Mn 0.29714 0.79235 0.12517 0.0
C794 C 0.29882 0.77045 0.08429 0.0
C795 C 0.32499 0.81058 0.04673 0.0
C796 C 0.34179 0.78061 0.11879 0.0
O797 O 0.3283 0.82377 0.09523 0.0
O798 O 0.30368 0.82166 0.11955 0.0
C799 C 0.25979 0.81515 0.11516 0.0
N800 N 0.26776 0.79694 0.12113 0.0
C801 C 0.23323 0.78697 0.1381 0.0
C802 C 0.22611 0.80599 0.1283 0.0
C803 C 0.23899 0.8191 0.11727 0.0
C804 C 0.25516 0.78159 0.12744 0.0
H805 H 0.26938 0.82683 0.10847 0.0
C806 C 0.31783 0.83144 0.11002 0.0
O807 O 0.34097 0.80381 0.05649 0.0
O808 O 0.30789 0.8106 0.05693 0.0
N809 N 0.29111 0.76466 0.13469 0.0
C810 C 0.3065 0.75462 0.15174 0.0
C811 C 0.29927 0.73866 0.17273 0.0
C812 C 0.27406 0.73082 0.1786 0.0
C813 C 0.25325 0.73898 0.16336 0.0
C814 C 0.26676 0.76191 0.13366 0.0
H815 H 0.3224 0.75894 0.15181 0.0
O816 O 0.31215 0.76961 0.06956 0.0
O817 O 0.29951 0.78661 0.09575 0.0
O818 O 0.34211 0.78148 0.09927 0.0
O819 O 0.32693 0.78728 0.1298 0.0
C820 C 0.23237 0.74371 0.17395 0.0
C821 C 0.2201 0.76346 0.16708 0.0
H822 H 0.21081 0.81224 0.12966 0.0
H823 H 0.23292 0.8334 0.11142 0.0
H824 H 0.31129 0.73391 0.18312 0.0
H825 H 0.27117 0.72269 0.19277 0.0
H826 H 0.22764 0.7352 0.18739 0.0
H827 H 0.20628 0.76442 0.17671 0.0
Mn828 Mn 0.68385 0.20773 0.08314 0.0
Mn829 Mn 0.70839 0.21511 0.12845 0.0
C830 C 0.70645 0.23504 0.08676 0.0
C831 C 0.68196 0.19337 0.04989 0.0
C832 C 0.6633 0.22458 0.12092 0.0
O833 O 0.67952 0.18058 0.09921 0.0
O834 O 0.70295 0.18538 0.1244 0.0
C835 C 0.7467 0.19314 0.12043 0.0
N836 N 0.73798 0.21124 0.12553 0.0
C837 C 0.77137 0.22311 0.14361 0.0
C838 C 0.77925 0.20363 0.13526 0.0
C839 C 0.7674 0.18982 0.1239 0.0
C840 C 0.74985 0.22714 0.13186 0.0
H841 H 0.73772 0.181 0.11366 0.0
C842 C 0.68988 0.17428 0.11479 0.0
O843 O 0.66575 0.19928 0.0598 0.0
O844 O 0.69908 0.19397 0.06009 0.0
N845 N 0.7134 0.24348 0.13623 0.0
C846 C 0.69699 0.25448 0.15148 0.0
C847 C 0.70247 0.27256 0.171 0.0
C848 C 0.7267 0.28222 0.17764 0.0
C849 C 0.74942 0.27295 0.16403 0.0
C850 C 0.73766 0.24684 0.13601 0.0
H851 H 0.68131 0.24959 0.15142 0.0
O852 O 0.69305 0.23483 0.07205 0.0
O853 O 0.70648 0.21917 0.09866 0.0
O854 O 0.66333 0.22249 0.10153 0.0
O855 O 0.67836 0.2194 0.13243 0.0
C856 C 0.77132 0.26904 0.17571 0.0
C857 C 0.78345 0.24889 0.17091 0.0
H858 H 0.7945 0.19762 0.1378 0.0
H859 H 0.77412 0.17544 0.119 0.0
H860 H 0.68959 0.27806 0.17989 0.0
H861 H 0.74052 0.27939 0.17231 0.0
H862 H 0.77584 0.27864 0.18849 0.0
H863 H 0.79703 0.24887 0.18089 0.0
Mn864 Mn 0.9262 0.79607 0.68847 0.0
Mn865 Mn 0.88352 0.78857 0.71636 0.0
C866 C 0.92487 0.76913 0.71248 0.0
C867 C 0.9585 0.81195 0.68549 0.0
C868 C 0.8874 0.77922 0.67018 0.0
O869 O 0.90916 0.82278 0.6844 0.0
O870 O 0.88659 0.81834 0.71029 0.0
C871 C 0.89503 0.81114 0.75312 0.0
N872 N 0.88884 0.79293 0.7454 0.0
C873 C 0.872 0.78313 0.77971 0.0
C874 C 0.88198 0.8022 0.78673 0.0
C875 C 0.89308 0.81522 0.77386 0.0
C876 C 0.88279 0.7776 0.75811 0.0
H877 H 0.90179 0.82264 0.74333 0.0
C878 C 0.89447 0.82919 0.69591 0.0
O879 O 0.94865 0.80519 0.66954 0.0
O880 O 0.94885 0.81089 0.70286 0.0
N881 N 0.87667 0.76018 0.72241 0.0
C882 C 0.8608 0.74944 0.70672 0.0
C883 C 0.83973 0.73349 0.71298 0.0
C884 C 0.83249 0.72547 0.73764 0.0
C885 C 0.84705 0.73447 0.75987 0.0
C886 C 0.87696 0.75781 0.7467 0.0
H887 H 0.86552 0.74869 0.69128 0.0
O888 O 0.93863 0.76914 0.69812 0.0
O889 O 0.91265 0.78464 0.71222 0.0
O890 O 0.90683 0.78095 0.66871 0.0
O891 O 0.8776 0.78393 0.68666 0.0
C892 C 0.83623 0.74007 0.78185 0.0
C893 C 0.84301 0.76013 0.79323 0.0
H894 H 0.8807 0.80863 0.80199 0.0
H895 H 0.89908 0.8295 0.77987 0.0
H896 H 0.83119 0.72711 0.70026 0.0
H897 H 0.83815 0.72845 0.75132 0.0
H898 H 0.8228 0.73175 0.78694 0.0
H899 H 0.83336 0.76145 0.80703 0.0
Mn900 Mn 0.20497 0.92481 0.68994 0.0
Mn901 Mn 0.21642 0.88099 0.7151 0.0
C902 C 0.23222 0.92342 0.71298 0.0
C903 C 0.18884 0.95714 0.68704 0.0
C904 C 0.23112 0.88937 0.67231 0.0
O905 O 0.17832 0.9084 0.68569 0.0
O906 O 0.19036 0.87927 0.69948 0.0
C907 C 0.17951 0.88313 0.74346 0.0
N908 N 0.20009 0.88059 0.74067 0.0
C909 C 0.19883 0.85737 0.77467 0.0
C910 C 0.17835 0.86274 0.77617 0.0
C911 C 0.16911 0.87546 0.76112 0.0
C912 C 0.21062 0.87079 0.7549 0.0
H913 H 0.17063 0.89108 0.73195 0.0
C914 C 0.17663 0.88932 0.68977 0.0
O915 O 0.1957 0.94736 0.67108 0.0
O916 O 0.1902 0.94753 0.7044 0.0
N917 N 0.24255 0.8781 0.73041 0.0
C918 C 0.26357 0.87798 0.72155 0.0
C919 C 0.2825 0.86462 0.72988 0.0
C920 C 0.27724 0.84009 0.76062 0.0
C921 C 0.25407 0.84175 0.76895 0.0
C922 C 0.23513 0.86753 0.74835 0.0
H923 H 0.26607 0.88597 0.70729 0.0
O924 O 0.23163 0.93712 0.69861 0.0
O925 O 0.21663 0.91102 0.71413 0.0
O926 O 0.22029 0.90553 0.66953 0.0
O927 O 0.23202 0.87975 0.68933 0.0
C928 C 0.23852 0.83038 0.7885 0.0
C929 C 0.21098 0.83818 0.79098 0.0
H930 H 0.16959 0.85732 0.78904 0.0
H931 H 0.15294 0.87884 0.7627 0.0
H932 H 0.29613 0.86758 0.72042 0.0
H933 H 0.28745 0.8294 0.76861 0.0
H934 H 0.24834 0.81876 0.79789 0.0
H935 H 0.22501 0.83253 0.79169 0.0
Mn936 Mn 0.07818 0.21184 0.68424 0.0
Mn937 Mn 0.12415 0.21773 0.70811 0.0
C938 C 0.08301 0.2388 0.70725 0.0
C939 C 0.04461 0.19738 0.6834 0.0
C940 C 0.11629 0.22769 0.66318 0.0
O941 O 0.0936 0.18441 0.67917 0.0
O942 O 0.11909 0.18822 0.70242 0.0
C943 C 0.11561 0.19551 0.7461 0.0
N944 N 0.1212 0.21363 0.73765 0.0
C945 C 0.1401 0.22386 0.77097 0.0
C946 C 0.13081 0.20486 0.77882 0.0
C947 C 0.11896 0.1917 0.76676 0.0
C948 C 0.12819 0.22908 0.74973 0.0
H949 H 0.10832 0.18379 0.73698 0.0
C950 C 0.10914 0.17759 0.68922 0.0
O951 O 0.05383 0.20371 0.66692 0.0
O952 O 0.05546 0.19808 0.70008 0.0
N953 N 0.1333 0.24576 0.71328 0.0
C954 C 0.14932 0.25582 0.69687 0.0
C955 C 0.1706 0.2719 0.70277 0.0
C956 C 0.17792 0.2799 0.72755 0.0
C957 C 0.164 0.2718 0.74927 0.0
C958 C 0.13368 0.24868 0.73767 0.0
H959 H 0.1484 0.25155 0.68097 0.0
O960 O 0.06789 0.23912 0.69432 0.0
O961 O 0.09457 0.22276 0.70652 0.0
O962 O 0.09677 0.22636 0.66341 0.0
O963 O 0.12777 0.22212 0.67812 0.0
C964 C 0.17583 0.2673 0.7695 0.0
C965 C 0.16982 0.24764 0.78228 0.0
H966 H 0.13322 0.19866 0.79403 0.0
H967 H 0.11347 0.17744 0.77328 0.0
H968 H 0.18022 0.27666 0.69011 0.0
H969 H 0.19219 0.28811 0.72955 0.0
H970 H 0.18947 0.27592 0.77335 0.0
H971 H 0.18024 0.24678 0.79554 0.0
Mn972 Mn 0.79596 0.0764 0.68967 0.0
Mn973 Mn 0.78795 0.11988 0.71647 0.0
C974 C 0.76953 0.07809 0.71416 0.0
C975 C 0.81136 0.04356 0.6863 0.0
C976 C 0.7794 0.11476 0.67045 0.0
O977 O 0.82234 0.09418 0.68525 0.0
O978 O 0.81794 0.117 0.71113 0.0
C979 C 0.81019 0.11283 0.75465 0.0
N980 N 0.79176 0.11691 0.74601 0.0
C981 C 0.78096 0.13801 0.77784 0.0
C982 C 0.80035 0.13005 0.78623 0.0
C983 C 0.81394 0.11784 0.775 0.0
C984 C 0.77614 0.12423 0.75764 0.0
H985 H 0.82221 0.1056 0.74587 0.0
C986 C 0.82845 0.1095 0.69624 0.0
O987 O 0.80467 0.05379 0.67059 0.0
O988 O 0.81094 0.05325 0.7037 0.0
N989 N 0.75891 0.12576 0.72115 0.0
C990 C 0.74744 0.13939 0.7038 0.0
C991 C 0.73061 0.16049 0.70806 0.0
C992 C 0.72273 0.16961 0.73226 0.0
C993 C 0.7318 0.15797 0.7549 0.0
C994 C 0.75628 0.12793 0.74535 0.0
H995 H 0.74675 0.13288 0.6889 0.0
O996 O 0.76926 0.06412 0.69998 0.0
O997 O 0.78499 0.09038 0.71352 0.0
O998 O 0.78041 0.09529 0.66955 0.0
O999 O 0.78428 0.12467 0.6867 0.0
C1000 C 0.73602 0.1715 0.77412 0.0
C1001 C 0.75608 0.16727 0.78709 0.0
H1002 H 0.8065 0.13377 0.8012 0.0
H1003 H 0.82845 0.11346 0.7818 0.0
H1004 H 0.724 0.16777 0.6947 0.0
H1005 H 0.71359 0.18341 0.73321 0.0
H1006 H 0.72684 0.18499 0.77708 0.0
H1007 H 0.75654 0.17863 0.79953 0.0
Mn1008 Mn 0.92545 0.20404 0.31714 0.0
Mn1009 Mn 0.88137 0.21481 0.29128 0.0
C1010 C 0.92409 0.23067 0.2937 0.0
C1011 C 0.95804 0.18868 0.32112 0.0
C1012 C 0.88987 0.23012 0.33427 0.0
O1013 O 0.90923 0.17746 0.32148 0.0
O1014 O 0.88015 0.18809 0.30616 0.0
C1015 C 0.88187 0.17872 0.26193 0.0
N1016 N 0.88027 0.19933 0.26506 0.0
C1017 C 0.8554 0.19926 0.23199 0.0
C1018 C 0.85917 0.17835 0.23066 0.0
C1019 C 0.8724 0.16864 0.24495 0.0
C1020 C 0.86997 0.21036 0.25145 0.0
H1021 H 0.89013 0.16951 0.27291 0.0
C1022 C 0.89052 0.17483 0.31627 0.0
O1023 O 0.94763 0.19552 0.33665 0.0
O1024 O 0.9488 0.1893 0.30348 0.0
N1025 N 0.87837 0.24135 0.27676 0.0
C1026 C 0.87882 0.26203 0.28627 0.0
C1027 C 0.86503 0.28124 0.27944 0.0
C1028 C 0.83904 0.27716 0.2497 0.0
C1029 C 0.84026 0.25431 0.2404 0.0
C1030 C 0.86704 0.23463 0.25903 0.0
H1031 H 0.88805 0.26407 0.29972 0.0
O1032 O 0.93763 0.23039 0.30825 0.0
O1033 O 0.91164 0.21508 0.29248 0.0
O1034 O 0.90622 0.21971 0.33724 0.0
O1035 O 0.88002 0.22998 0.31738 0.0
C1036 C 0.82786 0.23944 0.22088 0.0
C1037 C 0.83547 0.21201 0.21711 0.0
H1038 H 0.85137 0.16931 0.21912 0.0
H1039 H 0.87452 0.15224 0.24356 0.0
H1040 H 0.86851 0.29451 0.28923 0.0
H1041 H 0.82799 0.28766 0.24263 0.0
H1042 H 0.81549 0.24934 0.21242 0.0
H1043 H 0.82987 0.22607 0.21718 0.0
Mn1044 Mn 0.80072 0.92626 0.31844 0.0
Mn1045 Mn 0.79122 0.88115 0.29405 0.0
C1046 C 0.77337 0.923 0.29616 0.0
C1047 C 0.81445 0.95968 0.32099 0.0
C1048 C 0.77719 0.88975 0.33716 0.0
O1049 O 0.82827 0.91151 0.32208 0.0
O1050 O 0.81831 0.8813 0.30861 0.0
C1051 C 0.82677 0.88274 0.26404 0.0
N1052 N 0.80629 0.8803 0.26764 0.0
C1053 C 0.80655 0.85579 0.23434 0.0
C1054 C 0.82711 0.86069 0.23234 0.0
C1055 C 0.83672 0.87406 0.24657 0.0
C1056 C 0.79537 0.86966 0.25423 0.0
H1057 H 0.83598 0.89119 0.27489 0.0
C1058 C 0.83148 0.89266 0.31783 0.0
O1059 O 0.80878 0.94939 0.33706 0.0
O1060 O 0.81369 0.9499 0.30365 0.0
N1061 N 0.76443 0.87699 0.27994 0.0
C1062 C 0.74376 0.87686 0.28959 0.0
C1063 C 0.72461 0.8632 0.28224 0.0
C1064 C 0.72887 0.83807 0.25181 0.0
C1065 C 0.75171 0.83974 0.24253 0.0
C1066 C 0.77117 0.86622 0.26183 0.0
H1067 H 0.74178 0.88498 0.30389 0.0
O1068 O 0.77345 0.93686 0.31039 0.0
O1069 O 0.78956 0.91136 0.29459 0.0
O1070 O 0.78683 0.90667 0.33938 0.0
O1071 O 0.77684 0.87958 0.32049 0.0
C1072 C 0.76667 0.82804 0.22264 0.0
C1073 C 0.794 0.8361 0.21897 0.0
H1074 H 0.83577 0.85395 0.21996 0.0
H1075 H 0.85291 0.87712 0.24459 0.0
H1076 H 0.71135 0.86623 0.29219 0.0
H1077 H 0.71845 0.82713 0.24446 0.0
H1078 H 0.75688 0.81579 0.21385 0.0
H1079 H 0.78001 0.83031 0.21896 0.0
Mn1080 Mn 0.08567 0.79953 0.32251 0.0
Mn1081 Mn 0.12791 0.78483 0.2959 0.0
C1082 C 0.08505 0.77155 0.30042 0.0
C1083 C 0.05411 0.81726 0.32479 0.0
C1084 C 0.1221 0.77793 0.34196 0.0
O1085 O 0.10463 0.82521 0.32401 0.0
O1086 O 0.12963 0.81482 0.30205 0.0
C1087 C 0.12672 0.81216 0.25836 0.0
N1088 N 0.1265 0.79241 0.26547 0.0
C1089 C 0.15318 0.78681 0.23121 0.0
C1090 C 0.15061 0.80745 0.22763 0.0
C1091 C 0.13699 0.81899 0.24011 0.0
C1092 C 0.13318 0.77798 0.25265 0.0
H1093 H 0.11896 0.82369 0.26728 0.0
C1094 C 0.12109 0.82845 0.3135 0.0
O1095 O 0.06387 0.81107 0.34102 0.0
O1096 O 0.06364 0.81485 0.30748 0.0
N1097 N 0.1284 0.75392 0.29218 0.0
C1098 C 0.13946 0.73932 0.31062 0.0
C1099 C 0.16196 0.72133 0.30729 0.0
C1100 C 0.17517 0.71593 0.2824 0.0
C1101 C 0.16725 0.72823 0.25818 0.0
C1102 C 0.13265 0.7535 0.26794 0.0
H1103 H 0.13432 0.74115 0.32621 0.0
O1104 O 0.07147 0.77316 0.31487 0.0
O1105 O 0.09832 0.78615 0.29918 0.0
O1106 O 0.10359 0.78399 0.34362 0.0
O1107 O 0.13218 0.77918 0.32525 0.0
C1108 C 0.18611 0.74259 0.23786 0.0
C1109 C 0.18029 0.77122 0.22398 0.0
H1110 H 0.16003 0.81509 0.21631 0.0
H1111 H 0.13573 0.83515 0.23657 0.0
H1112 H 0.16796 0.714 0.32091 0.0
H1113 H 0.18924 0.70716 0.28267 0.0
H1114 H 0.20111 0.73594 0.23542 0.0
H1115 H 0.19171 0.77831 0.21424 0.0
Mn1116 Mn 0.2082 0.07764 0.3158 0.0
Mn1117 Mn 0.21733 0.12199 0.29045 0.0
C1118 C 0.235 0.08029 0.29265 0.0
C1119 C 0.19378 0.04474 0.31887 0.0
C1120 C 0.23336 0.11376 0.33316 0.0
O1121 O 0.18103 0.09283 0.32059 0.0
O1122 O 0.19123 0.12246 0.30634 0.0
C1123 C 0.18051 0.11723 0.26221 0.0
N1124 N 0.20089 0.12116 0.26485 0.0
C1125 C 0.19829 0.14256 0.22973 0.0
C1126 C 0.17814 0.13586 0.22851 0.0
C1127 C 0.16971 0.12335 0.24419 0.0
C1128 C 0.21089 0.13067 0.25 0.0
H1129 H 0.17211 0.10932 0.27409 0.0
C1130 C 0.17821 0.11171 0.31632 0.0
O1131 O 0.20032 0.05482 0.33477 0.0
O1132 O 0.19421 0.05444 0.3015 0.0
N1133 N 0.24311 0.12632 0.27474 0.0
C1134 C 0.26403 0.12813 0.28353 0.0
C1135 C 0.28203 0.14254 0.27494 0.0
C1136 C 0.27532 0.16567 0.24339 0.0
C1137 C 0.25233 0.16217 0.23501 0.0
C1138 C 0.2351 0.13578 0.25641 0.0
H1139 H 0.26704 0.12053 0.29776 0.0
O1140 O 0.23511 0.06642 0.30685 0.0
O1141 O 0.21891 0.09201 0.29159 0.0
O1142 O 0.22319 0.09721 0.33593 0.0
O1143 O 0.23322 0.1239 0.31634 0.0
C1144 C 0.23604 0.17183 0.21505 0.0
C1145 C 0.20913 0.162 0.21282 0.0
H1146 H 0.1689 0.14017 0.21548 0.0
H1147 H 0.15377 0.1189 0.24281 0.0
H1148 H 0.29576 0.1408 0.28456 0.0
H1149 H 0.28483 0.17677 0.23511 0.0
H1150 H 0.24478 0.18407 0.20525 0.0
H1151 H 0.22273 0.16859 0.21198 0.0
Mn1152 Mn 0.69373 0.9244 0.80444 0.0
Mn1153 Mn 0.71744 0.8793 0.79283 0.0
C1154 C 0.71605 0.92214 0.77682 0.0
C1155 C 0.69126 0.95683 0.82038 0.0
C1156 C 0.67455 0.88969 0.77877 0.0
O1157 O 0.68939 0.90827 0.83109 0.0
O1158 O 0.70359 0.87878 0.82023 0.0
C1159 C 0.74809 0.87938 0.82786 0.0
N1160 N 0.74402 0.87733 0.80744 0.0
C1161 C 0.77619 0.85141 0.80672 0.0
C1162 C 0.77839 0.85543 0.82754 0.0
C1163 C 0.765 0.86939 0.83753 0.0
C1164 C 0.75674 0.86633 0.79614 0.0
H1165 H 0.738 0.88856 0.83716 0.0
C1166 C 0.69422 0.88951 0.83376 0.0
O1167 O 0.67525 0.94708 0.81373 0.0
O1168 O 0.70858 0.94708 0.81906 0.0
N1169 N 0.73092 0.87542 0.76573 0.0
C1170 C 0.72096 0.8761 0.74521 0.0
C1171 C 0.72726 0.86241 0.72568 0.0
C1172 C 0.75663 0.83595 0.72897 0.0
C1173 C 0.76637 0.83684 0.75168 0.0
C1174 C 0.74855 0.86368 0.772 0.0
H1175 H 0.70738 0.88522 0.74356 0.0
O1176 O 0.7023 0.93643 0.77792 0.0
O1177 O 0.71743 0.90963 0.79239 0.0
O1178 O 0.67257 0.90619 0.78916 0.0
O1179 O 0.69086 0.87896 0.77856 0.0
C1180 C 0.78598 0.82406 0.76602 0.0
C1181 C 0.79049 0.8314 0.79344 0.0
H1182 H 0.79005 0.84748 0.83628 0.0
H1183 H 0.76717 0.87187 0.85382 0.0
H1184 H 0.71726 0.86613 0.71263 0.0
H1185 H 0.76333 0.82489 0.71823 0.0
H1186 H 0.79388 0.81162 0.75577 0.0
H1187 H 0.79002 0.82589 0.77933 0.0
Mn1188 Mn 0.08148 0.68396 0.80134 0.0
Mn1189 Mn 0.12607 0.70899 0.79461 0.0
C1190 C 0.08392 0.70756 0.77477 0.0
C1191 C 0.04962 0.68053 0.81738 0.0
C1192 C 0.11856 0.6648 0.78305 0.0
O1193 O 0.09862 0.67806 0.82745 0.0
O1194 O 0.12141 0.70381 0.82427 0.0
C1195 C 0.11701 0.74722 0.81635 0.0
N1196 N 0.12238 0.73849 0.79828 0.0
C1197 C 0.13853 0.77257 0.78606 0.0
C1198 C 0.12937 0.78049 0.80513 0.0
C1199 C 0.11903 0.76817 0.81927 0.0
C1200 C 0.12789 0.75041 0.78212 0.0
H1201 H 0.11081 0.73815 0.82872 0.0
C1202 C 0.1132 0.68923 0.83447 0.0
O1203 O 0.0594 0.66495 0.80985 0.0
O1204 O 0.05922 0.698 0.8172 0.0
N1205 N 0.13473 0.71382 0.7665 0.0
C1206 C 0.15151 0.69812 0.75651 0.0
C1207 C 0.17171 0.70472 0.73933 0.0
C1208 C 0.17704 0.72956 0.73014 0.0
C1209 C 0.16201 0.75059 0.738 0.0
C1210 C 0.13342 0.73797 0.76276 0.0
H1211 H 0.15233 0.68262 0.76193 0.0
O1212 O 0.06904 0.69439 0.7752 0.0
O1213 O 0.09638 0.70701 0.79023 0.0
O1214 O 0.09922 0.66492 0.78469 0.0
O1215 O 0.13018 0.67892 0.79027 0.0
C1216 C 0.17267 0.7717 0.74142 0.0
C1217 C 0.16651 0.78479 0.76091 0.0
H1218 H 0.13078 0.79607 0.81064 0.0
H1219 H 0.11364 0.77485 0.83351 0.0
H1220 H 0.18199 0.69258 0.7347 0.0
H1221 H 0.19083 0.73216 0.72129 0.0
H1222 H 0.18571 0.7761 0.73215 0.0
H1223 H 0.17605 0.7987 0.76094 0.0
Mn1224 Mn 0.31833 0.07843 0.79303 0.0
Mn1225 Mn 0.29184 0.12189 0.78489 0.0
C1226 C 0.2938 0.07983 0.76673 0.0
C1227 C 0.32108 0.0464 0.80966 0.0
C1228 C 0.33772 0.11649 0.77571 0.0
O1229 O 0.32301 0.09593 0.81917 0.0
O1230 O 0.29773 0.11938 0.81493 0.0
C1231 C 0.25387 0.11483 0.80768 0.0
N1232 N 0.26237 0.11901 0.78923 0.0
C1233 C 0.23028 0.13966 0.77832 0.0
C1234 C 0.22221 0.13205 0.798 0.0
C1235 C 0.23354 0.11985 0.81156 0.0
C1236 C 0.25053 0.126 0.77362 0.0
H1237 H 0.26281 0.10776 0.8197 0.0
C1238 C 0.31216 0.1111 0.82555 0.0
O1239 O 0.33701 0.05587 0.80236 0.0
O1240 O 0.30383 0.05623 0.80859 0.0
N1241 N 0.28669 0.12735 0.75584 0.0
C1242 C 0.30373 0.14078 0.74371 0.0
C1243 C 0.29904 0.16129 0.72628 0.0
C1244 C 0.27465 0.16991 0.71844 0.0
C1245 C 0.25229 0.15834 0.72822 0.0
C1246 C 0.26248 0.12922 0.75349 0.0
H1247 H 0.31862 0.13433 0.74292 0.0
O1248 O 0.30791 0.0658 0.76663 0.0
O1249 O 0.29459 0.09239 0.78201 0.0
O1250 O 0.33858 0.09701 0.77716 0.0
O1251 O 0.32157 0.12655 0.78058 0.0
C1252 C 0.233 0.1718 0.73231 0.0
C1253 C 0.22038 0.16805 0.75269 0.0
H1254 H 0.20736 0.13591 0.80433 0.0
H1255 H 0.2269 0.11562 0.8262 0.0
H1256 H 0.31224 0.16849 0.71927 0.0
H1257 H 0.27344 0.18341 0.70888 0.0
H1258 H 0.22978 0.18498 0.72276 0.0
H1259 H 0.20782 0.17924 0.75296 0.0
Mn1260 Mn 0.9269 0.32267 0.79468 0.0
Mn1261 Mn 0.88114 0.29856 0.78782 0.0
C1262 C 0.92254 0.29996 0.76731 0.0
C1263 C 0.96053 0.32434 0.8093 0.0
C1264 C 0.88883 0.34357 0.77856 0.0
O1265 O 0.91079 0.32711 0.82204 0.0
O1266 O 0.88605 0.30319 0.81748 0.0
C1267 C 0.88978 0.25986 0.80884 0.0
N1268 N 0.8839 0.26893 0.79113 0.0
C1269 C 0.86377 0.23647 0.78037 0.0
C1270 C 0.87298 0.228 0.79918 0.0
C1271 C 0.88573 0.23926 0.81227 0.0
C1272 C 0.87633 0.25743 0.77555 0.0
H1273 H 0.8976 0.26848 0.82063 0.0
C1274 C 0.89537 0.31654 0.82845 0.0
O1275 O 0.95073 0.34051 0.80315 0.0
O1276 O 0.95015 0.30736 0.80852 0.0
N1277 N 0.87226 0.2943 0.75949 0.0
C1278 C 0.85674 0.31125 0.74951 0.0
C1279 C 0.83549 0.30615 0.7331 0.0
C1280 C 0.82765 0.28173 0.72463 0.0
C1281 C 0.84094 0.25958 0.73252 0.0
C1282 C 0.8713 0.27001 0.75615 0.0
H1283 H 0.85784 0.32697 0.75413 0.0
O1284 O 0.93759 0.31297 0.76736 0.0
O1285 O 0.91084 0.30033 0.78328 0.0
O1286 O 0.90832 0.34335 0.77996 0.0
O1287 O 0.8774 0.32868 0.78431 0.0
C1288 C 0.82849 0.23962 0.73673 0.0
C1289 C 0.83404 0.2264 0.75633 0.0
H1290 H 0.87007 0.21283 0.8052 0.0
H1291 H 0.89126 0.23224 0.82628 0.0
H1292 H 0.82621 0.31909 0.72848 0.0
H1293 H 0.8134 0.28021 0.71626 0.0
H1294 H 0.81482 0.23625 0.72795 0.0
H1295 H 0.82327 0.21344 0.75691 0.0
Mn1296 Mn 0.6898 0.0777 0.20482 0.0
Mn1297 Mn 0.71463 0.12246 0.21508 0.0
C1298 C 0.71266 0.08025 0.23181 0.0
C1299 C 0.68688 0.04421 0.19106 0.0
C1300 C 0.67176 0.11347 0.22998 0.0
O1301 O 0.68583 0.09307 0.17756 0.0
O1302 O 0.69971 0.12284 0.1883 0.0
C1303 C 0.74386 0.12172 0.17886 0.0
N1304 N 0.74071 0.12377 0.19945 0.0
C1305 C 0.77366 0.14873 0.19885 0.0
C1306 C 0.77489 0.14467 0.17796 0.0
C1307 C 0.76067 0.13118 0.16852 0.0
C1308 C 0.75424 0.13437 0.21025 0.0
H1309 H 0.73305 0.11303 0.16986 0.0
C1310 C 0.69035 0.11197 0.17486 0.0
O1311 O 0.67095 0.05465 0.19686 0.0
O1312 O 0.7042 0.05401 0.19136 0.0
N1313 N 0.72925 0.12625 0.24161 0.0
C1314 C 0.71997 0.12605 0.26245 0.0
C1315 C 0.72727 0.13976 0.28159 0.0
C1316 C 0.75715 0.16545 0.27705 0.0
C1317 C 0.76611 0.16409 0.25405 0.0
C1318 C 0.74698 0.13744 0.23464 0.0
H1319 H 0.70617 0.11734 0.26465 0.0
O1320 O 0.69826 0.06659 0.23177 0.0
O1321 O 0.71402 0.09223 0.21587 0.0
O1322 O 0.66912 0.09713 0.21945 0.0
O1323 O 0.68856 0.12344 0.23028 0.0
C1324 C 0.78553 0.17626 0.23886 0.0
C1325 C 0.78887 0.16855 0.21138 0.0
H1326 H 0.78638 0.15232 0.16875 0.0
H1327 H 0.76205 0.12873 0.15214 0.0
H1328 H 0.7176 0.13643 0.295 0.0
H1329 H 0.76446 0.17645 0.28745 0.0
H1330 H 0.79429 0.18857 0.24862 0.0
H1331 H 0.78901 0.17417 0.22544 0.0
Mn1332 Mn 0.92639 0.68725 0.2116 0.0
Mn1333 Mn 0.88407 0.71558 0.2188 0.0
C1334 C 0.92542 0.7113 0.23852 0.0
C1335 C 0.95859 0.68436 0.19565 0.0
C1336 C 0.88758 0.66954 0.22904 0.0
O1337 O 0.90937 0.68298 0.18493 0.0
O1338 O 0.88704 0.70903 0.18911 0.0
C1339 C 0.89603 0.75212 0.1955 0.0
N1340 N 0.8898 0.74454 0.21377 0.0
C1341 C 0.8742 0.77953 0.22387 0.0
C1342 C 0.88359 0.78614 0.20442 0.0
C1343 C 0.89435 0.77293 0.19134 0.0
C1344 C 0.88444 0.75748 0.2291 0.0
H1345 H 0.90236 0.74216 0.1839 0.0
C1346 C 0.89482 0.69454 0.17838 0.0
O1347 O 0.94891 0.66835 0.20252 0.0
O1348 O 0.94881 0.70161 0.19663 0.0
N1349 N 0.87728 0.72215 0.24712 0.0
C1350 C 0.86084 0.70747 0.25866 0.0
C1351 C 0.84076 0.71535 0.27543 0.0
C1352 C 0.8357 0.7408 0.28291 0.0
C1353 C 0.85084 0.76105 0.27344 0.0
C1354 C 0.8789 0.74638 0.24918 0.0
H1355 H 0.86415 0.69176 0.25892 0.0
O1356 O 0.93899 0.6968 0.23842 0.0
O1357 O 0.91313 0.71121 0.22299 0.0
O1358 O 0.90695 0.66775 0.22699 0.0
O1359 O 0.8779 0.68606 0.22419 0.0
C1360 C 0.84053 0.7821 0.26881 0.0
C1361 C 0.84675 0.79383 0.24848 0.0
H1362 H 0.88229 0.80134 0.19792 0.0
H1363 H 0.90015 0.77871 0.17688 0.0
H1364 H 0.83126 0.70347 0.28203 0.0
H1365 H 0.82222 0.74412 0.29199 0.0
H1366 H 0.82767 0.78733 0.27791 0.0
H1367 H 0.83751 0.80792 0.24771 0.0
Mn1368 Mn 0.32159 0.92937 0.19814 0.0
Mn1369 Mn 0.29686 0.88453 0.20726 0.0
C1370 C 0.29758 0.92726 0.22445 0.0
C1371 C 0.32501 0.9622 0.18362 0.0
C1372 C 0.33939 0.8939 0.22358 0.0
O1373 O 0.3271 0.9134 0.1713 0.0
O1374 O 0.31116 0.88422 0.18044 0.0
C1375 C 0.26677 0.88317 0.17164 0.0
N1376 N 0.27041 0.8823 0.19224 0.0
C1377 C 0.23806 0.85627 0.19352 0.0
C1378 C 0.2362 0.85942 0.17252 0.0
C1379 C 0.24995 0.87277 0.16215 0.0
C1380 C 0.25767 0.87141 0.2037 0.0
H1381 H 0.27722 0.89154 0.162 0.0
C1382 C 0.32159 0.8949 0.16778 0.0
O1383 O 0.34068 0.95208 0.19051 0.0
O1384 O 0.30768 0.95239 0.18332 0.0
N1385 N 0.28322 0.88149 0.2338 0.0
C1386 C 0.29307 0.88344 0.25409 0.0
C1387 C 0.28656 0.87132 0.27413 0.0
C1388 C 0.25727 0.84469 0.27261 0.0
C1389 C 0.24768 0.8441 0.2494 0.0
C1390 C 0.26572 0.86954 0.22797 0.0
H1391 H 0.30681 0.89242 0.2552 0.0
O1392 O 0.31177 0.94113 0.22437 0.0
O1393 O 0.29695 0.9149 0.20858 0.0
O1394 O 0.34183 0.91108 0.21456 0.0
O1395 O 0.32321 0.88318 0.22189 0.0
C1396 C 0.22774 0.83083 0.23556 0.0
C1397 C 0.22335 0.83692 0.20766 0.0
H1398 H 0.22464 0.85117 0.16394 0.0
H1399 H 0.24817 0.87439 0.14571 0.0
H1400 H 0.29663 0.87596 0.28685 0.0
H1401 H 0.25048 0.83454 0.28414 0.0
H1402 H 0.21935 0.81914 0.24631 0.0
H1403 H 0.22366 0.83206 0.22205 0.0
Mn1404 Mn 0.07939 0.31913 0.21152 0.0
Mn1405 Mn 0.12233 0.29196 0.22007 0.0
C1406 C 0.08105 0.29576 0.2392 0.0
C1407 C 0.04649 0.32159 0.19624 0.0
C1408 C 0.11831 0.33823 0.22745 0.0
O1409 O 0.09645 0.32208 0.18433 0.0
O1410 O 0.11941 0.29674 0.19006 0.0
C1411 C 0.11249 0.25412 0.19858 0.0
N1412 N 0.11787 0.26272 0.21669 0.0
C1413 C 0.13742 0.23015 0.22724 0.0
C1414 C 0.1283 0.22191 0.20826 0.0
C1415 C 0.11616 0.23352 0.19495 0.0
C1416 C 0.12486 0.25095 0.23229 0.0
H1417 H 0.1052 0.2631 0.18673 0.0
C1418 C 0.11144 0.31052 0.17851 0.0
O1419 O 0.05657 0.3377 0.20219 0.0
O1420 O 0.05629 0.30435 0.1975 0.0
N1421 N 0.12866 0.28747 0.24902 0.0
C1422 C 0.14351 0.30428 0.25974 0.0
C1423 C 0.165 0.29925 0.27588 0.0
C1424 C 0.17327 0.27477 0.28377 0.0
C1425 C 0.16026 0.25262 0.27541 0.0
C1426 C 0.1298 0.26326 0.25188 0.0
H1427 H 0.13776 0.31943 0.26037 0.0
O1428 O 0.06734 0.31014 0.239 0.0
O1429 O 0.0931 0.29571 0.22354 0.0
O1430 O 0.09886 0.33963 0.22589 0.0
O1431 O 0.12795 0.32162 0.22333 0.0
C1432 C 0.17275 0.23275 0.27091 0.0
C1433 C 0.16717 0.21978 0.25113 0.0
H1434 H 0.13101 0.20673 0.20216 0.0
H1435 H 0.11082 0.22676 0.18073 0.0
H1436 H 0.17315 0.31233 0.28201 0.0
H1437 H 0.18736 0.2733 0.29241 0.0
H1438 H 0.18643 0.22928 0.27963 0.0
H1439 H 0.17792 0.2068 0.25036 0.0
Mn1440 Mn 0.80051 0.68706 0.93036 0.0
Mn1441 Mn 0.79109 0.71196 0.88554 0.0
C1442 C 0.77304 0.70931 0.92721 0.0
C1443 C 0.81412 0.68447 0.96405 0.0
C1444 C 0.77671 0.669 0.89341 0.0
O1445 O 0.82813 0.68348 0.91563 0.0
O1446 O 0.81762 0.69684 0.88561 0.0
C1447 C 0.8273 0.74104 0.88868 0.0
N1448 N 0.80686 0.7379 0.88548 0.0
C1449 C 0.80837 0.77193 0.8622 0.0
C1450 C 0.82875 0.77352 0.86796 0.0
C1451 C 0.83775 0.75866 0.88104 0.0
C1452 C 0.79646 0.75184 0.87507 0.0
H1453 H 0.83608 0.72977 0.89705 0.0
C1454 C 0.8309 0.68753 0.89664 0.0
O1455 O 0.80853 0.66842 0.95366 0.0
O1456 O 0.81336 0.70174 0.95424 0.0
N1457 N 0.76477 0.72671 0.88098 0.0
C1458 C 0.74392 0.7175 0.88001 0.0
C1459 C 0.72531 0.72559 0.86601 0.0
C1460 C 0.73083 0.75664 0.84193 0.0
C1461 C 0.7538 0.76539 0.84449 0.0
C1462 C 0.77221 0.74487 0.87081 0.0
H1463 H 0.74137 0.70318 0.88784 0.0
O1464 O 0.77317 0.69499 0.94097 0.0
O1465 O 0.78927 0.71105 0.9157 0.0
O1466 O 0.78673 0.66636 0.91013 0.0
O1467 O 0.77609 0.68596 0.88373 0.0
C1468 C 0.76945 0.78534 0.83385 0.0
C1469 C 0.79662 0.78819 0.84274 0.0
H1470 H 0.83772 0.78617 0.86232 0.0
H1471 H 0.85385 0.76034 0.88474 0.0
H1472 H 0.71177 0.71585 0.8684 0.0
H1473 H 0.72084 0.76453 0.83096 0.0
H1474 H 0.76015 0.79476 0.82168 0.0
H1475 H 0.78279 0.78867 0.83659 0.0
Mn1476 Mn 0.80222 0.31309 0.08047 0.0
Mn1477 Mn 0.79045 0.28926 0.12539 0.0
C1478 C 0.77478 0.2907 0.08252 0.0
C1479 C 0.8179 0.31565 0.04785 0.0
C1480 C 0.77603 0.33194 0.11525 0.0
O1481 O 0.82885 0.31733 0.09664 0.0
O1482 O 0.81705 0.30438 0.12635 0.0
C1483 C 0.82682 0.26021 0.1253 0.0
N1484 N 0.80617 0.26323 0.12702 0.0
C1485 C 0.80655 0.22978 0.15138 0.0
C1486 C 0.82744 0.22861 0.14751 0.0
C1487 C 0.83703 0.24317 0.1345 0.0
C1488 C 0.79522 0.24948 0.13716 0.0
H1489 H 0.83603 0.2713 0.11717 0.0
C1490 C 0.83082 0.31351 0.11575 0.0
O1491 O 0.81142 0.33163 0.05777 0.0
O1492 O 0.81668 0.29832 0.05757 0.0
N1493 N 0.76394 0.27463 0.12909 0.0
C1494 C 0.7431 0.28384 0.12858 0.0
C1495 C 0.72385 0.27665 0.14217 0.0
C1496 C 0.72822 0.24715 0.16816 0.0
C1497 C 0.75146 0.2382 0.16699 0.0
C1498 C 0.77084 0.257 0.14046 0.0
H1499 H 0.74097 0.29738 0.11955 0.0
O1500 O 0.77571 0.30462 0.06839 0.0
O1501 O 0.7903 0.28934 0.09507 0.0
O1502 O 0.787 0.33409 0.09911 0.0
O1503 O 0.77525 0.31539 0.12565 0.0
C1504 C 0.76637 0.21839 0.17907 0.0
C1505 C 0.79383 0.21458 0.17125 0.0
H1506 H 0.83658 0.21703 0.1551 0.0
H1507 H 0.85343 0.2419 0.13229 0.0
H1508 H 0.71046 0.2862 0.13854 0.0
H1509 H 0.71775 0.23987 0.17911 0.0
H1510 H 0.75645 0.20977 0.1913 0.0
H1511 H 0.77978 0.21459 0.17696 0.0
Mn1512 Mn 0.69201 0.80022 0.08135 0.0
Mn1513 Mn 0.71591 0.78944 0.12656 0.0
C1514 C 0.71471 0.77304 0.08409 0.0
C1515 C 0.68891 0.81431 0.04808 0.0
C1516 C 0.67327 0.77492 0.1165 0.0
O1517 O 0.68788 0.82734 0.09696 0.0
O1518 O 0.70104 0.81609 0.12686 0.0
C1519 C 0.74515 0.82561 0.1267 0.0
N1520 N 0.742 0.80501 0.12845 0.0
C1521 C 0.77449 0.80539 0.15403 0.0
C1522 C 0.77589 0.82625 0.15008 0.0
C1523 C 0.76187 0.83582 0.13646 0.0
C1524 C 0.75532 0.79411 0.13922 0.0
H1525 H 0.73438 0.83478 0.11811 0.0
C1526 C 0.69198 0.8297 0.11602 0.0
O1527 O 0.6731 0.80838 0.05857 0.0
O1528 O 0.70637 0.81385 0.05769 0.0
N1529 N 0.73029 0.76292 0.13059 0.0
C1530 C 0.72081 0.74221 0.13029 0.0
C1531 C 0.72758 0.72312 0.14429 0.0
C1532 C 0.75687 0.72754 0.17071 0.0
C1533 C 0.76607 0.75042 0.16946 0.0
C1534 C 0.74778 0.76982 0.14221 0.0
H1535 H 0.70714 0.74014 0.12141 0.0
O1536 O 0.70058 0.77332 0.07013 0.0
O1537 O 0.71596 0.78889 0.09622 0.0
O1538 O 0.67109 0.78559 0.10024 0.0
O1539 O 0.68976 0.77438 0.12695 0.0
C1540 C 0.78532 0.76546 0.18205 0.0
C1541 C 0.7891 0.79283 0.17428 0.0
H1542 H 0.78726 0.83538 0.15802 0.0
H1543 H 0.7633 0.85219 0.1342 0.0
H1544 H 0.71786 0.7098 0.14082 0.0
H1545 H 0.76381 0.71717 0.18197 0.0
H1546 H 0.79364 0.75568 0.19463 0.0
H1547 H 0.78898 0.77882 0.17999 0.0
Mn1548 Mn 0.20557 0.68992 0.08365 0.0
Mn1549 Mn 0.21314 0.72006 0.12552 0.0
C1550 C 0.23141 0.714 0.08399 0.0
C1551 C 0.191 0.6845 0.05097 0.0
C1552 C 0.22939 0.67656 0.12225 0.0
O1553 O 0.17875 0.6856 0.09941 0.0
O1554 O 0.18608 0.70583 0.12647 0.0
C1555 C 0.1778 0.74963 0.12062 0.0
N1556 N 0.1983 0.74641 0.12329 0.0
C1557 C 0.19776 0.78132 0.14542 0.0
C1558 C 0.17705 0.78263 0.14064 0.0
C1559 C 0.16762 0.76742 0.12825 0.0
C1560 C 0.20911 0.76053 0.13309 0.0
H1561 H 0.16872 0.73808 0.113 0.0
C1562 C 0.1742 0.69363 0.11669 0.0
O1563 O 0.19805 0.66937 0.06188 0.0
O1564 O 0.19091 0.70228 0.0598 0.0
N1565 N 0.24 0.73413 0.1284 0.0
C1566 C 0.26056 0.72433 0.12965 0.0
C1567 C 0.27946 0.73246 0.14322 0.0
C1568 C 0.27489 0.76454 0.16609 0.0
C1569 C 0.25217 0.77382 0.16323 0.0
C1570 C 0.23319 0.75298 0.13764 0.0
H1571 H 0.26255 0.70943 0.1227 0.0
O1572 O 0.23188 0.69863 0.07144 0.0
O1573 O 0.21533 0.71577 0.09575 0.0
O1574 O 0.22155 0.67186 0.10481 0.0
O1575 O 0.22714 0.69413 0.13042 0.0
C1576 C 0.23712 0.79449 0.17323 0.0
C1577 C 0.21001 0.79783 0.16434 0.0
H1578 H 0.16791 0.79492 0.147 0.0
H1579 H 0.15134 0.76884 0.12536 0.0
H1580 H 0.29269 0.72223 0.14121 0.0
H1581 H 0.28511 0.77255 0.17676 0.0
H1582 H 0.24676 0.80372 0.1851 0.0
H1583 H 0.22385 0.79814 0.17043 0.0
Mn1584 Mn 0.31803 0.20587 0.07892 0.0
Mn1585 Mn 0.29307 0.2152 0.12383 0.0
C1586 C 0.29418 0.23223 0.08148 0.0
C1587 C 0.32175 0.1912 0.04577 0.0
C1588 C 0.33542 0.23148 0.11484 0.0
O1589 O 0.32309 0.17889 0.0945 0.0
O1590 O 0.30863 0.18895 0.12419 0.0
C1591 C 0.26478 0.17831 0.12287 0.0
N1592 N 0.26738 0.19895 0.12501 0.0
C1593 C 0.23488 0.19727 0.15051 0.0
C1594 C 0.23405 0.17645 0.14619 0.0
C1595 C 0.24831 0.1675 0.1324 0.0
C1596 C 0.25372 0.2093 0.13589 0.0
H1597 H 0.2758 0.16964 0.1141 0.0
C1598 C 0.31861 0.17598 0.11339 0.0
O1599 O 0.33726 0.19812 0.05612 0.0
O1600 O 0.30425 0.19144 0.05529 0.0
N1601 N 0.27797 0.24122 0.12786 0.0
C1602 C 0.28694 0.26214 0.12788 0.0
C1603 C 0.27979 0.28076 0.14227 0.0
C1604 C 0.25068 0.27519 0.16868 0.0
C1605 C 0.24201 0.25213 0.16699 0.0
C1606 C 0.26067 0.23369 0.13934 0.0
H1607 H 0.30044 0.26473 0.11882 0.0
O1608 O 0.30841 0.23246 0.0676 0.0
O1609 O 0.29351 0.21628 0.09353 0.0
O1610 O 0.33824 0.22139 0.09822 0.0
O1611 O 0.31875 0.23096 0.125 0.0
C1612 C 0.22316 0.23638 0.17933 0.0
C1613 C 0.22003 0.20908 0.17103 0.0
H1614 H 0.22293 0.16688 0.15396 0.0
H1615 H 0.24732 0.15113 0.12984 0.0
H1616 H 0.2892 0.29435 0.13901 0.0
H1617 H 0.24354 0.2852 0.18014 0.0
H1618 H 0.21468 0.24571 0.19214 0.0
H1619 H 0.21982 0.22298 0.17701 0.0
Mn1620 Mn 0.21114 0.31826 0.92985 0.0
Mn1621 Mn 0.21936 0.29203 0.88607 0.0
C1622 C 0.23867 0.29495 0.9274 0.0
C1623 C 0.19602 0.321 0.96299 0.0
C1624 C 0.22607 0.33827 0.89121 0.0
O1625 O 0.18425 0.32167 0.91254 0.0
O1626 O 0.1892 0.29599 0.88963 0.0
C1627 C 0.19945 0.25313 0.8948 0.0
N1628 N 0.217 0.26254 0.88913 0.0
C1629 C 0.22768 0.23173 0.86682 0.0
C1630 C 0.209 0.22261 0.87583 0.0
C1631 C 0.19608 0.23284 0.88957 0.0
C1632 C 0.23254 0.25166 0.88063 0.0
H1633 H 0.18774 0.26137 0.90313 0.0
C1634 C 0.17824 0.31044 0.89733 0.0
O1635 O 0.20202 0.33692 0.95269 0.0
O1636 O 0.1971 0.30364 0.95327 0.0
N1637 N 0.24842 0.28848 0.87943 0.0
C1638 C 0.25878 0.30658 0.86613 0.0
C1639 C 0.27502 0.30387 0.84446 0.0
C1640 C 0.28391 0.28079 0.83388 0.0
C1641 C 0.27566 0.2565 0.84513 0.0
C1642 C 0.25181 0.26453 0.87642 0.0
H1643 H 0.25929 0.32115 0.87336 0.0
O1644 O 0.23855 0.30895 0.94156 0.0
O1645 O 0.2229 0.29502 0.91551 0.0
O1646 O 0.22552 0.33899 0.91074 0.0
O1647 O 0.22156 0.32195 0.88128 0.0
C1648 C 0.27084 0.23607 0.8313 0.0
C1649 C 0.25119 0.22317 0.83635 0.0
H1650 H 0.20291 0.20764 0.87208 0.0
H1651 H 0.18221 0.22538 0.89486 0.0
H1652 H 0.28128 0.31774 0.83795 0.0
H1653 H 0.28139 0.26638 0.83755 0.0
H1654 H 0.27936 0.23319 0.81735 0.0
H1655 H 0.25039 0.2108 0.82488 0.0
Mn1656 Mn 0.68472 0.21208 0.92744 0.0
Mn1657 Mn 0.70918 0.21836 0.882 0.0
C1658 C 0.70817 0.23863 0.92363 0.0
C1659 C 0.68251 0.19712 0.96044 0.0
C1660 C 0.6643 0.22858 0.88946 0.0
O1661 O 0.67969 0.18506 0.9115 0.0
O1662 O 0.70366 0.18872 0.88662 0.0
C1663 C 0.74754 0.19606 0.88927 0.0
N1664 N 0.73882 0.21424 0.88444 0.0
C1665 C 0.77155 0.22527 0.86461 0.0
C1666 C 0.77958 0.20583 0.87277 0.0
C1667 C 0.76804 0.19237 0.88486 0.0
C1668 C 0.75062 0.22984 0.87739 0.0
H1669 H 0.7387 0.18408 0.8965 0.0
C1670 C 0.6902 0.17815 0.89632 0.0
O1671 O 0.66649 0.20388 0.95078 0.0
O1672 O 0.69966 0.19771 0.95031 0.0
N1673 N 0.7141 0.24678 0.874 0.0
C1674 C 0.6974 0.25795 0.85903 0.0
C1675 C 0.70293 0.27541 0.83875 0.0
C1676 C 0.72757 0.28379 0.83149 0.0
C1677 C 0.74951 0.27469 0.8444 0.0
C1678 C 0.73846 0.24967 0.87334 0.0
H1679 H 0.68155 0.25369 0.85993 0.0
O1680 O 0.69487 0.23892 0.93845 0.0
O1681 O 0.70755 0.22276 0.91176 0.0
O1682 O 0.66445 0.22732 0.90895 0.0
O1683 O 0.67919 0.22257 0.87816 0.0
C1684 C 0.76942 0.27079 0.83179 0.0
C1685 C 0.7822 0.25067 0.83626 0.0
H1686 H 0.79463 0.19964 0.86951 0.0
H1687 H 0.77476 0.17794 0.88958 0.0
H1688 H 0.69011 0.28084 0.82972 0.0
H1689 H 0.72933 0.29291 0.81775 0.0
H1690 H 0.77303 0.28024 0.81864 0.0
H1691 H 0.79518 0.25042 0.82552 0.0
Mn1692 Mn 0.32144 0.79609 0.92437 0.0
Mn1693 Mn 0.29553 0.78786 0.88017 0.0
C1694 C 0.29937 0.76805 0.92162 0.0
C1695 C 0.32394 0.81092 0.95733 0.0
C1696 C 0.34105 0.77983 0.88588 0.0
O1697 O 0.32439 0.82346 0.90813 0.0
O1698 O 0.3002 0.81782 0.88393 0.0
C1699 C 0.25732 0.80856 0.89079 0.0
N1700 N 0.26616 0.79092 0.88452 0.0
C1701 C 0.23266 0.77912 0.86703 0.0
C1702 C 0.22471 0.79825 0.87616 0.0
C1703 C 0.23653 0.81173 0.88792 0.0
C1704 C 0.25441 0.775 0.87819 0.0
H1705 H 0.26629 0.8204 0.89805 0.0
C1706 C 0.31315 0.82948 0.89307 0.0
O1707 O 0.34001 0.80525 0.94705 0.0
O1708 O 0.30653 0.80959 0.94771 0.0
N1709 N 0.29097 0.75926 0.8726 0.0
C1710 C 0.30718 0.74878 0.85678 0.0
C1711 C 0.30148 0.73118 0.83688 0.0
C1712 C 0.27721 0.72142 0.83048 0.0
C1713 C 0.25468 0.73005 0.8448 0.0
C1714 C 0.26677 0.75554 0.87328 0.0
H1715 H 0.32291 0.75358 0.85694 0.0
O1716 O 0.31323 0.76864 0.93588 0.0
O1717 O 0.29868 0.78388 0.90974 0.0
O1718 O 0.34173 0.7819 0.90527 0.0
O1719 O 0.32541 0.7845 0.87497 0.0
C1720 C 0.23246 0.73403 0.83373 0.0
C1721 C 0.2202 0.75391 0.83936 0.0
H1722 H 0.20936 0.8042 0.87405 0.0
H1723 H 0.22969 0.82577 0.89361 0.0
H1724 H 0.31424 0.72598 0.82765 0.0
H1725 H 0.26346 0.72394 0.83616 0.0
H1726 H 0.22775 0.72472 0.82081 0.0
H1727 H 0.20635 0.75398 0.82981 0.0
Mn1728 Mn 0.58036 0.70458 0.81508 0.0
Mn1729 Mn 0.62429 0.71584 0.7896 0.0
C1730 C 0.58196 0.73208 0.79268 0.0
C1731 C 0.54794 0.68903 0.81802 0.0
C1732 C 0.61588 0.73024 0.83279 0.0
O1733 O 0.59665 0.67793 0.81927 0.0
O1734 O 0.62569 0.68929 0.80465 0.0
C1735 C 0.62056 0.67994 0.7601 0.0
N1736 N 0.62375 0.70034 0.76342 0.0
C1737 C 0.645 0.6997 0.72811 0.0
C1738 C 0.63897 0.67941 0.72618 0.0
C1739 C 0.62692 0.66999 0.74167 0.0
C1740 C 0.63283 0.71119 0.74889 0.0
H1741 H 0.61311 0.67086 0.77178 0.0
C1742 C 0.61555 0.67579 0.81462 0.0
O1743 O 0.55793 0.69551 0.834 0.0
O1744 O 0.55754 0.69013 0.80061 0.0
N1745 N 0.62773 0.74233 0.77486 0.0
C1746 C 0.62906 0.76295 0.78444 0.0
C1747 C 0.64293 0.78165 0.77643 0.0
C1748 C 0.66607 0.77672 0.74457 0.0
C1749 C 0.66313 0.75399 0.73536 0.0
C1750 C 0.63731 0.73528 0.7562 0.0
H1751 H 0.62159 0.76521 0.79892 0.0
O1752 O 0.56812 0.73125 0.80688 0.0
O1753 O 0.59424 0.71645 0.79107 0.0
O1754 O 0.59951 0.71975 0.8354 0.0
O1755 O 0.62596 0.73077 0.81596 0.0
C1756 C 0.67314 0.73876 0.71477 0.0
C1757 C 0.66405 0.71171 0.71155 0.0
H1758 H 0.64367 0.67074 0.71287 0.0
H1759 H 0.62313 0.65395 0.73981 0.0
H1760 H 0.64088 0.79497 0.78656 0.0
H1761 H 0.67688 0.78682 0.73659 0.0
H1762 H 0.68509 0.74825 0.70535 0.0
H1763 H 0.67027 0.7255 0.7112 0.0
Mn1764 Mn 0.29973 0.58242 0.81949 0.0
Mn1765 Mn 0.28825 0.6262 0.79462 0.0
C1766 C 0.27235 0.58387 0.79675 0.0
C1767 C 0.31426 0.54959 0.82294 0.0
C1768 C 0.27396 0.61788 0.8373 0.0
O1769 O 0.32677 0.59825 0.82287 0.0
O1770 O 0.31435 0.62785 0.81042 0.0
C1771 C 0.32545 0.62539 0.76652 0.0
N1772 N 0.30476 0.62724 0.76915 0.0
C1773 C 0.30564 0.65075 0.73526 0.0
C1774 C 0.3264 0.64646 0.73422 0.0
C1775 C 0.33585 0.63387 0.74924 0.0
C1776 C 0.2941 0.637 0.75499 0.0
H1777 H 0.33445 0.61749 0.77793 0.0
C1778 C 0.32837 0.61745 0.81937 0.0
O1779 O 0.3084 0.56019 0.83875 0.0
O1780 O 0.31342 0.55887 0.80534 0.0
N1781 N 0.26216 0.62885 0.77924 0.0
C1782 C 0.24104 0.62831 0.78789 0.0
C1783 C 0.2218 0.64109 0.77934 0.0
C1784 C 0.22664 0.66563 0.74853 0.0
C1785 C 0.2499 0.66461 0.74043 0.0
C1786 C 0.26944 0.63957 0.76134 0.0
H1787 H 0.23861 0.62013 0.80209 0.0
O1788 O 0.2728 0.57061 0.81152 0.0
O1789 O 0.28808 0.5961 0.79518 0.0
O1790 O 0.2853 0.60213 0.84003 0.0
O1791 O 0.27242 0.62717 0.8202 0.0
C1792 C 0.26521 0.67632 0.72094 0.0
C1793 C 0.293 0.66941 0.71874 0.0
H1794 H 0.33528 0.65286 0.72186 0.0
H1795 H 0.35219 0.63126 0.74799 0.0
H1796 H 0.20815 0.63773 0.78865 0.0
H1797 H 0.21623 0.67597 0.74038 0.0
H1798 H 0.25501 0.68742 0.71135 0.0
H1799 H 0.27879 0.67459 0.71787 0.0
Mn1800 Mn 0.42396 0.30639 0.81926 0.0
Mn1801 Mn 0.38006 0.29574 0.79374 0.0
C1802 C 0.42283 0.27917 0.79625 0.0
C1803 C 0.45721 0.32094 0.82206 0.0
C1804 C 0.38815 0.28042 0.83685 0.0
O1805 O 0.40774 0.3334 0.82309 0.0
O1806 O 0.37843 0.32233 0.80863 0.0
C1807 C 0.37903 0.33201 0.76434 0.0
N1808 N 0.37849 0.31134 0.76753 0.0
C1809 C 0.3553 0.30986 0.73313 0.0
C1810 C 0.35781 0.33097 0.73197 0.0
C1811 C 0.36966 0.34148 0.74693 0.0
C1812 C 0.36908 0.29983 0.7537 0.0
H1813 H 0.38638 0.34172 0.7755 0.0
C1814 C 0.38885 0.33586 0.81828 0.0
O1815 O 0.44695 0.31497 0.83806 0.0
O1816 O 0.44728 0.32049 0.80483 0.0
N1817 N 0.37828 0.26949 0.77923 0.0
C1818 C 0.37999 0.24902 0.78874 0.0
C1819 C 0.36917 0.22883 0.78057 0.0
C1820 C 0.34552 0.23024 0.74863 0.0
C1821 C 0.34507 0.25338 0.73955 0.0
C1822 C 0.36782 0.27537 0.76075 0.0
H1823 H 0.38781 0.24772 0.80323 0.0
O1824 O 0.43605 0.27986 0.81102 0.0
O1825 O 0.41038 0.2949 0.7946 0.0
O1826 O 0.40456 0.29088 0.83981 0.0
O1827 O 0.37847 0.28052 0.81987 0.0
C1828 C 0.33308 0.2673 0.71906 0.0
C1829 C 0.33819 0.29546 0.71628 0.0
H1830 H 0.35028 0.33948 0.71987 0.0
H1831 H 0.3709 0.35797 0.74555 0.0
H1832 H 0.37318 0.216 0.79076 0.0
H1833 H 0.33647 0.21858 0.7406 0.0
H1834 H 0.32285 0.2563 0.70924 0.0
H1835 H 0.33404 0.28091 0.71566 0.0
Mn1836 Mn 0.70999 0.42529 0.82504 0.0
Mn1837 Mn 0.71845 0.38054 0.79998 0.0
C1838 C 0.73781 0.42233 0.80279 0.0
C1839 C 0.69478 0.45827 0.82581 0.0
C1840 C 0.7281 0.38759 0.84513 0.0
O1841 O 0.68296 0.4088 0.82906 0.0
O1842 O 0.68872 0.38367 0.80591 0.0
C1843 C 0.69597 0.39062 0.76258 0.0
N1844 N 0.71409 0.38468 0.7707 0.0
C1845 C 0.72539 0.36874 0.73628 0.0
C1846 C 0.70593 0.37784 0.7291 0.0
C1847 C 0.69238 0.38858 0.74175 0.0
C1848 C 0.72988 0.37924 0.75827 0.0
H1849 H 0.68406 0.39702 0.77213 0.0
C1850 C 0.67717 0.39304 0.81871 0.0
O1851 O 0.70069 0.44905 0.84246 0.0
O1852 O 0.69596 0.44755 0.8091 0.0
N1853 N 0.74672 0.37301 0.79423 0.0
C1854 C 0.75766 0.35686 0.80977 0.0
C1855 C 0.77528 0.33729 0.80311 0.0
C1856 C 0.78448 0.3316 0.77843 0.0
C1857 C 0.77515 0.34639 0.75648 0.0
C1858 C 0.74973 0.37426 0.76994 0.0
H1859 H 0.75307 0.35645 0.82558 0.0
O1860 O 0.73708 0.43697 0.81621 0.0
O1861 O 0.72219 0.41014 0.80259 0.0
O1862 O 0.72491 0.40688 0.8457 0.0
O1863 O 0.72344 0.37618 0.8298 0.0
C1864 C 0.7707 0.33586 0.73405 0.0
C1865 C 0.75045 0.34166 0.72241 0.0
H1866 H 0.6997 0.3763 0.71379 0.0
H1867 H 0.67801 0.39411 0.73549 0.0
H1868 H 0.78083 0.32776 0.81551 0.0
H1869 H 0.78156 0.3376 0.76488 0.0
H1870 H 0.77997 0.32316 0.72878 0.0
H1871 H 0.75 0.33236 0.70832 0.0
Mn1872 Mn 0.58057 0.30177 0.19128 0.0
Mn1873 Mn 0.62521 0.29001 0.2156 0.0
C1874 C 0.58246 0.27451 0.21381 0.0
C1875 C 0.54784 0.31667 0.18785 0.0
C1876 C 0.61539 0.27592 0.17278 0.0
O1877 O 0.59663 0.3285 0.18748 0.0
O1878 O 0.6263 0.31671 0.20067 0.0
C1879 C 0.62622 0.32614 0.24497 0.0
N1880 N 0.62724 0.3055 0.24178 0.0
C1881 C 0.65214 0.30491 0.27485 0.0
C1882 C 0.64904 0.32591 0.27619 0.0
C1883 C 0.63607 0.33598 0.2619 0.0
C1884 C 0.63734 0.29423 0.2553 0.0
H1885 H 0.61813 0.33558 0.2341 0.0
C1886 C 0.6157 0.33048 0.19151 0.0
O1887 O 0.55836 0.31055 0.17212 0.0
O1888 O 0.55712 0.31581 0.20549 0.0
N1889 N 0.62829 0.26332 0.23001 0.0
C1890 C 0.62752 0.24259 0.22055 0.0
C1891 C 0.64065 0.22303 0.22776 0.0
C1892 C 0.66642 0.22665 0.25777 0.0
C1893 C 0.66569 0.24962 0.26688 0.0
C1894 C 0.63965 0.26984 0.24782 0.0
H1895 H 0.61899 0.24079 0.20658 0.0
O1896 O 0.5687 0.27511 0.19948 0.0
O1897 O 0.59489 0.2901 0.21533 0.0
O1898 O 0.59938 0.2869 0.17046 0.0
O1899 O 0.62556 0.27501 0.18944 0.0
C1900 C 0.67806 0.26452 0.28624 0.0
C1901 C 0.67144 0.29117 0.28973 0.0
H1902 H 0.65709 0.33472 0.28774 0.0
H1903 H 0.6344 0.35243 0.26329 0.0
H1904 H 0.63699 0.20981 0.21796 0.0
H1905 H 0.67712 0.21591 0.26502 0.0
H1906 H 0.68985 0.25764 0.29562 0.0
H1907 H 0.67986 0.29971 0.3012 0.0
Mn1908 Mn 0.69968 0.57655 0.18994 0.0
Mn1909 Mn 0.70919 0.62146 0.21433 0.0
C1910 C 0.72592 0.57857 0.21408 0.0
C1911 C 0.68528 0.54359 0.18673 0.0
C1912 C 0.72586 0.61166 0.17206 0.0
O1913 O 0.67296 0.59254 0.18427 0.0
O1914 O 0.68286 0.62206 0.1991 0.0
C1915 C 0.67263 0.62372 0.2432 0.0
N1916 N 0.69333 0.62419 0.24028 0.0
C1917 C 0.69402 0.65038 0.27248 0.0
C1918 C 0.67293 0.64762 0.27365 0.0
C1919 C 0.66278 0.63438 0.25963 0.0
C1920 C 0.70454 0.63492 0.25341 0.0
H1921 H 0.66319 0.61547 0.23244 0.0
C1922 C 0.66998 0.61136 0.18895 0.0
O1923 O 0.69205 0.55367 0.17097 0.0
O1924 O 0.68487 0.55355 0.20398 0.0
N1925 N 0.73523 0.6243 0.22887 0.0
C1926 C 0.75576 0.62227 0.21957 0.0
C1927 C 0.77555 0.6346 0.22645 0.0
C1928 C 0.7733 0.6613 0.25584 0.0
C1929 C 0.75015 0.66186 0.2649 0.0
C1930 C 0.72897 0.63632 0.24622 0.0
H1931 H 0.75727 0.61294 0.2061 0.0
O1932 O 0.72574 0.56472 0.19986 0.0
O1933 O 0.71016 0.59107 0.21462 0.0
O1934 O 0.71608 0.59488 0.16952 0.0
O1935 O 0.72469 0.62226 0.1884 0.0
C1936 C 0.73579 0.67538 0.28408 0.0
C1937 C 0.70781 0.6696 0.28747 0.0
H1938 H 0.66413 0.65612 0.28487 0.0
H1939 H 0.64627 0.63308 0.26085 0.0
H1940 H 0.78852 0.63002 0.21668 0.0
H1941 H 0.78463 0.67154 0.26285 0.0
H1942 H 0.74643 0.68704 0.29258 0.0
H1943 H 0.72222 0.67431 0.28762 0.0
Mn1944 Mn 0.42665 0.70741 0.19131 0.0
Mn1945 Mn 0.38163 0.71747 0.2157 0.0
C1946 C 0.42396 0.73452 0.21409 0.0
C1947 C 0.4595 0.69289 0.18765 0.0
C1948 C 0.39094 0.7323 0.17294 0.0
O1949 O 0.41145 0.68027 0.18723 0.0
O1950 O 0.38154 0.69062 0.20096 0.0
C1951 C 0.38323 0.68167 0.24546 0.0
N1952 N 0.38041 0.70206 0.24189 0.0
C1953 C 0.35486 0.70105 0.27446 0.0
C1954 C 0.35989 0.68045 0.27628 0.0
C1955 C 0.37411 0.67135 0.2625 0.0
C1956 C 0.36922 0.71265 0.25505 0.0
H1957 H 0.39233 0.67285 0.23487 0.0
C1958 C 0.3926 0.67737 0.1916 0.0
O1959 O 0.44894 0.69921 0.17204 0.0
O1960 O 0.45034 0.69365 0.20536 0.0
N1961 N 0.3772 0.74398 0.23003 0.0
C1962 C 0.37756 0.76478 0.22078 0.0
C1963 C 0.3635 0.78378 0.22767 0.0
C1964 C 0.33695 0.77898 0.25663 0.0
C1965 C 0.3383 0.75575 0.26561 0.0
C1966 C 0.36555 0.73688 0.24739 0.0
H1967 H 0.38681 0.76704 0.20739 0.0
O1968 O 0.43788 0.73424 0.19989 0.0
O1969 O 0.41196 0.71859 0.21543 0.0
O1970 O 0.40746 0.72206 0.17062 0.0
O1971 O 0.38058 0.73245 0.1895 0.0
C1972 C 0.32608 0.74064 0.28518 0.0
C1973 C 0.33439 0.71335 0.28924 0.0
H1974 H 0.35251 0.67117 0.28789 0.0
H1975 H 0.37733 0.65518 0.26432 0.0
H1976 H 0.36712 0.79722 0.21818 0.0
H1977 H 0.32569 0.78927 0.26367 0.0
H1978 H 0.31345 0.75034 0.29342 0.0
H1979 H 0.32835 0.72726 0.28908 0.0
Mn1980 Mn 0.30703 0.42961 0.18644 0.0
Mn1981 Mn 0.30009 0.38732 0.21591 0.0
C1982 C 0.28209 0.42955 0.21205 0.0
C1983 C 0.3212 0.46231 0.18032 0.0
C1984 C 0.28184 0.39203 0.17292 0.0
O1985 O 0.33359 0.4133 0.1808 0.0
O1986 O 0.32672 0.38644 0.2014 0.0
C1987 C 0.33588 0.38922 0.24567 0.0
N1988 N 0.31528 0.38767 0.24239 0.0
C1989 C 0.31505 0.3628 0.27562 0.0
C1990 C 0.33594 0.3667 0.27716 0.0
C1991 C 0.34579 0.37983 0.26283 0.0
C1992 C 0.30424 0.37708 0.25582 0.0
H1993 H 0.34519 0.39733 0.23466 0.0
C1994 C 0.3383 0.39603 0.18885 0.0
O1995 O 0.31359 0.4513 0.16558 0.0
O1996 O 0.32246 0.45344 0.19809 0.0
N1997 N 0.27383 0.38503 0.23001 0.0
C1998 C 0.25354 0.38567 0.22004 0.0
C1999 C 0.23433 0.37228 0.22652 0.0
C2000 C 0.23717 0.34658 0.25674 0.0
C2001 C 0.25999 0.34766 0.26658 0.0
C2002 C 0.28019 0.374 0.24794 0.0
H2003 H 0.2519 0.39453 0.20618 0.0
O2004 O 0.2813 0.4421 0.1967 0.0
O2005 O 0.29805 0.41738 0.21283 0.0
O2006 O 0.28975 0.40941 0.16848 0.0
O2007 O 0.2852 0.38312 0.18997 0.0
C2008 C 0.27454 0.3355 0.28659 0.0
C2009 C 0.302 0.34311 0.29067 0.0
H2010 H 0.34488 0.35907 0.28888 0.0
H2011 H 0.36218 0.38197 0.26437 0.0
H2012 H 0.22146 0.37575 0.21619 0.0
H2013 H 0.22626 0.33583 0.26364 0.0
H2014 H 0.26448 0.32334 0.2952 0.0
H2015 H 0.28791 0.33753 0.29049 0.0
Mn2016 Mn 0.82226 0.58793 0.70917 0.0
Mn2017 Mn 0.79775 0.63273 0.71904 0.0
C2018 C 0.80109 0.59081 0.73803 0.0
C2019 C 0.82293 0.55476 0.69418 0.0
C2020 C 0.84305 0.62559 0.72701 0.0
O2021 O 0.82468 0.60427 0.68164 0.0
O2022 O 0.80244 0.62978 0.68893 0.0
C2023 C 0.75943 0.62323 0.69784 0.0
N2024 N 0.76833 0.62862 0.71579 0.0
C2025 C 0.73448 0.64448 0.72862 0.0
C2026 C 0.7264 0.63596 0.70931 0.0
C2027 C 0.73849 0.62553 0.69502 0.0
C2028 C 0.75657 0.6337 0.73216 0.0
H2029 H 0.7684 0.61674 0.68561 0.0
C2030 C 0.81411 0.62011 0.67641 0.0
O2031 O 0.83959 0.5644 0.69925 0.0
O2032 O 0.80607 0.56516 0.69603 0.0
N2033 N 0.79325 0.64002 0.74772 0.0
C2034 C 0.80904 0.65639 0.75821 0.0
C2035 C 0.80256 0.67602 0.77608 0.0
C2036 C 0.77777 0.68106 0.78561 0.0
C2037 C 0.75666 0.66633 0.77738 0.0
C2038 C 0.76909 0.63859 0.75162 0.0
H2039 H 0.82453 0.65732 0.75275 0.0
O2040 O 0.81463 0.57633 0.73679 0.0
O2041 O 0.80029 0.603 0.72241 0.0
O2042 O 0.84346 0.60641 0.72325 0.0
O2043 O 0.82768 0.63712 0.72301 0.0
C2044 C 0.73557 0.67712 0.7745 0.0
C2045 C 0.72236 0.67169 0.75492 0.0
H2046 H 0.71085 0.63782 0.70383 0.0
H2047 H 0.73167 0.62031 0.68078 0.0
H2048 H 0.81474 0.68619 0.7809 0.0
H2049 H 0.77522 0.69456 0.79489 0.0
H2050 H 0.73126 0.68984 0.78424 0.0
H2051 H 0.70845 0.68124 0.7553 0.0
Mn2052 Mn 0.42725 0.82322 0.70834 0.0
Mn2053 Mn 0.38266 0.79777 0.7141 0.0
C2054 C 0.42431 0.79948 0.73483 0.0
C2055 C 0.45969 0.8262 0.69292 0.0
C2056 C 0.3897 0.84209 0.72605 0.0
O2057 O 0.41025 0.82932 0.68206 0.0
O2058 O 0.3882 0.80289 0.68463 0.0
C2059 C 0.3933 0.75968 0.69294 0.0
N2060 N 0.38656 0.76833 0.71055 0.0
C2061 C 0.3696 0.73432 0.72178 0.0
C2062 C 0.37965 0.72659 0.70301 0.0
C2063 C 0.39121 0.73881 0.68974 0.0
C2064 C 0.38007 0.75634 0.72629 0.0
H2065 H 0.40046 0.7688 0.68113 0.0
C2066 C 0.39579 0.81806 0.67484 0.0
O2067 O 0.45002 0.84199 0.70021 0.0
O2068 O 0.44963 0.80901 0.69286 0.0
N2069 N 0.37322 0.79272 0.74191 0.0
C2070 C 0.35653 0.80857 0.75156 0.0
C2071 C 0.33608 0.8025 0.76836 0.0
C2072 C 0.32978 0.77815 0.77786 0.0
C2073 C 0.34488 0.75593 0.76986 0.0
C2074 C 0.37414 0.76854 0.74556 0.0
H2075 H 0.35586 0.82401 0.74603 0.0
O2076 O 0.43926 0.81258 0.73465 0.0
O2077 O 0.41214 0.80013 0.71918 0.0
O2078 O 0.40911 0.84218 0.72483 0.0
O2079 O 0.37839 0.82791 0.71838 0.0
C2080 C 0.33437 0.73353 0.76539 0.0
C2081 C 0.34104 0.72138 0.74574 0.0
H2082 H 0.37829 0.71115 0.6971 0.0
H2083 H 0.39743 0.73215 0.67584 0.0
H2084 H 0.32629 0.81503 0.77303 0.0
H2085 H 0.33584 0.76454 0.77559 0.0
H2086 H 0.32114 0.72861 0.77413 0.0
H2087 H 0.33161 0.7074 0.74513 0.0
Mn2088 Mn 0.18673 0.42612 0.7006 0.0
Mn2089 Mn 0.2167 0.38449 0.70781 0.0
C2090 C 0.2111 0.42604 0.72668 0.0
C2091 C 0.18204 0.45905 0.68619 0.0
C2092 C 0.17297 0.38778 0.72467 0.0
O2093 O 0.18192 0.40986 0.67376 0.0
O2094 O 0.20282 0.38336 0.68087 0.0
C2095 C 0.24735 0.38927 0.67298 0.0
N2096 N 0.24345 0.3866 0.69337 0.0
C2097 C 0.27878 0.36502 0.6942 0.0
C2098 C 0.28121 0.37061 0.67378 0.0
C2099 C 0.26601 0.38254 0.66368 0.0
C2100 C 0.2574 0.37704 0.70464 0.0
H2101 H 0.23587 0.3964 0.66337 0.0
C2102 C 0.19021 0.39266 0.66916 0.0
O2103 O 0.16666 0.44842 0.69311 0.0
O2104 O 0.19951 0.44967 0.68574 0.0
N2105 N 0.23021 0.38211 0.73444 0.0
C2106 C 0.21966 0.38141 0.75447 0.0
C2107 C 0.22701 0.36855 0.7737 0.0
C2108 C 0.25958 0.34589 0.7714 0.0
C2109 C 0.26982 0.34816 0.74882 0.0
C2110 C 0.24927 0.37288 0.72844 0.0
H2111 H 0.20487 0.38871 0.75585 0.0
O2112 O 0.19575 0.43856 0.7269 0.0
O2113 O 0.21268 0.41419 0.71055 0.0
O2114 O 0.16838 0.40537 0.71711 0.0
O2115 O 0.19038 0.37939 0.72163 0.0
C2116 C 0.29126 0.33817 0.73463 0.0
C2117 C 0.29532 0.3466 0.70737 0.0
H2118 H 0.29461 0.36556 0.66542 0.0
H2119 H 0.26828 0.38589 0.64757 0.0
H2120 H 0.21607 0.37085 0.78633 0.0
H2121 H 0.26721 0.33574 0.7824 0.0
H2122 H 0.30073 0.32674 0.74476 0.0
H2123 H 0.29531 0.34077 0.72137 0.0
Mn2124 Mn 0.58626 0.18424 0.71054 0.0
Mn2125 Mn 0.63161 0.20843 0.71994 0.0
C2126 C 0.58934 0.2067 0.7384 0.0
C2127 C 0.55263 0.18313 0.69599 0.0
C2128 C 0.6237 0.16332 0.72934 0.0
O2129 O 0.60256 0.18091 0.68301 0.0
O2130 O 0.62895 0.20225 0.69017 0.0
C2131 C 0.62478 0.24613 0.69635 0.0
N2132 N 0.62868 0.23789 0.71501 0.0
C2133 C 0.64525 0.27194 0.72708 0.0
C2134 C 0.63797 0.27934 0.70704 0.0
C2135 C 0.62796 0.26686 0.69276 0.0
C2136 C 0.63364 0.25025 0.73102 0.0
H2137 H 0.61891 0.23682 0.68402 0.0
C2138 C 0.61892 0.19075 0.6778 0.0
O2139 O 0.56242 0.1667 0.70146 0.0
O2140 O 0.56316 0.19999 0.69706 0.0
N2141 N 0.63823 0.21418 0.74847 0.0
C2142 C 0.65363 0.19848 0.76046 0.0
C2143 C 0.67251 0.20529 0.77901 0.0
C2144 C 0.67773 0.23034 0.78769 0.0
C2145 C 0.66399 0.25139 0.77779 0.0
C2146 C 0.63726 0.2385 0.7512 0.0
H2147 H 0.65415 0.18265 0.75595 0.0
O2148 O 0.57493 0.19303 0.73788 0.0
O2149 O 0.60164 0.20672 0.72282 0.0
O2150 O 0.60458 0.16308 0.72519 0.0
O2151 O 0.63536 0.17863 0.72553 0.0
C2152 C 0.67546 0.27203 0.77462 0.0
C2153 C 0.6714 0.28447 0.75427 0.0
H2154 H 0.64058 0.29458 0.70103 0.0
H2155 H 0.62381 0.27314 0.67794 0.0
H2156 H 0.68206 0.1931 0.78493 0.0
H2157 H 0.6908 0.23297 0.79757 0.0
H2158 H 0.68777 0.27645 0.78484 0.0
H2159 H 0.68129 0.29811 0.75461 0.0
Mn2160 Mn 0.81586 0.42687 0.3044 0.0
Mn2161 Mn 0.79219 0.38175 0.293 0.0
C2162 C 0.79356 0.42441 0.27687 0.0
C2163 C 0.81842 0.45993 0.31912 0.0
C2164 C 0.83502 0.39171 0.27912 0.0
O2165 O 0.8198 0.41108 0.33138 0.0
O2166 O 0.80676 0.38124 0.31995 0.0
C2167 C 0.76239 0.38152 0.32876 0.0
N2168 N 0.76589 0.3798 0.30819 0.0
C2169 C 0.7332 0.35439 0.30801 0.0
C2170 C 0.73155 0.35825 0.3289 0.0
C2171 C 0.7455 0.37176 0.33872 0.0
C2172 C 0.75276 0.36908 0.29705 0.0
H2173 H 0.773 0.39013 0.33805 0.0
C2174 C 0.81581 0.39204 0.33364 0.0
O2175 O 0.83442 0.44973 0.31319 0.0
O2176 O 0.80108 0.45017 0.31822 0.0
N2177 N 0.77817 0.37791 0.26616 0.0
C2178 C 0.78765 0.37885 0.24543 0.0
C2179 C 0.78085 0.36544 0.2259 0.0
C2180 C 0.75171 0.33893 0.22957 0.0
C2181 C 0.74249 0.33961 0.25277 0.0
C2182 C 0.76065 0.36617 0.27272 0.0
H2183 H 0.80129 0.38794 0.24358 0.0
O2184 O 0.80758 0.43844 0.27764 0.0
O2185 O 0.79212 0.41207 0.29256 0.0
O2186 O 0.83703 0.40812 0.28966 0.0
O2187 O 0.81851 0.38132 0.27836 0.0
C2188 C 0.72271 0.32701 0.26734 0.0
C2189 C 0.71848 0.33442 0.29488 0.0
H2190 H 0.71999 0.35038 0.33785 0.0
H2191 H 0.74386 0.374 0.3551 0.0
H2192 H 0.79051 0.36939 0.21267 0.0
H2193 H 0.74473 0.32803 0.21885 0.0
H2194 H 0.7143 0.3148 0.25719 0.0
H2195 H 0.71874 0.32889 0.28075 0.0
Mn2196 Mn 0.5758 0.81476 0.30211 0.0
Mn2197 Mn 0.62006 0.789 0.2921 0.0
C2198 C 0.5781 0.79194 0.27491 0.0
C2199 C 0.54279 0.81863 0.31655 0.0
C2200 C 0.61229 0.83208 0.27756 0.0
O2201 O 0.59151 0.81914 0.32919 0.0
O2202 O 0.62057 0.80399 0.31853 0.0
C2203 C 0.61572 0.75964 0.32798 0.0
N2204 N 0.6194 0.76291 0.30763 0.0
C2205 C 0.64211 0.7285 0.3093 0.0
C2206 C 0.63556 0.72659 0.32948 0.0
C2207 C 0.62256 0.74163 0.33833 0.0
C2208 C 0.62955 0.74879 0.29722 0.0
H2209 H 0.60755 0.7711 0.33673 0.0
C2210 C 0.61032 0.81421 0.33171 0.0
O2211 O 0.55348 0.83418 0.31028 0.0
O2212 O 0.55197 0.80097 0.31598 0.0
N2213 N 0.62446 0.77439 0.2657 0.0
C2214 C 0.62577 0.78385 0.24499 0.0
C2215 C 0.64028 0.77624 0.22661 0.0
C2216 C 0.66483 0.74579 0.23239 0.0
C2217 C 0.66185 0.73674 0.25546 0.0
C2218 C 0.63474 0.75632 0.27319 0.0
H2219 H 0.61788 0.79813 0.24248 0.0
O2220 O 0.56434 0.80624 0.27513 0.0
O2221 O 0.58996 0.79051 0.29088 0.0
O2222 O 0.59553 0.83474 0.28736 0.0
O2223 O 0.62224 0.81524 0.27728 0.0
C2224 C 0.6722 0.71641 0.27103 0.0
C2225 C 0.66233 0.71268 0.2979 0.0
H2226 H 0.64058 0.71369 0.33855 0.0
H2227 H 0.61837 0.73981 0.3543 0.0
H2228 H 0.63796 0.78607 0.21312 0.0
H2229 H 0.67617 0.73821 0.22257 0.0
H2230 H 0.68478 0.70739 0.26193 0.0
H2231 H 0.66905 0.71259 0.28428 0.0
Mn2232 Mn 0.18799 0.58046 0.29848 0.0
Mn2233 Mn 0.21225 0.62515 0.28625 0.0
C2234 C 0.21002 0.58265 0.27081 0.0
C2235 C 0.18622 0.54826 0.31459 0.0
C2236 C 0.1672 0.61636 0.27731 0.0
O2237 O 0.18465 0.5976 0.3248 0.0
O2238 O 0.2035 0.62547 0.31579 0.0
C2239 C 0.24797 0.62431 0.31607 0.0
N2240 N 0.24227 0.62422 0.29579 0.0
C2241 C 0.27869 0.64824 0.29253 0.0
C2242 C 0.28091 0.64522 0.3133 0.0
C2243 C 0.26661 0.63287 0.32403 0.0
C2244 C 0.25651 0.62987 0.28205 0.0
H2245 H 0.23758 0.61798 0.32729 0.0
C2246 C 0.19259 0.6152 0.32867 0.0
O2247 O 0.16995 0.55792 0.3085 0.0
O2248 O 0.20345 0.55816 0.31297 0.0
N2249 N 0.21814 0.62803 0.25581 0.0
C2250 C 0.20105 0.64081 0.24096 0.0
C2251 C 0.20641 0.66377 0.22407 0.0
C2252 C 0.23216 0.67576 0.22032 0.0
C2253 C 0.25528 0.66604 0.23333 0.0
C2254 C 0.24253 0.63103 0.25672 0.0
H2255 H 0.18516 0.63734 0.24261 0.0
O2256 O 0.1965 0.5681 0.27167 0.0
O2257 O 0.21062 0.59523 0.28609 0.0
O2258 O 0.16655 0.59797 0.28365 0.0
O2259 O 0.18307 0.62774 0.27851 0.0
C2260 C 0.27603 0.683 0.24931 0.0
C2261 C 0.28816 0.67537 0.27829 0.0
H2262 H 0.29247 0.65369 0.32165 0.0
H2263 H 0.26896 0.63146 0.34041 0.0
H2264 H 0.19346 0.67092 0.21655 0.0
H2265 H 0.23305 0.69016 0.21216 0.0
H2266 H 0.27965 0.69805 0.24338 0.0
H2267 H 0.29811 0.68596 0.28629 0.0
Mn2268 Mn 0.42568 0.1916 0.30297 0.0
Mn2269 Mn 0.382 0.2183 0.29233 0.0
C2270 C 0.4247 0.21503 0.27631 0.0
C2271 C 0.45879 0.18737 0.31746 0.0
C2272 C 0.38977 0.17535 0.27658 0.0
O2273 O 0.40936 0.18741 0.32973 0.0
O2274 O 0.38053 0.20328 0.31919 0.0
C2275 C 0.38289 0.24749 0.3285 0.0
N2276 N 0.38132 0.24447 0.30785 0.0
C2277 C 0.35728 0.2781 0.30791 0.0
C2278 C 0.36097 0.27926 0.32887 0.0
C2279 C 0.37377 0.26462 0.33862 0.0
C2280 C 0.37136 0.25831 0.29679 0.0
H2281 H 0.39085 0.23632 0.33769 0.0
C2282 C 0.39071 0.19293 0.33248 0.0
O2283 O 0.44802 0.17191 0.31105 0.0
O2284 O 0.44942 0.20493 0.31747 0.0
N2285 N 0.37922 0.23295 0.26571 0.0
C2286 C 0.37962 0.22364 0.24491 0.0
C2287 C 0.36606 0.23087 0.22562 0.0
C2288 C 0.34079 0.26119 0.22972 0.0
C2289 C 0.34217 0.27034 0.25267 0.0
C2290 C 0.36834 0.25092 0.27244 0.0
H2291 H 0.38891 0.21025 0.24273 0.0
O2292 O 0.43796 0.20029 0.2767 0.0
O2293 O 0.41227 0.21657 0.29195 0.0
O2294 O 0.40606 0.1719 0.28703 0.0
O2295 O 0.38025 0.19239 0.27708 0.0
C2296 C 0.33027 0.29012 0.26759 0.0
C2297 C 0.33787 0.29357 0.29509 0.0
H2298 H 0.35344 0.29095 0.33792 0.0
H2299 H 0.37585 0.26589 0.35506 0.0
H2300 H 0.36943 0.22112 0.21229 0.0
H2301 H 0.32999 0.26858 0.21918 0.0
H2302 H 0.31815 0.29893 0.25766 0.0
H2303 H 0.33233 0.29369 0.28099 0.0
Mn2304 Mn 0.69851 0.81861 0.57767 0.0
Mn2305 Mn 0.70801 0.79348 0.62214 0.0
C2306 C 0.72494 0.79482 0.57931 0.0
C2307 C 0.6835 0.82182 0.54504 0.0
C2308 C 0.72427 0.83611 0.61317 0.0
O2309 O 0.67194 0.82408 0.59391 0.0
O2310 O 0.68143 0.80817 0.62302 0.0
C2311 C 0.67199 0.7639 0.62323 0.0
N2312 N 0.69264 0.76719 0.62392 0.0
C2313 C 0.69393 0.73381 0.6485 0.0
C2314 C 0.67287 0.73237 0.64563 0.0
C2315 C 0.66246 0.74679 0.63305 0.0
C2316 C 0.7041 0.75379 0.63401 0.0
H2317 H 0.66231 0.77483 0.61546 0.0
C2318 C 0.66873 0.81872 0.61251 0.0
O2319 O 0.69044 0.83759 0.55501 0.0
O2320 O 0.6835 0.80453 0.5549 0.0
N2321 N 0.73433 0.77936 0.62465 0.0
C2322 C 0.75467 0.78916 0.62321 0.0
C2323 C 0.77461 0.78197 0.6351 0.0
C2324 C 0.77293 0.75124 0.66024 0.0
C2325 C 0.74995 0.74176 0.66033 0.0
C2326 C 0.72841 0.76132 0.63575 0.0
H2327 H 0.75591 0.80326 0.61484 0.0
O2328 O 0.72464 0.80908 0.56552 0.0
O2329 O 0.70918 0.79397 0.59179 0.0
O2330 O 0.71493 0.83875 0.59614 0.0
O2331 O 0.72293 0.81972 0.62366 0.0
C2332 C 0.73593 0.72169 0.6729 0.0
C2333 C 0.708 0.71815 0.66697 0.0
H2334 H 0.66428 0.72059 0.65354 0.0
H2335 H 0.64599 0.74528 0.63164 0.0
H2336 H 0.78739 0.79222 0.63107 0.0
H2337 H 0.78439 0.74393 0.67011 0.0
H2338 H 0.74669 0.71268 0.6841 0.0
H2339 H 0.72241 0.71801 0.67165 0.0
Mn2340 Mn 0.70358 0.18992 0.42668 0.0
Mn2341 Mn 0.7143 0.21538 0.38244 0.0
C2342 C 0.73031 0.21316 0.425 0.0
C2343 C 0.68916 0.1864 0.45974 0.0
C2344 C 0.72962 0.17266 0.39118 0.0
O2345 O 0.67674 0.18568 0.41072 0.0
O2346 O 0.68775 0.20002 0.38126 0.0
C2347 C 0.67775 0.24413 0.38275 0.0
N2348 N 0.69843 0.24132 0.38125 0.0
C2349 C 0.69805 0.27481 0.35702 0.0
C2350 C 0.67708 0.27574 0.36061 0.0
C2351 C 0.66747 0.26107 0.37348 0.0
C2352 C 0.70934 0.25525 0.37128 0.0
H2353 H 0.66866 0.23293 0.39078 0.0
C2354 C 0.67432 0.19024 0.39178 0.0
O2355 O 0.69545 0.17068 0.44928 0.0
O2356 O 0.68941 0.20384 0.45016 0.0
N2357 N 0.74069 0.23031 0.37943 0.0
C2358 C 0.76155 0.22115 0.37982 0.0
C2359 C 0.78079 0.22865 0.36639 0.0
C2360 C 0.77644 0.25884 0.34103 0.0
C2361 C 0.75341 0.2677 0.34225 0.0
C2362 C 0.73379 0.24816 0.36842 0.0
H2363 H 0.76374 0.20743 0.38861 0.0
O2364 O 0.73016 0.19861 0.43849 0.0
O2365 O 0.71459 0.21444 0.41269 0.0
O2366 O 0.71887 0.16969 0.40732 0.0
O2367 O 0.72981 0.18955 0.38137 0.0
C2368 C 0.73832 0.28721 0.33015 0.0
C2369 C 0.71076 0.29034 0.33757 0.0
H2370 H 0.66793 0.28727 0.35296 0.0
H2371 H 0.65103 0.26216 0.37549 0.0
H2372 H 0.79419 0.21901 0.36977 0.0
H2373 H 0.78692 0.26633 0.33023 0.0
H2374 H 0.74821 0.29608 0.31807 0.0
H2375 H 0.72487 0.29062 0.33212 0.0
Mn2376 Mn 0.82286 0.71201 0.42225 0.0
Mn2377 Mn 0.79722 0.72031 0.37787 0.0
C2378 C 0.80108 0.74052 0.41884 0.0
C2379 C 0.82409 0.69781 0.45588 0.0
C2380 C 0.8431 0.7281 0.38346 0.0
O2381 O 0.82498 0.68398 0.40654 0.0
O2382 O 0.80177 0.69048 0.38164 0.0
C2383 C 0.75913 0.69957 0.38916 0.0
N2384 N 0.76791 0.71704 0.38236 0.0
C2385 C 0.73468 0.72777 0.36397 0.0
C2386 C 0.72669 0.70885 0.37337 0.0
C2387 C 0.73841 0.69598 0.38592 0.0
C2388 C 0.75608 0.7326 0.37555 0.0
H2389 H 0.76811 0.68824 0.39714 0.0
C2390 C 0.81379 0.67829 0.39122 0.0
O2391 O 0.84057 0.7028 0.44588 0.0
O2392 O 0.80708 0.69943 0.44567 0.0
N2393 N 0.79263 0.74881 0.36999 0.0
C2394 C 0.80883 0.75914 0.35395 0.0
C2395 C 0.80273 0.77575 0.33314 0.0
C2396 C 0.77793 0.78416 0.3265 0.0
C2397 C 0.75642 0.77597 0.34065 0.0
C2398 C 0.76832 0.75203 0.37017 0.0
H2399 H 0.82469 0.75517 0.35488 0.0
O2400 O 0.81494 0.74005 0.4331 0.0
O2401 O 0.80045 0.72451 0.40727 0.0
O2402 O 0.84401 0.72539 0.40285 0.0
O2403 O 0.82707 0.72386 0.37285 0.0
C2404 C 0.73595 0.77187 0.32903 0.0
C2405 C 0.72307 0.7522 0.33485 0.0
H2406 H 0.71149 0.70267 0.3709 0.0
H2407 H 0.73164 0.68206 0.39194 0.0
H2408 H 0.81526 0.78069 0.32346 0.0
H2409 H 0.77574 0.79271 0.31246 0.0
H2410 H 0.73195 0.78079 0.31562 0.0
H2411 H 0.7096 0.75165 0.32469 0.0
Mn2412 Mn 0.29833 0.81858 0.42881 0.0
Mn2413 Mn 0.29081 0.79077 0.38627 0.0
C2414 C 0.27151 0.79447 0.42785 0.0
C2415 C 0.31432 0.82217 0.46093 0.0
C2416 C 0.2824 0.83689 0.39 0.0
O2417 O 0.32492 0.82238 0.41149 0.0
O2418 O 0.32066 0.79576 0.38972 0.0
C2419 C 0.3126 0.75271 0.39522 0.0
N2420 N 0.29438 0.76141 0.39044 0.0
C2421 C 0.28312 0.72858 0.37123 0.0
C2422 C 0.30241 0.72043 0.37965 0.0
C2423 C 0.3161 0.73211 0.39132 0.0
C2424 C 0.27865 0.74967 0.3837 0.0
H2425 H 0.32466 0.76161 0.40224 0.0
C2426 C 0.33141 0.81043 0.39717 0.0
O2427 O 0.30747 0.83789 0.45083 0.0
O2428 O 0.3133 0.80462 0.45161 0.0
N2429 N 0.26198 0.7862 0.37986 0.0
C2430 C 0.25079 0.80278 0.36506 0.0
C2431 C 0.23371 0.79742 0.3444 0.0
C2432 C 0.22534 0.77282 0.33699 0.0
C2433 C 0.23414 0.7509 0.35009 0.0
C2434 C 0.259 0.76201 0.37928 0.0
H2435 H 0.25072 0.81813 0.37022 0.0
O2436 O 0.27149 0.80902 0.44142 0.0
O2437 O 0.28703 0.79457 0.41555 0.0
O2438 O 0.28308 0.83826 0.40947 0.0
O2439 O 0.28746 0.82044 0.38052 0.0
C2440 C 0.23798 0.73079 0.33779 0.0
C2441 C 0.25788 0.71783 0.34271 0.0
H2442 H 0.30835 0.70521 0.3768 0.0
H2443 H 0.33047 0.72535 0.39619 0.0
H2444 H 0.22739 0.81036 0.33619 0.0
H2445 H 0.2161 0.77111 0.32331 0.0
H2446 H 0.22865 0.72712 0.32455 0.0
H2447 H 0.25809 0.70469 0.33212 0.0
Mn2448 Mn 0.18911 0.30118 0.42123 0.0
Mn2449 Mn 0.21333 0.28926 0.37685 0.0
C2450 C 0.21074 0.27333 0.41932 0.0
C2451 C 0.18755 0.31589 0.45438 0.0
C2452 C 0.17014 0.27584 0.38584 0.0
O2453 O 0.18628 0.32824 0.40534 0.0
O2454 O 0.19846 0.31601 0.37542 0.0
C2455 C 0.24265 0.3255 0.37702 0.0
N2456 N 0.23945 0.30487 0.37557 0.0
C2457 C 0.27385 0.30447 0.35247 0.0
C2458 C 0.27497 0.32544 0.35581 0.0
C2459 C 0.26004 0.3354 0.36811 0.0
C2460 C 0.25341 0.29367 0.36606 0.0
H2461 H 0.23151 0.33493 0.38477 0.0
C2462 C 0.18994 0.3301 0.38615 0.0
O2463 O 0.17108 0.31051 0.44452 0.0
O2464 O 0.20455 0.31455 0.44417 0.0
N2465 N 0.22799 0.26262 0.37421 0.0
C2466 C 0.21885 0.24177 0.37523 0.0
C2467 C 0.22723 0.22189 0.36337 0.0
C2468 C 0.25831 0.22514 0.33912 0.0
C2469 C 0.26693 0.24852 0.3395 0.0
C2470 C 0.24628 0.26909 0.36362 0.0
H2471 H 0.20433 0.24 0.38299 0.0
O2472 O 0.19635 0.2742 0.43297 0.0
O2473 O 0.21272 0.28898 0.40703 0.0
O2474 O 0.1679 0.28691 0.40195 0.0
O2475 O 0.18701 0.27437 0.37602 0.0
C2476 C 0.28733 0.26297 0.32783 0.0
C2477 C 0.29039 0.29088 0.33429 0.0
H2478 H 0.28698 0.3343 0.34856 0.0
H2479 H 0.26139 0.35182 0.37007 0.0
H2480 H 0.21753 0.20862 0.36709 0.0
H2481 H 0.26637 0.21416 0.3293 0.0
H2482 H 0.29684 0.25249 0.31678 0.0
H2483 H 0.29087 0.27654 0.32938 0.0
Mn2484 Mn 0.29895 0.18267 0.58474 0.0
Mn2485 Mn 0.28848 0.20691 0.62985 0.0
C2486 C 0.27009 0.20376 0.58778 0.0
C2487 C 0.31313 0.18225 0.55087 0.0
C2488 C 0.28018 0.16165 0.62217 0.0
O2489 O 0.32667 0.18056 0.60123 0.0
O2490 O 0.3185 0.20181 0.6274 0.0
C2491 C 0.31038 0.24521 0.62114 0.0
N2492 N 0.29231 0.23641 0.62624 0.0
C2493 C 0.27961 0.27022 0.64261 0.0
C2494 C 0.29914 0.27815 0.63451 0.0
C2495 C 0.31335 0.26609 0.62387 0.0
C2496 C 0.27606 0.24832 0.63135 0.0
H2497 H 0.32272 0.23618 0.61486 0.0
C2498 C 0.33142 0.19072 0.61759 0.0
O2499 O 0.30853 0.16554 0.56066 0.0
O2500 O 0.31172 0.19894 0.56161 0.0
N2501 N 0.25979 0.21178 0.63662 0.0
C2502 C 0.24858 0.19591 0.65245 0.0
C2503 C 0.23026 0.20239 0.67168 0.0
C2504 C 0.22099 0.22724 0.67685 0.0
C2505 C 0.22999 0.24842 0.6627 0.0
C2506 C 0.25633 0.23601 0.63549 0.0
H2507 H 0.25365 0.18028 0.65318 0.0
O2508 O 0.2713 0.1902 0.57332 0.0
O2509 O 0.28569 0.20464 0.59998 0.0
O2510 O 0.28486 0.16121 0.60315 0.0
O2511 O 0.28381 0.17701 0.63387 0.0
C2512 C 0.23296 0.26931 0.67394 0.0
C2513 C 0.25293 0.28228 0.66923 0.0
H2514 H 0.30481 0.29358 0.63674 0.0
H2515 H 0.32772 0.27285 0.61898 0.0
H2516 H 0.22492 0.19013 0.68149 0.0
H2517 H 0.21135 0.22973 0.69013 0.0
H2518 H 0.22296 0.27361 0.68647 0.0
H2519 H 0.25249 0.29604 0.67899 0.0
Mn2520 Mn 0.81839 0.30608 0.58054 0.0
Mn2521 Mn 0.79207 0.2971 0.6244 0.0
C2522 C 0.79528 0.27887 0.58225 0.0
C2523 C 0.82181 0.32004 0.54729 0.0
C2524 C 0.83553 0.28191 0.61746 0.0
O2525 O 0.82254 0.3334 0.59618 0.0
O2526 O 0.8058 0.32433 0.62494 0.0
C2527 C 0.76098 0.33189 0.62203 0.0
N2528 N 0.76531 0.31161 0.62456 0.0
C2529 C 0.73121 0.31037 0.64805 0.0
C2530 C 0.72847 0.33082 0.64297 0.0
C2531 C 0.74281 0.34107 0.63015 0.0
C2532 C 0.75208 0.30026 0.63491 0.0
H2533 H 0.77164 0.34141 0.61373 0.0
C2534 C 0.81632 0.3371 0.61446 0.0
O2535 O 0.83761 0.31399 0.5578 0.0
O2536 O 0.80441 0.31989 0.55692 0.0
N2537 N 0.77862 0.27042 0.6274 0.0
C2538 C 0.78887 0.25025 0.62685 0.0
C2539 C 0.78155 0.23048 0.63898 0.0
C2540 C 0.74975 0.23217 0.66278 0.0
C2541 C 0.73984 0.25496 0.66193 0.0
C2542 C 0.76003 0.27624 0.63767 0.0
H2543 H 0.80333 0.24901 0.61896 0.0
O2544 O 0.80997 0.27929 0.56892 0.0
O2545 O 0.79362 0.29496 0.59419 0.0
O2546 O 0.83848 0.29092 0.60026 0.0
O2547 O 0.81871 0.28301 0.62732 0.0
C2548 C 0.7189 0.26886 0.67318 0.0
C2549 C 0.715 0.29652 0.66625 0.0
H2550 H 0.71518 0.33884 0.64868 0.0
H2551 H 0.74017 0.35713 0.62693 0.0
H2552 H 0.79217 0.2178 0.63567 0.0
H2553 H 0.74222 0.22081 0.6726 0.0
H2554 H 0.70956 0.25818 0.68415 0.0
H2555 H 0.71496 0.28226 0.67138 0.0
Mn2556 Mn 0.18674 0.70911 0.5844 0.0
Mn2557 Mn 0.21171 0.71776 0.62906 0.0
C2558 C 0.20904 0.737 0.58707 0.0
C2559 C 0.18501 0.69306 0.55191 0.0
C2560 C 0.16633 0.72565 0.62224 0.0
O2561 O 0.18313 0.68219 0.60114 0.0
O2562 O 0.20742 0.68772 0.62527 0.0
C2563 C 0.25056 0.69705 0.62059 0.0
N2564 N 0.24132 0.71493 0.62559 0.0
C2565 C 0.27428 0.72751 0.64374 0.0
C2566 C 0.28286 0.70841 0.63531 0.0
C2567 C 0.27137 0.69428 0.62401 0.0
C2568 C 0.25272 0.73118 0.63176 0.0
H2569 H 0.24197 0.68476 0.61367 0.0
C2570 C 0.19431 0.67615 0.61623 0.0
O2571 O 0.1687 0.69941 0.5614 0.0
O2572 O 0.20213 0.69475 0.56195 0.0
N2573 N 0.21563 0.74652 0.63654 0.0
C2574 C 0.19902 0.75686 0.6522 0.0
C2575 C 0.20451 0.77445 0.6724 0.0
C2576 C 0.22901 0.78389 0.67883 0.0
C2577 C 0.25085 0.77588 0.66505 0.0
C2578 C 0.23984 0.75052 0.63631 0.0
H2579 H 0.18338 0.75177 0.65195 0.0
O2580 O 0.19555 0.73621 0.57246 0.0
O2581 O 0.20922 0.72145 0.59936 0.0
O2582 O 0.16615 0.72387 0.6028 0.0
O2583 O 0.18167 0.72078 0.63347 0.0
C2584 C 0.27139 0.77283 0.67685 0.0
C2585 C 0.28487 0.75334 0.67177 0.0
H2586 H 0.29832 0.70296 0.63787 0.0
H2587 H 0.27849 0.68013 0.61901 0.0
H2588 H 0.19181 0.77924 0.68195 0.0
H2589 H 0.23086 0.793 0.69258 0.0
H2590 H 0.27508 0.78239 0.68991 0.0
H2591 H 0.29824 0.75374 0.68192 0.0
Mn2592 Mn 0.42619 0.29789 0.18511 0.0
Mn2593 Mn 0.38097 0.29194 0.20964 0.0
C2594 C 0.42234 0.27113 0.20822 0.0
C2595 C 0.45893 0.31316 0.18392 0.0
C2596 C 0.38829 0.28127 0.16472 0.0
O2597 O 0.41041 0.3248 0.17977 0.0
O2598 O 0.3858 0.32154 0.20397 0.0
C2599 C 0.38912 0.31425 0.24794 0.0
N2600 N 0.38399 0.29612 0.23928 0.0
C2601 C 0.36562 0.28479 0.2728 0.0
C2602 C 0.37409 0.30416 0.28065 0.0
C2603 C 0.38559 0.31777 0.26867 0.0
C2604 C 0.3775 0.28041 0.25127 0.0
H2605 H 0.39596 0.32631 0.23891 0.0
C2606 C 0.39537 0.33189 0.19026 0.0
O2607 O 0.4499 0.3064 0.16748 0.0
O2608 O 0.44833 0.31232 0.20074 0.0
N2609 N 0.37266 0.26376 0.21477 0.0
C2610 C 0.35701 0.25279 0.19856 0.0
C2611 C 0.33699 0.23526 0.20475 0.0
C2612 C 0.33074 0.22664 0.22962 0.0
C2613 C 0.34452 0.23555 0.25112 0.0
C2614 C 0.37295 0.2607 0.23912 0.0
H2615 H 0.35728 0.25727 0.18271 0.0
O2616 O 0.43726 0.27106 0.19507 0.0
O2617 O 0.4105 0.28703 0.20776 0.0
O2618 O 0.40779 0.28268 0.16472 0.0
O2619 O 0.37701 0.28745 0.1796 0.0
C2620 C 0.33278 0.23926 0.27161 0.0
C2621 C 0.33778 0.25925 0.28441 0.0
H2622 H 0.37149 0.3102 0.2959 0.0
H2623 H 0.39056 0.33216 0.27531 0.0
H2624 H 0.32745 0.22995 0.19225 0.0
H2625 H 0.3171 0.21748 0.23184 0.0
H2626 H 0.3198 0.22976 0.27567 0.0
H2627 H 0.32761 0.25937 0.29785 0.0
Mn2628 Mn 0.71037 0.4229 0.18579 0.0
Mn2629 Mn 0.71906 0.37791 0.21009 0.0
C2630 C 0.73762 0.42026 0.20862 0.0
C2631 C 0.69352 0.45491 0.18478 0.0
C2632 C 0.72847 0.38588 0.16504 0.0
O2633 O 0.68408 0.4059 0.18094 0.0
O2634 O 0.68925 0.3811 0.2046 0.0
C2635 C 0.6967 0.38546 0.24822 0.0
N2636 N 0.71495 0.38067 0.23962 0.0
C2637 C 0.72678 0.36242 0.27285 0.0
C2638 C 0.70707 0.37035 0.28065 0.0
C2639 C 0.69322 0.38168 0.26884 0.0
C2640 C 0.73085 0.37451 0.25154 0.0
H2641 H 0.68456 0.39218 0.23921 0.0
C2642 C 0.67807 0.39036 0.19137 0.0
O2643 O 0.70052 0.44619 0.16828 0.0
O2644 O 0.69512 0.44438 0.20159 0.0
N2645 N 0.74765 0.37094 0.21516 0.0
C2646 C 0.75912 0.35618 0.19863 0.0
C2647 C 0.77746 0.3369 0.20404 0.0
C2648 C 0.78697 0.33009 0.22831 0.0
C2649 C 0.77722 0.3432 0.25114 0.0
C2650 C 0.75077 0.37088 0.23948 0.0
H2651 H 0.75458 0.35663 0.18282 0.0
O2652 O 0.73685 0.43517 0.19548 0.0
O2653 O 0.72232 0.40766 0.20824 0.0
O2654 O 0.72607 0.40526 0.16507 0.0
O2655 O 0.72347 0.37428 0.18008 0.0
C2656 C 0.77327 0.33118 0.27286 0.0
C2657 C 0.7529 0.33549 0.28486 0.0
H2658 H 0.70092 0.36748 0.29581 0.0
H2659 H 0.67871 0.38629 0.2755 0.0
H2660 H 0.78333 0.32837 0.19107 0.0
H2661 H 0.78391 0.33516 0.24219 0.0
H2662 H 0.78304 0.31853 0.27732 0.0
H2663 H 0.75294 0.3254 0.29834 0.0
Mn2664 Mn 0.58104 0.7089 0.18419 0.0
Mn2665 Mn 0.6257 0.71538 0.20957 0.0
C2666 C 0.58433 0.73604 0.20701 0.0
C2667 C 0.54832 0.69376 0.18296 0.0
C2668 C 0.61928 0.72565 0.16449 0.0
O2669 O 0.59682 0.68186 0.1794 0.0
O2670 O 0.62155 0.68578 0.20333 0.0
C2671 C 0.6158 0.69272 0.24686 0.0
N2672 N 0.62137 0.71101 0.23885 0.0
C2673 C 0.63671 0.72232 0.27363 0.0
C2674 C 0.6274 0.70295 0.28068 0.0
C2675 C 0.61736 0.68917 0.26773 0.0
C2676 C 0.62665 0.72683 0.25137 0.0
H2677 H 0.60978 0.68067 0.23725 0.0
C2678 C 0.61204 0.67511 0.18984 0.0
O2679 O 0.5575 0.70015 0.16646 0.0
O2680 O 0.55882 0.69477 0.19983 0.0
N2681 N 0.63386 0.7434 0.21545 0.0
C2682 C 0.6505 0.75396 0.20015 0.0
C2683 C 0.67026 0.77126 0.20709 0.0
C2684 C 0.67562 0.7805 0.23184 0.0
C2685 C 0.66023 0.77157 0.25356 0.0
C2686 C 0.63216 0.74656 0.23969 0.0
H2687 H 0.65104 0.74932 0.18434 0.0
O2688 O 0.56974 0.73592 0.19352 0.0
O2689 O 0.59625 0.72019 0.20689 0.0
O2690 O 0.59983 0.72374 0.16396 0.0
O2691 O 0.63041 0.72026 0.17978 0.0
C2692 C 0.67024 0.7671 0.27618 0.0
C2693 C 0.66394 0.74704 0.2878 0.0
H2694 H 0.62842 0.69689 0.2961 0.0
H2695 H 0.61186 0.67475 0.27387 0.0
H2696 H 0.68012 0.77658 0.19486 0.0
H2697 H 0.66931 0.77777 0.24528 0.0
H2698 H 0.68301 0.7762 0.28164 0.0
H2699 H 0.67302 0.74653 0.30203 0.0
Mn2700 Mn 0.30043 0.58358 0.1868 0.0
Mn2701 Mn 0.29533 0.62448 0.21861 0.0
C2702 C 0.27416 0.58398 0.21082 0.0
C2703 C 0.31552 0.55117 0.18091 0.0
C2704 C 0.28154 0.62418 0.17361 0.0
O2705 O 0.32716 0.59967 0.1824 0.0
O2706 O 0.32416 0.62159 0.20891 0.0
C2707 C 0.32102 0.62312 0.25067 0.0
N2708 N 0.30163 0.61792 0.24638 0.0
C2709 C 0.28267 0.64858 0.25689 0.0
C2710 C 0.30708 0.65672 0.25164 0.0
C2711 C 0.32442 0.6439 0.25086 0.0
C2712 C 0.28748 0.62763 0.25869 0.0
H2713 H 0.33352 0.61268 0.24748 0.0
C2714 C 0.3342 0.61382 0.19398 0.0
O2715 O 0.30823 0.56213 0.16592 0.0
O2716 O 0.31522 0.55966 0.19887 0.0
N2717 N 0.26948 0.63117 0.22953 0.0
C2718 C 0.25173 0.6302 0.21827 0.0
C2719 C 0.23315 0.64025 0.22505 0.0
C2720 C 0.22757 0.66126 0.25242 0.0
C2721 C 0.24948 0.66244 0.26609 0.0
C2722 C 0.2737 0.64216 0.25016 0.0
H2723 H 0.25176 0.62193 0.20388 0.0
O2724 O 0.27381 0.57126 0.19558 0.0
O2725 O 0.29024 0.59558 0.21225 0.0
O2726 O 0.28485 0.60521 0.16974 0.0
O2727 O 0.28686 0.63279 0.19052 0.0
C2728 C 0.24808 0.67764 0.28438 0.0
C2729 C 0.25622 0.6644 0.27202 0.0
H2730 H 0.31146 0.6726 0.24929 0.0
H2731 H 0.3397 0.65002 0.24904 0.0
H2732 H 0.2226 0.63491 0.21292 0.0
H2733 H 0.21446 0.67002 0.25852 0.0
H2734 H 0.23184 0.68474 0.28412 0.0
H2735 H 0.25783 0.67623 0.29156 0.0
Mn2736 Mn 0.42697 0.70566 0.81542 0.0
Mn2737 Mn 0.38339 0.7169 0.78953 0.0
C2738 C 0.42596 0.73261 0.7923 0.0
C2739 C 0.45912 0.68957 0.81849 0.0
C2740 C 0.3918 0.73255 0.83228 0.0
O2741 O 0.41026 0.67937 0.82025 0.0
O2742 O 0.38152 0.69087 0.80523 0.0
C2743 C 0.38722 0.68015 0.76108 0.0
N2744 N 0.38403 0.70063 0.76382 0.0
C2745 C 0.36294 0.69899 0.72839 0.0
C2746 C 0.36888 0.67861 0.72713 0.0
C2747 C 0.38089 0.66967 0.74293 0.0
C2748 C 0.37503 0.71107 0.74898 0.0
H2749 H 0.39463 0.6714 0.77304 0.0
C2750 C 0.39134 0.67746 0.81558 0.0
O2751 O 0.4494 0.69659 0.83441 0.0
O2752 O 0.44937 0.69043 0.80117 0.0
N2753 N 0.38017 0.74293 0.77411 0.0
C2754 C 0.37925 0.76384 0.78304 0.0
C2755 C 0.36537 0.78239 0.77472 0.0
C2756 C 0.34172 0.77663 0.7435 0.0
C2757 C 0.34443 0.75338 0.73495 0.0
C2758 C 0.37028 0.73534 0.75585 0.0
H2759 H 0.38745 0.76654 0.797 0.0
O2760 O 0.43977 0.73182 0.80654 0.0
O2761 O 0.41339 0.7172 0.7911 0.0
O2762 O 0.40797 0.7218 0.83532 0.0
O2763 O 0.38177 0.73262 0.81541 0.0
C2764 C 0.33446 0.73777 0.71449 0.0
C2765 C 0.3437 0.71063 0.71157 0.0
H2766 H 0.36412 0.66948 0.71414 0.0
H2767 H 0.38467 0.65357 0.74158 0.0
H2768 H 0.36781 0.79604 0.78431 0.0
H2769 H 0.33091 0.78656 0.73533 0.0
H2770 H 0.32264 0.74713 0.70484 0.0
H2771 H 0.33738 0.7244 0.71099 0.0
Mn2772 Mn 0.29325 0.42849 0.82056 0.0
Mn2773 Mn 0.28691 0.38524 0.79314 0.0
C2774 C 0.26687 0.42644 0.796 0.0
C2775 C 0.30902 0.46083 0.82367 0.0
C2776 C 0.27647 0.38976 0.83905 0.0
O2777 O 0.31995 0.41183 0.82553 0.0
O2778 O 0.31653 0.3887 0.79997 0.0
C2779 C 0.31042 0.39641 0.75672 0.0
N2780 N 0.29203 0.39026 0.76411 0.0
C2781 C 0.28326 0.37299 0.72967 0.0
C2782 C 0.30235 0.383 0.72293 0.0
C2783 C 0.31498 0.39431 0.73604 0.0
C2784 C 0.27705 0.38403 0.75108 0.0
H2785 H 0.32174 0.4032 0.76671 0.0
C2786 C 0.32682 0.39699 0.81453 0.0
O2787 O 0.30183 0.45112 0.8395 0.0
O2788 O 0.30825 0.45113 0.80631 0.0
N2789 N 0.25871 0.37778 0.78649 0.0
C2790 C 0.24783 0.36158 0.80188 0.0
C2791 C 0.23262 0.33999 0.79487 0.0
C2792 C 0.22606 0.33299 0.76958 0.0
C2793 C 0.23494 0.34754 0.74861 0.0
C2794 C 0.25703 0.37794 0.76213 0.0
H2795 H 0.24602 0.36653 0.81715 0.0
O2796 O 0.26643 0.44045 0.81011 0.0
O2797 O 0.28251 0.41439 0.79677 0.0
O2798 O 0.27795 0.40921 0.84028 0.0
O2799 O 0.28151 0.37976 0.82278 0.0
C2800 C 0.24062 0.33647 0.72819 0.0
C2801 C 0.26072 0.34337 0.71645 0.0
H2802 H 0.30906 0.38154 0.70781 0.0
H2803 H 0.32938 0.4003 0.73033 0.0
H2804 H 0.22618 0.33093 0.80719 0.0
H2805 H 0.21791 0.3188 0.76688 0.0
H2806 H 0.23247 0.3228 0.7235 0.0
H2807 H 0.26232 0.33348 0.70286 0.0
Mn2808 Mn 0.58006 0.30274 0.81661 0.0
Mn2809 Mn 0.62505 0.29196 0.79228 0.0
C2810 C 0.58251 0.27555 0.79366 0.0
C2811 C 0.5469 0.31751 0.81987 0.0
C2812 C 0.61547 0.27738 0.83515 0.0
O2813 O 0.59594 0.32974 0.82086 0.0
O2814 O 0.62558 0.31888 0.80686 0.0
C2815 C 0.62516 0.32778 0.76258 0.0
N2816 N 0.62677 0.3072 0.76596 0.0
C2817 C 0.65273 0.30716 0.73375 0.0
C2818 C 0.64893 0.32802 0.73208 0.0
C2819 C 0.63516 0.33777 0.74584 0.0
C2820 C 0.6376 0.29614 0.75284 0.0
H2821 H 0.61648 0.33706 0.77318 0.0
C2822 C 0.61486 0.33235 0.81629 0.0
O2823 O 0.55732 0.31118 0.83559 0.0
O2824 O 0.55643 0.3168 0.80237 0.0
N2825 N 0.62887 0.26522 0.77821 0.0
C2826 C 0.62853 0.2446 0.78791 0.0
C2827 C 0.64279 0.22552 0.78157 0.0
C2828 C 0.6696 0.22985 0.75259 0.0
C2829 C 0.66828 0.25263 0.74312 0.0
C2830 C 0.64062 0.27197 0.76077 0.0
H2831 H 0.61932 0.24259 0.80141 0.0
O2832 O 0.56859 0.27594 0.80783 0.0
O2833 O 0.59472 0.29134 0.7925 0.0
O2834 O 0.59902 0.28778 0.83747 0.0
O2835 O 0.62577 0.27715 0.81855 0.0
C2836 C 0.6808 0.26777 0.72409 0.0
C2837 C 0.6732 0.29405 0.7199 0.0
H2838 H 0.65708 0.337 0.72075 0.0
H2839 H 0.63299 0.35414 0.74423 0.0
H2840 H 0.63927 0.21228 0.79138 0.0
H2841 H 0.68104 0.21949 0.74593 0.0
H2842 H 0.69333 0.26129 0.71546 0.0
H2843 H 0.68178 0.30279 0.70871 0.0
Mn2844 Mn 0.70789 0.58141 0.81945 0.0
Mn2845 Mn 0.71766 0.62641 0.79529 0.0
C2846 C 0.73524 0.5847 0.79683 0.0
C2847 C 0.6942 0.54784 0.82226 0.0
C2848 C 0.73194 0.61779 0.83812 0.0
O2849 O 0.68026 0.59643 0.82331 0.0
O2850 O 0.69141 0.62645 0.81062 0.0
C2851 C 0.68096 0.62381 0.76665 0.0
N2852 N 0.70146 0.62689 0.76958 0.0
C2853 C 0.69942 0.65128 0.73639 0.0
C2854 C 0.67904 0.64554 0.73482 0.0
C2855 C 0.67026 0.63197 0.74938 0.0
C2856 C 0.71163 0.63762 0.75577 0.0
H2857 H 0.67235 0.6151 0.77778 0.0
C2858 C 0.67788 0.61557 0.81968 0.0
O2859 O 0.69994 0.55827 0.83821 0.0
O2860 O 0.69485 0.55754 0.80488 0.0
N2861 N 0.74381 0.63092 0.7802 0.0
C2862 C 0.76483 0.63167 0.78907 0.0
C2863 C 0.78325 0.646 0.78106 0.0
C2864 C 0.77693 0.67114 0.75098 0.0
C2865 C 0.7538 0.6688 0.74262 0.0
C2866 C 0.73599 0.64166 0.7625 0.0
H2867 H 0.7676 0.62358 0.80326 0.0
O2868 O 0.7353 0.57083 0.81105 0.0
O2869 O 0.71906 0.59629 0.7956 0.0
O2870 O 0.72177 0.60115 0.84027 0.0
O2871 O 0.7329 0.62781 0.82135 0.0
C2872 C 0.73751 0.67989 0.72361 0.0
C2873 C 0.71129 0.67136 0.72095 0.0
H2874 H 0.66995 0.65145 0.72239 0.0
H2875 H 0.65415 0.62829 0.74779 0.0
H2876 H 0.797 0.64336 0.79045 0.0
H2877 H 0.78668 0.68246 0.74329 0.0
H2878 H 0.7433 0.69196 0.71389 0.0
H2879 H 0.70191 0.67884 0.70948 0.0
Mn2880 Mn 0.18955 0.42769 0.29568 0.0
Mn2881 Mn 0.21673 0.38465 0.28793 0.0
C2882 C 0.2141 0.42674 0.26935 0.0
C2883 C 0.18649 0.45957 0.31229 0.0
C2884 C 0.17082 0.38955 0.27806 0.0
O2885 O 0.18456 0.40999 0.32165 0.0
O2886 O 0.21049 0.38737 0.31772 0.0
C2887 C 0.25407 0.39297 0.31142 0.0
N2888 N 0.24603 0.3886 0.29278 0.0
C2889 C 0.27982 0.37087 0.28182 0.0
C2890 C 0.2872 0.37895 0.30156 0.0
C2891 C 0.27474 0.38968 0.31534 0.0
C2892 C 0.25845 0.38281 0.27714 0.0
H2893 H 0.24462 0.39919 0.32351 0.0
C2894 C 0.19561 0.39499 0.32805 0.0
O2895 O 0.17064 0.45002 0.30494 0.0
O2896 O 0.20381 0.44983 0.31141 0.0
N2897 N 0.22253 0.37856 0.25928 0.0
C2898 C 0.20664 0.36359 0.24734 0.0
C2899 C 0.21299 0.3435 0.22993 0.0
C2900 C 0.23799 0.33693 0.22206 0.0
C2901 C 0.25933 0.35036 0.23175 0.0
C2902 C 0.2468 0.37862 0.25699 0.0
H2903 H 0.19126 0.36847 0.24679 0.0
O2904 O 0.19986 0.4406 0.26938 0.0
O2905 O 0.21347 0.41407 0.28457 0.0
O2906 O 0.16975 0.409 0.27964 0.0
O2907 O 0.18704 0.37952 0.28299 0.0
C2908 C 0.27968 0.33857 0.23581 0.0
C2909 C 0.29199 0.34338 0.25615 0.0
H2910 H 0.30238 0.37646 0.30779 0.0
H2911 H 0.28094 0.39426 0.33007 0.0
H2912 H 0.20042 0.33514 0.22306 0.0
H2913 H 0.24031 0.32356 0.21252 0.0
H2914 H 0.28397 0.32571 0.22624 0.0
H2915 H 0.30546 0.33327 0.25639 0.0
Mn2916 Mn 0.58119 0.18369 0.2971 0.0
Mn2917 Mn 0.62676 0.20749 0.28931 0.0
C2918 C 0.58476 0.20656 0.26993 0.0
C2919 C 0.54828 0.18312 0.31269 0.0
C2920 C 0.61852 0.16262 0.27962 0.0
O2921 O 0.59766 0.1788 0.32396 0.0
O2922 O 0.62297 0.202 0.31901 0.0
C2923 C 0.62023 0.24571 0.31195 0.0
N2924 N 0.62435 0.23708 0.2935 0.0
C2925 C 0.64288 0.27015 0.28168 0.0
C2926 C 0.63515 0.27818 0.3013 0.0
C2927 C 0.62415 0.26633 0.31539 0.0
C2928 C 0.6305 0.24894 0.27754 0.0
H2929 H 0.61372 0.2368 0.32427 0.0
C2930 C 0.61342 0.18894 0.33012 0.0
O2931 O 0.55715 0.16653 0.30616 0.0
O2932 O 0.55922 0.19969 0.31165 0.0
N2933 N 0.63429 0.21238 0.26081 0.0
C2934 C 0.64944 0.19586 0.24962 0.0
C2935 C 0.66934 0.20159 0.2318 0.0
C2936 C 0.67599 0.22626 0.22303 0.0
C2937 C 0.66278 0.24802 0.23208 0.0
C2938 C 0.63446 0.23669 0.2577 0.0
H2939 H 0.64888 0.18004 0.2541 0.0
O2940 O 0.56977 0.19352 0.27022 0.0
O2941 O 0.59699 0.20599 0.28554 0.0
O2942 O 0.59908 0.1628 0.28179 0.0
O2943 O 0.63015 0.17752 0.28491 0.0
C2944 C 0.67499 0.2682 0.23546 0.0
C2945 C 0.67064 0.28112 0.25546 0.0
H2946 H 0.63816 0.29338 0.30721 0.0
H2947 H 0.61982 0.27299 0.33 0.0
H2948 H 0.67854 0.1889 0.22637 0.0
H2949 H 0.68954 0.22818 0.21366 0.0
H2950 H 0.6879 0.27193 0.22571 0.0
H2951 H 0.68114 0.29431 0.25537 0.0
Mn2952 Mn 0.81692 0.58135 0.29967 0.0
Mn2953 Mn 0.78999 0.62405 0.28923 0.0
C2954 C 0.79366 0.58183 0.27206 0.0
C2955 C 0.8193 0.54919 0.31629 0.0
C2956 C 0.83628 0.61943 0.2821 0.0
O2957 O 0.81987 0.5994 0.32601 0.0
O2958 O 0.79466 0.62241 0.31954 0.0
C2959 C 0.75136 0.61639 0.31068 0.0
N2960 N 0.76047 0.62052 0.29252 0.0
C2961 C 0.72844 0.64029 0.28002 0.0
C2962 C 0.71982 0.63299 0.29959 0.0
C2963 C 0.73083 0.62116 0.31374 0.0
C2964 C 0.7491 0.62695 0.27636 0.0
H2965 H 0.75994 0.60954 0.32306 0.0
C2966 C 0.80841 0.6146 0.33135 0.0
O2967 O 0.83545 0.55899 0.30999 0.0
O2968 O 0.80205 0.55894 0.31461 0.0
N2969 N 0.78584 0.62866 0.25986 0.0
C2970 C 0.80302 0.64214 0.248 0.0
C2971 C 0.79853 0.66208 0.22984 0.0
C2972 C 0.77426 0.66995 0.22092 0.0
C2973 C 0.7518 0.65815 0.2302 0.0
C2974 C 0.7617 0.62992 0.2566 0.0
H2975 H 0.81804 0.63597 0.24792 0.0
O2976 O 0.8081 0.56818 0.27287 0.0
O2977 O 0.79343 0.59459 0.28719 0.0
O2978 O 0.83756 0.60007 0.28446 0.0
O2979 O 0.81973 0.62928 0.28591 0.0
C2980 C 0.7321 0.67129 0.23326 0.0
C2981 C 0.71883 0.6678 0.25329 0.0
H2982 H 0.70472 0.63675 0.30533 0.0
H2983 H 0.72372 0.61703 0.32819 0.0
H2984 H 0.8118 0.66936 0.22309 0.0
H2985 H 0.7731 0.68316 0.21095 0.0
H2986 H 0.72895 0.68415 0.22327 0.0
H2987 H 0.70603 0.67873 0.25283 0.0
Mn2988 Mn 0.42089 0.82308 0.29954 0.0
Mn2989 Mn 0.37558 0.79944 0.28959 0.0
C2990 C 0.41774 0.80176 0.27103 0.0
C2991 C 0.45363 0.82331 0.31507 0.0
C2992 C 0.384 0.84458 0.28098 0.0
O2993 O 0.40467 0.82617 0.32679 0.0
O2994 O 0.37848 0.80468 0.31959 0.0
C2995 C 0.38414 0.76128 0.31154 0.0
N2996 N 0.37869 0.76997 0.29354 0.0
C2997 C 0.36168 0.73633 0.28128 0.0
C2998 C 0.36983 0.72861 0.30095 0.0
C2999 C 0.38098 0.74055 0.31484 0.0
C3000 C 0.37308 0.75801 0.27748 0.0
H3001 H 0.39109 0.7703 0.32347 0.0
C3002 C 0.38863 0.81603 0.33203 0.0
O3003 O 0.44447 0.84009 0.30954 0.0
O3004 O 0.44302 0.80658 0.31315 0.0
N3005 N 0.36855 0.79432 0.26101 0.0
C3006 C 0.35329 0.81047 0.24968 0.0
C3007 C 0.33429 0.80468 0.23114 0.0
C3008 C 0.32825 0.78035 0.22131 0.0
C3009 C 0.342 0.75786 0.23089 0.0
C3010 C 0.36921 0.7701 0.25766 0.0
H3011 H 0.35298 0.82614 0.25465 0.0
O3012 O 0.43252 0.81499 0.27222 0.0
O3013 O 0.40541 0.80125 0.28655 0.0
O3014 O 0.40309 0.84455 0.28514 0.0
O3015 O 0.37204 0.82947 0.28481 0.0
C3016 C 0.33064 0.73575 0.23457 0.0
C3017 C 0.33523 0.72368 0.25488 0.0
H3018 H 0.36739 0.71335 0.30697 0.0
H3019 H 0.38602 0.73387 0.32921 0.0
H3020 H 0.32543 0.81744 0.22537 0.0
H3021 H 0.33373 0.76661 0.22426 0.0
H3022 H 0.31815 0.731 0.22471 0.0
H3023 H 0.32548 0.70991 0.25473 0.0
Mn3024 Mn 0.1852 0.58038 0.70804 0.0
Mn3025 Mn 0.20925 0.62534 0.71739 0.0
C3026 C 0.20735 0.5831 0.73628 0.0
C3027 C 0.18277 0.54813 0.69171 0.0
C3028 C 0.16445 0.61727 0.72569 0.0
O3029 O 0.18139 0.59769 0.68129 0.0
O3030 O 0.20576 0.62148 0.68744 0.0
C3031 C 0.24844 0.61634 0.69759 0.0
N3032 N 0.23884 0.62224 0.715 0.0
C3033 C 0.27117 0.64134 0.7274 0.0
C3034 C 0.28013 0.63249 0.70862 0.0
C3035 C 0.26919 0.62013 0.69492 0.0
C3036 C 0.24988 0.62908 0.73118 0.0
H3037 H 0.24014 0.60866 0.68552 0.0
C3038 C 0.19273 0.61281 0.6756 0.0
O3039 O 0.16679 0.55795 0.69824 0.0
O3040 O 0.20017 0.55778 0.69323 0.0
N3041 N 0.21257 0.63337 0.7461 0.0
C3042 C 0.19559 0.64896 0.75597 0.0
C3043 C 0.20052 0.66952 0.77329 0.0
C3044 C 0.22479 0.67658 0.78282 0.0
C3045 C 0.24693 0.66313 0.77523 0.0
C3046 C 0.23674 0.63374 0.75029 0.0
H3047 H 0.18025 0.649 0.75019 0.0
O3048 O 0.19428 0.56815 0.73505 0.0
O3049 O 0.20745 0.59551 0.72083 0.0
O3050 O 0.1648 0.59798 0.72344 0.0
O3051 O 0.17904 0.6291 0.72001 0.0
C3052 C 0.26726 0.67534 0.77203 0.0
C3053 C 0.28101 0.67018 0.75267 0.0
H3054 H 0.29553 0.63535 0.70313 0.0
H3055 H 0.27663 0.6147 0.68109 0.0
H3056 H 0.18765 0.67895 0.77776 0.0
H3057 H 0.22629 0.69051 0.79169 0.0
H3058 H 0.27058 0.68867 0.78134 0.0
H3059 H 0.29419 0.68071 0.7528 0.0
Mn3060 Mn 0.42886 0.18838 0.7103 0.0
Mn3061 Mn 0.38533 0.21502 0.71881 0.0
C3062 C 0.42643 0.21156 0.73811 0.0
C3063 C 0.46239 0.18556 0.69584 0.0
C3064 C 0.38997 0.1687 0.72559 0.0
O3065 O 0.41176 0.18551 0.68294 0.0
O3066 O 0.38862 0.2108 0.68865 0.0
C3067 C 0.39448 0.25375 0.69839 0.0
N3068 N 0.38892 0.24451 0.7161 0.0
C3069 C 0.36729 0.27587 0.72671 0.0
C3070 C 0.37626 0.2848 0.70799 0.0
C3071 C 0.38964 0.27417 0.69498 0.0
C3072 C 0.3809 0.25569 0.73167 0.0
H3073 H 0.40247 0.24529 0.68659 0.0
C3074 C 0.39646 0.19681 0.67719 0.0
O3075 O 0.45179 0.16966 0.70136 0.0
O3076 O 0.45272 0.20293 0.69679 0.0
N3077 N 0.37882 0.21883 0.74791 0.0
C3078 C 0.36482 0.20118 0.75839 0.0
C3079 C 0.34298 0.20493 0.77441 0.0
C3080 C 0.33339 0.22887 0.78248 0.0
C3081 C 0.34529 0.25175 0.77445 0.0
C3082 C 0.37642 0.24293 0.75106 0.0
H3083 H 0.37137 0.18631 0.7589 0.0
O3084 O 0.44035 0.19735 0.73801 0.0
O3085 O 0.41469 0.2117 0.72224 0.0
O3086 O 0.40945 0.16765 0.72436 0.0
O3087 O 0.38016 0.18518 0.72141 0.0
C3088 C 0.33182 0.27098 0.77005 0.0
C3089 C 0.33687 0.28442 0.75046 0.0
H3090 H 0.37267 0.29983 0.70195 0.0
H3091 H 0.39493 0.28144 0.681 0.0
H3092 H 0.33548 0.19141 0.78039 0.0
H3093 H 0.31919 0.22953 0.79103 0.0
H3094 H 0.31792 0.27365 0.77869 0.0
H3095 H 0.32546 0.29681 0.74976 0.0
Mn3096 Mn 0.81672 0.43152 0.70759 0.0
Mn3097 Mn 0.79152 0.38672 0.71699 0.0
C3098 C 0.79413 0.42857 0.73498 0.0
C3099 C 0.81986 0.46506 0.69374 0.0
C3100 C 0.83481 0.39485 0.73168 0.0
O3101 O 0.82069 0.41641 0.68007 0.0
O3102 O 0.80582 0.38687 0.68983 0.0
C3103 C 0.7612 0.39074 0.68179 0.0
N3104 N 0.76509 0.38683 0.70197 0.0
C3105 C 0.73145 0.36286 0.70067 0.0
C3106 C 0.72908 0.36932 0.68054 0.0
C3107 C 0.74339 0.38309 0.6716 0.0
C3108 C 0.75161 0.37591 0.71244 0.0
H3109 H 0.77195 0.39983 0.67312 0.0
C3110 C 0.81559 0.39776 0.67674 0.0
O3111 O 0.83567 0.45449 0.69958 0.0
O3112 O 0.80241 0.4555 0.69435 0.0
N3113 N 0.77734 0.38191 0.74362 0.0
C3114 C 0.78683 0.38127 0.76432 0.0
C3115 C 0.77963 0.36694 0.783 0.0
C3116 C 0.74956 0.34176 0.77787 0.0
C3117 C 0.74032 0.34415 0.75477 0.0
C3118 C 0.75939 0.3712 0.73645 0.0
H3119 H 0.80054 0.38998 0.76667 0.0
O3120 O 0.80837 0.4424 0.73475 0.0
O3121 O 0.7926 0.4169 0.71883 0.0
O3122 O 0.83728 0.41174 0.72198 0.0
O3123 O 0.81806 0.3847 0.73156 0.0
C3124 C 0.72003 0.33324 0.7395 0.0
C3125 C 0.71598 0.34261 0.7125 0.0
H3126 H 0.71621 0.36389 0.6717 0.0
H3127 H 0.74109 0.38739 0.65572 0.0
H3128 H 0.78944 0.36977 0.79642 0.0
H3129 H 0.74221 0.33051 0.78795 0.0
H3130 H 0.71121 0.32071 0.74886 0.0
H3131 H 0.71607 0.33612 0.72622 0.0
Mn3132 Mn 0.58129 0.82468 0.71128 0.0
Mn3133 Mn 0.62581 0.7989 0.71618 0.0
C3134 C 0.58477 0.80092 0.73766 0.0
C3135 C 0.54858 0.82694 0.69611 0.0
C3136 C 0.61985 0.84361 0.72781 0.0
O3137 O 0.597 0.83019 0.68425 0.0
O3138 O 0.62058 0.80501 0.68675 0.0
C3139 C 0.61546 0.76154 0.69359 0.0
N3140 N 0.62142 0.76959 0.7118 0.0
C3141 C 0.63797 0.73511 0.72218 0.0
C3142 C 0.6282 0.72789 0.70314 0.0
C3143 C 0.61737 0.74071 0.68982 0.0
C3144 C 0.62744 0.75709 0.72732 0.0
H3145 H 0.60888 0.77107 0.68178 0.0
C3146 C 0.61146 0.81919 0.67672 0.0
O3147 O 0.55796 0.84301 0.70325 0.0
O3148 O 0.55881 0.80991 0.69661 0.0
N3149 N 0.63484 0.79312 0.74405 0.0
C3150 C 0.65186 0.80846 0.75418 0.0
C3151 C 0.67261 0.8012 0.77042 0.0
C3152 C 0.67822 0.77603 0.77847 0.0
C3153 C 0.66295 0.75529 0.77028 0.0
C3154 C 0.63359 0.7688 0.74694 0.0
H3155 H 0.65211 0.82431 0.74978 0.0
O3156 O 0.57012 0.81435 0.73812 0.0
O3157 O 0.59651 0.80161 0.72169 0.0
O3158 O 0.60034 0.84411 0.72676 0.0
O3159 O 0.63072 0.82873 0.72095 0.0
C3160 C 0.67351 0.73435 0.76571 0.0
C3161 C 0.66676 0.72202 0.74593 0.0
H3162 H 0.62945 0.71254 0.69699 0.0
H3163 H 0.61152 0.73456 0.67553 0.0
H3164 H 0.68304 0.81318 0.7752 0.0
H3165 H 0.6923 0.7731 0.78676 0.0
H3166 H 0.68685 0.72962 0.77438 0.0
H3167 H 0.67631 0.70814 0.74506 0.0
Mn3168 Mn 0.29598 0.1844 0.42642 0.0
Mn3169 Mn 0.28859 0.20817 0.38046 0.0
C3170 C 0.26834 0.2067 0.42191 0.0
C3171 C 0.31017 0.18336 0.46032 0.0
C3172 C 0.28048 0.16298 0.38835 0.0
O3173 O 0.32348 0.18044 0.41036 0.0
O3174 O 0.31832 0.20373 0.38507 0.0
C3175 C 0.30946 0.24687 0.38813 0.0
N3176 N 0.29157 0.23779 0.38287 0.0
C3177 C 0.28035 0.26992 0.36257 0.0
C3178 C 0.29928 0.27851 0.37154 0.0
C3179 C 0.31275 0.26738 0.3839 0.0
C3180 C 0.2758 0.2491 0.37529 0.0
H3181 H 0.32139 0.23837 0.39581 0.0
C3182 C 0.32958 0.19076 0.3946 0.0
O3183 O 0.30455 0.16695 0.45058 0.0
O3184 O 0.30929 0.20018 0.44967 0.0
N3185 N 0.26013 0.21219 0.37197 0.0
C3186 C 0.25015 0.19482 0.35707 0.0
C3187 C 0.23334 0.19896 0.33613 0.0
C3188 C 0.22392 0.22263 0.32751 0.0
C3189 C 0.23208 0.24619 0.34034 0.0
C3190 C 0.25646 0.23639 0.37064 0.0
H3191 H 0.25483 0.17918 0.35857 0.0
O3192 O 0.26845 0.19366 0.43693 0.0
O3193 O 0.28432 0.2065 0.41023 0.0
O3194 O 0.28182 0.16328 0.40786 0.0
O3195 O 0.28554 0.17809 0.37691 0.0
C3196 C 0.23651 0.26744 0.32771 0.0
C3197 C 0.25621 0.28009 0.33309 0.0
H3198 H 0.3052 0.29372 0.36862 0.0
H3199 H 0.32684 0.2745 0.38911 0.0
H3200 H 0.22843 0.18552 0.32774 0.0
H3201 H 0.22628 0.23675 0.3322 0.0
H3202 H 0.22772 0.2711 0.31411 0.0
H3203 H 0.25676 0.29307 0.32231 0.0
Mn3204 Mn 0.30158 0.81917 0.58272 0.0
Mn3205 Mn 0.29178 0.7943 0.62717 0.0
C3206 C 0.27461 0.79629 0.58509 0.0
C3207 C 0.31597 0.82236 0.54979 0.0
C3208 C 0.27715 0.83707 0.61911 0.0
O3209 O 0.32884 0.82302 0.59785 0.0
O3210 O 0.31828 0.8097 0.62789 0.0
C3211 C 0.3286 0.76596 0.62606 0.0
N3212 N 0.30792 0.7686 0.62793 0.0
C3213 C 0.30905 0.73531 0.65234 0.0
C3214 C 0.32997 0.73456 0.64845 0.0
C3215 C 0.33921 0.74921 0.63531 0.0
C3216 C 0.29735 0.75473 0.63823 0.0
H3217 H 0.3375 0.77714 0.61775 0.0
C3218 C 0.33159 0.81897 0.61681 0.0
O3219 O 0.30979 0.83821 0.56012 0.0
O3220 O 0.31516 0.80487 0.55924 0.0
N3221 N 0.26547 0.77923 0.63043 0.0
C3222 C 0.24442 0.78804 0.63019 0.0
C3223 C 0.2253 0.77979 0.64342 0.0
C3224 C 0.23037 0.74946 0.66847 0.0
C3225 C 0.25357 0.74117 0.66715 0.0
C3226 C 0.27274 0.76137 0.64118 0.0
H3227 H 0.24205 0.80235 0.62222 0.0
O3228 O 0.27454 0.81081 0.57154 0.0
O3229 O 0.29064 0.79499 0.59699 0.0
O3230 O 0.28725 0.83964 0.60249 0.0
O3231 O 0.27649 0.82018 0.62886 0.0
C3232 C 0.26904 0.72193 0.67906 0.0
C3233 C 0.29666 0.7194 0.67165 0.0
H3234 H 0.33934 0.72312 0.65597 0.0
H3235 H 0.35563 0.74824 0.633 0.0
H3236 H 0.2117 0.7892 0.64021 0.0
H3237 H 0.22007 0.74162 0.67919 0.0
H3238 H 0.25922 0.713 0.69102 0.0
H3239 H 0.28257 0.71877 0.67711 0.0
Mn3240 Mn 0.1906 0.29828 0.57708 0.0
Mn3241 Mn 0.21357 0.28805 0.62274 0.0
C3242 C 0.21312 0.27098 0.58045 0.0
C3243 C 0.18876 0.31294 0.54389 0.0
C3244 C 0.17115 0.27322 0.61235 0.0
O3245 O 0.1861 0.32546 0.59233 0.0
O3246 O 0.19826 0.31454 0.6227 0.0
C3247 C 0.24247 0.32454 0.62181 0.0
N3248 N 0.2394 0.30401 0.62437 0.0
C3249 C 0.27209 0.30536 0.64955 0.0
C3250 C 0.27368 0.32591 0.64447 0.0
C3251 C 0.25949 0.33502 0.63073 0.0
C3252 C 0.25294 0.29352 0.63523 0.0
H3253 H 0.23157 0.33338 0.61304 0.0
C3254 C 0.18936 0.32797 0.6115 0.0
O3255 O 0.17253 0.30673 0.55359 0.0
O3256 O 0.20583 0.31202 0.55411 0.0
N3257 N 0.22839 0.26182 0.62738 0.0
C3258 C 0.21932 0.24092 0.62746 0.0
C3259 C 0.22649 0.22223 0.64181 0.0
C3260 C 0.25587 0.22764 0.66796 0.0
C3261 C 0.26466 0.25064 0.66621 0.0
C3262 C 0.24584 0.26921 0.63876 0.0
H3263 H 0.20585 0.23838 0.61839 0.0
O3264 O 0.19941 0.27135 0.56608 0.0
O3265 O 0.21411 0.28692 0.59248 0.0
O3266 O 0.16924 0.2837 0.59585 0.0
O3267 O 0.18756 0.2727 0.62299 0.0
C3268 C 0.28378 0.26623 0.67831 0.0
C3269 C 0.2871 0.29348 0.66992 0.0
H3270 H 0.28569 0.33494 0.65131 0.0
H3271 H 0.26111 0.35122 0.62756 0.0
H3272 H 0.21702 0.20866 0.6386 0.0
H3273 H 0.26308 0.2176 0.67934 0.0
H3274 H 0.29228 0.25684 0.69103 0.0
H3275 H 0.28724 0.2796 0.67595 0.0
Mn3276 Mn 0.71123 0.18636 0.58117 0.0
Mn3277 Mn 0.72039 0.2134 0.62409 0.0
C3278 C 0.73885 0.20978 0.58253 0.0
C3279 C 0.69473 0.18445 0.54888 0.0
C3280 C 0.7285 0.16722 0.61951 0.0
O3281 O 0.68458 0.18281 0.59871 0.0
O3282 O 0.69039 0.208 0.62179 0.0
C3283 C 0.69828 0.25063 0.61319 0.0
N3284 N 0.71632 0.24247 0.61933 0.0
C3285 C 0.72602 0.27549 0.63841 0.0
C3286 C 0.70691 0.28315 0.62903 0.0
C3287 C 0.69418 0.2712 0.61656 0.0
C3288 C 0.7316 0.25472 0.62611 0.0
H3289 H 0.68679 0.24124 0.60583 0.0
C3290 C 0.67888 0.19414 0.61389 0.0
O3291 O 0.70127 0.16816 0.55829 0.0
O3292 O 0.69642 0.2015 0.55894 0.0
N3293 N 0.74928 0.21872 0.63019 0.0
C3294 C 0.76044 0.20236 0.6452 0.0
C3295 C 0.77644 0.20801 0.66665 0.0
C3296 C 0.78368 0.23277 0.6747 0.0
C3297 C 0.77474 0.25458 0.66149 0.0
C3298 C 0.7515 0.24301 0.63113 0.0
H3299 H 0.76138 0.18715 0.63963 0.0
O3300 O 0.73832 0.19568 0.56852 0.0
O3301 O 0.72348 0.2096 0.5949 0.0
O3302 O 0.7262 0.16586 0.60009 0.0
O3303 O 0.72455 0.18374 0.62947 0.0
C3304 C 0.76968 0.27447 0.67381 0.0
C3305 C 0.74956 0.28687 0.66808 0.0
H3306 H 0.70034 0.29815 0.63165 0.0
H3307 H 0.67994 0.2776 0.61089 0.0
H3308 H 0.78287 0.19516 0.67493 0.0
H3309 H 0.79227 0.2346 0.68879 0.0
H3310 H 0.77829 0.27833 0.68746 0.0
H3311 H 0.74844 0.29996 0.67867 0.0
Mn3312 Mn 0.81782 0.71153 0.57894 0.0
Mn3313 Mn 0.7902 0.72009 0.62184 0.0
C3314 C 0.79384 0.73853 0.58023 0.0
C3315 C 0.82145 0.69669 0.54582 0.0
C3316 C 0.83639 0.72793 0.61799 0.0
O3317 O 0.82088 0.68455 0.59624 0.0
O3318 O 0.79541 0.6901 0.6193 0.0
C3319 C 0.7522 0.69804 0.61354 0.0
N3320 N 0.76081 0.71639 0.61794 0.0
C3321 C 0.72846 0.7274 0.63802 0.0
C3322 C 0.72023 0.70803 0.62988 0.0
C3323 C 0.73172 0.69438 0.61797 0.0
C3324 C 0.74906 0.73207 0.62483 0.0
H3325 H 0.7611 0.68605 0.60643 0.0
C3326 C 0.8094 0.67872 0.61134 0.0
O3327 O 0.83713 0.70272 0.55651 0.0
O3328 O 0.80391 0.69737 0.55522 0.0
N3329 N 0.78553 0.74916 0.6274 0.0
C3330 C 0.80249 0.76062 0.64151 0.0
C3331 C 0.79767 0.77759 0.66242 0.0
C3332 C 0.77325 0.78562 0.67075 0.0
C3333 C 0.75095 0.77657 0.65845 0.0
C3334 C 0.76131 0.7519 0.6288 0.0
H3335 H 0.81757 0.76117 0.63546 0.0
O3336 O 0.80849 0.73869 0.56678 0.0
O3337 O 0.79387 0.72296 0.5924 0.0
O3338 O 0.83787 0.72631 0.59856 0.0
O3339 O 0.81979 0.72366 0.62754 0.0
C3340 C 0.73134 0.77251 0.67141 0.0
C3341 C 0.71845 0.75249 0.66688 0.0
H3342 H 0.70515 0.70195 0.6332 0.0
H3343 H 0.72499 0.67991 0.61338 0.0
H3344 H 0.81082 0.78415 0.6701 0.0
H3345 H 0.77192 0.79484 0.68449 0.0
H3346 H 0.728 0.78178 0.68477 0.0
H3347 H 0.70566 0.7522 0.67778 0.0
Mn3348 Mn 0.70442 0.81844 0.42371 0.0
Mn3349 Mn 0.71535 0.79433 0.37908 0.0
C3350 C 0.73241 0.79662 0.42138 0.0
C3351 C 0.68895 0.82104 0.45627 0.0
C3352 C 0.72924 0.83724 0.38799 0.0
O3353 O 0.67726 0.82181 0.40825 0.0
O3354 O 0.68863 0.80909 0.37834 0.0
C3355 C 0.67924 0.76478 0.38058 0.0
N3356 N 0.69977 0.76823 0.37831 0.0
C3357 C 0.69977 0.73404 0.35516 0.0
C3358 C 0.67916 0.73216 0.35989 0.0
C3359 C 0.66938 0.74697 0.3725 0.0
C3360 C 0.71075 0.75444 0.36839 0.0
H3361 H 0.66992 0.77592 0.38853 0.0
C3362 C 0.67494 0.81797 0.38921 0.0
O3363 O 0.69512 0.83707 0.44623 0.0
O3364 O 0.69068 0.80359 0.44683 0.0
N3365 N 0.74192 0.78 0.3754 0.0
C3366 C 0.76266 0.78947 0.37517 0.0
C3367 C 0.78188 0.78149 0.36201 0.0
C3368 C 0.77769 0.75009 0.33804 0.0
C3369 C 0.7547 0.7411 0.33979 0.0
C3370 C 0.73506 0.76172 0.36508 0.0
H3371 H 0.76474 0.80386 0.38303 0.0
O3372 O 0.73149 0.81078 0.43529 0.0
O3373 O 0.71652 0.79475 0.40931 0.0
O3374 O 0.71868 0.8395 0.40439 0.0
O3375 O 0.73016 0.82051 0.37794 0.0
C3376 C 0.73954 0.72105 0.32901 0.0
C3377 C 0.71304 0.71798 0.33647 0.0
H3378 H 0.67068 0.71938 0.3538 0.0
H3379 H 0.65316 0.7451 0.37546 0.0
H3380 H 0.79519 0.79143 0.36484 0.0
H3381 H 0.78821 0.7422 0.32757 0.0
H3382 H 0.74626 0.71088 0.31785 0.0
H3383 H 0.70438 0.70586 0.32918 0.0
Mn3384 Mn 0.18917 0.70083 0.42974 0.0
Mn3385 Mn 0.21668 0.70962 0.38666 0.0
C3386 C 0.21366 0.72686 0.42907 0.0
C3387 C 0.18526 0.68641 0.46276 0.0
C3388 C 0.17373 0.72663 0.39311 0.0
O3389 O 0.18406 0.67407 0.41343 0.0
O3390 O 0.20166 0.68356 0.38535 0.0
C3391 C 0.24549 0.67303 0.38737 0.0
N3392 N 0.24267 0.69373 0.3862 0.0
C3393 C 0.27629 0.69379 0.36196 0.0
C3394 C 0.27745 0.67285 0.36559 0.0
C3395 C 0.26266 0.663 0.37818 0.0
C3396 C 0.25642 0.70469 0.37606 0.0
H3397 H 0.23413 0.66371 0.39501 0.0
C3398 C 0.1905 0.6709 0.39513 0.0
O3399 O 0.16965 0.69327 0.45244 0.0
O3400 O 0.20254 0.68596 0.45298 0.0
N3401 N 0.23128 0.73558 0.38445 0.0
C3402 C 0.22176 0.75608 0.3853 0.0
C3403 C 0.22907 0.77546 0.37256 0.0
C3404 C 0.25976 0.77246 0.34746 0.0
C3405 C 0.26897 0.7494 0.34818 0.0
C3406 C 0.2492 0.729 0.3735 0.0
H3407 H 0.20791 0.75789 0.39411 0.0
O3408 O 0.19865 0.72703 0.44202 0.0
O3409 O 0.21468 0.71101 0.41679 0.0
O3410 O 0.16983 0.71731 0.40999 0.0
O3411 O 0.19088 0.72494 0.38392 0.0
C3412 C 0.2889 0.73473 0.33612 0.0
C3413 C 0.29212 0.707 0.34302 0.0
H3414 H 0.28933 0.6639 0.35825 0.0
H3415 H 0.26389 0.64657 0.38006 0.0
H3416 H 0.21902 0.7885 0.37617 0.0
H3417 H 0.2672 0.78344 0.33716 0.0
H3418 H 0.29809 0.74501 0.32465 0.0
H3419 H 0.29243 0.72123 0.33784 0.0
Mn3420 Mn 0.82093 0.29697 0.4258 0.0
Mn3421 Mn 0.79597 0.29008 0.38089 0.0
C3422 C 0.79739 0.27035 0.42291 0.0
C3423 C 0.82292 0.31309 0.45821 0.0
C3424 C 0.84087 0.27969 0.38814 0.0
O3425 O 0.8262 0.32345 0.40904 0.0
O3426 O 0.80123 0.31974 0.38527 0.0
C3427 C 0.75755 0.31223 0.3882 0.0
N3428 N 0.76632 0.29394 0.38377 0.0
C3429 C 0.73299 0.282 0.36553 0.0
C3430 C 0.72491 0.3014 0.37371 0.0
C3431 C 0.73682 0.31547 0.38466 0.0
C3432 C 0.75451 0.27797 0.37757 0.0
H3433 H 0.76645 0.32457 0.39471 0.0
C3434 C 0.81529 0.33024 0.39411 0.0
O3435 O 0.83906 0.30586 0.44905 0.0
O3436 O 0.80593 0.31221 0.44788 0.0
N3437 N 0.79122 0.26169 0.37296 0.0
C3438 C 0.8076 0.25086 0.35738 0.0
C3439 C 0.8017 0.23321 0.33736 0.0
C3440 C 0.77699 0.22428 0.33103 0.0
C3441 C 0.75535 0.23295 0.34472 0.0
C3442 C 0.76693 0.25834 0.37318 0.0
H3443 H 0.82337 0.25551 0.35766 0.0
O3444 O 0.8107 0.2705 0.4377 0.0
O3445 O 0.798 0.28588 0.41059 0.0
O3446 O 0.84094 0.28106 0.40763 0.0
O3447 O 0.82599 0.28601 0.37694 0.0
C3448 C 0.7349 0.23633 0.33287 0.0
C3449 C 0.72186 0.25617 0.33773 0.0
H3450 H 0.70956 0.30715 0.37113 0.0
H3451 H 0.73008 0.32993 0.38929 0.0
H3452 H 0.81429 0.22804 0.32786 0.0
H3453 H 0.77492 0.21506 0.31739 0.0
H3454 H 0.73101 0.22673 0.3199 0.0
H3455 H 0.70848 0.25604 0.32748 0.0
C3456 C 0.12672 0.2601 0.35066 0.0
C3457 C 0.12563 0.23872 0.35361 0.0
C3458 C 0.13998 0.27245 0.36243 0.0
C3459 C 0.15263 0.26387 0.37763 0.0
H3460 H 0.11806 0.26723 0.33843 0.0
H3461 H 0.14125 0.2886 0.35876 0.0
S3462 S 0.15478 0.20906 0.39233 0.0
N3463 N 0.13757 0.2098 0.37371 0.0
N3464 N 0.16254 0.23293 0.39572 0.0
C3465 C 0.15092 0.24274 0.38148 0.0
C3466 C 0.13736 0.23018 0.36955 0.0
C3467 C 0.76379 0.16104 0.37875 0.0
C3468 C 0.74321 0.15627 0.38322 0.0
C3469 C 0.77599 0.14805 0.36681 0.0
C3470 C 0.76824 0.12951 0.35918 0.0
H3471 H 0.77039 0.17531 0.38376 0.0
H3472 H 0.79128 0.15305 0.36264 0.0
S3473 S 0.71592 0.10894 0.36782 0.0
N3474 N 0.71601 0.13108 0.38017 0.0
N3475 N 0.73913 0.10626 0.35798 0.0
C3476 C 0.7482 0.12372 0.3648 0.0
C3477 C 0.73563 0.13718 0.37681 0.0
C3478 C 0.86062 0.73725 0.35083 0.0
C3479 C 0.86018 0.73874 0.37231 0.0
C3480 C 0.87161 0.75117 0.33889 0.0
C3481 C 0.88434 0.76638 0.34752 0.0
H3482 H 0.85089 0.72633 0.34293 0.0
H3483 H 0.86912 0.75031 0.32263 0.0
S3484 S 0.891 0.77535 0.40333 0.0
N3485 N 0.87445 0.75619 0.40213 0.0
N3486 N 0.89705 0.78102 0.37935 0.0
C3487 C 0.88559 0.76699 0.3691 0.0
C3488 C 0.8733 0.75337 0.38151 0.0
C3489 C 0.25059 0.85573 0.34725 0.0
C3490 C 0.24312 0.87515 0.35261 0.0
C3491 C 0.2676 0.84764 0.35692 0.0
C3492 C 0.27201 0.85294 0.37729 0.0
H3493 H 0.24519 0.84774 0.33373 0.0
H3494 H 0.27478 0.83458 0.34958 0.0
S3495 S 0.25343 0.90046 0.40259 0.0
N3496 N 0.24231 0.90087 0.37975 0.0
N3497 N 0.26698 0.87904 0.40364 0.0
C3498 C 0.26299 0.87119 0.38477 0.0
C3499 C 0.24936 0.88297 0.37185 0.0
C3500 C 0.14638 0.75742 0.62908 0.0
C3501 C 0.1492 0.73628 0.63242 0.0
C3502 C 0.1341 0.76919 0.64236 0.0
C3503 C 0.12401 0.76005 0.65907 0.0
H3504 H 0.15501 0.76518 0.61718 0.0
H3505 H 0.13358 0.78567 0.64034 0.0
S3506 S 0.12327 0.70462 0.67169 0.0
N3507 N 0.13926 0.70639 0.6521 0.0
N3508 N 0.11489 0.72813 0.67596 0.0
C3509 C 0.12519 0.73864 0.66125 0.0
C3510 C 0.13813 0.72682 0.64818 0.0
C3511 C 0.24502 0.14751 0.62786 0.0
C3512 C 0.26641 0.14552 0.6305 0.0
C3513 C 0.23108 0.13569 0.63944 0.0
C3514 C 0.238 0.12095 0.65358 0.0
H3515 H 0.23902 0.15942 0.61794 0.0
H3516 H 0.21484 0.13896 0.6382 0.0
S3517 S 0.29247 0.10802 0.66403 0.0
N3518 N 0.29377 0.12692 0.64723 0.0
N3519 N 0.26779 0.10357 0.6677 0.0
C3520 C 0.25935 0.11774 0.65505 0.0
C3521 C 0.27351 0.13027 0.64381 0.0
C3522 C 0.85004 0.24739 0.6263 0.0
C3523 C 0.85185 0.26894 0.62675 0.0
C3524 C 0.86217 0.23477 0.63905 0.0
C3525 C 0.8766 0.24322 0.65269 0.0
H3526 H 0.83846 0.24026 0.61677 0.0
H3527 H 0.85935 0.2184 0.63911 0.0
S3528 S 0.88785 0.29858 0.65912 0.0
N3529 N 0.86968 0.298 0.64146 0.0
N3530 N 0.89258 0.27443 0.66512 0.0
C3531 C 0.87919 0.26465 0.65254 0.0
C3532 C 0.86682 0.27746 0.63963 0.0
C3533 C 0.74461 0.87728 0.64852 0.0
C3534 C 0.76601 0.87463 0.64689 0.0
C3535 C 0.73094 0.86596 0.63622 0.0
C3536 C 0.7382 0.85212 0.62137 0.0
H3537 H 0.73838 0.88702 0.66047 0.0
H3538 H 0.71463 0.86714 0.63918 0.0
S3539 S 0.7928 0.84178 0.60914 0.0
N3540 N 0.79378 0.85822 0.62843 0.0
N3541 N 0.7682 0.83823 0.60417 0.0
C3542 C 0.75956 0.85065 0.61848 0.0
C3543 C 0.77346 0.8616 0.6315 0.0
C3544 C 0.36213 0.15326 0.23041 0.0
C3545 C 0.35911 0.13264 0.23553 0.0
C3546 C 0.37269 0.16645 0.24349 0.0
C3547 C 0.38152 0.15971 0.26204 0.0
H3548 H 0.35499 0.15969 0.21683 0.0
H3549 H 0.37296 0.1823 0.2392 0.0
S3550 S 0.38004 0.10641 0.28159 0.0
N3551 N 0.36699 0.10543 0.25986 0.0
N3552 N 0.38791 0.13037 0.28405 0.0
C3553 C 0.38013 0.1387 0.26661 0.0
C3554 C 0.36879 0.12514 0.25341 0.0
C3555 C 0.87925 0.3584 0.26242 0.0
C3556 C 0.87742 0.35902 0.24088 0.0
C3557 C 0.86664 0.37055 0.27504 0.0
C3558 C 0.85218 0.38403 0.26646 0.0
H3559 H 0.88932 0.34727 0.26956 0.0
H3560 H 0.86723 0.36838 0.29152 0.0
S3561 S 0.8438 0.39357 0.21104 0.0
N3562 N 0.86157 0.37553 0.21164 0.0
N3563 N 0.83852 0.39897 0.23524 0.0
C3564 C 0.85149 0.38595 0.245 0.0
C3565 C 0.86398 0.37331 0.2322 0.0
C3566 C 0.64586 0.87661 0.26235 0.0
C3567 C 0.64562 0.87526 0.24078 0.0
C3568 C 0.63368 0.86358 0.27442 0.0
C3569 C 0.62074 0.84901 0.26525 0.0
H3570 H 0.6567 0.88668 0.26993 0.0
H3571 H 0.63534 0.86403 0.29094 0.0
S3572 S 0.61196 0.84184 0.20959 0.0
N3573 N 0.6297 0.85989 0.21087 0.0
N3574 N 0.60641 0.83578 0.23356 0.0
C3575 C 0.61912 0.84873 0.24379 0.0
C3576 C 0.63168 0.86179 0.23151 0.0
C3577 C 0.13814 0.63654 0.23218 0.0
C3578 C 0.12653 0.65218 0.24129 0.0
C3579 C 0.14912 0.62261 0.2444 0.0
C3580 C 0.14965 0.62477 0.2659 0.0
H3581 H 0.13961 0.63576 0.21563 0.0
H3582 H 0.15901 0.61154 0.23691 0.0
S3583 S 0.11765 0.65988 0.29689 0.0
N3584 N 0.11233 0.66594 0.27287 0.0
N3585 N 0.13468 0.64116 0.29574 0.0
C3586 C 0.13649 0.639 0.27509 0.0
C3587 C 0.12459 0.6525 0.26274 0.0
C3588 C 0.37023 0.86378 0.77592 0.0
C3589 C 0.35674 0.87917 0.76937 0.0
C3590 C 0.38218 0.85298 0.76165 0.0
C3591 C 0.38019 0.85661 0.74042 0.0
H3592 H 0.37099 0.8596 0.792 0.0
H3593 H 0.39196 0.8407 0.76711 0.0
S3594 S 0.34727 0.89561 0.71575 0.0
N3595 N 0.34281 0.89829 0.74056 0.0
N3596 N 0.36443 0.87708 0.71371 0.0
C3597 C 0.36724 0.87234 0.73379 0.0
C3598 C 0.35569 0.88386 0.74833 0.0
C3599 C 0.16739 0.36082 0.75142 0.0
C3600 C 0.1588 0.3763 0.73895 0.0
C3601 C 0.15549 0.34862 0.76439 0.0
C3602 C 0.13406 0.35075 0.76564 0.0
H3603 H 0.18366 0.35761 0.75107 0.0
H3604 H 0.16331 0.33689 0.7732 0.0
S3605 S 0.10332 0.3891 0.73689 0.0
N3606 N 0.12714 0.39355 0.72937 0.0
N3607 N 0.10453 0.37004 0.75359 0.0
C3608 C 0.12503 0.3665 0.75384 0.0
C3609 C 0.13739 0.37931 0.74056 0.0
C3610 C 0.62993 0.14811 0.76397 0.0
C3611 C 0.63235 0.14682 0.74249 0.0
C3612 C 0.64155 0.13577 0.77739 0.0
C3613 C 0.65558 0.12124 0.76983 0.0
H3614 H 0.62009 0.15982 0.77047 0.0
H3615 H 0.64048 0.13851 0.79376 0.0
S3616 S 0.66561 0.11004 0.71487 0.0
N3617 N 0.64883 0.12902 0.71433 0.0
N3618 N 0.66948 0.1048 0.73939 0.0
C3619 C 0.6569 0.11874 0.74838 0.0
C3620 C 0.64557 0.13176 0.73474 0.0
C3621 C 0.8681 0.64392 0.77588 0.0
C3622 C 0.88279 0.65796 0.76878 0.0
C3623 C 0.85663 0.632 0.76203 0.0
C3624 C 0.85894 0.63428 0.74064 0.0
H3625 H 0.8648 0.64284 0.79214 0.0
H3626 H 0.84475 0.62206 0.76806 0.0
S3627 S 0.89681 0.66735 0.7144 0.0
N3628 N 0.90082 0.67152 0.73909 0.0
N3629 N 0.87789 0.65053 0.71311 0.0
C3630 C 0.87418 0.64754 0.7334 0.0
C3631 C 0.88643 0.65906 0.7475 0.0
C3632 C 0.23644 0.35903 0.15681 0.0
C3633 C 0.23748 0.35822 0.1353 0.0
C3634 C 0.25089 0.36981 0.16831 0.0
C3635 C 0.26629 0.38195 0.15919 0.0
H3636 H 0.22538 0.34974 0.16505 0.0
H3637 H 0.25026 0.36772 0.18464 0.0
S3638 S 0.27442 0.38741 0.10313 0.0
N3639 N 0.25479 0.37148 0.10495 0.0
N3640 N 0.28072 0.39368 0.1269 0.0
C3641 C 0.26654 0.38282 0.13758 0.0
C3642 C 0.25232 0.37075 0.12563 0.0
C3643 C 0.22974 0.64143 0.86623 0.0
C3644 C 0.23968 0.65245 0.88186 0.0
C3645 C 0.24085 0.62881 0.85277 0.0
C3646 C 0.26225 0.62668 0.85458 0.0
H3647 H 0.21349 0.64363 0.86355 0.0
H3648 H 0.2328 0.62153 0.84018 0.0
S3649 S 0.29537 0.65216 0.89307 0.0
N3650 N 0.27199 0.66024 0.89861 0.0
N3651 N 0.29286 0.63628 0.87346 0.0
C3652 C 0.27222 0.63684 0.87075 0.0
C3653 C 0.26092 0.64984 0.88435 0.0
C3654 C 0.37952 0.2454 0.85048 0.0
C3655 C 0.37954 0.26687 0.85326 0.0
C3656 C 0.36727 0.23234 0.8627 0.0
C3657 C 0.35454 0.24017 0.87828 0.0
H3658 H 0.38832 0.23868 0.83811 0.0
H3659 H 0.36691 0.21612 0.85914 0.0
S3660 S 0.34916 0.29509 0.89211 0.0
N3661 N 0.36595 0.29518 0.87311 0.0
N3662 N 0.34318 0.2708 0.8961 0.0
C3663 C 0.35505 0.26149 0.88175 0.0
C3664 C 0.3675 0.27478 0.86929 0.0
C3665 C 0.76206 0.38013 0.86091 0.0
C3666 C 0.74055 0.37805 0.86146 0.0
C3667 C 0.77482 0.36696 0.87232 0.0
C3668 C 0.76641 0.35161 0.88489 0.0
H3669 H 0.76907 0.39085 0.85033 0.0
H3670 H 0.79127 0.36786 0.87019 0.0
S3671 S 0.71109 0.34219 0.89396 0.0
N3672 N 0.71151 0.3609 0.87691 0.0
N3673 N 0.73533 0.33695 0.89915 0.0
C3674 C 0.74496 0.35066 0.88683 0.0
C3675 C 0.73204 0.3637 0.87492 0.0
C3676 C 0.63488 0.73369 0.8659 0.0
C3677 C 0.62377 0.74285 0.84987 0.0
C3678 C 0.6465 0.7457 0.87955 0.0
C3679 C 0.64762 0.76714 0.87729 0.0
H3680 H 0.63561 0.71715 0.86711 0.0
H3681 H 0.65597 0.73805 0.89087 0.0
S3682 S 0.61888 0.79852 0.83975 0.0
N3683 N 0.61216 0.77468 0.8345 0.0
N3684 N 0.63519 0.79706 0.85911 0.0
C3685 C 0.63559 0.77648 0.86215 0.0
C3686 C 0.62335 0.76434 0.84868 0.0
C3687 C 0.7456 0.64598 0.12965 0.0
C3688 C 0.76698 0.64538 0.13281 0.0
C3689 C 0.7322 0.63356 0.1412 0.0
C3690 C 0.73977 0.61968 0.15588 0.0
H3691 H 0.73909 0.65722 0.11928 0.0
H3692 H 0.71581 0.63574 0.13955 0.0
S3693 S 0.79465 0.61041 0.1678 0.0
N3694 N 0.79513 0.62896 0.15056 0.0
N3695 N 0.77022 0.60453 0.17109 0.0
C3696 C 0.76121 0.61786 0.15791 0.0
C3697 C 0.77477 0.63097 0.14666 0.0
C3698 C 0.35964 0.74784 0.12675 0.0
C3699 C 0.35815 0.76921 0.12938 0.0
C3700 C 0.37175 0.73586 0.13999 0.0
C3701 C 0.38302 0.74499 0.15593 0.0
H3702 H 0.35023 0.74019 0.11537 0.0
H3703 H 0.37128 0.71932 0.13856 0.0
S3704 S 0.38679 0.80065 0.1669 0.0
N3705 N 0.37022 0.79913 0.14779 0.0
N3706 N 0.39411 0.77688 0.17164 0.0
C3707 C 0.38295 0.76649 0.15749 0.0
C3708 C 0.3702 0.77857 0.14446 0.0
C3709 C 0.64712 0.25834 0.12779 0.0
C3710 C 0.64687 0.2369 0.13038 0.0
C3711 C 0.6354 0.27119 0.14055 0.0
C3712 C 0.62268 0.26289 0.15581 0.0
H3713 H 0.65774 0.26528 0.11705 0.0
H3714 H 0.63736 0.28764 0.13939 0.0
S3715 S 0.61361 0.20776 0.16592 0.0
N3716 N 0.63125 0.20799 0.14771 0.0
N3717 N 0.6081 0.23202 0.1706 0.0
C3718 C 0.62082 0.24148 0.1571 0.0
C3719 C 0.63321 0.22847 0.14462 0.0
C3720 C 0.85548 0.76222 0.65896 0.0
C3721 C 0.87547 0.7681 0.65394 0.0
C3722 C 0.84686 0.74492 0.65023 0.0
C3723 C 0.85249 0.73878 0.63038 0.0
H3724 H 0.8474 0.76905 0.67177 0.0
H3725 H 0.83344 0.73869 0.65779 0.0
S3726 S 0.90169 0.75314 0.60558 0.0
N3727 N 0.90201 0.76572 0.62765 0.0
N3728 N 0.87957 0.74073 0.60465 0.0
C3729 C 0.87136 0.74641 0.62292 0.0
C3730 C 0.88348 0.76022 0.63535 0.0
C3731 C 0.26453 0.87787 0.65794 0.0
C3732 C 0.24329 0.88062 0.65527 0.0
C3733 C 0.27586 0.86507 0.64484 0.0
C3734 C 0.26633 0.85449 0.62866 0.0
H3735 H 0.27226 0.8848 0.67091 0.0
H3736 H 0.29191 0.8624 0.6482 0.0
S3737 S 0.21128 0.85673 0.61483 0.0
N3738 N 0.21335 0.87229 0.63476 0.0
N3739 N 0.23462 0.84792 0.61033 0.0
C3740 C 0.24532 0.85778 0.62524 0.0
C3741 C 0.2338 0.87099 0.63848 0.0
C3742 C 0.12388 0.25932 0.64297 0.0
C3743 C 0.12651 0.23807 0.64582 0.0
C3744 C 0.1374 0.27063 0.63047 0.0
C3745 C 0.15371 0.26095 0.6202 0.0
H3746 H 0.11236 0.26748 0.65175 0.0
H3747 H 0.13598 0.28717 0.63002 0.0
S3748 S 0.16497 0.20523 0.62012 0.0
N3749 N 0.14535 0.20763 0.63597 0.0
N3750 N 0.16983 0.22855 0.61154 0.0
C3751 C 0.15528 0.2395 0.62158 0.0
C3752 C 0.1419 0.22812 0.63464 0.0
C3753 C 0.7633 0.14713 0.65947 0.0
C3754 C 0.76869 0.12702 0.65419 0.0
C3755 C 0.74603 0.15607 0.6511 0.0
C3756 C 0.73953 0.15085 0.63131 0.0
H3757 H 0.77001 0.15479 0.67261 0.0
H3758 H 0.73981 0.16921 0.65912 0.0
S3759 S 0.75261 0.10167 0.60575 0.0
N3760 N 0.76544 0.10082 0.62766 0.0
N3761 N 0.74066 0.12406 0.6052 0.0
C3762 C 0.74675 0.13195 0.62348 0.0
C3763 C 0.76045 0.11938 0.63561 0.0
C3764 C 0.87649 0.26409 0.34552 0.0
C3765 C 0.88175 0.24379 0.35059 0.0
C3766 C 0.86465 0.27628 0.35861 0.0
C3767 C 0.85776 0.26879 0.37755 0.0
H3768 H 0.88083 0.27055 0.33099 0.0
H3769 H 0.85997 0.29134 0.35339 0.0
S3770 S 0.86874 0.21732 0.39915 0.0
N3771 N 0.88037 0.21721 0.3766 0.0
N3772 N 0.85822 0.24024 0.40156 0.0
C3773 C 0.86416 0.24906 0.38363 0.0
C3774 C 0.87616 0.23653 0.37009 0.0
C3775 C 0.77485 0.86554 0.3665 0.0
C3776 C 0.76563 0.88084 0.35447 0.0
C3777 C 0.76297 0.85255 0.37893 0.0
C3778 C 0.74148 0.85444 0.37976 0.0
H3779 H 0.79117 0.86268 0.36521 0.0
H3780 H 0.77054 0.84019 0.38702 0.0
S3781 S 0.7101 0.89254 0.3517 0.0
N3782 N 0.73391 0.89767 0.3447 0.0
N3783 N 0.7116 0.8733 0.36814 0.0
C3784 C 0.73221 0.87039 0.36869 0.0
C3785 C 0.7443 0.88358 0.35597 0.0
C3786 C 0.16668 0.75809 0.37243 0.0
C3787 C 0.15879 0.74133 0.3836 0.0
C3788 C 0.15418 0.77105 0.3609 0.0
C3789 C 0.13299 0.76775 0.35929 0.0
H3790 H 0.18291 0.76089 0.37161 0.0
H3791 H 0.16147 0.78306 0.35201 0.0
S3792 S 0.10394 0.72636 0.38541 0.0
N3793 N 0.12789 0.72269 0.3929 0.0
N3794 N 0.10424 0.74672 0.37029 0.0
C3795 C 0.12446 0.75164 0.37096 0.0
C3796 C 0.13736 0.73849 0.38323 0.0
C3797 C 0.23705 0.13113 0.36728 0.0
C3798 C 0.2462 0.12185 0.35009 0.0
C3799 C 0.24883 0.14275 0.38119 0.0
C3800 C 0.27002 0.14571 0.37808 0.0
H3801 H 0.22056 0.13052 0.36925 0.0
H3802 H 0.24102 0.15092 0.39338 0.0
S3803 S 0.3017 0.12161 0.3376 0.0
N3804 N 0.27817 0.1135 0.33288 0.0
N3805 N 0.29991 0.13661 0.35795 0.0
C3806 C 0.27947 0.13533 0.36181 0.0
C3807 C 0.26763 0.12308 0.34806 0.0
C3808 C 0.66105 0.88076 0.74417 0.0
C3809 C 0.65765 0.8825 0.76545 0.0
C3810 C 0.64793 0.86923 0.73163 0.0
C3811 C 0.63056 0.85955 0.73982 0.0
H3812 H 0.6744 0.88766 0.73723 0.0
H3813 H 0.65185 0.86717 0.71559 0.0
S3814 S 0.61399 0.86052 0.79428 0.0
N3815 N 0.6352 0.87439 0.79397 0.0
N3816 N 0.60997 0.8533 0.77029 0.0
C3817 C 0.62614 0.86238 0.76079 0.0
C3818 C 0.6398 0.87379 0.77365 0.0
C3819 C 0.13606 0.64165 0.73319 0.0
C3820 C 0.1491 0.62588 0.73971 0.0
C3821 C 0.12498 0.65322 0.74753 0.0
C3822 C 0.12748 0.64996 0.76875 0.0
H3823 H 0.13509 0.6456 0.71707 0.0
H3824 H 0.11551 0.66574 0.74207 0.0
S3825 S 0.15963 0.61047 0.79347 0.0
N3826 N 0.1631 0.60686 0.7686 0.0
N3827 N 0.1433 0.62971 0.79554 0.0
C3828 C 0.13995 0.63391 0.77541 0.0
C3829 C 0.15051 0.62154 0.76083 0.0
C3830 C 0.3486 0.14838 0.75843 0.0
C3831 C 0.35395 0.12851 0.7646 0.0
C3832 C 0.35757 0.15719 0.74137 0.0
C3833 C 0.37771 0.15212 0.73587 0.0
H3834 H 0.33531 0.15612 0.76467 0.0
H3835 H 0.34989 0.17044 0.73496 0.0
S3836 S 0.4033 0.10357 0.75105 0.0
N3837 N 0.3809 0.10265 0.76297 0.0
N3838 N 0.40403 0.12569 0.73862 0.0
C3839 C 0.3854 0.13341 0.74373 0.0
C3840 C 0.37289 0.12095 0.7572 0.0
C3841 C 0.88122 0.36295 0.74633 0.0
C3842 C 0.87867 0.36073 0.76771 0.0
C3843 C 0.86786 0.37536 0.7347 0.0
C3844 C 0.85184 0.38629 0.74416 0.0
H3845 H 0.89256 0.35378 0.73835 0.0
H3846 H 0.86927 0.3754 0.71813 0.0
S3847 S 0.84105 0.3882 0.80005 0.0
N3848 N 0.86019 0.37177 0.79797 0.0
N3849 N 0.83626 0.39627 0.7765 0.0
C3850 C 0.85039 0.3855 0.7657 0.0
C3851 C 0.86352 0.37243 0.7774 0.0
C3852 C 0.65921 0.12462 0.2643 0.0
C3853 C 0.65513 0.12138 0.24333 0.0
C3854 C 0.64627 0.13665 0.27655 0.0
C3855 C 0.62844 0.14554 0.26842 0.0
H3856 H 0.673 0.11858 0.27117 0.0
H3857 H 0.65079 0.13988 0.29223 0.0
S3858 S 0.61002 0.14072 0.21477 0.0
N3859 N 0.63145 0.12719 0.21521 0.0
N3860 N 0.60672 0.14946 0.23836 0.0
C3861 C 0.62334 0.14124 0.24785 0.0
C3862 C 0.63676 0.12919 0.23527 0.0
C3863 C 0.85562 0.65885 0.24631 0.0
C3864 C 0.8756 0.65364 0.24062 0.0
C3865 C 0.84711 0.65096 0.26409 0.0
C3866 C 0.85255 0.63129 0.27089 0.0
H3867 H 0.84752 0.67132 0.23891 0.0
H3868 H 0.83377 0.65883 0.27008 0.0
S3869 S 0.90153 0.6057 0.25716 0.0
N3870 N 0.90199 0.62731 0.24387 0.0
N3871 N 0.87943 0.60533 0.26966 0.0
C3872 C 0.87134 0.62344 0.26341 0.0
C3873 C 0.88353 0.63531 0.24915 0.0
C3874 C 0.36839 0.87027 0.23139 0.0
C3875 C 0.35513 0.88594 0.23791 0.0
C3876 C 0.37904 0.8581 0.24566 0.0
C3877 C 0.37617 0.86063 0.26695 0.0
H3878 H 0.3696 0.86661 0.21521 0.0
H3879 H 0.3884 0.84559 0.24 0.0
S3880 S 0.34459 0.9006 0.29192 0.0
N3881 N 0.34157 0.90479 0.26709 0.0
N3882 N 0.36022 0.88074 0.29384 0.0
C3883 C 0.36374 0.87679 0.27368 0.0
C3884 C 0.35353 0.88972 0.25915 0.0
C3885 C 0.15954 0.35774 0.26093 0.0
C3886 C 0.15452 0.37769 0.26695 0.0
C3887 C 0.15071 0.3492 0.24365 0.0
C3888 C 0.1307 0.35456 0.23795 0.0
H3889 H 0.17249 0.34969 0.26753 0.0
H3890 H 0.15833 0.33593 0.23718 0.0
S3891 S 0.10571 0.40346 0.25294 0.0
N3892 N 0.128 0.404 0.26508 0.0
N3893 N 0.10475 0.38137 0.24047 0.0
C3894 C 0.12319 0.37335 0.24577 0.0
C3895 C 0.13577 0.38558 0.25938 0.0
C3896 C 0.74362 0.6545 0.88127 0.0
C3897 C 0.76488 0.65201 0.8841 0.0
C3898 C 0.73264 0.64211 0.86749 0.0
C3899 C 0.74255 0.62684 0.85598 0.0
H3900 H 0.73562 0.66689 0.8889 0.0
H3901 H 0.71655 0.64533 0.8649 0.0
S3902 S 0.79767 0.6134 0.85839 0.0
N3903 N 0.79516 0.63236 0.87504 0.0
N3904 N 0.77454 0.60924 0.84888 0.0
C3905 C 0.76354 0.62347 0.8594 0.0
C3906 C 0.77471 0.63599 0.87358 0.0
C3907 C 0.77262 0.36549 0.13358 0.0
C3908 C 0.76338 0.34922 0.12284 0.0
C3909 C 0.76078 0.37887 0.14574 0.0
C3910 C 0.73945 0.37608 0.14782 0.0
H3911 H 0.78916 0.367 0.13374 0.0
H3912 H 0.76857 0.39033 0.15493 0.0
S3913 S 0.70769 0.33786 0.12052 0.0
N3914 N 0.73134 0.33317 0.11274 0.0
N3915 N 0.70944 0.35728 0.13669 0.0
C3916 C 0.72997 0.3608 0.13614 0.0
C3917 C 0.74188 0.34761 0.12337 0.0
C3918 C 0.64033 0.771 0.13555 0.0
C3919 C 0.65616 0.76211 0.12395 0.0
C3920 C 0.62705 0.75873 0.14729 0.0
C3921 C 0.62951 0.7373 0.14808 0.0
H3922 H 0.63907 0.78752 0.13661 0.0
H3923 H 0.61583 0.76616 0.15706 0.0
S3924 S 0.66677 0.70656 0.11832 0.0
N3925 N 0.67164 0.73052 0.11173 0.0
N3926 N 0.6477 0.70766 0.135 0.0
C3927 C 0.64447 0.72822 0.13565 0.0
C3928 C 0.65756 0.74062 0.12326 0.0
C3929 C 0.26012 0.65505 0.16676 0.0
C3930 C 0.26879 0.63677 0.15926 0.0
C3931 C 0.24718 0.66709 0.15476 0.0
C3932 C 0.24218 0.66181 0.13436 0.0
H3933 H 0.26304 0.66018 0.18231 0.0
H3934 H 0.24111 0.68086 0.16181 0.0
S3935 S 0.26074 0.6155 0.10695 0.0
N3936 N 0.27128 0.61374 0.12996 0.0
N3937 N 0.24704 0.63682 0.10709 0.0
C3938 C 0.25058 0.64352 0.1265 0.0
C3939 C 0.26383 0.63097 0.13896 0.0
C3940 C 0.34703 0.26572 0.12718 0.0
C3941 C 0.35173 0.24505 0.12306 0.0
C3942 C 0.35976 0.27791 0.13951 0.0
C3943 C 0.37796 0.27005 0.14786 0.0
H3944 H 0.333 0.27239 0.12155 0.0
H3945 H 0.35485 0.29333 0.14328 0.0
S3946 S 0.39797 0.21728 0.14077 0.0
N3947 N 0.37634 0.21754 0.12754 0.0
N3948 N 0.40066 0.24059 0.15036 0.0
C3949 C 0.38361 0.24983 0.14273 0.0
C3950 C 0.37042 0.2373 0.13037 0.0
C3951 C 0.25901 0.35817 0.85011 0.0
C3952 C 0.26525 0.37796 0.85528 0.0
C3953 C 0.24158 0.34979 0.85874 0.0
C3954 C 0.23614 0.35488 0.87891 0.0
H3955 H 0.26585 0.35004 0.83738 0.0
H3956 H 0.2351 0.33659 0.85102 0.0
S3957 S 0.25176 0.40328 0.90452 0.0
N3958 N 0.26374 0.40401 0.88213 0.0
N3959 N 0.23909 0.3813 0.90526 0.0
C3960 C 0.24416 0.37349 0.88664 0.0
C3961 C 0.2578 0.38575 0.87414 0.0
C3962 C 0.6387 0.23125 0.86127 0.0
C3963 C 0.64738 0.23961 0.87911 0.0
C3964 C 0.62667 0.24326 0.84812 0.0
C3965 C 0.62324 0.26422 0.85199 0.0
H3966 H 0.64206 0.21558 0.85692 0.0
H3967 H 0.62076 0.23621 0.83437 0.0
S3968 S 0.64195 0.29329 0.89706 0.0
N3969 N 0.65084 0.26984 0.90065 0.0
N3970 N 0.62862 0.29255 0.87549 0.0
C3971 C 0.63082 0.27249 0.87037 0.0
C3972 C 0.64284 0.26015 0.88401 0.0
C3973 C 0.36081 0.74795 0.87881 0.0
C3974 C 0.35801 0.7691 0.87551 0.0
C3975 C 0.37325 0.73622 0.86563 0.0
C3976 C 0.38353 0.74542 0.84906 0.0
H3977 H 0.3521 0.74017 0.89064 0.0
H3978 H 0.37374 0.71974 0.8676 0.0
S3979 S 0.38416 0.8009 0.83656 0.0
N3980 N 0.36805 0.79905 0.85602 0.0
N3981 N 0.39263 0.77741 0.83232 0.0
C3982 C 0.38227 0.76684 0.84692 0.0
C3983 C 0.36919 0.77862 0.8599 0.0
C3984 C 0.07971 0.26519 0.28889 0.0
C3985 C 0.08098 0.24476 0.28186 0.0
C3986 C 0.07986 0.28176 0.27508 0.0
C3987 C 0.08002 0.27837 0.2538 0.0
H3988 H 0.07971 0.26838 0.30522 0.0
H3989 H 0.08015 0.29726 0.28105 0.0
S3990 S 0.07443 0.2279 0.22811 0.0
N3991 N 0.0778 0.22214 0.25256 0.0
N3992 N 0.07512 0.25319 0.22673 0.0
C3993 C 0.07838 0.25804 0.24674 0.0
C3994 C 0.07954 0.24122 0.26073 0.0
C3995 C 0.7341 0.08114 0.28549 0.0
C3996 C 0.75517 0.0834 0.28184 0.0
C3997 C 0.72037 0.0793 0.26909 0.0
C3998 C 0.72734 0.08076 0.24871 0.0
H3999 H 0.72824 0.08091 0.30105 0.0
H4000 H 0.70413 0.07785 0.27233 0.0
S4001 S 0.78129 0.07957 0.23145 0.0
N4002 N 0.78265 0.08086 0.25675 0.0
N4003 N 0.75662 0.08022 0.22579 0.0
C4004 C 0.74843 0.08146 0.24493 0.0
C4005 C 0.76244 0.08215 0.2616 0.0
C4006 C 0.92778 0.74899 0.24532 0.0
C4007 C 0.92718 0.72877 0.25287 0.0
C4008 C 0.92895 0.76588 0.25867 0.0
C4009 C 0.93078 0.76301 0.27994 0.0
H4010 H 0.92726 0.75178 0.22896 0.0
H4011 H 0.92852 0.78123 0.25233 0.0
S4012 S 0.93401 0.71303 0.307 0.0
N4013 N 0.93074 0.7068 0.28265 0.0
N4014 N 0.93473 0.73833 0.30768 0.0
C4015 C 0.93237 0.74279 0.28744 0.0
C4016 C 0.93016 0.7257 0.27393 0.0
C4017 C 0.27636 0.92819 0.27871 0.0
C4018 C 0.2552 0.92605 0.27555 0.0
C4019 C 0.28989 0.92931 0.26196 0.0
C4020 C 0.28279 0.92702 0.24162 0.0
H4021 H 0.28251 0.92873 0.29415 0.0
H4022 H 0.30615 0.93087 0.26498 0.0
S4023 S 0.22859 0.92861 0.22525 0.0
N4024 N 0.22754 0.92822 0.2506 0.0
N4025 N 0.25315 0.92723 0.21924 0.0
C4026 C 0.26161 0.92652 0.23828 0.0
C4027 C 0.24778 0.92673 0.25526 0.0
C4028 C 0.08214 0.72001 0.73887 0.0
C4029 C 0.08355 0.72435 0.75992 0.0
C4030 C 0.08059 0.73592 0.72452 0.0
C4031 C 0.08139 0.75649 0.73088 0.0
H4032 H 0.0823 0.70429 0.73351 0.0
H4033 H 0.07979 0.73215 0.70834 0.0
S4034 S 0.07837 0.77544 0.78425 0.0
N4035 N 0.07995 0.75026 0.78649 0.0
N4036 N 0.07965 0.78029 0.75941 0.0
C4037 C 0.08137 0.76094 0.75188 0.0
C4038 C 0.08186 0.74477 0.76647 0.0
C4039 C 0.25605 0.0814 0.76004 0.0
C4040 C 0.27616 0.079 0.75253 0.0
C4041 C 0.23914 0.0822 0.7467 0.0
C4042 C 0.24171 0.0791 0.72556 0.0
H4043 H 0.25337 0.08275 0.77635 0.0
H4044 H 0.224 0.08495 0.75299 0.0
S4045 S 0.29048 0.06573 0.69926 0.0
N4046 N 0.29727 0.07006 0.72328 0.0
N4047 N 0.26541 0.06921 0.69839 0.0
C4048 C 0.26147 0.07406 0.71828 0.0
C4049 C 0.27873 0.07443 0.73172 0.0
C4050 C 0.92021 0.26295 0.75916 0.0
C4051 C 0.92175 0.2833 0.75229 0.0
C4052 C 0.91892 0.24667 0.74525 0.0
C4053 C 0.92042 0.25024 0.72409 0.0
H4054 H 0.92005 0.25957 0.77541 0.0
H4055 H 0.9171 0.23122 0.75107 0.0
S4056 S 0.92909 0.30039 0.6987 0.0
N4057 N 0.92703 0.30601 0.72333 0.0
N4058 N 0.92661 0.27524 0.69706 0.0
C4059 C 0.92399 0.27035 0.71716 0.0
C4060 C 0.92427 0.28697 0.73131 0.0
C4061 C 0.75058 0.91784 0.76134 0.0
C4062 C 0.72949 0.92108 0.75882 0.0
C4063 C 0.76351 0.91669 0.74427 0.0
C4064 C 0.75562 0.91758 0.72421 0.0
H4065 H 0.75711 0.91642 0.77657 0.0
H4066 H 0.77984 0.91517 0.74681 0.0
S4067 S 0.70175 0.92768 0.70956 0.0
N4068 N 0.7015 0.92737 0.73492 0.0
N4069 N 0.72579 0.92349 0.70275 0.0
C4070 C 0.73473 0.92167 0.7215 0.0
C4071 C 0.72165 0.92381 0.73888 0.0
C4072 C 0.2722 0.08148 0.28445 0.0
C4073 C 0.2517 0.08119 0.27774 0.0
C4074 C 0.28829 0.08328 0.27031 0.0
C4075 C 0.28425 0.08381 0.24917 0.0
H4076 H 0.27571 0.08124 0.3007 0.0
H4077 H 0.3039 0.08432 0.27591 0.0
S4078 S 0.23384 0.07549 0.22424 0.0
N4079 N 0.22849 0.07744 0.24893 0.0
N4080 N 0.25898 0.07814 0.22234 0.0
C4081 C 0.26403 0.08099 0.24236 0.0
C4082 C 0.24762 0.08031 0.2567 0.0
C4083 C 0.92414 0.28447 0.27257 0.0
C4084 C 0.92136 0.28109 0.2515 0.0
C4085 C 0.92594 0.26793 0.28614 0.0
C4086 C 0.92393 0.24766 0.27905 0.0
H4087 H 0.92478 0.29994 0.27859 0.0
H4088 H 0.92771 0.27102 0.30239 0.0
S4089 S 0.92388 0.2309 0.22488 0.0
N4090 N 0.92299 0.25619 0.22375 0.0
N4091 N 0.92356 0.22504 0.24953 0.0
C4092 C 0.92281 0.2441 0.25792 0.0
C4093 C 0.92215 0.2609 0.24404 0.0
C4094 C 0.73597 0.92322 0.28877 0.0
C4095 C 0.75632 0.92225 0.28162 0.0
C4096 C 0.71947 0.92153 0.27509 0.0
C4097 C 0.72298 0.91988 0.25393 0.0
H4098 H 0.73285 0.92427 0.30507 0.0
H4099 H 0.70397 0.92139 0.28107 0.0
S4100 S 0.77312 0.9248 0.22753 0.0
N4101 N 0.77897 0.92371 0.25216 0.0
N4102 N 0.74786 0.92323 0.22632 0.0
C4103 C 0.74316 0.92151 0.24656 0.0
C4104 C 0.75992 0.92208 0.26047 0.0
C4105 C 0.08302 0.72029 0.27368 0.0
C4106 C 0.08436 0.72611 0.25293 0.0
C4107 C 0.08276 0.73511 0.28926 0.0
C4108 C 0.08349 0.75602 0.28433 0.0
H4109 H 0.08274 0.70423 0.27787 0.0
H4110 H 0.08259 0.73023 0.30515 0.0
S4111 S 0.08182 0.77891 0.23233 0.0
N4112 N 0.08295 0.75395 0.22827 0.0
N4113 N 0.08214 0.78184 0.25751 0.0
C4114 C 0.08329 0.76196 0.26365 0.0
C4115 C 0.0838 0.74695 0.24789 0.0
C4116 C 0.26949 0.92476 0.72179 0.0
C4117 C 0.24889 0.92358 0.72816 0.0
C4118 C 0.28553 0.92359 0.73615 0.0
C4119 C 0.28133 0.92223 0.75724 0.0
H4120 H 0.2732 0.92553 0.7056 0.0
H4121 H 0.30124 0.92358 0.73074 0.0
S4122 S 0.23012 0.92683 0.78158 0.0
N4123 N 0.22522 0.92518 0.75678 0.0
N4124 N 0.25535 0.9257 0.78377 0.0
C4125 C 0.26084 0.92368 0.76376 0.0
C4126 C 0.24457 0.92373 0.74919 0.0
C4127 C 0.08332 0.27436 0.7208 0.0
C4128 C 0.08357 0.25319 0.72445 0.0
C4129 C 0.0834 0.28821 0.73722 0.0
C4130 C 0.08477 0.28119 0.7576 0.0
H4131 H 0.0832 0.28019 0.70523 0.0
H4132 H 0.08338 0.30449 0.73395 0.0
S4133 S 0.07911 0.22762 0.77506 0.0
N4134 N 0.07943 0.22611 0.74974 0.0
N4135 N 0.08222 0.25211 0.78061 0.0
C4136 C 0.08358 0.26014 0.76142 0.0
C4137 C 0.08237 0.24611 0.74477 0.0
C4138 C 0.72072 0.07671 0.74562 0.0
C4139 C 0.7281 0.07915 0.76583 0.0
C4140 C 0.73418 0.0765 0.72881 0.0
C4141 C 0.75544 0.07743 0.73184 0.0
H4142 H 0.70437 0.07599 0.74273 0.0
H4143 H 0.72793 0.07589 0.71341 0.0
S4144 S 0.78219 0.07489 0.78205 0.0
N4145 N 0.75779 0.07785 0.78812 0.0
N4146 N 0.78311 0.07447 0.75669 0.0
C4147 C 0.76295 0.07696 0.75209 0.0
C4148 C 0.74927 0.0785 0.7691 0.0
C4149 C 0.92744 0.72022 0.7438 0.0
C4150 C 0.92698 0.72759 0.76414 0.0
C4151 C 0.92643 0.73371 0.72702 0.0
C4152 C 0.9262 0.75498 0.73011 0.0
H4153 H 0.92766 0.7039 0.74086 0.0
H4154 H 0.92566 0.72747 0.71163 0.0
S4155 S 0.93375 0.78154 0.77991 0.0
N4156 N 0.93083 0.7572 0.78621 0.0
N4157 N 0.93193 0.7825 0.75462 0.0
C4158 C 0.92861 0.76242 0.75024 0.0
C4159 C 0.92832 0.74874 0.76733 0.0
C4160 C 0.27204 0.28577 0.08377 0.0
C4161 C 0.25106 0.28194 0.08671 0.0
C4162 C 0.28589 0.26953 0.08115 0.0
C4163 C 0.27924 0.24904 0.08246 0.0
H4164 H 0.27776 0.30136 0.08369 0.0
H4165 H 0.30204 0.27297 0.07928 0.0
S4166 S 0.22542 0.23135 0.0825 0.0
N4167 N 0.22383 0.25656 0.08439 0.0
N4168 N 0.25015 0.22594 0.08232 0.0
C4169 C 0.25819 0.2451 0.08371 0.0
C4170 C 0.24402 0.26162 0.08519 0.0
C4171 C 0.24597 0.74574 0.92316 0.0
C4172 C 0.24972 0.72468 0.92526 0.0
C4173 C 0.26225 0.75969 0.92241 0.0
C4174 C 0.28271 0.75294 0.92251 0.0
H4175 H 0.23039 0.75146 0.92235 0.0
H4176 H 0.25877 0.77589 0.9218 0.0
S4177 S 0.30057 0.69964 0.92995 0.0
N4178 N 0.27529 0.69793 0.92995 0.0
N4179 N 0.30591 0.72418 0.92671 0.0
C4180 C 0.28666 0.73207 0.92553 0.0
C4181 C 0.27011 0.71792 0.92729 0.0
C4182 C 0.24739 0.25772 0.92535 0.0
C4183 C 0.25395 0.27821 0.92707 0.0
C4184 C 0.26148 0.24158 0.92313 0.0
C4185 C 0.28264 0.24531 0.92394 0.0
H4186 H 0.2312 0.25413 0.92556 0.0
H4187 H 0.25578 0.22611 0.92111 0.0
S4188 S 0.30758 0.29575 0.9327 0.0
N4189 N 0.28284 0.30109 0.9317 0.0
N4190 N 0.30943 0.27066 0.92977 0.0
C4191 C 0.28933 0.26551 0.92785 0.0
C4192 C 0.27497 0.28201 0.92898 0.0
C4193 C 0.74556 0.24521 0.92169 0.0
C4194 C 0.72553 0.25286 0.92372 0.0
C4195 C 0.76246 0.25839 0.92141 0.0
C4196 C 0.75985 0.27947 0.92457 0.0
H4197 H 0.74822 0.2289 0.92044 0.0
H4198 H 0.77763 0.25204 0.91904 0.0
S4199 S 0.71101 0.30614 0.93646 0.0
N4200 N 0.70421 0.28217 0.93199 0.0
N4201 N 0.73619 0.30687 0.93371 0.0
C4202 C 0.7401 0.28696 0.929 0.0
C4203 C 0.72284 0.27366 0.92814 0.0
C4204 C 0.74308 0.75845 0.92376 0.0
C4205 C 0.7227 0.75151 0.92323 0.0
C4206 C 0.75942 0.74463 0.92462 0.0
C4207 C 0.75574 0.72353 0.92617 0.0
H4208 H 0.74643 0.7747 0.92358 0.0
H4209 H 0.77497 0.75048 0.92437 0.0
S4210 S 0.70506 0.6979 0.92854 0.0
N4211 N 0.6996 0.72249 0.92592 0.0
N4212 N 0.73035 0.69638 0.92926 0.0
C4213 C 0.73539 0.7165 0.9274 0.0
C4214 C 0.7188 0.73055 0.92556 0.0
C4215 C 0.73548 0.71908 0.08572 0.0
C4216 C 0.75654 0.72246 0.08855 0.0
C4217 C 0.722 0.73564 0.08342 0.0
C4218 C 0.72916 0.75593 0.08495 0.0
H4219 H 0.72943 0.70362 0.08542 0.0
H4220 H 0.70577 0.73259 0.08153 0.0
S4221 S 0.78334 0.77248 0.08509 0.0
N4222 N 0.78436 0.74722 0.08658 0.0
N4223 N 0.75873 0.77843 0.08505 0.0
C4224 C 0.75028 0.75942 0.08618 0.0
C4225 C 0.76406 0.7426 0.08735 0.0
C4226 C 0.26858 0.72148 0.0834 0.0
C4227 C 0.24826 0.72867 0.08381 0.0
C4228 C 0.28503 0.73518 0.08422 0.0
C4229 C 0.28149 0.75635 0.08444 0.0
H4230 H 0.27174 0.70517 0.08346 0.0
H4231 H 0.30054 0.72923 0.08476 0.0
S4232 S 0.23141 0.78236 0.07765 0.0
N4233 N 0.22555 0.75788 0.08033 0.0
N4234 N 0.25667 0.78368 0.07921 0.0
C4235 C 0.26135 0.76363 0.08228 0.0
C4236 C 0.24459 0.74973 0.08257 0.0
C4237 C 0.7437 0.24233 0.08736 0.0
C4238 C 0.72347 0.24962 0.08616 0.0
C4239 C 0.76035 0.25578 0.08652 0.0
C4240 C 0.75722 0.27676 0.0832 0.0
H4241 H 0.74671 0.22608 0.08879 0.0
H4242 H 0.77573 0.24972 0.08822 0.0
S4243 S 0.70738 0.30271 0.07446 0.0
N4244 N 0.70124 0.2786 0.07913 0.0
N4245 N 0.73267 0.30382 0.07562 0.0
C4246 C 0.73716 0.28394 0.07989 0.0
C4247 C 0.72019 0.27036 0.08178 0.0
C4248 C 0.58369 0.78636 0.77285 0.0
C4249 C 0.58425 0.78332 0.75154 0.0
C4250 C 0.58226 0.7696 0.78621 0.0
C4251 C 0.58243 0.74944 0.77856 0.0
H4252 H 0.58441 0.8017 0.77917 0.0
H4253 H 0.58194 0.77235 0.8026 0.0
S4254 S 0.57678 0.73398 0.72432 0.0
N4255 N 0.57889 0.75921 0.72359 0.0
N4256 N 0.57902 0.72753 0.74872 0.0
C4257 C 0.58154 0.74633 0.75735 0.0
C4258 C 0.5818 0.76338 0.74381 0.0
C4259 C 0.24416 0.58471 0.74606 0.0
C4260 C 0.22352 0.58315 0.75204 0.0
C4261 C 0.25993 0.58534 0.76064 0.0
C4262 C 0.25559 0.58331 0.78163 0.0
H4263 H 0.24818 0.58541 0.72996 0.0
H4264 H 0.27561 0.58719 0.75545 0.0
S4265 S 0.20436 0.57499 0.80489 0.0
N4266 N 0.19973 0.57734 0.78007 0.0
N4267 N 0.22946 0.57719 0.80755 0.0
C4268 C 0.23516 0.57991 0.78768 0.0
C4269 C 0.21907 0.58007 0.77285 0.0
C4270 C 0.42542 0.24894 0.74646 0.0
C4271 C 0.42643 0.22848 0.75327 0.0
C4272 C 0.42354 0.26533 0.76034 0.0
C4273 C 0.42394 0.26185 0.78158 0.0
H4274 H 0.42586 0.25232 0.73021 0.0
H4275 H 0.4221 0.28078 0.75444 0.0
S4276 S 0.43009 0.21143 0.8073 0.0
N4277 N 0.42954 0.20582 0.78257 0.0
N4278 N 0.42817 0.23664 0.80879 0.0
C4279 C 0.427 0.2416 0.78857 0.0
C4280 C 0.4278 0.22489 0.7744 0.0
C4281 C 0.74541 0.42307 0.76556 0.0
C4282 C 0.75256 0.42334 0.7859 0.0
C4283 C 0.75901 0.42443 0.74904 0.0
C4284 C 0.78004 0.42733 0.75245 0.0
H4285 H 0.72916 0.42195 0.76239 0.0
H4286 H 0.75303 0.42346 0.73355 0.0
S4287 S 0.8057 0.43365 0.80286 0.0
N4288 N 0.78146 0.42909 0.80862 0.0
N4289 N 0.80701 0.43347 0.77753 0.0
C4290 C 0.7871 0.42967 0.77271 0.0
C4291 C 0.77334 0.42729 0.7895 0.0
C4292 C 0.58195 0.2206 0.23464 0.0
C4293 C 0.58418 0.22394 0.25579 0.0
C4294 C 0.58062 0.23719 0.22108 0.0
C4295 C 0.58257 0.25742 0.22829 0.0
H4296 H 0.58135 0.20514 0.22859 0.0
H4297 H 0.5791 0.23418 0.2048 0.0
S4298 S 0.58155 0.27407 0.28248 0.0
N4299 N 0.58216 0.24877 0.28356 0.0
N4300 N 0.5825 0.27998 0.25786 0.0
C4301 C 0.58327 0.26093 0.24945 0.0
C4302 C 0.58343 0.24411 0.26328 0.0
C4303 C 0.75615 0.58201 0.26387 0.0
C4304 C 0.77661 0.58022 0.25717 0.0
C4305 C 0.73972 0.58196 0.24991 0.0
C4306 C 0.74315 0.57868 0.22891 0.0
H4307 H 0.7528 0.58357 0.28005 0.0
H4308 H 0.72428 0.58427 0.25559 0.0
S4309 S 0.79343 0.56758 0.20445 0.0
N4310 N 0.79913 0.57214 0.22872 0.0
N4311 N 0.76826 0.56983 0.20267 0.0
C4312 C 0.76336 0.57441 0.22241 0.0
C4313 C 0.78011 0.57561 0.23649 0.0
C4314 C 0.41927 0.74829 0.24928 0.0
C4315 C 0.42296 0.75183 0.22838 0.0
C4316 C 0.41784 0.76467 0.26301 0.0
C4317 C 0.41889 0.78504 0.25611 0.0
H4318 H 0.41766 0.73279 0.25504 0.0
H4319 H 0.41605 0.76136 0.27918 0.0
S4320 S 0.43142 0.80225 0.2035 0.0
N4321 N 0.43066 0.77699 0.2019 0.0
N4322 N 0.4262 0.80787 0.22766 0.0
C4323 C 0.42367 0.78875 0.2355 0.0
C4324 C 0.42609 0.77207 0.22163 0.0
C4325 C 0.24482 0.43176 0.22031 0.0
C4326 C 0.26524 0.42984 0.2272 0.0
C4327 C 0.22829 0.43036 0.23402 0.0
C4328 C 0.23169 0.42818 0.25516 0.0
H4329 H 0.24157 0.43306 0.20405 0.0
H4330 H 0.2128 0.43071 0.22802 0.0
S4331 S 0.28215 0.43155 0.28131 0.0
N4332 N 0.28793 0.43042 0.25665 0.0
N4333 N 0.25683 0.43072 0.28262 0.0
C4334 C 0.25201 0.42924 0.2624 0.0
C4335 C 0.26884 0.42942 0.24837 0.0
C4336 C 0.77254 0.58511 0.78824 0.0
C4337 C 0.75194 0.58559 0.78179 0.0
C4338 C 0.78854 0.5874 0.77401 0.0
C4339 C 0.78432 0.58924 0.75296 0.0
H4340 H 0.77622 0.58404 0.80442 0.0
H4341 H 0.80422 0.58787 0.77947 0.0
S4342 S 0.73344 0.58322 0.72823 0.0
N4343 N 0.72841 0.58386 0.75305 0.0
N4344 N 0.7586 0.58548 0.7262 0.0
C4345 C 0.76394 0.58712 0.74628 0.0
C4346 C 0.74767 0.58591 0.76076 0.0
C4347 C 0.42352 0.76243 0.74292 0.0
C4348 C 0.4241 0.78281 0.74979 0.0
C4349 C 0.42367 0.74613 0.75684 0.0
C4350 C 0.42566 0.74983 0.77794 0.0
H4351 H 0.42312 0.75903 0.72667 0.0
H4352 H 0.42256 0.73059 0.75107 0.0
S4353 S 0.43204 0.80034 0.8032 0.0
N4354 N 0.42892 0.80582 0.77865 0.0
N4355 N 0.43109 0.77508 0.80487 0.0
C4356 C 0.42819 0.77007 0.78484 0.0
C4357 C 0.42703 0.78665 0.77072 0.0
C4358 C 0.23157 0.4268 0.78116 0.0
C4359 C 0.25286 0.4271 0.77823 0.0
C4360 C 0.21817 0.42707 0.76429 0.0
C4361 C 0.22569 0.42649 0.74399 0.0
H4362 H 0.22525 0.42611 0.79652 0.0
H4363 H 0.2018 0.42668 0.76713 0.0
S4364 S 0.27964 0.4341 0.72847 0.0
N4365 N 0.28046 0.43285 0.7538 0.0
N4366 N 0.25539 0.4306 0.72205 0.0
C4367 C 0.24684 0.42833 0.74093 0.0
C4368 C 0.2604 0.42927 0.7581 0.0
C4369 C 0.5817 0.23801 0.78665 0.0
C4370 C 0.58341 0.25823 0.77931 0.0
C4371 C 0.58423 0.22126 0.77338 0.0
C4372 C 0.5875 0.22433 0.75231 0.0
H4373 H 0.57958 0.23515 0.80289 0.0
H4374 H 0.58381 0.20588 0.77963 0.0
S4375 S 0.58451 0.27406 0.72488 0.0
N4376 N 0.58404 0.28032 0.74943 0.0
N4377 N 0.586 0.24879 0.72418 0.0
C4378 C 0.58642 0.24441 0.74455 0.0
C4379 C 0.585 0.26143 0.75815 0.0
C4380 C 0.75858 0.42003 0.26251 0.0
C4381 C 0.7795 0.42378 0.25935 0.0
C4382 C 0.74505 0.41927 0.24589 0.0
C4383 C 0.75222 0.42098 0.22564 0.0
H4384 H 0.75262 0.41794 0.2779 0.0
H4385 H 0.72884 0.41749 0.24893 0.0
S4386 S 0.80493 0.43432 0.20953 0.0
N4387 N 0.80623 0.43254 0.23479 0.0
N4388 N 0.7809 0.42919 0.20341 0.0
C4389 C 0.77285 0.42586 0.22235 0.0
C4390 C 0.78649 0.42765 0.23929 0.0
C4391 C 0.57901 0.78486 0.23746 0.0
C4392 C 0.57913 0.77758 0.25776 0.0
C4393 C 0.58148 0.77131 0.22096 0.0
C4394 C 0.58314 0.75015 0.2244 0.0
H4395 H 0.57801 0.80115 0.23441 0.0
H4396 H 0.58215 0.77738 0.2055 0.0
S4397 S 0.57606 0.72347 0.27414 0.0
N4398 N 0.57683 0.74803 0.28018 0.0
N4399 N 0.57873 0.72242 0.24894 0.0
C4400 C 0.58065 0.74265 0.24445 0.0
C4401 C 0.57927 0.75645 0.26125 0.0
C4402 C 0.23736 0.58325 0.22005 0.0
C4403 C 0.25801 0.58338 0.22625 0.0
C4404 C 0.2216 0.58284 0.2346 0.0
C4405 C 0.22628 0.58235 0.25558 0.0
H4406 H 0.23341 0.58403 0.20391 0.0
H4407 H 0.2058 0.58337 0.2295 0.0
S4408 S 0.27767 0.57721 0.27918 0.0
N4409 N 0.28216 0.57915 0.2543 0.0
N4410 N 0.25253 0.57881 0.2818 0.0
C4411 C 0.24679 0.5811 0.26187 0.0
C4412 C 0.26274 0.58147 0.2471 0.0
C4413 C 0.42219 0.25031 0.26217 0.0
C4414 C 0.42464 0.22922 0.25891 0.0
C4415 C 0.42166 0.26386 0.24555 0.0
C4416 C 0.42243 0.25657 0.22527 0.0
H4417 H 0.42082 0.25635 0.27761 0.0
H4418 H 0.42074 0.28014 0.24859 0.0
S4419 S 0.43082 0.20296 0.20878 0.0
N4420 N 0.43027 0.20187 0.23411 0.0
N4421 N 0.42753 0.22734 0.20281 0.0
C4422 C 0.42585 0.23568 0.22186 0.0
C4423 C 0.4274 0.22198 0.23875 0.0
C4424 C 0.77927 0.77394 0.5778 0.0
C4425 C 0.7762 0.7527 0.57886 0.0
C4426 C 0.76248 0.78743 0.5773 0.0
C4427 C 0.74218 0.78015 0.57919 0.0
H4428 H 0.79467 0.78017 0.57763 0.0
H4429 H 0.76542 0.80375 0.5765 0.0
S4430 S 0.72606 0.72606 0.57481 0.0
N4431 N 0.75139 0.72509 0.57523 0.0
N4432 N 0.71995 0.75048 0.57741 0.0
C4433 C 0.73893 0.75897 0.57861 0.0
C4434 C 0.75596 0.74524 0.57775 0.0
C4435 C 0.78385 0.23494 0.42549 0.0
C4436 C 0.78016 0.25601 0.42345 0.0
C4437 C 0.76749 0.22111 0.4268 0.0
C4438 C 0.74712 0.22798 0.42499 0.0
H4439 H 0.79942 0.22914 0.42596 0.0
H4440 H 0.77079 0.20489 0.42809 0.0
S4441 S 0.7296 0.28179 0.42665 0.0
N4442 N 0.75489 0.2833 0.42588 0.0
N4443 N 0.72408 0.25712 0.4255 0.0
C4444 C 0.74326 0.24905 0.42452 0.0
C4445 C 0.75987 0.26315 0.42438 0.0
C4446 C 0.76375 0.74799 0.41966 0.0
C4447 C 0.78405 0.7553 0.4196 0.0
C4448 C 0.74705 0.76147 0.41965 0.0
C4449 C 0.75014 0.78269 0.4209 0.0
H4450 H 0.76074 0.73169 0.41969 0.0
H4451 H 0.73165 0.75525 0.419 0.0
S4452 S 0.8002 0.80941 0.42471 0.0
N4453 N 0.80632 0.78492 0.42261 0.0
N4454 N 0.77487 0.81037 0.42454 0.0
C4455 C 0.77032 0.79012 0.42277 0.0
C4456 C 0.78733 0.7764 0.42173 0.0
C4457 C 0.22199 0.76417 0.43154 0.0
C4458 C 0.22878 0.74372 0.42964 0.0
C4459 C 0.23587 0.78062 0.43069 0.0
C4460 C 0.25704 0.77707 0.4292 0.0
H4461 H 0.20573 0.7675 0.43241 0.0
H4462 H 0.23 0.79615 0.4309 0.0
S4463 S 0.2826 0.72641 0.43326 0.0
N4464 N 0.25799 0.72084 0.43112 0.0
N4465 N 0.28414 0.7517 0.43263 0.0
C4466 C 0.26405 0.7567 0.43039 0.0
C4467 C 0.24991 0.73999 0.42992 0.0
C4468 C 0.23257 0.21985 0.4221 0.0
C4469 C 0.25372 0.22367 0.4216 0.0
C4470 C 0.21859 0.23616 0.42191 0.0
C4471 C 0.22549 0.25652 0.4201 0.0
H4472 H 0.22685 0.20427 0.42247 0.0
H4473 H 0.20231 0.23281 0.4222 0.0
S4474 S 0.27898 0.27445 0.4252 0.0
N4475 N 0.28066 0.24918 0.42522 0.0
N4476 N 0.25442 0.27976 0.42211 0.0
C4477 C 0.24652 0.26051 0.42106 0.0
C4478 C 0.26066 0.24402 0.42244 0.0
C4479 C 0.24829 0.25723 0.58526 0.0
C4480 C 0.22737 0.25364 0.58184 0.0
C4481 C 0.26204 0.24086 0.58684 0.0
C4482 C 0.25514 0.22046 0.58628 0.0
H4483 H 0.25407 0.27275 0.5865 0.0
H4484 H 0.27821 0.24421 0.58843 0.0
S4485 S 0.20235 0.20307 0.57488 0.0
N4486 N 0.2008 0.22835 0.57505 0.0
N4487 N 0.22657 0.19752 0.57987 0.0
C4488 C 0.23448 0.21669 0.58183 0.0
C4489 C 0.22059 0.23334 0.57922 0.0
C4490 C 0.75974 0.26415 0.58283 0.0
C4491 C 0.78104 0.26117 0.58215 0.0
C4492 C 0.74625 0.24737 0.58198 0.0
C4493 C 0.75355 0.22705 0.58173 0.0
H4494 H 0.75349 0.27951 0.5837 0.0
H4495 H 0.72993 0.25033 0.58173 0.0
S4496 S 0.80785 0.21115 0.5777 0.0
N4497 N 0.80876 0.23644 0.57853 0.0
N4498 N 0.78331 0.20498 0.57897 0.0
C4499 C 0.77472 0.22391 0.58009 0.0
C4500 C 0.78846 0.24098 0.57989 0.0
C4501 C 0.23749 0.78734 0.58373 0.0
C4502 C 0.25809 0.78104 0.58505 0.0
C4503 C 0.22151 0.77299 0.58486 0.0
C4504 C 0.2258 0.75197 0.58629 0.0
H4505 H 0.23372 0.8035 0.58289 0.0
H4506 H 0.20578 0.77835 0.5848 0.0
S4507 S 0.27706 0.72776 0.58191 0.0
N4508 N 0.28189 0.75255 0.58355 0.0
N4509 N 0.25184 0.72552 0.58295 0.0
C4510 C 0.24629 0.74548 0.58494 0.0
C4511 C 0.26251 0.76006 0.58494 0.0
C4512 C 0.01359 0.17927 0.30546 0.0
C4513 C 0.02459 0.18212 0.32389 0.0
C4514 C 0.99202 0.18003 0.30494 0.0
C4515 C 0.98041 0.18367 0.32281 0.0
H4516 H 0.02169 0.17751 0.29106 0.0
H4517 H 0.98449 0.17881 0.29017 0.0
S4518 S 1.0015 0.18914 0.37553 0.0
N4519 N 0.02197 0.18648 0.36086 0.0
N4520 N 0.9816 0.18787 0.35991 0.0
C4521 C 0.99113 0.18504 0.34157 0.0
C4522 C 0.01313 0.18427 0.3421 0.0
C4523 C 0.81474 0.99306 0.34045 0.0
C4524 C 0.81819 0.98232 0.32198 0.0
C4525 C 0.8142 0.01464 0.34104 0.0
C4526 C 0.81709 0.0265 0.32319 0.0
H4527 H 0.81138 0.98477 0.35445 0.0
H4528 H 0.81044 0.022 0.35545 0.0
S4529 S 0.82949 0.00606 0.27139 0.0
N4530 N 0.82668 0.98541 0.28576 0.0
N4531 N 0.8257 0.02575 0.28685 0.0
C4532 C 0.82199 0.01599 0.3049 0.0
C4533 C 0.82252 0.99401 0.3043 0.0
C4534 C 0.99854 0.8198 0.34308 0.0
C4535 C 0.98763 0.82497 0.32513 0.0
C4536 C 0.02015 0.81887 0.34329 0.0
C4537 C 0.03185 0.82297 0.32554 0.0
H4538 H 0.99034 0.8153 0.35681 0.0
H4539 H 0.02764 0.81369 0.35719 0.0
S4540 S 0.01101 0.8403 0.27539 0.0
N4541 N 0.99049 0.83666 0.28977 0.0
N4542 N 0.03082 0.83474 0.29016 0.0
C4543 C 0.0212 0.82965 0.30794 0.0
C4544 C 0.99921 0.8307 0.30775 0.0
C4545 C 0.19401 0.0113 0.33799 0.0
C4546 C 0.1896 0.02226 0.31988 0.0
C4547 C 0.1947 0.98975 0.33816 0.0
C4548 C 0.19103 0.97823 0.32024 0.0
H4549 H 0.19817 0.01939 0.3519 0.0
H4550 H 0.19939 0.98218 0.35219 0.0
S4551 S 0.17524 0.99934 0.26969 0.0
N4552 N 0.17881 0.01976 0.28422 0.0
N4553 N 0.18012 0.97943 0.28454 0.0
C4554 C 0.18488 0.98894 0.30249 0.0
C4555 C 0.18416 0.01089 0.30231 0.0
C4556 C 0.01312 0.82132 0.70367 0.0
C4557 C 0.02489 0.81851 0.68575 0.0
C4558 C 0.99158 0.82069 0.70317 0.0
C4559 C 0.9808 0.81723 0.68474 0.0
H4560 H 0.02057 0.82282 0.71845 0.0
H4561 H 0.98341 0.82178 0.71761 0.0
S4562 S 0.00417 0.8125 0.63297 0.0
N4563 N 0.02396 0.8148 0.6486 0.0
N4564 N 0.98359 0.8136 0.64769 0.0
C4565 C 0.9923 0.81611 0.66647 0.0
C4566 C 0.01428 0.81676 0.66697 0.0
C4567 C 0.18366 0.01194 0.66727 0.0
C4568 C 0.17865 0.02323 0.68505 0.0
C4569 C 0.1856 0.99045 0.66771 0.0
C4570 C 0.18264 0.97923 0.68596 0.0
H4571 H 0.18727 0.01982 0.65309 0.0
H4572 H 0.19055 0.98272 0.65385 0.0
S4573 S 0.16622 1.00099 0.73605 0.0
N4574 N 0.16845 0.02114 0.72089 0.0
N4575 N 0.17209 0.98095 0.72173 0.0
C4576 C 0.17612 0.99015 0.70346 0.0
C4577 C 0.17411 0.01205 0.703 0.0
C4578 C 0.98854 0.19283 0.66598 0.0
C4579 C 0.97771 0.18886 0.68432 0.0
C4580 C 0.01014 0.19448 0.66562 0.0
C4581 C 0.02206 0.19224 0.68357 0.0
H4582 H 0.98022 0.19564 0.65187 0.0
H4583 H 0.01747 0.19839 0.65123 0.0
S4584 S 1.00162 0.17955 0.73529 0.0
N4585 N 0.98099 0.18108 0.72068 0.0
N4586 N 0.02126 0.18415 0.72 0.0
C4587 C 0.01153 0.18713 0.70179 0.0
C4588 C 0.98952 0.18545 0.70216 0.0
C4589 C 0.81695 0.00904 0.70312 0.0
C4590 C 0.81568 0.02092 0.68506 0.0
C4591 C 0.81708 0.9874 0.70251 0.0
C4592 C 0.81598 0.97653 0.6838 0.0
H4593 H 0.81679 0.01647 0.71799 0.0
H4594 H 0.81703 0.97915 0.71694 0.0
S4595 S 0.8153 1.00021 0.63192 0.0
N4596 N 0.81542 0.01996 0.64776 0.0
N4597 N 0.81571 0.97959 0.6466 0.0
C4598 C 0.81607 0.98823 0.66558 0.0
C4599 C 0.81591 0.01027 0.66621 0.0
C4600 C 0.34436 0.99547 0.18528 0.0
C4601 C 0.32613 0.98487 0.18046 0.0
C4602 C 0.34474 0.01695 0.18716 0.0
C4603 C 0.32692 0.0288 0.18428 0.0
H4604 H 0.35824 0.98708 0.18883 0.0
H4605 H 0.35889 0.02417 0.19203 0.0
S4606 S 0.27598 0.0089 0.16816 0.0
N4607 N 0.29037 0.9882 0.17041 0.0
N4608 N 0.29107 0.02841 0.17385 0.0
C4609 C 0.309 0.01854 0.17783 0.0
C4610 C 0.30861 0.99665 0.17593 0.0
C4611 C 0.99121 0.34102 0.19466 0.0
C4612 C 0.97958 0.32309 0.19127 0.0
C4613 C 0.01283 0.34068 0.19486 0.0
C4614 C 0.02391 0.32238 0.19171 0.0
H4615 H 0.98358 0.35533 0.19821 0.0
H4616 H 0.02086 0.35473 0.19858 0.0
S4617 S 1.00102 0.27167 0.17939 0.0
N4618 N 0.98103 0.28687 0.18258 0.0
N4619 N 0.02143 0.28622 0.18296 0.0
C4620 C 0.01251 0.30463 0.18691 0.0
C4621 C 0.99047 0.30498 0.18669 0.0
C4622 C 0.66641 0.98931 0.19247 0.0
C4623 C 0.68423 0.9772 0.19062 0.0
C4624 C 0.66719 0.01088 0.19122 0.0
C4625 C 0.68583 0.0214 0.18804 0.0
H4626 H 0.65181 0.98217 0.19589 0.0
H4627 H 0.65315 0.01938 0.19376 0.0
S4628 S 0.7366 0.99689 0.17969 0.0
N4629 N 0.72086 0.97745 0.18352 0.0
N4630 N 0.72231 0.01772 0.18117 0.0
C4631 C 0.70355 0.00942 0.18484 0.0
C4632 C 0.70276 0.98745 0.18614 0.0
C4633 C 0.01405 0.66646 0.19482 0.0
C4634 C 0.02497 0.68462 0.19057 0.0
C4635 C 0.99248 0.66606 0.19488 0.0
C4636 C 0.98092 0.68378 0.19063 0.0
H4637 H 0.02215 0.65269 0.19933 0.0
H4638 H 0.98489 0.65202 0.19947 0.0
S4639 S 1.00204 0.73432 0.17497 0.0
N4640 N 0.0225 0.72008 0.17938 0.0
N4641 N 0.98213 0.71933 0.17935 0.0
C4642 C 0.99166 0.70157 0.18464 0.0
C4643 C 0.01361 0.70199 0.18465 0.0
C4644 C 0.30364 0.99148 0.81922 0.0
C4645 C 0.32212 0.98027 0.81895 0.0
C4646 C 0.30352 0.013 0.81768 0.0
C4647 C 0.32186 0.0243 0.81575 0.0
H4648 H 0.28905 0.98354 0.81939 0.0
H4649 H 0.28882 0.02069 0.81679 0.0
S4650 S 0.3745 1.0027 0.81786 0.0
N4651 N 0.35937 0.98247 0.81934 0.0
N4652 N 0.3591 0.02273 0.81635 0.0
C4653 C 0.34046 0.01343 0.81712 0.0
C4654 C 0.3406 0.99151 0.81876 0.0
C4655 C 0.01584 0.30609 0.81855 0.0
C4656 C 0.0277 0.32417 0.81716 0.0
C4657 C 0.9942 0.30639 0.81708 0.0
C4658 C 0.98321 0.3248 0.81416 0.0
H4659 H 0.02336 0.29135 0.81989 0.0
H4660 H 0.98611 0.2919 0.81741 0.0
S4661 S 0.00652 0.37677 0.81175 0.0
N4662 N 0.02638 0.36128 0.81432 0.0
N4663 N 0.98604 0.36188 0.81166 0.0
C4664 C 0.99479 0.34311 0.81387 0.0
C4665 C 0.01685 0.34279 0.81534 0.0
C4666 C 0.67078 0.01137 0.82492 0.0
C4667 C 0.6885 0.02307 0.82894 0.0
C4668 C 0.67157 0.98985 0.82356 0.0
C4669 C 0.69011 0.97902 0.82612 0.0
H4670 H 0.65635 0.01892 0.82164 0.0
H4671 H 0.65767 0.98178 0.81938 0.0
S4672 S 0.74033 1.00205 0.83996 0.0
N4673 N 0.72474 0.02186 0.83783 0.0
N4674 N 0.72619 0.98161 0.83519 0.0
C4675 C 0.70762 0.99039 0.83167 0.0
C4676 C 0.70682 0.01232 0.83311 0.0
C4677 C 0.99551 0.69641 0.83246 0.0
C4678 C 0.98345 0.68026 0.82468 0.0
C4679 C 0.01706 0.69585 0.83133 0.0
C4680 C 0.02738 0.67912 0.82239 0.0
H4681 H 0.98826 0.71004 0.83858 0.0
H4682 H 0.02562 0.70905 0.83665 0.0
S4683 S 1.00299 0.63243 0.80059 0.0
N4684 N 0.98362 0.64657 0.80861 0.0
N4685 N 0.02379 0.64553 0.80649 0.0
C4686 C 0.01552 0.66237 0.8156 0.0
C4687 C 0.99365 0.66294 0.81675 0.0
C4688 C 0.18938 0.30449 0.01906 0.0
C4689 C 0.19035 0.32309 0.03011 0.0
C4690 C 0.18993 0.30401 0.99739 0.0
C4691 C 0.19149 0.32211 0.98564 0.0
H4692 H 0.18918 0.29002 0.0272 0.0
H4693 H 0.19012 0.28921 0.98986 0.0
S4694 S 0.19186 0.37504 0.00679 0.0
N4695 N 0.19096 0.36024 0.02732 0.0
N4696 N 0.19198 0.35936 0.98689 0.0
C4697 C 0.19118 0.34087 0.99645 0.0
C4698 C 0.19061 0.34135 0.01852 0.0
C4699 C 0.18245 0.7004 0.9955 0.0
C4700 C 0.18695 0.68248 0.98431 0.0
C4701 C 0.18231 0.70049 0.01706 0.0
C4702 C 0.18673 0.68268 0.0285 0.0
H4703 H 0.18001 0.7148 0.98758 0.0
H4704 H 0.17978 0.71498 0.02477 0.0
S4705 S 0.19651 0.63099 0.00675 0.0
N4706 N 0.19363 0.64584 0.98643 0.0
N4707 N 0.19348 0.64607 0.02688 0.0
C4708 C 0.18974 0.66431 0.01755 0.0
C4709 C 0.18983 0.6642 0.99551 0.0
C4710 C 0.3055 0.18215 0.01177 0.0
C4711 C 0.32334 0.18612 0.02333 0.0
C4712 C 0.30602 0.18084 0.99018 0.0
C4713 C 0.32441 0.18343 0.97905 0.0
H4714 H 0.29076 0.181 0.01936 0.0
H4715 H 0.29163 0.17879 0.98212 0.0
S4716 S 0.37594 0.19152 1.00199 0.0
N4717 N 0.36036 0.19063 0.02194 0.0
N4718 N 0.3613 0.18821 0.98158 0.0
C4719 C 0.34258 0.18607 0.99049 0.0
C4720 C 0.34205 0.1874 0.0125 0.0
C4721 C 0.82627 0.29868 0.99244 0.0
C4722 C 0.8251 0.31716 0.98127 0.0
C4723 C 0.82535 0.29842 0.01404 0.0
C4724 C 0.8232 0.31663 0.02549 0.0
H4725 H 0.82676 0.28413 0.98444 0.0
H4726 H 0.82521 0.2837 0.02171 0.0
S4727 S 0.82257 0.36936 0.00396 0.0
N4728 N 0.82405 0.35435 0.9836 0.0
N4729 N 0.82231 0.35387 0.02399 0.0
C4730 C 0.82355 0.33531 0.01461 0.0
C4731 C 0.82451 0.33557 0.9926 0.0
C4732 C 0.66866 0.8142 0.01513 0.0
C4733 C 0.68743 0.81769 0.02536 0.0
C4734 C 0.66751 0.81313 0.99356 0.0
C4735 C 0.68506 0.81551 0.98118 0.0
H4736 H 0.65484 0.8112 0.02385 0.0
H4737 H 0.65288 0.80936 0.98664 0.0
S4738 S 0.73744 0.82787 1.00007 0.0
N4739 N 0.72359 0.82569 0.02117 0.0
N4740 N 0.72146 0.82378 0.98084 0.0
C4741 C 0.70364 0.82047 0.99114 0.0
C4742 C 0.70482 0.82153 0.01312 0.0
C4743 C 0.81474 0.66455 0.01928 0.0
C4744 C 0.81778 0.68239 0.03114 0.0
C4745 C 0.81483 0.66512 0.99764 0.0
C4746 C 0.81798 0.68355 0.98678 0.0
H4747 H 0.81127 0.65012 0.02672 0.0
H4748 H 0.81145 0.6511 0.98939 0.0
S4749 S 0.82927 0.73419 0.01039 0.0
N4750 N 0.82599 0.71874 0.03018 0.0
N4751 N 0.82619 0.7198 0.98977 0.0
C4752 C 0.82234 0.70125 0.99844 0.0
C4753 C 0.82224 0.70068 0.02049 0.0
C4754 C 0.30699 0.81661 0.01307 0.0
C4755 C 0.32548 0.8149 0.02416 0.0
C4756 C 0.30672 0.81673 0.99145 0.0
C4757 C 0.32494 0.81518 0.97991 0.0
H4758 H 0.29244 0.81677 0.02109 0.0
H4759 H 0.29198 0.81696 0.98379 0.0
S4760 S 0.3777 0.8136 1.00143 0.0
N4761 N 0.36268 0.81399 0.02182 0.0
N4762 N 0.36222 0.81429 0.98139 0.0
C4763 C 0.34363 0.81499 0.99081 0.0
C4764 C 0.34389 0.81482 0.01283 0.0
C4765 C 0.70012 0.19019 0.99425 0.0
C4766 C 0.6818 0.192 0.98287 0.0
C4767 C 0.69999 0.18918 0.01587 0.0
C4768 C 0.68152 0.18991 0.02713 0.0
H4769 H 0.7148 0.19063 0.98649 0.0
H4770 H 0.71458 0.18893 0.02381 0.0
S4771 S 0.62915 0.19148 0.00468 0.0
N4772 N 0.64455 0.19216 0.98458 0.0
N4773 N 0.64429 0.19025 0.02496 0.0
C4774 C 0.66305 0.19024 0.01587 0.0
C4775 C 0.66319 0.1913 0.99387 0.0
C4776 C 0.49284 0.68871 0.8372 0.0
C4777 C 0.48145 0.68451 0.8193 0.0
C4778 C 0.51441 0.68858 0.83707 0.0
C4779 C 0.52555 0.68428 0.81903 0.0
H4780 H 0.4851 0.69334 0.85116 0.0
H4781 H 0.52236 0.69312 0.85095 0.0
S4782 S 0.50314 0.66882 0.76895 0.0
N4783 N 0.48306 0.67328 0.78371 0.0
N4784 N 0.52343 0.67311 0.78348 0.0
C4785 C 0.51436 0.67838 0.8015 0.0
C4786 C 0.49239 0.67848 0.80163 0.0
C4787 C 0.31973 0.5154 0.8061 0.0
C4788 C 0.3177 0.52698 0.82425 0.0
C4789 C 0.31832 0.4939 0.80628 0.0
C4790 C 0.3148 0.48298 0.8246 0.0
H4791 H 0.32125 0.52301 0.7914 0.0
H4792 H 0.31888 0.48591 0.79171 0.0
S4793 S 0.31178 0.50569 0.8768 0.0
N4794 N 0.31456 0.52562 0.86144 0.0
N4795 N 0.31189 0.48533 0.86175 0.0
C4796 C 0.31439 0.49423 0.84306 0.0
C4797 C 0.31586 0.51617 0.84289 0.0
C4798 C 0.51268 0.3256 0.80349 0.0
C4799 C 0.52438 0.32227 0.82139 0.0
C4800 C 0.49107 0.32655 0.80407 0.0
C4801 C 0.48005 0.32418 0.82257 0.0
H4802 H 0.5202 0.32656 0.7887 0.0
H4803 H 0.48294 0.32815 0.78967 0.0
S4804 S 0.5033 0.31757 0.87421 0.0
N4805 N 0.52316 0.3185 0.85853 0.0
N4806 N 0.48281 0.3202 0.85957 0.0
C4807 C 0.4916 0.32211 0.84075 0.0
C4808 C 0.51362 0.32117 0.84017 0.0
C4809 C 0.69363 0.49298 0.84298 0.0
C4810 C 0.69045 0.4809 0.82532 0.0
C4811 C 0.69355 0.51458 0.84209 0.0
C4812 C 0.69029 0.52517 0.82349 0.0
H4813 H 0.69722 0.48575 0.85751 0.0
H4814 H 0.69704 0.52301 0.85599 0.0
S4815 S 0.67858 0.50091 0.77323 0.0
N4816 N 0.68193 0.48136 0.78896 0.0
N4817 N 0.68182 0.5217 0.78731 0.0
C4818 C 0.68578 0.51329 0.80597 0.0
C4819 C 0.68585 0.49129 0.80688 0.0
C4820 C 0.49162 0.32036 0.20311 0.0
C4821 C 0.48123 0.3185 0.18421 0.0
C4822 C 0.51316 0.32133 0.2041 0.0
C4823 C 0.52529 0.32053 0.18622 0.0
H4824 H 0.48315 0.31991 0.21741 0.0
H4825 H 0.52034 0.32153 0.21909 0.0
S4826 S 0.50559 0.31922 0.13271 0.0
N4827 N 0.48475 0.31847 0.14707 0.0
N4828 N 0.52506 0.32039 0.14887 0.0
C4829 C 0.51503 0.32033 0.16716 0.0
C4830 C 0.49309 0.31928 0.16617 0.0
C4831 C 0.68884 0.4888 0.16695 0.0
C4832 C 0.68697 0.47691 0.18489 0.0
C4833 C 0.68666 0.51026 0.16739 0.0
C4834 C 0.68248 0.52083 0.1858 0.0
H4835 H 0.69311 0.48166 0.15256 0.0
H4836 H 0.6894 0.51867 0.15333 0.0
S4837 S 0.67307 0.49666 0.23656 0.0
N4838 N 0.67834 0.47721 0.22123 0.0
N4839 N 0.67426 0.51737 0.22205 0.0
C4840 C 0.67901 0.50898 0.20356 0.0
C4841 C 0.68125 0.48711 0.20311 0.0
C4842 C 0.51566 0.68724 0.20234 0.0
C4843 C 0.52592 0.68895 0.18335 0.0
C4844 C 0.49413 0.68701 0.20352 0.0
C4845 C 0.48189 0.68846 0.18577 0.0
H4846 H 0.52427 0.68724 0.21656 0.0
H4847 H 0.48709 0.68688 0.21858 0.0
S4848 S 0.50111 0.68961 0.13207 0.0
N4849 N 0.5221 0.68948 0.14624 0.0
N4850 N 0.48176 0.68895 0.14841 0.0
C4851 C 0.49196 0.68848 0.1666 0.0
C4852 C 0.5139 0.68875 0.16541 0.0
C4853 C 0.32957 0.49655 0.19577 0.0
C4854 C 0.32426 0.48497 0.1783 0.0
C4855 C 0.32802 0.51803 0.19594 0.0
C4856 C 0.32112 0.52903 0.17864 0.0
H4857 H 0.33389 0.48894 0.2099 0.0
H4858 H 0.33131 0.52597 0.21017 0.0
S4859 S 0.30825 0.50639 0.12795 0.0
N4860 N 0.31404 0.48643 0.14241 0.0
N4861 N 0.31116 0.52673 0.14275 0.0
C4862 C 0.3173 0.51781 0.16055 0.0
C4863 C 0.31887 0.49584 0.16038 0.0
C4864 C 0.80389 0.52134 0.6895 0.0
C4865 C 0.82268 0.53207 0.69002 0.0
C4866 C 0.80315 0.49973 0.68941 0.0
C4867 C 0.82115 0.48775 0.68987 0.0
H4868 H 0.78954 0.52966 0.69016 0.0
H4869 H 0.78826 0.4924 0.69001 0.0
S4870 S 0.87436 0.5081 0.68845 0.0
N4871 N 0.85981 0.52882 0.68885 0.0
N4872 N 0.85841 0.48844 0.68873 0.0
C4873 C 0.84004 0.49826 0.68908 0.0
C4874 C 0.8408 0.52029 0.68913 0.0
C4875 C 0.51476 0.84533 0.69408 0.0
C4876 C 0.52631 0.8274 0.6907 0.0
C4877 C 0.49322 0.84516 0.69316 0.0
C4878 C 0.48223 0.82705 0.68884 0.0
H4879 H 0.52232 0.85941 0.69859 0.0
H4880 H 0.48513 0.85913 0.69705 0.0
S4881 S 0.50523 0.7767 0.67548 0.0
N4882 N 0.52513 0.79158 0.68031 0.0
N4883 N 0.48477 0.79127 0.67865 0.0
C4884 C 0.49364 0.80942 0.68379 0.0
C4885 C 0.51561 0.80959 0.68471 0.0
C4886 C 0.19963 0.51463 0.68241 0.0
C4887 C 0.18156 0.5259 0.68596 0.0
C4888 C 0.19935 0.49311 0.68094 0.0
C4889 C 0.18101 0.48178 0.68307 0.0
H4890 H 0.21431 0.52237 0.68178 0.0
H4891 H 0.21389 0.48525 0.67927 0.0
S4892 S 0.12901 0.50399 0.68945 0.0
N4893 N 0.14439 0.5241 0.68914 0.0
N4894 N 0.14399 0.48379 0.68662 0.0
C4895 C 0.16265 0.49293 0.68514 0.0
C4896 C 0.1629 0.5149 0.68653 0.0
C4897 C 0.49715 0.2024 0.69096 0.0
C4898 C 0.48523 0.18436 0.69209 0.0
C4899 C 0.51884 0.20181 0.69101 0.0
C4900 C 0.52977 0.18315 0.69217 0.0
H4901 H 0.48971 0.21724 0.69098 0.0
H4902 H 0.52708 0.21623 0.69105 0.0
S4903 S 0.50608 0.13133 0.69299 0.0
N4904 N 0.48629 0.14712 0.69259 0.0
N4905 N 0.52669 0.14602 0.69268 0.0
C4906 C 0.51804 0.16496 0.69212 0.0
C4907 C 0.49596 0.16556 0.69208 0.0
C4908 C 0.80113 0.49413 0.32412 0.0
C4909 C 0.81936 0.48259 0.32298 0.0
C4910 C 0.80137 0.51572 0.32342 0.0
C4911 C 0.81985 0.5268 0.32152 0.0
H4912 H 0.7864 0.48646 0.32443 0.0
H4913 H 0.7868 0.52368 0.32324 0.0
S4914 S 0.8721 0.50412 0.32118 0.0
N4915 N 0.85664 0.48412 0.3223 0.0
N4916 N 0.85706 0.52448 0.32094 0.0
C4917 C 0.83828 0.51551 0.32191 0.0
C4918 C 0.83804 0.49351 0.32265 0.0
C4919 C 0.50798 0.80265 0.32157 0.0
C4920 C 0.52025 0.82041 0.32063 0.0
C4921 C 0.48641 0.80379 0.32119 0.0
C4922 C 0.4761 0.82275 0.31987 0.0
H4923 H 0.51504 0.78763 0.32146 0.0
H4924 H 0.47782 0.78959 0.32083 0.0
S4925 S 0.50095 0.87399 0.32029 0.0
N4926 N 0.52031 0.85769 0.32075 0.0
N4927 N 0.47997 0.85983 0.32006 0.0
C4928 C 0.48816 0.84068 0.32047 0.0
C4929 C 0.51013 0.83951 0.32084 0.0
C4930 C 0.20407 0.49303 0.31969 0.0
C4931 C 0.1857 0.48177 0.31786 0.0
C4932 C 0.20404 0.51459 0.3203 0.0
C4933 C 0.18563 0.52583 0.31918 0.0
H4934 H 0.21874 0.48525 0.31936 0.0
H4935 H 0.21867 0.52245 0.32038 0.0
S4936 S 0.13314 0.50365 0.31817 0.0
N4937 N 0.14846 0.4835 0.31778 0.0
N4938 N 0.14835 0.52386 0.31906 0.0
C4939 C 0.16708 0.51471 0.3192 0.0
C4940 C 0.16712 0.49275 0.31851 0.0
C4941 C 0.51344 0.16622 0.31483 0.0
C4942 C 0.52583 0.18367 0.31798 0.0
C4943 C 0.49186 0.16723 0.31609 0.0
C4944 C 0.48158 0.18573 0.32058 0.0
H4945 H 0.52038 0.15182 0.31035 0.0
H4946 H 0.48316 0.15355 0.31248 0.0
S4947 S 0.50685 0.23532 0.33278 0.0
N4948 N 0.52609 0.21964 0.32781 0.0
N4949 N 0.4858 0.22151 0.33017 0.0
C4950 C 0.49384 0.20297 0.32509 0.0
C4951 C 0.51583 0.20195 0.32379 0.0
C4952 C 0.68006 0.80395 0.48966 0.0
C4953 C 0.68308 0.82214 0.4784 0.0
C4954 C 0.67851 0.80416 0.51118 0.0
C4955 C 0.67997 0.82257 0.52241 0.0
H4956 H 0.67998 0.78925 0.48192 0.0
H4957 H 0.67742 0.7896 0.51908 0.0
S4958 S 0.68441 0.87477 0.50014 0.0
N4959 N 0.68484 0.85936 0.48005 0.0
N4960 N 0.68201 0.85973 0.52037 0.0
C4961 C 0.68132 0.84101 0.51125 0.0
C4962 C 0.68287 0.8408 0.48931 0.0
C4963 C 0.69071 0.16693 0.49312 0.0
C4964 C 0.68589 0.18514 0.48248 0.0
C4965 C 0.69215 0.16646 0.5147 0.0
C4966 C 0.68884 0.18418 0.52664 0.0
H4967 H 0.69455 0.15314 0.4847 0.0
H4968 H 0.69701 0.15234 0.52194 0.0
S4969 S 0.67261 0.23499 0.50662 0.0
N4970 N 0.67543 0.22075 0.48587 0.0
N4971 N 0.67809 0.21988 0.52619 0.0
C4972 C 0.68247 0.20207 0.5163 0.0
C4973 C 0.681 0.20254 0.49432 0.0
C4974 C 0.80489 0.69152 0.5111 0.0
C4975 C 0.82289 0.69292 0.52306 0.0
C4976 C 0.80553 0.69188 0.48945 0.0
C4977 C 0.8242 0.69363 0.47862 0.0
H4978 H 0.79002 0.69115 0.5185 0.0
H4979 H 0.79112 0.69172 0.48118 0.0
S4980 S 0.87598 0.69508 0.50242 0.0
N4981 N 0.86015 0.69412 0.52217 0.0
N4982 N 0.86134 0.69476 0.48174 0.0
C4983 C 0.84239 0.69372 0.49035 0.0
C4984 C 0.84174 0.69338 0.51243 0.0
C4985 C 0.32265 0.80524 0.49447 0.0
C4986 C 0.3195 0.82341 0.48322 0.0
C4987 C 0.32303 0.80527 0.51602 0.0
C4988 C 0.32028 0.82349 0.52732 0.0
H4989 H 0.32366 0.79062 0.48665 0.0
H4990 H 0.32431 0.79069 0.52385 0.0
S4991 S 0.31508 0.87573 0.50527 0.0
N4992 N 0.31627 0.86051 0.48505 0.0
N4993 N 0.31699 0.86059 0.52548 0.0
C4994 C 0.31886 0.84199 0.51626 0.0
C4995 C 0.31847 0.84195 0.49426 0.0
C4996 C 0.16945 0.31651 0.48862 0.0
C4997 C 0.18752 0.31952 0.47712 0.0
C4998 C 0.16979 0.31568 0.51024 0.0
C4999 C 0.18821 0.31781 0.5214 0.0
H5000 H 0.15502 0.31372 0.48087 0.0
H5001 H 0.15559 0.31235 0.51818 0.0
S5002 S 0.23945 0.32857 0.49889 0.0
N5003 N 0.22412 0.32664 0.47882 0.0
N5004 N 0.22473 0.32505 0.51919 0.0
C5005 C 0.20616 0.32218 0.51016 0.0
C5006 C 0.20582 0.32304 0.48815 0.0
C5007 C 0.31362 0.16446 0.51617 0.0
C5008 C 0.31606 0.18257 0.52781 0.0
C5009 C 0.31281 0.16476 0.49447 0.0
C5010 C 0.31441 0.18317 0.48317 0.0
H5011 H 0.31146 0.14993 0.52389 0.0
H5012 H 0.31011 0.15042 0.48654 0.0
S5013 S 0.32281 0.23477 0.5059 0.0
N5014 N 0.32148 0.2194 0.52599 0.0
N5015 N 0.31998 0.21993 0.48556 0.0
C5016 C 0.31787 0.20127 0.49455 0.0
C5017 C 0.31869 0.20097 0.51668 0.0
C5018 C 0.84114 0.31582 0.49222 0.0
C5019 C 0.82333 0.31912 0.4804 0.0
C5020 C 0.84092 0.31766 0.51376 0.0
C5021 C 0.82288 0.32287 0.52449 0.0
H5022 H 0.85517 0.31073 0.48492 0.0
H5023 H 0.85477 0.31383 0.52211 0.0
S5024 S 0.77283 0.33609 0.50063 0.0
N5025 N 0.78769 0.33012 0.48101 0.0
N5026 N 0.78728 0.33356 0.52128 0.0
C5027 C 0.80536 0.32767 0.51274 0.0
C5028 C 0.80558 0.3258 0.4908 0.0
C5029 C 0.16644 0.69008 0.51808 0.0
C5030 C 0.18446 0.68712 0.52969 0.0
C5031 C 0.16643 0.68833 0.49652 0.0
C5032 C 0.18442 0.68345 0.48557 0.0
H5033 H 0.15241 0.69487 0.52557 0.0
H5034 H 0.15242 0.69191 0.48834 0.0
S5035 S 0.23505 0.67128 0.50882 0.0
N5036 N 0.22031 0.67691 0.52863 0.0
N5037 N 0.22029 0.67349 0.48836 0.0
C5038 C 0.20218 0.67896 0.49712 0.0
C5039 C 0.2022 0.68084 0.51906 0.0
C5040 C 0.14048 0.11927 0.31298 0.0
C5041 C 0.15937 0.12266 0.32295 0.0
C5042 C 0.1245 0.13393 0.31396 0.0
C5043 C 0.12693 0.15235 0.325 0.0
H5044 H 0.13873 0.1062 0.30287 0.0
H5045 H 0.11106 0.13174 0.30443 0.0
S5046 S 0.1728 0.16758 0.35503 0.0
N5047 N 0.1789 0.14501 0.34533 0.0
N5048 N 0.14916 0.17227 0.34721 0.0
C5049 C 0.14514 0.155 0.33627 0.0
C5050 C 0.16129 0.14025 0.33521 0.0
C5051 C 0.88034 0.13917 0.30679 0.0
C5052 C 0.87974 0.1554 0.32104 0.0
C5053 C 0.86511 0.12383 0.30668 0.0
C5054 C 0.84906 0.1239 0.32113 0.0
H5055 H 0.89157 0.1393 0.29455 0.0
H5056 H 0.86498 0.1128 0.29424 0.0
S5057 S 0.84143 0.16222 0.36245 0.0
N5058 N 0.86237 0.17002 0.3505 0.0
N5059 N 0.83427 0.1409 0.35076 0.0
C5060 C 0.84928 0.13913 0.33641 0.0
C5061 C 0.8645 0.15495 0.33625 0.0
C5062 C 0.86886 0.85234 0.33616 0.0
C5063 C 0.88615 0.85568 0.32362 0.0
C5064 C 0.85184 0.86559 0.33564 0.0
C5065 C 0.8515 0.88291 0.32279 0.0
H5066 H 0.86762 0.83826 0.34489 0.0
H5067 H 0.83824 0.86143 0.34424 0.0
S5068 S 0.89332 0.89935 0.28799 0.0
N5069 N 0.9022 0.8782 0.29876 0.0
N5070 N 0.87051 0.90344 0.29826 0.0
C5071 C 0.86929 0.88734 0.31141 0.0
C5072 C 0.88654 0.87366 0.31172 0.0
C5073 C 0.13676 0.85836 0.29539 0.0
C5074 C 0.13167 0.84878 0.31408 0.0
C5075 C 0.15176 0.87376 0.29429 0.0
C5076 C 0.16238 0.88048 0.31186 0.0
H5077 H 0.13 0.85311 0.28121 0.0
H5078 H 0.15608 0.87947 0.27928 0.0
S5079 S 0.15338 0.86208 0.36497 0.0
N5080 N 0.13723 0.84848 0.35092 0.0
N5081 N 0.1654 0.87759 0.3489 0.0
C5082 C 0.15624 0.87235 0.33094 0.0
C5083 C 0.14091 0.85648 0.33204 0.0
C5084 C 0.13914 0.88099 0.69365 0.0
C5085 C 0.15813 0.87733 0.68399 0.0
C5086 C 0.12375 0.86569 0.69424 0.0
C5087 C 0.12693 0.84635 0.68513 0.0
H5088 H 0.13689 0.89492 0.70242 0.0
H5089 H 0.11016 0.86835 0.70342 0.0
S5090 S 0.17309 0.83 0.65622 0.0
N5091 N 0.17839 0.85361 0.6637 0.0
N5092 N 0.14972 0.82518 0.66472 0.0
C5093 C 0.14517 0.84325 0.67408 0.0
C5094 C 0.1607 0.85866 0.67352 0.0
C5095 C 0.14947 0.1416 0.66929 0.0
C5096 C 0.14875 0.12529 0.68342 0.0
C5097 C 0.13462 0.15729 0.66947 0.0
C5098 C 0.11866 0.15754 0.68404 0.0
H5099 H 0.16255 0.14315 0.65916 0.0
H5100 H 0.13682 0.17035 0.65944 0.0
S5101 S 0.10902 0.11772 0.7234 0.0
N5102 N 0.1296 0.10944 0.71113 0.0
N5103 N 0.10242 0.13946 0.71217 0.0
C5104 C 0.11703 0.14069 0.69738 0.0
C5105 C 0.13188 0.12444 0.69687 0.0
C5106 C 0.8789 0.13897 0.69922 0.0
C5107 C 0.87501 0.15595 0.68636 0.0
C5108 C 0.86466 0.12265 0.70106 0.0
C5109 C 0.84628 0.12235 0.68964 0.0
H5110 H 0.89216 0.13913 0.70923 0.0
H5111 H 0.86742 0.11089 0.71246 0.0
S5112 S 0.82921 0.16262 0.65325 0.0
N5113 N 0.85155 0.17104 0.66176 0.0
N5114 N 0.82549 0.14024 0.6645 0.0
C5115 C 0.84292 0.13861 0.67584 0.0
C5116 C 0.85708 0.15539 0.67436 0.0
C5117 C 0.87278 0.85207 0.67363 0.0
C5118 C 0.88402 0.84919 0.69191 0.0
C5119 C 0.8569 0.86684 0.67235 0.0
C5120 C 0.85185 0.87944 0.68921 0.0
H5121 H 0.87485 0.84152 0.66095 0.0
H5122 H 0.8473 0.86703 0.65878 0.0
S5123 S 0.87865 0.88001 0.73942 0.0
N5124 N 0.89029 0.86167 0.7264 0.0
N5125 N 0.86117 0.88958 0.72379 0.0
C5126 C 0.86431 0.87795 0.70679 0.0
C5127 C 0.88019 0.86281 0.70819 0.0
C5128 C 0.30989 0.1399 0.12274 0.0
C5129 C 0.3237 0.15647 0.12395 0.0
C5130 C 0.30934 0.12464 0.13808 0.0
C5131 C 0.32295 0.12509 0.15485 0.0
H5132 H 0.29819 0.13974 0.11095 0.0
H5133 H 0.29721 0.1133 0.1376 0.0
S5134 S 0.36286 0.16441 0.16442 0.0
N5135 N 0.35182 0.17184 0.14283 0.0
N5136 N 0.35136 0.14283 0.17105 0.0
C5137 C 0.33785 0.14066 0.15531 0.0
C5138 C 0.3381 0.15641 0.14001 0.0
C5139 C 0.88296 0.3084 0.14081 0.0
C5140 C 0.88109 0.3216 0.15784 0.0
C5141 C 0.86758 0.30749 0.12554 0.0
C5142 C 0.84967 0.31948 0.12702 0.0
H5143 H 0.89545 0.29747 0.14021 0.0
H5144 H 0.86885 0.29602 0.11358 0.0
S5145 S 0.83754 0.35664 0.16819 0.0
N5146 N 0.86026 0.34743 0.17461 0.0
N5147 N 0.83141 0.3454 0.14634 0.0
C5148 C 0.84824 0.3335 0.14329 0.0
C5149 C 0.86393 0.33464 0.15858 0.0
C5150 C 0.69888 0.88083 0.14245 0.0
C5151 C 0.68541 0.87897 0.15927 0.0
C5152 C 0.69921 0.866 0.12661 0.0
C5153 C 0.68628 0.84869 0.12722 0.0
H5154 H 0.71033 0.89286 0.14238 0.0
H5155 H 0.71093 0.86711 0.11488 0.0
S5156 S 0.64829 0.83678 0.16765 0.0
N5157 N 0.65852 0.85874 0.17504 0.0
N5158 N 0.65936 0.83099 0.14563 0.0
C5159 C 0.67206 0.84735 0.14332 0.0
C5160 C 0.6716 0.86243 0.15925 0.0
C5161 C 0.13833 0.70267 0.12646 0.0
C5162 C 0.15461 0.68851 0.12692 0.0
C5163 C 0.12249 0.70196 0.14113 0.0
C5164 C 0.12235 0.687 0.15668 0.0
H5165 H 0.13872 0.71537 0.11577 0.0
H5166 H 0.11141 0.71433 0.14149 0.0
S5167 S 0.16096 0.64598 0.164 0.0
N5168 N 0.16909 0.6586 0.14357 0.0
N5169 N 0.13934 0.65719 0.171 0.0
C5170 C 0.13774 0.67192 0.15634 0.0
C5171 C 0.15389 0.6727 0.1415 0.0
C5172 C 0.33363 0.87179 0.85868 0.0
C5173 C 0.31567 0.88297 0.85408 0.0
C5174 C 0.33354 0.85584 0.87344 0.0
C5175 C 0.31547 0.85044 0.88407 0.0
H5176 H 0.34724 0.87396 0.84939 0.0
H5177 H 0.34712 0.84641 0.87503 0.0
S5178 S 0.26529 0.87682 0.87977 0.0
N5179 N 0.28013 0.88896 0.86321 0.0
N5180 N 0.27992 0.85919 0.89054 0.0
C5181 C 0.29804 0.86273 0.88088 0.0
C5182 C 0.29816 0.87892 0.86604 0.0
C5183 C 0.14262 0.30249 0.88417 0.0
C5184 C 0.15952 0.31595 0.88516 0.0
C5185 C 0.12788 0.30388 0.86825 0.0
C5186 C 0.12968 0.31844 0.85232 0.0
H5187 H 0.14149 0.28997 0.89502 0.0
H5188 H 0.11588 0.29243 0.86756 0.0
S5189 S 0.17119 0.35701 0.84756 0.0
N5190 N 0.17677 0.34462 0.86895 0.0
N5191 N 0.14976 0.34666 0.83884 0.0
C5192 C 0.14609 0.3324 0.85359 0.0
C5193 C 0.1608 0.33129 0.87 0.0
C5194 C 0.69956 0.14183 0.88835 0.0
C5195 C 0.68529 0.15797 0.88709 0.0
C5196 C 0.69921 0.12547 0.8742 0.0
C5197 C 0.68488 0.12493 0.85803 0.0
H5198 H 0.71205 0.1427 0.89928 0.0
H5199 H 0.71144 0.11426 0.87477 0.0
S5200 S 0.64388 0.16307 0.84848 0.0
N5201 N 0.65574 0.17171 0.86916 0.0
N5202 N 0.65554 0.14145 0.84227 0.0
C5203 C 0.66979 0.14029 0.85745 0.0
C5204 C 0.66991 0.15671 0.87203 0.0
C5205 C 0.88444 0.69407 0.87536 0.0
C5206 C 0.88311 0.68318 0.85673 0.0
C5207 C 0.86834 0.69345 0.88988 0.0
C5208 C 0.85032 0.68216 0.88604 0.0
H5209 H 0.89706 0.70458 0.87787 0.0
H5210 H 0.86916 0.70342 0.90316 0.0
S5211 S 0.83991 0.65023 0.84014 0.0
N5212 N 0.86298 0.65979 0.83599 0.0
N5213 N 0.83278 0.65897 0.86284 0.0
C5214 C 0.84954 0.67017 0.86814 0.0
C5215 C 0.86591 0.6706 0.8536 0.0
C5216 C 0.14378 0.29647 0.13231 0.0
C5217 C 0.15453 0.31469 0.12788 0.0
C5218 C 0.12799 0.29584 0.14707 0.0
C5219 C 0.12207 0.3134 0.15824 0.0
H5220 H 0.1487 0.28217 0.12545 0.0
H5221 H 0.12146 0.28107 0.15095 0.0
S5222 S 0.14441 0.3653 0.15178 0.0
N5223 N 0.1572 0.35107 0.13513 0.0
N5224 N 0.12757 0.34991 0.16282 0.0
C5225 C 0.1316 0.33206 0.15289 0.0
C5226 C 0.14779 0.3327 0.13777 0.0
C5227 C 0.13902 0.69811 0.88538 0.0
C5228 C 0.15493 0.68353 0.88484 0.0
C5229 C 0.12374 0.69855 0.8701 0.0
C5230 C 0.12352 0.68408 0.85406 0.0
H5231 H 0.13943 0.7104 0.89655 0.0
H5232 H 0.11303 0.71123 0.8699 0.0
S5233 S 0.16071 0.64176 0.84677 0.0
N5234 N 0.16878 0.65362 0.86768 0.0
N5235 N 0.13971 0.65393 0.83948 0.0
C5236 C 0.13829 0.66839 0.85443 0.0
C5237 C 0.15407 0.66823 0.8697 0.0
C5238 C 0.30893 0.1361 0.87826 0.0
C5239 C 0.32291 0.1525 0.87635 0.0
C5240 C 0.30653 0.12145 0.86244 0.0
C5241 C 0.3184 0.12237 0.84441 0.0
H5242 H 0.29845 0.13566 0.89115 0.0
H5243 H 0.29442 0.11015 0.86375 0.0
S5244 S 0.35787 0.16145 0.83239 0.0
N5245 N 0.34922 0.16817 0.85526 0.0
N5246 N 0.34533 0.14035 0.82612 0.0
C5247 C 0.3334 0.13779 0.84303 0.0
C5248 C 0.33554 0.15287 0.85887 0.0
C5249 C 0.86801 0.33471 0.84759 0.0
C5250 C 0.88491 0.32127 0.84818 0.0
C5251 C 0.85228 0.33375 0.86239 0.0
C5252 C 0.85299 0.31961 0.87869 0.0
H5253 H 0.8659 0.34469 0.83446 0.0
H5254 H 0.83877 0.3432 0.86027 0.0
S5255 S 0.89458 0.28206 0.88818 0.0
N5256 N 0.90173 0.29394 0.86695 0.0
N5257 N 0.87284 0.29293 0.89538 0.0
C5258 C 0.87057 0.30721 0.88039 0.0
C5259 C 0.88635 0.30783 0.865 0.0
C5260 C 0.70592 0.87709 0.86808 0.0
C5261 C 0.69 0.87917 0.85363 0.0
C5262 C 0.70533 0.86179 0.88329 0.0
C5263 C 0.68854 0.84834 0.88499 0.0
H5264 H 0.71965 0.88628 0.86672 0.0
H5265 H 0.7188 0.85943 0.89273 0.0
S5266 S 0.64176 0.8493 0.85268 0.0
N5267 N 0.65621 0.8678 0.84317 0.0
N5268 N 0.6547 0.83956 0.8722 0.0
C5269 C 0.67168 0.85161 0.87192 0.0
C5270 C 0.67249 0.86691 0.85614 0.0
C5271 C 0.85736 0.67092 0.14066 0.0
C5272 C 0.85236 0.68774 0.12802 0.0
C5273 C 0.8732 0.67222 0.15548 0.0
C5274 C 0.88444 0.69048 0.15835 0.0
H5275 H 0.84775 0.65737 0.14045 0.0
H5276 H 0.87524 0.65958 0.16607 0.0
S5277 S 0.87923 0.73783 0.12734 0.0
N5278 N 0.86173 0.72221 0.11777 0.0
N5279 N 0.89082 0.72485 0.14576 0.0
C5280 C 0.88067 0.70669 0.14465 0.0
C5281 C 0.86482 0.70528 0.12948 0.0
C5282 C 0.33904 0.85176 0.13428 0.0
C5283 C 0.32368 0.85145 0.1191 0.0
C5284 C 0.34026 0.86783 0.14865 0.0
C5285 C 0.32642 0.8844 0.14816 0.0
H5286 H 0.34885 0.83852 0.13636 0.0
H5287 H 0.35081 0.86629 0.16141 0.0
S5288 S 0.28522 0.89214 0.10975 0.0
N5289 N 0.29549 0.86988 0.10338 0.0
N5290 N 0.29853 0.90062 0.1296 0.0
C5291 C 0.3124 0.88524 0.13176 0.0
C5292 C 0.3108 0.86861 0.11746 0.0
C5293 C 0.70042 0.13873 0.12459 0.0
C5294 C 0.68537 0.15421 0.12457 0.0
C5295 C 0.70036 0.12304 0.13949 0.0
C5296 C 0.68557 0.12257 0.15526 0.0
H5297 H 0.71322 0.13967 0.11403 0.0
H5298 H 0.71302 0.11231 0.13971 0.0
S5299 S 0.64232 0.15876 0.16145 0.0
N5300 N 0.65448 0.1671 0.14082 0.0
N5301 N 0.65489 0.13818 0.16915 0.0
C5302 C 0.66976 0.13715 0.15459 0.0
C5303 C 0.66956 0.15283 0.13919 0.0
C5304 C 0.62525 0.63848 0.81169 0.0
C5305 C 0.62743 0.65761 0.82152 0.0
C5306 C 0.64064 0.62325 0.81331 0.0
C5307 C 0.65865 0.62671 0.82479 0.0
H5308 H 0.61254 0.63596 0.80129 0.0
H5309 H 0.63934 0.60959 0.80394 0.0
S5310 S 0.67067 0.67348 0.85487 0.0
N5311 N 0.64815 0.6784 0.84436 0.0
N5312 N 0.67677 0.65006 0.84741 0.0
C5313 C 0.66007 0.64514 0.83591 0.0
C5314 C 0.64458 0.66052 0.83424 0.0
C5315 C 0.3455 0.64797 0.83432 0.0
C5316 C 0.34742 0.62899 0.82423 0.0
C5317 C 0.36104 0.66282 0.83329 0.0
C5318 C 0.3792 0.65936 0.82215 0.0
H5319 H 0.33117 0.65201 0.84172 0.0
H5320 H 0.35814 0.67777 0.83996 0.0
S5321 S 0.39242 0.6118 0.79403 0.0
N5322 N 0.3695 0.60705 0.80379 0.0
N5323 N 0.39874 0.63508 0.80182 0.0
C5324 C 0.38201 0.63992 0.81325 0.0
C5325 C 0.36612 0.62469 0.81433 0.0
C5326 C 0.3788 0.37155 0.80815 0.0
C5327 C 0.37776 0.35541 0.82251 0.0
C5328 C 0.36314 0.38648 0.80682 0.0
C5329 C 0.34618 0.38623 0.82021 0.0
H5330 H 0.39079 0.37161 0.79666 0.0
H5331 H 0.3636 0.39743 0.79433 0.0
S5332 S 0.33687 0.34812 0.86136 0.0
N5333 N 0.35873 0.34072 0.85088 0.0
N5334 N 0.32997 0.36912 0.84899 0.0
C5335 C 0.34582 0.37112 0.8356 0.0
C5336 C 0.36145 0.35567 0.83663 0.0
C5337 C 0.62616 0.36796 0.80714 0.0
C5338 C 0.62575 0.35175 0.82143 0.0
C5339 C 0.64169 0.38307 0.80769 0.0
C5340 C 0.65716 0.38278 0.82279 0.0
H5341 H 0.61548 0.36801 0.79441 0.0
H5342 H 0.64251 0.39408 0.79528 0.0
S5343 S 0.66234 0.34417 0.86422 0.0
N5344 N 0.64172 0.33683 0.85146 0.0
N5345 N 0.6704 0.36534 0.85288 0.0
C5346 C 0.65601 0.36746 0.83795 0.0
C5347 C 0.64045 0.35195 0.83719 0.0
C5348 C 0.65877 0.36368 0.17253 0.0
C5349 C 0.65842 0.38011 0.18651 0.0
C5350 C 0.64334 0.34863 0.17263 0.0
C5351 C 0.62681 0.34965 0.18646 0.0
H5352 H 0.67203 0.36138 0.16278 0.0
H5353 H 0.64524 0.33525 0.16295 0.0
S5354 S 0.61778 0.39064 0.22479 0.0
N5355 N 0.63961 0.39719 0.21368 0.0
N5356 N 0.61007 0.36947 0.21318 0.0
C5357 C 0.62536 0.36695 0.19926 0.0
C5358 C 0.64134 0.38203 0.19949 0.0
C5359 C 0.63757 0.65485 0.17019 0.0
C5360 C 0.62157 0.65513 0.18469 0.0
C5361 C 0.65196 0.63878 0.16972 0.0
C5362 C 0.65072 0.6222 0.1835 0.0
H5363 H 0.64014 0.66808 0.16047 0.0
H5364 H 0.66521 0.64029 0.15979 0.0
S5365 S 0.61038 0.61457 0.22283 0.0
N5366 N 0.60448 0.63677 0.21213 0.0
N5367 N 0.63087 0.60608 0.21056 0.0
C5368 C 0.63368 0.62139 0.19673 0.0
C5369 C 0.6193 0.63801 0.19754 0.0
C5370 C 0.36594 0.65696 0.17348 0.0
C5371 C 0.3826 0.65745 0.18719 0.0
C5372 C 0.35162 0.64084 0.17388 0.0
C5373 C 0.35315 0.62493 0.18837 0.0
H5374 H 0.36307 0.66991 0.16347 0.0
H5375 H 0.33814 0.64196 0.1642 0.0
S5376 S 0.39474 0.61825 0.22648 0.0
N5377 N 0.40094 0.63951 0.21418 0.0
N5378 N 0.37327 0.60999 0.21584 0.0
C5379 C 0.3704 0.62457 0.20125 0.0
C5380 C 0.38534 0.64065 0.20041 0.0
C5381 C 0.38699 0.36794 0.19994 0.0
C5382 C 0.38643 0.35215 0.18526 0.0
C5383 C 0.37305 0.38439 0.19912 0.0
C5384 C 0.35775 0.3854 0.18389 0.0
H5385 H 0.39716 0.36672 0.21303 0.0
H5386 H 0.37302 0.39531 0.21163 0.0
S5387 S 0.35052 0.34842 0.14135 0.0
N5388 N 0.37035 0.3393 0.15425 0.0
N5389 N 0.34376 0.3698 0.15314 0.0
C5390 C 0.35804 0.37051 0.16831 0.0
C5391 C 0.37244 0.35394 0.16894 0.0
C5392 C 0.83141 0.65511 0.63288 0.0
C5393 C 0.81289 0.65874 0.62223 0.0
C5394 C 0.83256 0.64061 0.6491 0.0
C5395 C 0.81528 0.62907 0.65521 0.0
H5396 H 0.84454 0.66487 0.63002 0.0
H5397 H 0.84653 0.63978 0.65806 0.0
S5398 S 0.76405 0.63076 0.63048 0.0
N5399 N 0.77758 0.64798 0.61777 0.0
N5400 N 0.77983 0.62082 0.64762 0.0
C5401 C 0.79729 0.63138 0.64348 0.0
C5402 C 0.79608 0.64613 0.62718 0.0
C5403 C 0.36838 0.81107 0.62444 0.0
C5404 C 0.35127 0.82399 0.62705 0.0
C5405 C 0.38452 0.81087 0.63887 0.0
C5406 C 0.38436 0.82396 0.65607 0.0
H5407 H 0.36839 0.79973 0.61229 0.0
H5408 H 0.39631 0.79925 0.63748 0.0
S5409 S 0.34375 0.86159 0.6689 0.0
N5410 N 0.33568 0.85081 0.64744 0.0
N5411 N 0.36619 0.85099 0.67404 0.0
C5412 C 0.36814 0.83806 0.65782 0.0
C5413 C 0.35156 0.83793 0.64344 0.0
C5414 C 0.19569 0.3653 0.61847 0.0
C5415 C 0.18395 0.3475 0.62195 0.0
C5416 C 0.1958 0.38161 0.63276 0.0
C5417 C 0.18387 0.38081 0.65078 0.0
H5418 H 0.20631 0.3658 0.60569 0.0
H5419 H 0.20661 0.39403 0.6306 0.0
S5420 S 0.14939 0.33833 0.66616 0.0
N5421 N 0.15927 0.33068 0.6441 0.0
N5422 N 0.15911 0.36131 0.67052 0.0
C5423 C 0.17092 0.3638 0.65351 0.0
C5424 C 0.17105 0.34716 0.63922 0.0
C5425 C 0.64699 0.20813 0.63015 0.0
C5426 C 0.65878 0.19087 0.62465 0.0
C5427 C 0.63204 0.20722 0.64575 0.0
C5428 C 0.62814 0.18904 0.65678 0.0
H5429 H 0.65044 0.22291 0.6234 0.0
H5430 H 0.62463 0.22135 0.65034 0.0
S5431 S 0.65396 0.13917 0.64787 0.0
N5432 N 0.66459 0.15464 0.63083 0.0
N5433 N 0.6367 0.15303 0.66025 0.0
C5434 C 0.63877 0.1713 0.6505 0.0
C5435 C 0.65399 0.17219 0.63444 0.0
C5436 C 0.83471 0.34956 0.36779 0.0
C5437 C 0.82039 0.34989 0.38394 0.0
C5438 C 0.83472 0.36482 0.35253 0.0
C5439 C 0.82069 0.38122 0.35307 0.0
H5440 H 0.84462 0.33637 0.3658 0.0
H5441 H 0.84465 0.36288 0.33933 0.0
S5442 S 0.78148 0.39019 0.39325 0.0
N5443 N 0.79268 0.36857 0.40024 0.0
N5444 N 0.79343 0.39783 0.37222 0.0
C5445 C 0.80755 0.38268 0.37013 0.0
C5446 C 0.80719 0.36685 0.38539 0.0
C5447 C 0.63748 0.81167 0.3828 0.0
C5448 C 0.65547 0.82286 0.3785 0.0
C5449 C 0.62117 0.81082 0.36852 0.0
C5450 C 0.62232 0.82132 0.34967 0.0
H5451 H 0.63681 0.80201 0.3963 0.0
H5452 H 0.60854 0.80042 0.37141 0.0
S5453 S 0.66521 0.85425 0.33214 0.0
N5454 N 0.67267 0.8458 0.35484 0.0
N5455 N 0.64215 0.84449 0.32838 0.0
C5456 C 0.63949 0.83385 0.34612 0.0
C5457 C 0.65604 0.83454 0.36043 0.0
C5458 C 0.1968 0.63492 0.38355 0.0
C5459 C 0.18453 0.65271 0.38291 0.0
C5460 C 0.19813 0.62157 0.36649 0.0
C5461 C 0.18741 0.62577 0.34819 0.0
H5462 H 0.20689 0.63235 0.39651 0.0
H5463 H 0.20879 0.60886 0.36705 0.0
S5464 S 0.15284 0.66989 0.339 0.0
N5465 N 0.16077 0.67304 0.36285 0.0
N5466 N 0.16362 0.64846 0.33088 0.0
C5467 C 0.17427 0.64281 0.34787 0.0
C5468 C 0.17267 0.65609 0.36523 0.0
C5469 C 0.34885 0.17252 0.36729 0.0
C5470 C 0.34932 0.18618 0.38406 0.0
C5471 C 0.36359 0.17346 0.35147 0.0
C5472 C 0.37969 0.18783 0.35192 0.0
H5473 H 0.33586 0.16235 0.36535 0.0
H5474 H 0.36152 0.16385 0.33806 0.0
S5475 S 0.38889 0.22592 0.39316 0.0
N5476 N 0.36782 0.2139 0.40051 0.0
N5477 N 0.39611 0.21491 0.37149 0.0
C5478 C 0.38127 0.20047 0.36938 0.0
C5479 C 0.36596 0.19983 0.38526 0.0
C5480 C 0.63348 0.80979 0.6241 0.0
C5481 C 0.64953 0.82422 0.62338 0.0
C5482 C 0.61934 0.80959 0.64046 0.0
C5483 C 0.62047 0.82409 0.65642 0.0
H5484 H 0.63303 0.79738 0.61307 0.0
H5485 H 0.60854 0.79701 0.64151 0.0
S5486 S 0.65864 0.86591 0.66091 0.0
N5487 N 0.66498 0.85397 0.63945 0.0
N5488 N 0.63807 0.85403 0.66972 0.0
C5489 C 0.63533 0.83961 0.65491 0.0
C5490 C 0.64993 0.83959 0.63848 0.0
C5491 C 0.64053 0.17045 0.3492 0.0
C5492 C 0.62373 0.184 0.3498 0.0
C5493 C 0.65598 0.17103 0.36429 0.0
C5494 C 0.65505 0.18493 0.38079 0.0
H5495 H 0.6428 0.16071 0.33591 0.0
H5496 H 0.66952 0.16165 0.36216 0.0
S5497 S 0.61341 0.22237 0.39041 0.0
N5498 N 0.60658 0.21094 0.36883 0.0
N5499 N 0.635 0.21131 0.39774 0.0
C5500 C 0.63748 0.19733 0.3825 0.0
C5501 C 0.62198 0.19706 0.36686 0.0
C5502 C 0.83051 0.6351 0.35588 0.0
C5503 C 0.81165 0.62541 0.35143 0.0
C5504 C 0.83199 0.65072 0.37098 0.0
C5505 C 0.81471 0.65708 0.38239 0.0
H5506 H 0.84376 0.63198 0.34634 0.0
H5507 H 0.84624 0.65913 0.37235 0.0
S5508 S 0.76262 0.63438 0.37881 0.0
N5509 N 0.776 0.62188 0.36131 0.0
N5510 N 0.77884 0.65049 0.38972 0.0
C5511 C 0.79635 0.6461 0.37932 0.0
C5512 C 0.79479 0.6305 0.36388 0.0
C5513 C 0.36826 0.83427 0.3592 0.0
C5514 C 0.38022 0.81727 0.35327 0.0
C5515 C 0.35405 0.8329 0.37556 0.0
C5516 C 0.35119 0.8144 0.3864 0.0
H5517 H 0.36849 0.84808 0.34997 0.0
H5518 H 0.34385 0.84571 0.37832 0.0
S5519 S 0.38081 0.7665 0.37882 0.0
N5520 N 0.39002 0.78233 0.36132 0.0
N5521 N 0.36321 0.7796 0.39147 0.0
C5522 C 0.36434 0.79798 0.38172 0.0
C5523 C 0.37885 0.79944 0.36531 0.0
C5524 C 0.20081 0.38276 0.36429 0.0
C5525 C 0.1891 0.38272 0.34612 0.0
C5526 C 0.19913 0.36673 0.37878 0.0
C5527 C 0.18616 0.34979 0.37526 0.0
H5528 H 0.21234 0.39448 0.36664 0.0
H5529 H 0.2094 0.36668 0.39185 0.0
S5530 S 0.15204 0.34261 0.33032 0.0
N5531 N 0.16339 0.36484 0.32603 0.0
N5532 N 0.16093 0.33447 0.35262 0.0
C5533 C 0.17372 0.35013 0.35765 0.0
C5534 C 0.17504 0.36663 0.34324 0.0
C5535 C 0.37832 0.21045 0.64597 0.0
C5536 C 0.38531 0.1933 0.65716 0.0
C5537 C 0.36244 0.20892 0.63131 0.0
C5538 C 0.35257 0.19016 0.62696 0.0
H5539 H 0.38415 0.22556 0.64967 0.0
H5540 H 0.3568 0.22292 0.6244 0.0
S5541 S 0.36538 0.14032 0.6512 0.0
N5542 N 0.38157 0.15659 0.66198 0.0
N5543 N 0.35175 0.15378 0.63459 0.0
C5544 C 0.36026 0.17262 0.63701 0.0
C5545 C 0.37658 0.17417 0.652 0.0
C5546 C 0.80438 0.38669 0.64169 0.0
C5547 C 0.81994 0.38767 0.65666 0.0
C5548 C 0.80466 0.37172 0.62608 0.0
C5549 C 0.82049 0.35708 0.62478 0.0
H5550 H 0.7911 0.39656 0.6429 0.0
H5551 H 0.79158 0.37068 0.61592 0.0
S5552 S 0.86632 0.35491 0.65836 0.0
N5553 N 0.85276 0.37415 0.66774 0.0
N5554 N 0.85327 0.34608 0.63848 0.0
C5555 C 0.83701 0.35907 0.63853 0.0
C5556 C 0.83672 0.37432 0.65444 0.0
C5557 C 0.17287 0.63392 0.65013 0.0
C5558 C 0.19066 0.6226 0.655 0.0
C5559 C 0.17339 0.64996 0.63548 0.0
C5560 C 0.19172 0.65527 0.62527 0.0
H5561 H 0.15907 0.6318 0.65913 0.0
H5562 H 0.15991 0.65949 0.63365 0.0
S5563 S 0.24157 0.62842 0.6303 0.0
N5564 N 0.22632 0.61633 0.64651 0.0
N5565 N 0.2273 0.64625 0.61937 0.0
C5566 C 0.20898 0.64282 0.62868 0.0
C5567 C 0.20843 0.62655 0.6434 0.0
loop_
_geom_bond_atom_site_label_1
_geom_bond_atom_site_label_2
_geom_bond_distance
_geom_bond_site_symmetry_2
_ccdc_geom_bond_type
Mn0 O5 2.095 . S
Mn0 O15 2.162 . S
Mn0 O16 2.297 . S
Mn0 O24 2.385 . S
Mn0 O25 2.209 . S
Mn0 O26 2.094 . S
Mn1 O6 2.121 . S
Mn1 N8 2.257 . S
Mn1 N17 2.282 . S
Mn1 O25 2.215 . S
Mn1 O27 2.117 . S
C2 O24 1.234 . S
C2 O25 1.283 . S
C3 O15 1.281 . S
C3 O16 1.236 . S
C4 O26 1.240 . S
C4 O27 1.264 . S
O5 Mn0 2.095 . S
O5 C14 1.250 . S
O6 Mn1 2.121 . S
O6 C14 1.258 . S
C7 N8 1.326 . S
C7 C11 1.460 . S
C7 H13 0.929 . S
N8 Mn1 2.257 . S
N8 C7 1.326 . S
N8 C12 1.362 . S
C9 C10 1.258 . S
C9 C12 1.431 . S
C9 C29 1.449 . S
C10 C9 1.258 . S
C10 C11 1.477 . S
C10 H30 0.931 . S
C11 C7 1.460 . S
C11 C10 1.477 . S
C11 H31 0.930 . S
C12 N8 1.362 . S
C12 C9 1.431 . S
C12 C22 1.476 . S
H13 C7 0.929 . S
C14 O5 1.250 . S
C14 O6 1.258 . S
O15 Mn0 2.162 . S
O15 C3 1.281 . S
O16 Mn0 2.297 . S
O16 C3 1.236 . S
N17 Mn1 2.282 . S
N17 C18 1.328 . S
N17 C22 1.318 . S
C18 N17 1.328 . S
C18 C19 1.457 . S
C18 H23 0.929 . S
C19 C18 1.457 . S
C19 C20 1.291 . S
C19 H32 0.931 . S
C20 C19 1.291 . S
C20 C21 1.373 . S
C20 H33 0.929 . S
C21 C20 1.373 . S
C21 C22 1.396 . S
C21 C28 1.403 . S
C22 C12 1.476 . S
C22 N17 1.318 . S
C22 C21 1.396 . S
H23 C18 0.929 . S
O24 Mn0 2.385 . S
O24 C2 1.234 . S
O25 Mn0 2.209 . S
O25 Mn1 2.215 . S
O25 C2 1.283 . S
O26 Mn0 2.094 . S
O26 C4 1.240 . S
O27 Mn1 2.117 . S
O27 C4 1.264 . S
C28 C21 1.403 . S
C28 C29 1.399 . S
C28 H34 0.929 . S
C29 C9 1.449 . S
C29 C28 1.399 . S
C29 H35 0.930 . S
H30 C10 0.931 . S
H31 C11 0.930 . S
H32 C19 0.931 . S
H33 C20 0.929 . S
H34 C28 0.929 . S
H35 C29 0.930 . S
Mn36 O41 2.095 . S
Mn36 O51 2.162 . S
Mn36 O52 2.297 . S
Mn36 O60 2.385 . S
Mn36 O61 2.209 . S
Mn36 O62 2.094 . S
Mn37 O42 2.121 . S
Mn37 N44 2.257 . S
Mn37 N53 2.282 . S
Mn37 O61 2.215 . S
Mn37 O63 2.117 . S
C38 O60 1.234 . S
C38 O61 1.283 . S
C39 O51 1.281 . S
C39 O52 1.236 . S
C40 O62 1.240 . S
C40 O63 1.264 . S
O41 Mn36 2.095 . S
O41 C50 1.250 . S
O42 Mn37 2.121 . S
O42 C50 1.258 . S
C43 N44 1.326 . S
C43 C47 1.460 . S
C43 H49 0.929 . S
N44 Mn37 2.257 . S
N44 C43 1.326 . S
N44 C48 1.362 . S
C45 C46 1.258 . S
C45 C48 1.431 . S
C45 C65 1.449 . S
C46 C45 1.258 . S
C46 C47 1.477 . S
C46 H66 0.931 . S
C47 C43 1.460 . S
C47 C46 1.477 . S
C47 H67 0.930 . S
C48 N44 1.362 . S
C48 C45 1.431 . S
C48 C58 1.476 . S
H49 C43 0.929 . S
C50 O41 1.250 . S
C50 O42 1.258 . S
O51 Mn36 2.162 . S
O51 C39 1.281 . S
O52 Mn36 2.297 . S
O52 C39 1.236 . S
N53 Mn37 2.282 . S
N53 C54 1.328 . S
N53 C58 1.318 . S
C54 N53 1.328 . S
C54 C55 1.457 . S
C54 H59 0.929 . S
C55 C54 1.457 . S
C55 C56 1.291 . S
C55 H68 0.931 . S
C56 C55 1.291 . S
C56 C57 1.373 . S
C56 H69 0.929 . S
C57 C56 1.373 . S
C57 C58 1.396 . S
C57 C64 1.403 . S
C58 C48 1.476 . S
C58 N53 1.318 . S
C58 C57 1.396 . S
H59 C54 0.929 . S
O60 Mn36 2.385 . S
O60 C38 1.234 . S
O61 Mn36 2.209 . S
O61 Mn37 2.215 . S
O61 C38 1.283 . S
O62 Mn36 2.094 . S
O62 C40 1.240 . S
O63 Mn37 2.117 . S
O63 C40 1.264 . S
C64 C57 1.403 . S
C64 C65 1.399 . S
C64 H70 0.929 . S
C65 C45 1.449 . S
C65 C64 1.399 . S
C65 H71 0.930 . S
H66 C46 0.931 . S
H67 C47 0.930 . S
H68 C55 0.931 . S
H69 C56 0.929 . S
H70 C64 0.929 . S
H71 C65 0.930 . S
Mn72 O77 2.095 . S
Mn72 O87 2.162 . S
Mn72 O88 2.297 . S
Mn72 O96 2.385 . S
Mn72 O97 2.209 . S
Mn72 O98 2.094 . S
Mn73 O78 2.121 . S
Mn73 N80 2.257 . S
Mn73 N89 2.282 . S
Mn73 O97 2.215 . S
Mn73 O99 2.117 . S
C74 O96 1.234 . S
C74 O97 1.283 . S
C75 O87 1.281 . S
C75 O88 1.236 . S
C76 O98 1.240 . S
C76 O99 1.264 . S
O77 Mn72 2.095 . S
O77 C86 1.250 . S
O78 Mn73 2.121 . S
O78 C86 1.258 . S
C79 N80 1.326 . S
C79 C83 1.460 . S
C79 H85 0.929 . S
N80 Mn73 2.257 . S
N80 C79 1.326 . S
N80 C84 1.362 . S
C81 C82 1.258 . S
C81 C84 1.431 . S
C81 C101 1.449 . S
C82 C81 1.258 . S
C82 C83 1.477 . S
C82 H102 0.931 . S
C83 C79 1.460 . S
C83 C82 1.477 . S
C83 H103 0.930 . S
C84 N80 1.362 . S
C84 C81 1.431 . S
C84 C94 1.476 . S
H85 C79 0.929 . S
C86 O77 1.250 . S
C86 O78 1.258 . S
O87 Mn72 2.162 . S
O87 C75 1.281 . S
O88 Mn72 2.297 . S
O88 C75 1.236 . S
N89 Mn73 2.282 . S
N89 C90 1.328 . S
N89 C94 1.318 . S
C90 N89 1.328 . S
C90 C91 1.457 . S
C90 H95 0.929 . S
C91 C90 1.457 . S
C91 C92 1.291 . S
C91 H104 0.931 . S
C92 C91 1.291 . S
C92 C93 1.373 . S
C92 H105 0.929 . S
C93 C92 1.373 . S
C93 C94 1.396 . S
C93 C100 1.403 . S
C94 C84 1.476 . S
C94 N89 1.318 . S
C94 C93 1.396 . S
H95 C90 0.929 . S
O96 Mn72 2.385 . S
O96 C74 1.234 . S
O97 Mn72 2.209 . S
O97 Mn73 2.215 . S
O97 C74 1.283 . S
O98 Mn72 2.094 . S
O98 C76 1.240 . S
O99 Mn73 2.117 . S
O99 C76 1.264 . S
C100 C93 1.403 . S
C100 C101 1.399 . S
C100 H106 0.929 . S
C101 C81 1.449 . S
C101 C100 1.399 . S
C101 H107 0.930 . S
H102 C82 0.931 . S
H103 C83 0.930 . S
H104 C91 0.931 . S
H105 C92 0.929 . S
H106 C100 0.929 . S
H107 C101 0.930 . S
Mn108 O113 2.095 . S
Mn108 O123 2.162 . S
Mn108 O124 2.297 . S
Mn108 O132 2.385 . S
Mn108 O133 2.209 . S
Mn108 O134 2.094 . S
Mn109 O114 2.121 . S
Mn109 N116 2.257 . S
Mn109 N125 2.282 . S
Mn109 O133 2.215 . S
Mn109 O135 2.117 . S
C110 O132 1.234 . S
C110 O133 1.283 . S
C111 O123 1.281 . S
C111 O124 1.236 . S
C112 O134 1.240 . S
C112 O135 1.264 . S
O113 Mn108 2.095 . S
O113 C122 1.250 . S
O114 Mn109 2.121 . S
O114 C122 1.258 . S
C115 N116 1.326 . S
C115 C119 1.460 . S
C115 H121 0.929 . S
N116 Mn109 2.257 . S
N116 C115 1.326 . S
N116 C120 1.362 . S
C117 C118 1.258 . S
C117 C120 1.431 . S
C117 C137 1.449 . S
C118 C117 1.258 . S
C118 C119 1.477 . S
C118 H138 0.931 . S
C119 C115 1.460 . S
C119 C118 1.477 . S
C119 H139 0.930 . S
C120 N116 1.362 . S
C120 C117 1.431 . S
C120 C130 1.476 . S
H121 C115 0.929 . S
C122 O113 1.250 . S
C122 O114 1.258 . S
O123 Mn108 2.162 . S
O123 C111 1.281 . S
O124 Mn108 2.297 . S
O124 C111 1.236 . S
N125 Mn109 2.282 . S
N125 C126 1.328 . S
N125 C130 1.318 . S
C126 N125 1.328 . S
C126 C127 1.457 . S
C126 H131 0.929 . S
C127 C126 1.457 . S
C127 C128 1.291 . S
C127 H140 0.931 . S
C128 C127 1.291 . S
C128 C129 1.373 . S
C128 H141 0.929 . S
C129 C128 1.373 . S
C129 C130 1.396 . S
C129 C136 1.403 . S
C130 C120 1.476 . S
C130 N125 1.318 . S
C130 C129 1.396 . S
H131 C126 0.929 . S
O132 Mn108 2.385 . S
O132 C110 1.234 . S
O133 Mn108 2.209 . S
O133 Mn109 2.215 . S
O133 C110 1.283 . S
O134 Mn108 2.094 . S
O134 C112 1.240 . S
O135 Mn109 2.117 . S
O135 C112 1.264 . S
C136 C129 1.403 . S
C136 C137 1.399 . S
C136 H142 0.929 . S
C137 C117 1.449 . S
C137 C136 1.399 . S
C137 H143 0.930 . S
H138 C118 0.931 . S
H139 C119 0.930 . S
H140 C127 0.931 . S
H141 C128 0.929 . S
H142 C136 0.929 . S
H143 C137 0.930 . S
Mn144 O149 2.095 . S
Mn144 O159 2.162 . S
Mn144 O160 2.297 . S
Mn144 O168 2.385 . S
Mn144 O169 2.209 . S
Mn144 O170 2.094 . S
Mn145 O150 2.121 . S
Mn145 N152 2.257 . S
Mn145 N161 2.282 . S
Mn145 O169 2.215 . S
Mn145 O171 2.117 . S
C146 O168 1.234 . S
C146 O169 1.283 . S
C147 O159 1.281 . S
C147 O160 1.236 . S
C148 O170 1.240 . S
C148 O171 1.264 . S
O149 Mn144 2.095 . S
O149 C158 1.250 . S
O150 Mn145 2.121 . S
O150 C158 1.258 . S
C151 N152 1.326 . S
C151 C155 1.460 . S
C151 H157 0.929 . S
N152 Mn145 2.257 . S
N152 C151 1.326 . S
N152 C156 1.362 . S
C153 C154 1.258 . S
C153 C156 1.431 . S
C153 C173 1.449 . S
C154 C153 1.258 . S
C154 C155 1.477 . S
C154 H174 0.931 . S
C155 C151 1.460 . S
C155 C154 1.477 . S
C155 H175 0.930 . S
C156 N152 1.362 . S
C156 C153 1.431 . S
C156 C166 1.476 . S
H157 C151 0.929 . S
C158 O149 1.250 . S
C158 O150 1.258 . S
O159 Mn144 2.162 . S
O159 C147 1.281 . S
O160 Mn144 2.297 . S
O160 C147 1.236 . S
N161 Mn145 2.282 . S
N161 C162 1.328 . S
N161 C166 1.318 . S
C162 N161 1.328 . S
C162 C163 1.457 . S
C162 H167 0.929 . S
C163 C162 1.457 . S
C163 C164 1.291 . S
C163 H176 0.931 . S
C164 C163 1.291 . S
C164 C165 1.373 . S
C164 H177 0.929 . S
C165 C164 1.373 . S
C165 C166 1.396 . S
C165 C172 1.403 . S
C166 C156 1.476 . S
C166 N161 1.318 . S
C166 C165 1.396 . S
H167 C162 0.929 . S
O168 Mn144 2.385 . S
O168 C146 1.234 . S
O169 Mn144 2.209 . S
O169 Mn145 2.215 . S
O169 C146 1.283 . S
O170 Mn144 2.094 . S
O170 C148 1.240 . S
O171 Mn145 2.117 . S
O171 C148 1.264 . S
C172 C165 1.403 . S
C172 C173 1.399 . S
C172 H178 0.929 . S
C173 C153 1.449 . S
C173 C172 1.399 . S
C173 H179 0.930 . S
H174 C154 0.931 . S
H175 C155 0.930 . S
H176 C163 0.931 . S
H177 C164 0.929 . S
H178 C172 0.929 . S
H179 C173 0.930 . S
Mn180 O185 2.095 . S
Mn180 O195 2.162 . S
Mn180 O196 2.297 . S
Mn180 O204 2.385 . S
Mn180 O205 2.209 . S
Mn180 O206 2.094 . S
Mn181 O186 2.121 . S
Mn181 N188 2.257 . S
Mn181 N197 2.282 . S
Mn181 O205 2.215 . S
Mn181 O207 2.117 . S
C182 O204 1.234 . S
C182 O205 1.283 . S
C183 O195 1.281 . S
C183 O196 1.236 . S
C184 O206 1.240 . S
C184 O207 1.264 . S
O185 Mn180 2.095 . S
O185 C194 1.250 . S
O186 Mn181 2.121 . S
O186 C194 1.258 . S
C187 N188 1.326 . S
C187 C191 1.460 . S
C187 H193 0.929 . S
N188 Mn181 2.257 . S
N188 C187 1.326 . S
N188 C192 1.362 . S
C189 C190 1.258 . S
C189 C192 1.431 . S
C189 C209 1.449 . S
C190 C189 1.258 . S
C190 C191 1.477 . S
C190 H210 0.931 . S
C191 C187 1.460 . S
C191 C190 1.477 . S
C191 H211 0.930 . S
C192 N188 1.362 . S
C192 C189 1.431 . S
C192 C202 1.476 . S
H193 C187 0.929 . S
C194 O185 1.250 . S
C194 O186 1.258 . S
O195 Mn180 2.162 . S
O195 C183 1.281 . S
O196 Mn180 2.297 . S
O196 C183 1.236 . S
N197 Mn181 2.282 . S
N197 C198 1.328 . S
N197 C202 1.318 . S
C198 N197 1.328 . S
C198 C199 1.457 . S
C198 H203 0.929 . S
C199 C198 1.457 . S
C199 C200 1.291 . S
C199 H212 0.931 . S
C200 C199 1.291 . S
C200 C201 1.373 . S
C200 H213 0.929 . S
C201 C200 1.373 . S
C201 C202 1.396 . S
C201 C208 1.403 . S
C202 C192 1.476 . S
C202 N197 1.318 . S
C202 C201 1.396 . S
H203 C198 0.929 . S
O204 Mn180 2.385 . S
O204 C182 1.234 . S
O205 Mn180 2.209 . S
O205 Mn181 2.215 . S
O205 C182 1.283 . S
O206 Mn180 2.094 . S
O206 C184 1.240 . S
O207 Mn181 2.117 . S
O207 C184 1.264 . S
C208 C201 1.403 . S
C208 C209 1.399 . S
C208 H214 0.929 . S
C209 C189 1.449 . S
C209 C208 1.399 . S
C209 H215 0.930 . S
H210 C190 0.931 . S
H211 C191 0.930 . S
H212 C199 0.931 . S
H213 C200 0.929 . S
H214 C208 0.929 . S
H215 C209 0.930 . S
Mn216 O221 2.095 . S
Mn216 O231 2.162 . S
Mn216 O232 2.297 . S
Mn216 O240 2.385 . S
Mn216 O241 2.209 . S
Mn216 O242 2.094 . S
Mn217 O222 2.121 . S
Mn217 N224 2.257 . S
Mn217 N233 2.282 . S
Mn217 O241 2.215 . S
Mn217 O243 2.117 . S
C218 O240 1.234 . S
C218 O241 1.283 . S
C219 O231 1.281 . S
C219 O232 1.236 . S
C220 O242 1.240 . S
C220 O243 1.264 . S
O221 Mn216 2.095 . S
O221 C230 1.250 . S
O222 Mn217 2.121 . S
O222 C230 1.258 . S
C223 N224 1.326 . S
C223 C227 1.460 . S
C223 H229 0.929 . S
N224 Mn217 2.257 . S
N224 C223 1.326 . S
N224 C228 1.362 . S
C225 C226 1.258 . S
C225 C228 1.431 . S
C225 C245 1.449 . S
C226 C225 1.258 . S
C226 C227 1.477 . S
C226 H246 0.931 . S
C227 C223 1.460 . S
C227 C226 1.477 . S
C227 H247 0.930 . S
C228 N224 1.362 . S
C228 C225 1.431 . S
C228 C238 1.476 . S
H229 C223 0.929 . S
C230 O221 1.250 . S
C230 O222 1.258 . S
O231 Mn216 2.162 . S
O231 C219 1.281 . S
O232 Mn216 2.297 . S
O232 C219 1.236 . S
N233 Mn217 2.282 . S
N233 C234 1.328 . S
N233 C238 1.318 . S
C234 N233 1.328 . S
C234 C235 1.457 . S
C234 H239 0.929 . S
C235 C234 1.457 . S
C235 C236 1.291 . S
C235 H248 0.931 . S
C236 C235 1.291 . S
C236 C237 1.373 . S
C236 H249 0.929 . S
C237 C236 1.373 . S
C237 C238 1.396 . S
C237 C244 1.403 . S
C238 C228 1.476 . S
C238 N233 1.318 . S
C238 C237 1.396 . S
H239 C234 0.929 . S
O240 Mn216 2.385 . S
O240 C218 1.234 . S
O241 Mn216 2.209 . S
O241 Mn217 2.215 . S
O241 C218 1.283 . S
O242 Mn216 2.094 . S
O242 C220 1.240 . S
O243 Mn217 2.117 . S
O243 C220 1.264 . S
C244 C237 1.403 . S
C244 C245 1.399 . S
C244 H250 0.929 . S
C245 C225 1.449 . S
C245 C244 1.399 . S
C245 H251 0.930 . S
H246 C226 0.931 . S
H247 C227 0.930 . S
H248 C235 0.931 . S
H249 C236 0.929 . S
H250 C244 0.929 . S
H251 C245 0.930 . S
Mn252 O257 2.095 . S
Mn252 O267 2.162 . S
Mn252 O268 2.297 . S
Mn252 O276 2.385 . S
Mn252 O277 2.209 . S
Mn252 O278 2.094 . S
Mn253 O258 2.121 . S
Mn253 N260 2.257 . S
Mn253 N269 2.282 . S
Mn253 O277 2.215 . S
Mn253 O279 2.117 . S
C254 O276 1.234 . S
C254 O277 1.283 . S
C255 O267 1.281 . S
C255 O268 1.236 . S
C256 O278 1.240 . S
C256 O279 1.264 . S
O257 Mn252 2.095 . S
O257 C266 1.250 . S
O258 Mn253 2.121 . S
O258 C266 1.258 . S
C259 N260 1.326 . S
C259 C263 1.460 . S
C259 H265 0.929 . S
N260 Mn253 2.257 . S
N260 C259 1.326 . S
N260 C264 1.362 . S
C261 C262 1.258 . S
C261 C264 1.431 . S
C261 C281 1.449 . S
C262 C261 1.258 . S
C262 C263 1.477 . S
C262 H282 0.931 . S
C263 C259 1.460 . S
C263 C262 1.477 . S
C263 H283 0.930 . S
C264 N260 1.362 . S
C264 C261 1.431 . S
C264 C274 1.476 . S
H265 C259 0.929 . S
C266 O257 1.250 . S
C266 O258 1.258 . S
O267 Mn252 2.162 . S
O267 C255 1.281 . S
O268 Mn252 2.297 . S
O268 C255 1.236 . S
N269 Mn253 2.282 . S
N269 C270 1.328 . S
N269 C274 1.318 . S
C270 N269 1.328 . S
C270 C271 1.457 . S
C270 H275 0.929 . S
C271 C270 1.457 . S
C271 C272 1.291 . S
C271 H284 0.931 . S
C272 C271 1.291 . S
C272 C273 1.373 . S
C272 H285 0.929 . S
C273 C272 1.373 . S
C273 C274 1.396 . S
C273 C280 1.403 . S
C274 C264 1.476 . S
C274 N269 1.318 . S
C274 C273 1.396 . S
H275 C270 0.929 . S
O276 Mn252 2.385 . S
O276 C254 1.234 . S
O277 Mn252 2.209 . S
O277 Mn253 2.215 . S
O277 C254 1.283 . S
O278 Mn252 2.094 . S
O278 C256 1.240 . S
O279 Mn253 2.117 . S
O279 C256 1.264 . S
C280 C273 1.403 . S
C280 C281 1.399 . S
C280 H286 0.929 . S
C281 C261 1.449 . S
C281 C280 1.399 . S
C281 H287 0.930 . S
H282 C262 0.931 . S
H283 C263 0.930 . S
H284 C271 0.931 . S
H285 C272 0.929 . S
H286 C280 0.929 . S
H287 C281 0.930 . S
Mn288 O293 2.095 . S
Mn288 O303 2.162 . S
Mn288 O304 2.297 . S
Mn288 O312 2.385 . S
Mn288 O313 2.209 . S
Mn288 O314 2.094 . S
Mn289 O294 2.121 . S
Mn289 N296 2.257 . S
Mn289 N305 2.282 . S
Mn289 O313 2.215 . S
Mn289 O315 2.117 . S
C290 O312 1.234 . S
C290 O313 1.283 . S
C291 O303 1.281 . S
C291 O304 1.236 . S
C292 O314 1.240 . S
C292 O315 1.264 . S
O293 Mn288 2.095 . S
O293 C302 1.250 . S
O294 Mn289 2.121 . S
O294 C302 1.258 . S
C295 N296 1.326 . S
C295 C299 1.460 . S
C295 H301 0.929 . S
N296 Mn289 2.257 . S
N296 C295 1.326 . S
N296 C300 1.362 . S
C297 C298 1.258 . S
C297 C300 1.431 . S
C297 C317 1.449 . S
C298 C297 1.258 . S
C298 C299 1.477 . S
C298 H318 0.931 . S
C299 C295 1.460 . S
C299 C298 1.477 . S
C299 H319 0.930 . S
C300 N296 1.362 . S
C300 C297 1.431 . S
C300 C310 1.476 . S
H301 C295 0.929 . S
C302 O293 1.250 . S
C302 O294 1.258 . S
O303 Mn288 2.162 . S
O303 C291 1.281 . S
O304 Mn288 2.297 . S
O304 C291 1.236 . S
N305 Mn289 2.282 . S
N305 C306 1.328 . S
N305 C310 1.318 . S
C306 N305 1.328 . S
C306 C307 1.457 . S
C306 H311 0.929 . S
C307 C306 1.457 . S
C307 C308 1.291 . S
C307 H320 0.931 . S
C308 C307 1.291 . S
C308 C309 1.373 . S
C308 H321 0.929 . S
C309 C308 1.373 . S
C309 C310 1.396 . S
C309 C316 1.403 . S
C310 C300 1.476 . S
C310 N305 1.318 . S
C310 C309 1.396 . S
H311 C306 0.929 . S
O312 Mn288 2.385 . S
O312 C290 1.234 . S
O313 Mn288 2.209 . S
O313 Mn289 2.215 . S
O313 C290 1.283 . S
O314 Mn288 2.094 . S
O314 C292 1.240 . S
O315 Mn289 2.117 . S
O315 C292 1.264 . S
C316 C309 1.403 . S
C316 C317 1.399 . S
C316 H322 0.929 . S
C317 C297 1.449 . S
C317 C316 1.399 . S
C317 H323 0.930 . S
H318 C298 0.931 . S
H319 C299 0.930 . S
H320 C307 0.931 . S
H321 C308 0.929 . S
H322 C316 0.929 . S
H323 C317 0.930 . S
Mn324 O329 2.095 . S
Mn324 O339 2.162 . S
Mn324 O340 2.297 . S
Mn324 O348 2.385 . S
Mn324 O349 2.209 . S
Mn324 O350 2.094 . S
Mn325 O330 2.121 . S
Mn325 N332 2.257 . S
Mn325 N341 2.282 . S
Mn325 O349 2.215 . S
Mn325 O351 2.117 . S
C326 O348 1.234 . S
C326 O349 1.283 . S
C327 O339 1.281 . S
C327 O340 1.236 . S
C328 O350 1.240 . S
C328 O351 1.264 . S
O329 Mn324 2.095 . S
O329 C338 1.250 . S
O330 Mn325 2.121 . S
O330 C338 1.258 . S
C331 N332 1.326 . S
C331 C335 1.460 . S
C331 H337 0.929 . S
N332 Mn325 2.257 . S
N332 C331 1.326 . S
N332 C336 1.362 . S
C333 C334 1.258 . S
C333 C336 1.431 . S
C333 C353 1.449 . S
C334 C333 1.258 . S
C334 C335 1.477 . S
C334 H354 0.931 . S
C335 C331 1.460 . S
C335 C334 1.477 . S
C335 H355 0.930 . S
C336 N332 1.362 . S
C336 C333 1.431 . S
C336 C346 1.476 . S
H337 C331 0.929 . S
C338 O329 1.250 . S
C338 O330 1.258 . S
O339 Mn324 2.162 . S
O339 C327 1.281 . S
O340 Mn324 2.297 . S
O340 C327 1.236 . S
N341 Mn325 2.282 . S
N341 C342 1.328 . S
N341 C346 1.318 . S
C342 N341 1.328 . S
C342 C343 1.457 . S
C342 H347 0.929 . S
C343 C342 1.457 . S
C343 C344 1.291 . S
C343 H356 0.931 . S
C344 C343 1.291 . S
C344 C345 1.373 . S
C344 H357 0.929 . S
C345 C344 1.373 . S
C345 C346 1.396 . S
C345 C352 1.403 . S
C346 C336 1.476 . S
C346 N341 1.318 . S
C346 C345 1.396 . S
H347 C342 0.929 . S
O348 Mn324 2.385 . S
O348 C326 1.234 . S
O349 Mn324 2.209 . S
O349 Mn325 2.215 . S
O349 C326 1.283 . S
O350 Mn324 2.094 . S
O350 C328 1.240 . S
O351 Mn325 2.117 . S
O351 C328 1.264 . S
C352 C345 1.403 . S
C352 C353 1.399 . S
C352 H358 0.929 . S
C353 C333 1.449 . S
C353 C352 1.399 . S
C353 H359 0.930 . S
H354 C334 0.931 . S
H355 C335 0.930 . S
H356 C343 0.931 . S
H357 C344 0.929 . S
H358 C352 0.929 . S
H359 C353 0.930 . S
Mn360 O365 2.095 . S
Mn360 O375 2.162 . S
Mn360 O376 2.297 . S
Mn360 O384 2.385 . S
Mn360 O385 2.209 . S
Mn360 O386 2.094 . S
Mn361 O366 2.121 . S
Mn361 N368 2.257 . S
Mn361 N377 2.282 . S
Mn361 O385 2.215 . S
Mn361 O387 2.117 . S
C362 O384 1.234 . S
C362 O385 1.283 . S
C363 O375 1.281 . S
C363 O376 1.236 . S
C364 O386 1.240 . S
C364 O387 1.264 . S
O365 Mn360 2.095 . S
O365 C374 1.250 . S
O366 Mn361 2.121 . S
O366 C374 1.258 . S
C367 N368 1.326 . S
C367 C371 1.460 . S
C367 H373 0.929 . S
N368 Mn361 2.257 . S
N368 C367 1.326 . S
N368 C372 1.362 . S
C369 C370 1.258 . S
C369 C372 1.431 . S
C369 C389 1.449 . S
C370 C369 1.258 . S
C370 C371 1.477 . S
C370 H390 0.931 . S
C371 C367 1.460 . S
C371 C370 1.477 . S
C371 H391 0.930 . S
C372 N368 1.362 . S
C372 C369 1.431 . S
C372 C382 1.476 . S
H373 C367 0.929 . S
C374 O365 1.250 . S
C374 O366 1.258 . S
O375 Mn360 2.162 . S
O375 C363 1.281 . S
O376 Mn360 2.297 . S
O376 C363 1.236 . S
N377 Mn361 2.282 . S
N377 C378 1.328 . S
N377 C382 1.318 . S
C378 N377 1.328 . S
C378 C379 1.457 . S
C378 H383 0.929 . S
C379 C378 1.457 . S
C379 C380 1.291 . S
C379 H392 0.931 . S
C380 C379 1.291 . S
C380 C381 1.373 . S
C380 H393 0.929 . S
C381 C380 1.373 . S
C381 C382 1.396 . S
C381 C388 1.403 . S
C382 C372 1.476 . S
C382 N377 1.318 . S
C382 C381 1.396 . S
H383 C378 0.929 . S
O384 Mn360 2.385 . S
O384 C362 1.234 . S
O385 Mn360 2.209 . S
O385 Mn361 2.215 . S
O385 C362 1.283 . S
O386 Mn360 2.094 . S
O386 C364 1.240 . S
O387 Mn361 2.117 . S
O387 C364 1.264 . S
C388 C381 1.403 . S
C388 C389 1.399 . S
C388 H394 0.929 . S
C389 C369 1.449 . S
C389 C388 1.399 . S
C389 H395 0.930 . S
H390 C370 0.931 . S
H391 C371 0.930 . S
H392 C379 0.931 . S
H393 C380 0.929 . S
H394 C388 0.929 . S
H395 C389 0.930 . S
Mn396 O401 2.095 . S
Mn396 O411 2.162 . S
Mn396 O412 2.297 . S
Mn396 O420 2.385 . S
Mn396 O421 2.209 . S
Mn396 O422 2.094 . S
Mn397 O402 2.121 . S
Mn397 N404 2.257 . S
Mn397 N413 2.282 . S
Mn397 O421 2.215 . S
Mn397 O423 2.117 . S
C398 O420 1.234 . S
C398 O421 1.283 . S
C399 O411 1.281 . S
C399 O412 1.236 . S
C400 O422 1.240 . S
C400 O423 1.264 . S
O401 Mn396 2.095 . S
O401 C410 1.250 . S
O402 Mn397 2.121 . S
O402 C410 1.258 . S
C403 N404 1.326 . S
C403 C407 1.460 . S
C403 H409 0.929 . S
N404 Mn397 2.257 . S
N404 C403 1.326 . S
N404 C408 1.362 . S
C405 C406 1.258 . S
C405 C408 1.431 . S
C405 C425 1.449 . S
C406 C405 1.258 . S
C406 C407 1.477 . S
C406 H426 0.931 . S
C407 C403 1.460 . S
C407 C406 1.477 . S
C407 H427 0.930 . S
C408 N404 1.362 . S
C408 C405 1.431 . S
C408 C418 1.476 . S
H409 C403 0.929 . S
C410 O401 1.250 . S
C410 O402 1.258 . S
O411 Mn396 2.162 . S
O411 C399 1.281 . S
O412 Mn396 2.297 . S
O412 C399 1.236 . S
N413 Mn397 2.282 . S
N413 C414 1.328 . S
N413 C418 1.318 . S
C414 N413 1.328 . S
C414 C415 1.457 . S
C414 H419 0.929 . S
C415 C414 1.457 . S
C415 C416 1.291 . S
C415 H428 0.931 . S
C416 C415 1.291 . S
C416 C417 1.373 . S
C416 H429 0.929 . S
C417 C416 1.373 . S
C417 C418 1.396 . S
C417 C424 1.403 . S
C418 C408 1.476 . S
C418 N413 1.318 . S
C418 C417 1.396 . S
H419 C414 0.929 . S
O420 Mn396 2.385 . S
O420 C398 1.234 . S
O421 Mn396 2.209 . S
O421 Mn397 2.215 . S
O421 C398 1.283 . S
O422 Mn396 2.094 . S
O422 C400 1.240 . S
O423 Mn397 2.117 . S
O423 C400 1.264 . S
C424 C417 1.403 . S
C424 C425 1.399 . S
C424 H430 0.929 . S
C425 C405 1.449 . S
C425 C424 1.399 . S
C425 H431 0.930 . S
H426 C406 0.931 . S
H427 C407 0.930 . S
H428 C415 0.931 . S
H429 C416 0.929 . S
H430 C424 0.929 . S
H431 C425 0.930 . S
Mn432 O437 2.095 . S
Mn432 O447 2.162 . S
Mn432 O448 2.297 . S
Mn432 O456 2.385 . S
Mn432 O457 2.209 . S
Mn432 O458 2.094 . S
Mn433 O438 2.121 . S
Mn433 N440 2.257 . S
Mn433 N449 2.282 . S
Mn433 O457 2.215 . S
Mn433 O459 2.117 . S
C434 O456 1.234 . S
C434 O457 1.283 . S
C435 O447 1.281 . S
C435 O448 1.236 . S
C436 O458 1.240 . S
C436 O459 1.264 . S
O437 Mn432 2.095 . S
O437 C446 1.250 . S
O438 Mn433 2.121 . S
O438 C446 1.258 . S
C439 N440 1.326 . S
C439 C443 1.460 . S
C439 H445 0.929 . S
N440 Mn433 2.257 . S
N440 C439 1.326 . S
N440 C444 1.362 . S
C441 C442 1.258 . S
C441 C444 1.431 . S
C441 C461 1.449 . S
C442 C441 1.258 . S
C442 C443 1.477 . S
C442 H462 0.931 . S
C443 C439 1.460 . S
C443 C442 1.477 . S
C443 H463 0.930 . S
C444 N440 1.362 . S
C444 C441 1.431 . S
C444 C454 1.476 . S
H445 C439 0.929 . S
C446 O437 1.250 . S
C446 O438 1.258 . S
O447 Mn432 2.162 . S
O447 C435 1.281 . S
O448 Mn432 2.297 . S
O448 C435 1.236 . S
N449 Mn433 2.282 . S
N449 C450 1.328 . S
N449 C454 1.318 . S
C450 N449 1.328 . S
C450 C451 1.457 . S
C450 H455 0.929 . S
C451 C450 1.457 . S
C451 C452 1.291 . S
C451 H464 0.931 . S
C452 C451 1.291 . S
C452 C453 1.373 . S
C452 H465 0.929 . S
C453 C452 1.373 . S
C453 C454 1.396 . S
C453 C460 1.403 . S
C454 C444 1.476 . S
C454 N449 1.318 . S
C454 C453 1.396 . S
H455 C450 0.929 . S
O456 Mn432 2.385 . S
O456 C434 1.234 . S
O457 Mn432 2.209 . S
O457 Mn433 2.215 . S
O457 C434 1.283 . S
O458 Mn432 2.094 . S
O458 C436 1.240 . S
O459 Mn433 2.117 . S
O459 C436 1.264 . S
C460 C453 1.403 . S
C460 C461 1.399 . S
C460 H466 0.929 . S
C461 C441 1.449 . S
C461 C460 1.399 . S
C461 H467 0.930 . S
H462 C442 0.931 . S
H463 C443 0.930 . S
H464 C451 0.931 . S
H465 C452 0.929 . S
H466 C460 0.929 . S
H467 C461 0.930 . S
Mn468 O473 2.095 . S
Mn468 O483 2.162 . S
Mn468 O484 2.297 . S
Mn468 O492 2.385 . S
Mn468 O493 2.209 . S
Mn468 O494 2.094 . S
Mn469 O474 2.121 . S
Mn469 N476 2.257 . S
Mn469 N485 2.282 . S
Mn469 O493 2.215 . S
Mn469 O495 2.117 . S
C470 O492 1.234 . S
C470 O493 1.283 . S
C471 O483 1.281 . S
C471 O484 1.236 . S
C472 O494 1.240 . S
C472 O495 1.264 . S
O473 Mn468 2.095 . S
O473 C482 1.250 . S
O474 Mn469 2.121 . S
O474 C482 1.258 . S
C475 N476 1.326 . S
C475 C479 1.460 . S
C475 H481 0.929 . S
N476 Mn469 2.257 . S
N476 C475 1.326 . S
N476 C480 1.362 . S
C477 C478 1.258 . S
C477 C480 1.431 . S
C477 C497 1.449 . S
C478 C477 1.258 . S
C478 C479 1.477 . S
C478 H498 0.931 . S
C479 C475 1.460 . S
C479 C478 1.477 . S
C479 H499 0.930 . S
C480 N476 1.362 . S
C480 C477 1.431 . S
C480 C490 1.476 . S
H481 C475 0.929 . S
C482 O473 1.250 . S
C482 O474 1.258 . S
O483 Mn468 2.162 . S
O483 C471 1.281 . S
O484 Mn468 2.297 . S
O484 C471 1.236 . S
N485 Mn469 2.282 . S
N485 C486 1.328 . S
N485 C490 1.318 . S
C486 N485 1.328 . S
C486 C487 1.457 . S
C486 H491 0.929 . S
C487 C486 1.457 . S
C487 C488 1.291 . S
C487 H500 0.931 . S
C488 C487 1.291 . S
C488 C489 1.373 . S
C488 H501 0.929 . S
C489 C488 1.373 . S
C489 C490 1.396 . S
C489 C496 1.403 . S
C490 C480 1.476 . S
C490 N485 1.318 . S
C490 C489 1.396 . S
H491 C486 0.929 . S
O492 Mn468 2.385 . S
O492 C470 1.234 . S
O493 Mn468 2.209 . S
O493 Mn469 2.215 . S
O493 C470 1.283 . S
O494 Mn468 2.094 . S
O494 C472 1.240 . S
O495 Mn469 2.117 . S
O495 C472 1.264 . S
C496 C489 1.403 . S
C496 C497 1.399 . S
C496 H502 0.929 . S
C497 C477 1.449 . S
C497 C496 1.399 . S
C497 H503 0.930 . S
H498 C478 0.931 . S
H499 C479 0.930 . S
H500 C487 0.931 . S
H501 C488 0.929 . S
H502 C496 0.929 . S
H503 C497 0.930 . S
Mn504 O509 2.095 . S
Mn504 O519 2.162 . S
Mn504 O520 2.297 . S
Mn504 O528 2.385 . S
Mn504 O529 2.209 . S
Mn504 O530 2.094 . S
Mn505 O510 2.121 . S
Mn505 N512 2.257 . S
Mn505 N521 2.282 . S
Mn505 O529 2.215 . S
Mn505 O531 2.117 . S
C506 O528 1.234 . S
C506 O529 1.283 . S
C507 O519 1.281 . S
C507 O520 1.236 . S
C508 O530 1.240 . S
C508 O531 1.264 . S
O509 Mn504 2.095 . S
O509 C518 1.250 . S
O510 Mn505 2.121 . S
O510 C518 1.258 . S
C511 N512 1.326 . S
C511 C515 1.460 . S
C511 H517 0.929 . S
N512 Mn505 2.257 . S
N512 C511 1.326 . S
N512 C516 1.362 . S
C513 C514 1.258 . S
C513 C516 1.431 . S
C513 C533 1.449 . S
C514 C513 1.258 . S
C514 C515 1.477 . S
C514 H534 0.931 . S
C515 C511 1.460 . S
C515 C514 1.477 . S
C515 H535 0.930 . S
C516 N512 1.362 . S
C516 C513 1.431 . S
C516 C526 1.476 . S
H517 C511 0.929 . S
C518 O509 1.250 . S
C518 O510 1.258 . S
O519 Mn504 2.162 . S
O519 C507 1.281 . S
O520 Mn504 2.297 . S
O520 C507 1.236 . S
N521 Mn505 2.282 . S
N521 C522 1.328 . S
N521 C526 1.318 . S
C522 N521 1.328 . S
C522 C523 1.457 . S
C522 H527 0.929 . S
C523 C522 1.457 . S
C523 C524 1.291 . S
C523 H536 0.931 . S
C524 C523 1.291 . S
C524 C525 1.373 . S
C524 H537 0.929 . S
C525 C524 1.373 . S
C525 C526 1.396 . S
C525 C532 1.403 . S
C526 C516 1.476 . S
C526 N521 1.318 . S
C526 C525 1.396 . S
H527 C522 0.929 . S
O528 Mn504 2.385 . S
O528 C506 1.234 . S
O529 Mn504 2.209 . S
O529 Mn505 2.215 . S
O529 C506 1.283 . S
O530 Mn504 2.094 . S
O530 C508 1.240 . S
O531 Mn505 2.117 . S
O531 C508 1.264 . S
C532 C525 1.403 . S
C532 C533 1.399 . S
C532 H538 0.929 . S
C533 C513 1.449 . S
C533 C532 1.399 . S
C533 H539 0.930 . S
H534 C514 0.931 . S
H535 C515 0.930 . S
H536 C523 0.931 . S
H537 C524 0.929 . S
H538 C532 0.929 . S
H539 C533 0.930 . S
Mn540 O545 2.095 . S
Mn540 O555 2.162 . S
Mn540 O556 2.297 . S
Mn540 O564 2.385 . S
Mn540 O565 2.209 . S
Mn540 O566 2.094 . S
Mn541 O546 2.121 . S
Mn541 N548 2.257 . S
Mn541 N557 2.282 . S
Mn541 O565 2.215 . S
Mn541 O567 2.117 . S
C542 O564 1.234 . S
C542 O565 1.283 . S
C543 O555 1.281 . S
C543 O556 1.236 . S
C544 O566 1.240 . S
C544 O567 1.264 . S
O545 Mn540 2.095 . S
O545 C554 1.250 . S
O546 Mn541 2.121 . S
O546 C554 1.258 . S
C547 N548 1.326 . S
C547 C551 1.460 . S
C547 H553 0.929 . S
N548 Mn541 2.257 . S
N548 C547 1.326 . S
N548 C552 1.362 . S
C549 C550 1.258 . S
C549 C552 1.431 . S
C549 C569 1.449 . S
C550 C549 1.258 . S
C550 C551 1.477 . S
C550 H570 0.931 . S
C551 C547 1.460 . S
C551 C550 1.477 . S
C551 H571 0.930 . S
C552 N548 1.362 . S
C552 C549 1.431 . S
C552 C562 1.476 . S
H553 C547 0.929 . S
C554 O545 1.250 . S
C554 O546 1.258 . S
O555 Mn540 2.162 . S
O555 C543 1.281 . S
O556 Mn540 2.297 . S
O556 C543 1.236 . S
N557 Mn541 2.282 . S
N557 C558 1.328 . S
N557 C562 1.318 . S
C558 N557 1.328 . S
C558 C559 1.457 . S
C558 H563 0.929 . S
C559 C558 1.457 . S
C559 C560 1.291 . S
C559 H572 0.931 . S
C560 C559 1.291 . S
C560 C561 1.373 . S
C560 H573 0.929 . S
C561 C560 1.373 . S
C561 C562 1.396 . S
C561 C568 1.403 . S
C562 C552 1.476 . S
C562 N557 1.318 . S
C562 C561 1.396 . S
H563 C558 0.929 . S
O564 Mn540 2.385 . S
O564 C542 1.234 . S
O565 Mn540 2.209 . S
O565 Mn541 2.215 . S
O565 C542 1.283 . S
O566 Mn540 2.094 . S
O566 C544 1.240 . S
O567 Mn541 2.117 . S
O567 C544 1.264 . S
C568 C561 1.403 . S
C568 C569 1.399 . S
C568 H574 0.929 . S
C569 C549 1.449 . S
C569 C568 1.399 . S
C569 H575 0.930 . S
H570 C550 0.931 . S
H571 C551 0.930 . S
H572 C559 0.931 . S
H573 C560 0.929 . S
H574 C568 0.929 . S
H575 C569 0.930 . S
Mn576 O581 2.095 . S
Mn576 O591 2.162 . S
Mn576 O592 2.297 . S
Mn576 O600 2.385 . S
Mn576 O601 2.209 . S
Mn576 O602 2.094 . S
Mn577 O582 2.121 . S
Mn577 N584 2.257 . S
Mn577 N593 2.282 . S
Mn577 O601 2.215 . S
Mn577 O603 2.117 . S
C578 O600 1.234 . S
C578 O601 1.283 . S
C579 O591 1.281 . S
C579 O592 1.236 . S
C580 O602 1.240 . S
C580 O603 1.264 . S
O581 Mn576 2.095 . S
O581 C590 1.250 . S
O582 Mn577 2.121 . S
O582 C590 1.258 . S
C583 N584 1.326 . S
C583 C587 1.460 . S
C583 H589 0.929 . S
N584 Mn577 2.257 . S
N584 C583 1.326 . S
N584 C588 1.362 . S
C585 C586 1.258 . S
C585 C588 1.431 . S
C585 C605 1.449 . S
C586 C585 1.258 . S
C586 C587 1.477 . S
C586 H606 0.931 . S
C587 C583 1.460 . S
C587 C586 1.477 . S
C587 H607 0.930 . S
C588 N584 1.362 . S
C588 C585 1.431 . S
C588 C598 1.476 . S
H589 C583 0.929 . S
C590 O581 1.250 . S
C590 O582 1.258 . S
O591 Mn576 2.162 . S
O591 C579 1.281 . S
O592 Mn576 2.297 . S
O592 C579 1.236 . S
N593 Mn577 2.282 . S
N593 C594 1.328 . S
N593 C598 1.318 . S
C594 N593 1.328 . S
C594 C595 1.457 . S
C594 H599 0.929 . S
C595 C594 1.457 . S
C595 C596 1.291 . S
C595 H608 0.931 . S
C596 C595 1.291 . S
C596 C597 1.373 . S
C596 H609 0.929 . S
C597 C596 1.373 . S
C597 C598 1.396 . S
C597 C604 1.403 . S
C598 C588 1.476 . S
C598 N593 1.318 . S
C598 C597 1.396 . S
H599 C594 0.929 . S
O600 Mn576 2.385 . S
O600 C578 1.234 . S
O601 Mn576 2.209 . S
O601 Mn577 2.215 . S
O601 C578 1.283 . S
O602 Mn576 2.094 . S
O602 C580 1.240 . S
O603 Mn577 2.117 . S
O603 C580 1.264 . S
C604 C597 1.403 . S
C604 C605 1.399 . S
C604 H610 0.929 . S
C605 C585 1.449 . S
C605 C604 1.399 . S
C605 H611 0.930 . S
H606 C586 0.931 . S
H607 C587 0.930 . S
H608 C595 0.931 . S
H609 C596 0.929 . S
H610 C604 0.929 . S
H611 C605 0.930 . S
Mn612 O617 2.095 . S
Mn612 O627 2.162 . S
Mn612 O628 2.297 . S
Mn612 O636 2.385 . S
Mn612 O637 2.209 . S
Mn612 O638 2.094 . S
Mn613 O618 2.121 . S
Mn613 N620 2.257 . S
Mn613 N629 2.282 . S
Mn613 O637 2.215 . S
Mn613 O639 2.117 . S
C614 O636 1.234 . S
C614 O637 1.283 . S
C615 O627 1.281 . S
C615 O628 1.236 . S
C616 O638 1.240 . S
C616 O639 1.264 . S
O617 Mn612 2.095 . S
O617 C626 1.250 . S
O618 Mn613 2.121 . S
O618 C626 1.258 . S
C619 N620 1.326 . S
C619 C623 1.460 . S
C619 H625 0.929 . S
N620 Mn613 2.257 . S
N620 C619 1.326 . S
N620 C624 1.362 . S
C621 C622 1.258 . S
C621 C624 1.431 . S
C621 C641 1.449 . S
C622 C621 1.258 . S
C622 C623 1.477 . S
C622 H642 0.931 . S
C623 C619 1.460 . S
C623 C622 1.477 . S
C623 H643 0.930 . S
C624 N620 1.362 . S
C624 C621 1.431 . S
C624 C634 1.476 . S
H625 C619 0.929 . S
C626 O617 1.250 . S
C626 O618 1.258 . S
O627 Mn612 2.162 . S
O627 C615 1.281 . S
O628 Mn612 2.297 . S
O628 C615 1.236 . S
N629 Mn613 2.282 . S
N629 C630 1.328 . S
N629 C634 1.318 . S
C630 N629 1.328 . S
C630 C631 1.457 . S
C630 H635 0.929 . S
C631 C630 1.457 . S
C631 C632 1.291 . S
C631 H644 0.931 . S
C632 C631 1.291 . S
C632 C633 1.373 . S
C632 H645 0.929 . S
C633 C632 1.373 . S
C633 C634 1.396 . S
C633 C640 1.403 . S
C634 C624 1.476 . S
C634 N629 1.318 . S
C634 C633 1.396 . S
H635 C630 0.929 . S
O636 Mn612 2.385 . S
O636 C614 1.234 . S
O637 Mn612 2.209 . S
O637 Mn613 2.215 . S
O637 C614 1.283 . S
O638 Mn612 2.094 . S
O638 C616 1.240 . S
O639 Mn613 2.117 . S
O639 C616 1.264 . S
C640 C633 1.403 . S
C640 C641 1.399 . S
C640 H646 0.929 . S
C641 C621 1.449 . S
C641 C640 1.399 . S
C641 H647 0.930 . S
H642 C622 0.931 . S
H643 C623 0.930 . S
H644 C631 0.931 . S
H645 C632 0.929 . S
H646 C640 0.929 . S
H647 C641 0.930 . S
Mn648 O653 2.095 . S
Mn648 O663 2.162 . S
Mn648 O664 2.297 . S
Mn648 O672 2.385 . S
Mn648 O673 2.209 . S
Mn648 O674 2.094 . S
Mn649 O654 2.121 . S
Mn649 N656 2.257 . S
Mn649 N665 2.282 . S
Mn649 O673 2.215 . S
Mn649 O675 2.117 . S
C650 O672 1.234 . S
C650 O673 1.283 . S
C651 O663 1.281 . S
C651 O664 1.236 . S
C652 O674 1.240 . S
C652 O675 1.264 . S
O653 Mn648 2.095 . S
O653 C662 1.250 . S
O654 Mn649 2.121 . S
O654 C662 1.258 . S
C655 N656 1.326 . S
C655 C659 1.460 . S
C655 H661 0.929 . S
N656 Mn649 2.257 . S
N656 C655 1.326 . S
N656 C660 1.362 . S
C657 C658 1.258 . S
C657 C660 1.431 . S
C657 C677 1.449 . S
C658 C657 1.258 . S
C658 C659 1.477 . S
C658 H678 0.931 . S
C659 C655 1.460 . S
C659 C658 1.477 . S
C659 H679 0.930 . S
C660 N656 1.362 . S
C660 C657 1.431 . S
C660 C670 1.476 . S
H661 C655 0.929 . S
C662 O653 1.250 . S
C662 O654 1.258 . S
O663 Mn648 2.162 . S
O663 C651 1.281 . S
O664 Mn648 2.297 . S
O664 C651 1.236 . S
N665 Mn649 2.282 . S
N665 C666 1.328 . S
N665 C670 1.318 . S
C666 N665 1.328 . S
C666 C667 1.457 . S
C666 H671 0.929 . S
C667 C666 1.457 . S
C667 C668 1.291 . S
C667 H680 0.931 . S
C668 C667 1.291 . S
C668 C669 1.373 . S
C668 H681 0.929 . S
C669 C668 1.373 . S
C669 C670 1.396 . S
C669 C676 1.403 . S
C670 C660 1.476 . S
C670 N665 1.318 . S
C670 C669 1.396 . S
H671 C666 0.929 . S
O672 Mn648 2.385 . S
O672 C650 1.234 . S
O673 Mn648 2.209 . S
O673 Mn649 2.215 . S
O673 C650 1.283 . S
O674 Mn648 2.094 . S
O674 C652 1.240 . S
O675 Mn649 2.117 . S
O675 C652 1.264 . S
C676 C669 1.403 . S
C676 C677 1.399 . S
C676 H682 0.929 . S
C677 C657 1.449 . S
C677 C676 1.399 . S
C677 H683 0.930 . S
H678 C658 0.931 . S
H679 C659 0.930 . S
H680 C667 0.931 . S
H681 C668 0.929 . S
H682 C676 0.929 . S
H683 C677 0.930 . S
Mn684 O689 2.095 . S
Mn684 O699 2.162 . S
Mn684 O700 2.297 . S
Mn684 O708 2.385 . S
Mn684 O709 2.209 . S
Mn684 O710 2.094 . S
Mn685 O690 2.121 . S
Mn685 N692 2.257 . S
Mn685 N701 2.282 . S
Mn685 O709 2.215 . S
Mn685 O711 2.117 . S
C686 O708 1.234 . S
C686 O709 1.283 . S
C687 O699 1.281 . S
C687 O700 1.236 . S
C688 O710 1.240 . S
C688 O711 1.264 . S
O689 Mn684 2.095 . S
O689 C698 1.250 . S
O690 Mn685 2.121 . S
O690 C698 1.258 . S
C691 N692 1.326 . S
C691 C695 1.460 . S
C691 H697 0.929 . S
N692 Mn685 2.257 . S
N692 C691 1.326 . S
N692 C696 1.362 . S
C693 C694 1.258 . S
C693 C696 1.431 . S
C693 C713 1.449 . S
C694 C693 1.258 . S
C694 C695 1.477 . S
C694 H714 0.931 . S
C695 C691 1.460 . S
C695 C694 1.477 . S
C695 H715 0.930 . S
C696 N692 1.362 . S
C696 C693 1.431 . S
C696 C706 1.476 . S
H697 C691 0.929 . S
C698 O689 1.250 . S
C698 O690 1.258 . S
O699 Mn684 2.162 . S
O699 C687 1.281 . S
O700 Mn684 2.297 . S
O700 C687 1.236 . S
N701 Mn685 2.282 . S
N701 C702 1.328 . S
N701 C706 1.318 . S
C702 N701 1.328 . S
C702 C703 1.457 . S
C702 H707 0.929 . S
C703 C702 1.457 . S
C703 C704 1.291 . S
C703 H716 0.931 . S
C704 C703 1.291 . S
C704 C705 1.373 . S
C704 H717 0.929 . S
C705 C704 1.373 . S
C705 C706 1.396 . S
C705 C712 1.403 . S
C706 C696 1.476 . S
C706 N701 1.318 . S
C706 C705 1.396 . S
H707 C702 0.929 . S
O708 Mn684 2.385 . S
O708 C686 1.234 . S
O709 Mn684 2.209 . S
O709 Mn685 2.215 . S
O709 C686 1.283 . S
O710 Mn684 2.094 . S
O710 C688 1.240 . S
O711 Mn685 2.117 . S
O711 C688 1.264 . S
C712 C705 1.403 . S
C712 C713 1.399 . S
C712 H718 0.929 . S
C713 C693 1.449 . S
C713 C712 1.399 . S
C713 H719 0.930 . S
H714 C694 0.931 . S
H715 C695 0.930 . S
H716 C703 0.931 . S
H717 C704 0.929 . S
H718 C712 0.929 . S
H719 C713 0.930 . S
Mn720 O725 2.095 . S
Mn720 O735 2.162 . S
Mn720 O736 2.297 . S
Mn720 O744 2.385 . S
Mn720 O745 2.209 . S
Mn720 O746 2.094 . S
Mn721 O726 2.121 . S
Mn721 N728 2.257 . S
Mn721 N737 2.282 . S
Mn721 O745 2.215 . S
Mn721 O747 2.117 . S
C722 O744 1.234 . S
C722 O745 1.283 . S
C723 O735 1.281 . S
C723 O736 1.236 . S
C724 O746 1.240 . S
C724 O747 1.264 . S
O725 Mn720 2.095 . S
O725 C734 1.250 . S
O726 Mn721 2.121 . S
O726 C734 1.258 . S
C727 N728 1.326 . S
C727 C731 1.460 . S
C727 H733 0.929 . S
N728 Mn721 2.257 . S
N728 C727 1.326 . S
N728 C732 1.362 . S
C729 C730 1.258 . S
C729 C732 1.431 . S
C729 C749 1.449 . S
C730 C729 1.258 . S
C730 C731 1.477 . S
C730 H750 0.931 . S
C731 C727 1.460 . S
C731 C730 1.477 . S
C731 H751 0.930 . S
C732 N728 1.362 . S
C732 C729 1.431 . S
C732 C742 1.476 . S
H733 C727 0.929 . S
C734 O725 1.250 . S
C734 O726 1.258 . S
O735 Mn720 2.162 . S
O735 C723 1.281 . S
O736 Mn720 2.297 . S
O736 C723 1.236 . S
N737 Mn721 2.282 . S
N737 C738 1.328 . S
N737 C742 1.318 . S
C738 N737 1.328 . S
C738 C739 1.457 . S
C738 H743 0.929 . S
C739 C738 1.457 . S
C739 C740 1.291 . S
C739 H752 0.931 . S
C740 C739 1.291 . S
C740 C741 1.373 . S
C740 H753 0.929 . S
C741 C740 1.373 . S
C741 C742 1.396 . S
C741 C748 1.403 . S
C742 C732 1.476 . S
C742 N737 1.318 . S
C742 C741 1.396 . S
H743 C738 0.929 . S
O744 Mn720 2.385 . S
O744 C722 1.234 . S
O745 Mn720 2.209 . S
O745 Mn721 2.215 . S
O745 C722 1.283 . S
O746 Mn720 2.094 . S
O746 C724 1.240 . S
O747 Mn721 2.117 . S
O747 C724 1.264 . S
C748 C741 1.403 . S
C748 C749 1.399 . S
C748 H754 0.929 . S
C749 C729 1.449 . S
C749 C748 1.399 . S
C749 H755 0.930 . S
H750 C730 0.931 . S
H751 C731 0.930 . S
H752 C739 0.931 . S
H753 C740 0.929 . S
H754 C748 0.929 . S
H755 C749 0.930 . S
Mn756 O761 2.095 . S
Mn756 O771 2.162 . S
Mn756 O772 2.297 . S
Mn756 O780 2.385 . S
Mn756 O781 2.209 . S
Mn756 O782 2.094 . S
Mn757 O762 2.121 . S
Mn757 N764 2.257 . S
Mn757 N773 2.282 . S
Mn757 O781 2.215 . S
Mn757 O783 2.117 . S
C758 O780 1.234 . S
C758 O781 1.283 . S
C759 O771 1.281 . S
C759 O772 1.236 . S
C760 O782 1.240 . S
C760 O783 1.264 . S
O761 Mn756 2.095 . S
O761 C770 1.250 . S
O762 Mn757 2.121 . S
O762 C770 1.258 . S
C763 N764 1.326 . S
C763 C767 1.460 . S
C763 H769 0.929 . S
N764 Mn757 2.257 . S
N764 C763 1.326 . S
N764 C768 1.362 . S
C765 C766 1.258 . S
C765 C768 1.431 . S
C765 C785 1.449 . S
C766 C765 1.258 . S
C766 C767 1.477 . S
C766 H786 0.931 . S
C767 C763 1.460 . S
C767 C766 1.477 . S
C767 H787 0.930 . S
C768 N764 1.362 . S
C768 C765 1.431 . S
C768 C778 1.476 . S
H769 C763 0.929 . S
C770 O761 1.250 . S
C770 O762 1.258 . S
O771 Mn756 2.162 . S
O771 C759 1.281 . S
O772 Mn756 2.297 . S
O772 C759 1.236 . S
N773 Mn757 2.282 . S
N773 C774 1.328 . S
N773 C778 1.318 . S
C774 N773 1.328 . S
C774 C775 1.457 . S
C774 H779 0.929 . S
C775 C774 1.457 . S
C775 C776 1.291 . S
C775 H788 0.931 . S
C776 C775 1.291 . S
C776 C777 1.373 . S
C776 H789 0.929 . S
C777 C776 1.373 . S
C777 C778 1.396 . S
C777 C784 1.403 . S
C778 C768 1.476 . S
C778 N773 1.318 . S
C778 C777 1.396 . S
H779 C774 0.929 . S
O780 Mn756 2.385 . S
O780 C758 1.234 . S
O781 Mn756 2.209 . S
O781 Mn757 2.215 . S
O781 C758 1.283 . S
O782 Mn756 2.094 . S
O782 C760 1.240 . S
O783 Mn757 2.117 . S
O783 C760 1.264 . S
C784 C777 1.403 . S
C784 C785 1.399 . S
C784 H790 0.929 . S
C785 C765 1.449 . S
C785 C784 1.399 . S
C785 H791 0.930 . S
H786 C766 0.931 . S
H787 C767 0.930 . S
H788 C775 0.931 . S
H789 C776 0.929 . S
H790 C784 0.929 . S
H791 C785 0.930 . S
Mn792 O797 2.095 . S
Mn792 O807 2.162 . S
Mn792 O808 2.297 . S
Mn792 O816 2.385 . S
Mn792 O817 2.209 . S
Mn792 O818 2.094 . S
Mn793 O798 2.121 . S
Mn793 N800 2.257 . S
Mn793 N809 2.282 . S
Mn793 O817 2.215 . S
Mn793 O819 2.117 . S
C794 O816 1.234 . S
C794 O817 1.283 . S
C795 O807 1.281 . S
C795 O808 1.236 . S
C796 O818 1.240 . S
C796 O819 1.264 . S
O797 Mn792 2.095 . S
O797 C806 1.250 . S
O798 Mn793 2.121 . S
O798 C806 1.258 . S
C799 N800 1.326 . S
C799 C803 1.460 . S
C799 H805 0.929 . S
N800 Mn793 2.257 . S
N800 C799 1.326 . S
N800 C804 1.362 . S
C801 C802 1.258 . S
C801 C804 1.431 . S
C801 C821 1.449 . S
C802 C801 1.258 . S
C802 C803 1.477 . S
C802 H822 0.931 . S
C803 C799 1.460 . S
C803 C802 1.477 . S
C803 H823 0.930 . S
C804 N800 1.362 . S
C804 C801 1.431 . S
C804 C814 1.476 . S
H805 C799 0.929 . S
C806 O797 1.250 . S
C806 O798 1.258 . S
O807 Mn792 2.162 . S
O807 C795 1.281 . S
O808 Mn792 2.297 . S
O808 C795 1.236 . S
N809 Mn793 2.282 . S
N809 C810 1.328 . S
N809 C814 1.318 . S
C810 N809 1.328 . S
C810 C811 1.457 . S
C810 H815 0.929 . S
C811 C810 1.457 . S
C811 C812 1.291 . S
C811 H824 0.931 . S
C812 C811 1.291 . S
C812 C813 1.373 . S
C812 H825 0.929 . S
C813 C812 1.373 . S
C813 C814 1.396 . S
C813 C820 1.403 . S
C814 C804 1.476 . S
C814 N809 1.318 . S
C814 C813 1.396 . S
H815 C810 0.929 . S
O816 Mn792 2.385 . S
O816 C794 1.234 . S
O817 Mn792 2.209 . S
O817 Mn793 2.215 . S
O817 C794 1.283 . S
O818 Mn792 2.094 . S
O818 C796 1.240 . S
O819 Mn793 2.117 . S
O819 C796 1.264 . S
C820 C813 1.403 . S
C820 C821 1.399 . S
C820 H826 0.929 . S
C821 C801 1.449 . S
C821 C820 1.399 . S
C821 H827 0.930 . S
H822 C802 0.931 . S
H823 C803 0.930 . S
H824 C811 0.931 . S
H825 C812 0.929 . S
H826 C820 0.929 . S
H827 C821 0.930 . S
Mn828 O833 2.095 . S
Mn828 O843 2.162 . S
Mn828 O844 2.297 . S
Mn828 O852 2.385 . S
Mn828 O853 2.209 . S
Mn828 O854 2.094 . S
Mn829 O834 2.121 . S
Mn829 N836 2.257 . S
Mn829 N845 2.282 . S
Mn829 O853 2.215 . S
Mn829 O855 2.117 . S
C830 O852 1.234 . S
C830 O853 1.283 . S
C831 O843 1.281 . S
C831 O844 1.236 . S
C832 O854 1.240 . S
C832 O855 1.264 . S
O833 Mn828 2.095 . S
O833 C842 1.250 . S
O834 Mn829 2.121 . S
O834 C842 1.258 . S
C835 N836 1.326 . S
C835 C839 1.460 . S
C835 H841 0.929 . S
N836 Mn829 2.257 . S
N836 C835 1.326 . S
N836 C840 1.362 . S
C837 C838 1.258 . S
C837 C840 1.431 . S
C837 C857 1.449 . S
C838 C837 1.258 . S
C838 C839 1.477 . S
C838 H858 0.931 . S
C839 C835 1.460 . S
C839 C838 1.477 . S
C839 H859 0.930 . S
C840 N836 1.362 . S
C840 C837 1.431 . S
C840 C850 1.476 . S
H841 C835 0.929 . S
C842 O833 1.250 . S
C842 O834 1.258 . S
O843 Mn828 2.162 . S
O843 C831 1.281 . S
O844 Mn828 2.297 . S
O844 C831 1.236 . S
N845 Mn829 2.282 . S
N845 C846 1.328 . S
N845 C850 1.318 . S
C846 N845 1.328 . S
C846 C847 1.457 . S
C846 H851 0.929 . S
C847 C846 1.457 . S
C847 C848 1.291 . S
C847 H860 0.931 . S
C848 C847 1.291 . S
C848 C849 1.373 . S
C848 H861 0.929 . S
C849 C848 1.373 . S
C849 C850 1.396 . S
C849 C856 1.403 . S
C850 C840 1.476 . S
C850 N845 1.318 . S
C850 C849 1.396 . S
H851 C846 0.929 . S
O852 Mn828 2.385 . S
O852 C830 1.234 . S
O853 Mn828 2.209 . S
O853 Mn829 2.215 . S
O853 C830 1.283 . S
O854 Mn828 2.094 . S
O854 C832 1.240 . S
O855 Mn829 2.117 . S
O855 C832 1.264 . S
C856 C849 1.403 . S
C856 C857 1.399 . S
C856 H862 0.929 . S
C857 C837 1.449 . S
C857 C856 1.399 . S
C857 H863 0.930 . S
H858 C838 0.931 . S
H859 C839 0.930 . S
H860 C847 0.931 . S
H861 C848 0.929 . S
H862 C856 0.929 . S
H863 C857 0.930 . S
Mn864 O869 2.095 . S
Mn864 O879 2.162 . S
Mn864 O880 2.297 . S
Mn864 O888 2.385 . S
Mn864 O889 2.209 . S
Mn864 O890 2.094 . S
Mn865 O870 2.121 . S
Mn865 N872 2.257 . S
Mn865 N881 2.282 . S
Mn865 O889 2.215 . S
Mn865 O891 2.117 . S
C866 O888 1.234 . S
C866 O889 1.283 . S
C867 O879 1.281 . S
C867 O880 1.236 . S
C868 O890 1.240 . S
C868 O891 1.264 . S
O869 Mn864 2.095 . S
O869 C878 1.250 . S
O870 Mn865 2.121 . S
O870 C878 1.258 . S
C871 N872 1.326 . S
C871 C875 1.460 . S
C871 H877 0.929 . S
N872 Mn865 2.257 . S
N872 C871 1.326 . S
N872 C876 1.362 . S
C873 C874 1.258 . S
C873 C876 1.431 . S
C873 C893 1.449 . S
C874 C873 1.258 . S
C874 C875 1.477 . S
C874 H894 0.931 . S
C875 C871 1.460 . S
C875 C874 1.477 . S
C875 H895 0.930 . S
C876 N872 1.362 . S
C876 C873 1.431 . S
C876 C886 1.476 . S
H877 C871 0.929 . S
C878 O869 1.250 . S
C878 O870 1.258 . S
O879 Mn864 2.162 . S
O879 C867 1.281 . S
O880 Mn864 2.297 . S
O880 C867 1.236 . S
N881 Mn865 2.282 . S
N881 C882 1.328 . S
N881 C886 1.318 . S
C882 N881 1.328 . S
C882 C883 1.457 . S
C882 H887 0.929 . S
C883 C882 1.457 . S
C883 C884 1.291 . S
C883 H896 0.931 . S
C884 C883 1.291 . S
C884 C885 1.373 . S
C884 H897 0.929 . S
C885 C884 1.373 . S
C885 C886 1.396 . S
C885 C892 1.403 . S
C886 C876 1.476 . S
C886 N881 1.318 . S
C886 C885 1.396 . S
H887 C882 0.929 . S
O888 Mn864 2.385 . S
O888 C866 1.234 . S
O889 Mn864 2.209 . S
O889 Mn865 2.215 . S
O889 C866 1.283 . S
O890 Mn864 2.094 . S
O890 C868 1.240 . S
O891 Mn865 2.117 . S
O891 C868 1.264 . S
C892 C885 1.403 . S
C892 C893 1.399 . S
C892 H898 0.929 . S
C893 C873 1.449 . S
C893 C892 1.399 . S
C893 H899 0.930 . S
H894 C874 0.931 . S
H895 C875 0.930 . S
H896 C883 0.931 . S
H897 C884 0.929 . S
H898 C892 0.929 . S
H899 C893 0.930 . S
Mn900 O905 2.095 . S
Mn900 O915 2.162 . S
Mn900 O916 2.297 . S
Mn900 O924 2.385 . S
Mn900 O925 2.209 . S
Mn900 O926 2.094 . S
Mn901 O906 2.121 . S
Mn901 N908 2.257 . S
Mn901 N917 2.282 . S
Mn901 O925 2.215 . S
Mn901 O927 2.117 . S
C902 O924 1.234 . S
C902 O925 1.283 . S
C903 O915 1.281 . S
C903 O916 1.236 . S
C904 O926 1.240 . S
C904 O927 1.264 . S
O905 Mn900 2.095 . S
O905 C914 1.250 . S
O906 Mn901 2.121 . S
O906 C914 1.258 . S
C907 N908 1.326 . S
C907 C911 1.460 . S
C907 H913 0.929 . S
N908 Mn901 2.257 . S
N908 C907 1.326 . S
N908 C912 1.362 . S
C909 C910 1.258 . S
C909 C912 1.431 . S
C909 C929 1.449 . S
C910 C909 1.258 . S
C910 C911 1.477 . S
C910 H930 0.931 . S
C911 C907 1.460 . S
C911 C910 1.477 . S
C911 H931 0.930 . S
C912 N908 1.362 . S
C912 C909 1.431 . S
C912 C922 1.476 . S
H913 C907 0.929 . S
C914 O905 1.250 . S
C914 O906 1.258 . S
O915 Mn900 2.162 . S
O915 C903 1.281 . S
O916 Mn900 2.297 . S
O916 C903 1.236 . S
N917 Mn901 2.282 . S
N917 C918 1.328 . S
N917 C922 1.318 . S
C918 N917 1.328 . S
C918 C919 1.457 . S
C918 H923 0.929 . S
C919 C918 1.457 . S
C919 C920 1.291 . S
C919 H932 0.931 . S
C920 C919 1.291 . S
C920 C921 1.373 . S
C920 H933 0.929 . S
C921 C920 1.373 . S
C921 C922 1.396 . S
C921 C928 1.403 . S
C922 C912 1.476 . S
C922 N917 1.318 . S
C922 C921 1.396 . S
H923 C918 0.929 . S
O924 Mn900 2.385 . S
O924 C902 1.234 . S
O925 Mn900 2.209 . S
O925 Mn901 2.215 . S
O925 C902 1.283 . S
O926 Mn900 2.094 . S
O926 C904 1.240 . S
O927 Mn901 2.117 . S
O927 C904 1.264 . S
C928 C921 1.403 . S
C928 C929 1.399 . S
C928 H934 0.929 . S
C929 C909 1.449 . S
C929 C928 1.399 . S
C929 H935 0.930 . S
H930 C910 0.931 . S
H931 C911 0.930 . S
H932 C919 0.931 . S
H933 C920 0.929 . S
H934 C928 0.929 . S
H935 C929 0.930 . S
Mn936 O941 2.095 . S
Mn936 O951 2.162 . S
Mn936 O952 2.297 . S
Mn936 O960 2.385 . S
Mn936 O961 2.209 . S
Mn936 O962 2.094 . S
Mn937 O942 2.121 . S
Mn937 N944 2.257 . S
Mn937 N953 2.282 . S
Mn937 O961 2.215 . S
Mn937 O963 2.117 . S
C938 O960 1.234 . S
C938 O961 1.283 . S
C939 O951 1.281 . S
C939 O952 1.236 . S
C940 O962 1.240 . S
C940 O963 1.264 . S
O941 Mn936 2.095 . S
O941 C950 1.250 . S
O942 Mn937 2.121 . S
O942 C950 1.258 . S
C943 N944 1.326 . S
C943 C947 1.460 . S
C943 H949 0.929 . S
N944 Mn937 2.257 . S
N944 C943 1.326 . S
N944 C948 1.362 . S
C945 C946 1.258 . S
C945 C948 1.431 . S
C945 C965 1.449 . S
C946 C945 1.258 . S
C946 C947 1.477 . S
C946 H966 0.931 . S
C947 C943 1.460 . S
C947 C946 1.477 . S
C947 H967 0.930 . S
C948 N944 1.362 . S
C948 C945 1.431 . S
C948 C958 1.476 . S
H949 C943 0.929 . S
C950 O941 1.250 . S
C950 O942 1.258 . S
O951 Mn936 2.162 . S
O951 C939 1.281 . S
O952 Mn936 2.297 . S
O952 C939 1.236 . S
N953 Mn937 2.282 . S
N953 C954 1.328 . S
N953 C958 1.318 . S
C954 N953 1.328 . S
C954 C955 1.457 . S
C954 H959 0.929 . S
C955 C954 1.457 . S
C955 C956 1.291 . S
C955 H968 0.931 . S
C956 C955 1.291 . S
C956 C957 1.373 . S
C956 H969 0.929 . S
C957 C956 1.373 . S
C957 C958 1.396 . S
C957 C964 1.403 . S
C958 C948 1.476 . S
C958 N953 1.318 . S
C958 C957 1.396 . S
H959 C954 0.929 . S
O960 Mn936 2.385 . S
O960 C938 1.234 . S
O961 Mn936 2.209 . S
O961 Mn937 2.215 . S
O961 C938 1.283 . S
O962 Mn936 2.094 . S
O962 C940 1.240 . S
O963 Mn937 2.117 . S
O963 C940 1.264 . S
C964 C957 1.403 . S
C964 C965 1.399 . S
C964 H970 0.929 . S
C965 C945 1.449 . S
C965 C964 1.399 . S
C965 H971 0.930 . S
H966 C946 0.931 . S
H967 C947 0.930 . S
H968 C955 0.931 . S
H969 C956 0.929 . S
H970 C964 0.929 . S
H971 C965 0.930 . S
Mn972 O977 2.095 . S
Mn972 O987 2.162 . S
Mn972 O988 2.297 . S
Mn972 O996 2.385 . S
Mn972 O997 2.209 . S
Mn972 O998 2.094 . S
Mn973 O978 2.121 . S
Mn973 N980 2.257 . S
Mn973 N989 2.282 . S
Mn973 O997 2.215 . S
Mn973 O999 2.117 . S
C974 O996 1.234 . S
C974 O997 1.283 . S
C975 O987 1.281 . S
C975 O988 1.236 . S
C976 O998 1.240 . S
C976 O999 1.264 . S
O977 Mn972 2.095 . S
O977 C986 1.250 . S
O978 Mn973 2.121 . S
O978 C986 1.258 . S
C979 N980 1.326 . S
C979 C983 1.460 . S
C979 H985 0.929 . S
N980 Mn973 2.257 . S
N980 C979 1.326 . S
N980 C984 1.362 . S
C981 C982 1.258 . S
C981 C984 1.431 . S
C981 C1001 1.449 . S
C982 C981 1.258 . S
C982 C983 1.477 . S
C982 H1002 0.931 . S
C983 C979 1.460 . S
C983 C982 1.477 . S
C983 H1003 0.930 . S
C984 N980 1.362 . S
C984 C981 1.431 . S
C984 C994 1.476 . S
H985 C979 0.929 . S
C986 O977 1.250 . S
C986 O978 1.258 . S
O987 Mn972 2.162 . S
O987 C975 1.281 . S
O988 Mn972 2.297 . S
O988 C975 1.236 . S
N989 Mn973 2.282 . S
N989 C990 1.328 . S
N989 C994 1.318 . S
C990 N989 1.328 . S
C990 C991 1.457 . S
C990 H995 0.929 . S
C991 C990 1.457 . S
C991 C992 1.291 . S
C991 H1004 0.931 . S
C992 C991 1.291 . S
C992 C993 1.373 . S
C992 H1005 0.929 . S
C993 C992 1.373 . S
C993 C994 1.396 . S
C993 C1000 1.403 . S
C994 C984 1.476 . S
C994 N989 1.318 . S
C994 C993 1.396 . S
H995 C990 0.929 . S
O996 Mn972 2.385 . S
O996 C974 1.234 . S
O997 Mn972 2.209 . S
O997 Mn973 2.215 . S
O997 C974 1.283 . S
O998 Mn972 2.094 . S
O998 C976 1.240 . S
O999 Mn973 2.117 . S
O999 C976 1.264 . S
C1000 C993 1.403 . S
C1000 C1001 1.399 . S
C1000 H1006 0.929 . S
C1001 C981 1.449 . S
C1001 C1000 1.399 . S
C1001 H1007 0.930 . S
H1002 C982 0.931 . S
H1003 C983 0.930 . S
H1004 C991 0.931 . S
H1005 C992 0.929 . S
H1006 C1000 0.929 . S
H1007 C1001 0.930 . S
Mn1008 O1013 2.095 . S
Mn1008 O1023 2.162 . S
Mn1008 O1024 2.297 . S
Mn1008 O1032 2.385 . S
Mn1008 O1033 2.209 . S
Mn1008 O1034 2.094 . S
Mn1009 O1014 2.121 . S
Mn1009 N1016 2.257 . S
Mn1009 N1025 2.282 . S
Mn1009 O1033 2.215 . S
Mn1009 O1035 2.117 . S
C1010 O1032 1.234 . S
C1010 O1033 1.283 . S
C1011 O1023 1.281 . S
C1011 O1024 1.236 . S
C1012 O1034 1.240 . S
C1012 O1035 1.264 . S
O1013 Mn1008 2.095 . S
O1013 C1022 1.250 . S
O1014 Mn1009 2.121 . S
O1014 C1022 1.258 . S
C1015 N1016 1.326 . S
C1015 C1019 1.460 . S
C1015 H1021 0.929 . S
N1016 Mn1009 2.257 . S
N1016 C1015 1.326 . S
N1016 C1020 1.362 . S
C1017 C1018 1.258 . S
C1017 C1020 1.431 . S
C1017 C1037 1.449 . S
C1018 C1017 1.258 . S
C1018 C1019 1.477 . S
C1018 H1038 0.931 . S
C1019 C1015 1.460 . S
C1019 C1018 1.477 . S
C1019 H1039 0.930 . S
C1020 N1016 1.362 . S
C1020 C1017 1.431 . S
C1020 C1030 1.476 . S
H1021 C1015 0.929 . S
C1022 O1013 1.250 . S
C1022 O1014 1.258 . S
O1023 Mn1008 2.162 . S
O1023 C1011 1.281 . S
O1024 Mn1008 2.297 . S
O1024 C1011 1.236 . S
N1025 Mn1009 2.282 . S
N1025 C1026 1.328 . S
N1025 C1030 1.318 . S
C1026 N1025 1.328 . S
C1026 C1027 1.457 . S
C1026 H1031 0.929 . S
C1027 C1026 1.457 . S
C1027 C1028 1.291 . S
C1027 H1040 0.931 . S
C1028 C1027 1.291 . S
C1028 C1029 1.373 . S
C1028 H1041 0.929 . S
C1029 C1028 1.373 . S
C1029 C1030 1.396 . S
C1029 C1036 1.403 . S
C1030 C1020 1.476 . S
C1030 N1025 1.318 . S
C1030 C1029 1.396 . S
H1031 C1026 0.929 . S
O1032 Mn1008 2.385 . S
O1032 C1010 1.234 . S
O1033 Mn1008 2.209 . S
O1033 Mn1009 2.215 . S
O1033 C1010 1.283 . S
O1034 Mn1008 2.094 . S
O1034 C1012 1.240 . S
O1035 Mn1009 2.117 . S
O1035 C1012 1.264 . S
C1036 C1029 1.403 . S
C1036 C1037 1.399 . S
C1036 H1042 0.929 . S
C1037 C1017 1.449 . S
C1037 C1036 1.399 . S
C1037 H1043 0.930 . S
H1038 C1018 0.931 . S
H1039 C1019 0.930 . S
H1040 C1027 0.931 . S
H1041 C1028 0.929 . S
H1042 C1036 0.929 . S
H1043 C1037 0.930 . S
Mn1044 O1049 2.095 . S
Mn1044 O1059 2.162 . S
Mn1044 O1060 2.297 . S
Mn1044 O1068 2.385 . S
Mn1044 O1069 2.209 . S
Mn1044 O1070 2.094 . S
Mn1045 O1050 2.121 . S
Mn1045 N1052 2.257 . S
Mn1045 N1061 2.282 . S
Mn1045 O1069 2.215 . S
Mn1045 O1071 2.117 . S
C1046 O1068 1.234 . S
C1046 O1069 1.283 . S
C1047 O1059 1.281 . S
C1047 O1060 1.236 . S
C1048 O1070 1.240 . S
C1048 O1071 1.264 . S
O1049 Mn1044 2.095 . S
O1049 C1058 1.250 . S
O1050 Mn1045 2.121 . S
O1050 C1058 1.258 . S
C1051 N1052 1.326 . S
C1051 C1055 1.460 . S
C1051 H1057 0.929 . S
N1052 Mn1045 2.257 . S
N1052 C1051 1.326 . S
N1052 C1056 1.362 . S
C1053 C1054 1.258 . S
C1053 C1056 1.431 . S
C1053 C1073 1.449 . S
C1054 C1053 1.258 . S
C1054 C1055 1.477 . S
C1054 H1074 0.931 . S
C1055 C1051 1.460 . S
C1055 C1054 1.477 . S
C1055 H1075 0.930 . S
C1056 N1052 1.362 . S
C1056 C1053 1.431 . S
C1056 C1066 1.476 . S
H1057 C1051 0.929 . S
C1058 O1049 1.250 . S
C1058 O1050 1.258 . S
O1059 Mn1044 2.162 . S
O1059 C1047 1.281 . S
O1060 Mn1044 2.297 . S
O1060 C1047 1.236 . S
N1061 Mn1045 2.282 . S
N1061 C1062 1.328 . S
N1061 C1066 1.318 . S
C1062 N1061 1.328 . S
C1062 C1063 1.457 . S
C1062 H1067 0.929 . S
C1063 C1062 1.457 . S
C1063 C1064 1.291 . S
C1063 H1076 0.931 . S
C1064 C1063 1.291 . S
C1064 C1065 1.373 . S
C1064 H1077 0.929 . S
C1065 C1064 1.373 . S
C1065 C1066 1.396 . S
C1065 C1072 1.403 . S
C1066 C1056 1.476 . S
C1066 N1061 1.318 . S
C1066 C1065 1.396 . S
H1067 C1062 0.929 . S
O1068 Mn1044 2.385 . S
O1068 C1046 1.234 . S
O1069 Mn1044 2.209 . S
O1069 Mn1045 2.215 . S
O1069 C1046 1.283 . S
O1070 Mn1044 2.094 . S
O1070 C1048 1.240 . S
O1071 Mn1045 2.117 . S
O1071 C1048 1.264 . S
C1072 C1065 1.403 . S
C1072 C1073 1.399 . S
C1072 H1078 0.929 . S
C1073 C1053 1.449 . S
C1073 C1072 1.399 . S
C1073 H1079 0.930 . S
H1074 C1054 0.931 . S
H1075 C1055 0.930 . S
H1076 C1063 0.931 . S
H1077 C1064 0.929 . S
H1078 C1072 0.929 . S
H1079 C1073 0.930 . S
Mn1080 O1085 2.095 . S
Mn1080 O1095 2.162 . S
Mn1080 O1096 2.297 . S
Mn1080 O1104 2.385 . S
Mn1080 O1105 2.209 . S
Mn1080 O1106 2.094 . S
Mn1081 O1086 2.121 . S
Mn1081 N1088 2.257 . S
Mn1081 N1097 2.282 . S
Mn1081 O1105 2.215 . S
Mn1081 O1107 2.117 . S
C1082 O1104 1.234 . S
C1082 O1105 1.283 . S
C1083 O1095 1.281 . S
C1083 O1096 1.236 . S
C1084 O1106 1.240 . S
C1084 O1107 1.264 . S
O1085 Mn1080 2.095 . S
O1085 C1094 1.250 . S
O1086 Mn1081 2.121 . S
O1086 C1094 1.258 . S
C1087 N1088 1.326 . S
C1087 C1091 1.460 . S
C1087 H1093 0.929 . S
N1088 Mn1081 2.257 . S
N1088 C1087 1.326 . S
N1088 C1092 1.362 . S
C1089 C1090 1.258 . S
C1089 C1092 1.431 . S
C1089 C1109 1.449 . S
C1090 C1089 1.258 . S
C1090 C1091 1.477 . S
C1090 H1110 0.931 . S
C1091 C1087 1.460 . S
C1091 C1090 1.477 . S
C1091 H1111 0.930 . S
C1092 N1088 1.362 . S
C1092 C1089 1.431 . S
C1092 C1102 1.476 . S
H1093 C1087 0.929 . S
C1094 O1085 1.250 . S
C1094 O1086 1.258 . S
O1095 Mn1080 2.162 . S
O1095 C1083 1.281 . S
O1096 Mn1080 2.297 . S
O1096 C1083 1.236 . S
N1097 Mn1081 2.282 . S
N1097 C1098 1.328 . S
N1097 C1102 1.318 . S
C1098 N1097 1.328 . S
C1098 C1099 1.457 . S
C1098 H1103 0.929 . S
C1099 C1098 1.457 . S
C1099 C1100 1.291 . S
C1099 H1112 0.931 . S
C1100 C1099 1.291 . S
C1100 C1101 1.373 . S
C1100 H1113 0.929 . S
C1101 C1100 1.373 . S
C1101 C1102 1.396 . S
C1101 C1108 1.403 . S
C1102 C1092 1.476 . S
C1102 N1097 1.318 . S
C1102 C1101 1.396 . S
H1103 C1098 0.929 . S
O1104 Mn1080 2.385 . S
O1104 C1082 1.234 . S
O1105 Mn1080 2.209 . S
O1105 Mn1081 2.215 . S
O1105 C1082 1.283 . S
O1106 Mn1080 2.094 . S
O1106 C1084 1.240 . S
O1107 Mn1081 2.117 . S
O1107 C1084 1.264 . S
C1108 C1101 1.403 . S
C1108 C1109 1.399 . S
C1108 H1114 0.929 . S
C1109 C1089 1.449 . S
C1109 C1108 1.399 . S
C1109 H1115 0.930 . S
H1110 C1090 0.931 . S
H1111 C1091 0.930 . S
H1112 C1099 0.931 . S
H1113 C1100 0.929 . S
H1114 C1108 0.929 . S
H1115 C1109 0.930 . S
Mn1116 O1121 2.095 . S
Mn1116 O1131 2.162 . S
Mn1116 O1132 2.297 . S
Mn1116 O1140 2.385 . S
Mn1116 O1141 2.209 . S
Mn1116 O1142 2.094 . S
Mn1117 O1122 2.121 . S
Mn1117 N1124 2.257 . S
Mn1117 N1133 2.282 . S
Mn1117 O1141 2.215 . S
Mn1117 O1143 2.117 . S
C1118 O1140 1.234 . S
C1118 O1141 1.283 . S
C1119 O1131 1.281 . S
C1119 O1132 1.236 . S
C1120 O1142 1.240 . S
C1120 O1143 1.264 . S
O1121 Mn1116 2.095 . S
O1121 C1130 1.250 . S
O1122 Mn1117 2.121 . S
O1122 C1130 1.258 . S
C1123 N1124 1.326 . S
C1123 C1127 1.460 . S
C1123 H1129 0.929 . S
N1124 Mn1117 2.257 . S
N1124 C1123 1.326 . S
N1124 C1128 1.362 . S
C1125 C1126 1.258 . S
C1125 C1128 1.431 . S
C1125 C1145 1.449 . S
C1126 C1125 1.258 . S
C1126 C1127 1.477 . S
C1126 H1146 0.931 . S
C1127 C1123 1.460 . S
C1127 C1126 1.477 . S
C1127 H1147 0.930 . S
C1128 N1124 1.362 . S
C1128 C1125 1.431 . S
C1128 C1138 1.476 . S
H1129 C1123 0.929 . S
C1130 O1121 1.250 . S
C1130 O1122 1.258 . S
O1131 Mn1116 2.162 . S
O1131 C1119 1.281 . S
O1132 Mn1116 2.297 . S
O1132 C1119 1.236 . S
N1133 Mn1117 2.282 . S
N1133 C1134 1.328 . S
N1133 C1138 1.318 . S
C1134 N1133 1.328 . S
C1134 C1135 1.457 . S
C1134 H1139 0.929 . S
C1135 C1134 1.457 . S
C1135 C1136 1.291 . S
C1135 H1148 0.931 . S
C1136 C1135 1.291 . S
C1136 C1137 1.373 . S
C1136 H1149 0.929 . S
C1137 C1136 1.373 . S
C1137 C1138 1.396 . S
C1137 C1144 1.403 . S
C1138 C1128 1.476 . S
C1138 N1133 1.318 . S
C1138 C1137 1.396 . S
H1139 C1134 0.929 . S
O1140 Mn1116 2.385 . S
O1140 C1118 1.234 . S
O1141 Mn1116 2.209 . S
O1141 Mn1117 2.215 . S
O1141 C1118 1.283 . S
O1142 Mn1116 2.094 . S
O1142 C1120 1.240 . S
O1143 Mn1117 2.117 . S
O1143 C1120 1.264 . S
C1144 C1137 1.403 . S
C1144 C1145 1.399 . S
C1144 H1150 0.929 . S
C1145 C1125 1.449 . S
C1145 C1144 1.399 . S
C1145 H1151 0.930 . S
H1146 C1126 0.931 . S
H1147 C1127 0.930 . S
H1148 C1135 0.931 . S
H1149 C1136 0.929 . S
H1150 C1144 0.929 . S
H1151 C1145 0.930 . S
Mn1152 O1157 2.095 . S
Mn1152 O1167 2.162 . S
Mn1152 O1168 2.297 . S
Mn1152 O1176 2.385 . S
Mn1152 O1177 2.209 . S
Mn1152 O1178 2.094 . S
Mn1153 O1158 2.121 . S
Mn1153 N1160 2.257 . S
Mn1153 N1169 2.282 . S
Mn1153 O1177 2.215 . S
Mn1153 O1179 2.117 . S
C1154 O1176 1.234 . S
C1154 O1177 1.283 . S
C1155 O1167 1.281 . S
C1155 O1168 1.236 . S
C1156 O1178 1.240 . S
C1156 O1179 1.264 . S
O1157 Mn1152 2.095 . S
O1157 C1166 1.250 . S
O1158 Mn1153 2.121 . S
O1158 C1166 1.258 . S
C1159 N1160 1.326 . S
C1159 C1163 1.460 . S
C1159 H1165 0.929 . S
N1160 Mn1153 2.257 . S
N1160 C1159 1.326 . S
N1160 C1164 1.362 . S
C1161 C1162 1.258 . S
C1161 C1164 1.431 . S
C1161 C1181 1.449 . S
C1162 C1161 1.258 . S
C1162 C1163 1.477 . S
C1162 H1182 0.931 . S
C1163 C1159 1.460 . S
C1163 C1162 1.477 . S
C1163 H1183 0.930 . S
C1164 N1160 1.362 . S
C1164 C1161 1.431 . S
C1164 C1174 1.476 . S
H1165 C1159 0.929 . S
C1166 O1157 1.250 . S
C1166 O1158 1.258 . S
O1167 Mn1152 2.162 . S
O1167 C1155 1.281 . S
O1168 Mn1152 2.297 . S
O1168 C1155 1.236 . S
N1169 Mn1153 2.282 . S
N1169 C1170 1.328 . S
N1169 C1174 1.318 . S
C1170 N1169 1.328 . S
C1170 C1171 1.457 . S
C1170 H1175 0.929 . S
C1171 C1170 1.457 . S
C1171 C1172 1.291 . S
C1171 H1184 0.931 . S
C1172 C1171 1.291 . S
C1172 C1173 1.373 . S
C1172 H1185 0.929 . S
C1173 C1172 1.373 . S
C1173 C1174 1.396 . S
C1173 C1180 1.403 . S
C1174 C1164 1.476 . S
C1174 N1169 1.318 . S
C1174 C1173 1.396 . S
H1175 C1170 0.929 . S
O1176 Mn1152 2.385 . S
O1176 C1154 1.234 . S
O1177 Mn1152 2.209 . S
O1177 Mn1153 2.215 . S
O1177 C1154 1.283 . S
O1178 Mn1152 2.094 . S
O1178 C1156 1.240 . S
O1179 Mn1153 2.117 . S
O1179 C1156 1.264 . S
C1180 C1173 1.403 . S
C1180 C1181 1.399 . S
C1180 H1186 0.929 . S
C1181 C1161 1.449 . S
C1181 C1180 1.399 . S
C1181 H1187 0.930 . S
H1182 C1162 0.931 . S
H1183 C1163 0.930 . S
H1184 C1171 0.931 . S
H1185 C1172 0.929 . S
H1186 C1180 0.929 . S
H1187 C1181 0.930 . S
Mn1188 O1193 2.095 . S
Mn1188 O1203 2.162 . S
Mn1188 O1204 2.297 . S
Mn1188 O1212 2.385 . S
Mn1188 O1213 2.209 . S
Mn1188 O1214 2.094 . S
Mn1189 O1194 2.121 . S
Mn1189 N1196 2.257 . S
Mn1189 N1205 2.282 . S
Mn1189 O1213 2.215 . S
Mn1189 O1215 2.117 . S
C1190 O1212 1.234 . S
C1190 O1213 1.283 . S
C1191 O1203 1.281 . S
C1191 O1204 1.236 . S
C1192 O1214 1.240 . S
C1192 O1215 1.264 . S
O1193 Mn1188 2.095 . S
O1193 C1202 1.250 . S
O1194 Mn1189 2.121 . S
O1194 C1202 1.258 . S
C1195 N1196 1.326 . S
C1195 C1199 1.460 . S
C1195 H1201 0.929 . S
N1196 Mn1189 2.257 . S
N1196 C1195 1.326 . S
N1196 C1200 1.362 . S
C1197 C1198 1.258 . S
C1197 C1200 1.431 . S
C1197 C1217 1.449 . S
C1198 C1197 1.258 . S
C1198 C1199 1.477 . S
C1198 H1218 0.931 . S
C1199 C1195 1.460 . S
C1199 C1198 1.477 . S
C1199 H1219 0.930 . S
C1200 N1196 1.362 . S
C1200 C1197 1.431 . S
C1200 C1210 1.476 . S
H1201 C1195 0.929 . S
C1202 O1193 1.250 . S
C1202 O1194 1.258 . S
O1203 Mn1188 2.162 . S
O1203 C1191 1.281 . S
O1204 Mn1188 2.297 . S
O1204 C1191 1.236 . S
N1205 Mn1189 2.282 . S
N1205 C1206 1.328 . S
N1205 C1210 1.318 . S
C1206 N1205 1.328 . S
C1206 C1207 1.457 . S
C1206 H1211 0.929 . S
C1207 C1206 1.457 . S
C1207 C1208 1.291 . S
C1207 H1220 0.931 . S
C1208 C1207 1.291 . S
C1208 C1209 1.373 . S
C1208 H1221 0.929 . S
C1209 C1208 1.373 . S
C1209 C1210 1.396 . S
C1209 C1216 1.403 . S
C1210 C1200 1.476 . S
C1210 N1205 1.318 . S
C1210 C1209 1.396 . S
H1211 C1206 0.929 . S
O1212 Mn1188 2.385 . S
O1212 C1190 1.234 . S
O1213 Mn1188 2.209 . S
O1213 Mn1189 2.215 . S
O1213 C1190 1.283 . S
O1214 Mn1188 2.094 . S
O1214 C1192 1.240 . S
O1215 Mn1189 2.117 . S
O1215 C1192 1.264 . S
C1216 C1209 1.403 . S
C1216 C1217 1.399 . S
C1216 H1222 0.929 . S
C1217 C1197 1.449 . S
C1217 C1216 1.399 . S
C1217 H1223 0.930 . S
H1218 C1198 0.931 . S
H1219 C1199 0.930 . S
H1220 C1207 0.931 . S
H1221 C1208 0.929 . S
H1222 C1216 0.929 . S
H1223 C1217 0.930 . S
Mn1224 O1229 2.095 . S
Mn1224 O1239 2.162 . S
Mn1224 O1240 2.297 . S
Mn1224 O1248 2.385 . S
Mn1224 O1249 2.209 . S
Mn1224 O1250 2.094 . S
Mn1225 O1230 2.121 . S
Mn1225 N1232 2.257 . S
Mn1225 N1241 2.282 . S
Mn1225 O1249 2.215 . S
Mn1225 O1251 2.117 . S
C1226 O1248 1.234 . S
C1226 O1249 1.283 . S
C1227 O1239 1.281 . S
C1227 O1240 1.236 . S
C1228 O1250 1.240 . S
C1228 O1251 1.264 . S
O1229 Mn1224 2.095 . S
O1229 C1238 1.250 . S
O1230 Mn1225 2.121 . S
O1230 C1238 1.258 . S
C1231 N1232 1.326 . S
C1231 C1235 1.460 . S
C1231 H1237 0.929 . S
N1232 Mn1225 2.257 . S
N1232 C1231 1.326 . S
N1232 C1236 1.362 . S
C1233 C1234 1.258 . S
C1233 C1236 1.431 . S
C1233 C1253 1.449 . S
C1234 C1233 1.258 . S
C1234 C1235 1.477 . S
C1234 H1254 0.931 . S
C1235 C1231 1.460 . S
C1235 C1234 1.477 . S
C1235 H1255 0.930 . S
C1236 N1232 1.362 . S
C1236 C1233 1.431 . S
C1236 C1246 1.476 . S
H1237 C1231 0.929 . S
C1238 O1229 1.250 . S
C1238 O1230 1.258 . S
O1239 Mn1224 2.162 . S
O1239 C1227 1.281 . S
O1240 Mn1224 2.297 . S
O1240 C1227 1.236 . S
N1241 Mn1225 2.282 . S
N1241 C1242 1.328 . S
N1241 C1246 1.318 . S
C1242 N1241 1.328 . S
C1242 C1243 1.457 . S
C1242 H1247 0.929 . S
C1243 C1242 1.457 . S
C1243 C1244 1.291 . S
C1243 H1256 0.931 . S
C1244 C1243 1.291 . S
C1244 C1245 1.373 . S
C1244 H1257 0.929 . S
C1245 C1244 1.373 . S
C1245 C1246 1.396 . S
C1245 C1252 1.403 . S
C1246 C1236 1.476 . S
C1246 N1241 1.318 . S
C1246 C1245 1.396 . S
H1247 C1242 0.929 . S
O1248 Mn1224 2.385 . S
O1248 C1226 1.234 . S
O1249 Mn1224 2.209 . S
O1249 Mn1225 2.215 . S
O1249 C1226 1.283 . S
O1250 Mn1224 2.094 . S
O1250 C1228 1.240 . S
O1251 Mn1225 2.117 . S
O1251 C1228 1.264 . S
C1252 C1245 1.403 . S
C1252 C1253 1.399 . S
C1252 H1258 0.929 . S
C1253 C1233 1.449 . S
C1253 C1252 1.399 . S
C1253 H1259 0.930 . S
H1254 C1234 0.931 . S
H1255 C1235 0.930 . S
H1256 C1243 0.931 . S
H1257 C1244 0.929 . S
H1258 C1252 0.929 . S
H1259 C1253 0.930 . S
Mn1260 O1265 2.095 . S
Mn1260 O1275 2.162 . S
Mn1260 O1276 2.297 . S
Mn1260 O1284 2.385 . S
Mn1260 O1285 2.209 . S
Mn1260 O1286 2.094 . S
Mn1261 O1266 2.121 . S
Mn1261 N1268 2.257 . S
Mn1261 N1277 2.282 . S
Mn1261 O1285 2.215 . S
Mn1261 O1287 2.117 . S
C1262 O1284 1.234 . S
C1262 O1285 1.283 . S
C1263 O1275 1.281 . S
C1263 O1276 1.236 . S
C1264 O1286 1.240 . S
C1264 O1287 1.264 . S
O1265 Mn1260 2.095 . S
O1265 C1274 1.250 . S
O1266 Mn1261 2.121 . S
O1266 C1274 1.258 . S
C1267 N1268 1.326 . S
C1267 C1271 1.460 . S
C1267 H1273 0.929 . S
N1268 Mn1261 2.257 . S
N1268 C1267 1.326 . S
N1268 C1272 1.362 . S
C1269 C1270 1.258 . S
C1269 C1272 1.431 . S
C1269 C1289 1.449 . S
C1270 C1269 1.258 . S
C1270 C1271 1.477 . S
C1270 H1290 0.931 . S
C1271 C1267 1.460 . S
C1271 C1270 1.477 . S
C1271 H1291 0.930 . S
C1272 N1268 1.362 . S
C1272 C1269 1.431 . S
C1272 C1282 1.476 . S
H1273 C1267 0.929 . S
C1274 O1265 1.250 . S
C1274 O1266 1.258 . S
O1275 Mn1260 2.162 . S
O1275 C1263 1.281 . S
O1276 Mn1260 2.297 . S
O1276 C1263 1.236 . S
N1277 Mn1261 2.282 . S
N1277 C1278 1.328 . S
N1277 C1282 1.318 . S
C1278 N1277 1.328 . S
C1278 C1279 1.457 . S
C1278 H1283 0.929 . S
C1279 C1278 1.457 . S
C1279 C1280 1.291 . S
C1279 H1292 0.931 . S
C1280 C1279 1.291 . S
C1280 C1281 1.373 . S
C1280 H1293 0.929 . S
C1281 C1280 1.373 . S
C1281 C1282 1.396 . S
C1281 C1288 1.403 . S
C1282 C1272 1.476 . S
C1282 N1277 1.318 . S
C1282 C1281 1.396 . S
H1283 C1278 0.929 . S
O1284 Mn1260 2.385 . S
O1284 C1262 1.234 . S
O1285 Mn1260 2.209 . S
O1285 Mn1261 2.215 . S
O1285 C1262 1.283 . S
O1286 Mn1260 2.094 . S
O1286 C1264 1.240 . S
O1287 Mn1261 2.117 . S
O1287 C1264 1.264 . S
C1288 C1281 1.403 . S
C1288 C1289 1.399 . S
C1288 H1294 0.929 . S
C1289 C1269 1.449 . S
C1289 C1288 1.399 . S
C1289 H1295 0.930 . S
H1290 C1270 0.931 . S
H1291 C1271 0.930 . S
H1292 C1279 0.931 . S
H1293 C1280 0.929 . S
H1294 C1288 0.929 . S
H1295 C1289 0.930 . S
Mn1296 O1301 2.095 . S
Mn1296 O1311 2.162 . S
Mn1296 O1312 2.297 . S
Mn1296 O1320 2.385 . S
Mn1296 O1321 2.209 . S
Mn1296 O1322 2.094 . S
Mn1297 O1302 2.121 . S
Mn1297 N1304 2.257 . S
Mn1297 N1313 2.282 . S
Mn1297 O1321 2.215 . S
Mn1297 O1323 2.117 . S
C1298 O1320 1.234 . S
C1298 O1321 1.283 . S
C1299 O1311 1.281 . S
C1299 O1312 1.236 . S
C1300 O1322 1.240 . S
C1300 O1323 1.264 . S
O1301 Mn1296 2.095 . S
O1301 C1310 1.250 . S
O1302 Mn1297 2.121 . S
O1302 C1310 1.258 . S
C1303 N1304 1.326 . S
C1303 C1307 1.460 . S
C1303 H1309 0.929 . S
N1304 Mn1297 2.257 . S
N1304 C1303 1.326 . S
N1304 C1308 1.362 . S
C1305 C1306 1.258 . S
C1305 C1308 1.431 . S
C1305 C1325 1.449 . S
C1306 C1305 1.258 . S
C1306 C1307 1.477 . S
C1306 H1326 0.931 . S
C1307 C1303 1.460 . S
C1307 C1306 1.477 . S
C1307 H1327 0.930 . S
C1308 N1304 1.362 . S
C1308 C1305 1.431 . S
C1308 C1318 1.476 . S
H1309 C1303 0.929 . S
C1310 O1301 1.250 . S
C1310 O1302 1.258 . S
O1311 Mn1296 2.162 . S
O1311 C1299 1.281 . S
O1312 Mn1296 2.297 . S
O1312 C1299 1.236 . S
N1313 Mn1297 2.282 . S
N1313 C1314 1.328 . S
N1313 C1318 1.318 . S
C1314 N1313 1.328 . S
C1314 C1315 1.457 . S
C1314 H1319 0.929 . S
C1315 C1314 1.457 . S
C1315 C1316 1.291 . S
C1315 H1328 0.931 . S
C1316 C1315 1.291 . S
C1316 C1317 1.373 . S
C1316 H1329 0.929 . S
C1317 C1316 1.373 . S
C1317 C1318 1.396 . S
C1317 C1324 1.403 . S
C1318 C1308 1.476 . S
C1318 N1313 1.318 . S
C1318 C1317 1.396 . S
H1319 C1314 0.929 . S
O1320 Mn1296 2.385 . S
O1320 C1298 1.234 . S
O1321 Mn1296 2.209 . S
O1321 Mn1297 2.215 . S
O1321 C1298 1.283 . S
O1322 Mn1296 2.094 . S
O1322 C1300 1.240 . S
O1323 Mn1297 2.117 . S
O1323 C1300 1.264 . S
C1324 C1317 1.403 . S
C1324 C1325 1.399 . S
C1324 H1330 0.929 . S
C1325 C1305 1.449 . S
C1325 C1324 1.399 . S
C1325 H1331 0.930 . S
H1326 C1306 0.931 . S
H1327 C1307 0.930 . S
H1328 C1315 0.931 . S
H1329 C1316 0.929 . S
H1330 C1324 0.929 . S
H1331 C1325 0.930 . S
Mn1332 O1337 2.095 . S
Mn1332 O1347 2.162 . S
Mn1332 O1348 2.297 . S
Mn1332 O1356 2.385 . S
Mn1332 O1357 2.209 . S
Mn1332 O1358 2.094 . S
Mn1333 O1338 2.121 . S
Mn1333 N1340 2.257 . S
Mn1333 N1349 2.282 . S
Mn1333 O1357 2.215 . S
Mn1333 O1359 2.117 . S
C1334 O1356 1.234 . S
C1334 O1357 1.283 . S
C1335 O1347 1.281 . S
C1335 O1348 1.236 . S
C1336 O1358 1.240 . S
C1336 O1359 1.264 . S
O1337 Mn1332 2.095 . S
O1337 C1346 1.250 . S
O1338 Mn1333 2.121 . S
O1338 C1346 1.258 . S
C1339 N1340 1.326 . S
C1339 C1343 1.460 . S
C1339 H1345 0.929 . S
N1340 Mn1333 2.257 . S
N1340 C1339 1.326 . S
N1340 C1344 1.362 . S
C1341 C1342 1.258 . S
C1341 C1344 1.431 . S
C1341 C1361 1.449 . S
C1342 C1341 1.258 . S
C1342 C1343 1.477 . S
C1342 H1362 0.931 . S
C1343 C1339 1.460 . S
C1343 C1342 1.477 . S
C1343 H1363 0.930 . S
C1344 N1340 1.362 . S
C1344 C1341 1.431 . S
C1344 C1354 1.476 . S
H1345 C1339 0.929 . S
C1346 O1337 1.250 . S
C1346 O1338 1.258 . S
O1347 Mn1332 2.162 . S
O1347 C1335 1.281 . S
O1348 Mn1332 2.297 . S
O1348 C1335 1.236 . S
N1349 Mn1333 2.282 . S
N1349 C1350 1.328 . S
N1349 C1354 1.318 . S
C1350 N1349 1.328 . S
C1350 C1351 1.457 . S
C1350 H1355 0.929 . S
C1351 C1350 1.457 . S
C1351 C1352 1.291 . S
C1351 H1364 0.931 . S
C1352 C1351 1.291 . S
C1352 C1353 1.373 . S
C1352 H1365 0.929 . S
C1353 C1352 1.373 . S
C1353 C1354 1.396 . S
C1353 C1360 1.403 . S
C1354 C1344 1.476 . S
C1354 N1349 1.318 . S
C1354 C1353 1.396 . S
H1355 C1350 0.929 . S
O1356 Mn1332 2.385 . S
O1356 C1334 1.234 . S
O1357 Mn1332 2.209 . S
O1357 Mn1333 2.215 . S
O1357 C1334 1.283 . S
O1358 Mn1332 2.094 . S
O1358 C1336 1.240 . S
O1359 Mn1333 2.117 . S
O1359 C1336 1.264 . S
C1360 C1353 1.403 . S
C1360 C1361 1.399 . S
C1360 H1366 0.929 . S
C1361 C1341 1.449 . S
C1361 C1360 1.399 . S
C1361 H1367 0.930 . S
H1362 C1342 0.931 . S
H1363 C1343 0.930 . S
H1364 C1351 0.931 . S
H1365 C1352 0.929 . S
H1366 C1360 0.929 . S
H1367 C1361 0.930 . S
Mn1368 O1373 2.095 . S
Mn1368 O1383 2.162 . S
Mn1368 O1384 2.297 . S
Mn1368 O1392 2.385 . S
Mn1368 O1393 2.209 . S
Mn1368 O1394 2.094 . S
Mn1369 O1374 2.121 . S
Mn1369 N1376 2.257 . S
Mn1369 N1385 2.282 . S
Mn1369 O1393 2.215 . S
Mn1369 O1395 2.117 . S
C1370 O1392 1.234 . S
C1370 O1393 1.283 . S
C1371 O1383 1.281 . S
C1371 O1384 1.236 . S
C1372 O1394 1.240 . S
C1372 O1395 1.264 . S
O1373 Mn1368 2.095 . S
O1373 C1382 1.250 . S
O1374 Mn1369 2.121 . S
O1374 C1382 1.258 . S
C1375 N1376 1.326 . S
C1375 C1379 1.460 . S
C1375 H1381 0.929 . S
N1376 Mn1369 2.257 . S
N1376 C1375 1.326 . S
N1376 C1380 1.362 . S
C1377 C1378 1.258 . S
C1377 C1380 1.431 . S
C1377 C1397 1.449 . S
C1378 C1377 1.258 . S
C1378 C1379 1.477 . S
C1378 H1398 0.931 . S
C1379 C1375 1.460 . S
C1379 C1378 1.477 . S
C1379 H1399 0.930 . S
C1380 N1376 1.362 . S
C1380 C1377 1.431 . S
C1380 C1390 1.476 . S
H1381 C1375 0.929 . S
C1382 O1373 1.250 . S
C1382 O1374 1.258 . S
O1383 Mn1368 2.162 . S
O1383 C1371 1.281 . S
O1384 Mn1368 2.297 . S
O1384 C1371 1.236 . S
N1385 Mn1369 2.282 . S
N1385 C1386 1.328 . S
N1385 C1390 1.318 . S
C1386 N1385 1.328 . S
C1386 C1387 1.457 . S
C1386 H1391 0.929 . S
C1387 C1386 1.457 . S
C1387 C1388 1.291 . S
C1387 H1400 0.931 . S
C1388 C1387 1.291 . S
C1388 C1389 1.373 . S
C1388 H1401 0.929 . S
C1389 C1388 1.373 . S
C1389 C1390 1.396 . S
C1389 C1396 1.403 . S
C1390 C1380 1.476 . S
C1390 N1385 1.318 . S
C1390 C1389 1.396 . S
H1391 C1386 0.929 . S
O1392 Mn1368 2.385 . S
O1392 C1370 1.234 . S
O1393 Mn1368 2.209 . S
O1393 Mn1369 2.215 . S
O1393 C1370 1.283 . S
O1394 Mn1368 2.094 . S
O1394 C1372 1.240 . S
O1395 Mn1369 2.117 . S
O1395 C1372 1.264 . S
C1396 C1389 1.403 . S
C1396 C1397 1.399 . S
C1396 H1402 0.929 . S
C1397 C1377 1.449 . S
C1397 C1396 1.399 . S
C1397 H1403 0.930 . S
H1398 C1378 0.931 . S
H1399 C1379 0.930 . S
H1400 C1387 0.931 . S
H1401 C1388 0.929 . S
H1402 C1396 0.929 . S
H1403 C1397 0.930 . S
Mn1404 O1409 2.095 . S
Mn1404 O1419 2.162 . S
Mn1404 O1420 2.297 . S
Mn1404 O1428 2.385 . S
Mn1404 O1429 2.209 . S
Mn1404 O1430 2.094 . S
Mn1405 O1410 2.121 . S
Mn1405 N1412 2.257 . S
Mn1405 N1421 2.282 . S
Mn1405 O1429 2.215 . S
Mn1405 O1431 2.117 . S
C1406 O1428 1.234 . S
C1406 O1429 1.283 . S
C1407 O1419 1.281 . S
C1407 O1420 1.236 . S
C1408 O1430 1.240 . S
C1408 O1431 1.264 . S
O1409 Mn1404 2.095 . S
O1409 C1418 1.250 . S
O1410 Mn1405 2.121 . S
O1410 C1418 1.258 . S
C1411 N1412 1.326 . S
C1411 C1415 1.460 . S
C1411 H1417 0.929 . S
N1412 Mn1405 2.257 . S
N1412 C1411 1.326 . S
N1412 C1416 1.362 . S
C1413 C1414 1.258 . S
C1413 C1416 1.431 . S
C1413 C1433 1.449 . S
C1414 C1413 1.258 . S
C1414 C1415 1.477 . S
C1414 H1434 0.931 . S
C1415 C1411 1.460 . S
C1415 C1414 1.477 . S
C1415 H1435 0.930 . S
C1416 N1412 1.362 . S
C1416 C1413 1.431 . S
C1416 C1426 1.476 . S
H1417 C1411 0.929 . S
C1418 O1409 1.250 . S
C1418 O1410 1.258 . S
O1419 Mn1404 2.162 . S
O1419 C1407 1.281 . S
O1420 Mn1404 2.297 . S
O1420 C1407 1.236 . S
N1421 Mn1405 2.282 . S
N1421 C1422 1.328 . S
N1421 C1426 1.318 . S
C1422 N1421 1.328 . S
C1422 C1423 1.457 . S
C1422 H1427 0.929 . S
C1423 C1422 1.457 . S
C1423 C1424 1.291 . S
C1423 H1436 0.931 . S
C1424 C1423 1.291 . S
C1424 C1425 1.373 . S
C1424 H1437 0.929 . S
C1425 C1424 1.373 . S
C1425 C1426 1.396 . S
C1425 C1432 1.403 . S
C1426 C1416 1.476 . S
C1426 N1421 1.318 . S
C1426 C1425 1.396 . S
H1427 C1422 0.929 . S
O1428 Mn1404 2.385 . S
O1428 C1406 1.234 . S
O1429 Mn1404 2.209 . S
O1429 Mn1405 2.215 . S
O1429 C1406 1.283 . S
O1430 Mn1404 2.094 . S
O1430 C1408 1.240 . S
O1431 Mn1405 2.117 . S
O1431 C1408 1.264 . S
C1432 C1425 1.403 . S
C1432 C1433 1.399 . S
C1432 H1438 0.929 . S
C1433 C1413 1.449 . S
C1433 C1432 1.399 . S
C1433 H1439 0.930 . S
H1434 C1414 0.931 . S
H1435 C1415 0.930 . S
H1436 C1423 0.931 . S
H1437 C1424 0.929 . S
H1438 C1432 0.929 . S
H1439 C1433 0.930 . S
Mn1440 O1445 2.095 . S
Mn1440 O1455 2.162 . S
Mn1440 O1456 2.297 . S
Mn1440 O1464 2.385 . S
Mn1440 O1465 2.209 . S
Mn1440 O1466 2.094 . S
Mn1441 O1446 2.121 . S
Mn1441 N1448 2.257 . S
Mn1441 N1457 2.282 . S
Mn1441 O1465 2.215 . S
Mn1441 O1467 2.117 . S
C1442 O1464 1.234 . S
C1442 O1465 1.283 . S
C1443 O1455 1.281 . S
C1443 O1456 1.236 . S
C1444 O1466 1.240 . S
C1444 O1467 1.264 . S
O1445 Mn1440 2.095 . S
O1445 C1454 1.250 . S
O1446 Mn1441 2.121 . S
O1446 C1454 1.258 . S
C1447 N1448 1.326 . S
C1447 C1451 1.460 . S
C1447 H1453 0.929 . S
N1448 Mn1441 2.257 . S
N1448 C1447 1.326 . S
N1448 C1452 1.362 . S
C1449 C1450 1.258 . S
C1449 C1452 1.431 . S
C1449 C1469 1.449 . S
C1450 C1449 1.258 . S
C1450 C1451 1.477 . S
C1450 H1470 0.931 . S
C1451 C1447 1.460 . S
C1451 C1450 1.477 . S
C1451 H1471 0.930 . S
C1452 N1448 1.362 . S
C1452 C1449 1.431 . S
C1452 C1462 1.476 . S
H1453 C1447 0.929 . S
C1454 O1445 1.250 . S
C1454 O1446 1.258 . S
O1455 Mn1440 2.162 . S
O1455 C1443 1.281 . S
O1456 Mn1440 2.297 . S
O1456 C1443 1.236 . S
N1457 Mn1441 2.282 . S
N1457 C1458 1.328 . S
N1457 C1462 1.318 . S
C1458 N1457 1.328 . S
C1458 C1459 1.457 . S
C1458 H1463 0.929 . S
C1459 C1458 1.457 . S
C1459 C1460 1.291 . S
C1459 H1472 0.931 . S
C1460 C1459 1.291 . S
C1460 C1461 1.373 . S
C1460 H1473 0.929 . S
C1461 C1460 1.373 . S
C1461 C1462 1.396 . S
C1461 C1468 1.403 . S
C1462 C1452 1.476 . S
C1462 N1457 1.318 . S
C1462 C1461 1.396 . S
H1463 C1458 0.929 . S
O1464 Mn1440 2.385 . S
O1464 C1442 1.234 . S
O1465 Mn1440 2.209 . S
O1465 Mn1441 2.215 . S
O1465 C1442 1.283 . S
O1466 Mn1440 2.094 . S
O1466 C1444 1.240 . S
O1467 Mn1441 2.117 . S
O1467 C1444 1.264 . S
C1468 C1461 1.403 . S
C1468 C1469 1.399 . S
C1468 H1474 0.929 . S
C1469 C1449 1.449 . S
C1469 C1468 1.399 . S
C1469 H1475 0.930 . S
H1470 C1450 0.931 . S
H1471 C1451 0.930 . S
H1472 C1459 0.931 . S
H1473 C1460 0.929 . S
H1474 C1468 0.929 . S
H1475 C1469 0.930 . S
Mn1476 O1481 2.095 . S
Mn1476 O1491 2.162 . S
Mn1476 O1492 2.297 . S
Mn1476 O1500 2.385 . S
Mn1476 O1501 2.209 . S
Mn1476 O1502 2.094 . S
Mn1477 O1482 2.121 . S
Mn1477 N1484 2.257 . S
Mn1477 N1493 2.282 . S
Mn1477 O1501 2.215 . S
Mn1477 O1503 2.117 . S
C1478 O1500 1.234 . S
C1478 O1501 1.283 . S
C1479 O1491 1.281 . S
C1479 O1492 1.236 . S
C1480 O1502 1.240 . S
C1480 O1503 1.264 . S
O1481 Mn1476 2.095 . S
O1481 C1490 1.250 . S
O1482 Mn1477 2.121 . S
O1482 C1490 1.258 . S
C1483 N1484 1.326 . S
C1483 C1487 1.460 . S
C1483 H1489 0.929 . S
N1484 Mn1477 2.257 . S
N1484 C1483 1.326 . S
N1484 C1488 1.362 . S
C1485 C1486 1.258 . S
C1485 C1488 1.431 . S
C1485 C1505 1.449 . S
C1486 C1485 1.258 . S
C1486 C1487 1.477 . S
C1486 H1506 0.931 . S
C1487 C1483 1.460 . S
C1487 C1486 1.477 . S
C1487 H1507 0.930 . S
C1488 N1484 1.362 . S
C1488 C1485 1.431 . S
C1488 C1498 1.476 . S
H1489 C1483 0.929 . S
C1490 O1481 1.250 . S
C1490 O1482 1.258 . S
O1491 Mn1476 2.162 . S
O1491 C1479 1.281 . S
O1492 Mn1476 2.297 . S
O1492 C1479 1.236 . S
N1493 Mn1477 2.282 . S
N1493 C1494 1.328 . S
N1493 C1498 1.318 . S
C1494 N1493 1.328 . S
C1494 C1495 1.457 . S
C1494 H1499 0.929 . S
C1495 C1494 1.457 . S
C1495 C1496 1.291 . S
C1495 H1508 0.931 . S
C1496 C1495 1.291 . S
C1496 C1497 1.373 . S
C1496 H1509 0.929 . S
C1497 C1496 1.373 . S
C1497 C1498 1.396 . S
C1497 C1504 1.403 . S
C1498 C1488 1.476 . S
C1498 N1493 1.318 . S
C1498 C1497 1.396 . S
H1499 C1494 0.929 . S
O1500 Mn1476 2.385 . S
O1500 C1478 1.234 . S
O1501 Mn1476 2.209 . S
O1501 Mn1477 2.215 . S
O1501 C1478 1.283 . S
O1502 Mn1476 2.094 . S
O1502 C1480 1.240 . S
O1503 Mn1477 2.117 . S
O1503 C1480 1.264 . S
C1504 C1497 1.403 . S
C1504 C1505 1.399 . S
C1504 H1510 0.929 . S
C1505 C1485 1.449 . S
C1505 C1504 1.399 . S
C1505 H1511 0.930 . S
H1506 C1486 0.931 . S
H1507 C1487 0.930 . S
H1508 C1495 0.931 . S
H1509 C1496 0.929 . S
H1510 C1504 0.929 . S
H1511 C1505 0.930 . S
Mn1512 O1517 2.095 . S
Mn1512 O1527 2.162 . S
Mn1512 O1528 2.297 . S
Mn1512 O1536 2.385 . S
Mn1512 O1537 2.209 . S
Mn1512 O1538 2.094 . S
Mn1513 O1518 2.121 . S
Mn1513 N1520 2.257 . S
Mn1513 N1529 2.282 . S
Mn1513 O1537 2.215 . S
Mn1513 O1539 2.117 . S
C1514 O1536 1.234 . S
C1514 O1537 1.283 . S
C1515 O1527 1.281 . S
C1515 O1528 1.236 . S
C1516 O1538 1.240 . S
C1516 O1539 1.264 . S
O1517 Mn1512 2.095 . S
O1517 C1526 1.250 . S
O1518 Mn1513 2.121 . S
O1518 C1526 1.258 . S
C1519 N1520 1.326 . S
C1519 C1523 1.460 . S
C1519 H1525 0.929 . S
N1520 Mn1513 2.257 . S
N1520 C1519 1.326 . S
N1520 C1524 1.362 . S
C1521 C1522 1.258 . S
C1521 C1524 1.431 . S
C1521 C1541 1.449 . S
C1522 C1521 1.258 . S
C1522 C1523 1.477 . S
C1522 H1542 0.931 . S
C1523 C1519 1.460 . S
C1523 C1522 1.477 . S
C1523 H1543 0.930 . S
C1524 N1520 1.362 . S
C1524 C1521 1.431 . S
C1524 C1534 1.476 . S
H1525 C1519 0.929 . S
C1526 O1517 1.250 . S
C1526 O1518 1.258 . S
O1527 Mn1512 2.162 . S
O1527 C1515 1.281 . S
O1528 Mn1512 2.297 . S
O1528 C1515 1.236 . S
N1529 Mn1513 2.282 . S
N1529 C1530 1.328 . S
N1529 C1534 1.318 . S
C1530 N1529 1.328 . S
C1530 C1531 1.457 . S
C1530 H1535 0.929 . S
C1531 C1530 1.457 . S
C1531 C1532 1.291 . S
C1531 H1544 0.931 . S
C1532 C1531 1.291 . S
C1532 C1533 1.373 . S
C1532 H1545 0.929 . S
C1533 C1532 1.373 . S
C1533 C1534 1.396 . S
C1533 C1540 1.403 . S
C1534 C1524 1.476 . S
C1534 N1529 1.318 . S
C1534 C1533 1.396 . S
H1535 C1530 0.929 . S
O1536 Mn1512 2.385 . S
O1536 C1514 1.234 . S
O1537 Mn1512 2.209 . S
O1537 Mn1513 2.215 . S
O1537 C1514 1.283 . S
O1538 Mn1512 2.094 . S
O1538 C1516 1.240 . S
O1539 Mn1513 2.117 . S
O1539 C1516 1.264 . S
C1540 C1533 1.403 . S
C1540 C1541 1.399 . S
C1540 H1546 0.929 . S
C1541 C1521 1.449 . S
C1541 C1540 1.399 . S
C1541 H1547 0.930 . S
H1542 C1522 0.931 . S
H1543 C1523 0.930 . S
H1544 C1531 0.931 . S
H1545 C1532 0.929 . S
H1546 C1540 0.929 . S
H1547 C1541 0.930 . S
Mn1548 O1553 2.095 . S
Mn1548 O1563 2.162 . S
Mn1548 O1564 2.297 . S
Mn1548 O1572 2.385 . S
Mn1548 O1573 2.209 . S
Mn1548 O1574 2.094 . S
Mn1549 O1554 2.121 . S
Mn1549 N1556 2.257 . S
Mn1549 N1565 2.282 . S
Mn1549 O1573 2.215 . S
Mn1549 O1575 2.117 . S
C1550 O1572 1.234 . S
C1550 O1573 1.283 . S
C1551 O1563 1.281 . S
C1551 O1564 1.236 . S
C1552 O1574 1.240 . S
C1552 O1575 1.264 . S
O1553 Mn1548 2.095 . S
O1553 C1562 1.250 . S
O1554 Mn1549 2.121 . S
O1554 C1562 1.258 . S
C1555 N1556 1.326 . S
C1555 C1559 1.460 . S
C1555 H1561 0.929 . S
N1556 Mn1549 2.257 . S
N1556 C1555 1.326 . S
N1556 C1560 1.362 . S
C1557 C1558 1.258 . S
C1557 C1560 1.431 . S
C1557 C1577 1.449 . S
C1558 C1557 1.258 . S
C1558 C1559 1.477 . S
C1558 H1578 0.931 . S
C1559 C1555 1.460 . S
C1559 C1558 1.477 . S
C1559 H1579 0.930 . S
C1560 N1556 1.362 . S
C1560 C1557 1.431 . S
C1560 C1570 1.476 . S
H1561 C1555 0.929 . S
C1562 O1553 1.250 . S
C1562 O1554 1.258 . S
O1563 Mn1548 2.162 . S
O1563 C1551 1.281 . S
O1564 Mn1548 2.297 . S
O1564 C1551 1.236 . S
N1565 Mn1549 2.282 . S
N1565 C1566 1.328 . S
N1565 C1570 1.318 . S
C1566 N1565 1.328 . S
C1566 C1567 1.457 . S
C1566 H1571 0.929 . S
C1567 C1566 1.457 . S
C1567 C1568 1.291 . S
C1567 H1580 0.931 . S
C1568 C1567 1.291 . S
C1568 C1569 1.373 . S
C1568 H1581 0.929 . S
C1569 C1568 1.373 . S
C1569 C1570 1.396 . S
C1569 C1576 1.403 . S
C1570 C1560 1.476 . S
C1570 N1565 1.318 . S
C1570 C1569 1.396 . S
H1571 C1566 0.929 . S
O1572 Mn1548 2.385 . S
O1572 C1550 1.234 . S
O1573 Mn1548 2.209 . S
O1573 Mn1549 2.215 . S
O1573 C1550 1.283 . S
O1574 Mn1548 2.094 . S
O1574 C1552 1.240 . S
O1575 Mn1549 2.117 . S
O1575 C1552 1.264 . S
C1576 C1569 1.403 . S
C1576 C1577 1.399 . S
C1576 H1582 0.929 . S
C1577 C1557 1.449 . S
C1577 C1576 1.399 . S
C1577 H1583 0.930 . S
H1578 C1558 0.931 . S
H1579 C1559 0.930 . S
H1580 C1567 0.931 . S
H1581 C1568 0.929 . S
H1582 C1576 0.929 . S
H1583 C1577 0.930 . S
Mn1584 O1589 2.095 . S
Mn1584 O1599 2.162 . S
Mn1584 O1600 2.297 . S
Mn1584 O1608 2.385 . S
Mn1584 O1609 2.209 . S
Mn1584 O1610 2.094 . S
Mn1585 O1590 2.121 . S
Mn1585 N1592 2.257 . S
Mn1585 N1601 2.282 . S
Mn1585 O1609 2.215 . S
Mn1585 O1611 2.117 . S
C1586 O1608 1.234 . S
C1586 O1609 1.283 . S
C1587 O1599 1.281 . S
C1587 O1600 1.236 . S
C1588 O1610 1.240 . S
C1588 O1611 1.264 . S
O1589 Mn1584 2.095 . S
O1589 C1598 1.250 . S
O1590 Mn1585 2.121 . S
O1590 C1598 1.258 . S
C1591 N1592 1.326 . S
C1591 C1595 1.460 . S
C1591 H1597 0.929 . S
N1592 Mn1585 2.257 . S
N1592 C1591 1.326 . S
N1592 C1596 1.362 . S
C1593 C1594 1.258 . S
C1593 C1596 1.431 . S
C1593 C1613 1.449 . S
C1594 C1593 1.258 . S
C1594 C1595 1.477 . S
C1594 H1614 0.931 . S
C1595 C1591 1.460 . S
C1595 C1594 1.477 . S
C1595 H1615 0.930 . S
C1596 N1592 1.362 . S
C1596 C1593 1.431 . S
C1596 C1606 1.476 . S
H1597 C1591 0.929 . S
C1598 O1589 1.250 . S
C1598 O1590 1.258 . S
O1599 Mn1584 2.162 . S
O1599 C1587 1.281 . S
O1600 Mn1584 2.297 . S
O1600 C1587 1.236 . S
N1601 Mn1585 2.282 . S
N1601 C1602 1.328 . S
N1601 C1606 1.318 . S
C1602 N1601 1.328 . S
C1602 C1603 1.457 . S
C1602 H1607 0.929 . S
C1603 C1602 1.457 . S
C1603 C1604 1.291 . S
C1603 H1616 0.931 . S
C1604 C1603 1.291 . S
C1604 C1605 1.373 . S
C1604 H1617 0.929 . S
C1605 C1604 1.373 . S
C1605 C1606 1.396 . S
C1605 C1612 1.403 . S
C1606 C1596 1.476 . S
C1606 N1601 1.318 . S
C1606 C1605 1.396 . S
H1607 C1602 0.929 . S
O1608 Mn1584 2.385 . S
O1608 C1586 1.234 . S
O1609 Mn1584 2.209 . S
O1609 Mn1585 2.215 . S
O1609 C1586 1.283 . S
O1610 Mn1584 2.094 . S
O1610 C1588 1.240 . S
O1611 Mn1585 2.117 . S
O1611 C1588 1.264 . S
C1612 C1605 1.403 . S
C1612 C1613 1.399 . S
C1612 H1618 0.929 . S
C1613 C1593 1.449 . S
C1613 C1612 1.399 . S
C1613 H1619 0.930 . S
H1614 C1594 0.931 . S
H1615 C1595 0.930 . S
H1616 C1603 0.931 . S
H1617 C1604 0.929 . S
H1618 C1612 0.929 . S
H1619 C1613 0.930 . S
Mn1620 O1625 2.095 . S
Mn1620 O1635 2.162 . S
Mn1620 O1636 2.297 . S
Mn1620 O1644 2.385 . S
Mn1620 O1645 2.209 . S
Mn1620 O1646 2.094 . S
Mn1621 O1626 2.121 . S
Mn1621 N1628 2.257 . S
Mn1621 N1637 2.282 . S
Mn1621 O1645 2.215 . S
Mn1621 O1647 2.117 . S
C1622 O1644 1.234 . S
C1622 O1645 1.283 . S
C1623 O1635 1.281 . S
C1623 O1636 1.236 . S
C1624 O1646 1.240 . S
C1624 O1647 1.264 . S
O1625 Mn1620 2.095 . S
O1625 C1634 1.250 . S
O1626 Mn1621 2.121 . S
O1626 C1634 1.258 . S
C1627 N1628 1.326 . S
C1627 C1631 1.460 . S
C1627 H1633 0.929 . S
N1628 Mn1621 2.257 . S
N1628 C1627 1.326 . S
N1628 C1632 1.362 . S
C1629 C1630 1.258 . S
C1629 C1632 1.431 . S
C1629 C1649 1.449 . S
C1630 C1629 1.258 . S
C1630 C1631 1.477 . S
C1630 H1650 0.931 . S
C1631 C1627 1.460 . S
C1631 C1630 1.477 . S
C1631 H1651 0.930 . S
C1632 N1628 1.362 . S
C1632 C1629 1.431 . S
C1632 C1642 1.476 . S
H1633 C1627 0.929 . S
C1634 O1625 1.250 . S
C1634 O1626 1.258 . S
O1635 Mn1620 2.162 . S
O1635 C1623 1.281 . S
O1636 Mn1620 2.297 . S
O1636 C1623 1.236 . S
N1637 Mn1621 2.282 . S
N1637 C1638 1.328 . S
N1637 C1642 1.318 . S
C1638 N1637 1.328 . S
C1638 C1639 1.457 . S
C1638 H1643 0.929 . S
C1639 C1638 1.457 . S
C1639 C1640 1.291 . S
C1639 H1652 0.931 . S
C1640 C1639 1.291 . S
C1640 C1641 1.373 . S
C1640 H1653 0.929 . S
C1641 C1640 1.373 . S
C1641 C1642 1.396 . S
C1641 C1648 1.403 . S
C1642 C1632 1.476 . S
C1642 N1637 1.318 . S
C1642 C1641 1.396 . S
H1643 C1638 0.929 . S
O1644 Mn1620 2.385 . S
O1644 C1622 1.234 . S
O1645 Mn1620 2.209 . S
O1645 Mn1621 2.215 . S
O1645 C1622 1.283 . S
O1646 Mn1620 2.094 . S
O1646 C1624 1.240 . S
O1647 Mn1621 2.117 . S
O1647 C1624 1.264 . S
C1648 C1641 1.403 . S
C1648 C1649 1.399 . S
C1648 H1654 0.929 . S
C1649 C1629 1.449 . S
C1649 C1648 1.399 . S
C1649 H1655 0.930 . S
H1650 C1630 0.931 . S
H1651 C1631 0.930 . S
H1652 C1639 0.931 . S
H1653 C1640 0.929 . S
H1654 C1648 0.929 . S
H1655 C1649 0.930 . S
Mn1656 O1661 2.095 . S
Mn1656 O1671 2.162 . S
Mn1656 O1672 2.297 . S
Mn1656 O1680 2.385 . S
Mn1656 O1681 2.209 . S
Mn1656 O1682 2.094 . S
Mn1657 O1662 2.121 . S
Mn1657 N1664 2.257 . S
Mn1657 N1673 2.282 . S
Mn1657 O1681 2.215 . S
Mn1657 O1683 2.117 . S
C1658 O1680 1.234 . S
C1658 O1681 1.283 . S
C1659 O1671 1.281 . S
C1659 O1672 1.236 . S
C1660 O1682 1.240 . S
C1660 O1683 1.264 . S
O1661 Mn1656 2.095 . S
O1661 C1670 1.250 . S
O1662 Mn1657 2.121 . S
O1662 C1670 1.258 . S
C1663 N1664 1.326 . S
C1663 C1667 1.460 . S
C1663 H1669 0.929 . S
N1664 Mn1657 2.257 . S
N1664 C1663 1.326 . S
N1664 C1668 1.362 . S
C1665 C1666 1.258 . S
C1665 C1668 1.431 . S
C1665 C1685 1.449 . S
C1666 C1665 1.258 . S
C1666 C1667 1.477 . S
C1666 H1686 0.931 . S
C1667 C1663 1.460 . S
C1667 C1666 1.477 . S
C1667 H1687 0.930 . S
C1668 N1664 1.362 . S
C1668 C1665 1.431 . S
C1668 C1678 1.476 . S
H1669 C1663 0.929 . S
C1670 O1661 1.250 . S
C1670 O1662 1.258 . S
O1671 Mn1656 2.162 . S
O1671 C1659 1.281 . S
O1672 Mn1656 2.297 . S
O1672 C1659 1.236 . S
N1673 Mn1657 2.282 . S
N1673 C1674 1.328 . S
N1673 C1678 1.318 . S
C1674 N1673 1.328 . S
C1674 C1675 1.457 . S
C1674 H1679 0.929 . S
C1675 C1674 1.457 . S
C1675 C1676 1.291 . S
C1675 H1688 0.931 . S
C1676 C1675 1.291 . S
C1676 C1677 1.373 . S
C1676 H1689 0.929 . S
C1677 C1676 1.373 . S
C1677 C1678 1.396 . S
C1677 C1684 1.403 . S
C1678 C1668 1.476 . S
C1678 N1673 1.318 . S
C1678 C1677 1.396 . S
H1679 C1674 0.929 . S
O1680 Mn1656 2.385 . S
O1680 C1658 1.234 . S
O1681 Mn1656 2.209 . S
O1681 Mn1657 2.215 . S
O1681 C1658 1.283 . S
O1682 Mn1656 2.094 . S
O1682 C1660 1.240 . S
O1683 Mn1657 2.117 . S
O1683 C1660 1.264 . S
C1684 C1677 1.403 . S
C1684 C1685 1.399 . S
C1684 H1690 0.929 . S
C1685 C1665 1.449 . S
C1685 C1684 1.399 . S
C1685 H1691 0.930 . S
H1686 C1666 0.931 . S
H1687 C1667 0.930 . S
H1688 C1675 0.931 . S
H1689 C1676 0.929 . S
H1690 C1684 0.929 . S
H1691 C1685 0.930 . S
Mn1692 O1697 2.095 . S
Mn1692 O1707 2.162 . S
Mn1692 O1708 2.297 . S
Mn1692 O1716 2.385 . S
Mn1692 O1717 2.209 . S
Mn1692 O1718 2.094 . S
Mn1693 O1698 2.121 . S
Mn1693 N1700 2.257 . S
Mn1693 N1709 2.282 . S
Mn1693 O1717 2.215 . S
Mn1693 O1719 2.117 . S
C1694 O1716 1.234 . S
C1694 O1717 1.283 . S
C1695 O1707 1.281 . S
C1695 O1708 1.236 . S
C1696 O1718 1.240 . S
C1696 O1719 1.264 . S
O1697 Mn1692 2.095 . S
O1697 C1706 1.250 . S
O1698 Mn1693 2.121 . S
O1698 C1706 1.258 . S
C1699 N1700 1.326 . S
C1699 C1703 1.460 . S
C1699 H1705 0.929 . S
N1700 Mn1693 2.257 . S
N1700 C1699 1.326 . S
N1700 C1704 1.362 . S
C1701 C1702 1.258 . S
C1701 C1704 1.431 . S
C1701 C1721 1.449 . S
C1702 C1701 1.258 . S
C1702 C1703 1.477 . S
C1702 H1722 0.931 . S
C1703 C1699 1.460 . S
C1703 C1702 1.477 . S
C1703 H1723 0.930 . S
C1704 N1700 1.362 . S
C1704 C1701 1.431 . S
C1704 C1714 1.476 . S
H1705 C1699 0.929 . S
C1706 O1697 1.250 . S
C1706 O1698 1.258 . S
O1707 Mn1692 2.162 . S
O1707 C1695 1.281 . S
O1708 Mn1692 2.297 . S
O1708 C1695 1.236 . S
N1709 Mn1693 2.282 . S
N1709 C1710 1.328 . S
N1709 C1714 1.318 . S
C1710 N1709 1.328 . S
C1710 C1711 1.457 . S
C1710 H1715 0.929 . S
C1711 C1710 1.457 . S
C1711 C1712 1.291 . S
C1711 H1724 0.931 . S
C1712 C1711 1.291 . S
C1712 C1713 1.373 . S
C1712 H1725 0.929 . S
C1713 C1712 1.373 . S
C1713 C1714 1.396 . S
C1713 C1720 1.403 . S
C1714 C1704 1.476 . S
C1714 N1709 1.318 . S
C1714 C1713 1.396 . S
H1715 C1710 0.929 . S
O1716 Mn1692 2.385 . S
O1716 C1694 1.234 . S
O1717 Mn1692 2.209 . S
O1717 Mn1693 2.215 . S
O1717 C1694 1.283 . S
O1718 Mn1692 2.094 . S
O1718 C1696 1.240 . S
O1719 Mn1693 2.117 . S
O1719 C1696 1.264 . S
C1720 C1713 1.403 . S
C1720 C1721 1.399 . S
C1720 H1726 0.929 . S
C1721 C1701 1.449 . S
C1721 C1720 1.399 . S
C1721 H1727 0.930 . S
H1722 C1702 0.931 . S
H1723 C1703 0.930 . S
H1724 C1711 0.931 . S
H1725 C1712 0.929 . S
H1726 C1720 0.929 . S
H1727 C1721 0.930 . S
Mn1728 O1733 2.095 . S
Mn1728 O1743 2.162 . S
Mn1728 O1744 2.297 . S
Mn1728 O1752 2.385 . S
Mn1728 O1753 2.209 . S
Mn1728 O1754 2.094 . S
Mn1729 O1734 2.121 . S
Mn1729 N1736 2.257 . S
Mn1729 N1745 2.282 . S
Mn1729 O1753 2.215 . S
Mn1729 O1755 2.117 . S
C1730 O1752 1.234 . S
C1730 O1753 1.283 . S
C1731 O1743 1.281 . S
C1731 O1744 1.236 . S
C1732 O1754 1.240 . S
C1732 O1755 1.264 . S
O1733 Mn1728 2.095 . S
O1733 C1742 1.250 . S
O1734 Mn1729 2.121 . S
O1734 C1742 1.258 . S
C1735 N1736 1.326 . S
C1735 C1739 1.460 . S
C1735 H1741 0.929 . S
N1736 Mn1729 2.257 . S
N1736 C1735 1.326 . S
N1736 C1740 1.362 . S
C1737 C1738 1.258 . S
C1737 C1740 1.431 . S
C1737 C1757 1.449 . S
C1738 C1737 1.258 . S
C1738 C1739 1.477 . S
C1738 H1758 0.931 . S
C1739 C1735 1.460 . S
C1739 C1738 1.477 . S
C1739 H1759 0.930 . S
C1740 N1736 1.362 . S
C1740 C1737 1.431 . S
C1740 C1750 1.476 . S
H1741 C1735 0.929 . S
C1742 O1733 1.250 . S
C1742 O1734 1.258 . S
O1743 Mn1728 2.162 . S
O1743 C1731 1.281 . S
O1744 Mn1728 2.297 . S
O1744 C1731 1.236 . S
N1745 Mn1729 2.282 . S
N1745 C1746 1.328 . S
N1745 C1750 1.318 . S
C1746 N1745 1.328 . S
C1746 C1747 1.457 . S
C1746 H1751 0.929 . S
C1747 C1746 1.457 . S
C1747 C1748 1.291 . S
C1747 H1760 0.931 . S
C1748 C1747 1.291 . S
C1748 C1749 1.373 . S
C1748 H1761 0.929 . S
C1749 C1748 1.373 . S
C1749 C1750 1.396 . S
C1749 C1756 1.403 . S
C1750 C1740 1.476 . S
C1750 N1745 1.318 . S
C1750 C1749 1.396 . S
H1751 C1746 0.929 . S
O1752 Mn1728 2.385 . S
O1752 C1730 1.234 . S
O1753 Mn1728 2.209 . S
O1753 Mn1729 2.215 . S
O1753 C1730 1.283 . S
O1754 Mn1728 2.094 . S
O1754 C1732 1.240 . S
O1755 Mn1729 2.117 . S
O1755 C1732 1.264 . S
C1756 C1749 1.403 . S
C1756 C1757 1.399 . S
C1756 H1762 0.929 . S
C1757 C1737 1.449 . S
C1757 C1756 1.399 . S
C1757 H1763 0.930 . S
H1758 C1738 0.931 . S
H1759 C1739 0.930 . S
H1760 C1747 0.931 . S
H1761 C1748 0.929 . S
H1762 C1756 0.929 . S
H1763 C1757 0.930 . S
Mn1764 O1769 2.095 . S
Mn1764 O1779 2.162 . S
Mn1764 O1780 2.297 . S
Mn1764 O1788 2.385 . S
Mn1764 O1789 2.209 . S
Mn1764 O1790 2.094 . S
Mn1765 O1770 2.121 . S
Mn1765 N1772 2.257 . S
Mn1765 N1781 2.282 . S
Mn1765 O1789 2.215 . S
Mn1765 O1791 2.117 . S
C1766 O1788 1.234 . S
C1766 O1789 1.283 . S
C1767 O1779 1.281 . S
C1767 O1780 1.236 . S
C1768 O1790 1.240 . S
C1768 O1791 1.264 . S
O1769 Mn1764 2.095 . S
O1769 C1778 1.250 . S
O1770 Mn1765 2.121 . S
O1770 C1778 1.258 . S
C1771 N1772 1.326 . S
C1771 C1775 1.460 . S
C1771 H1777 0.929 . S
N1772 Mn1765 2.257 . S
N1772 C1771 1.326 . S
N1772 C1776 1.362 . S
C1773 C1774 1.258 . S
C1773 C1776 1.431 . S
C1773 C1793 1.449 . S
C1774 C1773 1.258 . S
C1774 C1775 1.477 . S
C1774 H1794 0.931 . S
C1775 C1771 1.460 . S
C1775 C1774 1.477 . S
C1775 H1795 0.930 . S
C1776 N1772 1.362 . S
C1776 C1773 1.431 . S
C1776 C1786 1.476 . S
H1777 C1771 0.929 . S
C1778 O1769 1.250 . S
C1778 O1770 1.258 . S
O1779 Mn1764 2.162 . S
O1779 C1767 1.281 . S
O1780 Mn1764 2.297 . S
O1780 C1767 1.236 . S
N1781 Mn1765 2.282 . S
N1781 C1782 1.328 . S
N1781 C1786 1.318 . S
C1782 N1781 1.328 . S
C1782 C1783 1.457 . S
C1782 H1787 0.929 . S
C1783 C1782 1.457 . S
C1783 C1784 1.291 . S
C1783 H1796 0.931 . S
C1784 C1783 1.291 . S
C1784 C1785 1.373 . S
C1784 H1797 0.929 . S
C1785 C1784 1.373 . S
C1785 C1786 1.396 . S
C1785 C1792 1.403 . S
C1786 C1776 1.476 . S
C1786 N1781 1.318 . S
C1786 C1785 1.396 . S
H1787 C1782 0.929 . S
O1788 Mn1764 2.385 . S
O1788 C1766 1.234 . S
O1789 Mn1764 2.209 . S
O1789 Mn1765 2.215 . S
O1789 C1766 1.283 . S
O1790 Mn1764 2.094 . S
O1790 C1768 1.240 . S
O1791 Mn1765 2.117 . S
O1791 C1768 1.264 . S
C1792 C1785 1.403 . S
C1792 C1793 1.399 . S
C1792 H1798 0.929 . S
C1793 C1773 1.449 . S
C1793 C1792 1.399 . S
C1793 H1799 0.930 . S
H1794 C1774 0.931 . S
H1795 C1775 0.930 . S
H1796 C1783 0.931 . S
H1797 C1784 0.929 . S
H1798 C1792 0.929 . S
H1799 C1793 0.930 . S
Mn1800 O1805 2.095 . S
Mn1800 O1815 2.162 . S
Mn1800 O1816 2.297 . S
Mn1800 O1824 2.385 . S
Mn1800 O1825 2.209 . S
Mn1800 O1826 2.094 . S
Mn1801 O1806 2.121 . S
Mn1801 N1808 2.257 . S
Mn1801 N1817 2.282 . S
Mn1801 O1825 2.215 . S
Mn1801 O1827 2.117 . S
C1802 O1824 1.234 . S
C1802 O1825 1.283 . S
C1803 O1815 1.281 . S
C1803 O1816 1.236 . S
C1804 O1826 1.240 . S
C1804 O1827 1.264 . S
O1805 Mn1800 2.095 . S
O1805 C1814 1.250 . S
O1806 Mn1801 2.121 . S
O1806 C1814 1.258 . S
C1807 N1808 1.326 . S
C1807 C1811 1.460 . S
C1807 H1813 0.929 . S
N1808 Mn1801 2.257 . S
N1808 C1807 1.326 . S
N1808 C1812 1.362 . S
C1809 C1810 1.258 . S
C1809 C1812 1.431 . S
C1809 C1829 1.449 . S
C1810 C1809 1.258 . S
C1810 C1811 1.477 . S
C1810 H1830 0.931 . S
C1811 C1807 1.460 . S
C1811 C1810 1.477 . S
C1811 H1831 0.930 . S
C1812 N1808 1.362 . S
C1812 C1809 1.431 . S
C1812 C1822 1.476 . S
H1813 C1807 0.929 . S
C1814 O1805 1.250 . S
C1814 O1806 1.258 . S
O1815 Mn1800 2.162 . S
O1815 C1803 1.281 . S
O1816 Mn1800 2.297 . S
O1816 C1803 1.236 . S
N1817 Mn1801 2.282 . S
N1817 C1818 1.328 . S
N1817 C1822 1.318 . S
C1818 N1817 1.328 . S
C1818 C1819 1.457 . S
C1818 H1823 0.929 . S
C1819 C1818 1.457 . S
C1819 C1820 1.291 . S
C1819 H1832 0.931 . S
C1820 C1819 1.291 . S
C1820 C1821 1.373 . S
C1820 H1833 0.929 . S
C1821 C1820 1.373 . S
C1821 C1822 1.396 . S
C1821 C1828 1.403 . S
C1822 C1812 1.476 . S
C1822 N1817 1.318 . S
C1822 C1821 1.396 . S
H1823 C1818 0.929 . S
O1824 Mn1800 2.385 . S
O1824 C1802 1.234 . S
O1825 Mn1800 2.209 . S
O1825 Mn1801 2.215 . S
O1825 C1802 1.283 . S
O1826 Mn1800 2.094 . S
O1826 C1804 1.240 . S
O1827 Mn1801 2.117 . S
O1827 C1804 1.264 . S
C1828 C1821 1.403 . S
C1828 C1829 1.399 . S
C1828 H1834 0.929 . S
C1829 C1809 1.449 . S
C1829 C1828 1.399 . S
C1829 H1835 0.930 . S
H1830 C1810 0.931 . S
H1831 C1811 0.930 . S
H1832 C1819 0.931 . S
H1833 C1820 0.929 . S
H1834 C1828 0.929 . S
H1835 C1829 0.930 . S
Mn1836 O1841 2.095 . S
Mn1836 O1851 2.162 . S
Mn1836 O1852 2.297 . S
Mn1836 O1860 2.385 . S
Mn1836 O1861 2.209 . S
Mn1836 O1862 2.094 . S
Mn1837 O1842 2.121 . S
Mn1837 N1844 2.257 . S
Mn1837 N1853 2.282 . S
Mn1837 O1861 2.215 . S
Mn1837 O1863 2.117 . S
C1838 O1860 1.234 . S
C1838 O1861 1.283 . S
C1839 O1851 1.281 . S
C1839 O1852 1.236 . S
C1840 O1862 1.240 . S
C1840 O1863 1.264 . S
O1841 Mn1836 2.095 . S
O1841 C1850 1.250 . S
O1842 Mn1837 2.121 . S
O1842 C1850 1.258 . S
C1843 N1844 1.326 . S
C1843 C1847 1.460 . S
C1843 H1849 0.929 . S
N1844 Mn1837 2.257 . S
N1844 C1843 1.326 . S
N1844 C1848 1.362 . S
C1845 C1846 1.258 . S
C1845 C1848 1.431 . S
C1845 C1865 1.449 . S
C1846 C1845 1.258 . S
C1846 C1847 1.477 . S
C1846 H1866 0.931 . S
C1847 C1843 1.460 . S
C1847 C1846 1.477 . S
C1847 H1867 0.930 . S
C1848 N1844 1.362 . S
C1848 C1845 1.431 . S
C1848 C1858 1.476 . S
H1849 C1843 0.929 . S
C1850 O1841 1.250 . S
C1850 O1842 1.258 . S
O1851 Mn1836 2.162 . S
O1851 C1839 1.281 . S
O1852 Mn1836 2.297 . S
O1852 C1839 1.236 . S
N1853 Mn1837 2.282 . S
N1853 C1854 1.328 . S
N1853 C1858 1.318 . S
C1854 N1853 1.328 . S
C1854 C1855 1.457 . S
C1854 H1859 0.929 . S
C1855 C1854 1.457 . S
C1855 C1856 1.291 . S
C1855 H1868 0.931 . S
C1856 C1855 1.291 . S
C1856 C1857 1.373 . S
C1856 H1869 0.929 . S
C1857 C1856 1.373 . S
C1857 C1858 1.396 . S
C1857 C1864 1.403 . S
C1858 C1848 1.476 . S
C1858 N1853 1.318 . S
C1858 C1857 1.396 . S
H1859 C1854 0.929 . S
O1860 Mn1836 2.385 . S
O1860 C1838 1.234 . S
O1861 Mn1836 2.209 . S
O1861 Mn1837 2.215 . S
O1861 C1838 1.283 . S
O1862 Mn1836 2.094 . S
O1862 C1840 1.240 . S
O1863 Mn1837 2.117 . S
O1863 C1840 1.264 . S
C1864 C1857 1.403 . S
C1864 C1865 1.399 . S
C1864 H1870 0.929 . S
C1865 C1845 1.449 . S
C1865 C1864 1.399 . S
C1865 H1871 0.930 . S
H1866 C1846 0.931 . S
H1867 C1847 0.930 . S
H1868 C1855 0.931 . S
H1869 C1856 0.929 . S
H1870 C1864 0.929 . S
H1871 C1865 0.930 . S
Mn1872 O1877 2.095 . S
Mn1872 O1887 2.162 . S
Mn1872 O1888 2.297 . S
Mn1872 O1896 2.385 . S
Mn1872 O1897 2.209 . S
Mn1872 O1898 2.094 . S
Mn1873 O1878 2.121 . S
Mn1873 N1880 2.257 . S
Mn1873 N1889 2.282 . S
Mn1873 O1897 2.215 . S
Mn1873 O1899 2.117 . S
C1874 O1896 1.234 . S
C1874 O1897 1.283 . S
C1875 O1887 1.281 . S
C1875 O1888 1.236 . S
C1876 O1898 1.240 . S
C1876 O1899 1.264 . S
O1877 Mn1872 2.095 . S
O1877 C1886 1.250 . S
O1878 Mn1873 2.121 . S
O1878 C1886 1.258 . S
C1879 N1880 1.326 . S
C1879 C1883 1.460 . S
C1879 H1885 0.929 . S
N1880 Mn1873 2.257 . S
N1880 C1879 1.326 . S
N1880 C1884 1.362 . S
C1881 C1882 1.258 . S
C1881 C1884 1.431 . S
C1881 C1901 1.449 . S
C1882 C1881 1.258 . S
C1882 C1883 1.477 . S
C1882 H1902 0.931 . S
C1883 C1879 1.460 . S
C1883 C1882 1.477 . S
C1883 H1903 0.930 . S
C1884 N1880 1.362 . S
C1884 C1881 1.431 . S
C1884 C1894 1.476 . S
H1885 C1879 0.929 . S
C1886 O1877 1.250 . S
C1886 O1878 1.258 . S
O1887 Mn1872 2.162 . S
O1887 C1875 1.281 . S
O1888 Mn1872 2.297 . S
O1888 C1875 1.236 . S
N1889 Mn1873 2.282 . S
N1889 C1890 1.328 . S
N1889 C1894 1.318 . S
C1890 N1889 1.328 . S
C1890 C1891 1.457 . S
C1890 H1895 0.929 . S
C1891 C1890 1.457 . S
C1891 C1892 1.291 . S
C1891 H1904 0.931 . S
C1892 C1891 1.291 . S
C1892 C1893 1.373 . S
C1892 H1905 0.929 . S
C1893 C1892 1.373 . S
C1893 C1894 1.396 . S
C1893 C1900 1.403 . S
C1894 C1884 1.476 . S
C1894 N1889 1.318 . S
C1894 C1893 1.396 . S
H1895 C1890 0.929 . S
O1896 Mn1872 2.385 . S
O1896 C1874 1.234 . S
O1897 Mn1872 2.209 . S
O1897 Mn1873 2.215 . S
O1897 C1874 1.283 . S
O1898 Mn1872 2.094 . S
O1898 C1876 1.240 . S
O1899 Mn1873 2.117 . S
O1899 C1876 1.264 . S
C1900 C1893 1.403 . S
C1900 C1901 1.399 . S
C1900 H1906 0.929 . S
C1901 C1881 1.449 . S
C1901 C1900 1.399 . S
C1901 H1907 0.930 . S
H1902 C1882 0.931 . S
H1903 C1883 0.930 . S
H1904 C1891 0.931 . S
H1905 C1892 0.929 . S
H1906 C1900 0.929 . S
H1907 C1901 0.930 . S
Mn1908 O1913 2.095 . S
Mn1908 O1923 2.162 . S
Mn1908 O1924 2.297 . S
Mn1908 O1932 2.385 . S
Mn1908 O1933 2.209 . S
Mn1908 O1934 2.094 . S
Mn1909 O1914 2.121 . S
Mn1909 N1916 2.257 . S
Mn1909 N1925 2.282 . S
Mn1909 O1933 2.215 . S
Mn1909 O1935 2.117 . S
C1910 O1932 1.234 . S
C1910 O1933 1.283 . S
C1911 O1923 1.281 . S
C1911 O1924 1.236 . S
C1912 O1934 1.240 . S
C1912 O1935 1.264 . S
O1913 Mn1908 2.095 . S
O1913 C1922 1.250 . S
O1914 Mn1909 2.121 . S
O1914 C1922 1.258 . S
C1915 N1916 1.326 . S
C1915 C1919 1.460 . S
C1915 H1921 0.929 . S
N1916 Mn1909 2.257 . S
N1916 C1915 1.326 . S
N1916 C1920 1.362 . S
C1917 C1918 1.258 . S
C1917 C1920 1.431 . S
C1917 C1937 1.449 . S
C1918 C1917 1.258 . S
C1918 C1919 1.477 . S
C1918 H1938 0.931 . S
C1919 C1915 1.460 . S
C1919 C1918 1.477 . S
C1919 H1939 0.930 . S
C1920 N1916 1.362 . S
C1920 C1917 1.431 . S
C1920 C1930 1.476 . S
H1921 C1915 0.929 . S
C1922 O1913 1.250 . S
C1922 O1914 1.258 . S
O1923 Mn1908 2.162 . S
O1923 C1911 1.281 . S
O1924 Mn1908 2.297 . S
O1924 C1911 1.236 . S
N1925 Mn1909 2.282 . S
N1925 C1926 1.328 . S
N1925 C1930 1.318 . S
C1926 N1925 1.328 . S
C1926 C1927 1.457 . S
C1926 H1931 0.929 . S
C1927 C1926 1.457 . S
C1927 C1928 1.291 . S
C1927 H1940 0.931 . S
C1928 C1927 1.291 . S
C1928 C1929 1.373 . S
C1928 H1941 0.929 . S
C1929 C1928 1.373 . S
C1929 C1930 1.396 . S
C1929 C1936 1.403 . S
C1930 C1920 1.476 . S
C1930 N1925 1.318 . S
C1930 C1929 1.396 . S
H1931 C1926 0.929 . S
O1932 Mn1908 2.385 . S
O1932 C1910 1.234 . S
O1933 Mn1908 2.209 . S
O1933 Mn1909 2.215 . S
O1933 C1910 1.283 . S
O1934 Mn1908 2.094 . S
O1934 C1912 1.240 . S
O1935 Mn1909 2.117 . S
O1935 C1912 1.264 . S
C1936 C1929 1.403 . S
C1936 C1937 1.399 . S
C1936 H1942 0.929 . S
C1937 C1917 1.449 . S
C1937 C1936 1.399 . S
C1937 H1943 0.930 . S
H1938 C1918 0.931 . S
H1939 C1919 0.930 . S
H1940 C1927 0.931 . S
H1941 C1928 0.929 . S
H1942 C1936 0.929 . S
H1943 C1937 0.930 . S
Mn1944 O1949 2.095 . S
Mn1944 O1959 2.162 . S
Mn1944 O1960 2.297 . S
Mn1944 O1968 2.385 . S
Mn1944 O1969 2.209 . S
Mn1944 O1970 2.094 . S
Mn1945 O1950 2.121 . S
Mn1945 N1952 2.257 . S
Mn1945 N1961 2.282 . S
Mn1945 O1969 2.215 . S
Mn1945 O1971 2.117 . S
C1946 O1968 1.234 . S
C1946 O1969 1.283 . S
C1947 O1959 1.281 . S
C1947 O1960 1.236 . S
C1948 O1970 1.240 . S
C1948 O1971 1.264 . S
O1949 Mn1944 2.095 . S
O1949 C1958 1.250 . S
O1950 Mn1945 2.121 . S
O1950 C1958 1.258 . S
C1951 N1952 1.326 . S
C1951 C1955 1.460 . S
C1951 H1957 0.929 . S
N1952 Mn1945 2.257 . S
N1952 C1951 1.326 . S
N1952 C1956 1.362 . S
C1953 C1954 1.258 . S
C1953 C1956 1.431 . S
C1953 C1973 1.449 . S
C1954 C1953 1.258 . S
C1954 C1955 1.477 . S
C1954 H1974 0.931 . S
C1955 C1951 1.460 . S
C1955 C1954 1.477 . S
C1955 H1975 0.930 . S
C1956 N1952 1.362 . S
C1956 C1953 1.431 . S
C1956 C1966 1.476 . S
H1957 C1951 0.929 . S
C1958 O1949 1.250 . S
C1958 O1950 1.258 . S
O1959 Mn1944 2.162 . S
O1959 C1947 1.281 . S
O1960 Mn1944 2.297 . S
O1960 C1947 1.236 . S
N1961 Mn1945 2.282 . S
N1961 C1962 1.328 . S
N1961 C1966 1.318 . S
C1962 N1961 1.328 . S
C1962 C1963 1.457 . S
C1962 H1967 0.929 . S
C1963 C1962 1.457 . S
C1963 C1964 1.291 . S
C1963 H1976 0.931 . S
C1964 C1963 1.291 . S
C1964 C1965 1.373 . S
C1964 H1977 0.929 . S
C1965 C1964 1.373 . S
C1965 C1966 1.396 . S
C1965 C1972 1.403 . S
C1966 C1956 1.476 . S
C1966 N1961 1.318 . S
C1966 C1965 1.396 . S
H1967 C1962 0.929 . S
O1968 Mn1944 2.385 . S
O1968 C1946 1.234 . S
O1969 Mn1944 2.209 . S
O1969 Mn1945 2.215 . S
O1969 C1946 1.283 . S
O1970 Mn1944 2.094 . S
O1970 C1948 1.240 . S
O1971 Mn1945 2.117 . S
O1971 C1948 1.264 . S
C1972 C1965 1.403 . S
C1972 C1973 1.399 . S
C1972 H1978 0.929 . S
C1973 C1953 1.449 . S
C1973 C1972 1.399 . S
C1973 H1979 0.930 . S
H1974 C1954 0.931 . S
H1975 C1955 0.930 . S
H1976 C1963 0.931 . S
H1977 C1964 0.929 . S
H1978 C1972 0.929 . S
H1979 C1973 0.930 . S
Mn1980 O1985 2.095 . S
Mn1980 O1995 2.162 . S
Mn1980 O1996 2.297 . S
Mn1980 O2004 2.385 . S
Mn1980 O2005 2.209 . S
Mn1980 O2006 2.094 . S
Mn1981 O1986 2.121 . S
Mn1981 N1988 2.257 . S
Mn1981 N1997 2.282 . S
Mn1981 O2005 2.215 . S
Mn1981 O2007 2.117 . S
C1982 O2004 1.234 . S
C1982 O2005 1.283 . S
C1983 O1995 1.281 . S
C1983 O1996 1.236 . S
C1984 O2006 1.240 . S
C1984 O2007 1.264 . S
O1985 Mn1980 2.095 . S
O1985 C1994 1.250 . S
O1986 Mn1981 2.121 . S
O1986 C1994 1.258 . S
C1987 N1988 1.326 . S
C1987 C1991 1.460 . S
C1987 H1993 0.929 . S
N1988 Mn1981 2.257 . S
N1988 C1987 1.326 . S
N1988 C1992 1.362 . S
C1989 C1990 1.258 . S
C1989 C1992 1.431 . S
C1989 C2009 1.449 . S
C1990 C1989 1.258 . S
C1990 C1991 1.477 . S
C1990 H2010 0.931 . S
C1991 C1987 1.460 . S
C1991 C1990 1.477 . S
C1991 H2011 0.930 . S
C1992 N1988 1.362 . S
C1992 C1989 1.431 . S
C1992 C2002 1.476 . S
H1993 C1987 0.929 . S
C1994 O1985 1.250 . S
C1994 O1986 1.258 . S
O1995 Mn1980 2.162 . S
O1995 C1983 1.281 . S
O1996 Mn1980 2.297 . S
O1996 C1983 1.236 . S
N1997 Mn1981 2.282 . S
N1997 C1998 1.328 . S
N1997 C2002 1.318 . S
C1998 N1997 1.328 . S
C1998 C1999 1.457 . S
C1998 H2003 0.929 . S
C1999 C1998 1.457 . S
C1999 C2000 1.291 . S
C1999 H2012 0.931 . S
C2000 C1999 1.291 . S
C2000 C2001 1.373 . S
C2000 H2013 0.929 . S
C2001 C2000 1.373 . S
C2001 C2002 1.396 . S
C2001 C2008 1.403 . S
C2002 C1992 1.476 . S
C2002 N1997 1.318 . S
C2002 C2001 1.396 . S
H2003 C1998 0.929 . S
O2004 Mn1980 2.385 . S
O2004 C1982 1.234 . S
O2005 Mn1980 2.209 . S
O2005 Mn1981 2.215 . S
O2005 C1982 1.283 . S
O2006 Mn1980 2.094 . S
O2006 C1984 1.240 . S
O2007 Mn1981 2.117 . S
O2007 C1984 1.264 . S
C2008 C2001 1.403 . S
C2008 C2009 1.399 . S
C2008 H2014 0.929 . S
C2009 C1989 1.449 . S
C2009 C2008 1.399 . S
C2009 H2015 0.930 . S
H2010 C1990 0.931 . S
H2011 C1991 0.930 . S
H2012 C1999 0.931 . S
H2013 C2000 0.929 . S
H2014 C2008 0.929 . S
H2015 C2009 0.930 . S
Mn2016 O2021 2.095 . S
Mn2016 O2031 2.162 . S
Mn2016 O2032 2.297 . S
Mn2016 O2040 2.385 . S
Mn2016 O2041 2.209 . S
Mn2016 O2042 2.094 . S
Mn2017 O2022 2.121 . S
Mn2017 N2024 2.257 . S
Mn2017 N2033 2.282 . S
Mn2017 O2041 2.215 . S
Mn2017 O2043 2.117 . S
C2018 O2040 1.234 . S
C2018 O2041 1.283 . S
C2019 O2031 1.281 . S
C2019 O2032 1.236 . S
C2020 O2042 1.240 . S
C2020 O2043 1.264 . S
O2021 Mn2016 2.095 . S
O2021 C2030 1.250 . S
O2022 Mn2017 2.121 . S
O2022 C2030 1.258 . S
C2023 N2024 1.326 . S
C2023 C2027 1.460 . S
C2023 H2029 0.929 . S
N2024 Mn2017 2.257 . S
N2024 C2023 1.326 . S
N2024 C2028 1.362 . S
C2025 C2026 1.258 . S
C2025 C2028 1.431 . S
C2025 C2045 1.449 . S
C2026 C2025 1.258 . S
C2026 C2027 1.477 . S
C2026 H2046 0.931 . S
C2027 C2023 1.460 . S
C2027 C2026 1.477 . S
C2027 H2047 0.930 . S
C2028 N2024 1.362 . S
C2028 C2025 1.431 . S
C2028 C2038 1.476 . S
H2029 C2023 0.929 . S
C2030 O2021 1.250 . S
C2030 O2022 1.258 . S
O2031 Mn2016 2.162 . S
O2031 C2019 1.281 . S
O2032 Mn2016 2.297 . S
O2032 C2019 1.236 . S
N2033 Mn2017 2.282 . S
N2033 C2034 1.328 . S
N2033 C2038 1.318 . S
C2034 N2033 1.328 . S
C2034 C2035 1.457 . S
C2034 H2039 0.929 . S
C2035 C2034 1.457 . S
C2035 C2036 1.291 . S
C2035 H2048 0.931 . S
C2036 C2035 1.291 . S
C2036 C2037 1.373 . S
C2036 H2049 0.929 . S
C2037 C2036 1.373 . S
C2037 C2038 1.396 . S
C2037 C2044 1.403 . S
C2038 C2028 1.476 . S
C2038 N2033 1.318 . S
C2038 C2037 1.396 . S
H2039 C2034 0.929 . S
O2040 Mn2016 2.385 . S
O2040 C2018 1.234 . S
O2041 Mn2016 2.209 . S
O2041 Mn2017 2.215 . S
O2041 C2018 1.283 . S
O2042 Mn2016 2.094 . S
O2042 C2020 1.240 . S
O2043 Mn2017 2.117 . S
O2043 C2020 1.264 . S
C2044 C2037 1.403 . S
C2044 C2045 1.399 . S
C2044 H2050 0.929 . S
C2045 C2025 1.449 . S
C2045 C2044 1.399 . S
C2045 H2051 0.930 . S
H2046 C2026 0.931 . S
H2047 C2027 0.930 . S
H2048 C2035 0.931 . S
H2049 C2036 0.929 . S
H2050 C2044 0.929 . S
H2051 C2045 0.930 . S
Mn2052 O2057 2.095 . S
Mn2052 O2067 2.162 . S
Mn2052 O2068 2.297 . S
Mn2052 O2076 2.385 . S
Mn2052 O2077 2.209 . S
Mn2052 O2078 2.094 . S
Mn2053 O2058 2.121 . S
Mn2053 N2060 2.257 . S
Mn2053 N2069 2.282 . S
Mn2053 O2077 2.215 . S
Mn2053 O2079 2.117 . S
C2054 O2076 1.234 . S
C2054 O2077 1.283 . S
C2055 O2067 1.281 . S
C2055 O2068 1.236 . S
C2056 O2078 1.240 . S
C2056 O2079 1.264 . S
O2057 Mn2052 2.095 . S
O2057 C2066 1.250 . S
O2058 Mn2053 2.121 . S
O2058 C2066 1.258 . S
C2059 N2060 1.326 . S
C2059 C2063 1.460 . S
C2059 H2065 0.929 . S
N2060 Mn2053 2.257 . S
N2060 C2059 1.326 . S
N2060 C2064 1.362 . S
C2061 C2062 1.258 . S
C2061 C2064 1.431 . S
C2061 C2081 1.449 . S
C2062 C2061 1.258 . S
C2062 C2063 1.477 . S
C2062 H2082 0.931 . S
C2063 C2059 1.460 . S
C2063 C2062 1.477 . S
C2063 H2083 0.930 . S
C2064 N2060 1.362 . S
C2064 C2061 1.431 . S
C2064 C2074 1.476 . S
H2065 C2059 0.929 . S
C2066 O2057 1.250 . S
C2066 O2058 1.258 . S
O2067 Mn2052 2.162 . S
O2067 C2055 1.281 . S
O2068 Mn2052 2.297 . S
O2068 C2055 1.236 . S
N2069 Mn2053 2.282 . S
N2069 C2070 1.328 . S
N2069 C2074 1.318 . S
C2070 N2069 1.328 . S
C2070 C2071 1.457 . S
C2070 H2075 0.929 . S
C2071 C2070 1.457 . S
C2071 C2072 1.291 . S
C2071 H2084 0.931 . S
C2072 C2071 1.291 . S
C2072 C2073 1.373 . S
C2072 H2085 0.929 . S
C2073 C2072 1.373 . S
C2073 C2074 1.396 . S
C2073 C2080 1.403 . S
C2074 C2064 1.476 . S
C2074 N2069 1.318 . S
C2074 C2073 1.396 . S
H2075 C2070 0.929 . S
O2076 Mn2052 2.385 . S
O2076 C2054 1.234 . S
O2077 Mn2052 2.209 . S
O2077 Mn2053 2.215 . S
O2077 C2054 1.283 . S
O2078 Mn2052 2.094 . S
O2078 C2056 1.240 . S
O2079 Mn2053 2.117 . S
O2079 C2056 1.264 . S
C2080 C2073 1.403 . S
C2080 C2081 1.399 . S
C2080 H2086 0.929 . S
C2081 C2061 1.449 . S
C2081 C2080 1.399 . S
C2081 H2087 0.930 . S
H2082 C2062 0.931 . S
H2083 C2063 0.930 . S
H2084 C2071 0.931 . S
H2085 C2072 0.929 . S
H2086 C2080 0.929 . S
H2087 C2081 0.930 . S
Mn2088 O2093 2.095 . S
Mn2088 O2103 2.162 . S
Mn2088 O2104 2.297 . S
Mn2088 O2112 2.385 . S
Mn2088 O2113 2.209 . S
Mn2088 O2114 2.094 . S
Mn2089 O2094 2.121 . S
Mn2089 N2096 2.257 . S
Mn2089 N2105 2.282 . S
Mn2089 O2113 2.215 . S
Mn2089 O2115 2.117 . S
C2090 O2112 1.234 . S
C2090 O2113 1.283 . S
C2091 O2103 1.281 . S
C2091 O2104 1.236 . S
C2092 O2114 1.240 . S
C2092 O2115 1.264 . S
O2093 Mn2088 2.095 . S
O2093 C2102 1.250 . S
O2094 Mn2089 2.121 . S
O2094 C2102 1.258 . S
C2095 N2096 1.326 . S
C2095 C2099 1.460 . S
C2095 H2101 0.929 . S
N2096 Mn2089 2.257 . S
N2096 C2095 1.326 . S
N2096 C2100 1.362 . S
C2097 C2098 1.258 . S
C2097 C2100 1.431 . S
C2097 C2117 1.449 . S
C2098 C2097 1.258 . S
C2098 C2099 1.477 . S
C2098 H2118 0.931 . S
C2099 C2095 1.460 . S
C2099 C2098 1.477 . S
C2099 H2119 0.930 . S
C2100 N2096 1.362 . S
C2100 C2097 1.431 . S
C2100 C2110 1.476 . S
H2101 C2095 0.929 . S
C2102 O2093 1.250 . S
C2102 O2094 1.258 . S
O2103 Mn2088 2.162 . S
O2103 C2091 1.281 . S
O2104 Mn2088 2.297 . S
O2104 C2091 1.236 . S
N2105 Mn2089 2.282 . S
N2105 C2106 1.328 . S
N2105 C2110 1.318 . S
C2106 N2105 1.328 . S
C2106 C2107 1.457 . S
C2106 H2111 0.929 . S
C2107 C2106 1.457 . S
C2107 C2108 1.291 . S
C2107 H2120 0.931 . S
C2108 C2107 1.291 . S
C2108 C2109 1.373 . S
C2108 H2121 0.929 . S
C2109 C2108 1.373 . S
C2109 C2110 1.396 . S
C2109 C2116 1.403 . S
C2110 C2100 1.476 . S
C2110 N2105 1.318 . S
C2110 C2109 1.396 . S
H2111 C2106 0.929 . S
O2112 Mn2088 2.385 . S
O2112 C2090 1.234 . S
O2113 Mn2088 2.209 . S
O2113 Mn2089 2.215 . S
O2113 C2090 1.283 . S
O2114 Mn2088 2.094 . S
O2114 C2092 1.240 . S
O2115 Mn2089 2.117 . S
O2115 C2092 1.264 . S
C2116 C2109 1.403 . S
C2116 C2117 1.399 . S
C2116 H2122 0.929 . S
C2117 C2097 1.449 . S
C2117 C2116 1.399 . S
C2117 H2123 0.930 . S
H2118 C2098 0.931 . S
H2119 C2099 0.930 . S
H2120 C2107 0.931 . S
H2121 C2108 0.929 . S
H2122 C2116 0.929 . S
H2123 C2117 0.930 . S
Mn2124 O2129 2.095 . S
Mn2124 O2139 2.162 . S
Mn2124 O2140 2.297 . S
Mn2124 O2148 2.385 . S
Mn2124 O2149 2.209 . S
Mn2124 O2150 2.094 . S
Mn2125 O2130 2.121 . S
Mn2125 N2132 2.257 . S
Mn2125 N2141 2.282 . S
Mn2125 O2149 2.215 . S
Mn2125 O2151 2.117 . S
C2126 O2148 1.234 . S
C2126 O2149 1.283 . S
C2127 O2139 1.281 . S
C2127 O2140 1.236 . S
C2128 O2150 1.240 . S
C2128 O2151 1.264 . S
O2129 Mn2124 2.095 . S
O2129 C2138 1.250 . S
O2130 Mn2125 2.121 . S
O2130 C2138 1.258 . S
C2131 N2132 1.326 . S
C2131 C2135 1.460 . S
C2131 H2137 0.929 . S
N2132 Mn2125 2.257 . S
N2132 C2131 1.326 . S
N2132 C2136 1.362 . S
C2133 C2134 1.258 . S
C2133 C2136 1.431 . S
C2133 C2153 1.449 . S
C2134 C2133 1.258 . S
C2134 C2135 1.477 . S
C2134 H2154 0.931 . S
C2135 C2131 1.460 . S
C2135 C2134 1.477 . S
C2135 H2155 0.930 . S
C2136 N2132 1.362 . S
C2136 C2133 1.431 . S
C2136 C2146 1.476 . S
H2137 C2131 0.929 . S
C2138 O2129 1.250 . S
C2138 O2130 1.258 . S
O2139 Mn2124 2.162 . S
O2139 C2127 1.281 . S
O2140 Mn2124 2.297 . S
O2140 C2127 1.236 . S
N2141 Mn2125 2.282 . S
N2141 C2142 1.328 . S
N2141 C2146 1.318 . S
C2142 N2141 1.328 . S
C2142 C2143 1.457 . S
C2142 H2147 0.929 . S
C2143 C2142 1.457 . S
C2143 C2144 1.291 . S
C2143 H2156 0.931 . S
C2144 C2143 1.291 . S
C2144 C2145 1.373 . S
C2144 H2157 0.929 . S
C2145 C2144 1.373 . S
C2145 C2146 1.396 . S
C2145 C2152 1.403 . S
C2146 C2136 1.476 . S
C2146 N2141 1.318 . S
C2146 C2145 1.396 . S
H2147 C2142 0.929 . S
O2148 Mn2124 2.385 . S
O2148 C2126 1.234 . S
O2149 Mn2124 2.209 . S
O2149 Mn2125 2.215 . S
O2149 C2126 1.283 . S
O2150 Mn2124 2.094 . S
O2150 C2128 1.240 . S
O2151 Mn2125 2.117 . S
O2151 C2128 1.264 . S
C2152 C2145 1.403 . S
C2152 C2153 1.399 . S
C2152 H2158 0.929 . S
C2153 C2133 1.449 . S
C2153 C2152 1.399 . S
C2153 H2159 0.930 . S
H2154 C2134 0.931 . S
H2155 C2135 0.930 . S
H2156 C2143 0.931 . S
H2157 C2144 0.929 . S
H2158 C2152 0.929 . S
H2159 C2153 0.930 . S
Mn2160 O2165 2.095 . S
Mn2160 O2175 2.162 . S
Mn2160 O2176 2.297 . S
Mn2160 O2184 2.385 . S
Mn2160 O2185 2.209 . S
Mn2160 O2186 2.094 . S
Mn2161 O2166 2.121 . S
Mn2161 N2168 2.257 . S
Mn2161 N2177 2.282 . S
Mn2161 O2185 2.215 . S
Mn2161 O2187 2.117 . S
C2162 O2184 1.234 . S
C2162 O2185 1.283 . S
C2163 O2175 1.281 . S
C2163 O2176 1.236 . S
C2164 O2186 1.240 . S
C2164 O2187 1.264 . S
O2165 Mn2160 2.095 . S
O2165 C2174 1.250 . S
O2166 Mn2161 2.121 . S
O2166 C2174 1.258 . S
C2167 N2168 1.326 . S
C2167 C2171 1.460 . S
C2167 H2173 0.929 . S
N2168 Mn2161 2.257 . S
N2168 C2167 1.326 . S
N2168 C2172 1.362 . S
C2169 C2170 1.258 . S
C2169 C2172 1.431 . S
C2169 C2189 1.449 . S
C2170 C2169 1.258 . S
C2170 C2171 1.477 . S
C2170 H2190 0.931 . S
C2171 C2167 1.460 . S
C2171 C2170 1.477 . S
C2171 H2191 0.930 . S
C2172 N2168 1.362 . S
C2172 C2169 1.431 . S
C2172 C2182 1.476 . S
H2173 C2167 0.929 . S
C2174 O2165 1.250 . S
C2174 O2166 1.258 . S
O2175 Mn2160 2.162 . S
O2175 C2163 1.281 . S
O2176 Mn2160 2.297 . S
O2176 C2163 1.236 . S
N2177 Mn2161 2.282 . S
N2177 C2178 1.328 . S
N2177 C2182 1.318 . S
C2178 N2177 1.328 . S
C2178 C2179 1.457 . S
C2178 H2183 0.929 . S
C2179 C2178 1.457 . S
C2179 C2180 1.291 . S
C2179 H2192 0.931 . S
C2180 C2179 1.291 . S
C2180 C2181 1.373 . S
C2180 H2193 0.929 . S
C2181 C2180 1.373 . S
C2181 C2182 1.396 . S
C2181 C2188 1.403 . S
C2182 C2172 1.476 . S
C2182 N2177 1.318 . S
C2182 C2181 1.396 . S
H2183 C2178 0.929 . S
O2184 Mn2160 2.385 . S
O2184 C2162 1.234 . S
O2185 Mn2160 2.209 . S
O2185 Mn2161 2.215 . S
O2185 C2162 1.283 . S
O2186 Mn2160 2.094 . S
O2186 C2164 1.240 . S
O2187 Mn2161 2.117 . S
O2187 C2164 1.264 . S
C2188 C2181 1.403 . S
C2188 C2189 1.399 . S
C2188 H2194 0.929 . S
C2189 C2169 1.449 . S
C2189 C2188 1.399 . S
C2189 H2195 0.930 . S
H2190 C2170 0.931 . S
H2191 C2171 0.930 . S
H2192 C2179 0.931 . S
H2193 C2180 0.929 . S
H2194 C2188 0.929 . S
H2195 C2189 0.930 . S
Mn2196 O2201 2.095 . S
Mn2196 O2211 2.162 . S
Mn2196 O2212 2.297 . S
Mn2196 O2220 2.385 . S
Mn2196 O2221 2.209 . S
Mn2196 O2222 2.094 . S
Mn2197 O2202 2.121 . S
Mn2197 N2204 2.257 . S
Mn2197 N2213 2.282 . S
Mn2197 O2221 2.215 . S
Mn2197 O2223 2.117 . S
C2198 O2220 1.234 . S
C2198 O2221 1.283 . S
C2199 O2211 1.281 . S
C2199 O2212 1.236 . S
C2200 O2222 1.240 . S
C2200 O2223 1.264 . S
O2201 Mn2196 2.095 . S
O2201 C2210 1.250 . S
O2202 Mn2197 2.121 . S
O2202 C2210 1.258 . S
C2203 N2204 1.326 . S
C2203 C2207 1.460 . S
C2203 H2209 0.929 . S
N2204 Mn2197 2.257 . S
N2204 C2203 1.326 . S
N2204 C2208 1.362 . S
C2205 C2206 1.258 . S
C2205 C2208 1.431 . S
C2205 C2225 1.449 . S
C2206 C2205 1.258 . S
C2206 C2207 1.477 . S
C2206 H2226 0.931 . S
C2207 C2203 1.460 . S
C2207 C2206 1.477 . S
C2207 H2227 0.930 . S
C2208 N2204 1.362 . S
C2208 C2205 1.431 . S
C2208 C2218 1.476 . S
H2209 C2203 0.929 . S
C2210 O2201 1.250 . S
C2210 O2202 1.258 . S
O2211 Mn2196 2.162 . S
O2211 C2199 1.281 . S
O2212 Mn2196 2.297 . S
O2212 C2199 1.236 . S
N2213 Mn2197 2.282 . S
N2213 C2214 1.328 . S
N2213 C2218 1.318 . S
C2214 N2213 1.328 . S
C2214 C2215 1.457 . S
C2214 H2219 0.929 . S
C2215 C2214 1.457 . S
C2215 C2216 1.291 . S
C2215 H2228 0.931 . S
C2216 C2215 1.291 . S
C2216 C2217 1.373 . S
C2216 H2229 0.929 . S
C2217 C2216 1.373 . S
C2217 C2218 1.396 . S
C2217 C2224 1.403 . S
C2218 C2208 1.476 . S
C2218 N2213 1.318 . S
C2218 C2217 1.396 . S
H2219 C2214 0.929 . S
O2220 Mn2196 2.385 . S
O2220 C2198 1.234 . S
O2221 Mn2196 2.209 . S
O2221 Mn2197 2.215 . S
O2221 C2198 1.283 . S
O2222 Mn2196 2.094 . S
O2222 C2200 1.240 . S
O2223 Mn2197 2.117 . S
O2223 C2200 1.264 . S
C2224 C2217 1.403 . S
C2224 C2225 1.399 . S
C2224 H2230 0.929 . S
C2225 C2205 1.449 . S
C2225 C2224 1.399 . S
C2225 H2231 0.930 . S
H2226 C2206 0.931 . S
H2227 C2207 0.930 . S
H2228 C2215 0.931 . S
H2229 C2216 0.929 . S
H2230 C2224 0.929 . S
H2231 C2225 0.930 . S
Mn2232 O2237 2.095 . S
Mn2232 O2247 2.162 . S
Mn2232 O2248 2.297 . S
Mn2232 O2256 2.385 . S
Mn2232 O2257 2.209 . S
Mn2232 O2258 2.094 . S
Mn2233 O2238 2.121 . S
Mn2233 N2240 2.257 . S
Mn2233 N2249 2.282 . S
Mn2233 O2257 2.215 . S
Mn2233 O2259 2.117 . S
C2234 O2256 1.234 . S
C2234 O2257 1.283 . S
C2235 O2247 1.281 . S
C2235 O2248 1.236 . S
C2236 O2258 1.240 . S
C2236 O2259 1.264 . S
O2237 Mn2232 2.095 . S
O2237 C2246 1.250 . S
O2238 Mn2233 2.121 . S
O2238 C2246 1.258 . S
C2239 N2240 1.326 . S
C2239 C2243 1.460 . S
C2239 H2245 0.929 . S
N2240 Mn2233 2.257 . S
N2240 C2239 1.326 . S
N2240 C2244 1.362 . S
C2241 C2242 1.258 . S
C2241 C2244 1.431 . S
C2241 C2261 1.449 . S
C2242 C2241 1.258 . S
C2242 C2243 1.477 . S
C2242 H2262 0.931 . S
C2243 C2239 1.460 . S
C2243 C2242 1.477 . S
C2243 H2263 0.930 . S
C2244 N2240 1.362 . S
C2244 C2241 1.431 . S
C2244 C2254 1.476 . S
H2245 C2239 0.929 . S
C2246 O2237 1.250 . S
C2246 O2238 1.258 . S
O2247 Mn2232 2.162 . S
O2247 C2235 1.281 . S
O2248 Mn2232 2.297 . S
O2248 C2235 1.236 . S
N2249 Mn2233 2.282 . S
N2249 C2250 1.328 . S
N2249 C2254 1.318 . S
C2250 N2249 1.328 . S
C2250 C2251 1.457 . S
C2250 H2255 0.929 . S
C2251 C2250 1.457 . S
C2251 C2252 1.291 . S
C2251 H2264 0.931 . S
C2252 C2251 1.291 . S
C2252 C2253 1.373 . S
C2252 H2265 0.929 . S
C2253 C2252 1.373 . S
C2253 C2254 1.396 . S
C2253 C2260 1.403 . S
C2254 C2244 1.476 . S
C2254 N2249 1.318 . S
C2254 C2253 1.396 . S
H2255 C2250 0.929 . S
O2256 Mn2232 2.385 . S
O2256 C2234 1.234 . S
O2257 Mn2232 2.209 . S
O2257 Mn2233 2.215 . S
O2257 C2234 1.283 . S
O2258 Mn2232 2.094 . S
O2258 C2236 1.240 . S
O2259 Mn2233 2.117 . S
O2259 C2236 1.264 . S
C2260 C2253 1.403 . S
C2260 C2261 1.399 . S
C2260 H2266 0.929 . S
C2261 C2241 1.449 . S
C2261 C2260 1.399 . S
C2261 H2267 0.930 . S
H2262 C2242 0.931 . S
H2263 C2243 0.930 . S
H2264 C2251 0.931 . S
H2265 C2252 0.929 . S
H2266 C2260 0.929 . S
H2267 C2261 0.930 . S
Mn2268 O2273 2.095 . S
Mn2268 O2283 2.162 . S
Mn2268 O2284 2.297 . S
Mn2268 O2292 2.385 . S
Mn2268 O2293 2.209 . S
Mn2268 O2294 2.094 . S
Mn2269 O2274 2.121 . S
Mn2269 N2276 2.257 . S
Mn2269 N2285 2.282 . S
Mn2269 O2293 2.215 . S
Mn2269 O2295 2.117 . S
C2270 O2292 1.234 . S
C2270 O2293 1.283 . S
C2271 O2283 1.281 . S
C2271 O2284 1.236 . S
C2272 O2294 1.240 . S
C2272 O2295 1.264 . S
O2273 Mn2268 2.095 . S
O2273 C2282 1.250 . S
O2274 Mn2269 2.121 . S
O2274 C2282 1.258 . S
C2275 N2276 1.326 . S
C2275 C2279 1.460 . S
C2275 H2281 0.929 . S
N2276 Mn2269 2.257 . S
N2276 C2275 1.326 . S
N2276 C2280 1.362 . S
C2277 C2278 1.258 . S
C2277 C2280 1.431 . S
C2277 C2297 1.449 . S
C2278 C2277 1.258 . S
C2278 C2279 1.477 . S
C2278 H2298 0.931 . S
C2279 C2275 1.460 . S
C2279 C2278 1.477 . S
C2279 H2299 0.930 . S
C2280 N2276 1.362 . S
C2280 C2277 1.431 . S
C2280 C2290 1.476 . S
H2281 C2275 0.929 . S
C2282 O2273 1.250 . S
C2282 O2274 1.258 . S
O2283 Mn2268 2.162 . S
O2283 C2271 1.281 . S
O2284 Mn2268 2.297 . S
O2284 C2271 1.236 . S
N2285 Mn2269 2.282 . S
N2285 C2286 1.328 . S
N2285 C2290 1.318 . S
C2286 N2285 1.328 . S
C2286 C2287 1.457 . S
C2286 H2291 0.929 . S
C2287 C2286 1.457 . S
C2287 C2288 1.291 . S
C2287 H2300 0.931 . S
C2288 C2287 1.291 . S
C2288 C2289 1.373 . S
C2288 H2301 0.929 . S
C2289 C2288 1.373 . S
C2289 C2290 1.396 . S
C2289 C2296 1.403 . S
C2290 C2280 1.476 . S
C2290 N2285 1.318 . S
C2290 C2289 1.396 . S
H2291 C2286 0.929 . S
O2292 Mn2268 2.385 . S
O2292 C2270 1.234 . S
O2293 Mn2268 2.209 . S
O2293 Mn2269 2.215 . S
O2293 C2270 1.283 . S
O2294 Mn2268 2.094 . S
O2294 C2272 1.240 . S
O2295 Mn2269 2.117 . S
O2295 C2272 1.264 . S
C2296 C2289 1.403 . S
C2296 C2297 1.399 . S
C2296 H2302 0.929 . S
C2297 C2277 1.449 . S
C2297 C2296 1.399 . S
C2297 H2303 0.930 . S
H2298 C2278 0.931 . S
H2299 C2279 0.930 . S
H2300 C2287 0.931 . S
H2301 C2288 0.929 . S
H2302 C2296 0.929 . S
H2303 C2297 0.930 . S
Mn2304 O2309 2.095 . S
Mn2304 O2319 2.162 . S
Mn2304 O2320 2.297 . S
Mn2304 O2328 2.385 . S
Mn2304 O2329 2.209 . S
Mn2304 O2330 2.094 . S
Mn2305 O2310 2.121 . S
Mn2305 N2312 2.257 . S
Mn2305 N2321 2.282 . S
Mn2305 O2329 2.215 . S
Mn2305 O2331 2.117 . S
C2306 O2328 1.234 . S
C2306 O2329 1.283 . S
C2307 O2319 1.281 . S
C2307 O2320 1.236 . S
C2308 O2330 1.240 . S
C2308 O2331 1.264 . S
O2309 Mn2304 2.095 . S
O2309 C2318 1.250 . S
O2310 Mn2305 2.121 . S
O2310 C2318 1.258 . S
C2311 N2312 1.326 . S
C2311 C2315 1.460 . S
C2311 H2317 0.929 . S
N2312 Mn2305 2.257 . S
N2312 C2311 1.326 . S
N2312 C2316 1.362 . S
C2313 C2314 1.258 . S
C2313 C2316 1.431 . S
C2313 C2333 1.449 . S
C2314 C2313 1.258 . S
C2314 C2315 1.477 . S
C2314 H2334 0.931 . S
C2315 C2311 1.460 . S
C2315 C2314 1.477 . S
C2315 H2335 0.930 . S
C2316 N2312 1.362 . S
C2316 C2313 1.431 . S
C2316 C2326 1.476 . S
H2317 C2311 0.929 . S
C2318 O2309 1.250 . S
C2318 O2310 1.258 . S
O2319 Mn2304 2.162 . S
O2319 C2307 1.281 . S
O2320 Mn2304 2.297 . S
O2320 C2307 1.236 . S
N2321 Mn2305 2.282 . S
N2321 C2322 1.328 . S
N2321 C2326 1.318 . S
C2322 N2321 1.328 . S
C2322 C2323 1.457 . S
C2322 H2327 0.929 . S
C2323 C2322 1.457 . S
C2323 C2324 1.291 . S
C2323 H2336 0.931 . S
C2324 C2323 1.291 . S
C2324 C2325 1.373 . S
C2324 H2337 0.929 . S
C2325 C2324 1.373 . S
C2325 C2326 1.396 . S
C2325 C2332 1.403 . S
C2326 C2316 1.476 . S
C2326 N2321 1.318 . S
C2326 C2325 1.396 . S
H2327 C2322 0.929 . S
O2328 Mn2304 2.385 . S
O2328 C2306 1.234 . S
O2329 Mn2304 2.209 . S
O2329 Mn2305 2.215 . S
O2329 C2306 1.283 . S
O2330 Mn2304 2.094 . S
O2330 C2308 1.240 . S
O2331 Mn2305 2.117 . S
O2331 C2308 1.264 . S
C2332 C2325 1.403 . S
C2332 C2333 1.399 . S
C2332 H2338 0.929 . S
C2333 C2313 1.449 . S
C2333 C2332 1.399 . S
C2333 H2339 0.930 . S
H2334 C2314 0.931 . S
H2335 C2315 0.930 . S
H2336 C2323 0.931 . S
H2337 C2324 0.929 . S
H2338 C2332 0.929 . S
H2339 C2333 0.930 . S
Mn2340 O2345 2.095 . S
Mn2340 O2355 2.162 . S
Mn2340 O2356 2.297 . S
Mn2340 O2364 2.385 . S
Mn2340 O2365 2.209 . S
Mn2340 O2366 2.094 . S
Mn2341 O2346 2.121 . S
Mn2341 N2348 2.257 . S
Mn2341 N2357 2.282 . S
Mn2341 O2365 2.215 . S
Mn2341 O2367 2.117 . S
C2342 O2364 1.234 . S
C2342 O2365 1.283 . S
C2343 O2355 1.281 . S
C2343 O2356 1.236 . S
C2344 O2366 1.240 . S
C2344 O2367 1.264 . S
O2345 Mn2340 2.095 . S
O2345 C2354 1.250 . S
O2346 Mn2341 2.121 . S
O2346 C2354 1.258 . S
C2347 N2348 1.326 . S
C2347 C2351 1.460 . S
C2347 H2353 0.929 . S
N2348 Mn2341 2.257 . S
N2348 C2347 1.326 . S
N2348 C2352 1.362 . S
C2349 C2350 1.258 . S
C2349 C2352 1.431 . S
C2349 C2369 1.449 . S
C2350 C2349 1.258 . S
C2350 C2351 1.477 . S
C2350 H2370 0.931 . S
C2351 C2347 1.460 . S
C2351 C2350 1.477 . S
C2351 H2371 0.930 . S
C2352 N2348 1.362 . S
C2352 C2349 1.431 . S
C2352 C2362 1.476 . S
H2353 C2347 0.929 . S
C2354 O2345 1.250 . S
C2354 O2346 1.258 . S
O2355 Mn2340 2.162 . S
O2355 C2343 1.281 . S
O2356 Mn2340 2.297 . S
O2356 C2343 1.236 . S
N2357 Mn2341 2.282 . S
N2357 C2358 1.328 . S
N2357 C2362 1.318 . S
C2358 N2357 1.328 . S
C2358 C2359 1.457 . S
C2358 H2363 0.929 . S
C2359 C2358 1.457 . S
C2359 C2360 1.291 . S
C2359 H2372 0.931 . S
C2360 C2359 1.291 . S
C2360 C2361 1.373 . S
C2360 H2373 0.929 . S
C2361 C2360 1.373 . S
C2361 C2362 1.396 . S
C2361 C2368 1.403 . S
C2362 C2352 1.476 . S
C2362 N2357 1.318 . S
C2362 C2361 1.396 . S
H2363 C2358 0.929 . S
O2364 Mn2340 2.385 . S
O2364 C2342 1.234 . S
O2365 Mn2340 2.209 . S
O2365 Mn2341 2.215 . S
O2365 C2342 1.283 . S
O2366 Mn2340 2.094 . S
O2366 C2344 1.240 . S
O2367 Mn2341 2.117 . S
O2367 C2344 1.264 . S
C2368 C2361 1.403 . S
C2368 C2369 1.399 . S
C2368 H2374 0.929 . S
C2369 C2349 1.449 . S
C2369 C2368 1.399 . S
C2369 H2375 0.930 . S
H2370 C2350 0.931 . S
H2371 C2351 0.930 . S
H2372 C2359 0.931 . S
H2373 C2360 0.929 . S
H2374 C2368 0.929 . S
H2375 C2369 0.930 . S
Mn2376 O2381 2.095 . S
Mn2376 O2391 2.162 . S
Mn2376 O2392 2.297 . S
Mn2376 O2400 2.385 . S
Mn2376 O2401 2.209 . S
Mn2376 O2402 2.094 . S
Mn2377 O2382 2.121 . S
Mn2377 N2384 2.257 . S
Mn2377 N2393 2.282 . S
Mn2377 O2401 2.215 . S
Mn2377 O2403 2.117 . S
C2378 O2400 1.234 . S
C2378 O2401 1.283 . S
C2379 O2391 1.281 . S
C2379 O2392 1.236 . S
C2380 O2402 1.240 . S
C2380 O2403 1.264 . S
O2381 Mn2376 2.095 . S
O2381 C2390 1.250 . S
O2382 Mn2377 2.121 . S
O2382 C2390 1.258 . S
C2383 N2384 1.326 . S
C2383 C2387 1.460 . S
C2383 H2389 0.929 . S
N2384 Mn2377 2.257 . S
N2384 C2383 1.326 . S
N2384 C2388 1.362 . S
C2385 C2386 1.258 . S
C2385 C2388 1.431 . S
C2385 C2405 1.449 . S
C2386 C2385 1.258 . S
C2386 C2387 1.477 . S
C2386 H2406 0.931 . S
C2387 C2383 1.460 . S
C2387 C2386 1.477 . S
C2387 H2407 0.930 . S
C2388 N2384 1.362 . S
C2388 C2385 1.431 . S
C2388 C2398 1.476 . S
H2389 C2383 0.929 . S
C2390 O2381 1.250 . S
C2390 O2382 1.258 . S
O2391 Mn2376 2.162 . S
O2391 C2379 1.281 . S
O2392 Mn2376 2.297 . S
O2392 C2379 1.236 . S
N2393 Mn2377 2.282 . S
N2393 C2394 1.328 . S
N2393 C2398 1.318 . S
C2394 N2393 1.328 . S
C2394 C2395 1.457 . S
C2394 H2399 0.929 . S
C2395 C2394 1.457 . S
C2395 C2396 1.291 . S
C2395 H2408 0.931 . S
C2396 C2395 1.291 . S
C2396 C2397 1.373 . S
C2396 H2409 0.929 . S
C2397 C2396 1.373 . S
C2397 C2398 1.396 . S
C2397 C2404 1.403 . S
C2398 C2388 1.476 . S
C2398 N2393 1.318 . S
C2398 C2397 1.396 . S
H2399 C2394 0.929 . S
O2400 Mn2376 2.385 . S
O2400 C2378 1.234 . S
O2401 Mn2376 2.209 . S
O2401 Mn2377 2.215 . S
O2401 C2378 1.283 . S
O2402 Mn2376 2.094 . S
O2402 C2380 1.240 . S
O2403 Mn2377 2.117 . S
O2403 C2380 1.264 . S
C2404 C2397 1.403 . S
C2404 C2405 1.399 . S
C2404 H2410 0.929 . S
C2405 C2385 1.449 . S
C2405 C2404 1.399 . S
C2405 H2411 0.930 . S
H2406 C2386 0.931 . S
H2407 C2387 0.930 . S
H2408 C2395 0.931 . S
H2409 C2396 0.929 . S
H2410 C2404 0.929 . S
H2411 C2405 0.930 . S
Mn2412 O2417 2.095 . S
Mn2412 O2427 2.162 . S
Mn2412 O2428 2.297 . S
Mn2412 O2436 2.385 . S
Mn2412 O2437 2.209 . S
Mn2412 O2438 2.094 . S
Mn2413 O2418 2.121 . S
Mn2413 N2420 2.257 . S
Mn2413 N2429 2.282 . S
Mn2413 O2437 2.215 . S
Mn2413 O2439 2.117 . S
C2414 O2436 1.234 . S
C2414 O2437 1.283 . S
C2415 O2427 1.281 . S
C2415 O2428 1.236 . S
C2416 O2438 1.240 . S
C2416 O2439 1.264 . S
O2417 Mn2412 2.095 . S
O2417 C2426 1.250 . S
O2418 Mn2413 2.121 . S
O2418 C2426 1.258 . S
C2419 N2420 1.326 . S
C2419 C2423 1.460 . S
C2419 H2425 0.929 . S
N2420 Mn2413 2.257 . S
N2420 C2419 1.326 . S
N2420 C2424 1.362 . S
C2421 C2422 1.258 . S
C2421 C2424 1.431 . S
C2421 C2441 1.449 . S
C2422 C2421 1.258 . S
C2422 C2423 1.477 . S
C2422 H2442 0.931 . S
C2423 C2419 1.460 . S
C2423 C2422 1.477 . S
C2423 H2443 0.930 . S
C2424 N2420 1.362 . S
C2424 C2421 1.431 . S
C2424 C2434 1.476 . S
H2425 C2419 0.929 . S
C2426 O2417 1.250 . S
C2426 O2418 1.258 . S
O2427 Mn2412 2.162 . S
O2427 C2415 1.281 . S
O2428 Mn2412 2.297 . S
O2428 C2415 1.236 . S
N2429 Mn2413 2.282 . S
N2429 C2430 1.328 . S
N2429 C2434 1.318 . S
C2430 N2429 1.328 . S
C2430 C2431 1.457 . S
C2430 H2435 0.929 . S
C2431 C2430 1.457 . S
C2431 C2432 1.291 . S
C2431 H2444 0.931 . S
C2432 C2431 1.291 . S
C2432 C2433 1.373 . S
C2432 H2445 0.929 . S
C2433 C2432 1.373 . S
C2433 C2434 1.396 . S
C2433 C2440 1.403 . S
C2434 C2424 1.476 . S
C2434 N2429 1.318 . S
C2434 C2433 1.396 . S
H2435 C2430 0.929 . S
O2436 Mn2412 2.385 . S
O2436 C2414 1.234 . S
O2437 Mn2412 2.209 . S
O2437 Mn2413 2.215 . S
O2437 C2414 1.283 . S
O2438 Mn2412 2.094 . S
O2438 C2416 1.240 . S
O2439 Mn2413 2.117 . S
O2439 C2416 1.264 . S
C2440 C2433 1.403 . S
C2440 C2441 1.399 . S
C2440 H2446 0.929 . S
C2441 C2421 1.449 . S
C2441 C2440 1.399 . S
C2441 H2447 0.930 . S
H2442 C2422 0.931 . S
H2443 C2423 0.930 . S
H2444 C2431 0.931 . S
H2445 C2432 0.929 . S
H2446 C2440 0.929 . S
H2447 C2441 0.930 . S
Mn2448 O2453 2.095 . S
Mn2448 O2463 2.162 . S
Mn2448 O2464 2.297 . S
Mn2448 O2472 2.385 . S
Mn2448 O2473 2.209 . S
Mn2448 O2474 2.094 . S
Mn2449 O2454 2.121 . S
Mn2449 N2456 2.257 . S
Mn2449 N2465 2.282 . S
Mn2449 O2473 2.215 . S
Mn2449 O2475 2.117 . S
C2450 O2472 1.234 . S
C2450 O2473 1.283 . S
C2451 O2463 1.281 . S
C2451 O2464 1.236 . S
C2452 O2474 1.240 . S
C2452 O2475 1.264 . S
O2453 Mn2448 2.095 . S
O2453 C2462 1.250 . S
O2454 Mn2449 2.121 . S
O2454 C2462 1.258 . S
C2455 N2456 1.326 . S
C2455 C2459 1.460 . S
C2455 H2461 0.929 . S
N2456 Mn2449 2.257 . S
N2456 C2455 1.326 . S
N2456 C2460 1.362 . S
C2457 C2458 1.258 . S
C2457 C2460 1.431 . S
C2457 C2477 1.449 . S
C2458 C2457 1.258 . S
C2458 C2459 1.477 . S
C2458 H2478 0.931 . S
C2459 C2455 1.460 . S
C2459 C2458 1.477 . S
C2459 H2479 0.930 . S
C2460 N2456 1.362 . S
C2460 C2457 1.431 . S
C2460 C2470 1.476 . S
H2461 C2455 0.929 . S
C2462 O2453 1.250 . S
C2462 O2454 1.258 . S
O2463 Mn2448 2.162 . S
O2463 C2451 1.281 . S
O2464 Mn2448 2.297 . S
O2464 C2451 1.236 . S
N2465 Mn2449 2.282 . S
N2465 C2466 1.328 . S
N2465 C2470 1.318 . S
C2466 N2465 1.328 . S
C2466 C2467 1.457 . S
C2466 H2471 0.929 . S
C2467 C2466 1.457 . S
C2467 C2468 1.291 . S
C2467 H2480 0.931 . S
C2468 C2467 1.291 . S
C2468 C2469 1.373 . S
C2468 H2481 0.929 . S
C2469 C2468 1.373 . S
C2469 C2470 1.396 . S
C2469 C2476 1.403 . S
C2470 C2460 1.476 . S
C2470 N2465 1.318 . S
C2470 C2469 1.396 . S
H2471 C2466 0.929 . S
O2472 Mn2448 2.385 . S
O2472 C2450 1.234 . S
O2473 Mn2448 2.209 . S
O2473 Mn2449 2.215 . S
O2473 C2450 1.283 . S
O2474 Mn2448 2.094 . S
O2474 C2452 1.240 . S
O2475 Mn2449 2.117 . S
O2475 C2452 1.264 . S
C2476 C2469 1.403 . S
C2476 C2477 1.399 . S
C2476 H2482 0.929 . S
C2477 C2457 1.449 . S
C2477 C2476 1.399 . S
C2477 H2483 0.930 . S
H2478 C2458 0.931 . S
H2479 C2459 0.930 . S
H2480 C2467 0.931 . S
H2481 C2468 0.929 . S
H2482 C2476 0.929 . S
H2483 C2477 0.930 . S
Mn2484 O2489 2.095 . S
Mn2484 O2499 2.162 . S
Mn2484 O2500 2.297 . S
Mn2484 O2508 2.385 . S
Mn2484 O2509 2.209 . S
Mn2484 O2510 2.094 . S
Mn2485 O2490 2.121 . S
Mn2485 N2492 2.257 . S
Mn2485 N2501 2.282 . S
Mn2485 O2509 2.215 . S
Mn2485 O2511 2.117 . S
C2486 O2508 1.234 . S
C2486 O2509 1.283 . S
C2487 O2499 1.281 . S
C2487 O2500 1.236 . S
C2488 O2510 1.240 . S
C2488 O2511 1.264 . S
O2489 Mn2484 2.095 . S
O2489 C2498 1.250 . S
O2490 Mn2485 2.121 . S
O2490 C2498 1.258 . S
C2491 N2492 1.326 . S
C2491 C2495 1.460 . S
C2491 H2497 0.929 . S
N2492 Mn2485 2.257 . S
N2492 C2491 1.326 . S
N2492 C2496 1.362 . S
C2493 C2494 1.258 . S
C2493 C2496 1.431 . S
C2493 C2513 1.449 . S
C2494 C2493 1.258 . S
C2494 C2495 1.477 . S
C2494 H2514 0.931 . S
C2495 C2491 1.460 . S
C2495 C2494 1.477 . S
C2495 H2515 0.930 . S
C2496 N2492 1.362 . S
C2496 C2493 1.431 . S
C2496 C2506 1.476 . S
H2497 C2491 0.929 . S
C2498 O2489 1.250 . S
C2498 O2490 1.258 . S
O2499 Mn2484 2.162 . S
O2499 C2487 1.281 . S
O2500 Mn2484 2.297 . S
O2500 C2487 1.236 . S
N2501 Mn2485 2.282 . S
N2501 C2502 1.328 . S
N2501 C2506 1.318 . S
C2502 N2501 1.328 . S
C2502 C2503 1.457 . S
C2502 H2507 0.929 . S
C2503 C2502 1.457 . S
C2503 C2504 1.291 . S
C2503 H2516 0.931 . S
C2504 C2503 1.291 . S
C2504 C2505 1.373 . S
C2504 H2517 0.929 . S
C2505 C2504 1.373 . S
C2505 C2506 1.396 . S
C2505 C2512 1.403 . S
C2506 C2496 1.476 . S
C2506 N2501 1.318 . S
C2506 C2505 1.396 . S
H2507 C2502 0.929 . S
O2508 Mn2484 2.385 . S
O2508 C2486 1.234 . S
O2509 Mn2484 2.209 . S
O2509 Mn2485 2.215 . S
O2509 C2486 1.283 . S
O2510 Mn2484 2.094 . S
O2510 C2488 1.240 . S
O2511 Mn2485 2.117 . S
O2511 C2488 1.264 . S
C2512 C2505 1.403 . S
C2512 C2513 1.399 . S
C2512 H2518 0.929 . S
C2513 C2493 1.449 . S
C2513 C2512 1.399 . S
C2513 H2519 0.930 . S
H2514 C2494 0.931 . S
H2515 C2495 0.930 . S
H2516 C2503 0.931 . S
H2517 C2504 0.929 . S
H2518 C2512 0.929 . S
H2519 C2513 0.930 . S
Mn2520 O2525 2.095 . S
Mn2520 O2535 2.162 . S
Mn2520 O2536 2.297 . S
Mn2520 O2544 2.385 . S
Mn2520 O2545 2.209 . S
Mn2520 O2546 2.094 . S
Mn2521 O2526 2.121 . S
Mn2521 N2528 2.257 . S
Mn2521 N2537 2.282 . S
Mn2521 O2545 2.215 . S
Mn2521 O2547 2.117 . S
C2522 O2544 1.234 . S
C2522 O2545 1.283 . S
C2523 O2535 1.281 . S
C2523 O2536 1.236 . S
C2524 O2546 1.240 . S
C2524 O2547 1.264 . S
O2525 Mn2520 2.095 . S
O2525 C2534 1.250 . S
O2526 Mn2521 2.121 . S
O2526 C2534 1.258 . S
C2527 N2528 1.326 . S
C2527 C2531 1.460 . S
C2527 H2533 0.929 . S
N2528 Mn2521 2.257 . S
N2528 C2527 1.326 . S
N2528 C2532 1.362 . S
C2529 C2530 1.258 . S
C2529 C2532 1.431 . S
C2529 C2549 1.449 . S
C2530 C2529 1.258 . S
C2530 C2531 1.477 . S
C2530 H2550 0.931 . S
C2531 C2527 1.460 . S
C2531 C2530 1.477 . S
C2531 H2551 0.930 . S
C2532 N2528 1.362 . S
C2532 C2529 1.431 . S
C2532 C2542 1.476 . S
H2533 C2527 0.929 . S
C2534 O2525 1.250 . S
C2534 O2526 1.258 . S
O2535 Mn2520 2.162 . S
O2535 C2523 1.281 . S
O2536 Mn2520 2.297 . S
O2536 C2523 1.236 . S
N2537 Mn2521 2.282 . S
N2537 C2538 1.328 . S
N2537 C2542 1.318 . S
C2538 N2537 1.328 . S
C2538 C2539 1.457 . S
C2538 H2543 0.929 . S
C2539 C2538 1.457 . S
C2539 C2540 1.291 . S
C2539 H2552 0.931 . S
C2540 C2539 1.291 . S
C2540 C2541 1.373 . S
C2540 H2553 0.929 . S
C2541 C2540 1.373 . S
C2541 C2542 1.396 . S
C2541 C2548 1.403 . S
C2542 C2532 1.476 . S
C2542 N2537 1.318 . S
C2542 C2541 1.396 . S
H2543 C2538 0.929 . S
O2544 Mn2520 2.385 . S
O2544 C2522 1.234 . S
O2545 Mn2520 2.209 . S
O2545 Mn2521 2.215 . S
O2545 C2522 1.283 . S
O2546 Mn2520 2.094 . S
O2546 C2524 1.240 . S
O2547 Mn2521 2.117 . S
O2547 C2524 1.264 . S
C2548 C2541 1.403 . S
C2548 C2549 1.399 . S
C2548 H2554 0.929 . S
C2549 C2529 1.449 . S
C2549 C2548 1.399 . S
C2549 H2555 0.930 . S
H2550 C2530 0.931 . S
H2551 C2531 0.930 . S
H2552 C2539 0.931 . S
H2553 C2540 0.929 . S
H2554 C2548 0.929 . S
H2555 C2549 0.930 . S
Mn2556 O2561 2.095 . S
Mn2556 O2571 2.162 . S
Mn2556 O2572 2.297 . S
Mn2556 O2580 2.385 . S
Mn2556 O2581 2.209 . S
Mn2556 O2582 2.094 . S
Mn2557 O2562 2.121 . S
Mn2557 N2564 2.257 . S
Mn2557 N2573 2.282 . S
Mn2557 O2581 2.215 . S
Mn2557 O2583 2.117 . S
C2558 O2580 1.234 . S
C2558 O2581 1.283 . S
C2559 O2571 1.281 . S
C2559 O2572 1.236 . S
C2560 O2582 1.240 . S
C2560 O2583 1.264 . S
O2561 Mn2556 2.095 . S
O2561 C2570 1.250 . S
O2562 Mn2557 2.121 . S
O2562 C2570 1.258 . S
C2563 N2564 1.326 . S
C2563 C2567 1.460 . S
C2563 H2569 0.929 . S
N2564 Mn2557 2.257 . S
N2564 C2563 1.326 . S
N2564 C2568 1.362 . S
C2565 C2566 1.258 . S
C2565 C2568 1.431 . S
C2565 C2585 1.449 . S
C2566 C2565 1.258 . S
C2566 C2567 1.477 . S
C2566 H2586 0.931 . S
C2567 C2563 1.460 . S
C2567 C2566 1.477 . S
C2567 H2587 0.930 . S
C2568 N2564 1.362 . S
C2568 C2565 1.431 . S
C2568 C2578 1.476 . S
H2569 C2563 0.929 . S
C2570 O2561 1.250 . S
C2570 O2562 1.258 . S
O2571 Mn2556 2.162 . S
O2571 C2559 1.281 . S
O2572 Mn2556 2.297 . S
O2572 C2559 1.236 . S
N2573 Mn2557 2.282 . S
N2573 C2574 1.328 . S
N2573 C2578 1.318 . S
C2574 N2573 1.328 . S
C2574 C2575 1.457 . S
C2574 H2579 0.929 . S
C2575 C2574 1.457 . S
C2575 C2576 1.291 . S
C2575 H2588 0.931 . S
C2576 C2575 1.291 . S
C2576 C2577 1.373 . S
C2576 H2589 0.929 . S
C2577 C2576 1.373 . S
C2577 C2578 1.396 . S
C2577 C2584 1.403 . S
C2578 C2568 1.476 . S
C2578 N2573 1.318 . S
C2578 C2577 1.396 . S
H2579 C2574 0.929 . S
O2580 Mn2556 2.385 . S
O2580 C2558 1.234 . S
O2581 Mn2556 2.209 . S
O2581 Mn2557 2.215 . S
O2581 C2558 1.283 . S
O2582 Mn2556 2.094 . S
O2582 C2560 1.240 . S
O2583 Mn2557 2.117 . S
O2583 C2560 1.264 . S
C2584 C2577 1.403 . S
C2584 C2585 1.399 . S
C2584 H2590 0.929 . S
C2585 C2565 1.449 . S
C2585 C2584 1.399 . S
C2585 H2591 0.930 . S
H2586 C2566 0.931 . S
H2587 C2567 0.930 . S
H2588 C2575 0.931 . S
H2589 C2576 0.929 . S
H2590 C2584 0.929 . S
H2591 C2585 0.930 . S
Mn2592 O2597 2.095 . S
Mn2592 O2607 2.162 . S
Mn2592 O2608 2.297 . S
Mn2592 O2616 2.385 . S
Mn2592 O2617 2.209 . S
Mn2592 O2618 2.094 . S
Mn2593 O2598 2.121 . S
Mn2593 N2600 2.257 . S
Mn2593 N2609 2.282 . S
Mn2593 O2617 2.215 . S
Mn2593 O2619 2.117 . S
C2594 O2616 1.234 . S
C2594 O2617 1.283 . S
C2595 O2607 1.281 . S
C2595 O2608 1.236 . S
C2596 O2618 1.240 . S
C2596 O2619 1.264 . S
O2597 Mn2592 2.095 . S
O2597 C2606 1.250 . S
O2598 Mn2593 2.121 . S
O2598 C2606 1.258 . S
C2599 N2600 1.326 . S
C2599 C2603 1.460 . S
C2599 H2605 0.929 . S
N2600 Mn2593 2.257 . S
N2600 C2599 1.326 . S
N2600 C2604 1.362 . S
C2601 C2602 1.258 . S
C2601 C2604 1.431 . S
C2601 C2621 1.449 . S
C2602 C2601 1.258 . S
C2602 C2603 1.477 . S
C2602 H2622 0.931 . S
C2603 C2599 1.460 . S
C2603 C2602 1.477 . S
C2603 H2623 0.930 . S
C2604 N2600 1.362 . S
C2604 C2601 1.431 . S
C2604 C2614 1.476 . S
H2605 C2599 0.929 . S
C2606 O2597 1.250 . S
C2606 O2598 1.258 . S
O2607 Mn2592 2.162 . S
O2607 C2595 1.281 . S
O2608 Mn2592 2.297 . S
O2608 C2595 1.236 . S
N2609 Mn2593 2.282 . S
N2609 C2610 1.328 . S
N2609 C2614 1.318 . S
C2610 N2609 1.328 . S
C2610 C2611 1.457 . S
C2610 H2615 0.929 . S
C2611 C2610 1.457 . S
C2611 C2612 1.291 . S
C2611 H2624 0.931 . S
C2612 C2611 1.291 . S
C2612 C2613 1.373 . S
C2612 H2625 0.929 . S
C2613 C2612 1.373 . S
C2613 C2614 1.396 . S
C2613 C2620 1.403 . S
C2614 C2604 1.476 . S
C2614 N2609 1.318 . S
C2614 C2613 1.396 . S
H2615 C2610 0.929 . S
O2616 Mn2592 2.385 . S
O2616 C2594 1.234 . S
O2617 Mn2592 2.209 . S
O2617 Mn2593 2.215 . S
O2617 C2594 1.283 . S
O2618 Mn2592 2.094 . S
O2618 C2596 1.240 . S
O2619 Mn2593 2.117 . S
O2619 C2596 1.264 . S
C2620 C2613 1.403 . S
C2620 C2621 1.399 . S
C2620 H2626 0.929 . S
C2621 C2601 1.449 . S
C2621 C2620 1.399 . S
C2621 H2627 0.930 . S
H2622 C2602 0.931 . S
H2623 C2603 0.930 . S
H2624 C2611 0.931 . S
H2625 C2612 0.929 . S
H2626 C2620 0.929 . S
H2627 C2621 0.930 . S
Mn2628 O2633 2.095 . S
Mn2628 O2643 2.162 . S
Mn2628 O2644 2.297 . S
Mn2628 O2652 2.385 . S
Mn2628 O2653 2.209 . S
Mn2628 O2654 2.094 . S
Mn2629 O2634 2.121 . S
Mn2629 N2636 2.257 . S
Mn2629 N2645 2.282 . S
Mn2629 O2653 2.215 . S
Mn2629 O2655 2.117 . S
C2630 O2652 1.234 . S
C2630 O2653 1.283 . S
C2631 O2643 1.281 . S
C2631 O2644 1.236 . S
C2632 O2654 1.240 . S
C2632 O2655 1.264 . S
O2633 Mn2628 2.095 . S
O2633 C2642 1.250 . S
O2634 Mn2629 2.121 . S
O2634 C2642 1.258 . S
C2635 N2636 1.326 . S
C2635 C2639 1.460 . S
C2635 H2641 0.929 . S
N2636 Mn2629 2.257 . S
N2636 C2635 1.326 . S
N2636 C2640 1.362 . S
C2637 C2638 1.258 . S
C2637 C2640 1.431 . S
C2637 C2657 1.449 . S
C2638 C2637 1.258 . S
C2638 C2639 1.477 . S
C2638 H2658 0.931 . S
C2639 C2635 1.460 . S
C2639 C2638 1.477 . S
C2639 H2659 0.930 . S
C2640 N2636 1.362 . S
C2640 C2637 1.431 . S
C2640 C2650 1.476 . S
H2641 C2635 0.929 . S
C2642 O2633 1.250 . S
C2642 O2634 1.258 . S
O2643 Mn2628 2.162 . S
O2643 C2631 1.281 . S
O2644 Mn2628 2.297 . S
O2644 C2631 1.236 . S
N2645 Mn2629 2.282 . S
N2645 C2646 1.328 . S
N2645 C2650 1.318 . S
C2646 N2645 1.328 . S
C2646 C2647 1.457 . S
C2646 H2651 0.929 . S
C2647 C2646 1.457 . S
C2647 C2648 1.291 . S
C2647 H2660 0.931 . S
C2648 C2647 1.291 . S
C2648 C2649 1.373 . S
C2648 H2661 0.929 . S
C2649 C2648 1.373 . S
C2649 C2650 1.396 . S
C2649 C2656 1.403 . S
C2650 C2640 1.476 . S
C2650 N2645 1.318 . S
C2650 C2649 1.396 . S
H2651 C2646 0.929 . S
O2652 Mn2628 2.385 . S
O2652 C2630 1.234 . S
O2653 Mn2628 2.209 . S
O2653 Mn2629 2.215 . S
O2653 C2630 1.283 . S
O2654 Mn2628 2.094 . S
O2654 C2632 1.240 . S
O2655 Mn2629 2.117 . S
O2655 C2632 1.264 . S
C2656 C2649 1.403 . S
C2656 C2657 1.399 . S
C2656 H2662 0.929 . S
C2657 C2637 1.449 . S
C2657 C2656 1.399 . S
C2657 H2663 0.930 . S
H2658 C2638 0.931 . S
H2659 C2639 0.930 . S
H2660 C2647 0.931 . S
H2661 C2648 0.929 . S
H2662 C2656 0.929 . S
H2663 C2657 0.930 . S
Mn2664 O2669 2.095 . S
Mn2664 O2679 2.162 . S
Mn2664 O2680 2.297 . S
Mn2664 O2688 2.385 . S
Mn2664 O2689 2.209 . S
Mn2664 O2690 2.094 . S
Mn2665 O2670 2.121 . S
Mn2665 N2672 2.257 . S
Mn2665 N2681 2.282 . S
Mn2665 O2689 2.215 . S
Mn2665 O2691 2.117 . S
C2666 O2688 1.234 . S
C2666 O2689 1.283 . S
C2667 O2679 1.281 . S
C2667 O2680 1.236 . S
C2668 O2690 1.240 . S
C2668 O2691 1.264 . S
O2669 Mn2664 2.095 . S
O2669 C2678 1.250 . S
O2670 Mn2665 2.121 . S
O2670 C2678 1.258 . S
C2671 N2672 1.326 . S
C2671 C2675 1.460 . S
C2671 H2677 0.929 . S
N2672 Mn2665 2.257 . S
N2672 C2671 1.326 . S
N2672 C2676 1.362 . S
C2673 C2674 1.258 . S
C2673 C2676 1.431 . S
C2673 C2693 1.449 . S
C2674 C2673 1.258 . S
C2674 C2675 1.477 . S
C2674 H2694 0.931 . S
C2675 C2671 1.460 . S
C2675 C2674 1.477 . S
C2675 H2695 0.930 . S
C2676 N2672 1.362 . S
C2676 C2673 1.431 . S
C2676 C2686 1.476 . S
H2677 C2671 0.929 . S
C2678 O2669 1.250 . S
C2678 O2670 1.258 . S
O2679 Mn2664 2.162 . S
O2679 C2667 1.281 . S
O2680 Mn2664 2.297 . S
O2680 C2667 1.236 . S
N2681 Mn2665 2.282 . S
N2681 C2682 1.328 . S
N2681 C2686 1.318 . S
C2682 N2681 1.328 . S
C2682 C2683 1.457 . S
C2682 H2687 0.929 . S
C2683 C2682 1.457 . S
C2683 C2684 1.291 . S
C2683 H2696 0.931 . S
C2684 C2683 1.291 . S
C2684 C2685 1.373 . S
C2684 H2697 0.929 . S
C2685 C2684 1.373 . S
C2685 C2686 1.396 . S
C2685 C2692 1.403 . S
C2686 C2676 1.476 . S
C2686 N2681 1.318 . S
C2686 C2685 1.396 . S
H2687 C2682 0.929 . S
O2688 Mn2664 2.385 . S
O2688 C2666 1.234 . S
O2689 Mn2664 2.209 . S
O2689 Mn2665 2.215 . S
O2689 C2666 1.283 . S
O2690 Mn2664 2.094 . S
O2690 C2668 1.240 . S
O2691 Mn2665 2.117 . S
O2691 C2668 1.264 . S
C2692 C2685 1.403 . S
C2692 C2693 1.399 . S
C2692 H2698 0.929 . S
C2693 C2673 1.449 . S
C2693 C2692 1.399 . S
C2693 H2699 0.930 . S
H2694 C2674 0.931 . S
H2695 C2675 0.930 . S
H2696 C2683 0.931 . S
H2697 C2684 0.929 . S
H2698 C2692 0.929 . S
H2699 C2693 0.930 . S
Mn2700 O2705 2.095 . S
Mn2700 O2715 2.162 . S
Mn2700 O2716 2.297 . S
Mn2700 O2724 2.385 . S
Mn2700 O2725 2.209 . S
Mn2700 O2726 2.094 . S
Mn2701 O2706 2.121 . S
Mn2701 N2708 2.257 . S
Mn2701 N2717 2.282 . S
Mn2701 O2725 2.215 . S
Mn2701 O2727 2.117 . S
C2702 O2724 1.234 . S
C2702 O2725 1.283 . S
C2703 O2715 1.281 . S
C2703 O2716 1.236 . S
C2704 O2726 1.240 . S
C2704 O2727 1.264 . S
O2705 Mn2700 2.095 . S
O2705 C2714 1.250 . S
O2706 Mn2701 2.121 . S
O2706 C2714 1.258 . S
C2707 N2708 1.326 . S
C2707 C2711 1.460 . S
C2707 H2713 0.929 . S
N2708 Mn2701 2.257 . S
N2708 C2707 1.326 . S
N2708 C2712 1.362 . S
C2709 C2710 1.258 . S
C2709 C2712 1.431 . S
C2709 C2729 1.449 . S
C2710 C2709 1.258 . S
C2710 C2711 1.477 . S
C2710 H2730 0.931 . S
C2711 C2707 1.460 . S
C2711 C2710 1.477 . S
C2711 H2731 0.930 . S
C2712 N2708 1.362 . S
C2712 C2709 1.431 . S
C2712 C2722 1.476 . S
H2713 C2707 0.929 . S
C2714 O2705 1.250 . S
C2714 O2706 1.258 . S
O2715 Mn2700 2.162 . S
O2715 C2703 1.281 . S
O2716 Mn2700 2.297 . S
O2716 C2703 1.236 . S
N2717 Mn2701 2.282 . S
N2717 C2718 1.328 . S
N2717 C2722 1.318 . S
C2718 N2717 1.328 . S
C2718 C2719 1.457 . S
C2718 H2723 0.929 . S
C2719 C2718 1.457 . S
C2719 C2720 1.291 . S
C2719 H2732 0.931 . S
C2720 C2719 1.291 . S
C2720 C2721 1.373 . S
C2720 H2733 0.929 . S
C2721 C2720 1.373 . S
C2721 C2722 1.396 . S
C2721 C2728 1.403 . S
C2722 C2712 1.476 . S
C2722 N2717 1.318 . S
C2722 C2721 1.396 . S
H2723 C2718 0.929 . S
O2724 Mn2700 2.385 . S
O2724 C2702 1.234 . S
O2725 Mn2700 2.209 . S
O2725 Mn2701 2.215 . S
O2725 C2702 1.283 . S
O2726 Mn2700 2.094 . S
O2726 C2704 1.240 . S
O2727 Mn2701 2.117 . S
O2727 C2704 1.264 . S
C2728 C2721 1.403 . S
C2728 C2729 1.399 . S
C2728 H2734 0.929 . S
C2729 C2709 1.449 . S
C2729 C2728 1.399 . S
C2729 H2735 0.930 . S
H2730 C2710 0.931 . S
H2731 C2711 0.930 . S
H2732 C2719 0.931 . S
H2733 C2720 0.929 . S
H2734 C2728 0.929 . S
H2735 C2729 0.930 . S
Mn2736 O2741 2.095 . S
Mn2736 O2751 2.162 . S
Mn2736 O2752 2.297 . S
Mn2736 O2760 2.385 . S
Mn2736 O2761 2.209 . S
Mn2736 O2762 2.094 . S
Mn2737 O2742 2.121 . S
Mn2737 N2744 2.257 . S
Mn2737 N2753 2.282 . S
Mn2737 O2761 2.215 . S
Mn2737 O2763 2.117 . S
C2738 O2760 1.234 . S
C2738 O2761 1.283 . S
C2739 O2751 1.281 . S
C2739 O2752 1.236 . S
C2740 O2762 1.240 . S
C2740 O2763 1.264 . S
O2741 Mn2736 2.095 . S
O2741 C2750 1.250 . S
O2742 Mn2737 2.121 . S
O2742 C2750 1.258 . S
C2743 N2744 1.326 . S
C2743 C2747 1.460 . S
C2743 H2749 0.929 . S
N2744 Mn2737 2.257 . S
N2744 C2743 1.326 . S
N2744 C2748 1.362 . S
C2745 C2746 1.258 . S
C2745 C2748 1.431 . S
C2745 C2765 1.449 . S
C2746 C2745 1.258 . S
C2746 C2747 1.477 . S
C2746 H2766 0.931 . S
C2747 C2743 1.460 . S
C2747 C2746 1.477 . S
C2747 H2767 0.930 . S
C2748 N2744 1.362 . S
C2748 C2745 1.431 . S
C2748 C2758 1.476 . S
H2749 C2743 0.929 . S
C2750 O2741 1.250 . S
C2750 O2742 1.258 . S
O2751 Mn2736 2.162 . S
O2751 C2739 1.281 . S
O2752 Mn2736 2.297 . S
O2752 C2739 1.236 . S
N2753 Mn2737 2.282 . S
N2753 C2754 1.328 . S
N2753 C2758 1.318 . S
C2754 N2753 1.328 . S
C2754 C2755 1.457 . S
C2754 H2759 0.929 . S
C2755 C2754 1.457 . S
C2755 C2756 1.291 . S
C2755 H2768 0.931 . S
C2756 C2755 1.291 . S
C2756 C2757 1.373 . S
C2756 H2769 0.929 . S
C2757 C2756 1.373 . S
C2757 C2758 1.396 . S
C2757 C2764 1.403 . S
C2758 C2748 1.476 . S
C2758 N2753 1.318 . S
C2758 C2757 1.396 . S
H2759 C2754 0.929 . S
O2760 Mn2736 2.385 . S
O2760 C2738 1.234 . S
O2761 Mn2736 2.209 . S
O2761 Mn2737 2.215 . S
O2761 C2738 1.283 . S
O2762 Mn2736 2.094 . S
O2762 C2740 1.240 . S
O2763 Mn2737 2.117 . S
O2763 C2740 1.264 . S
C2764 C2757 1.403 . S
C2764 C2765 1.399 . S
C2764 H2770 0.929 . S
C2765 C2745 1.449 . S
C2765 C2764 1.399 . S
C2765 H2771 0.930 . S
H2766 C2746 0.931 . S
H2767 C2747 0.930 . S
H2768 C2755 0.931 . S
H2769 C2756 0.929 . S
H2770 C2764 0.929 . S
H2771 C2765 0.930 . S
Mn2772 O2777 2.095 . S
Mn2772 O2787 2.162 . S
Mn2772 O2788 2.297 . S
Mn2772 O2796 2.385 . S
Mn2772 O2797 2.209 . S
Mn2772 O2798 2.094 . S
Mn2773 O2778 2.121 . S
Mn2773 N2780 2.257 . S
Mn2773 N2789 2.282 . S
Mn2773 O2797 2.215 . S
Mn2773 O2799 2.117 . S
C2774 O2796 1.234 . S
C2774 O2797 1.283 . S
C2775 O2787 1.281 . S
C2775 O2788 1.236 . S
C2776 O2798 1.240 . S
C2776 O2799 1.264 . S
O2777 Mn2772 2.095 . S
O2777 C2786 1.250 . S
O2778 Mn2773 2.121 . S
O2778 C2786 1.258 . S
C2779 N2780 1.326 . S
C2779 C2783 1.460 . S
C2779 H2785 0.929 . S
N2780 Mn2773 2.257 . S
N2780 C2779 1.326 . S
N2780 C2784 1.362 . S
C2781 C2782 1.258 . S
C2781 C2784 1.431 . S
C2781 C2801 1.449 . S
C2782 C2781 1.258 . S
C2782 C2783 1.477 . S
C2782 H2802 0.931 . S
C2783 C2779 1.460 . S
C2783 C2782 1.477 . S
C2783 H2803 0.930 . S
C2784 N2780 1.362 . S
C2784 C2781 1.431 . S
C2784 C2794 1.476 . S
H2785 C2779 0.929 . S
C2786 O2777 1.250 . S
C2786 O2778 1.258 . S
O2787 Mn2772 2.162 . S
O2787 C2775 1.281 . S
O2788 Mn2772 2.297 . S
O2788 C2775 1.236 . S
N2789 Mn2773 2.282 . S
N2789 C2790 1.328 . S
N2789 C2794 1.318 . S
C2790 N2789 1.328 . S
C2790 C2791 1.457 . S
C2790 H2795 0.929 . S
C2791 C2790 1.457 . S
C2791 C2792 1.291 . S
C2791 H2804 0.931 . S
C2792 C2791 1.291 . S
C2792 C2793 1.373 . S
C2792 H2805 0.929 . S
C2793 C2792 1.373 . S
C2793 C2794 1.396 . S
C2793 C2800 1.403 . S
C2794 C2784 1.476 . S
C2794 N2789 1.318 . S
C2794 C2793 1.396 . S
H2795 C2790 0.929 . S
O2796 Mn2772 2.385 . S
O2796 C2774 1.234 . S
O2797 Mn2772 2.209 . S
O2797 Mn2773 2.215 . S
O2797 C2774 1.283 . S
O2798 Mn2772 2.094 . S
O2798 C2776 1.240 . S
O2799 Mn2773 2.117 . S
O2799 C2776 1.264 . S
C2800 C2793 1.403 . S
C2800 C2801 1.399 . S
C2800 H2806 0.929 . S
C2801 C2781 1.449 . S
C2801 C2800 1.399 . S
C2801 H2807 0.930 . S
H2802 C2782 0.931 . S
H2803 C2783 0.930 . S
H2804 C2791 0.931 . S
H2805 C2792 0.929 . S
H2806 C2800 0.929 . S
H2807 C2801 0.930 . S
Mn2808 O2813 2.095 . S
Mn2808 O2823 2.162 . S
Mn2808 O2824 2.297 . S
Mn2808 O2832 2.385 . S
Mn2808 O2833 2.209 . S
Mn2808 O2834 2.094 . S
Mn2809 O2814 2.121 . S
Mn2809 N2816 2.257 . S
Mn2809 N2825 2.282 . S
Mn2809 O2833 2.215 . S
Mn2809 O2835 2.117 . S
C2810 O2832 1.234 . S
C2810 O2833 1.283 . S
C2811 O2823 1.281 . S
C2811 O2824 1.236 . S
C2812 O2834 1.240 . S
C2812 O2835 1.264 . S
O2813 Mn2808 2.095 . S
O2813 C2822 1.250 . S
O2814 Mn2809 2.121 . S
O2814 C2822 1.258 . S
C2815 N2816 1.326 . S
C2815 C2819 1.460 . S
C2815 H2821 0.929 . S
N2816 Mn2809 2.257 . S
N2816 C2815 1.326 . S
N2816 C2820 1.362 . S
C2817 C2818 1.258 . S
C2817 C2820 1.431 . S
C2817 C2837 1.449 . S
C2818 C2817 1.258 . S
C2818 C2819 1.477 . S
C2818 H2838 0.931 . S
C2819 C2815 1.460 . S
C2819 C2818 1.477 . S
C2819 H2839 0.930 . S
C2820 N2816 1.362 . S
C2820 C2817 1.431 . S
C2820 C2830 1.476 . S
H2821 C2815 0.929 . S
C2822 O2813 1.250 . S
C2822 O2814 1.258 . S
O2823 Mn2808 2.162 . S
O2823 C2811 1.281 . S
O2824 Mn2808 2.297 . S
O2824 C2811 1.236 . S
N2825 Mn2809 2.282 . S
N2825 C2826 1.328 . S
N2825 C2830 1.318 . S
C2826 N2825 1.328 . S
C2826 C2827 1.457 . S
C2826 H2831 0.929 . S
C2827 C2826 1.457 . S
C2827 C2828 1.291 . S
C2827 H2840 0.931 . S
C2828 C2827 1.291 . S
C2828 C2829 1.373 . S
C2828 H2841 0.929 . S
C2829 C2828 1.373 . S
C2829 C2830 1.396 . S
C2829 C2836 1.403 . S
C2830 C2820 1.476 . S
C2830 N2825 1.318 . S
C2830 C2829 1.396 . S
H2831 C2826 0.929 . S
O2832 Mn2808 2.385 . S
O2832 C2810 1.234 . S
O2833 Mn2808 2.209 . S
O2833 Mn2809 2.215 . S
O2833 C2810 1.283 . S
O2834 Mn2808 2.094 . S
O2834 C2812 1.240 . S
O2835 Mn2809 2.117 . S
O2835 C2812 1.264 . S
C2836 C2829 1.403 . S
C2836 C2837 1.399 . S
C2836 H2842 0.929 . S
C2837 C2817 1.449 . S
C2837 C2836 1.399 . S
C2837 H2843 0.930 . S
H2838 C2818 0.931 . S
H2839 C2819 0.930 . S
H2840 C2827 0.931 . S
H2841 C2828 0.929 . S
H2842 C2836 0.929 . S
H2843 C2837 0.930 . S
Mn2844 O2849 2.095 . S
Mn2844 O2859 2.162 . S
Mn2844 O2860 2.297 . S
Mn2844 O2868 2.385 . S
Mn2844 O2869 2.209 . S
Mn2844 O2870 2.094 . S
Mn2845 O2850 2.121 . S
Mn2845 N2852 2.257 . S
Mn2845 N2861 2.282 . S
Mn2845 O2869 2.215 . S
Mn2845 O2871 2.117 . S
C2846 O2868 1.234 . S
C2846 O2869 1.283 . S
C2847 O2859 1.281 . S
C2847 O2860 1.236 . S
C2848 O2870 1.240 . S
C2848 O2871 1.264 . S
O2849 Mn2844 2.095 . S
O2849 C2858 1.250 . S
O2850 Mn2845 2.121 . S
O2850 C2858 1.258 . S
C2851 N2852 1.326 . S
C2851 C2855 1.460 . S
C2851 H2857 0.929 . S
N2852 Mn2845 2.257 . S
N2852 C2851 1.326 . S
N2852 C2856 1.362 . S
C2853 C2854 1.258 . S
C2853 C2856 1.431 . S
C2853 C2873 1.449 . S
C2854 C2853 1.258 . S
C2854 C2855 1.477 . S
C2854 H2874 0.931 . S
C2855 C2851 1.460 . S
C2855 C2854 1.477 . S
C2855 H2875 0.930 . S
C2856 N2852 1.362 . S
C2856 C2853 1.431 . S
C2856 C2866 1.476 . S
H2857 C2851 0.929 . S
C2858 O2849 1.250 . S
C2858 O2850 1.258 . S
O2859 Mn2844 2.162 . S
O2859 C2847 1.281 . S
O2860 Mn2844 2.297 . S
O2860 C2847 1.236 . S
N2861 Mn2845 2.282 . S
N2861 C2862 1.328 . S
N2861 C2866 1.318 . S
C2862 N2861 1.328 . S
C2862 C2863 1.457 . S
C2862 H2867 0.929 . S
C2863 C2862 1.457 . S
C2863 C2864 1.291 . S
C2863 H2876 0.931 . S
C2864 C2863 1.291 . S
C2864 C2865 1.373 . S
C2864 H2877 0.929 . S
C2865 C2864 1.373 . S
C2865 C2866 1.396 . S
C2865 C2872 1.403 . S
C2866 C2856 1.476 . S
C2866 N2861 1.318 . S
C2866 C2865 1.396 . S
H2867 C2862 0.929 . S
O2868 Mn2844 2.385 . S
O2868 C2846 1.234 . S
O2869 Mn2844 2.209 . S
O2869 Mn2845 2.215 . S
O2869 C2846 1.283 . S
O2870 Mn2844 2.094 . S
O2870 C2848 1.240 . S
O2871 Mn2845 2.117 . S
O2871 C2848 1.264 . S
C2872 C2865 1.403 . S
C2872 C2873 1.399 . S
C2872 H2878 0.929 . S
C2873 C2853 1.449 . S
C2873 C2872 1.399 . S
C2873 H2879 0.930 . S
H2874 C2854 0.931 . S
H2875 C2855 0.930 . S
H2876 C2863 0.931 . S
H2877 C2864 0.929 . S
H2878 C2872 0.929 . S
H2879 C2873 0.930 . S
Mn2880 O2885 2.095 . S
Mn2880 O2895 2.162 . S
Mn2880 O2896 2.297 . S
Mn2880 O2904 2.385 . S
Mn2880 O2905 2.209 . S
Mn2880 O2906 2.094 . S
Mn2881 O2886 2.121 . S
Mn2881 N2888 2.257 . S
Mn2881 N2897 2.282 . S
Mn2881 O2905 2.215 . S
Mn2881 O2907 2.117 . S
C2882 O2904 1.234 . S
C2882 O2905 1.283 . S
C2883 O2895 1.281 . S
C2883 O2896 1.236 . S
C2884 O2906 1.240 . S
C2884 O2907 1.264 . S
O2885 Mn2880 2.095 . S
O2885 C2894 1.250 . S
O2886 Mn2881 2.121 . S
O2886 C2894 1.258 . S
C2887 N2888 1.326 . S
C2887 C2891 1.460 . S
C2887 H2893 0.929 . S
N2888 Mn2881 2.257 . S
N2888 C2887 1.326 . S
N2888 C2892 1.362 . S
C2889 C2890 1.258 . S
C2889 C2892 1.431 . S
C2889 C2909 1.449 . S
C2890 C2889 1.258 . S
C2890 C2891 1.477 . S
C2890 H2910 0.931 . S
C2891 C2887 1.460 . S
C2891 C2890 1.477 . S
C2891 H2911 0.930 . S
C2892 N2888 1.362 . S
C2892 C2889 1.431 . S
C2892 C2902 1.476 . S
H2893 C2887 0.929 . S
C2894 O2885 1.250 . S
C2894 O2886 1.258 . S
O2895 Mn2880 2.162 . S
O2895 C2883 1.281 . S
O2896 Mn2880 2.297 . S
O2896 C2883 1.236 . S
N2897 Mn2881 2.282 . S
N2897 C2898 1.328 . S
N2897 C2902 1.318 . S
C2898 N2897 1.328 . S
C2898 C2899 1.457 . S
C2898 H2903 0.929 . S
C2899 C2898 1.457 . S
C2899 C2900 1.291 . S
C2899 H2912 0.931 . S
C2900 C2899 1.291 . S
C2900 C2901 1.373 . S
C2900 H2913 0.929 . S
C2901 C2900 1.373 . S
C2901 C2902 1.396 . S
C2901 C2908 1.403 . S
C2902 C2892 1.476 . S
C2902 N2897 1.318 . S
C2902 C2901 1.396 . S
H2903 C2898 0.929 . S
O2904 Mn2880 2.385 . S
O2904 C2882 1.234 . S
O2905 Mn2880 2.209 . S
O2905 Mn2881 2.215 . S
O2905 C2882 1.283 . S
O2906 Mn2880 2.094 . S
O2906 C2884 1.240 . S
O2907 Mn2881 2.117 . S
O2907 C2884 1.264 . S
C2908 C2901 1.403 . S
C2908 C2909 1.399 . S
C2908 H2914 0.929 . S
C2909 C2889 1.449 . S
C2909 C2908 1.399 . S
C2909 H2915 0.930 . S
H2910 C2890 0.931 . S
H2911 C2891 0.930 . S
H2912 C2899 0.931 . S
H2913 C2900 0.929 . S
H2914 C2908 0.929 . S
H2915 C2909 0.930 . S
Mn2916 O2921 2.095 . S
Mn2916 O2931 2.162 . S
Mn2916 O2932 2.297 . S
Mn2916 O2940 2.385 . S
Mn2916 O2941 2.209 . S
Mn2916 O2942 2.094 . S
Mn2917 O2922 2.121 . S
Mn2917 N2924 2.257 . S
Mn2917 N2933 2.282 . S
Mn2917 O2941 2.215 . S
Mn2917 O2943 2.117 . S
C2918 O2940 1.234 . S
C2918 O2941 1.283 . S
C2919 O2931 1.281 . S
C2919 O2932 1.236 . S
C2920 O2942 1.240 . S
C2920 O2943 1.264 . S
O2921 Mn2916 2.095 . S
O2921 C2930 1.250 . S
O2922 Mn2917 2.121 . S
O2922 C2930 1.258 . S
C2923 N2924 1.326 . S
C2923 C2927 1.460 . S
C2923 H2929 0.929 . S
N2924 Mn2917 2.257 . S
N2924 C2923 1.326 . S
N2924 C2928 1.362 . S
C2925 C2926 1.258 . S
C2925 C2928 1.431 . S
C2925 C2945 1.449 . S
C2926 C2925 1.258 . S
C2926 C2927 1.477 . S
C2926 H2946 0.931 . S
C2927 C2923 1.460 . S
C2927 C2926 1.477 . S
C2927 H2947 0.930 . S
C2928 N2924 1.362 . S
C2928 C2925 1.431 . S
C2928 C2938 1.476 . S
H2929 C2923 0.929 . S
C2930 O2921 1.250 . S
C2930 O2922 1.258 . S
O2931 Mn2916 2.162 . S
O2931 C2919 1.281 . S
O2932 Mn2916 2.297 . S
O2932 C2919 1.236 . S
N2933 Mn2917 2.282 . S
N2933 C2934 1.328 . S
N2933 C2938 1.318 . S
C2934 N2933 1.328 . S
C2934 C2935 1.457 . S
C2934 H2939 0.929 . S
C2935 C2934 1.457 . S
C2935 C2936 1.291 . S
C2935 H2948 0.931 . S
C2936 C2935 1.291 . S
C2936 C2937 1.373 . S
C2936 H2949 0.929 . S
C2937 C2936 1.373 . S
C2937 C2938 1.396 . S
C2937 C2944 1.403 . S
C2938 C2928 1.476 . S
C2938 N2933 1.318 . S
C2938 C2937 1.396 . S
H2939 C2934 0.929 . S
O2940 Mn2916 2.385 . S
O2940 C2918 1.234 . S
O2941 Mn2916 2.209 . S
O2941 Mn2917 2.215 . S
O2941 C2918 1.283 . S
O2942 Mn2916 2.094 . S
O2942 C2920 1.240 . S
O2943 Mn2917 2.117 . S
O2943 C2920 1.264 . S
C2944 C2937 1.403 . S
C2944 C2945 1.399 . S
C2944 H2950 0.929 . S
C2945 C2925 1.449 . S
C2945 C2944 1.399 . S
C2945 H2951 0.930 . S
H2946 C2926 0.931 . S
H2947 C2927 0.930 . S
H2948 C2935 0.931 . S
H2949 C2936 0.929 . S
H2950 C2944 0.929 . S
H2951 C2945 0.930 . S
Mn2952 O2957 2.095 . S
Mn2952 O2967 2.162 . S
Mn2952 O2968 2.297 . S
Mn2952 O2976 2.385 . S
Mn2952 O2977 2.209 . S
Mn2952 O2978 2.094 . S
Mn2953 O2958 2.121 . S
Mn2953 N2960 2.257 . S
Mn2953 N2969 2.282 . S
Mn2953 O2977 2.215 . S
Mn2953 O2979 2.117 . S
C2954 O2976 1.234 . S
C2954 O2977 1.283 . S
C2955 O2967 1.281 . S
C2955 O2968 1.236 . S
C2956 O2978 1.240 . S
C2956 O2979 1.264 . S
O2957 Mn2952 2.095 . S
O2957 C2966 1.250 . S
O2958 Mn2953 2.121 . S
O2958 C2966 1.258 . S
C2959 N2960 1.326 . S
C2959 C2963 1.460 . S
C2959 H2965 0.929 . S
N2960 Mn2953 2.257 . S
N2960 C2959 1.326 . S
N2960 C2964 1.362 . S
C2961 C2962 1.258 . S
C2961 C2964 1.431 . S
C2961 C2981 1.449 . S
C2962 C2961 1.258 . S
C2962 C2963 1.477 . S
C2962 H2982 0.931 . S
C2963 C2959 1.460 . S
C2963 C2962 1.477 . S
C2963 H2983 0.930 . S
C2964 N2960 1.362 . S
C2964 C2961 1.431 . S
C2964 C2974 1.476 . S
H2965 C2959 0.929 . S
C2966 O2957 1.250 . S
C2966 O2958 1.258 . S
O2967 Mn2952 2.162 . S
O2967 C2955 1.281 . S
O2968 Mn2952 2.297 . S
O2968 C2955 1.236 . S
N2969 Mn2953 2.282 . S
N2969 C2970 1.328 . S
N2969 C2974 1.318 . S
C2970 N2969 1.328 . S
C2970 C2971 1.457 . S
C2970 H2975 0.929 . S
C2971 C2970 1.457 . S
C2971 C2972 1.291 . S
C2971 H2984 0.931 . S
C2972 C2971 1.291 . S
C2972 C2973 1.373 . S
C2972 H2985 0.929 . S
C2973 C2972 1.373 . S
C2973 C2974 1.396 . S
C2973 C2980 1.403 . S
C2974 C2964 1.476 . S
C2974 N2969 1.318 . S
C2974 C2973 1.396 . S
H2975 C2970 0.929 . S
O2976 Mn2952 2.385 . S
O2976 C2954 1.234 . S
O2977 Mn2952 2.209 . S
O2977 Mn2953 2.215 . S
O2977 C2954 1.283 . S
O2978 Mn2952 2.094 . S
O2978 C2956 1.240 . S
O2979 Mn2953 2.117 . S
O2979 C2956 1.264 . S
C2980 C2973 1.403 . S
C2980 C2981 1.399 . S
C2980 H2986 0.929 . S
C2981 C2961 1.449 . S
C2981 C2980 1.399 . S
C2981 H2987 0.930 . S
H2982 C2962 0.931 . S
H2983 C2963 0.930 . S
H2984 C2971 0.931 . S
H2985 C2972 0.929 . S
H2986 C2980 0.929 . S
H2987 C2981 0.930 . S
Mn2988 O2993 2.095 . S
Mn2988 O3003 2.162 . S
Mn2988 O3004 2.297 . S
Mn2988 O3012 2.385 . S
Mn2988 O3013 2.209 . S
Mn2988 O3014 2.094 . S
Mn2989 O2994 2.121 . S
Mn2989 N2996 2.257 . S
Mn2989 N3005 2.282 . S
Mn2989 O3013 2.215 . S
Mn2989 O3015 2.117 . S
C2990 O3012 1.234 . S
C2990 O3013 1.283 . S
C2991 O3003 1.281 . S
C2991 O3004 1.236 . S
C2992 O3014 1.240 . S
C2992 O3015 1.264 . S
O2993 Mn2988 2.095 . S
O2993 C3002 1.250 . S
O2994 Mn2989 2.121 . S
O2994 C3002 1.258 . S
C2995 N2996 1.326 . S
C2995 C2999 1.460 . S
C2995 H3001 0.929 . S
N2996 Mn2989 2.257 . S
N2996 C2995 1.326 . S
N2996 C3000 1.362 . S
C2997 C2998 1.258 . S
C2997 C3000 1.431 . S
C2997 C3017 1.449 . S
C2998 C2997 1.258 . S
C2998 C2999 1.477 . S
C2998 H3018 0.931 . S
C2999 C2995 1.460 . S
C2999 C2998 1.477 . S
C2999 H3019 0.930 . S
C3000 N2996 1.362 . S
C3000 C2997 1.431 . S
C3000 C3010 1.476 . S
H3001 C2995 0.929 . S
C3002 O2993 1.250 . S
C3002 O2994 1.258 . S
O3003 Mn2988 2.162 . S
O3003 C2991 1.281 . S
O3004 Mn2988 2.297 . S
O3004 C2991 1.236 . S
N3005 Mn2989 2.282 . S
N3005 C3006 1.328 . S
N3005 C3010 1.318 . S
C3006 N3005 1.328 . S
C3006 C3007 1.457 . S
C3006 H3011 0.929 . S
C3007 C3006 1.457 . S
C3007 C3008 1.291 . S
C3007 H3020 0.931 . S
C3008 C3007 1.291 . S
C3008 C3009 1.373 . S
C3008 H3021 0.929 . S
C3009 C3008 1.373 . S
C3009 C3010 1.396 . S
C3009 C3016 1.403 . S
C3010 C3000 1.476 . S
C3010 N3005 1.318 . S
C3010 C3009 1.396 . S
H3011 C3006 0.929 . S
O3012 Mn2988 2.385 . S
O3012 C2990 1.234 . S
O3013 Mn2988 2.209 . S
O3013 Mn2989 2.215 . S
O3013 C2990 1.283 . S
O3014 Mn2988 2.094 . S
O3014 C2992 1.240 . S
O3015 Mn2989 2.117 . S
O3015 C2992 1.264 . S
C3016 C3009 1.403 . S
C3016 C3017 1.399 . S
C3016 H3022 0.929 . S
C3017 C2997 1.449 . S
C3017 C3016 1.399 . S
C3017 H3023 0.930 . S
H3018 C2998 0.931 . S
H3019 C2999 0.930 . S
H3020 C3007 0.931 . S
H3021 C3008 0.929 . S
H3022 C3016 0.929 . S
H3023 C3017 0.930 . S
Mn3024 O3029 2.095 . S
Mn3024 O3039 2.162 . S
Mn3024 O3040 2.297 . S
Mn3024 O3048 2.385 . S
Mn3024 O3049 2.209 . S
Mn3024 O3050 2.094 . S
Mn3025 O3030 2.121 . S
Mn3025 N3032 2.257 . S
Mn3025 N3041 2.282 . S
Mn3025 O3049 2.215 . S
Mn3025 O3051 2.117 . S
C3026 O3048 1.234 . S
C3026 O3049 1.283 . S
C3027 O3039 1.281 . S
C3027 O3040 1.236 . S
C3028 O3050 1.240 . S
C3028 O3051 1.264 . S
O3029 Mn3024 2.095 . S
O3029 C3038 1.250 . S
O3030 Mn3025 2.121 . S
O3030 C3038 1.258 . S
C3031 N3032 1.326 . S
C3031 C3035 1.460 . S
C3031 H3037 0.929 . S
N3032 Mn3025 2.257 . S
N3032 C3031 1.326 . S
N3032 C3036 1.362 . S
C3033 C3034 1.258 . S
C3033 C3036 1.431 . S
C3033 C3053 1.449 . S
C3034 C3033 1.258 . S
C3034 C3035 1.477 . S
C3034 H3054 0.931 . S
C3035 C3031 1.460 . S
C3035 C3034 1.477 . S
C3035 H3055 0.930 . S
C3036 N3032 1.362 . S
C3036 C3033 1.431 . S
C3036 C3046 1.476 . S
H3037 C3031 0.929 . S
C3038 O3029 1.250 . S
C3038 O3030 1.258 . S
O3039 Mn3024 2.162 . S
O3039 C3027 1.281 . S
O3040 Mn3024 2.297 . S
O3040 C3027 1.236 . S
N3041 Mn3025 2.282 . S
N3041 C3042 1.328 . S
N3041 C3046 1.318 . S
C3042 N3041 1.328 . S
C3042 C3043 1.457 . S
C3042 H3047 0.929 . S
C3043 C3042 1.457 . S
C3043 C3044 1.291 . S
C3043 H3056 0.931 . S
C3044 C3043 1.291 . S
C3044 C3045 1.373 . S
C3044 H3057 0.929 . S
C3045 C3044 1.373 . S
C3045 C3046 1.396 . S
C3045 C3052 1.403 . S
C3046 C3036 1.476 . S
C3046 N3041 1.318 . S
C3046 C3045 1.396 . S
H3047 C3042 0.929 . S
O3048 Mn3024 2.385 . S
O3048 C3026 1.234 . S
O3049 Mn3024 2.209 . S
O3049 Mn3025 2.215 . S
O3049 C3026 1.283 . S
O3050 Mn3024 2.094 . S
O3050 C3028 1.240 . S
O3051 Mn3025 2.117 . S
O3051 C3028 1.264 . S
C3052 C3045 1.403 . S
C3052 C3053 1.399 . S
C3052 H3058 0.929 . S
C3053 C3033 1.449 . S
C3053 C3052 1.399 . S
C3053 H3059 0.930 . S
H3054 C3034 0.931 . S
H3055 C3035 0.930 . S
H3056 C3043 0.931 . S
H3057 C3044 0.929 . S
H3058 C3052 0.929 . S
H3059 C3053 0.930 . S
Mn3060 O3065 2.095 . S
Mn3060 O3075 2.162 . S
Mn3060 O3076 2.297 . S
Mn3060 O3084 2.385 . S
Mn3060 O3085 2.209 . S
Mn3060 O3086 2.094 . S
Mn3061 O3066 2.121 . S
Mn3061 N3068 2.257 . S
Mn3061 N3077 2.282 . S
Mn3061 O3085 2.215 . S
Mn3061 O3087 2.117 . S
C3062 O3084 1.234 . S
C3062 O3085 1.283 . S
C3063 O3075 1.281 . S
C3063 O3076 1.236 . S
C3064 O3086 1.240 . S
C3064 O3087 1.264 . S
O3065 Mn3060 2.095 . S
O3065 C3074 1.250 . S
O3066 Mn3061 2.121 . S
O3066 C3074 1.258 . S
C3067 N3068 1.326 . S
C3067 C3071 1.460 . S
C3067 H3073 0.929 . S
N3068 Mn3061 2.257 . S
N3068 C3067 1.326 . S
N3068 C3072 1.362 . S
C3069 C3070 1.258 . S
C3069 C3072 1.431 . S
C3069 C3089 1.449 . S
C3070 C3069 1.258 . S
C3070 C3071 1.477 . S
C3070 H3090 0.931 . S
C3071 C3067 1.460 . S
C3071 C3070 1.477 . S
C3071 H3091 0.930 . S
C3072 N3068 1.362 . S
C3072 C3069 1.431 . S
C3072 C3082 1.476 . S
H3073 C3067 0.929 . S
C3074 O3065 1.250 . S
C3074 O3066 1.258 . S
O3075 Mn3060 2.162 . S
O3075 C3063 1.281 . S
O3076 Mn3060 2.297 . S
O3076 C3063 1.236 . S
N3077 Mn3061 2.282 . S
N3077 C3078 1.328 . S
N3077 C3082 1.318 . S
C3078 N3077 1.328 . S
C3078 C3079 1.457 . S
C3078 H3083 0.929 . S
C3079 C3078 1.457 . S
C3079 C3080 1.291 . S
C3079 H3092 0.931 . S
C3080 C3079 1.291 . S
C3080 C3081 1.373 . S
C3080 H3093 0.929 . S
C3081 C3080 1.373 . S
C3081 C3082 1.396 . S
C3081 C3088 1.403 . S
C3082 C3072 1.476 . S
C3082 N3077 1.318 . S
C3082 C3081 1.396 . S
H3083 C3078 0.929 . S
O3084 Mn3060 2.385 . S
O3084 C3062 1.234 . S
O3085 Mn3060 2.209 . S
O3085 Mn3061 2.215 . S
O3085 C3062 1.283 . S
O3086 Mn3060 2.094 . S
O3086 C3064 1.240 . S
O3087 Mn3061 2.117 . S
O3087 C3064 1.264 . S
C3088 C3081 1.403 . S
C3088 C3089 1.399 . S
C3088 H3094 0.929 . S
C3089 C3069 1.449 . S
C3089 C3088 1.399 . S
C3089 H3095 0.930 . S
H3090 C3070 0.931 . S
H3091 C3071 0.930 . S
H3092 C3079 0.931 . S
H3093 C3080 0.929 . S
H3094 C3088 0.929 . S
H3095 C3089 0.930 . S
Mn3096 O3101 2.095 . S
Mn3096 O3111 2.162 . S
Mn3096 O3112 2.297 . S
Mn3096 O3120 2.385 . S
Mn3096 O3121 2.209 . S
Mn3096 O3122 2.094 . S
Mn3097 O3102 2.121 . S
Mn3097 N3104 2.257 . S
Mn3097 N3113 2.282 . S
Mn3097 O3121 2.215 . S
Mn3097 O3123 2.117 . S
C3098 O3120 1.234 . S
C3098 O3121 1.283 . S
C3099 O3111 1.281 . S
C3099 O3112 1.236 . S
C3100 O3122 1.240 . S
C3100 O3123 1.264 . S
O3101 Mn3096 2.095 . S
O3101 C3110 1.250 . S
O3102 Mn3097 2.121 . S
O3102 C3110 1.258 . S
C3103 N3104 1.326 . S
C3103 C3107 1.460 . S
C3103 H3109 0.929 . S
N3104 Mn3097 2.257 . S
N3104 C3103 1.326 . S
N3104 C3108 1.362 . S
C3105 C3106 1.258 . S
C3105 C3108 1.431 . S
C3105 C3125 1.449 . S
C3106 C3105 1.258 . S
C3106 C3107 1.477 . S
C3106 H3126 0.931 . S
C3107 C3103 1.460 . S
C3107 C3106 1.477 . S
C3107 H3127 0.930 . S
C3108 N3104 1.362 . S
C3108 C3105 1.431 . S
C3108 C3118 1.476 . S
H3109 C3103 0.929 . S
C3110 O3101 1.250 . S
C3110 O3102 1.258 . S
O3111 Mn3096 2.162 . S
O3111 C3099 1.281 . S
O3112 Mn3096 2.297 . S
O3112 C3099 1.236 . S
N3113 Mn3097 2.282 . S
N3113 C3114 1.328 . S
N3113 C3118 1.318 . S
C3114 N3113 1.328 . S
C3114 C3115 1.457 . S
C3114 H3119 0.929 . S
C3115 C3114 1.457 . S
C3115 C3116 1.291 . S
C3115 H3128 0.931 . S
C3116 C3115 1.291 . S
C3116 C3117 1.373 . S
C3116 H3129 0.929 . S
C3117 C3116 1.373 . S
C3117 C3118 1.396 . S
C3117 C3124 1.403 . S
C3118 C3108 1.476 . S
C3118 N3113 1.318 . S
C3118 C3117 1.396 . S
H3119 C3114 0.929 . S
O3120 Mn3096 2.385 . S
O3120 C3098 1.234 . S
O3121 Mn3096 2.209 . S
O3121 Mn3097 2.215 . S
O3121 C3098 1.283 . S
O3122 Mn3096 2.094 . S
O3122 C3100 1.240 . S
O3123 Mn3097 2.117 . S
O3123 C3100 1.264 . S
C3124 C3117 1.403 . S
C3124 C3125 1.399 . S
C3124 H3130 0.929 . S
C3125 C3105 1.449 . S
C3125 C3124 1.399 . S
C3125 H3131 0.930 . S
H3126 C3106 0.931 . S
H3127 C3107 0.930 . S
H3128 C3115 0.931 . S
H3129 C3116 0.929 . S
H3130 C3124 0.929 . S
H3131 C3125 0.930 . S
Mn3132 O3137 2.095 . S
Mn3132 O3147 2.162 . S
Mn3132 O3148 2.297 . S
Mn3132 O3156 2.385 . S
Mn3132 O3157 2.209 . S
Mn3132 O3158 2.094 . S
Mn3133 O3138 2.121 . S
Mn3133 N3140 2.257 . S
Mn3133 N3149 2.282 . S
Mn3133 O3157 2.215 . S
Mn3133 O3159 2.117 . S
C3134 O3156 1.234 . S
C3134 O3157 1.283 . S
C3135 O3147 1.281 . S
C3135 O3148 1.236 . S
C3136 O3158 1.240 . S
C3136 O3159 1.264 . S
O3137 Mn3132 2.095 . S
O3137 C3146 1.250 . S
O3138 Mn3133 2.121 . S
O3138 C3146 1.258 . S
C3139 N3140 1.326 . S
C3139 C3143 1.460 . S
C3139 H3145 0.929 . S
N3140 Mn3133 2.257 . S
N3140 C3139 1.326 . S
N3140 C3144 1.362 . S
C3141 C3142 1.258 . S
C3141 C3144 1.431 . S
C3141 C3161 1.449 . S
C3142 C3141 1.258 . S
C3142 C3143 1.477 . S
C3142 H3162 0.931 . S
C3143 C3139 1.460 . S
C3143 C3142 1.477 . S
C3143 H3163 0.930 . S
C3144 N3140 1.362 . S
C3144 C3141 1.431 . S
C3144 C3154 1.476 . S
H3145 C3139 0.929 . S
C3146 O3137 1.250 . S
C3146 O3138 1.258 . S
O3147 Mn3132 2.162 . S
O3147 C3135 1.281 . S
O3148 Mn3132 2.297 . S
O3148 C3135 1.236 . S
N3149 Mn3133 2.282 . S
N3149 C3150 1.328 . S
N3149 C3154 1.318 . S
C3150 N3149 1.328 . S
C3150 C3151 1.457 . S
C3150 H3155 0.929 . S
C3151 C3150 1.457 . S
C3151 C3152 1.291 . S
C3151 H3164 0.931 . S
C3152 C3151 1.291 . S
C3152 C3153 1.373 . S
C3152 H3165 0.929 . S
C3153 C3152 1.373 . S
C3153 C3154 1.396 . S
C3153 C3160 1.403 . S
C3154 C3144 1.476 . S
C3154 N3149 1.318 . S
C3154 C3153 1.396 . S
H3155 C3150 0.929 . S
O3156 Mn3132 2.385 . S
O3156 C3134 1.234 . S
O3157 Mn3132 2.209 . S
O3157 Mn3133 2.215 . S
O3157 C3134 1.283 . S
O3158 Mn3132 2.094 . S
O3158 C3136 1.240 . S
O3159 Mn3133 2.117 . S
O3159 C3136 1.264 . S
C3160 C3153 1.403 . S
C3160 C3161 1.399 . S
C3160 H3166 0.929 . S
C3161 C3141 1.449 . S
C3161 C3160 1.399 . S
C3161 H3167 0.930 . S
H3162 C3142 0.931 . S
H3163 C3143 0.930 . S
H3164 C3151 0.931 . S
H3165 C3152 0.929 . S
H3166 C3160 0.929 . S
H3167 C3161 0.930 . S
Mn3168 O3173 2.095 . S
Mn3168 O3183 2.162 . S
Mn3168 O3184 2.297 . S
Mn3168 O3192 2.385 . S
Mn3168 O3193 2.209 . S
Mn3168 O3194 2.094 . S
Mn3169 O3174 2.121 . S
Mn3169 N3176 2.257 . S
Mn3169 N3185 2.282 . S
Mn3169 O3193 2.215 . S
Mn3169 O3195 2.117 . S
C3170 O3192 1.234 . S
C3170 O3193 1.283 . S
C3171 O3183 1.281 . S
C3171 O3184 1.236 . S
C3172 O3194 1.240 . S
C3172 O3195 1.264 . S
O3173 Mn3168 2.095 . S
O3173 C3182 1.250 . S
O3174 Mn3169 2.121 . S
O3174 C3182 1.258 . S
C3175 N3176 1.326 . S
C3175 C3179 1.460 . S
C3175 H3181 0.929 . S
N3176 Mn3169 2.257 . S
N3176 C3175 1.326 . S
N3176 C3180 1.362 . S
C3177 C3178 1.258 . S
C3177 C3180 1.431 . S
C3177 C3197 1.449 . S
C3178 C3177 1.258 . S
C3178 C3179 1.477 . S
C3178 H3198 0.931 . S
C3179 C3175 1.460 . S
C3179 C3178 1.477 . S
C3179 H3199 0.930 . S
C3180 N3176 1.362 . S
C3180 C3177 1.431 . S
C3180 C3190 1.476 . S
H3181 C3175 0.929 . S
C3182 O3173 1.250 . S
C3182 O3174 1.258 . S
O3183 Mn3168 2.162 . S
O3183 C3171 1.281 . S
O3184 Mn3168 2.297 . S
O3184 C3171 1.236 . S
N3185 Mn3169 2.282 . S
N3185 C3186 1.328 . S
N3185 C3190 1.318 . S
C3186 N3185 1.328 . S
C3186 C3187 1.457 . S
C3186 H3191 0.929 . S
C3187 C3186 1.457 . S
C3187 C3188 1.291 . S
C3187 H3200 0.931 . S
C3188 C3187 1.291 . S
C3188 C3189 1.373 . S
C3188 H3201 0.929 . S
C3189 C3188 1.373 . S
C3189 C3190 1.396 . S
C3189 C3196 1.403 . S
C3190 C3180 1.476 . S
C3190 N3185 1.318 . S
C3190 C3189 1.396 . S
H3191 C3186 0.929 . S
O3192 Mn3168 2.385 . S
O3192 C3170 1.234 . S
O3193 Mn3168 2.209 . S
O3193 Mn3169 2.215 . S
O3193 C3170 1.283 . S
O3194 Mn3168 2.094 . S
O3194 C3172 1.240 . S
O3195 Mn3169 2.117 . S
O3195 C3172 1.264 . S
C3196 C3189 1.403 . S
C3196 C3197 1.399 . S
C3196 H3202 0.929 . S
C3197 C3177 1.449 . S
C3197 C3196 1.399 . S
C3197 H3203 0.930 . S
H3198 C3178 0.931 . S
H3199 C3179 0.930 . S
H3200 C3187 0.931 . S
H3201 C3188 0.929 . S
H3202 C3196 0.929 . S
H3203 C3197 0.930 . S
Mn3204 O3209 2.095 . S
Mn3204 O3219 2.162 . S
Mn3204 O3220 2.297 . S
Mn3204 O3228 2.385 . S
Mn3204 O3229 2.209 . S
Mn3204 O3230 2.094 . S
Mn3205 O3210 2.121 . S
Mn3205 N3212 2.257 . S
Mn3205 N3221 2.282 . S
Mn3205 O3229 2.215 . S
Mn3205 O3231 2.117 . S
C3206 O3228 1.234 . S
C3206 O3229 1.283 . S
C3207 O3219 1.281 . S
C3207 O3220 1.236 . S
C3208 O3230 1.240 . S
C3208 O3231 1.264 . S
O3209 Mn3204 2.095 . S
O3209 C3218 1.250 . S
O3210 Mn3205 2.121 . S
O3210 C3218 1.258 . S
C3211 N3212 1.326 . S
C3211 C3215 1.460 . S
C3211 H3217 0.929 . S
N3212 Mn3205 2.257 . S
N3212 C3211 1.326 . S
N3212 C3216 1.362 . S
C3213 C3214 1.258 . S
C3213 C3216 1.431 . S
C3213 C3233 1.449 . S
C3214 C3213 1.258 . S
C3214 C3215 1.477 . S
C3214 H3234 0.931 . S
C3215 C3211 1.460 . S
C3215 C3214 1.477 . S
C3215 H3235 0.930 . S
C3216 N3212 1.362 . S
C3216 C3213 1.431 . S
C3216 C3226 1.476 . S
H3217 C3211 0.929 . S
C3218 O3209 1.250 . S
C3218 O3210 1.258 . S
O3219 Mn3204 2.162 . S
O3219 C3207 1.281 . S
O3220 Mn3204 2.297 . S
O3220 C3207 1.236 . S
N3221 Mn3205 2.282 . S
N3221 C3222 1.328 . S
N3221 C3226 1.318 . S
C3222 N3221 1.328 . S
C3222 C3223 1.457 . S
C3222 H3227 0.929 . S
C3223 C3222 1.457 . S
C3223 C3224 1.291 . S
C3223 H3236 0.931 . S
C3224 C3223 1.291 . S
C3224 C3225 1.373 . S
C3224 H3237 0.929 . S
C3225 C3224 1.373 . S
C3225 C3226 1.396 . S
C3225 C3232 1.403 . S
C3226 C3216 1.476 . S
C3226 N3221 1.318 . S
C3226 C3225 1.396 . S
H3227 C3222 0.929 . S
O3228 Mn3204 2.385 . S
O3228 C3206 1.234 . S
O3229 Mn3204 2.209 . S
O3229 Mn3205 2.215 . S
O3229 C3206 1.283 . S
O3230 Mn3204 2.094 . S
O3230 C3208 1.240 . S
O3231 Mn3205 2.117 . S
O3231 C3208 1.264 . S
C3232 C3225 1.403 . S
C3232 C3233 1.399 . S
C3232 H3238 0.929 . S
C3233 C3213 1.449 . S
C3233 C3232 1.399 . S
C3233 H3239 0.930 . S
H3234 C3214 0.931 . S
H3235 C3215 0.930 . S
H3236 C3223 0.931 . S
H3237 C3224 0.929 . S
H3238 C3232 0.929 . S
H3239 C3233 0.930 . S
Mn3240 O3245 2.095 . S
Mn3240 O3255 2.162 . S
Mn3240 O3256 2.297 . S
Mn3240 O3264 2.385 . S
Mn3240 O3265 2.209 . S
Mn3240 O3266 2.094 . S
Mn3241 O3246 2.121 . S
Mn3241 N3248 2.257 . S
Mn3241 N3257 2.282 . S
Mn3241 O3265 2.215 . S
Mn3241 O3267 2.117 . S
C3242 O3264 1.234 . S
C3242 O3265 1.283 . S
C3243 O3255 1.281 . S
C3243 O3256 1.236 . S
C3244 O3266 1.240 . S
C3244 O3267 1.264 . S
O3245 Mn3240 2.095 . S
O3245 C3254 1.250 . S
O3246 Mn3241 2.121 . S
O3246 C3254 1.258 . S
C3247 N3248 1.326 . S
C3247 C3251 1.460 . S
C3247 H3253 0.929 . S
N3248 Mn3241 2.257 . S
N3248 C3247 1.326 . S
N3248 C3252 1.362 . S
C3249 C3250 1.258 . S
C3249 C3252 1.431 . S
C3249 C3269 1.449 . S
C3250 C3249 1.258 . S
C3250 C3251 1.477 . S
C3250 H3270 0.931 . S
C3251 C3247 1.460 . S
C3251 C3250 1.477 . S
C3251 H3271 0.930 . S
C3252 N3248 1.362 . S
C3252 C3249 1.431 . S
C3252 C3262 1.476 . S
H3253 C3247 0.929 . S
C3254 O3245 1.250 . S
C3254 O3246 1.258 . S
O3255 Mn3240 2.162 . S
O3255 C3243 1.281 . S
O3256 Mn3240 2.297 . S
O3256 C3243 1.236 . S
N3257 Mn3241 2.282 . S
N3257 C3258 1.328 . S
N3257 C3262 1.318 . S
C3258 N3257 1.328 . S
C3258 C3259 1.457 . S
C3258 H3263 0.929 . S
C3259 C3258 1.457 . S
C3259 C3260 1.291 . S
C3259 H3272 0.931 . S
C3260 C3259 1.291 . S
C3260 C3261 1.373 . S
C3260 H3273 0.929 . S
C3261 C3260 1.373 . S
C3261 C3262 1.396 . S
C3261 C3268 1.403 . S
C3262 C3252 1.476 . S
C3262 N3257 1.318 . S
C3262 C3261 1.396 . S
H3263 C3258 0.929 . S
O3264 Mn3240 2.385 . S
O3264 C3242 1.234 . S
O3265 Mn3240 2.209 . S
O3265 Mn3241 2.215 . S
O3265 C3242 1.283 . S
O3266 Mn3240 2.094 . S
O3266 C3244 1.240 . S
O3267 Mn3241 2.117 . S
O3267 C3244 1.264 . S
C3268 C3261 1.403 . S
C3268 C3269 1.399 . S
C3268 H3274 0.929 . S
C3269 C3249 1.449 . S
C3269 C3268 1.399 . S
C3269 H3275 0.930 . S
H3270 C3250 0.931 . S
H3271 C3251 0.930 . S
H3272 C3259 0.931 . S
H3273 C3260 0.929 . S
H3274 C3268 0.929 . S
H3275 C3269 0.930 . S
Mn3276 O3281 2.095 . S
Mn3276 O3291 2.162 . S
Mn3276 O3292 2.297 . S
Mn3276 O3300 2.385 . S
Mn3276 O3301 2.209 . S
Mn3276 O3302 2.094 . S
Mn3277 O3282 2.121 . S
Mn3277 N3284 2.257 . S
Mn3277 N3293 2.282 . S
Mn3277 O3301 2.215 . S
Mn3277 O3303 2.117 . S
C3278 O3300 1.234 . S
C3278 O3301 1.283 . S
C3279 O3291 1.281 . S
C3279 O3292 1.236 . S
C3280 O3302 1.240 . S
C3280 O3303 1.264 . S
O3281 Mn3276 2.095 . S
O3281 C3290 1.250 . S
O3282 Mn3277 2.121 . S
O3282 C3290 1.258 . S
C3283 N3284 1.326 . S
C3283 C3287 1.460 . S
C3283 H3289 0.929 . S
N3284 Mn3277 2.257 . S
N3284 C3283 1.326 . S
N3284 C3288 1.362 . S
C3285 C3286 1.258 . S
C3285 C3288 1.431 . S
C3285 C3305 1.449 . S
C3286 C3285 1.258 . S
C3286 C3287 1.477 . S
C3286 H3306 0.931 . S
C3287 C3283 1.460 . S
C3287 C3286 1.477 . S
C3287 H3307 0.930 . S
C3288 N3284 1.362 . S
C3288 C3285 1.431 . S
C3288 C3298 1.476 . S
H3289 C3283 0.929 . S
C3290 O3281 1.250 . S
C3290 O3282 1.258 . S
O3291 Mn3276 2.162 . S
O3291 C3279 1.281 . S
O3292 Mn3276 2.297 . S
O3292 C3279 1.236 . S
N3293 Mn3277 2.282 . S
N3293 C3294 1.328 . S
N3293 C3298 1.318 . S
C3294 N3293 1.328 . S
C3294 C3295 1.457 . S
C3294 H3299 0.929 . S
C3295 C3294 1.457 . S
C3295 C3296 1.291 . S
C3295 H3308 0.931 . S
C3296 C3295 1.291 . S
C3296 C3297 1.373 . S
C3296 H3309 0.929 . S
C3297 C3296 1.373 . S
C3297 C3298 1.396 . S
C3297 C3304 1.403 . S
C3298 C3288 1.476 . S
C3298 N3293 1.318 . S
C3298 C3297 1.396 . S
H3299 C3294 0.929 . S
O3300 Mn3276 2.385 . S
O3300 C3278 1.234 . S
O3301 Mn3276 2.209 . S
O3301 Mn3277 2.215 . S
O3301 C3278 1.283 . S
O3302 Mn3276 2.094 . S
O3302 C3280 1.240 . S
O3303 Mn3277 2.117 . S
O3303 C3280 1.264 . S
C3304 C3297 1.403 . S
C3304 C3305 1.399 . S
C3304 H3310 0.929 . S
C3305 C3285 1.449 . S
C3305 C3304 1.399 . S
C3305 H3311 0.930 . S
H3306 C3286 0.931 . S
H3307 C3287 0.930 . S
H3308 C3295 0.931 . S
H3309 C3296 0.929 . S
H3310 C3304 0.929 . S
H3311 C3305 0.930 . S
Mn3312 O3317 2.095 . S
Mn3312 O3327 2.162 . S
Mn3312 O3328 2.297 . S
Mn3312 O3336 2.385 . S
Mn3312 O3337 2.209 . S
Mn3312 O3338 2.094 . S
Mn3313 O3318 2.121 . S
Mn3313 N3320 2.257 . S
Mn3313 N3329 2.282 . S
Mn3313 O3337 2.215 . S
Mn3313 O3339 2.117 . S
C3314 O3336 1.234 . S
C3314 O3337 1.283 . S
C3315 O3327 1.281 . S
C3315 O3328 1.236 . S
C3316 O3338 1.240 . S
C3316 O3339 1.264 . S
O3317 Mn3312 2.095 . S
O3317 C3326 1.250 . S
O3318 Mn3313 2.121 . S
O3318 C3326 1.258 . S
C3319 N3320 1.326 . S
C3319 C3323 1.460 . S
C3319 H3325 0.929 . S
N3320 Mn3313 2.257 . S
N3320 C3319 1.326 . S
N3320 C3324 1.362 . S
C3321 C3322 1.258 . S
C3321 C3324 1.431 . S
C3321 C3341 1.449 . S
C3322 C3321 1.258 . S
C3322 C3323 1.477 . S
C3322 H3342 0.931 . S
C3323 C3319 1.460 . S
C3323 C3322 1.477 . S
C3323 H3343 0.930 . S
C3324 N3320 1.362 . S
C3324 C3321 1.431 . S
C3324 C3334 1.476 . S
H3325 C3319 0.929 . S
C3326 O3317 1.250 . S
C3326 O3318 1.258 . S
O3327 Mn3312 2.162 . S
O3327 C3315 1.281 . S
O3328 Mn3312 2.297 . S
O3328 C3315 1.236 . S
N3329 Mn3313 2.282 . S
N3329 C3330 1.328 . S
N3329 C3334 1.318 . S
C3330 N3329 1.328 . S
C3330 C3331 1.457 . S
C3330 H3335 0.929 . S
C3331 C3330 1.457 . S
C3331 C3332 1.291 . S
C3331 H3344 0.931 . S
C3332 C3331 1.291 . S
C3332 C3333 1.373 . S
C3332 H3345 0.929 . S
C3333 C3332 1.373 . S
C3333 C3334 1.396 . S
C3333 C3340 1.403 . S
C3334 C3324 1.476 . S
C3334 N3329 1.318 . S
C3334 C3333 1.396 . S
H3335 C3330 0.929 . S
O3336 Mn3312 2.385 . S
O3336 C3314 1.234 . S
O3337 Mn3312 2.209 . S
O3337 Mn3313 2.215 . S
O3337 C3314 1.283 . S
O3338 Mn3312 2.094 . S
O3338 C3316 1.240 . S
O3339 Mn3313 2.117 . S
O3339 C3316 1.264 . S
C3340 C3333 1.403 . S
C3340 C3341 1.399 . S
C3340 H3346 0.929 . S
C3341 C3321 1.449 . S
C3341 C3340 1.399 . S
C3341 H3347 0.930 . S
H3342 C3322 0.931 . S
H3343 C3323 0.930 . S
H3344 C3331 0.931 . S
H3345 C3332 0.929 . S
H3346 C3340 0.929 . S
H3347 C3341 0.930 . S
Mn3348 O3353 2.095 . S
Mn3348 O3363 2.162 . S
Mn3348 O3364 2.297 . S
Mn3348 O3372 2.385 . S
Mn3348 O3373 2.209 . S
Mn3348 O3374 2.094 . S
Mn3349 O3354 2.121 . S
Mn3349 N3356 2.257 . S
Mn3349 N3365 2.282 . S
Mn3349 O3373 2.215 . S
Mn3349 O3375 2.117 . S
C3350 O3372 1.234 . S
C3350 O3373 1.283 . S
C3351 O3363 1.281 . S
C3351 O3364 1.236 . S
C3352 O3374 1.240 . S
C3352 O3375 1.264 . S
O3353 Mn3348 2.095 . S
O3353 C3362 1.250 . S
O3354 Mn3349 2.121 . S
O3354 C3362 1.258 . S
C3355 N3356 1.326 . S
C3355 C3359 1.460 . S
C3355 H3361 0.929 . S
N3356 Mn3349 2.257 . S
N3356 C3355 1.326 . S
N3356 C3360 1.362 . S
C3357 C3358 1.258 . S
C3357 C3360 1.431 . S
C3357 C3377 1.449 . S
C3358 C3357 1.258 . S
C3358 C3359 1.477 . S
C3358 H3378 0.931 . S
C3359 C3355 1.460 . S
C3359 C3358 1.477 . S
C3359 H3379 0.930 . S
C3360 N3356 1.362 . S
C3360 C3357 1.431 . S
C3360 C3370 1.476 . S
H3361 C3355 0.929 . S
C3362 O3353 1.250 . S
C3362 O3354 1.258 . S
O3363 Mn3348 2.162 . S
O3363 C3351 1.281 . S
O3364 Mn3348 2.297 . S
O3364 C3351 1.236 . S
N3365 Mn3349 2.282 . S
N3365 C3366 1.328 . S
N3365 C3370 1.318 . S
C3366 N3365 1.328 . S
C3366 C3367 1.457 . S
C3366 H3371 0.929 . S
C3367 C3366 1.457 . S
C3367 C3368 1.291 . S
C3367 H3380 0.931 . S
C3368 C3367 1.291 . S
C3368 C3369 1.373 . S
C3368 H3381 0.929 . S
C3369 C3368 1.373 . S
C3369 C3370 1.396 . S
C3369 C3376 1.403 . S
C3370 C3360 1.476 . S
C3370 N3365 1.318 . S
C3370 C3369 1.396 . S
H3371 C3366 0.929 . S
O3372 Mn3348 2.385 . S
O3372 C3350 1.234 . S
O3373 Mn3348 2.209 . S
O3373 Mn3349 2.215 . S
O3373 C3350 1.283 . S
O3374 Mn3348 2.094 . S
O3374 C3352 1.240 . S
O3375 Mn3349 2.117 . S
O3375 C3352 1.264 . S
C3376 C3369 1.403 . S
C3376 C3377 1.399 . S
C3376 H3382 0.929 . S
C3377 C3357 1.449 . S
C3377 C3376 1.399 . S
C3377 H3383 0.930 . S
H3378 C3358 0.931 . S
H3379 C3359 0.930 . S
H3380 C3367 0.931 . S
H3381 C3368 0.929 . S
H3382 C3376 0.929 . S
H3383 C3377 0.930 . S
Mn3384 O3389 2.095 . S
Mn3384 O3399 2.162 . S
Mn3384 O3400 2.297 . S
Mn3384 O3408 2.385 . S
Mn3384 O3409 2.209 . S
Mn3384 O3410 2.094 . S
Mn3385 O3390 2.121 . S
Mn3385 N3392 2.257 . S
Mn3385 N3401 2.282 . S
Mn3385 O3409 2.215 . S
Mn3385 O3411 2.117 . S
C3386 O3408 1.234 . S
C3386 O3409 1.283 . S
C3387 O3399 1.281 . S
C3387 O3400 1.236 . S
C3388 O3410 1.240 . S
C3388 O3411 1.264 . S
O3389 Mn3384 2.095 . S
O3389 C3398 1.250 . S
O3390 Mn3385 2.121 . S
O3390 C3398 1.258 . S
C3391 N3392 1.326 . S
C3391 C3395 1.460 . S
C3391 H3397 0.929 . S
N3392 Mn3385 2.257 . S
N3392 C3391 1.326 . S
N3392 C3396 1.362 . S
C3393 C3394 1.258 . S
C3393 C3396 1.431 . S
C3393 C3413 1.449 . S
C3394 C3393 1.258 . S
C3394 C3395 1.477 . S
C3394 H3414 0.931 . S
C3395 C3391 1.460 . S
C3395 C3394 1.477 . S
C3395 H3415 0.930 . S
C3396 N3392 1.362 . S
C3396 C3393 1.431 . S
C3396 C3406 1.476 . S
H3397 C3391 0.929 . S
C3398 O3389 1.250 . S
C3398 O3390 1.258 . S
O3399 Mn3384 2.162 . S
O3399 C3387 1.281 . S
O3400 Mn3384 2.297 . S
O3400 C3387 1.236 . S
N3401 Mn3385 2.282 . S
N3401 C3402 1.328 . S
N3401 C3406 1.318 . S
C3402 N3401 1.328 . S
C3402 C3403 1.457 . S
C3402 H3407 0.929 . S
C3403 C3402 1.457 . S
C3403 C3404 1.291 . S
C3403 H3416 0.931 . S
C3404 C3403 1.291 . S
C3404 C3405 1.373 . S
C3404 H3417 0.929 . S
C3405 C3404 1.373 . S
C3405 C3406 1.396 . S
C3405 C3412 1.403 . S
C3406 C3396 1.476 . S
C3406 N3401 1.318 . S
C3406 C3405 1.396 . S
H3407 C3402 0.929 . S
O3408 Mn3384 2.385 . S
O3408 C3386 1.234 . S
O3409 Mn3384 2.209 . S
O3409 Mn3385 2.215 . S
O3409 C3386 1.283 . S
O3410 Mn3384 2.094 . S
O3410 C3388 1.240 . S
O3411 Mn3385 2.117 . S
O3411 C3388 1.264 . S
C3412 C3405 1.403 . S
C3412 C3413 1.399 . S
C3412 H3418 0.929 . S
C3413 C3393 1.449 . S
C3413 C3412 1.399 . S
C3413 H3419 0.930 . S
H3414 C3394 0.931 . S
H3415 C3395 0.930 . S
H3416 C3403 0.931 . S
H3417 C3404 0.929 . S
H3418 C3412 0.929 . S
H3419 C3413 0.930 . S
Mn3420 O3425 2.095 . S
Mn3420 O3435 2.162 . S
Mn3420 O3436 2.297 . S
Mn3420 O3444 2.385 . S
Mn3420 O3445 2.209 . S
Mn3420 O3446 2.094 . S
Mn3421 O3426 2.121 . S
Mn3421 N3428 2.257 . S
Mn3421 N3437 2.282 . S
Mn3421 O3445 2.215 . S
Mn3421 O3447 2.117 . S
C3422 O3444 1.234 . S
C3422 O3445 1.283 . S
C3423 O3435 1.281 . S
C3423 O3436 1.236 . S
C3424 O3446 1.240 . S
C3424 O3447 1.264 . S
O3425 Mn3420 2.095 . S
O3425 C3434 1.250 . S
O3426 Mn3421 2.121 . S
O3426 C3434 1.258 . S
C3427 N3428 1.326 . S
C3427 C3431 1.460 . S
C3427 H3433 0.929 . S
N3428 Mn3421 2.257 . S
N3428 C3427 1.326 . S
N3428 C3432 1.362 . S
C3429 C3430 1.258 . S
C3429 C3432 1.431 . S
C3429 C3449 1.449 . S
C3430 C3429 1.258 . S
C3430 C3431 1.477 . S
C3430 H3450 0.931 . S
C3431 C3427 1.460 . S
C3431 C3430 1.477 . S
C3431 H3451 0.930 . S
C3432 N3428 1.362 . S
C3432 C3429 1.431 . S
C3432 C3442 1.476 . S
H3433 C3427 0.929 . S
C3434 O3425 1.250 . S
C3434 O3426 1.258 . S
O3435 Mn3420 2.162 . S
O3435 C3423 1.281 . S
O3436 Mn3420 2.297 . S
O3436 C3423 1.236 . S
N3437 Mn3421 2.282 . S
N3437 C3438 1.328 . S
N3437 C3442 1.318 . S
C3438 N3437 1.328 . S
C3438 C3439 1.457 . S
C3438 H3443 0.929 . S
C3439 C3438 1.457 . S
C3439 C3440 1.291 . S
C3439 H3452 0.931 . S
C3440 C3439 1.291 . S
C3440 C3441 1.373 . S
C3440 H3453 0.929 . S
C3441 C3440 1.373 . S
C3441 C3442 1.396 . S
C3441 C3448 1.403 . S
C3442 C3432 1.476 . S
C3442 N3437 1.318 . S
C3442 C3441 1.396 . S
H3443 C3438 0.929 . S
O3444 Mn3420 2.385 . S
O3444 C3422 1.234 . S
O3445 Mn3420 2.209 . S
O3445 Mn3421 2.215 . S
O3445 C3422 1.283 . S
O3446 Mn3420 2.094 . S
O3446 C3424 1.240 . S
O3447 Mn3421 2.117 . S
O3447 C3424 1.264 . S
C3448 C3441 1.403 . S
C3448 C3449 1.399 . S
C3448 H3454 0.929 . S
C3449 C3429 1.449 . S
C3449 C3448 1.399 . S
C3449 H3455 0.930 . S
H3450 C3430 0.931 . S
H3451 C3431 0.930 . S
H3452 C3439 0.931 . S
H3453 C3440 0.929 . S
H3454 C3448 0.929 . S
H3455 C3449 0.930 . S
C3456 C3457 1.369 . S
C3456 C3458 1.419 . S
C3456 H3460 0.930 . S
C3457 C3456 1.369 . S
C3457 C3466 1.429 . S
C3458 C3456 1.419 . S
C3458 C3459 1.363 . S
C3458 H3461 0.929 . S
C3459 C3458 1.363 . S
C3459 C3465 1.428 . S
H3460 C3456 0.930 . S
H3461 C3458 0.929 . S
S3462 N3463 1.613 . S
S3462 N3464 1.610 . S
N3463 S3462 1.613 . S
N3463 C3466 1.350 . S
N3464 S3462 1.610 . S
N3464 C3465 1.351 . S
C3465 C3459 1.428 . S
C3465 N3464 1.351 . S
C3465 C3466 1.434 . S
C3466 C3457 1.429 . S
C3466 N3463 1.350 . S
C3466 C3465 1.434 . S
C3467 C3468 1.369 . S
C3467 C3469 1.419 . S
C3467 H3471 0.930 . S
C3468 C3467 1.369 . S
C3468 C3477 1.429 . S
C3469 C3467 1.419 . S
C3469 C3470 1.363 . S
C3469 H3472 0.929 . S
C3470 C3469 1.363 . S
C3470 C3476 1.428 . S
H3471 C3467 0.930 . S
H3472 C3469 0.929 . S
S3473 N3474 1.613 . S
S3473 N3475 1.610 . S
N3474 S3473 1.613 . S
N3474 C3477 1.350 . S
N3475 S3473 1.610 . S
N3475 C3476 1.351 . S
C3476 C3470 1.428 . S
C3476 N3475 1.351 . S
C3476 C3477 1.434 . S
C3477 C3468 1.429 . S
C3477 N3474 1.350 . S
C3477 C3476 1.434 . S
C3478 C3479 1.369 . S
C3478 C3480 1.419 . S
C3478 H3482 0.930 . S
C3479 C3478 1.369 . S
C3479 C3488 1.429 . S
C3480 C3478 1.419 . S
C3480 C3481 1.363 . S
C3480 H3483 0.929 . S
C3481 C3480 1.363 . S
C3481 C3487 1.428 . S
H3482 C3478 0.930 . S
H3483 C3480 0.929 . S
S3484 N3485 1.613 . S
S3484 N3486 1.610 . S
N3485 S3484 1.613 . S
N3485 C3488 1.350 . S
N3486 S3484 1.610 . S
N3486 C3487 1.351 . S
C3487 C3481 1.428 . S
C3487 N3486 1.351 . S
C3487 C3488 1.434 . S
C3488 C3479 1.429 . S
C3488 N3485 1.350 . S
C3488 C3487 1.434 . S
C3489 C3490 1.369 . S
C3489 C3491 1.419 . S
C3489 H3493 0.930 . S
C3490 C3489 1.369 . S
C3490 C3499 1.429 . S
C3491 C3489 1.419 . S
C3491 C3492 1.363 . S
C3491 H3494 0.929 . S
C3492 C3491 1.363 . S
C3492 C3498 1.428 . S
H3493 C3489 0.930 . S
H3494 C3491 0.929 . S
S3495 N3496 1.613 . S
S3495 N3497 1.610 . S
N3496 S3495 1.613 . S
N3496 C3499 1.350 . S
N3497 S3495 1.610 . S
N3497 C3498 1.351 . S
C3498 C3492 1.428 . S
C3498 N3497 1.351 . S
C3498 C3499 1.434 . S
C3499 C3490 1.429 . S
C3499 N3496 1.350 . S
C3499 C3498 1.434 . S
C3500 C3501 1.369 . S
C3500 C3502 1.419 . S
C3500 H3504 0.930 . S
C3501 C3500 1.369 . S
C3501 C3510 1.429 . S
C3502 C3500 1.419 . S
C3502 C3503 1.363 . S
C3502 H3505 0.929 . S
C3503 C3502 1.363 . S
C3503 C3509 1.428 . S
H3504 C3500 0.930 . S
H3505 C3502 0.929 . S
S3506 N3507 1.613 . S
S3506 N3508 1.610 . S
N3507 S3506 1.613 . S
N3507 C3510 1.350 . S
N3508 S3506 1.610 . S
N3508 C3509 1.351 . S
C3509 C3503 1.428 . S
C3509 N3508 1.351 . S
C3509 C3510 1.434 . S
C3510 C3501 1.429 . S
C3510 N3507 1.350 . S
C3510 C3509 1.434 . S
C3511 C3512 1.369 . S
C3511 C3513 1.419 . S
C3511 H3515 0.930 . S
C3512 C3511 1.369 . S
C3512 C3521 1.429 . S
C3513 C3511 1.419 . S
C3513 C3514 1.363 . S
C3513 H3516 0.929 . S
C3514 C3513 1.363 . S
C3514 C3520 1.428 . S
H3515 C3511 0.930 . S
H3516 C3513 0.929 . S
S3517 N3518 1.613 . S
S3517 N3519 1.610 . S
N3518 S3517 1.613 . S
N3518 C3521 1.350 . S
N3519 S3517 1.610 . S
N3519 C3520 1.351 . S
C3520 C3514 1.428 . S
C3520 N3519 1.351 . S
C3520 C3521 1.434 . S
C3521 C3512 1.429 . S
C3521 N3518 1.350 . S
C3521 C3520 1.434 . S
C3522 C3523 1.369 . S
C3522 C3524 1.419 . S
C3522 H3526 0.930 . S
C3523 C3522 1.369 . S
C3523 C3532 1.429 . S
C3524 C3522 1.419 . S
C3524 C3525 1.363 . S
C3524 H3527 0.929 . S
C3525 C3524 1.363 . S
C3525 C3531 1.428 . S
H3526 C3522 0.930 . S
H3527 C3524 0.929 . S
S3528 N3529 1.613 . S
S3528 N3530 1.610 . S
N3529 S3528 1.613 . S
N3529 C3532 1.350 . S
N3530 S3528 1.610 . S
N3530 C3531 1.351 . S
C3531 C3525 1.428 . S
C3531 N3530 1.351 . S
C3531 C3532 1.434 . S
C3532 C3523 1.429 . S
C3532 N3529 1.350 . S
C3532 C3531 1.434 . S
C3533 C3534 1.369 . S
C3533 C3535 1.419 . S
C3533 H3537 0.930 . S
C3534 C3533 1.369 . S
C3534 C3543 1.429 . S
C3535 C3533 1.419 . S
C3535 C3536 1.363 . S
C3535 H3538 0.929 . S
C3536 C3535 1.363 . S
C3536 C3542 1.428 . S
H3537 C3533 0.930 . S
H3538 C3535 0.929 . S
S3539 N3540 1.613 . S
S3539 N3541 1.610 . S
N3540 S3539 1.613 . S
N3540 C3543 1.350 . S
N3541 S3539 1.610 . S
N3541 C3542 1.351 . S
C3542 C3536 1.428 . S
C3542 N3541 1.351 . S
C3542 C3543 1.434 . S
C3543 C3534 1.429 . S
C3543 N3540 1.350 . S
C3543 C3542 1.434 . S
C3544 C3545 1.369 . S
C3544 C3546 1.419 . S
C3544 H3548 0.930 . S
C3545 C3544 1.369 . S
C3545 C3554 1.429 . S
C3546 C3544 1.419 . S
C3546 C3547 1.363 . S
C3546 H3549 0.929 . S
C3547 C3546 1.363 . S
C3547 C3553 1.428 . S
H3548 C3544 0.930 . S
H3549 C3546 0.929 . S
S3550 N3551 1.613 . S
S3550 N3552 1.610 . S
N3551 S3550 1.613 . S
N3551 C3554 1.350 . S
N3552 S3550 1.610 . S
N3552 C3553 1.351 . S
C3553 C3547 1.428 . S
C3553 N3552 1.351 . S
C3553 C3554 1.434 . S
C3554 C3545 1.429 . S
C3554 N3551 1.350 . S
C3554 C3553 1.434 . S
C3555 C3556 1.369 . S
C3555 C3557 1.419 . S
C3555 H3559 0.930 . S
C3556 C3555 1.369 . S
C3556 C3565 1.429 . S
C3557 C3555 1.419 . S
C3557 C3558 1.363 . S
C3557 H3560 0.929 . S
C3558 C3557 1.363 . S
C3558 C3564 1.428 . S
H3559 C3555 0.930 . S
H3560 C3557 0.929 . S
S3561 N3562 1.613 . S
S3561 N3563 1.610 . S
N3562 S3561 1.613 . S
N3562 C3565 1.350 . S
N3563 S3561 1.610 . S
N3563 C3564 1.351 . S
C3564 C3558 1.428 . S
C3564 N3563 1.351 . S
C3564 C3565 1.434 . S
C3565 C3556 1.429 . S
C3565 N3562 1.350 . S
C3565 C3564 1.434 . S
C3566 C3567 1.369 . S
C3566 C3568 1.419 . S
C3566 H3570 0.930 . S
C3567 C3566 1.369 . S
C3567 C3576 1.429 . S
C3568 C3566 1.419 . S
C3568 C3569 1.363 . S
C3568 H3571 0.929 . S
C3569 C3568 1.363 . S
C3569 C3575 1.428 . S
H3570 C3566 0.930 . S
H3571 C3568 0.929 . S
S3572 N3573 1.613 . S
S3572 N3574 1.610 . S
N3573 S3572 1.613 . S
N3573 C3576 1.350 . S
N3574 S3572 1.610 . S
N3574 C3575 1.351 . S
C3575 C3569 1.428 . S
C3575 N3574 1.351 . S
C3575 C3576 1.434 . S
C3576 C3567 1.429 . S
C3576 N3573 1.350 . S
C3576 C3575 1.434 . S
C3577 C3578 1.369 . S
C3577 C3579 1.419 . S
C3577 H3581 0.930 . S
C3578 C3577 1.369 . S
C3578 C3587 1.429 . S
C3579 C3577 1.419 . S
C3579 C3580 1.363 . S
C3579 H3582 0.929 . S
C3580 C3579 1.363 . S
C3580 C3586 1.428 . S
H3581 C3577 0.930 . S
H3582 C3579 0.929 . S
S3583 N3584 1.613 . S
S3583 N3585 1.610 . S
N3584 S3583 1.613 . S
N3584 C3587 1.350 . S
N3585 S3583 1.610 . S
N3585 C3586 1.351 . S
C3586 C3580 1.428 . S
C3586 N3585 1.351 . S
C3586 C3587 1.434 . S
C3587 C3578 1.429 . S
C3587 N3584 1.350 . S
C3587 C3586 1.434 . S
C3588 C3589 1.369 . S
C3588 C3590 1.419 . S
C3588 H3592 0.930 . S
C3589 C3588 1.369 . S
C3589 C3598 1.429 . S
C3590 C3588 1.419 . S
C3590 C3591 1.363 . S
C3590 H3593 0.929 . S
C3591 C3590 1.363 . S
C3591 C3597 1.428 . S
H3592 C3588 0.930 . S
H3593 C3590 0.929 . S
S3594 N3595 1.613 . S
S3594 N3596 1.610 . S
N3595 S3594 1.613 . S
N3595 C3598 1.350 . S
N3596 S3594 1.610 . S
N3596 C3597 1.351 . S
C3597 C3591 1.428 . S
C3597 N3596 1.351 . S
C3597 C3598 1.434 . S
C3598 C3589 1.429 . S
C3598 N3595 1.350 . S
C3598 C3597 1.434 . S
C3599 C3600 1.369 . S
C3599 C3601 1.419 . S
C3599 H3603 0.930 . S
C3600 C3599 1.369 . S
C3600 C3609 1.429 . S
C3601 C3599 1.419 . S
C3601 C3602 1.363 . S
C3601 H3604 0.929 . S
C3602 C3601 1.363 . S
C3602 C3608 1.428 . S
H3603 C3599 0.930 . S
H3604 C3601 0.929 . S
S3605 N3606 1.613 . S
S3605 N3607 1.610 . S
N3606 S3605 1.613 . S
N3606 C3609 1.350 . S
N3607 S3605 1.610 . S
N3607 C3608 1.351 . S
C3608 C3602 1.428 . S
C3608 N3607 1.351 . S
C3608 C3609 1.434 . S
C3609 C3600 1.429 . S
C3609 N3606 1.350 . S
C3609 C3608 1.434 . S
C3610 C3611 1.369 . S
C3610 C3612 1.419 . S
C3610 H3614 0.930 . S
C3611 C3610 1.369 . S
C3611 C3620 1.429 . S
C3612 C3610 1.419 . S
C3612 C3613 1.363 . S
C3612 H3615 0.929 . S
C3613 C3612 1.363 . S
C3613 C3619 1.428 . S
H3614 C3610 0.930 . S
H3615 C3612 0.929 . S
S3616 N3617 1.613 . S
S3616 N3618 1.610 . S
N3617 S3616 1.613 . S
N3617 C3620 1.350 . S
N3618 S3616 1.610 . S
N3618 C3619 1.351 . S
C3619 C3613 1.428 . S
C3619 N3618 1.351 . S
C3619 C3620 1.434 . S
C3620 C3611 1.429 . S
C3620 N3617 1.350 . S
C3620 C3619 1.434 . S
C3621 C3622 1.369 . S
C3621 C3623 1.419 . S
C3621 H3625 0.930 . S
C3622 C3621 1.369 . S
C3622 C3631 1.429 . S
C3623 C3621 1.419 . S
C3623 C3624 1.363 . S
C3623 H3626 0.929 . S
C3624 C3623 1.363 . S
C3624 C3630 1.428 . S
H3625 C3621 0.930 . S
H3626 C3623 0.929 . S
S3627 N3628 1.613 . S
S3627 N3629 1.610 . S
N3628 S3627 1.613 . S
N3628 C3631 1.350 . S
N3629 S3627 1.610 . S
N3629 C3630 1.351 . S
C3630 C3624 1.428 . S
C3630 N3629 1.351 . S
C3630 C3631 1.434 . S
C3631 C3622 1.429 . S
C3631 N3628 1.350 . S
C3631 C3630 1.434 . S
C3632 C3633 1.369 . S
C3632 C3634 1.419 . S
C3632 H3636 0.930 . S
C3633 C3632 1.369 . S
C3633 C3642 1.429 . S
C3634 C3632 1.419 . S
C3634 C3635 1.363 . S
C3634 H3637 0.929 . S
C3635 C3634 1.363 . S
C3635 C3641 1.428 . S
H3636 C3632 0.930 . S
H3637 C3634 0.929 . S
S3638 N3639 1.613 . S
S3638 N3640 1.610 . S
N3639 S3638 1.613 . S
N3639 C3642 1.350 . S
N3640 S3638 1.610 . S
N3640 C3641 1.351 . S
C3641 C3635 1.428 . S
C3641 N3640 1.351 . S
C3641 C3642 1.434 . S
C3642 C3633 1.429 . S
C3642 N3639 1.350 . S
C3642 C3641 1.434 . S
C3643 C3644 1.369 . S
C3643 C3645 1.419 . S
C3643 H3647 0.930 . S
C3644 C3643 1.369 . S
C3644 C3653 1.429 . S
C3645 C3643 1.419 . S
C3645 C3646 1.363 . S
C3645 H3648 0.929 . S
C3646 C3645 1.363 . S
C3646 C3652 1.428 . S
H3647 C3643 0.930 . S
H3648 C3645 0.929 . S
S3649 N3650 1.613 . S
S3649 N3651 1.610 . S
N3650 S3649 1.613 . S
N3650 C3653 1.350 . S
N3651 S3649 1.610 . S
N3651 C3652 1.351 . S
C3652 C3646 1.428 . S
C3652 N3651 1.351 . S
C3652 C3653 1.434 . S
C3653 C3644 1.429 . S
C3653 N3650 1.350 . S
C3653 C3652 1.434 . S
C3654 C3655 1.369 . S
C3654 C3656 1.419 . S
C3654 H3658 0.930 . S
C3655 C3654 1.369 . S
C3655 C3664 1.429 . S
C3656 C3654 1.419 . S
C3656 C3657 1.363 . S
C3656 H3659 0.929 . S
C3657 C3656 1.363 . S
C3657 C3663 1.428 . S
H3658 C3654 0.930 . S
H3659 C3656 0.929 . S
S3660 N3661 1.613 . S
S3660 N3662 1.610 . S
N3661 S3660 1.613 . S
N3661 C3664 1.350 . S
N3662 S3660 1.610 . S
N3662 C3663 1.351 . S
C3663 C3657 1.428 . S
C3663 N3662 1.351 . S
C3663 C3664 1.434 . S
C3664 C3655 1.429 . S
C3664 N3661 1.350 . S
C3664 C3663 1.434 . S
C3665 C3666 1.369 . S
C3665 C3667 1.419 . S
C3665 H3669 0.930 . S
C3666 C3665 1.369 . S
C3666 C3675 1.429 . S
C3667 C3665 1.419 . S
C3667 C3668 1.363 . S
C3667 H3670 0.929 . S
C3668 C3667 1.363 . S
C3668 C3674 1.428 . S
H3669 C3665 0.930 . S
H3670 C3667 0.929 . S
S3671 N3672 1.613 . S
S3671 N3673 1.610 . S
N3672 S3671 1.613 . S
N3672 C3675 1.350 . S
N3673 S3671 1.610 . S
N3673 C3674 1.351 . S
C3674 C3668 1.428 . S
C3674 N3673 1.351 . S
C3674 C3675 1.434 . S
C3675 C3666 1.429 . S
C3675 N3672 1.350 . S
C3675 C3674 1.434 . S
C3676 C3677 1.369 . S
C3676 C3678 1.419 . S
C3676 H3680 0.930 . S
C3677 C3676 1.369 . S
C3677 C3686 1.429 . S
C3678 C3676 1.419 . S
C3678 C3679 1.363 . S
C3678 H3681 0.929 . S
C3679 C3678 1.363 . S
C3679 C3685 1.428 . S
H3680 C3676 0.930 . S
H3681 C3678 0.929 . S
S3682 N3683 1.613 . S
S3682 N3684 1.610 . S
N3683 S3682 1.613 . S
N3683 C3686 1.350 . S
N3684 S3682 1.610 . S
N3684 C3685 1.351 . S
C3685 C3679 1.428 . S
C3685 N3684 1.351 . S
C3685 C3686 1.434 . S
C3686 C3677 1.429 . S
C3686 N3683 1.350 . S
C3686 C3685 1.434 . S
C3687 C3688 1.369 . S
C3687 C3689 1.419 . S
C3687 H3691 0.930 . S
C3688 C3687 1.369 . S
C3688 C3697 1.429 . S
C3689 C3687 1.419 . S
C3689 C3690 1.363 . S
C3689 H3692 0.929 . S
C3690 C3689 1.363 . S
C3690 C3696 1.428 . S
H3691 C3687 0.930 . S
H3692 C3689 0.929 . S
S3693 N3694 1.613 . S
S3693 N3695 1.610 . S
N3694 S3693 1.613 . S
N3694 C3697 1.350 . S
N3695 S3693 1.610 . S
N3695 C3696 1.351 . S
C3696 C3690 1.428 . S
C3696 N3695 1.351 . S
C3696 C3697 1.434 . S
C3697 C3688 1.429 . S
C3697 N3694 1.350 . S
C3697 C3696 1.434 . S
C3698 C3699 1.369 . S
C3698 C3700 1.419 . S
C3698 H3702 0.930 . S
C3699 C3698 1.369 . S
C3699 C3708 1.429 . S
C3700 C3698 1.419 . S
C3700 C3701 1.363 . S
C3700 H3703 0.929 . S
C3701 C3700 1.363 . S
C3701 C3707 1.428 . S
H3702 C3698 0.930 . S
H3703 C3700 0.929 . S
S3704 N3705 1.613 . S
S3704 N3706 1.610 . S
N3705 S3704 1.613 . S
N3705 C3708 1.350 . S
N3706 S3704 1.610 . S
N3706 C3707 1.351 . S
C3707 C3701 1.428 . S
C3707 N3706 1.351 . S
C3707 C3708 1.434 . S
C3708 C3699 1.429 . S
C3708 N3705 1.350 . S
C3708 C3707 1.434 . S
C3709 C3710 1.369 . S
C3709 C3711 1.419 . S
C3709 H3713 0.930 . S
C3710 C3709 1.369 . S
C3710 C3719 1.429 . S
C3711 C3709 1.419 . S
C3711 C3712 1.363 . S
C3711 H3714 0.929 . S
C3712 C3711 1.363 . S
C3712 C3718 1.428 . S
H3713 C3709 0.930 . S
H3714 C3711 0.929 . S
S3715 N3716 1.613 . S
S3715 N3717 1.610 . S
N3716 S3715 1.613 . S
N3716 C3719 1.350 . S
N3717 S3715 1.610 . S
N3717 C3718 1.351 . S
C3718 C3712 1.428 . S
C3718 N3717 1.351 . S
C3718 C3719 1.434 . S
C3719 C3710 1.429 . S
C3719 N3716 1.350 . S
C3719 C3718 1.434 . S
C3720 C3721 1.369 . S
C3720 C3722 1.419 . S
C3720 H3724 0.930 . S
C3721 C3720 1.369 . S
C3721 C3730 1.429 . S
C3722 C3720 1.419 . S
C3722 C3723 1.363 . S
C3722 H3725 0.929 . S
C3723 C3722 1.363 . S
C3723 C3729 1.428 . S
H3724 C3720 0.930 . S
H3725 C3722 0.929 . S
S3726 N3727 1.613 . S
S3726 N3728 1.610 . S
N3727 S3726 1.613 . S
N3727 C3730 1.350 . S
N3728 S3726 1.610 . S
N3728 C3729 1.351 . S
C3729 C3723 1.428 . S
C3729 N3728 1.351 . S
C3729 C3730 1.434 . S
C3730 C3721 1.429 . S
C3730 N3727 1.350 . S
C3730 C3729 1.434 . S
C3731 C3732 1.369 . S
C3731 C3733 1.419 . S
C3731 H3735 0.930 . S
C3732 C3731 1.369 . S
C3732 C3741 1.429 . S
C3733 C3731 1.419 . S
C3733 C3734 1.363 . S
C3733 H3736 0.929 . S
C3734 C3733 1.363 . S
C3734 C3740 1.428 . S
H3735 C3731 0.930 . S
H3736 C3733 0.929 . S
S3737 N3738 1.613 . S
S3737 N3739 1.610 . S
N3738 S3737 1.613 . S
N3738 C3741 1.350 . S
N3739 S3737 1.610 . S
N3739 C3740 1.351 . S
C3740 C3734 1.428 . S
C3740 N3739 1.351 . S
C3740 C3741 1.434 . S
C3741 C3732 1.429 . S
C3741 N3738 1.350 . S
C3741 C3740 1.434 . S
C3742 C3743 1.369 . S
C3742 C3744 1.419 . S
C3742 H3746 0.930 . S
C3743 C3742 1.369 . S
C3743 C3752 1.429 . S
C3744 C3742 1.419 . S
C3744 C3745 1.363 . S
C3744 H3747 0.929 . S
C3745 C3744 1.363 . S
C3745 C3751 1.428 . S
H3746 C3742 0.930 . S
H3747 C3744 0.929 . S
S3748 N3749 1.613 . S
S3748 N3750 1.610 . S
N3749 S3748 1.613 . S
N3749 C3752 1.350 . S
N3750 S3748 1.610 . S
N3750 C3751 1.351 . S
C3751 C3745 1.428 . S
C3751 N3750 1.351 . S
C3751 C3752 1.434 . S
C3752 C3743 1.429 . S
C3752 N3749 1.350 . S
C3752 C3751 1.434 . S
C3753 C3754 1.369 . S
C3753 C3755 1.419 . S
C3753 H3757 0.930 . S
C3754 C3753 1.369 . S
C3754 C3763 1.429 . S
C3755 C3753 1.419 . S
C3755 C3756 1.363 . S
C3755 H3758 0.929 . S
C3756 C3755 1.363 . S
C3756 C3762 1.428 . S
H3757 C3753 0.930 . S
H3758 C3755 0.929 . S
S3759 N3760 1.613 . S
S3759 N3761 1.610 . S
N3760 S3759 1.613 . S
N3760 C3763 1.350 . S
N3761 S3759 1.610 . S
N3761 C3762 1.351 . S
C3762 C3756 1.428 . S
C3762 N3761 1.351 . S
C3762 C3763 1.434 . S
C3763 C3754 1.429 . S
C3763 N3760 1.350 . S
C3763 C3762 1.434 . S
C3764 C3765 1.369 . S
C3764 C3766 1.419 . S
C3764 H3768 0.930 . S
C3765 C3764 1.369 . S
C3765 C3774 1.429 . S
C3766 C3764 1.419 . S
C3766 C3767 1.363 . S
C3766 H3769 0.929 . S
C3767 C3766 1.363 . S
C3767 C3773 1.428 . S
H3768 C3764 0.930 . S
H3769 C3766 0.929 . S
S3770 N3771 1.613 . S
S3770 N3772 1.610 . S
N3771 S3770 1.613 . S
N3771 C3774 1.350 . S
N3772 S3770 1.610 . S
N3772 C3773 1.351 . S
C3773 C3767 1.428 . S
C3773 N3772 1.351 . S
C3773 C3774 1.434 . S
C3774 C3765 1.429 . S
C3774 N3771 1.350 . S
C3774 C3773 1.434 . S
C3775 C3776 1.369 . S
C3775 C3777 1.419 . S
C3775 H3779 0.930 . S
C3776 C3775 1.369 . S
C3776 C3785 1.429 . S
C3777 C3775 1.419 . S
C3777 C3778 1.363 . S
C3777 H3780 0.929 . S
C3778 C3777 1.363 . S
C3778 C3784 1.428 . S
H3779 C3775 0.930 . S
H3780 C3777 0.929 . S
S3781 N3782 1.613 . S
S3781 N3783 1.610 . S
N3782 S3781 1.613 . S
N3782 C3785 1.350 . S
N3783 S3781 1.610 . S
N3783 C3784 1.351 . S
C3784 C3778 1.428 . S
C3784 N3783 1.351 . S
C3784 C3785 1.434 . S
C3785 C3776 1.429 . S
C3785 N3782 1.350 . S
C3785 C3784 1.434 . S
C3786 C3787 1.369 . S
C3786 C3788 1.419 . S
C3786 H3790 0.930 . S
C3787 C3786 1.369 . S
C3787 C3796 1.429 . S
C3788 C3786 1.419 . S
C3788 C3789 1.363 . S
C3788 H3791 0.929 . S
C3789 C3788 1.363 . S
C3789 C3795 1.428 . S
H3790 C3786 0.930 . S
H3791 C3788 0.929 . S
S3792 N3793 1.613 . S
S3792 N3794 1.610 . S
N3793 S3792 1.613 . S
N3793 C3796 1.350 . S
N3794 S3792 1.610 . S
N3794 C3795 1.351 . S
C3795 C3789 1.428 . S
C3795 N3794 1.351 . S
C3795 C3796 1.434 . S
C3796 C3787 1.429 . S
C3796 N3793 1.350 . S
C3796 C3795 1.434 . S
C3797 C3798 1.369 . S
C3797 C3799 1.419 . S
C3797 H3801 0.930 . S
C3798 C3797 1.369 . S
C3798 C3807 1.429 . S
C3799 C3797 1.419 . S
C3799 C3800 1.363 . S
C3799 H3802 0.929 . S
C3800 C3799 1.363 . S
C3800 C3806 1.428 . S
H3801 C3797 0.930 . S
H3802 C3799 0.929 . S
S3803 N3804 1.613 . S
S3803 N3805 1.610 . S
N3804 S3803 1.613 . S
N3804 C3807 1.350 . S
N3805 S3803 1.610 . S
N3805 C3806 1.351 . S
C3806 C3800 1.428 . S
C3806 N3805 1.351 . S
C3806 C3807 1.434 . S
C3807 C3798 1.429 . S
C3807 N3804 1.350 . S
C3807 C3806 1.434 . S
C3808 C3809 1.369 . S
C3808 C3810 1.419 . S
C3808 H3812 0.930 . S
C3809 C3808 1.369 . S
C3809 C3818 1.429 . S
C3810 C3808 1.419 . S
C3810 C3811 1.363 . S
C3810 H3813 0.929 . S
C3811 C3810 1.363 . S
C3811 C3817 1.428 . S
H3812 C3808 0.930 . S
H3813 C3810 0.929 . S
S3814 N3815 1.613 . S
S3814 N3816 1.610 . S
N3815 S3814 1.613 . S
N3815 C3818 1.350 . S
N3816 S3814 1.610 . S
N3816 C3817 1.351 . S
C3817 C3811 1.428 . S
C3817 N3816 1.351 . S
C3817 C3818 1.434 . S
C3818 C3809 1.429 . S
C3818 N3815 1.350 . S
C3818 C3817 1.434 . S
C3819 C3820 1.369 . S
C3819 C3821 1.419 . S
C3819 H3823 0.930 . S
C3820 C3819 1.369 . S
C3820 C3829 1.429 . S
C3821 C3819 1.419 . S
C3821 C3822 1.363 . S
C3821 H3824 0.929 . S
C3822 C3821 1.363 . S
C3822 C3828 1.428 . S
H3823 C3819 0.930 . S
H3824 C3821 0.929 . S
S3825 N3826 1.613 . S
S3825 N3827 1.610 . S
N3826 S3825 1.613 . S
N3826 C3829 1.350 . S
N3827 S3825 1.610 . S
N3827 C3828 1.351 . S
C3828 C3822 1.428 . S
C3828 N3827 1.351 . S
C3828 C3829 1.434 . S
C3829 C3820 1.429 . S
C3829 N3826 1.350 . S
C3829 C3828 1.434 . S
C3830 C3831 1.369 . S
C3830 C3832 1.419 . S
C3830 H3834 0.930 . S
C3831 C3830 1.369 . S
C3831 C3840 1.429 . S
C3832 C3830 1.419 . S
C3832 C3833 1.363 . S
C3832 H3835 0.929 . S
C3833 C3832 1.363 . S
C3833 C3839 1.428 . S
H3834 C3830 0.930 . S
H3835 C3832 0.929 . S
S3836 N3837 1.613 . S
S3836 N3838 1.610 . S
N3837 S3836 1.613 . S
N3837 C3840 1.350 . S
N3838 S3836 1.610 . S
N3838 C3839 1.351 . S
C3839 C3833 1.428 . S
C3839 N3838 1.351 . S
C3839 C3840 1.434 . S
C3840 C3831 1.429 . S
C3840 N3837 1.350 . S
C3840 C3839 1.434 . S
C3841 C3842 1.369 . S
C3841 C3843 1.419 . S
C3841 H3845 0.930 . S
C3842 C3841 1.369 . S
C3842 C3851 1.429 . S
C3843 C3841 1.419 . S
C3843 C3844 1.363 . S
C3843 H3846 0.929 . S
C3844 C3843 1.363 . S
C3844 C3850 1.428 . S
H3845 C3841 0.930 . S
H3846 C3843 0.929 . S
S3847 N3848 1.613 . S
S3847 N3849 1.610 . S
N3848 S3847 1.613 . S
N3848 C3851 1.350 . S
N3849 S3847 1.610 . S
N3849 C3850 1.351 . S
C3850 C3844 1.428 . S
C3850 N3849 1.351 . S
C3850 C3851 1.434 . S
C3851 C3842 1.429 . S
C3851 N3848 1.350 . S
C3851 C3850 1.434 . S
C3852 C3853 1.369 . S
C3852 C3854 1.419 . S
C3852 H3856 0.930 . S
C3853 C3852 1.369 . S
C3853 C3862 1.429 . S
C3854 C3852 1.419 . S
C3854 C3855 1.363 . S
C3854 H3857 0.929 . S
C3855 C3854 1.363 . S
C3855 C3861 1.428 . S
H3856 C3852 0.930 . S
H3857 C3854 0.929 . S
S3858 N3859 1.613 . S
S3858 N3860 1.610 . S
N3859 S3858 1.613 . S
N3859 C3862 1.350 . S
N3860 S3858 1.610 . S
N3860 C3861 1.351 . S
C3861 C3855 1.428 . S
C3861 N3860 1.351 . S
C3861 C3862 1.434 . S
C3862 C3853 1.429 . S
C3862 N3859 1.350 . S
C3862 C3861 1.434 . S
C3863 C3864 1.369 . S
C3863 C3865 1.419 . S
C3863 H3867 0.930 . S
C3864 C3863 1.369 . S
C3864 C3873 1.429 . S
C3865 C3863 1.419 . S
C3865 C3866 1.363 . S
C3865 H3868 0.929 . S
C3866 C3865 1.363 . S
C3866 C3872 1.428 . S
H3867 C3863 0.930 . S
H3868 C3865 0.929 . S
S3869 N3870 1.613 . S
S3869 N3871 1.610 . S
N3870 S3869 1.613 . S
N3870 C3873 1.350 . S
N3871 S3869 1.610 . S
N3871 C3872 1.351 . S
C3872 C3866 1.428 . S
C3872 N3871 1.351 . S
C3872 C3873 1.434 . S
C3873 C3864 1.429 . S
C3873 N3870 1.350 . S
C3873 C3872 1.434 . S
C3874 C3875 1.369 . S
C3874 C3876 1.419 . S
C3874 H3878 0.930 . S
C3875 C3874 1.369 . S
C3875 C3884 1.429 . S
C3876 C3874 1.419 . S
C3876 C3877 1.363 . S
C3876 H3879 0.929 . S
C3877 C3876 1.363 . S
C3877 C3883 1.428 . S
H3878 C3874 0.930 . S
H3879 C3876 0.929 . S
S3880 N3881 1.613 . S
S3880 N3882 1.610 . S
N3881 S3880 1.613 . S
N3881 C3884 1.350 . S
N3882 S3880 1.610 . S
N3882 C3883 1.351 . S
C3883 C3877 1.428 . S
C3883 N3882 1.351 . S
C3883 C3884 1.434 . S
C3884 C3875 1.429 . S
C3884 N3881 1.350 . S
C3884 C3883 1.434 . S
C3885 C3886 1.369 . S
C3885 C3887 1.419 . S
C3885 H3889 0.930 . S
C3886 C3885 1.369 . S
C3886 C3895 1.429 . S
C3887 C3885 1.419 . S
C3887 C3888 1.363 . S
C3887 H3890 0.929 . S
C3888 C3887 1.363 . S
C3888 C3894 1.428 . S
H3889 C3885 0.930 . S
H3890 C3887 0.929 . S
S3891 N3892 1.613 . S
S3891 N3893 1.610 . S
N3892 S3891 1.613 . S
N3892 C3895 1.350 . S
N3893 S3891 1.610 . S
N3893 C3894 1.351 . S
C3894 C3888 1.428 . S
C3894 N3893 1.351 . S
C3894 C3895 1.434 . S
C3895 C3886 1.429 . S
C3895 N3892 1.350 . S
C3895 C3894 1.434 . S
C3896 C3897 1.369 . S
C3896 C3898 1.419 . S
C3896 H3900 0.930 . S
C3897 C3896 1.369 . S
C3897 C3906 1.429 . S
C3898 C3896 1.419 . S
C3898 C3899 1.363 . S
C3898 H3901 0.929 . S
C3899 C3898 1.363 . S
C3899 C3905 1.428 . S
H3900 C3896 0.930 . S
H3901 C3898 0.929 . S
S3902 N3903 1.613 . S
S3902 N3904 1.610 . S
N3903 S3902 1.613 . S
N3903 C3906 1.350 . S
N3904 S3902 1.610 . S
N3904 C3905 1.351 . S
C3905 C3899 1.428 . S
C3905 N3904 1.351 . S
C3905 C3906 1.434 . S
C3906 C3897 1.429 . S
C3906 N3903 1.350 . S
C3906 C3905 1.434 . S
C3907 C3908 1.369 . S
C3907 C3909 1.419 . S
C3907 H3911 0.930 . S
C3908 C3907 1.369 . S
C3908 C3917 1.429 . S
C3909 C3907 1.419 . S
C3909 C3910 1.363 . S
C3909 H3912 0.929 . S
C3910 C3909 1.363 . S
C3910 C3916 1.428 . S
H3911 C3907 0.930 . S
H3912 C3909 0.929 . S
S3913 N3914 1.613 . S
S3913 N3915 1.610 . S
N3914 S3913 1.613 . S
N3914 C3917 1.350 . S
N3915 S3913 1.610 . S
N3915 C3916 1.351 . S
C3916 C3910 1.428 . S
C3916 N3915 1.351 . S
C3916 C3917 1.434 . S
C3917 C3908 1.429 . S
C3917 N3914 1.350 . S
C3917 C3916 1.434 . S
C3918 C3919 1.369 . S
C3918 C3920 1.419 . S
C3918 H3922 0.930 . S
C3919 C3918 1.369 . S
C3919 C3928 1.429 . S
C3920 C3918 1.419 . S
C3920 C3921 1.363 . S
C3920 H3923 0.929 . S
C3921 C3920 1.363 . S
C3921 C3927 1.428 . S
H3922 C3918 0.930 . S
H3923 C3920 0.929 . S
S3924 N3925 1.613 . S
S3924 N3926 1.610 . S
N3925 S3924 1.613 . S
N3925 C3928 1.350 . S
N3926 S3924 1.610 . S
N3926 C3927 1.351 . S
C3927 C3921 1.428 . S
C3927 N3926 1.351 . S
C3927 C3928 1.434 . S
C3928 C3919 1.429 . S
C3928 N3925 1.350 . S
C3928 C3927 1.434 . S
C3929 C3930 1.369 . S
C3929 C3931 1.419 . S
C3929 H3933 0.930 . S
C3930 C3929 1.369 . S
C3930 C3939 1.429 . S
C3931 C3929 1.419 . S
C3931 C3932 1.363 . S
C3931 H3934 0.929 . S
C3932 C3931 1.363 . S
C3932 C3938 1.428 . S
H3933 C3929 0.930 . S
H3934 C3931 0.929 . S
S3935 N3936 1.613 . S
S3935 N3937 1.610 . S
N3936 S3935 1.613 . S
N3936 C3939 1.350 . S
N3937 S3935 1.610 . S
N3937 C3938 1.351 . S
C3938 C3932 1.428 . S
C3938 N3937 1.351 . S
C3938 C3939 1.434 . S
C3939 C3930 1.429 . S
C3939 N3936 1.350 . S
C3939 C3938 1.434 . S
C3940 C3941 1.369 . S
C3940 C3942 1.419 . S
C3940 H3944 0.930 . S
C3941 C3940 1.369 . S
C3941 C3950 1.429 . S
C3942 C3940 1.419 . S
C3942 C3943 1.363 . S
C3942 H3945 0.929 . S
C3943 C3942 1.363 . S
C3943 C3949 1.428 . S
H3944 C3940 0.930 . S
H3945 C3942 0.929 . S
S3946 N3947 1.613 . S
S3946 N3948 1.610 . S
N3947 S3946 1.613 . S
N3947 C3950 1.350 . S
N3948 S3946 1.610 . S
N3948 C3949 1.351 . S
C3949 C3943 1.428 . S
C3949 N3948 1.351 . S
C3949 C3950 1.434 . S
C3950 C3941 1.429 . S
C3950 N3947 1.350 . S
C3950 C3949 1.434 . S
C3951 C3952 1.369 . S
C3951 C3953 1.419 . S
C3951 H3955 0.930 . S
C3952 C3951 1.369 . S
C3952 C3961 1.429 . S
C3953 C3951 1.419 . S
C3953 C3954 1.363 . S
C3953 H3956 0.929 . S
C3954 C3953 1.363 . S
C3954 C3960 1.428 . S
H3955 C3951 0.930 . S
H3956 C3953 0.929 . S
S3957 N3958 1.613 . S
S3957 N3959 1.610 . S
N3958 S3957 1.613 . S
N3958 C3961 1.350 . S
N3959 S3957 1.610 . S
N3959 C3960 1.351 . S
C3960 C3954 1.428 . S
C3960 N3959 1.351 . S
C3960 C3961 1.434 . S
C3961 C3952 1.429 . S
C3961 N3958 1.350 . S
C3961 C3960 1.434 . S
C3962 C3963 1.369 . S
C3962 C3964 1.419 . S
C3962 H3966 0.930 . S
C3963 C3962 1.369 . S
C3963 C3972 1.429 . S
C3964 C3962 1.419 . S
C3964 C3965 1.363 . S
C3964 H3967 0.929 . S
C3965 C3964 1.363 . S
C3965 C3971 1.428 . S
H3966 C3962 0.930 . S
H3967 C3964 0.929 . S
S3968 N3969 1.613 . S
S3968 N3970 1.610 . S
N3969 S3968 1.613 . S
N3969 C3972 1.350 . S
N3970 S3968 1.610 . S
N3970 C3971 1.351 . S
C3971 C3965 1.428 . S
C3971 N3970 1.351 . S
C3971 C3972 1.434 . S
C3972 C3963 1.429 . S
C3972 N3969 1.350 . S
C3972 C3971 1.434 . S
C3973 C3974 1.369 . S
C3973 C3975 1.419 . S
C3973 H3977 0.930 . S
C3974 C3973 1.369 . S
C3974 C3983 1.429 . S
C3975 C3973 1.419 . S
C3975 C3976 1.363 . S
C3975 H3978 0.929 . S
C3976 C3975 1.363 . S
C3976 C3982 1.428 . S
H3977 C3973 0.930 . S
H3978 C3975 0.929 . S
S3979 N3980 1.613 . S
S3979 N3981 1.610 . S
N3980 S3979 1.613 . S
N3980 C3983 1.350 . S
N3981 S3979 1.610 . S
N3981 C3982 1.351 . S
C3982 C3976 1.428 . S
C3982 N3981 1.351 . S
C3982 C3983 1.434 . S
C3983 C3974 1.429 . S
C3983 N3980 1.350 . S
C3983 C3982 1.434 . S
C3984 C3985 1.369 . S
C3984 C3986 1.419 . S
C3984 H3988 0.930 . S
C3985 C3984 1.369 . S
C3985 C3994 1.429 . S
C3986 C3984 1.419 . S
C3986 C3987 1.363 . S
C3986 H3989 0.929 . S
C3987 C3986 1.363 . S
C3987 C3993 1.428 . S
H3988 C3984 0.930 . S
H3989 C3986 0.929 . S
S3990 N3991 1.613 . S
S3990 N3992 1.610 . S
N3991 S3990 1.613 . S
N3991 C3994 1.350 . S
N3992 S3990 1.610 . S
N3992 C3993 1.351 . S
C3993 C3987 1.428 . S
C3993 N3992 1.351 . S
C3993 C3994 1.434 . S
C3994 C3985 1.429 . S
C3994 N3991 1.350 . S
C3994 C3993 1.434 . S
C3995 C3996 1.369 . S
C3995 C3997 1.419 . S
C3995 H3999 0.930 . S
C3996 C3995 1.369 . S
C3996 C4005 1.429 . S
C3997 C3995 1.419 . S
C3997 C3998 1.363 . S
C3997 H4000 0.929 . S
C3998 C3997 1.363 . S
C3998 C4004 1.428 . S
H3999 C3995 0.930 . S
H4000 C3997 0.929 . S
S4001 N4002 1.613 . S
S4001 N4003 1.610 . S
N4002 S4001 1.613 . S
N4002 C4005 1.350 . S
N4003 S4001 1.610 . S
N4003 C4004 1.351 . S
C4004 C3998 1.428 . S
C4004 N4003 1.351 . S
C4004 C4005 1.434 . S
C4005 C3996 1.429 . S
C4005 N4002 1.350 . S
C4005 C4004 1.434 . S
C4006 C4007 1.369 . S
C4006 C4008 1.419 . S
C4006 H4010 0.930 . S
C4007 C4006 1.369 . S
C4007 C4016 1.429 . S
C4008 C4006 1.419 . S
C4008 C4009 1.363 . S
C4008 H4011 0.929 . S
C4009 C4008 1.363 . S
C4009 C4015 1.428 . S
H4010 C4006 0.930 . S
H4011 C4008 0.929 . S
S4012 N4013 1.613 . S
S4012 N4014 1.610 . S
N4013 S4012 1.613 . S
N4013 C4016 1.350 . S
N4014 S4012 1.610 . S
N4014 C4015 1.351 . S
C4015 C4009 1.428 . S
C4015 N4014 1.351 . S
C4015 C4016 1.434 . S
C4016 C4007 1.429 . S
C4016 N4013 1.350 . S
C4016 C4015 1.434 . S
C4017 C4018 1.369 . S
C4017 C4019 1.419 . S
C4017 H4021 0.930 . S
C4018 C4017 1.369 . S
C4018 C4027 1.429 . S
C4019 C4017 1.419 . S
C4019 C4020 1.363 . S
C4019 H4022 0.929 . S
C4020 C4019 1.363 . S
C4020 C4026 1.428 . S
H4021 C4017 0.930 . S
H4022 C4019 0.929 . S
S4023 N4024 1.613 . S
S4023 N4025 1.610 . S
N4024 S4023 1.613 . S
N4024 C4027 1.350 . S
N4025 S4023 1.610 . S
N4025 C4026 1.351 . S
C4026 C4020 1.428 . S
C4026 N4025 1.351 . S
C4026 C4027 1.434 . S
C4027 C4018 1.429 . S
C4027 N4024 1.350 . S
C4027 C4026 1.434 . S
C4028 C4029 1.369 . S
C4028 C4030 1.419 . S
C4028 H4032 0.930 . S
C4029 C4028 1.369 . S
C4029 C4038 1.429 . S
C4030 C4028 1.419 . S
C4030 C4031 1.363 . S
C4030 H4033 0.929 . S
C4031 C4030 1.363 . S
C4031 C4037 1.428 . S
H4032 C4028 0.930 . S
H4033 C4030 0.929 . S
S4034 N4035 1.613 . S
S4034 N4036 1.610 . S
N4035 S4034 1.613 . S
N4035 C4038 1.350 . S
N4036 S4034 1.610 . S
N4036 C4037 1.351 . S
C4037 C4031 1.428 . S
C4037 N4036 1.351 . S
C4037 C4038 1.434 . S
C4038 C4029 1.429 . S
C4038 N4035 1.350 . S
C4038 C4037 1.434 . S
C4039 C4040 1.369 . S
C4039 C4041 1.419 . S
C4039 H4043 0.930 . S
C4040 C4039 1.369 . S
C4040 C4049 1.429 . S
C4041 C4039 1.419 . S
C4041 C4042 1.363 . S
C4041 H4044 0.929 . S
C4042 C4041 1.363 . S
C4042 C4048 1.428 . S
H4043 C4039 0.930 . S
H4044 C4041 0.929 . S
S4045 N4046 1.613 . S
S4045 N4047 1.610 . S
N4046 S4045 1.613 . S
N4046 C4049 1.350 . S
N4047 S4045 1.610 . S
N4047 C4048 1.351 . S
C4048 C4042 1.428 . S
C4048 N4047 1.351 . S
C4048 C4049 1.434 . S
C4049 C4040 1.429 . S
C4049 N4046 1.350 . S
C4049 C4048 1.434 . S
C4050 C4051 1.369 . S
C4050 C4052 1.419 . S
C4050 H4054 0.930 . S
C4051 C4050 1.369 . S
C4051 C4060 1.429 . S
C4052 C4050 1.419 . S
C4052 C4053 1.363 . S
C4052 H4055 0.929 . S
C4053 C4052 1.363 . S
C4053 C4059 1.428 . S
H4054 C4050 0.930 . S
H4055 C4052 0.929 . S
S4056 N4057 1.613 . S
S4056 N4058 1.610 . S
N4057 S4056 1.613 . S
N4057 C4060 1.350 . S
N4058 S4056 1.610 . S
N4058 C4059 1.351 . S
C4059 C4053 1.428 . S
C4059 N4058 1.351 . S
C4059 C4060 1.434 . S
C4060 C4051 1.429 . S
C4060 N4057 1.350 . S
C4060 C4059 1.434 . S
C4061 C4062 1.369 . S
C4061 C4063 1.419 . S
C4061 H4065 0.930 . S
C4062 C4061 1.369 . S
C4062 C4071 1.429 . S
C4063 C4061 1.419 . S
C4063 C4064 1.363 . S
C4063 H4066 0.929 . S
C4064 C4063 1.363 . S
C4064 C4070 1.428 . S
H4065 C4061 0.930 . S
H4066 C4063 0.929 . S
S4067 N4068 1.613 . S
S4067 N4069 1.610 . S
N4068 S4067 1.613 . S
N4068 C4071 1.350 . S
N4069 S4067 1.610 . S
N4069 C4070 1.351 . S
C4070 C4064 1.428 . S
C4070 N4069 1.351 . S
C4070 C4071 1.434 . S
C4071 C4062 1.429 . S
C4071 N4068 1.350 . S
C4071 C4070 1.434 . S
C4072 C4073 1.369 . S
C4072 C4074 1.419 . S
C4072 H4076 0.930 . S
C4073 C4072 1.369 . S
C4073 C4082 1.429 . S
C4074 C4072 1.419 . S
C4074 C4075 1.363 . S
C4074 H4077 0.929 . S
C4075 C4074 1.363 . S
C4075 C4081 1.428 . S
H4076 C4072 0.930 . S
H4077 C4074 0.929 . S
S4078 N4079 1.613 . S
S4078 N4080 1.610 . S
N4079 S4078 1.613 . S
N4079 C4082 1.350 . S
N4080 S4078 1.610 . S
N4080 C4081 1.351 . S
C4081 C4075 1.428 . S
C4081 N4080 1.351 . S
C4081 C4082 1.434 . S
C4082 C4073 1.429 . S
C4082 N4079 1.350 . S
C4082 C4081 1.434 . S
C4083 C4084 1.369 . S
C4083 C4085 1.419 . S
C4083 H4087 0.930 . S
C4084 C4083 1.369 . S
C4084 C4093 1.429 . S
C4085 C4083 1.419 . S
C4085 C4086 1.363 . S
C4085 H4088 0.929 . S
C4086 C4085 1.363 . S
C4086 C4092 1.428 . S
H4087 C4083 0.930 . S
H4088 C4085 0.929 . S
S4089 N4090 1.613 . S
S4089 N4091 1.610 . S
N4090 S4089 1.613 . S
N4090 C4093 1.350 . S
N4091 S4089 1.610 . S
N4091 C4092 1.351 . S
C4092 C4086 1.428 . S
C4092 N4091 1.351 . S
C4092 C4093 1.434 . S
C4093 C4084 1.429 . S
C4093 N4090 1.350 . S
C4093 C4092 1.434 . S
C4094 C4095 1.369 . S
C4094 C4096 1.419 . S
C4094 H4098 0.930 . S
C4095 C4094 1.369 . S
C4095 C4104 1.429 . S
C4096 C4094 1.419 . S
C4096 C4097 1.363 . S
C4096 H4099 0.929 . S
C4097 C4096 1.363 . S
C4097 C4103 1.428 . S
H4098 C4094 0.930 . S
H4099 C4096 0.929 . S
S4100 N4101 1.613 . S
S4100 N4102 1.610 . S
N4101 S4100 1.613 . S
N4101 C4104 1.350 . S
N4102 S4100 1.610 . S
N4102 C4103 1.351 . S
C4103 C4097 1.428 . S
C4103 N4102 1.351 . S
C4103 C4104 1.434 . S
C4104 C4095 1.429 . S
C4104 N4101 1.350 . S
C4104 C4103 1.434 . S
C4105 C4106 1.369 . S
C4105 C4107 1.419 . S
C4105 H4109 0.930 . S
C4106 C4105 1.369 . S
C4106 C4115 1.429 . S
C4107 C4105 1.419 . S
C4107 C4108 1.363 . S
C4107 H4110 0.929 . S
C4108 C4107 1.363 . S
C4108 C4114 1.428 . S
H4109 C4105 0.930 . S
H4110 C4107 0.929 . S
S4111 N4112 1.613 . S
S4111 N4113 1.610 . S
N4112 S4111 1.613 . S
N4112 C4115 1.350 . S
N4113 S4111 1.610 . S
N4113 C4114 1.351 . S
C4114 C4108 1.428 . S
C4114 N4113 1.351 . S
C4114 C4115 1.434 . S
C4115 C4106 1.429 . S
C4115 N4112 1.350 . S
C4115 C4114 1.434 . S
C4116 C4117 1.369 . S
C4116 C4118 1.419 . S
C4116 H4120 0.930 . S
C4117 C4116 1.369 . S
C4117 C4126 1.429 . S
C4118 C4116 1.419 . S
C4118 C4119 1.363 . S
C4118 H4121 0.929 . S
C4119 C4118 1.363 . S
C4119 C4125 1.428 . S
H4120 C4116 0.930 . S
H4121 C4118 0.929 . S
S4122 N4123 1.613 . S
S4122 N4124 1.610 . S
N4123 S4122 1.613 . S
N4123 C4126 1.350 . S
N4124 S4122 1.610 . S
N4124 C4125 1.351 . S
C4125 C4119 1.428 . S
C4125 N4124 1.351 . S
C4125 C4126 1.434 . S
C4126 C4117 1.429 . S
C4126 N4123 1.350 . S
C4126 C4125 1.434 . S
C4127 C4128 1.369 . S
C4127 C4129 1.419 . S
C4127 H4131 0.930 . S
C4128 C4127 1.369 . S
C4128 C4137 1.429 . S
C4129 C4127 1.419 . S
C4129 C4130 1.363 . S
C4129 H4132 0.929 . S
C4130 C4129 1.363 . S
C4130 C4136 1.428 . S
H4131 C4127 0.930 . S
H4132 C4129 0.929 . S
S4133 N4134 1.613 . S
S4133 N4135 1.610 . S
N4134 S4133 1.613 . S
N4134 C4137 1.350 . S
N4135 S4133 1.610 . S
N4135 C4136 1.351 . S
C4136 C4130 1.428 . S
C4136 N4135 1.351 . S
C4136 C4137 1.434 . S
C4137 C4128 1.429 . S
C4137 N4134 1.350 . S
C4137 C4136 1.434 . S
C4138 C4139 1.369 . S
C4138 C4140 1.419 . S
C4138 H4142 0.930 . S
C4139 C4138 1.369 . S
C4139 C4148 1.429 . S
C4140 C4138 1.419 . S
C4140 C4141 1.363 . S
C4140 H4143 0.929 . S
C4141 C4140 1.363 . S
C4141 C4147 1.428 . S
H4142 C4138 0.930 . S
H4143 C4140 0.929 . S
S4144 N4145 1.613 . S
S4144 N4146 1.610 . S
N4145 S4144 1.613 . S
N4145 C4148 1.350 . S
N4146 S4144 1.610 . S
N4146 C4147 1.351 . S
C4147 C4141 1.428 . S
C4147 N4146 1.351 . S
C4147 C4148 1.434 . S
C4148 C4139 1.429 . S
C4148 N4145 1.350 . S
C4148 C4147 1.434 . S
C4149 C4150 1.369 . S
C4149 C4151 1.419 . S
C4149 H4153 0.930 . S
C4150 C4149 1.369 . S
C4150 C4159 1.429 . S
C4151 C4149 1.419 . S
C4151 C4152 1.363 . S
C4151 H4154 0.929 . S
C4152 C4151 1.363 . S
C4152 C4158 1.428 . S
H4153 C4149 0.930 . S
H4154 C4151 0.929 . S
S4155 N4156 1.613 . S
S4155 N4157 1.610 . S
N4156 S4155 1.613 . S
N4156 C4159 1.350 . S
N4157 S4155 1.610 . S
N4157 C4158 1.351 . S
C4158 C4152 1.428 . S
C4158 N4157 1.351 . S
C4158 C4159 1.434 . S
C4159 C4150 1.429 . S
C4159 N4156 1.350 . S
C4159 C4158 1.434 . S
C4160 C4161 1.369 . S
C4160 C4162 1.419 . S
C4160 H4164 0.930 . S
C4161 C4160 1.369 . S
C4161 C4170 1.429 . S
C4162 C4160 1.419 . S
C4162 C4163 1.363 . S
C4162 H4165 0.929 . S
C4163 C4162 1.363 . S
C4163 C4169 1.428 . S
H4164 C4160 0.930 . S
H4165 C4162 0.929 . S
S4166 N4167 1.613 . S
S4166 N4168 1.610 . S
N4167 S4166 1.613 . S
N4167 C4170 1.350 . S
N4168 S4166 1.610 . S
N4168 C4169 1.351 . S
C4169 C4163 1.428 . S
C4169 N4168 1.351 . S
C4169 C4170 1.434 . S
C4170 C4161 1.429 . S
C4170 N4167 1.350 . S
C4170 C4169 1.434 . S
C4171 C4172 1.369 . S
C4171 C4173 1.419 . S
C4171 H4175 0.930 . S
C4172 C4171 1.369 . S
C4172 C4181 1.429 . S
C4173 C4171 1.419 . S
C4173 C4174 1.363 . S
C4173 H4176 0.929 . S
C4174 C4173 1.363 . S
C4174 C4180 1.428 . S
H4175 C4171 0.930 . S
H4176 C4173 0.929 . S
S4177 N4178 1.613 . S
S4177 N4179 1.610 . S
N4178 S4177 1.613 . S
N4178 C4181 1.350 . S
N4179 S4177 1.610 . S
N4179 C4180 1.351 . S
C4180 C4174 1.428 . S
C4180 N4179 1.351 . S
C4180 C4181 1.434 . S
C4181 C4172 1.429 . S
C4181 N4178 1.350 . S
C4181 C4180 1.434 . S
C4182 C4183 1.369 . S
C4182 C4184 1.419 . S
C4182 H4186 0.930 . S
C4183 C4182 1.369 . S
C4183 C4192 1.429 . S
C4184 C4182 1.419 . S
C4184 C4185 1.363 . S
C4184 H4187 0.929 . S
C4185 C4184 1.363 . S
C4185 C4191 1.428 . S
H4186 C4182 0.930 . S
H4187 C4184 0.929 . S
S4188 N4189 1.613 . S
S4188 N4190 1.610 . S
N4189 S4188 1.613 . S
N4189 C4192 1.350 . S
N4190 S4188 1.610 . S
N4190 C4191 1.351 . S
C4191 C4185 1.428 . S
C4191 N4190 1.351 . S
C4191 C4192 1.434 . S
C4192 C4183 1.429 . S
C4192 N4189 1.350 . S
C4192 C4191 1.434 . S
C4193 C4194 1.369 . S
C4193 C4195 1.419 . S
C4193 H4197 0.930 . S
C4194 C4193 1.369 . S
C4194 C4203 1.429 . S
C4195 C4193 1.419 . S
C4195 C4196 1.363 . S
C4195 H4198 0.929 . S
C4196 C4195 1.363 . S
C4196 C4202 1.428 . S
H4197 C4193 0.930 . S
H4198 C4195 0.929 . S
S4199 N4200 1.613 . S
S4199 N4201 1.610 . S
N4200 S4199 1.613 . S
N4200 C4203 1.350 . S
N4201 S4199 1.610 . S
N4201 C4202 1.351 . S
C4202 C4196 1.428 . S
C4202 N4201 1.351 . S
C4202 C4203 1.434 . S
C4203 C4194 1.429 . S
C4203 N4200 1.350 . S
C4203 C4202 1.434 . S
C4204 C4205 1.369 . S
C4204 C4206 1.419 . S
C4204 H4208 0.930 . S
C4205 C4204 1.369 . S
C4205 C4214 1.429 . S
C4206 C4204 1.419 . S
C4206 C4207 1.363 . S
C4206 H4209 0.929 . S
C4207 C4206 1.363 . S
C4207 C4213 1.428 . S
H4208 C4204 0.930 . S
H4209 C4206 0.929 . S
S4210 N4211 1.613 . S
S4210 N4212 1.610 . S
N4211 S4210 1.613 . S
N4211 C4214 1.350 . S
N4212 S4210 1.610 . S
N4212 C4213 1.351 . S
C4213 C4207 1.428 . S
C4213 N4212 1.351 . S
C4213 C4214 1.434 . S
C4214 C4205 1.429 . S
C4214 N4211 1.350 . S
C4214 C4213 1.434 . S
C4215 C4216 1.369 . S
C4215 C4217 1.419 . S
C4215 H4219 0.930 . S
C4216 C4215 1.369 . S
C4216 C4225 1.429 . S
C4217 C4215 1.419 . S
C4217 C4218 1.363 . S
C4217 H4220 0.929 . S
C4218 C4217 1.363 . S
C4218 C4224 1.428 . S
H4219 C4215 0.930 . S
H4220 C4217 0.929 . S
S4221 N4222 1.613 . S
S4221 N4223 1.610 . S
N4222 S4221 1.613 . S
N4222 C4225 1.350 . S
N4223 S4221 1.610 . S
N4223 C4224 1.351 . S
C4224 C4218 1.428 . S
C4224 N4223 1.351 . S
C4224 C4225 1.434 . S
C4225 C4216 1.429 . S
C4225 N4222 1.350 . S
C4225 C4224 1.434 . S
C4226 C4227 1.369 . S
C4226 C4228 1.419 . S
C4226 H4230 0.930 . S
C4227 C4226 1.369 . S
C4227 C4236 1.429 . S
C4228 C4226 1.419 . S
C4228 C4229 1.363 . S
C4228 H4231 0.929 . S
C4229 C4228 1.363 . S
C4229 C4235 1.428 . S
H4230 C4226 0.930 . S
H4231 C4228 0.929 . S
S4232 N4233 1.613 . S
S4232 N4234 1.610 . S
N4233 S4232 1.613 . S
N4233 C4236 1.350 . S
N4234 S4232 1.610 . S
N4234 C4235 1.351 . S
C4235 C4229 1.428 . S
C4235 N4234 1.351 . S
C4235 C4236 1.434 . S
C4236 C4227 1.429 . S
C4236 N4233 1.350 . S
C4236 C4235 1.434 . S
C4237 C4238 1.369 . S
C4237 C4239 1.419 . S
C4237 H4241 0.930 . S
C4238 C4237 1.369 . S
C4238 C4247 1.429 . S
C4239 C4237 1.419 . S
C4239 C4240 1.363 . S
C4239 H4242 0.929 . S
C4240 C4239 1.363 . S
C4240 C4246 1.428 . S
H4241 C4237 0.930 . S
H4242 C4239 0.929 . S
S4243 N4244 1.613 . S
S4243 N4245 1.610 . S
N4244 S4243 1.613 . S
N4244 C4247 1.350 . S
N4245 S4243 1.610 . S
N4245 C4246 1.351 . S
C4246 C4240 1.428 . S
C4246 N4245 1.351 . S
C4246 C4247 1.434 . S
C4247 C4238 1.429 . S
C4247 N4244 1.350 . S
C4247 C4246 1.434 . S
C4248 C4249 1.369 . S
C4248 C4250 1.419 . S
C4248 H4252 0.930 . S
C4249 C4248 1.369 . S
C4249 C4258 1.429 . S
C4250 C4248 1.419 . S
C4250 C4251 1.363 . S
C4250 H4253 0.929 . S
C4251 C4250 1.363 . S
C4251 C4257 1.428 . S
H4252 C4248 0.930 . S
H4253 C4250 0.929 . S
S4254 N4255 1.613 . S
S4254 N4256 1.610 . S
N4255 S4254 1.613 . S
N4255 C4258 1.350 . S
N4256 S4254 1.610 . S
N4256 C4257 1.351 . S
C4257 C4251 1.428 . S
C4257 N4256 1.351 . S
C4257 C4258 1.434 . S
C4258 C4249 1.429 . S
C4258 N4255 1.350 . S
C4258 C4257 1.434 . S
C4259 C4260 1.369 . S
C4259 C4261 1.419 . S
C4259 H4263 0.930 . S
C4260 C4259 1.369 . S
C4260 C4269 1.429 . S
C4261 C4259 1.419 . S
C4261 C4262 1.363 . S
C4261 H4264 0.929 . S
C4262 C4261 1.363 . S
C4262 C4268 1.428 . S
H4263 C4259 0.930 . S
H4264 C4261 0.929 . S
S4265 N4266 1.613 . S
S4265 N4267 1.610 . S
N4266 S4265 1.613 . S
N4266 C4269 1.350 . S
N4267 S4265 1.610 . S
N4267 C4268 1.351 . S
C4268 C4262 1.428 . S
C4268 N4267 1.351 . S
C4268 C4269 1.434 . S
C4269 C4260 1.429 . S
C4269 N4266 1.350 . S
C4269 C4268 1.434 . S
C4270 C4271 1.369 . S
C4270 C4272 1.419 . S
C4270 H4274 0.930 . S
C4271 C4270 1.369 . S
C4271 C4280 1.429 . S
C4272 C4270 1.419 . S
C4272 C4273 1.363 . S
C4272 H4275 0.929 . S
C4273 C4272 1.363 . S
C4273 C4279 1.428 . S
H4274 C4270 0.930 . S
H4275 C4272 0.929 . S
S4276 N4277 1.613 . S
S4276 N4278 1.610 . S
N4277 S4276 1.613 . S
N4277 C4280 1.350 . S
N4278 S4276 1.610 . S
N4278 C4279 1.351 . S
C4279 C4273 1.428 . S
C4279 N4278 1.351 . S
C4279 C4280 1.434 . S
C4280 C4271 1.429 . S
C4280 N4277 1.350 . S
C4280 C4279 1.434 . S
C4281 C4282 1.369 . S
C4281 C4283 1.419 . S
C4281 H4285 0.930 . S
C4282 C4281 1.369 . S
C4282 C4291 1.429 . S
C4283 C4281 1.419 . S
C4283 C4284 1.363 . S
C4283 H4286 0.929 . S
C4284 C4283 1.363 . S
C4284 C4290 1.428 . S
H4285 C4281 0.930 . S
H4286 C4283 0.929 . S
S4287 N4288 1.613 . S
S4287 N4289 1.610 . S
N4288 S4287 1.613 . S
N4288 C4291 1.350 . S
N4289 S4287 1.610 . S
N4289 C4290 1.351 . S
C4290 C4284 1.428 . S
C4290 N4289 1.351 . S
C4290 C4291 1.434 . S
C4291 C4282 1.429 . S
C4291 N4288 1.350 . S
C4291 C4290 1.434 . S
C4292 C4293 1.369 . S
C4292 C4294 1.419 . S
C4292 H4296 0.930 . S
C4293 C4292 1.369 . S
C4293 C4302 1.429 . S
C4294 C4292 1.419 . S
C4294 C4295 1.363 . S
C4294 H4297 0.929 . S
C4295 C4294 1.363 . S
C4295 C4301 1.428 . S
H4296 C4292 0.930 . S
H4297 C4294 0.929 . S
S4298 N4299 1.613 . S
S4298 N4300 1.610 . S
N4299 S4298 1.613 . S
N4299 C4302 1.350 . S
N4300 S4298 1.610 . S
N4300 C4301 1.351 . S
C4301 C4295 1.428 . S
C4301 N4300 1.351 . S
C4301 C4302 1.434 . S
C4302 C4293 1.429 . S
C4302 N4299 1.350 . S
C4302 C4301 1.434 . S
C4303 C4304 1.369 . S
C4303 C4305 1.419 . S
C4303 H4307 0.930 . S
C4304 C4303 1.369 . S
C4304 C4313 1.429 . S
C4305 C4303 1.419 . S
C4305 C4306 1.363 . S
C4305 H4308 0.929 . S
C4306 C4305 1.363 . S
C4306 C4312 1.428 . S
H4307 C4303 0.930 . S
H4308 C4305 0.929 . S
S4309 N4310 1.613 . S
S4309 N4311 1.610 . S
N4310 S4309 1.613 . S
N4310 C4313 1.350 . S
N4311 S4309 1.610 . S
N4311 C4312 1.351 . S
C4312 C4306 1.428 . S
C4312 N4311 1.351 . S
C4312 C4313 1.434 . S
C4313 C4304 1.429 . S
C4313 N4310 1.350 . S
C4313 C4312 1.434 . S
C4314 C4315 1.369 . S
C4314 C4316 1.419 . S
C4314 H4318 0.930 . S
C4315 C4314 1.369 . S
C4315 C4324 1.429 . S
C4316 C4314 1.419 . S
C4316 C4317 1.363 . S
C4316 H4319 0.929 . S
C4317 C4316 1.363 . S
C4317 C4323 1.428 . S
H4318 C4314 0.930 . S
H4319 C4316 0.929 . S
S4320 N4321 1.613 . S
S4320 N4322 1.610 . S
N4321 S4320 1.613 . S
N4321 C4324 1.350 . S
N4322 S4320 1.610 . S
N4322 C4323 1.351 . S
C4323 C4317 1.428 . S
C4323 N4322 1.351 . S
C4323 C4324 1.434 . S
C4324 C4315 1.429 . S
C4324 N4321 1.350 . S
C4324 C4323 1.434 . S
C4325 C4326 1.369 . S
C4325 C4327 1.419 . S
C4325 H4329 0.930 . S
C4326 C4325 1.369 . S
C4326 C4335 1.429 . S
C4327 C4325 1.419 . S
C4327 C4328 1.363 . S
C4327 H4330 0.929 . S
C4328 C4327 1.363 . S
C4328 C4334 1.428 . S
H4329 C4325 0.930 . S
H4330 C4327 0.929 . S
S4331 N4332 1.613 . S
S4331 N4333 1.610 . S
N4332 S4331 1.613 . S
N4332 C4335 1.350 . S
N4333 S4331 1.610 . S
N4333 C4334 1.351 . S
C4334 C4328 1.428 . S
C4334 N4333 1.351 . S
C4334 C4335 1.434 . S
C4335 C4326 1.429 . S
C4335 N4332 1.350 . S
C4335 C4334 1.434 . S
C4336 C4337 1.369 . S
C4336 C4338 1.419 . S
C4336 H4340 0.930 . S
C4337 C4336 1.369 . S
C4337 C4346 1.429 . S
C4338 C4336 1.419 . S
C4338 C4339 1.363 . S
C4338 H4341 0.929 . S
C4339 C4338 1.363 . S
C4339 C4345 1.428 . S
H4340 C4336 0.930 . S
H4341 C4338 0.929 . S
S4342 N4343 1.613 . S
S4342 N4344 1.610 . S
N4343 S4342 1.613 . S
N4343 C4346 1.350 . S
N4344 S4342 1.610 . S
N4344 C4345 1.351 . S
C4345 C4339 1.428 . S
C4345 N4344 1.351 . S
C4345 C4346 1.434 . S
C4346 C4337 1.429 . S
C4346 N4343 1.350 . S
C4346 C4345 1.434 . S
C4347 C4348 1.369 . S
C4347 C4349 1.419 . S
C4347 H4351 0.930 . S
C4348 C4347 1.369 . S
C4348 C4357 1.429 . S
C4349 C4347 1.419 . S
C4349 C4350 1.363 . S
C4349 H4352 0.929 . S
C4350 C4349 1.363 . S
C4350 C4356 1.428 . S
H4351 C4347 0.930 . S
H4352 C4349 0.929 . S
S4353 N4354 1.613 . S
S4353 N4355 1.610 . S
N4354 S4353 1.613 . S
N4354 C4357 1.350 . S
N4355 S4353 1.610 . S
N4355 C4356 1.351 . S
C4356 C4350 1.428 . S
C4356 N4355 1.351 . S
C4356 C4357 1.434 . S
C4357 C4348 1.429 . S
C4357 N4354 1.350 . S
C4357 C4356 1.434 . S
C4358 C4359 1.369 . S
C4358 C4360 1.419 . S
C4358 H4362 0.930 . S
C4359 C4358 1.369 . S
C4359 C4368 1.429 . S
C4360 C4358 1.419 . S
C4360 C4361 1.363 . S
C4360 H4363 0.929 . S
C4361 C4360 1.363 . S
C4361 C4367 1.428 . S
H4362 C4358 0.930 . S
H4363 C4360 0.929 . S
S4364 N4365 1.613 . S
S4364 N4366 1.610 . S
N4365 S4364 1.613 . S
N4365 C4368 1.350 . S
N4366 S4364 1.610 . S
N4366 C4367 1.351 . S
C4367 C4361 1.428 . S
C4367 N4366 1.351 . S
C4367 C4368 1.434 . S
C4368 C4359 1.429 . S
C4368 N4365 1.350 . S
C4368 C4367 1.434 . S
C4369 C4370 1.369 . S
C4369 C4371 1.419 . S
C4369 H4373 0.930 . S
C4370 C4369 1.369 . S
C4370 C4379 1.429 . S
C4371 C4369 1.419 . S
C4371 C4372 1.363 . S
C4371 H4374 0.929 . S
C4372 C4371 1.363 . S
C4372 C4378 1.428 . S
H4373 C4369 0.930 . S
H4374 C4371 0.929 . S
S4375 N4376 1.613 . S
S4375 N4377 1.610 . S
N4376 S4375 1.613 . S
N4376 C4379 1.350 . S
N4377 S4375 1.610 . S
N4377 C4378 1.351 . S
C4378 C4372 1.428 . S
C4378 N4377 1.351 . S
C4378 C4379 1.434 . S
C4379 C4370 1.429 . S
C4379 N4376 1.350 . S
C4379 C4378 1.434 . S
C4380 C4381 1.369 . S
C4380 C4382 1.419 . S
C4380 H4384 0.930 . S
C4381 C4380 1.369 . S
C4381 C4390 1.429 . S
C4382 C4380 1.419 . S
C4382 C4383 1.363 . S
C4382 H4385 0.929 . S
C4383 C4382 1.363 . S
C4383 C4389 1.428 . S
H4384 C4380 0.930 . S
H4385 C4382 0.929 . S
S4386 N4387 1.613 . S
S4386 N4388 1.610 . S
N4387 S4386 1.613 . S
N4387 C4390 1.350 . S
N4388 S4386 1.610 . S
N4388 C4389 1.351 . S
C4389 C4383 1.428 . S
C4389 N4388 1.351 . S
C4389 C4390 1.434 . S
C4390 C4381 1.429 . S
C4390 N4387 1.350 . S
C4390 C4389 1.434 . S
C4391 C4392 1.369 . S
C4391 C4393 1.419 . S
C4391 H4395 0.930 . S
C4392 C4391 1.369 . S
C4392 C4401 1.429 . S
C4393 C4391 1.419 . S
C4393 C4394 1.363 . S
C4393 H4396 0.929 . S
C4394 C4393 1.363 . S
C4394 C4400 1.428 . S
H4395 C4391 0.930 . S
H4396 C4393 0.929 . S
S4397 N4398 1.613 . S
S4397 N4399 1.610 . S
N4398 S4397 1.613 . S
N4398 C4401 1.350 . S
N4399 S4397 1.610 . S
N4399 C4400 1.351 . S
C4400 C4394 1.428 . S
C4400 N4399 1.351 . S
C4400 C4401 1.434 . S
C4401 C4392 1.429 . S
C4401 N4398 1.350 . S
C4401 C4400 1.434 . S
C4402 C4403 1.369 . S
C4402 C4404 1.419 . S
C4402 H4406 0.930 . S
C4403 C4402 1.369 . S
C4403 C4412 1.429 . S
C4404 C4402 1.419 . S
C4404 C4405 1.363 . S
C4404 H4407 0.929 . S
C4405 C4404 1.363 . S
C4405 C4411 1.428 . S
H4406 C4402 0.930 . S
H4407 C4404 0.929 . S
S4408 N4409 1.613 . S
S4408 N4410 1.610 . S
N4409 S4408 1.613 . S
N4409 C4412 1.350 . S
N4410 S4408 1.610 . S
N4410 C4411 1.351 . S
C4411 C4405 1.428 . S
C4411 N4410 1.351 . S
C4411 C4412 1.434 . S
C4412 C4403 1.429 . S
C4412 N4409 1.350 . S
C4412 C4411 1.434 . S
C4413 C4414 1.369 . S
C4413 C4415 1.419 . S
C4413 H4417 0.930 . S
C4414 C4413 1.369 . S
C4414 C4423 1.429 . S
C4415 C4413 1.419 . S
C4415 C4416 1.363 . S
C4415 H4418 0.929 . S
C4416 C4415 1.363 . S
C4416 C4422 1.428 . S
H4417 C4413 0.930 . S
H4418 C4415 0.929 . S
S4419 N4420 1.613 . S
S4419 N4421 1.610 . S
N4420 S4419 1.613 . S
N4420 C4423 1.350 . S
N4421 S4419 1.610 . S
N4421 C4422 1.351 . S
C4422 C4416 1.428 . S
C4422 N4421 1.351 . S
C4422 C4423 1.434 . S
C4423 C4414 1.429 . S
C4423 N4420 1.350 . S
C4423 C4422 1.434 . S
C4424 C4425 1.369 . S
C4424 C4426 1.419 . S
C4424 H4428 0.930 . S
C4425 C4424 1.369 . S
C4425 C4434 1.429 . S
C4426 C4424 1.419 . S
C4426 C4427 1.363 . S
C4426 H4429 0.929 . S
C4427 C4426 1.363 . S
C4427 C4433 1.428 . S
H4428 C4424 0.930 . S
H4429 C4426 0.929 . S
S4430 N4431 1.613 . S
S4430 N4432 1.610 . S
N4431 S4430 1.613 . S
N4431 C4434 1.350 . S
N4432 S4430 1.610 . S
N4432 C4433 1.351 . S
C4433 C4427 1.428 . S
C4433 N4432 1.351 . S
C4433 C4434 1.434 . S
C4434 C4425 1.429 . S
C4434 N4431 1.350 . S
C4434 C4433 1.434 . S
C4435 C4436 1.369 . S
C4435 C4437 1.419 . S
C4435 H4439 0.930 . S
C4436 C4435 1.369 . S
C4436 C4445 1.429 . S
C4437 C4435 1.419 . S
C4437 C4438 1.363 . S
C4437 H4440 0.929 . S
C4438 C4437 1.363 . S
C4438 C4444 1.428 . S
H4439 C4435 0.930 . S
H4440 C4437 0.929 . S
S4441 N4442 1.613 . S
S4441 N4443 1.610 . S
N4442 S4441 1.613 . S
N4442 C4445 1.350 . S
N4443 S4441 1.610 . S
N4443 C4444 1.351 . S
C4444 C4438 1.428 . S
C4444 N4443 1.351 . S
C4444 C4445 1.434 . S
C4445 C4436 1.429 . S
C4445 N4442 1.350 . S
C4445 C4444 1.434 . S
C4446 C4447 1.369 . S
C4446 C4448 1.419 . S
C4446 H4450 0.930 . S
C4447 C4446 1.369 . S
C4447 C4456 1.429 . S
C4448 C4446 1.419 . S
C4448 C4449 1.363 . S
C4448 H4451 0.929 . S
C4449 C4448 1.363 . S
C4449 C4455 1.428 . S
H4450 C4446 0.930 . S
H4451 C4448 0.929 . S
S4452 N4453 1.613 . S
S4452 N4454 1.610 . S
N4453 S4452 1.613 . S
N4453 C4456 1.350 . S
N4454 S4452 1.610 . S
N4454 C4455 1.351 . S
C4455 C4449 1.428 . S
C4455 N4454 1.351 . S
C4455 C4456 1.434 . S
C4456 C4447 1.429 . S
C4456 N4453 1.350 . S
C4456 C4455 1.434 . S
C4457 C4458 1.369 . S
C4457 C4459 1.419 . S
C4457 H4461 0.930 . S
C4458 C4457 1.369 . S
C4458 C4467 1.429 . S
C4459 C4457 1.419 . S
C4459 C4460 1.363 . S
C4459 H4462 0.929 . S
C4460 C4459 1.363 . S
C4460 C4466 1.428 . S
H4461 C4457 0.930 . S
H4462 C4459 0.929 . S
S4463 N4464 1.613 . S
S4463 N4465 1.610 . S
N4464 S4463 1.613 . S
N4464 C4467 1.350 . S
N4465 S4463 1.610 . S
N4465 C4466 1.351 . S
C4466 C4460 1.428 . S
C4466 N4465 1.351 . S
C4466 C4467 1.434 . S
C4467 C4458 1.429 . S
C4467 N4464 1.350 . S
C4467 C4466 1.434 . S
C4468 C4469 1.369 . S
C4468 C4470 1.419 . S
C4468 H4472 0.930 . S
C4469 C4468 1.369 . S
C4469 C4478 1.429 . S
C4470 C4468 1.419 . S
C4470 C4471 1.363 . S
C4470 H4473 0.929 . S
C4471 C4470 1.363 . S
C4471 C4477 1.428 . S
H4472 C4468 0.930 . S
H4473 C4470 0.929 . S
S4474 N4475 1.613 . S
S4474 N4476 1.610 . S
N4475 S4474 1.613 . S
N4475 C4478 1.350 . S
N4476 S4474 1.610 . S
N4476 C4477 1.351 . S
C4477 C4471 1.428 . S
C4477 N4476 1.351 . S
C4477 C4478 1.434 . S
C4478 C4469 1.429 . S
C4478 N4475 1.350 . S
C4478 C4477 1.434 . S
C4479 C4480 1.369 . S
C4479 C4481 1.419 . S
C4479 H4483 0.930 . S
C4480 C4479 1.369 . S
C4480 C4489 1.429 . S
C4481 C4479 1.419 . S
C4481 C4482 1.363 . S
C4481 H4484 0.929 . S
C4482 C4481 1.363 . S
C4482 C4488 1.428 . S
H4483 C4479 0.930 . S
H4484 C4481 0.929 . S
S4485 N4486 1.613 . S
S4485 N4487 1.610 . S
N4486 S4485 1.613 . S
N4486 C4489 1.350 . S
N4487 S4485 1.610 . S
N4487 C4488 1.351 . S
C4488 C4482 1.428 . S
C4488 N4487 1.351 . S
C4488 C4489 1.434 . S
C4489 C4480 1.429 . S
C4489 N4486 1.350 . S
C4489 C4488 1.434 . S
C4490 C4491 1.369 . S
C4490 C4492 1.419 . S
C4490 H4494 0.930 . S
C4491 C4490 1.369 . S
C4491 C4500 1.429 . S
C4492 C4490 1.419 . S
C4492 C4493 1.363 . S
C4492 H4495 0.929 . S
C4493 C4492 1.363 . S
C4493 C4499 1.428 . S
H4494 C4490 0.930 . S
H4495 C4492 0.929 . S
S4496 N4497 1.613 . S
S4496 N4498 1.610 . S
N4497 S4496 1.613 . S
N4497 C4500 1.350 . S
N4498 S4496 1.610 . S
N4498 C4499 1.351 . S
C4499 C4493 1.428 . S
C4499 N4498 1.351 . S
C4499 C4500 1.434 . S
C4500 C4491 1.429 . S
C4500 N4497 1.350 . S
C4500 C4499 1.434 . S
C4501 C4502 1.369 . S
C4501 C4503 1.419 . S
C4501 H4505 0.930 . S
C4502 C4501 1.369 . S
C4502 C4511 1.429 . S
C4503 C4501 1.419 . S
C4503 C4504 1.363 . S
C4503 H4506 0.929 . S
C4504 C4503 1.363 . S
C4504 C4510 1.428 . S
H4505 C4501 0.930 . S
H4506 C4503 0.929 . S
S4507 N4508 1.613 . S
S4507 N4509 1.610 . S
N4508 S4507 1.613 . S
N4508 C4511 1.350 . S
N4509 S4507 1.610 . S
N4509 C4510 1.351 . S
C4510 C4504 1.428 . S
C4510 N4509 1.351 . S
C4510 C4511 1.434 . S
C4511 C4502 1.429 . S
C4511 N4508 1.350 . S
C4511 C4510 1.434 . S
C4512 C4513 1.369 . S
C4512 C4514 1.419 1_455 S
C4512 H4516 0.930 . S
C4513 C4512 1.369 . S
C4513 C4522 1.429 . S
C4514 C4512 1.419 1_655 S
C4514 C4515 1.363 . S
C4514 H4517 0.929 . S
C4515 C4514 1.363 . S
C4515 C4521 1.428 . S
H4516 C4512 0.930 . S
H4517 C4514 0.929 . S
S4518 N4519 1.618 1_655 S
S4518 N4520 1.606 . S
N4519 S4518 1.618 1_455 S
N4519 C4522 1.350 . S
N4520 S4518 1.606 . S
N4520 C4521 1.351 . S
C4521 C4515 1.428 . S
C4521 N4520 1.351 . S
C4521 C4522 1.434 1_655 S
C4522 C4513 1.429 . S
C4522 N4519 1.350 . S
C4522 C4521 1.434 1_455 S
C4523 C4524 1.369 . S
C4523 C4525 1.419 1_565 S
C4523 H4527 0.930 . S
C4524 C4523 1.369 . S
C4524 C4533 1.429 . S
C4525 C4523 1.419 1_545 S
C4525 C4526 1.363 . S
C4525 H4528 0.929 . S
C4526 C4525 1.363 . S
C4526 C4532 1.428 . S
H4527 C4523 0.930 . S
H4528 C4525 0.929 . S
S4529 N4530 1.618 1_545 S
S4529 N4531 1.606 . S
N4530 S4529 1.618 1_565 S
N4530 C4533 1.350 . S
N4531 S4529 1.606 . S
N4531 C4532 1.351 . S
C4532 C4526 1.428 . S
C4532 N4531 1.351 . S
C4532 C4533 1.434 1_545 S
C4533 C4524 1.429 . S
C4533 N4530 1.350 . S
C4533 C4532 1.434 1_565 S
C4534 C4535 1.369 . S
C4534 C4536 1.419 1_655 S
C4534 H4538 0.930 . S
C4535 C4534 1.369 . S
C4535 C4544 1.429 . S
C4536 C4534 1.419 1_455 S
C4536 C4537 1.363 . S
C4536 H4539 0.929 . S
C4537 C4536 1.363 . S
C4537 C4543 1.428 . S
H4538 C4534 0.930 . S
H4539 C4536 0.929 . S
S4540 N4541 1.618 1_455 S
S4540 N4542 1.606 . S
N4541 S4540 1.618 1_655 S
N4541 C4544 1.350 . S
N4542 S4540 1.606 . S
N4542 C4543 1.351 . S
C4543 C4537 1.428 . S
C4543 N4542 1.351 . S
C4543 C4544 1.434 1_455 S
C4544 C4535 1.429 . S
C4544 N4541 1.350 . S
C4544 C4543 1.434 1_655 S
C4545 C4546 1.369 . S
C4545 C4547 1.419 1_545 S
C4545 H4549 0.930 . S
C4546 C4545 1.369 . S
C4546 C4555 1.429 . S
C4547 C4545 1.419 1_565 S
C4547 C4548 1.363 . S
C4547 H4550 0.929 . S
C4548 C4547 1.363 . S
C4548 C4554 1.428 . S
H4549 C4545 0.930 . S
H4550 C4547 0.929 . S
S4551 N4552 1.618 1_565 S
S4551 N4553 1.606 . S
N4552 S4551 1.618 1_545 S
N4552 C4555 1.350 . S
N4553 S4551 1.606 . S
N4553 C4554 1.351 . S
C4554 C4548 1.428 . S
C4554 N4553 1.351 . S
C4554 C4555 1.434 1_565 S
C4555 C4546 1.429 . S
C4555 N4552 1.350 . S
C4555 C4554 1.434 1_545 S
C4556 C4557 1.369 . S
C4556 C4558 1.419 1_455 S
C4556 H4560 0.930 . S
C4557 C4556 1.369 . S
C4557 C4566 1.429 . S
C4558 C4556 1.419 1_655 S
C4558 C4559 1.363 . S
C4558 H4561 0.929 . S
C4559 C4558 1.363 . S
C4559 C4565 1.428 . S
H4560 C4556 0.930 . S
H4561 C4558 0.929 . S
S4562 N4563 1.618 1_655 S
S4562 N4564 1.606 . S
N4563 S4562 1.618 1_455 S
N4563 C4566 1.350 . S
N4564 S4562 1.606 . S
N4564 C4565 1.351 . S
C4565 C4559 1.428 . S
C4565 N4564 1.351 . S
C4565 C4566 1.434 1_655 S
C4566 C4557 1.429 . S
C4566 N4563 1.350 . S
C4566 C4565 1.434 1_455 S
C4567 C4568 1.369 . S
C4567 C4569 1.419 1_545 S
C4567 H4571 0.930 . S
C4568 C4567 1.369 . S
C4568 C4577 1.429 . S
C4569 C4567 1.419 1_565 S
C4569 C4570 1.363 . S
C4569 H4572 0.929 . S
C4570 C4569 1.363 . S
C4570 C4576 1.428 . S
H4571 C4567 0.930 . S
H4572 C4569 0.929 . S
S4573 N4574 1.618 1_565 S
S4573 N4575 1.606 . S
N4574 S4573 1.618 1_545 S
N4574 C4577 1.350 . S
N4575 S4573 1.606 . S
N4575 C4576 1.351 . S
C4576 C4570 1.428 . S
C4576 N4575 1.351 . S
C4576 C4577 1.434 1_565 S
C4577 C4568 1.429 . S
C4577 N4574 1.350 . S
C4577 C4576 1.434 1_545 S
C4578 C4579 1.369 . S
C4578 C4580 1.419 1_655 S
C4578 H4582 0.930 . S
C4579 C4578 1.369 . S
C4579 C4588 1.429 . S
C4580 C4578 1.419 1_455 S
C4580 C4581 1.363 . S
C4580 H4583 0.929 . S
C4581 C4580 1.363 . S
C4581 C4587 1.428 . S
H4582 C4578 0.930 . S
H4583 C4580 0.929 . S
S4584 N4585 1.618 1_455 S
S4584 N4586 1.606 . S
N4585 S4584 1.618 1_655 S
N4585 C4588 1.350 . S
N4586 S4584 1.606 . S
N4586 C4587 1.351 . S
C4587 C4581 1.428 . S
C4587 N4586 1.351 . S
C4587 C4588 1.434 1_455 S
C4588 C4579 1.429 . S
C4588 N4585 1.350 . S
C4588 C4587 1.434 1_655 S
C4589 C4590 1.369 . S
C4589 C4591 1.419 1_545 S
C4589 H4593 0.930 . S
C4590 C4589 1.369 . S
C4590 C4599 1.429 . S
C4591 C4589 1.419 1_565 S
C4591 C4592 1.363 . S
C4591 H4594 0.929 . S
C4592 C4591 1.363 . S
C4592 C4598 1.428 . S
H4593 C4589 0.930 . S
H4594 C4591 0.929 . S
S4595 N4596 1.618 1_565 S
S4595 N4597 1.606 . S
N4596 S4595 1.618 1_545 S
N4596 C4599 1.350 . S
N4597 S4595 1.606 . S
N4597 C4598 1.351 . S
C4598 C4592 1.428 . S
C4598 N4597 1.351 . S
C4598 C4599 1.434 1_565 S
C4599 C4590 1.429 . S
C4599 N4596 1.350 . S
C4599 C4598 1.434 1_545 S
C4600 C4601 1.369 . S
C4600 C4602 1.419 1_565 S
C4600 H4604 0.930 . S
C4601 C4600 1.369 . S
C4601 C4610 1.429 . S
C4602 C4600 1.419 1_545 S
C4602 C4603 1.363 . S
C4602 H4605 0.929 . S
C4603 C4602 1.363 . S
C4603 C4609 1.428 . S
H4604 C4600 0.930 . S
H4605 C4602 0.929 . S
S4606 N4607 1.618 1_545 S
S4606 N4608 1.606 . S
N4607 S4606 1.618 1_565 S
N4607 C4610 1.350 . S
N4608 S4606 1.606 . S
N4608 C4609 1.351 . S
C4609 C4603 1.428 . S
C4609 N4608 1.351 . S
C4609 C4610 1.434 1_545 S
C4610 C4601 1.429 . S
C4610 N4607 1.350 . S
C4610 C4609 1.434 1_565 S
C4611 C4612 1.369 . S
C4611 C4613 1.419 1_655 S
C4611 H4615 0.930 . S
C4612 C4611 1.369 . S
C4612 C4621 1.429 . S
C4613 C4611 1.419 1_455 S
C4613 C4614 1.363 . S
C4613 H4616 0.929 . S
C4614 C4613 1.363 . S
C4614 C4620 1.428 . S
H4615 C4611 0.930 . S
H4616 C4613 0.929 . S
S4617 N4618 1.618 1_455 S
S4617 N4619 1.606 . S
N4618 S4617 1.618 1_655 S
N4618 C4621 1.350 . S
N4619 S4617 1.606 . S
N4619 C4620 1.351 . S
C4620 C4614 1.428 . S
C4620 N4619 1.351 . S
C4620 C4621 1.434 1_455 S
C4621 C4612 1.429 . S
C4621 N4618 1.350 . S
C4621 C4620 1.434 1_655 S
C4622 C4623 1.369 . S
C4622 C4624 1.419 1_565 S
C4622 H4626 0.930 . S
C4623 C4622 1.369 . S
C4623 C4632 1.429 . S
C4624 C4622 1.419 1_545 S
C4624 C4625 1.363 . S
C4624 H4627 0.929 . S
C4625 C4624 1.363 . S
C4625 C4631 1.428 . S
H4626 C4622 0.930 . S
H4627 C4624 0.929 . S
S4628 N4629 1.618 1_545 S
S4628 N4630 1.606 . S
N4629 S4628 1.618 1_565 S
N4629 C4632 1.350 . S
N4630 S4628 1.606 . S
N4630 C4631 1.351 . S
C4631 C4625 1.428 . S
C4631 N4630 1.351 . S
C4631 C4632 1.434 1_545 S
C4632 C4623 1.429 . S
C4632 N4629 1.350 . S
C4632 C4631 1.434 1_565 S
C4633 C4634 1.369 . S
C4633 C4635 1.419 1_455 S
C4633 H4637 0.930 . S
C4634 C4633 1.369 . S
C4634 C4643 1.429 . S
C4635 C4633 1.419 1_655 S
C4635 C4636 1.363 . S
C4635 H4638 0.929 . S
C4636 C4635 1.363 . S
C4636 C4642 1.428 . S
H4637 C4633 0.930 . S
H4638 C4635 0.929 . S
S4639 N4640 1.618 1_655 S
S4639 N4641 1.606 . S
N4640 S4639 1.618 1_455 S
N4640 C4643 1.350 . S
N4641 S4639 1.606 . S
N4641 C4642 1.351 . S
C4642 C4636 1.428 . S
C4642 N4641 1.351 . S
C4642 C4643 1.434 1_655 S
C4643 C4634 1.429 . S
C4643 N4640 1.350 . S
C4643 C4642 1.434 1_455 S
C4644 C4645 1.369 . S
C4644 C4646 1.419 1_565 S
C4644 H4648 0.930 . S
C4645 C4644 1.369 . S
C4645 C4654 1.429 . S
C4646 C4644 1.419 1_545 S
C4646 C4647 1.363 . S
C4646 H4649 0.929 . S
C4647 C4646 1.363 . S
C4647 C4653 1.428 . S
H4648 C4644 0.930 . S
H4649 C4646 0.929 . S
S4650 N4651 1.618 1_545 S
S4650 N4652 1.606 . S
N4651 S4650 1.618 1_565 S
N4651 C4654 1.350 . S
N4652 S4650 1.606 . S
N4652 C4653 1.351 . S
C4653 C4647 1.428 . S
C4653 N4652 1.351 . S
C4653 C4654 1.434 1_545 S
C4654 C4645 1.429 . S
C4654 N4651 1.350 . S
C4654 C4653 1.434 1_565 S
C4655 C4656 1.369 . S
C4655 C4657 1.419 1_455 S
C4655 H4659 0.930 . S
C4656 C4655 1.369 . S
C4656 C4665 1.429 . S
C4657 C4655 1.419 1_655 S
C4657 C4658 1.363 . S
C4657 H4660 0.929 . S
C4658 C4657 1.363 . S
C4658 C4664 1.428 . S
H4659 C4655 0.930 . S
H4660 C4657 0.929 . S
S4661 N4662 1.618 1_655 S
S4661 N4663 1.606 . S
N4662 S4661 1.618 1_455 S
N4662 C4665 1.350 . S
N4663 S4661 1.606 . S
N4663 C4664 1.351 . S
C4664 C4658 1.428 . S
C4664 N4663 1.351 . S
C4664 C4665 1.434 1_655 S
C4665 C4656 1.429 . S
C4665 N4662 1.350 . S
C4665 C4664 1.434 1_455 S
C4666 C4667 1.369 . S
C4666 C4668 1.419 1_545 S
C4666 H4670 0.930 . S
C4667 C4666 1.369 . S
C4667 C4676 1.429 . S
C4668 C4666 1.419 1_565 S
C4668 C4669 1.363 . S
C4668 H4671 0.929 . S
C4669 C4668 1.363 . S
C4669 C4675 1.428 . S
H4670 C4666 0.930 . S
H4671 C4668 0.929 . S
S4672 N4673 1.618 1_565 S
S4672 N4674 1.606 . S
N4673 S4672 1.618 1_545 S
N4673 C4676 1.350 . S
N4674 S4672 1.606 . S
N4674 C4675 1.351 . S
C4675 C4669 1.428 . S
C4675 N4674 1.351 . S
C4675 C4676 1.434 1_565 S
C4676 C4667 1.429 . S
C4676 N4673 1.350 . S
C4676 C4675 1.434 1_545 S
C4677 C4678 1.369 . S
C4677 C4679 1.419 1_655 S
C4677 H4681 0.930 . S
C4678 C4677 1.369 . S
C4678 C4687 1.429 . S
C4679 C4677 1.419 1_455 S
C4679 C4680 1.363 . S
C4679 H4682 0.929 . S
C4680 C4679 1.363 . S
C4680 C4686 1.428 . S
H4681 C4677 0.930 . S
H4682 C4679 0.929 . S
S4683 N4684 1.618 1_455 S
S4683 N4685 1.606 . S
N4684 S4683 1.618 1_655 S
N4684 C4687 1.350 . S
N4685 S4683 1.606 . S
N4685 C4686 1.351 . S
C4686 C4680 1.428 . S
C4686 N4685 1.351 . S
C4686 C4687 1.434 1_455 S
C4687 C4678 1.429 . S
C4687 N4684 1.350 . S
C4687 C4686 1.434 1_655 S
C4688 C4689 1.369 . S
C4688 C4690 1.419 1_554 S
C4688 H4692 0.930 . S
C4689 C4688 1.369 . S
C4689 C4698 1.429 . S
C4690 C4688 1.419 1_556 S
C4690 C4691 1.363 . S
C4690 H4693 0.929 . S
C4691 C4690 1.363 . S
C4691 C4697 1.428 . S
H4692 C4688 0.930 . S
H4693 C4690 0.929 . S
S4694 N4695 1.618 1_556 S
S4694 N4696 1.606 . S
N4695 S4694 1.618 1_554 S
N4695 C4698 1.350 . S
N4696 S4694 1.606 . S
N4696 C4697 1.351 . S
C4697 C4691 1.428 . S
C4697 N4696 1.351 . S
C4697 C4698 1.434 1_556 S
C4698 C4689 1.429 . S
C4698 N4695 1.350 . S
C4698 C4697 1.434 1_554 S
C4699 C4700 1.369 . S
C4699 C4701 1.419 1_556 S
C4699 H4703 0.930 . S
C4700 C4699 1.369 . S
C4700 C4709 1.429 . S
C4701 C4699 1.419 1_554 S
C4701 C4702 1.363 . S
C4701 H4704 0.929 . S
C4702 C4701 1.363 . S
C4702 C4708 1.428 . S
H4703 C4699 0.930 . S
H4704 C4701 0.929 . S
S4705 N4706 1.618 1_554 S
S4705 N4707 1.606 . S
N4706 S4705 1.618 1_556 S
N4706 C4709 1.350 . S
N4707 S4705 1.606 . S
N4707 C4708 1.351 . S
C4708 C4702 1.428 . S
C4708 N4707 1.351 . S
C4708 C4709 1.434 1_554 S
C4709 C4700 1.429 . S
C4709 N4706 1.350 . S
C4709 C4708 1.434 1_556 S
C4710 C4711 1.369 . S
C4710 C4712 1.419 1_554 S
C4710 H4714 0.930 . S
C4711 C4710 1.369 . S
C4711 C4720 1.429 . S
C4712 C4710 1.419 1_556 S
C4712 C4713 1.363 . S
C4712 H4715 0.929 . S
C4713 C4712 1.363 . S
C4713 C4719 1.428 . S
H4714 C4710 0.930 . S
H4715 C4712 0.929 . S
S4716 N4717 1.618 1_556 S
S4716 N4718 1.606 . S
N4717 S4716 1.618 1_554 S
N4717 C4720 1.350 . S
N4718 S4716 1.606 . S
N4718 C4719 1.351 . S
C4719 C4713 1.428 . S
C4719 N4718 1.351 . S
C4719 C4720 1.434 1_556 S
C4720 C4711 1.429 . S
C4720 N4717 1.350 . S
C4720 C4719 1.434 1_554 S
C4721 C4722 1.369 . S
C4721 C4723 1.419 1_556 S
C4721 H4725 0.930 . S
C4722 C4721 1.369 . S
C4722 C4731 1.429 . S
C4723 C4721 1.419 1_554 S
C4723 C4724 1.363 . S
C4723 H4726 0.929 . S
C4724 C4723 1.363 . S
C4724 C4730 1.428 . S
H4725 C4721 0.930 . S
H4726 C4723 0.929 . S
S4727 N4728 1.618 1_554 S
S4727 N4729 1.606 . S
N4728 S4727 1.618 1_556 S
N4728 C4731 1.350 . S
N4729 S4727 1.606 . S
N4729 C4730 1.351 . S
C4730 C4724 1.428 . S
C4730 N4729 1.351 . S
C4730 C4731 1.434 1_554 S
C4731 C4722 1.429 . S
C4731 N4728 1.350 . S
C4731 C4730 1.434 1_556 S
C4732 C4733 1.369 . S
C4732 C4734 1.419 1_554 S
C4732 H4736 0.930 . S
C4733 C4732 1.369 . S
C4733 C4742 1.429 . S
C4734 C4732 1.419 1_556 S
C4734 C4735 1.363 . S
C4734 H4737 0.929 . S
C4735 C4734 1.363 . S
C4735 C4741 1.428 . S
H4736 C4732 0.930 . S
H4737 C4734 0.929 . S
S4738 N4739 1.618 1_556 S
S4738 N4740 1.606 . S
N4739 S4738 1.618 1_554 S
N4739 C4742 1.350 . S
N4740 S4738 1.606 . S
N4740 C4741 1.351 . S
C4741 C4735 1.428 . S
C4741 N4740 1.351 . S
C4741 C4742 1.434 1_556 S
C4742 C4733 1.429 . S
C4742 N4739 1.350 . S
C4742 C4741 1.434 1_554 S
C4743 C4744 1.369 . S
C4743 C4745 1.419 1_554 S
C4743 H4747 0.930 . S
C4744 C4743 1.369 . S
C4744 C4753 1.429 . S
C4745 C4743 1.419 1_556 S
C4745 C4746 1.363 . S
C4745 H4748 0.929 . S
C4746 C4745 1.363 . S
C4746 C4752 1.428 . S
H4747 C4743 0.930 . S
H4748 C4745 0.929 . S
S4749 N4750 1.618 1_556 S
S4749 N4751 1.606 . S
N4750 S4749 1.618 1_554 S
N4750 C4753 1.350 . S
N4751 S4749 1.606 . S
N4751 C4752 1.351 . S
C4752 C4746 1.428 . S
C4752 N4751 1.351 . S
C4752 C4753 1.434 1_556 S
C4753 C4744 1.429 . S
C4753 N4750 1.350 . S
C4753 C4752 1.434 1_554 S
C4754 C4755 1.369 . S
C4754 C4756 1.419 1_554 S
C4754 H4758 0.930 . S
C4755 C4754 1.369 . S
C4755 C4764 1.429 . S
C4756 C4754 1.419 1_556 S
C4756 C4757 1.363 . S
C4756 H4759 0.929 . S
C4757 C4756 1.363 . S
C4757 C4763 1.428 . S
H4758 C4754 0.930 . S
H4759 C4756 0.929 . S
S4760 N4761 1.618 1_556 S
S4760 N4762 1.606 . S
N4761 S4760 1.618 1_554 S
N4761 C4764 1.350 . S
N4762 S4760 1.606 . S
N4762 C4763 1.351 . S
C4763 C4757 1.428 . S
C4763 N4762 1.351 . S
C4763 C4764 1.434 1_556 S
C4764 C4755 1.429 . S
C4764 N4761 1.350 . S
C4764 C4763 1.434 1_554 S
C4765 C4766 1.369 . S
C4765 C4767 1.419 1_556 S
C4765 H4769 0.930 . S
C4766 C4765 1.369 . S
C4766 C4775 1.429 . S
C4767 C4765 1.419 1_554 S
C4767 C4768 1.363 . S
C4767 H4770 0.929 . S
C4768 C4767 1.363 . S
C4768 C4774 1.428 . S
H4769 C4765 0.930 . S
H4770 C4767 0.929 . S
S4771 N4772 1.618 1_554 S
S4771 N4773 1.606 . S
N4772 S4771 1.618 1_556 S
N4772 C4775 1.350 . S
N4773 S4771 1.606 . S
N4773 C4774 1.351 . S
C4774 C4768 1.428 . S
C4774 N4773 1.351 . S
C4774 C4775 1.434 1_554 S
C4775 C4766 1.429 . S
C4775 N4772 1.350 . S
C4775 C4774 1.434 1_556 S
C4776 C4777 1.369 . S
C4776 C4778 1.419 . S
C4776 H4780 0.930 . S
C4777 C4776 1.369 . S
C4777 C4786 1.429 . S
C4778 C4776 1.419 . S
C4778 C4779 1.363 . S
C4778 H4781 0.929 . S
C4779 C4778 1.363 . S
C4779 C4785 1.428 . S
H4780 C4776 0.930 . S
H4781 C4778 0.929 . S
S4782 N4783 1.613 . S
S4782 N4784 1.610 . S
N4783 S4782 1.613 . S
N4783 C4786 1.350 . S
N4784 S4782 1.610 . S
N4784 C4785 1.351 . S
C4785 C4779 1.428 . S
C4785 N4784 1.351 . S
C4785 C4786 1.434 . S
C4786 C4777 1.429 . S
C4786 N4783 1.350 . S
C4786 C4785 1.434 . S
C4787 C4788 1.369 . S
C4787 C4789 1.419 . S
C4787 H4791 0.930 . S
C4788 C4787 1.369 . S
C4788 C4797 1.429 . S
C4789 C4787 1.419 . S
C4789 C4790 1.363 . S
C4789 H4792 0.929 . S
C4790 C4789 1.363 . S
C4790 C4796 1.428 . S
H4791 C4787 0.930 . S
H4792 C4789 0.929 . S
S4793 N4794 1.613 . S
S4793 N4795 1.610 . S
N4794 S4793 1.613 . S
N4794 C4797 1.350 . S
N4795 S4793 1.610 . S
N4795 C4796 1.351 . S
C4796 C4790 1.428 . S
C4796 N4795 1.351 . S
C4796 C4797 1.434 . S
C4797 C4788 1.429 . S
C4797 N4794 1.350 . S
C4797 C4796 1.434 . S
C4798 C4799 1.369 . S
C4798 C4800 1.419 . S
C4798 H4802 0.930 . S
C4799 C4798 1.369 . S
C4799 C4808 1.429 . S
C4800 C4798 1.419 . S
C4800 C4801 1.363 . S
C4800 H4803 0.929 . S
C4801 C4800 1.363 . S
C4801 C4807 1.428 . S
H4802 C4798 0.930 . S
H4803 C4800 0.929 . S
S4804 N4805 1.613 . S
S4804 N4806 1.610 . S
N4805 S4804 1.613 . S
N4805 C4808 1.350 . S
N4806 S4804 1.610 . S
N4806 C4807 1.351 . S
C4807 C4801 1.428 . S
C4807 N4806 1.351 . S
C4807 C4808 1.434 . S
C4808 C4799 1.429 . S
C4808 N4805 1.350 . S
C4808 C4807 1.434 . S
C4809 C4810 1.369 . S
C4809 C4811 1.419 . S
C4809 H4813 0.930 . S
C4810 C4809 1.369 . S
C4810 C4819 1.429 . S
C4811 C4809 1.419 . S
C4811 C4812 1.363 . S
C4811 H4814 0.929 . S
C4812 C4811 1.363 . S
C4812 C4818 1.428 . S
H4813 C4809 0.930 . S
H4814 C4811 0.929 . S
S4815 N4816 1.613 . S
S4815 N4817 1.610 . S
N4816 S4815 1.613 . S
N4816 C4819 1.350 . S
N4817 S4815 1.610 . S
N4817 C4818 1.351 . S
C4818 C4812 1.428 . S
C4818 N4817 1.351 . S
C4818 C4819 1.434 . S
C4819 C4810 1.429 . S
C4819 N4816 1.350 . S
C4819 C4818 1.434 . S
C4820 C4821 1.369 . S
C4820 C4822 1.419 . S
C4820 H4824 0.930 . S
C4821 C4820 1.369 . S
C4821 C4830 1.429 . S
C4822 C4820 1.419 . S
C4822 C4823 1.363 . S
C4822 H4825 0.929 . S
C4823 C4822 1.363 . S
C4823 C4829 1.428 . S
H4824 C4820 0.930 . S
H4825 C4822 0.929 . S
S4826 N4827 1.613 . S
S4826 N4828 1.610 . S
N4827 S4826 1.613 . S
N4827 C4830 1.350 . S
N4828 S4826 1.610 . S
N4828 C4829 1.351 . S
C4829 C4823 1.428 . S
C4829 N4828 1.351 . S
C4829 C4830 1.434 . S
C4830 C4821 1.429 . S
C4830 N4827 1.350 . S
C4830 C4829 1.434 . S
C4831 C4832 1.369 . S
C4831 C4833 1.419 . S
C4831 H4835 0.930 . S
C4832 C4831 1.369 . S
C4832 C4841 1.429 . S
C4833 C4831 1.419 . S
C4833 C4834 1.363 . S
C4833 H4836 0.929 . S
C4834 C4833 1.363 . S
C4834 C4840 1.428 . S
H4835 C4831 0.930 . S
H4836 C4833 0.929 . S
S4837 N4838 1.613 . S
S4837 N4839 1.610 . S
N4838 S4837 1.613 . S
N4838 C4841 1.350 . S
N4839 S4837 1.610 . S
N4839 C4840 1.351 . S
C4840 C4834 1.428 . S
C4840 N4839 1.351 . S
C4840 C4841 1.434 . S
C4841 C4832 1.429 . S
C4841 N4838 1.350 . S
C4841 C4840 1.434 . S
C4842 C4843 1.369 . S
C4842 C4844 1.419 . S
C4842 H4846 0.930 . S
C4843 C4842 1.369 . S
C4843 C4852 1.429 . S
C4844 C4842 1.419 . S
C4844 C4845 1.363 . S
C4844 H4847 0.929 . S
C4845 C4844 1.363 . S
C4845 C4851 1.428 . S
H4846 C4842 0.930 . S
H4847 C4844 0.929 . S
S4848 N4849 1.613 . S
S4848 N4850 1.610 . S
N4849 S4848 1.613 . S
N4849 C4852 1.350 . S
N4850 S4848 1.610 . S
N4850 C4851 1.351 . S
C4851 C4845 1.428 . S
C4851 N4850 1.351 . S
C4851 C4852 1.434 . S
C4852 C4843 1.429 . S
C4852 N4849 1.350 . S
C4852 C4851 1.434 . S
C4853 C4854 1.369 . S
C4853 C4855 1.419 . S
C4853 H4857 0.930 . S
C4854 C4853 1.369 . S
C4854 C4863 1.429 . S
C4855 C4853 1.419 . S
C4855 C4856 1.363 . S
C4855 H4858 0.929 . S
C4856 C4855 1.363 . S
C4856 C4862 1.428 . S
H4857 C4853 0.930 . S
H4858 C4855 0.929 . S
S4859 N4860 1.613 . S
S4859 N4861 1.610 . S
N4860 S4859 1.613 . S
N4860 C4863 1.350 . S
N4861 S4859 1.610 . S
N4861 C4862 1.351 . S
C4862 C4856 1.428 . S
C4862 N4861 1.351 . S
C4862 C4863 1.434 . S
C4863 C4854 1.429 . S
C4863 N4860 1.350 . S
C4863 C4862 1.434 . S
C4864 C4865 1.369 . S
C4864 C4866 1.419 . S
C4864 H4868 0.930 . S
C4865 C4864 1.369 . S
C4865 C4874 1.429 . S
C4866 C4864 1.419 . S
C4866 C4867 1.363 . S
C4866 H4869 0.929 . S
C4867 C4866 1.363 . S
C4867 C4873 1.428 . S
H4868 C4864 0.930 . S
H4869 C4866 0.929 . S
S4870 N4871 1.613 . S
S4870 N4872 1.610 . S
N4871 S4870 1.613 . S
N4871 C4874 1.350 . S
N4872 S4870 1.610 . S
N4872 C4873 1.351 . S
C4873 C4867 1.428 . S
C4873 N4872 1.351 . S
C4873 C4874 1.434 . S
C4874 C4865 1.429 . S
C4874 N4871 1.350 . S
C4874 C4873 1.434 . S
C4875 C4876 1.369 . S
C4875 C4877 1.419 . S
C4875 H4879 0.930 . S
C4876 C4875 1.369 . S
C4876 C4885 1.429 . S
C4877 C4875 1.419 . S
C4877 C4878 1.363 . S
C4877 H4880 0.929 . S
C4878 C4877 1.363 . S
C4878 C4884 1.428 . S
H4879 C4875 0.930 . S
H4880 C4877 0.929 . S
S4881 N4882 1.613 . S
S4881 N4883 1.610 . S
N4882 S4881 1.613 . S
N4882 C4885 1.350 . S
N4883 S4881 1.610 . S
N4883 C4884 1.351 . S
C4884 C4878 1.428 . S
C4884 N4883 1.351 . S
C4884 C4885 1.434 . S
C4885 C4876 1.429 . S
C4885 N4882 1.350 . S
C4885 C4884 1.434 . S
C4886 C4887 1.369 . S
C4886 C4888 1.419 . S
C4886 H4890 0.930 . S
C4887 C4886 1.369 . S
C4887 C4896 1.429 . S
C4888 C4886 1.419 . S
C4888 C4889 1.363 . S
C4888 H4891 0.929 . S
C4889 C4888 1.363 . S
C4889 C4895 1.428 . S
H4890 C4886 0.930 . S
H4891 C4888 0.929 . S
S4892 N4893 1.613 . S
S4892 N4894 1.610 . S
N4893 S4892 1.613 . S
N4893 C4896 1.350 . S
N4894 S4892 1.610 . S
N4894 C4895 1.351 . S
C4895 C4889 1.428 . S
C4895 N4894 1.351 . S
C4895 C4896 1.434 . S
C4896 C4887 1.429 . S
C4896 N4893 1.350 . S
C4896 C4895 1.434 . S
C4897 C4898 1.369 . S
C4897 C4899 1.419 . S
C4897 H4901 0.930 . S
C4898 C4897 1.369 . S
C4898 C4907 1.429 . S
C4899 C4897 1.419 . S
C4899 C4900 1.363 . S
C4899 H4902 0.929 . S
C4900 C4899 1.363 . S
C4900 C4906 1.428 . S
H4901 C4897 0.930 . S
H4902 C4899 0.929 . S
S4903 N4904 1.613 . S
S4903 N4905 1.610 . S
N4904 S4903 1.613 . S
N4904 C4907 1.350 . S
N4905 S4903 1.610 . S
N4905 C4906 1.351 . S
C4906 C4900 1.428 . S
C4906 N4905 1.351 . S
C4906 C4907 1.434 . S
C4907 C4898 1.429 . S
C4907 N4904 1.350 . S
C4907 C4906 1.434 . S
C4908 C4909 1.369 . S
C4908 C4910 1.419 . S
C4908 H4912 0.930 . S
C4909 C4908 1.369 . S
C4909 C4918 1.429 . S
C4910 C4908 1.419 . S
C4910 C4911 1.363 . S
C4910 H4913 0.929 . S
C4911 C4910 1.363 . S
C4911 C4917 1.428 . S
H4912 C4908 0.930 . S
H4913 C4910 0.929 . S
S4914 N4915 1.613 . S
S4914 N4916 1.610 . S
N4915 S4914 1.613 . S
N4915 C4918 1.350 . S
N4916 S4914 1.610 . S
N4916 C4917 1.351 . S
C4917 C4911 1.428 . S
C4917 N4916 1.351 . S
C4917 C4918 1.434 . S
C4918 C4909 1.429 . S
C4918 N4915 1.350 . S
C4918 C4917 1.434 . S
C4919 C4920 1.369 . S
C4919 C4921 1.419 . S
C4919 H4923 0.930 . S
C4920 C4919 1.369 . S
C4920 C4929 1.429 . S
C4921 C4919 1.419 . S
C4921 C4922 1.363 . S
C4921 H4924 0.929 . S
C4922 C4921 1.363 . S
C4922 C4928 1.428 . S
H4923 C4919 0.930 . S
H4924 C4921 0.929 . S
S4925 N4926 1.613 . S
S4925 N4927 1.610 . S
N4926 S4925 1.613 . S
N4926 C4929 1.350 . S
N4927 S4925 1.610 . S
N4927 C4928 1.351 . S
C4928 C4922 1.428 . S
C4928 N4927 1.351 . S
C4928 C4929 1.434 . S
C4929 C4920 1.429 . S
C4929 N4926 1.350 . S
C4929 C4928 1.434 . S
C4930 C4931 1.369 . S
C4930 C4932 1.419 . S
C4930 H4934 0.930 . S
C4931 C4930 1.369 . S
C4931 C4940 1.429 . S
C4932 C4930 1.419 . S
C4932 C4933 1.363 . S
C4932 H4935 0.929 . S
C4933 C4932 1.363 . S
C4933 C4939 1.428 . S
H4934 C4930 0.930 . S
H4935 C4932 0.929 . S
S4936 N4937 1.613 . S
S4936 N4938 1.610 . S
N4937 S4936 1.613 . S
N4937 C4940 1.350 . S
N4938 S4936 1.610 . S
N4938 C4939 1.351 . S
C4939 C4933 1.428 . S
C4939 N4938 1.351 . S
C4939 C4940 1.434 . S
C4940 C4931 1.429 . S
C4940 N4937 1.350 . S
C4940 C4939 1.434 . S
C4941 C4942 1.369 . S
C4941 C4943 1.419 . S
C4941 H4945 0.930 . S
C4942 C4941 1.369 . S
C4942 C4951 1.429 . S
C4943 C4941 1.419 . S
C4943 C4944 1.363 . S
C4943 H4946 0.929 . S
C4944 C4943 1.363 . S
C4944 C4950 1.428 . S
H4945 C4941 0.930 . S
H4946 C4943 0.929 . S
S4947 N4948 1.613 . S
S4947 N4949 1.610 . S
N4948 S4947 1.613 . S
N4948 C4951 1.350 . S
N4949 S4947 1.610 . S
N4949 C4950 1.351 . S
C4950 C4944 1.428 . S
C4950 N4949 1.351 . S
C4950 C4951 1.434 . S
C4951 C4942 1.429 . S
C4951 N4948 1.350 . S
C4951 C4950 1.434 . S
C4952 C4953 1.369 . S
C4952 C4954 1.419 . S
C4952 H4956 0.930 . S
C4953 C4952 1.369 . S
C4953 C4962 1.429 . S
C4954 C4952 1.419 . S
C4954 C4955 1.363 . S
C4954 H4957 0.929 . S
C4955 C4954 1.363 . S
C4955 C4961 1.428 . S
H4956 C4952 0.930 . S
H4957 C4954 0.929 . S
S4958 N4959 1.613 . S
S4958 N4960 1.610 . S
N4959 S4958 1.613 . S
N4959 C4962 1.350 . S
N4960 S4958 1.610 . S
N4960 C4961 1.351 . S
C4961 C4955 1.428 . S
C4961 N4960 1.351 . S
C4961 C4962 1.434 . S
C4962 C4953 1.429 . S
C4962 N4959 1.350 . S
C4962 C4961 1.434 . S
C4963 C4964 1.369 . S
C4963 C4965 1.419 . S
C4963 H4967 0.930 . S
C4964 C4963 1.369 . S
C4964 C4973 1.429 . S
C4965 C4963 1.419 . S
C4965 C4966 1.363 . S
C4965 H4968 0.929 . S
C4966 C4965 1.363 . S
C4966 C4972 1.428 . S
H4967 C4963 0.930 . S
H4968 C4965 0.929 . S
S4969 N4970 1.613 . S
S4969 N4971 1.610 . S
N4970 S4969 1.613 . S
N4970 C4973 1.350 . S
N4971 S4969 1.610 . S
N4971 C4972 1.351 . S
C4972 C4966 1.428 . S
C4972 N4971 1.351 . S
C4972 C4973 1.434 . S
C4973 C4964 1.429 . S
C4973 N4970 1.350 . S
C4973 C4972 1.434 . S
C4974 C4975 1.369 . S
C4974 C4976 1.419 . S
C4974 H4978 0.930 . S
C4975 C4974 1.369 . S
C4975 C4984 1.429 . S
C4976 C4974 1.419 . S
C4976 C4977 1.363 . S
C4976 H4979 0.929 . S
C4977 C4976 1.363 . S
C4977 C4983 1.428 . S
H4978 C4974 0.930 . S
H4979 C4976 0.929 . S
S4980 N4981 1.613 . S
S4980 N4982 1.610 . S
N4981 S4980 1.613 . S
N4981 C4984 1.350 . S
N4982 S4980 1.610 . S
N4982 C4983 1.351 . S
C4983 C4977 1.428 . S
C4983 N4982 1.351 . S
C4983 C4984 1.434 . S
C4984 C4975 1.429 . S
C4984 N4981 1.350 . S
C4984 C4983 1.434 . S
C4985 C4986 1.369 . S
C4985 C4987 1.419 . S
C4985 H4989 0.930 . S
C4986 C4985 1.369 . S
C4986 C4995 1.429 . S
C4987 C4985 1.419 . S
C4987 C4988 1.363 . S
C4987 H4990 0.929 . S
C4988 C4987 1.363 . S
C4988 C4994 1.428 . S
H4989 C4985 0.930 . S
H4990 C4987 0.929 . S
S4991 N4992 1.613 . S
S4991 N4993 1.610 . S
N4992 S4991 1.613 . S
N4992 C4995 1.350 . S
N4993 S4991 1.610 . S
N4993 C4994 1.351 . S
C4994 C4988 1.428 . S
C4994 N4993 1.351 . S
C4994 C4995 1.434 . S
C4995 C4986 1.429 . S
C4995 N4992 1.350 . S
C4995 C4994 1.434 . S
C4996 C4997 1.369 . S
C4996 C4998 1.419 . S
C4996 H5000 0.930 . S
C4997 C4996 1.369 . S
C4997 C5006 1.429 . S
C4998 C4996 1.419 . S
C4998 C4999 1.363 . S
C4998 H5001 0.929 . S
C4999 C4998 1.363 . S
C4999 C5005 1.428 . S
H5000 C4996 0.930 . S
H5001 C4998 0.929 . S
S5002 N5003 1.613 . S
S5002 N5004 1.610 . S
N5003 S5002 1.613 . S
N5003 C5006 1.350 . S
N5004 S5002 1.610 . S
N5004 C5005 1.351 . S
C5005 C4999 1.428 . S
C5005 N5004 1.351 . S
C5005 C5006 1.434 . S
C5006 C4997 1.429 . S
C5006 N5003 1.350 . S
C5006 C5005 1.434 . S
C5007 C5008 1.369 . S
C5007 C5009 1.419 . S
C5007 H5011 0.930 . S
C5008 C5007 1.369 . S
C5008 C5017 1.429 . S
C5009 C5007 1.419 . S
C5009 C5010 1.363 . S
C5009 H5012 0.929 . S
C5010 C5009 1.363 . S
C5010 C5016 1.428 . S
H5011 C5007 0.930 . S
H5012 C5009 0.929 . S
S5013 N5014 1.613 . S
S5013 N5015 1.610 . S
N5014 S5013 1.613 . S
N5014 C5017 1.350 . S
N5015 S5013 1.610 . S
N5015 C5016 1.351 . S
C5016 C5010 1.428 . S
C5016 N5015 1.351 . S
C5016 C5017 1.434 . S
C5017 C5008 1.429 . S
C5017 N5014 1.350 . S
C5017 C5016 1.434 . S
C5018 C5019 1.369 . S
C5018 C5020 1.419 . S
C5018 H5022 0.930 . S
C5019 C5018 1.369 . S
C5019 C5028 1.429 . S
C5020 C5018 1.419 . S
C5020 C5021 1.363 . S
C5020 H5023 0.929 . S
C5021 C5020 1.363 . S
C5021 C5027 1.428 . S
H5022 C5018 0.930 . S
H5023 C5020 0.929 . S
S5024 N5025 1.613 . S
S5024 N5026 1.610 . S
N5025 S5024 1.613 . S
N5025 C5028 1.350 . S
N5026 S5024 1.610 . S
N5026 C5027 1.351 . S
C5027 C5021 1.428 . S
C5027 N5026 1.351 . S
C5027 C5028 1.434 . S
C5028 C5019 1.429 . S
C5028 N5025 1.350 . S
C5028 C5027 1.434 . S
C5029 C5030 1.369 . S
C5029 C5031 1.419 . S
C5029 H5033 0.930 . S
C5030 C5029 1.369 . S
C5030 C5039 1.429 . S
C5031 C5029 1.419 . S
C5031 C5032 1.363 . S
C5031 H5034 0.929 . S
C5032 C5031 1.363 . S
C5032 C5038 1.428 . S
H5033 C5029 0.930 . S
H5034 C5031 0.929 . S
S5035 N5036 1.613 . S
S5035 N5037 1.610 . S
N5036 S5035 1.613 . S
N5036 C5039 1.350 . S
N5037 S5035 1.610 . S
N5037 C5038 1.351 . S
C5038 C5032 1.428 . S
C5038 N5037 1.351 . S
C5038 C5039 1.434 . S
C5039 C5030 1.429 . S
C5039 N5036 1.350 . S
C5039 C5038 1.434 . S
C5040 C5041 1.369 . S
C5040 C5042 1.419 . S
C5040 H5044 0.930 . S
C5041 C5040 1.369 . S
C5041 C5050 1.429 . S
C5042 C5040 1.419 . S
C5042 C5043 1.363 . S
C5042 H5045 0.929 . S
C5043 C5042 1.363 . S
C5043 C5049 1.428 . S
H5044 C5040 0.930 . S
H5045 C5042 0.929 . S
S5046 N5047 1.613 . S
S5046 N5048 1.610 . S
N5047 S5046 1.613 . S
N5047 C5050 1.350 . S
N5048 S5046 1.610 . S
N5048 C5049 1.351 . S
C5049 C5043 1.428 . S
C5049 N5048 1.351 . S
C5049 C5050 1.434 . S
C5050 C5041 1.429 . S
C5050 N5047 1.350 . S
C5050 C5049 1.434 . S
C5051 C5052 1.369 . S
C5051 C5053 1.419 . S
C5051 H5055 0.930 . S
C5052 C5051 1.369 . S
C5052 C5061 1.429 . S
C5053 C5051 1.419 . S
C5053 C5054 1.363 . S
C5053 H5056 0.929 . S
C5054 C5053 1.363 . S
C5054 C5060 1.428 . S
H5055 C5051 0.930 . S
H5056 C5053 0.929 . S
S5057 N5058 1.613 . S
S5057 N5059 1.610 . S
N5058 S5057 1.613 . S
N5058 C5061 1.350 . S
N5059 S5057 1.610 . S
N5059 C5060 1.351 . S
C5060 C5054 1.428 . S
C5060 N5059 1.351 . S
C5060 C5061 1.434 . S
C5061 C5052 1.429 . S
C5061 N5058 1.350 . S
C5061 C5060 1.434 . S
C5062 C5063 1.369 . S
C5062 C5064 1.419 . S
C5062 H5066 0.930 . S
C5063 C5062 1.369 . S
C5063 C5072 1.429 . S
C5064 C5062 1.419 . S
C5064 C5065 1.363 . S
C5064 H5067 0.929 . S
C5065 C5064 1.363 . S
C5065 C5071 1.428 . S
H5066 C5062 0.930 . S
H5067 C5064 0.929 . S
S5068 N5069 1.613 . S
S5068 N5070 1.610 . S
N5069 S5068 1.613 . S
N5069 C5072 1.350 . S
N5070 S5068 1.610 . S
N5070 C5071 1.351 . S
C5071 C5065 1.428 . S
C5071 N5070 1.351 . S
C5071 C5072 1.434 . S
C5072 C5063 1.429 . S
C5072 N5069 1.350 . S
C5072 C5071 1.434 . S
C5073 C5074 1.369 . S
C5073 C5075 1.419 . S
C5073 H5077 0.930 . S
C5074 C5073 1.369 . S
C5074 C5083 1.429 . S
C5075 C5073 1.419 . S
C5075 C5076 1.363 . S
C5075 H5078 0.929 . S
C5076 C5075 1.363 . S
C5076 C5082 1.428 . S
H5077 C5073 0.930 . S
H5078 C5075 0.929 . S
S5079 N5080 1.613 . S
S5079 N5081 1.610 . S
N5080 S5079 1.613 . S
N5080 C5083 1.350 . S
N5081 S5079 1.610 . S
N5081 C5082 1.351 . S
C5082 C5076 1.428 . S
C5082 N5081 1.351 . S
C5082 C5083 1.434 . S
C5083 C5074 1.429 . S
C5083 N5080 1.350 . S
C5083 C5082 1.434 . S
C5084 C5085 1.369 . S
C5084 C5086 1.419 . S
C5084 H5088 0.930 . S
C5085 C5084 1.369 . S
C5085 C5094 1.429 . S
C5086 C5084 1.419 . S
C5086 C5087 1.363 . S
C5086 H5089 0.929 . S
C5087 C5086 1.363 . S
C5087 C5093 1.428 . S
H5088 C5084 0.930 . S
H5089 C5086 0.929 . S
S5090 N5091 1.613 . S
S5090 N5092 1.610 . S
N5091 S5090 1.613 . S
N5091 C5094 1.350 . S
N5092 S5090 1.610 . S
N5092 C5093 1.351 . S
C5093 C5087 1.428 . S
C5093 N5092 1.351 . S
C5093 C5094 1.434 . S
C5094 C5085 1.429 . S
C5094 N5091 1.350 . S
C5094 C5093 1.434 . S
C5095 C5096 1.369 . S
C5095 C5097 1.419 . S
C5095 H5099 0.930 . S
C5096 C5095 1.369 . S
C5096 C5105 1.429 . S
C5097 C5095 1.419 . S
C5097 C5098 1.363 . S
C5097 H5100 0.929 . S
C5098 C5097 1.363 . S
C5098 C5104 1.428 . S
H5099 C5095 0.930 . S
H5100 C5097 0.929 . S
S5101 N5102 1.613 . S
S5101 N5103 1.610 . S
N5102 S5101 1.613 . S
N5102 C5105 1.350 . S
N5103 S5101 1.610 . S
N5103 C5104 1.351 . S
C5104 C5098 1.428 . S
C5104 N5103 1.351 . S
C5104 C5105 1.434 . S
C5105 C5096 1.429 . S
C5105 N5102 1.350 . S
C5105 C5104 1.434 . S
C5106 C5107 1.369 . S
C5106 C5108 1.419 . S
C5106 H5110 0.930 . S
C5107 C5106 1.369 . S
C5107 C5116 1.429 . S
C5108 C5106 1.419 . S
C5108 C5109 1.363 . S
C5108 H5111 0.929 . S
C5109 C5108 1.363 . S
C5109 C5115 1.428 . S
H5110 C5106 0.930 . S
H5111 C5108 0.929 . S
S5112 N5113 1.613 . S
S5112 N5114 1.610 . S
N5113 S5112 1.613 . S
N5113 C5116 1.350 . S
N5114 S5112 1.610 . S
N5114 C5115 1.351 . S
C5115 C5109 1.428 . S
C5115 N5114 1.351 . S
C5115 C5116 1.434 . S
C5116 C5107 1.429 . S
C5116 N5113 1.350 . S
C5116 C5115 1.434 . S
C5117 C5118 1.369 . S
C5117 C5119 1.419 . S
C5117 H5121 0.930 . S
C5118 C5117 1.369 . S
C5118 C5127 1.429 . S
C5119 C5117 1.419 . S
C5119 C5120 1.363 . S
C5119 H5122 0.929 . S
C5120 C5119 1.363 . S
C5120 C5126 1.428 . S
H5121 C5117 0.930 . S
H5122 C5119 0.929 . S
S5123 N5124 1.613 . S
S5123 N5125 1.610 . S
N5124 S5123 1.613 . S
N5124 C5127 1.350 . S
N5125 S5123 1.610 . S
N5125 C5126 1.351 . S
C5126 C5120 1.428 . S
C5126 N5125 1.351 . S
C5126 C5127 1.434 . S
C5127 C5118 1.429 . S
C5127 N5124 1.350 . S
C5127 C5126 1.434 . S
C5128 C5129 1.369 . S
C5128 C5130 1.419 . S
C5128 H5132 0.930 . S
C5129 C5128 1.369 . S
C5129 C5138 1.429 . S
C5130 C5128 1.419 . S
C5130 C5131 1.363 . S
C5130 H5133 0.929 . S
C5131 C5130 1.363 . S
C5131 C5137 1.428 . S
H5132 C5128 0.930 . S
H5133 C5130 0.929 . S
S5134 N5135 1.613 . S
S5134 N5136 1.610 . S
N5135 S5134 1.613 . S
N5135 C5138 1.350 . S
N5136 S5134 1.610 . S
N5136 C5137 1.351 . S
C5137 C5131 1.428 . S
C5137 N5136 1.351 . S
C5137 C5138 1.434 . S
C5138 C5129 1.429 . S
C5138 N5135 1.350 . S
C5138 C5137 1.434 . S
C5139 C5140 1.369 . S
C5139 C5141 1.419 . S
C5139 H5143 0.930 . S
C5140 C5139 1.369 . S
C5140 C5149 1.429 . S
C5141 C5139 1.419 . S
C5141 C5142 1.363 . S
C5141 H5144 0.929 . S
C5142 C5141 1.363 . S
C5142 C5148 1.428 . S
H5143 C5139 0.930 . S
H5144 C5141 0.929 . S
S5145 N5146 1.613 . S
S5145 N5147 1.610 . S
N5146 S5145 1.613 . S
N5146 C5149 1.350 . S
N5147 S5145 1.610 . S
N5147 C5148 1.351 . S
C5148 C5142 1.428 . S
C5148 N5147 1.351 . S
C5148 C5149 1.434 . S
C5149 C5140 1.429 . S
C5149 N5146 1.350 . S
C5149 C5148 1.434 . S
C5150 C5151 1.369 . S
C5150 C5152 1.419 . S
C5150 H5154 0.930 . S
C5151 C5150 1.369 . S
C5151 C5160 1.429 . S
C5152 C5150 1.419 . S
C5152 C5153 1.363 . S
C5152 H5155 0.929 . S
C5153 C5152 1.363 . S
C5153 C5159 1.428 . S
H5154 C5150 0.930 . S
H5155 C5152 0.929 . S
S5156 N5157 1.613 . S
S5156 N5158 1.610 . S
N5157 S5156 1.613 . S
N5157 C5160 1.350 . S
N5158 S5156 1.610 . S
N5158 C5159 1.351 . S
C5159 C5153 1.428 . S
C5159 N5158 1.351 . S
C5159 C5160 1.434 . S
C5160 C5151 1.429 . S
C5160 N5157 1.350 . S
C5160 C5159 1.434 . S
C5161 C5162 1.369 . S
C5161 C5163 1.419 . S
C5161 H5165 0.930 . S
C5162 C5161 1.369 . S
C5162 C5171 1.429 . S
C5163 C5161 1.419 . S
C5163 C5164 1.363 . S
C5163 H5166 0.929 . S
C5164 C5163 1.363 . S
C5164 C5170 1.428 . S
H5165 C5161 0.930 . S
H5166 C5163 0.929 . S
S5167 N5168 1.613 . S
S5167 N5169 1.610 . S
N5168 S5167 1.613 . S
N5168 C5171 1.350 . S
N5169 S5167 1.610 . S
N5169 C5170 1.351 . S
C5170 C5164 1.428 . S
C5170 N5169 1.351 . S
C5170 C5171 1.434 . S
C5171 C5162 1.429 . S
C5171 N5168 1.350 . S
C5171 C5170 1.434 . S
C5172 C5173 1.369 . S
C5172 C5174 1.419 . S
C5172 H5176 0.930 . S
C5173 C5172 1.369 . S
C5173 C5182 1.429 . S
C5174 C5172 1.419 . S
C5174 C5175 1.363 . S
C5174 H5177 0.929 . S
C5175 C5174 1.363 . S
C5175 C5181 1.428 . S
H5176 C5172 0.930 . S
H5177 C5174 0.929 . S
S5178 N5179 1.613 . S
S5178 N5180 1.610 . S
N5179 S5178 1.613 . S
N5179 C5182 1.350 . S
N5180 S5178 1.610 . S
N5180 C5181 1.351 . S
C5181 C5175 1.428 . S
C5181 N5180 1.351 . S
C5181 C5182 1.434 . S
C5182 C5173 1.429 . S
C5182 N5179 1.350 . S
C5182 C5181 1.434 . S
C5183 C5184 1.369 . S
C5183 C5185 1.419 . S
C5183 H5187 0.930 . S
C5184 C5183 1.369 . S
C5184 C5193 1.429 . S
C5185 C5183 1.419 . S
C5185 C5186 1.363 . S
C5185 H5188 0.929 . S
C5186 C5185 1.363 . S
C5186 C5192 1.428 . S
H5187 C5183 0.930 . S
H5188 C5185 0.929 . S
S5189 N5190 1.613 . S
S5189 N5191 1.610 . S
N5190 S5189 1.613 . S
N5190 C5193 1.350 . S
N5191 S5189 1.610 . S
N5191 C5192 1.351 . S
C5192 C5186 1.428 . S
C5192 N5191 1.351 . S
C5192 C5193 1.434 . S
C5193 C5184 1.429 . S
C5193 N5190 1.350 . S
C5193 C5192 1.434 . S
C5194 C5195 1.369 . S
C5194 C5196 1.419 . S
C5194 H5198 0.930 . S
C5195 C5194 1.369 . S
C5195 C5204 1.429 . S
C5196 C5194 1.419 . S
C5196 C5197 1.363 . S
C5196 H5199 0.929 . S
C5197 C5196 1.363 . S
C5197 C5203 1.428 . S
H5198 C5194 0.930 . S
H5199 C5196 0.929 . S
S5200 N5201 1.613 . S
S5200 N5202 1.610 . S
N5201 S5200 1.613 . S
N5201 C5204 1.350 . S
N5202 S5200 1.610 . S
N5202 C5203 1.351 . S
C5203 C5197 1.428 . S
C5203 N5202 1.351 . S
C5203 C5204 1.434 . S
C5204 C5195 1.429 . S
C5204 N5201 1.350 . S
C5204 C5203 1.434 . S
C5205 C5206 1.369 . S
C5205 C5207 1.419 . S
C5205 H5209 0.930 . S
C5206 C5205 1.369 . S
C5206 C5215 1.429 . S
C5207 C5205 1.419 . S
C5207 C5208 1.363 . S
C5207 H5210 0.929 . S
C5208 C5207 1.363 . S
C5208 C5214 1.428 . S
H5209 C5205 0.930 . S
H5210 C5207 0.929 . S
S5211 N5212 1.613 . S
S5211 N5213 1.610 . S
N5212 S5211 1.613 . S
N5212 C5215 1.350 . S
N5213 S5211 1.610 . S
N5213 C5214 1.351 . S
C5214 C5208 1.428 . S
C5214 N5213 1.351 . S
C5214 C5215 1.434 . S
C5215 C5206 1.429 . S
C5215 N5212 1.350 . S
C5215 C5214 1.434 . S
C5216 C5217 1.369 . S
C5216 C5218 1.419 . S
C5216 H5220 0.930 . S
C5217 C5216 1.369 . S
C5217 C5226 1.429 . S
C5218 C5216 1.419 . S
C5218 C5219 1.363 . S
C5218 H5221 0.929 . S
C5219 C5218 1.363 . S
C5219 C5225 1.428 . S
H5220 C5216 0.930 . S
H5221 C5218 0.929 . S
S5222 N5223 1.613 . S
S5222 N5224 1.610 . S
N5223 S5222 1.613 . S
N5223 C5226 1.350 . S
N5224 S5222 1.610 . S
N5224 C5225 1.351 . S
C5225 C5219 1.428 . S
C5225 N5224 1.351 . S
C5225 C5226 1.434 . S
C5226 C5217 1.429 . S
C5226 N5223 1.350 . S
C5226 C5225 1.434 . S
C5227 C5228 1.369 . S
C5227 C5229 1.419 . S
C5227 H5231 0.930 . S
C5228 C5227 1.369 . S
C5228 C5237 1.429 . S
C5229 C5227 1.419 . S
C5229 C5230 1.363 . S
C5229 H5232 0.929 . S
C5230 C5229 1.363 . S
C5230 C5236 1.428 . S
H5231 C5227 0.930 . S
H5232 C5229 0.929 . S
S5233 N5234 1.613 . S
S5233 N5235 1.610 . S
N5234 S5233 1.613 . S
N5234 C5237 1.350 . S
N5235 S5233 1.610 . S
N5235 C5236 1.351 . S
C5236 C5230 1.428 . S
C5236 N5235 1.351 . S
C5236 C5237 1.434 . S
C5237 C5228 1.429 . S
C5237 N5234 1.350 . S
C5237 C5236 1.434 . S
C5238 C5239 1.369 . S
C5238 C5240 1.419 . S
C5238 H5242 0.930 . S
C5239 C5238 1.369 . S
C5239 C5248 1.429 . S
C5240 C5238 1.419 . S
C5240 C5241 1.363 . S
C5240 H5243 0.929 . S
C5241 C5240 1.363 . S
C5241 C5247 1.428 . S
H5242 C5238 0.930 . S
H5243 C5240 0.929 . S
S5244 N5245 1.613 . S
S5244 N5246 1.610 . S
N5245 S5244 1.613 . S
N5245 C5248 1.350 . S
N5246 S5244 1.610 . S
N5246 C5247 1.351 . S
C5247 C5241 1.428 . S
C5247 N5246 1.351 . S
C5247 C5248 1.434 . S
C5248 C5239 1.429 . S
C5248 N5245 1.350 . S
C5248 C5247 1.434 . S
C5249 C5250 1.369 . S
C5249 C5251 1.419 . S
C5249 H5253 0.930 . S
C5250 C5249 1.369 . S
C5250 C5259 1.429 . S
C5251 C5249 1.419 . S
C5251 C5252 1.363 . S
C5251 H5254 0.929 . S
C5252 C5251 1.363 . S
C5252 C5258 1.428 . S
H5253 C5249 0.930 . S
H5254 C5251 0.929 . S
S5255 N5256 1.613 . S
S5255 N5257 1.610 . S
N5256 S5255 1.613 . S
N5256 C5259 1.350 . S
N5257 S5255 1.610 . S
N5257 C5258 1.351 . S
C5258 C5252 1.428 . S
C5258 N5257 1.351 . S
C5258 C5259 1.434 . S
C5259 C5250 1.429 . S
C5259 N5256 1.350 . S
C5259 C5258 1.434 . S
C5260 C5261 1.369 . S
C5260 C5262 1.419 . S
C5260 H5264 0.930 . S
C5261 C5260 1.369 . S
C5261 C5270 1.429 . S
C5262 C5260 1.419 . S
C5262 C5263 1.363 . S
C5262 H5265 0.929 . S
C5263 C5262 1.363 . S
C5263 C5269 1.428 . S
H5264 C5260 0.930 . S
H5265 C5262 0.929 . S
S5266 N5267 1.613 . S
S5266 N5268 1.610 . S
N5267 S5266 1.613 . S
N5267 C5270 1.350 . S
N5268 S5266 1.610 . S
N5268 C5269 1.351 . S
C5269 C5263 1.428 . S
C5269 N5268 1.351 . S
C5269 C5270 1.434 . S
C5270 C5261 1.429 . S
C5270 N5267 1.350 . S
C5270 C5269 1.434 . S
C5271 C5272 1.369 . S
C5271 C5273 1.419 . S
C5271 H5275 0.930 . S
C5272 C5271 1.369 . S
C5272 C5281 1.429 . S
C5273 C5271 1.419 . S
C5273 C5274 1.363 . S
C5273 H5276 0.929 . S
C5274 C5273 1.363 . S
C5274 C5280 1.428 . S
H5275 C5271 0.930 . S
H5276 C5273 0.929 . S
S5277 N5278 1.613 . S
S5277 N5279 1.610 . S
N5278 S5277 1.613 . S
N5278 C5281 1.350 . S
N5279 S5277 1.610 . S
N5279 C5280 1.351 . S
C5280 C5274 1.428 . S
C5280 N5279 1.351 . S
C5280 C5281 1.434 . S
C5281 C5272 1.429 . S
C5281 N5278 1.350 . S
C5281 C5280 1.434 . S
C5282 C5283 1.369 . S
C5282 C5284 1.419 . S
C5282 H5286 0.930 . S
C5283 C5282 1.369 . S
C5283 C5292 1.429 . S
C5284 C5282 1.419 . S
C5284 C5285 1.363 . S
C5284 H5287 0.929 . S
C5285 C5284 1.363 . S
C5285 C5291 1.428 . S
H5286 C5282 0.930 . S
H5287 C5284 0.929 . S
S5288 N5289 1.613 . S
S5288 N5290 1.610 . S
N5289 S5288 1.613 . S
N5289 C5292 1.350 . S
N5290 S5288 1.610 . S
N5290 C5291 1.351 . S
C5291 C5285 1.428 . S
C5291 N5290 1.351 . S
C5291 C5292 1.434 . S
C5292 C5283 1.429 . S
C5292 N5289 1.350 . S
C5292 C5291 1.434 . S
C5293 C5294 1.369 . S
C5293 C5295 1.419 . S
C5293 H5297 0.930 . S
C5294 C5293 1.369 . S
C5294 C5303 1.429 . S
C5295 C5293 1.419 . S
C5295 C5296 1.363 . S
C5295 H5298 0.929 . S
C5296 C5295 1.363 . S
C5296 C5302 1.428 . S
H5297 C5293 0.930 . S
H5298 C5295 0.929 . S
S5299 N5300 1.613 . S
S5299 N5301 1.610 . S
N5300 S5299 1.613 . S
N5300 C5303 1.350 . S
N5301 S5299 1.610 . S
N5301 C5302 1.351 . S
C5302 C5296 1.428 . S
C5302 N5301 1.351 . S
C5302 C5303 1.434 . S
C5303 C5294 1.429 . S
C5303 N5300 1.350 . S
C5303 C5302 1.434 . S
C5304 C5305 1.369 . S
C5304 C5306 1.419 . S
C5304 H5308 0.930 . S
C5305 C5304 1.369 . S
C5305 C5314 1.429 . S
C5306 C5304 1.419 . S
C5306 C5307 1.363 . S
C5306 H5309 0.929 . S
C5307 C5306 1.363 . S
C5307 C5313 1.428 . S
H5308 C5304 0.930 . S
H5309 C5306 0.929 . S
S5310 N5311 1.613 . S
S5310 N5312 1.610 . S
N5311 S5310 1.613 . S
N5311 C5314 1.350 . S
N5312 S5310 1.610 . S
N5312 C5313 1.351 . S
C5313 C5307 1.428 . S
C5313 N5312 1.351 . S
C5313 C5314 1.434 . S
C5314 C5305 1.429 . S
C5314 N5311 1.350 . S
C5314 C5313 1.434 . S
C5315 C5316 1.369 . S
C5315 C5317 1.419 . S
C5315 H5319 0.930 . S
C5316 C5315 1.369 . S
C5316 C5325 1.429 . S
C5317 C5315 1.419 . S
C5317 C5318 1.363 . S
C5317 H5320 0.929 . S
C5318 C5317 1.363 . S
C5318 C5324 1.428 . S
H5319 C5315 0.930 . S
H5320 C5317 0.929 . S
S5321 N5322 1.613 . S
S5321 N5323 1.610 . S
N5322 S5321 1.613 . S
N5322 C5325 1.350 . S
N5323 S5321 1.610 . S
N5323 C5324 1.351 . S
C5324 C5318 1.428 . S
C5324 N5323 1.351 . S
C5324 C5325 1.434 . S
C5325 C5316 1.429 . S
C5325 N5322 1.350 . S
C5325 C5324 1.434 . S
C5326 C5327 1.369 . S
C5326 C5328 1.419 . S
C5326 H5330 0.930 . S
C5327 C5326 1.369 . S
C5327 C5336 1.429 . S
C5328 C5326 1.419 . S
C5328 C5329 1.363 . S
C5328 H5331 0.929 . S
C5329 C5328 1.363 . S
C5329 C5335 1.428 . S
H5330 C5326 0.930 . S
H5331 C5328 0.929 . S
S5332 N5333 1.613 . S
S5332 N5334 1.610 . S
N5333 S5332 1.613 . S
N5333 C5336 1.350 . S
N5334 S5332 1.610 . S
N5334 C5335 1.351 . S
C5335 C5329 1.428 . S
C5335 N5334 1.351 . S
C5335 C5336 1.434 . S
C5336 C5327 1.429 . S
C5336 N5333 1.350 . S
C5336 C5335 1.434 . S
C5337 C5338 1.369 . S
C5337 C5339 1.419 . S
C5337 H5341 0.930 . S
C5338 C5337 1.369 . S
C5338 C5347 1.429 . S
C5339 C5337 1.419 . S
C5339 C5340 1.363 . S
C5339 H5342 0.929 . S
C5340 C5339 1.363 . S
C5340 C5346 1.428 . S
H5341 C5337 0.930 . S
H5342 C5339 0.929 . S
S5343 N5344 1.613 . S
S5343 N5345 1.610 . S
N5344 S5343 1.613 . S
N5344 C5347 1.350 . S
N5345 S5343 1.610 . S
N5345 C5346 1.351 . S
C5346 C5340 1.428 . S
C5346 N5345 1.351 . S
C5346 C5347 1.434 . S
C5347 C5338 1.429 . S
C5347 N5344 1.350 . S
C5347 C5346 1.434 . S
C5348 C5349 1.369 . S
C5348 C5350 1.419 . S
C5348 H5352 0.930 . S
C5349 C5348 1.369 . S
C5349 C5358 1.429 . S
C5350 C5348 1.419 . S
C5350 C5351 1.363 . S
C5350 H5353 0.929 . S
C5351 C5350 1.363 . S
C5351 C5357 1.428 . S
H5352 C5348 0.930 . S
H5353 C5350 0.929 . S
S5354 N5355 1.613 . S
S5354 N5356 1.610 . S
N5355 S5354 1.613 . S
N5355 C5358 1.350 . S
N5356 S5354 1.610 . S
N5356 C5357 1.351 . S
C5357 C5351 1.428 . S
C5357 N5356 1.351 . S
C5357 C5358 1.434 . S
C5358 C5349 1.429 . S
C5358 N5355 1.350 . S
C5358 C5357 1.434 . S
C5359 C5360 1.369 . S
C5359 C5361 1.419 . S
C5359 H5363 0.930 . S
C5360 C5359 1.369 . S
C5360 C5369 1.429 . S
C5361 C5359 1.419 . S
C5361 C5362 1.363 . S
C5361 H5364 0.929 . S
C5362 C5361 1.363 . S
C5362 C5368 1.428 . S
H5363 C5359 0.930 . S
H5364 C5361 0.929 . S
S5365 N5366 1.613 . S
S5365 N5367 1.610 . S
N5366 S5365 1.613 . S
N5366 C5369 1.350 . S
N5367 S5365 1.610 . S
N5367 C5368 1.351 . S
C5368 C5362 1.428 . S
C5368 N5367 1.351 . S
C5368 C5369 1.434 . S
C5369 C5360 1.429 . S
C5369 N5366 1.350 . S
C5369 C5368 1.434 . S
C5370 C5371 1.369 . S
C5370 C5372 1.419 . S
C5370 H5374 0.930 . S
C5371 C5370 1.369 . S
C5371 C5380 1.429 . S
C5372 C5370 1.419 . S
C5372 C5373 1.363 . S
C5372 H5375 0.929 . S
C5373 C5372 1.363 . S
C5373 C5379 1.428 . S
H5374 C5370 0.930 . S
H5375 C5372 0.929 . S
S5376 N5377 1.613 . S
S5376 N5378 1.610 . S
N5377 S5376 1.613 . S
N5377 C5380 1.350 . S
N5378 S5376 1.610 . S
N5378 C5379 1.351 . S
C5379 C5373 1.428 . S
C5379 N5378 1.351 . S
C5379 C5380 1.434 . S
C5380 C5371 1.429 . S
C5380 N5377 1.350 . S
C5380 C5379 1.434 . S
C5381 C5382 1.369 . S
C5381 C5383 1.419 . S
C5381 H5385 0.930 . S
C5382 C5381 1.369 . S
C5382 C5391 1.429 . S
C5383 C5381 1.419 . S
C5383 C5384 1.363 . S
C5383 H5386 0.929 . S
C5384 C5383 1.363 . S
C5384 C5390 1.428 . S
H5385 C5381 0.930 . S
H5386 C5383 0.929 . S
S5387 N5388 1.613 . S
S5387 N5389 1.610 . S
N5388 S5387 1.613 . S
N5388 C5391 1.350 . S
N5389 S5387 1.610 . S
N5389 C5390 1.351 . S
C5390 C5384 1.428 . S
C5390 N5389 1.351 . S
C5390 C5391 1.434 . S
C5391 C5382 1.429 . S
C5391 N5388 1.350 . S
C5391 C5390 1.434 . S
C5392 C5393 1.369 . S
C5392 C5394 1.419 . S
C5392 H5396 0.930 . S
C5393 C5392 1.369 . S
C5393 C5402 1.429 . S
C5394 C5392 1.419 . S
C5394 C5395 1.363 . S
C5394 H5397 0.929 . S
C5395 C5394 1.363 . S
C5395 C5401 1.428 . S
H5396 C5392 0.930 . S
H5397 C5394 0.929 . S
S5398 N5399 1.613 . S
S5398 N5400 1.610 . S
N5399 S5398 1.613 . S
N5399 C5402 1.350 . S
N5400 S5398 1.610 . S
N5400 C5401 1.351 . S
C5401 C5395 1.428 . S
C5401 N5400 1.351 . S
C5401 C5402 1.434 . S
C5402 C5393 1.429 . S
C5402 N5399 1.350 . S
C5402 C5401 1.434 . S
C5403 C5404 1.369 . S
C5403 C5405 1.419 . S
C5403 H5407 0.930 . S
C5404 C5403 1.369 . S
C5404 C5413 1.429 . S
C5405 C5403 1.419 . S
C5405 C5406 1.363 . S
C5405 H5408 0.929 . S
C5406 C5405 1.363 . S
C5406 C5412 1.428 . S
H5407 C5403 0.930 . S
H5408 C5405 0.929 . S
S5409 N5410 1.613 . S
S5409 N5411 1.610 . S
N5410 S5409 1.613 . S
N5410 C5413 1.350 . S
N5411 S5409 1.610 . S
N5411 C5412 1.351 . S
C5412 C5406 1.428 . S
C5412 N5411 1.351 . S
C5412 C5413 1.434 . S
C5413 C5404 1.429 . S
C5413 N5410 1.350 . S
C5413 C5412 1.434 . S
C5414 C5415 1.369 . S
C5414 C5416 1.419 . S
C5414 H5418 0.930 . S
C5415 C5414 1.369 . S
C5415 C5424 1.429 . S
C5416 C5414 1.419 . S
C5416 C5417 1.363 . S
C5416 H5419 0.929 . S
C5417 C5416 1.363 . S
C5417 C5423 1.428 . S
H5418 C5414 0.930 . S
H5419 C5416 0.929 . S
S5420 N5421 1.613 . S
S5420 N5422 1.610 . S
N5421 S5420 1.613 . S
N5421 C5424 1.350 . S
N5422 S5420 1.610 . S
N5422 C5423 1.351 . S
C5423 C5417 1.428 . S
C5423 N5422 1.351 . S
C5423 C5424 1.434 . S
C5424 C5415 1.429 . S
C5424 N5421 1.350 . S
C5424 C5423 1.434 . S
C5425 C5426 1.369 . S
C5425 C5427 1.419 . S
C5425 H5429 0.930 . S
C5426 C5425 1.369 . S
C5426 C5435 1.429 . S
C5427 C5425 1.419 . S
C5427 C5428 1.363 . S
C5427 H5430 0.929 . S
C5428 C5427 1.363 . S
C5428 C5434 1.428 . S
H5429 C5425 0.930 . S
H5430 C5427 0.929 . S
S5431 N5432 1.613 . S
S5431 N5433 1.610 . S
N5432 S5431 1.613 . S
N5432 C5435 1.350 . S
N5433 S5431 1.610 . S
N5433 C5434 1.351 . S
C5434 C5428 1.428 . S
C5434 N5433 1.351 . S
C5434 C5435 1.434 . S
C5435 C5426 1.429 . S
C5435 N5432 1.350 . S
C5435 C5434 1.434 . S
C5436 C5437 1.369 . S
C5436 C5438 1.419 . S
C5436 H5440 0.930 . S
C5437 C5436 1.369 . S
C5437 C5446 1.429 . S
C5438 C5436 1.419 . S
C5438 C5439 1.363 . S
C5438 H5441 0.929 . S
C5439 C5438 1.363 . S
C5439 C5445 1.428 . S
H5440 C5436 0.930 . S
H5441 C5438 0.929 . S
S5442 N5443 1.613 . S
S5442 N5444 1.610 . S
N5443 S5442 1.613 . S
N5443 C5446 1.350 . S
N5444 S5442 1.610 . S
N5444 C5445 1.351 . S
C5445 C5439 1.428 . S
C5445 N5444 1.351 . S
C5445 C5446 1.434 . S
C5446 C5437 1.429 . S
C5446 N5443 1.350 . S
C5446 C5445 1.434 . S
C5447 C5448 1.369 . S
C5447 C5449 1.419 . S
C5447 H5451 0.930 . S
C5448 C5447 1.369 . S
C5448 C5457 1.429 . S
C5449 C5447 1.419 . S
C5449 C5450 1.363 . S
C5449 H5452 0.929 . S
C5450 C5449 1.363 . S
C5450 C5456 1.428 . S
H5451 C5447 0.930 . S
H5452 C5449 0.929 . S
S5453 N5454 1.613 . S
S5453 N5455 1.610 . S
N5454 S5453 1.613 . S
N5454 C5457 1.350 . S
N5455 S5453 1.610 . S
N5455 C5456 1.351 . S
C5456 C5450 1.428 . S
C5456 N5455 1.351 . S
C5456 C5457 1.434 . S
C5457 C5448 1.429 . S
C5457 N5454 1.350 . S
C5457 C5456 1.434 . S
C5458 C5459 1.369 . S
C5458 C5460 1.419 . S
C5458 H5462 0.930 . S
C5459 C5458 1.369 . S
C5459 C5468 1.429 . S
C5460 C5458 1.419 . S
C5460 C5461 1.363 . S
C5460 H5463 0.929 . S
C5461 C5460 1.363 . S
C5461 C5467 1.428 . S
H5462 C5458 0.930 . S
H5463 C5460 0.929 . S
S5464 N5465 1.613 . S
S5464 N5466 1.610 . S
N5465 S5464 1.613 . S
N5465 C5468 1.350 . S
N5466 S5464 1.610 . S
N5466 C5467 1.351 . S
C5467 C5461 1.428 . S
C5467 N5466 1.351 . S
C5467 C5468 1.434 . S
C5468 C5459 1.429 . S
C5468 N5465 1.350 . S
C5468 C5467 1.434 . S
C5469 C5470 1.369 . S
C5469 C5471 1.419 . S
C5469 H5473 0.930 . S
C5470 C5469 1.369 . S
C5470 C5479 1.429 . S
C5471 C5469 1.419 . S
C5471 C5472 1.363 . S
C5471 H5474 0.929 . S
C5472 C5471 1.363 . S
C5472 C5478 1.428 . S
H5473 C5469 0.930 . S
H5474 C5471 0.929 . S
S5475 N5476 1.613 . S
S5475 N5477 1.610 . S
N5476 S5475 1.613 . S
N5476 C5479 1.350 . S
N5477 S5475 1.610 . S
N5477 C5478 1.351 . S
C5478 C5472 1.428 . S
C5478 N5477 1.351 . S
C5478 C5479 1.434 . S
C5479 C5470 1.429 . S
C5479 N5476 1.350 . S
C5479 C5478 1.434 . S
C5480 C5481 1.369 . S
C5480 C5482 1.419 . S
C5480 H5484 0.930 . S
C5481 C5480 1.369 . S
C5481 C5490 1.429 . S
C5482 C5480 1.419 . S
C5482 C5483 1.363 . S
C5482 H5485 0.929 . S
C5483 C5482 1.363 . S
C5483 C5489 1.428 . S
H5484 C5480 0.930 . S
H5485 C5482 0.929 . S
S5486 N5487 1.613 . S
S5486 N5488 1.610 . S
N5487 S5486 1.613 . S
N5487 C5490 1.350 . S
N5488 S5486 1.610 . S
N5488 C5489 1.351 . S
C5489 C5483 1.428 . S
C5489 N5488 1.351 . S
C5489 C5490 1.434 . S
C5490 C5481 1.429 . S
C5490 N5487 1.350 . S
C5490 C5489 1.434 . S
C5491 C5492 1.369 . S
C5491 C5493 1.419 . S
C5491 H5495 0.930 . S
C5492 C5491 1.369 . S
C5492 C5501 1.429 . S
C5493 C5491 1.419 . S
C5493 C5494 1.363 . S
C5493 H5496 0.929 . S
C5494 C5493 1.363 . S
C5494 C5500 1.428 . S
H5495 C5491 0.930 . S
H5496 C5493 0.929 . S
S5497 N5498 1.613 . S
S5497 N5499 1.610 . S
N5498 S5497 1.613 . S
N5498 C5501 1.350 . S
N5499 S5497 1.610 . S
N5499 C5500 1.351 . S
C5500 C5494 1.428 . S
C5500 N5499 1.351 . S
C5500 C5501 1.434 . S
C5501 C5492 1.429 . S
C5501 N5498 1.350 . S
C5501 C5500 1.434 . S
C5502 C5503 1.369 . S
C5502 C5504 1.419 . S
C5502 H5506 0.930 . S
C5503 C5502 1.369 . S
C5503 C5512 1.429 . S
C5504 C5502 1.419 . S
C5504 C5505 1.363 . S
C5504 H5507 0.929 . S
C5505 C5504 1.363 . S
C5505 C5511 1.428 . S
H5506 C5502 0.930 . S
H5507 C5504 0.929 . S
S5508 N5509 1.613 . S
S5508 N5510 1.610 . S
N5509 S5508 1.613 . S
N5509 C5512 1.350 . S
N5510 S5508 1.610 . S
N5510 C5511 1.351 . S
C5511 C5505 1.428 . S
C5511 N5510 1.351 . S
C5511 C5512 1.434 . S
C5512 C5503 1.429 . S
C5512 N5509 1.350 . S
C5512 C5511 1.434 . S
C5513 C5514 1.369 . S
C5513 C5515 1.419 . S
C5513 H5517 0.930 . S
C5514 C5513 1.369 . S
C5514 C5523 1.429 . S
C5515 C5513 1.419 . S
C5515 C5516 1.363 . S
C5515 H5518 0.929 . S
C5516 C5515 1.363 . S
C5516 C5522 1.428 . S
H5517 C5513 0.930 . S
H5518 C5515 0.929 . S
S5519 N5520 1.613 . S
S5519 N5521 1.610 . S
N5520 S5519 1.613 . S
N5520 C5523 1.350 . S
N5521 S5519 1.610 . S
N5521 C5522 1.351 . S
C5522 C5516 1.428 . S
C5522 N5521 1.351 . S
C5522 C5523 1.434 . S
C5523 C5514 1.429 . S
C5523 N5520 1.350 . S
C5523 C5522 1.434 . S
C5524 C5525 1.369 . S
C5524 C5526 1.419 . S
C5524 H5528 0.930 . S
C5525 C5524 1.369 . S
C5525 C5534 1.429 . S
C5526 C5524 1.419 . S
C5526 C5527 1.363 . S
C5526 H5529 0.929 . S
C5527 C5526 1.363 . S
C5527 C5533 1.428 . S
H5528 C5524 0.930 . S
H5529 C5526 0.929 . S
S5530 N5531 1.613 . S
S5530 N5532 1.610 . S
N5531 S5530 1.613 . S
N5531 C5534 1.350 . S
N5532 S5530 1.610 . S
N5532 C5533 1.351 . S
C5533 C5527 1.428 . S
C5533 N5532 1.351 . S
C5533 C5534 1.434 . S
C5534 C5525 1.429 . S
C5534 N5531 1.350 . S
C5534 C5533 1.434 . S
C5535 C5536 1.369 . S
C5535 C5537 1.419 . S
C5535 H5539 0.930 . S
C5536 C5535 1.369 . S
C5536 C5545 1.429 . S
C5537 C5535 1.419 . S
C5537 C5538 1.363 . S
C5537 H5540 0.929 . S
C5538 C5537 1.363 . S
C5538 C5544 1.428 . S
H5539 C5535 0.930 . S
H5540 C5537 0.929 . S
S5541 N5542 1.613 . S
S5541 N5543 1.610 . S
N5542 S5541 1.613 . S
N5542 C5545 1.350 . S
N5543 S5541 1.610 . S
N5543 C5544 1.351 . S
C5544 C5538 1.428 . S
C5544 N5543 1.351 . S
C5544 C5545 1.434 . S
C5545 C5536 1.429 . S
C5545 N5542 1.350 . S
C5545 C5544 1.434 . S
C5546 C5547 1.369 . S
C5546 C5548 1.419 . S
C5546 H5550 0.930 . S
C5547 C5546 1.369 . S
C5547 C5556 1.429 . S
C5548 C5546 1.419 . S
C5548 C5549 1.363 . S
C5548 H5551 0.929 . S
C5549 C5548 1.363 . S
C5549 C5555 1.428 . S
H5550 C5546 0.930 . S
H5551 C5548 0.929 . S
S5552 N5553 1.613 . S
S5552 N5554 1.610 . S
N5553 S5552 1.613 . S
N5553 C5556 1.350 . S
N5554 S5552 1.610 . S
N5554 C5555 1.351 . S
C5555 C5549 1.428 . S
C5555 N5554 1.351 . S
C5555 C5556 1.434 . S
C5556 C5547 1.429 . S
C5556 N5553 1.350 . S
C5556 C5555 1.434 . S
C5557 C5558 1.369 . S
C5557 C5559 1.419 . S
C5557 H5561 0.930 . S
C5558 C5557 1.369 . S
C5558 C5567 1.429 . S
C5559 C5557 1.419 . S
C5559 C5560 1.363 . S
C5559 H5562 0.929 . S
C5560 C5559 1.363 . S
C5560 C5566 1.428 . S
H5561 C5557 0.930 . S
H5562 C5559 0.929 . S
S5563 N5564 1.613 . S
S5563 N5565 1.610 . S
N5564 S5563 1.613 . S
N5564 C5567 1.350 . S
N5565 S5563 1.610 . S
N5565 C5566 1.351 . S
C5566 C5560 1.428 . S
C5566 N5565 1.351 . S
C5566 C5567 1.434 . S
C5567 C5558 1.429 . S
C5567 N5564 1.350 . S
C5567 C5566 1.434 . S
C3457 C4 1.586 . S
C3459 C2452 1.583 . S
C3468 C2344 1.587 . S
C3470 C40 1.584 . S
C3479 C2380 1.586 . S
C3481 C76 1.586 . S
C3490 C112 1.586 . S
C3492 C2416 1.586 . S
C3501 C2560 1.583 . S
C3503 C148 1.582 . S
C3512 C2488 1.587 . S
C3514 C184 1.584 . S
C3523 C2524 1.587 . S
C3525 C220 1.583 . S
C3534 C256 1.587 . S
C3536 C2308 1.584 . S
C3545 C292 1.585 . S
C3547 C2272 1.587 . S
C3556 C328 1.585 . S
C3558 C2164 1.582 . S
C3567 C364 1.585 . S
C3569 C2200 1.582 . S
C3578 C400 1.582 . S
C3580 C2236 1.585 . S
C3589 C436 1.583 . S
C3591 C2056 1.586 . S
C3600 C2092 1.587 . S
C3602 C472 1.585 . S
C3611 C2128 1.587 . S
C3613 C508 1.584 . S
C3622 C544 1.582 . S
C3624 C2020 1.583 . S
C3633 C580 1.583 . S
C3635 C1984 1.586 . S
C3644 C616 1.582 . S
C3646 C1768 1.584 . S
C3655 C1804 1.587 . S
C3657 C652 1.583 . S
C3666 C1840 1.586 . S
C3668 C688 1.583 . S
C3677 C1732 1.584 . S
C3679 C724 1.582 . S
C3688 C760 1.587 . S
C3690 C1912 1.583 . S
C3699 C796 1.586 . S
C3701 C1948 1.583 . S
C3710 C832 1.587 . S
C3712 C1876 1.584 . S
C3721 C868 1.587 . S
C3723 C3316 1.585 . S
C3732 C904 1.586 . S
C3734 C3208 1.583 . S
C3743 C940 1.585 . S
C3745 C3244 1.582 . S
C3754 C976 1.587 . S
C3756 C3280 1.586 . S
C3765 C1012 1.587 . S
C3767 C3424 1.584 . S
C3776 C1048 1.583 . S
C3778 C3352 1.586 . S
C3787 C3388 1.587 . S
C3789 C1084 1.584 . S
C3798 C1120 1.582 . S
C3800 C3172 1.583 . S
C3809 C1156 1.587 . S
C3811 C3136 1.584 . S
C3820 C3028 1.583 . S
C3822 C1192 1.586 . S
C3831 C1228 1.587 . S
C3833 C3064 1.586 . S
C3842 C1264 1.583 . S
C3844 C3100 1.582 . S
C3853 C1300 1.586 . S
C3855 C2920 1.583 . S
C3864 C1336 1.587 . S
C3866 C2956 1.585 . S
C3875 C1372 1.582 . S
C3877 C2992 1.585 . S
C3886 C2884 1.587 . S
C3888 C1408 1.586 . S
C3897 C1444 1.586 . S
C3899 C2848 1.583 . S
C3908 C1480 1.581 . S
C3910 C2632 1.584 . S
C3919 C1516 1.582 . S
C3921 C2668 1.583 . S
C3930 C2704 1.587 . S
C3932 C1552 1.585 . S
C3941 C1588 1.586 . S
C3943 C2596 1.583 . S
C3952 C2776 1.587 . S
C3954 C1624 1.585 . S
C3963 C1660 1.583 . S
C3965 C2812 1.586 . S
C3974 C1696 1.586 . S
C3976 C2740 1.583 . S
C3985 C2 1.490 . S
C3987 C1406 1.490 . S
C3996 C38 1.490 . S
C3998 C1298 1.490 . S
C4007 C1334 1.485 . S
C4009 C74 1.486 . S
C4018 C110 1.489 . S
C4020 C1370 1.489 . S
C4029 C1190 1.490 . S
C4031 C146 1.490 . S
C4040 C1226 1.487 . S
C4042 C182 1.487 . S
C4051 C1262 1.486 . S
C4053 C218 1.486 . S
C4062 C1154 1.486 . S
C4064 C254 1.486 . S
C4073 C1118 1.487 . S
C4075 C290 1.488 . S
C4084 C326 1.490 . S
C4086 C1010 1.490 . S
C4095 C1046 1.490 . S
C4097 C362 1.489 . S
C4106 C398 1.489 . S
C4108 C1082 1.488 . S
C4117 C902 1.489 . S
C4119 C434 1.489 . S
C4128 C938 1.490 . S
C4130 C470 1.490 . S
C4139 C506 1.490 . S
C4141 C974 1.490 . S
C4150 C542 1.490 . S
C4152 C866 1.489 . S
C4161 C578 1.489 . S
C4163 C1586 1.489 . S
C4172 C614 1.485 . S
C4174 C1694 1.486 . S
C4183 C1622 1.487 . S
C4185 C650 1.487 . S
C4194 C1658 1.485 . S
C4196 C686 1.486 . S
C4205 C722 1.485 . S
C4207 C1442 1.486 . S
C4216 C758 1.490 . S
C4218 C1514 1.490 . S
C4227 C1550 1.488 . S
C4229 C794 1.488 . S
C4238 C830 1.485 . S
C4240 C1478 1.486 . S
C4249 C3134 1.490 . S
C4251 C1730 1.490 . S
C4260 C3026 1.485 . S
C4262 C1766 1.485 . S
C4271 C3062 1.485 . S
C4273 C1802 1.486 . S
C4282 C1838 1.486 . S
C4284 C3098 1.486 . S
C4293 C2918 1.490 . S
C4295 C1874 1.490 . S
C4304 C2954 1.485 . S
C4306 C1910 1.486 . S
C4315 C1946 1.485 . S
C4317 C2990 1.486 . S
C4326 C1982 1.490 . S
C4328 C2882 1.490 . S
C4337 C2846 1.490 . S
C4339 C2018 1.490 . S
C4348 C2054 1.486 . S
C4350 C2738 1.487 . S
C4359 C2774 1.490 . S
C4361 C2090 1.490 . S
C4370 C2810 1.490 . S
C4372 C2126 1.490 . S
C4381 C2162 1.486 . S
C4383 C2630 1.487 . S
C4392 C2198 1.490 . S
C4394 C2666 1.490 . S
C4403 C2702 1.486 . S
C4405 C2234 1.487 . S
C4414 C2270 1.485 . S
C4416 C2594 1.485 . S
C4425 C3314 1.490 . S
C4427 C2306 1.489 . S
C4436 C3422 1.489 . S
C4438 C2342 1.489 . S
C4447 C2378 1.485 . S
C4449 C3350 1.485 . S
C4458 C3386 1.490 . S
C4460 C2414 1.489 . S
C4469 C3170 1.490 . S
C4471 C2450 1.489 . S
C4480 C3242 1.486 . S
C4482 C2486 1.486 . S
C4491 C2522 1.485 . S
C4493 C3278 1.486 . S
C4502 C3206 1.490 . S
C4504 C2558 1.489 . S
C4513 C3 1.335 . S
C4515 C1011 1.335 . S
C4524 C1047 1.336 . S
C4526 C39 1.336 . S
C4535 C75 1.338 . S
C4537 C1083 1.338 . S
C4546 C1119 1.336 . S
C4548 C111 1.336 . S
C4557 C147 1.339 . S
C4559 C867 1.338 . S
C4568 C183 1.338 . S
C4570 C903 1.338 . S
C4579 C219 1.334 . S
C4581 C939 1.335 . S
C4590 C975 1.336 . S
C4592 C255 1.337 . S
C4601 C1371 1.337 . S
C4603 C291 1.337 . S
C4612 C327 1.339 . S
C4614 C1407 1.338 . S
C4623 C363 1.334 . S
C4625 C1299 1.335 . S
C4634 C399 1.335 . S
C4636 C1335 1.335 . S
C4645 C435 1.339 . S
C4647 C1227 1.338 . S
C4656 C471 1.338 . S
C4658 C1263 1.337 . S
C4667 C507 1.334 . S
C4669 C1155 1.335 . S
C4678 C543 1.334 . S
C4680 C1191 1.335 . S
C4689 C579 1.336 . S
C4691 C1623 1.336 . S
C4700 C615 1.337 . S
C4702 C1551 1.337 . S
C4711 C1587 1.334 . S
C4713 C651 1.335 . S
C4722 C687 1.337 . S
C4724 C1479 1.336 . S
C4733 C1515 1.336 . S
C4735 C723 1.336 . S
C4744 C759 1.336 . S
C4746 C1443 1.336 . S
C4755 C795 1.339 . S
C4757 C1695 1.338 . S
C4766 C1659 1.334 . S
C4768 C831 1.335 . S
C4777 C2739 1.335 . S
C4779 C1731 1.336 . S
C4788 C1767 1.336 . S
C4790 C2775 1.336 . S
C4799 C2811 1.334 . S
C4801 C1803 1.335 . S
C4810 C1839 1.337 . S
C4812 C2847 1.337 . S
C4821 C2595 1.338 . S
C4823 C1875 1.338 . S
C4832 C2631 1.336 . S
C4834 C1911 1.336 . S
C4843 C2667 1.338 . S
C4845 C1947 1.338 . S
C4854 C1983 1.337 . S
C4856 C2703 1.337 . S
C4865 C2019 1.339 . S
C4867 C3099 1.338 . S
C4876 C3135 1.339 . S
C4878 C2055 1.338 . S
C4887 C3027 1.336 . S
C4889 C2091 1.336 . S
C4898 C3063 1.336 . S
C4900 C2127 1.336 . S
C4909 C2163 1.339 . S
C4911 C2955 1.338 . S
C4920 C2199 1.338 . S
C4922 C2991 1.338 . S
C4931 C2883 1.335 . S
C4933 C2235 1.335 . S
C4942 C2919 1.339 . S
C4944 C2271 1.338 . S
C4953 C3351 1.336 . S
C4955 C2307 1.336 . S
C4964 C2343 1.338 . S
C4966 C3279 1.338 . S
C4975 C3315 1.335 . S
C4977 C2379 1.336 . S
C4986 C2415 1.337 . S
C4988 C3207 1.336 . S
C4997 C2451 1.334 . S
C4999 C3243 1.335 . S
C5008 C2487 1.337 . S
C5010 C3171 1.337 . S
C5019 C3423 1.339 . S
C5021 C2523 1.338 . S
C5030 C2559 1.334 . S
C5032 C3387 1.335 . S
C5041 C1130 1.205 . S
C5043 C14 1.205 . S
C5052 C1022 1.203 . S
C5054 C50 1.204 . S
C5063 C86 1.214 . S
C5065 C1058 1.213 . S
C5074 C1094 1.215 . S
C5076 C122 1.214 . S
C5085 C914 1.215 . S
C5087 C158 1.213 . S
C5096 C194 1.214 . S
C5098 C950 1.213 . S
C5107 C230 1.203 . S
C5109 C986 1.204 . S
C5118 C878 1.204 . S
C5120 C266 1.206 . S
C5129 C1598 1.200 . S
C5131 C302 1.202 . S
C5140 C338 1.201 . S
C5142 C1490 1.202 . S
C5151 C374 1.202 . S
C5153 C1526 1.203 . S
C5162 C1562 1.202 . S
C5164 C410 1.203 . S
C5173 C446 1.212 . S
C5175 C1706 1.210 . S
C5184 C1634 1.202 . S
C5186 C482 1.203 . S
C5195 C1670 1.200 . S
C5197 C518 1.202 . S
C5206 C554 1.201 . S
C5208 C1454 1.202 . S
C5217 C590 1.201 . S
C5219 C1418 1.202 . S
C5228 C626 1.212 . S
C5230 C1202 1.211 . S
C5239 C662 1.200 . S
C5241 C1238 1.202 . S
C5250 C1274 1.211 . S
C5252 C698 1.211 . S
C5261 C1166 1.215 . S
C5263 C734 1.213 . S
C5272 C770 1.208 . S
C5274 C1346 1.208 . S
C5283 C806 1.213 . S
C5285 C1382 1.211 . S
C5294 C842 1.200 . S
C5296 C1310 1.202 . S
C5305 C1742 1.202 . S
C5307 C2858 1.203 . S
C5316 C1778 1.213 . S
C5318 C2750 1.212 . S
C5327 C1814 1.212 . S
C5329 C2786 1.212 . S
C5338 C2822 1.200 . S
C5340 C1850 1.202 . S
C5349 C2642 1.208 . S
C5351 C1886 1.209 . S
C5360 C2678 1.214 . S
C5362 C1922 1.212 . S
C5371 C1958 1.206 . S
C5373 C2714 1.206 . S
C5382 C2606 1.214 . S
C5384 C1994 1.212 . S
C5393 C3326 1.207 . S
C5395 C2030 1.208 . S
C5404 C3218 1.200 . S
C5406 C2066 1.202 . S
C5415 C3254 1.215 . S
C5417 C2102 1.213 . S
C5426 C3290 1.203 . S
C5428 C2138 1.204 . S
C5437 C3434 1.215 . S
C5439 C2174 1.213 . S
C5448 C3362 1.215 . S
C5450 C2210 1.213 . S
C5459 C3398 1.200 . S
C5461 C2246 1.202 . S
C5470 C3182 1.204 . S
C5472 C2282 1.206 . S
C5481 C2318 1.205 . S
C5483 C3146 1.206 . S
C5492 C2930 1.214 . S
C5494 C2354 1.213 . S
C5503 C2966 1.205 . S
C5505 C2390 1.206 . S
C5514 C3002 1.208 . S
C5516 C2426 1.208 . S
C5525 C2894 1.202 . S
C5527 C2462 1.203 . S
C5536 C3074 1.212 . S
C5538 C2498 1.210 . S
C5547 C3110 1.215 . S
C5549 C2534 1.213 . S
C5558 C3038 1.202 . S
C5560 C2570 1.204 . S
