# Generated by pormake.
# Topology fnr, (5)-cn, num edge types: 1
# Building blocks:
#     Node 0, Type 0, BuildingBlock: BEQFEK_clean_sbu_0, # of connection points: 5
#     Node 1, Type 0, BuildingBlock: BEQFEK_clean_sbu_0, # of connection points: 5
#     Node 2, Type 0, BuildingBlock: BEQFEK_clean_sbu_0, # of connection points: 5
#     Node 3, Type 0, BuildingBlock: BEQFEK_clean_sbu_0, # of connection points: 5
#     Node 4, Type 0, BuildingBlock: BEQFEK_clean_sbu_0, # of connection points: 5
#     Node 5, Type 0, BuildingBlock: BEQFEK_clean_sbu_0, # of connection points: 5
#     Node 6, Type 0, BuildingBlock: BEQFEK_clean_sbu_0, # of connection points: 5
#     Node 7, Type 0, BuildingBlock: BEQFEK_clean_sbu_0, # of connection points: 5
#     Node 8, Type 0, BuildingBlock: BEQFEK_clean_sbu_0, # of connection points: 5
#     Node 9, Type 0, BuildingBlock: BEQFEK_clean_sbu_0, # of connection points: 5
#     Node 10, Type 0, BuildingBlock: BEQFEK_clean_sbu_0, # of connection points: 5
#     Node 11, Type 0, BuildingBlock: BEQFEK_clean_sbu_0, # of connection points: 5
#     Edge 12, Type (0, 0), BuildingBlock: TEMPAE_clean_linker_10, # of connection points: 2
#     Edge 13, Type (0, 0), BuildingBlock: TEMPAE_clean_linker_10, # of connection points: 2
#     Edge 14, Type (0, 0), BuildingBlock: TEMPAE_clean_linker_10, # of connection points: 2
#     Edge 15, Type (0, 0), BuildingBlock: TEMPAE_clean_linker_10, # of connection points: 2
#     Edge 16, Type (0, 0), BuildingBlock: TEMPAE_clean_linker_10, # of connection points: 2
#     Edge 17, Type (0, 0), BuildingBlock: TEMPAE_clean_linker_10, # of connection points: 2
#     Edge 18, Type (0, 0), BuildingBlock: TEMPAE_clean_linker_10, # of connection points: 2
#     Edge 19, Type (0, 0), BuildingBlock: TEMPAE_clean_linker_10, # of connection points: 2
#     Edge 20, Type (0, 0), BuildingBlock: TEMPAE_clean_linker_10, # of connection points: 2
#     Edge 21, Type (0, 0), BuildingBlock: TEMPAE_clean_linker_10, # of connection points: 2
#     Edge 22, Type (0, 0), BuildingBlock: TEMPAE_clean_linker_10, # of connection points: 2
#     Edge 23, Type (0, 0), BuildingBlock: TEMPAE_clean_linker_10, # of connection points: 2
#     Edge 24, Type (0, 0), BuildingBlock: TEMPAE_clean_linker_10, # of connection points: 2
#     Edge 25, Type (0, 0), BuildingBlock: TEMPAE_clean_linker_10, # of connection points: 2
#     Edge 26, Type (0, 0), BuildingBlock: TEMPAE_clean_linker_10, # of connection points: 2
#     Edge 27, Type (0, 0), BuildingBlock: TEMPAE_clean_linker_10, # of connection points: 2
#     Edge 28, Type (0, 0), BuildingBlock: TEMPAE_clean_linker_10, # of connection points: 2
#     Edge 29, Type (0, 0), BuildingBlock: TEMPAE_clean_linker_10, # of connection points: 2
#     Edge 30, Type (0, 0), BuildingBlock: TEMPAE_clean_linker_10, # of connection points: 2
#     Edge 31, Type (0, 0), BuildingBlock: TEMPAE_clean_linker_10, # of connection points: 2
#     Edge 32, Type (0, 0), BuildingBlock: TEMPAE_clean_linker_10, # of connection points: 2
#     Edge 33, Type (0, 0), BuildingBlock: TEMPAE_clean_linker_10, # of connection points: 2
#     Edge 34, Type (0, 0), BuildingBlock: TEMPAE_clean_linker_10, # of connection points: 2
#     Edge 35, Type (0, 0), BuildingBlock: TEMPAE_clean_linker_10, # of connection points: 2
#     Edge 36, Type (0, 0), BuildingBlock: TEMPAE_clean_linker_10, # of connection points: 2
#     Edge 37, Type (0, 0), BuildingBlock: TEMPAE_clean_linker_10, # of connection points: 2
#     Edge 38, Type (0, 0), BuildingBlock: TEMPAE_clean_linker_10, # of connection points: 2
#     Edge 39, Type (0, 0), BuildingBlock: TEMPAE_clean_linker_10, # of connection points: 2
#     Edge 40, Type (0, 0), BuildingBlock: TEMPAE_clean_linker_10, # of connection points: 2
#     Edge 41, Type (0, 0), BuildingBlock: TEMPAE_clean_linker_10, # of connection points: 2
# Relax obj value: 0.144
# Max RMSD: 0.110
# Mean RMSD: 0.110
data_MOF--net-fnr--node1-BEQFEK_clean_sbu_0--edge1-TEMPAE_clean_linker_10
_symmetry_space_group_name_H-M    P1
_symmetry_Int_Tables_number       1
_symmetry_cell_setting            triclinic
loop_
_symmetry_equiv_pos_as_xyz
'x, y, z'
_cell_length_a     45.242793
_cell_length_b     45.247655
_cell_length_c     48.34596
_cell_angle_alpha  90.014746
_cell_angle_beta   89.9955
_cell_angle_gamma 119.9909
loop_
_atom_site_label
_atom_site_type_symbol
_atom_site_fract_x
_atom_site_fract_y
_atom_site_fract_z
_atom_type_partial_charge
Co0 Co 0.46226 0.27743 0.10642 0.0
Co1 Co 0.40389 0.2019 0.09563 0.0
C2 C 0.47668 0.22239 0.08691 0.0
O3 O 0.48547 0.25258 0.09443 0.0
O4 O 0.44535 0.19947 0.08563 0.0
C5 C 0.51579 0.33646 0.08339 0.0
O6 O 0.50572 0.3158 0.06197 0.0
C7 C 0.36112 0.13795 0.06573 0.0
C8 C 0.31345 0.11447 0.09017 0.0
C9 C 0.3287 0.10938 0.06721 0.0
N10 N 0.36461 0.15904 0.08666 0.0
N11 N 0.33604 0.14488 0.10118 0.0
C12 C 0.38967 0.14418 0.04655 0.0
H13 H 0.40926 0.14161 0.05837 0.0
H14 H 0.40183 0.17069 0.03853 0.0
H15 H 0.38128 0.12586 0.02916 0.0
C16 C 0.41842 0.29156 0.06933 0.0
N17 N 0.42611 0.26984 0.08224 0.0
N18 N 0.40186 0.23827 0.07729 0.0
C19 C 0.37802 0.23901 0.06094 0.0
C20 C 0.38785 0.27279 0.05528 0.0
C21 C 0.4382 0.32954 0.07254 0.0
H22 H 0.44962 0.33648 0.09349 0.0
H23 H 0.45901 0.34041 0.05699 0.0
H24 H 0.42168 0.34087 0.06914 0.0
O25 O 0.44492 0.26181 0.14447 0.0
O26 O 0.40462 0.20805 0.13654 0.0
H27 H 0.32994 0.19457 0.06922 0.0
H28 H 0.33176 0.21461 0.0364 0.0
C29 C 0.34632 0.208 0.05117 0.0
H30 H 0.35326 0.19041 0.04089 0.0
H31 H 0.33206 0.15587 0.11873 0.0
O32 O 0.4993 0.32596 0.10597 0.0
C33 C 0.4219 0.23265 0.15322 0.0
Co34 Co 0.18915 0.45975 0.60658 0.0
Co35 Co 0.20624 0.40132 0.59589 0.0
C36 C 0.25846 0.47409 0.5868 0.0
O37 O 0.23711 0.48298 0.59427 0.0
O38 O 0.25003 0.44274 0.58575 0.0
C39 C 0.18327 0.51316 0.58369 0.0
O40 O 0.19382 0.50321 0.56217 0.0
C41 C 0.22748 0.35864 0.56593 0.0
C42 C 0.20363 0.31105 0.59047 0.0
C43 C 0.22384 0.32631 0.56745 0.0
N44 N 0.20989 0.36208 0.5869 0.0
N45 N 0.19568 0.33356 0.60148 0.0
C46 C 0.24959 0.38717 0.54668 0.0
H47 H 0.27194 0.40671 0.55836 0.0
H48 H 0.23521 0.39941 0.53888 0.0
H49 H 0.25925 0.37873 0.52912 0.0
C50 C 0.13095 0.41571 0.56977 0.0
N51 N 0.1604 0.42344 0.5826 0.0
N52 N 0.16772 0.39919 0.57765 0.0
C53 C 0.14311 0.37532 0.56135 0.0
C54 C 0.1191 0.38511 0.55574 0.0
C55 C 0.11274 0.43549 0.57301 0.0
H56 H 0.11734 0.447 0.59393 0.0
H57 H 0.12255 0.45622 0.55741 0.0
H58 H 0.08486 0.41894 0.56974 0.0
O59 O 0.18783 0.44268 0.64465 0.0
O60 O 0.20107 0.4022 0.63682 0.0
H61 H 0.13957 0.32725 0.56948 0.0
H62 H 0.12142 0.32918 0.53664 0.0
C63 C 0.14253 0.3437 0.55148 0.0
H64 H 0.1671 0.35074 0.54123 0.0
H65 H 0.18079 0.32956 0.61908 0.0
O66 O 0.1775 0.49667 0.60624 0.0
C67 C 0.19396 0.41968 0.65346 0.0
Co68 Co 0.73524 0.18859 0.10593 0.0
Co69 Co 0.81065 0.20524 0.09578 0.0
C70 C 0.79064 0.2578 0.0864 0.0
O71 O 0.7603 0.23655 0.0937 0.0
O72 O 0.81346 0.24922 0.08555 0.0
C73 C 0.67624 0.18341 0.08289 0.0
O74 O 0.69696 0.19434 0.06152 0.0
C75 C 0.87456 0.2267 0.06614 0.0
C76 C 0.89795 0.202 0.08995 0.0
C77 C 0.90322 0.22301 0.0674 0.0
N78 N 0.85356 0.20896 0.08704 0.0
N79 N 0.86772 0.19431 0.10126 0.0
C80 C 0.86574 0.24447 0.04431 0.0
H81 H 0.83764 0.2318 0.04176 0.0
H82 H 0.87767 0.24452 0.02424 0.0
H83 H 0.87522 0.27127 0.05078 0.0
C84 C 0.72107 0.13043 0.06905 0.0
N85 N 0.7428 0.15977 0.08202 0.0
N86 N 0.77435 0.16683 0.07737 0.0
C87 C 0.7736 0.14211 0.06121 0.0
C88 C 0.73982 0.11835 0.05531 0.0
C89 C 0.68306 0.11256 0.07187 0.0
H90 H 0.67592 0.11689 0.09279 0.0
H91 H 0.67263 0.12293 0.05632 0.0
H92 H 0.67148 0.08472 0.06825 0.0
O93 O 0.75063 0.18708 0.14414 0.0
O94 O 0.80432 0.20004 0.13664 0.0
H95 H 0.81772 0.13812 0.07013 0.0
H96 H 0.79802 0.1198 0.03722 0.0
C97 C 0.80459 0.14108 0.05187 0.0
H98 H 0.82244 0.16548 0.04157 0.0
H99 H 0.85667 0.17896 0.11861 0.0
O100 O 0.68672 0.17715 0.10537 0.0
C101 C 0.77964 0.19303 0.15314 0.0
Co102 Co 0.55077 0.7326 0.60581 0.0
Co103 Co 0.60943 0.80805 0.59516 0.0
C104 C 0.53672 0.78778 0.5861 0.0
O105 O 0.52771 0.75751 0.59355 0.0
O106 O 0.56809 0.81061 0.58507 0.0
C107 C 0.49706 0.67338 0.58298 0.0
O108 O 0.50697 0.69384 0.56145 0.0
C109 C 0.6523 0.87197 0.56529 0.0
C110 C 0.69996 0.89539 0.58975 0.0
C111 C 0.68473 0.90053 0.5668 0.0
N112 N 0.64878 0.85085 0.58619 0.0
N113 N 0.67735 0.86498 0.60073 0.0
C114 C 0.62377 0.86579 0.54611 0.0
H115 H 0.6115 0.83925 0.53814 0.0
H116 H 0.63221 0.88405 0.52868 0.0
H117 H 0.60424 0.8685 0.55791 0.0
C118 C 0.59464 0.71825 0.56891 0.0
N119 N 0.58702 0.74004 0.58179 0.0
N120 N 0.61136 0.77158 0.57688 0.0
C121 C 0.63519 0.77075 0.56058 0.0
C122 C 0.62528 0.73694 0.55492 0.0
C123 C 0.5747 0.68027 0.57207 0.0
H124 H 0.56323 0.67335 0.593 0.0
H125 H 0.55393 0.66951 0.55649 0.0
H126 H 0.59113 0.66883 0.56869 0.0
O127 O 0.56795 0.74832 0.6439 0.0
O128 O 0.60857 0.80196 0.63606 0.0
H129 H 0.68337 0.8151 0.56881 0.0
H130 H 0.68137 0.79508 0.53593 0.0
C131 C 0.66691 0.80172 0.55078 0.0
H132 H 0.66 0.81936 0.54057 0.0
H133 H 0.6813 0.85397 0.61828 0.0
O134 O 0.51369 0.68408 0.60548 0.0
C135 C 0.59106 0.77741 0.65271 0.0
Co136 Co 0.82393 0.5497 0.1054 0.0
Co137 Co 0.80682 0.60815 0.09471 0.0
C138 C 0.75458 0.53536 0.08573 0.0
O139 O 0.77593 0.52646 0.09318 0.0
O140 O 0.76303 0.56671 0.08464 0.0
C141 C 0.82992 0.49624 0.08256 0.0
O142 O 0.8193 0.50607 0.06101 0.0
C143 C 0.78557 0.65083 0.06476 0.0
C144 C 0.80941 0.6984 0.08934 0.0
C145 C 0.7892 0.68316 0.06631 0.0
N146 N 0.80316 0.64738 0.08572 0.0
N147 N 0.81735 0.67589 0.10033 0.0
C148 C 0.76347 0.62231 0.04548 0.0
H149 H 0.77788 0.61013 0.03763 0.0
H150 H 0.75375 0.63075 0.02797 0.0
H151 H 0.74116 0.60272 0.05717 0.0
C152 C 0.88208 0.59372 0.06853 0.0
N153 N 0.85263 0.58598 0.08138 0.0
N154 N 0.84531 0.61024 0.07645 0.0
C155 C 0.86992 0.63412 0.06016 0.0
C156 C 0.89392 0.62434 0.05453 0.0
C157 C 0.90031 0.57396 0.07174 0.0
H158 H 0.89577 0.56249 0.09267 0.0
H159 H 0.89044 0.55319 0.05615 0.0
H160 H 0.92817 0.59051 0.06841 0.0
O161 O 0.82531 0.56687 0.14349 0.0
O162 O 0.81204 0.60732 0.13561 0.0
H163 H 0.87344 0.68216 0.06842 0.0
H164 H 0.8917 0.68036 0.0356 0.0
C165 C 0.87054 0.66578 0.05037 0.0
H166 H 0.84601 0.65879 0.04008 0.0
H167 H 0.83224 0.67987 0.11793 0.0
O168 O 0.83564 0.51279 0.10509 0.0
C169 C 0.81917 0.58988 0.15227 0.0
Co170 Co 0.27825 0.82144 0.60552 0.0
Co171 Co 0.20257 0.8044 0.59536 0.0
C172 C 0.22322 0.75192 0.58682 0.0
O173 O 0.25369 0.7734 0.5936 0.0
O174 O 0.20031 0.76036 0.58617 0.0
C175 C 0.33753 0.82715 0.58265 0.0
O176 O 0.31696 0.81631 0.56118 0.0
C177 C 0.13979 0.78594 0.56378 0.0
C178 C 0.11203 0.80129 0.59264 0.0
C179 C 0.10948 0.78644 0.56701 0.0
N180 N 0.1593 0.80004 0.58636 0.0
N181 N 0.14257 0.8093 0.60344 0.0
C182 C 0.14929 0.77056 0.5404 0.0
H183 H 0.17098 0.76701 0.54603 0.0
H184 H 0.15725 0.78793 0.52232 0.0
H185 H 0.12705 0.74577 0.53421 0.0
C186 C 0.2921 0.87937 0.56856 0.0
N187 N 0.27042 0.84989 0.58138 0.0
N188 N 0.23884 0.84288 0.57693 0.0
C189 C 0.23955 0.86791 0.56121 0.0
C190 C 0.27331 0.89165 0.5552 0.0
C191 C 0.33012 0.89732 0.57137 0.0
H192 H 0.33729 0.89311 0.59232 0.0
H193 H 0.34059 0.88693 0.55586 0.0
H194 H 0.34167 0.92515 0.56769 0.0
O195 O 0.26266 0.82314 0.64365 0.0
O196 O 0.20897 0.8103 0.63618 0.0
H197 H 0.19388 0.86857 0.57143 0.0
H198 H 0.21529 0.89296 0.5408 0.0
C199 C 0.20858 0.86953 0.55276 0.0
H200 H 0.1921 0.84708 0.53975 0.0
H201 H 0.15175 0.82052 0.62273 0.0
O202 O 0.32687 0.83319 0.60513 0.0
C203 C 0.23371 0.8174 0.65264 0.0
Co204 Co 0.73368 0.54952 0.40424 0.0
Co205 Co 0.80912 0.60795 0.41487 0.0
C206 C 0.78889 0.53531 0.42378 0.0
O207 O 0.75866 0.52644 0.41628 0.0
O208 O 0.81177 0.56665 0.42498 0.0
C209 C 0.67473 0.49591 0.42735 0.0
O210 O 0.69551 0.50588 0.44869 0.0
C211 C 0.87309 0.6502 0.44455 0.0
C212 C 0.89622 0.69856 0.42111 0.0
C213 C 0.90162 0.68263 0.44346 0.0
N214 N 0.85202 0.64707 0.42374 0.0
N215 N 0.86602 0.67602 0.40974 0.0
C216 C 0.86446 0.62342 0.46617 0.0
H217 H 0.83637 0.6079 0.46879 0.0
H218 H 0.87646 0.63513 0.48626 0.0
H219 H 0.874 0.60625 0.45944 0.0
C220 C 0.71951 0.59337 0.44131 0.0
N221 N 0.74124 0.58573 0.42837 0.0
N222 N 0.7728 0.61005 0.43323 0.0
C223 C 0.77205 0.63391 0.44954 0.0
C224 C 0.73826 0.62401 0.45528 0.0
C225 C 0.68151 0.57346 0.43824 0.0
H226 H 0.6745 0.56206 0.41729 0.0
H227 H 0.6708 0.55263 0.45377 0.0
H228 H 0.67008 0.58988 0.44176 0.0
O229 O 0.7492 0.56671 0.36612 0.0
O230 O 0.80295 0.60707 0.37399 0.0
H231 H 0.81623 0.68211 0.44105 0.0
H232 H 0.79645 0.68023 0.47402 0.0
C233 C 0.80304 0.66573 0.45916 0.0
H234 H 0.82084 0.65898 0.46929 0.0
H235 H 0.85488 0.68045 0.39251 0.0
O236 O 0.68514 0.51246 0.40478 0.0
C237 C 0.77835 0.58971 0.35733 0.0
Co238 Co 0.19071 0.73359 0.90501 0.0
Co239 Co 0.20728 0.80892 0.91549 0.0
C240 C 0.25988 0.78895 0.92473 0.0
O241 O 0.23866 0.75864 0.91732 0.0
O242 O 0.25128 0.81175 0.92567 0.0
C243 C 0.18529 0.67445 0.92796 0.0
O244 O 0.19574 0.69494 0.94949 0.0
C245 C 0.22871 0.87273 0.94529 0.0
C246 C 0.20372 0.89601 0.92171 0.0
C247 C 0.22486 0.9013 0.94417 0.0
N248 N 0.21091 0.85175 0.92439 0.0
N249 N 0.19609 0.86583 0.91031 0.0
C250 C 0.24667 0.86398 0.96699 0.0
H251 H 0.23406 0.83589 0.96955 0.0
H252 H 0.24685 0.87592 0.98709 0.0
H253 H 0.27343 0.8735 0.9604 0.0
C254 C 0.13239 0.71916 0.94181 0.0
N255 N 0.16181 0.74097 0.92897 0.0
N256 N 0.16887 0.77249 0.93379 0.0
C257 C 0.1441 0.77163 0.94994 0.0
C258 C 0.12028 0.73782 0.95565 0.0
C259 C 0.11446 0.68118 0.93872 0.0
H260 H 0.11906 0.67422 0.91782 0.0
H261 H 0.12452 0.67052 0.95435 0.0
H262 H 0.08657 0.66966 0.94207 0.0
O263 O 0.1892 0.74916 0.86687 0.0
O264 O 0.2021 0.80279 0.87461 0.0
H265 H 0.13993 0.8157 0.94127 0.0
H266 H 0.12183 0.79589 0.97418 0.0
C267 C 0.14305 0.80256 0.95945 0.0
H268 H 0.16749 0.82042 0.96969 0.0
H269 H 0.18066 0.85477 0.893 0.0
O270 O 0.17942 0.68512 0.90541 0.0
C271 C 0.19511 0.7782 0.85801 0.0
Co272 Co 0.46146 0.18774 0.40518 0.0
Co273 Co 0.40306 0.20482 0.41585 0.0
C274 C 0.47574 0.25721 0.42465 0.0
O275 O 0.48461 0.23582 0.41722 0.0
O276 O 0.44439 0.24876 0.42581 0.0
C277 C 0.51497 0.18195 0.42816 0.0
O278 O 0.50501 0.19251 0.44967 0.0
C279 C 0.36089 0.22672 0.4455 0.0
C280 C 0.3124 0.2012 0.42224 0.0
C281 C 0.32841 0.22271 0.44448 0.0
N282 N 0.36396 0.20864 0.42476 0.0
N283 N 0.33492 0.19352 0.41087 0.0
C284 C 0.38778 0.24507 0.46701 0.0
H285 H 0.40338 0.23259 0.46965 0.0
H286 H 0.37616 0.24546 0.48713 0.0
H287 H 0.40486 0.27174 0.46017 0.0
C288 C 0.41754 0.1297 0.44218 0.0
N289 N 0.42525 0.15912 0.4293 0.0
N290 N 0.40103 0.16648 0.43429 0.0
C291 C 0.37723 0.14195 0.45067 0.0
C292 C 0.38699 0.11793 0.45628 0.0
C293 C 0.43723 0.11141 0.43883 0.0
H294 H 0.44875 0.11608 0.41791 0.0
H295 H 0.45795 0.1211 0.45444 0.0
H296 H 0.4206 0.08353 0.442 0.0
O297 O 0.4442 0.18605 0.3671 0.0
O298 O 0.40381 0.1994 0.37496 0.0
H299 H 0.32885 0.13779 0.44265 0.0
H300 H 0.33147 0.12075 0.47583 0.0
C301 C 0.34564 0.14143 0.46058 0.0
H302 H 0.35265 0.16623 0.47036 0.0
H303 H 0.33043 0.17781 0.39372 0.0
O304 O 0.49848 0.17618 0.4056 0.0
C305 C 0.42117 0.19215 0.35831 0.0
Co306 Co 0.27951 0.46069 0.90537 0.0
Co307 Co 0.20398 0.40226 0.91614 0.0
C308 C 0.22447 0.47504 0.92498 0.0
O309 O 0.2547 0.48391 0.9175 0.0
O310 O 0.20157 0.4437 0.92614 0.0
C311 C 0.33873 0.51432 0.92823 0.0
O312 O 0.31815 0.50447 0.94969 0.0
C313 C 0.13993 0.3595 0.94597 0.0
C314 C 0.11672 0.31167 0.92174 0.0
C315 C 0.11146 0.327 0.94457 0.0
N316 N 0.16112 0.36296 0.92514 0.0
N317 N 0.14711 0.33429 0.91073 0.0
C318 C 0.14598 0.38812 0.96501 0.0
H319 H 0.14378 0.40779 0.95299 0.0
H320 H 0.17233 0.40014 0.97337 0.0
H321 H 0.12733 0.37983 0.98216 0.0
C322 C 0.2937 0.41682 0.94236 0.0
N323 N 0.27196 0.42451 0.92949 0.0
N324 N 0.24039 0.40026 0.93445 0.0
C325 C 0.24115 0.37642 0.95077 0.0
C326 C 0.27495 0.38623 0.95639 0.0
C327 C 0.33167 0.4366 0.93912 0.0
H328 H 0.33857 0.44797 0.91816 0.0
H329 H 0.34255 0.45745 0.95463 0.0
H330 H 0.34304 0.42011 0.94253 0.0
O331 O 0.26379 0.44336 0.86731 0.0
O332 O 0.21006 0.40299 0.87525 0.0
H333 H 0.19681 0.32822 0.94259 0.0
H334 H 0.21675 0.33034 0.97552 0.0
C335 C 0.21014 0.34475 0.9606 0.0
H336 H 0.19248 0.35171 0.97071 0.0
H337 H 0.15821 0.33026 0.89327 0.0
O338 O 0.32809 0.49768 0.90572 0.0
C339 C 0.23463 0.42032 0.85856 0.0
Co340 Co 0.82294 0.27692 0.40563 0.0
Co341 Co 0.80619 0.20148 0.41588 0.0
C342 C 0.75361 0.22152 0.42502 0.0
O343 O 0.77489 0.25185 0.41772 0.0
O344 O 0.76218 0.1987 0.42597 0.0
C345 C 0.8281 0.33598 0.42859 0.0
O346 O 0.81701 0.31527 0.44996 0.0
C347 C 0.78459 0.13748 0.44543 0.0
C348 C 0.80972 0.11436 0.42181 0.0
C349 C 0.78848 0.10894 0.44423 0.0
N350 N 0.80247 0.15858 0.42462 0.0
N351 N 0.81736 0.14459 0.41051 0.0
C352 C 0.76652 0.1461 0.46714 0.0
H353 H 0.77909 0.17418 0.46979 0.0
H354 H 0.76629 0.13408 0.4872 0.0
H355 H 0.73978 0.13658 0.46049 0.0
C356 C 0.88097 0.29104 0.44266 0.0
N357 N 0.85164 0.26933 0.42967 0.0
N358 N 0.84453 0.23777 0.43434 0.0
C359 C 0.86921 0.23851 0.45054 0.0
C360 C 0.893 0.27228 0.45644 0.0
C361 C 0.89889 0.32905 0.43981 0.0
H362 H 0.88846 0.33951 0.45529 0.0
H363 H 0.92672 0.34061 0.44353 0.0
H364 H 0.89467 0.33618 0.41885 0.0
O365 O 0.82463 0.26152 0.36744 0.0
O366 O 0.81154 0.20782 0.37503 0.0
H367 H 0.87335 0.19447 0.44166 0.0
H368 H 0.8914 0.21408 0.47465 0.0
C369 C 0.87021 0.20751 0.4599 0.0
H370 H 0.84574 0.18961 0.47008 0.0
H371 H 0.83287 0.15575 0.39326 0.0
O372 O 0.83444 0.32547 0.40616 0.0
C373 C 0.81866 0.23249 0.3585 0.0
Co374 Co 0.55181 0.82241 0.90494 0.0
Co375 Co 0.61031 0.80543 0.91536 0.0
C376 C 0.53766 0.75305 0.92448 0.0
O377 O 0.5287 0.77438 0.91711 0.0
O378 O 0.56902 0.76152 0.92548 0.0
C379 C 0.49836 0.82827 0.92801 0.0
O380 O 0.50831 0.8177 0.9495 0.0
C381 C 0.65253 0.78353 0.94489 0.0
C382 C 0.70091 0.80885 0.92147 0.0
C383 C 0.68496 0.78741 0.94375 0.0
N384 N 0.64943 0.8016 0.92417 0.0
N385 N 0.6784 0.8166 0.91018 0.0
C386 C 0.62574 0.76529 0.96648 0.0
H387 H 0.61026 0.77789 0.96922 0.0
H388 H 0.63742 0.76483 0.98654 0.0
H389 H 0.60852 0.73863 0.95965 0.0
C390 C 0.59587 0.88055 0.94183 0.0
N391 N 0.58814 0.85113 0.92893 0.0
N392 N 0.61245 0.84386 0.93376 0.0
C393 C 0.63637 0.86847 0.95003 0.0
C394 C 0.62655 0.89242 0.95576 0.0
C395 C 0.57605 0.89873 0.9387 0.0
H396 H 0.56448 0.89415 0.91781 0.0
H397 H 0.55537 0.88887 0.95435 0.0
H398 H 0.5926 0.9266 0.942 0.0
O399 O 0.56885 0.82394 0.86678 0.0
O400 O 0.60935 0.8107 0.87448 0.0
H401 H 0.68463 0.87258 0.9416 0.0
H402 H 0.68252 0.89009 0.9747 0.0
C403 C 0.66813 0.86918 0.95968 0.0
H404 H 0.66131 0.84451 0.96963 0.0
H405 H 0.68285 0.83227 0.89302 0.0
O406 O 0.51481 0.834 0.90543 0.0
C407 C 0.59186 0.81785 0.8579 0.0
C408 C 0.62359 0.17739 0.10539 0.0
C409 C 0.64279 0.18188 0.08138 0.0
C410 C 0.59417 0.18041 0.10467 0.0
C411 C 0.58361 0.18788 0.07931 0.0
C412 C 0.60176 0.19045 0.05475 0.0
C413 C 0.63118 0.18753 0.05609 0.0
C414 C 0.57553 0.17752 0.13133 0.0
C415 C 0.59115 0.19807 0.02727 0.0
C416 C 0.49568 0.17977 0.0771 0.0
C417 C 0.50378 0.21358 0.08207 0.0
C418 C 0.52141 0.17102 0.07544 0.0
C419 C 0.55597 0.19663 0.07904 0.0
C420 C 0.56434 0.23091 0.08321 0.0
C421 C 0.53823 0.23896 0.08455 0.0
C422 C 0.51158 0.13427 0.07061 0.0
C423 C 0.60088 0.25904 0.08712 0.0
H424 H 0.6323 0.1729 0.12499 0.0
H425 H 0.64566 0.19071 0.03737 0.0
H426 H 0.57888 0.20282 0.13686 0.0
H427 H 0.54777 0.15969 0.12878 0.0
H428 H 0.58499 0.1685 0.14876 0.0
H429 H 0.60537 0.19521 0.00971 0.0
H430 H 0.56342 0.18091 0.02381 0.0
H431 H 0.59593 0.22463 0.0273 0.0
H432 H 0.4692 0.15997 0.07517 0.0
H433 H 0.54489 0.2652 0.08829 0.0
H434 H 0.51795 0.12413 0.08916 0.0
H435 H 0.52633 0.13238 0.05304 0.0
H436 H 0.48391 0.11788 0.06619 0.0
H437 H 0.61179 0.25383 0.10579 0.0
H438 H 0.60314 0.28452 0.08947 0.0
H439 H 0.6166 0.25991 0.06919 0.0
C440 C 0.32018 0.4929 0.57788 0.0
C441 C 0.29436 0.50109 0.5818 0.0
C442 C 0.35467 0.51861 0.57631 0.0
C443 C 0.36348 0.55325 0.57885 0.0
C444 C 0.33745 0.56168 0.58183 0.0
C445 C 0.30329 0.53557 0.58316 0.0
C446 C 0.38172 0.50869 0.57279 0.0
C447 C 0.34571 0.59832 0.58454 0.0
C448 C 0.44973 0.62153 0.60575 0.0
C449 C 0.4651 0.63996 0.58157 0.0
C450 C 0.41723 0.59221 0.60497 0.0
C451 C 0.39986 0.58092 0.57939 0.0
C452 C 0.4161 0.59828 0.55473 0.0
C453 C 0.44846 0.62767 0.55613 0.0
C454 C 0.40074 0.57442 0.63175 0.0
C455 C 0.3986 0.58685 0.52701 0.0
H456 H 0.31361 0.46638 0.57683 0.0
H457 H 0.2836 0.54228 0.58603 0.0
H458 H 0.39889 0.52302 0.55535 0.0
H459 H 0.39767 0.5155 0.59172 0.0
H460 H 0.37057 0.48093 0.56889 0.0
H461 H 0.32242 0.60061 0.58589 0.0
H462 H 0.36131 0.60987 0.60337 0.0
H463 H 0.36104 0.61344 0.56656 0.0
H464 H 0.46243 0.6308 0.62548 0.0
H465 H 0.4603 0.64156 0.53729 0.0
H466 H 0.39092 0.5466 0.62994 0.0
H467 H 0.37861 0.57789 0.63627 0.0
H468 H 0.4187 0.58447 0.6495 0.0
H469 H 0.38811 0.55903 0.52422 0.0
H470 H 0.41614 0.60054 0.50956 0.0
H471 H 0.37685 0.59164 0.52607 0.0
C472 C 0.77433 0.30287 0.08274 0.0
C473 C 0.79975 0.29374 0.08136 0.0
C474 C 0.78255 0.33707 0.08138 0.0
C475 C 0.81706 0.36296 0.07838 0.0
C476 C 0.84276 0.35396 0.07582 0.0
C477 C 0.83381 0.31941 0.07739 0.0
C478 C 0.75431 0.34553 0.08409 0.0
C479 C 0.87977 0.38086 0.07227 0.0
C480 C 0.82751 0.44788 0.05567 0.0
C481 C 0.8317 0.46445 0.08113 0.0
C482 C 0.82473 0.4156 0.05425 0.0
C483 C 0.82592 0.39938 0.0789 0.0
C484 C 0.83195 0.41674 0.1045 0.0
C485 C 0.8349 0.44915 0.10529 0.0
C486 C 0.81872 0.39813 0.02653 0.0
C487 C 0.83332 0.40028 0.13126 0.0
H488 H 0.7479 0.28329 0.08563 0.0
H489 H 0.85363 0.31266 0.07627 0.0
H490 H 0.75845 0.36117 0.10291 0.0
H491 H 0.75457 0.36087 0.0661 0.0
H492 H 0.72867 0.32233 0.08546 0.0
H493 H 0.89626 0.36957 0.06833 0.0
H494 H 0.88268 0.39808 0.05486 0.0
H495 H 0.88901 0.39677 0.09121 0.0
H496 H 0.82536 0.45967 0.03684 0.0
H497 H 0.83825 0.46181 0.12503 0.0
H498 H 0.79213 0.37647 0.02551 0.0
H499 H 0.83595 0.38751 0.0238 0.0
H500 H 0.82272 0.41572 0.00908 0.0
H501 H 0.80771 0.37823 0.13586 0.0
H502 H 0.84138 0.4183 0.14899 0.0
H503 H 0.85124 0.39036 0.12941 0.0
C504 C 0.5181 0.83089 0.57749 0.0
C505 C 0.50981 0.79681 0.58113 0.0
C506 C 0.49245 0.83976 0.57598 0.0
C507 C 0.45777 0.81396 0.57828 0.0
C508 C 0.44924 0.77944 0.58097 0.0
C509 C 0.4753 0.7713 0.58225 0.0
C510 C 0.50247 0.87679 0.57278 0.0
C511 C 0.41257 0.7511 0.58341 0.0
C512 C 0.38937 0.83161 0.6054 0.0
C513 C 0.37103 0.82879 0.58121 0.0
C514 C 0.41872 0.8285 0.60457 0.0
C515 C 0.43015 0.82274 0.57891 0.0
C516 C 0.41291 0.82192 0.55426 0.0
C517 C 0.38347 0.82481 0.55572 0.0
C518 C 0.43637 0.82944 0.63134 0.0
C519 C 0.42451 0.81623 0.52648 0.0
H520 H 0.54465 0.8508 0.57663 0.0
H521 H 0.46852 0.74486 0.5849 0.0
H522 H 0.48823 0.87989 0.55541 0.0
H523 H 0.49563 0.88573 0.59182 0.0
H524 H 0.53026 0.89339 0.56898 0.0
H525 H 0.41021 0.72548 0.58454 0.0
H526 H 0.40091 0.75493 0.60227 0.0
H527 H 0.39758 0.75157 0.56543 0.0
H528 H 0.37997 0.83476 0.62516 0.0
H529 H 0.36965 0.82295 0.53688 0.0
H530 H 0.4642 0.84742 0.62967 0.0
H531 H 0.43282 0.80377 0.63565 0.0
H532 H 0.42625 0.83718 0.64916 0.0
H533 H 0.45236 0.83354 0.52386 0.0
H534 H 0.41097 0.8204 0.50908 0.0
H535 H 0.41966 0.78969 0.52526 0.0
C536 C 0.70963 0.47389 0.08239 0.0
C537 C 0.71864 0.50839 0.08088 0.0
C538 C 0.67543 0.44784 0.08128 0.0
C539 C 0.64944 0.45634 0.07837 0.0
C540 C 0.65832 0.49098 0.07569 0.0
C541 C 0.69284 0.51664 0.07704 0.0
C542 C 0.66708 0.4112 0.08414 0.0
C543 C 0.63131 0.50098 0.07224 0.0
C544 C 0.56418 0.3819 0.05622 0.0
C545 C 0.54775 0.36984 0.08176 0.0
C546 C 0.59656 0.41122 0.0546 0.0
C547 C 0.61304 0.42876 0.07914 0.0
C548 C 0.59587 0.41772 0.10483 0.0
C549 C 0.56335 0.38845 0.10582 0.0
C550 C 0.61383 0.42239 0.02678 0.0
C551 C 0.61262 0.4357 0.13148 0.0
H552 H 0.72929 0.46714 0.08522 0.0
H553 H 0.69948 0.54317 0.07588 0.0
H554 H 0.65164 0.39984 0.10307 0.0
H555 H 0.65157 0.39594 0.06628 0.0
H556 H 0.69034 0.40883 0.0854 0.0
H557 H 0.6425 0.52872 0.0682 0.0
H558 H 0.61397 0.48652 0.05493 0.0
H559 H 0.61555 0.49439 0.09126 0.0
H560 H 0.55216 0.36786 0.03747 0.0
H561 H 0.55081 0.37936 0.12563 0.0
H562 H 0.63553 0.41751 0.02577 0.0
H563 H 0.62438 0.4502 0.02387 0.0
H564 H 0.59613 0.4086 0.00944 0.0
H565 H 0.63473 0.43219 0.13594 0.0
H566 H 0.5948 0.42585 0.14933 0.0
H567 H 0.6225 0.46352 0.12955 0.0
C568 C 0.17846 0.5604 0.60634 0.0
C569 C 0.18169 0.54505 0.58221 0.0
C570 C 0.1816 0.59287 0.60552 0.0
C571 C 0.18783 0.61026 0.57993 0.0
C572 C 0.18906 0.59401 0.5553 0.0
C573 C 0.1861 0.56165 0.55675 0.0
C574 C 0.18016 0.60937 0.63226 0.0
C575 C 0.19531 0.61152 0.52758 0.0
C576 C 0.18006 0.69025 0.57808 0.0
C577 C 0.21411 0.71593 0.58209 0.0
C578 C 0.17108 0.6557 0.57665 0.0
C579 C 0.19674 0.64668 0.57937 0.0
C580 C 0.23124 0.67255 0.58247 0.0
C581 C 0.2395 0.70677 0.58369 0.0
C582 C 0.13407 0.62881 0.57301 0.0
C583 C 0.25944 0.66406 0.58536 0.0
H584 H 0.17495 0.54771 0.62608 0.0
H585 H 0.18827 0.54983 0.53794 0.0
H586 H 0.20578 0.63137 0.63692 0.0
H587 H 0.16232 0.61936 0.63032 0.0
H588 H 0.17198 0.59135 0.64998 0.0
H589 H 0.19141 0.59394 0.51014 0.0
H590 H 0.17813 0.62217 0.52473 0.0
H591 H 0.22191 0.63316 0.52669 0.0
H592 H 0.16026 0.69704 0.57677 0.0
H593 H 0.26592 0.72634 0.58664 0.0
H594 H 0.12479 0.61279 0.59189 0.0
H595 H 0.13122 0.61169 0.55553 0.0
H596 H 0.11758 0.64011 0.56912 0.0
H597 H 0.25516 0.64841 0.6042 0.0
H598 H 0.28508 0.68724 0.58682 0.0
H599 H 0.25927 0.6487 0.56741 0.0
C600 C 0.83155 0.51651 0.43408 0.0
C601 C 0.79778 0.50829 0.42872 0.0
C602 C 0.84042 0.49086 0.43585 0.0
C603 C 0.81496 0.45629 0.43201 0.0
C604 C 0.78071 0.44782 0.42745 0.0
C605 C 0.77255 0.47383 0.42598 0.0
C606 C 0.87712 0.50081 0.44109 0.0
C607 C 0.75274 0.41126 0.4233 0.0
C608 C 0.83463 0.38881 0.40604 0.0
C609 C 0.82972 0.36948 0.43004 0.0
C610 C 0.83167 0.41827 0.40667 0.0
C611 C 0.82383 0.42873 0.43192 0.0
C612 C 0.82086 0.41046 0.45649 0.0
C613 C 0.82375 0.38101 0.45524 0.0
C614 C 0.83501 0.43705 0.38 0.0
C615 C 0.81282 0.42094 0.48386 0.0
H616 H 0.85122 0.54302 0.43626 0.0
H617 H 0.74634 0.46709 0.42195 0.0
H618 H 0.8788 0.48603 0.45873 0.0
H619 H 0.88761 0.49456 0.42268 0.0
H620 H 0.89336 0.52846 0.44562 0.0
H621 H 0.72726 0.4089 0.42064 0.0
H622 H 0.75832 0.40049 0.40471 0.0
H623 H 0.75163 0.39548 0.44125 0.0
H624 H 0.83938 0.38017 0.38651 0.0
H625 H 0.82025 0.36643 0.47396 0.0
H626 H 0.85273 0.46481 0.38271 0.0
H627 H 0.80978 0.43365 0.37414 0.0
H628 H 0.8444 0.42774 0.36273 0.0
H629 H 0.82986 0.44866 0.48742 0.0
H630 H 0.81548 0.40669 0.50149 0.0
H631 H 0.78623 0.41606 0.48356 0.0
C632 C 0.32152 0.83212 0.93366 0.0
C633 C 0.29583 0.79805 0.92976 0.0
C634 C 0.35607 0.84106 0.93518 0.0
C635 C 0.36506 0.81535 0.93265 0.0
C636 C 0.33914 0.78083 0.92974 0.0
C637 C 0.30494 0.77262 0.92843 0.0
C638 C 0.38299 0.87809 0.93861 0.0
C639 C 0.34758 0.75258 0.92708 0.0
C640 C 0.45109 0.8331 0.90543 0.0
C641 C 0.46655 0.83001 0.92955 0.0
C642 C 0.41868 0.83012 0.90634 0.0
C643 C 0.40148 0.8242 0.932 0.0
C644 C 0.41786 0.82314 0.95659 0.0
C645 C 0.45014 0.82593 0.95506 0.0
C646 C 0.40204 0.83135 0.87962 0.0
C647 C 0.40056 0.81726 0.98438 0.0
H648 H 0.31478 0.85195 0.93474 0.0
H649 H 0.28534 0.74619 0.9256 0.0
H650 H 0.40034 0.88106 0.95594 0.0
H651 H 0.39877 0.88725 0.9196 0.0
H652 H 0.37172 0.89458 0.94261 0.0
H653 H 0.32437 0.72694 0.92583 0.0
H654 H 0.36311 0.75661 0.90821 0.0
H655 H 0.36304 0.75295 0.94503 0.0
H656 H 0.46363 0.83636 0.88565 0.0
H657 H 0.46206 0.82388 0.97385 0.0
H658 H 0.39215 0.84929 0.88148 0.0
H659 H 0.37995 0.80572 0.87514 0.0
H660 H 0.41994 0.8393 0.86183 0.0
H661 H 0.38995 0.8345 0.98712 0.0
H662 H 0.41827 0.82136 1.00177 0.0
H663 H 0.37891 0.79068 0.9855 0.0
C664 C 0.62968 0.44712 0.45446 0.0
C665 C 0.64129 0.464 0.42903 0.0
C666 C 0.6003 0.41477 0.45602 0.0
C667 C 0.58221 0.39881 0.43153 0.0
C668 C 0.59276 0.41647 0.40601 0.0
C669 C 0.62213 0.44893 0.40508 0.0
C670 C 0.58971 0.39695 0.48366 0.0
C671 C 0.57416 0.4003 0.37943 0.0
C672 C 0.53721 0.30232 0.42708 0.0
C673 C 0.50273 0.29316 0.42942 0.0
C674 C 0.56321 0.33653 0.42825 0.0
C675 C 0.55468 0.36238 0.43208 0.0
C676 C 0.52008 0.35334 0.43556 0.0
C677 C 0.49446 0.3188 0.43413 0.0
C678 C 0.59981 0.34504 0.42452 0.0
C679 C 0.51007 0.38019 0.44001 0.0
H680 H 0.64413 0.45872 0.47313 0.0
H681 H 0.63085 0.46183 0.38536 0.0
H682 H 0.56196 0.38631 0.48704 0.0
H683 H 0.59464 0.37527 0.48397 0.0
H684 H 0.60385 0.41432 0.5011 0.0
H685 H 0.58357 0.41853 0.36183 0.0
H686 H 0.57762 0.37834 0.3742 0.0
H687 H 0.54638 0.39032 0.38191 0.0
H688 H 0.54399 0.28278 0.42357 0.0
H689 H 0.46793 0.31201 0.436 0.0
H690 H 0.61547 0.36021 0.44236 0.0
H691 H 0.61069 0.36088 0.4057 0.0
H692 H 0.60221 0.32187 0.42252 0.0
H693 H 0.52481 0.39716 0.45742 0.0
H694 H 0.4824 0.36886 0.44445 0.0
H695 H 0.51631 0.39638 0.42127 0.0
C696 C 0.18112 0.62271 0.90527 0.0
C697 C 0.18384 0.64105 0.92943 0.0
C698 C 0.18428 0.59338 0.90615 0.0
C699 C 0.18999 0.58198 0.93183 0.0
C700 C 0.19076 0.59925 0.95645 0.0
C701 C 0.18782 0.62865 0.95495 0.0
C702 C 0.18338 0.5757 0.8794 0.0
C703 C 0.19641 0.58769 0.98426 0.0
C704 C 0.1815 0.4939 0.93344 0.0
C705 C 0.21556 0.50206 0.92986 0.0
C706 C 0.17275 0.51964 0.93486 0.0
C707 C 0.19865 0.55428 0.93253 0.0
C708 C 0.23314 0.56267 0.92989 0.0
C709 C 0.24115 0.53653 0.92868 0.0
C710 C 0.13574 0.50975 0.938 0.0
C711 C 0.26157 0.5993 0.92742 0.0
H712 H 0.17797 0.63206 0.88548 0.0
H713 H 0.18961 0.64248 0.97377 0.0
H714 H 0.20903 0.57915 0.87517 0.0
H715 H 0.16532 0.54788 0.88107 0.0
H716 H 0.17576 0.58585 0.86154 0.0
H717 H 0.19233 0.60134 1.00164 0.0
H718 H 0.17901 0.55987 0.98693 0.0
H719 H 0.22292 0.59242 0.98548 0.0
H720 H 0.16153 0.46739 0.93433 0.0
H721 H 0.26758 0.54321 0.92607 0.0
H722 H 0.1269 0.51665 0.91895 0.0
H723 H 0.13267 0.52403 0.95537 0.0
H724 H 0.11905 0.48198 0.94179 0.0
H725 H 0.25783 0.61095 0.90851 0.0
H726 H 0.28716 0.60156 0.92635 0.0
H727 H 0.26112 0.61436 0.94535 0.0
C728 C 0.56225 0.17716 0.40554 0.0
C729 C 0.54682 0.18028 0.42967 0.0
C730 C 0.59469 0.18019 0.40642 0.0
C731 C 0.61196 0.18622 0.43205 0.0
C732 C 0.59562 0.18734 0.45666 0.0
C733 C 0.56331 0.18449 0.45516 0.0
C734 C 0.61128 0.17889 0.37969 0.0
C735 C 0.613 0.19336 0.48443 0.0
C736 C 0.69194 0.17835 0.43384 0.0
C737 C 0.71764 0.21242 0.42993 0.0
C738 C 0.65738 0.1694 0.43529 0.0
C739 C 0.64839 0.19509 0.43268 0.0
C740 C 0.67429 0.2296 0.42973 0.0
C741 C 0.70851 0.23782 0.42849 0.0
C742 C 0.63047 0.13238 0.43877 0.0
C743 C 0.66584 0.25783 0.42698 0.0
H744 H 0.54965 0.17381 0.38577 0.0
H745 H 0.55142 0.18658 0.47396 0.0
H746 H 0.63333 0.20452 0.37515 0.0
H747 H 0.62121 0.16099 0.38157 0.0
H748 H 0.59333 0.17086 0.36192 0.0
H749 H 0.59534 0.18936 0.50183 0.0
H750 H 0.62359 0.17612 0.48721 0.0
H751 H 0.63466 0.21993 0.48547 0.0
H752 H 0.69869 0.15853 0.435 0.0
H753 H 0.7281 0.26425 0.42564 0.0
H754 H 0.61462 0.12318 0.41979 0.0
H755 H 0.61318 0.12944 0.45614 0.0
H756 H 0.64174 0.11589 0.44273 0.0
H757 H 0.65027 0.25371 0.40811 0.0
H758 H 0.68905 0.28347 0.42565 0.0
H759 H 0.65042 0.25755 0.44492 0.0
C760 C 0.38414 0.56313 0.9551 0.0
C761 C 0.37219 0.54624 0.92971 0.0
C762 C 0.41352 0.5955 0.9565 0.0
C763 C 0.43127 0.61146 0.9319 0.0
C764 C 0.42037 0.59378 0.9064 0.0
C765 C 0.39101 0.56131 0.90562 0.0
C766 C 0.4245 0.61332 0.98413 0.0
C767 C 0.43858 0.60996 0.87969 0.0
C768 C 0.47622 0.70795 0.92745 0.0
C769 C 0.51073 0.71711 0.9294 0.0
C770 C 0.45023 0.67374 0.92876 0.0
C771 C 0.45881 0.64789 0.93233 0.0
C772 C 0.49346 0.65694 0.93543 0.0
C773 C 0.51906 0.69147 0.93388 0.0
C774 C 0.41358 0.66524 0.92546 0.0
C775 C 0.50352 0.63008 0.93959 0.0
H776 H 0.36995 0.55153 0.97388 0.0
H777 H 0.38202 0.5484 0.88593 0.0
H778 H 0.4523 0.62397 0.98723 0.0
H779 H 0.41957 0.635 0.98464 0.0
H780 H 0.41062 0.59596 1.00162 0.0
H781 H 0.42892 0.59173 0.86209 0.0
H782 H 0.43505 0.63192 0.87466 0.0
H783 H 0.46639 0.61994 0.88188 0.0
H784 H 0.4694 0.72749 0.92413 0.0
H785 H 0.54561 0.69825 0.93544 0.0
H786 H 0.39818 0.65008 0.9434 0.0
H787 H 0.40242 0.64939 0.90668 0.0
H788 H 0.41115 0.68841 0.92364 0.0
H789 H 0.48901 0.61311 0.95707 0.0
H790 H 0.53125 0.64142 0.94377 0.0
H791 H 0.49704 0.6139 0.92082 0.0
C792 C 0.39349 0.20357 0.31789 0.0
C793 C 0.41641 0.19375 0.32803 0.0
C794 C 0.39135 0.20876 0.28948 0.0
C795 C 0.41258 0.20396 0.2707 0.0
C796 C 0.43485 0.19284 0.28065 0.0
C797 C 0.4365 0.18788 0.30915 0.0
C798 C 0.36719 0.22048 0.27968 0.0
C799 C 0.45776 0.18723 0.26125 0.0
C800 C 0.39336 0.19377 0.19359 0.0
C801 C 0.41703 0.22628 0.18349 0.0
C802 C 0.39097 0.18635 0.22199 0.0
C803 C 0.41275 0.21203 0.2408 0.0
C804 C 0.43583 0.2452 0.23089 0.0
C805 C 0.43768 0.25193 0.20239 0.0
C806 C 0.36591 0.15073 0.23177 0.0
C807 C 0.45937 0.27335 0.25031 0.0
H808 H 0.37777 0.20813 0.33222 0.0
H809 H 0.45422 0.1802 0.31668 0.0
H810 H 0.38198 0.24657 0.27092 0.0
H811 H 0.35056 0.20355 0.26295 0.0
H812 H 0.3508 0.22085 0.29664 0.0
H813 H 0.47232 0.17689 0.27206 0.0
H814 H 0.44243 0.16928 0.24453 0.0
H815 H 0.47616 0.21173 0.25129 0.0
H816 H 0.37718 0.17375 0.17924 0.0
H817 H 0.456 0.27714 0.19489 0.0
H818 H 0.34956 0.15166 0.24846 0.0
H819 H 0.37997 0.13867 0.24057 0.0
H820 H 0.34925 0.1343 0.21479 0.0
H821 H 0.44443 0.27661 0.26702 0.0
H822 H 0.47463 0.29815 0.23952 0.0
H823 H 0.47716 0.2664 0.26028 0.0
C824 C 0.19077 0.43584 0.70258 0.0
C825 C 0.1957 0.41507 0.68375 0.0
C826 C 0.19582 0.43423 0.73107 0.0
C827 C 0.20604 0.41127 0.74106 0.0
C828 C 0.20992 0.3894 0.72234 0.0
C829 C 0.2047 0.39154 0.69394 0.0
C830 C 0.19124 0.45787 0.7504 0.0
C831 C 0.22062 0.36448 0.7322 0.0
C832 C 0.2541 0.43549 0.80936 0.0
C833 C 0.22821 0.41545 0.82829 0.0
C834 C 0.24742 0.43367 0.78085 0.0
C835 C 0.21403 0.41129 0.77097 0.0
C836 C 0.18806 0.39013 0.78981 0.0
C837 C 0.19545 0.39243 0.81822 0.0
C838 C 0.27587 0.45651 0.76139 0.0
C839 C 0.15218 0.36587 0.78008 0.0
H840 H 0.18376 0.45405 0.69501 0.0
H841 H 0.20852 0.37529 0.67964 0.0
H842 H 0.1731 0.44302 0.76716 0.0
H843 H 0.21599 0.47572 0.76031 0.0
H844 H 0.18164 0.47304 0.73955 0.0
H845 H 0.22044 0.34778 0.71528 0.0
H846 H 0.24675 0.37865 0.74098 0.0
H847 H 0.20341 0.34818 0.74893 0.0
H848 H 0.2795 0.45328 0.81684 0.0
H849 H 0.17523 0.37676 0.83259 0.0
H850 H 0.2697 0.47483 0.75137 0.0
H851 H 0.27849 0.44112 0.74472 0.0
H852 H 0.30079 0.47116 0.77216 0.0
H853 H 0.14083 0.38057 0.77123 0.0
H854 H 0.13548 0.34958 0.79709 0.0
H855 H 0.15249 0.34914 0.76343 0.0
C856 C 0.80753 0.19366 0.31794 0.0
C857 C 0.81711 0.2263 0.32819 0.0
C858 C 0.80249 0.18648 0.2895 0.0
C859 C 0.8072 0.21254 0.2708 0.0
C860 C 0.81802 0.24581 0.28087 0.0
C861 C 0.82283 0.25229 0.30941 0.0
C862 C 0.79106 0.15071 0.27957 0.0
C863 C 0.82354 0.27437 0.26157 0.0
C864 C 0.81825 0.20379 0.19379 0.0
C865 C 0.78576 0.19469 0.18346 0.0
C866 C 0.8254 0.20891 0.22223 0.0
C867 C 0.79947 0.20479 0.24085 0.0
C868 C 0.76634 0.19448 0.2307 0.0
C869 C 0.75988 0.18956 0.20217 0.0
C870 C 0.86101 0.21975 0.23225 0.0
C871 C 0.73792 0.18962 0.24991 0.0
H872 H 0.80307 0.17336 0.33219 0.0
H873 H 0.83031 0.2776 0.31704 0.0
H874 H 0.76509 0.13937 0.27055 0.0
H875 H 0.80828 0.15122 0.26301 0.0
H876 H 0.79054 0.13386 0.29651 0.0
H877 H 0.83358 0.29917 0.27248 0.0
H878 H 0.84171 0.27726 0.24495 0.0
H879 H 0.79907 0.26813 0.25147 0.0
H880 H 0.83846 0.20778 0.17959 0.0
H881 H 0.73469 0.18247 0.19448 0.0
H882 H 0.86009 0.20241 0.24887 0.0
H883 H 0.87273 0.24577 0.24122 0.0
H884 H 0.87774 0.21988 0.21537 0.0
H885 H 0.7346 0.17138 0.2666 0.0
H886 H 0.71321 0.18 0.23894 0.0
H887 H 0.74462 0.21426 0.25993 0.0
C888 C 0.57628 0.822 0.80879 0.0
C889 C 0.59646 0.81618 0.8276 0.0
C890 C 0.57785 0.81703 0.78027 0.0
C891 C 0.6001 0.80594 0.77024 0.0
C892 C 0.62139 0.80115 0.78896 0.0
C893 C 0.61935 0.80635 0.81738 0.0
C894 C 0.55488 0.82264 0.76095 0.0
C895 C 0.64553 0.78944 0.77907 0.0
C896 C 0.57508 0.75809 0.70185 0.0
C897 C 0.59579 0.78376 0.68299 0.0
C898 C 0.57686 0.76478 0.73035 0.0
C899 C 0.59991 0.79794 0.74032 0.0
C900 C 0.6217 0.82365 0.72155 0.0
C901 C 0.6194 0.81627 0.69314 0.0
C902 C 0.55331 0.7366 0.74973 0.0
C903 C 0.64672 0.85927 0.73138 0.0
H904 H 0.55858 0.82968 0.81639 0.0
H905 H 0.63513 0.80182 0.83166 0.0
H906 H 0.57016 0.84062 0.74424 0.0
H907 H 0.53647 0.79815 0.75097 0.0
H908 H 0.54031 0.83293 0.77182 0.0
H909 H 0.66191 0.78898 0.79599 0.0
H910 H 0.63073 0.7634 0.77022 0.0
H911 H 0.66218 0.80644 0.76239 0.0
H912 H 0.5568 0.73289 0.69431 0.0
H913 H 0.63561 0.83632 0.67883 0.0
H914 H 0.53554 0.74353 0.75974 0.0
H915 H 0.56824 0.73328 0.76641 0.0
H916 H 0.53804 0.71182 0.73889 0.0
H917 H 0.63263 0.87125 0.74029 0.0
H918 H 0.66331 0.87578 0.71441 0.0
H919 H 0.66313 0.85834 0.74801 0.0
C920 C 0.82255 0.57398 0.20143 0.0
C921 C 0.8174 0.59455 0.18255 0.0
C922 C 0.81746 0.57563 0.22992 0.0
C923 C 0.80697 0.59841 0.23985 0.0
C924 C 0.80287 0.62007 0.22107 0.0
C925 C 0.80814 0.61791 0.19268 0.0
C926 C 0.82231 0.55223 0.24931 0.0
C927 C 0.79186 0.64479 0.23086 0.0
C928 C 0.75892 0.57418 0.30815 0.0
C929 C 0.78474 0.59446 0.32705 0.0
C930 C 0.76562 0.57589 0.27965 0.0
C931 C 0.79895 0.59843 0.26974 0.0
C932 C 0.82484 0.61983 0.28855 0.0
C933 C 0.81743 0.61763 0.31695 0.0
C934 C 0.73725 0.55279 0.26022 0.0
C935 C 0.86066 0.64428 0.2788 0.0
H936 H 0.82976 0.5559 0.19392 0.0
H937 H 0.80415 0.634 0.17834 0.0
H938 H 0.84039 0.56725 0.26606 0.0
H939 H 0.79762 0.53425 0.25923 0.0
H940 H 0.83212 0.53719 0.23851 0.0
H941 H 0.79186 0.66135 0.21389 0.0
H942 H 0.76574 0.63046 0.23964 0.0
H943 H 0.809 0.66125 0.24756 0.0
H944 H 0.73357 0.55626 0.31565 0.0
H945 H 0.83761 0.6335 0.3313 0.0
H946 H 0.74365 0.53459 0.25027 0.0
H947 H 0.73445 0.568 0.2435 0.0
H948 H 0.71236 0.538 0.271 0.0
H949 H 0.8722 0.62973 0.26999 0.0
H950 H 0.8773 0.66071 0.29578 0.0
H951 H 0.86019 0.66087 0.26211 0.0
C952 C 0.19122 0.75859 0.80888 0.0
C953 C 0.19669 0.78446 0.82771 0.0
C954 C 0.196 0.76514 0.78036 0.0
C955 C 0.20652 0.79836 0.77034 0.0
C956 C 0.21099 0.82431 0.78909 0.0
C957 C 0.206 0.81706 0.81752 0.0
C958 C 0.19077 0.73671 0.76101 0.0
C959 C 0.22208 0.86002 0.77921 0.0
C960 C 0.25371 0.82152 0.70166 0.0
C961 C 0.2277 0.81603 0.68297 0.0
C962 C 0.24736 0.81674 0.73021 0.0
C963 C 0.21419 0.80618 0.74039 0.0
C964 C 0.18812 0.80175 0.72179 0.0
C965 C 0.19518 0.80675 0.69334 0.0
C966 C 0.27591 0.82194 0.7494 0.0
C967 C 0.15247 0.79063 0.73185 0.0
H968 H 0.18397 0.73332 0.81646 0.0
H969 H 0.21025 0.83727 0.83181 0.0
H970 H 0.17251 0.73363 0.74441 0.0
H971 H 0.2153 0.74322 0.75088 0.0
H972 H 0.18099 0.71193 0.77189 0.0
H973 H 0.22243 0.87675 0.79618 0.0
H974 H 0.24806 0.87158 0.77018 0.0
H975 H 0.20476 0.85934 0.76267 0.0
H976 H 0.27894 0.82877 0.69395 0.0
H977 H 0.17487 0.80248 0.67915 0.0
H978 H 0.26952 0.79737 0.75938 0.0
H979 H 0.27902 0.84008 0.76611 0.0
H980 H 0.30065 0.83185 0.73842 0.0
H981 H 0.14092 0.7646 0.74075 0.0
H982 H 0.13566 0.79041 0.715 0.0
H983 H 0.15325 0.80785 0.74853 0.0
C984 C 0.22041 0.94671 0.96996 0.0
C985 C 0.23971 0.93151 0.96257 0.0
C986 C 0.23407 0.97557 0.98717 0.0
C987 C 0.26802 0.98981 0.99688 0.0
C988 C 0.28776 0.97479 0.98919 0.0
C989 C 0.27338 0.94585 0.97207 0.0
C990 C 0.21217 0.99077 0.99501 0.0
C991 C 0.32419 0.98948 0.99883 0.0
C992 C 0.31468 0.08241 0.02028 0.0
C993 C 0.31301 0.07895 0.04911 0.0
C994 C 0.30021 0.05361 1.00301 0.0
C995 C 0.28304 0.02061 0.01491 0.0
C996 C 0.28042 0.01703 0.04405 0.0
C997 C 0.29538 0.04629 0.06081 0.0
C998 C 0.30342 0.05851 0.97203 0.0
C999 C 0.26207 0.98229 0.05751 0.0
H1000 H 0.19441 0.93576 0.96251 0.0
H1001 H 0.28878 0.93489 0.96567 0.0
H1002 H 0.20982 0.99097 0.01784 0.0
H1003 H 0.22438 0.01766 0.98792 0.0
H1004 H 0.18617 0.97645 0.98593 0.0
H1005 H 0.33599 0.97458 0.9912 0.0
H1006 H 0.33975 0.01619 0.99151 0.0
H1007 H 0.3252 0.99006 0.02176 0.0
H1008 H 0.32705 0.1077 0.0112 0.0
H1009 H 0.2937 0.04364 0.08313 0.0
H1010 H 0.27771 0.04668 0.96248 0.0
H1011 H 0.3166 0.04554 0.96323 0.0
H1012 H 0.31783 0.08588 0.96609 0.0
H1013 H 0.23537 0.96782 0.04994 0.0
H1014 H 0.26171 0.98391 0.08043 0.0
H1015 H 0.27464 0.96748 0.05175 0.0
C1016 C 0.23665 0.31215 0.52053 0.0
C1017 C 0.2387 0.31074 0.54936 0.0
C1018 C 0.25107 0.29777 0.50326 0.0
C1019 C 0.26728 0.28096 0.51517 0.0
C1020 C 0.26855 0.27863 0.54431 0.0
C1021 C 0.25412 0.29348 0.56107 0.0
C1022 C 0.24905 0.30064 0.47228 0.0
C1023 C 0.28535 0.26068 0.55778 0.0
C1024 C 0.27865 0.21819 0.47048 0.0
C1025 C 0.31305 0.23761 0.46284 0.0
C1026 C 0.26346 0.23187 0.48768 0.0
C1027 C 0.28307 0.26594 0.49713 0.0
C1028 C 0.31772 0.2858 0.48918 0.0
C1029 C 0.33228 0.2714 0.47209 0.0
C1030 C 0.22648 0.20984 0.4958 0.0
C1031 C 0.33934 0.32236 0.49855 0.0
H1032 H 0.22346 0.32424 0.51146 0.0
H1033 H 0.25531 0.29202 0.58339 0.0
H1034 H 0.27511 0.31389 0.46331 0.0
H1035 H 0.23523 0.27483 0.4629 0.0
H1036 H 0.23585 0.31483 0.46634 0.0
H1037 H 0.28364 0.26058 0.58071 0.0
H1038 H 0.27322 0.23391 0.55042 0.0
H1039 H 0.31267 0.27337 0.55181 0.0
H1040 H 0.2637 0.1921 0.46324 0.0
H1041 H 0.35856 0.28687 0.4655 0.0
H1042 H 0.21157 0.2218 0.48873 0.0
H1043 H 0.22419 0.20772 0.51865 0.0
H1044 H 0.21487 0.18376 0.48689 0.0
H1045 H 0.32792 0.33767 0.49121 0.0
H1046 H 0.36596 0.33424 0.49074 0.0
H1047 H 0.34002 0.32362 0.52147 0.0
C1048 C 0.94764 0.27143 0.03935 0.0
C1049 C 0.93347 0.23787 0.04905 0.0
C1050 C 0.9766 0.28582 0.02227 0.0
C1051 C 0.99185 0.2662 0.01483 0.0
C1052 C 0.9778 0.23237 0.02476 0.0
C1053 C 0.9489 0.21869 0.04192 0.0
C1054 C 0.99108 0.32212 0.01239 0.0
C1055 C 0.99325 0.2106 0.0172 0.0
C1056 C 0.04839 0.2933 0.95095 0.0
C1057 C 0.08103 0.31127 0.96265 0.0
C1058 C 0.01911 0.2783 0.96769 0.0
C1059 C 0.02266 0.28122 0.99682 0.0
C1060 C 0.05566 0.29873 0.00874 0.0
C1061 C 0.08447 0.31324 0.99149 0.0
C1062 C 0.98438 0.25959 0.95421 0.0
C1063 C 0.06052 0.30226 0.03971 0.0
H1064 H 0.93653 0.28676 0.04557 0.0
H1065 H 0.93808 0.19278 0.04952 0.0
H1066 H 0.01777 0.33789 0.01971 0.0
H1067 H 0.99168 0.3229 0.98945 0.0
H1068 H 0.97602 0.33383 0.01983 0.0
H1069 H 0.97908 0.18469 0.02645 0.0
H1070 H 0.99347 0.20801 0.99439 0.0
H1071 H 0.02014 0.22306 0.02431 0.0
H1072 H 0.04575 0.29139 0.92863 0.0
H1073 H 0.10975 0.32588 1.00058 0.0
H1074 H 0.9694 0.27204 0.95978 0.0
H1075 H 0.97008 0.23296 0.96195 0.0
H1076 H 0.98604 0.259 0.93131 0.0
H1077 H 0.04741 0.31539 0.04833 0.0
H1078 H 0.08789 0.31687 0.04566 0.0
H1079 H 0.04883 0.27665 0.04943 0.0
C1080 C 0.69883 0.92759 0.51992 0.0
C1081 C 0.70041 0.93099 0.54876 0.0
C1082 C 0.71328 0.95643 0.5027 0.0
C1083 C 0.73034 0.98942 0.51467 0.0
C1084 C 0.73286 0.99293 0.54382 0.0
C1085 C 0.71793 0.96363 0.56052 0.0
C1086 C 0.71018 0.95161 0.47172 0.0
C1087 C 0.75108 0.02765 0.55735 0.0
C1088 C 0.79298 0.06352 0.46993 0.0
C1089 C 0.77363 0.07866 0.46254 0.0
C1090 C 0.77933 0.03461 0.48707 0.0
C1091 C 0.74533 0.02025 0.4967 0.0
C1092 C 0.72554 0.03521 0.489 0.0
C1093 C 0.73992 0.06421 0.47196 0.0
C1094 C 0.80129 0.01948 0.49492 0.0
C1095 C 0.68906 0.0204 0.49856 0.0
H1096 H 0.68654 0.90233 0.5108 0.0
H1097 H 0.71953 0.96623 0.58285 0.0
H1098 H 0.69695 0.96452 0.46291 0.0
H1099 H 0.73593 0.96354 0.46222 0.0
H1100 H 0.69587 0.92425 0.46573 0.0
H1101 H 0.75138 0.02597 0.58027 0.0
H1102 H 0.7778 0.04219 0.54984 0.0
H1103 H 0.73846 0.0424 0.55158 0.0
H1104 H 0.81901 0.07456 0.46254 0.0
H1105 H 0.72448 0.07513 0.46557 0.0
H1106 H 0.78916 0.99262 0.48779 0.0
H1107 H 0.80358 0.01925 0.51776 0.0
H1108 H 0.82731 0.03388 0.4859 0.0
H1109 H 0.6736 0.99369 0.49119 0.0
H1110 H 0.67722 0.03524 0.49092 0.0
H1111 H 0.68798 0.01977 0.52149 0.0
C1112 C 0.75898 0.71605 0.05999 0.0
C1113 C 0.77434 0.69875 0.04825 0.0
C1114 C 0.7446 0.73097 0.04328 0.0
C1115 C 0.74586 0.72868 0.01413 0.0
C1116 C 0.762 0.71182 1.00218 0.0
C1117 C 0.77636 0.69735 0.01941 0.0
C1118 C 0.72787 0.74897 0.05679 0.0
C1119 C 0.76401 0.70898 0.97119 0.0
C1120 C 0.68097 0.73858 0.97119 0.0
C1121 C 0.70027 0.77239 0.96201 0.0
C1122 C 0.69548 0.72406 0.9882 0.0
C1123 C 0.73015 0.7438 0.99613 0.0
C1124 C 0.74983 0.7779 0.98674 0.0
C1125 C 0.7347 0.7917 0.96962 0.0
C1126 C 0.67378 0.68748 0.99749 0.0
C1127 C 0.78683 0.79982 0.99485 0.0
H1128 H 0.7578 0.71749 0.08232 0.0
H1129 H 0.78952 0.68523 0.01031 0.0
H1130 H 0.74008 0.77577 0.04947 0.0
H1131 H 0.70056 0.73637 0.0508 0.0
H1132 H 0.72956 0.74902 0.07972 0.0
H1133 H 0.77712 0.69471 0.96521 0.0
H1134 H 0.73795 0.69582 0.96221 0.0
H1135 H 0.77791 0.7348 0.96185 0.0
H1136 H 0.65468 0.7232 0.96463 0.0
H1137 H 0.74971 0.8178 0.96243 0.0
H1138 H 0.67308 0.68617 0.02041 0.0
H1139 H 0.68516 0.67213 0.99012 0.0
H1140 H 0.64718 0.67567 0.98966 0.0
H1141 H 0.78913 0.80191 0.01771 0.0
H1142 H 0.79851 0.82591 0.98598 0.0
H1143 H 0.80167 0.78778 0.98775 0.0
C1144 C 0.94636 0.67871 0.4711 0.0
C1145 C 0.93184 0.69797 0.46184 0.0
C1146 C 0.97529 0.69323 0.48821 0.0
C1147 C 0.9901 0.72788 0.49618 0.0
C1148 C 0.97567 0.74752 0.48671 0.0
C1149 C 0.94684 0.73237 0.46947 0.0
C1150 C 0.9902 0.67158 0.49757 0.0
C1151 C 0.99062 0.78449 0.49487 0.0
C1152 C 0.04635 0.75656 0.56023 0.0
C1153 C 0.07915 0.7721 0.54865 0.0
C1154 C 0.01714 0.74226 0.54341 0.0
C1155 C 0.02083 0.74361 0.51428 0.0
C1156 C 0.05388 0.7598 0.50246 0.0
C1157 C 0.08263 0.77414 0.51979 0.0
C1158 C 0.98234 0.72543 0.5568 0.0
C1159 C 0.05888 0.76192 0.47149 0.0
H1160 H 0.93553 0.65243 0.46451 0.0
H1161 H 0.93573 0.74735 0.46222 0.0
H1162 H 0.01696 0.68302 0.4903 0.0
H1163 H 0.9907 0.67084 0.5205 0.0
H1164 H 0.9755 0.64499 0.48971 0.0
H1165 H 0.9762 0.79614 0.48592 0.0
H1166 H 0.99068 0.78674 0.51772 0.0
H1167 H 0.01753 0.79939 0.48788 0.0
H1168 H 0.04349 0.75511 0.58253 0.0
H1169 H 0.10778 0.78742 0.51063 0.0
H1170 H 0.96777 0.69811 0.55084 0.0
H1171 H 0.96768 0.73752 0.54935 0.0
H1172 H 0.98386 0.72718 0.57972 0.0
H1173 H 0.04599 0.73589 0.46244 0.0
H1174 H 0.08627 0.775 0.46558 0.0
H1175 H 0.04703 0.77588 0.46212 0.0
C1176 C 0.70452 0.07959 0.01728 0.0
C1177 C 0.72623 0.08592 0.03985 0.0
C1178 C 0.68986 0.04825 1.00322 0.0
C1179 C 0.69654 0.02241 0.01241 0.0
C1180 C 0.71867 0.02886 0.03519 0.0
C1181 C 0.73348 0.06071 0.04853 0.0
C1182 C 0.66688 0.04263 0.97876 0.0
C1183 C 0.72594 1.00181 0.04594 0.0
C1184 C 0.62977 0.93153 0.99343 0.0
C1185 C 0.64542 0.92483 0.97125 0.0
C1186 C 0.64652 0.96286 0.00749 0.0
C1187 C 0.67942 0.98832 0.99872 0.0
C1188 C 0.69539 0.9815 0.97635 0.0
C1189 C 0.67825 0.94967 0.96299 0.0
C1190 C 0.62883 0.96887 0.0315 0.0
C1191 C 0.73014 0.00815 0.96606 0.0
H1192 H 0.69897 0.09921 0.01067 0.0
H1193 H 0.74998 0.06561 0.06626 0.0
H1194 H 0.67596 0.03461 0.96047 0.0
H1195 H 0.64063 0.0218 0.98339 0.0
H1196 H 0.6658 0.06593 0.97332 0.0
H1197 H 0.74434 0.01115 0.06342 0.0
H1198 H 0.70184 0.97935 0.05303 0.0
H1199 H 0.73637 0.99297 0.02915 0.0
H1200 H 0.60433 0.91219 0.99972 0.0
H1201 H 0.69008 0.94451 0.94557 0.0
H1202 H 0.62399 0.99001 0.02652 0.0
H1203 H 0.64545 0.97664 0.05008 0.0
H1204 H 0.6041 0.94583 0.03665 0.0
H1205 H 0.72912 0.03085 0.95869 0.0
H1206 H 0.73938 0.99854 0.94889 0.0
H1207 H 0.74897 0.01672 0.98317 0.0
C1208 C 0.73212 0.6754 0.46224 0.0
C1209 C 0.72469 0.64283 0.47078 0.0
C1210 C 0.71732 0.69244 0.47561 0.0
C1211 C 0.69503 0.67666 0.49828 0.0
C1212 C 0.68817 0.64404 0.50734 0.0
C1213 C 0.7028 0.62736 0.49325 0.0
C1214 C 0.72477 0.72686 0.46499 0.0
C1215 C 0.66504 0.62659 0.5317 0.0
C1216 C 0.67681 0.73108 0.5478 0.0
C1217 C 0.64408 0.7233 0.53945 0.0
C1218 C 0.69389 0.71631 0.53445 0.0
C1219 C 0.67796 0.69367 0.512 0.0
C1220 C 0.64513 0.68642 0.50315 0.0
C1221 C 0.62843 0.70106 0.51721 0.0
C1222 C 0.72854 0.72419 0.54484 0.0
C1223 C 0.62748 0.66288 0.47904 0.0
H1224 H 0.74876 0.68708 0.4446 0.0
H1225 H 0.69712 0.60211 0.49974 0.0
H1226 H 0.70075 0.72538 0.45787 0.0
H1227 H 0.73519 0.74602 0.48186 0.0
H1228 H 0.74325 0.73597 0.44757 0.0
H1229 H 0.66384 0.60213 0.53706 0.0
H1230 H 0.67406 0.64357 0.55006 0.0
H1231 H 0.63884 0.62129 0.52699 0.0
H1232 H 0.68863 0.74799 0.56527 0.0
H1233 H 0.60306 0.69511 0.51086 0.0
H1234 H 0.74748 0.73452 0.52781 0.0
H1235 H 0.72738 0.70036 0.5521 0.0
H1236 H 0.73774 0.74289 0.56211 0.0
H1237 H 0.6442 0.67179 0.46052 0.0
H1238 H 0.60283 0.66134 0.47385 0.0
H1239 H 0.62253 0.63684 0.48393 0.0
C1240 C 0.93307 0.62767 0.01686 0.0
C1241 C 0.92636 0.64323 0.0391 0.0
C1242 C 0.96445 0.64443 1.00288 0.0
C1243 C 0.98996 0.67723 0.01181 0.0
C1244 C 0.98315 0.6931 0.03425 0.0
C1245 C 0.95126 0.67596 0.04752 0.0
C1246 C 0.97045 0.62686 0.97877 0.0
C1247 C 0.00986 0.72772 0.04473 0.0
C1248 C 0.08125 0.70218 0.99342 0.0
C1249 C 0.08777 0.72413 0.97099 0.0
C1250 C 0.04984 0.68747 0.00737 0.0
C1251 C 0.02412 0.69434 0.99821 0.0
C1252 C 0.03074 0.71669 0.97556 0.0
C1253 C 0.06266 0.73155 0.96234 0.0
C1254 C 0.04404 0.66426 0.03169 0.0
C1255 C 1.00381 0.72416 0.96485 0.0
H1256 H 0.91369 0.6023 0.01046 0.0
H1257 H 0.94609 0.68772 0.065 0.0
H1258 H 0.97837 0.64363 0.96029 0.0
H1259 H 0.9915 0.62186 0.98373 0.0
H1260 H 0.94737 0.60223 0.97348 0.0
H1261 H 1.00026 0.73689 0.06196 0.0
H1262 H 0.03248 0.72655 0.05208 0.0
H1263 H 0.01854 0.74669 0.02772 0.0
H1264 H 0.10079 0.6965 1.0 0.0
H1265 H 0.0677 0.74824 0.94472 0.0
H1266 H 0.02314 0.63808 0.0269 0.0
H1267 H 0.036 0.67324 0.05004 0.0
H1268 H 0.06725 0.66302 0.03712 0.0
H1269 H 0.98131 0.70015 0.95765 0.0
H1270 H 0.01326 0.74268 0.94746 0.0
H1271 H 0.99498 0.73454 0.98169 0.0
C1272 C 0.30786 0.93028 0.51689 0.0
C1273 C 0.28693 0.92421 0.53996 0.0
C1274 C 0.32265 0.96173 0.50301 0.0
C1275 C 0.31686 0.98792 0.51285 0.0
C1276 C 0.29555 0.98175 0.53616 0.0
C1277 C 0.28066 0.94983 0.54937 0.0
C1278 C 0.34481 0.96708 0.47802 0.0
C1279 C 0.28922 0.00916 0.54756 0.0
C1280 C 0.38411 0.07847 0.49351 0.0
C1281 C 0.36813 0.08554 0.47179 0.0
C1282 C 0.36734 0.04712 0.50753 0.0
C1283 C 0.33405 0.02205 0.49924 0.0
C1284 C 0.31774 0.02925 0.47738 0.0
C1285 C 0.33495 0.06106 0.464 0.0
C1286 C 0.38545 0.04066 0.53097 0.0
C1287 C 0.28251 1.00304 0.46764 0.0
H1288 H 0.31272 0.91037 0.50977 0.0
H1289 H 0.26483 0.94515 0.56751 0.0
H1290 H 0.33541 0.97536 0.46011 0.0
H1291 H 0.37131 0.98764 0.48227 0.0
H1292 H 0.34534 0.94359 0.4722 0.0
H1293 H 0.27134 1.00002 0.56539 0.0
H1294 H 0.31373 0.03134 0.55436 0.0
H1295 H 0.27858 0.01836 0.53122 0.0
H1296 H 0.40981 0.09752 0.49945 0.0
H1297 H 0.32285 0.06648 0.44693 0.0
H1298 H 0.38965 0.01922 0.52556 0.0
H1299 H 0.3694 0.03312 0.54987 0.0
H1300 H 0.41053 0.06343 0.53578 0.0
H1301 H 0.28287 0.98015 0.45986 0.0
H1302 H 0.27302 0.01297 0.4509 0.0
H1303 H 0.26423 0.99468 0.48514 0.0
C1304 C 0.31076 0.38284 0.99403 0.0
C1305 C 0.28851 0.36731 0.97177 0.0
C1306 C 0.32537 0.36604 0.00799 0.0
C1307 C 0.31808 0.33325 0.99901 0.0
C1308 C 0.29543 0.31744 0.97655 0.0
C1309 C 0.28068 0.3346 0.96331 0.0
C1310 C 0.34891 0.38356 0.03212 0.0
C1311 C 0.28753 0.28284 0.96602 0.0
C1312 C 0.38443 0.30834 0.01745 0.0
C1313 C 0.36897 0.28635 0.03985 0.0
C1314 C 0.36772 0.32302 1.00347 0.0
C1315 C 0.3351 0.31611 0.01259 0.0
C1316 C 0.31934 0.2937 0.0352 0.0
C1317 C 0.3364 0.27886 0.04844 0.0
C1318 C 0.38516 0.34627 0.97917 0.0
C1319 C 0.28492 0.2862 0.04588 0.0
H1320 H 0.31675 0.4082 1.00047 0.0
H1321 H 0.26376 0.32288 0.94583 0.0
H1322 H 0.34003 0.36674 0.05058 0.0
H1323 H 0.37496 0.38857 0.02717 0.0
H1324 H 0.35043 0.40817 0.03745 0.0
H1325 H 0.26879 0.27372 0.94877 0.0
H1326 H 0.31134 0.28402 0.95868 0.0
H1327 H 0.27721 0.26382 0.98299 0.0
H1328 H 0.40969 0.31409 0.01092 0.0
H1329 H 0.32473 0.26214 0.06604 0.0
H1330 H 0.39048 0.37245 0.984 0.0
H1331 H 0.36816 0.33736 0.96082 0.0
H1332 H 0.4096 0.34748 0.97374 0.0
H1333 H 0.28641 0.31018 0.05314 0.0
H1334 H 0.27581 0.26762 0.06323 0.0
H1335 H 0.26575 0.27588 0.02902 0.0
C1336 C 0.06185 0.33342 0.54843 0.0
C1337 C 0.08669 0.36628 0.54024 0.0
C1338 C 0.02999 0.31635 0.53511 0.0
C1339 C 0.02313 0.33243 0.51286 0.0
C1340 C 0.04858 0.36537 0.50416 0.0
C1341 C 0.07995 0.38204 0.51818 0.0
C1342 C 1.00335 0.28156 0.54532 0.0
C1343 C 0.04253 0.38318 0.48027 0.0
C1344 C 0.95065 0.2786 0.46304 0.0
C1345 C 0.92545 0.28582 0.47184 0.0
C1346 C 0.98252 0.29336 0.47634 0.0
C1347 C 0.98901 0.31538 0.49921 0.0
C1348 C 0.96319 0.32203 0.50852 0.0
C1349 C 0.93183 0.30745 0.49449 0.0
C1350 C 0.00956 0.28614 0.46546 0.0
C1351 C 0.96883 0.34488 0.53308 0.0
H1352 H 0.06704 0.32151 0.56577 0.0
H1353 H 0.09927 0.40751 0.51194 0.0
H1354 H 0.98067 0.28255 0.55279 0.0
H1355 H 0.99474 0.26281 0.52815 0.0
H1356 H 0.01299 0.27223 0.56241 0.0
H1357 H 0.06556 0.40792 0.47516 0.0
H1358 H 0.03471 0.36665 0.46164 0.0
H1359 H 0.0214 0.388 0.48536 0.0
H1360 H 0.94572 0.26217 0.44526 0.0
H1361 H 0.91222 0.31297 0.50119 0.0
H1362 H 0.01841 0.27562 0.48216 0.0
H1363 H 0.03202 0.31027 0.45842 0.0
H1364 H 1.0002 0.26783 0.44791 0.0
H1365 H 0.97689 0.33572 0.55129 0.0
H1366 H 0.94554 0.34593 0.53861 0.0
H1367 H 0.98966 0.37115 0.5285 0.0
loop_
_geom_bond_atom_site_label_1
_geom_bond_atom_site_label_2
_geom_bond_distance
_geom_bond_site_symmetry_2
_ccdc_geom_bond_type
Co0 O3 1.970 . S
Co0 N17 1.989 . S
Co0 O25 1.967 . S
Co0 O32 1.920 . S
Co1 O4 1.966 . S
Co1 N10 2.022 . S
Co1 N18 1.993 . S
Co1 O26 1.941 . S
C2 O3 1.258 . S
C2 O4 1.263 . S
O3 Co0 1.970 . S
O3 C2 1.258 . S
O4 Co1 1.966 . S
O4 C2 1.263 . S
C5 O6 1.235 . S
C5 O32 1.289 . S
O6 C5 1.235 . S
C7 C9 1.400 . S
C7 N10 1.351 . S
C7 C12 1.501 . S
C8 C9 1.387 . S
C8 N11 1.341 . S
C9 C7 1.400 . S
C9 C8 1.387 . S
N10 Co1 2.022 . S
N10 C7 1.351 . S
N10 N11 1.365 . S
N11 C8 1.341 . S
N11 N10 1.365 . S
N11 H31 0.862 . S
C12 C7 1.501 . S
C12 H13 0.961 . S
C12 H14 0.961 . S
C12 H15 0.960 . S
H13 C12 0.961 . S
H14 C12 0.961 . S
H15 C12 0.960 . S
C16 N17 1.342 . S
C16 C20 1.401 . S
C16 C21 1.499 . S
N17 Co0 1.989 . S
N17 C16 1.342 . S
N17 N18 1.388 . S
N18 Co1 1.993 . S
N18 N17 1.388 . S
N18 C19 1.346 . S
C19 N18 1.346 . S
C19 C20 1.396 . S
C19 C29 1.510 . S
C20 C16 1.401 . S
C20 C19 1.396 . S
C21 C16 1.499 . S
C21 H22 0.959 . S
C21 H23 0.960 . S
C21 H24 0.961 . S
H22 C21 0.959 . S
H23 C21 0.960 . S
H24 C21 0.961 . S
O25 Co0 1.967 . S
O25 C33 1.258 . S
O26 Co1 1.941 . S
O26 C33 1.266 . S
H27 C29 0.959 . S
H28 C29 0.961 . S
C29 C19 1.510 . S
C29 H27 0.959 . S
C29 H28 0.961 . S
C29 H30 0.960 . S
H30 C29 0.960 . S
H31 N11 0.862 . S
O32 Co0 1.920 . S
O32 C5 1.289 . S
C33 O25 1.258 . S
C33 O26 1.266 . S
Co34 O37 1.970 . S
Co34 N51 1.989 . S
Co34 O59 1.967 . S
Co34 O66 1.920 . S
Co35 O38 1.966 . S
Co35 N44 2.022 . S
Co35 N52 1.993 . S
Co35 O60 1.941 . S
C36 O37 1.258 . S
C36 O38 1.263 . S
O37 Co34 1.970 . S
O37 C36 1.258 . S
O38 Co35 1.966 . S
O38 C36 1.263 . S
C39 O40 1.235 . S
C39 O66 1.289 . S
O40 C39 1.235 . S
C41 C43 1.400 . S
C41 N44 1.351 . S
C41 C46 1.501 . S
C42 C43 1.387 . S
C42 N45 1.341 . S
C43 C41 1.400 . S
C43 C42 1.387 . S
N44 Co35 2.022 . S
N44 C41 1.351 . S
N44 N45 1.365 . S
N45 C42 1.341 . S
N45 N44 1.365 . S
N45 H65 0.862 . S
C46 C41 1.501 . S
C46 H47 0.961 . S
C46 H48 0.961 . S
C46 H49 0.960 . S
H47 C46 0.961 . S
H48 C46 0.961 . S
H49 C46 0.960 . S
C50 N51 1.342 . S
C50 C54 1.401 . S
C50 C55 1.499 . S
N51 Co34 1.989 . S
N51 C50 1.342 . S
N51 N52 1.388 . S
N52 Co35 1.993 . S
N52 N51 1.388 . S
N52 C53 1.346 . S
C53 N52 1.346 . S
C53 C54 1.396 . S
C53 C63 1.510 . S
C54 C50 1.401 . S
C54 C53 1.396 . S
C55 C50 1.499 . S
C55 H56 0.959 . S
C55 H57 0.960 . S
C55 H58 0.961 . S
H56 C55 0.959 . S
H57 C55 0.960 . S
H58 C55 0.961 . S
O59 Co34 1.967 . S
O59 C67 1.258 . S
O60 Co35 1.941 . S
O60 C67 1.266 . S
H61 C63 0.959 . S
H62 C63 0.961 . S
C63 C53 1.510 . S
C63 H61 0.959 . S
C63 H62 0.961 . S
C63 H64 0.960 . S
H64 C63 0.960 . S
H65 N45 0.862 . S
O66 Co34 1.920 . S
O66 C39 1.289 . S
C67 O59 1.258 . S
C67 O60 1.266 . S
Co68 O71 1.970 . S
Co68 N85 1.989 . S
Co68 O93 1.967 . S
Co68 O100 1.920 . S
Co69 O72 1.966 . S
Co69 N78 2.022 . S
Co69 N86 1.993 . S
Co69 O94 1.941 . S
C70 O71 1.258 . S
C70 O72 1.263 . S
O71 Co68 1.970 . S
O71 C70 1.258 . S
O72 Co69 1.966 . S
O72 C70 1.263 . S
C73 O74 1.235 . S
C73 O100 1.289 . S
O74 C73 1.235 . S
C75 C77 1.400 . S
C75 N78 1.351 . S
C75 C80 1.501 . S
C76 C77 1.387 . S
C76 N79 1.341 . S
C77 C75 1.400 . S
C77 C76 1.387 . S
N78 Co69 2.022 . S
N78 C75 1.351 . S
N78 N79 1.365 . S
N79 C76 1.341 . S
N79 N78 1.365 . S
N79 H99 0.862 . S
C80 C75 1.501 . S
C80 H81 0.961 . S
C80 H82 0.961 . S
C80 H83 0.960 . S
H81 C80 0.961 . S
H82 C80 0.961 . S
H83 C80 0.960 . S
C84 N85 1.342 . S
C84 C88 1.401 . S
C84 C89 1.499 . S
N85 Co68 1.989 . S
N85 C84 1.342 . S
N85 N86 1.388 . S
N86 Co69 1.993 . S
N86 N85 1.388 . S
N86 C87 1.346 . S
C87 N86 1.346 . S
C87 C88 1.396 . S
C87 C97 1.510 . S
C88 C84 1.401 . S
C88 C87 1.396 . S
C89 C84 1.499 . S
C89 H90 0.959 . S
C89 H91 0.960 . S
C89 H92 0.961 . S
H90 C89 0.959 . S
H91 C89 0.960 . S
H92 C89 0.961 . S
O93 Co68 1.967 . S
O93 C101 1.258 . S
O94 Co69 1.941 . S
O94 C101 1.266 . S
H95 C97 0.959 . S
H96 C97 0.961 . S
C97 C87 1.510 . S
C97 H95 0.959 . S
C97 H96 0.961 . S
C97 H98 0.960 . S
H98 C97 0.960 . S
H99 N79 0.862 . S
O100 Co68 1.920 . S
O100 C73 1.289 . S
C101 O93 1.258 . S
C101 O94 1.266 . S
Co102 O105 1.970 . S
Co102 N119 1.989 . S
Co102 O127 1.967 . S
Co102 O134 1.920 . S
Co103 O106 1.966 . S
Co103 N112 2.022 . S
Co103 N120 1.993 . S
Co103 O128 1.941 . S
C104 O105 1.258 . S
C104 O106 1.263 . S
O105 Co102 1.970 . S
O105 C104 1.258 . S
O106 Co103 1.966 . S
O106 C104 1.263 . S
C107 O108 1.235 . S
C107 O134 1.289 . S
O108 C107 1.235 . S
C109 C111 1.400 . S
C109 N112 1.351 . S
C109 C114 1.501 . S
C110 C111 1.387 . S
C110 N113 1.341 . S
C111 C109 1.400 . S
C111 C110 1.387 . S
N112 Co103 2.022 . S
N112 C109 1.351 . S
N112 N113 1.365 . S
N113 C110 1.341 . S
N113 N112 1.365 . S
N113 H133 0.862 . S
C114 C109 1.501 . S
C114 H115 0.961 . S
C114 H116 0.961 . S
C114 H117 0.960 . S
H115 C114 0.961 . S
H116 C114 0.961 . S
H117 C114 0.960 . S
C118 N119 1.342 . S
C118 C122 1.401 . S
C118 C123 1.499 . S
N119 Co102 1.989 . S
N119 C118 1.342 . S
N119 N120 1.388 . S
N120 Co103 1.993 . S
N120 N119 1.388 . S
N120 C121 1.346 . S
C121 N120 1.346 . S
C121 C122 1.396 . S
C121 C131 1.510 . S
C122 C118 1.401 . S
C122 C121 1.396 . S
C123 C118 1.499 . S
C123 H124 0.959 . S
C123 H125 0.960 . S
C123 H126 0.961 . S
H124 C123 0.959 . S
H125 C123 0.960 . S
H126 C123 0.961 . S
O127 Co102 1.967 . S
O127 C135 1.258 . S
O128 Co103 1.941 . S
O128 C135 1.266 . S
H129 C131 0.959 . S
H130 C131 0.961 . S
C131 C121 1.510 . S
C131 H129 0.959 . S
C131 H130 0.961 . S
C131 H132 0.960 . S
H132 C131 0.960 . S
H133 N113 0.862 . S
O134 Co102 1.920 . S
O134 C107 1.289 . S
C135 O127 1.258 . S
C135 O128 1.266 . S
Co136 O139 1.970 . S
Co136 N153 1.989 . S
Co136 O161 1.967 . S
Co136 O168 1.920 . S
Co137 O140 1.966 . S
Co137 N146 2.022 . S
Co137 N154 1.993 . S
Co137 O162 1.941 . S
C138 O139 1.258 . S
C138 O140 1.263 . S
O139 Co136 1.970 . S
O139 C138 1.258 . S
O140 Co137 1.966 . S
O140 C138 1.263 . S
C141 O142 1.235 . S
C141 O168 1.289 . S
O142 C141 1.235 . S
C143 C145 1.400 . S
C143 N146 1.351 . S
C143 C148 1.501 . S
C144 C145 1.387 . S
C144 N147 1.341 . S
C145 C143 1.400 . S
C145 C144 1.387 . S
N146 Co137 2.022 . S
N146 C143 1.351 . S
N146 N147 1.365 . S
N147 C144 1.341 . S
N147 N146 1.365 . S
N147 H167 0.862 . S
C148 C143 1.501 . S
C148 H149 0.961 . S
C148 H150 0.961 . S
C148 H151 0.960 . S
H149 C148 0.961 . S
H150 C148 0.961 . S
H151 C148 0.960 . S
C152 N153 1.342 . S
C152 C156 1.401 . S
C152 C157 1.499 . S
N153 Co136 1.989 . S
N153 C152 1.342 . S
N153 N154 1.388 . S
N154 Co137 1.993 . S
N154 N153 1.388 . S
N154 C155 1.346 . S
C155 N154 1.346 . S
C155 C156 1.396 . S
C155 C165 1.510 . S
C156 C152 1.401 . S
C156 C155 1.396 . S
C157 C152 1.499 . S
C157 H158 0.959 . S
C157 H159 0.960 . S
C157 H160 0.961 . S
H158 C157 0.959 . S
H159 C157 0.960 . S
H160 C157 0.961 . S
O161 Co136 1.967 . S
O161 C169 1.258 . S
O162 Co137 1.941 . S
O162 C169 1.266 . S
H163 C165 0.959 . S
H164 C165 0.961 . S
C165 C155 1.510 . S
C165 H163 0.959 . S
C165 H164 0.961 . S
C165 H166 0.960 . S
H166 C165 0.960 . S
H167 N147 0.862 . S
O168 Co136 1.920 . S
O168 C141 1.289 . S
C169 O161 1.258 . S
C169 O162 1.266 . S
Co170 O173 1.970 . S
Co170 N187 1.989 . S
Co170 O195 1.967 . S
Co170 O202 1.920 . S
Co171 O174 1.966 . S
Co171 N180 2.022 . S
Co171 N188 1.993 . S
Co171 O196 1.941 . S
C172 O173 1.258 . S
C172 O174 1.263 . S
O173 Co170 1.970 . S
O173 C172 1.258 . S
O174 Co171 1.966 . S
O174 C172 1.263 . S
C175 O176 1.235 . S
C175 O202 1.289 . S
O176 C175 1.235 . S
C177 C179 1.400 . S
C177 N180 1.351 . S
C177 C182 1.501 . S
C178 C179 1.387 . S
C178 N181 1.341 . S
C179 C177 1.400 . S
C179 C178 1.387 . S
N180 Co171 2.022 . S
N180 C177 1.351 . S
N180 N181 1.365 . S
N181 C178 1.341 . S
N181 N180 1.365 . S
N181 H201 0.862 . S
C182 C177 1.501 . S
C182 H183 0.961 . S
C182 H184 0.961 . S
C182 H185 0.960 . S
H183 C182 0.961 . S
H184 C182 0.961 . S
H185 C182 0.960 . S
C186 N187 1.342 . S
C186 C190 1.401 . S
C186 C191 1.499 . S
N187 Co170 1.989 . S
N187 C186 1.342 . S
N187 N188 1.388 . S
N188 Co171 1.993 . S
N188 N187 1.388 . S
N188 C189 1.346 . S
C189 N188 1.346 . S
C189 C190 1.396 . S
C189 C199 1.510 . S
C190 C186 1.401 . S
C190 C189 1.396 . S
C191 C186 1.499 . S
C191 H192 0.959 . S
C191 H193 0.960 . S
C191 H194 0.961 . S
H192 C191 0.959 . S
H193 C191 0.960 . S
H194 C191 0.961 . S
O195 Co170 1.967 . S
O195 C203 1.258 . S
O196 Co171 1.941 . S
O196 C203 1.266 . S
H197 C199 0.959 . S
H198 C199 0.961 . S
C199 C189 1.510 . S
C199 H197 0.959 . S
C199 H198 0.961 . S
C199 H200 0.960 . S
H200 C199 0.960 . S
H201 N181 0.862 . S
O202 Co170 1.920 . S
O202 C175 1.289 . S
C203 O195 1.258 . S
C203 O196 1.266 . S
Co204 O207 1.970 . S
Co204 N221 1.989 . S
Co204 O229 1.967 . S
Co204 O236 1.920 . S
Co205 O208 1.966 . S
Co205 N214 2.022 . S
Co205 N222 1.993 . S
Co205 O230 1.941 . S
C206 O207 1.258 . S
C206 O208 1.263 . S
O207 Co204 1.970 . S
O207 C206 1.258 . S
O208 Co205 1.966 . S
O208 C206 1.263 . S
C209 O210 1.235 . S
C209 O236 1.289 . S
O210 C209 1.235 . S
C211 C213 1.400 . S
C211 N214 1.351 . S
C211 C216 1.501 . S
C212 C213 1.387 . S
C212 N215 1.341 . S
C213 C211 1.400 . S
C213 C212 1.387 . S
N214 Co205 2.022 . S
N214 C211 1.351 . S
N214 N215 1.365 . S
N215 C212 1.341 . S
N215 N214 1.365 . S
N215 H235 0.862 . S
C216 C211 1.501 . S
C216 H217 0.961 . S
C216 H218 0.961 . S
C216 H219 0.960 . S
H217 C216 0.961 . S
H218 C216 0.961 . S
H219 C216 0.960 . S
C220 N221 1.342 . S
C220 C224 1.401 . S
C220 C225 1.499 . S
N221 Co204 1.989 . S
N221 C220 1.342 . S
N221 N222 1.388 . S
N222 Co205 1.993 . S
N222 N221 1.388 . S
N222 C223 1.346 . S
C223 N222 1.346 . S
C223 C224 1.396 . S
C223 C233 1.510 . S
C224 C220 1.401 . S
C224 C223 1.396 . S
C225 C220 1.499 . S
C225 H226 0.959 . S
C225 H227 0.960 . S
C225 H228 0.961 . S
H226 C225 0.959 . S
H227 C225 0.960 . S
H228 C225 0.961 . S
O229 Co204 1.967 . S
O229 C237 1.258 . S
O230 Co205 1.941 . S
O230 C237 1.266 . S
H231 C233 0.959 . S
H232 C233 0.961 . S
C233 C223 1.510 . S
C233 H231 0.959 . S
C233 H232 0.961 . S
C233 H234 0.960 . S
H234 C233 0.960 . S
H235 N215 0.862 . S
O236 Co204 1.920 . S
O236 C209 1.289 . S
C237 O229 1.258 . S
C237 O230 1.266 . S
Co238 O241 1.970 . S
Co238 N255 1.989 . S
Co238 O263 1.967 . S
Co238 O270 1.920 . S
Co239 O242 1.966 . S
Co239 N248 2.022 . S
Co239 N256 1.993 . S
Co239 O264 1.941 . S
C240 O241 1.258 . S
C240 O242 1.263 . S
O241 Co238 1.970 . S
O241 C240 1.258 . S
O242 Co239 1.966 . S
O242 C240 1.263 . S
C243 O244 1.235 . S
C243 O270 1.289 . S
O244 C243 1.235 . S
C245 C247 1.400 . S
C245 N248 1.351 . S
C245 C250 1.501 . S
C246 C247 1.387 . S
C246 N249 1.341 . S
C247 C245 1.400 . S
C247 C246 1.387 . S
N248 Co239 2.022 . S
N248 C245 1.351 . S
N248 N249 1.365 . S
N249 C246 1.341 . S
N249 N248 1.365 . S
N249 H269 0.862 . S
C250 C245 1.501 . S
C250 H251 0.961 . S
C250 H252 0.961 . S
C250 H253 0.960 . S
H251 C250 0.961 . S
H252 C250 0.961 . S
H253 C250 0.960 . S
C254 N255 1.342 . S
C254 C258 1.401 . S
C254 C259 1.499 . S
N255 Co238 1.989 . S
N255 C254 1.342 . S
N255 N256 1.388 . S
N256 Co239 1.993 . S
N256 N255 1.388 . S
N256 C257 1.346 . S
C257 N256 1.346 . S
C257 C258 1.396 . S
C257 C267 1.510 . S
C258 C254 1.401 . S
C258 C257 1.396 . S
C259 C254 1.499 . S
C259 H260 0.959 . S
C259 H261 0.960 . S
C259 H262 0.961 . S
H260 C259 0.959 . S
H261 C259 0.960 . S
H262 C259 0.961 . S
O263 Co238 1.967 . S
O263 C271 1.258 . S
O264 Co239 1.941 . S
O264 C271 1.266 . S
H265 C267 0.959 . S
H266 C267 0.961 . S
C267 C257 1.510 . S
C267 H265 0.959 . S
C267 H266 0.961 . S
C267 H268 0.960 . S
H268 C267 0.960 . S
H269 N249 0.862 . S
O270 Co238 1.920 . S
O270 C243 1.289 . S
C271 O263 1.258 . S
C271 O264 1.266 . S
Co272 O275 1.970 . S
Co272 N289 1.989 . S
Co272 O297 1.967 . S
Co272 O304 1.920 . S
Co273 O276 1.966 . S
Co273 N282 2.022 . S
Co273 N290 1.993 . S
Co273 O298 1.941 . S
C274 O275 1.258 . S
C274 O276 1.263 . S
O275 Co272 1.970 . S
O275 C274 1.258 . S
O276 Co273 1.966 . S
O276 C274 1.263 . S
C277 O278 1.235 . S
C277 O304 1.289 . S
O278 C277 1.235 . S
C279 C281 1.400 . S
C279 N282 1.351 . S
C279 C284 1.501 . S
C280 C281 1.387 . S
C280 N283 1.341 . S
C281 C279 1.400 . S
C281 C280 1.387 . S
N282 Co273 2.022 . S
N282 C279 1.351 . S
N282 N283 1.365 . S
N283 C280 1.341 . S
N283 N282 1.365 . S
N283 H303 0.862 . S
C284 C279 1.501 . S
C284 H285 0.961 . S
C284 H286 0.961 . S
C284 H287 0.960 . S
H285 C284 0.961 . S
H286 C284 0.961 . S
H287 C284 0.960 . S
C288 N289 1.342 . S
C288 C292 1.401 . S
C288 C293 1.499 . S
N289 Co272 1.989 . S
N289 C288 1.342 . S
N289 N290 1.388 . S
N290 Co273 1.993 . S
N290 N289 1.388 . S
N290 C291 1.346 . S
C291 N290 1.346 . S
C291 C292 1.396 . S
C291 C301 1.510 . S
C292 C288 1.401 . S
C292 C291 1.396 . S
C293 C288 1.499 . S
C293 H294 0.959 . S
C293 H295 0.960 . S
C293 H296 0.961 . S
H294 C293 0.959 . S
H295 C293 0.960 . S
H296 C293 0.961 . S
O297 Co272 1.967 . S
O297 C305 1.258 . S
O298 Co273 1.941 . S
O298 C305 1.266 . S
H299 C301 0.959 . S
H300 C301 0.961 . S
C301 C291 1.510 . S
C301 H299 0.959 . S
C301 H300 0.961 . S
C301 H302 0.960 . S
H302 C301 0.960 . S
H303 N283 0.862 . S
O304 Co272 1.920 . S
O304 C277 1.289 . S
C305 O297 1.258 . S
C305 O298 1.266 . S
Co306 O309 1.970 . S
Co306 N323 1.989 . S
Co306 O331 1.967 . S
Co306 O338 1.920 . S
Co307 O310 1.966 . S
Co307 N316 2.022 . S
Co307 N324 1.993 . S
Co307 O332 1.941 . S
C308 O309 1.258 . S
C308 O310 1.263 . S
O309 Co306 1.970 . S
O309 C308 1.258 . S
O310 Co307 1.966 . S
O310 C308 1.263 . S
C311 O312 1.235 . S
C311 O338 1.289 . S
O312 C311 1.235 . S
C313 C315 1.400 . S
C313 N316 1.351 . S
C313 C318 1.501 . S
C314 C315 1.387 . S
C314 N317 1.341 . S
C315 C313 1.400 . S
C315 C314 1.387 . S
N316 Co307 2.022 . S
N316 C313 1.351 . S
N316 N317 1.365 . S
N317 C314 1.341 . S
N317 N316 1.365 . S
N317 H337 0.862 . S
C318 C313 1.501 . S
C318 H319 0.961 . S
C318 H320 0.961 . S
C318 H321 0.960 . S
H319 C318 0.961 . S
H320 C318 0.961 . S
H321 C318 0.960 . S
C322 N323 1.342 . S
C322 C326 1.401 . S
C322 C327 1.499 . S
N323 Co306 1.989 . S
N323 C322 1.342 . S
N323 N324 1.388 . S
N324 Co307 1.993 . S
N324 N323 1.388 . S
N324 C325 1.346 . S
C325 N324 1.346 . S
C325 C326 1.396 . S
C325 C335 1.510 . S
C326 C322 1.401 . S
C326 C325 1.396 . S
C327 C322 1.499 . S
C327 H328 0.959 . S
C327 H329 0.960 . S
C327 H330 0.961 . S
H328 C327 0.959 . S
H329 C327 0.960 . S
H330 C327 0.961 . S
O331 Co306 1.967 . S
O331 C339 1.258 . S
O332 Co307 1.941 . S
O332 C339 1.266 . S
H333 C335 0.959 . S
H334 C335 0.961 . S
C335 C325 1.510 . S
C335 H333 0.959 . S
C335 H334 0.961 . S
C335 H336 0.960 . S
H336 C335 0.960 . S
H337 N317 0.862 . S
O338 Co306 1.920 . S
O338 C311 1.289 . S
C339 O331 1.258 . S
C339 O332 1.266 . S
Co340 O343 1.970 . S
Co340 N357 1.989 . S
Co340 O365 1.967 . S
Co340 O372 1.920 . S
Co341 O344 1.966 . S
Co341 N350 2.022 . S
Co341 N358 1.993 . S
Co341 O366 1.941 . S
C342 O343 1.258 . S
C342 O344 1.263 . S
O343 Co340 1.970 . S
O343 C342 1.258 . S
O344 Co341 1.966 . S
O344 C342 1.263 . S
C345 O346 1.235 . S
C345 O372 1.289 . S
O346 C345 1.235 . S
C347 C349 1.400 . S
C347 N350 1.351 . S
C347 C352 1.501 . S
C348 C349 1.387 . S
C348 N351 1.341 . S
C349 C347 1.400 . S
C349 C348 1.387 . S
N350 Co341 2.022 . S
N350 C347 1.351 . S
N350 N351 1.365 . S
N351 C348 1.341 . S
N351 N350 1.365 . S
N351 H371 0.862 . S
C352 C347 1.501 . S
C352 H353 0.961 . S
C352 H354 0.961 . S
C352 H355 0.960 . S
H353 C352 0.961 . S
H354 C352 0.961 . S
H355 C352 0.960 . S
C356 N357 1.342 . S
C356 C360 1.401 . S
C356 C361 1.499 . S
N357 Co340 1.989 . S
N357 C356 1.342 . S
N357 N358 1.388 . S
N358 Co341 1.993 . S
N358 N357 1.388 . S
N358 C359 1.346 . S
C359 N358 1.346 . S
C359 C360 1.396 . S
C359 C369 1.510 . S
C360 C356 1.401 . S
C360 C359 1.396 . S
C361 C356 1.499 . S
C361 H362 0.959 . S
C361 H363 0.960 . S
C361 H364 0.961 . S
H362 C361 0.959 . S
H363 C361 0.960 . S
H364 C361 0.961 . S
O365 Co340 1.967 . S
O365 C373 1.258 . S
O366 Co341 1.941 . S
O366 C373 1.266 . S
H367 C369 0.959 . S
H368 C369 0.961 . S
C369 C359 1.510 . S
C369 H367 0.959 . S
C369 H368 0.961 . S
C369 H370 0.960 . S
H370 C369 0.960 . S
H371 N351 0.862 . S
O372 Co340 1.920 . S
O372 C345 1.289 . S
C373 O365 1.258 . S
C373 O366 1.266 . S
Co374 O377 1.970 . S
Co374 N391 1.989 . S
Co374 O399 1.967 . S
Co374 O406 1.920 . S
Co375 O378 1.966 . S
Co375 N384 2.022 . S
Co375 N392 1.993 . S
Co375 O400 1.941 . S
C376 O377 1.258 . S
C376 O378 1.263 . S
O377 Co374 1.970 . S
O377 C376 1.258 . S
O378 Co375 1.966 . S
O378 C376 1.263 . S
C379 O380 1.235 . S
C379 O406 1.289 . S
O380 C379 1.235 . S
C381 C383 1.400 . S
C381 N384 1.351 . S
C381 C386 1.501 . S
C382 C383 1.387 . S
C382 N385 1.341 . S
C383 C381 1.400 . S
C383 C382 1.387 . S
N384 Co375 2.022 . S
N384 C381 1.351 . S
N384 N385 1.365 . S
N385 C382 1.341 . S
N385 N384 1.365 . S
N385 H405 0.862 . S
C386 C381 1.501 . S
C386 H387 0.961 . S
C386 H388 0.961 . S
C386 H389 0.960 . S
H387 C386 0.961 . S
H388 C386 0.961 . S
H389 C386 0.960 . S
C390 N391 1.342 . S
C390 C394 1.401 . S
C390 C395 1.499 . S
N391 Co374 1.989 . S
N391 C390 1.342 . S
N391 N392 1.388 . S
N392 Co375 1.993 . S
N392 N391 1.388 . S
N392 C393 1.346 . S
C393 N392 1.346 . S
C393 C394 1.396 . S
C393 C403 1.510 . S
C394 C390 1.401 . S
C394 C393 1.396 . S
C395 C390 1.499 . S
C395 H396 0.959 . S
C395 H397 0.960 . S
C395 H398 0.961 . S
H396 C395 0.959 . S
H397 C395 0.960 . S
H398 C395 0.961 . S
O399 Co374 1.967 . S
O399 C407 1.258 . S
O400 Co375 1.941 . S
O400 C407 1.266 . S
H401 C403 0.959 . S
H402 C403 0.961 . S
C403 C393 1.510 . S
C403 H401 0.959 . S
C403 H402 0.961 . S
C403 H404 0.960 . S
H404 C403 0.960 . S
H405 N385 0.862 . S
O406 Co374 1.920 . S
O406 C379 1.289 . S
C407 O399 1.258 . S
C407 O400 1.266 . S
C408 C409 1.391 . S
C408 C410 1.394 . S
C408 H424 0.931 . S
C409 C408 1.391 . S
C409 C413 1.376 . S
C410 C408 1.394 . S
C410 C411 1.369 . S
C410 C414 1.531 . S
C411 C410 1.369 . S
C411 C412 1.410 . S
C411 C419 1.503 . S
C412 C411 1.410 . S
C412 C413 1.392 . S
C412 C415 1.511 . S
C413 C409 1.376 . S
C413 C412 1.392 . S
C413 H425 0.929 . S
C414 C410 1.531 . S
C414 H426 0.960 . S
C414 H427 0.962 . S
C414 H428 0.960 . S
C415 C412 1.511 . S
C415 H429 0.961 . S
C415 H430 0.961 . S
C415 H431 0.961 . S
C416 C417 1.370 . S
C416 C418 1.363 . S
C416 H432 0.931 . S
C417 C416 1.370 . S
C417 C421 1.408 . S
C418 C416 1.363 . S
C418 C419 1.370 . S
C418 C422 1.524 . S
C419 C411 1.503 . S
C419 C418 1.370 . S
C419 C420 1.403 . S
C420 C419 1.403 . S
C420 C421 1.404 . S
C420 C423 1.539 . S
C421 C417 1.408 . S
C421 C420 1.404 . S
C421 H433 0.930 . S
C422 C418 1.524 . S
C422 H434 0.956 . S
C422 H435 0.961 . S
C422 H436 0.961 . S
C423 C420 1.539 . S
C423 H437 0.958 . S
C423 H438 0.961 . S
C423 H439 0.960 . S
H424 C408 0.931 . S
H425 C413 0.929 . S
H426 C414 0.960 . S
H427 C414 0.962 . S
H428 C414 0.960 . S
H429 C415 0.961 . S
H430 C415 0.961 . S
H431 C415 0.961 . S
H432 C416 0.931 . S
H433 C421 0.930 . S
H434 C422 0.956 . S
H435 C422 0.961 . S
H436 C422 0.961 . S
H437 C423 0.958 . S
H438 C423 0.961 . S
H439 C423 0.960 . S
C440 C441 1.391 . S
C440 C442 1.394 . S
C440 H456 0.931 . S
C441 C440 1.391 . S
C441 C445 1.376 . S
C442 C440 1.394 . S
C442 C443 1.369 . S
C442 C446 1.531 . S
C443 C442 1.369 . S
C443 C444 1.410 . S
C443 C451 1.503 . S
C444 C443 1.410 . S
C444 C445 1.392 . S
C444 C447 1.511 . S
C445 C441 1.376 . S
C445 C444 1.392 . S
C445 H457 0.929 . S
C446 C442 1.531 . S
C446 H458 0.960 . S
C446 H459 0.962 . S
C446 H460 0.960 . S
C447 C444 1.511 . S
C447 H461 0.961 . S
C447 H462 0.961 . S
C447 H463 0.961 . S
C448 C449 1.370 . S
C448 C450 1.363 . S
C448 H464 0.931 . S
C449 C448 1.370 . S
C449 C453 1.408 . S
C450 C448 1.363 . S
C450 C451 1.370 . S
C450 C454 1.524 . S
C451 C443 1.503 . S
C451 C450 1.370 . S
C451 C452 1.403 . S
C452 C451 1.403 . S
C452 C453 1.404 . S
C452 C455 1.539 . S
C453 C449 1.408 . S
C453 C452 1.404 . S
C453 H465 0.930 . S
C454 C450 1.524 . S
C454 H466 0.956 . S
C454 H467 0.961 . S
C454 H468 0.961 . S
C455 C452 1.539 . S
C455 H469 0.958 . S
C455 H470 0.961 . S
C455 H471 0.960 . S
H456 C440 0.931 . S
H457 C445 0.929 . S
H458 C446 0.960 . S
H459 C446 0.962 . S
H460 C446 0.960 . S
H461 C447 0.961 . S
H462 C447 0.961 . S
H463 C447 0.961 . S
H464 C448 0.931 . S
H465 C453 0.930 . S
H466 C454 0.956 . S
H467 C454 0.961 . S
H468 C454 0.961 . S
H469 C455 0.958 . S
H470 C455 0.961 . S
H471 C455 0.960 . S
C472 C473 1.391 . S
C472 C474 1.394 . S
C472 H488 0.931 . S
C473 C472 1.391 . S
C473 C477 1.376 . S
C474 C472 1.394 . S
C474 C475 1.369 . S
C474 C478 1.531 . S
C475 C474 1.369 . S
C475 C476 1.410 . S
C475 C483 1.503 . S
C476 C475 1.410 . S
C476 C477 1.392 . S
C476 C479 1.511 . S
C477 C473 1.376 . S
C477 C476 1.392 . S
C477 H489 0.929 . S
C478 C474 1.531 . S
C478 H490 0.960 . S
C478 H491 0.962 . S
C478 H492 0.960 . S
C479 C476 1.511 . S
C479 H493 0.961 . S
C479 H494 0.961 . S
C479 H495 0.961 . S
C480 C481 1.370 . S
C480 C482 1.363 . S
C480 H496 0.931 . S
C481 C480 1.370 . S
C481 C485 1.408 . S
C482 C480 1.363 . S
C482 C483 1.370 . S
C482 C486 1.524 . S
C483 C475 1.503 . S
C483 C482 1.370 . S
C483 C484 1.403 . S
C484 C483 1.403 . S
C484 C485 1.404 . S
C484 C487 1.539 . S
C485 C481 1.408 . S
C485 C484 1.404 . S
C485 H497 0.930 . S
C486 C482 1.524 . S
C486 H498 0.956 . S
C486 H499 0.961 . S
C486 H500 0.961 . S
C487 C484 1.539 . S
C487 H501 0.958 . S
C487 H502 0.961 . S
C487 H503 0.960 . S
H488 C472 0.931 . S
H489 C477 0.929 . S
H490 C478 0.960 . S
H491 C478 0.962 . S
H492 C478 0.960 . S
H493 C479 0.961 . S
H494 C479 0.961 . S
H495 C479 0.961 . S
H496 C480 0.931 . S
H497 C485 0.930 . S
H498 C486 0.956 . S
H499 C486 0.961 . S
H500 C486 0.961 . S
H501 C487 0.958 . S
H502 C487 0.961 . S
H503 C487 0.960 . S
C504 C505 1.391 . S
C504 C506 1.394 . S
C504 H520 0.931 . S
C505 C504 1.391 . S
C505 C509 1.376 . S
C506 C504 1.394 . S
C506 C507 1.369 . S
C506 C510 1.531 . S
C507 C506 1.369 . S
C507 C508 1.410 . S
C507 C515 1.503 . S
C508 C507 1.410 . S
C508 C509 1.392 . S
C508 C511 1.511 . S
C509 C505 1.376 . S
C509 C508 1.392 . S
C509 H521 0.929 . S
C510 C506 1.531 . S
C510 H522 0.960 . S
C510 H523 0.962 . S
C510 H524 0.960 . S
C511 C508 1.511 . S
C511 H525 0.961 . S
C511 H526 0.961 . S
C511 H527 0.961 . S
C512 C513 1.370 . S
C512 C514 1.363 . S
C512 H528 0.931 . S
C513 C512 1.370 . S
C513 C517 1.408 . S
C514 C512 1.363 . S
C514 C515 1.370 . S
C514 C518 1.524 . S
C515 C507 1.503 . S
C515 C514 1.370 . S
C515 C516 1.403 . S
C516 C515 1.403 . S
C516 C517 1.404 . S
C516 C519 1.539 . S
C517 C513 1.408 . S
C517 C516 1.404 . S
C517 H529 0.930 . S
C518 C514 1.524 . S
C518 H530 0.956 . S
C518 H531 0.961 . S
C518 H532 0.961 . S
C519 C516 1.539 . S
C519 H533 0.958 . S
C519 H534 0.961 . S
C519 H535 0.960 . S
H520 C504 0.931 . S
H521 C509 0.929 . S
H522 C510 0.960 . S
H523 C510 0.962 . S
H524 C510 0.960 . S
H525 C511 0.961 . S
H526 C511 0.961 . S
H527 C511 0.961 . S
H528 C512 0.931 . S
H529 C517 0.930 . S
H530 C518 0.956 . S
H531 C518 0.961 . S
H532 C518 0.961 . S
H533 C519 0.958 . S
H534 C519 0.961 . S
H535 C519 0.960 . S
C536 C537 1.391 . S
C536 C538 1.394 . S
C536 H552 0.931 . S
C537 C536 1.391 . S
C537 C541 1.376 . S
C538 C536 1.394 . S
C538 C539 1.369 . S
C538 C542 1.531 . S
C539 C538 1.369 . S
C539 C540 1.410 . S
C539 C547 1.503 . S
C540 C539 1.410 . S
C540 C541 1.392 . S
C540 C543 1.511 . S
C541 C537 1.376 . S
C541 C540 1.392 . S
C541 H553 0.929 . S
C542 C538 1.531 . S
C542 H554 0.960 . S
C542 H555 0.962 . S
C542 H556 0.960 . S
C543 C540 1.511 . S
C543 H557 0.961 . S
C543 H558 0.961 . S
C543 H559 0.961 . S
C544 C545 1.370 . S
C544 C546 1.363 . S
C544 H560 0.931 . S
C545 C544 1.370 . S
C545 C549 1.408 . S
C546 C544 1.363 . S
C546 C547 1.370 . S
C546 C550 1.524 . S
C547 C539 1.503 . S
C547 C546 1.370 . S
C547 C548 1.403 . S
C548 C547 1.403 . S
C548 C549 1.404 . S
C548 C551 1.539 . S
C549 C545 1.408 . S
C549 C548 1.404 . S
C549 H561 0.930 . S
C550 C546 1.524 . S
C550 H562 0.956 . S
C550 H563 0.961 . S
C550 H564 0.961 . S
C551 C548 1.539 . S
C551 H565 0.958 . S
C551 H566 0.961 . S
C551 H567 0.960 . S
H552 C536 0.931 . S
H553 C541 0.929 . S
H554 C542 0.960 . S
H555 C542 0.962 . S
H556 C542 0.960 . S
H557 C543 0.961 . S
H558 C543 0.961 . S
H559 C543 0.961 . S
H560 C544 0.931 . S
H561 C549 0.930 . S
H562 C550 0.956 . S
H563 C550 0.961 . S
H564 C550 0.961 . S
H565 C551 0.958 . S
H566 C551 0.961 . S
H567 C551 0.960 . S
C568 C569 1.391 . S
C568 C570 1.394 . S
C568 H584 0.931 . S
C569 C568 1.391 . S
C569 C573 1.376 . S
C570 C568 1.394 . S
C570 C571 1.369 . S
C570 C574 1.531 . S
C571 C570 1.369 . S
C571 C572 1.410 . S
C571 C579 1.503 . S
C572 C571 1.410 . S
C572 C573 1.392 . S
C572 C575 1.511 . S
C573 C569 1.376 . S
C573 C572 1.392 . S
C573 H585 0.929 . S
C574 C570 1.531 . S
C574 H586 0.960 . S
C574 H587 0.962 . S
C574 H588 0.960 . S
C575 C572 1.511 . S
C575 H589 0.961 . S
C575 H590 0.961 . S
C575 H591 0.961 . S
C576 C577 1.370 . S
C576 C578 1.363 . S
C576 H592 0.931 . S
C577 C576 1.370 . S
C577 C581 1.408 . S
C578 C576 1.363 . S
C578 C579 1.370 . S
C578 C582 1.524 . S
C579 C571 1.503 . S
C579 C578 1.370 . S
C579 C580 1.403 . S
C580 C579 1.403 . S
C580 C581 1.404 . S
C580 C583 1.539 . S
C581 C577 1.408 . S
C581 C580 1.404 . S
C581 H593 0.930 . S
C582 C578 1.524 . S
C582 H594 0.956 . S
C582 H595 0.961 . S
C582 H596 0.961 . S
C583 C580 1.539 . S
C583 H597 0.958 . S
C583 H598 0.961 . S
C583 H599 0.960 . S
H584 C568 0.931 . S
H585 C573 0.929 . S
H586 C574 0.960 . S
H587 C574 0.962 . S
H588 C574 0.960 . S
H589 C575 0.961 . S
H590 C575 0.961 . S
H591 C575 0.961 . S
H592 C576 0.931 . S
H593 C581 0.930 . S
H594 C582 0.956 . S
H595 C582 0.961 . S
H596 C582 0.961 . S
H597 C583 0.958 . S
H598 C583 0.961 . S
H599 C583 0.960 . S
C600 C601 1.391 . S
C600 C602 1.394 . S
C600 H616 0.931 . S
C601 C600 1.391 . S
C601 C605 1.376 . S
C602 C600 1.394 . S
C602 C603 1.369 . S
C602 C606 1.531 . S
C603 C602 1.369 . S
C603 C604 1.410 . S
C603 C611 1.503 . S
C604 C603 1.410 . S
C604 C605 1.392 . S
C604 C607 1.511 . S
C605 C601 1.376 . S
C605 C604 1.392 . S
C605 H617 0.929 . S
C606 C602 1.531 . S
C606 H618 0.960 . S
C606 H619 0.962 . S
C606 H620 0.960 . S
C607 C604 1.511 . S
C607 H621 0.961 . S
C607 H622 0.961 . S
C607 H623 0.961 . S
C608 C609 1.370 . S
C608 C610 1.363 . S
C608 H624 0.931 . S
C609 C608 1.370 . S
C609 C613 1.408 . S
C610 C608 1.363 . S
C610 C611 1.370 . S
C610 C614 1.524 . S
C611 C603 1.503 . S
C611 C610 1.370 . S
C611 C612 1.403 . S
C612 C611 1.403 . S
C612 C613 1.404 . S
C612 C615 1.539 . S
C613 C609 1.408 . S
C613 C612 1.404 . S
C613 H625 0.930 . S
C614 C610 1.524 . S
C614 H626 0.956 . S
C614 H627 0.961 . S
C614 H628 0.961 . S
C615 C612 1.539 . S
C615 H629 0.958 . S
C615 H630 0.961 . S
C615 H631 0.960 . S
H616 C600 0.931 . S
H617 C605 0.929 . S
H618 C606 0.960 . S
H619 C606 0.962 . S
H620 C606 0.960 . S
H621 C607 0.961 . S
H622 C607 0.961 . S
H623 C607 0.961 . S
H624 C608 0.931 . S
H625 C613 0.930 . S
H626 C614 0.956 . S
H627 C614 0.961 . S
H628 C614 0.961 . S
H629 C615 0.958 . S
H630 C615 0.961 . S
H631 C615 0.960 . S
C632 C633 1.391 . S
C632 C634 1.394 . S
C632 H648 0.931 . S
C633 C632 1.391 . S
C633 C637 1.376 . S
C634 C632 1.394 . S
C634 C635 1.369 . S
C634 C638 1.531 . S
C635 C634 1.369 . S
C635 C636 1.410 . S
C635 C643 1.503 . S
C636 C635 1.410 . S
C636 C637 1.392 . S
C636 C639 1.511 . S
C637 C633 1.376 . S
C637 C636 1.392 . S
C637 H649 0.929 . S
C638 C634 1.531 . S
C638 H650 0.960 . S
C638 H651 0.962 . S
C638 H652 0.960 . S
C639 C636 1.511 . S
C639 H653 0.961 . S
C639 H654 0.961 . S
C639 H655 0.961 . S
C640 C641 1.370 . S
C640 C642 1.363 . S
C640 H656 0.931 . S
C641 C640 1.370 . S
C641 C645 1.408 . S
C642 C640 1.363 . S
C642 C643 1.370 . S
C642 C646 1.524 . S
C643 C635 1.503 . S
C643 C642 1.370 . S
C643 C644 1.403 . S
C644 C643 1.403 . S
C644 C645 1.404 . S
C644 C647 1.539 . S
C645 C641 1.408 . S
C645 C644 1.404 . S
C645 H657 0.930 . S
C646 C642 1.524 . S
C646 H658 0.956 . S
C646 H659 0.961 . S
C646 H660 0.961 . S
C647 C644 1.539 . S
C647 H661 0.958 . S
C647 H662 0.961 . S
C647 H663 0.960 . S
H648 C632 0.931 . S
H649 C637 0.929 . S
H650 C638 0.960 . S
H651 C638 0.962 . S
H652 C638 0.960 . S
H653 C639 0.961 . S
H654 C639 0.961 . S
H655 C639 0.961 . S
H656 C640 0.931 . S
H657 C645 0.930 . S
H658 C646 0.956 . S
H659 C646 0.961 . S
H660 C646 0.961 . S
H661 C647 0.958 . S
H662 C647 0.961 . S
H663 C647 0.960 . S
C664 C665 1.391 . S
C664 C666 1.394 . S
C664 H680 0.931 . S
C665 C664 1.391 . S
C665 C669 1.376 . S
C666 C664 1.394 . S
C666 C667 1.369 . S
C666 C670 1.531 . S
C667 C666 1.369 . S
C667 C668 1.410 . S
C667 C675 1.503 . S
C668 C667 1.410 . S
C668 C669 1.392 . S
C668 C671 1.511 . S
C669 C665 1.376 . S
C669 C668 1.392 . S
C669 H681 0.929 . S
C670 C666 1.531 . S
C670 H682 0.960 . S
C670 H683 0.962 . S
C670 H684 0.960 . S
C671 C668 1.511 . S
C671 H685 0.961 . S
C671 H686 0.961 . S
C671 H687 0.961 . S
C672 C673 1.370 . S
C672 C674 1.363 . S
C672 H688 0.931 . S
C673 C672 1.370 . S
C673 C677 1.408 . S
C674 C672 1.363 . S
C674 C675 1.370 . S
C674 C678 1.524 . S
C675 C667 1.503 . S
C675 C674 1.370 . S
C675 C676 1.403 . S
C676 C675 1.403 . S
C676 C677 1.404 . S
C676 C679 1.539 . S
C677 C673 1.408 . S
C677 C676 1.404 . S
C677 H689 0.930 . S
C678 C674 1.524 . S
C678 H690 0.956 . S
C678 H691 0.961 . S
C678 H692 0.961 . S
C679 C676 1.539 . S
C679 H693 0.958 . S
C679 H694 0.961 . S
C679 H695 0.960 . S
H680 C664 0.931 . S
H681 C669 0.929 . S
H682 C670 0.960 . S
H683 C670 0.962 . S
H684 C670 0.960 . S
H685 C671 0.961 . S
H686 C671 0.961 . S
H687 C671 0.961 . S
H688 C672 0.931 . S
H689 C677 0.930 . S
H690 C678 0.956 . S
H691 C678 0.961 . S
H692 C678 0.961 . S
H693 C679 0.958 . S
H694 C679 0.961 . S
H695 C679 0.960 . S
C696 C697 1.391 . S
C696 C698 1.394 . S
C696 H712 0.931 . S
C697 C696 1.391 . S
C697 C701 1.376 . S
C698 C696 1.394 . S
C698 C699 1.369 . S
C698 C702 1.531 . S
C699 C698 1.369 . S
C699 C700 1.410 . S
C699 C707 1.503 . S
C700 C699 1.410 . S
C700 C701 1.392 . S
C700 C703 1.511 . S
C701 C697 1.376 . S
C701 C700 1.392 . S
C701 H713 0.929 . S
C702 C698 1.531 . S
C702 H714 0.960 . S
C702 H715 0.962 . S
C702 H716 0.960 . S
C703 C700 1.511 . S
C703 H717 0.961 . S
C703 H718 0.961 . S
C703 H719 0.961 . S
C704 C705 1.370 . S
C704 C706 1.363 . S
C704 H720 0.931 . S
C705 C704 1.370 . S
C705 C709 1.408 . S
C706 C704 1.363 . S
C706 C707 1.370 . S
C706 C710 1.524 . S
C707 C699 1.503 . S
C707 C706 1.370 . S
C707 C708 1.403 . S
C708 C707 1.403 . S
C708 C709 1.404 . S
C708 C711 1.539 . S
C709 C705 1.408 . S
C709 C708 1.404 . S
C709 H721 0.930 . S
C710 C706 1.524 . S
C710 H722 0.956 . S
C710 H723 0.961 . S
C710 H724 0.961 . S
C711 C708 1.539 . S
C711 H725 0.958 . S
C711 H726 0.961 . S
C711 H727 0.960 . S
H712 C696 0.931 . S
H713 C701 0.929 . S
H714 C702 0.960 . S
H715 C702 0.962 . S
H716 C702 0.960 . S
H717 C703 0.961 . S
H718 C703 0.961 . S
H719 C703 0.961 . S
H720 C704 0.931 . S
H721 C709 0.930 . S
H722 C710 0.956 . S
H723 C710 0.961 . S
H724 C710 0.961 . S
H725 C711 0.958 . S
H726 C711 0.961 . S
H727 C711 0.960 . S
C728 C729 1.391 . S
C728 C730 1.394 . S
C728 H744 0.931 . S
C729 C728 1.391 . S
C729 C733 1.376 . S
C730 C728 1.394 . S
C730 C731 1.369 . S
C730 C734 1.531 . S
C731 C730 1.369 . S
C731 C732 1.410 . S
C731 C739 1.503 . S
C732 C731 1.410 . S
C732 C733 1.392 . S
C732 C735 1.511 . S
C733 C729 1.376 . S
C733 C732 1.392 . S
C733 H745 0.929 . S
C734 C730 1.531 . S
C734 H746 0.960 . S
C734 H747 0.962 . S
C734 H748 0.960 . S
C735 C732 1.511 . S
C735 H749 0.961 . S
C735 H750 0.961 . S
C735 H751 0.961 . S
C736 C737 1.370 . S
C736 C738 1.363 . S
C736 H752 0.931 . S
C737 C736 1.370 . S
C737 C741 1.408 . S
C738 C736 1.363 . S
C738 C739 1.370 . S
C738 C742 1.524 . S
C739 C731 1.503 . S
C739 C738 1.370 . S
C739 C740 1.403 . S
C740 C739 1.403 . S
C740 C741 1.404 . S
C740 C743 1.539 . S
C741 C737 1.408 . S
C741 C740 1.404 . S
C741 H753 0.930 . S
C742 C738 1.524 . S
C742 H754 0.956 . S
C742 H755 0.961 . S
C742 H756 0.961 . S
C743 C740 1.539 . S
C743 H757 0.958 . S
C743 H758 0.961 . S
C743 H759 0.960 . S
H744 C728 0.931 . S
H745 C733 0.929 . S
H746 C734 0.960 . S
H747 C734 0.962 . S
H748 C734 0.960 . S
H749 C735 0.961 . S
H750 C735 0.961 . S
H751 C735 0.961 . S
H752 C736 0.931 . S
H753 C741 0.930 . S
H754 C742 0.956 . S
H755 C742 0.961 . S
H756 C742 0.961 . S
H757 C743 0.958 . S
H758 C743 0.961 . S
H759 C743 0.960 . S
C760 C761 1.391 . S
C760 C762 1.394 . S
C760 H776 0.931 . S
C761 C760 1.391 . S
C761 C765 1.376 . S
C762 C760 1.394 . S
C762 C763 1.369 . S
C762 C766 1.531 . S
C763 C762 1.369 . S
C763 C764 1.410 . S
C763 C771 1.503 . S
C764 C763 1.410 . S
C764 C765 1.392 . S
C764 C767 1.511 . S
C765 C761 1.376 . S
C765 C764 1.392 . S
C765 H777 0.929 . S
C766 C762 1.531 . S
C766 H778 0.960 . S
C766 H779 0.962 . S
C766 H780 0.960 . S
C767 C764 1.511 . S
C767 H781 0.961 . S
C767 H782 0.961 . S
C767 H783 0.961 . S
C768 C769 1.370 . S
C768 C770 1.363 . S
C768 H784 0.931 . S
C769 C768 1.370 . S
C769 C773 1.408 . S
C770 C768 1.363 . S
C770 C771 1.370 . S
C770 C774 1.524 . S
C771 C763 1.503 . S
C771 C770 1.370 . S
C771 C772 1.403 . S
C772 C771 1.403 . S
C772 C773 1.404 . S
C772 C775 1.539 . S
C773 C769 1.408 . S
C773 C772 1.404 . S
C773 H785 0.930 . S
C774 C770 1.524 . S
C774 H786 0.956 . S
C774 H787 0.961 . S
C774 H788 0.961 . S
C775 C772 1.539 . S
C775 H789 0.958 . S
C775 H790 0.961 . S
C775 H791 0.960 . S
H776 C760 0.931 . S
H777 C765 0.929 . S
H778 C766 0.960 . S
H779 C766 0.962 . S
H780 C766 0.960 . S
H781 C767 0.961 . S
H782 C767 0.961 . S
H783 C767 0.961 . S
H784 C768 0.931 . S
H785 C773 0.930 . S
H786 C774 0.956 . S
H787 C774 0.961 . S
H788 C774 0.961 . S
H789 C775 0.958 . S
H790 C775 0.961 . S
H791 C775 0.960 . S
C792 C793 1.391 . S
C792 C794 1.394 . S
C792 H808 0.931 . S
C793 C792 1.391 . S
C793 C797 1.376 . S
C794 C792 1.394 . S
C794 C795 1.369 . S
C794 C798 1.531 . S
C795 C794 1.369 . S
C795 C796 1.410 . S
C795 C803 1.503 . S
C796 C795 1.410 . S
C796 C797 1.392 . S
C796 C799 1.511 . S
C797 C793 1.376 . S
C797 C796 1.392 . S
C797 H809 0.929 . S
C798 C794 1.531 . S
C798 H810 0.960 . S
C798 H811 0.962 . S
C798 H812 0.960 . S
C799 C796 1.511 . S
C799 H813 0.961 . S
C799 H814 0.961 . S
C799 H815 0.961 . S
C800 C801 1.370 . S
C800 C802 1.363 . S
C800 H816 0.931 . S
C801 C800 1.370 . S
C801 C805 1.408 . S
C802 C800 1.363 . S
C802 C803 1.370 . S
C802 C806 1.524 . S
C803 C795 1.503 . S
C803 C802 1.370 . S
C803 C804 1.403 . S
C804 C803 1.403 . S
C804 C805 1.404 . S
C804 C807 1.539 . S
C805 C801 1.408 . S
C805 C804 1.404 . S
C805 H817 0.930 . S
C806 C802 1.524 . S
C806 H818 0.956 . S
C806 H819 0.961 . S
C806 H820 0.961 . S
C807 C804 1.539 . S
C807 H821 0.958 . S
C807 H822 0.961 . S
C807 H823 0.960 . S
H808 C792 0.931 . S
H809 C797 0.929 . S
H810 C798 0.960 . S
H811 C798 0.962 . S
H812 C798 0.960 . S
H813 C799 0.961 . S
H814 C799 0.961 . S
H815 C799 0.961 . S
H816 C800 0.931 . S
H817 C805 0.930 . S
H818 C806 0.956 . S
H819 C806 0.961 . S
H820 C806 0.961 . S
H821 C807 0.958 . S
H822 C807 0.961 . S
H823 C807 0.960 . S
C824 C825 1.391 . S
C824 C826 1.394 . S
C824 H840 0.931 . S
C825 C824 1.391 . S
C825 C829 1.376 . S
C826 C824 1.394 . S
C826 C827 1.369 . S
C826 C830 1.531 . S
C827 C826 1.369 . S
C827 C828 1.410 . S
C827 C835 1.503 . S
C828 C827 1.410 . S
C828 C829 1.392 . S
C828 C831 1.511 . S
C829 C825 1.376 . S
C829 C828 1.392 . S
C829 H841 0.929 . S
C830 C826 1.531 . S
C830 H842 0.960 . S
C830 H843 0.962 . S
C830 H844 0.960 . S
C831 C828 1.511 . S
C831 H845 0.961 . S
C831 H846 0.961 . S
C831 H847 0.961 . S
C832 C833 1.370 . S
C832 C834 1.363 . S
C832 H848 0.931 . S
C833 C832 1.370 . S
C833 C837 1.408 . S
C834 C832 1.363 . S
C834 C835 1.370 . S
C834 C838 1.524 . S
C835 C827 1.503 . S
C835 C834 1.370 . S
C835 C836 1.403 . S
C836 C835 1.403 . S
C836 C837 1.404 . S
C836 C839 1.539 . S
C837 C833 1.408 . S
C837 C836 1.404 . S
C837 H849 0.930 . S
C838 C834 1.524 . S
C838 H850 0.956 . S
C838 H851 0.961 . S
C838 H852 0.961 . S
C839 C836 1.539 . S
C839 H853 0.958 . S
C839 H854 0.961 . S
C839 H855 0.960 . S
H840 C824 0.931 . S
H841 C829 0.929 . S
H842 C830 0.960 . S
H843 C830 0.962 . S
H844 C830 0.960 . S
H845 C831 0.961 . S
H846 C831 0.961 . S
H847 C831 0.961 . S
H848 C832 0.931 . S
H849 C837 0.930 . S
H850 C838 0.956 . S
H851 C838 0.961 . S
H852 C838 0.961 . S
H853 C839 0.958 . S
H854 C839 0.961 . S
H855 C839 0.960 . S
C856 C857 1.391 . S
C856 C858 1.394 . S
C856 H872 0.931 . S
C857 C856 1.391 . S
C857 C861 1.376 . S
C858 C856 1.394 . S
C858 C859 1.369 . S
C858 C862 1.531 . S
C859 C858 1.369 . S
C859 C860 1.410 . S
C859 C867 1.503 . S
C860 C859 1.410 . S
C860 C861 1.392 . S
C860 C863 1.511 . S
C861 C857 1.376 . S
C861 C860 1.392 . S
C861 H873 0.929 . S
C862 C858 1.531 . S
C862 H874 0.960 . S
C862 H875 0.962 . S
C862 H876 0.960 . S
C863 C860 1.511 . S
C863 H877 0.961 . S
C863 H878 0.961 . S
C863 H879 0.961 . S
C864 C865 1.370 . S
C864 C866 1.363 . S
C864 H880 0.931 . S
C865 C864 1.370 . S
C865 C869 1.408 . S
C866 C864 1.363 . S
C866 C867 1.370 . S
C866 C870 1.524 . S
C867 C859 1.503 . S
C867 C866 1.370 . S
C867 C868 1.403 . S
C868 C867 1.403 . S
C868 C869 1.404 . S
C868 C871 1.539 . S
C869 C865 1.408 . S
C869 C868 1.404 . S
C869 H881 0.930 . S
C870 C866 1.524 . S
C870 H882 0.956 . S
C870 H883 0.961 . S
C870 H884 0.961 . S
C871 C868 1.539 . S
C871 H885 0.958 . S
C871 H886 0.961 . S
C871 H887 0.960 . S
H872 C856 0.931 . S
H873 C861 0.929 . S
H874 C862 0.960 . S
H875 C862 0.962 . S
H876 C862 0.960 . S
H877 C863 0.961 . S
H878 C863 0.961 . S
H879 C863 0.961 . S
H880 C864 0.931 . S
H881 C869 0.930 . S
H882 C870 0.956 . S
H883 C870 0.961 . S
H884 C870 0.961 . S
H885 C871 0.958 . S
H886 C871 0.961 . S
H887 C871 0.960 . S
C888 C889 1.391 . S
C888 C890 1.394 . S
C888 H904 0.931 . S
C889 C888 1.391 . S
C889 C893 1.376 . S
C890 C888 1.394 . S
C890 C891 1.369 . S
C890 C894 1.531 . S
C891 C890 1.369 . S
C891 C892 1.410 . S
C891 C899 1.503 . S
C892 C891 1.410 . S
C892 C893 1.392 . S
C892 C895 1.511 . S
C893 C889 1.376 . S
C893 C892 1.392 . S
C893 H905 0.929 . S
C894 C890 1.531 . S
C894 H906 0.960 . S
C894 H907 0.962 . S
C894 H908 0.960 . S
C895 C892 1.511 . S
C895 H909 0.961 . S
C895 H910 0.961 . S
C895 H911 0.961 . S
C896 C897 1.370 . S
C896 C898 1.363 . S
C896 H912 0.931 . S
C897 C896 1.370 . S
C897 C901 1.408 . S
C898 C896 1.363 . S
C898 C899 1.370 . S
C898 C902 1.524 . S
C899 C891 1.503 . S
C899 C898 1.370 . S
C899 C900 1.403 . S
C900 C899 1.403 . S
C900 C901 1.404 . S
C900 C903 1.539 . S
C901 C897 1.408 . S
C901 C900 1.404 . S
C901 H913 0.930 . S
C902 C898 1.524 . S
C902 H914 0.956 . S
C902 H915 0.961 . S
C902 H916 0.961 . S
C903 C900 1.539 . S
C903 H917 0.958 . S
C903 H918 0.961 . S
C903 H919 0.960 . S
H904 C888 0.931 . S
H905 C893 0.929 . S
H906 C894 0.960 . S
H907 C894 0.962 . S
H908 C894 0.960 . S
H909 C895 0.961 . S
H910 C895 0.961 . S
H911 C895 0.961 . S
H912 C896 0.931 . S
H913 C901 0.930 . S
H914 C902 0.956 . S
H915 C902 0.961 . S
H916 C902 0.961 . S
H917 C903 0.958 . S
H918 C903 0.961 . S
H919 C903 0.960 . S
C920 C921 1.391 . S
C920 C922 1.394 . S
C920 H936 0.931 . S
C921 C920 1.391 . S
C921 C925 1.376 . S
C922 C920 1.394 . S
C922 C923 1.369 . S
C922 C926 1.531 . S
C923 C922 1.369 . S
C923 C924 1.410 . S
C923 C931 1.503 . S
C924 C923 1.410 . S
C924 C925 1.392 . S
C924 C927 1.511 . S
C925 C921 1.376 . S
C925 C924 1.392 . S
C925 H937 0.929 . S
C926 C922 1.531 . S
C926 H938 0.960 . S
C926 H939 0.962 . S
C926 H940 0.960 . S
C927 C924 1.511 . S
C927 H941 0.961 . S
C927 H942 0.961 . S
C927 H943 0.961 . S
C928 C929 1.370 . S
C928 C930 1.363 . S
C928 H944 0.931 . S
C929 C928 1.370 . S
C929 C933 1.408 . S
C930 C928 1.363 . S
C930 C931 1.370 . S
C930 C934 1.524 . S
C931 C923 1.503 . S
C931 C930 1.370 . S
C931 C932 1.403 . S
C932 C931 1.403 . S
C932 C933 1.404 . S
C932 C935 1.539 . S
C933 C929 1.408 . S
C933 C932 1.404 . S
C933 H945 0.930 . S
C934 C930 1.524 . S
C934 H946 0.956 . S
C934 H947 0.961 . S
C934 H948 0.961 . S
C935 C932 1.539 . S
C935 H949 0.958 . S
C935 H950 0.961 . S
C935 H951 0.960 . S
H936 C920 0.931 . S
H937 C925 0.929 . S
H938 C926 0.960 . S
H939 C926 0.962 . S
H940 C926 0.960 . S
H941 C927 0.961 . S
H942 C927 0.961 . S
H943 C927 0.961 . S
H944 C928 0.931 . S
H945 C933 0.930 . S
H946 C934 0.956 . S
H947 C934 0.961 . S
H948 C934 0.961 . S
H949 C935 0.958 . S
H950 C935 0.961 . S
H951 C935 0.960 . S
C952 C953 1.391 . S
C952 C954 1.394 . S
C952 H968 0.931 . S
C953 C952 1.391 . S
C953 C957 1.376 . S
C954 C952 1.394 . S
C954 C955 1.369 . S
C954 C958 1.531 . S
C955 C954 1.369 . S
C955 C956 1.410 . S
C955 C963 1.503 . S
C956 C955 1.410 . S
C956 C957 1.392 . S
C956 C959 1.511 . S
C957 C953 1.376 . S
C957 C956 1.392 . S
C957 H969 0.929 . S
C958 C954 1.531 . S
C958 H970 0.960 . S
C958 H971 0.962 . S
C958 H972 0.960 . S
C959 C956 1.511 . S
C959 H973 0.961 . S
C959 H974 0.961 . S
C959 H975 0.961 . S
C960 C961 1.370 . S
C960 C962 1.363 . S
C960 H976 0.931 . S
C961 C960 1.370 . S
C961 C965 1.408 . S
C962 C960 1.363 . S
C962 C963 1.370 . S
C962 C966 1.524 . S
C963 C955 1.503 . S
C963 C962 1.370 . S
C963 C964 1.403 . S
C964 C963 1.403 . S
C964 C965 1.404 . S
C964 C967 1.539 . S
C965 C961 1.408 . S
C965 C964 1.404 . S
C965 H977 0.930 . S
C966 C962 1.524 . S
C966 H978 0.956 . S
C966 H979 0.961 . S
C966 H980 0.961 . S
C967 C964 1.539 . S
C967 H981 0.958 . S
C967 H982 0.961 . S
C967 H983 0.960 . S
H968 C952 0.931 . S
H969 C957 0.929 . S
H970 C958 0.960 . S
H971 C958 0.962 . S
H972 C958 0.960 . S
H973 C959 0.961 . S
H974 C959 0.961 . S
H975 C959 0.961 . S
H976 C960 0.931 . S
H977 C965 0.930 . S
H978 C966 0.956 . S
H979 C966 0.961 . S
H980 C966 0.961 . S
H981 C967 0.958 . S
H982 C967 0.961 . S
H983 C967 0.960 . S
C984 C985 1.391 . S
C984 C986 1.394 . S
C984 H1000 0.931 . S
C985 C984 1.391 . S
C985 C989 1.376 . S
C986 C984 1.394 . S
C986 C987 1.369 . S
C986 C990 1.531 . S
C987 C986 1.369 . S
C987 C988 1.410 . S
C987 C995 1.503 1_566 S
C988 C987 1.410 . S
C988 C989 1.392 . S
C988 C991 1.511 1_556 S
C989 C985 1.376 . S
C989 C988 1.392 . S
C989 H1001 0.929 . S
C990 C986 1.531 . S
C990 H1002 0.960 1_566 S
C990 H1003 0.962 1_565 S
C990 H1004 0.960 . S
C991 C988 1.511 1_554 S
C991 H1005 0.961 . S
C991 H1006 0.961 . S
C991 H1007 0.961 . S
C992 C993 1.370 . S
C992 C994 1.363 1_554 S
C992 H1008 0.931 . S
C993 C992 1.370 . S
C993 C997 1.408 . S
C994 C992 1.363 1_556 S
C994 C995 1.370 1_556 S
C994 C998 1.524 . S
C995 C987 1.503 1_544 S
C995 C994 1.370 1_554 S
C995 C996 1.403 . S
C996 C995 1.403 . S
C996 C997 1.404 . S
C996 C999 1.539 1_545 S
C997 C993 1.408 . S
C997 C996 1.404 . S
C997 H1009 0.930 . S
C998 C994 1.524 . S
C998 H1010 0.956 . S
C998 H1011 0.961 . S
C998 H1012 0.961 . S
C999 C996 1.539 1_565 S
C999 H1013 0.958 . S
C999 H1014 0.961 . S
C999 H1015 0.960 . S
H1000 C984 0.931 . S
H1001 C989 0.929 . S
H1002 C990 0.960 1_544 S
H1003 C990 0.962 1_545 S
H1004 C990 0.960 . S
H1005 C991 0.961 . S
H1006 C991 0.961 . S
H1007 C991 0.961 . S
H1008 C992 0.931 . S
H1009 C997 0.930 . S
H1010 C998 0.956 . S
H1011 C998 0.961 . S
H1012 C998 0.961 . S
H1013 C999 0.958 . S
H1014 C999 0.961 . S
H1015 C999 0.960 . S
C1016 C1017 1.391 . S
C1016 C1018 1.394 . S
C1016 H1032 0.931 . S
C1017 C1016 1.391 . S
C1017 C1021 1.376 . S
C1018 C1016 1.394 . S
C1018 C1019 1.369 . S
C1018 C1022 1.531 . S
C1019 C1018 1.369 . S
C1019 C1020 1.410 . S
C1019 C1027 1.503 . S
C1020 C1019 1.410 . S
C1020 C1021 1.392 . S
C1020 C1023 1.511 . S
C1021 C1017 1.376 . S
C1021 C1020 1.392 . S
C1021 H1033 0.929 . S
C1022 C1018 1.531 . S
C1022 H1034 0.960 . S
C1022 H1035 0.962 . S
C1022 H1036 0.960 . S
C1023 C1020 1.511 . S
C1023 H1037 0.961 . S
C1023 H1038 0.961 . S
C1023 H1039 0.961 . S
C1024 C1025 1.370 . S
C1024 C1026 1.363 . S
C1024 H1040 0.931 . S
C1025 C1024 1.370 . S
C1025 C1029 1.408 . S
C1026 C1024 1.363 . S
C1026 C1027 1.370 . S
C1026 C1030 1.524 . S
C1027 C1019 1.503 . S
C1027 C1026 1.370 . S
C1027 C1028 1.403 . S
C1028 C1027 1.403 . S
C1028 C1029 1.404 . S
C1028 C1031 1.539 . S
C1029 C1025 1.408 . S
C1029 C1028 1.404 . S
C1029 H1041 0.930 . S
C1030 C1026 1.524 . S
C1030 H1042 0.956 . S
C1030 H1043 0.961 . S
C1030 H1044 0.961 . S
C1031 C1028 1.539 . S
C1031 H1045 0.958 . S
C1031 H1046 0.961 . S
C1031 H1047 0.960 . S
H1032 C1016 0.931 . S
H1033 C1021 0.929 . S
H1034 C1022 0.960 . S
H1035 C1022 0.962 . S
H1036 C1022 0.960 . S
H1037 C1023 0.961 . S
H1038 C1023 0.961 . S
H1039 C1023 0.961 . S
H1040 C1024 0.931 . S
H1041 C1029 0.930 . S
H1042 C1030 0.956 . S
H1043 C1030 0.961 . S
H1044 C1030 0.961 . S
H1045 C1031 0.958 . S
H1046 C1031 0.961 . S
H1047 C1031 0.960 . S
C1048 C1049 1.391 . S
C1048 C1050 1.394 . S
C1048 H1064 0.931 . S
C1049 C1048 1.391 . S
C1049 C1053 1.376 . S
C1050 C1048 1.394 . S
C1050 C1051 1.369 . S
C1050 C1054 1.518 1_554 S
C1051 C1050 1.369 . S
C1051 C1052 1.410 . S
C1051 C1059 1.503 1_654 S
C1052 C1051 1.410 . S
C1052 C1053 1.392 . S
C1052 C1055 1.511 1_655 S
C1053 C1049 1.376 . S
C1053 C1052 1.392 . S
C1053 H1065 0.929 . S
C1054 C1050 1.518 1_556 S
C1054 H1066 0.961 1_655 S
C1054 H1067 0.987 . S
C1054 H1068 0.948 1_556 S
C1055 C1052 1.511 1_455 S
C1055 H1069 0.961 1_455 S
C1055 H1070 0.961 . S
C1055 H1071 0.961 . S
C1056 C1057 1.370 . S
C1056 C1058 1.363 . S
C1056 H1072 0.931 . S
C1057 C1056 1.370 . S
C1057 C1061 1.408 . S
C1058 C1056 1.363 . S
C1058 C1059 1.370 . S
C1058 C1062 1.524 1_455 S
C1059 C1051 1.503 1_456 S
C1059 C1058 1.370 . S
C1059 C1060 1.403 1_556 S
C1060 C1059 1.403 1_554 S
C1060 C1061 1.404 1_554 S
C1060 C1063 1.539 . S
C1061 C1057 1.408 . S
C1061 C1060 1.404 1_556 S
C1061 H1073 0.930 . S
C1062 C1058 1.524 1_655 S
C1062 H1074 0.956 . S
C1062 H1075 0.961 . S
C1062 H1076 0.961 . S
C1063 C1060 1.539 . S
C1063 H1077 0.958 . S
C1063 H1078 0.961 . S
C1063 H1079 0.960 . S
H1064 C1048 0.931 . S
H1065 C1053 0.929 . S
H1066 C1054 0.961 1_455 S
H1067 C1054 0.987 . S
H1068 C1054 0.948 1_554 S
H1069 C1055 0.961 1_655 S
H1070 C1055 0.961 . S
H1071 C1055 0.961 . S
H1072 C1056 0.931 . S
H1073 C1061 0.930 . S
H1074 C1062 0.956 . S
H1075 C1062 0.961 . S
H1076 C1062 0.961 . S
H1077 C1063 0.958 . S
H1078 C1063 0.961 . S
H1079 C1063 0.960 . S
C1080 C1081 1.391 . S
C1080 C1082 1.394 . S
C1080 H1096 0.931 . S
C1081 C1080 1.391 . S
C1081 C1085 1.376 . S
C1082 C1080 1.394 . S
C1082 C1083 1.369 . S
C1082 C1086 1.531 . S
C1083 C1082 1.369 . S
C1083 C1084 1.410 . S
C1083 C1091 1.503 1_565 S
C1084 C1083 1.410 . S
C1084 C1085 1.392 . S
C1084 C1087 1.511 1_565 S
C1085 C1081 1.376 . S
C1085 C1084 1.392 . S
C1085 H1097 0.929 . S
C1086 C1082 1.531 . S
C1086 H1098 0.960 . S
C1086 H1099 0.962 . S
C1086 H1100 0.960 . S
C1087 C1084 1.511 1_545 S
C1087 H1101 0.961 . S
C1087 H1102 0.961 . S
C1087 H1103 0.961 . S
C1088 C1089 1.370 . S
C1088 C1090 1.363 . S
C1088 H1104 0.931 . S
C1089 C1088 1.370 . S
C1089 C1093 1.408 . S
C1090 C1088 1.363 . S
C1090 C1091 1.370 . S
C1090 C1094 1.524 . S
C1091 C1083 1.503 1_545 S
C1091 C1090 1.370 . S
C1091 C1092 1.403 . S
C1092 C1091 1.403 . S
C1092 C1093 1.404 . S
C1092 C1095 1.538 1_545 S
C1093 C1089 1.408 . S
C1093 C1092 1.404 . S
C1093 H1105 0.930 . S
C1094 C1090 1.524 . S
C1094 H1106 0.956 . S
C1094 H1107 0.961 . S
C1094 H1108 0.961 . S
C1095 C1092 1.538 1_565 S
C1095 H1109 0.966 . S
C1095 H1110 0.950 1_565 S
C1095 H1111 0.964 . S
H1096 C1080 0.931 . S
H1097 C1085 0.929 . S
H1098 C1086 0.960 . S
H1099 C1086 0.962 . S
H1100 C1086 0.960 . S
H1101 C1087 0.961 . S
H1102 C1087 0.961 . S
H1103 C1087 0.961 . S
H1104 C1088 0.931 . S
H1105 C1093 0.930 . S
H1106 C1094 0.956 . S
H1107 C1094 0.961 . S
H1108 C1094 0.961 . S
H1109 C1095 0.966 . S
H1110 C1095 0.950 1_545 S
H1111 C1095 0.964 . S
C1112 C1113 1.391 . S
C1112 C1114 1.394 . S
C1112 H1128 0.931 . S
C1113 C1112 1.391 . S
C1113 C1117 1.376 . S
C1114 C1112 1.394 . S
C1114 C1115 1.369 . S
C1114 C1118 1.531 . S
C1115 C1114 1.369 . S
C1115 C1116 1.410 . S
C1115 C1123 1.503 1_554 S
C1116 C1115 1.410 . S
C1116 C1117 1.392 . S
C1116 C1119 1.511 1_554 S
C1117 C1113 1.376 . S
C1117 C1116 1.392 . S
C1117 H1129 0.929 . S
C1118 C1114 1.531 . S
C1118 H1130 0.960 . S
C1118 H1131 0.962 . S
C1118 H1132 0.960 . S
C1119 C1116 1.511 1_556 S
C1119 H1133 0.961 . S
C1119 H1134 0.961 . S
C1119 H1135 0.961 . S
C1120 C1121 1.370 . S
C1120 C1122 1.363 . S
C1120 H1136 0.931 . S
C1121 C1120 1.370 . S
C1121 C1125 1.408 . S
C1122 C1120 1.363 . S
C1122 C1123 1.370 . S
C1122 C1126 1.524 . S
C1123 C1115 1.503 1_556 S
C1123 C1122 1.370 . S
C1123 C1124 1.403 . S
C1124 C1123 1.403 . S
C1124 C1125 1.404 . S
C1124 C1127 1.539 1_556 S
C1125 C1121 1.408 . S
C1125 C1124 1.404 . S
C1125 H1137 0.930 . S
C1126 C1122 1.524 . S
C1126 H1138 0.956 . S
C1126 H1139 0.961 . S
C1126 H1140 0.961 . S
C1127 C1124 1.539 1_554 S
C1127 H1141 0.958 . S
C1127 H1142 0.961 . S
C1127 H1143 0.960 . S
H1128 C1112 0.931 . S
H1129 C1117 0.929 . S
H1130 C1118 0.960 . S
H1131 C1118 0.962 . S
H1132 C1118 0.960 . S
H1133 C1119 0.961 . S
H1134 C1119 0.961 . S
H1135 C1119 0.961 . S
H1136 C1120 0.931 . S
H1137 C1125 0.930 . S
H1138 C1126 0.956 . S
H1139 C1126 0.961 . S
H1140 C1126 0.961 . S
H1141 C1127 0.958 . S
H1142 C1127 0.961 . S
H1143 C1127 0.960 . S
C1144 C1145 1.391 . S
C1144 C1146 1.394 . S
C1144 H1160 0.931 . S
C1145 C1144 1.391 . S
C1145 C1149 1.376 . S
C1146 C1144 1.394 . S
C1146 C1147 1.369 . S
C1146 C1150 1.531 1_655 S
C1147 C1146 1.369 . S
C1147 C1148 1.410 . S
C1147 C1155 1.503 1_655 S
C1148 C1147 1.410 . S
C1148 C1149 1.392 . S
C1148 C1151 1.511 . S
C1149 C1145 1.376 . S
C1149 C1148 1.392 . S
C1149 H1161 0.929 . S
C1150 C1146 1.531 1_455 S
C1150 H1162 0.960 . S
C1150 H1163 0.962 . S
C1150 H1164 0.960 . S
C1151 C1148 1.511 . S
C1151 H1165 0.961 . S
C1151 H1166 0.961 . S
C1151 H1167 0.961 . S
C1152 C1153 1.370 . S
C1152 C1154 1.363 . S
C1152 H1168 0.931 . S
C1153 C1152 1.370 . S
C1153 C1157 1.408 . S
C1154 C1152 1.363 . S
C1154 C1155 1.370 . S
C1154 C1158 1.524 1_455 S
C1155 C1147 1.503 1_455 S
C1155 C1154 1.370 . S
C1155 C1156 1.403 . S
C1156 C1155 1.403 . S
C1156 C1157 1.404 . S
C1156 C1159 1.539 . S
C1157 C1153 1.408 . S
C1157 C1156 1.404 . S
C1157 H1169 0.930 . S
C1158 C1154 1.524 1_655 S
C1158 H1170 0.956 . S
C1158 H1171 0.961 . S
C1158 H1172 0.961 . S
C1159 C1156 1.539 . S
C1159 H1173 0.958 . S
C1159 H1174 0.961 . S
C1159 H1175 0.960 . S
H1160 C1144 0.931 . S
H1161 C1149 0.929 . S
H1162 C1150 0.960 . S
H1163 C1150 0.962 . S
H1164 C1150 0.960 . S
H1165 C1151 0.961 . S
H1166 C1151 0.961 . S
H1167 C1151 0.961 . S
H1168 C1152 0.931 . S
H1169 C1157 0.930 . S
H1170 C1158 0.956 . S
H1171 C1158 0.961 . S
H1172 C1158 0.961 . S
H1173 C1159 0.958 . S
H1174 C1159 0.961 . S
H1175 C1159 0.960 . S
C1176 C1177 1.391 . S
C1176 C1178 1.392 1_554 S
C1176 H1192 0.931 . S
C1177 C1176 1.391 . S
C1177 C1181 1.376 . S
C1178 C1176 1.392 1_556 S
C1178 C1179 1.369 1_556 S
C1178 C1182 1.532 . S
C1179 C1178 1.369 1_554 S
C1179 C1180 1.410 . S
C1179 C1187 1.503 1_544 S
C1180 C1179 1.410 . S
C1180 C1181 1.392 . S
C1180 C1183 1.535 . S
C1181 C1177 1.376 . S
C1181 C1180 1.392 . S
C1181 H1193 0.929 . S
C1182 C1178 1.532 . S
C1182 H1194 0.960 . S
C1182 H1195 0.962 . S
C1182 H1196 0.960 . S
C1183 C1180 1.535 . S
C1183 H1197 0.958 . S
C1183 H1198 0.945 1_545 S
C1183 H1199 0.956 . S
C1184 C1185 1.370 . S
C1184 C1186 1.369 . S
C1184 H1200 0.931 . S
C1185 C1184 1.370 . S
C1185 C1189 1.408 . S
C1186 C1184 1.369 . S
C1186 C1187 1.375 . S
C1186 C1190 1.514 1_556 S
C1187 C1179 1.503 1_566 S
C1187 C1186 1.375 . S
C1187 C1188 1.403 . S
C1188 C1187 1.403 . S
C1188 C1189 1.404 . S
C1188 C1191 1.539 1_565 S
C1189 C1185 1.408 . S
C1189 C1188 1.404 . S
C1189 H1201 0.930 . S
C1190 C1186 1.514 1_554 S
C1190 H1202 0.956 . S
C1190 H1203 0.961 . S
C1190 H1204 0.961 . S
C1191 C1188 1.539 1_545 S
C1191 H1205 0.958 . S
C1191 H1206 0.961 . S
C1191 H1207 0.960 . S
H1192 C1176 0.931 . S
H1193 C1181 0.929 . S
H1194 C1182 0.960 . S
H1195 C1182 0.962 . S
H1196 C1182 0.960 . S
H1197 C1183 0.958 . S
H1198 C1183 0.945 1_565 S
H1199 C1183 0.956 . S
H1200 C1184 0.931 . S
H1201 C1189 0.930 . S
H1202 C1190 0.956 . S
H1203 C1190 0.961 . S
H1204 C1190 0.961 . S
H1205 C1191 0.958 . S
H1206 C1191 0.961 . S
H1207 C1191 0.960 . S
C1208 C1209 1.391 . S
C1208 C1210 1.394 . S
C1208 H1224 0.931 . S
C1209 C1208 1.391 . S
C1209 C1213 1.376 . S
C1210 C1208 1.394 . S
C1210 C1211 1.369 . S
C1210 C1214 1.531 . S
C1211 C1210 1.369 . S
C1211 C1212 1.410 . S
C1211 C1219 1.503 . S
C1212 C1211 1.410 . S
C1212 C1213 1.392 . S
C1212 C1215 1.511 . S
C1213 C1209 1.376 . S
C1213 C1212 1.392 . S
C1213 H1225 0.929 . S
C1214 C1210 1.531 . S
C1214 H1226 0.960 . S
C1214 H1227 0.962 . S
C1214 H1228 0.960 . S
C1215 C1212 1.511 . S
C1215 H1229 0.961 . S
C1215 H1230 0.961 . S
C1215 H1231 0.961 . S
C1216 C1217 1.370 . S
C1216 C1218 1.363 . S
C1216 H1232 0.931 . S
C1217 C1216 1.370 . S
C1217 C1221 1.408 . S
C1218 C1216 1.363 . S
C1218 C1219 1.370 . S
C1218 C1222 1.524 . S
C1219 C1211 1.503 . S
C1219 C1218 1.370 . S
C1219 C1220 1.403 . S
C1220 C1219 1.403 . S
C1220 C1221 1.404 . S
C1220 C1223 1.539 . S
C1221 C1217 1.408 . S
C1221 C1220 1.404 . S
C1221 H1233 0.930 . S
C1222 C1218 1.524 . S
C1222 H1234 0.956 . S
C1222 H1235 0.961 . S
C1222 H1236 0.961 . S
C1223 C1220 1.539 . S
C1223 H1237 0.958 . S
C1223 H1238 0.961 . S
C1223 H1239 0.960 . S
H1224 C1208 0.931 . S
H1225 C1213 0.929 . S
H1226 C1214 0.960 . S
H1227 C1214 0.962 . S
H1228 C1214 0.960 . S
H1229 C1215 0.961 . S
H1230 C1215 0.961 . S
H1231 C1215 0.961 . S
H1232 C1216 0.931 . S
H1233 C1221 0.930 . S
H1234 C1222 0.956 . S
H1235 C1222 0.961 . S
H1236 C1222 0.961 . S
H1237 C1223 0.958 . S
H1238 C1223 0.961 . S
H1239 C1223 0.960 . S
C1240 C1241 1.391 . S
C1240 C1242 1.394 . S
C1240 H1256 0.931 . S
C1241 C1240 1.391 . S
C1241 C1245 1.376 . S
C1242 C1240 1.394 . S
C1242 C1243 1.369 . S
C1242 C1246 1.531 1_554 S
C1243 C1242 1.369 . S
C1243 C1244 1.410 . S
C1243 C1251 1.503 1_654 S
C1244 C1243 1.410 . S
C1244 C1245 1.392 . S
C1244 C1247 1.511 . S
C1245 C1241 1.376 . S
C1245 C1244 1.392 . S
C1245 H1257 0.929 . S
C1246 C1242 1.531 1_556 S
C1246 H1258 0.960 . S
C1246 H1259 0.962 . S
C1246 H1260 0.960 . S
C1247 C1244 1.511 . S
C1247 H1261 0.961 . S
C1247 H1262 0.961 1_655 S
C1247 H1263 0.961 . S
C1248 C1249 1.370 . S
C1248 C1250 1.363 1_556 S
C1248 H1264 0.931 . S
C1249 C1248 1.370 . S
C1249 C1253 1.408 . S
C1250 C1248 1.363 1_554 S
C1250 C1251 1.370 1_554 S
C1250 C1254 1.524 . S
C1251 C1243 1.503 1_456 S
C1251 C1250 1.370 1_556 S
C1251 C1252 1.403 . S
C1252 C1251 1.403 . S
C1252 C1253 1.404 . S
C1252 C1255 1.539 1_455 S
C1253 C1249 1.408 . S
C1253 C1252 1.404 . S
C1253 H1265 0.930 . S
C1254 C1250 1.524 . S
C1254 H1266 0.956 . S
C1254 H1267 0.961 . S
C1254 H1268 0.961 . S
C1255 C1252 1.539 1_655 S
C1255 H1269 0.958 . S
C1255 H1270 0.961 . S
C1255 H1271 0.960 . S
H1256 C1240 0.931 . S
H1257 C1245 0.929 . S
H1258 C1246 0.960 . S
H1259 C1246 0.962 . S
H1260 C1246 0.960 . S
H1261 C1247 0.961 . S
H1262 C1247 0.961 1_455 S
H1263 C1247 0.961 . S
H1264 C1248 0.931 . S
H1265 C1253 0.930 . S
H1266 C1254 0.956 . S
H1267 C1254 0.961 . S
H1268 C1254 0.961 . S
H1269 C1255 0.958 . S
H1270 C1255 0.961 . S
H1271 C1255 0.960 . S
C1272 C1273 1.391 . S
C1272 C1274 1.394 . S
C1272 H1288 0.931 . S
C1273 C1272 1.391 . S
C1273 C1277 1.376 . S
C1274 C1272 1.394 . S
C1274 C1275 1.369 . S
C1274 C1278 1.531 . S
C1275 C1274 1.369 . S
C1275 C1276 1.410 . S
C1275 C1283 1.503 1_565 S
C1276 C1275 1.410 . S
C1276 C1277 1.392 . S
C1276 C1279 1.511 1_565 S
C1277 C1273 1.376 . S
C1277 C1276 1.392 . S
C1277 H1289 0.929 . S
C1278 C1274 1.531 . S
C1278 H1290 0.960 . S
C1278 H1291 0.962 . S
C1278 H1292 0.960 . S
C1279 C1276 1.511 1_545 S
C1279 H1293 0.961 . S
C1279 H1294 0.961 . S
C1279 H1295 0.961 . S
C1280 C1281 1.370 . S
C1280 C1282 1.363 . S
C1280 H1296 0.931 . S
C1281 C1280 1.370 . S
C1281 C1285 1.408 . S
C1282 C1280 1.363 . S
C1282 C1283 1.370 . S
C1282 C1286 1.524 . S
C1283 C1275 1.503 1_545 S
C1283 C1282 1.370 . S
C1283 C1284 1.403 . S
C1284 C1283 1.403 . S
C1284 C1285 1.404 . S
C1284 C1287 1.539 1_545 S
C1285 C1281 1.408 . S
C1285 C1284 1.404 . S
C1285 H1297 0.930 . S
C1286 C1282 1.524 . S
C1286 H1298 0.956 . S
C1286 H1299 0.961 . S
C1286 H1300 0.961 . S
C1287 C1284 1.539 1_565 S
C1287 H1301 0.958 . S
C1287 H1302 0.961 1_565 S
C1287 H1303 0.960 . S
H1288 C1272 0.931 . S
H1289 C1277 0.929 . S
H1290 C1278 0.960 . S
H1291 C1278 0.962 . S
H1292 C1278 0.960 . S
H1293 C1279 0.961 . S
H1294 C1279 0.961 . S
H1295 C1279 0.961 . S
H1296 C1280 0.931 . S
H1297 C1285 0.930 . S
H1298 C1286 0.956 . S
H1299 C1286 0.961 . S
H1300 C1286 0.961 . S
H1301 C1287 0.958 . S
H1302 C1287 0.961 1_545 S
H1303 C1287 0.960 . S
C1304 C1305 1.391 . S
C1304 C1306 1.394 . S
C1304 H1320 0.931 . S
C1305 C1304 1.391 . S
C1305 C1309 1.376 . S
C1306 C1304 1.394 . S
C1306 C1307 1.369 . S
C1306 C1310 1.531 1_556 S
C1307 C1306 1.369 . S
C1307 C1308 1.410 . S
C1307 C1315 1.503 1_556 S
C1308 C1307 1.410 . S
C1308 C1309 1.392 . S
C1308 C1311 1.511 . S
C1309 C1305 1.376 . S
C1309 C1308 1.392 . S
C1309 H1321 0.929 . S
C1310 C1306 1.531 1_554 S
C1310 H1322 0.960 . S
C1310 H1323 0.963 1_554 S
C1310 H1324 0.960 . S
C1311 C1308 1.511 . S
C1311 H1325 0.961 . S
C1311 H1326 0.961 . S
C1311 H1327 0.961 1_556 S
C1312 C1313 1.370 . S
C1312 C1314 1.363 1_554 S
C1312 H1328 0.931 . S
C1313 C1312 1.370 . S
C1313 C1317 1.408 . S
C1314 C1312 1.363 1_556 S
C1314 C1315 1.370 1_556 S
C1314 C1318 1.524 . S
C1315 C1307 1.503 1_554 S
C1315 C1314 1.370 1_554 S
C1315 C1316 1.403 . S
C1316 C1315 1.403 . S
C1316 C1317 1.404 . S
C1316 C1319 1.539 . S
C1317 C1313 1.408 . S
C1317 C1316 1.404 . S
C1317 H1329 0.930 . S
C1318 C1314 1.524 . S
C1318 H1330 0.956 . S
C1318 H1331 0.961 . S
C1318 H1332 0.961 . S
C1319 C1316 1.539 . S
C1319 H1333 0.958 . S
C1319 H1334 0.961 . S
C1319 H1335 0.960 . S
H1320 C1304 0.931 . S
H1321 C1309 0.929 . S
H1322 C1310 0.960 . S
H1323 C1310 0.963 1_556 S
H1324 C1310 0.960 . S
H1325 C1311 0.961 . S
H1326 C1311 0.961 . S
H1327 C1311 0.961 1_554 S
H1328 C1312 0.931 . S
H1329 C1317 0.930 . S
H1330 C1318 0.956 . S
H1331 C1318 0.961 . S
H1332 C1318 0.961 . S
H1333 C1319 0.958 . S
H1334 C1319 0.961 . S
H1335 C1319 0.960 . S
C1336 C1337 1.391 . S
C1336 C1338 1.394 . S
C1336 H1352 0.931 . S
C1337 C1336 1.391 . S
C1337 C1341 1.376 . S
C1338 C1336 1.394 . S
C1338 C1339 1.369 . S
C1338 C1342 1.531 . S
C1339 C1338 1.369 . S
C1339 C1340 1.410 . S
C1339 C1347 1.503 1_455 S
C1340 C1339 1.410 . S
C1340 C1341 1.392 . S
C1340 C1343 1.511 . S
C1341 C1337 1.376 . S
C1341 C1340 1.392 . S
C1341 H1353 0.929 . S
C1342 C1338 1.531 . S
C1342 H1354 0.960 1_455 S
C1342 H1355 0.962 . S
C1342 H1356 0.960 . S
C1343 C1340 1.511 . S
C1343 H1357 0.961 . S
C1343 H1358 0.961 1_455 S
C1343 H1359 0.961 1_455 S
C1344 C1345 1.370 . S
C1344 C1346 1.363 . S
C1344 H1360 0.931 . S
C1345 C1344 1.370 . S
C1345 C1349 1.408 . S
C1346 C1344 1.363 . S
C1346 C1347 1.370 . S
C1346 C1350 1.524 1_655 S
C1347 C1339 1.503 1_655 S
C1347 C1346 1.370 . S
C1347 C1348 1.403 . S
C1348 C1347 1.403 . S
C1348 C1349 1.404 . S
C1348 C1351 1.539 . S
C1349 C1345 1.408 . S
C1349 C1348 1.404 . S
C1349 H1361 0.930 . S
C1350 C1346 1.524 1_455 S
C1350 H1362 0.956 . S
C1350 H1363 0.961 . S
C1350 H1364 0.961 . S
C1351 C1348 1.539 . S
C1351 H1365 0.958 . S
C1351 H1366 0.961 . S
C1351 H1367 0.960 . S
H1352 C1336 0.931 . S
H1353 C1341 0.929 . S
H1354 C1342 0.960 1_655 S
H1355 C1342 0.962 . S
H1356 C1342 0.960 . S
H1357 C1343 0.961 . S
H1358 C1343 0.961 1_655 S
H1359 C1343 0.961 1_655 S
H1360 C1344 0.931 . S
H1361 C1349 0.930 . S
H1362 C1350 0.956 . S
H1363 C1350 0.961 . S
H1364 C1350 0.961 . S
H1365 C1351 0.958 . S
H1366 C1351 0.961 . S
H1367 C1351 0.960 . S
C409 C73 1.535 . S
C417 C2 1.608 . S
C441 C36 1.610 . S
C449 C107 1.500 . S
C473 C70 1.603 . S
C481 C141 1.532 . S
C505 C104 1.616 . S
C513 C175 1.508 . S
C537 C138 1.602 . S
C545 C5 1.531 . S
C569 C39 1.504 . S
C577 C172 1.608 . S
C601 C206 1.603 . S
C609 C345 1.505 . S
C633 C240 1.615 . S
C641 C379 1.502 . S
C665 C209 1.503 . S
C673 C274 1.615 . S
C697 C243 1.473 . S
C705 C308 1.612 . S
C729 C277 1.485 . S
C737 C342 1.610 . S
C761 C311 1.508 . S
C769 C376 1.615 . S
C793 C305 1.244 . S
C801 C33 1.243 . S
C825 C67 1.252 . S
C833 C339 1.243 . S
C857 C373 1.239 . S
C865 C101 1.244 . S
C889 C407 1.254 . S
C897 C135 1.255 . S
C921 C169 1.263 . S
C929 C237 1.248 . S
C953 C271 1.263 . S
C961 C203 1.250 . S
C985 C247 1.528 . S
C993 C9 1.516 . S
C1017 C43 1.530 . S
C1025 C281 1.523 . S
C1049 C77 1.507 . S
C1057 C315 1.528 . S
C1081 C111 1.531 . S
C1089 C349 1.523 . S
C1113 C145 1.503 . S
C1121 C383 1.521 . S
C1145 C213 1.502 . S
C1153 C179 1.524 . S
C1177 C88 1.857 . S
C1185 C394 1.862 . S
C1209 C224 1.846 . S
C1217 C122 1.856 . S
C1241 C156 1.856 . S
C1249 C258 1.862 . S
C1273 C190 1.860 . S
C1281 C292 1.862 . S
C1305 C326 1.855 . S
C1313 C20 1.861 . S
C1337 C54 1.859 . S
C1345 C360 1.859 . S
