# Generated by pormake.
# Topology fnk, (5)-cn, num edge types: 1
# Building blocks:
#     Node 0, Type 0, BuildingBlock: BEQFEK_clean_sbu_0, # of connection points: 5
#     Node 1, Type 0, BuildingBlock: BEQFEK_clean_sbu_0, # of connection points: 5
#     Node 2, Type 0, BuildingBlock: BEQFEK_clean_sbu_0, # of connection points: 5
#     Node 3, Type 0, BuildingBlock: BEQFEK_clean_sbu_0, # of connection points: 5
#     Node 4, Type 0, BuildingBlock: BEQFEK_clean_sbu_0, # of connection points: 5
#     Node 5, Type 0, BuildingBlock: BEQFEK_clean_sbu_0, # of connection points: 5
#     Node 6, Type 0, BuildingBlock: BEQFEK_clean_sbu_0, # of connection points: 5
#     Node 7, Type 0, BuildingBlock: BEQFEK_clean_sbu_0, # of connection points: 5
#     Node 8, Type 0, BuildingBlock: BEQFEK_clean_sbu_0, # of connection points: 5
#     Node 9, Type 0, BuildingBlock: BEQFEK_clean_sbu_0, # of connection points: 5
#     Node 10, Type 0, BuildingBlock: BEQFEK_clean_sbu_0, # of connection points: 5
#     Node 11, Type 0, BuildingBlock: BEQFEK_clean_sbu_0, # of connection points: 5
#     Node 12, Type 0, BuildingBlock: BEQFEK_clean_sbu_0, # of connection points: 5
#     Node 13, Type 0, BuildingBlock: BEQFEK_clean_sbu_0, # of connection points: 5
#     Node 14, Type 0, BuildingBlock: BEQFEK_clean_sbu_0, # of connection points: 5
#     Node 15, Type 0, BuildingBlock: BEQFEK_clean_sbu_0, # of connection points: 5
#     Edge 16, Type (0, 0), BuildingBlock: TEMPAE_clean_linker_10, # of connection points: 2
#     Edge 17, Type (0, 0), BuildingBlock: TEMPAE_clean_linker_10, # of connection points: 2
#     Edge 18, Type (0, 0), BuildingBlock: TEMPAE_clean_linker_10, # of connection points: 2
#     Edge 19, Type (0, 0), BuildingBlock: TEMPAE_clean_linker_10, # of connection points: 2
#     Edge 20, Type (0, 0), BuildingBlock: TEMPAE_clean_linker_10, # of connection points: 2
#     Edge 21, Type (0, 0), BuildingBlock: TEMPAE_clean_linker_10, # of connection points: 2
#     Edge 22, Type (0, 0), BuildingBlock: TEMPAE_clean_linker_10, # of connection points: 2
#     Edge 23, Type (0, 0), BuildingBlock: TEMPAE_clean_linker_10, # of connection points: 2
#     Edge 24, Type (0, 0), BuildingBlock: TEMPAE_clean_linker_10, # of connection points: 2
#     Edge 25, Type (0, 0), BuildingBlock: TEMPAE_clean_linker_10, # of connection points: 2
#     Edge 26, Type (0, 0), BuildingBlock: TEMPAE_clean_linker_10, # of connection points: 2
#     Edge 27, Type (0, 0), BuildingBlock: TEMPAE_clean_linker_10, # of connection points: 2
#     Edge 28, Type (0, 0), BuildingBlock: TEMPAE_clean_linker_10, # of connection points: 2
#     Edge 29, Type (0, 0), BuildingBlock: TEMPAE_clean_linker_10, # of connection points: 2
#     Edge 30, Type (0, 0), BuildingBlock: TEMPAE_clean_linker_10, # of connection points: 2
#     Edge 31, Type (0, 0), BuildingBlock: TEMPAE_clean_linker_10, # of connection points: 2
#     Edge 32, Type (0, 0), BuildingBlock: TEMPAE_clean_linker_10, # of connection points: 2
#     Edge 33, Type (0, 0), BuildingBlock: TEMPAE_clean_linker_10, # of connection points: 2
#     Edge 34, Type (0, 0), BuildingBlock: TEMPAE_clean_linker_10, # of connection points: 2
#     Edge 35, Type (0, 0), BuildingBlock: TEMPAE_clean_linker_10, # of connection points: 2
#     Edge 36, Type (0, 0), BuildingBlock: TEMPAE_clean_linker_10, # of connection points: 2
#     Edge 37, Type (0, 0), BuildingBlock: TEMPAE_clean_linker_10, # of connection points: 2
#     Edge 38, Type (0, 0), BuildingBlock: TEMPAE_clean_linker_10, # of connection points: 2
#     Edge 39, Type (0, 0), BuildingBlock: TEMPAE_clean_linker_10, # of connection points: 2
#     Edge 40, Type (0, 0), BuildingBlock: TEMPAE_clean_linker_10, # of connection points: 2
#     Edge 41, Type (0, 0), BuildingBlock: TEMPAE_clean_linker_10, # of connection points: 2
#     Edge 42, Type (0, 0), BuildingBlock: TEMPAE_clean_linker_10, # of connection points: 2
#     Edge 43, Type (0, 0), BuildingBlock: TEMPAE_clean_linker_10, # of connection points: 2
#     Edge 44, Type (0, 0), BuildingBlock: TEMPAE_clean_linker_10, # of connection points: 2
#     Edge 45, Type (0, 0), BuildingBlock: TEMPAE_clean_linker_10, # of connection points: 2
#     Edge 46, Type (0, 0), BuildingBlock: TEMPAE_clean_linker_10, # of connection points: 2
#     Edge 47, Type (0, 0), BuildingBlock: TEMPAE_clean_linker_10, # of connection points: 2
#     Edge 48, Type (0, 0), BuildingBlock: TEMPAE_clean_linker_10, # of connection points: 2
#     Edge 49, Type (0, 0), BuildingBlock: TEMPAE_clean_linker_10, # of connection points: 2
#     Edge 50, Type (0, 0), BuildingBlock: TEMPAE_clean_linker_10, # of connection points: 2
#     Edge 51, Type (0, 0), BuildingBlock: TEMPAE_clean_linker_10, # of connection points: 2
#     Edge 52, Type (0, 0), BuildingBlock: TEMPAE_clean_linker_10, # of connection points: 2
#     Edge 53, Type (0, 0), BuildingBlock: TEMPAE_clean_linker_10, # of connection points: 2
#     Edge 54, Type (0, 0), BuildingBlock: TEMPAE_clean_linker_10, # of connection points: 2
#     Edge 55, Type (0, 0), BuildingBlock: TEMPAE_clean_linker_10, # of connection points: 2
# Relax obj value: 0.375
# Max RMSD: 0.200
# Mean RMSD: 0.200
data_MOF--net-fnk--node1-BEQFEK_clean_sbu_0--edge1-TEMPAE_clean_linker_10
_symmetry_space_group_name_H-M    P1
_symmetry_Int_Tables_number       1
_symmetry_cell_setting            triclinic
loop_
_symmetry_equiv_pos_as_xyz
'x, y, z'
_cell_length_a     50.610653
_cell_length_b     50.61983
_cell_length_c     49.482189
_cell_angle_alpha  89.990927
_cell_angle_beta   90.003429
_cell_angle_gamma 89.975454
loop_
_atom_site_label
_atom_site_type_symbol
_atom_site_fract_x
_atom_site_fract_y
_atom_site_fract_z
_atom_type_partial_charge
Co0 Co 0.09649 0.40609 0.15048 0.0
Co1 Co 0.13577 0.3682 0.17967 0.0
C2 C 0.14051 0.42637 0.18607 0.0
O3 O 0.1207 0.42949 0.1705 0.0
O4 O 0.14936 0.40339 0.19161 0.0
C5 C 0.07516 0.44576 0.11182 0.0
O6 O 0.09892 0.45083 0.10252 0.0
C7 C 0.18397 0.34033 0.19815 0.0
C8 C 0.1684 0.29962 0.20099 0.0
C9 C 0.19113 0.31452 0.20429 0.0
N10 N 0.1582 0.34048 0.19141 0.0
N11 N 0.14905 0.31612 0.19329 0.0
C12 C 0.20146 0.3641 0.19674 0.0
H13 H 0.19431 0.37787 0.18089 0.0
H14 H 0.22219 0.35833 0.19239 0.0
H15 H 0.20083 0.37457 0.21643 0.0
C16 C 0.11574 0.37731 0.10243 0.0
N17 N 0.11512 0.38166 0.12921 0.0
N18 N 0.13279 0.36651 0.1411 0.0
C19 C 0.14584 0.35262 0.12195 0.0
C20 C 0.13552 0.35922 0.09686 0.0
C21 C 0.097 0.38924 0.08245 0.0
H22 H 0.07769 0.39333 0.09212 0.0
H23 H 0.10546 0.40791 0.07459 0.0
H24 H 0.09394 0.37575 0.06504 0.0
O25 O 0.07391 0.38802 0.1764 0.0
O26 O 0.10105 0.36142 0.19839 0.0
H27 H 0.16196 0.31705 0.13826 0.0
H28 H 0.17873 0.32869 0.10834 0.0
C29 C 0.16888 0.33488 0.12734 0.0
H30 H 0.18336 0.34527 0.14035 0.0
H31 H 0.12959 0.31074 0.18897 0.0
O32 O 0.07176 0.42838 0.12999 0.0
C33 C 0.07803 0.37095 0.19467 0.0
Co34 Co 0.59784 0.09494 0.1488 0.0
Co35 Co 0.63742 0.13011 0.18103 0.0
C36 C 0.57873 0.13585 0.18802 0.0
O37 O 0.57476 0.11789 0.17046 0.0
O38 O 0.60213 0.14302 0.19431 0.0
C39 C 0.55602 0.07634 0.11117 0.0
O40 O 0.54796 0.10068 0.1071 0.0
C41 C 0.66599 0.17518 0.20583 0.0
C42 C 0.70551 0.15707 0.21064 0.0
C43 C 0.69128 0.17991 0.21563 0.0
N44 N 0.66547 0.15058 0.19553 0.0
N45 N 0.68915 0.13996 0.19844 0.0
C46 C 0.64211 0.19245 0.20823 0.0
H47 H 0.6267 0.18184 0.21987 0.0
H48 H 0.63402 0.19638 0.18778 0.0
H49 H 0.64653 0.21133 0.21861 0.0
C50 C 0.62762 0.11647 0.10252 0.0
N51 N 0.62282 0.11467 0.12915 0.0
N52 N 0.63937 0.12999 0.14238 0.0
C53 C 0.6552 0.14232 0.12436 0.0
C54 C 0.64842 0.13393 0.09852 0.0
C55 C 0.61128 0.10293 0.08141 0.0
H56 H 0.60997 0.08154 0.08606 0.0
H57 H 0.59108 0.11129 0.08188 0.0
H58 H 0.61908 0.10562 0.06071 0.0
O59 O 0.61543 0.06981 0.17297 0.0
O60 O 0.64391 0.09404 0.19597 0.0
H61 H 0.69212 0.15017 0.14355 0.0
H62 H 0.68631 0.16984 0.11375 0.0
C63 C 0.67689 0.16099 0.13185 0.0
H64 H 0.66885 0.17687 0.14493 0.0
H65 H 0.69403 0.12082 0.19239 0.0
O66 O 0.57576 0.07175 0.12628 0.0
C67 C 0.63337 0.07181 0.19076 0.0
Co68 Co 0.89653 0.59177 0.14323 0.0
Co69 Co 0.86277 0.63067 0.17788 0.0
C70 C 0.85638 0.57154 0.18234 0.0
O71 O 0.87395 0.56782 0.16428 0.0
O72 O 0.8496 0.59485 0.18951 0.0
C73 C 0.91472 0.54968 0.10678 0.0
O74 O 0.89231 0.53736 0.11133 0.0
C75 C 0.81622 0.65988 0.19829 0.0
C76 C 0.83521 0.69743 0.21023 0.0
C77 C 0.81096 0.68484 0.2087 0.0
N78 N 0.84237 0.65806 0.19374 0.0
N79 N 0.85357 0.68048 0.20113 0.0
C80 C 0.79682 0.63884 0.19085 0.0
H81 H 0.80499 0.62614 0.17458 0.0
H82 H 0.77783 0.64773 0.18422 0.0
H83 H 0.793 0.62627 0.2088 0.0
C84 C 0.87421 0.62292 0.09892 0.0
N85 N 0.87652 0.61757 0.12537 0.0
N86 N 0.86259 0.63467 0.1394 0.0
C87 C 0.85117 0.65191 0.12203 0.0
C88 C 0.85841 0.6451 0.09582 0.0
C89 C 0.88574 0.60597 0.07707 0.0
H90 H 0.90754 0.60829 0.07692 0.0
H91 H 0.88111 0.585 0.08134 0.0
H92 H 0.87773 0.61092 0.05685 0.0
O93 O 0.92239 0.60777 0.168 0.0
O94 O 0.89905 0.63537 0.19305 0.0
H95 H 0.84552 0.68669 0.14587 0.0
H96 H 0.83001 0.68804 0.113 0.0
C97 C 0.83475 0.67506 0.13041 0.0
H98 H 0.8161 0.66787 0.13959 0.0
H99 H 0.87376 0.68441 0.19943 0.0
O100 O 0.91883 0.57203 0.11764 0.0
C101 C 0.92098 0.62459 0.18699 0.0
Co102 Co 0.40214 0.90255 0.14144 0.0
Co103 Co 0.36359 0.86901 0.17688 0.0
C104 C 0.42287 0.86539 0.18331 0.0
O105 O 0.42652 0.8821 0.1644 0.0
O106 O 0.39961 0.85821 0.19018 0.0
C107 C 0.44409 0.92067 0.10457 0.0
O108 O 0.45628 0.89807 0.10847 0.0
C109 C 0.33485 0.82379 0.20194 0.0
C110 C 0.29827 0.84449 0.21414 0.0
C111 C 0.31077 0.82018 0.21498 0.0
N112 N 0.33636 0.84917 0.19391 0.0
N113 N 0.31437 0.8613 0.2012 0.0
C114 C 0.35647 0.80397 0.19826 0.0
H115 H 0.35229 0.79197 0.18 0.0
H116 H 0.35751 0.7905 0.21594 0.0
H117 H 0.37574 0.81392 0.19532 0.0
C118 C 0.3725 0.877 0.09771 0.0
N119 N 0.37748 0.88057 0.12408 0.0
N120 N 0.36074 0.86655 0.13849 0.0
C121 C 0.34422 0.85372 0.12149 0.0
C122 C 0.35104 0.86016 0.09507 0.0
C123 C 0.38892 0.88872 0.07556 0.0
H124 H 0.38579 0.91041 0.07501 0.0
H125 H 0.41006 0.88496 0.07983 0.0
H126 H 0.38418 0.88017 0.05552 0.0
O127 O 0.38441 0.92908 0.1641 0.0
O128 O 0.35685 0.90581 0.1892 0.0
H129 H 0.30899 0.84823 0.14465 0.0
H130 H 0.30945 0.83018 0.11309 0.0
C131 C 0.32158 0.83688 0.13046 0.0
H132 H 0.32933 0.81942 0.14144 0.0
H133 H 0.31043 0.88122 0.19755 0.0
O134 O 0.42179 0.92465 0.11559 0.0
C135 C 0.3668 0.92785 0.18231 0.0
Co136 Co 0.106 0.58879 0.35016 0.0
Co137 Co 0.13732 0.63215 0.31892 0.0
C138 C 0.14837 0.57428 0.31087 0.0
O139 O 0.13098 0.56837 0.32841 0.0
O140 O 0.15321 0.59833 0.30485 0.0
C141 C 0.07699 0.54415 0.36249 0.0
O142 O 0.08413 0.53902 0.3375 0.0
C143 C 0.18079 0.66426 0.29622 0.0
C144 C 0.16 0.70225 0.29012 0.0
C145 C 0.18411 0.68981 0.28652 0.0
N146 N 0.1558 0.66189 0.30515 0.0
N147 N 0.14355 0.68466 0.3015 0.0
C148 C 0.1999 0.64173 0.29491 0.0
H149 H 0.20298 0.63368 0.31553 0.0
H150 H 0.21908 0.64758 0.28595 0.0
H151 H 0.1913 0.62574 0.28239 0.0
C152 C 0.1257 0.61788 0.39694 0.0
N153 N 0.12379 0.61452 0.37014 0.0
N154 N 0.13694 0.63328 0.35763 0.0
C155 C 0.14743 0.64963 0.3764 0.0
C156 C 0.14038 0.64049 0.40196 0.0
C157 C 0.11498 0.59865 0.4172 0.0
H158 H 0.11868 0.57818 0.4102 0.0
H159 H 0.12422 0.6012 0.43736 0.0
H160 H 0.0933 0.60146 0.41898 0.0
O161 O 0.07922 0.6045 0.32621 0.0
O162 O 0.10085 0.63548 0.30382 0.0
H163 H 0.16885 0.68482 0.38833 0.0
H164 H 0.18062 0.66852 0.35801 0.0
C165 C 0.16283 0.67401 0.36985 0.0
H166 H 0.15056 0.68722 0.35711 0.0
H167 H 0.1238 0.68807 0.30647 0.0
O168 O 0.08566 0.56495 0.37368 0.0
C169 C 0.07966 0.62281 0.30866 0.0
Co170 Co 0.40348 0.09976 0.34996 0.0
Co171 Co 0.36742 0.1394 0.31888 0.0
C172 C 0.4258 0.14032 0.31135 0.0
O173 O 0.42801 0.12137 0.3282 0.0
O174 O 0.40324 0.15017 0.30556 0.0
C175 C 0.4429 0.07744 0.3883 0.0
O176 O 0.45181 0.1012 0.39385 0.0
C177 C 0.34029 0.18726 0.29774 0.0
C178 C 0.29921 0.17237 0.29755 0.0
C179 C 0.31436 0.19452 0.29214 0.0
N180 N 0.34022 0.162 0.30625 0.0
N181 N 0.31565 0.15325 0.30589 0.0
C182 C 0.3644 0.2043 0.29696 0.0
H183 H 0.37896 0.19752 0.31224 0.0
H184 H 0.35921 0.22529 0.30069 0.0
H185 H 0.37366 0.20269 0.2767 0.0
C186 C 0.37688 0.12339 0.39701 0.0
N187 N 0.38059 0.12103 0.37026 0.0
N188 N 0.36613 0.13872 0.35757 0.0
C189 C 0.35319 0.15345 0.37616 0.0
C190 C 0.3598 0.14427 0.40172 0.0
C191 C 0.38864 0.10533 0.41775 0.0
H192 H 0.39024 0.08502 0.40957 0.0
H193 H 0.40864 0.1125 0.42319 0.0
H194 H 0.3764 0.10486 0.43635 0.0
O195 O 0.38385 0.07687 0.32566 0.0
O196 O 0.3586 0.10422 0.30239 0.0
H197 H 0.31784 0.17008 0.35989 0.0
H198 H 0.33124 0.18824 0.38814 0.0
C199 C 0.33633 0.17688 0.36969 0.0
H200 H 0.3469 0.18995 0.35534 0.0
H201 H 0.31007 0.13426 0.31179 0.0
O202 O 0.42375 0.07458 0.37199 0.0
C203 C 0.36683 0.08095 0.30733 0.0
Co204 Co 0.89555 0.40732 0.357 0.0
Co205 Co 0.86466 0.36565 0.32293 0.0
C206 C 0.85923 0.42399 0.31244 0.0
O207 O 0.87538 0.42906 0.33146 0.0
O208 O 0.85263 0.40025 0.3069 0.0
C209 C 0.91043 0.45474 0.38527 0.0
O210 O 0.89021 0.46548 0.37277 0.0
C211 C 0.82045 0.3343 0.30004 0.0
C212 C 0.84238 0.29877 0.28689 0.0
C213 C 0.81746 0.31007 0.28718 0.0
N214 N 0.84605 0.33707 0.3069 0.0
N215 N 0.85894 0.3157 0.29908 0.0
C216 C 0.79981 0.355 0.3045 0.0
H217 H 0.80899 0.37458 0.30788 0.0
H218 H 0.78813 0.34988 0.32273 0.0
H219 H 0.78613 0.3559 0.28697 0.0
C220 C 0.86957 0.37976 0.4016 0.0
N221 N 0.87372 0.3832 0.37507 0.0
N222 N 0.86109 0.36484 0.36141 0.0
C223 C 0.84885 0.3486 0.37915 0.0
C224 C 0.85404 0.35747 0.40524 0.0
C225 C 0.8798 0.39813 0.42291 0.0
H226 H 0.87697 0.41886 0.41627 0.0
H227 H 0.86948 0.39536 0.44247 0.0
H228 H 0.90128 0.39469 0.42573 0.0
O229 O 0.92381 0.38926 0.3368 0.0
O230 O 0.90221 0.35997 0.31211 0.0
H231 H 0.84608 0.31254 0.35674 0.0
H232 H 0.82953 0.31173 0.38918 0.0
C233 C 0.83415 0.32415 0.37132 0.0
H234 H 0.81546 0.32983 0.36117 0.0
H235 H 0.87918 0.31278 0.30178 0.0
O236 O 0.91476 0.43019 0.38248 0.0
C237 C 0.92372 0.37089 0.31931 0.0
Co238 Co 0.59522 0.89834 0.35335 0.0
Co239 Co 0.6319 0.85895 0.32261 0.0
C240 C 0.57406 0.86031 0.31141 0.0
O241 O 0.57143 0.87856 0.32898 0.0
O242 O 0.59661 0.84994 0.30658 0.0
C243 C 0.55428 0.91988 0.39035 0.0
O244 O 0.54452 0.8961 0.39401 0.0
C245 C 0.65903 0.81176 0.29965 0.0
C246 C 0.7005 0.82426 0.30554 0.0
C247 C 0.68506 0.80363 0.29619 0.0
N248 N 0.65928 0.83605 0.31073 0.0
N249 N 0.68411 0.84339 0.31399 0.0
C250 C 0.63445 0.79623 0.29435 0.0
H251 H 0.61899 0.80149 0.30932 0.0
H252 H 0.63847 0.77469 0.29522 0.0
H253 H 0.62692 0.80124 0.27392 0.0
C254 C 0.61855 0.87218 0.40078 0.0
N255 N 0.61618 0.87547 0.37396 0.0
N256 N 0.63081 0.85785 0.36139 0.0
C257 C 0.64244 0.84218 0.38008 0.0
C258 C 0.63486 0.8507 0.40562 0.0
C259 C 0.60677 0.89032 0.42144 0.0
H260 H 0.6062 0.91081 0.4136 0.0
H261 H 0.58635 0.88382 0.42605 0.0
H262 H 0.6184 0.89006 0.44047 0.0
O263 O 0.617 0.92168 0.33158 0.0
O264 O 0.64259 0.89462 0.30834 0.0
H265 H 0.67897 0.82544 0.36702 0.0
H266 H 0.66158 0.80565 0.39156 0.0
C267 C 0.65918 0.81866 0.37367 0.0
H268 H 0.65009 0.80723 0.35697 0.0
H269 H 0.68985 0.8614 0.32242 0.0
O270 O 0.57438 0.92306 0.37537 0.0
C271 C 0.63486 0.91791 0.31406 0.0
Co272 Co 0.90877 0.60312 0.85632 0.0
Co273 Co 0.87101 0.63876 0.82246 0.0
C274 C 0.93022 0.64231 0.81666 0.0
O275 O 0.93325 0.62452 0.83462 0.0
O276 O 0.90717 0.65038 0.80992 0.0
C277 C 0.95077 0.58331 0.89192 0.0
O278 O 0.96339 0.60566 0.88798 0.0
C279 C 0.8426 0.68603 0.80223 0.0
C280 C 0.80406 0.66788 0.79233 0.0
C281 C 0.81735 0.69177 0.79288 0.0
N282 N 0.84391 0.65992 0.80718 0.0
N283 N 0.82089 0.64923 0.80098 0.0
C284 C 0.86442 0.705 0.80833 0.0
H285 H 0.87765 0.69676 0.82412 0.0
H286 H 0.85629 0.7243 0.81501 0.0
H287 H 0.87623 0.70823 0.78973 0.0
C288 C 0.87961 0.62697 0.90132 0.0
N289 N 0.88438 0.62438 0.87478 0.0
N290 N 0.8678 0.63919 0.86104 0.0
C291 C 0.85147 0.65148 0.87868 0.0
C292 C 0.85833 0.64391 0.90479 0.0
C293 C 0.89631 0.61456 0.92286 0.0
H294 H 0.91741 0.61815 0.91826 0.0
H295 H 0.8921 0.62274 0.94318 0.0
H296 H 0.89293 0.5929 0.92299 0.0
O297 O 0.891 0.57792 0.83212 0.0
O298 O 0.86424 0.60273 0.80762 0.0
H299 H 0.81666 0.67457 0.88832 0.0
H300 H 0.83684 0.68708 0.86102 0.0
C301 C 0.82896 0.66896 0.87067 0.0
H302 H 0.81639 0.65858 0.85571 0.0
H303 H 0.81648 0.62921 0.80325 0.0
O304 O 0.92821 0.57992 0.88125 0.0
C305 C 0.87387 0.58025 0.81352 0.0
Co306 Co 0.39713 0.9038 0.855 0.0
Co307 Co 0.36606 0.86169 0.82177 0.0
C308 C 0.36039 0.91976 0.81034 0.0
O309 O 0.3766 0.92491 0.82927 0.0
O310 O 0.3538 0.89596 0.80496 0.0
C311 C 0.41158 0.95182 0.88235 0.0
O312 O 0.39149 0.96219 0.8693 0.0
C313 C 0.32131 0.83096 0.80014 0.0
C314 C 0.34032 0.79201 0.7946 0.0
C315 C 0.31644 0.80515 0.79205 0.0
N316 N 0.34688 0.83281 0.80726 0.0
N317 N 0.35814 0.80952 0.80371 0.0
C318 C 0.30185 0.85302 0.80302 0.0
H319 H 0.30837 0.86691 0.81904 0.0
H320 H 0.2819 0.84522 0.80784 0.0
H321 H 0.30075 0.86403 0.78366 0.0
C322 C 0.37138 0.87712 0.90026 0.0
N323 N 0.37546 0.8801 0.87366 0.0
N324 N 0.3626 0.86169 0.86033 0.0
C325 C 0.35016 0.84591 0.87838 0.0
C326 C 0.35556 0.85511 0.9043 0.0
C327 C 0.38193 0.89565 0.92125 0.0
H328 H 0.3789 0.91632 0.91453 0.0
H329 H 0.372 0.89297 0.94104 0.0
H330 H 0.40348 0.89232 0.92365 0.0
O331 O 0.42517 0.88532 0.83487 0.0
O332 O 0.40356 0.85549 0.8108 0.0
H333 H 0.32858 0.81049 0.88922 0.0
H334 H 0.31748 0.82718 0.85895 0.0
C335 C 0.33505 0.82156 0.87104 0.0
H336 H 0.34764 0.80855 0.85844 0.0
H337 H 0.37793 0.80548 0.80798 0.0
O338 O 0.41625 0.92729 0.88003 0.0
C339 C 0.42507 0.86661 0.81774 0.0
Co340 Co 0.09559 0.40036 0.84589 0.0
Co341 Co 0.13102 0.35753 0.8189 0.0
C342 C 0.07424 0.36075 0.80515 0.0
O343 O 0.07221 0.38023 0.82135 0.0
O344 O 0.09624 0.34884 0.80183 0.0
C345 C 0.05491 0.42272 0.88201 0.0
O346 O 0.0481 0.39879 0.88953 0.0
C347 C 0.15668 0.3094 0.79671 0.0
C348 C 0.19715 0.31511 0.81257 0.0
C349 C 0.18148 0.29779 0.79809 0.0
N350 N 0.15763 0.33244 0.81024 0.0
N351 N 0.18193 0.3358 0.81937 0.0
C352 C 0.1322 0.29831 0.78419 0.0
H353 H 0.11594 0.29858 0.79923 0.0
H354 H 0.13531 0.27781 0.77691 0.0
H355 H 0.12613 0.31106 0.76702 0.0
C356 C 0.11623 0.37606 0.89575 0.0
N357 N 0.11457 0.37781 0.86871 0.0
N358 N 0.12783 0.35824 0.85765 0.0
C359 C 0.13721 0.34254 0.87761 0.0
C360 C 0.13011 0.35338 0.90232 0.0
C361 C 0.10698 0.39693 0.91501 0.0
H362 H 0.10615 0.41642 0.90484 0.0
H363 H 0.0871 0.39172 0.92272 0.0
H364 H 0.1205 0.39824 0.93263 0.0
O365 O 0.11955 0.4217 0.82461 0.0
O366 O 0.14413 0.39218 0.80329 0.0
H367 H 0.17242 0.32017 0.8712 0.0
H368 H 0.14783 0.30337 0.8909 0.0
C369 C 0.15089 0.31667 0.87334 0.0
H370 H 0.14341 0.30693 0.85481 0.0
H371 H 0.18798 0.35208 0.83074 0.0
O372 O 0.07362 0.42614 0.86529 0.0
C373 C 0.13777 0.41614 0.80798 0.0
Co374 Co 0.60194 0.09047 0.8531 0.0
Co375 Co 0.63386 0.13403 0.82266 0.0
C376 C 0.64276 0.07621 0.81178 0.0
O377 O 0.6256 0.07031 0.82956 0.0
O378 O 0.64832 0.10029 0.80651 0.0
C379 C 0.57842 0.04243 0.87013 0.0
O380 O 0.5911 0.03321 0.84899 0.0
C381 C 0.67902 0.16547 0.80315 0.0
C382 C 0.66028 0.20471 0.79889 0.0
C383 C 0.68409 0.1915 0.79604 0.0
N384 N 0.65338 0.16352 0.80998 0.0
N385 N 0.64229 0.18699 0.80723 0.0
C386 C 0.69831 0.14318 0.80513 0.0
H387 H 0.69225 0.12932 0.82138 0.0
H388 H 0.71854 0.15066 0.80915 0.0
H389 H 0.69844 0.13219 0.78573 0.0
C390 C 0.62435 0.11677 0.90039 0.0
N391 N 0.62138 0.11464 0.87355 0.0
N392 N 0.63462 0.13356 0.86139 0.0
C393 C 0.64608 0.1489 0.88047 0.0
C394 C 0.63974 0.13882 0.90586 0.0
C395 C 0.61394 0.09689 0.92014 0.0
H396 H 0.61668 0.07669 0.91196 0.0
H397 H 0.62417 0.09818 0.93993 0.0
H398 H 0.59247 0.10025 0.92313 0.0
O399 O 0.5751 0.10823 0.83067 0.0
O400 O 0.59711 0.13948 0.80899 0.0
H401 H 0.66694 0.1842 0.89317 0.0
H402 H 0.6796 0.16814 0.86315 0.0
C403 C 0.66145 0.17344 0.87448 0.0
H404 H 0.64943 0.18669 0.86157 0.0
H405 H 0.62247 0.19097 0.81139 0.0
O406 O 0.58139 0.06651 0.8766 0.0
C407 C 0.57564 0.12733 0.814 0.0
Co408 Co 0.89915 0.40144 0.64427 0.0
Co409 Co 0.86054 0.3671 0.67852 0.0
C410 C 0.91965 0.36069 0.68273 0.0
O411 O 0.9232 0.37842 0.66479 0.0
O412 O 0.8964 0.35392 0.69013 0.0
C413 C 0.94072 0.42063 0.60756 0.0
O414 O 0.95255 0.39762 0.60986 0.0
C415 C 0.83168 0.32116 0.70106 0.0
C416 C 0.79242 0.33937 0.7073 0.0
C417 C 0.80611 0.3158 0.70961 0.0
N418 N 0.83287 0.34675 0.69385 0.0
N419 N 0.80942 0.35752 0.69788 0.0
C420 C 0.85405 0.30211 0.69796 0.0
H421 H 0.86715 0.30837 0.68115 0.0
H422 H 0.84657 0.28182 0.6942 0.0
H423 H 0.86584 0.30196 0.71687 0.0
C424 C 0.86838 0.37918 0.59957 0.0
N425 N 0.87341 0.3817 0.62607 0.0
N426 N 0.85678 0.36709 0.63996 0.0
C427 C 0.84034 0.35479 0.62244 0.0
C428 C 0.84703 0.36231 0.59628 0.0
C429 C 0.88523 0.39117 0.5779 0.0
H430 H 0.90619 0.3862 0.58187 0.0
H431 H 0.88011 0.38384 0.55747 0.0
H432 H 0.88316 0.41298 0.57847 0.0
O433 O 0.88322 0.42677 0.66951 0.0
O434 O 0.85555 0.40317 0.69414 0.0
H435 H 0.80448 0.34765 0.64395 0.0
H436 H 0.80726 0.32928 0.61286 0.0
C437 C 0.81832 0.33679 0.63061 0.0
H438 H 0.82649 0.3199 0.64219 0.0
H439 H 0.80488 0.3772 0.69365 0.0
O440 O 0.91884 0.4245 0.61944 0.0
C441 C 0.86637 0.42515 0.68842 0.0
Co442 Co 0.5981 0.9019 0.65115 0.0
Co443 Co 0.63864 0.86648 0.68162 0.0
C444 C 0.63987 0.92481 0.68813 0.0
O445 O 0.62031 0.92666 0.67202 0.0
O446 O 0.65004 0.90241 0.69392 0.0
C447 C 0.57677 0.94071 0.61219 0.0
O448 O 0.60091 0.94772 0.60559 0.0
C449 C 0.68688 0.8402 0.70293 0.0
C450 C 0.67364 0.79861 0.70109 0.0
C451 C 0.69502 0.8144 0.70767 0.0
N452 N 0.66183 0.83951 0.69379 0.0
N453 N 0.65406 0.81462 0.69294 0.0
C454 C 0.703 0.86487 0.70509 0.0
H455 H 0.69724 0.87898 0.68896 0.0
H456 H 0.72442 0.86043 0.70356 0.0
H457 H 0.69905 0.87433 0.72491 0.0
C458 C 0.62022 0.87446 0.60381 0.0
N459 N 0.61869 0.87866 0.63057 0.0
N460 N 0.63703 0.86473 0.64291 0.0
C461 C 0.65151 0.85189 0.62405 0.0
C462 C 0.64137 0.85783 0.59867 0.0
C463 C 0.60097 0.88505 0.58353 0.0
H464 H 0.58115 0.8872 0.59277 0.0
H465 H 0.60784 0.90461 0.57632 0.0
H466 H 0.59951 0.8717 0.5658 0.0
O467 O 0.57567 0.88267 0.67618 0.0
O468 O 0.60366 0.85799 0.69935 0.0
H469 H 0.6697 0.81666 0.63872 0.0
H470 H 0.68744 0.83226 0.61144 0.0
C471 C 0.67569 0.83592 0.63 0.0
H472 H 0.68811 0.84639 0.64502 0.0
H473 H 0.63544 0.80855 0.68633 0.0
O474 O 0.57304 0.92249 0.62939 0.0
C475 C 0.58022 0.86605 0.69477 0.0
Co476 Co 0.09719 0.59438 0.64829 0.0
Co477 Co 0.13841 0.62913 0.67858 0.0
C478 C 0.08003 0.63447 0.68915 0.0
O479 O 0.0752 0.61688 0.67144 0.0
O480 O 0.10372 0.64165 0.69428 0.0
C481 C 0.05353 0.57596 0.61312 0.0
O482 O 0.04489 0.60027 0.61038 0.0
C483 C 0.16768 0.67567 0.69896 0.0
C484 C 0.208 0.65896 0.70105 0.0
C485 C 0.19368 0.6819 0.70527 0.0
N486 N 0.16685 0.65022 0.69119 0.0
N487 N 0.19097 0.64035 0.69271 0.0
C488 C 0.14435 0.6938 0.69856 0.0
H489 H 0.13026 0.68764 0.68257 0.0
H490 H 0.15062 0.71454 0.69514 0.0
H491 H 0.13407 0.6926 0.71833 0.0
C492 C 0.12406 0.61661 0.6005 0.0
N493 N 0.12083 0.61446 0.62737 0.0
N494 N 0.13818 0.62953 0.63979 0.0
C495 C 0.15305 0.64196 0.62097 0.0
C496 C 0.1447 0.63399 0.59547 0.0
C497 C 0.1065 0.60339 0.58023 0.0
H498 H 0.10602 0.58183 0.58417 0.0
H499 H 0.08621 0.61122 0.58257 0.0
H500 H 0.11268 0.60702 0.5591 0.0
O501 O 0.11613 0.56922 0.67129 0.0
O502 O 0.14626 0.59285 0.69275 0.0
H503 H 0.19079 0.64916 0.63873 0.0
H504 H 0.18463 0.6683 0.6087 0.0
C505 C 0.1755 0.66014 0.62728 0.0
H506 H 0.16832 0.67658 0.64014 0.0
H507 H 0.19585 0.62094 0.68762 0.0
O508 O 0.07424 0.57123 0.62675 0.0
C509 C 0.13513 0.57081 0.68794 0.0
Co510 Co 0.403 0.09411 0.64546 0.0
Co511 Co 0.36289 0.12929 0.67697 0.0
C512 C 0.36217 0.07096 0.68364 0.0
O513 O 0.38143 0.06917 0.66708 0.0
O514 O 0.35194 0.09332 0.68954 0.0
C515 C 0.42324 0.05481 0.60669 0.0
O516 O 0.39916 0.0455 0.60399 0.0
C517 C 0.31871 0.15764 0.70474 0.0
C518 C 0.32797 0.19828 0.69134 0.0
C519 C 0.31008 0.18375 0.70643 0.0
N520 N 0.34042 0.15702 0.68901 0.0
N521 N 0.34586 0.18139 0.68131 0.0
C522 C 0.30796 0.13406 0.71925 0.0
H523 H 0.324 0.11974 0.72351 0.0
H524 H 0.29305 0.12422 0.70625 0.0
H525 H 0.29847 0.13991 0.73856 0.0
C526 C 0.37894 0.12057 0.59874 0.0
N527 N 0.38158 0.11705 0.6255 0.0
N528 N 0.36317 0.13049 0.63824 0.0
C529 C 0.3474 0.14217 0.61965 0.0
C530 C 0.35694 0.1362 0.59406 0.0
C531 C 0.39767 0.1099 0.57801 0.0
H532 H 0.41802 0.10932 0.58627 0.0
H533 H 0.39159 0.08959 0.5724 0.0
H534 H 0.39756 0.12229 0.5595 0.0
O535 O 0.42608 0.11341 0.66984 0.0
O536 O 0.39833 0.13769 0.69372 0.0
H537 H 0.32665 0.1776 0.62949 0.0
H538 H 0.3082 0.15511 0.60874 0.0
C539 C 0.32224 0.15643 0.62592 0.0
H540 H 0.31289 0.14804 0.64428 0.0
H541 H 0.36186 0.18646 0.66904 0.0
O542 O 0.42744 0.07427 0.62227 0.0
C543 C 0.42175 0.12987 0.68862 0.0
C544 C 0.93538 0.50929 0.08652 0.0
C545 C 0.93712 0.53604 0.09359 0.0
C546 C 0.95831 0.49461 0.081 0.0
C547 C 0.98331 0.50698 0.08318 0.0
C548 C 0.98479 0.53466 0.08665 0.0
C549 C 0.9616 0.54892 0.0916 0.0
C550 C 0.95592 0.46532 0.07601 0.0
C551 C 0.011 0.54873 0.08889 0.0
C552 C 0.03361 0.46844 0.12328 0.0
C553 C 0.05227 0.46172 0.10362 0.0
C554 C 0.0112 0.48314 0.11667 0.0
C555 C 0.00694 0.49075 0.08946 0.0
C556 C 0.02559 0.48377 0.06932 0.0
C557 C 0.04838 0.46953 0.07675 0.0
C558 C 0.99225 0.4907 0.13902 0.0
C559 C 0.0212 0.49068 0.03999 0.0
H560 H 0.91644 0.49932 0.08726 0.0
H561 H 0.96306 0.56981 0.09621 0.0
H562 H 0.97089 0.45858 0.06115 0.0
H563 H 0.95947 0.45454 0.0952 0.0
H564 H 0.93593 0.45998 0.06853 0.0
H565 H 0.00883 0.57043 0.08634 0.0
H566 H 0.01957 0.54492 0.10917 0.0
H567 H 0.02522 0.54131 0.07363 0.0
H568 H 0.03677 0.46251 0.1441 0.0
H569 H 0.06273 0.46392 0.06153 0.0
H570 H 0.97252 0.48198 0.13509 0.0
H571 H 0.98983 0.51249 0.1397 0.0
H572 H 0.99905 0.4839 0.1592 0.0
H573 H 0.00511 0.47815 0.03176 0.0
H574 H 0.03922 0.48741 0.02761 0.0
H575 H 0.01487 0.51155 0.03775 0.0
C576 C 0.53583 0.03315 0.12102 0.0
C577 C 0.53975 0.05379 0.10267 0.0
C578 C 0.51977 0.01167 0.11454 0.0
C579 C 0.50799 0.01032 0.08861 0.0
C580 C 0.51263 0.03069 0.06952 0.0
C581 C 0.52815 0.05258 0.077 0.0
C582 C 0.51482 0.99085 0.13588 0.0
C583 C 0.50139 0.02921 0.04131 0.0
C584 C 0.48362 0.94064 0.08183 0.0
C585 C 0.45808 0.94342 0.09243 0.0
C586 C 0.49929 0.96297 0.07663 0.0
C587 C 0.48936 0.98839 0.08298 0.0
C588 C 0.46259 0.99136 0.0906 0.0
C589 C 0.44716 0.96881 0.09487 0.0
C590 C 0.52735 0.95914 0.06714 0.0
C591 C 0.45115 0.018 0.09787 0.0
H592 H 0.54471 0.03423 0.14095 0.0
H593 H 0.53156 0.06848 0.06274 0.0
H594 H 0.49331 0.98914 0.1399 0.0
H595 H 0.52183 0.97133 0.12868 0.0
H596 H 0.52496 0.99536 0.15526 0.0
H597 H 0.50619 0.04703 0.02916 0.0
H598 H 0.50945 0.01158 0.03085 0.0
H599 H 0.47963 0.02685 0.04202 0.0
H600 H 0.49198 0.92109 0.07919 0.0
H601 H 0.42722 0.97122 0.10246 0.0
H602 H 0.54083 0.95941 0.08483 0.0
H603 H 0.53342 0.97531 0.05333 0.0
H604 H 0.52985 0.93992 0.05661 0.0
H605 H 0.45874 0.02405 0.11799 0.0
H606 H 0.42923 0.01753 0.09883 0.0
H607 H 0.45722 0.03331 0.08312 0.0
C608 C 0.95252 0.45991 0.41081 0.0
C609 C 0.93207 0.47139 0.39567 0.0
C610 C 0.97697 0.47263 0.41345 0.0
C611 C 0.981 0.49706 0.40023 0.0
C612 C 0.95937 0.51021 0.388 0.0
C613 C 0.93499 0.49725 0.38606 0.0
C614 C 0.99923 0.45856 0.42775 0.0
C615 C 0.96276 0.53649 0.37398 0.0
C616 C 0.04448 0.53678 0.39995 0.0
C617 C 0.05542 0.52889 0.37514 0.0
C618 C 0.02103 0.52533 0.40957 0.0
C619 C 0.0082 0.50589 0.39378 0.0
C620 C 0.02023 0.49655 0.36975 0.0
C621 C 0.04378 0.50806 0.36084 0.0
C622 C 0.00927 0.53522 0.4357 0.0
C623 C 0.00736 0.47559 0.3524 0.0
H624 H 0.9501 0.44012 0.41884 0.0
H625 H 0.91914 0.50637 0.37465 0.0
H626 H 0.01172 0.44826 0.41262 0.0
H627 H 0.01197 0.47275 0.43878 0.0
H628 H 0.99165 0.44359 0.44223 0.0
H629 H 0.94347 0.54575 0.36894 0.0
H630 H 0.97422 0.55032 0.38678 0.0
H631 H 0.97397 0.53355 0.35492 0.0
H632 H 0.05356 0.55269 0.41129 0.0
H633 H 0.05231 0.5016 0.34186 0.0
H634 H -0.00034 0.51899 0.44712 0.0
H635 H 0.99396 0.55027 0.43117 0.0
H636 H 0.0245 0.54456 0.44875 0.0
H637 H 0.00302 0.45775 0.36462 0.0
H638 H 0.01996 0.46966 0.33504 0.0
H639 H 0.98829 0.4831 0.3444 0.0
C640 C 0.51915 0.94169 0.41852 0.0
C641 C 0.5402 0.94359 0.4002 0.0
C642 C 0.5035 0.9639 0.4245 0.0
C643 C 0.50857 0.9881 0.41109 0.0
C644 C 0.53104 0.99052 0.39426 0.0
C645 C 0.54675 0.96835 0.38935 0.0
C646 C 0.48058 0.961 0.44375 0.0
C647 C 0.53711 0.01585 0.37929 0.0
C648 C 0.45305 0.02969 0.384 0.0
C649 C 0.45692 0.05358 0.39779 0.0
C650 C 0.46864 0.00758 0.38953 0.0
C651 C 0.48814 0.00909 0.40996 0.0
C652 C 0.4905 0.03233 0.42572 0.0
C653 C 0.47515 0.05458 0.4191 0.0
C654 C 0.46565 0.98337 0.37187 0.0
C655 C 0.51015 0.03424 0.44856 0.0
H656 H 0.51435 0.92275 0.42747 0.0
H657 H 0.56323 0.97015 0.37547 0.0
H658 H 0.47797 0.97915 0.45606 0.0
H659 H 0.46212 0.95784 0.4321 0.0
H660 H 0.48333 0.94387 0.4575 0.0
H661 H 0.55632 0.01497 0.36846 0.0
H662 H 0.5213 0.0198 0.36426 0.0
H663 H 0.5376 0.03278 0.39347 0.0
H664 H 0.43885 0.02864 0.36763 0.0
H665 H 0.47785 0.07286 0.43018 0.0
H666 H 0.46289 0.96549 0.38447 0.0
H667 H 0.48389 0.98048 0.35976 0.0
H668 H 0.44865 0.98498 0.35776 0.0
H669 H 0.51221 0.01506 0.45924 0.0
H670 H 0.50427 0.04963 0.46339 0.0
H671 H 0.5298 0.03968 0.44036 0.0
C672 C 0.95201 0.53539 0.90305 0.0
C673 C 0.96433 0.56022 0.90389 0.0
C674 C 0.96655 0.51221 0.907 0.0
C675 C 0.99389 0.51401 0.91253 0.0
C676 C 0.00544 0.53901 0.9175 0.0
C677 C 0.99058 0.56197 0.91274 0.0
C678 C 0.95336 0.48594 0.90184 0.0
C679 C 0.03418 0.54153 0.92511 0.0
C680 C 0.0301 0.44822 0.91724 0.0
C681 C 0.03974 0.44592 0.89081 0.0
C682 C 0.01624 0.47099 0.92534 0.0
C683 C 0.01104 0.49109 0.90611 0.0
C684 C 0.0208 0.48863 0.87938 0.0
C685 C 0.03538 0.46629 0.87226 0.0
C686 C 0.00698 0.47316 0.95424 0.0
C687 C 0.01528 0.50924 0.85797 0.0
H688 H 0.93148 0.53384 0.897 0.0
H689 H 4e-05 0.58112 0.91424 0.0
H690 H 0.96017 0.47799 0.88212 0.0
H691 H 0.95886 0.47145 0.91766 0.0
H692 H 0.93148 0.48767 0.90125 0.0
H693 H 0.03848 0.56107 0.93435 0.0
H694 H 0.03999 0.52572 0.93949 0.0
H695 H 0.04658 0.5394 0.90674 0.0
H696 H 0.03381 0.43251 0.93165 0.0
H697 H 0.04281 0.46441 0.85178 0.0
H698 H 0.98676 0.46488 0.95592 0.0
H699 H 0.00638 0.494 0.96117 0.0
H700 H 0.01998 0.46172 0.96805 0.0
H701 H 0.99364 0.51191 0.85552 0.0
H702 H 0.02378 0.50386 0.83801 0.0
H703 H 0.02369 0.52854 0.86417 0.0
C704 C 0.43686 0.99379 0.8819 0.0
C705 C 0.43258 0.96885 0.89331 0.0
C706 C 0.46104 0.00677 0.88544 0.0
C707 C 0.48099 0.99473 0.90133 0.0
C708 C 0.4753 0.97139 0.91591 0.0
C709 C 0.45121 0.95844 0.9114 0.0
C710 C 0.46627 0.03173 0.86958 0.0
C711 C 0.49553 0.95873 0.93418 0.0
C712 C 0.54782 0.00408 0.86927 0.0
C713 C 0.55675 0.02695 0.8823 0.0
C714 C 0.52385 0.99236 0.87655 0.0
C715 C 0.50875 0.00344 0.89784 0.0
C716 C 0.51901 0.02482 0.91295 0.0
C717 C 0.54282 0.03659 0.90478 0.0
C718 C 0.5137 0.96944 0.85993 0.0
C719 C 0.50411 0.03643 0.93654 0.0
H720 H 0.42241 0.00198 0.86805 0.0
H721 H 0.44768 0.93936 0.92068 0.0
H722 H 0.47545 0.04695 0.88266 0.0
H723 H 0.48033 0.02739 0.85295 0.0
H724 H 0.44792 0.04005 0.86064 0.0
H725 H 0.4861 0.94518 0.94898 0.0
H726 H 0.50963 0.94707 0.92183 0.0
H727 H 0.50701 0.97391 0.94532 0.0
H728 H 0.55863 0.99632 0.8521 0.0
H729 H 0.54989 0.05402 0.91526 0.0
H730 H 0.49562 0.97552 0.84885 0.0
H731 H 0.50827 0.95268 0.87323 0.0
H732 H 0.52847 0.96236 0.84498 0.0
H733 H 0.48917 0.05065 0.92895 0.0
H734 H 0.51756 0.04722 0.95044 0.0
H735 H 0.49356 0.0209 0.94811 0.0
C736 C 0.94421 0.46903 0.59966 0.0
C737 C 0.95464 0.4436 0.59582 0.0
C738 C 0.9597 0.4915 0.59529 0.0
C739 C 0.98599 0.48844 0.58617 0.0
C740 C 0.99526 0.46313 0.57851 0.0
C741 C 0.97959 0.44083 0.58385 0.0
C742 C 0.94894 0.51813 0.60356 0.0
C743 C 0.02262 0.4594 0.56706 0.0
C744 C 0.02416 0.55291 0.57984 0.0
C745 C 0.03719 0.55343 0.60479 0.0
C746 C 0.00859 0.53104 0.57248 0.0
C747 C 0.00511 0.51009 0.59117 0.0
C748 C 0.01841 0.5107 0.61636 0.0
C749 C 0.03464 0.53211 0.62258 0.0
C750 C 0.99561 0.53079 0.54504 0.0
C751 C 0.01475 0.48922 0.6373 0.0
H752 H 0.92466 0.47144 0.60826 0.0
H753 H 0.9875 0.42127 0.58007 0.0
H754 H 0.95903 0.5248 0.62227 0.0
H755 H 0.95286 0.53304 0.58766 0.0
H756 H 0.92733 0.51754 0.60748 0.0
H757 H 0.02453 0.44017 0.55642 0.0
H758 H 0.02754 0.4756 0.55279 0.0
H759 H 0.0373 0.45987 0.5837 0.0
H760 H 0.02643 0.56936 0.566 0.0
H761 H 0.04465 0.53266 0.64196 0.0
H762 H 0.97594 0.54035 0.54645 0.0
H763 H 0.99282 0.51038 0.53736 0.0
H764 H 0.00748 0.54212 0.53012 0.0
H765 H 0.99352 0.48738 0.64261 0.0
H766 H 0.02605 0.49316 0.65613 0.0
H767 H 0.02129 0.46994 0.62905 0.0
C768 C 0.47179 0.04928 0.60174 0.0
C769 C 0.44622 0.04079 0.59506 0.0
C770 C 0.49376 0.0333 0.5967 0.0
C771 C 0.4901 0.00849 0.58412 0.0
C772 C 0.46493 0.00156 0.57386 0.0
C773 C 0.44306 0.01765 0.57983 0.0
C774 C 0.52031 0.04165 0.60773 0.0
C775 C 0.46072 0.97607 0.55869 0.0
C776 C 0.55452 0.97048 0.57852 0.0
C777 C 0.5537 0.95575 0.6025 0.0
C778 C 0.53288 0.98619 0.57074 0.0
C779 C 0.5106 0.98791 0.588 0.0
C780 C 0.5094 0.97222 0.61166 0.0
C781 C 0.53077 0.95607 0.61834 0.0
C782 C 0.5345 0.00162 0.54471 0.0
C783 C 0.4863 0.97373 0.63102 0.0
H784 H 0.47456 0.06756 0.6128 0.0
H785 H 0.42345 0.01136 0.57385 0.0
H786 H 0.52566 0.02884 0.62511 0.0
H787 H 0.53585 0.03929 0.59215 0.0
H788 H 0.52032 0.06252 0.61469 0.0
H789 H 0.44229 0.97664 0.54652 0.0
H790 H 0.47769 0.97191 0.54513 0.0
H791 H 0.45916 0.9595 0.57328 0.0
H792 H 0.57208 0.96991 0.56599 0.0
H793 H 0.53 0.94468 0.63688 0.0
H794 H 0.54424 0.02087 0.5486 0.0
H795 H 0.51465 0.00549 0.53602 0.0
H796 H 0.5466 0.99091 0.52951 0.0
H797 H 0.48447 0.99411 0.63909 0.0
H798 H 0.48841 0.95993 0.64835 0.0
H799 H 0.46763 0.96899 0.62035 0.0
C800 C 0.2326 0.31697 0.23207 0.0
C801 C 0.21674 0.30361 0.21329 0.0
C802 C 0.2541 0.30418 0.24444 0.0
C803 C 0.25935 0.2774 0.23816 0.0
C804 C 0.24465 0.26463 0.21762 0.0
C805 C 0.22355 0.27793 0.20545 0.0
C806 C 0.26976 0.31865 0.26573 0.0
C807 C 0.24958 0.2361 0.21017 0.0
C808 C 0.31598 0.23426 0.26175 0.0
C809 C 0.30342 0.21975 0.28218 0.0
C810 C 0.30277 0.25511 0.24868 0.0
C811 C 0.27637 0.26106 0.256 0.0
C812 C 0.26452 0.24781 0.27808 0.0
C813 C 0.27822 0.22737 0.29089 0.0
C814 C 0.3163 0.26926 0.22571 0.0
C815 C 0.23644 0.25353 0.28668 0.0
H816 H 0.22726 0.33671 0.2385 0.0
H817 H 0.21149 0.26769 0.19068 0.0
H818 H 0.26241 0.31301 0.28604 0.0
H819 H 0.291 0.31331 0.26469 0.0
H820 H 0.26775 0.34041 0.26358 0.0
H821 H 0.23829 0.23002 0.19195 0.0
H822 H 0.27089 0.23268 0.20635 0.0
H823 H 0.24364 0.22318 0.22725 0.0
H824 H 0.33534 0.2283 0.25471 0.0
H825 H 0.26862 0.21638 0.30693 0.0
H826 H 0.31117 0.29058 0.22562 0.0
H827 H 0.30963 0.26072 0.20623 0.0
H828 H 0.33813 0.26717 0.2269 0.0
H829 H 0.23347 0.27505 0.28951 0.0
H830 H 0.2311 0.24329 0.30578 0.0
H831 H 0.22262 0.24693 0.27063 0.0
C832 C 0.79658 0.28225 0.25201 0.0
C833 C 0.79371 0.29773 0.27528 0.0
C834 C 0.77573 0.26681 0.24233 0.0
C835 C 0.75134 0.2668 0.25633 0.0
C836 C 0.74771 0.28373 0.2788 0.0
C837 C 0.76908 0.29893 0.28818 0.0
C838 C 0.78048 0.24908 0.21825 0.0
C839 C 0.72189 0.28449 0.29401 0.0
C840 C 0.69863 0.22878 0.21838 0.0
C841 C 0.70224 0.20343 0.22914 0.0
C842 C 0.71293 0.25039 0.22858 0.0
C843 C 0.73148 0.24626 0.24959 0.0
C844 C 0.7339 0.22097 0.26155 0.0
C845 C 0.71928 0.19987 0.25112 0.0
C846 C 0.70956 0.27714 0.21559 0.0
C847 C 0.75346 0.21565 0.28398 0.0
H848 H 0.81555 0.28148 0.24186 0.0
H849 H 0.76683 0.31045 0.30645 0.0
H850 H 0.78041 0.22813 0.22487 0.0
H851 H 0.76445 0.25147 0.20317 0.0
H852 H 0.79968 0.25322 0.20822 0.0
H853 H 0.72053 0.30205 0.3074 0.0
H854 H 0.70492 0.28464 0.27982 0.0
H855 H 0.72012 0.26651 0.30671 0.0
H856 H 0.68588 0.23147 0.201 0.0
H857 H 0.72199 0.18024 0.25947 0.0
H858 H 0.72646 0.28099 0.20187 0.0
H859 H 0.70939 0.29298 0.23108 0.0
H860 H 0.69104 0.27831 0.20359 0.0
H861 H 0.77387 0.21728 0.27595 0.0
H862 H 0.75097 0.19565 0.29287 0.0
H863 H 0.75133 0.23051 0.3003 0.0
C864 C 0.71906 0.76851 0.29585 0.0
C865 C 0.69586 0.77895 0.28474 0.0
C866 C 0.73323 0.74868 0.28254 0.0
C867 C 0.724 0.73911 0.25737 0.0
C868 C 0.69937 0.74795 0.24717 0.0
C869 C 0.68558 0.76796 0.26096 0.0
C870 C 0.75929 0.73974 0.2943 0.0
C871 C 0.68866 0.73788 0.22067 0.0
C872 C 0.78212 0.72418 0.2124 0.0
C873 C 0.78562 0.69706 0.2167 0.0
C874 C 0.76077 0.73771 0.22381 0.0
C875 C 0.74245 0.72377 0.24006 0.0
C876 C 0.74472 0.696 0.24279 0.0
C877 C 0.76645 0.68292 0.23114 0.0
C878 C 0.75909 0.76731 0.22021 0.0
C879 C 0.72536 0.68041 0.25959 0.0
H880 H 0.72687 0.77683 0.3144 0.0
H881 H 0.66779 0.77617 0.25213 0.0
H882 H 0.76069 0.71788 0.29416 0.0
H883 H 0.77573 0.74748 0.28173 0.0
H884 H 0.76213 0.7468 0.31536 0.0
H885 H 0.66719 0.742 0.21859 0.0
H886 H 0.69913 0.74777 0.20377 0.0
H887 H 0.69199 0.7163 0.21863 0.0
H888 H 0.79678 0.73509 0.20097 0.0
H889 H 0.76921 0.66201 0.23483 0.0
H890 H 0.76347 0.7772 0.23972 0.0
H891 H 0.73886 0.7732 0.21408 0.0
H892 H 0.77327 0.7747 0.20482 0.0
H893 H 0.73008 0.68305 0.28131 0.0
H894 H 0.72626 0.65897 0.25487 0.0
H895 H 0.70487 0.68752 0.25634 0.0
C896 C 0.23248 0.70041 0.28595 0.0
C897 C 0.20742 0.70236 0.27408 0.0
C898 C 0.25371 0.71556 0.27621 0.0
C899 C 0.24946 0.73333 0.25453 0.0
C900 C 0.22448 0.73433 0.24171 0.0
C901 C 0.20377 0.71885 0.25169 0.0
C902 C 0.28014 0.71377 0.2902 0.0
C903 C 0.21904 0.75308 0.2186 0.0
C904 C 0.28329 0.7995 0.25055 0.0
C905 C 0.29935 0.79638 0.22772 0.0
C906 C 0.26835 0.77848 0.26067 0.0
C907 C 0.26951 0.75364 0.24761 0.0
C908 C 0.2871 0.74981 0.2257 0.0
C909 C 0.30174 0.77135 0.21583 0.0
C910 C 0.24985 0.78348 0.28409 0.0
C911 C 0.28913 0.72349 0.21155 0.0
H912 H 0.23518 0.68816 0.3037 0.0
H913 H 0.18436 0.72033 0.24251 0.0
H914 H 0.29646 0.7136 0.27523 0.0
H915 H 0.28292 0.73134 0.30328 0.0
H916 H 0.28165 0.69581 0.30302 0.0
H917 H 0.19932 0.74973 0.20936 0.0
H918 H 0.21988 0.77375 0.22603 0.0
H919 H 0.23431 0.75095 0.20268 0.0
H920 H 0.28159 0.81879 0.25993 0.0
H921 H 0.31372 0.76887 0.1979 0.0
H922 H 0.25227 0.76802 0.29977 0.0
H923 H 0.22909 0.78259 0.27689 0.0
H924 H 0.25318 0.8031 0.29355 0.0
H925 H 0.28968 0.70709 0.22642 0.0
H926 H 0.30699 0.72232 0.19854 0.0
H927 H 0.27146 0.72054 0.19863 0.0
C928 C 0.73005 0.78033 0.70758 0.0
C929 C 0.72042 0.80419 0.71795 0.0
C930 C 0.75075 0.7669 0.7203 0.0
C931 C 0.76199 0.77755 0.74413 0.0
C932 C 0.75393 0.80279 0.75334 0.0
C933 C 0.73304 0.81584 0.74016 0.0
C934 C 0.75882 0.74013 0.70961 0.0
C935 C 0.76578 0.81502 0.77835 0.0
C936 C 0.77874 0.72165 0.79116 0.0
C937 C 0.80539 0.71726 0.7851 0.0
C938 C 0.76494 0.74279 0.77971 0.0
C939 C 0.77814 0.75995 0.76159 0.0
C940 C 0.80564 0.75698 0.75719 0.0
C941 C 0.81901 0.73549 0.76895 0.0
C942 C 0.73567 0.74529 0.7852 0.0
C943 C 0.82049 0.77516 0.73842 0.0
H944 H 0.72046 0.77147 0.6902 0.0
H945 H 0.72547 0.83417 0.7484 0.0
H946 H 0.78064 0.73858 0.70838 0.0
H947 H 0.75182 0.72452 0.72365 0.0
H948 H 0.75042 0.73613 0.68927 0.0
H949 H 0.76216 0.83665 0.77913 0.0
H950 H 0.75672 0.80593 0.79652 0.0
H951 H 0.78738 0.81136 0.7793 0.0
H952 H 0.76829 0.70773 0.80394 0.0
H953 H 0.83957 0.73204 0.76401 0.0
H954 H 0.72445 0.73998 0.7667 0.0
H955 H 0.73052 0.76595 0.79046 0.0
H956 H 0.72908 0.73218 0.80189 0.0
H957 H 0.81674 0.76917 0.7172 0.0
H958 H 0.84213 0.77431 0.74208 0.0
H959 H 0.81369 0.79588 0.74074 0.0
C960 C 0.19313 0.72147 0.73571 0.0
C961 C 0.20519 0.70692 0.71502 0.0
C962 C 0.20674 0.74219 0.74854 0.0
C963 C 0.2329 0.7482 0.74044 0.0
C964 C 0.2442 0.73488 0.71809 0.0
C965 C 0.23024 0.71431 0.70577 0.0
C966 C 0.19392 0.75614 0.77207 0.0
C967 C 0.27193 0.74082 0.70857 0.0
C968 C 0.27505 0.80562 0.76411 0.0
C969 C 0.29172 0.79278 0.78253 0.0
C970 C 0.25419 0.79194 0.7516 0.0
C971 C 0.25022 0.76488 0.75764 0.0
C972 C 0.26587 0.75249 0.77769 0.0
C973 C 0.28648 0.76657 0.78978 0.0
C974 C 0.23775 0.8059 0.73055 0.0
C975 C 0.26219 0.72372 0.78494 0.0
H976 H 0.17386 0.71559 0.74312 0.0
H977 H 0.23945 0.70318 0.68958 0.0
H978 H 0.20202 0.74814 0.79124 0.0
H979 H 0.19826 0.77761 0.77159 0.0
H980 H 0.17216 0.75328 0.77221 0.0
H981 H 0.27658 0.73093 0.68909 0.0
H982 H 0.27476 0.7624 0.70606 0.0
H983 H 0.28633 0.73393 0.72396 0.0
H984 H 0.27925 0.82579 0.75817 0.0
H985 H 0.29923 0.75671 0.80424 0.0
H986 H 0.21664 0.80027 0.7323 0.0
H987 H 0.24458 0.79998 0.71013 0.0
H988 H 0.23946 0.82772 0.73226 0.0
H989 H 0.24109 0.71948 0.78914 0.0
H990 H 0.27405 0.71791 0.80288 0.0
H991 H 0.26829 0.71118 0.76763 0.0
C992 C 0.28966 0.2216 0.73037 0.0
C993 C 0.28752 0.19548 0.72127 0.0
C994 C 0.26844 0.23438 0.74284 0.0
C995 C 0.2444 0.22061 0.74668 0.0
C996 C 0.24207 0.1941 0.73789 0.0
C997 C 0.2636 0.18192 0.72491 0.0
C998 C 0.27179 0.26276 0.75175 0.0
C999 C 0.21679 0.17879 0.74186 0.0
C1000 C 0.20648 0.25586 0.80104 0.0
C1001 C 0.19126 0.27331 0.78559 0.0
C1002 C 0.22163 0.23613 0.78863 0.0
C1003 C 0.22212 0.2345 0.76009 0.0
C1004 C 0.2049 0.25058 0.74458 0.0
C1005 C 0.18949 0.26981 0.75761 0.0
C1006 C 0.23915 0.21892 0.80594 0.0
C1007 C 0.20495 0.24961 0.7141 0.0
H1008 H 0.30805 0.23225 0.72761 0.0
H1009 H 0.26139 0.16209 0.71706 0.0
H1010 H 0.25653 0.27537 0.7421 0.0
H1011 H 0.2691 0.26429 0.77394 0.0
H1012 H 0.29157 0.27081 0.74654 0.0
H1013 H 0.21904 0.15763 0.73636 0.0
H1014 H 0.21021 0.18012 0.76321 0.0
H1015 H 0.20093 0.18748 0.72919 0.0
H1016 H 0.20767 0.2586 0.82274 0.0
H1017 H 0.17787 0.28354 0.7457 0.0
H1018 H 0.25972 0.22646 0.8051 0.0
H1019 H 0.23934 0.1983 0.79835 0.0
H1020 H 0.23268 0.21886 0.8274 0.0
H1021 H 0.22287 0.25976 0.70642 0.0
H1022 H 0.18731 0.25955 0.7054 0.0
H1023 H 0.20557 0.22892 0.70677 0.0
C1024 C 0.76863 0.28454 0.71106 0.0
C1025 C 0.79434 0.29086 0.71916 0.0
C1026 C 0.75475 0.26387 0.7233 0.0
C1027 C 0.76679 0.2494 0.74446 0.0
C1028 C 0.79347 0.25447 0.75143 0.0
C1029 C 0.80701 0.27525 0.73863 0.0
C1030 C 0.72645 0.25894 0.71496 0.0
C1031 C 0.80702 0.23935 0.77375 0.0
C1032 C 0.71475 0.22958 0.7949 0.0
C1033 C 0.70881 0.20385 0.78656 0.0
C1034 C 0.73526 0.24385 0.78284 0.0
C1035 C 0.74997 0.23218 0.76162 0.0
C1036 C 0.7453 0.20552 0.75441 0.0
C1037 C 0.72465 0.1916 0.76699 0.0
C1038 C 0.73974 0.27215 0.79138 0.0
C1039 C 0.76066 0.19235 0.73202 0.0
H1040 H 0.75894 0.29651 0.6958 0.0
H1041 H 0.82683 0.28031 0.74511 0.0
H1042 H 0.72303 0.23756 0.7116 0.0
H1043 H 0.71298 0.26542 0.73137 0.0
H1044 H 0.72109 0.26979 0.69622 0.0
H1045 H 0.82882 0.24185 0.77304 0.0
H1046 H 0.79987 0.24665 0.79358 0.0
H1047 H 0.80228 0.21799 0.77255 0.0
H1048 H 0.70261 0.23896 0.81021 0.0
H1049 H 0.71987 0.17182 0.76023 0.0
H1050 H 0.73294 0.28563 0.7751 0.0
H1051 H 0.76109 0.27593 0.79465 0.0
H1052 H 0.72889 0.27717 0.81021 0.0
H1053 H 0.75323 0.19948 0.71223 0.0
H1054 H 0.75855 0.17052 0.73262 0.0
H1055 H 0.78194 0.19746 0.73325 0.0
C1056 C 0.14412 0.32554 0.06093 0.0
C1057 C 0.14482 0.35181 0.06968 0.0
C1058 C 0.14693 0.31947 0.03333 0.0
C1059 C 0.15002 0.34027 0.01443 0.0
C1060 C 0.15327 0.36653 0.02372 0.0
C1061 C 0.15079 0.37191 0.0513 0.0
C1062 C 0.14434 0.29114 0.0243 0.0
C1063 C 0.15662 0.38939 0.00437 0.0
C1064 C 0.1606 0.3377 0.93882 0.0
C1065 C 0.13495 0.34329 0.92986 0.0
C1066 C 0.1657 0.33378 0.96647 0.0
C1067 C 0.14468 0.33597 0.98525 0.0
C1068 C 0.11845 0.3391 0.9758 0.0
C1069 C 0.11393 0.34248 0.94816 0.0
C1070 C 0.19378 0.32952 0.97567 0.0
C1071 C 0.09537 0.34154 0.99503 0.0
H1072 H 0.13966 0.31 0.0753 0.0
H1073 H 0.15177 0.39218 0.05833 0.0
H1074 H 0.12372 0.2874 0.01773 0.0
H1075 H 0.15752 0.28695 0.00689 0.0
H1076 H 0.14905 0.2772 0.04096 0.0
H1077 H 0.16134 0.40813 0.01499 0.0
H1078 H 0.17258 0.38518 0.98965 0.0
H1079 H 0.13807 0.39228 0.99276 0.0
H1080 H 0.17684 0.33811 0.92454 0.0
H1081 H 0.09401 0.34611 0.94099 0.0
H1082 H 0.19459 0.31595 0.99327 0.0
H1083 H 0.20241 0.34869 0.98198 0.0
H1084 H 0.20621 0.32134 0.95916 0.0
H1085 H 0.09549 0.32511 0.00984 0.0
H1086 H 0.07608 0.3415 0.98432 0.0
H1087 H 0.09706 0.36029 0.00655 0.0
C1088 C 0.67256 0.15394 0.94066 0.0
C1089 C 0.64635 0.14902 0.93304 0.0
C1090 C 0.6791 0.15821 0.96796 0.0
C1091 C 0.65909 0.15636 0.9879 0.0
C1092 C 0.63236 0.15346 0.97987 0.0
C1093 C 0.62634 0.1505 0.95247 0.0
C1094 C 0.70761 0.1629 0.97537 0.0
C1095 C 0.61028 0.15093 0.00029 0.0
C1096 C 0.66787 0.12174 0.05436 0.0
C1097 C 0.65977 0.14159 0.07218 0.0
C1098 C 0.67037 0.12687 0.02669 0.0
C1099 C 0.66578 0.15279 0.01694 0.0
C1100 C 0.66178 0.17367 0.03556 0.0
C1101 C 0.65824 0.16774 0.06309 0.0
C1102 C 0.67467 0.10391 0.00769 0.0
C1103 C 0.65882 0.20185 0.02617 0.0
H1104 H 0.6881 0.153 0.92562 0.0
H1105 H 0.60599 0.14737 0.94638 0.0
H1106 H 0.7095 0.17414 0.99453 0.0
H1107 H 0.71777 0.14363 0.97787 0.0
H1108 H 0.71797 0.17385 0.95906 0.0
H1109 H 0.59057 0.14917 0.99057 0.0
H1110 H 0.61355 0.13316 0.01302 0.0
H1111 H 0.60998 0.16832 0.01388 0.0
H1112 H 0.66959 0.10162 0.0617 0.0
H1113 H 0.6524 0.1832 0.07702 0.0
H1114 H 0.69095 0.10831 0.99343 0.0
H1115 H 0.65651 0.10057 0.99556 0.0
H1116 H 0.67948 0.08535 0.01862 0.0
H1117 H 0.67181 0.20591 0.00858 0.0
H1118 H 0.66362 0.21598 0.04264 0.0
H1119 H 0.63811 0.20542 0.01985 0.0
C1120 C 0.84397 0.6772 0.93934 0.0
C1121 C 0.84595 0.65087 0.9309 0.0
C1122 C 0.83891 0.68327 0.96661 0.0
C1123 C 0.83692 0.66247 0.98569 0.0
C1124 C 0.83609 0.63595 0.97652 0.0
C1125 C 0.84003 0.63058 0.94909 0.0
C1126 C 0.83795 0.71182 0.97518 0.0
C1127 C 0.83419 0.61299 0.99596 0.0
C1128 C 0.87285 0.66353 0.052 0.0
C1129 C 0.85216 0.65819 0.0699 0.0
C1130 C 0.86796 0.66755 0.02449 0.0
C1131 C 0.84155 0.66737 0.01496 0.0
C1132 C 0.82045 0.6661 0.03375 0.0
C1133 C 0.826 0.66096 0.06112 0.0
C1134 C 0.89122 0.66872 0.00536 0.0
C1135 C 0.79205 0.66782 0.02474 0.0
H1136 H 0.84814 0.69298 0.92514 0.0
H1137 H 0.84093 0.61024 0.94226 0.0
H1138 H 0.82566 0.71453 0.99356 0.0
H1139 H 0.85823 0.71882 0.9797 0.0
H1140 H 0.82993 0.72441 0.95871 0.0
H1141 H 0.83255 0.59371 0.98536 0.0
H1142 H 0.85204 0.61248 0.00898 0.0
H1143 H 0.81679 0.61531 0.00933 0.0
H1144 H 0.89307 0.66195 0.0591 0.0
H1145 H 0.80994 0.65724 0.07511 0.0
H1146 H 0.88953 0.68609 0.99186 0.0
H1147 H 0.89143 0.65078 0.99245 0.0
H1148 H 0.9104 0.66991 0.01622 0.0
H1149 H 0.78995 0.68037 0.00646 0.0
H1150 H 0.77939 0.67595 0.04109 0.0
H1151 H 0.78466 0.64777 0.01984 0.0
C1152 C 0.36891 0.83986 0.94975 0.0
C1153 C 0.34875 0.84349 0.9308 0.0
C1154 C 0.36311 0.83641 0.97714 0.0
C1155 C 0.33636 0.83549 0.98558 0.0
C1156 C 0.31598 0.83539 0.96592 0.0
C1157 C 0.3224 0.83991 0.93863 0.0
C1158 C 0.38564 0.83685 0.9972 0.0
C1159 C 0.28733 0.83268 0.97377 0.0
C1160 C 0.3373 0.82615 0.06114 0.0
C1161 C 0.33832 0.8526 0.06935 0.0
C1162 C 0.33283 0.81974 0.03385 0.0
C1163 C 0.3304 0.84034 0.0146 0.0
C1164 C 0.32826 0.86684 0.02357 0.0
C1165 C 0.33175 0.87254 0.05099 0.0
C1166 C 0.33322 0.79114 0.02537 0.0
C1167 C 0.32564 0.88956 0.00393 0.0
H1168 H 0.38932 0.84202 0.94342 0.0
H1169 H 0.30677 0.84236 0.92386 0.0
H1170 H 0.38459 0.85521 0.00941 0.0
H1171 H 0.38419 0.8199 0.01128 0.0
H1172 H 0.40526 0.83613 0.98715 0.0
H1173 H 0.2759 0.82294 0.9574 0.0
H1174 H 0.28497 0.82114 0.99269 0.0
H1175 H 0.2787 0.85258 0.97697 0.0
H1176 H 0.34197 0.81066 0.07551 0.0
H1177 H 0.332 0.89295 0.05765 0.0
H1178 H 0.35367 0.78533 0.01993 0.0
H1179 H 0.32041 0.78779 0.00748 0.0
H1180 H 0.32657 0.77811 0.04211 0.0
H1181 H 0.34382 0.89098 0.99145 0.0
H1182 H 0.32263 0.90876 0.01436 0.0
H1183 H 0.3088 0.88621 0.99005 0.0
C1184 C 0.12502 0.65412 0.4473 0.0
C1185 C 0.14591 0.6517 0.42896 0.0
C1186 C 0.12981 0.65692 0.47498 0.0
C1187 C 0.15621 0.6585 0.48438 0.0
C1188 C 0.17722 0.65968 0.46548 0.0
C1189 C 0.17186 0.65573 0.43786 0.0
C1190 C 0.1067 0.65527 0.49426 0.0
C1191 C 0.20549 0.66298 0.47448 0.0
C1192 C 0.15455 0.66797 0.5601 0.0
C1193 C 0.15499 0.64159 0.56862 0.0
C1194 C 0.15827 0.67437 0.53269 0.0
C1195 C 0.16142 0.65378 0.51357 0.0
C1196 C 0.16441 0.62739 0.52267 0.0
C1197 C 0.16172 0.62175 0.55022 0.0
C1198 C 0.15667 0.70289 0.52406 0.0
C1199 C 0.16755 0.60468 0.50311 0.0
H1200 H 0.10492 0.65151 0.4402 0.0
H1201 H 0.18806 0.65404 0.42363 0.0
H1202 H 0.10817 0.63686 0.50638 0.0
H1203 H 0.10699 0.67212 0.50854 0.0
H1204 H 0.08739 0.65526 0.48357 0.0
H1205 H 0.21767 0.67205 0.45827 0.0
H1206 H 0.20683 0.6754 0.49292 0.0
H1207 H 0.21405 0.64334 0.4792 0.0
H1208 H 0.14968 0.6834 0.57446 0.0
H1209 H 0.16261 0.60142 0.55709 0.0
H1210 H 0.13607 0.70768 0.51818 0.0
H1211 H 0.16961 0.70677 0.50638 0.0
H1212 H 0.1624 0.71633 0.54081 0.0
H1213 H 0.14941 0.60279 0.49064 0.0
H1214 H 0.17103 0.58558 0.51359 0.0
H1215 H 0.18428 0.60839 0.48918 0.0
C1216 C 0.32645 0.15566 0.43718 0.0
C1217 C 0.35276 0.15493 0.42849 0.0
C1218 C 0.32048 0.15894 0.46474 0.0
C1219 C 0.34139 0.16085 0.48369 0.0
C1220 C 0.36778 0.16301 0.4744 0.0
C1221 C 0.37307 0.16029 0.44683 0.0
C1222 C 0.29203 0.15792 0.4737 0.0
C1223 C 0.39079 0.16509 0.49376 0.0
C1224 C 0.34109 0.1688 0.5596 0.0
C1225 C 0.34558 0.14258 0.56737 0.0
C1226 C 0.33644 0.17511 0.53232 0.0
C1227 C 0.33695 0.15473 0.5127 0.0
C1228 C 0.33868 0.12802 0.52109 0.0
C1229 C 0.34263 0.12232 0.54842 0.0
C1230 C 0.33328 0.20369 0.52435 0.0
C1231 C 0.33931 0.10555 0.50099 0.0
H1232 H 0.31073 0.15177 0.42284 0.0
H1233 H 0.39338 0.16023 0.43983 0.0
H1234 H 0.28677 0.1373 0.47905 0.0
H1235 H 0.28872 0.17043 0.49181 0.0
H1236 H 0.27855 0.16449 0.4573 0.0
H1237 H 0.40976 0.16889 0.48315 0.0
H1238 H 0.38742 0.18118 0.50854 0.0
H1239 H 0.39273 0.14636 0.50529 0.0
H1240 H 0.34298 0.18446 0.57441 0.0
H1241 H 0.34533 0.10198 0.55473 0.0
H1242 H 0.32011 0.20579 0.50655 0.0
H1243 H 0.35286 0.21198 0.51894 0.0
H1244 H 0.32518 0.21557 0.54132 0.0
H1245 H 0.32248 0.10704 0.48675 0.0
H1246 H 0.33854 0.08592 0.51101 0.0
H1247 H 0.35778 0.10665 0.48894 0.0
C1248 C 0.82084 0.34156 0.43918 0.0
C1249 C 0.8472 0.34551 0.43158 0.0
C1250 C 0.81426 0.33705 0.46644 0.0
C1251 C 0.83447 0.3375 0.48628 0.0
C1252 C 0.86127 0.33872 0.47806 0.0
C1253 C 0.86725 0.34214 0.4507 0.0
C1254 C 0.78559 0.33398 0.47407 0.0
C1255 C 0.88362 0.33949 0.49832 0.0
C1256 C 0.82855 0.37446 0.55172 0.0
C1257 C 0.83511 0.3546 0.57018 0.0
C1258 C 0.82558 0.36874 0.52422 0.0
C1259 C 0.8282 0.34227 0.51526 0.0
C1260 C 0.83073 0.3217 0.53452 0.0
C1261 C 0.83472 0.32816 0.56188 0.0
C1262 C 0.82294 0.39143 0.50456 0.0
C1263 C 0.83166 0.29312 0.52605 0.0
H1264 H 0.80531 0.34376 0.42426 0.0
H1265 H 0.88768 0.34455 0.44455 0.0
H1266 H 0.78326 0.3222 0.49284 0.0
H1267 H 0.77676 0.35375 0.47748 0.0
H1268 H 0.77433 0.32432 0.45753 0.0
H1269 H 0.90334 0.33921 0.48845 0.0
H1270 H 0.88211 0.35774 0.51066 0.0
H1271 H 0.88238 0.32242 0.51227 0.0
H1272 H 0.82836 0.39487 0.55841 0.0
H1273 H 0.83946 0.31271 0.57627 0.0
H1274 H 0.80635 0.38787 0.49042 0.0
H1275 H 0.84128 0.39311 0.49236 0.0
H1276 H 0.81952 0.41058 0.51495 0.0
H1277 H 0.8193 0.28959 0.50787 0.0
H1278 H 0.82481 0.28001 0.54264 0.0
H1279 H 0.8523 0.28756 0.5211 0.0
C1280 C 0.6677 0.83746 0.44099 0.0
C1281 C 0.64142 0.83972 0.43245 0.0
C1282 C 0.67364 0.83371 0.4685 0.0
C1283 C 0.65278 0.83292 0.48759 0.0
C1284 C 0.62625 0.83235 0.47847 0.0
C1285 C 0.62096 0.83545 0.45092 0.0
C1286 C 0.70216 0.83303 0.47728 0.0
C1287 C 0.60331 0.83155 0.49799 0.0
C1288 C 0.654 0.82443 0.56357 0.0
C1289 C 0.65152 0.85082 0.57164 0.0
C1290 C 0.65749 0.81803 0.53612 0.0
C1291 C 0.65782 0.83854 0.51662 0.0
C1292 C 0.65791 0.86524 0.52521 0.0
C1293 C 0.6551 0.87099 0.55268 0.0
C1294 C 0.65864 0.78937 0.52792 0.0
C1295 C 0.65815 0.88786 0.50526 0.0
H1296 H 0.68354 0.84049 0.42658 0.0
H1297 H 0.60064 0.83661 0.44406 0.0
H1298 H 0.70852 0.8532 0.48312 0.0
H1299 H 0.70488 0.81993 0.49505 0.0
H1300 H 0.7152 0.82615 0.46065 0.0
H1301 H 0.58408 0.82889 0.48751 0.0
H1302 H 0.60585 0.81524 0.5127 0.0
H1303 H 0.60255 0.85032 0.50958 0.0
H1304 H 0.6515 0.80882 0.57836 0.0
H1305 H 0.65382 0.89141 0.55917 0.0
H1306 H 0.67131 0.78655 0.50984 0.0
H1307 H 0.63847 0.7824 0.52285 0.0
H1308 H 0.66629 0.77686 0.54463 0.0
H1309 H 0.67468 0.88559 0.49076 0.0
H1310 H 0.66008 0.90736 0.51537 0.0
H1311 H 0.63948 0.8878 0.49347 0.0
C1312 C 0.17406 0.55727 0.27087 0.0
C1313 C 0.15984 0.55238 0.29471 0.0
C1314 C 0.17896 0.5368 0.25226 0.0
C1315 C 0.16881 0.51121 0.2574 0.0
C1316 C 0.15704 0.50568 0.28271 0.0
C1317 C 0.15304 0.52624 0.30116 0.0
C1318 C 0.19303 0.54308 0.22618 0.0
C1319 C 0.14597 0.47869 0.28921 0.0
C1320 C 0.13531 0.47271 0.20191 0.0
C1321 C 0.15089 0.44982 0.20055 0.0
C1322 C 0.14191 0.49356 0.21918 0.0
C1323 C 0.1652 0.49195 0.23497 0.0
C1324 C 0.18234 0.47002 0.23185 0.0
C1325 C 0.17473 0.44891 0.21502 0.0
C1326 C 0.12273 0.5163 0.2221 0.0
C1327 C 0.20796 0.46803 0.24728 0.0
H1328 H 0.17992 0.57728 0.26589 0.0
H1329 H 0.14267 0.52205 0.31984 0.0
H1330 H 0.20583 0.52636 0.21987 0.0
H1331 H 0.17828 0.54643 0.20996 0.0
H1332 H 0.2053 0.56118 0.22807 0.0
H1333 H 0.13937 0.4771 0.31057 0.0
H1334 H 0.12879 0.47459 0.27591 0.0
H1335 H 0.16095 0.46318 0.28538 0.0
H1336 H 0.11691 0.47372 0.19074 0.0
H1337 H 0.1871 0.43146 0.21378 0.0
H1338 H 0.133 0.53538 0.21888 0.0
H1339 H 0.11451 0.51651 0.2429 0.0
H1340 H 0.10604 0.51502 0.20758 0.0
H1341 H 0.21674 0.48779 0.25093 0.0
H1342 H 0.22252 0.45561 0.23627 0.0
H1343 H 0.20424 0.4586 0.26715 0.0
C1344 C 0.55862 0.16422 0.22455 0.0
C1345 C 0.55561 0.14587 0.2035 0.0
C1346 C 0.53751 0.16998 0.24214 0.0
C1347 C 0.5131 0.15666 0.23889 0.0
C1348 C 0.50943 0.13967 0.21649 0.0
C1349 C 0.53059 0.13473 0.19897 0.0
C1350 C 0.54189 0.18902 0.26515 0.0
C1351 C 0.48383 0.12487 0.21227 0.0
C1352 C 0.47317 0.13393 0.29902 0.0
C1353 C 0.44971 0.14847 0.29604 0.0
C1354 C 0.49459 0.13763 0.28152 0.0
C1355 C 0.49289 0.15683 0.26079 0.0
C1356 C 0.47025 0.17324 0.25914 0.0
C1357 C 0.44874 0.16866 0.2766 0.0
C1358 C 0.51819 0.11948 0.28396 0.0
C1359 C 0.46806 0.19457 0.23798 0.0
H1360 H 0.57772 0.17326 0.22804 0.0
H1361 H 0.52782 0.12079 0.18258 0.0
H1362 H 0.5242 0.2016 0.26835 0.0
H1363 H 0.5454 0.17779 0.28406 0.0
H1364 H 0.55928 0.20193 0.26149 0.0
H1365 H 0.48346 0.11403 0.19275 0.0
H1366 H 0.48106 0.11039 0.22888 0.0
H1367 H 0.46682 0.13865 0.21278 0.0
H1368 H 0.47435 0.11845 0.31411 0.0
H1369 H 0.43087 0.18026 0.27432 0.0
H1370 H 0.53674 0.13109 0.28474 0.0
H1371 H 0.51927 0.10651 0.2659 0.0
H1372 H 0.5172 0.10678 0.30224 0.0
H1373 H 0.48719 0.205 0.2354 0.0
H1374 H 0.45256 0.20925 0.2432 0.0
H1375 H 0.46283 0.18554 0.21827 0.0
C1376 C 0.86457 0.4701 0.29572 0.0
C1377 C 0.85067 0.44612 0.29477 0.0
C1378 C 0.85985 0.49017 0.27686 0.0
C1379 C 0.84019 0.48661 0.25685 0.0
C1380 C 0.8247 0.46328 0.25694 0.0
C1381 C 0.8304 0.44308 0.27566 0.0
C1382 C 0.87721 0.51447 0.27735 0.0
C1383 C 0.8029 0.45912 0.23659 0.0
C1384 C 0.829 0.55099 0.21934 0.0
C1385 C 0.8469 0.54822 0.19784 0.0
C1386 C 0.8244 0.52999 0.23741 0.0
C1387 C 0.83851 0.506 0.23424 0.0
C1388 C 0.85483 0.50243 0.21131 0.0
C1389 C 0.85855 0.52343 0.19326 0.0
C1390 C 0.80594 0.53417 0.26096 0.0
C1391 C 0.87046 0.47732 0.20715 0.0
H1392 H 0.88026 0.47277 0.31038 0.0
H1393 H 0.81937 0.42474 0.27495 0.0
H1394 H 0.88909 0.51541 0.25852 0.0
H1395 H 0.86491 0.53259 0.27818 0.0
H1396 H 0.89094 0.51463 0.29487 0.0
H1397 H 0.78896 0.44344 0.24317 0.0
H1398 H 0.79168 0.47767 0.23319 0.0
H1399 H 0.81159 0.45307 0.21697 0.0
H1400 H 0.81953 0.5699 0.22285 0.0
H1401 H 0.87214 0.52084 0.17654 0.0
H1402 H 0.81762 0.53841 0.27942 0.0
H1403 H 0.79409 0.51613 0.26488 0.0
H1404 H 0.79233 0.55104 0.25739 0.0
H1405 H 0.88588 0.47573 0.22303 0.0
H1406 H 0.88029 0.47672 0.18709 0.0
H1407 H 0.85748 0.45979 0.20902 0.0
C1408 C 0.52729 0.86797 0.29733 0.0
C1409 C 0.55077 0.85343 0.29447 0.0
C1410 C 0.50636 0.8651 0.27904 0.0
C1411 C 0.50861 0.84683 0.25751 0.0
C1412 C 0.53141 0.83067 0.25559 0.0
C1413 C 0.55236 0.83432 0.27397 0.0
C1414 C 0.48256 0.88295 0.28178 0.0
C1415 C 0.53423 0.81045 0.23339 0.0
C1416 C 0.44351 0.83797 0.22024 0.0
C1417 C 0.44608 0.85672 0.19948 0.0
C1418 C 0.46453 0.83286 0.23814 0.0
C1419 C 0.48842 0.84723 0.23555 0.0
C1420 C 0.49163 0.86494 0.21366 0.0
C1421 C 0.47057 0.86926 0.1958 0.0
C1422 C 0.46061 0.81322 0.26073 0.0
C1423 C 0.51662 0.88091 0.21022 0.0
H1424 H 0.52564 0.88266 0.31317 0.0
H1425 H 0.57028 0.82279 0.2717 0.0
H1426 H 0.4816 0.89654 0.26421 0.0
H1427 H 0.46412 0.87113 0.28182 0.0
H1428 H 0.48316 0.89498 0.30054 0.0
H1429 H 0.55059 0.79636 0.23749 0.0
H1430 H 0.5156 0.79917 0.2308 0.0
H1431 H 0.53839 0.82062 0.21399 0.0
H1432 H 0.42481 0.82793 0.2231 0.0
H1433 H 0.47293 0.88366 0.17976 0.0
H1434 H 0.45737 0.82395 0.27999 0.0
H1435 H 0.47845 0.80072 0.26329 0.0
H1436 H 0.44327 0.80025 0.25704 0.0
H1437 H 0.51854 0.89508 0.22723 0.0
H1438 H 0.51681 0.89223 0.19098 0.0
H1439 H 0.5342 0.86784 0.21069 0.0
C1440 C 0.88105 0.53304 0.80059 0.0
C1441 C 0.86689 0.55666 0.79715 0.0
C1442 C 0.87719 0.51147 0.78327 0.0
C1443 C 0.85845 0.51335 0.76211 0.0
C1444 C 0.84297 0.53652 0.75947 0.0
C1445 C 0.84749 0.558 0.77691 0.0
C1446 C 0.89429 0.48722 0.78671 0.0
C1447 C 0.82246 0.53907 0.73748 0.0
C1448 C 0.87596 0.47202 0.70089 0.0
C1449 C 0.86134 0.44885 0.70538 0.0
C1450 C 0.87428 0.49355 0.71859 0.0
C1451 C 0.8573 0.49215 0.74127 0.0
C1452 C 0.84131 0.46949 0.74511 0.0
C1453 C 0.84363 0.44801 0.72721 0.0
C1454 C 0.89182 0.51725 0.71379 0.0
C1455 C 0.82262 0.46747 0.76878 0.0
H1456 H 0.89601 0.53168 0.8162 0.0
H1457 H 0.83627 0.57606 0.77422 0.0
H1458 H 0.88186 0.4692 0.78765 0.0
H1459 H 0.90756 0.48514 0.76899 0.0
H1460 H 0.90662 0.48815 0.80526 0.0
H1461 H 0.80964 0.55666 0.74042 0.0
H1462 H 0.83241 0.54086 0.71759 0.0
H1463 H 0.80984 0.52117 0.73674 0.0
H1464 H 0.88961 0.47302 0.68404 0.0
H1465 H 0.8321 0.43031 0.73077 0.0
H1466 H 0.90647 0.51888 0.7304 0.0
H1467 H 0.87993 0.53566 0.71382 0.0
H1468 H 0.90267 0.51597 0.69431 0.0
H1469 H 0.83412 0.46523 0.78773 0.0
H1470 H 0.80904 0.45032 0.76689 0.0
H1471 H 0.81069 0.48577 0.77068 0.0
C1472 C 0.53248 0.86813 0.70707 0.0
C1473 C 0.55788 0.85832 0.71261 0.0
C1474 C 0.5117 0.86494 0.72543 0.0
C1475 C 0.51613 0.85116 0.74989 0.0
C1476 C 0.54116 0.83954 0.75483 0.0
C1477 C 0.56186 0.84342 0.73619 0.0
C1478 C 0.4854 0.87781 0.71931 0.0
C1479 C 0.54644 0.82412 0.78035 0.0
C1480 C 0.47195 0.87668 0.80573 0.0
C1481 C 0.4501 0.85972 0.80373 0.0
C1482 C 0.49437 0.87306 0.7895 0.0
C1483 C 0.49525 0.85165 0.77111 0.0
C1484 C 0.47419 0.83323 0.77055 0.0
C1485 C 0.45171 0.83763 0.78666 0.0
C1486 C 0.5162 0.89338 0.7906 0.0
C1487 C 0.47471 0.80973 0.7518 0.0
H1488 H 0.52899 0.87941 0.6888 0.0
H1489 H 0.58132 0.83558 0.74059 0.0
H1490 H 0.4692 0.86315 0.72096 0.0
H1491 H 0.48143 0.89362 0.73431 0.0
H1492 H 0.48479 0.88666 0.69877 0.0
H1493 H 0.56501 0.8125 0.77899 0.0
H1494 H 0.54816 0.83795 0.79764 0.0
H1495 H 0.52982 0.81049 0.78478 0.0
H1496 H 0.47103 0.89374 0.81893 0.0
H1497 H 0.43508 0.82421 0.78523 0.0
H1498 H 0.51647 0.9048 0.77144 0.0
H1499 H 0.5357 0.88361 0.79266 0.0
H1500 H 0.51366 0.90746 0.80764 0.0
H1501 H 0.47075 0.81637 0.73083 0.0
H1502 H 0.45958 0.79479 0.75737 0.0
H1503 H 0.49447 0.80021 0.75196 0.0
C1504 C 0.14467 0.46426 0.80068 0.0
C1505 C 0.149 0.43822 0.79195 0.0
C1506 C 0.14854 0.48574 0.78332 0.0
C1507 C 0.15738 0.48119 0.75661 0.0
C1508 C 0.16474 0.45529 0.74868 0.0
C1509 C 0.16031 0.43398 0.76644 0.0
C1510 C 0.14041 0.51295 0.79276 0.0
C1511 C 0.17517 0.44977 0.7207 0.0
C1512 C 0.12412 0.52633 0.7061 0.0
C1513 C 0.14257 0.54682 0.70336 0.0
C1514 C 0.12926 0.5044 0.7225 0.0
C1515 C 0.15382 0.50243 0.73607 0.0
C1516 C 0.17321 0.52226 0.73218 0.0
C1517 C 0.16719 0.54452 0.71621 0.0
C1518 C 0.10773 0.48405 0.72643 0.0
C1519 C 0.19994 0.52045 0.74554 0.0
H1520 H 0.13648 0.46779 0.82061 0.0
H1521 H 0.16401 0.41397 0.75962 0.0
H1522 H 0.15569 0.52776 0.78753 0.0
H1523 H 0.12187 0.51882 0.78238 0.0
H1524 H 0.13695 0.51366 0.81492 0.0
H1525 H 0.18545 0.43039 0.7197 0.0
H1526 H 0.15848 0.4494 0.70617 0.0
H1527 H 0.18901 0.46552 0.71415 0.0
H1528 H 0.10502 0.52795 0.69632 0.0
H1529 H 0.18165 0.56015 0.71393 0.0
H1530 H 0.10148 0.48379 0.74793 0.0
H1531 H 0.11523 0.46406 0.72144 0.0
H1532 H 0.09009 0.48808 0.71371 0.0
H1533 H 0.19812 0.5258 0.76719 0.0
H1534 H 0.21447 0.53403 0.73604 0.0
H1535 H 0.20773 0.49997 0.74452 0.0
C1536 C 0.44036 0.15162 0.73037 0.0
C1537 C 0.44426 0.13747 0.70629 0.0
C1538 C 0.46114 0.15499 0.74901 0.0
C1539 C 0.48619 0.14365 0.74355 0.0
C1540 C 0.49059 0.13078 0.71858 0.0
C1541 C 0.46969 0.12805 0.70024 0.0
C1542 C 0.45587 0.16942 0.77513 0.0
C1543 C 0.51691 0.11827 0.7119 0.0
C1544 C 0.54991 0.15638 0.78213 0.0
C1545 C 0.55125 0.13388 0.79868 0.0
C1546 C 0.52788 0.16094 0.7654 0.0
C1547 C 0.50701 0.14231 0.76482 0.0
C1548 C 0.50772 0.12028 0.78244 0.0
C1549 C 0.52967 0.11648 0.79927 0.0
C1550 C 0.52755 0.18502 0.74742 0.0
C1551 C 0.48606 0.09974 0.78232 0.0
H1552 H 0.42087 0.15915 0.73518 0.0
H1553 H 0.47311 0.11737 0.68158 0.0
H1554 H 0.45437 0.15495 0.79189 0.0
H1555 H 0.4724 0.18302 0.77998 0.0
H1556 H 0.43719 0.18093 0.77431 0.0
H1557 H 0.51762 0.11052 0.6909 0.0
H1558 H 0.53312 0.13278 0.71448 0.0
H1559 H 0.52077 0.10167 0.72602 0.0
H1560 H 0.56633 0.17011 0.78175 0.0
H1561 H 0.5304 0.09908 0.81203 0.0
H1562 H 0.50785 0.19464 0.74788 0.0
H1563 H 0.53146 0.17902 0.72623 0.0
H1564 H 0.54275 0.1997 0.75348 0.0
H1565 H 0.46647 0.10926 0.78473 0.0
H1566 H 0.48858 0.08487 0.79863 0.0
H1567 H 0.486 0.08929 0.7626 0.0
C1568 C 0.66709 0.0592 0.77079 0.0
C1569 C 0.65355 0.05433 0.79504 0.0
C1570 C 0.672 0.03858 0.75232 0.0
C1571 C 0.66259 0.0128 0.75804 0.0
C1572 C 0.65114 0.00745 0.78353 0.0
C1573 C 0.64715 0.02816 0.80181 0.0
C1574 C 0.68552 0.04479 0.72591 0.0
C1575 C 0.64066 0.98035 0.79059 0.0
C1576 C 0.63165 0.97098 0.70336 0.0
C1577 C 0.64853 0.94898 0.70263 0.0
C1578 C 0.6369 0.99257 0.72019 0.0
C1579 C 0.66008 0.99266 0.73621 0.0
C1580 C 0.67837 0.97157 0.73389 0.0
C1581 C 0.67216 0.9497 0.71746 0.0
C1582 C 0.61652 0.01431 0.72231 0.0
C1583 C 0.70384 0.97139 0.74972 0.0
H1584 H 0.67257 0.07925 0.76553 0.0
H1585 H 0.63736 0.02398 0.8208 0.0
H1586 H 0.69894 0.02847 0.71989 0.0
H1587 H 0.67046 0.04707 0.70979 0.0
H1588 H 0.69704 0.06343 0.72715 0.0
H1589 H 0.63402 0.97903 0.81195 0.0
H1590 H 0.62363 0.97558 0.77732 0.0
H1591 H 0.656 0.9651 0.78712 0.0
H1592 H 0.61337 0.97073 0.69195 0.0
H1593 H 0.68551 0.93295 0.71675 0.0
H1594 H 0.62583 0.03385 0.71892 0.0
H1595 H 0.60794 0.01445 0.74296 0.0
H1596 H 0.60017 0.01188 0.70753 0.0
H1597 H 0.7122 0.99158 0.75148 0.0
H1598 H 0.71878 0.95827 0.74019 0.0
H1599 H 0.70001 0.96394 0.77043 0.0
C1600 C 0.97815 0.63795 0.80552 0.0
C1601 C 0.95389 0.65075 0.80105 0.0
C1602 C 0.99941 0.64107 0.78768 0.0
C1603 C 0.99674 0.65796 0.76504 0.0
C1604 C 0.97332 0.67303 0.76191 0.0
C1605 C 0.952 0.66902 0.77977 0.0
C1606 C 0.02384 0.62437 0.79178 0.0
C1607 C 0.97009 0.69208 0.73871 0.0
C1608 C 0.06091 0.66417 0.72527 0.0
C1609 C 0.05762 0.64416 0.70592 0.0
C1610 C 0.04042 0.67054 0.74346 0.0
C1611 C 0.01646 0.65605 0.74271 0.0
C1612 C 0.01261 0.63686 0.72229 0.0
C1613 C 0.03302 0.63144 0.70402 0.0
C1614 C 0.04495 0.69185 0.76425 0.0
C1615 C 0.98758 0.62062 0.72084 0.0
H1616 H 0.98008 0.62404 0.82206 0.0
H1617 H 0.93353 0.67933 0.77632 0.0
H1618 H 0.02514 0.60938 0.77545 0.0
H1619 H 0.04188 0.63672 0.79063 0.0
H1620 H 0.02373 0.61392 0.81153 0.0
H1621 H 0.95385 0.70639 0.74248 0.0
H1622 H 0.98868 0.70315 0.73505 0.0
H1623 H 0.96538 0.68094 0.72002 0.0
H1624 H 0.07969 0.67436 0.72673 0.0
H1625 H 0.03007 0.61606 0.68909 0.0
H1626 H 0.05009 0.68265 0.7839 0.0
H1627 H 0.0268 0.7038 0.7673 0.0
H1628 H 0.06138 0.70519 0.75832 0.0
H1629 H 0.98578 0.6083 0.73932 0.0
H1630 H 0.9872 0.60736 0.70296 0.0
H1631 H 0.97003 0.63369 0.72 0.0
C1632 C 0.33221 0.04695 0.71614 0.0
C1633 C 0.35389 0.04677 0.69844 0.0
C1634 C 0.32702 0.02524 0.73313 0.0
C1635 C 0.34428 0.00319 0.73287 0.0
C1636 C 0.36514 0.00226 0.71382 0.0
C1637 C 0.36947 0.02386 0.69669 0.0
C1638 C 0.304 0.02659 0.75245 0.0
C1639 C 0.38429 0.97935 0.71299 0.0
C1640 C 0.36205 0.96735 0.79733 0.0
C1641 C 0.35178 0.94197 0.7927 0.0
C1642 C 0.35839 0.98783 0.7787 0.0
C1643 C 0.34354 0.98316 0.75495 0.0
C1644 C 0.33122 0.95828 0.75116 0.0
C1645 C 0.33571 0.93783 0.76996 0.0
C1646 C 0.37216 0.01391 0.78356 0.0
C1647 C 0.31449 0.9528 0.72657 0.0
H1648 H 0.31982 0.06438 0.71741 0.0
H1649 H 0.38617 0.02332 0.68298 0.0
H1650 H 0.29381 0.00722 0.75371 0.0
H1651 H 0.31129 0.03153 0.77297 0.0
H1652 H 0.28946 0.04192 0.74632 0.0
H1653 H 0.39815 0.98068 0.69563 0.0
H1654 H 0.39604 0.97898 0.73193 0.0
H1655 H 0.37348 0.96036 0.71165 0.0
H1656 H 0.37427 0.971 0.81491 0.0
H1657 H 0.32742 0.91842 0.7663 0.0
H1658 H 0.35794 0.03049 0.78182 0.0
H1659 H 0.38763 0.01692 0.76796 0.0
H1660 H 0.38165 0.01487 0.80378 0.0
H1661 H 0.30167 0.96997 0.7218 0.0
H1662 H 0.30189 0.93505 0.72939 0.0
H1663 H 0.32749 0.94935 0.70887 0.0
C1664 C 0.94053 0.33509 0.72084 0.0
C1665 C 0.9432 0.35078 0.6976 0.0
C1666 C 0.96221 0.33054 0.73806 0.0
C1667 C 0.98696 0.34226 0.73205 0.0
C1668 C 0.99025 0.3561 0.70743 0.0
C1669 C 0.96843 0.35998 0.69044 0.0
C1670 C 0.9581 0.31494 0.76369 0.0
C1671 C 0.0162 0.36903 0.70017 0.0
C1672 C 0.0286 0.37024 0.78873 0.0
C1673 C 0.05083 0.35363 0.78852 0.0
C1674 C 0.00731 0.36601 0.7712 0.0
C1675 C 0.00786 0.34429 0.75319 0.0
C1676 C 0.02949 0.32651 0.75388 0.0
C1677 C 0.0509 0.33154 0.77135 0.0
C1678 C 0.98484 0.3857 0.77101 0.0
C1679 C 0.03049 0.30276 0.7355 0.0
H1680 H 0.92124 0.32756 0.72642 0.0
H1681 H 0.97092 0.37176 0.67232 0.0
H1682 H 0.97527 0.30188 0.76773 0.0
H1683 H 0.95623 0.32873 0.78101 0.0
H1684 H 0.93991 0.3027 0.76272 0.0
H1685 H 0.0164 0.37641 0.67902 0.0
H1686 H 0.01977 0.38599 0.71391 0.0
H1687 H 0.03281 0.35499 0.70281 0.0
H1688 H 0.02818 0.38732 0.80192 0.0
H1689 H 0.06786 0.31846 0.77118 0.0
H1690 H 0.96571 0.37543 0.77393 0.0
H1691 H 0.98403 0.39581 0.75112 0.0
H1692 H 0.98693 0.40095 0.78702 0.0
H1693 H 0.0111 0.29254 0.7351 0.0
H1694 H 0.04595 0.28845 0.74184 0.0
H1695 H 0.03492 0.30924 0.71457 0.0
C1696 C 0.3754 0.97487 0.19469 0.0
C1697 C 0.3597 0.95218 0.19734 0.0
C1698 C 0.37169 0.99678 0.21156 0.0
C1699 C 0.35146 0.99622 0.23131 0.0
C1700 C 0.33418 0.97427 0.23266 0.0
C1701 C 0.33867 0.95235 0.21583 0.0
C1702 C 0.39075 0.01967 0.20958 0.0
C1703 C 0.31192 0.97326 0.25293 0.0
C1704 C 0.37022 0.03344 0.29459 0.0
C1705 C 0.35893 0.05838 0.28998 0.0
C1706 C 0.36677 0.01268 0.27627 0.0
C1707 C 0.35122 0.0167 0.25287 0.0
C1708 C 0.33811 0.04115 0.24903 0.0
C1709 C 0.34229 0.06184 0.26755 0.0
C1710 C 0.38127 0.987 0.28113 0.0
C1711 C 0.32078 0.04591 0.2247 0.0
H1712 H 0.39161 0.97505 0.18036 0.0
H1713 H 0.32619 0.93505 0.21776 0.0
H1714 H 0.37986 0.03864 0.20846 0.0
H1715 H 0.40326 0.02029 0.22799 0.0
H1716 H 0.40387 0.01811 0.19165 0.0
H1717 H 0.29745 0.95747 0.24805 0.0
H1718 H 0.32008 0.96932 0.27334 0.0
H1719 H 0.30141 0.99249 0.25379 0.0
H1720 H 0.38288 0.03036 0.31198 0.0
H1721 H 0.33327 0.08095 0.26393 0.0
H1722 H 0.39635 0.98406 0.26512 0.0
H1723 H 0.36738 0.9701 0.28009 0.0
H1724 H 0.39136 0.98656 0.30107 0.0
H1725 H 0.33335 0.04862 0.20654 0.0
H1726 H 0.3083 0.0638 0.22717 0.0
H1727 H 0.30779 0.02864 0.22092 0.0
C1728 C 0.03092 0.37563 0.20869 0.0
C1729 C 0.05581 0.3641 0.21302 0.0
C1730 C 0.01035 0.37256 0.22732 0.0
C1731 C 0.0145 0.35723 0.25085 0.0
C1732 C 0.03902 0.34423 0.25469 0.0
C1733 C 0.0595 0.34794 0.23577 0.0
C1734 C 0.98457 0.38688 0.22241 0.0
C1735 C 0.04397 0.32729 0.27926 0.0
C1736 C 0.97098 0.38043 0.30827 0.0
C1737 C 0.94872 0.36417 0.30518 0.0
C1738 C 0.99335 0.3772 0.29189 0.0
C1739 C 0.99371 0.35695 0.27216 0.0
C1740 C 0.97222 0.33912 0.27042 0.0
C1741 C 0.94985 0.34307 0.2868 0.0
C1742 C 0.01573 0.39681 0.29432 0.0
C1743 C 0.9721 0.3169 0.2501 0.0
H1744 H 0.02767 0.38797 0.1911 0.0
H1745 H 0.07858 0.33881 0.23924 0.0
H1746 H 0.96781 0.37281 0.22319 0.0
H1747 H 0.98135 0.40178 0.23854 0.0
H1748 H 0.98417 0.39713 0.20256 0.0
H1749 H 0.06236 0.31544 0.27728 0.0
H1750 H 0.04581 0.34007 0.29737 0.0
H1751 H 0.02712 0.31371 0.28279 0.0
H1752 H 0.97043 0.3967 0.32251 0.0
H1753 H 0.93291 0.33017 0.28449 0.0
H1754 H 0.01614 0.40958 0.27609 0.0
H1755 H 0.03498 0.38641 0.29541 0.0
H1756 H 0.01368 0.40965 0.31241 0.0
H1757 H 0.96852 0.32505 0.22961 0.0
H1758 H 0.95645 0.30213 0.25453 0.0
H1759 H 0.99153 0.30674 0.2497 0.0
C1760 C 0.63462 0.96629 0.30473 0.0
C1761 C 0.64405 0.941 0.29813 0.0
C1762 C 0.6381 0.9877 0.28719 0.0
C1763 C 0.6518 0.98394 0.26258 0.0
C1764 C 0.6636 0.95914 0.25696 0.0
C1765 C 0.65942 0.93784 0.27474 0.0
C1766 C 0.62506 0.01373 0.294 0.0
C1767 C 0.67906 0.95461 0.23132 0.0
C1768 C 0.6239 0.0259 0.20619 0.0
C1769 C 0.64044 0.04813 0.20686 0.0
C1770 C 0.62823 0.00434 0.22335 0.0
C1771 C 0.64998 0.00467 0.24133 0.0
C1772 C 0.66777 0.02627 0.24093 0.0
C1773 C 0.66261 0.04794 0.2239 0.0
C1774 C 0.60852 0.9819 0.22332 0.0
C1775 C 0.69159 0.027 0.25925 0.0
H1776 H 0.62309 0.96914 0.32296 0.0
H1777 H 0.66706 0.91847 0.26959 0.0
H1778 H 0.63921 0.03026 0.29156 0.0
H1779 H 0.6084 0.01729 0.27986 0.0
H1780 H 0.61724 0.01412 0.31497 0.0
H1781 H 0.69131 0.93643 0.23251 0.0
H1782 H 0.66518 0.95249 0.2141 0.0
H1783 H 0.6921 0.97171 0.22692 0.0
H1784 H 0.60674 0.02578 0.19307 0.0
H1785 H 0.67568 0.0649 0.2243 0.0
H1786 H 0.59815 0.9812 0.24307 0.0
H1787 H 0.61881 0.96274 0.22063 0.0
H1788 H 0.5935 0.98399 0.20709 0.0
H1789 H 0.68518 0.03128 0.28024 0.0
H1790 H 0.70593 0.04245 0.25301 0.0
H1791 H 0.70174 0.00757 0.25944 0.0
C1792 C 0.94393 0.64661 0.22609 0.0
C1793 C 0.94493 0.62982 0.20353 0.0
C1794 C 0.96577 0.64918 0.24349 0.0
C1795 C 0.98905 0.6345 0.23829 0.0
C1796 C 0.99055 0.61845 0.21492 0.0
C1797 C 0.96857 0.6164 0.19781 0.0
C1798 C 0.96353 0.66672 0.26805 0.0
C1799 C 0.01496 0.60239 0.20863 0.0
C1800 C 0.05497 0.64789 0.27271 0.0
C1801 C 0.05548 0.62798 0.29246 0.0
C1802 C 0.03294 0.65112 0.25567 0.0
C1803 C 0.01104 0.63389 0.25831 0.0
C1804 C 0.01105 0.61444 0.27886 0.0
C1805 C 0.03317 0.6118 0.29571 0.0
C1806 C 0.03352 0.6723 0.23421 0.0
C1807 C 0.98818 0.59556 0.28231 0.0
H1808 H 0.92584 0.65718 0.23064 0.0
H1809 H 0.96969 0.60349 0.18038 0.0
H1810 H 0.96303 0.65436 0.28655 0.0
H1811 H 0.98103 0.67983 0.26963 0.0
H1812 H 0.94542 0.67911 0.26757 0.0
H1813 H 0.01362 0.59227 0.18876 0.0
H1814 H 0.03272 0.61522 0.20861 0.0
H1815 H 0.01789 0.58721 0.22454 0.0
H1816 H 0.07201 0.6606 0.27012 0.0
H1817 H 0.03324 0.5964 0.31094 0.0
H1818 H 0.01501 0.68405 0.23472 0.0
H1819 H 0.03479 0.66299 0.21396 0.0
H1820 H 0.05059 0.68587 0.23668 0.0
H1821 H 0.96938 0.60666 0.2843 0.0
H1822 H 0.99054 0.58264 0.30031 0.0
H1823 H 0.98646 0.58285 0.26413 0.0
loop_
_geom_bond_atom_site_label_1
_geom_bond_atom_site_label_2
_geom_bond_distance
_geom_bond_site_symmetry_2
_ccdc_geom_bond_type
Co0 O3 1.970 . S
Co0 N17 1.989 . S
Co0 O25 1.967 . S
Co0 O32 1.920 . S
Co1 O4 1.966 . S
Co1 N10 2.022 . S
Co1 N18 1.993 . S
Co1 O26 1.941 . S
C2 O3 1.258 . S
C2 O4 1.263 . S
O3 Co0 1.970 . S
O3 C2 1.258 . S
O4 Co1 1.966 . S
O4 C2 1.263 . S
C5 O6 1.235 . S
C5 O32 1.289 . S
O6 C5 1.235 . S
C7 C9 1.400 . S
C7 N10 1.351 . S
C7 C12 1.501 . S
C8 C9 1.387 . S
C8 N11 1.341 . S
C9 C7 1.400 . S
C9 C8 1.387 . S
N10 Co1 2.022 . S
N10 C7 1.351 . S
N10 N11 1.365 . S
N11 C8 1.341 . S
N11 N10 1.365 . S
N11 H31 0.862 . S
C12 C7 1.501 . S
C12 H13 0.961 . S
C12 H14 0.961 . S
C12 H15 0.960 . S
H13 C12 0.961 . S
H14 C12 0.961 . S
H15 C12 0.960 . S
C16 N17 1.342 . S
C16 C20 1.401 . S
C16 C21 1.499 . S
N17 Co0 1.989 . S
N17 C16 1.342 . S
N17 N18 1.388 . S
N18 Co1 1.993 . S
N18 N17 1.388 . S
N18 C19 1.346 . S
C19 N18 1.346 . S
C19 C20 1.396 . S
C19 C29 1.510 . S
C20 C16 1.401 . S
C20 C19 1.396 . S
C21 C16 1.499 . S
C21 H22 0.959 . S
C21 H23 0.960 . S
C21 H24 0.961 . S
H22 C21 0.959 . S
H23 C21 0.960 . S
H24 C21 0.961 . S
O25 Co0 1.967 . S
O25 C33 1.258 . S
O26 Co1 1.941 . S
O26 C33 1.266 . S
H27 C29 0.959 . S
H28 C29 0.961 . S
C29 C19 1.510 . S
C29 H27 0.959 . S
C29 H28 0.961 . S
C29 H30 0.960 . S
H30 C29 0.960 . S
H31 N11 0.862 . S
O32 Co0 1.920 . S
O32 C5 1.289 . S
C33 O25 1.258 . S
C33 O26 1.266 . S
Co34 O37 1.970 . S
Co34 N51 1.989 . S
Co34 O59 1.967 . S
Co34 O66 1.920 . S
Co35 O38 1.966 . S
Co35 N44 2.022 . S
Co35 N52 1.993 . S
Co35 O60 1.941 . S
C36 O37 1.258 . S
C36 O38 1.263 . S
O37 Co34 1.970 . S
O37 C36 1.258 . S
O38 Co35 1.966 . S
O38 C36 1.263 . S
C39 O40 1.235 . S
C39 O66 1.289 . S
O40 C39 1.235 . S
C41 C43 1.400 . S
C41 N44 1.351 . S
C41 C46 1.501 . S
C42 C43 1.387 . S
C42 N45 1.341 . S
C43 C41 1.400 . S
C43 C42 1.387 . S
N44 Co35 2.022 . S
N44 C41 1.351 . S
N44 N45 1.365 . S
N45 C42 1.341 . S
N45 N44 1.365 . S
N45 H65 0.862 . S
C46 C41 1.501 . S
C46 H47 0.961 . S
C46 H48 0.961 . S
C46 H49 0.960 . S
H47 C46 0.961 . S
H48 C46 0.961 . S
H49 C46 0.960 . S
C50 N51 1.342 . S
C50 C54 1.401 . S
C50 C55 1.499 . S
N51 Co34 1.989 . S
N51 C50 1.342 . S
N51 N52 1.388 . S
N52 Co35 1.993 . S
N52 N51 1.388 . S
N52 C53 1.346 . S
C53 N52 1.346 . S
C53 C54 1.396 . S
C53 C63 1.510 . S
C54 C50 1.401 . S
C54 C53 1.396 . S
C55 C50 1.499 . S
C55 H56 0.959 . S
C55 H57 0.960 . S
C55 H58 0.961 . S
H56 C55 0.959 . S
H57 C55 0.960 . S
H58 C55 0.961 . S
O59 Co34 1.967 . S
O59 C67 1.258 . S
O60 Co35 1.941 . S
O60 C67 1.266 . S
H61 C63 0.959 . S
H62 C63 0.961 . S
C63 C53 1.510 . S
C63 H61 0.959 . S
C63 H62 0.961 . S
C63 H64 0.960 . S
H64 C63 0.960 . S
H65 N45 0.862 . S
O66 Co34 1.920 . S
O66 C39 1.289 . S
C67 O59 1.258 . S
C67 O60 1.266 . S
Co68 O71 1.970 . S
Co68 N85 1.989 . S
Co68 O93 1.967 . S
Co68 O100 1.920 . S
Co69 O72 1.966 . S
Co69 N78 2.022 . S
Co69 N86 1.993 . S
Co69 O94 1.941 . S
C70 O71 1.258 . S
C70 O72 1.263 . S
O71 Co68 1.970 . S
O71 C70 1.258 . S
O72 Co69 1.966 . S
O72 C70 1.263 . S
C73 O74 1.235 . S
C73 O100 1.289 . S
O74 C73 1.235 . S
C75 C77 1.400 . S
C75 N78 1.351 . S
C75 C80 1.501 . S
C76 C77 1.387 . S
C76 N79 1.341 . S
C77 C75 1.400 . S
C77 C76 1.387 . S
N78 Co69 2.022 . S
N78 C75 1.351 . S
N78 N79 1.365 . S
N79 C76 1.341 . S
N79 N78 1.365 . S
N79 H99 0.862 . S
C80 C75 1.501 . S
C80 H81 0.961 . S
C80 H82 0.961 . S
C80 H83 0.960 . S
H81 C80 0.961 . S
H82 C80 0.961 . S
H83 C80 0.960 . S
C84 N85 1.342 . S
C84 C88 1.401 . S
C84 C89 1.499 . S
N85 Co68 1.989 . S
N85 C84 1.342 . S
N85 N86 1.388 . S
N86 Co69 1.993 . S
N86 N85 1.388 . S
N86 C87 1.346 . S
C87 N86 1.346 . S
C87 C88 1.396 . S
C87 C97 1.510 . S
C88 C84 1.401 . S
C88 C87 1.396 . S
C89 C84 1.499 . S
C89 H90 0.959 . S
C89 H91 0.960 . S
C89 H92 0.961 . S
H90 C89 0.959 . S
H91 C89 0.960 . S
H92 C89 0.961 . S
O93 Co68 1.967 . S
O93 C101 1.258 . S
O94 Co69 1.941 . S
O94 C101 1.266 . S
H95 C97 0.959 . S
H96 C97 0.961 . S
C97 C87 1.510 . S
C97 H95 0.959 . S
C97 H96 0.961 . S
C97 H98 0.960 . S
H98 C97 0.960 . S
H99 N79 0.862 . S
O100 Co68 1.920 . S
O100 C73 1.289 . S
C101 O93 1.258 . S
C101 O94 1.266 . S
Co102 O105 1.970 . S
Co102 N119 1.989 . S
Co102 O127 1.967 . S
Co102 O134 1.920 . S
Co103 O106 1.966 . S
Co103 N112 2.022 . S
Co103 N120 1.993 . S
Co103 O128 1.941 . S
C104 O105 1.258 . S
C104 O106 1.263 . S
O105 Co102 1.970 . S
O105 C104 1.258 . S
O106 Co103 1.966 . S
O106 C104 1.263 . S
C107 O108 1.235 . S
C107 O134 1.289 . S
O108 C107 1.235 . S
C109 C111 1.400 . S
C109 N112 1.351 . S
C109 C114 1.501 . S
C110 C111 1.387 . S
C110 N113 1.341 . S
C111 C109 1.400 . S
C111 C110 1.387 . S
N112 Co103 2.022 . S
N112 C109 1.351 . S
N112 N113 1.365 . S
N113 C110 1.341 . S
N113 N112 1.365 . S
N113 H133 0.862 . S
C114 C109 1.501 . S
C114 H115 0.961 . S
C114 H116 0.961 . S
C114 H117 0.960 . S
H115 C114 0.961 . S
H116 C114 0.961 . S
H117 C114 0.960 . S
C118 N119 1.342 . S
C118 C122 1.401 . S
C118 C123 1.499 . S
N119 Co102 1.989 . S
N119 C118 1.342 . S
N119 N120 1.388 . S
N120 Co103 1.993 . S
N120 N119 1.388 . S
N120 C121 1.346 . S
C121 N120 1.346 . S
C121 C122 1.396 . S
C121 C131 1.510 . S
C122 C118 1.401 . S
C122 C121 1.396 . S
C123 C118 1.499 . S
C123 H124 0.959 . S
C123 H125 0.960 . S
C123 H126 0.961 . S
H124 C123 0.959 . S
H125 C123 0.960 . S
H126 C123 0.961 . S
O127 Co102 1.967 . S
O127 C135 1.258 . S
O128 Co103 1.941 . S
O128 C135 1.266 . S
H129 C131 0.959 . S
H130 C131 0.961 . S
C131 C121 1.510 . S
C131 H129 0.959 . S
C131 H130 0.961 . S
C131 H132 0.960 . S
H132 C131 0.960 . S
H133 N113 0.862 . S
O134 Co102 1.920 . S
O134 C107 1.289 . S
C135 O127 1.258 . S
C135 O128 1.266 . S
Co136 O139 1.970 . S
Co136 N153 1.989 . S
Co136 O161 1.967 . S
Co136 O168 1.920 . S
Co137 O140 1.966 . S
Co137 N146 2.022 . S
Co137 N154 1.993 . S
Co137 O162 1.941 . S
C138 O139 1.258 . S
C138 O140 1.263 . S
O139 Co136 1.970 . S
O139 C138 1.258 . S
O140 Co137 1.966 . S
O140 C138 1.263 . S
C141 O142 1.235 . S
C141 O168 1.289 . S
O142 C141 1.235 . S
C143 C145 1.400 . S
C143 N146 1.351 . S
C143 C148 1.501 . S
C144 C145 1.387 . S
C144 N147 1.341 . S
C145 C143 1.400 . S
C145 C144 1.387 . S
N146 Co137 2.022 . S
N146 C143 1.351 . S
N146 N147 1.365 . S
N147 C144 1.341 . S
N147 N146 1.365 . S
N147 H167 0.862 . S
C148 C143 1.501 . S
C148 H149 0.961 . S
C148 H150 0.961 . S
C148 H151 0.960 . S
H149 C148 0.961 . S
H150 C148 0.961 . S
H151 C148 0.960 . S
C152 N153 1.342 . S
C152 C156 1.401 . S
C152 C157 1.499 . S
N153 Co136 1.989 . S
N153 C152 1.342 . S
N153 N154 1.388 . S
N154 Co137 1.993 . S
N154 N153 1.388 . S
N154 C155 1.346 . S
C155 N154 1.346 . S
C155 C156 1.396 . S
C155 C165 1.510 . S
C156 C152 1.401 . S
C156 C155 1.396 . S
C157 C152 1.499 . S
C157 H158 0.959 . S
C157 H159 0.960 . S
C157 H160 0.961 . S
H158 C157 0.959 . S
H159 C157 0.960 . S
H160 C157 0.961 . S
O161 Co136 1.967 . S
O161 C169 1.258 . S
O162 Co137 1.941 . S
O162 C169 1.266 . S
H163 C165 0.959 . S
H164 C165 0.961 . S
C165 C155 1.510 . S
C165 H163 0.959 . S
C165 H164 0.961 . S
C165 H166 0.960 . S
H166 C165 0.960 . S
H167 N147 0.862 . S
O168 Co136 1.920 . S
O168 C141 1.289 . S
C169 O161 1.258 . S
C169 O162 1.266 . S
Co170 O173 1.970 . S
Co170 N187 1.989 . S
Co170 O195 1.967 . S
Co170 O202 1.920 . S
Co171 O174 1.966 . S
Co171 N180 2.022 . S
Co171 N188 1.993 . S
Co171 O196 1.941 . S
C172 O173 1.258 . S
C172 O174 1.263 . S
O173 Co170 1.970 . S
O173 C172 1.258 . S
O174 Co171 1.966 . S
O174 C172 1.263 . S
C175 O176 1.235 . S
C175 O202 1.289 . S
O176 C175 1.235 . S
C177 C179 1.400 . S
C177 N180 1.351 . S
C177 C182 1.501 . S
C178 C179 1.387 . S
C178 N181 1.341 . S
C179 C177 1.400 . S
C179 C178 1.387 . S
N180 Co171 2.022 . S
N180 C177 1.351 . S
N180 N181 1.365 . S
N181 C178 1.341 . S
N181 N180 1.365 . S
N181 H201 0.862 . S
C182 C177 1.501 . S
C182 H183 0.961 . S
C182 H184 0.961 . S
C182 H185 0.960 . S
H183 C182 0.961 . S
H184 C182 0.961 . S
H185 C182 0.960 . S
C186 N187 1.342 . S
C186 C190 1.401 . S
C186 C191 1.499 . S
N187 Co170 1.989 . S
N187 C186 1.342 . S
N187 N188 1.388 . S
N188 Co171 1.993 . S
N188 N187 1.388 . S
N188 C189 1.346 . S
C189 N188 1.346 . S
C189 C190 1.396 . S
C189 C199 1.510 . S
C190 C186 1.401 . S
C190 C189 1.396 . S
C191 C186 1.499 . S
C191 H192 0.959 . S
C191 H193 0.960 . S
C191 H194 0.961 . S
H192 C191 0.959 . S
H193 C191 0.960 . S
H194 C191 0.961 . S
O195 Co170 1.967 . S
O195 C203 1.258 . S
O196 Co171 1.941 . S
O196 C203 1.266 . S
H197 C199 0.959 . S
H198 C199 0.961 . S
C199 C189 1.510 . S
C199 H197 0.959 . S
C199 H198 0.961 . S
C199 H200 0.960 . S
H200 C199 0.960 . S
H201 N181 0.862 . S
O202 Co170 1.920 . S
O202 C175 1.289 . S
C203 O195 1.258 . S
C203 O196 1.266 . S
Co204 O207 1.970 . S
Co204 N221 1.989 . S
Co204 O229 1.967 . S
Co204 O236 1.920 . S
Co205 O208 1.966 . S
Co205 N214 2.022 . S
Co205 N222 1.993 . S
Co205 O230 1.941 . S
C206 O207 1.258 . S
C206 O208 1.263 . S
O207 Co204 1.970 . S
O207 C206 1.258 . S
O208 Co205 1.966 . S
O208 C206 1.263 . S
C209 O210 1.235 . S
C209 O236 1.289 . S
O210 C209 1.235 . S
C211 C213 1.400 . S
C211 N214 1.351 . S
C211 C216 1.501 . S
C212 C213 1.387 . S
C212 N215 1.341 . S
C213 C211 1.400 . S
C213 C212 1.387 . S
N214 Co205 2.022 . S
N214 C211 1.351 . S
N214 N215 1.365 . S
N215 C212 1.341 . S
N215 N214 1.365 . S
N215 H235 0.862 . S
C216 C211 1.501 . S
C216 H217 0.961 . S
C216 H218 0.961 . S
C216 H219 0.960 . S
H217 C216 0.961 . S
H218 C216 0.961 . S
H219 C216 0.960 . S
C220 N221 1.342 . S
C220 C224 1.401 . S
C220 C225 1.499 . S
N221 Co204 1.989 . S
N221 C220 1.342 . S
N221 N222 1.388 . S
N222 Co205 1.993 . S
N222 N221 1.388 . S
N222 C223 1.346 . S
C223 N222 1.346 . S
C223 C224 1.396 . S
C223 C233 1.510 . S
C224 C220 1.401 . S
C224 C223 1.396 . S
C225 C220 1.499 . S
C225 H226 0.959 . S
C225 H227 0.960 . S
C225 H228 0.961 . S
H226 C225 0.959 . S
H227 C225 0.960 . S
H228 C225 0.961 . S
O229 Co204 1.967 . S
O229 C237 1.258 . S
O230 Co205 1.941 . S
O230 C237 1.266 . S
H231 C233 0.959 . S
H232 C233 0.961 . S
C233 C223 1.510 . S
C233 H231 0.959 . S
C233 H232 0.961 . S
C233 H234 0.960 . S
H234 C233 0.960 . S
H235 N215 0.862 . S
O236 Co204 1.920 . S
O236 C209 1.289 . S
C237 O229 1.258 . S
C237 O230 1.266 . S
Co238 O241 1.970 . S
Co238 N255 1.989 . S
Co238 O263 1.967 . S
Co238 O270 1.920 . S
Co239 O242 1.966 . S
Co239 N248 2.022 . S
Co239 N256 1.993 . S
Co239 O264 1.941 . S
C240 O241 1.258 . S
C240 O242 1.263 . S
O241 Co238 1.970 . S
O241 C240 1.258 . S
O242 Co239 1.966 . S
O242 C240 1.263 . S
C243 O244 1.235 . S
C243 O270 1.289 . S
O244 C243 1.235 . S
C245 C247 1.400 . S
C245 N248 1.351 . S
C245 C250 1.501 . S
C246 C247 1.387 . S
C246 N249 1.341 . S
C247 C245 1.400 . S
C247 C246 1.387 . S
N248 Co239 2.022 . S
N248 C245 1.351 . S
N248 N249 1.365 . S
N249 C246 1.341 . S
N249 N248 1.365 . S
N249 H269 0.862 . S
C250 C245 1.501 . S
C250 H251 0.961 . S
C250 H252 0.961 . S
C250 H253 0.960 . S
H251 C250 0.961 . S
H252 C250 0.961 . S
H253 C250 0.960 . S
C254 N255 1.342 . S
C254 C258 1.401 . S
C254 C259 1.499 . S
N255 Co238 1.989 . S
N255 C254 1.342 . S
N255 N256 1.388 . S
N256 Co239 1.993 . S
N256 N255 1.388 . S
N256 C257 1.346 . S
C257 N256 1.346 . S
C257 C258 1.396 . S
C257 C267 1.510 . S
C258 C254 1.401 . S
C258 C257 1.396 . S
C259 C254 1.499 . S
C259 H260 0.959 . S
C259 H261 0.960 . S
C259 H262 0.961 . S
H260 C259 0.959 . S
H261 C259 0.960 . S
H262 C259 0.961 . S
O263 Co238 1.967 . S
O263 C271 1.258 . S
O264 Co239 1.941 . S
O264 C271 1.266 . S
H265 C267 0.959 . S
H266 C267 0.961 . S
C267 C257 1.510 . S
C267 H265 0.959 . S
C267 H266 0.961 . S
C267 H268 0.960 . S
H268 C267 0.960 . S
H269 N249 0.862 . S
O270 Co238 1.920 . S
O270 C243 1.289 . S
C271 O263 1.258 . S
C271 O264 1.266 . S
Co272 O275 1.970 . S
Co272 N289 1.989 . S
Co272 O297 1.967 . S
Co272 O304 1.920 . S
Co273 O276 1.966 . S
Co273 N282 2.022 . S
Co273 N290 1.993 . S
Co273 O298 1.941 . S
C274 O275 1.258 . S
C274 O276 1.263 . S
O275 Co272 1.970 . S
O275 C274 1.258 . S
O276 Co273 1.966 . S
O276 C274 1.263 . S
C277 O278 1.235 . S
C277 O304 1.289 . S
O278 C277 1.235 . S
C279 C281 1.400 . S
C279 N282 1.351 . S
C279 C284 1.501 . S
C280 C281 1.387 . S
C280 N283 1.341 . S
C281 C279 1.400 . S
C281 C280 1.387 . S
N282 Co273 2.022 . S
N282 C279 1.351 . S
N282 N283 1.365 . S
N283 C280 1.341 . S
N283 N282 1.365 . S
N283 H303 0.862 . S
C284 C279 1.501 . S
C284 H285 0.961 . S
C284 H286 0.961 . S
C284 H287 0.960 . S
H285 C284 0.961 . S
H286 C284 0.961 . S
H287 C284 0.960 . S
C288 N289 1.342 . S
C288 C292 1.401 . S
C288 C293 1.499 . S
N289 Co272 1.989 . S
N289 C288 1.342 . S
N289 N290 1.388 . S
N290 Co273 1.993 . S
N290 N289 1.388 . S
N290 C291 1.346 . S
C291 N290 1.346 . S
C291 C292 1.396 . S
C291 C301 1.510 . S
C292 C288 1.401 . S
C292 C291 1.396 . S
C293 C288 1.499 . S
C293 H294 0.959 . S
C293 H295 0.960 . S
C293 H296 0.961 . S
H294 C293 0.959 . S
H295 C293 0.960 . S
H296 C293 0.961 . S
O297 Co272 1.967 . S
O297 C305 1.258 . S
O298 Co273 1.941 . S
O298 C305 1.266 . S
H299 C301 0.959 . S
H300 C301 0.961 . S
C301 C291 1.510 . S
C301 H299 0.959 . S
C301 H300 0.961 . S
C301 H302 0.960 . S
H302 C301 0.960 . S
H303 N283 0.862 . S
O304 Co272 1.920 . S
O304 C277 1.289 . S
C305 O297 1.258 . S
C305 O298 1.266 . S
Co306 O309 1.970 . S
Co306 N323 1.989 . S
Co306 O331 1.967 . S
Co306 O338 1.920 . S
Co307 O310 1.966 . S
Co307 N316 2.022 . S
Co307 N324 1.993 . S
Co307 O332 1.941 . S
C308 O309 1.258 . S
C308 O310 1.263 . S
O309 Co306 1.970 . S
O309 C308 1.258 . S
O310 Co307 1.966 . S
O310 C308 1.263 . S
C311 O312 1.235 . S
C311 O338 1.289 . S
O312 C311 1.235 . S
C313 C315 1.400 . S
C313 N316 1.351 . S
C313 C318 1.501 . S
C314 C315 1.387 . S
C314 N317 1.341 . S
C315 C313 1.400 . S
C315 C314 1.387 . S
N316 Co307 2.022 . S
N316 C313 1.351 . S
N316 N317 1.365 . S
N317 C314 1.341 . S
N317 N316 1.365 . S
N317 H337 0.862 . S
C318 C313 1.501 . S
C318 H319 0.961 . S
C318 H320 0.961 . S
C318 H321 0.960 . S
H319 C318 0.961 . S
H320 C318 0.961 . S
H321 C318 0.960 . S
C322 N323 1.342 . S
C322 C326 1.401 . S
C322 C327 1.499 . S
N323 Co306 1.989 . S
N323 C322 1.342 . S
N323 N324 1.388 . S
N324 Co307 1.993 . S
N324 N323 1.388 . S
N324 C325 1.346 . S
C325 N324 1.346 . S
C325 C326 1.396 . S
C325 C335 1.510 . S
C326 C322 1.401 . S
C326 C325 1.396 . S
C327 C322 1.499 . S
C327 H328 0.959 . S
C327 H329 0.960 . S
C327 H330 0.961 . S
H328 C327 0.959 . S
H329 C327 0.960 . S
H330 C327 0.961 . S
O331 Co306 1.967 . S
O331 C339 1.258 . S
O332 Co307 1.941 . S
O332 C339 1.266 . S
H333 C335 0.959 . S
H334 C335 0.961 . S
C335 C325 1.510 . S
C335 H333 0.959 . S
C335 H334 0.961 . S
C335 H336 0.960 . S
H336 C335 0.960 . S
H337 N317 0.862 . S
O338 Co306 1.920 . S
O338 C311 1.289 . S
C339 O331 1.258 . S
C339 O332 1.266 . S
Co340 O343 1.970 . S
Co340 N357 1.989 . S
Co340 O365 1.967 . S
Co340 O372 1.920 . S
Co341 O344 1.966 . S
Co341 N350 2.022 . S
Co341 N358 1.993 . S
Co341 O366 1.941 . S
C342 O343 1.258 . S
C342 O344 1.263 . S
O343 Co340 1.970 . S
O343 C342 1.258 . S
O344 Co341 1.966 . S
O344 C342 1.263 . S
C345 O346 1.235 . S
C345 O372 1.289 . S
O346 C345 1.235 . S
C347 C349 1.400 . S
C347 N350 1.351 . S
C347 C352 1.501 . S
C348 C349 1.387 . S
C348 N351 1.341 . S
C349 C347 1.400 . S
C349 C348 1.387 . S
N350 Co341 2.022 . S
N350 C347 1.351 . S
N350 N351 1.365 . S
N351 C348 1.341 . S
N351 N350 1.365 . S
N351 H371 0.862 . S
C352 C347 1.501 . S
C352 H353 0.961 . S
C352 H354 0.961 . S
C352 H355 0.960 . S
H353 C352 0.961 . S
H354 C352 0.961 . S
H355 C352 0.960 . S
C356 N357 1.342 . S
C356 C360 1.401 . S
C356 C361 1.499 . S
N357 Co340 1.989 . S
N357 C356 1.342 . S
N357 N358 1.388 . S
N358 Co341 1.993 . S
N358 N357 1.388 . S
N358 C359 1.346 . S
C359 N358 1.346 . S
C359 C360 1.396 . S
C359 C369 1.510 . S
C360 C356 1.401 . S
C360 C359 1.396 . S
C361 C356 1.499 . S
C361 H362 0.959 . S
C361 H363 0.960 . S
C361 H364 0.961 . S
H362 C361 0.959 . S
H363 C361 0.960 . S
H364 C361 0.961 . S
O365 Co340 1.967 . S
O365 C373 1.258 . S
O366 Co341 1.941 . S
O366 C373 1.266 . S
H367 C369 0.959 . S
H368 C369 0.961 . S
C369 C359 1.510 . S
C369 H367 0.959 . S
C369 H368 0.961 . S
C369 H370 0.960 . S
H370 C369 0.960 . S
H371 N351 0.862 . S
O372 Co340 1.920 . S
O372 C345 1.289 . S
C373 O365 1.258 . S
C373 O366 1.266 . S
Co374 O377 1.970 . S
Co374 N391 1.989 . S
Co374 O399 1.967 . S
Co374 O406 1.920 . S
Co375 O378 1.966 . S
Co375 N384 2.022 . S
Co375 N392 1.993 . S
Co375 O400 1.941 . S
C376 O377 1.258 . S
C376 O378 1.263 . S
O377 Co374 1.970 . S
O377 C376 1.258 . S
O378 Co375 1.966 . S
O378 C376 1.263 . S
C379 O380 1.235 . S
C379 O406 1.289 . S
O380 C379 1.235 . S
C381 C383 1.400 . S
C381 N384 1.351 . S
C381 C386 1.501 . S
C382 C383 1.387 . S
C382 N385 1.341 . S
C383 C381 1.400 . S
C383 C382 1.387 . S
N384 Co375 2.022 . S
N384 C381 1.351 . S
N384 N385 1.365 . S
N385 C382 1.341 . S
N385 N384 1.365 . S
N385 H405 0.862 . S
C386 C381 1.501 . S
C386 H387 0.961 . S
C386 H388 0.961 . S
C386 H389 0.960 . S
H387 C386 0.961 . S
H388 C386 0.961 . S
H389 C386 0.960 . S
C390 N391 1.342 . S
C390 C394 1.401 . S
C390 C395 1.499 . S
N391 Co374 1.989 . S
N391 C390 1.342 . S
N391 N392 1.388 . S
N392 Co375 1.993 . S
N392 N391 1.388 . S
N392 C393 1.346 . S
C393 N392 1.346 . S
C393 C394 1.396 . S
C393 C403 1.510 . S
C394 C390 1.401 . S
C394 C393 1.396 . S
C395 C390 1.499 . S
C395 H396 0.959 . S
C395 H397 0.960 . S
C395 H398 0.961 . S
H396 C395 0.959 . S
H397 C395 0.960 . S
H398 C395 0.961 . S
O399 Co374 1.967 . S
O399 C407 1.258 . S
O400 Co375 1.941 . S
O400 C407 1.266 . S
H401 C403 0.959 . S
H402 C403 0.961 . S
C403 C393 1.510 . S
C403 H401 0.959 . S
C403 H402 0.961 . S
C403 H404 0.960 . S
H404 C403 0.960 . S
H405 N385 0.862 . S
O406 Co374 1.920 . S
O406 C379 1.289 . S
C407 O399 1.258 . S
C407 O400 1.266 . S
Co408 O411 1.970 . S
Co408 N425 1.989 . S
Co408 O433 1.967 . S
Co408 O440 1.920 . S
Co409 O412 1.966 . S
Co409 N418 2.022 . S
Co409 N426 1.993 . S
Co409 O434 1.941 . S
C410 O411 1.258 . S
C410 O412 1.263 . S
O411 Co408 1.970 . S
O411 C410 1.258 . S
O412 Co409 1.966 . S
O412 C410 1.263 . S
C413 O414 1.235 . S
C413 O440 1.289 . S
O414 C413 1.235 . S
C415 C417 1.400 . S
C415 N418 1.351 . S
C415 C420 1.501 . S
C416 C417 1.387 . S
C416 N419 1.341 . S
C417 C415 1.400 . S
C417 C416 1.387 . S
N418 Co409 2.022 . S
N418 C415 1.351 . S
N418 N419 1.365 . S
N419 C416 1.341 . S
N419 N418 1.365 . S
N419 H439 0.862 . S
C420 C415 1.501 . S
C420 H421 0.961 . S
C420 H422 0.961 . S
C420 H423 0.960 . S
H421 C420 0.961 . S
H422 C420 0.961 . S
H423 C420 0.960 . S
C424 N425 1.342 . S
C424 C428 1.401 . S
C424 C429 1.499 . S
N425 Co408 1.989 . S
N425 C424 1.342 . S
N425 N426 1.388 . S
N426 Co409 1.993 . S
N426 N425 1.388 . S
N426 C427 1.346 . S
C427 N426 1.346 . S
C427 C428 1.396 . S
C427 C437 1.510 . S
C428 C424 1.401 . S
C428 C427 1.396 . S
C429 C424 1.499 . S
C429 H430 0.959 . S
C429 H431 0.960 . S
C429 H432 0.961 . S
H430 C429 0.959 . S
H431 C429 0.960 . S
H432 C429 0.961 . S
O433 Co408 1.967 . S
O433 C441 1.258 . S
O434 Co409 1.941 . S
O434 C441 1.266 . S
H435 C437 0.959 . S
H436 C437 0.961 . S
C437 C427 1.510 . S
C437 H435 0.959 . S
C437 H436 0.961 . S
C437 H438 0.960 . S
H438 C437 0.960 . S
H439 N419 0.862 . S
O440 Co408 1.920 . S
O440 C413 1.289 . S
C441 O433 1.258 . S
C441 O434 1.266 . S
Co442 O445 1.970 . S
Co442 N459 1.989 . S
Co442 O467 1.967 . S
Co442 O474 1.920 . S
Co443 O446 1.966 . S
Co443 N452 2.022 . S
Co443 N460 1.993 . S
Co443 O468 1.941 . S
C444 O445 1.258 . S
C444 O446 1.263 . S
O445 Co442 1.970 . S
O445 C444 1.258 . S
O446 Co443 1.966 . S
O446 C444 1.263 . S
C447 O448 1.235 . S
C447 O474 1.289 . S
O448 C447 1.235 . S
C449 C451 1.400 . S
C449 N452 1.351 . S
C449 C454 1.501 . S
C450 C451 1.387 . S
C450 N453 1.341 . S
C451 C449 1.400 . S
C451 C450 1.387 . S
N452 Co443 2.022 . S
N452 C449 1.351 . S
N452 N453 1.365 . S
N453 C450 1.341 . S
N453 N452 1.365 . S
N453 H473 0.862 . S
C454 C449 1.501 . S
C454 H455 0.961 . S
C454 H456 0.961 . S
C454 H457 0.960 . S
H455 C454 0.961 . S
H456 C454 0.961 . S
H457 C454 0.960 . S
C458 N459 1.342 . S
C458 C462 1.401 . S
C458 C463 1.499 . S
N459 Co442 1.989 . S
N459 C458 1.342 . S
N459 N460 1.388 . S
N460 Co443 1.993 . S
N460 N459 1.388 . S
N460 C461 1.346 . S
C461 N460 1.346 . S
C461 C462 1.396 . S
C461 C471 1.510 . S
C462 C458 1.401 . S
C462 C461 1.396 . S
C463 C458 1.499 . S
C463 H464 0.959 . S
C463 H465 0.960 . S
C463 H466 0.961 . S
H464 C463 0.959 . S
H465 C463 0.960 . S
H466 C463 0.961 . S
O467 Co442 1.967 . S
O467 C475 1.258 . S
O468 Co443 1.941 . S
O468 C475 1.266 . S
H469 C471 0.959 . S
H470 C471 0.961 . S
C471 C461 1.510 . S
C471 H469 0.959 . S
C471 H470 0.961 . S
C471 H472 0.960 . S
H472 C471 0.960 . S
H473 N453 0.862 . S
O474 Co442 1.920 . S
O474 C447 1.289 . S
C475 O467 1.258 . S
C475 O468 1.266 . S
Co476 O479 1.970 . S
Co476 N493 1.989 . S
Co476 O501 1.967 . S
Co476 O508 1.920 . S
Co477 O480 1.966 . S
Co477 N486 2.022 . S
Co477 N494 1.993 . S
Co477 O502 1.941 . S
C478 O479 1.258 . S
C478 O480 1.263 . S
O479 Co476 1.970 . S
O479 C478 1.258 . S
O480 Co477 1.966 . S
O480 C478 1.263 . S
C481 O482 1.235 . S
C481 O508 1.289 . S
O482 C481 1.235 . S
C483 C485 1.400 . S
C483 N486 1.351 . S
C483 C488 1.501 . S
C484 C485 1.387 . S
C484 N487 1.341 . S
C485 C483 1.400 . S
C485 C484 1.387 . S
N486 Co477 2.022 . S
N486 C483 1.351 . S
N486 N487 1.365 . S
N487 C484 1.341 . S
N487 N486 1.365 . S
N487 H507 0.862 . S
C488 C483 1.501 . S
C488 H489 0.961 . S
C488 H490 0.961 . S
C488 H491 0.960 . S
H489 C488 0.961 . S
H490 C488 0.961 . S
H491 C488 0.960 . S
C492 N493 1.342 . S
C492 C496 1.401 . S
C492 C497 1.499 . S
N493 Co476 1.989 . S
N493 C492 1.342 . S
N493 N494 1.388 . S
N494 Co477 1.993 . S
N494 N493 1.388 . S
N494 C495 1.346 . S
C495 N494 1.346 . S
C495 C496 1.396 . S
C495 C505 1.510 . S
C496 C492 1.401 . S
C496 C495 1.396 . S
C497 C492 1.499 . S
C497 H498 0.959 . S
C497 H499 0.960 . S
C497 H500 0.961 . S
H498 C497 0.959 . S
H499 C497 0.960 . S
H500 C497 0.961 . S
O501 Co476 1.967 . S
O501 C509 1.258 . S
O502 Co477 1.941 . S
O502 C509 1.266 . S
H503 C505 0.959 . S
H504 C505 0.961 . S
C505 C495 1.510 . S
C505 H503 0.959 . S
C505 H504 0.961 . S
C505 H506 0.960 . S
H506 C505 0.960 . S
H507 N487 0.862 . S
O508 Co476 1.920 . S
O508 C481 1.289 . S
C509 O501 1.258 . S
C509 O502 1.266 . S
Co510 O513 1.970 . S
Co510 N527 1.989 . S
Co510 O535 1.967 . S
Co510 O542 1.920 . S
Co511 O514 1.966 . S
Co511 N520 2.022 . S
Co511 N528 1.993 . S
Co511 O536 1.941 . S
C512 O513 1.258 . S
C512 O514 1.263 . S
O513 Co510 1.970 . S
O513 C512 1.258 . S
O514 Co511 1.966 . S
O514 C512 1.263 . S
C515 O516 1.235 . S
C515 O542 1.289 . S
O516 C515 1.235 . S
C517 C519 1.400 . S
C517 N520 1.351 . S
C517 C522 1.501 . S
C518 C519 1.387 . S
C518 N521 1.341 . S
C519 C517 1.400 . S
C519 C518 1.387 . S
N520 Co511 2.022 . S
N520 C517 1.351 . S
N520 N521 1.365 . S
N521 C518 1.341 . S
N521 N520 1.365 . S
N521 H541 0.862 . S
C522 C517 1.501 . S
C522 H523 0.961 . S
C522 H524 0.961 . S
C522 H525 0.960 . S
H523 C522 0.961 . S
H524 C522 0.961 . S
H525 C522 0.960 . S
C526 N527 1.342 . S
C526 C530 1.401 . S
C526 C531 1.499 . S
N527 Co510 1.989 . S
N527 C526 1.342 . S
N527 N528 1.388 . S
N528 Co511 1.993 . S
N528 N527 1.388 . S
N528 C529 1.346 . S
C529 N528 1.346 . S
C529 C530 1.396 . S
C529 C539 1.510 . S
C530 C526 1.401 . S
C530 C529 1.396 . S
C531 C526 1.499 . S
C531 H532 0.959 . S
C531 H533 0.960 . S
C531 H534 0.961 . S
H532 C531 0.959 . S
H533 C531 0.960 . S
H534 C531 0.961 . S
O535 Co510 1.967 . S
O535 C543 1.258 . S
O536 Co511 1.941 . S
O536 C543 1.266 . S
H537 C539 0.959 . S
H538 C539 0.961 . S
C539 C529 1.510 . S
C539 H537 0.959 . S
C539 H538 0.961 . S
C539 H540 0.960 . S
H540 C539 0.960 . S
H541 N521 0.862 . S
O542 Co510 1.920 . S
O542 C515 1.289 . S
C543 O535 1.258 . S
C543 O536 1.266 . S
C544 C545 1.391 . S
C544 C546 1.394 . S
C544 H560 0.931 . S
C545 C544 1.391 . S
C545 C549 1.376 . S
C546 C544 1.394 . S
C546 C547 1.369 . S
C546 C550 1.531 . S
C547 C546 1.369 . S
C547 C548 1.410 . S
C547 C555 1.503 1_655 S
C548 C547 1.410 . S
C548 C549 1.392 . S
C548 C551 1.511 1_655 S
C549 C545 1.376 . S
C549 C548 1.392 . S
C549 H561 0.929 . S
C550 C546 1.531 . S
C550 H562 0.960 . S
C550 H563 0.962 . S
C550 H564 0.960 . S
C551 C548 1.511 1_455 S
C551 H565 0.961 . S
C551 H566 0.961 . S
C551 H567 0.961 . S
C552 C553 1.370 . S
C552 C554 1.363 . S
C552 H568 0.931 . S
C553 C552 1.370 . S
C553 C557 1.408 . S
C554 C552 1.363 . S
C554 C555 1.370 . S
C554 C558 1.524 . S
C555 C547 1.503 1_455 S
C555 C554 1.370 . S
C555 C556 1.403 . S
C556 C555 1.403 . S
C556 C557 1.404 . S
C556 C559 1.539 . S
C557 C553 1.408 . S
C557 C556 1.404 . S
C557 H569 0.930 . S
C558 C554 1.524 . S
C558 H570 0.956 1_455 S
C558 H571 0.962 1_455 S
C558 H572 0.961 . S
C559 C556 1.539 . S
C559 H573 0.958 . S
C559 H574 0.961 . S
C559 H575 0.960 . S
H560 C544 0.931 . S
H561 C549 0.929 . S
H562 C550 0.960 . S
H563 C550 0.962 . S
H564 C550 0.960 . S
H565 C551 0.961 . S
H566 C551 0.961 . S
H567 C551 0.961 . S
H568 C552 0.931 . S
H569 C557 0.930 . S
H570 C558 0.956 1_655 S
H571 C558 0.962 1_655 S
H572 C558 0.961 . S
H573 C559 0.958 . S
H574 C559 0.961 . S
H575 C559 0.960 . S
C576 C577 1.391 . S
C576 C578 1.394 . S
C576 H592 0.931 . S
C577 C576 1.391 . S
C577 C581 1.376 . S
C578 C576 1.394 . S
C578 C579 1.369 . S
C578 C582 1.560 . S
C579 C578 1.369 . S
C579 C580 1.410 . S
C579 C587 1.503 1_545 S
C580 C579 1.410 . S
C580 C581 1.392 . S
C580 C583 1.511 . S
C581 C577 1.376 . S
C581 C580 1.392 . S
C581 H593 0.929 . S
C582 C578 1.560 . S
C582 H594 0.937 1_545 S
C582 H595 0.935 1_545 S
C582 H596 0.983 . S
C583 C580 1.511 . S
C583 H597 0.961 . S
C583 H598 0.961 . S
C583 H599 0.961 . S
C584 C585 1.370 . S
C584 C586 1.363 . S
C584 H600 0.931 . S
C585 C584 1.370 . S
C585 C589 1.408 . S
C586 C584 1.363 . S
C586 C587 1.370 . S
C586 C590 1.524 . S
C587 C579 1.503 1_565 S
C587 C586 1.370 . S
C587 C588 1.403 . S
C588 C587 1.403 . S
C588 C589 1.404 . S
C588 C591 1.539 1_565 S
C589 C585 1.408 . S
C589 C588 1.404 . S
C589 H601 0.930 . S
C590 C586 1.524 . S
C590 H602 0.956 . S
C590 H603 0.961 . S
C590 H604 0.961 . S
C591 C588 1.539 1_545 S
C591 H605 0.958 . S
C591 H606 0.961 . S
C591 H607 0.960 . S
H592 C576 0.931 . S
H593 C581 0.929 . S
H594 C582 0.937 1_565 S
H595 C582 0.935 1_565 S
H596 C582 0.983 . S
H597 C583 0.961 . S
H598 C583 0.961 . S
H599 C583 0.961 . S
H600 C584 0.931 . S
H601 C589 0.930 . S
H602 C590 0.956 . S
H603 C590 0.961 . S
H604 C590 0.961 . S
H605 C591 0.958 . S
H606 C591 0.961 . S
H607 C591 0.960 . S
C608 C609 1.391 . S
C608 C610 1.394 . S
C608 H624 0.931 . S
C609 C608 1.391 . S
C609 C613 1.376 . S
C610 C608 1.394 . S
C610 C611 1.369 . S
C610 C614 1.531 1_655 S
C611 C610 1.369 . S
C611 C612 1.410 . S
C611 C619 1.503 1_655 S
C612 C611 1.410 . S
C612 C613 1.392 . S
C612 C615 1.511 . S
C613 C609 1.376 . S
C613 C612 1.392 . S
C613 H625 0.929 . S
C614 C610 1.531 1_455 S
C614 H626 0.960 . S
C614 H627 0.962 . S
C614 H628 0.960 . S
C615 C612 1.511 . S
C615 H629 0.961 . S
C615 H630 0.961 . S
C615 H631 0.961 . S
C616 C617 1.370 . S
C616 C618 1.363 . S
C616 H632 0.931 . S
C617 C616 1.370 . S
C617 C621 1.408 . S
C618 C616 1.363 . S
C618 C619 1.370 . S
C618 C622 1.524 . S
C619 C611 1.503 1_455 S
C619 C618 1.370 . S
C619 C620 1.403 . S
C620 C619 1.403 . S
C620 C621 1.404 . S
C620 C623 1.539 . S
C621 C617 1.408 . S
C621 C620 1.404 . S
C621 H633 0.930 . S
C622 C618 1.524 . S
C622 H634 0.956 . S
C622 H635 0.961 1_455 S
C622 H636 0.961 . S
C623 C620 1.539 . S
C623 H637 0.958 . S
C623 H638 0.961 . S
C623 H639 0.987 . S
H624 C608 0.931 . S
H625 C613 0.929 . S
H626 C614 0.960 . S
H627 C614 0.962 . S
H628 C614 0.960 . S
H629 C615 0.961 . S
H630 C615 0.961 . S
H631 C615 0.961 . S
H632 C616 0.931 . S
H633 C621 0.930 . S
H634 C622 0.956 . S
H635 C622 0.961 1_655 S
H636 C622 0.961 . S
H637 C623 0.958 . S
H638 C623 0.961 . S
H639 C623 0.987 . S
C640 C641 1.391 . S
C640 C642 1.394 . S
C640 H656 0.931 . S
C641 C640 1.391 . S
C641 C645 1.376 . S
C642 C640 1.394 . S
C642 C643 1.369 . S
C642 C646 1.531 . S
C643 C642 1.369 . S
C643 C644 1.410 . S
C643 C651 1.503 1_565 S
C644 C643 1.410 . S
C644 C645 1.392 . S
C644 C647 1.511 1_565 S
C645 C641 1.376 . S
C645 C644 1.392 . S
C645 H657 0.929 . S
C646 C642 1.531 . S
C646 H658 0.960 . S
C646 H659 0.962 . S
C646 H660 0.960 . S
C647 C644 1.511 1_545 S
C647 H661 0.972 . S
C647 H662 0.961 . S
C647 H663 0.961 . S
C648 C649 1.370 . S
C648 C650 1.363 . S
C648 H664 0.931 . S
C649 C648 1.370 . S
C649 C653 1.408 . S
C650 C648 1.363 . S
C650 C651 1.370 . S
C650 C654 1.524 1_545 S
C651 C643 1.503 1_545 S
C651 C650 1.370 . S
C651 C652 1.403 . S
C652 C651 1.403 . S
C652 C653 1.404 . S
C652 C655 1.539 . S
C653 C649 1.408 . S
C653 C652 1.404 . S
C653 H665 0.930 . S
C654 C650 1.524 1_565 S
C654 H666 0.956 . S
C654 H667 0.961 . S
C654 H668 0.961 1_565 S
C655 C652 1.539 . S
C655 H669 0.958 . S
C655 H670 0.961 . S
C655 H671 0.960 . S
H656 C640 0.931 . S
H657 C645 0.929 . S
H658 C646 0.960 . S
H659 C646 0.962 . S
H660 C646 0.960 . S
H661 C647 0.972 . S
H662 C647 0.961 . S
H663 C647 0.961 . S
H664 C648 0.931 . S
H665 C653 0.930 . S
H666 C654 0.956 . S
H667 C654 0.961 . S
H668 C654 0.961 1_545 S
H669 C655 0.958 . S
H670 C655 0.961 . S
H671 C655 0.960 . S
C672 C673 1.391 . S
C672 C674 1.394 . S
C672 H688 0.931 . S
C673 C672 1.391 . S
C673 C677 1.376 . S
C674 C672 1.394 . S
C674 C675 1.369 . S
C674 C678 1.531 . S
C675 C674 1.369 . S
C675 C676 1.410 1_655 S
C675 C683 1.503 1_655 S
C676 C675 1.410 1_455 S
C676 C677 1.392 1_455 S
C676 C679 1.511 . S
C677 C673 1.376 . S
C677 C676 1.392 1_655 S
C677 H689 0.929 1_655 S
C678 C674 1.531 . S
C678 H690 0.960 . S
C678 H691 0.962 . S
C678 H692 0.960 . S
C679 C676 1.511 . S
C679 H693 0.961 . S
C679 H694 0.961 . S
C679 H695 0.961 . S
C680 C681 1.370 . S
C680 C682 1.363 . S
C680 H696 0.931 . S
C681 C680 1.370 . S
C681 C685 1.408 . S
C682 C680 1.363 . S
C682 C683 1.370 . S
C682 C686 1.524 1_455 S
C683 C675 1.503 1_455 S
C683 C682 1.370 . S
C683 C684 1.403 . S
C684 C683 1.403 . S
C684 C685 1.404 . S
C684 C687 1.539 . S
C685 C681 1.408 . S
C685 C684 1.404 . S
C685 H697 0.930 . S
C686 C682 1.524 1_655 S
C686 H698 0.956 . S
C686 H699 0.961 . S
C686 H700 0.961 . S
C687 C684 1.539 . S
C687 H701 0.958 . S
C687 H702 0.961 . S
C687 H703 0.960 . S
H688 C672 0.931 . S
H689 C677 0.929 1_455 S
H690 C678 0.960 . S
H691 C678 0.962 . S
H692 C678 0.960 . S
H693 C679 0.961 . S
H694 C679 0.961 . S
H695 C679 0.961 . S
H696 C680 0.931 . S
H697 C685 0.930 . S
H698 C686 0.956 . S
H699 C686 0.961 . S
H700 C686 0.961 . S
H701 C687 0.958 . S
H702 C687 0.961 . S
H703 C687 0.960 . S
C704 C705 1.391 . S
C704 C706 1.394 1_565 S
C704 H720 0.931 . S
C705 C704 1.391 . S
C705 C709 1.376 . S
C706 C704 1.394 1_545 S
C706 C707 1.369 1_545 S
C706 C710 1.531 . S
C707 C706 1.369 1_565 S
C707 C708 1.410 . S
C707 C715 1.503 1_565 S
C708 C707 1.410 . S
C708 C709 1.392 . S
C708 C711 1.511 . S
C709 C705 1.376 . S
C709 C708 1.392 . S
C709 H721 0.929 . S
C710 C706 1.531 . S
C710 H722 0.960 . S
C710 H723 0.962 . S
C710 H724 0.960 . S
C711 C708 1.511 . S
C711 H725 0.961 . S
C711 H726 0.961 . S
C711 H727 0.961 . S
C712 C713 1.370 . S
C712 C714 1.363 1_545 S
C712 H728 0.918 1_545 S
C713 C712 1.370 . S
C713 C717 1.408 . S
C714 C712 1.363 1_565 S
C714 C715 1.370 1_565 S
C714 C718 1.524 . S
C715 C707 1.503 1_545 S
C715 C714 1.370 1_545 S
C715 C716 1.403 . S
C716 C715 1.403 . S
C716 C717 1.404 . S
C716 C719 1.539 . S
C717 C713 1.408 . S
C717 C716 1.404 . S
C717 H729 0.930 . S
C718 C714 1.524 . S
C718 H730 0.956 . S
C718 H731 0.961 . S
C718 H732 0.961 . S
C719 C716 1.539 . S
C719 H733 0.958 . S
C719 H734 0.961 . S
C719 H735 0.960 . S
H720 C704 0.931 . S
H721 C709 0.929 . S
H722 C710 0.960 . S
H723 C710 0.962 . S
H724 C710 0.960 . S
H725 C711 0.961 . S
H726 C711 0.961 . S
H727 C711 0.961 . S
H728 C712 0.918 1_565 S
H729 C717 0.930 . S
H730 C718 0.956 . S
H731 C718 0.961 . S
H732 C718 0.961 . S
H733 C719 0.958 . S
H734 C719 0.961 . S
H735 C719 0.960 . S
C736 C737 1.391 . S
C736 C738 1.394 . S
C736 H752 0.931 . S
C737 C736 1.391 . S
C737 C741 1.376 . S
C738 C736 1.394 . S
C738 C739 1.369 . S
C738 C742 1.531 . S
C739 C738 1.369 . S
C739 C740 1.410 1_655 S
C739 C747 1.503 1_655 S
C740 C739 1.410 1_455 S
C740 C741 1.392 1_455 S
C740 C743 1.511 . S
C741 C737 1.376 . S
C741 C740 1.392 1_655 S
C741 H753 0.929 1_655 S
C742 C738 1.531 . S
C742 H754 0.960 . S
C742 H755 0.962 . S
C742 H756 0.960 . S
C743 C740 1.511 . S
C743 H757 0.961 . S
C743 H758 0.961 . S
C743 H759 0.961 . S
C744 C745 1.370 . S
C744 C746 1.363 . S
C744 H760 0.931 . S
C745 C744 1.370 . S
C745 C749 1.408 . S
C746 C744 1.363 . S
C746 C747 1.370 . S
C746 C750 1.524 1_455 S
C747 C739 1.503 1_455 S
C747 C746 1.370 . S
C747 C748 1.403 . S
C748 C747 1.403 . S
C748 C749 1.404 . S
C748 C751 1.539 . S
C749 C745 1.408 . S
C749 C748 1.404 . S
C749 H761 0.930 . S
C750 C746 1.524 1_655 S
C750 H762 0.956 . S
C750 H763 0.961 . S
C750 H764 0.961 . S
C751 C748 1.539 . S
C751 H765 0.958 . S
C751 H766 0.961 . S
C751 H767 0.960 . S
H752 C736 0.931 . S
H753 C741 0.929 1_455 S
H754 C742 0.960 . S
H755 C742 0.962 . S
H756 C742 0.960 . S
H757 C743 0.961 . S
H758 C743 0.961 . S
H759 C743 0.961 . S
H760 C744 0.931 . S
H761 C749 0.930 . S
H762 C750 0.956 . S
H763 C750 0.961 . S
H764 C750 0.961 . S
H765 C751 0.958 . S
H766 C751 0.961 . S
H767 C751 0.960 . S
C768 C769 1.391 . S
C768 C770 1.394 . S
C768 H784 0.931 . S
C769 C768 1.391 . S
C769 C773 1.376 . S
C770 C768 1.394 . S
C770 C771 1.369 . S
C770 C774 1.531 . S
C771 C770 1.369 . S
C771 C772 1.410 1_545 S
C771 C779 1.503 1_545 S
C772 C771 1.410 1_565 S
C772 C773 1.392 1_565 S
C772 C775 1.511 . S
C773 C769 1.376 . S
C773 C772 1.392 1_545 S
C773 H785 0.929 1_545 S
C774 C770 1.531 . S
C774 H786 0.960 . S
C774 H787 0.962 . S
C774 H788 0.960 . S
C775 C772 1.511 . S
C775 H789 0.961 . S
C775 H790 0.961 . S
C775 H791 0.961 . S
C776 C777 1.370 . S
C776 C778 1.363 . S
C776 H792 0.931 . S
C777 C776 1.370 . S
C777 C781 1.408 . S
C778 C776 1.363 . S
C778 C779 1.370 . S
C778 C782 1.524 1_565 S
C779 C771 1.503 1_565 S
C779 C778 1.370 . S
C779 C780 1.403 . S
C780 C779 1.403 . S
C780 C781 1.404 . S
C780 C783 1.539 . S
C781 C777 1.408 . S
C781 C780 1.404 . S
C781 H793 0.930 . S
C782 C778 1.524 1_545 S
C782 H794 0.956 . S
C782 H795 0.961 . S
C782 H796 0.961 . S
C783 C780 1.539 . S
C783 H797 0.958 . S
C783 H798 0.961 . S
C783 H799 0.960 . S
H784 C768 0.931 . S
H785 C773 0.929 1_565 S
H786 C774 0.960 . S
H787 C774 0.962 . S
H788 C774 0.960 . S
H789 C775 0.961 . S
H790 C775 0.961 . S
H791 C775 0.961 . S
H792 C776 0.931 . S
H793 C781 0.930 . S
H794 C782 0.956 . S
H795 C782 0.961 . S
H796 C782 0.961 . S
H797 C783 0.958 . S
H798 C783 0.961 . S
H799 C783 0.960 . S
C800 C801 1.391 . S
C800 C802 1.394 . S
C800 H816 0.931 . S
C801 C800 1.391 . S
C801 C805 1.376 . S
C802 C800 1.394 . S
C802 C803 1.369 . S
C802 C806 1.531 . S
C803 C802 1.369 . S
C803 C804 1.410 . S
C803 C811 1.503 . S
C804 C803 1.410 . S
C804 C805 1.392 . S
C804 C807 1.511 . S
C805 C801 1.376 . S
C805 C804 1.392 . S
C805 H817 0.929 . S
C806 C802 1.531 . S
C806 H818 0.960 . S
C806 H819 0.962 . S
C806 H820 0.960 . S
C807 C804 1.511 . S
C807 H821 0.961 . S
C807 H822 0.961 . S
C807 H823 0.961 . S
C808 C809 1.370 . S
C808 C810 1.363 . S
C808 H824 0.931 . S
C809 C808 1.370 . S
C809 C813 1.408 . S
C810 C808 1.363 . S
C810 C811 1.370 . S
C810 C814 1.524 . S
C811 C803 1.503 . S
C811 C810 1.370 . S
C811 C812 1.403 . S
C812 C811 1.403 . S
C812 C813 1.404 . S
C812 C815 1.539 . S
C813 C809 1.408 . S
C813 C812 1.404 . S
C813 H825 0.930 . S
C814 C810 1.524 . S
C814 H826 0.956 . S
C814 H827 0.961 . S
C814 H828 0.961 . S
C815 C812 1.539 . S
C815 H829 0.958 . S
C815 H830 0.961 . S
C815 H831 0.960 . S
H816 C800 0.931 . S
H817 C805 0.929 . S
H818 C806 0.960 . S
H819 C806 0.962 . S
H820 C806 0.960 . S
H821 C807 0.961 . S
H822 C807 0.961 . S
H823 C807 0.961 . S
H824 C808 0.931 . S
H825 C813 0.930 . S
H826 C814 0.956 . S
H827 C814 0.961 . S
H828 C814 0.961 . S
H829 C815 0.958 . S
H830 C815 0.961 . S
H831 C815 0.960 . S
C832 C833 1.391 . S
C832 C834 1.394 . S
C832 H848 0.931 . S
C833 C832 1.391 . S
C833 C837 1.376 . S
C834 C832 1.394 . S
C834 C835 1.369 . S
C834 C838 1.531 . S
C835 C834 1.369 . S
C835 C836 1.410 . S
C835 C843 1.503 . S
C836 C835 1.410 . S
C836 C837 1.392 . S
C836 C839 1.511 . S
C837 C833 1.376 . S
C837 C836 1.392 . S
C837 H849 0.929 . S
C838 C834 1.531 . S
C838 H850 0.960 . S
C838 H851 0.962 . S
C838 H852 0.960 . S
C839 C836 1.511 . S
C839 H853 0.961 . S
C839 H854 0.961 . S
C839 H855 0.961 . S
C840 C841 1.370 . S
C840 C842 1.363 . S
C840 H856 0.931 . S
C841 C840 1.370 . S
C841 C845 1.408 . S
C842 C840 1.363 . S
C842 C843 1.370 . S
C842 C846 1.524 . S
C843 C835 1.503 . S
C843 C842 1.370 . S
C843 C844 1.403 . S
C844 C843 1.403 . S
C844 C845 1.404 . S
C844 C847 1.539 . S
C845 C841 1.408 . S
C845 C844 1.404 . S
C845 H857 0.930 . S
C846 C842 1.524 . S
C846 H858 0.956 . S
C846 H859 0.961 . S
C846 H860 0.961 . S
C847 C844 1.539 . S
C847 H861 0.958 . S
C847 H862 0.961 . S
C847 H863 0.960 . S
H848 C832 0.931 . S
H849 C837 0.929 . S
H850 C838 0.960 . S
H851 C838 0.962 . S
H852 C838 0.960 . S
H853 C839 0.961 . S
H854 C839 0.961 . S
H855 C839 0.961 . S
H856 C840 0.931 . S
H857 C845 0.930 . S
H858 C846 0.956 . S
H859 C846 0.961 . S
H860 C846 0.961 . S
H861 C847 0.958 . S
H862 C847 0.961 . S
H863 C847 0.960 . S
C864 C865 1.391 . S
C864 C866 1.394 . S
C864 H880 0.931 . S
C865 C864 1.391 . S
C865 C869 1.376 . S
C866 C864 1.394 . S
C866 C867 1.369 . S
C866 C870 1.531 . S
C867 C866 1.369 . S
C867 C868 1.410 . S
C867 C875 1.503 . S
C868 C867 1.410 . S
C868 C869 1.392 . S
C868 C871 1.511 . S
C869 C865 1.376 . S
C869 C868 1.392 . S
C869 H881 0.929 . S
C870 C866 1.531 . S
C870 H882 0.960 . S
C870 H883 0.962 . S
C870 H884 0.960 . S
C871 C868 1.511 . S
C871 H885 0.961 . S
C871 H886 0.961 . S
C871 H887 0.961 . S
C872 C873 1.370 . S
C872 C874 1.363 . S
C872 H888 0.931 . S
C873 C872 1.370 . S
C873 C877 1.408 . S
C874 C872 1.363 . S
C874 C875 1.370 . S
C874 C878 1.524 . S
C875 C867 1.503 . S
C875 C874 1.370 . S
C875 C876 1.403 . S
C876 C875 1.403 . S
C876 C877 1.404 . S
C876 C879 1.539 . S
C877 C873 1.408 . S
C877 C876 1.404 . S
C877 H889 0.930 . S
C878 C874 1.524 . S
C878 H890 0.956 . S
C878 H891 0.961 . S
C878 H892 0.961 . S
C879 C876 1.539 . S
C879 H893 0.958 . S
C879 H894 0.961 . S
C879 H895 0.960 . S
H880 C864 0.931 . S
H881 C869 0.929 . S
H882 C870 0.960 . S
H883 C870 0.962 . S
H884 C870 0.960 . S
H885 C871 0.961 . S
H886 C871 0.961 . S
H887 C871 0.961 . S
H888 C872 0.931 . S
H889 C877 0.930 . S
H890 C878 0.956 . S
H891 C878 0.961 . S
H892 C878 0.961 . S
H893 C879 0.958 . S
H894 C879 0.961 . S
H895 C879 0.960 . S
C896 C897 1.391 . S
C896 C898 1.394 . S
C896 H912 0.931 . S
C897 C896 1.391 . S
C897 C901 1.376 . S
C898 C896 1.394 . S
C898 C899 1.369 . S
C898 C902 1.531 . S
C899 C898 1.369 . S
C899 C900 1.410 . S
C899 C907 1.503 . S
C900 C899 1.410 . S
C900 C901 1.392 . S
C900 C903 1.511 . S
C901 C897 1.376 . S
C901 C900 1.392 . S
C901 H913 0.929 . S
C902 C898 1.531 . S
C902 H914 0.960 . S
C902 H915 0.962 . S
C902 H916 0.960 . S
C903 C900 1.511 . S
C903 H917 0.961 . S
C903 H918 0.961 . S
C903 H919 0.961 . S
C904 C905 1.370 . S
C904 C906 1.363 . S
C904 H920 0.931 . S
C905 C904 1.370 . S
C905 C909 1.408 . S
C906 C904 1.363 . S
C906 C907 1.370 . S
C906 C910 1.524 . S
C907 C899 1.503 . S
C907 C906 1.370 . S
C907 C908 1.403 . S
C908 C907 1.403 . S
C908 C909 1.404 . S
C908 C911 1.539 . S
C909 C905 1.408 . S
C909 C908 1.404 . S
C909 H921 0.930 . S
C910 C906 1.524 . S
C910 H922 0.956 . S
C910 H923 0.961 . S
C910 H924 0.961 . S
C911 C908 1.539 . S
C911 H925 0.958 . S
C911 H926 0.961 . S
C911 H927 0.960 . S
H912 C896 0.931 . S
H913 C901 0.929 . S
H914 C902 0.960 . S
H915 C902 0.962 . S
H916 C902 0.960 . S
H917 C903 0.961 . S
H918 C903 0.961 . S
H919 C903 0.961 . S
H920 C904 0.931 . S
H921 C909 0.930 . S
H922 C910 0.956 . S
H923 C910 0.961 . S
H924 C910 0.961 . S
H925 C911 0.958 . S
H926 C911 0.961 . S
H927 C911 0.960 . S
C928 C929 1.391 . S
C928 C930 1.394 . S
C928 H944 0.931 . S
C929 C928 1.391 . S
C929 C933 1.376 . S
C930 C928 1.394 . S
C930 C931 1.369 . S
C930 C934 1.531 . S
C931 C930 1.369 . S
C931 C932 1.410 . S
C931 C939 1.503 . S
C932 C931 1.410 . S
C932 C933 1.392 . S
C932 C935 1.511 . S
C933 C929 1.376 . S
C933 C932 1.392 . S
C933 H945 0.929 . S
C934 C930 1.531 . S
C934 H946 0.960 . S
C934 H947 0.962 . S
C934 H948 0.960 . S
C935 C932 1.511 . S
C935 H949 0.961 . S
C935 H950 0.961 . S
C935 H951 0.961 . S
C936 C937 1.370 . S
C936 C938 1.363 . S
C936 H952 0.931 . S
C937 C936 1.370 . S
C937 C941 1.408 . S
C938 C936 1.363 . S
C938 C939 1.370 . S
C938 C942 1.524 . S
C939 C931 1.503 . S
C939 C938 1.370 . S
C939 C940 1.403 . S
C940 C939 1.403 . S
C940 C941 1.404 . S
C940 C943 1.539 . S
C941 C937 1.408 . S
C941 C940 1.404 . S
C941 H953 0.930 . S
C942 C938 1.524 . S
C942 H954 0.956 . S
C942 H955 0.961 . S
C942 H956 0.961 . S
C943 C940 1.539 . S
C943 H957 0.958 . S
C943 H958 0.961 . S
C943 H959 0.960 . S
H944 C928 0.931 . S
H945 C933 0.929 . S
H946 C934 0.960 . S
H947 C934 0.962 . S
H948 C934 0.960 . S
H949 C935 0.961 . S
H950 C935 0.961 . S
H951 C935 0.961 . S
H952 C936 0.931 . S
H953 C941 0.930 . S
H954 C942 0.956 . S
H955 C942 0.961 . S
H956 C942 0.961 . S
H957 C943 0.958 . S
H958 C943 0.961 . S
H959 C943 0.960 . S
C960 C961 1.391 . S
C960 C962 1.394 . S
C960 H976 0.931 . S
C961 C960 1.391 . S
C961 C965 1.376 . S
C962 C960 1.394 . S
C962 C963 1.369 . S
C962 C966 1.531 . S
C963 C962 1.369 . S
C963 C964 1.410 . S
C963 C971 1.503 . S
C964 C963 1.410 . S
C964 C965 1.392 . S
C964 C967 1.511 . S
C965 C961 1.376 . S
C965 C964 1.392 . S
C965 H977 0.929 . S
C966 C962 1.531 . S
C966 H978 0.960 . S
C966 H979 0.962 . S
C966 H980 0.960 . S
C967 C964 1.511 . S
C967 H981 0.961 . S
C967 H982 0.961 . S
C967 H983 0.961 . S
C968 C969 1.370 . S
C968 C970 1.363 . S
C968 H984 0.931 . S
C969 C968 1.370 . S
C969 C973 1.408 . S
C970 C968 1.363 . S
C970 C971 1.370 . S
C970 C974 1.524 . S
C971 C963 1.503 . S
C971 C970 1.370 . S
C971 C972 1.403 . S
C972 C971 1.403 . S
C972 C973 1.404 . S
C972 C975 1.539 . S
C973 C969 1.408 . S
C973 C972 1.404 . S
C973 H985 0.930 . S
C974 C970 1.524 . S
C974 H986 0.956 . S
C974 H987 0.961 . S
C974 H988 0.961 . S
C975 C972 1.539 . S
C975 H989 0.958 . S
C975 H990 0.961 . S
C975 H991 0.960 . S
H976 C960 0.931 . S
H977 C965 0.929 . S
H978 C966 0.960 . S
H979 C966 0.962 . S
H980 C966 0.960 . S
H981 C967 0.961 . S
H982 C967 0.961 . S
H983 C967 0.961 . S
H984 C968 0.931 . S
H985 C973 0.930 . S
H986 C974 0.956 . S
H987 C974 0.961 . S
H988 C974 0.961 . S
H989 C975 0.958 . S
H990 C975 0.961 . S
H991 C975 0.960 . S
C992 C993 1.391 . S
C992 C994 1.394 . S
C992 H1008 0.931 . S
C993 C992 1.391 . S
C993 C997 1.376 . S
C994 C992 1.394 . S
C994 C995 1.369 . S
C994 C998 1.531 . S
C995 C994 1.369 . S
C995 C996 1.410 . S
C995 C1003 1.503 . S
C996 C995 1.410 . S
C996 C997 1.392 . S
C996 C999 1.511 . S
C997 C993 1.376 . S
C997 C996 1.392 . S
C997 H1009 0.929 . S
C998 C994 1.531 . S
C998 H1010 0.960 . S
C998 H1011 0.962 . S
C998 H1012 0.960 . S
C999 C996 1.511 . S
C999 H1013 0.961 . S
C999 H1014 0.961 . S
C999 H1015 0.961 . S
C1000 C1001 1.370 . S
C1000 C1002 1.363 . S
C1000 H1016 0.931 . S
C1001 C1000 1.370 . S
C1001 C1005 1.408 . S
C1002 C1000 1.363 . S
C1002 C1003 1.370 . S
C1002 C1006 1.524 . S
C1003 C995 1.503 . S
C1003 C1002 1.370 . S
C1003 C1004 1.403 . S
C1004 C1003 1.403 . S
C1004 C1005 1.404 . S
C1004 C1007 1.539 . S
C1005 C1001 1.408 . S
C1005 C1004 1.404 . S
C1005 H1017 0.930 . S
C1006 C1002 1.524 . S
C1006 H1018 0.956 . S
C1006 H1019 0.961 . S
C1006 H1020 0.961 . S
C1007 C1004 1.539 . S
C1007 H1021 0.958 . S
C1007 H1022 0.961 . S
C1007 H1023 0.960 . S
H1008 C992 0.931 . S
H1009 C997 0.929 . S
H1010 C998 0.960 . S
H1011 C998 0.962 . S
H1012 C998 0.960 . S
H1013 C999 0.961 . S
H1014 C999 0.961 . S
H1015 C999 0.961 . S
H1016 C1000 0.931 . S
H1017 C1005 0.930 . S
H1018 C1006 0.956 . S
H1019 C1006 0.961 . S
H1020 C1006 0.961 . S
H1021 C1007 0.958 . S
H1022 C1007 0.961 . S
H1023 C1007 0.960 . S
C1024 C1025 1.391 . S
C1024 C1026 1.394 . S
C1024 H1040 0.931 . S
C1025 C1024 1.391 . S
C1025 C1029 1.376 . S
C1026 C1024 1.394 . S
C1026 C1027 1.369 . S
C1026 C1030 1.531 . S
C1027 C1026 1.369 . S
C1027 C1028 1.410 . S
C1027 C1035 1.503 . S
C1028 C1027 1.410 . S
C1028 C1029 1.392 . S
C1028 C1031 1.511 . S
C1029 C1025 1.376 . S
C1029 C1028 1.392 . S
C1029 H1041 0.929 . S
C1030 C1026 1.531 . S
C1030 H1042 0.960 . S
C1030 H1043 0.962 . S
C1030 H1044 0.960 . S
C1031 C1028 1.511 . S
C1031 H1045 0.961 . S
C1031 H1046 0.961 . S
C1031 H1047 0.961 . S
C1032 C1033 1.370 . S
C1032 C1034 1.363 . S
C1032 H1048 0.931 . S
C1033 C1032 1.370 . S
C1033 C1037 1.408 . S
C1034 C1032 1.363 . S
C1034 C1035 1.370 . S
C1034 C1038 1.524 . S
C1035 C1027 1.503 . S
C1035 C1034 1.370 . S
C1035 C1036 1.403 . S
C1036 C1035 1.403 . S
C1036 C1037 1.404 . S
C1036 C1039 1.539 . S
C1037 C1033 1.408 . S
C1037 C1036 1.404 . S
C1037 H1049 0.930 . S
C1038 C1034 1.524 . S
C1038 H1050 0.956 . S
C1038 H1051 0.961 . S
C1038 H1052 0.961 . S
C1039 C1036 1.539 . S
C1039 H1053 0.958 . S
C1039 H1054 0.961 . S
C1039 H1055 0.960 . S
H1040 C1024 0.931 . S
H1041 C1029 0.929 . S
H1042 C1030 0.960 . S
H1043 C1030 0.962 . S
H1044 C1030 0.960 . S
H1045 C1031 0.961 . S
H1046 C1031 0.961 . S
H1047 C1031 0.961 . S
H1048 C1032 0.931 . S
H1049 C1037 0.930 . S
H1050 C1038 0.956 . S
H1051 C1038 0.961 . S
H1052 C1038 0.961 . S
H1053 C1039 0.958 . S
H1054 C1039 0.961 . S
H1055 C1039 0.960 . S
C1056 C1057 1.391 . S
C1056 C1058 1.394 . S
C1056 H1072 0.931 . S
C1057 C1056 1.391 . S
C1057 C1061 1.376 . S
C1058 C1056 1.394 . S
C1058 C1059 1.369 . S
C1058 C1062 1.531 . S
C1059 C1058 1.369 . S
C1059 C1060 1.410 . S
C1059 C1067 1.503 1_554 S
C1060 C1059 1.410 . S
C1060 C1061 1.392 . S
C1060 C1063 1.511 . S
C1061 C1057 1.376 . S
C1061 C1060 1.392 . S
C1061 H1073 0.929 . S
C1062 C1058 1.531 . S
C1062 H1074 0.960 1_554 S
C1062 H1075 0.962 . S
C1062 H1076 0.960 . S
C1063 C1060 1.511 . S
C1063 H1077 0.961 . S
C1063 H1078 0.961 1_554 S
C1063 H1079 0.961 . S
C1064 C1065 1.370 . S
C1064 C1066 1.363 . S
C1064 H1080 0.931 . S
C1065 C1064 1.370 . S
C1065 C1069 1.408 . S
C1066 C1064 1.363 . S
C1066 C1067 1.370 . S
C1066 C1070 1.524 . S
C1067 C1059 1.503 1_556 S
C1067 C1066 1.370 . S
C1067 C1068 1.403 . S
C1068 C1067 1.403 . S
C1068 C1069 1.404 . S
C1068 C1071 1.539 . S
C1069 C1065 1.408 . S
C1069 C1068 1.404 . S
C1069 H1081 0.930 . S
C1070 C1066 1.524 . S
C1070 H1082 0.956 1_556 S
C1070 H1083 0.961 1_556 S
C1070 H1084 0.961 . S
C1071 C1068 1.539 . S
C1071 H1085 0.958 . S
C1071 H1086 0.961 . S
C1071 H1087 0.960 . S
H1072 C1056 0.931 . S
H1073 C1061 0.929 . S
H1074 C1062 0.960 1_556 S
H1075 C1062 0.962 . S
H1076 C1062 0.960 . S
H1077 C1063 0.961 . S
H1078 C1063 0.961 1_556 S
H1079 C1063 0.961 . S
H1080 C1064 0.931 . S
H1081 C1069 0.930 . S
H1082 C1070 0.956 1_554 S
H1083 C1070 0.961 1_554 S
H1084 C1070 0.961 . S
H1085 C1071 0.958 . S
H1086 C1071 0.961 . S
H1087 C1071 0.960 . S
C1088 C1089 1.391 . S
C1088 C1090 1.394 . S
C1088 H1104 0.931 . S
C1089 C1088 1.391 . S
C1089 C1093 1.376 . S
C1090 C1088 1.394 . S
C1090 C1091 1.369 . S
C1090 C1094 1.531 . S
C1091 C1090 1.369 . S
C1091 C1092 1.410 . S
C1091 C1099 1.503 1_556 S
C1092 C1091 1.410 . S
C1092 C1093 1.392 . S
C1092 C1095 1.511 . S
C1093 C1089 1.376 . S
C1093 C1092 1.392 . S
C1093 H1105 0.929 . S
C1094 C1090 1.531 . S
C1094 H1106 0.960 1_556 S
C1094 H1107 0.962 . S
C1094 H1108 0.960 . S
C1095 C1092 1.511 . S
C1095 H1109 0.961 . S
C1095 H1110 0.961 1_556 S
C1095 H1111 0.961 . S
C1096 C1097 1.370 . S
C1096 C1098 1.363 . S
C1096 H1112 0.931 . S
C1097 C1096 1.370 . S
C1097 C1101 1.408 . S
C1098 C1096 1.363 . S
C1098 C1099 1.370 . S
C1098 C1102 1.524 . S
C1099 C1091 1.503 1_554 S
C1099 C1098 1.370 . S
C1099 C1100 1.403 . S
C1100 C1099 1.403 . S
C1100 C1101 1.404 . S
C1100 C1103 1.539 . S
C1101 C1097 1.408 . S
C1101 C1100 1.404 . S
C1101 H1113 0.930 . S
C1102 C1098 1.524 . S
C1102 H1114 0.956 1_554 S
C1102 H1115 0.961 1_554 S
C1102 H1116 0.961 . S
C1103 C1100 1.539 . S
C1103 H1117 0.958 . S
C1103 H1118 0.961 . S
C1103 H1119 0.960 . S
H1104 C1088 0.931 . S
H1105 C1093 0.929 . S
H1106 C1094 0.960 1_554 S
H1107 C1094 0.962 . S
H1108 C1094 0.960 . S
H1109 C1095 0.961 . S
H1110 C1095 0.961 1_554 S
H1111 C1095 0.961 . S
H1112 C1096 0.931 . S
H1113 C1101 0.930 . S
H1114 C1102 0.956 1_556 S
H1115 C1102 0.961 1_556 S
H1116 C1102 0.961 . S
H1117 C1103 0.958 . S
H1118 C1103 0.961 . S
H1119 C1103 0.960 . S
C1120 C1121 1.391 . S
C1120 C1122 1.394 . S
C1120 H1136 0.931 . S
C1121 C1120 1.391 . S
C1121 C1125 1.376 . S
C1122 C1120 1.394 . S
C1122 C1123 1.369 . S
C1122 C1126 1.531 . S
C1123 C1122 1.369 . S
C1123 C1124 1.410 . S
C1123 C1131 1.503 1_556 S
C1124 C1123 1.410 . S
C1124 C1125 1.392 . S
C1124 C1127 1.511 . S
C1125 C1121 1.376 . S
C1125 C1124 1.392 . S
C1125 H1137 0.929 . S
C1126 C1122 1.531 . S
C1126 H1138 0.960 1_556 S
C1126 H1139 0.962 . S
C1126 H1140 0.960 . S
C1127 C1124 1.511 . S
C1127 H1141 0.961 . S
C1127 H1142 0.961 1_556 S
C1127 H1143 0.961 . S
C1128 C1129 1.370 . S
C1128 C1130 1.363 . S
C1128 H1144 0.931 . S
C1129 C1128 1.370 . S
C1129 C1133 1.408 . S
C1130 C1128 1.363 . S
C1130 C1131 1.370 . S
C1130 C1134 1.524 . S
C1131 C1123 1.503 1_554 S
C1131 C1130 1.370 . S
C1131 C1132 1.403 . S
C1132 C1131 1.403 . S
C1132 C1133 1.404 . S
C1132 C1135 1.539 . S
C1133 C1129 1.408 . S
C1133 C1132 1.404 . S
C1133 H1145 0.930 . S
C1134 C1130 1.524 . S
C1134 H1146 0.956 1_554 S
C1134 H1147 0.961 1_554 S
C1134 H1148 0.961 . S
C1135 C1132 1.539 . S
C1135 H1149 0.958 . S
C1135 H1150 0.961 . S
C1135 H1151 0.960 . S
H1136 C1120 0.931 . S
H1137 C1125 0.929 . S
H1138 C1126 0.960 1_554 S
H1139 C1126 0.962 . S
H1140 C1126 0.960 . S
H1141 C1127 0.961 . S
H1142 C1127 0.961 1_554 S
H1143 C1127 0.961 . S
H1144 C1128 0.931 . S
H1145 C1133 0.930 . S
H1146 C1134 0.956 1_556 S
H1147 C1134 0.961 1_556 S
H1148 C1134 0.961 . S
H1149 C1135 0.958 . S
H1150 C1135 0.961 . S
H1151 C1135 0.960 . S
C1152 C1153 1.391 . S
C1152 C1154 1.394 . S
C1152 H1168 0.931 . S
C1153 C1152 1.391 . S
C1153 C1157 1.376 . S
C1154 C1152 1.394 . S
C1154 C1155 1.369 . S
C1154 C1158 1.531 . S
C1155 C1154 1.369 . S
C1155 C1156 1.410 . S
C1155 C1163 1.503 1_556 S
C1156 C1155 1.410 . S
C1156 C1157 1.392 . S
C1156 C1159 1.511 . S
C1157 C1153 1.376 . S
C1157 C1156 1.392 . S
C1157 H1169 0.929 . S
C1158 C1154 1.531 . S
C1158 H1170 0.960 1_556 S
C1158 H1171 0.962 . S
C1158 H1172 0.960 . S
C1159 C1156 1.511 . S
C1159 H1173 0.961 . S
C1159 H1174 0.961 1_556 S
C1159 H1175 0.961 . S
C1160 C1161 1.370 . S
C1160 C1162 1.363 . S
C1160 H1176 0.931 . S
C1161 C1160 1.370 . S
C1161 C1165 1.408 . S
C1162 C1160 1.363 . S
C1162 C1163 1.370 . S
C1162 C1166 1.524 . S
C1163 C1155 1.503 1_554 S
C1163 C1162 1.370 . S
C1163 C1164 1.403 . S
C1164 C1163 1.403 . S
C1164 C1165 1.404 . S
C1164 C1167 1.539 . S
C1165 C1161 1.408 . S
C1165 C1164 1.404 . S
C1165 H1177 0.930 . S
C1166 C1162 1.524 . S
C1166 H1178 0.956 . S
C1166 H1179 0.977 . S
C1166 H1180 0.961 . S
C1167 C1164 1.539 . S
C1167 H1181 0.958 . S
C1167 H1182 0.961 . S
C1167 H1183 0.960 1_554 S
H1168 C1152 0.931 . S
H1169 C1157 0.929 . S
H1170 C1158 0.960 1_554 S
H1171 C1158 0.962 . S
H1172 C1158 0.960 . S
H1173 C1159 0.961 . S
H1174 C1159 0.961 1_554 S
H1175 C1159 0.961 . S
H1176 C1160 0.931 . S
H1177 C1165 0.930 . S
H1178 C1166 0.956 . S
H1179 C1166 0.977 . S
H1180 C1166 0.961 . S
H1181 C1167 0.958 . S
H1182 C1167 0.961 . S
H1183 C1167 0.960 1_556 S
C1184 C1185 1.391 . S
C1184 C1186 1.394 . S
C1184 H1200 0.931 . S
C1185 C1184 1.391 . S
C1185 C1189 1.376 . S
C1186 C1184 1.394 . S
C1186 C1187 1.369 . S
C1186 C1190 1.531 . S
C1187 C1186 1.369 . S
C1187 C1188 1.410 . S
C1187 C1195 1.503 . S
C1188 C1187 1.410 . S
C1188 C1189 1.392 . S
C1188 C1191 1.511 . S
C1189 C1185 1.376 . S
C1189 C1188 1.392 . S
C1189 H1201 0.929 . S
C1190 C1186 1.531 . S
C1190 H1202 0.960 . S
C1190 H1203 0.962 . S
C1190 H1204 0.960 . S
C1191 C1188 1.511 . S
C1191 H1205 0.961 . S
C1191 H1206 0.961 . S
C1191 H1207 0.961 . S
C1192 C1193 1.370 . S
C1192 C1194 1.363 . S
C1192 H1208 0.931 . S
C1193 C1192 1.370 . S
C1193 C1197 1.408 . S
C1194 C1192 1.363 . S
C1194 C1195 1.370 . S
C1194 C1198 1.524 . S
C1195 C1187 1.503 . S
C1195 C1194 1.370 . S
C1195 C1196 1.403 . S
C1196 C1195 1.403 . S
C1196 C1197 1.404 . S
C1196 C1199 1.539 . S
C1197 C1193 1.408 . S
C1197 C1196 1.404 . S
C1197 H1209 0.930 . S
C1198 C1194 1.524 . S
C1198 H1210 0.956 . S
C1198 H1211 0.961 . S
C1198 H1212 0.961 . S
C1199 C1196 1.539 . S
C1199 H1213 0.958 . S
C1199 H1214 0.961 . S
C1199 H1215 0.960 . S
H1200 C1184 0.931 . S
H1201 C1189 0.929 . S
H1202 C1190 0.960 . S
H1203 C1190 0.962 . S
H1204 C1190 0.960 . S
H1205 C1191 0.961 . S
H1206 C1191 0.961 . S
H1207 C1191 0.961 . S
H1208 C1192 0.931 . S
H1209 C1197 0.930 . S
H1210 C1198 0.956 . S
H1211 C1198 0.961 . S
H1212 C1198 0.961 . S
H1213 C1199 0.958 . S
H1214 C1199 0.961 . S
H1215 C1199 0.960 . S
C1216 C1217 1.391 . S
C1216 C1218 1.394 . S
C1216 H1232 0.931 . S
C1217 C1216 1.391 . S
C1217 C1221 1.376 . S
C1218 C1216 1.394 . S
C1218 C1219 1.369 . S
C1218 C1222 1.531 . S
C1219 C1218 1.369 . S
C1219 C1220 1.410 . S
C1219 C1227 1.503 . S
C1220 C1219 1.410 . S
C1220 C1221 1.392 . S
C1220 C1223 1.511 . S
C1221 C1217 1.376 . S
C1221 C1220 1.392 . S
C1221 H1233 0.929 . S
C1222 C1218 1.531 . S
C1222 H1234 0.960 . S
C1222 H1235 0.962 . S
C1222 H1236 0.960 . S
C1223 C1220 1.511 . S
C1223 H1237 0.961 . S
C1223 H1238 0.961 . S
C1223 H1239 0.961 . S
C1224 C1225 1.370 . S
C1224 C1226 1.363 . S
C1224 H1240 0.931 . S
C1225 C1224 1.370 . S
C1225 C1229 1.408 . S
C1226 C1224 1.363 . S
C1226 C1227 1.370 . S
C1226 C1230 1.524 . S
C1227 C1219 1.503 . S
C1227 C1226 1.370 . S
C1227 C1228 1.403 . S
C1228 C1227 1.403 . S
C1228 C1229 1.404 . S
C1228 C1231 1.539 . S
C1229 C1225 1.408 . S
C1229 C1228 1.404 . S
C1229 H1241 0.930 . S
C1230 C1226 1.524 . S
C1230 H1242 0.956 . S
C1230 H1243 0.961 . S
C1230 H1244 0.961 . S
C1231 C1228 1.539 . S
C1231 H1245 0.958 . S
C1231 H1246 0.961 . S
C1231 H1247 0.960 . S
H1232 C1216 0.931 . S
H1233 C1221 0.929 . S
H1234 C1222 0.960 . S
H1235 C1222 0.962 . S
H1236 C1222 0.960 . S
H1237 C1223 0.961 . S
H1238 C1223 0.961 . S
H1239 C1223 0.961 . S
H1240 C1224 0.931 . S
H1241 C1229 0.930 . S
H1242 C1230 0.956 . S
H1243 C1230 0.961 . S
H1244 C1230 0.961 . S
H1245 C1231 0.958 . S
H1246 C1231 0.961 . S
H1247 C1231 0.960 . S
C1248 C1249 1.391 . S
C1248 C1250 1.394 . S
C1248 H1264 0.931 . S
C1249 C1248 1.391 . S
C1249 C1253 1.376 . S
C1250 C1248 1.394 . S
C1250 C1251 1.369 . S
C1250 C1254 1.531 . S
C1251 C1250 1.369 . S
C1251 C1252 1.410 . S
C1251 C1259 1.503 . S
C1252 C1251 1.410 . S
C1252 C1253 1.392 . S
C1252 C1255 1.511 . S
C1253 C1249 1.376 . S
C1253 C1252 1.392 . S
C1253 H1265 0.929 . S
C1254 C1250 1.531 . S
C1254 H1266 0.960 . S
C1254 H1267 0.962 . S
C1254 H1268 0.960 . S
C1255 C1252 1.511 . S
C1255 H1269 0.961 . S
C1255 H1270 0.961 . S
C1255 H1271 0.961 . S
C1256 C1257 1.370 . S
C1256 C1258 1.363 . S
C1256 H1272 0.931 . S
C1257 C1256 1.370 . S
C1257 C1261 1.408 . S
C1258 C1256 1.363 . S
C1258 C1259 1.370 . S
C1258 C1262 1.524 . S
C1259 C1251 1.503 . S
C1259 C1258 1.370 . S
C1259 C1260 1.403 . S
C1260 C1259 1.403 . S
C1260 C1261 1.404 . S
C1260 C1263 1.539 . S
C1261 C1257 1.408 . S
C1261 C1260 1.404 . S
C1261 H1273 0.930 . S
C1262 C1258 1.524 . S
C1262 H1274 0.956 . S
C1262 H1275 0.961 . S
C1262 H1276 0.961 . S
C1263 C1260 1.539 . S
C1263 H1277 0.958 . S
C1263 H1278 0.961 . S
C1263 H1279 0.960 . S
H1264 C1248 0.931 . S
H1265 C1253 0.929 . S
H1266 C1254 0.960 . S
H1267 C1254 0.962 . S
H1268 C1254 0.960 . S
H1269 C1255 0.961 . S
H1270 C1255 0.961 . S
H1271 C1255 0.961 . S
H1272 C1256 0.931 . S
H1273 C1261 0.930 . S
H1274 C1262 0.956 . S
H1275 C1262 0.961 . S
H1276 C1262 0.961 . S
H1277 C1263 0.958 . S
H1278 C1263 0.961 . S
H1279 C1263 0.960 . S
C1280 C1281 1.391 . S
C1280 C1282 1.394 . S
C1280 H1296 0.931 . S
C1281 C1280 1.391 . S
C1281 C1285 1.376 . S
C1282 C1280 1.394 . S
C1282 C1283 1.369 . S
C1282 C1286 1.531 . S
C1283 C1282 1.369 . S
C1283 C1284 1.410 . S
C1283 C1291 1.503 . S
C1284 C1283 1.410 . S
C1284 C1285 1.392 . S
C1284 C1287 1.511 . S
C1285 C1281 1.376 . S
C1285 C1284 1.392 . S
C1285 H1297 0.929 . S
C1286 C1282 1.531 . S
C1286 H1298 0.960 . S
C1286 H1299 0.962 . S
C1286 H1300 0.960 . S
C1287 C1284 1.511 . S
C1287 H1301 0.961 . S
C1287 H1302 0.961 . S
C1287 H1303 0.961 . S
C1288 C1289 1.370 . S
C1288 C1290 1.363 . S
C1288 H1304 0.931 . S
C1289 C1288 1.370 . S
C1289 C1293 1.408 . S
C1290 C1288 1.363 . S
C1290 C1291 1.370 . S
C1290 C1294 1.524 . S
C1291 C1283 1.503 . S
C1291 C1290 1.370 . S
C1291 C1292 1.403 . S
C1292 C1291 1.403 . S
C1292 C1293 1.404 . S
C1292 C1295 1.539 . S
C1293 C1289 1.408 . S
C1293 C1292 1.404 . S
C1293 H1305 0.930 . S
C1294 C1290 1.524 . S
C1294 H1306 0.956 . S
C1294 H1307 0.961 . S
C1294 H1308 0.961 . S
C1295 C1292 1.539 . S
C1295 H1309 0.958 . S
C1295 H1310 0.961 . S
C1295 H1311 0.960 . S
H1296 C1280 0.931 . S
H1297 C1285 0.929 . S
H1298 C1286 0.960 . S
H1299 C1286 0.962 . S
H1300 C1286 0.960 . S
H1301 C1287 0.961 . S
H1302 C1287 0.961 . S
H1303 C1287 0.961 . S
H1304 C1288 0.931 . S
H1305 C1293 0.930 . S
H1306 C1294 0.956 . S
H1307 C1294 0.961 . S
H1308 C1294 0.961 . S
H1309 C1295 0.958 . S
H1310 C1295 0.961 . S
H1311 C1295 0.960 . S
C1312 C1313 1.391 . S
C1312 C1314 1.394 . S
C1312 H1328 0.931 . S
C1313 C1312 1.391 . S
C1313 C1317 1.376 . S
C1314 C1312 1.394 . S
C1314 C1315 1.369 . S
C1314 C1318 1.531 . S
C1315 C1314 1.369 . S
C1315 C1316 1.410 . S
C1315 C1323 1.503 . S
C1316 C1315 1.410 . S
C1316 C1317 1.392 . S
C1316 C1319 1.511 . S
C1317 C1313 1.376 . S
C1317 C1316 1.392 . S
C1317 H1329 0.929 . S
C1318 C1314 1.531 . S
C1318 H1330 0.960 . S
C1318 H1331 0.962 . S
C1318 H1332 0.960 . S
C1319 C1316 1.511 . S
C1319 H1333 0.961 . S
C1319 H1334 0.961 . S
C1319 H1335 0.961 . S
C1320 C1321 1.370 . S
C1320 C1322 1.363 . S
C1320 H1336 0.931 . S
C1321 C1320 1.370 . S
C1321 C1325 1.408 . S
C1322 C1320 1.363 . S
C1322 C1323 1.370 . S
C1322 C1326 1.524 . S
C1323 C1315 1.503 . S
C1323 C1322 1.370 . S
C1323 C1324 1.403 . S
C1324 C1323 1.403 . S
C1324 C1325 1.404 . S
C1324 C1327 1.539 . S
C1325 C1321 1.408 . S
C1325 C1324 1.404 . S
C1325 H1337 0.930 . S
C1326 C1322 1.524 . S
C1326 H1338 0.956 . S
C1326 H1339 0.961 . S
C1326 H1340 0.961 . S
C1327 C1324 1.539 . S
C1327 H1341 0.958 . S
C1327 H1342 0.961 . S
C1327 H1343 0.960 . S
H1328 C1312 0.931 . S
H1329 C1317 0.929 . S
H1330 C1318 0.960 . S
H1331 C1318 0.962 . S
H1332 C1318 0.960 . S
H1333 C1319 0.961 . S
H1334 C1319 0.961 . S
H1335 C1319 0.961 . S
H1336 C1320 0.931 . S
H1337 C1325 0.930 . S
H1338 C1326 0.956 . S
H1339 C1326 0.961 . S
H1340 C1326 0.961 . S
H1341 C1327 0.958 . S
H1342 C1327 0.961 . S
H1343 C1327 0.960 . S
C1344 C1345 1.391 . S
C1344 C1346 1.394 . S
C1344 H1360 0.931 . S
C1345 C1344 1.391 . S
C1345 C1349 1.376 . S
C1346 C1344 1.394 . S
C1346 C1347 1.369 . S
C1346 C1350 1.531 . S
C1347 C1346 1.369 . S
C1347 C1348 1.410 . S
C1347 C1355 1.503 . S
C1348 C1347 1.410 . S
C1348 C1349 1.392 . S
C1348 C1351 1.511 . S
C1349 C1345 1.376 . S
C1349 C1348 1.392 . S
C1349 H1361 0.929 . S
C1350 C1346 1.531 . S
C1350 H1362 0.960 . S
C1350 H1363 0.962 . S
C1350 H1364 0.960 . S
C1351 C1348 1.511 . S
C1351 H1365 0.961 . S
C1351 H1366 0.961 . S
C1351 H1367 0.961 . S
C1352 C1353 1.370 . S
C1352 C1354 1.363 . S
C1352 H1368 0.931 . S
C1353 C1352 1.370 . S
C1353 C1357 1.408 . S
C1354 C1352 1.363 . S
C1354 C1355 1.370 . S
C1354 C1358 1.524 . S
C1355 C1347 1.503 . S
C1355 C1354 1.370 . S
C1355 C1356 1.403 . S
C1356 C1355 1.403 . S
C1356 C1357 1.404 . S
C1356 C1359 1.539 . S
C1357 C1353 1.408 . S
C1357 C1356 1.404 . S
C1357 H1369 0.930 . S
C1358 C1354 1.524 . S
C1358 H1370 0.956 . S
C1358 H1371 0.961 . S
C1358 H1372 0.961 . S
C1359 C1356 1.539 . S
C1359 H1373 0.958 . S
C1359 H1374 0.961 . S
C1359 H1375 0.960 . S
H1360 C1344 0.931 . S
H1361 C1349 0.929 . S
H1362 C1350 0.960 . S
H1363 C1350 0.962 . S
H1364 C1350 0.960 . S
H1365 C1351 0.961 . S
H1366 C1351 0.961 . S
H1367 C1351 0.961 . S
H1368 C1352 0.931 . S
H1369 C1357 0.930 . S
H1370 C1358 0.956 . S
H1371 C1358 0.961 . S
H1372 C1358 0.961 . S
H1373 C1359 0.958 . S
H1374 C1359 0.961 . S
H1375 C1359 0.960 . S
C1376 C1377 1.391 . S
C1376 C1378 1.394 . S
C1376 H1392 0.931 . S
C1377 C1376 1.391 . S
C1377 C1381 1.376 . S
C1378 C1376 1.394 . S
C1378 C1379 1.369 . S
C1378 C1382 1.531 . S
C1379 C1378 1.369 . S
C1379 C1380 1.410 . S
C1379 C1387 1.503 . S
C1380 C1379 1.410 . S
C1380 C1381 1.392 . S
C1380 C1383 1.511 . S
C1381 C1377 1.376 . S
C1381 C1380 1.392 . S
C1381 H1393 0.929 . S
C1382 C1378 1.531 . S
C1382 H1394 0.960 . S
C1382 H1395 0.962 . S
C1382 H1396 0.960 . S
C1383 C1380 1.511 . S
C1383 H1397 0.961 . S
C1383 H1398 0.961 . S
C1383 H1399 0.961 . S
C1384 C1385 1.370 . S
C1384 C1386 1.363 . S
C1384 H1400 0.931 . S
C1385 C1384 1.370 . S
C1385 C1389 1.408 . S
C1386 C1384 1.363 . S
C1386 C1387 1.370 . S
C1386 C1390 1.524 . S
C1387 C1379 1.503 . S
C1387 C1386 1.370 . S
C1387 C1388 1.403 . S
C1388 C1387 1.403 . S
C1388 C1389 1.404 . S
C1388 C1391 1.539 . S
C1389 C1385 1.408 . S
C1389 C1388 1.404 . S
C1389 H1401 0.930 . S
C1390 C1386 1.524 . S
C1390 H1402 0.956 . S
C1390 H1403 0.961 . S
C1390 H1404 0.961 . S
C1391 C1388 1.539 . S
C1391 H1405 0.958 . S
C1391 H1406 0.961 . S
C1391 H1407 0.960 . S
H1392 C1376 0.931 . S
H1393 C1381 0.929 . S
H1394 C1382 0.960 . S
H1395 C1382 0.962 . S
H1396 C1382 0.960 . S
H1397 C1383 0.961 . S
H1398 C1383 0.961 . S
H1399 C1383 0.961 . S
H1400 C1384 0.931 . S
H1401 C1389 0.930 . S
H1402 C1390 0.956 . S
H1403 C1390 0.961 . S
H1404 C1390 0.961 . S
H1405 C1391 0.958 . S
H1406 C1391 0.961 . S
H1407 C1391 0.960 . S
C1408 C1409 1.391 . S
C1408 C1410 1.394 . S
C1408 H1424 0.931 . S
C1409 C1408 1.391 . S
C1409 C1413 1.376 . S
C1410 C1408 1.394 . S
C1410 C1411 1.369 . S
C1410 C1414 1.531 . S
C1411 C1410 1.369 . S
C1411 C1412 1.410 . S
C1411 C1419 1.503 . S
C1412 C1411 1.410 . S
C1412 C1413 1.392 . S
C1412 C1415 1.511 . S
C1413 C1409 1.376 . S
C1413 C1412 1.392 . S
C1413 H1425 0.929 . S
C1414 C1410 1.531 . S
C1414 H1426 0.960 . S
C1414 H1427 0.962 . S
C1414 H1428 0.960 . S
C1415 C1412 1.511 . S
C1415 H1429 0.961 . S
C1415 H1430 0.961 . S
C1415 H1431 0.961 . S
C1416 C1417 1.370 . S
C1416 C1418 1.363 . S
C1416 H1432 0.931 . S
C1417 C1416 1.370 . S
C1417 C1421 1.408 . S
C1418 C1416 1.363 . S
C1418 C1419 1.370 . S
C1418 C1422 1.524 . S
C1419 C1411 1.503 . S
C1419 C1418 1.370 . S
C1419 C1420 1.403 . S
C1420 C1419 1.403 . S
C1420 C1421 1.404 . S
C1420 C1423 1.539 . S
C1421 C1417 1.408 . S
C1421 C1420 1.404 . S
C1421 H1433 0.930 . S
C1422 C1418 1.524 . S
C1422 H1434 0.956 . S
C1422 H1435 0.961 . S
C1422 H1436 0.961 . S
C1423 C1420 1.539 . S
C1423 H1437 0.958 . S
C1423 H1438 0.961 . S
C1423 H1439 0.960 . S
H1424 C1408 0.931 . S
H1425 C1413 0.929 . S
H1426 C1414 0.960 . S
H1427 C1414 0.962 . S
H1428 C1414 0.960 . S
H1429 C1415 0.961 . S
H1430 C1415 0.961 . S
H1431 C1415 0.961 . S
H1432 C1416 0.931 . S
H1433 C1421 0.930 . S
H1434 C1422 0.956 . S
H1435 C1422 0.961 . S
H1436 C1422 0.961 . S
H1437 C1423 0.958 . S
H1438 C1423 0.961 . S
H1439 C1423 0.960 . S
C1440 C1441 1.391 . S
C1440 C1442 1.394 . S
C1440 H1456 0.931 . S
C1441 C1440 1.391 . S
C1441 C1445 1.376 . S
C1442 C1440 1.394 . S
C1442 C1443 1.369 . S
C1442 C1446 1.531 . S
C1443 C1442 1.369 . S
C1443 C1444 1.410 . S
C1443 C1451 1.503 . S
C1444 C1443 1.410 . S
C1444 C1445 1.392 . S
C1444 C1447 1.511 . S
C1445 C1441 1.376 . S
C1445 C1444 1.392 . S
C1445 H1457 0.929 . S
C1446 C1442 1.531 . S
C1446 H1458 0.960 . S
C1446 H1459 0.962 . S
C1446 H1460 0.960 . S
C1447 C1444 1.511 . S
C1447 H1461 0.961 . S
C1447 H1462 0.961 . S
C1447 H1463 0.961 . S
C1448 C1449 1.370 . S
C1448 C1450 1.363 . S
C1448 H1464 0.931 . S
C1449 C1448 1.370 . S
C1449 C1453 1.408 . S
C1450 C1448 1.363 . S
C1450 C1451 1.370 . S
C1450 C1454 1.524 . S
C1451 C1443 1.503 . S
C1451 C1450 1.370 . S
C1451 C1452 1.403 . S
C1452 C1451 1.403 . S
C1452 C1453 1.404 . S
C1452 C1455 1.539 . S
C1453 C1449 1.408 . S
C1453 C1452 1.404 . S
C1453 H1465 0.930 . S
C1454 C1450 1.524 . S
C1454 H1466 0.956 . S
C1454 H1467 0.961 . S
C1454 H1468 0.961 . S
C1455 C1452 1.539 . S
C1455 H1469 0.958 . S
C1455 H1470 0.961 . S
C1455 H1471 0.960 . S
H1456 C1440 0.931 . S
H1457 C1445 0.929 . S
H1458 C1446 0.960 . S
H1459 C1446 0.962 . S
H1460 C1446 0.960 . S
H1461 C1447 0.961 . S
H1462 C1447 0.961 . S
H1463 C1447 0.961 . S
H1464 C1448 0.931 . S
H1465 C1453 0.930 . S
H1466 C1454 0.956 . S
H1467 C1454 0.961 . S
H1468 C1454 0.961 . S
H1469 C1455 0.958 . S
H1470 C1455 0.961 . S
H1471 C1455 0.960 . S
C1472 C1473 1.391 . S
C1472 C1474 1.394 . S
C1472 H1488 0.931 . S
C1473 C1472 1.391 . S
C1473 C1477 1.376 . S
C1474 C1472 1.394 . S
C1474 C1475 1.369 . S
C1474 C1478 1.531 . S
C1475 C1474 1.369 . S
C1475 C1476 1.410 . S
C1475 C1483 1.503 . S
C1476 C1475 1.410 . S
C1476 C1477 1.392 . S
C1476 C1479 1.511 . S
C1477 C1473 1.376 . S
C1477 C1476 1.392 . S
C1477 H1489 0.929 . S
C1478 C1474 1.531 . S
C1478 H1490 0.960 . S
C1478 H1491 0.962 . S
C1478 H1492 0.960 . S
C1479 C1476 1.511 . S
C1479 H1493 0.961 . S
C1479 H1494 0.961 . S
C1479 H1495 0.961 . S
C1480 C1481 1.370 . S
C1480 C1482 1.363 . S
C1480 H1496 0.931 . S
C1481 C1480 1.370 . S
C1481 C1485 1.408 . S
C1482 C1480 1.363 . S
C1482 C1483 1.370 . S
C1482 C1486 1.524 . S
C1483 C1475 1.503 . S
C1483 C1482 1.370 . S
C1483 C1484 1.403 . S
C1484 C1483 1.403 . S
C1484 C1485 1.404 . S
C1484 C1487 1.539 . S
C1485 C1481 1.408 . S
C1485 C1484 1.404 . S
C1485 H1497 0.930 . S
C1486 C1482 1.524 . S
C1486 H1498 0.956 . S
C1486 H1499 0.961 . S
C1486 H1500 0.961 . S
C1487 C1484 1.539 . S
C1487 H1501 0.958 . S
C1487 H1502 0.961 . S
C1487 H1503 0.960 . S
H1488 C1472 0.931 . S
H1489 C1477 0.929 . S
H1490 C1478 0.960 . S
H1491 C1478 0.962 . S
H1492 C1478 0.960 . S
H1493 C1479 0.961 . S
H1494 C1479 0.961 . S
H1495 C1479 0.961 . S
H1496 C1480 0.931 . S
H1497 C1485 0.930 . S
H1498 C1486 0.956 . S
H1499 C1486 0.961 . S
H1500 C1486 0.961 . S
H1501 C1487 0.958 . S
H1502 C1487 0.961 . S
H1503 C1487 0.960 . S
C1504 C1505 1.391 . S
C1504 C1506 1.394 . S
C1504 H1520 0.931 . S
C1505 C1504 1.391 . S
C1505 C1509 1.376 . S
C1506 C1504 1.394 . S
C1506 C1507 1.369 . S
C1506 C1510 1.531 . S
C1507 C1506 1.369 . S
C1507 C1508 1.410 . S
C1507 C1515 1.503 . S
C1508 C1507 1.410 . S
C1508 C1509 1.392 . S
C1508 C1511 1.511 . S
C1509 C1505 1.376 . S
C1509 C1508 1.392 . S
C1509 H1521 0.929 . S
C1510 C1506 1.531 . S
C1510 H1522 0.960 . S
C1510 H1523 0.962 . S
C1510 H1524 0.960 . S
C1511 C1508 1.511 . S
C1511 H1525 0.961 . S
C1511 H1526 0.961 . S
C1511 H1527 0.961 . S
C1512 C1513 1.370 . S
C1512 C1514 1.363 . S
C1512 H1528 0.931 . S
C1513 C1512 1.370 . S
C1513 C1517 1.408 . S
C1514 C1512 1.363 . S
C1514 C1515 1.370 . S
C1514 C1518 1.524 . S
C1515 C1507 1.503 . S
C1515 C1514 1.370 . S
C1515 C1516 1.403 . S
C1516 C1515 1.403 . S
C1516 C1517 1.404 . S
C1516 C1519 1.539 . S
C1517 C1513 1.408 . S
C1517 C1516 1.404 . S
C1517 H1529 0.930 . S
C1518 C1514 1.524 . S
C1518 H1530 0.956 . S
C1518 H1531 0.961 . S
C1518 H1532 0.961 . S
C1519 C1516 1.539 . S
C1519 H1533 0.958 . S
C1519 H1534 0.961 . S
C1519 H1535 0.960 . S
H1520 C1504 0.931 . S
H1521 C1509 0.929 . S
H1522 C1510 0.960 . S
H1523 C1510 0.962 . S
H1524 C1510 0.960 . S
H1525 C1511 0.961 . S
H1526 C1511 0.961 . S
H1527 C1511 0.961 . S
H1528 C1512 0.931 . S
H1529 C1517 0.930 . S
H1530 C1518 0.956 . S
H1531 C1518 0.961 . S
H1532 C1518 0.961 . S
H1533 C1519 0.958 . S
H1534 C1519 0.961 . S
H1535 C1519 0.960 . S
C1536 C1537 1.391 . S
C1536 C1538 1.394 . S
C1536 H1552 0.931 . S
C1537 C1536 1.391 . S
C1537 C1541 1.376 . S
C1538 C1536 1.394 . S
C1538 C1539 1.369 . S
C1538 C1542 1.531 . S
C1539 C1538 1.369 . S
C1539 C1540 1.410 . S
C1539 C1547 1.503 . S
C1540 C1539 1.410 . S
C1540 C1541 1.392 . S
C1540 C1543 1.511 . S
C1541 C1537 1.376 . S
C1541 C1540 1.392 . S
C1541 H1553 0.929 . S
C1542 C1538 1.531 . S
C1542 H1554 0.960 . S
C1542 H1555 0.962 . S
C1542 H1556 0.960 . S
C1543 C1540 1.511 . S
C1543 H1557 0.961 . S
C1543 H1558 0.961 . S
C1543 H1559 0.961 . S
C1544 C1545 1.370 . S
C1544 C1546 1.363 . S
C1544 H1560 0.931 . S
C1545 C1544 1.370 . S
C1545 C1549 1.408 . S
C1546 C1544 1.363 . S
C1546 C1547 1.370 . S
C1546 C1550 1.524 . S
C1547 C1539 1.503 . S
C1547 C1546 1.370 . S
C1547 C1548 1.403 . S
C1548 C1547 1.403 . S
C1548 C1549 1.404 . S
C1548 C1551 1.539 . S
C1549 C1545 1.408 . S
C1549 C1548 1.404 . S
C1549 H1561 0.930 . S
C1550 C1546 1.524 . S
C1550 H1562 0.956 . S
C1550 H1563 0.961 . S
C1550 H1564 0.961 . S
C1551 C1548 1.539 . S
C1551 H1565 0.958 . S
C1551 H1566 0.961 . S
C1551 H1567 0.960 . S
H1552 C1536 0.931 . S
H1553 C1541 0.929 . S
H1554 C1542 0.960 . S
H1555 C1542 0.962 . S
H1556 C1542 0.960 . S
H1557 C1543 0.961 . S
H1558 C1543 0.961 . S
H1559 C1543 0.961 . S
H1560 C1544 0.931 . S
H1561 C1549 0.930 . S
H1562 C1550 0.956 . S
H1563 C1550 0.961 . S
H1564 C1550 0.961 . S
H1565 C1551 0.958 . S
H1566 C1551 0.961 . S
H1567 C1551 0.960 . S
C1568 C1569 1.391 . S
C1568 C1570 1.394 . S
C1568 H1584 0.931 . S
C1569 C1568 1.391 . S
C1569 C1573 1.376 . S
C1570 C1568 1.394 . S
C1570 C1571 1.369 . S
C1570 C1574 1.531 . S
C1571 C1570 1.369 . S
C1571 C1572 1.410 . S
C1571 C1579 1.503 1_545 S
C1572 C1571 1.410 . S
C1572 C1573 1.392 . S
C1572 C1575 1.511 1_545 S
C1573 C1569 1.376 . S
C1573 C1572 1.392 . S
C1573 H1585 0.929 . S
C1574 C1570 1.531 . S
C1574 H1586 0.960 . S
C1574 H1587 0.962 . S
C1574 H1588 0.960 . S
C1575 C1572 1.511 1_565 S
C1575 H1589 0.961 1_565 S
C1575 H1590 0.962 . S
C1575 H1591 0.960 1_565 S
C1576 C1577 1.370 . S
C1576 C1578 1.363 . S
C1576 H1592 0.931 . S
C1577 C1576 1.370 . S
C1577 C1581 1.408 . S
C1578 C1576 1.363 . S
C1578 C1579 1.370 . S
C1578 C1582 1.524 . S
C1579 C1571 1.503 1_565 S
C1579 C1578 1.370 . S
C1579 C1580 1.403 . S
C1580 C1579 1.403 . S
C1580 C1581 1.404 . S
C1580 C1583 1.539 1_565 S
C1581 C1577 1.408 . S
C1581 C1580 1.404 . S
C1581 H1593 0.930 . S
C1582 C1578 1.524 . S
C1582 H1594 0.956 . S
C1582 H1595 0.961 . S
C1582 H1596 0.961 . S
C1583 C1580 1.539 1_545 S
C1583 H1597 0.958 . S
C1583 H1598 0.961 1_545 S
C1583 H1599 0.960 . S
H1584 C1568 0.931 . S
H1585 C1573 0.929 . S
H1586 C1574 0.960 . S
H1587 C1574 0.962 . S
H1588 C1574 0.960 . S
H1589 C1575 0.961 1_545 S
H1590 C1575 0.962 . S
H1591 C1575 0.960 1_545 S
H1592 C1576 0.931 . S
H1593 C1581 0.930 . S
H1594 C1582 0.956 . S
H1595 C1582 0.961 . S
H1596 C1582 0.961 . S
H1597 C1583 0.958 . S
H1598 C1583 0.961 1_565 S
H1599 C1583 0.960 . S
C1600 C1601 1.391 . S
C1600 C1602 1.394 . S
C1600 H1616 0.931 . S
C1601 C1600 1.391 . S
C1601 C1605 1.376 . S
C1602 C1600 1.394 . S
C1602 C1603 1.369 . S
C1602 C1606 1.531 1_655 S
C1603 C1602 1.369 . S
C1603 C1604 1.410 . S
C1603 C1611 1.503 1_655 S
C1604 C1603 1.410 . S
C1604 C1605 1.392 . S
C1604 C1607 1.511 . S
C1605 C1601 1.376 . S
C1605 C1604 1.392 . S
C1605 H1617 0.929 . S
C1606 C1602 1.531 1_455 S
C1606 H1618 0.960 . S
C1606 H1619 0.962 . S
C1606 H1620 0.960 1_455 S
C1607 C1604 1.511 . S
C1607 H1621 0.961 . S
C1607 H1622 0.961 . S
C1607 H1623 0.961 . S
C1608 C1609 1.370 . S
C1608 C1610 1.363 . S
C1608 H1624 0.931 . S
C1609 C1608 1.370 . S
C1609 C1613 1.408 . S
C1610 C1608 1.363 . S
C1610 C1611 1.370 . S
C1610 C1614 1.524 . S
C1611 C1603 1.503 1_455 S
C1611 C1610 1.370 . S
C1611 C1612 1.403 . S
C1612 C1611 1.403 . S
C1612 C1613 1.404 . S
C1612 C1615 1.539 1_455 S
C1613 C1609 1.408 . S
C1613 C1612 1.404 . S
C1613 H1625 0.930 . S
C1614 C1610 1.524 . S
C1614 H1626 0.956 . S
C1614 H1627 0.961 . S
C1614 H1628 0.961 . S
C1615 C1612 1.539 1_655 S
C1615 H1629 0.958 . S
C1615 H1630 0.961 . S
C1615 H1631 0.960 . S
H1616 C1600 0.931 . S
H1617 C1605 0.929 . S
H1618 C1606 0.960 . S
H1619 C1606 0.962 . S
H1620 C1606 0.960 1_655 S
H1621 C1607 0.961 . S
H1622 C1607 0.961 . S
H1623 C1607 0.961 . S
H1624 C1608 0.931 . S
H1625 C1613 0.930 . S
H1626 C1614 0.956 . S
H1627 C1614 0.961 . S
H1628 C1614 0.961 . S
H1629 C1615 0.958 . S
H1630 C1615 0.961 . S
H1631 C1615 0.960 . S
C1632 C1633 1.391 . S
C1632 C1634 1.394 . S
C1632 H1648 0.931 . S
C1633 C1632 1.391 . S
C1633 C1637 1.376 . S
C1634 C1632 1.394 . S
C1634 C1635 1.369 . S
C1634 C1638 1.531 . S
C1635 C1634 1.369 . S
C1635 C1636 1.410 . S
C1635 C1643 1.503 1_545 S
C1636 C1635 1.410 . S
C1636 C1637 1.392 . S
C1636 C1639 1.511 . S
C1637 C1633 1.376 . S
C1637 C1636 1.392 . S
C1637 H1649 0.929 . S
C1638 C1634 1.531 . S
C1638 H1650 0.960 1_545 S
C1638 H1651 0.962 . S
C1638 H1652 0.960 . S
C1639 C1636 1.511 . S
C1639 H1653 0.961 . S
C1639 H1654 0.961 1_545 S
C1639 H1655 0.961 1_545 S
C1640 C1641 1.370 . S
C1640 C1642 1.363 . S
C1640 H1656 0.931 . S
C1641 C1640 1.370 . S
C1641 C1645 1.408 . S
C1642 C1640 1.363 . S
C1642 C1643 1.370 . S
C1642 C1646 1.524 1_565 S
C1643 C1635 1.503 1_565 S
C1643 C1642 1.370 . S
C1643 C1644 1.403 . S
C1644 C1643 1.403 . S
C1644 C1645 1.404 . S
C1644 C1647 1.539 . S
C1645 C1641 1.408 . S
C1645 C1644 1.404 . S
C1645 H1657 0.930 . S
C1646 C1642 1.524 1_545 S
C1646 H1658 0.956 . S
C1646 H1659 0.961 . S
C1646 H1660 0.961 . S
C1647 C1644 1.539 . S
C1647 H1661 0.958 . S
C1647 H1662 0.961 . S
C1647 H1663 0.960 . S
H1648 C1632 0.931 . S
H1649 C1637 0.929 . S
H1650 C1638 0.960 1_565 S
H1651 C1638 0.962 . S
H1652 C1638 0.960 . S
H1653 C1639 0.961 . S
H1654 C1639 0.961 1_565 S
H1655 C1639 0.961 1_565 S
H1656 C1640 0.931 . S
H1657 C1645 0.930 . S
H1658 C1646 0.956 . S
H1659 C1646 0.961 . S
H1660 C1646 0.961 . S
H1661 C1647 0.958 . S
H1662 C1647 0.961 . S
H1663 C1647 0.960 . S
C1664 C1665 1.391 . S
C1664 C1666 1.394 . S
C1664 H1680 0.931 . S
C1665 C1664 1.391 . S
C1665 C1669 1.376 . S
C1666 C1664 1.394 . S
C1666 C1667 1.369 . S
C1666 C1670 1.531 . S
C1667 C1666 1.369 . S
C1667 C1668 1.410 . S
C1667 C1675 1.503 1_655 S
C1668 C1667 1.410 . S
C1668 C1669 1.392 . S
C1668 C1671 1.511 1_655 S
C1669 C1665 1.376 . S
C1669 C1668 1.392 . S
C1669 H1681 0.929 . S
C1670 C1666 1.531 . S
C1670 H1682 0.960 . S
C1670 H1683 0.962 . S
C1670 H1684 0.960 . S
C1671 C1668 1.511 1_455 S
C1671 H1685 0.961 . S
C1671 H1686 0.961 . S
C1671 H1687 0.961 . S
C1672 C1673 1.370 . S
C1672 C1674 1.363 . S
C1672 H1688 0.931 . S
C1673 C1672 1.370 . S
C1673 C1677 1.408 . S
C1674 C1672 1.363 . S
C1674 C1675 1.370 . S
C1674 C1678 1.524 . S
C1675 C1667 1.503 1_455 S
C1675 C1674 1.370 . S
C1675 C1676 1.403 . S
C1676 C1675 1.403 . S
C1676 C1677 1.404 . S
C1676 C1679 1.539 . S
C1677 C1673 1.408 . S
C1677 C1676 1.404 . S
C1677 H1689 0.930 . S
C1678 C1674 1.524 . S
C1678 H1690 0.956 1_455 S
C1678 H1691 0.961 . S
C1678 H1692 0.961 . S
C1679 C1676 1.539 . S
C1679 H1693 0.958 . S
C1679 H1694 0.961 . S
C1679 H1695 0.960 . S
H1680 C1664 0.931 . S
H1681 C1669 0.929 . S
H1682 C1670 0.960 . S
H1683 C1670 0.962 . S
H1684 C1670 0.960 . S
H1685 C1671 0.961 . S
H1686 C1671 0.961 . S
H1687 C1671 0.961 . S
H1688 C1672 0.931 . S
H1689 C1677 0.930 . S
H1690 C1678 0.956 1_655 S
H1691 C1678 0.961 . S
H1692 C1678 0.961 . S
H1693 C1679 0.958 . S
H1694 C1679 0.961 . S
H1695 C1679 0.960 . S
C1696 C1697 1.391 . S
C1696 C1698 1.394 . S
C1696 H1712 0.931 . S
C1697 C1696 1.391 . S
C1697 C1701 1.376 . S
C1698 C1696 1.394 . S
C1698 C1699 1.369 . S
C1698 C1702 1.531 . S
C1699 C1698 1.369 . S
C1699 C1700 1.410 . S
C1699 C1707 1.503 1_565 S
C1700 C1699 1.410 . S
C1700 C1701 1.392 . S
C1700 C1703 1.511 . S
C1701 C1697 1.376 . S
C1701 C1700 1.392 . S
C1701 H1713 0.929 . S
C1702 C1698 1.531 . S
C1702 H1714 0.960 1_565 S
C1702 H1715 0.962 . S
C1702 H1716 0.960 . S
C1703 C1700 1.511 . S
C1703 H1717 0.961 . S
C1703 H1718 0.961 . S
C1703 H1719 0.961 . S
C1704 C1705 1.370 . S
C1704 C1706 1.363 . S
C1704 H1720 0.931 . S
C1705 C1704 1.370 . S
C1705 C1709 1.408 . S
C1706 C1704 1.363 . S
C1706 C1707 1.370 . S
C1706 C1710 1.524 1_545 S
C1707 C1699 1.503 1_545 S
C1707 C1706 1.370 . S
C1707 C1708 1.403 . S
C1708 C1707 1.403 . S
C1708 C1709 1.404 . S
C1708 C1711 1.539 . S
C1709 C1705 1.408 . S
C1709 C1708 1.404 . S
C1709 H1721 0.930 . S
C1710 C1706 1.524 1_565 S
C1710 H1722 0.956 . S
C1710 H1723 0.961 . S
C1710 H1724 0.961 . S
C1711 C1708 1.539 . S
C1711 H1725 0.958 . S
C1711 H1726 0.961 . S
C1711 H1727 0.960 . S
H1712 C1696 0.931 . S
H1713 C1701 0.929 . S
H1714 C1702 0.960 1_545 S
H1715 C1702 0.962 . S
H1716 C1702 0.960 . S
H1717 C1703 0.961 . S
H1718 C1703 0.961 . S
H1719 C1703 0.961 . S
H1720 C1704 0.931 . S
H1721 C1709 0.930 . S
H1722 C1710 0.956 . S
H1723 C1710 0.961 . S
H1724 C1710 0.961 . S
H1725 C1711 0.958 . S
H1726 C1711 0.961 . S
H1727 C1711 0.960 . S
C1728 C1729 1.391 . S
C1728 C1730 1.394 . S
C1728 H1744 0.931 . S
C1729 C1728 1.391 . S
C1729 C1733 1.376 . S
C1730 C1728 1.394 . S
C1730 C1731 1.369 . S
C1730 C1734 1.531 1_455 S
C1731 C1730 1.369 . S
C1731 C1732 1.410 . S
C1731 C1739 1.503 1_455 S
C1732 C1731 1.410 . S
C1732 C1733 1.392 . S
C1732 C1735 1.511 . S
C1733 C1729 1.376 . S
C1733 C1732 1.392 . S
C1733 H1745 0.929 . S
C1734 C1730 1.531 1_655 S
C1734 H1746 0.960 . S
C1734 H1747 0.962 . S
C1734 H1748 0.960 . S
C1735 C1732 1.511 . S
C1735 H1749 0.961 . S
C1735 H1750 0.961 . S
C1735 H1751 0.961 . S
C1736 C1737 1.370 . S
C1736 C1738 1.363 . S
C1736 H1752 0.931 . S
C1737 C1736 1.370 . S
C1737 C1741 1.408 . S
C1738 C1736 1.363 . S
C1738 C1739 1.370 . S
C1738 C1742 1.524 . S
C1739 C1731 1.503 1_655 S
C1739 C1738 1.370 . S
C1739 C1740 1.403 . S
C1740 C1739 1.403 . S
C1740 C1741 1.404 . S
C1740 C1743 1.539 1_655 S
C1741 C1737 1.408 . S
C1741 C1740 1.404 . S
C1741 H1753 0.930 . S
C1742 C1738 1.524 . S
C1742 H1754 0.956 . S
C1742 H1755 0.961 . S
C1742 H1756 0.961 . S
C1743 C1740 1.539 1_455 S
C1743 H1757 0.958 1_455 S
C1743 H1758 0.960 1_455 S
C1743 H1759 0.960 . S
H1744 C1728 0.931 . S
H1745 C1733 0.929 . S
H1746 C1734 0.960 . S
H1747 C1734 0.962 . S
H1748 C1734 0.960 . S
H1749 C1735 0.961 . S
H1750 C1735 0.961 . S
H1751 C1735 0.961 . S
H1752 C1736 0.931 . S
H1753 C1741 0.930 . S
H1754 C1742 0.956 . S
H1755 C1742 0.961 . S
H1756 C1742 0.961 . S
H1757 C1743 0.958 1_655 S
H1758 C1743 0.960 1_655 S
H1759 C1743 0.960 . S
C1760 C1761 1.391 . S
C1760 C1762 1.394 . S
C1760 H1776 0.931 . S
C1761 C1760 1.391 . S
C1761 C1765 1.376 . S
C1762 C1760 1.394 . S
C1762 C1763 1.369 . S
C1762 C1766 1.531 1_565 S
C1763 C1762 1.369 . S
C1763 C1764 1.410 . S
C1763 C1771 1.503 1_565 S
C1764 C1763 1.410 . S
C1764 C1765 1.392 . S
C1764 C1767 1.511 . S
C1765 C1761 1.376 . S
C1765 C1764 1.392 . S
C1765 H1777 0.929 . S
C1766 C1762 1.531 1_545 S
C1766 H1778 0.960 . S
C1766 H1779 0.962 . S
C1766 H1780 0.972 . S
C1767 C1764 1.511 . S
C1767 H1781 0.961 . S
C1767 H1782 0.961 . S
C1767 H1783 0.961 . S
C1768 C1769 1.370 . S
C1768 C1770 1.363 . S
C1768 H1784 0.931 . S
C1769 C1768 1.370 . S
C1769 C1773 1.408 . S
C1770 C1768 1.363 . S
C1770 C1771 1.370 . S
C1770 C1774 1.524 . S
C1771 C1763 1.503 1_545 S
C1771 C1770 1.370 . S
C1771 C1772 1.403 . S
C1772 C1771 1.403 . S
C1772 C1773 1.404 . S
C1772 C1775 1.539 1_545 S
C1773 C1769 1.408 . S
C1773 C1772 1.404 . S
C1773 H1785 0.930 . S
C1774 C1770 1.524 . S
C1774 H1786 0.956 . S
C1774 H1787 0.961 . S
C1774 H1788 0.961 . S
C1775 C1772 1.539 1_565 S
C1775 H1789 0.958 1_565 S
C1775 H1790 0.961 1_565 S
C1775 H1791 0.960 . S
H1776 C1760 0.931 . S
H1777 C1765 0.929 . S
H1778 C1766 0.960 . S
H1779 C1766 0.962 . S
H1780 C1766 0.972 . S
H1781 C1767 0.961 . S
H1782 C1767 0.961 . S
H1783 C1767 0.961 . S
H1784 C1768 0.931 . S
H1785 C1773 0.930 . S
H1786 C1774 0.956 . S
H1787 C1774 0.961 . S
H1788 C1774 0.961 . S
H1789 C1775 0.958 1_545 S
H1790 C1775 0.961 1_545 S
H1791 C1775 0.960 . S
C1792 C1793 1.391 . S
C1792 C1794 1.394 . S
C1792 H1808 0.931 . S
C1793 C1792 1.391 . S
C1793 C1797 1.376 . S
C1794 C1792 1.394 . S
C1794 C1795 1.369 . S
C1794 C1798 1.531 . S
C1795 C1794 1.369 . S
C1795 C1796 1.410 . S
C1795 C1803 1.503 1_655 S
C1796 C1795 1.410 . S
C1796 C1797 1.392 . S
C1796 C1799 1.511 1_655 S
C1797 C1793 1.376 . S
C1797 C1796 1.392 . S
C1797 H1809 0.929 . S
C1798 C1794 1.531 . S
C1798 H1810 0.960 . S
C1798 H1811 0.962 . S
C1798 H1812 0.960 . S
C1799 C1796 1.511 1_455 S
C1799 H1813 0.961 . S
C1799 H1814 0.961 . S
C1799 H1815 0.961 . S
C1800 C1801 1.370 . S
C1800 C1802 1.363 . S
C1800 H1816 0.931 . S
C1801 C1800 1.370 . S
C1801 C1805 1.408 . S
C1802 C1800 1.363 . S
C1802 C1803 1.370 . S
C1802 C1806 1.524 1_455 S
C1803 C1795 1.503 1_455 S
C1803 C1802 1.370 . S
C1803 C1804 1.403 . S
C1804 C1803 1.403 . S
C1804 C1805 1.404 . S
C1804 C1807 1.539 . S
C1805 C1801 1.408 . S
C1805 C1804 1.404 . S
C1805 H1817 0.930 . S
C1806 C1802 1.524 1_655 S
C1806 H1818 0.956 . S
C1806 H1819 0.961 . S
C1806 H1820 0.968 . S
C1807 C1804 1.539 . S
C1807 H1821 0.958 . S
C1807 H1822 0.961 . S
C1807 H1823 0.960 . S
H1808 C1792 0.931 . S
H1809 C1797 0.929 . S
H1810 C1798 0.960 . S
H1811 C1798 0.962 . S
H1812 C1798 0.960 . S
H1813 C1799 0.961 . S
H1814 C1799 0.961 . S
H1815 C1799 0.961 . S
H1816 C1800 0.931 . S
H1817 C1805 0.930 . S
H1818 C1806 0.956 . S
H1819 C1806 0.961 . S
H1820 C1806 0.968 . S
H1821 C1807 0.958 . S
H1822 C1807 0.961 . S
H1823 C1807 0.960 . S
C545 C73 0.855 . S
C553 C5 0.846 . S
C577 C39 0.829 . S
C585 C107 0.821 . S
C609 C209 0.801 . S
C617 C141 0.821 . S
C641 C243 0.844 . S
C649 C175 0.846 . S
C673 C277 0.816 . S
C681 C345 0.819 . S
C705 C311 0.860 . S
C713 C379 0.835 . S
C737 C413 0.813 . S
C745 C481 0.819 . S
C769 C515 0.812 . S
C777 C447 0.819 . S
C801 C9 1.688 . S
C809 C179 1.724 . S
C833 C213 1.695 . S
C841 C43 1.707 . S
C865 C247 1.756 . S
C873 C77 1.732 . S
C897 C145 1.721 . S
C905 C111 1.736 . S
C929 C451 1.748 . S
C937 C281 1.721 . S
C961 C485 1.681 . S
C969 C315 1.716 . S
C993 C519 1.745 . S
C1001 C349 1.719 . S
C1025 C417 1.755 . S
C1033 C383 1.728 . S
C1057 C20 1.426 . S
C1065 C360 1.406 . S
C1089 C394 1.436 . S
C1097 C54 1.411 . S
C1121 C292 1.431 . S
C1129 C88 1.408 . S
C1153 C326 1.389 . S
C1161 C122 1.421 . S
C1185 C156 1.392 . S
C1193 C496 1.423 . S
C1217 C190 1.390 . S
C1225 C530 1.408 . S
C1249 C224 1.438 . S
C1257 C428 1.414 . S
C1281 C258 1.397 . S
C1289 C462 1.405 . S
C1313 C138 1.067 . S
C1321 C2 1.029 . S
C1345 C36 1.053 . S
C1353 C172 1.044 . S
C1377 C206 1.067 . S
C1385 C70 1.028 . S
C1409 C240 0.984 . S
C1417 C104 1.013 . S
C1441 C305 1.251 . S
C1449 C441 1.255 . S
C1473 C475 1.266 . S
C1481 C339 1.256 . S
C1505 C373 1.264 . S
C1513 C509 1.255 . S
C1537 C543 1.225 . S
C1545 C407 1.243 . S
C1569 C376 1.068 . S
C1577 C444 1.030 . S
C1601 C274 1.020 . S
C1609 C478 1.009 . S
C1633 C512 1.007 . S
C1641 C308 1.040 . S
C1665 C410 1.061 . S
C1673 C342 1.042 . S
C1697 C135 1.250 . S
C1705 C203 1.255 . S
C1729 C33 1.269 . S
C1737 C237 1.258 . S
C1761 C271 1.269 . S
C1769 C67 1.258 . S
C1793 C101 1.229 . S
C1801 C169 1.245 . S
