# Generated by pormake.
# Topology dia-a, (4)-cn, num edge types: 1
# Building blocks:
#     Node 0, Type 0, BuildingBlock: NAHDIM_clean_sbu_0, # of connection points: 4
#     Node 1, Type 0, BuildingBlock: NAHDIM_clean_sbu_0, # of connection points: 4
#     Node 2, Type 0, BuildingBlock: NAHDIM_clean_sbu_0, # of connection points: 4
#     Node 3, Type 0, BuildingBlock: NAHDIM_clean_sbu_0, # of connection points: 4
#     Node 4, Type 0, BuildingBlock: NAHDIM_clean_sbu_0, # of connection points: 4
#     Node 5, Type 0, BuildingBlock: NAHDIM_clean_sbu_0, # of connection points: 4
#     Node 6, Type 0, BuildingBlock: NAHDIM_clean_sbu_0, # of connection points: 4
#     Node 7, Type 0, BuildingBlock: NAHDIM_clean_sbu_0, # of connection points: 4
#     Node 8, Type 0, BuildingBlock: NAHDIM_clean_sbu_0, # of connection points: 4
#     Node 9, Type 0, BuildingBlock: NAHDIM_clean_sbu_0, # of connection points: 4
#     Node 10, Type 0, BuildingBlock: NAHDIM_clean_sbu_0, # of connection points: 4
#     Node 11, Type 0, BuildingBlock: NAHDIM_clean_sbu_0, # of connection points: 4
#     Node 12, Type 0, BuildingBlock: NAHDIM_clean_sbu_0, # of connection points: 4
#     Node 13, Type 0, BuildingBlock: NAHDIM_clean_sbu_0, # of connection points: 4
#     Node 14, Type 0, BuildingBlock: NAHDIM_clean_sbu_0, # of connection points: 4
#     Node 15, Type 0, BuildingBlock: NAHDIM_clean_sbu_0, # of connection points: 4
#     Node 16, Type 0, BuildingBlock: NAHDIM_clean_sbu_0, # of connection points: 4
#     Node 17, Type 0, BuildingBlock: NAHDIM_clean_sbu_0, # of connection points: 4
#     Node 18, Type 0, BuildingBlock: NAHDIM_clean_sbu_0, # of connection points: 4
#     Node 19, Type 0, BuildingBlock: NAHDIM_clean_sbu_0, # of connection points: 4
#     Node 20, Type 0, BuildingBlock: NAHDIM_clean_sbu_0, # of connection points: 4
#     Node 21, Type 0, BuildingBlock: NAHDIM_clean_sbu_0, # of connection points: 4
#     Node 22, Type 0, BuildingBlock: NAHDIM_clean_sbu_0, # of connection points: 4
#     Node 23, Type 0, BuildingBlock: NAHDIM_clean_sbu_0, # of connection points: 4
#     Node 24, Type 0, BuildingBlock: NAHDIM_clean_sbu_0, # of connection points: 4
#     Node 25, Type 0, BuildingBlock: NAHDIM_clean_sbu_0, # of connection points: 4
#     Node 26, Type 0, BuildingBlock: NAHDIM_clean_sbu_0, # of connection points: 4
#     Node 27, Type 0, BuildingBlock: NAHDIM_clean_sbu_0, # of connection points: 4
#     Node 28, Type 0, BuildingBlock: NAHDIM_clean_sbu_0, # of connection points: 4
#     Node 29, Type 0, BuildingBlock: NAHDIM_clean_sbu_0, # of connection points: 4
#     Node 30, Type 0, BuildingBlock: NAHDIM_clean_sbu_0, # of connection points: 4
#     Node 31, Type 0, BuildingBlock: NAHDIM_clean_sbu_0, # of connection points: 4
#     Edge 32, Type (0, 0), BuildingBlock: XIVTED_clean_linker_0, # of connection points: 2
#     Edge 33, Type (0, 0), BuildingBlock: XIVTED_clean_linker_0, # of connection points: 2
#     Edge 34, Type (0, 0), BuildingBlock: XIVTED_clean_linker_0, # of connection points: 2
#     Edge 35, Type (0, 0), BuildingBlock: XIVTED_clean_linker_0, # of connection points: 2
#     Edge 36, Type (0, 0), BuildingBlock: XIVTED_clean_linker_0, # of connection points: 2
#     Edge 37, Type (0, 0), BuildingBlock: XIVTED_clean_linker_0, # of connection points: 2
#     Edge 38, Type (0, 0), BuildingBlock: XIVTED_clean_linker_0, # of connection points: 2
#     Edge 39, Type (0, 0), BuildingBlock: XIVTED_clean_linker_0, # of connection points: 2
#     Edge 40, Type (0, 0), BuildingBlock: XIVTED_clean_linker_0, # of connection points: 2
#     Edge 41, Type (0, 0), BuildingBlock: XIVTED_clean_linker_0, # of connection points: 2
#     Edge 42, Type (0, 0), BuildingBlock: XIVTED_clean_linker_0, # of connection points: 2
#     Edge 43, Type (0, 0), BuildingBlock: XIVTED_clean_linker_0, # of connection points: 2
#     Edge 44, Type (0, 0), BuildingBlock: XIVTED_clean_linker_0, # of connection points: 2
#     Edge 45, Type (0, 0), BuildingBlock: XIVTED_clean_linker_0, # of connection points: 2
#     Edge 46, Type (0, 0), BuildingBlock: XIVTED_clean_linker_0, # of connection points: 2
#     Edge 47, Type (0, 0), BuildingBlock: XIVTED_clean_linker_0, # of connection points: 2
#     Edge 48, Type (0, 0), BuildingBlock: XIVTED_clean_linker_0, # of connection points: 2
#     Edge 49, Type (0, 0), BuildingBlock: XIVTED_clean_linker_0, # of connection points: 2
#     Edge 50, Type (0, 0), BuildingBlock: XIVTED_clean_linker_0, # of connection points: 2
#     Edge 51, Type (0, 0), BuildingBlock: XIVTED_clean_linker_0, # of connection points: 2
#     Edge 52, Type (0, 0), BuildingBlock: XIVTED_clean_linker_0, # of connection points: 2
#     Edge 53, Type (0, 0), BuildingBlock: XIVTED_clean_linker_0, # of connection points: 2
#     Edge 54, Type (0, 0), BuildingBlock: XIVTED_clean_linker_0, # of connection points: 2
#     Edge 55, Type (0, 0), BuildingBlock: XIVTED_clean_linker_0, # of connection points: 2
#     Edge 56, Type (0, 0), BuildingBlock: XIVTED_clean_linker_0, # of connection points: 2
#     Edge 57, Type (0, 0), BuildingBlock: XIVTED_clean_linker_0, # of connection points: 2
#     Edge 58, Type (0, 0), BuildingBlock: XIVTED_clean_linker_0, # of connection points: 2
#     Edge 59, Type (0, 0), BuildingBlock: XIVTED_clean_linker_0, # of connection points: 2
#     Edge 60, Type (0, 0), BuildingBlock: XIVTED_clean_linker_0, # of connection points: 2
#     Edge 61, Type (0, 0), BuildingBlock: XIVTED_clean_linker_0, # of connection points: 2
#     Edge 62, Type (0, 0), BuildingBlock: XIVTED_clean_linker_0, # of connection points: 2
#     Edge 63, Type (0, 0), BuildingBlock: XIVTED_clean_linker_0, # of connection points: 2
#     Edge 64, Type (0, 0), BuildingBlock: XIVTED_clean_linker_0, # of connection points: 2
#     Edge 65, Type (0, 0), BuildingBlock: XIVTED_clean_linker_0, # of connection points: 2
#     Edge 66, Type (0, 0), BuildingBlock: XIVTED_clean_linker_0, # of connection points: 2
#     Edge 67, Type (0, 0), BuildingBlock: XIVTED_clean_linker_0, # of connection points: 2
#     Edge 68, Type (0, 0), BuildingBlock: XIVTED_clean_linker_0, # of connection points: 2
#     Edge 69, Type (0, 0), BuildingBlock: XIVTED_clean_linker_0, # of connection points: 2
#     Edge 70, Type (0, 0), BuildingBlock: XIVTED_clean_linker_0, # of connection points: 2
#     Edge 71, Type (0, 0), BuildingBlock: XIVTED_clean_linker_0, # of connection points: 2
#     Edge 72, Type (0, 0), BuildingBlock: XIVTED_clean_linker_0, # of connection points: 2
#     Edge 73, Type (0, 0), BuildingBlock: XIVTED_clean_linker_0, # of connection points: 2
#     Edge 74, Type (0, 0), BuildingBlock: XIVTED_clean_linker_0, # of connection points: 2
#     Edge 75, Type (0, 0), BuildingBlock: XIVTED_clean_linker_0, # of connection points: 2
#     Edge 76, Type (0, 0), BuildingBlock: XIVTED_clean_linker_0, # of connection points: 2
#     Edge 77, Type (0, 0), BuildingBlock: XIVTED_clean_linker_0, # of connection points: 2
#     Edge 78, Type (0, 0), BuildingBlock: XIVTED_clean_linker_0, # of connection points: 2
#     Edge 79, Type (0, 0), BuildingBlock: XIVTED_clean_linker_0, # of connection points: 2
#     Edge 80, Type (0, 0), BuildingBlock: XIVTED_clean_linker_0, # of connection points: 2
#     Edge 81, Type (0, 0), BuildingBlock: XIVTED_clean_linker_0, # of connection points: 2
#     Edge 82, Type (0, 0), BuildingBlock: XIVTED_clean_linker_0, # of connection points: 2
#     Edge 83, Type (0, 0), BuildingBlock: XIVTED_clean_linker_0, # of connection points: 2
#     Edge 84, Type (0, 0), BuildingBlock: XIVTED_clean_linker_0, # of connection points: 2
#     Edge 85, Type (0, 0), BuildingBlock: XIVTED_clean_linker_0, # of connection points: 2
#     Edge 86, Type (0, 0), BuildingBlock: XIVTED_clean_linker_0, # of connection points: 2
#     Edge 87, Type (0, 0), BuildingBlock: XIVTED_clean_linker_0, # of connection points: 2
#     Edge 88, Type (0, 0), BuildingBlock: XIVTED_clean_linker_0, # of connection points: 2
#     Edge 89, Type (0, 0), BuildingBlock: XIVTED_clean_linker_0, # of connection points: 2
#     Edge 90, Type (0, 0), BuildingBlock: XIVTED_clean_linker_0, # of connection points: 2
#     Edge 91, Type (0, 0), BuildingBlock: XIVTED_clean_linker_0, # of connection points: 2
#     Edge 92, Type (0, 0), BuildingBlock: XIVTED_clean_linker_0, # of connection points: 2
#     Edge 93, Type (0, 0), BuildingBlock: XIVTED_clean_linker_0, # of connection points: 2
#     Edge 94, Type (0, 0), BuildingBlock: XIVTED_clean_linker_0, # of connection points: 2
#     Edge 95, Type (0, 0), BuildingBlock: XIVTED_clean_linker_0, # of connection points: 2
# Relax obj value: 0.791
# Max RMSD: 0.299
# Mean RMSD: 0.284
data_MOF--net-dia-a--node1-NAHDIM_clean_sbu_0--edge1-XIVTED_clean_linker_0
_symmetry_space_group_name_H-M    P1
_symmetry_Int_Tables_number       1
_symmetry_cell_setting            triclinic
loop_
_symmetry_equiv_pos_as_xyz
'x, y, z'
_cell_length_a     69.441534
_cell_length_b     64.090313
_cell_length_c     49.606031
_cell_angle_alpha  94.868564
_cell_angle_beta   93.580588
_cell_angle_gamma 88.912016
loop_
_atom_site_label
_atom_site_type_symbol
_atom_site_fract_x
_atom_site_fract_y
_atom_site_fract_z
_atom_type_partial_charge
C0 C 0.08473 0.03044 0.46827 0.0
O1 O 0.08164 0.0506 0.47385 0.0
O2 O 0.12052 0.07222 0.47302 0.0
Zn3 Zn 0.1208 0.04399 0.48851 0.0
O4 O 0.11138 0.04979 0.52599 0.0
C5 C 0.16271 0.03827 0.4853 0.0
O6 O 0.1611 0.05053 0.46532 0.0
O7 O 0.10203 0.0236 0.46933 0.0
C8 C 0.10193 0.03668 0.53758 0.0
O9 O 0.09808 0.0182 0.52512 0.0
C10 C 0.13179 0.08581 0.48528 0.0
O11 O 0.14345 0.08037 0.50545 0.0
O12 O 0.14751 0.03203 0.49492 0.0
C13 C 0.90002 0.19098 0.82382 0.0
O14 O 0.8947 0.19795 0.84794 0.0
O15 O 0.85206 0.22792 0.81203 0.0
Zn16 Zn 0.88095 0.22878 0.81007 0.0
O17 O 0.89131 0.24195 0.84608 0.0
C18 C 0.87506 0.2559 0.76579 0.0
O19 O 0.85731 0.249 0.76458 0.0
O20 O 0.89441 0.20082 0.80346 0.0
C21 C 0.90878 0.24747 0.85039 0.0
O22 O 0.92062 0.24448 0.83073 0.0
C23 C 0.84505 0.22546 0.8346 0.0
O24 O 0.85666 0.21983 0.85471 0.0
O25 O 0.88754 0.24868 0.78257 0.0
C26 C 0.62207 0.29612 0.0352 0.0
O27 O 0.60994 0.28298 0.02174 0.0
O28 O 0.61804 0.24116 0.04118 0.0
Zn29 Zn 0.62899 0.26245 0.07038 0.0
O30 O 0.65557 0.25276 0.08388 0.0
C31 C 0.59522 0.25625 0.09909 0.0
O32 O 0.58743 0.25227 0.07441 0.0
O33 O 0.63104 0.29083 0.05674 0.0
C34 C 0.65997 0.23337 0.08215 0.0
O35 O 0.64724 0.21973 0.07135 0.0
C36 C 0.62678 0.23333 0.02085 0.0
O37 O 0.64398 0.24015 0.01672 0.0
O38 O 0.61246 0.26272 0.10221 0.0
C39 C 0.87389 0.97199 0.19997 0.0
O40 O 0.89035 0.974 0.21441 0.0
O41 O 0.89568 0.93853 0.24812 0.0
Zn42 Zn 0.87188 0.9323 0.22377 0.0
O43 O 0.8504 0.93329 0.24924 0.0
C44 C 0.88846 0.89171 0.20831 0.0
O45 O 0.90464 0.90115 0.21674 0.0
O46 O 0.8652 0.95459 0.19842 0.0
C47 C 0.8348 0.9232 0.24473 0.0
O48 O 0.83195 0.91138 0.22192 0.0
C49 C 0.89437 0.95245 0.26778 0.0
O50 O 0.87851 0.96389 0.26925 0.0
O51 O 0.87294 0.90251 0.20689 0.0
C52 C 0.02803 0.12975 0.79775 0.0
O53 O 0.04162 0.1403 0.81232 0.0
O54 O 0.08061 0.12954 0.77989 0.0
Zn55 Zn 0.05598 0.12588 0.75627 0.0
O56 O 0.06144 0.10227 0.72874 0.0
C57 C 0.05758 0.16913 0.74121 0.0
O58 O 0.06733 0.1731 0.76458 0.0
O59 O 0.03168 0.12123 0.77455 0.0
C60 C 0.04951 0.09364 0.71101 0.0
O61 O 0.03117 0.09902 0.71118 0.0
C62 C 0.08989 0.11287 0.78486 0.0
O63 O 0.08108 0.09486 0.7798 0.0
O64 O 0.05147 0.15075 0.73454 0.0
C65 C 0.70921 0.38114 0.95037 0.0
O66 O 0.72121 0.39428 0.9641 0.0
O67 O 0.76036 0.38277 0.94867 0.0
Zn68 Zn 0.74211 0.37032 0.91857 0.0
O69 O 0.75098 0.34062 0.90918 0.0
C70 C 0.75058 0.40471 0.88727 0.0
O71 O 0.75303 0.41497 0.91128 0.0
O72 O 0.71489 0.37011 0.9298 0.0
C73 C 0.74786 0.33157 0.88555 0.0
O74 O 0.73789 0.34149 0.86708 0.0
C75 C 0.76799 0.37189 0.96688 0.0
O76 O 0.76299 0.35224 0.96712 0.0
O77 O 0.74476 0.38594 0.88556 0.0
C78 C 0.77932 0.08806 0.21646 0.0
O79 O 0.76199 0.0814 0.22014 0.0
O80 O 0.74267 0.10722 0.17607 0.0
Zn81 Zn 0.75561 0.12202 0.20966 0.0
O82 O 0.7385 0.1187 0.24051 0.0
C83 C 0.76118 0.15478 0.17701 0.0
O84 O 0.76932 0.13908 0.16295 0.0
O85 O 0.78148 0.10742 0.2139 0.0
C86 C 0.73191 0.134 0.25536 0.0
O87 O 0.73774 0.15301 0.25244 0.0
C88 C 0.72973 0.09343 0.17562 0.0
O89 O 0.72355 0.08807 0.19852 0.0
O90 O 0.75633 0.15203 0.20073 0.0
C91 C 0.97809 0.93789 0.5091 0.0
O92 O 0.96057 0.94593 0.50752 0.0
O93 O 0.93345 0.90361 0.51483 0.0
Zn94 Zn 0.95659 0.9023 0.49171 0.0
O95 O 0.94865 0.91563 0.4576 0.0
C96 C 0.95481 0.85701 0.48903 0.0
O97 O 0.94388 0.86068 0.50963 0.0
O98 O 0.98015 0.9181 0.5066 0.0
C99 C 0.95996 0.91506 0.43838 0.0
O100 O 0.97668 0.90526 0.4409 0.0
C101 C 0.92017 0.91723 0.51131 0.0
O102 O 0.92301 0.93222 0.49557 0.0
O103 O 0.96276 0.8723 0.47958 0.0
C104 C 0.57843 0.02389 0.96934 0.0
O105 O 0.57349 0.04279 0.96288 0.0
O106 O 0.60707 0.07278 0.98188 0.0
Zn107 Zn 0.60802 0.04624 0.00157 0.0
O108 O 0.59478 0.05225 0.03632 0.0
C109 C 0.64912 0.05139 0.0111 0.0
O110 O 0.64631 0.06652 0.99496 0.0
O111 O 0.59433 0.02132 0.98278 0.0
C112 C 0.59937 0.06826 0.05208 0.0
O113 O 0.6123 0.0811 0.04492 0.0
C114 C 0.59321 0.08591 0.98458 0.0
O115 O 0.57812 0.08077 0.99718 0.0
O116 O 0.63521 0.03942 0.0143 0.0
C117 C 0.90788 0.68797 0.32593 0.0
O118 O 0.90467 0.69495 0.35093 0.0
O119 O 0.85965 0.72518 0.32292 0.0
Zn120 Zn 0.88772 0.72589 0.31486 0.0
O121 O 0.9017 0.73999 0.34794 0.0
C122 C 0.87685 0.75116 0.26982 0.0
O123 O 0.85947 0.74415 0.27241 0.0
O124 O 0.90055 0.69786 0.30651 0.0
C125 C 0.91924 0.7453 0.34799 0.0
O126 O 0.92863 0.74124 0.32591 0.0
C127 C 0.85514 0.72368 0.34712 0.0
O128 O 0.86873 0.71911 0.36538 0.0
O129 O 0.89089 0.74478 0.28483 0.0
C130 C 0.11065 0.29789 0.52749 0.0
O131 O 0.10116 0.28406 0.51095 0.0
O132 O 0.10931 0.2422 0.53205 0.0
Zn133 Zn 0.11453 0.26419 0.56334 0.0
O134 O 0.14033 0.25676 0.58164 0.0
C135 C 0.08092 0.25056 0.5885 0.0
O136 O 0.07684 0.24087 0.56446 0.0
O137 O 0.11658 0.29301 0.55091 0.0
C138 C 0.14527 0.23756 0.58169 0.0
O139 O 0.13348 0.22317 0.57029 0.0
C140 C 0.12231 0.23785 0.51542 0.0
O141 O 0.13765 0.24968 0.51692 0.0
O142 O 0.09539 0.26254 0.59185 0.0
C143 C 0.88221 0.48073 0.71327 0.0
O144 O 0.89536 0.48291 0.73346 0.0
O145 O 0.89731 0.44515 0.7633 0.0
Zn146 Zn 0.87633 0.44037 0.73362 0.0
O147 O 0.85174 0.44144 0.75305 0.0
C148 C 0.89383 0.39991 0.71969 0.0
O149 O 0.90934 0.40903 0.73138 0.0
O150 O 0.87393 0.46319 0.70804 0.0
C151 C 0.8364 0.43204 0.74414 0.0
O152 O 0.836 0.42113 0.72046 0.0
C153 C 0.89395 0.45781 0.78367 0.0
O154 O 0.87804 0.46923 0.78304 0.0
O155 O 0.87856 0.41085 0.71609 0.0
C156 C 0.52644 0.1298 0.29998 0.0
O157 O 0.52968 0.11062 0.2896 0.0
O158 O 0.58943 0.13581 0.30327 0.0
Zn159 Zn 0.5642 0.13941 0.28152 0.0
O160 O 0.56124 0.11832 0.2491 0.0
C161 C 0.5775 0.16459 0.24338 0.0
O162 O 0.58717 0.14708 0.2379 0.0
O163 O 0.53984 0.14315 0.30124 0.0
C164 C 0.55882 0.0993 0.2403 0.0
O165 O 0.55727 0.08485 0.25727 0.0
C166 C 0.59902 0.1187 0.30184 0.0
O167 O 0.59074 0.10178 0.29003 0.0
O168 O 0.56684 0.16609 0.26337 0.0
C169 C 0.71543 0.86648 0.44157 0.0
O170 O 0.71661 0.8643 0.41515 0.0
O171 O 0.7769 0.88232 0.46779 0.0
Zn172 Zn 0.75675 0.86877 0.44124 0.0
O173 O 0.76508 0.83877 0.43236 0.0
C174 C 0.76333 0.90123 0.40579 0.0
O175 O 0.76839 0.91218 0.42864 0.0
O176 O 0.73074 0.8694 0.45672 0.0
C177 C 0.76066 0.82915 0.40938 0.0
O178 O 0.74963 0.83863 0.39157 0.0
C179 C 0.78703 0.87194 0.48437 0.0
O180 O 0.78332 0.85204 0.48576 0.0
O181 O 0.75676 0.88293 0.40654 0.0
C182 C 0.27184 0.08974 0.71573 0.0
O183 O 0.25512 0.08551 0.72483 0.0
O184 O 0.24056 0.10167 0.65341 0.0
Zn185 Zn 0.24756 0.11812 0.68894 0.0
O186 O 0.22575 0.11471 0.71362 0.0
C187 C 0.2412 0.16392 0.69033 0.0
O188 O 0.23555 0.16286 0.71492 0.0
O189 O 0.27294 0.10546 0.70193 0.0
C190 C 0.22488 0.12151 0.73837 0.0
O191 O 0.23945 0.13182 0.75094 0.0
C192 C 0.23759 0.08208 0.65021 0.0
O193 O 0.23848 0.07108 0.67142 0.0
O194 O 0.24851 0.14773 0.67806 0.0
C195 C 0.95785 0.4325 0.03241 0.0
O196 O 0.94064 0.4412 0.02984 0.0
O197 O 0.91122 0.39934 0.0305 0.0
Zn198 Zn 0.93614 0.39804 0.01111 0.0
O199 O 0.93105 0.41255 0.97709 0.0
C200 C 0.93253 0.35291 0.00379 0.0
O201 O 0.9189 0.3562 0.02093 0.0
O202 O 0.95925 0.41266 0.02966 0.0
C203 C 0.94385 0.41252 0.95987 0.0
O204 O 0.96029 0.40254 0.96433 0.0
C205 C 0.89875 0.4136 0.02584 0.0
O206 O 0.90361 0.42918 0.01221 0.0
O207 O 0.94249 0.36826 0.99829 0.0
C208 C 0.06596 0.51835 0.98106 0.0
O209 O 0.06157 0.53768 0.97592 0.0
O210 O 0.09706 0.56466 0.98436 0.0
Zn211 Zn 0.10131 0.53727 0.00181 0.0
O212 O 0.096 0.54357 0.04092 0.0
C213 C 0.14187 0.54034 0.99477 0.0
O214 O 0.13604 0.55518 0.97933 0.0
O215 O 0.08322 0.51394 0.98882 0.0
C216 C 0.10676 0.55632 0.05561 0.0
O217 O 0.12099 0.56515 0.04474 0.0
C218 C 0.08482 0.57798 0.99373 0.0
O219 O 0.07346 0.57258 0.01209 0.0
O220 O 0.12934 0.52866 0.00318 0.0
C221 C 0.45622 0.42543 0.52673 0.0
O222 O 0.43881 0.43372 0.52486 0.0
O223 O 0.411 0.38916 0.52768 0.0
Zn224 Zn 0.43475 0.39055 0.50603 0.0
O225 O 0.42736 0.40658 0.4738 0.0
C226 C 0.4334 0.34535 0.49488 0.0
O227 O 0.42032 0.34663 0.51298 0.0
O228 O 0.458 0.40562 0.52377 0.0
C229 C 0.43977 0.4085 0.45643 0.0
O230 O 0.45685 0.39958 0.45975 0.0
C231 C 0.39802 0.40338 0.52636 0.0
O232 O 0.40154 0.4202 0.5142 0.0
O233 O 0.44209 0.36181 0.49019 0.0
C234 C 0.11282 0.79039 0.02459 0.0
O235 O 0.10248 0.77594 0.01033 0.0
O236 O 0.10385 0.73719 0.042 0.0
Zn237 Zn 0.11761 0.76011 0.06567 0.0
O238 O 0.14476 0.74949 0.07281 0.0
C239 C 0.08959 0.75763 0.10661 0.0
O240 O 0.07813 0.75008 0.08617 0.0
O241 O 0.11937 0.78712 0.04837 0.0
C242 C 0.15494 0.75591 0.09397 0.0
O243 O 0.14785 0.77038 0.1111 0.0
C244 C 0.11208 0.72806 0.02196 0.0
O245 O 0.12861 0.73522 0.0154 0.0
O246 O 0.1062 0.76394 0.10204 0.0
C247 C 0.03502 0.63502 0.28251 0.0
O248 O 0.03851 0.6371 0.25716 0.0
O249 O 0.09844 0.64304 0.30891 0.0
Zn250 Zn 0.07393 0.64398 0.28496 0.0
O251 O 0.0794 0.62552 0.25152 0.0
C252 C 0.08386 0.68499 0.26969 0.0
O253 O 0.10109 0.6802 0.28003 0.0
O254 O 0.04902 0.63644 0.30037 0.0
C255 C 0.074 0.6071 0.24343 0.0
O256 O 0.06259 0.5971 0.25793 0.0
C257 C 0.10699 0.62537 0.30977 0.0
O258 O 0.09714 0.60839 0.30192 0.0
O259 O 0.07008 0.67246 0.27113 0.0
C260 C 0.21079 0.86294 0.94111 0.0
O261 O 0.2132 0.85861 0.91516 0.0
O262 O 0.27221 0.87716 0.97006 0.0
Zn263 Zn 0.25169 0.8656 0.94239 0.0
O264 O 0.2577 0.83559 0.929 0.0
C265 C 0.26035 0.89934 0.9099 0.0
O266 O 0.26662 0.90869 0.93331 0.0
O267 O 0.22546 0.86716 0.95713 0.0
C268 C 0.27454 0.82757 0.93137 0.0
O269 O 0.28852 0.83865 0.94417 0.0
C270 C 0.27906 0.86888 0.99107 0.0
O271 O 0.27201 0.85114 0.99727 0.0
O272 O 0.25241 0.8816 0.90936 0.0
C273 C 0.36479 0.96985 0.7004 0.0
O274 O 0.38244 0.97212 0.71125 0.0
O275 O 0.39077 0.93646 0.7458 0.0
Zn276 Zn 0.36617 0.92959 0.72358 0.0
O277 O 0.34646 0.92928 0.75142 0.0
C278 C 0.38354 0.8907 0.70265 0.0
O279 O 0.39952 0.90143 0.70716 0.0
O280 O 0.35675 0.95216 0.70008 0.0
C281 C 0.32951 0.92222 0.74689 0.0
O282 O 0.32402 0.91402 0.72251 0.0
C283 C 0.38969 0.95042 0.76546 0.0
O284 O 0.37375 0.96169 0.76738 0.0
O285 O 0.36745 0.90011 0.70578 0.0
C286 C 0.47095 0.93122 0.00438 0.0
O287 O 0.45362 0.93943 0.00074 0.0
O288 O 0.42616 0.89616 0.01339 0.0
Zn289 Zn 0.44889 0.89583 0.9895 0.0
O290 O 0.44031 0.90994 0.95612 0.0
C291 C 0.44746 0.85045 0.98389 0.0
O292 O 0.43629 0.85309 0.00437 0.0
O293 O 0.47265 0.91144 0.00431 0.0
C294 C 0.4516 0.90989 0.93692 0.0
O295 O 0.46838 0.90017 0.9391 0.0
C296 C 0.41321 0.9104 0.01189 0.0
O297 O 0.41608 0.92622 0.99753 0.0
O298 O 0.45533 0.8663 0.97572 0.0
C299 C 0.29051 0.60746 0.19908 0.0
O300 O 0.28988 0.62229 0.21901 0.0
O301 O 0.23538 0.60354 0.14891 0.0
Zn302 Zn 0.24963 0.61772 0.18166 0.0
O303 O 0.23464 0.61352 0.21443 0.0
C304 C 0.25186 0.6533 0.15146 0.0
O305 O 0.25712 0.63872 0.13303 0.0
O306 O 0.27581 0.60412 0.18289 0.0
C307 C 0.23247 0.62817 0.23301 0.0
O308 O 0.24141 0.64592 0.23192 0.0
C309 C 0.23496 0.58377 0.14398 0.0
O310 O 0.24338 0.57175 0.16152 0.0
O311 O 0.24962 0.64828 0.17529 0.0
C312 C 0.40222 0.68853 0.81323 0.0
O313 O 0.39742 0.69483 0.83785 0.0
O314 O 0.35442 0.71977 0.81882 0.0
Zn315 Zn 0.37992 0.72443 0.80328 0.0
O316 O 0.39494 0.73991 0.83436 0.0
C317 C 0.38969 0.74671 0.75677 0.0
O318 O 0.40545 0.73506 0.75725 0.0
O319 O 0.39504 0.6981 0.79344 0.0
C320 C 0.41276 0.74423 0.8353 0.0
O321 O 0.42291 0.73879 0.81429 0.0
C322 C 0.33877 0.72778 0.80949 0.0
O323 O 0.33837 0.73542 0.78571 0.0
O324 O 0.37691 0.74399 0.77336 0.0
C325 C 0.55906 0.51789 0.4738 0.0
O326 O 0.55383 0.53679 0.4677 0.0
O327 O 0.58825 0.56506 0.47183 0.0
Zn328 Zn 0.59413 0.53886 0.4912 0.0
O329 O 0.58997 0.54728 0.53048 0.0
C330 C 0.63379 0.54398 0.48036 0.0
O331 O 0.62643 0.55743 0.46385 0.0
O332 O 0.57658 0.51443 0.48126 0.0
C333 C 0.60159 0.5424 0.54983 0.0
O334 O 0.61692 0.53082 0.54454 0.0
C335 C 0.5763 0.57861 0.48137 0.0
O336 O 0.56556 0.57373 0.50074 0.0
O337 O 0.6225 0.53171 0.49031 0.0
C338 C 0.62179 0.78585 0.52421 0.0
O339 O 0.61042 0.77271 0.50931 0.0
O340 O 0.61036 0.73267 0.53565 0.0
Zn341 Zn 0.62489 0.75326 0.56202 0.0
O342 O 0.65115 0.74063 0.57051 0.0
C343 C 0.59322 0.75391 0.59732 0.0
O344 O 0.58266 0.75211 0.57434 0.0
O345 O 0.62859 0.781 0.54726 0.0
C346 C 0.66094 0.74649 0.59225 0.0
O347 O 0.65399 0.76142 0.60887 0.0
C348 C 0.61847 0.72256 0.5162 0.0
O349 O 0.63638 0.72685 0.51184 0.0
O350 O 0.61135 0.75594 0.59679 0.0
C351 C 0.78922 0.59566 0.68884 0.0
O352 O 0.7913 0.61543 0.69776 0.0
O353 O 0.73316 0.58995 0.64439 0.0
Zn354 Zn 0.74707 0.60376 0.67795 0.0
O355 O 0.73073 0.60014 0.70953 0.0
C356 C 0.75435 0.64033 0.65041 0.0
O357 O 0.76137 0.62629 0.63265 0.0
O358 O 0.77258 0.58877 0.68108 0.0
C359 C 0.72869 0.61455 0.72846 0.0
O360 O 0.73859 0.63183 0.7286 0.0
C361 C 0.72064 0.59975 0.63036 0.0
O362 O 0.71592 0.61912 0.63844 0.0
O363 O 0.74911 0.63445 0.67263 0.0
C364 C 0.53069 0.62755 0.78019 0.0
O365 O 0.53398 0.61767 0.7566 0.0
O366 O 0.59404 0.63616 0.79942 0.0
Zn367 Zn 0.56966 0.64001 0.77595 0.0
O368 O 0.57138 0.61951 0.74312 0.0
C369 C 0.55704 0.67358 0.7446 0.0
O370 O 0.54231 0.66107 0.73887 0.0
O371 O 0.54444 0.63732 0.79365 0.0
C372 C 0.58713 0.61866 0.7313 0.0
O373 O 0.60139 0.6308 0.7411 0.0
C374 C 0.6012 0.61782 0.80048 0.0
O375 O 0.59022 0.60175 0.79229 0.0
O376 O 0.57045 0.66831 0.76142 0.0
C377 C 0.20714 0.38214 0.45922 0.0
O378 O 0.21916 0.39302 0.47619 0.0
O379 O 0.25881 0.37978 0.46245 0.0
Zn380 Zn 0.24115 0.37296 0.42893 0.0
O381 O 0.24797 0.34451 0.41095 0.0
C382 C 0.25638 0.40964 0.40854 0.0
O383 O 0.26039 0.41492 0.43442 0.0
O384 O 0.21331 0.37311 0.43757 0.0
C385 C 0.26518 0.33739 0.41269 0.0
O386 O 0.27851 0.34837 0.42717 0.0
C387 C 0.26471 0.36764 0.48031 0.0
O388 O 0.25824 0.34842 0.47886 0.0
O389 O 0.24661 0.39327 0.40161 0.0
C390 C 0.37954 0.48814 0.21628 0.0
O391 O 0.39469 0.48836 0.23351 0.0
O392 O 0.39536 0.45172 0.26343 0.0
Zn393 Zn 0.37385 0.44694 0.23436 0.0
O394 O 0.34998 0.44445 0.25503 0.0
C395 C 0.39353 0.40899 0.21575 0.0
O396 O 0.40853 0.41889 0.22778 0.0
O397 O 0.36969 0.47154 0.21179 0.0
C398 C 0.35182 0.43344 0.27519 0.0
O399 O 0.36825 0.42357 0.28012 0.0
C400 C 0.39223 0.46407 0.28419 0.0
O401 O 0.37644 0.47571 0.28401 0.0
O402 O 0.37747 0.41875 0.21365 0.0
C403 C 0.39534 0.19422 0.29628 0.0
O404 O 0.38636 0.19512 0.3189 0.0
O405 O 0.35057 0.23239 0.30146 0.0
Zn406 Zn 0.37857 0.23493 0.2936 0.0
O407 O 0.3913 0.24345 0.33011 0.0
C408 C 0.37888 0.26071 0.24585 0.0
O409 O 0.36898 0.24603 0.23131 0.0
O410 O 0.39222 0.20861 0.28036 0.0
C411 C 0.40877 0.24912 0.33344 0.0
O412 O 0.41923 0.24914 0.31227 0.0
C413 C 0.33711 0.24375 0.2917 0.0
O414 O 0.34046 0.2546 0.27125 0.0
O415 O 0.38359 0.25863 0.27067 0.0
H416 H 0.97836 0.98056 0.51236 0.0
H417 H 0.08646 0.98751 0.4672 0.0
H418 H 0.01543 0.92629 0.49899 0.0
H419 H 0.04658 0.03997 0.47337 0.0
H420 H 0.06093 0.96461 0.47859 0.0
H421 H 0.00407 0.00264 0.5002 0.0
C422 C 0.99201 0.97329 0.50722 0.0
C423 C 0.9947 0.95151 0.50658 0.0
C424 C 0.05774 0.9811 0.4772 0.0
C425 C 0.02416 0.97673 0.49214 0.0
C426 C 0.07226 0.99416 0.47045 0.0
C427 C 0.0687 0.01575 0.46948 0.0
C428 C 0.03958 0.98971 0.48309 0.0
C429 C 0.05003 0.02347 0.47399 0.0
C430 C 0.00665 0.98591 0.50005 0.0
C431 C 0.01273 0.94301 0.49979 0.0
N432 N 0.03625 0.0105 0.48083 0.0
N433 N 0.02675 0.95564 0.49265 0.0
H434 H 0.9123 0.16975 0.77757 0.0
H435 H 0.01421 0.14602 0.84586 0.0
H436 H 0.92361 0.17635 0.86441 0.0
H437 H 0.99553 0.11826 0.7664 0.0
H438 H 0.98063 0.15521 0.85419 0.0
H439 H 0.94192 0.14878 0.77349 0.0
C440 C 0.92083 0.16647 0.79581 0.0
C441 C 0.91561 0.17504 0.82132 0.0
C442 C 0.98385 0.14674 0.83513 0.0
C443 C 0.94967 0.15141 0.81679 0.0
C444 C 0.00303 0.14152 0.83036 0.0
C445 C 0.00774 0.13166 0.80524 0.0
C446 C 0.96936 0.14241 0.81445 0.0
C447 C 0.99262 0.12606 0.78597 0.0
C448 C 0.93773 0.15448 0.79348 0.0
C449 C 0.92714 0.17018 0.8443 0.0
N450 N 0.97416 0.13188 0.79077 0.0
N451 N 0.94384 0.15905 0.84145 0.0
H452 H 0.69694 0.39252 0.00104 0.0
H453 H 0.61504 0.30629 0.98292 0.0
H454 H 0.67956 0.35809 0.92511 0.0
H455 H 0.64312 0.32882 0.05969 0.0
H456 H 0.63109 0.33349 0.96122 0.0
H457 H 0.66986 0.37765 0.02178 0.0
C458 C 0.68719 0.38222 0.98856 0.0
C459 C 0.69077 0.37613 0.96147 0.0
C460 C 0.63343 0.33272 0.98291 0.0
C461 C 0.65987 0.35906 0.98509 0.0
C462 C 0.62422 0.31724 0.99533 0.0
C463 C 0.62812 0.315 0.02303 0.0
C464 C 0.64652 0.34603 0.99835 0.0
C465 C 0.64003 0.32973 0.03815 0.0
C466 C 0.67178 0.37369 0.00045 0.0
C467 C 0.67756 0.36286 0.94622 0.0
N468 N 0.64904 0.34444 0.02554 0.0
N469 N 0.66285 0.35451 0.95835 0.0
H470 H 0.81856 0.0945 0.21643 0.0
H471 H 0.83908 0.97376 0.17133 0.0
H472 H 0.77546 0.04643 0.20312 0.0
H473 H 0.8829 0.0133 0.21347 0.0
H474 H 0.81714 0.00385 0.17095 0.0
H475 H 0.84357 0.06774 0.20579 0.0
C476 C 0.81438 0.07839 0.21129 0.0
C477 C 0.79495 0.07262 0.211 0.0
C478 C 0.83166 0.00601 0.17994 0.0
C479 C 0.82318 0.04234 0.19811 0.0
C480 C 0.84426 0.98886 0.17999 0.0
C481 C 0.86272 0.99089 0.19301 0.0
C482 C 0.83753 0.02535 0.19298 0.0
C483 C 0.86869 0.01096 0.20354 0.0
C484 C 0.82859 0.06321 0.20513 0.0
C485 C 0.79026 0.05158 0.204 0.0
N486 N 0.85599 0.0274 0.20373 0.0
N487 N 0.80424 0.03727 0.19779 0.0
H488 H 0.5406 0.02668 0.95116 0.0
H489 H 0.50932 0.91931 0.00552 0.0
H490 H 0.58217 0.98424 0.98637 0.0
H491 H 0.47119 0.97245 0.99514 0.0
H492 H 0.53629 0.94017 0.99339 0.0
H493 H 0.51488 0.00315 0.95946 0.0
C494 C 0.54439 0.01223 0.96018 0.0
C495 C 0.56356 0.0076 0.96846 0.0
C496 C 0.52201 0.94721 0.99395 0.0
C497 C 0.5341 0.98074 0.97839 0.0
C498 C 0.50665 0.9354 0.00105 0.0
C499 C 0.48795 0.94414 0.00135 0.0
C500 C 0.51852 0.96774 0.98677 0.0
C501 C 0.48532 0.96502 0.99521 0.0
C502 C 0.52965 0.9989 0.96517 0.0
C503 C 0.56756 0.98854 0.97991 0.0
N504 N 0.50038 0.97601 0.98797 0.0
N505 N 0.55291 0.97587 0.9848 0.0
H506 H 0.93274 0.67052 0.36307 0.0
H507 H 0.0028 0.62871 0.24877 0.0
H508 H 0.91841 0.66961 0.27703 0.0
H509 H 0.02109 0.64029 0.33341 0.0
H510 H 0.9694 0.63461 0.26021 0.0
H511 H 0.96226 0.65059 0.35362 0.0
C512 C 0.93556 0.66575 0.3422 0.0
C513 C 0.92327 0.67212 0.32076 0.0
C514 C 0.98068 0.63556 0.27635 0.0
C515 C 0.95707 0.64941 0.30989 0.0
C516 C -0.00023 0.63219 0.26985 0.0
C517 C 0.0148 0.63446 0.29012 0.0
C518 C 0.97653 0.64139 0.3033 0.0
C519 C 0.00997 0.63863 0.31711 0.0
C520 C 0.95247 0.65444 0.33684 0.0
C521 C 0.92762 0.66534 0.29417 0.0
N522 N 0.99125 0.64231 0.32288 0.0
N523 N 0.9443 0.65461 0.28948 0.0
H524 H 0.17782 0.36283 0.42779 0.0
H525 H 0.12818 0.33111 0.55681 0.0
H526 H 0.19233 0.38972 0.5091 0.0
H527 H 0.11053 0.308 0.4749 0.0
H528 H 0.1469 0.35809 0.53904 0.0
H529 H 0.14876 0.34829 0.44357 0.0
C530 C 0.17473 0.36598 0.44889 0.0
C531 C 0.18775 0.3771 0.46729 0.0
C532 C 0.13866 0.34739 0.52492 0.0
C533 C 0.1546 0.36027 0.48557 0.0
C534 C 0.12794 0.33196 0.53507 0.0
C535 C 0.11814 0.31697 0.51729 0.0
C536 C 0.1398 0.34765 0.49679 0.0
C537 C 0.11809 0.31904 0.48935 0.0
C538 C 0.1581 0.35768 0.4579 0.0
C539 C 0.18284 0.38099 0.49428 0.0
N540 N 0.12911 0.33381 0.47994 0.0
N541 N 0.16684 0.37223 0.50273 0.0
H542 H 0.82574 0.60084 0.71333 0.0
H543 H 0.85544 0.48219 0.67062 0.0
H544 H 0.79081 0.55725 0.66114 0.0
H545 H 0.88841 0.52202 0.73038 0.0
H546 H 0.8355 0.51233 0.65949 0.0
H547 H 0.85209 0.57472 0.71332 0.0
C548 C 0.82368 0.58589 0.70168 0.0
C549 C 0.80595 0.58108 0.68761 0.0
C550 C 0.84727 0.51458 0.67478 0.0
C551 C 0.83596 0.55132 0.68729 0.0
C552 C 0.85873 0.49737 0.68105 0.0
C553 C 0.87337 0.49949 0.70184 0.0
C554 C 0.85033 0.53404 0.68958 0.0
C555 C 0.87713 0.51961 0.71442 0.0
C556 C 0.83871 0.57102 0.70166 0.0
C557 C 0.8041 0.56153 0.67269 0.0
N558 N 0.86543 0.53606 0.70845 0.0
N559 N 0.81884 0.54736 0.67308 0.0
H560 H 0.49398 0.10685 0.3057 0.0
H561 H 0.42424 0.19767 0.26222 0.0
H562 H 0.51314 0.16999 0.30013 0.0
H563 H 0.40605 0.16002 0.32398 0.0
H564 H 0.45567 0.18008 0.26432 0.0
H565 H 0.4603 0.11991 0.30352 0.0
C566 C 0.49114 0.12342 0.30439 0.0
C567 C 0.50639 0.13735 0.30312 0.0
C568 C 0.44466 0.1755 0.2771 0.0
C569 C 0.46827 0.15198 0.29957 0.0
C570 C 0.42665 0.18537 0.27578 0.0
C571 C 0.41255 0.18049 0.29322 0.0
C572 C 0.4485 0.16036 0.29557 0.0
C573 C 0.4166 0.16437 0.31038 0.0
C574 C 0.47201 0.13078 0.30305 0.0
C575 C 0.50191 0.15866 0.3013 0.0
N576 N 0.43432 0.15488 0.31126 0.0
N577 N 0.48327 0.16525 0.29912 0.0
H578 H 0.70735 0.8719 0.49497 0.0
H579 H 0.61759 0.79627 0.47161 0.0
H580 H 0.68212 0.85051 0.41595 0.0
H581 H 0.64423 0.81688 0.55008 0.0
H582 H 0.63626 0.82215 0.45129 0.0
H583 H 0.67978 0.85821 0.51557 0.0
C584 C 0.69586 0.8646 0.48191 0.0
C585 C 0.69724 0.86193 0.45373 0.0
C586 C 0.63777 0.82125 0.47302 0.0
C587 C 0.66571 0.84598 0.47722 0.0
C588 C 0.62706 0.80651 0.48466 0.0
C589 C 0.62969 0.80409 0.5125 0.0
C590 C 0.6512 0.83357 0.48936 0.0
C591 C 0.64203 0.81791 0.52844 0.0
C592 C 0.6801 0.85677 0.4937 0.0
C593 C 0.68178 0.85265 0.4378 0.0
N594 N 0.65254 0.83183 0.51658 0.0
N595 N 0.6668 0.84465 0.4498 0.0
H596 H 0.27004 0.0503 0.73169 0.0
H597 H 0.37552 0.01116 0.70274 0.0
H598 H 0.30875 0.0921 0.69862 0.0
H599 H 0.32572 0.97131 0.69033 0.0
H600 H 0.35377 0.04186 0.70635 0.0
H601 H 0.29337 0.0219 0.72459 0.0
C602 C 0.28357 0.05363 0.72329 0.0
C603 C 0.28737 0.07362 0.71556 0.0
C604 C 0.34773 0.02636 0.70244 0.0
C605 C 0.31412 0.04099 0.70725 0.0
C606 C 0.36008 0.00886 0.70025 0.0
C607 C 0.35245 0.98858 0.69652 0.0
C608 C 0.32773 0.02343 0.70143 0.0
C609 C 0.33232 0.98657 0.69342 0.0
C610 C 0.29679 0.03731 0.71898 0.0
C611 C 0.30522 0.07689 0.70476 0.0
N612 N 0.32069 0.00373 0.69643 0.0
N613 N 0.31801 0.06069 0.70091 0.0
H614 H 0.95925 0.47491 0.03134 0.0
H615 H 0.06935 0.47771 0.99472 0.0
H616 H 0.99539 0.41928 0.02643 0.0
H617 H 0.02712 0.52599 0.97796 0.0
H618 H 0.04368 0.45651 0.00967 0.0
H619 H 0.98582 0.49498 0.01753 0.0
C620 C 0.97287 0.46695 0.0278 0.0
C621 C 0.97501 0.44531 0.02982 0.0
C622 C 0.04007 0.47167 0.00248 0.0
C623 C 0.00545 0.46822 0.01356 0.0
C624 C 0.05466 0.48372 0.99378 0.0
C625 C 0.05041 0.50373 0.98521 0.0
C626 C 0.02117 0.47979 0.00288 0.0
C627 C 0.03112 0.51071 0.98445 0.0
C628 C 0.98799 0.4784 0.01963 0.0
C629 C 0.99307 0.43592 0.02505 0.0
N630 N 0.01727 0.49886 0.99346 0.0
N631 N 0.00759 0.44742 0.01695 0.0
H632 H 0.49415 0.41343 0.52098 0.0
H633 H 0.51995 0.5231 0.46877 0.0
H634 H 0.45633 0.46775 0.52439 0.0
H635 H 0.56419 0.47812 0.49022 0.0
H636 H 0.49574 0.50042 0.48378 0.0
H637 H 0.51981 0.43511 0.50682 0.0
C638 C 0.49133 0.42995 0.51925 0.0
C639 C 0.47299 0.43874 0.52372 0.0
C640 C 0.51074 0.49546 0.48512 0.0
C641 C 0.50205 0.46337 0.50687 0.0
C642 C 0.52458 0.50831 0.47628 0.0
C643 C 0.54418 0.5026 0.47842 0.0
C644 C 0.51646 0.47664 0.496 0.0
C645 C 0.54925 0.48319 0.48832 0.0
C646 C 0.50594 0.44226 0.51098 0.0
C647 C 0.47017 0.46023 0.52104 0.0
N648 N 0.53546 0.47091 0.49686 0.0
N649 N 0.48444 0.47172 0.51249 0.0
H650 H 0.11072 0.79687 0.97049 0.0
H651 H 0.20027 0.87239 0.99302 0.0
H652 H 0.13303 0.82384 0.04865 0.0
H653 H 0.17831 0.84592 0.91443 0.0
H654 H 0.17123 0.86116 0.01257 0.0
H655 H 0.13035 0.82106 0.94874 0.0
C656 C 0.11939 0.8082 0.9831 0.0
C657 C 0.12062 0.80798 0.01142 0.0
C658 C 0.17259 0.85807 0.99097 0.0
C659 C 0.14327 0.83549 0.98669 0.0
C660 C 0.18921 0.86447 0.97979 0.0
C661 C 0.19191 0.85966 0.95216 0.0
C662 C 0.15869 0.84654 0.97446 0.0
C663 C 0.17695 0.84968 0.93592 0.0
C664 C 0.13066 0.82196 0.97066 0.0
C665 C 0.13196 0.82314 0.02673 0.0
N666 N 0.16113 0.8431 0.94741 0.0
N667 N 0.14311 0.83602 0.01416 0.0
H668 H 0.38851 0.52808 0.23661 0.0
H669 H 0.29624 0.57649 0.15908 0.0
H670 H 0.35144 0.49349 0.17625 0.0
H671 H 0.32308 0.60542 0.23351 0.0
H672 H 0.32163 0.54979 0.15813 0.0
H673 H 0.36997 0.55999 0.22825 0.0
C674 C 0.37676 0.52727 0.22114 0.0
C675 C 0.37132 0.50803 0.20736 0.0
C676 C 0.32209 0.56209 0.17453 0.0
C677 C 0.35008 0.54442 0.19786 0.0
C678 C 0.30759 0.57738 0.17513 0.0
C679 C 0.30732 0.59303 0.19672 0.0
C680 C 0.33649 0.56237 0.19566 0.0
C681 C 0.3226 0.59351 0.21666 0.0
C682 C 0.36613 0.54547 0.21654 0.0
C683 C 0.35598 0.50793 0.18758 0.0
N684 N 0.33648 0.57822 0.21583 0.0
N685 N 0.34578 0.52581 0.18361 0.0
H686 H 0.51811 0.64482 0.82864 0.0
H687 H 0.41415 0.66909 0.76564 0.0
H688 H 0.49749 0.61786 0.74962 0.0
H689 H 0.42775 0.67455 0.85205 0.0
H690 H 0.44423 0.64926 0.75943 0.0
H691 H 0.48491 0.65489 0.83827 0.0
C692 C 0.50658 0.64073 0.81349 0.0
C693 C 0.51062 0.63069 0.78818 0.0
C694 C 0.44046 0.65449 0.77978 0.0
C695 C 0.47269 0.64244 0.79889 0.0
C696 C 0.42331 0.66583 0.78333 0.0
C697 C 0.41852 0.67365 0.80936 0.0
C698 C 0.45307 0.65132 0.80239 0.0
C699 C 0.43089 0.6689 0.83158 0.0
C700 C 0.48763 0.64646 0.819 0.0
C701 C 0.49509 0.6257 0.76935 0.0
N702 N 0.44777 0.65836 0.82755 0.0
N703 N 0.47686 0.63195 0.7749 0.0
H704 H 0.15292 0.21767 0.49215 0.0
H705 H 0.09992 0.10748 0.46679 0.0
H706 H 0.09259 0.21012 0.50489 0.0
H707 H 0.16021 0.11469 0.49176 0.0
H708 H 0.0968 0.1457 0.46574 0.0
H709 H 0.15504 0.18057 0.47642 0.0
C710 C 0.13998 0.20837 0.49101 0.0
C711 C 0.1226 0.21695 0.50025 0.0
C712 C 0.11076 0.13881 0.47092 0.0
C713 C 0.12501 0.17451 0.48226 0.0
C714 C 0.11258 0.11706 0.47138 0.0
C715 C 0.13032 0.10803 0.47962 0.0
C716 C 0.12687 0.15143 0.47824 0.0
C717 C 0.14624 0.1211 0.48557 0.0
C718 C 0.14126 0.18716 0.48217 0.0
C719 C 0.10634 0.20408 0.49826 0.0
N720 N 0.14413 0.14216 0.48488 0.0
N721 N 0.10797 0.18341 0.48974 0.0
H722 H 0.86281 0.37552 0.7016 0.0
H723 H 0.90999 0.275 0.76475 0.0
H724 H 0.92233 0.37143 0.73176 0.0
H725 H 0.85071 0.27861 0.73343 0.0
H726 H 0.91616 0.30807 0.746 0.0
H727 H 0.8596 0.33809 0.70591 0.0
C728 C 0.87532 0.36669 0.70865 0.0
C729 C 0.89279 0.37674 0.71676 0.0
C730 C 0.90186 0.30151 0.74291 0.0
C731 C 0.88911 0.33387 0.72208 0.0
C732 C 0.89832 0.28258 0.75361 0.0
C733 C 0.87972 0.27414 0.75103 0.0
C734 C 0.88666 0.31218 0.72967 0.0
C735 C 0.86523 0.28462 0.73618 0.0
C736 C 0.87345 0.3453 0.7112 0.0
C737 C 0.90851 0.36443 0.72557 0.0
N738 N 0.86894 0.30322 0.72639 0.0
N739 N 0.90622 0.34373 0.72838 0.0
H740 H 0.625 0.1038 0.96612 0.0
H741 H 0.59043 0.21762 0.0199 0.0
H742 H 0.56771 0.11867 0.99178 0.0
H743 H 0.64631 0.20441 0.98841 0.0
H744 H 0.58015 0.18257 0.00262 0.0
H745 H 0.63135 0.14123 0.96686 0.0
C746 C 0.61361 0.1149 0.97139 0.0
C747 C 0.5959 0.10806 0.97937 0.0
C748 C 0.59457 0.18741 -0.00092 0.0
C749 C 0.60317 0.15095 0.98056 0.0
C750 C 0.60045 0.20746 0.00894 0.0
C751 C 0.61935 0.21386 0.00595 0.0
C752 C 0.60777 0.1735 0.98644 0.0
C753 C 0.63164 0.20009 0.99135 0.0
C754 C 0.61728 0.13631 0.97188 0.0
C755 C 0.58167 0.1232 0.98584 0.0
N756 N 0.62575 0.18042 0.98255 0.0
N757 N 0.58572 0.1439 0.9867 0.0
H758 H 0.91071 0.76976 0.26023 0.0
H759 H 0.8566 0.86691 0.19796 0.0
H760 H 0.84933 0.7724 0.24042 0.0
H761 H 0.91808 0.86372 0.21673 0.0
H762 H 0.85443 0.82996 0.20587 0.0
H763 H 0.91439 0.80158 0.23736 0.0
C764 C 0.89802 0.77686 0.25077 0.0
C765 C 0.87964 0.76855 0.25263 0.0
C766 C 0.86845 0.83725 0.20784 0.0
C767 C 0.88374 0.80515 0.22655 0.0
C768 C 0.86971 0.85836 0.20322 0.0
C769 C 0.88752 0.86857 0.20714 0.0
C770 C 0.88507 0.82627 0.2166 0.0
C771 C 0.90401 0.8566 0.2138 0.0
C772 C 0.90014 0.79506 0.2377 0.0
C773 C 0.86376 0.77836 0.23975 0.0
N774 N 0.90235 0.83619 0.21872 0.0
N775 N 0.86615 0.79628 0.22759 0.0
H776 H 0.2097 0.14764 0.77851 0.0
H777 H 0.1149 0.07945 0.78171 0.0
H778 H 0.1991 0.08986 0.72907 0.0
H779 H 0.11364 0.14694 0.79463 0.0
H780 H 0.14955 0.08053 0.77626 0.0
H781 H 0.17792 0.14485 0.79721 0.0
C782 C 0.20083 0.1342 0.77197 0.0
C783 C 0.2069 0.11902 0.75209 0.0
C784 C 0.14172 0.09506 0.78077 0.0
C785 C 0.17095 0.11562 0.77361 0.0
C786 C 0.12195 0.09449 0.78406 0.0
C787 C 0.11124 0.11318 0.78818 0.0
C788 C 0.15094 0.11442 0.78195 0.0
C789 C 0.12127 0.13217 0.79116 0.0
C790 C 0.18274 0.13269 0.78254 0.0
C791 C 0.19486 0.10199 0.74417 0.0
N792 N 0.14056 0.13233 0.7877 0.0
N793 N 0.17746 0.10074 0.75496 0.0
H794 H 0.78069 0.41227 0.97382 0.0
H795 H 0.88182 0.37833 0.04105 0.0
H796 H 0.79277 0.35074 0.00051 0.0
H797 H 0.86839 0.44043 0.01717 0.0
H798 H 0.84757 0.36991 0.03487 0.0
H799 H 0.81069 0.42464 0.99749 0.0
C800 C 0.78952 0.40142 0.98497 0.0
C801 C 0.78437 0.38034 0.98476 0.0
C802 C 0.85207 0.38551 0.03148 0.0
C803 C 0.81892 0.39435 0.01172 0.0
C804 C 0.87164 0.39037 0.03514 0.0
C805 C 0.87806 0.40998 0.02904 0.0
C806 C 0.83887 0.40033 0.02154 0.0
C807 C 0.86416 0.42498 0.02162 0.0
C808 C 0.80668 0.4085 0.99852 0.0
C809 C 0.79628 0.36706 -0.00014 0.0
N810 N 0.84529 0.41973 0.01763 0.0
N811 N 0.81316 0.3742 0.01235 0.0
H812 H 0.71175 0.16352 0.286 0.0
H813 H 0.62485 0.08602 0.29574 0.0
H814 H 0.71417 0.09716 0.26237 0.0
H815 H 0.62185 0.15259 0.31774 0.0
H816 H 0.65966 0.08863 0.29273 0.0
H817 H 0.68123 0.15867 0.30648 0.0
C818 C 0.70605 0.14787 0.28549 0.0
C819 C 0.71539 0.13078 0.272 0.0
C820 C 0.65145 0.10262 0.29867 0.0
C821 C 0.68033 0.12514 0.29524 0.0
C822 C 0.63154 0.10112 0.30051 0.0
C823 C 0.62031 0.11918 0.30646 0.0
C824 C 0.66019 0.12233 0.30265 0.0
C825 C 0.62986 0.13828 0.31269 0.0
C826 C 0.68858 0.14511 0.29718 0.0
C827 C 0.70736 0.11085 0.27223 0.0
N828 N 0.64918 0.13941 0.31015 0.0
N829 N 0.69017 0.10863 0.28328 0.0
H830 H 0.90647 0.88266 0.5328 0.0
H831 H 0.79862 0.91269 0.48687 0.0
H832 H 0.88855 0.943 0.50676 0.0
H833 H 0.81594 0.85227 0.51325 0.0
H834 H 0.83027 0.92622 0.50286 0.0
H835 H 0.87259 0.87365 0.53495 0.0
C836 C 0.89545 0.89421 0.52813 0.0
C837 C 0.90036 0.91346 0.51903 0.0
C838 C 0.82708 0.91008 0.50554 0.0
C839 C 0.86155 0.90313 0.5211 0.0
C840 C 0.80898 0.90233 0.4964 0.0
C841 C 0.80473 0.8812 0.49826 0.0
C842 C 0.84114 0.89656 0.51637 0.0
C843 C 0.81865 0.86861 0.51109 0.0
C844 C 0.87608 0.88901 0.52924 0.0
C845 C 0.88544 0.92783 0.51341 0.0
N846 N 0.83635 0.87638 0.51925 0.0
N847 N 0.86672 0.92224 0.51411 0.0
H848 H 0.55818 0.12604 0.20055 0.0
H849 H 0.58106 0.04033 0.08031 0.0
H850 H 0.56317 0.06023 0.21302 0.0
H851 H 0.59789 0.10504 0.08378 0.0
H852 H 0.56808 0.04709 0.12522 0.0
H853 H 0.56566 0.11807 0.15358 0.0
C854 C 0.56072 0.10984 0.19338 0.0
C855 C 0.56043 0.0938 0.21096 0.0
C856 C 0.57454 0.05977 0.11601 0.0
C857 C 0.5689 0.0846 0.1569 0.0
C858 C 0.58188 0.05598 0.09042 0.0
C859 C 0.59064 0.07216 0.07842 0.0
C860 C 0.57569 0.07994 0.12934 0.0
C861 C 0.59139 0.09209 0.09238 0.0
C862 C 0.56501 0.10534 0.16651 0.0
C863 C 0.56341 0.07308 0.20025 0.0
N864 N 0.58397 0.09543 0.11706 0.0
N865 N 0.56769 0.06906 0.17386 0.0
H866 H 0.82462 0.73798 0.31558 0.0
H867 H 0.78297 0.80434 0.44157 0.0
H868 H 0.84308 0.72959 0.39874 0.0
H869 H 0.75969 0.80756 0.35925 0.0
H870 H 0.80185 0.77341 0.42684 0.0
H871 H 0.79745 0.75938 0.33142 0.0
C872 C 0.82275 0.74027 0.33715 0.0
C873 C 0.83639 0.73231 0.35587 0.0
C874 C 0.79241 0.78069 0.41204 0.0
C875 C 0.80547 0.75709 0.37416 0.0
C876 C 0.78164 0.79839 0.42045 0.0
C877 C 0.76996 0.80876 0.40154 0.0
C878 C 0.79169 0.77342 0.38446 0.0
C879 C 0.76866 0.8002 0.37449 0.0
C880 C 0.80724 0.75256 0.3462 0.0
C881 C 0.83311 0.73564 0.38356 0.0
N882 N 0.77962 0.78322 0.36668 0.0
N883 N 0.81819 0.74809 0.39188 0.0
H884 H 0.22208 0.19999 0.70786 0.0
H885 H 0.16745 0.20373 0.56712 0.0
H886 H 0.24296 0.1668 0.63579 0.0
H887 H 0.16476 0.25665 0.62663 0.0
H888 H 0.19599 0.19072 0.59204 0.0
H889 H 0.20251 0.22257 0.67922 0.0
C890 C 0.22295 0.19777 0.68608 0.0
C891 C 0.23383 0.18113 0.67422 0.0
C892 C 0.18938 0.20537 0.59946 0.0
C893 C 0.21124 0.20662 0.64146 0.0
C894 C 0.17303 0.21271 0.58534 0.0
C895 C 0.16371 0.23115 0.59503 0.0
C896 C 0.19616 0.21624 0.62388 0.0
C897 C 0.17158 0.24232 0.61858 0.0
C898 C 0.21176 0.21067 0.66975 0.0
C899 C 0.23454 0.17916 0.64587 0.0
N900 N 0.18716 0.23445 0.63259 0.0
N901 N 0.22301 0.1914 0.63045 0.0
H902 H 0.88787 0.4788 0.83275 0.0
H903 H 0.96384 0.40838 0.91375 0.0
H904 H 0.92631 0.43373 0.79356 0.0
H905 H 0.91486 0.4404 0.94863 0.0
H906 H 0.95524 0.4237 0.87094 0.0
H907 H 0.90317 0.47143 0.8766 0.0
C908 C 0.89976 0.46762 0.8333 0.0
C909 C 0.90559 0.45657 0.80947 0.0
C910 C 0.94651 0.4275 0.88808 0.0
C911 C 0.92304 0.44799 0.85964 0.0
C912 C 0.9514 0.41879 0.91249 0.0
C913 C 0.93987 0.4229 0.93463 0.0
C914 C 0.93011 0.44054 0.88595 0.0
C915 C 0.92398 0.43657 0.93194 0.0
C916 C 0.90842 0.46336 0.85837 0.0
C917 C 0.92119 0.44241 0.81145 0.0
N918 N 0.91952 0.44482 0.90799 0.0
N919 N 0.92923 0.43832 0.83616 0.0
H920 H 0.22425 0.54297 0.13102 0.0
H921 H 0.1697 0.5695 0.9912 0.0
H922 H 0.22341 0.60359 0.09905 0.0
H923 H 0.15754 0.51511 0.03272 0.0
H924 H 0.19646 0.57765 0.02441 0.0
H925 H 0.20609 0.52883 0.08973 0.0
C926 C 0.2204 0.55325 0.11524 0.0
C927 C 0.22507 0.57456 0.11864 0.0
C928 C 0.18813 0.56373 0.02597 0.0
C929 C 0.2046 0.55845 0.07136 0.0
C930 C 0.17292 0.55895 0.00687 0.0
C931 C 0.16105 0.54186 0.00953 0.0
C932 C 0.19152 0.5513 0.04781 0.0
C933 C 0.16611 0.52866 0.03015 0.0
C934 C 0.21007 0.54517 0.0917 0.0
C935 C 0.21984 0.58714 0.09748 0.0
N936 N 0.18077 0.53386 0.0488 0.0
N937 N 0.20981 0.57892 0.07482 0.0
H938 H 0.56693 0.22714 0.09731 0.0
H939 H 0.57556 0.20736 0.25379 0.0
H940 H 0.60403 0.26565 0.15339 0.0
H941 H 0.57751 0.15825 0.18888 0.0
H942 H 0.57536 0.23353 0.21992 0.0
H943 H 0.55877 0.20698 0.13457 0.0
C944 C 0.57292 0.23178 0.11757 0.0
C945 C 0.58645 0.24786 0.1222 0.0
C946 C 0.57562 0.21699 0.21329 0.0
C947 C 0.57706 0.22494 0.16471 0.0
C948 C 0.57577 0.20215 0.23246 0.0
C949 C 0.5768 0.18074 0.22399 0.0
C950 C 0.5758 0.21017 0.18567 0.0
C951 C 0.57698 0.17465 0.1962 0.0
C952 C 0.56833 0.22018 0.13873 0.0
C953 C 0.59374 0.25316 0.14893 0.0
N954 N 0.57638 0.1893 0.17801 0.0
N955 N 0.58911 0.24154 0.16924 0.0
H956 H 0.83466 0.94869 0.29179 0.0
H957 H 0.75589 0.88202 0.3548 0.0
H958 H 0.80315 0.89848 0.24638 0.0
H959 H 0.7836 0.93607 0.39725 0.0
H960 H 0.77005 0.89033 0.31324 0.0
H961 H 0.8135 0.9467 0.32888 0.0
C962 C 0.82318 0.93734 0.28951 0.0
C963 C 0.82082 0.92354 0.26606 0.0
C964 C 0.77282 0.90055 0.33155 0.0
C965 C 0.79657 0.92111 0.30861 0.0
C966 C 0.7647 0.89584 0.3553 0.0
C967 C 0.7688 0.90819 0.37967 0.0
C968 C 0.78525 0.91764 0.33219 0.0
C969 C 0.78019 0.92598 0.37902 0.0
C970 C 0.81106 0.93626 0.31071 0.0
C971 C 0.80558 0.90932 0.26416 0.0
N972 N 0.78824 0.92999 0.35577 0.0
N973 N 0.79417 0.9083 0.2853 0.0
H974 H 0.17259 0.01189 0.52455 0.0
H975 H 0.23904 0.09896 0.60159 0.0
H976 H 0.19334 0.06474 0.48695 0.0
H977 H 0.22394 0.04247 0.63646 0.0
H978 H 0.22697 0.08373 0.55719 0.0
H979 H 0.19634 0.01902 0.5624 0.0
C980 C 0.18253 0.02464 0.52388 0.0
C981 C 0.18069 0.03802 0.50285 0.0
C982 C 0.22652 0.07452 0.57445 0.0
C983 C 0.20758 0.0466 0.54645 0.0
C984 C 0.23332 0.08327 0.59988 0.0
C985 C 0.23215 0.07212 0.62287 0.0
C986 C 0.21824 0.05457 0.572 0.0
C987 C 0.22489 0.05173 0.61934 0.0
C988 C 0.19603 0.02878 0.5456 0.0
C989 C 0.19408 0.05415 0.50288 0.0
N990 N 0.21793 0.04373 0.59445 0.0
N991 N 0.20665 0.05831 0.5247 0.0
H992 H 0.45834 0.33765 0.45441 0.0
H993 H 0.3927 0.24711 0.38201 0.0
H994 H 0.4119 0.30977 0.49214 0.0
H995 H 0.44195 0.27127 0.34638 0.0
H996 H 0.40278 0.26595 0.42519 0.0
H997 H 0.45612 0.3096 0.41794 0.0
C998 C 0.4479 0.32542 0.4553 0.0
C999 C 0.43501 0.3263 0.47609 0.0
C1000 C 0.41155 0.26693 0.40806 0.0
C1001 C 0.43224 0.29427 0.4342 0.0
C1002 C 0.40577 0.2562 0.38335 0.0
C1003 C 0.41632 0.25793 0.36043 0.0
C1004 C 0.42786 0.27971 0.40982 0.0
C1005 C 0.43327 0.26968 0.36346 0.0
C1006 C 0.44663 0.3094 0.43442 0.0
C1007 C 0.42195 0.30989 0.47634 0.0
N1008 N 0.43836 0.2804 0.3876 0.0
N1009 N 0.42067 0.29475 0.45545 0.0
H1010 H 0.05166 0.69529 0.23849 0.0
H1011 H 0.11168 0.76823 0.15325 0.0
H1012 H 0.11039 0.7141 0.2599 0.0
H1013 H 0.05755 0.73982 0.1243 0.0
H1014 H 0.10746 0.75643 0.19795 0.0
H1015 H 0.04997 0.71926 0.20266 0.0
C1016 C 0.06409 0.70474 0.23602 0.0
C1017 C 0.08135 0.70235 0.25188 0.0
C1018 C 0.09635 0.75307 0.18194 0.0
C1019 C 0.07949 0.72974 0.2108 0.0
C1020 C 0.09871 0.75985 0.15639 0.0
C1021 C 0.08514 0.75461 0.1348 0.0
C1022 C 0.08033 0.74093 0.18595 0.0
C1023 C 0.06853 0.74394 0.14022 0.0
C1024 C 0.06312 0.71839 0.21549 0.0
C1025 C 0.0969 0.71518 0.24789 0.0
N1026 N 0.06673 0.73716 0.16516 0.0
N1027 N 0.09569 0.7281 0.2275 0.0
H1028 H 0.8895 0.25174 0.89692 0.0
H1029 H 0.95829 0.34109 0.96551 0.0
H1030 H 0.94255 0.26843 0.8637 0.0
H1031 H 0.90862 0.31933 0.00263 0.0
H1032 H 0.95542 0.31141 0.93135 0.0
H1033 H 0.89855 0.27327 0.93851 0.0
C1034 C 0.90315 0.2598 0.89847 0.0
C1035 C 0.91515 0.25856 0.87665 0.0
C1036 C 0.94533 0.31292 0.94721 0.0
C1037 C 0.92557 0.28336 0.92422 0.0
C1038 C 0.94699 0.32987 0.96678 0.0
C1039 C 0.93346 0.33292 0.98668 0.0
C1040 C 0.92993 0.29906 0.9474 0.0
C1041 C 0.91924 0.31776 0.98747 0.0
C1042 C 0.90834 0.27205 0.92228 0.0
C1043 C 0.93277 0.26911 0.87993 0.0
N1044 N 0.91765 0.30167 0.96783 0.0
N1045 N 0.93733 0.28132 0.90313 0.0
H1046 H 0.21947 0.65877 0.26977 0.0
H1047 H 0.13027 0.5906 0.30274 0.0
H1048 H 0.21162 0.59368 0.24174 0.0
H1049 H 0.13251 0.65793 0.31712 0.0
H1050 H 0.16399 0.59004 0.29143 0.0
H1051 H 0.19166 0.65706 0.29735 0.0
C1052 C 0.21211 0.64401 0.26973 0.0
C1053 C 0.21772 0.62643 0.25303 0.0
C1054 C 0.1572 0.6049 0.29753 0.0
C1055 C 0.18583 0.6244 0.28459 0.0
C1056 C 0.13795 0.60525 0.30417 0.0
C1057 C 0.12837 0.6244 0.31034 0.0
C1058 C 0.16698 0.62384 0.29707 0.0
C1059 C 0.13919 0.64282 0.3121 0.0
C1060 C 0.1962 0.64307 0.28547 0.0
C1061 C 0.20768 0.60771 0.254 0.0
N1062 N 0.15782 0.64211 0.30504 0.0
N1063 N 0.19211 0.60726 0.26924 0.0
H1064 H 0.3062 0.84831 0.02207 0.0
H1065 H 0.38295 0.93817 0.01357 0.0
H1066 H 0.29342 0.90814 0.99072 0.0
H1067 H 0.39858 0.87467 0.02944 0.0
H1068 H 0.34914 0.93008 0.01766 0.0
H1069 H 0.33877 0.86044 0.0367 0.0
C1070 C 0.31008 0.86416 0.01883 0.0
C1071 C 0.29719 0.87715 0.00479 0.0
C1072 C 0.35998 0.91799 0.02068 0.0
C1073 C 0.33435 0.89104 0.02137 0.0
C1074 C 0.37932 0.92262 0.01842 0.0
C1075 C 0.39359 0.90696 0.0206 0.0
C1076 C 0.35482 0.89751 0.02497 0.0
C1077 C 0.38803 0.88716 0.02729 0.0
C1078 C 0.3287 0.87102 0.02706 0.0
C1079 C 0.30299 0.89751 0.00112 0.0
N1080 N 0.36902 0.88289 0.02876 0.0
N1081 N 0.32119 0.90374 0.00908 0.0
H1082 H 0.11181 0.59678 0.96606 0.0
H1083 H 0.12632 0.7039 0.97922 0.0
H1084 H 0.06053 0.61009 0.00965 0.0
H1085 H 0.08159 0.70561 0.03601 0.0
H1086 H 0.11763 0.66812 0.96361 0.0
H1087 H 0.11679 0.63411 0.96535 0.0
C1088 C 0.10131 0.60759 0.9749 0.0
C1089 C 0.08587 0.60026 0.98825 0.0
C1090 C 0.10972 0.67612 0.97957 0.0
C1091 C 0.09136 0.6434 0.98746 0.0
C1092 C 0.11458 0.69676 0.98832 0.0
C1093 C 0.10495 0.70766 0.00936 0.0
C1094 C 0.09526 0.66619 0.99225 0.0
C1095 C 0.08962 0.69774 0.02 0.0
C1096 C 0.10413 0.62909 0.97446 0.0
C1097 C 0.07277 0.61501 -0.0006 0.0
N1098 N 0.08544 0.67752 0.01158 0.0
N1099 N 0.07597 0.63582 -0.00092 0.0
H1100 H 0.41552 0.86518 0.69883 0.0
H1101 H 0.41605 0.76035 0.72336 0.0
H1102 H 0.35364 0.86329 0.70233 0.0
H1103 H 0.35961 0.77473 0.75241 0.0
H1104 H 0.41486 0.7931 0.70153 0.0
H1105 H 0.41741 0.82795 0.70494 0.0
C1106 C 0.40225 0.85681 0.70017 0.0
C1107 C 0.38442 0.86748 0.70037 0.0
C1108 C 0.40278 0.78923 0.7128 0.0
C1109 C 0.38639 0.82451 0.70719 0.0
C1110 C 0.40336 0.77035 0.72505 0.0
C1111 C 0.38808 0.76495 0.74023 0.0
C1112 C 0.38684 0.80292 0.71598 0.0
C1113 C 0.37187 0.77837 0.74131 0.0
C1114 C 0.40332 0.83538 0.70353 0.0
C1115 C 0.36773 0.85578 0.70223 0.0
N1116 N 0.37178 0.79679 0.7296 0.0
N1117 N 0.36917 0.83504 0.70604 0.0
H1118 H 0.44736 0.76467 0.84103 0.0
H1119 H 0.42675 0.8153 0.98948 0.0
H1120 H 0.39828 0.75047 0.88521 0.0
H1121 H 0.46773 0.84005 0.93889 0.0
H1122 H 0.42168 0.78558 0.95579 0.0
H1123 H 0.45993 0.7868 0.88074 0.0
C1124 C 0.43935 0.76601 0.85916 0.0
C1125 C 0.4216 0.756 0.85969 0.0
C1126 C 0.43198 0.79737 0.95225 0.0
C1127 C 0.43591 0.78108 0.90509 0.0
C1128 C 0.43497 0.81431 0.97155 0.0
C1129 C 0.4474 0.83041 0.96676 0.0
C1130 C 0.4415 0.79653 0.92801 0.0
C1131 C 0.45778 0.82815 0.94324 0.0
C1132 C 0.44651 0.77864 0.88178 0.0
C1133 C 0.41187 0.75818 0.88375 0.0
N1134 N 0.4544 0.81168 0.92454 0.0
N1135 N 0.41909 0.77058 0.90541 0.0
H1136 H 0.08839 0.2645 0.64186 0.0
H1137 H 0.03662 0.16658 0.69257 0.0
H1138 H 0.05278 0.22135 0.58997 0.0
H1139 H 0.07435 0.20778 0.74404 0.0
H1140 H 0.03734 0.19049 0.65698 0.0
H1141 H 0.07817 0.24825 0.68127 0.0
C1142 C 0.07814 0.25186 0.63875 0.0
C1143 C 0.07173 0.244 0.61249 0.0
C1144 C 0.04528 0.19446 0.67616 0.0
C1145 C 0.06014 0.2252 0.65757 0.0
C1146 C 0.04489 0.18079 0.69652 0.0
C1147 C 0.05573 0.185 0.72118 0.0
C1148 C 0.0567 0.21242 0.68034 0.0
C1149 C 0.06596 0.20379 0.72524 0.0
C1150 C 0.07235 0.24255 0.6613 0.0
C1151 C 0.05831 0.22775 0.60978 0.0
N1152 N 0.06641 0.21667 0.70488 0.0
N1153 N 0.05319 0.21868 0.63201 0.0
H1154 H 0.25492 0.80805 0.88689 0.0
H1155 H 0.33924 0.72327 0.86398 0.0
H1156 H 0.3047 0.80109 0.94212 0.0
H1157 H 0.30418 0.74772 0.79855 0.0
H1158 H 0.31918 0.7427 0.89642 0.0
H1159 H 0.26604 0.77751 0.85848 0.0
C1160 C 0.26794 0.79982 0.89336 0.0
C1161 C 0.27909 0.80725 0.91667 0.0
C1162 C 0.31565 0.74343 0.87494 0.0
C1163 C 0.29169 0.77236 0.88451 0.0
C1164 C 0.32702 0.73226 0.85634 0.0
C1165 C 0.32369 0.73429 0.82845 0.0
C1166 C 0.30076 0.75658 0.86559 0.0
C1167 C 0.30749 0.74601 0.81987 0.0
C1168 C 0.27428 0.78247 0.87711 0.0
C1169 C 0.29584 0.79604 0.9241 0.0
N1170 N 0.2968 0.75701 0.8384 0.0
N1171 N 0.30171 0.77923 0.90797 0.0
H1172 H 0.97583 0.90898 0.38908 0.0
H1173 H 0.89314 0.97625 0.31604 0.0
H1174 H 0.93036 0.94285 0.43021 0.0
H1175 H 0.92753 0.92886 0.27348 0.0
H1176 H 0.91255 0.9711 0.3577 0.0
H1177 H 0.9636 0.92267 0.34655 0.0
C1178 C 0.96342 0.91947 0.38922 0.0
C1179 C 0.9539 0.92455 0.41309 0.0
C1180 C 0.91602 0.96205 0.33915 0.0
C1181 C 0.94001 0.94034 0.36473 0.0
C1182 C 0.905 0.96503 0.31531 0.0
C1183 C 0.90847 0.95266 0.29135 0.0
C1184 C 0.93063 0.94661 0.33902 0.0
C1185 C 0.92417 0.93853 0.2916 0.0
C1186 C 0.95646 0.92725 0.36497 0.0
C1187 C 0.93795 0.93828 0.41218 0.0
N1188 N 0.93453 0.93568 0.31519 0.0
N1189 N 0.93144 0.94561 0.38836 0.0
H1190 H 0.62048 0.60556 0.70857 0.0
H1191 H 0.56868 0.56009 0.56972 0.0
H1192 H 0.55855 0.60063 0.6971 0.0
H1193 H 0.62773 0.54449 0.59348 0.0
H1194 H 0.56474 0.57648 0.61544 0.0
H1195 H 0.62368 0.58462 0.6655 0.0
C1196 C 0.60756 0.59999 0.69702 0.0
C1197 C 0.58922 0.60492 0.70628 0.0
C1198 C 0.5785 0.56929 0.61069 0.0
C1199 C 0.59277 0.58114 0.657 0.0
C1200 C 0.58078 0.56001 0.58461 0.0
C1201 C 0.59858 0.551 0.5778 0.0
C1202 C 0.59422 0.56987 0.62993 0.0
C1203 C 0.61375 0.55124 0.59788 0.0
C1204 C 0.6094 0.58797 0.67253 0.0
C1205 C 0.57296 0.59718 0.69065 0.0
N1206 N 0.61129 0.56075 0.62298 0.0
N1207 N 0.57511 0.58585 0.66658 0.0
H1208 H 0.76685 0.30528 0.91927 0.0
H1209 H 0.8182 0.24205 0.7991 0.0
H1210 H 0.75078 0.31161 0.83485 0.0
H1211 H 0.82798 0.22956 0.88306 0.0
H1212 H 0.79024 0.26377 0.81107 0.0
H1213 H 0.78618 0.27432 0.90611 0.0
C1214 C 0.7672 0.30001 0.89796 0.0
C1215 C 0.75741 0.31124 0.8781 0.0
C1216 C 0.79828 0.25598 0.82681 0.0
C1217 C 0.77968 0.27586 0.86285 0.0
C1218 C 0.81424 0.24349 0.81996 0.0
C1219 C 0.8257 0.23428 0.84019 0.0
C1220 C 0.79388 0.25944 0.85411 0.0
C1221 C 0.81976 0.23659 0.86683 0.0
C1222 C 0.77822 0.28228 0.89045 0.0
C1223 C 0.75823 0.30355 0.85083 0.0
N1224 N 0.80448 0.24924 0.87309 0.0
N1225 N 0.76943 0.28653 0.84398 0.0
H1226 H 0.07867 0.54089 0.08461 0.0
H1227 H 0.10287 0.62018 0.21459 0.0
H1228 H 0.12601 0.58414 0.09194 0.0
H1229 H 0.05954 0.57255 0.2126 0.0
H1230 H 0.11194 0.60624 0.17001 0.0
H1231 H 0.07177 0.55137 0.13163 0.0
C1232 C 0.08766 0.55252 0.09613 0.0
C1233 C 0.10287 0.56177 0.08428 0.0
C1234 C 0.10052 0.59872 0.1793 0.0
C1235 C 0.09503 0.5738 0.138 0.0
C1236 C 0.09528 0.60671 0.20478 0.0
C1237 C 0.0803 0.59761 0.21723 0.0
C1238 C 0.09061 0.58157 0.16594 0.0
C1239 C 0.07114 0.58005 0.20368 0.0
C1240 C 0.08373 0.55846 0.12298 0.0
C1241 C 0.11409 0.57668 0.10018 0.0
N1242 N 0.07634 0.57269 0.17859 0.0
N1243 N 0.10987 0.5823 0.12616 0.0
H1244 H 0.55264 0.61138 0.4971 0.0
H1245 H 0.63321 0.69426 0.47795 0.0
H1246 H 0.60392 0.59666 0.45395 0.0
H1247 H 0.58218 0.7082 0.52196 0.0
H1248 H 0.61953 0.6605 0.46082 0.0
H1249 H 0.55978 0.64853 0.49769 0.0
C1250 C 0.5652 0.61597 0.48725 0.0
C1251 C 0.5779 0.60085 0.47594 0.0
C1252 C 0.61119 0.67108 0.47388 0.0
C1253 C 0.58636 0.64341 0.47696 0.0
C1254 C 0.61899 0.69039 0.48366 0.0
C1255 C 0.60899 0.70393 0.50185 0.0
C1256 C 0.5933 0.66522 0.48245 0.0
C1257 C 0.59054 0.69814 0.50832 0.0
C1258 C 0.56931 0.63722 0.48767 0.0
C1259 C 0.59383 0.60775 0.4632 0.0
N1260 N 0.58343 0.67911 0.49895 0.0
N1261 N 0.59781 0.62852 0.46451 0.0
H1262 H 0.71652 0.6448 0.76633 0.0
H1263 H 0.62216 0.5816 0.79063 0.0
H1264 H 0.70555 0.58116 0.73402 0.0
H1265 H 0.62883 0.64795 0.81154 0.0
H1266 H 0.65606 0.57905 0.78027 0.0
H1267 H 0.68794 0.64393 0.79256 0.0
C1268 C 0.70829 0.63052 0.76505 0.0
C1269 C 0.71328 0.61314 0.74757 0.0
C1270 C 0.6502 0.5941 0.7876 0.0
C1271 C 0.68049 0.61209 0.77755 0.0
C1272 C 0.63084 0.59557 0.79371 0.0
C1273 C 0.62249 0.61511 0.80147 0.0
C1274 C 0.66131 0.6123 0.78926 0.0
C1275 C 0.63456 0.6326 0.80525 0.0
C1276 C 0.69194 0.63006 0.78002 0.0
C1277 C 0.70212 0.59504 0.74693 0.0
N1278 N 0.65327 0.63084 0.79869 0.0
N1279 N 0.68614 0.59507 0.76144 0.0
H1280 H 0.23862 0.68674 0.18372 0.0
H1281 H 0.17585 0.72897 0.061 0.0
H1282 H 0.24632 0.66564 0.10004 0.0
H1283 H 0.17632 0.75873 0.14243 0.0
H1284 H 0.2042 0.70826 0.07423 0.0
H1285 H 0.21885 0.716 0.16873 0.0
C1286 C 0.23649 0.68849 0.1622 0.0
C1287 C 0.24385 0.67348 0.1431 0.0
C1288 C 0.19829 0.71953 0.08913 0.0
C1289 C 0.22096 0.70674 0.1258 0.0
C1290 C 0.18205 0.73132 0.0816 0.0
C1291 C 0.17354 0.74538 0.10074 0.0
C1292 C 0.20592 0.72157 0.11612 0.0
C1293 C 0.18231 0.74795 0.12706 0.0
C1294 C 0.22515 0.70519 0.15364 0.0
C1295 C 0.24075 0.67667 0.1155 0.0
N1296 N 0.19785 0.7359 0.13409 0.0
N1297 N 0.22924 0.69272 0.10767 0.0
H1298 H 0.55616 0.74267 0.60494 0.0
H1299 H 0.58712 0.70097 0.74816 0.0
H1300 H 0.61141 0.75431 0.64794 0.0
H1301 H 0.53281 0.68699 0.70373 0.0
H1302 H 0.59351 0.72649 0.71609 0.0
H1303 H 0.54473 0.72845 0.64513 0.0
C1304 C 0.56579 0.7426 0.62297 0.0
C1305 C 0.5849 0.74931 0.62287 0.0
C1306 C 0.58007 0.71806 0.71357 0.0
C1307 C 0.57197 0.73287 0.66886 0.0
C1308 C 0.57639 0.70349 0.73191 0.0
C1309 C 0.55956 0.69153 0.72834 0.0
C1310 C 0.56687 0.72061 0.6914 0.0
C1311 C 0.5461 0.69564 0.70706 0.0
C1312 C 0.55926 0.73442 0.64591 0.0
C1313 C 0.59665 0.74901 0.64693 0.0
N1314 N 0.55018 0.70961 0.68916 0.0
N1315 N 0.59009 0.74062 0.6688 0.0
H1316 H 0.8039 0.40807 0.73623 0.0
H1317 H 0.76997 0.44129 0.88499 0.0
H1318 H 0.83147 0.45535 0.79203 0.0
H1319 H 0.74878 0.38719 0.83485 0.0
H1320 H 0.78752 0.45148 0.84713 0.0
H1321 H 0.77893 0.40499 0.7683 0.0
C1322 C 0.80457 0.41799 0.75505 0.0
C1323 C 0.81995 0.43176 0.76164 0.0
C1324 C 0.77882 0.43753 0.8443 0.0
C1325 C 0.79146 0.42831 0.79838 0.0
C1326 C 0.76871 0.43174 0.86589 0.0
C1327 C 0.75815 0.41316 0.86325 0.0
C1328 C 0.77834 0.42465 0.81991 0.0
C1329 C 0.75696 0.4015 0.83793 0.0
C1330 C 0.79033 0.4162 0.77336 0.0
C1331 C 0.82002 0.44432 0.78626 0.0
N1332 N 0.76714 0.4073 0.81734 0.0
N1333 N 0.8061 0.44215 0.80382 0.0
H1334 H 0.9337 0.82273 0.49741 0.0
H1335 H 0.95374 0.76577 0.35211 0.0
H1336 H 0.97485 0.84425 0.44454 0.0
H1337 H 0.90532 0.75276 0.39829 0.0
H1338 H 0.96642 0.78929 0.39026 0.0
H1339 H 0.92838 0.79163 0.46602 0.0
C1340 C 0.9419 0.82075 0.47947 0.0
C1341 C 0.95447 0.83633 0.47335 0.0
C1342 C 0.95314 0.78109 0.39213 0.0
C1343 C 0.94831 0.80085 0.43724 0.0
C1344 C 0.9459 0.76764 0.37038 0.0
C1345 C 0.92829 0.75756 0.37187 0.0
C1346 C 0.94272 0.78438 0.41553 0.0
C1347 C 0.91881 0.76047 0.39611 0.0
C1348 C 0.93878 0.80302 0.46149 0.0
C1349 C 0.9648 0.8328 0.44989 0.0
N1350 N 0.92606 0.77375 0.41689 0.0
N1351 N 0.9613 0.81556 0.4325 0.0
H1352 H 0.38251 0.36596 0.53692 0.0
H1353 H 0.27749 0.40717 0.49515 0.0
H1354 H 0.36751 0.43082 0.52832 0.0
H1355 H 0.29096 0.34232 0.50607 0.0
H1356 H 0.30893 0.41686 0.51666 0.0
H1357 H 0.34815 0.35784 0.53529 0.0
C1358 C 0.37202 0.37859 0.53537 0.0
C1359 C 0.3779 0.39904 0.53218 0.0
C1360 C 0.30494 0.40053 0.51481 0.0
C1361 C 0.33857 0.38981 0.52996 0.0
C1362 C 0.28695 0.39499 0.50254 0.0
C1363 C 0.28173 0.37387 0.49841 0.0
C1364 C 0.318 0.38481 0.52264 0.0
C1365 C 0.29447 0.35878 0.50867 0.0
C1366 C 0.35238 0.37392 0.53431 0.0
C1367 C 0.36365 0.41476 0.53034 0.0
N1368 N 0.31219 0.3645 0.51983 0.0
N1369 N 0.34468 0.40976 0.52881 0.0
H1370 H 0.42357 0.3824 0.22754 0.0
H1371 H 0.35972 0.2791 0.20367 0.0
H1372 H 0.36474 0.38274 0.19372 0.0
H1373 H 0.40805 0.28745 0.26238 0.0
H1374 H 0.36536 0.31414 0.18924 0.0
H1375 H 0.42208 0.34448 0.22878 0.0
C1376 C 0.41045 0.37449 0.21985 0.0
C1377 C 0.39413 0.38586 0.21097 0.0
C1378 C 0.37486 0.30812 0.20502 0.0
C1379 C 0.39235 0.34241 0.21249 0.0
C1380 C 0.3717 0.28815 0.21318 0.0
C1381 C 0.38332 0.28051 0.23445 0.0
C1382 C 0.38993 0.32027 0.21792 0.0
C1383 C 0.39861 0.29286 0.24614 0.0
C1384 C 0.4096 0.35283 0.22071 0.0
C1385 C 0.3776 0.37465 0.20106 0.0
N1386 N 0.40143 0.31214 0.23779 0.0
N1387 N 0.37704 0.35355 0.20239 0.0
H1388 H 0.3319 0.23489 0.34379 0.0
H1389 H 0.24843 0.32108 0.36421 0.0
H1390 H 0.30494 0.26694 0.27786 0.0
H1391 H 0.29479 0.3104 0.4237 0.0
H1392 H 0.26127 0.29234 0.3342 0.0
H1393 H 0.30978 0.25309 0.37449 0.0
C1394 C 0.32099 0.24527 0.33555 0.0
C1395 C 0.32057 0.24976 0.30828 0.0
C1396 C 0.26835 0.29608 0.35406 0.0
C1397 C 0.29527 0.27057 0.3434 0.0
C1398 C 0.26104 0.31237 0.37119 0.0
C1399 C 0.27075 0.31822 0.39629 0.0
C1400 C 0.2852 0.28536 0.36242 0.0
C1401 C 0.28704 0.30653 0.40434 0.0
C1402 C 0.30846 0.25574 0.35317 0.0
C1403 C 0.30599 0.26329 0.29882 0.0
N1404 N 0.29382 0.2907 0.3874 0.0
N1405 N 0.29407 0.27348 0.31646 0.0
H1406 H 0.02911 0.0719 0.66859 0.0
H1407 H 0.11738 0.06501 0.5765 0.0
H1408 H 0.08716 0.08617 0.70031 0.0
H1409 H 0.07045 0.0217 0.55986 0.0
H1410 H 0.1049 0.07557 0.62066 0.0
H1411 H 0.04237 0.05507 0.62726 0.0
C1412 C 0.04461 0.07126 0.66705 0.0
C1413 C 0.05702 0.08068 0.6878 0.0
C1414 C 0.09743 0.06363 0.60743 0.0
C1415 C 0.07211 0.0619 0.64067 0.0
C1416 C 0.10447 0.0577 0.58221 0.0
C1417 C 0.0949 0.04249 0.56461 0.0
C1418 C 0.08046 0.05464 0.61483 0.0
C1419 C 0.07827 0.03343 0.573 0.0
C1420 C 0.05213 0.06166 0.64352 0.0
C1421 C 0.077 0.0793 0.68478 0.0
N1422 N 0.07138 0.03985 0.59746 0.0
N1423 N 0.08389 0.07042 0.66148 0.0
H1424 H 0.68019 0.19882 0.06429 0.0
H1425 H 0.7422 0.18975 0.19864 0.0
H1426 H 0.68212 0.25063 0.12579 0.0
H1427 H 0.75939 0.15937 0.12266 0.0
H1428 H 0.72088 0.21313 0.17342 0.0
H1429 H 0.70939 0.18416 0.08587 0.0
C1430 C 0.68692 0.2072 0.08222 0.0
C1431 C 0.67874 0.22586 0.09341 0.0
C1432 C 0.72968 0.20166 0.16234 0.0
C1433 C 0.71193 0.20905 0.11846 0.0
C1434 C 0.74187 0.18832 0.1767 0.0
C1435 C 0.75235 0.17232 0.16276 0.0
C1436 C 0.72773 0.19866 0.13394 0.0
C1437 C 0.75142 0.17128 0.13431 0.0
C1438 C 0.70363 0.19892 0.09443 0.0
C1439 C 0.68805 0.2362 0.11657 0.0
N1440 N 0.73897 0.18392 0.12085 0.0
N1441 N 0.70398 0.22742 0.12871 0.0
H1442 H 0.42577 0.44163 0.29239 0.0
H1443 H 0.40859 0.43424 0.4476 0.0
H1444 H 0.38336 0.47934 0.3351 0.0
H1445 H 0.45989 0.4095 0.41084 0.0
H1446 H 0.39984 0.45193 0.40682 0.0
H1447 H 0.43974 0.43123 0.33577 0.0
C1448 C 0.41963 0.44804 0.31091 0.0
C1449 C 0.40324 0.46119 0.31009 0.0
C1450 C 0.41311 0.44281 0.40775 0.0
C1451 C 0.41891 0.44905 0.3597 0.0
C1452 C 0.41805 0.4326 0.43098 0.0
C1453 C 0.43488 0.4202 0.43249 0.0
C1454 C 0.42495 0.44039 0.38572 0.0
C1455 C 0.44672 0.41881 0.41046 0.0
C1456 C 0.42758 0.44206 0.33567 0.0
C1457 C 0.39592 0.46908 0.33472 0.0
N1458 N 0.44141 0.42859 0.38783 0.0
N1459 N 0.40362 0.46262 0.35849 0.0
H1460 H 0.65709 0.5775 0.47699 0.0
H1461 H 0.7185 0.55784 0.61427 0.0
H1462 H 0.65345 0.52078 0.51749 0.0
H1463 H 0.7029 0.6188 0.58824 0.0
H1464 H 0.70224 0.54166 0.57254 0.0
H1465 H 0.68249 0.58968 0.51049 0.0
C1466 C 0.66197 0.56731 0.49245 0.0
C1467 C 0.65276 0.5483 0.49483 0.0
C1468 C 0.70258 0.55857 0.57592 0.0
C1469 C 0.6817 0.5623 0.53333 0.0
C1470 C 0.7118 0.5678 0.59968 0.0
C1471 C 0.71177 0.58968 0.60485 0.0
C1472 C 0.69359 0.57133 0.55708 0.0
C1473 C 0.70298 0.60187 0.58524 0.0
C1474 C 0.67637 0.57439 0.51171 0.0
C1475 C 0.65989 0.53573 0.51519 0.0
N1476 N 0.69421 0.59253 0.56224 0.0
N1477 N 0.67374 0.54311 0.53398 0.0
H1478 H 0.24977 0.884 0.85795 0.0
H1479 H 0.33432 0.94326 0.79698 0.0
H1480 H 0.28396 0.93205 0.90345 0.0
H1481 H 0.29511 0.90201 0.74811 0.0
H1482 H 0.31417 0.94156 0.8352 0.0
H1483 H 0.26385 0.89283 0.81656 0.0
C1484 C 0.26001 0.89664 0.85919 0.0
C1485 C 0.26592 0.90709 0.88429 0.0
C1486 C 0.30984 0.93303 0.81607 0.0
C1487 C 0.28226 0.91709 0.83701 0.0
C1488 C 0.32139 0.93392 0.79424 0.0
C1489 C 0.31651 0.92254 0.7694 0.0
C1490 C 0.29337 0.92047 0.81321 0.0
C1491 C 0.29947 0.91092 0.76695 0.0
C1492 C 0.26807 0.90165 0.83553 0.0
C1493 C 0.2791 0.92344 0.88461 0.0
N1494 N 0.28863 0.90998 0.7887 0.0
N1495 N 0.28704 0.92772 0.86139 0.0
H1496 H 0.73639 0.10405 0.12476 0.0
H1497 H 0.65657 0.02654 0.05293 0.0
H1498 H 0.70434 0.06104 0.16666 0.0
H1499 H 0.67981 0.07794 0.0149 0.0
H1500 H 0.67978 0.03346 0.09146 0.0
H1501 H 0.72098 0.08959 0.08179 0.0
C1502 C 0.72622 0.09145 0.12493 0.0
C1503 C 0.72143 0.08392 0.14939 0.0
C1504 C 0.67999 0.04302 0.0745 0.0
C1505 C 0.70386 0.06726 0.10025 0.0
C1506 C 0.66682 0.039 0.05238 0.0
C1507 C 0.66597 0.05197 0.03088 0.0
C1508 C 0.69242 0.06009 0.07511 0.0
C1509 C 0.67975 0.06774 0.03121 0.0
C1510 C 0.71746 0.0832 0.10037 0.0
C1511 C 0.70827 0.0675 0.14833 0.0
N1512 N 0.69223 0.07157 0.0532 0.0
N1513 N 0.69984 0.05981 0.12416 0.0
H1514 H 0.42208 0.938 0.92985 0.0
H1515 H 0.42312 0.92715 0.77037 0.0
H1516 H 0.46754 0.90505 0.88764 0.0
H1517 H 0.38801 0.97284 0.81463 0.0
H1518 H 0.4416 0.9211 0.81262 0.0
H1519 H 0.41084 0.95271 0.88781 0.0
C1520 C 0.42976 0.93395 0.91174 0.0
C1521 C 0.4456 0.92007 0.91212 0.0
C1522 C 0.43009 0.93274 0.81299 0.0
C1523 C 0.43278 0.93679 0.86388 0.0
C1524 C 0.41955 0.93623 0.78885 0.0
C1525 C 0.40375 0.95022 0.78905 0.0
C1526 C 0.4246 0.94311 0.83746 0.0
C1527 C 0.39989 0.96168 0.81355 0.0
C1528 C 0.42341 0.94246 0.88777 0.0
C1529 C 0.45517 0.91558 0.88817 0.0
N1530 N 0.41 0.95758 0.83686 0.0
N1531 N 0.44844 0.92368 0.86488 0.0
H1532 H 0.68158 0.74943 0.6413 0.0
H1533 H 0.75132 0.65316 0.59903 0.0
H1534 H 0.6813 0.7177 0.56095 0.0
H1535 H 0.7402 0.67367 0.68183 0.0
H1536 H 0.73225 0.6829 0.58393 0.0
H1537 H 0.7091 0.72759 0.65518 0.0
C1538 C 0.68745 0.73807 0.62646 0.0
C1539 C 0.67894 0.73517 0.60001 0.0
C1540 C 0.73427 0.68108 0.60544 0.0
C1541 C 0.71047 0.71022 0.61577 0.0
C1542 C 0.74529 0.66419 0.61411 0.0
C1543 C 0.74711 0.66073 0.64173 0.0
C1544 C 0.72511 0.69465 0.62451 0.0
C1545 C 0.73896 0.67558 0.66032 0.0
C1546 C 0.70314 0.7256 0.63443 0.0
C1547 C 0.68724 0.72028 0.58164 0.0
N1548 N 0.72811 0.69176 0.65135 0.0
N1549 N 0.70245 0.70825 0.58992 0.0
H1550 H 0.35661 0.43016 0.32928 0.0
H1551 H 0.2497 0.40578 0.35323 0.0
H1552 H 0.31261 0.43675 0.26512 0.0
H1553 H 0.28803 0.43448 0.41707 0.0
H1554 H 0.27185 0.41542 0.31984 0.0
H1555 H 0.33151 0.4292 0.3615 0.0
C1556 C 0.34162 0.43136 0.322 0.0
C1557 C 0.33659 0.43334 0.29453 0.0
C1558 C 0.27515 0.41995 0.34114 0.0
C1559 C 0.30786 0.43216 0.3312 0.0
C1560 C 0.26255 0.41447 0.36018 0.0
C1561 C 0.26714 0.41913 0.388 0.0
C1562 C 0.29259 0.42969 0.35009 0.0
C1563 C 0.28395 0.43046 0.39588 0.0
C1564 C 0.32733 0.43102 0.34041 0.0
C1565 C 0.317 0.43515 0.28618 0.0
N1566 N 0.29627 0.43496 0.37706 0.0
N1567 N 0.30325 0.43418 0.30442 0.0
loop_
_geom_bond_atom_site_label_1
_geom_bond_atom_site_label_2
_geom_bond_distance
_geom_bond_site_symmetry_2
_ccdc_geom_bond_type
C0 O1 1.160 . S
C0 O7 1.185 . S
O1 C0 1.160 . S
O2 Zn3 1.899 . S
O2 C10 1.284 . S
Zn3 O2 1.899 . S
Zn3 O4 2.032 . S
Zn3 O7 2.086 . S
Zn3 O12 1.977 . S
O4 Zn3 2.032 . S
O4 C8 1.278 . S
C5 O6 1.203 . S
C5 O12 1.267 . S
O6 C5 1.203 . S
O7 C0 1.185 . S
O7 Zn3 2.086 . S
C8 O4 1.278 . S
C8 O9 1.211 . S
O9 C8 1.211 . S
C10 O2 1.284 . S
C10 O11 1.273 . S
O11 C10 1.273 . S
O12 Zn3 1.977 . S
O12 C5 1.267 . S
C13 O14 1.160 . S
C13 O20 1.185 . S
O14 C13 1.160 . S
O15 Zn16 1.899 . S
O15 C23 1.284 . S
Zn16 O15 1.899 . S
Zn16 O17 2.032 . S
Zn16 O20 2.086 . S
Zn16 O25 1.977 . S
O17 Zn16 2.032 . S
O17 C21 1.278 . S
C18 O19 1.203 . S
C18 O25 1.267 . S
O19 C18 1.203 . S
O20 C13 1.185 . S
O20 Zn16 2.086 . S
C21 O17 1.278 . S
C21 O22 1.211 . S
O22 C21 1.211 . S
C23 O15 1.284 . S
C23 O24 1.273 . S
O24 C23 1.273 . S
O25 Zn16 1.977 . S
O25 C18 1.267 . S
C26 O27 1.137 1_554 S
C26 O33 1.185 . S
O27 C26 1.137 1_556 S
O28 Zn29 1.899 . S
O28 C36 1.284 . S
Zn29 O28 1.899 . S
Zn29 O30 2.032 . S
Zn29 O33 2.086 . S
Zn29 O38 1.977 . S
O30 Zn29 2.032 . S
O30 C34 1.278 . S
C31 O32 1.203 . S
C31 O38 1.267 . S
O32 C31 1.203 . S
O33 C26 1.185 . S
O33 Zn29 2.086 . S
C34 O30 1.278 . S
C34 O35 1.211 . S
O35 C34 1.211 . S
C36 O28 1.284 . S
C36 O37 1.273 . S
O37 C36 1.273 . S
O38 Zn29 1.977 . S
O38 C31 1.267 . S
C39 O40 1.160 . S
C39 O46 1.185 . S
O40 C39 1.160 . S
O41 Zn42 1.899 . S
O41 C49 1.284 . S
Zn42 O41 1.899 . S
Zn42 O43 2.032 . S
Zn42 O46 2.086 . S
Zn42 O51 1.977 . S
O43 Zn42 2.032 . S
O43 C47 1.278 . S
C44 O45 1.203 . S
C44 O51 1.267 . S
O45 C44 1.203 . S
O46 C39 1.185 . S
O46 Zn42 2.086 . S
C47 O43 1.278 . S
C47 O48 1.211 . S
O48 C47 1.211 . S
C49 O41 1.284 . S
C49 O50 1.273 . S
O50 C49 1.273 . S
O51 Zn42 1.977 . S
O51 C44 1.267 . S
C52 O53 1.160 . S
C52 O59 1.185 . S
O53 C52 1.160 . S
O54 Zn55 1.899 . S
O54 C62 1.284 . S
Zn55 O54 1.899 . S
Zn55 O56 2.032 . S
Zn55 O59 2.086 . S
Zn55 O64 1.977 . S
O56 Zn55 2.032 . S
O56 C60 1.278 . S
C57 O58 1.203 . S
C57 O64 1.267 . S
O58 C57 1.203 . S
O59 C52 1.185 . S
O59 Zn55 2.086 . S
C60 O56 1.278 . S
C60 O61 1.211 . S
O61 C60 1.211 . S
C62 O54 1.284 . S
C62 O63 1.273 . S
O63 C62 1.273 . S
O64 Zn55 1.977 . S
O64 C57 1.267 . S
C65 O66 1.160 . S
C65 O72 1.185 . S
O66 C65 1.160 . S
O67 Zn68 1.899 . S
O67 C75 1.284 . S
Zn68 O67 1.899 . S
Zn68 O69 2.032 . S
Zn68 O72 2.086 . S
Zn68 O77 1.977 . S
O69 Zn68 2.032 . S
O69 C73 1.278 . S
C70 O71 1.203 . S
C70 O77 1.267 . S
O71 C70 1.203 . S
O72 C65 1.185 . S
O72 Zn68 2.086 . S
C73 O69 1.278 . S
C73 O74 1.211 . S
O74 C73 1.211 . S
C75 O67 1.284 . S
C75 O76 1.273 . S
O76 C75 1.273 . S
O77 Zn68 1.977 . S
O77 C70 1.267 . S
C78 O79 1.160 . S
C78 O85 1.185 . S
O79 C78 1.160 . S
O80 Zn81 1.899 . S
O80 C88 1.284 . S
Zn81 O80 1.899 . S
Zn81 O82 2.032 . S
Zn81 O85 2.086 . S
Zn81 O90 1.977 . S
O82 Zn81 2.032 . S
O82 C86 1.278 . S
C83 O84 1.203 . S
C83 O90 1.267 . S
O84 C83 1.203 . S
O85 C78 1.185 . S
O85 Zn81 2.086 . S
C86 O82 1.278 . S
C86 O87 1.211 . S
O87 C86 1.211 . S
C88 O80 1.284 . S
C88 O89 1.273 . S
O89 C88 1.273 . S
O90 Zn81 1.977 . S
O90 C83 1.267 . S
C91 O92 1.160 . S
C91 O98 1.185 . S
O92 C91 1.160 . S
O93 Zn94 1.899 . S
O93 C101 1.284 . S
Zn94 O93 1.899 . S
Zn94 O95 2.032 . S
Zn94 O98 2.086 . S
Zn94 O103 1.977 . S
O95 Zn94 2.032 . S
O95 C99 1.278 . S
C96 O97 1.203 . S
C96 O103 1.267 . S
O97 C96 1.203 . S
O98 C91 1.185 . S
O98 Zn94 2.086 . S
C99 O95 1.278 . S
C99 O100 1.211 . S
O100 C99 1.211 . S
C101 O93 1.284 . S
C101 O102 1.273 . S
O102 C101 1.273 . S
O103 Zn94 1.977 . S
O103 C96 1.267 . S
C104 O105 1.160 . S
C104 O111 1.185 1_556 S
O105 C104 1.160 . S
O106 Zn107 1.899 1_556 S
O106 C114 1.284 . S
Zn107 O106 1.899 1_554 S
Zn107 O108 2.032 . S
Zn107 O111 2.086 . S
Zn107 O116 1.977 . S
O108 Zn107 2.032 . S
O108 C112 1.278 . S
C109 O110 1.203 . S
C109 O116 1.267 . S
O110 C109 1.203 . S
O111 C104 1.185 1_554 S
O111 Zn107 2.086 . S
C112 O108 1.278 . S
C112 O113 1.211 . S
O113 C112 1.211 . S
C114 O106 1.284 . S
C114 O115 1.273 1_556 S
O115 C114 1.273 1_554 S
O116 Zn107 1.977 . S
O116 C109 1.267 . S
C117 O118 1.160 . S
C117 O124 1.185 . S
O118 C117 1.160 . S
O119 Zn120 1.899 . S
O119 C127 1.284 . S
Zn120 O119 1.899 . S
Zn120 O121 2.032 . S
Zn120 O124 2.086 . S
Zn120 O129 1.977 . S
O121 Zn120 2.032 . S
O121 C125 1.278 . S
C122 O123 1.203 . S
C122 O129 1.267 . S
O123 C122 1.203 . S
O124 C117 1.185 . S
O124 Zn120 2.086 . S
C125 O121 1.278 . S
C125 O126 1.211 . S
O126 C125 1.211 . S
C127 O119 1.284 . S
C127 O128 1.273 . S
O128 C127 1.273 . S
O129 Zn120 1.977 . S
O129 C122 1.267 . S
C130 O131 1.160 . S
C130 O137 1.185 . S
O131 C130 1.160 . S
O132 Zn133 1.899 . S
O132 C140 1.284 . S
Zn133 O132 1.899 . S
Zn133 O134 2.032 . S
Zn133 O137 2.086 . S
Zn133 O142 1.977 . S
O134 Zn133 2.032 . S
O134 C138 1.278 . S
C135 O136 1.203 . S
C135 O142 1.267 . S
O136 C135 1.203 . S
O137 C130 1.185 . S
O137 Zn133 2.086 . S
C138 O134 1.278 . S
C138 O139 1.211 . S
O139 C138 1.211 . S
C140 O132 1.284 . S
C140 O141 1.273 . S
O141 C140 1.273 . S
O142 Zn133 1.977 . S
O142 C135 1.267 . S
C143 O144 1.160 . S
C143 O150 1.185 . S
O144 C143 1.160 . S
O145 Zn146 1.899 . S
O145 C153 1.284 . S
Zn146 O145 1.899 . S
Zn146 O147 2.032 . S
Zn146 O150 2.086 . S
Zn146 O155 1.977 . S
O147 Zn146 2.032 . S
O147 C151 1.278 . S
C148 O149 1.203 . S
C148 O155 1.267 . S
O149 C148 1.203 . S
O150 C143 1.185 . S
O150 Zn146 2.086 . S
C151 O147 1.278 . S
C151 O152 1.211 . S
O152 C151 1.211 . S
C153 O145 1.284 . S
C153 O154 1.273 . S
O154 C153 1.273 . S
O155 Zn146 1.977 . S
O155 C148 1.267 . S
C156 O157 1.160 . S
C156 O163 1.185 . S
O157 C156 1.160 . S
O158 Zn159 1.899 . S
O158 C166 1.284 . S
Zn159 O158 1.899 . S
Zn159 O160 2.032 . S
Zn159 O163 2.086 . S
Zn159 O168 1.977 . S
O160 Zn159 2.032 . S
O160 C164 1.278 . S
C161 O162 1.203 . S
C161 O168 1.267 . S
O162 C161 1.203 . S
O163 C156 1.185 . S
O163 Zn159 2.086 . S
C164 O160 1.278 . S
C164 O165 1.211 . S
O165 C164 1.211 . S
C166 O158 1.284 . S
C166 O167 1.273 . S
O167 C166 1.273 . S
O168 Zn159 1.977 . S
O168 C161 1.267 . S
C169 O170 1.160 . S
C169 O176 1.185 . S
O170 C169 1.160 . S
O171 Zn172 1.899 . S
O171 C179 1.284 . S
Zn172 O171 1.899 . S
Zn172 O173 2.032 . S
Zn172 O176 2.086 . S
Zn172 O181 1.977 . S
O173 Zn172 2.032 . S
O173 C177 1.278 . S
C174 O175 1.203 . S
C174 O181 1.267 . S
O175 C174 1.203 . S
O176 C169 1.185 . S
O176 Zn172 2.086 . S
C177 O173 1.278 . S
C177 O178 1.211 . S
O178 C177 1.211 . S
C179 O171 1.284 . S
C179 O180 1.273 . S
O180 C179 1.273 . S
O181 Zn172 1.977 . S
O181 C174 1.267 . S
C182 O183 1.160 . S
C182 O189 1.185 . S
O183 C182 1.160 . S
O184 Zn185 1.899 . S
O184 C192 1.284 . S
Zn185 O184 1.899 . S
Zn185 O186 2.032 . S
Zn185 O189 2.086 . S
Zn185 O194 1.977 . S
O186 Zn185 2.032 . S
O186 C190 1.278 . S
C187 O188 1.203 . S
C187 O194 1.267 . S
O188 C187 1.203 . S
O189 C182 1.185 . S
O189 Zn185 2.086 . S
C190 O186 1.278 . S
C190 O191 1.211 . S
O191 C190 1.211 . S
C192 O184 1.284 . S
C192 O193 1.273 . S
O193 C192 1.273 . S
O194 Zn185 1.977 . S
O194 C187 1.267 . S
C195 O196 1.160 . S
C195 O202 1.185 1_554 S
O196 C195 1.160 . S
O197 Zn198 1.899 1_554 S
O197 C205 1.284 . S
Zn198 O197 1.899 1_556 S
Zn198 O199 2.032 . S
Zn198 O202 2.086 . S
Zn198 O207 1.977 . S
O199 Zn198 2.032 . S
O199 C203 1.278 . S
C200 O201 1.203 . S
C200 O207 1.267 . S
O201 C200 1.203 . S
O202 C195 1.185 1_556 S
O202 Zn198 2.086 . S
C203 O199 1.278 . S
C203 O204 1.211 . S
O204 C203 1.211 . S
C205 O197 1.284 . S
C205 O206 1.273 1_554 S
O206 C205 1.273 1_556 S
O207 Zn198 1.977 . S
O207 C200 1.267 . S
C208 O209 1.160 . S
C208 O215 1.185 1_556 S
O209 C208 1.160 . S
O210 Zn211 1.899 1_556 S
O210 C218 1.284 . S
Zn211 O210 1.899 1_554 S
Zn211 O212 2.032 . S
Zn211 O215 2.086 . S
Zn211 O220 1.977 . S
O212 Zn211 2.032 . S
O212 C216 1.278 . S
C213 O214 1.203 . S
C213 O220 1.267 . S
O214 C213 1.203 . S
O215 C208 1.185 1_554 S
O215 Zn211 2.086 . S
C216 O212 1.278 . S
C216 O217 1.211 . S
O217 C216 1.211 . S
C218 O210 1.284 . S
C218 O219 1.273 1_556 S
O219 C218 1.273 1_554 S
O220 Zn211 1.977 . S
O220 C213 1.267 . S
C221 O222 1.160 . S
C221 O228 1.185 . S
O222 C221 1.160 . S
O223 Zn224 1.899 . S
O223 C231 1.284 . S
Zn224 O223 1.899 . S
Zn224 O225 2.032 . S
Zn224 O228 2.086 . S
Zn224 O233 1.977 . S
O225 Zn224 2.032 . S
O225 C229 1.278 . S
C226 O227 1.203 . S
C226 O233 1.267 . S
O227 C226 1.203 . S
O228 C221 1.185 . S
O228 Zn224 2.086 . S
C229 O225 1.278 . S
C229 O230 1.211 . S
O230 C229 1.211 . S
C231 O223 1.284 . S
C231 O232 1.273 . S
O232 C231 1.273 . S
O233 Zn224 1.977 . S
O233 C226 1.267 . S
C234 O235 1.137 1_554 S
C234 O241 1.185 . S
O235 C234 1.137 1_556 S
O236 Zn237 1.899 . S
O236 C244 1.284 . S
Zn237 O236 1.899 . S
Zn237 O238 2.032 . S
Zn237 O241 2.086 . S
Zn237 O246 1.977 . S
O238 Zn237 2.032 . S
O238 C242 1.278 . S
C239 O240 1.203 . S
C239 O246 1.267 . S
O240 C239 1.203 . S
O241 C234 1.185 . S
O241 Zn237 2.086 . S
C242 O238 1.278 . S
C242 O243 1.211 . S
O243 C242 1.211 . S
C244 O236 1.284 . S
C244 O245 1.273 . S
O245 C244 1.273 . S
O246 Zn237 1.977 . S
O246 C239 1.267 . S
C247 O248 1.160 . S
C247 O254 1.185 . S
O248 C247 1.160 . S
O249 Zn250 1.899 . S
O249 C257 1.284 . S
Zn250 O249 1.899 . S
Zn250 O251 2.032 . S
Zn250 O254 2.086 . S
Zn250 O259 1.977 . S
O251 Zn250 2.032 . S
O251 C255 1.278 . S
C252 O253 1.203 . S
C252 O259 1.267 . S
O253 C252 1.203 . S
O254 C247 1.185 . S
O254 Zn250 2.086 . S
C255 O251 1.278 . S
C255 O256 1.211 . S
O256 C255 1.211 . S
C257 O249 1.284 . S
C257 O258 1.273 . S
O258 C257 1.273 . S
O259 Zn250 1.977 . S
O259 C252 1.267 . S
C260 O261 1.160 . S
C260 O267 1.185 . S
O261 C260 1.160 . S
O262 Zn263 1.899 . S
O262 C270 1.284 . S
Zn263 O262 1.899 . S
Zn263 O264 2.032 . S
Zn263 O267 2.086 . S
Zn263 O272 1.977 . S
O264 Zn263 2.032 . S
O264 C268 1.278 . S
C265 O266 1.203 . S
C265 O272 1.267 . S
O266 C265 1.203 . S
O267 C260 1.185 . S
O267 Zn263 2.086 . S
C268 O264 1.278 . S
C268 O269 1.211 . S
O269 C268 1.211 . S
C270 O262 1.284 . S
C270 O271 1.273 . S
O271 C270 1.273 . S
O272 Zn263 1.977 . S
O272 C265 1.267 . S
C273 O274 1.160 . S
C273 O280 1.185 . S
O274 C273 1.160 . S
O275 Zn276 1.899 . S
O275 C283 1.284 . S
Zn276 O275 1.899 . S
Zn276 O277 2.032 . S
Zn276 O280 2.086 . S
Zn276 O285 1.977 . S
O277 Zn276 2.032 . S
O277 C281 1.278 . S
C278 O279 1.203 . S
C278 O285 1.267 . S
O279 C278 1.203 . S
O280 C273 1.185 . S
O280 Zn276 2.086 . S
C281 O277 1.278 . S
C281 O282 1.211 . S
O282 C281 1.211 . S
C283 O275 1.284 . S
C283 O284 1.273 . S
O284 C283 1.273 . S
O285 Zn276 1.977 . S
O285 C278 1.267 . S
C286 O287 1.160 . S
C286 O293 1.185 1_554 S
O287 C286 1.160 . S
O288 Zn289 1.899 1_554 S
O288 C296 1.284 . S
Zn289 O288 1.899 1_556 S
Zn289 O290 2.032 . S
Zn289 O293 2.086 . S
Zn289 O298 1.977 . S
O290 Zn289 2.032 . S
O290 C294 1.278 . S
C291 O292 1.203 . S
C291 O298 1.267 . S
O292 C291 1.203 . S
O293 C286 1.185 1_556 S
O293 Zn289 2.086 . S
C294 O290 1.278 . S
C294 O295 1.211 . S
O295 C294 1.211 . S
C296 O288 1.284 . S
C296 O297 1.273 1_554 S
O297 C296 1.273 1_556 S
O298 Zn289 1.977 . S
O298 C291 1.267 . S
C299 O300 1.160 . S
C299 O306 1.185 . S
O300 C299 1.160 . S
O301 Zn302 1.899 . S
O301 C309 1.284 . S
Zn302 O301 1.899 . S
Zn302 O303 2.032 . S
Zn302 O306 2.086 . S
Zn302 O311 1.977 . S
O303 Zn302 2.032 . S
O303 C307 1.278 . S
C304 O305 1.203 . S
C304 O311 1.267 . S
O305 C304 1.203 . S
O306 C299 1.185 . S
O306 Zn302 2.086 . S
C307 O303 1.278 . S
C307 O308 1.211 . S
O308 C307 1.211 . S
C309 O301 1.284 . S
C309 O310 1.273 . S
O310 C309 1.273 . S
O311 Zn302 1.977 . S
O311 C304 1.267 . S
C312 O313 1.160 . S
C312 O319 1.185 . S
O313 C312 1.160 . S
O314 Zn315 1.899 . S
O314 C322 1.284 . S
Zn315 O314 1.899 . S
Zn315 O316 2.032 . S
Zn315 O319 2.086 . S
Zn315 O324 1.977 . S
O316 Zn315 2.032 . S
O316 C320 1.278 . S
C317 O318 1.203 . S
C317 O324 1.267 . S
O318 C317 1.203 . S
O319 C312 1.185 . S
O319 Zn315 2.086 . S
C320 O316 1.278 . S
C320 O321 1.211 . S
O321 C320 1.211 . S
C322 O314 1.284 . S
C322 O323 1.273 . S
O323 C322 1.273 . S
O324 Zn315 1.977 . S
O324 C317 1.267 . S
C325 O326 1.160 . S
C325 O332 1.185 . S
O326 C325 1.160 . S
O327 Zn328 1.899 . S
O327 C335 1.284 . S
Zn328 O327 1.899 . S
Zn328 O329 2.032 . S
Zn328 O332 2.086 . S
Zn328 O337 1.977 . S
O329 Zn328 2.032 . S
O329 C333 1.278 . S
C330 O331 1.203 . S
C330 O337 1.267 . S
O331 C330 1.203 . S
O332 C325 1.185 . S
O332 Zn328 2.086 . S
C333 O329 1.278 . S
C333 O334 1.211 . S
O334 C333 1.211 . S
C335 O327 1.284 . S
C335 O336 1.273 . S
O336 C335 1.273 . S
O337 Zn328 1.977 . S
O337 C330 1.267 . S
C338 O339 1.160 . S
C338 O345 1.185 . S
O339 C338 1.160 . S
O340 Zn341 1.899 . S
O340 C348 1.284 . S
Zn341 O340 1.899 . S
Zn341 O342 2.032 . S
Zn341 O345 2.086 . S
Zn341 O350 1.977 . S
O342 Zn341 2.032 . S
O342 C346 1.278 . S
C343 O344 1.203 . S
C343 O350 1.267 . S
O344 C343 1.203 . S
O345 C338 1.185 . S
O345 Zn341 2.086 . S
C346 O342 1.278 . S
C346 O347 1.211 . S
O347 C346 1.211 . S
C348 O340 1.284 . S
C348 O349 1.273 . S
O349 C348 1.273 . S
O350 Zn341 1.977 . S
O350 C343 1.267 . S
C351 O352 1.160 . S
C351 O358 1.185 . S
O352 C351 1.160 . S
O353 Zn354 1.899 . S
O353 C361 1.284 . S
Zn354 O353 1.899 . S
Zn354 O355 2.032 . S
Zn354 O358 2.086 . S
Zn354 O363 1.977 . S
O355 Zn354 2.032 . S
O355 C359 1.278 . S
C356 O357 1.203 . S
C356 O363 1.267 . S
O357 C356 1.203 . S
O358 C351 1.185 . S
O358 Zn354 2.086 . S
C359 O355 1.278 . S
C359 O360 1.211 . S
O360 C359 1.211 . S
C361 O353 1.284 . S
C361 O362 1.273 . S
O362 C361 1.273 . S
O363 Zn354 1.977 . S
O363 C356 1.267 . S
C364 O365 1.160 . S
C364 O371 1.185 . S
O365 C364 1.160 . S
O366 Zn367 1.899 . S
O366 C374 1.284 . S
Zn367 O366 1.899 . S
Zn367 O368 2.032 . S
Zn367 O371 2.086 . S
Zn367 O376 1.977 . S
O368 Zn367 2.032 . S
O368 C372 1.278 . S
C369 O370 1.203 . S
C369 O376 1.267 . S
O370 C369 1.203 . S
O371 C364 1.185 . S
O371 Zn367 2.086 . S
C372 O368 1.278 . S
C372 O373 1.211 . S
O373 C372 1.211 . S
C374 O366 1.284 . S
C374 O375 1.273 . S
O375 C374 1.273 . S
O376 Zn367 1.977 . S
O376 C369 1.267 . S
C377 O378 1.160 . S
C377 O384 1.185 . S
O378 C377 1.160 . S
O379 Zn380 1.899 . S
O379 C387 1.284 . S
Zn380 O379 1.899 . S
Zn380 O381 2.032 . S
Zn380 O384 2.086 . S
Zn380 O389 1.977 . S
O381 Zn380 2.032 . S
O381 C385 1.278 . S
C382 O383 1.203 . S
C382 O389 1.267 . S
O383 C382 1.203 . S
O384 C377 1.185 . S
O384 Zn380 2.086 . S
C385 O381 1.278 . S
C385 O386 1.211 . S
O386 C385 1.211 . S
C387 O379 1.284 . S
C387 O388 1.273 . S
O388 C387 1.273 . S
O389 Zn380 1.977 . S
O389 C382 1.267 . S
C390 O391 1.160 . S
C390 O397 1.185 . S
O391 C390 1.160 . S
O392 Zn393 1.899 . S
O392 C400 1.284 . S
Zn393 O392 1.899 . S
Zn393 O394 2.032 . S
Zn393 O397 2.086 . S
Zn393 O402 1.977 . S
O394 Zn393 2.032 . S
O394 C398 1.278 . S
C395 O396 1.203 . S
C395 O402 1.267 . S
O396 C395 1.203 . S
O397 C390 1.185 . S
O397 Zn393 2.086 . S
C398 O394 1.278 . S
C398 O399 1.211 . S
O399 C398 1.211 . S
C400 O392 1.284 . S
C400 O401 1.273 . S
O401 C400 1.273 . S
O402 Zn393 1.977 . S
O402 C395 1.267 . S
C403 O404 1.160 . S
C403 O410 1.185 . S
O404 C403 1.160 . S
O405 Zn406 1.899 . S
O405 C413 1.284 . S
Zn406 O405 1.899 . S
Zn406 O407 2.032 . S
Zn406 O410 2.086 . S
Zn406 O415 1.977 . S
O407 Zn406 2.032 . S
O407 C411 1.278 . S
C408 O409 1.203 . S
C408 O415 1.267 . S
O409 C408 1.203 . S
O410 C403 1.185 . S
O410 Zn406 2.086 . S
C411 O407 1.278 . S
C411 O412 1.211 . S
O412 C411 1.211 . S
C413 O405 1.284 . S
C413 O414 1.273 . S
O414 C413 1.273 . S
O415 Zn406 1.977 . S
O415 C408 1.267 . S
H416 C422 0.931 . S
H417 C426 0.930 . S
H418 C431 0.929 1_655 S
H419 C429 0.929 . S
H420 C424 0.929 . S
H421 C430 0.929 . S
C422 H416 0.931 . S
C422 C423 1.367 . S
C422 C430 1.377 1_655 S
C423 C422 1.367 . S
C423 C431 1.433 1_655 S
C424 H420 0.929 . S
C424 C426 1.378 . S
C424 C428 1.350 . S
C425 C428 1.463 . S
C425 C430 1.350 . S
C425 N433 1.427 . S
C426 H417 0.930 . S
C426 C424 1.378 . S
C426 C427 1.367 1_565 S
C427 C426 1.367 1_545 S
C427 C429 1.433 . S
C428 C424 1.350 . S
C428 C425 1.463 . S
C428 N432 1.427 . S
C429 H419 0.929 . S
C429 C427 1.433 . S
C429 N432 1.384 1_545 S
C430 H421 0.929 . S
C430 C422 1.377 1_455 S
C430 C425 1.350 . S
C431 H418 0.929 1_455 S
C431 C423 1.433 1_455 S
C431 N433 1.384 . S
N432 C428 1.427 . S
N432 C429 1.384 1_565 S
N433 C425 1.427 . S
N433 C431 1.384 . S
H434 C440 0.930 . S
H435 C444 0.921 1_455 S
H436 C449 0.929 . S
H437 C447 0.929 . S
H438 C442 0.929 . S
H439 C448 0.929 . S
C440 H434 0.930 . S
C440 C441 1.367 . S
C440 C448 1.378 . S
C441 C440 1.367 . S
C441 C449 1.433 . S
C442 H438 0.929 . S
C442 C444 1.429 . S
C442 C446 1.350 . S
C443 C446 1.463 . S
C443 C448 1.350 . S
C443 N451 1.427 . S
C444 H435 0.921 1_655 S
C444 C442 1.429 . S
C444 C445 1.327 1_655 S
C445 C444 1.327 1_455 S
C445 C447 1.433 . S
C446 C442 1.350 . S
C446 C443 1.463 . S
C446 N450 1.427 . S
C447 H437 0.929 . S
C447 C445 1.433 . S
C447 N450 1.384 1_455 S
C448 H439 0.929 . S
C448 C440 1.378 . S
C448 C443 1.350 . S
C449 H436 0.929 . S
C449 C441 1.433 . S
C449 N451 1.384 . S
N450 C446 1.427 . S
N450 C447 1.384 1_655 S
N451 C443 1.427 . S
N451 C449 1.384 . S
H452 C458 0.930 . S
H453 C462 0.930 . S
H454 C467 0.929 . S
H455 C465 0.929 . S
H456 C460 0.929 . S
H457 C466 0.929 . S
C458 H452 0.930 . S
C458 C459 1.367 1_554 S
C458 C466 1.378 . S
C459 C458 1.367 1_556 S
C459 C467 1.433 . S
C460 H456 0.929 . S
C460 C462 1.378 . S
C460 C464 1.350 . S
C461 C464 1.463 . S
C461 C466 1.350 1_556 S
C461 N469 1.427 . S
C462 H453 0.930 . S
C462 C460 1.378 . S
C462 C463 1.367 1_556 S
C463 C462 1.367 1_554 S
C463 C465 1.433 . S
C464 C460 1.350 . S
C464 C461 1.463 . S
C464 N468 1.427 1_556 S
C465 H455 0.929 . S
C465 C463 1.433 . S
C465 N468 1.384 . S
C466 H457 0.929 . S
C466 C458 1.378 . S
C466 C461 1.350 1_554 S
C467 H454 0.929 . S
C467 C459 1.433 . S
C467 N469 1.384 . S
N468 C464 1.427 1_554 S
N468 C465 1.384 . S
N469 C461 1.427 . S
N469 C467 1.384 . S
H470 C476 0.930 . S
H471 C480 0.930 . S
H472 C485 0.929 . S
H473 C483 0.929 . S
H474 C478 0.929 . S
H475 C484 0.929 . S
C476 H470 0.930 . S
C476 C477 1.367 . S
C476 C484 1.378 . S
C477 C476 1.367 . S
C477 C485 1.433 . S
C478 H474 0.929 . S
C478 C480 1.378 1_545 S
C478 C482 1.350 . S
C479 C482 1.463 . S
C479 C484 1.350 . S
C479 N487 1.427 . S
C480 H471 0.930 . S
C480 C478 1.378 1_565 S
C480 C481 1.367 . S
C481 C480 1.367 . S
C481 C483 1.433 1_565 S
C482 C478 1.350 . S
C482 C479 1.463 . S
C482 N486 1.427 . S
C483 H473 0.929 . S
C483 C481 1.433 1_545 S
C483 N486 1.384 . S
C484 H475 0.929 . S
C484 C476 1.378 . S
C484 C479 1.350 . S
C485 H472 0.929 . S
C485 C477 1.433 . S
C485 N487 1.384 . S
N486 C482 1.427 . S
N486 C483 1.384 . S
N487 C479 1.427 . S
N487 C485 1.384 . S
H488 C494 0.922 1_545 S
H489 C498 0.930 . S
H490 C503 0.929 . S
H491 C501 0.929 . S
H492 C496 0.929 . S
H493 C502 0.929 . S
C494 H488 0.922 1_565 S
C494 C495 1.367 1_565 S
C494 C502 1.378 . S
C495 C494 1.367 1_545 S
C495 C503 1.433 1_546 S
C496 H492 0.929 . S
C496 C498 1.378 . S
C496 C500 1.350 . S
C497 C500 1.463 1_556 S
C497 C502 1.350 . S
C497 N505 1.427 1_556 S
C498 H489 0.930 . S
C498 C496 1.378 . S
C498 C499 1.367 . S
C499 C498 1.367 . S
C499 C501 1.433 1_554 S
C500 C496 1.350 . S
C500 C497 1.463 1_554 S
C500 N504 1.427 1_554 S
C501 H491 0.929 . S
C501 C499 1.433 1_556 S
C501 N504 1.384 . S
C502 H493 0.929 . S
C502 C494 1.378 . S
C502 C497 1.350 . S
C503 H490 0.929 . S
C503 C495 1.433 1_564 S
C503 N505 1.384 . S
N504 C500 1.427 1_556 S
N504 C501 1.384 . S
N505 C497 1.427 1_554 S
N505 C503 1.384 . S
H506 C512 0.930 . S
H507 C516 0.923 1_455 S
H508 C521 0.929 . S
H509 C519 0.929 . S
H510 C514 0.929 . S
H511 C520 0.929 . S
C512 H506 0.930 . S
C512 C513 1.367 . S
C512 C520 1.378 . S
C513 C512 1.367 . S
C513 C521 1.433 . S
C514 H510 0.929 . S
C514 C516 1.399 . S
C514 C518 1.350 . S
C515 C518 1.463 . S
C515 C520 1.350 . S
C515 N523 1.427 . S
C516 H507 0.923 1_655 S
C516 C514 1.399 . S
C516 C517 1.353 1_655 S
C517 C516 1.353 1_455 S
C517 C519 1.433 . S
C518 C514 1.350 . S
C518 C515 1.463 . S
C518 N522 1.427 . S
C519 H509 0.929 . S
C519 C517 1.433 . S
C519 N522 1.384 1_455 S
C520 H511 0.929 . S
C520 C512 1.378 . S
C520 C515 1.350 . S
C521 H508 0.929 . S
C521 C513 1.433 . S
C521 N523 1.384 . S
N522 C518 1.427 . S
N522 C519 1.384 1_655 S
N523 C515 1.427 . S
N523 C521 1.384 . S
H524 C530 0.930 . S
H525 C534 0.930 . S
H526 C539 0.929 . S
H527 C537 0.929 . S
H528 C532 0.929 . S
H529 C538 0.929 . S
C530 H524 0.930 . S
C530 C531 1.367 . S
C530 C538 1.378 . S
C531 C530 1.367 . S
C531 C539 1.433 . S
C532 H528 0.929 . S
C532 C534 1.378 . S
C532 C536 1.350 . S
C533 C536 1.463 . S
C533 C538 1.350 . S
C533 N541 1.427 . S
C534 H525 0.930 . S
C534 C532 1.378 . S
C534 C535 1.367 . S
C535 C534 1.367 . S
C535 C537 1.433 . S
C536 C532 1.350 . S
C536 C533 1.463 . S
C536 N540 1.427 . S
C537 H527 0.929 . S
C537 C535 1.433 . S
C537 N540 1.384 . S
C538 H529 0.929 . S
C538 C530 1.378 . S
C538 C533 1.350 . S
C539 H526 0.929 . S
C539 C531 1.433 . S
C539 N541 1.384 . S
N540 C536 1.427 . S
N540 C537 1.384 . S
N541 C533 1.427 . S
N541 C539 1.384 . S
H542 C548 0.930 . S
H543 C552 0.930 . S
H544 C557 0.929 . S
H545 C555 0.929 . S
H546 C550 0.929 . S
H547 C556 0.929 . S
C548 H542 0.930 . S
C548 C549 1.367 . S
C548 C556 1.378 . S
C549 C548 1.367 . S
C549 C557 1.433 . S
C550 H546 0.929 . S
C550 C552 1.378 . S
C550 C554 1.350 . S
C551 C554 1.463 . S
C551 C556 1.350 . S
C551 N559 1.427 . S
C552 H543 0.930 . S
C552 C550 1.378 . S
C552 C553 1.367 . S
C553 C552 1.367 . S
C553 C555 1.433 . S
C554 C550 1.350 . S
C554 C551 1.463 . S
C554 N558 1.427 . S
C555 H545 0.929 . S
C555 C553 1.433 . S
C555 N558 1.384 . S
C556 H547 0.929 . S
C556 C548 1.378 . S
C556 C551 1.350 . S
C557 H544 0.929 . S
C557 C549 1.433 . S
C557 N559 1.384 . S
N558 C554 1.427 . S
N558 C555 1.384 . S
N559 C551 1.427 . S
N559 C557 1.384 . S
H560 C566 0.930 . S
H561 C570 0.930 . S
H562 C575 0.929 . S
H563 C573 0.929 . S
H564 C568 0.929 . S
H565 C574 0.929 . S
C566 H560 0.930 . S
C566 C567 1.367 . S
C566 C574 1.378 . S
C567 C566 1.367 . S
C567 C575 1.433 . S
C568 H564 0.929 . S
C568 C570 1.378 . S
C568 C572 1.350 . S
C569 C572 1.463 . S
C569 C574 1.350 . S
C569 N577 1.427 . S
C570 H561 0.930 . S
C570 C568 1.378 . S
C570 C571 1.367 . S
C571 C570 1.367 . S
C571 C573 1.433 . S
C572 C568 1.350 . S
C572 C569 1.463 . S
C572 N576 1.427 . S
C573 H563 0.929 . S
C573 C571 1.433 . S
C573 N576 1.384 . S
C574 H565 0.929 . S
C574 C566 1.378 . S
C574 C569 1.350 . S
C575 H562 0.929 . S
C575 C567 1.433 . S
C575 N577 1.384 . S
N576 C572 1.427 . S
N576 C573 1.384 . S
N577 C569 1.427 . S
N577 C575 1.384 . S
H578 C584 0.930 . S
H579 C588 0.930 . S
H580 C593 0.929 . S
H581 C591 0.929 . S
H582 C586 0.929 . S
H583 C592 0.929 . S
C584 H578 0.930 . S
C584 C585 1.367 . S
C584 C592 1.378 . S
C585 C584 1.367 . S
C585 C593 1.433 . S
C586 H582 0.929 . S
C586 C588 1.378 . S
C586 C590 1.350 . S
C587 C590 1.463 . S
C587 C592 1.350 . S
C587 N595 1.427 . S
C588 H579 0.930 . S
C588 C586 1.378 . S
C588 C589 1.367 . S
C589 C588 1.367 . S
C589 C591 1.433 . S
C590 C586 1.350 . S
C590 C587 1.463 . S
C590 N594 1.427 . S
C591 H581 0.929 . S
C591 C589 1.433 . S
C591 N594 1.384 . S
C592 H583 0.929 . S
C592 C584 1.378 . S
C592 C587 1.350 . S
C593 H580 0.929 . S
C593 C585 1.433 . S
C593 N595 1.384 . S
N594 C590 1.427 . S
N594 C591 1.384 . S
N595 C587 1.427 . S
N595 C593 1.384 . S
H596 C602 0.930 . S
H597 C606 0.930 . S
H598 C611 0.929 . S
H599 C609 0.929 . S
H600 C604 0.929 . S
H601 C610 0.929 . S
C602 H596 0.930 . S
C602 C603 1.367 . S
C602 C610 1.378 . S
C603 C602 1.367 . S
C603 C611 1.433 . S
C604 H600 0.929 . S
C604 C606 1.378 . S
C604 C608 1.350 . S
C605 C608 1.463 . S
C605 C610 1.350 . S
C605 N613 1.427 . S
C606 H597 0.930 . S
C606 C604 1.378 . S
C606 C607 1.367 1_545 S
C607 C606 1.367 1_565 S
C607 C609 1.433 . S
C608 C604 1.350 . S
C608 C605 1.463 . S
C608 N612 1.427 . S
C609 H599 0.929 . S
C609 C607 1.433 . S
C609 N612 1.384 1_565 S
C610 H601 0.929 . S
C610 C602 1.378 . S
C610 C605 1.350 . S
C611 H598 0.929 . S
C611 C603 1.433 . S
C611 N613 1.384 . S
N612 C608 1.427 . S
N612 C609 1.384 1_545 S
N613 C605 1.427 . S
N613 C611 1.384 . S
H614 C620 0.930 . S
H615 C624 0.930 . S
H616 C629 0.929 . S
H617 C627 0.929 . S
H618 C622 0.929 . S
H619 C628 0.940 . S
C620 H614 0.930 . S
C620 C621 1.367 . S
C620 C628 1.378 1_655 S
C621 C620 1.367 . S
C621 C629 1.433 1_655 S
C622 H618 0.929 . S
C622 C624 1.378 . S
C622 C626 1.350 . S
C623 C626 1.459 1_554 S
C623 C628 1.352 . S
C623 N631 1.429 1_554 S
C624 H615 0.930 . S
C624 C622 1.378 . S
C624 C625 1.367 . S
C625 C624 1.367 . S
C625 C627 1.433 . S
C626 C622 1.350 . S
C626 C623 1.459 1_556 S
C626 N630 1.427 . S
C627 H617 0.929 . S
C627 C625 1.433 . S
C627 N630 1.384 . S
C628 H619 0.940 . S
C628 C620 1.378 1_455 S
C628 C623 1.352 . S
C629 H616 0.929 . S
C629 C621 1.433 1_455 S
C629 N631 1.379 1_554 S
N630 C626 1.427 . S
N630 C627 1.384 . S
N631 C623 1.429 1_556 S
N631 C629 1.379 1_556 S
H632 C638 0.930 . S
H633 C642 0.930 . S
H634 C647 0.929 . S
H635 C645 0.929 . S
H636 C640 0.929 . S
H637 C646 0.929 . S
C638 H632 0.930 . S
C638 C639 1.367 . S
C638 C646 1.378 . S
C639 C638 1.367 . S
C639 C647 1.433 . S
C640 H636 0.929 . S
C640 C642 1.378 . S
C640 C644 1.350 . S
C641 C644 1.463 . S
C641 C646 1.350 . S
C641 N649 1.427 . S
C642 H633 0.930 . S
C642 C640 1.378 . S
C642 C643 1.367 . S
C643 C642 1.367 . S
C643 C645 1.433 . S
C644 C640 1.350 . S
C644 C641 1.463 . S
C644 N648 1.427 . S
C645 H635 0.929 . S
C645 C643 1.433 . S
C645 N648 1.384 . S
C646 H637 0.929 . S
C646 C638 1.378 . S
C646 C641 1.350 . S
C647 H634 0.929 . S
C647 C639 1.433 . S
C647 N649 1.384 . S
N648 C644 1.427 . S
N648 C645 1.384 . S
N649 C641 1.427 . S
N649 C647 1.384 . S
H650 C656 0.930 . S
H651 C660 0.934 . S
H652 C665 0.929 . S
H653 C663 0.929 . S
H654 C658 0.929 . S
H655 C664 0.929 . S
C656 H650 0.930 . S
C656 C657 1.367 1_556 S
C656 C664 1.378 . S
C657 C656 1.367 1_554 S
C657 C665 1.433 . S
C658 H654 0.929 . S
C658 C660 1.381 . S
C658 C662 1.350 1_554 S
C659 C662 1.463 . S
C659 C664 1.350 . S
C659 N667 1.427 1_556 S
C660 H651 0.934 . S
C660 C658 1.381 . S
C660 C661 1.360 1_554 S
C661 C660 1.360 1_556 S
C661 C663 1.433 . S
C662 C658 1.350 1_556 S
C662 C659 1.463 . S
C662 N666 1.427 . S
C663 H653 0.929 . S
C663 C661 1.433 . S
C663 N666 1.384 . S
C664 H655 0.929 . S
C664 C656 1.378 . S
C664 C659 1.350 . S
C665 H652 0.929 . S
C665 C657 1.433 . S
C665 N667 1.384 . S
N666 C662 1.427 . S
N666 C663 1.384 . S
N667 C659 1.427 1_554 S
N667 C665 1.384 . S
H668 C674 0.930 . S
H669 C678 0.930 . S
H670 C683 0.929 . S
H671 C681 0.929 . S
H672 C676 0.929 . S
H673 C682 0.929 . S
C674 H668 0.930 . S
C674 C675 1.367 . S
C674 C682 1.378 . S
C675 C674 1.367 . S
C675 C683 1.433 . S
C676 H672 0.929 . S
C676 C678 1.378 . S
C676 C680 1.350 . S
C677 C680 1.463 . S
C677 C682 1.350 . S
C677 N685 1.427 . S
C678 H669 0.930 . S
C678 C676 1.378 . S
C678 C679 1.367 . S
C679 C678 1.367 . S
C679 C681 1.433 . S
C680 C676 1.350 . S
C680 C677 1.463 . S
C680 N684 1.427 . S
C681 H671 0.929 . S
C681 C679 1.433 . S
C681 N684 1.384 . S
C682 H673 0.929 . S
C682 C674 1.378 . S
C682 C677 1.350 . S
C683 H670 0.929 . S
C683 C675 1.433 . S
C683 N685 1.384 . S
N684 C680 1.427 . S
N684 C681 1.384 . S
N685 C677 1.427 . S
N685 C683 1.384 . S
H686 C692 0.930 . S
H687 C696 0.930 . S
H688 C701 0.929 . S
H689 C699 0.929 . S
H690 C694 0.929 . S
H691 C700 0.929 . S
C692 H686 0.930 . S
C692 C693 1.367 . S
C692 C700 1.378 . S
C693 C692 1.367 . S
C693 C701 1.433 . S
C694 H690 0.929 . S
C694 C696 1.378 . S
C694 C698 1.350 . S
C695 C698 1.463 . S
C695 C700 1.350 . S
C695 N703 1.427 . S
C696 H687 0.930 . S
C696 C694 1.378 . S
C696 C697 1.367 . S
C697 C696 1.367 . S
C697 C699 1.433 . S
C698 C694 1.350 . S
C698 C695 1.463 . S
C698 N702 1.427 . S
C699 H689 0.929 . S
C699 C697 1.433 . S
C699 N702 1.384 . S
C700 H691 0.929 . S
C700 C692 1.378 . S
C700 C695 1.350 . S
C701 H688 0.929 . S
C701 C693 1.433 . S
C701 N703 1.384 . S
N702 C698 1.427 . S
N702 C699 1.384 . S
N703 C695 1.427 . S
N703 C701 1.384 . S
H704 C710 0.930 . S
H705 C714 0.930 . S
H706 C719 0.929 . S
H707 C717 0.929 . S
H708 C712 0.929 . S
H709 C718 0.929 . S
C710 H704 0.930 . S
C710 C711 1.367 . S
C710 C718 1.378 . S
C711 C710 1.367 . S
C711 C719 1.433 . S
C712 H708 0.929 . S
C712 C714 1.378 . S
C712 C716 1.350 . S
C713 C716 1.463 . S
C713 C718 1.350 . S
C713 N721 1.427 . S
C714 H705 0.930 . S
C714 C712 1.378 . S
C714 C715 1.367 . S
C715 C714 1.367 . S
C715 C717 1.433 . S
C716 C712 1.350 . S
C716 C713 1.463 . S
C716 N720 1.427 . S
C717 H707 0.929 . S
C717 C715 1.433 . S
C717 N720 1.384 . S
C718 H709 0.929 . S
C718 C710 1.378 . S
C718 C713 1.350 . S
C719 H706 0.929 . S
C719 C711 1.433 . S
C719 N721 1.384 . S
N720 C716 1.427 . S
N720 C717 1.384 . S
N721 C713 1.427 . S
N721 C719 1.384 . S
H722 C728 0.930 . S
H723 C732 0.930 . S
H724 C737 0.929 . S
H725 C735 0.929 . S
H726 C730 0.929 . S
H727 C736 0.929 . S
C728 H722 0.930 . S
C728 C729 1.367 . S
C728 C736 1.378 . S
C729 C728 1.367 . S
C729 C737 1.433 . S
C730 H726 0.929 . S
C730 C732 1.378 . S
C730 C734 1.350 . S
C731 C734 1.463 . S
C731 C736 1.350 . S
C731 N739 1.427 . S
C732 H723 0.930 . S
C732 C730 1.378 . S
C732 C733 1.367 . S
C733 C732 1.367 . S
C733 C735 1.433 . S
C734 C730 1.350 . S
C734 C731 1.463 . S
C734 N738 1.427 . S
C735 H725 0.929 . S
C735 C733 1.433 . S
C735 N738 1.384 . S
C736 H727 0.929 . S
C736 C728 1.378 . S
C736 C731 1.350 . S
C737 H724 0.929 . S
C737 C729 1.433 . S
C737 N739 1.384 . S
N738 C734 1.427 . S
N738 C735 1.384 . S
N739 C731 1.427 . S
N739 C737 1.384 . S
H740 C746 0.930 . S
H741 C750 0.930 . S
H742 C755 0.929 . S
H743 C753 0.929 . S
H744 C748 0.929 . S
H745 C754 0.929 . S
C746 H740 0.930 . S
C746 C747 1.367 . S
C746 C754 1.378 . S
C747 C746 1.367 . S
C747 C755 1.433 . S
C748 H744 0.929 . S
C748 C750 1.378 . S
C748 C752 1.350 1_554 S
C749 C752 1.463 . S
C749 C754 1.350 . S
C749 N757 1.427 . S
C750 H741 0.930 . S
C750 C748 1.378 . S
C750 C751 1.367 . S
C751 C750 1.367 . S
C751 C753 1.433 1_554 S
C752 C748 1.350 1_556 S
C752 C749 1.463 . S
C752 N756 1.427 . S
C753 H743 0.929 . S
C753 C751 1.433 1_556 S
C753 N756 1.384 . S
C754 H745 0.929 . S
C754 C746 1.378 . S
C754 C749 1.350 . S
C755 H742 0.929 . S
C755 C747 1.433 . S
C755 N757 1.384 . S
N756 C752 1.427 . S
N756 C753 1.384 . S
N757 C749 1.427 . S
N757 C755 1.384 . S
H758 C764 0.930 . S
H759 C768 0.930 . S
H760 C773 0.929 . S
H761 C771 0.929 . S
H762 C766 0.929 . S
H763 C772 0.929 . S
C764 H758 0.930 . S
C764 C765 1.367 . S
C764 C772 1.378 . S
C765 C764 1.367 . S
C765 C773 1.433 . S
C766 H762 0.929 . S
C766 C768 1.378 . S
C766 C770 1.350 . S
C767 C770 1.463 . S
C767 C772 1.350 . S
C767 N775 1.427 . S
C768 H759 0.930 . S
C768 C766 1.378 . S
C768 C769 1.367 . S
C769 C768 1.367 . S
C769 C771 1.433 . S
C770 C766 1.350 . S
C770 C767 1.463 . S
C770 N774 1.427 . S
C771 H761 0.929 . S
C771 C769 1.433 . S
C771 N774 1.384 . S
C772 H763 0.929 . S
C772 C764 1.378 . S
C772 C767 1.350 . S
C773 H760 0.929 . S
C773 C765 1.433 . S
C773 N775 1.384 . S
N774 C770 1.427 . S
N774 C771 1.384 . S
N775 C767 1.427 . S
N775 C773 1.384 . S
H776 C782 0.930 . S
H777 C786 0.930 . S
H778 C791 0.929 . S
H779 C789 0.929 . S
H780 C784 0.929 . S
H781 C790 0.929 . S
C782 H776 0.930 . S
C782 C783 1.367 . S
C782 C790 1.378 . S
C783 C782 1.367 . S
C783 C791 1.433 . S
C784 H780 0.929 . S
C784 C786 1.378 . S
C784 C788 1.350 . S
C785 C788 1.463 . S
C785 C790 1.350 . S
C785 N793 1.427 . S
C786 H777 0.930 . S
C786 C784 1.378 . S
C786 C787 1.367 . S
C787 C786 1.367 . S
C787 C789 1.433 . S
C788 C784 1.350 . S
C788 C785 1.463 . S
C788 N792 1.427 . S
C789 H779 0.929 . S
C789 C787 1.433 . S
C789 N792 1.384 . S
C790 H781 0.929 . S
C790 C782 1.378 . S
C790 C785 1.350 . S
C791 H778 0.929 . S
C791 C783 1.433 . S
C791 N793 1.384 . S
N792 C788 1.427 . S
N792 C789 1.384 . S
N793 C785 1.427 . S
N793 C791 1.384 . S
H794 C800 0.931 1_554 S
H795 C804 0.930 . S
H796 C809 0.929 . S
H797 C807 0.929 . S
H798 C802 0.929 1_556 S
H799 C808 0.929 . S
C800 H794 0.931 1_556 S
C800 C801 1.367 . S
C800 C808 1.378 1_556 S
C801 C800 1.367 . S
C801 C809 1.433 . S
C802 H798 0.929 1_554 S
C802 C804 1.378 . S
C802 C806 1.350 . S
C803 C806 1.460 1_556 S
C803 C808 1.348 1_556 S
C803 N811 1.431 . S
C804 H795 0.930 . S
C804 C802 1.378 . S
C804 C805 1.367 . S
C805 C804 1.367 . S
C805 C807 1.433 . S
C806 C802 1.350 . S
C806 C803 1.460 1_554 S
C806 N810 1.427 . S
C807 H797 0.929 . S
C807 C805 1.433 . S
C807 N810 1.384 . S
C808 H799 0.929 . S
C808 C800 1.378 1_554 S
C808 C803 1.348 1_554 S
C809 H796 0.929 . S
C809 C801 1.433 . S
C809 N811 1.384 . S
N810 C806 1.427 . S
N810 C807 1.384 . S
N811 C803 1.431 . S
N811 C809 1.384 . S
H812 C818 0.930 . S
H813 C822 0.930 . S
H814 C827 0.929 . S
H815 C825 0.929 . S
H816 C820 0.929 . S
H817 C826 0.929 . S
C818 H812 0.930 . S
C818 C819 1.367 . S
C818 C826 1.378 . S
C819 C818 1.367 . S
C819 C827 1.433 . S
C820 H816 0.929 . S
C820 C822 1.378 . S
C820 C824 1.350 . S
C821 C824 1.463 . S
C821 C826 1.350 . S
C821 N829 1.427 . S
C822 H813 0.930 . S
C822 C820 1.378 . S
C822 C823 1.367 . S
C823 C822 1.367 . S
C823 C825 1.433 . S
C824 C820 1.350 . S
C824 C821 1.463 . S
C824 N828 1.427 . S
C825 H815 0.929 . S
C825 C823 1.433 . S
C825 N828 1.384 . S
C826 H817 0.929 . S
C826 C818 1.378 . S
C826 C821 1.350 . S
C827 H814 0.929 . S
C827 C819 1.433 . S
C827 N829 1.384 . S
N828 C824 1.427 . S
N828 C825 1.384 . S
N829 C821 1.427 . S
N829 C827 1.384 . S
H830 C836 0.930 . S
H831 C840 0.930 . S
H832 C845 0.929 . S
H833 C843 0.929 . S
H834 C838 0.929 . S
H835 C844 0.929 . S
C836 H830 0.930 . S
C836 C837 1.367 . S
C836 C844 1.378 . S
C837 C836 1.367 . S
C837 C845 1.433 . S
C838 H834 0.929 . S
C838 C840 1.378 . S
C838 C842 1.350 . S
C839 C842 1.463 . S
C839 C844 1.350 . S
C839 N847 1.427 . S
C840 H831 0.930 . S
C840 C838 1.378 . S
C840 C841 1.367 . S
C841 C840 1.367 . S
C841 C843 1.433 . S
C842 C838 1.350 . S
C842 C839 1.463 . S
C842 N846 1.427 . S
C843 H833 0.929 . S
C843 C841 1.433 . S
C843 N846 1.384 . S
C844 H835 0.929 . S
C844 C836 1.378 . S
C844 C839 1.350 . S
C845 H832 0.929 . S
C845 C837 1.433 . S
C845 N847 1.384 . S
N846 C842 1.427 . S
N846 C843 1.384 . S
N847 C839 1.427 . S
N847 C845 1.384 . S
H848 C854 0.930 . S
H849 C858 0.930 . S
H850 C863 0.929 . S
H851 C861 0.929 . S
H852 C856 0.929 . S
H853 C862 0.929 . S
C854 H848 0.930 . S
C854 C855 1.367 . S
C854 C862 1.378 . S
C855 C854 1.367 . S
C855 C863 1.433 . S
C856 H852 0.929 . S
C856 C858 1.378 . S
C856 C860 1.350 . S
C857 C860 1.463 . S
C857 C862 1.350 . S
C857 N865 1.427 . S
C858 H849 0.930 . S
C858 C856 1.378 . S
C858 C859 1.367 . S
C859 C858 1.367 . S
C859 C861 1.433 . S
C860 C856 1.350 . S
C860 C857 1.463 . S
C860 N864 1.427 . S
C861 H851 0.929 . S
C861 C859 1.433 . S
C861 N864 1.384 . S
C862 H853 0.929 . S
C862 C854 1.378 . S
C862 C857 1.350 . S
C863 H850 0.929 . S
C863 C855 1.433 . S
C863 N865 1.384 . S
N864 C860 1.427 . S
N864 C861 1.384 . S
N865 C857 1.427 . S
N865 C863 1.384 . S
H866 C872 0.930 . S
H867 C876 0.930 . S
H868 C881 0.929 . S
H869 C879 0.929 . S
H870 C874 0.929 . S
H871 C880 0.929 . S
C872 H866 0.930 . S
C872 C873 1.367 . S
C872 C880 1.378 . S
C873 C872 1.367 . S
C873 C881 1.433 . S
C874 H870 0.929 . S
C874 C876 1.378 . S
C874 C878 1.350 . S
C875 C878 1.463 . S
C875 C880 1.350 . S
C875 N883 1.427 . S
C876 H867 0.930 . S
C876 C874 1.378 . S
C876 C877 1.367 . S
C877 C876 1.367 . S
C877 C879 1.433 . S
C878 C874 1.350 . S
C878 C875 1.463 . S
C878 N882 1.427 . S
C879 H869 0.929 . S
C879 C877 1.433 . S
C879 N882 1.384 . S
C880 H871 0.929 . S
C880 C872 1.378 . S
C880 C875 1.350 . S
C881 H868 0.929 . S
C881 C873 1.433 . S
C881 N883 1.384 . S
N882 C878 1.427 . S
N882 C879 1.384 . S
N883 C875 1.427 . S
N883 C881 1.384 . S
H884 C890 0.930 . S
H885 C894 0.930 . S
H886 C899 0.929 . S
H887 C897 0.929 . S
H888 C892 0.929 . S
H889 C898 0.929 . S
C890 H884 0.930 . S
C890 C891 1.367 . S
C890 C898 1.378 . S
C891 C890 1.367 . S
C891 C899 1.433 . S
C892 H888 0.929 . S
C892 C894 1.378 . S
C892 C896 1.350 . S
C893 C896 1.463 . S
C893 C898 1.350 . S
C893 N901 1.427 . S
C894 H885 0.930 . S
C894 C892 1.378 . S
C894 C895 1.367 . S
C895 C894 1.367 . S
C895 C897 1.433 . S
C896 C892 1.350 . S
C896 C893 1.463 . S
C896 N900 1.427 . S
C897 H887 0.929 . S
C897 C895 1.433 . S
C897 N900 1.384 . S
C898 H889 0.929 . S
C898 C890 1.378 . S
C898 C893 1.350 . S
C899 H886 0.929 . S
C899 C891 1.433 . S
C899 N901 1.384 . S
N900 C896 1.427 . S
N900 C897 1.384 . S
N901 C893 1.427 . S
N901 C899 1.384 . S
H902 C908 0.930 . S
H903 C912 0.930 . S
H904 C917 0.929 . S
H905 C915 0.929 . S
H906 C910 0.929 . S
H907 C916 0.929 . S
C908 H902 0.930 . S
C908 C909 1.367 . S
C908 C916 1.378 . S
C909 C908 1.367 . S
C909 C917 1.433 . S
C910 H906 0.929 . S
C910 C912 1.378 . S
C910 C914 1.350 . S
C911 C914 1.463 . S
C911 C916 1.350 . S
C911 N919 1.427 . S
C912 H903 0.930 . S
C912 C910 1.378 . S
C912 C913 1.367 . S
C913 C912 1.367 . S
C913 C915 1.433 . S
C914 C910 1.350 . S
C914 C911 1.463 . S
C914 N918 1.427 . S
C915 H905 0.929 . S
C915 C913 1.433 . S
C915 N918 1.384 . S
C916 H907 0.929 . S
C916 C908 1.378 . S
C916 C911 1.350 . S
C917 H904 0.929 . S
C917 C909 1.433 . S
C917 N919 1.384 . S
N918 C914 1.427 . S
N918 C915 1.384 . S
N919 C911 1.427 . S
N919 C917 1.384 . S
H920 C926 0.930 . S
H921 C930 0.930 . S
H922 C935 0.929 . S
H923 C933 0.929 . S
H924 C928 0.929 . S
H925 C934 0.929 . S
C926 H920 0.930 . S
C926 C927 1.367 . S
C926 C934 1.378 . S
C927 C926 1.367 . S
C927 C935 1.433 . S
C928 H924 0.929 . S
C928 C930 1.378 . S
C928 C932 1.350 . S
C929 C932 1.463 . S
C929 C934 1.350 . S
C929 N937 1.427 . S
C930 H921 0.930 . S
C930 C928 1.378 . S
C930 C931 1.367 . S
C931 C930 1.367 . S
C931 C933 1.433 . S
C932 C928 1.350 . S
C932 C929 1.463 . S
C932 N936 1.427 . S
C933 H923 0.929 . S
C933 C931 1.433 . S
C933 N936 1.384 . S
C934 H925 0.929 . S
C934 C926 1.378 . S
C934 C929 1.350 . S
C935 H922 0.929 . S
C935 C927 1.433 . S
C935 N937 1.384 . S
N936 C932 1.427 . S
N936 C933 1.384 . S
N937 C929 1.427 . S
N937 C935 1.384 . S
H938 C944 0.930 . S
H939 C948 0.930 . S
H940 C953 0.929 . S
H941 C951 0.929 . S
H942 C946 0.929 . S
H943 C952 0.929 . S
C944 H938 0.930 . S
C944 C945 1.367 . S
C944 C952 1.378 . S
C945 C944 1.367 . S
C945 C953 1.433 . S
C946 H942 0.929 . S
C946 C948 1.378 . S
C946 C950 1.350 . S
C947 C950 1.463 . S
C947 C952 1.350 . S
C947 N955 1.427 . S
C948 H939 0.930 . S
C948 C946 1.378 . S
C948 C949 1.367 . S
C949 C948 1.367 . S
C949 C951 1.433 . S
C950 C946 1.350 . S
C950 C947 1.463 . S
C950 N954 1.427 . S
C951 H941 0.929 . S
C951 C949 1.433 . S
C951 N954 1.384 . S
C952 H943 0.929 . S
C952 C944 1.378 . S
C952 C947 1.350 . S
C953 H940 0.929 . S
C953 C945 1.433 . S
C953 N955 1.384 . S
N954 C950 1.427 . S
N954 C951 1.384 . S
N955 C947 1.427 . S
N955 C953 1.384 . S
H956 C962 0.930 . S
H957 C966 0.930 . S
H958 C971 0.929 . S
H959 C969 0.929 . S
H960 C964 0.929 . S
H961 C970 0.929 . S
C962 H956 0.930 . S
C962 C963 1.367 . S
C962 C970 1.378 . S
C963 C962 1.367 . S
C963 C971 1.433 . S
C964 H960 0.929 . S
C964 C966 1.378 . S
C964 C968 1.350 . S
C965 C968 1.463 . S
C965 C970 1.350 . S
C965 N973 1.427 . S
C966 H957 0.930 . S
C966 C964 1.378 . S
C966 C967 1.367 . S
C967 C966 1.367 . S
C967 C969 1.433 . S
C968 C964 1.350 . S
C968 C965 1.463 . S
C968 N972 1.427 . S
C969 H959 0.929 . S
C969 C967 1.433 . S
C969 N972 1.384 . S
C970 H961 0.929 . S
C970 C962 1.378 . S
C970 C965 1.350 . S
C971 H958 0.929 . S
C971 C963 1.433 . S
C971 N973 1.384 . S
N972 C968 1.427 . S
N972 C969 1.384 . S
N973 C965 1.427 . S
N973 C971 1.384 . S
H974 C980 0.930 . S
H975 C984 0.930 . S
H976 C989 0.929 . S
H977 C987 0.929 . S
H978 C982 0.929 . S
H979 C988 0.929 . S
C980 H974 0.930 . S
C980 C981 1.367 . S
C980 C988 1.378 . S
C981 C980 1.367 . S
C981 C989 1.433 . S
C982 H978 0.929 . S
C982 C984 1.378 . S
C982 C986 1.350 . S
C983 C986 1.463 . S
C983 C988 1.350 . S
C983 N991 1.427 . S
C984 H975 0.930 . S
C984 C982 1.378 . S
C984 C985 1.367 . S
C985 C984 1.367 . S
C985 C987 1.433 . S
C986 C982 1.350 . S
C986 C983 1.463 . S
C986 N990 1.427 . S
C987 H977 0.929 . S
C987 C985 1.433 . S
C987 N990 1.384 . S
C988 H979 0.929 . S
C988 C980 1.378 . S
C988 C983 1.350 . S
C989 H976 0.929 . S
C989 C981 1.433 . S
C989 N991 1.384 . S
N990 C986 1.427 . S
N990 C987 1.384 . S
N991 C983 1.427 . S
N991 C989 1.384 . S
H992 C998 0.930 . S
H993 C1002 0.930 . S
H994 C1007 0.929 . S
H995 C1005 0.929 . S
H996 C1000 0.929 . S
H997 C1006 0.929 . S
C998 H992 0.930 . S
C998 C999 1.367 . S
C998 C1006 1.378 . S
C999 C998 1.367 . S
C999 C1007 1.433 . S
C1000 H996 0.929 . S
C1000 C1002 1.378 . S
C1000 C1004 1.350 . S
C1001 C1004 1.463 . S
C1001 C1006 1.350 . S
C1001 N1009 1.427 . S
C1002 H993 0.930 . S
C1002 C1000 1.378 . S
C1002 C1003 1.367 . S
C1003 C1002 1.367 . S
C1003 C1005 1.433 . S
C1004 C1000 1.350 . S
C1004 C1001 1.463 . S
C1004 N1008 1.427 . S
C1005 H995 0.929 . S
C1005 C1003 1.433 . S
C1005 N1008 1.384 . S
C1006 H997 0.929 . S
C1006 C998 1.378 . S
C1006 C1001 1.350 . S
C1007 H994 0.929 . S
C1007 C999 1.433 . S
C1007 N1009 1.384 . S
N1008 C1004 1.427 . S
N1008 C1005 1.384 . S
N1009 C1001 1.427 . S
N1009 C1007 1.384 . S
H1010 C1016 0.930 . S
H1011 C1020 0.930 . S
H1012 C1025 0.929 . S
H1013 C1023 0.929 . S
H1014 C1018 0.929 . S
H1015 C1024 0.929 . S
C1016 H1010 0.930 . S
C1016 C1017 1.367 . S
C1016 C1024 1.378 . S
C1017 C1016 1.367 . S
C1017 C1025 1.433 . S
C1018 H1014 0.929 . S
C1018 C1020 1.378 . S
C1018 C1022 1.350 . S
C1019 C1022 1.463 . S
C1019 C1024 1.350 . S
C1019 N1027 1.427 . S
C1020 H1011 0.930 . S
C1020 C1018 1.378 . S
C1020 C1021 1.367 . S
C1021 C1020 1.367 . S
C1021 C1023 1.433 . S
C1022 C1018 1.350 . S
C1022 C1019 1.463 . S
C1022 N1026 1.427 . S
C1023 H1013 0.929 . S
C1023 C1021 1.433 . S
C1023 N1026 1.384 . S
C1024 H1015 0.929 . S
C1024 C1016 1.378 . S
C1024 C1019 1.350 . S
C1025 H1012 0.929 . S
C1025 C1017 1.433 . S
C1025 N1027 1.384 . S
N1026 C1022 1.427 . S
N1026 C1023 1.384 . S
N1027 C1019 1.427 . S
N1027 C1025 1.384 . S
H1028 C1034 0.930 . S
H1029 C1038 0.930 . S
H1030 C1043 0.929 . S
H1031 C1041 0.929 . S
H1032 C1036 0.929 . S
H1033 C1042 0.929 . S
C1034 H1028 0.930 . S
C1034 C1035 1.367 . S
C1034 C1042 1.378 . S
C1035 C1034 1.367 . S
C1035 C1043 1.433 . S
C1036 H1032 0.929 . S
C1036 C1038 1.378 . S
C1036 C1040 1.350 . S
C1037 C1040 1.463 . S
C1037 C1042 1.350 . S
C1037 N1045 1.427 . S
C1038 H1029 0.930 . S
C1038 C1036 1.378 . S
C1038 C1039 1.367 . S
C1039 C1038 1.367 . S
C1039 C1041 1.433 . S
C1040 C1036 1.350 . S
C1040 C1037 1.463 . S
C1040 N1044 1.427 . S
C1041 H1031 0.929 . S
C1041 C1039 1.433 . S
C1041 N1044 1.384 . S
C1042 H1033 0.929 . S
C1042 C1034 1.378 . S
C1042 C1037 1.350 . S
C1043 H1030 0.929 . S
C1043 C1035 1.433 . S
C1043 N1045 1.384 . S
N1044 C1040 1.427 . S
N1044 C1041 1.384 . S
N1045 C1037 1.427 . S
N1045 C1043 1.384 . S
H1046 C1052 0.930 . S
H1047 C1056 0.930 . S
H1048 C1061 0.929 . S
H1049 C1059 0.929 . S
H1050 C1054 0.929 . S
H1051 C1060 0.929 . S
C1052 H1046 0.930 . S
C1052 C1053 1.367 . S
C1052 C1060 1.378 . S
C1053 C1052 1.367 . S
C1053 C1061 1.433 . S
C1054 H1050 0.929 . S
C1054 C1056 1.378 . S
C1054 C1058 1.350 . S
C1055 C1058 1.463 . S
C1055 C1060 1.350 . S
C1055 N1063 1.427 . S
C1056 H1047 0.930 . S
C1056 C1054 1.378 . S
C1056 C1057 1.367 . S
C1057 C1056 1.367 . S
C1057 C1059 1.433 . S
C1058 C1054 1.350 . S
C1058 C1055 1.463 . S
C1058 N1062 1.427 . S
C1059 H1049 0.929 . S
C1059 C1057 1.433 . S
C1059 N1062 1.384 . S
C1060 H1051 0.929 . S
C1060 C1052 1.378 . S
C1060 C1055 1.350 . S
C1061 H1048 0.929 . S
C1061 C1053 1.433 . S
C1061 N1063 1.384 . S
N1062 C1058 1.427 . S
N1062 C1059 1.384 . S
N1063 C1055 1.427 . S
N1063 C1061 1.384 . S
H1064 C1070 0.930 . S
H1065 C1074 0.930 . S
H1066 C1079 0.929 . S
H1067 C1077 0.929 . S
H1068 C1072 0.929 . S
H1069 C1078 0.929 . S
C1070 H1064 0.930 . S
C1070 C1071 1.367 . S
C1070 C1078 1.378 . S
C1071 C1070 1.367 . S
C1071 C1079 1.433 1_556 S
C1072 H1068 0.929 . S
C1072 C1074 1.378 . S
C1072 C1076 1.350 . S
C1073 C1076 1.463 1_556 S
C1073 C1078 1.350 . S
C1073 N1081 1.427 1_556 S
C1074 H1065 0.930 . S
C1074 C1072 1.378 . S
C1074 C1075 1.367 . S
C1075 C1074 1.367 . S
C1075 C1077 1.433 1_554 S
C1076 C1072 1.350 . S
C1076 C1073 1.463 1_554 S
C1076 N1080 1.427 1_554 S
C1077 H1067 0.929 . S
C1077 C1075 1.433 1_556 S
C1077 N1080 1.384 . S
C1078 H1069 0.929 . S
C1078 C1070 1.378 . S
C1078 C1073 1.350 . S
C1079 H1066 0.929 . S
C1079 C1071 1.433 1_554 S
C1079 N1081 1.384 . S
N1080 C1076 1.427 1_556 S
N1080 C1077 1.384 . S
N1081 C1073 1.427 1_554 S
N1081 C1079 1.384 . S
H1082 C1088 0.930 . S
H1083 C1092 0.930 . S
H1084 C1097 0.929 . S
H1085 C1095 0.929 . S
H1086 C1090 0.929 . S
H1087 C1096 0.929 . S
C1088 H1082 0.930 . S
C1088 C1089 1.367 1_554 S
C1088 C1096 1.378 . S
C1089 C1088 1.367 1_556 S
C1089 C1097 1.433 . S
C1090 H1086 0.929 . S
C1090 C1092 1.378 . S
C1090 C1094 1.350 . S
C1091 C1094 1.463 . S
C1091 C1096 1.350 1_556 S
C1091 N1099 1.427 . S
C1092 H1083 0.930 . S
C1092 C1090 1.378 . S
C1092 C1093 1.367 1_556 S
C1093 C1092 1.367 1_554 S
C1093 C1095 1.433 . S
C1094 C1090 1.350 . S
C1094 C1091 1.463 . S
C1094 N1098 1.427 1_556 S
C1095 H1085 0.929 . S
C1095 C1093 1.433 . S
C1095 N1098 1.384 . S
C1096 H1087 0.929 . S
C1096 C1088 1.378 . S
C1096 C1091 1.350 1_554 S
C1097 H1084 0.929 . S
C1097 C1089 1.433 . S
C1097 N1099 1.384 . S
N1098 C1094 1.427 1_554 S
N1098 C1095 1.384 . S
N1099 C1091 1.427 . S
N1099 C1097 1.384 . S
H1100 C1106 0.930 . S
H1101 C1110 0.930 . S
H1102 C1115 0.929 . S
H1103 C1113 0.929 . S
H1104 C1108 0.929 . S
H1105 C1114 0.929 . S
C1106 H1100 0.930 . S
C1106 C1107 1.367 . S
C1106 C1114 1.378 . S
C1107 C1106 1.367 . S
C1107 C1115 1.433 . S
C1108 H1104 0.929 . S
C1108 C1110 1.378 . S
C1108 C1112 1.350 . S
C1109 C1112 1.463 . S
C1109 C1114 1.350 . S
C1109 N1117 1.427 . S
C1110 H1101 0.930 . S
C1110 C1108 1.378 . S
C1110 C1111 1.367 . S
C1111 C1110 1.367 . S
C1111 C1113 1.433 . S
C1112 C1108 1.350 . S
C1112 C1109 1.463 . S
C1112 N1116 1.427 . S
C1113 H1103 0.929 . S
C1113 C1111 1.433 . S
C1113 N1116 1.384 . S
C1114 H1105 0.929 . S
C1114 C1106 1.378 . S
C1114 C1109 1.350 . S
C1115 H1102 0.929 . S
C1115 C1107 1.433 . S
C1115 N1117 1.384 . S
N1116 C1112 1.427 . S
N1116 C1113 1.384 . S
N1117 C1109 1.427 . S
N1117 C1115 1.384 . S
H1118 C1124 0.930 . S
H1119 C1128 0.930 . S
H1120 C1133 0.929 . S
H1121 C1131 0.929 . S
H1122 C1126 0.929 . S
H1123 C1132 0.929 . S
C1124 H1118 0.930 . S
C1124 C1125 1.367 . S
C1124 C1132 1.378 . S
C1125 C1124 1.367 . S
C1125 C1133 1.433 . S
C1126 H1122 0.929 . S
C1126 C1128 1.378 . S
C1126 C1130 1.350 . S
C1127 C1130 1.463 . S
C1127 C1132 1.350 . S
C1127 N1135 1.427 . S
C1128 H1119 0.930 . S
C1128 C1126 1.378 . S
C1128 C1129 1.367 . S
C1129 C1128 1.367 . S
C1129 C1131 1.433 . S
C1130 C1126 1.350 . S
C1130 C1127 1.463 . S
C1130 N1134 1.427 . S
C1131 H1121 0.929 . S
C1131 C1129 1.433 . S
C1131 N1134 1.384 . S
C1132 H1123 0.929 . S
C1132 C1124 1.378 . S
C1132 C1127 1.350 . S
C1133 H1120 0.929 . S
C1133 C1125 1.433 . S
C1133 N1135 1.384 . S
N1134 C1130 1.427 . S
N1134 C1131 1.384 . S
N1135 C1127 1.427 . S
N1135 C1133 1.384 . S
H1136 C1142 0.930 . S
H1137 C1146 0.930 . S
H1138 C1151 0.929 . S
H1139 C1149 0.929 . S
H1140 C1144 0.929 . S
H1141 C1150 0.929 . S
C1142 H1136 0.930 . S
C1142 C1143 1.367 . S
C1142 C1150 1.378 . S
C1143 C1142 1.367 . S
C1143 C1151 1.433 . S
C1144 H1140 0.929 . S
C1144 C1146 1.378 . S
C1144 C1148 1.350 . S
C1145 C1148 1.463 . S
C1145 C1150 1.350 . S
C1145 N1153 1.427 . S
C1146 H1137 0.930 . S
C1146 C1144 1.378 . S
C1146 C1147 1.367 . S
C1147 C1146 1.367 . S
C1147 C1149 1.433 . S
C1148 C1144 1.350 . S
C1148 C1145 1.463 . S
C1148 N1152 1.427 . S
C1149 H1139 0.929 . S
C1149 C1147 1.433 . S
C1149 N1152 1.384 . S
C1150 H1141 0.929 . S
C1150 C1142 1.378 . S
C1150 C1145 1.350 . S
C1151 H1138 0.929 . S
C1151 C1143 1.433 . S
C1151 N1153 1.384 . S
N1152 C1148 1.427 . S
N1152 C1149 1.384 . S
N1153 C1145 1.427 . S
N1153 C1151 1.384 . S
H1154 C1160 0.930 . S
H1155 C1164 0.930 . S
H1156 C1169 0.929 . S
H1157 C1167 0.929 . S
H1158 C1162 0.929 . S
H1159 C1168 0.929 . S
C1160 H1154 0.930 . S
C1160 C1161 1.367 . S
C1160 C1168 1.378 . S
C1161 C1160 1.367 . S
C1161 C1169 1.433 . S
C1162 H1158 0.929 . S
C1162 C1164 1.378 . S
C1162 C1166 1.350 . S
C1163 C1166 1.463 . S
C1163 C1168 1.350 . S
C1163 N1171 1.427 . S
C1164 H1155 0.930 . S
C1164 C1162 1.378 . S
C1164 C1165 1.367 . S
C1165 C1164 1.367 . S
C1165 C1167 1.433 . S
C1166 C1162 1.350 . S
C1166 C1163 1.463 . S
C1166 N1170 1.427 . S
C1167 H1157 0.929 . S
C1167 C1165 1.433 . S
C1167 N1170 1.384 . S
C1168 H1159 0.929 . S
C1168 C1160 1.378 . S
C1168 C1163 1.350 . S
C1169 H1156 0.929 . S
C1169 C1161 1.433 . S
C1169 N1171 1.384 . S
N1170 C1166 1.427 . S
N1170 C1167 1.384 . S
N1171 C1163 1.427 . S
N1171 C1169 1.384 . S
H1172 C1178 0.930 . S
H1173 C1182 0.930 . S
H1174 C1187 0.929 . S
H1175 C1185 0.929 . S
H1176 C1180 0.929 . S
H1177 C1186 0.929 . S
C1178 H1172 0.930 . S
C1178 C1179 1.367 . S
C1178 C1186 1.378 . S
C1179 C1178 1.367 . S
C1179 C1187 1.433 . S
C1180 H1176 0.929 . S
C1180 C1182 1.378 . S
C1180 C1184 1.350 . S
C1181 C1184 1.463 . S
C1181 C1186 1.350 . S
C1181 N1189 1.427 . S
C1182 H1173 0.930 . S
C1182 C1180 1.378 . S
C1182 C1183 1.367 . S
C1183 C1182 1.367 . S
C1183 C1185 1.433 . S
C1184 C1180 1.350 . S
C1184 C1181 1.463 . S
C1184 N1188 1.427 . S
C1185 H1175 0.929 . S
C1185 C1183 1.433 . S
C1185 N1188 1.384 . S
C1186 H1177 0.929 . S
C1186 C1178 1.378 . S
C1186 C1181 1.350 . S
C1187 H1174 0.929 . S
C1187 C1179 1.433 . S
C1187 N1189 1.384 . S
N1188 C1184 1.427 . S
N1188 C1185 1.384 . S
N1189 C1181 1.427 . S
N1189 C1187 1.384 . S
H1190 C1196 0.930 . S
H1191 C1200 0.930 . S
H1192 C1205 0.929 . S
H1193 C1203 0.929 . S
H1194 C1198 0.929 . S
H1195 C1204 0.929 . S
C1196 H1190 0.930 . S
C1196 C1197 1.367 . S
C1196 C1204 1.378 . S
C1197 C1196 1.367 . S
C1197 C1205 1.433 . S
C1198 H1194 0.929 . S
C1198 C1200 1.378 . S
C1198 C1202 1.350 . S
C1199 C1202 1.463 . S
C1199 C1204 1.350 . S
C1199 N1207 1.427 . S
C1200 H1191 0.930 . S
C1200 C1198 1.378 . S
C1200 C1201 1.367 . S
C1201 C1200 1.367 . S
C1201 C1203 1.433 . S
C1202 C1198 1.350 . S
C1202 C1199 1.463 . S
C1202 N1206 1.427 . S
C1203 H1193 0.929 . S
C1203 C1201 1.433 . S
C1203 N1206 1.384 . S
C1204 H1195 0.929 . S
C1204 C1196 1.378 . S
C1204 C1199 1.350 . S
C1205 H1192 0.929 . S
C1205 C1197 1.433 . S
C1205 N1207 1.384 . S
N1206 C1202 1.427 . S
N1206 C1203 1.384 . S
N1207 C1199 1.427 . S
N1207 C1205 1.384 . S
H1208 C1214 0.930 . S
H1209 C1218 0.930 . S
H1210 C1223 0.929 . S
H1211 C1221 0.929 . S
H1212 C1216 0.929 . S
H1213 C1222 0.929 . S
C1214 H1208 0.930 . S
C1214 C1215 1.367 . S
C1214 C1222 1.378 . S
C1215 C1214 1.367 . S
C1215 C1223 1.433 . S
C1216 H1212 0.929 . S
C1216 C1218 1.378 . S
C1216 C1220 1.350 . S
C1217 C1220 1.463 . S
C1217 C1222 1.350 . S
C1217 N1225 1.427 . S
C1218 H1209 0.930 . S
C1218 C1216 1.378 . S
C1218 C1219 1.367 . S
C1219 C1218 1.367 . S
C1219 C1221 1.433 . S
C1220 C1216 1.350 . S
C1220 C1217 1.463 . S
C1220 N1224 1.427 . S
C1221 H1211 0.929 . S
C1221 C1219 1.433 . S
C1221 N1224 1.384 . S
C1222 H1213 0.929 . S
C1222 C1214 1.378 . S
C1222 C1217 1.350 . S
C1223 H1210 0.929 . S
C1223 C1215 1.433 . S
C1223 N1225 1.384 . S
N1224 C1220 1.427 . S
N1224 C1221 1.384 . S
N1225 C1217 1.427 . S
N1225 C1223 1.384 . S
H1226 C1232 0.930 . S
H1227 C1236 0.930 . S
H1228 C1241 0.929 . S
H1229 C1239 0.929 . S
H1230 C1234 0.929 . S
H1231 C1240 0.929 . S
C1232 H1226 0.930 . S
C1232 C1233 1.367 . S
C1232 C1240 1.378 . S
C1233 C1232 1.367 . S
C1233 C1241 1.433 . S
C1234 H1230 0.929 . S
C1234 C1236 1.378 . S
C1234 C1238 1.350 . S
C1235 C1238 1.463 . S
C1235 C1240 1.350 . S
C1235 N1243 1.427 . S
C1236 H1227 0.930 . S
C1236 C1234 1.378 . S
C1236 C1237 1.367 . S
C1237 C1236 1.367 . S
C1237 C1239 1.433 . S
C1238 C1234 1.350 . S
C1238 C1235 1.463 . S
C1238 N1242 1.427 . S
C1239 H1229 0.929 . S
C1239 C1237 1.433 . S
C1239 N1242 1.384 . S
C1240 H1231 0.929 . S
C1240 C1232 1.378 . S
C1240 C1235 1.350 . S
C1241 H1228 0.929 . S
C1241 C1233 1.433 . S
C1241 N1243 1.384 . S
N1242 C1238 1.427 . S
N1242 C1239 1.384 . S
N1243 C1235 1.427 . S
N1243 C1241 1.384 . S
H1244 C1250 0.930 . S
H1245 C1254 0.930 . S
H1246 C1259 0.929 . S
H1247 C1257 0.929 . S
H1248 C1252 0.929 . S
H1249 C1258 0.929 . S
C1250 H1244 0.930 . S
C1250 C1251 1.367 . S
C1250 C1258 1.378 . S
C1251 C1250 1.367 . S
C1251 C1259 1.433 . S
C1252 H1248 0.929 . S
C1252 C1254 1.378 . S
C1252 C1256 1.350 . S
C1253 C1256 1.463 . S
C1253 C1258 1.350 . S
C1253 N1261 1.427 . S
C1254 H1245 0.930 . S
C1254 C1252 1.378 . S
C1254 C1255 1.367 . S
C1255 C1254 1.367 . S
C1255 C1257 1.433 . S
C1256 C1252 1.350 . S
C1256 C1253 1.463 . S
C1256 N1260 1.427 . S
C1257 H1247 0.929 . S
C1257 C1255 1.433 . S
C1257 N1260 1.384 . S
C1258 H1249 0.929 . S
C1258 C1250 1.378 . S
C1258 C1253 1.350 . S
C1259 H1246 0.929 . S
C1259 C1251 1.433 . S
C1259 N1261 1.384 . S
N1260 C1256 1.427 . S
N1260 C1257 1.384 . S
N1261 C1253 1.427 . S
N1261 C1259 1.384 . S
H1262 C1268 0.930 . S
H1263 C1272 0.930 . S
H1264 C1277 0.929 . S
H1265 C1275 0.929 . S
H1266 C1270 0.929 . S
H1267 C1276 0.929 . S
C1268 H1262 0.930 . S
C1268 C1269 1.367 . S
C1268 C1276 1.378 . S
C1269 C1268 1.367 . S
C1269 C1277 1.433 . S
C1270 H1266 0.929 . S
C1270 C1272 1.378 . S
C1270 C1274 1.350 . S
C1271 C1274 1.463 . S
C1271 C1276 1.350 . S
C1271 N1279 1.427 . S
C1272 H1263 0.930 . S
C1272 C1270 1.378 . S
C1272 C1273 1.367 . S
C1273 C1272 1.367 . S
C1273 C1275 1.433 . S
C1274 C1270 1.350 . S
C1274 C1271 1.463 . S
C1274 N1278 1.427 . S
C1275 H1265 0.929 . S
C1275 C1273 1.433 . S
C1275 N1278 1.384 . S
C1276 H1267 0.929 . S
C1276 C1268 1.378 . S
C1276 C1271 1.350 . S
C1277 H1264 0.929 . S
C1277 C1269 1.433 . S
C1277 N1279 1.384 . S
N1278 C1274 1.427 . S
N1278 C1275 1.384 . S
N1279 C1271 1.427 . S
N1279 C1277 1.384 . S
H1280 C1286 0.930 . S
H1281 C1290 0.930 . S
H1282 C1295 0.929 . S
H1283 C1293 0.929 . S
H1284 C1288 0.929 . S
H1285 C1294 0.929 . S
C1286 H1280 0.930 . S
C1286 C1287 1.367 . S
C1286 C1294 1.378 . S
C1287 C1286 1.367 . S
C1287 C1295 1.433 . S
C1288 H1284 0.929 . S
C1288 C1290 1.378 . S
C1288 C1292 1.350 . S
C1289 C1292 1.463 . S
C1289 C1294 1.350 . S
C1289 N1297 1.427 . S
C1290 H1281 0.930 . S
C1290 C1288 1.378 . S
C1290 C1291 1.367 . S
C1291 C1290 1.367 . S
C1291 C1293 1.433 . S
C1292 C1288 1.350 . S
C1292 C1289 1.463 . S
C1292 N1296 1.427 . S
C1293 H1283 0.929 . S
C1293 C1291 1.433 . S
C1293 N1296 1.384 . S
C1294 H1285 0.929 . S
C1294 C1286 1.378 . S
C1294 C1289 1.350 . S
C1295 H1282 0.929 . S
C1295 C1287 1.433 . S
C1295 N1297 1.384 . S
N1296 C1292 1.427 . S
N1296 C1293 1.384 . S
N1297 C1289 1.427 . S
N1297 C1295 1.384 . S
H1298 C1304 0.930 . S
H1299 C1308 0.930 . S
H1300 C1313 0.929 . S
H1301 C1311 0.929 . S
H1302 C1306 0.929 . S
H1303 C1312 0.929 . S
C1304 H1298 0.930 . S
C1304 C1305 1.367 . S
C1304 C1312 1.378 . S
C1305 C1304 1.367 . S
C1305 C1313 1.433 . S
C1306 H1302 0.929 . S
C1306 C1308 1.378 . S
C1306 C1310 1.350 . S
C1307 C1310 1.463 . S
C1307 C1312 1.350 . S
C1307 N1315 1.427 . S
C1308 H1299 0.930 . S
C1308 C1306 1.378 . S
C1308 C1309 1.367 . S
C1309 C1308 1.367 . S
C1309 C1311 1.433 . S
C1310 C1306 1.350 . S
C1310 C1307 1.463 . S
C1310 N1314 1.427 . S
C1311 H1301 0.929 . S
C1311 C1309 1.433 . S
C1311 N1314 1.384 . S
C1312 H1303 0.929 . S
C1312 C1304 1.378 . S
C1312 C1307 1.350 . S
C1313 H1300 0.929 . S
C1313 C1305 1.433 . S
C1313 N1315 1.384 . S
N1314 C1310 1.427 . S
N1314 C1311 1.384 . S
N1315 C1307 1.427 . S
N1315 C1313 1.384 . S
H1316 C1322 0.930 . S
H1317 C1326 0.930 . S
H1318 C1331 0.929 . S
H1319 C1329 0.929 . S
H1320 C1324 0.929 . S
H1321 C1330 0.929 . S
C1322 H1316 0.930 . S
C1322 C1323 1.367 . S
C1322 C1330 1.378 . S
C1323 C1322 1.367 . S
C1323 C1331 1.433 . S
C1324 H1320 0.929 . S
C1324 C1326 1.378 . S
C1324 C1328 1.350 . S
C1325 C1328 1.463 . S
C1325 C1330 1.350 . S
C1325 N1333 1.427 . S
C1326 H1317 0.930 . S
C1326 C1324 1.378 . S
C1326 C1327 1.367 . S
C1327 C1326 1.367 . S
C1327 C1329 1.433 . S
C1328 C1324 1.350 . S
C1328 C1325 1.463 . S
C1328 N1332 1.427 . S
C1329 H1319 0.929 . S
C1329 C1327 1.433 . S
C1329 N1332 1.384 . S
C1330 H1321 0.929 . S
C1330 C1322 1.378 . S
C1330 C1325 1.350 . S
C1331 H1318 0.929 . S
C1331 C1323 1.433 . S
C1331 N1333 1.384 . S
N1332 C1328 1.427 . S
N1332 C1329 1.384 . S
N1333 C1325 1.427 . S
N1333 C1331 1.384 . S
H1334 C1340 0.930 . S
H1335 C1344 0.930 . S
H1336 C1349 0.929 . S
H1337 C1347 0.929 . S
H1338 C1342 0.929 . S
H1339 C1348 0.929 . S
C1340 H1334 0.930 . S
C1340 C1341 1.367 . S
C1340 C1348 1.378 . S
C1341 C1340 1.367 . S
C1341 C1349 1.433 . S
C1342 H1338 0.929 . S
C1342 C1344 1.378 . S
C1342 C1346 1.350 . S
C1343 C1346 1.463 . S
C1343 C1348 1.350 . S
C1343 N1351 1.427 . S
C1344 H1335 0.930 . S
C1344 C1342 1.378 . S
C1344 C1345 1.367 . S
C1345 C1344 1.367 . S
C1345 C1347 1.433 . S
C1346 C1342 1.350 . S
C1346 C1343 1.463 . S
C1346 N1350 1.427 . S
C1347 H1337 0.929 . S
C1347 C1345 1.433 . S
C1347 N1350 1.384 . S
C1348 H1339 0.929 . S
C1348 C1340 1.378 . S
C1348 C1343 1.350 . S
C1349 H1336 0.929 . S
C1349 C1341 1.433 . S
C1349 N1351 1.384 . S
N1350 C1346 1.427 . S
N1350 C1347 1.384 . S
N1351 C1343 1.427 . S
N1351 C1349 1.384 . S
H1352 C1358 0.930 . S
H1353 C1362 0.930 . S
H1354 C1367 0.929 . S
H1355 C1365 0.929 . S
H1356 C1360 0.929 . S
H1357 C1366 0.929 . S
C1358 H1352 0.930 . S
C1358 C1359 1.367 . S
C1358 C1366 1.378 . S
C1359 C1358 1.367 . S
C1359 C1367 1.433 . S
C1360 H1356 0.929 . S
C1360 C1362 1.378 . S
C1360 C1364 1.350 . S
C1361 C1364 1.463 . S
C1361 C1366 1.350 . S
C1361 N1369 1.427 . S
C1362 H1353 0.930 . S
C1362 C1360 1.378 . S
C1362 C1363 1.367 . S
C1363 C1362 1.367 . S
C1363 C1365 1.433 . S
C1364 C1360 1.350 . S
C1364 C1361 1.463 . S
C1364 N1368 1.427 . S
C1365 H1355 0.929 . S
C1365 C1363 1.433 . S
C1365 N1368 1.384 . S
C1366 H1357 0.929 . S
C1366 C1358 1.378 . S
C1366 C1361 1.350 . S
C1367 H1354 0.929 . S
C1367 C1359 1.433 . S
C1367 N1369 1.384 . S
N1368 C1364 1.427 . S
N1368 C1365 1.384 . S
N1369 C1361 1.427 . S
N1369 C1367 1.384 . S
H1370 C1376 0.930 . S
H1371 C1380 0.930 . S
H1372 C1385 0.929 . S
H1373 C1383 0.929 . S
H1374 C1378 0.929 . S
H1375 C1384 0.929 . S
C1376 H1370 0.930 . S
C1376 C1377 1.367 . S
C1376 C1384 1.378 . S
C1377 C1376 1.367 . S
C1377 C1385 1.433 . S
C1378 H1374 0.929 . S
C1378 C1380 1.378 . S
C1378 C1382 1.350 . S
C1379 C1382 1.463 . S
C1379 C1384 1.350 . S
C1379 N1387 1.427 . S
C1380 H1371 0.930 . S
C1380 C1378 1.378 . S
C1380 C1381 1.367 . S
C1381 C1380 1.367 . S
C1381 C1383 1.433 . S
C1382 C1378 1.350 . S
C1382 C1379 1.463 . S
C1382 N1386 1.427 . S
C1383 H1373 0.929 . S
C1383 C1381 1.433 . S
C1383 N1386 1.384 . S
C1384 H1375 0.929 . S
C1384 C1376 1.378 . S
C1384 C1379 1.350 . S
C1385 H1372 0.929 . S
C1385 C1377 1.433 . S
C1385 N1387 1.384 . S
N1386 C1382 1.427 . S
N1386 C1383 1.384 . S
N1387 C1379 1.427 . S
N1387 C1385 1.384 . S
H1388 C1394 0.930 . S
H1389 C1398 0.930 . S
H1390 C1403 0.929 . S
H1391 C1401 0.929 . S
H1392 C1396 0.929 . S
H1393 C1402 0.929 . S
C1394 H1388 0.930 . S
C1394 C1395 1.367 . S
C1394 C1402 1.378 . S
C1395 C1394 1.367 . S
C1395 C1403 1.433 . S
C1396 H1392 0.929 . S
C1396 C1398 1.378 . S
C1396 C1400 1.350 . S
C1397 C1400 1.463 . S
C1397 C1402 1.350 . S
C1397 N1405 1.427 . S
C1398 H1389 0.930 . S
C1398 C1396 1.378 . S
C1398 C1399 1.367 . S
C1399 C1398 1.367 . S
C1399 C1401 1.433 . S
C1400 C1396 1.350 . S
C1400 C1397 1.463 . S
C1400 N1404 1.427 . S
C1401 H1391 0.929 . S
C1401 C1399 1.433 . S
C1401 N1404 1.384 . S
C1402 H1393 0.929 . S
C1402 C1394 1.378 . S
C1402 C1397 1.350 . S
C1403 H1390 0.929 . S
C1403 C1395 1.433 . S
C1403 N1405 1.384 . S
N1404 C1400 1.427 . S
N1404 C1401 1.384 . S
N1405 C1397 1.427 . S
N1405 C1403 1.384 . S
H1406 C1412 0.930 . S
H1407 C1416 0.930 . S
H1408 C1421 0.929 . S
H1409 C1419 0.929 . S
H1410 C1414 0.929 . S
H1411 C1420 0.929 . S
C1412 H1406 0.930 . S
C1412 C1413 1.367 . S
C1412 C1420 1.378 . S
C1413 C1412 1.367 . S
C1413 C1421 1.433 . S
C1414 H1410 0.929 . S
C1414 C1416 1.378 . S
C1414 C1418 1.350 . S
C1415 C1418 1.463 . S
C1415 C1420 1.350 . S
C1415 N1423 1.427 . S
C1416 H1407 0.930 . S
C1416 C1414 1.378 . S
C1416 C1417 1.367 . S
C1417 C1416 1.367 . S
C1417 C1419 1.433 . S
C1418 C1414 1.350 . S
C1418 C1415 1.463 . S
C1418 N1422 1.427 . S
C1419 H1409 0.929 . S
C1419 C1417 1.433 . S
C1419 N1422 1.384 . S
C1420 H1411 0.929 . S
C1420 C1412 1.378 . S
C1420 C1415 1.350 . S
C1421 H1408 0.929 . S
C1421 C1413 1.433 . S
C1421 N1423 1.384 . S
N1422 C1418 1.427 . S
N1422 C1419 1.384 . S
N1423 C1415 1.427 . S
N1423 C1421 1.384 . S
H1424 C1430 0.930 . S
H1425 C1434 0.930 . S
H1426 C1439 0.929 . S
H1427 C1437 0.929 . S
H1428 C1432 0.929 . S
H1429 C1438 0.929 . S
C1430 H1424 0.930 . S
C1430 C1431 1.367 . S
C1430 C1438 1.378 . S
C1431 C1430 1.367 . S
C1431 C1439 1.433 . S
C1432 H1428 0.929 . S
C1432 C1434 1.378 . S
C1432 C1436 1.350 . S
C1433 C1436 1.463 . S
C1433 C1438 1.350 . S
C1433 N1441 1.427 . S
C1434 H1425 0.930 . S
C1434 C1432 1.378 . S
C1434 C1435 1.367 . S
C1435 C1434 1.367 . S
C1435 C1437 1.433 . S
C1436 C1432 1.350 . S
C1436 C1433 1.463 . S
C1436 N1440 1.427 . S
C1437 H1427 0.929 . S
C1437 C1435 1.433 . S
C1437 N1440 1.384 . S
C1438 H1429 0.929 . S
C1438 C1430 1.378 . S
C1438 C1433 1.350 . S
C1439 H1426 0.929 . S
C1439 C1431 1.433 . S
C1439 N1441 1.384 . S
N1440 C1436 1.427 . S
N1440 C1437 1.384 . S
N1441 C1433 1.427 . S
N1441 C1439 1.384 . S
H1442 C1448 0.930 . S
H1443 C1452 0.930 . S
H1444 C1457 0.929 . S
H1445 C1455 0.929 . S
H1446 C1450 0.929 . S
H1447 C1456 0.929 . S
C1448 H1442 0.930 . S
C1448 C1449 1.367 . S
C1448 C1456 1.378 . S
C1449 C1448 1.367 . S
C1449 C1457 1.433 . S
C1450 H1446 0.929 . S
C1450 C1452 1.378 . S
C1450 C1454 1.350 . S
C1451 C1454 1.463 . S
C1451 C1456 1.350 . S
C1451 N1459 1.427 . S
C1452 H1443 0.930 . S
C1452 C1450 1.378 . S
C1452 C1453 1.367 . S
C1453 C1452 1.367 . S
C1453 C1455 1.433 . S
C1454 C1450 1.350 . S
C1454 C1451 1.463 . S
C1454 N1458 1.427 . S
C1455 H1445 0.929 . S
C1455 C1453 1.433 . S
C1455 N1458 1.384 . S
C1456 H1447 0.929 . S
C1456 C1448 1.378 . S
C1456 C1451 1.350 . S
C1457 H1444 0.929 . S
C1457 C1449 1.433 . S
C1457 N1459 1.384 . S
N1458 C1454 1.427 . S
N1458 C1455 1.384 . S
N1459 C1451 1.427 . S
N1459 C1457 1.384 . S
H1460 C1466 0.930 . S
H1461 C1470 0.930 . S
H1462 C1475 0.929 . S
H1463 C1473 0.929 . S
H1464 C1468 0.929 . S
H1465 C1474 0.929 . S
C1466 H1460 0.930 . S
C1466 C1467 1.367 . S
C1466 C1474 1.378 . S
C1467 C1466 1.367 . S
C1467 C1475 1.433 . S
C1468 H1464 0.929 . S
C1468 C1470 1.378 . S
C1468 C1472 1.350 . S
C1469 C1472 1.463 . S
C1469 C1474 1.350 . S
C1469 N1477 1.427 . S
C1470 H1461 0.930 . S
C1470 C1468 1.378 . S
C1470 C1471 1.367 . S
C1471 C1470 1.367 . S
C1471 C1473 1.433 . S
C1472 C1468 1.350 . S
C1472 C1469 1.463 . S
C1472 N1476 1.427 . S
C1473 H1463 0.929 . S
C1473 C1471 1.433 . S
C1473 N1476 1.384 . S
C1474 H1465 0.929 . S
C1474 C1466 1.378 . S
C1474 C1469 1.350 . S
C1475 H1462 0.929 . S
C1475 C1467 1.433 . S
C1475 N1477 1.384 . S
N1476 C1472 1.427 . S
N1476 C1473 1.384 . S
N1477 C1469 1.427 . S
N1477 C1475 1.384 . S
H1478 C1484 0.930 . S
H1479 C1488 0.930 . S
H1480 C1493 0.929 . S
H1481 C1491 0.929 . S
H1482 C1486 0.929 . S
H1483 C1492 0.929 . S
C1484 H1478 0.930 . S
C1484 C1485 1.367 . S
C1484 C1492 1.378 . S
C1485 C1484 1.367 . S
C1485 C1493 1.433 . S
C1486 H1482 0.929 . S
C1486 C1488 1.378 . S
C1486 C1490 1.350 . S
C1487 C1490 1.463 . S
C1487 C1492 1.350 . S
C1487 N1495 1.427 . S
C1488 H1479 0.930 . S
C1488 C1486 1.378 . S
C1488 C1489 1.367 . S
C1489 C1488 1.367 . S
C1489 C1491 1.433 . S
C1490 C1486 1.350 . S
C1490 C1487 1.463 . S
C1490 N1494 1.427 . S
C1491 H1481 0.929 . S
C1491 C1489 1.433 . S
C1491 N1494 1.384 . S
C1492 H1483 0.929 . S
C1492 C1484 1.378 . S
C1492 C1487 1.350 . S
C1493 H1480 0.929 . S
C1493 C1485 1.433 . S
C1493 N1495 1.384 . S
N1494 C1490 1.427 . S
N1494 C1491 1.384 . S
N1495 C1487 1.427 . S
N1495 C1493 1.384 . S
H1496 C1502 0.930 . S
H1497 C1506 0.930 . S
H1498 C1511 0.929 . S
H1499 C1509 0.929 . S
H1500 C1504 0.929 . S
H1501 C1510 0.929 . S
C1502 H1496 0.930 . S
C1502 C1503 1.367 . S
C1502 C1510 1.378 . S
C1503 C1502 1.367 . S
C1503 C1511 1.433 . S
C1504 H1500 0.929 . S
C1504 C1506 1.378 . S
C1504 C1508 1.350 . S
C1505 C1508 1.463 . S
C1505 C1510 1.350 . S
C1505 N1513 1.427 . S
C1506 H1497 0.930 . S
C1506 C1504 1.378 . S
C1506 C1507 1.367 . S
C1507 C1506 1.367 . S
C1507 C1509 1.433 . S
C1508 C1504 1.350 . S
C1508 C1505 1.463 . S
C1508 N1512 1.427 . S
C1509 H1499 0.929 . S
C1509 C1507 1.433 . S
C1509 N1512 1.384 . S
C1510 H1501 0.929 . S
C1510 C1502 1.378 . S
C1510 C1505 1.350 . S
C1511 H1498 0.929 . S
C1511 C1503 1.433 . S
C1511 N1513 1.384 . S
N1512 C1508 1.427 . S
N1512 C1509 1.384 . S
N1513 C1505 1.427 . S
N1513 C1511 1.384 . S
H1514 C1520 0.930 . S
H1515 C1524 0.930 . S
H1516 C1529 0.929 . S
H1517 C1527 0.929 . S
H1518 C1522 0.929 . S
H1519 C1528 0.929 . S
C1520 H1514 0.930 . S
C1520 C1521 1.367 . S
C1520 C1528 1.378 . S
C1521 C1520 1.367 . S
C1521 C1529 1.433 . S
C1522 H1518 0.929 . S
C1522 C1524 1.378 . S
C1522 C1526 1.350 . S
C1523 C1526 1.463 . S
C1523 C1528 1.350 . S
C1523 N1531 1.427 . S
C1524 H1515 0.930 . S
C1524 C1522 1.378 . S
C1524 C1525 1.367 . S
C1525 C1524 1.367 . S
C1525 C1527 1.433 . S
C1526 C1522 1.350 . S
C1526 C1523 1.463 . S
C1526 N1530 1.427 . S
C1527 H1517 0.929 . S
C1527 C1525 1.433 . S
C1527 N1530 1.384 . S
C1528 H1519 0.929 . S
C1528 C1520 1.378 . S
C1528 C1523 1.350 . S
C1529 H1516 0.929 . S
C1529 C1521 1.433 . S
C1529 N1531 1.384 . S
N1530 C1526 1.427 . S
N1530 C1527 1.384 . S
N1531 C1523 1.427 . S
N1531 C1529 1.384 . S
H1532 C1538 0.930 . S
H1533 C1542 0.930 . S
H1534 C1547 0.929 . S
H1535 C1545 0.929 . S
H1536 C1540 0.929 . S
H1537 C1546 0.929 . S
C1538 H1532 0.930 . S
C1538 C1539 1.367 . S
C1538 C1546 1.378 . S
C1539 C1538 1.367 . S
C1539 C1547 1.433 . S
C1540 H1536 0.929 . S
C1540 C1542 1.378 . S
C1540 C1544 1.350 . S
C1541 C1544 1.463 . S
C1541 C1546 1.350 . S
C1541 N1549 1.427 . S
C1542 H1533 0.930 . S
C1542 C1540 1.378 . S
C1542 C1543 1.367 . S
C1543 C1542 1.367 . S
C1543 C1545 1.433 . S
C1544 C1540 1.350 . S
C1544 C1541 1.463 . S
C1544 N1548 1.427 . S
C1545 H1535 0.929 . S
C1545 C1543 1.433 . S
C1545 N1548 1.384 . S
C1546 H1537 0.929 . S
C1546 C1538 1.378 . S
C1546 C1541 1.350 . S
C1547 H1534 0.929 . S
C1547 C1539 1.433 . S
C1547 N1549 1.384 . S
N1548 C1544 1.427 . S
N1548 C1545 1.384 . S
N1549 C1541 1.427 . S
N1549 C1547 1.384 . S
H1550 C1556 0.930 . S
H1551 C1560 0.930 . S
H1552 C1565 0.929 . S
H1553 C1563 0.929 . S
H1554 C1558 0.929 . S
H1555 C1564 0.929 . S
C1556 H1550 0.930 . S
C1556 C1557 1.367 . S
C1556 C1564 1.378 . S
C1557 C1556 1.367 . S
C1557 C1565 1.433 . S
C1558 H1554 0.929 . S
C1558 C1560 1.378 . S
C1558 C1562 1.350 . S
C1559 C1562 1.463 . S
C1559 C1564 1.350 . S
C1559 N1567 1.427 . S
C1560 H1551 0.930 . S
C1560 C1558 1.378 . S
C1560 C1561 1.367 . S
C1561 C1560 1.367 . S
C1561 C1563 1.433 . S
C1562 C1558 1.350 . S
C1562 C1559 1.463 . S
C1562 N1566 1.427 . S
C1563 H1553 0.929 . S
C1563 C1561 1.433 . S
C1563 N1566 1.384 . S
C1564 H1555 0.929 . S
C1564 C1556 1.378 . S
C1564 C1559 1.350 . S
C1565 H1552 0.929 . S
C1565 C1557 1.433 . S
C1565 N1567 1.384 . S
N1566 C1562 1.427 . S
N1566 C1563 1.384 . S
N1567 C1559 1.427 . S
N1567 C1565 1.384 . S
C423 C91 1.487 . S
C427 C0 1.482 . S
C441 C13 1.584 . S
C445 C52 1.602 . S
C459 C65 1.316 . S
C463 C26 1.302 . S
C477 C78 1.354 . S
C481 C39 1.429 . S
C495 C104 1.479 . S
C499 C286 1.489 . S
C513 C117 1.577 . S
C517 C247 1.598 . S
C531 C377 1.319 . S
C535 C130 1.306 . S
C549 C351 1.349 . S
C553 C143 1.431 . S
C567 C156 1.601 . S
C571 C403 1.578 . S
C585 C169 1.318 . S
C589 C338 1.300 . S
C603 C182 1.334 . S
C607 C273 1.421 . S
C621 C195 1.481 . S
C625 C208 1.483 . S
C639 C221 1.490 . S
C643 C325 1.478 . S
C657 C234 1.299 . S
C661 C260 1.319 . S
C675 C390 1.415 . S
C679 C299 1.334 . S
C693 C364 1.601 . S
C697 C312 1.587 . S
C711 C140 0.583 . S
C715 C10 0.631 . S
C729 C148 0.744 . S
C733 C18 0.744 . S
C747 C114 0.650 . S
C751 C36 0.601 . S
C765 C122 0.728 . S
C769 C44 0.764 . S
C783 C190 0.676 . S
C787 C62 0.720 . S
C801 C75 0.659 . S
C805 C205 0.679 . S
C819 C86 0.677 . S
C823 C166 0.719 . S
C837 C101 0.672 . S
C841 C179 0.662 . S
C855 C164 0.694 . S
C859 C112 0.659 . S
C873 C127 0.787 . S
C877 C177 0.886 . S
C891 C187 0.766 . S
C895 C138 0.619 . S
C909 C153 0.720 . S
C913 C203 0.686 . S
C927 C309 0.795 . S
C931 C213 0.784 . S
C945 C31 0.753 . S
C949 C161 0.838 . S
C963 C47 0.545 . S
C967 C174 0.666 . S
C981 C5 0.752 . S
C985 C192 0.812 . S
C999 C226 0.714 . S
C1003 C411 0.644 . S
C1017 C252 0.833 . S
C1021 C239 0.768 . S
C1035 C21 0.660 . S
C1039 C200 0.679 . S
C1053 C307 0.692 . S
C1057 C257 0.700 . S
C1071 C270 0.614 . S
C1075 C296 0.693 . S
C1089 C218 0.610 . S
C1093 C244 0.620 . S
C1107 C278 0.719 . S
C1111 C317 0.759 . S
C1125 C320 0.625 . S
C1129 C291 0.717 . S
C1143 C135 0.781 . S
C1147 C57 0.829 . S
C1161 C268 0.880 . S
C1165 C322 0.762 . S
C1179 C99 0.687 . S
C1183 C49 0.751 . S
C1197 C372 0.731 . S
C1201 C333 0.667 . S
C1215 C73 0.887 . S
C1219 C23 0.766 . S
C1233 C216 0.645 . S
C1237 C255 0.702 . S
C1251 C335 0.609 . S
C1255 C348 0.612 . S
C1269 C359 0.693 . S
C1273 C374 0.699 . S
C1287 C304 0.721 . S
C1291 C242 0.636 . S
C1305 C343 0.758 . S
C1309 C369 0.836 . S
C1323 C151 0.530 . S
C1327 C70 0.672 . S
C1341 C96 0.712 . S
C1345 C125 0.626 . S
C1359 C231 0.704 . S
C1363 C387 0.632 . S
C1377 C395 0.720 . S
C1381 C408 0.758 . S
C1395 C413 0.761 . S
C1399 C385 0.881 . S
C1413 C60 0.746 . S
C1417 C8 0.636 . S
C1431 C34 0.632 . S
C1435 C83 0.749 . S
C1449 C400 0.727 . S
C1453 C229 0.713 . S
C1467 C330 0.750 . S
C1471 C361 0.807 . S
C1485 C265 0.699 . S
C1489 C281 0.528 . S
C1503 C88 0.803 . S
C1507 C109 0.790 . S
C1521 C294 0.713 . S
C1525 C283 0.704 . S
C1539 C346 0.601 . S
C1543 C356 0.751 . S
C1557 C398 0.514 . S
C1561 C382 0.714 . S
