# Generated by pormake.
# Topology xfx, (5)-cn, num edge types: 1
# Building blocks:
#     Node 0, Type 0, BuildingBlock: BEQFEK_clean_sbu_0, # of connection points: 5
#     Node 1, Type 0, BuildingBlock: BEQFEK_clean_sbu_0, # of connection points: 5
#     Node 2, Type 0, BuildingBlock: BEQFEK_clean_sbu_0, # of connection points: 5
#     Node 3, Type 0, BuildingBlock: BEQFEK_clean_sbu_0, # of connection points: 5
#     Node 4, Type 0, BuildingBlock: BEQFEK_clean_sbu_0, # of connection points: 5
#     Node 5, Type 0, BuildingBlock: BEQFEK_clean_sbu_0, # of connection points: 5
#     Node 6, Type 0, BuildingBlock: BEQFEK_clean_sbu_0, # of connection points: 5
#     Node 7, Type 0, BuildingBlock: BEQFEK_clean_sbu_0, # of connection points: 5
#     Edge 8, Type (0, 0), BuildingBlock: TEMPAE_clean_linker_10, # of connection points: 2
#     Edge 9, Type (0, 0), BuildingBlock: TEMPAE_clean_linker_10, # of connection points: 2
#     Edge 10, Type (0, 0), BuildingBlock: TEMPAE_clean_linker_10, # of connection points: 2
#     Edge 11, Type (0, 0), BuildingBlock: TEMPAE_clean_linker_10, # of connection points: 2
#     Edge 12, Type (0, 0), BuildingBlock: TEMPAE_clean_linker_10, # of connection points: 2
#     Edge 13, Type (0, 0), BuildingBlock: TEMPAE_clean_linker_10, # of connection points: 2
#     Edge 14, Type (0, 0), BuildingBlock: TEMPAE_clean_linker_10, # of connection points: 2
#     Edge 15, Type (0, 0), BuildingBlock: TEMPAE_clean_linker_10, # of connection points: 2
#     Edge 16, Type (0, 0), BuildingBlock: TEMPAE_clean_linker_10, # of connection points: 2
#     Edge 17, Type (0, 0), BuildingBlock: TEMPAE_clean_linker_10, # of connection points: 2
#     Edge 18, Type (0, 0), BuildingBlock: TEMPAE_clean_linker_10, # of connection points: 2
#     Edge 19, Type (0, 0), BuildingBlock: TEMPAE_clean_linker_10, # of connection points: 2
#     Edge 20, Type (0, 0), BuildingBlock: TEMPAE_clean_linker_10, # of connection points: 2
#     Edge 21, Type (0, 0), BuildingBlock: TEMPAE_clean_linker_10, # of connection points: 2
#     Edge 22, Type (0, 0), BuildingBlock: TEMPAE_clean_linker_10, # of connection points: 2
#     Edge 23, Type (0, 0), BuildingBlock: TEMPAE_clean_linker_10, # of connection points: 2
#     Edge 24, Type (0, 0), BuildingBlock: TEMPAE_clean_linker_10, # of connection points: 2
#     Edge 25, Type (0, 0), BuildingBlock: TEMPAE_clean_linker_10, # of connection points: 2
#     Edge 26, Type (0, 0), BuildingBlock: TEMPAE_clean_linker_10, # of connection points: 2
#     Edge 27, Type (0, 0), BuildingBlock: TEMPAE_clean_linker_10, # of connection points: 2
# Relax obj value: 0.374
# Max RMSD: 0.212
# Mean RMSD: 0.212
data_MOF--net-xfx--node1-BEQFEK_clean_sbu_0--edge1-TEMPAE_clean_linker_10
_symmetry_space_group_name_H-M    P1
_symmetry_Int_Tables_number       1
_symmetry_cell_setting            triclinic
loop_
_symmetry_equiv_pos_as_xyz
'x, y, z'
_cell_length_a     39.716117
_cell_length_b     39.70929
_cell_length_c     33.171174
_cell_angle_alpha  90.011269
_cell_angle_beta   90.089207
_cell_angle_gamma 77.506032
loop_
_atom_site_label
_atom_site_type_symbol
_atom_site_fract_x
_atom_site_fract_y
_atom_site_fract_z
_atom_type_partial_charge
Co0 Co 0.35183 0.0454 0.41947 0.0
Co1 Co 0.3415 0.97956 0.46509 0.0
C2 C 0.36157 0.97685 0.37798 0.0
O3 O 0.36115 0.00892 0.37806 0.0
O4 O 0.35431 0.96193 0.40971 0.0
C5 C 0.33505 0.09452 0.35783 0.0
O6 O 0.31398 0.07459 0.34762 0.0
C7 C 0.3056 0.92399 0.47709 0.0
C8 C 0.31716 0.90822 0.54035 0.0
C9 C 0.29876 0.90171 0.50672 0.0
N10 N 0.32649 0.94314 0.49268 0.0
N11 N 0.33355 0.93347 0.53044 0.0
C12 C 0.29456 0.92598 0.43376 0.0
H13 H 0.28456 0.95332 0.42513 0.0
H14 H 0.2751 0.91058 0.42716 0.0
H15 H 0.3174 0.91576 0.41473 0.0
C16 C 0.28191 0.07368 0.45074 0.0
N17 N 0.30947 0.04757 0.4456 0.0
N18 N 0.30439 0.01996 0.46455 0.0
C19 C 0.27278 0.02767 0.48178 0.0
C20 C 0.25761 0.0619 0.47351 0.0
C21 C 0.27897 0.10926 0.434 0.0
H22 H 0.30401 0.1171 0.43686 0.0
H23 H 0.27195 0.10923 0.40167 0.0
H24 H 0.25877 0.12862 0.44923 0.0
O25 O 0.38951 0.03746 0.45907 0.0
O26 O 0.3846 0.98934 0.49093 0.0
H27 H 0.27769 0.9912 0.53013 0.0
H28 H 0.23467 0.0173 0.52385 0.0
C29 C 0.25814 0.0036 0.50777 0.0
H30 H 0.25129 0.98317 0.48867 0.0
H31 H 0.34912 0.94442 0.54957 0.0
O32 O 0.35304 0.08782 0.38967 0.0
C33 C 0.39998 0.01409 0.48521 0.0
Co34 Co 0.99066 0.6856 0.57867 0.0
Co35 Co 0.05752 0.69752 0.53653 0.0
C36 C 0.05984 0.67347 0.62127 0.0
O37 O 0.02788 0.67363 0.61916 0.0
O38 O 0.07563 0.68267 0.59128 0.0
C39 C 0.94696 0.70214 0.64339 0.0
O40 O 0.97159 0.71802 0.65315 0.0
C41 C 0.1195 0.72496 0.52207 0.0
C42 C 0.1152 0.73723 0.45712 0.0
C43 C 0.13406 0.74092 0.49142 0.0
N44 N 0.09265 0.71339 0.50688 0.0
N45 N 0.09066 0.72024 0.46785 0.0
C46 C 0.1311 0.72016 0.56504 0.0
H47 H 0.13409 0.69265 0.57332 0.0
H48 H 0.11124 0.73577 0.58494 0.0
H49 H 0.15627 0.7273 0.57 0.0
C50 C 0.96322 0.75583 0.55165 0.0
N51 N 0.98938 0.72825 0.55483 0.0
N52 N 0.01774 0.73543 0.54037 0.0
C53 C 0.01083 0.76921 0.52981 0.0
C54 C 0.97584 0.78337 0.53658 0.0
C55 C 0.92632 0.75422 0.55872 0.0
H56 H 0.92259 0.72778 0.55283 0.0
H57 H 0.91944 0.76087 0.59058 0.0
H58 H 0.90873 0.77246 0.53876 0.0
O59 O 0.99738 0.64961 0.53826 0.0
O60 O 0.04632 0.65494 0.50889 0.0
H61 H 0.04232 0.78394 0.48376 0.0
H62 H 0.02944 0.81612 0.52249 0.0
C63 C 0.03767 0.78806 0.51654 0.0
H64 H 0.06212 0.77804 0.53287 0.0
H65 H 0.07145 0.7149 0.44894 0.0
O66 O 0.94836 0.68658 0.60977 0.0
C67 C 0.02138 0.63937 0.51287 0.0
Co68 Co 0.68411 0.99456 0.41886 0.0
Co69 Co 0.70067 0.06211 0.45389 0.0
C70 C 0.67771 0.05997 0.36919 0.0
O71 O 0.67599 0.02859 0.37403 0.0
O72 O 0.68745 0.077 0.39781 0.0
C73 C 0.70173 0.93932 0.36473 0.0
O74 O 0.72626 0.95551 0.35551 0.0
C75 C 0.73235 0.12211 0.46402 0.0
C76 C 0.73742 0.12444 0.53025 0.0
C77 C 0.74503 0.13961 0.49477 0.0
N78 N 0.71785 0.09774 0.48061 0.0
N79 N 0.72062 0.09958 0.52022 0.0
C80 C 0.73771 0.12544 0.41965 0.0
H81 H 0.7432 0.09959 0.40532 0.0
H82 H 0.75931 0.13828 0.41329 0.0
H83 H 0.71376 0.1409 0.40607 0.0
C84 C 0.75298 0.96459 0.45069 0.0
N85 N 0.72694 0.99176 0.44381 0.0
N86 N 0.73609 0.0203 0.45463 0.0
C87 C 0.76959 0.01226 0.46617 0.0
C88 C 0.78157 0.97647 0.46404 0.0
C89 C 0.74882 0.92796 0.44943 0.0
H90 H 0.72144 0.92692 0.45433 0.0
H91 H 0.75692 0.91652 0.41957 0.0
H92 H 0.76493 0.91225 0.47293 0.0
O93 O 0.64697 0.00719 0.45755 0.0
O94 O 0.65638 0.05664 0.48182 0.0
H95 H 0.78593 0.04632 0.50815 0.0
H96 H 0.81814 0.02831 0.47104 0.0
C97 C 0.79021 0.03856 0.47611 0.0
H98 H 0.78179 0.06167 0.457 0.0
H99 H 0.7122 0.08296 0.54035 0.0
O100 O 0.68114 0.95075 0.39327 0.0
C101 C 0.63862 0.03333 0.48034 0.0
Co102 Co 0.04466 0.34007 0.58991 0.0
Co103 Co 0.98187 0.3391 0.53311 0.0
C104 C 0.9728 0.35564 0.62168 0.0
O105 O 0.00518 0.35103 0.62602 0.0
O106 O 0.95967 0.35218 0.58725 0.0
C107 C 0.08367 0.32161 0.65976 0.0
O108 O 0.05664 0.30909 0.66899 0.0
C109 C 0.92285 0.31108 0.51163 0.0
C110 C 0.91639 0.32079 0.44626 0.0
C111 C 0.90328 0.30566 0.47864 0.0
N112 N 0.94627 0.32878 0.49954 0.0
N113 N 0.94209 0.33488 0.46047 0.0
C114 C 0.92216 0.2962 0.55302 0.0
H115 H 0.94825 0.29144 0.56678 0.0
H116 H 0.91301 0.27171 0.55215 0.0
H117 H 0.90431 0.3149 0.57219 0.0
C118 C 0.06798 0.26975 0.55909 0.0
N119 N 0.04466 0.29978 0.56084 0.0
N120 N 0.01886 0.29876 0.53626 0.0
C121 C 0.02542 0.26771 0.51758 0.0
C122 C 0.05645 0.24828 0.53204 0.0
C123 C 0.10183 0.26264 0.5809 0.0
H124 H 0.11396 0.28521 0.57826 0.0
H125 H 0.09729 0.25837 0.61329 0.0
H126 H 0.1198 0.23949 0.56883 0.0
O127 O 0.04235 0.3802 0.55442 0.0
O128 O 0.99873 0.38039 0.51209 0.0
H129 H 0.99639 0.27749 0.46283 0.0
H130 H 0.01586 0.23243 0.4714 0.0
C131 C 0.00297 0.25699 0.48599 0.0
H132 H 0.97871 0.2534 0.50007 0.0
H133 H 0.9575 0.3476 0.44329 0.0
O134 O 0.08536 0.33498 0.62524 0.0
C135 C 0.02316 0.39376 0.52531 0.0
Co136 Co 0.84915 0.54219 0.9089 0.0
Co137 Co 0.83621 0.47624 0.95207 0.0
C138 C 0.85494 0.47383 0.86558 0.0
O139 O 0.85663 0.50537 0.86752 0.0
O140 O 0.8469 0.45828 0.89644 0.0
C141 C 0.83056 0.58722 0.84543 0.0
O142 O 0.81306 0.56365 0.83665 0.0
C143 C 0.80592 0.4168 0.96903 0.0
C144 C 0.80429 0.4161 0.03555 0.0
C145 C 0.79453 0.40037 0.00151 0.0
N146 N 0.82109 0.44161 0.9831 0.0
N147 N 0.82045 0.44076 0.02293 0.0
C148 C 0.80309 0.40883 0.92518 0.0
H149 H 0.78936 0.43227 0.909 0.0
H150 H 0.78987 0.38735 0.91996 0.0
H151 H 0.82942 0.40116 0.9125 0.0
C152 C 0.78122 0.57212 0.94158 0.0
N153 N 0.8077 0.54512 0.93646 0.0
N154 N 0.79984 0.51711 0.95107 0.0
C155 C 0.76666 0.52511 0.96369 0.0
C156 C 0.7536 0.56048 0.95813 0.0
C157 C 0.78414 0.60867 0.93451 0.0
H158 H 0.81123 0.61109 0.9387 0.0
H159 H 0.77626 0.61627 0.90314 0.0
H160 H 0.76751 0.62656 0.95566 0.0
O161 O 0.88807 0.53315 0.94582 0.0
O162 O 0.88073 0.48527 0.97641 0.0
H163 H 0.75315 0.49277 0.00971 0.0
H164 H 0.71902 0.50826 0.97368 0.0
C165 C 0.74724 0.49887 0.97748 0.0
H166 H 0.7553 0.47491 0.95974 0.0
H167 H 0.82995 0.45782 0.04148 0.0
O168 O 0.84804 0.58454 0.87782 0.0
C169 C 0.89772 0.50887 0.971 0.0
Co170 Co 0.48803 0.18255 0.07653 0.0
Co171 Co 0.55428 0.19552 0.03473 0.0
C172 C 0.55692 0.17016 0.11931 0.0
O173 O 0.52476 0.17085 0.11816 0.0
O174 O 0.57228 0.17906 0.08878 0.0
C175 C 0.43652 0.20032 0.13568 0.0
O176 O 0.45417 0.22377 0.1446 0.0
C177 C 0.61498 0.22503 0.02263 0.0
C178 C 0.61625 0.23071 0.95646 0.0
C179 C 0.63202 0.23795 0.99174 0.0
N180 N 0.58979 0.2115 0.00646 0.0
N181 N 0.59101 0.21452 0.96684 0.0
C182 C 0.62261 0.22495 0.06687 0.0
H183 H 0.6291 0.19791 0.07762 0.0
H184 H 0.59935 0.23856 0.08339 0.0
H185 H 0.64476 0.23678 0.07391 0.0
C186 C 0.45978 0.2532 0.04914 0.0
N187 N 0.48613 0.22587 0.05342 0.0
N188 N 0.51457 0.23329 0.03943 0.0
C189 C 0.5076 0.26696 0.02857 0.0
C190 C 0.47242 0.28085 0.03428 0.0
C191 C 0.42275 0.25098 0.05356 0.0
H192 H 0.41995 0.22406 0.04889 0.0
H193 H 0.41358 0.25922 0.0843 0.0
H194 H 0.40625 0.2679 0.03135 0.0
O195 O 0.49513 0.14767 0.0347 0.0
O196 O 0.54321 0.1544 0.00454 0.0
H197 H 0.5405 0.28066 0.98332 0.0
H198 H 0.52597 0.31402 0.0205 0.0
C199 C 0.53456 0.28583 0.0157 0.0
H200 H 0.55841 0.27665 0.03337 0.0
H201 H 0.5738 0.20666 0.94698 0.0
O202 O 0.44548 0.18073 0.10555 0.0
C203 C 0.51833 0.13881 0.00809 0.0
Co204 Co 0.18269 0.49105 0.91822 0.0
Co205 Co 0.19613 0.55838 0.95751 0.0
C206 C 0.17237 0.55929 0.87313 0.0
O207 O 0.17123 0.52765 0.87643 0.0
O208 O 0.18236 0.57536 0.90241 0.0
C209 C 0.19792 0.44539 0.85464 0.0
O210 O 0.21355 0.46965 0.84289 0.0
C211 C 0.22632 0.61862 0.97075 0.0
C212 C 0.22909 0.62102 0.03715 0.0
C213 C 0.23811 0.63602 0.00223 0.0
N214 N 0.21168 0.59398 0.98631 0.0
N215 N 0.21301 0.59585 0.02605 0.0
C216 C 0.22821 0.6255 0.9265 0.0
H217 H 0.24208 0.60182 0.91093 0.0
H218 H 0.24085 0.6472 0.92001 0.0
H219 H 0.20167 0.63227 0.91415 0.0
C220 C 0.25274 0.46312 0.94606 0.0
N221 N 0.22559 0.4896 0.94185 0.0
N222 N 0.23331 0.51805 0.95538 0.0
C223 C 0.26696 0.51082 0.96642 0.0
C224 C 0.28054 0.47553 0.96086 0.0
C225 C 0.2504 0.42624 0.94021 0.0
H226 H 0.22379 0.42319 0.94646 0.0
H227 H 0.2568 0.41852 0.90852 0.0
H228 H 0.26841 0.40883 0.96058 0.0
O229 O 0.1469 0.49871 0.95913 0.0
O230 O 0.153 0.54892 0.9848 0.0
H231 H 0.28048 0.54422 0.01129 0.0
H232 H 0.31435 0.5285 0.97513 0.0
C233 C 0.28614 0.53759 0.97916 0.0
H234 H 0.27757 0.5612 0.96089 0.0
H235 H 0.20399 0.57919 0.04557 0.0
O236 O 0.18301 0.44802 0.88869 0.0
C237 C 0.13726 0.524 0.98296 0.0
Co238 Co 0.54546 0.85016 0.08977 0.0
Co239 Co 0.47955 0.83826 0.04558 0.0
C240 C 0.47796 0.85658 0.13312 0.0
O241 O 0.51008 0.85604 0.13247 0.0
O242 O 0.46224 0.85052 0.10134 0.0
C243 C 0.5986 0.83077 0.14709 0.0
O244 O 0.5817 0.80656 0.15521 0.0
C245 C 0.41928 0.80848 0.03004 0.0
C246 C 0.41838 0.80592 0.96355 0.0
C247 C 0.40254 0.79687 0.99784 0.0
N248 N 0.44436 0.82303 0.0155 0.0
N249 N 0.44338 0.82183 0.9757 0.0
C250 C 0.41134 0.80657 0.07398 0.0
H251 H 0.40516 0.83306 0.08645 0.0
H252 H 0.43438 0.79187 0.0901 0.0
H253 H 0.38893 0.79476 0.07955 0.0
C254 C 0.57533 0.78255 0.05493 0.0
N255 N 0.5485 0.80907 0.06105 0.0
N256 N 0.52022 0.80154 0.04668 0.0
C257 C 0.52781 0.76847 0.03361 0.0
C258 C 0.56323 0.75518 0.0383 0.0
C259 C 0.61211 0.78538 0.06028 0.0
H260 H 0.6143 0.81264 0.05732 0.0
H261 H 0.62131 0.77608 0.0907 0.0
H262 H 0.62895 0.76966 0.03743 0.0
O263 O 0.5343 0.88977 0.05445 0.0
O264 O 0.48866 0.88206 0.01957 0.0
H265 H 0.49492 0.75498 0.9881 0.0
H266 H 0.51025 0.7211 0.02443 0.0
C267 C 0.50116 0.74932 0.02034 0.0
H268 H 0.47737 0.75779 0.03826 0.0
H269 H 0.46055 0.8308 0.95686 0.0
O270 O 0.58849 0.85142 0.11814 0.0
C271 C 0.51129 0.89959 0.02781 0.0
C272 C 0.5764 0.05575 0.47271 0.0
C273 C 0.60368 0.03949 0.49738 0.0
C274 C 0.54259 0.05215 0.47997 0.0
C275 C 0.53575 0.03251 0.51349 0.0
C276 C 0.56282 0.01873 0.54068 0.0
C277 C 0.59675 0.02164 0.53172 0.0
C278 C 0.51488 0.0667 0.44956 0.0
C279 C 0.55645 0.99899 0.5777 0.0
C280 C 0.43923 0.04223 0.52532 0.0
C281 C 0.43382 0.01352 0.50375 0.0
C282 C 0.47279 0.04686 0.53288 0.0
C283 C 0.50137 0.02316 0.51657 0.0
C284 C 0.49598 0.99294 0.49707 0.0
C285 C 0.46221 0.98824 0.4915 0.0
C286 C 0.47743 0.07847 0.55558 0.0
C287 C 0.52548 0.96731 0.47835 0.0
H288 H 0.58203 0.06879 0.44561 0.0
H289 H 0.61801 0.00847 0.55035 0.0
H290 H 0.5058 0.04528 0.43458 0.0
H291 H 0.49235 0.0831 0.46477 0.0
H292 H 0.52418 0.08236 0.426 0.0
H293 H 0.57739 0.99761 0.6003 0.0
H294 H 0.53146 0.01104 0.5919 0.0
H295 H 0.55535 0.97226 0.56909 0.0
H296 H 0.41718 0.06194 0.53448 0.0
H297 H 0.45792 0.96641 0.47412 0.0
H298 H 0.48169 0.09838 0.5339 0.0
H299 H 0.50031 0.07223 0.57568 0.0
H300 H 0.45434 0.08964 0.57394 0.0
H301 H 0.53616 0.97968 0.45277 0.0
H302 H 0.51734 0.94399 0.46695 0.0
H303 H 0.54657 0.95915 0.50052 0.0
C304 C 0.05318 0.58366 0.4817 0.0
C305 C 0.02203 0.60561 0.4931 0.0
C306 C 0.05503 0.54818 0.47536 0.0
C307 C 0.02525 0.53446 0.48133 0.0
C308 C 0.99309 0.5573 0.48806 0.0
C309 C 0.99185 0.59256 0.49332 0.0
C310 C 0.08955 0.52496 0.46635 0.0
C311 C 0.9606 0.54417 0.49508 0.0
C312 C 0.01934 0.43991 0.47184 0.0
C313 C 0.02648 0.42845 0.51157 0.0
C314 C 0.0211 0.47378 0.46052 0.0
C315 C 0.02862 0.49696 0.49006 0.0
C316 C 0.0362 0.48516 0.53003 0.0
C317 C 0.03563 0.45105 0.54 0.0
C318 C 0.01448 0.48491 0.41723 0.0
C319 C 0.04333 0.50901 0.56301 0.0
H320 H 0.0766 0.59348 0.48098 0.0
H321 H 0.96748 0.60947 0.50121 0.0
H322 H 0.10139 0.51335 0.49483 0.0
H323 H 0.08667 0.50361 0.44594 0.0
H324 H 0.10746 0.53952 0.45238 0.0
H325 H 0.93712 0.56525 0.49376 0.0
H326 H 0.95799 0.52427 0.47259 0.0
H327 H 0.96188 0.53203 0.52535 0.0
H328 H 0.01254 0.42242 0.4497 0.0
H329 H 0.04085 0.4425 0.57087 0.0
H330 H 0.03521 0.49739 0.40631 0.0
H331 H 0.98985 0.50427 0.41486 0.0
H332 H 0.01307 0.46287 0.39714 0.0
H333 H 0.06588 0.5199 0.55494 0.0
H334 H 0.04858 0.49575 0.59257 0.0
H335 H 0.02085 0.53092 0.56652 0.0
C336 C 0.96037 0.49249 0.96129 0.0
C337 C 0.93282 0.50503 0.98724 0.0
C338 C 0.99382 0.49618 0.97048 0.0
C339 C 0.99999 0.51258 0.00689 0.0
C340 C 0.97252 0.52338 0.0345 0.0
C341 C 0.93898 0.51995 0.02403 0.0
C342 C 0.02209 0.48443 0.93987 0.0
C343 C 0.97811 0.54012 0.07404 0.0
C344 C 0.09631 0.49737 0.02183 0.0
C345 C 0.10356 0.52647 0.0027 0.0
C346 C 0.06212 0.49438 0.0283 0.0
C347 C 0.03468 0.52043 0.01367 0.0
C348 C 0.04193 0.55128 0.99781 0.0
C349 C 0.07638 0.55411 0.99304 0.0
C350 C 0.05557 0.46179 0.04703 0.0
C351 C 0.0136 0.57959 0.98136 0.0
H352 H 0.9553 0.48155 0.93251 0.0
H353 H 0.91744 0.53025 0.0437 0.0
H354 H 0.03193 0.50692 0.92901 0.0
H355 H 0.04402 0.46613 0.95393 0.0
H356 H 0.01308 0.4716 0.91343 0.0
H357 H 0.95668 0.53994 0.09548 0.0
H358 H 0.00275 0.52687 0.08821 0.0
H359 H 0.97958 0.56732 0.06863 0.0
H360 H 0.11737 0.47592 0.02922 0.0
H361 H 0.08197 0.57639 0.9777 0.0
H362 H 0.05037 0.44421 0.02292 0.0
H363 H 0.03264 0.46756 0.06699 0.0
H364 H 0.07816 0.44807 0.06477 0.0
H365 H 0.00367 0.57073 0.95284 0.0
H366 H 0.02282 0.60355 0.97505 0.0
H367 H 0.99173 0.5857 0.00278 0.0
C368 C 0.50925 0.96102 0.03998 0.0
C369 C 0.50839 0.93483 0.01202 0.0
C370 C 0.51068 0.99429 0.0276 0.0
C371 C 0.51177 0.00172 0.98591 0.0
C372 C 0.51009 0.97555 0.95725 0.0
C373 C 0.50823 0.94223 0.97072 0.0
C374 C 0.51161 0.02134 0.05948 0.0
C375 C 0.51161 0.98226 0.91263 0.0
C376 C 0.48608 0.09784 0.97845 0.0
C377 C 0.51792 0.10663 0.98578 0.0
C378 C 0.48392 0.06344 0.97228 0.0
C379 C 0.51435 0.03725 0.97376 0.0
C380 C 0.54684 0.04663 0.97495 0.0
C381 C 0.54829 0.08139 0.98102 0.0
C382 C 0.44874 0.05488 0.97016 0.0
C383 C 0.57996 0.01958 0.97528 0.0
H384 H 0.50924 0.95524 0.07195 0.0
H385 H 0.50803 0.92178 0.94912 0.0
H386 H 0.536 0.03054 0.05714 0.0
H387 H 0.48999 0.04391 0.05484 0.0
H388 H 0.50971 0.01143 0.09052 0.0
H389 H 0.5033 0.96193 0.89456 0.0
H390 H 0.49528 0.00771 0.90453 0.0
H391 H 0.53853 0.98271 0.90421 0.0
H392 H 0.46251 0.11745 0.98139 0.0
H393 H 0.57299 0.08805 0.98639 0.0
H394 H 0.44164 0.04689 0.00049 0.0
H395 H 0.44872 0.03317 0.94913 0.0
H396 H 0.42869 0.07748 0.96039 0.0
H397 H 0.58429 0.00823 0.00592 0.0
H398 H 0.60245 0.03071 0.96731 0.0
H399 H 0.57852 0.99843 0.95393 0.0
C400 C 0.08193 0.18685 0.54702 0.0
C401 C 0.07586 0.21404 0.51927 0.0
C402 C 0.10738 0.15696 0.53979 0.0
C403 C 0.12768 0.15481 0.50445 0.0
C404 C 0.11985 0.1813 0.47505 0.0
C405 C 0.09383 0.21064 0.4828 0.0
C406 C 0.11439 0.12907 0.5715 0.0
C407 C 0.14101 0.18017 0.43711 0.0
C408 C 0.22245 0.1118 0.5102 0.0
C409 C 0.22382 0.08227 0.48677 0.0
C410 C 0.19108 0.13502 0.51725 0.0
C411 C 0.16022 0.12808 0.50109 0.0
C412 C 0.16122 0.09694 0.47981 0.0
C413 C 0.1932 0.07437 0.4727 0.0
C414 C 0.19125 0.16788 0.54015 0.0
C415 C 0.12882 0.08826 0.46299 0.0
H416 H 0.06811 0.18985 0.57542 0.0
H417 H 0.08932 0.23203 0.46173 0.0
H418 H 0.11924 0.10313 0.5574 0.0
H419 H 0.13785 0.13102 0.58877 0.0
H420 H 0.0926 0.13138 0.59302 0.0
H421 H 0.12924 0.20064 0.41536 0.0
H422 H 0.1672 0.18373 0.44501 0.0
H423 H 0.14407 0.15473 0.42214 0.0
H424 H 0.24627 0.1175 0.52145 0.0
H425 H 0.19442 0.05134 0.4547 0.0
H426 H 0.17305 0.17061 0.56586 0.0
H427 H 0.18248 0.19045 0.52009 0.0
H428 H 0.21726 0.16873 0.55192 0.0
H429 H 0.10817 0.09243 0.48611 0.0
H430 H 0.13327 0.06115 0.45228 0.0
H431 H 0.11933 0.10559 0.43727 0.0
C432 C 0.28569 0.84406 0.52067 0.0
C433 C 0.2754 0.87736 0.50471 0.0
C434 C 0.26376 0.82066 0.51891 0.0
C435 C 0.23079 0.83093 0.50082 0.0
C436 C 0.22012 0.86478 0.48527 0.0
C437 C 0.24237 0.88772 0.48798 0.0
C438 C 0.27576 0.78503 0.53652 0.0
C439 C 0.18515 0.87682 0.46588 0.0
C440 C 0.18381 0.76282 0.4637 0.0
C441 C 0.15993 0.76268 0.4947 0.0
C442 C 0.20739 0.78458 0.4655 0.0
C443 C 0.20697 0.8067 0.4991 0.0
C444 C 0.18283 0.80668 0.53042 0.0
C445 C 0.15927 0.7851 0.52751 0.0
C446 C 0.23236 0.78432 0.43118 0.0
C447 C 0.18146 0.8299 0.56674 0.0
H448 H 0.31105 0.83624 0.53421 0.0
H449 H 0.23374 0.91399 0.47735 0.0
H450 H 0.25772 0.78069 0.56051 0.0
H451 H 0.27566 0.76527 0.51289 0.0
H452 H 0.30212 0.78105 0.54954 0.0
H453 H 0.18137 0.90348 0.45383 0.0
H454 H 0.18193 0.85926 0.44082 0.0
H455 H 0.16455 0.87605 0.48817 0.0
H456 H 0.18397 0.74596 0.43796 0.0
H457 H 0.13974 0.78645 0.55057 0.0
H458 H 0.25923 0.77836 0.44271 0.0
H459 H 0.22787 0.81027 0.41711 0.0
H460 H 0.22982 0.76516 0.40759 0.0
H461 H 0.20728 0.82597 0.58106 0.0
H462 H 0.16263 0.82517 0.58964 0.0
H463 H 0.17415 0.85729 0.55723 0.0
C464 C 0.82888 0.92522 0.44972 0.0
C465 C 0.81657 0.95497 0.47264 0.0
C466 C 0.85846 0.90096 0.46112 0.0
C467 C 0.87868 0.90825 0.49393 0.0
C468 C 0.86854 0.9403 0.51435 0.0
C469 C 0.83694 0.96258 0.50453 0.0
C470 C 0.8668 0.86704 0.43862 0.0
C471 C 0.8901 0.95127 0.5473 0.0
C472 C 0.92809 0.83294 0.55526 0.0
C473 C 0.95542 0.81906 0.52935 0.0
C474 C 0.90322 0.86231 0.54462 0.0
C475 C 0.90774 0.88071 0.50911 0.0
C476 C 0.9381 0.86952 0.48583 0.0
C477 C 0.96083 0.83811 0.49531 0.0
C478 C 0.87141 0.87215 0.5707 0.0
C479 C 0.94649 0.88956 0.44995 0.0
H480 H 0.81462 0.92004 0.42347 0.0
H481 H 0.82798 0.98544 0.52264 0.0
H482 H 0.88627 0.86827 0.41509 0.0
H483 H 0.87728 0.8451 0.45899 0.0
H484 H 0.84367 0.86159 0.42327 0.0
H485 H 0.89284 0.97812 0.54167 0.0
H486 H 0.87657 0.95151 0.57658 0.0
H487 H 0.91624 0.93446 0.54977 0.0
H488 H 0.9249 0.81965 0.58302 0.0
H489 H 0.98201 0.82807 0.47509 0.0
H490 H 0.84782 0.88156 0.55241 0.0
H491 H 0.8746 0.89295 0.59169 0.0
H492 H 0.86733 0.85006 0.5892 0.0
H493 H 0.94417 0.87498 0.42191 0.0
H494 H 0.97374 0.89212 0.45189 0.0
H495 H 0.92973 0.91575 0.44763 0.0
C496 C 0.75628 0.19429 0.46569 0.0
C497 C 0.76627 0.16578 0.49123 0.0
C498 C 0.77668 0.21896 0.46191 0.0
C499 C 0.808 0.21462 0.48377 0.0
C500 C 0.81809 0.18581 0.50965 0.0
C501 C 0.79687 0.16196 0.51343 0.0
C502 C 0.76467 0.24971 0.43473 0.0
C503 C 0.85153 0.17995 0.53301 0.0
C504 C 0.87894 0.25845 0.44861 0.0
C505 C 0.87678 0.28468 0.4773 0.0
C506 C 0.85622 0.23582 0.4498 0.0
C507 C 0.83031 0.24014 0.47985 0.0
C508 C 0.82705 0.26772 0.50766 0.0
C509 C 0.85055 0.2895 0.50624 0.0
C510 C 0.86089 0.20642 0.42003 0.0
C511 C 0.79937 0.27365 0.53961 0.0
H512 H 0.73231 0.19745 0.449 0.0
H513 H 0.80461 0.13982 0.53309 0.0
H514 H 0.76234 0.2739 0.45228 0.0
H515 H 0.78397 0.25005 0.41068 0.0
H516 H 0.7394 0.2496 0.42039 0.0
H517 H 0.85597 0.15588 0.55115 0.0
H518 H 0.87349 0.17847 0.51196 0.0
H519 H 0.85148 0.20198 0.55359 0.0
H520 H 0.89937 0.2547 0.42634 0.0
H521 H 0.84865 0.31014 0.52809 0.0
H522 H 0.83633 0.20663 0.40397 0.0
H523 H 0.86808 0.1815 0.43637 0.0
H524 H 0.8812 0.20759 0.3974 0.0
H525 H 0.77374 0.27471 0.5257 0.0
H526 H 0.79849 0.29792 0.55666 0.0
H527 H 0.80414 0.25182 0.56123 0.0
C528 C 0.61302 0.70617 0.05248 0.0
C529 C 0.58417 0.72015 0.02873 0.0
C530 C 0.63722 0.67689 0.0402 0.0
C531 C 0.63038 0.65833 0.0057 0.0
C532 C 0.59886 0.66982 0.98454 0.0
C533 C 0.57701 0.70141 0.99513 0.0
C534 C 0.67057 0.66723 0.06372 0.0
C535 C 0.58805 0.6498 0.94997 0.0
C536 C 0.70494 0.61017 0.94247 0.0
C537 C 0.71866 0.58183 0.96709 0.0
C538 C 0.6762 0.6352 0.95444 0.0
C539 C 0.65789 0.62973 0.98966 0.0
C540 C 0.66887 0.59856 0.01163 0.0
C541 C 0.69997 0.57584 0.00119 0.0
C542 C 0.66694 0.668 0.92988 0.0
C543 C 0.64889 0.58914 0.04699 0.0
H544 H 0.61771 0.71897 0.08005 0.0
H545 H 0.55487 0.71161 0.9763 0.0
H546 H 0.66802 0.64798 0.08707 0.0
H547 H 0.69282 0.65612 0.04413 0.0
H548 H 0.67651 0.68994 0.07953 0.0
H549 H 0.56102 0.64724 0.95457 0.0
H550 H 0.58835 0.66444 0.92153 0.0
H551 H 0.60457 0.62361 0.94652 0.0
H552 H 0.71773 0.6139 0.91457 0.0
H553 H 0.70994 0.55404 0.0206 0.0
H554 H 0.65669 0.6909 0.94889 0.0
H555 H 0.64713 0.66537 0.90723 0.0
H556 H 0.68964 0.6729 0.91316 0.0
H557 H 0.66393 0.58974 0.0751 0.0
H558 H 0.64559 0.56223 0.0434 0.0
H559 H 0.62302 0.60631 0.05038 0.0
C560 C 0.77898 0.34607 0.02543 0.0
C561 C 0.77193 0.37535 0.00076 0.0
C562 C 0.75749 0.32223 0.02484 0.0
C563 C 0.72816 0.32819 -0.0007 0.0
C564 C 0.72069 0.35811 0.97487 0.0
C565 C 0.74254 0.38145 0.97618 0.0
C566 C 0.76605 0.29075 0.05155 0.0
C567 C 0.6895 0.36561 0.94755 0.0
C568 C 0.68599 0.25469 0.96895 0.0
C569 C 0.65761 0.25985 0.99494 0.0
C570 C 0.70972 0.27625 0.97066 0.0
C571 C 0.7046 0.30375 -0.00122 0.0
C572 C 0.67587 0.30907 0.02501 0.0
C573 C 0.65253 0.28725 0.02246 0.0
C574 C 0.73989 0.27001 0.94197 0.0
C575 C 0.66932 0.33827 0.05514 0.0
H576 H 0.80151 0.34167 0.04484 0.0
H577 H 0.73641 0.40479 0.95819 0.0
H578 H 0.74448 0.29065 0.07274 0.0
H579 H 0.76925 0.26704 0.03296 0.0
H580 H 0.79001 0.28967 0.06928 0.0
H581 H 0.68786 0.38962 0.92978 0.0
H582 H 0.69028 0.34384 0.92635 0.0
H583 H 0.66563 0.36822 0.9657 0.0
H584 H 0.68959 0.23377 0.94728 0.0
H585 H 0.62981 0.29215 0.04145 0.0
H586 H 0.76441 0.2669 0.95906 0.0
H587 H 0.73812 0.29266 0.92187 0.0
H588 H 0.74094 0.24673 0.92303 0.0
H589 H 0.69241 0.33712 0.07438 0.0
H590 H 0.64689 0.33765 0.07488 0.0
H591 H 0.66439 0.36335 0.03903 0.0
C592 C 0.45864 0.3357 0.99292 0.0
C593 C 0.45188 0.31635 0.02614 0.0
C594 C 0.43668 0.36749 0.98325 0.0
C595 C 0.40549 0.37867 0.00504 0.0
C596 C 0.39921 0.35962 0.03935 0.0
C597 C 0.42349 0.33002 0.05062 0.0
C598 C 0.44692 0.38802 0.94886 0.0
C599 C 0.36628 0.36906 0.06357 0.0
C600 C 0.33534 0.46087 0.0022 0.0
C601 C 0.31599 0.45477 0.96865 0.0
C602 C 0.3668 0.4383 0.01187 0.0
C603 C 0.37757 0.40726 0.98962 0.0
C604 C 0.35864 0.40181 0.95482 0.0
C605 C 0.32942 0.42664 0.94365 0.0
C606 C 0.38736 0.4477 0.04679 0.0
C607 C 0.36771 0.36915 0.93 0.0
H608 H 0.48044 0.32575 0.97356 0.0
H609 H 0.41913 0.31658 0.07785 0.0
H610 H 0.44623 0.37377 0.92019 0.0
H611 H 0.43028 0.41423 0.94604 0.0
H612 H 0.47399 0.3906 0.95316 0.0
H613 H 0.36081 0.34633 0.07974 0.0
H614 H 0.36907 0.38848 0.08662 0.0
H615 H 0.34366 0.37995 0.04435 0.0
H616 H 0.32559 0.48255 0.02184 0.0
H617 H 0.31594 0.42283 0.91621 0.0
H618 H 0.41334 0.43062 0.04961 0.0
H619 H 0.37286 0.44691 0.07522 0.0
H620 H 0.39045 0.47467 0.04314 0.0
H621 H 0.38747 0.37185 0.90739 0.0
H622 H 0.34494 0.36434 0.91328 0.0
H623 H 0.37803 0.34617 0.94889 0.0
C624 C 0.25402 0.69038 0.02528 0.0
C625 C 0.26035 0.66137 0.00016 0.0
C626 C 0.27581 0.71394 0.02467 0.0
C627 C 0.30477 0.70799 -0.00133 0.0
C628 C 0.3113 0.67857 0.97339 0.0
C629 C 0.28915 0.65548 0.9747 0.0
C630 C 0.26816 0.74491 0.05222 0.0
C631 C 0.34207 0.67109 0.94556 0.0
C632 C 0.34864 0.78131 0.97245 0.0
C633 C 0.37686 0.77493 -0.00116 0.0
C634 C 0.3246 0.76004 0.97243 0.0
C635 C 0.3292 0.73158 -0.00084 0.0
C636 C 0.35791 0.72488 0.02557 0.0
C637 C 0.38155 0.74646 0.02479 0.0
C638 C 0.29447 0.76778 0.9436 0.0
C639 C 0.36394 0.69463 0.05426 0.0
H640 H 0.23199 0.69464 0.04535 0.0
H641 H 0.29483 0.63233 0.9564 0.0
H642 H 0.28976 0.74372 0.07381 0.0
H643 H 0.26595 0.76894 0.03441 0.0
H644 H 0.24396 0.74649 0.06955 0.0
H645 H 0.34257 0.64797 0.92651 0.0
H646 H 0.34191 0.69352 0.92557 0.0
H647 H 0.36623 0.66683 0.96349 0.0
H648 H 0.34533 0.80306 0.95196 0.0
H649 H 0.40414 0.74064 0.04405 0.0
H650 H 0.26989 0.77127 0.96053 0.0
H651 H 0.29554 0.74568 0.9228 0.0
H652 H 0.29414 0.79134 0.9254 0.0
H653 H 0.34101 0.69592 0.07374 0.0
H654 H 0.38684 0.69377 0.07384 0.0
H655 H 0.36776 0.67016 0.03701 0.0
C656 C 0.3749 0.12803 0.32842 0.0
C657 C 0.34207 0.12048 0.32928 0.0
C658 C 0.38464 0.14702 0.29666 0.0
C659 C 0.36052 0.15964 0.2658 0.0
C660 C 0.32628 0.15498 0.26868 0.0
C661 C 0.3176 0.1348 0.3001 0.0
C662 C 0.42163 0.15089 0.29439 0.0
C663 C 0.29948 0.16939 0.23731 0.0
C664 C 0.3962 0.21668 0.19362 0.0
C665 C 0.41096 0.19254 0.16433 0.0
C666 C 0.37667 0.20725 0.22523 0.0
C667 C 0.37298 0.17268 0.22806 0.0
C668 C 0.38589 0.14891 0.19704 0.0
C669 C 0.40429 0.15933 0.1652 0.0
C670 C 0.36191 0.23366 0.25681 0.0
C671 C 0.38294 0.11162 0.19918 0.0
H672 H 0.39387 0.11697 0.35098 0.0
H673 H 0.29201 0.12937 0.30113 0.0
H674 H 0.43455 0.13607 0.26824 0.0
H675 H 0.42266 0.17828 0.28972 0.0
H676 H 0.43648 0.14144 0.32207 0.0
H677 H 0.27292 0.17062 0.24862 0.0
H678 H 0.30176 0.19561 0.22785 0.0
H679 H 0.30345 0.15264 0.21022 0.0
H680 H 0.40088 0.24257 0.19263 0.0
H681 H 0.41556 0.1406 0.14253 0.0
H682 H 0.37876 0.22982 0.28385 0.0
H683 H 0.3359 0.23075 0.26629 0.0
H684 H 0.36009 0.26039 0.24571 0.0
H685 H 0.39809 0.09887 0.22524 0.0
H686 H 0.39258 0.09705 0.17142 0.0
H687 H 0.35575 0.10991 0.20392 0.0
C688 C 0.0604 0.65393 0.69296 0.0
C689 C 0.07875 0.66072 0.65884 0.0
C690 C 0.07755 0.63922 0.72779 0.0
C691 C 0.11404 0.63102 0.72871 0.0
C692 C 0.13279 0.63877 0.69492 0.0
C693 C 0.11492 0.65356 0.66037 0.0
C694 C 0.05652 0.63154 0.76319 0.0
C695 C 0.17171 0.63044 0.6948 0.0
C696 C 0.15482 0.61377 0.83262 0.0
C697 C 0.16039 0.5777 0.83503 0.0
C698 C 0.14083 0.63148 0.79766 0.0
C699 C 0.13228 0.61267 0.76431 0.0
C700 C 0.13901 0.5762 0.76603 0.0
C701 C 0.15291 0.55919 0.80132 0.0
C702 C 0.13403 0.67038 0.79699 0.0
C703 C 0.13045 0.55512 0.73108 0.0
H704 H 0.03245 0.65956 0.6923 0.0
H705 H 0.12935 0.65861 0.63422 0.0
H706 H 0.0616 0.60328 0.76838 0.0
H707 H 0.06417 0.64352 0.79099 0.0
H708 H 0.02837 0.6411 0.75842 0.0
H709 H 0.18243 0.64035 0.66742 0.0
H710 H 0.18169 0.6416 0.72181 0.0
H711 H 0.18139 0.60208 0.69621 0.0
H712 H 0.16043 0.62833 0.85846 0.0
H713 H 0.15736 0.5313 0.80268 0.0
H714 H 0.10582 0.68109 0.79588 0.0
H715 H 0.14537 0.67941 0.76956 0.0
H716 H 0.14475 0.68101 0.82393 0.0
H717 H 0.10213 0.56083 0.72625 0.0
H718 H 0.13941 0.52694 0.73617 0.0
H719 H 0.14238 0.56215 0.70297 0.0
C720 C 0.71924 0.8956 0.31032 0.0
C721 C 0.69446 0.91215 0.33797 0.0
C722 C 0.7104 0.87457 0.27983 0.0
C723 C 0.67581 0.87108 0.27645 0.0
C724 C 0.65141 0.8856 0.30618 0.0
C725 C 0.6612 0.9056 0.33694 0.0
C726 C 0.73744 0.85819 0.24971 0.0
C727 C 0.61412 0.88278 0.30348 0.0
C728 C 0.63284 0.87063 0.17539 0.0
C729 C 0.62472 0.838 0.17549 0.0
C730 C 0.65164 0.88092 0.207 0.0
C731 C 0.66339 0.85762 0.23889 0.0
C732 C 0.65837 0.82345 0.23703 0.0
C733 C 0.63857 0.81414 0.20553 0.0
C734 C 0.65617 0.91775 0.20797 0.0
C735 C 0.67182 0.79749 0.2696 0.0
H736 H 0.74519 0.90013 0.31151 0.0
H737 H 0.642 0.91817 0.35842 0.0
H738 H 0.73423 0.83205 0.24115 0.0
H739 H 0.73472 0.8741 0.22193 0.0
H740 H 0.76392 0.85622 0.26174 0.0
H741 H 0.59911 0.89333 0.33062 0.0
H742 H 0.6019 0.89722 0.27669 0.0
H743 H 0.61231 0.8555 0.29967 0.0
H744 H 0.62244 0.88911 0.15209 0.0
H745 H 0.63285 0.78866 0.20532 0.0
H746 H 0.68359 0.91843 0.21318 0.0
H747 H 0.64102 0.93173 0.23329 0.0
H748 H 0.64752 0.93182 0.17956 0.0
H749 H 0.69778 0.79993 0.27991 0.0
H750 H 0.67326 0.77065 0.25906 0.0
H751 H 0.65429 0.80222 0.29596 0.0
C752 C 0.96635 0.37187 0.69433 0.0
C753 C 0.9507 0.3677 0.65718 0.0
C754 C 0.94693 0.38703 0.72734 0.0
C755 C 0.91074 0.39807 0.72351 0.0
C756 C 0.89444 0.39233 0.68687 0.0
C757 C 0.91465 0.37732 0.65398 0.0
C758 C 0.96548 0.3927 0.76576 0.0
C759 C 0.85585 0.40324 0.68192 0.0
C760 C 0.86617 0.41926 0.82445 0.0
C761 C 0.86464 0.45483 0.82727 0.0
C762 C 0.87899 0.40065 0.78964 0.0
C763 C 0.89085 0.41797 0.75705 0.0
C764 C 0.88763 0.45415 0.75886 0.0
C765 C 0.87447 0.47211 0.79381 0.0
C766 C 0.88156 0.36218 0.78865 0.0
C767 C 0.90006 0.47368 0.7249 0.0
H768 H 0.99414 0.36429 0.69743 0.0
H769 H 0.9023 0.37403 0.62553 0.0
H770 H 0.9621 0.42077 0.77148 0.0
H771 H 0.95431 0.38146 0.79182 0.0
H772 H 0.99355 0.3811 0.76446 0.0
H773 H 0.84677 0.3931 0.65364 0.0
H774 H 0.84254 0.39422 0.70786 0.0
H775 H 0.84814 0.43181 0.68135 0.0
H776 H 0.85846 0.40565 0.84991 0.0
H777 H 0.8731 0.49964 0.79536 0.0
H778 H 0.90896 0.34863 0.79185 0.0
H779 H 0.87219 0.35428 0.75934 0.0
H780 H 0.86656 0.35349 0.81333 0.0
H781 H 0.92858 0.46593 0.72277 0.0
H782 H 0.89278 0.50207 0.72935 0.0
H783 H 0.88933 0.46729 0.6957 0.0
C784 C 0.65976 0.11344 0.32696 0.0
C785 C 0.66529 0.07743 0.33063 0.0
C786 C 0.64419 0.13044 0.29228 0.0
C787 C 0.63408 0.11098 0.26044 0.0
C788 C 0.64095 0.07455 0.26326 0.0
C789 C 0.65639 0.05826 0.29826 0.0
C790 C 0.63736 0.16931 0.2904 0.0
C791 C 0.63085 0.05279 0.22987 0.0
C792 C 0.55964 0.15111 0.19151 0.0
C793 C 0.57684 0.15733 0.15625 0.0
C794 C 0.578 0.13693 0.22593 0.0
C795 C 0.61451 0.1286 0.22517 0.0
C796 C 0.63208 0.13557 0.19007 0.0
C797 C 0.61306 0.14985 0.15607 0.0
C798 C 0.55824 0.13008 0.26281 0.0
C799 C 0.67098 0.12699 0.18802 0.0
H800 H 0.6665 0.12851 0.35174 0.0
H801 H 0.66074 0.03042 0.3006 0.0
H802 H 0.64755 0.17775 0.26189 0.0
H803 H 0.60913 0.18002 0.29067 0.0
H804 H 0.64916 0.18048 0.31614 0.0
H805 H 0.64001 0.02472 0.23555 0.0
H806 H 0.60236 0.05845 0.22676 0.0
H807 H 0.64154 0.05921 0.20069 0.0
H808 H 0.53169 0.15692 0.19213 0.0
H809 H 0.62665 0.15432 0.12899 0.0
H810 H 0.56691 0.14264 0.28961 0.0
H811 H 0.56348 0.10196 0.26891 0.0
H812 H 0.52995 0.13961 0.25926 0.0
H813 H 0.68199 0.13878 0.21383 0.0
H814 H 0.68076 0.13608 0.15957 0.0
H815 H 0.68057 0.09866 0.19026 0.0
C816 C 0.09235 0.34226 0.72825 0.0
C817 C 0.10671 0.32846 0.69179 0.0
C818 C 0.11202 0.35631 0.75601 0.0
C819 C 0.14724 0.35508 0.74765 0.0
C820 C 0.16263 0.33811 0.71258 0.0
C821 C 0.14187 0.32574 0.68438 0.0
C822 C 0.09428 0.37519 0.79233 0.0
C823 C 0.20045 0.3348 0.70371 0.0
C824 C 0.17821 0.43213 0.78725 0.0
C825 C 0.19061 0.42039 0.82531 0.0
C826 C 0.16518 0.41057 0.76091 0.0
C827 C 0.16605 0.37603 0.77244 0.0
C828 C 0.1812 0.36329 0.80961 0.0
C829 C 0.19251 0.38601 0.83625 0.0
C830 C 0.1482 0.42557 0.72217 0.0
C831 C 0.18412 0.3262 0.82196 0.0
H832 H 0.065 0.34462 0.73362 0.0
H833 H 0.15286 0.31481 0.65614 0.0
H834 H 0.10836 0.36555 0.82033 0.0
H835 H 0.09428 0.40307 0.78981 0.0
H836 H 0.06716 0.37238 0.79529 0.0
H837 H 0.20978 0.31469 0.68061 0.0
H838 H 0.20482 0.35972 0.69222 0.0
H839 H 0.2161 0.32836 0.73152 0.0
H840 H 0.17651 0.45892 0.77918 0.0
H841 H 0.20238 0.37708 0.86575 0.0
H842 H 0.12048 0.42459 0.72255 0.0
H843 H 0.16011 0.41017 0.69599 0.0
H844 H 0.1502 0.45279 0.71755 0.0
H845 H 0.15859 0.32239 0.832 0.0
H846 H 0.20273 0.31874 0.84712 0.0
H847 H 0.19237 0.30864 0.79608 0.0
C848 C 0.38128 0.97301 0.30618 0.0
C849 C 0.37317 0.95642 0.34109 0.0
C850 C 0.39577 0.9541 0.27239 0.0
C851 C 0.40227 0.91762 0.27329 0.0
C852 C 0.39275 0.9007 0.30766 0.0
C853 C 0.37836 0.92029 0.3412 0.0
C854 C 0.40545 0.97321 0.23632 0.0
C855 C 0.39901 0.86187 0.30963 0.0
C856 C 0.42217 0.87431 0.17119 0.0
C857 C 0.45836 0.86764 0.17073 0.0
C858 C 0.40346 0.88902 0.20517 0.0
C859 C 0.42135 0.89746 0.23938 0.0
C860 C 0.45786 0.88927 0.23982 0.0
C861 C 0.47587 0.8744 0.20561 0.0
C862 C 0.36456 0.89705 0.20368 0.0
C863 C 0.47798 0.8978 0.27568 0.0
H864 H 0.37718 1.0009 0.30557 0.0
H865 H 0.37213 0.90719 0.36793 0.0
H866 H 0.43388 0.96688 0.23246 0.0
H867 H 0.39399 0.96498 0.20847 0.0
H868 H 0.39679 0.00163 0.23939 0.0
H869 H 0.38692 0.85284 0.33659 0.0
H870 H 0.38875 0.85157 0.28222 0.0
H871 H 0.42715 0.85082 0.31067 0.0
H872 H 0.40833 0.86926 0.14451 0.0
H873 H 0.50382 0.86917 0.20581 0.0
H874 H 0.35477 0.92539 0.20215 0.0
H875 H 0.35392 0.88782 0.23147 0.0
H876 H 0.35462 0.88514 0.17714 0.0
H877 H 0.47338 0.92621 0.27932 0.0
H878 H 0.50617 0.88749 0.27245 0.0
H879 H 0.46911 0.8872 0.3037 0.0
C880 C 0.88864 0.6968 0.66603 0.0
C881 C 0.92349 0.69493 0.67454 0.0
C882 C 0.86737 0.68542 0.69436 0.0
C883 C 0.88202 0.67021 0.73074 0.0
C884 C 0.91705 0.66941 0.73983 0.0
C885 C 0.93718 0.68252 0.71187 0.0
C886 C 0.82975 0.68821 0.68459 0.0
C887 C 0.93406 0.65227 0.77757 0.0
C888 C 0.83561 0.64531 0.82167 0.0
C889 C 0.83758 0.61035 0.8138 0.0
C890 C 0.84708 0.66623 0.79298 0.0
C891 C 0.8625 0.65111 0.75697 0.0
C892 C 0.86332 0.61597 0.74849 0.0
C893 C 0.8501 0.59619 0.77678 0.0
C894 C 0.84425 0.70397 0.80206 0.0
C895 C 0.88068 0.59847 0.71118 0.0
H896 H 0.87822 0.70666 0.63706 0.0
H897 H 0.96433 0.68082 0.71803 0.0
H898 H 0.82551 0.66263 0.67526 0.0
H899 H 0.81351 0.69648 0.71153 0.0
H900 H 0.82098 0.70676 0.65969 0.0
H901 H 0.96124 0.65487 0.7806 0.0
H902 H 0.91967 0.66355 0.8047 0.0
H903 H 0.93369 0.6244 0.77704 0.0
H904 H 0.82568 0.65606 0.85043 0.0
H905 H 0.85186 0.56894 0.77118 0.0
H906 H 0.83616 0.71987 0.77477 0.0
H907 H 0.86977 0.70831 0.81149 0.0
H908 H 0.82554 0.71306 0.82667 0.0
H909 H 0.86972 0.61262 0.68373 0.0
H910 H 0.87794 0.5713 0.70853 0.0
H911 H 0.90858 0.59867 0.71201 0.0
loop_
_geom_bond_atom_site_label_1
_geom_bond_atom_site_label_2
_geom_bond_distance
_geom_bond_site_symmetry_2
_ccdc_geom_bond_type
Co0 O3 1.971 . S
Co0 N17 1.989 . S
Co0 O25 1.967 . S
Co0 O32 1.920 . S
Co1 O4 1.966 . S
Co1 N10 2.022 . S
Co1 N18 1.993 1_565 S
Co1 O26 1.941 . S
C2 O3 1.258 1_565 S
C2 O4 1.263 . S
O3 Co0 1.971 . S
O3 C2 1.258 1_545 S
O4 Co1 1.966 . S
O4 C2 1.263 . S
C5 O6 1.235 . S
C5 O32 1.289 . S
O6 C5 1.235 . S
C7 C9 1.400 . S
C7 N10 1.351 . S
C7 C12 1.501 . S
C8 C9 1.387 . S
C8 N11 1.341 . S
C9 C7 1.400 . S
C9 C8 1.387 . S
N10 Co1 2.022 . S
N10 C7 1.351 . S
N10 N11 1.365 . S
N11 C8 1.341 . S
N11 N10 1.365 . S
N11 H31 0.862 . S
C12 C7 1.501 . S
C12 H13 0.961 . S
C12 H14 0.961 . S
C12 H15 0.960 . S
H13 C12 0.961 . S
H14 C12 0.961 . S
H15 C12 0.960 . S
C16 N17 1.342 . S
C16 C20 1.401 . S
C16 C21 1.499 . S
N17 Co0 1.989 . S
N17 C16 1.342 . S
N17 N18 1.388 . S
N18 Co1 1.993 1_545 S
N18 N17 1.388 . S
N18 C19 1.346 . S
C19 N18 1.346 . S
C19 C20 1.396 . S
C19 C29 1.510 . S
C20 C16 1.401 . S
C20 C19 1.396 . S
C21 C16 1.499 . S
C21 H22 0.959 . S
C21 H23 0.960 . S
C21 H24 0.961 . S
H22 C21 0.959 . S
H23 C21 0.960 . S
H24 C21 0.961 . S
O25 Co0 1.967 . S
O25 C33 1.258 . S
O26 Co1 1.941 . S
O26 C33 1.267 1_565 S
H27 C29 0.959 . S
H28 C29 0.961 . S
C29 C19 1.510 . S
C29 H27 0.959 . S
C29 H28 0.961 . S
C29 H30 0.955 1_545 S
H30 C29 0.955 1_565 S
H31 N11 0.862 . S
O32 Co0 1.920 . S
O32 C5 1.289 . S
C33 O25 1.258 . S
C33 O26 1.267 1_545 S
Co34 O37 1.970 1_655 S
Co34 N51 1.989 . S
Co34 O59 1.967 1_655 S
Co34 O66 1.920 . S
Co35 O38 1.966 . S
Co35 N44 2.022 . S
Co35 N52 1.993 . S
Co35 O60 1.941 . S
C36 O37 1.258 . S
C36 O38 1.263 . S
O37 Co34 1.970 1_455 S
O37 C36 1.258 . S
O38 Co35 1.966 . S
O38 C36 1.263 . S
C39 O40 1.235 . S
C39 O66 1.289 . S
O40 C39 1.235 . S
C41 C43 1.400 . S
C41 N44 1.351 . S
C41 C46 1.501 . S
C42 C43 1.387 . S
C42 N45 1.341 . S
C43 C41 1.400 . S
C43 C42 1.387 . S
N44 Co35 2.022 . S
N44 C41 1.351 . S
N44 N45 1.365 . S
N45 C42 1.341 . S
N45 N44 1.365 . S
N45 H65 0.862 . S
C46 C41 1.501 . S
C46 H47 0.961 . S
C46 H48 0.961 . S
C46 H49 0.960 . S
H47 C46 0.961 . S
H48 C46 0.961 . S
H49 C46 0.960 . S
C50 N51 1.342 . S
C50 C54 1.401 . S
C50 C55 1.499 . S
N51 Co34 1.989 . S
N51 C50 1.342 . S
N51 N52 1.388 1_655 S
N52 Co35 1.993 . S
N52 N51 1.388 1_455 S
N52 C53 1.346 1_455 S
C53 N52 1.346 1_655 S
C53 C54 1.396 . S
C53 C63 1.510 1_655 S
C54 C50 1.401 . S
C54 C53 1.396 . S
C55 C50 1.499 . S
C55 H56 0.959 . S
C55 H57 0.960 . S
C55 H58 0.961 . S
H56 C55 0.959 . S
H57 C55 0.960 . S
H58 C55 0.961 . S
O59 Co34 1.967 1_455 S
O59 C67 1.258 . S
O60 Co35 1.941 . S
O60 C67 1.266 . S
H61 C63 0.959 . S
H62 C63 0.961 . S
C63 C53 1.510 1_455 S
C63 H61 0.959 . S
C63 H62 0.961 . S
C63 H64 0.960 . S
H64 C63 0.960 . S
H65 N45 0.862 . S
O66 Co34 1.920 . S
O66 C39 1.289 . S
C67 O59 1.258 . S
C67 O60 1.266 . S
Co68 O71 1.970 1_565 S
Co68 N85 1.989 . S
Co68 O93 1.967 1_565 S
Co68 O100 1.920 . S
Co69 O72 1.966 . S
Co69 N78 2.022 . S
Co69 N86 1.993 . S
Co69 O94 1.941 . S
C70 O71 1.258 . S
C70 O72 1.263 . S
O71 Co68 1.970 1_545 S
O71 C70 1.258 . S
O72 Co69 1.966 . S
O72 C70 1.263 . S
C73 O74 1.235 . S
C73 O100 1.289 . S
O74 C73 1.235 . S
C75 C77 1.400 . S
C75 N78 1.351 . S
C75 C80 1.501 . S
C76 C77 1.387 . S
C76 N79 1.341 . S
C77 C75 1.400 . S
C77 C76 1.387 . S
N78 Co69 2.022 . S
N78 C75 1.351 . S
N78 N79 1.365 . S
N79 C76 1.341 . S
N79 N78 1.365 . S
N79 H99 0.862 . S
C80 C75 1.501 . S
C80 H81 0.961 . S
C80 H82 0.961 . S
C80 H83 0.960 . S
H81 C80 0.961 . S
H82 C80 0.961 . S
H83 C80 0.960 . S
C84 N85 1.342 . S
C84 C88 1.401 . S
C84 C89 1.499 . S
N85 Co68 1.989 . S
N85 C84 1.342 . S
N85 N86 1.388 1_565 S
N86 Co69 1.993 . S
N86 N85 1.388 1_545 S
N86 C87 1.346 1_545 S
C87 N86 1.346 1_565 S
C87 C88 1.396 . S
C87 C97 1.510 1_565 S
C88 C84 1.401 . S
C88 C87 1.396 . S
C89 C84 1.499 . S
C89 H90 0.959 . S
C89 H91 0.960 . S
C89 H92 0.961 . S
H90 C89 0.959 . S
H91 C89 0.960 . S
H92 C89 0.961 . S
O93 Co68 1.967 1_545 S
O93 C101 1.258 . S
O94 Co69 1.941 . S
O94 C101 1.266 . S
H95 C97 0.959 . S
H96 C97 0.961 . S
C97 C87 1.510 1_545 S
C97 H95 0.959 . S
C97 H96 0.961 . S
C97 H98 0.960 . S
H98 C97 0.960 . S
H99 N79 0.862 . S
O100 Co68 1.920 . S
O100 C73 1.289 . S
C101 O93 1.258 . S
C101 O94 1.266 . S
Co102 O105 1.970 . S
Co102 N119 1.989 . S
Co102 O127 1.967 . S
Co102 O134 1.920 . S
Co103 O106 1.966 . S
Co103 N112 2.022 . S
Co103 N120 1.993 1_655 S
Co103 O128 1.941 . S
C104 O105 1.258 1_655 S
C104 O106 1.263 . S
O105 Co102 1.970 . S
O105 C104 1.258 1_455 S
O106 Co103 1.966 . S
O106 C104 1.263 . S
C107 O108 1.235 . S
C107 O134 1.289 . S
O108 C107 1.235 . S
C109 C111 1.400 . S
C109 N112 1.351 . S
C109 C114 1.501 . S
C110 C111 1.387 . S
C110 N113 1.341 . S
C111 C109 1.400 . S
C111 C110 1.387 . S
N112 Co103 2.022 . S
N112 C109 1.351 . S
N112 N113 1.365 . S
N113 C110 1.341 . S
N113 N112 1.365 . S
N113 H133 0.862 . S
C114 C109 1.501 . S
C114 H115 0.961 . S
C114 H116 0.961 . S
C114 H117 0.960 . S
H115 C114 0.961 . S
H116 C114 0.961 . S
H117 C114 0.960 . S
C118 N119 1.342 . S
C118 C122 1.401 . S
C118 C123 1.499 . S
N119 Co102 1.989 . S
N119 C118 1.342 . S
N119 N120 1.388 . S
N120 Co103 1.993 1_455 S
N120 N119 1.388 . S
N120 C121 1.346 . S
C121 N120 1.346 . S
C121 C122 1.396 . S
C121 C131 1.510 . S
C122 C118 1.401 . S
C122 C121 1.396 . S
C123 C118 1.499 . S
C123 H124 0.959 . S
C123 H125 0.960 . S
C123 H126 0.961 . S
H124 C123 0.959 . S
H125 C123 0.960 . S
H126 C123 0.961 . S
O127 Co102 1.967 . S
O127 C135 1.258 . S
O128 Co103 1.941 . S
O128 C135 1.267 1_655 S
H129 C131 0.959 . S
H130 C131 0.961 . S
C131 C121 1.510 . S
C131 H129 0.959 . S
C131 H130 0.961 . S
C131 H132 0.955 1_455 S
H132 C131 0.955 1_655 S
H133 N113 0.862 . S
O134 Co102 1.920 . S
O134 C107 1.289 . S
C135 O127 1.258 . S
C135 O128 1.267 1_455 S
Co136 O139 1.970 . S
Co136 N153 1.989 . S
Co136 O161 1.967 . S
Co136 O168 1.920 . S
Co137 O140 1.966 . S
Co137 N146 2.022 . S
Co137 N154 1.993 . S
Co137 O162 1.941 . S
C138 O139 1.258 . S
C138 O140 1.263 . S
O139 Co136 1.970 . S
O139 C138 1.258 . S
O140 Co137 1.966 . S
O140 C138 1.263 . S
C141 O142 1.235 . S
C141 O168 1.289 . S
O142 C141 1.235 . S
C143 C145 1.400 1_556 S
C143 N146 1.351 . S
C143 C148 1.501 . S
C144 C145 1.387 . S
C144 N147 1.341 . S
C145 C143 1.400 1_554 S
C145 C144 1.387 . S
N146 Co137 2.022 . S
N146 C143 1.351 . S
N146 N147 1.365 1_556 S
N147 C144 1.341 . S
N147 N146 1.365 1_554 S
N147 H167 0.862 . S
C148 C143 1.501 . S
C148 H149 0.961 . S
C148 H150 0.961 . S
C148 H151 0.960 . S
H149 C148 0.961 . S
H150 C148 0.961 . S
H151 C148 0.960 . S
C152 N153 1.342 . S
C152 C156 1.401 . S
C152 C157 1.499 . S
N153 Co136 1.989 . S
N153 C152 1.342 . S
N153 N154 1.388 . S
N154 Co137 1.993 . S
N154 N153 1.388 . S
N154 C155 1.346 . S
C155 N154 1.346 . S
C155 C156 1.396 . S
C155 C165 1.510 . S
C156 C152 1.401 . S
C156 C155 1.396 . S
C157 C152 1.499 . S
C157 H158 0.959 . S
C157 H159 0.960 . S
C157 H160 0.961 . S
H158 C157 0.959 . S
H159 C157 0.960 . S
H160 C157 0.961 . S
O161 Co136 1.967 . S
O161 C169 1.258 . S
O162 Co137 1.941 . S
O162 C169 1.266 . S
H163 C165 0.959 1_554 S
H164 C165 0.961 . S
C165 C155 1.510 . S
C165 H163 0.959 1_556 S
C165 H164 0.961 . S
C165 H166 0.960 . S
H166 C165 0.960 . S
H167 N147 0.862 . S
O168 Co136 1.920 . S
O168 C141 1.289 . S
C169 O161 1.258 . S
C169 O162 1.266 . S
Co170 O173 1.970 . S
Co170 N187 1.989 . S
Co170 O195 1.967 . S
Co170 O202 1.920 . S
Co171 O174 1.966 . S
Co171 N180 2.022 . S
Co171 N188 1.993 . S
Co171 O196 1.941 . S
C172 O173 1.258 . S
C172 O174 1.263 . S
O173 Co170 1.970 . S
O173 C172 1.258 . S
O174 Co171 1.966 . S
O174 C172 1.263 . S
C175 O176 1.235 . S
C175 O202 1.289 . S
O176 C175 1.235 . S
C177 C179 1.400 1_554 S
C177 N180 1.351 . S
C177 C182 1.501 . S
C178 C179 1.387 . S
C178 N181 1.341 . S
C179 C177 1.400 1_556 S
C179 C178 1.387 . S
N180 Co171 2.022 . S
N180 C177 1.351 . S
N180 N181 1.365 1_554 S
N181 C178 1.341 . S
N181 N180 1.365 1_556 S
N181 H201 0.862 . S
C182 C177 1.501 . S
C182 H183 0.961 . S
C182 H184 0.961 . S
C182 H185 0.960 . S
H183 C182 0.961 . S
H184 C182 0.961 . S
H185 C182 0.960 . S
C186 N187 1.342 . S
C186 C190 1.401 . S
C186 C191 1.499 . S
N187 Co170 1.989 . S
N187 C186 1.342 . S
N187 N188 1.388 . S
N188 Co171 1.993 . S
N188 N187 1.388 . S
N188 C189 1.346 . S
C189 N188 1.346 . S
C189 C190 1.396 . S
C189 C199 1.510 . S
C190 C186 1.401 . S
C190 C189 1.396 . S
C191 C186 1.499 . S
C191 H192 0.959 . S
C191 H193 0.960 . S
C191 H194 0.961 . S
H192 C191 0.959 . S
H193 C191 0.960 . S
H194 C191 0.961 . S
O195 Co170 1.967 . S
O195 C203 1.258 . S
O196 Co171 1.941 . S
O196 C203 1.266 . S
H197 C199 0.959 1_556 S
H198 C199 0.961 . S
C199 C189 1.510 . S
C199 H197 0.959 1_554 S
C199 H198 0.961 . S
C199 H200 0.960 . S
H200 C199 0.960 . S
H201 N181 0.862 . S
O202 Co170 1.920 . S
O202 C175 1.289 . S
C203 O195 1.258 . S
C203 O196 1.266 . S
Co204 O207 1.970 . S
Co204 N221 1.989 . S
Co204 O229 1.967 . S
Co204 O236 1.920 . S
Co205 O208 1.966 . S
Co205 N214 2.022 . S
Co205 N222 1.993 . S
Co205 O230 1.941 . S
C206 O207 1.258 . S
C206 O208 1.263 . S
O207 Co204 1.970 . S
O207 C206 1.258 . S
O208 Co205 1.966 . S
O208 C206 1.263 . S
C209 O210 1.235 . S
C209 O236 1.289 . S
O210 C209 1.235 . S
C211 C213 1.400 1_556 S
C211 N214 1.351 . S
C211 C216 1.501 . S
C212 C213 1.387 . S
C212 N215 1.341 . S
C213 C211 1.400 1_554 S
C213 C212 1.387 . S
N214 Co205 2.022 . S
N214 C211 1.351 . S
N214 N215 1.365 1_556 S
N215 C212 1.341 . S
N215 N214 1.365 1_554 S
N215 H235 0.862 . S
C216 C211 1.501 . S
C216 H217 0.961 . S
C216 H218 0.961 . S
C216 H219 0.960 . S
H217 C216 0.961 . S
H218 C216 0.961 . S
H219 C216 0.960 . S
C220 N221 1.342 . S
C220 C224 1.401 . S
C220 C225 1.499 . S
N221 Co204 1.989 . S
N221 C220 1.342 . S
N221 N222 1.388 . S
N222 Co205 1.993 . S
N222 N221 1.388 . S
N222 C223 1.346 . S
C223 N222 1.346 . S
C223 C224 1.396 . S
C223 C233 1.510 . S
C224 C220 1.401 . S
C224 C223 1.396 . S
C225 C220 1.499 . S
C225 H226 0.959 . S
C225 H227 0.960 . S
C225 H228 0.961 . S
H226 C225 0.959 . S
H227 C225 0.960 . S
H228 C225 0.961 . S
O229 Co204 1.967 . S
O229 C237 1.258 . S
O230 Co205 1.941 . S
O230 C237 1.266 . S
H231 C233 0.959 1_554 S
H232 C233 0.961 . S
C233 C223 1.510 . S
C233 H231 0.959 1_556 S
C233 H232 0.961 . S
C233 H234 0.960 . S
H234 C233 0.960 . S
H235 N215 0.862 . S
O236 Co204 1.920 . S
O236 C209 1.289 . S
C237 O229 1.258 . S
C237 O230 1.266 . S
Co238 O241 1.970 . S
Co238 N255 1.989 . S
Co238 O263 1.967 . S
Co238 O270 1.920 . S
Co239 O242 1.966 . S
Co239 N248 2.022 . S
Co239 N256 1.993 . S
Co239 O264 1.941 . S
C240 O241 1.258 . S
C240 O242 1.263 . S
O241 Co238 1.970 . S
O241 C240 1.258 . S
O242 Co239 1.966 . S
O242 C240 1.263 . S
C243 O244 1.235 . S
C243 O270 1.289 . S
O244 C243 1.235 . S
C245 C247 1.400 1_554 S
C245 N248 1.351 . S
C245 C250 1.501 . S
C246 C247 1.387 . S
C246 N249 1.341 . S
C247 C245 1.400 1_556 S
C247 C246 1.387 . S
N248 Co239 2.022 . S
N248 C245 1.351 . S
N248 N249 1.365 1_554 S
N249 C246 1.341 . S
N249 N248 1.365 1_556 S
N249 H269 0.862 . S
C250 C245 1.501 . S
C250 H251 0.961 . S
C250 H252 0.961 . S
C250 H253 0.960 . S
H251 C250 0.961 . S
H252 C250 0.961 . S
H253 C250 0.960 . S
C254 N255 1.342 . S
C254 C258 1.401 . S
C254 C259 1.499 . S
N255 Co238 1.989 . S
N255 C254 1.342 . S
N255 N256 1.388 . S
N256 Co239 1.993 . S
N256 N255 1.388 . S
N256 C257 1.346 . S
C257 N256 1.346 . S
C257 C258 1.396 . S
C257 C267 1.510 . S
C258 C254 1.401 . S
C258 C257 1.396 . S
C259 C254 1.499 . S
C259 H260 0.959 . S
C259 H261 0.960 . S
C259 H262 0.961 . S
H260 C259 0.959 . S
H261 C259 0.960 . S
H262 C259 0.961 . S
O263 Co238 1.967 . S
O263 C271 1.258 . S
O264 Co239 1.941 . S
O264 C271 1.266 . S
H265 C267 0.959 1_556 S
H266 C267 0.961 . S
C267 C257 1.510 . S
C267 H265 0.959 1_554 S
C267 H266 0.961 . S
C267 H268 0.960 . S
H268 C267 0.960 . S
H269 N249 0.862 . S
O270 Co238 1.920 . S
O270 C243 1.289 . S
C271 O263 1.258 . S
C271 O264 1.266 . S
C272 C273 1.391 . S
C272 C274 1.394 . S
C272 H288 0.931 . S
C273 C272 1.391 . S
C273 C277 1.376 . S
C274 C272 1.394 . S
C274 C275 1.369 . S
C274 C278 1.531 . S
C275 C274 1.369 . S
C275 C276 1.410 . S
C275 C283 1.503 . S
C276 C275 1.410 . S
C276 C277 1.392 . S
C276 C279 1.511 1_545 S
C277 C273 1.376 . S
C277 C276 1.392 . S
C277 H289 0.929 . S
C278 C274 1.531 . S
C278 H290 0.960 . S
C278 H291 0.962 . S
C278 H292 0.960 . S
C279 C276 1.511 1_565 S
C279 H293 0.961 . S
C279 H294 0.961 . S
C279 H295 0.961 . S
C280 C281 1.338 1_545 S
C280 C282 1.363 . S
C280 H296 0.931 . S
C281 C280 1.338 1_565 S
C281 C285 1.430 . S
C282 C280 1.363 . S
C282 C283 1.370 . S
C282 C286 1.524 . S
C283 C275 1.503 . S
C283 C282 1.370 . S
C283 C284 1.403 1_545 S
C284 C283 1.403 1_565 S
C284 C285 1.404 . S
C284 C287 1.539 . S
C285 C281 1.430 . S
C285 C284 1.404 . S
C285 H297 0.930 . S
C286 C282 1.524 . S
C286 H298 0.956 . S
C286 H299 0.961 . S
C286 H300 0.961 . S
C287 C284 1.539 . S
C287 H301 0.958 . S
C287 H302 0.961 . S
C287 H303 0.960 . S
H288 C272 0.931 . S
H289 C277 0.929 . S
H290 C278 0.960 . S
H291 C278 0.962 . S
H292 C278 0.960 . S
H293 C279 0.961 . S
H294 C279 0.961 . S
H295 C279 0.961 . S
H296 C280 0.931 . S
H297 C285 0.930 . S
H298 C286 0.956 . S
H299 C286 0.961 . S
H300 C286 0.961 . S
H301 C287 0.958 . S
H302 C287 0.961 . S
H303 C287 0.960 . S
C304 C305 1.391 . S
C304 C306 1.394 . S
C304 H320 0.931 . S
C305 C304 1.391 . S
C305 C309 1.376 . S
C306 C304 1.394 . S
C306 C307 1.369 . S
C306 C310 1.531 . S
C307 C306 1.369 . S
C307 C308 1.410 1_455 S
C307 C315 1.503 . S
C308 C307 1.410 1_655 S
C308 C309 1.392 1_655 S
C308 C311 1.511 . S
C309 C305 1.376 . S
C309 C308 1.392 1_455 S
C309 H321 0.929 1_455 S
C310 C306 1.531 . S
C310 H322 0.960 . S
C310 H323 0.962 . S
C310 H324 0.960 . S
C311 C308 1.511 . S
C311 H325 0.961 . S
C311 H326 0.961 . S
C311 H327 0.961 . S
C312 C313 1.361 1_455 S
C312 C314 1.363 . S
C312 H328 0.931 . S
C313 C312 1.361 1_655 S
C313 C317 1.412 . S
C314 C312 1.363 . S
C314 C315 1.370 . S
C314 C318 1.524 . S
C315 C307 1.503 . S
C315 C314 1.370 . S
C315 C316 1.403 1_455 S
C316 C315 1.403 1_655 S
C316 C317 1.404 . S
C316 C319 1.539 . S
C317 C313 1.412 . S
C317 C316 1.404 . S
C317 H329 0.930 . S
C318 C314 1.524 . S
C318 H330 0.956 . S
C318 H331 0.961 . S
C318 H332 0.961 . S
C319 C316 1.539 . S
C319 H333 0.958 . S
C319 H334 0.961 . S
C319 H335 0.960 . S
H320 C304 0.931 . S
H321 C309 0.929 1_655 S
H322 C310 0.960 . S
H323 C310 0.962 . S
H324 C310 0.960 . S
H325 C311 0.961 . S
H326 C311 0.961 . S
H327 C311 0.961 . S
H328 C312 0.931 . S
H329 C317 0.930 . S
H330 C318 0.956 . S
H331 C318 0.961 . S
H332 C318 0.961 . S
H333 C319 0.958 . S
H334 C319 0.961 . S
H335 C319 0.960 . S
C336 C337 1.391 . S
C336 C338 1.394 . S
C336 H352 0.931 . S
C337 C336 1.391 . S
C337 C341 1.366 1_556 S
C338 C336 1.394 . S
C338 C339 1.369 . S
C338 C342 1.531 1_655 S
C339 C338 1.369 . S
C339 C340 1.410 . S
C339 C347 1.503 1_655 S
C340 C339 1.410 . S
C340 C341 1.392 1_556 S
C340 C343 1.511 1_556 S
C341 C337 1.366 1_554 S
C341 C340 1.392 1_554 S
C341 H353 0.939 . S
C342 C338 1.531 1_455 S
C342 H354 0.960 . S
C342 H355 0.962 . S
C342 H356 0.960 . S
C343 C340 1.511 1_554 S
C343 H357 0.961 . S
C343 H358 0.961 1_655 S
C343 H359 0.961 . S
C344 C345 1.370 1_554 S
C344 C346 1.364 . S
C344 H360 0.931 . S
C345 C344 1.370 1_556 S
C345 C349 1.408 . S
C346 C344 1.364 . S
C346 C347 1.358 1_554 S
C346 C350 1.536 . S
C347 C339 1.503 1_455 S
C347 C346 1.358 1_556 S
C347 C348 1.403 . S
C348 C347 1.403 . S
C348 C349 1.404 . S
C348 C351 1.539 . S
C349 C345 1.408 . S
C349 C348 1.404 . S
C349 H361 0.930 . S
C350 C346 1.536 . S
C350 H362 0.956 . S
C350 H363 0.961 . S
C350 H364 0.961 . S
C351 C348 1.539 . S
C351 H365 0.958 . S
C351 H366 0.961 . S
C351 H367 0.960 1_455 S
H352 C336 0.931 . S
H353 C341 0.939 . S
H354 C342 0.960 . S
H355 C342 0.962 . S
H356 C342 0.960 . S
H357 C343 0.961 . S
H358 C343 0.961 1_455 S
H359 C343 0.961 . S
H360 C344 0.931 . S
H361 C349 0.930 . S
H362 C350 0.956 . S
H363 C350 0.961 . S
H364 C350 0.961 . S
H365 C351 0.958 . S
H366 C351 0.961 . S
H367 C351 0.960 1_655 S
C368 C369 1.391 . S
C368 C370 1.394 . S
C368 H384 0.931 . S
C369 C368 1.391 . S
C369 C373 1.376 1_554 S
C370 C368 1.394 . S
C370 C371 1.369 . S
C370 C374 1.531 . S
C371 C370 1.369 . S
C371 C372 1.410 1_554 S
C371 C379 1.503 1_565 S
C372 C371 1.410 1_556 S
C372 C373 1.392 . S
C372 C375 1.511 1_565 S
C373 C369 1.376 1_556 S
C373 C372 1.392 . S
C373 H385 0.929 . S
C374 C370 1.531 . S
C374 H386 0.961 . S
C374 H387 0.962 . S
C374 H388 0.960 . S
C375 C372 1.511 1_545 S
C375 H389 0.961 . S
C375 H390 0.961 . S
C375 H391 0.961 . S
C376 C377 1.370 . S
C376 C378 1.363 . S
C376 H392 0.931 . S
C377 C376 1.370 . S
C377 C381 1.409 1_554 S
C378 C376 1.363 . S
C378 C379 1.370 . S
C378 C382 1.524 . S
C379 C371 1.503 1_545 S
C379 C378 1.370 . S
C379 C380 1.393 1_554 S
C380 C379 1.393 1_556 S
C380 C381 1.404 . S
C380 C383 1.551 . S
C381 C377 1.409 1_556 S
C381 C380 1.404 . S
C381 H393 0.929 . S
C382 C378 1.524 . S
C382 H394 0.956 . S
C382 H395 0.961 . S
C382 H396 0.961 . S
C383 C380 1.551 . S
C383 H397 0.958 . S
C383 H398 0.961 . S
C383 H399 0.960 1_545 S
H384 C368 0.931 . S
H385 C373 0.929 . S
H386 C374 0.961 . S
H387 C374 0.962 . S
H388 C374 0.960 . S
H389 C375 0.961 . S
H390 C375 0.961 . S
H391 C375 0.961 . S
H392 C376 0.931 . S
H393 C381 0.929 . S
H394 C382 0.956 . S
H395 C382 0.961 . S
H396 C382 0.961 . S
H397 C383 0.958 . S
H398 C383 0.961 . S
H399 C383 0.960 1_565 S
C400 C401 1.391 . S
C400 C402 1.394 . S
C400 H416 0.931 . S
C401 C400 1.391 . S
C401 C405 1.376 . S
C402 C400 1.394 . S
C402 C403 1.369 . S
C402 C406 1.531 . S
C403 C402 1.369 . S
C403 C404 1.410 . S
C403 C411 1.503 . S
C404 C403 1.410 . S
C404 C405 1.392 . S
C404 C407 1.511 . S
C405 C401 1.376 . S
C405 C404 1.392 . S
C405 H417 0.929 . S
C406 C402 1.531 . S
C406 H418 0.960 . S
C406 H419 0.962 . S
C406 H420 0.960 . S
C407 C404 1.511 . S
C407 H421 0.961 . S
C407 H422 0.961 . S
C407 H423 0.961 . S
C408 C409 1.370 . S
C408 C410 1.363 . S
C408 H424 0.931 . S
C409 C408 1.370 . S
C409 C413 1.408 . S
C410 C408 1.363 . S
C410 C411 1.370 . S
C410 C414 1.524 . S
C411 C403 1.503 . S
C411 C410 1.370 . S
C411 C412 1.403 . S
C412 C411 1.403 . S
C412 C413 1.404 . S
C412 C415 1.539 . S
C413 C409 1.408 . S
C413 C412 1.404 . S
C413 H425 0.930 . S
C414 C410 1.524 . S
C414 H426 0.956 . S
C414 H427 0.961 . S
C414 H428 0.961 . S
C415 C412 1.539 . S
C415 H429 0.958 . S
C415 H430 0.961 . S
C415 H431 0.960 . S
H416 C400 0.931 . S
H417 C405 0.929 . S
H418 C406 0.960 . S
H419 C406 0.962 . S
H420 C406 0.960 . S
H421 C407 0.961 . S
H422 C407 0.961 . S
H423 C407 0.961 . S
H424 C408 0.931 . S
H425 C413 0.930 . S
H426 C414 0.956 . S
H427 C414 0.961 . S
H428 C414 0.961 . S
H429 C415 0.958 . S
H430 C415 0.961 . S
H431 C415 0.960 . S
C432 C433 1.391 . S
C432 C434 1.394 . S
C432 H448 0.931 . S
C433 C432 1.391 . S
C433 C437 1.376 . S
C434 C432 1.394 . S
C434 C435 1.369 . S
C434 C438 1.531 . S
C435 C434 1.369 . S
C435 C436 1.410 . S
C435 C443 1.503 . S
C436 C435 1.410 . S
C436 C437 1.392 . S
C436 C439 1.511 . S
C437 C433 1.376 . S
C437 C436 1.392 . S
C437 H449 0.929 . S
C438 C434 1.531 . S
C438 H450 0.960 . S
C438 H451 0.962 . S
C438 H452 0.960 . S
C439 C436 1.511 . S
C439 H453 0.961 . S
C439 H454 0.961 . S
C439 H455 0.961 . S
C440 C441 1.370 . S
C440 C442 1.363 . S
C440 H456 0.931 . S
C441 C440 1.370 . S
C441 C445 1.408 . S
C442 C440 1.363 . S
C442 C443 1.370 . S
C442 C446 1.524 . S
C443 C435 1.503 . S
C443 C442 1.370 . S
C443 C444 1.403 . S
C444 C443 1.403 . S
C444 C445 1.404 . S
C444 C447 1.539 . S
C445 C441 1.408 . S
C445 C444 1.404 . S
C445 H457 0.930 . S
C446 C442 1.524 . S
C446 H458 0.956 . S
C446 H459 0.961 . S
C446 H460 0.961 . S
C447 C444 1.539 . S
C447 H461 0.958 . S
C447 H462 0.961 . S
C447 H463 0.960 . S
H448 C432 0.931 . S
H449 C437 0.929 . S
H450 C438 0.960 . S
H451 C438 0.962 . S
H452 C438 0.960 . S
H453 C439 0.961 . S
H454 C439 0.961 . S
H455 C439 0.961 . S
H456 C440 0.931 . S
H457 C445 0.930 . S
H458 C446 0.956 . S
H459 C446 0.961 . S
H460 C446 0.961 . S
H461 C447 0.958 . S
H462 C447 0.961 . S
H463 C447 0.960 . S
C464 C465 1.391 . S
C464 C466 1.394 . S
C464 H480 0.931 . S
C465 C464 1.391 . S
C465 C469 1.376 . S
C466 C464 1.394 . S
C466 C467 1.369 . S
C466 C470 1.531 . S
C467 C466 1.369 . S
C467 C468 1.410 . S
C467 C475 1.503 . S
C468 C467 1.410 . S
C468 C469 1.392 . S
C468 C471 1.511 . S
C469 C465 1.376 . S
C469 C468 1.392 . S
C469 H481 0.929 . S
C470 C466 1.531 . S
C470 H482 0.960 . S
C470 H483 0.962 . S
C470 H484 0.960 . S
C471 C468 1.511 . S
C471 H485 0.961 . S
C471 H486 0.961 . S
C471 H487 0.961 . S
C472 C473 1.370 . S
C472 C474 1.363 . S
C472 H488 0.931 . S
C473 C472 1.370 . S
C473 C477 1.408 . S
C474 C472 1.363 . S
C474 C475 1.370 . S
C474 C478 1.524 . S
C475 C467 1.503 . S
C475 C474 1.370 . S
C475 C476 1.403 . S
C476 C475 1.403 . S
C476 C477 1.404 . S
C476 C479 1.539 . S
C477 C473 1.408 . S
C477 C476 1.404 . S
C477 H489 0.930 . S
C478 C474 1.524 . S
C478 H490 0.956 . S
C478 H491 0.961 . S
C478 H492 0.961 . S
C479 C476 1.539 . S
C479 H493 0.958 . S
C479 H494 0.961 . S
C479 H495 0.960 . S
H480 C464 0.931 . S
H481 C469 0.929 . S
H482 C470 0.960 . S
H483 C470 0.962 . S
H484 C470 0.960 . S
H485 C471 0.961 . S
H486 C471 0.961 . S
H487 C471 0.961 . S
H488 C472 0.931 . S
H489 C477 0.930 . S
H490 C478 0.956 . S
H491 C478 0.961 . S
H492 C478 0.961 . S
H493 C479 0.958 . S
H494 C479 0.961 . S
H495 C479 0.960 . S
C496 C497 1.391 . S
C496 C498 1.394 . S
C496 H512 0.931 . S
C497 C496 1.391 . S
C497 C501 1.376 . S
C498 C496 1.394 . S
C498 C499 1.369 . S
C498 C502 1.531 . S
C499 C498 1.369 . S
C499 C500 1.410 . S
C499 C507 1.503 . S
C500 C499 1.410 . S
C500 C501 1.392 . S
C500 C503 1.511 . S
C501 C497 1.376 . S
C501 C500 1.392 . S
C501 H513 0.929 . S
C502 C498 1.531 . S
C502 H514 0.960 . S
C502 H515 0.962 . S
C502 H516 0.960 . S
C503 C500 1.511 . S
C503 H517 0.961 . S
C503 H518 0.961 . S
C503 H519 0.961 . S
C504 C505 1.370 . S
C504 C506 1.363 . S
C504 H520 0.931 . S
C505 C504 1.370 . S
C505 C509 1.408 . S
C506 C504 1.363 . S
C506 C507 1.370 . S
C506 C510 1.524 . S
C507 C499 1.503 . S
C507 C506 1.370 . S
C507 C508 1.403 . S
C508 C507 1.403 . S
C508 C509 1.404 . S
C508 C511 1.539 . S
C509 C505 1.408 . S
C509 C508 1.404 . S
C509 H521 0.930 . S
C510 C506 1.524 . S
C510 H522 0.956 . S
C510 H523 0.961 . S
C510 H524 0.961 . S
C511 C508 1.539 . S
C511 H525 0.958 . S
C511 H526 0.961 . S
C511 H527 0.960 . S
H512 C496 0.931 . S
H513 C501 0.929 . S
H514 C502 0.960 . S
H515 C502 0.962 . S
H516 C502 0.960 . S
H517 C503 0.961 . S
H518 C503 0.961 . S
H519 C503 0.961 . S
H520 C504 0.931 . S
H521 C509 0.930 . S
H522 C510 0.956 . S
H523 C510 0.961 . S
H524 C510 0.961 . S
H525 C511 0.958 . S
H526 C511 0.961 . S
H527 C511 0.960 . S
C528 C529 1.391 . S
C528 C530 1.394 . S
C528 H544 0.931 . S
C529 C528 1.391 . S
C529 C533 1.376 1_554 S
C530 C528 1.394 . S
C530 C531 1.369 . S
C530 C534 1.531 . S
C531 C530 1.369 . S
C531 C532 1.410 1_554 S
C531 C539 1.499 1_554 S
C532 C531 1.410 1_556 S
C532 C533 1.392 . S
C532 C535 1.511 . S
C533 C529 1.376 1_556 S
C533 C532 1.392 . S
C533 H545 0.929 . S
C534 C530 1.531 . S
C534 H546 0.960 . S
C534 H547 0.962 . S
C534 H548 0.960 . S
C535 C532 1.511 . S
C535 H549 0.961 . S
C535 H550 0.961 . S
C535 H551 0.961 . S
C536 C537 1.370 . S
C536 C538 1.363 . S
C536 H552 0.931 . S
C537 C536 1.370 . S
C537 C541 1.408 1_556 S
C538 C536 1.363 . S
C538 C539 1.381 . S
C538 C542 1.524 . S
C539 C531 1.499 1_556 S
C539 C538 1.381 . S
C539 C540 1.396 1_556 S
C540 C539 1.396 1_554 S
C540 C541 1.404 . S
C540 C543 1.539 . S
C541 C537 1.408 1_554 S
C541 C540 1.404 . S
C541 H553 0.930 . S
C542 C538 1.524 . S
C542 H554 0.956 . S
C542 H555 0.961 . S
C542 H556 0.961 . S
C543 C540 1.539 . S
C543 H557 0.958 . S
C543 H558 0.961 . S
C543 H559 0.960 . S
H544 C528 0.931 . S
H545 C533 0.929 . S
H546 C534 0.960 . S
H547 C534 0.962 . S
H548 C534 0.960 . S
H549 C535 0.961 . S
H550 C535 0.961 . S
H551 C535 0.961 . S
H552 C536 0.931 . S
H553 C541 0.930 . S
H554 C542 0.956 . S
H555 C542 0.961 . S
H556 C542 0.961 . S
H557 C543 0.958 . S
H558 C543 0.961 . S
H559 C543 0.960 . S
C560 C561 1.391 . S
C560 C562 1.394 . S
C560 H576 0.931 . S
C561 C560 1.391 . S
C561 C565 1.376 . S
C562 C560 1.394 . S
C562 C563 1.369 . S
C562 C566 1.531 . S
C563 C562 1.369 . S
C563 C564 1.410 . S
C563 C571 1.503 . S
C564 C563 1.410 . S
C564 C565 1.392 . S
C564 C567 1.511 . S
C565 C561 1.376 . S
C565 C564 1.392 . S
C565 H577 0.929 . S
C566 C562 1.531 . S
C566 H578 0.960 . S
C566 H579 0.962 1_554 S
C566 H580 0.960 . S
C567 C564 1.511 . S
C567 H581 0.961 1_554 S
C567 H582 0.961 1_554 S
C567 H583 0.961 . S
C568 C569 1.370 . S
C568 C570 1.363 . S
C568 H584 0.931 . S
C569 C568 1.370 . S
C569 C573 1.408 1_556 S
C570 C568 1.363 . S
C570 C571 1.370 1_556 S
C570 C574 1.524 . S
C571 C563 1.503 . S
C571 C570 1.370 1_554 S
C571 C572 1.403 . S
C572 C571 1.403 . S
C572 C573 1.404 . S
C572 C575 1.539 . S
C573 C569 1.408 1_554 S
C573 C572 1.404 . S
C573 H585 0.930 . S
C574 C570 1.524 . S
C574 H586 0.956 . S
C574 H587 0.961 . S
C574 H588 0.961 . S
C575 C572 1.539 . S
C575 H589 0.958 . S
C575 H590 0.961 . S
C575 H591 0.960 . S
H576 C560 0.931 . S
H577 C565 0.929 . S
H578 C566 0.960 . S
H579 C566 0.962 1_556 S
H580 C566 0.960 . S
H581 C567 0.961 1_556 S
H582 C567 0.961 1_556 S
H583 C567 0.961 . S
H584 C568 0.931 . S
H585 C573 0.930 . S
H586 C574 0.956 . S
H587 C574 0.961 . S
H588 C574 0.961 . S
H589 C575 0.958 . S
H590 C575 0.961 . S
H591 C575 0.960 . S
C592 C593 1.391 1_556 S
C592 C594 1.394 . S
C592 H608 0.931 . S
C593 C592 1.391 1_554 S
C593 C597 1.376 . S
C594 C592 1.394 . S
C594 C595 1.369 . S
C594 C598 1.531 . S
C595 C594 1.369 . S
C595 C596 1.410 1_556 S
C595 C603 1.503 . S
C596 C595 1.410 1_554 S
C596 C597 1.392 . S
C596 C599 1.511 . S
C597 C593 1.376 . S
C597 C596 1.392 . S
C597 H609 0.929 . S
C598 C594 1.531 . S
C598 H610 0.960 . S
C598 H611 0.962 . S
C598 H612 0.960 . S
C599 C596 1.511 . S
C599 H613 0.961 . S
C599 H614 0.961 . S
C599 H615 0.961 . S
C600 C601 1.370 1_554 S
C600 C602 1.363 . S
C600 H616 0.931 . S
C601 C600 1.370 1_556 S
C601 C605 1.408 . S
C602 C600 1.363 . S
C602 C603 1.370 1_554 S
C602 C606 1.524 . S
C603 C595 1.503 . S
C603 C602 1.370 1_556 S
C603 C604 1.403 . S
C604 C603 1.403 . S
C604 C605 1.404 . S
C604 C607 1.539 . S
C605 C601 1.408 . S
C605 C604 1.404 . S
C605 H617 0.930 . S
C606 C602 1.524 . S
C606 H618 0.956 . S
C606 H619 0.961 . S
C606 H620 0.961 . S
C607 C604 1.539 . S
C607 H621 0.958 . S
C607 H622 0.961 . S
C607 H623 0.960 . S
H608 C592 0.931 . S
H609 C597 0.929 . S
H610 C598 0.960 . S
H611 C598 0.962 . S
H612 C598 0.960 . S
H613 C599 0.961 . S
H614 C599 0.961 . S
H615 C599 0.961 . S
H616 C600 0.931 . S
H617 C605 0.930 . S
H618 C606 0.956 . S
H619 C606 0.961 . S
H620 C606 0.961 . S
H621 C607 0.958 . S
H622 C607 0.961 . S
H623 C607 0.960 . S
C624 C625 1.391 . S
C624 C626 1.394 . S
C624 H640 0.931 . S
C625 C624 1.391 . S
C625 C629 1.376 . S
C626 C624 1.394 . S
C626 C627 1.369 . S
C626 C630 1.531 . S
C627 C626 1.369 . S
C627 C628 1.410 . S
C627 C635 1.503 . S
C628 C627 1.410 . S
C628 C629 1.392 . S
C628 C631 1.511 . S
C629 C625 1.376 . S
C629 C628 1.392 . S
C629 H641 0.929 . S
C630 C626 1.531 . S
C630 H642 0.960 . S
C630 H643 0.962 1_554 S
C630 H644 0.960 . S
C631 C628 1.511 . S
C631 H645 0.961 . S
C631 H646 0.954 1_554 S
C631 H647 0.961 . S
C632 C633 1.370 . S
C632 C634 1.363 . S
C632 H648 0.931 . S
C633 C632 1.370 . S
C633 C637 1.408 1_556 S
C634 C632 1.363 . S
C634 C635 1.370 1_556 S
C634 C638 1.524 . S
C635 C627 1.503 . S
C635 C634 1.370 1_554 S
C635 C636 1.403 . S
C636 C635 1.403 . S
C636 C637 1.404 . S
C636 C639 1.539 . S
C637 C633 1.408 1_554 S
C637 C636 1.404 . S
C637 H649 0.930 . S
C638 C634 1.524 . S
C638 H650 0.956 . S
C638 H651 0.961 . S
C638 H652 0.961 . S
C639 C636 1.539 . S
C639 H653 0.958 . S
C639 H654 0.961 . S
C639 H655 0.960 . S
H640 C624 0.931 . S
H641 C629 0.929 . S
H642 C630 0.960 . S
H643 C630 0.962 1_556 S
H644 C630 0.960 . S
H645 C631 0.961 . S
H646 C631 0.954 1_556 S
H647 C631 0.961 . S
H648 C632 0.931 . S
H649 C637 0.930 . S
H650 C638 0.956 . S
H651 C638 0.961 . S
H652 C638 0.961 . S
H653 C639 0.958 . S
H654 C639 0.961 . S
H655 C639 0.960 . S
C656 C657 1.391 . S
C656 C658 1.394 . S
C656 H672 0.931 . S
C657 C656 1.391 . S
C657 C661 1.376 . S
C658 C656 1.394 . S
C658 C659 1.369 . S
C658 C662 1.531 . S
C659 C658 1.369 . S
C659 C660 1.410 . S
C659 C667 1.503 . S
C660 C659 1.410 . S
C660 C661 1.392 . S
C660 C663 1.511 . S
C661 C657 1.376 . S
C661 C660 1.392 . S
C661 H673 0.929 . S
C662 C658 1.531 . S
C662 H674 0.960 . S
C662 H675 0.962 . S
C662 H676 0.960 . S
C663 C660 1.511 . S
C663 H677 0.961 . S
C663 H678 0.961 . S
C663 H679 0.961 . S
C664 C665 1.370 . S
C664 C666 1.363 . S
C664 H680 0.931 . S
C665 C664 1.370 . S
C665 C669 1.408 . S
C666 C664 1.363 . S
C666 C667 1.370 . S
C666 C670 1.524 . S
C667 C659 1.503 . S
C667 C666 1.370 . S
C667 C668 1.403 . S
C668 C667 1.403 . S
C668 C669 1.404 . S
C668 C671 1.539 . S
C669 C665 1.408 . S
C669 C668 1.404 . S
C669 H681 0.930 . S
C670 C666 1.524 . S
C670 H682 0.956 . S
C670 H683 0.961 . S
C670 H684 0.961 . S
C671 C668 1.539 . S
C671 H685 0.958 . S
C671 H686 0.961 . S
C671 H687 0.960 . S
H672 C656 0.931 . S
H673 C661 0.929 . S
H674 C662 0.960 . S
H675 C662 0.962 . S
H676 C662 0.960 . S
H677 C663 0.961 . S
H678 C663 0.961 . S
H679 C663 0.961 . S
H680 C664 0.931 . S
H681 C669 0.930 . S
H682 C670 0.956 . S
H683 C670 0.961 . S
H684 C670 0.961 . S
H685 C671 0.958 . S
H686 C671 0.961 . S
H687 C671 0.960 . S
C688 C689 1.391 . S
C688 C690 1.394 . S
C688 H704 0.931 . S
C689 C688 1.391 . S
C689 C693 1.376 . S
C690 C688 1.394 . S
C690 C691 1.369 . S
C690 C694 1.531 . S
C691 C690 1.369 . S
C691 C692 1.410 . S
C691 C699 1.503 . S
C692 C691 1.410 . S
C692 C693 1.392 . S
C692 C695 1.511 . S
C693 C689 1.376 . S
C693 C692 1.392 . S
C693 H705 0.929 . S
C694 C690 1.531 . S
C694 H706 0.960 . S
C694 H707 0.962 . S
C694 H708 0.960 . S
C695 C692 1.511 . S
C695 H709 0.961 . S
C695 H710 0.961 . S
C695 H711 0.961 . S
C696 C697 1.370 . S
C696 C698 1.363 . S
C696 H712 0.931 . S
C697 C696 1.370 . S
C697 C701 1.408 . S
C698 C696 1.363 . S
C698 C699 1.370 . S
C698 C702 1.524 . S
C699 C691 1.503 . S
C699 C698 1.370 . S
C699 C700 1.403 . S
C700 C699 1.403 . S
C700 C701 1.404 . S
C700 C703 1.539 . S
C701 C697 1.408 . S
C701 C700 1.404 . S
C701 H713 0.930 . S
C702 C698 1.524 . S
C702 H714 0.956 . S
C702 H715 0.961 . S
C702 H716 0.961 . S
C703 C700 1.539 . S
C703 H717 0.958 . S
C703 H718 0.961 . S
C703 H719 0.960 . S
H704 C688 0.931 . S
H705 C693 0.929 . S
H706 C694 0.960 . S
H707 C694 0.962 . S
H708 C694 0.960 . S
H709 C695 0.961 . S
H710 C695 0.961 . S
H711 C695 0.961 . S
H712 C696 0.931 . S
H713 C701 0.930 . S
H714 C702 0.956 . S
H715 C702 0.961 . S
H716 C702 0.961 . S
H717 C703 0.958 . S
H718 C703 0.961 . S
H719 C703 0.960 . S
C720 C721 1.391 . S
C720 C722 1.394 . S
C720 H736 0.931 . S
C721 C720 1.391 . S
C721 C725 1.376 . S
C722 C720 1.394 . S
C722 C723 1.369 . S
C722 C726 1.531 . S
C723 C722 1.369 . S
C723 C724 1.410 . S
C723 C731 1.503 . S
C724 C723 1.410 . S
C724 C725 1.392 . S
C724 C727 1.511 . S
C725 C721 1.376 . S
C725 C724 1.392 . S
C725 H737 0.929 . S
C726 C722 1.531 . S
C726 H738 0.960 . S
C726 H739 0.962 . S
C726 H740 0.960 . S
C727 C724 1.511 . S
C727 H741 0.961 . S
C727 H742 0.961 . S
C727 H743 0.961 . S
C728 C729 1.370 . S
C728 C730 1.363 . S
C728 H744 0.931 . S
C729 C728 1.370 . S
C729 C733 1.408 . S
C730 C728 1.363 . S
C730 C731 1.370 . S
C730 C734 1.524 . S
C731 C723 1.503 . S
C731 C730 1.370 . S
C731 C732 1.403 . S
C732 C731 1.403 . S
C732 C733 1.404 . S
C732 C735 1.539 . S
C733 C729 1.408 . S
C733 C732 1.404 . S
C733 H745 0.930 . S
C734 C730 1.524 . S
C734 H746 0.956 . S
C734 H747 0.961 . S
C734 H748 0.961 . S
C735 C732 1.539 . S
C735 H749 0.958 . S
C735 H750 0.961 . S
C735 H751 0.960 . S
H736 C720 0.931 . S
H737 C725 0.929 . S
H738 C726 0.960 . S
H739 C726 0.962 . S
H740 C726 0.960 . S
H741 C727 0.961 . S
H742 C727 0.961 . S
H743 C727 0.961 . S
H744 C728 0.931 . S
H745 C733 0.930 . S
H746 C734 0.956 . S
H747 C734 0.961 . S
H748 C734 0.961 . S
H749 C735 0.958 . S
H750 C735 0.961 . S
H751 C735 0.960 . S
C752 C753 1.391 . S
C752 C754 1.394 . S
C752 H768 0.931 . S
C753 C752 1.391 . S
C753 C757 1.376 . S
C754 C752 1.394 . S
C754 C755 1.369 . S
C754 C758 1.531 . S
C755 C754 1.369 . S
C755 C756 1.410 . S
C755 C763 1.503 . S
C756 C755 1.410 . S
C756 C757 1.392 . S
C756 C759 1.511 . S
C757 C753 1.376 . S
C757 C756 1.392 . S
C757 H769 0.929 . S
C758 C754 1.531 . S
C758 H770 0.960 . S
C758 H771 0.962 . S
C758 H772 0.960 . S
C759 C756 1.511 . S
C759 H773 0.961 . S
C759 H774 0.961 . S
C759 H775 0.961 . S
C760 C761 1.370 . S
C760 C762 1.363 . S
C760 H776 0.931 . S
C761 C760 1.370 . S
C761 C765 1.408 . S
C762 C760 1.363 . S
C762 C763 1.370 . S
C762 C766 1.524 . S
C763 C755 1.503 . S
C763 C762 1.370 . S
C763 C764 1.403 . S
C764 C763 1.403 . S
C764 C765 1.404 . S
C764 C767 1.539 . S
C765 C761 1.408 . S
C765 C764 1.404 . S
C765 H777 0.930 . S
C766 C762 1.524 . S
C766 H778 0.956 . S
C766 H779 0.961 . S
C766 H780 0.961 . S
C767 C764 1.539 . S
C767 H781 0.958 . S
C767 H782 0.961 . S
C767 H783 0.960 . S
H768 C752 0.931 . S
H769 C757 0.929 . S
H770 C758 0.960 . S
H771 C758 0.962 . S
H772 C758 0.960 . S
H773 C759 0.961 . S
H774 C759 0.961 . S
H775 C759 0.961 . S
H776 C760 0.931 . S
H777 C765 0.930 . S
H778 C766 0.956 . S
H779 C766 0.961 . S
H780 C766 0.961 . S
H781 C767 0.958 . S
H782 C767 0.961 . S
H783 C767 0.960 . S
C784 C785 1.391 . S
C784 C786 1.394 . S
C784 H800 0.931 . S
C785 C784 1.391 . S
C785 C789 1.376 . S
C786 C784 1.394 . S
C786 C787 1.369 . S
C786 C790 1.531 . S
C787 C786 1.369 . S
C787 C788 1.410 . S
C787 C795 1.503 . S
C788 C787 1.410 . S
C788 C789 1.392 . S
C788 C791 1.511 . S
C789 C785 1.376 . S
C789 C788 1.392 . S
C789 H801 0.929 . S
C790 C786 1.531 . S
C790 H802 0.960 . S
C790 H803 0.962 . S
C790 H804 0.960 . S
C791 C788 1.511 . S
C791 H805 0.961 . S
C791 H806 0.961 . S
C791 H807 0.961 . S
C792 C793 1.370 . S
C792 C794 1.363 . S
C792 H808 0.931 . S
C793 C792 1.370 . S
C793 C797 1.408 . S
C794 C792 1.363 . S
C794 C795 1.370 . S
C794 C798 1.524 . S
C795 C787 1.503 . S
C795 C794 1.370 . S
C795 C796 1.403 . S
C796 C795 1.403 . S
C796 C797 1.404 . S
C796 C799 1.539 . S
C797 C793 1.408 . S
C797 C796 1.404 . S
C797 H809 0.930 . S
C798 C794 1.524 . S
C798 H810 0.956 . S
C798 H811 0.961 . S
C798 H812 0.961 . S
C799 C796 1.539 . S
C799 H813 0.958 . S
C799 H814 0.961 . S
C799 H815 0.960 . S
H800 C784 0.931 . S
H801 C789 0.929 . S
H802 C790 0.960 . S
H803 C790 0.962 . S
H804 C790 0.960 . S
H805 C791 0.961 . S
H806 C791 0.961 . S
H807 C791 0.961 . S
H808 C792 0.931 . S
H809 C797 0.930 . S
H810 C798 0.956 . S
H811 C798 0.961 . S
H812 C798 0.961 . S
H813 C799 0.958 . S
H814 C799 0.961 . S
H815 C799 0.960 . S
C816 C817 1.391 . S
C816 C818 1.394 . S
C816 H832 0.931 . S
C817 C816 1.391 . S
C817 C821 1.376 . S
C818 C816 1.394 . S
C818 C819 1.369 . S
C818 C822 1.531 . S
C819 C818 1.369 . S
C819 C820 1.410 . S
C819 C827 1.503 . S
C820 C819 1.410 . S
C820 C821 1.392 . S
C820 C823 1.511 . S
C821 C817 1.376 . S
C821 C820 1.392 . S
C821 H833 0.929 . S
C822 C818 1.531 . S
C822 H834 0.960 . S
C822 H835 0.962 . S
C822 H836 0.960 . S
C823 C820 1.511 . S
C823 H837 0.961 . S
C823 H838 0.961 . S
C823 H839 0.961 . S
C824 C825 1.370 . S
C824 C826 1.363 . S
C824 H840 0.931 . S
C825 C824 1.370 . S
C825 C829 1.408 . S
C826 C824 1.363 . S
C826 C827 1.370 . S
C826 C830 1.524 . S
C827 C819 1.503 . S
C827 C826 1.370 . S
C827 C828 1.403 . S
C828 C827 1.403 . S
C828 C829 1.404 . S
C828 C831 1.539 . S
C829 C825 1.408 . S
C829 C828 1.404 . S
C829 H841 0.930 . S
C830 C826 1.524 . S
C830 H842 0.956 . S
C830 H843 0.961 . S
C830 H844 0.961 . S
C831 C828 1.539 . S
C831 H845 0.958 . S
C831 H846 0.961 . S
C831 H847 0.960 . S
H832 C816 0.931 . S
H833 C821 0.929 . S
H834 C822 0.960 . S
H835 C822 0.962 . S
H836 C822 0.960 . S
H837 C823 0.961 . S
H838 C823 0.961 . S
H839 C823 0.961 . S
H840 C824 0.931 . S
H841 C829 0.930 . S
H842 C830 0.956 . S
H843 C830 0.961 . S
H844 C830 0.961 . S
H845 C831 0.958 . S
H846 C831 0.961 . S
H847 C831 0.960 . S
C848 C849 1.391 . S
C848 C850 1.394 . S
C848 H864 0.931 . S
C849 C848 1.391 . S
C849 C853 1.376 . S
C850 C848 1.394 . S
C850 C851 1.369 . S
C850 C854 1.531 . S
C851 C850 1.369 . S
C851 C852 1.410 . S
C851 C859 1.503 . S
C852 C851 1.410 . S
C852 C853 1.392 . S
C852 C855 1.511 . S
C853 C849 1.376 . S
C853 C852 1.392 . S
C853 H865 0.929 . S
C854 C850 1.531 . S
C854 H866 0.960 . S
C854 H867 0.962 . S
C854 H868 0.960 . S
C855 C852 1.511 . S
C855 H869 0.961 . S
C855 H870 0.961 . S
C855 H871 0.961 . S
C856 C857 1.370 . S
C856 C858 1.363 . S
C856 H872 0.931 . S
C857 C856 1.370 . S
C857 C861 1.408 . S
C858 C856 1.363 . S
C858 C859 1.370 . S
C858 C862 1.524 . S
C859 C851 1.503 . S
C859 C858 1.370 . S
C859 C860 1.403 . S
C860 C859 1.403 . S
C860 C861 1.404 . S
C860 C863 1.539 . S
C861 C857 1.408 . S
C861 C860 1.404 . S
C861 H873 0.930 . S
C862 C858 1.524 . S
C862 H874 0.956 . S
C862 H875 0.961 . S
C862 H876 0.961 . S
C863 C860 1.539 . S
C863 H877 0.958 . S
C863 H878 0.961 . S
C863 H879 0.960 . S
H864 C848 0.931 . S
H865 C853 0.929 . S
H866 C854 0.960 . S
H867 C854 0.962 . S
H868 C854 0.960 . S
H869 C855 0.961 . S
H870 C855 0.961 . S
H871 C855 0.961 . S
H872 C856 0.931 . S
H873 C861 0.930 . S
H874 C862 0.956 . S
H875 C862 0.961 . S
H876 C862 0.961 . S
H877 C863 0.958 . S
H878 C863 0.961 . S
H879 C863 0.960 . S
C880 C881 1.391 . S
C880 C882 1.394 . S
C880 H896 0.931 . S
C881 C880 1.391 . S
C881 C885 1.376 . S
C882 C880 1.394 . S
C882 C883 1.369 . S
C882 C886 1.531 . S
C883 C882 1.369 . S
C883 C884 1.410 . S
C883 C891 1.503 . S
C884 C883 1.410 . S
C884 C885 1.392 . S
C884 C887 1.511 . S
C885 C881 1.376 . S
C885 C884 1.392 . S
C885 H897 0.929 . S
C886 C882 1.531 . S
C886 H898 0.960 . S
C886 H899 0.962 . S
C886 H900 0.960 . S
C887 C884 1.511 . S
C887 H901 0.961 . S
C887 H902 0.961 . S
C887 H903 0.961 . S
C888 C889 1.370 . S
C888 C890 1.363 . S
C888 H904 0.931 . S
C889 C888 1.370 . S
C889 C893 1.408 . S
C890 C888 1.363 . S
C890 C891 1.370 . S
C890 C894 1.524 . S
C891 C883 1.503 . S
C891 C890 1.370 . S
C891 C892 1.403 . S
C892 C891 1.403 . S
C892 C893 1.404 . S
C892 C895 1.539 . S
C893 C889 1.408 . S
C893 C892 1.404 . S
C893 H905 0.930 . S
C894 C890 1.524 . S
C894 H906 0.956 . S
C894 H907 0.961 . S
C894 H908 0.961 . S
C895 C892 1.539 . S
C895 H909 0.958 . S
C895 H910 0.961 . S
C895 H911 0.960 . S
H896 C880 0.931 . S
H897 C885 0.929 . S
H898 C886 0.960 . S
H899 C886 0.962 . S
H900 C886 0.960 . S
H901 C887 0.961 . S
H902 C887 0.961 . S
H903 C887 0.961 . S
H904 C888 0.931 . S
H905 C893 0.930 . S
H906 C894 0.956 . S
H907 C894 0.961 . S
H908 C894 0.961 . S
H909 C895 0.958 . S
H910 C895 0.961 . S
H911 C895 0.960 . S
C273 C101 1.016 . S
C281 C33 1.061 1_565 S
C305 C67 1.002 . S
C313 C135 1.044 1_655 S
C337 C169 1.005 . S
C345 C237 1.046 . S
C369 C271 1.052 . S
C377 C203 1.066 . S
C401 C122 1.555 . S
C409 C20 1.549 . S
C433 C9 1.750 . S
C441 C43 1.756 . S
C465 C88 1.540 . S
C473 C54 1.555 . S
C497 C77 1.748 . S
C505 C111 1.755 . S
C529 C258 1.542 . S
C537 C156 1.554 . S
C561 C145 1.750 . S
C569 C179 1.756 . S
C593 C190 1.556 . S
C601 C224 1.547 . S
C625 C213 1.750 . S
C633 C247 1.756 . S
C657 C5 0.451 . S
C665 C175 0.583 . S
C689 C36 1.321 . S
C697 C206 1.313 . S
C721 C73 0.636 . S
C729 C243 0.511 . S
C753 C104 1.333 . S
C761 C138 1.318 . S
C785 C70 1.314 . S
C793 C172 1.326 . S
C817 C107 0.505 . S
C825 C209 0.574 . S
C849 C2 1.288 . S
C857 C240 1.310 . S
C881 C39 0.590 . S
C889 C141 0.513 . S
