# Generated by pormake.
# Topology ske, (6)-cn, num edge types: 1
# Building blocks:
#     Node 0, Type 0, BuildingBlock: BETDAH_clean_sbu_0, # of connection points: 6
#     Node 1, Type 0, BuildingBlock: BETDAH_clean_sbu_0, # of connection points: 6
#     Node 2, Type 0, BuildingBlock: BETDAH_clean_sbu_0, # of connection points: 6
#     Node 3, Type 0, BuildingBlock: BETDAH_clean_sbu_0, # of connection points: 6
#     Node 4, Type 0, BuildingBlock: BETDAH_clean_sbu_0, # of connection points: 6
#     Node 5, Type 0, BuildingBlock: BETDAH_clean_sbu_0, # of connection points: 6
#     Node 6, Type 0, BuildingBlock: BETDAH_clean_sbu_0, # of connection points: 6
#     Node 7, Type 0, BuildingBlock: BETDAH_clean_sbu_0, # of connection points: 6
#     Edge 8, Type (0, 0), BuildingBlock: XUDNAN_clean_linker_2, # of connection points: 2
#     Edge 9, Type (0, 0), BuildingBlock: XUDNAN_clean_linker_2, # of connection points: 2
#     Edge 10, Type (0, 0), BuildingBlock: XUDNAN_clean_linker_2, # of connection points: 2
#     Edge 11, Type (0, 0), BuildingBlock: XUDNAN_clean_linker_2, # of connection points: 2
#     Edge 12, Type (0, 0), BuildingBlock: XUDNAN_clean_linker_2, # of connection points: 2
#     Edge 13, Type (0, 0), BuildingBlock: XUDNAN_clean_linker_2, # of connection points: 2
#     Edge 14, Type (0, 0), BuildingBlock: XUDNAN_clean_linker_2, # of connection points: 2
#     Edge 15, Type (0, 0), BuildingBlock: XUDNAN_clean_linker_2, # of connection points: 2
#     Edge 16, Type (0, 0), BuildingBlock: XUDNAN_clean_linker_2, # of connection points: 2
#     Edge 17, Type (0, 0), BuildingBlock: XUDNAN_clean_linker_2, # of connection points: 2
#     Edge 18, Type (0, 0), BuildingBlock: XUDNAN_clean_linker_2, # of connection points: 2
#     Edge 19, Type (0, 0), BuildingBlock: XUDNAN_clean_linker_2, # of connection points: 2
#     Edge 20, Type (0, 0), BuildingBlock: XUDNAN_clean_linker_2, # of connection points: 2
#     Edge 21, Type (0, 0), BuildingBlock: XUDNAN_clean_linker_2, # of connection points: 2
#     Edge 22, Type (0, 0), BuildingBlock: XUDNAN_clean_linker_2, # of connection points: 2
#     Edge 23, Type (0, 0), BuildingBlock: XUDNAN_clean_linker_2, # of connection points: 2
#     Edge 24, Type (0, 0), BuildingBlock: XUDNAN_clean_linker_2, # of connection points: 2
#     Edge 25, Type (0, 0), BuildingBlock: XUDNAN_clean_linker_2, # of connection points: 2
#     Edge 26, Type (0, 0), BuildingBlock: XUDNAN_clean_linker_2, # of connection points: 2
#     Edge 27, Type (0, 0), BuildingBlock: XUDNAN_clean_linker_2, # of connection points: 2
#     Edge 28, Type (0, 0), BuildingBlock: XUDNAN_clean_linker_2, # of connection points: 2
#     Edge 29, Type (0, 0), BuildingBlock: XUDNAN_clean_linker_2, # of connection points: 2
#     Edge 30, Type (0, 0), BuildingBlock: XUDNAN_clean_linker_2, # of connection points: 2
#     Edge 31, Type (0, 0), BuildingBlock: XUDNAN_clean_linker_2, # of connection points: 2
# Relax obj value: 0.206
# Max RMSD: 0.210
# Mean RMSD: 0.203
data_MOF--net-ske--node1-BETDAH_clean_sbu_0--edge1-XUDNAN_clean_linker_2
_symmetry_space_group_name_H-M    P1
_symmetry_Int_Tables_number       1
_symmetry_cell_setting            triclinic
loop_
_symmetry_equiv_pos_as_xyz
'x, y, z'
_cell_length_a     101.80578
_cell_length_b     29.115222
_cell_length_c     15.514682
_cell_angle_alpha  89.961809
_cell_angle_beta   90.18568
_cell_angle_gamma 83.980443
loop_
_atom_site_label
_atom_site_type_symbol
_atom_site_fract_x
_atom_site_fract_y
_atom_site_fract_z
_atom_type_partial_charge
Ho0 Ho 0.16345 0.25866 0.49981 0.0
Ho1 Ho 0.13488 0.25253 0.50956 0.0
C2 C 0.15001 0.24733 0.68667 0.0
C3 C 0.18758 0.27947 0.51228 0.0
C4 C 0.20029 0.26668 0.55784 0.0
C5 C 0.2041 0.29278 0.62818 0.0
C6 C 0.21677 0.28401 0.66431 0.0
C7 C 0.22593 0.24914 0.6305 0.0
C8 C 0.22203 0.22297 0.56047 0.0
C9 C 0.20941 0.23151 0.52487 0.0
C10 C 0.1572 0.17066 0.48463 0.0
C11 C 0.14856 0.25764 0.3221 0.0
C12 C 0.11041 0.23461 0.50165 0.0
C13 C 0.09694 0.24663 0.46589 0.0
C14 C 0.09245 0.22174 0.39601 0.0
C15 C 0.07905 0.22626 0.37322 0.0
C16 C 0.0698 0.25554 0.4202 0.0
C17 C 0.07439 0.28187 0.48773 0.0
C18 C 0.08778 0.27742 0.5104 0.0
C19 C 0.14213 0.34038 0.51626 0.0
O20 O 0.1597 0.26396 0.64418 0.0
O21 O 0.14016 0.23139 0.64509 0.0
O22 O 0.1837 0.24943 0.45792 0.0
O23 O 0.17774 0.30083 0.55538 0.0
O24 O 0.1667 0.18774 0.445 0.0
O25 O 0.1518 0.2002 0.53682 0.0
O26 O 0.13903 0.24121 0.3667 0.0
O27 O 0.15828 0.27569 0.36177 0.0
O28 O 0.11488 0.26295 0.55698 0.0
O29 O 0.1197 0.21501 0.4518 0.0
O30 O 0.13274 0.32599 0.56123 0.0
O31 O 0.14662 0.30859 0.46689 0.0
H32 H 0.19739 0.32061 0.65426 0.0
H33 H 0.21936 0.30462 0.71862 0.0
H34 H 0.22887 0.19656 0.53117 0.0
H35 H 0.20695 0.21128 0.46965 0.0
H36 H 0.09919 0.19712 0.36134 0.0
H37 H 0.07585 0.2051 0.32139 0.0
H38 H 0.06759 0.3053 0.52444 0.0
H39 H 0.09082 0.29673 0.56527 0.0
Ho40 Ho 0.87852 0.26496 0.50267 0.0
Ho41 Ho 0.90773 0.26027 0.51512 0.0
C42 C 0.89248 0.26467 0.6902 0.0
C43 C 0.85332 0.25842 0.51006 0.0
C44 C 0.84185 0.25328 0.56649 0.0
C45 C 0.83785 0.2094 0.5828 0.0
C46 C 0.82592 0.20486 0.62467 0.0
C47 C 0.81766 0.24407 0.65142 0.0
C48 C 0.82179 0.28798 0.63642 0.0
C49 C 0.83371 0.29253 0.59421 0.0
C50 C 0.88821 0.34688 0.48209 0.0
C51 C 0.89404 0.25628 0.32474 0.0
C52 C 0.93247 0.27448 0.51042 0.0
C53 C 0.94585 0.2643 0.47276 0.0
C54 C 0.94983 0.28897 0.4011 0.0
C55 C 0.96317 0.28577 0.37704 0.0
C56 C 0.97282 0.25819 0.4246 0.0
C57 C 0.96872 0.23215 0.49397 0.0
C58 C 0.95543 0.23524 0.51779 0.0
C59 C 0.89803 0.17655 0.52697 0.0
O60 O 0.88243 0.25175 0.64541 0.0
O61 O 0.90281 0.27866 0.65142 0.0
O62 O 0.85855 0.29747 0.51333 0.0
O63 O 0.86216 0.22288 0.49925 0.0
O64 O 0.87893 0.3325 0.43554 0.0
O65 O 0.89208 0.31724 0.5388 0.0
O66 O 0.9049 0.26075 0.36996 0.0
O67 O 0.88255 0.25283 0.36207 0.0
O68 O 0.92786 0.24254 0.55723 0.0
O69 O 0.92324 0.29921 0.46669 0.0
O70 O 0.90825 0.18793 0.56832 0.0
O71 O 0.89418 0.2089 0.47603 0.0
H72 H 0.84372 0.1785 0.56068 0.0
H73 H 0.82298 0.17049 0.63353 0.0
H74 H 0.81578 0.31893 0.65689 0.0
H75 H 0.83637 0.32692 0.58129 0.0
H76 H 0.94276 0.31227 0.36582 0.0
H77 H 0.96599 0.30657 0.32366 0.0
H78 H 0.97583 0.21 0.53119 0.0
H79 H 0.95275 0.21627 0.57405 0.0
Ho80 Ho 0.13314 0.75953 0.5339 0.0
Ho81 Ho 0.16293 0.75473 0.54441 0.0
C82 C 0.1475 0.76065 0.72281 0.0
C83 C 0.10877 0.7418 0.53711 0.0
C84 C 0.09575 0.74695 0.57932 0.0
C85 C 0.08846 0.7087 0.58028 0.0
C86 C 0.07522 0.71354 0.60503 0.0
C87 C 0.06896 0.75687 0.62948 0.0
C88 C 0.07645 0.79489 0.63224 0.0
C89 C 0.08973 0.79001 0.60714 0.0
C90 C 0.14239 0.84284 0.52887 0.0
C91 C 0.14862 0.76015 0.35718 0.0
C92 C 0.18799 0.76377 0.53705 0.0
C93 C 0.19985 0.76345 0.48173 0.0
C94 C 0.20194 0.80169 0.43016 0.0
C95 C 0.21426 0.80504 0.39241 0.0
C96 C 0.22482 0.77046 0.40579 0.0
C97 C 0.22249 0.73094 0.45305 0.0
C98 C 0.21015 0.72758 0.49082 0.0
C99 C 0.15264 0.67215 0.54601 0.0
O100 O 0.13665 0.75411 0.6788 0.0
O101 O 0.15865 0.76766 0.68421 0.0
O102 O 0.11275 0.77824 0.50019 0.0
O103 O 0.11839 0.71468 0.5724 0.0
O104 O 0.13177 0.83337 0.48969 0.0
O105 O 0.147 0.80921 0.57509 0.0
O106 O 0.15898 0.77005 0.40265 0.0
O107 O 0.13803 0.74688 0.39449 0.0
O108 O 0.18327 0.72448 0.55145 0.0
O109 O 0.17874 0.79837 0.53036 0.0
O110 O 0.16242 0.68182 0.59387 0.0
O111 O 0.14908 0.70631 0.49872 0.0
H112 H 0.09288 0.67526 0.55843 0.0
H113 H 0.06981 0.68344 0.60349 0.0
H114 H 0.0719 0.82881 0.65019 0.0
H115 H 0.09512 0.82018 0.60634 0.0
H116 H 0.19425 0.83004 0.42194 0.0
H117 H 0.21565 0.83556 0.35496 0.0
H118 H 0.2304 0.7038 0.46511 0.0
H119 H 0.20889 0.69791 0.53099 0.0
Ho120 Ho 0.90804 0.76227 0.53088 0.0
Ho121 Ho 0.8787 0.75809 0.53901 0.0
C122 C 0.89394 0.75239 0.71721 0.0
C123 C 0.93211 0.78354 0.53655 0.0
C124 C 0.94512 0.7774 0.58026 0.0
C125 C 0.95016 0.81606 0.6164 0.0
C126 C 0.96338 0.81393 0.64217 0.0
C127 C 0.97189 0.77295 0.63249 0.0
C128 C 0.96667 0.73356 0.59988 0.0
C129 C 0.95344 0.73576 0.57386 0.0
C130 C 0.901 0.67574 0.51921 0.0
C131 C 0.89283 0.75806 0.35293 0.0
C132 C 0.85438 0.73923 0.52935 0.0
C133 C 0.84195 0.74684 0.47976 0.0
C134 C 0.83447 0.70953 0.46775 0.0
C135 C 0.82213 0.71584 0.42716 0.0
C136 C 0.81699 0.75977 0.39767 0.0
C137 C 0.82457 0.79715 0.40939 0.0
C138 C 0.83694 0.79075 0.44985 0.0
C139 C 0.88666 0.8449 0.53864 0.0
O140 O 0.90408 0.76749 0.67619 0.0
O141 O 0.8838 0.73914 0.67437 0.0
O142 O 0.92841 0.74843 0.49391 0.0
O143 O 0.92225 0.80824 0.57417 0.0
O144 O 0.91095 0.6902 0.4801 0.0
O145 O 0.89566 0.70676 0.56856 0.0
O146 O 0.88295 0.74492 0.39862 0.0
O147 O 0.90286 0.77552 0.39073 0.0
O148 O 0.85815 0.77413 0.57245 0.0
O149 O 0.86424 0.71376 0.49397 0.0
O150 O 0.87682 0.83308 0.58313 0.0
O151 O 0.89119 0.81107 0.49401 0.0
H152 H 0.94406 0.84877 0.62073 0.0
H153 H 0.96705 0.84518 0.66572 0.0
H154 H 0.97287 0.70122 0.59274 0.0
H155 H 0.9499 0.70532 0.54566 0.0
H156 H 0.83813 0.67541 0.49083 0.0
H157 H 0.81668 0.68618 0.41824 0.0
H158 H 0.82085 0.8316 0.38858 0.0
H159 H 0.84248 0.82021 0.45888 0.0
Ho160 Ho 0.66403 0.7531 0.02861 0.0
Ho161 Ho 0.63472 0.76178 0.03241 0.0
C162 C 0.64909 0.75445 0.21389 0.0
C163 C 0.6891 0.76045 0.0439 0.0
C164 C 0.70056 0.76333 0.1022 0.0
C165 C 0.70499 0.80658 0.11846 0.0
C166 C 0.7174 0.80967 0.1552 0.0
C167 C 0.72573 0.76961 0.17615 0.0
C168 C 0.72095 0.72637 0.16586 0.0
C169 C 0.70849 0.72323 0.12876 0.0
C170 C 0.65327 0.67205 1.01116 0.0
C171 C 0.65022 0.75779 0.8482 0.0
C172 C 0.60994 0.75547 1.01145 0.0
C173 C 0.59572 0.75196 0.99941 0.0
C174 C 0.59084 0.70871 1.00355 0.0
C175 C 0.57729 0.7055 0.99948 0.0
C176 C 0.56838 0.74541 0.99063 0.0
C177 C 0.57324 0.78851 0.98214 0.0
C178 C 0.58684 0.7918 0.98683 0.0
C179 C 0.64507 0.84206 0.05429 0.0
O180 O 0.6599 0.76113 0.17052 0.0
O181 O 0.63782 0.74919 0.17442 0.0
O182 O 0.68417 0.72099 0.03639 0.0
O183 O 0.68008 0.79587 0.03975 0.0
O184 O 0.66334 0.68302 0.9679 0.0
O185 O 0.64966 0.70414 0.06306 0.0
O186 O 0.6393 0.75031 0.88974 0.0
O187 O 0.66092 0.76676 0.88961 0.0
O188 O 0.61495 0.79495 1.00959 0.0
O189 O 0.61847 0.71938 0.02556 0.0
O190 O 0.63513 0.82998 0.09745 0.0
O191 O 0.64901 0.81147 0.99977 0.0
H192 H 0.69921 0.83811 0.09821 0.0
H193 H 0.72074 0.84352 0.16359 0.0
H194 H 0.72716 0.69489 0.18115 0.0
H195 H 0.70544 0.68932 0.1164 0.0
H196 H 0.59746 0.67742 1.01247 0.0
H197 H 0.57371 0.6719 1.00591 0.0
H198 H 0.56651 0.81975 0.97614 0.0
H199 H 0.59035 0.82559 0.98312 0.0
Ho200 Ho 0.37734 0.75797 0.03677 0.0
Ho201 Ho 0.40655 0.7589 0.04599 0.0
C202 C 0.39129 0.75939 0.22339 0.0
C203 C 0.35281 0.74199 0.04937 0.0
C204 C 0.34068 0.75224 0.1017 0.0
C205 C 0.33601 0.71731 0.1522 0.0
C206 C 0.32374 0.72456 0.1935 0.0
C207 C 0.31582 0.76691 0.18483 0.0
C208 C 0.32061 0.80199 0.13498 0.0
C209 C 0.33287 0.79482 0.09419 0.0
C210 C 0.38583 0.84329 0.0309 0.0
C211 C 0.39189 0.75481 0.85961 0.0
C212 C 0.43079 0.77806 0.03825 0.0
C213 C 0.44418 0.76527 1.00412 0.0
C214 C 0.45147 0.80048 0.97467 0.0
C215 C 0.46517 0.79227 0.96447 0.0
C216 C 0.47176 0.74872 0.98419 0.0
C217 C 0.46428 0.71244 1.00597 0.0
C218 C 0.45061 0.7206 1.01586 0.0
C219 C 0.39837 0.67271 0.04773 0.0
O220 O 0.38147 0.74608 0.17735 0.0
O221 O 0.40166 0.7741 0.18548 0.0
O222 O 0.35681 0.77552 1.00349 0.0
O223 O 0.36261 0.7153 0.0833 0.0
O224 O 0.37597 0.83122 0.9867 0.0
O225 O 0.39018 0.8107 0.07963 0.0
O226 O 0.40211 0.76928 0.90129 0.0
O227 O 0.38231 0.73824 0.90255 0.0
O228 O 0.4264 0.75028 0.09492 0.0
O229 O 0.42156 0.7967 0.98652 0.0
O230 O 0.40873 0.68404 0.08752 0.0
O231 O 0.39379 0.70635 1.00249 0.0
H232 H 0.34172 0.6839 0.15827 0.0
H233 H 0.32048 0.69692 0.23203 0.0
H234 H 0.31471 0.83475 0.12521 0.0
H235 H 0.33603 0.82232 0.0548 0.0
H236 H 0.44672 0.83524 0.9657 0.0
H237 H 0.47068 0.82087 0.94789 0.0
H238 H 0.46912 0.67836 1.02037 0.0
H239 H 0.44524 0.69271 0.0383 0.0
Ho240 Ho 0.6352 0.25248 0.99442 0.0
Ho241 Ho 0.66444 0.25763 1.00342 0.0
C242 C 0.64936 0.2626 0.18097 0.0
C243 C 0.61102 0.23169 0.99962 0.0
C244 C 0.59753 0.24036 0.03533 0.0
C245 C 0.59028 0.20257 0.0482 0.0
C246 C 0.5768 0.20928 0.06763 0.0
C247 C 0.57024 0.25409 0.07467 0.0
C248 C 0.57765 0.29202 0.06443 0.0
C249 C 0.59115 0.28525 0.04486 0.0
C250 C 0.6427 0.34011 0.99076 0.0
C251 C 0.65049 0.25264 0.81721 0.0
C252 C 0.68856 0.27787 0.99108 0.0
C253 C 0.70078 0.26915 0.93989 0.0
C254 C 0.70819 0.30612 0.92291 0.0
C255 C 0.72083 0.29827 0.88739 0.0
C256 C 0.72635 0.25313 0.86826 0.0
C257 C 0.71858 0.2164 0.88069 0.0
C258 C 0.70592 0.22428 0.91629 0.0
C259 C 0.65746 0.17142 0.02219 0.0
O260 O 0.63929 0.24652 0.14014 0.0
O261 O 0.65905 0.27817 0.13707 0.0
O262 O 0.61508 0.26336 0.94965 0.0
O263 O 0.62048 0.21092 0.04722 0.0
O264 O 0.63263 0.32749 0.94952 0.0
O265 O 0.6475 0.30684 0.03587 0.0
O266 O 0.66031 0.26607 0.8629 0.0
O267 O 0.6402 0.23732 0.85498 0.0
O268 O 0.68503 0.24362 0.03698 0.0
O269 O 0.67852 0.30278 0.95595 0.0
O270 O 0.66716 0.18759 0.06173 0.0
O271 O 0.65224 0.20067 0.9684 0.0
H272 H 0.59495 0.16765 0.04021 0.0
H273 H 0.57149 0.17927 0.07631 0.0
H274 H 0.57292 0.32705 0.06842 0.0
H275 H 0.59647 0.31508 0.03425 0.0
H276 H 0.70442 0.34099 0.94082 0.0
H277 H 0.72654 0.32734 0.87923 0.0
H278 H 0.72241 0.1813 0.86499 0.0
H279 H 0.70039 0.19512 0.92816 0.0
Ho280 Ho 0.40769 0.25638 0.99483 0.0
Ho281 Ho 0.37804 0.25996 1.00436 0.0
C282 C 0.39334 0.25354 0.18288 0.0
C283 C 0.43232 0.27173 0.99639 0.0
C284 C 0.44569 0.26935 0.03536 0.0
C285 C 0.45099 0.31081 0.05373 0.0
C286 C 0.46435 0.311 0.07436 0.0
C287 C 0.47284 0.26958 0.07787 0.0
C288 C 0.46743 0.22776 0.06198 0.0
C289 C 0.45402 0.22765 0.04061 0.0
C290 C 0.39816 0.17259 0.99366 0.0
C291 C 0.39223 0.25528 0.81791 0.0
C292 C 0.35306 0.24958 0.99688 0.0
C293 C 0.34117 0.25181 0.94134 0.0
C294 C 0.34056 0.22353 0.86841 0.0
C295 C 0.32852 0.22078 0.82582 0.0
C296 C 0.31685 0.24608 0.85539 0.0
C297 C 0.31766 0.27616 0.92559 0.0
C298 C 0.32968 0.27887 0.96814 0.0
C299 C 0.38783 0.34268 1.0102 0.0
O300 O 0.40399 0.26405 0.14059 0.0
O301 O 0.38266 0.24372 0.14136 0.0
O302 O 0.42811 0.23397 0.96631 0.0
O303 O 0.42282 0.30104 0.02688 0.0
O304 O 0.40833 0.18229 0.95005 0.0
O305 O 0.3941 0.20687 0.03896 0.0
O306 O 0.38206 0.24479 0.86403 0.0
O307 O 0.40277 0.26944 0.85495 0.0
O308 O 0.35759 0.28849 1.01725 0.0
O309 O 0.36246 0.21602 0.98429 0.0
O310 O 0.37813 0.33186 0.05702 0.0
O311 O 0.39164 0.3097 0.9608 0.0
H312 H 0.44492 0.34355 0.04811 0.0
H313 H 0.4681 0.34406 0.08402 0.0
H314 H 0.47357 0.19511 0.06496 0.0
H315 H 0.45029 0.19507 0.02556 0.0
H316 H 0.34926 0.20232 0.84602 0.0
H317 H 0.3283 0.19788 0.77097 0.0
H318 H 0.30888 0.29583 0.95062 0.0
H319 H 0.32988 0.30066 0.02463 0.0
H320 H 0.24229 0.31209 0.69279 0.0
H321 H 0.24054 0.16526 0.65084 0.0
H322 H 0.26351 0.1496 0.70067 0.0
H323 H 0.27561 0.31695 0.62769 0.0
H324 H 0.27944 0.35695 0.71039 0.0
H325 H 0.26274 0.35737 0.67165 0.0
H326 H 0.25465 0.34587 0.82755 0.0
H327 H 0.27133 0.34556 0.86678 0.0
H328 H 0.26202 0.29774 0.89036 0.0
H329 H 0.28665 0.14917 0.75122 0.0
H330 H 0.30847 0.16371 0.80732 0.0
H331 H 0.29547 0.31047 0.82102 0.0
C332 C 0.24665 0.27656 0.69522 0.0
C333 C 0.23956 0.23998 0.66668 0.0
C334 C 0.24577 0.19407 0.67027 0.0
C335 C 0.25882 0.18471 0.69912 0.0
C336 C 0.26555 0.22148 0.72539 0.0
C337 C 0.25968 0.26646 0.72472 0.0
C338 C 0.26919 0.29943 0.75731 0.0
C339 C 0.2719 0.33475 0.68757 0.0
C340 C 0.26399 0.32357 0.84044 0.0
C341 C 0.28134 0.26589 0.77502 0.0
C342 C 0.27898 0.22115 0.75607 0.0
C343 C 0.28865 0.18405 0.76629 0.0
C344 C 0.30107 0.19276 0.79741 0.0
C345 C 0.30378 0.23827 0.81797 0.0
C346 C 0.29372 0.27526 0.80637 0.0
H347 H 0.74056 0.30366 0.7572 0.0
H348 H 0.74426 0.18254 0.92271 0.0
H349 H 0.76778 0.1678 0.88511 0.0
H350 H 0.76262 0.2563 0.59051 0.0
H351 H 0.76963 0.30967 0.57095 0.0
H352 H 0.75295 0.31079 0.60982 0.0
H353 H 0.75878 0.36106 0.73933 0.0
H354 H 0.77549 0.35993 0.70096 0.0
H355 H 0.7724 0.34086 0.80885 0.0
H356 H 0.79086 0.16667 0.83382 0.0
H357 H 0.81221 0.17778 0.7675 0.0
H358 H 0.79386 0.29878 0.63223 0.0
C359 C 0.74632 0.27409 0.78565 0.0
C360 C 0.74046 0.24397 0.84231 0.0
C361 C 0.74838 0.20555 0.87771 0.0
C362 C 0.76181 0.19709 0.85741 0.0
C363 C 0.76724 0.22737 0.80169 0.0
C364 C 0.75979 0.26504 0.76599 0.0
C365 C 0.76816 0.29195 0.70755 0.0
C366 C 0.76304 0.29216 0.61417 0.0
C367 C 0.76874 0.34138 0.74122 0.0
C368 C 0.78146 0.2634 0.71626 0.0
C369 C 0.78067 0.22647 0.77117 0.0
C370 C 0.7916 0.19528 0.79018 0.0
C371 C 0.80369 0.20174 0.75162 0.0
C372 C 0.80478 0.23891 0.69393 0.0
C373 C 0.79346 0.27025 0.67659 0.0
H374 H 0.29711 0.70498 0.20581 0.0
H375 H 0.30444 0.84661 0.25921 0.0
H376 H 0.28216 0.86192 0.32004 0.0
H377 H 0.26329 0.72759 0.14679 0.0
H378 H 0.25808 0.67737 0.19935 0.0
H379 H 0.27475 0.67652 0.16057 0.0
H380 H 0.28374 0.65449 0.31304 0.0
H381 H 0.26708 0.65506 0.35223 0.0
H382 H 0.27836 0.69025 0.4037 0.0
H383 H 0.25912 0.86341 0.37106 0.0
H384 H 0.23666 0.85012 0.4154 0.0
H385 H 0.24393 0.70703 0.33388 0.0
C386 C 0.29413 0.73904 0.23145 0.0
C387 C 0.30258 0.77474 0.22658 0.0
C388 C 0.29813 0.81891 0.26015 0.0
C389 C 0.2855 0.82792 0.29556 0.0
C390 C 0.2774 0.79231 0.29818 0.0
C391 C 0.28153 0.74861 0.26791 0.0
C392 C 0.27076 0.71667 0.27877 0.0
C393 C 0.26647 0.69848 0.19114 0.0
C394 C 0.27526 0.67676 0.34062 0.0
C395 C 0.25989 0.74963 0.31849 0.0
C396 C 0.264 0.79301 0.32907 0.0
C397 C 0.25576 0.82961 0.36314 0.0
C398 C 0.24295 0.82178 0.38736 0.0
C399 C 0.23842 0.7777 0.37725 0.0
C400 C 0.24709 0.74109 0.34268 0.0
H401 H 0.74083 0.72443 0.30597 0.0
H402 H 0.74249 0.82224 0.09591 0.0
H403 H 0.76579 0.8296 0.13001 0.0
H404 H 0.76159 0.78141 0.45241 0.0
H405 H 0.76972 0.72855 0.49648 0.0
H406 H 0.7531 0.73013 0.45559 0.0
H407 H 0.7604 0.66215 0.35304 0.0
H408 H 0.77705 0.66039 0.39357 0.0
H409 H 0.77388 0.6669 0.27961 0.0
H410 H 0.78867 0.82669 0.18415 0.0
H411 H 0.8102 0.81435 0.25766 0.0
H412 H 0.79415 0.71991 0.43645 0.0
C413 C 0.74614 0.74725 0.26719 0.0
C414 C 0.73978 0.77321 0.19886 0.0
C415 C 0.74705 0.80276 0.1496 0.0
C416 C 0.76033 0.80694 0.16804 0.0
C417 C 0.76626 0.78137 0.23604 0.0
C418 C 0.75945 0.75215 0.28516 0.0
C419 C 0.76827 0.72934 0.35559 0.0
C420 C 0.76284 0.7432 0.44533 0.0
C421 C 0.77 0.67656 0.34476 0.0
C422 C 0.78106 0.75018 0.33757 0.0
C423 C 0.77962 0.78003 0.26825 0.0
C424 C 0.78994 0.80358 0.23889 0.0
C425 C 0.80212 0.7966 0.28158 0.0
C426 C 0.80391 0.76647 0.35336 0.0
C427 C 0.79318 0.74288 0.38137 0.0
H428 H 0.13603 0.9212 0.62513 0.0
H429 H 0.15989 0.86595 0.41089 0.0
H430 H 0.16601 0.94401 0.37839 0.0
H431 H 0.12326 0.02554 0.52642 0.0
H432 H 0.12401 0.06157 0.6204 0.0
H433 H 0.12224 1.001 0.63262 0.0
H434 H 0.14312 0.99061 0.72916 0.0
H435 H 0.14484 0.05134 0.71847 0.0
H436 H 0.15836 0.00914 0.69001 0.0
H437 H 0.16798 0.02696 0.36073 0.0
H438 H 0.16798 0.11109 0.36652 0.0
H439 H 0.14331 0.11638 0.59492 0.0
C440 C 0.14284 0.92565 0.57301 0.0
C441 C 0.14775 0.88769 0.52125 0.0
C442 C 0.15629 0.89455 0.45206 0.0
C443 C 0.15973 0.93877 0.43289 0.0
C444 C 0.15454 0.97575 0.48377 0.0
C445 C 0.14646 0.96981 0.55335 0.0
C446 C 0.14212 0.01602 0.59614 0.0
C447 C 0.12701 0.02664 0.59371 0.0
C448 C 0.14743 0.01682 0.68896 0.0
C449 C 0.14879 0.04888 0.53837 0.0
C450 C 0.15586 0.02449 0.47412 0.0
C451 C 0.16266 0.04639 0.41139 0.0
C452 C 0.16256 0.09434 0.41528 0.0
C453 C 0.15578 0.12042 0.48162 0.0
C454 C 0.14862 0.0974 0.54358 0.0
H455 H 0.89131 0.40958 0.61397 0.0
H456 H 0.89164 0.39277 0.33621 0.0
H457 H 0.89362 0.4758 0.31793 0.0
H458 H 0.87137 0.51948 0.61266 0.0
H459 H 0.87983 0.54389 0.70102 0.0
H460 H 0.87926 0.48231 0.69481 0.0
H461 H 0.90479 0.46913 0.70142 0.0
H462 H 0.90542 0.5306 0.70918 0.0
H463 H 0.91438 0.49821 0.62512 0.0
H464 H 0.89516 0.55888 0.32702 0.0
H465 H 0.89788 0.63959 0.36353 0.0
H466 H 0.89552 0.60755 0.63569 0.0
C467 C 0.89214 0.42345 0.54966 0.0
C468 C 0.89156 0.39484 0.47618 0.0
C469 C 0.89223 0.41416 0.39298 0.0
C470 C 0.89327 0.46127 0.38199 0.0
C471 C 0.89343 0.48894 0.45499 0.0
C472 C 0.89297 0.47106 0.53735 0.0
C473 C 0.89298 0.50948 0.60404 0.0
C474 C 0.8801 0.51404 0.65622 0.0
C475 C 0.90512 0.50137 0.66344 0.0
C476 C 0.89376 0.55134 0.54597 0.0
C477 C 0.8939 0.53828 0.46028 0.0
C478 C 0.89499 0.56969 0.39376 0.0
C479 C 0.89645 0.61548 0.41507 0.0
C480 C 0.89668 0.62981 0.502 0.0
C481 C 0.89503 0.59761 0.5686 0.0
H482 H 0.87945 0.92226 0.63692 0.0
H483 H 0.90056 0.87623 0.40497 0.0
H484 H 0.90471 0.95656 0.3733 0.0
H485 H 0.86431 0.03128 0.55423 0.0
H486 H 0.86639 0.06255 0.65271 0.0
H487 H 0.86465 1.00162 0.65637 0.0
H488 H 0.88674 0.98679 0.7403 0.0
H489 H 0.88849 0.04769 0.73764 0.0
H490 H 0.90146 0.0069 0.696 0.0
H491 H 0.90587 0.04246 0.36356 0.0
H492 H 0.90643 0.12648 0.38664 0.0
H493 H 0.88614 0.11672 0.62988 0.0
C494 C 0.88493 0.92921 0.57948 0.0
C495 C 0.88957 0.89307 0.52291 0.0
C496 C 0.89686 0.90337 0.44902 0.0
C497 C 0.89923 0.94895 0.43028 0.0
C498 C 0.8944 0.98392 0.48666 0.0
C499 C 0.88759 0.97456 0.56054 0.0
C500 C 0.88402 0.01831 0.61233 0.0
C501 C 0.86895 0.02906 0.61931 0.0
C502 C 0.89057 0.0147 0.70187 0.0
C503 C 0.88991 0.05363 0.55626 0.0
C504 C 0.89564 0.03314 0.48323 0.0
C505 C 0.90148 0.05879 0.42075 0.0
C506 C 0.90171 0.10642 0.43407 0.0
C507 C 0.89632 0.1277 0.5098 0.0
C508 C 0.89029 0.10105 0.57139 0.0
H509 H 0.15073 0.60033 0.65808 0.0
H510 H 0.14912 0.63621 0.38676 0.0
H511 H 0.14696 0.5547 0.34949 0.0
H512 H 0.16865 0.48844 0.64028 0.0
H513 H 0.15922 0.46187 0.72093 0.0
H514 H 0.16096 0.52273 0.72666 0.0
H515 H 0.13551 0.54131 0.72811 0.0
H516 H 0.13368 0.48048 0.72324 0.0
H517 H 0.12578 0.51913 0.6434 0.0
H518 H 0.14696 0.468 0.3417 0.0
H519 H 0.14502 0.38477 0.3642 0.0
H520 H 0.14376 0.40641 0.64054 0.0
C521 C 0.14985 0.59088 0.59096 0.0
C522 C 0.15019 0.62427 0.52513 0.0
C523 C 0.14886 0.61104 0.43803 0.0
C524 C 0.14771 0.56482 0.41628 0.0
C525 C 0.14758 0.53248 0.48255 0.0
C526 C 0.14827 0.54509 0.56824 0.0
C527 C 0.14719 0.50396 0.62701 0.0
C528 C 0.15975 0.49365 0.68196 0.0
C529 C 0.1348 0.51169 0.68379 0.0
C530 C 0.14592 0.46619 0.56107 0.0
C531 C 0.14646 0.48323 0.47808 0.0
C532 C 0.14627 0.45447 0.40633 0.0
C533 C 0.14523 0.40728 0.41967 0.0
C534 C 0.14402 0.38958 0.50391 0.0
C535 C 0.14442 0.4194 0.57543 0.0
H536 H 0.64608 0.60944 0.89288 0.0
H537 H 0.65573 0.62531 0.16271 0.0
H538 H 0.65434 0.5418 0.18639 0.0
H539 H 0.6218 0.52653 0.93231 0.0
H540 H 0.62594 0.49448 0.83506 0.0
H541 H 0.62777 0.55534 0.83967 0.0
H542 H 0.65232 0.53831 0.79531 0.0
H543 H 0.65062 0.47739 0.79143 0.0
H544 H 0.66317 0.49845 0.85854 0.0
H545 H 0.65397 0.45557 0.177 0.0
H546 H 0.65112 0.37453 0.14188 0.0
H547 H 0.63923 0.41511 0.88176 0.0
C548 C 0.64776 0.59519 0.95697 0.0
C549 C 0.65105 0.62342 0.02607 0.0
C550 C 0.65313 0.60405 0.10924 0.0
C551 C 0.65244 0.55671 0.12309 0.0
C552 C 0.64933 0.52951 0.05343 0.0
C553 C 0.6467 0.54819 0.97248 0.0
C554 C 0.64306 0.51157 0.90964 0.0
C555 C 0.62879 0.52265 0.87726 0.0
C556 C 0.65288 0.50612 0.83428 0.0
C557 C 0.64438 0.46918 0.96725 0.0
C558 C 0.64819 0.48028 0.04965 0.0
C559 C 0.65075 0.44665 0.11317 0.0
C560 C 0.64917 0.40066 0.09245 0.0
C561 C 0.64479 0.3887 1.00943 0.0
C562 C 0.64238 0.42348 0.94608 0.0
H563 H 0.38905 0.90701 0.90563 0.0
H564 H 0.38862 0.88804 0.18261 0.0
H565 H 0.39117 0.97103 0.20329 0.0
H566 H 0.41466 0.98682 0.91041 0.0
H567 H 0.40765 0.02039 0.82067 0.0
H568 H 0.40553 0.95986 0.82826 0.0
H569 H 0.38015 0.97965 0.8181 0.0
H570 H 0.38218 0.04027 0.81147 0.0
H571 H 0.37191 0.01951 0.89428 0.0
H572 H 0.39163 0.05736 0.19277 0.0
H573 H 0.39408 0.13834 0.15327 0.0
H574 H 0.39699 0.09966 0.88373 0.0
C575 C 0.38955 0.9205 0.97047 0.0
C576 C 0.38847 0.89166 0.04269 0.0
C577 C 0.38939 0.90989 0.12669 0.0
C578 C 0.39078 0.9569 0.13894 0.0
C579 C 0.3916 0.98477 0.06639 0.0
C580 C 0.39139 0.96703 0.98382 0.0
C581 C 0.39318 1.00393 0.91706 0.0
C582 C 0.40602 0.99203 0.8661 0.0
C583 C 0.38113 0.01126 0.85668 0.0
C584 C 0.39411 0.04543 0.97482 0.0
C585 C 0.39295 0.03375 0.06069 0.0
C586 C 0.39277 0.06672 0.12589 0.0
C587 C 0.39407 0.11263 0.10286 0.0
C588 C 0.39582 0.12488 1.01567 0.0
C589 C 0.39582 0.09088 0.95093 0.0
H590 H 0.38485 0.41138 0.12944 0.0
H591 H 0.39816 0.38144 0.86834 0.0
H592 H 0.40163 0.46372 0.8478 0.0
H593 H 0.36778 0.5226 0.09078 0.0
H594 H 0.37297 0.54744 0.19001 0.0
H595 H 0.37146 0.48644 0.18395 0.0
H596 H 0.39578 0.46829 0.23386 0.0
H597 H 0.39732 0.52923 0.24107 0.0
H598 H 0.40869 0.49271 0.17567 0.0
H599 H 0.40196 0.55051 0.85307 0.0
H600 H 0.40257 0.63302 0.89072 0.0
H601 H 0.39104 0.60466 0.15234 0.0
C602 C 0.38858 0.42221 0.06817 0.0
C603 C 0.39115 0.39043 1.00016 0.0
C604 C 0.39614 0.40544 0.92115 0.0
C605 C 0.39806 0.45207 0.90882 0.0
C606 C 0.39518 0.48283 0.97676 0.0
C607 C 0.39082 0.46831 0.0555 0.0
C608 C 0.38893 0.50786 0.11916 0.0
C609 C 0.37442 0.51659 0.14762 0.0
C610 C 0.39824 0.49898 0.19703 0.0
C611 C 0.39283 0.54706 0.06388 0.0
C612 C 0.39616 0.53208 0.98143 0.0
C613 C 0.39955 0.56246 0.91771 0.0
C614 C 0.39982 0.60914 0.93942 0.0
C615 C 0.39697 0.62459 0.02438 0.0
C616 C 0.39337 0.5933 0.08718 0.0
H617 H 0.64871 0.10597 0.90895 0.0
H618 H 0.65912 0.13001 0.17544 0.0
H619 H 0.65774 0.04829 0.20911 0.0
H620 H 0.62554 0.01796 0.95857 0.0
H621 H 0.63041 0.98326 0.86561 0.0
H622 H 0.63109 0.04485 0.86251 0.0
H623 H 0.65577 0.0314 0.81999 0.0
H624 H 0.65521 0.9698 0.82453 0.0
H625 H 0.66717 0.99637 0.88827 0.0
H626 H 0.65643 0.96516 0.21547 0.0
H627 H 0.65335 0.88287 0.19582 0.0
H628 H 0.64447 0.90782 0.92531 0.0
C629 C 0.65033 0.09403 0.97461 0.0
C630 C 0.65398 0.12431 0.03989 0.0
C631 C 0.65631 0.10738 0.12468 0.0
C632 C 0.65559 0.06098 0.14447 0.0
C633 C 0.65252 0.03153 0.07874 0.0
C634 C 0.64973 0.0471 0.99574 0.0
C635 C 0.64694 0.00696 0.93783 0.0
C636 C 0.63265 0.01366 0.90414 0.0
C637 C 0.65687 1.00079 0.86324 0.0
C638 C 0.64893 0.96676 1.00112 0.0
C639 C 0.65206 0.98217 0.08205 0.0
C640 C 0.65402 0.95249 0.15242 0.0
C641 C 0.65236 0.90586 0.14065 0.0
C642 C 0.64901 0.88914 0.059 0.0
C643 C 0.64744 0.91974 0.98783 0.0
H644 H 0.1406 0.31621 0.18677 0.0
H645 H 0.15899 0.17896 0.24719 0.0
H646 H 0.16145 0.16169 0.09154 0.0
H647 H 0.12221 0.28203 0.99966 0.0
H648 H 0.12431 0.33353 0.93891 0.0
H649 H 0.12405 0.33543 0.05499 0.0
H650 H 0.14681 0.3677 0.05576 0.0
H651 H 0.14713 0.36589 0.93971 0.0
H652 H 0.16054 0.33636 1.00093 0.0
H653 H 0.16197 0.15897 0.93012 0.0
H654 H 0.16041 0.17108 0.77213 0.0
H655 H 0.14156 0.30971 0.813 0.0
C656 C 0.1451 0.28258 0.16671 0.0
C657 C 0.14959 0.24868 0.22845 0.0
C658 C 0.15546 0.20512 0.2005 0.0
C659 C 0.1569 0.19508 0.11237 0.0
C660 C 0.15236 0.22898 0.05273 0.0
C661 C 0.14654 0.27184 0.07843 0.0
C662 C 0.14242 0.30175 1.0005 0.0
C663 C 0.12735 0.3139 0.9984 0.0
C664 C 0.14966 0.34552 0.99918 0.0
C665 C 0.14699 0.26924 0.92731 0.0
C666 C 0.15266 0.22738 0.95913 0.0
C667 C 0.15757 0.19162 0.90449 0.0
C668 C 0.15668 0.19874 0.81503 0.0
C669 C 0.151 0.24129 0.78106 0.0
C670 C 0.14606 0.27697 0.83781 0.0
H671 H 0.88105 0.30924 0.19735 0.0
H672 H 0.9096 0.1902 0.24044 0.0
H673 H 0.91164 0.17831 0.08288 0.0
H674 H 0.86467 0.26876 1.01076 0.0
H675 H 0.86335 0.32337 0.95489 0.0
H676 H 0.86375 0.32197 0.07096 0.0
H677 H 0.88374 0.3702 0.07105 0.0
H678 H 0.88338 0.37183 0.95494 0.0
H679 H 0.8983 0.35006 1.01063 0.0
H680 H 0.91074 0.17933 0.92204 0.0
H681 H 0.90759 0.19487 0.76616 0.0
H682 H 0.8801 0.31467 0.82378 0.0
C683 C 0.88765 0.2806 0.17313 0.0
C684 C 0.89513 0.25031 0.23045 0.0
C685 C 0.90384 0.21368 0.19716 0.0
C686 C 0.90502 0.20665 0.10795 0.0
C687 C 0.89759 0.23712 0.05282 0.0
C688 C 0.88919 0.27373 0.08381 0.0
C689 C 0.8829 0.30269 1.00996 0.0
C690 C 0.86777 0.30426 1.01179 0.0
C691 C 0.88734 0.35159 1.01177 0.0
C692 C 0.88869 0.27562 0.93284 0.0
C693 C 0.89722 0.23814 0.95936 0.0
C694 C 0.90405 0.20847 0.90054 0.0
C695 C 0.90219 0.21746 0.81231 0.0
C696 C 0.89349 0.25546 0.78359 0.0
C697 C 0.88663 0.28493 0.84449 0.0
H698 H 0.15375 0.69688 0.22655 0.0
H699 H 0.14242 0.84183 0.2779 0.0
H700 H 0.14064 0.85732 0.12108 0.0
H701 H 0.17382 0.71543 0.03783 0.0
H702 H 0.16909 0.66583 0.98068 0.0
H703 H 0.16939 0.666 0.09681 0.0
H704 H 0.14496 0.64862 0.09952 0.0
H705 H 0.14457 0.6485 0.98342 0.0
H706 H 0.13267 0.68627 0.04261 0.0
H707 H 0.13965 0.857 0.95986 0.0
H708 H 0.14036 0.84145 0.80291 0.0
H709 H 0.15301 0.69717 0.85309 0.0
C710 C 0.15098 0.73182 0.20422 0.0
C711 C 0.14828 0.7684 0.26348 0.0
C712 C 0.14461 0.81364 0.23289 0.0
C713 C 0.14355 0.82265 0.14416 0.0
C714 C 0.14627 0.78601 0.08691 0.0
C715 C 0.15001 0.74152 0.11544 0.0
C716 C 0.15257 0.70867 0.0398 0.0
C717 C 0.16708 0.68775 0.03873 0.0
C718 C 0.14313 0.67078 0.04148 0.0
C719 C 0.14951 0.74151 0.96451 0.0
C720 C 0.14587 0.78594 0.99341 0.0
C721 C 0.14248 0.82238 0.93648 0.0
C722 C 0.14286 0.81328 0.84767 0.0
C723 C 0.14659 0.76821 0.81666 0.0
C724 C 0.15001 0.73186 0.87567 0.0
H725 H 0.90585 0.80078 0.84657 0.0
H726 H 0.8817 0.68847 0.80236 0.0
H727 H 0.8795 0.6781 0.958 0.0
H728 H 0.92303 0.75138 0.03899 0.0
H729 H 0.92271 0.80583 0.09462 0.0
H730 H 0.92301 0.80429 0.97849 0.0
H731 H 0.90178 0.86164 0.97324 0.0
H732 H 0.90141 0.86325 0.08932 0.0
H733 H 0.88727 0.84784 0.02995 0.0
H734 H 0.87875 0.68066 0.11425 0.0
H735 H 0.88004 0.69481 0.26955 0.0
H736 H 0.90493 0.80464 0.22267 0.0
C737 C 0.90031 0.77359 0.87003 0.0
C738 C 0.89399 0.74534 0.81195 0.0
C739 C 0.8866 0.71069 0.84515 0.0
C740 C 0.88529 0.70438 0.93369 0.0
C741 C 0.8914 0.73299 0.98912 0.0
C742 C 0.8988 0.76688 0.95942 0.0
C743 C 0.9039 0.7935 0.03491 0.0
C744 C 0.91907 0.78843 0.03686 0.0
C745 C 0.89825 0.84459 0.03163 0.0
C746 C 0.89828 0.76879 0.11088 0.0
C747 C 0.89105 0.73427 0.082 0.0
C748 C 0.88444 0.70741 0.13797 0.0
C749 C 0.88519 0.71592 0.22624 0.0
C750 C 0.89256 0.75083 0.25846 0.0
C751 C 0.89931 0.77747 0.19991 0.0
H752 H 0.63105 0.78139 0.34387 0.0
H753 H 0.67044 0.7138 0.29662 0.0
H754 H 0.67422 0.70529 0.45236 0.0
H755 H 0.64057 0.84567 0.52903 0.0
H756 H 0.62558 0.84118 0.5885 0.0
H757 H 0.62532 0.84027 0.47238 0.0
H758 H 0.61529 0.76213 0.47522 0.0
H759 H 0.6155 0.7629 0.59138 0.0
H760 H 0.62365 0.71417 0.53412 0.0
H761 H 0.67461 0.70683 0.60897 0.0
H762 H 0.6714 0.71728 0.76483 0.0
H763 H 0.63174 0.78333 0.71962 0.0
C764 C 0.64037 0.7643 0.36676 0.0
C765 C 0.65047 0.74821 0.3082 0.0
C766 C 0.66262 0.72669 0.34026 0.0
C767 C 0.66486 0.72151 0.42865 0.0
C768 C 0.65488 0.7383 0.48476 0.0
C769 C 0.64287 0.75932 0.45587 0.0
C770 C 0.6342 0.77602 0.53183 0.0
C771 C 0.63125 0.82892 0.53032 0.0
C772 C 0.6214 0.75237 0.53319 0.0
C773 C 0.64318 0.76031 0.60717 0.0
C774 C 0.65508 0.73897 0.57765 0.0
C775 C 0.66531 0.72317 0.63316 0.0
C776 C 0.66341 0.72943 0.72156 0.0
C777 C 0.65133 0.75093 0.75413 0.0
C778 C 0.641 0.76621 0.69627 0.0
H779 H 0.41082 0.76433 0.73028 0.0
H780 H 0.36915 0.75083 0.77299 0.0
H781 H 0.36522 0.7518 0.61848 0.0
H782 H 0.40577 0.84135 0.54357 0.0
H783 H 0.41983 0.81513 0.48459 0.0
H784 H 0.41994 0.81403 0.60078 0.0
H785 H 0.4247 0.72494 0.59839 0.0
H786 H 0.42461 0.72578 0.48223 0.0
H787 H 0.41379 0.6913 0.53952 0.0
H788 H 0.36499 0.75284 0.46496 0.0
H789 H 0.36858 0.75393 0.30988 0.0
H790 H 0.4103 0.76716 0.35232 0.0
C791 C 0.4009 0.76186 0.70671 0.0
C792 C 0.39034 0.75717 0.76453 0.0
C793 C 0.37749 0.75387 0.73096 0.0
C794 C 0.37508 0.75457 0.64279 0.0
C795 C 0.38557 0.75871 0.58775 0.0
C796 C 0.39823 0.76231 0.61724 0.0
C797 C 0.40755 0.76569 0.54116 0.0
C798 C 0.41363 0.8118 0.54263 0.0
C799 C 0.4183 0.72447 0.5403 0.0
C800 C 0.39801 0.76351 0.4655 0.0
C801 C 0.38543 0.75944 0.49524 0.0
C802 C 0.37479 0.75606 0.44036 0.0
C803 C 0.37698 0.75659 0.35197 0.0
C804 C 0.38973 0.7605 0.31834 0.0
C805 C 0.40043 0.76436 0.37605 0.0
H806 H 0.63357 0.22765 0.30891 0.0
H807 H 0.66697 0.30729 0.2698 0.0
H808 H 0.67015 0.31194 0.42446 0.0
H809 H 0.62137 0.29164 0.50327 0.0
H810 H 0.61658 0.24138 0.55794 0.0
H811 H 0.61632 0.24396 0.44182 0.0
H812 H 0.63164 0.16725 0.43527 0.0
H813 H 0.63199 0.16453 0.55132 0.0
H814 H 0.64722 0.16257 0.49187 0.0
H815 H 0.67099 0.30682 0.57742 0.0
H816 H 0.66869 0.29569 0.73153 0.0
H817 H 0.63437 0.22119 0.68673 0.0
C818 C 0.64143 0.2464 0.33326 0.0
C819 C 0.65003 0.26683 0.27622 0.0
C820 C 0.66025 0.29093 0.31093 0.0
C821 C 0.66219 0.29394 0.39931 0.0
C822 C 0.65378 0.2731 0.45342 0.0
C823 C 0.64353 0.25012 0.42292 0.0
C824 C 0.63611 0.23116 0.49816 0.0
C825 C 0.62174 0.25336 0.50042 0.0
C826 C 0.63679 0.17823 0.49387 0.0
C827 C 0.64401 0.24678 0.57458 0.0
C828 C 0.65413 0.2708 0.54581 0.0
C829 C 0.66306 0.28831 0.60126 0.0
C830 C 0.66166 0.28149 0.68924 0.0
C831 C 0.65136 0.25737 0.72216 0.0
C832 C 0.64234 0.23979 0.66377 0.0
H833 H 0.40598 0.29894 0.31318 0.0
H834 H 0.38047 0.19086 0.26604 0.0
H835 H 0.3781 0.1798 0.42125 0.0
H836 H 0.42258 0.24603 0.50505 0.0
H837 H 0.42285 0.29995 0.56178 0.0
H838 H 0.42321 0.299 0.44564 0.0
H839 H 0.40259 0.35912 0.44092 0.0
H840 H 0.40215 0.36016 0.55702 0.0
H841 H 0.38783 0.34718 0.49682 0.0
H842 H 0.37709 0.18205 0.57737 0.0
H843 H 0.37844 0.19517 0.73322 0.0
H844 H 0.40496 0.30035 0.68915 0.0
C845 C 0.40012 0.27247 0.33595 0.0
C846 C 0.39344 0.24571 0.27724 0.0
C847 C 0.38565 0.21196 0.30943 0.0
C848 C 0.38422 0.20528 0.39771 0.0
C849 C 0.39064 0.23258 0.45387 0.0
C850 C 0.39849 0.26539 0.42512 0.0
C851 C 0.40386 0.2907 0.50128 0.0
C852 C 0.41903 0.28347 0.50357 0.0
C853 C 0.39881 0.34235 0.49883 0.0
C854 C 0.39788 0.26648 0.57648 0.0
C855 C 0.3902 0.23342 0.54669 0.0
C856 C 0.38314 0.20756 0.60188 0.0
C857 C 0.38392 0.21546 0.69037 0.0
C858 C 0.39179 0.24868 0.72342 0.0
C859 C 0.39896 0.2744 0.66565 0.0
H860 H 0.04947 0.25835 0.53691 0.0
H861 H 0.05742 0.25496 0.26217 0.0
H862 H 0.03353 0.25527 0.23272 0.0
H863 H 0.02369 0.18443 0.53354 0.0
H864 H 1.01401 0.21604 0.61535 0.0
H865 H 0.03169 0.21615 0.6146 0.0
H866 H 0.02907 0.30564 0.60981 0.0
H867 H 1.01138 0.30582 0.61103 0.0
H868 H 1.01919 0.33508 0.52592 0.0
H869 H 1.00854 0.25655 0.23374 0.0
H870 H 0.98474 0.25655 0.26542 0.0
H871 H 0.99336 0.26016 0.53933 0.0
C872 C 0.0462 0.25834 0.47042 0.0
C873 C 0.05537 0.25691 0.40181 0.0
C874 C 0.05064 0.25576 0.31586 0.0
C875 C 0.03707 0.25616 0.29848 0.0
C876 C 0.02833 0.25764 0.36769 0.0
C877 C 0.03273 0.25866 0.45195 0.0
C878 C 0.02136 0.25955 0.51487 0.0
C879 C 0.02278 0.21647 0.573 0.0
C880 C 1.02018 0.30418 0.56856 0.0
C881 C 1.00986 0.25875 0.45293 0.0
C882 C 1.01406 0.25783 0.36829 0.0
C883 C 1.00516 0.25726 0.29983 0.0
C884 C 0.99165 0.25747 0.31842 0.0
C885 C 0.98715 0.25805 0.40482 0.0
C886 C 0.99646 0.25887 0.4726 0.0
H887 H 0.99288 0.72818 0.54347 0.0
H888 H 0.98356 0.81693 0.76466 0.0
H889 H 1.00733 0.82119 0.78965 0.0
H890 H 0.02229 0.66382 0.63903 0.0
H891 H 0.03102 0.65948 0.538 0.0
H892 H 1.01325 0.66215 0.53914 0.0
H893 H 1.01179 0.73279 0.43657 0.0
H894 H 0.02952 0.73048 0.43541 0.0
H895 H 1.01972 0.78295 0.46672 0.0
H896 H 0.03208 0.81902 0.78653 0.0
H897 H 0.05609 0.80804 0.75838 0.0
H898 H 0.0492 0.71926 0.54175 0.0
C899 C 0.99579 0.74772 0.59838 0.0
C900 C 0.98627 0.77231 0.65198 0.0
C901 C 0.99061 0.79829 0.72186 0.0
C902 C 1.00411 0.8007 0.73699 0.0
C903 C 1.01319 0.77655 0.68231 0.0
C904 C 1.00923 0.75021 0.61486 0.0
C905 C 0.021 0.72826 0.56466 0.0
C906 C 0.02194 0.67528 0.5706 0.0
C907 C 1.02047 0.74462 0.47027 0.0
C908 C 0.03217 0.74708 0.61356 0.0
C909 C 0.02747 0.77476 0.68131 0.0
C910 C 0.03589 0.79713 0.73406 0.0
C911 C 0.0495 0.79094 0.71724 0.0
C912 C 0.05456 0.7626 0.64826 0.0
C913 C 0.0457 0.74042 0.59605 0.0
H914 H 0.54795 0.77532 0.87983 0.0
H915 H 0.55686 0.70859 0.12636 0.0
H916 H 0.53319 0.70196 0.14901 0.0
H917 H 0.51747 0.84081 0.9395 0.0
H918 H 0.50908 0.83166 0.83945 0.0
H919 H 0.52677 0.83143 0.84123 0.0
H920 H 0.52933 0.75016 0.77192 0.0
H921 H 0.51163 0.75007 0.76988 0.0
H922 H 0.52177 0.70385 0.82261 0.0
H923 H 0.5092 0.70247 0.14707 0.0
H924 H 0.48524 0.71018 0.1212 0.0
H925 H 0.49101 0.7757 0.87459 0.0
C926 C 0.54483 0.75946 0.93842 0.0
C927 C 0.55413 0.74221 1.00143 0.0
C928 C 0.54982 0.72147 0.07722 0.0
C929 C 0.53644 0.71768 0.09069 0.0
C930 C 0.5275 0.7345 0.02738 0.0
C931 C 0.53142 0.75481 0.95252 0.0
C932 C 0.51962 0.76901 0.89464 0.0
C933 C 0.51815 0.82135 0.87777 0.0
C934 C 0.52066 0.74165 0.80973 0.0
C935 C 0.50848 0.75475 0.95027 0.0
C936 C 0.51337 0.73447 0.02596 0.0
C937 C 0.50521 0.71795 0.08784 0.0
C938 C 0.49163 0.72217 0.07221 0.0
C939 C 0.48629 0.74283 0.99536 0.0
C940 C 0.49485 0.75958 0.93371 0.0
H941 H 0.49406 0.21399 1.00902 0.0
H942 H 0.48451 0.32802 0.18638 0.0
H943 H 0.50817 0.33524 0.20591 0.0
H944 H 0.52344 0.16395 0.13004 0.0
H945 H 0.53241 0.14624 0.03364 0.0
H946 H 0.51464 0.14891 0.03485 0.0
H947 H 0.51338 0.20352 0.90261 0.0
H948 H 0.53112 0.2012 0.90118 0.0
H949 H 0.52123 0.25619 0.90758 0.0
H950 H 0.53275 0.33306 0.20167 0.0
H951 H 0.55678 0.31931 0.17821 0.0
H952 H 0.5507 0.20532 1.00726 0.0
C953 C 0.4969 0.23991 0.05336 0.0
C954 C 0.48727 0.27076 0.09536 0.0
C955 C 0.49157 0.30457 0.15176 0.0
C956 C 0.50503 0.30875 0.16397 0.0
C957 C 0.5142 0.27842 0.1206 0.0
C958 C 0.51036 0.24427 0.06722 0.0
C959 C 0.5223 0.21639 0.02792 0.0
C960 C 0.52325 0.16588 0.05844 0.0
C961 C 0.52198 0.21955 0.92895 0.0
C962 C 0.53339 0.24116 0.06568 0.0
C963 C 0.52848 0.27663 0.11937 0.0
C964 C 0.53673 0.3052 0.16015 0.0
C965 C 0.55038 0.29733 0.14585 0.0
C966 C 0.55571 0.26125 0.09092 0.0
C967 C 0.54702 0.23275 0.05072 0.0
loop_
_geom_bond_atom_site_label_1
_geom_bond_atom_site_label_2
_geom_bond_distance
_geom_bond_site_symmetry_2
_ccdc_geom_bond_type
Ho0 C3 2.811 . S
Ho0 O20 2.322 . S
Ho0 O22 2.378 . S
Ho0 O23 2.524 . S
Ho0 O24 2.381 . S
Ho0 O25 2.669 . S
Ho0 O27 2.346 . S
Ho0 O31 2.305 . S
Ho1 C12 2.811 . S
Ho1 O21 2.346 . S
Ho1 O25 2.305 . S
Ho1 O26 2.322 . S
Ho1 O28 2.378 . S
Ho1 O29 2.524 . S
Ho1 O30 2.381 . S
Ho1 O31 2.669 . S
C2 O20 1.259 . S
C2 O21 1.268 . S
C3 Ho0 2.811 . S
C3 C4 1.488 . S
C3 O22 1.215 . S
C3 O23 1.289 . S
C4 C3 1.488 . S
C4 C5 1.348 . S
C4 C9 1.413 . S
C5 C4 1.348 . S
C5 C6 1.442 . S
C5 H32 0.930 . S
C6 C5 1.442 . S
C6 C7 1.381 . S
C6 H33 0.931 . S
C7 C6 1.381 . S
C7 C8 1.321 . S
C8 C7 1.321 . S
C8 C9 1.403 . S
C8 H34 0.934 . S
C9 C4 1.413 . S
C9 C8 1.403 . S
C9 H35 0.930 . S
C10 O24 1.275 . S
C10 O25 1.256 . S
C11 O26 1.259 . S
C11 O27 1.268 . S
C12 Ho1 2.811 . S
C12 C13 1.488 . S
C12 O28 1.215 . S
C12 O29 1.289 . S
C13 C12 1.488 . S
C13 C14 1.348 . S
C13 C18 1.413 . S
C14 C13 1.348 . S
C14 C15 1.442 . S
C14 H36 0.930 . S
C15 C14 1.442 . S
C15 C16 1.381 . S
C15 H37 0.931 . S
C16 C15 1.381 . S
C16 C17 1.321 . S
C17 C16 1.321 . S
C17 C18 1.403 . S
C17 H38 0.934 . S
C18 C13 1.413 . S
C18 C17 1.403 . S
C18 H39 0.930 . S
C19 O30 1.275 . S
C19 O31 1.256 . S
O20 Ho0 2.322 . S
O20 C2 1.259 . S
O21 Ho1 2.346 . S
O21 C2 1.268 . S
O22 Ho0 2.378 . S
O22 C3 1.215 . S
O23 Ho0 2.524 . S
O23 C3 1.289 . S
O24 Ho0 2.381 . S
O24 C10 1.275 . S
O25 Ho0 2.669 . S
O25 Ho1 2.305 . S
O25 C10 1.256 . S
O26 Ho1 2.322 . S
O26 C11 1.259 . S
O27 Ho0 2.346 . S
O27 C11 1.268 . S
O28 Ho1 2.378 . S
O28 C12 1.215 . S
O29 Ho1 2.524 . S
O29 C12 1.289 . S
O30 Ho1 2.381 . S
O30 C19 1.275 . S
O31 Ho0 2.305 . S
O31 Ho1 2.669 . S
O31 C19 1.256 . S
H32 C5 0.930 . S
H33 C6 0.931 . S
H34 C8 0.934 . S
H35 C9 0.930 . S
H36 C14 0.930 . S
H37 C15 0.931 . S
H38 C17 0.934 . S
H39 C18 0.930 . S
Ho40 C43 2.811 . S
Ho40 O60 2.322 . S
Ho40 O62 2.378 . S
Ho40 O63 2.524 . S
Ho40 O64 2.381 . S
Ho40 O65 2.669 . S
Ho40 O67 2.346 . S
Ho40 O71 2.305 . S
Ho41 C52 2.811 . S
Ho41 O61 2.346 . S
Ho41 O65 2.305 . S
Ho41 O66 2.322 . S
Ho41 O68 2.378 . S
Ho41 O69 2.524 . S
Ho41 O70 2.381 . S
Ho41 O71 2.669 . S
C42 O60 1.259 . S
C42 O61 1.268 . S
C43 Ho40 2.811 . S
C43 C44 1.488 . S
C43 O62 1.215 . S
C43 O63 1.289 . S
C44 C43 1.488 . S
C44 C45 1.348 . S
C44 C49 1.413 . S
C45 C44 1.348 . S
C45 C46 1.442 . S
C45 H72 0.930 . S
C46 C45 1.442 . S
C46 C47 1.381 . S
C46 H73 0.931 . S
C47 C46 1.381 . S
C47 C48 1.321 . S
C48 C47 1.321 . S
C48 C49 1.403 . S
C48 H74 0.934 . S
C49 C44 1.413 . S
C49 C48 1.403 . S
C49 H75 0.930 . S
C50 O64 1.275 . S
C50 O65 1.256 . S
C51 O66 1.259 . S
C51 O67 1.268 . S
C52 Ho41 2.811 . S
C52 C53 1.488 . S
C52 O68 1.215 . S
C52 O69 1.289 . S
C53 C52 1.488 . S
C53 C54 1.348 . S
C53 C58 1.413 . S
C54 C53 1.348 . S
C54 C55 1.442 . S
C54 H76 0.930 . S
C55 C54 1.442 . S
C55 C56 1.381 . S
C55 H77 0.931 . S
C56 C55 1.381 . S
C56 C57 1.321 . S
C57 C56 1.321 . S
C57 C58 1.403 . S
C57 H78 0.934 . S
C58 C53 1.413 . S
C58 C57 1.403 . S
C58 H79 0.930 . S
C59 O70 1.275 . S
C59 O71 1.256 . S
O60 Ho40 2.322 . S
O60 C42 1.259 . S
O61 Ho41 2.346 . S
O61 C42 1.268 . S
O62 Ho40 2.378 . S
O62 C43 1.215 . S
O63 Ho40 2.524 . S
O63 C43 1.289 . S
O64 Ho40 2.381 . S
O64 C50 1.275 . S
O65 Ho40 2.669 . S
O65 Ho41 2.305 . S
O65 C50 1.256 . S
O66 Ho41 2.322 . S
O66 C51 1.259 . S
O67 Ho40 2.346 . S
O67 C51 1.268 . S
O68 Ho41 2.378 . S
O68 C52 1.215 . S
O69 Ho41 2.524 . S
O69 C52 1.289 . S
O70 Ho41 2.381 . S
O70 C59 1.275 . S
O71 Ho40 2.305 . S
O71 Ho41 2.669 . S
O71 C59 1.256 . S
H72 C45 0.930 . S
H73 C46 0.931 . S
H74 C48 0.934 . S
H75 C49 0.930 . S
H76 C54 0.930 . S
H77 C55 0.931 . S
H78 C57 0.934 . S
H79 C58 0.930 . S
Ho80 C83 2.811 . S
Ho80 O100 2.322 . S
Ho80 O102 2.378 . S
Ho80 O103 2.524 . S
Ho80 O104 2.381 . S
Ho80 O105 2.669 . S
Ho80 O107 2.346 . S
Ho80 O111 2.305 . S
Ho81 C92 2.811 . S
Ho81 O101 2.346 . S
Ho81 O105 2.305 . S
Ho81 O106 2.322 . S
Ho81 O108 2.378 . S
Ho81 O109 2.524 . S
Ho81 O110 2.381 . S
Ho81 O111 2.669 . S
C82 O100 1.259 . S
C82 O101 1.268 . S
C83 Ho80 2.811 . S
C83 C84 1.488 . S
C83 O102 1.215 . S
C83 O103 1.289 . S
C84 C83 1.488 . S
C84 C85 1.348 . S
C84 C89 1.413 . S
C85 C84 1.348 . S
C85 C86 1.442 . S
C85 H112 0.930 . S
C86 C85 1.442 . S
C86 C87 1.381 . S
C86 H113 0.931 . S
C87 C86 1.381 . S
C87 C88 1.321 . S
C88 C87 1.321 . S
C88 C89 1.403 . S
C88 H114 0.934 . S
C89 C84 1.413 . S
C89 C88 1.403 . S
C89 H115 0.930 . S
C90 O104 1.275 . S
C90 O105 1.256 . S
C91 O106 1.259 . S
C91 O107 1.268 . S
C92 Ho81 2.811 . S
C92 C93 1.488 . S
C92 O108 1.215 . S
C92 O109 1.289 . S
C93 C92 1.488 . S
C93 C94 1.348 . S
C93 C98 1.413 . S
C94 C93 1.348 . S
C94 C95 1.442 . S
C94 H116 0.930 . S
C95 C94 1.442 . S
C95 C96 1.381 . S
C95 H117 0.931 . S
C96 C95 1.381 . S
C96 C97 1.321 . S
C97 C96 1.321 . S
C97 C98 1.403 . S
C97 H118 0.934 . S
C98 C93 1.413 . S
C98 C97 1.403 . S
C98 H119 0.930 . S
C99 O110 1.275 . S
C99 O111 1.256 . S
O100 Ho80 2.322 . S
O100 C82 1.259 . S
O101 Ho81 2.346 . S
O101 C82 1.268 . S
O102 Ho80 2.378 . S
O102 C83 1.215 . S
O103 Ho80 2.524 . S
O103 C83 1.289 . S
O104 Ho80 2.381 . S
O104 C90 1.275 . S
O105 Ho80 2.669 . S
O105 Ho81 2.305 . S
O105 C90 1.256 . S
O106 Ho81 2.322 . S
O106 C91 1.259 . S
O107 Ho80 2.346 . S
O107 C91 1.268 . S
O108 Ho81 2.378 . S
O108 C92 1.215 . S
O109 Ho81 2.524 . S
O109 C92 1.289 . S
O110 Ho81 2.381 . S
O110 C99 1.275 . S
O111 Ho80 2.305 . S
O111 Ho81 2.669 . S
O111 C99 1.256 . S
H112 C85 0.930 . S
H113 C86 0.931 . S
H114 C88 0.934 . S
H115 C89 0.930 . S
H116 C94 0.930 . S
H117 C95 0.931 . S
H118 C97 0.934 . S
H119 C98 0.930 . S
Ho120 C123 2.811 . S
Ho120 O140 2.322 . S
Ho120 O142 2.378 . S
Ho120 O143 2.524 . S
Ho120 O144 2.381 . S
Ho120 O145 2.669 . S
Ho120 O147 2.346 . S
Ho120 O151 2.305 . S
Ho121 C132 2.811 . S
Ho121 O141 2.346 . S
Ho121 O145 2.305 . S
Ho121 O146 2.322 . S
Ho121 O148 2.378 . S
Ho121 O149 2.524 . S
Ho121 O150 2.381 . S
Ho121 O151 2.669 . S
C122 O140 1.259 . S
C122 O141 1.268 . S
C123 Ho120 2.811 . S
C123 C124 1.488 . S
C123 O142 1.215 . S
C123 O143 1.289 . S
C124 C123 1.488 . S
C124 C125 1.348 . S
C124 C129 1.413 . S
C125 C124 1.348 . S
C125 C126 1.442 . S
C125 H152 0.930 . S
C126 C125 1.442 . S
C126 C127 1.381 . S
C126 H153 0.931 . S
C127 C126 1.381 . S
C127 C128 1.321 . S
C128 C127 1.321 . S
C128 C129 1.403 . S
C128 H154 0.934 . S
C129 C124 1.413 . S
C129 C128 1.403 . S
C129 H155 0.930 . S
C130 O144 1.275 . S
C130 O145 1.256 . S
C131 O146 1.259 . S
C131 O147 1.268 . S
C132 Ho121 2.811 . S
C132 C133 1.488 . S
C132 O148 1.215 . S
C132 O149 1.289 . S
C133 C132 1.488 . S
C133 C134 1.348 . S
C133 C138 1.413 . S
C134 C133 1.348 . S
C134 C135 1.442 . S
C134 H156 0.930 . S
C135 C134 1.442 . S
C135 C136 1.381 . S
C135 H157 0.931 . S
C136 C135 1.381 . S
C136 C137 1.321 . S
C137 C136 1.321 . S
C137 C138 1.403 . S
C137 H158 0.934 . S
C138 C133 1.413 . S
C138 C137 1.403 . S
C138 H159 0.930 . S
C139 O150 1.275 . S
C139 O151 1.256 . S
O140 Ho120 2.322 . S
O140 C122 1.259 . S
O141 Ho121 2.346 . S
O141 C122 1.268 . S
O142 Ho120 2.378 . S
O142 C123 1.215 . S
O143 Ho120 2.524 . S
O143 C123 1.289 . S
O144 Ho120 2.381 . S
O144 C130 1.275 . S
O145 Ho120 2.669 . S
O145 Ho121 2.305 . S
O145 C130 1.256 . S
O146 Ho121 2.322 . S
O146 C131 1.259 . S
O147 Ho120 2.346 . S
O147 C131 1.268 . S
O148 Ho121 2.378 . S
O148 C132 1.215 . S
O149 Ho121 2.524 . S
O149 C132 1.289 . S
O150 Ho121 2.381 . S
O150 C139 1.275 . S
O151 Ho120 2.305 . S
O151 Ho121 2.669 . S
O151 C139 1.256 . S
H152 C125 0.930 . S
H153 C126 0.931 . S
H154 C128 0.934 . S
H155 C129 0.930 . S
H156 C134 0.930 . S
H157 C135 0.931 . S
H158 C137 0.934 . S
H159 C138 0.930 . S
Ho160 C163 2.811 1_556 S
Ho160 O180 2.322 1_556 S
Ho160 O182 2.378 1_556 S
Ho160 O183 2.524 1_556 S
Ho160 O184 2.381 . S
Ho160 O185 2.669 . S
Ho160 O187 2.346 . S
Ho160 O191 2.305 1_556 S
Ho161 C172 2.811 1_554 S
Ho161 O181 2.346 . S
Ho161 O185 2.305 1_554 S
Ho161 O186 2.322 1_554 S
Ho161 O188 2.378 1_554 S
Ho161 O189 2.524 1_554 S
Ho161 O190 2.381 . S
Ho161 O191 2.669 . S
C162 O180 1.259 . S
C162 O181 1.268 . S
C163 Ho160 2.811 1_554 S
C163 C164 1.488 . S
C163 O182 1.215 . S
C163 O183 1.289 . S
C164 C163 1.488 . S
C164 C165 1.348 . S
C164 C169 1.413 . S
C165 C164 1.348 . S
C165 C166 1.442 . S
C165 H192 0.930 . S
C166 C165 1.442 . S
C166 C167 1.381 . S
C166 H193 0.931 . S
C167 C166 1.381 . S
C167 C168 1.321 . S
C168 C167 1.321 . S
C168 C169 1.403 . S
C168 H194 0.934 . S
C169 C164 1.413 . S
C169 C168 1.403 . S
C169 H195 0.930 . S
C170 O184 1.275 . S
C170 O185 1.256 . S
C171 O186 1.259 . S
C171 O187 1.268 . S
C172 Ho161 2.811 1_556 S
C172 C173 1.488 . S
C172 O188 1.215 . S
C172 O189 1.289 . S
C173 C172 1.488 . S
C173 C174 1.348 . S
C173 C178 1.413 . S
C174 C173 1.348 . S
C174 C175 1.442 . S
C174 H196 0.930 . S
C175 C174 1.442 . S
C175 C176 1.381 . S
C175 H197 0.931 . S
C176 C175 1.381 . S
C176 C177 1.321 . S
C177 C176 1.321 . S
C177 C178 1.403 . S
C177 H198 0.934 . S
C178 C173 1.413 . S
C178 C177 1.403 . S
C178 H199 0.930 . S
C179 O190 1.275 . S
C179 O191 1.256 . S
O180 Ho160 2.322 1_554 S
O180 C162 1.259 . S
O181 Ho161 2.346 . S
O181 C162 1.268 . S
O182 Ho160 2.378 1_554 S
O182 C163 1.215 . S
O183 Ho160 2.524 1_554 S
O183 C163 1.289 . S
O184 Ho160 2.381 . S
O184 C170 1.275 . S
O185 Ho160 2.669 . S
O185 Ho161 2.305 1_556 S
O185 C170 1.256 . S
O186 Ho161 2.322 1_556 S
O186 C171 1.259 . S
O187 Ho160 2.346 . S
O187 C171 1.268 . S
O188 Ho161 2.378 1_556 S
O188 C172 1.215 . S
O189 Ho161 2.524 1_556 S
O189 C172 1.289 . S
O190 Ho161 2.381 . S
O190 C179 1.275 . S
O191 Ho160 2.305 1_554 S
O191 Ho161 2.669 . S
O191 C179 1.256 . S
H192 C165 0.930 . S
H193 C166 0.931 . S
H194 C168 0.934 . S
H195 C169 0.930 . S
H196 C174 0.930 . S
H197 C175 0.931 . S
H198 C177 0.934 . S
H199 C178 0.930 . S
Ho200 C203 2.811 1_556 S
Ho200 O220 2.322 1_556 S
Ho200 O222 2.378 1_556 S
Ho200 O223 2.524 1_556 S
Ho200 O224 2.381 . S
Ho200 O225 2.669 . S
Ho200 O227 2.346 . S
Ho200 O231 2.305 1_556 S
Ho201 C212 2.811 1_554 S
Ho201 O221 2.346 . S
Ho201 O225 2.305 1_554 S
Ho201 O226 2.322 1_554 S
Ho201 O228 2.378 1_554 S
Ho201 O229 2.524 1_554 S
Ho201 O230 2.381 . S
Ho201 O231 2.669 . S
C202 O220 1.259 . S
C202 O221 1.268 . S
C203 Ho200 2.811 1_554 S
C203 C204 1.488 . S
C203 O222 1.215 . S
C203 O223 1.289 . S
C204 C203 1.488 . S
C204 C205 1.348 . S
C204 C209 1.413 . S
C205 C204 1.348 . S
C205 C206 1.442 . S
C205 H232 0.930 . S
C206 C205 1.442 . S
C206 C207 1.381 . S
C206 H233 0.931 . S
C207 C206 1.381 . S
C207 C208 1.321 . S
C208 C207 1.321 . S
C208 C209 1.403 . S
C208 H234 0.934 . S
C209 C204 1.413 . S
C209 C208 1.403 . S
C209 H235 0.930 . S
C210 O224 1.275 . S
C210 O225 1.256 . S
C211 O226 1.259 . S
C211 O227 1.268 . S
C212 Ho201 2.811 1_556 S
C212 C213 1.488 . S
C212 O228 1.215 . S
C212 O229 1.289 . S
C213 C212 1.488 . S
C213 C214 1.348 . S
C213 C218 1.413 . S
C214 C213 1.348 . S
C214 C215 1.442 . S
C214 H236 0.930 . S
C215 C214 1.442 . S
C215 C216 1.381 . S
C215 H237 0.931 . S
C216 C215 1.381 . S
C216 C217 1.321 . S
C217 C216 1.321 . S
C217 C218 1.403 . S
C217 H238 0.934 . S
C218 C213 1.413 . S
C218 C217 1.403 . S
C218 H239 0.930 . S
C219 O230 1.275 . S
C219 O231 1.256 . S
O220 Ho200 2.322 1_554 S
O220 C202 1.259 . S
O221 Ho201 2.346 . S
O221 C202 1.268 . S
O222 Ho200 2.378 1_554 S
O222 C203 1.215 . S
O223 Ho200 2.524 1_554 S
O223 C203 1.289 . S
O224 Ho200 2.381 . S
O224 C210 1.275 . S
O225 Ho200 2.669 . S
O225 Ho201 2.305 1_556 S
O225 C210 1.256 . S
O226 Ho201 2.322 1_556 S
O226 C211 1.259 . S
O227 Ho200 2.346 . S
O227 C211 1.268 . S
O228 Ho201 2.378 1_556 S
O228 C212 1.215 . S
O229 Ho201 2.524 1_556 S
O229 C212 1.289 . S
O230 Ho201 2.381 . S
O230 C219 1.275 . S
O231 Ho200 2.305 1_554 S
O231 Ho201 2.669 . S
O231 C219 1.256 . S
H232 C205 0.930 . S
H233 C206 0.931 . S
H234 C208 0.934 . S
H235 C209 0.930 . S
H236 C214 0.930 . S
H237 C215 0.931 . S
H238 C217 0.934 . S
H239 C218 0.930 . S
Ho240 C243 2.811 1_556 S
Ho240 O260 2.322 1_556 S
Ho240 O262 2.378 1_556 S
Ho240 O263 2.524 1_556 S
Ho240 O264 2.381 . S
Ho240 O265 2.669 . S
Ho240 O267 2.346 . S
Ho240 O271 2.305 1_556 S
Ho241 C252 2.811 1_554 S
Ho241 O261 2.346 . S
Ho241 O265 2.305 1_554 S
Ho241 O266 2.322 1_554 S
Ho241 O268 2.378 1_554 S
Ho241 O269 2.524 1_554 S
Ho241 O270 2.381 . S
Ho241 O271 2.669 . S
C242 O260 1.259 . S
C242 O261 1.268 . S
C243 Ho240 2.811 1_554 S
C243 C244 1.488 . S
C243 O262 1.215 . S
C243 O263 1.289 . S
C244 C243 1.488 . S
C244 C245 1.348 . S
C244 C249 1.413 . S
C245 C244 1.348 . S
C245 C246 1.442 . S
C245 H272 0.930 . S
C246 C245 1.442 . S
C246 C247 1.381 . S
C246 H273 0.931 . S
C247 C246 1.381 . S
C247 C248 1.321 . S
C248 C247 1.321 . S
C248 C249 1.403 . S
C248 H274 0.934 . S
C249 C244 1.413 . S
C249 C248 1.403 . S
C249 H275 0.930 . S
C250 O264 1.275 . S
C250 O265 1.256 . S
C251 O266 1.259 . S
C251 O267 1.268 . S
C252 Ho241 2.811 1_556 S
C252 C253 1.488 . S
C252 O268 1.215 . S
C252 O269 1.289 . S
C253 C252 1.488 . S
C253 C254 1.348 . S
C253 C258 1.413 . S
C254 C253 1.348 . S
C254 C255 1.442 . S
C254 H276 0.930 . S
C255 C254 1.442 . S
C255 C256 1.381 . S
C255 H277 0.931 . S
C256 C255 1.381 . S
C256 C257 1.321 . S
C257 C256 1.321 . S
C257 C258 1.403 . S
C257 H278 0.934 . S
C258 C253 1.413 . S
C258 C257 1.403 . S
C258 H279 0.930 . S
C259 O270 1.275 . S
C259 O271 1.256 . S
O260 Ho240 2.322 1_554 S
O260 C242 1.259 . S
O261 Ho241 2.346 . S
O261 C242 1.268 . S
O262 Ho240 2.378 1_554 S
O262 C243 1.215 . S
O263 Ho240 2.524 1_554 S
O263 C243 1.289 . S
O264 Ho240 2.381 . S
O264 C250 1.275 . S
O265 Ho240 2.669 . S
O265 Ho241 2.305 1_556 S
O265 C250 1.256 . S
O266 Ho241 2.322 1_556 S
O266 C251 1.259 . S
O267 Ho240 2.346 . S
O267 C251 1.268 . S
O268 Ho241 2.378 1_556 S
O268 C252 1.215 . S
O269 Ho241 2.524 1_556 S
O269 C252 1.289 . S
O270 Ho241 2.381 . S
O270 C259 1.275 . S
O271 Ho240 2.305 1_554 S
O271 Ho241 2.669 . S
O271 C259 1.256 . S
H272 C245 0.930 . S
H273 C246 0.931 . S
H274 C248 0.934 . S
H275 C249 0.930 . S
H276 C254 0.930 . S
H277 C255 0.931 . S
H278 C257 0.934 . S
H279 C258 0.930 . S
Ho280 C283 2.811 1_556 S
Ho280 O300 2.322 1_556 S
Ho280 O302 2.378 1_556 S
Ho280 O303 2.524 1_556 S
Ho280 O304 2.381 . S
Ho280 O305 2.669 . S
Ho280 O307 2.346 . S
Ho280 O311 2.305 1_556 S
Ho281 C292 2.811 1_554 S
Ho281 O301 2.346 . S
Ho281 O305 2.305 1_554 S
Ho281 O306 2.322 1_554 S
Ho281 O308 2.378 1_554 S
Ho281 O309 2.524 1_554 S
Ho281 O310 2.381 . S
Ho281 O311 2.669 . S
C282 O300 1.259 . S
C282 O301 1.268 . S
C283 Ho280 2.811 1_554 S
C283 C284 1.488 . S
C283 O302 1.215 . S
C283 O303 1.289 . S
C284 C283 1.488 . S
C284 C285 1.348 . S
C284 C289 1.413 . S
C285 C284 1.348 . S
C285 C286 1.442 . S
C285 H312 0.930 . S
C286 C285 1.442 . S
C286 C287 1.381 . S
C286 H313 0.931 . S
C287 C286 1.381 . S
C287 C288 1.321 . S
C288 C287 1.321 . S
C288 C289 1.403 . S
C288 H314 0.934 . S
C289 C284 1.413 . S
C289 C288 1.403 . S
C289 H315 0.930 . S
C290 O304 1.275 . S
C290 O305 1.256 . S
C291 O306 1.259 . S
C291 O307 1.268 . S
C292 Ho281 2.811 1_556 S
C292 C293 1.488 . S
C292 O308 1.215 . S
C292 O309 1.289 . S
C293 C292 1.488 . S
C293 C294 1.348 . S
C293 C298 1.413 . S
C294 C293 1.348 . S
C294 C295 1.442 . S
C294 H316 0.930 . S
C295 C294 1.442 . S
C295 C296 1.381 . S
C295 H317 0.931 . S
C296 C295 1.381 . S
C296 C297 1.321 . S
C297 C296 1.321 . S
C297 C298 1.403 . S
C297 H318 0.934 . S
C298 C293 1.413 . S
C298 C297 1.403 . S
C298 H319 0.930 . S
C299 O310 1.275 . S
C299 O311 1.256 . S
O300 Ho280 2.322 1_554 S
O300 C282 1.259 . S
O301 Ho281 2.346 . S
O301 C282 1.268 . S
O302 Ho280 2.378 1_554 S
O302 C283 1.215 . S
O303 Ho280 2.524 1_554 S
O303 C283 1.289 . S
O304 Ho280 2.381 . S
O304 C290 1.275 . S
O305 Ho280 2.669 . S
O305 Ho281 2.305 1_556 S
O305 C290 1.256 . S
O306 Ho281 2.322 1_556 S
O306 C291 1.259 . S
O307 Ho280 2.346 . S
O307 C291 1.268 . S
O308 Ho281 2.378 1_556 S
O308 C292 1.215 . S
O309 Ho281 2.524 1_556 S
O309 C292 1.289 . S
O310 Ho281 2.381 . S
O310 C299 1.275 . S
O311 Ho280 2.305 1_554 S
O311 Ho281 2.669 . S
O311 C299 1.256 . S
H312 C285 0.930 . S
H313 C286 0.931 . S
H314 C288 0.934 . S
H315 C289 0.930 . S
H316 C294 0.930 . S
H317 C295 0.931 . S
H318 C297 0.934 . S
H319 C298 0.930 . S
H320 C332 0.930 . S
H321 C334 0.930 . S
H322 C335 0.930 . S
H323 C339 0.959 . S
H324 C339 0.959 . S
H325 C339 0.961 . S
H326 C340 0.960 . S
H327 C340 0.961 . S
H328 C340 0.959 . S
H329 C343 0.929 . S
H330 C344 0.931 . S
H331 C346 0.930 . S
C332 H320 0.930 . S
C332 C333 1.399 . S
C332 C337 1.399 . S
C333 C332 1.399 . S
C333 C334 1.376 . S
C334 H321 0.930 . S
C334 C333 1.376 . S
C334 C335 1.388 . S
C335 H322 0.930 . S
C335 C334 1.388 . S
C335 C336 1.390 . S
C336 C335 1.390 . S
C336 C337 1.394 . S
C336 C342 1.465 . S
C337 C332 1.399 . S
C337 C336 1.394 . S
C337 C338 1.516 . S
C338 C337 1.516 . S
C338 C339 1.502 . S
C338 C340 1.561 . S
C338 C341 1.526 . S
C339 H323 0.959 . S
C339 H324 0.959 . S
C339 H325 0.961 . S
C339 C338 1.502 . S
C340 H326 0.960 . S
C340 H327 0.961 . S
C340 H328 0.959 . S
C340 C338 1.561 . S
C341 C338 1.526 . S
C341 C342 1.396 . S
C341 C346 1.390 . S
C342 C336 1.465 . S
C342 C341 1.396 . S
C342 C343 1.399 . S
C343 H329 0.929 . S
C343 C342 1.399 . S
C343 C344 1.385 . S
C344 H330 0.931 . S
C344 C343 1.385 . S
C344 C345 1.389 . S
C345 C344 1.389 . S
C345 C346 1.387 . S
C346 H331 0.930 . S
C346 C341 1.390 . S
C346 C345 1.387 . S
H347 C359 0.930 . S
H348 C361 0.930 . S
H349 C362 0.930 . S
H350 C366 0.959 . S
H351 C366 0.959 . S
H352 C366 0.961 . S
H353 C367 0.960 . S
H354 C367 0.961 . S
H355 C367 0.959 . S
H356 C370 0.929 . S
H357 C371 0.931 . S
H358 C373 0.930 . S
C359 H347 0.930 . S
C359 C360 1.399 . S
C359 C364 1.399 . S
C360 C359 1.399 . S
C360 C361 1.376 . S
C361 H348 0.930 . S
C361 C360 1.376 . S
C361 C362 1.388 . S
C362 H349 0.930 . S
C362 C361 1.388 . S
C362 C363 1.390 . S
C363 C362 1.390 . S
C363 C364 1.394 . S
C363 C369 1.465 . S
C364 C359 1.399 . S
C364 C363 1.394 . S
C364 C365 1.516 . S
C365 C364 1.516 . S
C365 C366 1.502 . S
C365 C367 1.561 . S
C365 C368 1.526 . S
C366 H350 0.959 . S
C366 H351 0.959 . S
C366 H352 0.961 . S
C366 C365 1.502 . S
C367 H353 0.960 . S
C367 H354 0.961 . S
C367 H355 0.959 . S
C367 C365 1.561 . S
C368 C365 1.526 . S
C368 C369 1.396 . S
C368 C373 1.390 . S
C369 C363 1.465 . S
C369 C368 1.396 . S
C369 C370 1.399 . S
C370 H356 0.929 . S
C370 C369 1.399 . S
C370 C371 1.385 . S
C371 H357 0.931 . S
C371 C370 1.385 . S
C371 C372 1.389 . S
C372 C371 1.389 . S
C372 C373 1.387 . S
C373 H358 0.930 . S
C373 C368 1.390 . S
C373 C372 1.387 . S
H374 C386 0.930 . S
H375 C388 0.930 . S
H376 C389 0.930 . S
H377 C393 0.959 . S
H378 C393 0.959 . S
H379 C393 0.961 . S
H380 C394 0.960 . S
H381 C394 0.961 . S
H382 C394 0.959 . S
H383 C397 0.929 . S
H384 C398 0.931 . S
H385 C400 0.930 . S
C386 H374 0.930 . S
C386 C387 1.399 . S
C386 C391 1.399 . S
C387 C386 1.399 . S
C387 C388 1.376 . S
C388 H375 0.930 . S
C388 C387 1.376 . S
C388 C389 1.388 . S
C389 H376 0.930 . S
C389 C388 1.388 . S
C389 C390 1.390 . S
C390 C389 1.390 . S
C390 C391 1.394 . S
C390 C396 1.465 . S
C391 C386 1.399 . S
C391 C390 1.394 . S
C391 C392 1.516 . S
C392 C391 1.516 . S
C392 C393 1.502 . S
C392 C394 1.561 . S
C392 C395 1.526 . S
C393 H377 0.959 . S
C393 H378 0.959 . S
C393 H379 0.961 . S
C393 C392 1.502 . S
C394 H380 0.960 . S
C394 H381 0.961 . S
C394 H382 0.959 . S
C394 C392 1.561 . S
C395 C392 1.526 . S
C395 C396 1.396 . S
C395 C400 1.390 . S
C396 C390 1.465 . S
C396 C395 1.396 . S
C396 C397 1.399 . S
C397 H383 0.929 . S
C397 C396 1.399 . S
C397 C398 1.385 . S
C398 H384 0.931 . S
C398 C397 1.385 . S
C398 C399 1.389 . S
C399 C398 1.389 . S
C399 C400 1.387 . S
C400 H385 0.930 . S
C400 C395 1.390 . S
C400 C399 1.387 . S
H401 C413 0.930 . S
H402 C415 0.930 . S
H403 C416 0.930 . S
H404 C420 0.959 . S
H405 C420 0.959 . S
H406 C420 0.961 . S
H407 C421 0.960 . S
H408 C421 0.961 . S
H409 C421 0.959 . S
H410 C424 0.929 . S
H411 C425 0.931 . S
H412 C427 0.930 . S
C413 H401 0.930 . S
C413 C414 1.399 . S
C413 C418 1.399 . S
C414 C413 1.399 . S
C414 C415 1.376 . S
C415 H402 0.930 . S
C415 C414 1.376 . S
C415 C416 1.388 . S
C416 H403 0.930 . S
C416 C415 1.388 . S
C416 C417 1.390 . S
C417 C416 1.390 . S
C417 C418 1.394 . S
C417 C423 1.465 . S
C418 C413 1.399 . S
C418 C417 1.394 . S
C418 C419 1.516 . S
C419 C418 1.516 . S
C419 C420 1.502 . S
C419 C421 1.561 . S
C419 C422 1.526 . S
C420 H404 0.959 . S
C420 H405 0.959 . S
C420 H406 0.961 . S
C420 C419 1.502 . S
C421 H407 0.960 . S
C421 H408 0.961 . S
C421 H409 0.959 . S
C421 C419 1.561 . S
C422 C419 1.526 . S
C422 C423 1.396 . S
C422 C427 1.390 . S
C423 C417 1.465 . S
C423 C422 1.396 . S
C423 C424 1.399 . S
C424 H410 0.929 . S
C424 C423 1.399 . S
C424 C425 1.385 . S
C425 H411 0.931 . S
C425 C424 1.385 . S
C425 C426 1.389 . S
C426 C425 1.389 . S
C426 C427 1.387 . S
C427 H412 0.930 . S
C427 C422 1.390 . S
C427 C426 1.387 . S
H428 C440 0.930 . S
H429 C442 0.930 . S
H430 C443 0.930 . S
H431 C447 0.959 . S
H432 C447 0.959 . S
H433 C447 0.961 . S
H434 C448 0.965 . S
H435 C448 0.961 . S
H436 C448 0.959 . S
H437 C451 0.929 . S
H438 C452 0.931 . S
H439 C454 0.930 . S
C440 H428 0.930 . S
C440 C441 1.399 . S
C440 C445 1.399 . S
C441 C440 1.399 . S
C441 C442 1.376 . S
C442 H429 0.930 . S
C442 C441 1.376 . S
C442 C443 1.388 . S
C443 H430 0.930 . S
C443 C442 1.388 . S
C443 C444 1.390 . S
C444 C443 1.390 . S
C444 C445 1.394 . S
C444 C450 1.465 1_565 S
C445 C440 1.399 . S
C445 C444 1.394 . S
C445 C446 1.516 1_565 S
C446 C445 1.516 1_545 S
C446 C447 1.502 . S
C446 C448 1.561 . S
C446 C449 1.526 . S
C447 H431 0.959 . S
C447 H432 0.959 . S
C447 H433 0.961 . S
C447 C446 1.502 . S
C448 H434 0.965 . S
C448 H435 0.961 . S
C448 H436 0.959 . S
C448 C446 1.561 . S
C449 C446 1.526 . S
C449 C450 1.396 . S
C449 C454 1.390 . S
C450 C444 1.465 1_545 S
C450 C449 1.396 . S
C450 C451 1.399 . S
C451 H437 0.929 . S
C451 C450 1.399 . S
C451 C452 1.385 . S
C452 H438 0.931 . S
C452 C451 1.385 . S
C452 C453 1.389 . S
C453 C452 1.389 . S
C453 C454 1.387 . S
C454 H439 0.930 . S
C454 C449 1.390 . S
C454 C453 1.387 . S
H455 C467 0.930 . S
H456 C469 0.930 . S
H457 C470 0.930 . S
H458 C474 0.959 . S
H459 C474 0.959 . S
H460 C474 0.961 . S
H461 C475 0.960 . S
H462 C475 0.961 . S
H463 C475 0.959 . S
H464 C478 0.929 . S
H465 C479 0.931 . S
H466 C481 0.930 . S
C467 H455 0.930 . S
C467 C468 1.399 . S
C467 C472 1.399 . S
C468 C467 1.399 . S
C468 C469 1.376 . S
C469 H456 0.930 . S
C469 C468 1.376 . S
C469 C470 1.388 . S
C470 H457 0.930 . S
C470 C469 1.388 . S
C470 C471 1.390 . S
C471 C470 1.390 . S
C471 C472 1.394 . S
C471 C477 1.465 . S
C472 C467 1.399 . S
C472 C471 1.394 . S
C472 C473 1.516 . S
C473 C472 1.516 . S
C473 C474 1.502 . S
C473 C475 1.561 . S
C473 C476 1.526 . S
C474 H458 0.959 . S
C474 H459 0.959 . S
C474 H460 0.961 . S
C474 C473 1.502 . S
C475 H461 0.960 . S
C475 H462 0.961 . S
C475 H463 0.959 . S
C475 C473 1.561 . S
C476 C473 1.526 . S
C476 C477 1.396 . S
C476 C481 1.390 . S
C477 C471 1.465 . S
C477 C476 1.396 . S
C477 C478 1.399 . S
C478 H464 0.929 . S
C478 C477 1.399 . S
C478 C479 1.385 . S
C479 H465 0.931 . S
C479 C478 1.385 . S
C479 C480 1.389 . S
C480 C479 1.389 . S
C480 C481 1.387 . S
C481 H466 0.930 . S
C481 C476 1.390 . S
C481 C480 1.387 . S
H482 C494 0.930 . S
H483 C496 0.930 . S
H484 C497 0.930 . S
H485 C501 0.959 . S
H486 C501 0.959 . S
H487 C501 0.961 . S
H488 C502 0.960 . S
H489 C502 0.961 . S
H490 C502 0.959 . S
H491 C505 0.929 . S
H492 C506 0.931 . S
H493 C508 0.930 . S
C494 H482 0.930 . S
C494 C495 1.399 . S
C494 C499 1.399 . S
C495 C494 1.399 . S
C495 C496 1.376 . S
C496 H483 0.930 . S
C496 C495 1.376 . S
C496 C497 1.388 . S
C497 H484 0.930 . S
C497 C496 1.388 . S
C497 C498 1.390 . S
C498 C497 1.390 . S
C498 C499 1.394 . S
C498 C504 1.465 1_565 S
C499 C494 1.399 . S
C499 C498 1.394 . S
C499 C500 1.516 1_565 S
C500 C499 1.516 1_545 S
C500 C501 1.502 . S
C500 C502 1.561 . S
C500 C503 1.526 . S
C501 H485 0.959 . S
C501 H486 0.959 . S
C501 H487 0.961 . S
C501 C500 1.502 . S
C502 H488 0.960 . S
C502 H489 0.961 . S
C502 H490 0.959 . S
C502 C500 1.561 . S
C503 C500 1.526 . S
C503 C504 1.396 . S
C503 C508 1.390 . S
C504 C498 1.465 1_545 S
C504 C503 1.396 . S
C504 C505 1.399 . S
C505 H491 0.929 . S
C505 C504 1.399 . S
C505 C506 1.385 . S
C506 H492 0.931 . S
C506 C505 1.385 . S
C506 C507 1.389 . S
C507 C506 1.389 . S
C507 C508 1.387 . S
C508 H493 0.930 . S
C508 C503 1.390 . S
C508 C507 1.387 . S
H509 C521 0.930 . S
H510 C523 0.930 . S
H511 C524 0.930 . S
H512 C528 0.959 . S
H513 C528 0.959 . S
H514 C528 0.961 . S
H515 C529 0.960 . S
H516 C529 0.961 . S
H517 C529 0.959 . S
H518 C532 0.929 . S
H519 C533 0.931 . S
H520 C535 0.930 . S
C521 H509 0.930 . S
C521 C522 1.399 . S
C521 C526 1.399 . S
C522 C521 1.399 . S
C522 C523 1.376 . S
C523 H510 0.930 . S
C523 C522 1.376 . S
C523 C524 1.388 . S
C524 H511 0.930 . S
C524 C523 1.388 . S
C524 C525 1.390 . S
C525 C524 1.390 . S
C525 C526 1.394 . S
C525 C531 1.465 . S
C526 C521 1.399 . S
C526 C525 1.394 . S
C526 C527 1.516 . S
C527 C526 1.516 . S
C527 C528 1.502 . S
C527 C529 1.561 . S
C527 C530 1.526 . S
C528 H512 0.959 . S
C528 H513 0.959 . S
C528 H514 0.961 . S
C528 C527 1.502 . S
C529 H515 0.960 . S
C529 H516 0.961 . S
C529 H517 0.959 . S
C529 C527 1.561 . S
C530 C527 1.526 . S
C530 C531 1.396 . S
C530 C535 1.390 . S
C531 C525 1.465 . S
C531 C530 1.396 . S
C531 C532 1.399 . S
C532 H518 0.929 . S
C532 C531 1.399 . S
C532 C533 1.385 . S
C533 H519 0.931 . S
C533 C532 1.385 . S
C533 C534 1.389 . S
C534 C533 1.389 . S
C534 C535 1.387 . S
C535 H520 0.930 . S
C535 C530 1.390 . S
C535 C534 1.387 . S
H536 C548 0.930 . S
H537 C550 0.930 . S
H538 C551 0.930 . S
H539 C555 0.959 . S
H540 C555 0.959 . S
H541 C555 0.961 . S
H542 C556 0.960 . S
H543 C556 0.961 . S
H544 C556 0.959 . S
H545 C559 0.929 . S
H546 C560 0.931 . S
H547 C562 0.930 . S
C548 H536 0.930 . S
C548 C549 1.391 1_556 S
C548 C553 1.399 . S
C549 C548 1.391 1_554 S
C549 C550 1.386 . S
C550 H537 0.930 . S
C550 C549 1.386 . S
C550 C551 1.388 . S
C551 H538 0.930 . S
C551 C550 1.388 . S
C551 C552 1.390 . S
C552 C551 1.390 . S
C552 C553 1.394 1_554 S
C552 C558 1.465 . S
C553 C548 1.399 . S
C553 C552 1.394 1_556 S
C553 C554 1.516 . S
C554 C553 1.516 . S
C554 C555 1.502 . S
C554 C556 1.561 . S
C554 C557 1.526 . S
C555 H539 0.959 . S
C555 H540 0.959 . S
C555 H541 0.961 . S
C555 C554 1.502 . S
C556 H542 0.960 . S
C556 H543 0.961 . S
C556 H544 0.959 . S
C556 C554 1.561 . S
C557 C554 1.526 . S
C557 C558 1.396 1_556 S
C557 C562 1.390 . S
C558 C552 1.465 . S
C558 C557 1.396 1_554 S
C558 C559 1.399 . S
C559 H545 0.929 . S
C559 C558 1.399 . S
C559 C560 1.385 . S
C560 H546 0.931 . S
C560 C559 1.385 . S
C560 C561 1.389 . S
C561 C560 1.389 . S
C561 C562 1.387 1_554 S
C562 H547 0.930 . S
C562 C557 1.390 . S
C562 C561 1.387 1_556 S
H563 C575 0.930 . S
H564 C577 0.930 . S
H565 C578 0.930 . S
H566 C582 0.959 . S
H567 C582 0.959 1_545 S
H568 C582 0.961 . S
H569 C583 0.960 1_565 S
H570 C583 0.961 . S
H571 C583 0.959 . S
H572 C586 0.929 . S
H573 C587 0.931 . S
H574 C589 0.930 . S
C575 H563 0.930 . S
C575 C576 1.399 1_556 S
C575 C580 1.399 . S
C576 C575 1.399 1_554 S
C576 C577 1.376 . S
C577 H564 0.930 . S
C577 C576 1.376 . S
C577 C578 1.388 . S
C578 H565 0.930 . S
C578 C577 1.388 . S
C578 C579 1.390 . S
C579 C578 1.390 . S
C579 C580 1.394 1_554 S
C579 C585 1.465 1_565 S
C580 C575 1.399 . S
C580 C579 1.394 1_556 S
C580 C581 1.516 1_565 S
C581 C580 1.516 1_545 S
C581 C582 1.502 1_545 S
C581 C583 1.561 . S
C581 C584 1.526 . S
C582 H566 0.959 . S
C582 H567 0.959 1_565 S
C582 H568 0.961 . S
C582 C581 1.502 1_565 S
C583 H569 0.960 1_545 S
C583 H570 0.961 . S
C583 H571 0.959 . S
C583 C581 1.561 . S
C584 C581 1.526 . S
C584 C585 1.396 1_556 S
C584 C589 1.390 . S
C585 C579 1.465 1_545 S
C585 C584 1.396 1_554 S
C585 C586 1.399 . S
C586 H572 0.929 . S
C586 C585 1.399 . S
C586 C587 1.385 . S
C587 H573 0.931 . S
C587 C586 1.385 . S
C587 C588 1.389 . S
C588 C587 1.389 . S
C588 C589 1.387 1_554 S
C589 H574 0.930 . S
C589 C584 1.390 . S
C589 C588 1.387 1_556 S
H590 C602 0.930 . S
H591 C604 0.930 . S
H592 C605 0.930 . S
H593 C609 0.959 . S
H594 C609 0.959 . S
H595 C609 0.961 . S
H596 C610 0.960 . S
H597 C610 0.961 . S
H598 C610 0.959 . S
H599 C613 0.929 . S
H600 C614 0.931 . S
H601 C616 0.930 . S
C602 H590 0.930 . S
C602 C603 1.390 1_554 S
C602 C607 1.399 . S
C603 C602 1.390 1_556 S
C603 C604 1.388 . S
C604 H591 0.930 . S
C604 C603 1.388 . S
C604 C605 1.388 . S
C605 H592 0.930 . S
C605 C604 1.388 . S
C605 C606 1.390 . S
C606 C605 1.390 . S
C606 C607 1.394 1_556 S
C606 C612 1.465 . S
C607 C602 1.399 . S
C607 C606 1.394 1_554 S
C607 C608 1.516 . S
C608 C607 1.516 . S
C608 C609 1.502 . S
C608 C610 1.561 . S
C608 C611 1.526 . S
C609 H593 0.959 . S
C609 H594 0.959 . S
C609 H595 0.961 . S
C609 C608 1.502 . S
C610 H596 0.960 . S
C610 H597 0.961 . S
C610 H598 0.959 . S
C610 C608 1.561 . S
C611 C608 1.526 . S
C611 C612 1.396 1_554 S
C611 C616 1.390 . S
C612 C606 1.465 . S
C612 C611 1.396 1_556 S
C612 C613 1.399 . S
C613 H599 0.929 . S
C613 C612 1.399 . S
C613 C614 1.385 . S
C614 H600 0.931 . S
C614 C613 1.385 . S
C614 C615 1.389 . S
C615 C614 1.389 . S
C615 C616 1.387 1_556 S
C616 H601 0.930 . S
C616 C611 1.390 . S
C616 C615 1.387 1_554 S
H617 C629 0.930 . S
H618 C631 0.930 . S
H619 C632 0.930 . S
H620 C636 0.959 . S
H621 C636 0.959 1_565 S
H622 C636 0.961 . S
H623 C637 0.960 1_545 S
H624 C637 0.961 . S
H625 C637 0.959 . S
H626 C640 0.929 . S
H627 C641 0.931 . S
H628 C643 0.930 . S
C629 H617 0.930 . S
C629 C630 1.399 1_556 S
C629 C634 1.399 . S
C630 C629 1.399 1_554 S
C630 C631 1.376 . S
C631 H618 0.930 . S
C631 C630 1.376 . S
C631 C632 1.388 . S
C632 H619 0.930 . S
C632 C631 1.388 . S
C632 C633 1.390 . S
C633 C632 1.390 . S
C633 C634 1.394 1_554 S
C633 C639 1.465 1_545 S
C634 C629 1.399 . S
C634 C633 1.394 1_556 S
C634 C635 1.521 . S
C635 C634 1.521 . S
C635 C636 1.502 . S
C635 C637 1.561 1_545 S
C635 C638 1.521 1_545 S
C636 H620 0.959 . S
C636 H621 0.959 1_545 S
C636 H622 0.961 . S
C636 C635 1.502 . S
C637 H623 0.960 1_565 S
C637 H624 0.961 . S
C637 H625 0.959 . S
C637 C635 1.561 1_565 S
C638 C635 1.521 1_565 S
C638 C639 1.396 1_556 S
C638 C643 1.390 . S
C639 C633 1.465 1_565 S
C639 C638 1.396 1_554 S
C639 C640 1.399 . S
C640 H626 0.929 . S
C640 C639 1.399 . S
C640 C641 1.385 . S
C641 H627 0.931 . S
C641 C640 1.385 . S
C641 C642 1.389 . S
C642 C641 1.389 . S
C642 C643 1.387 1_554 S
C643 H628 0.930 . S
C643 C638 1.390 . S
C643 C642 1.387 1_556 S
H644 C656 0.930 . S
H645 C658 0.930 . S
H646 C659 0.930 . S
H647 C663 0.959 . S
H648 C663 0.959 . S
H649 C663 0.961 . S
H650 C664 0.960 . S
H651 C664 0.961 . S
H652 C664 0.959 . S
H653 C667 0.929 . S
H654 C668 0.931 . S
H655 C670 0.930 . S
C656 H644 0.930 . S
C656 C657 1.399 . S
C656 C661 1.399 . S
C657 C656 1.399 . S
C657 C658 1.376 . S
C658 H645 0.930 . S
C658 C657 1.376 . S
C658 C659 1.388 . S
C659 H646 0.930 . S
C659 C658 1.388 . S
C659 C660 1.390 1_554 S
C660 C659 1.390 1_556 S
C660 C661 1.394 1_556 S
C660 C666 1.465 . S
C661 C656 1.399 . S
C661 C660 1.394 1_554 S
C661 C662 1.516 1_554 S
C662 C661 1.516 1_556 S
C662 C663 1.502 . S
C662 C664 1.561 . S
C662 C665 1.526 . S
C663 H647 0.959 . S
C663 H648 0.959 . S
C663 H649 0.961 . S
C663 C662 1.502 . S
C664 H650 0.960 . S
C664 H651 0.961 . S
C664 H652 0.959 . S
C664 C662 1.561 . S
C665 C662 1.526 . S
C665 C666 1.396 . S
C665 C670 1.390 . S
C666 C660 1.465 . S
C666 C665 1.396 . S
C666 C667 1.399 . S
C667 H653 0.929 . S
C667 C666 1.399 . S
C667 C668 1.385 . S
C668 H654 0.931 . S
C668 C667 1.385 . S
C668 C669 1.389 . S
C669 C668 1.389 . S
C669 C670 1.387 . S
C670 H655 0.930 . S
C670 C665 1.390 . S
C670 C669 1.387 . S
H671 C683 0.930 . S
H672 C685 0.930 . S
H673 C686 0.930 . S
H674 C690 0.959 . S
H675 C690 0.959 . S
H676 C690 0.961 . S
H677 C691 0.960 . S
H678 C691 0.961 . S
H679 C691 0.959 . S
H680 C694 0.929 . S
H681 C695 0.931 . S
H682 C697 0.930 . S
C683 H671 0.930 . S
C683 C684 1.399 . S
C683 C688 1.399 . S
C684 C683 1.399 . S
C684 C685 1.376 . S
C685 H672 0.930 . S
C685 C684 1.376 . S
C685 C686 1.388 . S
C686 H673 0.930 . S
C686 C685 1.388 . S
C686 C687 1.390 1_554 S
C687 C686 1.390 1_556 S
C687 C688 1.394 1_556 S
C687 C693 1.465 . S
C688 C683 1.399 . S
C688 C687 1.394 1_554 S
C688 C689 1.516 1_554 S
C689 C688 1.516 1_556 S
C689 C690 1.502 . S
C689 C691 1.561 . S
C689 C692 1.526 . S
C690 H674 0.959 . S
C690 H675 0.959 . S
C690 H676 0.961 . S
C690 C689 1.502 . S
C691 H677 0.960 . S
C691 H678 0.961 . S
C691 H679 0.959 . S
C691 C689 1.561 . S
C692 C689 1.526 . S
C692 C693 1.396 . S
C692 C697 1.390 . S
C693 C687 1.465 . S
C693 C692 1.396 . S
C693 C694 1.399 . S
C694 H680 0.929 . S
C694 C693 1.399 . S
C694 C695 1.385 . S
C695 H681 0.931 . S
C695 C694 1.385 . S
C695 C696 1.389 . S
C696 C695 1.389 . S
C696 C697 1.387 . S
C697 H682 0.930 . S
C697 C692 1.390 . S
C697 C696 1.387 . S
H698 C710 0.930 . S
H699 C712 0.930 . S
H700 C713 0.930 . S
H701 C717 0.959 . S
H702 C717 0.959 . S
H703 C717 0.961 . S
H704 C718 0.960 . S
H705 C718 0.961 . S
H706 C718 0.959 . S
H707 C721 0.929 . S
H708 C722 0.931 . S
H709 C724 0.930 . S
C710 H698 0.930 . S
C710 C711 1.399 . S
C710 C715 1.399 . S
C711 C710 1.399 . S
C711 C712 1.376 . S
C712 H699 0.930 . S
C712 C711 1.376 . S
C712 C713 1.388 . S
C713 H700 0.930 . S
C713 C712 1.388 . S
C713 C714 1.390 . S
C714 C713 1.390 . S
C714 C715 1.394 . S
C714 C720 1.465 . S
C715 C710 1.399 . S
C715 C714 1.394 . S
C715 C716 1.516 . S
C716 C715 1.516 . S
C716 C717 1.502 . S
C716 C718 1.561 . S
C716 C719 1.526 1_554 S
C717 H701 0.959 . S
C717 H702 0.959 . S
C717 H703 0.961 . S
C717 C716 1.502 . S
C718 H704 0.960 . S
C718 H705 0.961 . S
C718 H706 0.959 . S
C718 C716 1.561 . S
C719 C716 1.526 1_556 S
C719 C720 1.396 1_556 S
C719 C724 1.390 . S
C720 C714 1.465 . S
C720 C719 1.396 1_554 S
C720 C721 1.399 1_554 S
C721 H707 0.929 . S
C721 C720 1.399 1_556 S
C721 C722 1.385 . S
C722 H708 0.931 . S
C722 C721 1.385 . S
C722 C723 1.389 . S
C723 C722 1.389 . S
C723 C724 1.387 . S
C724 H709 0.930 . S
C724 C719 1.390 . S
C724 C723 1.387 . S
H725 C737 0.930 . S
H726 C739 0.930 . S
H727 C740 0.930 . S
H728 C744 0.959 . S
H729 C744 0.959 . S
H730 C744 0.961 . S
H731 C745 0.960 . S
H732 C745 0.961 . S
H733 C745 0.959 . S
H734 C748 0.929 . S
H735 C749 0.931 . S
H736 C751 0.930 . S
C737 H725 0.930 . S
C737 C738 1.399 . S
C737 C742 1.401 . S
C738 C737 1.399 . S
C738 C739 1.376 . S
C739 H726 0.930 . S
C739 C738 1.376 . S
C739 C740 1.388 . S
C740 H727 0.930 . S
C740 C739 1.388 . S
C740 C741 1.390 1_556 S
C741 C740 1.390 1_554 S
C741 C742 1.393 1_554 S
C741 C747 1.465 . S
C742 C737 1.401 . S
C742 C741 1.393 1_556 S
C742 C743 1.514 1_556 S
C743 C742 1.514 1_554 S
C743 C744 1.502 . S
C743 C745 1.561 . S
C743 C746 1.526 . S
C744 H728 0.959 . S
C744 H729 0.959 . S
C744 H730 0.961 . S
C744 C743 1.502 . S
C745 H731 0.960 . S
C745 H732 0.961 . S
C745 H733 0.959 . S
C745 C743 1.561 . S
C746 C743 1.526 . S
C746 C747 1.396 . S
C746 C751 1.390 . S
C747 C741 1.465 . S
C747 C746 1.396 . S
C747 C748 1.399 . S
C748 H734 0.929 . S
C748 C747 1.399 . S
C748 C749 1.385 . S
C749 H735 0.931 . S
C749 C748 1.385 . S
C749 C750 1.389 . S
C750 C749 1.389 . S
C750 C751 1.387 . S
C751 H736 0.930 . S
C751 C746 1.390 . S
C751 C750 1.387 . S
H752 C764 0.930 . S
H753 C766 0.930 . S
H754 C767 0.930 . S
H755 C771 0.959 . S
H756 C771 0.959 . S
H757 C771 0.961 . S
H758 C772 0.960 . S
H759 C772 0.961 . S
H760 C772 0.959 . S
H761 C775 0.929 . S
H762 C776 0.931 . S
H763 C778 0.930 . S
C764 H752 0.930 . S
C764 C765 1.399 . S
C764 C769 1.399 . S
C765 C764 1.399 . S
C765 C766 1.376 . S
C766 H753 0.930 . S
C766 C765 1.376 . S
C766 C767 1.388 . S
C767 H754 0.930 . S
C767 C766 1.388 . S
C767 C768 1.390 . S
C768 C767 1.390 . S
C768 C769 1.394 . S
C768 C774 1.465 . S
C769 C764 1.399 . S
C769 C768 1.394 . S
C769 C770 1.516 . S
C770 C769 1.516 . S
C770 C771 1.502 . S
C770 C772 1.561 . S
C770 C773 1.526 . S
C771 H755 0.959 . S
C771 H756 0.959 . S
C771 H757 0.961 . S
C771 C770 1.502 . S
C772 H758 0.960 . S
C772 H759 0.961 . S
C772 H760 0.959 . S
C772 C770 1.561 . S
C773 C770 1.526 . S
C773 C774 1.396 . S
C773 C778 1.390 . S
C774 C768 1.465 . S
C774 C773 1.396 . S
C774 C775 1.399 . S
C775 H761 0.929 . S
C775 C774 1.399 . S
C775 C776 1.385 . S
C776 H762 0.931 . S
C776 C775 1.385 . S
C776 C777 1.389 . S
C777 C776 1.389 . S
C777 C778 1.387 . S
C778 H763 0.930 . S
C778 C773 1.390 . S
C778 C777 1.387 . S
H779 C791 0.930 . S
H780 C793 0.930 . S
H781 C794 0.930 . S
H782 C798 0.959 . S
H783 C798 0.959 . S
H784 C798 0.961 . S
H785 C799 0.960 . S
H786 C799 0.961 . S
H787 C799 0.959 . S
H788 C802 0.929 . S
H789 C803 0.931 . S
H790 C805 0.930 . S
C791 H779 0.930 . S
C791 C792 1.399 . S
C791 C796 1.399 . S
C792 C791 1.399 . S
C792 C793 1.376 . S
C793 H780 0.930 . S
C793 C792 1.376 . S
C793 C794 1.388 . S
C794 H781 0.930 . S
C794 C793 1.388 . S
C794 C795 1.390 . S
C795 C794 1.390 . S
C795 C796 1.394 . S
C795 C801 1.465 . S
C796 C791 1.399 . S
C796 C795 1.394 . S
C796 C797 1.516 . S
C797 C796 1.516 . S
C797 C798 1.502 . S
C797 C799 1.561 . S
C797 C800 1.526 . S
C798 H782 0.959 . S
C798 H783 0.959 . S
C798 H784 0.961 . S
C798 C797 1.502 . S
C799 H785 0.960 . S
C799 H786 0.961 . S
C799 H787 0.959 . S
C799 C797 1.561 . S
C800 C797 1.526 . S
C800 C801 1.396 . S
C800 C805 1.390 . S
C801 C795 1.465 . S
C801 C800 1.396 . S
C801 C802 1.399 . S
C802 H788 0.929 . S
C802 C801 1.399 . S
C802 C803 1.385 . S
C803 H789 0.931 . S
C803 C802 1.385 . S
C803 C804 1.389 . S
C804 C803 1.389 . S
C804 C805 1.387 . S
C805 H790 0.930 . S
C805 C800 1.390 . S
C805 C804 1.387 . S
H806 C818 0.930 . S
H807 C820 0.930 . S
H808 C821 0.930 . S
H809 C825 0.959 . S
H810 C825 0.959 . S
H811 C825 0.961 . S
H812 C826 0.960 . S
H813 C826 0.961 . S
H814 C826 0.959 . S
H815 C829 0.929 . S
H816 C830 0.931 . S
H817 C832 0.930 . S
C818 H806 0.930 . S
C818 C819 1.399 . S
C818 C823 1.399 . S
C819 C818 1.399 . S
C819 C820 1.376 . S
C820 H807 0.930 . S
C820 C819 1.376 . S
C820 C821 1.388 . S
C821 H808 0.930 . S
C821 C820 1.388 . S
C821 C822 1.390 . S
C822 C821 1.390 . S
C822 C823 1.394 . S
C822 C828 1.465 . S
C823 C818 1.399 . S
C823 C822 1.394 . S
C823 C824 1.516 . S
C824 C823 1.516 . S
C824 C825 1.502 . S
C824 C826 1.561 . S
C824 C827 1.526 . S
C825 H809 0.959 . S
C825 H810 0.959 . S
C825 H811 0.961 . S
C825 C824 1.502 . S
C826 H812 0.960 . S
C826 H813 0.961 . S
C826 H814 0.959 . S
C826 C824 1.561 . S
C827 C824 1.526 . S
C827 C828 1.396 . S
C827 C832 1.390 . S
C828 C822 1.465 . S
C828 C827 1.396 . S
C828 C829 1.399 . S
C829 H815 0.929 . S
C829 C828 1.399 . S
C829 C830 1.385 . S
C830 H816 0.931 . S
C830 C829 1.385 . S
C830 C831 1.389 . S
C831 C830 1.389 . S
C831 C832 1.387 . S
C832 H817 0.930 . S
C832 C827 1.390 . S
C832 C831 1.387 . S
H833 C845 0.930 . S
H834 C847 0.930 . S
H835 C848 0.930 . S
H836 C852 0.959 . S
H837 C852 0.959 . S
H838 C852 0.961 . S
H839 C853 0.960 . S
H840 C853 0.961 . S
H841 C853 0.959 . S
H842 C856 0.929 . S
H843 C857 0.931 . S
H844 C859 0.930 . S
C845 H833 0.930 . S
C845 C846 1.399 . S
C845 C850 1.399 . S
C846 C845 1.399 . S
C846 C847 1.376 . S
C847 H834 0.930 . S
C847 C846 1.376 . S
C847 C848 1.388 . S
C848 H835 0.930 . S
C848 C847 1.388 . S
C848 C849 1.390 . S
C849 C848 1.390 . S
C849 C850 1.394 . S
C849 C855 1.465 . S
C850 C845 1.399 . S
C850 C849 1.394 . S
C850 C851 1.516 . S
C851 C850 1.516 . S
C851 C852 1.502 . S
C851 C853 1.561 . S
C851 C854 1.526 . S
C852 H836 0.959 . S
C852 H837 0.959 . S
C852 H838 0.961 . S
C852 C851 1.502 . S
C853 H839 0.960 . S
C853 H840 0.961 . S
C853 H841 0.959 . S
C853 C851 1.561 . S
C854 C851 1.526 . S
C854 C855 1.396 . S
C854 C859 1.390 . S
C855 C849 1.465 . S
C855 C854 1.396 . S
C855 C856 1.399 . S
C856 H842 0.929 . S
C856 C855 1.399 . S
C856 C857 1.385 . S
C857 H843 0.931 . S
C857 C856 1.385 . S
C857 C858 1.389 . S
C858 C857 1.389 . S
C858 C859 1.387 . S
C859 H844 0.930 . S
C859 C854 1.390 . S
C859 C858 1.387 . S
H860 C872 0.930 . S
H861 C874 0.930 . S
H862 C875 0.930 . S
H863 C879 0.960 . S
H864 C879 0.912 1_655 S
H865 C879 1.013 . S
H866 C880 0.960 1_455 S
H867 C880 0.961 . S
H868 C880 0.959 . S
H869 C883 0.929 . S
H870 C884 0.931 . S
H871 C886 0.930 . S
C872 H860 0.930 . S
C872 C873 1.399 . S
C872 C877 1.399 . S
C873 C872 1.399 . S
C873 C874 1.376 . S
C874 H861 0.930 . S
C874 C873 1.376 . S
C874 C875 1.388 . S
C875 H862 0.930 . S
C875 C874 1.388 . S
C875 C876 1.390 . S
C876 C875 1.390 . S
C876 C877 1.394 . S
C876 C882 1.465 1_455 S
C877 C872 1.399 . S
C877 C876 1.394 . S
C877 C878 1.512 1_455 S
C878 C877 1.512 1_655 S
C878 C879 1.505 1_655 S
C878 C880 1.561 . S
C878 C881 1.530 . S
C879 H863 0.960 . S
C879 H864 0.912 1_455 S
C879 H865 1.013 . S
C879 C878 1.505 1_455 S
C880 H866 0.960 1_655 S
C880 H867 0.961 . S
C880 H868 0.959 . S
C880 C878 1.561 . S
C881 C878 1.530 . S
C881 C882 1.396 . S
C881 C886 1.390 . S
C882 C876 1.465 1_655 S
C882 C881 1.396 . S
C882 C883 1.399 . S
C883 H869 0.929 . S
C883 C882 1.399 . S
C883 C884 1.385 . S
C884 H870 0.931 . S
C884 C883 1.385 . S
C884 C885 1.389 . S
C885 C884 1.389 . S
C885 C886 1.387 . S
C886 H871 0.930 . S
C886 C881 1.390 . S
C886 C885 1.387 . S
H887 C899 0.930 . S
H888 C901 0.930 . S
H889 C902 0.930 . S
H890 C906 0.959 . S
H891 C906 0.959 . S
H892 C906 0.961 1_655 S
H893 C907 0.981 . S
H894 C907 0.942 1_455 S
H895 C907 0.960 . S
H896 C910 0.929 . S
H897 C911 0.931 . S
H898 C913 0.930 . S
C899 H887 0.930 . S
C899 C900 1.399 . S
C899 C904 1.399 . S
C900 C899 1.399 . S
C900 C901 1.376 . S
C901 H888 0.930 . S
C901 C900 1.376 . S
C901 C902 1.388 . S
C902 H889 0.930 . S
C902 C901 1.388 . S
C902 C903 1.390 . S
C903 C902 1.390 . S
C903 C904 1.394 . S
C903 C909 1.465 1_655 S
C904 C899 1.399 . S
C904 C903 1.394 . S
C904 C905 1.480 1_655 S
C905 C904 1.480 1_455 S
C905 C906 1.503 . S
C905 C907 1.563 1_455 S
C905 C908 1.563 . S
C906 H890 0.959 . S
C906 H891 0.959 . S
C906 H892 0.961 1_455 S
C906 C905 1.503 . S
C907 H893 0.981 . S
C907 H894 0.942 1_655 S
C907 H895 0.960 . S
C907 C905 1.563 1_655 S
C908 C905 1.563 . S
C908 C909 1.396 . S
C908 C913 1.390 . S
C909 C903 1.465 1_455 S
C909 C908 1.396 . S
C909 C910 1.399 . S
C910 H896 0.929 . S
C910 C909 1.399 . S
C910 C911 1.385 . S
C911 H897 0.931 . S
C911 C910 1.385 . S
C911 C912 1.389 . S
C912 C911 1.389 . S
C912 C913 1.387 . S
C913 H898 0.930 . S
C913 C908 1.390 . S
C913 C912 1.387 . S
H914 C926 0.930 . S
H915 C928 0.930 . S
H916 C929 0.930 . S
H917 C933 0.959 . S
H918 C933 0.959 . S
H919 C933 0.961 . S
H920 C934 0.960 . S
H921 C934 0.961 . S
H922 C934 0.959 . S
H923 C937 0.929 . S
H924 C938 0.931 . S
H925 C940 0.930 . S
C926 H914 0.930 . S
C926 C927 1.399 . S
C926 C931 1.399 . S
C927 C926 1.399 . S
C927 C928 1.376 . S
C928 H915 0.930 . S
C928 C927 1.376 . S
C928 C929 1.388 . S
C929 H916 0.930 . S
C929 C928 1.388 . S
C929 C930 1.390 . S
C930 C929 1.390 . S
C930 C931 1.394 . S
C930 C936 1.465 . S
C931 C926 1.399 . S
C931 C930 1.394 . S
C931 C932 1.516 . S
C932 C931 1.516 . S
C932 C933 1.502 . S
C932 C934 1.561 . S
C932 C935 1.526 . S
C933 H917 0.959 . S
C933 H918 0.959 . S
C933 H919 0.961 . S
C933 C932 1.502 . S
C934 H920 0.960 . S
C934 H921 0.961 . S
C934 H922 0.959 . S
C934 C932 1.561 . S
C935 C932 1.526 . S
C935 C936 1.396 . S
C935 C940 1.390 . S
C936 C930 1.465 . S
C936 C935 1.396 . S
C936 C937 1.399 . S
C937 H923 0.929 . S
C937 C936 1.399 . S
C937 C938 1.385 . S
C938 H924 0.931 . S
C938 C937 1.385 . S
C938 C939 1.389 . S
C939 C938 1.389 . S
C939 C940 1.387 . S
C940 H925 0.930 . S
C940 C935 1.390 . S
C940 C939 1.387 . S
H941 C953 0.930 . S
H942 C955 0.930 . S
H943 C956 0.930 . S
H944 C960 0.959 . S
H945 C960 0.959 . S
H946 C960 0.961 . S
H947 C961 0.960 . S
H948 C961 0.961 . S
H949 C961 0.959 . S
H950 C964 0.929 . S
H951 C965 0.931 . S
H952 C967 0.930 . S
C953 H941 0.930 . S
C953 C954 1.399 . S
C953 C958 1.399 . S
C954 C953 1.399 . S
C954 C955 1.376 . S
C955 H942 0.930 . S
C955 C954 1.376 . S
C955 C956 1.388 . S
C956 H943 0.930 . S
C956 C955 1.388 . S
C956 C957 1.390 . S
C957 C956 1.390 . S
C957 C958 1.394 . S
C957 C963 1.465 . S
C958 C953 1.399 . S
C958 C957 1.394 . S
C958 C959 1.516 . S
C959 C958 1.516 . S
C959 C960 1.502 . S
C959 C961 1.561 . S
C959 C962 1.526 . S
C960 H944 0.959 . S
C960 H945 0.959 . S
C960 H946 0.961 . S
C960 C959 1.502 . S
C961 H947 0.960 . S
C961 H948 0.961 . S
C961 H949 0.959 . S
C961 C959 1.561 . S
C962 C959 1.526 . S
C962 C963 1.396 . S
C962 C967 1.390 . S
C963 C957 1.465 . S
C963 C962 1.396 . S
C963 C964 1.399 . S
C964 H950 0.929 . S
C964 C963 1.399 . S
C964 C965 1.385 . S
C965 H951 0.931 . S
C965 C964 1.385 . S
C965 C966 1.389 . S
C966 C965 1.389 . S
C966 C967 1.387 . S
C967 H952 0.930 . S
C967 C962 1.390 . S
C967 C966 1.387 . S
C333 C7 1.673 . S
C345 C296 1.676 . S
C360 C256 1.659 . S
C372 C47 1.682 . S
C387 C207 1.682 . S
C399 C96 1.667 . S
C414 C167 1.657 . S
C426 C136 1.687 . S
C441 C90 1.579 . S
C453 C10 1.569 . S
C468 C50 1.606 . S
C480 C130 1.535 . S
C495 C139 1.597 . S
C507 C59 1.559 . S
C522 C99 1.579 . S
C534 C19 1.580 . S
C549 C170 1.420 1_554 S
C561 C250 1.463 1_554 S
C576 C210 1.428 1_554 S
C588 C290 1.456 1_554 S
C603 C299 1.468 1_556 S
C615 C219 1.431 1_556 S
C630 C259 1.415 . S
C642 C179 1.456 . S
C657 C11 2.057 . S
C669 C2 2.067 . S
C684 C51 2.075 . S
C696 C42 2.066 . S
C711 C91 2.061 . S
C723 C82 2.063 . S
C738 C122 2.039 . S
C750 C131 2.090 . S
C765 C162 2.059 . S
C777 C171 2.063 . S
C792 C211 2.038 . S
C804 C202 2.092 . S
C819 C242 2.039 . S
C831 C251 2.093 . S
C846 C282 2.038 . S
C858 C291 2.090 . S
C873 C16 2.325 . S
C885 C56 2.328 . S
C900 C127 2.321 . S
C912 C87 2.323 . S
C927 C176 2.292 . S
C939 C216 2.289 . S
C954 C287 2.315 . S
C966 C247 2.319 . S
