# Generated by pormake.
# Topology tzs, (4)-cn, num edge types: 1
# Building blocks:
#     Node 0, Type 0, BuildingBlock: QUQFOY_clean_sbu_1, # of connection points: 4
#     Node 1, Type 0, BuildingBlock: QUQFOY_clean_sbu_1, # of connection points: 4
#     Node 2, Type 0, BuildingBlock: QUQFOY_clean_sbu_1, # of connection points: 4
#     Node 3, Type 0, BuildingBlock: QUQFOY_clean_sbu_1, # of connection points: 4
#     Node 4, Type 0, BuildingBlock: QUQFOY_clean_sbu_1, # of connection points: 4
#     Node 5, Type 0, BuildingBlock: QUQFOY_clean_sbu_1, # of connection points: 4
#     Node 6, Type 0, BuildingBlock: QUQFOY_clean_sbu_1, # of connection points: 4
#     Node 7, Type 0, BuildingBlock: QUQFOY_clean_sbu_1, # of connection points: 4
#     Node 8, Type 0, BuildingBlock: QUQFOY_clean_sbu_1, # of connection points: 4
#     Node 9, Type 0, BuildingBlock: QUQFOY_clean_sbu_1, # of connection points: 4
#     Node 10, Type 0, BuildingBlock: QUQFOY_clean_sbu_1, # of connection points: 4
#     Node 11, Type 0, BuildingBlock: QUQFOY_clean_sbu_1, # of connection points: 4
#     Node 12, Type 0, BuildingBlock: QUQFOY_clean_sbu_1, # of connection points: 4
#     Node 13, Type 0, BuildingBlock: QUQFOY_clean_sbu_1, # of connection points: 4
#     Node 14, Type 0, BuildingBlock: QUQFOY_clean_sbu_1, # of connection points: 4
#     Node 15, Type 0, BuildingBlock: QUQFOY_clean_sbu_1, # of connection points: 4
#     Edge 16, Type (0, 0), BuildingBlock: MIFKUJ_clean_linker_0, # of connection points: 2
#     Edge 17, Type (0, 0), BuildingBlock: MIFKUJ_clean_linker_0, # of connection points: 2
#     Edge 18, Type (0, 0), BuildingBlock: MIFKUJ_clean_linker_0, # of connection points: 2
#     Edge 19, Type (0, 0), BuildingBlock: MIFKUJ_clean_linker_0, # of connection points: 2
#     Edge 20, Type (0, 0), BuildingBlock: MIFKUJ_clean_linker_0, # of connection points: 2
#     Edge 21, Type (0, 0), BuildingBlock: MIFKUJ_clean_linker_0, # of connection points: 2
#     Edge 22, Type (0, 0), BuildingBlock: MIFKUJ_clean_linker_0, # of connection points: 2
#     Edge 23, Type (0, 0), BuildingBlock: MIFKUJ_clean_linker_0, # of connection points: 2
#     Edge 24, Type (0, 0), BuildingBlock: MIFKUJ_clean_linker_0, # of connection points: 2
#     Edge 25, Type (0, 0), BuildingBlock: MIFKUJ_clean_linker_0, # of connection points: 2
#     Edge 26, Type (0, 0), BuildingBlock: MIFKUJ_clean_linker_0, # of connection points: 2
#     Edge 27, Type (0, 0), BuildingBlock: MIFKUJ_clean_linker_0, # of connection points: 2
#     Edge 28, Type (0, 0), BuildingBlock: MIFKUJ_clean_linker_0, # of connection points: 2
#     Edge 29, Type (0, 0), BuildingBlock: MIFKUJ_clean_linker_0, # of connection points: 2
#     Edge 30, Type (0, 0), BuildingBlock: MIFKUJ_clean_linker_0, # of connection points: 2
#     Edge 31, Type (0, 0), BuildingBlock: MIFKUJ_clean_linker_0, # of connection points: 2
#     Edge 32, Type (0, 0), BuildingBlock: MIFKUJ_clean_linker_0, # of connection points: 2
#     Edge 33, Type (0, 0), BuildingBlock: MIFKUJ_clean_linker_0, # of connection points: 2
#     Edge 34, Type (0, 0), BuildingBlock: MIFKUJ_clean_linker_0, # of connection points: 2
#     Edge 35, Type (0, 0), BuildingBlock: MIFKUJ_clean_linker_0, # of connection points: 2
#     Edge 36, Type (0, 0), BuildingBlock: MIFKUJ_clean_linker_0, # of connection points: 2
#     Edge 37, Type (0, 0), BuildingBlock: MIFKUJ_clean_linker_0, # of connection points: 2
#     Edge 38, Type (0, 0), BuildingBlock: MIFKUJ_clean_linker_0, # of connection points: 2
#     Edge 39, Type (0, 0), BuildingBlock: MIFKUJ_clean_linker_0, # of connection points: 2
#     Edge 40, Type (0, 0), BuildingBlock: MIFKUJ_clean_linker_0, # of connection points: 2
#     Edge 41, Type (0, 0), BuildingBlock: MIFKUJ_clean_linker_0, # of connection points: 2
#     Edge 42, Type (0, 0), BuildingBlock: MIFKUJ_clean_linker_0, # of connection points: 2
#     Edge 43, Type (0, 0), BuildingBlock: MIFKUJ_clean_linker_0, # of connection points: 2
#     Edge 44, Type (0, 0), BuildingBlock: MIFKUJ_clean_linker_0, # of connection points: 2
#     Edge 45, Type (0, 0), BuildingBlock: MIFKUJ_clean_linker_0, # of connection points: 2
#     Edge 46, Type (0, 0), BuildingBlock: MIFKUJ_clean_linker_0, # of connection points: 2
#     Edge 47, Type (0, 0), BuildingBlock: MIFKUJ_clean_linker_0, # of connection points: 2
# Relax obj value: 0.149
# Max RMSD: 0.163
# Mean RMSD: 0.163
data_MOF--net-tzs--node1-QUQFOY_clean_sbu_1--edge1-MIFKUJ_clean_linker_0
_symmetry_space_group_name_H-M    P1
_symmetry_Int_Tables_number       1
_symmetry_cell_setting            triclinic
loop_
_symmetry_equiv_pos_as_xyz
'x, y, z'
_cell_length_a     62.271683
_cell_length_b     62.296286
_cell_length_c     57.946221
_cell_angle_alpha  89.993913
_cell_angle_beta   90.009047
_cell_angle_gamma 90.033234
loop_
_atom_site_label
_atom_site_type_symbol
_atom_site_fract_x
_atom_site_fract_y
_atom_site_fract_z
_atom_type_partial_charge
O0 O 0.15506 0.37516 0.21536 0.0
Cd1 Cd 0.14426 0.34512 0.20672 0.0
Cd2 Cd 0.13047 0.36617 0.1675 0.0
O3 O 0.14625 0.39161 0.183 0.0
O4 O 0.15706 0.32677 0.23103 0.0
O5 O 0.16453 0.3229 0.19397 0.0
C6 C 0.16742 0.31684 0.21506 0.0
C7 C 0.13578 0.36176 0.12784 0.0
C8 C 0.15465 0.39196 0.20299 0.0
C9 C 0.09682 0.3464 0.19836 0.0
O10 O 0.10066 0.35748 0.1804 0.0
O11 O 0.11213 0.33944 0.21071 0.0
O12 O 0.12392 0.37689 0.13598 0.0
O13 O 0.14482 0.34887 0.14235 0.0
O14 O 0.62157 0.15147 0.20995 0.0
Cd15 Cd 0.64949 0.13933 0.1959 0.0
Cd16 Cd 0.62224 0.13162 0.16061 0.0
O17 O 0.60202 0.1519 0.17828 0.0
O18 O 0.67068 0.14719 0.22 0.0
O19 O 0.6722 0.15982 0.18442 0.0
C20 C 0.67996 0.15934 0.20508 0.0
C21 C 0.62792 0.13751 0.12135 0.0
C22 C 0.60443 0.15661 0.19943 0.0
C23 C 0.63966 0.09365 0.18584 0.0
O24 O 0.62472 0.10048 0.17285 0.0
O25 O 0.65299 0.10663 0.19476 0.0
O26 O 0.61031 0.12921 0.12893 0.0
O27 O 0.6425 0.14265 0.13624 0.0
O28 O 0.83138 0.61429 0.20467 0.0
Cd29 Cd 0.8452 0.64418 0.20324 0.0
Cd30 Cd 0.86604 0.62503 0.16557 0.0
O31 O 0.85116 0.5979 0.17848 0.0
O32 O 0.83067 0.65817 0.22969 0.0
O33 O 0.82789 0.67025 0.19403 0.0
C34 C 0.82304 0.67213 0.21559 0.0
C35 C 0.86337 0.63095 0.12588 0.0
C36 C 0.83678 0.59734 0.19404 0.0
C37 C 0.89388 0.64375 0.20245 0.0
O38 O 0.89323 0.6358 0.18228 0.0
O39 O 0.87667 0.64742 0.21349 0.0
O40 O 0.87619 0.61674 0.13432 0.0
O41 O 0.85194 0.64208 0.14012 0.0
O42 O 0.38463 0.838 0.20487 0.0
Cd43 Cd 0.35458 0.85093 0.20094 0.0
Cd44 Cd 0.37364 0.8681 0.16203 0.0
O45 O 0.40016 0.85142 0.17386 0.0
O46 O 0.33887 0.83722 0.22679 0.0
O47 O 0.32966 0.8327 0.19031 0.0
C48 C 0.32627 0.8286 0.21185 0.0
C49 C 0.36465 0.86426 0.12316 0.0
C50 C 0.40106 0.84013 0.19211 0.0
C51 C 0.35684 0.89908 0.19749 0.0
O52 O 0.36607 0.89684 0.17807 0.0
O53 O 0.35089 0.88275 0.20891 0.0
O54 O 0.38045 0.87617 0.12969 0.0
O55 O 0.35374 0.85435 0.13887 0.0
O56 O 0.16246 0.61411 0.29243 0.0
Cd57 Cd 0.15045 0.64421 0.29839 0.0
Cd58 Cd 0.13457 0.62479 0.33764 0.0
O59 O 0.14892 0.59807 0.32305 0.0
O60 O 0.16369 0.66115 0.27317 0.0
O61 O 0.16938 0.66812 0.31006 0.0
C62 C 0.1729 0.67273 0.28866 0.0
C63 C 0.14061 0.63047 0.37696 0.0
C64 C 0.15967 0.5973 0.30442 0.0
C65 C 0.10249 0.64401 0.305 0.0
O66 O 0.10541 0.63474 0.32429 0.0
O67 O 0.11835 0.6489 0.2923 0.0
O68 O 0.12789 0.61563 0.36967 0.0
O69 O 0.15002 0.64239 0.36176 0.0
O70 O 0.39196 0.16886 0.3015 0.0
Cd71 Cd 0.36255 0.15424 0.30361 0.0
Cd72 Cd 0.38088 0.13608 0.34252 0.0
O73 O 0.40767 0.15235 0.33058 0.0
O74 O 0.34722 0.16789 0.27745 0.0
O75 O 0.33608 0.17052 0.31351 0.0
C76 C 0.33338 0.1751 0.29197 0.0
C77 C 0.37227 0.14015 0.38145 0.0
C78 C 0.40853 0.16531 0.31366 0.0
C79 C 0.36525 0.10585 0.30614 0.0
O80 O 0.37274 0.10754 0.32647 0.0
O81 O 0.36078 0.12246 0.29441 0.0
O82 O 0.38826 0.12853 0.37488 0.0
O83 O 0.36085 0.14947 0.36576 0.0
O84 O 0.82424 0.385 0.29538 0.0
Cd85 Cd 0.8388 0.35556 0.29708 0.0
Cd86 Cd 0.85828 0.37384 0.33547 0.0
O87 O 0.84314 0.40089 0.32264 0.0
O88 O 0.82421 0.34008 0.27163 0.0
O89 O 0.82313 0.32902 0.30783 0.0
C90 C 0.8178 0.32617 0.28651 0.0
C91 C 0.85579 0.36768 0.37519 0.0
C92 C 0.82925 0.40175 0.30659 0.0
C93 C 0.8872 0.35683 0.29857 0.0
O94 O 0.88597 0.36381 0.31912 0.0
O95 O 0.87033 0.35351 0.28682 0.0
O96 O 0.8679 0.38254 0.36682 0.0
O97 O 0.8449 0.35608 0.36087 0.0
O98 O 0.61509 0.83541 0.29488 0.0
Cd99 Cd 0.64335 0.84905 0.30621 0.0
Cd100 Cd 0.61628 0.86238 0.34048 0.0
O101 O 0.59406 0.84312 0.32431 0.0
O102 O 0.66333 0.83869 0.28203 0.0
O103 O 0.66708 0.83026 0.3188 0.0
C104 C 0.67377 0.8286 0.29779 0.0
C105 C 0.6222 0.8581 0.37994 0.0
C106 C 0.59695 0.83424 0.30483 0.0
C107 C 0.63553 0.89642 0.31067 0.0
O108 O 0.62141 0.89218 0.32583 0.0
O109 O 0.64698 0.88159 0.30212 0.0
O110 O 0.60539 0.86781 0.37216 0.0
O111 O 0.63582 0.85065 0.36514 0.0
O112 O 0.8831 0.66118 0.79507 0.0
Cd113 Cd 0.85381 0.64746 0.80183 0.0
Cd114 Cd 0.87657 0.63149 0.8396 0.0
O115 O 0.90146 0.64848 0.82459 0.0
O116 O 0.83646 0.65919 0.77607 0.0
O117 O 0.82878 0.66548 0.81263 0.0
C118 C 0.82425 0.66821 0.79109 0.0
C119 C 0.87093 0.63568 0.87918 0.0
C120 C 0.90058 0.65954 0.80617 0.0
C121 C 0.8577 0.59931 0.80689 0.0
O122 O 0.86845 0.60217 0.82528 0.0
O123 O 0.85053 0.61522 0.79561 0.0
O124 O 0.88678 0.62463 0.87123 0.0
O125 O 0.85811 0.64461 0.86449 0.0
O126 O 0.32805 0.88574 0.79636 0.0
Cd127 Cd 0.34087 0.8556 0.79915 0.0
Cd128 Cd 0.35894 0.87285 0.83888 0.0
O129 O 0.34324 0.90001 0.82712 0.0
O130 O 0.32643 0.84034 0.77345 0.0
O131 O 0.32342 0.83021 0.80985 0.0
C132 C 0.31866 0.82719 0.7884 0.0
C133 C 0.35554 0.86582 0.87835 0.0
C134 C 0.33136 0.90177 0.80939 0.0
C135 C 0.38912 0.85632 0.80249 0.0
O136 O 0.38729 0.8641 0.82268 0.0
O137 O 0.37257 0.85212 0.79055 0.0
O138 O 0.36775 0.88091 0.87067 0.0
O139 O 0.34532 0.85425 0.86344 0.0
O140 O 0.11416 0.33193 0.80024 0.0
Cd141 Cd 0.1437 0.34572 0.80595 0.0
Cd142 Cd 0.12074 0.36284 0.84298 0.0
O143 O 0.09552 0.34599 0.82883 0.0
O144 O 0.15917 0.33385 0.77891 0.0
O145 O 0.16946 0.32764 0.81469 0.0
C146 C 0.17237 0.32479 0.79286 0.0
C147 C 0.12819 0.35895 0.88219 0.0
C148 C 0.09654 0.33423 0.81095 0.0
C149 C 0.1392 0.39409 0.80931 0.0
O150 O 0.1281 0.39171 0.82751 0.0
O151 O 0.14699 0.37791 0.79896 0.0
O152 O 0.11214 0.37018 0.87502 0.0
O153 O 0.14013 0.34963 0.86693 0.0
O154 O 0.66238 0.11426 0.79422 0.0
Cd155 Cd 0.64954 0.14372 0.80228 0.0
Cd156 Cd 0.63264 0.11979 0.83757 0.0
O157 O 0.6502 0.09505 0.82336 0.0
O158 O 0.66248 0.16158 0.77764 0.0
O159 O 0.66833 0.16755 0.81465 0.0
C160 C 0.67171 0.17279 0.7934 0.0
C161 C 0.63659 0.12781 0.87658 0.0
C162 C 0.66102 0.09648 0.80483 0.0
C163 C 0.6014 0.13984 0.80481 0.0
O164 O 0.60379 0.12727 0.82188 0.0
O165 O 0.61759 0.14857 0.7954 0.0
O166 O 0.62528 0.11166 0.86975 0.0
O167 O 0.646 0.13945 0.86111 0.0
O168 O 0.88675 0.33163 0.70162 0.0
Cd169 Cd 0.85662 0.34466 0.69986 0.0
Cd170 Cd 0.8743 0.36446 0.661 0.0
O171 O 0.90176 0.34938 0.67292 0.0
O172 O 0.84254 0.33047 0.72649 0.0
O173 O 0.83083 0.3269 0.69074 0.0
C174 C 0.82875 0.32247 0.71239 0.0
C175 C 0.86709 0.36149 0.62155 0.0
C176 C 0.90317 0.33622 0.68962 0.0
C177 C 0.85709 0.39315 0.69811 0.0
O178 O 0.86462 0.39214 0.67776 0.0
O179 O 0.85337 0.37616 0.70949 0.0
O180 O 0.88177 0.37416 0.62933 0.0
O181 O 0.85618 0.35042 0.63632 0.0
O182 O 0.65989 0.87996 0.71023 0.0
Cd183 Cd 0.64665 0.85029 0.70502 0.0
Cd184 Cd 0.63082 0.87036 0.66559 0.0
O185 O 0.64805 0.89605 0.67878 0.0
O186 O 0.65987 0.83339 0.73027 0.0
O187 O 0.66437 0.82546 0.69343 0.0
C188 C 0.66829 0.82119 0.71483 0.0
C189 C 0.63363 0.86386 0.62596 0.0
C190 C 0.65858 0.89653 0.69757 0.0
C191 C 0.5988 0.85336 0.70022 0.0
O192 O 0.60173 0.86268 0.68095 0.0
O193 O 0.61466 0.84711 0.71218 0.0
O194 O 0.6225 0.8796 0.63399 0.0
O195 O 0.64346 0.85165 0.64056 0.0
O196 O 0.11587 0.65449 0.70666 0.0
Cd197 Cd 0.14555 0.64272 0.69734 0.0
Cd198 Cd 0.12237 0.63013 0.65984 0.0
O199 O 0.09839 0.64856 0.67419 0.0
O200 O 0.1638 0.65365 0.72278 0.0
O201 O 0.16871 0.66298 0.68639 0.0
C202 C 0.17438 0.66456 0.70776 0.0
C203 C 0.13093 0.63479 0.62103 0.0
C204 C 0.09896 0.65613 0.69453 0.0
C205 C 0.14041 0.59551 0.69 0.0
O206 O 0.1273 0.60001 0.67392 0.0
O207 O 0.15059 0.61031 0.7003 0.0
O208 O 0.11393 0.62454 0.62736 0.0
O209 O 0.14314 0.64279 0.63691 0.0
O210 O 0.3377 0.11971 0.71168 0.0
Cd211 Cd 0.35017 0.14794 0.69897 0.0
Cd212 Cd 0.36243 0.12106 0.6643 0.0
O213 O 0.3444 0.0987 0.68198 0.0
O214 O 0.34041 0.16842 0.72291 0.0
O215 O 0.33033 0.17079 0.68648 0.0
C216 C 0.32942 0.17811 0.7073 0.0
C217 C 0.35543 0.12712 0.62538 0.0
C218 C 0.3364 0.10153 0.70191 0.0
C219 C 0.39757 0.14162 0.69135 0.0
O220 O 0.39303 0.1273 0.67652 0.0
O221 O 0.38275 0.15235 0.70097 0.0
O222 O 0.36541 0.11014 0.63227 0.0
O223 O 0.34922 0.14079 0.64078 0.0
H224 H 0.3247 0.18693 0.24779 0.0
H225 H 0.29519 0.20908 0.23391 0.0
H226 H 0.27127 0.21531 0.30345 0.0
H227 H 0.30084 0.19284 0.31759 0.0
H228 H 0.23905 0.20725 0.27165 0.0
H229 H 0.29849 0.25577 0.28008 0.0
H230 H 0.33563 0.26845 0.27442 0.0
H231 H 0.32586 0.2698 0.20108 0.0
H232 H 0.28873 0.25682 0.20629 0.0
H233 H 0.17329 0.29875 0.25729 0.0
H234 H 0.19997 0.27213 0.26844 0.0
H235 H 0.22264 0.26908 0.19816 0.0
H236 H 0.19594 0.29603 0.18681 0.0
H237 H 0.25518 0.2744 0.22891 0.0
H238 H 0.19501 0.22756 0.22059 0.0
H239 H 0.15783 0.21504 0.22635 0.0
H240 H 0.16872 0.21068 0.29937 0.0
H241 H 0.20589 0.22347 0.29409 0.0
C242 C 0.31318 0.19296 0.26019 0.0
C243 C 0.31517 0.18825 0.28383 0.0
C244 C 0.29634 0.20566 0.25221 0.0
C245 C 0.28123 0.21402 0.26769 0.0
C246 C 0.28285 0.20902 0.29125 0.0
C247 C 0.29976 0.19627 0.2993 0.0
C248 C 0.26395 0.22824 0.25917 0.0
C249 C 0.24252 0.22208 0.26256 0.0
C250 C 0.26859 0.24724 0.24675 0.0
C251 C 0.2909 0.25511 0.24357 0.0
C252 C 0.30431 0.2586 0.26273 0.0
C253 C 0.32535 0.26587 0.25961 0.0
C254 C 0.33312 0.26987 0.2374 0.0
C255 C 0.31983 0.26666 0.21827 0.0
C256 C 0.29878 0.25937 0.2213 0.0
C257 C 0.1838 0.29231 0.24411 0.0
C258 C 0.18257 0.29953 0.22116 0.0
C259 C 0.19896 0.27698 0.25051 0.0
C260 C 0.21314 0.26851 0.23409 0.0
C261 C 0.21177 0.27541 0.21107 0.0
C262 C 0.1965 0.29074 0.2046 0.0
C263 C 0.23021 0.25348 0.24143 0.0
C264 C 0.25165 0.25951 0.23786 0.0
C265 C 0.22555 0.23438 0.2537 0.0
C266 C 0.2032 0.22666 0.25695 0.0
C267 C 0.18943 0.2241 0.2379 0.0
C268 C 0.16836 0.21692 0.24107 0.0
C269 C 0.1609 0.21211 0.26322 0.0
C270 C 0.17451 0.21443 0.28223 0.0
C271 C 0.19559 0.22162 0.27915 0.0
H272 H 0.14459 0.20655 0.26564 0.0
H273 H 0.34941 0.27551 0.23501 0.0
H274 H 0.80195 0.31864 0.24357 0.0
H275 H 0.78102 0.28794 0.2305 0.0
H276 H 0.7842 0.26039 0.29874 0.0
H277 H 0.8049 0.29146 0.31217 0.0
H278 H 0.79001 0.24641 0.22793 0.0
H279 H 0.73777 0.23256 0.30877 0.0
H280 H 0.72291 0.25299 0.34158 0.0
H281 H 0.72375 0.31065 0.30097 0.0
H282 H 0.73835 0.29051 0.26786 0.0
H283 H 0.70097 0.15882 0.24621 0.0
H284 H 0.72775 0.18428 0.26008 0.0
H285 H 0.72625 0.21702 0.19448 0.0
H286 H 0.6995 0.19135 0.1803 0.0
H287 H 0.72127 0.22641 0.26544 0.0
H288 H 0.77507 0.24111 0.18542 0.0
H289 H 0.78918 0.22108 0.15197 0.0
H290 H 0.78417 0.16207 0.1899 0.0
H291 H 0.77033 0.18176 0.22366 0.0
C292 C 0.79818 0.30609 0.25587 0.0
C293 C 0.80498 0.30751 0.27896 0.0
C294 C 0.7863 0.2885 0.24831 0.0
C295 C 0.78096 0.27195 0.26365 0.0
C296 C 0.78792 0.27315 0.28669 0.0
C297 C 0.79975 0.29087 0.29433 0.0
C298 C 0.76784 0.25366 0.2554 0.0
C299 C 0.77489 0.24212 0.23601 0.0
C300 C 0.74835 0.24781 0.26624 0.0
C301 C 0.7394 0.26007 0.28596 0.0
C302 C 0.73474 0.24959 0.30685 0.0
C303 C 0.72636 0.26111 0.32549 0.0
C304 C 0.72247 0.28312 0.32339 0.0
C305 C 0.72686 0.29363 0.30261 0.0
C306 C 0.73522 0.28217 0.28391 0.0
C307 C 0.70654 0.17124 0.23457 0.0
C308 C 0.69803 0.17318 0.21219 0.0
C309 C 0.72183 0.18579 0.24257 0.0
C310 C 0.72897 0.20251 0.22833 0.0
C311 C 0.72112 0.20406 0.20566 0.0
C312 C 0.70581 0.18943 0.1976 0.0
C313 C 0.74335 0.21923 0.23786 0.0
C314 C 0.7365 0.23053 0.25748 0.0
C315 C 0.76293 0.22491 0.22713 0.0
C316 C 0.77146 0.21291 0.20699 0.0
C317 C 0.77706 0.22387 0.18665 0.0
C318 C 0.785 0.21257 0.16763 0.0
C319 C 0.7875 0.19031 0.16879 0.0
C320 C 0.78214 0.1793 0.18899 0.0
C321 C 0.77421 0.19052 0.20806 0.0
H322 H 0.79364 0.18159 0.15404 0.0
H323 H 0.716 0.29202 0.33784 0.0
H324 H 0.81111 0.67927 0.26003 0.0
H325 H 0.78783 0.70745 0.27482 0.0
H326 H 0.78011 0.73269 0.20599 0.0
H327 H 0.80376 0.70446 0.19092 0.0
H328 H 0.78693 0.76445 0.23858 0.0
H329 H 0.74096 0.70329 0.22884 0.0
H330 H 0.7299 0.66552 0.23343 0.0
H331 H 0.72877 0.67321 0.30706 0.0
H332 H 0.74013 0.71097 0.30292 0.0
H333 H 0.69264 0.82545 0.25567 0.0
H334 H 0.72071 0.80069 0.24372 0.0
H335 H 0.72483 0.77601 0.31316 0.0
H336 H 0.69633 0.80074 0.3253 0.0
H337 H 0.721 0.74433 0.28159 0.0
H338 H 0.76523 0.80638 0.29105 0.0
H339 H 0.77597 0.84419 0.28608 0.0
H340 H 0.78002 0.8351 0.21276 0.0
H341 H 0.76901 0.79729 0.21725 0.0
C342 C 0.80452 0.69079 0.24796 0.0
C343 C 0.80916 0.68956 0.22425 0.0
C344 C 0.79117 0.70687 0.25648 0.0
C345 C 0.78207 0.72196 0.24146 0.0
C346 C 0.78698 0.72111 0.21783 0.0
C347 C 0.8004 0.70497 0.20925 0.0
C348 C 0.76717 0.73837 0.25056 0.0
C349 C 0.77237 0.76011 0.24774 0.0
C350 C 0.74851 0.73259 0.26304 0.0
C351 C 0.74161 0.7099 0.26558 0.0
C352 C 0.73853 0.69688 0.24602 0.0
C353 C 0.73217 0.67548 0.24854 0.0
C354 C 0.72869 0.66695 0.27053 0.0
C355 C 0.73151 0.67983 0.29004 0.0
C356 C 0.73789 0.70123 0.28762 0.0
C357 C 0.69965 0.81494 0.26852 0.0
C358 C 0.69221 0.81497 0.29143 0.0
C359 C 0.71581 0.80088 0.26166 0.0
C360 C 0.72498 0.78666 0.27759 0.0
C361 C 0.71797 0.78695 0.30063 0.0
C362 C 0.70176 0.80109 0.30755 0.0
C363 C 0.74072 0.77049 0.26963 0.0
C364 C 0.73564 0.74873 0.2726 0.0
C365 C 0.75944 0.77629 0.25725 0.0
C366 C 0.76612 0.79903 0.25448 0.0
C367 C 0.76824 0.81248 0.27384 0.0
C368 C 0.77441 0.83391 0.27112 0.0
C369 C 0.77863 0.84206 0.24911 0.0
C370 C 0.77674 0.82877 0.22979 0.0
C371 C 0.77056 0.80733 0.23242 0.0
H372 H 0.78341 0.85865 0.24704 0.0
H373 H 0.72377 0.65038 0.27244 0.0
H374 H 0.31468 0.81962 0.25602 0.0
H375 H 0.28716 0.79471 0.26922 0.0
H376 H 0.27093 0.77984 0.19863 0.0
H377 H 0.29844 0.80512 0.18514 0.0
H378 H 0.2352 0.78472 0.22599 0.0
H379 H 0.30167 0.74589 0.22876 0.0
H380 H 0.33954 0.73981 0.23933 0.0
H381 H 0.32302 0.74271 0.31121 0.0
H382 H 0.28508 0.74911 0.30105 0.0
H383 H 0.1813 0.68648 0.24505 0.0
H384 H 0.20572 0.71491 0.23307 0.0
H385 H 0.22127 0.72785 0.30428 0.0
H386 H 0.19688 0.69908 0.31651 0.0
H387 H 0.25687 0.72477 0.27739 0.0
H388 H 0.1899 0.76226 0.27441 0.0
H389 H 0.15207 0.76806 0.26353 0.0
H390 H 0.16941 0.76732 0.19182 0.0
H391 H 0.20732 0.76121 0.20225 0.0
C392 C 0.30524 0.81114 0.24324 0.0
C393 C 0.30884 0.8142 0.21951 0.0
C394 C 0.28955 0.79686 0.25085 0.0
C395 C 0.27727 0.78521 0.23491 0.0
C396 C 0.28034 0.78866 0.21119 0.0
C397 C 0.29606 0.80304 0.20352 0.0
C398 C 0.26158 0.76911 0.24317 0.0
C399 C 0.23994 0.77144 0.23698 0.0
C400 C 0.26777 0.75214 0.25798 0.0
C401 C 0.29056 0.74819 0.26414 0.0
C402 C 0.30614 0.7454 0.24682 0.0
C403 C 0.32761 0.74187 0.25274 0.0
C404 C 0.33369 0.74093 0.27593 0.0
C405 C 0.31829 0.74347 0.29325 0.0
C406 C 0.2968 0.74703 0.28743 0.0
C407 C 0.1898 0.69542 0.25823 0.0
C408 C 0.18718 0.69053 0.28175 0.0
C409 C 0.20367 0.71176 0.25133 0.0
C410 C 0.21509 0.72364 0.2678 0.0
C411 C 0.2125 0.71888 0.29133 0.0
C412 C 0.19856 0.7025 0.29828 0.0
C413 C 0.23045 0.74035 0.26023 0.0
C414 C 0.25207 0.73811 0.2665 0.0
C415 C 0.22423 0.75735 0.24546 0.0
C416 C 0.20144 0.76109 0.23912 0.0
C417 C 0.18563 0.76316 0.25631 0.0
C418 C 0.16417 0.76654 0.25022 0.0
C419 C 0.15833 0.76801 0.227 0.0
C420 C 0.17395 0.76616 0.2098 0.0
C421 C 0.19543 0.76276 0.2158 0.0
H422 H 0.14171 0.77062 0.22232 0.0
H423 H 0.35032 0.73819 0.28047 0.0
H424 H 0.67907 0.80943 0.7585 0.0
H425 H 0.70365 0.78113 0.7704 0.0
H426 H 0.7136 0.76363 0.69915 0.0
H427 H 0.68918 0.79234 0.68699 0.0
H428 H 0.70377 0.73844 0.76551 0.0
H429 H 0.76604 0.7485 0.69267 0.0
H430 H 0.77921 0.77637 0.6659 0.0
H431 H 0.76104 0.82548 0.71409 0.0
H432 H 0.74803 0.79789 0.74124 0.0
H433 H 0.80988 0.67353 0.74719 0.0
H434 H 0.78102 0.69676 0.73379 0.0
H435 H 0.76863 0.71662 0.80387 0.0
H436 H 0.79744 0.69302 0.81755 0.0
H437 H 0.77882 0.73925 0.73683 0.0
H438 H 0.71521 0.72951 0.8089 0.0
H439 H 0.7024 0.70191 0.83616 0.0
H440 H 0.72379 0.65223 0.79025 0.0
H441 H 0.73646 0.67951 0.76258 0.0
C442 C 0.68641 0.79954 0.74531 0.0
C443 C 0.68233 0.80323 0.72177 0.0
C444 C 0.70038 0.7833 0.75218 0.0
C445 C 0.71059 0.77043 0.73567 0.0
C446 C 0.70609 0.77361 0.71215 0.0
C447 C 0.69211 0.78995 0.70524 0.0
C448 C 0.72651 0.75426 0.74323 0.0
C449 C 0.72024 0.73868 0.75939 0.0
C450 C 0.74787 0.7544 0.73492 0.0
C451 C 0.75583 0.77114 0.71884 0.0
C452 C 0.76491 0.76524 0.69756 0.0
C453 C 0.77234 0.78099 0.68233 0.0
C454 C 0.77088 0.80268 0.68825 0.0
C455 C 0.76207 0.80867 0.70947 0.0
C456 C 0.75464 0.79299 0.72478 0.0
C457 C 0.80094 0.6827 0.75983 0.0
C458 C 0.80598 0.68151 0.78345 0.0
C459 C 0.78446 0.69599 0.7521 0.0
C460 C 0.77264 0.70834 0.76781 0.0
C461 C 0.77739 0.70699 0.79148 0.0
C462 C 0.79389 0.69358 0.79927 0.0
C463 C 0.75612 0.7234 0.75916 0.0
C464 C 0.76232 0.73884 0.74283 0.0
C465 C 0.73474 0.72314 0.76738 0.0
C466 C 0.72699 0.70658 0.78379 0.0
C467 C 0.71711 0.7127 0.80459 0.0
C468 C 0.70989 0.6971 0.82012 0.0
C469 C 0.71234 0.67533 0.81497 0.0
C470 C 0.72197 0.6691 0.79425 0.0
C471 C 0.72921 0.68462 0.77866 0.0
H472 H 0.70675 0.66329 0.82702 0.0
H473 H 0.77663 0.81485 0.67643 0.0
H474 H 0.19584 0.69482 0.68226 0.0
H475 H 0.22258 0.72057 0.69628 0.0
H476 H 0.21915 0.69229 0.76416 0.0
H477 H 0.19226 0.66688 0.75046 0.0
H478 H 0.2155 0.73453 0.76659 0.0
H479 H 0.26305 0.68486 0.7293 0.0
H480 H 0.27667 0.6628 0.69716 0.0
H481 H 0.28647 0.71955 0.65642 0.0
H482 H 0.27263 0.74193 0.68822 0.0
H483 H 0.30228 0.79429 0.81449 0.0
H484 H 0.27964 0.76458 0.80117 0.0
H485 H 0.28112 0.7902 0.73199 0.0
H486 H 0.30398 0.81952 0.74499 0.0
H487 H 0.28677 0.74798 0.73122 0.0
H488 H 0.23746 0.79732 0.76734 0.0
H489 H 0.22344 0.81963 0.7991 0.0
H490 H 0.21659 0.76358 0.84162 0.0
H491 H 0.23084 0.74097 0.81019 0.0
C492 C 0.20098 0.69396 0.70009 0.0
C493 C 0.19188 0.67892 0.71528 0.0
C494 C 0.2163 0.70862 0.70806 0.0
C495 C 0.2229 0.70827 0.73126 0.0
C496 C 0.21422 0.69288 0.74624 0.0
C497 C 0.19888 0.67836 0.73834 0.0
C498 C 0.23793 0.72465 0.74033 0.0
C499 C 0.23123 0.73724 0.75909 0.0
C500 C 0.25823 0.72848 0.7302 0.0
C501 C 0.26662 0.71505 0.71108 0.0
C502 C 0.26795 0.69262 0.71342 0.0
C503 C 0.27574 0.68006 0.69528 0.0
C504 C 0.28239 0.68976 0.67474 0.0
C505 C 0.2813 0.71205 0.67233 0.0
C506 C 0.27351 0.72469 0.69042 0.0
C507 C 0.29776 0.79356 0.79646 0.0
C508 C 0.30485 0.80927 0.78082 0.0
C509 C 0.28481 0.77662 0.78888 0.0
C510 C 0.27856 0.7753 0.76561 0.0
C511 C 0.28579 0.79088 0.74999 0.0
C512 C 0.29879 0.80769 0.7575 0.0
C513 C 0.26429 0.75788 0.75741 0.0
C514 C 0.2711 0.74514 0.73881 0.0
C515 C 0.24405 0.75393 0.76763 0.0
C516 C 0.23543 0.76749 0.78651 0.0
C517 C 0.23312 0.78978 0.78352 0.0
C518 C 0.22511 0.80247 0.80145 0.0
C519 C 0.21919 0.79304 0.82239 0.0
C520 C 0.22122 0.77088 0.82541 0.0
C521 C 0.22924 0.75811 0.80755 0.0
H522 H 0.21299 0.80289 0.83625 0.0
H523 H 0.28841 0.68001 0.66071 0.0
H524 H 0.1793 0.31392 0.74809 0.0
H525 H 0.20756 0.29116 0.7325 0.0
H526 H 0.23362 0.28253 0.80084 0.0
H527 H 0.20518 0.30547 0.81677 0.0
H528 H 0.26492 0.29107 0.76634 0.0
H529 H 0.20514 0.24371 0.77945 0.0
H530 H 0.16743 0.23193 0.7765 0.0
H531 H 0.17255 0.23036 0.70262 0.0
H532 H 0.21023 0.24244 0.70512 0.0
H533 H 0.32754 0.19819 0.74885 0.0
H534 H 0.30261 0.22601 0.761 0.0
H535 H 0.27504 0.22746 0.69269 0.0
H536 H 0.29994 0.19918 0.68037 0.0
H537 H 0.24472 0.22399 0.7255 0.0
H538 H 0.30505 0.26933 0.71209 0.0
H539 H 0.34272 0.28127 0.71473 0.0
H540 H 0.33686 0.28697 0.7883 0.0
H541 H 0.29922 0.27477 0.78616 0.0
C542 C 0.19104 0.30726 0.75988 0.0
C543 C 0.18995 0.31139 0.78371 0.0
C544 C 0.20716 0.29423 0.7509 0.0
C545 C 0.2225 0.28506 0.76556 0.0
C546 C 0.22184 0.2895 0.7893 0.0
C547 C 0.20558 0.3025 0.79836 0.0
C548 C 0.2389 0.27046 0.75596 0.0
C549 C 0.2606 0.27625 0.75766 0.0
C550 C 0.23307 0.25153 0.74402 0.0
C551 C 0.21044 0.2442 0.74247 0.0
C552 C 0.19817 0.24104 0.76257 0.0
C553 C 0.17681 0.23427 0.76097 0.0
C554 C 0.16758 0.23046 0.73938 0.0
C555 C 0.17971 0.23335 0.71933 0.0
C556 C 0.20107 0.24014 0.72083 0.0
C557 C 0.31636 0.20456 0.73628 0.0
C558 C 0.31563 0.19643 0.71365 0.0
C559 C 0.3022 0.22059 0.74324 0.0
C560 C 0.28711 0.22894 0.7277 0.0
C561 C 0.28664 0.22124 0.70491 0.0
C562 C 0.30088 0.20516 0.69789 0.0
C563 C 0.27087 0.24449 0.73591 0.0
C564 C 0.24913 0.23887 0.73401 0.0
C565 C 0.2767 0.26359 0.74759 0.0
C566 C 0.29934 0.27096 0.74897 0.0
C567 C 0.31183 0.27296 0.72886 0.0
C568 C 0.33318 0.27981 0.73026 0.0
C569 C 0.34219 0.28483 0.75167 0.0
C570 C 0.32986 0.28306 0.77172 0.0
C571 C 0.30851 0.2762 0.77042 0.0
H572 H 0.35872 0.29013 0.75272 0.0
H573 H 0.15105 0.22521 0.73818 0.0
H574 H 0.69633 0.19817 0.82172 0.0
H575 H 0.72122 0.22669 0.80989 0.0
H576 H 0.70439 0.21581 0.73861 0.0
H577 H 0.67949 0.18773 0.75018 0.0
H578 H 0.7563 0.22292 0.78261 0.0
H579 H 0.70722 0.26191 0.70842 0.0
H580 H 0.66945 0.26978 0.69881 0.0
H581 H 0.65342 0.27077 0.77087 0.0
H582 H 0.69113 0.26321 0.78093 0.0
H583 H 0.79874 0.30001 0.68749 0.0
H584 H 0.77061 0.27634 0.70274 0.0
H585 H 0.79094 0.29081 0.7722 0.0
H586 H 0.81915 0.31402 0.75723 0.0
H587 H 0.73665 0.28359 0.73126 0.0
H588 H 0.78628 0.24628 0.80538 0.0
H589 H 0.82402 0.23788 0.81468 0.0
H590 H 0.83866 0.23283 0.74247 0.0
H591 H 0.80096 0.24091 0.73276 0.0
C592 C 0.6978 0.20205 0.80357 0.0
C593 C 0.68598 0.19071 0.78689 0.0
C594 C 0.71202 0.21828 0.79685 0.0
C595 C 0.71444 0.2235 0.77341 0.0
C596 C 0.70248 0.21233 0.75682 0.0
C597 C 0.68834 0.19617 0.76348 0.0
C598 C 0.73036 0.23971 0.76593 0.0
C599 C 0.75196 0.23645 0.77177 0.0
C600 C 0.7247 0.25698 0.75126 0.0
C601 C 0.702 0.26181 0.7454 0.0
C602 C 0.69566 0.26391 0.72222 0.0
C603 C 0.67425 0.2683 0.7167 0.0
C604 C 0.65903 0.27071 0.73422 0.0
C605 C 0.66521 0.26881 0.75731 0.0
C606 C 0.6866 0.26445 0.76293 0.0
C607 C 0.79718 0.29812 0.706 0.0
C608 C 0.81127 0.3087 0.72114 0.0
C609 C 0.78109 0.28468 0.71467 0.0
C610 C 0.77892 0.28162 0.73858 0.0
C611 C 0.7926 0.29264 0.75369 0.0
C612 C 0.80869 0.30594 0.74507 0.0
C613 C 0.76257 0.26668 0.74782 0.0
C614 C 0.74093 0.27017 0.74227 0.0
C615 C 0.76818 0.24958 0.76273 0.0
C616 C 0.79085 0.24444 0.76836 0.0
C617 C 0.79754 0.24331 0.7915 0.0
C618 C 0.81893 0.23861 0.79684 0.0
C619 C 0.83374 0.2349 0.77918 0.0
C620 C 0.82719 0.2358 0.75613 0.0
C621 C 0.80582 0.24046 0.7507 0.0
H622 H 0.85029 0.23128 0.78335 0.0
H623 H 0.64246 0.27409 0.7299 0.0
H624 H 0.10874 0.38082 0.91698 0.0
H625 H 0.1161 0.37873 0.95818 0.0
H626 H 0.16508 0.33122 0.94569 0.0
H627 H 0.15781 0.33324 0.90403 0.0
H628 H 0.13692 0.32103 0.98291 0.0
H629 H 0.18162 0.37889 0.95872 0.0
H630 H 0.19057 0.41243 0.93829 0.0
H631 H 0.14355 0.44645 0.97825 0.0
H632 H 0.13408 0.41304 0.9987 0.0
H633 H 0.16113 0.33293 0.10431 0.0
H634 H 0.16563 0.32998 0.06232 0.0
H635 H 0.12126 0.38239 0.05263 0.0
H636 H 0.11701 0.38566 0.09419 0.0
H637 H 0.15533 0.38744 0.02586 0.0
H638 H 0.10664 0.32908 0.04495 0.0
H639 H 0.09621 0.29564 0.06482 0.0
H640 H 0.14978 0.26285 0.03429 0.0
H641 H 0.16067 0.2962 0.01445 0.0
C642 C 0.12109 0.36989 0.9229 0.0
C643 C 0.13274 0.35724 0.9072 0.0
C644 C 0.12533 0.36878 0.94648 0.0
C645 C 0.14129 0.355 0.95495 0.0
C646 C 0.15275 0.34202 0.93945 0.0
C647 C 0.14862 0.34324 0.9157 0.0
C648 C 0.14566 0.35437 0.98008 0.0
C649 C 0.14144 0.3354 0.99232 0.0
C650 C 0.15131 0.3732 0.9923 0.0
C651 C 0.15706 0.39341 0.98017 0.0
C652 C 0.17308 0.39349 0.96305 0.0
C653 C 0.17826 0.41249 0.95148 0.0
C654 C 0.16762 0.43155 0.95695 0.0
C655 C 0.15179 0.43167 0.97403 0.0
C656 C 0.14653 0.41271 0.98565 0.0
C657 C 0.15236 0.3438 0.09319 0.0
C658 C 0.13871 0.35952 0.10259 0.0
C659 C 0.1549 0.34207 0.06921 0.0
C660 C 0.1437 0.35591 0.05431 0.0
C661 C 0.13016 0.3716 0.06376 0.0
C662 C 0.12768 0.37339 0.08758 0.0
C663 C 0.14575 0.35432 0.02883 0.0
C664 C 0.15126 0.37292 0.01649 0.0
C665 C 0.14117 0.33519 0.01658 0.0
C666 C 0.13462 0.31518 0.02847 0.0
C667 C 0.11629 0.31478 0.04263 0.0
C668 C 0.11027 0.29584 0.05385 0.0
C669 C 0.12236 0.27715 0.05088 0.0
C670 C 0.14046 0.27735 0.03662 0.0
C671 C 0.14655 0.29626 0.02538 0.0
H672 H 0.11768 0.26251 0.05958 0.0
H673 H 0.17165 0.44625 0.94796 0.0
H674 H 0.61021 0.11408 0.91083 0.0
H675 H 0.61254 0.12199 0.952 0.0
H676 H 0.66915 0.16031 0.94016 0.0
H677 H 0.66668 0.15279 0.89853 0.0
H678 H 0.6709 0.12762 0.97834 0.0
H679 H 0.63013 0.18767 0.95196 0.0
H680 H 0.60157 0.20597 0.93004 0.0
H681 H 0.55359 0.17115 0.96789 0.0
H682 H 0.58188 0.15238 0.9898 0.0
H683 H 0.66322 0.15404 0.09902 0.0
H684 H 0.6683 0.15813 0.05725 0.0
H685 H 0.60513 0.13182 0.04544 0.0
H686 H 0.59984 0.12803 0.08684 0.0
H687 H 0.61159 0.16553 0.01841 0.0
H688 H 0.65111 0.10148 0.03948 0.0
H689 H 0.67869 0.08101 0.06068 0.0
H690 H 0.728 0.12144 0.03245 0.0
H691 H 0.70066 0.14232 0.01131 0.0
C692 C 0.62317 0.12421 0.91692 0.0
C693 C 0.63827 0.13282 0.90145 0.0
C694 C 0.62443 0.12876 0.94043 0.0
C695 C 0.64096 0.14178 0.94903 0.0
C696 C 0.65627 0.15025 0.93376 0.0
C697 C 0.65479 0.14601 0.91005 0.0
C698 C 0.642 0.14613 0.97411 0.0
C699 C 0.65827 0.13638 0.98714 0.0
C700 C 0.62527 0.1572 0.98548 0.0
C701 C 0.60816 0.16851 0.97242 0.0
C702 C 0.6135 0.18378 0.95548 0.0
C703 C 0.59735 0.19426 0.94308 0.0
C704 C 0.57578 0.1897 0.94754 0.0
C705 C 0.57031 0.17467 0.96445 0.0
C706 C 0.5864 0.16412 0.97689 0.0
C707 C 0.6504 0.14923 0.08749 0.0
C708 C 0.63116 0.14064 0.09625 0.0
C709 C 0.65335 0.15152 0.06364 0.0
C710 C 0.63714 0.14515 0.04819 0.0
C711 C 0.61784 0.13692 0.05699 0.0
C712 C 0.61488 0.13467 0.08072 0.0
C713 C 0.64015 0.14646 0.0228 0.0
C714 C 0.62457 0.15724 0.00967 0.0
C715 C 0.65742 0.13615 0.01137 0.0
C716 C 0.67384 0.12363 0.02408 0.0
C717 C 0.66782 0.10611 0.03796 0.0
C718 C 0.68341 0.09442 0.04993 0.0
C719 C 0.70508 0.09997 0.04798 0.0
C720 C 0.71121 0.11719 0.034 0.0
C721 C 0.69568 0.12896 0.02201 0.0
H722 H 0.71712 0.09089 0.05725 0.0
H723 H 0.5633 0.19784 0.93793 0.0
H724 H 0.89651 0.61991 0.91322 0.0
H725 H 0.89076 0.62142 0.95472 0.0
H726 H 0.83215 0.65696 0.9442 0.0
H727 H 0.83794 0.65573 0.90226 0.0
H728 H 0.85661 0.67303 0.98054 0.0
H729 H 0.82851 0.6052 0.95702 0.0
H730 H 0.82863 0.5704 0.93676 0.0
H731 H 0.88351 0.55038 0.9761 0.0
H732 H 0.88392 0.58519 0.99637 0.0
H733 H 0.83359 0.65427 0.10139 0.0
H734 H 0.83054 0.65723 0.05926 0.0
H735 H 0.88689 0.6176 0.05142 0.0
H736 H 0.88968 0.61417 0.09314 0.0
H737 H 0.8564 0.60423 0.02369 0.0
H738 H 0.88716 0.67351 0.04354 0.0
H739 H 0.88777 0.70855 0.06335 0.0
H740 H 0.82818 0.72578 0.03099 0.0
H741 H 0.82709 0.69072 0.0112 0.0
C742 C 0.8824 0.62812 0.91963 0.0
C743 C 0.86759 0.63756 0.9044 0.0
C744 C 0.87911 0.62891 0.9434 0.0
C745 C 0.86084 0.63899 0.95253 0.0
C746 C 0.84629 0.64901 0.93748 0.0
C747 C 0.8496 0.64824 0.91355 0.0
C748 C 0.85708 0.63856 0.97781 0.0
C749 C 0.85614 0.658 0.99 0.0
C750 C 0.85663 0.61894 0.99012 0.0
C751 C 0.85631 0.59787 0.97813 0.0
C752 C 0.84068 0.59343 0.96126 0.0
C753 C 0.84065 0.57369 0.94978 0.0
C754 C 0.85608 0.5582 0.95512 0.0
C755 C 0.87156 0.5624 0.97199 0.0
C756 C 0.87168 0.58212 0.9835 0.0
C757 C 0.84537 0.6463 0.09064 0.0
C758 C 0.86184 0.63393 0.10059 0.0
C759 C 0.84365 0.64806 0.06658 0.0
C760 C 0.85854 0.63769 0.05215 0.0
C761 C 0.87513 0.62563 0.06216 0.0
C762 C 0.87674 0.62373 0.08606 0.0
C763 C 0.85683 0.63871 0.02659 0.0
C764 C 0.85658 0.6193 0.01429 0.0
C765 C 0.85622 0.65834 0.01427 0.0
C766 C 0.85691 0.67941 0.02612 0.0
C767 C 0.8741 0.68471 0.0408 0.0
C768 C 0.87455 0.70459 0.05199 0.0
C769 C 0.85799 0.71936 0.04849 0.0
C770 C 0.84097 0.71431 0.03373 0.0
C771 C 0.84044 0.69445 0.02251 0.0
H772 H 0.85836 0.73474 0.05717 0.0
H773 H 0.85604 0.54293 0.94621 0.0
H774 H 0.33846 0.83462 0.10202 0.0
H775 H 0.33115 0.83118 0.06047 0.0
H776 H 0.37171 0.88592 0.04705 0.0
H777 H 0.37919 0.88934 0.08816 0.0
H778 H 0.33247 0.88751 0.02374 0.0
H779 H 0.39076 0.83725 0.03858 0.0
H780 H 0.40716 0.80577 0.05741 0.0
H781 H 0.35712 0.7654 0.03057 0.0
H782 H 0.34027 0.79674 0.01182 0.0
H783 H 0.37288 0.88997 0.91266 0.0
H784 H 0.3682 0.88591 0.95409 0.0
H785 H 0.32806 0.83042 0.94301 0.0
H786 H 0.33269 0.83438 0.90106 0.0
H787 H 0.35854 0.82494 0.97875 0.0
H788 H 0.30386 0.8743 0.95823 0.0
H789 H 0.28789 0.90571 0.93891 0.0
H790 H 0.33018 0.94759 0.97632 0.0
H791 H 0.34666 0.9164 0.99562 0.0
C792 C 0.34573 0.84594 0.09018 0.0
C793 C 0.35945 0.86222 0.09834 0.0
C794 C 0.34159 0.84392 0.06649 0.0
C795 C 0.35093 0.85829 0.05072 0.0
C796 C 0.3643 0.87471 0.05893 0.0
C797 C 0.36862 0.87658 0.08245 0.0
C798 C 0.34727 0.85634 0.02553 0.0
C799 C 0.33814 0.87383 0.01389 0.0
C800 C 0.35399 0.83816 0.0128 0.0
C801 C 0.3641 0.81937 0.02408 0.0
C802 C 0.38314 0.8217 0.03689 0.0
C803 C 0.39254 0.80387 0.0475 0.0
C804 C 0.38314 0.78361 0.04527 0.0
C805 C 0.36435 0.78112 0.03234 0.0
C806 C 0.35487 0.7989 0.02172 0.0
C807 C 0.36307 0.87684 0.91892 0.0
C808 C 0.35307 0.86255 0.90352 0.0
C809 C 0.36034 0.8746 0.94265 0.0
C810 C 0.34754 0.85805 0.95161 0.0
C811 C 0.33791 0.84337 0.9364 0.0
C812 C 0.34054 0.84568 0.91248 0.0
C813 C 0.34448 0.85648 0.97693 0.0
C814 C 0.35233 0.83838 0.98861 0.0
C815 C 0.33649 0.87408 0.98976 0.0
C816 C 0.32658 0.89296 0.9783 0.0
C817 C 0.30987 0.89019 0.96223 0.0
C818 C 0.3007 0.90797 0.95129 0.0
C819 C 0.30803 0.92863 0.95636 0.0
C820 C 0.32452 0.93157 0.97241 0.0
C821 C 0.33376 0.91384 0.98339 0.0
H822 H 0.30092 0.94238 0.94788 0.0
H823 H 0.39045 0.76982 0.05348 0.0
H824 H 0.15943 0.66249 0.60033 0.0
H825 H 0.16755 0.66534 0.55887 0.0
H826 H 0.12287 0.61408 0.54476 0.0
H827 H 0.11446 0.61138 0.58574 0.0
H828 H 0.16404 0.60967 0.52303 0.0
H829 H 0.10708 0.66237 0.53533 0.0
H830 H 0.09175 0.69483 0.55326 0.0
H831 H 0.14413 0.7325 0.52706 0.0
H832 H 0.15992 0.70016 0.50923 0.0
H833 H 0.12478 0.60583 0.4117 0.0
H834 H 0.13021 0.61006 0.45298 0.0
H835 H 0.16985 0.66573 0.44081 0.0
H836 H 0.16434 0.66165 0.399 0.0
H837 H 0.14065 0.67209 0.47613 0.0
H838 H 0.19393 0.621 0.45748 0.0
H839 H 0.20957 0.58886 0.43927 0.0
H840 H 0.16626 0.54861 0.4774 0.0
H841 H 0.15011 0.58053 0.49559 0.0
C842 C 0.15138 0.65185 0.58834 0.0
C843 C 0.13627 0.63675 0.59626 0.0
C844 C 0.15601 0.65352 0.56473 0.0
C845 C 0.14581 0.63989 0.54883 0.0
C846 C 0.13095 0.62468 0.55678 0.0
C847 C 0.1261 0.62324 0.5802 0.0
C848 C 0.15018 0.64129 0.52377 0.0
C849 C 0.15899 0.62331 0.51273 0.0
C850 C 0.14432 0.65943 0.51053 0.0
C851 C 0.13483 0.67882 0.52124 0.0
C852 C 0.11544 0.67753 0.5336 0.0
C853 C 0.10664 0.69591 0.54369 0.0
C854 C 0.117 0.7157 0.54138 0.0
C855 C 0.13615 0.71715 0.52889 0.0
C856 C 0.14503 0.69881 0.51879 0.0
C857 C 0.13471 0.61898 0.41768 0.0
C858 C 0.1442 0.63337 0.40202 0.0
C859 C 0.13789 0.62131 0.44134 0.0
C860 C 0.15071 0.63801 0.44996 0.0
C861 C 0.16001 0.65264 0.43447 0.0
C862 C 0.15689 0.65027 0.41063 0.0
C863 C 0.15371 0.64007 0.47526 0.0
C864 C 0.14631 0.65867 0.48639 0.0
C865 C 0.16105 0.62254 0.48865 0.0
C866 C 0.17073 0.60321 0.47783 0.0
C867 C 0.18763 0.60531 0.46188 0.0
C868 C 0.19661 0.58712 0.45157 0.0
C869 C 0.1889 0.56671 0.45716 0.0
C870 C 0.17222 0.56444 0.47309 0.0
C871 C 0.16317 0.58258 0.48344 0.0
H872 H 0.19587 0.55264 0.44916 0.0
H873 H 0.11016 0.72992 0.54919 0.0
H874 H 0.35996 0.09825 0.59051 0.0
H875 H 0.35715 0.10476 0.54912 0.0
H876 H 0.3403 0.1708 0.56215 0.0
H877 H 0.34302 0.16437 0.60387 0.0
H878 H 0.32465 0.11912 0.52019 0.0
H879 H 0.36766 0.20014 0.51981 0.0
H880 H 0.39228 0.22152 0.54407 0.0
H881 H 0.4194 0.16366 0.57186 0.0
H882 H 0.39514 0.14198 0.54756 0.0
H883 H 0.33508 0.15458 0.40169 0.0
H884 H 0.32723 0.1568 0.44322 0.0
H885 H 0.3909 0.13364 0.45855 0.0
H886 H 0.39873 0.13113 0.41741 0.0
H887 H 0.37844 0.16866 0.48613 0.0
H888 H 0.35148 0.09949 0.45963 0.0
H889 H 0.32872 0.0762 0.43539 0.0
H890 H 0.2722 0.10737 0.46142 0.0
H891 H 0.29468 0.13104 0.48559 0.0
C892 C 0.35545 0.11413 0.58463 0.0
C893 C 0.35188 0.13085 0.60045 0.0
C894 C 0.35371 0.11777 0.56095 0.0
C895 C 0.34861 0.13826 0.55257 0.0
C896 C 0.34434 0.15488 0.5683 0.0
C897 C 0.34588 0.15118 0.59209 0.0
C898 C 0.34946 0.1423 0.52737 0.0
C899 C 0.33617 0.13021 0.51274 0.0
C900 C 0.36456 0.15667 0.51764 0.0
C901 C 0.37941 0.16948 0.53211 0.0
C902 C 0.37892 0.19201 0.53108 0.0
C903 C 0.3928 0.20417 0.54482 0.0
C904 C 0.40733 0.19396 0.55956 0.0
C905 C 0.40807 0.17156 0.56051 0.0
C906 C 0.39425 0.15932 0.54678 0.0
C907 C 0.34741 0.1501 0.41396 0.0
C908 C 0.36747 0.14257 0.40631 0.0
C909 C 0.3429 0.15137 0.43762 0.0
C910 C 0.3585 0.14538 0.4539 0.0
C911 C 0.37869 0.13842 0.44626 0.0
C912 C 0.38308 0.13688 0.42273 0.0
C913 C 0.3538 0.14531 0.47897 0.0
C914 C 0.36643 0.1581 0.49357 0.0
C915 C 0.33824 0.13144 0.48865 0.0
C916 C 0.32476 0.11721 0.47417 0.0
C917 C 0.33421 0.1015 0.46001 0.0
C918 C 0.32136 0.08821 0.44632 0.0
C919 C 0.29903 0.09036 0.4468 0.0
C920 C 0.2895 0.10576 0.46102 0.0
C921 C 0.30228 0.11911 0.47472 0.0
H922 H 0.28911 0.08004 0.4362 0.0
H923 H 0.41805 0.2034 0.57021 0.0
H924 H 0.87511 0.3915 0.40858 0.0
H925 H 0.8746 0.3857 0.45008 0.0
H926 H 0.83397 0.33025 0.44096 0.0
H927 H 0.83412 0.33617 0.39901 0.0
H928 H 0.82103 0.35531 0.47762 0.0
H929 H 0.88615 0.3228 0.45238 0.0
H930 H 0.9204 0.32038 0.43118 0.0
H931 H 0.94522 0.37387 0.46957 0.0
H932 H 0.91102 0.37682 0.49077 0.0
H933 H 0.84166 0.33251 0.59834 0.0
H934 H 0.83743 0.32896 0.55637 0.0
H935 H 0.87972 0.38305 0.54625 0.0
H936 H 0.88433 0.38638 0.58779 0.0
H937 H 0.89075 0.35108 0.51882 0.0
H938 H 0.82394 0.38631 0.54014 0.0
H939 H 0.78951 0.38918 0.56095 0.0
H940 H 0.76797 0.33036 0.52999 0.0
H941 H 0.8024 0.32702 0.50921 0.0
C942 C 0.86602 0.37805 0.4153 0.0
C943 C 0.85479 0.36418 0.40044 0.0
C944 C 0.86581 0.37472 0.43908 0.0
C945 C 0.85457 0.35732 0.4486 0.0
C946 C 0.84286 0.34371 0.43394 0.0
C947 C 0.843 0.34707 0.41001 0.0
C948 C 0.8554 0.35358 0.47389 0.0
C949 C 0.83623 0.35395 0.48664 0.0
C950 C 0.87525 0.35193 0.48565 0.0
C951 C 0.89596 0.35009 0.47309 0.0
C952 C 0.89887 0.33413 0.45621 0.0
C953 C 0.91828 0.33265 0.4442 0.0
C954 C 0.93496 0.34698 0.44901 0.0
C955 C 0.93229 0.36278 0.46587 0.0
C956 C 0.9129 0.36434 0.47791 0.0
C957 C 0.84994 0.34369 0.58712 0.0
C958 C 0.86338 0.35968 0.59638 0.0
C959 C 0.84747 0.34168 0.56316 0.0
C960 C 0.85822 0.35578 0.54814 0.0
C961 C 0.87136 0.3719 0.55746 0.0
C962 C 0.87394 0.37381 0.58126 0.0
C963 C 0.85645 0.35374 0.52266 0.0
C964 C 0.87549 0.35213 0.50983 0.0
C965 C 0.83651 0.35423 0.51091 0.0
C966 C 0.81582 0.35629 0.52335 0.0
C967 C 0.81192 0.37391 0.53792 0.0
C968 C 0.7924 0.37563 0.54968 0.0
C969 C 0.77659 0.35992 0.54686 0.0
C970 C 0.78024 0.34249 0.5322 0.0
C971 C 0.79975 0.34068 0.52042 0.0
H972 H 0.76148 0.36129 0.55597 0.0
H973 H 0.94998 0.34582 0.43968 0.0
H974 H 0.61008 0.88355 0.59264 0.0
H975 H 0.61102 0.87736 0.55116 0.0
H976 H 0.66037 0.82959 0.56031 0.0
H977 H 0.65947 0.83563 0.60226 0.0
H978 H 0.66816 0.85962 0.52338 0.0
H979 H 0.61332 0.81164 0.54899 0.0
H980 H 0.58099 0.80094 0.5707 0.0
H981 H 0.54354 0.84727 0.53343 0.0
H982 H 0.57572 0.85848 0.51173 0.0
H983 H 0.65363 0.83535 0.40258 0.0
H984 H 0.65828 0.83147 0.44443 0.0
H985 H 0.60316 0.87206 0.45579 0.0
H986 H 0.59816 0.87557 0.41431 0.0
H987 H 0.60116 0.83847 0.48296 0.0
H988 H 0.65606 0.89008 0.46188 0.0
H989 H 0.68815 0.90261 0.44085 0.0
H990 H 0.72512 0.85104 0.46981 0.0
H991 H 0.69315 0.83806 0.49079 0.0
C992 C 0.62118 0.87172 0.58593 0.0
C993 C 0.63466 0.86002 0.60077 0.0
C994 C 0.62164 0.86817 0.56219 0.0
C995 C 0.63561 0.85289 0.55271 0.0
C996 C 0.64942 0.84141 0.56735 0.0
C997 C 0.64884 0.84483 0.59126 0.0
C998 C 0.63544 0.84913 0.52745 0.0
C999 C 0.65369 0.85453 0.5145 0.0
C1000 C 0.61644 0.8428 0.51594 0.0
C1001 C 0.59698 0.83598 0.52882 0.0
C1002 C 0.59822 0.81965 0.54553 0.0
C1003 C 0.57992 0.81348 0.55782 0.0
C1004 C 0.56023 0.82344 0.55347 0.0
C1005 C 0.5588 0.83956 0.53678 0.0
C1006 C 0.57707 0.84581 0.52446 0.0
C1007 C 0.64253 0.84343 0.41404 0.0
C1008 C 0.62552 0.85576 0.40512 0.0
C1009 C 0.64524 0.84126 0.43794 0.0
C1010 C 0.63113 0.85158 0.45329 0.0
C1011 C 0.61419 0.86386 0.44433 0.0
C1012 C 0.61139 0.86591 0.42056 0.0
C1013 C 0.63366 0.84971 0.47872 0.0
C1014 C 0.61581 0.84318 0.49176 0.0
C1015 C 0.65298 0.85516 0.49025 0.0
C1016 C 0.67217 0.86295 0.47765 0.0
C1017 C 0.67099 0.88132 0.4636 0.0
C1018 C 0.68916 0.88851 0.45173 0.0
C1019 C 0.70864 0.87758 0.45393 0.0
C1020 C 0.71001 0.85946 0.46807 0.0
C1021 C 0.69187 0.85218 0.47996 0.0
H1022 H 0.72269 0.88318 0.44473 0.0
H1023 H 0.54608 0.81864 0.56301 0.0
H1024 H 0.15716 0.55777 0.3251 0.0
H1025 H 0.16468 0.52293 0.30737 0.0
H1026 H 0.18638 0.55468 0.24548 0.0
H1027 H 0.17904 0.58951 0.26299 0.0
H1028 H 0.15349 0.52542 0.23824 0.0
H1029 H 0.22174 0.5279 0.27644 0.0
H1030 H 0.24613 0.53217 0.30964 0.0
H1031 H 0.21644 0.47841 0.34331 0.0
H1032 H 0.19166 0.47399 0.31045 0.0
H1033 H 0.16755 0.42791 0.17968 0.0
H1034 H 0.17673 0.46289 0.1962 0.0
H1035 H 0.16714 0.4374 0.26472 0.0
H1036 H 0.15912 0.40225 0.24837 0.0
H1037 H 0.19795 0.46483 0.26653 0.0
H1038 H 0.12678 0.46533 0.2338 0.0
H1039 H 0.0997 0.46094 0.20309 0.0
H1040 H 0.13149 0.50895 0.1623 0.0
H1041 H 0.15891 0.51343 0.19269 0.0
C1042 C 0.16394 0.55736 0.3079 0.0
C1043 C 0.16726 0.57642 0.29538 0.0
C1044 C 0.16832 0.53745 0.29784 0.0
C1045 C 0.17607 0.53629 0.27513 0.0
C1046 C 0.18041 0.55528 0.26303 0.0
C1047 C 0.17619 0.57517 0.2731 0.0
C1048 C 0.17716 0.5154 0.26308 0.0
C1049 C 0.16356 0.51229 0.2441 0.0
C1050 C 0.18977 0.49815 0.27127 0.0
C1051 C 0.20472 0.50072 0.29103 0.0
C1052 C 0.22029 0.51709 0.291 0.0
C1053 C 0.23421 0.51952 0.30975 0.0
C1054 C 0.23281 0.5056 0.32859 0.0
C1055 C 0.21751 0.48918 0.32871 0.0
C1056 C 0.20353 0.48669 0.31 0.0
C1057 C 0.16773 0.42974 0.19827 0.0
C1058 C 0.16239 0.41244 0.21273 0.0
C1059 C 0.1729 0.44973 0.2077 0.0
C1060 C 0.1721 0.45293 0.2317 0.0
C1061 C 0.16782 0.43538 0.24617 0.0
C1062 C 0.16315 0.41529 0.23678 0.0
C1063 C 0.1741 0.47477 0.24175 0.0
C1064 C 0.18815 0.47806 0.26041 0.0
C1065 C 0.16152 0.49215 0.23362 0.0
C1066 C 0.14502 0.48952 0.21538 0.0
C1067 C 0.12807 0.47484 0.21821 0.0
C1068 C 0.11265 0.47235 0.20088 0.0
C1069 C 0.11391 0.48461 0.18072 0.0
C1070 C 0.13056 0.49943 0.1779 0.0
C1071 C 0.14604 0.50196 0.19517 0.0
H1072 H 0.10196 0.48266 0.16732 0.0
H1073 H 0.2436 0.5075 0.34309 0.0
H1074 H 0.59768 0.15531 0.24585 0.0
H1075 H 0.5653 0.166 0.26655 0.0
H1076 H 0.53864 0.1913 0.20339 0.0
H1077 H 0.57061 0.17962 0.18235 0.0
H1078 H 0.54248 0.19975 0.27646 0.0
H1079 H 0.48621 0.18025 0.20004 0.0
H1080 H 0.48576 0.15813 0.1647 0.0
H1081 H 0.53059 0.11423 0.19538 0.0
H1082 H 0.53108 0.13593 0.23098 0.0
H1083 H 0.41592 0.19276 0.27778 0.0
H1084 H 0.4505 0.20151 0.26046 0.0
H1085 H 0.483 0.16695 0.31466 0.0
H1086 H 0.44841 0.15804 0.3322 0.0
H1087 H 0.47547 0.16833 0.24476 0.0
H1088 H 0.53484 0.18751 0.31892 0.0
H1089 H 0.53506 0.20655 0.35623 0.0
H1090 H 0.48336 0.24682 0.33326 0.0
H1091 H 0.48302 0.22825 0.2957 0.0
C1092 C 0.58505 0.16342 0.23642 0.0
C1093 C 0.58648 0.16627 0.21241 0.0
C1094 C 0.56657 0.16962 0.24831 0.0
C1095 C 0.54932 0.17902 0.23644 0.0
C1096 C 0.55151 0.18356 0.2128 0.0
C1097 C 0.56979 0.17692 0.2008 0.0
C1098 C 0.52842 0.18198 0.24833 0.0
C1099 C 0.52782 0.19284 0.26958 0.0
C1100 C 0.50922 0.17317 0.23925 0.0
C1101 C 0.50888 0.15987 0.21802 0.0
C1102 C 0.49592 0.16584 0.19924 0.0
C1103 C 0.49566 0.15338 0.17917 0.0
C1104 C 0.50821 0.13483 0.17776 0.0
C1105 C 0.52095 0.12864 0.19646 0.0
C1106 C 0.52124 0.14103 0.21658 0.0
C1107 C 0.43041 0.18742 0.28639 0.0
C1108 C 0.42938 0.17436 0.30618 0.0
C1109 C 0.45016 0.1925 0.27645 0.0
C1110 C 0.46926 0.18482 0.28623 0.0
C1111 C 0.46843 0.1732 0.30696 0.0
C1112 C 0.44863 0.16803 0.3169 0.0
C1113 C 0.48951 0.18598 0.27293 0.0
C1114 C 0.49001 0.17568 0.25144 0.0
C1115 C 0.50858 0.19488 0.28209 0.0
C1116 C 0.5088 0.20634 0.30454 0.0
C1117 C 0.52358 0.20049 0.32178 0.0
C1118 C 0.52371 0.2112 0.34299 0.0
C1119 C 0.50919 0.22785 0.34714 0.0
C1120 C 0.49455 0.23387 0.33006 0.0
C1121 C 0.49435 0.22322 0.30882 0.0
H1122 H 0.50932 0.2361 0.36357 0.0
H1123 H 0.508 0.12522 0.1622 0.0
H1124 H 0.85338 0.55729 0.18734 0.0
H1125 H 0.84168 0.52403 0.20555 0.0
H1126 H 0.78771 0.55711 0.23589 0.0
H1127 H 0.7999 0.59068 0.21844 0.0
H1128 H 0.80606 0.53602 0.26739 0.0
H1129 H 0.78127 0.5169 0.19345 0.0
H1130 H 0.78184 0.51229 0.1512 0.0
H1131 H 0.83399 0.46759 0.15726 0.0
H1132 H 0.83396 0.47215 0.19952 0.0
H1133 H 0.7947 0.4092 0.27864 0.0
H1134 H 0.78481 0.44313 0.26036 0.0
H1135 H 0.83568 0.47517 0.29748 0.0
H1136 H 0.84507 0.44158 0.31639 0.0
H1137 H 0.80726 0.46381 0.23148 0.0
H1138 H 0.82829 0.52714 0.30284 0.0
H1139 H 0.82326 0.53175 0.34475 0.0
H1140 H 0.76983 0.48817 0.3433 0.0
H1141 H 0.77432 0.48353 0.30133 0.0
C1142 C 0.83877 0.55739 0.19747 0.0
C1143 C 0.82765 0.57661 0.20159 0.0
C1144 C 0.832 0.53831 0.20781 0.0
C1145 C 0.81369 0.53798 0.22201 0.0
C1146 C 0.80192 0.55696 0.2251 0.0
C1147 C 0.80887 0.57612 0.21507 0.0
C1148 C 0.8083 0.5184 0.23545 0.0
C1149 C 0.80605 0.52024 0.2595 0.0
C1150 C 0.80755 0.49782 0.22515 0.0
C1151 C 0.80766 0.49495 0.19969 0.0
C1152 C 0.79295 0.50619 0.18578 0.0
C1153 C 0.79317 0.50357 0.16182 0.0
C1154 C 0.80796 0.48967 0.15155 0.0
C1155 C 0.82254 0.47834 0.16523 0.0
C1156 C 0.8224 0.48091 0.1892 0.0
C1157 C 0.80341 0.42361 0.28335 0.0
C1158 C 0.82076 0.4227 0.29886 0.0
C1159 C 0.79777 0.44298 0.27283 0.0
C1160 C 0.80945 0.46176 0.27751 0.0
C1161 C 0.8261 0.46105 0.29388 0.0
C1162 C 0.83155 0.44176 0.30464 0.0
C1163 C 0.80606 0.48142 0.2635 0.0
C1164 C 0.80671 0.4796 0.23934 0.0
C1165 C 0.80464 0.50202 0.27365 0.0
C1166 C 0.80173 0.50491 0.29891 0.0
C1167 C 0.81537 0.51864 0.31142 0.0
C1168 C 0.81264 0.52123 0.3352 0.0
C1169 C 0.79626 0.51023 0.34668 0.0
C1170 C 0.78255 0.49664 0.33439 0.0
C1171 C 0.78521 0.494 0.31061 0.0
H1172 H 0.79418 0.51225 0.3651 0.0
H1173 H 0.8081 0.48767 0.133 0.0
H1174 H 0.59621 0.81917 0.26055 0.0
H1175 H 0.56454 0.81019 0.23768 0.0
H1176 H 0.5244 0.81877 0.29758 0.0
H1177 H 0.55598 0.82792 0.32068 0.0
H1178 H 0.51116 0.78425 0.2663 0.0
H1179 H 0.5316 0.86016 0.26637 0.0
H1180 H 0.55746 0.88963 0.26028 0.0
H1181 H 0.5654 0.87044 0.18961 0.0
H1182 H 0.53981 0.84064 0.19543 0.0
H1183 H 0.41069 0.82423 0.23461 0.0
H1184 H 0.44567 0.81373 0.24916 0.0
H1185 H 0.47329 0.82389 0.18169 0.0
H1186 H 0.43823 0.83547 0.16719 0.0
H1187 H 0.49612 0.84331 0.21114 0.0
H1188 H 0.46977 0.77217 0.20835 0.0
H1189 H 0.4443 0.7423 0.21385 0.0
H1190 H 0.44777 0.75053 0.28732 0.0
H1191 H 0.47303 0.78066 0.28229 0.0
C1192 C 0.58074 0.81866 0.26906 0.0
C1193 C 0.57856 0.82465 0.29236 0.0
C1194 C 0.56267 0.81347 0.25594 0.0
C1195 C 0.54219 0.81406 0.26593 0.0
C1196 C 0.54013 0.81822 0.28961 0.0
C1197 C 0.55818 0.82358 0.30273 0.0
C1198 C 0.52283 0.81356 0.25122 0.0
C1199 C 0.50774 0.79709 0.2542 0.0
C1200 C 0.51885 0.82999 0.23495 0.0
C1201 C 0.53402 0.84804 0.2314 0.0
C1202 C 0.539 0.86213 0.24959 0.0
C1203 C 0.55358 0.8789 0.24618 0.0
C1204 C 0.56312 0.88187 0.22459 0.0
C1205 C 0.55804 0.8681 0.20634 0.0
C1206 C 0.5435 0.85127 0.20968 0.0
C1207 C 0.4241 0.82388 0.2227 0.0
C1208 C 0.42171 0.83085 0.19976 0.0
C1209 C 0.44413 0.81764 0.23103 0.0
C1210 C 0.46216 0.81769 0.21649 0.0
C1211 C 0.45962 0.82368 0.19325 0.0
C1212 C 0.43959 0.83029 0.18498 0.0
C1213 C 0.48389 0.81414 0.22637 0.0
C1214 C 0.49953 0.83 0.22264 0.0
C1215 C 0.48838 0.79699 0.24173 0.0
C1216 C 0.47325 0.77878 0.24491 0.0
C1217 C 0.46501 0.76771 0.22568 0.0
C1218 C 0.45062 0.75071 0.22872 0.0
C1219 C 0.4444 0.74454 0.25092 0.0
C1220 C 0.45261 0.75533 0.27013 0.0
C1221 C 0.467 0.77234 0.2672 0.0
H1222 H 0.43325 0.73138 0.25323 0.0
H1223 H 0.57441 0.89486 0.22198 0.0
H1224 H 0.84274 0.58838 0.76431 0.0
H1225 H 0.83981 0.5527 0.74763 0.0
H1226 H 0.86189 0.52481 0.81155 0.0
H1227 H 0.86564 0.56076 0.8282 0.0
H1228 H 0.88203 0.50714 0.7776 0.0
H1229 H 0.80838 0.52075 0.79293 0.0
H1230 H 0.77427 0.54082 0.79304 0.0
H1231 H 0.77298 0.53975 0.71897 0.0
H1232 H 0.80726 0.51993 0.71839 0.0
H1233 H 0.85311 0.40093 0.74412 0.0
H1234 H 0.85063 0.43568 0.76339 0.0
H1235 H 0.85122 0.46768 0.69744 0.0
H1236 H 0.85419 0.43285 0.67784 0.0
H1237 H 0.81828 0.48186 0.7339 0.0
H1238 H 0.89434 0.46935 0.72062 0.0
H1239 H 0.92739 0.44766 0.72264 0.0
H1240 H 0.92209 0.44486 0.79646 0.0
H1241 H 0.88879 0.46628 0.79484 0.0
C1242 C 0.84678 0.57468 0.77497 0.0
C1243 C 0.85442 0.57742 0.79762 0.0
C1244 C 0.84496 0.55423 0.76541 0.0
C1245 C 0.85031 0.53601 0.77842 0.0
C1246 C 0.85763 0.53864 0.80119 0.0
C1247 C 0.85971 0.55918 0.8107 0.0
C1248 C 0.84942 0.51439 0.7677 0.0
C1249 C 0.86792 0.50153 0.76841 0.0
C1250 C 0.83115 0.50709 0.75538 0.0
C1251 C 0.8105 0.51901 0.75562 0.0
C1252 C 0.80092 0.52494 0.77666 0.0
C1253 C 0.78153 0.53624 0.77681 0.0
C1254 C 0.77149 0.54159 0.75603 0.0
C1255 C 0.78079 0.53561 0.73505 0.0
C1256 C 0.80019 0.52431 0.7348 0.0
C1257 C 0.85251 0.41532 0.73364 0.0
C1258 C 0.85391 0.41417 0.70943 0.0
C1259 C 0.85112 0.43513 0.74471 0.0
C1260 C 0.8508 0.45412 0.73179 0.0
C1261 C 0.85142 0.4531 0.70762 0.0
C1262 C 0.85319 0.43325 0.69649 0.0
C1263 C 0.85087 0.47504 0.74372 0.0
C1264 C 0.83225 0.48762 0.74324 0.0
C1265 C 0.86886 0.48194 0.75658 0.0
C1266 C 0.88895 0.4692 0.75758 0.0
C1267 C 0.90011 0.46393 0.73726 0.0
C1268 C 0.91891 0.45172 0.73834 0.0
C1269 C 0.9268 0.44482 0.75966 0.0
C1270 C 0.91594 0.45018 0.77996 0.0
C1271 C 0.89711 0.46236 0.77897 0.0
H1272 H 0.94137 0.43538 0.76046 0.0
H1273 H 0.75648 0.55034 0.75618 0.0
H1274 H 0.56049 0.85522 0.67698 0.0
H1275 H 0.52437 0.8529 0.69346 0.0
H1276 H 0.5517 0.84483 0.76139 0.0
H1277 H 0.58765 0.84611 0.74493 0.0
H1278 H 0.51922 0.82008 0.75817 0.0
H1279 H 0.53141 0.8944 0.74062 0.0
H1280 H 0.54047 0.92548 0.7161 0.0
H1281 H 0.4869 0.91137 0.67196 0.0
H1282 H 0.47769 0.88003 0.69606 0.0
H1283 H 0.42837 0.85691 0.82406 0.0
H1284 H 0.46381 0.85363 0.80591 0.0
H1285 H 0.43376 0.84598 0.73937 0.0
H1286 H 0.39841 0.84895 0.75725 0.0
H1287 H 0.4667 0.87783 0.74125 0.0
H1288 H 0.45423 0.80386 0.76216 0.0
H1289 H 0.44567 0.77441 0.78906 0.0
H1290 H 0.50079 0.79041 0.83015 0.0
H1291 H 0.50951 0.82018 0.80365 0.0
C1292 C 0.55875 0.8528 0.69539 0.0
C1293 C 0.57689 0.85093 0.70966 0.0
C1294 C 0.53811 0.85159 0.70482 0.0
C1295 C 0.53529 0.8491 0.72876 0.0
C1296 C 0.55342 0.84675 0.74289 0.0
C1297 C 0.57399 0.84753 0.73344 0.0
C1298 C 0.51354 0.84938 0.73927 0.0
C1299 C 0.50785 0.83286 0.75462 0.0
C1300 C 0.49853 0.86588 0.73449 0.0
C1301 C 0.504 0.88474 0.72 0.0
C1302 C 0.52166 0.89784 0.72559 0.0
C1303 C 0.5268 0.91551 0.71178 0.0
C1304 C 0.5143 0.92036 0.69245 0.0
C1305 C 0.49659 0.90757 0.68692 0.0
C1306 C 0.49139 0.88986 0.70065 0.0
C1307 C 0.42932 0.85436 0.8056 0.0
C1308 C 0.41059 0.8532 0.7921 0.0
C1309 C 0.44954 0.85245 0.79529 0.0
C1310 C 0.4513 0.84955 0.77134 0.0
C1311 C 0.43267 0.84822 0.75788 0.0
C1312 C 0.4125 0.84984 0.76817 0.0
C1313 C 0.47258 0.84866 0.76011 0.0
C1314 C 0.47812 0.86507 0.74467 0.0
C1315 C 0.48758 0.83232 0.76515 0.0
C1316 C 0.48239 0.81438 0.78105 0.0
C1317 C 0.46441 0.80123 0.77704 0.0
C1318 C 0.45956 0.78445 0.79219 0.0
C1319 C 0.47265 0.78057 0.81133 0.0
C1320 C 0.49065 0.79345 0.81533 0.0
C1321 C 0.49557 0.81026 0.80024 0.0
H1322 H 0.46886 0.76757 0.82304 0.0
H1323 H 0.51831 0.93405 0.68178 0.0
H1324 H 0.11816 0.43119 0.82079 0.0
H1325 H 0.1189 0.46531 0.7999 0.0
H1326 H 0.16647 0.43974 0.7533 0.0
H1327 H 0.16553 0.40552 0.77372 0.0
H1328 H 0.14796 0.49486 0.79052 0.0
H1329 H 0.15656 0.45682 0.69928 0.0
H1330 H 0.1464 0.42339 0.67919 0.0
H1331 H 0.09438 0.41399 0.72676 0.0
H1332 H 0.10407 0.44744 0.74696 0.0
H1333 H 0.17333 0.57829 0.71481 0.0
H1334 H 0.17415 0.54334 0.73387 0.0
H1335 H 0.11217 0.52805 0.70482 0.0
H1336 H 0.11166 0.56269 0.68495 0.0
H1337 H 0.13512 0.49351 0.70597 0.0
H1338 H 0.11754 0.54797 0.76053 0.0
H1339 H 0.12197 0.58199 0.78177 0.0
H1340 H 0.18183 0.55963 0.80959 0.0
H1341 H 0.1779 0.52558 0.78824 0.0
C1342 C 0.12897 0.43291 0.80627 0.0
C1343 C 0.14163 0.41558 0.79878 0.0
C1344 C 0.12936 0.45242 0.79435 0.0
C1345 C 0.14243 0.4549 0.77479 0.0
C1346 C 0.15591 0.438 0.76804 0.0
C1347 C 0.15543 0.41849 0.77982 0.0
C1348 C 0.14153 0.4749 0.76098 0.0
C1349 C 0.14521 0.49458 0.77204 0.0
C1350 C 0.13727 0.47457 0.73698 0.0
C1351 C 0.1312 0.45453 0.72476 0.0
C1352 C 0.14292 0.44765 0.7054 0.0
C1353 C 0.13725 0.42868 0.69401 0.0
C1354 C 0.11981 0.41653 0.70175 0.0
C1355 C 0.10795 0.42335 0.72085 0.0
C1356 C 0.11355 0.44229 0.7323 0.0
C1357 C 0.16004 0.56733 0.71218 0.0
C1358 C 0.14233 0.57328 0.69858 0.0
C1359 C 0.16046 0.54742 0.7232 0.0
C1360 C 0.14296 0.53332 0.72129 0.0
C1361 C 0.12581 0.53873 0.70666 0.0
C1362 C 0.12554 0.55852 0.6953 0.0
C1363 C 0.14208 0.51347 0.73541 0.0
C1364 C 0.138 0.49381 0.72443 0.0
C1365 C 0.14515 0.51391 0.75965 0.0
C1366 C 0.14752 0.53431 0.77262 0.0
C1367 C 0.13172 0.55037 0.77105 0.0
C1368 C 0.13413 0.56965 0.78312 0.0
C1369 C 0.15219 0.57299 0.79697 0.0
C1370 C 0.16786 0.55703 0.79883 0.0
C1371 C 0.16554 0.53773 0.78676 0.0
H1372 H 0.15403 0.58793 0.8063 0.0
H1373 H 0.11545 0.40185 0.69292 0.0
H1374 H 0.41334 0.17483 0.71682 0.0
H1375 H 0.44879 0.17779 0.73437 0.0
H1376 H 0.46761 0.11816 0.70235 0.0
H1377 H 0.43221 0.1153 0.68428 0.0
H1378 H 0.46544 0.15222 0.76528 0.0
H1379 H 0.52186 0.11744 0.69492 0.0
H1380 H 0.52476 0.11646 0.65247 0.0
H1381 H 0.48845 0.17487 0.64764 0.0
H1382 H 0.48559 0.17636 0.69005 0.0
H1383 H 0.56435 0.11756 0.81359 0.0
H1384 H 0.53002 0.12083 0.79343 0.0
H1385 H 0.55552 0.17297 0.75275 0.0
H1386 H 0.58999 0.16948 0.7724 0.0
H1387 H 0.53579 0.14561 0.7258 0.0
H1388 H 0.51883 0.18173 0.79635 0.0
H1389 H 0.51611 0.18618 0.83854 0.0
H1390 H 0.47375 0.13189 0.8424 0.0
H1391 H 0.47644 0.12694 0.80026 0.0
C1392 C 0.42512 0.16249 0.71319 0.0
C1393 C 0.41993 0.14476 0.69923 0.0
C1394 C 0.44535 0.16418 0.72332 0.0
C1395 C 0.46083 0.14819 0.71974 0.0
C1396 C 0.456 0.13083 0.70514 0.0
C1397 C 0.43575 0.1292 0.69483 0.0
C1398 C 0.48147 0.14905 0.73247 0.0
C1399 C 0.48083 0.15084 0.75663 0.0
C1400 C 0.50154 0.14752 0.72119 0.0
C1401 C 0.50333 0.14688 0.69566 0.0
C1402 C 0.51456 0.13011 0.6848 0.0
C1403 C 0.51619 0.12946 0.66074 0.0
C1404 C 0.50673 0.14555 0.64736 0.0
C1405 C 0.49569 0.16237 0.65802 0.0
C1406 C 0.49403 0.1631 0.68206 0.0
C1407 C 0.56256 0.1299 0.80056 0.0
C1408 C 0.57991 0.14323 0.79457 0.0
C1409 C 0.54292 0.13177 0.78906 0.0
C1410 C 0.54018 0.14721 0.77163 0.0
C1411 C 0.55731 0.16088 0.76605 0.0
C1412 C 0.57698 0.15891 0.77739 0.0
C1413 C 0.51974 0.14862 0.75861 0.0
C1414 C 0.5204 0.14711 0.73443 0.0
C1415 C 0.4997 0.15089 0.76983 0.0
C1416 C 0.49799 0.15386 0.79517 0.0
C1417 C 0.50906 0.17065 0.80622 0.0
C1418 C 0.5075 0.17328 0.83012 0.0
C1419 C 0.49481 0.1593 0.84315 0.0
C1420 C 0.4836 0.14269 0.83229 0.0
C1421 C 0.48511 0.13998 0.80839 0.0
H1422 H 0.49362 0.16136 0.86165 0.0
H1423 H 0.508 0.14501 0.62874 0.0
H1424 H 0.66304 0.05577 0.82278 0.0
H1425 H 0.67282 0.0229 0.80218 0.0
H1426 H 0.68901 0.06014 0.74192 0.0
H1427 H 0.67954 0.09305 0.76231 0.0
H1428 H 0.65727 0.02871 0.73489 0.0
H1429 H 0.72779 0.03454 0.76692 0.0
H1430 H 0.7545 0.03912 0.79795 0.0
H1431 H 0.73192 0.98157 0.83074 0.0
H1432 H 0.70485 0.9768 0.80009 0.0
H1433 H 0.66847 0.93267 0.67272 0.0
H1434 H 0.67902 0.96775 0.68812 0.0
H1435 H 0.67808 0.94174 0.75718 0.0
H1436 H 0.66882 0.90661 0.74185 0.0
H1437 H 0.70759 0.97012 0.75564 0.0
H1438 H 0.63331 0.96812 0.73104 0.0
H1439 H 0.60373 0.96322 0.70321 0.0
H1440 H 0.62993 0.01302 0.66037 0.0
H1441 H 0.65981 0.01804 0.68786 0.0
C1442 C 0.66915 0.05702 0.80533 0.0
C1443 C 0.67025 0.07701 0.79411 0.0
C1444 C 0.67483 0.03824 0.79363 0.0
C1445 C 0.68161 0.03917 0.77055 0.0
C1446 C 0.68384 0.05915 0.75974 0.0
C1447 C 0.67839 0.07793 0.77146 0.0
C1448 C 0.68348 0.01925 0.75687 0.0
C1449 C 0.66862 0.01606 0.73903 0.0
C1450 C 0.69786 0.00262 0.76282 0.0
C1451 C 0.71418 0.0054 0.78126 0.0
C1452 C 0.72839 0.02295 0.78084 0.0
C1453 C 0.74363 0.02556 0.79835 0.0
C1454 C 0.74488 0.01067 0.81632 0.0
C1455 C 0.73093 0.9931 0.81681 0.0
C1456 C 0.71566 0.99042 0.79935 0.0
C1457 C 0.67092 0.9344 0.69113 0.0
C1458 C 0.66755 0.91699 0.7061 0.0
C1459 C 0.67686 0.95445 0.69993 0.0
C1460 C 0.6788 0.95754 0.72389 0.0
C1461 C 0.67666 0.93983 0.73866 0.0
C1462 C 0.67125 0.91973 0.72985 0.0
C1463 C 0.68103 0.97937 0.73392 0.0
C1464 C 0.69656 0.98292 0.75112 0.0
C1465 C 0.66687 0.99624 0.72783 0.0
C1466 C 0.64892 0.99326 0.71133 0.0
C1467 C 0.63283 0.97792 0.71561 0.0
C1468 C 0.616 0.97513 0.69991 0.0
C1469 C 0.61499 0.98775 0.67999 0.0
C1470 C 0.63077 0.00322 0.67577 0.0
C1471 C 0.64764 0.00605 0.6914 0.0
H1472 H 0.60195 0.98557 0.66786 0.0
H1473 H 0.75668 0.01272 0.82986 0.0
H1474 H 0.94126 0.65918 0.82437 0.0
H1475 H 0.97458 0.66869 0.80449 0.0
H1476 H 0.93825 0.68962 0.74527 0.0
H1477 H 0.9049 0.68031 0.76494 0.0
H1478 H 0.96783 0.65784 0.73558 0.0
H1479 H 0.96624 0.7257 0.77385 0.0
H1480 H 0.96331 0.75027 0.80704 0.0
H1481 H 0.01955 0.72212 0.8374 0.0
H1482 H 0.02265 0.69716 0.80454 0.0
H1483 H 0.06295 0.67088 0.67252 0.0
H1484 H 0.02892 0.68141 0.69034 0.0
H1485 H 0.05633 0.67115 0.75787 0.0
H1486 H 0.09054 0.66166 0.74025 0.0
H1487 H 0.0294 0.70281 0.76041 0.0
H1488 H 0.02727 0.63129 0.72814 0.0
H1489 H 0.03034 0.60422 0.69724 0.0
H1490 H 0.98115 0.63638 0.65849 0.0
H1491 H 0.97799 0.6638 0.68907 0.0
C1492 C 0.94032 0.66627 0.80733 0.0
C1493 C 0.92043 0.6687 0.79613 0.0
C1494 C 0.95937 0.6718 0.79605 0.0
C1495 C 0.95883 0.67983 0.77342 0.0
C1496 C 0.93897 0.68345 0.76274 0.0
C1497 C 0.91993 0.67808 0.77404 0.0
C1498 C 0.97887 0.68157 0.75986 0.0
C1499 C 0.98113 0.66807 0.74067 0.0
C1500 C 0.99636 0.69442 0.76699 0.0
C1501 C 0.99458 0.70944 0.78678 0.0
C1502 C 0.97788 0.72462 0.78769 0.0
C1503 C 0.97622 0.73865 0.80643 0.0
C1504 C 0.99121 0.73773 0.82434 0.0
C1505 C 0.00794 0.72281 0.82352 0.0
C1506 C 0.00968 0.70874 0.80481 0.0
C1507 C 0.06179 0.67124 0.69117 0.0
C1508 C 0.07931 0.66515 0.70498 0.0
C1509 C 0.04234 0.67721 0.70133 0.0
C1510 C 0.0399 0.67655 0.72544 0.0
C1511 C 0.05777 0.67172 0.73925 0.0
C1512 C 0.07732 0.6662 0.72913 0.0
C1513 C 0.01844 0.67884 0.73629 0.0
C1514 C 0.01594 0.69295 0.75503 0.0
C1515 C 0.00075 0.6662 0.72908 0.0
C1516 C 0.00259 0.64971 0.71073 0.0
C1517 C 0.01722 0.63265 0.71295 0.0
C1518 C 0.01896 0.61725 0.69551 0.0
C1519 C 0.006 0.61862 0.67588 0.0
C1520 C 0.99122 0.63537 0.67368 0.0
C1521 C 0.98944 0.65084 0.69106 0.0
H1522 H 0.00737 0.60668 0.6624 0.0
H1523 H 0.98989 0.74861 0.83883 0.0
H1524 H 0.32682 0.06141 0.6855 0.0
H1525 H 0.31661 0.02987 0.70814 0.0
H1526 H 0.31564 0.06834 0.76999 0.0
H1527 H 0.32562 0.09999 0.74754 0.0
H1528 H 0.34306 0.03275 0.77184 0.0
H1529 H 0.27017 0.04842 0.75274 0.0
H1530 H 0.23987 0.05711 0.727 0.0
H1531 H 0.24892 0.99767 0.69079 0.0
H1532 H 0.2795 0.98876 0.71609 0.0
H1533 H 0.32834 0.93826 0.83564 0.0
H1534 H 0.31987 0.97448 0.82205 0.0
H1535 H 0.30866 0.94965 0.75356 0.0
H1536 H 0.31606 0.91347 0.7672 0.0
H1537 H 0.28292 0.9816 0.7603 0.0
H1538 H 0.35896 0.96951 0.77176 0.0
H1539 H 0.39131 0.96023 0.79423 0.0
H1540 H 0.37863 0.01225 0.84089 0.0
H1541 H 0.34604 0.02167 0.81883 0.0
C1542 C 0.32402 0.06326 0.70384 0.0
C1543 C 0.32723 0.08316 0.71475 0.0
C1544 C 0.31807 0.04525 0.71672 0.0
C1545 C 0.31535 0.04684 0.7407 0.0
C1546 C 0.31761 0.06685 0.75148 0.0
C1547 C 0.32331 0.0849 0.73859 0.0
C1548 C 0.31287 0.0272 0.75475 0.0
C1549 C 0.32964 0.02179 0.76978 0.0
C1550 C 0.29566 0.01272 0.75147 0.0
C1551 C 0.27724 0.01799 0.73624 0.0
C1552 C 0.26582 0.03728 0.73917 0.0
C1553 C 0.24857 0.04223 0.72468 0.0
C1554 C 0.2425 0.02797 0.70725 0.0
C1555 C 0.25365 0.0087 0.7043 0.0
C1556 C 0.27092 0.00368 0.71873 0.0
C1557 C 0.32364 0.9405 0.8178 0.0
C1558 C 0.32319 0.92307 0.80241 0.0
C1559 C 0.31887 0.9612 0.81004 0.0
C1560 C 0.31417 0.96487 0.78664 0.0
C1561 C 0.31231 0.94727 0.77166 0.0
C1562 C 0.31665 0.92656 0.77949 0.0
C1563 C 0.31336 0.98695 0.77708 0.0
C1564 C 0.29607 0.99279 0.76281 0.0
C1565 C 0.33036 0.00172 0.7806 0.0
C1566 C 0.34995 0.99611 0.79384 0.0
C1567 C 0.36301 0.97887 0.78691 0.0
C1568 C 0.38138 0.9736 0.79955 0.0
C1569 C 0.38698 0.9856 0.81902 0.0
C1570 C 0.37424 0.00294 0.82585 0.0
C1571 C 0.35582 0.00825 0.81328 0.0
H1572 H 0.40121 0.9815 0.82879 0.0
H1573 H 0.22913 0.03183 0.69605 0.0
H1574 H 0.09309 0.30489 0.77605 0.0
H1575 H 0.06115 0.29757 0.75277 0.0
H1576 H 0.02335 0.33738 0.79806 0.0
H1577 H 0.0551 0.34474 0.82152 0.0
H1578 H 0.01729 0.2829 0.75988 0.0
H1579 H -0.00024 0.37406 0.76207 0.0
H1580 H 0.01958 0.40801 0.76753 0.0
H1581 H 0.0772 0.37836 0.74224 0.0
H1582 H 0.05764 0.34441 0.73622 0.0
H1583 H 0.912 0.31054 0.72658 0.0
H1584 H 0.94705 0.30265 0.74293 0.0
H1585 H 0.97764 0.33503 0.68587 0.0
H1586 H 0.94242 0.34359 0.66964 0.0
H1587 H 0.99165 0.35065 0.72419 0.0
H1588 H 0.9839 0.28001 0.69529 0.0
H1589 H 0.96613 0.24542 0.68734 0.0
H1590 H 0.96229 0.2325 0.76 0.0
H1591 H 0.97976 0.26715 0.76843 0.0
C1592 C 0.07786 0.31162 0.78144 0.0
C1593 C 0.07668 0.32569 0.80041 0.0
C1594 C 0.05963 0.30733 0.76816 0.0
C1595 C 0.04008 0.31721 0.77355 0.0
C1596 C 0.03843 0.32975 0.79358 0.0
C1597 C 0.05658 0.33391 0.80699 0.0
C1598 C 0.02225 0.31695 0.75676 0.0
C1599 C 0.01159 0.29763 0.752 0.0
C1600 C 0.01551 0.33609 0.74586 0.0
C1601 C 0.02727 0.35663 0.74894 0.0
C1602 C 0.01663 0.37483 0.75757 0.0
C1603 C 0.02782 0.39408 0.76076 0.0
C1604 C 0.04965 0.39533 0.7553 0.0
C1605 C 0.06031 0.37737 0.74653 0.0
C1606 C 0.04918 0.35812 0.74325 0.0
C1607 C 0.92615 0.31563 0.71719 0.0
C1608 C 0.92439 0.32797 0.69694 0.0
C1609 C 0.94625 0.31093 0.72651 0.0
C1610 C 0.96502 0.31819 0.71562 0.0
C1611 C 0.96336 0.32932 0.69461 0.0
C1612 C 0.94321 0.33417 0.68533 0.0
C1613 C 0.98593 0.31665 0.72775 0.0
C1614 C 0.9973 0.33575 0.73173 0.0
C1615 C 0.99353 0.29719 0.73744 0.0
C1616 C 0.98304 0.27628 0.73249 0.0
C1617 C 0.97913 0.26988 0.70959 0.0
C1618 C 0.96913 0.25024 0.70499 0.0
C1619 C 0.96306 0.23679 0.72315 0.0
C1620 C 0.967 0.24293 0.74595 0.0
C1621 C 0.97699 0.26256 0.75064 0.0
H1622 H 0.95532 0.22159 0.71956 0.0
H1623 H 0.05829 0.41023 0.75781 0.0
H1624 H 0.36028 0.06704 0.32775 0.0
H1625 H 0.35604 0.03183 0.30954 0.0
H1626 H 0.36077 0.06133 0.2423 0.0
H1627 H 0.36386 0.09652 0.26035 0.0
H1628 H 0.33189 0.03266 0.24017 0.0
H1629 H 0.40392 0.03348 0.26971 0.0
H1630 H 0.43223 0.0374 0.29919 0.0
H1631 H 0.40457 0.9858 0.33833 0.0
H1632 H 0.37593 0.98175 0.30922 0.0
H1633 H 0.36396 0.93829 0.17722 0.0
H1634 H 0.36254 0.97361 0.19582 0.0
H1635 H 0.3431 0.94389 0.2597 0.0
H1636 H 0.34427 0.90868 0.24136 0.0
H1637 H 0.37844 0.97194 0.26385 0.0
H1638 H 0.30723 0.9708 0.23108 0.0
H1639 H 0.28089 0.96709 0.19955 0.0
H1640 H 0.31006 0.01993 0.16372 0.0
H1641 H 0.33678 0.02376 0.1949 0.0
C1642 C 0.36034 0.06596 0.30909 0.0
C1643 C 0.36246 0.0845 0.29548 0.0
C1644 C 0.35803 0.04584 0.29868 0.0
C1645 C 0.35846 0.04383 0.2745 0.0
C1646 C 0.36035 0.06241 0.26095 0.0
C1647 C 0.36217 0.08253 0.27131 0.0
C1648 C 0.35714 0.02246 0.2632 0.0
C1649 C 0.34227 0.01949 0.24521 0.0
C1650 C 0.37043 0.00509 0.26991 0.0
C1651 C 0.38766 0.00747 0.28741 0.0
C1652 C 0.40379 0.02307 0.28469 0.0
C1653 C 0.41991 0.0253 0.30132 0.0
C1654 C 0.42016 0.0119 0.32065 0.0
C1655 C 0.40433 0.99619 0.32337 0.0
C1656 C 0.38816 0.99391 0.3068 0.0
C1657 C 0.35915 0.9393 0.19515 0.0
C1658 C 0.35429 0.92066 0.20781 0.0
C1659 C 0.35831 0.95948 0.20572 0.0
C1660 C 0.35272 0.96128 0.22911 0.0
C1661 C 0.34748 0.94278 0.24164 0.0
C1662 C 0.34809 0.92268 0.23107 0.0
C1663 C 0.35333 0.98233 0.2409 0.0
C1664 C 0.36808 0.98518 0.25893 0.0
C1665 C 0.34024 -0.00034 0.23393 0.0
C1666 C 0.32413 0.99743 0.21522 0.0
C1667 C 0.30814 0.98151 0.21638 0.0
C1668 C 0.29312 0.97941 0.19859 0.0
C1669 C 0.29383 0.99323 0.17961 0.0
C1670 C 0.30954 0.00922 0.17842 0.0
C1671 C 0.32461 0.01137 0.19616 0.0
H1672 H 0.28219 0.99158 0.16586 0.0
H1673 H 0.43265 0.01365 0.33351 0.0
H1674 H 0.89647 0.35502 0.25269 0.0
H1675 H 0.93157 0.35063 0.23471 0.0
H1676 H 0.96085 0.3453 0.30201 0.0
H1677 H 0.92579 0.35074 0.32013 0.0
H1678 H 0.9839 0.37002 0.27722 0.0
H1679 H 0.95291 0.30085 0.26412 0.0
H1680 H 0.92554 0.27489 0.25119 0.0
H1681 H 0.93191 0.29763 0.18157 0.0
H1682 H 0.95913 0.32394 0.19413 0.0
H1683 H 0.08363 0.33 0.2396 0.0
H1684 H 0.04719 0.32905 0.25495 0.0
H1685 H 0.02283 0.35449 0.19092 0.0
H1686 H 0.05944 0.35582 0.17534 0.0
H1687 H 0.99769 0.31883 0.21328 0.0
H1688 H 0.0288 0.38875 0.22846 0.0
H1689 H 0.05727 0.41292 0.24264 0.0
H1690 H 0.05141 0.38591 0.31053 0.0
H1691 H 0.02313 0.36133 0.29665 0.0
C1692 C 0.91037 0.35277 0.26367 0.0
C1693 C 0.90839 0.35317 0.28783 0.0
C1694 C 0.93043 0.35012 0.25335 0.0
C1695 C 0.94886 0.34724 0.26696 0.0
C1696 C 0.94687 0.34746 0.29113 0.0
C1697 C 0.92684 0.35054 0.30147 0.0
C1698 C 0.9703 0.34498 0.25603 0.0
C1699 C 0.98691 0.35856 0.26349 0.0
C1700 C 0.97424 0.33036 0.23775 0.0
C1701 C 0.95793 0.3145 0.23011 0.0
C1702 C 0.94837 0.30043 0.24608 0.0
C1703 C 0.93289 0.28563 0.23881 0.0
C1704 C 0.92695 0.28465 0.21558 0.0
C1705 C 0.93651 0.29842 0.19956 0.0
C1706 C 0.95198 0.31326 0.20674 0.0
C1707 C 0.07055 0.33511 0.22858 0.0
C1708 C 0.07447 0.34318 0.20629 0.0
C1709 C 0.04974 0.33455 0.23742 0.0
C1710 C 0.03246 0.34186 0.2241 0.0
C1711 C 0.03606 0.3488 0.20141 0.0
C1712 C 0.05696 0.34961 0.19259 0.0
C1713 C 0.01097 0.34374 0.23464 0.0
C1714 C 0.99448 0.33017 0.22706 0.0
C1715 C 0.00717 0.35812 0.25304 0.0
C1716 C 0.02401 0.37306 0.26146 0.0
C1717 C 0.03371 0.38784 0.24637 0.0
C1718 C 0.04979 0.40164 0.25436 0.0
C1719 C 0.05619 0.40091 0.27746 0.0
C1720 C 0.04646 0.38643 0.29263 0.0
C1721 C 0.0304 0.37257 0.28472 0.0
H1722 H 0.06864 0.41161 0.28361 0.0
H1723 H 0.91496 0.27318 0.20999 0.0
H1724 H 0.67031 0.91467 0.28998 0.0
H1725 H 0.67138 0.94854 0.26855 0.0
H1726 H 0.60523 0.96049 0.2863 0.0
H1727 H 0.60415 0.92686 0.30829 0.0
H1728 H 0.61789 0.96134 0.23585 0.0
H1729 H 0.63624 0.99048 0.31079 0.0
H1730 H 0.65743 0.99225 0.34669 0.0
H1731 H 0.71483 0.00336 0.30739 0.0
H1732 H 0.69401 0.00134 0.27122 0.0
H1733 H 0.60554 0.06697 0.19192 0.0
H1734 H 0.60551 0.03256 0.21202 0.0
H1735 H 0.67472 0.03481 0.21659 0.0
H1736 H 0.6746 0.06991 0.19775 0.0
H1737 H 0.66072 0.02583 0.2559 0.0
H1738 H 0.64498 0.99734 0.18145 0.0
H1739 H 0.62618 0.99376 0.14419 0.0
H1740 H 0.56744 0.97899 0.1796 0.0
H1741 H 0.58581 0.98278 0.21709 0.0
C1742 C 0.65612 0.92472 0.28969 0.0
C1743 C 0.63716 0.91819 0.30082 0.0
C1744 C 0.65675 0.944 0.27743 0.0
C1745 C 0.63835 0.95684 0.27581 0.0
C1746 C 0.61956 0.95069 0.28739 0.0
C1747 C 0.61903 0.93161 0.30007 0.0
C1748 C 0.63849 0.97613 0.26105 0.0
C1749 C 0.62698 0.97562 0.24027 0.0
C1750 C 0.65109 0.99425 0.26655 0.0
C1751 C 0.6636 0.99553 0.28829 0.0
C1752 C 0.65341 0.99309 0.30979 0.0
C1753 C 0.66535 0.99419 0.33019 0.0
C1754 C 0.68747 0.99785 0.32932 0.0
C1755 C 0.6977 0.00049 0.30804 0.0
C1756 C 0.68583 -0.00061 0.28759 0.0
C1757 C 0.62076 0.05985 0.19672 0.0
C1758 C 0.64007 0.07105 0.19332 0.0
C1759 C 0.62076 0.04012 0.20818 0.0
C1760 C 0.64014 0.03092 0.21577 0.0
C1761 C 0.65954 0.04159 0.21109 0.0
C1762 C 0.65949 0.06157 0.20018 0.0
C1763 C 0.64007 0.01127 0.23035 0.0
C1764 C 0.65163 0.01163 0.25121 0.0
C1765 C 0.62787 0.99281 0.22462 0.0
C1766 C 0.61674 0.99055 0.2021 0.0
C1767 C 0.62801 0.9935 0.1813 0.0
C1768 C 0.61744 0.9914 0.16014 0.0
C1769 C 0.59562 0.98621 0.15953 0.0
C1770 C 0.58433 0.98304 0.18009 0.0
C1771 C 0.59483 0.98514 0.20131 0.0
H1772 H 0.58746 0.98458 0.14313 0.0
H1773 H 0.69669 -0.0013 0.34513 0.0
H1774 H 0.06488 0.64421 0.32963 0.0
H1775 H 0.02844 0.64849 0.31445 0.0
H1776 H 0.05408 0.65587 0.24569 0.0
H1777 H 0.09039 0.6526 0.26084 0.0
H1778 H 0.02252 0.68188 0.25029 0.0
H1779 H 0.03304 0.60689 0.26708 0.0
H1780 H 0.0416 0.57556 0.29143 0.0
H1781 H 0.98934 0.59127 0.33671 0.0
H1782 H 0.98063 0.62286 0.31276 0.0
H1783 H 0.93382 0.64456 0.18262 0.0
H1784 H 0.96841 0.64893 0.2022 0.0
H1785 H 0.93582 0.6558 0.26743 0.0
H1786 H 0.9012 0.6517 0.24807 0.0
H1787 H 0.96919 0.62479 0.26708 0.0
H1788 H 0.95714 0.69838 0.24587 0.0
H1789 H 0.94891 0.72798 0.21905 0.0
H1790 H 0.0048 0.71259 0.17895 0.0
H1791 H 0.0132 0.68268 0.20536 0.0
C1792 C 0.06272 0.64694 0.31132 0.0
C1793 C 0.08049 0.64794 0.29642 0.0
C1794 C 0.04189 0.64929 0.30264 0.0
C1795 C 0.03847 0.65209 0.27884 0.0
C1796 C 0.05627 0.65373 0.2641 0.0
C1797 C 0.07705 0.65179 0.2728 0.0
C1798 C 0.01646 0.65257 0.269 0.0
C1799 C 0.01094 0.66929 0.25385 0.0
C1800 C 0.00116 0.63635 0.27389 0.0
C1801 C 0.00635 0.61736 0.28829 0.0
C1802 C 0.02348 0.60374 0.28233 0.0
C1803 C 0.02834 0.58593 0.29604 0.0
C1804 C 0.01606 0.58147 0.31565 0.0
C1805 C -0.00114 0.59478 0.32155 0.0
C1806 C 0.99395 0.61263 0.30791 0.0
C1807 C 0.934 0.6472 0.2011 0.0
C1808 C 0.91477 0.64775 0.2138 0.0
C1809 C 0.95375 0.64976 0.21222 0.0
C1810 C 0.95459 0.65274 0.23621 0.0
C1811 C 0.93545 0.65354 0.24889 0.0
C1812 C 0.91571 0.65126 0.23777 0.0
C1813 C 0.97549 0.65389 0.24823 0.0
C1814 C 0.98075 0.63746 0.26375 0.0
C1815 C 0.99066 0.67013 0.24334 0.0
C1816 C 0.98569 0.68816 0.22749 0.0
C1817 C 0.96758 0.70118 0.23122 0.0
C1818 C 0.9629 0.71804 0.21612 0.0
C1819 C 0.9763 0.72213 0.19728 0.0
C1820 C 0.99443 0.70939 0.19354 0.0
C1821 C -0.00083 0.6925 0.20859 0.0
H1822 H 0.97265 0.73519 0.1856 0.0
H1823 H 0.01985 0.56767 0.32624 0.0
loop_
_geom_bond_atom_site_label_1
_geom_bond_atom_site_label_2
_geom_bond_distance
_geom_bond_site_symmetry_2
_ccdc_geom_bond_type
O0 Cd1 2.223 . S
O0 C8 1.315 . S
Cd1 O0 2.223 . S
Cd1 O4 2.297 . S
Cd1 O5 2.439 . S
Cd1 O11 2.240 . S
Cd2 O3 2.240 . S
Cd2 O10 2.223 . S
Cd2 O12 2.297 . S
Cd2 O13 2.439 . S
O3 Cd2 2.240 . S
O3 C8 1.279 . S
O4 Cd1 2.297 . S
O4 C6 1.247 . S
O5 Cd1 2.439 . S
O5 C6 1.208 . S
C6 O4 1.247 . S
C6 O5 1.208 . S
C7 O12 1.247 . S
C7 O13 1.208 . S
C8 O0 1.315 . S
C8 O3 1.279 . S
C9 O10 1.315 . S
C9 O11 1.279 . S
O10 Cd2 2.223 . S
O10 C9 1.315 . S
O11 Cd1 2.240 . S
O11 C9 1.279 . S
O12 Cd2 2.297 . S
O12 C7 1.247 . S
O13 Cd2 2.439 . S
O13 C7 1.208 . S
O14 Cd15 2.223 . S
O14 C22 1.315 . S
Cd15 O14 2.223 . S
Cd15 O18 2.297 . S
Cd15 O19 2.439 . S
Cd15 O25 2.240 . S
Cd16 O17 2.240 . S
Cd16 O24 2.223 . S
Cd16 O26 2.297 . S
Cd16 O27 2.439 . S
O17 Cd16 2.240 . S
O17 C22 1.279 . S
O18 Cd15 2.297 . S
O18 C20 1.247 . S
O19 Cd15 2.439 . S
O19 C20 1.208 . S
C20 O18 1.247 . S
C20 O19 1.208 . S
C21 O26 1.247 . S
C21 O27 1.208 . S
C22 O14 1.315 . S
C22 O17 1.279 . S
C23 O24 1.315 . S
C23 O25 1.279 . S
O24 Cd16 2.223 . S
O24 C23 1.315 . S
O25 Cd15 2.240 . S
O25 C23 1.279 . S
O26 Cd16 2.297 . S
O26 C21 1.247 . S
O27 Cd16 2.439 . S
O27 C21 1.208 . S
O28 Cd29 2.223 . S
O28 C36 1.315 . S
Cd29 O28 2.223 . S
Cd29 O32 2.297 . S
Cd29 O33 2.439 . S
Cd29 O39 2.240 . S
Cd30 O31 2.240 . S
Cd30 O38 2.223 . S
Cd30 O40 2.297 . S
Cd30 O41 2.439 . S
O31 Cd30 2.240 . S
O31 C36 1.279 . S
O32 Cd29 2.297 . S
O32 C34 1.247 . S
O33 Cd29 2.439 . S
O33 C34 1.208 . S
C34 O32 1.247 . S
C34 O33 1.208 . S
C35 O40 1.247 . S
C35 O41 1.208 . S
C36 O28 1.315 . S
C36 O31 1.279 . S
C37 O38 1.315 . S
C37 O39 1.279 . S
O38 Cd30 2.223 . S
O38 C37 1.315 . S
O39 Cd29 2.240 . S
O39 C37 1.279 . S
O40 Cd30 2.297 . S
O40 C35 1.247 . S
O41 Cd30 2.439 . S
O41 C35 1.208 . S
O42 Cd43 2.223 . S
O42 C50 1.315 . S
Cd43 O42 2.223 . S
Cd43 O46 2.297 . S
Cd43 O47 2.439 . S
Cd43 O53 2.240 . S
Cd44 O45 2.240 . S
Cd44 O52 2.223 . S
Cd44 O54 2.297 . S
Cd44 O55 2.439 . S
O45 Cd44 2.240 . S
O45 C50 1.279 . S
O46 Cd43 2.297 . S
O46 C48 1.247 . S
O47 Cd43 2.439 . S
O47 C48 1.208 . S
C48 O46 1.247 . S
C48 O47 1.208 . S
C49 O54 1.247 . S
C49 O55 1.208 . S
C50 O42 1.315 . S
C50 O45 1.279 . S
C51 O52 1.315 . S
C51 O53 1.279 . S
O52 Cd44 2.223 . S
O52 C51 1.315 . S
O53 Cd43 2.240 . S
O53 C51 1.279 . S
O54 Cd44 2.297 . S
O54 C49 1.247 . S
O55 Cd44 2.439 . S
O55 C49 1.208 . S
O56 Cd57 2.223 . S
O56 C64 1.315 . S
Cd57 O56 2.223 . S
Cd57 O60 2.297 . S
Cd57 O61 2.439 . S
Cd57 O67 2.240 . S
Cd58 O59 2.240 . S
Cd58 O66 2.223 . S
Cd58 O68 2.297 . S
Cd58 O69 2.439 . S
O59 Cd58 2.240 . S
O59 C64 1.279 . S
O60 Cd57 2.297 . S
O60 C62 1.247 . S
O61 Cd57 2.439 . S
O61 C62 1.208 . S
C62 O60 1.247 . S
C62 O61 1.208 . S
C63 O68 1.247 . S
C63 O69 1.208 . S
C64 O56 1.315 . S
C64 O59 1.279 . S
C65 O66 1.315 . S
C65 O67 1.279 . S
O66 Cd58 2.223 . S
O66 C65 1.315 . S
O67 Cd57 2.240 . S
O67 C65 1.279 . S
O68 Cd58 2.297 . S
O68 C63 1.247 . S
O69 Cd58 2.439 . S
O69 C63 1.208 . S
O70 Cd71 2.223 . S
O70 C78 1.315 . S
Cd71 O70 2.223 . S
Cd71 O74 2.297 . S
Cd71 O75 2.439 . S
Cd71 O81 2.240 . S
Cd72 O73 2.240 . S
Cd72 O80 2.223 . S
Cd72 O82 2.297 . S
Cd72 O83 2.439 . S
O73 Cd72 2.240 . S
O73 C78 1.279 . S
O74 Cd71 2.297 . S
O74 C76 1.247 . S
O75 Cd71 2.439 . S
O75 C76 1.208 . S
C76 O74 1.247 . S
C76 O75 1.208 . S
C77 O82 1.247 . S
C77 O83 1.208 . S
C78 O70 1.315 . S
C78 O73 1.279 . S
C79 O80 1.315 . S
C79 O81 1.279 . S
O80 Cd72 2.223 . S
O80 C79 1.315 . S
O81 Cd71 2.240 . S
O81 C79 1.279 . S
O82 Cd72 2.297 . S
O82 C77 1.247 . S
O83 Cd72 2.439 . S
O83 C77 1.208 . S
O84 Cd85 2.223 . S
O84 C92 1.315 . S
Cd85 O84 2.223 . S
Cd85 O88 2.297 . S
Cd85 O89 2.439 . S
Cd85 O95 2.240 . S
Cd86 O87 2.240 . S
Cd86 O94 2.223 . S
Cd86 O96 2.297 . S
Cd86 O97 2.439 . S
O87 Cd86 2.240 . S
O87 C92 1.279 . S
O88 Cd85 2.297 . S
O88 C90 1.247 . S
O89 Cd85 2.439 . S
O89 C90 1.208 . S
C90 O88 1.247 . S
C90 O89 1.208 . S
C91 O96 1.247 . S
C91 O97 1.208 . S
C92 O84 1.315 . S
C92 O87 1.279 . S
C93 O94 1.315 . S
C93 O95 1.279 . S
O94 Cd86 2.223 . S
O94 C93 1.315 . S
O95 Cd85 2.240 . S
O95 C93 1.279 . S
O96 Cd86 2.297 . S
O96 C91 1.247 . S
O97 Cd86 2.439 . S
O97 C91 1.208 . S
O98 Cd99 2.223 . S
O98 C106 1.315 . S
Cd99 O98 2.223 . S
Cd99 O102 2.297 . S
Cd99 O103 2.439 . S
Cd99 O109 2.240 . S
Cd100 O101 2.240 . S
Cd100 O108 2.223 . S
Cd100 O110 2.297 . S
Cd100 O111 2.439 . S
O101 Cd100 2.240 . S
O101 C106 1.279 . S
O102 Cd99 2.297 . S
O102 C104 1.247 . S
O103 Cd99 2.439 . S
O103 C104 1.208 . S
C104 O102 1.247 . S
C104 O103 1.208 . S
C105 O110 1.247 . S
C105 O111 1.208 . S
C106 O98 1.315 . S
C106 O101 1.279 . S
C107 O108 1.315 . S
C107 O109 1.279 . S
O108 Cd100 2.223 . S
O108 C107 1.315 . S
O109 Cd99 2.240 . S
O109 C107 1.279 . S
O110 Cd100 2.297 . S
O110 C105 1.247 . S
O111 Cd100 2.439 . S
O111 C105 1.208 . S
O112 Cd113 2.223 . S
O112 C120 1.315 . S
Cd113 O112 2.223 . S
Cd113 O116 2.297 . S
Cd113 O117 2.439 . S
Cd113 O123 2.240 . S
Cd114 O115 2.240 . S
Cd114 O122 2.223 . S
Cd114 O124 2.297 . S
Cd114 O125 2.439 . S
O115 Cd114 2.240 . S
O115 C120 1.279 . S
O116 Cd113 2.297 . S
O116 C118 1.247 . S
O117 Cd113 2.439 . S
O117 C118 1.208 . S
C118 O116 1.247 . S
C118 O117 1.208 . S
C119 O124 1.247 . S
C119 O125 1.208 . S
C120 O112 1.315 . S
C120 O115 1.279 . S
C121 O122 1.315 . S
C121 O123 1.279 . S
O122 Cd114 2.223 . S
O122 C121 1.315 . S
O123 Cd113 2.240 . S
O123 C121 1.279 . S
O124 Cd114 2.297 . S
O124 C119 1.247 . S
O125 Cd114 2.439 . S
O125 C119 1.208 . S
O126 Cd127 2.223 . S
O126 C134 1.315 . S
Cd127 O126 2.223 . S
Cd127 O130 2.297 . S
Cd127 O131 2.439 . S
Cd127 O137 2.240 . S
Cd128 O129 2.240 . S
Cd128 O136 2.223 . S
Cd128 O138 2.297 . S
Cd128 O139 2.439 . S
O129 Cd128 2.240 . S
O129 C134 1.279 . S
O130 Cd127 2.297 . S
O130 C132 1.247 . S
O131 Cd127 2.439 . S
O131 C132 1.208 . S
C132 O130 1.247 . S
C132 O131 1.208 . S
C133 O138 1.247 . S
C133 O139 1.208 . S
C134 O126 1.315 . S
C134 O129 1.279 . S
C135 O136 1.315 . S
C135 O137 1.279 . S
O136 Cd128 2.223 . S
O136 C135 1.315 . S
O137 Cd127 2.240 . S
O137 C135 1.279 . S
O138 Cd128 2.297 . S
O138 C133 1.247 . S
O139 Cd128 2.439 . S
O139 C133 1.208 . S
O140 Cd141 2.223 . S
O140 C148 1.315 . S
Cd141 O140 2.223 . S
Cd141 O144 2.297 . S
Cd141 O145 2.439 . S
Cd141 O151 2.240 . S
Cd142 O143 2.240 . S
Cd142 O150 2.223 . S
Cd142 O152 2.297 . S
Cd142 O153 2.439 . S
O143 Cd142 2.240 . S
O143 C148 1.279 . S
O144 Cd141 2.297 . S
O144 C146 1.247 . S
O145 Cd141 2.439 . S
O145 C146 1.208 . S
C146 O144 1.247 . S
C146 O145 1.208 . S
C147 O152 1.247 . S
C147 O153 1.208 . S
C148 O140 1.315 . S
C148 O143 1.279 . S
C149 O150 1.315 . S
C149 O151 1.279 . S
O150 Cd142 2.223 . S
O150 C149 1.315 . S
O151 Cd141 2.240 . S
O151 C149 1.279 . S
O152 Cd142 2.297 . S
O152 C147 1.247 . S
O153 Cd142 2.439 . S
O153 C147 1.208 . S
O154 Cd155 2.223 . S
O154 C162 1.315 . S
Cd155 O154 2.223 . S
Cd155 O158 2.297 . S
Cd155 O159 2.439 . S
Cd155 O165 2.240 . S
Cd156 O157 2.240 . S
Cd156 O164 2.223 . S
Cd156 O166 2.297 . S
Cd156 O167 2.439 . S
O157 Cd156 2.240 . S
O157 C162 1.279 . S
O158 Cd155 2.297 . S
O158 C160 1.247 . S
O159 Cd155 2.439 . S
O159 C160 1.208 . S
C160 O158 1.247 . S
C160 O159 1.208 . S
C161 O166 1.247 . S
C161 O167 1.208 . S
C162 O154 1.315 . S
C162 O157 1.279 . S
C163 O164 1.315 . S
C163 O165 1.279 . S
O164 Cd156 2.223 . S
O164 C163 1.315 . S
O165 Cd155 2.240 . S
O165 C163 1.279 . S
O166 Cd156 2.297 . S
O166 C161 1.247 . S
O167 Cd156 2.439 . S
O167 C161 1.208 . S
O168 Cd169 2.223 . S
O168 C176 1.315 . S
Cd169 O168 2.223 . S
Cd169 O172 2.297 . S
Cd169 O173 2.439 . S
Cd169 O179 2.240 . S
Cd170 O171 2.240 . S
Cd170 O178 2.223 . S
Cd170 O180 2.297 . S
Cd170 O181 2.439 . S
O171 Cd170 2.240 . S
O171 C176 1.279 . S
O172 Cd169 2.297 . S
O172 C174 1.247 . S
O173 Cd169 2.439 . S
O173 C174 1.208 . S
C174 O172 1.247 . S
C174 O173 1.208 . S
C175 O180 1.247 . S
C175 O181 1.208 . S
C176 O168 1.315 . S
C176 O171 1.279 . S
C177 O178 1.315 . S
C177 O179 1.279 . S
O178 Cd170 2.223 . S
O178 C177 1.315 . S
O179 Cd169 2.240 . S
O179 C177 1.279 . S
O180 Cd170 2.297 . S
O180 C175 1.247 . S
O181 Cd170 2.439 . S
O181 C175 1.208 . S
O182 Cd183 2.223 . S
O182 C190 1.315 . S
Cd183 O182 2.223 . S
Cd183 O186 2.297 . S
Cd183 O187 2.439 . S
Cd183 O193 2.240 . S
Cd184 O185 2.240 . S
Cd184 O192 2.223 . S
Cd184 O194 2.297 . S
Cd184 O195 2.439 . S
O185 Cd184 2.240 . S
O185 C190 1.279 . S
O186 Cd183 2.297 . S
O186 C188 1.247 . S
O187 Cd183 2.439 . S
O187 C188 1.208 . S
C188 O186 1.247 . S
C188 O187 1.208 . S
C189 O194 1.247 . S
C189 O195 1.208 . S
C190 O182 1.315 . S
C190 O185 1.279 . S
C191 O192 1.315 . S
C191 O193 1.279 . S
O192 Cd184 2.223 . S
O192 C191 1.315 . S
O193 Cd183 2.240 . S
O193 C191 1.279 . S
O194 Cd184 2.297 . S
O194 C189 1.247 . S
O195 Cd184 2.439 . S
O195 C189 1.208 . S
O196 Cd197 2.223 . S
O196 C204 1.315 . S
Cd197 O196 2.223 . S
Cd197 O200 2.297 . S
Cd197 O201 2.439 . S
Cd197 O207 2.240 . S
Cd198 O199 2.240 . S
Cd198 O206 2.223 . S
Cd198 O208 2.297 . S
Cd198 O209 2.439 . S
O199 Cd198 2.240 . S
O199 C204 1.279 . S
O200 Cd197 2.297 . S
O200 C202 1.247 . S
O201 Cd197 2.439 . S
O201 C202 1.208 . S
C202 O200 1.247 . S
C202 O201 1.208 . S
C203 O208 1.247 . S
C203 O209 1.208 . S
C204 O196 1.315 . S
C204 O199 1.279 . S
C205 O206 1.315 . S
C205 O207 1.279 . S
O206 Cd198 2.223 . S
O206 C205 1.315 . S
O207 Cd197 2.240 . S
O207 C205 1.279 . S
O208 Cd198 2.297 . S
O208 C203 1.247 . S
O209 Cd198 2.439 . S
O209 C203 1.208 . S
O210 Cd211 2.223 . S
O210 C218 1.315 . S
Cd211 O210 2.223 . S
Cd211 O214 2.297 . S
Cd211 O215 2.439 . S
Cd211 O221 2.240 . S
Cd212 O213 2.240 . S
Cd212 O220 2.223 . S
Cd212 O222 2.297 . S
Cd212 O223 2.439 . S
O213 Cd212 2.240 . S
O213 C218 1.279 . S
O214 Cd211 2.297 . S
O214 C216 1.247 . S
O215 Cd211 2.439 . S
O215 C216 1.208 . S
C216 O214 1.247 . S
C216 O215 1.208 . S
C217 O222 1.247 . S
C217 O223 1.208 . S
C218 O210 1.315 . S
C218 O213 1.279 . S
C219 O220 1.315 . S
C219 O221 1.279 . S
O220 Cd212 2.223 . S
O220 C219 1.315 . S
O221 Cd211 2.240 . S
O221 C219 1.279 . S
O222 Cd212 2.297 . S
O222 C217 1.247 . S
O223 Cd212 2.439 . S
O223 C217 1.208 . S
H224 C242 0.951 . S
H225 C244 0.951 . S
H226 C246 0.950 . S
H227 C247 0.950 . S
H228 C249 0.950 . S
H229 C252 0.950 . S
H230 C253 0.950 . S
H231 C255 0.950 . S
H232 C256 0.950 . S
H233 C257 0.951 . S
H234 C259 0.951 . S
H235 C261 0.950 . S
H236 C262 0.950 . S
H237 C264 0.950 . S
H238 C267 0.950 . S
H239 C268 0.950 . S
H240 C270 0.950 . S
H241 C271 0.950 . S
C242 H224 0.951 . S
C242 C243 1.366 . S
C242 C244 1.388 . S
C243 C242 1.366 . S
C243 C247 1.385 . S
C244 H225 0.951 . S
C244 C242 1.388 . S
C244 C245 1.366 . S
C245 C244 1.366 . S
C245 C246 1.414 . S
C245 C248 1.499 . S
C246 H226 0.950 . S
C246 C245 1.414 . S
C246 C247 1.374 . S
C247 H227 0.950 . S
C247 C243 1.385 . S
C247 C246 1.374 . S
C248 C245 1.499 . S
C248 C249 1.373 . S
C248 C250 1.389 . S
C249 H228 0.950 . S
C249 C248 1.373 . S
C249 C265 1.377 . S
C250 C248 1.389 . S
C250 C251 1.524 . S
C250 C264 1.377 . S
C251 C250 1.524 . S
C251 C252 1.397 . S
C251 C256 1.363 . S
C252 H229 0.950 . S
C252 C251 1.397 . S
C252 C253 1.334 . S
C253 H230 0.950 . S
C253 C252 1.334 . S
C253 C254 1.287 . S
C254 C253 1.287 . S
C254 C255 1.524 . S
C254 H273 0.913 . S
C255 H231 0.950 . S
C255 C254 1.524 . S
C255 C256 1.415 . S
C256 H232 0.950 . S
C256 C251 1.363 . S
C256 C255 1.415 . S
C257 H233 0.951 . S
C257 C258 1.366 . S
C257 C259 1.388 . S
C258 C257 1.366 . S
C258 C262 1.385 . S
C259 H234 0.951 . S
C259 C257 1.388 . S
C259 C260 1.366 . S
C260 C259 1.366 . S
C260 C261 1.414 . S
C260 C263 1.499 . S
C261 H235 0.950 . S
C261 C260 1.414 . S
C261 C262 1.374 . S
C262 H236 0.950 . S
C262 C258 1.385 . S
C262 C261 1.374 . S
C263 C260 1.499 . S
C263 C264 1.373 . S
C263 C265 1.389 . S
C264 H237 0.950 . S
C264 C250 1.377 . S
C264 C263 1.373 . S
C265 C249 1.377 . S
C265 C263 1.389 . S
C265 C266 1.524 . S
C266 C265 1.524 . S
C266 C267 1.397 . S
C266 C271 1.363 . S
C267 H238 0.950 . S
C267 C266 1.397 . S
C267 C268 1.334 . S
C268 H239 0.950 . S
C268 C267 1.334 . S
C268 C269 1.287 . S
C269 C268 1.287 . S
C269 C270 1.524 . S
C269 H272 0.999 . S
C270 H240 0.950 . S
C270 C269 1.524 . S
C270 C271 1.415 . S
C271 H241 0.950 . S
C271 C266 1.363 . S
C271 C270 1.415 . S
H272 C269 0.999 . S
H273 C254 0.913 . S
H274 C292 0.951 . S
H275 C294 0.951 . S
H276 C296 0.950 . S
H277 C297 0.950 . S
H278 C299 0.950 . S
H279 C302 0.950 . S
H280 C303 0.950 . S
H281 C305 0.950 . S
H282 C306 0.950 . S
H283 C307 0.951 . S
H284 C309 0.951 . S
H285 C311 0.950 . S
H286 C312 0.950 . S
H287 C314 0.950 . S
H288 C317 0.950 . S
H289 C318 0.950 . S
H290 C320 0.950 . S
H291 C321 0.950 . S
C292 H274 0.951 . S
C292 C293 1.366 . S
C292 C294 1.388 . S
C293 C292 1.366 . S
C293 C297 1.385 . S
C294 H275 0.951 . S
C294 C292 1.388 . S
C294 C295 1.366 . S
C295 C294 1.366 . S
C295 C296 1.414 . S
C295 C298 1.499 . S
C296 H276 0.950 . S
C296 C295 1.414 . S
C296 C297 1.374 . S
C297 H277 0.950 . S
C297 C293 1.385 . S
C297 C296 1.374 . S
C298 C295 1.499 . S
C298 C299 1.373 . S
C298 C300 1.389 . S
C299 H278 0.950 . S
C299 C298 1.373 . S
C299 C315 1.377 . S
C300 C298 1.389 . S
C300 C301 1.524 . S
C300 C314 1.377 . S
C301 C300 1.524 . S
C301 C302 1.397 . S
C301 C306 1.363 . S
C302 H279 0.950 . S
C302 C301 1.397 . S
C302 C303 1.334 . S
C303 H280 0.950 . S
C303 C302 1.334 . S
C303 C304 1.287 . S
C304 C303 1.287 . S
C304 C305 1.524 . S
C304 H323 0.913 . S
C305 H281 0.950 . S
C305 C304 1.524 . S
C305 C306 1.415 . S
C306 H282 0.950 . S
C306 C301 1.363 . S
C306 C305 1.415 . S
C307 H283 0.951 . S
C307 C308 1.366 . S
C307 C309 1.388 . S
C308 C307 1.366 . S
C308 C312 1.385 . S
C309 H284 0.951 . S
C309 C307 1.388 . S
C309 C310 1.366 . S
C310 C309 1.366 . S
C310 C311 1.414 . S
C310 C313 1.499 . S
C311 H285 0.950 . S
C311 C310 1.414 . S
C311 C312 1.374 . S
C312 H286 0.950 . S
C312 C308 1.385 . S
C312 C311 1.374 . S
C313 C310 1.499 . S
C313 C314 1.373 . S
C313 C315 1.389 . S
C314 H287 0.950 . S
C314 C300 1.377 . S
C314 C313 1.373 . S
C315 C299 1.377 . S
C315 C313 1.389 . S
C315 C316 1.524 . S
C316 C315 1.524 . S
C316 C317 1.397 . S
C316 C321 1.363 . S
C317 H288 0.950 . S
C317 C316 1.397 . S
C317 C318 1.334 . S
C318 H289 0.950 . S
C318 C317 1.334 . S
C318 C319 1.287 . S
C319 C318 1.287 . S
C319 C320 1.524 . S
C319 H322 0.999 . S
C320 H290 0.950 . S
C320 C319 1.524 . S
C320 C321 1.415 . S
C321 H291 0.950 . S
C321 C316 1.363 . S
C321 C320 1.415 . S
H322 C319 0.999 . S
H323 C304 0.913 . S
H324 C342 0.951 . S
H325 C344 0.951 . S
H326 C346 0.950 . S
H327 C347 0.950 . S
H328 C349 0.950 . S
H329 C352 0.950 . S
H330 C353 0.950 . S
H331 C355 0.950 . S
H332 C356 0.950 . S
H333 C357 0.951 . S
H334 C359 0.951 . S
H335 C361 0.950 . S
H336 C362 0.950 . S
H337 C364 0.950 . S
H338 C367 0.950 . S
H339 C368 0.950 . S
H340 C370 0.950 . S
H341 C371 0.950 . S
C342 H324 0.951 . S
C342 C343 1.366 . S
C342 C344 1.388 . S
C343 C342 1.366 . S
C343 C347 1.385 . S
C344 H325 0.951 . S
C344 C342 1.388 . S
C344 C345 1.366 . S
C345 C344 1.366 . S
C345 C346 1.414 . S
C345 C348 1.499 . S
C346 H326 0.950 . S
C346 C345 1.414 . S
C346 C347 1.374 . S
C347 H327 0.950 . S
C347 C343 1.385 . S
C347 C346 1.374 . S
C348 C345 1.499 . S
C348 C349 1.373 . S
C348 C350 1.389 . S
C349 H328 0.950 . S
C349 C348 1.373 . S
C349 C365 1.377 . S
C350 C348 1.389 . S
C350 C351 1.524 . S
C350 C364 1.377 . S
C351 C350 1.524 . S
C351 C352 1.397 . S
C351 C356 1.363 . S
C352 H329 0.950 . S
C352 C351 1.397 . S
C352 C353 1.334 . S
C353 H330 0.950 . S
C353 C352 1.334 . S
C353 C354 1.287 . S
C354 C353 1.287 . S
C354 C355 1.524 . S
C354 H373 0.913 . S
C355 H331 0.950 . S
C355 C354 1.524 . S
C355 C356 1.415 . S
C356 H332 0.950 . S
C356 C351 1.363 . S
C356 C355 1.415 . S
C357 H333 0.951 . S
C357 C358 1.366 . S
C357 C359 1.388 . S
C358 C357 1.366 . S
C358 C362 1.385 . S
C359 H334 0.951 . S
C359 C357 1.388 . S
C359 C360 1.366 . S
C360 C359 1.366 . S
C360 C361 1.414 . S
C360 C363 1.499 . S
C361 H335 0.950 . S
C361 C360 1.414 . S
C361 C362 1.374 . S
C362 H336 0.950 . S
C362 C358 1.385 . S
C362 C361 1.374 . S
C363 C360 1.499 . S
C363 C364 1.373 . S
C363 C365 1.389 . S
C364 H337 0.950 . S
C364 C350 1.377 . S
C364 C363 1.373 . S
C365 C349 1.377 . S
C365 C363 1.389 . S
C365 C366 1.524 . S
C366 C365 1.524 . S
C366 C367 1.397 . S
C366 C371 1.363 . S
C367 H338 0.950 . S
C367 C366 1.397 . S
C367 C368 1.334 . S
C368 H339 0.950 . S
C368 C367 1.334 . S
C368 C369 1.287 . S
C369 C368 1.287 . S
C369 C370 1.524 . S
C369 H372 0.999 . S
C370 H340 0.950 . S
C370 C369 1.524 . S
C370 C371 1.415 . S
C371 H341 0.950 . S
C371 C366 1.363 . S
C371 C370 1.415 . S
H372 C369 0.999 . S
H373 C354 0.913 . S
H374 C392 0.951 . S
H375 C394 0.951 . S
H376 C396 0.950 . S
H377 C397 0.950 . S
H378 C399 0.950 . S
H379 C402 0.950 . S
H380 C403 0.950 . S
H381 C405 0.950 . S
H382 C406 0.950 . S
H383 C407 0.951 . S
H384 C409 0.951 . S
H385 C411 0.950 . S
H386 C412 0.950 . S
H387 C414 0.950 . S
H388 C417 0.950 . S
H389 C418 0.950 . S
H390 C420 0.950 . S
H391 C421 0.950 . S
C392 H374 0.951 . S
C392 C393 1.366 . S
C392 C394 1.388 . S
C393 C392 1.366 . S
C393 C397 1.385 . S
C394 H375 0.951 . S
C394 C392 1.388 . S
C394 C395 1.366 . S
C395 C394 1.366 . S
C395 C396 1.414 . S
C395 C398 1.499 . S
C396 H376 0.950 . S
C396 C395 1.414 . S
C396 C397 1.374 . S
C397 H377 0.950 . S
C397 C393 1.385 . S
C397 C396 1.374 . S
C398 C395 1.499 . S
C398 C399 1.373 . S
C398 C400 1.389 . S
C399 H378 0.950 . S
C399 C398 1.373 . S
C399 C415 1.377 . S
C400 C398 1.389 . S
C400 C401 1.524 . S
C400 C414 1.377 . S
C401 C400 1.524 . S
C401 C402 1.397 . S
C401 C406 1.363 . S
C402 H379 0.950 . S
C402 C401 1.397 . S
C402 C403 1.334 . S
C403 H380 0.950 . S
C403 C402 1.334 . S
C403 C404 1.287 . S
C404 C403 1.287 . S
C404 C405 1.524 . S
C404 H423 0.913 . S
C405 H381 0.950 . S
C405 C404 1.524 . S
C405 C406 1.415 . S
C406 H382 0.950 . S
C406 C401 1.363 . S
C406 C405 1.415 . S
C407 H383 0.951 . S
C407 C408 1.366 . S
C407 C409 1.388 . S
C408 C407 1.366 . S
C408 C412 1.385 . S
C409 H384 0.951 . S
C409 C407 1.388 . S
C409 C410 1.366 . S
C410 C409 1.366 . S
C410 C411 1.414 . S
C410 C413 1.499 . S
C411 H385 0.950 . S
C411 C410 1.414 . S
C411 C412 1.374 . S
C412 H386 0.950 . S
C412 C408 1.385 . S
C412 C411 1.374 . S
C413 C410 1.499 . S
C413 C414 1.373 . S
C413 C415 1.389 . S
C414 H387 0.950 . S
C414 C400 1.377 . S
C414 C413 1.373 . S
C415 C399 1.377 . S
C415 C413 1.389 . S
C415 C416 1.524 . S
C416 C415 1.524 . S
C416 C417 1.397 . S
C416 C421 1.363 . S
C417 H388 0.950 . S
C417 C416 1.397 . S
C417 C418 1.334 . S
C418 H389 0.950 . S
C418 C417 1.334 . S
C418 C419 1.287 . S
C419 C418 1.287 . S
C419 C420 1.524 . S
C419 H422 0.999 . S
C420 H390 0.950 . S
C420 C419 1.524 . S
C420 C421 1.415 . S
C421 H391 0.950 . S
C421 C416 1.363 . S
C421 C420 1.415 . S
H422 C419 0.999 . S
H423 C404 0.913 . S
H424 C442 0.951 . S
H425 C444 0.951 . S
H426 C446 0.950 . S
H427 C447 0.950 . S
H428 C449 0.950 . S
H429 C452 0.950 . S
H430 C453 0.950 . S
H431 C455 0.950 . S
H432 C456 0.950 . S
H433 C457 0.951 . S
H434 C459 0.951 . S
H435 C461 0.950 . S
H436 C462 0.950 . S
H437 C464 0.950 . S
H438 C467 0.950 . S
H439 C468 0.950 . S
H440 C470 0.950 . S
H441 C471 0.950 . S
C442 H424 0.951 . S
C442 C443 1.366 . S
C442 C444 1.388 . S
C443 C442 1.366 . S
C443 C447 1.385 . S
C444 H425 0.951 . S
C444 C442 1.388 . S
C444 C445 1.366 . S
C445 C444 1.366 . S
C445 C446 1.414 . S
C445 C448 1.499 . S
C446 H426 0.950 . S
C446 C445 1.414 . S
C446 C447 1.374 . S
C447 H427 0.950 . S
C447 C443 1.385 . S
C447 C446 1.374 . S
C448 C445 1.499 . S
C448 C449 1.373 . S
C448 C450 1.389 . S
C449 H428 0.950 . S
C449 C448 1.373 . S
C449 C465 1.377 . S
C450 C448 1.389 . S
C450 C451 1.524 . S
C450 C464 1.377 . S
C451 C450 1.524 . S
C451 C452 1.397 . S
C451 C456 1.363 . S
C452 H429 0.950 . S
C452 C451 1.397 . S
C452 C453 1.334 . S
C453 H430 0.950 . S
C453 C452 1.334 . S
C453 C454 1.287 . S
C454 C453 1.287 . S
C454 C455 1.524 . S
C454 H473 0.913 . S
C455 H431 0.950 . S
C455 C454 1.524 . S
C455 C456 1.415 . S
C456 H432 0.950 . S
C456 C451 1.363 . S
C456 C455 1.415 . S
C457 H433 0.951 . S
C457 C458 1.366 . S
C457 C459 1.388 . S
C458 C457 1.366 . S
C458 C462 1.385 . S
C459 H434 0.951 . S
C459 C457 1.388 . S
C459 C460 1.366 . S
C460 C459 1.366 . S
C460 C461 1.414 . S
C460 C463 1.499 . S
C461 H435 0.950 . S
C461 C460 1.414 . S
C461 C462 1.374 . S
C462 H436 0.950 . S
C462 C458 1.385 . S
C462 C461 1.374 . S
C463 C460 1.499 . S
C463 C464 1.373 . S
C463 C465 1.389 . S
C464 H437 0.950 . S
C464 C450 1.377 . S
C464 C463 1.373 . S
C465 C449 1.377 . S
C465 C463 1.389 . S
C465 C466 1.524 . S
C466 C465 1.524 . S
C466 C467 1.397 . S
C466 C471 1.363 . S
C467 H438 0.950 . S
C467 C466 1.397 . S
C467 C468 1.334 . S
C468 H439 0.950 . S
C468 C467 1.334 . S
C468 C469 1.287 . S
C469 C468 1.287 . S
C469 C470 1.524 . S
C469 H472 0.999 . S
C470 H440 0.950 . S
C470 C469 1.524 . S
C470 C471 1.415 . S
C471 H441 0.950 . S
C471 C466 1.363 . S
C471 C470 1.415 . S
H472 C469 0.999 . S
H473 C454 0.913 . S
H474 C492 0.951 . S
H475 C494 0.951 . S
H476 C496 0.950 . S
H477 C497 0.950 . S
H478 C499 0.950 . S
H479 C502 0.950 . S
H480 C503 0.950 . S
H481 C505 0.950 . S
H482 C506 0.950 . S
H483 C507 0.951 . S
H484 C509 0.951 . S
H485 C511 0.950 . S
H486 C512 0.950 . S
H487 C514 0.950 . S
H488 C517 0.950 . S
H489 C518 0.950 . S
H490 C520 0.950 . S
H491 C521 0.950 . S
C492 H474 0.951 . S
C492 C493 1.366 . S
C492 C494 1.388 . S
C493 C492 1.366 . S
C493 C497 1.385 . S
C494 H475 0.951 . S
C494 C492 1.388 . S
C494 C495 1.366 . S
C495 C494 1.366 . S
C495 C496 1.414 . S
C495 C498 1.499 . S
C496 H476 0.950 . S
C496 C495 1.414 . S
C496 C497 1.374 . S
C497 H477 0.950 . S
C497 C493 1.385 . S
C497 C496 1.374 . S
C498 C495 1.499 . S
C498 C499 1.373 . S
C498 C500 1.389 . S
C499 H478 0.950 . S
C499 C498 1.373 . S
C499 C515 1.377 . S
C500 C498 1.389 . S
C500 C501 1.524 . S
C500 C514 1.377 . S
C501 C500 1.524 . S
C501 C502 1.397 . S
C501 C506 1.363 . S
C502 H479 0.950 . S
C502 C501 1.397 . S
C502 C503 1.334 . S
C503 H480 0.950 . S
C503 C502 1.334 . S
C503 C504 1.287 . S
C504 C503 1.287 . S
C504 C505 1.524 . S
C504 H523 0.913 . S
C505 H481 0.950 . S
C505 C504 1.524 . S
C505 C506 1.415 . S
C506 H482 0.950 . S
C506 C501 1.363 . S
C506 C505 1.415 . S
C507 H483 0.951 . S
C507 C508 1.366 . S
C507 C509 1.388 . S
C508 C507 1.366 . S
C508 C512 1.385 . S
C509 H484 0.951 . S
C509 C507 1.388 . S
C509 C510 1.366 . S
C510 C509 1.366 . S
C510 C511 1.414 . S
C510 C513 1.499 . S
C511 H485 0.950 . S
C511 C510 1.414 . S
C511 C512 1.374 . S
C512 H486 0.950 . S
C512 C508 1.385 . S
C512 C511 1.374 . S
C513 C510 1.499 . S
C513 C514 1.373 . S
C513 C515 1.389 . S
C514 H487 0.950 . S
C514 C500 1.377 . S
C514 C513 1.373 . S
C515 C499 1.377 . S
C515 C513 1.389 . S
C515 C516 1.524 . S
C516 C515 1.524 . S
C516 C517 1.397 . S
C516 C521 1.363 . S
C517 H488 0.950 . S
C517 C516 1.397 . S
C517 C518 1.334 . S
C518 H489 0.950 . S
C518 C517 1.334 . S
C518 C519 1.287 . S
C519 C518 1.287 . S
C519 C520 1.524 . S
C519 H522 0.999 . S
C520 H490 0.950 . S
C520 C519 1.524 . S
C520 C521 1.415 . S
C521 H491 0.950 . S
C521 C516 1.363 . S
C521 C520 1.415 . S
H522 C519 0.999 . S
H523 C504 0.913 . S
H524 C542 0.951 . S
H525 C544 0.951 . S
H526 C546 0.950 . S
H527 C547 0.950 . S
H528 C549 0.950 . S
H529 C552 0.950 . S
H530 C553 0.950 . S
H531 C555 0.950 . S
H532 C556 0.950 . S
H533 C557 0.951 . S
H534 C559 0.951 . S
H535 C561 0.950 . S
H536 C562 0.950 . S
H537 C564 0.950 . S
H538 C567 0.950 . S
H539 C568 0.950 . S
H540 C570 0.950 . S
H541 C571 0.950 . S
C542 H524 0.951 . S
C542 C543 1.366 . S
C542 C544 1.388 . S
C543 C542 1.366 . S
C543 C547 1.385 . S
C544 H525 0.951 . S
C544 C542 1.388 . S
C544 C545 1.366 . S
C545 C544 1.366 . S
C545 C546 1.414 . S
C545 C548 1.499 . S
C546 H526 0.950 . S
C546 C545 1.414 . S
C546 C547 1.374 . S
C547 H527 0.950 . S
C547 C543 1.385 . S
C547 C546 1.374 . S
C548 C545 1.499 . S
C548 C549 1.373 . S
C548 C550 1.389 . S
C549 H528 0.950 . S
C549 C548 1.373 . S
C549 C565 1.377 . S
C550 C548 1.389 . S
C550 C551 1.524 . S
C550 C564 1.377 . S
C551 C550 1.524 . S
C551 C552 1.397 . S
C551 C556 1.363 . S
C552 H529 0.950 . S
C552 C551 1.397 . S
C552 C553 1.334 . S
C553 H530 0.950 . S
C553 C552 1.334 . S
C553 C554 1.287 . S
C554 C553 1.287 . S
C554 C555 1.524 . S
C554 H573 0.913 . S
C555 H531 0.950 . S
C555 C554 1.524 . S
C555 C556 1.415 . S
C556 H532 0.950 . S
C556 C551 1.363 . S
C556 C555 1.415 . S
C557 H533 0.951 . S
C557 C558 1.366 . S
C557 C559 1.388 . S
C558 C557 1.366 . S
C558 C562 1.385 . S
C559 H534 0.951 . S
C559 C557 1.388 . S
C559 C560 1.366 . S
C560 C559 1.366 . S
C560 C561 1.414 . S
C560 C563 1.499 . S
C561 H535 0.950 . S
C561 C560 1.414 . S
C561 C562 1.374 . S
C562 H536 0.950 . S
C562 C558 1.385 . S
C562 C561 1.374 . S
C563 C560 1.499 . S
C563 C564 1.373 . S
C563 C565 1.389 . S
C564 H537 0.950 . S
C564 C550 1.377 . S
C564 C563 1.373 . S
C565 C549 1.377 . S
C565 C563 1.389 . S
C565 C566 1.524 . S
C566 C565 1.524 . S
C566 C567 1.397 . S
C566 C571 1.363 . S
C567 H538 0.950 . S
C567 C566 1.397 . S
C567 C568 1.334 . S
C568 H539 0.950 . S
C568 C567 1.334 . S
C568 C569 1.287 . S
C569 C568 1.287 . S
C569 C570 1.524 . S
C569 H572 0.999 . S
C570 H540 0.950 . S
C570 C569 1.524 . S
C570 C571 1.415 . S
C571 H541 0.950 . S
C571 C566 1.363 . S
C571 C570 1.415 . S
H572 C569 0.999 . S
H573 C554 0.913 . S
H574 C592 0.951 . S
H575 C594 0.951 . S
H576 C596 0.950 . S
H577 C597 0.950 . S
H578 C599 0.950 . S
H579 C602 0.950 . S
H580 C603 0.950 . S
H581 C605 0.950 . S
H582 C606 0.950 . S
H583 C607 0.951 . S
H584 C609 0.951 . S
H585 C611 0.950 . S
H586 C612 0.950 . S
H587 C614 0.950 . S
H588 C617 0.950 . S
H589 C618 0.950 . S
H590 C620 0.950 . S
H591 C621 0.950 . S
C592 H574 0.951 . S
C592 C593 1.366 . S
C592 C594 1.388 . S
C593 C592 1.366 . S
C593 C597 1.385 . S
C594 H575 0.951 . S
C594 C592 1.388 . S
C594 C595 1.366 . S
C595 C594 1.366 . S
C595 C596 1.414 . S
C595 C598 1.499 . S
C596 H576 0.950 . S
C596 C595 1.414 . S
C596 C597 1.374 . S
C597 H577 0.950 . S
C597 C593 1.385 . S
C597 C596 1.374 . S
C598 C595 1.499 . S
C598 C599 1.373 . S
C598 C600 1.389 . S
C599 H578 0.950 . S
C599 C598 1.373 . S
C599 C615 1.377 . S
C600 C598 1.389 . S
C600 C601 1.524 . S
C600 C614 1.377 . S
C601 C600 1.524 . S
C601 C602 1.397 . S
C601 C606 1.363 . S
C602 H579 0.950 . S
C602 C601 1.397 . S
C602 C603 1.334 . S
C603 H580 0.950 . S
C603 C602 1.334 . S
C603 C604 1.287 . S
C604 C603 1.287 . S
C604 C605 1.524 . S
C604 H623 0.913 . S
C605 H581 0.950 . S
C605 C604 1.524 . S
C605 C606 1.415 . S
C606 H582 0.950 . S
C606 C601 1.363 . S
C606 C605 1.415 . S
C607 H583 0.951 . S
C607 C608 1.366 . S
C607 C609 1.388 . S
C608 C607 1.366 . S
C608 C612 1.385 . S
C609 H584 0.951 . S
C609 C607 1.388 . S
C609 C610 1.366 . S
C610 C609 1.366 . S
C610 C611 1.414 . S
C610 C613 1.499 . S
C611 H585 0.950 . S
C611 C610 1.414 . S
C611 C612 1.374 . S
C612 H586 0.950 . S
C612 C608 1.385 . S
C612 C611 1.374 . S
C613 C610 1.499 . S
C613 C614 1.373 . S
C613 C615 1.389 . S
C614 H587 0.950 . S
C614 C600 1.377 . S
C614 C613 1.373 . S
C615 C599 1.377 . S
C615 C613 1.389 . S
C615 C616 1.524 . S
C616 C615 1.524 . S
C616 C617 1.397 . S
C616 C621 1.363 . S
C617 H588 0.950 . S
C617 C616 1.397 . S
C617 C618 1.334 . S
C618 H589 0.950 . S
C618 C617 1.334 . S
C618 C619 1.287 . S
C619 C618 1.287 . S
C619 C620 1.524 . S
C619 H622 0.999 . S
C620 H590 0.950 . S
C620 C619 1.524 . S
C620 C621 1.415 . S
C621 H591 0.950 . S
C621 C616 1.363 . S
C621 C620 1.415 . S
H622 C619 0.999 . S
H623 C604 0.913 . S
H624 C642 0.951 . S
H625 C644 0.951 . S
H626 C646 0.950 . S
H627 C647 0.950 . S
H628 C649 0.950 . S
H629 C652 0.950 . S
H630 C653 0.950 . S
H631 C655 0.950 . S
H632 C656 0.950 . S
H633 C657 0.951 . S
H634 C659 0.951 . S
H635 C661 0.950 . S
H636 C662 0.950 . S
H637 C664 0.950 . S
H638 C667 0.950 . S
H639 C668 0.950 . S
H640 C670 0.950 . S
H641 C671 0.950 . S
C642 H624 0.951 . S
C642 C643 1.366 . S
C642 C644 1.388 . S
C643 C642 1.366 . S
C643 C647 1.385 . S
C644 H625 0.951 . S
C644 C642 1.388 . S
C644 C645 1.366 . S
C645 C644 1.366 . S
C645 C646 1.414 . S
C645 C648 1.499 . S
C646 H626 0.950 . S
C646 C645 1.414 . S
C646 C647 1.374 . S
C647 H627 0.950 . S
C647 C643 1.385 . S
C647 C646 1.374 . S
C648 C645 1.499 . S
C648 C649 1.373 . S
C648 C650 1.389 . S
C649 H628 0.950 . S
C649 C648 1.373 . S
C649 C665 1.377 1_556 S
C650 C648 1.389 . S
C650 C651 1.524 . S
C650 C664 1.377 1_556 S
C651 C650 1.524 . S
C651 C652 1.397 . S
C651 C656 1.363 . S
C652 H629 0.950 . S
C652 C651 1.397 . S
C652 C653 1.334 . S
C653 H630 0.950 . S
C653 C652 1.334 . S
C653 C654 1.287 . S
C654 C653 1.287 . S
C654 C655 1.524 . S
C654 H673 0.913 . S
C655 H631 0.950 . S
C655 C654 1.524 . S
C655 C656 1.415 . S
C656 H632 0.950 . S
C656 C651 1.363 . S
C656 C655 1.415 . S
C657 H633 0.951 . S
C657 C658 1.366 . S
C657 C659 1.388 . S
C658 C657 1.366 . S
C658 C662 1.385 . S
C659 H634 0.951 . S
C659 C657 1.388 . S
C659 C660 1.366 . S
C660 C659 1.366 . S
C660 C661 1.414 . S
C660 C663 1.499 . S
C661 H635 0.950 . S
C661 C660 1.414 . S
C661 C662 1.374 . S
C662 H636 0.950 . S
C662 C658 1.385 . S
C662 C661 1.374 . S
C663 C660 1.499 . S
C663 C664 1.373 . S
C663 C665 1.389 . S
C664 H637 0.950 . S
C664 C650 1.377 1_554 S
C664 C663 1.373 . S
C665 C649 1.377 1_554 S
C665 C663 1.389 . S
C665 C666 1.524 . S
C666 C665 1.524 . S
C666 C667 1.397 . S
C666 C671 1.363 . S
C667 H638 0.950 . S
C667 C666 1.397 . S
C667 C668 1.334 . S
C668 H639 0.950 . S
C668 C667 1.334 . S
C668 C669 1.287 . S
C669 C668 1.287 . S
C669 C670 1.524 . S
C669 H672 0.999 . S
C670 H640 0.950 . S
C670 C669 1.524 . S
C670 C671 1.415 . S
C671 H641 0.950 . S
C671 C666 1.363 . S
C671 C670 1.415 . S
H672 C669 0.999 . S
H673 C654 0.913 . S
H674 C692 0.951 . S
H675 C694 0.951 . S
H676 C696 0.950 . S
H677 C697 0.950 . S
H678 C699 0.950 . S
H679 C702 0.950 . S
H680 C703 0.950 . S
H681 C705 0.950 . S
H682 C706 0.950 . S
H683 C707 0.951 . S
H684 C709 0.951 . S
H685 C711 0.950 . S
H686 C712 0.950 . S
H687 C714 0.950 . S
H688 C717 0.950 . S
H689 C718 0.950 . S
H690 C720 0.950 . S
H691 C721 0.950 . S
C692 H674 0.951 . S
C692 C693 1.366 . S
C692 C694 1.388 . S
C693 C692 1.366 . S
C693 C697 1.385 . S
C694 H675 0.951 . S
C694 C692 1.388 . S
C694 C695 1.366 . S
C695 C694 1.366 . S
C695 C696 1.414 . S
C695 C698 1.499 . S
C696 H676 0.950 . S
C696 C695 1.414 . S
C696 C697 1.374 . S
C697 H677 0.950 . S
C697 C693 1.385 . S
C697 C696 1.374 . S
C698 C695 1.499 . S
C698 C699 1.373 . S
C698 C700 1.389 . S
C699 H678 0.950 . S
C699 C698 1.373 . S
C699 C715 1.377 1_556 S
C700 C698 1.389 . S
C700 C701 1.524 . S
C700 C714 1.377 1_556 S
C701 C700 1.524 . S
C701 C702 1.397 . S
C701 C706 1.363 . S
C702 H679 0.950 . S
C702 C701 1.397 . S
C702 C703 1.334 . S
C703 H680 0.950 . S
C703 C702 1.334 . S
C703 C704 1.287 . S
C704 C703 1.287 . S
C704 C705 1.524 . S
C704 H723 0.913 . S
C705 H681 0.950 . S
C705 C704 1.524 . S
C705 C706 1.415 . S
C706 H682 0.950 . S
C706 C701 1.363 . S
C706 C705 1.415 . S
C707 H683 0.951 . S
C707 C708 1.366 . S
C707 C709 1.388 . S
C708 C707 1.366 . S
C708 C712 1.385 . S
C709 H684 0.951 . S
C709 C707 1.388 . S
C709 C710 1.366 . S
C710 C709 1.366 . S
C710 C711 1.414 . S
C710 C713 1.499 . S
C711 H685 0.950 . S
C711 C710 1.414 . S
C711 C712 1.374 . S
C712 H686 0.950 . S
C712 C708 1.385 . S
C712 C711 1.374 . S
C713 C710 1.499 . S
C713 C714 1.373 . S
C713 C715 1.389 . S
C714 H687 0.950 . S
C714 C700 1.377 1_554 S
C714 C713 1.373 . S
C715 C699 1.377 1_554 S
C715 C713 1.389 . S
C715 C716 1.524 . S
C716 C715 1.524 . S
C716 C717 1.397 . S
C716 C721 1.363 . S
C717 H688 0.950 . S
C717 C716 1.397 . S
C717 C718 1.334 . S
C718 H689 0.950 . S
C718 C717 1.334 . S
C718 C719 1.287 . S
C719 C718 1.287 . S
C719 C720 1.524 . S
C719 H722 0.999 . S
C720 H690 0.950 . S
C720 C719 1.524 . S
C720 C721 1.415 . S
C721 H691 0.950 . S
C721 C716 1.363 . S
C721 C720 1.415 . S
H722 C719 0.999 . S
H723 C704 0.913 . S
H724 C742 0.951 . S
H725 C744 0.951 . S
H726 C746 0.950 . S
H727 C747 0.950 . S
H728 C749 0.950 . S
H729 C752 0.950 . S
H730 C753 0.950 . S
H731 C755 0.950 . S
H732 C756 0.977 . S
H733 C757 0.951 . S
H734 C759 0.951 . S
H735 C761 0.950 . S
H736 C762 0.950 . S
H737 C764 0.950 . S
H738 C767 0.950 . S
H739 C768 0.950 . S
H740 C770 0.950 . S
H741 C771 0.977 . S
C742 H724 0.951 . S
C742 C743 1.366 . S
C742 C744 1.388 . S
C743 C742 1.366 . S
C743 C747 1.385 . S
C744 H725 0.951 . S
C744 C742 1.388 . S
C744 C745 1.366 . S
C745 C744 1.366 . S
C745 C746 1.414 . S
C745 C748 1.499 . S
C746 H726 0.950 . S
C746 C745 1.414 . S
C746 C747 1.374 . S
C747 H727 0.950 . S
C747 C743 1.385 . S
C747 C746 1.374 . S
C748 C745 1.499 . S
C748 C749 1.373 . S
C748 C750 1.389 . S
C749 H728 0.950 . S
C749 C748 1.373 . S
C749 C765 1.377 1_556 S
C750 C748 1.389 . S
C750 C751 1.524 . S
C750 C764 1.377 1_556 S
C751 C750 1.524 . S
C751 C752 1.397 . S
C751 C756 1.363 . S
C752 H729 0.950 . S
C752 C751 1.397 . S
C752 C753 1.334 . S
C753 H730 0.950 . S
C753 C752 1.334 . S
C753 C754 1.287 . S
C754 C753 1.287 . S
C754 C755 1.524 . S
C754 H773 0.913 . S
C755 H731 0.950 . S
C755 C754 1.524 . S
C755 C756 1.415 . S
C756 H732 0.977 . S
C756 C751 1.363 . S
C756 C755 1.415 . S
C757 H733 0.951 . S
C757 C758 1.366 . S
C757 C759 1.388 . S
C758 C757 1.366 . S
C758 C762 1.385 . S
C759 H734 0.951 . S
C759 C757 1.388 . S
C759 C760 1.366 . S
C760 C759 1.366 . S
C760 C761 1.414 . S
C760 C763 1.499 . S
C761 H735 0.950 . S
C761 C760 1.414 . S
C761 C762 1.374 . S
C762 H736 0.950 . S
C762 C758 1.385 . S
C762 C761 1.374 . S
C763 C760 1.499 . S
C763 C764 1.373 . S
C763 C765 1.389 . S
C764 H737 0.950 . S
C764 C750 1.377 1_554 S
C764 C763 1.373 . S
C765 C749 1.377 1_554 S
C765 C763 1.389 . S
C765 C766 1.524 . S
C766 C765 1.524 . S
C766 C767 1.397 . S
C766 C771 1.363 . S
C767 H738 0.950 . S
C767 C766 1.397 . S
C767 C768 1.334 . S
C768 H739 0.950 . S
C768 C767 1.334 . S
C768 C769 1.287 . S
C769 C768 1.287 . S
C769 C770 1.524 . S
C769 H772 0.999 . S
C770 H740 0.950 . S
C770 C769 1.524 . S
C770 C771 1.415 . S
C771 H741 0.977 . S
C771 C766 1.363 . S
C771 C770 1.415 . S
H772 C769 0.999 . S
H773 C754 0.913 . S
H774 C792 0.951 . S
H775 C794 0.951 . S
H776 C796 0.950 . S
H777 C797 0.950 . S
H778 C799 0.950 . S
H779 C802 0.950 . S
H780 C803 0.950 . S
H781 C805 0.950 . S
H782 C806 0.950 1_556 S
H783 C807 0.951 . S
H784 C809 0.951 . S
H785 C811 0.950 . S
H786 C812 0.950 . S
H787 C814 0.950 . S
H788 C817 0.950 . S
H789 C818 0.950 . S
H790 C820 0.950 . S
H791 C821 0.950 1_554 S
C792 H774 0.951 . S
C792 C793 1.366 . S
C792 C794 1.388 . S
C793 C792 1.366 . S
C793 C797 1.385 . S
C794 H775 0.951 . S
C794 C792 1.388 . S
C794 C795 1.366 . S
C795 C794 1.366 . S
C795 C796 1.414 . S
C795 C798 1.499 . S
C796 H776 0.950 . S
C796 C795 1.414 . S
C796 C797 1.374 . S
C797 H777 0.950 . S
C797 C793 1.385 . S
C797 C796 1.374 . S
C798 C795 1.499 . S
C798 C799 1.373 . S
C798 C800 1.389 . S
C799 H778 0.950 . S
C799 C798 1.373 . S
C799 C815 1.377 1_554 S
C800 C798 1.389 . S
C800 C801 1.524 . S
C800 C814 1.377 1_554 S
C801 C800 1.524 . S
C801 C802 1.397 . S
C801 C806 1.363 . S
C802 H779 0.950 . S
C802 C801 1.397 . S
C802 C803 1.334 . S
C803 H780 0.950 . S
C803 C802 1.334 . S
C803 C804 1.287 . S
C804 C803 1.287 . S
C804 C805 1.524 . S
C804 H823 0.913 . S
C805 H781 0.950 . S
C805 C804 1.524 . S
C805 C806 1.415 . S
C806 H782 0.950 1_554 S
C806 C801 1.363 . S
C806 C805 1.415 . S
C807 H783 0.951 . S
C807 C808 1.366 . S
C807 C809 1.388 . S
C808 C807 1.366 . S
C808 C812 1.385 . S
C809 H784 0.951 . S
C809 C807 1.388 . S
C809 C810 1.366 . S
C810 C809 1.366 . S
C810 C811 1.414 . S
C810 C813 1.499 . S
C811 H785 0.950 . S
C811 C810 1.414 . S
C811 C812 1.374 . S
C812 H786 0.950 . S
C812 C808 1.385 . S
C812 C811 1.374 . S
C813 C810 1.499 . S
C813 C814 1.373 . S
C813 C815 1.389 . S
C814 H787 0.950 . S
C814 C800 1.377 1_556 S
C814 C813 1.373 . S
C815 C799 1.377 1_556 S
C815 C813 1.389 . S
C815 C816 1.524 . S
C816 C815 1.524 . S
C816 C817 1.397 . S
C816 C821 1.363 . S
C817 H788 0.950 . S
C817 C816 1.397 . S
C817 C818 1.334 . S
C818 H789 0.950 . S
C818 C817 1.334 . S
C818 C819 1.287 . S
C819 C818 1.287 . S
C819 C820 1.524 . S
C819 H822 0.999 . S
C820 H790 0.950 . S
C820 C819 1.524 . S
C820 C821 1.415 . S
C821 H791 0.950 1_556 S
C821 C816 1.363 . S
C821 C820 1.415 . S
H822 C819 0.999 . S
H823 C804 0.913 . S
H824 C842 0.951 . S
H825 C844 0.951 . S
H826 C846 0.950 . S
H827 C847 0.950 . S
H828 C849 0.950 . S
H829 C852 0.950 . S
H830 C853 0.950 . S
H831 C855 0.950 . S
H832 C856 0.950 . S
H833 C857 0.951 . S
H834 C859 0.951 . S
H835 C861 0.950 . S
H836 C862 0.950 . S
H837 C864 0.950 . S
H838 C867 0.950 . S
H839 C868 0.950 . S
H840 C870 0.950 . S
H841 C871 0.950 . S
C842 H824 0.951 . S
C842 C843 1.366 . S
C842 C844 1.388 . S
C843 C842 1.366 . S
C843 C847 1.385 . S
C844 H825 0.951 . S
C844 C842 1.388 . S
C844 C845 1.366 . S
C845 C844 1.366 . S
C845 C846 1.414 . S
C845 C848 1.499 . S
C846 H826 0.950 . S
C846 C845 1.414 . S
C846 C847 1.374 . S
C847 H827 0.950 . S
C847 C843 1.385 . S
C847 C846 1.374 . S
C848 C845 1.499 . S
C848 C849 1.373 . S
C848 C850 1.389 . S
C849 H828 0.950 . S
C849 C848 1.373 . S
C849 C865 1.377 . S
C850 C848 1.389 . S
C850 C851 1.524 . S
C850 C864 1.377 . S
C851 C850 1.524 . S
C851 C852 1.397 . S
C851 C856 1.363 . S
C852 H829 0.950 . S
C852 C851 1.397 . S
C852 C853 1.334 . S
C853 H830 0.950 . S
C853 C852 1.334 . S
C853 C854 1.287 . S
C854 C853 1.287 . S
C854 C855 1.524 . S
C854 H873 0.913 . S
C855 H831 0.950 . S
C855 C854 1.524 . S
C855 C856 1.415 . S
C856 H832 0.950 . S
C856 C851 1.363 . S
C856 C855 1.415 . S
C857 H833 0.951 . S
C857 C858 1.366 . S
C857 C859 1.388 . S
C858 C857 1.366 . S
C858 C862 1.385 . S
C859 H834 0.951 . S
C859 C857 1.388 . S
C859 C860 1.366 . S
C860 C859 1.366 . S
C860 C861 1.414 . S
C860 C863 1.499 . S
C861 H835 0.950 . S
C861 C860 1.414 . S
C861 C862 1.374 . S
C862 H836 0.950 . S
C862 C858 1.385 . S
C862 C861 1.374 . S
C863 C860 1.499 . S
C863 C864 1.373 . S
C863 C865 1.389 . S
C864 H837 0.950 . S
C864 C850 1.377 . S
C864 C863 1.373 . S
C865 C849 1.377 . S
C865 C863 1.389 . S
C865 C866 1.524 . S
C866 C865 1.524 . S
C866 C867 1.397 . S
C866 C871 1.363 . S
C867 H838 0.950 . S
C867 C866 1.397 . S
C867 C868 1.334 . S
C868 H839 0.950 . S
C868 C867 1.334 . S
C868 C869 1.287 . S
C869 C868 1.287 . S
C869 C870 1.524 . S
C869 H872 0.999 . S
C870 H840 0.950 . S
C870 C869 1.524 . S
C870 C871 1.415 . S
C871 H841 0.950 . S
C871 C866 1.363 . S
C871 C870 1.415 . S
H872 C869 0.999 . S
H873 C854 0.913 . S
H874 C892 0.951 . S
H875 C894 0.951 . S
H876 C896 0.950 . S
H877 C897 0.950 . S
H878 C899 0.950 . S
H879 C902 0.950 . S
H880 C903 0.950 . S
H881 C905 0.950 . S
H882 C906 0.950 . S
H883 C907 0.951 . S
H884 C909 0.951 . S
H885 C911 0.950 . S
H886 C912 0.950 . S
H887 C914 0.950 . S
H888 C917 0.950 . S
H889 C918 0.950 . S
H890 C920 0.950 . S
H891 C921 0.950 . S
C892 H874 0.951 . S
C892 C893 1.366 . S
C892 C894 1.388 . S
C893 C892 1.366 . S
C893 C897 1.385 . S
C894 H875 0.951 . S
C894 C892 1.388 . S
C894 C895 1.366 . S
C895 C894 1.366 . S
C895 C896 1.414 . S
C895 C898 1.499 . S
C896 H876 0.950 . S
C896 C895 1.414 . S
C896 C897 1.374 . S
C897 H877 0.950 . S
C897 C893 1.385 . S
C897 C896 1.374 . S
C898 C895 1.499 . S
C898 C899 1.373 . S
C898 C900 1.389 . S
C899 H878 0.950 . S
C899 C898 1.373 . S
C899 C915 1.377 . S
C900 C898 1.389 . S
C900 C901 1.524 . S
C900 C914 1.377 . S
C901 C900 1.524 . S
C901 C902 1.397 . S
C901 C906 1.363 . S
C902 H879 0.950 . S
C902 C901 1.397 . S
C902 C903 1.334 . S
C903 H880 0.950 . S
C903 C902 1.334 . S
C903 C904 1.287 . S
C904 C903 1.287 . S
C904 C905 1.524 . S
C904 H923 0.913 . S
C905 H881 0.950 . S
C905 C904 1.524 . S
C905 C906 1.415 . S
C906 H882 0.950 . S
C906 C901 1.363 . S
C906 C905 1.415 . S
C907 H883 0.951 . S
C907 C908 1.366 . S
C907 C909 1.388 . S
C908 C907 1.366 . S
C908 C912 1.385 . S
C909 H884 0.951 . S
C909 C907 1.388 . S
C909 C910 1.366 . S
C910 C909 1.366 . S
C910 C911 1.414 . S
C910 C913 1.499 . S
C911 H885 0.950 . S
C911 C910 1.414 . S
C911 C912 1.374 . S
C912 H886 0.950 . S
C912 C908 1.385 . S
C912 C911 1.374 . S
C913 C910 1.499 . S
C913 C914 1.373 . S
C913 C915 1.389 . S
C914 H887 0.950 . S
C914 C900 1.377 . S
C914 C913 1.373 . S
C915 C899 1.377 . S
C915 C913 1.389 . S
C915 C916 1.524 . S
C916 C915 1.524 . S
C916 C917 1.397 . S
C916 C921 1.363 . S
C917 H888 0.950 . S
C917 C916 1.397 . S
C917 C918 1.334 . S
C918 H889 0.950 . S
C918 C917 1.334 . S
C918 C919 1.287 . S
C919 C918 1.287 . S
C919 C920 1.524 . S
C919 H922 0.999 . S
C920 H890 0.950 . S
C920 C919 1.524 . S
C920 C921 1.415 . S
C921 H891 0.950 . S
C921 C916 1.363 . S
C921 C920 1.415 . S
H922 C919 0.999 . S
H923 C904 0.913 . S
H924 C942 0.951 . S
H925 C944 0.951 . S
H926 C946 0.950 . S
H927 C947 0.950 . S
H928 C949 0.950 . S
H929 C952 0.950 . S
H930 C953 0.950 . S
H931 C955 0.950 . S
H932 C956 0.950 . S
H933 C957 0.951 . S
H934 C959 0.951 . S
H935 C961 0.950 . S
H936 C962 0.950 . S
H937 C964 0.950 . S
H938 C967 0.950 . S
H939 C968 0.950 . S
H940 C970 0.950 . S
H941 C971 0.950 . S
C942 H924 0.951 . S
C942 C943 1.366 . S
C942 C944 1.388 . S
C943 C942 1.366 . S
C943 C947 1.385 . S
C944 H925 0.951 . S
C944 C942 1.388 . S
C944 C945 1.366 . S
C945 C944 1.366 . S
C945 C946 1.414 . S
C945 C948 1.499 . S
C946 H926 0.950 . S
C946 C945 1.414 . S
C946 C947 1.374 . S
C947 H927 0.950 . S
C947 C943 1.385 . S
C947 C946 1.374 . S
C948 C945 1.499 . S
C948 C949 1.373 . S
C948 C950 1.389 . S
C949 H928 0.950 . S
C949 C948 1.373 . S
C949 C965 1.377 . S
C950 C948 1.389 . S
C950 C951 1.524 . S
C950 C964 1.377 . S
C951 C950 1.524 . S
C951 C952 1.397 . S
C951 C956 1.363 . S
C952 H929 0.950 . S
C952 C951 1.397 . S
C952 C953 1.334 . S
C953 H930 0.950 . S
C953 C952 1.334 . S
C953 C954 1.287 . S
C954 C953 1.287 . S
C954 C955 1.524 . S
C954 H973 0.913 . S
C955 H931 0.950 . S
C955 C954 1.524 . S
C955 C956 1.415 . S
C956 H932 0.950 . S
C956 C951 1.363 . S
C956 C955 1.415 . S
C957 H933 0.951 . S
C957 C958 1.366 . S
C957 C959 1.388 . S
C958 C957 1.366 . S
C958 C962 1.385 . S
C959 H934 0.951 . S
C959 C957 1.388 . S
C959 C960 1.366 . S
C960 C959 1.366 . S
C960 C961 1.414 . S
C960 C963 1.499 . S
C961 H935 0.950 . S
C961 C960 1.414 . S
C961 C962 1.374 . S
C962 H936 0.950 . S
C962 C958 1.385 . S
C962 C961 1.374 . S
C963 C960 1.499 . S
C963 C964 1.373 . S
C963 C965 1.389 . S
C964 H937 0.950 . S
C964 C950 1.377 . S
C964 C963 1.373 . S
C965 C949 1.377 . S
C965 C963 1.389 . S
C965 C966 1.524 . S
C966 C965 1.524 . S
C966 C967 1.397 . S
C966 C971 1.363 . S
C967 H938 0.950 . S
C967 C966 1.397 . S
C967 C968 1.334 . S
C968 H939 0.950 . S
C968 C967 1.334 . S
C968 C969 1.287 . S
C969 C968 1.287 . S
C969 C970 1.524 . S
C969 H972 0.999 . S
C970 H940 0.950 . S
C970 C969 1.524 . S
C970 C971 1.415 . S
C971 H941 0.950 . S
C971 C966 1.363 . S
C971 C970 1.415 . S
H972 C969 0.999 . S
H973 C954 0.913 . S
H974 C992 0.951 . S
H975 C994 0.951 . S
H976 C996 0.950 . S
H977 C997 0.950 . S
H978 C999 0.950 . S
H979 C1002 0.950 . S
H980 C1003 0.950 . S
H981 C1005 0.950 . S
H982 C1006 0.950 . S
H983 C1007 0.951 . S
H984 C1009 0.951 . S
H985 C1011 0.950 . S
H986 C1012 0.950 . S
H987 C1014 0.950 . S
H988 C1017 0.950 . S
H989 C1018 0.950 . S
H990 C1020 0.950 . S
H991 C1021 0.950 . S
C992 H974 0.951 . S
C992 C993 1.366 . S
C992 C994 1.388 . S
C993 C992 1.366 . S
C993 C997 1.385 . S
C994 H975 0.951 . S
C994 C992 1.388 . S
C994 C995 1.366 . S
C995 C994 1.366 . S
C995 C996 1.414 . S
C995 C998 1.499 . S
C996 H976 0.950 . S
C996 C995 1.414 . S
C996 C997 1.374 . S
C997 H977 0.950 . S
C997 C993 1.385 . S
C997 C996 1.374 . S
C998 C995 1.499 . S
C998 C999 1.373 . S
C998 C1000 1.389 . S
C999 H978 0.950 . S
C999 C998 1.373 . S
C999 C1015 1.377 . S
C1000 C998 1.389 . S
C1000 C1001 1.524 . S
C1000 C1014 1.377 . S
C1001 C1000 1.524 . S
C1001 C1002 1.397 . S
C1001 C1006 1.363 . S
C1002 H979 0.950 . S
C1002 C1001 1.397 . S
C1002 C1003 1.334 . S
C1003 H980 0.950 . S
C1003 C1002 1.334 . S
C1003 C1004 1.287 . S
C1004 C1003 1.287 . S
C1004 C1005 1.524 . S
C1004 H1023 0.913 . S
C1005 H981 0.950 . S
C1005 C1004 1.524 . S
C1005 C1006 1.415 . S
C1006 H982 0.950 . S
C1006 C1001 1.363 . S
C1006 C1005 1.415 . S
C1007 H983 0.951 . S
C1007 C1008 1.366 . S
C1007 C1009 1.388 . S
C1008 C1007 1.366 . S
C1008 C1012 1.385 . S
C1009 H984 0.951 . S
C1009 C1007 1.388 . S
C1009 C1010 1.366 . S
C1010 C1009 1.366 . S
C1010 C1011 1.414 . S
C1010 C1013 1.499 . S
C1011 H985 0.950 . S
C1011 C1010 1.414 . S
C1011 C1012 1.374 . S
C1012 H986 0.950 . S
C1012 C1008 1.385 . S
C1012 C1011 1.374 . S
C1013 C1010 1.499 . S
C1013 C1014 1.373 . S
C1013 C1015 1.389 . S
C1014 H987 0.950 . S
C1014 C1000 1.377 . S
C1014 C1013 1.373 . S
C1015 C999 1.377 . S
C1015 C1013 1.389 . S
C1015 C1016 1.524 . S
C1016 C1015 1.524 . S
C1016 C1017 1.397 . S
C1016 C1021 1.363 . S
C1017 H988 0.950 . S
C1017 C1016 1.397 . S
C1017 C1018 1.334 . S
C1018 H989 0.950 . S
C1018 C1017 1.334 . S
C1018 C1019 1.287 . S
C1019 C1018 1.287 . S
C1019 C1020 1.524 . S
C1019 H1022 0.999 . S
C1020 H990 0.950 . S
C1020 C1019 1.524 . S
C1020 C1021 1.415 . S
C1021 H991 0.950 . S
C1021 C1016 1.363 . S
C1021 C1020 1.415 . S
H1022 C1019 0.999 . S
H1023 C1004 0.913 . S
H1024 C1042 0.951 . S
H1025 C1044 0.951 . S
H1026 C1046 0.950 . S
H1027 C1047 0.950 . S
H1028 C1049 0.950 . S
H1029 C1052 0.950 . S
H1030 C1053 0.950 . S
H1031 C1055 0.950 . S
H1032 C1056 0.950 . S
H1033 C1057 0.951 . S
H1034 C1059 0.951 . S
H1035 C1061 0.950 . S
H1036 C1062 0.950 . S
H1037 C1064 0.950 . S
H1038 C1067 0.950 . S
H1039 C1068 0.950 . S
H1040 C1070 0.950 . S
H1041 C1071 0.950 . S
C1042 H1024 0.951 . S
C1042 C1043 1.366 . S
C1042 C1044 1.388 . S
C1043 C1042 1.366 . S
C1043 C1047 1.385 . S
C1044 H1025 0.951 . S
C1044 C1042 1.388 . S
C1044 C1045 1.366 . S
C1045 C1044 1.366 . S
C1045 C1046 1.414 . S
C1045 C1048 1.499 . S
C1046 H1026 0.950 . S
C1046 C1045 1.414 . S
C1046 C1047 1.374 . S
C1047 H1027 0.950 . S
C1047 C1043 1.385 . S
C1047 C1046 1.374 . S
C1048 C1045 1.499 . S
C1048 C1049 1.373 . S
C1048 C1050 1.389 . S
C1049 H1028 0.950 . S
C1049 C1048 1.373 . S
C1049 C1065 1.377 . S
C1050 C1048 1.389 . S
C1050 C1051 1.524 . S
C1050 C1064 1.377 . S
C1051 C1050 1.524 . S
C1051 C1052 1.397 . S
C1051 C1056 1.363 . S
C1052 H1029 0.950 . S
C1052 C1051 1.397 . S
C1052 C1053 1.334 . S
C1053 H1030 0.950 . S
C1053 C1052 1.334 . S
C1053 C1054 1.287 . S
C1054 C1053 1.287 . S
C1054 C1055 1.524 . S
C1054 H1073 0.913 . S
C1055 H1031 0.950 . S
C1055 C1054 1.524 . S
C1055 C1056 1.415 . S
C1056 H1032 0.950 . S
C1056 C1051 1.363 . S
C1056 C1055 1.415 . S
C1057 H1033 0.951 . S
C1057 C1058 1.366 . S
C1057 C1059 1.388 . S
C1058 C1057 1.366 . S
C1058 C1062 1.385 . S
C1059 H1034 0.951 . S
C1059 C1057 1.388 . S
C1059 C1060 1.366 . S
C1060 C1059 1.366 . S
C1060 C1061 1.414 . S
C1060 C1063 1.499 . S
C1061 H1035 0.950 . S
C1061 C1060 1.414 . S
C1061 C1062 1.374 . S
C1062 H1036 0.950 . S
C1062 C1058 1.385 . S
C1062 C1061 1.374 . S
C1063 C1060 1.499 . S
C1063 C1064 1.373 . S
C1063 C1065 1.389 . S
C1064 H1037 0.950 . S
C1064 C1050 1.377 . S
C1064 C1063 1.373 . S
C1065 C1049 1.377 . S
C1065 C1063 1.389 . S
C1065 C1066 1.524 . S
C1066 C1065 1.524 . S
C1066 C1067 1.397 . S
C1066 C1071 1.363 . S
C1067 H1038 0.950 . S
C1067 C1066 1.397 . S
C1067 C1068 1.334 . S
C1068 H1039 0.950 . S
C1068 C1067 1.334 . S
C1068 C1069 1.287 . S
C1069 C1068 1.287 . S
C1069 C1070 1.524 . S
C1069 H1072 0.999 . S
C1070 H1040 0.950 . S
C1070 C1069 1.524 . S
C1070 C1071 1.415 . S
C1071 H1041 0.950 . S
C1071 C1066 1.363 . S
C1071 C1070 1.415 . S
H1072 C1069 0.999 . S
H1073 C1054 0.913 . S
H1074 C1092 0.951 . S
H1075 C1094 0.951 . S
H1076 C1096 0.950 . S
H1077 C1097 0.950 . S
H1078 C1099 0.950 . S
H1079 C1102 0.950 . S
H1080 C1103 0.950 . S
H1081 C1105 0.950 . S
H1082 C1106 0.950 . S
H1083 C1107 0.951 . S
H1084 C1109 0.951 . S
H1085 C1111 0.950 . S
H1086 C1112 0.950 . S
H1087 C1114 0.950 . S
H1088 C1117 0.950 . S
H1089 C1118 0.950 . S
H1090 C1120 0.950 . S
H1091 C1121 0.950 . S
C1092 H1074 0.951 . S
C1092 C1093 1.366 . S
C1092 C1094 1.388 . S
C1093 C1092 1.366 . S
C1093 C1097 1.385 . S
C1094 H1075 0.951 . S
C1094 C1092 1.388 . S
C1094 C1095 1.366 . S
C1095 C1094 1.366 . S
C1095 C1096 1.414 . S
C1095 C1098 1.499 . S
C1096 H1076 0.950 . S
C1096 C1095 1.414 . S
C1096 C1097 1.374 . S
C1097 H1077 0.950 . S
C1097 C1093 1.385 . S
C1097 C1096 1.374 . S
C1098 C1095 1.499 . S
C1098 C1099 1.373 . S
C1098 C1100 1.389 . S
C1099 H1078 0.950 . S
C1099 C1098 1.373 . S
C1099 C1115 1.377 . S
C1100 C1098 1.389 . S
C1100 C1101 1.524 . S
C1100 C1114 1.377 . S
C1101 C1100 1.524 . S
C1101 C1102 1.397 . S
C1101 C1106 1.363 . S
C1102 H1079 0.950 . S
C1102 C1101 1.397 . S
C1102 C1103 1.334 . S
C1103 H1080 0.950 . S
C1103 C1102 1.334 . S
C1103 C1104 1.287 . S
C1104 C1103 1.287 . S
C1104 C1105 1.524 . S
C1104 H1123 0.913 . S
C1105 H1081 0.950 . S
C1105 C1104 1.524 . S
C1105 C1106 1.415 . S
C1106 H1082 0.950 . S
C1106 C1101 1.363 . S
C1106 C1105 1.415 . S
C1107 H1083 0.951 . S
C1107 C1108 1.366 . S
C1107 C1109 1.388 . S
C1108 C1107 1.366 . S
C1108 C1112 1.385 . S
C1109 H1084 0.951 . S
C1109 C1107 1.388 . S
C1109 C1110 1.366 . S
C1110 C1109 1.366 . S
C1110 C1111 1.414 . S
C1110 C1113 1.499 . S
C1111 H1085 0.950 . S
C1111 C1110 1.414 . S
C1111 C1112 1.374 . S
C1112 H1086 0.950 . S
C1112 C1108 1.385 . S
C1112 C1111 1.374 . S
C1113 C1110 1.499 . S
C1113 C1114 1.373 . S
C1113 C1115 1.389 . S
C1114 H1087 0.950 . S
C1114 C1100 1.377 . S
C1114 C1113 1.373 . S
C1115 C1099 1.377 . S
C1115 C1113 1.389 . S
C1115 C1116 1.524 . S
C1116 C1115 1.524 . S
C1116 C1117 1.397 . S
C1116 C1121 1.363 . S
C1117 H1088 0.950 . S
C1117 C1116 1.397 . S
C1117 C1118 1.334 . S
C1118 H1089 0.950 . S
C1118 C1117 1.334 . S
C1118 C1119 1.287 . S
C1119 C1118 1.287 . S
C1119 C1120 1.524 . S
C1119 H1122 0.999 . S
C1120 H1090 0.950 . S
C1120 C1119 1.524 . S
C1120 C1121 1.415 . S
C1121 H1091 0.950 . S
C1121 C1116 1.363 . S
C1121 C1120 1.415 . S
H1122 C1119 0.999 . S
H1123 C1104 0.913 . S
H1124 C1142 0.951 . S
H1125 C1144 0.951 . S
H1126 C1146 0.950 . S
H1127 C1147 0.950 . S
H1128 C1149 0.950 . S
H1129 C1152 0.950 . S
H1130 C1153 0.950 . S
H1131 C1155 0.950 . S
H1132 C1156 0.950 . S
H1133 C1157 0.951 . S
H1134 C1159 0.951 . S
H1135 C1161 0.950 . S
H1136 C1162 0.950 . S
H1137 C1164 0.950 . S
H1138 C1167 0.950 . S
H1139 C1168 0.950 . S
H1140 C1170 0.950 . S
H1141 C1171 0.950 . S
C1142 H1124 0.951 . S
C1142 C1143 1.366 . S
C1142 C1144 1.388 . S
C1143 C1142 1.366 . S
C1143 C1147 1.385 . S
C1144 H1125 0.951 . S
C1144 C1142 1.388 . S
C1144 C1145 1.366 . S
C1145 C1144 1.366 . S
C1145 C1146 1.414 . S
C1145 C1148 1.499 . S
C1146 H1126 0.950 . S
C1146 C1145 1.414 . S
C1146 C1147 1.374 . S
C1147 H1127 0.950 . S
C1147 C1143 1.385 . S
C1147 C1146 1.374 . S
C1148 C1145 1.499 . S
C1148 C1149 1.373 . S
C1148 C1150 1.389 . S
C1149 H1128 0.950 . S
C1149 C1148 1.373 . S
C1149 C1165 1.377 . S
C1150 C1148 1.389 . S
C1150 C1151 1.524 . S
C1150 C1164 1.377 . S
C1151 C1150 1.524 . S
C1151 C1152 1.397 . S
C1151 C1156 1.363 . S
C1152 H1129 0.950 . S
C1152 C1151 1.397 . S
C1152 C1153 1.334 . S
C1153 H1130 0.950 . S
C1153 C1152 1.334 . S
C1153 C1154 1.287 . S
C1154 C1153 1.287 . S
C1154 C1155 1.524 . S
C1154 H1173 0.913 . S
C1155 H1131 0.950 . S
C1155 C1154 1.524 . S
C1155 C1156 1.415 . S
C1156 H1132 0.950 . S
C1156 C1151 1.363 . S
C1156 C1155 1.415 . S
C1157 H1133 0.951 . S
C1157 C1158 1.366 . S
C1157 C1159 1.388 . S
C1158 C1157 1.366 . S
C1158 C1162 1.385 . S
C1159 H1134 0.951 . S
C1159 C1157 1.388 . S
C1159 C1160 1.366 . S
C1160 C1159 1.366 . S
C1160 C1161 1.414 . S
C1160 C1163 1.499 . S
C1161 H1135 0.950 . S
C1161 C1160 1.414 . S
C1161 C1162 1.374 . S
C1162 H1136 0.950 . S
C1162 C1158 1.385 . S
C1162 C1161 1.374 . S
C1163 C1160 1.499 . S
C1163 C1164 1.373 . S
C1163 C1165 1.389 . S
C1164 H1137 0.950 . S
C1164 C1150 1.377 . S
C1164 C1163 1.373 . S
C1165 C1149 1.377 . S
C1165 C1163 1.389 . S
C1165 C1166 1.524 . S
C1166 C1165 1.524 . S
C1166 C1167 1.397 . S
C1166 C1171 1.363 . S
C1167 H1138 0.950 . S
C1167 C1166 1.397 . S
C1167 C1168 1.334 . S
C1168 H1139 0.950 . S
C1168 C1167 1.334 . S
C1168 C1169 1.287 . S
C1169 C1168 1.287 . S
C1169 C1170 1.524 . S
C1169 H1172 0.999 . S
C1170 H1140 0.950 . S
C1170 C1169 1.524 . S
C1170 C1171 1.415 . S
C1171 H1141 0.950 . S
C1171 C1166 1.363 . S
C1171 C1170 1.415 . S
H1172 C1169 0.999 . S
H1173 C1154 0.913 . S
H1174 C1192 0.951 . S
H1175 C1194 0.951 . S
H1176 C1196 0.950 . S
H1177 C1197 0.950 . S
H1178 C1199 0.950 . S
H1179 C1202 0.950 . S
H1180 C1203 0.950 . S
H1181 C1205 0.950 . S
H1182 C1206 0.950 . S
H1183 C1207 0.951 . S
H1184 C1209 0.951 . S
H1185 C1211 0.950 . S
H1186 C1212 0.950 . S
H1187 C1214 0.950 . S
H1188 C1217 0.950 . S
H1189 C1218 0.950 . S
H1190 C1220 0.950 . S
H1191 C1221 0.950 . S
C1192 H1174 0.951 . S
C1192 C1193 1.366 . S
C1192 C1194 1.388 . S
C1193 C1192 1.366 . S
C1193 C1197 1.385 . S
C1194 H1175 0.951 . S
C1194 C1192 1.388 . S
C1194 C1195 1.366 . S
C1195 C1194 1.366 . S
C1195 C1196 1.414 . S
C1195 C1198 1.499 . S
C1196 H1176 0.950 . S
C1196 C1195 1.414 . S
C1196 C1197 1.374 . S
C1197 H1177 0.950 . S
C1197 C1193 1.385 . S
C1197 C1196 1.374 . S
C1198 C1195 1.499 . S
C1198 C1199 1.373 . S
C1198 C1200 1.389 . S
C1199 H1178 0.950 . S
C1199 C1198 1.373 . S
C1199 C1215 1.377 . S
C1200 C1198 1.389 . S
C1200 C1201 1.524 . S
C1200 C1214 1.377 . S
C1201 C1200 1.524 . S
C1201 C1202 1.397 . S
C1201 C1206 1.363 . S
C1202 H1179 0.950 . S
C1202 C1201 1.397 . S
C1202 C1203 1.334 . S
C1203 H1180 0.950 . S
C1203 C1202 1.334 . S
C1203 C1204 1.287 . S
C1204 C1203 1.287 . S
C1204 C1205 1.524 . S
C1204 H1223 0.913 . S
C1205 H1181 0.950 . S
C1205 C1204 1.524 . S
C1205 C1206 1.415 . S
C1206 H1182 0.950 . S
C1206 C1201 1.363 . S
C1206 C1205 1.415 . S
C1207 H1183 0.951 . S
C1207 C1208 1.366 . S
C1207 C1209 1.388 . S
C1208 C1207 1.366 . S
C1208 C1212 1.385 . S
C1209 H1184 0.951 . S
C1209 C1207 1.388 . S
C1209 C1210 1.366 . S
C1210 C1209 1.366 . S
C1210 C1211 1.414 . S
C1210 C1213 1.499 . S
C1211 H1185 0.950 . S
C1211 C1210 1.414 . S
C1211 C1212 1.374 . S
C1212 H1186 0.950 . S
C1212 C1208 1.385 . S
C1212 C1211 1.374 . S
C1213 C1210 1.499 . S
C1213 C1214 1.373 . S
C1213 C1215 1.389 . S
C1214 H1187 0.950 . S
C1214 C1200 1.377 . S
C1214 C1213 1.373 . S
C1215 C1199 1.377 . S
C1215 C1213 1.389 . S
C1215 C1216 1.524 . S
C1216 C1215 1.524 . S
C1216 C1217 1.397 . S
C1216 C1221 1.363 . S
C1217 H1188 0.950 . S
C1217 C1216 1.397 . S
C1217 C1218 1.334 . S
C1218 H1189 0.950 . S
C1218 C1217 1.334 . S
C1218 C1219 1.287 . S
C1219 C1218 1.287 . S
C1219 C1220 1.524 . S
C1219 H1222 0.999 . S
C1220 H1190 0.950 . S
C1220 C1219 1.524 . S
C1220 C1221 1.415 . S
C1221 H1191 0.950 . S
C1221 C1216 1.363 . S
C1221 C1220 1.415 . S
H1222 C1219 0.999 . S
H1223 C1204 0.913 . S
H1224 C1242 0.951 . S
H1225 C1244 0.951 . S
H1226 C1246 0.950 . S
H1227 C1247 0.950 . S
H1228 C1249 0.950 . S
H1229 C1252 0.950 . S
H1230 C1253 0.950 . S
H1231 C1255 0.950 . S
H1232 C1256 0.950 . S
H1233 C1257 0.951 . S
H1234 C1259 0.951 . S
H1235 C1261 0.950 . S
H1236 C1262 0.950 . S
H1237 C1264 0.950 . S
H1238 C1267 0.950 . S
H1239 C1268 0.950 . S
H1240 C1270 0.950 . S
H1241 C1271 0.950 . S
C1242 H1224 0.951 . S
C1242 C1243 1.366 . S
C1242 C1244 1.388 . S
C1243 C1242 1.366 . S
C1243 C1247 1.385 . S
C1244 H1225 0.951 . S
C1244 C1242 1.388 . S
C1244 C1245 1.366 . S
C1245 C1244 1.366 . S
C1245 C1246 1.414 . S
C1245 C1248 1.499 . S
C1246 H1226 0.950 . S
C1246 C1245 1.414 . S
C1246 C1247 1.374 . S
C1247 H1227 0.950 . S
C1247 C1243 1.385 . S
C1247 C1246 1.374 . S
C1248 C1245 1.499 . S
C1248 C1249 1.373 . S
C1248 C1250 1.389 . S
C1249 H1228 0.950 . S
C1249 C1248 1.373 . S
C1249 C1265 1.377 . S
C1250 C1248 1.389 . S
C1250 C1251 1.524 . S
C1250 C1264 1.377 . S
C1251 C1250 1.524 . S
C1251 C1252 1.397 . S
C1251 C1256 1.363 . S
C1252 H1229 0.950 . S
C1252 C1251 1.397 . S
C1252 C1253 1.334 . S
C1253 H1230 0.950 . S
C1253 C1252 1.334 . S
C1253 C1254 1.287 . S
C1254 C1253 1.287 . S
C1254 C1255 1.524 . S
C1254 H1273 0.913 . S
C1255 H1231 0.950 . S
C1255 C1254 1.524 . S
C1255 C1256 1.415 . S
C1256 H1232 0.950 . S
C1256 C1251 1.363 . S
C1256 C1255 1.415 . S
C1257 H1233 0.951 . S
C1257 C1258 1.366 . S
C1257 C1259 1.388 . S
C1258 C1257 1.366 . S
C1258 C1262 1.385 . S
C1259 H1234 0.951 . S
C1259 C1257 1.388 . S
C1259 C1260 1.366 . S
C1260 C1259 1.366 . S
C1260 C1261 1.414 . S
C1260 C1263 1.499 . S
C1261 H1235 0.950 . S
C1261 C1260 1.414 . S
C1261 C1262 1.374 . S
C1262 H1236 0.950 . S
C1262 C1258 1.385 . S
C1262 C1261 1.374 . S
C1263 C1260 1.499 . S
C1263 C1264 1.373 . S
C1263 C1265 1.389 . S
C1264 H1237 0.950 . S
C1264 C1250 1.377 . S
C1264 C1263 1.373 . S
C1265 C1249 1.377 . S
C1265 C1263 1.389 . S
C1265 C1266 1.524 . S
C1266 C1265 1.524 . S
C1266 C1267 1.397 . S
C1266 C1271 1.363 . S
C1267 H1238 0.950 . S
C1267 C1266 1.397 . S
C1267 C1268 1.334 . S
C1268 H1239 0.950 . S
C1268 C1267 1.334 . S
C1268 C1269 1.287 . S
C1269 C1268 1.287 . S
C1269 C1270 1.524 . S
C1269 H1272 0.999 . S
C1270 H1240 0.950 . S
C1270 C1269 1.524 . S
C1270 C1271 1.415 . S
C1271 H1241 0.950 . S
C1271 C1266 1.363 . S
C1271 C1270 1.415 . S
H1272 C1269 0.999 . S
H1273 C1254 0.913 . S
H1274 C1292 0.951 . S
H1275 C1294 0.951 . S
H1276 C1296 0.950 . S
H1277 C1297 0.950 . S
H1278 C1299 0.950 . S
H1279 C1302 0.950 . S
H1280 C1303 0.950 . S
H1281 C1305 0.950 . S
H1282 C1306 0.950 . S
H1283 C1307 0.951 . S
H1284 C1309 0.951 . S
H1285 C1311 0.950 . S
H1286 C1312 0.950 . S
H1287 C1314 0.950 . S
H1288 C1317 0.950 . S
H1289 C1318 0.950 . S
H1290 C1320 0.950 . S
H1291 C1321 0.950 . S
C1292 H1274 0.951 . S
C1292 C1293 1.366 . S
C1292 C1294 1.388 . S
C1293 C1292 1.366 . S
C1293 C1297 1.385 . S
C1294 H1275 0.951 . S
C1294 C1292 1.388 . S
C1294 C1295 1.366 . S
C1295 C1294 1.366 . S
C1295 C1296 1.414 . S
C1295 C1298 1.499 . S
C1296 H1276 0.950 . S
C1296 C1295 1.414 . S
C1296 C1297 1.374 . S
C1297 H1277 0.950 . S
C1297 C1293 1.385 . S
C1297 C1296 1.374 . S
C1298 C1295 1.499 . S
C1298 C1299 1.373 . S
C1298 C1300 1.389 . S
C1299 H1278 0.950 . S
C1299 C1298 1.373 . S
C1299 C1315 1.377 . S
C1300 C1298 1.389 . S
C1300 C1301 1.524 . S
C1300 C1314 1.377 . S
C1301 C1300 1.524 . S
C1301 C1302 1.397 . S
C1301 C1306 1.363 . S
C1302 H1279 0.950 . S
C1302 C1301 1.397 . S
C1302 C1303 1.334 . S
C1303 H1280 0.950 . S
C1303 C1302 1.334 . S
C1303 C1304 1.287 . S
C1304 C1303 1.287 . S
C1304 C1305 1.524 . S
C1304 H1323 0.913 . S
C1305 H1281 0.950 . S
C1305 C1304 1.524 . S
C1305 C1306 1.415 . S
C1306 H1282 0.950 . S
C1306 C1301 1.363 . S
C1306 C1305 1.415 . S
C1307 H1283 0.951 . S
C1307 C1308 1.366 . S
C1307 C1309 1.388 . S
C1308 C1307 1.366 . S
C1308 C1312 1.385 . S
C1309 H1284 0.951 . S
C1309 C1307 1.388 . S
C1309 C1310 1.366 . S
C1310 C1309 1.366 . S
C1310 C1311 1.414 . S
C1310 C1313 1.499 . S
C1311 H1285 0.950 . S
C1311 C1310 1.414 . S
C1311 C1312 1.374 . S
C1312 H1286 0.950 . S
C1312 C1308 1.385 . S
C1312 C1311 1.374 . S
C1313 C1310 1.499 . S
C1313 C1314 1.373 . S
C1313 C1315 1.389 . S
C1314 H1287 0.950 . S
C1314 C1300 1.377 . S
C1314 C1313 1.373 . S
C1315 C1299 1.377 . S
C1315 C1313 1.389 . S
C1315 C1316 1.524 . S
C1316 C1315 1.524 . S
C1316 C1317 1.397 . S
C1316 C1321 1.363 . S
C1317 H1288 0.950 . S
C1317 C1316 1.397 . S
C1317 C1318 1.334 . S
C1318 H1289 0.950 . S
C1318 C1317 1.334 . S
C1318 C1319 1.287 . S
C1319 C1318 1.287 . S
C1319 C1320 1.524 . S
C1319 H1322 0.999 . S
C1320 H1290 0.950 . S
C1320 C1319 1.524 . S
C1320 C1321 1.415 . S
C1321 H1291 0.950 . S
C1321 C1316 1.363 . S
C1321 C1320 1.415 . S
H1322 C1319 0.999 . S
H1323 C1304 0.913 . S
H1324 C1342 0.951 . S
H1325 C1344 0.951 . S
H1326 C1346 0.950 . S
H1327 C1347 0.950 . S
H1328 C1349 0.950 . S
H1329 C1352 0.950 . S
H1330 C1353 0.950 . S
H1331 C1355 0.950 . S
H1332 C1356 0.950 . S
H1333 C1357 0.951 . S
H1334 C1359 0.951 . S
H1335 C1361 0.950 . S
H1336 C1362 0.950 . S
H1337 C1364 0.950 . S
H1338 C1367 0.950 . S
H1339 C1368 0.950 . S
H1340 C1370 0.950 . S
H1341 C1371 0.950 . S
C1342 H1324 0.951 . S
C1342 C1343 1.366 . S
C1342 C1344 1.388 . S
C1343 C1342 1.366 . S
C1343 C1347 1.385 . S
C1344 H1325 0.951 . S
C1344 C1342 1.388 . S
C1344 C1345 1.366 . S
C1345 C1344 1.366 . S
C1345 C1346 1.414 . S
C1345 C1348 1.499 . S
C1346 H1326 0.950 . S
C1346 C1345 1.414 . S
C1346 C1347 1.374 . S
C1347 H1327 0.950 . S
C1347 C1343 1.385 . S
C1347 C1346 1.374 . S
C1348 C1345 1.499 . S
C1348 C1349 1.373 . S
C1348 C1350 1.389 . S
C1349 H1328 0.950 . S
C1349 C1348 1.373 . S
C1349 C1365 1.377 . S
C1350 C1348 1.389 . S
C1350 C1351 1.524 . S
C1350 C1364 1.377 . S
C1351 C1350 1.524 . S
C1351 C1352 1.397 . S
C1351 C1356 1.363 . S
C1352 H1329 0.950 . S
C1352 C1351 1.397 . S
C1352 C1353 1.334 . S
C1353 H1330 0.950 . S
C1353 C1352 1.334 . S
C1353 C1354 1.287 . S
C1354 C1353 1.287 . S
C1354 C1355 1.524 . S
C1354 H1373 0.913 . S
C1355 H1331 0.950 . S
C1355 C1354 1.524 . S
C1355 C1356 1.415 . S
C1356 H1332 0.950 . S
C1356 C1351 1.363 . S
C1356 C1355 1.415 . S
C1357 H1333 0.951 . S
C1357 C1358 1.366 . S
C1357 C1359 1.388 . S
C1358 C1357 1.366 . S
C1358 C1362 1.385 . S
C1359 H1334 0.951 . S
C1359 C1357 1.388 . S
C1359 C1360 1.366 . S
C1360 C1359 1.366 . S
C1360 C1361 1.414 . S
C1360 C1363 1.499 . S
C1361 H1335 0.950 . S
C1361 C1360 1.414 . S
C1361 C1362 1.374 . S
C1362 H1336 0.950 . S
C1362 C1358 1.385 . S
C1362 C1361 1.374 . S
C1363 C1360 1.499 . S
C1363 C1364 1.373 . S
C1363 C1365 1.389 . S
C1364 H1337 0.950 . S
C1364 C1350 1.377 . S
C1364 C1363 1.373 . S
C1365 C1349 1.377 . S
C1365 C1363 1.389 . S
C1365 C1366 1.524 . S
C1366 C1365 1.524 . S
C1366 C1367 1.397 . S
C1366 C1371 1.363 . S
C1367 H1338 0.950 . S
C1367 C1366 1.397 . S
C1367 C1368 1.334 . S
C1368 H1339 0.950 . S
C1368 C1367 1.334 . S
C1368 C1369 1.287 . S
C1369 C1368 1.287 . S
C1369 C1370 1.524 . S
C1369 H1372 0.999 . S
C1370 H1340 0.950 . S
C1370 C1369 1.524 . S
C1370 C1371 1.415 . S
C1371 H1341 0.950 . S
C1371 C1366 1.363 . S
C1371 C1370 1.415 . S
H1372 C1369 0.999 . S
H1373 C1354 0.913 . S
H1374 C1392 0.951 . S
H1375 C1394 0.951 . S
H1376 C1396 0.950 . S
H1377 C1397 0.950 . S
H1378 C1399 0.950 . S
H1379 C1402 0.950 . S
H1380 C1403 0.950 . S
H1381 C1405 0.950 . S
H1382 C1406 0.950 . S
H1383 C1407 0.951 . S
H1384 C1409 0.951 . S
H1385 C1411 0.950 . S
H1386 C1412 0.950 . S
H1387 C1414 0.950 . S
H1388 C1417 0.950 . S
H1389 C1418 0.950 . S
H1390 C1420 0.950 . S
H1391 C1421 0.950 . S
C1392 H1374 0.951 . S
C1392 C1393 1.366 . S
C1392 C1394 1.388 . S
C1393 C1392 1.366 . S
C1393 C1397 1.385 . S
C1394 H1375 0.951 . S
C1394 C1392 1.388 . S
C1394 C1395 1.366 . S
C1395 C1394 1.366 . S
C1395 C1396 1.414 . S
C1395 C1398 1.499 . S
C1396 H1376 0.950 . S
C1396 C1395 1.414 . S
C1396 C1397 1.374 . S
C1397 H1377 0.950 . S
C1397 C1393 1.385 . S
C1397 C1396 1.374 . S
C1398 C1395 1.499 . S
C1398 C1399 1.373 . S
C1398 C1400 1.389 . S
C1399 H1378 0.950 . S
C1399 C1398 1.373 . S
C1399 C1415 1.377 . S
C1400 C1398 1.389 . S
C1400 C1401 1.524 . S
C1400 C1414 1.377 . S
C1401 C1400 1.524 . S
C1401 C1402 1.397 . S
C1401 C1406 1.363 . S
C1402 H1379 0.950 . S
C1402 C1401 1.397 . S
C1402 C1403 1.334 . S
C1403 H1380 0.950 . S
C1403 C1402 1.334 . S
C1403 C1404 1.287 . S
C1404 C1403 1.287 . S
C1404 C1405 1.524 . S
C1404 H1423 0.913 . S
C1405 H1381 0.950 . S
C1405 C1404 1.524 . S
C1405 C1406 1.415 . S
C1406 H1382 0.950 . S
C1406 C1401 1.363 . S
C1406 C1405 1.415 . S
C1407 H1383 0.951 . S
C1407 C1408 1.366 . S
C1407 C1409 1.388 . S
C1408 C1407 1.366 . S
C1408 C1412 1.385 . S
C1409 H1384 0.951 . S
C1409 C1407 1.388 . S
C1409 C1410 1.366 . S
C1410 C1409 1.366 . S
C1410 C1411 1.414 . S
C1410 C1413 1.499 . S
C1411 H1385 0.950 . S
C1411 C1410 1.414 . S
C1411 C1412 1.374 . S
C1412 H1386 0.950 . S
C1412 C1408 1.385 . S
C1412 C1411 1.374 . S
C1413 C1410 1.499 . S
C1413 C1414 1.373 . S
C1413 C1415 1.389 . S
C1414 H1387 0.950 . S
C1414 C1400 1.377 . S
C1414 C1413 1.373 . S
C1415 C1399 1.377 . S
C1415 C1413 1.389 . S
C1415 C1416 1.524 . S
C1416 C1415 1.524 . S
C1416 C1417 1.397 . S
C1416 C1421 1.363 . S
C1417 H1388 0.950 . S
C1417 C1416 1.397 . S
C1417 C1418 1.334 . S
C1418 H1389 0.950 . S
C1418 C1417 1.334 . S
C1418 C1419 1.287 . S
C1419 C1418 1.287 . S
C1419 C1420 1.524 . S
C1419 H1422 0.999 . S
C1420 H1390 0.950 . S
C1420 C1419 1.524 . S
C1420 C1421 1.415 . S
C1421 H1391 0.950 . S
C1421 C1416 1.363 . S
C1421 C1420 1.415 . S
H1422 C1419 0.999 . S
H1423 C1404 0.913 . S
H1424 C1442 0.951 . S
H1425 C1444 0.951 . S
H1426 C1446 0.950 . S
H1427 C1447 0.950 . S
H1428 C1449 0.950 . S
H1429 C1452 0.950 . S
H1430 C1453 0.950 . S
H1431 C1455 0.950 . S
H1432 C1456 0.950 . S
H1433 C1457 0.951 . S
H1434 C1459 0.951 . S
H1435 C1461 0.950 . S
H1436 C1462 0.950 . S
H1437 C1464 0.950 . S
H1438 C1467 0.950 . S
H1439 C1468 0.950 . S
H1440 C1470 0.950 . S
H1441 C1471 0.950 . S
C1442 H1424 0.951 . S
C1442 C1443 1.366 . S
C1442 C1444 1.388 . S
C1443 C1442 1.366 . S
C1443 C1447 1.385 . S
C1444 H1425 0.951 . S
C1444 C1442 1.388 . S
C1444 C1445 1.366 . S
C1445 C1444 1.366 . S
C1445 C1446 1.414 . S
C1445 C1448 1.499 . S
C1446 H1426 0.950 . S
C1446 C1445 1.414 . S
C1446 C1447 1.374 . S
C1447 H1427 0.950 . S
C1447 C1443 1.385 . S
C1447 C1446 1.374 . S
C1448 C1445 1.499 . S
C1448 C1449 1.373 . S
C1448 C1450 1.389 . S
C1449 H1428 0.950 . S
C1449 C1448 1.373 . S
C1449 C1465 1.377 1_545 S
C1450 C1448 1.389 . S
C1450 C1451 1.524 . S
C1450 C1464 1.377 1_545 S
C1451 C1450 1.524 . S
C1451 C1452 1.397 . S
C1451 C1456 1.363 1_545 S
C1452 H1429 0.950 . S
C1452 C1451 1.397 . S
C1452 C1453 1.334 . S
C1453 H1430 0.950 . S
C1453 C1452 1.334 . S
C1453 C1454 1.287 . S
C1454 C1453 1.287 . S
C1454 C1455 1.524 1_545 S
C1454 H1473 0.913 . S
C1455 H1431 0.950 . S
C1455 C1454 1.524 1_565 S
C1455 C1456 1.415 . S
C1456 H1432 0.950 . S
C1456 C1451 1.363 1_565 S
C1456 C1455 1.415 . S
C1457 H1433 0.951 . S
C1457 C1458 1.366 . S
C1457 C1459 1.388 . S
C1458 C1457 1.366 . S
C1458 C1462 1.385 . S
C1459 H1434 0.951 . S
C1459 C1457 1.388 . S
C1459 C1460 1.366 . S
C1460 C1459 1.366 . S
C1460 C1461 1.414 . S
C1460 C1463 1.499 . S
C1461 H1435 0.950 . S
C1461 C1460 1.414 . S
C1461 C1462 1.374 . S
C1462 H1436 0.950 . S
C1462 C1458 1.385 . S
C1462 C1461 1.374 . S
C1463 C1460 1.499 . S
C1463 C1464 1.373 . S
C1463 C1465 1.389 . S
C1464 H1437 0.950 . S
C1464 C1450 1.377 1_565 S
C1464 C1463 1.373 . S
C1465 C1449 1.377 1_565 S
C1465 C1463 1.389 . S
C1465 C1466 1.524 . S
C1466 C1465 1.524 . S
C1466 C1467 1.397 . S
C1466 C1471 1.363 1_565 S
C1467 H1438 0.950 . S
C1467 C1466 1.397 . S
C1467 C1468 1.334 . S
C1468 H1439 0.950 . S
C1468 C1467 1.334 . S
C1468 C1469 1.287 . S
C1469 C1468 1.287 . S
C1469 C1470 1.524 1_565 S
C1469 H1472 0.999 . S
C1470 H1440 0.950 . S
C1470 C1469 1.524 1_545 S
C1470 C1471 1.415 . S
C1471 H1441 0.950 . S
C1471 C1466 1.363 1_545 S
C1471 C1470 1.415 . S
H1472 C1469 0.999 . S
H1473 C1454 0.913 . S
H1474 C1492 0.951 . S
H1475 C1494 0.951 . S
H1476 C1496 0.950 . S
H1477 C1497 0.950 . S
H1478 C1499 0.950 . S
H1479 C1502 0.950 . S
H1480 C1503 0.950 . S
H1481 C1505 0.950 . S
H1482 C1506 0.950 . S
H1483 C1507 0.951 . S
H1484 C1509 0.951 . S
H1485 C1511 0.950 . S
H1486 C1512 0.950 . S
H1487 C1514 0.950 . S
H1488 C1517 0.950 . S
H1489 C1518 0.950 . S
H1490 C1520 0.950 . S
H1491 C1521 0.950 . S
C1492 H1474 0.951 . S
C1492 C1493 1.366 . S
C1492 C1494 1.388 . S
C1493 C1492 1.366 . S
C1493 C1497 1.385 . S
C1494 H1475 0.951 . S
C1494 C1492 1.388 . S
C1494 C1495 1.366 . S
C1495 C1494 1.366 . S
C1495 C1496 1.414 . S
C1495 C1498 1.499 . S
C1496 H1476 0.950 . S
C1496 C1495 1.414 . S
C1496 C1497 1.374 . S
C1497 H1477 0.950 . S
C1497 C1493 1.385 . S
C1497 C1496 1.374 . S
C1498 C1495 1.499 . S
C1498 C1499 1.373 . S
C1498 C1500 1.389 . S
C1499 H1478 0.950 . S
C1499 C1498 1.373 . S
C1499 C1515 1.377 1_655 S
C1500 C1498 1.389 . S
C1500 C1501 1.524 . S
C1500 C1514 1.377 1_655 S
C1501 C1500 1.524 . S
C1501 C1502 1.397 . S
C1501 C1506 1.363 1_655 S
C1502 H1479 0.950 . S
C1502 C1501 1.397 . S
C1502 C1503 1.334 . S
C1503 H1480 0.950 . S
C1503 C1502 1.334 . S
C1503 C1504 1.287 . S
C1504 C1503 1.287 . S
C1504 C1505 1.524 1_655 S
C1504 H1523 0.913 . S
C1505 H1481 0.950 . S
C1505 C1504 1.524 1_455 S
C1505 C1506 1.415 . S
C1506 H1482 0.950 . S
C1506 C1501 1.363 1_455 S
C1506 C1505 1.415 . S
C1507 H1483 0.951 . S
C1507 C1508 1.366 . S
C1507 C1509 1.388 . S
C1508 C1507 1.366 . S
C1508 C1512 1.385 . S
C1509 H1484 0.951 . S
C1509 C1507 1.388 . S
C1509 C1510 1.366 . S
C1510 C1509 1.366 . S
C1510 C1511 1.414 . S
C1510 C1513 1.499 . S
C1511 H1485 0.950 . S
C1511 C1510 1.414 . S
C1511 C1512 1.374 . S
C1512 H1486 0.950 . S
C1512 C1508 1.385 . S
C1512 C1511 1.374 . S
C1513 C1510 1.499 . S
C1513 C1514 1.373 . S
C1513 C1515 1.389 . S
C1514 H1487 0.950 . S
C1514 C1500 1.377 1_455 S
C1514 C1513 1.373 . S
C1515 C1499 1.377 1_455 S
C1515 C1513 1.389 . S
C1515 C1516 1.524 . S
C1516 C1515 1.524 . S
C1516 C1517 1.397 . S
C1516 C1521 1.363 1_455 S
C1517 H1488 0.950 . S
C1517 C1516 1.397 . S
C1517 C1518 1.334 . S
C1518 H1489 0.950 . S
C1518 C1517 1.334 . S
C1518 C1519 1.287 . S
C1519 C1518 1.287 . S
C1519 C1520 1.524 1_455 S
C1519 H1522 0.999 . S
C1520 H1490 0.950 . S
C1520 C1519 1.524 1_655 S
C1520 C1521 1.415 . S
C1521 H1491 0.950 . S
C1521 C1516 1.363 1_655 S
C1521 C1520 1.415 . S
H1522 C1519 0.999 . S
H1523 C1504 0.913 . S
H1524 C1542 0.951 . S
H1525 C1544 0.951 . S
H1526 C1546 0.950 . S
H1527 C1547 0.950 . S
H1528 C1549 0.950 . S
H1529 C1552 0.950 . S
H1530 C1553 0.950 . S
H1531 C1555 0.921 1_565 S
H1532 C1556 0.950 . S
H1533 C1557 0.951 . S
H1534 C1559 0.951 . S
H1535 C1561 0.950 . S
H1536 C1562 0.950 . S
H1537 C1564 0.950 . S
H1538 C1567 0.950 . S
H1539 C1568 0.950 . S
H1540 C1570 0.921 1_545 S
H1541 C1571 0.950 . S
C1542 H1524 0.951 . S
C1542 C1543 1.366 . S
C1542 C1544 1.388 . S
C1543 C1542 1.366 . S
C1543 C1547 1.385 . S
C1544 H1525 0.951 . S
C1544 C1542 1.388 . S
C1544 C1545 1.366 . S
C1545 C1544 1.366 . S
C1545 C1546 1.414 . S
C1545 C1548 1.499 . S
C1546 H1526 0.950 . S
C1546 C1545 1.414 . S
C1546 C1547 1.374 . S
C1547 H1527 0.950 . S
C1547 C1543 1.385 . S
C1547 C1546 1.374 . S
C1548 C1545 1.499 . S
C1548 C1549 1.373 . S
C1548 C1550 1.389 . S
C1549 H1528 0.950 . S
C1549 C1548 1.373 . S
C1549 C1565 1.377 1_545 S
C1550 C1548 1.389 . S
C1550 C1551 1.524 . S
C1550 C1564 1.377 1_545 S
C1551 C1550 1.524 . S
C1551 C1552 1.397 . S
C1551 C1556 1.363 1_545 S
C1552 H1529 0.950 . S
C1552 C1551 1.397 . S
C1552 C1553 1.334 . S
C1553 H1530 0.950 . S
C1553 C1552 1.334 . S
C1553 C1554 1.287 . S
C1554 C1553 1.287 . S
C1554 C1555 1.568 . S
C1554 H1573 0.913 . S
C1555 H1531 0.921 1_545 S
C1555 C1554 1.568 . S
C1555 C1556 1.406 1_545 S
C1556 H1532 0.950 . S
C1556 C1551 1.363 1_565 S
C1556 C1555 1.406 1_565 S
C1557 H1533 0.951 . S
C1557 C1558 1.366 . S
C1557 C1559 1.388 . S
C1558 C1557 1.366 . S
C1558 C1562 1.385 . S
C1559 H1534 0.951 . S
C1559 C1557 1.388 . S
C1559 C1560 1.366 . S
C1560 C1559 1.366 . S
C1560 C1561 1.414 . S
C1560 C1563 1.499 . S
C1561 H1535 0.950 . S
C1561 C1560 1.414 . S
C1561 C1562 1.374 . S
C1562 H1536 0.950 . S
C1562 C1558 1.385 . S
C1562 C1561 1.374 . S
C1563 C1560 1.499 . S
C1563 C1564 1.373 . S
C1563 C1565 1.389 . S
C1564 H1537 0.950 . S
C1564 C1550 1.377 1_565 S
C1564 C1563 1.373 . S
C1565 C1549 1.377 1_565 S
C1565 C1563 1.389 . S
C1565 C1566 1.524 . S
C1566 C1565 1.524 . S
C1566 C1567 1.397 . S
C1566 C1571 1.363 1_565 S
C1567 H1538 0.950 . S
C1567 C1566 1.397 . S
C1567 C1568 1.334 . S
C1568 H1539 0.950 . S
C1568 C1567 1.334 . S
C1568 C1569 1.287 . S
C1569 C1568 1.287 . S
C1569 C1570 1.568 . S
C1569 H1572 0.999 . S
C1570 H1540 0.921 1_565 S
C1570 C1569 1.568 . S
C1570 C1571 1.406 1_565 S
C1571 H1541 0.950 . S
C1571 C1566 1.363 1_545 S
C1571 C1570 1.406 1_545 S
H1572 C1569 0.999 . S
H1573 C1554 0.913 . S
H1574 C1592 0.951 . S
H1575 C1594 0.951 . S
H1576 C1596 0.950 . S
H1577 C1597 0.950 . S
H1578 C1599 0.950 . S
H1579 C1602 0.950 . S
H1580 C1603 0.950 . S
H1581 C1605 0.950 . S
H1582 C1606 0.950 . S
H1583 C1607 0.951 . S
H1584 C1609 0.951 . S
H1585 C1611 0.950 . S
H1586 C1612 0.950 . S
H1587 C1614 0.950 . S
H1588 C1617 0.950 . S
H1589 C1618 0.950 . S
H1590 C1620 0.950 . S
H1591 C1621 0.950 . S
C1592 H1574 0.951 . S
C1592 C1593 1.366 . S
C1592 C1594 1.388 . S
C1593 C1592 1.366 . S
C1593 C1597 1.385 . S
C1594 H1575 0.951 . S
C1594 C1592 1.388 . S
C1594 C1595 1.366 . S
C1595 C1594 1.366 . S
C1595 C1596 1.414 . S
C1595 C1598 1.499 . S
C1596 H1576 0.950 . S
C1596 C1595 1.414 . S
C1596 C1597 1.374 . S
C1597 H1577 0.950 . S
C1597 C1593 1.385 . S
C1597 C1596 1.374 . S
C1598 C1595 1.499 . S
C1598 C1599 1.373 . S
C1598 C1600 1.389 . S
C1599 H1578 0.950 . S
C1599 C1598 1.373 . S
C1599 C1615 1.377 1_455 S
C1600 C1598 1.389 . S
C1600 C1601 1.524 . S
C1600 C1614 1.377 1_455 S
C1601 C1600 1.524 . S
C1601 C1602 1.397 . S
C1601 C1606 1.363 . S
C1602 H1579 0.950 . S
C1602 C1601 1.397 . S
C1602 C1603 1.334 . S
C1603 H1580 0.950 . S
C1603 C1602 1.334 . S
C1603 C1604 1.287 . S
C1604 C1603 1.287 . S
C1604 C1605 1.524 . S
C1604 H1623 0.913 . S
C1605 H1581 0.950 . S
C1605 C1604 1.524 . S
C1605 C1606 1.415 . S
C1606 H1582 0.950 . S
C1606 C1601 1.363 . S
C1606 C1605 1.415 . S
C1607 H1583 0.951 . S
C1607 C1608 1.366 . S
C1607 C1609 1.388 . S
C1608 C1607 1.366 . S
C1608 C1612 1.385 . S
C1609 H1584 0.951 . S
C1609 C1607 1.388 . S
C1609 C1610 1.366 . S
C1610 C1609 1.366 . S
C1610 C1611 1.414 . S
C1610 C1613 1.499 . S
C1611 H1585 0.950 . S
C1611 C1610 1.414 . S
C1611 C1612 1.374 . S
C1612 H1586 0.950 . S
C1612 C1608 1.385 . S
C1612 C1611 1.374 . S
C1613 C1610 1.499 . S
C1613 C1614 1.373 . S
C1613 C1615 1.389 . S
C1614 H1587 0.950 . S
C1614 C1600 1.377 1_655 S
C1614 C1613 1.373 . S
C1615 C1599 1.377 1_655 S
C1615 C1613 1.389 . S
C1615 C1616 1.524 . S
C1616 C1615 1.524 . S
C1616 C1617 1.397 . S
C1616 C1621 1.363 . S
C1617 H1588 0.950 . S
C1617 C1616 1.397 . S
C1617 C1618 1.334 . S
C1618 H1589 0.950 . S
C1618 C1617 1.334 . S
C1618 C1619 1.287 . S
C1619 C1618 1.287 . S
C1619 C1620 1.524 . S
C1619 H1622 0.999 . S
C1620 H1590 0.950 . S
C1620 C1619 1.524 . S
C1620 C1621 1.415 . S
C1621 H1591 0.950 . S
C1621 C1616 1.363 . S
C1621 C1620 1.415 . S
H1622 C1619 0.999 . S
H1623 C1604 0.913 . S
H1624 C1642 0.951 . S
H1625 C1644 0.951 . S
H1626 C1646 0.950 . S
H1627 C1647 0.950 . S
H1628 C1649 0.950 . S
H1629 C1652 0.950 . S
H1630 C1653 0.950 . S
H1631 C1655 0.950 . S
H1632 C1656 0.950 . S
H1633 C1657 0.951 . S
H1634 C1659 0.951 . S
H1635 C1661 0.950 . S
H1636 C1662 0.950 . S
H1637 C1664 0.950 . S
H1638 C1667 0.950 . S
H1639 C1668 0.950 . S
H1640 C1670 0.950 . S
H1641 C1671 0.950 . S
C1642 H1624 0.951 . S
C1642 C1643 1.366 . S
C1642 C1644 1.388 . S
C1643 C1642 1.366 . S
C1643 C1647 1.385 . S
C1644 H1625 0.951 . S
C1644 C1642 1.388 . S
C1644 C1645 1.366 . S
C1645 C1644 1.366 . S
C1645 C1646 1.414 . S
C1645 C1648 1.499 . S
C1646 H1626 0.950 . S
C1646 C1645 1.414 . S
C1646 C1647 1.374 . S
C1647 H1627 0.950 . S
C1647 C1643 1.385 . S
C1647 C1646 1.374 . S
C1648 C1645 1.499 . S
C1648 C1649 1.373 . S
C1648 C1650 1.389 . S
C1649 H1628 0.950 . S
C1649 C1648 1.373 . S
C1649 C1665 1.377 1_545 S
C1650 C1648 1.389 . S
C1650 C1651 1.526 . S
C1650 C1664 1.377 1_545 S
C1651 C1650 1.526 . S
C1651 C1652 1.420 . S
C1651 C1656 1.338 1_545 S
C1652 H1629 0.950 . S
C1652 C1651 1.420 . S
C1652 C1653 1.334 . S
C1653 H1630 0.950 . S
C1653 C1652 1.334 . S
C1653 C1654 1.306 . S
C1654 C1653 1.306 . S
C1654 C1655 1.506 1_545 S
C1654 H1673 0.915 . S
C1655 H1631 0.950 . S
C1655 C1654 1.506 1_565 S
C1655 C1656 1.415 . S
C1656 H1632 0.950 . S
C1656 C1651 1.338 1_565 S
C1656 C1655 1.415 . S
C1657 H1633 0.951 . S
C1657 C1658 1.366 . S
C1657 C1659 1.388 . S
C1658 C1657 1.366 . S
C1658 C1662 1.385 . S
C1659 H1634 0.951 . S
C1659 C1657 1.388 . S
C1659 C1660 1.366 . S
C1660 C1659 1.366 . S
C1660 C1661 1.414 . S
C1660 C1663 1.499 . S
C1661 H1635 0.950 . S
C1661 C1660 1.414 . S
C1661 C1662 1.374 . S
C1662 H1636 0.950 . S
C1662 C1658 1.385 . S
C1662 C1661 1.374 . S
C1663 C1660 1.499 . S
C1663 C1664 1.373 . S
C1663 C1665 1.389 . S
C1664 H1637 0.950 . S
C1664 C1650 1.377 1_565 S
C1664 C1663 1.373 . S
C1665 C1649 1.377 1_565 S
C1665 C1663 1.389 . S
C1665 C1666 1.526 . S
C1666 C1665 1.526 . S
C1666 C1667 1.420 . S
C1666 C1671 1.338 1_565 S
C1667 H1638 0.950 . S
C1667 C1666 1.420 . S
C1667 C1668 1.334 . S
C1668 H1639 0.950 . S
C1668 C1667 1.334 . S
C1668 C1669 1.306 . S
C1669 C1668 1.306 . S
C1669 C1670 1.506 1_565 S
C1669 H1672 0.999 . S
C1670 H1640 0.950 . S
C1670 C1669 1.506 1_545 S
C1670 C1671 1.415 . S
C1671 H1641 0.950 . S
C1671 C1666 1.338 1_545 S
C1671 C1670 1.415 . S
H1672 C1669 0.999 . S
H1673 C1654 0.915 . S
H1674 C1692 0.951 . S
H1675 C1694 0.951 . S
H1676 C1696 0.950 . S
H1677 C1697 0.950 . S
H1678 C1699 0.950 . S
H1679 C1702 0.950 . S
H1680 C1703 0.950 . S
H1681 C1705 0.950 . S
H1682 C1706 0.950 . S
H1683 C1707 0.951 . S
H1684 C1709 0.951 . S
H1685 C1711 0.950 . S
H1686 C1712 0.950 . S
H1687 C1714 0.950 . S
H1688 C1717 0.950 . S
H1689 C1718 0.950 . S
H1690 C1720 0.950 . S
H1691 C1721 0.950 . S
C1692 H1674 0.951 . S
C1692 C1693 1.366 . S
C1692 C1694 1.388 . S
C1693 C1692 1.366 . S
C1693 C1697 1.385 . S
C1694 H1675 0.951 . S
C1694 C1692 1.388 . S
C1694 C1695 1.366 . S
C1695 C1694 1.366 . S
C1695 C1696 1.414 . S
C1695 C1698 1.499 . S
C1696 H1676 0.950 . S
C1696 C1695 1.414 . S
C1696 C1697 1.374 . S
C1697 H1677 0.950 . S
C1697 C1693 1.385 . S
C1697 C1696 1.374 . S
C1698 C1695 1.499 . S
C1698 C1699 1.373 . S
C1698 C1700 1.389 . S
C1699 H1678 0.950 . S
C1699 C1698 1.373 . S
C1699 C1715 1.377 1_655 S
C1700 C1698 1.389 . S
C1700 C1701 1.524 . S
C1700 C1714 1.377 1_655 S
C1701 C1700 1.524 . S
C1701 C1702 1.397 . S
C1701 C1706 1.363 . S
C1702 H1679 0.950 . S
C1702 C1701 1.397 . S
C1702 C1703 1.334 . S
C1703 H1680 0.950 . S
C1703 C1702 1.334 . S
C1703 C1704 1.287 . S
C1704 C1703 1.287 . S
C1704 C1705 1.524 . S
C1704 H1723 0.913 . S
C1705 H1681 0.950 . S
C1705 C1704 1.524 . S
C1705 C1706 1.415 . S
C1706 H1682 0.950 . S
C1706 C1701 1.363 . S
C1706 C1705 1.415 . S
C1707 H1683 0.951 . S
C1707 C1708 1.366 . S
C1707 C1709 1.388 . S
C1708 C1707 1.366 . S
C1708 C1712 1.385 . S
C1709 H1684 0.951 . S
C1709 C1707 1.388 . S
C1709 C1710 1.366 . S
C1710 C1709 1.366 . S
C1710 C1711 1.414 . S
C1710 C1713 1.499 . S
C1711 H1685 0.950 . S
C1711 C1710 1.414 . S
C1711 C1712 1.374 . S
C1712 H1686 0.950 . S
C1712 C1708 1.385 . S
C1712 C1711 1.374 . S
C1713 C1710 1.499 . S
C1713 C1714 1.373 . S
C1713 C1715 1.389 . S
C1714 H1687 0.950 . S
C1714 C1700 1.377 1_455 S
C1714 C1713 1.373 . S
C1715 C1699 1.377 1_455 S
C1715 C1713 1.389 . S
C1715 C1716 1.524 . S
C1716 C1715 1.524 . S
C1716 C1717 1.397 . S
C1716 C1721 1.363 . S
C1717 H1688 0.950 . S
C1717 C1716 1.397 . S
C1717 C1718 1.334 . S
C1718 H1689 0.950 . S
C1718 C1717 1.334 . S
C1718 C1719 1.287 . S
C1719 C1718 1.287 . S
C1719 C1720 1.524 . S
C1719 H1722 0.999 . S
C1720 H1690 0.950 . S
C1720 C1719 1.524 . S
C1720 C1721 1.415 . S
C1721 H1691 0.950 . S
C1721 C1716 1.363 . S
C1721 C1720 1.415 . S
H1722 C1719 0.999 . S
H1723 C1704 0.913 . S
H1724 C1742 0.951 . S
H1725 C1744 0.951 . S
H1726 C1746 0.950 . S
H1727 C1747 0.950 . S
H1728 C1749 0.950 . S
H1729 C1752 0.950 . S
H1730 C1753 0.950 . S
H1731 C1755 0.945 1_545 S
H1732 C1756 0.950 . S
H1733 C1757 0.951 . S
H1734 C1759 0.951 . S
H1735 C1761 0.950 . S
H1736 C1762 0.950 . S
H1737 C1764 0.950 . S
H1738 C1767 0.950 . S
H1739 C1768 0.950 . S
H1740 C1770 0.945 1_565 S
H1741 C1771 0.950 . S
C1742 H1724 0.951 . S
C1742 C1743 1.366 . S
C1742 C1744 1.388 . S
C1743 C1742 1.366 . S
C1743 C1747 1.385 . S
C1744 H1725 0.951 . S
C1744 C1742 1.388 . S
C1744 C1745 1.366 . S
C1745 C1744 1.366 . S
C1745 C1746 1.414 . S
C1745 C1748 1.499 . S
C1746 H1726 0.950 . S
C1746 C1745 1.414 . S
C1746 C1747 1.374 . S
C1747 H1727 0.950 . S
C1747 C1743 1.385 . S
C1747 C1746 1.374 . S
C1748 C1745 1.499 . S
C1748 C1749 1.373 . S
C1748 C1750 1.389 . S
C1749 H1728 0.950 . S
C1749 C1748 1.373 . S
C1749 C1765 1.377 1_565 S
C1750 C1748 1.389 . S
C1750 C1751 1.524 . S
C1750 C1764 1.377 1_565 S
C1751 C1750 1.524 . S
C1751 C1752 1.397 . S
C1751 C1756 1.364 1_565 S
C1752 H1729 0.950 . S
C1752 C1751 1.397 . S
C1752 C1753 1.334 . S
C1753 H1730 0.950 . S
C1753 C1752 1.334 . S
C1753 C1754 1.287 . S
C1754 C1753 1.287 . S
C1754 C1755 1.531 . S
C1754 H1773 0.913 . S
C1755 H1731 0.945 1_565 S
C1755 C1754 1.531 . S
C1755 C1756 1.414 1_565 S
C1756 H1732 0.950 . S
C1756 C1751 1.364 1_545 S
C1756 C1755 1.414 1_545 S
C1757 H1733 0.951 . S
C1757 C1758 1.366 . S
C1757 C1759 1.388 . S
C1758 C1757 1.366 . S
C1758 C1762 1.385 . S
C1759 H1734 0.951 . S
C1759 C1757 1.388 . S
C1759 C1760 1.366 . S
C1760 C1759 1.366 . S
C1760 C1761 1.414 . S
C1760 C1763 1.499 . S
C1761 H1735 0.950 . S
C1761 C1760 1.414 . S
C1761 C1762 1.374 . S
C1762 H1736 0.950 . S
C1762 C1758 1.385 . S
C1762 C1761 1.374 . S
C1763 C1760 1.499 . S
C1763 C1764 1.373 . S
C1763 C1765 1.389 . S
C1764 H1737 0.950 . S
C1764 C1750 1.377 1_545 S
C1764 C1763 1.373 . S
C1765 C1749 1.377 1_545 S
C1765 C1763 1.389 . S
C1765 C1766 1.524 . S
C1766 C1765 1.524 . S
C1766 C1767 1.397 . S
C1766 C1771 1.364 1_545 S
C1767 H1738 0.950 . S
C1767 C1766 1.397 . S
C1767 C1768 1.334 . S
C1768 H1739 0.950 . S
C1768 C1767 1.334 . S
C1768 C1769 1.287 . S
C1769 C1768 1.287 . S
C1769 C1770 1.531 . S
C1769 H1772 0.999 . S
C1770 H1740 0.945 1_545 S
C1770 C1769 1.531 . S
C1770 C1771 1.414 1_545 S
C1771 H1741 0.950 . S
C1771 C1766 1.364 1_565 S
C1771 C1770 1.414 1_565 S
H1772 C1769 0.999 . S
H1773 C1754 0.913 . S
H1774 C1792 0.951 . S
H1775 C1794 0.951 . S
H1776 C1796 0.950 . S
H1777 C1797 0.950 . S
H1778 C1799 0.950 . S
H1779 C1802 0.950 . S
H1780 C1803 0.950 . S
H1781 C1805 0.950 . S
H1782 C1806 0.950 . S
H1783 C1807 0.951 . S
H1784 C1809 0.951 . S
H1785 C1811 0.950 . S
H1786 C1812 0.950 . S
H1787 C1814 0.950 . S
H1788 C1817 0.950 . S
H1789 C1818 0.950 . S
H1790 C1820 0.950 . S
H1791 C1821 0.950 . S
C1792 H1774 0.951 . S
C1792 C1793 1.366 . S
C1792 C1794 1.388 . S
C1793 C1792 1.366 . S
C1793 C1797 1.385 . S
C1794 H1775 0.951 . S
C1794 C1792 1.388 . S
C1794 C1795 1.366 . S
C1795 C1794 1.366 . S
C1795 C1796 1.414 . S
C1795 C1798 1.499 . S
C1796 H1776 0.950 . S
C1796 C1795 1.414 . S
C1796 C1797 1.374 . S
C1797 H1777 0.950 . S
C1797 C1793 1.385 . S
C1797 C1796 1.374 . S
C1798 C1795 1.499 . S
C1798 C1799 1.373 . S
C1798 C1800 1.389 . S
C1799 H1778 0.950 . S
C1799 C1798 1.373 . S
C1799 C1815 1.377 1_455 S
C1800 C1798 1.389 . S
C1800 C1801 1.524 . S
C1800 C1814 1.377 1_455 S
C1801 C1800 1.524 . S
C1801 C1802 1.397 . S
C1801 C1806 1.363 1_455 S
C1802 H1779 0.950 . S
C1802 C1801 1.397 . S
C1802 C1803 1.334 . S
C1803 H1780 0.950 . S
C1803 C1802 1.334 . S
C1803 C1804 1.287 . S
C1804 C1803 1.287 . S
C1804 C1805 1.524 1_455 S
C1804 H1823 0.913 . S
C1805 H1781 0.950 . S
C1805 C1804 1.524 1_655 S
C1805 C1806 1.415 . S
C1806 H1782 0.950 . S
C1806 C1801 1.363 1_655 S
C1806 C1805 1.415 . S
C1807 H1783 0.951 . S
C1807 C1808 1.366 . S
C1807 C1809 1.388 . S
C1808 C1807 1.366 . S
C1808 C1812 1.385 . S
C1809 H1784 0.951 . S
C1809 C1807 1.388 . S
C1809 C1810 1.366 . S
C1810 C1809 1.366 . S
C1810 C1811 1.414 . S
C1810 C1813 1.499 . S
C1811 H1785 0.950 . S
C1811 C1810 1.414 . S
C1811 C1812 1.374 . S
C1812 H1786 0.950 . S
C1812 C1808 1.385 . S
C1812 C1811 1.374 . S
C1813 C1810 1.499 . S
C1813 C1814 1.373 . S
C1813 C1815 1.389 . S
C1814 H1787 0.950 . S
C1814 C1800 1.377 1_655 S
C1814 C1813 1.373 . S
C1815 C1799 1.377 1_655 S
C1815 C1813 1.389 . S
C1815 C1816 1.524 . S
C1816 C1815 1.524 . S
C1816 C1817 1.397 . S
C1816 C1821 1.363 1_655 S
C1817 H1788 0.950 . S
C1817 C1816 1.397 . S
C1817 C1818 1.334 . S
C1818 H1789 0.950 . S
C1818 C1817 1.334 . S
C1818 C1819 1.287 . S
C1819 C1818 1.287 . S
C1819 C1820 1.524 1_655 S
C1819 H1822 0.999 . S
C1820 H1790 0.950 . S
C1820 C1819 1.524 1_455 S
C1820 C1821 1.415 . S
C1821 H1791 0.950 . S
C1821 C1816 1.363 1_455 S
C1821 C1820 1.415 . S
H1822 C1819 0.999 . S
H1823 C1804 0.913 . S
C243 C76 1.580 . S
C258 C6 1.581 . S
C293 C90 1.580 . S
C308 C20 1.580 . S
C343 C34 1.580 . S
C358 C104 1.581 . S
C393 C48 1.580 . S
C408 C62 1.581 . S
C443 C188 1.580 . S
C458 C118 1.580 . S
C493 C202 1.580 . S
C508 C132 1.580 . S
C543 C146 1.580 . S
C558 C216 1.581 . S
C593 C160 1.581 . S
C608 C174 1.581 . S
C643 C147 1.503 . S
C658 C7 1.502 . S
C693 C161 1.502 . S
C708 C21 1.503 . S
C743 C119 1.503 . S
C758 C35 1.502 . S
C793 C49 1.503 . S
C808 C133 1.503 . S
C843 C203 1.503 . S
C858 C63 1.503 . S
C893 C217 1.502 . S
C908 C77 1.503 . S
C943 C91 1.503 . S
C958 C175 1.502 . S
C993 C189 1.503 . S
C1008 C105 1.502 . S
C1043 C64 0.273 . S
C1058 C8 0.273 . S
C1093 C22 0.273 . S
C1108 C78 0.273 . S
C1143 C36 0.273 . S
C1158 C92 0.273 . S
C1193 C106 0.275 . S
C1208 C50 0.274 . S
C1243 C121 2.512 . S
C1258 C177 2.512 . S
C1293 C191 2.512 . S
C1308 C135 2.512 . S
C1343 C149 2.512 . S
C1358 C205 2.512 . S
C1393 C219 2.512 . S
C1408 C163 2.512 . S
C1443 C162 0.273 . S
C1458 C190 0.273 . S
C1493 C120 0.273 . S
C1508 C204 0.273 . S
C1543 C218 0.273 . S
C1558 C134 0.274 . S
C1593 C148 0.274 . S
C1608 C176 0.273 . S
C1643 C79 2.512 . S
C1658 C51 2.512 . S
C1693 C93 2.512 . S
C1708 C9 2.512 . S
C1743 C107 2.512 . S
C1758 C23 2.512 . S
C1793 C65 2.512 . S
C1808 C37 2.512 . S
