# Generated by pormake.
# Topology qtz-e, (6)-cn, num edge types: 1
# Building blocks:
#     Node 0, Type 0, BuildingBlock: KUMJIN_clean_sbu_0, # of connection points: 6
#     Node 1, Type 0, BuildingBlock: KUMJIN_clean_sbu_0, # of connection points: 6
#     Node 2, Type 0, BuildingBlock: KUMJIN_clean_sbu_0, # of connection points: 6
#     Node 3, Type 0, BuildingBlock: KUMJIN_clean_sbu_0, # of connection points: 6
#     Node 4, Type 0, BuildingBlock: KUMJIN_clean_sbu_0, # of connection points: 6
#     Node 5, Type 0, BuildingBlock: KUMJIN_clean_sbu_0, # of connection points: 6
#     Edge 6, Type (0, 0), BuildingBlock: UVAHIK_clean_linker_0, # of connection points: 2
#     Edge 7, Type (0, 0), BuildingBlock: UVAHIK_clean_linker_0, # of connection points: 2
#     Edge 8, Type (0, 0), BuildingBlock: UVAHIK_clean_linker_0, # of connection points: 2
#     Edge 9, Type (0, 0), BuildingBlock: UVAHIK_clean_linker_0, # of connection points: 2
#     Edge 10, Type (0, 0), BuildingBlock: UVAHIK_clean_linker_0, # of connection points: 2
#     Edge 11, Type (0, 0), BuildingBlock: UVAHIK_clean_linker_0, # of connection points: 2
#     Edge 12, Type (0, 0), BuildingBlock: UVAHIK_clean_linker_0, # of connection points: 2
#     Edge 13, Type (0, 0), BuildingBlock: UVAHIK_clean_linker_0, # of connection points: 2
#     Edge 14, Type (0, 0), BuildingBlock: UVAHIK_clean_linker_0, # of connection points: 2
#     Edge 15, Type (0, 0), BuildingBlock: UVAHIK_clean_linker_0, # of connection points: 2
#     Edge 16, Type (0, 0), BuildingBlock: UVAHIK_clean_linker_0, # of connection points: 2
#     Edge 17, Type (0, 0), BuildingBlock: UVAHIK_clean_linker_0, # of connection points: 2
#     Edge 18, Type (0, 0), BuildingBlock: UVAHIK_clean_linker_0, # of connection points: 2
#     Edge 19, Type (0, 0), BuildingBlock: UVAHIK_clean_linker_0, # of connection points: 2
#     Edge 20, Type (0, 0), BuildingBlock: UVAHIK_clean_linker_0, # of connection points: 2
#     Edge 21, Type (0, 0), BuildingBlock: UVAHIK_clean_linker_0, # of connection points: 2
#     Edge 22, Type (0, 0), BuildingBlock: UVAHIK_clean_linker_0, # of connection points: 2
#     Edge 23, Type (0, 0), BuildingBlock: UVAHIK_clean_linker_0, # of connection points: 2
# Relax obj value: 0.056
# Max RMSD: 0.138
# Mean RMSD: 0.138
data_MOF--net-qtz-e--node1-KUMJIN_clean_sbu_0--edge1-UVAHIK_clean_linker_0
_symmetry_space_group_name_H-M    P1
_symmetry_Int_Tables_number       1
_symmetry_cell_setting            triclinic
loop_
_symmetry_equiv_pos_as_xyz
'x, y, z'
_cell_length_a     37.405715
_cell_length_b     37.55353
_cell_length_c     56.896344
_cell_angle_alpha  90.038472
_cell_angle_beta   89.941325
_cell_angle_gamma 119.74546
loop_
_atom_site_label
_atom_site_type_symbol
_atom_site_fract_x
_atom_site_fract_y
_atom_site_fract_z
_atom_type_partial_charge
Eu0 Eu 0.23027 0.46794 0.0318 0.0
C1 C 0.1448 0.29575 0.02531 0.0
C2 C 0.18539 0.26248 0.03095 0.0
C3 C 0.1179 0.23388 0.04909 0.0
C4 C 0.1809 0.29497 0.02181 0.0
C5 C 0.11242 0.26459 0.0385 0.0
C6 C 0.15432 0.23277 0.04528 0.0
C7 C 0.07026 0.29414 0.02793 0.0
N8 N 0.14044 0.32573 0.01472 0.0
C9 C 0.1033 0.32443 0.01512 0.0
C10 C 0.07507 0.26453 0.04006 0.0
Eu11 Eu 0.19868 0.37767 0.99458 0.0
N12 N 0.21008 0.32391 0.00773 0.0
C13 C 0.24167 0.31883 0.99947 0.0
C14 C 0.22 0.25968 0.02446 0.0
C15 C 0.24777 0.28745 0.00819 0.0
H16 H 0.09871 0.34654 1.00561 0.0
H17 H 0.27371 0.28456 1.00224 0.0
H18 H 0.15752 0.20797 0.05276 0.0
H19 H 0.04115 0.29376 0.02848 0.0
H20 H 0.26299 0.33994 0.98662 0.0
H21 H 0.21178 0.56579 0.96763 0.0
H22 H 0.22455 0.23515 0.03105 0.0
H23 H 0.30717 0.49534 0.07057 0.0
H24 H 0.18995 0.50497 0.99246 0.0
H25 H 0.37899 0.55092 0.07648 0.0
H26 H 0.09362 0.21007 0.05958 0.0
H27 H 0.28439 0.62157 0.96811 0.0
H28 H 0.3554 0.65055 0.98501 0.0
H29 H 0.04948 0.24116 0.05003 0.0
H30 H 0.40128 0.64606 0.01435 0.0
N31 N 0.24949 0.52491 0.00657 0.0
C32 C 0.22167 0.52861 0.99277 0.0
C33 C 0.2749 0.59478 0.97908 0.0
C34 C 0.30291 0.59168 0.99402 0.0
C35 C 0.23393 0.56337 0.97875 0.0
C36 C 0.28892 0.55621 0.00804 0.0
H37 H 0.41022 0.60932 0.04874 0.0
N38 N 0.29904 0.5207 0.03896 0.0
C39 C 0.36139 0.55196 0.06167 0.0
C40 C 0.31462 0.55378 0.02457 0.0
C41 C 0.32083 0.5206 0.05827 0.0
C42 C 0.37893 0.58479 0.04595 0.0
C43 C 0.35517 0.58659 0.02749 0.0
O44 O 0.22937 0.48371 0.06882 0.0
O45 O 0.18959 0.39963 0.02968 0.0
O46 O 0.15735 0.40553 0.98613 0.0
O47 O 0.16474 0.44346 0.01989 0.0
O48 O 0.22792 0.42265 0.05861 0.0
O49 O 0.19365 0.49515 0.04327 0.0
O50 O 0.15245 0.3434 0.96747 0.0
O51 O 0.22637 0.44599 0.99501 0.0
O52 O 0.28528 0.45863 0.02867 0.0
O53 O 0.25992 0.39312 0.01247 0.0
O54 O 0.25698 0.42156 0.97571 0.0
O55 O 0.21609 0.36357 0.96052 0.0
C56 C 0.1984 0.38987 0.04931 0.0
C57 C 0.22407 0.54327 0.07378 0.0
C58 C 0.23652 0.58901 0.10684 0.0
C59 C 0.22245 0.54938 0.09796 0.0
C60 C 0.25308 0.62264 0.09141 0.0
C61 C 0.24076 0.57725 0.05855 0.0
C62 C 0.25539 0.61672 0.06739 0.0
C63 C 0.14541 0.4259 1.00022 0.0
C64 C 0.20767 0.5014 0.06467 0.0
C65 C 0.37007 0.62081 0.01257 0.0
C66 C 0.34393 0.6234 0.9959 0.0
C67 C 0.25711 0.45453 0.98203 0.0
C68 C 0.1681 0.30127 0.94276 0.0
C69 C 0.18879 0.29906 0.92242 0.0
C70 C 0.18021 0.26069 0.91304 0.0
C71 C 0.14991 0.22478 0.92412 0.0
C72 C 0.13858 0.26479 0.95353 0.0
C73 C 0.12942 0.2269 0.94413 0.0
C74 C 0.28934 0.42689 0.0226 0.0
C75 C 0.17863 0.34163 0.95304 0.0
H76 H 0.20924 0.52325 0.10976 0.0
H77 H 0.26424 0.65346 0.09798 0.0
H78 H 0.24207 0.57341 0.03982 0.0
H79 H 0.26815 0.64271 0.05556 0.0
H80 H 0.2122 0.32713 0.91432 0.0
H81 H 0.14181 0.19481 0.91724 0.0
H82 H 0.12264 0.26549 0.96928 0.0
H83 H 0.10642 0.19895 0.95248 0.0
Eu84 Eu 0.77352 0.23881 0.36455 0.0
C85 C 0.81532 0.10196 0.34603 0.0
C86 C 0.86353 0.11427 0.37757 0.0
C87 C 0.81922 0.04484 0.36346 0.0
C88 C 0.84555 0.12888 0.36118 0.0
C89 C 0.80263 0.05977 0.34655 0.0
C90 C 0.84957 0.07205 0.37898 0.0
C91 C 0.761 0.05079 0.31222 0.0
N92 N 0.79997 0.1173 0.32989 0.0
C93 C 0.77467 0.09285 0.31238 0.0
C94 C 0.77456 0.03404 0.32961 0.0
Eu95 Eu 0.82297 0.18843 0.33186 0.0
N96 N 0.85836 0.16951 0.35937 0.0
C97 C 0.89078 0.19742 0.37253 0.0
C98 C 0.89559 0.14261 0.39175 0.0
C99 C 0.90963 0.1844 0.38898 0.0
H100 H 0.76413 0.1058 0.29891 0.0
H101 H 0.93476 0.20663 0.39965 0.0
H102 H 0.86271 0.06024 0.39163 0.0
H103 H 0.74008 0.03136 0.29869 0.0
H104 H 0.9018 0.22978 0.37096 0.0
H105 H 0.68175 0.26829 0.30083 0.0
H106 H 0.91015 0.13262 0.40458 0.0
H107 H 0.83242 0.30028 0.40816 0.0
H108 H 0.70315 0.22645 0.32358 0.0
H109 H 0.86502 0.37305 0.41982 0.0
H110 H 0.80952 0.01247 0.36431 0.0
H111 H 0.71649 0.3433 0.307 0.0
H112 H 0.76778 0.40491 0.32976 0.0
H113 H 0.76407 1.00147 0.3294 0.0
H114 H 0.81768 0.43346 0.36221 0.0
N115 N 0.75051 0.27697 0.34212 0.0
C116 C 0.71861 0.25898 0.32656 0.0
C117 C 0.72602 0.32499 0.31709 0.0
C118 C 0.75684 0.34294 0.33415 0.0
C119 C 0.70629 0.28268 0.3136 0.0
C120 C 0.76812 0.31768 0.34677 0.0
H121 H 0.85376 0.42175 0.39605 0.0
N122 N 0.80382 0.30781 0.37772 0.0
C123 C 0.8457 0.36241 0.40435 0.0
C124 C 0.79567 0.33363 0.36515 0.0
C125 C 0.82708 0.32117 0.39771 0.0
C126 C 0.83935 0.38982 0.39086 0.0
C127 C 0.81347 0.37543 0.37123 0.0
O128 O 0.74972 0.23256 0.40038 0.0
O129 O 0.79428 0.19214 0.36561 0.0
O130 O 0.75436 0.14161 0.33647 0.0
O131 O 0.72673 0.1846 0.34316 0.0
O132 O 0.80641 0.22847 0.39491 0.0
O133 O 0.70753 0.20799 0.37099 0.0
O134 O 0.83391 0.18094 0.29487 0.0
O135 O 0.80076 0.23302 0.33102 0.0
O136 O 0.83762 0.28867 0.35687 0.0
O137 O 0.87156 0.25404 0.34346 0.0
O138 O 0.78895 0.19696 0.30128 0.0
O139 O 0.88571 0.21602 0.31787 0.0
C140 C 0.80928 0.19848 0.38604 0.0
C141 C 0.68806 0.23519 0.40271 0.0
C142 C 0.65143 0.2447 0.43526 0.0
C143 C 0.67539 0.22857 0.42626 0.0
C144 C 0.64073 0.26806 0.42062 0.0
C145 C 0.67742 0.25895 0.38834 0.0
C146 C 0.65396 0.27534 0.39731 0.0
C147 C 0.72286 0.14857 0.33768 0.0
C148 C 0.71166 0.21656 0.39337 0.0
C149 C 0.80405 0.40119 0.35794 0.0
C150 C 0.77569 0.38495 0.33945 0.0
C151 C 0.78612 0.22682 0.31056 0.0
C152 C 0.89723 0.18541 0.28425 0.0
C153 C 0.9204 0.2053 0.26397 0.0
C154 C 0.94262 0.18961 0.25177 0.0
C155 C 0.94067 0.15345 0.26026 0.0
C156 C 0.89617 0.14969 0.29232 0.0
C157 C 0.91775 0.13383 0.28034 0.0
C158 C 0.87107 0.28742 0.351 0.0
C159 C 0.8739 0.20195 0.29661 0.0
H160 H 0.68336 0.21014 0.43742 0.0
H161 H 0.62238 0.28088 0.42729 0.0
H162 H 0.68679 0.26458 0.37015 0.0
H163 H 0.64578 0.2935 0.38612 0.0
H164 H 0.92145 0.23316 0.25792 0.0
H165 H 0.95645 0.13984 0.25121 0.0
H166 H 0.87856 0.13402 0.30781 0.0
H167 H 0.91658 0.10605 0.28658 0.0
Eu168 Eu 0.54632 0.77646 0.70324 0.0
C169 C 0.71842 0.8207 0.6841 0.0
C170 C 0.75141 0.87901 0.71031 0.0
C171 C 0.78034 0.83417 0.70538 0.0
C172 C 0.71953 0.85447 0.69446 0.0
C173 C 0.74952 0.81085 0.68893 0.0
C174 C 0.78125 0.86818 0.71607 0.0
C175 C 0.7198 0.75812 0.65929 0.0
N176 N 0.6881 0.79864 0.66842 0.0
C177 C 0.68975 0.76913 0.65509 0.0
C178 C 0.74939 0.77855 0.67661 0.0
Eu179 Eu 0.63606 0.81698 0.66355 0.0
N180 N 0.68991 0.8638 0.68875 0.0
C181 C 0.69224 0.89907 0.69702 0.0
C182 C 0.75262 0.91399 0.7197 0.0
C183 C 0.72321 0.92434 0.71276 0.0
H184 H 0.66762 0.75366 0.64121 0.0
H185 H 0.72439 0.95187 0.7195 0.0
H186 H 0.80562 0.88637 0.72842 0.0
H187 H 0.72025 0.73404 0.64905 0.0
H188 H 0.67056 0.90827 0.69165 0.0
H189 H 0.43973 0.64304 0.65049 0.0
H190 H 0.77654 0.9336 0.73193 0.0
H191 H 0.52263 0.84262 0.73022 0.0
H192 H 0.49911 0.68352 0.67566 0.0
H193 H 0.47509 0.86964 0.72516 0.0
H194 H 0.80413 0.82672 0.70954 0.0
H195 H 0.39252 0.66884 0.64014 0.0
H196 H 0.37242 0.72291 0.64481 0.0
H197 H 0.77276 0.77008 0.67979 0.0
H198 H 0.38289 0.78562 0.66459 0.0
N199 N 0.48782 0.7337 0.67937 0.0
C200 C 0.47967 0.69604 0.67131 0.0
C201 C 0.41886 0.68706 0.6513 0.0
C202 C 0.42593 0.72447 0.66055 0.0
C203 C 0.44546 0.67245 0.65707 0.0
C204 C 0.46072 0.74704 0.67503 0.0
H205 H 0.42088 0.8404 0.69472 0.0
N206 N 0.49836 0.80102 0.70138 0.0
C207 C 0.47261 0.84538 0.71381 0.0
C208 C 0.46657 0.78218 0.68612 0.0
C209 C 0.49973 0.83016 0.71644 0.0
C210 C 0.44213 0.82885 0.69661 0.0
C211 C 0.43788 0.7959 0.68305 0.0
O212 O 0.52492 0.77376 0.73931 0.0
O213 O 0.61291 0.79432 0.70013 0.0
O214 O 0.61076 0.7477 0.66467 0.0
O215 O 0.56154 0.72636 0.69472 0.0
O216 O 0.59591 0.81538 0.72935 0.0
O217 O 0.51868 0.7191 0.72292 0.0
O218 O 0.66032 0.81948 0.62817 0.0
O219 O 0.56918 0.79583 0.66655 0.0
O220 O 0.57307 0.84487 0.70169 0.0
O221 O 0.61223 0.86288 0.66745 0.0
O222 O 0.58765 0.77394 0.63809 0.0
O223 O 0.66087 0.87293 0.64238 0.0
C224 C 0.62581 0.81315 0.71946 0.0
C225 C 0.46748 0.71093 0.74992 0.0
C226 C 0.42076 0.6779 0.78261 0.0
C227 C 0.46089 0.70191 0.77392 0.0
C228 C 0.38715 0.66357 0.76717 0.0
C229 C 0.43365 0.69676 0.73467 0.0
C230 C 0.39365 0.67332 0.74331 0.0
C231 C 0.58353 0.71942 0.67901 0.0
C232 C 0.50978 0.73436 0.74108 0.0
C233 C 0.40483 0.77516 0.66743 0.0
C234 C 0.3988 0.73941 0.65624 0.0
C235 C 0.55689 0.77464 0.64799 0.0
C236 C 0.71122 0.8843 0.6137 0.0
C237 C 0.71406 0.90657 0.59313 0.0
C238 C 0.75273 0.93305 0.58282 0.0
C239 C 0.78826 0.93623 0.59334 0.0
C240 C 0.74712 0.88827 0.62385 0.0
C241 C 0.78539 0.91399 0.61363 0.0
C242 C 0.59193 0.87024 0.68419 0.0
C243 C 0.67073 0.85768 0.62461 0.0
H244 H 0.48698 0.7125 0.78572 0.0
H245 H 0.35597 0.64488 0.77359 0.0
H246 H 0.43803 0.70332 0.71613 0.0
H247 H 0.36769 0.6623 0.73145 0.0
H248 H 0.6863 0.90391 0.58548 0.0
H249 H 0.8184 0.95576 0.58577 0.0
H250 H 0.74556 0.87154 0.63968 0.0
H251 H 0.81301 0.91681 0.6215 0.0
Eu252 Eu 0.78657 0.53898 0.03164 0.0
C253 C 0.8697 0.71071 0.02586 0.0
C254 C 0.82827 0.74285 0.03245 0.0
C255 C 0.89611 0.77202 0.05013 0.0
C256 C 0.83322 0.7109 0.02283 0.0
C257 C 0.90201 0.74189 0.03908 0.0
C258 C 0.8593 0.77255 0.04678 0.0
C259 C 0.94486 0.71351 0.02766 0.0
N260 N 0.87445 0.68127 0.01485 0.0
C261 C 0.91189 0.6832 0.01484 0.0
C262 C 0.93967 0.74255 0.04021 0.0
Eu263 Eu 0.81624 0.62902 0.99482 0.0
N264 N 0.80406 0.68196 0.00875 0.0
C265 C 0.77201 0.68666 1.00093 0.0
C266 C 0.79322 0.74514 0.02643 0.0
C267 C 0.76545 0.71748 0.01014 0.0
H268 H 0.91681 0.66159 1.00499 0.0
H269 H 0.73917 0.72003 1.00454 0.0
H270 H 0.85576 0.79692 0.05463 0.0
H271 H 0.9742 0.71437 0.02788 0.0
H272 H 0.75069 0.6657 0.98804 0.0
H273 H 0.80711 0.44076 0.9686 0.0
H274 H 0.78831 0.76924 0.0334 0.0
H275 H 0.70897 0.50882 0.07055 0.0
H276 H 0.8287 0.50031 0.9946 0.0
H277 H 0.63646 0.45386 0.07501 0.0
H278 H 0.92033 0.79582 0.06064 0.0
H279 H 0.73353 0.3878 0.96603 0.0
H280 H 0.66129 0.36018 0.98091 0.0
H281 H 0.96522 0.76594 0.05018 0.0
H282 H 0.61444 0.364 0.0099 0.0
N283 N 0.76806 0.48239 1.00623 0.0
C284 C 0.79656 0.47779 0.99359 0.0
C285 C 0.74289 0.41402 0.97748 0.0
C286 C 0.71419 0.41754 0.99162 0.0
C287 C 0.78443 0.44378 0.97892 0.0
C288 C 0.72805 0.45219 1.00633 0.0
H289 H 0.6051 0.39837 0.04543 0.0
N290 N 0.7175 0.48595 0.03804 0.0
C291 C 0.65436 0.45374 0.06008 0.0
C292 C 0.70183 0.45422 0.02266 0.0
C293 C 0.69536 0.48469 0.05754 0.0
C294 C 0.63673 0.42259 0.0433 0.0
C295 C 0.66085 0.42185 0.02469 0.0
O296 O 0.78727 0.5233 0.06868 0.0
O297 O 0.82627 0.60738 0.02969 0.0
O298 O 0.85855 0.60245 0.98592 0.0
O299 O 0.85204 0.56379 0.01926 0.0
O300 O 0.78818 0.58382 0.05862 0.0
O301 O 0.82323 0.51192 0.04325 0.0
O302 O 0.86175 0.66313 0.96734 0.0
O303 O 0.79102 0.56111 0.99485 0.0
O304 O 0.73062 0.54667 0.02841 0.0
O305 O 0.75438 0.61191 0.01237 0.0
O306 O 0.75838 0.58337 0.97619 0.0
O307 O 0.79812 0.64403 0.9613 0.0
C308 C 0.81746 0.61685 0.04942 0.0
C309 C 0.79237 0.46371 0.07364 0.0
C310 C 0.77995 0.41791 0.10659 0.0
C311 C 0.79431 0.45758 0.09776 0.0
C312 C 0.7629 0.38425 0.09118 0.0
C313 C 0.77497 0.42971 0.05841 0.0
C314 C 0.76019 0.3902 0.06721 0.0
C315 C 0.871 0.58206 0.99962 0.0
C316 C 0.80898 0.5056 0.0646 0.0
C317 C 0.64599 0.38885 0.00885 0.0
C318 C 0.67266 0.38666 0.99235 0.0
C319 C 0.76014 0.55104 0.98177 0.0
C320 C 0.84636 0.70587 0.94314 0.0
C321 C 0.82591 0.70836 0.92281 0.0
C322 C 0.83523 0.74685 0.91331 0.0
C323 C 0.86603 0.78259 0.92429 0.0
C324 C 0.87633 0.74217 0.95384 0.0
C325 C 0.88621 0.78018 0.94434 0.0
C326 C 0.72553 0.57778 0.02242 0.0
C327 C 0.83537 0.66539 0.95336 0.0
H328 H 0.8079 0.4837 0.10957 0.0
H329 H 0.7516 0.3534 0.09773 0.0
H330 H 0.77316 0.43358 0.03973 0.0
H331 H 0.74695 0.36419 0.05538 0.0
H332 H 0.80216 0.68041 0.91478 0.0
H333 H 0.87477 0.81265 0.91731 0.0
H334 H 0.89211 0.74124 0.96959 0.0
H335 H 0.90959 0.80801 0.95261 0.0
Eu336 Eu 0.23128 0.75791 0.36768 0.0
C337 C 0.20567 0.90518 0.34401 0.0
C338 C 0.15736 0.89836 0.37439 0.0
C339 C 0.20589 0.96586 0.35918 0.0
C340 C 0.17414 0.88076 0.35917 0.0
C341 C 0.2211 0.9479 0.34331 0.0
C342 C 0.17412 0.94112 0.37474 0.0
C343 C 0.26226 0.95126 0.30973 0.0
N344 N 0.21939 0.88683 0.32884 0.0
C345 C 0.24591 0.9088 0.31113 0.0
C346 C 0.2503 0.97103 0.32614 0.0
Eu347 Eu 0.19199 0.81516 0.33267 0.0
N348 N 0.15849 0.83957 0.3582 0.0
C349 C 0.12404 0.81401 0.37082 0.0
C350 C 0.12351 0.87239 0.38832 0.0
C351 C 0.10638 0.83 0.38623 0.0
H352 H 0.25538 0.89353 0.2985 0.0
H353 H 0.07971 0.80958 0.3966 0.0
H354 H 0.16194 0.95523 0.3865 0.0
H355 H 0.2841 0.9687 0.29604 0.0
H356 H 0.11058 0.78121 0.3697 0.0
H357 H 0.33382 0.73437 0.30898 0.0
H358 H 0.10979 0.88468 0.40028 0.0
H359 H 0.16181 0.6912 0.40569 0.0
H360 H 0.30975 0.77437 0.33139 0.0
H361 H 0.12448 0.61656 0.41334 0.0
H362 H 0.21768 0.99868 0.35911 0.0
H363 H 0.29568 0.65863 0.31104 0.0
H364 H 0.23828 0.59458 0.32892 0.0
H365 H 0.26288 0.00391 0.32499 0.0
H366 H 0.18133 0.56246 0.35737 0.0
N367 N 0.25754 0.72201 0.34578 0.0
C368 C 0.29273 0.74143 0.33266 0.0
C369 C 0.28492 0.67607 0.32102 0.0
C370 C 0.25042 0.65642 0.33565 0.0
C371 C 0.30657 0.7188 0.31985 0.0
C372 C 0.23763 0.68058 0.3482 0.0
H373 H 0.13902 0.57043 0.38912 0.0
N374 N 0.19614 0.68705 0.37705 0.0
C375 C 0.14723 0.62906 0.39945 0.0
C376 C 0.20597 0.66254 0.36435 0.0
C377 C 0.16848 0.67128 0.39513 0.0
C378 C 0.15544 0.60312 0.3857 0.0
C379 C 0.18565 0.61982 0.36818 0.0
O380 O 0.24546 0.75714 0.40494 0.0
O381 O 0.21429 0.80735 0.36777 0.0
O382 O 0.26086 0.85921 0.33917 0.0
O383 O 0.28371 0.81392 0.35053 0.0
O384 O 0.194 0.76749 0.39583 0.0
O385 O 0.29475 0.78393 0.37928 0.0
O386 O 0.18304 0.82134 0.29517 0.0
O387 O 0.21152 0.7685 0.33289 0.0
O388 O 0.16853 0.71157 0.35535 0.0
O389 O 0.13918 0.75154 0.34426 0.0
O390 O 0.22923 0.80668 0.30388 0.0
O391 O 0.1301 0.7884 0.31765 0.0
C392 C 0.19579 0.80005 0.38724 0.0
C393 C 0.3042 0.7507 0.4118 0.0
C394 C 0.33764 0.73987 0.44545 0.0
C395 C 0.31689 0.75855 0.43531 0.0
C396 C 0.34486 0.71261 0.43208 0.0
C397 C 0.31138 0.72314 0.39868 0.0
C398 C 0.33144 0.70408 0.40884 0.0
C399 C 0.29063 0.85051 0.34371 0.0
C400 C 0.28473 0.77238 0.40105 0.0
C401 C 0.19682 0.59538 0.35484 0.0
C402 C 0.22921 0.61366 0.33863 0.0
C403 C 0.22954 0.77563 0.31334 0.0
C404 C 0.12133 0.81915 0.28335 0.0
C405 C 0.09985 0.80036 0.26244 0.0
C406 C 0.07942 0.81722 0.24958 0.0
C407 C 0.08074 0.853 0.25828 0.0
C408 C 0.12216 0.85476 0.29148 0.0
C409 C 0.10191 0.87149 0.279 0.0
C410 C 0.13679 0.71599 0.34982 0.0
C411 C 0.143 0.80156 0.2964 0.0
H412 H 0.31173 0.78003 0.44548 0.0
H413 H 0.36082 0.69793 0.43967 0.0
H414 H 0.30209 0.71672 0.38053 0.0
H415 H 0.33702 0.68301 0.3986 0.0
H416 H 0.09961 0.77304 0.25607 0.0
H417 H 0.06489 0.86649 0.24923 0.0
H418 H 0.13841 0.86956 0.30748 0.0
H419 H 0.10252 0.89892 0.28544 0.0
Eu420 Eu 0.46788 0.23054 0.69867 0.0
C421 C 0.29132 0.18425 0.68466 0.0
C422 C 0.26124 0.12992 0.71358 0.0
C423 C 0.23086 0.17307 0.70676 0.0
C424 C 0.29165 0.1524 0.69652 0.0
C425 C 0.26021 0.19422 0.68917 0.0
C426 C 0.23141 0.141 0.71897 0.0
C427 C 0.28704 0.24262 0.65714 0.0
N428 N 0.32022 0.20419 0.66789 0.0
C429 C 0.31719 0.23157 0.65333 0.0
C430 C 0.25884 0.22439 0.67542 0.0
Eu431 Eu 0.37237 0.18599 0.66345 0.0
N432 N 0.3212 0.1428 0.69107 0.0
C433 C 0.32022 0.10915 0.70093 0.0
C434 C 0.26138 0.09666 0.72449 0.0
C435 C 0.29069 0.08591 0.71789 0.0
H436 H 0.3385 0.24545 0.63888 0.0
H437 H 0.2906 0.05971 0.72587 0.0
H438 H 0.20815 0.12442 0.73221 0.0
H439 H 0.2855 0.26507 0.64591 0.0
H440 H 0.34208 0.0999 0.69598 0.0
H441 H 0.5634 0.36095 0.64085 0.0
H442 H 0.2386 0.07866 0.73768 0.0
H443 H 0.49689 0.16591 0.72256 0.0
H444 H 0.50904 0.32171 0.66925 0.0
H445 H 0.54305 0.13862 0.71349 0.0
H446 H 0.20707 0.18066 0.71068 0.0
H447 H 0.60898 0.3351 0.62705 0.0
H448 H 0.63023 0.28165 0.62941 0.0
H449 H 0.2354 0.23288 0.67831 0.0
H450 H 0.62362 0.22002 0.64859 0.0
N451 N 0.52133 0.27198 0.67142 0.0
C452 C 0.52768 0.30905 0.6634 0.0
C453 C 0.58479 0.31736 0.63961 0.0
C454 C 0.57966 0.28054 0.64867 0.0
C455 C 0.55909 0.33198 0.64732 0.0
C456 C 0.54767 0.25858 0.66503 0.0
H457 H 0.59138 0.16658 0.68002 0.0
N458 N 0.51518 0.20583 0.69286 0.0
C459 C 0.54329 0.16225 0.70249 0.0
C460 C 0.54403 0.22406 0.67583 0.0
C461 C 0.51676 0.1775 0.70735 0.0
C462 C 0.57047 0.17808 0.6836 0.0
C463 C 0.57214 0.21036 0.67052 0.0
O464 O 0.49746 0.23625 0.73267 0.0
O465 O 0.40092 0.21175 0.69861 0.0
O466 O 0.39591 0.25502 0.66442 0.0
O467 O 0.45042 0.27943 0.69138 0.0
O468 O 0.42259 0.19548 0.72775 0.0
O469 O 0.49828 0.28909 0.71722 0.0
O470 O 0.34751 0.18014 0.62794 0.0
O471 O 0.43952 0.20756 0.66329 0.0
O472 O 0.44016 0.16203 0.70002 0.0
O473 O 0.39646 0.14042 0.66765 0.0
O474 O 0.41676 0.2277 0.636 0.0
O475 O 0.34408 0.12719 0.64486 0.0
C476 C 0.3909 0.19545 0.71875 0.0
C477 C 0.556 0.30047 0.73947 0.0
C478 C 0.61047 0.33805 0.76788 0.0
C479 C 0.56851 0.31307 0.76264 0.0
C480 C 0.63986 0.34965 0.74984 0.0
C481 C 0.58575 0.31227 0.72167 0.0
C482 C 0.62746 0.33656 0.72686 0.0
C483 C 0.42527 0.2846 0.67721 0.0
C484 C 0.51197 0.27561 0.73406 0.0
C485 C 0.60221 0.23048 0.65313 0.0
C486 C 0.60606 0.26562 0.64227 0.0
C487 C 0.44879 0.22736 0.64419 0.0
C488 C 0.29481 0.11485 0.61525 0.0
C489 C 0.29177 0.09213 0.59483 0.0
C490 C 0.25312 0.06614 0.5844 0.0
C491 C 0.21777 0.06388 0.59468 0.0
C492 C 0.25911 0.11183 0.62516 0.0
C493 C 0.22084 0.08655 0.61483 0.0
C494 C 0.4189 0.13481 0.68374 0.0
C495 C 0.33535 0.14121 0.62609 0.0
H496 H 0.54563 0.30438 0.77643 0.0
H497 H 0.67237 0.36882 0.75357 0.0
H498 H 0.57692 0.30314 0.70377 0.0
H499 H 0.65018 0.34556 0.713 0.0
H500 H 0.31939 0.09413 0.58738 0.0
H501 H 0.18765 0.04479 0.58701 0.0
H502 H 0.26087 0.12899 0.64084 0.0
H503 H 0.19337 0.08446 0.62251 0.0
C504 C 0.26375 0.75891 0.28141 0.0
C505 C 0.23344 0.7454 0.2989 0.0
C506 C 0.26482 0.73095 0.26569 0.0
C507 C 0.2673 0.66285 0.23824 0.0
H508 H 0.16269 0.60216 0.20591 0.0
C509 C 0.249 0.58046 0.14914 0.0
C510 C 0.23259 0.59529 0.13206 0.0
C511 C 0.24688 0.58848 0.17296 0.0
C512 C 0.19193 0.61838 0.21499 0.0
H513 H 0.1801 0.69248 0.31361 0.0
H514 H 0.18183 0.64351 0.28608 0.0
H515 H 0.16602 0.63599 0.24307 0.0
H516 H 0.19972 0.6284 0.1262 0.0
H517 H 0.19552 0.64202 0.16775 0.0
H518 H 0.29351 0.64713 0.2093 0.0
C519 C 0.20521 0.67554 0.2848 0.0
C520 C 0.19382 0.63748 0.23633 0.0
C521 C 0.20435 0.70351 0.30061 0.0
C522 C 0.21284 0.61697 0.1391 0.0
C523 C 0.2101 0.62435 0.16283 0.0
C524 C 0.26532 0.64341 0.21695 0.0
C525 C 0.235 0.68914 0.26691 0.0
C526 C 0.23182 0.66136 0.24762 0.0
C527 C 0.2275 0.61063 0.17994 0.0
C528 C 0.22792 0.62257 0.20469 0.0
H529 H 0.28609 0.79121 0.27962 0.0
H530 H 0.28763 0.74242 0.25179 0.0
H531 H 0.29688 0.68078 0.24675 0.0
H532 H 0.26441 0.56369 0.14401 0.0
H533 H 0.26059 0.57773 0.18588 0.0
C534 C 0.48916 0.19683 0.62745 0.0
C535 C 0.47927 0.22836 0.62758 0.0
C536 C 0.51538 0.19601 0.61025 0.0
C537 C 0.59281 0.25881 0.56609 0.0
H538 H 0.54487 0.16003 0.52807 0.0
C539 C 0.66474 0.24661 0.47843 0.0
C540 C 0.63681 0.23661 0.45977 0.0
C541 C 0.65087 0.24138 0.50167 0.0
C542 C 0.5589 0.18755 0.53874 0.0
H543 H 0.48756 0.28281 0.60979 0.0
H544 H 0.53402 0.28185 0.57982 0.0
H545 H 0.51207 0.16078 0.56511 0.0
H546 H 0.57268 0.21176 0.45044 0.0
H547 H 0.54827 0.20198 0.49104 0.0
H548 H 0.63862 0.28612 0.53916 0.0
C549 C 0.52224 0.25832 0.59326 0.0
C550 C 0.54034 0.18792 0.55994 0.0
C551 C 0.49556 0.25877 0.61023 0.0
C552 C 0.59473 0.2199 0.46461 0.0
C553 C 0.58081 0.21399 0.48776 0.0
C554 C 0.6117 0.25828 0.54502 0.0
C555 C 0.53202 0.22671 0.59298 0.0
C556 C 0.55628 0.22403 0.57331 0.0
C557 C 0.60879 0.22525 0.50648 0.0
C558 C 0.59396 0.22311 0.53077 0.0
H559 H 0.47622 0.17261 0.64043 0.0
H560 H 0.52232 0.17122 0.61028 0.0
H561 H 0.60574 0.28689 0.57626 0.0
H562 H 0.69737 0.25963 0.47502 0.0
H563 H 0.67295 0.25032 0.51587 0.0
C564 C 0.26587 0.50671 0.95293 0.0
C565 C 0.28322 0.49325 0.97007 0.0
C566 C 0.29109 0.53969 0.9385 0.0
C567 C 0.35245 0.61924 0.91458 0.0
H568 H 0.42195 0.59087 0.87763 0.0
C569 C 0.42924 0.69567 0.82537 0.0
C570 C 0.41416 0.66589 0.80752 0.0
C571 C 0.4227 0.68378 0.84898 0.0
C572 C 0.40338 0.59969 0.88809 0.0
H573 H 0.33992 0.50178 0.98529 0.0
H574 H 0.38459 0.5597 0.95968 0.0
H575 H 0.39312 0.55552 0.91473 0.0
H576 H 0.38162 0.60082 0.79997 0.0
H577 H 0.37092 0.57997 0.84124 0.0
H578 H 0.36089 0.66175 0.88708 0.0
C579 C 0.35148 0.54565 0.95798 0.0
C580 C 0.38714 0.57974 0.90935 0.0
C581 C 0.32611 0.51273 0.97255 0.0
C582 C 0.39321 0.62421 0.81351 0.0
C583 C 0.38747 0.61237 0.83701 0.0
C584 C 0.36921 0.63964 0.89343 0.0
C585 C 0.33411 0.55896 0.9406 0.0
C586 C 0.35997 0.58796 0.92218 0.0
C587 C 0.402 0.64202 0.85491 0.0
C588 C 0.39316 0.62854 0.87956 0.0
H589 H 0.23286 0.49076 0.95015 0.0
H590 H 0.27697 0.54857 0.9248 0.0
H591 H 0.33163 0.62609 0.92428 0.0
H592 H 0.4455 0.72802 0.821 0.0
H593 H 0.43388 0.70704 0.86258 0.0
C594 C 0.80917 0.29911 0.29929 0.0
C595 C 0.78235 0.25695 0.29606 0.0
C596 C 0.80828 0.32745 0.2838 0.0
C597 C 0.74783 0.34014 0.23666 0.0
H598 H 0.85354 0.4063 0.20622 0.0
C599 C 0.80447 0.3907 0.13872 0.0
C600 C 0.78393 0.4116 0.13175 0.0
C601 C 0.80715 0.38321 0.16243 0.0
C602 C 0.82398 0.38861 0.21483 0.0
H603 H 0.73381 0.211 0.27446 0.0
H604 H 0.73204 0.26051 0.24731 0.0
H605 H 0.84986 0.37092 0.24288 0.0
H606 H 0.75066 0.44177 0.14373 0.0
H607 H 0.75421 0.42733 0.18556 0.0
H608 H 0.72174 0.35597 0.20777 0.0
C609 C 0.75311 0.27176 0.26205 0.0
C610 C 0.82188 0.3686 0.23584 0.0
C611 C 0.75435 0.24346 0.27737 0.0
C612 C 0.76668 0.4256 0.14884 0.0
C613 C 0.76869 0.4174 0.17262 0.0
C614 C 0.75 0.36054 0.21575 0.0
C615 C 0.78057 0.31394 0.26489 0.0
C616 C 0.78357 0.3427 0.24633 0.0
C617 C 0.78882 0.39598 0.17954 0.0
C618 C 0.78788 0.38336 0.20416 0.0
H619 H 0.8316 0.31014 0.31332 0.0
H620 H 0.82988 0.35979 0.28625 0.0
H621 H 0.718 0.32056 0.24458 0.0
H622 H 0.81818 0.37992 0.12579 0.0
H623 H 0.8223 0.36609 0.16732 0.0
C624 C 0.51273 0.80258 0.63363 0.0
C625 C 0.5233 0.77155 0.63326 0.0
C626 C 0.48408 0.80184 0.61764 0.0
C627 C 0.40249 0.7363 0.57606 0.0
H628 H 0.44815 0.83206 0.53561 0.0
C629 C 0.3263 0.74251 0.48859 0.0
C630 C 0.35326 0.74988 0.46969 0.0
C631 C 0.34118 0.74964 0.51165 0.0
C632 C 0.4347 0.80544 0.54701 0.0
H633 H 0.5132 0.71599 0.616 0.0
H634 H 0.46248 0.71417 0.58822 0.0
H635 H 0.48328 0.83404 0.57221 0.0
H636 H 0.41663 0.77192 0.45961 0.0
H637 H 0.44285 0.78523 0.49986 0.0
H638 H 0.35498 0.70708 0.55022 0.0
C639 C 0.4757 0.73861 0.6011 0.0
C640 C 0.4546 0.80662 0.56796 0.0
C641 C 0.50481 0.73974 0.61682 0.0
C642 C 0.39536 0.76587 0.474 0.0
C643 C 0.41032 0.77377 0.49694 0.0
C644 C 0.38225 0.73532 0.55525 0.0
C645 C 0.46559 0.76998 0.60113 0.0
C646 C 0.43956 0.77152 0.58214 0.0
C647 C 0.3833 0.76516 0.51596 0.0
C648 C 0.39917 0.76933 0.54013 0.0
H649 H 0.52722 0.82779 0.64593 0.0
H650 H 0.47692 0.82648 0.61786 0.0
H651 H 0.3903 0.70896 0.58685 0.0
H652 H 0.29366 0.7301 0.48553 0.0
H653 H 0.31984 0.74268 0.52611 0.0
C654 C 0.70116 0.49468 0.96087 0.0
C655 C 0.74349 0.5166 0.9654 0.0
C656 C 0.68606 0.46717 0.94206 0.0
C657 C 0.72345 0.45234 0.88489 0.0
H658 H 0.61257 0.36008 0.88015 0.0
C659 C 0.64907 0.39576 0.79556 0.0
C660 C 0.6237 0.35359 0.7919 0.0
C661 C 0.6627 0.4109 0.81806 0.0
C662 C 0.64384 0.38538 0.88127 0.0
H663 H 0.80352 0.52818 0.95406 0.0
H664 H 0.77733 0.47814 0.92241 0.0
H665 H 0.63909 0.39169 0.91839 0.0
H666 H 0.59198 0.29399 0.80863 0.0
H667 H 0.61702 0.32036 0.84819 0.0
H668 H 0.7289 0.4455 0.84813 0.0
C669 C 0.75551 0.48233 0.93288 0.0
C670 C 0.65888 0.40383 0.90314 0.0
C671 C 0.77055 0.51042 0.95127 0.0
C672 C 0.61157 0.3267 0.81115 0.0
C673 C 0.62575 0.34182 0.83373 0.0
C674 C 0.70875 0.43356 0.86326 0.0
C675 C 0.71326 0.4615 0.92744 0.0
C676 C 0.69857 0.43818 0.90509 0.0
C677 C 0.65187 0.3841 0.83737 0.0
C678 C 0.66839 0.4007 0.86101 0.0
H679 H 0.68003 0.50008 0.97128 0.0
H680 H 0.65346 0.45232 0.93822 0.0
H681 H 0.75389 0.47908 0.88544 0.0
H682 H 0.65814 0.41709 0.78099 0.0
H683 H 0.6817 0.44374 0.8203 0.0
C684 C 0.35136 0.43031 1.00389 0.0
C685 C 0.33146 0.43302 0.0242 0.0
C686 C 0.39399 0.44527 1.00395 0.0
C687 C 0.48285 0.46794 0.03977 0.0
H688 H 0.54701 0.55865 0.99753 0.0
C689 C 0.66036 0.55471 0.04487 0.0
C690 C 0.683 0.57053 0.02411 0.0
C691 C 0.61784 0.53992 0.04531 0.0
C692 C 0.52984 0.53291 0.00918 0.0
H693 H 0.33992 0.45166 0.06069 0.0
H694 H 0.41407 0.4759 0.06113 0.0
H695 H 0.47202 0.52485 0.9968 0.0
H696 H 0.67922 0.5836 0.9875 0.0
H697 H 0.605 0.55649 0.98777 0.0
H698 H 0.53984 0.4742 0.05155 0.0
C699 C 0.39687 0.46286 0.0451 0.0
C700 C 0.48672 0.51368 0.00879 0.0
C701 C 0.3545 0.44892 0.04487 0.0
C702 C 0.66257 0.57239 1.00389 0.0
C703 C 0.61982 0.55668 1.00412 0.0
C704 C 0.52589 0.48645 0.03979 0.0
C705 C 0.41723 0.46223 0.02448 0.0
C706 C 0.46283 0.4812 0.02418 0.0
C707 C 0.59651 0.53938 0.02475 0.0
C708 C 0.55028 0.51956 0.02465 0.0
H709 H 0.33445 0.419 0.98759 0.0
H710 H 0.40898 0.4444 0.98783 0.0
H711 H 0.4651 0.44282 0.05175 0.0
H712 H 0.67545 0.55295 0.06071 0.0
H713 H 0.60174 0.52826 0.06178 0.0
C714 C 0.08643 0.65726 0.32615 0.0
C715 C 0.09764 0.6774 0.34791 0.0
C716 C 0.05937 0.61488 0.32509 0.0
C717 C 0.98634 0.52385 0.36031 0.0
H718 H 0.02478 0.46585 0.32042 0.0
C719 C 0.92137 0.35108 0.371 0.0
C720 C 0.90872 0.32766 0.35035 0.0
C721 C 0.94646 0.39364 0.36994 0.0
C722 C 0.01344 0.48156 0.3315 0.0
H723 H 0.08842 0.66995 0.38547 0.0
H724 H 0.04076 0.59626 0.38378 0.0
H725 H 0.05947 0.54067 0.31922 0.0
H726 H 0.91376 0.32971 0.31246 0.0
H727 H 0.95855 0.40428 0.31048 0.0
H728 H 0.94059 0.46485 0.37276 0.0
C729 C 0.05221 0.61289 0.36744 0.0
C730 C 0.03315 0.52447 0.33072 0.0
C731 C 0.0793 0.65517 0.36845 0.0
C732 C 0.92409 0.34707 0.32867 0.0
C733 C 0.94931 0.38981 0.32756 0.0
C734 C 0.96671 0.48103 0.36111 0.0
C735 C 0.04318 0.59193 0.34582 0.0
C736 C 0.02005 0.54619 0.34527 0.0
C737 C 0.95931 0.41372 0.34815 0.0
C738 C 0.9803 0.45935 0.34693 0.0
H739 H 0.10112 0.67365 0.31014 0.0
H740 H 0.05264 0.59982 0.30813 0.0
H741 H 0.97508 0.53949 0.37151 0.0
H742 H 0.90962 0.33671 0.3879 0.0
H743 H 0.95432 0.41099 0.38617 0.0
C744 C 0.43444 0.0839 0.70236 0.0
C745 C 0.42564 0.09921 0.68198 0.0
C746 C 0.4502 0.05715 0.7008 0.0
C747 C 0.51006 0.02919 0.66082 0.0
H748 H 0.48309 0.94309 0.70659 0.0
C749 C 0.57611 0.91648 0.65986 0.0
C750 C 0.58418 0.90514 0.68192 0.0
C751 C 0.55799 0.94143 0.65832 0.0
C752 C 0.49133 0.96732 0.69381 0.0
H753 H 0.42424 0.0966 0.64395 0.0
H754 H 0.45142 0.04927 0.64116 0.0
H755 H 0.44481 0.9799 0.70641 0.0
H756 H 0.58347 0.91423 0.71946 0.0
H757 H 0.55283 0.95814 0.71682 0.0
H758 H 0.55682 0.01648 0.64834 0.0
C759 C 0.44667 0.05851 0.65838 0.0
C760 C 0.46925 0.98837 0.69366 0.0
C761 C 0.43053 0.08514 0.65997 0.0
C762 C 0.57711 0.92203 0.70223 0.0
C763 C 0.55915 0.94686 0.70071 0.0
C764 C 0.53217 0.00799 0.66094 0.0
C765 C 0.45764 0.04496 0.6788 0.0
C766 C 0.47868 0.02002 0.67741 0.0
C767 C 0.54785 0.95557 0.67882 0.0
C768 C 0.52354 0.97728 0.67773 0.0
H769 H 0.43101 0.09422 0.71956 0.0
H770 H 0.45854 0.04772 0.71691 0.0
H771 H 0.51851 0.0537 0.64822 0.0
H772 H 0.58104 0.90379 0.6439 0.0
H773 H 0.54983 0.94766 0.64117 0.0
C774 C 0.57117 0.65805 0.655 0.0
C775 C 0.57419 0.67632 0.67701 0.0
C776 C 0.55397 0.6153 0.65312 0.0
C777 C 0.48496 0.5203 0.68693 0.0
H778 H 0.51999 0.46612 0.64201 0.0
C779 C 0.44466 0.35186 0.69567 0.0
C780 C 0.43243 0.32695 0.67553 0.0
C781 C 0.45807 0.39372 0.69401 0.0
C782 C 0.50952 0.48087 0.65442 0.0
H783 H 0.56439 0.66477 0.71439 0.0
H784 H 0.5365 0.59115 0.71135 0.0
H785 H 0.5544 0.54116 0.64285 0.0
H786 H 0.42417 0.32617 0.63785 0.0
H787 H 0.44843 0.40013 0.63484 0.0
H788 H 0.44111 0.46015 0.69902 0.0
C789 C 0.5456 0.60912 0.69535 0.0
C790 C 0.52926 0.52391 0.65494 0.0
C791 C 0.56214 0.65149 0.69716 0.0
C792 C 0.43286 0.34461 0.65368 0.0
C793 C 0.44717 0.38691 0.65194 0.0
C794 C 0.46564 0.4775 0.68658 0.0
C795 C 0.53984 0.59012 0.67326 0.0
C796 C 0.51774 0.54427 0.67152 0.0
C797 C 0.46035 0.41197 0.6721 0.0
C798 C 0.47805 0.45725 0.67058 0.0
H799 H 0.57977 0.67643 0.63915 0.0
H800 H 0.55004 0.60191 0.6358 0.0
H801 H 0.47417 0.53459 0.69946 0.0
H802 H 0.44488 0.33909 0.71271 0.0
H803 H 0.46827 0.41218 0.70983 0.0
C804 C 0.10357 0.44018 0.97056 0.0
C805 C 0.11098 0.43314 0.99388 0.0
C806 C 0.07797 0.45703 0.96586 0.0
C807 C 0.05214 0.52835 0.99272 0.0
H808 H 0.94971 0.48188 0.95793 0.0
C809 C 0.93197 0.57636 0.01097 0.0
C810 C 0.9065 0.57686 0.99303 0.0
C811 C 0.96028 0.56321 0.00654 0.0
C812 C 0.97874 0.49579 0.96727 0.0
H813 H 0.09472 0.43508 0.03029 0.0
H814 H 0.05087 0.46434 0.02211 0.0
H815 H 0.99051 0.44687 0.95797 0.0
H816 H 0.89132 0.56477 0.95613 0.0
H817 H 0.94153 0.54189 0.94816 0.0
H818 H 0.04076 0.57683 1.00238 0.0
C819 C 0.06499 0.45739 0.00749 0.0
C820 C 1.00197 0.47561 0.96733 0.0
C821 C 0.09003 0.44046 0.01213 0.0
C822 C 0.91114 0.56542 0.97019 0.0
C823 C 0.93943 0.55175 0.96574 0.0
C824 C 0.02933 0.54862 0.99248 0.0
C825 C 0.05976 0.4672 0.98444 0.0
C826 C 0.0382 0.49108 0.98072 0.0
C827 C 0.96393 0.54985 0.98401 0.0
C828 C 0.99151 0.53193 0.98049 0.0
H829 H 0.11962 0.4353 0.95616 0.0
H830 H 0.07434 0.46428 0.94791 0.0
H831 H 0.08025 0.54123 1.00295 0.0
H832 H 0.92882 0.58463 0.0288 0.0
H833 H 0.97791 0.56165 0.02119 0.0
C834 C 0.34722 0.92244 0.33317 0.0
C835 C 0.33478 0.88217 0.34046 0.0
C836 C 0.38923 0.95117 0.33021 0.0
C837 C 0.49212 0.95805 0.32339 0.0
H838 H 0.53437 0.06984 0.34462 0.0
C839 C 0.66691 0.0742 0.33826 0.0
C840 C 0.68042 0.11533 0.33251 0.0
C841 C 0.62486 0.0447 0.33675 0.0
C842 C 0.52306 0.03884 0.33833 0.0
H843 H 0.3577 0.84124 0.3507 0.0
H844 H 0.42949 0.89075 0.34603 0.0
H845 H 0.46067 0.02184 0.34639 0.0
H846 H 0.66101 0.15685 0.31868 0.0
H847 H 0.5887 0.10598 0.31587 0.0
H848 H 0.5548 0.97503 0.31577 0.0
C849 C 0.4071 0.90015 0.34196 0.0
C850 C 0.48067 0.01132 0.33929 0.0
C851 C 0.3655 0.87166 0.34484 0.0
C852 C 0.65159 0.12572 0.32384 0.0
C853 C 0.60996 0.0965 0.32228 0.0
C854 C 0.53457 0.98556 0.32254 0.0
C855 C 0.41971 0.94026 0.33451 0.0
C856 C 0.4646 0.97043 0.332 0.0
C857 C 0.59576 0.05589 0.32939 0.0
C858 C 0.5506 0.02629 0.33006 0.0
H859 H 0.32469 0.93186 0.32982 0.0
H860 H 0.39778 0.98181 0.32435 0.0
H861 H 0.48086 0.92699 0.31724 0.0
H862 H 0.6884 0.06529 0.34502 0.0
H863 H 0.61494 0.0136 0.34234 0.0
C864 C 0.34939 0.22817 0.73205 0.0
C865 C 0.36064 0.19777 0.73471 0.0
C866 C 0.32732 0.235 0.74985 0.0
C867 C 0.31107 0.22112 0.81429 0.0
H868 H 0.22563 0.24944 0.80475 0.0
C869 C 0.21492 0.22717 0.89178 0.0
C870 C 0.20294 0.25728 0.89218 0.0
C871 C 0.23406 0.22183 0.87202 0.0
C872 C 0.24982 0.2421 0.80773 0.0
H873 H 0.35636 0.14987 0.7576 0.0
H874 H 0.31744 0.16106 0.78829 0.0
H875 H 0.25644 0.23455 0.77078 0.0
H876 H 0.20254 0.30584 0.87184 0.0
H877 H 0.23666 0.29691 0.8373 0.0
H878 H 0.3049 0.22873 0.85105 0.0
C879 C 0.32604 0.18016 0.77274 0.0
C880 C 0.26743 0.23344 0.78821 0.0
C881 C 0.34802 0.17342 0.75504 0.0
C882 C 0.21148 0.28249 0.87225 0.0
C883 C 0.23064 0.27703 0.85233 0.0
C884 C 0.29361 0.22979 0.83369 0.0
C885 C 0.31652 0.21191 0.7708 0.0
C886 C 0.29794 0.22225 0.79126 0.0
C887 C 0.24213 0.24649 0.85191 0.0
C888 C 0.26232 0.23988 0.83081 0.0
H889 H 0.35929 0.24792 0.71675 0.0
H890 H 0.32064 0.25975 0.7477 0.0
H891 H 0.33527 0.21382 0.8174 0.0
H892 H 0.20944 0.20749 0.90684 0.0
H893 H 0.24189 0.19767 0.87241 0.0
C894 C 0.95374 0.22784 0.21323 0.0
C895 C 0.96765 0.21028 0.23023 0.0
C896 C 0.97645 0.24518 0.19256 0.0
C897 C 0.05727 0.24407 0.15458 0.0
H898 H 0.06918 0.34533 0.12959 0.0
C899 C 0.17657 0.33854 0.08191 0.0
C900 C 0.16671 0.36056 0.06577 0.0
C901 C 0.14967 0.31696 0.10046 0.0
C902 C 0.06569 0.31664 0.13602 0.0
H903 H 0.01771 0.1991 0.23896 0.0
H904 H 0.05683 0.22892 0.20316 0.0
H905 H 0.02796 0.31529 0.1648 0.0
H906 H 0.12142 0.37811 0.05665 0.0
H907 H 0.07383 0.3395 0.08834 0.0
H908 H 0.09502 0.2454 0.12584 0.0
C909 C 0.0279 0.22853 0.2055 0.0
C910 C 0.04202 0.29943 0.15635 0.0
C911 C 1.00535 0.21138 0.22613 0.0
C912 C 0.12925 0.36032 0.0684 0.0
C913 C 0.10232 0.33876 0.08688 0.0
C914 C 0.08081 0.26119 0.1342 0.0
C915 C 0.01368 0.24539 0.18828 0.0
C916 C 0.03773 0.26307 0.16607 0.0
C917 C 0.11248 0.31747 0.10353 0.0
C918 C 0.08567 0.29793 0.12467 0.0
H919 H 0.92472 0.22726 0.21556 0.0
H920 H 0.96428 0.25757 0.17967 0.0
H921 H 0.05413 0.21566 0.16126 0.0
H922 H 0.20576 0.33913 0.08063 0.0
H923 H 0.15902 0.3015 0.113 0.0
C924 C 0.72993 0.94113 0.54216 0.0
C925 C 0.75664 0.95808 0.56149 0.0
C926 C 0.73512 0.96466 0.52189 0.0
C927 C 0.78208 0.07263 0.50184 0.0
H928 H 0.77603 0.02884 0.4393 0.0
C929 C 0.83303 0.18004 0.42238 0.0
C930 C 0.8087 0.16701 0.40204 0.0
C931 C 0.82771 0.1523 0.44024 0.0
C932 C 0.77743 0.04144 0.45662 0.0
H933 H 0.80912 0.01353 0.57472 0.0
H934 H 0.81815 0.0542 0.53966 0.0
H935 H 0.76275 0.98476 0.47375 0.0
H936 H 0.75996 0.11433 0.38422 0.0
H937 H 0.7502 0.06551 0.41562 0.0
H938 H 0.79622 0.12896 0.48505 0.0
C939 C 0.79316 0.02277 0.54004 0.0
C940 C 0.76978 0.01614 0.47639 0.0
C941 C 0.78821 0.99926 0.56013 0.0
C942 C 0.77969 0.12513 0.39954 0.0
C943 C 0.77407 0.09721 0.41759 0.0
C944 C 0.78952 0.09774 0.4822 0.0
C945 C 0.7668 0.00587 0.52059 0.0
C946 C 0.77255 0.03161 0.49929 0.0
C947 C 0.79714 0.11073 0.43855 0.0
C948 C 0.78794 0.08282 0.45928 0.0
H949 H 0.70546 0.90946 0.54253 0.0
H950 H 0.71404 0.95072 0.50733 0.0
H951 H 0.78358 0.08542 0.51912 0.0
H952 H 0.85551 0.21216 0.4248 0.0
H953 H 0.8469 0.16378 0.45574 0.0
C954 C 0.67195 0.83676 0.75436 0.0
C955 C 0.6566 0.81065 0.73482 0.0
C956 C 0.69396 0.8299 0.77194 0.0
C957 C 0.74811 0.77274 0.7882 0.0
H958 H 0.71391 0.78295 0.85102 0.0
C959 C 0.80319 0.7245 0.87275 0.0
C960 C 0.81287 0.75056 0.89239 0.0
C961 C 0.78423 0.73004 0.85279 0.0
C962 C 0.72433 0.78037 0.83367 0.0
H963 H 0.65347 0.75742 0.71798 0.0
H964 H 0.69233 0.74546 0.74869 0.0
H965 H 0.68417 0.7981 0.81722 0.0
H966 H 0.80857 0.802 0.90648 0.0
H967 H 0.77672 0.81209 0.87195 0.0
H968 H 0.78854 0.75513 0.80487 0.0
C969 C 0.68762 0.77157 0.75033 0.0
C970 C 0.70721 0.78914 0.81419 0.0
C971 C 0.66546 0.77849 0.73267 0.0
C972 C 0.80226 0.78165 0.89165 0.0
C973 C 0.7834 0.78714 0.87183 0.0
C974 C 0.76547 0.76407 0.80781 0.0
C975 C 0.7009 0.79637 0.77062 0.0
C976 C 0.71916 0.786 0.79116 0.0
C977 C 0.77414 0.76157 0.85202 0.0
C978 C 0.75418 0.76827 0.83087 0.0
H979 H 0.66552 0.86172 0.7565 0.0
H980 H 0.70451 0.85025 0.78698 0.0
H981 H 0.7581 0.77 0.77075 0.0
H982 H 0.81104 0.70036 0.87258 0.0
H983 H 0.77725 0.70943 0.83802 0.0
C984 C 0.03188 0.75507 0.22511 0.0
C985 C 0.05647 0.79791 0.22731 0.0
C986 C 0.00839 0.73746 0.20475 0.0
C987 C 0.96329 0.76294 0.15327 0.0
H988 H 0.94737 0.65972 0.12891 0.0
C989 C 0.88687 0.64583 0.06802 0.0
C990 C 0.8494 0.64573 0.0659 0.0
C991 C 0.91427 0.66717 0.08633 0.0
C992 C 0.95177 0.68881 0.13526 0.0
H993 H 0.07687 0.85553 0.20905 0.0
H994 H 0.03637 0.82501 0.17374 0.0
H995 H 0.99128 0.69062 0.16305 0.0
H996 H 0.81089 0.66727 0.08146 0.0
H997 H 0.85864 0.70475 0.11352 0.0
H998 H 0.92421 0.76136 0.12525 0.0
C999 C 0.0343 0.80493 0.18796 0.0
C1000 C 0.97661 0.70631 0.15513 0.0
C1001 C 0.05769 0.82249 0.20828 0.0
C1002 C 0.84003 0.66771 0.08238 0.0
C1003 C 0.86748 0.68917 0.10073 0.0
C1004 C 0.93841 0.74542 0.1334 0.0
C1005 C 0.00889 0.76216 0.18595 0.0
C1006 C 0.98271 0.74361 0.16451 0.0
C1007 C 0.90465 0.68849 0.10327 0.0
C1008 C 0.93218 0.70802 0.1241 0.0
H1009 H 0.02976 0.73513 0.23943 0.0
H1010 H 0.98895 0.70446 0.20405 0.0
H1011 H 0.96674 0.79143 0.16005 0.0
H1012 H 0.89438 0.62814 0.05598 0.0
H1013 H 0.94273 0.66632 0.08741 0.0
C1014 C 0.27666 0.0571 0.54412 0.0
C1015 C 0.24907 0.04082 0.56315 0.0
C1016 C 0.27152 0.03336 0.52394 0.0
C1017 C 0.22171 0.92511 0.50373 0.0
H1018 H 0.23365 0.97044 0.44111 0.0
C1019 C 0.17175 0.81904 0.42343 0.0
C1020 C 0.19747 0.83167 0.40361 0.0
C1021 C 0.1773 0.8467 0.44142 0.0
C1022 C 0.23058 0.95737 0.45846 0.0
H1023 H 0.19503 0.98626 0.57593 0.0
H1024 H 0.186 0.94528 0.54099 0.0
H1025 H 0.24657 0.01443 0.47555 0.0
H1026 H 0.24885 0.88363 0.38683 0.0
H1027 H 0.25889 0.93223 0.4184 0.0
H1028 H 0.20616 0.86834 0.48694 0.0
C1029 C 0.21169 0.97635 0.54156 0.0
C1030 C 0.23803 0.98264 0.47823 0.0
C1031 C 0.21664 1.00006 0.56157 0.0
C1032 C 0.22813 0.87312 0.40176 0.0
C1033 C 0.23389 0.90094 0.4199 0.0
C1034 C 0.21442 0.90001 0.48407 0.0
C1035 C 0.23895 0.99259 0.52241 0.0
C1036 C 0.23321 0.96668 0.50116 0.0
C1037 C 0.20931 0.88776 0.44034 0.0
C1038 C 0.21818 0.91552 0.46112 0.0
H1039 H 0.30182 0.08844 0.54464 0.0
H1040 H 0.29332 0.04681 0.50964 0.0
H1041 H 0.21859 0.91188 0.52104 0.0
H1042 H 0.1479 0.78728 0.42533 0.0
H1043 H 0.15699 0.83555 0.4565 0.0
loop_
_geom_bond_atom_site_label_1
_geom_bond_atom_site_label_2
_geom_bond_distance
_geom_bond_site_symmetry_2
_ccdc_geom_bond_type
Eu0 N31 2.657 . S
Eu0 N38 2.609 . S
Eu0 O44 2.558 . S
Eu0 O45 2.612 . S
Eu0 O47 2.339 . S
Eu0 O48 2.563 . S
Eu0 O49 2.419 . S
Eu0 O51 2.380 1_554 S
Eu0 O52 2.432 . S
Eu0 C64 2.848 . S
C1 C4 1.429 . S
C1 C5 1.411 . S
C1 N8 1.377 1_554 S
C2 C4 1.420 . S
C2 C6 1.423 . S
C2 C14 1.392 . S
C3 C5 1.420 . S
C3 C6 1.351 . S
C3 H26 0.931 . S
C4 C1 1.429 . S
C4 C2 1.420 . S
C4 N12 1.362 . S
C5 C1 1.411 . S
C5 C3 1.420 . S
C5 C10 1.395 1_554 S
C6 C2 1.423 . S
C6 C3 1.351 . S
C6 H18 0.930 . S
C7 C9 1.400 . S
C7 C10 1.386 . S
C7 H19 0.930 . S
N8 C1 1.377 1_556 S
N8 C9 1.321 . S
N8 Eu11 2.609 . S
C9 C7 1.400 . S
C9 N8 1.321 . S
C9 H16 0.930 . S
C10 C5 1.395 1_556 S
C10 C7 1.386 . S
C10 H29 0.930 . S
Eu11 N8 2.609 . S
Eu11 N12 2.657 1_556 S
Eu11 O45 2.380 1_556 S
Eu11 O46 2.432 . S
Eu11 O50 2.558 . S
Eu11 O51 2.612 . S
Eu11 O53 2.339 1_556 S
Eu11 O54 2.563 . S
Eu11 O55 2.419 . S
Eu11 C75 2.848 . S
N12 C4 1.362 . S
N12 Eu11 2.657 1_554 S
N12 C13 1.334 . S
C13 N12 1.334 . S
C13 C15 1.413 . S
C13 H20 0.929 . S
C14 C2 1.392 . S
C14 C15 1.367 . S
C14 H22 0.930 . S
C15 C13 1.413 . S
C15 C14 1.367 . S
C15 H17 0.930 . S
H16 C9 0.930 . S
H17 C15 0.930 . S
H18 C6 0.930 . S
H19 C7 0.930 . S
H20 C13 0.929 . S
H21 C35 0.930 . S
H22 C14 0.930 . S
H23 C41 0.930 . S
H24 C32 0.929 . S
H25 C39 0.930 . S
H26 C3 0.931 . S
H27 C33 0.930 . S
H28 C66 0.930 . S
H29 C10 0.930 . S
H30 C65 0.931 . S
N31 Eu0 2.657 . S
N31 C32 1.334 1_554 S
N31 C36 1.363 . S
C32 H24 0.929 . S
C32 N31 1.334 1_556 S
C32 C35 1.413 . S
C33 H27 0.930 . S
C33 C34 1.392 . S
C33 C35 1.367 . S
C34 C33 1.392 . S
C34 C36 1.401 1_556 S
C34 C66 1.423 . S
C35 H21 0.930 . S
C35 C32 1.413 . S
C35 C33 1.367 . S
C36 N31 1.363 . S
C36 C34 1.401 1_554 S
C36 C40 1.447 . S
H37 C42 0.930 . S
N38 Eu0 2.609 . S
N38 C40 1.377 . S
N38 C41 1.321 . S
C39 H25 0.930 . S
C39 C41 1.400 . S
C39 C42 1.386 . S
C40 C36 1.447 . S
C40 N38 1.377 . S
C40 C43 1.411 . S
C41 H23 0.930 . S
C41 N38 1.321 . S
C41 C39 1.400 . S
C42 H37 0.930 . S
C42 C39 1.386 . S
C42 C43 1.395 . S
C43 C40 1.411 . S
C43 C42 1.395 . S
C43 C65 1.424 . S
O44 Eu0 2.558 . S
O44 C64 1.257 . S
O45 Eu0 2.612 . S
O45 Eu11 2.380 1_554 S
O45 C56 1.276 . S
O46 Eu11 2.432 . S
O46 C63 1.264 1_556 S
O47 Eu0 2.339 . S
O47 C63 1.254 . S
O48 Eu0 2.563 . S
O48 C56 1.235 . S
O49 Eu0 2.419 . S
O49 C64 1.249 . S
O50 Eu11 2.558 . S
O50 C75 1.257 . S
O51 Eu0 2.380 1_556 S
O51 Eu11 2.612 . S
O51 C67 1.276 . S
O52 Eu0 2.432 . S
O52 C74 1.264 . S
O53 Eu11 2.339 1_554 S
O53 C74 1.254 . S
O54 Eu11 2.563 . S
O54 C67 1.235 . S
O55 Eu11 2.419 . S
O55 C75 1.249 . S
C56 O45 1.276 . S
C56 O48 1.235 . S
C57 C59 1.393 . S
C57 C61 1.395 . S
C57 C64 1.492 . S
C58 C59 1.392 . S
C58 C60 1.386 . S
C59 C57 1.393 . S
C59 C58 1.392 . S
C59 H76 0.930 . S
C60 C58 1.386 . S
C60 C62 1.395 . S
C60 H77 0.930 . S
C61 C57 1.395 . S
C61 C62 1.379 . S
C61 H78 0.930 . S
C62 C60 1.395 . S
C62 C61 1.379 . S
C62 H79 0.930 . S
C63 O46 1.264 1_554 S
C63 O47 1.254 . S
C64 Eu0 2.848 . S
C64 O44 1.257 . S
C64 O49 1.249 . S
C64 C57 1.492 . S
C65 H30 0.931 . S
C65 C43 1.424 . S
C65 C66 1.346 1_554 S
C66 H28 0.930 . S
C66 C34 1.423 . S
C66 C65 1.346 1_556 S
C67 O51 1.276 . S
C67 O54 1.235 . S
C68 C69 1.393 . S
C68 C72 1.395 . S
C68 C75 1.492 . S
C69 C68 1.393 . S
C69 C70 1.392 . S
C69 H80 0.930 . S
C70 C69 1.392 . S
C70 C71 1.386 . S
C71 C70 1.386 . S
C71 C73 1.395 . S
C71 H81 0.930 . S
C72 C68 1.395 . S
C72 C73 1.379 . S
C72 H82 0.930 . S
C73 C71 1.395 . S
C73 C72 1.379 . S
C73 H83 0.930 . S
C74 O52 1.264 . S
C74 O53 1.254 . S
C75 Eu11 2.848 . S
C75 O50 1.257 . S
C75 O55 1.249 . S
C75 C68 1.492 . S
H76 C59 0.930 . S
H77 C60 0.930 . S
H78 C61 0.930 . S
H79 C62 0.930 . S
H80 C69 0.930 . S
H81 C71 0.930 . S
H82 C72 0.930 . S
H83 C73 0.930 . S
Eu84 N115 2.657 . S
Eu84 N122 2.609 . S
Eu84 O128 2.558 . S
Eu84 O129 2.612 . S
Eu84 O131 2.339 . S
Eu84 O132 2.563 . S
Eu84 O133 2.419 . S
Eu84 O135 2.380 . S
Eu84 O136 2.432 . S
Eu84 C148 2.848 . S
C85 C88 1.429 . S
C85 C89 1.411 . S
C85 N92 1.377 . S
C86 C88 1.420 . S
C86 C90 1.423 . S
C86 C98 1.392 . S
C87 C89 1.420 . S
C87 C90 1.351 . S
C87 H110 0.931 . S
C88 C85 1.429 . S
C88 C86 1.420 . S
C88 N96 1.362 . S
C89 C85 1.411 . S
C89 C87 1.420 . S
C89 C94 1.395 . S
C90 C86 1.423 . S
C90 C87 1.351 . S
C90 H102 0.930 . S
C91 C93 1.400 . S
C91 C94 1.386 . S
C91 H103 0.930 . S
N92 C85 1.377 . S
N92 C93 1.321 . S
N92 Eu95 2.609 . S
C93 C91 1.400 . S
C93 N92 1.321 . S
C93 H100 0.930 . S
C94 C89 1.395 . S
C94 C91 1.386 . S
C94 H113 0.930 . S
Eu95 N92 2.609 . S
Eu95 N96 2.657 . S
Eu95 O129 2.380 . S
Eu95 O130 2.432 . S
Eu95 O134 2.558 . S
Eu95 O135 2.612 . S
Eu95 O137 2.339 . S
Eu95 O138 2.563 . S
Eu95 O139 2.419 . S
Eu95 C159 2.848 . S
N96 C88 1.362 . S
N96 Eu95 2.657 . S
N96 C97 1.334 . S
C97 N96 1.334 . S
C97 C99 1.413 . S
C97 H104 0.929 . S
C98 C86 1.392 . S
C98 C99 1.367 . S
C98 H106 0.930 . S
C99 C97 1.413 . S
C99 C98 1.367 . S
C99 H101 0.930 . S
H100 C93 0.930 . S
H101 C99 0.930 . S
H102 C90 0.930 . S
H103 C91 0.930 . S
H104 C97 0.929 . S
H105 C119 0.930 . S
H106 C98 0.930 . S
H107 C125 0.930 . S
H108 C116 0.929 . S
H109 C123 0.930 . S
H110 C87 0.931 . S
H111 C117 0.930 . S
H112 C150 0.930 . S
H113 C94 0.930 . S
H114 C149 0.931 . S
N115 Eu84 2.657 . S
N115 C116 1.334 . S
N115 C120 1.362 . S
C116 H108 0.929 . S
C116 N115 1.334 . S
C116 C119 1.413 . S
C117 H111 0.930 . S
C117 C118 1.392 . S
C117 C119 1.367 . S
C118 C117 1.392 . S
C118 C120 1.420 . S
C118 C150 1.423 . S
C119 H105 0.930 . S
C119 C116 1.413 . S
C119 C117 1.367 . S
C120 N115 1.362 . S
C120 C118 1.420 . S
C120 C124 1.429 . S
H121 C126 0.930 . S
N122 Eu84 2.609 . S
N122 C124 1.377 . S
N122 C125 1.321 . S
C123 H109 0.930 . S
C123 C125 1.400 . S
C123 C126 1.386 . S
C124 C120 1.429 . S
C124 N122 1.377 . S
C124 C127 1.411 . S
C125 H107 0.930 . S
C125 N122 1.321 . S
C125 C123 1.400 . S
C126 H121 0.930 . S
C126 C123 1.386 . S
C126 C127 1.395 . S
C127 C124 1.411 . S
C127 C126 1.395 . S
C127 C149 1.420 . S
O128 Eu84 2.558 . S
O128 C148 1.257 . S
O129 Eu84 2.612 . S
O129 Eu95 2.380 . S
O129 C140 1.276 . S
O130 Eu95 2.432 . S
O130 C147 1.264 . S
O131 Eu84 2.339 . S
O131 C147 1.254 . S
O132 Eu84 2.563 . S
O132 C140 1.235 . S
O133 Eu84 2.419 . S
O133 C148 1.249 . S
O134 Eu95 2.558 . S
O134 C159 1.257 . S
O135 Eu84 2.380 . S
O135 Eu95 2.612 . S
O135 C151 1.276 . S
O136 Eu84 2.432 . S
O136 C158 1.264 . S
O137 Eu95 2.339 . S
O137 C158 1.254 . S
O138 Eu95 2.563 . S
O138 C151 1.235 . S
O139 Eu95 2.419 . S
O139 C159 1.249 . S
C140 O129 1.276 . S
C140 O132 1.235 . S
C141 C143 1.393 . S
C141 C145 1.395 . S
C141 C148 1.492 . S
C142 C143 1.392 . S
C142 C144 1.386 . S
C143 C141 1.393 . S
C143 C142 1.392 . S
C143 H160 0.930 . S
C144 C142 1.386 . S
C144 C146 1.395 . S
C144 H161 0.930 . S
C145 C141 1.395 . S
C145 C146 1.379 . S
C145 H162 0.930 . S
C146 C144 1.395 . S
C146 C145 1.379 . S
C146 H163 0.930 . S
C147 O130 1.264 . S
C147 O131 1.254 . S
C148 Eu84 2.848 . S
C148 O128 1.257 . S
C148 O133 1.249 . S
C148 C141 1.492 . S
C149 H114 0.931 . S
C149 C127 1.420 . S
C149 C150 1.351 . S
C150 H112 0.930 . S
C150 C118 1.423 . S
C150 C149 1.351 . S
C151 O135 1.276 . S
C151 O138 1.235 . S
C152 C153 1.393 . S
C152 C156 1.395 . S
C152 C159 1.492 . S
C153 C152 1.393 . S
C153 C154 1.392 . S
C153 H164 0.930 . S
C154 C153 1.392 . S
C154 C155 1.386 . S
C155 C154 1.386 . S
C155 C157 1.395 . S
C155 H165 0.930 . S
C156 C152 1.395 . S
C156 C157 1.379 . S
C156 H166 0.930 . S
C157 C155 1.395 . S
C157 C156 1.379 . S
C157 H167 0.930 . S
C158 O136 1.264 . S
C158 O137 1.254 . S
C159 Eu95 2.848 . S
C159 O134 1.257 . S
C159 O139 1.249 . S
C159 C152 1.492 . S
H160 C143 0.930 . S
H161 C144 0.930 . S
H162 C145 0.930 . S
H163 C146 0.930 . S
H164 C153 0.930 . S
H165 C155 0.930 . S
H166 C156 0.930 . S
H167 C157 0.930 . S
Eu168 N199 2.657 . S
Eu168 N206 2.609 . S
Eu168 O212 2.558 . S
Eu168 O213 2.612 . S
Eu168 O215 2.339 . S
Eu168 O216 2.563 . S
Eu168 O217 2.419 . S
Eu168 O219 2.380 . S
Eu168 O220 2.432 . S
Eu168 C232 2.848 . S
C169 C172 1.429 . S
C169 C173 1.411 . S
C169 N176 1.377 . S
C170 C172 1.420 . S
C170 C174 1.423 . S
C170 C182 1.392 . S
C171 C173 1.420 . S
C171 C174 1.351 . S
C171 H194 0.931 . S
C172 C169 1.429 . S
C172 C170 1.420 . S
C172 N180 1.362 . S
C173 C169 1.411 . S
C173 C171 1.420 . S
C173 C178 1.395 . S
C174 C170 1.423 . S
C174 C171 1.351 . S
C174 H186 0.930 . S
C175 C177 1.400 . S
C175 C178 1.386 . S
C175 H187 0.930 . S
N176 C169 1.377 . S
N176 C177 1.321 . S
N176 Eu179 2.609 . S
C177 C175 1.400 . S
C177 N176 1.321 . S
C177 H184 0.930 . S
C178 C173 1.395 . S
C178 C175 1.386 . S
C178 H197 0.930 . S
Eu179 N176 2.609 . S
Eu179 N180 2.657 . S
Eu179 O213 2.380 . S
Eu179 O214 2.432 . S
Eu179 O218 2.558 . S
Eu179 O219 2.612 . S
Eu179 O221 2.339 . S
Eu179 O222 2.563 . S
Eu179 O223 2.419 . S
Eu179 C243 2.848 . S
N180 C172 1.362 . S
N180 Eu179 2.657 . S
N180 C181 1.334 . S
C181 N180 1.334 . S
C181 C183 1.413 . S
C181 H188 0.929 . S
C182 C170 1.392 . S
C182 C183 1.367 . S
C182 H190 0.930 . S
C183 C181 1.413 . S
C183 C182 1.367 . S
C183 H185 0.930 . S
H184 C177 0.930 . S
H185 C183 0.930 . S
H186 C174 0.930 . S
H187 C175 0.930 . S
H188 C181 0.929 . S
H189 C203 0.930 . S
H190 C182 0.930 . S
H191 C209 0.930 . S
H192 C200 0.929 . S
H193 C207 0.930 . S
H194 C171 0.931 . S
H195 C201 0.930 . S
H196 C234 0.930 . S
H197 C178 0.930 . S
H198 C233 0.931 . S
N199 Eu168 2.657 . S
N199 C200 1.334 . S
N199 C204 1.362 . S
C200 H192 0.929 . S
C200 N199 1.334 . S
C200 C203 1.413 . S
C201 H195 0.930 . S
C201 C202 1.392 . S
C201 C203 1.367 . S
C202 C201 1.392 . S
C202 C204 1.420 . S
C202 C234 1.423 . S
C203 H189 0.930 . S
C203 C200 1.413 . S
C203 C201 1.367 . S
C204 N199 1.362 . S
C204 C202 1.420 . S
C204 C208 1.429 . S
H205 C210 0.930 . S
N206 Eu168 2.609 . S
N206 C208 1.377 . S
N206 C209 1.321 . S
C207 H193 0.930 . S
C207 C209 1.400 . S
C207 C210 1.386 . S
C208 C204 1.429 . S
C208 N206 1.377 . S
C208 C211 1.411 . S
C209 H191 0.930 . S
C209 N206 1.321 . S
C209 C207 1.400 . S
C210 H205 0.930 . S
C210 C207 1.386 . S
C210 C211 1.395 . S
C211 C208 1.411 . S
C211 C210 1.395 . S
C211 C233 1.420 . S
O212 Eu168 2.558 . S
O212 C232 1.257 . S
O213 Eu168 2.612 . S
O213 Eu179 2.380 . S
O213 C224 1.276 . S
O214 Eu179 2.432 . S
O214 C231 1.264 . S
O215 Eu168 2.339 . S
O215 C231 1.254 . S
O216 Eu168 2.563 . S
O216 C224 1.235 . S
O217 Eu168 2.419 . S
O217 C232 1.249 . S
O218 Eu179 2.558 . S
O218 C243 1.257 . S
O219 Eu168 2.380 . S
O219 Eu179 2.612 . S
O219 C235 1.276 . S
O220 Eu168 2.432 . S
O220 C242 1.264 . S
O221 Eu179 2.339 . S
O221 C242 1.254 . S
O222 Eu179 2.563 . S
O222 C235 1.235 . S
O223 Eu179 2.419 . S
O223 C243 1.249 . S
C224 O213 1.276 . S
C224 O216 1.235 . S
C225 C227 1.393 . S
C225 C229 1.395 . S
C225 C232 1.492 . S
C226 C227 1.392 . S
C226 C228 1.386 . S
C227 C225 1.393 . S
C227 C226 1.392 . S
C227 H244 0.930 . S
C228 C226 1.386 . S
C228 C230 1.395 . S
C228 H245 0.930 . S
C229 C225 1.395 . S
C229 C230 1.379 . S
C229 H246 0.930 . S
C230 C228 1.395 . S
C230 C229 1.379 . S
C230 H247 0.930 . S
C231 O214 1.264 . S
C231 O215 1.254 . S
C232 Eu168 2.848 . S
C232 O212 1.257 . S
C232 O217 1.249 . S
C232 C225 1.492 . S
C233 H198 0.931 . S
C233 C211 1.420 . S
C233 C234 1.351 . S
C234 H196 0.930 . S
C234 C202 1.423 . S
C234 C233 1.351 . S
C235 O219 1.276 . S
C235 O222 1.235 . S
C236 C237 1.393 . S
C236 C240 1.395 . S
C236 C243 1.492 . S
C237 C236 1.393 . S
C237 C238 1.392 . S
C237 H248 0.930 . S
C238 C237 1.392 . S
C238 C239 1.386 . S
C239 C238 1.386 . S
C239 C241 1.395 . S
C239 H249 0.930 . S
C240 C236 1.395 . S
C240 C241 1.379 . S
C240 H250 0.930 . S
C241 C239 1.395 . S
C241 C240 1.379 . S
C241 H251 0.930 . S
C242 O220 1.264 . S
C242 O221 1.254 . S
C243 Eu179 2.848 . S
C243 O218 1.257 . S
C243 O223 1.249 . S
C243 C236 1.492 . S
H244 C227 0.930 . S
H245 C228 0.930 . S
H246 C229 0.930 . S
H247 C230 0.930 . S
H248 C237 0.930 . S
H249 C239 0.930 . S
H250 C240 0.930 . S
H251 C241 0.930 . S
Eu252 N283 2.657 . S
Eu252 N290 2.609 . S
Eu252 O296 2.558 . S
Eu252 O297 2.612 . S
Eu252 O299 2.339 . S
Eu252 O300 2.563 . S
Eu252 O301 2.419 . S
Eu252 O303 2.380 1_554 S
Eu252 O304 2.432 . S
Eu252 C316 2.848 . S
C253 C256 1.429 . S
C253 C257 1.411 . S
C253 N260 1.377 1_554 S
C254 C256 1.420 . S
C254 C258 1.423 . S
C254 C266 1.392 . S
C255 C257 1.420 . S
C255 C258 1.351 . S
C255 H278 0.931 . S
C256 C253 1.429 . S
C256 C254 1.420 . S
C256 N264 1.362 . S
C257 C253 1.411 . S
C257 C255 1.420 . S
C257 C262 1.395 1_554 S
C258 C254 1.423 . S
C258 C255 1.351 . S
C258 H270 0.930 . S
C259 C261 1.400 . S
C259 C262 1.386 . S
C259 H271 0.930 . S
N260 C253 1.377 1_556 S
N260 C261 1.321 . S
N260 Eu263 2.609 . S
C261 C259 1.400 . S
C261 N260 1.321 . S
C261 H268 0.930 . S
C262 C257 1.395 1_556 S
C262 C259 1.386 . S
C262 H281 0.930 . S
Eu263 N260 2.609 . S
Eu263 N264 2.657 1_556 S
Eu263 O297 2.380 1_556 S
Eu263 O298 2.432 . S
Eu263 O302 2.558 . S
Eu263 O303 2.612 . S
Eu263 O305 2.339 1_556 S
Eu263 O306 2.563 . S
Eu263 O307 2.419 . S
Eu263 C327 2.848 . S
N264 C256 1.362 . S
N264 Eu263 2.657 1_554 S
N264 C265 1.334 . S
C265 N264 1.334 . S
C265 C267 1.413 . S
C265 H272 0.929 . S
C266 C254 1.392 . S
C266 C267 1.367 . S
C266 H274 0.930 . S
C267 C265 1.413 . S
C267 C266 1.367 . S
C267 H269 0.930 . S
H268 C261 0.930 . S
H269 C267 0.930 . S
H270 C258 0.930 . S
H271 C259 0.930 . S
H272 C265 0.929 . S
H273 C287 0.930 . S
H274 C266 0.930 . S
H275 C293 0.930 . S
H276 C284 0.929 . S
H277 C291 0.930 . S
H278 C255 0.931 . S
H279 C285 0.930 . S
H280 C318 0.930 . S
H281 C262 0.930 . S
H282 C317 0.931 . S
N283 Eu252 2.657 . S
N283 C284 1.334 1_554 S
N283 C288 1.363 . S
C284 H276 0.929 . S
C284 N283 1.334 1_556 S
C284 C287 1.413 . S
C285 H279 0.930 . S
C285 C286 1.392 . S
C285 C287 1.367 . S
C286 C285 1.392 . S
C286 C288 1.401 1_556 S
C286 C318 1.423 . S
C287 H273 0.930 . S
C287 C284 1.413 . S
C287 C285 1.367 . S
C288 N283 1.363 . S
C288 C286 1.401 1_554 S
C288 C292 1.447 . S
H289 C294 0.930 . S
N290 Eu252 2.609 . S
N290 C292 1.377 . S
N290 C293 1.321 . S
C291 H277 0.930 . S
C291 C293 1.400 . S
C291 C294 1.386 . S
C292 C288 1.447 . S
C292 N290 1.377 . S
C292 C295 1.411 . S
C293 H275 0.930 . S
C293 N290 1.321 . S
C293 C291 1.400 . S
C294 H289 0.930 . S
C294 C291 1.386 . S
C294 C295 1.395 . S
C295 C292 1.411 . S
C295 C294 1.395 . S
C295 C317 1.424 . S
O296 Eu252 2.558 . S
O296 C316 1.257 . S
O297 Eu252 2.612 . S
O297 Eu263 2.380 1_554 S
O297 C308 1.276 . S
O298 Eu263 2.432 . S
O298 C315 1.264 1_556 S
O299 Eu252 2.339 . S
O299 C315 1.254 . S
O300 Eu252 2.563 . S
O300 C308 1.235 . S
O301 Eu252 2.419 . S
O301 C316 1.249 . S
O302 Eu263 2.558 . S
O302 C327 1.257 . S
O303 Eu252 2.380 1_556 S
O303 Eu263 2.612 . S
O303 C319 1.276 . S
O304 Eu252 2.432 . S
O304 C326 1.264 . S
O305 Eu263 2.339 1_554 S
O305 C326 1.254 . S
O306 Eu263 2.563 . S
O306 C319 1.235 . S
O307 Eu263 2.419 . S
O307 C327 1.249 . S
C308 O297 1.276 . S
C308 O300 1.235 . S
C309 C311 1.393 . S
C309 C313 1.395 . S
C309 C316 1.492 . S
C310 C311 1.392 . S
C310 C312 1.386 . S
C311 C309 1.393 . S
C311 C310 1.392 . S
C311 H328 0.930 . S
C312 C310 1.386 . S
C312 C314 1.395 . S
C312 H329 0.930 . S
C313 C309 1.395 . S
C313 C314 1.379 . S
C313 H330 0.930 . S
C314 C312 1.395 . S
C314 C313 1.379 . S
C314 H331 0.930 . S
C315 O298 1.264 1_554 S
C315 O299 1.254 . S
C316 Eu252 2.848 . S
C316 O296 1.257 . S
C316 O301 1.249 . S
C316 C309 1.492 . S
C317 H282 0.931 . S
C317 C295 1.424 . S
C317 C318 1.346 1_554 S
C318 H280 0.930 . S
C318 C286 1.423 . S
C318 C317 1.346 1_556 S
C319 O303 1.276 . S
C319 O306 1.235 . S
C320 C321 1.393 . S
C320 C324 1.395 . S
C320 C327 1.492 . S
C321 C320 1.393 . S
C321 C322 1.392 . S
C321 H332 0.930 . S
C322 C321 1.392 . S
C322 C323 1.386 . S
C323 C322 1.386 . S
C323 C325 1.395 . S
C323 H333 0.930 . S
C324 C320 1.395 . S
C324 C325 1.379 . S
C324 H334 0.930 . S
C325 C323 1.395 . S
C325 C324 1.379 . S
C325 H335 0.930 . S
C326 O304 1.264 . S
C326 O305 1.254 . S
C327 Eu263 2.848 . S
C327 O302 1.257 . S
C327 O307 1.249 . S
C327 C320 1.492 . S
H328 C311 0.930 . S
H329 C312 0.930 . S
H330 C313 0.930 . S
H331 C314 0.930 . S
H332 C321 0.930 . S
H333 C323 0.930 . S
H334 C324 0.930 . S
H335 C325 0.930 . S
Eu336 N367 2.657 . S
Eu336 N374 2.609 . S
Eu336 O380 2.558 . S
Eu336 O381 2.612 . S
Eu336 O383 2.339 . S
Eu336 O384 2.563 . S
Eu336 O385 2.419 . S
Eu336 O387 2.380 . S
Eu336 O388 2.432 . S
Eu336 C400 2.848 . S
C337 C340 1.429 . S
C337 C341 1.411 . S
C337 N344 1.377 . S
C338 C340 1.420 . S
C338 C342 1.423 . S
C338 C350 1.392 . S
C339 C341 1.420 . S
C339 C342 1.351 . S
C339 H362 0.931 . S
C340 C337 1.429 . S
C340 C338 1.420 . S
C340 N348 1.362 . S
C341 C337 1.411 . S
C341 C339 1.420 . S
C341 C346 1.395 . S
C342 C338 1.423 . S
C342 C339 1.351 . S
C342 H354 0.930 . S
C343 C345 1.400 . S
C343 C346 1.386 . S
C343 H355 0.930 . S
N344 C337 1.377 . S
N344 C345 1.321 . S
N344 Eu347 2.609 . S
C345 C343 1.400 . S
C345 N344 1.321 . S
C345 H352 0.930 . S
C346 C341 1.395 . S
C346 C343 1.386 . S
C346 H365 0.930 . S
Eu347 N344 2.609 . S
Eu347 N348 2.657 . S
Eu347 O381 2.380 . S
Eu347 O382 2.432 . S
Eu347 O386 2.558 . S
Eu347 O387 2.612 . S
Eu347 O389 2.339 . S
Eu347 O390 2.563 . S
Eu347 O391 2.419 . S
Eu347 C411 2.848 . S
N348 C340 1.362 . S
N348 Eu347 2.657 . S
N348 C349 1.334 . S
C349 N348 1.334 . S
C349 C351 1.413 . S
C349 H356 0.929 . S
C350 C338 1.392 . S
C350 C351 1.367 . S
C350 H358 0.930 . S
C351 C349 1.413 . S
C351 C350 1.367 . S
C351 H353 0.930 . S
H352 C345 0.930 . S
H353 C351 0.930 . S
H354 C342 0.930 . S
H355 C343 0.930 . S
H356 C349 0.929 . S
H357 C371 0.930 . S
H358 C350 0.930 . S
H359 C377 0.930 . S
H360 C368 0.929 . S
H361 C375 0.930 . S
H362 C339 0.931 . S
H363 C369 0.930 . S
H364 C402 0.930 . S
H365 C346 0.930 . S
H366 C401 0.931 . S
N367 Eu336 2.657 . S
N367 C368 1.334 . S
N367 C372 1.362 . S
C368 H360 0.929 . S
C368 N367 1.334 . S
C368 C371 1.413 . S
C369 H363 0.930 . S
C369 C370 1.392 . S
C369 C371 1.367 . S
C370 C369 1.392 . S
C370 C372 1.420 . S
C370 C402 1.423 . S
C371 H357 0.930 . S
C371 C368 1.413 . S
C371 C369 1.367 . S
C372 N367 1.362 . S
C372 C370 1.420 . S
C372 C376 1.429 . S
H373 C378 0.930 . S
N374 Eu336 2.609 . S
N374 C376 1.377 . S
N374 C377 1.321 . S
C375 H361 0.930 . S
C375 C377 1.400 . S
C375 C378 1.386 . S
C376 C372 1.429 . S
C376 N374 1.377 . S
C376 C379 1.411 . S
C377 H359 0.930 . S
C377 N374 1.321 . S
C377 C375 1.400 . S
C378 H373 0.930 . S
C378 C375 1.386 . S
C378 C379 1.395 . S
C379 C376 1.411 . S
C379 C378 1.395 . S
C379 C401 1.420 . S
O380 Eu336 2.558 . S
O380 C400 1.257 . S
O381 Eu336 2.612 . S
O381 Eu347 2.380 . S
O381 C392 1.276 . S
O382 Eu347 2.432 . S
O382 C399 1.264 . S
O383 Eu336 2.339 . S
O383 C399 1.254 . S
O384 Eu336 2.563 . S
O384 C392 1.235 . S
O385 Eu336 2.419 . S
O385 C400 1.249 . S
O386 Eu347 2.558 . S
O386 C411 1.257 . S
O387 Eu336 2.380 . S
O387 Eu347 2.612 . S
O387 C403 1.276 . S
O388 Eu336 2.432 . S
O388 C410 1.264 . S
O389 Eu347 2.339 . S
O389 C410 1.254 . S
O390 Eu347 2.563 . S
O390 C403 1.235 . S
O391 Eu347 2.419 . S
O391 C411 1.249 . S
C392 O381 1.276 . S
C392 O384 1.235 . S
C393 C395 1.393 . S
C393 C397 1.395 . S
C393 C400 1.492 . S
C394 C395 1.392 . S
C394 C396 1.386 . S
C395 C393 1.393 . S
C395 C394 1.392 . S
C395 H412 0.930 . S
C396 C394 1.386 . S
C396 C398 1.395 . S
C396 H413 0.930 . S
C397 C393 1.395 . S
C397 C398 1.379 . S
C397 H414 0.930 . S
C398 C396 1.395 . S
C398 C397 1.379 . S
C398 H415 0.930 . S
C399 O382 1.264 . S
C399 O383 1.254 . S
C400 Eu336 2.848 . S
C400 O380 1.257 . S
C400 O385 1.249 . S
C400 C393 1.492 . S
C401 H366 0.931 . S
C401 C379 1.420 . S
C401 C402 1.351 . S
C402 H364 0.930 . S
C402 C370 1.423 . S
C402 C401 1.351 . S
C403 O387 1.276 . S
C403 O390 1.235 . S
C404 C405 1.393 . S
C404 C408 1.395 . S
C404 C411 1.492 . S
C405 C404 1.393 . S
C405 C406 1.392 . S
C405 H416 0.930 . S
C406 C405 1.392 . S
C406 C407 1.386 . S
C407 C406 1.386 . S
C407 C409 1.395 . S
C407 H417 0.930 . S
C408 C404 1.395 . S
C408 C409 1.379 . S
C408 H418 0.930 . S
C409 C407 1.395 . S
C409 C408 1.379 . S
C409 H419 0.930 . S
C410 O388 1.264 . S
C410 O389 1.254 . S
C411 Eu347 2.848 . S
C411 O386 1.257 . S
C411 O391 1.249 . S
C411 C404 1.492 . S
H412 C395 0.930 . S
H413 C396 0.930 . S
H414 C397 0.930 . S
H415 C398 0.930 . S
H416 C405 0.930 . S
H417 C407 0.930 . S
H418 C408 0.930 . S
H419 C409 0.930 . S
Eu420 N451 2.657 . S
Eu420 N458 2.609 . S
Eu420 O464 2.558 . S
Eu420 O465 2.612 . S
Eu420 O467 2.339 . S
Eu420 O468 2.563 . S
Eu420 O469 2.419 . S
Eu420 O471 2.380 . S
Eu420 O472 2.432 . S
Eu420 C484 2.848 . S
C421 C424 1.429 . S
C421 C425 1.411 . S
C421 N428 1.377 . S
C422 C424 1.420 . S
C422 C426 1.423 . S
C422 C434 1.392 . S
C423 C425 1.420 . S
C423 C426 1.351 . S
C423 H446 0.931 . S
C424 C421 1.429 . S
C424 C422 1.420 . S
C424 N432 1.362 . S
C425 C421 1.411 . S
C425 C423 1.420 . S
C425 C430 1.395 . S
C426 C422 1.423 . S
C426 C423 1.351 . S
C426 H438 0.930 . S
C427 C429 1.400 . S
C427 C430 1.386 . S
C427 H439 0.930 . S
N428 C421 1.377 . S
N428 C429 1.321 . S
N428 Eu431 2.609 . S
C429 C427 1.400 . S
C429 N428 1.321 . S
C429 H436 0.930 . S
C430 C425 1.395 . S
C430 C427 1.386 . S
C430 H449 0.930 . S
Eu431 N428 2.609 . S
Eu431 N432 2.657 . S
Eu431 O465 2.380 . S
Eu431 O466 2.432 . S
Eu431 O470 2.558 . S
Eu431 O471 2.612 . S
Eu431 O473 2.339 . S
Eu431 O474 2.563 . S
Eu431 O475 2.419 . S
Eu431 C495 2.848 . S
N432 C424 1.362 . S
N432 Eu431 2.657 . S
N432 C433 1.334 . S
C433 N432 1.334 . S
C433 C435 1.413 . S
C433 H440 0.929 . S
C434 C422 1.392 . S
C434 C435 1.367 . S
C434 H442 0.930 . S
C435 C433 1.413 . S
C435 C434 1.367 . S
C435 H437 0.930 . S
H436 C429 0.930 . S
H437 C435 0.930 . S
H438 C426 0.930 . S
H439 C427 0.930 . S
H440 C433 0.929 . S
H441 C455 0.930 . S
H442 C434 0.930 . S
H443 C461 0.930 . S
H444 C452 0.929 . S
H445 C459 0.930 . S
H446 C423 0.931 . S
H447 C453 0.930 . S
H448 C486 0.930 . S
H449 C430 0.930 . S
H450 C485 0.931 . S
N451 Eu420 2.657 . S
N451 C452 1.334 . S
N451 C456 1.362 . S
C452 H444 0.929 . S
C452 N451 1.334 . S
C452 C455 1.413 . S
C453 H447 0.930 . S
C453 C454 1.392 . S
C453 C455 1.367 . S
C454 C453 1.392 . S
C454 C456 1.420 . S
C454 C486 1.423 . S
C455 H441 0.930 . S
C455 C452 1.413 . S
C455 C453 1.367 . S
C456 N451 1.362 . S
C456 C454 1.420 . S
C456 C460 1.429 . S
H457 C462 0.930 . S
N458 Eu420 2.609 . S
N458 C460 1.377 . S
N458 C461 1.321 . S
C459 H445 0.930 . S
C459 C461 1.400 . S
C459 C462 1.386 . S
C460 C456 1.429 . S
C460 N458 1.377 . S
C460 C463 1.411 . S
C461 H443 0.930 . S
C461 N458 1.321 . S
C461 C459 1.400 . S
C462 H457 0.930 . S
C462 C459 1.386 . S
C462 C463 1.395 . S
C463 C460 1.411 . S
C463 C462 1.395 . S
C463 C485 1.420 . S
O464 Eu420 2.558 . S
O464 C484 1.257 . S
O465 Eu420 2.612 . S
O465 Eu431 2.380 . S
O465 C476 1.276 . S
O466 Eu431 2.432 . S
O466 C483 1.264 . S
O467 Eu420 2.339 . S
O467 C483 1.254 . S
O468 Eu420 2.563 . S
O468 C476 1.235 . S
O469 Eu420 2.419 . S
O469 C484 1.249 . S
O470 Eu431 2.558 . S
O470 C495 1.257 . S
O471 Eu420 2.380 . S
O471 Eu431 2.612 . S
O471 C487 1.276 . S
O472 Eu420 2.432 . S
O472 C494 1.264 . S
O473 Eu431 2.339 . S
O473 C494 1.254 . S
O474 Eu431 2.563 . S
O474 C487 1.235 . S
O475 Eu431 2.419 . S
O475 C495 1.249 . S
C476 O465 1.276 . S
C476 O468 1.235 . S
C477 C479 1.393 . S
C477 C481 1.395 . S
C477 C484 1.492 . S
C478 C479 1.392 . S
C478 C480 1.386 . S
C479 C477 1.393 . S
C479 C478 1.392 . S
C479 H496 0.930 . S
C480 C478 1.386 . S
C480 C482 1.395 . S
C480 H497 0.930 . S
C481 C477 1.395 . S
C481 C482 1.379 . S
C481 H498 0.930 . S
C482 C480 1.395 . S
C482 C481 1.379 . S
C482 H499 0.930 . S
C483 O466 1.264 . S
C483 O467 1.254 . S
C484 Eu420 2.848 . S
C484 O464 1.257 . S
C484 O469 1.249 . S
C484 C477 1.492 . S
C485 H450 0.931 . S
C485 C463 1.420 . S
C485 C486 1.351 . S
C486 H448 0.930 . S
C486 C454 1.423 . S
C486 C485 1.351 . S
C487 O471 1.276 . S
C487 O474 1.235 . S
C488 C489 1.393 . S
C488 C492 1.395 . S
C488 C495 1.492 . S
C489 C488 1.393 . S
C489 C490 1.392 . S
C489 H500 0.930 . S
C490 C489 1.392 . S
C490 C491 1.386 . S
C491 C490 1.386 . S
C491 C493 1.395 . S
C491 H501 0.930 . S
C492 C488 1.395 . S
C492 C493 1.379 . S
C492 H502 0.930 . S
C493 C491 1.395 . S
C493 C492 1.379 . S
C493 H503 0.930 . S
C494 O472 1.264 . S
C494 O473 1.254 . S
C495 Eu431 2.848 . S
C495 O470 1.257 . S
C495 O475 1.249 . S
C495 C488 1.492 . S
H496 C479 0.930 . S
H497 C480 0.930 . S
H498 C481 0.930 . S
H499 C482 0.930 . S
H500 C489 0.930 . S
H501 C491 0.930 . S
H502 C492 0.930 . S
H503 C493 0.930 . S
C504 C505 1.349 . S
C504 C506 1.327 . S
C504 H529 0.950 . S
C505 C504 1.349 . S
C505 C521 1.349 . S
C506 C504 1.327 . S
C506 C525 1.429 . S
C506 H530 0.950 . S
C507 C524 1.574 . S
C507 C526 1.368 . S
C507 H531 0.949 . S
H508 C512 0.949 . S
C509 C510 1.349 . S
C509 C511 1.327 . S
C509 H532 0.950 . S
C510 C509 1.349 . S
C510 C522 1.349 . S
C511 C509 1.327 . S
C511 C527 1.429 . S
C511 H533 0.950 . S
C512 H508 0.949 . S
C512 C520 1.574 . S
C512 C528 1.368 . S
H513 C521 0.950 . S
H514 C519 0.950 . S
H515 C520 0.949 . S
H516 C522 0.950 . S
H517 C523 0.950 . S
H518 C524 0.949 . S
C519 H514 0.950 . S
C519 C521 1.327 . S
C519 C525 1.429 . S
C520 C512 1.574 . S
C520 H515 0.949 . S
C520 C526 1.368 . S
C521 C505 1.349 . S
C521 H513 0.950 . S
C521 C519 1.327 . S
C522 C510 1.349 . S
C522 H516 0.950 . S
C522 C523 1.327 . S
C523 H517 0.950 . S
C523 C522 1.327 . S
C523 C527 1.429 . S
C524 C507 1.574 . S
C524 H518 0.949 . S
C524 C528 1.368 . S
C525 C506 1.429 . S
C525 C519 1.429 . S
C525 C526 1.523 . S
C526 C507 1.368 . S
C526 C520 1.368 . S
C526 C525 1.523 . S
C527 C511 1.429 . S
C527 C523 1.429 . S
C527 C528 1.523 . S
C528 C512 1.368 . S
C528 C524 1.368 . S
C528 C527 1.523 . S
H529 C504 0.950 . S
H530 C506 0.950 . S
H531 C507 0.949 . S
H532 C509 0.950 . S
H533 C511 0.950 . S
C534 C535 1.349 . S
C534 C536 1.327 . S
C534 H559 0.950 . S
C535 C534 1.349 . S
C535 C551 1.349 . S
C536 C534 1.327 . S
C536 C555 1.429 . S
C536 H560 0.950 . S
C537 C554 1.574 . S
C537 C556 1.368 . S
C537 H561 0.949 . S
H538 C542 0.949 . S
C539 C540 1.349 . S
C539 C541 1.327 . S
C539 H562 0.950 . S
C540 C539 1.349 . S
C540 C552 1.349 . S
C541 C539 1.327 . S
C541 C557 1.429 . S
C541 H563 0.950 . S
C542 H538 0.949 . S
C542 C550 1.574 . S
C542 C558 1.368 . S
H543 C551 0.950 . S
H544 C549 0.950 . S
H545 C550 0.949 . S
H546 C552 0.950 . S
H547 C553 0.950 . S
H548 C554 0.949 . S
C549 H544 0.950 . S
C549 C551 1.327 . S
C549 C555 1.429 . S
C550 C542 1.574 . S
C550 H545 0.949 . S
C550 C556 1.368 . S
C551 C535 1.349 . S
C551 H543 0.950 . S
C551 C549 1.327 . S
C552 C540 1.349 . S
C552 H546 0.950 . S
C552 C553 1.327 . S
C553 H547 0.950 . S
C553 C552 1.327 . S
C553 C557 1.429 . S
C554 C537 1.574 . S
C554 H548 0.949 . S
C554 C558 1.368 . S
C555 C536 1.429 . S
C555 C549 1.429 . S
C555 C556 1.523 . S
C556 C537 1.368 . S
C556 C550 1.368 . S
C556 C555 1.523 . S
C557 C541 1.429 . S
C557 C553 1.429 . S
C557 C558 1.523 . S
C558 C542 1.368 . S
C558 C554 1.368 . S
C558 C557 1.523 . S
H559 C534 0.950 . S
H560 C536 0.950 . S
H561 C537 0.949 . S
H562 C539 0.950 . S
H563 C541 0.950 . S
C564 C565 1.349 . S
C564 C566 1.327 . S
C564 H589 0.950 . S
C565 C564 1.349 . S
C565 C581 1.349 . S
C566 C564 1.327 . S
C566 C585 1.429 . S
C566 H590 0.950 . S
C567 C584 1.574 . S
C567 C586 1.368 . S
C567 H591 0.949 . S
H568 C572 0.949 . S
C569 C570 1.349 . S
C569 C571 1.327 . S
C569 H592 0.950 . S
C570 C569 1.349 . S
C570 C582 1.349 . S
C571 C569 1.327 . S
C571 C587 1.429 . S
C571 H593 0.950 . S
C572 H568 0.949 . S
C572 C580 1.574 . S
C572 C588 1.368 . S
H573 C581 0.950 . S
H574 C579 0.950 . S
H575 C580 0.949 . S
H576 C582 0.950 . S
H577 C583 0.950 . S
H578 C584 0.949 . S
C579 H574 0.950 . S
C579 C581 1.327 . S
C579 C585 1.429 . S
C580 C572 1.574 . S
C580 H575 0.949 . S
C580 C586 1.368 . S
C581 C565 1.349 . S
C581 H573 0.950 . S
C581 C579 1.327 . S
C582 C570 1.349 . S
C582 H576 0.950 . S
C582 C583 1.327 . S
C583 H577 0.950 . S
C583 C582 1.327 . S
C583 C587 1.429 . S
C584 C567 1.574 . S
C584 H578 0.949 . S
C584 C588 1.368 . S
C585 C566 1.429 . S
C585 C579 1.429 . S
C585 C586 1.523 . S
C586 C567 1.368 . S
C586 C580 1.368 . S
C586 C585 1.523 . S
C587 C571 1.429 . S
C587 C583 1.429 . S
C587 C588 1.523 . S
C588 C572 1.368 . S
C588 C584 1.368 . S
C588 C587 1.523 . S
H589 C564 0.950 . S
H590 C566 0.950 . S
H591 C567 0.949 . S
H592 C569 0.950 . S
H593 C571 0.950 . S
C594 C595 1.349 . S
C594 C596 1.327 . S
C594 H619 0.950 . S
C595 C594 1.349 . S
C595 C611 1.349 . S
C596 C594 1.327 . S
C596 C615 1.429 . S
C596 H620 0.950 . S
C597 C614 1.574 . S
C597 C616 1.368 . S
C597 H621 0.949 . S
H598 C602 0.949 . S
C599 C600 1.349 . S
C599 C601 1.327 . S
C599 H622 0.950 . S
C600 C599 1.349 . S
C600 C612 1.349 . S
C601 C599 1.327 . S
C601 C617 1.429 . S
C601 H623 0.950 . S
C602 H598 0.949 . S
C602 C610 1.574 . S
C602 C618 1.368 . S
H603 C611 0.950 . S
H604 C609 0.950 . S
H605 C610 0.949 . S
H606 C612 0.950 . S
H607 C613 0.950 . S
H608 C614 0.949 . S
C609 H604 0.950 . S
C609 C611 1.327 . S
C609 C615 1.429 . S
C610 C602 1.574 . S
C610 H605 0.949 . S
C610 C616 1.368 . S
C611 C595 1.349 . S
C611 H603 0.950 . S
C611 C609 1.327 . S
C612 C600 1.349 . S
C612 H606 0.950 . S
C612 C613 1.327 . S
C613 H607 0.950 . S
C613 C612 1.327 . S
C613 C617 1.429 . S
C614 C597 1.574 . S
C614 H608 0.949 . S
C614 C618 1.368 . S
C615 C596 1.429 . S
C615 C609 1.429 . S
C615 C616 1.523 . S
C616 C597 1.368 . S
C616 C610 1.368 . S
C616 C615 1.523 . S
C617 C601 1.429 . S
C617 C613 1.429 . S
C617 C618 1.523 . S
C618 C602 1.368 . S
C618 C614 1.368 . S
C618 C617 1.523 . S
H619 C594 0.950 . S
H620 C596 0.950 . S
H621 C597 0.949 . S
H622 C599 0.950 . S
H623 C601 0.950 . S
C624 C625 1.349 . S
C624 C626 1.327 . S
C624 H649 0.950 . S
C625 C624 1.349 . S
C625 C641 1.349 . S
C626 C624 1.327 . S
C626 C645 1.429 . S
C626 H650 0.950 . S
C627 C644 1.574 . S
C627 C646 1.368 . S
C627 H651 0.949 . S
H628 C632 0.949 . S
C629 C630 1.349 . S
C629 C631 1.327 . S
C629 H652 0.950 . S
C630 C629 1.349 . S
C630 C642 1.349 . S
C631 C629 1.327 . S
C631 C647 1.429 . S
C631 H653 0.950 . S
C632 H628 0.949 . S
C632 C640 1.574 . S
C632 C648 1.368 . S
H633 C641 0.950 . S
H634 C639 0.950 . S
H635 C640 0.949 . S
H636 C642 0.950 . S
H637 C643 0.950 . S
H638 C644 0.949 . S
C639 H634 0.950 . S
C639 C641 1.327 . S
C639 C645 1.429 . S
C640 C632 1.574 . S
C640 H635 0.949 . S
C640 C646 1.368 . S
C641 C625 1.349 . S
C641 H633 0.950 . S
C641 C639 1.327 . S
C642 C630 1.349 . S
C642 H636 0.950 . S
C642 C643 1.327 . S
C643 H637 0.950 . S
C643 C642 1.327 . S
C643 C647 1.429 . S
C644 C627 1.574 . S
C644 H638 0.949 . S
C644 C648 1.368 . S
C645 C626 1.429 . S
C645 C639 1.429 . S
C645 C646 1.523 . S
C646 C627 1.368 . S
C646 C640 1.368 . S
C646 C645 1.523 . S
C647 C631 1.429 . S
C647 C643 1.429 . S
C647 C648 1.523 . S
C648 C632 1.368 . S
C648 C644 1.368 . S
C648 C647 1.523 . S
H649 C624 0.950 . S
H650 C626 0.950 . S
H651 C627 0.949 . S
H652 C629 0.950 . S
H653 C631 0.950 . S
C654 C655 1.349 . S
C654 C656 1.327 . S
C654 H679 0.950 . S
C655 C654 1.349 . S
C655 C671 1.349 . S
C656 C654 1.327 . S
C656 C675 1.429 . S
C656 H680 0.950 . S
C657 C674 1.574 . S
C657 C676 1.368 . S
C657 H681 0.949 . S
H658 C662 0.949 . S
C659 C660 1.349 . S
C659 C661 1.327 . S
C659 H682 0.950 . S
C660 C659 1.349 . S
C660 C672 1.349 . S
C661 C659 1.327 . S
C661 C677 1.429 . S
C661 H683 0.950 . S
C662 H658 0.949 . S
C662 C670 1.574 . S
C662 C678 1.368 . S
H663 C671 0.950 . S
H664 C669 0.950 . S
H665 C670 0.949 . S
H666 C672 0.950 . S
H667 C673 0.950 . S
H668 C674 0.949 . S
C669 H664 0.950 . S
C669 C671 1.327 . S
C669 C675 1.429 . S
C670 C662 1.574 . S
C670 H665 0.949 . S
C670 C676 1.368 . S
C671 C655 1.349 . S
C671 H663 0.950 . S
C671 C669 1.327 . S
C672 C660 1.349 . S
C672 H666 0.950 . S
C672 C673 1.327 . S
C673 H667 0.950 . S
C673 C672 1.327 . S
C673 C677 1.429 . S
C674 C657 1.574 . S
C674 H668 0.949 . S
C674 C678 1.368 . S
C675 C656 1.429 . S
C675 C669 1.429 . S
C675 C676 1.523 . S
C676 C657 1.368 . S
C676 C670 1.368 . S
C676 C675 1.523 . S
C677 C661 1.429 . S
C677 C673 1.429 . S
C677 C678 1.523 . S
C678 C662 1.368 . S
C678 C674 1.368 . S
C678 C677 1.523 . S
H679 C654 0.950 . S
H680 C656 0.950 . S
H681 C657 0.949 . S
H682 C659 0.950 . S
H683 C661 0.950 . S
C684 C685 1.349 1_556 S
C684 C686 1.327 . S
C684 H709 0.950 . S
C685 C684 1.349 1_554 S
C685 C701 1.349 . S
C686 C684 1.327 . S
C686 C705 1.429 1_556 S
C686 H710 0.950 . S
C687 C704 1.574 . S
C687 C706 1.368 . S
C687 H711 0.949 . S
H688 C692 0.949 . S
C689 C690 1.349 . S
C689 C691 1.327 . S
C689 H712 0.950 . S
C690 C689 1.349 . S
C690 C702 1.349 1_554 S
C691 C689 1.327 . S
C691 C707 1.429 . S
C691 H713 0.950 . S
C692 H688 0.949 . S
C692 C700 1.574 . S
C692 C708 1.368 1_556 S
H693 C701 0.950 . S
H694 C699 0.950 . S
H695 C700 0.949 . S
H696 C702 0.950 . S
H697 C703 0.950 . S
H698 C704 0.949 . S
C699 H694 0.950 . S
C699 C701 1.327 . S
C699 C705 1.429 . S
C700 C692 1.574 . S
C700 H695 0.949 . S
C700 C706 1.368 1_556 S
C701 C685 1.349 . S
C701 H693 0.950 . S
C701 C699 1.327 . S
C702 C690 1.349 1_556 S
C702 H696 0.950 . S
C702 C703 1.327 . S
C703 H697 0.950 . S
C703 C702 1.327 . S
C703 C707 1.429 1_556 S
C704 C687 1.574 . S
C704 H698 0.949 . S
C704 C708 1.368 . S
C705 C686 1.429 1_554 S
C705 C699 1.429 . S
C705 C706 1.523 . S
C706 C687 1.368 . S
C706 C700 1.368 1_554 S
C706 C705 1.523 . S
C707 C691 1.429 . S
C707 C703 1.429 1_554 S
C707 C708 1.523 . S
C708 C692 1.368 1_554 S
C708 C704 1.368 . S
C708 C707 1.523 . S
H709 C684 0.950 . S
H710 C686 0.950 . S
H711 C687 0.949 . S
H712 C689 0.950 . S
H713 C691 0.950 . S
C714 C715 1.349 . S
C714 C716 1.327 . S
C714 H739 0.950 . S
C715 C714 1.349 . S
C715 C731 1.349 . S
C716 C714 1.327 . S
C716 C735 1.429 . S
C716 H740 0.950 . S
C717 C734 1.574 . S
C717 C736 1.368 1_655 S
C717 H741 0.949 . S
H718 C722 0.949 . S
C719 C720 1.349 . S
C719 C721 1.327 . S
C719 H742 0.950 . S
C720 C719 1.349 . S
C720 C732 1.349 . S
C721 C719 1.327 . S
C721 C737 1.429 . S
C721 H743 0.950 . S
C722 H718 0.949 . S
C722 C730 1.574 . S
C722 C738 1.368 1_455 S
H723 C731 0.950 . S
H724 C729 0.950 . S
H725 C730 0.949 . S
H726 C732 0.950 . S
H727 C733 0.950 . S
H728 C734 0.949 . S
C729 H724 0.950 . S
C729 C731 1.327 . S
C729 C735 1.429 . S
C730 C722 1.574 . S
C730 H725 0.949 . S
C730 C736 1.368 . S
C731 C715 1.349 . S
C731 H723 0.950 . S
C731 C729 1.327 . S
C732 C720 1.349 . S
C732 H726 0.950 . S
C732 C733 1.327 . S
C733 H727 0.950 . S
C733 C732 1.327 . S
C733 C737 1.429 . S
C734 C717 1.574 . S
C734 H728 0.949 . S
C734 C738 1.368 . S
C735 C716 1.429 . S
C735 C729 1.429 . S
C735 C736 1.523 . S
C736 C717 1.368 1_455 S
C736 C730 1.368 . S
C736 C735 1.523 . S
C737 C721 1.429 . S
C737 C733 1.429 . S
C737 C738 1.523 . S
C738 C722 1.368 1_655 S
C738 C734 1.368 . S
C738 C737 1.523 . S
H739 C714 0.950 . S
H740 C716 0.950 . S
H741 C717 0.949 . S
H742 C719 0.950 . S
H743 C721 0.950 . S
C744 C745 1.349 . S
C744 C746 1.327 . S
C744 H769 0.950 . S
C745 C744 1.349 . S
C745 C761 1.349 . S
C746 C744 1.327 . S
C746 C765 1.429 . S
C746 H770 0.950 . S
C747 C764 1.574 . S
C747 C766 1.368 . S
C747 H771 0.949 . S
H748 C752 0.949 . S
C749 C750 1.349 . S
C749 C751 1.327 . S
C749 H772 0.950 . S
C750 C749 1.349 . S
C750 C762 1.349 . S
C751 C749 1.327 . S
C751 C767 1.429 . S
C751 H773 0.950 . S
C752 H748 0.949 . S
C752 C760 1.574 . S
C752 C768 1.368 . S
H753 C761 0.950 . S
H754 C759 0.950 . S
H755 C760 0.949 . S
H756 C762 0.950 . S
H757 C763 0.950 . S
H758 C764 0.949 . S
C759 H754 0.950 . S
C759 C761 1.327 . S
C759 C765 1.429 . S
C760 C752 1.574 . S
C760 H755 0.949 . S
C760 C766 1.368 1_565 S
C761 C745 1.349 . S
C761 H753 0.950 . S
C761 C759 1.327 . S
C762 C750 1.349 . S
C762 H756 0.950 . S
C762 C763 1.327 . S
C763 H757 0.950 . S
C763 C762 1.327 . S
C763 C767 1.429 . S
C764 C747 1.574 . S
C764 H758 0.949 . S
C764 C768 1.368 1_545 S
C765 C746 1.429 . S
C765 C759 1.429 . S
C765 C766 1.523 . S
C766 C747 1.368 . S
C766 C760 1.368 1_545 S
C766 C765 1.523 . S
C767 C751 1.429 . S
C767 C763 1.429 . S
C767 C768 1.523 . S
C768 C752 1.368 . S
C768 C764 1.368 1_565 S
C768 C767 1.523 . S
H769 C744 0.950 . S
H770 C746 0.950 . S
H771 C747 0.949 . S
H772 C749 0.950 . S
H773 C751 0.950 . S
C774 C775 1.349 . S
C774 C776 1.327 . S
C774 H799 0.950 . S
C775 C774 1.349 . S
C775 C791 1.349 . S
C776 C774 1.327 . S
C776 C795 1.429 . S
C776 H800 0.950 . S
C777 C794 1.574 . S
C777 C796 1.368 . S
C777 H801 0.949 . S
H778 C782 0.949 . S
C779 C780 1.349 . S
C779 C781 1.327 . S
C779 H802 0.950 . S
C780 C779 1.349 . S
C780 C792 1.349 . S
C781 C779 1.327 . S
C781 C797 1.429 . S
C781 H803 0.950 . S
C782 H778 0.949 . S
C782 C790 1.574 . S
C782 C798 1.368 . S
H783 C791 0.950 . S
H784 C789 0.950 . S
H785 C790 0.949 . S
H786 C792 0.950 . S
H787 C793 0.950 . S
H788 C794 0.949 . S
C789 H784 0.950 . S
C789 C791 1.327 . S
C789 C795 1.429 . S
C790 C782 1.574 . S
C790 H785 0.949 . S
C790 C796 1.368 . S
C791 C775 1.349 . S
C791 H783 0.950 . S
C791 C789 1.327 . S
C792 C780 1.349 . S
C792 H786 0.950 . S
C792 C793 1.327 . S
C793 H787 0.950 . S
C793 C792 1.327 . S
C793 C797 1.429 . S
C794 C777 1.574 . S
C794 H788 0.949 . S
C794 C798 1.368 . S
C795 C776 1.429 . S
C795 C789 1.429 . S
C795 C796 1.523 . S
C796 C777 1.368 . S
C796 C790 1.368 . S
C796 C795 1.523 . S
C797 C781 1.429 . S
C797 C793 1.429 . S
C797 C798 1.523 . S
C798 C782 1.368 . S
C798 C794 1.368 . S
C798 C797 1.523 . S
H799 C774 0.950 . S
H800 C776 0.950 . S
H801 C777 0.949 . S
H802 C779 0.950 . S
H803 C781 0.950 . S
C804 C805 1.349 1_556 S
C804 C806 1.327 . S
C804 H829 0.950 . S
C805 C804 1.349 1_554 S
C805 C821 1.349 . S
C806 C804 1.327 . S
C806 C825 1.429 1_556 S
C806 H830 0.950 . S
C807 C824 1.574 . S
C807 C826 1.368 . S
C807 H831 0.949 . S
H808 C812 0.949 . S
C809 C810 1.349 . S
C809 C811 1.327 . S
C809 H832 0.950 . S
C810 C809 1.349 . S
C810 C822 1.349 1_554 S
C811 C809 1.327 . S
C811 C827 1.429 . S
C811 H833 0.950 . S
C812 H808 0.949 . S
C812 C820 1.574 . S
C812 C828 1.368 1_556 S
H813 C821 0.950 . S
H814 C819 0.950 . S
H815 C820 0.949 . S
H816 C822 0.950 . S
H817 C823 0.950 . S
H818 C824 0.949 . S
C819 H814 0.950 . S
C819 C821 1.327 . S
C819 C825 1.429 . S
C820 C812 1.574 . S
C820 H815 0.949 . S
C820 C826 1.368 1_656 S
C821 C805 1.349 . S
C821 H813 0.950 . S
C821 C819 1.327 . S
C822 C810 1.349 1_556 S
C822 H816 0.950 . S
C822 C823 1.327 . S
C823 H817 0.950 . S
C823 C822 1.327 . S
C823 C827 1.429 1_556 S
C824 C807 1.574 . S
C824 H818 0.949 . S
C824 C828 1.368 1_455 S
C825 C806 1.429 1_554 S
C825 C819 1.429 . S
C825 C826 1.523 . S
C826 C807 1.368 . S
C826 C820 1.368 1_454 S
C826 C825 1.523 . S
C827 C811 1.429 . S
C827 C823 1.429 1_554 S
C827 C828 1.523 . S
C828 C812 1.368 1_554 S
C828 C824 1.368 1_655 S
C828 C827 1.523 . S
H829 C804 0.950 . S
H830 C806 0.950 . S
H831 C807 0.949 . S
H832 C809 0.950 . S
H833 C811 0.950 . S
C834 C835 1.349 . S
C834 C836 1.327 . S
C834 H859 0.950 . S
C835 C834 1.349 . S
C835 C851 1.349 . S
C836 C834 1.327 . S
C836 C855 1.429 . S
C836 H860 0.950 . S
C837 C854 1.574 . S
C837 C856 1.368 . S
C837 H861 0.949 . S
H838 C842 0.949 . S
C839 C840 1.349 . S
C839 C841 1.327 . S
C839 H862 0.950 . S
C840 C839 1.349 . S
C840 C852 1.349 . S
C841 C839 1.327 . S
C841 C857 1.429 . S
C841 H863 0.950 . S
C842 H838 0.949 . S
C842 C850 1.574 . S
C842 C858 1.368 . S
H843 C851 0.950 . S
H844 C849 0.950 . S
H845 C850 0.949 . S
H846 C852 0.950 . S
H847 C853 0.950 . S
H848 C854 0.949 . S
C849 H844 0.950 . S
C849 C851 1.327 . S
C849 C855 1.429 . S
C850 C842 1.574 . S
C850 H845 0.949 . S
C850 C856 1.368 1_545 S
C851 C835 1.349 . S
C851 H843 0.950 . S
C851 C849 1.327 . S
C852 C840 1.349 . S
C852 H846 0.950 . S
C852 C853 1.327 . S
C853 H847 0.950 . S
C853 C852 1.327 . S
C853 C857 1.429 . S
C854 C837 1.574 . S
C854 H848 0.949 . S
C854 C858 1.368 1_565 S
C855 C836 1.429 . S
C855 C849 1.429 . S
C855 C856 1.523 . S
C856 C837 1.368 . S
C856 C850 1.368 1_565 S
C856 C855 1.523 . S
C857 C841 1.429 . S
C857 C853 1.429 . S
C857 C858 1.523 . S
C858 C842 1.368 . S
C858 C854 1.368 1_545 S
C858 C857 1.523 . S
H859 C834 0.950 . S
H860 C836 0.950 . S
H861 C837 0.949 . S
H862 C839 0.950 . S
H863 C841 0.950 . S
C864 C865 1.349 . S
C864 C866 1.327 . S
C864 H889 0.950 . S
C865 C864 1.349 . S
C865 C881 1.349 . S
C866 C864 1.327 . S
C866 C885 1.429 . S
C866 H890 0.950 . S
C867 C884 1.574 . S
C867 C886 1.368 . S
C867 H891 0.949 . S
H868 C872 0.949 . S
C869 C870 1.349 . S
C869 C871 1.327 . S
C869 H892 0.950 . S
C870 C869 1.349 . S
C870 C882 1.349 . S
C871 C869 1.327 . S
C871 C887 1.429 . S
C871 H893 0.950 . S
C872 H868 0.949 . S
C872 C880 1.574 . S
C872 C888 1.368 . S
H873 C881 0.950 . S
H874 C879 0.950 . S
H875 C880 0.949 . S
H876 C882 0.950 . S
H877 C883 0.950 . S
H878 C884 0.949 . S
C879 H874 0.950 . S
C879 C881 1.327 . S
C879 C885 1.429 . S
C880 C872 1.574 . S
C880 H875 0.949 . S
C880 C886 1.368 . S
C881 C865 1.349 . S
C881 H873 0.950 . S
C881 C879 1.327 . S
C882 C870 1.349 . S
C882 H876 0.950 . S
C882 C883 1.327 . S
C883 H877 0.950 . S
C883 C882 1.327 . S
C883 C887 1.429 . S
C884 C867 1.574 . S
C884 H878 0.949 . S
C884 C888 1.368 . S
C885 C866 1.429 . S
C885 C879 1.429 . S
C885 C886 1.523 . S
C886 C867 1.368 . S
C886 C880 1.368 . S
C886 C885 1.523 . S
C887 C871 1.429 . S
C887 C883 1.429 . S
C887 C888 1.523 . S
C888 C872 1.368 . S
C888 C884 1.368 . S
C888 C887 1.523 . S
H889 C864 0.950 . S
H890 C866 0.950 . S
H891 C867 0.949 . S
H892 C869 0.950 . S
H893 C871 0.950 . S
C894 C895 1.349 . S
C894 C896 1.327 . S
C894 H919 0.950 . S
C895 C894 1.349 . S
C895 C911 1.349 . S
C896 C894 1.327 . S
C896 C915 1.429 1_655 S
C896 H920 0.950 . S
C897 C914 1.574 . S
C897 C916 1.368 . S
C897 H921 0.949 . S
H898 C902 0.949 . S
C899 C900 1.349 . S
C899 C901 1.327 . S
C899 H922 0.950 . S
C900 C899 1.349 . S
C900 C912 1.349 . S
C901 C899 1.327 . S
C901 C917 1.429 . S
C901 H923 0.950 . S
C902 H898 0.949 . S
C902 C910 1.574 . S
C902 C918 1.368 . S
H903 C911 0.950 1_455 S
H904 C909 0.950 . S
H905 C910 0.949 1_655 S
H906 C912 0.950 . S
H907 C913 0.950 . S
H908 C914 0.949 . S
C909 H904 0.950 . S
C909 C911 1.327 1_455 S
C909 C915 1.429 . S
C910 C902 1.574 . S
C910 H905 0.949 1_455 S
C910 C916 1.368 . S
C911 C895 1.349 . S
C911 H903 0.950 1_655 S
C911 C909 1.327 1_655 S
C912 C900 1.349 . S
C912 H906 0.950 . S
C912 C913 1.327 . S
C913 H907 0.950 . S
C913 C912 1.327 . S
C913 C917 1.429 . S
C914 C897 1.574 . S
C914 H908 0.949 . S
C914 C918 1.368 . S
C915 C896 1.429 1_455 S
C915 C909 1.429 . S
C915 C916 1.523 . S
C916 C897 1.368 . S
C916 C910 1.368 . S
C916 C915 1.523 . S
C917 C901 1.429 . S
C917 C913 1.429 . S
C917 C918 1.523 . S
C918 C902 1.368 . S
C918 C914 1.368 . S
C918 C917 1.523 . S
H919 C894 0.950 . S
H920 C896 0.950 . S
H921 C897 0.949 . S
H922 C899 0.950 . S
H923 C901 0.950 . S
C924 C925 1.349 . S
C924 C926 1.327 . S
C924 H949 0.950 . S
C925 C924 1.349 . S
C925 C941 1.349 . S
C926 C924 1.327 . S
C926 C945 1.429 1_565 S
C926 H950 0.950 . S
C927 C944 1.574 . S
C927 C946 1.368 . S
C927 H951 0.949 . S
H928 C932 0.949 . S
C929 C930 1.349 . S
C929 C931 1.327 . S
C929 H952 0.950 . S
C930 C929 1.349 . S
C930 C942 1.349 . S
C931 C929 1.327 . S
C931 C947 1.429 . S
C931 H953 0.950 . S
C932 H928 0.949 . S
C932 C940 1.574 . S
C932 C948 1.368 . S
H933 C941 0.950 1_545 S
H934 C939 0.950 . S
H935 C940 0.949 1_565 S
H936 C942 0.950 . S
H937 C943 0.950 . S
H938 C944 0.949 . S
C939 H934 0.950 . S
C939 C941 1.327 1_545 S
C939 C945 1.429 . S
C940 C932 1.574 . S
C940 H935 0.949 1_545 S
C940 C946 1.368 . S
C941 C925 1.349 . S
C941 H933 0.950 1_565 S
C941 C939 1.327 1_565 S
C942 C930 1.349 . S
C942 H936 0.950 . S
C942 C943 1.327 . S
C943 H937 0.950 . S
C943 C942 1.327 . S
C943 C947 1.429 . S
C944 C927 1.574 . S
C944 H938 0.949 . S
C944 C948 1.368 . S
C945 C926 1.429 1_545 S
C945 C939 1.429 . S
C945 C946 1.523 . S
C946 C927 1.368 . S
C946 C940 1.368 . S
C946 C945 1.523 . S
C947 C931 1.429 . S
C947 C943 1.429 . S
C947 C948 1.523 . S
C948 C932 1.368 . S
C948 C944 1.368 . S
C948 C947 1.523 . S
H949 C924 0.950 . S
H950 C926 0.950 . S
H951 C927 0.949 . S
H952 C929 0.950 . S
H953 C931 0.950 . S
C954 C955 1.349 . S
C954 C956 1.327 . S
C954 H979 0.950 . S
C955 C954 1.349 . S
C955 C971 1.349 . S
C956 C954 1.327 . S
C956 C975 1.429 . S
C956 H980 0.950 . S
C957 C974 1.574 . S
C957 C976 1.368 . S
C957 H981 0.949 . S
H958 C962 0.949 . S
C959 C960 1.349 . S
C959 C961 1.327 . S
C959 H982 0.950 . S
C960 C959 1.349 . S
C960 C972 1.349 . S
C961 C959 1.327 . S
C961 C977 1.429 . S
C961 H983 0.950 . S
C962 H958 0.949 . S
C962 C970 1.574 . S
C962 C978 1.368 . S
H963 C971 0.950 . S
H964 C969 0.950 . S
H965 C970 0.949 . S
H966 C972 0.950 . S
H967 C973 0.950 . S
H968 C974 0.949 . S
C969 H964 0.950 . S
C969 C971 1.327 . S
C969 C975 1.429 . S
C970 C962 1.574 . S
C970 H965 0.949 . S
C970 C976 1.368 . S
C971 C955 1.349 . S
C971 H963 0.950 . S
C971 C969 1.327 . S
C972 C960 1.349 . S
C972 H966 0.950 . S
C972 C973 1.327 . S
C973 H967 0.950 . S
C973 C972 1.327 . S
C973 C977 1.429 . S
C974 C957 1.574 . S
C974 H968 0.949 . S
C974 C978 1.368 . S
C975 C956 1.429 . S
C975 C969 1.429 . S
C975 C976 1.523 . S
C976 C957 1.368 . S
C976 C970 1.368 . S
C976 C975 1.523 . S
C977 C961 1.429 . S
C977 C973 1.429 . S
C977 C978 1.523 . S
C978 C962 1.368 . S
C978 C974 1.368 . S
C978 C977 1.523 . S
H979 C954 0.950 . S
H980 C956 0.950 . S
H981 C957 0.949 . S
H982 C959 0.950 . S
H983 C961 0.950 . S
C984 C985 1.349 . S
C984 C986 1.327 1_455 S
C984 H1009 0.950 . S
C985 C984 1.349 . S
C985 C1001 1.349 . S
C986 C984 1.327 1_655 S
C986 C1005 1.429 . S
C986 H1010 0.950 . S
C987 C1004 1.574 . S
C987 C1006 1.368 . S
C987 H1011 0.949 . S
H988 C992 0.949 . S
C989 C990 1.349 . S
C989 C991 1.327 . S
C989 H1012 0.950 . S
C990 C989 1.349 . S
C990 C1002 1.349 . S
C991 C989 1.327 . S
C991 C1007 1.429 . S
C991 H1013 0.950 . S
C992 H988 0.949 . S
C992 C1000 1.574 . S
C992 C1008 1.368 . S
H993 C1001 0.950 . S
H994 C999 0.950 . S
H995 C1000 0.949 . S
H996 C1002 0.950 . S
H997 C1003 0.950 . S
H998 C1004 0.949 . S
C999 H994 0.950 . S
C999 C1001 1.327 . S
C999 C1005 1.429 1_455 S
C1000 C992 1.574 . S
C1000 H995 0.949 . S
C1000 C1006 1.368 . S
C1001 C985 1.349 . S
C1001 H993 0.950 . S
C1001 C999 1.327 . S
C1002 C990 1.349 . S
C1002 H996 0.950 . S
C1002 C1003 1.327 . S
C1003 H997 0.950 . S
C1003 C1002 1.327 . S
C1003 C1007 1.429 . S
C1004 C987 1.574 . S
C1004 H998 0.949 . S
C1004 C1008 1.368 . S
C1005 C986 1.429 . S
C1005 C999 1.429 1_655 S
C1005 C1006 1.523 . S
C1006 C987 1.368 . S
C1006 C1000 1.368 . S
C1006 C1005 1.523 . S
C1007 C991 1.429 . S
C1007 C1003 1.429 . S
C1007 C1008 1.523 . S
C1008 C992 1.368 . S
C1008 C1004 1.368 . S
C1008 C1007 1.523 . S
H1009 C984 0.950 . S
H1010 C986 0.950 . S
H1011 C987 0.949 . S
H1012 C989 0.950 . S
H1013 C991 0.950 . S
C1014 C1015 1.349 . S
C1014 C1016 1.327 . S
C1014 H1039 0.950 . S
C1015 C1014 1.349 . S
C1015 C1031 1.349 . S
C1016 C1014 1.327 . S
C1016 C1035 1.429 1_545 S
C1016 H1040 0.950 . S
C1017 C1034 1.574 . S
C1017 C1036 1.368 . S
C1017 H1041 0.949 . S
H1018 C1022 0.949 . S
C1019 C1020 1.349 . S
C1019 C1021 1.327 . S
C1019 H1042 0.950 . S
C1020 C1019 1.349 . S
C1020 C1032 1.349 . S
C1021 C1019 1.327 . S
C1021 C1037 1.429 . S
C1021 H1043 0.950 . S
C1022 H1018 0.949 . S
C1022 C1030 1.574 . S
C1022 C1038 1.368 . S
H1023 C1031 0.950 1_565 S
H1024 C1029 0.950 . S
H1025 C1030 0.949 1_545 S
H1026 C1032 0.950 . S
H1027 C1033 0.950 . S
H1028 C1034 0.949 . S
C1029 H1024 0.950 . S
C1029 C1031 1.327 1_565 S
C1029 C1035 1.429 . S
C1030 C1022 1.574 . S
C1030 H1025 0.949 1_565 S
C1030 C1036 1.368 . S
C1031 C1015 1.349 . S
C1031 H1023 0.950 1_545 S
C1031 C1029 1.327 1_545 S
C1032 C1020 1.349 . S
C1032 H1026 0.950 . S
C1032 C1033 1.327 . S
C1033 H1027 0.950 . S
C1033 C1032 1.327 . S
C1033 C1037 1.429 . S
C1034 C1017 1.574 . S
C1034 H1028 0.949 . S
C1034 C1038 1.368 . S
C1035 C1016 1.429 1_565 S
C1035 C1029 1.429 . S
C1035 C1036 1.523 . S
C1036 C1017 1.368 . S
C1036 C1030 1.368 . S
C1036 C1035 1.523 . S
C1037 C1021 1.429 . S
C1037 C1033 1.429 . S
C1037 C1038 1.523 . S
C1038 C1022 1.368 . S
C1038 C1034 1.368 . S
C1038 C1037 1.523 . S
H1039 C1014 0.950 . S
H1040 C1016 0.950 . S
H1041 C1017 0.949 . S
H1042 C1019 0.950 . S
H1043 C1021 0.950 . S
C505 C403 1.111 . S
C510 C58 0.991 . S
C535 C487 1.111 . S
C540 C142 0.991 . S
C565 C67 1.111 . S
C570 C226 0.991 . S
C595 C151 1.111 . S
C600 C310 0.991 . S
C625 C235 1.111 . S
C630 C394 0.991 . S
C655 C319 1.111 . S
C660 C478 0.990 . S
C685 C74 1.628 . S
C690 C326 1.628 . S
C715 C410 1.627 . S
C720 C158 1.627 . S
C745 C494 1.628 . S
C750 C242 1.628 . S
C775 C231 1.680 . S
C780 C483 1.680 . S
C805 C63 1.680 . S
C810 C315 1.680 . S
C835 C399 1.680 . S
C840 C147 1.680 . S
C865 C476 1.197 . S
C870 C70 1.182 . S
C895 C154 1.182 . S
C900 C56 1.197 . S
C925 C238 1.182 . S
C930 C140 1.197 . S
C955 C224 1.197 . S
C960 C322 1.182 . S
C985 C406 1.182 . S
C990 C308 1.197 . S
C1015 C490 1.182 . S
C1020 C392 1.197 . S
