# Generated by pormake.
# Topology wnr, (7)-cn, num edge types: 1
# Building blocks:
#     Node 0, Type 0, BuildingBlock: HICVOG_clean_sbu_0, # of connection points: 7
#     Node 1, Type 0, BuildingBlock: HICVOG_clean_sbu_0, # of connection points: 7
#     Node 2, Type 0, BuildingBlock: HICVOG_clean_sbu_0, # of connection points: 7
#     Node 3, Type 0, BuildingBlock: HICVOG_clean_sbu_0, # of connection points: 7
#     Node 4, Type 0, BuildingBlock: HICVOG_clean_sbu_0, # of connection points: 7
#     Node 5, Type 0, BuildingBlock: HICVOG_clean_sbu_0, # of connection points: 7
#     Edge 6, Type (0, 0), BuildingBlock: OJICUG_clean_linker_0, # of connection points: 2
#     Edge 7, Type (0, 0), BuildingBlock: OJICUG_clean_linker_0, # of connection points: 2
#     Edge 8, Type (0, 0), BuildingBlock: OJICUG_clean_linker_0, # of connection points: 2
#     Edge 9, Type (0, 0), BuildingBlock: OJICUG_clean_linker_0, # of connection points: 2
#     Edge 10, Type (0, 0), BuildingBlock: OJICUG_clean_linker_0, # of connection points: 2
#     Edge 11, Type (0, 0), BuildingBlock: OJICUG_clean_linker_0, # of connection points: 2
#     Edge 12, Type (0, 0), BuildingBlock: OJICUG_clean_linker_0, # of connection points: 2
#     Edge 13, Type (0, 0), BuildingBlock: OJICUG_clean_linker_0, # of connection points: 2
#     Edge 14, Type (0, 0), BuildingBlock: OJICUG_clean_linker_0, # of connection points: 2
#     Edge 15, Type (0, 0), BuildingBlock: OJICUG_clean_linker_0, # of connection points: 2
#     Edge 16, Type (0, 0), BuildingBlock: OJICUG_clean_linker_0, # of connection points: 2
#     Edge 17, Type (0, 0), BuildingBlock: OJICUG_clean_linker_0, # of connection points: 2
#     Edge 18, Type (0, 0), BuildingBlock: OJICUG_clean_linker_0, # of connection points: 2
#     Edge 19, Type (0, 0), BuildingBlock: OJICUG_clean_linker_0, # of connection points: 2
#     Edge 20, Type (0, 0), BuildingBlock: OJICUG_clean_linker_0, # of connection points: 2
#     Edge 21, Type (0, 0), BuildingBlock: OJICUG_clean_linker_0, # of connection points: 2
#     Edge 22, Type (0, 0), BuildingBlock: OJICUG_clean_linker_0, # of connection points: 2
#     Edge 23, Type (0, 0), BuildingBlock: OJICUG_clean_linker_0, # of connection points: 2
#     Edge 24, Type (0, 0), BuildingBlock: OJICUG_clean_linker_0, # of connection points: 2
#     Edge 25, Type (0, 0), BuildingBlock: OJICUG_clean_linker_0, # of connection points: 2
#     Edge 26, Type (0, 0), BuildingBlock: OJICUG_clean_linker_0, # of connection points: 2
# Relax obj value: 0.171
# Max RMSD: 0.231
# Mean RMSD: 0.231
data_MOF--net-wnr--node1-HICVOG_clean_sbu_0--edge1-OJICUG_clean_linker_0
_symmetry_space_group_name_H-M    P1
_symmetry_Int_Tables_number       1
_symmetry_cell_setting            triclinic
loop_
_symmetry_equiv_pos_as_xyz
'x, y, z'
_cell_length_a     32.638371
_cell_length_b     32.5154
_cell_length_c     13.817084
_cell_angle_alpha  90.221928
_cell_angle_beta   89.973696
_cell_angle_gamma 119.92015
loop_
_atom_site_label
_atom_site_type_symbol
_atom_site_fract_x
_atom_site_fract_y
_atom_site_fract_z
_atom_type_partial_charge
Zn0 Zn 0.1796 0.39726 0.97754 0.0
C1 C 0.07607 0.39643 0.13208 0.0
N2 N 0.05053 0.36796 0.05879 0.0
C3 C 0.08333 0.37263 -0.00441 0.0
N4 N 0.12729 0.40274 0.02807 0.0
N5 N 0.12338 0.41934 0.11352 0.0
C6 C 0.20934 0.47604 0.38053 0.0
O7 O 0.24782 0.51161 0.34388 0.0
O8 O 0.17882 0.39849 0.82976 0.0
Zn9 Zn 0.17623 0.47303 0.18596 0.0
N10 N 0.17601 0.33943 0.02791 0.0
C11 C 0.14551 0.28015 0.15022 0.0
C12 C 0.1463 0.31844 0.10381 0.0
C13 C 0.20506 0.32322 -0.00386 0.0
N14 N 0.17469 0.26435 0.1195 0.0
C15 C 0.20461 0.28456 0.04348 0.0
O16 O 0.24432 0.49833 0.13338 0.0
C17 C 0.26489 0.48604 0.07055 0.0
O18 O 0.24191 0.45005 0.01676 0.0
H19 H 0.1241 0.33197 0.1299 0.0
H20 H 0.22922 0.34122 0.93716 0.0
C21 C 0.18854 0.56652 0.24305 0.0
C22 C 0.17878 0.60413 0.23455 0.0
C23 C 0.12784 0.56384 0.10163 0.0
C24 C 0.13777 0.52712 0.10996 0.0
N25 N 0.16724 0.52853 0.18099 0.0
N26 N 0.14835 0.6011 0.16374 0.0
H27 H 0.21201 0.5671 0.29885 0.0
C28 C 0.20091 0.43957 0.79173 0.0
O29 O 0.22126 0.47696 0.84859 0.0
O30 O 0.17352 0.45311 0.32608 0.0
H31 H 0.1217 0.49738 0.06045 0.0
H32 H 0.12225 0.26342 0.21109 0.0
H33 H 0.10403 0.56284 0.04603 0.0
Zn34 Zn 0.65972 0.78962 0.64713 0.0
C35 C 0.63411 0.67892 0.81909 0.0
N36 N 0.65865 0.67016 0.75347 0.0
C37 C 0.66665 0.70188 0.6842 0.0
N38 N 0.64807 0.72997 0.70652 0.0
N39 N 0.62631 0.71424 0.79089 0.0
C40 C 0.61111 0.76688 0.03951 0.0
O41 O 0.63873 0.80583 0.99135 0.0
O42 O 0.66309 0.78903 0.50103 0.0
Zn43 Zn 0.57376 0.71963 0.84896 0.0
N44 N 0.71665 0.84333 0.70209 0.0
C45 C 0.77349 0.87212 0.82929 0.0
C46 C 0.73597 0.83458 0.78091 0.0
C47 C 0.73387 0.88857 0.66898 0.0
N48 N 0.7903 0.91711 0.79719 0.0
C49 C 0.77187 0.92686 0.71797 0.0
O50 O 0.5563 0.76623 0.78856 0.0
C51 C 0.57177 0.79612 0.71971 0.0
O52 O 0.60772 0.80362 0.67069 0.0
H53 H 0.7217 0.79877 0.80736 0.0
H54 H 0.71716 0.89469 0.6074 0.0
C55 C 0.48255 0.63841 0.90038 0.0
C56 C 0.44443 0.59203 0.88631 0.0
C57 C 0.47884 0.58732 0.73788 0.0
C58 C 0.51636 0.6331 0.75204 0.0
N59 N 0.51792 0.65755 0.83321 0.0
N60 N 0.44409 0.56794 0.80513 0.0
H61 H 0.48468 0.6586 0.96452 0.0
C62 C 0.62846 0.75638 0.45456 0.0
O63 O 0.59332 0.72247 0.50322 0.0
O64 O 0.58266 0.72947 -0.00653 0.0
H65 H 0.54439 0.64894 0.6991 0.0
H66 H 0.78889 0.86562 0.89261 0.0
H67 H 0.47734 0.56724 0.67407 0.0
Zn68 Zn 0.34402 0.88185 0.51226 0.0
C69 C 0.33703 0.97448 0.32526 0.0
N70 N 0.36334 1.0075 0.39037 0.0
C71 C 0.36568 0.98188 0.46384 0.0
N72 N 0.34236 0.93449 0.44381 0.0
N73 N 0.32379 0.93049 0.35666 0.0
C74 C 0.28986 0.85806 0.12043 0.0
O75 O 0.30678 0.83807 0.17809 0.0
O76 O 0.3302 0.88536 0.65437 0.0
Zn77 Zn 0.26679 0.8783 0.30501 0.0
N78 N 0.40797 0.89238 0.49706 0.0
C79 C 0.47805 0.92829 0.40237 0.0
C80 C 0.43215 0.9187 0.41912 0.0
C81 C 0.42778 0.87437 0.55857 0.0
N82 N 0.49775 0.91042 0.46321 0.0
C83 C 0.47417 0.88336 0.54115 0.0
O84 O 0.25524 0.81482 0.34375 0.0
C85 C 0.26754 0.79174 0.39859 0.0
O86 O 0.30012 0.81258 0.46187 0.0
H87 H 0.41591 0.93222 0.37015 0.0
H88 H 0.40778 0.8538 0.62014 0.0
C89 C 0.16884 0.85453 0.32306 0.0
C90 C 0.13101 0.85593 0.36917 0.0
C91 C 0.18552 0.91605 0.47484 0.0
C92 C 0.22272 0.91431 0.42965 0.0
N93 N 0.21386 0.88366 0.35476 0.0
N94 N 0.14071 0.88678 0.44405 0.0
H95 H 0.16259 0.82957 0.26511 0.0
C96 C 0.31927 0.85009 0.70921 0.0
O97 O 0.31685 0.81166 0.67218 0.0
O98 O 0.26986 0.87946 0.1576 0.0
H99 H 0.25824 0.93656 0.4561 0.0
H100 H 0.49782 0.94946 0.34099 0.0
H101 H 0.19213 0.94006 0.53483 0.0
Zn102 Zn 0.49612 0.17505 0.80623 0.0
C103 C 0.40299 0.06172 0.9629 0.0
N104 N 0.41044 0.03863 0.89101 0.0
C105 C 0.43465 0.07268 0.82654 0.0
N106 N 0.4429 0.11564 0.85838 0.0
N107 N 0.42193 0.1086 0.94392 0.0
C108 C 0.44164 0.1535 0.19993 0.0
O109 O 0.4775 0.15668 0.15044 0.0
O110 O 0.48979 0.17628 0.6608 0.0
Zn111 Zn 0.41037 0.15533 0.00795 0.0
N112 N 0.55132 0.16895 0.82965 0.0
C113 C 0.58936 0.14115 0.93588 0.0
C114 C 0.55155 0.14788 0.91419 0.0
C115 C 0.588 0.18448 0.76599 0.0
N116 N 0.6258 0.15639 0.8727 0.0
C117 C 0.62671 0.17819 0.78801 0.0
O118 O 0.46273 0.22104 0.98974 0.0
C119 C 0.49817 0.25167 0.94285 0.0
O120 O 0.51313 0.23976 0.8686 0.0
H121 H 0.52241 0.13624 0.96427 0.0
H122 H 0.58654 0.20087 0.69911 0.0
C123 C 0.33905 0.18296 0.98164 0.0
C124 C 0.30222 0.18433 0.93088 0.0
C125 C 0.29851 0.12568 0.82246 0.0
C126 C 0.33486 0.12449 0.87275 0.0
N127 N 0.35467 0.15322 0.95095 0.0
N128 N 0.28325 0.15555 0.85227 0.0
H129 H 0.35618 0.20624 0.04272 0.0
C130 C 0.46054 0.18394 0.61482 0.0
O131 O 0.43196 0.19398 0.66333 0.0
O132 O 0.4062 0.14988 0.15414 0.0
H133 H 0.34786 0.10153 0.8481 0.0
H134 H 0.58992 0.12414 0.0026 0.0
H135 H 0.28279 0.10333 0.75956 0.0
Zn136 Zn 0.90152 0.26309 0.6698 0.0
C137 C 0.98666 0.37243 0.49573 0.0
N138 N 1.02014 0.3804 0.56028 0.0
C139 C 0.99653 0.34919 0.63031 0.0
N140 N 0.94971 0.32219 0.60942 0.0
N141 N 0.94348 0.33819 0.52537 0.0
C142 C 0.87421 0.28586 0.27703 0.0
O143 O 0.862 0.24659 0.32497 0.0
O144 O 0.90525 0.26372 0.81598 0.0
Zn145 Zn 0.88538 0.33346 0.46786 0.0
N146 N 0.9034 0.20846 0.61498 0.0
C147 C 0.93001 0.17811 0.48762 0.0
C148 C 0.9312 0.21634 0.5361 0.0
C149 C 0.87447 0.16342 0.64802 0.0
N150 N 0.90095 0.13334 0.51968 0.0
C151 C 0.87298 0.12446 0.59894 0.0
O152 O 0.82161 0.2872 0.52856 0.0
C153 C 0.80759 0.25782 0.59826 0.0
O154 O 0.83621 0.25042 0.64689 0.0
H155 H 0.95339 0.252 0.50961 0.0
H156 H 0.85184 0.15804 0.70956 0.0
C157 C 0.87025 0.41248 0.42072 0.0
C158 C 0.87719 0.45854 0.4347 0.0
C159 C 0.92364 0.46728 0.57419 0.0
C160 C 0.91669 0.42188 0.56012 0.0
N161 N 0.89077 0.39555 0.48334 0.0
N162 N 0.90403 0.48447 0.51135 0.0
H163 H 0.84973 0.39081 0.36014 0.0
C164 C 0.90331 0.29653 0.86233 0.0
O165 O 0.9024 0.33069 0.81357 0.0
O166 O 0.88412 0.32355 0.32332 0.0
H167 H 0.93209 0.40776 0.60987 0.0
H168 H 0.95168 0.18392 0.42425 0.0
H169 H 0.94454 0.48881 0.63453 0.0
Zn170 Zn 0.71877 0.5724 0.13835 0.0
C171 C 0.72936 0.67715 0.31863 0.0
N172 N 0.70278 0.68308 0.25369 0.0
C173 C 0.69945 0.65388 0.1814 0.0
N174 N 0.72219 0.62939 0.20216 0.0
N175 N 0.74164 0.64542 0.28836 0.0
C176 C 0.77916 0.62113 0.53426 0.0
O177 O 0.75873 0.58014 0.48858 0.0
O178 O 0.73316 0.58343 -0.00532 0.0
Zn179 Zn 0.79898 0.65106 0.33837 0.0
N180 N 0.6537 0.51998 0.15033 0.0
C181 C 0.57872 0.49176 0.22448 0.0
C182 C 0.62558 0.52682 0.21318 0.0
C183 C 0.63684 0.47845 0.09937 0.0
N184 N 0.56196 0.45065 0.17417 0.0
C185 C 0.5893 0.44214 0.11182 0.0
O186 O 0.80638 0.59564 0.31134 0.0
C187 C 0.79261 0.55843 0.26084 0.0
O188 O 0.76055 0.54623 0.19619 0.0
H189 H 0.63936 0.55939 0.25421 0.0
H190 H 0.66051 0.47379 0.05177 0.0
C191 C 0.89698 0.72082 0.30678 0.0
C192 C 0.9349 0.75696 0.25469 0.0
C193 C 0.88018 0.75934 0.14503 0.0
C194 C 0.84284 0.72377 0.19695 0.0
N195 N 0.85183 0.70496 0.27642 0.0
N196 N 0.92517 0.77497 0.1748 0.0
H197 H 0.90312 0.70454 0.36907 0.0
C198 C 0.75576 0.62275 0.9502 0.0
O199 O 0.77321 0.66269 -0.00087 0.0
O200 O 0.80053 0.65904 0.48475 0.0
H201 H 0.80704 0.71076 0.17272 0.0
H202 H 0.55583 0.49692 0.27358 0.0
H203 H 0.8735 0.77428 0.0812 0.0
C204 C 0.08542 0.3996 0.83098 0.0
C205 C 0.07043 0.36134 0.89386 0.0
H206 H 0.07254 0.42565 0.70117 0.0
C207 C 1.03276 0.31658 0.86645 0.0
H208 H 0.11302 0.43478 0.85211 0.0
C209 C 1.00931 0.31091 0.77801 0.0
C210 C 1.02173 0.35053 0.71971 0.0
H211 H 1.02016 0.28674 0.91535 0.0
H212 H 0.98135 0.27619 0.75624 0.0
C213 C 0.0613 0.39434 0.74526 0.0
C214 C 0.70054 0.64916 0.48046 0.0
C215 C 0.72624 0.68784 0.41987 0.0
H216 H 0.66062 0.62359 0.60899 0.0
C217 C 0.73549 0.73326 0.44868 0.0
H218 H 0.69131 0.61358 0.45796 0.0
C219 C 0.71801 0.7394 0.53711 0.0
C220 C 0.68915 0.69973 0.59379 0.0
H221 H 0.7545 0.7634 0.40121 0.0
H222 H 0.7264 0.77456 0.56024 0.0
C223 C 0.6822 0.65499 0.56622 0.0
C224 C 0.33198 1.02422 0.19496 0.0
C225 C 0.34009 0.98744 0.22372 0.0
H226 H 0.34292 0.0751 0.08419 0.0
C227 C 0.3648 0.97314 0.1628 0.0
H228 H 0.3135 0.03614 0.24234 0.0
C229 C 0.38408 0.99728 0.0775 0.0
C230 C 0.37885 0.03612 0.05103 0.0
H231 H 0.37294 0.94608 0.18516 0.0
H232 H 0.40519 0.98682 0.03456 0.0
C233 C 0.35026 0.04767 0.10711 0.0
C234 C 0.2475 0.66948 0.33028 0.0
C235 C 0.20021 0.64739 0.29771 0.0
H236 H 0.30633 0.73297 0.38992 0.0
C237 C 0.17423 0.67052 0.31503 0.0
H238 H 0.26874 0.65294 0.31754 0.0
C239 C 0.19561 0.71586 0.35592 0.0
C240 C 0.24367 0.73963 0.38152 0.0
H241 H 0.13764 0.6545 0.2924 0.0
H242 H 0.17501 0.73352 0.36257 0.0
C243 C 0.26906 0.7153 0.37203 0.0
C244 C 0.34015 0.49296 0.01392 0.0
C245 C 0.31608 0.5156 0.04947 0.0
H246 H 0.3997 0.4996 0.93621 0.0
C247 C 0.3386 0.56542 0.04534 0.0
H248 H 0.32389 0.45465 0.01655 0.0
C249 C 0.38255 0.5915 -0.00155 0.0
C250 C 0.40435 0.56797 0.95523 0.0
H251 H 0.32065 0.58376 0.07117 0.0
H252 H 0.39755 0.62941 0.98982 0.0
C253 C 0.38356 0.51873 0.96738 0.0
C254 C 0.49728 0.80071 0.69961 0.0
C255 C 0.54656 0.82141 0.69002 0.0
H256 H 0.4351 0.80308 0.65922 0.0
C257 C 0.5716 0.86481 0.64121 0.0
H258 H 0.47701 0.76707 0.73633 0.0
C259 C 0.54791 0.88575 0.59821 0.0
C260 C 0.49831 0.86377 0.60171 0.0
H261 H 0.60966 0.88199 0.63344 0.0
H262 H 0.56865 0.9186 0.55915 0.0
C263 C 0.47328 0.82154 0.65538 0.0
C264 C 0.68507 0.23519 0.66473 0.0
C265 C 0.66896 0.195 0.72449 0.0
H266 H 0.7417 0.28658 0.57646 0.0
C267 C 0.69642 0.17284 0.73118 0.0
H268 H 0.66526 0.2536 0.6584 0.0
C269 C 0.74007 0.19188 0.68506 0.0
C270 C 0.75761 0.23361 0.63037 0.0
H271 H 0.68496 0.14145 0.77513 0.0
H272 H 0.76097 0.17476 0.69533 0.0
C273 C 0.72899 0.25422 0.61774 0.0
C274 C 0.81042 0.45557 0.33395 0.0
C275 C 0.85708 0.48066 0.37003 0.0
H276 H 0.75285 0.46055 0.26924 0.0
C277 C 0.88354 0.5298 0.35451 0.0
H278 H 0.78897 0.4177 0.34533 0.0
C279 C 0.86313 0.55393 0.31128 0.0
C280 C 0.81551 0.5298 0.28218 0.0
H281 H 0.91969 0.55016 0.38003 0.0
H282 H 0.88411 0.59221 0.30534 0.0
C283 C 0.78974 0.48003 0.29021 0.0
C284 C 0.56437 0.33822 0.94027 0.0
C285 C 0.52231 0.3015 0.98034 0.0
H286 H 0.61877 0.4115 0.94821 0.0
C287 C 0.50332 0.31202 0.06185 0.0
H288 H 0.58007 0.33145 0.87755 0.0
C289 C 0.52547 0.35722 0.10276 0.0
C290 C 0.56765 0.39422 0.0641 0.0
H291 H 0.47112 0.28506 0.09558 0.0
H292 H 0.50928 0.36275 0.16618 0.0
C293 C 0.58682 0.38414 0.98162 0.0
C294 C 0.041 0.42769 0.37202 0.0
C295 C 1.00104 0.38378 0.39482 0.0
H296 H 0.09767 0.46637 0.27256 0.0
C297 C 0.98652 0.3458 0.33073 0.0
H298 H 0.05428 0.4569 0.42321 0.0
C299 C 1.01097 0.35125 0.24544 0.0
C300 C 0.05198 0.39441 0.22358 0.0
H301 H 0.95918 0.31053 0.35083 0.0
H302 H 0.99901 0.32039 0.19902 0.0
C303 C 0.06656 0.43289 0.28703 0.0
C304 C 0.65291 0.61732 0.0274 0.0
C305 C 0.67777 0.65603 0.08978 0.0
H306 H 0.6161 0.59367 0.89175 0.0
C307 C 0.68108 0.69976 0.06726 0.0
H308 H 0.64976 0.58339 0.04267 0.0
C309 C 0.66191 0.70547 0.98275 0.0
C310 C 0.63753 0.66739 0.91955 0.0
H311 H 0.70079 0.73077 0.11282 0.0
H312 H 0.67036 0.74095 0.96249 0.0
C313 C 0.63273 0.62299 0.94251 0.0
C314 C 0.4048 0.0716 0.66419 0.0
C315 C 0.43036 0.05839 0.72491 0.0
H316 H 0.36411 0.05722 0.53586 0.0
C317 C 0.43542 1.01916 0.69918 0.0
H318 H 0.39649 0.09855 0.68636 0.0
C319 C 0.41413 0.993 0.61488 0.0
C320 C 0.38785 1.00606 0.55537 0.0
H321 H 0.45317 1.00692 0.74761 0.0
H322 H 0.41789 0.96274 0.59743 0.0
C323 C 0.38453 0.04635 0.57983 0.0
C324 C 0.24326 0.25959 0.91604 0.0
C325 C 0.23521 0.26482 0.01402 0.0
H326 H 0.27064 0.22987 0.81331 0.0
C327 C 0.25294 0.24669 0.08478 0.0
H328 H 0.2296 0.27256 0.8597 0.0
C329 C 0.27688 0.22266 0.05834 0.0
C330 C 0.28296 0.21545 0.9603 0.0
H331 H 0.24731 0.25015 0.16096 0.0
H332 H 0.28853 0.20777 0.11472 0.0
C333 C 0.26647 0.2348 0.88953 0.0
C334 C 0.811 1.01401 0.75637 0.0
C335 C 0.79269 0.9773 0.68678 0.0
H336 H 0.84988 0.08895 0.78412 0.0
C337 C 0.79821 0.98971 0.58837 0.0
H338 H 0.8074 1.00573 0.83285 0.0
C339 C 0.82306 0.03751 0.56048 0.0
C340 C 0.84231 0.0742 0.63007 0.0
H341 H 0.78522 0.96254 0.53274 0.0
H342 H 0.82795 0.04577 0.484 0.0
C343 C 0.8351 0.06182 0.72848 0.0
C344 C 0.99765 0.78385 0.38296 0.0
C345 C 0.98485 0.7767 0.28473 0.0
H346 H 0.05411 0.81458 0.48616 0.0
C347 C 1.02067 0.7925 0.21435 0.0
H348 H 0.97102 0.77278 0.43893 0.0
C349 C 0.06834 0.81616 0.24145 0.0
C350 C 0.0811 0.82519 0.33952 0.0
H351 H 1.01182 0.78746 0.13804 0.0
H352 H 0.09508 0.82935 0.18545 0.0
C353 C 0.04528 0.80815 0.40995 0.0
C354 C 0.24255 0.49736 0.54759 0.0
C355 C 0.20733 0.46481 0.48493 0.0
H356 H 0.26784 0.51479 0.69294 0.0
C357 C 0.17032 0.4225 0.52357 0.0
H358 H 0.27148 0.53032 0.5205 0.0
C359 C 0.16868 0.41316 0.62307 0.0
C360 C 0.20345 0.44648 0.68565 0.0
H361 H 0.14262 0.3967 0.47707 0.0
H362 H 0.13966 0.38057 0.65127 0.0
C363 C 0.2404 0.48849 0.64666 0.0
C364 C 0.58917 0.72053 0.29659 0.0
C365 C 0.62575 0.75847 0.34781 0.0
H366 H 0.55583 0.69349 0.15973 0.0
C367 C 0.6581 0.79915 0.29654 0.0
H368 H 0.56377 0.68861 0.33372 0.0
C369 C 0.65325 0.80219 0.19651 0.0
C370 C 0.6162 0.76447 0.14563 0.0
H371 H 0.6867 0.82901 0.33388 0.0
H372 H 0.67856 0.83407 0.15915 0.0
C373 C 0.58455 0.72342 0.19673 0.0
C374 C 0.3037 0.88859 0.8526 0.0
C375 C 0.31064 0.85237 0.81391 0.0
H376 H 0.29066 0.91839 0.98019 0.0
C377 C 0.30956 0.81796 0.87658 0.0
H378 H 0.30438 0.91567 0.8061 0.0
C379 C 0.30244 0.81996 0.97563 0.0
C380 C 0.29541 0.85593 0.01454 0.0
H381 H 0.31491 0.7897 0.8494 0.0
H382 H 0.30234 0.79307 0.02186 0.0
C383 C 0.29565 0.89006 0.95203 0.0
C384 C 0.48764 0.16783 0.45674 0.0
C385 C 0.4552 0.17585 0.50872 0.0
H386 H 0.50861 0.15421 0.31911 0.0
C387 C 0.41692 0.17432 0.45882 0.0
H388 H 0.5173 0.16831 0.49299 0.0
C389 C 0.41163 0.16565 0.35894 0.0
C390 C 0.44473 0.15873 0.30674 0.0
H391 H 0.39095 0.17971 0.49687 0.0
H392 H 0.38207 0.16525 0.32242 0.0
C393 C 0.48256 0.15956 0.35697 0.0
C394 C 0.89196 0.32961 0.12001 0.0
C395 C 0.88184 0.28823 0.17095 0.0
H396 H 0.90691 0.36474 0.98323 0.0
C397 C 0.8807 0.25018 0.12 0.0
H398 H 0.89351 0.35978 0.15707 0.0
C399 C 0.88895 0.25327 0.02009 0.0
C400 C 0.89808 0.29432 0.969 0.0
H401 H 0.87357 0.21803 0.15724 0.0
H402 H 0.88735 0.22316 0.9827 0.0
C403 C 0.8998 0.33254 0.02025 0.0
C404 C 0.79021 0.66553 0.691 0.0
C405 C 0.77414 0.62245 0.6408 0.0
H406 H 0.79689 0.69954 0.82816 0.0
C407 C 0.75181 0.57981 0.69316 0.0
H408 H 0.80709 0.69897 0.65264 0.0
C409 C 0.74584 0.58009 0.79316 0.0
C410 C 0.76208 0.62305 0.84374 0.0
H411 H 0.73881 0.54594 0.65695 0.0
H412 H 0.72853 0.54646 0.83081 0.0
C413 C 0.78425 0.66582 0.79152 0.0
loop_
_geom_bond_atom_site_label_1
_geom_bond_atom_site_label_2
_geom_bond_distance
_geom_bond_site_symmetry_2
_ccdc_geom_bond_type
Zn0 N4 2.020 . S
Zn0 O8 2.019 1_554 S
Zn0 N10 2.119 . S
Zn0 O18 1.975 . S
C1 N2 1.334 . S
C1 N5 1.336 . S
N2 C1 1.334 . S
N2 C3 1.334 . S
C3 N2 1.334 . S
C3 N4 1.336 . S
N4 Zn0 2.020 . S
N4 C3 1.336 . S
N4 N5 1.354 . S
N5 C1 1.336 . S
N5 N4 1.354 . S
N5 Zn9 2.020 . S
C6 O7 1.244 . S
C6 O30 1.257 . S
O7 C6 1.244 . S
O8 Zn0 2.019 1_556 S
O8 C28 1.257 . S
Zn9 N5 2.020 . S
Zn9 O16 1.975 . S
Zn9 N25 2.119 . S
Zn9 O30 2.019 . S
N10 Zn0 2.119 . S
N10 C12 1.334 . S
N10 C13 1.328 1_554 S
C11 C12 1.391 . S
C11 N14 1.329 . S
C11 H32 0.930 . S
C12 N10 1.334 . S
C12 C11 1.391 . S
C12 H19 0.930 . S
C13 N10 1.328 1_556 S
C13 C15 1.392 1_556 S
C13 H20 0.930 . S
N14 C11 1.329 . S
N14 C15 1.331 . S
C15 C13 1.392 1_554 S
C15 N14 1.331 . S
O16 Zn9 1.975 . S
O16 C17 1.252 . S
C17 O16 1.252 . S
C17 O18 1.252 . S
O18 Zn0 1.975 . S
O18 C17 1.252 . S
H19 C12 0.930 . S
H20 C13 0.930 . S
C21 C22 1.392 . S
C21 N25 1.328 . S
C21 H27 0.930 . S
C22 C21 1.392 . S
C22 N26 1.331 . S
C23 C24 1.391 . S
C23 N26 1.329 . S
C23 H33 0.930 . S
C24 C23 1.391 . S
C24 N25 1.334 . S
C24 H31 0.930 . S
N25 Zn9 2.119 . S
N25 C21 1.328 . S
N25 C24 1.334 . S
N26 C22 1.331 . S
N26 C23 1.329 . S
H27 C21 0.930 . S
C28 O8 1.257 . S
C28 O29 1.244 . S
O29 C28 1.244 . S
O30 C6 1.257 . S
O30 Zn9 2.019 . S
H31 C24 0.930 . S
H32 C11 0.930 . S
H33 C23 0.930 . S
Zn34 N38 2.020 . S
Zn34 O42 2.019 . S
Zn34 N44 2.119 . S
Zn34 O52 1.975 . S
C35 N36 1.334 . S
C35 N39 1.336 . S
N36 C35 1.334 . S
N36 C37 1.334 . S
C37 N36 1.334 . S
C37 N38 1.336 . S
N38 Zn34 2.020 . S
N38 C37 1.336 . S
N38 N39 1.354 . S
N39 C35 1.336 . S
N39 N38 1.354 . S
N39 Zn43 2.020 . S
C40 O41 1.244 . S
C40 O64 1.257 . S
O41 C40 1.244 . S
O42 Zn34 2.019 . S
O42 C62 1.257 . S
Zn43 N39 2.020 . S
Zn43 O50 1.975 . S
Zn43 N59 2.119 . S
Zn43 O64 2.019 1_556 S
N44 Zn34 2.119 . S
N44 C46 1.334 . S
N44 C47 1.328 . S
C45 C46 1.391 . S
C45 N48 1.329 . S
C45 H66 0.930 . S
C46 N44 1.334 . S
C46 C45 1.391 . S
C46 H53 0.930 . S
C47 N44 1.328 . S
C47 C49 1.392 . S
C47 H54 0.930 . S
N48 C45 1.329 . S
N48 C49 1.331 . S
C49 C47 1.392 . S
C49 N48 1.331 . S
O50 Zn43 1.975 . S
O50 C51 1.252 . S
C51 O50 1.252 . S
C51 O52 1.252 . S
O52 Zn34 1.975 . S
O52 C51 1.252 . S
H53 C46 0.930 . S
H54 C47 0.930 . S
C55 C56 1.392 . S
C55 N59 1.328 . S
C55 H61 0.930 1_556 S
C56 C55 1.392 . S
C56 N60 1.331 . S
C57 C58 1.391 . S
C57 N60 1.329 . S
C57 H67 0.930 . S
C58 C57 1.391 . S
C58 N59 1.334 . S
C58 H65 0.930 . S
N59 Zn43 2.119 . S
N59 C55 1.328 . S
N59 C58 1.334 . S
N60 C56 1.331 . S
N60 C57 1.329 . S
H61 C55 0.930 1_554 S
C62 O42 1.257 . S
C62 O63 1.244 . S
O63 C62 1.244 . S
O64 C40 1.257 . S
O64 Zn43 2.019 1_554 S
H65 C58 0.930 . S
H66 C45 0.930 . S
H67 C57 0.930 . S
Zn68 N72 2.020 . S
Zn68 O76 2.019 . S
Zn68 N78 2.119 . S
Zn68 O86 1.975 . S
C69 N70 1.334 . S
C69 N73 1.336 . S
N70 C69 1.334 . S
N70 C71 1.334 . S
C71 N70 1.334 . S
C71 N72 1.336 . S
N72 Zn68 2.020 . S
N72 C71 1.336 . S
N72 N73 1.354 . S
N73 C69 1.336 . S
N73 N72 1.354 . S
N73 Zn77 2.020 . S
C74 O75 1.244 . S
C74 O98 1.257 . S
O75 C74 1.244 . S
O76 Zn68 2.019 . S
O76 C96 1.257 . S
Zn77 N73 2.020 . S
Zn77 O84 1.975 . S
Zn77 N93 2.119 . S
Zn77 O98 2.019 . S
N78 Zn68 2.119 . S
N78 C80 1.334 . S
N78 C81 1.328 . S
C79 C80 1.391 . S
C79 N82 1.329 . S
C79 H100 0.930 . S
C80 N78 1.334 . S
C80 C79 1.391 . S
C80 H87 0.930 . S
C81 N78 1.328 . S
C81 C83 1.392 . S
C81 H88 0.930 . S
N82 C79 1.329 . S
N82 C83 1.331 . S
C83 C81 1.392 . S
C83 N82 1.331 . S
O84 Zn77 1.975 . S
O84 C85 1.252 . S
C85 O84 1.252 . S
C85 O86 1.252 . S
O86 Zn68 1.975 . S
O86 C85 1.252 . S
H87 C80 0.930 . S
H88 C81 0.930 . S
C89 C90 1.392 . S
C89 N93 1.328 . S
C89 H95 0.930 . S
C90 C89 1.392 . S
C90 N94 1.331 . S
C91 C92 1.391 . S
C91 N94 1.329 . S
C91 H101 0.930 . S
C92 C91 1.391 . S
C92 N93 1.334 . S
C92 H99 0.930 . S
N93 Zn77 2.119 . S
N93 C89 1.328 . S
N93 C92 1.334 . S
N94 C90 1.331 . S
N94 C91 1.329 . S
H95 C89 0.930 . S
C96 O76 1.257 . S
C96 O97 1.244 . S
O97 C96 1.244 . S
O98 C74 1.257 . S
O98 Zn77 2.019 . S
H99 C92 0.930 . S
H100 C79 0.930 . S
H101 C91 0.930 . S
Zn102 N106 2.020 . S
Zn102 O110 2.019 . S
Zn102 N112 2.119 . S
Zn102 O120 1.975 . S
C103 N104 1.334 . S
C103 N107 1.336 . S
N104 C103 1.334 . S
N104 C105 1.334 . S
C105 N104 1.334 . S
C105 N106 1.336 . S
N106 Zn102 2.020 . S
N106 C105 1.336 . S
N106 N107 1.354 . S
N107 C103 1.336 . S
N107 N106 1.354 . S
N107 Zn111 2.020 . S
C108 O109 1.244 . S
C108 O132 1.257 . S
O109 C108 1.244 . S
O110 Zn102 2.019 . S
O110 C130 1.257 . S
Zn111 N107 2.020 . S
Zn111 O118 1.975 . S
Zn111 N127 2.119 . S
Zn111 O132 2.019 1_556 S
N112 Zn102 2.119 . S
N112 C114 1.334 . S
N112 C115 1.328 . S
C113 C114 1.391 . S
C113 N116 1.329 . S
C113 H134 0.930 . S
C114 N112 1.334 . S
C114 C113 1.391 . S
C114 H121 0.930 . S
C115 N112 1.328 . S
C115 C117 1.392 . S
C115 H122 0.930 . S
N116 C113 1.329 . S
N116 C117 1.331 . S
C117 C115 1.392 . S
C117 N116 1.331 . S
O118 Zn111 1.975 . S
O118 C119 1.252 . S
C119 O118 1.252 . S
C119 O120 1.252 . S
O120 Zn102 1.975 . S
O120 C119 1.252 . S
H121 C114 0.930 . S
H122 C115 0.930 . S
C123 C124 1.392 1_554 S
C123 N127 1.328 1_554 S
C123 H129 0.930 . S
C124 C123 1.392 1_556 S
C124 N128 1.331 . S
C125 C126 1.391 . S
C125 N128 1.329 . S
C125 H135 0.930 . S
C126 C125 1.391 . S
C126 N127 1.334 . S
C126 H133 0.930 . S
N127 Zn111 2.119 . S
N127 C123 1.328 1_556 S
N127 C126 1.334 . S
N128 C124 1.331 . S
N128 C125 1.329 . S
H129 C123 0.930 . S
C130 O110 1.257 . S
C130 O131 1.244 . S
O131 C130 1.244 . S
O132 C108 1.257 . S
O132 Zn111 2.019 1_554 S
H133 C126 0.930 . S
H134 C113 0.930 . S
H135 C125 0.930 . S
Zn136 N140 2.020 . S
Zn136 O144 2.019 . S
Zn136 N146 2.119 . S
Zn136 O154 1.975 . S
C137 N138 1.334 . S
C137 N141 1.336 . S
N138 C137 1.334 . S
N138 C139 1.334 . S
C139 N138 1.334 . S
C139 N140 1.336 . S
N140 Zn136 2.020 . S
N140 C139 1.336 . S
N140 N141 1.354 . S
N141 C137 1.336 . S
N141 N140 1.354 . S
N141 Zn145 2.020 . S
C142 O143 1.244 . S
C142 O166 1.257 . S
O143 C142 1.244 . S
O144 Zn136 2.019 . S
O144 C164 1.257 . S
Zn145 N141 2.020 . S
Zn145 O152 1.975 . S
Zn145 N161 2.119 . S
Zn145 O166 2.019 . S
N146 Zn136 2.119 . S
N146 C148 1.334 . S
N146 C149 1.328 . S
C147 C148 1.391 . S
C147 N150 1.329 . S
C147 H168 0.930 . S
C148 N146 1.334 . S
C148 C147 1.391 . S
C148 H155 0.930 . S
C149 N146 1.328 . S
C149 C151 1.392 . S
C149 H156 0.930 . S
N150 C147 1.329 . S
N150 C151 1.331 . S
C151 C149 1.392 . S
C151 N150 1.331 . S
O152 Zn145 1.975 . S
O152 C153 1.252 . S
C153 O152 1.252 . S
C153 O154 1.252 . S
O154 Zn136 1.975 . S
O154 C153 1.252 . S
H155 C148 0.930 . S
H156 C149 0.930 . S
C157 C158 1.392 . S
C157 N161 1.328 . S
C157 H163 0.930 . S
C158 C157 1.392 . S
C158 N162 1.331 . S
C159 C160 1.391 . S
C159 N162 1.329 . S
C159 H169 0.930 . S
C160 C159 1.391 . S
C160 N161 1.334 . S
C160 H167 0.930 . S
N161 Zn145 2.119 . S
N161 C157 1.328 . S
N161 C160 1.334 . S
N162 C158 1.331 . S
N162 C159 1.329 . S
H163 C157 0.930 . S
C164 O144 1.257 . S
C164 O165 1.244 . S
O165 C164 1.244 . S
O166 C142 1.257 . S
O166 Zn145 2.019 . S
H167 C160 0.930 . S
H168 C147 0.930 . S
H169 C159 0.930 . S
Zn170 N174 2.020 . S
Zn170 O178 2.019 1_554 S
Zn170 N180 2.119 . S
Zn170 O188 1.975 . S
C171 N172 1.334 . S
C171 N175 1.336 . S
N172 C171 1.334 . S
N172 C173 1.334 . S
C173 N172 1.334 . S
C173 N174 1.336 . S
N174 Zn170 2.020 . S
N174 C173 1.336 . S
N174 N175 1.354 . S
N175 C171 1.336 . S
N175 N174 1.354 . S
N175 Zn179 2.020 . S
C176 O177 1.244 . S
C176 O200 1.257 . S
O177 C176 1.244 . S
O178 Zn170 2.019 1_556 S
O178 C198 1.257 . S
Zn179 N175 2.020 . S
Zn179 O186 1.975 . S
Zn179 N195 2.119 . S
Zn179 O200 2.019 . S
N180 Zn170 2.119 . S
N180 C182 1.334 . S
N180 C183 1.328 . S
C181 C182 1.391 . S
C181 N184 1.329 . S
C181 H202 0.930 . S
C182 N180 1.334 . S
C182 C181 1.391 . S
C182 H189 0.930 . S
C183 N180 1.328 . S
C183 C185 1.392 . S
C183 H190 0.930 1_554 S
N184 C181 1.329 . S
N184 C185 1.331 . S
C185 C183 1.392 . S
C185 N184 1.331 . S
O186 Zn179 1.975 . S
O186 C187 1.252 . S
C187 O186 1.252 . S
C187 O188 1.252 . S
O188 Zn170 1.975 . S
O188 C187 1.252 . S
H189 C182 0.930 . S
H190 C183 0.930 1_556 S
C191 C192 1.392 . S
C191 N195 1.328 . S
C191 H197 0.930 . S
C192 C191 1.392 . S
C192 N196 1.331 . S
C193 C194 1.391 . S
C193 N196 1.329 . S
C193 H203 0.930 . S
C194 C193 1.391 . S
C194 N195 1.334 . S
C194 H201 0.930 . S
N195 Zn179 2.119 . S
N195 C191 1.328 . S
N195 C194 1.334 . S
N196 C192 1.331 . S
N196 C193 1.329 . S
H197 C191 0.930 . S
C198 O178 1.257 . S
C198 O199 1.244 . S
O199 C198 1.244 . S
O200 C176 1.257 . S
O200 Zn179 2.019 . S
H201 C194 0.930 . S
H202 C181 0.930 . S
H203 C193 0.930 . S
C204 C205 1.387 . S
C204 H208 0.950 . S
C204 C213 1.390 . S
C205 C204 1.387 . S
C205 C207 1.387 1_455 S
H206 C213 0.950 . S
C207 C205 1.387 1_655 S
C207 C209 1.390 . S
C207 H211 0.950 . S
H208 C204 0.950 . S
C209 C207 1.390 . S
C209 C210 1.387 . S
C209 H212 0.950 . S
C210 C209 1.387 . S
C210 C213 1.387 1_655 S
H211 C207 0.950 . S
H212 C209 0.950 . S
C213 C204 1.390 . S
C213 H206 0.950 . S
C213 C210 1.387 1_455 S
C214 C215 1.387 . S
C214 H218 0.950 . S
C214 C223 1.390 . S
C215 C214 1.387 . S
C215 C217 1.387 . S
H216 C223 0.950 . S
C217 C215 1.387 . S
C217 C219 1.390 . S
C217 H221 0.950 . S
H218 C214 0.950 . S
C219 C217 1.390 . S
C219 C220 1.387 . S
C219 H222 0.950 . S
C220 C219 1.387 . S
C220 C223 1.387 . S
H221 C217 0.950 . S
H222 C219 0.950 . S
C223 C214 1.390 . S
C223 H216 0.950 . S
C223 C220 1.387 . S
C224 C225 1.387 . S
C224 H228 0.950 . S
C224 C233 1.390 1_565 S
C225 C224 1.387 . S
C225 C227 1.387 . S
H226 C233 0.950 . S
C227 C225 1.387 . S
C227 C229 1.390 1_565 S
C227 H231 0.950 . S
H228 C224 0.950 . S
C229 C227 1.390 1_545 S
C229 C230 1.387 . S
C229 H232 0.950 . S
C230 C229 1.387 . S
C230 C233 1.387 . S
H231 C227 0.950 . S
H232 C229 0.950 . S
C233 C224 1.390 1_545 S
C233 H226 0.950 . S
C233 C230 1.387 . S
C234 C235 1.387 . S
C234 H238 0.950 . S
C234 C243 1.390 . S
C235 C234 1.387 . S
C235 C237 1.387 . S
H236 C243 0.950 . S
C237 C235 1.387 . S
C237 C239 1.390 . S
C237 H241 0.950 . S
H238 C234 0.950 . S
C239 C237 1.390 . S
C239 C240 1.387 . S
C239 H242 0.950 . S
C240 C239 1.387 . S
C240 C243 1.387 . S
H241 C237 0.950 . S
H242 C239 0.950 . S
C243 C234 1.390 . S
C243 H236 0.950 . S
C243 C240 1.387 . S
C244 C245 1.387 . S
C244 H248 0.950 1_554 S
C244 C253 1.390 1_554 S
C245 C244 1.387 . S
C245 C247 1.387 . S
H246 C253 0.950 . S
C247 C245 1.387 . S
C247 C249 1.390 . S
C247 H251 0.950 . S
H248 C244 0.950 1_556 S
C249 C247 1.390 . S
C249 C250 1.387 . S
C249 H252 0.950 . S
C250 C249 1.387 . S
C250 C253 1.387 1_554 S
H251 C247 0.950 . S
H252 C249 0.950 . S
C253 C244 1.390 1_556 S
C253 H246 0.950 . S
C253 C250 1.387 1_556 S
C254 C255 1.387 . S
C254 H258 0.950 . S
C254 C263 1.390 . S
C255 C254 1.387 . S
C255 C257 1.387 . S
H256 C263 0.950 . S
C257 C255 1.387 . S
C257 C259 1.390 . S
C257 H261 0.950 . S
H258 C254 0.950 . S
C259 C257 1.390 . S
C259 C260 1.387 . S
C259 H262 0.950 . S
C260 C259 1.387 . S
C260 C263 1.387 . S
H261 C257 0.950 . S
H262 C259 0.950 . S
C263 C254 1.390 . S
C263 H256 0.950 . S
C263 C260 1.387 . S
C264 C265 1.387 . S
C264 H268 0.950 . S
C264 C273 1.390 . S
C265 C264 1.387 . S
C265 C267 1.387 . S
H266 C273 0.950 . S
C267 C265 1.387 . S
C267 C269 1.390 . S
C267 H271 0.950 . S
H268 C264 0.950 . S
C269 C267 1.390 . S
C269 C270 1.387 . S
C269 H272 0.950 . S
C270 C269 1.387 . S
C270 C273 1.387 . S
H271 C267 0.950 . S
H272 C269 0.950 . S
C273 C264 1.390 . S
C273 H266 0.950 . S
C273 C270 1.387 . S
C274 C275 1.387 . S
C274 H278 0.950 . S
C274 C283 1.390 . S
C275 C274 1.387 . S
C275 C277 1.387 . S
H276 C283 0.950 . S
C277 C275 1.387 . S
C277 C279 1.390 . S
C277 H281 0.950 . S
H278 C274 0.950 . S
C279 C277 1.390 . S
C279 C280 1.387 . S
C279 H282 0.950 . S
C280 C279 1.387 . S
C280 C283 1.387 . S
H281 C277 0.950 . S
H282 C279 0.950 . S
C283 C274 1.390 . S
C283 H276 0.950 . S
C283 C280 1.387 . S
C284 C285 1.387 . S
C284 H288 0.950 . S
C284 C293 1.390 . S
C285 C284 1.387 . S
C285 C287 1.387 . S
H286 C293 0.950 . S
C287 C285 1.387 . S
C287 C289 1.390 1_556 S
C287 H291 0.952 . S
H288 C284 0.950 . S
C289 C287 1.390 1_554 S
C289 C290 1.387 1_554 S
C289 H292 0.950 . S
C290 C289 1.387 1_556 S
C290 C293 1.387 . S
H291 C287 0.952 . S
H292 C289 0.950 . S
C293 C284 1.390 . S
C293 H286 0.950 . S
C293 C290 1.387 . S
C294 C295 1.387 . S
C294 H298 0.950 . S
C294 C303 1.390 1_655 S
C295 C294 1.387 . S
C295 C297 1.387 . S
H296 C303 0.950 . S
C297 C295 1.387 . S
C297 C299 1.390 1_655 S
C297 H301 0.950 . S
H298 C294 0.950 . S
C299 C297 1.390 1_455 S
C299 C300 1.387 . S
C299 H302 0.950 . S
C300 C299 1.387 . S
C300 C303 1.387 . S
H301 C297 0.950 . S
H302 C299 0.950 . S
C303 C294 1.390 1_455 S
C303 H296 0.950 . S
C303 C300 1.387 . S
C304 C305 1.387 1_556 S
C304 H308 0.950 . S
C304 C313 1.390 . S
C305 C304 1.387 1_554 S
C305 C307 1.387 . S
H306 C313 0.950 . S
C307 C305 1.387 . S
C307 C309 1.390 . S
C307 H311 0.950 . S
H308 C304 0.950 . S
C309 C307 1.390 . S
C309 C310 1.387 1_554 S
C309 H312 0.950 . S
C310 C309 1.387 1_556 S
C310 C313 1.387 . S
H311 C307 0.950 . S
H312 C309 0.950 . S
C313 C304 1.390 . S
C313 H306 0.950 . S
C313 C310 1.387 . S
C314 C315 1.387 . S
C314 H318 0.950 . S
C314 C323 1.390 1_545 S
C315 C314 1.387 . S
C315 C317 1.387 . S
H316 C323 0.950 . S
C317 C315 1.387 . S
C317 C319 1.390 1_545 S
C317 H321 0.950 . S
H318 C314 0.950 . S
C319 C317 1.390 1_565 S
C319 C320 1.387 . S
C319 H322 0.950 . S
C320 C319 1.387 . S
C320 C323 1.387 . S
H321 C317 0.950 . S
H322 C319 0.950 . S
C323 C314 1.390 1_565 S
C323 H316 0.950 . S
C323 C320 1.387 . S
C324 C325 1.387 . S
C324 H328 0.950 . S
C324 C333 1.390 . S
C325 C324 1.387 . S
C325 C327 1.387 1_556 S
H326 C333 0.950 . S
C327 C325 1.387 1_554 S
C327 C329 1.390 . S
C327 H331 0.950 . S
H328 C324 0.950 . S
C329 C327 1.390 . S
C329 C330 1.387 . S
C329 H332 0.950 . S
C330 C329 1.387 . S
C330 C333 1.387 1_554 S
H331 C327 0.950 . S
H332 C329 0.950 . S
C333 C324 1.390 . S
C333 H326 0.950 . S
C333 C330 1.387 1_556 S
C334 C335 1.387 . S
C334 H338 0.950 . S
C334 C343 1.390 1_565 S
C335 C334 1.387 . S
C335 C337 1.387 . S
H336 C343 0.950 . S
C337 C335 1.387 . S
C337 C339 1.390 1_565 S
C337 H341 0.950 . S
H338 C334 0.950 . S
C339 C337 1.390 1_545 S
C339 C340 1.387 . S
C339 H342 0.950 . S
C340 C339 1.387 . S
C340 C343 1.387 . S
H341 C337 0.950 . S
H342 C339 0.950 . S
C343 C334 1.390 1_545 S
C343 H336 0.950 . S
C343 C340 1.387 . S
C344 C345 1.387 . S
C344 H348 0.950 . S
C344 C353 1.390 1_655 S
C345 C344 1.387 . S
C345 C347 1.387 . S
H346 C353 0.950 . S
C347 C345 1.387 . S
C347 C349 1.390 1_655 S
C347 H351 0.950 . S
H348 C344 0.950 . S
C349 C347 1.390 1_455 S
C349 C350 1.387 . S
C349 H352 0.950 . S
C350 C349 1.387 . S
C350 C353 1.387 . S
H351 C347 0.950 . S
H352 C349 0.950 . S
C353 C344 1.390 1_455 S
C353 H346 0.950 . S
C353 C350 1.387 . S
C354 C355 1.387 . S
C354 H358 0.950 . S
C354 C363 1.390 . S
C355 C354 1.387 . S
C355 C357 1.387 . S
H356 C363 0.950 . S
C357 C355 1.387 . S
C357 C359 1.390 . S
C357 H361 0.950 . S
H358 C354 0.950 . S
C359 C357 1.390 . S
C359 C360 1.387 . S
C359 H362 0.950 . S
C360 C359 1.387 . S
C360 C363 1.387 . S
H361 C357 0.950 . S
H362 C359 0.950 . S
C363 C354 1.390 . S
C363 H356 0.950 . S
C363 C360 1.387 . S
C364 C365 1.387 . S
C364 H368 0.950 . S
C364 C373 1.390 . S
C365 C364 1.387 . S
C365 C367 1.387 . S
H366 C373 0.950 . S
C367 C365 1.387 . S
C367 C369 1.390 . S
C367 H371 0.950 . S
H368 C364 0.950 . S
C369 C367 1.390 . S
C369 C370 1.387 . S
C369 H372 0.950 . S
C370 C369 1.387 . S
C370 C373 1.387 . S
H371 C367 0.950 . S
H372 C369 0.950 . S
C373 C364 1.390 . S
C373 H366 0.950 . S
C373 C370 1.387 . S
C374 C375 1.387 . S
C374 H378 0.950 . S
C374 C383 1.390 1_556 S
C375 C374 1.387 . S
C375 C377 1.387 . S
H376 C383 0.950 . S
C377 C375 1.387 . S
C377 C379 1.390 1_556 S
C377 H381 0.950 . S
H378 C374 0.950 . S
C379 C377 1.390 1_554 S
C379 C380 1.387 . S
C379 H382 0.950 . S
C380 C379 1.387 . S
C380 C383 1.387 . S
H381 C377 0.950 . S
H382 C379 0.950 . S
C383 C374 1.390 1_554 S
C383 H376 0.950 . S
C383 C380 1.387 . S
C384 C385 1.387 . S
C384 H388 0.950 . S
C384 C393 1.390 . S
C385 C384 1.387 . S
C385 C387 1.387 . S
H386 C393 0.950 . S
C387 C385 1.387 . S
C387 C389 1.390 . S
C387 H391 0.950 . S
H388 C384 0.950 . S
C389 C387 1.390 . S
C389 C390 1.387 . S
C389 H392 0.950 . S
C390 C389 1.387 . S
C390 C393 1.387 . S
H391 C387 0.950 . S
H392 C389 0.950 . S
C393 C384 1.390 . S
C393 H386 0.950 . S
C393 C390 1.387 . S
C394 C395 1.387 . S
C394 H398 0.950 . S
C394 C403 1.390 1_554 S
C395 C394 1.387 . S
C395 C397 1.387 . S
H396 C403 0.950 . S
C397 C395 1.387 . S
C397 C399 1.390 1_554 S
C397 H401 0.950 . S
H398 C394 0.950 . S
C399 C397 1.390 1_556 S
C399 C400 1.387 . S
C399 H402 0.950 . S
C400 C399 1.387 . S
C400 C403 1.387 . S
H401 C397 0.950 . S
H402 C399 0.950 . S
C403 C394 1.390 1_556 S
C403 H396 0.950 . S
C403 C400 1.387 . S
C404 C405 1.387 . S
C404 H408 0.950 . S
C404 C413 1.390 . S
C405 C404 1.387 . S
C405 C407 1.387 . S
H406 C413 0.950 . S
C407 C405 1.387 . S
C407 C409 1.390 . S
C407 H411 0.950 . S
H408 C404 0.950 . S
C409 C407 1.390 . S
C409 C410 1.387 . S
C409 H412 0.950 . S
C410 C409 1.387 . S
C410 C413 1.387 . S
H411 C407 0.950 . S
H412 C409 0.950 . S
C413 C404 1.390 . S
C413 H406 0.950 . S
C413 C410 1.387 . S
C205 C3 2.646 1_556 S
C210 C139 2.647 . S
C215 C171 2.646 . S
C220 C37 2.647 . S
C225 C69 2.647 . S
C230 C103 2.647 1_554 S
C235 C22 1.798 . S
C240 C85 1.848 . S
C245 C17 1.849 . S
C250 C56 1.796 1_554 S
C255 C51 1.848 . S
C260 C83 1.798 . S
C265 C117 1.797 . S
C270 C153 1.848 . S
C275 C158 1.798 . S
C280 C187 1.848 . S
C285 C119 1.849 . S
C290 C185 1.797 1_556 S
C295 C137 1.181 . S
C300 C1 1.179 . S
C305 C173 1.181 . S
C310 C35 1.182 . S
C315 C105 1.176 . S
C320 C71 1.176 . S
C325 C15 1.409 1_556 S
C330 C124 1.407 1_554 S
C335 C49 1.406 . S
C340 C151 1.406 . S
C345 C192 1.409 . S
C350 C90 1.407 . S
C355 C6 1.183 . S
C360 C28 1.189 . S
C365 C62 1.188 . S
C370 C40 1.183 . S
C375 C96 1.181 . S
C380 C74 1.188 . S
C385 C130 1.183 . S
C390 C108 1.189 . S
C395 C142 1.183 . S
C400 C164 1.188 . S
C405 C176 1.188 . S
C410 C198 1.181 . S
