# Generated by pormake.
# Topology fny, (5)-cn, num edge types: 1
# Building blocks:
#     Node 0, Type 0, BuildingBlock: XOMCOT_clean_sbu_1, # of connection points: 5
#     Node 1, Type 0, BuildingBlock: XOMCOT_clean_sbu_1, # of connection points: 5
#     Node 2, Type 0, BuildingBlock: XOMCOT_clean_sbu_1, # of connection points: 5
#     Node 3, Type 0, BuildingBlock: XOMCOT_clean_sbu_1, # of connection points: 5
#     Node 4, Type 0, BuildingBlock: XOMCOT_clean_sbu_1, # of connection points: 5
#     Node 5, Type 0, BuildingBlock: XOMCOT_clean_sbu_1, # of connection points: 5
#     Node 6, Type 0, BuildingBlock: XOMCOT_clean_sbu_1, # of connection points: 5
#     Node 7, Type 0, BuildingBlock: XOMCOT_clean_sbu_1, # of connection points: 5
#     Node 8, Type 0, BuildingBlock: XOMCOT_clean_sbu_1, # of connection points: 5
#     Node 9, Type 0, BuildingBlock: XOMCOT_clean_sbu_1, # of connection points: 5
#     Node 10, Type 0, BuildingBlock: XOMCOT_clean_sbu_1, # of connection points: 5
#     Node 11, Type 0, BuildingBlock: XOMCOT_clean_sbu_1, # of connection points: 5
#     Edge 12, Type (0, 0), BuildingBlock: TEMPAE_clean_linker_10, # of connection points: 2
#     Edge 13, Type (0, 0), BuildingBlock: TEMPAE_clean_linker_10, # of connection points: 2
#     Edge 14, Type (0, 0), BuildingBlock: TEMPAE_clean_linker_10, # of connection points: 2
#     Edge 15, Type (0, 0), BuildingBlock: TEMPAE_clean_linker_10, # of connection points: 2
#     Edge 16, Type (0, 0), BuildingBlock: TEMPAE_clean_linker_10, # of connection points: 2
#     Edge 17, Type (0, 0), BuildingBlock: TEMPAE_clean_linker_10, # of connection points: 2
#     Edge 18, Type (0, 0), BuildingBlock: TEMPAE_clean_linker_10, # of connection points: 2
#     Edge 19, Type (0, 0), BuildingBlock: TEMPAE_clean_linker_10, # of connection points: 2
#     Edge 20, Type (0, 0), BuildingBlock: TEMPAE_clean_linker_10, # of connection points: 2
#     Edge 21, Type (0, 0), BuildingBlock: TEMPAE_clean_linker_10, # of connection points: 2
#     Edge 22, Type (0, 0), BuildingBlock: TEMPAE_clean_linker_10, # of connection points: 2
#     Edge 23, Type (0, 0), BuildingBlock: TEMPAE_clean_linker_10, # of connection points: 2
#     Edge 24, Type (0, 0), BuildingBlock: TEMPAE_clean_linker_10, # of connection points: 2
#     Edge 25, Type (0, 0), BuildingBlock: TEMPAE_clean_linker_10, # of connection points: 2
#     Edge 26, Type (0, 0), BuildingBlock: TEMPAE_clean_linker_10, # of connection points: 2
#     Edge 27, Type (0, 0), BuildingBlock: TEMPAE_clean_linker_10, # of connection points: 2
#     Edge 28, Type (0, 0), BuildingBlock: TEMPAE_clean_linker_10, # of connection points: 2
#     Edge 29, Type (0, 0), BuildingBlock: TEMPAE_clean_linker_10, # of connection points: 2
#     Edge 30, Type (0, 0), BuildingBlock: TEMPAE_clean_linker_10, # of connection points: 2
#     Edge 31, Type (0, 0), BuildingBlock: TEMPAE_clean_linker_10, # of connection points: 2
#     Edge 32, Type (0, 0), BuildingBlock: TEMPAE_clean_linker_10, # of connection points: 2
#     Edge 33, Type (0, 0), BuildingBlock: TEMPAE_clean_linker_10, # of connection points: 2
#     Edge 34, Type (0, 0), BuildingBlock: TEMPAE_clean_linker_10, # of connection points: 2
#     Edge 35, Type (0, 0), BuildingBlock: TEMPAE_clean_linker_10, # of connection points: 2
#     Edge 36, Type (0, 0), BuildingBlock: TEMPAE_clean_linker_10, # of connection points: 2
#     Edge 37, Type (0, 0), BuildingBlock: TEMPAE_clean_linker_10, # of connection points: 2
#     Edge 38, Type (0, 0), BuildingBlock: TEMPAE_clean_linker_10, # of connection points: 2
#     Edge 39, Type (0, 0), BuildingBlock: TEMPAE_clean_linker_10, # of connection points: 2
#     Edge 40, Type (0, 0), BuildingBlock: TEMPAE_clean_linker_10, # of connection points: 2
#     Edge 41, Type (0, 0), BuildingBlock: TEMPAE_clean_linker_10, # of connection points: 2
# Relax obj value: 0.262
# Max RMSD: 0.208
# Mean RMSD: 0.208
data_MOF--net-fny--node1-XOMCOT_clean_sbu_1--edge1-TEMPAE_clean_linker_10
_symmetry_space_group_name_H-M    P1
_symmetry_Int_Tables_number       1
_symmetry_cell_setting            triclinic
loop_
_symmetry_equiv_pos_as_xyz
'x, y, z'
_cell_length_a     62.253618
_cell_length_b     62.382092
_cell_length_c     24.340324
_cell_angle_alpha  90.008195
_cell_angle_beta   90.153531
_cell_angle_gamma 119.95705
loop_
_atom_site_label
_atom_site_type_symbol
_atom_site_fract_x
_atom_site_fract_y
_atom_site_fract_z
_atom_type_partial_charge
C0 C 0.31288 0.49398 0.289 0.0
C1 C 0.29306 0.48343 0.25305 0.0
N2 N 0.30204 0.48757 0.20146 0.0
N3 N 0.3341 0.50494 0.25992 0.0
C4 C 0.32689 0.50053 0.20689 0.0
H5 H 0.31188 0.4943 0.33332 0.0
Co6 Co 0.36608 0.52395 0.28612 0.0
C7 C 0.39628 0.55388 0.18997 0.0
O8 O 0.41362 0.54925 0.20688 0.0
N9 N 0.39875 0.54361 0.31221 0.0
C10 C 0.43836 0.55945 0.33603 0.0
C11 C 0.41632 0.538 0.32721 0.0
C12 C 0.41058 0.56855 0.31343 0.0
N13 N 0.43475 0.57866 0.32668 0.0
O14 O 0.35578 0.5453 0.32473 0.0
H15 H 0.41389 0.51974 0.33108 0.0
H16 H 0.40152 0.57914 0.30471 0.0
O17 O 0.37579 0.54477 0.2169 0.0
C18 C 0.35481 0.5418 0.37697 0.0
O19 O 0.3626 0.52718 0.39625 0.0
N20 N 0.37392 0.5006 0.25739 0.0
C21 C 0.38999 0.46611 0.24485 0.0
C22 C 0.38849 0.47938 0.19932 0.0
C23 C 0.38016 0.49642 0.20635 0.0
C24 C 0.37179 0.48542 0.29968 0.0
C25 C 0.38047 0.46883 0.29507 0.0
H26 H 0.37925 0.50641 0.17107 0.0
H27 H 0.36546 0.48798 0.3392 0.0
H28 H 0.33957 0.50766 0.17261 0.0
H29 H 0.27361 0.47391 0.26391 0.0
H30 H 0.45558 0.56074 0.34928 0.0
H31 H 0.39403 0.47701 0.15872 0.0
H32 H 0.38092 0.45949 0.33205 0.0
C33 C 0.84967 0.31474 0.7553 0.0
C34 C 0.84177 0.29702 0.71466 0.0
N35 N 0.82606 0.29998 0.6817 0.0
N36 N 0.83934 0.32903 0.74705 0.0
C37 C 0.82468 0.31926 0.70248 0.0
H38 H 0.86302 0.31776 0.78719 0.0
Co39 Co 0.8473 0.35828 0.78313 0.0
C40 C 0.84911 0.39238 0.69437 0.0
O41 O 0.86966 0.40949 0.71759 0.0
N42 N 0.85487 0.38777 0.81916 0.0
C43 C 0.85213 0.42054 0.84422 0.0
C44 C 0.84031 0.39808 0.81796 0.0
C45 C 0.87498 0.40392 0.84832 0.0
N46 N 0.87415 0.42434 0.86322 0.0
O47 O 0.81391 0.34251 0.816 0.0
H48 H 0.82234 0.38995 0.79821 0.0
H49 H 0.88952 0.40045 0.86074 0.0
O50 O 0.83755 0.37063 0.71585 0.0
C51 C 0.81549 0.33202 0.86013 0.0
O52 O 0.83696 0.33375 0.87122 0.0
N53 N 0.88076 0.37149 0.75976 0.0
C54 C 0.9319 0.38934 0.7492 0.0
C55 C 0.91745 0.38843 0.70354 0.0
C56 C 0.89171 0.37883 0.70937 0.0
C57 C 0.89405 0.36983 0.80241 0.0
C58 C 0.91952 0.3793 0.79878 0.0
H59 H 0.88082 0.37728 0.67345 0.0
H60 H 0.88484 0.36189 0.84086 0.0
H61 H 0.81428 0.32695 0.6835 0.0
H62 H 0.84766 0.28353 0.70871 0.0
H63 H 0.84455 0.43264 0.84983 0.0
H64 H 0.92584 0.39478 0.66358 0.0
H65 H 0.92938 0.37924 0.8354 0.0
C66 C 0.53792 0.8332 0.28496 0.0
C67 C 0.54642 0.82033 0.25444 0.0
N68 N 0.52909 0.80696 0.21658 0.0
N69 N 0.51568 0.82861 0.26521 0.0
C70 C 0.51038 0.81144 0.22572 0.0
H71 H 0.54733 0.84471 0.32005 0.0
Co72 Co 0.49491 0.84058 0.29034 0.0
C73 C 0.47935 0.83247 0.17166 0.0
O74 O 0.50289 0.84571 0.15834 0.0
N75 N 0.4744 0.85189 0.31553 0.0
C76 C 0.44478 0.8615 0.32423 0.0
C77 C 0.45119 0.84561 0.29983 0.0
C78 C 0.4816 0.87132 0.34948 0.0
N79 N 0.46405 0.87779 0.35527 0.0
O80 O 0.47597 0.80964 0.33213 0.0
H81 H 0.4397 0.83068 0.27204 0.0
H82 H 0.49937 0.88026 0.37027 0.0
O83 O 0.47338 0.82761 0.22258 0.0
C84 C 0.48407 0.81426 0.38187 0.0
O85 O 0.50145 0.83699 0.39347 0.0
N86 N 0.51519 0.87255 0.25819 0.0
C87 C 0.54259 0.92433 0.24596 0.0
C88 C 0.51944 0.91028 0.22026 0.0
C89 C 0.50591 0.88454 0.22746 0.0
C90 C 0.53778 0.88608 0.28292 0.0
C91 C 0.55191 0.91173 0.27657 0.0
H92 H 0.48711 0.87473 0.21216 0.0
H93 H 0.54395 0.87759 0.31262 0.0
H94 H 0.49285 0.80172 0.20443 0.0
H95 H 0.5641 0.82112 0.25908 0.0
H96 H 0.42709 0.86071 0.32025 0.0
H97 H 0.51127 0.91919 0.19686 0.0
H98 H 0.56917 0.92177 0.29915 0.0
C99 C 0.7058 0.53586 0.76298 0.0
C100 C 0.72555 0.54484 0.72754 0.0
N101 N 0.72412 0.52566 0.69937 0.0
N102 N 0.69131 0.51116 0.75568 0.0
C103 C 0.70388 0.50547 0.71864 0.0
H104 H 0.70243 0.54713 0.79117 0.0
Co105 Co 0.66014 0.48877 0.78622 0.0
C106 C 0.65147 0.47269 0.66793 0.0
O107 O 0.66062 0.49601 0.65404 0.0
N108 N 0.62983 0.46684 0.81602 0.0
C109 C 0.59134 0.4364 0.82918 0.0
C110 C 0.61297 0.44359 0.80085 0.0
C111 C 0.61826 0.47329 0.85347 0.0
N112 N 0.59468 0.45529 0.86188 0.0
O113 O 0.67566 0.47186 0.82412 0.0
H114 H 0.61592 0.43268 0.77047 0.0
H115 H 0.6272 0.49095 0.8745 0.0
O116 O 0.65102 0.46713 0.71894 0.0
C117 C 0.68055 0.4802 0.87364 0.0
O118 O 0.67468 0.49699 0.8875 0.0
N119 N 0.64506 0.50688 0.75848 0.0
C120 C 0.61738 0.53146 0.75267 0.0
C121 C 0.61026 0.50963 0.72257 0.0
C122 C 0.62406 0.49744 0.7267 0.0
C123 C 0.65175 0.5277 0.7887 0.0
C124 C 0.6389 0.54066 0.78495 0.0
H125 H 0.61648 0.47938 0.70815 0.0
H126 H 0.66558 0.53303 0.82045 0.0
H127 H 0.69756 0.48699 0.70332 0.0
H128 H 0.73939 0.56408 0.72146 0.0
H129 H 0.57458 0.41857 0.82625 0.0
H130 H 0.59326 0.50107 0.69882 0.0
H131 H 0.64527 0.5572 0.80958 0.0
C132 C 0.18709 0.70316 0.25945 0.0
C133 C 0.20049 0.72295 0.22514 0.0
N134 N 0.21855 0.72018 0.20203 0.0
N135 N 0.19631 0.68762 0.25707 0.0
C136 C 0.21632 0.69938 0.22418 0.0
H137 H 0.17107 0.70019 0.28236 0.0
Co138 Co 0.18445 0.65575 0.28663 0.0
C139 C 0.19385 0.64835 0.16886 0.0
O140 O 0.18205 0.66004 0.15435 0.0
N141 N 0.17287 0.62467 0.31583 0.0
C142 C 0.15942 0.58471 0.32731 0.0
C143 C 0.17597 0.60574 0.29954 0.0
C144 C 0.1547 0.6149 0.35339 0.0
N145 N 0.14584 0.5905 0.36084 0.0
O146 O 0.21609 0.66841 0.3269 0.0
H147 H 0.18892 0.60685 0.26872 0.0
H148 H 0.14821 0.62571 0.37508 0.0
O149 O 0.19663 0.64556 0.22027 0.0
C150 C 0.21297 0.67426 0.37569 0.0
O151 O 0.19083 0.67051 0.38821 0.0
N152 N 0.15221 0.64368 0.25608 0.0
C153 C 0.10023 0.61935 0.2463 0.0
C154 C 0.11424 0.61168 0.21537 0.0
C155 C 0.14012 0.62377 0.22157 0.0
C156 C 0.13871 0.65099 0.28685 0.0
C157 C 0.11297 0.63955 0.28182 0.0
H158 H 0.1499 0.61564 0.2021 0.0
H159 H 0.1476 0.66411 0.31981 0.0
H160 H 0.22821 0.69197 0.21362 0.0
H161 H 0.19603 0.73715 0.21467 0.0
H162 H 0.15777 0.56667 0.32337 0.0
H163 H 0.10521 0.59578 0.18838 0.0
H164 H 0.10301 0.64539 0.30872 0.0
C165 C 0.49908 0.18074 0.76698 0.0
C166 C 0.49102 0.19217 0.73066 0.0
N167 N 0.51051 0.20815 0.70042 0.0
N168 N 0.52344 0.18896 0.75854 0.0
C169 C 0.53 0.20675 0.72012 0.0
H170 H 0.48744 0.16694 0.79642 0.0
Co171 Co 0.54452 0.17845 0.78919 0.0
C172 C 0.56101 0.18541 0.67128 0.0
O173 O 0.53756 0.17206 0.65694 0.0
N174 N 0.56512 0.16835 0.81941 0.0
C175 C 0.59451 0.15901 0.83601 0.0
C176 C 0.5884 0.17401 0.80632 0.0
C177 C 0.55752 0.15014 0.85669 0.0
N178 N 0.57487 0.14384 0.86728 0.0
O179 O 0.56274 0.2105 0.82764 0.0
H180 H 0.60013 0.18791 0.77689 0.0
H181 H 0.53961 0.14201 0.87653 0.0
O182 O 0.56661 0.19032 0.72243 0.0
C183 C 0.55461 0.20734 0.87719 0.0
O184 O 0.53723 0.185 0.89128 0.0
N185 N 0.52508 0.14575 0.76038 0.0
C186 C 0.49739 0.09396 0.74883 0.0
C187 C 0.51994 0.10794 0.72095 0.0
C188 C 0.53378 0.13367 0.72834 0.0
C189 C 0.50363 0.13223 0.78899 0.0
C190 C 0.48931 0.10659 0.78301 0.0
H191 H 0.55221 0.1434 0.71136 0.0
H192 H 0.49875 0.14092 0.82102 0.0
H193 H 0.54866 0.21798 0.70488 0.0
H194 H 0.47205 0.18789 0.72462 0.0
H195 H 0.61216 0.15958 0.83536 0.0
H196 H 0.52736 0.09901 0.69528 0.0
H197 H 0.47288 0.09662 0.80804 0.0
C198 C 0.53552 0.70518 0.79916 0.0
C199 C 0.54676 0.71833 0.84627 0.0
N200 N 0.52893 0.71672 0.8801 0.0
N201 N 0.51079 0.69552 0.80344 0.0
C202 C 0.50737 0.70298 0.85299 0.0
H203 H 0.54471 0.70273 0.76409 0.0
Co204 Co 0.48698 0.67614 0.75191 0.0
C205 C 0.44737 0.63693 0.82115 0.0
O206 O 0.44583 0.62102 0.78369 0.0
N207 N 0.46316 0.65806 0.6991 0.0
C208 C 0.42982 0.65008 0.6493 0.0
C209 C 0.43864 0.65058 0.70133 0.0
C210 C 0.46876 0.66261 0.64541 0.0
N211 N 0.44904 0.6583 0.61466 0.0
O212 O 0.47885 0.70224 0.73743 0.0
H213 H 0.42837 0.64895 0.73823 0.0
H214 H 0.48746 0.67174 0.62979 0.0
O215 O 0.46214 0.66016 0.81293 0.0
C216 C 0.4938 0.71605 0.69974 0.0
O217 O 0.51362 0.71418 0.69092 0.0
N218 N 0.49736 0.652 0.75849 0.0
C219 C 0.52042 0.62307 0.76055 0.0
C220 C 0.50981 0.62644 0.80825 0.0
C221 C 0.499 0.64156 0.80673 0.0
C222 C 0.50808 0.64917 0.71228 0.0
C223 C 0.51948 0.63473 0.71228 0.0
H224 H 0.49281 0.64555 0.84481 0.0
H225 H 0.50916 0.6592 0.67557 0.0
H226 H 0.48945 0.69887 0.86855 0.0
H227 H 0.56644 0.72812 0.85515 0.0
H228 H 0.41131 0.64613 0.63844 0.0
H229 H 0.51091 0.61841 0.84688 0.0
H230 H 0.52796 0.63313 0.67486 0.0
C231 C 0.83236 0.53755 0.28096 0.0
C232 C 0.82211 0.54672 0.3173 0.0
N233 N 0.80251 0.5275 0.34109 0.0
N234 N 0.81977 0.51254 0.28305 0.0
C235 C 0.80088 0.50711 0.31801 0.0
H236 H 0.84865 0.54886 0.25691 0.0
Co237 Co 0.82685 0.48907 0.2517 0.0
C238 C 0.82042 0.4747 0.37145 0.0
O239 O 0.8329 0.49827 0.38475 0.0
N240 N 0.83337 0.4658 0.22144 0.0
C241 C 0.83785 0.4328 0.21311 0.0
C242 C 0.82324 0.44161 0.2343 0.0
C243 C 0.85343 0.47103 0.19123 0.0
N244 N 0.85714 0.45163 0.18728 0.0
O245 O 0.79364 0.47258 0.21722 0.0
H246 H 0.80701 0.43133 0.25963 0.0
H247 H 0.86553 0.489 0.1735 0.0
O248 O 0.81593 0.4685 0.32053 0.0
C249 C 0.79638 0.484 0.17147 0.0
O250 O 0.81878 0.50203 0.15965 0.0
N251 N 0.86056 0.50687 0.27597 0.0
C252 C 0.9126 0.53014 0.27604 0.0
C253 C 0.89839 0.51023 0.31147 0.0
C254 C 0.87236 0.4985 0.31 0.0
C255 C 0.8743 0.52626 0.24167 0.0
C256 C 0.90013 0.53837 0.24173 0.0
H257 H 0.86202 0.48149 0.33255 0.0
H258 H 0.86515 0.53087 0.20993 0.0
H259 H 0.78752 0.48847 0.33044 0.0
H260 H 0.82939 0.56599 0.32794 0.0
H261 H 0.83486 0.41423 0.21745 0.0
H262 H 0.90721 0.50271 0.33731 0.0
H263 H 0.91019 0.55338 0.21307 0.0
C264 C 0.30943 0.82541 0.77899 0.0
C265 C 0.29046 0.81423 0.81652 0.0
N266 N 0.2916 0.79519 0.83923 0.0
N267 N 0.3228 0.81372 0.77895 0.0
C268 C 0.3105 0.79463 0.81395 0.0
H269 H 0.31364 0.84182 0.75611 0.0
Co270 Co 0.35332 0.82095 0.74711 0.0
C271 C 0.36225 0.81748 0.86652 0.0
O272 O 0.3521 0.83129 0.87509 0.0
N273 N 0.38304 0.82734 0.71659 0.0
C274 C 0.41995 0.83051 0.70617 0.0
C275 C 0.39658 0.81643 0.72802 0.0
C276 C 0.39814 0.84745 0.68687 0.0
N277 N 0.4209 0.8503 0.68165 0.0
O278 O 0.33669 0.78756 0.71409 0.0
H279 H 0.39028 0.79997 0.75273 0.0
H280 H 0.39279 0.86024 0.67058 0.0
O281 O 0.36333 0.81078 0.81705 0.0
C282 C 0.32805 0.79022 0.6681 0.0
O283 O 0.33272 0.81264 0.65553 0.0
N284 N 0.36911 0.85479 0.76991 0.0
C285 C 0.39721 0.9067 0.76993 0.0
C286 C 0.40406 0.89269 0.80309 0.0
C287 C 0.39017 0.86677 0.8014 0.0
C288 C 0.36241 0.86833 0.73738 0.0
C289 C 0.37589 0.89415 0.73734 0.0
H290 H 0.39772 0.85661 0.82169 0.0
H291 H 0.34789 0.85906 0.70721 0.0
H292 H 0.31663 0.78168 0.82448 0.0
H293 H 0.27824 0.82092 0.82958 0.0
H294 H 0.43518 0.82685 0.70916 0.0
H295 H 0.42097 0.90163 0.82717 0.0
H296 H 0.37023 0.90417 0.71011 0.0
C297 C 0.4924 0.29672 0.27542 0.0
C298 C 0.48462 0.27755 0.31244 0.0
N299 N 0.50479 0.27908 0.33656 0.0
N300 N 0.51742 0.3105 0.27701 0.0
C301 C 0.52429 0.29839 0.31246 0.0
H302 H 0.48023 0.30087 0.25193 0.0
Co303 Co 0.54026 0.34162 0.2479 0.0
C304 C 0.55077 0.34986 0.36917 0.0
O305 O 0.52671 0.33789 0.37766 0.0
N306 N 0.56342 0.37221 0.22068 0.0
C307 C 0.5977 0.40888 0.21394 0.0
C308 C 0.58787 0.38499 0.23274 0.0
C309 C 0.55894 0.3884 0.19375 0.0
N310 N 0.57921 0.41098 0.19066 0.0
O311 O 0.55929 0.32688 0.21751 0.0
H312 H 0.5977 0.37767 0.25558 0.0
H313 H 0.54106 0.38388 0.17703 0.0
O314 O 0.55883 0.35184 0.31979 0.0
C315 C 0.54905 0.31848 0.17045 0.0
O316 O 0.53113 0.32263 0.15567 0.0
N317 N 0.51978 0.35512 0.26732 0.0
C318 C 0.49013 0.37763 0.26439 0.0
C319 C 0.50916 0.38455 0.30384 0.0
C320 C 0.52434 0.37381 0.3032 0.0
C321 C 0.50156 0.3483 0.22884 0.0
C322 C 0.48682 0.35927 0.22632 0.0
H323 H 0.54045 0.38167 0.3295 0.0
H324 H 0.49961 0.3354 0.19693 0.0
H325 H 0.54337 0.30497 0.32415 0.0
H326 H 0.46563 0.26493 0.32424 0.0
H327 H 0.61677 0.4236 0.2177 0.0
H328 H 0.513 0.39865 0.33423 0.0
H329 H 0.47378 0.35397 0.19268 0.0
C330 C 0.20438 0.48239 0.76593 0.0
C331 C 0.21251 0.47176 0.80432 0.0
N332 N 0.22611 0.48903 0.84235 0.0
N333 N 0.21268 0.50615 0.78007 0.0
C334 C 0.22599 0.50967 0.82634 0.0
H335 H 0.19289 0.47332 0.73046 0.0
Co336 Co 0.20646 0.52894 0.74528 0.0
C337 C 0.20112 0.55837 0.83563 0.0
O338 O 0.18204 0.55638 0.80807 0.0
N339 N 0.2009 0.55268 0.71082 0.0
C340 C 0.20637 0.59003 0.69162 0.0
C341 C 0.2174 0.57724 0.71163 0.0
C342 C 0.18021 0.55111 0.68893 0.0
N343 N 0.1828 0.57344 0.67842 0.0
O344 O 0.241 0.5468 0.71888 0.0
H345 H 0.23596 0.58547 0.72836 0.0
H346 H 0.16327 0.53414 0.6809 0.0
O347 O 0.21351 0.54864 0.81597 0.0
C348 C 0.24075 0.536 0.67364 0.0
O349 O 0.21954 0.5171 0.6577 0.0
N350 N 0.17222 0.5085 0.76205 0.0
C351 C 0.1205 0.47745 0.7644 0.0
C352 C 0.13401 0.48851 0.81289 0.0
C353 C 0.15998 0.50351 0.81107 0.0
C354 C 0.15981 0.49539 0.71653 0.0
C355 C 0.13407 0.48059 0.71616 0.0
H356 H 0.17002 0.51108 0.84893 0.0
H357 H 0.16992 0.4979 0.67876 0.0
H358 H 0.23493 0.52693 0.8488 0.0
H359 H 0.20865 0.45281 0.8042 0.0
H360 H 0.21487 0.60991 0.68795 0.0
H361 H 0.12467 0.48554 0.85195 0.0
H362 H 0.12498 0.47251 0.67753 0.0
C363 C 0.72736 0.19122 0.26538 0.0
C364 C 0.74831 0.20165 0.29764 0.0
N365 N 0.74989 0.22154 0.3229 0.0
N366 N 0.71524 0.20402 0.27164 0.0
C367 C 0.73022 0.22307 0.30495 0.0
H368 H 0.72118 0.17465 0.24144 0.0
Co369 Co 0.68353 0.1973 0.24833 0.0
C370 C 0.68039 0.20293 0.37009 0.0
O371 O 0.69145 0.18987 0.37738 0.0
N372 N 0.65246 0.19126 0.22639 0.0
C373 C 0.61583 0.18939 0.22505 0.0
C374 C 0.64022 0.20307 0.24182 0.0
C375 C 0.63547 0.17097 0.19957 0.0
N376 N 0.61294 0.16891 0.19988 0.0
O377 O 0.69907 0.2304 0.21448 0.0
H378 H 0.64826 0.22005 0.26536 0.0
H379 H 0.63944 0.15769 0.18046 0.0
O380 O 0.67733 0.20845 0.32092 0.0
C381 C 0.70064 0.2271 0.16279 0.0
O382 O 0.69126 0.20419 0.14535 0.0
N383 N 0.66844 0.16363 0.27166 0.0
C384 C 0.64016 0.1117 0.27241 0.0
C385 C 0.63581 0.12583 0.31101 0.0
C386 C 0.64974 0.1518 0.30912 0.0
C387 C 0.67264 0.14997 0.23393 0.0
C388 C 0.65915 0.12418 0.23413 0.0
H389 H 0.64386 0.16205 0.33456 0.0
H390 H 0.68502 0.15917 0.2 0.0
H391 H 0.72554 0.23653 0.32013 0.0
H392 H 0.76058 0.19431 0.30472 0.0
H393 H 0.60136 0.19394 0.23134 0.0
H394 H 0.62068 0.11696 0.33995 0.0
H395 H 0.6629 0.11414 0.20286 0.0
C396 C 0.42408 0.57788 0.11212 0.0
C397 C 0.40102 0.56867 0.13837 0.0
C398 C 0.42932 0.59069 0.06209 0.0
C399 C 0.41123 0.59491 0.03701 0.0
C400 C 0.38813 0.58646 0.06396 0.0
C401 C 0.38323 0.57331 0.11414 0.0
C402 C 0.45408 0.59894 0.03505 0.0
C403 C 0.36838 0.59075 0.03917 0.0
C404 C 0.43925 0.64245 0.921 0.0
C405 C 0.43472 0.62709 0.87511 0.0
C406 C 0.42999 0.63235 0.97348 0.0
C407 C 0.4162 0.60627 0.9806 0.0
C408 C 0.41041 0.59084 0.93379 0.0
C409 C 0.41954 0.60139 0.88196 0.0
C410 C 0.43608 0.64956 0.02184 0.0
C411 C 0.39606 0.56299 0.9389 0.0
H412 H 0.43817 0.5747 0.13016 0.0
H413 H 0.3654 0.5664 0.13391 0.0
H414 H 0.45118 0.58948 0.99484 0.0
H415 H 0.4637 0.61912 0.02701 0.0
H416 H 0.46642 0.59485 0.06056 0.0
H417 H 0.35332 0.58681 0.06885 0.0
H418 H 0.37653 0.61014 0.02475 0.0
H419 H 0.36008 0.57852 1.00294 0.0
H420 H 0.45079 0.66231 0.91644 0.0
H421 H 0.4156 0.58921 0.847 0.0
H422 H 0.45041 0.64883 0.04768 0.0
H423 H 0.41945 0.64369 0.04784 0.0
H424 H 0.44321 0.66901 1.00868 0.0
H425 H 0.40746 0.5567 0.96135 0.0
H426 H 0.39097 0.55364 0.89823 0.0
H427 H 0.37887 0.55696 0.96289 0.0
C428 C 0.81604 0.38666 0.6247 0.0
C429 C 0.84085 0.39896 0.64242 0.0
C430 C 0.80857 0.39511 0.57831 0.0
C431 C 0.82634 0.41612 0.54858 0.0
C432 C 0.85152 0.42779 0.56512 0.0
C433 C 0.85835 0.4192 0.61159 0.0
C434 C 0.78154 0.38212 0.56235 0.0
C435 C 0.8713 0.44997 0.53467 0.0
C436 C 0.8184 0.43528 0.40389 0.0
C437 C 0.81623 0.4562 0.41508 0.0
C438 C 0.81993 0.42086 0.44688 0.0
C439 C 0.81898 0.42728 0.50246 0.0
C440 C 0.81476 0.44721 0.51355 0.0
C441 C 0.8137 0.46149 0.46996 0.0
C442 C 0.8245 0.39992 0.43276 0.0
C443 C 0.81316 0.45463 0.57176 0.0
H444 H 0.80236 0.37104 0.64814 0.0
H445 H 0.87764 0.42869 0.62422 0.0
H446 H 0.77388 0.39451 0.57042 0.0
H447 H 0.77934 0.37785 0.51776 0.0
H448 H 0.77047 0.36467 0.58564 0.0
H449 H 0.89023 0.45594 0.55046 0.0
H450 H 0.8707 0.4457 0.49025 0.0
H451 H 0.86784 0.46571 0.53865 0.0
H452 H 0.82061 0.43115 0.36173 0.0
H453 H 0.81186 0.47752 0.47904 0.0
H454 H 0.81276 0.38341 0.45825 0.0
H455 H 0.84413 0.40566 0.4417 0.0
H456 H 0.82077 0.39467 0.38869 0.0
H457 H 0.80082 0.43813 0.59668 0.0
H458 H 0.80616 0.46788 0.57349 0.0
H459 H 0.83185 0.4635 0.59095 0.0
C460 C 0.4363 0.8057 0.13149 0.0
C461 C 0.46033 0.82617 0.12773 0.0
C462 C 0.41865 0.80032 0.08921 0.0
C463 C 0.42489 0.81626 0.04303 0.0
C464 C 0.44914 0.83695 0.0394 0.0
C465 C 0.46653 0.84138 0.08113 0.0
C466 C 0.3933 0.77767 0.09404 0.0
C467 C 0.45655 0.85498 0.99221 0.0
C468 C 0.38938 0.80154 0.9065 0.0
C469 C 0.37561 0.8136 0.91327 0.0
C470 C 0.40426 0.80077 0.94962 0.0
C471 C 0.40586 0.81275 1.00037 0.0
C472 C 0.39114 0.82397 1.00802 0.0
C473 C 0.3761 0.824 0.96488 0.0
C474 C 0.41904 0.78796 0.9401 0.0
C475 C 0.39243 0.8374 0.06067 0.0
H476 H 0.43139 0.79375 0.16712 0.0
H477 H 0.48495 0.8574 0.07798 0.0
H478 H 0.37907 0.78328 0.0987 0.0
H479 H 0.38876 0.7664 0.05599 0.0
H480 H 0.392 0.76597 0.12969 0.0
H481 H 0.47616 0.87009 0.99523 0.0
H482 H 0.45398 0.84519 0.95261 0.0
H483 H 0.44447 0.86336 0.99128 0.0
H484 H 0.38908 0.7933 0.8671 0.0
H485 H 0.36544 0.8332 0.97116 0.0
H486 H 0.41732 0.77612 0.97577 0.0
H487 H 0.43895 0.80197 0.93579 0.0
H488 H 0.41297 0.77635 0.90239 0.0
H489 H 0.38933 0.82532 0.09667 0.0
H490 H 0.37857 0.84366 0.06168 0.0
H491 H 0.4112 0.85384 0.06516 0.0
C492 C 0.55735 0.36662 0.46528 0.0
C493 C 0.56761 0.36463 0.41543 0.0
C494 C 0.57218 0.38274 0.50735 0.0
C495 C 0.59821 0.39698 0.50058 0.0
C496 C 0.60891 0.39405 0.45169 0.0
C497 C 0.5935 0.37817 0.40948 0.0
C498 C 0.55973 0.38552 0.55788 0.0
C499 C 0.63659 0.40829 0.44321 0.0
C500 C 0.63068 0.4589 0.57622 0.0
C501 C 0.63908 0.45321 0.62473 0.0
C502 C 0.61782 0.44094 0.53549 0.0
C503 C 0.61365 0.41659 0.54222 0.0
C504 C 0.62277 0.41087 0.59032 0.0
C505 C 0.63501 0.42911 0.63138 0.0
C506 C 0.60791 0.44788 0.48599 0.0
C507 C 0.6194 0.3854 0.59859 0.0
H508 H 0.53743 0.35631 0.47077 0.0
H509 H 0.60172 0.37674 0.37145 0.0
H510 H 0.56804 0.3827 0.59558 0.0
H511 H 0.56269 0.40459 0.55965 0.0
H512 H 0.53947 0.37224 0.55827 0.0
H513 H 0.64229 0.40153 0.40694 0.0
H514 H 0.64281 0.42816 0.43702 0.0
H515 H 0.64631 0.40689 0.48016 0.0
H516 H 0.63349 0.47736 0.57067 0.0
H517 H 0.64153 0.42455 0.66848 0.0
H518 H 0.5874 0.43626 0.48448 0.0
H519 H 0.61523 0.44431 0.4477 0.0
H520 H 0.61289 0.46764 0.48656 0.0
H521 H 0.59943 0.37171 0.60346 0.0
H522 H 0.62951 0.3845 0.63538 0.0
H523 H 0.62603 0.37985 0.56192 0.0
C524 C 0.20713 0.61805 0.13611 0.0
C525 C 0.20159 0.63686 0.12484 0.0
C526 C 0.21106 0.6051 0.09317 0.0
C527 C 0.20967 0.61122 0.03756 0.0
C528 C 0.20568 0.63125 0.02632 0.0
C529 C 0.20155 0.64361 0.06978 0.0
C530 C 0.21532 0.58398 0.1073 0.0
C531 C 0.20434 0.63881 0.96803 0.0
C532 C 0.22825 0.58676 0.91198 0.0
C533 C 0.20493 0.5688 0.89219 0.0
C534 C 0.23043 0.59994 0.96107 0.0
C535 C 0.20881 0.59486 0.99109 0.0
C536 C 0.1855 0.57553 0.97286 0.0
C537 C 0.18388 0.56295 0.92381 0.0
C538 C 0.25566 0.62029 0.97891 0.0
C539 C 0.16192 0.56909 1.0033 0.0
H540 H 0.20736 0.6127 0.17832 0.0
H541 H 0.19757 0.65825 0.06028 0.0
H542 H 0.19843 0.56619 0.09722 0.0
H543 H 0.23075 0.58498 0.08259 0.0
H544 H 0.21962 0.58386 0.1516 0.0
H545 H 0.20364 0.65625 0.96619 0.0
H546 H 0.22062 0.64134 0.94425 0.0
H547 H 0.1875 0.62397 0.9476 0.0
H548 H 0.24457 0.59151 0.88757 0.0
H549 H 0.16579 0.54895 0.90897 0.0
H550 H 0.2582 0.61939 0.02381 0.0
H551 H 0.25727 0.6385 0.97016 0.0
H552 H 0.2708 0.61934 0.95704 0.0
H553 H 0.16397 0.56635 0.04762 0.0
H554 H 0.14567 0.55207 0.98693 0.0
H555 H 0.15807 0.5846 0.99977 0.0
C556 C 0.66451 0.19333 0.46682 0.0
C557 C 0.66684 0.20602 0.41744 0.0
C558 C 0.64904 0.19275 0.50952 0.0
C559 C 0.63584 0.20568 0.50382 0.0
C560 C 0.63924 0.21977 0.45548 0.0
C561 C 0.65442 0.21953 0.41265 0.0
C562 C 0.64567 0.17698 0.55941 0.0
C563 C 0.6261 0.23439 0.44813 0.0
C564 C 0.57405 0.17823 0.57918 0.0
C565 C 0.58038 0.19196 0.62825 0.0
C566 C 0.59179 0.1828 0.53842 0.0
C567 C 0.61658 0.20211 0.54568 0.0
C568 C 0.62299 0.21663 0.59434 0.0
C569 C 0.60493 0.21115 0.63542 0.0
C570 C 0.58407 0.16631 0.48824 0.0
C571 C 0.64899 0.23784 0.60316 0.0
H572 H 0.67391 0.18276 0.47135 0.0
H573 H 0.65612 0.2295 0.37496 0.0
H574 H 0.64897 0.18792 0.59756 0.0
H575 H 0.62628 0.16139 0.56079 0.0
H576 H 0.65834 0.16925 0.55922 0.0
H577 H 0.63332 0.2471 0.41238 0.0
H578 H 0.606 0.22154 0.44171 0.0
H579 H 0.62813 0.24538 0.48564 0.0
H580 H 0.55522 0.16324 0.57317 0.0
H581 H 0.60998 0.22197 0.67294 0.0
H582 H 0.59498 0.15668 0.48594 0.0
H583 H 0.58801 0.17756 0.45044 0.0
H584 H 0.56405 0.15216 0.48858 0.0
H585 H 0.66201 0.23067 0.60749 0.0
H586 H 0.65049 0.24879 0.64044 0.0
H587 H 0.65502 0.2503 0.56697 0.0
C588 C 0.55996 0.43484 0.15902 0.0
C589 C 0.58067 0.43156 0.1614 0.0
C590 C 0.55713 0.44788 0.11545 0.0
C591 C 0.57504 0.45683 0.07331 0.0
C592 C 0.59821 0.45804 0.08222 0.0
C593 C 0.60071 0.44526 0.12662 0.0
C594 C 0.53353 0.44895 0.11121 0.0
C595 C 0.61881 0.46899 0.04028 0.0
C596 C 0.56397 0.43255 0.93315 0.0
C597 C 0.57915 0.45482 0.90594 0.0
C598 C 0.5577 0.4327 0.98812 0.0
C599 C 0.56705 0.45575 1.01558 0.0
C600 C 0.57683 0.4777 0.98449 0.0
C601 C 0.58306 0.47706 0.92949 0.0
C602 C 0.54505 0.40838 0.01861 0.0
C603 C 0.58396 0.50226 1.01067 0.0
H604 H 0.54497 0.42528 0.18812 0.0
H605 H 0.61704 0.44336 0.12974 0.0
H606 H 0.53456 0.46198 0.07887 0.0
H607 H 0.51774 0.43024 0.10206 0.0
H608 H 0.52953 0.45473 0.15127 0.0
H609 H 0.63632 0.47076 0.05648 0.0
H610 H 0.6133 0.45699 1.00325 0.0
H611 H 0.62254 0.48758 0.02751 0.0
H612 H 0.5598 0.41517 0.91436 0.0
H613 H 0.59326 0.49426 0.90703 0.0
H614 H 0.53018 0.40735 0.04529 0.0
H615 H 0.55871 0.40675 0.04509 0.0
H616 H 0.53669 0.39228 0.99017 0.0
H617 H 0.57478 0.50001 0.05099 0.0
H618 H 0.57892 0.51324 0.98302 0.0
H619 H 0.60434 0.513 1.01669 0.0
C620 C 0.13355 0.55783 0.42973 0.0
C621 C 0.12994 0.57605 0.40509 0.0
C622 C 0.12857 0.55261 0.48555 0.0
C623 C 0.12013 0.56627 0.51629 0.0
C624 C 0.11005 0.57903 0.48832 0.0
C625 C 0.11522 0.58398 0.43229 0.0
C626 C 0.13697 0.53633 0.51302 0.0
C627 C 0.09757 0.59083 0.51872 0.0
C628 C 0.13934 0.56033 0.65647 0.0
C629 C 0.16471 0.57768 0.65161 0.0
C630 C 0.12246 0.55898 0.61658 0.0
C631 C 0.13151 0.57509 0.57109 0.0
C632 C 0.156 0.59574 0.5727 0.0
C633 C 0.17239 0.59668 0.61318 0.0
C634 C 0.09585 0.53849 0.62018 0.0
C635 C 0.16629 0.6147 0.52716 0.0
H636 H 0.14347 0.5503 0.40813 0.0
H637 H 0.11039 0.59645 0.41192 0.0
H638 H 0.15467 0.548 0.53524 0.0
H639 H 0.123 0.52394 0.54325 0.0
H640 H 0.13998 0.52474 0.48281 0.0
H641 H 0.08188 0.58942 0.49404 0.0
H642 H 0.09061 0.58207 0.55939 0.0
H643 H 0.11093 0.61079 0.52503 0.0
H644 H 0.13303 0.54649 0.68861 0.0
H645 H 0.19181 0.61064 0.6106 0.0
H646 H 0.09481 0.52035 0.61432 0.0
H647 H 0.08379 0.54045 0.58931 0.0
H648 H 0.08855 0.53829 0.66188 0.0
H649 H 0.16895 0.60621 0.48962 0.0
H650 H 0.18449 0.63089 0.53845 0.0
H651 H 0.15336 0.62148 0.51717 0.0
C652 C 0.58801 0.12608 0.16808 0.0
C653 C 0.59172 0.15017 0.17135 0.0
C654 C 0.5754 0.11092 0.12317 0.0
C655 C 0.56741 0.12075 0.08078 0.0
C656 C 0.56611 0.14252 0.09076 0.0
C657 C 0.57846 0.15712 0.13645 0.0
C658 C 0.57423 0.08631 0.11728 0.0
C659 C 0.55587 0.15282 0.04854 0.0
C660 C 0.59567 0.13611 0.94365 0.0
C661 C 0.57418 0.12883 0.91268 0.0
C662 C 0.594 0.12952 0.99894 0.0
C663 C 0.57017 0.11527 0.02292 0.0
C664 C 0.54909 0.10331 0.98865 0.0
C665 C 0.5513 0.11042 0.93343 0.0
C666 C 0.61748 0.14145 0.03306 0.0
C667 C 0.52376 0.08566 1.01116 0.0
H668 H 0.59728 0.12021 0.19713 0.0
H669 H 0.58067 0.17543 0.14027 0.0
H670 H 0.55978 0.07414 0.0873 0.0
H671 H 0.59241 0.08923 0.10309 0.0
H672 H 0.57034 0.0768 0.15767 0.0
H673 H 0.55325 0.16783 0.06584 0.0
H674 H 0.56887 0.16049 1.01339 0.0
H675 H 0.53778 0.13808 0.03268 0.0
H676 H 0.61352 0.14958 0.92718 0.0
H677 H 0.53475 0.1035 0.90827 0.0
H678 H 0.61814 0.12773 0.0608 0.0
H679 H 0.61802 0.15642 0.05873 0.0
H680 H 0.63439 0.14966 1.00714 0.0
H681 H 0.52466 0.07903 0.05293 0.0
H682 H 0.514 0.06948 0.98328 0.0
H683 H 0.5125 0.09493 1.01269 0.0
C684 C 0.47041 0.68031 0.53044 0.0
C685 C 0.44904 0.66195 0.55664 0.0
C686 C 0.47386 0.67861 0.47414 0.0
C687 C 0.45586 0.65776 0.44501 0.0
C688 C 0.43228 0.64223 0.46916 0.0
C689 C 0.42921 0.64463 0.52516 0.0
C690 C 0.4979 0.69729 0.44775 0.0
C691 C 0.41166 0.62049 0.43888 0.0
C692 C 0.4473 0.62268 0.3184 0.0
C693 C 0.45084 0.60405 0.34151 0.0
C694 C 0.45421 0.64452 0.3477 0.0
C695 C 0.46383 0.64683 0.40131 0.0
C696 C 0.47254 0.63076 0.41854 0.0
C697 C 0.46606 0.60951 0.38775 0.0
C698 C 0.44766 0.66297 0.32478 0.0
C699 C 0.48421 0.63301 0.47439 0.0
H700 H 0.48517 0.69481 0.55455 0.0
H701 H 0.41239 0.63101 0.54538 0.0
H702 H 0.51155 0.69085 0.4501 0.0
H703 H 0.49503 0.69981 0.40372 0.0
H704 H 0.50607 0.71542 0.4692 0.0
H705 H 0.39395 0.61198 0.46208 0.0
H706 H 0.40838 0.62635 0.39827 0.0
H707 H 0.41685 0.60606 0.43214 0.0
H708 H 0.43685 0.61911 0.28052 0.0
H709 H 0.46975 0.5956 0.40454 0.0
H710 H 0.45628 0.6805 0.34861 0.0
H711 H 0.42723 0.6549 0.32489 0.0
H712 H 0.45379 0.66711 0.28135 0.0
H713 H 0.49941 0.65215 0.48175 0.0
H714 H 0.49192 0.62042 0.47875 0.0
H715 H 0.47009 0.62831 0.50692 0.0
C716 C 0.89929 0.47301 0.14913 0.0
C717 C 0.87645 0.45119 0.15634 0.0
C718 C 0.9142 0.4756 0.10381 0.0
C719 C 0.90545 0.45618 0.06508 0.0
C720 C 0.88553 0.43245 0.07953 0.0
C721 C 0.87109 0.43031 0.12524 0.0
C722 C 0.9373 0.50013 0.09414 0.0
C723 C 0.87667 0.4103 0.04203 0.0
C724 C 0.883 0.4581 0.92812 0.0
C725 C 0.8905 0.44293 0.90196 0.0
C726 C 0.89225 0.46791 0.98008 0.0
C727 C 0.90918 0.46209 1.00577 0.0
C728 C 0.92156 0.45288 0.97355 0.0
C729 C 0.91198 0.44321 0.92144 0.0
C730 C 0.88054 0.48053 1.01069 0.0
C731 C 0.94245 0.44998 0.99654 0.0
H732 H 0.90434 0.48877 0.17577 0.0
H733 H 0.85397 0.41314 0.13225 0.0
H734 H 0.94829 0.49956 0.05892 0.0
H735 H 0.93226 0.51462 0.08665 0.0
H736 H 0.94907 0.50568 0.13166 0.0
H737 H 0.86325 0.39283 0.06281 0.0
H738 H 0.86736 0.41267 1.0055 0.0
H739 H 0.8925 0.40838 0.02772 0.0
H740 H 0.86798 0.46008 0.91151 0.0
H741 H 0.91993 0.43391 0.89895 0.0
H742 H 0.8949 0.49712 0.03258 0.0
H743 H 0.86727 0.46766 0.04155 0.0
H744 H 0.87029 0.48637 0.9827 0.0
H745 H 0.95039 0.46107 0.03451 0.0
H746 H 0.95734 0.45575 0.9654 0.0
H747 H 0.93565 0.43022 1.0059 0.0
C748 C 0.48624 0.91228 0.42045 0.0
C749 C 0.46386 0.89388 0.39731 0.0
C750 C 0.48691 0.91987 0.47496 0.0
C751 C 0.46492 0.9081 0.50611 0.0
C752 C 0.44182 0.89461 0.4785 0.0
C753 C 0.4416 0.88763 0.42391 0.0
C754 C 0.51153 0.93746 0.50093 0.0
C755 C 0.41743 0.88355 0.50873 0.0
C756 C 0.45465 0.86356 0.61586 0.0
C757 C 0.44085 0.86954 0.65121 0.0
C758 C 0.46732 0.87905 0.57176 0.0
C759 C 0.46591 0.9009 0.56364 0.0
C760 C 0.45672 0.90945 0.60622 0.0
C761 C 0.44372 0.89333 0.64938 0.0
C762 C 0.47853 0.86977 0.52959 0.0
C763 C 0.45781 0.9341 0.60318 0.0
H764 H 0.50347 0.91871 0.39833 0.0
H765 H 0.42409 0.8745 0.4053 0.0
H766 H 0.50931 0.94434 0.54139 0.0
H767 H 0.52255 0.92809 0.50652 0.0
H768 H 0.52227 0.95347 0.47326 0.0
H769 H 0.40133 0.87574 0.48015 0.0
H770 H 0.41551 0.86846 0.53608 0.0
H771 H 0.41662 0.89777 0.53446 0.0
H772 H 0.45305 0.84547 0.61859 0.0
H773 H 0.43411 0.89851 0.67895 0.0
H774 H 0.49701 0.88479 0.51672 0.0
H775 H 0.46639 0.86299 0.49273 0.0
H776 H 0.48074 0.85436 0.54578 0.0
H777 H 0.47077 0.94625 0.57098 0.0
H778 H 0.46374 0.94366 0.64353 0.0
H779 H 0.43905 0.93124 0.59463 0.0
C780 C 0.25727 0.50663 0.91654 0.0
C781 C 0.23714 0.48604 0.89187 0.0
C782 C 0.26699 0.50458 0.96697 0.0
C783 C 0.25655 0.48127 0.9932 0.0
C784 C 0.2368 0.46022 0.96776 0.0
C785 C 0.22726 0.46287 0.91745 0.0
C786 C 0.28815 0.5275 0.99269 0.0
C787 C 0.22544 0.43502 0.99424 0.0
C788 C 0.29785 0.47754 0.10287 0.0
C789 C 0.28852 0.48248 0.15061 0.0
C790 C 0.2868 0.47576 0.05153 0.0
C791 C 0.2661 0.4793 0.04787 0.0
C792 C 0.2559 0.48318 0.09629 0.0
C793 C 0.26717 0.48457 0.1472 0.0
C794 C 0.29799 0.47123 1.00098 0.0
C795 C 0.23398 0.48729 0.09399 0.0
H796 H 0.26542 0.52448 0.89656 0.0
H797 H 0.2116 0.4469 0.89899 0.0
H798 H 0.28244 0.53095 0.03338 0.0
H799 H 0.30425 0.52478 0.99961 0.0
H800 H 0.29423 0.54421 0.9668 0.0
H801 H 0.21125 0.42026 0.96756 0.0
H802 H 0.24004 0.43034 1.00396 0.0
H803 H 0.21658 0.43519 0.03361 0.0
H804 H 0.31417 0.47559 0.10564 0.0
H805 H 0.26008 0.48862 0.18397 0.0
H806 H 0.30689 0.48823 0.97552 0.0
H807 H 0.28336 0.45632 0.97548 0.0
H808 H 0.31218 0.46604 1.01147 0.0
H809 H 0.2394 0.50498 0.07262 0.0
H810 H 0.22706 0.48804 0.13556 0.0
H811 H 0.2186 0.47232 0.07013 0.0
C812 C 0.83087 0.28474 0.59212 0.0
C813 C 0.81587 0.28789 0.63025 0.0
C814 C 0.82166 0.27458 0.54007 0.0
C815 C 0.79668 0.2668 0.52666 0.0
C816 C 0.78132 0.26951 0.56561 0.0
C817 C 0.79126 0.28041 0.61671 0.0
C818 C 0.83875 0.27254 0.49915 0.0
C819 C 0.75439 0.26082 0.5534 0.0
C820 C 0.77454 0.25892 0.3786 0.0
C821 C 0.76406 0.23338 0.37137 0.0
C822 C 0.78611 0.27027 0.42835 0.0
C823 C 0.78644 0.25549 0.47222 0.0
C824 C 0.77606 0.22968 0.46478 0.0
C825 C 0.76524 0.21899 0.41417 0.0
C826 C 0.79751 0.29793 0.43436 0.0
C827 C 0.77541 0.21321 0.51098 0.0
H828 H 0.85003 0.29097 0.60252 0.0
H829 H 0.77978 0.2829 0.6465 0.0
H830 H 0.83139 0.25292 0.48738 0.0
H831 H 0.83967 0.2828 0.46115 0.0
H832 H 0.85783 0.27998 0.51561 0.0
H833 H 0.74478 0.2635 0.58888 0.0
H834 H 0.75291 0.27105 0.51768 0.0
H835 H 0.74456 0.2409 0.54228 0.0
H836 H 0.77341 0.2699 0.34539 0.0
H837 H 0.7566 0.19914 0.40883 0.0
H838 H 0.81688 0.3062 0.44947 0.0
H839 H 0.78704 0.30212 0.46521 0.0
H840 H 0.79752 0.30695 0.395 0.0
H841 H 0.79441 0.21968 0.52675 0.0
H842 H 0.76719 0.19358 0.49799 0.0
H843 H 0.76436 0.21418 0.54559 0.0
C844 C 0.51957 0.7926 0.12097 0.0
C845 C 0.53088 0.79311 0.17123 0.0
C846 C 0.52105 0.77952 0.07587 0.0
C847 C 0.53413 0.76649 0.08103 0.0
C848 C 0.54572 0.76695 0.13156 0.0
C849 C 0.54408 0.78043 0.17611 0.0
C850 C 0.50856 0.77965 0.02264 0.0
C851 C 0.55945 0.7529 0.13869 0.0
C852 C 0.51399 0.71604 0.97394 0.0
C853 C 0.53199 0.72799 0.93325 0.0
C854 C 0.51543 0.72772 0.02413 0.0
C855 C 0.5351 0.75213 0.03333 0.0
C856 C 0.55399 0.76381 0.99346 0.0
C857 C 0.55228 0.7515 0.94395 0.0
C858 C 0.49507 0.71439 0.06574 0.0
C859 C 0.57519 0.78986 1.00162 0.0
H860 H 0.50982 0.80283 0.11659 0.0
H861 H 0.55274 0.78073 0.21498 0.0
H862 H 0.5223 0.78674 0.98882 0.0
H863 H 0.49416 0.7605 1.01167 0.0
H864 H 0.49965 0.79125 0.02512 0.0
H865 H 0.56787 0.75555 0.18021 0.0
H866 H 0.54654 0.73285 0.13203 0.0
H867 H 0.57432 0.75894 0.1075 0.0
H868 H 0.49852 0.69766 0.96611 0.0
H869 H 0.56616 0.76077 0.91245 0.0
H870 H 0.48126 0.72059 0.06136 0.0
H871 H 0.5024 0.71853 0.10835 0.0
H872 H 0.48538 0.69405 0.05948 0.0
H873 H 0.56807 0.80298 0.99974 0.0
H874 H 0.58975 0.79521 0.9698 0.0
H875 H 0.58375 0.79189 0.04271 0.0
C876 C 0.74421 0.50925 0.63903 0.0
C877 C 0.73708 0.52686 0.64976 0.0
C878 C 0.75523 0.50922 0.58878 0.0
C879 C 0.75844 0.52678 0.548 0.0
C880 C 0.75115 0.54453 0.55872 0.0
C881 C 0.74082 0.54452 0.60975 0.0
C882 C 0.76337 0.49042 0.57927 0.0
C883 C 0.75382 0.56322 0.51588 0.0
C884 C 0.80586 0.54287 0.43524 0.0
C885 C 0.7911 0.52811 0.39173 0.0
C886 C 0.79551 0.54225 0.48663 0.0
C887 C 0.76969 0.52688 0.49424 0.0
C888 C 0.75462 0.5121 0.45021 0.0
C889 C 0.76562 0.51265 0.39954 0.0
C890 C 0.81227 0.55779 0.53294 0.0
C891 C 0.72693 0.49585 0.45656 0.0
H892 H 0.74118 0.49559 0.67011 0.0
H893 H 0.73477 0.55777 0.61775 0.0
H894 H 0.75294 0.47825 0.54423 0.0
H895 H 0.78332 0.49993 0.5683 0.0
H896 H 0.76044 0.47868 0.61596 0.0
H897 H 0.74676 0.57544 0.53042 0.0
H898 H 0.77359 0.57493 0.5044 0.0
H899 H 0.74353 0.55352 0.4781 0.0
H900 H 0.82568 0.55433 0.42945 0.0
H901 H 0.75438 0.50114 0.3658 0.0
H902 H 0.81035 0.54581 0.56846 0.0
H903 H 0.80675 0.57125 0.5471 0.0
H904 H 0.83208 0.56815 0.52062 0.0
H905 H 0.7228 0.48204 0.48947 0.0
H906 H 0.71782 0.48588 0.418 0.0
H907 H 0.71863 0.50723 0.46909 0.0
C908 C 0.23984 0.7571 0.14316 0.0
C909 C 0.23169 0.73205 0.15254 0.0
C910 C 0.25022 0.7681 0.09249 0.0
C911 C 0.25194 0.7535 0.05004 0.0
C912 C 0.24415 0.72831 0.05966 0.0
C913 C 0.23429 0.71796 0.11089 0.0
C914 C 0.25911 0.79524 0.08417 0.0
C915 C 0.24531 0.71198 1.01525 0.0
C916 C 0.25612 0.77494 0.90235 0.0
C917 C 0.2812 0.78394 0.89118 0.0
C918 C 0.24621 0.76481 0.95397 0.0
C919 C 0.26205 0.76451 0.99557 0.0
C920 C 0.2875 0.77401 0.98463 0.0
C921 C 0.29666 0.78327 0.93234 0.0
C922 C 0.21883 0.7542 0.96386 0.0
C923 C 0.30509 0.77444 0.02812 0.0
H924 H 0.23789 0.76798 0.17542 0.0
H925 H 0.22764 0.6985 0.11747 0.0
H926 H 0.27879 0.80501 0.07095 0.0
H927 H 0.24818 0.79757 0.05104 0.0
H928 H 0.25746 0.80423 0.12208 0.0
H929 H 0.24152 0.69377 0.03143 0.0
H930 H 0.23137 0.70875 0.98301 0.0
H931 H 0.26376 0.72104 0.99532 0.0
H932 H 0.24429 0.7756 0.87042 0.0
H933 H 0.31614 0.79057 0.92405 0.0
H934 H 0.21591 0.76394 0.99865 0.0
H935 H 0.21028 0.7344 0.97539 0.0
H936 H 0.20905 0.75572 0.92712 0.0
H937 H 0.30426 0.78437 0.06515 0.0
H938 H 0.32459 0.78355 1.01357 0.0
H939 H 0.29947 0.75527 0.0408 0.0
C940 C 0.49326 0.22809 0.64146 0.0
C941 C 0.50962 0.21906 0.64907 0.0
C942 C 0.4915 0.23759 0.59038 0.0
C943 C 0.5061 0.23753 0.54587 0.0
C944 C 0.52245 0.2282 0.55329 0.0
C945 C 0.52414 0.21928 0.60487 0.0
C946 C 0.47425 0.2479 0.58414 0.0
C947 C 0.53811 0.22753 0.50671 0.0
C948 C 0.48812 0.24345 0.39966 0.0
C949 C 0.50537 0.26818 0.38819 0.0
C950 C 0.48801 0.23313 0.45105 0.0
C951 C 0.50519 0.24817 0.49202 0.0
C952 C 0.52234 0.27326 0.48083 0.0
C953 C 0.52238 0.28285 0.42891 0.0
C954 C 0.46977 0.20615 0.46133 0.0
C955 C 0.54066 0.29004 0.52367 0.0
H956 H 0.48205 0.22788 0.67564 0.0
H957 H 0.53643 0.21184 0.61018 0.0
H958 H 0.48497 0.26766 0.57198 0.0
H959 H 0.46057 0.23792 0.551 0.0
H960 H 0.46408 0.24644 0.62266 0.0
H961 H 0.54909 0.21867 0.5188 0.0
H962 H 0.52612 0.21723 0.47128 0.0
H963 H 0.55109 0.24661 0.49252 0.0
H964 H 0.47495 0.23219 0.36818 0.0
H965 H 0.53543 0.30211 0.42069 0.0
H966 H 0.45806 0.2042 0.49736 0.0
H967 H 0.47991 0.1962 0.47112 0.0
H968 H 0.45751 0.19708 0.42536 0.0
H969 H 0.53077 0.28975 0.56176 0.0
H970 H 0.55173 0.30949 0.50933 0.0
H971 H 0.55358 0.28329 0.53454 0.0
C972 C 0.71059 0.46568 0.90409 0.0
C973 C 0.69291 0.47264 0.91659 0.0
C974 C 0.72522 0.46334 0.94609 0.0
C975 C 0.72214 0.46802 1.00202 0.0
C976 C 0.70314 0.47339 1.01478 0.0
C977 C 0.68894 0.47562 0.97233 0.0
C978 C 0.74498 0.45729 0.93021 0.0
C979 C 0.69888 0.47858 0.07314 0.0
C980 C 0.7547 0.45563 0.12397 0.0
C981 C 0.77591 0.47898 0.13137 0.0
C982 C 0.73726 0.45146 0.08145 0.0
C983 C 0.74087 0.47112 0.04586 0.0
C984 C 0.76205 0.49472 0.05414 0.0
C985 C 0.77913 0.49825 0.09608 0.0
C986 C 0.71515 0.42594 0.07409 0.0
C987 C 0.76673 0.51652 0.01869 0.0
H988 H 0.71397 0.46339 0.86141 0.0
H989 H 0.67516 0.48072 0.9829 0.0
H990 H 0.76348 0.47414 0.93413 0.0
H991 H 0.74468 0.44312 0.95824 0.0
H992 H 0.74265 0.45044 0.88725 0.0
H993 H 0.68163 0.47958 0.0773 0.0
H994 H 0.69778 0.46409 0.10126 0.0
H995 H 0.71475 0.4965 0.0868 0.0
H996 H 0.75207 0.4405 0.15028 0.0
H997 H 0.79528 0.51645 0.10123 0.0
H998 H 0.71523 0.41907 0.03209 0.0
H999 H 0.69777 0.42663 0.07828 0.0
H1000 H 0.71495 0.41255 0.10444 0.0
H1001 H 0.76775 0.51225 0.97485 0.0
H1002 H 0.7842 0.53361 0.02985 0.0
H1003 H 0.75114 0.52023 0.02276 0.0
C1004 C 0.258 0.7018 0.40617 0.0
C1005 C 0.23291 0.68594 0.41879 0.0
C1006 C 0.27536 0.71623 0.44769 0.0
C1007 C 0.26755 0.71478 0.50323 0.0
C1008 C 0.24262 0.69745 0.51632 0.0
C1009 C 0.22579 0.68347 0.47432 0.0
C1010 C 0.30173 0.73417 0.4315 0.0
C1011 C 0.23308 0.69494 0.5743 0.0
C1012 C 0.31279 0.74743 0.62464 0.0
C1013 C 0.31225 0.76964 0.62866 0.0
C1014 C 0.29891 0.72959 0.5834 0.0
C1015 C 0.28388 0.73382 0.54567 0.0
C1016 C 0.28315 0.75607 0.5504 0.0
C1017 C 0.29725 0.7735 0.59118 0.0
C1018 C 0.30047 0.70628 0.57984 0.0
C1019 C 0.26719 0.76151 0.51249 0.0
H1020 H 0.2638 0.70401 0.36362 0.0
H1021 H 0.20654 0.67118 0.48492 0.0
H1022 H 0.30483 0.75329 0.43265 0.0
H1023 H 0.3149 0.73331 0.46101 0.0
H1024 H 0.30599 0.73044 0.38947 0.0
H1025 H 0.21434 0.67847 0.57924 0.0
H1026 H 0.24589 0.69355 0.60391 0.0
H1027 H 0.23203 0.71166 0.58525 0.0
H1028 H 0.32442 0.74425 0.65277 0.0
H1029 H 0.29638 0.7904 0.5937 0.0
H1030 H 0.30704 0.70478 0.53845 0.0
H1031 H 0.28181 0.68985 0.58537 0.0
H1032 H 0.3132 0.70578 0.61122 0.0
H1033 H 0.2724 0.76112 0.46911 0.0
H1034 H 0.26893 0.77983 0.52083 0.0
H1035 H 0.24744 0.74706 0.51712 0.0
C1036 C 0.57859 0.30639 0.12486 0.0
C1037 C 0.55471 0.30294 0.13255 0.0
C1038 C 0.58329 0.29327 0.08314 0.0
C1039 C 0.56364 0.27612 0.04868 0.0
C1040 C 0.5395 0.27228 0.05758 0.0
C1041 C 0.53544 0.28567 0.09875 0.0
C1042 C 0.60932 0.29808 0.0752 0.0
C1043 C 0.51773 0.25397 0.02333 0.0
C1044 C 0.56878 0.25167 0.90693 0.0
C1045 C 0.56285 0.22739 0.91972 0.0
C1046 C 0.57106 0.26853 0.94885 0.0
C1047 C 0.56743 0.26105 1.00496 0.0
C1048 C 0.56337 0.23717 1.01794 0.0
C1049 C 0.56107 0.22078 0.97551 0.0
C1050 C 0.57567 0.29381 0.93276 0.0
C1051 C 0.5594 0.22806 0.07653 0.0
H1052 H 0.59369 0.31987 0.15006 0.0
H1053 H 0.51685 0.28264 0.10428 0.0
H1054 H 0.60969 0.28053 0.07882 0.0
H1055 H 0.61578 0.30536 0.03324 0.0
H1056 H 0.6225 0.31155 0.10558 0.0
H1057 H 0.50013 0.25319 0.03512 0.0
H1058 H 0.52125 0.25898 0.97923 0.0
H1059 H 0.5153 0.23519 0.02792 0.0
H1060 H 0.57008 0.25701 0.86416 0.0
H1061 H 0.5567 0.20215 0.98615 0.0
H1062 H 0.58976 0.3082 0.96019 0.0
H1063 H 0.55827 0.29446 0.93734 0.0
H1064 H 0.58201 0.29839 0.88952 0.0
H1065 H 0.57309 0.24248 0.10449 0.0
H1066 H 0.56083 0.21109 0.08095 0.0
H1067 H 0.54066 0.22374 0.09011 0.0
C1068 C 0.35222 0.55648 0.47097 0.0
C1069 C 0.34298 0.55102 0.41691 0.0
C1070 C 0.3385 0.55887 0.5142 0.0
C1071 C 0.31453 0.55535 0.5039 0.0
C1072 C 0.30587 0.55168 0.44858 0.0
C1073 C 0.32018 0.54962 0.40579 0.0
C1074 C 0.34896 0.56316 0.57174 0.0
C1075 C 0.28062 0.54806 0.4351 0.0
C1076 C 0.2652 0.52331 0.61507 0.0
C1077 C 0.26287 0.54268 0.63824 0.0
C1078 C 0.28213 0.52738 0.5726 0.0
C1079 C 0.29726 0.55154 0.55137 0.0
C1080 C 0.29564 0.57144 0.57575 0.0
C1081 C 0.27852 0.56681 0.61894 0.0
C1082 C 0.28325 0.50552 0.54931 0.0
C1083 C 0.31126 0.59748 0.55469 0.0
H1084 H 0.36983 0.55764 0.48012 0.0
H1085 H 0.31266 0.54509 0.36448 0.0
H1086 H 0.3458 0.57693 0.59364 0.0
H1087 H 0.33935 0.54558 0.59514 0.0
H1088 H 0.36915 0.5697 0.57186 0.0
H1089 H 0.278 0.54909 0.3902 0.0
H1090 H 0.26613 0.52965 0.45001 0.0
H1091 H 0.27776 0.5622 0.45623 0.0
H1092 H 0.25307 0.50457 0.62929 0.0
H1093 H 0.27647 0.58182 0.63548 0.0
H1094 H 0.30248 0.50885 0.55186 0.0
H1095 H 0.2779 0.5031 0.50526 0.0
H1096 H 0.27079 0.48803 0.57123 0.0
H1097 H 0.33103 0.6025 0.55245 0.0
H1098 H 0.30971 0.61121 0.58095 0.0
H1099 H 0.30525 0.59869 0.5124 0.0
C1100 C 0.73497 0.26987 0.13322 0.0
C1101 C 0.71348 0.24735 0.12116 0.0
C1102 C 0.74973 0.28605 0.09056 0.0
C1103 C 0.7429 0.27965 0.03447 0.0
C1104 C 0.72026 0.25779 0.02274 0.0
C1105 C 0.706 0.24208 0.06583 0.0
C1106 C 0.7735 0.30923 0.10543 0.0
C1107 C 0.71192 0.24989 0.96423 0.0
C1108 C 0.77729 0.32469 0.91459 0.0
C1109 C 0.79469 0.31765 0.89972 0.0
C1110 C 0.76049 0.31285 0.95866 0.0
C1111 C 0.76088 0.29334 0.98828 0.0
C1112 C 0.77801 0.28588 0.9721 0.0
C1113 C 0.79458 0.2981 0.92871 0.0
C1114 C 0.74272 0.32158 0.97442 0.0
C1115 C 0.77905 0.26498 1.00099 0.0
H1116 H 0.7411 0.27414 0.17555 0.0
H1117 H 0.68935 0.22484 0.05579 0.0
H1118 H 0.78949 0.30674 0.09531 0.0
H1119 H 0.77549 0.32518 0.08117 0.0
H1120 H 0.7744 0.31369 0.14986 0.0
H1121 H 0.6925 0.23432 0.96192 0.0
H1122 H 0.71338 0.26558 0.93985 0.0
H1123 H 0.72416 0.2439 0.94476 0.0
H1124 H 0.77745 0.34003 0.89333 0.0
H1125 H 0.80788 0.29242 0.91776 0.0
H1126 H 0.74659 0.32875 1.01716 0.0
H1127 H 0.72339 0.30588 0.97342 0.0
H1128 H 0.74412 0.33638 0.94677 0.0
H1129 H 0.78308 0.26936 0.04529 0.0
H1130 H 0.79342 0.26137 0.98355 0.0
H1131 H 0.76081 0.24775 0.99785 0.0
C1132 C 0.46981 0.77085 0.41841 0.0
C1133 C 0.47602 0.79552 0.42724 0.0
C1134 C 0.46789 0.75531 0.46301 0.0
C1135 C 0.4723 0.76459 0.5179 0.0
C1136 C 0.47637 0.78878 0.52687 0.0
C1137 C 0.4783 0.80382 0.48183 0.0
C1138 C 0.46275 0.72958 0.44992 0.0
C1139 C 0.48055 0.79958 0.58404 0.0
C1140 C 0.46313 0.72431 0.64643 0.0
C1141 C 0.48752 0.72964 0.65729 0.0
C1142 C 0.45763 0.73497 0.60071 0.0
C1143 C 0.47685 0.75127 0.56465 0.0
C1144 C 0.50134 0.7564 0.57542 0.0
C1145 C 0.50633 0.74585 0.62133 0.0
C1146 C 0.43119 0.72845 0.59022 0.0
C1147 C 0.52245 0.77296 0.53783 0.0
H1148 H 0.46798 0.7641 0.37664 0.0
H1149 H 0.48279 0.82273 0.48942 0.0
H1150 H 0.4794 0.73088 0.43025 0.0
H1151 H 0.45792 0.71758 0.48668 0.0
H1152 H 0.44734 0.72068 0.4197 0.0
H1153 H 0.47961 0.81688 0.58523 0.0
H1154 H 0.46659 0.78609 0.61293 0.0
H1155 H 0.49912 0.8038 0.59894 0.0
H1156 H 0.44828 0.71131 0.67264 0.0
H1157 H 0.52522 0.74999 0.62839 0.0
H1158 H 0.42527 0.71983 0.54899 0.0
H1159 H 0.42978 0.7455 0.59016 0.0
H1160 H 0.41827 0.71548 0.62148 0.0
H1161 H 0.51809 0.76575 0.49513 0.0
H1162 H 0.54027 0.77434 0.55034 0.0
H1163 H 0.52488 0.79184 0.53761 0.0
C1164 C 0.39721 0.43198 0.28034 0.0
C1165 C 0.40259 0.45084 0.24175 0.0
C1166 C 0.41149 0.42031 0.28396 0.0
C1167 C 0.43062 0.42615 0.24552 0.0
C1168 C 0.43503 0.44369 0.20379 0.0
C1169 C 0.42148 0.45625 0.20326 0.0
C1170 C 0.4066 0.40233 0.33031 0.0
C1171 C 0.45434 0.44949 0.16008 0.0
C1172 C 0.48339 0.41411 0.2815 0.0
C1173 C 0.47471 0.39011 0.26055 0.0
C1174 C 0.4691 0.42583 0.27776 0.0
C1175 C 0.44609 0.41402 0.24956 0.0
C1176 C 0.43747 0.39022 0.2269 0.0
C1177 C 0.45135 0.37828 0.23434 0.0
C1178 C 0.47854 0.45079 0.30462 0.0
C1179 C 0.41359 0.37732 0.19438 0.0
H1180 H 0.38208 0.42645 0.3089 0.0
H1181 H 0.42629 0.47076 0.17331 0.0
H1182 H 0.40027 0.38358 0.31365 0.0
H1183 H 0.42397 0.40799 0.35364 0.0
H1184 H 0.39232 0.40123 0.35929 0.0
H1185 H 0.45315 0.46087 0.12637 0.0
H1186 H 0.47314 0.45977 0.1785 0.0
H1187 H 0.45218 0.43214 0.14228 0.0
H1188 H 0.50146 0.42408 0.30068 0.0
H1189 H 0.44357 0.35953 0.21937 0.0
H1190 H 0.46416 0.45034 0.33224 0.0
H1191 H 0.48251 0.46502 0.27289 0.0
H1192 H 0.49571 0.45657 0.32893 0.0
H1193 H 0.39756 0.37163 0.22213 0.0
H1194 H 0.41127 0.36058 0.17287 0.0
H1195 H 0.41302 0.39009 0.16341 0.0
C1196 C 0.07874 0.47014 0.79668 0.0
C1197 C 0.09263 0.46321 0.76318 0.0
C1198 C 0.05266 0.45785 0.79342 0.0
C1199 C 0.04 0.43843 0.75491 0.0
C1200 C 0.05381 0.43127 0.72112 0.0
C1201 C 0.07978 0.44341 0.72626 0.0
C1202 C 0.03864 0.46574 0.83112 0.0
C1203 C 0.04116 0.41089 0.67904 0.0
C1204 C 0.97183 0.39147 0.77891 0.0
C1205 C 0.95959 0.40079 0.74648 0.0
C1206 C 0.99783 0.40356 0.78219 0.0
C1207 C 1.01227 0.4252 0.75088 0.0
C1208 C 1.00018 0.43414 0.71607 0.0
C1209 C 0.97405 0.422 0.71466 0.0
C1210 C 1.00984 0.39347 0.82028 0.0
C1211 C 1.01487 0.4568 0.68095 0.0
H1212 H 0.08824 0.48555 0.82485 0.0
H1213 H 0.08998 0.43728 0.701 0.0
H1214 H 0.02822 0.47253 0.80654 0.0
H1215 H 0.02488 0.44966 0.85531 0.0
H1216 H 0.0511 0.4806 0.86002 0.0
H1217 H 0.0546 0.40819 0.65429 0.0
H1218 H 0.02838 0.3932 0.69974 0.0
H1219 H 0.02982 0.41521 0.6508 0.0
H1220 H 0.96108 0.37472 0.8025 0.0
H1221 H 0.96501 0.42959 0.68973 0.0
H1222 H 0.0215 0.40775 0.85102 0.0
H1223 H 0.02222 0.38884 0.79677 0.0
H1224 H 0.996 0.37664 0.84243 0.0
H1225 H 0.02577 0.4732 0.70755 0.0
H1226 H 1.0028 0.46056 0.65366 0.0
H1227 H 0.02826 0.45448 0.65521 0.0
C1228 C 0.6152 0.07287 0.21742 0.0
C1229 C 0.62396 0.08427 0.26876 0.0
C1230 C 0.601 0.04701 0.21234 0.0
C1231 C 0.59537 0.03201 0.25975 0.0
C1232 C 0.60359 0.04341 0.31193 0.0
C1233 C 0.61769 0.0694 0.31583 0.0
C1234 C 0.5923 0.03573 0.15606 0.0
C1235 C 0.59801 0.02812 0.3635 0.0
C1236 C 0.54292 0.96481 0.25317 0.0
C1237 C 0.55594 0.952 0.24582 0.0
C1238 C 0.55543 0.99079 0.25745 0.0
C1239 C 0.58166 1.0044 0.25444 0.0
C1240 C 0.59487 0.99163 0.24622 0.0
C1241 C 0.5819 0.96567 0.242 0.0
C1242 C 0.54061 1.00363 0.26619 0.0
C1243 C 0.62281 1.00539 0.24235 0.0
H1244 H 0.6195 0.08426 0.18097 0.0
H1245 H 0.6244 0.07807 0.35558 0.0
H1246 H 0.59959 0.02316 0.14653 0.0
H1247 H 0.57177 0.02446 0.15527 0.0
H1248 H 0.59833 0.04995 0.12327 0.0
H1249 H 0.60481 0.03976 0.40109 0.0
H1250 H 0.57773 0.01545 0.36734 0.0
H1251 H 0.60683 0.01648 0.36117 0.0
H1252 H 0.52292 0.95446 0.25721 0.0
H1253 H 0.59213 0.95601 0.23586 0.0
H1254 H 0.545 0.01771 0.23375 0.0
H1255 H 0.54572 0.01351 0.30618 0.0
H1256 H 0.52031 0.9905 0.26582 0.0
H1257 H 0.6289 0.01885 0.20801 0.0
H1258 H 0.63034 0.99278 0.23568 0.0
H1259 H 0.63099 0.01608 0.28065 0.0
C1260 C 0.52218 0.58423 0.77887 0.0
C1261 C 0.53388 0.6089 0.76126 0.0
C1262 C 0.53452 0.57045 0.77686 0.0
C1263 C 0.55939 0.58181 0.75814 0.0
C1264 C 0.57138 0.6069 0.74133 0.0
C1265 C 0.55841 0.62 0.74248 0.0
C1266 C 0.52084 0.54364 0.79409 0.0
C1267 C 0.59803 0.62001 0.72254 0.0
C1268 C 0.60003 0.55505 0.80248 0.0
C1269 C 0.60169 0.54358 0.7541 0.0
C1270 C 0.58633 0.56739 0.80434 0.0
C1271 C 0.57315 0.56777 0.75722 0.0
C1272 C 0.57394 0.55552 0.70882 0.0
C1273 C 0.58833 0.54381 0.70766 0.0
C1274 C 0.58634 0.58043 0.85665 0.0
C1275 C 0.55979 0.55503 0.65795 0.0
H1276 H 0.50316 0.57554 0.79298 0.0
H1277 H 0.56759 0.63914 0.72921 0.0
H1278 H 0.52071 0.53183 0.75984 0.0
H1279 H 0.53051 0.54078 0.82922 0.0
H1280 H 0.50139 0.53734 0.80621 0.0
H1281 H 0.60483 0.63967 0.71176 0.0
H1282 H 0.61007 0.61936 0.75542 0.0
H1283 H 0.60004 0.6105 0.68609 0.0
H1284 H 0.60942 0.55439 0.83941 0.0
H1285 H 0.58942 0.5352 0.66993 0.0
H1286 H 0.56712 0.57293 0.87175 0.0
H1287 H 0.59388 0.60042 0.84842 0.0
H1288 H 0.59759 0.57849 0.88971 0.0
H1289 H 0.54002 0.54802 0.66816 0.0
H1290 H 0.5608 0.54325 0.625 0.0
H1291 H 0.56735 0.57408 0.64181 0.0
C1292 C 0.059 0.61769 0.24902 0.0
C1293 C 0.07249 0.6052 0.24605 0.0
C1294 C 0.03301 0.60473 0.25354 0.0
C1295 C 0.02 0.57852 0.25505 0.0
C1296 C 0.03342 0.56574 0.25101 0.0
C1297 C 0.05945 0.5792 0.24662 0.0
C1298 C 0.01948 0.61912 0.25723 0.0
C1299 C 0.0203 0.53784 0.25236 0.0
C1300 C 0.95518 0.54719 0.31803 0.0
C1301 C 0.94004 0.54117 0.27122 0.0
C1302 C 0.98119 0.5589 0.31339 0.0
C1303 C 0.99235 0.56462 0.26069 0.0
C1304 C 0.97709 0.55789 0.21331 0.0
C1305 C 0.95121 0.54625 0.21915 0.0
C1306 C 0.99676 0.56573 0.36496 0.0
C1307 C 0.9881 0.56329 0.15634 0.0
H1308 H 0.06883 0.63774 0.24804 0.0
H1309 H 0.06965 0.56932 0.24531 0.0
H1310 H 1.00582 0.61365 0.22321 0.0
H1311 H 1.00899 0.61473 0.29631 0.0
H1312 H 0.03226 0.63943 0.25524 0.0
H1313 H 0.03328 0.53064 0.24704 0.0
H1314 H 1.01055 0.53106 0.29212 0.0
H1315 H 1.00605 0.53001 0.21946 0.0
H1316 H 0.94672 0.54335 0.35835 0.0
H1317 H 0.93965 0.54113 0.18268 0.0
H1318 H 1.00861 0.58614 0.36766 0.0
H1319 H 1.0093 0.55789 0.36365 0.0
H1320 H 0.98528 0.55902 0.40268 0.0
H1321 H 1.00123 0.5834 0.15175 0.0
H1322 H 0.97373 0.55739 0.12372 0.0
H1323 H 0.99876 0.55361 0.14987 0.0
C1324 C 0.42214 0.94885 0.8129 0.0
C1325 C 0.41317 0.93408 0.76566 0.0
C1326 C 0.4365 0.97479 0.80903 0.0
C1327 C 0.44231 0.98623 0.75663 0.0
C1328 C 0.43383 0.97132 0.70879 0.0
C1329 C 0.41933 0.94548 0.71389 0.0
C1330 C 0.44502 0.98999 0.86106 0.0
C1331 C 0.43998 0.98265 0.65215 0.0
C1332 C 0.45731 0.05328 0.74745 0.0
C1333 C 0.48336 0.06628 0.74675 0.0
C1334 C 0.4438 0.02731 0.75024 0.0
C1335 C 0.45654 0.01382 0.75192 0.0
C1336 C 0.48279 0.02672 0.74977 0.0
C1337 C 0.49586 0.05275 0.74745 0.0
C1338 C 0.41584 0.01432 0.7522 0.0
C1339 C 0.49709 0.01305 0.75111 0.0
H1340 H 0.41741 0.94013 0.85297 0.0
H1341 H 0.41288 0.93412 0.6772 0.0
H1342 H 0.46548 1.00198 0.86094 0.0
H1343 H 0.43698 1.00234 0.86319 0.0
H1344 H 0.43953 0.97829 0.89854 0.0
H1345 H 0.4315 0.96854 0.61911 0.0
H1346 H 0.43342 0.99614 0.64753 0.0
H1347 H 0.46038 0.99293 0.64643 0.0
H1348 H 0.44742 0.06347 0.74615 0.0
H1349 H 0.51595 0.06251 0.74784 0.0
H1350 H 0.40913 1.00349 0.79074 0.0
H1351 H 0.40784 1.00107 0.7175 0.0
H1352 H 0.40871 0.02745 0.75013 0.0
H1353 H 0.49379 1.00309 0.79069 0.0
H1354 H 0.51735 0.02567 0.74626 0.0
H1355 H 0.49052 0.99897 0.71792 0.0
loop_
_geom_bond_atom_site_label_1
_geom_bond_atom_site_label_2
_geom_bond_distance
_geom_bond_site_symmetry_2
_ccdc_geom_bond_type
C0 C1 1.351 . S
C0 N3 1.368 . S
C0 H5 0.931 . S
C1 C0 1.351 . S
C1 N2 1.373 . S
C1 H29 0.930 . S
N2 C1 1.373 . S
N2 C4 1.340 . S
N3 C0 1.368 . S
N3 C4 1.321 . S
N3 Co6 2.135 . S
C4 N2 1.340 . S
C4 N3 1.321 . S
C4 H28 0.930 . S
H5 C0 0.931 . S
Co6 N3 2.135 . S
Co6 N9 2.121 . S
Co6 O14 2.055 . S
Co6 O17 2.039 . S
Co6 N20 2.140 . S
C7 O8 1.227 . S
C7 O17 1.265 . S
O8 C7 1.227 . S
N9 Co6 2.121 . S
N9 C11 1.375 . S
N9 C12 1.313 . S
C10 C11 1.338 . S
C10 N13 1.377 . S
C10 H30 0.930 . S
C11 N9 1.375 . S
C11 C10 1.338 . S
C11 H15 0.931 . S
C12 N9 1.313 . S
C12 N13 1.344 . S
C12 H16 0.930 . S
N13 C10 1.377 . S
N13 C12 1.344 . S
O14 Co6 2.055 . S
O14 C18 1.253 . S
H15 C11 0.931 . S
H16 C12 0.930 . S
O17 Co6 2.039 . S
O17 C7 1.265 . S
C18 O14 1.253 . S
C18 O19 1.227 . S
O19 C18 1.227 . S
N20 Co6 2.140 . S
N20 C23 1.346 . S
N20 C24 1.345 . S
C21 C22 1.387 . S
C21 C25 1.391 . S
C22 C21 1.387 . S
C22 C23 1.369 . S
C22 H31 0.929 . S
C23 N20 1.346 . S
C23 C22 1.369 . S
C23 H26 0.928 . S
C24 N20 1.345 . S
C24 C25 1.371 . S
C24 H27 0.931 . S
C25 C21 1.391 . S
C25 C24 1.371 . S
C25 H32 0.930 . S
H26 C23 0.928 . S
H27 C24 0.931 . S
H28 C4 0.930 . S
H29 C1 0.930 . S
H30 C10 0.930 . S
H31 C22 0.929 . S
H32 C25 0.930 . S
C33 C34 1.351 . S
C33 N36 1.368 . S
C33 H38 0.931 . S
C34 C33 1.351 . S
C34 N35 1.373 . S
C34 H62 0.930 . S
N35 C34 1.373 . S
N35 C37 1.340 . S
N36 C33 1.368 . S
N36 C37 1.321 . S
N36 Co39 2.135 . S
C37 N35 1.340 . S
C37 N36 1.321 . S
C37 H61 0.930 . S
H38 C33 0.931 . S
Co39 N36 2.135 . S
Co39 N42 2.121 . S
Co39 O47 2.055 . S
Co39 O50 2.039 . S
Co39 N53 2.140 . S
C40 O41 1.227 . S
C40 O50 1.265 . S
O41 C40 1.227 . S
N42 Co39 2.121 . S
N42 C44 1.375 . S
N42 C45 1.313 . S
C43 C44 1.338 . S
C43 N46 1.377 . S
C43 H63 0.930 . S
C44 N42 1.375 . S
C44 C43 1.338 . S
C44 H48 0.931 . S
C45 N42 1.313 . S
C45 N46 1.344 . S
C45 H49 0.930 . S
N46 C43 1.377 . S
N46 C45 1.344 . S
O47 Co39 2.055 . S
O47 C51 1.253 . S
H48 C44 0.931 . S
H49 C45 0.930 . S
O50 Co39 2.039 . S
O50 C40 1.265 . S
C51 O47 1.253 . S
C51 O52 1.227 . S
O52 C51 1.227 . S
N53 Co39 2.140 . S
N53 C56 1.346 . S
N53 C57 1.345 . S
C54 C55 1.387 . S
C54 C58 1.391 . S
C55 C54 1.387 . S
C55 C56 1.369 . S
C55 H64 0.929 . S
C56 N53 1.346 . S
C56 C55 1.369 . S
C56 H59 0.928 . S
C57 N53 1.345 . S
C57 C58 1.371 . S
C57 H60 0.931 . S
C58 C54 1.391 . S
C58 C57 1.371 . S
C58 H65 0.930 . S
H59 C56 0.928 . S
H60 C57 0.931 . S
H61 C37 0.930 . S
H62 C34 0.930 . S
H63 C43 0.930 . S
H64 C55 0.929 . S
H65 C58 0.930 . S
C66 C67 1.351 . S
C66 N69 1.368 . S
C66 H71 0.931 . S
C67 C66 1.351 . S
C67 N68 1.373 . S
C67 H95 0.930 . S
N68 C67 1.373 . S
N68 C70 1.340 . S
N69 C66 1.368 . S
N69 C70 1.321 . S
N69 Co72 2.135 . S
C70 N68 1.340 . S
C70 N69 1.321 . S
C70 H94 0.930 . S
H71 C66 0.931 . S
Co72 N69 2.135 . S
Co72 N75 2.121 . S
Co72 O80 2.055 . S
Co72 O83 2.039 . S
Co72 N86 2.140 . S
C73 O74 1.227 . S
C73 O83 1.265 . S
O74 C73 1.227 . S
N75 Co72 2.121 . S
N75 C77 1.375 . S
N75 C78 1.313 . S
C76 C77 1.338 . S
C76 N79 1.377 . S
C76 H96 0.930 . S
C77 N75 1.375 . S
C77 C76 1.338 . S
C77 H81 0.931 . S
C78 N75 1.313 . S
C78 N79 1.344 . S
C78 H82 0.930 . S
N79 C76 1.377 . S
N79 C78 1.344 . S
O80 Co72 2.055 . S
O80 C84 1.253 . S
H81 C77 0.931 . S
H82 C78 0.930 . S
O83 Co72 2.039 . S
O83 C73 1.265 . S
C84 O80 1.253 . S
C84 O85 1.227 . S
O85 C84 1.227 . S
N86 Co72 2.140 . S
N86 C89 1.346 . S
N86 C90 1.345 . S
C87 C88 1.387 . S
C87 C91 1.391 . S
C88 C87 1.387 . S
C88 C89 1.369 . S
C88 H97 0.929 . S
C89 N86 1.346 . S
C89 C88 1.369 . S
C89 H92 0.928 . S
C90 N86 1.345 . S
C90 C91 1.371 . S
C90 H93 0.931 . S
C91 C87 1.391 . S
C91 C90 1.371 . S
C91 H98 0.930 . S
H92 C89 0.928 . S
H93 C90 0.931 . S
H94 C70 0.930 . S
H95 C67 0.930 . S
H96 C76 0.930 . S
H97 C88 0.929 . S
H98 C91 0.930 . S
C99 C100 1.351 . S
C99 N102 1.368 . S
C99 H104 0.931 . S
C100 C99 1.351 . S
C100 N101 1.373 . S
C100 H128 0.930 . S
N101 C100 1.373 . S
N101 C103 1.340 . S
N102 C99 1.368 . S
N102 C103 1.321 . S
N102 Co105 2.135 . S
C103 N101 1.340 . S
C103 N102 1.321 . S
C103 H127 0.930 . S
H104 C99 0.931 . S
Co105 N102 2.135 . S
Co105 N108 2.121 . S
Co105 O113 2.055 . S
Co105 O116 2.039 . S
Co105 N119 2.140 . S
C106 O107 1.227 . S
C106 O116 1.265 . S
O107 C106 1.227 . S
N108 Co105 2.121 . S
N108 C110 1.375 . S
N108 C111 1.313 . S
C109 C110 1.338 . S
C109 N112 1.377 . S
C109 H129 0.930 . S
C110 N108 1.375 . S
C110 C109 1.338 . S
C110 H114 0.931 . S
C111 N108 1.313 . S
C111 N112 1.344 . S
C111 H115 0.930 . S
N112 C109 1.377 . S
N112 C111 1.344 . S
O113 Co105 2.055 . S
O113 C117 1.253 . S
H114 C110 0.931 . S
H115 C111 0.930 . S
O116 Co105 2.039 . S
O116 C106 1.265 . S
C117 O113 1.253 . S
C117 O118 1.227 . S
O118 C117 1.227 . S
N119 Co105 2.140 . S
N119 C122 1.346 . S
N119 C123 1.345 . S
C120 C121 1.387 . S
C120 C124 1.391 . S
C121 C120 1.387 . S
C121 C122 1.369 . S
C121 H130 0.929 . S
C122 N119 1.346 . S
C122 C121 1.369 . S
C122 H125 0.928 . S
C123 N119 1.345 . S
C123 C124 1.371 . S
C123 H126 0.931 . S
C124 C120 1.391 . S
C124 C123 1.371 . S
C124 H131 0.930 . S
H125 C122 0.928 . S
H126 C123 0.931 . S
H127 C103 0.930 . S
H128 C100 0.930 . S
H129 C109 0.930 . S
H130 C121 0.929 . S
H131 C124 0.930 . S
C132 C133 1.351 . S
C132 N135 1.368 . S
C132 H137 0.931 . S
C133 C132 1.351 . S
C133 N134 1.373 . S
C133 H161 0.930 . S
N134 C133 1.373 . S
N134 C136 1.340 . S
N135 C132 1.368 . S
N135 C136 1.321 . S
N135 Co138 2.135 . S
C136 N134 1.340 . S
C136 N135 1.321 . S
C136 H160 0.930 . S
H137 C132 0.931 . S
Co138 N135 2.135 . S
Co138 N141 2.121 . S
Co138 O146 2.055 . S
Co138 O149 2.039 . S
Co138 N152 2.140 . S
C139 O140 1.227 . S
C139 O149 1.265 . S
O140 C139 1.227 . S
N141 Co138 2.121 . S
N141 C143 1.375 . S
N141 C144 1.313 . S
C142 C143 1.338 . S
C142 N145 1.377 . S
C142 H162 0.930 . S
C143 N141 1.375 . S
C143 C142 1.338 . S
C143 H147 0.931 . S
C144 N141 1.313 . S
C144 N145 1.344 . S
C144 H148 0.930 . S
N145 C142 1.377 . S
N145 C144 1.344 . S
O146 Co138 2.055 . S
O146 C150 1.253 . S
H147 C143 0.931 . S
H148 C144 0.930 . S
O149 Co138 2.039 . S
O149 C139 1.265 . S
C150 O146 1.253 . S
C150 O151 1.227 . S
O151 C150 1.227 . S
N152 Co138 2.140 . S
N152 C155 1.346 . S
N152 C156 1.345 . S
C153 C154 1.387 . S
C153 C157 1.391 . S
C154 C153 1.387 . S
C154 C155 1.369 . S
C154 H163 0.929 . S
C155 N152 1.346 . S
C155 C154 1.369 . S
C155 H158 0.928 . S
C156 N152 1.345 . S
C156 C157 1.371 . S
C156 H159 0.931 . S
C157 C153 1.391 . S
C157 C156 1.371 . S
C157 H164 0.930 . S
H158 C155 0.928 . S
H159 C156 0.931 . S
H160 C136 0.930 . S
H161 C133 0.930 . S
H162 C142 0.930 . S
H163 C154 0.929 . S
H164 C157 0.930 . S
C165 C166 1.351 . S
C165 N168 1.368 . S
C165 H170 0.931 . S
C166 C165 1.351 . S
C166 N167 1.373 . S
C166 H194 0.930 . S
N167 C166 1.373 . S
N167 C169 1.340 . S
N168 C165 1.368 . S
N168 C169 1.321 . S
N168 Co171 2.135 . S
C169 N167 1.340 . S
C169 N168 1.321 . S
C169 H193 0.930 . S
H170 C165 0.931 . S
Co171 N168 2.135 . S
Co171 N174 2.121 . S
Co171 O179 2.055 . S
Co171 O182 2.039 . S
Co171 N185 2.140 . S
C172 O173 1.227 . S
C172 O182 1.265 . S
O173 C172 1.227 . S
N174 Co171 2.121 . S
N174 C176 1.375 . S
N174 C177 1.313 . S
C175 C176 1.338 . S
C175 N178 1.377 . S
C175 H195 0.930 . S
C176 N174 1.375 . S
C176 C175 1.338 . S
C176 H180 0.931 . S
C177 N174 1.313 . S
C177 N178 1.344 . S
C177 H181 0.930 . S
N178 C175 1.377 . S
N178 C177 1.344 . S
O179 Co171 2.055 . S
O179 C183 1.253 . S
H180 C176 0.931 . S
H181 C177 0.930 . S
O182 Co171 2.039 . S
O182 C172 1.265 . S
C183 O179 1.253 . S
C183 O184 1.227 . S
O184 C183 1.227 . S
N185 Co171 2.140 . S
N185 C188 1.346 . S
N185 C189 1.345 . S
C186 C187 1.387 . S
C186 C190 1.391 . S
C187 C186 1.387 . S
C187 C188 1.369 . S
C187 H196 0.929 . S
C188 N185 1.346 . S
C188 C187 1.369 . S
C188 H191 0.928 . S
C189 N185 1.345 . S
C189 C190 1.371 . S
C189 H192 0.931 . S
C190 C186 1.391 . S
C190 C189 1.371 . S
C190 H197 0.930 . S
H191 C188 0.928 . S
H192 C189 0.931 . S
H193 C169 0.930 . S
H194 C166 0.930 . S
H195 C175 0.930 . S
H196 C187 0.929 . S
H197 C190 0.930 . S
C198 C199 1.351 . S
C198 N201 1.368 . S
C198 H203 0.931 . S
C199 C198 1.351 . S
C199 N200 1.373 . S
C199 H227 0.930 . S
N200 C199 1.373 . S
N200 C202 1.340 . S
N201 C198 1.368 . S
N201 C202 1.321 . S
N201 Co204 2.135 . S
C202 N200 1.340 . S
C202 N201 1.321 . S
C202 H226 0.930 . S
H203 C198 0.931 . S
Co204 N201 2.135 . S
Co204 N207 2.121 . S
Co204 O212 2.055 . S
Co204 O215 2.039 . S
Co204 N218 2.140 . S
C205 O206 1.227 . S
C205 O215 1.265 . S
O206 C205 1.227 . S
N207 Co204 2.121 . S
N207 C209 1.375 . S
N207 C210 1.313 . S
C208 C209 1.338 . S
C208 N211 1.377 . S
C208 H228 0.930 . S
C209 N207 1.375 . S
C209 C208 1.338 . S
C209 H213 0.931 . S
C210 N207 1.313 . S
C210 N211 1.344 . S
C210 H214 0.930 . S
N211 C208 1.377 . S
N211 C210 1.344 . S
O212 Co204 2.055 . S
O212 C216 1.253 . S
H213 C209 0.931 . S
H214 C210 0.930 . S
O215 Co204 2.039 . S
O215 C205 1.265 . S
C216 O212 1.253 . S
C216 O217 1.227 . S
O217 C216 1.227 . S
N218 Co204 2.140 . S
N218 C221 1.346 . S
N218 C222 1.345 . S
C219 C220 1.387 . S
C219 C223 1.391 . S
C220 C219 1.387 . S
C220 C221 1.369 . S
C220 H229 0.929 . S
C221 N218 1.346 . S
C221 C220 1.369 . S
C221 H224 0.928 . S
C222 N218 1.345 . S
C222 C223 1.371 . S
C222 H225 0.931 . S
C223 C219 1.391 . S
C223 C222 1.371 . S
C223 H230 0.930 . S
H224 C221 0.928 . S
H225 C222 0.931 . S
H226 C202 0.930 . S
H227 C199 0.930 . S
H228 C208 0.930 . S
H229 C220 0.929 . S
H230 C223 0.930 . S
C231 C232 1.351 . S
C231 N234 1.368 . S
C231 H236 0.931 . S
C232 C231 1.351 . S
C232 N233 1.373 . S
C232 H260 0.930 . S
N233 C232 1.373 . S
N233 C235 1.340 . S
N234 C231 1.368 . S
N234 C235 1.321 . S
N234 Co237 2.135 . S
C235 N233 1.340 . S
C235 N234 1.321 . S
C235 H259 0.930 . S
H236 C231 0.931 . S
Co237 N234 2.135 . S
Co237 N240 2.121 . S
Co237 O245 2.055 . S
Co237 O248 2.039 . S
Co237 N251 2.140 . S
C238 O239 1.227 . S
C238 O248 1.265 . S
O239 C238 1.227 . S
N240 Co237 2.121 . S
N240 C242 1.375 . S
N240 C243 1.313 . S
C241 C242 1.338 . S
C241 N244 1.377 . S
C241 H261 0.930 . S
C242 N240 1.375 . S
C242 C241 1.338 . S
C242 H246 0.931 . S
C243 N240 1.313 . S
C243 N244 1.344 . S
C243 H247 0.930 . S
N244 C241 1.377 . S
N244 C243 1.344 . S
O245 Co237 2.055 . S
O245 C249 1.253 . S
H246 C242 0.931 . S
H247 C243 0.930 . S
O248 Co237 2.039 . S
O248 C238 1.265 . S
C249 O245 1.253 . S
C249 O250 1.227 . S
O250 C249 1.227 . S
N251 Co237 2.140 . S
N251 C254 1.346 . S
N251 C255 1.345 . S
C252 C253 1.387 . S
C252 C256 1.391 . S
C253 C252 1.387 . S
C253 C254 1.369 . S
C253 H262 0.929 . S
C254 N251 1.346 . S
C254 C253 1.369 . S
C254 H257 0.928 . S
C255 N251 1.345 . S
C255 C256 1.371 . S
C255 H258 0.931 . S
C256 C252 1.391 . S
C256 C255 1.371 . S
C256 H263 0.930 . S
H257 C254 0.928 . S
H258 C255 0.931 . S
H259 C235 0.930 . S
H260 C232 0.930 . S
H261 C241 0.930 . S
H262 C253 0.929 . S
H263 C256 0.930 . S
C264 C265 1.351 . S
C264 N267 1.368 . S
C264 H269 0.931 . S
C265 C264 1.351 . S
C265 N266 1.373 . S
C265 H293 0.930 . S
N266 C265 1.373 . S
N266 C268 1.340 . S
N267 C264 1.368 . S
N267 C268 1.321 . S
N267 Co270 2.135 . S
C268 N266 1.340 . S
C268 N267 1.321 . S
C268 H292 0.930 . S
H269 C264 0.931 . S
Co270 N267 2.135 . S
Co270 N273 2.121 . S
Co270 O278 2.055 . S
Co270 O281 2.039 . S
Co270 N284 2.140 . S
C271 O272 1.227 . S
C271 O281 1.265 . S
O272 C271 1.227 . S
N273 Co270 2.121 . S
N273 C275 1.375 . S
N273 C276 1.313 . S
C274 C275 1.338 . S
C274 N277 1.377 . S
C274 H294 0.930 . S
C275 N273 1.375 . S
C275 C274 1.338 . S
C275 H279 0.931 . S
C276 N273 1.313 . S
C276 N277 1.344 . S
C276 H280 0.930 . S
N277 C274 1.377 . S
N277 C276 1.344 . S
O278 Co270 2.055 . S
O278 C282 1.253 . S
H279 C275 0.931 . S
H280 C276 0.930 . S
O281 Co270 2.039 . S
O281 C271 1.265 . S
C282 O278 1.253 . S
C282 O283 1.227 . S
O283 C282 1.227 . S
N284 Co270 2.140 . S
N284 C287 1.346 . S
N284 C288 1.345 . S
C285 C286 1.387 . S
C285 C289 1.391 . S
C286 C285 1.387 . S
C286 C287 1.369 . S
C286 H295 0.929 . S
C287 N284 1.346 . S
C287 C286 1.369 . S
C287 H290 0.928 . S
C288 N284 1.345 . S
C288 C289 1.371 . S
C288 H291 0.931 . S
C289 C285 1.391 . S
C289 C288 1.371 . S
C289 H296 0.930 . S
H290 C287 0.928 . S
H291 C288 0.931 . S
H292 C268 0.930 . S
H293 C265 0.930 . S
H294 C274 0.930 . S
H295 C286 0.929 . S
H296 C289 0.930 . S
C297 C298 1.351 . S
C297 N300 1.368 . S
C297 H302 0.931 . S
C298 C297 1.351 . S
C298 N299 1.373 . S
C298 H326 0.930 . S
N299 C298 1.373 . S
N299 C301 1.340 . S
N300 C297 1.368 . S
N300 C301 1.321 . S
N300 Co303 2.135 . S
C301 N299 1.340 . S
C301 N300 1.321 . S
C301 H325 0.930 . S
H302 C297 0.931 . S
Co303 N300 2.135 . S
Co303 N306 2.121 . S
Co303 O311 2.055 . S
Co303 O314 2.039 . S
Co303 N317 2.140 . S
C304 O305 1.227 . S
C304 O314 1.265 . S
O305 C304 1.227 . S
N306 Co303 2.121 . S
N306 C308 1.375 . S
N306 C309 1.313 . S
C307 C308 1.338 . S
C307 N310 1.377 . S
C307 H327 0.930 . S
C308 N306 1.375 . S
C308 C307 1.338 . S
C308 H312 0.931 . S
C309 N306 1.313 . S
C309 N310 1.344 . S
C309 H313 0.930 . S
N310 C307 1.377 . S
N310 C309 1.344 . S
O311 Co303 2.055 . S
O311 C315 1.253 . S
H312 C308 0.931 . S
H313 C309 0.930 . S
O314 Co303 2.039 . S
O314 C304 1.265 . S
C315 O311 1.253 . S
C315 O316 1.227 . S
O316 C315 1.227 . S
N317 Co303 2.140 . S
N317 C320 1.346 . S
N317 C321 1.345 . S
C318 C319 1.387 . S
C318 C322 1.391 . S
C319 C318 1.387 . S
C319 C320 1.369 . S
C319 H328 0.929 . S
C320 N317 1.346 . S
C320 C319 1.369 . S
C320 H323 0.928 . S
C321 N317 1.345 . S
C321 C322 1.371 . S
C321 H324 0.931 . S
C322 C318 1.391 . S
C322 C321 1.371 . S
C322 H329 0.930 . S
H323 C320 0.928 . S
H324 C321 0.931 . S
H325 C301 0.930 . S
H326 C298 0.930 . S
H327 C307 0.930 . S
H328 C319 0.929 . S
H329 C322 0.930 . S
C330 C331 1.351 . S
C330 N333 1.368 . S
C330 H335 0.931 . S
C331 C330 1.351 . S
C331 N332 1.373 . S
C331 H359 0.930 . S
N332 C331 1.373 . S
N332 C334 1.340 . S
N333 C330 1.368 . S
N333 C334 1.321 . S
N333 Co336 2.135 . S
C334 N332 1.340 . S
C334 N333 1.321 . S
C334 H358 0.930 . S
H335 C330 0.931 . S
Co336 N333 2.135 . S
Co336 N339 2.121 . S
Co336 O344 2.055 . S
Co336 O347 2.039 . S
Co336 N350 2.140 . S
C337 O338 1.227 . S
C337 O347 1.265 . S
O338 C337 1.227 . S
N339 Co336 2.121 . S
N339 C341 1.375 . S
N339 C342 1.313 . S
C340 C341 1.338 . S
C340 N343 1.377 . S
C340 H360 0.930 . S
C341 N339 1.375 . S
C341 C340 1.338 . S
C341 H345 0.931 . S
C342 N339 1.313 . S
C342 N343 1.344 . S
C342 H346 0.930 . S
N343 C340 1.377 . S
N343 C342 1.344 . S
O344 Co336 2.055 . S
O344 C348 1.253 . S
H345 C341 0.931 . S
H346 C342 0.930 . S
O347 Co336 2.039 . S
O347 C337 1.265 . S
C348 O344 1.253 . S
C348 O349 1.227 . S
O349 C348 1.227 . S
N350 Co336 2.140 . S
N350 C353 1.346 . S
N350 C354 1.345 . S
C351 C352 1.387 . S
C351 C355 1.391 . S
C352 C351 1.387 . S
C352 C353 1.369 . S
C352 H361 0.929 . S
C353 N350 1.346 . S
C353 C352 1.369 . S
C353 H356 0.928 . S
C354 N350 1.345 . S
C354 C355 1.371 . S
C354 H357 0.931 . S
C355 C351 1.391 . S
C355 C354 1.371 . S
C355 H362 0.930 . S
H356 C353 0.928 . S
H357 C354 0.931 . S
H358 C334 0.930 . S
H359 C331 0.930 . S
H360 C340 0.930 . S
H361 C352 0.929 . S
H362 C355 0.930 . S
C363 C364 1.351 . S
C363 N366 1.368 . S
C363 H368 0.931 . S
C364 C363 1.351 . S
C364 N365 1.373 . S
C364 H392 0.930 . S
N365 C364 1.373 . S
N365 C367 1.340 . S
N366 C363 1.368 . S
N366 C367 1.321 . S
N366 Co369 2.135 . S
C367 N365 1.340 . S
C367 N366 1.321 . S
C367 H391 0.930 . S
H368 C363 0.931 . S
Co369 N366 2.135 . S
Co369 N372 2.121 . S
Co369 O377 2.055 . S
Co369 O380 2.039 . S
Co369 N383 2.140 . S
C370 O371 1.227 . S
C370 O380 1.265 . S
O371 C370 1.227 . S
N372 Co369 2.121 . S
N372 C374 1.375 . S
N372 C375 1.313 . S
C373 C374 1.338 . S
C373 N376 1.377 . S
C373 H393 0.930 . S
C374 N372 1.375 . S
C374 C373 1.338 . S
C374 H378 0.931 . S
C375 N372 1.313 . S
C375 N376 1.344 . S
C375 H379 0.930 . S
N376 C373 1.377 . S
N376 C375 1.344 . S
O377 Co369 2.055 . S
O377 C381 1.253 . S
H378 C374 0.931 . S
H379 C375 0.930 . S
O380 Co369 2.039 . S
O380 C370 1.265 . S
C381 O377 1.253 . S
C381 O382 1.227 . S
O382 C381 1.227 . S
N383 Co369 2.140 . S
N383 C386 1.346 . S
N383 C387 1.345 . S
C384 C385 1.387 . S
C384 C388 1.391 . S
C385 C384 1.387 . S
C385 C386 1.369 . S
C385 H394 0.929 . S
C386 N383 1.346 . S
C386 C385 1.369 . S
C386 H389 0.928 . S
C387 N383 1.345 . S
C387 C388 1.371 . S
C387 H390 0.931 . S
C388 C384 1.391 . S
C388 C387 1.371 . S
C388 H395 0.930 . S
H389 C386 0.928 . S
H390 C387 0.931 . S
H391 C367 0.930 . S
H392 C364 0.930 . S
H393 C373 0.930 . S
H394 C385 0.929 . S
H395 C388 0.930 . S
C396 C397 1.391 . S
C396 C398 1.394 . S
C396 H412 0.931 . S
C397 C396 1.391 . S
C397 C401 1.376 . S
C398 C396 1.394 . S
C398 C399 1.369 . S
C398 C402 1.531 1_554 S
C399 C398 1.369 . S
C399 C400 1.410 . S
C399 C407 1.503 1_554 S
C400 C399 1.410 . S
C400 C401 1.392 . S
C400 C403 1.511 . S
C401 C397 1.376 . S
C401 C400 1.392 . S
C401 H413 0.929 . S
C402 C398 1.531 1_556 S
C402 H414 0.960 . S
C402 H415 0.962 1_556 S
C402 H416 0.960 . S
C403 C400 1.511 . S
C403 H417 0.961 . S
C403 H418 0.961 . S
C403 H419 0.961 . S
C404 C405 1.370 . S
C404 C406 1.363 . S
C404 H420 0.931 . S
C405 C404 1.370 . S
C405 C409 1.408 . S
C406 C404 1.363 . S
C406 C407 1.370 . S
C406 C410 1.524 1_556 S
C407 C399 1.503 1_556 S
C407 C406 1.370 . S
C407 C408 1.403 . S
C408 C407 1.403 . S
C408 C409 1.404 . S
C408 C411 1.539 . S
C409 C405 1.408 . S
C409 C408 1.404 . S
C409 H421 0.930 . S
C410 C406 1.524 1_554 S
C410 H422 0.956 . S
C410 H423 0.961 . S
C410 H424 0.961 . S
C411 C408 1.539 . S
C411 H425 0.958 . S
C411 H426 0.961 . S
C411 H427 0.960 . S
H412 C396 0.931 . S
H413 C401 0.929 . S
H414 C402 0.960 . S
H415 C402 0.962 1_554 S
H416 C402 0.960 . S
H417 C403 0.961 . S
H418 C403 0.961 . S
H419 C403 0.961 . S
H420 C404 0.931 . S
H421 C409 0.930 . S
H422 C410 0.956 . S
H423 C410 0.961 . S
H424 C410 0.961 . S
H425 C411 0.958 . S
H426 C411 0.961 . S
H427 C411 0.960 . S
C428 C429 1.391 . S
C428 C430 1.394 . S
C428 H444 0.931 . S
C429 C428 1.391 . S
C429 C433 1.376 . S
C430 C428 1.394 . S
C430 C431 1.369 . S
C430 C434 1.531 . S
C431 C430 1.369 . S
C431 C432 1.410 . S
C431 C439 1.503 . S
C432 C431 1.410 . S
C432 C433 1.392 . S
C432 C435 1.511 . S
C433 C429 1.376 . S
C433 C432 1.392 . S
C433 H445 0.929 . S
C434 C430 1.531 . S
C434 H446 0.960 . S
C434 H447 0.962 . S
C434 H448 0.960 . S
C435 C432 1.511 . S
C435 H449 0.961 . S
C435 H450 0.961 . S
C435 H451 0.961 . S
C436 C437 1.370 . S
C436 C438 1.363 . S
C436 H452 0.931 . S
C437 C436 1.370 . S
C437 C441 1.408 . S
C438 C436 1.363 . S
C438 C439 1.370 . S
C438 C442 1.524 . S
C439 C431 1.503 . S
C439 C438 1.370 . S
C439 C440 1.403 . S
C440 C439 1.403 . S
C440 C441 1.404 . S
C440 C443 1.539 . S
C441 C437 1.408 . S
C441 C440 1.404 . S
C441 H453 0.930 . S
C442 C438 1.524 . S
C442 H454 0.956 . S
C442 H455 0.961 . S
C442 H456 0.961 . S
C443 C440 1.539 . S
C443 H457 0.958 . S
C443 H458 0.961 . S
C443 H459 0.960 . S
H444 C428 0.931 . S
H445 C433 0.929 . S
H446 C434 0.960 . S
H447 C434 0.962 . S
H448 C434 0.960 . S
H449 C435 0.961 . S
H450 C435 0.961 . S
H451 C435 0.961 . S
H452 C436 0.931 . S
H453 C441 0.930 . S
H454 C442 0.956 . S
H455 C442 0.961 . S
H456 C442 0.961 . S
H457 C443 0.958 . S
H458 C443 0.961 . S
H459 C443 0.960 . S
C460 C461 1.391 . S
C460 C462 1.394 . S
C460 H476 0.931 . S
C461 C460 1.391 . S
C461 C465 1.376 . S
C462 C460 1.394 . S
C462 C463 1.369 . S
C462 C466 1.518 1_554 S
C463 C462 1.369 . S
C463 C464 1.410 . S
C463 C471 1.503 1_554 S
C464 C463 1.410 . S
C464 C465 1.392 . S
C464 C467 1.511 . S
C465 C461 1.376 . S
C465 C464 1.392 . S
C465 H477 0.929 . S
C466 C462 1.518 1_556 S
C466 H478 0.966 . S
C466 H479 0.979 . S
C466 H480 0.950 1_556 S
C467 C464 1.511 . S
C467 H481 0.961 . S
C467 H482 0.961 . S
C467 H483 0.961 . S
C468 C469 1.370 . S
C468 C470 1.363 . S
C468 H484 0.931 . S
C469 C468 1.370 . S
C469 C473 1.408 . S
C470 C468 1.363 . S
C470 C471 1.370 . S
C470 C474 1.524 . S
C471 C463 1.503 1_556 S
C471 C470 1.370 . S
C471 C472 1.403 . S
C472 C471 1.403 . S
C472 C473 1.404 . S
C472 C475 1.539 1_556 S
C473 C469 1.408 . S
C473 C472 1.404 . S
C473 H485 0.930 . S
C474 C470 1.524 . S
C474 H486 0.956 . S
C474 H487 0.961 . S
C474 H488 0.961 . S
C475 C472 1.539 1_554 S
C475 H489 0.958 . S
C475 H490 0.961 . S
C475 H491 0.960 . S
H476 C460 0.931 . S
H477 C465 0.929 . S
H478 C466 0.966 . S
H479 C466 0.979 . S
H480 C466 0.950 1_554 S
H481 C467 0.961 . S
H482 C467 0.961 . S
H483 C467 0.961 . S
H484 C468 0.931 . S
H485 C473 0.930 . S
H486 C474 0.956 . S
H487 C474 0.961 . S
H488 C474 0.961 . S
H489 C475 0.958 . S
H490 C475 0.961 . S
H491 C475 0.960 . S
C492 C493 1.391 . S
C492 C494 1.394 . S
C492 H508 0.931 . S
C493 C492 1.391 . S
C493 C497 1.376 . S
C494 C492 1.394 . S
C494 C495 1.369 . S
C494 C498 1.531 . S
C495 C494 1.369 . S
C495 C496 1.410 . S
C495 C503 1.503 . S
C496 C495 1.410 . S
C496 C497 1.392 . S
C496 C499 1.511 . S
C497 C493 1.376 . S
C497 C496 1.392 . S
C497 H509 0.929 . S
C498 C494 1.531 . S
C498 H510 0.960 . S
C498 H511 0.962 . S
C498 H512 0.960 . S
C499 C496 1.511 . S
C499 H513 0.961 . S
C499 H514 0.961 . S
C499 H515 0.961 . S
C500 C501 1.370 . S
C500 C502 1.363 . S
C500 H516 0.931 . S
C501 C500 1.370 . S
C501 C505 1.408 . S
C502 C500 1.363 . S
C502 C503 1.370 . S
C502 C506 1.524 . S
C503 C495 1.503 . S
C503 C502 1.370 . S
C503 C504 1.403 . S
C504 C503 1.403 . S
C504 C505 1.404 . S
C504 C507 1.539 . S
C505 C501 1.408 . S
C505 C504 1.404 . S
C505 H517 0.930 . S
C506 C502 1.524 . S
C506 H518 0.956 . S
C506 H519 0.961 . S
C506 H520 0.961 . S
C507 C504 1.539 . S
C507 H521 0.958 . S
C507 H522 0.961 . S
C507 H523 0.960 . S
H508 C492 0.931 . S
H509 C497 0.929 . S
H510 C498 0.960 . S
H511 C498 0.962 . S
H512 C498 0.960 . S
H513 C499 0.961 . S
H514 C499 0.961 . S
H515 C499 0.961 . S
H516 C500 0.931 . S
H517 C505 0.930 . S
H518 C506 0.956 . S
H519 C506 0.961 . S
H520 C506 0.961 . S
H521 C507 0.958 . S
H522 C507 0.961 . S
H523 C507 0.960 . S
C524 C525 1.391 . S
C524 C526 1.394 . S
C524 H540 0.931 . S
C525 C524 1.391 . S
C525 C529 1.376 . S
C526 C524 1.394 . S
C526 C527 1.369 . S
C526 C530 1.531 . S
C527 C526 1.369 . S
C527 C528 1.410 . S
C527 C535 1.503 1_554 S
C528 C527 1.410 . S
C528 C529 1.392 . S
C528 C531 1.511 1_554 S
C529 C525 1.376 . S
C529 C528 1.392 . S
C529 H541 0.929 . S
C530 C526 1.531 . S
C530 H542 0.960 . S
C530 H543 0.962 . S
C530 H544 0.960 . S
C531 C528 1.511 1_556 S
C531 H545 0.961 . S
C531 H546 0.961 . S
C531 H547 0.961 . S
C532 C533 1.370 . S
C532 C534 1.363 . S
C532 H548 0.931 . S
C533 C532 1.370 . S
C533 C537 1.408 . S
C534 C532 1.363 . S
C534 C535 1.370 . S
C534 C538 1.524 . S
C535 C527 1.503 1_556 S
C535 C534 1.370 . S
C535 C536 1.403 . S
C536 C535 1.403 . S
C536 C537 1.404 . S
C536 C539 1.539 . S
C537 C533 1.408 . S
C537 C536 1.404 . S
C537 H549 0.930 . S
C538 C534 1.524 . S
C538 H550 0.956 . S
C538 H551 0.961 . S
C538 H552 0.961 . S
C539 C536 1.539 . S
C539 H553 0.958 1_556 S
C539 H554 0.961 . S
C539 H555 0.960 1_556 S
H540 C524 0.931 . S
H541 C529 0.929 . S
H542 C530 0.960 . S
H543 C530 0.962 . S
H544 C530 0.960 . S
H545 C531 0.961 . S
H546 C531 0.961 . S
H547 C531 0.961 . S
H548 C532 0.931 . S
H549 C537 0.930 . S
H550 C538 0.956 . S
H551 C538 0.961 . S
H552 C538 0.961 . S
H553 C539 0.958 1_554 S
H554 C539 0.961 . S
H555 C539 0.960 1_554 S
C556 C557 1.391 . S
C556 C558 1.394 . S
C556 H572 0.931 . S
C557 C556 1.391 . S
C557 C561 1.376 . S
C558 C556 1.394 . S
C558 C559 1.369 . S
C558 C562 1.531 . S
C559 C558 1.369 . S
C559 C560 1.410 . S
C559 C567 1.503 . S
C560 C559 1.410 . S
C560 C561 1.392 . S
C560 C563 1.511 . S
C561 C557 1.376 . S
C561 C560 1.392 . S
C561 H573 0.929 . S
C562 C558 1.531 . S
C562 H574 0.960 . S
C562 H575 0.962 . S
C562 H576 0.960 . S
C563 C560 1.511 . S
C563 H577 0.961 . S
C563 H578 0.961 . S
C563 H579 0.961 . S
C564 C565 1.370 . S
C564 C566 1.363 . S
C564 H580 0.931 . S
C565 C564 1.370 . S
C565 C569 1.408 . S
C566 C564 1.363 . S
C566 C567 1.370 . S
C566 C570 1.524 . S
C567 C559 1.503 . S
C567 C566 1.370 . S
C567 C568 1.403 . S
C568 C567 1.403 . S
C568 C569 1.404 . S
C568 C571 1.539 . S
C569 C565 1.408 . S
C569 C568 1.404 . S
C569 H581 0.930 . S
C570 C566 1.524 . S
C570 H582 0.956 . S
C570 H583 0.961 . S
C570 H584 0.961 . S
C571 C568 1.539 . S
C571 H585 0.958 . S
C571 H586 0.961 . S
C571 H587 0.960 . S
H572 C556 0.931 . S
H573 C561 0.929 . S
H574 C562 0.960 . S
H575 C562 0.962 . S
H576 C562 0.960 . S
H577 C563 0.961 . S
H578 C563 0.961 . S
H579 C563 0.961 . S
H580 C564 0.931 . S
H581 C569 0.930 . S
H582 C570 0.956 . S
H583 C570 0.961 . S
H584 C570 0.961 . S
H585 C571 0.958 . S
H586 C571 0.961 . S
H587 C571 0.960 . S
C588 C589 1.391 . S
C588 C590 1.394 . S
C588 H604 0.931 . S
C589 C588 1.391 . S
C589 C593 1.376 . S
C590 C588 1.394 . S
C590 C591 1.369 . S
C590 C594 1.531 . S
C591 C590 1.369 . S
C591 C592 1.410 . S
C591 C599 1.503 1_554 S
C592 C591 1.410 . S
C592 C593 1.392 . S
C592 C595 1.511 . S
C593 C589 1.376 . S
C593 C592 1.392 . S
C593 H605 0.929 . S
C594 C590 1.531 . S
C594 H606 0.960 . S
C594 H607 0.962 . S
C594 H608 0.960 . S
C595 C592 1.511 . S
C595 H609 0.961 . S
C595 H610 0.961 1_554 S
C595 H611 0.961 . S
C596 C597 1.370 . S
C596 C598 1.363 . S
C596 H612 0.931 . S
C597 C596 1.370 . S
C597 C601 1.408 . S
C598 C596 1.363 . S
C598 C599 1.370 . S
C598 C602 1.524 . S
C599 C591 1.503 1_556 S
C599 C598 1.370 . S
C599 C600 1.403 1_556 S
C600 C599 1.403 1_554 S
C600 C601 1.404 1_554 S
C600 C603 1.539 . S
C601 C597 1.408 . S
C601 C600 1.404 1_556 S
C601 H613 0.930 . S
C602 C598 1.524 . S
C602 H614 0.956 . S
C602 H615 0.961 . S
C602 H616 0.961 . S
C603 C600 1.539 . S
C603 H617 0.958 . S
C603 H618 0.961 . S
C603 H619 0.960 . S
H604 C588 0.931 . S
H605 C593 0.929 . S
H606 C594 0.960 . S
H607 C594 0.962 . S
H608 C594 0.960 . S
H609 C595 0.961 . S
H610 C595 0.961 1_556 S
H611 C595 0.961 . S
H612 C596 0.931 . S
H613 C601 0.930 . S
H614 C602 0.956 . S
H615 C602 0.961 . S
H616 C602 0.961 . S
H617 C603 0.958 . S
H618 C603 0.961 . S
H619 C603 0.960 . S
C620 C621 1.391 . S
C620 C622 1.394 . S
C620 H636 0.931 . S
C621 C620 1.391 . S
C621 C625 1.376 . S
C622 C620 1.394 . S
C622 C623 1.369 . S
C622 C626 1.531 . S
C623 C622 1.369 . S
C623 C624 1.410 . S
C623 C631 1.503 . S
C624 C623 1.410 . S
C624 C625 1.392 . S
C624 C627 1.511 . S
C625 C621 1.376 . S
C625 C624 1.392 . S
C625 H637 0.929 . S
C626 C622 1.531 . S
C626 H638 0.960 . S
C626 H639 0.962 . S
C626 H640 0.960 . S
C627 C624 1.511 . S
C627 H641 0.961 . S
C627 H642 0.961 . S
C627 H643 0.961 . S
C628 C629 1.370 . S
C628 C630 1.363 . S
C628 H644 0.931 . S
C629 C628 1.370 . S
C629 C633 1.408 . S
C630 C628 1.363 . S
C630 C631 1.370 . S
C630 C634 1.524 . S
C631 C623 1.503 . S
C631 C630 1.370 . S
C631 C632 1.403 . S
C632 C631 1.403 . S
C632 C633 1.404 . S
C632 C635 1.539 . S
C633 C629 1.408 . S
C633 C632 1.404 . S
C633 H645 0.930 . S
C634 C630 1.524 . S
C634 H646 0.956 . S
C634 H647 0.961 . S
C634 H648 0.961 . S
C635 C632 1.539 . S
C635 H649 0.958 . S
C635 H650 0.961 . S
C635 H651 0.960 . S
H636 C620 0.931 . S
H637 C625 0.929 . S
H638 C626 0.960 . S
H639 C626 0.962 . S
H640 C626 0.960 . S
H641 C627 0.961 . S
H642 C627 0.961 . S
H643 C627 0.961 . S
H644 C628 0.931 . S
H645 C633 0.930 . S
H646 C634 0.956 . S
H647 C634 0.961 . S
H648 C634 0.961 . S
H649 C635 0.958 . S
H650 C635 0.961 . S
H651 C635 0.960 . S
C652 C653 1.391 . S
C652 C654 1.394 . S
C652 H668 0.931 . S
C653 C652 1.391 . S
C653 C657 1.376 . S
C654 C652 1.394 . S
C654 C655 1.369 . S
C654 C658 1.531 1_554 S
C655 C654 1.369 . S
C655 C656 1.410 . S
C655 C663 1.503 1_554 S
C656 C655 1.410 . S
C656 C657 1.392 . S
C656 C659 1.511 . S
C657 C653 1.376 . S
C657 C656 1.392 . S
C657 H669 0.929 . S
C658 C654 1.531 1_556 S
C658 H670 0.960 . S
C658 H671 0.962 . S
C658 H672 0.960 1_556 S
C659 C656 1.511 . S
C659 H673 0.961 . S
C659 H674 0.961 . S
C659 H675 0.961 . S
C660 C661 1.370 . S
C660 C662 1.363 . S
C660 H676 0.931 . S
C661 C660 1.370 . S
C661 C665 1.408 . S
C662 C660 1.363 . S
C662 C663 1.370 . S
C662 C666 1.524 . S
C663 C655 1.503 1_556 S
C663 C662 1.370 . S
C663 C664 1.403 . S
C664 C663 1.403 . S
C664 C665 1.404 . S
C664 C667 1.539 1_556 S
C665 C661 1.408 . S
C665 C664 1.404 . S
C665 H677 0.930 . S
C666 C662 1.524 . S
C666 H678 0.956 . S
C666 H679 0.961 . S
C666 H680 0.961 . S
C667 C664 1.539 1_554 S
C667 H681 0.958 . S
C667 H682 0.961 . S
C667 H683 0.960 . S
H668 C652 0.931 . S
H669 C657 0.929 . S
H670 C658 0.960 . S
H671 C658 0.962 . S
H672 C658 0.960 1_554 S
H673 C659 0.961 . S
H674 C659 0.961 . S
H675 C659 0.961 . S
H676 C660 0.931 . S
H677 C665 0.930 . S
H678 C666 0.956 . S
H679 C666 0.961 . S
H680 C666 0.961 . S
H681 C667 0.958 . S
H682 C667 0.961 . S
H683 C667 0.960 . S
C684 C685 1.391 . S
C684 C686 1.394 . S
C684 H700 0.931 . S
C685 C684 1.391 . S
C685 C689 1.376 . S
C686 C684 1.394 . S
C686 C687 1.369 . S
C686 C690 1.531 . S
C687 C686 1.369 . S
C687 C688 1.410 . S
C687 C695 1.503 . S
C688 C687 1.410 . S
C688 C689 1.392 . S
C688 C691 1.511 . S
C689 C685 1.376 . S
C689 C688 1.392 . S
C689 H701 0.929 . S
C690 C686 1.531 . S
C690 H702 0.960 . S
C690 H703 0.962 . S
C690 H704 0.960 . S
C691 C688 1.511 . S
C691 H705 0.961 . S
C691 H706 0.961 . S
C691 H707 0.961 . S
C692 C693 1.370 . S
C692 C694 1.363 . S
C692 H708 0.931 . S
C693 C692 1.370 . S
C693 C697 1.408 . S
C694 C692 1.363 . S
C694 C695 1.370 . S
C694 C698 1.524 . S
C695 C687 1.503 . S
C695 C694 1.370 . S
C695 C696 1.403 . S
C696 C695 1.403 . S
C696 C697 1.404 . S
C696 C699 1.539 . S
C697 C693 1.408 . S
C697 C696 1.404 . S
C697 H709 0.930 . S
C698 C694 1.524 . S
C698 H710 0.956 . S
C698 H711 0.961 . S
C698 H712 0.961 . S
C699 C696 1.539 . S
C699 H713 0.958 . S
C699 H714 0.961 . S
C699 H715 0.960 . S
H700 C684 0.931 . S
H701 C689 0.929 . S
H702 C690 0.960 . S
H703 C690 0.962 . S
H704 C690 0.960 . S
H705 C691 0.961 . S
H706 C691 0.961 . S
H707 C691 0.961 . S
H708 C692 0.931 . S
H709 C697 0.930 . S
H710 C698 0.956 . S
H711 C698 0.961 . S
H712 C698 0.961 . S
H713 C699 0.958 . S
H714 C699 0.961 . S
H715 C699 0.960 . S
C716 C717 1.391 . S
C716 C718 1.394 . S
C716 H732 0.931 . S
C717 C716 1.391 . S
C717 C721 1.376 . S
C718 C716 1.394 . S
C718 C719 1.369 . S
C718 C722 1.531 1_554 S
C719 C718 1.369 . S
C719 C720 1.410 . S
C719 C727 1.503 1_554 S
C720 C719 1.410 . S
C720 C721 1.392 . S
C720 C723 1.511 . S
C721 C717 1.376 . S
C721 C720 1.392 . S
C721 H733 0.929 . S
C722 C718 1.531 1_556 S
C722 H734 0.960 . S
C722 H735 0.962 . S
C722 H736 0.961 . S
C723 C720 1.511 . S
C723 H737 0.961 . S
C723 H738 0.961 . S
C723 H739 0.961 . S
C724 C725 1.370 . S
C724 C726 1.363 . S
C724 H740 0.931 . S
C725 C724 1.370 . S
C725 C729 1.408 . S
C726 C724 1.363 . S
C726 C727 1.370 . S
C726 C730 1.524 . S
C727 C719 1.503 1_556 S
C727 C726 1.370 . S
C727 C728 1.403 . S
C728 C727 1.403 . S
C728 C729 1.404 . S
C728 C731 1.539 1_556 S
C729 C725 1.408 . S
C729 C728 1.404 . S
C729 H741 0.930 . S
C730 C726 1.524 . S
C730 H742 0.956 . S
C730 H743 0.961 . S
C730 H744 0.961 . S
C731 C728 1.539 1_554 S
C731 H745 0.958 . S
C731 H746 0.961 . S
C731 H747 0.960 . S
H732 C716 0.931 . S
H733 C721 0.929 . S
H734 C722 0.960 . S
H735 C722 0.962 . S
H736 C722 0.961 . S
H737 C723 0.961 . S
H738 C723 0.961 . S
H739 C723 0.961 . S
H740 C724 0.931 . S
H741 C729 0.930 . S
H742 C730 0.956 . S
H743 C730 0.961 . S
H744 C730 0.961 . S
H745 C731 0.958 . S
H746 C731 0.961 . S
H747 C731 0.960 . S
C748 C749 1.391 . S
C748 C750 1.394 . S
C748 H764 0.931 . S
C749 C748 1.391 . S
C749 C753 1.376 . S
C750 C748 1.394 . S
C750 C751 1.369 . S
C750 C754 1.531 . S
C751 C750 1.369 . S
C751 C752 1.410 . S
C751 C759 1.503 . S
C752 C751 1.410 . S
C752 C753 1.392 . S
C752 C755 1.511 . S
C753 C749 1.376 . S
C753 C752 1.392 . S
C753 H765 0.929 . S
C754 C750 1.531 . S
C754 H766 0.960 . S
C754 H767 0.962 . S
C754 H768 0.960 . S
C755 C752 1.511 . S
C755 H769 0.961 . S
C755 H770 0.961 . S
C755 H771 0.961 . S
C756 C757 1.370 . S
C756 C758 1.363 . S
C756 H772 0.931 . S
C757 C756 1.370 . S
C757 C761 1.408 . S
C758 C756 1.363 . S
C758 C759 1.370 . S
C758 C762 1.524 . S
C759 C751 1.503 . S
C759 C758 1.370 . S
C759 C760 1.403 . S
C760 C759 1.403 . S
C760 C761 1.404 . S
C760 C763 1.539 . S
C761 C757 1.408 . S
C761 C760 1.404 . S
C761 H773 0.930 . S
C762 C758 1.524 . S
C762 H774 0.956 . S
C762 H775 0.961 . S
C762 H776 0.961 . S
C763 C760 1.539 . S
C763 H777 0.958 . S
C763 H778 0.961 . S
C763 H779 0.960 . S
H764 C748 0.931 . S
H765 C753 0.929 . S
H766 C754 0.960 . S
H767 C754 0.962 . S
H768 C754 0.960 . S
H769 C755 0.961 . S
H770 C755 0.961 . S
H771 C755 0.961 . S
H772 C756 0.931 . S
H773 C761 0.930 . S
H774 C762 0.956 . S
H775 C762 0.961 . S
H776 C762 0.961 . S
H777 C763 0.958 . S
H778 C763 0.961 . S
H779 C763 0.960 . S
C780 C781 1.391 . S
C780 C782 1.394 . S
C780 H796 0.931 . S
C781 C780 1.391 . S
C781 C785 1.376 . S
C782 C780 1.394 . S
C782 C783 1.369 . S
C782 C786 1.531 . S
C783 C782 1.369 . S
C783 C784 1.410 . S
C783 C791 1.503 1_556 S
C784 C783 1.410 . S
C784 C785 1.392 . S
C784 C787 1.511 1_556 S
C785 C781 1.376 . S
C785 C784 1.392 . S
C785 H797 0.929 . S
C786 C782 1.531 . S
C786 H798 0.960 . S
C786 H799 0.962 . S
C786 H800 0.960 . S
C787 C784 1.511 1_554 S
C787 H801 0.961 . S
C787 H802 0.961 . S
C787 H803 0.961 . S
C788 C789 1.370 . S
C788 C790 1.363 . S
C788 H804 0.931 . S
C789 C788 1.370 . S
C789 C793 1.408 . S
C790 C788 1.363 . S
C790 C791 1.370 . S
C790 C794 1.524 1_554 S
C791 C783 1.503 1_554 S
C791 C790 1.370 . S
C791 C792 1.403 . S
C792 C791 1.403 . S
C792 C793 1.404 . S
C792 C795 1.539 . S
C793 C789 1.408 . S
C793 C792 1.404 . S
C793 H805 0.930 . S
C794 C790 1.524 1_556 S
C794 H806 0.956 . S
C794 H807 0.961 . S
C794 H808 0.961 . S
C795 C792 1.539 . S
C795 H809 0.958 . S
C795 H810 0.961 . S
C795 H811 0.960 . S
H796 C780 0.931 . S
H797 C785 0.929 . S
H798 C786 0.960 . S
H799 C786 0.962 . S
H800 C786 0.960 . S
H801 C787 0.961 . S
H802 C787 0.961 . S
H803 C787 0.961 . S
H804 C788 0.931 . S
H805 C793 0.930 . S
H806 C794 0.956 . S
H807 C794 0.961 . S
H808 C794 0.961 . S
H809 C795 0.958 . S
H810 C795 0.961 . S
H811 C795 0.960 . S
C812 C813 1.391 . S
C812 C814 1.394 . S
C812 H828 0.931 . S
C813 C812 1.391 . S
C813 C817 1.376 . S
C814 C812 1.394 . S
C814 C815 1.369 . S
C814 C818 1.531 . S
C815 C814 1.369 . S
C815 C816 1.410 . S
C815 C823 1.503 . S
C816 C815 1.410 . S
C816 C817 1.392 . S
C816 C819 1.511 . S
C817 C813 1.376 . S
C817 C816 1.392 . S
C817 H829 0.929 . S
C818 C814 1.531 . S
C818 H830 0.960 . S
C818 H831 0.962 . S
C818 H832 0.960 . S
C819 C816 1.511 . S
C819 H833 0.961 . S
C819 H834 0.961 . S
C819 H835 0.961 . S
C820 C821 1.370 . S
C820 C822 1.363 . S
C820 H836 0.931 . S
C821 C820 1.370 . S
C821 C825 1.408 . S
C822 C820 1.363 . S
C822 C823 1.370 . S
C822 C826 1.524 . S
C823 C815 1.503 . S
C823 C822 1.370 . S
C823 C824 1.403 . S
C824 C823 1.403 . S
C824 C825 1.404 . S
C824 C827 1.539 . S
C825 C821 1.408 . S
C825 C824 1.404 . S
C825 H837 0.930 . S
C826 C822 1.524 . S
C826 H838 0.956 . S
C826 H839 0.961 . S
C826 H840 0.961 . S
C827 C824 1.539 . S
C827 H841 0.958 . S
C827 H842 0.961 . S
C827 H843 0.960 . S
H828 C812 0.931 . S
H829 C817 0.929 . S
H830 C818 0.960 . S
H831 C818 0.962 . S
H832 C818 0.960 . S
H833 C819 0.961 . S
H834 C819 0.961 . S
H835 C819 0.961 . S
H836 C820 0.931 . S
H837 C825 0.930 . S
H838 C826 0.956 . S
H839 C826 0.961 . S
H840 C826 0.961 . S
H841 C827 0.958 . S
H842 C827 0.961 . S
H843 C827 0.960 . S
C844 C845 1.391 . S
C844 C846 1.394 . S
C844 H860 0.931 . S
C845 C844 1.391 . S
C845 C849 1.376 . S
C846 C844 1.394 . S
C846 C847 1.369 . S
C846 C850 1.531 1_554 S
C847 C846 1.369 . S
C847 C848 1.410 . S
C847 C855 1.503 1_554 S
C848 C847 1.410 . S
C848 C849 1.392 . S
C848 C851 1.511 . S
C849 C845 1.376 . S
C849 C848 1.392 . S
C849 H861 0.929 . S
C850 C846 1.531 1_556 S
C850 H862 0.960 . S
C850 H863 0.962 . S
C850 H864 0.960 . S
C851 C848 1.511 . S
C851 H865 0.961 . S
C851 H866 0.961 . S
C851 H867 0.961 . S
C852 C853 1.370 . S
C852 C854 1.363 . S
C852 H868 0.931 . S
C853 C852 1.370 . S
C853 C857 1.408 . S
C854 C852 1.363 . S
C854 C855 1.370 . S
C854 C858 1.524 . S
C855 C847 1.503 1_556 S
C855 C854 1.370 . S
C855 C856 1.403 . S
C856 C855 1.403 . S
C856 C857 1.404 . S
C856 C859 1.539 1_556 S
C857 C853 1.408 . S
C857 C856 1.404 . S
C857 H869 0.930 . S
C858 C854 1.524 . S
C858 H870 0.956 . S
C858 H871 0.955 1_556 S
C858 H872 0.961 . S
C859 C856 1.539 1_554 S
C859 H873 0.958 1_554 S
C859 H874 0.961 . S
C859 H875 0.960 . S
H860 C844 0.931 . S
H861 C849 0.929 . S
H862 C850 0.960 . S
H863 C850 0.962 . S
H864 C850 0.960 . S
H865 C851 0.961 . S
H866 C851 0.961 . S
H867 C851 0.961 . S
H868 C852 0.931 . S
H869 C857 0.930 . S
H870 C858 0.956 . S
H871 C858 0.955 1_554 S
H872 C858 0.961 . S
H873 C859 0.958 1_556 S
H874 C859 0.961 . S
H875 C859 0.960 . S
C876 C877 1.391 . S
C876 C878 1.394 . S
C876 H892 0.931 . S
C877 C876 1.391 . S
C877 C881 1.376 . S
C878 C876 1.394 . S
C878 C879 1.369 . S
C878 C882 1.531 . S
C879 C878 1.369 . S
C879 C880 1.410 . S
C879 C887 1.503 . S
C880 C879 1.410 . S
C880 C881 1.392 . S
C880 C883 1.511 . S
C881 C877 1.376 . S
C881 C880 1.392 . S
C881 H893 0.929 . S
C882 C878 1.531 . S
C882 H894 0.960 . S
C882 H895 0.962 . S
C882 H896 0.960 . S
C883 C880 1.511 . S
C883 H897 0.961 . S
C883 H898 0.961 . S
C883 H899 0.961 . S
C884 C885 1.370 . S
C884 C886 1.363 . S
C884 H900 0.931 . S
C885 C884 1.370 . S
C885 C889 1.408 . S
C886 C884 1.363 . S
C886 C887 1.370 . S
C886 C890 1.524 . S
C887 C879 1.503 . S
C887 C886 1.370 . S
C887 C888 1.403 . S
C888 C887 1.403 . S
C888 C889 1.404 . S
C888 C891 1.539 . S
C889 C885 1.408 . S
C889 C888 1.404 . S
C889 H901 0.930 . S
C890 C886 1.524 . S
C890 H902 0.956 . S
C890 H903 0.961 . S
C890 H904 0.961 . S
C891 C888 1.539 . S
C891 H905 0.958 . S
C891 H906 0.961 . S
C891 H907 0.960 . S
H892 C876 0.931 . S
H893 C881 0.929 . S
H894 C882 0.960 . S
H895 C882 0.962 . S
H896 C882 0.960 . S
H897 C883 0.961 . S
H898 C883 0.961 . S
H899 C883 0.961 . S
H900 C884 0.931 . S
H901 C889 0.930 . S
H902 C890 0.956 . S
H903 C890 0.961 . S
H904 C890 0.961 . S
H905 C891 0.958 . S
H906 C891 0.961 . S
H907 C891 0.960 . S
C908 C909 1.391 . S
C908 C910 1.394 . S
C908 H924 0.931 . S
C909 C908 1.391 . S
C909 C913 1.376 . S
C910 C908 1.394 . S
C910 C911 1.369 . S
C910 C914 1.531 . S
C911 C910 1.369 . S
C911 C912 1.410 . S
C911 C919 1.503 1_554 S
C912 C911 1.410 . S
C912 C913 1.392 . S
C912 C915 1.511 1_554 S
C913 C909 1.376 . S
C913 C912 1.392 . S
C913 H925 0.929 . S
C914 C910 1.531 . S
C914 H926 0.960 . S
C914 H927 0.962 . S
C914 H928 0.960 . S
C915 C912 1.511 1_556 S
C915 H929 0.961 . S
C915 H930 0.961 . S
C915 H931 0.966 . S
C916 C917 1.370 . S
C916 C918 1.363 . S
C916 H932 0.931 . S
C917 C916 1.370 . S
C917 C921 1.408 . S
C918 C916 1.363 . S
C918 C919 1.370 . S
C918 C922 1.524 . S
C919 C911 1.503 1_556 S
C919 C918 1.370 . S
C919 C920 1.403 . S
C920 C919 1.403 . S
C920 C921 1.404 . S
C920 C923 1.539 1_556 S
C921 C917 1.408 . S
C921 C920 1.404 . S
C921 H933 0.930 . S
C922 C918 1.524 . S
C922 H934 0.956 . S
C922 H935 0.961 . S
C922 H936 0.961 . S
C923 C920 1.539 1_554 S
C923 H937 0.958 . S
C923 H938 0.961 . S
C923 H939 0.960 . S
H924 C908 0.931 . S
H925 C913 0.929 . S
H926 C914 0.960 . S
H927 C914 0.962 . S
H928 C914 0.960 . S
H929 C915 0.961 . S
H930 C915 0.961 . S
H931 C915 0.966 . S
H932 C916 0.931 . S
H933 C921 0.930 . S
H934 C922 0.956 . S
H935 C922 0.961 . S
H936 C922 0.961 . S
H937 C923 0.958 . S
H938 C923 0.961 . S
H939 C923 0.960 . S
C940 C941 1.391 . S
C940 C942 1.394 . S
C940 H956 0.931 . S
C941 C940 1.391 . S
C941 C945 1.376 . S
C942 C940 1.394 . S
C942 C943 1.369 . S
C942 C946 1.531 . S
C943 C942 1.369 . S
C943 C944 1.410 . S
C943 C951 1.503 . S
C944 C943 1.410 . S
C944 C945 1.392 . S
C944 C947 1.511 . S
C945 C941 1.376 . S
C945 C944 1.392 . S
C945 H957 0.929 . S
C946 C942 1.531 . S
C946 H958 0.960 . S
C946 H959 0.962 . S
C946 H960 0.960 . S
C947 C944 1.511 . S
C947 H961 0.961 . S
C947 H962 0.961 . S
C947 H963 0.961 . S
C948 C949 1.370 . S
C948 C950 1.363 . S
C948 H964 0.931 . S
C949 C948 1.370 . S
C949 C953 1.408 . S
C950 C948 1.363 . S
C950 C951 1.370 . S
C950 C954 1.524 . S
C951 C943 1.503 . S
C951 C950 1.370 . S
C951 C952 1.403 . S
C952 C951 1.403 . S
C952 C953 1.404 . S
C952 C955 1.539 . S
C953 C949 1.408 . S
C953 C952 1.404 . S
C953 H965 0.930 . S
C954 C950 1.524 . S
C954 H966 0.956 . S
C954 H967 0.961 . S
C954 H968 0.961 . S
C955 C952 1.539 . S
C955 H969 0.958 . S
C955 H970 0.961 . S
C955 H971 0.960 . S
H956 C940 0.931 . S
H957 C945 0.929 . S
H958 C946 0.960 . S
H959 C946 0.962 . S
H960 C946 0.960 . S
H961 C947 0.961 . S
H962 C947 0.961 . S
H963 C947 0.961 . S
H964 C948 0.931 . S
H965 C953 0.930 . S
H966 C954 0.956 . S
H967 C954 0.961 . S
H968 C954 0.961 . S
H969 C955 0.958 . S
H970 C955 0.961 . S
H971 C955 0.960 . S
C972 C973 1.391 . S
C972 C974 1.394 . S
C972 H988 0.931 . S
C973 C972 1.391 . S
C973 C977 1.376 . S
C974 C972 1.394 . S
C974 C975 1.369 . S
C974 C978 1.531 . S
C975 C974 1.369 . S
C975 C976 1.410 . S
C975 C983 1.503 1_556 S
C976 C975 1.410 . S
C976 C977 1.392 . S
C976 C979 1.511 1_556 S
C977 C973 1.376 . S
C977 C976 1.392 . S
C977 H989 0.929 . S
C978 C974 1.531 . S
C978 H990 0.960 . S
C978 H991 0.962 . S
C978 H992 0.960 . S
C979 C976 1.511 1_554 S
C979 H993 0.961 . S
C979 H994 0.961 . S
C979 H995 0.961 . S
C980 C981 1.370 . S
C980 C982 1.363 . S
C980 H996 0.931 . S
C981 C980 1.370 . S
C981 C985 1.408 . S
C982 C980 1.363 . S
C982 C983 1.370 . S
C982 C986 1.524 1_554 S
C983 C975 1.503 1_554 S
C983 C982 1.370 . S
C983 C984 1.403 . S
C984 C983 1.403 . S
C984 C985 1.404 . S
C984 C987 1.539 . S
C985 C981 1.408 . S
C985 C984 1.404 . S
C985 H997 0.930 . S
C986 C982 1.524 1_556 S
C986 H998 0.956 . S
C986 H999 0.961 . S
C986 H1000 0.961 1_556 S
C987 C984 1.539 . S
C987 H1001 0.958 . S
C987 H1002 0.961 . S
C987 H1003 0.960 . S
H988 C972 0.931 . S
H989 C977 0.929 . S
H990 C978 0.960 . S
H991 C978 0.962 . S
H992 C978 0.960 . S
H993 C979 0.961 . S
H994 C979 0.961 . S
H995 C979 0.961 . S
H996 C980 0.931 . S
H997 C985 0.930 . S
H998 C986 0.956 . S
H999 C986 0.961 . S
H1000 C986 0.961 1_554 S
H1001 C987 0.958 . S
H1002 C987 0.961 . S
H1003 C987 0.960 . S
C1004 C1005 1.391 . S
C1004 C1006 1.394 . S
C1004 H1020 0.931 . S
C1005 C1004 1.391 . S
C1005 C1009 1.376 . S
C1006 C1004 1.394 . S
C1006 C1007 1.369 . S
C1006 C1010 1.531 . S
C1007 C1006 1.369 . S
C1007 C1008 1.410 . S
C1007 C1015 1.503 . S
C1008 C1007 1.410 . S
C1008 C1009 1.392 . S
C1008 C1011 1.511 . S
C1009 C1005 1.376 . S
C1009 C1008 1.392 . S
C1009 H1021 0.929 . S
C1010 C1006 1.531 . S
C1010 H1022 0.960 . S
C1010 H1023 0.962 . S
C1010 H1024 0.960 . S
C1011 C1008 1.511 . S
C1011 H1025 0.961 . S
C1011 H1026 0.961 . S
C1011 H1027 0.961 . S
C1012 C1013 1.370 . S
C1012 C1014 1.363 . S
C1012 H1028 0.931 . S
C1013 C1012 1.370 . S
C1013 C1017 1.408 . S
C1014 C1012 1.363 . S
C1014 C1015 1.370 . S
C1014 C1018 1.524 . S
C1015 C1007 1.503 . S
C1015 C1014 1.370 . S
C1015 C1016 1.403 . S
C1016 C1015 1.403 . S
C1016 C1017 1.404 . S
C1016 C1019 1.539 . S
C1017 C1013 1.408 . S
C1017 C1016 1.404 . S
C1017 H1029 0.930 . S
C1018 C1014 1.524 . S
C1018 H1030 0.956 . S
C1018 H1031 0.961 . S
C1018 H1032 0.961 . S
C1019 C1016 1.539 . S
C1019 H1033 0.958 . S
C1019 H1034 0.961 . S
C1019 H1035 0.960 . S
H1020 C1004 0.931 . S
H1021 C1009 0.929 . S
H1022 C1010 0.960 . S
H1023 C1010 0.962 . S
H1024 C1010 0.960 . S
H1025 C1011 0.961 . S
H1026 C1011 0.961 . S
H1027 C1011 0.961 . S
H1028 C1012 0.931 . S
H1029 C1017 0.930 . S
H1030 C1018 0.956 . S
H1031 C1018 0.961 . S
H1032 C1018 0.961 . S
H1033 C1019 0.958 . S
H1034 C1019 0.961 . S
H1035 C1019 0.960 . S
C1036 C1037 1.391 . S
C1036 C1038 1.394 . S
C1036 H1052 0.931 . S
C1037 C1036 1.391 . S
C1037 C1041 1.376 . S
C1038 C1036 1.394 . S
C1038 C1039 1.369 . S
C1038 C1042 1.531 . S
C1039 C1038 1.369 . S
C1039 C1040 1.410 . S
C1039 C1047 1.503 1_554 S
C1040 C1039 1.410 . S
C1040 C1041 1.392 . S
C1040 C1043 1.511 1_554 S
C1041 C1037 1.376 . S
C1041 C1040 1.392 . S
C1041 H1053 0.929 . S
C1042 C1038 1.531 . S
C1042 H1054 0.960 . S
C1042 H1055 0.962 . S
C1042 H1056 0.960 . S
C1043 C1040 1.511 1_556 S
C1043 H1057 0.961 . S
C1043 H1058 0.961 . S
C1043 H1059 0.961 1_556 S
C1044 C1045 1.370 . S
C1044 C1046 1.363 . S
C1044 H1060 0.931 . S
C1045 C1044 1.370 . S
C1045 C1049 1.408 . S
C1046 C1044 1.363 . S
C1046 C1047 1.370 . S
C1046 C1050 1.524 . S
C1047 C1039 1.503 1_556 S
C1047 C1046 1.370 . S
C1047 C1048 1.403 . S
C1048 C1047 1.403 . S
C1048 C1049 1.404 . S
C1048 C1051 1.539 1_556 S
C1049 C1045 1.408 . S
C1049 C1048 1.404 . S
C1049 H1061 0.930 . S
C1050 C1046 1.524 . S
C1050 H1062 0.956 . S
C1050 H1063 0.961 . S
C1050 H1064 0.961 . S
C1051 C1048 1.539 1_554 S
C1051 H1065 0.958 . S
C1051 H1066 0.961 . S
C1051 H1067 0.960 . S
H1052 C1036 0.931 . S
H1053 C1041 0.929 . S
H1054 C1042 0.960 . S
H1055 C1042 0.962 . S
H1056 C1042 0.960 . S
H1057 C1043 0.961 . S
H1058 C1043 0.961 . S
H1059 C1043 0.961 1_554 S
H1060 C1044 0.931 . S
H1061 C1049 0.930 . S
H1062 C1050 0.956 . S
H1063 C1050 0.961 . S
H1064 C1050 0.961 . S
H1065 C1051 0.958 . S
H1066 C1051 0.961 . S
H1067 C1051 0.960 . S
C1068 C1069 1.391 . S
C1068 C1070 1.394 . S
C1068 H1084 0.931 . S
C1069 C1068 1.391 . S
C1069 C1073 1.376 . S
C1070 C1068 1.394 . S
C1070 C1071 1.369 . S
C1070 C1074 1.531 . S
C1071 C1070 1.369 . S
C1071 C1072 1.410 . S
C1071 C1079 1.503 . S
C1072 C1071 1.410 . S
C1072 C1073 1.392 . S
C1072 C1075 1.511 . S
C1073 C1069 1.376 . S
C1073 C1072 1.392 . S
C1073 H1085 0.929 . S
C1074 C1070 1.531 . S
C1074 H1086 0.960 . S
C1074 H1087 0.962 . S
C1074 H1088 0.960 . S
C1075 C1072 1.511 . S
C1075 H1089 0.961 . S
C1075 H1090 0.961 . S
C1075 H1091 0.961 . S
C1076 C1077 1.370 . S
C1076 C1078 1.363 . S
C1076 H1092 0.931 . S
C1077 C1076 1.370 . S
C1077 C1081 1.408 . S
C1078 C1076 1.363 . S
C1078 C1079 1.370 . S
C1078 C1082 1.524 . S
C1079 C1071 1.503 . S
C1079 C1078 1.370 . S
C1079 C1080 1.403 . S
C1080 C1079 1.403 . S
C1080 C1081 1.404 . S
C1080 C1083 1.539 . S
C1081 C1077 1.408 . S
C1081 C1080 1.404 . S
C1081 H1093 0.930 . S
C1082 C1078 1.524 . S
C1082 H1094 0.956 . S
C1082 H1095 0.961 . S
C1082 H1096 0.961 . S
C1083 C1080 1.539 . S
C1083 H1097 0.958 . S
C1083 H1098 0.961 . S
C1083 H1099 0.960 . S
H1084 C1068 0.931 . S
H1085 C1073 0.929 . S
H1086 C1074 0.960 . S
H1087 C1074 0.962 . S
H1088 C1074 0.960 . S
H1089 C1075 0.961 . S
H1090 C1075 0.961 . S
H1091 C1075 0.961 . S
H1092 C1076 0.931 . S
H1093 C1081 0.930 . S
H1094 C1082 0.956 . S
H1095 C1082 0.961 . S
H1096 C1082 0.961 . S
H1097 C1083 0.958 . S
H1098 C1083 0.961 . S
H1099 C1083 0.960 . S
C1100 C1101 1.391 . S
C1100 C1102 1.394 . S
C1100 H1116 0.931 . S
C1101 C1100 1.391 . S
C1101 C1105 1.376 . S
C1102 C1100 1.394 . S
C1102 C1103 1.369 . S
C1102 C1106 1.531 . S
C1103 C1102 1.369 . S
C1103 C1104 1.410 . S
C1103 C1111 1.503 1_554 S
C1104 C1103 1.410 . S
C1104 C1105 1.392 . S
C1104 C1107 1.511 1_554 S
C1105 C1101 1.376 . S
C1105 C1104 1.392 . S
C1105 H1117 0.929 . S
C1106 C1102 1.531 . S
C1106 H1118 0.960 . S
C1106 H1119 0.962 . S
C1106 H1120 0.960 . S
C1107 C1104 1.511 1_556 S
C1107 H1121 0.961 . S
C1107 H1122 0.961 . S
C1107 H1123 0.961 . S
C1108 C1109 1.370 . S
C1108 C1110 1.363 . S
C1108 H1124 0.931 . S
C1109 C1108 1.370 . S
C1109 C1113 1.408 . S
C1110 C1108 1.363 . S
C1110 C1111 1.370 . S
C1110 C1114 1.524 . S
C1111 C1103 1.503 1_556 S
C1111 C1110 1.370 . S
C1111 C1112 1.403 . S
C1112 C1111 1.403 . S
C1112 C1113 1.404 . S
C1112 C1115 1.539 . S
C1113 C1109 1.408 . S
C1113 C1112 1.404 . S
C1113 H1125 0.930 . S
C1114 C1110 1.524 . S
C1114 H1126 0.956 . S
C1114 H1127 0.961 . S
C1114 H1128 0.961 . S
C1115 C1112 1.539 . S
C1115 H1129 0.958 1_556 S
C1115 H1130 0.961 . S
C1115 H1131 0.960 1_556 S
H1116 C1100 0.931 . S
H1117 C1105 0.929 . S
H1118 C1106 0.960 . S
H1119 C1106 0.962 . S
H1120 C1106 0.960 . S
H1121 C1107 0.961 . S
H1122 C1107 0.961 . S
H1123 C1107 0.961 . S
H1124 C1108 0.931 . S
H1125 C1113 0.930 . S
H1126 C1114 0.956 . S
H1127 C1114 0.961 . S
H1128 C1114 0.961 . S
H1129 C1115 0.958 1_554 S
H1130 C1115 0.961 . S
H1131 C1115 0.960 1_554 S
C1132 C1133 1.391 . S
C1132 C1134 1.394 . S
C1132 H1148 0.931 . S
C1133 C1132 1.391 . S
C1133 C1137 1.376 . S
C1134 C1132 1.394 . S
C1134 C1135 1.369 . S
C1134 C1138 1.531 . S
C1135 C1134 1.369 . S
C1135 C1136 1.410 . S
C1135 C1143 1.503 . S
C1136 C1135 1.410 . S
C1136 C1137 1.392 . S
C1136 C1139 1.511 . S
C1137 C1133 1.376 . S
C1137 C1136 1.392 . S
C1137 H1149 0.929 . S
C1138 C1134 1.531 . S
C1138 H1150 0.960 . S
C1138 H1151 0.962 . S
C1138 H1152 0.960 . S
C1139 C1136 1.511 . S
C1139 H1153 0.961 . S
C1139 H1154 0.961 . S
C1139 H1155 0.961 . S
C1140 C1141 1.370 . S
C1140 C1142 1.363 . S
C1140 H1156 0.931 . S
C1141 C1140 1.370 . S
C1141 C1145 1.408 . S
C1142 C1140 1.363 . S
C1142 C1143 1.370 . S
C1142 C1146 1.524 . S
C1143 C1135 1.503 . S
C1143 C1142 1.370 . S
C1143 C1144 1.403 . S
C1144 C1143 1.403 . S
C1144 C1145 1.404 . S
C1144 C1147 1.539 . S
C1145 C1141 1.408 . S
C1145 C1144 1.404 . S
C1145 H1157 0.930 . S
C1146 C1142 1.524 . S
C1146 H1158 0.956 . S
C1146 H1159 0.961 . S
C1146 H1160 0.961 . S
C1147 C1144 1.539 . S
C1147 H1161 0.958 . S
C1147 H1162 0.961 . S
C1147 H1163 0.960 . S
H1148 C1132 0.931 . S
H1149 C1137 0.929 . S
H1150 C1138 0.960 . S
H1151 C1138 0.962 . S
H1152 C1138 0.960 . S
H1153 C1139 0.961 . S
H1154 C1139 0.961 . S
H1155 C1139 0.961 . S
H1156 C1140 0.931 . S
H1157 C1145 0.930 . S
H1158 C1146 0.956 . S
H1159 C1146 0.961 . S
H1160 C1146 0.961 . S
H1161 C1147 0.958 . S
H1162 C1147 0.961 . S
H1163 C1147 0.960 . S
C1164 C1165 1.391 . S
C1164 C1166 1.394 . S
C1164 H1180 0.931 . S
C1165 C1164 1.391 . S
C1165 C1169 1.376 . S
C1166 C1164 1.394 . S
C1166 C1167 1.369 . S
C1166 C1170 1.531 . S
C1167 C1166 1.369 . S
C1167 C1168 1.410 . S
C1167 C1175 1.503 . S
C1168 C1167 1.410 . S
C1168 C1169 1.392 . S
C1168 C1171 1.511 . S
C1169 C1165 1.376 . S
C1169 C1168 1.392 . S
C1169 H1181 0.929 . S
C1170 C1166 1.531 . S
C1170 H1182 0.960 . S
C1170 H1183 0.962 . S
C1170 H1184 0.960 . S
C1171 C1168 1.511 . S
C1171 H1185 0.961 . S
C1171 H1186 0.961 . S
C1171 H1187 0.961 . S
C1172 C1173 1.370 . S
C1172 C1174 1.363 . S
C1172 H1188 0.931 . S
C1173 C1172 1.370 . S
C1173 C1177 1.408 . S
C1174 C1172 1.363 . S
C1174 C1175 1.370 . S
C1174 C1178 1.524 . S
C1175 C1167 1.503 . S
C1175 C1174 1.370 . S
C1175 C1176 1.403 . S
C1176 C1175 1.403 . S
C1176 C1177 1.404 . S
C1176 C1179 1.539 . S
C1177 C1173 1.408 . S
C1177 C1176 1.404 . S
C1177 H1189 0.930 . S
C1178 C1174 1.524 . S
C1178 H1190 0.956 . S
C1178 H1191 0.961 . S
C1178 H1192 0.961 . S
C1179 C1176 1.539 . S
C1179 H1193 0.958 . S
C1179 H1194 0.961 . S
C1179 H1195 0.960 . S
H1180 C1164 0.931 . S
H1181 C1169 0.929 . S
H1182 C1170 0.960 . S
H1183 C1170 0.962 . S
H1184 C1170 0.960 . S
H1185 C1171 0.961 . S
H1186 C1171 0.961 . S
H1187 C1171 0.961 . S
H1188 C1172 0.931 . S
H1189 C1177 0.930 . S
H1190 C1178 0.956 . S
H1191 C1178 0.961 . S
H1192 C1178 0.961 . S
H1193 C1179 0.958 . S
H1194 C1179 0.961 . S
H1195 C1179 0.960 . S
C1196 C1197 1.391 . S
C1196 C1198 1.394 . S
C1196 H1212 0.931 . S
C1197 C1196 1.391 . S
C1197 C1201 1.376 . S
C1198 C1196 1.394 . S
C1198 C1199 1.369 . S
C1198 C1202 1.531 . S
C1199 C1198 1.369 . S
C1199 C1200 1.410 . S
C1199 C1207 1.503 1_455 S
C1200 C1199 1.410 . S
C1200 C1201 1.392 . S
C1200 C1203 1.511 . S
C1201 C1197 1.376 . S
C1201 C1200 1.392 . S
C1201 H1213 0.929 . S
C1202 C1198 1.531 . S
C1202 H1214 0.960 1_455 S
C1202 H1215 0.962 . S
C1202 H1216 0.960 . S
C1203 C1200 1.511 . S
C1203 H1217 0.961 . S
C1203 H1218 0.961 1_455 S
C1203 H1219 0.961 . S
C1204 C1205 1.370 . S
C1204 C1206 1.363 . S
C1204 H1220 0.931 . S
C1205 C1204 1.370 . S
C1205 C1209 1.408 . S
C1206 C1204 1.363 . S
C1206 C1207 1.370 . S
C1206 C1210 1.524 . S
C1207 C1199 1.503 1_655 S
C1207 C1206 1.370 . S
C1207 C1208 1.403 . S
C1208 C1207 1.403 . S
C1208 C1209 1.404 . S
C1208 C1211 1.539 . S
C1209 C1205 1.408 . S
C1209 C1208 1.404 . S
C1209 H1221 0.930 . S
C1210 C1206 1.524 . S
C1210 H1222 0.956 . S
C1210 H1223 0.950 1_655 S
C1210 H1224 0.961 . S
C1211 C1208 1.539 . S
C1211 H1225 0.958 . S
C1211 H1226 0.961 . S
C1211 H1227 0.960 1_655 S
H1212 C1196 0.931 . S
H1213 C1201 0.929 . S
H1214 C1202 0.960 1_655 S
H1215 C1202 0.962 . S
H1216 C1202 0.960 . S
H1217 C1203 0.961 . S
H1218 C1203 0.961 1_655 S
H1219 C1203 0.961 . S
H1220 C1204 0.931 . S
H1221 C1209 0.930 . S
H1222 C1210 0.956 . S
H1223 C1210 0.950 1_455 S
H1224 C1210 0.961 . S
H1225 C1211 0.958 . S
H1226 C1211 0.961 . S
H1227 C1211 0.960 1_455 S
C1228 C1229 1.391 . S
C1228 C1230 1.394 . S
C1228 H1244 0.931 . S
C1229 C1228 1.391 . S
C1229 C1233 1.376 . S
C1230 C1228 1.394 . S
C1230 C1231 1.369 . S
C1230 C1234 1.531 . S
C1231 C1230 1.369 . S
C1231 C1232 1.410 . S
C1231 C1239 1.503 1_545 S
C1232 C1231 1.410 . S
C1232 C1233 1.392 . S
C1232 C1235 1.511 . S
C1233 C1229 1.376 . S
C1233 C1232 1.392 . S
C1233 H1245 0.929 . S
C1234 C1230 1.531 . S
C1234 H1246 0.940 1_545 S
C1234 H1247 0.962 . S
C1234 H1248 0.960 . S
C1235 C1232 1.511 . S
C1235 H1249 0.961 . S
C1235 H1250 0.961 1_545 S
C1235 H1251 0.961 . S
C1236 C1237 1.370 . S
C1236 C1238 1.363 . S
C1236 H1252 0.931 . S
C1237 C1236 1.370 . S
C1237 C1241 1.408 . S
C1238 C1236 1.363 . S
C1238 C1239 1.370 . S
C1238 C1242 1.524 . S
C1239 C1231 1.503 1_565 S
C1239 C1238 1.370 . S
C1239 C1240 1.403 . S
C1240 C1239 1.403 . S
C1240 C1241 1.404 . S
C1240 C1243 1.539 . S
C1241 C1237 1.408 . S
C1241 C1240 1.404 . S
C1241 H1253 0.930 . S
C1242 C1238 1.524 . S
C1242 H1254 0.956 . S
C1242 H1255 0.964 . S
C1242 H1256 0.961 . S
C1243 C1240 1.539 . S
C1243 H1257 0.958 . S
C1243 H1258 0.961 . S
C1243 H1259 0.960 1_565 S
H1244 C1228 0.931 . S
H1245 C1233 0.929 . S
H1246 C1234 0.940 1_565 S
H1247 C1234 0.962 . S
H1248 C1234 0.960 . S
H1249 C1235 0.961 . S
H1250 C1235 0.961 1_565 S
H1251 C1235 0.961 . S
H1252 C1236 0.931 . S
H1253 C1241 0.930 . S
H1254 C1242 0.956 . S
H1255 C1242 0.964 . S
H1256 C1242 0.961 . S
H1257 C1243 0.958 . S
H1258 C1243 0.961 . S
H1259 C1243 0.960 1_545 S
C1260 C1261 1.391 . S
C1260 C1262 1.394 . S
C1260 H1276 0.931 . S
C1261 C1260 1.391 . S
C1261 C1265 1.376 . S
C1262 C1260 1.394 . S
C1262 C1263 1.369 . S
C1262 C1266 1.531 . S
C1263 C1262 1.369 . S
C1263 C1264 1.410 . S
C1263 C1271 1.503 . S
C1264 C1263 1.410 . S
C1264 C1265 1.392 . S
C1264 C1267 1.511 . S
C1265 C1261 1.376 . S
C1265 C1264 1.392 . S
C1265 H1277 0.929 . S
C1266 C1262 1.531 . S
C1266 H1278 0.960 . S
C1266 H1279 0.962 . S
C1266 H1280 0.960 . S
C1267 C1264 1.511 . S
C1267 H1281 0.961 . S
C1267 H1282 0.961 . S
C1267 H1283 0.961 . S
C1268 C1269 1.370 . S
C1268 C1270 1.363 . S
C1268 H1284 0.931 . S
C1269 C1268 1.370 . S
C1269 C1273 1.408 . S
C1270 C1268 1.363 . S
C1270 C1271 1.370 . S
C1270 C1274 1.524 . S
C1271 C1263 1.503 . S
C1271 C1270 1.370 . S
C1271 C1272 1.403 . S
C1272 C1271 1.403 . S
C1272 C1273 1.404 . S
C1272 C1275 1.539 . S
C1273 C1269 1.408 . S
C1273 C1272 1.404 . S
C1273 H1285 0.930 . S
C1274 C1270 1.524 . S
C1274 H1286 0.956 . S
C1274 H1287 0.961 . S
C1274 H1288 0.961 . S
C1275 C1272 1.539 . S
C1275 H1289 0.958 . S
C1275 H1290 0.961 . S
C1275 H1291 0.960 . S
H1276 C1260 0.931 . S
H1277 C1265 0.929 . S
H1278 C1266 0.960 . S
H1279 C1266 0.962 . S
H1280 C1266 0.960 . S
H1281 C1267 0.961 . S
H1282 C1267 0.961 . S
H1283 C1267 0.961 . S
H1284 C1268 0.931 . S
H1285 C1273 0.930 . S
H1286 C1274 0.956 . S
H1287 C1274 0.961 . S
H1288 C1274 0.961 . S
H1289 C1275 0.958 . S
H1290 C1275 0.961 . S
H1291 C1275 0.960 . S
C1292 C1293 1.391 . S
C1292 C1294 1.394 . S
C1292 H1308 0.931 . S
C1293 C1292 1.391 . S
C1293 C1297 1.376 . S
C1294 C1292 1.394 . S
C1294 C1295 1.369 . S
C1294 C1298 1.531 . S
C1295 C1294 1.369 . S
C1295 C1296 1.410 . S
C1295 C1303 1.503 1_455 S
C1296 C1295 1.410 . S
C1296 C1297 1.392 . S
C1296 C1299 1.511 . S
C1297 C1293 1.376 . S
C1297 C1296 1.392 . S
C1297 H1309 0.929 . S
C1298 C1294 1.531 . S
C1298 H1310 0.960 1_455 S
C1298 H1311 0.962 . S
C1298 H1312 0.960 . S
C1299 C1296 1.511 . S
C1299 H1313 0.961 . S
C1299 H1314 0.961 1_455 S
C1299 H1315 0.961 . S
C1300 C1301 1.370 . S
C1300 C1302 1.363 . S
C1300 H1316 0.931 . S
C1301 C1300 1.370 . S
C1301 C1305 1.408 . S
C1302 C1300 1.363 . S
C1302 C1303 1.370 . S
C1302 C1306 1.524 . S
C1303 C1295 1.503 1_655 S
C1303 C1302 1.370 . S
C1303 C1304 1.403 . S
C1304 C1303 1.403 . S
C1304 C1305 1.404 . S
C1304 C1307 1.539 . S
C1305 C1301 1.408 . S
C1305 C1304 1.404 . S
C1305 H1317 0.930 . S
C1306 C1302 1.524 . S
C1306 H1318 0.956 1_655 S
C1306 H1319 0.961 1_655 S
C1306 H1320 0.961 . S
C1307 C1304 1.539 . S
C1307 H1321 0.958 . S
C1307 H1322 0.961 . S
C1307 H1323 0.960 . S
H1308 C1292 0.931 . S
H1309 C1297 0.929 . S
H1310 C1298 0.960 1_655 S
H1311 C1298 0.962 . S
H1312 C1298 0.960 . S
H1313 C1299 0.961 . S
H1314 C1299 0.961 1_655 S
H1315 C1299 0.961 . S
H1316 C1300 0.931 . S
H1317 C1305 0.930 . S
H1318 C1306 0.956 1_455 S
H1319 C1306 0.961 1_455 S
H1320 C1306 0.961 . S
H1321 C1307 0.958 . S
H1322 C1307 0.961 . S
H1323 C1307 0.960 . S
C1324 C1325 1.391 . S
C1324 C1326 1.394 . S
C1324 H1340 0.931 . S
C1325 C1324 1.391 . S
C1325 C1329 1.376 . S
C1326 C1324 1.394 . S
C1326 C1327 1.369 . S
C1326 C1330 1.531 . S
C1327 C1326 1.369 . S
C1327 C1328 1.410 . S
C1327 C1335 1.503 1_565 S
C1328 C1327 1.410 . S
C1328 C1329 1.392 . S
C1328 C1331 1.511 . S
C1329 C1325 1.376 . S
C1329 C1328 1.392 . S
C1329 H1341 0.929 . S
C1330 C1326 1.531 . S
C1330 H1342 0.960 1_565 S
C1330 H1343 0.962 . S
C1330 H1344 0.960 . S
C1331 C1328 1.511 . S
C1331 H1345 0.961 . S
C1331 H1346 0.961 1_565 S
C1331 H1347 0.961 . S
C1332 C1333 1.370 . S
C1332 C1334 1.363 . S
C1332 H1348 0.931 . S
C1333 C1332 1.370 . S
C1333 C1337 1.408 . S
C1334 C1332 1.363 . S
C1334 C1335 1.370 . S
C1334 C1338 1.524 . S
C1335 C1327 1.503 1_545 S
C1335 C1334 1.370 . S
C1335 C1336 1.403 . S
C1336 C1335 1.403 . S
C1336 C1337 1.404 . S
C1336 C1339 1.539 . S
C1337 C1333 1.408 . S
C1337 C1336 1.404 . S
C1337 H1349 0.930 . S
C1338 C1334 1.524 . S
C1338 H1350 0.956 1_545 S
C1338 H1351 0.961 1_545 S
C1338 H1352 0.961 . S
C1339 C1336 1.539 . S
C1339 H1353 0.958 . S
C1339 H1354 0.961 . S
C1339 H1355 0.960 . S
H1340 C1324 0.931 . S
H1341 C1329 0.929 . S
H1342 C1330 0.960 1_545 S
H1343 C1330 0.962 . S
H1344 C1330 0.960 . S
H1345 C1331 0.961 . S
H1346 C1331 0.961 1_545 S
H1347 C1331 0.961 . S
H1348 C1332 0.931 . S
H1349 C1337 0.930 . S
H1350 C1338 0.956 1_565 S
H1351 C1338 0.961 1_565 S
H1352 C1338 0.961 . S
H1353 C1339 0.958 . S
H1354 C1339 0.961 . S
H1355 C1339 0.960 . S
C397 C7 2.306 . S
C405 C205 2.322 . S
C429 C40 2.316 . S
C437 C238 2.311 . S
C461 C73 2.325 . S
C469 C271 2.314 . S
C493 C304 2.321 . S
C501 C106 2.321 . S
C525 C139 2.304 . S
C533 C337 2.312 . S
C557 C370 2.323 . S
C565 C172 2.320 . S
C589 N310 0.894 . S
C597 N112 0.965 . S
C621 N145 0.913 . S
C629 N343 0.955 . S
C653 N376 0.901 . S
C661 N178 0.965 . S
C685 N211 0.992 . S
C693 N13 0.927 . S
C717 N244 0.902 . S
C725 N46 0.965 . S
C749 N79 0.926 . S
C757 N277 0.957 . S
C781 N332 0.859 . S
C789 N2 0.793 . S
C813 N35 0.798 . S
C821 N365 0.849 . S
C845 N68 0.825 . S
C853 N200 0.844 . S
C877 N101 0.839 . S
C885 N233 0.796 . S
C909 N134 0.755 . S
C917 N266 0.832 . S
C941 N167 0.793 . S
C949 N299 0.809 . S
C973 C117 1.756 . S
C981 C249 1.772 . S
C1005 C150 1.764 . S
C1013 C282 1.768 . S
C1037 C315 1.775 . S
C1045 C183 1.763 . S
C1069 C18 1.759 . S
C1077 C348 1.768 . S
C1101 C381 1.770 . S
C1109 C51 1.766 . S
C1133 C84 1.774 . S
C1141 C216 1.764 . S
C1165 C21 1.240 . S
C1173 C318 1.236 . S
C1197 C351 1.220 . S
C1205 C54 1.238 . S
C1229 C384 1.248 . S
C1237 C87 1.249 . S
C1261 C219 1.229 . S
C1269 C120 1.243 . S
C1293 C153 1.239 . S
C1301 C252 1.235 . S
C1325 C285 1.235 . S
C1333 C186 1.234 . S
