# Generated by pormake.
# Topology unf, (4)-cn, num edge types: 1
# Building blocks:
#     Node 0, Type 0, BuildingBlock: QUQFOY_clean_sbu_1, # of connection points: 4
#     Node 1, Type 0, BuildingBlock: QUQFOY_clean_sbu_1, # of connection points: 4
#     Node 2, Type 0, BuildingBlock: QUQFOY_clean_sbu_1, # of connection points: 4
#     Node 3, Type 0, BuildingBlock: QUQFOY_clean_sbu_1, # of connection points: 4
#     Node 4, Type 0, BuildingBlock: QUQFOY_clean_sbu_1, # of connection points: 4
#     Node 5, Type 0, BuildingBlock: QUQFOY_clean_sbu_1, # of connection points: 4
#     Node 6, Type 0, BuildingBlock: QUQFOY_clean_sbu_1, # of connection points: 4
#     Node 7, Type 0, BuildingBlock: QUQFOY_clean_sbu_1, # of connection points: 4
#     Node 8, Type 0, BuildingBlock: QUQFOY_clean_sbu_1, # of connection points: 4
#     Node 9, Type 0, BuildingBlock: QUQFOY_clean_sbu_1, # of connection points: 4
#     Node 10, Type 0, BuildingBlock: QUQFOY_clean_sbu_1, # of connection points: 4
#     Node 11, Type 0, BuildingBlock: QUQFOY_clean_sbu_1, # of connection points: 4
#     Edge 12, Type (0, 0), BuildingBlock: CIFDUS_clean_linker_0, # of connection points: 2
#     Edge 13, Type (0, 0), BuildingBlock: CIFDUS_clean_linker_0, # of connection points: 2
#     Edge 14, Type (0, 0), BuildingBlock: CIFDUS_clean_linker_0, # of connection points: 2
#     Edge 15, Type (0, 0), BuildingBlock: CIFDUS_clean_linker_0, # of connection points: 2
#     Edge 16, Type (0, 0), BuildingBlock: CIFDUS_clean_linker_0, # of connection points: 2
#     Edge 17, Type (0, 0), BuildingBlock: CIFDUS_clean_linker_0, # of connection points: 2
#     Edge 18, Type (0, 0), BuildingBlock: CIFDUS_clean_linker_0, # of connection points: 2
#     Edge 19, Type (0, 0), BuildingBlock: CIFDUS_clean_linker_0, # of connection points: 2
#     Edge 20, Type (0, 0), BuildingBlock: CIFDUS_clean_linker_0, # of connection points: 2
#     Edge 21, Type (0, 0), BuildingBlock: CIFDUS_clean_linker_0, # of connection points: 2
#     Edge 22, Type (0, 0), BuildingBlock: CIFDUS_clean_linker_0, # of connection points: 2
#     Edge 23, Type (0, 0), BuildingBlock: CIFDUS_clean_linker_0, # of connection points: 2
#     Edge 24, Type (0, 0), BuildingBlock: CIFDUS_clean_linker_0, # of connection points: 2
#     Edge 25, Type (0, 0), BuildingBlock: CIFDUS_clean_linker_0, # of connection points: 2
#     Edge 26, Type (0, 0), BuildingBlock: CIFDUS_clean_linker_0, # of connection points: 2
#     Edge 27, Type (0, 0), BuildingBlock: CIFDUS_clean_linker_0, # of connection points: 2
#     Edge 28, Type (0, 0), BuildingBlock: CIFDUS_clean_linker_0, # of connection points: 2
#     Edge 29, Type (0, 0), BuildingBlock: CIFDUS_clean_linker_0, # of connection points: 2
#     Edge 30, Type (0, 0), BuildingBlock: CIFDUS_clean_linker_0, # of connection points: 2
#     Edge 31, Type (0, 0), BuildingBlock: CIFDUS_clean_linker_0, # of connection points: 2
#     Edge 32, Type (0, 0), BuildingBlock: CIFDUS_clean_linker_0, # of connection points: 2
#     Edge 33, Type (0, 0), BuildingBlock: CIFDUS_clean_linker_0, # of connection points: 2
#     Edge 34, Type (0, 0), BuildingBlock: CIFDUS_clean_linker_0, # of connection points: 2
#     Edge 35, Type (0, 0), BuildingBlock: CIFDUS_clean_linker_0, # of connection points: 2
# Relax obj value: 0.122
# Max RMSD: 0.157
# Mean RMSD: 0.157
data_MOF--net-unf--node1-QUQFOY_clean_sbu_1--edge1-CIFDUS_clean_linker_0
_symmetry_space_group_name_H-M    P1
_symmetry_Int_Tables_number       1
_symmetry_cell_setting            triclinic
loop_
_symmetry_equiv_pos_as_xyz
'x, y, z'
_cell_length_a     35.702906
_cell_length_b     35.641642
_cell_length_c     35.934972
_cell_angle_alpha  90.019257
_cell_angle_beta   90.121397
_cell_angle_gamma 119.9607
loop_
_atom_site_label
_atom_site_type_symbol
_atom_site_fract_x
_atom_site_fract_y
_atom_site_fract_z
_atom_type_partial_charge
O0 O 0.10189 0.31064 0.05571 0.0
Cd1 Cd 0.06267 0.32144 0.0912 0.0
Cd2 Cd 0.07832 0.37401 0.03769 0.0
O3 O 0.13681 0.3768 0.03336 0.0
O4 O 0.06341 0.29176 0.13784 0.0
O5 O 0.09335 0.36294 0.13333 0.0
C6 C 0.08672 0.32953 0.15261 0.0
C7 C 0.06212 0.42876 0.03246 0.0
C8 C 0.13389 0.34013 0.03805 0.0
C9 C -0.00591 0.29637 0.03926 0.0
O10 O 0.02648 0.31824 0.01852 0.0
O11 O -0.00082 0.29862 0.07436 0.0
O12 O 0.07605 0.41687 0.00427 0.0
O13 O 0.06306 0.41348 0.0649 0.0
O14 O 0.66393 0.79589 0.05475 0.0
Cd15 Cd 0.658 0.74206 0.0823 0.0
Cd16 Cd 0.61434 0.71097 0.02026 0.0
O17 O 0.60652 0.76363 0.01848 0.0
O18 O 0.69113 0.76779 0.12896 0.0
O19 O 0.61999 0.72579 0.1278 0.0
C20 C 0.6548 0.7506 0.14634 0.0
C21 C 0.5635 0.63875 0.01581 0.0
C22 C 0.63701 0.79787 0.03275 0.0
C23 C 0.69274 0.70906 0.02555 0.0
O24 O 0.67303 0.72116 1.00365 0.0
O25 O 0.6853 0.70702 0.06028 0.0
O26 O 0.57282 0.66407 0.9874 0.0
O27 O 0.57958 0.65578 0.04791 0.0
O28 O 0.18812 0.85462 0.07453 0.0
Cd29 Cd 0.23891 0.9017 0.10601 0.0
Cd30 Cd 0.27432 0.89633 0.04145 0.0
O31 O 0.22258 0.83631 0.03399 0.0
O32 O 0.20806 0.90578 0.15058 0.0
O33 O 0.25245 0.8795 0.15314 0.0
C34 C 0.22554 0.88807 0.16973 0.0
C35 C 0.34656 0.91841 0.03444 0.0
C36 C 0.18766 0.82953 0.04906 0.0
C37 C 0.2726 0.97484 0.05414 0.0
O38 O 0.26328 0.94573 0.0299 0.0
O39 O 0.27296 0.96607 0.08835 0.0
O40 O 0.32094 0.90701 0.00606 0.0
O41 O 0.32994 0.91258 0.06737 0.0
O42 O 0.62817 0.85055 0.43587 0.0
Cd43 Cd 0.64537 0.89286 0.39207 0.0
Cd44 Cd 0.60112 0.92415 0.44686 0.0
O45 O 0.5961 0.8722 0.4765 0.0
O46 O 0.66919 0.86733 0.35633 0.0
O47 O 0.61091 0.87176 0.34426 0.0
C48 C 0.6377 0.85931 0.33415 0.0
C49 C 0.55292 0.94854 0.4608 0.0
C50 C 0.60935 0.8466 0.46675 0.0
C51 C 0.6945 0.98437 0.41965 0.0
O52 O 0.66097 0.97627 0.43791 0.0
O53 O 0.69585 0.95554 0.39983 0.0
O54 O 0.58151 0.95165 0.48428 0.0
O55 O 0.5497 0.92899 0.4297 0.0
O56 O 0.13982 0.78341 0.46681 0.0
Cd57 Cd 0.09555 0.75589 0.42434 0.0
Cd58 Cd 0.0645 0.68622 0.4825 0.0
O59 O 0.11688 0.7337 0.51128 0.0
O60 O 0.12008 0.80248 0.38598 0.0
O61 O 0.11404 0.73844 0.37717 0.0
C62 C 0.12632 0.77692 0.36491 0.0
C63 C 0.04362 0.61345 0.49022 0.0
C64 C 0.14362 0.77109 0.49905 0.0
C65 C 0.00473 0.7181 0.45331 0.0
O66 O 0.01204 0.69355 0.47384 0.0
O67 O 0.0336 0.74578 0.43193 0.0
O68 O 0.03916 0.63544 0.5165 0.0
O69 O 0.06259 0.6336 0.46003 0.0
O70 O 0.19899 0.31704 0.43877 0.0
Cd71 Cd 0.23543 0.31571 0.39476 0.0
Cd72 Cd 0.29536 0.3755 0.44731 0.0
O73 O 0.24332 0.38365 0.45806 0.0
O74 O 0.18992 0.27835 0.35803 0.0
O75 O 0.23632 0.34734 0.34753 0.0
C76 C 0.20309 0.31161 0.33674 0.0
C77 C 0.36446 0.42804 0.46779 0.0
C78 C 0.20618 0.34999 0.45787 0.0
C79 C 0.28276 0.28534 0.43735 0.0
O80 O 0.28806 0.31582 0.4589 0.0
O81 O 0.26905 0.28339 0.40438 0.0
O82 O 0.3332 0.40683 0.49056 0.0
O83 O 0.35588 0.42196 0.43267 0.0
O84 O 0.85457 0.62611 0.93175 0.0
Cd85 Cd 0.89714 0.6213 0.89588 0.0
Cd86 Cd 0.89293 0.57643 0.95943 0.0
O87 O 0.83464 0.57162 0.97061 0.0
O88 O 0.89537 0.65755 0.85439 0.0
O89 O 0.8711 0.58767 0.84804 0.0
C90 C 0.87597 0.62325 0.83418 0.0
C91 C 0.91301 0.52466 0.96876 0.0
C92 C 0.83 0.60217 0.95762 0.0
C93 C 0.97238 0.65924 0.94478 0.0
O94 O 0.94491 0.63606 0.96912 0.0
O95 O 0.96224 0.65337 0.91048 0.0
O96 O 0.90367 0.54156 0.99641 0.0
O97 O 0.90594 0.53352 0.93546 0.0
O98 O 0.36095 0.22526 0.96905 0.0
Cd99 Cd 0.36933 0.2723 0.93138 0.0
Cd100 Cd 0.41085 0.31546 1.00035 0.0
O101 O 0.40678 0.25794 0.01517 0.0
O102 O 0.32846 0.23336 0.89259 0.0
O103 O 0.39838 0.27249 0.88242 0.0
C104 C 0.36054 0.24393 0.87068 0.0
C105 C 0.46825 0.38434 0.00912 0.0
C106 C 0.37906 0.22347 0.99895 0.0
C107 C 0.3348 0.32019 0.97402 0.0
O108 O 0.35506 0.31799 1.00215 0.0
O109 O 0.34035 0.30898 0.94189 0.0
O110 O 0.44792 0.36019 0.03717 0.0
O111 O 0.45926 0.36733 0.9762 0.0
O112 O 0.7528 0.13971 0.93788 0.0
Cd113 Cd 0.70701 0.09661 0.90071 0.0
Cd114 Cd 0.66421 0.09416 0.96634 0.0
O115 O 0.71605 0.15251 0.98033 0.0
O116 O 0.7465 0.09974 0.86012 0.0
O117 O 0.69928 0.12165 0.85228 0.0
C118 C 0.73045 0.11727 0.83901 0.0
C119 C 0.59197 0.07203 0.9754 0.0
C120 C 0.75188 0.16093 0.96603 0.0
C121 C 0.67127 0.01799 0.94638 0.0
O122 O 0.67384 0.04286 0.97264 0.0
O123 O 0.6758 0.03087 0.91287 0.0
O124 O 0.61775 0.07974 1.00318 0.0
O125 O 0.60841 0.08149 0.94236 0.0
O126 O 0.31742 0.11331 0.58983 0.0
Cd127 Cd 0.32899 0.07757 0.62839 0.0
Cd128 Cd 0.3711 0.07075 0.56087 0.0
O129 O 0.35675 0.11633 0.54127 0.0
O130 O 0.30777 0.09172 0.67443 0.0
O131 O 0.37633 0.11106 0.66627 0.0
C132 C 0.34703 0.11231 0.68638 0.0
C133 C 0.42989 0.0667 0.53791 0.0
C134 C 0.33208 0.12726 0.55748 0.0
C135 C 0.29576 0.98974 0.5967 0.0
O136 O 0.3218 0.00923 0.57027 0.0
O137 O 0.29399 0.01057 0.6247 0.0
O138 O 0.39725 0.05849 0.51718 0.0
O139 O 0.43101 0.08112 0.57112 0.0
O140 O 0.86771 0.18869 0.54776 0.0
Cd141 Cd 0.90192 0.22335 0.59369 0.0
Cd142 Cd 0.91201 0.29147 0.54554 0.0
O143 O 0.8613 0.23982 0.5185 0.0
O144 O 0.88548 0.17921 0.63367 0.0
O145 O 0.8702 0.23206 0.63645 0.0
C146 C 0.86784 0.19791 0.65124 0.0
C147 C 0.92309 0.36136 0.5375 0.0
C148 C 0.85213 0.2006 0.52151 0.0
C149 C -0.01065 0.27983 0.56501 0.0
O150 O 0.97147 0.29572 0.54493 0.0
O151 O 0.96792 0.25161 0.58955 0.0
O152 O 0.92633 0.33972 0.51033 0.0
O153 O 0.9098 0.34192 0.56907 0.0
O154 O 0.78252 0.68604 0.55366 0.0
Cd155 Cd 0.74439 0.67901 0.59897 0.0
Cd156 Cd 0.68013 0.62002 0.54175 0.0
O157 O 0.7377 0.62586 0.52354 0.0
O158 O 0.78742 0.70931 0.63941 0.0
O159 O 0.74159 0.63889 0.64021 0.0
C160 C 0.77356 0.67244 0.65552 0.0
C161 C 0.6155 0.56399 0.51715 0.0
C162 C 0.77525 0.65833 0.52835 0.0
C163 C 0.68199 0.7031 0.57064 0.0
O164 O 0.67224 0.67303 0.54709 0.0
O165 O 0.70829 0.70947 0.59696 0.0
O166 O 0.6436 0.59436 0.49647 0.0
O167 O 0.62537 0.56335 0.55164 0.0
H168 H 0.21753 0.39722 0.02024 0.0
H169 H 0.12205 0.26112 0.02015 0.0
H170 H 0.17519 0.24351 0.99614 0.0
H171 H 0.24988 0.26615 0.97901 0.0
H172 H 0.34723 0.40098 0.9839 0.0
H173 H 0.29245 0.4201 1.00174 0.0
C174 C 0.20841 0.36381 0.01463 0.0
C175 C 0.16612 0.33052 0.02209 0.0
C176 C 0.23944 0.35378 1.00163 0.0
C177 C 0.15461 0.28728 0.01498 0.0
C178 C 0.18489 0.27716 1.00113 0.0
C179 C 0.25867 0.29971 0.98336 0.0
C180 C 0.30181 0.33232 0.97975 0.0
C181 C 0.22747 0.31004 0.99486 0.0
C182 C 0.31372 0.37566 0.98618 0.0
C183 C 0.28257 0.38645 0.99654 0.0
H184 H 0.61923 0.82185 0.96636 0.0
H185 H 0.66978 0.86935 0.07621 0.0
H186 H 0.6846 0.94169 0.05886 0.0
H187 H 0.68462 0.99138 0.01251 0.0
H188 H 0.63837 0.94631 0.90122 0.0
H189 H 0.62087 0.87287 0.91891 0.0
C190 C 0.63305 0.84804 0.9865 0.0
C191 C 0.64312 0.84047 0.02256 0.0
C192 C 0.64267 0.88984 0.97598 0.0
C193 C 0.66177 0.87461 0.04832 0.0
C194 C 0.67031 0.9159 0.03841 0.0
C195 C 0.67064 0.96551 0.99206 0.0
C196 C 0.66258 0.9741 0.95568 0.0
C197 C 0.66119 0.92388 1.00229 0.0
C198 C 0.64501 0.94042 0.92938 0.0
C199 C 0.63481 0.89848 0.93954 0.0
H200 H 0.16772 0.79635 0.97902 0.0
H201 H 0.11365 0.78563 0.08845 0.0
H202 H 0.04237 0.73199 0.06539 0.0
H203 H -0.00458 0.69011 0.01437 0.0
H204 H 0.0471 0.70207 0.90377 0.0
H205 H 0.11956 0.75398 0.92698 0.0
C206 C 0.14035 0.78177 0.99782 0.0
C207 C 0.1458 0.79455 0.03541 0.0
C208 C 0.09918 0.75181 0.98411 0.0
C209 C 0.11011 0.77617 0.05942 0.0
C210 C 0.0694 0.74565 0.04626 0.0
C211 C 0.02247 0.70395 0.99522 0.0
C212 C 0.01597 0.6922 0.95742 0.0
C213 C 0.06356 0.73363 0.00865 0.0
C214 C 0.0513 0.7108 0.93297 0.0
C215 C 0.09269 0.74024 0.94628 0.0
H216 H 0.6124 0.68676 0.52936 0.0
H217 H 0.71223 0.78524 0.59829 0.0
H218 H 0.69164 0.83779 0.57705 0.0
H219 H 0.65397 0.85824 0.5303 0.0
H220 H 0.55964 0.76043 0.45759 0.0
H221 H 0.56871 0.70472 0.48921 0.0
C222 C 0.62929 0.71956 0.54024 0.0
C223 C 0.66443 0.73241 0.56469 0.0
C224 C 0.61823 0.74967 0.52704 0.0
C225 C 0.68531 0.77469 0.57917 0.0
C226 C 0.67369 0.80478 0.56687 0.0
C227 C 0.6344 0.82443 0.52248 0.0
C228 C 0.60592 0.81295 0.49211 0.0
C229 C 0.64144 0.79305 0.53962 0.0
C230 C 0.58134 0.76951 0.48126 0.0
C231 C 0.58684 0.73787 0.49908 0.0
H232 H 0.13712 0.80625 0.5637 0.0
H233 H 0.22862 0.80753 0.48499 0.0
H234 H 0.28675 0.87266 0.5141 0.0
H235 H 0.30824 0.93505 0.55415 0.0
H236 H 0.21618 0.93913 0.62915 0.0
H237 H 0.16164 0.86563 0.61008 0.0
C238 C 0.17014 0.82016 0.55394 0.0
C239 C 0.17905 0.80239 0.52257 0.0
C240 C 0.20294 0.85883 0.56974 0.0
C241 C 0.22148 0.82081 0.50933 0.0
C242 C 0.25452 0.85811 0.52577 0.0
C243 C 0.27643 0.91963 0.56682 0.0
C244 C 0.26587 0.94274 0.5924 0.0
C245 C 0.24515 0.87838 0.5548 0.0
C246 C 0.22493 0.92205 0.6092 0.0
C247 C 0.1937 0.88018 0.59809 0.0
H248 H 0.05195 0.35502 0.53599 0.0
H249 H 0.02587 0.22898 0.57267 0.0
H250 H 0.0931 0.24106 0.54408 0.0
H251 H 0.15409 0.28369 0.50204 0.0
H252 H 0.18197 0.41075 0.46722 0.0
H253 H 0.11891 0.40217 0.50173 0.0
C254 C 0.06149 0.33059 0.53833 0.0
C255 C 0.03389 0.29095 0.55589 0.0
C256 C 0.09993 0.33768 0.52168 0.0
C257 C 0.0467 0.25974 0.55929 0.0
C258 C 0.08487 0.26646 0.54265 0.0
C259 C 0.14644 0.30958 0.50239 0.0
C260 C 0.17169 0.34739 0.48172 0.0
C261 C 0.11083 0.30463 0.52267 0.0
C262 C 0.1625 0.38128 0.48283 0.0
C263 C 0.12655 0.37632 0.50246 0.0
H264 H 0.71123 0.64919 0.05397 0.0
H265 H 0.73633 0.73484 0.96072 0.0
H266 H 0.77846 0.70694 0.93065 0.0
H267 H 0.80799 0.65886 0.93055 0.0
H268 H 0.78392 0.57215 0.02273 0.0
H269 H 0.74047 0.59903 0.05315 0.0
C270 C 0.72643 0.66201 0.02728 0.0
C271 C 0.72109 0.69428 0.00967 0.0
C272 C 0.75005 0.64518 0.00974 0.0
C273 C 0.74014 0.71012 0.9748 0.0
C274 C 0.76407 0.69406 0.95753 0.0
C275 C 0.79314 0.64555 0.95727 0.0
C276 C 0.79937 0.6137 0.97445 0.0
C277 C 0.76902 0.66154 0.97464 0.0
C278 C 0.7795 0.59659 0.00886 0.0
C279 C 0.75497 0.61223 0.02638 0.0
H280 H 0.32283 0.14636 0.96881 0.0
H281 H 0.40288 0.20352 0.06595 0.0
H282 H 0.37479 0.13126 0.09318 0.0
H283 H 0.3273 0.05144 0.08869 0.0
H284 H 0.24877 -0.00308 0.9903 0.0
H285 H 0.27599 0.06899 0.96456 0.0
C286 C 0.33437 0.14331 0.99596 0.0
C287 C 0.36497 0.18036 0.01528 0.0
C288 C 0.31793 0.10214 0.0114 0.0
C289 C 0.37947 0.17549 0.05039 0.0
C290 C 0.36324 0.13423 0.06604 0.0
C291 C 0.31578 0.05557 0.0619 0.0
C292 C 0.28598 0.01902 0.04145 0.0
C293 C 0.33226 0.09729 0.04682 0.0
C294 C 0.27173 0.02459 0.00652 0.0
C295 C 0.28737 0.06573 0.99171 0.0
H296 H 0.91445 0.27124 0.0689 0.0
H297 H 0.97842 0.26413 0.9695 0.0
H298 H 0.90941 0.22516 0.93737 0.0
H299 H 0.8315 0.19213 0.93739 0.0
H300 H 0.76523 0.19761 0.03574 0.0
H301 H 0.83467 0.2393 0.06806 0.0
C302 C 0.91305 0.26073 0.04035 0.0
C303 C 0.95137 0.27019 0.0217 0.0
C304 C 0.87307 0.23872 0.02167 0.0
C305 C 0.94934 0.25714 0.98449 0.0
C306 C 0.90993 0.23499 0.96601 0.0
C307 C 0.83209 0.20264 0.96584 0.0
C308 C 0.79325 0.19154 0.98419 0.0
C309 C 0.87171 0.22566 0.98429 0.0
C310 C 0.79473 0.20587 0.02092 0.0
C311 C 0.83438 0.22934 0.03952 0.0
H312 H 0.33346 0.14509 0.48321 0.0
H313 H 0.30485 0.17701 0.59156 0.0
H314 H 0.28623 0.22753 0.5634 0.0
H315 H 0.27917 0.26349 0.50897 0.0
H316 H 0.30462 0.23167 0.39961 0.0
H317 H 0.32293 0.1797 0.42718 0.0
C318 C 0.32322 0.16322 0.50055 0.0
C319 C 0.32076 0.15747 0.53943 0.0
C320 C 0.31187 0.19198 0.48408 0.0
C321 C 0.30694 0.18073 0.56158 0.0
C322 C 0.29632 0.20969 0.54554 0.0
C323 C 0.28876 0.24524 0.49105 0.0
C324 C 0.29106 0.25167 0.4524 0.0
C325 C 0.29883 0.21564 0.50696 0.0
C326 C 0.30267 0.2272 0.4295 0.0
C327 C 0.3133 0.19772 0.44527 0.0
H328 H 0.85894 0.13416 0.49324 0.0
H329 H 0.78032 0.19466 0.48926 0.0
H330 H 0.7266 0.1349 0.45113 0.0
H331 H 0.69805 0.06117 0.4267 0.0
H332 H 0.77716 0.00121 0.42943 0.0
H333 H 0.83561 0.06582 0.45933 0.0
C334 C 0.83024 0.13439 0.48358 0.0
C335 C 0.82286 0.16801 0.49456 0.0
C336 C 0.79994 0.10029 0.46139 0.0
C337 C 0.78628 0.16879 0.48131 0.0
C338 C 0.75565 0.13467 0.45961 0.0
C339 C 0.72863 0.06287 0.43288 0.0
C340 C 0.73339 0.02659 0.42632 0.0
C341 C 0.76158 0.09969 0.45049 0.0
C342 C 0.77303 0.02896 0.43409 0.0
C343 C 0.80614 0.06562 0.45162 0.0
H344 H 0.92753 0.64536 0.45546 0.0
H345 H 0.98799 0.7844 0.46061 0.0
H346 H 0.91995 0.77824 0.48207 0.0
H347 H 0.84642 0.73267 0.50716 0.0
H348 H 0.78568 0.59356 0.49972 0.0
H349 H 0.85069 0.60022 0.47094 0.0
C350 C 0.92536 0.67426 0.46044 0.0
C351 C 0.96242 0.71522 0.45689 0.0
C352 C 0.88642 0.67036 0.47278 0.0
C353 C 0.95959 0.75258 0.46305 0.0
C354 C 0.9209 0.74901 0.47565 0.0
C355 C 0.84733 0.7039 0.49875 0.0
C356 C 0.8118 0.66268 0.5061 0.0
C357 C 0.88461 0.70802 0.48189 0.0
C358 C 0.81281 0.6256 0.49448 0.0
C359 C 0.84997 0.62938 0.47816 0.0
H360 H 0.20669 0.3778 0.29526 0.0
H361 H 0.14459 0.23842 0.30094 0.0
H362 H 0.10144 0.23186 0.24615 0.0
H363 H 0.08159 0.26516 0.19631 0.0
H364 H 0.14268 0.40434 0.18967 0.0
H365 H 0.18528 0.41144 0.24542 0.0
C366 C 0.18395 0.34605 0.28429 0.0
C367 C 0.17915 0.30867 0.30208 0.0
C368 C 0.15862 0.3424 0.25287 0.0
C369 C 0.14908 0.26774 0.28781 0.0
C370 C 0.12423 0.26391 0.2565 0.0
C371 C 0.10388 0.29712 0.20719 0.0
C372 C 0.10879 0.33414 0.18879 0.0
C373 C 0.12863 0.30095 0.23888 0.0
C374 C 0.13802 0.37525 0.20334 0.0
C375 C 0.16264 0.37934 0.23511 0.0
H376 H 0.59274 0.76224 0.17883 0.0
H377 H 0.71535 0.76999 0.1999 0.0
H378 H 0.7199 0.80287 0.26064 0.0
H379 H 0.69185 0.83417 0.30551 0.0
H380 H 0.57143 0.83097 0.28346 0.0
H381 H 0.56334 0.79196 0.2252 0.0
C382 C 0.61991 0.77028 0.19715 0.0
C383 C 0.65349 0.76337 0.18517 0.0
C384 C 0.62311 0.79076 0.23147 0.0
C385 C 0.68905 0.77482 0.2087 0.0
C386 C 0.69179 0.79385 0.24328 0.0
C387 C 0.66373 0.82489 0.28806 0.0
C388 C 0.63243 0.83576 0.29876 0.0
C389 C 0.65952 0.80288 0.25456 0.0
C390 C 0.59618 0.82333 0.27577 0.0
C391 C 0.59145 0.80086 0.24252 0.0
H392 H 0.21616 0.81712 0.20662 0.0
H393 H 0.20374 0.93072 0.21956 0.0
H394 H 0.17325 0.90686 0.28157 0.0
H395 H 0.14646 0.85216 0.33048 0.0
H396 H 0.15414 0.7359 0.31701 0.0
H397 H 0.18974 0.76205 0.25674 0.0
C398 C 0.20744 0.8369 0.22339 0.0
C399 C 0.21247 0.87578 0.20879 0.0
C400 C 0.18846 0.82217 0.2586 0.0
C401 C 0.20025 0.90075 0.23034 0.0
C402 C 0.18267 0.88704 0.2657 0.0
C403 C 0.15597 0.83249 0.31447 0.0
C404 C 0.14751 0.79205 0.32822 0.0
C405 C 0.17592 0.84749 0.27982 0.0
C406 C 0.16003 0.76703 0.30699 0.0
C407 C 0.18053 0.78205 0.27258 0.0
H408 H 0.88324 0.69403 0.79976 0.0
H409 H 0.82412 0.55548 0.78771 0.0
H410 H 0.78611 0.55799 0.73171 0.0
H411 H 0.76806 0.59981 0.68711 0.0
H412 H 0.8284 0.73843 0.70042 0.0
H413 H 0.86702 0.73544 0.75519 0.0
C414 C 0.86235 0.66432 0.78479 0.0
C415 C 0.85661 0.62463 0.79797 0.0
C416 C 0.84032 0.66596 0.75302 0.0
C417 C 0.82934 0.58653 0.7781 0.0
C418 C 0.80736 0.58791 0.7462 0.0
C419 C 0.78946 0.62926 0.70217 0.0
C420 C 0.79507 0.66926 0.68975 0.0
C421 C 0.81219 0.62744 0.73363 0.0
C422 C 0.82336 0.70721 0.70933 0.0
C423 C 0.8456 0.70558 0.74066 0.0
H424 H 0.41921 0.23532 0.82763 0.0
H425 H 0.28505 0.20118 0.83297 0.0
H426 H 0.26932 0.15707 0.7772 0.0
H427 H 0.29246 0.12626 0.72822 0.0
H428 H 0.42596 0.15876 0.72133 0.0
H429 H 0.44304 0.205 0.77656 0.0
C430 C 0.38672 0.21867 0.81622 0.0
C431 C 0.35336 0.22159 0.83443 0.0
C432 C 0.37761 0.19256 0.78421 0.0
C433 C 0.3113 0.19944 0.81958 0.0
C434 C 0.3022 0.17405 0.78772 0.0
C435 C 0.32534 0.14323 0.7388 0.0
C436 C 0.3578 0.13873 0.7208 0.0
C437 C 0.3349 0.16991 0.77015 0.0
C438 C 0.40026 0.16139 0.7348 0.0
C439 C 0.41007 0.18799 0.76629 0.0
H440 H 0.78795 0.1025 0.80258 0.0
H441 H 0.71624 0.16991 0.79216 0.0
H442 H 0.75318 0.20199 0.73339 0.0
H443 H 0.80757 0.2121 0.68562 0.0
H444 H 0.87713 0.14247 0.69672 0.0
H445 H 0.83962 0.11045 0.75473 0.0
C446 C 0.78014 0.12404 0.78742 0.0
C447 C 0.74944 0.13386 0.80182 0.0
C448 C 0.80148 0.14231 0.75389 0.0
C449 C 0.73962 0.16166 0.78164 0.0
C450 C 0.76093 0.1802 0.74814 0.0
C451 C 0.81459 0.19008 0.70088 0.0
C452 C 0.84533 0.17991 0.68695 0.0
C453 C 0.79228 0.17108 0.73415 0.0
C454 C 0.85368 0.15088 0.70678 0.0
C455 C 0.8322 0.13248 0.73997 0.0
H456 H 0.0308 0.4396 0.96731 0.0
H457 H 0.03862 0.46925 0.08451 0.0
H458 H -0.00946 0.49899 0.07536 0.0
H459 H 0.94532 0.51505 0.03425 0.0
H460 H 0.93658 0.48387 0.91727 0.0
H461 H 0.98522 0.45498 0.92644 0.0
C462 C 0.02263 0.45323 0.99081 0.0
C463 C 0.03874 0.45274 0.0265 0.0
C464 C -0.00599 0.46897 0.98553 0.0
C465 C 0.02704 0.46969 0.05672 0.0
C466 C -0.00076 0.4863 0.05154 0.0
C467 C 0.95354 0.5014 0.0108 0.0
C468 C 0.93707 0.50139 0.97512 0.0
C469 C 0.98211 0.48557 0.01615 0.0
C470 C 0.9485 0.484 0.94504 0.0
C471 C 0.97662 0.46783 0.95021 0.0
H472 H 0.5595 0.57776 0.06358 0.0
H473 H 0.51774 0.59366 0.95482 0.0
H474 H 0.48925 0.51698 0.94158 0.0
H475 H 0.47626 0.44552 0.96071 0.0
H476 H 0.51511 0.42843 0.07016 0.0
H477 H 0.546 0.50585 0.08293 0.0
C478 C 0.54355 0.56431 0.03721 0.0
C479 C 0.54044 0.59133 0.01035 0.0
C480 C 0.52782 0.52028 0.02953 0.0
C481 C 0.52029 0.57351 0.97609 0.0
C482 C 0.50434 0.52975 0.96834 0.0
C483 C 0.49242 0.45896 0.98701 0.0
C484 C 0.49419 0.4316 0.01422 0.0
C485 C 0.50839 0.50297 0.99467 0.0
C486 C 0.51399 0.44911 0.04863 0.0
C487 C 0.53117 0.49321 0.05606 0.0
H488 H 0.38925 0.95522 0.97063 0.0
H489 H 0.40996 0.9388 0.08646 0.0
H490 H 0.48771 0.98743 0.07877 0.0
H491 H 0.54931 0.0352 0.03941 0.0
H492 H 0.52838 0.05209 0.92371 0.0
H493 H 0.45073 0.00334 0.93141 0.0
C494 C 0.41079 0.96175 0.99412 0.0
C495 C 0.39389 0.94305 0.02901 0.0
C496 C 0.45519 0.99049 0.98971 0.0
C497 C 0.4222 0.95248 0.05926 0.0
C498 C 0.46659 0.98054 0.05494 0.0
C499 C 0.52776 0.02872 0.01594 0.0
C500 C 0.54464 0.04752 0.98105 0.0
C501 C 0.48333 7e-05 0.0204 0.0
C502 C 0.51624 0.03832 0.9509 0.0
C503 C 0.47188 0.01017 0.95521 0.0
H504 H 0.56279 0.00135 0.51867 0.0
H505 H 0.48499 0.94286 0.42064 0.0
H506 H 0.44286 0.97827 0.43406 0.0
H507 H 0.42639 0.0231 0.47502 0.0
H508 H 0.50334 0.0803 0.57374 0.0
H509 H 0.54842 0.0488 0.55806 0.0
C510 C 0.53653 -0.00381 0.50024 0.0
C511 C 0.52667 0.96907 0.46892 0.0
C512 C 0.51272 0.01678 0.50801 0.0
C513 C 0.49297 0.96326 0.44508 0.0
C514 C 0.46902 0.98363 0.45267 0.0
C515 C 0.45343 0.02929 0.49286 0.0
C516 C 0.46147 0.054 0.52557 0.0
C517 C 0.47847 0.01022 0.48417 0.0
C518 C 0.49651 0.06148 0.5484 0.0
C519 C 0.52209 0.04323 0.53959 0.0
H520 H 0.96685 0.41172 0.47893 0.0
H521 H 0.91689 0.41653 0.58703 0.0
H522 H 0.95081 0.49536 0.58213 0.0
H523 H -0.00374 0.56275 0.54784 0.0
H524 H 0.04728 0.5575 0.44032 0.0
H525 H 0.01173 0.47869 0.44464 0.0
C526 C 0.96288 0.42987 0.5013 0.0
C527 C 0.93914 0.40823 0.53325 0.0
C528 C 0.98321 0.47507 0.49864 0.0
C529 C 0.93479 0.43237 0.56209 0.0
C530 C 0.95439 0.47744 0.55938 0.0
C531 C -0.00014 0.54443 0.52542 0.0
C532 C 0.02461 0.56604 0.49386 0.0
C533 C 0.9791 0.49913 0.52797 0.0
C534 C 0.02865 0.54174 0.46499 0.0
C535 C 0.00815 0.49666 0.46735 0.0
H536 H 0.4399 0.46375 0.42858 0.0
H537 H 0.38918 0.45115 0.53967 0.0
H538 H 0.46225 0.48827 0.56508 0.0
H539 H 0.54073 0.52472 0.55602 0.0
H540 H 0.59209 0.54007 0.44507 0.0
H541 H 0.5188 0.5007 0.41947 0.0
C542 C 0.44488 0.46956 0.45828 0.0
C543 C 0.40908 0.45484 0.48211 0.0
C544 C 0.48714 0.49073 0.47286 0.0
C545 C 0.41612 0.46226 0.52062 0.0
C546 C 0.45793 0.48327 0.53526 0.0
C547 C 0.53583 0.51871 0.52632 0.0
C548 C 0.57167 0.53476 0.50251 0.0
C549 C 0.49367 0.49735 0.51171 0.0
C550 C 0.56491 0.52768 0.46398 0.0
C551 C 0.52304 0.50548 0.44931 0.0
loop_
_geom_bond_atom_site_label_1
_geom_bond_atom_site_label_2
_geom_bond_distance
_geom_bond_site_symmetry_2
_ccdc_geom_bond_type
O0 Cd1 2.223 . S
O0 C8 1.315 . S
Cd1 O0 2.223 . S
Cd1 O4 2.297 . S
Cd1 O5 2.439 . S
Cd1 O11 2.240 . S
Cd2 O3 2.240 . S
Cd2 O10 2.234 . S
Cd2 O12 2.297 . S
Cd2 O13 2.439 . S
O3 Cd2 2.240 . S
O3 C8 1.279 . S
O4 Cd1 2.297 . S
O4 C6 1.247 . S
O5 Cd1 2.439 . S
O5 C6 1.208 . S
C6 O4 1.247 . S
C6 O5 1.208 . S
C7 O12 1.247 . S
C7 O13 1.208 . S
C8 O0 1.315 . S
C8 O3 1.279 . S
C9 O10 1.339 . S
C9 O11 1.279 . S
O10 Cd2 2.234 . S
O10 C9 1.339 . S
O11 Cd1 2.240 . S
O11 C9 1.279 . S
O12 Cd2 2.297 . S
O12 C7 1.247 . S
O13 Cd2 2.439 . S
O13 C7 1.208 . S
O14 Cd15 2.223 . S
O14 C22 1.315 . S
Cd15 O14 2.223 . S
Cd15 O18 2.297 . S
Cd15 O19 2.439 . S
Cd15 O25 2.240 . S
Cd16 O17 2.240 . S
Cd16 O24 2.234 . S
Cd16 O26 2.297 . S
Cd16 O27 2.439 . S
O17 Cd16 2.240 . S
O17 C22 1.279 . S
O18 Cd15 2.297 . S
O18 C20 1.247 . S
O19 Cd15 2.439 . S
O19 C20 1.208 . S
C20 O18 1.247 . S
C20 O19 1.208 . S
C21 O26 1.247 . S
C21 O27 1.208 . S
C22 O14 1.315 . S
C22 O17 1.279 . S
C23 O24 1.339 . S
C23 O25 1.279 . S
O24 Cd16 2.234 . S
O24 C23 1.339 . S
O25 Cd15 2.240 . S
O25 C23 1.279 . S
O26 Cd16 2.297 . S
O26 C21 1.247 . S
O27 Cd16 2.439 . S
O27 C21 1.208 . S
O28 Cd29 2.223 . S
O28 C36 1.315 . S
Cd29 O28 2.223 . S
Cd29 O32 2.297 . S
Cd29 O33 2.439 . S
Cd29 O39 2.240 . S
Cd30 O31 2.240 . S
Cd30 O38 2.234 . S
Cd30 O40 2.297 . S
Cd30 O41 2.439 . S
O31 Cd30 2.240 . S
O31 C36 1.279 . S
O32 Cd29 2.297 . S
O32 C34 1.247 . S
O33 Cd29 2.439 . S
O33 C34 1.208 . S
C34 O32 1.247 . S
C34 O33 1.208 . S
C35 O40 1.247 . S
C35 O41 1.208 . S
C36 O28 1.315 . S
C36 O31 1.279 . S
C37 O38 1.339 . S
C37 O39 1.279 . S
O38 Cd30 2.234 . S
O38 C37 1.339 . S
O39 Cd29 2.240 . S
O39 C37 1.279 . S
O40 Cd30 2.297 . S
O40 C35 1.247 . S
O41 Cd30 2.439 . S
O41 C35 1.208 . S
O42 Cd43 2.223 . S
O42 C50 1.315 . S
Cd43 O42 2.223 . S
Cd43 O46 2.297 . S
Cd43 O47 2.439 . S
Cd43 O53 2.240 . S
Cd44 O45 2.240 . S
Cd44 O52 2.223 . S
Cd44 O54 2.297 . S
Cd44 O55 2.439 . S
O45 Cd44 2.240 . S
O45 C50 1.279 . S
O46 Cd43 2.297 . S
O46 C48 1.247 . S
O47 Cd43 2.439 . S
O47 C48 1.208 . S
C48 O46 1.247 . S
C48 O47 1.208 . S
C49 O54 1.247 . S
C49 O55 1.208 . S
C50 O42 1.315 . S
C50 O45 1.279 . S
C51 O52 1.315 . S
C51 O53 1.279 . S
O52 Cd44 2.223 . S
O52 C51 1.315 . S
O53 Cd43 2.240 . S
O53 C51 1.279 . S
O54 Cd44 2.297 . S
O54 C49 1.247 . S
O55 Cd44 2.439 . S
O55 C49 1.208 . S
O56 Cd57 2.223 . S
O56 C64 1.315 . S
Cd57 O56 2.223 . S
Cd57 O60 2.297 . S
Cd57 O61 2.439 . S
Cd57 O67 2.240 . S
Cd58 O59 2.240 . S
Cd58 O66 2.223 . S
Cd58 O68 2.297 . S
Cd58 O69 2.439 . S
O59 Cd58 2.240 . S
O59 C64 1.279 . S
O60 Cd57 2.297 . S
O60 C62 1.247 . S
O61 Cd57 2.439 . S
O61 C62 1.208 . S
C62 O60 1.247 . S
C62 O61 1.208 . S
C63 O68 1.247 . S
C63 O69 1.208 . S
C64 O56 1.315 . S
C64 O59 1.279 . S
C65 O66 1.315 . S
C65 O67 1.279 . S
O66 Cd58 2.223 . S
O66 C65 1.315 . S
O67 Cd57 2.240 . S
O67 C65 1.279 . S
O68 Cd58 2.297 . S
O68 C63 1.247 . S
O69 Cd58 2.439 . S
O69 C63 1.208 . S
O70 Cd71 2.223 . S
O70 C78 1.315 . S
Cd71 O70 2.223 . S
Cd71 O74 2.297 . S
Cd71 O75 2.439 . S
Cd71 O81 2.240 . S
Cd72 O73 2.240 . S
Cd72 O80 2.223 . S
Cd72 O82 2.297 . S
Cd72 O83 2.439 . S
O73 Cd72 2.240 . S
O73 C78 1.279 . S
O74 Cd71 2.297 . S
O74 C76 1.247 . S
O75 Cd71 2.439 . S
O75 C76 1.208 . S
C76 O74 1.247 . S
C76 O75 1.208 . S
C77 O82 1.247 . S
C77 O83 1.208 . S
C78 O70 1.315 . S
C78 O73 1.279 . S
C79 O80 1.315 . S
C79 O81 1.279 . S
O80 Cd72 2.223 . S
O80 C79 1.315 . S
O81 Cd71 2.240 . S
O81 C79 1.279 . S
O82 Cd72 2.297 . S
O82 C77 1.247 . S
O83 Cd72 2.439 . S
O83 C77 1.208 . S
O84 Cd85 2.223 . S
O84 C92 1.315 . S
Cd85 O84 2.223 . S
Cd85 O88 2.297 . S
Cd85 O89 2.439 . S
Cd85 O95 2.240 . S
Cd86 O87 2.240 . S
Cd86 O94 2.234 . S
Cd86 O96 2.297 . S
Cd86 O97 2.439 . S
O87 Cd86 2.240 . S
O87 C92 1.279 . S
O88 Cd85 2.297 . S
O88 C90 1.247 . S
O89 Cd85 2.439 . S
O89 C90 1.208 . S
C90 O88 1.247 . S
C90 O89 1.208 . S
C91 O96 1.247 . S
C91 O97 1.208 . S
C92 O84 1.315 . S
C92 O87 1.279 . S
C93 O94 1.339 . S
C93 O95 1.279 . S
O94 Cd86 2.234 . S
O94 C93 1.339 . S
O95 Cd85 2.240 . S
O95 C93 1.279 . S
O96 Cd86 2.297 . S
O96 C91 1.247 . S
O97 Cd86 2.439 . S
O97 C91 1.208 . S
O98 Cd99 2.223 . S
O98 C106 1.315 . S
Cd99 O98 2.223 . S
Cd99 O102 2.297 . S
Cd99 O103 2.439 . S
Cd99 O109 2.240 . S
Cd100 O101 2.240 . S
Cd100 O108 2.234 . S
Cd100 O110 2.297 . S
Cd100 O111 2.439 . S
O101 Cd100 2.240 . S
O101 C106 1.279 . S
O102 Cd99 2.297 . S
O102 C104 1.247 . S
O103 Cd99 2.439 . S
O103 C104 1.208 . S
C104 O102 1.247 . S
C104 O103 1.208 . S
C105 O110 1.247 . S
C105 O111 1.208 . S
C106 O98 1.315 . S
C106 O101 1.279 . S
C107 O108 1.339 . S
C107 O109 1.279 . S
O108 Cd100 2.234 . S
O108 C107 1.339 . S
O109 Cd99 2.240 . S
O109 C107 1.279 . S
O110 Cd100 2.297 . S
O110 C105 1.247 . S
O111 Cd100 2.439 . S
O111 C105 1.208 . S
O112 Cd113 2.223 . S
O112 C120 1.315 . S
Cd113 O112 2.223 . S
Cd113 O116 2.297 . S
Cd113 O117 2.439 . S
Cd113 O123 2.240 . S
Cd114 O115 2.240 . S
Cd114 O122 2.234 . S
Cd114 O124 2.297 . S
Cd114 O125 2.439 . S
O115 Cd114 2.240 . S
O115 C120 1.279 . S
O116 Cd113 2.297 . S
O116 C118 1.247 . S
O117 Cd113 2.439 . S
O117 C118 1.208 . S
C118 O116 1.247 . S
C118 O117 1.208 . S
C119 O124 1.247 . S
C119 O125 1.208 . S
C120 O112 1.315 . S
C120 O115 1.279 . S
C121 O122 1.339 . S
C121 O123 1.279 . S
O122 Cd114 2.234 . S
O122 C121 1.339 . S
O123 Cd113 2.240 . S
O123 C121 1.279 . S
O124 Cd114 2.297 . S
O124 C119 1.247 . S
O125 Cd114 2.439 . S
O125 C119 1.208 . S
O126 Cd127 2.223 . S
O126 C134 1.315 . S
Cd127 O126 2.223 . S
Cd127 O130 2.297 . S
Cd127 O131 2.439 . S
Cd127 O137 2.240 . S
Cd128 O129 2.240 . S
Cd128 O136 2.223 . S
Cd128 O138 2.297 . S
Cd128 O139 2.439 . S
O129 Cd128 2.240 . S
O129 C134 1.279 . S
O130 Cd127 2.297 . S
O130 C132 1.247 . S
O131 Cd127 2.439 . S
O131 C132 1.208 . S
C132 O130 1.247 . S
C132 O131 1.208 . S
C133 O138 1.247 . S
C133 O139 1.208 . S
C134 O126 1.315 . S
C134 O129 1.279 . S
C135 O136 1.315 . S
C135 O137 1.279 . S
O136 Cd128 2.223 . S
O136 C135 1.315 . S
O137 Cd127 2.240 . S
O137 C135 1.279 . S
O138 Cd128 2.297 . S
O138 C133 1.247 . S
O139 Cd128 2.439 . S
O139 C133 1.208 . S
O140 Cd141 2.223 . S
O140 C148 1.315 . S
Cd141 O140 2.223 . S
Cd141 O144 2.297 . S
Cd141 O145 2.439 . S
Cd141 O151 2.240 . S
Cd142 O143 2.240 . S
Cd142 O150 2.223 . S
Cd142 O152 2.297 . S
Cd142 O153 2.439 . S
O143 Cd142 2.240 . S
O143 C148 1.279 . S
O144 Cd141 2.297 . S
O144 C146 1.247 . S
O145 Cd141 2.439 . S
O145 C146 1.208 . S
C146 O144 1.247 . S
C146 O145 1.208 . S
C147 O152 1.247 . S
C147 O153 1.208 . S
C148 O140 1.315 . S
C148 O143 1.279 . S
C149 O150 1.315 . S
C149 O151 1.279 . S
O150 Cd142 2.223 . S
O150 C149 1.315 . S
O151 Cd141 2.240 . S
O151 C149 1.279 . S
O152 Cd142 2.297 . S
O152 C147 1.247 . S
O153 Cd142 2.439 . S
O153 C147 1.208 . S
O154 Cd155 2.223 . S
O154 C162 1.315 . S
Cd155 O154 2.223 . S
Cd155 O158 2.297 . S
Cd155 O159 2.439 . S
Cd155 O165 2.240 . S
Cd156 O157 2.240 . S
Cd156 O164 2.223 . S
Cd156 O166 2.297 . S
Cd156 O167 2.439 . S
O157 Cd156 2.240 . S
O157 C162 1.279 . S
O158 Cd155 2.297 . S
O158 C160 1.247 . S
O159 Cd155 2.439 . S
O159 C160 1.208 . S
C160 O158 1.247 . S
C160 O159 1.208 . S
C161 O166 1.247 . S
C161 O167 1.208 . S
C162 O154 1.315 . S
C162 O157 1.279 . S
C163 O164 1.315 . S
C163 O165 1.279 . S
O164 Cd156 2.223 . S
O164 C163 1.315 . S
O165 Cd155 2.240 . S
O165 C163 1.279 . S
O166 Cd156 2.297 . S
O166 C161 1.247 . S
O167 Cd156 2.439 . S
O167 C161 1.208 . S
H168 C174 0.930 . S
H169 C177 0.930 . S
H170 C178 0.930 . S
H171 C179 0.930 . S
H172 C182 0.930 . S
H173 C183 0.930 . S
C174 H168 0.930 . S
C174 C175 1.355 . S
C174 C176 1.415 . S
C175 C174 1.355 . S
C175 C177 1.419 1_554 S
C176 C174 1.415 . S
C176 C181 1.425 1_554 S
C176 C183 1.409 . S
C177 H169 0.930 . S
C177 C175 1.419 1_556 S
C177 C178 1.362 . S
C178 H170 0.930 . S
C178 C177 1.362 . S
C178 C181 1.409 . S
C179 H171 0.930 . S
C179 C180 1.355 . S
C179 C181 1.415 . S
C180 C179 1.355 . S
C180 C182 1.419 1_556 S
C181 C176 1.425 1_556 S
C181 C178 1.409 . S
C181 C179 1.415 . S
C182 H172 0.930 . S
C182 C180 1.419 1_554 S
C182 C183 1.362 . S
C183 H173 0.930 . S
C183 C176 1.409 . S
C183 C182 1.362 . S
H184 C190 0.930 . S
H185 C193 0.930 . S
H186 C194 0.930 . S
H187 C195 0.930 . S
H188 C198 0.930 . S
H189 C199 0.930 . S
C190 H184 0.930 . S
C190 C191 1.355 . S
C190 C192 1.418 . S
C191 C190 1.355 . S
C191 C193 1.419 . S
C192 C190 1.418 . S
C192 C197 1.426 . S
C192 C199 1.405 1_554 S
C193 H185 0.930 . S
C193 C191 1.419 . S
C193 C194 1.362 . S
C194 H186 0.930 . S
C194 C193 1.362 . S
C194 C197 1.409 . S
C195 H187 0.930 . S
C195 C196 1.355 . S
C195 C197 1.415 1_556 S
C196 C195 1.355 . S
C196 C198 1.419 . S
C197 C192 1.426 . S
C197 C194 1.409 . S
C197 C195 1.415 1_554 S
C198 H188 0.930 . S
C198 C196 1.419 . S
C198 C199 1.362 . S
C199 H189 0.930 . S
C199 C192 1.405 1_556 S
C199 C198 1.362 . S
H200 C206 0.930 . S
H201 C209 0.930 . S
H202 C210 0.930 . S
H203 C211 0.930 . S
H204 C214 0.930 . S
H205 C215 0.930 1_554 S
C206 H200 0.930 . S
C206 C207 1.355 . S
C206 C208 1.415 . S
C207 C206 1.355 . S
C207 C209 1.419 . S
C208 C206 1.415 . S
C208 C213 1.425 1_554 S
C208 C215 1.409 1_554 S
C209 H201 0.930 . S
C209 C207 1.419 . S
C209 C210 1.362 . S
C210 H202 0.930 . S
C210 C209 1.362 . S
C210 C213 1.409 1_554 S
C211 H203 0.930 . S
C211 C212 1.355 . S
C211 C213 1.414 . S
C212 C211 1.355 . S
C212 C214 1.419 . S
C213 C208 1.425 1_556 S
C213 C210 1.409 1_556 S
C213 C211 1.414 . S
C214 H204 0.930 . S
C214 C212 1.419 . S
C214 C215 1.362 . S
C215 H205 0.930 1_556 S
C215 C208 1.409 1_556 S
C215 C214 1.362 . S
H216 C222 0.930 . S
H217 C225 0.930 . S
H218 C226 0.930 . S
H219 C227 0.930 . S
H220 C230 0.930 . S
H221 C231 0.930 . S
C222 H216 0.930 . S
C222 C223 1.355 . S
C222 C224 1.415 . S
C223 C222 1.355 . S
C223 C225 1.419 . S
C224 C222 1.415 . S
C224 C229 1.425 . S
C224 C231 1.409 . S
C225 H217 0.930 . S
C225 C223 1.419 . S
C225 C226 1.362 . S
C226 H218 0.930 . S
C226 C225 1.362 . S
C226 C229 1.409 . S
C227 H219 0.930 . S
C227 C228 1.355 . S
C227 C229 1.415 . S
C228 C227 1.355 . S
C228 C230 1.419 . S
C229 C224 1.425 . S
C229 C226 1.409 . S
C229 C227 1.415 . S
C230 H220 0.930 . S
C230 C228 1.419 . S
C230 C231 1.362 . S
C231 H221 0.930 . S
C231 C224 1.409 . S
C231 C230 1.362 . S
H232 C238 0.930 . S
H233 C241 0.930 . S
H234 C242 0.930 . S
H235 C243 0.930 . S
H236 C246 0.944 . S
H237 C247 0.930 . S
C238 H232 0.930 . S
C238 C239 1.355 . S
C238 C240 1.415 . S
C239 C238 1.355 . S
C239 C241 1.419 . S
C240 C238 1.415 . S
C240 C245 1.425 . S
C240 C247 1.409 . S
C241 H233 0.930 . S
C241 C239 1.419 . S
C241 C242 1.362 . S
C242 H234 0.930 . S
C242 C241 1.362 . S
C242 C245 1.409 . S
C243 H235 0.930 . S
C243 C244 1.355 . S
C243 C245 1.415 . S
C244 C243 1.355 . S
C244 C246 1.419 . S
C245 C240 1.425 . S
C245 C242 1.409 . S
C245 C243 1.415 . S
C246 H236 0.944 . S
C246 C244 1.419 . S
C246 C247 1.362 . S
C247 H237 0.930 . S
C247 C240 1.409 . S
C247 C246 1.362 . S
H248 C254 0.930 . S
H249 C257 0.930 . S
H250 C258 0.930 . S
H251 C259 0.930 . S
H252 C262 0.930 . S
H253 C263 0.930 . S
C254 H248 0.930 . S
C254 C255 1.355 . S
C254 C256 1.415 . S
C255 C254 1.355 . S
C255 C257 1.419 . S
C256 C254 1.415 . S
C256 C261 1.425 . S
C256 C263 1.409 . S
C257 H249 0.930 . S
C257 C255 1.419 . S
C257 C258 1.362 . S
C258 H250 0.930 . S
C258 C257 1.362 . S
C258 C261 1.409 . S
C259 H251 0.930 . S
C259 C260 1.355 . S
C259 C261 1.415 . S
C260 C259 1.355 . S
C260 C262 1.419 . S
C261 C256 1.425 . S
C261 C258 1.409 . S
C261 C259 1.415 . S
C262 H252 0.930 . S
C262 C260 1.419 . S
C262 C263 1.362 . S
C263 H253 0.930 . S
C263 C256 1.409 . S
C263 C262 1.362 . S
H264 C270 0.930 . S
H265 C273 0.930 . S
H266 C274 0.930 . S
H267 C275 0.930 . S
H268 C278 0.930 . S
H269 C279 0.930 . S
C270 H264 0.930 . S
C270 C271 1.355 . S
C270 C272 1.415 . S
C271 C270 1.355 . S
C271 C273 1.419 1_554 S
C272 C270 1.415 . S
C272 C277 1.425 1_554 S
C272 C279 1.409 . S
C273 H265 0.930 . S
C273 C271 1.419 1_556 S
C273 C274 1.362 . S
C274 H266 0.930 . S
C274 C273 1.362 . S
C274 C277 1.409 . S
C275 H267 0.930 . S
C275 C276 1.355 . S
C275 C277 1.415 . S
C276 C275 1.355 . S
C276 C278 1.419 1_556 S
C277 C272 1.425 1_556 S
C277 C274 1.409 . S
C277 C275 1.415 . S
C278 H268 0.930 . S
C278 C276 1.419 1_554 S
C278 C279 1.362 . S
C279 H269 0.930 . S
C279 C272 1.409 . S
C279 C278 1.362 . S
H280 C286 0.930 . S
H281 C289 0.930 . S
H282 C290 0.930 . S
H283 C291 0.930 . S
H284 C294 0.930 . S
H285 C295 0.930 . S
C286 H280 0.930 . S
C286 C287 1.355 . S
C286 C288 1.415 . S
C287 C286 1.355 . S
C287 C289 1.419 1_556 S
C288 C286 1.415 . S
C288 C293 1.425 1_556 S
C288 C295 1.409 . S
C289 H281 0.930 . S
C289 C287 1.419 1_554 S
C289 C290 1.362 . S
C290 H282 0.930 . S
C290 C289 1.362 . S
C290 C293 1.409 . S
C291 H283 0.930 . S
C291 C292 1.355 . S
C291 C293 1.415 . S
C292 C291 1.355 . S
C292 C294 1.419 1_554 S
C293 C288 1.425 1_554 S
C293 C290 1.409 . S
C293 C291 1.415 . S
C294 H284 0.930 . S
C294 C292 1.419 1_556 S
C294 C295 1.362 . S
C295 H285 0.930 . S
C295 C288 1.409 . S
C295 C294 1.362 . S
H296 C302 0.930 . S
H297 C305 0.930 . S
H298 C306 0.930 . S
H299 C307 0.930 . S
H300 C310 0.930 . S
H301 C311 0.930 . S
C302 H296 0.930 . S
C302 C303 1.355 . S
C302 C304 1.415 . S
C303 C302 1.355 . S
C303 C305 1.419 1_554 S
C304 C302 1.415 . S
C304 C309 1.425 1_554 S
C304 C311 1.409 . S
C305 H297 0.930 . S
C305 C303 1.419 1_556 S
C305 C306 1.362 . S
C306 H298 0.930 . S
C306 C305 1.362 . S
C306 C309 1.409 . S
C307 H299 0.930 . S
C307 C308 1.355 . S
C307 C309 1.415 . S
C308 C307 1.355 . S
C308 C310 1.419 1_556 S
C309 C304 1.425 1_556 S
C309 C306 1.409 . S
C309 C307 1.415 . S
C310 H300 0.930 . S
C310 C308 1.419 1_554 S
C310 C311 1.362 . S
C311 H301 0.930 . S
C311 C304 1.409 . S
C311 C310 1.362 . S
H312 C318 0.930 . S
H313 C321 0.930 . S
H314 C322 0.930 . S
H315 C323 0.930 . S
H316 C326 0.930 . S
H317 C327 0.930 . S
C318 H312 0.930 . S
C318 C319 1.355 . S
C318 C320 1.415 . S
C319 C318 1.355 . S
C319 C321 1.419 . S
C320 C318 1.415 . S
C320 C325 1.425 . S
C320 C327 1.409 . S
C321 H313 0.930 . S
C321 C319 1.419 . S
C321 C322 1.362 . S
C322 H314 0.930 . S
C322 C321 1.362 . S
C322 C325 1.409 . S
C323 H315 0.930 . S
C323 C324 1.355 . S
C323 C325 1.415 . S
C324 C323 1.355 . S
C324 C326 1.419 . S
C325 C320 1.425 . S
C325 C322 1.409 . S
C325 C323 1.415 . S
C326 H316 0.930 . S
C326 C324 1.419 . S
C326 C327 1.362 . S
C327 H317 0.930 . S
C327 C320 1.409 . S
C327 C326 1.362 . S
H328 C334 0.930 . S
H329 C337 0.930 . S
H330 C338 0.930 . S
H331 C339 0.930 . S
H332 C342 0.930 1_565 S
H333 C343 0.930 . S
C334 H328 0.930 . S
C334 C335 1.355 . S
C334 C336 1.415 . S
C335 C334 1.355 . S
C335 C337 1.419 . S
C336 C334 1.415 . S
C336 C341 1.425 . S
C336 C343 1.409 . S
C337 H329 0.930 . S
C337 C335 1.419 . S
C337 C338 1.362 . S
C338 H330 0.930 . S
C338 C337 1.362 . S
C338 C341 1.409 . S
C339 H331 0.930 . S
C339 C340 1.355 . S
C339 C341 1.415 . S
C340 C339 1.355 . S
C340 C342 1.419 . S
C341 C336 1.425 . S
C341 C338 1.409 . S
C341 C339 1.415 . S
C342 H332 0.930 1_545 S
C342 C340 1.419 . S
C342 C343 1.362 . S
C343 H333 0.930 . S
C343 C336 1.409 . S
C343 C342 1.362 . S
H344 C350 0.930 . S
H345 C353 0.930 1_455 S
H346 C354 0.930 . S
H347 C355 0.930 . S
H348 C358 0.930 . S
H349 C359 0.930 . S
C350 H344 0.930 . S
C350 C351 1.355 . S
C350 C352 1.415 . S
C351 C350 1.355 . S
C351 C353 1.419 . S
C352 C350 1.415 . S
C352 C357 1.425 . S
C352 C359 1.409 . S
C353 H345 0.930 1_655 S
C353 C351 1.419 . S
C353 C354 1.362 . S
C354 H346 0.930 . S
C354 C353 1.362 . S
C354 C357 1.409 . S
C355 H347 0.930 . S
C355 C356 1.355 . S
C355 C357 1.415 . S
C356 C355 1.355 . S
C356 C358 1.419 . S
C357 C352 1.425 . S
C357 C354 1.409 . S
C357 C355 1.415 . S
C358 H348 0.930 . S
C358 C356 1.419 . S
C358 C359 1.362 . S
C359 H349 0.930 . S
C359 C352 1.409 . S
C359 C358 1.362 . S
H360 C366 0.930 . S
H361 C369 0.930 . S
H362 C370 0.930 . S
H363 C371 0.930 . S
H364 C374 0.930 . S
H365 C375 0.930 . S
C366 H360 0.930 . S
C366 C367 1.355 . S
C366 C368 1.415 . S
C367 C366 1.355 . S
C367 C369 1.419 . S
C368 C366 1.415 . S
C368 C373 1.425 . S
C368 C375 1.409 . S
C369 H361 0.930 . S
C369 C367 1.419 . S
C369 C370 1.362 . S
C370 H362 0.930 . S
C370 C369 1.362 . S
C370 C373 1.409 . S
C371 H363 0.930 . S
C371 C372 1.355 . S
C371 C373 1.415 . S
C372 C371 1.355 . S
C372 C374 1.419 . S
C373 C368 1.425 . S
C373 C370 1.409 . S
C373 C371 1.415 . S
C374 H364 0.930 . S
C374 C372 1.419 . S
C374 C375 1.362 . S
C375 H365 0.930 . S
C375 C368 1.409 . S
C375 C374 1.362 . S
H376 C382 0.930 . S
H377 C385 0.930 . S
H378 C386 0.930 . S
H379 C387 0.930 . S
H380 C390 0.930 . S
H381 C391 0.930 . S
C382 H376 0.930 . S
C382 C383 1.355 . S
C382 C384 1.415 . S
C383 C382 1.355 . S
C383 C385 1.419 . S
C384 C382 1.415 . S
C384 C389 1.425 . S
C384 C391 1.409 . S
C385 H377 0.930 . S
C385 C383 1.419 . S
C385 C386 1.362 . S
C386 H378 0.930 . S
C386 C385 1.362 . S
C386 C389 1.409 . S
C387 H379 0.930 . S
C387 C388 1.355 . S
C387 C389 1.415 . S
C388 C387 1.355 . S
C388 C390 1.419 . S
C389 C384 1.425 . S
C389 C386 1.409 . S
C389 C387 1.415 . S
C390 H380 0.930 . S
C390 C388 1.419 . S
C390 C391 1.362 . S
C391 H381 0.930 . S
C391 C384 1.409 . S
C391 C390 1.362 . S
H392 C398 0.930 . S
H393 C401 0.930 . S
H394 C402 0.930 . S
H395 C403 0.930 . S
H396 C406 0.930 . S
H397 C407 0.930 . S
C398 H392 0.930 . S
C398 C399 1.355 . S
C398 C400 1.415 . S
C399 C398 1.355 . S
C399 C401 1.419 . S
C400 C398 1.415 . S
C400 C405 1.425 . S
C400 C407 1.409 . S
C401 H393 0.930 . S
C401 C399 1.419 . S
C401 C402 1.362 . S
C402 H394 0.930 . S
C402 C401 1.362 . S
C402 C405 1.409 . S
C403 H395 0.930 . S
C403 C404 1.355 . S
C403 C405 1.415 . S
C404 C403 1.355 . S
C404 C406 1.419 . S
C405 C400 1.425 . S
C405 C402 1.409 . S
C405 C403 1.415 . S
C406 H396 0.930 . S
C406 C404 1.419 . S
C406 C407 1.362 . S
C407 H397 0.930 . S
C407 C400 1.409 . S
C407 C406 1.362 . S
H408 C414 0.930 . S
H409 C417 0.930 . S
H410 C418 0.930 . S
H411 C419 0.930 . S
H412 C422 0.930 . S
H413 C423 0.930 . S
C414 H408 0.930 . S
C414 C415 1.355 . S
C414 C416 1.415 . S
C415 C414 1.355 . S
C415 C417 1.419 . S
C416 C414 1.415 . S
C416 C421 1.425 . S
C416 C423 1.409 . S
C417 H409 0.930 . S
C417 C415 1.419 . S
C417 C418 1.362 . S
C418 H410 0.930 . S
C418 C417 1.362 . S
C418 C421 1.409 . S
C419 H411 0.930 . S
C419 C420 1.355 . S
C419 C421 1.415 . S
C420 C419 1.355 . S
C420 C422 1.419 . S
C421 C416 1.425 . S
C421 C418 1.409 . S
C421 C419 1.415 . S
C422 H412 0.930 . S
C422 C420 1.419 . S
C422 C423 1.362 . S
C423 H413 0.930 . S
C423 C416 1.409 . S
C423 C422 1.362 . S
H424 C430 0.930 . S
H425 C433 0.930 . S
H426 C434 0.930 . S
H427 C435 0.930 . S
H428 C438 0.930 . S
H429 C439 0.930 . S
C430 H424 0.930 . S
C430 C431 1.355 . S
C430 C432 1.415 . S
C431 C430 1.355 . S
C431 C433 1.419 . S
C432 C430 1.415 . S
C432 C437 1.425 . S
C432 C439 1.409 . S
C433 H425 0.930 . S
C433 C431 1.419 . S
C433 C434 1.362 . S
C434 H426 0.930 . S
C434 C433 1.362 . S
C434 C437 1.409 . S
C435 H427 0.930 . S
C435 C436 1.355 . S
C435 C437 1.415 . S
C436 C435 1.355 . S
C436 C438 1.419 . S
C437 C432 1.425 . S
C437 C434 1.409 . S
C437 C435 1.415 . S
C438 H428 0.930 . S
C438 C436 1.419 . S
C438 C439 1.362 . S
C439 H429 0.930 . S
C439 C432 1.409 . S
C439 C438 1.362 . S
H440 C446 0.930 . S
H441 C449 0.930 . S
H442 C450 0.930 . S
H443 C451 0.930 . S
H444 C454 0.930 . S
H445 C455 0.930 . S
C446 H440 0.930 . S
C446 C447 1.355 . S
C446 C448 1.415 . S
C447 C446 1.355 . S
C447 C449 1.419 . S
C448 C446 1.415 . S
C448 C453 1.425 . S
C448 C455 1.409 . S
C449 H441 0.930 . S
C449 C447 1.419 . S
C449 C450 1.362 . S
C450 H442 0.930 . S
C450 C449 1.362 . S
C450 C453 1.409 . S
C451 H443 0.930 . S
C451 C452 1.355 . S
C451 C453 1.415 . S
C452 C451 1.355 . S
C452 C454 1.419 . S
C453 C448 1.425 . S
C453 C450 1.409 . S
C453 C451 1.415 . S
C454 H444 0.930 . S
C454 C452 1.419 . S
C454 C455 1.362 . S
C455 H445 0.930 . S
C455 C448 1.409 . S
C455 C454 1.362 . S
H456 C462 0.930 . S
H457 C465 0.930 . S
H458 C466 0.930 1_556 S
H459 C467 0.930 . S
H460 C470 0.930 . S
H461 C471 0.930 1_554 S
C462 H456 0.930 . S
C462 C463 1.355 1_655 S
C462 C464 1.415 . S
C463 C462 1.355 1_455 S
C463 C465 1.419 . S
C464 C462 1.415 . S
C464 C469 1.425 1_654 S
C464 C471 1.409 1_554 S
C465 H457 0.930 . S
C465 C463 1.419 . S
C465 C466 1.362 . S
C466 H458 0.930 1_554 S
C466 C465 1.362 . S
C466 C469 1.409 1_554 S
C467 H459 0.930 . S
C467 C468 1.355 1_455 S
C467 C469 1.415 . S
C468 C467 1.355 1_655 S
C468 C470 1.419 . S
C469 C464 1.425 1_456 S
C469 C466 1.409 1_556 S
C469 C467 1.415 . S
C470 H460 0.930 . S
C470 C468 1.419 . S
C470 C471 1.362 . S
C471 H461 0.930 1_556 S
C471 C464 1.409 1_556 S
C471 C470 1.362 . S
H472 C478 0.930 . S
H473 C481 0.930 . S
H474 C482 0.930 . S
H475 C483 0.930 . S
H476 C486 0.930 . S
H477 C487 0.930 . S
C478 H472 0.930 . S
C478 C479 1.355 . S
C478 C480 1.415 . S
C479 C478 1.355 . S
C479 C481 1.419 1_554 S
C480 C478 1.415 . S
C480 C485 1.425 1_554 S
C480 C487 1.409 . S
C481 H473 0.930 . S
C481 C479 1.419 1_556 S
C481 C482 1.362 . S
C482 H474 0.930 . S
C482 C481 1.362 . S
C482 C485 1.409 . S
C483 H475 0.930 . S
C483 C484 1.355 . S
C483 C485 1.415 . S
C484 C483 1.355 . S
C484 C486 1.419 1_556 S
C485 C480 1.425 1_556 S
C485 C482 1.409 . S
C485 C483 1.415 . S
C486 H476 0.930 . S
C486 C484 1.419 1_554 S
C486 C487 1.362 . S
C487 H477 0.930 . S
C487 C480 1.409 . S
C487 C486 1.362 . S
H488 C494 0.930 . S
H489 C497 0.930 . S
H490 C498 0.930 . S
H491 C499 0.930 . S
H492 C502 0.930 . S
H493 C503 0.930 . S
C494 H488 0.930 . S
C494 C495 1.355 . S
C494 C496 1.415 1_554 S
C495 C494 1.355 . S
C495 C497 1.419 1_565 S
C496 C494 1.415 1_556 S
C496 C501 1.425 1_566 S
C496 C503 1.409 . S
C497 H489 0.930 . S
C497 C495 1.419 1_545 S
C497 C498 1.362 . S
C498 H490 0.930 . S
C498 C497 1.362 . S
C498 C501 1.409 . S
C499 H491 0.930 . S
C499 C500 1.355 . S
C499 C501 1.415 1_556 S
C500 C499 1.355 . S
C500 C502 1.419 1_545 S
C501 C496 1.425 1_544 S
C501 C498 1.409 . S
C501 C499 1.415 1_554 S
C502 H492 0.930 . S
C502 C500 1.419 1_565 S
C502 C503 1.362 . S
C503 H493 0.930 . S
C503 C496 1.409 . S
C503 C502 1.362 . S
H504 C510 0.930 . S
H505 C513 0.930 . S
H506 C514 0.930 . S
H507 C515 0.930 . S
H508 C518 0.930 . S
H509 C519 0.930 . S
C510 H504 0.930 . S
C510 C511 1.355 1_545 S
C510 C512 1.415 . S
C511 C510 1.355 1_565 S
C511 C513 1.419 . S
C512 C510 1.415 . S
C512 C517 1.425 1_545 S
C512 C519 1.409 . S
C513 H505 0.930 . S
C513 C511 1.419 . S
C513 C514 1.362 . S
C514 H506 0.930 . S
C514 C513 1.362 . S
C514 C517 1.409 . S
C515 H507 0.930 . S
C515 C516 1.355 1_565 S
C515 C517 1.415 . S
C516 C515 1.355 1_545 S
C516 C518 1.419 . S
C517 C512 1.425 1_565 S
C517 C514 1.409 . S
C517 C515 1.415 . S
C518 H508 0.930 . S
C518 C516 1.419 . S
C518 C519 1.362 . S
C519 H509 0.930 . S
C519 C512 1.409 . S
C519 C518 1.362 . S
H520 C526 0.930 . S
H521 C529 0.930 . S
H522 C530 0.930 . S
H523 C531 0.930 . S
H524 C534 0.930 . S
H525 C535 0.930 . S
C526 H520 0.930 . S
C526 C527 1.355 . S
C526 C528 1.415 . S
C527 C526 1.355 . S
C527 C529 1.419 1_655 S
C528 C526 1.415 . S
C528 C533 1.425 1_655 S
C528 C535 1.409 . S
C529 H521 0.930 . S
C529 C527 1.419 1_455 S
C529 C530 1.362 . S
C530 H522 0.930 . S
C530 C529 1.362 . S
C530 C533 1.409 . S
C531 H523 0.930 . S
C531 C532 1.355 . S
C531 C533 1.415 . S
C532 C531 1.355 . S
C532 C534 1.419 1_455 S
C533 C528 1.425 1_455 S
C533 C530 1.409 . S
C533 C531 1.415 . S
C534 H524 0.930 . S
C534 C532 1.419 1_655 S
C534 C535 1.362 . S
C535 H525 0.930 . S
C535 C528 1.409 . S
C535 C534 1.362 . S
H536 C542 0.930 . S
H537 C545 0.930 . S
H538 C546 0.930 . S
H539 C547 0.930 . S
H540 C550 0.930 . S
H541 C551 0.930 . S
C542 H536 0.930 . S
C542 C543 1.355 . S
C542 C544 1.415 . S
C543 C542 1.355 . S
C543 C545 1.419 . S
C544 C542 1.415 . S
C544 C549 1.425 . S
C544 C551 1.409 . S
C545 H537 0.930 . S
C545 C543 1.419 . S
C545 C546 1.362 . S
C546 H538 0.930 . S
C546 C545 1.362 . S
C546 C549 1.409 . S
C547 H539 0.930 . S
C547 C548 1.355 . S
C547 C549 1.415 . S
C548 C547 1.355 . S
C548 C550 1.419 . S
C549 C544 1.425 . S
C549 C546 1.409 . S
C549 C547 1.415 . S
C550 H540 0.930 . S
C550 C548 1.419 . S
C550 C551 1.362 . S
C551 H541 0.930 . S
C551 C544 1.409 . S
C551 C550 1.362 . S
C175 C8 1.167 . S
C180 C107 1.119 . S
C191 C22 1.138 . S
C196 C121 1.116 1_565 S
C207 C36 1.148 . S
C212 C93 1.114 1_455 S
C223 C163 1.174 . S
C228 C50 1.141 . S
C239 C64 1.123 . S
C244 C135 1.175 1_565 S
C255 C149 1.175 1_455 S
C260 C78 1.133 . S
C271 C23 1.129 . S
C276 C92 1.174 . S
C287 C106 1.159 . S
C292 C37 1.115 1_545 S
C303 C9 1.121 1_655 S
C308 C120 1.169 . S
C319 C134 1.107 . S
C324 C79 1.142 . S
C335 C148 1.167 . S
C340 C51 1.156 1_545 S
C351 C65 1.166 1_655 S
C356 C162 1.157 . S
C367 C76 1.468 . S
C372 C6 1.449 . S
C383 C20 1.463 . S
C388 C48 1.480 . S
C399 C34 1.430 . S
C404 C62 1.496 . S
C415 C90 1.492 . S
C420 C160 1.431 . S
C431 C104 1.452 . S
C436 C132 1.489 . S
C447 C118 1.499 . S
C452 C146 1.432 . S
C463 C7 1.588 . S
C468 C91 1.588 . S
C479 C21 1.563 . S
C484 C105 1.563 . S
C495 C35 1.636 . S
C500 C119 1.636 . S
C511 C49 1.616 . S
C516 C133 1.616 . S
C527 C147 1.632 . S
C532 C63 1.632 . S
C543 C77 1.574 . S
C548 C161 1.574 . S
