# Generated by pormake.
# Topology wgi, (5)-cn, num edge types: 1
# Building blocks:
#     Node 0, Type 0, BuildingBlock: XOMCOT_clean_sbu_1, # of connection points: 5
#     Node 1, Type 0, BuildingBlock: XOMCOT_clean_sbu_1, # of connection points: 5
#     Node 2, Type 0, BuildingBlock: XOMCOT_clean_sbu_1, # of connection points: 5
#     Node 3, Type 0, BuildingBlock: XOMCOT_clean_sbu_1, # of connection points: 5
#     Node 4, Type 0, BuildingBlock: XOMCOT_clean_sbu_1, # of connection points: 5
#     Node 5, Type 0, BuildingBlock: XOMCOT_clean_sbu_1, # of connection points: 5
#     Node 6, Type 0, BuildingBlock: XOMCOT_clean_sbu_1, # of connection points: 5
#     Node 7, Type 0, BuildingBlock: XOMCOT_clean_sbu_1, # of connection points: 5
#     Node 8, Type 0, BuildingBlock: XOMCOT_clean_sbu_1, # of connection points: 5
#     Node 9, Type 0, BuildingBlock: XOMCOT_clean_sbu_1, # of connection points: 5
#     Node 10, Type 0, BuildingBlock: XOMCOT_clean_sbu_1, # of connection points: 5
#     Node 11, Type 0, BuildingBlock: XOMCOT_clean_sbu_1, # of connection points: 5
#     Node 12, Type 0, BuildingBlock: XOMCOT_clean_sbu_1, # of connection points: 5
#     Node 13, Type 0, BuildingBlock: XOMCOT_clean_sbu_1, # of connection points: 5
#     Node 14, Type 0, BuildingBlock: XOMCOT_clean_sbu_1, # of connection points: 5
#     Node 15, Type 0, BuildingBlock: XOMCOT_clean_sbu_1, # of connection points: 5
#     Node 16, Type 0, BuildingBlock: XOMCOT_clean_sbu_1, # of connection points: 5
#     Node 17, Type 0, BuildingBlock: XOMCOT_clean_sbu_1, # of connection points: 5
#     Node 18, Type 0, BuildingBlock: XOMCOT_clean_sbu_1, # of connection points: 5
#     Node 19, Type 0, BuildingBlock: XOMCOT_clean_sbu_1, # of connection points: 5
#     Node 20, Type 0, BuildingBlock: XOMCOT_clean_sbu_1, # of connection points: 5
#     Node 21, Type 0, BuildingBlock: XOMCOT_clean_sbu_1, # of connection points: 5
#     Node 22, Type 0, BuildingBlock: XOMCOT_clean_sbu_1, # of connection points: 5
#     Node 23, Type 0, BuildingBlock: XOMCOT_clean_sbu_1, # of connection points: 5
#     Node 24, Type 0, BuildingBlock: XOMCOT_clean_sbu_1, # of connection points: 5
#     Node 25, Type 0, BuildingBlock: XOMCOT_clean_sbu_1, # of connection points: 5
#     Node 26, Type 0, BuildingBlock: XOMCOT_clean_sbu_1, # of connection points: 5
#     Node 27, Type 0, BuildingBlock: XOMCOT_clean_sbu_1, # of connection points: 5
#     Node 28, Type 0, BuildingBlock: XOMCOT_clean_sbu_1, # of connection points: 5
#     Node 29, Type 0, BuildingBlock: XOMCOT_clean_sbu_1, # of connection points: 5
#     Node 30, Type 0, BuildingBlock: XOMCOT_clean_sbu_1, # of connection points: 5
#     Node 31, Type 0, BuildingBlock: XOMCOT_clean_sbu_1, # of connection points: 5
#     Edge 32, Type (0, 0), BuildingBlock: AJUNOK_clean_linker_0, # of connection points: 2
#     Edge 33, Type (0, 0), BuildingBlock: AJUNOK_clean_linker_0, # of connection points: 2
#     Edge 34, Type (0, 0), BuildingBlock: AJUNOK_clean_linker_0, # of connection points: 2
#     Edge 35, Type (0, 0), BuildingBlock: AJUNOK_clean_linker_0, # of connection points: 2
#     Edge 36, Type (0, 0), BuildingBlock: AJUNOK_clean_linker_0, # of connection points: 2
#     Edge 37, Type (0, 0), BuildingBlock: AJUNOK_clean_linker_0, # of connection points: 2
#     Edge 38, Type (0, 0), BuildingBlock: AJUNOK_clean_linker_0, # of connection points: 2
#     Edge 39, Type (0, 0), BuildingBlock: AJUNOK_clean_linker_0, # of connection points: 2
#     Edge 40, Type (0, 0), BuildingBlock: AJUNOK_clean_linker_0, # of connection points: 2
#     Edge 41, Type (0, 0), BuildingBlock: AJUNOK_clean_linker_0, # of connection points: 2
#     Edge 42, Type (0, 0), BuildingBlock: AJUNOK_clean_linker_0, # of connection points: 2
#     Edge 43, Type (0, 0), BuildingBlock: AJUNOK_clean_linker_0, # of connection points: 2
#     Edge 44, Type (0, 0), BuildingBlock: AJUNOK_clean_linker_0, # of connection points: 2
#     Edge 45, Type (0, 0), BuildingBlock: AJUNOK_clean_linker_0, # of connection points: 2
#     Edge 46, Type (0, 0), BuildingBlock: AJUNOK_clean_linker_0, # of connection points: 2
#     Edge 47, Type (0, 0), BuildingBlock: AJUNOK_clean_linker_0, # of connection points: 2
#     Edge 48, Type (0, 0), BuildingBlock: AJUNOK_clean_linker_0, # of connection points: 2
#     Edge 49, Type (0, 0), BuildingBlock: AJUNOK_clean_linker_0, # of connection points: 2
#     Edge 50, Type (0, 0), BuildingBlock: AJUNOK_clean_linker_0, # of connection points: 2
#     Edge 51, Type (0, 0), BuildingBlock: AJUNOK_clean_linker_0, # of connection points: 2
#     Edge 52, Type (0, 0), BuildingBlock: AJUNOK_clean_linker_0, # of connection points: 2
#     Edge 53, Type (0, 0), BuildingBlock: AJUNOK_clean_linker_0, # of connection points: 2
#     Edge 54, Type (0, 0), BuildingBlock: AJUNOK_clean_linker_0, # of connection points: 2
#     Edge 55, Type (0, 0), BuildingBlock: AJUNOK_clean_linker_0, # of connection points: 2
#     Edge 56, Type (0, 0), BuildingBlock: AJUNOK_clean_linker_0, # of connection points: 2
#     Edge 57, Type (0, 0), BuildingBlock: AJUNOK_clean_linker_0, # of connection points: 2
#     Edge 58, Type (0, 0), BuildingBlock: AJUNOK_clean_linker_0, # of connection points: 2
#     Edge 59, Type (0, 0), BuildingBlock: AJUNOK_clean_linker_0, # of connection points: 2
#     Edge 60, Type (0, 0), BuildingBlock: AJUNOK_clean_linker_0, # of connection points: 2
#     Edge 61, Type (0, 0), BuildingBlock: AJUNOK_clean_linker_0, # of connection points: 2
#     Edge 62, Type (0, 0), BuildingBlock: AJUNOK_clean_linker_0, # of connection points: 2
#     Edge 63, Type (0, 0), BuildingBlock: AJUNOK_clean_linker_0, # of connection points: 2
#     Edge 64, Type (0, 0), BuildingBlock: AJUNOK_clean_linker_0, # of connection points: 2
#     Edge 65, Type (0, 0), BuildingBlock: AJUNOK_clean_linker_0, # of connection points: 2
#     Edge 66, Type (0, 0), BuildingBlock: AJUNOK_clean_linker_0, # of connection points: 2
#     Edge 67, Type (0, 0), BuildingBlock: AJUNOK_clean_linker_0, # of connection points: 2
#     Edge 68, Type (0, 0), BuildingBlock: AJUNOK_clean_linker_0, # of connection points: 2
#     Edge 69, Type (0, 0), BuildingBlock: AJUNOK_clean_linker_0, # of connection points: 2
#     Edge 70, Type (0, 0), BuildingBlock: AJUNOK_clean_linker_0, # of connection points: 2
#     Edge 71, Type (0, 0), BuildingBlock: AJUNOK_clean_linker_0, # of connection points: 2
#     Edge 72, Type (0, 0), BuildingBlock: AJUNOK_clean_linker_0, # of connection points: 2
#     Edge 73, Type (0, 0), BuildingBlock: AJUNOK_clean_linker_0, # of connection points: 2
#     Edge 74, Type (0, 0), BuildingBlock: AJUNOK_clean_linker_0, # of connection points: 2
#     Edge 75, Type (0, 0), BuildingBlock: AJUNOK_clean_linker_0, # of connection points: 2
#     Edge 76, Type (0, 0), BuildingBlock: AJUNOK_clean_linker_0, # of connection points: 2
#     Edge 77, Type (0, 0), BuildingBlock: AJUNOK_clean_linker_0, # of connection points: 2
#     Edge 78, Type (0, 0), BuildingBlock: AJUNOK_clean_linker_0, # of connection points: 2
#     Edge 79, Type (0, 0), BuildingBlock: AJUNOK_clean_linker_0, # of connection points: 2
#     Edge 80, Type (0, 0), BuildingBlock: AJUNOK_clean_linker_0, # of connection points: 2
#     Edge 81, Type (0, 0), BuildingBlock: AJUNOK_clean_linker_0, # of connection points: 2
#     Edge 82, Type (0, 0), BuildingBlock: AJUNOK_clean_linker_0, # of connection points: 2
#     Edge 83, Type (0, 0), BuildingBlock: AJUNOK_clean_linker_0, # of connection points: 2
#     Edge 84, Type (0, 0), BuildingBlock: AJUNOK_clean_linker_0, # of connection points: 2
#     Edge 85, Type (0, 0), BuildingBlock: AJUNOK_clean_linker_0, # of connection points: 2
#     Edge 86, Type (0, 0), BuildingBlock: AJUNOK_clean_linker_0, # of connection points: 2
#     Edge 87, Type (0, 0), BuildingBlock: AJUNOK_clean_linker_0, # of connection points: 2
#     Edge 88, Type (0, 0), BuildingBlock: AJUNOK_clean_linker_0, # of connection points: 2
#     Edge 89, Type (0, 0), BuildingBlock: AJUNOK_clean_linker_0, # of connection points: 2
#     Edge 90, Type (0, 0), BuildingBlock: AJUNOK_clean_linker_0, # of connection points: 2
#     Edge 91, Type (0, 0), BuildingBlock: AJUNOK_clean_linker_0, # of connection points: 2
#     Edge 92, Type (0, 0), BuildingBlock: AJUNOK_clean_linker_0, # of connection points: 2
#     Edge 93, Type (0, 0), BuildingBlock: AJUNOK_clean_linker_0, # of connection points: 2
#     Edge 94, Type (0, 0), BuildingBlock: AJUNOK_clean_linker_0, # of connection points: 2
#     Edge 95, Type (0, 0), BuildingBlock: AJUNOK_clean_linker_0, # of connection points: 2
#     Edge 96, Type (0, 0), BuildingBlock: AJUNOK_clean_linker_0, # of connection points: 2
#     Edge 97, Type (0, 0), BuildingBlock: AJUNOK_clean_linker_0, # of connection points: 2
#     Edge 98, Type (0, 0), BuildingBlock: AJUNOK_clean_linker_0, # of connection points: 2
#     Edge 99, Type (0, 0), BuildingBlock: AJUNOK_clean_linker_0, # of connection points: 2
#     Edge 100, Type (0, 0), BuildingBlock: AJUNOK_clean_linker_0, # of connection points: 2
#     Edge 101, Type (0, 0), BuildingBlock: AJUNOK_clean_linker_0, # of connection points: 2
#     Edge 102, Type (0, 0), BuildingBlock: AJUNOK_clean_linker_0, # of connection points: 2
#     Edge 103, Type (0, 0), BuildingBlock: AJUNOK_clean_linker_0, # of connection points: 2
#     Edge 104, Type (0, 0), BuildingBlock: AJUNOK_clean_linker_0, # of connection points: 2
#     Edge 105, Type (0, 0), BuildingBlock: AJUNOK_clean_linker_0, # of connection points: 2
#     Edge 106, Type (0, 0), BuildingBlock: AJUNOK_clean_linker_0, # of connection points: 2
#     Edge 107, Type (0, 0), BuildingBlock: AJUNOK_clean_linker_0, # of connection points: 2
#     Edge 108, Type (0, 0), BuildingBlock: AJUNOK_clean_linker_0, # of connection points: 2
#     Edge 109, Type (0, 0), BuildingBlock: AJUNOK_clean_linker_0, # of connection points: 2
#     Edge 110, Type (0, 0), BuildingBlock: AJUNOK_clean_linker_0, # of connection points: 2
#     Edge 111, Type (0, 0), BuildingBlock: AJUNOK_clean_linker_0, # of connection points: 2
# Relax obj value: 0.179
# Max RMSD: 0.140
# Mean RMSD: 0.140
data_MOF--net-wgi--node1-XOMCOT_clean_sbu_1--edge1-AJUNOK_clean_linker_0
_symmetry_space_group_name_H-M    P1
_symmetry_Int_Tables_number       1
_symmetry_cell_setting            triclinic
loop_
_symmetry_equiv_pos_as_xyz
'x, y, z'
_cell_length_a     58.805415
_cell_length_b     58.798874
_cell_length_c     19.974199
_cell_angle_alpha  89.990516
_cell_angle_beta   89.930895
_cell_angle_gamma 89.944076
loop_
_atom_site_label
_atom_site_type_symbol
_atom_site_fract_x
_atom_site_fract_y
_atom_site_fract_z
_atom_type_partial_charge
C0 C 0.1097 0.18051 0.48607 0.0
C1 C 0.08746 0.17485 0.49887 0.0
N2 N 0.08132 0.15782 0.45729 0.0
N3 N 0.11764 0.16719 0.43654 0.0
C4 C 0.10002 0.1537 0.41955 0.0
H5 H 0.11988 0.1926 0.5137 0.0
Co6 Co 0.1482 0.1643 0.41558 0.0
C7 C 0.14626 0.15235 0.26832 0.0
O8 O 0.16086 0.16886 0.2576 0.0
N9 N 0.17978 0.1607 0.39984 0.0
C10 C 0.21344 0.14457 0.37912 0.0
C11 C 0.1909 0.14565 0.3604 0.0
C12 C 0.19596 0.16792 0.44315 0.0
N13 N 0.21653 0.15856 0.43158 0.0
O14 O 0.14837 0.13681 0.46884 0.0
H15 H 0.18296 0.13432 0.32496 0.0
H16 H 0.19246 0.17865 0.48585 0.0
O17 O 0.14031 0.14782 0.32916 0.0
C18 C 0.15218 0.14222 0.53005 0.0
O19 O 0.15808 0.1633 0.54296 0.0
N20 N 0.14714 0.19307 0.37199 0.0
C21 C 0.13597 0.23879 0.35029 0.0
C22 C 0.12325 0.22139 0.32042 0.0
C23 C 0.12906 0.19865 0.33202 0.0
C24 C 0.16055 0.20993 0.39737 0.0
C25 C 0.15556 0.23281 0.38598 0.0
H26 H 0.11764 0.18562 0.31417 0.0
H27 H 0.17402 0.20609 0.43172 0.0
H28 H 0.10127 0.14083 0.3813 0.0
H29 H 0.07703 0.18204 0.5382 0.0
H30 H 0.22597 0.13279 0.35973 0.0
H31 H 0.10788 0.2252 0.29275 0.0
H32 H 0.16616 0.24571 0.40877 0.0
C33 C 0.07464 0.85741 0.73389 0.0
C34 C 0.07943 0.83495 0.74719 0.0
N35 N 0.099 0.82952 0.71595 0.0
N36 N 0.09101 0.86597 0.69388 0.0
C37 C 0.10562 0.84857 0.68373 0.0
H38 H 0.06055 0.86714 0.75376 0.0
Co39 Co 0.09448 0.89658 0.67359 0.0
C40 C 0.10722 0.89497 0.52753 0.0
O41 O 0.09148 0.91044 0.51697 0.0
N42 N 0.09872 0.92813 0.65862 0.0
C43 C 0.11659 0.96112 0.64158 0.0
C44 C 0.11485 0.93874 0.62175 0.0
C45 C 0.09153 0.94444 0.70176 0.0
N46 N 0.10196 0.96463 0.69236 0.0
O47 O 0.12177 0.89641 0.72682 0.0
H48 H 0.12645 0.93044 0.58771 0.0
H49 H 0.08011 0.94122 0.74307 0.0
O50 O 0.11108 0.88841 0.58811 0.0
C51 C 0.11607 0.90086 0.78732 0.0
O52 O 0.09469 0.90585 0.79952 0.0
N53 N 0.06586 0.8961 0.62886 0.0
C54 C 0.02011 0.88556 0.60474 0.0
C55 C 0.03758 0.87278 0.57511 0.0
C56 C 0.06031 0.87829 0.58783 0.0
C57 C 0.049 0.90962 0.65399 0.0
C58 C 0.02611 0.90494 0.64144 0.0
H59 H 0.07331 0.86674 0.57022 0.0
H60 H 0.05282 0.92293 0.68891 0.0
H61 H 0.12141 0.85013 0.65625 0.0
H62 H 0.0694 0.82354 0.77784 0.0
H63 H 0.12912 0.97322 0.6241 0.0
H64 H 0.0338 0.85756 0.54672 0.0
H65 H 0.01321 0.91564 0.66396 0.0
C66 C 0.40052 0.82275 0.96302 0.0
C67 C 0.42319 0.8268 0.97421 0.0
N68 N 0.42858 0.84706 0.947 0.0
N69 N 0.39166 0.84019 0.92789 0.0
C70 C 0.40911 0.85484 0.91905 0.0
H71 H 0.39089 0.8083 0.98087 0.0
Co72 Co 0.36079 0.84354 0.91019 0.0
C73 C 0.36002 0.85695 0.76576 0.0
O74 O 0.3442 0.84138 0.75884 0.0
N75 N 0.32903 0.84743 0.89787 0.0
C76 C 0.2957 0.86507 0.88437 0.0
C77 C 0.31805 0.86407 0.86402 0.0
C78 C 0.31296 0.83926 0.94029 0.0
N79 N 0.29255 0.84949 0.93277 0.0
O80 O 0.36087 0.87034 0.96587 0.0
H81 H 0.3261 0.87651 0.83207 0.0
H82 H 0.31657 0.82747 0.9804 0.0
O83 O 0.36793 0.86088 0.82492 0.0
C84 C 0.35754 0.86334 1.02585 0.0
O85 O 0.35352 0.84156 0.03458 0.0
N86 N 0.3614 0.81531 0.8633 0.0
C87 C 0.37347 0.77031 0.83484 0.0
C88 C 0.38479 0.78841 0.80385 0.0
C89 C 0.3786 0.81076 0.81889 0.0
C90 C 0.34928 0.79777 0.89034 0.0
C91 C 0.35486 0.77514 0.87618 0.0
H92 H 0.38938 0.82425 0.80051 0.0
H93 H 0.33685 0.80091 0.92867 0.0
H94 H 0.40744 0.87097 0.89342 0.0
H95 H 0.43469 0.81599 1.00216 0.0
H96 H 0.28342 0.87785 0.86963 0.0
H97 H 0.39949 0.78534 0.77233 0.0
H98 H 0.34608 0.76163 0.90249 0.0
C99 C 0.43765 0.15284 0.21466 0.0
C100 C 0.43237 0.17514 0.2285 0.0
N101 N 0.41209 0.17984 0.20055 0.0
N102 N 0.42085 0.14362 0.17771 0.0
C103 C 0.40551 0.16053 0.16959 0.0
H104 H 0.4523 0.1436 0.23291 0.0
Co105 Co 0.41773 0.1126 0.16123 0.0
C106 C 0.40491 0.11214 1.01554 0.0
O107 O 0.42096 0.09683 1.00743 0.0
N108 N 0.41404 0.08063 0.14994 0.0
C109 C 0.39825 0.04658 0.1322 0.0
C110 C 0.39916 0.06892 0.11144 0.0
C111 C 0.42116 0.06498 0.19531 0.0
N112 N 0.41191 0.04423 0.18555 0.0
O113 O 0.39069 0.11302 0.21612 0.0
H114 H 0.38781 0.0763 0.07503 0.0
H115 H 0.43169 0.06903 0.23799 0.0
O116 O 0.40073 0.11948 0.07522 0.0
C117 C 0.39809 0.11074 0.27609 0.0
O118 O 0.42003 0.10757 0.28419 0.0
N119 N 0.4462 0.11292 0.11604 0.0
C120 C 0.49165 0.12423 0.09071 0.0
C121 C 0.47395 0.1355 0.05745 0.0
C122 C 0.45137 0.12979 0.07128 0.0
C123 C 0.46332 0.10083 0.14546 0.0
C124 C 0.48614 0.10608 0.13312 0.0
H125 H 0.43817 0.1406 0.05124 0.0
H126 H 0.45958 0.08869 0.18419 0.0
H127 H 0.38924 0.15834 0.14514 0.0
H128 H 0.44241 0.18687 0.25795 0.0
H129 H 0.3868 0.03363 0.11356 0.0
H130 H 0.47746 0.14978 1.02477 0.0
H131 H 0.49922 0.09736 0.16138 0.0
C132 C 0.10816 0.81972 0.09259 0.0
C133 C 0.08543 0.82406 0.08295 0.0
N134 N 0.0805 0.84445 0.11019 0.0
N135 N 0.1175 0.8371 0.12681 0.0
C136 C 0.10028 0.852 0.13661 0.0
H137 H 0.11749 0.80515 0.0741 0.0
Co138 Co 0.14854 0.84066 0.14217 0.0
C139 C 0.14916 0.85308 0.28803 0.0
O140 O 0.16487 0.83736 0.29516 0.0
N141 N 0.18036 0.84487 0.15235 0.0
C142 C 0.21412 0.86159 0.16663 0.0
C143 C 0.19207 0.86005 0.18978 0.0
C144 C 0.19567 0.83811 0.10556 0.0
N145 N 0.21621 0.84798 0.11294 0.0
O146 O 0.1477 0.86775 0.0877 0.0
H147 H 0.18476 0.87117 0.22703 0.0
H148 H 0.19145 0.82732 0.06363 0.0
O149 O 0.14165 0.85737 0.22867 0.0
C150 C 0.15021 0.86065 0.02745 0.0
O151 O 0.15317 0.83871 1.01833 0.0
N152 N 0.14894 0.81209 0.18704 0.0
C153 C 0.1402 0.76617 0.21398 0.0
C154 C 0.12767 0.78335 0.24591 0.0
C155 C 0.13224 0.80619 0.2316 0.0
C156 C 0.16203 0.79551 0.15855 0.0
C157 C 0.15815 0.77255 0.17197 0.0
H158 H 0.12078 0.81895 0.25118 0.0
H159 H 0.17413 0.79961 0.12019 0.0
H160 H 0.10235 0.86818 0.16161 0.0
H161 H 0.0736 0.81339 0.05589 0.0
H162 H 0.22698 0.87334 0.18406 0.0
H163 H 0.11317 0.77924 0.27713 0.0
H164 H 0.16814 0.75984 0.1459 0.0
C165 C 0.43622 0.85825 0.32665 0.0
C166 C 0.43281 0.83527 0.31942 0.0
N167 N 0.41339 0.82969 0.35129 0.0
N168 N 0.41913 0.8671 0.36331 0.0
C169 C 0.40528 0.84936 0.37688 0.0
H170 H 0.45001 0.86803 0.30535 0.0
Co171 Co 0.41553 0.89788 0.38034 0.0
C172 C 0.40126 0.89854 0.52526 0.0
O173 O 0.41644 0.9146 0.53493 0.0
N174 N 0.41141 0.92953 0.3926 0.0
C175 C 0.39262 0.96225 0.40433 0.0
C176 C 0.39393 0.93991 0.42431 0.0
C177 C 0.41993 0.94597 0.35203 0.0
N178 N 0.40897 0.96605 0.35851 0.0
O179 O 0.3885 0.89738 0.32603 0.0
H180 H 0.3812 0.93139 0.45412 0.0
H181 H 0.43244 0.94285 0.31353 0.0
O182 O 0.39834 0.89075 0.46551 0.0
C183 C 0.39405 0.90219 0.26567 0.0
O184 O 0.41529 0.90773 0.25353 0.0
N185 N 0.44382 0.89756 0.42627 0.0
C186 C 0.48875 0.88441 0.45124 0.0
C187 C 0.47075 0.87467 0.48712 0.0
C188 C 0.44842 0.88119 0.47318 0.0
C189 C 0.46138 0.9084 0.39485 0.0
C190 C 0.48397 0.90227 0.40715 0.0
H191 H 0.43494 0.87106 0.49452 0.0
H192 H 0.4581 0.91989 0.35421 0.0
H193 H 0.38944 0.85087 0.40409 0.0
H194 H 0.44339 0.82372 0.29089 0.0
H195 H 0.37918 0.97402 0.41746 0.0
H196 H 0.47377 0.86078 0.52162 0.0
H197 H 0.49739 0.90995 0.37759 0.0
C198 C 0.40117 0.18842 0.57589 0.0
C199 C 0.42399 0.18423 0.56695 0.0
N200 N 0.42961 0.16534 0.60159 0.0
N201 N 0.39241 0.17238 0.61645 0.0
C202 C 0.41007 0.15858 0.6314 0.0
H203 H 0.39137 0.20178 0.55235 0.0
Co204 Co 0.36156 0.16845 0.63329 0.0
C205 C 0.36213 0.15432 0.77836 0.0
O206 O 0.34659 0.16994 0.7896 0.0
N207 N 0.32991 0.16381 0.64504 0.0
C208 C 0.29671 0.14604 0.65938 0.0
C209 C 0.31881 0.14793 0.6816 0.0
C210 C 0.31418 0.17076 0.59985 0.0
N211 N 0.29398 0.16018 0.60715 0.0
O212 O 0.36251 0.14187 0.57699 0.0
H213 H 0.3266 0.13656 0.71724 0.0
H214 H 0.31789 0.18223 0.55906 0.0
O215 O 0.36896 0.15096 0.71775 0.0
C216 C 0.35924 0.14818 0.5163 0.0
O217 O 0.35448 0.16969 0.5052 0.0
N218 N 0.36124 0.19646 0.68074 0.0
C219 C 0.37013 0.24199 0.71239 0.0
C220 C 0.38312 0.22443 0.74061 0.0
C221 C 0.37844 0.20182 0.72411 0.0
C222 C 0.34773 0.21333 0.65579 0.0
C223 C 0.35167 0.23611 0.67169 0.0
H224 H 0.39013 0.18886 0.74111 0.0
H225 H 0.33512 0.20966 0.61854 0.0
H226 H 0.40843 0.14373 0.66273 0.0
H227 H 0.43535 0.19388 0.53514 0.0
H228 H 0.28429 0.13372 0.67623 0.0
H229 H 0.398 0.22812 0.77056 0.0
H230 H 0.34126 0.24912 0.64853 0.0
C231 C 0.0722 0.15388 0.83185 0.0
C232 C 0.07871 0.17586 0.81876 0.0
N233 N 0.0991 0.17933 0.84742 0.0
N234 N 0.08834 0.1436 0.8691 0.0
C235 C 0.10453 0.1596 0.87818 0.0
H236 H 0.05712 0.14559 0.81295 0.0
Co237 Co 0.08891 0.11245 0.88512 0.0
C238 C 0.10418 0.10968 0.03026 0.0
O239 O 0.08821 0.09454 0.04015 0.0
N240 N 0.08919 0.07977 0.89684 0.0
C241 C 0.07676 0.04418 0.91254 0.0
C242 C 0.07484 0.06646 0.93274 0.0
C243 C 0.09989 0.06463 0.856 0.0
N244 N 0.09222 0.04308 0.8631 0.0
O245 O 0.11587 0.11097 0.82919 0.0
H246 H 0.06218 0.07252 0.96767 0.0
H247 H 0.11251 0.06924 0.81936 0.0
O248 O 0.10692 0.11775 0.97072 0.0
C249 C 0.10827 0.10967 0.76908 0.0
O250 O 0.08619 0.10738 0.76128 0.0
N251 N 0.06077 0.11525 0.92944 0.0
C252 C 0.01621 0.12968 0.95289 0.0
C253 C 0.03422 0.13798 0.99196 0.0
C254 C 0.05649 0.13073 0.97895 0.0
C255 C 0.04327 0.10633 0.89313 0.0
C256 C 0.02085 0.11299 0.90485 0.0
H257 H 0.0703 0.13927 1.00408 0.0
H258 H 0.04692 0.0953 0.85113 0.0
H259 H 0.12051 0.1565 0.90342 0.0
H260 H 0.06936 0.18824 0.78955 0.0
H261 H 0.0662 0.0302 0.92919 0.0
H262 H 0.0313 0.15105 0.02921 0.0
H263 H 0.0075 0.10652 0.87275 0.0
C264 C 0.9025 0.82185 0.57667 0.0
C265 C 0.92518 0.82661 0.56707 0.0
N266 N 0.92998 0.84619 0.59897 0.0
N267 N 0.89307 0.83836 0.61448 0.0
C268 C 0.91021 0.85303 0.62708 0.0
H269 H 0.89327 0.8076 0.55593 0.0
Co270 Co 0.86204 0.84118 0.63169 0.0
C271 C 0.86235 0.85512 0.77709 0.0
O272 O 0.84736 0.83898 0.78828 0.0
N273 N 0.83009 0.84451 0.64414 0.0
C274 C 0.79594 0.86005 0.66267 0.0
C275 C 0.81835 0.85938 0.68271 0.0
C276 C 0.81435 0.83704 0.59961 0.0
N277 N 0.79354 0.84618 0.60974 0.0
O278 O 0.86175 0.86784 0.57533 0.0
H279 H 0.82573 0.87093 0.71856 0.0
H280 H 0.81835 0.82633 0.55724 0.0
O281 O 0.86897 0.8588 0.7164 0.0
C282 C 0.8591 0.86015 0.51578 0.0
O283 O 0.85639 0.83811 0.50868 0.0
N284 N 0.86298 0.81309 0.67828 0.0
C285 C 0.87483 0.76793 0.70588 0.0
C286 C 0.8859 0.78596 0.73816 0.0
C287 C 0.87996 0.80838 0.72305 0.0
C288 C 0.85117 0.79568 0.64953 0.0
C289 C 0.85672 0.77301 0.66289 0.0
H290 H 0.89063 0.82181 0.74228 0.0
H291 H 0.83903 0.79907 0.61057 0.0
H292 H 0.90804 0.86892 0.65361 0.0
H293 H 0.93719 0.81658 0.53845 0.0
H294 H 0.78295 0.87146 0.68144 0.0
H295 H 0.90015 0.7828 0.77122 0.0
H296 H 0.8482 0.7597 0.63513 0.0
C297 C 0.93851 0.15484 0.32803 0.0
C298 C 0.93286 0.17727 0.3181 0.0
N299 N 0.91191 0.1807 0.34297 0.0
N300 N 0.92126 0.14412 0.35981 0.0
C301 C 0.9051 0.16036 0.36697 0.0
H302 H 0.95387 0.14689 0.31009 0.0
Co303 Co 0.91777 0.11264 0.37465 0.0
C304 C 0.90511 0.13407 0.50757 0.0
O305 O 0.92144 0.14896 0.49791 0.0
N306 N 0.91437 0.08113 0.38558 0.0
C307 C 0.91532 0.04545 0.42344 0.0
C308 C 0.91615 0.06818 0.44124 0.0
C309 C 0.91234 0.06594 0.33508 0.0
N310 N 0.91276 0.04426 0.35662 0.0
O311 O 0.89002 0.11404 0.32263 0.0
H312 H 0.91858 0.07478 0.49125 0.0
H313 H 0.9114 0.07044 0.28279 0.0
O314 O 0.90142 0.11864 0.46289 0.0
C315 C 0.89662 0.11301 0.26147 0.0
O316 O 0.91852 0.11093 0.24977 0.0
N317 N 0.94661 0.11077 0.41523 0.0
C318 C 0.99247 0.11632 0.44371 0.0
C319 C 0.97639 0.11589 0.49566 0.0
C320 C 0.95343 0.11225 0.48047 0.0
C321 C 0.96239 0.10787 0.36602 0.0
C322 C 0.98542 0.11094 0.37882 0.0
H323 H 0.94142 0.11135 0.52106 0.0
H324 H 0.95688 0.10506 0.3151 0.0
H325 H 0.88838 0.15718 0.38763 0.0
H326 H 0.94328 0.19007 0.29403 0.0
H327 H 0.91655 0.03098 0.45675 0.0
H328 H 0.98144 0.11905 0.54695 0.0
H329 H 0.99733 0.1108 0.3374 0.0
C330 C 0.61006 0.1878 0.08607 0.0
C331 C 0.58736 0.18404 0.07426 0.0
N332 N 0.58173 0.16374 0.10078 0.0
N333 N 0.61863 0.17019 0.12115 0.0
C334 C 0.60101 0.15568 0.12904 0.0
H335 H 0.6199 0.20219 0.06876 0.0
Co336 Co 0.64938 0.16615 0.13981 0.0
C337 C 0.64922 0.154 0.28564 0.0
O338 O 0.66535 0.16927 0.29236 0.0
N339 N 0.68101 0.16144 0.15299 0.0
C340 C 0.71343 0.14214 0.16597 0.0
C341 C 0.69129 0.14452 0.1875 0.0
C342 C 0.69733 0.16859 0.1097 0.0
N343 N 0.71718 0.15727 0.11668 0.0
O344 O 0.64855 0.13877 0.08686 0.0
H345 H 0.68278 0.13279 0.22068 0.0
H346 H 0.694 0.17988 0.06818 0.0
O347 O 0.64152 0.14986 0.22639 0.0
C348 C 0.65281 0.14455 1.0263 0.0
O349 O 0.65766 0.16596 1.01427 0.0
N350 N 0.64958 0.19488 0.1842 0.0
C351 C 0.63925 0.24073 0.20755 0.0
C352 C 0.62689 0.22343 0.23933 0.0
C353 C 0.63228 0.20065 0.22695 0.0
C354 C 0.66282 0.21158 0.15712 0.0
C355 C 0.65823 0.23454 0.16918 0.0
H356 H 0.62086 0.18778 0.24595 0.0
H357 H 0.67568 0.20756 0.12085 0.0
H358 H 0.60242 0.13942 0.15405 0.0
H359 H 0.57601 0.19503 0.04643 0.0
H360 H 0.72524 0.12906 0.18162 0.0
H361 H 0.61197 0.22736 0.269 0.0
H362 H 0.66861 0.24733 0.14489 0.0
C363 C 0.57113 0.85887 0.83641 0.0
C364 C 0.57431 0.83594 0.82724 0.0
N365 N 0.59404 0.82998 0.85664 0.0
N366 N 0.58864 0.86732 0.87205 0.0
C367 C 0.60254 0.84937 0.8829 0.0
H368 H 0.55722 0.86892 0.81689 0.0
Co369 Co 0.59266 0.89811 0.88937 0.0
C370 C 0.60532 0.89864 0.03489 0.0
O371 O 0.5901 0.91485 0.04172 0.0
N372 N 0.59721 0.92981 0.90172 0.0
C373 C 0.6149 0.96294 0.9179 0.0
C374 C 0.61369 0.94047 0.93694 0.0
C375 C 0.58938 0.94618 0.85974 0.0
N376 N 0.59963 0.96648 0.86896 0.0
O377 O 0.61988 0.89711 0.83583 0.0
H378 H 0.6258 0.93217 0.96937 0.0
H379 H 0.57782 0.94295 0.81889 0.0
O380 O 0.60919 0.89065 0.97576 0.0
C381 C 0.61368 0.90081 0.77533 0.0
O382 O 0.59226 0.90605 0.76464 0.0
N383 N 0.56405 0.89838 0.93377 0.0
C384 C 0.51847 0.88708 0.95711 0.0
C385 C 0.53595 0.87634 0.9928 0.0
C386 C 0.5586 0.88199 0.97982 0.0
C387 C 0.54709 0.90995 0.90186 0.0
C388 C 0.52423 0.90469 0.91309 0.0
H389 H 0.57162 0.87132 1.00137 0.0
H390 H 0.55101 0.9214 0.86162 0.0
H391 H 0.61872 0.85055 0.90848 0.0
H392 H 0.56337 0.82467 0.79908 0.0
H393 H 0.62757 0.9751 0.93413 0.0
H394 H 0.53226 0.86244 1.0267 0.0
H395 H 0.51137 0.9129 0.88272 0.0
C396 C 0.89669 0.1925 0.95785 0.0
C397 C 0.91956 0.19001 0.97015 0.0
N398 N 0.92653 0.17023 0.94288 0.0
N399 N 0.88927 0.17446 0.92252 0.0
C400 C 0.90776 0.16103 0.91479 0.0
H401 H 0.88592 0.20617 0.97547 0.0
Co402 Co 0.85884 0.16847 0.90382 0.0
C403 C 0.85945 0.15291 0.76115 0.0
O404 O 0.84162 0.16601 0.7519 0.0
N405 N 0.8276 0.16175 0.8914 0.0
C406 C 0.79644 0.14022 0.88456 0.0
C407 C 0.81837 0.14322 0.86193 0.0
C408 C 0.81098 0.16914 0.93329 0.0
N409 N 0.79183 0.15653 0.92977 0.0
O410 O 0.86099 0.14233 0.96185 0.0
H411 H 0.8276 0.13101 0.83201 0.0
H412 H 0.81376 0.18179 0.97171 0.0
O413 O 0.86798 0.15116 0.82043 0.0
C414 C 0.85688 0.14882 1.02191 0.0
O415 O 0.85074 0.17007 0.0312 0.0
N416 N 0.85727 0.19607 0.85311 0.0
C417 C 0.86637 0.24193 0.82577 0.0
C418 C 0.88039 0.22466 0.80004 0.0
C419 C 0.87531 0.20186 0.81318 0.0
C420 C 0.84207 0.21247 0.87161 0.0
C421 C 0.84593 0.23537 0.85653 0.0
H422 H 0.88767 0.18918 0.79853 0.0
H423 H 0.82788 0.2085 0.9033 0.0
H424 H 0.90732 0.14456 0.89061 0.0
H425 H 0.92999 0.2014 0.99956 0.0
H426 H 0.78544 0.12602 0.87277 0.0
H427 H 0.89628 0.22864 0.77528 0.0
H428 H 0.83376 0.2479 0.87368 0.0
C429 C 0.573 0.15203 0.72498 0.0
C430 C 0.57698 0.17475 0.7354 0.0
N431 N 0.59707 0.18013 0.70708 0.0
N432 N 0.5903 0.14313 0.68923 0.0
C433 C 0.60481 0.16062 0.6793 0.0
H434 H 0.55872 0.14242 0.74399 0.0
Co435 Co 0.59369 0.11229 0.67159 0.0
C436 C 0.60781 0.11215 0.526 0.0
O437 O 0.59251 0.09625 0.51573 0.0
N438 N 0.59745 0.08054 0.65876 0.0
C439 C 0.61461 0.04697 0.64459 0.0
C440 C 0.6137 0.06931 0.62387 0.0
C441 C 0.58932 0.06461 0.70166 0.0
N442 N 0.59948 0.04418 0.69434 0.0
O443 O 0.62069 0.11235 0.7262 0.0
H444 H 0.62593 0.07715 0.59084 0.0
H445 H 0.57764 0.0683 0.74194 0.0
O446 O 0.61081 0.1196 0.58613 0.0
C447 C 0.6138 0.10891 0.78627 0.0
O448 O 0.59201 0.10507 0.79549 0.0
N449 N 0.56532 0.1128 0.62704 0.0
C450 C 0.51984 0.12494 0.60425 0.0
C451 C 0.53742 0.13409 0.56495 0.0
C452 C 0.56004 0.1283 0.57831 0.0
C453 C 0.54831 0.10287 0.66309 0.0
C454 C 0.52559 0.10874 0.65286 0.0
H455 H 0.57317 0.13813 0.5541 0.0
H456 H 0.5523 0.09258 0.70594 0.0
H457 H 0.62082 0.15895 0.65312 0.0
H458 H 0.56627 0.18628 0.76359 0.0
H459 H 0.62701 0.0344 0.62903 0.0
H460 H 0.5339 0.14688 0.52734 0.0
H461 H 0.51299 0.10207 0.68712 0.0
C462 C 0.60692 0.82033 0.4707 0.0
C463 C 0.58392 0.82349 0.4786 0.0
N464 N 0.57819 0.84337 0.44962 0.0
N465 N 0.61564 0.83803 0.43635 0.0
C466 C 0.59779 0.85199 0.42497 0.0
H467 H 0.61679 0.80625 0.48993 0.0
Co468 Co 0.64646 0.84195 0.4191 0.0
C469 C 0.64674 0.85679 0.2747 0.0
O470 O 0.66286 0.84168 0.26438 0.0
N471 N 0.67811 0.84633 0.40662 0.0
C472 C 0.71091 0.86483 0.39331 0.0
C473 C 0.68849 0.86363 0.37414 0.0
C474 C 0.69463 0.83789 0.44708 0.0
N475 N 0.71476 0.84864 0.43952 0.0
O476 O 0.64592 0.8686 0.4751 0.0
H477 H 0.67997 0.8763 0.3441 0.0
H478 H 0.69156 0.82552 0.48601 0.0
O479 O 0.63905 0.85953 0.33471 0.0
C480 C 0.65016 0.86187 0.53479 0.0
O481 O 0.65468 0.8402 0.5438 0.0
N482 N 0.64636 0.81389 0.37201 0.0
C483 C 0.63312 0.76896 0.34819 0.0
C484 C 0.6235 0.78687 0.31165 0.0
C485 C 0.63001 0.80924 0.32516 0.0
C486 C 0.65728 0.7964 0.40343 0.0
C487 C 0.65107 0.7738 0.39185 0.0
H488 H 0.61985 0.82268 0.30378 0.0
H489 H 0.6688 0.79976 0.44388 0.0
H490 H 0.59916 0.86825 0.39996 0.0
H491 H 0.57245 0.81239 0.50558 0.0
H492 H 0.72277 0.87807 0.37925 0.0
H493 H 0.60965 0.78382 0.27712 0.0
H494 H 0.65872 0.76048 0.4218 0.0
C495 C 0.93732 0.8581 0.21727 0.0
C496 C 0.93404 0.83518 0.22616 0.0
N497 N 0.91476 0.82918 0.19436 0.0
N498 N 0.9203 0.86657 0.17963 0.0
C499 C 0.90661 0.84861 0.1671 0.0
H500 H 0.95091 0.86816 0.23849 0.0
Co501 Co 0.91655 0.89745 0.16201 0.0
C502 C 0.90496 0.89694 1.01488 0.0
O503 O 0.92116 0.91207 1.0068 0.0
N504 N 0.91232 0.92931 0.14943 0.0
C505 C 0.89688 0.96307 0.12649 0.0
C506 C 0.89845 0.9407 0.10721 0.0
C507 C 0.91821 0.94528 0.19537 0.0
N508 N 0.90882 0.96593 0.1834 0.0
O509 O 0.88904 0.89664 0.21437 0.0
H510 H 0.88836 0.93324 0.06795 0.0
H511 H 0.92788 0.94142 0.23987 0.0
O512 O 0.90036 0.89 0.07476 0.0
C513 C 0.8948 0.89979 0.27554 0.0
O514 O 0.91623 0.90431 0.28834 0.0
N515 N 0.94538 0.89752 0.11913 0.0
C516 C 0.99107 0.88578 0.0999 0.0
C517 C 0.97383 0.87476 0.06408 0.0
C518 C 0.95114 0.88061 0.07508 0.0
C519 C 0.96209 0.90956 0.15059 0.0
C520 C 0.98505 0.90402 0.14153 0.0
H521 H 0.93825 0.86975 0.05373 0.0
H522 H 0.95775 0.9218 0.18862 0.0
H523 H 0.89076 0.84984 0.13984 0.0
H524 H 0.94451 0.82401 0.2562 0.0
H525 H 0.88694 0.97587 0.10106 0.0
H526 H 0.97772 0.86049 0.03171 0.0
H527 H 0.99774 0.91261 0.17155 0.0
C528 C 0.60695 0.68574 0.97192 0.0
C529 C 0.58467 0.68009 0.98477 0.0
N530 N 0.58023 0.66029 0.95372 0.0
N531 N 0.6164 0.66954 0.93293 0.0
C532 C 0.59963 0.65428 0.92233 0.0
H533 H 0.61605 0.70012 0.99237 0.0
Co534 Co 0.64742 0.66666 0.91681 0.0
C535 C 0.64823 0.65369 0.77122 0.0
O536 O 0.66357 0.66971 0.76343 0.0
N537 N 0.67937 0.66315 0.9057 0.0
C538 C 0.71334 0.64692 0.88958 0.0
C539 C 0.69111 0.64797 0.8681 0.0
C540 C 0.6949 0.67036 0.95121 0.0
N541 N 0.71557 0.66081 0.94247 0.0
O542 O 0.64724 0.63982 0.97246 0.0
H543 H 0.68376 0.63645 0.83215 0.0
H544 H 0.69078 0.68104 0.99354 0.0
O545 O 0.64082 0.64948 0.83083 0.0
C546 C 0.64944 0.64761 0.03209 0.0
O547 O 0.65241 0.66962 0.03904 0.0
N548 N 0.64687 0.69501 0.8714 0.0
C549 C 0.63418 0.74018 0.84855 0.0
C550 C 0.62374 0.72242 0.81339 0.0
C551 C 0.63003 0.69995 0.82635 0.0
C552 C 0.65848 0.71229 0.90156 0.0
C553 C 0.65255 0.73502 0.89039 0.0
H554 H 0.61959 0.6866 0.80563 0.0
H555 H 0.67069 0.70868 0.94019 0.0
H556 H 0.60197 0.63839 0.89579 0.0
H557 H 0.57279 0.68946 1.01574 0.0
H558 H 0.72624 0.63519 0.87199 0.0
H559 H 0.60953 0.72573 0.78031 0.0
H560 H 0.66086 0.74824 0.91911 0.0
C561 C 0.57442 0.35799 0.23447 0.0
C562 C 0.5796 0.33547 0.24562 0.0
N563 N 0.59858 0.33038 0.21089 0.0
N564 N 0.59004 0.367 0.1928 0.0
C565 C 0.60463 0.34982 0.17959 0.0
H566 H 0.56056 0.36743 0.25685 0.0
Co567 Co 0.59259 0.39775 0.17248 0.0
C568 C 0.6044 0.39624 1.02581 0.0
O569 O 0.58785 0.41088 1.01566 0.0
N570 N 0.59588 0.42943 0.15699 0.0
C571 C 0.61196 0.46308 0.13608 0.0
C572 C 0.61089 0.44055 0.11743 0.0
C573 C 0.58872 0.44563 0.20053 0.0
N574 N 0.59804 0.4662 0.18875 0.0
O575 O 0.62016 0.39833 0.22452 0.0
H576 H 0.62229 0.43262 0.08206 0.0
H577 H 0.57815 0.44213 0.24359 0.0
O578 O 0.60893 0.39005 0.08631 0.0
C579 C 0.61444 0.40257 0.28516 0.0
O580 O 0.59291 0.40673 0.29778 0.0
N581 N 0.56374 0.39656 0.12935 0.0
C582 C 0.518 0.38566 0.10712 0.0
C583 C 0.5354 0.37294 0.07699 0.0
C584 C 0.55816 0.37862 0.08883 0.0
C585 C 0.54689 0.40995 0.15513 0.0
C586 C 0.52401 0.4051 0.14347 0.0
H587 H 0.57119 0.3672 0.07069 0.0
H588 H 0.55075 0.42329 0.1899 0.0
H589 H 0.62001 0.3518 0.15043 0.0
H590 H 0.5703 0.32378 0.27732 0.0
H591 H 0.62373 0.4756 0.11662 0.0
H592 H 0.53157 0.35768 0.04882 0.0
H593 H 0.51112 0.41572 0.16648 0.0
C594 C 0.90062 0.32573 0.49062 0.0
C595 C 0.92325 0.33024 0.50192 0.0
N596 N 0.92892 0.34899 0.46697 0.0
N597 N 0.89212 0.34156 0.44868 0.0
C598 C 0.90971 0.3556 0.43548 0.0
H599 H 0.89078 0.31213 0.51276 0.0
Co600 Co 0.86157 0.34473 0.42685 0.0
C601 C 0.86432 0.35666 0.28134 0.0
O602 O 0.84957 0.34029 0.27059 0.0
N603 N 0.8301 0.3486 0.40998 0.0
C604 C 0.79666 0.36504 0.38842 0.0
C605 C 0.81926 0.36378 0.37033 0.0
C606 C 0.81369 0.34151 0.45287 0.0
N607 N 0.79324 0.35104 0.44074 0.0
O608 O 0.86104 0.3719 0.48054 0.0
H609 H 0.82742 0.37509 0.33522 0.0
H610 H 0.81698 0.33071 0.49558 0.0
O611 O 0.87009 0.36152 0.34189 0.0
C612 C 0.85717 0.36566 0.54094 0.0
O613 O 0.85267 0.34408 0.55173 0.0
N614 N 0.86269 0.31614 0.38187 0.0
C615 C 0.87244 0.27051 0.35346 0.0
C616 C 0.88621 0.28798 0.32816 0.0
C617 C 0.88109 0.31063 0.34298 0.0
C618 C 0.84837 0.29936 0.40314 0.0
C619 C 0.85264 0.27655 0.38823 0.0
H620 H 0.89311 0.32356 0.328 0.0
H621 H 0.83451 0.30309 0.43635 0.0
H622 H 0.90824 0.37091 0.4057 0.0
H623 H 0.93466 0.32058 0.53355 0.0
H624 H 0.7843 0.37695 0.3688 0.0
H625 H 0.90179 0.28417 0.30139 0.0
H626 H 0.84119 0.26367 0.40733 0.0
C627 C 0.93819 0.64928 0.72069 0.0
C628 C 0.93449 0.67211 0.73089 0.0
N629 N 0.91421 0.67763 0.7041 0.0
N630 N 0.92051 0.64051 0.68652 0.0
C631 C 0.90609 0.65814 0.67734 0.0
H632 H 0.95257 0.63953 0.73848 0.0
Co633 Co 0.91625 0.60969 0.6696 0.0
C634 C 0.90296 0.60964 0.52436 0.0
O635 O 0.91803 0.59334 0.51677 0.0
N636 N 0.91136 0.57799 0.6578 0.0
C637 C 0.89261 0.54533 0.64401 0.0
C638 C 0.89447 0.56762 0.62354 0.0
C639 C 0.91893 0.56159 0.70021 0.0
N640 N 0.90802 0.54156 0.69245 0.0
O641 O 0.88941 0.61087 0.72547 0.0
H642 H 0.88253 0.57607 0.5909 0.0
H643 H 0.93037 0.56488 0.74138 0.0
O644 O 0.8992 0.61735 0.5839 0.0
C645 C 0.89636 0.60772 0.7856 0.0
O646 O 0.91801 0.60303 0.79423 0.0
N647 N 0.94454 0.60913 0.62298 0.0
C648 C 0.99026 0.6185 0.59424 0.0
C649 C 0.97277 0.63095 0.56363 0.0
C650 C 0.95007 0.62605 0.57871 0.0
C651 C 0.96138 0.59607 0.65007 0.0
C652 C 0.98425 0.60024 0.63567 0.0
H653 H 0.93717 0.63755 0.56036 0.0
H654 H 0.95758 0.58379 0.68823 0.0
H655 H 0.88986 0.65659 0.6523 0.0
H656 H 0.94554 0.68363 0.7578 0.0
H657 H 0.87975 0.53334 0.62805 0.0
H658 H 0.97653 0.64569 0.53304 0.0
H659 H 0.99718 0.59025 0.66069 0.0
C660 C 0.60756 0.32291 0.58953 0.0
C661 C 0.58475 0.32678 0.58009 0.0
N662 N 0.57944 0.34703 0.60755 0.0
N663 N 0.61656 0.34045 0.62386 0.0
C664 C 0.59906 0.35498 0.6339 0.0
H665 H 0.61714 0.3085 0.57114 0.0
Co666 Co 0.64746 0.34411 0.64037 0.0
C667 C 0.64827 0.35716 0.78554 0.0
O668 O 0.66445 0.34191 0.79242 0.0
N669 N 0.67918 0.34833 0.65189 0.0
C670 C 0.71244 0.36612 0.66499 0.0
C671 C 0.69022 0.36473 0.68656 0.0
C672 C 0.69506 0.34067 0.60803 0.0
N673 N 0.71531 0.35119 0.61479 0.0
O674 O 0.64686 0.37111 0.58557 0.0
H675 H 0.6823 0.37672 0.7202 0.0
H676 H 0.69141 0.32899 0.56777 0.0
O677 O 0.64029 0.36097 0.72641 0.0
C678 C 0.65016 0.36413 0.52553 0.0
O679 O 0.65396 0.34232 0.51662 0.0
N680 N 0.6475 0.3157 0.68566 0.0
C681 C 0.63655 0.27024 0.71187 0.0
C682 C 0.62574 0.28791 0.74669 0.0
C683 C 0.63119 0.31049 0.73218 0.0
C684 C 0.65912 0.29859 0.65452 0.0
C685 C 0.65402 0.27579 0.66714 0.0
H686 H 0.6205 0.32362 0.75318 0.0
H687 H 0.67055 0.3023 0.61403 0.0
H688 H 0.60078 0.37113 0.65933 0.0
H689 H 0.57307 0.31586 0.55329 0.0
H690 H 0.72484 0.37864 0.68049 0.0
H691 H 0.61194 0.28438 0.78112 0.0
H692 H 0.66226 0.26278 0.63735 0.0
C693 C 0.93659 0.35625 0.83874 0.0
C694 C 0.93061 0.33423 0.82341 0.0
N695 N 0.90962 0.33024 0.84791 0.0
N696 N 0.91954 0.36611 0.87334 0.0
C697 C 0.9033 0.3499 0.87789 0.0
H698 H 0.95199 0.36483 0.82329 0.0
Co699 Co 0.91689 0.39707 0.89294 0.0
C700 C 0.90377 0.39721 0.03909 0.0
O701 O 0.91818 0.41397 0.04833 0.0
N702 N 0.91331 0.42885 0.9077 0.0
C703 C 0.89379 0.46114 0.92062 0.0
C704 C 0.89586 0.43887 0.94061 0.0
C705 C 0.92112 0.44555 0.86657 0.0
N706 N 0.90957 0.46532 0.8735 0.0
O707 O 0.88943 0.3976 0.84053 0.0
H708 H 0.88343 0.43007 0.97079 0.0
H709 H 0.93283 0.44255 0.82579 0.0
O710 O 0.90073 0.38926 0.97954 0.0
C711 C 0.89575 0.40198 0.78051 0.0
O712 O 0.91744 0.40597 0.77 0.0
N713 N 0.94565 0.39609 0.93623 0.0
C714 C 0.99107 0.38426 0.96065 0.0
C715 C 0.97332 0.37357 0.99541 0.0
C716 C 0.95076 0.37955 0.98205 0.0
C717 C 0.96283 0.40746 0.90473 0.0
C718 C 0.98563 0.40198 0.91664 0.0
H719 H 0.93754 0.36912 1.00337 0.0
H720 H 0.9591 0.41913 0.86481 0.0
H721 H 0.88664 0.35298 0.89906 0.0
H722 H 0.94078 0.32218 0.79534 0.0
H723 H 0.88031 0.47271 0.935 0.0
H724 H 0.97676 0.35957 0.02918 0.0
H725 H 0.99871 0.41019 0.88708 0.0
C726 C 0.89847 0.68951 0.08589 0.0
C727 C 0.92143 0.68698 0.07588 0.0
N728 N 0.92806 0.66753 0.10566 0.0
N729 N 0.8907 0.67184 0.12229 0.0
C730 C 0.90906 0.65855 0.13295 0.0
H731 H 0.88792 0.703 0.06615 0.0
Co732 Co 0.86028 0.66684 0.14071 0.0
C733 C 0.86077 0.65188 0.28558 0.0
O734 O 0.84412 0.66637 0.29631 0.0
N735 N 0.82893 0.66149 0.15398 0.0
C736 C 0.79671 0.64189 0.16525 0.0
C737 C 0.81899 0.64376 0.18556 0.0
C738 C 0.81235 0.66962 0.11337 0.0
N739 N 0.79258 0.65815 0.1194 0.0
O740 O 0.86173 0.63992 0.0855 0.0
H741 H 0.82783 0.63126 0.21545 0.0
H742 H 0.81521 0.6822 0.07496 0.0
O743 O 0.86852 0.64962 0.22544 0.0
C744 C 0.85685 0.64529 1.02504 0.0
O745 O 0.85052 0.66631 1.01285 0.0
N746 N 0.85962 0.69505 0.18709 0.0
C747 C 0.8728 0.74023 0.20742 0.0
C748 C 0.88225 0.72268 0.24586 0.0
C749 C 0.87578 0.70018 0.23406 0.0
C750 C 0.84872 0.71226 0.15419 0.0
C751 C 0.85493 0.73496 0.16395 0.0
H752 H 0.88599 0.687 0.25658 0.0
H753 H 0.83738 0.70855 0.11359 0.0
H754 H 0.90842 0.64239 0.1588 0.0
H755 H 0.9322 0.69809 0.04654 0.0
H756 H 0.78525 0.62817 0.1781 0.0
H757 H 0.896 0.72606 0.28047 0.0
H758 H 0.84737 0.74797 0.13263 0.0
C759 C 0.56908 0.65069 0.33627 0.0
C760 C 0.57212 0.67364 0.32711 0.0
N761 N 0.59177 0.67972 0.35677 0.0
N762 N 0.58663 0.64232 0.37196 0.0
C763 C 0.60037 0.66034 0.383 0.0
H764 H 0.5553 0.64054 0.31653 0.0
Co765 Co 0.59092 0.61157 0.38903 0.0
C766 C 0.6058 0.61164 0.53342 0.0
O767 O 0.59059 0.5957 0.54445 0.0
N768 N 0.59561 0.57995 0.40086 0.0
C769 C 0.61346 0.5467 0.41353 0.0
C770 C 0.61207 0.5689 0.43525 0.0
C771 C 0.58784 0.5641 0.35727 0.0
N772 N 0.59842 0.54385 0.36365 0.0
O773 O 0.61752 0.61255 0.33296 0.0
H774 H 0.62408 0.5768 0.46875 0.0
H775 H 0.57592 0.56778 0.31763 0.0
O776 O 0.60855 0.61906 0.47314 0.0
C777 C 0.61161 0.60899 0.27214 0.0
O778 O 0.5903 0.60373 0.26016 0.0
N779 N 0.56296 0.61132 0.43671 0.0
C780 C 0.51776 0.62286 0.46459 0.0
C781 C 0.53568 0.63378 0.49769 0.0
C782 C 0.55812 0.62796 0.48258 0.0
C783 C 0.5456 0.59948 0.40772 0.0
C784 C 0.52291 0.60485 0.4213 0.0
H785 H 0.57142 0.63872 0.50207 0.0
H786 H 0.549 0.58763 0.36804 0.0
H787 H 0.61657 0.6592 0.40842 0.0
H788 H 0.56119 0.68479 0.29841 0.0
H789 H 0.62604 0.53428 0.42874 0.0
H790 H 0.53242 0.64797 0.53096 0.0
H791 H 0.50963 0.59643 0.39312 0.0
C792 C 0.39908 0.32393 0.08228 0.0
C793 C 0.42172 0.32835 0.07079 0.0
N794 N 0.42745 0.34714 0.10538 0.0
N795 N 0.39062 0.33985 0.12402 0.0
C796 C 0.40826 0.35386 0.13697 0.0
H797 H 0.38917 0.31043 0.05996 0.0
Co798 Co 0.35994 0.34339 0.14403 0.0
C799 C 0.36098 0.35493 0.29081 0.0
O800 O 0.34545 0.33908 0.29843 0.0
N801 N 0.32829 0.34764 0.15898 0.0
C802 C 0.29555 0.36582 0.17772 0.0
C803 C 0.31787 0.36354 0.19721 0.0
C804 C 0.31182 0.34101 0.11557 0.0
N805 N 0.29187 0.35187 0.12553 0.0
O806 O 0.36024 0.37092 0.09156 0.0
H807 H 0.32626 0.37473 0.2321 0.0
H808 H 0.31496 0.3303 0.07255 0.0
O809 O 0.36799 0.35952 0.23101 0.0
C810 C 0.35646 0.36502 0.0308 0.0
O811 O 0.35161 0.34358 1.01907 0.0
N812 N 0.36028 0.31456 0.18707 0.0
C813 C 0.37038 0.26865 0.21048 0.0
C814 C 0.38297 0.28591 0.2416 0.0
C815 C 0.37773 0.30871 0.22908 0.0
C816 C 0.34718 0.29792 0.15922 0.0
C817 C 0.35175 0.27493 0.17089 0.0
H818 H 0.38921 0.32154 0.24785 0.0
H819 H 0.33445 0.30211 0.12269 0.0
H820 H 0.40677 0.3693 0.16614 0.0
H821 H 0.43305 0.31866 0.03891 0.0
H822 H 0.28349 0.37805 0.19728 0.0
H823 H 0.39798 0.28195 0.27072 0.0
H824 H 0.34167 0.26218 0.14546 0.0
C825 C 0.44068 0.65421 0.86058 0.0
C826 C 0.43685 0.67657 0.84458 0.0
N827 N 0.41448 0.68093 0.85142 0.0
N828 N 0.42094 0.64436 0.87915 0.0
C829 C 0.40515 0.66097 0.87109 0.0
H830 H 0.45686 0.64558 0.85676 0.0
Co831 Co 0.41689 0.61294 0.89478 0.0
C832 C 0.39722 0.63514 1.02274 0.0
O833 O 0.4061 0.65486 1.00673 0.0
N834 N 0.41322 0.58134 0.90575 0.0
C835 C 0.41527 0.54576 0.94387 0.0
C836 C 0.41593 0.56852 0.96131 0.0
C837 C 0.41069 0.56604 0.8557 0.0
N838 N 0.41191 0.5444 0.87735 0.0
O839 O 0.38985 0.61408 0.83938 0.0
H840 H 0.41926 0.57526 1.01072 0.0
H841 H 0.40927 0.57042 0.80342 0.0
O842 O 0.39965 0.61809 0.98261 0.0
C843 C 0.39772 0.61307 0.77946 0.0
O844 O 0.41987 0.611 0.77213 0.0
N845 N 0.44528 0.6114 0.939 0.0
C846 C 0.49174 0.61817 0.96062 0.0
C847 C 0.47549 0.62763 1.0041 0.0
C848 C 0.45232 0.6238 0.99294 0.0
C849 C 0.46087 0.60036 0.90019 0.0
C850 C 0.48415 0.60332 0.91048 0.0
H851 H 0.44047 0.63254 1.02443 0.0
H852 H 0.45527 0.59081 0.85699 0.0
H853 H 0.38725 0.65848 0.8812 0.0
H854 H 0.44957 0.68862 0.82799 0.0
H855 H 0.41754 0.53138 0.97707 0.0
H856 H 0.48039 0.63946 0.043 0.0
H857 H 0.49604 0.59535 0.87629 0.0
C858 C 0.1066 0.68474 0.58109 0.0
C859 C 0.0843 0.67953 0.56731 0.0
N860 N 0.07939 0.65955 0.59691 0.0
N861 N 0.11562 0.66821 0.61965 0.0
C862 C 0.09859 0.6531 0.62871 0.0
H863 H 0.11599 0.69916 0.56189 0.0
Co864 Co 0.14653 0.66497 0.63716 0.0
C865 C 0.14514 0.65251 0.78442 0.0
O866 O 0.15941 0.66928 0.79563 0.0
N867 N 0.17837 0.66116 0.64919 0.0
C868 C 0.21269 0.64687 0.6714 0.0
C869 C 0.19048 0.64844 0.69281 0.0
C870 C 0.19372 0.66653 0.60093 0.0
N871 N 0.21465 0.65784 0.61245 0.0
O872 O 0.1462 0.63781 0.58277 0.0
H873 H 0.18366 0.63917 0.73477 0.0
H874 H 0.18929 0.67549 0.55557 0.0
O875 O 0.13929 0.64807 0.72345 0.0
C876 C 0.1485 0.6446 0.52214 0.0
O877 O 0.15117 0.6665 0.51167 0.0
N878 N 0.1463 0.69343 0.68197 0.0
C879 C 0.13747 0.73921 0.71092 0.0
C880 C 0.12429 0.7219 0.73962 0.0
C881 C 0.12887 0.69918 0.72427 0.0
C882 C 0.1599 0.71005 0.65606 0.0
C883 C 0.15594 0.73298 0.67041 0.0
H884 H 0.1171 0.68637 0.7417 0.0
H885 H 0.17272 0.70592 0.61949 0.0
H886 H 0.10059 0.63706 0.65462 0.0
H887 H 0.07269 0.68944 0.53703 0.0
H888 H 0.22604 0.63763 0.69673 0.0
H889 H 0.10939 0.72588 0.76933 0.0
H890 H 0.16643 0.74581 0.64672 0.0
C891 C 0.07315 0.35731 0.32906 0.0
C892 C 0.07742 0.3346 0.31807 0.0
N893 N 0.0967 0.32902 0.35048 0.0
N894 N 0.08967 0.36595 0.36827 0.0
C895 C 0.10386 0.34835 0.38022 0.0
H896 H 0.05931 0.36713 0.30816 0.0
Co897 Co 0.0936 0.39665 0.38706 0.0
C898 C 0.10685 0.39547 0.53223 0.0
O899 O 0.09122 0.41106 0.54276 0.0
N900 N 0.09829 0.42818 0.40076 0.0
C901 C 0.1163 0.46116 0.41663 0.0
C902 C 0.1144 0.43888 0.43735 0.0
C903 C 0.0913 0.44429 0.35683 0.0
N904 N 0.10182 0.46446 0.36552 0.0
O905 O 0.12048 0.39608 0.33199 0.0
H906 H 0.12592 0.4307 0.47181 0.0
H907 H 0.07995 0.44091 0.31552 0.0
O908 O 0.11056 0.38868 0.47178 0.0
C909 C 0.11393 0.39963 0.27173 0.0
O910 O 0.09229 0.40406 0.26174 0.0
N911 N 0.06529 0.39667 0.43336 0.0
C912 C 0.01958 0.38692 0.4598 0.0
C913 C 0.03694 0.37399 0.48918 0.0
C914 C 0.05967 0.37908 0.47521 0.0
C915 C 0.04855 0.41039 0.40862 0.0
C916 C 0.02567 0.40609 0.42226 0.0
H917 H 0.07257 0.36738 0.49253 0.0
H918 H 0.05243 0.42351 0.37307 0.0
H919 H 0.11971 0.34992 0.40722 0.0
H920 H 0.06731 0.32311 0.288 0.0
H921 H 0.12887 0.47329 0.43362 0.0
H922 H 0.03301 0.35892 0.51817 0.0
H923 H 0.01281 0.41682 0.39969 0.0
C924 C 0.4005 0.68845 0.47316 0.0
C925 C 0.42323 0.68435 0.4833 0.0
N926 N 0.42828 0.66377 0.45767 0.0
N927 N 0.39128 0.6707 0.44025 0.0
C928 C 0.40861 0.65586 0.43161 0.0
H929 H 0.39113 0.70317 0.49033 0.0
Co930 Co 0.36041 0.66719 0.42267 0.0
C931 C 0.36055 0.63596 0.29782 0.0
O932 O 0.34283 0.62394 0.31636 0.0
N933 N 0.32888 0.66399 0.40786 0.0
C934 C 0.29342 0.66851 0.37036 0.0
C935 C 0.31627 0.66978 0.35395 0.0
C936 C 0.31333 0.65914 0.45574 0.0
N937 N 0.29176 0.66163 0.43445 0.0
O938 O 0.36109 0.63958 0.47527 0.0
H939 H 0.32321 0.67569 0.30689 0.0
H940 H 0.31742 0.6552 0.50699 0.0
O941 O 0.36793 0.65169 0.33664 0.0
C942 C 0.35914 0.64588 0.53648 0.0
O943 O 0.35572 0.66759 0.54881 0.0
N944 N 0.36029 0.69552 0.37963 0.0
C945 C 0.37188 0.74063 0.35552 0.0
C946 C 0.38029 0.72325 0.31433 0.0
C947 C 0.37439 0.70071 0.32746 0.0
C948 C 0.35013 0.71239 0.41576 0.0
C949 C 0.35565 0.7352 0.40435 0.0
H950 H 0.38306 0.68754 0.30012 0.0
H951 H 0.33949 0.70803 0.45806 0.0
H952 H 0.40671 0.63952 0.40738 0.0
H953 H 0.435 0.69536 0.5094 0.0
H954 H 0.27921 0.67286 0.33842 0.0
H955 H 0.39272 0.72688 0.27571 0.0
H956 H 0.34887 0.74818 0.43726 0.0
C957 C 0.07355 0.65079 0.22664 0.0
C958 C 0.07973 0.67275 0.24109 0.0
N959 N 0.0996 0.67705 0.21014 0.0
N960 N 0.08934 0.64134 0.18623 0.0
C961 C 0.10503 0.65782 0.1767 0.0
H962 H 0.05899 0.64189 0.24679 0.0
Co963 Co 0.09022 0.61036 0.1681 0.0
C964 C 0.10507 0.60811 1.02286 0.0
O965 O 0.08967 0.59236 1.014 0.0
N966 N 0.09074 0.57782 0.15455 0.0
C967 C 0.07789 0.5423 0.14044 0.0
C968 C 0.07595 0.56455 0.12009 0.0
C969 C 0.10178 0.56265 0.19431 0.0
N970 N 0.0938 0.54122 0.18844 0.0
O971 O 0.11727 0.60891 0.22249 0.0
H972 H 0.06295 0.57065 0.0864 0.0
H973 H 0.11473 0.56718 0.22996 0.0
O974 O 0.10786 0.61632 0.0822 0.0
C975 C 0.11039 0.60688 0.28321 0.0
O976 O 0.08868 0.60283 0.2934 0.0
N977 N 0.06211 0.61319 0.12486 0.0
C978 C 0.01762 0.62738 0.10164 0.0
C979 C 0.03555 0.63576 0.0624 0.0
C980 C 0.0578 0.62868 0.07543 0.0
C981 C 0.0447 0.60425 0.16154 0.0
C982 C 0.02227 0.61079 0.14993 0.0
H983 H 0.07155 0.63735 0.05032 0.0
H984 H 0.04842 0.59325 0.20356 0.0
H985 H 0.1207 0.65539 0.14914 0.0
H986 H 0.07052 0.68455 0.2727 0.0
H987 H 0.06695 0.5284 0.12547 0.0
H988 H 0.03257 0.64879 1.0251 0.0
H989 H 0.00893 0.60431 0.18216 0.0
C990 C 0.10947 0.32015 0.96933 0.0
C991 C 0.08669 0.32396 0.98026 0.0
N992 N 0.08117 0.34428 0.95363 0.0
N993 N 0.11823 0.33778 0.93481 0.0
C994 C 0.10063 0.3523 0.9262 0.0
H995 H 0.11921 0.30574 0.98699 0.0
Co996 Co 0.14909 0.34202 0.91725 0.0
C997 C 0.14912 0.35431 0.77161 0.0
O998 O 0.16536 0.33913 0.76465 0.0
N999 N 0.18076 0.347 0.90477 0.0
C1000 C 0.21305 0.36632 0.89016 0.0
C1001 C 0.19097 0.36366 0.86895 0.0
C1002 C 0.19709 0.34032 0.94862 0.0
N1003 N 0.21677 0.35182 0.94103 0.0
O1004 O 0.14791 0.3692 0.9709 0.0
H1005 H 0.18248 0.37506 0.8348 0.0
H1006 H 0.19394 0.32912 0.99055 0.0
O1007 O 0.14137 0.35839 0.8309 0.0
C1008 C 0.15175 0.3627 0.03106 0.0
O1009 O 0.15609 0.34105 0.04117 0.0
N1010 N 0.14978 0.31348 0.87254 0.0
C1011 C 0.14125 0.26761 0.84469 0.0
C1012 C 0.12848 0.28481 0.81383 0.0
C1013 C 0.13294 0.30759 0.82856 0.0
C1014 C 0.1631 0.29695 0.90015 0.0
C1015 C 0.15932 0.27398 0.88628 0.0
H1016 H 0.12125 0.32028 0.80989 0.0
H1017 H 0.17534 0.30111 0.93808 0.0
H1018 H 0.10218 0.36855 0.90121 0.0
H1019 H 0.07522 0.31297 1.00767 0.0
H1020 H 0.22486 0.37917 0.87292 0.0
H1021 H 0.11385 0.28075 0.78325 0.0
H1022 H 0.16949 0.26125 0.91161 0.0
C1023 C 0.43503 0.35875 0.73146 0.0
C1024 C 0.42991 0.33637 0.74448 0.0
N1025 N 0.40974 0.33166 0.71587 0.0
N1026 N 0.41827 0.36799 0.69429 0.0
C1027 C 0.40309 0.35104 0.68543 0.0
H1028 H 0.44967 0.36797 0.74977 0.0
Co1029 Co 0.41544 0.39887 0.67619 0.0
C1030 C 0.40229 0.39787 0.52956 0.0
O1031 O 0.41853 0.41274 0.51828 0.0
N1032 N 0.41221 0.4307 0.66345 0.0
C1033 C 0.39776 0.46512 0.64399 0.0
C1034 C 0.39851 0.44286 0.62267 0.0
C1035 C 0.41892 0.44602 0.71016 0.0
N1036 N 0.41047 0.46713 0.69978 0.0
O1037 O 0.38836 0.3992 0.73107 0.0
H1038 H 0.38788 0.43594 0.58376 0.0
H1039 H 0.42816 0.44121 0.75455 0.0
O1040 O 0.39831 0.39163 0.59048 0.0
C1041 C 0.39527 0.40171 0.79148 0.0
O1042 O 0.41723 0.40395 0.80145 0.0
N1043 N 0.4438 0.39797 0.63101 0.0
C1044 C 0.48915 0.38639 0.60529 0.0
C1045 C 0.47136 0.3751 0.57259 0.0
C1046 C 0.44884 0.3809 0.58681 0.0
C1047 C 0.46098 0.41004 0.66001 0.0
C1048 C 0.48375 0.40462 0.64762 0.0
H1049 H 0.43558 0.37006 0.56738 0.0
H1050 H 0.4573 0.42236 0.69838 0.0
H1051 H 0.38694 0.35316 0.66028 0.0
H1052 H 0.44009 0.32453 0.77318 0.0
H1053 H 0.38746 0.47843 0.62209 0.0
H1054 H 0.47476 0.36078 0.53994 0.0
H1055 H 0.49688 0.41334 0.67559 0.0
C1056 C 0.12981 0.13897 0.08594 0.0
C1057 C 0.11626 0.11931 0.09074 0.0
C1058 C 0.13956 0.14915 0.14324 0.0
C1059 C 0.1362 0.14032 0.20854 0.0
H1060 H 0.13259 0.14689 0.03766 0.0
H1061 H 0.14954 0.16443 0.13609 0.0
S1062 S 0.10339 0.08828 0.24918 0.0
N1063 N 0.10104 0.09072 0.16716 0.0
N1064 N 0.11903 0.11003 0.27355 0.0
C1065 C 0.12308 0.12044 0.21399 0.0
C1066 C 0.11327 0.10994 0.15567 0.0
C1067 C 0.11301 0.89142 0.40225 0.0
C1068 C 0.1191 0.88464 0.46788 0.0
C1069 C 0.12287 0.88148 0.34476 0.0
C1070 C 0.13945 0.86429 0.34975 0.0
H1071 H 0.10021 0.90442 0.39479 0.0
H1072 H 0.11726 0.88724 0.29597 0.0
S1073 S 0.16176 0.84034 0.50966 0.0
N1074 N 0.14308 0.85963 0.53376 0.0
N1075 N 0.16164 0.84103 0.42706 0.0
C1076 C 0.14592 0.85751 0.4152 0.0
C1077 C 0.13579 0.86762 0.47368 0.0
C1078 C 0.38641 0.88506 0.70847 0.0
C1079 C 0.36953 0.86819 0.70392 0.0
C1080 C 0.3961 0.89496 0.6507 0.0
C1081 C 0.38955 0.88839 0.58531 0.0
H1082 H 0.3924 0.89058 0.75709 0.0
H1083 H 0.40918 0.90768 0.65771 0.0
S1084 S 0.34575 0.84518 0.54471 0.0
N1085 N 0.34641 0.84563 0.62729 0.0
N1086 N 0.36469 0.86411 0.52008 0.0
C1087 C 0.37253 0.87173 0.57996 0.0
C1088 C 0.36255 0.86171 0.6387 0.0
C1089 C 0.36672 0.14902 0.90338 0.0
C1090 C 0.3725 0.14225 0.83748 0.0
C1091 C 0.37685 0.13907 0.96034 0.0
C1092 C 0.39325 0.12173 0.95451 0.0
H1093 H 0.35445 0.16249 0.91143 0.0
H1094 H 0.37197 0.14529 1.00934 0.0
S1095 S 0.41396 0.09702 0.79359 0.0
N1096 N 0.39538 0.11653 0.77041 0.0
N1097 N 0.41435 0.0978 0.87619 0.0
C1098 C 0.3989 0.11448 0.88881 0.0
C1099 C 0.38859 0.1247 0.83085 0.0
C1100 C 0.86691 0.86019 0.90219 0.0
C1101 C 0.87261 0.86715 0.83639 0.0
C1102 C 0.87702 0.87003 0.95931 0.0
C1103 C 0.89333 0.88742 0.95374 0.0
H1104 H 0.85471 0.84667 0.91004 0.0
H1105 H 0.87219 0.86368 1.00821 0.0
S1106 S 0.91369 0.91272 0.79326 0.0
N1107 N 0.89527 0.89315 0.76975 0.0
N1108 N 0.91418 0.91169 0.87582 0.0
C1109 C 0.89889 0.89487 0.88816 0.0
C1110 C 0.8886 0.88477 0.83004 0.0
C1111 C 0.89484 0.14434 0.69414 0.0
C1112 C 0.87103 0.14341 0.70035 0.0
C1113 C 0.90565 0.14025 0.63217 0.0
C1114 C 0.89324 0.13449 0.57399 0.0
H1115 H 0.9051 0.14966 0.73632 0.0
H1116 H 0.92393 0.1423 0.62935 0.0
S1117 S 0.83073 0.12762 0.56488 0.0
N1118 N 0.83548 0.13491 0.64353 0.0
N1119 N 0.85592 0.12656 0.52829 0.0
C1120 C 0.8696 0.13209 0.58054 0.0
C1121 C 0.8585 0.13674 0.64327 0.0
C1122 C 0.62314 0.12557 0.34294 0.0
C1123 C 0.63951 0.14294 0.3476 0.0
C1124 C 0.61347 0.11558 0.40063 0.0
C1125 C 0.61954 0.12251 0.46615 0.0
H1126 H 0.61758 0.11968 0.29427 0.0
H1127 H 0.60083 0.10244 0.39343 0.0
S1128 S 0.66169 0.1673 0.50709 0.0
N1129 N 0.66147 0.16653 0.42448 0.0
N1130 N 0.64327 0.14784 0.53156 0.0
C1131 C 0.636 0.13973 0.47161 0.0
C1132 C 0.64594 0.14988 0.41293 0.0
C1133 C 0.64351 0.86262 0.14949 0.0
C1134 C 0.6365 0.86863 0.21501 0.0
C1135 C 0.63363 0.87241 0.0919 0.0
C1136 C 0.61631 0.88886 0.09672 0.0
H1137 H 0.65663 0.84992 0.14219 0.0
H1138 H 0.63957 0.86689 0.04318 0.0
S1139 S 0.59179 0.91094 0.25629 0.0
N1140 N 0.61115 0.89238 0.28064 0.0
N1141 N 0.59268 0.91084 0.1737 0.0
C1142 C 0.6093 0.89525 0.16206 0.0
C1143 C 0.61932 0.88516 0.22064 0.0
C1144 C 0.61179 0.61536 0.65844 0.0
C1145 C 0.61789 0.62191 0.5926 0.0
C1146 C 0.62179 0.62532 0.71554 0.0
C1147 C 0.63855 0.64229 0.70992 0.0
H1148 H 0.59882 0.60257 0.66636 0.0
H1149 H 0.61611 0.61981 0.76453 0.0
S1150 S 0.66124 0.66528 0.54913 0.0
N1151 N 0.64222 0.64628 0.52573 0.0
N1152 N 0.66111 0.66488 0.63176 0.0
C1153 C 0.64511 0.64875 0.64422 0.0
C1154 C 0.6348 0.63864 0.58613 0.0
C1155 C 0.62014 0.38353 0.8428 0.0
C1156 C 0.63816 0.36784 0.84742 0.0
C1157 C 0.60974 0.39273 0.90048 0.0
C1158 C 0.61672 0.38667 0.96593 0.0
H1159 H 0.61377 0.38861 0.79416 0.0
H1160 H 0.59582 0.40455 0.89334 0.0
S1161 S 0.66344 0.34656 1.00674 0.0
N1162 N 0.66279 0.34694 0.92415 0.0
N1163 N 0.6432 0.36414 0.0313 0.0
C1164 C 0.63487 0.37121 0.97138 0.0
C1165 C 0.64555 0.36186 0.91268 0.0
C1166 C 0.88531 0.40041 0.15302 0.0
C1167 C 0.893 0.38664 0.09951 0.0
C1168 C 0.87665 0.39088 0.21289 0.0
C1169 C 0.87557 0.36718 0.2218 0.0
H1170 H 0.88587 0.41876 0.14838 0.0
H1171 H 0.87036 0.4021 0.25174 0.0
S1172 S 0.89789 0.32384 0.10396 0.0
N1173 N 0.90151 0.34813 0.06388 0.0
N1174 N 0.88556 0.33034 0.17569 0.0
C1175 C 0.88407 0.35332 0.16997 0.0
C1176 C 0.89269 0.36298 0.10908 0.0
C1177 C 0.86416 0.6456 0.41081 0.0
C1178 C 0.87138 0.64012 0.34504 0.0
C1179 C 0.8742 0.63573 0.46814 0.0
C1180 C 0.8919 0.6197 0.46284 0.0
H1181 H 0.8507 0.6579 0.41851 0.0
H1182 H 0.86804 0.64081 0.51704 0.0
S1183 S 0.91731 0.59929 0.3025 0.0
N1184 N 0.8975 0.61745 0.27875 0.0
N1185 N 0.91626 0.59887 0.38507 0.0
C1186 C 0.8992 0.61392 0.39724 0.0
C1187 C 0.88902 0.6241 0.33895 0.0
C1188 C 0.39671 0.39384 0.40428 0.0
C1189 C 0.39047 0.38735 0.47011 0.0
C1190 C 0.38709 0.3836 0.34697 0.0
C1191 C 0.37061 0.36634 0.3523 0.0
H1192 H 0.40946 0.40685 0.39651 0.0
H1193 H 0.3928 0.38916 0.29807 0.0
S1194 S 0.34807 0.34295 0.5128 0.0
N1195 N 0.36651 0.36247 0.53649 0.0
N1196 N 0.34842 0.34329 0.43018 0.0
C1197 C 0.36403 0.35982 0.41794 0.0
C1198 C 0.3739 0.37026 0.47623 0.0
C1199 C 0.3984 0.64586 0.14425 0.0
C1200 C 0.38849 0.63259 0.09315 0.0
C1201 C 0.38992 0.64594 0.21013 0.0
C1202 C 0.37065 0.63317 0.22862 0.0
H1203 H 0.41295 0.65653 0.13325 0.0
H1204 H 0.39852 0.65644 0.24662 0.0
S1205 S 0.33917 0.59411 0.11502 0.0
N1206 N 0.35924 0.60501 0.06678 0.0
N1207 N 0.34272 0.60554 0.18987 0.0
C1208 C 0.36102 0.61907 0.17854 0.0
C1209 C 0.37003 0.61871 0.11125 0.0
C1210 C 0.13124 0.63687 0.96702 0.0
C1211 C 0.11635 0.61824 0.96171 0.0
C1212 C 0.14061 0.6474 0.90972 0.0
C1213 C 0.13551 0.63998 0.84392 0.0
H1214 H 0.13548 0.64366 1.01584 0.0
H1215 H 0.15174 0.66182 0.91743 0.0
S1216 S 0.09793 0.59149 0.80124 0.0
N1217 N 0.09745 0.59243 0.88382 0.0
N1218 N 0.11483 0.61239 0.77755 0.0
C1219 C 0.12091 0.6212 0.8378 0.0
C1220 C 0.11144 0.61034 0.89608 0.0
C1221 C 0.12205 0.38183 0.71488 0.0
C1222 C 0.13925 0.36527 0.7099 0.0
C1223 C 0.11211 0.39161 0.6574 0.0
C1224 C 0.11873 0.38526 0.59183 0.0
H1225 H 0.11603 0.38723 0.76363 0.0
H1226 H 0.09883 0.40412 0.66481 0.0
S1227 S 0.16325 0.3428 0.55012 0.0
N1228 N 0.16267 0.34313 0.63273 0.0
N1229 N 0.14394 0.36142 0.52594 0.0
C1230 C 0.13603 0.36885 0.58602 0.0
C1231 C 0.14625 0.35893 0.64451 0.0
C1232 C 0.15382 0.13274 0.65209 0.0
C1233 C 0.14477 0.12809 0.58798 0.0
C1234 C 0.14306 0.12515 0.71102 0.0
C1235 C 0.12265 0.11281 0.70815 0.0
H1236 H 0.16859 0.14361 0.65697 0.0
H1237 H 0.14989 0.13041 0.75892 0.0
S1238 S 0.09353 0.09355 0.55307 0.0
N1239 N 0.11559 0.10816 0.52557 0.0
N1240 N 0.09517 0.09418 0.63546 0.0
C1241 C 0.11445 0.10653 0.64426 0.0
C1242 C 0.12557 0.11403 0.5844 0.0
C1243 C 0.14442 0.8758 0.84392 0.0
C1244 C 0.13065 0.89526 0.84552 0.0
C1245 C 0.15228 0.86587 0.90349 0.0
C1246 C 0.1467 0.87502 0.96694 0.0
H1247 H 0.14751 0.86703 0.79706 0.0
H1248 H 0.16158 0.85001 0.89969 0.0
S1249 S 0.11539 0.92879 0.99656 0.0
N1250 N 0.11493 0.92553 0.91444 0.0
N1251 N 0.12967 0.90681 1.02635 0.0
C1252 C 0.13503 0.89583 0.96861 0.0
C1253 C 0.12699 0.90594 0.90787 0.0
C1254 C 0.35642 0.86831 0.15013 0.0
C1255 C 0.36187 0.87742 0.08655 0.0
C1256 C 0.36498 0.8778 0.20944 0.0
C1257 C 0.37933 0.89683 0.2075 0.0
H1258 H 0.3466 0.85279 0.15414 0.0
H1259 H 0.36185 0.86907 0.25632 0.0
S1260 S 0.39443 0.93037 0.05636 0.0
N1261 N 0.3794 0.90887 1.02691 0.0
N1262 N 0.39539 0.92684 0.13833 0.0
C1263 C 0.3829 0.90754 0.14517 0.0
C1264 C 0.37417 0.89786 0.08468 0.0
C1265 C 0.36588 0.13086 0.33436 0.0
C1266 C 0.38419 0.11555 0.33679 0.0
C1267 C 0.35659 0.13996 0.39356 0.0
C1268 C 0.36496 0.1338 0.45739 0.0
H1269 H 0.35986 0.13721 0.28665 0.0
H1270 H 0.34365 0.15298 0.38905 0.0
S1271 S 0.41065 0.09209 0.49084 0.0
N1272 N 0.40901 0.09318 0.40852 0.0
N1273 N 0.39095 0.10963 0.51904 0.0
C1274 C 0.38184 0.11703 0.46047 0.0
C1275 C 0.39161 0.10811 0.40036 0.0
C1276 C 0.88504 0.90325 0.39682 0.0
C1277 C 0.88003 0.89391 0.33335 0.0
C1278 C 0.87654 0.89357 0.45619 0.0
C1279 C 0.86293 0.87397 0.45429 0.0
H1280 H 0.89686 0.9173 0.40095 0.0
H1281 H 0.88211 0.90044 0.50374 0.0
S1282 S 0.84225 0.84487 0.30063 0.0
N1283 N 0.85837 0.8657 0.27216 0.0
N1284 N 0.84277 0.84713 0.38296 0.0
C1285 C 0.85629 0.86566 0.39083 0.0
C1286 C 0.86469 0.87574 0.33052 0.0
C1287 C 0.86467 0.13375 0.20529 0.0
C1288 C 0.88159 0.11695 0.203 0.0
C1289 C 0.85535 0.1426 0.14593 0.0
C1290 C 0.86256 0.13498 0.08213 0.0
H1291 H 0.85998 0.14143 0.25264 0.0
H1292 H 0.84341 0.15656 0.15016 0.0
S1293 S 0.90342 0.08818 0.05024 0.0
N1294 N 0.90278 0.09063 0.13258 0.0
N1295 N 0.88542 0.10739 1.02145 0.0
C1296 C 0.87781 0.11662 0.07968 0.0
C1297 C 0.88729 0.10762 0.14005 0.0
C1298 C 0.61921 0.10692 0.91027 0.0
C1299 C 0.62806 0.11286 0.84673 0.0
C1300 C 0.62882 0.11522 0.96976 0.0
C1301 C 0.64763 0.12983 0.96798 0.0
H1302 H 0.60377 0.09696 0.9142 0.0
H1303 H 0.62028 0.11172 1.01674 0.0
S1304 S 0.6804 0.14639 0.8166 0.0
N1305 N 0.65904 0.13118 0.78705 0.0
N1306 N 0.67718 0.14673 0.89874 0.0
C1307 C 0.65811 0.13388 0.90552 0.0
C1308 C 0.64834 0.12539 0.84489 0.0
C1309 C 0.62101 0.90311 0.65231 0.0
C1310 C 0.62795 0.89525 0.71599 0.0
C1311 C 0.6298 0.89375 0.59297 0.0
C1312 C 0.64588 0.87611 0.59503 0.0
H1313 H 0.60755 0.91563 0.64811 0.0
H1314 H 0.62266 0.89916 0.54559 0.0
S1315 S 0.67289 0.85242 0.74819 0.0
N1316 N 0.65418 0.87099 0.7769 0.0
N1317 N 0.671 0.85358 0.66578 0.0
C1318 C 0.65463 0.86971 0.65816 0.0
C1319 C 0.64564 0.87926 0.71858 0.0
C1320 C 0.63023 0.61509 0.09123 0.0
C1321 C 0.64466 0.63408 0.09354 0.0
C1322 C 0.62103 0.60584 0.15031 0.0
C1323 C 0.6262 0.61495 0.21395 0.0
H1324 H 0.62462 0.6084 0.0435 0.0
H1325 H 0.6087 0.59228 0.14574 0.0
S1326 S 0.66526 0.66293 0.24778 0.0
N1327 N 0.66517 0.66049 0.16548 0.0
N1328 N 0.6484 0.64262 0.27572 0.0
C1329 C 0.64209 0.63265 0.21723 0.0
C1330 C 0.65115 0.64235 0.15721 0.0
C1331 C 0.65226 0.36936 0.40149 0.0
C1332 C 0.64629 0.37834 0.46484 0.0
C1333 C 0.64397 0.37885 0.34179 0.0
C1334 C 0.62939 0.39772 0.34319 0.0
H1335 H 0.6622 0.35389 0.39791 0.0
H1336 H 0.64739 0.37014 0.29504 0.0
S1337 S 0.61286 0.43087 0.49381 0.0
N1338 N 0.62802 0.40953 0.52385 0.0
N1339 N 0.61251 0.42747 0.41175 0.0
C1340 C 0.62536 0.40836 0.4054 0.0
C1341 C 0.63381 0.39869 0.46625 0.0
C1342 C 0.86381 0.38162 0.72326 0.0
C1343 C 0.88107 0.39806 0.72114 0.0
C1344 C 0.85453 0.37281 0.66392 0.0
C1345 C 0.86214 0.38009 0.60026 0.0
H1346 H 0.85876 0.37414 0.77057 0.0
H1347 H 0.8424 0.35903 0.66807 0.0
S1348 S 0.90374 0.42611 0.56822 0.0
N1349 N 0.9028 0.42394 0.65061 0.0
N1350 N 0.88556 0.4071 0.53946 0.0
C1351 C 0.87762 0.3982 0.59774 0.0
C1352 C 0.88705 0.40721 0.65814 0.0
C1353 C 0.89166 0.60786 0.9102 0.0
C1354 C 0.88244 0.61275 0.84638 0.0
C1355 C 0.88204 0.61664 0.9692 0.0
C1356 C 0.86277 0.63067 0.96684 0.0
H1357 H 0.90729 0.59822 0.91465 0.0
H1358 H 0.89079 0.61381 1.0162 0.0
S1359 S 0.8291 0.64462 0.81504 0.0
N1360 N 0.85079 0.62967 0.78618 0.0
N1361 N 0.83261 0.64607 0.89695 0.0
C1362 C 0.85208 0.63387 0.90429 0.0
C1363 C 0.86189 0.62491 0.84411 0.0
C1364 C 0.35358 0.3731 0.90825 0.0
C1365 C 0.36169 0.37967 0.972 0.0
C1366 C 0.36286 0.38203 0.84894 0.0
C1367 C 0.38067 0.39787 0.85119 0.0
H1368 H 0.34098 0.35975 0.90391 0.0
H1369 H 0.35736 0.37508 0.80143 0.0
S1370 S 0.40517 0.42383 1.00466 0.0
N1371 N 0.38642 0.40531 0.0332 0.0
N1372 N 0.40371 0.42234 0.92221 0.0
C1373 C 0.3873 0.40629 0.91447 0.0
C1374 C 0.37783 0.39718 0.9748 0.0
C1375 C 0.39386 0.61073 0.65507 0.0
C1376 C 0.38382 0.61592 0.71769 0.0
C1377 C 0.38421 0.61809 0.59457 0.0
C1378 C 0.3642 0.631 0.59435 0.0
H1379 H 0.41016 0.60215 0.65272 0.0
H1380 H 0.39355 0.61543 0.54848 0.0
S1381 S 0.32811 0.64419 0.74188 0.0
N1382 N 0.35045 0.63108 0.77393 0.0
N1383 N 0.33239 0.64511 0.66016 0.0
C1384 C 0.35266 0.6341 0.65561 0.0
C1385 C 0.36242 0.62648 0.71734 0.0
C1386 C 0.12695 0.61332 0.46552 0.0
C1387 C 0.14391 0.63006 0.46292 0.0
C1388 C 0.11754 0.60443 0.40639 0.0
C1389 C 0.12486 0.61177 0.3425 0.0
H1390 H 0.11954 0.60847 0.51311 0.0
H1391 H 0.10336 0.59279 0.41093 0.0
S1392 S 0.1713 0.65276 0.30906 0.0
N1393 N 0.16963 0.65161 0.39153 0.0
N1394 N 0.1519 0.63489 0.28088 0.0
C1395 C 0.14325 0.6269 0.33943 0.0
C1396 C 0.15275 0.63606 0.39956 0.0
C1397 C 0.12058 0.40229 0.1484 0.0
C1398 C 0.12828 0.39498 0.21192 0.0
C1399 C 0.12982 0.39352 0.08885 0.0
C1400 C 0.1471 0.37708 0.09063 0.0
H1401 H 0.10625 0.4138 0.14449 0.0
H1402 H 0.1221 0.39828 0.04165 0.0
S1403 S 0.17629 0.35553 0.24295 0.0
N1404 N 0.15644 0.37276 0.27216 0.0
N1405 N 0.17401 0.35645 0.16059 0.0
C1406 C 0.15653 0.3714 0.15346 0.0
C1407 C 0.14711 0.38033 0.21407 0.0
C1408 C 0.25252 0.16063 0.58761 0.0
C1409 C 0.2748 0.16071 0.56205 0.0
C1410 C 0.23359 0.16035 0.5448 0.0
C1411 C 0.23622 0.15978 0.47466 0.0
H1412 H 0.24976 0.1608 0.64122 0.0
H1413 H 0.21677 0.16001 0.56687 0.0
S1414 S 0.29093 0.15913 0.38233 0.0
N1415 N 0.2984 0.15968 0.46199 0.0
N1416 N 0.26285 0.15935 0.38175 0.0
C1417 C 0.2584 0.15979 0.44847 0.0
C1418 C 0.27768 0.16025 0.49204 0.0
C1419 C 0.0975 0.98229 0.80444 0.0
C1420 C 0.10036 0.98452 0.73471 0.0
C1421 C 0.09549 1.00147 0.84604 0.0
C1422 C 0.09625 0.0237 0.81978 0.0
H1423 H 0.09693 0.96558 0.82715 0.0
H1424 H 0.09323 0.99889 0.89931 0.0
S1425 S 0.10232 0.03855 0.63977 0.0
N1426 N 0.1033 0.01053 0.64107 0.0
N1427 N 0.09927 0.04657 0.71848 0.0
C1428 C 0.09918 0.02611 0.75 0.0
C1429 C 0.1013 0.00655 0.70778 0.0
C1430 C 0.25751 0.84583 0.09075 0.0
C1431 C 0.2351 0.84736 0.06671 0.0
C1432 C 0.27618 0.84589 0.04672 0.0
C1433 C 0.27314 0.84787 0.97697 0.0
H1434 H 0.26058 0.8446 0.14407 0.0
H1435 H 0.29314 0.84505 0.06758 0.0
S1436 S 0.21793 0.85292 0.88868 0.0
N1437 N 0.21095 0.85131 0.96865 0.0
N1438 N 0.24596 0.85131 0.88612 0.0
C1439 C 0.25081 0.84941 0.95237 0.0
C1440 C 0.23181 0.84915 0.9971 0.0
C1441 C 0.41577 0.98375 0.24723 0.0
C1442 C 0.41114 0.98593 0.31624 0.0
C1443 C 0.41626 1.0029 0.20491 0.0
C1444 C 0.41255 0.02492 0.23017 0.0
H1445 H 0.4183 0.9671 0.22534 0.0
H1446 H 0.41943 1.0005 0.15196 0.0
S1447 S 0.39917 0.03964 0.40624 0.0
N1448 N 0.40273 0.01183 0.40736 0.0
N1449 N 0.40339 0.04766 0.32795 0.0
C1450 C 0.40808 0.02731 0.29894 0.0
C1451 C 0.40743 0.00786 0.34184 0.0
C1452 C 0.7328 0.84259 0.55051 0.0
C1453 C 0.73478 0.84647 0.48108 0.0
C1454 C 0.7521 0.84221 0.59213 0.0
C1455 C 0.77408 0.84527 0.56577 0.0
H1456 H 0.7162 0.84059 0.5732 0.0
H1457 H 0.74986 0.83966 0.64542 0.0
S1458 S 0.78834 0.85624 0.38784 0.0
N1459 N 0.76045 0.85332 0.38819 0.0
N1460 N 0.79659 0.85279 0.46621 0.0
C1461 C 0.77628 0.84889 0.49648 0.0
C1462 C 0.75667 0.84946 0.45429 0.0
C1463 C 0.9276 0.98889 0.27224 0.0
C1464 C 0.90937 0.98572 0.22712 0.0
C1465 C 0.92838 0.00769 0.31584 0.0
C1466 C 0.91118 0.02426 0.31524 0.0
H1467 H 0.94158 0.97692 0.27341 0.0
H1468 H 0.94279 0.00962 0.34905 0.0
S1469 S 0.85887 0.02374 0.21263 0.0
N1470 N 0.87264 1.0005 0.19 0.0
N1471 N 0.8751 0.03618 0.26909 0.0
C1472 C 0.89285 0.02138 0.27142 0.0
C1473 C 0.89169 1.00207 0.22806 0.0
C1474 C 0.76407 0.13678 1.0027 0.0
C1475 C 0.77287 0.15711 0.9759 0.0
C1476 C 0.74619 0.13699 0.04934 0.0
C1477 C 0.73616 0.15752 0.07057 0.0
H1478 H 0.77132 0.12057 0.98831 0.0
H1479 H 0.73991 0.1209 0.06809 0.0
S1480 S 0.75273 0.21538 1.01522 0.0
N1481 N 0.7701 0.19831 0.97384 0.0
N1482 N 0.73641 0.19869 0.06128 0.0
C1483 C 0.7447 0.17795 0.04394 0.0
C1484 C 0.76308 0.17775 0.99689 0.0
C1485 C 0.59724 1.00272 0.71332 0.0
C1486 C 0.59821 0.02495 0.73911 0.0
C1487 C 0.59704 0.9837 0.75599 0.0
C1488 C 0.59822 0.98622 0.82607 0.0
H1489 H 0.59673 1.00008 0.65969 0.0
H1490 H 0.59665 0.9669 0.7339 0.0
S1491 S 0.60146 0.04074 0.91876 0.0
N1492 N 0.60064 0.04835 0.8392 0.0
N1493 N 0.60025 0.01267 0.91914 0.0
C1494 C 0.59915 0.00835 0.85242 0.0
C1495 C 0.59912 0.0277 0.80907 0.0
C1496 C 0.75668 0.66518 0.96408 0.0
C1497 C 0.73456 0.66126 0.98809 0.0
C1498 C 0.77552 0.66468 1.00736 0.0
C1499 C 0.77294 0.65982 0.07614 0.0
H1500 H 0.75938 0.66858 0.91138 0.0
H1501 H 0.79226 0.66746 0.98639 0.0
S1502 S 0.71872 0.64705 0.16278 0.0
N1503 N 0.71122 0.65155 0.08421 0.0
N1504 N 0.74651 0.65074 0.16555 0.0
C1505 C 0.75089 0.65575 0.10045 0.0
C1506 C 0.73173 0.65645 0.05652 0.0
C1507 C 0.59739 0.50235 0.34466 0.0
C1508 C 0.59722 0.52461 0.31888 0.0
C1509 C 0.59712 0.48336 0.302 0.0
C1510 C 0.59704 0.48591 0.23184 0.0
H1511 H 0.59778 0.49966 0.39828 0.0
H1512 H 0.59758 0.46656 0.32411 0.0
S1513 S 0.59704 0.54048 0.13898 0.0
N1514 N 0.59734 0.54807 0.21857 0.0
N1515 N 0.59667 0.5124 0.13868 0.0
C1516 C 0.59686 0.50805 0.20547 0.0
C1517 C 0.59695 0.52739 0.24885 0.0
C1518 C 0.75677 0.34981 0.59608 0.0
C1519 C 0.73458 0.35009 0.5701 0.0
C1520 C 0.77582 0.34963 0.55362 0.0
C1521 C 0.7734 0.3501 0.48343 0.0
H1522 H 0.75937 0.34976 0.64975 0.0
H1523 H 0.79258 0.34974 0.57598 0.0
S1524 S 0.71894 0.35156 0.39017 0.0
N1525 N 0.71125 0.35131 0.46972 0.0
N1526 N 0.74702 0.35083 0.39003 0.0
C1527 C 0.75129 0.35042 0.45683 0.0
C1528 C 0.73189 0.35041 0.50007 0.0
C1529 C 0.88906 0.4934 0.80373 0.0
C1530 C 0.90969 0.48442 0.82787 0.0
C1531 C 0.88868 0.51177 0.75888 0.0
C1532 C 0.90891 0.52215 0.73687 0.0
H1533 H 0.87303 0.48597 0.81904 0.0
H1534 H 0.87237 0.51816 0.74222 0.0
S1535 S 0.9674 0.50503 0.78453 0.0
N1536 N 0.95086 0.48713 0.82579 0.0
N1537 N 0.95017 0.5219 0.74201 0.0
C1538 C 0.92966 0.51336 0.76055 0.0
C1539 C 0.93005 0.49441 0.80565 0.0
C1540 C 0.24548 0.33161 1.00953 0.0
C1541 C 0.23563 0.35208 0.98732 0.0
C1542 C 0.26389 0.33163 0.05461 0.0
C1543 C 0.27268 0.3521 0.08037 0.0
H1544 H 0.23908 0.31552 0.99113 0.0
H1545 H 0.2712 0.31555 0.06995 0.0
S1546 S 0.25247 0.41026 0.03916 0.0
N1547 N 0.23572 0.3933 0.99566 0.0
N1548 N 0.2702 0.39337 0.0796 0.0
C1549 C 0.26279 0.37265 0.05895 0.0
C1550 C 0.2443 0.37263 1.01265 0.0
C1551 C 0.39372 0.52128 0.78962 0.0
C1552 C 0.41146 0.5244 0.83563 0.0
C1553 C 0.39351 0.50261 0.74578 0.0
C1554 C 0.41134 0.4865 0.74497 0.0
H1555 H 0.3798 0.53334 0.78799 0.0
H1556 H 0.37906 0.50078 0.71281 0.0
S1557 S 0.46304 0.48871 0.85194 0.0
N1558 N 0.44776 0.51077 0.87645 0.0
N1559 N 0.44817 0.47627 0.79221 0.0
C1560 C 0.42951 0.48986 0.79016 0.0
C1561 C 0.42938 0.50865 0.83582 0.0
C1562 C 0.25526 0.67712 0.47663 0.0
C1563 C 0.27169 0.65975 0.47571 0.0
C1564 C 0.23681 0.67642 0.52157 0.0
C1565 C 0.23393 0.65821 0.56691 0.0
H1566 H 0.2571 0.69168 0.44387 0.0
H1567 H 0.22494 0.6905 0.52157 0.0
S1568 S 0.27123 0.60719 0.57793 0.0
N1569 N 0.28335 0.62326 0.52034 0.0
N1570 N 0.24846 0.62131 0.60276 0.0
C1571 C 0.24997 0.64034 0.56447 0.0
C1572 C 0.26885 0.64127 0.51938 0.0
C1573 C 0.09691 0.49985 0.20875 0.0
C1574 C 0.09748 0.52227 0.23336 0.0
C1575 C 0.0985 0.48108 0.25198 0.0
C1576 C 0.10067 0.48397 0.3217 0.0
H1577 H 0.09511 0.49684 0.15554 0.0
H1578 H 0.09814 0.46417 0.2306 0.0
S1579 S 0.10158 0.53892 0.41245 0.0
N1580 N 0.09939 0.54614 0.33284 0.0
N1581 N 0.10265 0.51086 0.41355 0.0
C1582 C 0.10136 0.50623 0.34703 0.0
C1583 C 0.09968 0.52537 0.30309 0.0
C1584 C 0.11882 0.27245 0.29115 0.0
C1585 C 0.12743 0.26267 0.35027 0.0
C1586 C 0.10909 0.29427 0.29137 0.0
C1587 C 0.10774 0.30716 0.35056 0.0
H1588 H 0.11946 0.26312 0.24444 0.0
H1589 H 0.10256 0.30113 0.2449 0.0
S1590 S 0.12635 0.28902 0.51944 0.0
N1591 N 0.13286 0.26736 0.47042 0.0
N1592 N 0.11509 0.30848 0.46992 0.0
C1593 C 0.1164 0.29775 0.40981 0.0
C1594 C 0.1261 0.27548 0.40989 0.0
C1595 C 0.96506 0.85886 0.54212 0.0
C1596 C 0.95164 0.85758 0.60036 0.0
C1597 C 0.98684 0.86861 0.54336 0.0
C1598 C 0.99613 0.87728 0.60308 0.0
H1599 H 0.95866 0.85218 0.49529 0.0
H1600 H 0.99658 0.86914 0.49732 0.0
S1601 S 0.96818 0.8766 0.77019 0.0
N1602 N 0.9492 0.86523 0.7194 0.0
N1603 N 0.99028 0.88299 0.72275 0.0
C1604 C 0.98275 0.87612 0.66171 0.0
C1605 C 0.96048 0.86642 0.6601 0.0
C1606 C 0.41617 0.72278 0.85901 0.0
C1607 C 0.40373 0.70294 0.84429 0.0
C1608 C 0.40636 0.74439 0.85386 0.0
C1609 C 0.38359 0.74717 0.83417 0.0
H1610 H 0.43357 0.72163 0.87627 0.0
H1611 H 0.41653 0.75905 0.86733 0.0
S1612 S 0.34387 0.70126 0.78549 0.0
N1613 N 0.3676 0.68776 0.80517 0.0
N1614 N 0.349 0.72856 0.79742 0.0
C1615 C 0.37092 0.72765 0.81857 0.0
C1616 C 0.381 0.70551 0.82316 0.0
C1617 C 0.51821 0.15718 0.10133 0.0
C1618 C 0.5151 0.13376 0.08989 0.0
C1619 C 0.53998 0.16671 0.10507 0.0
C1620 C 0.55959 0.15324 0.09797 0.0
H1621 H 0.50368 0.16823 0.10894 0.0
H1622 H 0.54151 0.18477 0.11466 0.0
S1623 S 0.5609 0.09136 0.06207 0.0
N1624 N 0.53354 0.09748 0.06819 0.0
N1625 N 0.57456 0.11548 0.07521 0.0
C1626 C 0.55682 0.12985 0.0857 0.0
C1627 C 0.53457 0.1201 0.0817 0.0
C1628 C 0.12989 0.72992 0.15541 0.0
C1629 C 0.13239 0.74209 0.21587 0.0
C1630 C 0.12011 0.70819 0.15422 0.0
C1631 C 0.11224 0.69794 0.21325 0.0
H1632 H 0.13463 0.73763 0.10816 0.0
H1633 H 0.11769 0.69977 0.10654 0.0
S1634 S 0.11779 0.7208 0.3854 0.0
N1635 N 0.12842 0.74098 0.33704 0.0
N1636 N 0.10974 0.70022 0.33441 0.0
C1637 C 0.11561 0.70931 0.27431 0.0
C1638 C 0.12572 0.73138 0.27569 0.0
C1639 C 0.53136 0.88701 0.46098 0.0
C1640 C 0.51168 0.87376 0.45192 0.0
C1641 C 0.55312 0.87707 0.45935 0.0
C1642 C 0.5559 0.85358 0.44844 0.0
H1643 H 0.5299 0.90512 0.46991 0.0
H1644 H 0.56783 0.88774 0.46783 0.0
S1645 S 0.51005 0.81205 0.41295 0.0
N1646 N 0.49658 0.83632 0.42561 0.0
N1647 N 0.53733 0.81777 0.42274 0.0
C1648 C 0.53641 0.84031 0.43745 0.0
C1649 C 0.51434 0.85037 0.4391 0.0
C1650 C 0.37912 0.27936 0.65805 0.0
C1651 C 0.37788 0.26606 0.71676 0.0
C1652 C 0.38879 0.30114 0.65863 0.0
C1653 C 0.39786 0.31031 0.71766 0.0
H1654 H 0.37341 0.27255 0.61056 0.0
H1655 H 0.39006 0.3105 0.61208 0.0
S1656 S 0.39598 0.28418 0.88648 0.0
N1657 N 0.38435 0.26492 0.837 0.0
N1658 N 0.40297 0.30571 0.8375 0.0
C1659 C 0.39587 0.29774 0.77722 0.0
C1660 C 0.3858 0.27565 0.77689 0.0
C1661 C 0.95181 0.13677 0.95561 0.0
C1662 C 0.94899 0.16038 0.94693 0.0
C1663 C 0.97358 0.12697 0.95946 0.0
C1664 C 0.99331 0.14043 0.95516 0.0
H1665 H 0.93708 0.12583 0.95982 0.0
H1666 H 0.975 0.10871 0.96553 0.0
S1667 S 0.9952 0.20275 0.92675 0.0
N1668 N 0.96782 0.19672 0.9305 0.0
N1669 N 0.0086 0.17837 0.93815 0.0
C1670 C 0.9907 0.16401 0.9462 0.0
C1671 C 0.96859 0.17395 0.94202 0.0
C1672 C 0.91738 0.71936 0.69837 0.0
C1673 C 0.90377 0.69984 0.70515 0.0
C1674 C 0.90789 0.7412 0.70003 0.0
C1675 C 0.88436 0.74449 0.70895 0.0
H1676 H 0.93553 0.7177 0.69052 0.0
H1677 H 0.91906 0.75562 0.69268 0.0
S1678 S 0.84145 0.69912 0.73422 0.0
N1679 N 0.86566 0.68523 0.72454 0.0
N1680 N 0.84778 0.72638 0.72771 0.0
C1681 C 0.87055 0.72514 0.71677 0.0
C1682 C 0.88025 0.70282 0.71488 0.0
C1683 C 0.01865 0.14704 0.48065 0.0
C1684 C 0.01575 0.1251 0.45448 0.0
C1685 C 0.04005 0.15744 0.48141 0.0
C1686 C 0.05955 0.14627 0.4565 0.0
H1687 H 1.00406 0.15668 0.49796 0.0
H1688 H 0.04109 0.17469 0.49989 0.0
S1689 S 0.06088 0.08734 0.38823 0.0
N1690 N 0.0339 0.09183 0.40673 0.0
N1691 N 0.07431 0.11097 0.40875 0.0
C1692 C 0.05687 0.12387 0.43206 0.0
C1693 C 0.03495 0.11338 0.43108 0.0
C1694 C 0.62263 0.27436 0.26832 0.0
C1695 C 0.63075 0.26465 0.20842 0.0
C1696 C 0.6125 0.29599 0.26897 0.0
C1697 C 0.61025 0.30883 0.2099 0.0
H1698 H 0.62386 0.26505 0.31498 0.0
H1699 H 0.60629 0.30273 0.31602 0.0
S1700 S 0.62764 0.29103 0.03945 0.0
N1701 N 0.63499 0.26948 0.08785 0.0
N1702 N 0.61649 0.31027 0.08995 0.0
C1703 C 0.61856 0.29957 0.14993 0.0
C1704 C 0.62867 0.27747 0.14898 0.0
C1705 C 0.47038 0.84424 0.94551 0.0
C1706 C 0.45066 0.85775 0.94917 0.0
C1707 C 0.49209 0.85388 0.94942 0.0
C1708 C 0.49506 0.87747 0.95744 0.0
H1709 H 0.46901 0.82603 0.93859 0.0
H1710 H 0.5067 0.84275 0.94464 0.0
S1711 S 0.44906 0.92029 0.9736 0.0
N1712 N 0.43551 0.89592 0.96395 0.0
N1713 N 0.47644 0.91408 0.97106 0.0
C1714 C 0.47552 0.89121 0.96166 0.0
C1715 C 0.45332 0.88136 0.9576 0.0
C1716 C 0.89867 0.2963 0.78187 0.0
C1717 C 0.89658 0.30954 0.84033 0.0
C1718 C 0.88785 0.2751 0.77592 0.0
C1719 C 0.87468 0.26603 0.82856 0.0
H1720 H 0.90897 0.30229 0.74052 0.0
H1721 H 0.89024 0.26554 0.73011 0.0
S1722 S 0.86335 0.29438 0.99171 0.0
N1723 N 0.87948 0.31258 0.95051 0.0
N1724 N 0.86005 0.27249 0.94119 0.0
C1725 C 0.87195 0.27949 0.8866 0.0
C1726 C 0.88266 0.30126 0.89202 0.0
C1727 C 0.49321 0.15818 0.59456 0.0
C1728 C 0.49632 0.13453 0.60104 0.0
C1729 C 0.47148 0.16796 0.59532 0.0
C1730 C 0.45179 0.15463 0.60323 0.0
H1731 H 0.50772 0.16942 0.59044 0.0
H1732 H 0.47016 0.18625 0.59086 0.0
S1733 S 0.4505 0.09174 0.6224 0.0
N1734 N 0.47772 0.09789 0.61443 0.0
N1735 N 0.43696 0.1163 0.61806 0.0
C1736 C 0.45461 0.13093 0.61038 0.0
C1737 C 0.4768 0.12091 0.60868 0.0
C1738 C 0.63559 0.72622 0.34355 0.0
C1739 C 0.62232 0.74609 0.34874 0.0
C1740 C 0.62559 0.70456 0.34735 0.0
C1741 C 0.60198 0.702 0.35611 0.0
H1742 H 0.65381 0.72744 0.33627 0.0
H1743 H 0.63632 0.68972 0.34253 0.0
S1744 S 0.56022 0.7485 0.38202 0.0
N1745 N 0.58465 0.76168 0.36991 0.0
N1746 N 0.56596 0.72108 0.37603 0.0
C1747 C 0.58865 0.7217 0.36322 0.0
C1748 C 0.59879 0.74369 0.35975 0.0
C1749 C 0.0387 0.8424 0.11478 0.0
C1750 C 0.05858 0.85552 0.1091 0.0
C1751 C 0.01711 0.85237 0.11128 0.0
C1752 C 0.01441 0.87594 0.10157 0.0
H1753 H 0.03985 0.82422 0.12266 0.0
H1754 H 1.00238 0.8415 0.1172 0.0
S1755 S 0.06093 0.91786 0.08076 0.0
N1756 N 0.07419 0.89334 0.09138 0.0
N1757 N 0.03348 0.91213 0.08496 0.0
C1758 C 0.03412 0.88934 0.09587 0.0
C1759 C 0.05621 0.87914 0.09954 0.0
C1760 C 0.62749 0.80472 0.84394 0.0
C1761 C 0.60413 0.80765 0.85663 0.0
C1762 C 0.6372 0.78287 0.84057 0.0
C1763 C 0.62381 0.76325 0.84969 0.0
H1764 H 0.63821 0.8194 0.83537 0.0
H1765 H 0.65521 0.78128 0.83021 0.0
S1766 S 0.5624 0.76205 0.89283 0.0
N1767 N 0.56833 0.78932 0.88379 0.0
N1768 N 0.58642 0.7484 0.87804 0.0
C1769 C 0.60057 0.76609 0.86435 0.0
C1770 C 0.59076 0.78823 0.86763 0.0
C1771 C 0.46237 0.35953 0.04688 0.0
C1772 C 0.44938 0.35807 0.10595 0.0
C1773 C 0.48428 0.36901 0.04716 0.0
C1774 C 0.49406 0.3773 0.10663 0.0
H1775 H 0.45553 0.35326 1.00011 0.0
H1776 H 0.49369 0.36973 1.00055 0.0
S1777 S 0.46744 0.37601 0.27552 0.0
N1778 N 0.44798 0.36505 0.22554 0.0
N1779 N 0.48922 0.38244 0.22687 0.0
C1780 C 0.48115 0.37592 0.16608 0.0
C1781 C 0.4588 0.36643 0.16553 0.0
C1782 C 0.88995 0.23793 0.29022 0.0
C1783 C 0.88012 0.24637 0.34958 0.0
C1784 C 0.89972 0.21617 0.28781 0.0
C1785 C 0.89978 0.20193 0.34434 0.0
H1786 H 0.89049 0.24839 0.2456 0.0
H1787 H 0.90757 0.2105 0.24167 0.0
S1788 S 0.87692 0.21574 0.51227 0.0
N1789 N 0.87165 0.23863 0.46695 0.0
N1790 N 0.88938 0.19754 0.46106 0.0
C1791 C 0.88952 0.20978 0.40335 0.0
C1792 C 0.87984 0.23204 0.4063 0.0
C1793 C 0.02681 0.62859 0.65157 0.0
C1794 C 0.01423 0.62671 0.5917 0.0
C1795 C 0.04844 0.63862 0.65249 0.0
C1796 C 0.05817 0.64744 0.59384 0.0
H1797 H 0.01955 0.62308 0.69872 0.0
H1798 H 0.05724 0.64033 0.69982 0.0
S1799 S 0.03408 0.64398 0.42272 0.0
N1800 N 0.01442 0.63239 0.47104 0.0
N1801 N 0.0549 0.65165 0.47331 0.0
C1802 C 0.04634 0.64485 0.53324 0.0
C1803 C 0.0244 0.63442 0.53206 0.0
C1804 C 0.59398 0.22187 0.70421 0.0
C1805 C 0.60762 0.20226 0.70799 0.0
C1806 C 0.6035 0.24364 0.70686 0.0
C1807 C 0.6271 0.24678 0.71373 0.0
H1808 H 0.57575 0.22036 0.69813 0.0
H1809 H 0.59226 0.25816 0.70195 0.0
S1810 S 0.67028 0.20108 0.72948 0.0
N1811 N 0.64594 0.18736 0.72143 0.0
N1812 N 0.66389 0.22842 0.72635 0.0
C1813 C 0.64099 0.22734 0.71805 0.0
C1814 C 0.63126 0.20507 0.7152 0.0
C1815 C 0.01759 0.35106 0.95277 0.0
C1816 C 0.0145 0.3746 0.96217 0.0
C1817 C 0.03937 0.34142 0.94978 0.0
C1818 C 0.05902 0.35488 0.95579 0.0
H1819 H 1.00303 0.34001 0.94614 0.0
H1820 H 0.04085 0.32328 0.9416 0.0
S1821 S 0.06033 0.4171 0.98646 0.0
N1822 N 0.03298 0.411 0.98073 0.0
N1823 N 0.07398 0.39281 0.97555 0.0
C1824 C 0.05624 0.3784 0.96616 0.0
C1825 C 0.03399 0.38825 0.96921 0.0
C1826 C 0.88068 0.8046 0.20179 0.0
C1827 C 0.90437 0.80697 0.19485 0.0
C1828 C 0.87052 0.78304 0.20701 0.0
C1829 C 0.88372 0.76305 0.20487 0.0
H1830 H 0.86999 0.81953 0.20422 0.0
H1831 H 0.85225 0.782 0.21314 0.0
S1832 S 0.94605 0.76002 0.17581 0.0
N1833 N 0.94041 0.78751 0.17905 0.0
N1834 N 0.92146 0.74709 0.18742 0.0
C1835 C 0.90734 0.76523 0.19506 0.0
C1836 C 0.91762 0.78714 0.19032 0.0
C1837 C 0.47004 0.66608 0.45179 0.0
C1838 C 0.45027 0.6529 0.45937 0.0
C1839 C 0.49168 0.65622 0.45492 0.0
C1840 C 0.49449 0.63275 0.46612 0.0
H1841 H 0.46874 0.68417 0.44235 0.0
H1842 H 0.50634 0.66705 0.44702 0.0
S1843 S 0.44828 0.59093 0.49394 0.0
N1844 N 0.4349 0.61528 0.48161 0.0
N1845 N 0.47569 0.59669 0.48747 0.0
C1846 C 0.4749 0.61936 0.47448 0.0
C1847 C 0.45277 0.62943 0.47113 0.0
C1848 C 0.3906 0.21098 0.14761 0.0
C1849 C 0.39971 0.2009 0.20532 0.0
C1850 C 0.38041 0.23255 0.15029 0.0
C1851 C 0.37868 0.24469 0.21103 0.0
H1852 H 0.39224 0.20252 0.09969 0.0
H1853 H 0.37466 0.24012 0.10385 0.0
S1854 S 0.39674 0.22377 0.37805 0.0
N1855 N 0.40437 0.20334 0.32585 0.0
N1856 N 0.38481 0.24368 0.33143 0.0
C1857 C 0.38667 0.23413 0.26972 0.0
C1858 C 0.39726 0.21228 0.26675 0.0
C1859 C 0.52629 0.63208 0.89931 0.0
C1860 C 0.51575 0.62641 0.96066 0.0
C1861 C 0.54778 0.64236 0.89733 0.0
C1862 C 0.55934 0.64773 0.9565 0.0
H1863 H 0.51752 0.62944 0.85232 0.0
H1864 H 0.55502 0.64704 0.84938 0.0
S1865 S 0.54114 0.63402 0.12936 0.0
N1866 N 0.52005 0.62485 0.08186 0.0
N1867 N 0.56009 0.64502 0.07757 0.0
C1868 C 0.5496 0.64148 1.01794 0.0
C1869 C 0.52788 0.63064 1.02015 0.0
C1870 C 0.11904 0.7985 0.65753 0.0
C1871 C 0.11048 0.8079 0.71708 0.0
C1872 C 0.1285 0.7766 0.65656 0.0
C1873 C 0.13001 0.76338 0.71532 0.0
H1874 H 0.11756 0.80781 0.61095 0.0
H1875 H 0.13385 0.76964 0.60884 0.0
S1876 S 0.11339 0.78197 0.88607 0.0
N1877 N 0.10629 0.80354 0.83735 0.0
N1878 N 0.12439 0.76248 0.83596 0.0
C1879 C 0.12261 0.77316 0.77585 0.0
C1880 C 0.1128 0.79539 0.77664 0.0
C1881 C 0.96402 0.36164 0.52363 0.0
C1882 C 0.95088 0.35979 0.46506 0.0
C1883 C 0.98595 0.37105 0.52206 0.0
C1884 C 0.99558 0.37886 0.46176 0.0
H1885 H 0.95727 0.35571 0.57098 0.0
H1886 H 0.99551 0.37204 0.56829 0.0
S1887 S 0.96858 0.37629 0.29376 0.0
N1888 N 0.94921 0.3658 0.34503 0.0
N1889 N 0.99048 0.38307 0.34136 0.0
C1890 C 0.98252 0.37707 0.4028 0.0
C1891 C 0.96017 0.36766 0.40463 0.0
C1892 C 0.37933 0.80496 0.34829 0.0
C1893 C 0.40306 0.80749 0.35428 0.0
C1894 C 0.36921 0.7833 0.34843 0.0
C1895 C 0.38252 0.7635 0.3542 0.0
H1896 H 0.3686 0.81979 0.34224 0.0
H1897 H 0.35092 0.782 0.3432 0.0
S1898 S 0.44494 0.76113 0.38024 0.0
N1899 N 0.43923 0.7885 0.37239 0.0
N1900 N 0.42033 0.74793 0.37222 0.0
C1901 C 0.40615 0.7659 0.36223 0.0
C1902 C 0.41639 0.78785 0.36231 0.0
C1903 C 0.97518 0.62441 0.09368 0.0
C1904 C 0.99478 0.63798 0.09911 0.0
C1905 C 0.95339 0.63413 0.09611 0.0
C1906 C 0.95049 0.65772 0.10434 0.0
H1907 H 0.97673 0.60616 0.08759 0.0
H1908 H 0.93871 0.62317 0.09085 0.0
S1909 S 0.99627 0.70027 0.12809 0.0
N1910 N 0.00986 0.67594 0.11753 0.0
N1911 N 0.96895 0.69414 0.12235 0.0
C1912 C 0.96994 0.67139 0.11087 0.0
C1913 C 0.99207 0.66153 0.10821 0.0
C1914 C 0.13135 0.231 0.90212 0.0
C1915 C 0.13347 0.24353 0.84215 0.0
C1916 C 0.12106 0.20949 0.90304 0.0
C1917 C 0.11228 0.19987 0.84427 0.0
H1918 H 0.13669 0.2383 0.94933 0.0
H1919 H 0.11892 0.20081 0.95045 0.0
S1920 S 0.1166 0.22374 0.67295 0.0
N1921 N 0.1283 0.24328 0.72132 0.0
N1922 N 0.10854 0.20304 0.7236 0.0
C1923 C 0.11532 0.21155 0.78356 0.0
C1924 C 0.126 0.23334 0.78238 0.0
C1925 C 0.51593 0.35344 0.61276 0.0
C1926 C 0.51264 0.37694 0.60333 0.0
C1927 C 0.53775 0.34395 0.61454 0.0
C1928 C 0.55726 0.35754 0.60739 0.0
H1929 H 0.5015 0.34227 0.62019 0.0
H1930 H 0.5394 0.32581 0.62254 0.0
S1931 S 0.55803 0.41982 0.57784 0.0
N1932 N 0.53076 0.41351 0.58436 0.0
N1933 N 0.57191 0.39562 0.5878 0.0
C1934 C 0.55431 0.38105 0.59757 0.0
C1935 C 0.53199 0.39075 0.59555 0.0
loop_
_geom_bond_atom_site_label_1
_geom_bond_atom_site_label_2
_geom_bond_distance
_geom_bond_site_symmetry_2
_ccdc_geom_bond_type
C0 C1 1.351 . S
C0 N3 1.368 . S
C0 H5 0.931 . S
C1 C0 1.351 . S
C1 N2 1.373 . S
C1 H29 0.930 . S
N2 C1 1.373 . S
N2 C4 1.340 . S
N3 C0 1.368 . S
N3 C4 1.321 . S
N3 Co6 2.135 . S
C4 N2 1.340 . S
C4 N3 1.321 . S
C4 H28 0.930 . S
H5 C0 0.931 . S
Co6 N3 2.135 . S
Co6 N9 2.121 . S
Co6 O14 2.055 . S
Co6 O17 2.039 . S
Co6 N20 2.140 . S
C7 O8 1.227 . S
C7 O17 1.265 . S
O8 C7 1.227 . S
N9 Co6 2.121 . S
N9 C11 1.375 . S
N9 C12 1.313 . S
C10 C11 1.338 . S
C10 N13 1.377 . S
C10 H30 0.930 . S
C11 N9 1.375 . S
C11 C10 1.338 . S
C11 H15 0.931 . S
C12 N9 1.313 . S
C12 N13 1.344 . S
C12 H16 0.930 . S
N13 C10 1.377 . S
N13 C12 1.344 . S
O14 Co6 2.055 . S
O14 C18 1.253 . S
H15 C11 0.931 . S
H16 C12 0.930 . S
O17 Co6 2.039 . S
O17 C7 1.265 . S
C18 O14 1.253 . S
C18 O19 1.227 . S
O19 C18 1.227 . S
N20 Co6 2.140 . S
N20 C23 1.346 . S
N20 C24 1.345 . S
C21 C22 1.387 . S
C21 C25 1.391 . S
C22 C21 1.387 . S
C22 C23 1.369 . S
C22 H31 0.929 . S
C23 N20 1.346 . S
C23 C22 1.369 . S
C23 H26 0.928 . S
C24 N20 1.345 . S
C24 C25 1.371 . S
C24 H27 0.931 . S
C25 C21 1.391 . S
C25 C24 1.371 . S
C25 H32 0.930 . S
H26 C23 0.928 . S
H27 C24 0.931 . S
H28 C4 0.930 . S
H29 C1 0.930 . S
H30 C10 0.930 . S
H31 C22 0.929 . S
H32 C25 0.930 . S
C33 C34 1.351 . S
C33 N36 1.368 . S
C33 H38 0.931 . S
C34 C33 1.351 . S
C34 N35 1.373 . S
C34 H62 0.930 . S
N35 C34 1.373 . S
N35 C37 1.340 . S
N36 C33 1.368 . S
N36 C37 1.321 . S
N36 Co39 2.135 . S
C37 N35 1.340 . S
C37 N36 1.321 . S
C37 H61 0.930 . S
H38 C33 0.931 . S
Co39 N36 2.135 . S
Co39 N42 2.121 . S
Co39 O47 2.055 . S
Co39 O50 2.039 . S
Co39 N53 2.140 . S
C40 O41 1.227 . S
C40 O50 1.265 . S
O41 C40 1.227 . S
N42 Co39 2.121 . S
N42 C44 1.375 . S
N42 C45 1.313 . S
C43 C44 1.338 . S
C43 N46 1.377 . S
C43 H63 0.930 . S
C44 N42 1.375 . S
C44 C43 1.338 . S
C44 H48 0.931 . S
C45 N42 1.313 . S
C45 N46 1.344 . S
C45 H49 0.930 . S
N46 C43 1.377 . S
N46 C45 1.344 . S
O47 Co39 2.055 . S
O47 C51 1.253 . S
H48 C44 0.931 . S
H49 C45 0.930 . S
O50 Co39 2.039 . S
O50 C40 1.265 . S
C51 O47 1.253 . S
C51 O52 1.227 . S
O52 C51 1.227 . S
N53 Co39 2.140 . S
N53 C56 1.346 . S
N53 C57 1.345 . S
C54 C55 1.387 . S
C54 C58 1.391 . S
C55 C54 1.387 . S
C55 C56 1.369 . S
C55 H64 0.929 . S
C56 N53 1.346 . S
C56 C55 1.369 . S
C56 H59 0.928 . S
C57 N53 1.345 . S
C57 C58 1.371 . S
C57 H60 0.931 . S
C58 C54 1.391 . S
C58 C57 1.371 . S
C58 H65 0.930 . S
H59 C56 0.928 . S
H60 C57 0.931 . S
H61 C37 0.930 . S
H62 C34 0.930 . S
H63 C43 0.930 . S
H64 C55 0.929 . S
H65 C58 0.930 . S
C66 C67 1.351 . S
C66 N69 1.368 . S
C66 H71 0.931 . S
C67 C66 1.351 . S
C67 N68 1.373 . S
C67 H95 0.930 . S
N68 C67 1.373 . S
N68 C70 1.340 . S
N69 C66 1.368 . S
N69 C70 1.321 . S
N69 Co72 2.135 . S
C70 N68 1.340 . S
C70 N69 1.321 . S
C70 H94 0.930 . S
H71 C66 0.931 . S
Co72 N69 2.135 . S
Co72 N75 2.121 . S
Co72 O80 2.055 . S
Co72 O83 2.039 . S
Co72 N86 2.140 . S
C73 O74 1.227 . S
C73 O83 1.265 . S
O74 C73 1.227 . S
N75 Co72 2.121 . S
N75 C77 1.375 . S
N75 C78 1.313 . S
C76 C77 1.338 . S
C76 N79 1.377 . S
C76 H96 0.930 . S
C77 N75 1.375 . S
C77 C76 1.338 . S
C77 H81 0.931 . S
C78 N75 1.313 . S
C78 N79 1.344 . S
C78 H82 0.930 . S
N79 C76 1.377 . S
N79 C78 1.344 . S
O80 Co72 2.055 . S
O80 C84 1.253 1_556 S
H81 C77 0.931 . S
H82 C78 0.930 . S
O83 Co72 2.039 . S
O83 C73 1.265 . S
C84 O80 1.253 1_554 S
C84 O85 1.227 . S
O85 C84 1.227 . S
N86 Co72 2.140 . S
N86 C89 1.346 . S
N86 C90 1.345 . S
C87 C88 1.387 . S
C87 C91 1.391 . S
C88 C87 1.387 . S
C88 C89 1.369 . S
C88 H97 0.929 . S
C89 N86 1.346 . S
C89 C88 1.369 . S
C89 H92 0.928 . S
C90 N86 1.345 . S
C90 C91 1.371 . S
C90 H93 0.931 . S
C91 C87 1.391 . S
C91 C90 1.371 . S
C91 H98 0.930 . S
H92 C89 0.928 . S
H93 C90 0.931 . S
H94 C70 0.930 . S
H95 C67 0.930 . S
H96 C76 0.930 . S
H97 C88 0.929 . S
H98 C91 0.930 . S
C99 C100 1.351 . S
C99 N102 1.368 . S
C99 H104 0.931 . S
C100 C99 1.351 . S
C100 N101 1.373 . S
C100 H128 0.930 . S
N101 C100 1.373 . S
N101 C103 1.340 . S
N102 C99 1.368 . S
N102 C103 1.321 . S
N102 Co105 2.135 . S
C103 N101 1.340 . S
C103 N102 1.321 . S
C103 H127 0.930 . S
H104 C99 0.931 . S
Co105 N102 2.135 . S
Co105 N108 2.121 . S
Co105 O113 2.055 . S
Co105 O116 2.039 . S
Co105 N119 2.140 . S
C106 O107 1.227 . S
C106 O116 1.265 . S
O107 C106 1.227 . S
N108 Co105 2.121 . S
N108 C110 1.375 . S
N108 C111 1.313 . S
C109 C110 1.338 . S
C109 N112 1.377 . S
C109 H129 0.930 . S
C110 N108 1.375 . S
C110 C109 1.338 . S
C110 H114 0.931 . S
C111 N108 1.313 . S
C111 N112 1.344 . S
C111 H115 0.930 . S
N112 C109 1.377 . S
N112 C111 1.344 . S
O113 Co105 2.055 . S
O113 C117 1.253 . S
H114 C110 0.931 . S
H115 C111 0.930 . S
O116 Co105 2.039 . S
O116 C106 1.265 . S
C117 O113 1.253 . S
C117 O118 1.227 . S
O118 C117 1.227 . S
N119 Co105 2.140 . S
N119 C122 1.346 . S
N119 C123 1.345 . S
C120 C121 1.387 . S
C120 C124 1.391 . S
C121 C120 1.387 . S
C121 C122 1.369 . S
C121 H130 0.929 . S
C122 N119 1.346 . S
C122 C121 1.369 . S
C122 H125 0.928 . S
C123 N119 1.345 . S
C123 C124 1.371 . S
C123 H126 0.931 . S
C124 C120 1.391 . S
C124 C123 1.371 . S
C124 H131 0.930 . S
H125 C122 0.928 . S
H126 C123 0.931 . S
H127 C103 0.930 . S
H128 C100 0.930 . S
H129 C109 0.930 . S
H130 C121 0.929 . S
H131 C124 0.930 . S
C132 C133 1.351 . S
C132 N135 1.368 . S
C132 H137 0.931 . S
C133 C132 1.351 . S
C133 N134 1.373 . S
C133 H161 0.930 . S
N134 C133 1.373 . S
N134 C136 1.340 . S
N135 C132 1.368 . S
N135 C136 1.321 . S
N135 Co138 2.135 . S
C136 N134 1.340 . S
C136 N135 1.321 . S
C136 H160 0.930 . S
H137 C132 0.931 . S
Co138 N135 2.135 . S
Co138 N141 2.121 . S
Co138 O146 2.055 . S
Co138 O149 2.039 . S
Co138 N152 2.140 . S
C139 O140 1.227 . S
C139 O149 1.265 . S
O140 C139 1.227 . S
N141 Co138 2.121 . S
N141 C143 1.375 . S
N141 C144 1.313 . S
C142 C143 1.338 . S
C142 N145 1.377 . S
C142 H162 0.930 . S
C143 N141 1.375 . S
C143 C142 1.338 . S
C143 H147 0.931 . S
C144 N141 1.313 . S
C144 N145 1.344 . S
C144 H148 0.930 . S
N145 C142 1.377 . S
N145 C144 1.344 . S
O146 Co138 2.055 . S
O146 C150 1.253 1_554 S
H147 C143 0.931 . S
H148 C144 0.930 . S
O149 Co138 2.039 . S
O149 C139 1.265 . S
C150 O146 1.253 1_556 S
C150 O151 1.227 . S
O151 C150 1.227 . S
N152 Co138 2.140 . S
N152 C155 1.346 . S
N152 C156 1.345 . S
C153 C154 1.387 . S
C153 C157 1.391 . S
C154 C153 1.387 . S
C154 C155 1.369 . S
C154 H163 0.929 . S
C155 N152 1.346 . S
C155 C154 1.369 . S
C155 H158 0.928 . S
C156 N152 1.345 . S
C156 C157 1.371 . S
C156 H159 0.931 . S
C157 C153 1.391 . S
C157 C156 1.371 . S
C157 H164 0.930 . S
H158 C155 0.928 . S
H159 C156 0.931 . S
H160 C136 0.930 . S
H161 C133 0.930 . S
H162 C142 0.930 . S
H163 C154 0.929 . S
H164 C157 0.930 . S
C165 C166 1.351 . S
C165 N168 1.368 . S
C165 H170 0.931 . S
C166 C165 1.351 . S
C166 N167 1.373 . S
C166 H194 0.930 . S
N167 C166 1.373 . S
N167 C169 1.340 . S
N168 C165 1.368 . S
N168 C169 1.321 . S
N168 Co171 2.135 . S
C169 N167 1.340 . S
C169 N168 1.321 . S
C169 H193 0.930 . S
H170 C165 0.931 . S
Co171 N168 2.135 . S
Co171 N174 2.121 . S
Co171 O179 2.055 . S
Co171 O182 2.039 . S
Co171 N185 2.140 . S
C172 O173 1.227 . S
C172 O182 1.265 . S
O173 C172 1.227 . S
N174 Co171 2.121 . S
N174 C176 1.375 . S
N174 C177 1.313 . S
C175 C176 1.338 . S
C175 N178 1.377 . S
C175 H195 0.930 . S
C176 N174 1.375 . S
C176 C175 1.338 . S
C176 H180 0.931 . S
C177 N174 1.313 . S
C177 N178 1.344 . S
C177 H181 0.930 . S
N178 C175 1.377 . S
N178 C177 1.344 . S
O179 Co171 2.055 . S
O179 C183 1.253 . S
H180 C176 0.931 . S
H181 C177 0.930 . S
O182 Co171 2.039 . S
O182 C172 1.265 . S
C183 O179 1.253 . S
C183 O184 1.227 . S
O184 C183 1.227 . S
N185 Co171 2.140 . S
N185 C188 1.346 . S
N185 C189 1.345 . S
C186 C187 1.387 . S
C186 C190 1.391 . S
C187 C186 1.387 . S
C187 C188 1.369 . S
C187 H196 0.929 . S
C188 N185 1.346 . S
C188 C187 1.369 . S
C188 H191 0.928 . S
C189 N185 1.345 . S
C189 C190 1.371 . S
C189 H192 0.931 . S
C190 C186 1.391 . S
C190 C189 1.371 . S
C190 H197 0.930 . S
H191 C188 0.928 . S
H192 C189 0.931 . S
H193 C169 0.930 . S
H194 C166 0.930 . S
H195 C175 0.930 . S
H196 C187 0.929 . S
H197 C190 0.930 . S
C198 C199 1.351 . S
C198 N201 1.368 . S
C198 H203 0.931 . S
C199 C198 1.351 . S
C199 N200 1.373 . S
C199 H227 0.930 . S
N200 C199 1.373 . S
N200 C202 1.340 . S
N201 C198 1.368 . S
N201 C202 1.321 . S
N201 Co204 2.135 . S
C202 N200 1.340 . S
C202 N201 1.321 . S
C202 H226 0.930 . S
H203 C198 0.931 . S
Co204 N201 2.135 . S
Co204 N207 2.121 . S
Co204 O212 2.055 . S
Co204 O215 2.039 . S
Co204 N218 2.140 . S
C205 O206 1.227 . S
C205 O215 1.265 . S
O206 C205 1.227 . S
N207 Co204 2.121 . S
N207 C209 1.375 . S
N207 C210 1.313 . S
C208 C209 1.338 . S
C208 N211 1.377 . S
C208 H228 0.930 . S
C209 N207 1.375 . S
C209 C208 1.338 . S
C209 H213 0.931 . S
C210 N207 1.313 . S
C210 N211 1.344 . S
C210 H214 0.930 . S
N211 C208 1.377 . S
N211 C210 1.344 . S
O212 Co204 2.055 . S
O212 C216 1.253 . S
H213 C209 0.931 . S
H214 C210 0.930 . S
O215 Co204 2.039 . S
O215 C205 1.265 . S
C216 O212 1.253 . S
C216 O217 1.227 . S
O217 C216 1.227 . S
N218 Co204 2.140 . S
N218 C221 1.346 . S
N218 C222 1.345 . S
C219 C220 1.387 . S
C219 C223 1.391 . S
C220 C219 1.387 . S
C220 C221 1.369 . S
C220 H229 0.929 . S
C221 N218 1.346 . S
C221 C220 1.369 . S
C221 H224 0.928 . S
C222 N218 1.345 . S
C222 C223 1.371 . S
C222 H225 0.931 . S
C223 C219 1.391 . S
C223 C222 1.371 . S
C223 H230 0.930 . S
H224 C221 0.928 . S
H225 C222 0.931 . S
H226 C202 0.930 . S
H227 C199 0.930 . S
H228 C208 0.930 . S
H229 C220 0.929 . S
H230 C223 0.930 . S
C231 C232 1.351 . S
C231 N234 1.368 . S
C231 H236 0.931 . S
C232 C231 1.351 . S
C232 N233 1.373 . S
C232 H260 0.930 . S
N233 C232 1.373 . S
N233 C235 1.340 . S
N234 C231 1.368 . S
N234 C235 1.321 . S
N234 Co237 2.135 . S
C235 N233 1.340 . S
C235 N234 1.321 . S
C235 H259 0.930 . S
H236 C231 0.931 . S
Co237 N234 2.135 . S
Co237 N240 2.121 . S
Co237 O245 2.055 . S
Co237 O248 2.039 . S
Co237 N251 2.140 . S
C238 O239 1.227 . S
C238 O248 1.265 . S
O239 C238 1.227 . S
N240 Co237 2.121 . S
N240 C242 1.375 . S
N240 C243 1.313 . S
C241 C242 1.338 . S
C241 N244 1.377 . S
C241 H261 0.930 . S
C242 N240 1.375 . S
C242 C241 1.338 . S
C242 H246 0.931 . S
C243 N240 1.313 . S
C243 N244 1.344 . S
C243 H247 0.930 . S
N244 C241 1.377 . S
N244 C243 1.344 . S
O245 Co237 2.055 . S
O245 C249 1.253 . S
H246 C242 0.931 . S
H247 C243 0.930 . S
O248 Co237 2.039 . S
O248 C238 1.265 . S
C249 O245 1.253 . S
C249 O250 1.227 . S
O250 C249 1.227 . S
N251 Co237 2.140 . S
N251 C254 1.346 . S
N251 C255 1.345 . S
C252 C253 1.387 . S
C252 C256 1.391 . S
C253 C252 1.387 . S
C253 C254 1.369 . S
C253 H262 0.929 . S
C254 N251 1.346 . S
C254 C253 1.369 . S
C254 H257 0.928 . S
C255 N251 1.345 . S
C255 C256 1.371 . S
C255 H258 0.931 . S
C256 C252 1.391 . S
C256 C255 1.371 . S
C256 H263 0.930 . S
H257 C254 0.928 . S
H258 C255 0.931 . S
H259 C235 0.930 . S
H260 C232 0.930 . S
H261 C241 0.930 . S
H262 C253 0.929 . S
H263 C256 0.930 . S
C264 C265 1.351 . S
C264 N267 1.368 . S
C264 H269 0.931 . S
C265 C264 1.351 . S
C265 N266 1.373 . S
C265 H293 0.930 . S
N266 C265 1.373 . S
N266 C268 1.340 . S
N267 C264 1.368 . S
N267 C268 1.321 . S
N267 Co270 2.135 . S
C268 N266 1.340 . S
C268 N267 1.321 . S
C268 H292 0.930 . S
H269 C264 0.931 . S
Co270 N267 2.135 . S
Co270 N273 2.121 . S
Co270 O278 2.055 . S
Co270 O281 2.039 . S
Co270 N284 2.140 . S
C271 O272 1.227 . S
C271 O281 1.265 . S
O272 C271 1.227 . S
N273 Co270 2.121 . S
N273 C275 1.375 . S
N273 C276 1.313 . S
C274 C275 1.338 . S
C274 N277 1.377 . S
C274 H294 0.930 . S
C275 N273 1.375 . S
C275 C274 1.338 . S
C275 H279 0.931 . S
C276 N273 1.313 . S
C276 N277 1.344 . S
C276 H280 0.930 . S
N277 C274 1.377 . S
N277 C276 1.344 . S
O278 Co270 2.055 . S
O278 C282 1.253 . S
H279 C275 0.931 . S
H280 C276 0.930 . S
O281 Co270 2.039 . S
O281 C271 1.265 . S
C282 O278 1.253 . S
C282 O283 1.227 . S
O283 C282 1.227 . S
N284 Co270 2.140 . S
N284 C287 1.346 . S
N284 C288 1.345 . S
C285 C286 1.387 . S
C285 C289 1.391 . S
C286 C285 1.387 . S
C286 C287 1.369 . S
C286 H295 0.929 . S
C287 N284 1.346 . S
C287 C286 1.369 . S
C287 H290 0.928 . S
C288 N284 1.345 . S
C288 C289 1.371 . S
C288 H291 0.931 . S
C289 C285 1.391 . S
C289 C288 1.371 . S
C289 H296 0.930 . S
H290 C287 0.928 . S
H291 C288 0.931 . S
H292 C268 0.930 . S
H293 C265 0.930 . S
H294 C274 0.930 . S
H295 C286 0.929 . S
H296 C289 0.930 . S
C297 C298 1.351 . S
C297 N300 1.368 . S
C297 H302 0.931 . S
C298 C297 1.351 . S
C298 N299 1.373 . S
C298 H326 0.930 . S
N299 C298 1.373 . S
N299 C301 1.340 . S
N300 C297 1.368 . S
N300 C301 1.321 . S
N300 Co303 2.135 . S
C301 N299 1.340 . S
C301 N300 1.321 . S
C301 H325 0.930 . S
H302 C297 0.931 . S
Co303 N300 2.135 . S
Co303 N306 2.121 . S
Co303 O311 2.055 . S
Co303 O314 2.039 . S
Co303 N317 2.140 . S
C304 O305 1.227 . S
C304 O314 1.265 . S
O305 C304 1.227 . S
N306 Co303 2.121 . S
N306 C308 1.375 . S
N306 C309 1.313 . S
C307 C308 1.338 . S
C307 N310 1.377 . S
C307 H327 0.930 . S
C308 N306 1.375 . S
C308 C307 1.338 . S
C308 H312 0.931 . S
C309 N306 1.313 . S
C309 N310 1.344 . S
C309 H313 0.930 . S
N310 C307 1.377 . S
N310 C309 1.344 . S
O311 Co303 2.055 . S
O311 C315 1.253 . S
H312 C308 0.931 . S
H313 C309 0.930 . S
O314 Co303 2.039 . S
O314 C304 1.265 . S
C315 O311 1.253 . S
C315 O316 1.227 . S
O316 C315 1.227 . S
N317 Co303 2.140 . S
N317 C320 1.346 . S
N317 C321 1.345 . S
C318 C319 1.387 . S
C318 C322 1.391 . S
C319 C318 1.387 . S
C319 C320 1.369 . S
C319 H328 0.929 . S
C320 N317 1.346 . S
C320 C319 1.369 . S
C320 H323 0.928 . S
C321 N317 1.345 . S
C321 C322 1.371 . S
C321 H324 0.931 . S
C322 C318 1.391 . S
C322 C321 1.371 . S
C322 H329 0.930 . S
H323 C320 0.928 . S
H324 C321 0.931 . S
H325 C301 0.930 . S
H326 C298 0.930 . S
H327 C307 0.930 . S
H328 C319 0.929 . S
H329 C322 0.930 . S
C330 C331 1.351 . S
C330 N333 1.368 . S
C330 H335 0.931 . S
C331 C330 1.351 . S
C331 N332 1.373 . S
C331 H359 0.930 . S
N332 C331 1.373 . S
N332 C334 1.340 . S
N333 C330 1.368 . S
N333 C334 1.321 . S
N333 Co336 2.135 . S
C334 N332 1.340 . S
C334 N333 1.321 . S
C334 H358 0.930 . S
H335 C330 0.931 . S
Co336 N333 2.135 . S
Co336 N339 2.121 . S
Co336 O344 2.055 . S
Co336 O347 2.039 . S
Co336 N350 2.140 . S
C337 O338 1.227 . S
C337 O347 1.265 . S
O338 C337 1.227 . S
N339 Co336 2.121 . S
N339 C341 1.375 . S
N339 C342 1.313 . S
C340 C341 1.338 . S
C340 N343 1.377 . S
C340 H360 0.930 . S
C341 N339 1.375 . S
C341 C340 1.338 . S
C341 H345 0.931 . S
C342 N339 1.313 . S
C342 N343 1.344 . S
C342 H346 0.930 . S
N343 C340 1.377 . S
N343 C342 1.344 . S
O344 Co336 2.055 . S
O344 C348 1.253 1_554 S
H345 C341 0.931 . S
H346 C342 0.930 . S
O347 Co336 2.039 . S
O347 C337 1.265 . S
C348 O344 1.253 1_556 S
C348 O349 1.227 . S
O349 C348 1.227 . S
N350 Co336 2.140 . S
N350 C353 1.346 . S
N350 C354 1.345 . S
C351 C352 1.387 . S
C351 C355 1.391 . S
C352 C351 1.387 . S
C352 C353 1.369 . S
C352 H361 0.929 . S
C353 N350 1.346 . S
C353 C352 1.369 . S
C353 H356 0.928 . S
C354 N350 1.345 . S
C354 C355 1.371 . S
C354 H357 0.931 . S
C355 C351 1.391 . S
C355 C354 1.371 . S
C355 H362 0.930 . S
H356 C353 0.928 . S
H357 C354 0.931 . S
H358 C334 0.930 . S
H359 C331 0.930 . S
H360 C340 0.930 . S
H361 C352 0.929 . S
H362 C355 0.930 . S
C363 C364 1.351 . S
C363 N366 1.368 . S
C363 H368 0.931 . S
C364 C363 1.351 . S
C364 N365 1.373 . S
C364 H392 0.930 . S
N365 C364 1.373 . S
N365 C367 1.340 . S
N366 C363 1.368 . S
N366 C367 1.321 . S
N366 Co369 2.135 . S
C367 N365 1.340 . S
C367 N366 1.321 . S
C367 H391 0.930 . S
H368 C363 0.931 . S
Co369 N366 2.135 . S
Co369 N372 2.121 . S
Co369 O377 2.055 . S
Co369 O380 2.039 . S
Co369 N383 2.140 . S
C370 O371 1.227 . S
C370 O380 1.265 . S
O371 C370 1.227 . S
N372 Co369 2.121 . S
N372 C374 1.375 . S
N372 C375 1.313 . S
C373 C374 1.338 . S
C373 N376 1.377 . S
C373 H393 0.930 . S
C374 N372 1.375 . S
C374 C373 1.338 . S
C374 H378 0.931 . S
C375 N372 1.313 . S
C375 N376 1.344 . S
C375 H379 0.930 . S
N376 C373 1.377 . S
N376 C375 1.344 . S
O377 Co369 2.055 . S
O377 C381 1.253 . S
H378 C374 0.931 . S
H379 C375 0.930 . S
O380 Co369 2.039 . S
O380 C370 1.265 . S
C381 O377 1.253 . S
C381 O382 1.227 . S
O382 C381 1.227 . S
N383 Co369 2.140 . S
N383 C386 1.346 . S
N383 C387 1.345 . S
C384 C385 1.387 . S
C384 C388 1.391 . S
C385 C384 1.387 . S
C385 C386 1.369 . S
C385 H394 0.929 . S
C386 N383 1.346 . S
C386 C385 1.369 . S
C386 H389 0.928 . S
C387 N383 1.345 . S
C387 C388 1.371 . S
C387 H390 0.931 . S
C388 C384 1.391 . S
C388 C387 1.371 . S
C388 H395 0.930 . S
H389 C386 0.928 . S
H390 C387 0.931 . S
H391 C367 0.930 . S
H392 C364 0.930 . S
H393 C373 0.930 . S
H394 C385 0.929 . S
H395 C388 0.930 . S
C396 C397 1.351 . S
C396 N399 1.368 . S
C396 H401 0.931 . S
C397 C396 1.351 . S
C397 N398 1.373 . S
C397 H425 0.930 . S
N398 C397 1.373 . S
N398 C400 1.340 . S
N399 C396 1.368 . S
N399 C400 1.321 . S
N399 Co402 2.135 . S
C400 N398 1.340 . S
C400 N399 1.321 . S
C400 H424 0.930 . S
H401 C396 0.931 . S
Co402 N399 2.135 . S
Co402 N405 2.121 . S
Co402 O410 2.055 . S
Co402 O413 2.039 . S
Co402 N416 2.140 . S
C403 O404 1.227 . S
C403 O413 1.265 . S
O404 C403 1.227 . S
N405 Co402 2.121 . S
N405 C407 1.375 . S
N405 C408 1.313 . S
C406 C407 1.338 . S
C406 N409 1.377 . S
C406 H426 0.930 . S
C407 N405 1.375 . S
C407 C406 1.338 . S
C407 H411 0.931 . S
C408 N405 1.313 . S
C408 N409 1.344 . S
C408 H412 0.930 . S
N409 C406 1.377 . S
N409 C408 1.344 . S
O410 Co402 2.055 . S
O410 C414 1.253 1_556 S
H411 C407 0.931 . S
H412 C408 0.930 . S
O413 Co402 2.039 . S
O413 C403 1.265 . S
C414 O410 1.253 1_554 S
C414 O415 1.227 . S
O415 C414 1.227 . S
N416 Co402 2.140 . S
N416 C419 1.346 . S
N416 C420 1.345 . S
C417 C418 1.387 . S
C417 C421 1.391 . S
C418 C417 1.387 . S
C418 C419 1.369 . S
C418 H427 0.929 . S
C419 N416 1.346 . S
C419 C418 1.369 . S
C419 H422 0.928 . S
C420 N416 1.345 . S
C420 C421 1.371 . S
C420 H423 0.931 . S
C421 C417 1.391 . S
C421 C420 1.371 . S
C421 H428 0.930 . S
H422 C419 0.928 . S
H423 C420 0.931 . S
H424 C400 0.930 . S
H425 C397 0.930 . S
H426 C406 0.930 . S
H427 C418 0.929 . S
H428 C421 0.930 . S
C429 C430 1.351 . S
C429 N432 1.368 . S
C429 H434 0.931 . S
C430 C429 1.351 . S
C430 N431 1.373 . S
C430 H458 0.930 . S
N431 C430 1.373 . S
N431 C433 1.340 . S
N432 C429 1.368 . S
N432 C433 1.321 . S
N432 Co435 2.135 . S
C433 N431 1.340 . S
C433 N432 1.321 . S
C433 H457 0.930 . S
H434 C429 0.931 . S
Co435 N432 2.135 . S
Co435 N438 2.121 . S
Co435 O443 2.055 . S
Co435 O446 2.039 . S
Co435 N449 2.140 . S
C436 O437 1.227 . S
C436 O446 1.265 . S
O437 C436 1.227 . S
N438 Co435 2.121 . S
N438 C440 1.375 . S
N438 C441 1.313 . S
C439 C440 1.338 . S
C439 N442 1.377 . S
C439 H459 0.930 . S
C440 N438 1.375 . S
C440 C439 1.338 . S
C440 H444 0.931 . S
C441 N438 1.313 . S
C441 N442 1.344 . S
C441 H445 0.930 . S
N442 C439 1.377 . S
N442 C441 1.344 . S
O443 Co435 2.055 . S
O443 C447 1.253 . S
H444 C440 0.931 . S
H445 C441 0.930 . S
O446 Co435 2.039 . S
O446 C436 1.265 . S
C447 O443 1.253 . S
C447 O448 1.227 . S
O448 C447 1.227 . S
N449 Co435 2.140 . S
N449 C452 1.346 . S
N449 C453 1.345 . S
C450 C451 1.387 . S
C450 C454 1.391 . S
C451 C450 1.387 . S
C451 C452 1.369 . S
C451 H460 0.929 . S
C452 N449 1.346 . S
C452 C451 1.369 . S
C452 H455 0.928 . S
C453 N449 1.345 . S
C453 C454 1.371 . S
C453 H456 0.931 . S
C454 C450 1.391 . S
C454 C453 1.371 . S
C454 H461 0.930 . S
H455 C452 0.928 . S
H456 C453 0.931 . S
H457 C433 0.930 . S
H458 C430 0.930 . S
H459 C439 0.930 . S
H460 C451 0.929 . S
H461 C454 0.930 . S
C462 C463 1.351 . S
C462 N465 1.368 . S
C462 H467 0.931 . S
C463 C462 1.351 . S
C463 N464 1.373 . S
C463 H491 0.930 . S
N464 C463 1.373 . S
N464 C466 1.340 . S
N465 C462 1.368 . S
N465 C466 1.321 . S
N465 Co468 2.135 . S
C466 N464 1.340 . S
C466 N465 1.321 . S
C466 H490 0.930 . S
H467 C462 0.931 . S
Co468 N465 2.135 . S
Co468 N471 2.121 . S
Co468 O476 2.055 . S
Co468 O479 2.039 . S
Co468 N482 2.140 . S
C469 O470 1.227 . S
C469 O479 1.265 . S
O470 C469 1.227 . S
N471 Co468 2.121 . S
N471 C473 1.375 . S
N471 C474 1.313 . S
C472 C473 1.338 . S
C472 N475 1.377 . S
C472 H492 0.930 . S
C473 N471 1.375 . S
C473 C472 1.338 . S
C473 H477 0.931 . S
C474 N471 1.313 . S
C474 N475 1.344 . S
C474 H478 0.930 . S
N475 C472 1.377 . S
N475 C474 1.344 . S
O476 Co468 2.055 . S
O476 C480 1.253 . S
H477 C473 0.931 . S
H478 C474 0.930 . S
O479 Co468 2.039 . S
O479 C469 1.265 . S
C480 O476 1.253 . S
C480 O481 1.227 . S
O481 C480 1.227 . S
N482 Co468 2.140 . S
N482 C485 1.346 . S
N482 C486 1.345 . S
C483 C484 1.387 . S
C483 C487 1.391 . S
C484 C483 1.387 . S
C484 C485 1.369 . S
C484 H493 0.929 . S
C485 N482 1.346 . S
C485 C484 1.369 . S
C485 H488 0.928 . S
C486 N482 1.345 . S
C486 C487 1.371 . S
C486 H489 0.931 . S
C487 C483 1.391 . S
C487 C486 1.371 . S
C487 H494 0.930 . S
H488 C485 0.928 . S
H489 C486 0.931 . S
H490 C466 0.930 . S
H491 C463 0.930 . S
H492 C472 0.930 . S
H493 C484 0.929 . S
H494 C487 0.930 . S
C495 C496 1.351 . S
C495 N498 1.368 . S
C495 H500 0.931 . S
C496 C495 1.351 . S
C496 N497 1.373 . S
C496 H524 0.930 . S
N497 C496 1.373 . S
N497 C499 1.340 . S
N498 C495 1.368 . S
N498 C499 1.321 . S
N498 Co501 2.135 . S
C499 N497 1.340 . S
C499 N498 1.321 . S
C499 H523 0.930 . S
H500 C495 0.931 . S
Co501 N498 2.135 . S
Co501 N504 2.121 . S
Co501 O509 2.055 . S
Co501 O512 2.039 . S
Co501 N515 2.140 . S
C502 O503 1.227 . S
C502 O512 1.265 . S
O503 C502 1.227 . S
N504 Co501 2.121 . S
N504 C506 1.375 . S
N504 C507 1.313 . S
C505 C506 1.338 . S
C505 N508 1.377 . S
C505 H525 0.930 . S
C506 N504 1.375 . S
C506 C505 1.338 . S
C506 H510 0.931 . S
C507 N504 1.313 . S
C507 N508 1.344 . S
C507 H511 0.930 . S
N508 C505 1.377 . S
N508 C507 1.344 . S
O509 Co501 2.055 . S
O509 C513 1.253 . S
H510 C506 0.931 . S
H511 C507 0.930 . S
O512 Co501 2.039 . S
O512 C502 1.265 . S
C513 O509 1.253 . S
C513 O514 1.227 . S
O514 C513 1.227 . S
N515 Co501 2.140 . S
N515 C518 1.346 . S
N515 C519 1.345 . S
C516 C517 1.387 . S
C516 C520 1.391 . S
C517 C516 1.387 . S
C517 C518 1.369 . S
C517 H526 0.929 . S
C518 N515 1.346 . S
C518 C517 1.369 . S
C518 H521 0.928 . S
C519 N515 1.345 . S
C519 C520 1.371 . S
C519 H522 0.931 . S
C520 C516 1.391 . S
C520 C519 1.371 . S
C520 H527 0.930 . S
H521 C518 0.928 . S
H522 C519 0.931 . S
H523 C499 0.930 . S
H524 C496 0.930 . S
H525 C505 0.930 . S
H526 C517 0.929 . S
H527 C520 0.930 . S
C528 C529 1.351 . S
C528 N531 1.368 . S
C528 H533 0.931 . S
C529 C528 1.351 . S
C529 N530 1.373 . S
C529 H557 0.930 . S
N530 C529 1.373 . S
N530 C532 1.340 . S
N531 C528 1.368 . S
N531 C532 1.321 . S
N531 Co534 2.135 . S
C532 N530 1.340 . S
C532 N531 1.321 . S
C532 H556 0.930 . S
H533 C528 0.931 . S
Co534 N531 2.135 . S
Co534 N537 2.121 . S
Co534 O542 2.055 . S
Co534 O545 2.039 . S
Co534 N548 2.140 . S
C535 O536 1.227 . S
C535 O545 1.265 . S
O536 C535 1.227 . S
N537 Co534 2.121 . S
N537 C539 1.375 . S
N537 C540 1.313 . S
C538 C539 1.338 . S
C538 N541 1.377 . S
C538 H558 0.930 . S
C539 N537 1.375 . S
C539 C538 1.338 . S
C539 H543 0.931 . S
C540 N537 1.313 . S
C540 N541 1.344 . S
C540 H544 0.930 . S
N541 C538 1.377 . S
N541 C540 1.344 . S
O542 Co534 2.055 . S
O542 C546 1.253 1_556 S
H543 C539 0.931 . S
H544 C540 0.930 . S
O545 Co534 2.039 . S
O545 C535 1.265 . S
C546 O542 1.253 1_554 S
C546 O547 1.227 . S
O547 C546 1.227 . S
N548 Co534 2.140 . S
N548 C551 1.346 . S
N548 C552 1.345 . S
C549 C550 1.387 . S
C549 C553 1.391 . S
C550 C549 1.387 . S
C550 C551 1.369 . S
C550 H559 0.929 . S
C551 N548 1.346 . S
C551 C550 1.369 . S
C551 H554 0.928 . S
C552 N548 1.345 . S
C552 C553 1.371 . S
C552 H555 0.931 . S
C553 C549 1.391 . S
C553 C552 1.371 . S
C553 H560 0.930 . S
H554 C551 0.928 . S
H555 C552 0.931 . S
H556 C532 0.930 . S
H557 C529 0.930 . S
H558 C538 0.930 . S
H559 C550 0.929 . S
H560 C553 0.930 . S
C561 C562 1.351 . S
C561 N564 1.368 . S
C561 H566 0.931 . S
C562 C561 1.351 . S
C562 N563 1.373 . S
C562 H590 0.930 . S
N563 C562 1.373 . S
N563 C565 1.340 . S
N564 C561 1.368 . S
N564 C565 1.321 . S
N564 Co567 2.135 . S
C565 N563 1.340 . S
C565 N564 1.321 . S
C565 H589 0.930 . S
H566 C561 0.931 . S
Co567 N564 2.135 . S
Co567 N570 2.121 . S
Co567 O575 2.055 . S
Co567 O578 2.039 . S
Co567 N581 2.140 . S
C568 O569 1.227 . S
C568 O578 1.265 . S
O569 C568 1.227 . S
N570 Co567 2.121 . S
N570 C572 1.375 . S
N570 C573 1.313 . S
C571 C572 1.338 . S
C571 N574 1.377 . S
C571 H591 0.930 . S
C572 N570 1.375 . S
C572 C571 1.338 . S
C572 H576 0.931 . S
C573 N570 1.313 . S
C573 N574 1.344 . S
C573 H577 0.930 . S
N574 C571 1.377 . S
N574 C573 1.344 . S
O575 Co567 2.055 . S
O575 C579 1.253 . S
H576 C572 0.931 . S
H577 C573 0.930 . S
O578 Co567 2.039 . S
O578 C568 1.265 . S
C579 O575 1.253 . S
C579 O580 1.227 . S
O580 C579 1.227 . S
N581 Co567 2.140 . S
N581 C584 1.346 . S
N581 C585 1.345 . S
C582 C583 1.387 . S
C582 C586 1.391 . S
C583 C582 1.387 . S
C583 C584 1.369 . S
C583 H592 0.929 . S
C584 N581 1.346 . S
C584 C583 1.369 . S
C584 H587 0.928 . S
C585 N581 1.345 . S
C585 C586 1.371 . S
C585 H588 0.931 . S
C586 C582 1.391 . S
C586 C585 1.371 . S
C586 H593 0.930 . S
H587 C584 0.928 . S
H588 C585 0.931 . S
H589 C565 0.930 . S
H590 C562 0.930 . S
H591 C571 0.930 . S
H592 C583 0.929 . S
H593 C586 0.930 . S
C594 C595 1.351 . S
C594 N597 1.368 . S
C594 H599 0.931 . S
C595 C594 1.351 . S
C595 N596 1.373 . S
C595 H623 0.930 . S
N596 C595 1.373 . S
N596 C598 1.340 . S
N597 C594 1.368 . S
N597 C598 1.321 . S
N597 Co600 2.135 . S
C598 N596 1.340 . S
C598 N597 1.321 . S
C598 H622 0.930 . S
H599 C594 0.931 . S
Co600 N597 2.135 . S
Co600 N603 2.121 . S
Co600 O608 2.055 . S
Co600 O611 2.039 . S
Co600 N614 2.140 . S
C601 O602 1.227 . S
C601 O611 1.265 . S
O602 C601 1.227 . S
N603 Co600 2.121 . S
N603 C605 1.375 . S
N603 C606 1.313 . S
C604 C605 1.338 . S
C604 N607 1.377 . S
C604 H624 0.930 . S
C605 N603 1.375 . S
C605 C604 1.338 . S
C605 H609 0.931 . S
C606 N603 1.313 . S
C606 N607 1.344 . S
C606 H610 0.930 . S
N607 C604 1.377 . S
N607 C606 1.344 . S
O608 Co600 2.055 . S
O608 C612 1.253 . S
H609 C605 0.931 . S
H610 C606 0.930 . S
O611 Co600 2.039 . S
O611 C601 1.265 . S
C612 O608 1.253 . S
C612 O613 1.227 . S
O613 C612 1.227 . S
N614 Co600 2.140 . S
N614 C617 1.346 . S
N614 C618 1.345 . S
C615 C616 1.387 . S
C615 C619 1.391 . S
C616 C615 1.387 . S
C616 C617 1.369 . S
C616 H625 0.929 . S
C617 N614 1.346 . S
C617 C616 1.369 . S
C617 H620 0.928 . S
C618 N614 1.345 . S
C618 C619 1.371 . S
C618 H621 0.931 . S
C619 C615 1.391 . S
C619 C618 1.371 . S
C619 H626 0.930 . S
H620 C617 0.928 . S
H621 C618 0.931 . S
H622 C598 0.930 . S
H623 C595 0.930 . S
H624 C604 0.930 . S
H625 C616 0.929 . S
H626 C619 0.930 . S
C627 C628 1.351 . S
C627 N630 1.368 . S
C627 H632 0.931 . S
C628 C627 1.351 . S
C628 N629 1.373 . S
C628 H656 0.930 . S
N629 C628 1.373 . S
N629 C631 1.340 . S
N630 C627 1.368 . S
N630 C631 1.321 . S
N630 Co633 2.135 . S
C631 N629 1.340 . S
C631 N630 1.321 . S
C631 H655 0.930 . S
H632 C627 0.931 . S
Co633 N630 2.135 . S
Co633 N636 2.121 . S
Co633 O641 2.055 . S
Co633 O644 2.039 . S
Co633 N647 2.140 . S
C634 O635 1.227 . S
C634 O644 1.265 . S
O635 C634 1.227 . S
N636 Co633 2.121 . S
N636 C638 1.375 . S
N636 C639 1.313 . S
C637 C638 1.338 . S
C637 N640 1.377 . S
C637 H657 0.930 . S
C638 N636 1.375 . S
C638 C637 1.338 . S
C638 H642 0.931 . S
C639 N636 1.313 . S
C639 N640 1.344 . S
C639 H643 0.930 . S
N640 C637 1.377 . S
N640 C639 1.344 . S
O641 Co633 2.055 . S
O641 C645 1.253 . S
H642 C638 0.931 . S
H643 C639 0.930 . S
O644 Co633 2.039 . S
O644 C634 1.265 . S
C645 O641 1.253 . S
C645 O646 1.227 . S
O646 C645 1.227 . S
N647 Co633 2.140 . S
N647 C650 1.346 . S
N647 C651 1.345 . S
C648 C649 1.387 . S
C648 C652 1.391 . S
C649 C648 1.387 . S
C649 C650 1.369 . S
C649 H658 0.929 . S
C650 N647 1.346 . S
C650 C649 1.369 . S
C650 H653 0.928 . S
C651 N647 1.345 . S
C651 C652 1.371 . S
C651 H654 0.931 . S
C652 C648 1.391 . S
C652 C651 1.371 . S
C652 H659 0.930 . S
H653 C650 0.928 . S
H654 C651 0.931 . S
H655 C631 0.930 . S
H656 C628 0.930 . S
H657 C637 0.930 . S
H658 C649 0.929 . S
H659 C652 0.930 . S
C660 C661 1.351 . S
C660 N663 1.368 . S
C660 H665 0.931 . S
C661 C660 1.351 . S
C661 N662 1.373 . S
C661 H689 0.930 . S
N662 C661 1.373 . S
N662 C664 1.340 . S
N663 C660 1.368 . S
N663 C664 1.321 . S
N663 Co666 2.135 . S
C664 N662 1.340 . S
C664 N663 1.321 . S
C664 H688 0.930 . S
H665 C660 0.931 . S
Co666 N663 2.135 . S
Co666 N669 2.121 . S
Co666 O674 2.055 . S
Co666 O677 2.039 . S
Co666 N680 2.140 . S
C667 O668 1.227 . S
C667 O677 1.265 . S
O668 C667 1.227 . S
N669 Co666 2.121 . S
N669 C671 1.375 . S
N669 C672 1.313 . S
C670 C671 1.338 . S
C670 N673 1.377 . S
C670 H690 0.930 . S
C671 N669 1.375 . S
C671 C670 1.338 . S
C671 H675 0.931 . S
C672 N669 1.313 . S
C672 N673 1.344 . S
C672 H676 0.930 . S
N673 C670 1.377 . S
N673 C672 1.344 . S
O674 Co666 2.055 . S
O674 C678 1.253 . S
H675 C671 0.931 . S
H676 C672 0.930 . S
O677 Co666 2.039 . S
O677 C667 1.265 . S
C678 O674 1.253 . S
C678 O679 1.227 . S
O679 C678 1.227 . S
N680 Co666 2.140 . S
N680 C683 1.346 . S
N680 C684 1.345 . S
C681 C682 1.387 . S
C681 C685 1.391 . S
C682 C681 1.387 . S
C682 C683 1.369 . S
C682 H691 0.929 . S
C683 N680 1.346 . S
C683 C682 1.369 . S
C683 H686 0.928 . S
C684 N680 1.345 . S
C684 C685 1.371 . S
C684 H687 0.931 . S
C685 C681 1.391 . S
C685 C684 1.371 . S
C685 H692 0.930 . S
H686 C683 0.928 . S
H687 C684 0.931 . S
H688 C664 0.930 . S
H689 C661 0.930 . S
H690 C670 0.930 . S
H691 C682 0.929 . S
H692 C685 0.930 . S
C693 C694 1.351 . S
C693 N696 1.368 . S
C693 H698 0.931 . S
C694 C693 1.351 . S
C694 N695 1.373 . S
C694 H722 0.930 . S
N695 C694 1.373 . S
N695 C697 1.340 . S
N696 C693 1.368 . S
N696 C697 1.321 . S
N696 Co699 2.135 . S
C697 N695 1.340 . S
C697 N696 1.321 . S
C697 H721 0.930 . S
H698 C693 0.931 . S
Co699 N696 2.135 . S
Co699 N702 2.121 . S
Co699 O707 2.055 . S
Co699 O710 2.039 . S
Co699 N713 2.140 . S
C700 O701 1.227 . S
C700 O710 1.265 . S
O701 C700 1.227 . S
N702 Co699 2.121 . S
N702 C704 1.375 . S
N702 C705 1.313 . S
C703 C704 1.338 . S
C703 N706 1.377 . S
C703 H723 0.930 . S
C704 N702 1.375 . S
C704 C703 1.338 . S
C704 H708 0.931 . S
C705 N702 1.313 . S
C705 N706 1.344 . S
C705 H709 0.930 . S
N706 C703 1.377 . S
N706 C705 1.344 . S
O707 Co699 2.055 . S
O707 C711 1.253 . S
H708 C704 0.931 . S
H709 C705 0.930 . S
O710 Co699 2.039 . S
O710 C700 1.265 . S
C711 O707 1.253 . S
C711 O712 1.227 . S
O712 C711 1.227 . S
N713 Co699 2.140 . S
N713 C716 1.346 . S
N713 C717 1.345 . S
C714 C715 1.387 . S
C714 C718 1.391 . S
C715 C714 1.387 . S
C715 C716 1.369 . S
C715 H724 0.929 . S
C716 N713 1.346 . S
C716 C715 1.369 . S
C716 H719 0.928 . S
C717 N713 1.345 . S
C717 C718 1.371 . S
C717 H720 0.931 . S
C718 C714 1.391 . S
C718 C717 1.371 . S
C718 H725 0.930 . S
H719 C716 0.928 . S
H720 C717 0.931 . S
H721 C697 0.930 . S
H722 C694 0.930 . S
H723 C703 0.930 . S
H724 C715 0.929 . S
H725 C718 0.930 . S
C726 C727 1.351 . S
C726 N729 1.368 . S
C726 H731 0.931 . S
C727 C726 1.351 . S
C727 N728 1.373 . S
C727 H755 0.930 . S
N728 C727 1.373 . S
N728 C730 1.340 . S
N729 C726 1.368 . S
N729 C730 1.321 . S
N729 Co732 2.135 . S
C730 N728 1.340 . S
C730 N729 1.321 . S
C730 H754 0.930 . S
H731 C726 0.931 . S
Co732 N729 2.135 . S
Co732 N735 2.121 . S
Co732 O740 2.055 . S
Co732 O743 2.039 . S
Co732 N746 2.140 . S
C733 O734 1.227 . S
C733 O743 1.265 . S
O734 C733 1.227 . S
N735 Co732 2.121 . S
N735 C737 1.375 . S
N735 C738 1.313 . S
C736 C737 1.338 . S
C736 N739 1.377 . S
C736 H756 0.930 . S
C737 N735 1.375 . S
C737 C736 1.338 . S
C737 H741 0.931 . S
C738 N735 1.313 . S
C738 N739 1.344 . S
C738 H742 0.930 . S
N739 C736 1.377 . S
N739 C738 1.344 . S
O740 Co732 2.055 . S
O740 C744 1.253 1_554 S
H741 C737 0.931 . S
H742 C738 0.930 . S
O743 Co732 2.039 . S
O743 C733 1.265 . S
C744 O740 1.253 1_556 S
C744 O745 1.227 . S
O745 C744 1.227 . S
N746 Co732 2.140 . S
N746 C749 1.346 . S
N746 C750 1.345 . S
C747 C748 1.387 . S
C747 C751 1.391 . S
C748 C747 1.387 . S
C748 C749 1.369 . S
C748 H757 0.929 . S
C749 N746 1.346 . S
C749 C748 1.369 . S
C749 H752 0.928 . S
C750 N746 1.345 . S
C750 C751 1.371 . S
C750 H753 0.931 . S
C751 C747 1.391 . S
C751 C750 1.371 . S
C751 H758 0.930 . S
H752 C749 0.928 . S
H753 C750 0.931 . S
H754 C730 0.930 . S
H755 C727 0.930 . S
H756 C736 0.930 . S
H757 C748 0.929 . S
H758 C751 0.930 . S
C759 C760 1.351 . S
C759 N762 1.368 . S
C759 H764 0.931 . S
C760 C759 1.351 . S
C760 N761 1.373 . S
C760 H788 0.930 . S
N761 C760 1.373 . S
N761 C763 1.340 . S
N762 C759 1.368 . S
N762 C763 1.321 . S
N762 Co765 2.135 . S
C763 N761 1.340 . S
C763 N762 1.321 . S
C763 H787 0.930 . S
H764 C759 0.931 . S
Co765 N762 2.135 . S
Co765 N768 2.121 . S
Co765 O773 2.055 . S
Co765 O776 2.039 . S
Co765 N779 2.140 . S
C766 O767 1.227 . S
C766 O776 1.265 . S
O767 C766 1.227 . S
N768 Co765 2.121 . S
N768 C770 1.375 . S
N768 C771 1.313 . S
C769 C770 1.338 . S
C769 N772 1.377 . S
C769 H789 0.930 . S
C770 N768 1.375 . S
C770 C769 1.338 . S
C770 H774 0.931 . S
C771 N768 1.313 . S
C771 N772 1.344 . S
C771 H775 0.930 . S
N772 C769 1.377 . S
N772 C771 1.344 . S
O773 Co765 2.055 . S
O773 C777 1.253 . S
H774 C770 0.931 . S
H775 C771 0.930 . S
O776 Co765 2.039 . S
O776 C766 1.265 . S
C777 O773 1.253 . S
C777 O778 1.227 . S
O778 C777 1.227 . S
N779 Co765 2.140 . S
N779 C782 1.346 . S
N779 C783 1.345 . S
C780 C781 1.387 . S
C780 C784 1.391 . S
C781 C780 1.387 . S
C781 C782 1.369 . S
C781 H790 0.929 . S
C782 N779 1.346 . S
C782 C781 1.369 . S
C782 H785 0.928 . S
C783 N779 1.345 . S
C783 C784 1.371 . S
C783 H786 0.931 . S
C784 C780 1.391 . S
C784 C783 1.371 . S
C784 H791 0.930 . S
H785 C782 0.928 . S
H786 C783 0.931 . S
H787 C763 0.930 . S
H788 C760 0.930 . S
H789 C769 0.930 . S
H790 C781 0.929 . S
H791 C784 0.930 . S
C792 C793 1.351 . S
C792 N795 1.368 . S
C792 H797 0.931 . S
C793 C792 1.351 . S
C793 N794 1.373 . S
C793 H821 0.930 . S
N794 C793 1.373 . S
N794 C796 1.340 . S
N795 C792 1.368 . S
N795 C796 1.321 . S
N795 Co798 2.135 . S
C796 N794 1.340 . S
C796 N795 1.321 . S
C796 H820 0.930 . S
H797 C792 0.931 . S
Co798 N795 2.135 . S
Co798 N801 2.121 . S
Co798 O806 2.055 . S
Co798 O809 2.039 . S
Co798 N812 2.140 . S
C799 O800 1.227 . S
C799 O809 1.265 . S
O800 C799 1.227 . S
N801 Co798 2.121 . S
N801 C803 1.375 . S
N801 C804 1.313 . S
C802 C803 1.338 . S
C802 N805 1.377 . S
C802 H822 0.930 . S
C803 N801 1.375 . S
C803 C802 1.338 . S
C803 H807 0.931 . S
C804 N801 1.313 . S
C804 N805 1.344 . S
C804 H808 0.930 . S
N805 C802 1.377 . S
N805 C804 1.344 . S
O806 Co798 2.055 . S
O806 C810 1.253 1_554 S
H807 C803 0.931 . S
H808 C804 0.930 . S
O809 Co798 2.039 . S
O809 C799 1.265 . S
C810 O806 1.253 1_556 S
C810 O811 1.227 . S
O811 C810 1.227 . S
N812 Co798 2.140 . S
N812 C815 1.346 . S
N812 C816 1.345 . S
C813 C814 1.387 . S
C813 C817 1.391 . S
C814 C813 1.387 . S
C814 C815 1.369 . S
C814 H823 0.929 . S
C815 N812 1.346 . S
C815 C814 1.369 . S
C815 H818 0.928 . S
C816 N812 1.345 . S
C816 C817 1.371 . S
C816 H819 0.931 . S
C817 C813 1.391 . S
C817 C816 1.371 . S
C817 H824 0.930 . S
H818 C815 0.928 . S
H819 C816 0.931 . S
H820 C796 0.930 . S
H821 C793 0.930 . S
H822 C802 0.930 . S
H823 C814 0.929 . S
H824 C817 0.930 . S
C825 C826 1.351 . S
C825 N828 1.368 . S
C825 H830 0.931 . S
C826 C825 1.351 . S
C826 N827 1.373 . S
C826 H854 0.930 . S
N827 C826 1.373 . S
N827 C829 1.340 . S
N828 C825 1.368 . S
N828 C829 1.321 . S
N828 Co831 2.135 . S
C829 N827 1.340 . S
C829 N828 1.321 . S
C829 H853 0.930 . S
H830 C825 0.931 . S
Co831 N828 2.135 . S
Co831 N834 2.121 . S
Co831 O839 2.055 . S
Co831 O842 2.039 . S
Co831 N845 2.140 . S
C832 O833 1.227 . S
C832 O842 1.265 . S
O833 C832 1.227 . S
N834 Co831 2.121 . S
N834 C836 1.375 . S
N834 C837 1.313 . S
C835 C836 1.338 . S
C835 N838 1.377 . S
C835 H855 0.930 . S
C836 N834 1.375 . S
C836 C835 1.338 . S
C836 H840 0.931 . S
C837 N834 1.313 . S
C837 N838 1.344 . S
C837 H841 0.930 . S
N838 C835 1.377 . S
N838 C837 1.344 . S
O839 Co831 2.055 . S
O839 C843 1.253 . S
H840 C836 0.931 . S
H841 C837 0.930 . S
O842 Co831 2.039 . S
O842 C832 1.265 . S
C843 O839 1.253 . S
C843 O844 1.227 . S
O844 C843 1.227 . S
N845 Co831 2.140 . S
N845 C848 1.346 . S
N845 C849 1.345 . S
C846 C847 1.387 . S
C846 C850 1.391 . S
C847 C846 1.387 . S
C847 C848 1.369 . S
C847 H856 0.929 . S
C848 N845 1.346 . S
C848 C847 1.369 . S
C848 H851 0.928 . S
C849 N845 1.345 . S
C849 C850 1.371 . S
C849 H852 0.931 . S
C850 C846 1.391 . S
C850 C849 1.371 . S
C850 H857 0.930 . S
H851 C848 0.928 . S
H852 C849 0.931 . S
H853 C829 0.930 . S
H854 C826 0.930 . S
H855 C835 0.930 . S
H856 C847 0.929 . S
H857 C850 0.930 . S
C858 C859 1.351 . S
C858 N861 1.368 . S
C858 H863 0.931 . S
C859 C858 1.351 . S
C859 N860 1.373 . S
C859 H887 0.930 . S
N860 C859 1.373 . S
N860 C862 1.340 . S
N861 C858 1.368 . S
N861 C862 1.321 . S
N861 Co864 2.135 . S
C862 N860 1.340 . S
C862 N861 1.321 . S
C862 H886 0.930 . S
H863 C858 0.931 . S
Co864 N861 2.135 . S
Co864 N867 2.121 . S
Co864 O872 2.055 . S
Co864 O875 2.039 . S
Co864 N878 2.140 . S
C865 O866 1.227 . S
C865 O875 1.265 . S
O866 C865 1.227 . S
N867 Co864 2.121 . S
N867 C869 1.375 . S
N867 C870 1.313 . S
C868 C869 1.338 . S
C868 N871 1.377 . S
C868 H888 0.930 . S
C869 N867 1.375 . S
C869 C868 1.338 . S
C869 H873 0.931 . S
C870 N867 1.313 . S
C870 N871 1.344 . S
C870 H874 0.930 . S
N871 C868 1.377 . S
N871 C870 1.344 . S
O872 Co864 2.055 . S
O872 C876 1.253 . S
H873 C869 0.931 . S
H874 C870 0.930 . S
O875 Co864 2.039 . S
O875 C865 1.265 . S
C876 O872 1.253 . S
C876 O877 1.227 . S
O877 C876 1.227 . S
N878 Co864 2.140 . S
N878 C881 1.346 . S
N878 C882 1.345 . S
C879 C880 1.387 . S
C879 C883 1.391 . S
C880 C879 1.387 . S
C880 C881 1.369 . S
C880 H889 0.929 . S
C881 N878 1.346 . S
C881 C880 1.369 . S
C881 H884 0.928 . S
C882 N878 1.345 . S
C882 C883 1.371 . S
C882 H885 0.931 . S
C883 C879 1.391 . S
C883 C882 1.371 . S
C883 H890 0.930 . S
H884 C881 0.928 . S
H885 C882 0.931 . S
H886 C862 0.930 . S
H887 C859 0.930 . S
H888 C868 0.930 . S
H889 C880 0.929 . S
H890 C883 0.930 . S
C891 C892 1.351 . S
C891 N894 1.368 . S
C891 H896 0.931 . S
C892 C891 1.351 . S
C892 N893 1.373 . S
C892 H920 0.930 . S
N893 C892 1.373 . S
N893 C895 1.340 . S
N894 C891 1.368 . S
N894 C895 1.321 . S
N894 Co897 2.135 . S
C895 N893 1.340 . S
C895 N894 1.321 . S
C895 H919 0.930 . S
H896 C891 0.931 . S
Co897 N894 2.135 . S
Co897 N900 2.121 . S
Co897 O905 2.055 . S
Co897 O908 2.039 . S
Co897 N911 2.140 . S
C898 O899 1.227 . S
C898 O908 1.265 . S
O899 C898 1.227 . S
N900 Co897 2.121 . S
N900 C902 1.375 . S
N900 C903 1.313 . S
C901 C902 1.338 . S
C901 N904 1.377 . S
C901 H921 0.930 . S
C902 N900 1.375 . S
C902 C901 1.338 . S
C902 H906 0.931 . S
C903 N900 1.313 . S
C903 N904 1.344 . S
C903 H907 0.930 . S
N904 C901 1.377 . S
N904 C903 1.344 . S
O905 Co897 2.055 . S
O905 C909 1.253 . S
H906 C902 0.931 . S
H907 C903 0.930 . S
O908 Co897 2.039 . S
O908 C898 1.265 . S
C909 O905 1.253 . S
C909 O910 1.227 . S
O910 C909 1.227 . S
N911 Co897 2.140 . S
N911 C914 1.346 . S
N911 C915 1.345 . S
C912 C913 1.387 . S
C912 C916 1.391 . S
C913 C912 1.387 . S
C913 C914 1.369 . S
C913 H922 0.929 . S
C914 N911 1.346 . S
C914 C913 1.369 . S
C914 H917 0.928 . S
C915 N911 1.345 . S
C915 C916 1.371 . S
C915 H918 0.931 . S
C916 C912 1.391 . S
C916 C915 1.371 . S
C916 H923 0.930 . S
H917 C914 0.928 . S
H918 C915 0.931 . S
H919 C895 0.930 . S
H920 C892 0.930 . S
H921 C901 0.930 . S
H922 C913 0.929 . S
H923 C916 0.930 . S
C924 C925 1.351 . S
C924 N927 1.368 . S
C924 H929 0.931 . S
C925 C924 1.351 . S
C925 N926 1.373 . S
C925 H953 0.930 . S
N926 C925 1.373 . S
N926 C928 1.340 . S
N927 C924 1.368 . S
N927 C928 1.321 . S
N927 Co930 2.135 . S
C928 N926 1.340 . S
C928 N927 1.321 . S
C928 H952 0.930 . S
H929 C924 0.931 . S
Co930 N927 2.135 . S
Co930 N933 2.121 . S
Co930 O938 2.055 . S
Co930 O941 2.039 . S
Co930 N944 2.140 . S
C931 O932 1.227 . S
C931 O941 1.265 . S
O932 C931 1.227 . S
N933 Co930 2.121 . S
N933 C935 1.375 . S
N933 C936 1.313 . S
C934 C935 1.338 . S
C934 N937 1.377 . S
C934 H954 0.930 . S
C935 N933 1.375 . S
C935 C934 1.338 . S
C935 H939 0.931 . S
C936 N933 1.313 . S
C936 N937 1.344 . S
C936 H940 0.930 . S
N937 C934 1.377 . S
N937 C936 1.344 . S
O938 Co930 2.055 . S
O938 C942 1.253 . S
H939 C935 0.931 . S
H940 C936 0.930 . S
O941 Co930 2.039 . S
O941 C931 1.265 . S
C942 O938 1.253 . S
C942 O943 1.227 . S
O943 C942 1.227 . S
N944 Co930 2.140 . S
N944 C947 1.346 . S
N944 C948 1.345 . S
C945 C946 1.387 . S
C945 C949 1.391 . S
C946 C945 1.387 . S
C946 C947 1.369 . S
C946 H955 0.929 . S
C947 N944 1.346 . S
C947 C946 1.369 . S
C947 H950 0.928 . S
C948 N944 1.345 . S
C948 C949 1.371 . S
C948 H951 0.931 . S
C949 C945 1.391 . S
C949 C948 1.371 . S
C949 H956 0.930 . S
H950 C947 0.928 . S
H951 C948 0.931 . S
H952 C928 0.930 . S
H953 C925 0.930 . S
H954 C934 0.930 . S
H955 C946 0.929 . S
H956 C949 0.930 . S
C957 C958 1.351 . S
C957 N960 1.368 . S
C957 H962 0.931 . S
C958 C957 1.351 . S
C958 N959 1.373 . S
C958 H986 0.930 . S
N959 C958 1.373 . S
N959 C961 1.340 . S
N960 C957 1.368 . S
N960 C961 1.321 . S
N960 Co963 2.135 . S
C961 N959 1.340 . S
C961 N960 1.321 . S
C961 H985 0.930 . S
H962 C957 0.931 . S
Co963 N960 2.135 . S
Co963 N966 2.121 . S
Co963 O971 2.055 . S
Co963 O974 2.039 . S
Co963 N977 2.140 . S
C964 O965 1.227 . S
C964 O974 1.265 . S
O965 C964 1.227 . S
N966 Co963 2.121 . S
N966 C968 1.375 . S
N966 C969 1.313 . S
C967 C968 1.338 . S
C967 N970 1.377 . S
C967 H987 0.930 . S
C968 N966 1.375 . S
C968 C967 1.338 . S
C968 H972 0.931 . S
C969 N966 1.313 . S
C969 N970 1.344 . S
C969 H973 0.930 . S
N970 C967 1.377 . S
N970 C969 1.344 . S
O971 Co963 2.055 . S
O971 C975 1.253 . S
H972 C968 0.931 . S
H973 C969 0.930 . S
O974 Co963 2.039 . S
O974 C964 1.265 . S
C975 O971 1.253 . S
C975 O976 1.227 . S
O976 C975 1.227 . S
N977 Co963 2.140 . S
N977 C980 1.346 . S
N977 C981 1.345 . S
C978 C979 1.387 . S
C978 C982 1.391 . S
C979 C978 1.387 . S
C979 C980 1.369 . S
C979 H988 0.929 . S
C980 N977 1.346 . S
C980 C979 1.369 . S
C980 H983 0.928 . S
C981 N977 1.345 . S
C981 C982 1.371 . S
C981 H984 0.931 . S
C982 C978 1.391 . S
C982 C981 1.371 . S
C982 H989 0.930 . S
H983 C980 0.928 . S
H984 C981 0.931 . S
H985 C961 0.930 . S
H986 C958 0.930 . S
H987 C967 0.930 . S
H988 C979 0.929 . S
H989 C982 0.930 . S
C990 C991 1.351 . S
C990 N993 1.368 . S
C990 H995 0.931 . S
C991 C990 1.351 . S
C991 N992 1.373 . S
C991 H1019 0.930 . S
N992 C991 1.373 . S
N992 C994 1.340 . S
N993 C990 1.368 . S
N993 C994 1.321 . S
N993 Co996 2.135 . S
C994 N992 1.340 . S
C994 N993 1.321 . S
C994 H1018 0.930 . S
H995 C990 0.931 . S
Co996 N993 2.135 . S
Co996 N999 2.121 . S
Co996 O1004 2.055 . S
Co996 O1007 2.039 . S
Co996 N1010 2.140 . S
C997 O998 1.227 . S
C997 O1007 1.265 . S
O998 C997 1.227 . S
N999 Co996 2.121 . S
N999 C1001 1.375 . S
N999 C1002 1.313 . S
C1000 C1001 1.338 . S
C1000 N1003 1.377 . S
C1000 H1020 0.930 . S
C1001 N999 1.375 . S
C1001 C1000 1.338 . S
C1001 H1005 0.931 . S
C1002 N999 1.313 . S
C1002 N1003 1.344 . S
C1002 H1006 0.930 . S
N1003 C1000 1.377 . S
N1003 C1002 1.344 . S
O1004 Co996 2.055 . S
O1004 C1008 1.253 1_556 S
H1005 C1001 0.931 . S
H1006 C1002 0.930 . S
O1007 Co996 2.039 . S
O1007 C997 1.265 . S
C1008 O1004 1.253 1_554 S
C1008 O1009 1.227 . S
O1009 C1008 1.227 . S
N1010 Co996 2.140 . S
N1010 C1013 1.346 . S
N1010 C1014 1.345 . S
C1011 C1012 1.387 . S
C1011 C1015 1.391 . S
C1012 C1011 1.387 . S
C1012 C1013 1.369 . S
C1012 H1021 0.929 . S
C1013 N1010 1.346 . S
C1013 C1012 1.369 . S
C1013 H1016 0.928 . S
C1014 N1010 1.345 . S
C1014 C1015 1.371 . S
C1014 H1017 0.931 . S
C1015 C1011 1.391 . S
C1015 C1014 1.371 . S
C1015 H1022 0.930 . S
H1016 C1013 0.928 . S
H1017 C1014 0.931 . S
H1018 C994 0.930 . S
H1019 C991 0.930 . S
H1020 C1000 0.930 . S
H1021 C1012 0.929 . S
H1022 C1015 0.930 . S
C1023 C1024 1.351 . S
C1023 N1026 1.368 . S
C1023 H1028 0.931 . S
C1024 C1023 1.351 . S
C1024 N1025 1.373 . S
C1024 H1052 0.930 . S
N1025 C1024 1.373 . S
N1025 C1027 1.340 . S
N1026 C1023 1.368 . S
N1026 C1027 1.321 . S
N1026 Co1029 2.135 . S
C1027 N1025 1.340 . S
C1027 N1026 1.321 . S
C1027 H1051 0.930 . S
H1028 C1023 0.931 . S
Co1029 N1026 2.135 . S
Co1029 N1032 2.121 . S
Co1029 O1037 2.055 . S
Co1029 O1040 2.039 . S
Co1029 N1043 2.140 . S
C1030 O1031 1.227 . S
C1030 O1040 1.265 . S
O1031 C1030 1.227 . S
N1032 Co1029 2.121 . S
N1032 C1034 1.375 . S
N1032 C1035 1.313 . S
C1033 C1034 1.338 . S
C1033 N1036 1.377 . S
C1033 H1053 0.930 . S
C1034 N1032 1.375 . S
C1034 C1033 1.338 . S
C1034 H1038 0.931 . S
C1035 N1032 1.313 . S
C1035 N1036 1.344 . S
C1035 H1039 0.930 . S
N1036 C1033 1.377 . S
N1036 C1035 1.344 . S
O1037 Co1029 2.055 . S
O1037 C1041 1.253 . S
H1038 C1034 0.931 . S
H1039 C1035 0.930 . S
O1040 Co1029 2.039 . S
O1040 C1030 1.265 . S
C1041 O1037 1.253 . S
C1041 O1042 1.227 . S
O1042 C1041 1.227 . S
N1043 Co1029 2.140 . S
N1043 C1046 1.346 . S
N1043 C1047 1.345 . S
C1044 C1045 1.387 . S
C1044 C1048 1.391 . S
C1045 C1044 1.387 . S
C1045 C1046 1.369 . S
C1045 H1054 0.929 . S
C1046 N1043 1.346 . S
C1046 C1045 1.369 . S
C1046 H1049 0.928 . S
C1047 N1043 1.345 . S
C1047 C1048 1.371 . S
C1047 H1050 0.931 . S
C1048 C1044 1.391 . S
C1048 C1047 1.371 . S
C1048 H1055 0.930 . S
H1049 C1046 0.928 . S
H1050 C1047 0.931 . S
H1051 C1027 0.930 . S
H1052 C1024 0.930 . S
H1053 C1033 0.930 . S
H1054 C1045 0.929 . S
H1055 C1048 0.930 . S
C1056 C1057 1.369 . S
C1056 C1058 1.419 . S
C1056 H1060 0.930 . S
C1057 C1056 1.369 . S
C1057 C1066 1.429 . S
C1058 C1056 1.419 . S
C1058 C1059 1.363 . S
C1058 H1061 0.929 . S
C1059 C1058 1.363 . S
C1059 C1065 1.428 . S
H1060 C1056 0.930 . S
H1061 C1058 0.929 . S
S1062 N1063 1.613 . S
S1062 N1064 1.610 . S
N1063 S1062 1.613 . S
N1063 C1066 1.350 . S
N1064 S1062 1.610 . S
N1064 C1065 1.351 . S
C1065 C1059 1.428 . S
C1065 N1064 1.351 . S
C1065 C1066 1.434 . S
C1066 C1057 1.429 . S
C1066 N1063 1.350 . S
C1066 C1065 1.434 . S
C1067 C1068 1.369 . S
C1067 C1069 1.419 . S
C1067 H1071 0.930 . S
C1068 C1067 1.369 . S
C1068 C1077 1.429 . S
C1069 C1067 1.419 . S
C1069 C1070 1.363 . S
C1069 H1072 0.929 . S
C1070 C1069 1.363 . S
C1070 C1076 1.428 . S
H1071 C1067 0.930 . S
H1072 C1069 0.929 . S
S1073 N1074 1.613 . S
S1073 N1075 1.610 . S
N1074 S1073 1.613 . S
N1074 C1077 1.350 . S
N1075 S1073 1.610 . S
N1075 C1076 1.351 . S
C1076 C1070 1.428 . S
C1076 N1075 1.351 . S
C1076 C1077 1.434 . S
C1077 C1068 1.429 . S
C1077 N1074 1.350 . S
C1077 C1076 1.434 . S
C1078 C1079 1.369 . S
C1078 C1080 1.419 . S
C1078 H1082 0.930 . S
C1079 C1078 1.369 . S
C1079 C1088 1.429 . S
C1080 C1078 1.419 . S
C1080 C1081 1.363 . S
C1080 H1083 0.929 . S
C1081 C1080 1.363 . S
C1081 C1087 1.428 . S
H1082 C1078 0.930 . S
H1083 C1080 0.929 . S
S1084 N1085 1.613 . S
S1084 N1086 1.610 . S
N1085 S1084 1.613 . S
N1085 C1088 1.350 . S
N1086 S1084 1.610 . S
N1086 C1087 1.351 . S
C1087 C1081 1.428 . S
C1087 N1086 1.351 . S
C1087 C1088 1.434 . S
C1088 C1079 1.429 . S
C1088 N1085 1.350 . S
C1088 C1087 1.434 . S
C1089 C1090 1.369 . S
C1089 C1091 1.419 . S
C1089 H1093 0.930 . S
C1090 C1089 1.369 . S
C1090 C1099 1.429 . S
C1091 C1089 1.419 . S
C1091 C1092 1.363 . S
C1091 H1094 0.929 . S
C1092 C1091 1.363 . S
C1092 C1098 1.428 . S
H1093 C1089 0.930 . S
H1094 C1091 0.929 . S
S1095 N1096 1.613 . S
S1095 N1097 1.610 . S
N1096 S1095 1.613 . S
N1096 C1099 1.350 . S
N1097 S1095 1.610 . S
N1097 C1098 1.351 . S
C1098 C1092 1.428 . S
C1098 N1097 1.351 . S
C1098 C1099 1.434 . S
C1099 C1090 1.429 . S
C1099 N1096 1.350 . S
C1099 C1098 1.434 . S
C1100 C1101 1.369 . S
C1100 C1102 1.419 . S
C1100 H1104 0.930 . S
C1101 C1100 1.369 . S
C1101 C1110 1.429 . S
C1102 C1100 1.419 . S
C1102 C1103 1.363 . S
C1102 H1105 0.929 . S
C1103 C1102 1.363 . S
C1103 C1109 1.428 . S
H1104 C1100 0.930 . S
H1105 C1102 0.929 . S
S1106 N1107 1.613 . S
S1106 N1108 1.610 . S
N1107 S1106 1.613 . S
N1107 C1110 1.350 . S
N1108 S1106 1.610 . S
N1108 C1109 1.351 . S
C1109 C1103 1.428 . S
C1109 N1108 1.351 . S
C1109 C1110 1.434 . S
C1110 C1101 1.429 . S
C1110 N1107 1.350 . S
C1110 C1109 1.434 . S
C1111 C1112 1.369 . S
C1111 C1113 1.419 . S
C1111 H1115 0.930 . S
C1112 C1111 1.369 . S
C1112 C1121 1.429 . S
C1113 C1111 1.419 . S
C1113 C1114 1.363 . S
C1113 H1116 0.929 . S
C1114 C1113 1.363 . S
C1114 C1120 1.428 . S
H1115 C1111 0.930 . S
H1116 C1113 0.929 . S
S1117 N1118 1.613 . S
S1117 N1119 1.610 . S
N1118 S1117 1.613 . S
N1118 C1121 1.350 . S
N1119 S1117 1.610 . S
N1119 C1120 1.351 . S
C1120 C1114 1.428 . S
C1120 N1119 1.351 . S
C1120 C1121 1.434 . S
C1121 C1112 1.429 . S
C1121 N1118 1.350 . S
C1121 C1120 1.434 . S
C1122 C1123 1.369 . S
C1122 C1124 1.419 . S
C1122 H1126 0.930 . S
C1123 C1122 1.369 . S
C1123 C1132 1.429 . S
C1124 C1122 1.419 . S
C1124 C1125 1.363 . S
C1124 H1127 0.929 . S
C1125 C1124 1.363 . S
C1125 C1131 1.428 . S
H1126 C1122 0.930 . S
H1127 C1124 0.929 . S
S1128 N1129 1.613 . S
S1128 N1130 1.610 . S
N1129 S1128 1.613 . S
N1129 C1132 1.350 . S
N1130 S1128 1.610 . S
N1130 C1131 1.351 . S
C1131 C1125 1.428 . S
C1131 N1130 1.351 . S
C1131 C1132 1.434 . S
C1132 C1123 1.429 . S
C1132 N1129 1.350 . S
C1132 C1131 1.434 . S
C1133 C1134 1.369 . S
C1133 C1135 1.419 . S
C1133 H1137 0.930 . S
C1134 C1133 1.369 . S
C1134 C1143 1.429 . S
C1135 C1133 1.419 . S
C1135 C1136 1.363 . S
C1135 H1138 0.929 . S
C1136 C1135 1.363 . S
C1136 C1142 1.428 . S
H1137 C1133 0.930 . S
H1138 C1135 0.929 . S
S1139 N1140 1.613 . S
S1139 N1141 1.610 . S
N1140 S1139 1.613 . S
N1140 C1143 1.350 . S
N1141 S1139 1.610 . S
N1141 C1142 1.351 . S
C1142 C1136 1.428 . S
C1142 N1141 1.351 . S
C1142 C1143 1.434 . S
C1143 C1134 1.429 . S
C1143 N1140 1.350 . S
C1143 C1142 1.434 . S
C1144 C1145 1.369 . S
C1144 C1146 1.419 . S
C1144 H1148 0.930 . S
C1145 C1144 1.369 . S
C1145 C1154 1.429 . S
C1146 C1144 1.419 . S
C1146 C1147 1.363 . S
C1146 H1149 0.929 . S
C1147 C1146 1.363 . S
C1147 C1153 1.428 . S
H1148 C1144 0.930 . S
H1149 C1146 0.929 . S
S1150 N1151 1.613 . S
S1150 N1152 1.610 . S
N1151 S1150 1.613 . S
N1151 C1154 1.350 . S
N1152 S1150 1.610 . S
N1152 C1153 1.351 . S
C1153 C1147 1.428 . S
C1153 N1152 1.351 . S
C1153 C1154 1.434 . S
C1154 C1145 1.429 . S
C1154 N1151 1.350 . S
C1154 C1153 1.434 . S
C1155 C1156 1.369 . S
C1155 C1157 1.419 . S
C1155 H1159 0.930 . S
C1156 C1155 1.369 . S
C1156 C1165 1.429 . S
C1157 C1155 1.419 . S
C1157 C1158 1.363 . S
C1157 H1160 0.929 . S
C1158 C1157 1.363 . S
C1158 C1164 1.428 . S
H1159 C1155 0.930 . S
H1160 C1157 0.929 . S
S1161 N1162 1.613 . S
S1161 N1163 1.610 . S
N1162 S1161 1.613 . S
N1162 C1165 1.350 . S
N1163 S1161 1.610 . S
N1163 C1164 1.351 . S
C1164 C1158 1.428 . S
C1164 N1163 1.351 . S
C1164 C1165 1.434 . S
C1165 C1156 1.429 . S
C1165 N1162 1.350 . S
C1165 C1164 1.434 . S
C1166 C1167 1.369 . S
C1166 C1168 1.419 . S
C1166 H1170 0.930 . S
C1167 C1166 1.369 . S
C1167 C1176 1.429 . S
C1168 C1166 1.419 . S
C1168 C1169 1.363 . S
C1168 H1171 0.929 . S
C1169 C1168 1.363 . S
C1169 C1175 1.428 . S
H1170 C1166 0.930 . S
H1171 C1168 0.929 . S
S1172 N1173 1.613 . S
S1172 N1174 1.610 . S
N1173 S1172 1.613 . S
N1173 C1176 1.350 . S
N1174 S1172 1.610 . S
N1174 C1175 1.351 . S
C1175 C1169 1.428 . S
C1175 N1174 1.351 . S
C1175 C1176 1.434 . S
C1176 C1167 1.429 . S
C1176 N1173 1.350 . S
C1176 C1175 1.434 . S
C1177 C1178 1.369 . S
C1177 C1179 1.419 . S
C1177 H1181 0.930 . S
C1178 C1177 1.369 . S
C1178 C1187 1.429 . S
C1179 C1177 1.419 . S
C1179 C1180 1.363 . S
C1179 H1182 0.929 . S
C1180 C1179 1.363 . S
C1180 C1186 1.428 . S
H1181 C1177 0.930 . S
H1182 C1179 0.929 . S
S1183 N1184 1.613 . S
S1183 N1185 1.610 . S
N1184 S1183 1.613 . S
N1184 C1187 1.350 . S
N1185 S1183 1.610 . S
N1185 C1186 1.351 . S
C1186 C1180 1.428 . S
C1186 N1185 1.351 . S
C1186 C1187 1.434 . S
C1187 C1178 1.429 . S
C1187 N1184 1.350 . S
C1187 C1186 1.434 . S
C1188 C1189 1.369 . S
C1188 C1190 1.419 . S
C1188 H1192 0.930 . S
C1189 C1188 1.369 . S
C1189 C1198 1.429 . S
C1190 C1188 1.419 . S
C1190 C1191 1.363 . S
C1190 H1193 0.929 . S
C1191 C1190 1.363 . S
C1191 C1197 1.428 . S
H1192 C1188 0.930 . S
H1193 C1190 0.929 . S
S1194 N1195 1.613 . S
S1194 N1196 1.610 . S
N1195 S1194 1.613 . S
N1195 C1198 1.350 . S
N1196 S1194 1.610 . S
N1196 C1197 1.351 . S
C1197 C1191 1.428 . S
C1197 N1196 1.351 . S
C1197 C1198 1.434 . S
C1198 C1189 1.429 . S
C1198 N1195 1.350 . S
C1198 C1197 1.434 . S
C1199 C1200 1.369 . S
C1199 C1201 1.419 . S
C1199 H1203 0.930 . S
C1200 C1199 1.369 . S
C1200 C1209 1.429 . S
C1201 C1199 1.419 . S
C1201 C1202 1.363 . S
C1201 H1204 0.929 . S
C1202 C1201 1.363 . S
C1202 C1208 1.428 . S
H1203 C1199 0.930 . S
H1204 C1201 0.929 . S
S1205 N1206 1.613 . S
S1205 N1207 1.610 . S
N1206 S1205 1.613 . S
N1206 C1209 1.350 . S
N1207 S1205 1.610 . S
N1207 C1208 1.351 . S
C1208 C1202 1.428 . S
C1208 N1207 1.351 . S
C1208 C1209 1.434 . S
C1209 C1200 1.429 . S
C1209 N1206 1.350 . S
C1209 C1208 1.434 . S
C1210 C1211 1.369 . S
C1210 C1212 1.419 . S
C1210 H1214 0.930 . S
C1211 C1210 1.369 . S
C1211 C1220 1.429 . S
C1212 C1210 1.419 . S
C1212 C1213 1.363 . S
C1212 H1215 0.929 . S
C1213 C1212 1.363 . S
C1213 C1219 1.428 . S
H1214 C1210 0.930 . S
H1215 C1212 0.929 . S
S1216 N1217 1.613 . S
S1216 N1218 1.610 . S
N1217 S1216 1.613 . S
N1217 C1220 1.350 . S
N1218 S1216 1.610 . S
N1218 C1219 1.351 . S
C1219 C1213 1.428 . S
C1219 N1218 1.351 . S
C1219 C1220 1.434 . S
C1220 C1211 1.429 . S
C1220 N1217 1.350 . S
C1220 C1219 1.434 . S
C1221 C1222 1.369 . S
C1221 C1223 1.419 . S
C1221 H1225 0.930 . S
C1222 C1221 1.369 . S
C1222 C1231 1.429 . S
C1223 C1221 1.419 . S
C1223 C1224 1.363 . S
C1223 H1226 0.929 . S
C1224 C1223 1.363 . S
C1224 C1230 1.428 . S
H1225 C1221 0.930 . S
H1226 C1223 0.929 . S
S1227 N1228 1.613 . S
S1227 N1229 1.610 . S
N1228 S1227 1.613 . S
N1228 C1231 1.350 . S
N1229 S1227 1.610 . S
N1229 C1230 1.351 . S
C1230 C1224 1.428 . S
C1230 N1229 1.351 . S
C1230 C1231 1.434 . S
C1231 C1222 1.429 . S
C1231 N1228 1.350 . S
C1231 C1230 1.434 . S
C1232 C1233 1.369 . S
C1232 C1234 1.419 . S
C1232 H1236 0.930 . S
C1233 C1232 1.369 . S
C1233 C1242 1.429 . S
C1234 C1232 1.419 . S
C1234 C1235 1.363 . S
C1234 H1237 0.929 . S
C1235 C1234 1.363 . S
C1235 C1241 1.428 . S
H1236 C1232 0.930 . S
H1237 C1234 0.929 . S
S1238 N1239 1.613 . S
S1238 N1240 1.610 . S
N1239 S1238 1.613 . S
N1239 C1242 1.350 . S
N1240 S1238 1.610 . S
N1240 C1241 1.351 . S
C1241 C1235 1.428 . S
C1241 N1240 1.351 . S
C1241 C1242 1.434 . S
C1242 C1233 1.429 . S
C1242 N1239 1.350 . S
C1242 C1241 1.434 . S
C1243 C1244 1.369 . S
C1243 C1245 1.419 . S
C1243 H1247 0.930 . S
C1244 C1243 1.369 . S
C1244 C1253 1.429 . S
C1245 C1243 1.419 . S
C1245 C1246 1.363 . S
C1245 H1248 0.929 . S
C1246 C1245 1.363 . S
C1246 C1252 1.428 . S
H1247 C1243 0.930 . S
H1248 C1245 0.929 . S
S1249 N1250 1.613 . S
S1249 N1251 1.610 . S
N1250 S1249 1.613 . S
N1250 C1253 1.350 . S
N1251 S1249 1.610 . S
N1251 C1252 1.351 . S
C1252 C1246 1.428 . S
C1252 N1251 1.351 . S
C1252 C1253 1.434 . S
C1253 C1244 1.429 . S
C1253 N1250 1.350 . S
C1253 C1252 1.434 . S
C1254 C1255 1.369 . S
C1254 C1256 1.419 . S
C1254 H1258 0.930 . S
C1255 C1254 1.369 . S
C1255 C1264 1.429 . S
C1256 C1254 1.419 . S
C1256 C1257 1.363 . S
C1256 H1259 0.929 . S
C1257 C1256 1.363 . S
C1257 C1263 1.428 . S
H1258 C1254 0.930 . S
H1259 C1256 0.929 . S
S1260 N1261 1.613 . S
S1260 N1262 1.610 . S
N1261 S1260 1.613 . S
N1261 C1264 1.350 . S
N1262 S1260 1.610 . S
N1262 C1263 1.351 . S
C1263 C1257 1.428 . S
C1263 N1262 1.351 . S
C1263 C1264 1.434 . S
C1264 C1255 1.429 . S
C1264 N1261 1.350 . S
C1264 C1263 1.434 . S
C1265 C1266 1.369 . S
C1265 C1267 1.419 . S
C1265 H1269 0.930 . S
C1266 C1265 1.369 . S
C1266 C1275 1.429 . S
C1267 C1265 1.419 . S
C1267 C1268 1.363 . S
C1267 H1270 0.929 . S
C1268 C1267 1.363 . S
C1268 C1274 1.428 . S
H1269 C1265 0.930 . S
H1270 C1267 0.929 . S
S1271 N1272 1.613 . S
S1271 N1273 1.610 . S
N1272 S1271 1.613 . S
N1272 C1275 1.350 . S
N1273 S1271 1.610 . S
N1273 C1274 1.351 . S
C1274 C1268 1.428 . S
C1274 N1273 1.351 . S
C1274 C1275 1.434 . S
C1275 C1266 1.429 . S
C1275 N1272 1.350 . S
C1275 C1274 1.434 . S
C1276 C1277 1.369 . S
C1276 C1278 1.419 . S
C1276 H1280 0.930 . S
C1277 C1276 1.369 . S
C1277 C1286 1.429 . S
C1278 C1276 1.419 . S
C1278 C1279 1.363 . S
C1278 H1281 0.929 . S
C1279 C1278 1.363 . S
C1279 C1285 1.428 . S
H1280 C1276 0.930 . S
H1281 C1278 0.929 . S
S1282 N1283 1.613 . S
S1282 N1284 1.610 . S
N1283 S1282 1.613 . S
N1283 C1286 1.350 . S
N1284 S1282 1.610 . S
N1284 C1285 1.351 . S
C1285 C1279 1.428 . S
C1285 N1284 1.351 . S
C1285 C1286 1.434 . S
C1286 C1277 1.429 . S
C1286 N1283 1.350 . S
C1286 C1285 1.434 . S
C1287 C1288 1.369 . S
C1287 C1289 1.419 . S
C1287 H1291 0.930 . S
C1288 C1287 1.369 . S
C1288 C1297 1.429 . S
C1289 C1287 1.419 . S
C1289 C1290 1.363 . S
C1289 H1292 0.929 . S
C1290 C1289 1.363 . S
C1290 C1296 1.428 . S
H1291 C1287 0.930 . S
H1292 C1289 0.929 . S
S1293 N1294 1.613 . S
S1293 N1295 1.610 . S
N1294 S1293 1.613 . S
N1294 C1297 1.350 . S
N1295 S1293 1.610 . S
N1295 C1296 1.351 . S
C1296 C1290 1.428 . S
C1296 N1295 1.351 . S
C1296 C1297 1.434 . S
C1297 C1288 1.429 . S
C1297 N1294 1.350 . S
C1297 C1296 1.434 . S
C1298 C1299 1.369 . S
C1298 C1300 1.419 . S
C1298 H1302 0.930 . S
C1299 C1298 1.369 . S
C1299 C1308 1.429 . S
C1300 C1298 1.419 . S
C1300 C1301 1.363 . S
C1300 H1303 0.929 . S
C1301 C1300 1.363 . S
C1301 C1307 1.428 . S
H1302 C1298 0.930 . S
H1303 C1300 0.929 . S
S1304 N1305 1.613 . S
S1304 N1306 1.610 . S
N1305 S1304 1.613 . S
N1305 C1308 1.350 . S
N1306 S1304 1.610 . S
N1306 C1307 1.351 . S
C1307 C1301 1.428 . S
C1307 N1306 1.351 . S
C1307 C1308 1.434 . S
C1308 C1299 1.429 . S
C1308 N1305 1.350 . S
C1308 C1307 1.434 . S
C1309 C1310 1.369 . S
C1309 C1311 1.419 . S
C1309 H1313 0.930 . S
C1310 C1309 1.369 . S
C1310 C1319 1.429 . S
C1311 C1309 1.419 . S
C1311 C1312 1.363 . S
C1311 H1314 0.929 . S
C1312 C1311 1.363 . S
C1312 C1318 1.428 . S
H1313 C1309 0.930 . S
H1314 C1311 0.929 . S
S1315 N1316 1.613 . S
S1315 N1317 1.610 . S
N1316 S1315 1.613 . S
N1316 C1319 1.350 . S
N1317 S1315 1.610 . S
N1317 C1318 1.351 . S
C1318 C1312 1.428 . S
C1318 N1317 1.351 . S
C1318 C1319 1.434 . S
C1319 C1310 1.429 . S
C1319 N1316 1.350 . S
C1319 C1318 1.434 . S
C1320 C1321 1.369 . S
C1320 C1322 1.419 . S
C1320 H1324 0.930 . S
C1321 C1320 1.369 . S
C1321 C1330 1.429 . S
C1322 C1320 1.419 . S
C1322 C1323 1.363 . S
C1322 H1325 0.929 . S
C1323 C1322 1.363 . S
C1323 C1329 1.428 . S
H1324 C1320 0.930 . S
H1325 C1322 0.929 . S
S1326 N1327 1.613 . S
S1326 N1328 1.610 . S
N1327 S1326 1.613 . S
N1327 C1330 1.350 . S
N1328 S1326 1.610 . S
N1328 C1329 1.351 . S
C1329 C1323 1.428 . S
C1329 N1328 1.351 . S
C1329 C1330 1.434 . S
C1330 C1321 1.429 . S
C1330 N1327 1.350 . S
C1330 C1329 1.434 . S
C1331 C1332 1.369 . S
C1331 C1333 1.419 . S
C1331 H1335 0.930 . S
C1332 C1331 1.369 . S
C1332 C1341 1.429 . S
C1333 C1331 1.419 . S
C1333 C1334 1.363 . S
C1333 H1336 0.929 . S
C1334 C1333 1.363 . S
C1334 C1340 1.428 . S
H1335 C1331 0.930 . S
H1336 C1333 0.929 . S
S1337 N1338 1.613 . S
S1337 N1339 1.610 . S
N1338 S1337 1.613 . S
N1338 C1341 1.350 . S
N1339 S1337 1.610 . S
N1339 C1340 1.351 . S
C1340 C1334 1.428 . S
C1340 N1339 1.351 . S
C1340 C1341 1.434 . S
C1341 C1332 1.429 . S
C1341 N1338 1.350 . S
C1341 C1340 1.434 . S
C1342 C1343 1.369 . S
C1342 C1344 1.419 . S
C1342 H1346 0.930 . S
C1343 C1342 1.369 . S
C1343 C1352 1.429 . S
C1344 C1342 1.419 . S
C1344 C1345 1.363 . S
C1344 H1347 0.929 . S
C1345 C1344 1.363 . S
C1345 C1351 1.428 . S
H1346 C1342 0.930 . S
H1347 C1344 0.929 . S
S1348 N1349 1.613 . S
S1348 N1350 1.610 . S
N1349 S1348 1.613 . S
N1349 C1352 1.350 . S
N1350 S1348 1.610 . S
N1350 C1351 1.351 . S
C1351 C1345 1.428 . S
C1351 N1350 1.351 . S
C1351 C1352 1.434 . S
C1352 C1343 1.429 . S
C1352 N1349 1.350 . S
C1352 C1351 1.434 . S
C1353 C1354 1.369 . S
C1353 C1355 1.419 . S
C1353 H1357 0.930 . S
C1354 C1353 1.369 . S
C1354 C1363 1.429 . S
C1355 C1353 1.419 . S
C1355 C1356 1.363 . S
C1355 H1358 0.929 . S
C1356 C1355 1.363 . S
C1356 C1362 1.428 . S
H1357 C1353 0.930 . S
H1358 C1355 0.929 . S
S1359 N1360 1.613 . S
S1359 N1361 1.610 . S
N1360 S1359 1.613 . S
N1360 C1363 1.350 . S
N1361 S1359 1.610 . S
N1361 C1362 1.351 . S
C1362 C1356 1.428 . S
C1362 N1361 1.351 . S
C1362 C1363 1.434 . S
C1363 C1354 1.429 . S
C1363 N1360 1.350 . S
C1363 C1362 1.434 . S
C1364 C1365 1.369 . S
C1364 C1366 1.419 . S
C1364 H1368 0.930 . S
C1365 C1364 1.369 . S
C1365 C1374 1.429 . S
C1366 C1364 1.419 . S
C1366 C1367 1.363 . S
C1366 H1369 0.929 . S
C1367 C1366 1.363 . S
C1367 C1373 1.428 . S
H1368 C1364 0.930 . S
H1369 C1366 0.929 . S
S1370 N1371 1.613 . S
S1370 N1372 1.610 . S
N1371 S1370 1.613 . S
N1371 C1374 1.350 . S
N1372 S1370 1.610 . S
N1372 C1373 1.351 . S
C1373 C1367 1.428 . S
C1373 N1372 1.351 . S
C1373 C1374 1.434 . S
C1374 C1365 1.429 . S
C1374 N1371 1.350 . S
C1374 C1373 1.434 . S
C1375 C1376 1.369 . S
C1375 C1377 1.419 . S
C1375 H1379 0.930 . S
C1376 C1375 1.369 . S
C1376 C1385 1.429 . S
C1377 C1375 1.419 . S
C1377 C1378 1.363 . S
C1377 H1380 0.929 . S
C1378 C1377 1.363 . S
C1378 C1384 1.428 . S
H1379 C1375 0.930 . S
H1380 C1377 0.929 . S
S1381 N1382 1.613 . S
S1381 N1383 1.610 . S
N1382 S1381 1.613 . S
N1382 C1385 1.350 . S
N1383 S1381 1.610 . S
N1383 C1384 1.351 . S
C1384 C1378 1.428 . S
C1384 N1383 1.351 . S
C1384 C1385 1.434 . S
C1385 C1376 1.429 . S
C1385 N1382 1.350 . S
C1385 C1384 1.434 . S
C1386 C1387 1.369 . S
C1386 C1388 1.419 . S
C1386 H1390 0.930 . S
C1387 C1386 1.369 . S
C1387 C1396 1.429 . S
C1388 C1386 1.419 . S
C1388 C1389 1.363 . S
C1388 H1391 0.929 . S
C1389 C1388 1.363 . S
C1389 C1395 1.428 . S
H1390 C1386 0.930 . S
H1391 C1388 0.929 . S
S1392 N1393 1.613 . S
S1392 N1394 1.610 . S
N1393 S1392 1.613 . S
N1393 C1396 1.350 . S
N1394 S1392 1.610 . S
N1394 C1395 1.351 . S
C1395 C1389 1.428 . S
C1395 N1394 1.351 . S
C1395 C1396 1.434 . S
C1396 C1387 1.429 . S
C1396 N1393 1.350 . S
C1396 C1395 1.434 . S
C1397 C1398 1.369 . S
C1397 C1399 1.419 . S
C1397 H1401 0.930 . S
C1398 C1397 1.369 . S
C1398 C1407 1.429 . S
C1399 C1397 1.419 . S
C1399 C1400 1.363 . S
C1399 H1402 0.929 . S
C1400 C1399 1.363 . S
C1400 C1406 1.428 . S
H1401 C1397 0.930 . S
H1402 C1399 0.929 . S
S1403 N1404 1.613 . S
S1403 N1405 1.610 . S
N1404 S1403 1.613 . S
N1404 C1407 1.350 . S
N1405 S1403 1.610 . S
N1405 C1406 1.351 . S
C1406 C1400 1.428 . S
C1406 N1405 1.351 . S
C1406 C1407 1.434 . S
C1407 C1398 1.429 . S
C1407 N1404 1.350 . S
C1407 C1406 1.434 . S
C1408 C1409 1.369 . S
C1408 C1410 1.419 . S
C1408 H1412 0.930 . S
C1409 C1408 1.369 . S
C1409 C1418 1.429 . S
C1410 C1408 1.419 . S
C1410 C1411 1.363 . S
C1410 H1413 0.929 . S
C1411 C1410 1.363 . S
C1411 C1417 1.428 . S
H1412 C1408 0.930 . S
H1413 C1410 0.929 . S
S1414 N1415 1.613 . S
S1414 N1416 1.610 . S
N1415 S1414 1.613 . S
N1415 C1418 1.350 . S
N1416 S1414 1.610 . S
N1416 C1417 1.351 . S
C1417 C1411 1.428 . S
C1417 N1416 1.351 . S
C1417 C1418 1.434 . S
C1418 C1409 1.429 . S
C1418 N1415 1.350 . S
C1418 C1417 1.434 . S
C1419 C1420 1.369 . S
C1419 C1421 1.419 1_565 S
C1419 H1423 0.930 . S
C1420 C1419 1.369 . S
C1420 C1429 1.429 . S
C1421 C1419 1.419 1_545 S
C1421 C1422 1.363 . S
C1421 H1424 0.929 . S
C1422 C1421 1.363 . S
C1422 C1428 1.428 . S
H1423 C1419 0.930 . S
H1424 C1421 0.929 . S
S1425 N1426 1.613 1_545 S
S1425 N1427 1.610 . S
N1426 S1425 1.613 1_565 S
N1426 C1429 1.350 . S
N1427 S1425 1.610 . S
N1427 C1428 1.351 . S
C1428 C1422 1.428 . S
C1428 N1427 1.351 . S
C1428 C1429 1.434 1_545 S
C1429 C1420 1.429 . S
C1429 N1426 1.350 . S
C1429 C1428 1.434 1_565 S
C1430 C1431 1.369 . S
C1430 C1432 1.419 . S
C1430 H1434 0.930 . S
C1431 C1430 1.369 . S
C1431 C1440 1.429 1_554 S
C1432 C1430 1.419 . S
C1432 C1433 1.363 1_554 S
C1432 H1435 0.929 . S
C1433 C1432 1.363 1_556 S
C1433 C1439 1.428 . S
H1434 C1430 0.930 . S
H1435 C1432 0.929 . S
S1436 N1437 1.613 . S
S1436 N1438 1.610 . S
N1437 S1436 1.613 . S
N1437 C1440 1.350 . S
N1438 S1436 1.610 . S
N1438 C1439 1.351 . S
C1439 C1433 1.428 . S
C1439 N1438 1.351 . S
C1439 C1440 1.434 . S
C1440 C1431 1.429 1_556 S
C1440 N1437 1.350 . S
C1440 C1439 1.434 . S
C1441 C1442 1.369 . S
C1441 C1443 1.411 1_565 S
C1441 H1445 0.930 . S
C1442 C1441 1.369 . S
C1442 C1451 1.394 1_565 S
C1443 C1441 1.411 1_545 S
C1443 C1444 1.372 . S
C1443 H1446 0.928 1_545 S
C1444 C1443 1.372 . S
C1444 C1450 1.428 . S
H1445 C1441 0.930 . S
H1446 C1443 0.928 1_565 S
S1447 N1448 1.613 . S
S1447 N1449 1.610 . S
N1448 S1447 1.613 . S
N1448 C1451 1.357 . S
N1449 S1447 1.610 . S
N1449 C1450 1.351 . S
C1450 C1444 1.428 . S
C1450 N1449 1.351 . S
C1450 C1451 1.467 . S
C1451 C1442 1.394 1_545 S
C1451 N1448 1.357 . S
C1451 C1450 1.467 . S
C1452 C1453 1.369 . S
C1452 C1454 1.419 . S
C1452 H1456 0.930 . S
C1453 C1452 1.369 . S
C1453 C1462 1.429 . S
C1454 C1452 1.419 . S
C1454 C1455 1.363 . S
C1454 H1457 0.929 . S
C1455 C1454 1.363 . S
C1455 C1461 1.428 . S
H1456 C1452 0.930 . S
H1457 C1454 0.929 . S
S1458 N1459 1.613 . S
S1458 N1460 1.610 . S
N1459 S1458 1.613 . S
N1459 C1462 1.350 . S
N1460 S1458 1.610 . S
N1460 C1461 1.351 . S
C1461 C1455 1.428 . S
C1461 N1460 1.351 . S
C1461 C1462 1.434 . S
C1462 C1453 1.429 . S
C1462 N1459 1.350 . S
C1462 C1461 1.434 . S
C1463 C1464 1.369 . S
C1463 C1465 1.419 1_565 S
C1463 H1467 0.930 . S
C1464 C1463 1.369 . S
C1464 C1473 1.429 . S
C1465 C1463 1.419 1_545 S
C1465 C1466 1.363 . S
C1465 H1468 0.929 . S
C1466 C1465 1.363 . S
C1466 C1472 1.428 . S
H1467 C1463 0.930 . S
H1468 C1465 0.929 . S
S1469 N1470 1.613 1_545 S
S1469 N1471 1.610 . S
N1470 S1469 1.613 1_565 S
N1470 C1473 1.350 . S
N1471 S1469 1.610 . S
N1471 C1472 1.351 . S
C1472 C1466 1.428 . S
C1472 N1471 1.351 . S
C1472 C1473 1.434 1_545 S
C1473 C1464 1.429 . S
C1473 N1470 1.350 . S
C1473 C1472 1.434 1_565 S
C1474 C1475 1.369 . S
C1474 C1476 1.419 1_556 S
C1474 H1478 0.930 . S
C1475 C1474 1.369 . S
C1475 C1484 1.429 . S
C1476 C1474 1.419 1_554 S
C1476 C1477 1.363 . S
C1476 H1479 0.929 . S
C1477 C1476 1.363 . S
C1477 C1483 1.428 . S
H1478 C1474 0.930 . S
H1479 C1476 0.929 . S
S1480 N1481 1.613 . S
S1480 N1482 1.610 1_556 S
N1481 S1480 1.613 . S
N1481 C1484 1.350 . S
N1482 S1480 1.610 1_554 S
N1482 C1483 1.351 . S
C1483 C1477 1.428 . S
C1483 N1482 1.351 . S
C1483 C1484 1.434 1_554 S
C1484 C1475 1.429 . S
C1484 N1481 1.350 . S
C1484 C1483 1.434 1_556 S
C1485 C1486 1.369 . S
C1485 C1487 1.419 1_545 S
C1485 H1489 0.930 . S
C1486 C1485 1.369 . S
C1486 C1495 1.429 . S
C1487 C1485 1.419 1_565 S
C1487 C1488 1.363 . S
C1487 H1490 0.929 . S
C1488 C1487 1.363 . S
C1488 C1494 1.428 . S
H1489 C1485 0.930 . S
H1490 C1487 0.929 . S
S1491 N1492 1.613 . S
S1491 N1493 1.644 . S
N1492 S1491 1.613 . S
N1492 C1495 1.350 . S
N1493 S1491 1.644 . S
N1493 C1494 1.348 1_545 S
C1494 C1488 1.428 . S
C1494 N1493 1.348 1_565 S
C1494 C1495 1.434 1_565 S
C1495 C1486 1.429 . S
C1495 N1492 1.350 . S
C1495 C1494 1.434 1_545 S
C1496 C1497 1.369 . S
C1496 C1498 1.419 1_556 S
C1496 H1500 0.930 . S
C1497 C1496 1.369 . S
C1497 C1506 1.429 1_556 S
C1498 C1496 1.419 1_554 S
C1498 C1499 1.363 . S
C1498 H1501 0.929 . S
C1499 C1498 1.363 . S
C1499 C1505 1.428 . S
H1500 C1496 0.930 . S
H1501 C1498 0.929 . S
S1502 N1503 1.613 . S
S1502 N1504 1.610 . S
N1503 S1502 1.613 . S
N1503 C1506 1.350 . S
N1504 S1502 1.610 . S
N1504 C1505 1.351 . S
C1505 C1499 1.428 . S
C1505 N1504 1.351 . S
C1505 C1506 1.434 . S
C1506 C1497 1.429 1_554 S
C1506 N1503 1.350 . S
C1506 C1505 1.434 . S
C1507 C1508 1.369 . S
C1507 C1509 1.419 . S
C1507 H1511 0.930 . S
C1508 C1507 1.369 . S
C1508 C1517 1.429 . S
C1509 C1507 1.419 . S
C1509 C1510 1.363 . S
C1509 H1512 0.929 . S
C1510 C1509 1.363 . S
C1510 C1516 1.428 . S
H1511 C1507 0.930 . S
H1512 C1509 0.929 . S
S1513 N1514 1.613 . S
S1513 N1515 1.610 . S
N1514 S1513 1.613 . S
N1514 C1517 1.350 . S
N1515 S1513 1.610 . S
N1515 C1516 1.351 . S
C1516 C1510 1.428 . S
C1516 N1515 1.351 . S
C1516 C1517 1.434 . S
C1517 C1508 1.429 . S
C1517 N1514 1.350 . S
C1517 C1516 1.434 . S
C1518 C1519 1.369 . S
C1518 C1520 1.419 . S
C1518 H1522 0.930 . S
C1519 C1518 1.369 . S
C1519 C1528 1.429 . S
C1520 C1518 1.419 . S
C1520 C1521 1.363 . S
C1520 H1523 0.929 . S
C1521 C1520 1.363 . S
C1521 C1527 1.428 . S
H1522 C1518 0.930 . S
H1523 C1520 0.929 . S
S1524 N1525 1.613 . S
S1524 N1526 1.610 . S
N1525 S1524 1.613 . S
N1525 C1528 1.350 . S
N1526 S1524 1.610 . S
N1526 C1527 1.351 . S
C1527 C1521 1.428 . S
C1527 N1526 1.351 . S
C1527 C1528 1.434 . S
C1528 C1519 1.429 . S
C1528 N1525 1.350 . S
C1528 C1527 1.434 . S
C1529 C1530 1.369 . S
C1529 C1531 1.419 . S
C1529 H1533 0.930 . S
C1530 C1529 1.369 . S
C1530 C1539 1.429 . S
C1531 C1529 1.419 . S
C1531 C1532 1.363 . S
C1531 H1534 0.929 . S
C1532 C1531 1.363 . S
C1532 C1538 1.428 . S
H1533 C1529 0.930 . S
H1534 C1531 0.929 . S
S1535 N1536 1.613 . S
S1535 N1537 1.610 . S
N1536 S1535 1.613 . S
N1536 C1539 1.350 . S
N1537 S1535 1.610 . S
N1537 C1538 1.351 . S
C1538 C1532 1.428 . S
C1538 N1537 1.351 . S
C1538 C1539 1.434 . S
C1539 C1530 1.429 . S
C1539 N1536 1.350 . S
C1539 C1538 1.434 . S
C1540 C1541 1.369 . S
C1540 C1542 1.419 . S
C1540 H1544 0.930 . S
C1541 C1540 1.369 . S
C1541 C1550 1.429 1_556 S
C1542 C1540 1.419 . S
C1542 C1543 1.363 1_556 S
C1542 H1545 0.929 . S
C1543 C1542 1.363 1_554 S
C1543 C1549 1.428 . S
H1544 C1540 0.930 . S
H1545 C1542 0.929 . S
S1546 N1547 1.613 . S
S1546 N1548 1.610 . S
N1547 S1546 1.613 . S
N1547 C1550 1.350 . S
N1548 S1546 1.610 . S
N1548 C1549 1.351 . S
C1549 C1543 1.428 . S
C1549 N1548 1.351 . S
C1549 C1550 1.434 . S
C1550 C1541 1.429 1_554 S
C1550 N1547 1.350 . S
C1550 C1549 1.434 . S
C1551 C1552 1.369 . S
C1551 C1553 1.419 . S
C1551 H1555 0.930 . S
C1552 C1551 1.369 . S
C1552 C1561 1.429 . S
C1553 C1551 1.419 . S
C1553 C1554 1.363 . S
C1553 H1556 0.929 . S
C1554 C1553 1.363 . S
C1554 C1560 1.428 . S
H1555 C1551 0.930 . S
H1556 C1553 0.929 . S
S1557 N1558 1.613 . S
S1557 N1559 1.610 . S
N1558 S1557 1.613 . S
N1558 C1561 1.350 . S
N1559 S1557 1.610 . S
N1559 C1560 1.351 . S
C1560 C1554 1.428 . S
C1560 N1559 1.351 . S
C1560 C1561 1.434 . S
C1561 C1552 1.429 . S
C1561 N1558 1.350 . S
C1561 C1560 1.434 . S
C1562 C1563 1.369 . S
C1562 C1564 1.419 . S
C1562 H1566 0.930 . S
C1563 C1562 1.369 . S
C1563 C1572 1.429 . S
C1564 C1562 1.419 . S
C1564 C1565 1.363 . S
C1564 H1567 0.929 . S
C1565 C1564 1.363 . S
C1565 C1571 1.428 . S
H1566 C1562 0.930 . S
H1567 C1564 0.929 . S
S1568 N1569 1.613 . S
S1568 N1570 1.610 . S
N1569 S1568 1.613 . S
N1569 C1572 1.350 . S
N1570 S1568 1.610 . S
N1570 C1571 1.351 . S
C1571 C1565 1.428 . S
C1571 N1570 1.351 . S
C1571 C1572 1.434 . S
C1572 C1563 1.429 . S
C1572 N1569 1.350 . S
C1572 C1571 1.434 . S
C1573 C1574 1.369 . S
C1573 C1575 1.419 . S
C1573 H1577 0.930 . S
C1574 C1573 1.369 . S
C1574 C1583 1.429 . S
C1575 C1573 1.419 . S
C1575 C1576 1.363 . S
C1575 H1578 0.929 . S
C1576 C1575 1.363 . S
C1576 C1582 1.428 . S
H1577 C1573 0.930 . S
H1578 C1575 0.929 . S
S1579 N1580 1.613 . S
S1579 N1581 1.610 . S
N1580 S1579 1.613 . S
N1580 C1583 1.350 . S
N1581 S1579 1.610 . S
N1581 C1582 1.351 . S
C1582 C1576 1.428 . S
C1582 N1581 1.351 . S
C1582 C1583 1.434 . S
C1583 C1574 1.429 . S
C1583 N1580 1.350 . S
C1583 C1582 1.434 . S
C1584 C1585 1.369 . S
C1584 C1586 1.419 . S
C1584 H1588 0.930 . S
C1585 C1584 1.369 . S
C1585 C1594 1.429 . S
C1586 C1584 1.419 . S
C1586 C1587 1.363 . S
C1586 H1589 0.929 . S
C1587 C1586 1.363 . S
C1587 C1593 1.428 . S
H1588 C1584 0.930 . S
H1589 C1586 0.929 . S
S1590 N1591 1.613 . S
S1590 N1592 1.610 . S
N1591 S1590 1.613 . S
N1591 C1594 1.350 . S
N1592 S1590 1.610 . S
N1592 C1593 1.351 . S
C1593 C1587 1.428 . S
C1593 N1592 1.351 . S
C1593 C1594 1.434 . S
C1594 C1585 1.429 . S
C1594 N1591 1.350 . S
C1594 C1593 1.434 . S
C1595 C1596 1.369 . S
C1595 C1597 1.419 . S
C1595 H1599 0.930 . S
C1596 C1595 1.369 . S
C1596 C1605 1.429 . S
C1597 C1595 1.419 . S
C1597 C1598 1.363 1_655 S
C1597 H1600 0.929 . S
C1598 C1597 1.363 1_455 S
C1598 C1604 1.428 . S
H1599 C1595 0.930 . S
H1600 C1597 0.929 . S
S1601 N1602 1.613 . S
S1601 N1603 1.610 1_655 S
N1602 S1601 1.613 . S
N1602 C1605 1.350 . S
N1603 S1601 1.610 1_455 S
N1603 C1604 1.350 . S
C1604 C1598 1.428 . S
C1604 N1603 1.350 . S
C1604 C1605 1.436 1_455 S
C1605 C1596 1.429 . S
C1605 N1602 1.350 . S
C1605 C1604 1.436 1_655 S
C1606 C1607 1.369 . S
C1606 C1608 1.419 . S
C1606 H1610 0.930 . S
C1607 C1606 1.369 . S
C1607 C1616 1.429 . S
C1608 C1606 1.419 . S
C1608 C1609 1.363 . S
C1608 H1611 0.929 . S
C1609 C1608 1.363 . S
C1609 C1615 1.428 . S
H1610 C1606 0.930 . S
H1611 C1608 0.929 . S
S1612 N1613 1.613 . S
S1612 N1614 1.610 . S
N1613 S1612 1.613 . S
N1613 C1616 1.350 . S
N1614 S1612 1.610 . S
N1614 C1615 1.351 . S
C1615 C1609 1.428 . S
C1615 N1614 1.351 . S
C1615 C1616 1.434 . S
C1616 C1607 1.429 . S
C1616 N1613 1.350 . S
C1616 C1615 1.434 . S
C1617 C1618 1.369 . S
C1617 C1619 1.419 . S
C1617 H1621 0.930 . S
C1618 C1617 1.369 . S
C1618 C1627 1.429 . S
C1619 C1617 1.419 . S
C1619 C1620 1.363 . S
C1619 H1622 0.929 . S
C1620 C1619 1.363 . S
C1620 C1626 1.428 . S
H1621 C1617 0.930 . S
H1622 C1619 0.929 . S
S1623 N1624 1.613 . S
S1623 N1625 1.610 . S
N1624 S1623 1.613 . S
N1624 C1627 1.350 . S
N1625 S1623 1.610 . S
N1625 C1626 1.351 . S
C1626 C1620 1.428 . S
C1626 N1625 1.351 . S
C1626 C1627 1.434 . S
C1627 C1618 1.429 . S
C1627 N1624 1.350 . S
C1627 C1626 1.434 . S
C1628 C1629 1.369 . S
C1628 C1630 1.419 . S
C1628 H1632 0.930 . S
C1629 C1628 1.369 . S
C1629 C1638 1.429 . S
C1630 C1628 1.419 . S
C1630 C1631 1.363 . S
C1630 H1633 0.929 . S
C1631 C1630 1.363 . S
C1631 C1637 1.428 . S
H1632 C1628 0.930 . S
H1633 C1630 0.929 . S
S1634 N1635 1.613 . S
S1634 N1636 1.610 . S
N1635 S1634 1.613 . S
N1635 C1638 1.350 . S
N1636 S1634 1.610 . S
N1636 C1637 1.351 . S
C1637 C1631 1.428 . S
C1637 N1636 1.351 . S
C1637 C1638 1.434 . S
C1638 C1629 1.429 . S
C1638 N1635 1.350 . S
C1638 C1637 1.434 . S
C1639 C1640 1.369 . S
C1639 C1641 1.419 . S
C1639 H1643 0.930 . S
C1640 C1639 1.369 . S
C1640 C1649 1.429 . S
C1641 C1639 1.419 . S
C1641 C1642 1.363 . S
C1641 H1644 0.929 . S
C1642 C1641 1.363 . S
C1642 C1648 1.428 . S
H1643 C1639 0.930 . S
H1644 C1641 0.929 . S
S1645 N1646 1.613 . S
S1645 N1647 1.610 . S
N1646 S1645 1.613 . S
N1646 C1649 1.350 . S
N1647 S1645 1.610 . S
N1647 C1648 1.351 . S
C1648 C1642 1.428 . S
C1648 N1647 1.351 . S
C1648 C1649 1.434 . S
C1649 C1640 1.429 . S
C1649 N1646 1.350 . S
C1649 C1648 1.434 . S
C1650 C1651 1.369 . S
C1650 C1652 1.419 . S
C1650 H1654 0.930 . S
C1651 C1650 1.369 . S
C1651 C1660 1.429 . S
C1652 C1650 1.419 . S
C1652 C1653 1.363 . S
C1652 H1655 0.929 . S
C1653 C1652 1.363 . S
C1653 C1659 1.428 . S
H1654 C1650 0.930 . S
H1655 C1652 0.929 . S
S1656 N1657 1.613 . S
S1656 N1658 1.610 . S
N1657 S1656 1.613 . S
N1657 C1660 1.350 . S
N1658 S1656 1.610 . S
N1658 C1659 1.351 . S
C1659 C1653 1.428 . S
C1659 N1658 1.351 . S
C1659 C1660 1.434 . S
C1660 C1651 1.429 . S
C1660 N1657 1.350 . S
C1660 C1659 1.434 . S
C1661 C1662 1.369 . S
C1661 C1663 1.419 . S
C1661 H1665 0.930 . S
C1662 C1661 1.369 . S
C1662 C1671 1.429 . S
C1663 C1661 1.419 . S
C1663 C1664 1.363 1_655 S
C1663 H1666 0.925 1_655 S
C1664 C1663 1.363 1_455 S
C1664 C1670 1.428 1_455 S
H1665 C1661 0.930 . S
H1666 C1663 0.925 1_455 S
S1667 N1668 1.613 . S
S1667 N1669 1.610 1_655 S
N1668 S1667 1.613 . S
N1668 C1671 1.350 . S
N1669 S1667 1.610 1_455 S
N1669 C1670 1.351 1_455 S
C1670 C1664 1.428 1_655 S
C1670 N1669 1.351 1_655 S
C1670 C1671 1.434 . S
C1671 C1662 1.429 . S
C1671 N1668 1.350 . S
C1671 C1670 1.434 . S
C1672 C1673 1.369 . S
C1672 C1674 1.419 . S
C1672 H1676 0.930 . S
C1673 C1672 1.369 . S
C1673 C1682 1.429 . S
C1674 C1672 1.419 . S
C1674 C1675 1.363 . S
C1674 H1677 0.929 . S
C1675 C1674 1.363 . S
C1675 C1681 1.428 . S
H1676 C1672 0.930 . S
H1677 C1674 0.929 . S
S1678 N1679 1.613 . S
S1678 N1680 1.610 . S
N1679 S1678 1.613 . S
N1679 C1682 1.350 . S
N1680 S1678 1.610 . S
N1680 C1681 1.351 . S
C1681 C1675 1.428 . S
C1681 N1680 1.351 . S
C1681 C1682 1.434 . S
C1682 C1673 1.429 . S
C1682 N1679 1.350 . S
C1682 C1681 1.434 . S
C1683 C1684 1.362 1_455 S
C1683 C1685 1.437 . S
C1683 H1687 0.918 1_455 S
C1684 C1683 1.362 1_655 S
C1684 C1693 1.429 1_655 S
C1685 C1683 1.437 . S
C1685 C1686 1.363 . S
C1685 H1688 0.929 . S
C1686 C1685 1.363 . S
C1686 C1692 1.428 . S
H1687 C1683 0.918 1_655 S
H1688 C1685 0.929 . S
S1689 N1690 1.613 . S
S1689 N1691 1.610 . S
N1690 S1689 1.613 . S
N1690 C1693 1.350 . S
N1691 S1689 1.610 . S
N1691 C1692 1.351 . S
C1692 C1686 1.428 . S
C1692 N1691 1.351 . S
C1692 C1693 1.434 . S
C1693 C1684 1.429 1_455 S
C1693 N1690 1.350 . S
C1693 C1692 1.434 . S
C1694 C1695 1.369 . S
C1694 C1696 1.419 . S
C1694 H1698 0.930 . S
C1695 C1694 1.369 . S
C1695 C1704 1.429 . S
C1696 C1694 1.419 . S
C1696 C1697 1.363 . S
C1696 H1699 0.929 . S
C1697 C1696 1.363 . S
C1697 C1703 1.428 . S
H1698 C1694 0.930 . S
H1699 C1696 0.929 . S
S1700 N1701 1.613 1_556 S
S1700 N1702 1.610 1_556 S
N1701 S1700 1.613 1_554 S
N1701 C1704 1.350 . S
N1702 S1700 1.610 1_554 S
N1702 C1703 1.351 . S
C1703 C1697 1.428 . S
C1703 N1702 1.351 . S
C1703 C1704 1.434 . S
C1704 C1695 1.429 . S
C1704 N1701 1.350 . S
C1704 C1703 1.434 . S
C1705 C1706 1.369 . S
C1705 C1707 1.419 . S
C1705 H1709 0.930 . S
C1706 C1705 1.369 . S
C1706 C1715 1.429 . S
C1707 C1705 1.419 . S
C1707 C1708 1.363 . S
C1707 H1710 0.929 . S
C1708 C1707 1.363 . S
C1708 C1714 1.428 . S
H1709 C1705 0.930 . S
H1710 C1707 0.929 . S
S1711 N1712 1.613 . S
S1711 N1713 1.610 . S
N1712 S1711 1.613 . S
N1712 C1715 1.350 . S
N1713 S1711 1.610 . S
N1713 C1714 1.351 . S
C1714 C1708 1.428 . S
C1714 N1713 1.351 . S
C1714 C1715 1.434 . S
C1715 C1706 1.429 . S
C1715 N1712 1.350 . S
C1715 C1714 1.434 . S
C1716 C1717 1.369 . S
C1716 C1718 1.419 . S
C1716 H1720 0.930 . S
C1717 C1716 1.369 . S
C1717 C1726 1.429 . S
C1718 C1716 1.419 . S
C1718 C1719 1.363 . S
C1718 H1721 0.929 . S
C1719 C1718 1.363 . S
C1719 C1725 1.428 . S
H1720 C1716 0.930 . S
H1721 C1718 0.929 . S
S1722 N1723 1.613 . S
S1722 N1724 1.610 1_554 S
N1723 S1722 1.613 . S
N1723 C1726 1.350 1_554 S
N1724 S1722 1.610 1_556 S
N1724 C1725 1.351 . S
C1725 C1719 1.428 . S
C1725 N1724 1.351 . S
C1725 C1726 1.434 . S
C1726 C1717 1.429 . S
C1726 N1723 1.350 1_556 S
C1726 C1725 1.434 . S
C1727 C1728 1.369 . S
C1727 C1729 1.419 . S
C1727 H1731 0.930 . S
C1728 C1727 1.369 . S
C1728 C1737 1.429 . S
C1729 C1727 1.419 . S
C1729 C1730 1.363 . S
C1729 H1732 0.929 . S
C1730 C1729 1.363 . S
C1730 C1736 1.428 . S
H1731 C1727 0.930 . S
H1732 C1729 0.929 . S
S1733 N1734 1.613 . S
S1733 N1735 1.610 . S
N1734 S1733 1.613 . S
N1734 C1737 1.350 . S
N1735 S1733 1.610 . S
N1735 C1736 1.351 . S
C1736 C1730 1.428 . S
C1736 N1735 1.351 . S
C1736 C1737 1.434 . S
C1737 C1728 1.429 . S
C1737 N1734 1.350 . S
C1737 C1736 1.434 . S
C1738 C1739 1.369 . S
C1738 C1740 1.419 . S
C1738 H1742 0.930 . S
C1739 C1738 1.369 . S
C1739 C1748 1.429 . S
C1740 C1738 1.419 . S
C1740 C1741 1.363 . S
C1740 H1743 0.929 . S
C1741 C1740 1.363 . S
C1741 C1747 1.428 . S
H1742 C1738 0.930 . S
H1743 C1740 0.929 . S
S1744 N1745 1.613 . S
S1744 N1746 1.610 . S
N1745 S1744 1.613 . S
N1745 C1748 1.350 . S
N1746 S1744 1.610 . S
N1746 C1747 1.351 . S
C1747 C1741 1.428 . S
C1747 N1746 1.351 . S
C1747 C1748 1.434 . S
C1748 C1739 1.429 . S
C1748 N1745 1.350 . S
C1748 C1747 1.434 . S
C1749 C1750 1.369 . S
C1749 C1751 1.431 . S
C1749 H1753 0.930 . S
C1750 C1749 1.369 . S
C1750 C1759 1.429 . S
C1751 C1749 1.431 . S
C1751 C1752 1.359 1_455 S
C1751 H1754 0.921 1_455 S
C1752 C1751 1.359 1_655 S
C1752 C1758 1.428 1_655 S
H1753 C1749 0.930 . S
H1754 C1751 0.921 1_655 S
S1755 N1756 1.613 . S
S1755 N1757 1.610 . S
N1756 S1755 1.613 . S
N1756 C1759 1.350 . S
N1757 S1755 1.610 . S
N1757 C1758 1.351 . S
C1758 C1752 1.428 1_455 S
C1758 N1757 1.351 . S
C1758 C1759 1.434 . S
C1759 C1750 1.429 . S
C1759 N1756 1.350 . S
C1759 C1758 1.434 . S
C1760 C1761 1.369 . S
C1760 C1762 1.419 . S
C1760 H1764 0.930 . S
C1761 C1760 1.369 . S
C1761 C1770 1.429 . S
C1762 C1760 1.419 . S
C1762 C1763 1.363 . S
C1762 H1765 0.929 . S
C1763 C1762 1.363 . S
C1763 C1769 1.428 . S
H1764 C1760 0.930 . S
H1765 C1762 0.929 . S
S1766 N1767 1.613 . S
S1766 N1768 1.610 . S
N1767 S1766 1.613 . S
N1767 C1770 1.350 . S
N1768 S1766 1.610 . S
N1768 C1769 1.351 . S
C1769 C1763 1.428 . S
C1769 N1768 1.351 . S
C1769 C1770 1.434 . S
C1770 C1761 1.429 . S
C1770 N1767 1.350 . S
C1770 C1769 1.434 . S
C1771 C1772 1.369 . S
C1771 C1773 1.419 . S
C1771 H1775 0.930 . S
C1772 C1771 1.369 . S
C1772 C1781 1.429 . S
C1773 C1771 1.419 . S
C1773 C1774 1.363 . S
C1773 H1776 0.929 . S
C1774 C1773 1.363 . S
C1774 C1780 1.428 . S
H1775 C1771 0.930 . S
H1776 C1773 0.929 . S
S1777 N1778 1.613 . S
S1777 N1779 1.610 . S
N1778 S1777 1.613 . S
N1778 C1781 1.350 . S
N1779 S1777 1.610 . S
N1779 C1780 1.351 . S
C1780 C1774 1.428 . S
C1780 N1779 1.351 . S
C1780 C1781 1.434 . S
C1781 C1772 1.429 . S
C1781 N1778 1.350 . S
C1781 C1780 1.434 . S
C1782 C1783 1.369 . S
C1782 C1784 1.419 . S
C1782 H1786 0.930 . S
C1783 C1782 1.369 . S
C1783 C1792 1.429 . S
C1784 C1782 1.419 . S
C1784 C1785 1.363 . S
C1784 H1787 0.929 . S
C1785 C1784 1.363 . S
C1785 C1791 1.428 . S
H1786 C1782 0.930 . S
H1787 C1784 0.929 . S
S1788 N1789 1.613 . S
S1788 N1790 1.610 . S
N1789 S1788 1.613 . S
N1789 C1792 1.350 . S
N1790 S1788 1.610 . S
N1790 C1791 1.351 . S
C1791 C1785 1.428 . S
C1791 N1790 1.351 . S
C1791 C1792 1.434 . S
C1792 C1783 1.429 . S
C1792 N1789 1.350 . S
C1792 C1791 1.434 . S
C1793 C1794 1.357 1_455 S
C1793 C1795 1.452 . S
C1793 H1797 0.909 1_455 S
C1794 C1793 1.357 1_655 S
C1794 C1803 1.429 1_655 S
C1795 C1793 1.452 . S
C1795 C1796 1.363 . S
C1795 H1798 0.929 . S
C1796 C1795 1.363 . S
C1796 C1802 1.428 . S
H1797 C1793 0.909 1_655 S
H1798 C1795 0.929 . S
S1799 N1800 1.613 . S
S1799 N1801 1.610 . S
N1800 S1799 1.613 . S
N1800 C1803 1.350 . S
N1801 S1799 1.610 . S
N1801 C1802 1.351 . S
C1802 C1796 1.428 . S
C1802 N1801 1.351 . S
C1802 C1803 1.434 . S
C1803 C1794 1.429 1_455 S
C1803 N1800 1.350 . S
C1803 C1802 1.434 . S
C1804 C1805 1.369 . S
C1804 C1806 1.419 . S
C1804 H1808 0.930 . S
C1805 C1804 1.369 . S
C1805 C1814 1.429 . S
C1806 C1804 1.419 . S
C1806 C1807 1.363 . S
C1806 H1809 0.929 . S
C1807 C1806 1.363 . S
C1807 C1813 1.428 . S
H1808 C1804 0.930 . S
H1809 C1806 0.929 . S
S1810 N1811 1.613 . S
S1810 N1812 1.610 . S
N1811 S1810 1.613 . S
N1811 C1814 1.350 . S
N1812 S1810 1.610 . S
N1812 C1813 1.351 . S
C1813 C1807 1.428 . S
C1813 N1812 1.351 . S
C1813 C1814 1.434 . S
C1814 C1805 1.429 . S
C1814 N1811 1.350 . S
C1814 C1813 1.434 . S
C1815 C1816 1.363 1_455 S
C1815 C1817 1.434 . S
C1815 H1819 0.920 1_455 S
C1816 C1815 1.363 1_655 S
C1816 C1825 1.429 1_655 S
C1817 C1815 1.434 . S
C1817 C1818 1.363 . S
C1817 H1820 0.929 . S
C1818 C1817 1.363 . S
C1818 C1824 1.428 . S
H1819 C1815 0.920 1_655 S
H1820 C1817 0.929 . S
S1821 N1822 1.613 . S
S1821 N1823 1.610 . S
N1822 S1821 1.613 . S
N1822 C1825 1.350 . S
N1823 S1821 1.610 . S
N1823 C1824 1.351 . S
C1824 C1818 1.428 . S
C1824 N1823 1.351 . S
C1824 C1825 1.434 . S
C1825 C1816 1.429 1_455 S
C1825 N1822 1.350 . S
C1825 C1824 1.434 . S
C1826 C1827 1.369 . S
C1826 C1828 1.419 . S
C1826 H1830 0.930 . S
C1827 C1826 1.369 . S
C1827 C1836 1.429 . S
C1828 C1826 1.419 . S
C1828 C1829 1.363 . S
C1828 H1831 0.929 . S
C1829 C1828 1.363 . S
C1829 C1835 1.428 . S
H1830 C1826 0.930 . S
H1831 C1828 0.929 . S
S1832 N1833 1.613 . S
S1832 N1834 1.610 . S
N1833 S1832 1.613 . S
N1833 C1836 1.350 . S
N1834 S1832 1.610 . S
N1834 C1835 1.351 . S
C1835 C1829 1.428 . S
C1835 N1834 1.351 . S
C1835 C1836 1.434 . S
C1836 C1827 1.429 . S
C1836 N1833 1.350 . S
C1836 C1835 1.434 . S
C1837 C1838 1.369 . S
C1837 C1839 1.419 . S
C1837 H1841 0.930 . S
C1838 C1837 1.369 . S
C1838 C1847 1.429 . S
C1839 C1837 1.419 . S
C1839 C1840 1.363 . S
C1839 H1842 0.929 . S
C1840 C1839 1.363 . S
C1840 C1846 1.428 . S
H1841 C1837 0.930 . S
H1842 C1839 0.929 . S
S1843 N1844 1.613 . S
S1843 N1845 1.610 . S
N1844 S1843 1.613 . S
N1844 C1847 1.350 . S
N1845 S1843 1.610 . S
N1845 C1846 1.351 . S
C1846 C1840 1.428 . S
C1846 N1845 1.351 . S
C1846 C1847 1.434 . S
C1847 C1838 1.429 . S
C1847 N1844 1.350 . S
C1847 C1846 1.434 . S
C1848 C1849 1.369 . S
C1848 C1850 1.419 . S
C1848 H1852 0.930 . S
C1849 C1848 1.369 . S
C1849 C1858 1.429 . S
C1850 C1848 1.419 . S
C1850 C1851 1.363 . S
C1850 H1853 0.929 . S
C1851 C1850 1.363 . S
C1851 C1857 1.428 . S
H1852 C1848 0.930 . S
H1853 C1850 0.929 . S
S1854 N1855 1.613 . S
S1854 N1856 1.610 . S
N1855 S1854 1.613 . S
N1855 C1858 1.350 . S
N1856 S1854 1.610 . S
N1856 C1857 1.351 . S
C1857 C1851 1.428 . S
C1857 N1856 1.351 . S
C1857 C1858 1.434 . S
C1858 C1849 1.429 . S
C1858 N1855 1.350 . S
C1858 C1857 1.434 . S
C1859 C1860 1.369 . S
C1859 C1861 1.419 . S
C1859 H1863 0.930 . S
C1860 C1859 1.369 . S
C1860 C1869 1.429 . S
C1861 C1859 1.419 . S
C1861 C1862 1.363 . S
C1861 H1864 0.929 . S
C1862 C1861 1.363 . S
C1862 C1868 1.428 . S
H1863 C1859 0.930 . S
H1864 C1861 0.929 . S
S1865 N1866 1.613 1_554 S
S1865 N1867 1.610 1_554 S
N1866 S1865 1.613 1_556 S
N1866 C1869 1.350 . S
N1867 S1865 1.610 1_556 S
N1867 C1868 1.351 . S
C1868 C1862 1.428 . S
C1868 N1867 1.351 . S
C1868 C1869 1.434 . S
C1869 C1860 1.429 . S
C1869 N1866 1.350 . S
C1869 C1868 1.434 . S
C1870 C1871 1.369 . S
C1870 C1872 1.419 . S
C1870 H1874 0.930 . S
C1871 C1870 1.369 . S
C1871 C1880 1.429 . S
C1872 C1870 1.419 . S
C1872 C1873 1.363 . S
C1872 H1875 0.929 . S
C1873 C1872 1.363 . S
C1873 C1879 1.428 . S
H1874 C1870 0.930 . S
H1875 C1872 0.929 . S
S1876 N1877 1.613 . S
S1876 N1878 1.610 . S
N1877 S1876 1.613 . S
N1877 C1880 1.350 . S
N1878 S1876 1.610 . S
N1878 C1879 1.351 . S
C1879 C1873 1.428 . S
C1879 N1878 1.351 . S
C1879 C1880 1.434 . S
C1880 C1871 1.429 . S
C1880 N1877 1.350 . S
C1880 C1879 1.434 . S
C1881 C1882 1.369 . S
C1881 C1883 1.419 . S
C1881 H1885 0.930 . S
C1882 C1881 1.369 . S
C1882 C1891 1.429 . S
C1883 C1881 1.419 . S
C1883 C1884 1.363 1_655 S
C1883 H1886 0.929 . S
C1884 C1883 1.363 1_455 S
C1884 C1890 1.427 . S
H1885 C1881 0.930 . S
H1886 C1883 0.929 . S
S1887 N1888 1.613 . S
S1887 N1889 1.610 1_655 S
N1888 S1887 1.613 . S
N1888 C1891 1.350 . S
N1889 S1887 1.610 1_455 S
N1889 C1890 1.349 . S
C1890 C1884 1.427 . S
C1890 N1889 1.349 . S
C1890 C1891 1.438 1_455 S
C1891 C1882 1.429 . S
C1891 N1888 1.350 . S
C1891 C1890 1.438 1_655 S
C1892 C1893 1.369 . S
C1892 C1894 1.419 . S
C1892 H1896 0.930 . S
C1893 C1892 1.369 . S
C1893 C1902 1.429 . S
C1894 C1892 1.419 . S
C1894 C1895 1.363 . S
C1894 H1897 0.929 . S
C1895 C1894 1.363 . S
C1895 C1901 1.428 . S
H1896 C1892 0.930 . S
H1897 C1894 0.929 . S
S1898 N1899 1.613 . S
S1898 N1900 1.610 . S
N1899 S1898 1.613 . S
N1899 C1902 1.350 . S
N1900 S1898 1.610 . S
N1900 C1901 1.351 . S
C1901 C1895 1.428 . S
C1901 N1900 1.351 . S
C1901 C1902 1.434 . S
C1902 C1893 1.429 . S
C1902 N1899 1.350 . S
C1902 C1901 1.434 . S
C1903 C1904 1.369 1_655 S
C1903 C1905 1.419 . S
C1903 H1907 0.930 . S
C1904 C1903 1.369 1_455 S
C1904 C1913 1.428 . S
C1905 C1903 1.419 . S
C1905 C1906 1.363 . S
C1905 H1908 0.929 . S
C1906 C1905 1.363 . S
C1906 C1912 1.428 . S
H1907 C1903 0.930 . S
H1908 C1905 0.929 . S
S1909 N1910 1.613 1_655 S
S1909 N1911 1.610 . S
N1910 S1909 1.613 1_455 S
N1910 C1913 1.349 . S
N1911 S1909 1.610 . S
N1911 C1912 1.351 . S
C1912 C1906 1.428 . S
C1912 N1911 1.351 . S
C1912 C1913 1.435 1_655 S
C1913 C1904 1.428 . S
C1913 N1910 1.349 . S
C1913 C1912 1.435 1_455 S
C1914 C1915 1.369 . S
C1914 C1916 1.419 . S
C1914 H1918 0.930 . S
C1915 C1914 1.369 . S
C1915 C1924 1.429 . S
C1916 C1914 1.419 . S
C1916 C1917 1.363 . S
C1916 H1919 0.929 . S
C1917 C1916 1.363 . S
C1917 C1923 1.428 . S
H1918 C1914 0.930 . S
H1919 C1916 0.929 . S
S1920 N1921 1.613 . S
S1920 N1922 1.610 . S
N1921 S1920 1.613 . S
N1921 C1924 1.350 . S
N1922 S1920 1.610 . S
N1922 C1923 1.351 . S
C1923 C1917 1.428 . S
C1923 N1922 1.351 . S
C1923 C1924 1.434 . S
C1924 C1915 1.429 . S
C1924 N1921 1.350 . S
C1924 C1923 1.434 . S
C1925 C1926 1.369 . S
C1925 C1927 1.419 . S
C1925 H1929 0.930 . S
C1926 C1925 1.369 . S
C1926 C1935 1.429 . S
C1927 C1925 1.419 . S
C1927 C1928 1.363 . S
C1927 H1930 0.929 . S
C1928 C1927 1.363 . S
C1928 C1934 1.428 . S
H1929 C1925 0.930 . S
H1930 C1927 0.929 . S
S1931 N1932 1.613 . S
S1931 N1933 1.610 . S
N1932 S1931 1.613 . S
N1932 C1935 1.350 . S
N1933 S1931 1.610 . S
N1933 C1934 1.351 . S
C1934 C1928 1.428 . S
C1934 N1933 1.351 . S
C1934 C1935 1.434 . S
C1935 C1926 1.429 . S
C1935 N1932 1.350 . S
C1935 C1934 1.434 . S
C1057 C238 1.471 1_554 S
C1059 C7 1.474 . S
C1068 C40 1.474 . S
C1070 C139 1.472 . S
C1079 C73 1.472 . S
C1081 C172 1.476 . S
C1090 C205 1.479 . S
C1092 C106 1.476 1_556 S
C1101 C271 1.477 . S
C1103 C502 1.474 1_556 S
C1112 C403 1.478 . S
C1114 C304 1.478 . S
C1123 C337 1.475 . S
C1125 C436 1.477 . S
C1134 C469 1.478 . S
C1136 C370 1.475 1_554 S
C1145 C766 1.479 . S
C1147 C535 1.476 . S
C1156 C667 1.477 . S
C1158 C568 1.478 1_556 S
C1167 C700 1.473 1_554 S
C1169 C601 1.471 . S
C1178 C733 1.478 . S
C1180 C634 1.478 . S
C1189 C1030 1.475 . S
C1191 C799 1.473 . S
C1200 C832 1.477 1_554 S
C1202 C931 1.474 . S
C1211 C964 1.473 1_556 S
C1213 C865 1.476 . S
C1222 C997 1.479 . S
C1224 C898 1.478 . S
C1233 C18 0.986 . S
C1235 C249 0.979 . S
C1244 C51 0.979 . S
C1246 C150 0.986 . S
C1255 C84 0.988 . S
C1257 C183 0.981 . S
C1266 C117 0.976 . S
C1268 C216 0.982 . S
C1277 C513 0.988 . S
C1279 C282 0.981 . S
C1288 C315 0.982 . S
C1290 C414 0.986 . S
C1299 C447 0.980 . S
C1301 C348 0.977 . S
C1310 C381 0.981 . S
C1312 C480 0.977 . S
C1321 C546 0.985 . S
C1323 C777 0.986 . S
C1332 C678 0.988 . S
C1334 C579 0.982 . S
C1343 C711 0.981 . S
C1345 C612 0.986 . S
C1354 C645 0.983 . S
C1356 C744 0.977 . S
C1365 C810 0.979 . S
C1367 C1041 0.977 . S
C1376 C843 0.984 . S
C1378 C942 0.977 . S
C1387 C876 0.984 . S
C1389 C975 0.986 . S
C1398 C909 0.987 . S
C1400 C1008 0.983 . S
C1409 N211 1.636 . S
C1411 N13 1.636 . S
C1420 N46 1.636 . S
C1422 N244 1.636 . S
C1431 N145 1.636 . S
C1433 N79 1.636 . S
C1442 N178 1.637 . S
C1444 N112 1.636 . S
C1453 N475 1.637 . S
C1455 N277 1.636 . S
C1464 N508 1.637 . S
C1466 N310 1.636 . S
C1475 N409 1.636 . S
C1477 N343 1.636 . S
C1486 N442 1.636 . S
C1488 N376 1.637 . S
C1497 N541 1.636 . S
C1499 N739 1.637 . S
C1508 N772 1.636 . S
C1510 N574 1.637 . S
C1519 N673 1.636 . S
C1521 N607 1.637 . S
C1530 N706 1.637 . S
C1532 N640 1.636 . S
C1541 N1003 1.636 . S
C1543 N805 1.637 . S
C1552 N838 1.636 . S
C1554 N1036 1.636 . S
C1563 N937 1.637 . S
C1565 N871 1.636 . S
C1574 N970 1.636 . S
C1576 N904 1.637 . S
C1585 C21 1.610 . S
C1587 N893 1.507 . S
C1596 N266 1.509 . S
C1598 C54 1.610 . S
C1607 N827 1.498 . S
C1609 C87 1.612 . S
C1618 C120 1.612 . S
C1620 N332 1.502 . S
C1629 C153 1.612 . S
C1631 N959 1.499 . S
C1640 C186 1.611 . S
C1642 N464 1.501 . S
C1651 C219 1.613 . S
C1653 N1025 1.499 . S
C1662 N398 1.504 . S
C1664 C252 1.611 . S
C1673 N629 1.507 . S
C1675 C285 1.611 . S
C1684 C318 1.613 . S
C1686 N2 1.499 . S
C1695 C351 1.611 . S
C1697 N563 1.505 . S
C1706 N68 1.501 . S
C1708 C384 1.612 . S
C1717 N695 1.509 . S
C1719 C417 1.610 . S
C1728 C450 1.613 . S
C1730 N200 1.500 . S
C1739 C483 1.609 . S
C1741 N761 1.508 . S
C1750 N134 1.500 . S
C1752 C516 1.612 . S
C1761 N365 1.502 . S
C1763 C549 1.611 . S
C1772 N794 1.506 . S
C1774 C582 1.611 . S
C1783 C615 1.609 . S
C1785 N299 1.508 . S
C1794 C648 1.613 . S
C1796 N860 1.499 . S
C1805 N431 1.497 . S
C1807 C681 1.612 . S
C1816 C714 1.612 . S
C1818 N992 1.501 . S
C1827 N497 1.507 . S
C1829 C747 1.610 . S
C1838 N926 1.498 . S
C1840 C780 1.612 . S
C1849 N101 1.497 . S
C1851 C813 1.612 . S
C1860 C846 1.613 . S
C1862 N530 1.499 . S
C1871 N35 1.498 . S
C1873 C879 1.612 . S
C1882 N596 1.508 . S
C1884 C912 1.610 . S
C1893 N167 1.499 . S
C1895 C945 1.612 . S
C1904 C978 1.609 . S
C1906 N728 1.508 . S
C1915 C1011 1.611 . S
C1917 N233 1.501 . S
C1926 C1044 1.613 . S
C1928 N662 1.500 . S
