# Generated by pormake.
# Topology afw, (4)-cn, num edge types: 1
# Building blocks:
#     Node 0, Type 0, BuildingBlock: ICAMEG_clean_sbu_1, # of connection points: 4
#     Node 1, Type 0, BuildingBlock: ICAMEG_clean_sbu_1, # of connection points: 4
#     Node 2, Type 0, BuildingBlock: ICAMEG_clean_sbu_1, # of connection points: 4
#     Node 3, Type 0, BuildingBlock: ICAMEG_clean_sbu_1, # of connection points: 4
#     Node 4, Type 0, BuildingBlock: ICAMEG_clean_sbu_1, # of connection points: 4
#     Node 5, Type 0, BuildingBlock: ICAMEG_clean_sbu_1, # of connection points: 4
#     Node 6, Type 0, BuildingBlock: ICAMEG_clean_sbu_1, # of connection points: 4
#     Node 7, Type 0, BuildingBlock: ICAMEG_clean_sbu_1, # of connection points: 4
#     Node 8, Type 0, BuildingBlock: ICAMEG_clean_sbu_1, # of connection points: 4
#     Edge 9, Type (0, 0), BuildingBlock: XUDNAN_clean_linker_2, # of connection points: 2
#     Edge 10, Type (0, 0), BuildingBlock: XUDNAN_clean_linker_2, # of connection points: 2
#     Edge 11, Type (0, 0), BuildingBlock: XUDNAN_clean_linker_2, # of connection points: 2
#     Edge 12, Type (0, 0), BuildingBlock: XUDNAN_clean_linker_2, # of connection points: 2
#     Edge 13, Type (0, 0), BuildingBlock: XUDNAN_clean_linker_2, # of connection points: 2
#     Edge 14, Type (0, 0), BuildingBlock: XUDNAN_clean_linker_2, # of connection points: 2
#     Edge 15, Type (0, 0), BuildingBlock: XUDNAN_clean_linker_2, # of connection points: 2
#     Edge 16, Type (0, 0), BuildingBlock: XUDNAN_clean_linker_2, # of connection points: 2
#     Edge 17, Type (0, 0), BuildingBlock: XUDNAN_clean_linker_2, # of connection points: 2
#     Edge 18, Type (0, 0), BuildingBlock: XUDNAN_clean_linker_2, # of connection points: 2
#     Edge 19, Type (0, 0), BuildingBlock: XUDNAN_clean_linker_2, # of connection points: 2
#     Edge 20, Type (0, 0), BuildingBlock: XUDNAN_clean_linker_2, # of connection points: 2
#     Edge 21, Type (0, 0), BuildingBlock: XUDNAN_clean_linker_2, # of connection points: 2
#     Edge 22, Type (0, 0), BuildingBlock: XUDNAN_clean_linker_2, # of connection points: 2
#     Edge 23, Type (0, 0), BuildingBlock: XUDNAN_clean_linker_2, # of connection points: 2
#     Edge 24, Type (0, 0), BuildingBlock: XUDNAN_clean_linker_2, # of connection points: 2
#     Edge 25, Type (0, 0), BuildingBlock: XUDNAN_clean_linker_2, # of connection points: 2
#     Edge 26, Type (0, 0), BuildingBlock: XUDNAN_clean_linker_2, # of connection points: 2
# Relax obj value: 0.102
# Max RMSD: 0.139
# Mean RMSD: 0.139
data_MOF--net-afw--node1-ICAMEG_clean_sbu_1--edge1-XUDNAN_clean_linker_2
_symmetry_space_group_name_H-M    P1
_symmetry_Int_Tables_number       1
_symmetry_cell_setting            triclinic
loop_
_symmetry_equiv_pos_as_xyz
'x, y, z'
_cell_length_a     45.964716
_cell_length_b     45.997833
_cell_length_c     35.07731
_cell_angle_alpha  90.096656
_cell_angle_beta   89.987568
_cell_angle_gamma 119.92951
loop_
_atom_site_label
_atom_site_type_symbol
_atom_site_fract_x
_atom_site_fract_y
_atom_site_fract_z
_atom_type_partial_charge
Co0 Co 0.01249 0.19303 0.06986 0.0
Co1 Co 0.01768 0.20728 0.97201 0.0
O2 O 0.01373 0.2194 0.02504 0.0
C3 C 0.95868 0.21146 0.08588 0.0
O4 O 0.96278 0.22609 0.0527 0.0
C5 C 0.07699 0.26849 0.94265 0.0
O6 O 0.09077 0.2499 0.93607 0.0
O7 O 0.05657 0.20127 0.98575 0.0
O8 O 0.04912 0.18734 0.04781 0.0
H9 H 0.03148 0.13825 0.86997 0.0
H10 H 0.02345 0.26252 0.07739 0.0
O11 O 0.97575 0.19765 0.09497 0.0
H12 H 0.11874 0.26442 0.14396 0.0
H13 H 0.00352 0.16402 0.20956 0.0
H14 H 0.01499 0.13038 0.07936 0.0
H15 H 0.07509 0.21247 0.11372 0.0
H16 H 0.00663 0.19851 0.1543 0.0
O17 O 0.04886 0.25597 0.96001 0.0
H18 H 0.02634 0.15379 0.9359 0.0
H19 H 0.01631 0.23533 0.89544 0.0
H20 H 0.0122 0.09528 0.13386 0.0
H21 H 0.06613 0.31476 0.10773 0.0
H22 H 0.00642 0.11205 0.19954 0.0
H23 H 0.11432 0.31604 0.14132 0.0
O24 O 0.97773 0.15063 0.04533 0.0
H25 H 0.95249 0.26832 0.96799 0.0
H26 H 0.95295 0.16515 0.93075 0.0
H27 H 0.90434 0.17151 0.91419 0.0
H28 H 0.90395 0.22347 0.93267 0.0
H29 H 0.00036 0.26068 0.98461 0.0
H30 H 0.02134 0.22068 0.82907 0.0
H31 H 0.029 0.17183 0.81597 0.0
O32 O 0.98666 0.15898 0.98241 0.0
C33 C 0.06474 0.19227 0.01642 0.0
C34 C 0.02821 0.15963 0.8753 0.0
C35 C 0.02251 0.20588 0.85234 0.0
N36 N 0.02125 0.19555 0.91959 0.0
C37 C 0.02534 0.16858 0.91259 0.0
C38 C 0.01971 0.21407 0.89 0.0
C39 C 0.02681 0.17847 0.84502 0.0
C40 C 0.04396 0.26257 0.0923 0.0
N41 N 0.04635 0.23417 0.09416 0.0
C42 C 0.06824 0.29238 0.10928 0.0
C43 C 0.0953 0.29311 0.12806 0.0
C44 C 0.0978 0.26417 0.12954 0.0
C45 C 0.07303 0.23482 0.11225 0.0
C46 C 0.00612 0.15649 0.18109 0.0
C47 C 0.01273 0.13798 0.10788 0.0
C48 C 0.00781 0.17588 0.14966 0.0
N49 N 0.01126 0.16661 0.11362 0.0
C50 C 0.01105 0.11795 0.13862 0.0
C51 C 0.00776 0.12734 0.17545 0.0
C52 C 0.97193 0.14029 0.01089 0.0
C53 C 0.95239 0.24559 0.95972 0.0
C54 C 0.95286 0.18768 0.93931 0.0
C55 C 0.92531 0.19122 0.92964 0.0
C56 C 0.92514 0.22039 0.93996 0.0
N57 N 0.97953 0.21252 0.95868 0.0
C58 C 0.97951 0.24118 0.96889 0.0
Co59 Co 0.82394 0.82735 0.98688 0.0
Co60 Co 0.82027 0.84815 0.08113 0.0
O61 O 0.80155 0.81831 0.03682 0.0
C62 C 0.75826 0.82062 0.96735 0.0
O63 O 0.76175 0.83932 0.99724 0.0
C64 C 0.80829 0.78302 0.11245 0.0
O65 O 0.81824 0.77664 0.08001 0.0
O66 O 0.86447 0.8506 0.07454 0.0
O67 O 0.8682 0.84289 0.01186 0.0
H68 H 0.9076 0.95011 0.15074 0.0
H69 H 0.76426 0.76088 1.00151 0.0
O70 O 0.78028 0.81236 0.95996 0.0
H71 H 0.85634 0.73808 0.9747 0.0
H72 H 0.8343 0.80142 0.84966 0.0
H73 H 0.88751 0.88216 0.95498 0.0
H74 H 0.86625 0.79594 0.97296 0.0
H75 H 0.80691 0.7908 0.91258 0.0
O76 O 0.80605 0.80932 0.11644 0.0
H77 H 0.88352 0.91183 0.09585 0.0
H78 H 0.79675 0.8477 0.16062 0.0
H79 H 0.91602 0.89351 0.89272 0.0
H80 H 0.75317 0.70258 0.00325 0.0
H81 H 0.88936 0.85299 0.83949 0.0
H82 H 0.79945 0.69092 0.98988 0.0
O83 O 0.83279 0.8745 0.98643 0.0
H84 H 0.69454 0.78875 0.08991 0.0
H85 H 0.79842 0.89886 0.09193 0.0
H86 H 0.74365 0.8961 0.09812 0.0
H87 H 0.69121 0.84074 0.09717 0.0
H88 H 0.74988 0.79269 0.0835 0.0
H89 H 0.82008 0.88513 0.21635 0.0
H90 H 0.87581 0.93686 0.21155 0.0
O91 O 0.83554 0.88811 0.04822 0.0
C92 C 0.8807 0.85007 0.04528 0.0
C93 C 0.88324 0.92771 0.15316 0.0
C94 C 0.83414 0.89122 0.18998 0.0
N95 N 0.83862 0.87771 0.1249 0.0
C96 C 0.86943 0.90597 0.12214 0.0
C97 C 0.82109 0.87009 0.15835 0.0
C98 C 0.8654 0.92024 0.18727 0.0
C99 C 0.78443 0.75593 0.99533 0.0
N100 N 0.8158 0.78173 0.98698 0.0
C101 C 0.77804 0.72291 0.9965 0.0
C102 C 0.80404 0.71639 0.98904 0.0
C103 C 0.83597 0.74284 0.98055 0.0
C104 C 0.84144 0.77556 0.9797 0.0
C105 C 0.8462 0.81922 0.87265 0.0
C106 C 0.87587 0.86427 0.93206 0.0
C107 C 0.83077 0.81339 0.90831 0.0
N108 N 0.84573 0.8357 0.93753 0.0
C109 C 0.89208 0.8709 0.89682 0.0
C110 C 0.8771 0.84816 0.86697 0.0
C111 C 0.83868 0.89567 0.01304 0.0
C112 C 0.71722 0.81301 0.09048 0.0
C113 C 0.77572 0.87468 0.09141 0.0
C114 C 0.74478 0.87327 0.09501 0.0
C115 C 0.71537 0.8422 0.0945 0.0
N116 N 0.77731 0.84593 0.08754 0.0
C117 C 0.7486 0.81538 0.08701 0.0
Co118 Co 0.19365 0.01431 0.05378 0.0
Co119 Co 0.17231 0.00802 0.9587 0.0
O120 O 0.20268 0.01015 0.99976 0.0
C121 C 0.25751 0.07058 0.0819 0.0
O122 O 0.24124 0.08688 0.08786 0.0
C123 C 0.1923 0.9567 0.93668 0.0
O124 O 0.20285 0.95631 0.97128 0.0
O125 O 0.13322 0.97012 0.9846 0.0
O126 O 0.14429 0.98588 0.0458 0.0
H127 H 0.06671 0.00061 0.90751 0.0
H128 H 0.24303 0.9926 0.03631 0.0
O129 O 0.24317 0.04263 0.06404 0.0
H130 H 0.1535 0.8994 0.10934 0.0
H131 H 0.21145 0.01513 0.19587 0.0
H132 H 0.14564 0.02897 0.09378 0.0
H133 H 0.15027 0.9502 0.09562 0.0
H134 H 0.22227 0.00869 0.12846 0.0
O135 O 0.17981 0.97517 0.92855 0.0
H136 H 0.10583 0.00383 0.95757 0.0
H137 H 0.17385 0.00695 0.87345 0.0
H138 H 0.13386 0.03545 0.16086 0.0
H139 H 0.24767 0.94254 0.05012 0.0
H140 H 0.16694 0.0286 0.21247 0.0
H141 H 0.20259 0.89538 0.08671 0.0
O142 O 0.19068 0.05503 0.04171 0.0
H143 H 0.29072 0.07086 0.90933 0.0
H144 H 0.18472 0.07229 0.92352 0.0
H145 H 0.23305 0.11988 0.89241 0.0
H146 H 0.28651 0.1193 0.88497 0.0
H147 H 0.2419 0.02398 0.94067 0.0
H148 H 0.13531 0.0035 0.82247 0.0
H149 H 0.08137 0.00044 0.83936 0.0
O150 O 0.16346 0.04094 0.98589 0.0
C151 C 0.12438 0.96779 0.01944 0.0
C152 C 0.09019 0.00203 0.89977 0.0
C153 C 0.12867 0.0036 0.85205 0.0
N154 N 0.14221 0.00578 0.91849 0.0
C155 C 0.11248 0.00393 0.928 0.0
C156 C 0.15035 0.00546 0.88106 0.0
C157 C 0.09841 0.0019 0.86155 0.0
C158 C 0.22346 0.97234 0.05256 0.0
N159 N 0.19632 0.97433 0.06495 0.0
C160 C 0.22616 0.94398 0.06015 0.0
C161 C 0.20083 0.91751 0.08062 0.0
C162 C 0.17325 0.91972 0.09325 0.0
C163 C 0.17141 0.94847 0.08511 0.0
C164 C 0.19687 0.0182 0.17365 0.0
C165 C 0.16013 0.02591 0.11605 0.0
C166 C 0.20292 0.01462 0.13539 0.0
N167 N 0.1847 0.01858 0.10711 0.0
C168 C 0.15334 0.02961 0.154 0.0
C169 C 0.1719 0.02576 0.18294 0.0
C170 C 0.17464 0.05979 0.01512 0.0
C171 C 0.26752 0.07134 0.91224 0.0
C172 C 0.2079 0.07186 0.92053 0.0
C173 C 0.23518 0.09887 0.90281 0.0
C174 C 0.26515 0.09853 0.89863 0.0
N175 N 0.21032 0.04513 0.93356 0.0
C176 C 0.23971 0.04476 0.92982 0.0
Co177 Co 0.67292 0.53482 0.30479 0.0
Co178 Co 0.67582 0.52099 0.40148 0.0
O179 O 0.67438 0.54807 0.35865 0.0
C180 C 0.72996 0.60548 0.30397 0.0
O181 O 0.74044 0.60137 0.33727 0.0
C182 C 0.62693 0.5432 0.42703 0.0
O183 O 0.62571 0.55405 0.39285 0.0
O184 O 0.63619 0.47985 0.38102 0.0
O185 O 0.64233 0.48686 0.31769 0.0
H186 H 0.67456 0.42029 0.45869 0.0
H187 H 0.6583 0.58916 0.32267 0.0
O188 O 0.70334 0.58216 0.289 0.0
H189 H 0.55576 0.50071 0.26083 0.0
H190 H 0.66669 0.54715 0.16278 0.0
H191 H 0.67636 0.47946 0.26561 0.0
H192 H 0.6049 0.49343 0.27002 0.0
H193 H 0.66709 0.56274 0.23011 0.0
O194 O 0.64505 0.53003 0.43366 0.0
H195 H 0.67282 0.45522 0.40655 0.0
H196 H 0.68183 0.52891 0.48629 0.0
H197 H 0.67563 0.46273 0.19862 0.0
H198 H 0.60994 0.5978 0.31348 0.0
H199 H 0.67083 0.49673 0.14665 0.0
H200 H 0.55813 0.55329 0.28253 0.0
O201 O 0.71274 0.52903 0.31224 0.0
H202 H 0.74157 0.64273 0.43905 0.0
H203 H 0.74311 0.53652 0.43044 0.0
H204 H 0.79295 0.5872 0.45468 0.0
H205 H 0.79235 0.64079 0.45927 0.0
H206 H 0.69247 0.5916 0.41452 0.0
H207 H 0.68336 0.49459 0.53935 0.0
H208 H 0.67986 0.43992 0.52569 0.0
O209 O 0.70652 0.51055 0.37236 0.0
C210 C 0.6284 0.46894 0.34695 0.0
C211 C 0.67618 0.4441 0.46502 0.0
C212 C 0.68108 0.48578 0.51027 0.0
N213 N 0.67741 0.49418 0.44329 0.0
C214 C 0.67528 0.46404 0.43559 0.0
C215 C 0.68011 0.50507 0.48011 0.0
C216 C 0.67913 0.45512 0.50259 0.0
C217 C 0.63592 0.56978 0.30894 0.0
N218 N 0.63434 0.5407 0.29718 0.0
C219 C 0.60858 0.57477 0.30393 0.0
C220 C 0.57951 0.54976 0.28662 0.0
C221 C 0.57814 0.52023 0.27451 0.0
C222 C 0.60596 0.51613 0.28004 0.0
C223 C 0.66869 0.53207 0.18516 0.0
C224 C 0.67398 0.49422 0.24317 0.0
C225 C 0.669 0.54081 0.22337 0.0
N226 N 0.67152 0.52189 0.25182 0.0
C227 C 0.67369 0.48469 0.20528 0.0
C228 C 0.67102 0.50379 0.17614 0.0
C229 C 0.72079 0.5166 0.33999 0.0
C230 C 0.74206 0.61948 0.43741 0.0
C231 C 0.74262 0.55972 0.43227 0.0
C232 C 0.77092 0.58834 0.44609 0.0
C233 C 0.77057 0.6184 0.44868 0.0
N234 N 0.71463 0.56091 0.42151 0.0
C235 C 0.7142 0.59034 0.42377 0.0
Co236 Co 0.49681 0.15756 0.30577 0.0
Co237 Co 0.51434 0.17708 0.40176 0.0
O238 O 0.48567 0.1477 0.36028 0.0
C239 C 0.4367 0.15552 0.27304 0.0
O240 O 0.45593 0.18749 0.26524 0.0
C241 C 0.49922 0.10812 0.42591 0.0
O242 O 0.49421 0.09748 0.39051 0.0
O243 O 0.55498 0.1788 0.37916 0.0
O244 O 0.54512 0.17456 0.31618 0.0
H245 H 0.61643 0.27813 0.45446 0.0
H246 H 0.44222 0.08978 0.32712 0.0
O247 O 0.44817 0.1403 0.29311 0.0
H248 H 0.52761 0.07141 0.26409 0.0
H249 H 0.48112 0.13262 0.16474 0.0
H250 H 0.55004 0.21516 0.26313 0.0
H251 H 0.53627 0.1285 0.27119 0.0
H252 H 0.46747 0.12026 0.23285 0.0
O253 O 0.50681 0.13804 0.43388 0.0
H254 H 0.5798 0.24034 0.40389 0.0
H255 H 0.50978 0.17647 0.4869 0.0
H256 H 0.56472 0.22846 0.19533 0.0
H257 H 0.43225 0.03218 0.31998 0.0
H258 H 0.5301 0.18706 0.14558 0.0
H259 H 0.47521 0.02271 0.28843 0.0
O260 O 0.50451 0.20403 0.3125 0.0
H261 H 0.39454 0.11967 0.44635 0.0
H262 H 0.49858 0.2285 0.43184 0.0
H263 H 0.44835 0.2268 0.45917 0.0
H264 H 0.39587 0.17206 0.46674 0.0
H265 H 0.44528 0.12258 0.41874 0.0
H266 H 0.54586 0.21344 0.53839 0.0
H267 H 0.59953 0.26477 0.5223 0.0
O268 O 0.52308 0.21738 0.37252 0.0
C269 C 0.56438 0.1802 0.34464 0.0
C270 C 0.59307 0.25587 0.46184 0.0
C271 C 0.55348 0.21955 0.50894 0.0
N272 N 0.54257 0.2063 0.44237 0.0
C273 C 0.57217 0.2344 0.43332 0.0
C274 C 0.5332 0.19865 0.47965 0.0
C275 C 0.58358 0.24835 0.49989 0.0
C276 C 0.46086 0.08585 0.31296 0.0
N277 N 0.48978 0.11253 0.29955 0.0
C278 C 0.45515 0.05318 0.30918 0.0
C279 C 0.47929 0.04789 0.29154 0.0
C280 C 0.50872 0.07521 0.27794 0.0
C281 C 0.51359 0.10753 0.28225 0.0
C282 C 0.49639 0.15088 0.18614 0.0
C283 C 0.53486 0.19698 0.24167 0.0
C284 C 0.48875 0.14404 0.22478 0.0
N285 N 0.50785 0.167 0.25201 0.0
C286 C 0.5433 0.20466 0.20331 0.0
C287 C 0.52387 0.18143 0.17541 0.0
C288 C 0.51699 0.22498 0.33986 0.0
C289 C 0.41728 0.14367 0.44329 0.0
C290 C 0.47581 0.20461 0.43481 0.0
C291 C 0.44746 0.20379 0.45043 0.0
C292 C 0.41803 0.17308 0.45469 0.0
N293 N 0.47493 0.17564 0.42388 0.0
C294 C 0.44612 0.14545 0.42779 0.0
Co295 Co 0.87621 0.36438 0.29834 0.0
Co296 Co 0.85694 0.35494 0.39475 0.0
O297 O 0.8858 0.35826 0.35155 0.0
C298 C 0.87979 0.30187 0.28824 0.0
O299 O 0.85927 0.28821 0.31719 0.0
C300 C 0.92466 0.4089 0.42018 0.0
O301 O 0.93275 0.41954 0.38499 0.0
O302 O 0.85567 0.39576 0.37804 0.0
O303 O 0.86181 0.39664 0.31453 0.0
H304 H 0.75702 0.35333 0.45519 0.0
H305 H 0.94234 0.37226 0.31804 0.0
O306 O 0.89042 0.33236 0.27945 0.0
H307 H 0.96706 0.48187 0.26633 0.0
H308 H 0.9 0.38056 0.15743 0.0
H309 H 0.82093 0.36829 0.25958 0.0
H310 H 0.90876 0.43502 0.26998 0.0
H311 H 0.912 0.37391 0.22433 0.0
O312 O 0.89642 0.38343 0.42784 0.0
H313 H 0.79424 0.35797 0.40212 0.0
H314 H 0.85796 0.34419 0.47868 0.0
H315 H 0.80818 0.37541 0.1931 0.0
H316 H 0.00109 0.41831 0.31451 0.0
H317 H 0.84783 0.38151 0.14146 0.0
H318 H 0.01373 0.47364 0.28863 0.0
O319 O 0.8287 0.32659 0.30229 0.0
H320 H 0.91301 0.28794 0.42525 0.0
H321 H 0.80484 0.28586 0.41832 0.0
H322 H 0.80577 0.23479 0.43746 0.0
H323 H 0.86016 0.23564 0.44111 0.0
H324 H 0.91088 0.3384 0.40589 0.0
H325 H 0.82154 0.33969 0.53265 0.0
H326 H 0.77057 0.34411 0.52104 0.0
O327 O 0.81652 0.32643 0.36418 0.0
C328 C 0.85582 0.4076 0.34512 0.0
C329 C 0.77911 0.35129 0.46061 0.0
C330 C 0.81535 0.34367 0.50408 0.0
N331 N 0.82817 0.35118 0.43723 0.0
C332 C 0.80027 0.35384 0.43066 0.0
C333 C 0.83592 0.34633 0.47341 0.0
C334 C 0.78675 0.34614 0.49755 0.0
C335 C 0.94768 0.39619 0.30647 0.0
N336 N 0.92214 0.40097 0.29429 0.0
C337 C 0.98098 0.4222 0.30466 0.0
C338 C 0.98805 0.45325 0.29019 0.0
C339 C 0.96187 0.4579 0.27773 0.0
C340 C 0.92888 0.43133 0.28003 0.0
C341 C 0.88253 0.37793 0.17967 0.0
C342 C 0.8384 0.37112 0.2373 0.0
C343 C 0.88912 0.37401 0.2176 0.0
N344 N 0.86718 0.37069 0.24586 0.0
C345 C 0.83102 0.37508 0.1997 0.0
C346 C 0.85326 0.37847 0.17073 0.0
C347 C 0.80816 0.31601 0.33021 0.0
C348 C 0.88917 0.28728 0.42386 0.0
C349 C 0.8286 0.28642 0.4197 0.0
C350 C 0.82898 0.25743 0.43065 0.0
C351 C 0.8595 0.25793 0.43271 0.0
N352 N 0.85782 0.31514 0.41116 0.0
C353 C 0.88783 0.3158 0.41305 0.0
Co354 Co 0.34356 0.86337 0.72815 0.0
Co355 Co 0.33756 0.87 0.63033 0.0
O356 O 0.3416 0.88698 0.68245 0.0
C357 C 0.28464 0.87152 0.74242 0.0
O358 O 0.27489 0.86068 0.70751 0.0
C359 C 0.3999 0.93638 0.62364 0.0
O360 O 0.41076 0.93098 0.65601 0.0
O361 O 0.37466 0.86002 0.63916 0.0
O362 O 0.37513 0.85203 0.70235 0.0
H363 H 0.32984 0.78774 0.5308 0.0
H364 H 0.35654 0.93314 0.73461 0.0
O365 O 0.31183 0.87432 0.75526 0.0
H366 H 0.46047 0.93742 0.77875 0.0
H367 H 0.35039 0.84895 0.86956 0.0
H368 H 0.34378 0.79994 0.74253 0.0
H369 H 0.41186 0.88387 0.75817 0.0
H370 H 0.34787 0.87786 0.81155 0.0
O371 O 0.37084 0.91548 0.61121 0.0
H372 H 0.3342 0.80941 0.59618 0.0
H373 H 0.3327 0.89498 0.55338 0.0
H374 H 0.3466 0.77037 0.79971 0.0
H375 H 0.40447 0.98719 0.75524 0.0
H376 H 0.34991 0.79488 0.86384 0.0
H377 H 0.45692 0.98955 0.77743 0.0
O378 O 0.30497 0.81965 0.71065 0.0
H379 H 0.28348 0.9415 0.63748 0.0
H380 H 0.26883 0.83244 0.59638 0.0
H381 H 0.22237 0.84409 0.58769 0.0
H382 H 0.22957 0.899 0.6083 0.0
H383 H 0.32914 0.92859 0.64596 0.0
H384 H 0.32881 0.8745 0.48754 0.0
H385 H 0.32718 0.82041 0.47592 0.0
O386 O 0.30417 0.82409 0.64697 0.0
C387 C 0.38563 0.85228 0.66868 0.0
C388 C 0.33044 0.8113 0.5355 0.0
C389 C 0.3299 0.86 0.51121 0.0
N390 N 0.33355 0.85334 0.57862 0.0
C391 C 0.33281 0.82365 0.57246 0.0
C392 C 0.33222 0.87153 0.54856 0.0
C393 C 0.32898 0.82966 0.50472 0.0
C394 C 0.37919 0.93393 0.74453 0.0
N395 N 0.38132 0.90537 0.7454 0.0
C396 C 0.40628 0.96462 0.75604 0.0
C397 C 0.43572 0.96594 0.76845 0.0
C398 C 0.43773 0.9367 0.76918 0.0
C399 C 0.41015 0.90647 0.75742 0.0
C400 C 0.34897 0.83803 0.84179 0.0
C401 C 0.34537 0.81085 0.7703 0.0
C402 C 0.34744 0.85423 0.80885 0.0
N403 N 0.34581 0.84067 0.77367 0.0
C404 C 0.34689 0.79394 0.80259 0.0
C405 C 0.34872 0.8077 0.83855 0.0
C406 C 0.2934 0.80752 0.67774 0.0
C407 C 0.28004 0.91748 0.62838 0.0
C408 C 0.27203 0.85624 0.60568 0.0
C409 C 0.24571 0.86278 0.60052 0.0
C410 C 0.24978 0.89361 0.61205 0.0
N411 N 0.30159 0.87974 0.6218 0.0
C412 C 0.30582 0.91007 0.63302 0.0
Co413 Co 0.17147 0.50026 0.61538 0.0
Co414 Co 0.17898 0.51001 0.71289 0.0
O415 O 0.15415 0.48593 0.66702 0.0
C416 C 0.10422 0.49428 0.60987 0.0
O417 O 0.1095 0.50987 0.64271 0.0
C418 C 0.17571 0.45417 0.75917 0.0
O419 O 0.20866 0.46971 0.75941 0.0
O420 O 0.21935 0.50784 0.69574 0.0
O421 O 0.21775 0.51336 0.6323 0.0
H422 H 0.27893 0.59714 0.78555 0.0
H423 H 0.11395 0.43229 0.62884 0.0
O424 O 0.12577 0.48749 0.59625 0.0
H425 H 0.20006 0.41432 0.56697 0.0
H426 H 0.16805 0.49149 0.47209 0.0
H427 H 0.23178 0.55896 0.5833 0.0
H428 H 0.21056 0.47155 0.5793 0.0
H429 H 0.14723 0.47268 0.53732 0.0
O430 O 0.16036 0.46582 0.73979 0.0
H431 H 0.24729 0.56686 0.72818 0.0
H432 H 0.16248 0.50361 0.79611 0.0
H433 H 0.25375 0.57847 0.51856 0.0
H434 H 0.10215 0.37454 0.61669 0.0
H435 H 0.22178 0.54466 0.46239 0.0
H436 H 0.14544 0.36529 0.58561 0.0
O437 O 0.17989 0.54634 0.62631 0.0
H438 H 0.05585 0.46411 0.73691 0.0
H439 H 0.16817 0.56503 0.74185 0.0
H440 H 0.11868 0.56909 0.76077 0.0
H441 H 0.06202 0.51836 0.7585 0.0
H442 H 0.10597 0.46122 0.71778 0.0
H443 H 0.19327 0.5331 0.85426 0.0
H444 H 0.25193 0.58026 0.8492 0.0
O445 O 0.19698 0.55433 0.68729 0.0
C446 C 0.23278 0.51312 0.66271 0.0
C447 C 0.25342 0.57657 0.78815 0.0
C448 C 0.20535 0.54063 0.82671 0.0
N449 N 0.20315 0.53331 0.75876 0.0
C450 C 0.23538 0.5593 0.75576 0.0
C451 C 0.18807 0.52396 0.79368 0.0
C452 C 0.23825 0.56709 0.82384 0.0
C453 C 0.13286 0.42843 0.61522 0.0
N454 N 0.16297 0.45526 0.60492 0.0
C455 C 0.12606 0.39569 0.60846 0.0
C456 C 0.15036 0.39052 0.59104 0.0
C457 C 0.18103 0.41801 0.58062 0.0
C458 C 0.18694 0.45038 0.58786 0.0
C459 C 0.18226 0.50641 0.49633 0.0
C460 C 0.21786 0.54398 0.55901 0.0
C461 C 0.17055 0.49594 0.53335 0.0
N462 N 0.18839 0.51461 0.56412 0.0
C463 C 0.23037 0.55521 0.52242 0.0
C464 C 0.2124 0.53624 0.49092 0.0
C465 C 0.19266 0.56503 0.65553 0.0
C466 C 0.08042 0.48636 0.73816 0.0
C467 C 0.1436 0.54285 0.7406 0.0
C468 C 0.11567 0.54529 0.75147 0.0
C469 C 0.08389 0.51682 0.75021 0.0
N470 N 0.14002 0.51285 0.72892 0.0
C471 C 0.10892 0.48485 0.72752 0.0
Co472 Co 0.52354 0.69162 0.7301 0.0
Co473 Co 0.54317 0.6994 0.63369 0.0
O474 O 0.55314 0.69524 0.68741 0.0
C475 C 0.59405 0.73998 0.75827 0.0
O476 O 0.60732 0.74072 0.72495 0.0
C477 C 0.55131 0.63923 0.62752 0.0
O478 O 0.53206 0.62621 0.65755 0.0
O479 O 0.49682 0.66014 0.63834 0.0
O480 O 0.48339 0.66102 0.6996 0.0
H481 H 0.4726 0.70332 0.5266 0.0
H482 H 0.57864 0.67595 0.74118 0.0
O483 O 0.56249 0.72233 0.7635 0.0
H484 H 0.47488 0.57331 0.77825 0.0
H485 H 0.48735 0.67894 0.86762 0.0
H486 H 0.45932 0.69194 0.73539 0.0
H487 H 0.47291 0.62324 0.7567 0.0
H488 H 0.52457 0.68338 0.81457 0.0
O489 O 0.55961 0.6687 0.61652 0.0
H490 H 0.48613 0.69892 0.59363 0.0
H491 H 0.57936 0.70864 0.55999 0.0
H492 H 0.42127 0.68727 0.78751 0.0
H493 H 0.58177 0.62678 0.76297 0.0
H494 H 0.4352 0.68072 0.85422 0.0
H495 H 0.52962 0.5749 0.78166 0.0
O496 O 0.52063 0.73113 0.71156 0.0
H497 H 0.66869 0.75891 0.64686 0.0
H498 H 0.5722 0.76925 0.60372 0.0
H499 H 0.62936 0.81777 0.59802 0.0
H500 H 0.67814 0.81274 0.61956 0.0
H501 H 0.61098 0.71119 0.65263 0.0
H502 H 0.56663 0.71265 0.49259 0.0
H503 H 0.51297 0.71015 0.47553 0.0
O504 O 0.52633 0.73012 0.64815 0.0
C505 C 0.47592 0.64947 0.66587 0.0
C506 C 0.49609 0.70451 0.53368 0.0
C507 C 0.54884 0.70971 0.51458 0.0
N508 N 0.53353 0.70361 0.58076 0.0
C509 C 0.50393 0.70212 0.5716 0.0
C510 C 0.55586 0.70732 0.55281 0.0
C511 C 0.51874 0.70831 0.50503 0.0
C512 C 0.55589 0.65379 0.74981 0.0
N513 N 0.52573 0.65286 0.74831 0.0
C514 C 0.55779 0.62586 0.76189 0.0
C515 C 0.52852 0.59674 0.77229 0.0
C516 C 0.49781 0.59583 0.77039 0.0
C517 C 0.49687 0.62423 0.75814 0.0
C518 C 0.48099 0.68175 0.83867 0.0
C519 C 0.4655 0.68893 0.7643 0.0
C520 C 0.50203 0.68438 0.80852 0.0
N521 N 0.49406 0.68774 0.77186 0.0
C522 C 0.44388 0.68637 0.79372 0.0
C523 C 0.45172 0.68273 0.83114 0.0
C524 C 0.51981 0.74148 0.67807 0.0
C525 C 0.64764 0.76143 0.6374 0.0
C526 C 0.59321 0.767 0.61367 0.0
C527 C 0.62557 0.79449 0.61011 0.0
C528 C 0.65293 0.79164 0.62213 0.0
N529 N 0.58821 0.73749 0.6288 0.0
C530 C 0.61492 0.73446 0.64047 0.0
H531 H 0.13875 0.07556 0.96529 0.0
H532 H 0.19305 0.10657 0.07265 0.0
H533 H 0.17768 0.15068 0.07907 0.0
H534 H 0.15748 0.15984 0.93296 0.0
H535 H 0.1161 0.14368 0.91297 0.0
H536 H 0.13528 0.11774 0.91415 0.0
H537 H 0.0838 0.07177 0.95053 0.0
H538 H 0.06446 0.09742 0.9493 0.0
H539 H 0.07076 0.08249 0.9943 0.0
H540 H 0.15113 0.18658 0.07759 0.0
H541 H 0.11334 0.20978 0.06994 0.0
H542 H 0.07658 0.15575 0.96344 0.0
C543 C 0.14807 0.09199 0.98985 0.0
C544 C 0.16738 0.08767 0.01836 0.0
C545 C 0.17847 0.10947 0.05029 0.0
C546 C 0.16998 0.13472 0.05409 0.0
C547 C 0.15061 0.13797 0.02562 0.0
C548 C 0.13981 0.1172 0.9941 0.0
C549 C 0.11663 0.12371 0.96938 0.0
C550 C 0.13232 0.13704 0.93003 0.0
C551 C 0.08186 0.09197 0.9657 0.0
C552 C 0.11504 0.15061 0.99266 0.0
C553 C 0.13527 0.15884 0.02468 0.0
C554 C 0.13568 0.18078 0.05233 0.0
C555 C 0.11407 0.19375 0.04781 0.0
C556 C 0.09233 0.18474 0.01597 0.0
C557 C 0.09363 0.16377 0.98746 0.0
H558 H 0.85756 0.94771 0.06301 0.0
H559 H 0.85234 0.92527 0.94198 0.0
H560 H 0.88172 0.98607 0.92799 0.0
H561 H 0.84847 0.02244 0.05598 0.0
H562 H 0.87816 0.0435 0.09392 0.0
H563 H 0.85291 0.9984 0.09376 0.0
H564 H 0.9068 0.99393 0.09766 0.0
H565 H 0.93229 0.03891 0.0975 0.0
H566 H 0.93906 0.01444 0.06213 0.0
H567 H 0.91615 0.04919 0.92793 0.0
H568 H 0.95298 0.10928 0.94117 0.0
H569 H 0.93681 0.08973 0.06275 0.0
C570 C 0.86188 0.95532 0.03341 0.0
C571 C 0.85241 0.93155 0.00355 0.0
C572 C 0.85908 0.94292 0.96534 0.0
C573 C 0.87577 0.97741 0.95713 0.0
C574 C 0.88552 8e-05 0.98745 0.0
C575 C 0.87869 0.98944 0.02481 0.0
C576 C 0.89411 0.01864 0.05245 0.0
C577 C 0.86677 0.02087 0.07537 0.0
C578 C 0.91957 0.01633 0.07898 0.0
C579 C 0.91133 0.04752 0.02484 0.0
C580 C 0.90577 0.03633 0.98748 0.0
C581 C 0.92034 0.05824 0.95703 0.0
C582 C 0.94132 0.09241 0.96495 0.0
C583 C 0.94778 0.10443 0.0031 0.0
C584 C 0.93221 0.08153 0.0333 0.0
H585 H 0.92665 0.86386 0.98827 0.0
H586 H 0.9168 0.86233 0.11157 0.0
H587 H 0.9781 0.8869 0.11786 0.0
H588 H 0.99733 0.84694 0.98411 0.0
H589 H 0.01677 0.87544 0.94486 0.0
H590 H 0.97175 0.85344 0.95007 0.0
H591 H 0.97244 0.91007 0.94927 0.0
H592 H 0.01739 0.93228 0.94433 0.0
H593 H 0.99817 0.94222 0.9832 0.0
H594 H 0.0401 0.91714 0.11085 0.0
H595 H 0.09899 0.95103 0.0916 0.0
H596 H 0.06924 0.93347 0.9724 0.0
C597 C 0.93717 0.86792 0.01668 0.0
C598 C 0.91677 0.86094 0.04948 0.0
C599 C 0.9318 0.86726 0.08604 0.0
C600 C 0.96661 0.88116 0.0899 0.0
C601 C 0.98599 0.88852 0.05695 0.0
C602 C 0.97184 0.88203 0.02104 0.0
C603 C 0.99852 0.89498 0.99021 0.0
C604 C 0.99593 0.86596 0.96588 0.0
C605 C 0.9965 0.92146 0.9653 0.0
C606 C 0.02999 0.91054 0.01447 0.0
C607 C 0.02209 0.90618 0.05285 0.0
C608 C 0.04664 0.92019 0.08091 0.0
C609 C 0.08014 0.93945 0.06956 0.0
C610 C 0.089 0.94463 0.03037 0.0
C611 C 0.06346 0.92951 0.00253 0.0
H612 H 0.82155 0.42435 0.39675 0.0
H613 H 0.86472 0.44721 0.28313 0.0
H614 H 0.83918 0.48227 0.27152 0.0
H615 H 0.74456 0.4134 0.37072 0.0
H616 H 0.73794 0.43177 0.41292 0.0
H617 H 0.76413 0.41301 0.4151 0.0
H618 H 0.81336 0.46854 0.44132 0.0
H619 H 0.78716 0.48741 0.43958 0.0
H620 H 0.82704 0.507 0.41533 0.0
H621 H 0.80295 0.50877 0.26884 0.0
H622 H 0.76049 0.5264 0.27689 0.0
H623 H 0.74097 0.48587 0.39182 0.0
C624 C 0.82656 0.43759 0.36991 0.0
C625 C 0.84542 0.43316 0.34103 0.0
C626 C 0.85061 0.45032 0.30589 0.0
C627 C 0.83618 0.47035 0.29895 0.0
C628 C 0.81666 0.47315 0.32743 0.0
C629 C 0.8121 0.45751 0.36238 0.0
C630 C 0.78756 0.46209 0.38684 0.0
C631 C 0.75673 0.42805 0.39696 0.0
C632 C 0.80483 0.48248 0.4229 0.0
C633 C 0.77841 0.48187 0.35977 0.0
C634 C 0.79563 0.4883 0.32578 0.0
C635 C 0.78969 0.50441 0.2956 0.0
C636 C 0.76546 0.51422 0.30036 0.0
C637 C 0.74744 0.50775 0.335 0.0
C638 C 0.75442 0.4916 0.36504 0.0
H639 H 0.54197 0.27519 0.39299 0.0
H640 H 0.51428 0.25556 0.27336 0.0
H641 H 0.53438 0.31595 0.26385 0.0
H642 H 0.52075 0.34163 0.40697 0.0
H643 H 0.55609 0.36506 0.43818 0.0
H644 H 0.53612 0.31997 0.4362 0.0
H645 H 0.59333 0.32456 0.42023 0.0
H646 H 0.61344 0.36957 0.42205 0.0
H647 H 0.61696 0.34918 0.3798 0.0
H648 H 0.56292 0.37885 0.26627 0.0
H649 H 0.59756 0.43912 0.27974 0.0
H650 H 0.60537 0.41708 0.39842 0.0
C651 C 0.53941 0.28324 0.36483 0.0
C652 C 0.52626 0.26044 0.33393 0.0
C653 C 0.52397 0.27243 0.29754 0.0
C654 C 0.53528 0.30667 0.2919 0.0
C655 C 0.54853 0.32842 0.32299 0.0
C656 C 0.55047 0.3171 0.35877 0.0
C657 C 0.56785 0.3457 0.38694 0.0
C658 C 0.54376 0.34292 0.41896 0.0
C659 C 0.59978 0.34734 0.40318 0.0
C660 C 0.57624 0.37516 0.36118 0.0
C661 C 0.56464 0.36464 0.3245 0.0
C662 C 0.57156 0.38734 0.29502 0.0
C663 C 0.5913 0.42163 0.30305 0.0
C664 C 0.60391 0.43302 0.34033 0.0
C665 C 0.59561 0.40934 0.36985 0.0
H666 H 0.6178 0.21004 0.39394 0.0
H667 H 0.59223 0.17901 0.27592 0.0
H668 H 0.65227 0.20659 0.25974 0.0
H669 H 0.68267 0.28985 0.37403 0.0
H670 H 0.70918 0.29202 0.41306 0.0
H671 H 0.66438 0.26571 0.41667 0.0
H672 H 0.67136 0.2142 0.43075 0.0
H673 H 0.71629 0.24048 0.42753 0.0
H674 H 0.6949 0.20348 0.39816 0.0
H675 H 0.7155 0.24328 0.2549 0.0
H676 H 0.77614 0.28415 0.26318 0.0
H677 H 0.75876 0.29061 0.3839 0.0
C678 C 0.62474 0.20817 0.36492 0.0
C679 C 0.60017 0.19209 0.33637 0.0
C680 C 0.61049 0.19094 0.29849 0.0
C681 C 0.64461 0.20658 0.28891 0.0
C682 C 0.66817 0.2232 0.3175 0.0
C683 C 0.65865 0.22381 0.35481 0.0
C684 C 0.68866 0.24557 0.3796 0.0
C685 C 0.68605 0.27502 0.39683 0.0
C686 C 0.69306 0.22467 0.41085 0.0
C687 C 0.71637 0.25755 0.35027 0.0
C688 C 0.70429 0.24432 0.31464 0.0
C689 C 0.72535 0.25344 0.28284 0.0
C690 C 0.7597 0.27671 0.28773 0.0
C691 C 0.77242 0.29056 0.32414 0.0
C692 C 0.75023 0.28046 0.35563 0.0
H693 H 0.40652 0.82323 0.72216 0.0
H694 H 0.4224 0.85742 0.60461 0.0
H695 H 0.46329 0.83785 0.59676 0.0
H696 H 0.49252 0.84304 0.74286 0.0
H697 H 0.47899 0.80579 0.77118 0.0
H698 H 0.45345 0.82535 0.76869 0.0
H699 H 0.40282 0.76924 0.74602 0.0
H700 H 0.42812 0.74949 0.74849 0.0
H701 H 0.40726 0.74851 0.7046 0.0
H702 H 0.49902 0.81117 0.6003 0.0
H703 H 0.5253 0.7771 0.61352 0.0
H704 H 0.486 0.7598 0.729 0.0
C705 C 0.41889 0.82712 0.69486 0.0
C706 C 0.41134 0.8421 0.66402 0.0
C707 C 0.42781 0.84614 0.62867 0.0
C708 C 0.45117 0.83523 0.62399 0.0
C709 C 0.45774 0.82033 0.65491 0.0
C710 C 0.44201 0.81617 0.68962 0.0
C711 C 0.45164 0.79721 0.71746 0.0
C712 C 0.47027 0.81917 0.7521 0.0
C713 C 0.42062 0.76416 0.72985 0.0
C714 C 0.4749 0.79082 0.69275 0.0
C715 C 0.4783 0.8047 0.65693 0.0
C716 C 0.49689 0.80056 0.62837 0.0
C717 C 0.5118 0.78113 0.63627 0.0
C718 C 0.50808 0.76593 0.67249 0.0
C719 C 0.48989 0.77151 0.70129 0.0
H720 H 0.28446 0.75566 0.72412 0.0
H721 H 0.24754 0.7779 0.62074 0.0
H722 H 0.2148 0.71771 0.60579 0.0
H723 H 0.29779 0.69476 0.68492 0.0
H724 H 0.28482 0.66732 0.72569 0.0
H725 H 0.30106 0.71159 0.73219 0.0
H726 H 0.24698 0.69977 0.76805 0.0
H727 H 0.23076 0.65535 0.76228 0.0
H728 H 0.20665 0.67402 0.74587 0.0
H729 H 0.19234 0.65629 0.5973 0.0
H730 H 0.17769 0.5968 0.59901 0.0
H731 H 0.22939 0.61442 0.70761 0.0
C732 C 0.26853 0.74777 0.69911 0.0
C733 C 0.26845 0.77151 0.67371 0.0
C734 C 0.24797 0.76021 0.64067 0.0
C735 C 0.22925 0.72602 0.63189 0.0
C736 C 0.23113 0.70336 0.65651 0.0
C737 C 0.24982 0.71364 0.68976 0.0
C738 C 0.24967 0.68437 0.70966 0.0
C739 C 0.28546 0.68985 0.7133 0.0
C740 C 0.23248 0.678 0.74878 0.0
C741 C 0.22876 0.65636 0.68187 0.0
C742 C 0.21816 0.66777 0.65152 0.0
C743 C 0.20001 0.64687 0.62124 0.0
C744 C 0.19203 0.61319 0.62231 0.0
C745 C 0.20223 0.60084 0.65346 0.0
C746 C 0.22089 0.6229 0.68351 0.0
H747 H 0.2823 0.54031 0.71746 0.0
H748 H 0.26492 0.51052 0.59843 0.0
H749 H 0.32565 0.53687 0.58799 0.0
H750 H 0.34786 0.61956 0.70079 0.0
H751 H 0.3723 0.62223 0.7422 0.0
H752 H 0.32746 0.59536 0.74277 0.0
H753 H 0.33443 0.54444 0.76008 0.0
H754 H 0.37941 0.57127 0.75998 0.0
H755 H 0.36016 0.53421 0.73048 0.0
H756 H 0.38805 0.57338 0.58772 0.0
H757 H 0.44756 0.61579 0.59885 0.0
H758 H 0.42431 0.62298 0.7174 0.0
C759 C 0.2912 0.53833 0.68954 0.0
C760 C 0.26866 0.52303 0.6589 0.0
C761 C 0.2815 0.52175 0.62253 0.0
C762 C 0.31608 0.53672 0.61623 0.0
C763 C 0.33767 0.55294 0.64655 0.0
C764 C 0.32578 0.55362 0.68262 0.0
C765 C 0.35429 0.57581 0.70921 0.0
C766 C 0.35023 0.60496 0.72462 0.0
C767 C 0.35724 0.55519 0.74187 0.0
C768 C 0.38378 0.58821 0.68212 0.0
C769 C 0.37378 0.57445 0.64625 0.0
C770 C 0.39634 0.5839 0.6159 0.0
C771 C 0.43007 0.6081 0.62243 0.0
C772 C 0.4408 0.62269 0.65899 0.0
C773 C 0.4172 0.61219 0.68915 0.0
H774 H 0.13694 0.30477 0.90442 0.0
H775 H 0.04445 0.304 0.93225 0.0
H776 H 0.06027 0.35151 0.8888 0.0
H777 H 0.18937 0.3973 0.89639 0.0
H778 H 0.21363 0.39465 0.85755 0.0
H779 H 0.19619 0.36203 0.89303 0.0
H780 H 0.16651 0.31787 0.8397 0.0
H781 H 0.18336 0.35036 0.80412 0.0
H782 H 0.13867 0.32245 0.80722 0.0
H783 H 0.08246 0.3943 0.83728 0.0
H784 H 0.11369 0.43578 0.78733 0.0
H785 H 0.1938 0.41191 0.79461 0.0
C786 C 0.12036 0.31507 0.90202 0.0
C787 C 0.08943 0.30057 0.92184 0.0
C788 C 0.06837 0.3147 0.91768 0.0
C789 C 0.07703 0.34162 0.89284 0.0
C790 C 0.10709 0.35455 0.8728 0.0
C791 C 0.12884 0.34231 0.87768 0.0
C792 C 0.15946 0.36067 0.85224 0.0
C793 C 0.19156 0.37981 0.87624 0.0
C794 C 0.16214 0.33638 0.82416 0.0
C795 C 0.15108 0.38457 0.83169 0.0
C796 C 0.12061 0.38035 0.84386 0.0
C797 C 0.10658 0.39821 0.8279 0.0
C798 C 0.12444 0.42153 0.79925 0.0
C799 C 0.15626 0.42716 0.78705 0.0
C800 C 0.16965 0.4083 0.80351 0.0
H801 H 0.7528 0.79769 0.8941 0.0
H802 H 0.69978 0.82143 0.97998 0.0
H803 H 0.65288 0.80551 0.93473 0.0
H804 H 0.72836 0.8297 0.81385 0.0
H805 H 0.7245 0.79731 0.78175 0.0
H806 H 0.75372 0.81034 0.82092 0.0
H807 H 0.7258 0.74901 0.84494 0.0
H808 H 0.69664 0.73574 0.80574 0.0
H809 H 0.68125 0.7263 0.85399 0.0
H810 H 0.61083 0.78458 0.88105 0.0
H811 H 0.57716 0.76155 0.82246 0.0
H812 H 0.65902 0.75443 0.77037 0.0
C813 C 0.73128 0.79944 0.90351 0.0
C814 C 0.72984 0.81063 0.94069 0.0
C815 C 0.7014 0.81292 0.95166 0.0
C816 C 0.67468 0.80395 0.92615 0.0
C817 C 0.67699 0.79315 0.88967 0.0
C818 C 0.70465 0.79103 0.87829 0.0
C819 C 0.70104 0.77884 0.83746 0.0
C820 C 0.72854 0.80566 0.812 0.0
C821 C 0.70118 0.74549 0.83543 0.0
C822 C 0.66681 0.77404 0.82769 0.0
C823 C 0.65333 0.78232 0.85827 0.0
C824 C 0.62128 0.77838 0.85681 0.0
C825 C 0.60237 0.76529 0.82341 0.0
C826 C 0.61566 0.75662 0.79173 0.0
C827 C 0.64849 0.7615 0.79383 0.0
H828 H 0.29495 0.88964 0.81797 0.0
H829 H 0.22858 0.8747 0.72264 0.0
H830 H 0.19554 0.89135 0.7635 0.0
H831 H 0.2308 0.85886 0.89184 0.0
H832 H 0.25787 0.88958 0.92633 0.0
H833 H 0.27551 0.87518 0.89006 0.0
H834 H 0.31468 0.9365 0.86841 0.0
H835 H 0.29728 0.95109 0.90468 0.0
H836 H 0.29674 0.96217 0.85552 0.0
H837 H 0.17184 0.91279 0.81345 0.0
H838 H 0.15889 0.93732 0.869 0.0
H839 H 0.23963 0.93681 0.93258 0.0
C840 C 0.27334 0.88964 0.80567 0.0
C841 C 0.26432 0.88079 0.76704 0.0
C842 C 0.23592 0.88125 0.75215 0.0
C843 C 0.21697 0.89064 0.77515 0.0
C844 C 0.22661 0.89927 0.81305 0.0
C845 C 0.25406 0.89877 0.82826 0.0
C846 C 0.25965 0.91009 0.86956 0.0
C847 C 0.25571 0.88173 0.896 0.0
C848 C 0.29413 0.94185 0.87483 0.0
C849 C 0.23129 0.9175 0.8751 0.0
C850 C 0.21252 0.91103 0.84213 0.0
C851 C 0.18611 0.91758 0.83953 0.0
C852 C 0.17897 0.93154 0.87124 0.0
C853 C 0.19803 0.93866 0.90523 0.0
C854 C 0.2242 0.93103 0.90727 0.0
H855 H 0.39989 0.17811 0.23465 0.0
H856 H 0.40569 0.08832 0.25698 0.0
H857 H 0.36294 0.05806 0.20745 0.0
H858 H 0.30855 0.13367 0.21793 0.0
H859 H 0.31188 0.16285 0.18161 0.0
H860 H 0.34198 0.17672 0.21991 0.0
H861 H 0.39003 0.19819 0.17021 0.0
H862 H 0.36003 0.18355 0.13178 0.0
H863 H 0.39017 0.16947 0.13527 0.0
H864 H 0.32409 0.03941 0.15096 0.0
H865 H 0.28257 0.02956 0.10086 0.0
H866 H 0.299 0.13019 0.11808 0.0
C867 C 0.39166 0.15188 0.22967 0.0
C868 C 0.40628 0.13566 0.24958 0.0
C869 C 0.3948 0.10129 0.24225 0.0
C870 C 0.37075 0.08396 0.21388 0.0
C871 C 0.35794 0.10113 0.19365 0.0
C872 C 0.36722 0.13401 0.20195 0.0
C873 C 0.34897 0.14637 0.17659 0.0
C874 C 0.3265 0.15542 0.20043 0.0
C875 C 0.37379 0.17616 0.15202 0.0
C876 C 0.32829 0.11543 0.15242 0.0
C877 C 0.33429 0.08982 0.1623 0.0
C878 C 0.31884 0.05912 0.14331 0.0
C879 C 0.29552 0.0539 0.11458 0.0
C880 C 0.28735 0.07905 0.10564 0.0
C881 C 0.30463 0.11046 0.12429 0.0
H882 H 0.94781 0.26429 0.09619 0.0
H883 H 0.92719 0.16953 0.14554 0.0
H884 H 0.90205 0.18074 0.20198 0.0
H885 H 0.97452 0.30981 0.18086 0.0
H886 H 0.95696 0.33642 0.17131 0.0
H887 H 0.96881 0.31897 0.13238 0.0
H888 H 0.90867 0.29231 0.10446 0.0
H889 H 0.89678 0.31014 0.14305 0.0
H890 H 0.87323 0.26562 0.13411 0.0
H891 H 0.88241 0.2043 0.25526 0.0
H892 H 0.87019 0.23842 0.30037 0.0
H893 H 0.90711 0.3187 0.21703 0.0
C894 C 0.93699 0.24543 0.1183 0.0
C895 C 0.93887 0.21579 0.11626 0.0
C896 C 0.9256 0.19224 0.14642 0.0
C897 C 0.91133 0.1984 0.1786 0.0
C898 C 0.91078 0.22838 0.18034 0.0
C899 C 0.92318 0.25147 0.15092 0.0
C900 C 0.92223 0.28295 0.16114 0.0
C901 C 0.95774 0.31385 0.16145 0.0
C902 C 0.89882 0.28804 0.13408 0.0
C903 C 0.90776 0.27413 0.20097 0.0
C904 C 0.90092 0.24245 0.21149 0.0
C905 C 0.88757 0.22913 0.24725 0.0
C906 C 0.88082 0.2487 0.27273 0.0
C907 C 0.88789 0.28134 0.26245 0.0
C908 C 0.90163 0.29401 0.22608 0.0
H909 H 0.73505 0.61144 0.22706 0.0
H910 H 0.76721 0.66986 0.33139 0.0
H911 H 0.79345 0.72224 0.29315 0.0
H912 H 0.81036 0.66708 0.17104 0.0
H913 H 0.78654 0.65991 0.12778 0.0
H914 H 0.77244 0.62755 0.16349 0.0
H915 H 0.71488 0.62494 0.16602 0.0
H916 H 0.72879 0.65743 0.13059 0.0
H917 H 0.71336 0.66265 0.17584 0.0
H918 H 0.80981 0.76753 0.2435 0.0
H919 H 0.82081 0.80289 0.18644 0.0
H920 H 0.78133 0.71458 0.11428 0.0
C921 C 0.74797 0.63528 0.24187 0.0
C922 C 0.74901 0.6368 0.28213 0.0
C923 C 0.76633 0.66831 0.30055 0.0
C924 C 0.78115 0.69806 0.27906 0.0
C925 C 0.77895 0.69564 0.23933 0.0
C926 C 0.76336 0.665 0.22093 0.0
C927 C 0.76395 0.66906 0.17803 0.0
C928 C 0.78456 0.65508 0.15897 0.0
C929 C 0.72812 0.65255 0.16168 0.0
C930 C 0.7815 0.70688 0.17501 0.0
C931 C 0.78981 0.72173 0.21072 0.0
C932 C 0.804 0.75622 0.21543 0.0
C933 C 0.80995 0.77604 0.18287 0.0
C934 C 0.80214 0.76141 0.14602 0.0
C935 C 0.78805 0.72641 0.14208 0.0
H936 H 0.09731 0.48574 0.53296 0.0
H937 H 0.04281 0.48266 0.6353 0.0
H938 H 0.99137 0.46424 0.59659 0.0
H939 H 0.0554 0.51671 0.46937 0.0
H940 H 0.05595 0.49214 0.42959 0.0
H941 H 0.08861 0.50683 0.46512 0.0
H942 H 0.07561 0.44589 0.47647 0.0
H943 H 0.04295 0.43096 0.44107 0.0
H944 H 0.03347 0.41403 0.48866 0.0
H945 H 0.94508 0.44051 0.54774 0.0
H946 H 0.90772 0.41653 0.492 0.0
H947 H 0.99342 0.4386 0.42075 0.0
C948 C 0.07461 0.4814 0.54726 0.0
C949 C 0.07386 0.48534 0.58717 0.0
C950 C 0.04384 0.47981 0.60475 0.0
C951 C 0.01459 0.46936 0.583 0.0
C952 C 0.01613 0.46528 0.54372 0.0
C953 C 0.0455 0.47157 0.52596 0.0
C954 C 0.04045 0.46467 0.48352 0.0
C955 C 0.06135 0.49702 0.46055 0.0
C956 C 0.04859 0.43725 0.47176 0.0
C957 C 0.0033 0.45248 0.4802 0.0
C958 C 0.98976 0.45304 0.51529 0.0
C959 C 0.9555 0.44057 0.52005 0.0
C960 C 0.9345 0.42692 0.48827 0.0
C961 C 0.94785 0.42618 0.45209 0.0
C962 C 0.98275 0.43962 0.44792 0.0
H963 H 0.61227 0.59384 0.43511 0.0
H964 H 0.60657 0.50813 0.49358 0.0
H965 H 0.58482 0.52199 0.5511 0.0
H966 H 0.64269 0.64849 0.51426 0.0
H967 H 0.61993 0.67 0.50348 0.0
H968 H 0.63173 0.65146 0.46564 0.0
H969 H 0.56959 0.61671 0.44418 0.0
H970 H 0.5577 0.63546 0.48176 0.0
H971 H 0.53801 0.59045 0.47827 0.0
H972 H 0.56505 0.54646 0.60328 0.0
H973 H 0.55046 0.58051 0.64571 0.0
H974 H 0.5726 0.65151 0.55368 0.0
C975 C 0.6057 0.57757 0.45972 0.0
C976 C 0.61065 0.54966 0.45975 0.0
C977 C 0.60272 0.52952 0.4929 0.0
C978 C 0.59035 0.53718 0.5257 0.0
C979 C 0.58639 0.56528 0.52506 0.0
C980 C 0.59389 0.5852 0.49293 0.0
C981 C 0.58953 0.6152 0.50041 0.0
C982 C 0.62296 0.64823 0.49567 0.0
C983 C 0.56206 0.61439 0.47463 0.0
C984 C 0.57855 0.60911 0.5417 0.0
C985 C 0.57652 0.58005 0.55541 0.0
C986 C 0.56659 0.56931 0.59283 0.0
C987 C 0.5584 0.58878 0.61674 0.0
C988 C 0.56069 0.61883 0.60322 0.0
C989 C 0.57098 0.62894 0.56519 0.0
H990 H 0.39314 0.94281 0.54746 0.0
H991 H 0.45642 0.99522 0.64449 0.0
H992 H 0.49182 0.04374 0.60278 0.0
H993 H 0.46013 0.97265 0.47715 0.0
H994 H 0.43457 0.97557 0.44006 0.0
H995 H 0.41532 0.94478 0.47728 0.0
H996 H 0.37593 0.96818 0.49362 0.0
H997 H 0.39487 0.99889 0.45639 0.0
H998 H 0.39379 0.01215 0.50451 0.0
H999 H 0.51694 0.08799 0.5514 0.0
H1000 H 0.53105 0.12403 0.49442 0.0
H1001 H 0.45296 0.04103 0.4304 0.0
C1002 C 0.41445 0.96443 0.56008 0.0
C1003 C 0.4219 0.9654 0.59934 0.0
C1004 C 0.45028 0.99401 0.6145 0.0
C1005 C 0.4705 0.02159 0.59102 0.0
C1006 C 0.46224 0.0198 0.55243 0.0
C1007 C 0.43503 0.9918 0.53706 0.0
C1008 C 0.43097 0.99623 0.49497 0.0
C1009 C 0.43553 0.97079 0.47095 0.0
C1010 C 0.39687 0.99373 0.48692 0.0
C1011 C 0.45974 0.03155 0.48907 0.0
C1012 C 0.47749 0.0447 0.52257 0.0
C1013 C 0.5036 0.07775 0.52491 0.0
C1014 C 0.51141 0.09801 0.49243 0.0
C1015 C 0.49341 0.08508 0.45794 0.0
C1016 C 0.46768 0.05125 0.45611 0.0
loop_
_geom_bond_atom_site_label_1
_geom_bond_atom_site_label_2
_geom_bond_distance
_geom_bond_site_symmetry_2
_ccdc_geom_bond_type
Co0 O2 2.143 . S
Co0 O8 2.074 . S
Co0 O11 2.093 1_455 S
Co0 O24 2.097 1_455 S
Co0 N41 2.151 . S
Co0 N49 2.214 . S
Co1 O2 2.160 1_556 S
Co1 O7 2.058 . S
Co1 O17 2.057 . S
Co1 O32 2.037 1_455 S
Co1 N36 2.145 . S
Co1 N57 2.257 1_455 S
O2 Co0 2.143 . S
O2 Co1 2.160 1_554 S
C3 O4 1.278 . S
C3 O11 1.224 . S
O4 C3 1.278 . S
C5 O6 1.245 . S
C5 O17 1.232 . S
O6 C5 1.245 . S
O7 Co1 2.058 . S
O7 C33 1.269 1_556 S
O8 Co0 2.074 . S
O8 C33 1.257 . S
H9 C34 0.930 . S
H10 C40 0.930 . S
O11 Co0 2.093 1_655 S
O11 C3 1.224 . S
H12 C44 0.929 . S
H13 C46 0.930 . S
H14 C47 0.930 . S
H15 C45 0.929 . S
H16 C48 0.928 . S
O17 Co1 2.057 . S
O17 C5 1.232 . S
H18 C37 0.929 . S
H19 C38 0.929 . S
H20 C50 0.931 . S
H21 C42 0.929 . S
H22 C51 0.930 . S
H23 C43 0.931 . S
O24 Co0 2.097 1_655 S
O24 C52 1.214 . S
H25 C53 0.929 . S
H26 C54 0.929 . S
H27 C55 0.930 . S
H28 C56 0.929 . S
H29 C58 0.930 . S
H30 C35 0.930 . S
H31 C39 0.930 . S
O32 Co1 2.037 1_655 S
O32 C52 1.234 1_556 S
C33 O7 1.269 1_554 S
C33 O8 1.257 . S
C34 H9 0.930 . S
C34 C37 1.388 . S
C34 C39 1.418 . S
C35 H30 0.930 . S
C35 C38 1.404 . S
C35 C39 1.353 1_455 S
N36 Co1 2.145 . S
N36 C37 1.397 1_455 S
N36 C38 1.334 . S
C37 H18 0.929 . S
C37 C34 1.388 . S
C37 N36 1.397 1_655 S
C38 H19 0.929 . S
C38 C35 1.404 . S
C38 N36 1.334 . S
C39 H31 0.930 . S
C39 C34 1.418 . S
C39 C35 1.353 1_655 S
C40 H10 0.930 . S
C40 N41 1.330 . S
C40 C42 1.446 . S
N41 Co0 2.151 . S
N41 C40 1.330 . S
N41 C45 1.418 . S
C42 H21 0.929 . S
C42 C40 1.446 . S
C42 C43 1.332 . S
C43 H23 0.931 . S
C43 C42 1.332 . S
C43 C44 1.267 . S
C44 H12 0.929 . S
C44 C43 1.267 . S
C44 C45 1.251 . S
C45 H15 0.929 . S
C45 N41 1.418 . S
C45 C44 1.251 . S
C46 H13 0.930 . S
C46 C48 1.406 . S
C46 C51 1.261 . S
C47 H14 0.930 . S
C47 N49 1.325 . S
C47 C50 1.357 . S
C48 H16 0.928 . S
C48 C46 1.406 . S
C48 N49 1.261 . S
N49 Co0 2.214 . S
N49 C47 1.325 . S
N49 C48 1.261 . S
C50 H20 0.931 . S
C50 C47 1.357 . S
C50 C51 1.312 . S
C51 H22 0.930 . S
C51 C46 1.261 . S
C51 C50 1.312 . S
C52 O24 1.214 . S
C52 O32 1.234 1_554 S
C53 H25 0.929 . S
C53 C56 1.391 . S
C53 C58 1.391 . S
C54 H26 0.929 . S
C54 C55 1.390 . S
C54 N57 1.391 . S
C55 H27 0.930 . S
C55 C54 1.390 . S
C55 C56 1.392 . S
C56 H28 0.929 . S
C56 C53 1.391 . S
C56 C55 1.392 . S
N57 Co1 2.257 1_655 S
N57 C54 1.391 . S
N57 C58 1.388 . S
C58 H29 0.930 . S
C58 C53 1.391 . S
C58 N57 1.388 . S
Co59 O61 2.143 1_556 S
Co59 O67 2.074 . S
Co59 O70 2.093 . S
Co59 O83 2.097 . S
Co59 N100 2.151 . S
Co59 N108 2.214 . S
Co60 O61 2.160 . S
Co60 O66 2.058 . S
Co60 O76 2.057 . S
Co60 O91 2.037 . S
Co60 N95 2.145 . S
Co60 N116 2.257 . S
O61 Co59 2.143 1_554 S
O61 Co60 2.160 . S
C62 O63 1.278 . S
C62 O70 1.224 . S
O63 C62 1.278 . S
C64 O65 1.245 . S
C64 O76 1.232 . S
O65 C64 1.245 . S
O66 Co60 2.058 . S
O66 C92 1.269 . S
O67 Co59 2.074 . S
O67 C92 1.257 1_556 S
H68 C93 0.930 . S
H69 C99 0.930 . S
O70 Co59 2.093 . S
O70 C62 1.224 . S
H71 C103 0.929 . S
H72 C105 0.930 . S
H73 C106 0.930 . S
H74 C104 0.929 . S
H75 C107 0.928 . S
O76 Co60 2.057 . S
O76 C64 1.232 . S
H77 C96 0.929 . S
H78 C97 0.929 . S
H79 C109 0.931 . S
H80 C101 0.929 . S
H81 C110 0.930 . S
H82 C102 0.931 . S
O83 Co59 2.097 . S
O83 C111 1.214 1_556 S
H84 C112 0.929 . S
H85 C113 0.929 . S
H86 C114 0.930 . S
H87 C115 0.929 . S
H88 C117 0.930 . S
H89 C94 0.930 . S
H90 C98 0.930 . S
O91 Co60 2.037 . S
O91 C111 1.234 . S
C92 O66 1.269 . S
C92 O67 1.257 1_554 S
C93 H68 0.930 . S
C93 C96 1.388 . S
C93 C98 1.418 . S
C94 H89 0.930 . S
C94 C97 1.404 . S
C94 C98 1.353 . S
N95 Co60 2.145 . S
N95 C96 1.397 . S
N95 C97 1.334 . S
C96 H77 0.929 . S
C96 C93 1.388 . S
C96 N95 1.397 . S
C97 H78 0.929 . S
C97 C94 1.404 . S
C97 N95 1.334 . S
C98 H90 0.930 . S
C98 C93 1.418 . S
C98 C94 1.353 . S
C99 H69 0.930 . S
C99 N100 1.330 . S
C99 C101 1.446 . S
N100 Co59 2.151 . S
N100 C99 1.330 . S
N100 C104 1.418 . S
C101 H80 0.929 . S
C101 C99 1.446 . S
C101 C102 1.332 . S
C102 H82 0.931 . S
C102 C101 1.332 . S
C102 C103 1.267 . S
C103 H71 0.929 . S
C103 C102 1.267 . S
C103 C104 1.251 . S
C104 H74 0.929 . S
C104 N100 1.418 . S
C104 C103 1.251 . S
C105 H72 0.930 . S
C105 C107 1.406 . S
C105 C110 1.261 . S
C106 H73 0.930 . S
C106 N108 1.325 . S
C106 C109 1.357 . S
C107 H75 0.928 . S
C107 C105 1.406 . S
C107 N108 1.261 . S
N108 Co59 2.214 . S
N108 C106 1.325 . S
N108 C107 1.261 . S
C109 H79 0.931 . S
C109 C106 1.357 . S
C109 C110 1.312 . S
C110 H81 0.930 . S
C110 C105 1.261 . S
C110 C109 1.312 . S
C111 O83 1.214 1_554 S
C111 O91 1.234 . S
C112 H84 0.929 . S
C112 C115 1.391 . S
C112 C117 1.391 . S
C113 H85 0.929 . S
C113 C114 1.390 . S
C113 N116 1.391 . S
C114 H86 0.930 . S
C114 C113 1.390 . S
C114 C115 1.392 . S
C115 H87 0.929 . S
C115 C112 1.391 . S
C115 C114 1.392 . S
N116 Co60 2.257 . S
N116 C113 1.391 . S
N116 C117 1.388 . S
C117 H88 0.930 . S
C117 C112 1.391 . S
C117 N116 1.388 . S
Co118 O120 2.143 . S
Co118 O126 2.074 1_545 S
Co118 O129 2.093 . S
Co118 O142 2.097 . S
Co118 N159 2.151 1_545 S
Co118 N167 2.214 . S
Co119 O120 2.160 1_556 S
Co119 O125 2.058 1_545 S
Co119 O135 2.055 . S
Co119 O150 2.037 . S
Co119 N154 2.145 . S
Co119 N175 2.257 . S
O120 Co118 2.143 . S
O120 Co119 2.160 1_554 S
C121 O122 1.278 . S
C121 O129 1.224 . S
O122 C121 1.278 . S
C123 O124 1.245 . S
C123 O135 1.234 1_565 S
O124 C123 1.245 . S
O125 Co119 2.058 1_565 S
O125 C151 1.269 1_556 S
O126 Co118 2.074 1_565 S
O126 C151 1.257 . S
H127 C152 0.930 . S
H128 C158 0.930 . S
O129 Co118 2.093 . S
O129 C121 1.224 . S
H130 C162 0.929 . S
H131 C164 0.930 . S
H132 C165 0.930 . S
H133 C163 0.929 . S
H134 C166 0.928 . S
O135 Co119 2.055 . S
O135 C123 1.234 1_545 S
H136 C155 0.929 . S
H137 C156 0.929 . S
H138 C168 0.931 . S
H139 C160 0.929 . S
H140 C169 0.930 . S
H141 C161 0.931 . S
O142 Co118 2.097 . S
O142 C170 1.214 . S
H143 C171 0.929 . S
H144 C172 0.929 . S
H145 C173 0.930 . S
H146 C174 0.929 . S
H147 C176 0.930 . S
H148 C153 0.930 . S
H149 C157 0.930 . S
O150 Co119 2.037 . S
O150 C170 1.234 1_556 S
C151 O125 1.269 1_554 S
C151 O126 1.257 . S
C152 H127 0.930 . S
C152 C155 1.388 . S
C152 C157 1.418 . S
C153 H148 0.930 . S
C153 C156 1.404 . S
C153 C157 1.353 . S
N154 Co119 2.145 . S
N154 C155 1.397 . S
N154 C156 1.334 . S
C155 H136 0.929 . S
C155 C152 1.388 . S
C155 N154 1.397 . S
C156 H137 0.929 . S
C156 C153 1.404 . S
C156 N154 1.334 . S
C157 H149 0.930 . S
C157 C152 1.418 . S
C157 C153 1.353 . S
C158 H128 0.930 . S
C158 N159 1.330 . S
C158 C160 1.446 . S
N159 Co118 2.151 1_565 S
N159 C158 1.330 . S
N159 C163 1.418 . S
C160 H139 0.929 . S
C160 C158 1.446 . S
C160 C161 1.332 . S
C161 H141 0.931 . S
C161 C160 1.332 . S
C161 C162 1.267 . S
C162 H130 0.929 . S
C162 C161 1.267 . S
C162 C163 1.251 . S
C163 H133 0.929 . S
C163 N159 1.418 . S
C163 C162 1.251 . S
C164 H131 0.930 . S
C164 C166 1.406 . S
C164 C169 1.261 . S
C165 H132 0.930 . S
C165 N167 1.325 . S
C165 C168 1.357 . S
C166 H134 0.928 . S
C166 C164 1.406 . S
C166 N167 1.261 . S
N167 Co118 2.214 . S
N167 C165 1.325 . S
N167 C166 1.261 . S
C168 H138 0.931 . S
C168 C165 1.357 . S
C168 C169 1.312 . S
C169 H140 0.930 . S
C169 C164 1.261 . S
C169 C168 1.312 . S
C170 O142 1.214 . S
C170 O150 1.234 1_554 S
C171 H143 0.929 . S
C171 C174 1.391 . S
C171 C176 1.391 . S
C172 H144 0.929 . S
C172 C173 1.390 . S
C172 N175 1.391 . S
C173 H145 0.930 . S
C173 C172 1.390 . S
C173 C174 1.392 . S
C174 H146 0.929 . S
C174 C171 1.391 . S
C174 C173 1.392 . S
N175 Co119 2.257 . S
N175 C172 1.391 . S
N175 C176 1.388 . S
C176 H147 0.930 . S
C176 C171 1.391 . S
C176 N175 1.388 . S
Co177 O179 2.143 . S
Co177 O185 2.074 . S
Co177 O188 2.093 . S
Co177 O201 2.097 . S
Co177 N218 2.151 . S
Co177 N226 2.214 . S
Co178 O179 2.160 . S
Co178 O184 2.058 . S
Co178 O194 2.057 . S
Co178 O209 2.037 . S
Co178 N213 2.145 . S
Co178 N234 2.257 . S
O179 Co177 2.143 . S
O179 Co178 2.160 . S
C180 O181 1.278 . S
C180 O188 1.224 . S
O181 C180 1.278 . S
C182 O183 1.245 . S
C182 O194 1.232 . S
O183 C182 1.245 . S
O184 Co178 2.058 . S
O184 C210 1.269 . S
O185 Co177 2.074 . S
O185 C210 1.257 . S
H186 C211 0.930 . S
H187 C217 0.930 . S
O188 Co177 2.093 . S
O188 C180 1.224 . S
H189 C221 0.929 . S
H190 C223 0.930 . S
H191 C224 0.930 . S
H192 C222 0.929 . S
H193 C225 0.928 . S
O194 Co178 2.057 . S
O194 C182 1.232 . S
H195 C214 0.929 . S
H196 C215 0.929 . S
H197 C227 0.931 . S
H198 C219 0.929 . S
H199 C228 0.930 . S
H200 C220 0.931 . S
O201 Co177 2.097 . S
O201 C229 1.214 . S
H202 C230 0.929 . S
H203 C231 0.929 . S
H204 C232 0.930 . S
H205 C233 0.929 . S
H206 C235 0.930 . S
H207 C212 0.930 . S
H208 C216 0.930 . S
O209 Co178 2.037 . S
O209 C229 1.234 . S
C210 O184 1.269 . S
C210 O185 1.257 . S
C211 H186 0.930 . S
C211 C214 1.388 . S
C211 C216 1.418 . S
C212 H207 0.930 . S
C212 C215 1.404 . S
C212 C216 1.353 . S
N213 Co178 2.145 . S
N213 C214 1.397 . S
N213 C215 1.334 . S
C214 H195 0.929 . S
C214 C211 1.388 . S
C214 N213 1.397 . S
C215 H196 0.929 . S
C215 C212 1.404 . S
C215 N213 1.334 . S
C216 H208 0.930 . S
C216 C211 1.418 . S
C216 C212 1.353 . S
C217 H187 0.930 . S
C217 N218 1.330 . S
C217 C219 1.446 . S
N218 Co177 2.151 . S
N218 C217 1.330 . S
N218 C222 1.418 . S
C219 H198 0.929 . S
C219 C217 1.446 . S
C219 C220 1.332 . S
C220 H200 0.931 . S
C220 C219 1.332 . S
C220 C221 1.267 . S
C221 H189 0.929 . S
C221 C220 1.267 . S
C221 C222 1.251 . S
C222 H192 0.929 . S
C222 N218 1.418 . S
C222 C221 1.251 . S
C223 H190 0.930 . S
C223 C225 1.406 . S
C223 C228 1.261 . S
C224 H191 0.930 . S
C224 N226 1.325 . S
C224 C227 1.357 . S
C225 H193 0.928 . S
C225 C223 1.406 . S
C225 N226 1.261 . S
N226 Co177 2.214 . S
N226 C224 1.325 . S
N226 C225 1.261 . S
C227 H197 0.931 . S
C227 C224 1.357 . S
C227 C228 1.312 . S
C228 H199 0.930 . S
C228 C223 1.261 . S
C228 C227 1.312 . S
C229 O201 1.214 . S
C229 O209 1.234 . S
C230 H202 0.929 . S
C230 C233 1.391 . S
C230 C235 1.391 . S
C231 H203 0.929 . S
C231 C232 1.390 . S
C231 N234 1.391 . S
C232 H204 0.930 . S
C232 C231 1.390 . S
C232 C233 1.392 . S
C233 H205 0.929 . S
C233 C230 1.391 . S
C233 C232 1.392 . S
N234 Co178 2.257 . S
N234 C231 1.391 . S
N234 C235 1.388 . S
C235 H206 0.930 . S
C235 C230 1.391 . S
C235 N234 1.388 . S
Co236 O238 2.143 . S
Co236 O244 2.074 . S
Co236 O247 2.093 . S
Co236 O260 2.097 . S
Co236 N277 2.151 . S
Co236 N285 2.214 . S
Co237 O238 2.160 . S
Co237 O243 2.058 . S
Co237 O253 2.057 . S
Co237 O268 2.037 . S
Co237 N272 2.145 . S
Co237 N293 2.257 . S
O238 Co236 2.143 . S
O238 Co237 2.160 . S
C239 O240 1.278 . S
C239 O247 1.224 . S
O240 C239 1.278 . S
C241 O242 1.245 . S
C241 O253 1.232 . S
O242 C241 1.245 . S
O243 Co237 2.058 . S
O243 C269 1.269 . S
O244 Co236 2.074 . S
O244 C269 1.257 . S
H245 C270 0.930 . S
H246 C276 0.930 . S
O247 Co236 2.093 . S
O247 C239 1.224 . S
H248 C280 0.929 . S
H249 C282 0.930 . S
H250 C283 0.930 . S
H251 C281 0.929 . S
H252 C284 0.928 . S
O253 Co237 2.057 . S
O253 C241 1.232 . S
H254 C273 0.929 . S
H255 C274 0.929 . S
H256 C286 0.931 . S
H257 C278 0.929 . S
H258 C287 0.930 . S
H259 C279 0.931 . S
O260 Co236 2.097 . S
O260 C288 1.214 . S
H261 C289 0.929 . S
H262 C290 0.929 . S
H263 C291 0.930 . S
H264 C292 0.929 . S
H265 C294 0.930 . S
H266 C271 0.930 . S
H267 C275 0.930 . S
O268 Co237 2.037 . S
O268 C288 1.234 . S
C269 O243 1.269 . S
C269 O244 1.257 . S
C270 H245 0.930 . S
C270 C273 1.388 . S
C270 C275 1.418 . S
C271 H266 0.930 . S
C271 C274 1.404 . S
C271 C275 1.353 . S
N272 Co237 2.145 . S
N272 C273 1.397 . S
N272 C274 1.334 . S
C273 H254 0.929 . S
C273 C270 1.388 . S
C273 N272 1.397 . S
C274 H255 0.929 . S
C274 C271 1.404 . S
C274 N272 1.334 . S
C275 H267 0.930 . S
C275 C270 1.418 . S
C275 C271 1.353 . S
C276 H246 0.930 . S
C276 N277 1.330 . S
C276 C278 1.446 . S
N277 Co236 2.151 . S
N277 C276 1.330 . S
N277 C281 1.418 . S
C278 H257 0.929 . S
C278 C276 1.446 . S
C278 C279 1.332 . S
C279 H259 0.931 . S
C279 C278 1.332 . S
C279 C280 1.267 . S
C280 H248 0.929 . S
C280 C279 1.267 . S
C280 C281 1.251 . S
C281 H251 0.929 . S
C281 N277 1.418 . S
C281 C280 1.251 . S
C282 H249 0.930 . S
C282 C284 1.406 . S
C282 C287 1.261 . S
C283 H250 0.930 . S
C283 N285 1.325 . S
C283 C286 1.357 . S
C284 H252 0.928 . S
C284 C282 1.406 . S
C284 N285 1.261 . S
N285 Co236 2.214 . S
N285 C283 1.325 . S
N285 C284 1.261 . S
C286 H256 0.931 . S
C286 C283 1.357 . S
C286 C287 1.312 . S
C287 H258 0.930 . S
C287 C282 1.261 . S
C287 C286 1.312 . S
C288 O260 1.214 . S
C288 O268 1.234 . S
C289 H261 0.929 . S
C289 C292 1.391 . S
C289 C294 1.391 . S
C290 H262 0.929 . S
C290 C291 1.390 . S
C290 N293 1.391 . S
C291 H263 0.930 . S
C291 C290 1.390 . S
C291 C292 1.392 . S
C292 H264 0.929 . S
C292 C289 1.391 . S
C292 C291 1.392 . S
N293 Co237 2.257 . S
N293 C290 1.391 . S
N293 C294 1.388 . S
C294 H265 0.930 . S
C294 C289 1.391 . S
C294 N293 1.388 . S
Co295 O297 2.143 . S
Co295 O303 2.074 . S
Co295 O306 2.093 . S
Co295 O319 2.097 . S
Co295 N336 2.151 . S
Co295 N344 2.214 . S
Co296 O297 2.160 . S
Co296 O302 2.058 . S
Co296 O312 2.057 . S
Co296 O327 2.037 . S
Co296 N331 2.145 . S
Co296 N352 2.257 . S
O297 Co295 2.143 . S
O297 Co296 2.160 . S
C298 O299 1.278 . S
C298 O306 1.224 . S
O299 C298 1.278 . S
C300 O301 1.245 . S
C300 O312 1.232 . S
O301 C300 1.245 . S
O302 Co296 2.058 . S
O302 C328 1.269 . S
O303 Co295 2.074 . S
O303 C328 1.257 . S
H304 C329 0.930 . S
H305 C335 0.930 . S
O306 Co295 2.093 . S
O306 C298 1.224 . S
H307 C339 0.929 . S
H308 C341 0.930 . S
H309 C342 0.930 . S
H310 C340 0.929 . S
H311 C343 0.928 . S
O312 Co296 2.057 . S
O312 C300 1.232 . S
H313 C332 0.929 . S
H314 C333 0.929 . S
H315 C345 0.931 . S
H316 C337 0.929 . S
H317 C346 0.930 . S
H318 C338 0.931 . S
O319 Co295 2.097 . S
O319 C347 1.214 . S
H320 C348 0.929 . S
H321 C349 0.929 . S
H322 C350 0.930 . S
H323 C351 0.929 . S
H324 C353 0.930 . S
H325 C330 0.930 . S
H326 C334 0.930 . S
O327 Co296 2.037 . S
O327 C347 1.234 . S
C328 O302 1.269 . S
C328 O303 1.257 . S
C329 H304 0.930 . S
C329 C332 1.388 . S
C329 C334 1.418 . S
C330 H325 0.930 . S
C330 C333 1.404 . S
C330 C334 1.353 . S
N331 Co296 2.145 . S
N331 C332 1.397 . S
N331 C333 1.334 . S
C332 H313 0.929 . S
C332 C329 1.388 . S
C332 N331 1.397 . S
C333 H314 0.929 . S
C333 C330 1.404 . S
C333 N331 1.334 . S
C334 H326 0.930 . S
C334 C329 1.418 . S
C334 C330 1.353 . S
C335 H305 0.930 . S
C335 N336 1.330 . S
C335 C337 1.446 . S
N336 Co295 2.151 . S
N336 C335 1.330 . S
N336 C340 1.418 . S
C337 H316 0.929 . S
C337 C335 1.446 . S
C337 C338 1.332 . S
C338 H318 0.931 . S
C338 C337 1.332 . S
C338 C339 1.267 . S
C339 H307 0.929 . S
C339 C338 1.267 . S
C339 C340 1.251 . S
C340 H310 0.929 . S
C340 N336 1.418 . S
C340 C339 1.251 . S
C341 H308 0.930 . S
C341 C343 1.406 . S
C341 C346 1.261 . S
C342 H309 0.930 . S
C342 N344 1.325 . S
C342 C345 1.357 . S
C343 H311 0.928 . S
C343 C341 1.406 . S
C343 N344 1.261 . S
N344 Co295 2.214 . S
N344 C342 1.325 . S
N344 C343 1.261 . S
C345 H315 0.931 . S
C345 C342 1.357 . S
C345 C346 1.312 . S
C346 H317 0.930 . S
C346 C341 1.261 . S
C346 C345 1.312 . S
C347 O319 1.214 . S
C347 O327 1.234 . S
C348 H320 0.929 . S
C348 C351 1.391 . S
C348 C353 1.391 . S
C349 H321 0.929 . S
C349 C350 1.390 . S
C349 N352 1.391 . S
C350 H322 0.930 . S
C350 C349 1.390 . S
C350 C351 1.392 . S
C351 H323 0.929 . S
C351 C348 1.391 . S
C351 C350 1.392 . S
N352 Co296 2.257 . S
N352 C349 1.391 . S
N352 C353 1.388 . S
C353 H324 0.930 . S
C353 C348 1.391 . S
C353 N352 1.388 . S
Co354 O356 2.143 . S
Co354 O362 2.074 . S
Co354 O365 2.093 . S
Co354 O378 2.097 . S
Co354 N395 2.151 . S
Co354 N403 2.214 . S
Co355 O356 2.160 . S
Co355 O361 2.058 . S
Co355 O371 2.057 . S
Co355 O386 2.037 . S
Co355 N390 2.145 . S
Co355 N411 2.257 . S
O356 Co354 2.143 . S
O356 Co355 2.160 . S
C357 O358 1.278 . S
C357 O365 1.224 . S
O358 C357 1.278 . S
C359 O360 1.245 . S
C359 O371 1.232 . S
O360 C359 1.245 . S
O361 Co355 2.058 . S
O361 C387 1.269 . S
O362 Co354 2.074 . S
O362 C387 1.257 . S
H363 C388 0.930 . S
H364 C394 0.930 . S
O365 Co354 2.093 . S
O365 C357 1.224 . S
H366 C398 0.929 . S
H367 C400 0.930 . S
H368 C401 0.930 . S
H369 C399 0.929 . S
H370 C402 0.928 . S
O371 Co355 2.057 . S
O371 C359 1.232 . S
H372 C391 0.929 . S
H373 C392 0.929 . S
H374 C404 0.931 . S
H375 C396 0.929 . S
H376 C405 0.930 . S
H377 C397 0.931 . S
O378 Co354 2.097 . S
O378 C406 1.214 . S
H379 C407 0.929 . S
H380 C408 0.929 . S
H381 C409 0.930 . S
H382 C410 0.929 . S
H383 C412 0.930 . S
H384 C389 0.930 . S
H385 C393 0.930 . S
O386 Co355 2.037 . S
O386 C406 1.234 . S
C387 O361 1.269 . S
C387 O362 1.257 . S
C388 H363 0.930 . S
C388 C391 1.388 . S
C388 C393 1.418 . S
C389 H384 0.930 . S
C389 C392 1.404 . S
C389 C393 1.353 . S
N390 Co355 2.145 . S
N390 C391 1.397 . S
N390 C392 1.334 . S
C391 H372 0.929 . S
C391 C388 1.388 . S
C391 N390 1.397 . S
C392 H373 0.929 . S
C392 C389 1.404 . S
C392 N390 1.334 . S
C393 H385 0.930 . S
C393 C388 1.418 . S
C393 C389 1.353 . S
C394 H364 0.930 . S
C394 N395 1.330 . S
C394 C396 1.446 . S
N395 Co354 2.151 . S
N395 C394 1.330 . S
N395 C399 1.418 . S
C396 H375 0.929 . S
C396 C394 1.446 . S
C396 C397 1.332 . S
C397 H377 0.931 . S
C397 C396 1.332 . S
C397 C398 1.267 . S
C398 H366 0.929 . S
C398 C397 1.267 . S
C398 C399 1.251 . S
C399 H369 0.929 . S
C399 N395 1.418 . S
C399 C398 1.251 . S
C400 H367 0.930 . S
C400 C402 1.406 . S
C400 C405 1.261 . S
C401 H368 0.930 . S
C401 N403 1.325 . S
C401 C404 1.357 . S
C402 H370 0.928 . S
C402 C400 1.406 . S
C402 N403 1.261 . S
N403 Co354 2.214 . S
N403 C401 1.325 . S
N403 C402 1.261 . S
C404 H374 0.931 . S
C404 C401 1.357 . S
C404 C405 1.312 . S
C405 H376 0.930 . S
C405 C400 1.261 . S
C405 C404 1.312 . S
C406 O378 1.214 . S
C406 O386 1.234 . S
C407 H379 0.929 . S
C407 C410 1.391 . S
C407 C412 1.391 . S
C408 H380 0.929 . S
C408 C409 1.390 . S
C408 N411 1.391 . S
C409 H381 0.930 . S
C409 C408 1.390 . S
C409 C410 1.392 . S
C410 H382 0.929 . S
C410 C407 1.391 . S
C410 C409 1.392 . S
N411 Co355 2.257 . S
N411 C408 1.391 . S
N411 C412 1.388 . S
C412 H383 0.930 . S
C412 C407 1.391 . S
C412 N411 1.388 . S
Co413 O415 2.143 . S
Co413 O421 2.074 . S
Co413 O424 2.093 . S
Co413 O437 2.097 . S
Co413 N454 2.151 . S
Co413 N462 2.214 . S
Co414 O415 2.160 . S
Co414 O420 2.058 . S
Co414 O430 2.057 . S
Co414 O445 2.037 . S
Co414 N449 2.145 . S
Co414 N470 2.257 . S
O415 Co413 2.143 . S
O415 Co414 2.160 . S
C416 O417 1.278 . S
C416 O424 1.224 . S
O417 C416 1.278 . S
C418 O419 1.245 . S
C418 O430 1.232 . S
O419 C418 1.245 . S
O420 Co414 2.058 . S
O420 C446 1.269 . S
O421 Co413 2.074 . S
O421 C446 1.257 . S
H422 C447 0.930 . S
H423 C453 0.930 . S
O424 Co413 2.093 . S
O424 C416 1.224 . S
H425 C457 0.929 . S
H426 C459 0.930 . S
H427 C460 0.930 . S
H428 C458 0.929 . S
H429 C461 0.928 . S
O430 Co414 2.057 . S
O430 C418 1.232 . S
H431 C450 0.929 . S
H432 C451 0.929 . S
H433 C463 0.931 . S
H434 C455 0.929 . S
H435 C464 0.930 . S
H436 C456 0.931 . S
O437 Co413 2.097 . S
O437 C465 1.214 . S
H438 C466 0.929 . S
H439 C467 0.929 . S
H440 C468 0.930 . S
H441 C469 0.929 . S
H442 C471 0.930 . S
H443 C448 0.930 . S
H444 C452 0.930 . S
O445 Co414 2.037 . S
O445 C465 1.234 . S
C446 O420 1.269 . S
C446 O421 1.257 . S
C447 H422 0.930 . S
C447 C450 1.388 . S
C447 C452 1.418 . S
C448 H443 0.930 . S
C448 C451 1.404 . S
C448 C452 1.353 . S
N449 Co414 2.145 . S
N449 C450 1.397 . S
N449 C451 1.334 . S
C450 H431 0.929 . S
C450 C447 1.388 . S
C450 N449 1.397 . S
C451 H432 0.929 . S
C451 C448 1.404 . S
C451 N449 1.334 . S
C452 H444 0.930 . S
C452 C447 1.418 . S
C452 C448 1.353 . S
C453 H423 0.930 . S
C453 N454 1.330 . S
C453 C455 1.446 . S
N454 Co413 2.151 . S
N454 C453 1.330 . S
N454 C458 1.418 . S
C455 H434 0.929 . S
C455 C453 1.446 . S
C455 C456 1.332 . S
C456 H436 0.931 . S
C456 C455 1.332 . S
C456 C457 1.267 . S
C457 H425 0.929 . S
C457 C456 1.267 . S
C457 C458 1.251 . S
C458 H428 0.929 . S
C458 N454 1.418 . S
C458 C457 1.251 . S
C459 H426 0.930 . S
C459 C461 1.406 . S
C459 C464 1.261 . S
C460 H427 0.930 . S
C460 N462 1.325 . S
C460 C463 1.357 . S
C461 H429 0.928 . S
C461 C459 1.406 . S
C461 N462 1.261 . S
N462 Co413 2.214 . S
N462 C460 1.325 . S
N462 C461 1.261 . S
C463 H433 0.931 . S
C463 C460 1.357 . S
C463 C464 1.312 . S
C464 H435 0.930 . S
C464 C459 1.261 . S
C464 C463 1.312 . S
C465 O437 1.214 . S
C465 O445 1.234 . S
C466 H438 0.929 . S
C466 C469 1.391 . S
C466 C471 1.391 . S
C467 H439 0.929 . S
C467 C468 1.390 . S
C467 N470 1.391 . S
C468 H440 0.930 . S
C468 C467 1.390 . S
C468 C469 1.392 . S
C469 H441 0.929 . S
C469 C466 1.391 . S
C469 C468 1.392 . S
N470 Co414 2.257 . S
N470 C467 1.391 . S
N470 C471 1.388 . S
C471 H442 0.930 . S
C471 C466 1.391 . S
C471 N470 1.388 . S
Co472 O474 2.143 . S
Co472 O480 2.074 . S
Co472 O483 2.093 . S
Co472 O496 2.097 . S
Co472 N513 2.151 . S
Co472 N521 2.214 . S
Co473 O474 2.160 . S
Co473 O479 2.058 . S
Co473 O489 2.057 . S
Co473 O504 2.037 . S
Co473 N508 2.145 . S
Co473 N529 2.257 . S
O474 Co472 2.143 . S
O474 Co473 2.160 . S
C475 O476 1.278 . S
C475 O483 1.224 . S
O476 C475 1.278 . S
C477 O478 1.245 . S
C477 O489 1.232 . S
O478 C477 1.245 . S
O479 Co473 2.058 . S
O479 C505 1.269 . S
O480 Co472 2.074 . S
O480 C505 1.257 . S
H481 C506 0.930 . S
H482 C512 0.930 . S
O483 Co472 2.093 . S
O483 C475 1.224 . S
H484 C516 0.929 . S
H485 C518 0.930 . S
H486 C519 0.930 . S
H487 C517 0.929 . S
H488 C520 0.928 . S
O489 Co473 2.057 . S
O489 C477 1.232 . S
H490 C509 0.929 . S
H491 C510 0.929 . S
H492 C522 0.931 . S
H493 C514 0.929 . S
H494 C523 0.930 . S
H495 C515 0.931 . S
O496 Co472 2.097 . S
O496 C524 1.214 . S
H497 C525 0.929 . S
H498 C526 0.929 . S
H499 C527 0.930 . S
H500 C528 0.929 . S
H501 C530 0.930 . S
H502 C507 0.930 . S
H503 C511 0.930 . S
O504 Co473 2.037 . S
O504 C524 1.234 . S
C505 O479 1.269 . S
C505 O480 1.257 . S
C506 H481 0.930 . S
C506 C509 1.388 . S
C506 C511 1.418 . S
C507 H502 0.930 . S
C507 C510 1.404 . S
C507 C511 1.353 . S
N508 Co473 2.145 . S
N508 C509 1.397 . S
N508 C510 1.334 . S
C509 H490 0.929 . S
C509 C506 1.388 . S
C509 N508 1.397 . S
C510 H491 0.929 . S
C510 C507 1.404 . S
C510 N508 1.334 . S
C511 H503 0.930 . S
C511 C506 1.418 . S
C511 C507 1.353 . S
C512 H482 0.930 . S
C512 N513 1.330 . S
C512 C514 1.446 . S
N513 Co472 2.151 . S
N513 C512 1.330 . S
N513 C517 1.418 . S
C514 H493 0.929 . S
C514 C512 1.446 . S
C514 C515 1.332 . S
C515 H495 0.931 . S
C515 C514 1.332 . S
C515 C516 1.267 . S
C516 H484 0.929 . S
C516 C515 1.267 . S
C516 C517 1.251 . S
C517 H487 0.929 . S
C517 N513 1.418 . S
C517 C516 1.251 . S
C518 H485 0.930 . S
C518 C520 1.406 . S
C518 C523 1.261 . S
C519 H486 0.930 . S
C519 N521 1.325 . S
C519 C522 1.357 . S
C520 H488 0.928 . S
C520 C518 1.406 . S
C520 N521 1.261 . S
N521 Co472 2.214 . S
N521 C519 1.325 . S
N521 C520 1.261 . S
C522 H492 0.931 . S
C522 C519 1.357 . S
C522 C523 1.312 . S
C523 H494 0.930 . S
C523 C518 1.261 . S
C523 C522 1.312 . S
C524 O496 1.214 . S
C524 O504 1.234 . S
C525 H497 0.929 . S
C525 C528 1.391 . S
C525 C530 1.391 . S
C526 H498 0.929 . S
C526 C527 1.390 . S
C526 N529 1.391 . S
C527 H499 0.930 . S
C527 C526 1.390 . S
C527 C528 1.392 . S
C528 H500 0.929 . S
C528 C525 1.391 . S
C528 C527 1.392 . S
N529 Co473 2.257 . S
N529 C526 1.391 . S
N529 C530 1.388 . S
C530 H501 0.930 . S
C530 C525 1.391 . S
C530 N529 1.388 . S
H531 C543 0.930 . S
H532 C545 0.930 . S
H533 C546 0.930 . S
H534 C550 0.959 . S
H535 C550 0.959 . S
H536 C550 0.961 . S
H537 C551 0.960 . S
H538 C551 0.961 . S
H539 C551 0.959 . S
H540 C554 0.929 . S
H541 C555 0.931 . S
H542 C557 0.930 . S
C543 H531 0.930 . S
C543 C544 1.399 1_556 S
C543 C548 1.399 . S
C544 C543 1.399 1_554 S
C544 C545 1.376 . S
C545 H532 0.930 . S
C545 C544 1.376 . S
C545 C546 1.388 . S
C546 H533 0.930 . S
C546 C545 1.388 . S
C546 C547 1.390 . S
C547 C546 1.390 . S
C547 C548 1.394 1_554 S
C547 C553 1.465 . S
C548 C543 1.399 . S
C548 C547 1.394 1_556 S
C548 C549 1.516 . S
C549 C548 1.516 . S
C549 C550 1.502 . S
C549 C551 1.561 . S
C549 C552 1.526 . S
C550 H534 0.959 . S
C550 H535 0.959 . S
C550 H536 0.961 . S
C550 C549 1.502 . S
C551 H537 0.960 . S
C551 H538 0.961 . S
C551 H539 0.959 . S
C551 C549 1.561 . S
C552 C549 1.526 . S
C552 C553 1.396 1_556 S
C552 C557 1.390 . S
C553 C547 1.465 . S
C553 C552 1.396 1_554 S
C553 C554 1.399 . S
C554 H540 0.929 . S
C554 C553 1.399 . S
C554 C555 1.385 . S
C555 H541 0.931 . S
C555 C554 1.385 . S
C555 C556 1.389 . S
C556 C555 1.389 . S
C556 C557 1.387 1_554 S
C557 H542 0.930 . S
C557 C552 1.390 . S
C557 C556 1.387 1_556 S
H558 C570 0.930 . S
H559 C572 0.930 . S
H560 C573 0.930 . S
H561 C577 0.959 . S
H562 C577 0.959 . S
H563 C577 0.961 1_565 S
H564 C578 0.960 1_565 S
H565 C578 0.961 . S
H566 C578 0.959 . S
H567 C581 0.929 . S
H568 C582 0.931 . S
H569 C584 0.930 . S
C570 H558 0.930 . S
C570 C571 1.399 . S
C570 C575 1.399 . S
C571 C570 1.399 . S
C571 C572 1.376 1_554 S
C572 H559 0.930 . S
C572 C571 1.376 1_556 S
C572 C573 1.388 . S
C573 H560 0.930 . S
C573 C572 1.388 . S
C573 C574 1.390 1_566 S
C574 C573 1.390 1_544 S
C574 C575 1.394 1_545 S
C574 C580 1.465 . S
C575 C570 1.399 . S
C575 C574 1.394 1_565 S
C575 C576 1.516 1_565 S
C576 C575 1.516 1_545 S
C576 C577 1.502 . S
C576 C578 1.561 . S
C576 C579 1.526 . S
C577 H561 0.959 . S
C577 H562 0.959 . S
C577 H563 0.961 1_545 S
C577 C576 1.502 . S
C578 H564 0.960 1_545 S
C578 H565 0.961 . S
C578 H566 0.959 . S
C578 C576 1.561 . S
C579 C576 1.526 . S
C579 C580 1.396 . S
C579 C584 1.390 . S
C580 C574 1.465 . S
C580 C579 1.396 . S
C580 C581 1.399 1_554 S
C581 H567 0.929 . S
C581 C580 1.399 1_556 S
C581 C582 1.385 . S
C582 H568 0.931 . S
C582 C581 1.385 . S
C582 C583 1.389 1_556 S
C583 C582 1.389 1_554 S
C583 C584 1.387 . S
C584 H569 0.930 . S
C584 C579 1.390 . S
C584 C583 1.387 . S
H585 C597 0.930 . S
H586 C599 0.930 . S
H587 C600 0.930 . S
H588 C604 0.959 . S
H589 C604 0.959 . S
H590 C604 0.961 1_655 S
H591 C605 0.960 1_655 S
H592 C605 0.961 . S
H593 C605 0.959 . S
H594 C608 0.929 . S
H595 C609 0.931 . S
H596 C611 0.930 . S
C597 H585 0.930 . S
C597 C598 1.399 1_556 S
C597 C602 1.399 . S
C598 C597 1.399 1_554 S
C598 C599 1.376 . S
C599 H586 0.930 . S
C599 C598 1.376 . S
C599 C600 1.388 . S
C600 H587 0.930 . S
C600 C599 1.388 . S
C600 C601 1.390 . S
C601 C600 1.390 . S
C601 C602 1.394 1_554 S
C601 C607 1.465 1_655 S
C602 C597 1.399 . S
C602 C601 1.394 1_556 S
C602 C603 1.516 1_655 S
C603 C602 1.516 1_455 S
C603 C604 1.502 . S
C603 C605 1.561 . S
C603 C606 1.526 . S
C604 H588 0.959 . S
C604 H589 0.959 . S
C604 H590 0.961 1_455 S
C604 C603 1.502 . S
C605 H591 0.960 1_455 S
C605 H592 0.961 . S
C605 H593 0.959 . S
C605 C603 1.561 . S
C606 C603 1.526 . S
C606 C607 1.396 1_556 S
C606 C611 1.390 . S
C607 C601 1.465 1_455 S
C607 C606 1.396 1_554 S
C607 C608 1.399 . S
C608 H594 0.929 . S
C608 C607 1.399 . S
C608 C609 1.385 . S
C609 H595 0.931 . S
C609 C608 1.385 . S
C609 C610 1.389 . S
C610 C609 1.389 . S
C610 C611 1.387 1_554 S
C611 H596 0.930 . S
C611 C606 1.390 . S
C611 C610 1.387 1_556 S
H612 C624 0.930 . S
H613 C626 0.930 . S
H614 C627 0.930 . S
H615 C631 0.959 . S
H616 C631 0.959 . S
H617 C631 0.961 . S
H618 C632 0.960 . S
H619 C632 0.961 . S
H620 C632 0.959 . S
H621 C635 0.929 . S
H622 C636 0.931 . S
H623 C638 0.930 . S
C624 H612 0.930 . S
C624 C625 1.399 . S
C624 C629 1.399 . S
C625 C624 1.399 . S
C625 C626 1.376 . S
C626 H613 0.930 . S
C626 C625 1.376 . S
C626 C627 1.388 . S
C627 H614 0.930 . S
C627 C626 1.388 . S
C627 C628 1.390 . S
C628 C627 1.390 . S
C628 C629 1.394 . S
C628 C634 1.465 . S
C629 C624 1.399 . S
C629 C628 1.394 . S
C629 C630 1.516 . S
C630 C629 1.516 . S
C630 C631 1.502 . S
C630 C632 1.561 . S
C630 C633 1.526 . S
C631 H615 0.959 . S
C631 H616 0.959 . S
C631 H617 0.961 . S
C631 C630 1.502 . S
C632 H618 0.960 . S
C632 H619 0.961 . S
C632 H620 0.959 . S
C632 C630 1.561 . S
C633 C630 1.526 . S
C633 C634 1.396 . S
C633 C638 1.390 . S
C634 C628 1.465 . S
C634 C633 1.396 . S
C634 C635 1.399 . S
C635 H621 0.929 . S
C635 C634 1.399 . S
C635 C636 1.385 . S
C636 H622 0.931 . S
C636 C635 1.385 . S
C636 C637 1.389 . S
C637 C636 1.389 . S
C637 C638 1.387 . S
C638 H623 0.930 . S
C638 C633 1.390 . S
C638 C637 1.387 . S
H639 C651 0.930 . S
H640 C653 0.930 . S
H641 C654 0.930 . S
H642 C658 0.959 . S
H643 C658 0.959 . S
H644 C658 0.961 . S
H645 C659 0.960 . S
H646 C659 0.961 . S
H647 C659 0.959 . S
H648 C662 0.929 . S
H649 C663 0.931 . S
H650 C665 0.930 . S
C651 H639 0.930 . S
C651 C652 1.399 . S
C651 C656 1.399 . S
C652 C651 1.399 . S
C652 C653 1.376 . S
C653 H640 0.930 . S
C653 C652 1.376 . S
C653 C654 1.388 . S
C654 H641 0.930 . S
C654 C653 1.388 . S
C654 C655 1.390 . S
C655 C654 1.390 . S
C655 C656 1.394 . S
C655 C661 1.465 . S
C656 C651 1.399 . S
C656 C655 1.394 . S
C656 C657 1.516 . S
C657 C656 1.516 . S
C657 C658 1.502 . S
C657 C659 1.561 . S
C657 C660 1.526 . S
C658 H642 0.959 . S
C658 H643 0.959 . S
C658 H644 0.961 . S
C658 C657 1.502 . S
C659 H645 0.960 . S
C659 H646 0.961 . S
C659 H647 0.959 . S
C659 C657 1.561 . S
C660 C657 1.526 . S
C660 C661 1.396 . S
C660 C665 1.390 . S
C661 C655 1.465 . S
C661 C660 1.396 . S
C661 C662 1.399 . S
C662 H648 0.929 . S
C662 C661 1.399 . S
C662 C663 1.385 . S
C663 H649 0.931 . S
C663 C662 1.385 . S
C663 C664 1.389 . S
C664 C663 1.389 . S
C664 C665 1.387 . S
C665 H650 0.930 . S
C665 C660 1.390 . S
C665 C664 1.387 . S
H666 C678 0.930 . S
H667 C680 0.930 . S
H668 C681 0.930 . S
H669 C685 0.959 . S
H670 C685 0.959 . S
H671 C685 0.961 . S
H672 C686 0.960 . S
H673 C686 0.961 . S
H674 C686 0.959 . S
H675 C689 0.929 . S
H676 C690 0.931 . S
H677 C692 0.930 . S
C678 H666 0.930 . S
C678 C679 1.399 . S
C678 C683 1.399 . S
C679 C678 1.399 . S
C679 C680 1.376 . S
C680 H667 0.930 . S
C680 C679 1.376 . S
C680 C681 1.388 . S
C681 H668 0.930 . S
C681 C680 1.388 . S
C681 C682 1.390 . S
C682 C681 1.390 . S
C682 C683 1.394 . S
C682 C688 1.465 . S
C683 C678 1.399 . S
C683 C682 1.394 . S
C683 C684 1.516 . S
C684 C683 1.516 . S
C684 C685 1.502 . S
C684 C686 1.561 . S
C684 C687 1.526 . S
C685 H669 0.959 . S
C685 H670 0.959 . S
C685 H671 0.961 . S
C685 C684 1.502 . S
C686 H672 0.960 . S
C686 H673 0.961 . S
C686 H674 0.959 . S
C686 C684 1.561 . S
C687 C684 1.526 . S
C687 C688 1.396 . S
C687 C692 1.390 . S
C688 C682 1.465 . S
C688 C687 1.396 . S
C688 C689 1.399 . S
C689 H675 0.929 . S
C689 C688 1.399 . S
C689 C690 1.385 . S
C690 H676 0.931 . S
C690 C689 1.385 . S
C690 C691 1.389 . S
C691 C690 1.389 . S
C691 C692 1.387 . S
C692 H677 0.930 . S
C692 C687 1.390 . S
C692 C691 1.387 . S
H693 C705 0.930 . S
H694 C707 0.930 . S
H695 C708 0.930 . S
H696 C712 0.959 . S
H697 C712 0.959 . S
H698 C712 0.961 . S
H699 C713 0.960 . S
H700 C713 0.961 . S
H701 C713 0.959 . S
H702 C716 0.929 . S
H703 C717 0.931 . S
H704 C719 0.930 . S
C705 H693 0.930 . S
C705 C706 1.399 . S
C705 C710 1.399 . S
C706 C705 1.399 . S
C706 C707 1.376 . S
C707 H694 0.930 . S
C707 C706 1.376 . S
C707 C708 1.388 . S
C708 H695 0.930 . S
C708 C707 1.388 . S
C708 C709 1.390 . S
C709 C708 1.390 . S
C709 C710 1.394 . S
C709 C715 1.465 . S
C710 C705 1.399 . S
C710 C709 1.394 . S
C710 C711 1.516 . S
C711 C710 1.516 . S
C711 C712 1.502 . S
C711 C713 1.561 . S
C711 C714 1.526 . S
C712 H696 0.959 . S
C712 H697 0.959 . S
C712 H698 0.961 . S
C712 C711 1.502 . S
C713 H699 0.960 . S
C713 H700 0.961 . S
C713 H701 0.959 . S
C713 C711 1.561 . S
C714 C711 1.526 . S
C714 C715 1.396 . S
C714 C719 1.390 . S
C715 C709 1.465 . S
C715 C714 1.396 . S
C715 C716 1.399 . S
C716 H702 0.929 . S
C716 C715 1.399 . S
C716 C717 1.385 . S
C717 H703 0.931 . S
C717 C716 1.385 . S
C717 C718 1.389 . S
C718 C717 1.389 . S
C718 C719 1.387 . S
C719 H704 0.930 . S
C719 C714 1.390 . S
C719 C718 1.387 . S
H720 C732 0.930 . S
H721 C734 0.930 . S
H722 C735 0.930 . S
H723 C739 0.959 . S
H724 C739 0.959 . S
H725 C739 0.961 . S
H726 C740 0.960 . S
H727 C740 0.961 . S
H728 C740 0.959 . S
H729 C743 0.929 . S
H730 C744 0.931 . S
H731 C746 0.930 . S
C732 H720 0.930 . S
C732 C733 1.399 . S
C732 C737 1.399 . S
C733 C732 1.399 . S
C733 C734 1.376 . S
C734 H721 0.930 . S
C734 C733 1.376 . S
C734 C735 1.388 . S
C735 H722 0.930 . S
C735 C734 1.388 . S
C735 C736 1.390 . S
C736 C735 1.390 . S
C736 C737 1.394 . S
C736 C742 1.465 . S
C737 C732 1.399 . S
C737 C736 1.394 . S
C737 C738 1.516 . S
C738 C737 1.516 . S
C738 C739 1.502 . S
C738 C740 1.561 . S
C738 C741 1.526 . S
C739 H723 0.959 . S
C739 H724 0.959 . S
C739 H725 0.961 . S
C739 C738 1.502 . S
C740 H726 0.960 . S
C740 H727 0.961 . S
C740 H728 0.959 . S
C740 C738 1.561 . S
C741 C738 1.526 . S
C741 C742 1.396 . S
C741 C746 1.390 . S
C742 C736 1.465 . S
C742 C741 1.396 . S
C742 C743 1.399 . S
C743 H729 0.929 . S
C743 C742 1.399 . S
C743 C744 1.385 . S
C744 H730 0.931 . S
C744 C743 1.385 . S
C744 C745 1.389 . S
C745 C744 1.389 . S
C745 C746 1.387 . S
C746 H731 0.930 . S
C746 C741 1.390 . S
C746 C745 1.387 . S
H747 C759 0.930 . S
H748 C761 0.930 . S
H749 C762 0.930 . S
H750 C766 0.959 . S
H751 C766 0.959 . S
H752 C766 0.961 . S
H753 C767 0.960 . S
H754 C767 0.961 . S
H755 C767 0.959 . S
H756 C770 0.929 . S
H757 C771 0.931 . S
H758 C773 0.930 . S
C759 H747 0.930 . S
C759 C760 1.399 . S
C759 C764 1.399 . S
C760 C759 1.399 . S
C760 C761 1.376 . S
C761 H748 0.930 . S
C761 C760 1.376 . S
C761 C762 1.388 . S
C762 H749 0.930 . S
C762 C761 1.388 . S
C762 C763 1.390 . S
C763 C762 1.390 . S
C763 C764 1.394 . S
C763 C769 1.465 . S
C764 C759 1.399 . S
C764 C763 1.394 . S
C764 C765 1.516 . S
C765 C764 1.516 . S
C765 C766 1.502 . S
C765 C767 1.561 . S
C765 C768 1.526 . S
C766 H750 0.959 . S
C766 H751 0.959 . S
C766 H752 0.961 . S
C766 C765 1.502 . S
C767 H753 0.960 . S
C767 H754 0.961 . S
C767 H755 0.959 . S
C767 C765 1.561 . S
C768 C765 1.526 . S
C768 C769 1.396 . S
C768 C773 1.390 . S
C769 C763 1.465 . S
C769 C768 1.396 . S
C769 C770 1.399 . S
C770 H756 0.929 . S
C770 C769 1.399 . S
C770 C771 1.385 . S
C771 H757 0.931 . S
C771 C770 1.385 . S
C771 C772 1.389 . S
C772 C771 1.389 . S
C772 C773 1.387 . S
C773 H758 0.930 . S
C773 C768 1.390 . S
C773 C772 1.387 . S
H774 C786 0.930 . S
H775 C788 0.930 . S
H776 C789 0.930 . S
H777 C793 0.959 . S
H778 C793 0.959 . S
H779 C793 0.961 . S
H780 C794 0.960 . S
H781 C794 0.961 . S
H782 C794 0.959 . S
H783 C797 0.929 . S
H784 C798 0.931 . S
H785 C800 0.930 . S
C786 H774 0.930 . S
C786 C787 1.399 . S
C786 C791 1.399 . S
C787 C786 1.399 . S
C787 C788 1.376 . S
C788 H775 0.930 . S
C788 C787 1.376 . S
C788 C789 1.388 . S
C789 H776 0.930 . S
C789 C788 1.388 . S
C789 C790 1.390 . S
C790 C789 1.390 . S
C790 C791 1.394 . S
C790 C796 1.465 . S
C791 C786 1.399 . S
C791 C790 1.394 . S
C791 C792 1.516 . S
C792 C791 1.516 . S
C792 C793 1.502 . S
C792 C794 1.561 . S
C792 C795 1.526 . S
C793 H777 0.959 . S
C793 H778 0.959 . S
C793 H779 0.961 . S
C793 C792 1.502 . S
C794 H780 0.960 . S
C794 H781 0.961 . S
C794 H782 0.959 . S
C794 C792 1.561 . S
C795 C792 1.526 . S
C795 C796 1.396 . S
C795 C800 1.390 . S
C796 C790 1.465 . S
C796 C795 1.396 . S
C796 C797 1.399 . S
C797 H783 0.929 . S
C797 C796 1.399 . S
C797 C798 1.385 . S
C798 H784 0.931 . S
C798 C797 1.385 . S
C798 C799 1.389 . S
C799 C798 1.389 . S
C799 C800 1.387 . S
C800 H785 0.930 . S
C800 C795 1.390 . S
C800 C799 1.387 . S
H801 C813 0.930 . S
H802 C815 0.930 . S
H803 C816 0.930 . S
H804 C820 0.959 . S
H805 C820 0.959 . S
H806 C820 0.961 . S
H807 C821 0.960 . S
H808 C821 0.961 . S
H809 C821 0.959 . S
H810 C824 0.929 . S
H811 C825 0.931 . S
H812 C827 0.930 . S
C813 H801 0.930 . S
C813 C814 1.399 . S
C813 C818 1.399 . S
C814 C813 1.399 . S
C814 C815 1.376 . S
C815 H802 0.930 . S
C815 C814 1.376 . S
C815 C816 1.388 . S
C816 H803 0.930 . S
C816 C815 1.388 . S
C816 C817 1.390 . S
C817 C816 1.390 . S
C817 C818 1.394 . S
C817 C823 1.465 . S
C818 C813 1.399 . S
C818 C817 1.394 . S
C818 C819 1.516 . S
C819 C818 1.516 . S
C819 C820 1.502 . S
C819 C821 1.561 . S
C819 C822 1.526 . S
C820 H804 0.959 . S
C820 H805 0.959 . S
C820 H806 0.961 . S
C820 C819 1.502 . S
C821 H807 0.960 . S
C821 H808 0.961 . S
C821 H809 0.959 . S
C821 C819 1.561 . S
C822 C819 1.526 . S
C822 C823 1.396 . S
C822 C827 1.390 . S
C823 C817 1.465 . S
C823 C822 1.396 . S
C823 C824 1.399 . S
C824 H810 0.929 . S
C824 C823 1.399 . S
C824 C825 1.385 . S
C825 H811 0.931 . S
C825 C824 1.385 . S
C825 C826 1.389 . S
C826 C825 1.389 . S
C826 C827 1.387 . S
C827 H812 0.930 . S
C827 C822 1.390 . S
C827 C826 1.387 . S
H828 C840 0.930 . S
H829 C842 0.930 . S
H830 C843 0.930 . S
H831 C847 0.959 . S
H832 C847 0.959 1_545 S
H833 C847 0.961 . S
H834 C848 0.960 . S
H835 C848 0.961 . S
H836 C848 0.959 . S
H837 C851 0.929 . S
H838 C852 0.931 . S
H839 C854 0.930 1_545 S
C840 H828 0.930 . S
C840 C841 1.399 . S
C840 C845 1.399 . S
C841 C840 1.399 . S
C841 C842 1.376 . S
C842 H829 0.930 . S
C842 C841 1.376 . S
C842 C843 1.388 . S
C843 H830 0.930 . S
C843 C842 1.388 . S
C843 C844 1.390 . S
C844 C843 1.390 . S
C844 C845 1.394 . S
C844 C850 1.465 . S
C845 C840 1.399 . S
C845 C844 1.394 . S
C845 C846 1.516 . S
C846 C845 1.516 . S
C846 C847 1.502 . S
C846 C848 1.561 1_565 S
C846 C849 1.526 . S
C847 H831 0.959 . S
C847 H832 0.959 1_565 S
C847 H833 0.961 . S
C847 C846 1.502 . S
C848 H834 0.960 . S
C848 H835 0.961 . S
C848 H836 0.959 . S
C848 C846 1.561 1_545 S
C849 C846 1.526 . S
C849 C850 1.396 . S
C849 C854 1.390 . S
C850 C844 1.465 . S
C850 C849 1.396 . S
C850 C851 1.399 . S
C851 H837 0.929 . S
C851 C850 1.399 . S
C851 C852 1.385 . S
C852 H838 0.931 . S
C852 C851 1.385 . S
C852 C853 1.389 . S
C853 C852 1.389 . S
C853 C854 1.387 . S
C854 H839 0.930 1_565 S
C854 C849 1.390 . S
C854 C853 1.387 . S
H855 C867 0.930 . S
H856 C869 0.930 . S
H857 C870 0.930 . S
H858 C874 0.959 . S
H859 C874 0.959 . S
H860 C874 0.961 . S
H861 C875 0.960 . S
H862 C875 0.961 . S
H863 C875 0.959 . S
H864 C878 0.929 . S
H865 C879 0.931 . S
H866 C881 0.930 . S
C867 H855 0.930 . S
C867 C868 1.399 . S
C867 C872 1.399 . S
C868 C867 1.399 . S
C868 C869 1.376 . S
C869 H856 0.930 . S
C869 C868 1.376 . S
C869 C870 1.388 . S
C870 H857 0.930 . S
C870 C869 1.388 . S
C870 C871 1.390 . S
C871 C870 1.390 . S
C871 C872 1.394 . S
C871 C877 1.465 . S
C872 C867 1.399 . S
C872 C871 1.394 . S
C872 C873 1.516 . S
C873 C872 1.516 . S
C873 C874 1.502 . S
C873 C875 1.561 . S
C873 C876 1.526 . S
C874 H858 0.959 . S
C874 H859 0.959 . S
C874 H860 0.961 . S
C874 C873 1.502 . S
C875 H861 0.960 . S
C875 H862 0.961 . S
C875 H863 0.959 . S
C875 C873 1.561 . S
C876 C873 1.526 . S
C876 C877 1.396 . S
C876 C881 1.390 . S
C877 C871 1.465 . S
C877 C876 1.396 . S
C877 C878 1.399 . S
C878 H864 0.929 . S
C878 C877 1.399 . S
C878 C879 1.385 . S
C879 H865 0.931 . S
C879 C878 1.385 . S
C879 C880 1.389 . S
C880 C879 1.389 . S
C880 C881 1.387 . S
C881 H866 0.930 . S
C881 C876 1.390 . S
C881 C880 1.387 . S
H882 C894 0.930 . S
H883 C896 0.930 . S
H884 C897 0.930 . S
H885 C901 0.959 . S
H886 C901 0.959 . S
H887 C901 0.961 . S
H888 C902 0.960 . S
H889 C902 0.961 . S
H890 C902 0.959 . S
H891 C905 0.929 . S
H892 C906 0.931 . S
H893 C908 0.930 . S
C894 H882 0.930 . S
C894 C895 1.399 . S
C894 C899 1.399 . S
C895 C894 1.399 . S
C895 C896 1.376 . S
C896 H883 0.930 . S
C896 C895 1.376 . S
C896 C897 1.388 . S
C897 H884 0.930 . S
C897 C896 1.388 . S
C897 C898 1.390 . S
C898 C897 1.390 . S
C898 C899 1.394 . S
C898 C904 1.465 . S
C899 C894 1.399 . S
C899 C898 1.394 . S
C899 C900 1.516 . S
C900 C899 1.516 . S
C900 C901 1.502 . S
C900 C902 1.561 . S
C900 C903 1.526 . S
C901 H885 0.959 . S
C901 H886 0.959 . S
C901 H887 0.961 . S
C901 C900 1.502 . S
C902 H888 0.960 . S
C902 H889 0.961 . S
C902 H890 0.959 . S
C902 C900 1.561 . S
C903 C900 1.526 . S
C903 C904 1.396 . S
C903 C908 1.390 . S
C904 C898 1.465 . S
C904 C903 1.396 . S
C904 C905 1.399 . S
C905 H891 0.929 . S
C905 C904 1.399 . S
C905 C906 1.385 . S
C906 H892 0.931 . S
C906 C905 1.385 . S
C906 C907 1.389 . S
C907 C906 1.389 . S
C907 C908 1.387 . S
C908 H893 0.930 . S
C908 C903 1.390 . S
C908 C907 1.387 . S
H909 C921 0.930 . S
H910 C923 0.930 . S
H911 C924 0.930 . S
H912 C928 0.959 . S
H913 C928 0.959 . S
H914 C928 0.961 . S
H915 C929 0.960 . S
H916 C929 0.961 . S
H917 C929 0.959 . S
H918 C932 0.929 . S
H919 C933 0.931 . S
H920 C935 0.930 . S
C921 H909 0.930 . S
C921 C922 1.399 . S
C921 C926 1.399 . S
C922 C921 1.399 . S
C922 C923 1.376 . S
C923 H910 0.930 . S
C923 C922 1.376 . S
C923 C924 1.388 . S
C924 H911 0.930 . S
C924 C923 1.388 . S
C924 C925 1.390 . S
C925 C924 1.390 . S
C925 C926 1.394 . S
C925 C931 1.465 . S
C926 C921 1.399 . S
C926 C925 1.394 . S
C926 C927 1.516 . S
C927 C926 1.516 . S
C927 C928 1.502 . S
C927 C929 1.561 . S
C927 C930 1.526 . S
C928 H912 0.959 . S
C928 H913 0.959 . S
C928 H914 0.961 . S
C928 C927 1.502 . S
C929 H915 0.960 . S
C929 H916 0.961 . S
C929 H917 0.959 . S
C929 C927 1.561 . S
C930 C927 1.526 . S
C930 C931 1.396 . S
C930 C935 1.390 . S
C931 C925 1.465 . S
C931 C930 1.396 . S
C931 C932 1.399 . S
C932 H918 0.929 . S
C932 C931 1.399 . S
C932 C933 1.385 . S
C933 H919 0.931 . S
C933 C932 1.385 . S
C933 C934 1.389 . S
C934 C933 1.389 . S
C934 C935 1.387 . S
C935 H920 0.930 . S
C935 C930 1.390 . S
C935 C934 1.387 . S
H936 C948 0.930 . S
H937 C950 0.930 . S
H938 C951 0.930 . S
H939 C955 0.959 . S
H940 C955 0.959 . S
H941 C955 0.961 . S
H942 C956 0.960 . S
H943 C956 0.961 . S
H944 C956 0.959 . S
H945 C959 0.929 . S
H946 C960 0.931 . S
H947 C962 0.930 . S
C948 H936 0.930 . S
C948 C949 1.399 . S
C948 C953 1.399 . S
C949 C948 1.399 . S
C949 C950 1.376 . S
C950 H937 0.930 . S
C950 C949 1.376 . S
C950 C951 1.388 . S
C951 H938 0.930 . S
C951 C950 1.388 . S
C951 C952 1.390 . S
C952 C951 1.390 . S
C952 C953 1.394 . S
C952 C958 1.465 1_455 S
C953 C948 1.399 . S
C953 C952 1.394 . S
C953 C954 1.516 . S
C954 C953 1.516 . S
C954 C955 1.502 . S
C954 C956 1.561 . S
C954 C957 1.526 . S
C955 H939 0.959 . S
C955 H940 0.959 . S
C955 H941 0.961 . S
C955 C954 1.502 . S
C956 H942 0.960 . S
C956 H943 0.961 . S
C956 H944 0.959 . S
C956 C954 1.561 . S
C957 C954 1.526 . S
C957 C958 1.396 1_455 S
C957 C962 1.390 1_455 S
C958 C952 1.465 1_655 S
C958 C957 1.396 1_655 S
C958 C959 1.399 . S
C959 H945 0.929 . S
C959 C958 1.399 . S
C959 C960 1.385 . S
C960 H946 0.931 . S
C960 C959 1.385 . S
C960 C961 1.389 . S
C961 C960 1.389 . S
C961 C962 1.387 . S
C962 H947 0.930 . S
C962 C957 1.390 1_655 S
C962 C961 1.387 . S
H963 C975 0.930 . S
H964 C977 0.930 . S
H965 C978 0.930 . S
H966 C982 0.959 . S
H967 C982 0.959 . S
H968 C982 0.961 . S
H969 C983 0.960 . S
H970 C983 0.961 . S
H971 C983 0.959 . S
H972 C986 0.929 . S
H973 C987 0.931 . S
H974 C989 0.930 . S
C975 H963 0.930 . S
C975 C976 1.399 . S
C975 C980 1.399 . S
C976 C975 1.399 . S
C976 C977 1.376 . S
C977 H964 0.930 . S
C977 C976 1.376 . S
C977 C978 1.388 . S
C978 H965 0.930 . S
C978 C977 1.388 . S
C978 C979 1.390 . S
C979 C978 1.390 . S
C979 C980 1.394 . S
C979 C985 1.465 . S
C980 C975 1.399 . S
C980 C979 1.394 . S
C980 C981 1.516 . S
C981 C980 1.516 . S
C981 C982 1.502 . S
C981 C983 1.561 . S
C981 C984 1.526 . S
C982 H966 0.959 . S
C982 H967 0.959 . S
C982 H968 0.961 . S
C982 C981 1.502 . S
C983 H969 0.960 . S
C983 H970 0.961 . S
C983 H971 0.959 . S
C983 C981 1.561 . S
C984 C981 1.526 . S
C984 C985 1.396 . S
C984 C989 1.390 . S
C985 C979 1.465 . S
C985 C984 1.396 . S
C985 C986 1.399 . S
C986 H972 0.929 . S
C986 C985 1.399 . S
C986 C987 1.385 . S
C987 H973 0.931 . S
C987 C986 1.385 . S
C987 C988 1.389 . S
C988 C987 1.389 . S
C988 C989 1.387 . S
C989 H974 0.930 . S
C989 C984 1.390 . S
C989 C988 1.387 . S
H990 C1002 0.930 . S
H991 C1004 0.930 . S
H992 C1005 0.930 . S
H993 C1009 0.959 . S
H994 C1009 0.959 . S
H995 C1009 0.961 . S
H996 C1010 0.960 . S
H997 C1010 0.961 . S
H998 C1010 0.959 1_545 S
H999 C1013 0.929 . S
H1000 C1014 0.931 . S
H1001 C1016 0.930 . S
C1002 H990 0.930 . S
C1002 C1003 1.399 . S
C1002 C1007 1.399 . S
C1003 C1002 1.399 . S
C1003 C1004 1.376 . S
C1004 H991 0.930 . S
C1004 C1003 1.376 . S
C1004 C1005 1.388 1_565 S
C1005 H992 0.930 . S
C1005 C1004 1.388 1_545 S
C1005 C1006 1.390 . S
C1006 C1005 1.390 . S
C1006 C1007 1.394 1_545 S
C1006 C1012 1.465 . S
C1007 C1002 1.399 . S
C1007 C1006 1.394 1_565 S
C1007 C1008 1.516 . S
C1008 C1007 1.516 . S
C1008 C1009 1.502 . S
C1008 C1010 1.561 . S
C1008 C1011 1.526 1_565 S
C1009 H993 0.959 . S
C1009 H994 0.959 . S
C1009 H995 0.961 . S
C1009 C1008 1.502 . S
C1010 H996 0.960 . S
C1010 H997 0.961 . S
C1010 H998 0.959 1_565 S
C1010 C1008 1.561 . S
C1011 C1008 1.526 1_545 S
C1011 C1012 1.396 . S
C1011 C1016 1.390 . S
C1012 C1006 1.465 . S
C1012 C1011 1.396 . S
C1012 C1013 1.399 . S
C1013 H999 0.929 . S
C1013 C1012 1.399 . S
C1013 C1014 1.385 . S
C1014 H1000 0.931 . S
C1014 C1013 1.385 . S
C1014 C1015 1.389 . S
C1015 C1014 1.389 . S
C1015 C1016 1.387 . S
C1016 H1001 0.930 . S
C1016 C1011 1.390 . S
C1016 C1015 1.387 . S
C544 C170 1.217 . S
C556 C33 1.199 . S
C571 C111 1.204 . S
C583 C52 1.199 . S
C598 C92 1.197 . S
C610 C151 1.192 . S
C625 C328 1.216 . S
C637 C229 1.228 . S
C652 C288 1.208 . S
C664 C210 1.188 . S
C679 C269 1.226 . S
C691 C347 1.232 . S
C706 C387 1.193 . S
C718 C524 1.198 . S
C733 C406 1.219 . S
C745 C465 1.229 . S
C760 C446 1.209 . S
C772 C505 1.216 . S
C787 C5 1.483 . S
C799 C418 1.495 . S
C814 C62 1.490 . S
C826 C475 1.464 . S
C841 C357 1.475 . S
C853 C123 1.484 . S
C868 C239 1.481 . S
C880 C121 1.496 . S
C895 C3 1.464 . S
C907 C298 1.478 . S
C922 C180 1.498 . S
C934 C64 1.487 . S
C949 C416 1.495 . S
C961 C300 1.490 . S
C976 C182 1.485 . S
C988 C477 1.486 . S
C1003 C359 1.496 . S
C1015 C241 1.484 . S
