# Generated by pormake.
# Topology ukf, (4)-cn, num edge types: 1
# Building blocks:
#     Node 0, Type 0, BuildingBlock: KUFVIS_clean_sbu_0, # of connection points: 4
#     Node 1, Type 0, BuildingBlock: KUFVIS_clean_sbu_0, # of connection points: 4
#     Node 2, Type 0, BuildingBlock: KUFVIS_clean_sbu_0, # of connection points: 4
#     Node 3, Type 0, BuildingBlock: KUFVIS_clean_sbu_0, # of connection points: 4
#     Node 4, Type 0, BuildingBlock: KUFVIS_clean_sbu_0, # of connection points: 4
#     Node 5, Type 0, BuildingBlock: KUFVIS_clean_sbu_0, # of connection points: 4
#     Node 6, Type 0, BuildingBlock: KUFVIS_clean_sbu_0, # of connection points: 4
#     Node 7, Type 0, BuildingBlock: KUFVIS_clean_sbu_0, # of connection points: 4
#     Node 8, Type 0, BuildingBlock: KUFVIS_clean_sbu_0, # of connection points: 4
#     Node 9, Type 0, BuildingBlock: KUFVIS_clean_sbu_0, # of connection points: 4
#     Node 10, Type 0, BuildingBlock: KUFVIS_clean_sbu_0, # of connection points: 4
#     Node 11, Type 0, BuildingBlock: KUFVIS_clean_sbu_0, # of connection points: 4
#     Edge 12, Type (0, 0), None
#     Edge 13, Type (0, 0), None
#     Edge 14, Type (0, 0), None
#     Edge 15, Type (0, 0), None
#     Edge 16, Type (0, 0), None
#     Edge 17, Type (0, 0), None
#     Edge 18, Type (0, 0), None
#     Edge 19, Type (0, 0), None
#     Edge 20, Type (0, 0), None
#     Edge 21, Type (0, 0), None
#     Edge 22, Type (0, 0), None
#     Edge 23, Type (0, 0), None
#     Edge 24, Type (0, 0), None
#     Edge 25, Type (0, 0), None
#     Edge 26, Type (0, 0), None
#     Edge 27, Type (0, 0), None
#     Edge 28, Type (0, 0), None
#     Edge 29, Type (0, 0), None
#     Edge 30, Type (0, 0), None
#     Edge 31, Type (0, 0), None
#     Edge 32, Type (0, 0), None
#     Edge 33, Type (0, 0), None
#     Edge 34, Type (0, 0), None
#     Edge 35, Type (0, 0), None
# Relax obj value: 0.092
# Max RMSD: 0.098
# Mean RMSD: 0.098
data_MOF--net-ukf--node1-KUFVIS_clean_sbu_0--edge1-none
_symmetry_space_group_name_H-M    P1
_symmetry_Int_Tables_number       1
_symmetry_cell_setting            triclinic
loop_
_symmetry_equiv_pos_as_xyz
'x, y, z'
_cell_length_a     15.372316
_cell_length_b     15.372134
_cell_length_c     31.167542
_cell_angle_alpha  90.000367
_cell_angle_beta   89.99977
_cell_angle_gamma 119.99884
loop_
_atom_site_label
_atom_site_type_symbol
_atom_site_fract_x
_atom_site_fract_y
_atom_site_fract_z
_atom_type_partial_charge
Mn0 Mn 0.41632 0.20748 -0.00881 0.0
Mn1 Mn 0.62011 0.36483 0.0408 0.0
C2 C 0.57562 0.25157 -0.04297 0.0
C3 C 0.29818 0.04075 -0.03804 0.0
C4 C 0.49981 0.44854 0.00897 0.0
O5 O 0.36856 0.18105 0.05865 0.0
O6 O 0.5214 0.29261 0.08149 0.0
C7 C 0.6832 0.23136 0.08272 0.0
N8 N 0.70645 0.31378 0.05862 0.0
C9 C 0.89684 0.36814 0.07033 0.0
C10 C 0.86176 0.27988 0.09391 0.0
C11 C 0.75818 0.21408 0.09987 0.0
C12 C 0.80204 0.38276 0.04987 0.0
H13 H 0.60538 0.17697 0.08876 0.0
C14 C 0.4309 0.22852 0.08986 0.0
O15 O 0.27755 0.11297 -0.03774 0.0
O16 O 0.378 0.06132 -0.01683 0.0
N17 N 0.70161 0.43501 -0.00135 0.0
C18 C 0.65955 0.46586 -0.04121 0.0
C19 C 0.79958 0.60305 0.91183 0.0
C20 C 0.926 0.64064 0.93427 0.0
C21 C 0.94056 0.57498 -0.01883 0.0
C22 C 0.80838 0.46651 0.01319 0.0
H23 H 0.68636 0.50052 0.94325 0.0
O24 O 0.49639 0.22841 0.9349 0.0
O25 O 0.55954 0.25501 -0.00169 0.0
O26 O 0.44029 0.36248 -0.00909 0.0
O27 O 0.56381 0.45211 0.03418 0.0
C28 C 0.05499 0.57342 -0.00284 0.0
C29 C 0.02367 0.44194 0.05606 0.0
H30 H 0.91341 0.25817 0.10644 0.0
H31 H 0.73476 0.14629 0.11835 0.0
H32 H 0.79528 0.64191 0.88327 0.0
H33 H 0.98885 0.70674 0.92077 0.0
H34 H 0.12138 0.62617 -0.01956 0.0
H35 H 0.04552 0.48127 0.04083 0.0
Mn36 Mn 0.20479 0.41834 0.32452 0.0
Mn37 Mn 0.25123 0.62214 0.37414 0.0
C38 C 0.32 0.57765 0.29036 0.0
C39 C 0.25338 0.3002 0.29529 0.0
C40 C 0.04722 0.50184 0.3423 0.0
O41 O 0.18347 0.37058 0.39198 0.0
O42 O 0.22474 0.52342 0.41483 0.0
C43 C 0.44779 0.68522 0.41605 0.0
N44 N 0.38862 0.70847 0.39195 0.0
C45 C 0.52466 0.89886 0.40366 0.0
C46 C 0.57783 0.86378 0.42724 0.0
C47 C 0.54005 0.7602 0.4332 0.0
C48 C 0.41523 0.80406 0.3832 0.0
H49 H 0.42437 0.6074 0.42209 0.0
C50 C 0.19833 0.43291 0.42319 0.0
O51 O 0.16053 0.27957 0.29559 0.0
O52 O 0.31263 0.38002 0.3165 0.0
N53 N 0.26256 0.70364 0.33198 0.0
C54 C 0.18964 0.66157 0.29213 0.0
C55 C 0.19249 0.80161 0.24516 0.0
C56 C 0.28131 0.92803 0.26761 0.0
C57 C 0.36154 0.94259 0.3145 0.0
C58 C 0.33783 0.8104 0.34652 0.0
H59 H 0.1818 0.68839 0.27659 0.0
O60 O 0.26393 0.49841 0.26824 0.0
O61 O 0.30048 0.56156 0.33164 0.0
O62 O 0.07375 0.44231 0.32424 0.0
O63 O 0.10766 0.56584 0.36752 0.0
C64 C 0.47753 0.05702 0.33049 0.0
C65 C 0.57769 0.0257 0.38939 0.0
H66 H 0.6512 0.91543 0.43977 0.0
H67 H 0.58442 0.73677 0.45168 0.0
H68 H 0.14932 0.79731 0.2166 0.0
H69 H 0.27807 0.99088 0.25411 0.0
H70 H 0.49117 0.12341 0.31377 0.0
H71 H 0.56021 0.04755 0.37417 0.0
Mn72 Mn 0.7824 0.20681 0.65785 0.0
Mn73 Mn 0.62505 0.25325 0.70747 0.0
C74 C 0.73831 0.32202 0.6237 0.0
C75 C 0.94913 0.2554 0.62863 0.0
C76 C 0.54134 0.04924 0.67564 0.0
O77 O 0.80884 0.18548 0.72531 0.0
O78 O 0.69728 0.22675 0.74816 0.0
C79 C 0.75852 0.44981 0.74938 0.0
N80 N 0.6761 0.39063 0.72529 0.0
C81 C 0.62174 0.52667 0.73699 0.0
C82 C 0.71 0.57985 0.76058 0.0
C83 C 0.77581 0.54207 0.76653 0.0
C84 C 0.60712 0.41724 0.71654 0.0
H85 H 0.81292 0.42638 0.75542 0.0
C86 C 0.76137 0.20034 0.75653 0.0
O87 O 0.87691 0.16255 0.62892 0.0
O88 O 0.92856 0.31464 0.64983 0.0
N89 N 0.55487 0.26457 0.66532 0.0
C90 C 0.52402 0.19165 0.62546 0.0
C91 C 0.38684 0.19451 0.57849 0.0
C92 C 0.34924 0.28333 0.60094 0.0
C93 C 0.4149 0.36356 0.64783 0.0
C94 C 0.52337 0.33983 0.67986 0.0
H95 H 0.48937 0.18381 0.60992 0.0
O96 O 0.76147 0.26595 0.60157 0.0
O97 O 0.73487 0.3025 0.66498 0.0
O98 O 0.6274 0.07577 0.65757 0.0
O99 O 0.53778 0.10967 0.70085 0.0
C100 C 0.41646 0.47955 0.66383 0.0
C101 C 0.54794 0.5797 0.72273 0.0
H102 H 0.73172 0.65321 0.7731 0.0
H103 H 0.8436 0.58644 0.78501 0.0
H104 H 0.34797 0.15134 0.54993 0.0
H105 H 0.28315 0.28009 0.58744 0.0
H106 H 0.36371 0.49318 0.6471 0.0
H107 H 0.50861 0.56222 0.7075 0.0
Mn108 Mn 0.57154 0.78443 -0.00882 0.0
Mn109 Mn 0.36776 0.62707 0.04081 0.0
C110 C 0.41224 0.74033 -0.04297 0.0
C111 C 0.68968 0.95115 -0.03804 0.0
C112 C 0.48808 0.54338 0.00898 0.0
O113 O 0.6193 0.81086 0.05864 0.0
O114 O 0.46648 0.69929 0.0815 0.0
C115 C 0.30467 0.76054 0.08272 0.0
N116 N 0.28142 0.67811 0.05862 0.0
C117 C 0.09103 0.62376 0.07033 0.0
C118 C 0.12611 0.71202 0.09391 0.0
C119 C 0.22969 0.77782 0.09987 0.0
C120 C 0.18583 0.60913 0.04987 0.0
H121 H 0.38248 0.81494 0.08875 0.0
C122 C 0.55698 0.76339 0.08986 0.0
O123 O 0.71031 0.87893 -0.03774 0.0
O124 O 0.60986 0.93059 -0.01683 0.0
N125 N 0.28626 0.55689 -0.00135 0.0
C126 C 0.32833 0.52604 -0.04121 0.0
C127 C 0.1883 0.38886 0.91183 0.0
C128 C 0.06188 0.35126 0.93427 0.0
C129 C 0.04731 0.41692 -0.01883 0.0
C130 C 0.17949 0.52539 0.01319 0.0
H131 H 0.30152 0.49139 0.94326 0.0
O132 O 0.49147 0.7635 0.9349 0.0
O133 O 0.42832 0.73689 -0.00169 0.0
O134 O 0.54758 0.62943 -0.0091 0.0
O135 O 0.42406 0.53979 0.03419 0.0
C136 C 0.93288 0.41848 -0.00284 0.0
C137 C 0.96419 0.54996 0.05606 0.0
H138 H 0.07446 0.73373 0.10643 0.0
H139 H 0.25311 0.84562 0.11835 0.0
H140 H 0.1926 0.35 0.88326 0.0
H141 H -0.00097 0.28517 0.92077 0.0
H142 H 0.8665 0.36573 -0.01956 0.0
H143 H 0.94234 0.51062 0.04083 0.0
Mn144 Mn 0.78307 0.57357 0.32452 0.0
Mn145 Mn 0.73665 0.36978 0.37414 0.0
C146 C 0.66787 0.41427 0.29037 0.0
C147 C 0.73448 0.69171 0.2953 0.0
C148 C 0.94066 0.49011 0.34231 0.0
O149 O 0.80439 0.62133 0.39198 0.0
O150 O 0.76314 0.4685 0.41483 0.0
C151 C 0.54009 0.3067 0.41605 0.0
N152 N 0.59927 0.28345 0.39196 0.0
C153 C 0.46323 0.09306 0.40366 0.0
C154 C 0.41005 0.12814 0.42725 0.0
C155 C 0.44783 0.23172 0.4332 0.0
C156 C 0.57266 0.18786 0.38321 0.0
H157 H 0.56351 0.38452 0.42209 0.0
C158 C 0.78955 0.55901 0.4232 0.0
O159 O 0.82733 0.71234 0.29559 0.0
O160 O 0.67523 0.61189 0.3165 0.0
N161 N 0.72532 0.28829 0.33198 0.0
C162 C 0.79824 0.33035 0.29213 0.0
C163 C 0.79539 0.19032 0.24516 0.0
C164 C 0.70657 0.0639 0.2676 0.0
C165 C 0.62634 0.04933 0.3145 0.0
C166 C 0.65006 0.18152 0.34652 0.0
H167 H 0.80608 0.30354 0.27659 0.0
O168 O 0.72394 0.4935 0.26824 0.0
O169 O 0.68739 0.43035 0.33165 0.0
O170 O 0.91411 0.54962 0.32424 0.0
O171 O 0.88023 0.42609 0.36752 0.0
C172 C 0.51035 0.9349 0.33049 0.0
C173 C 0.4102 0.96622 0.38939 0.0
H174 H 0.33669 0.07649 0.43977 0.0
H175 H 0.40346 0.25515 0.45168 0.0
H176 H 0.83856 0.19463 0.2166 0.0
H177 H 0.70981 0.00105 0.2541 0.0
H178 H 0.49672 0.86852 0.31377 0.0
H179 H 0.42768 0.94437 0.37417 0.0
Mn180 Mn 0.20545 0.78509 0.65785 0.0
Mn181 Mn 0.36282 0.73867 0.70747 0.0
C182 C 0.24955 0.66989 0.6237 0.0
C183 C 0.03873 0.73651 0.62863 0.0
C184 C 0.4465 0.94268 0.67564 0.0
O185 O 0.17902 0.80642 0.72531 0.0
O186 O 0.29059 0.76516 0.74816 0.0
C187 C 0.22934 0.54211 0.74939 0.0
N188 N 0.31177 0.60129 0.72529 0.0
C189 C 0.36612 0.46525 0.73699 0.0
C190 C 0.27787 0.41207 0.76058 0.0
C191 C 0.21206 0.44985 0.76654 0.0
C192 C 0.38075 0.57467 0.71654 0.0
H193 H 0.17495 0.56553 0.75542 0.0
C194 C 0.2265 0.79157 0.75653 0.0
O195 O 0.11094 0.82935 0.62893 0.0
O196 O 0.0593 0.67726 0.64984 0.0
N197 N 0.43299 0.72734 0.66532 0.0
C198 C 0.46384 0.80026 0.62546 0.0
C199 C 0.60102 0.7974 0.57849 0.0
C200 C 0.63862 0.70858 0.60094 0.0
C201 C 0.57296 0.62835 0.64783 0.0
C202 C 0.46449 0.65208 0.67986 0.0
H203 H 0.49849 0.8081 0.60992 0.0
O204 O 0.22639 0.72596 0.60157 0.0
O205 O 0.25299 0.68941 0.66498 0.0
O206 O 0.36045 0.91613 0.65757 0.0
O207 O 0.45009 0.88224 0.70085 0.0
C208 C 0.5714 0.51237 0.66383 0.0
C209 C 0.43993 0.41221 0.72273 0.0
H210 H 0.25616 0.33871 0.7731 0.0
H211 H 0.14427 0.40548 0.78502 0.0
H212 H 0.63989 0.84057 0.54993 0.0
H213 H 0.70471 0.71182 0.58744 0.0
H214 H 0.62415 0.49873 0.6471 0.0
H215 H 0.47926 0.42969 0.7075 0.0
Mn216 Mn 0.7824 0.57357 0.56905 0.0
Mn217 Mn 0.62504 0.36977 0.51943 0.0
C218 C 0.73838 0.41429 0.60319 0.0
C219 C 0.94906 0.69166 0.59831 0.0
C220 C 0.54134 0.49008 0.55127 0.0
O221 O 0.80883 0.62132 0.50159 0.0
O222 O 0.69725 0.46846 0.47873 0.0
C223 C 0.75851 0.30668 0.47751 0.0
N224 N 0.6761 0.28344 0.50161 0.0
C225 C 0.62174 0.09305 0.48991 0.0
C226 C 0.71 0.12812 0.46632 0.0
C227 C 0.77579 0.2317 0.46036 0.0
C228 C 0.60712 0.18785 0.51037 0.0
H229 H 0.8129 0.3845 0.47147 0.0
C230 C 0.76137 0.55897 0.47038 0.0
O231 O 0.87688 0.71233 0.59799 0.0
O232 O 0.92856 0.61189 0.57708 0.0
N233 N 0.55489 0.28828 0.56159 0.0
C234 C 0.52403 0.33035 0.60145 0.0
C235 C 0.38683 0.19031 0.64841 0.0
C236 C 0.34923 0.06389 0.62596 0.0
C237 C 0.4149 0.04933 0.57907 0.0
C238 C 0.52338 0.18152 0.54705 0.0
H239 H 0.48937 0.30354 0.61698 0.0
O240 O 0.76146 0.49348 0.62533 0.0
O241 O 0.73488 0.43036 0.56191 0.0
O242 O 0.62739 0.5496 0.56933 0.0
O243 O 0.53777 0.42608 0.52605 0.0
C244 C 0.41646 0.9349 0.56308 0.0
C245 C 0.54794 0.96621 0.50418 0.0
H246 H 0.73171 0.07647 0.4538 0.0
H247 H 0.84358 0.25512 0.44188 0.0
H248 H 0.34796 0.19462 0.67697 0.0
H249 H 0.28314 0.00104 0.63946 0.0
H250 H 0.36371 0.86852 0.5798 0.0
H251 H 0.5086 0.94436 0.5194 0.0
Mn252 Mn 0.20479 0.78443 0.90239 0.0
Mn253 Mn 0.25123 0.62707 0.85276 0.0
C254 C 0.32005 0.74041 0.93653 0.0
C255 C 0.25336 0.95109 0.93164 0.0
C256 C 0.04722 0.54336 0.8846 0.0
O257 O 0.18346 0.81085 0.83493 0.0
O258 O 0.22475 0.69928 0.81206 0.0
C259 C 0.44779 0.76054 0.81085 0.0
N260 N 0.38861 0.67812 0.83495 0.0
C261 C 0.52466 0.62377 0.82325 0.0
C262 C 0.57783 0.71202 0.79966 0.0
C263 C 0.54005 0.77782 0.7937 0.0
C264 C 0.41523 0.60915 0.8437 0.0
H265 H 0.42435 0.81492 0.8048 0.0
C266 C 0.19836 0.76339 0.80372 0.0
O267 O 0.1605 0.87891 0.93132 0.0
O268 O 0.31262 0.93058 0.91041 0.0
N269 N 0.26256 0.55691 0.89493 0.0
C270 C 0.18964 0.52605 0.93478 0.0
C271 C 0.19248 0.38885 -0.01826 0.0
C272 C 0.28131 0.35125 -0.0407 0.0
C273 C 0.36154 0.41693 0.91241 0.0
C274 C 0.33783 0.5254 0.88038 0.0
H275 H 0.18179 0.49139 -0.04968 0.0
O276 O 0.26393 0.76349 -0.04133 0.0
O277 O 0.30048 0.73691 0.89525 0.0
O278 O 0.07375 0.62942 0.90266 0.0
O279 O 0.10765 0.53979 0.85938 0.0
C280 C 0.47753 0.41848 0.89641 0.0
C281 C 0.57769 0.54996 0.83751 0.0
H282 H 0.65119 0.73374 0.78714 0.0
H283 H 0.5844 0.8456 0.77521 0.0
H284 H 0.14931 0.34998 0.0103 0.0
H285 H 0.27806 0.28516 -0.02721 0.0
H286 H 0.49116 0.36574 0.91314 0.0
H287 H 0.5602 0.51063 0.85274 0.0
Mn288 Mn 0.41632 0.20682 0.23572 0.0
Mn289 Mn 0.62013 0.25326 0.1861 0.0
C290 C 0.5756 0.32208 0.26986 0.0
C291 C 0.29823 0.25539 0.26497 0.0
C292 C 0.49982 0.04925 0.21793 0.0
O293 O 0.36857 0.18549 0.16826 0.0
O294 O 0.52144 0.22678 0.1454 0.0
C295 C 0.68321 0.44982 0.14418 0.0
N296 N 0.70645 0.39065 0.16828 0.0
C297 C 0.89684 0.52668 0.15658 0.0
C298 C 0.86176 0.57986 0.13299 0.0
C299 C 0.75819 0.54208 0.12703 0.0
C300 C 0.80204 0.41726 0.17704 0.0
H301 H 0.60539 0.42638 0.13813 0.0
C302 C 0.43093 0.20039 0.13705 0.0
O303 O 0.27756 0.16253 0.26465 0.0
O304 O 0.378 0.31465 0.24374 0.0
N305 N 0.70161 0.26459 0.22826 0.0
C306 C 0.65955 0.19167 0.26812 0.0
C307 C 0.79958 0.1945 0.31508 0.0
C308 C 0.926 0.28332 0.29263 0.0
C309 C 0.94057 0.36356 0.24574 0.0
C310 C 0.80838 0.33985 0.21372 0.0
H311 H 0.68636 0.18382 0.28365 0.0
O312 O 0.4964 0.26597 0.292 0.0
O313 O 0.55953 0.30251 0.22858 0.0
O314 O 0.44029 0.07578 0.236 0.0
O315 O 0.56382 0.10968 0.19272 0.0
C316 C 0.055 0.47955 0.22975 0.0
C317 C 0.02368 0.57971 0.17085 0.0
H318 H 0.91342 0.65322 0.12047 0.0
H319 H 0.73477 0.58643 0.10854 0.0
H320 H 0.79528 0.15133 0.34364 0.0
H321 H 0.98885 0.28008 0.30613 0.0
H322 H 0.12138 0.49318 0.24647 0.0
H323 H 0.04553 0.56223 0.18607 0.0
Mn324 Mn 0.20545 0.41834 0.56905 0.0
Mn325 Mn 0.36282 0.62214 0.51943 0.0
C326 C 0.24948 0.57762 0.60319 0.0
C327 C 0.03879 0.30025 0.5983 0.0
C328 C 0.44651 0.50181 0.55126 0.0
O329 O 0.17903 0.37059 0.50159 0.0
O330 O 0.29061 0.52345 0.47873 0.0
C331 C 0.22935 0.68523 0.47751 0.0
N332 N 0.31177 0.70847 0.50161 0.0
C333 C 0.36612 0.89886 0.48991 0.0
C334 C 0.27787 0.86379 0.46632 0.0
C335 C 0.21208 0.76021 0.46036 0.0
C336 C 0.38074 0.80406 0.51037 0.0
H337 H 0.17497 0.60741 0.47147 0.0
C338 C 0.22649 0.43294 0.47038 0.0
O339 O 0.11098 0.27957 0.59798 0.0
O340 O 0.0593 0.38002 0.57707 0.0
N341 N 0.43297 0.70362 0.56159 0.0
C342 C 0.46383 0.66156 0.60145 0.0
C343 C 0.60103 0.8016 0.64841 0.0
C344 C 0.63863 0.92802 0.62596 0.0
C345 C 0.57296 0.94258 0.57907 0.0
C346 C 0.46448 0.81039 0.54705 0.0
H347 H 0.49849 0.68837 0.61698 0.0
O348 O 0.22639 0.49842 0.62533 0.0
O349 O 0.25298 0.56155 0.56191 0.0
O350 O 0.36046 0.44231 0.56933 0.0
O351 O 0.4501 0.56584 0.52605 0.0
C352 C 0.5714 0.05701 0.56308 0.0
C353 C 0.43993 0.0257 0.50418 0.0
H354 H 0.25616 0.91544 0.4538 0.0
H355 H 0.14429 0.73679 0.44187 0.0
H356 H 0.6399 0.79729 0.67697 0.0
H357 H 0.70472 0.99087 0.63946 0.0
H358 H 0.62415 0.12339 0.5798 0.0
H359 H 0.47926 0.04755 0.5194 0.0
Mn360 Mn 0.78307 0.20747 0.90238 0.0
Mn361 Mn 0.73665 0.36485 0.85276 0.0
C362 C 0.66782 0.2515 0.93652 0.0
C363 C 0.7345 0.04081 0.93164 0.0
C364 C 0.94066 0.44853 0.88459 0.0
O365 O 0.8044 0.18104 0.83492 0.0
O366 O 0.76313 0.29264 0.81206 0.0
C367 C 0.54009 0.23137 0.81084 0.0
N368 N 0.59927 0.31379 0.83494 0.0
C369 C 0.46323 0.36815 0.82324 0.0
C370 C 0.41005 0.27989 0.79965 0.0
C371 C 0.44783 0.2141 0.79369 0.0
C372 C 0.57265 0.38277 0.8437 0.0
H373 H 0.56353 0.17699 0.8048 0.0
C374 C 0.78951 0.22851 0.80371 0.0
O375 O 0.82736 0.11299 0.93132 0.0
O376 O 0.67524 0.06132 0.91041 0.0
N377 N 0.72531 0.435 0.89492 0.0
C378 C 0.79824 0.46585 0.93478 0.0
C379 C 0.7954 0.60305 -0.01826 0.0
C380 C 0.70657 0.64065 -0.0407 0.0
C381 C 0.62634 0.57498 0.91241 0.0
C382 C 0.65005 0.46651 0.88038 0.0
H383 H 0.80608 0.50051 -0.04968 0.0
O384 O 0.72393 0.22842 -0.04134 0.0
O385 O 0.68739 0.255 0.89525 0.0
O386 O 0.91411 0.36248 0.90266 0.0
O387 O 0.88022 0.45212 0.85938 0.0
C388 C 0.51035 0.57343 0.89641 0.0
C389 C 0.4102 0.44195 0.83751 0.0
H390 H 0.33669 0.25819 0.78713 0.0
H391 H 0.40347 0.14631 0.77521 0.0
H392 H 0.83856 0.64192 0.01031 0.0
H393 H 0.70981 0.70674 -0.0272 0.0
H394 H 0.49672 0.62617 0.91314 0.0
H395 H 0.42768 0.48129 0.85274 0.0
Mn396 Mn 0.57154 0.78509 0.23572 0.0
Mn397 Mn 0.36775 0.73867 0.18609 0.0
C398 C 0.41227 0.66984 0.26986 0.0
C399 C 0.68964 0.73652 0.26497 0.0
C400 C 0.48808 0.94268 0.21792 0.0
O401 O 0.6193 0.80642 0.16826 0.0
O402 O 0.46644 0.76515 0.14539 0.0
C403 C 0.30466 0.54211 0.14418 0.0
N404 N 0.28142 0.60128 0.16828 0.0
C405 C 0.09103 0.46525 0.15658 0.0
C406 C 0.12611 0.41207 0.13299 0.0
C407 C 0.22968 0.44985 0.12703 0.0
C408 C 0.18583 0.57467 0.17703 0.0
H409 H 0.38248 0.56554 0.13813 0.0
C410 C 0.55694 0.79153 0.13705 0.0
O411 O 0.71031 0.82938 0.26465 0.0
O412 O 0.60987 0.67726 0.24374 0.0
N413 N 0.28627 0.72734 0.22826 0.0
C414 C 0.32834 0.80026 0.26811 0.0
C415 C 0.1883 0.79743 0.31508 0.0
C416 C 0.06188 0.7086 0.29263 0.0
C417 C 0.04731 0.62837 0.24574 0.0
C418 C 0.1795 0.65208 0.21372 0.0
H419 H 0.30153 0.80811 0.28365 0.0
O420 O 0.49146 0.72595 0.292 0.0
O421 O 0.42834 0.68941 0.22858 0.0
O422 O 0.54758 0.91613 0.236 0.0
O423 O 0.42406 0.88225 0.19272 0.0
C424 C 0.93288 0.51238 0.22975 0.0
C425 C 0.9642 0.41222 0.17085 0.0
H426 H 0.07446 0.33871 0.12047 0.0
H427 H 0.25311 0.40549 0.10854 0.0
H428 H 0.19261 0.8406 0.34364 0.0
H429 H -0.00097 0.71185 0.30613 0.0
H430 H 0.8665 0.49875 0.24647 0.0
H431 H 0.94235 0.4297 0.18607 0.0
loop_
_geom_bond_atom_site_label_1
_geom_bond_atom_site_label_2
_geom_bond_distance
_geom_bond_site_symmetry_2
_ccdc_geom_bond_type
Mn0 O5 2.095 . S
Mn0 O15 2.152 1_554 S
Mn0 O16 2.297 . S
Mn0 O24 2.385 1_554 S
Mn0 O25 2.209 . S
Mn0 O26 2.094 . S
Mn1 O6 2.121 . S
Mn1 N8 2.257 . S
Mn1 N17 2.282 . S
Mn1 O25 2.215 . S
Mn1 O27 2.117 . S
C2 O24 1.234 . S
C2 O25 1.283 1_556 S
C3 O15 1.277 1_554 S
C3 O16 1.236 . S
C4 O26 1.240 . S
C4 O27 1.264 . S
O5 Mn0 2.095 . S
O5 C14 1.250 . S
O6 Mn1 2.121 . S
O6 C14 1.258 . S
C7 N8 1.326 . S
C7 C11 1.460 . S
C7 H13 0.929 . S
N8 Mn1 2.257 . S
N8 C7 1.326 . S
N8 C12 1.362 . S
C9 C10 1.258 . S
C9 C12 1.431 . S
C9 C29 1.449 1_655 S
C10 C9 1.258 . S
C10 C11 1.477 . S
C10 H30 0.931 . S
C11 C7 1.460 . S
C11 C10 1.477 . S
C11 H31 0.930 . S
C12 N8 1.362 . S
C12 C9 1.431 . S
C12 C22 1.476 . S
H13 C7 0.929 . S
C14 O5 1.250 . S
C14 O6 1.258 . S
O15 Mn0 2.152 1_556 S
O15 C3 1.277 1_556 S
O16 Mn0 2.297 . S
O16 C3 1.236 . S
N17 Mn1 2.282 . S
N17 C18 1.328 . S
N17 C22 1.318 . S
C18 N17 1.328 . S
C18 C19 1.457 1_554 S
C18 H23 0.929 1_554 S
C19 C18 1.457 1_556 S
C19 C20 1.291 . S
C19 H32 0.931 . S
C20 C19 1.291 . S
C20 C21 1.373 1_556 S
C20 H33 0.929 . S
C21 C20 1.373 1_554 S
C21 C22 1.396 . S
C21 C28 1.403 1_655 S
C22 C12 1.476 . S
C22 N17 1.318 . S
C22 C21 1.396 . S
H23 C18 0.929 1_556 S
O24 Mn0 2.385 1_556 S
O24 C2 1.234 . S
O25 Mn0 2.209 . S
O25 Mn1 2.215 . S
O25 C2 1.283 1_554 S
O26 Mn0 2.094 . S
O26 C4 1.240 . S
O27 Mn1 2.117 . S
O27 C4 1.264 . S
C28 C21 1.403 1_455 S
C28 C29 1.399 . S
C28 H34 0.929 . S
C29 C9 1.449 1_455 S
C29 C28 1.399 . S
C29 H35 0.930 . S
H30 C10 0.931 . S
H31 C11 0.930 . S
H32 C19 0.931 . S
H33 C20 0.929 . S
H34 C28 0.929 . S
H35 C29 0.930 . S
Mn36 O41 2.095 . S
Mn36 O51 2.162 . S
Mn36 O52 2.297 . S
Mn36 O60 2.385 . S
Mn36 O61 2.209 . S
Mn36 O62 2.094 . S
Mn37 O42 2.121 . S
Mn37 N44 2.257 . S
Mn37 N53 2.282 . S
Mn37 O61 2.215 . S
Mn37 O63 2.117 . S
C38 O60 1.234 . S
C38 O61 1.283 . S
C39 O51 1.281 . S
C39 O52 1.236 . S
C40 O62 1.240 . S
C40 O63 1.264 . S
O41 Mn36 2.095 . S
O41 C50 1.250 . S
O42 Mn37 2.121 . S
O42 C50 1.258 . S
C43 N44 1.326 . S
C43 C47 1.460 . S
C43 H49 0.929 . S
N44 Mn37 2.257 . S
N44 C43 1.326 . S
N44 C48 1.362 . S
C45 C46 1.258 . S
C45 C48 1.431 . S
C45 C65 1.449 1_565 S
C46 C45 1.258 . S
C46 C47 1.477 . S
C46 H66 0.931 . S
C47 C43 1.460 . S
C47 C46 1.477 . S
C47 H67 0.930 . S
C48 N44 1.362 . S
C48 C45 1.431 . S
C48 C58 1.476 . S
H49 C43 0.929 . S
C50 O41 1.250 . S
C50 O42 1.258 . S
O51 Mn36 2.162 . S
O51 C39 1.281 . S
O52 Mn36 2.297 . S
O52 C39 1.236 . S
N53 Mn37 2.282 . S
N53 C54 1.328 . S
N53 C58 1.318 . S
C54 N53 1.328 . S
C54 C55 1.457 . S
C54 H59 0.929 . S
C55 C54 1.457 . S
C55 C56 1.291 . S
C55 H68 0.931 . S
C56 C55 1.291 . S
C56 C57 1.373 . S
C56 H69 0.929 . S
C57 C56 1.373 . S
C57 C58 1.396 . S
C57 C64 1.403 1_565 S
C58 C48 1.476 . S
C58 N53 1.318 . S
C58 C57 1.396 . S
H59 C54 0.929 . S
O60 Mn36 2.385 . S
O60 C38 1.234 . S
O61 Mn36 2.209 . S
O61 Mn37 2.215 . S
O61 C38 1.283 . S
O62 Mn36 2.094 . S
O62 C40 1.240 . S
O63 Mn37 2.117 . S
O63 C40 1.264 . S
C64 C57 1.403 1_545 S
C64 C65 1.399 . S
C64 H70 0.929 . S
C65 C45 1.449 1_545 S
C65 C64 1.399 . S
C65 H71 0.930 . S
H66 C46 0.931 . S
H67 C47 0.930 . S
H68 C55 0.931 . S
H69 C56 0.929 . S
H70 C64 0.929 . S
H71 C65 0.930 . S
Mn72 O77 2.095 . S
Mn72 O87 2.162 . S
Mn72 O88 2.297 . S
Mn72 O96 2.385 . S
Mn72 O97 2.209 . S
Mn72 O98 2.094 . S
Mn73 O78 2.121 . S
Mn73 N80 2.257 . S
Mn73 N89 2.282 . S
Mn73 O97 2.215 . S
Mn73 O99 2.117 . S
C74 O96 1.234 . S
C74 O97 1.283 . S
C75 O87 1.281 . S
C75 O88 1.236 . S
C76 O98 1.240 . S
C76 O99 1.264 . S
O77 Mn72 2.095 . S
O77 C86 1.250 . S
O78 Mn73 2.121 . S
O78 C86 1.258 . S
C79 N80 1.326 . S
C79 C83 1.460 . S
C79 H85 0.929 . S
N80 Mn73 2.257 . S
N80 C79 1.326 . S
N80 C84 1.362 . S
C81 C82 1.258 . S
C81 C84 1.431 . S
C81 C101 1.449 . S
C82 C81 1.258 . S
C82 C83 1.477 . S
C82 H102 0.931 . S
C83 C79 1.460 . S
C83 C82 1.477 . S
C83 H103 0.930 . S
C84 N80 1.362 . S
C84 C81 1.431 . S
C84 C94 1.476 . S
H85 C79 0.929 . S
C86 O77 1.250 . S
C86 O78 1.258 . S
O87 Mn72 2.162 . S
O87 C75 1.281 . S
O88 Mn72 2.297 . S
O88 C75 1.236 . S
N89 Mn73 2.282 . S
N89 C90 1.328 . S
N89 C94 1.318 . S
C90 N89 1.328 . S
C90 C91 1.457 . S
C90 H95 0.929 . S
C91 C90 1.457 . S
C91 C92 1.291 . S
C91 H104 0.931 . S
C92 C91 1.291 . S
C92 C93 1.373 . S
C92 H105 0.929 . S
C93 C92 1.373 . S
C93 C94 1.396 . S
C93 C100 1.403 . S
C94 C84 1.476 . S
C94 N89 1.318 . S
C94 C93 1.396 . S
H95 C90 0.929 . S
O96 Mn72 2.385 . S
O96 C74 1.234 . S
O97 Mn72 2.209 . S
O97 Mn73 2.215 . S
O97 C74 1.283 . S
O98 Mn72 2.094 . S
O98 C76 1.240 . S
O99 Mn73 2.117 . S
O99 C76 1.264 . S
C100 C93 1.403 . S
C100 C101 1.399 . S
C100 H106 0.929 . S
C101 C81 1.449 . S
C101 C100 1.399 . S
C101 H107 0.930 . S
H102 C82 0.931 . S
H103 C83 0.930 . S
H104 C91 0.931 . S
H105 C92 0.929 . S
H106 C100 0.929 . S
H107 C101 0.930 . S
Mn108 O113 2.095 . S
Mn108 O123 2.152 1_554 S
Mn108 O124 2.297 . S
Mn108 O132 2.385 1_554 S
Mn108 O133 2.209 . S
Mn108 O134 2.094 . S
Mn109 O114 2.121 . S
Mn109 N116 2.257 . S
Mn109 N125 2.282 . S
Mn109 O133 2.215 . S
Mn109 O135 2.117 . S
C110 O132 1.234 . S
C110 O133 1.283 1_556 S
C111 O123 1.277 1_554 S
C111 O124 1.236 . S
C112 O134 1.240 . S
C112 O135 1.264 . S
O113 Mn108 2.095 . S
O113 C122 1.250 . S
O114 Mn109 2.121 . S
O114 C122 1.258 . S
C115 N116 1.326 . S
C115 C119 1.460 . S
C115 H121 0.929 . S
N116 Mn109 2.257 . S
N116 C115 1.326 . S
N116 C120 1.362 . S
C117 C118 1.258 . S
C117 C120 1.431 . S
C117 C137 1.449 1_455 S
C118 C117 1.258 . S
C118 C119 1.477 . S
C118 H138 0.931 . S
C119 C115 1.460 . S
C119 C118 1.477 . S
C119 H139 0.930 . S
C120 N116 1.362 . S
C120 C117 1.431 . S
C120 C130 1.476 . S
H121 C115 0.929 . S
C122 O113 1.250 . S
C122 O114 1.258 . S
O123 Mn108 2.152 1_556 S
O123 C111 1.277 1_556 S
O124 Mn108 2.297 . S
O124 C111 1.236 . S
N125 Mn109 2.282 . S
N125 C126 1.328 . S
N125 C130 1.318 . S
C126 N125 1.328 . S
C126 C127 1.457 1_554 S
C126 H131 0.929 1_554 S
C127 C126 1.457 1_556 S
C127 C128 1.291 . S
C127 H140 0.931 . S
C128 C127 1.291 . S
C128 C129 1.373 1_556 S
C128 H141 0.929 . S
C129 C128 1.373 1_554 S
C129 C130 1.396 . S
C129 C136 1.403 1_455 S
C130 C120 1.476 . S
C130 N125 1.318 . S
C130 C129 1.396 . S
H131 C126 0.929 1_556 S
O132 Mn108 2.385 1_556 S
O132 C110 1.234 . S
O133 Mn108 2.209 . S
O133 Mn109 2.215 . S
O133 C110 1.283 1_554 S
O134 Mn108 2.094 . S
O134 C112 1.240 . S
O135 Mn109 2.117 . S
O135 C112 1.264 . S
C136 C129 1.403 1_655 S
C136 C137 1.399 . S
C136 H142 0.929 . S
C137 C117 1.449 1_655 S
C137 C136 1.399 . S
C137 H143 0.930 . S
H138 C118 0.931 . S
H139 C119 0.930 . S
H140 C127 0.931 . S
H141 C128 0.929 . S
H142 C136 0.929 . S
H143 C137 0.930 . S
Mn144 O149 2.095 . S
Mn144 O159 2.162 . S
Mn144 O160 2.297 . S
Mn144 O168 2.385 . S
Mn144 O169 2.209 . S
Mn144 O170 2.094 . S
Mn145 O150 2.121 . S
Mn145 N152 2.257 . S
Mn145 N161 2.282 . S
Mn145 O169 2.215 . S
Mn145 O171 2.117 . S
C146 O168 1.234 . S
C146 O169 1.283 . S
C147 O159 1.281 . S
C147 O160 1.236 . S
C148 O170 1.240 . S
C148 O171 1.264 . S
O149 Mn144 2.095 . S
O149 C158 1.250 . S
O150 Mn145 2.121 . S
O150 C158 1.258 . S
C151 N152 1.326 . S
C151 C155 1.460 . S
C151 H157 0.929 . S
N152 Mn145 2.257 . S
N152 C151 1.326 . S
N152 C156 1.362 . S
C153 C154 1.258 . S
C153 C156 1.431 . S
C153 C173 1.449 1_545 S
C154 C153 1.258 . S
C154 C155 1.477 . S
C154 H174 0.931 . S
C155 C151 1.460 . S
C155 C154 1.477 . S
C155 H175 0.930 . S
C156 N152 1.362 . S
C156 C153 1.431 . S
C156 C166 1.476 . S
H157 C151 0.929 . S
C158 O149 1.250 . S
C158 O150 1.258 . S
O159 Mn144 2.162 . S
O159 C147 1.281 . S
O160 Mn144 2.297 . S
O160 C147 1.236 . S
N161 Mn145 2.282 . S
N161 C162 1.328 . S
N161 C166 1.318 . S
C162 N161 1.328 . S
C162 C163 1.457 . S
C162 H167 0.929 . S
C163 C162 1.457 . S
C163 C164 1.291 . S
C163 H176 0.931 . S
C164 C163 1.291 . S
C164 C165 1.373 . S
C164 H177 0.929 . S
C165 C164 1.373 . S
C165 C166 1.396 . S
C165 C172 1.403 1_545 S
C166 C156 1.476 . S
C166 N161 1.318 . S
C166 C165 1.396 . S
H167 C162 0.929 . S
O168 Mn144 2.385 . S
O168 C146 1.234 . S
O169 Mn144 2.209 . S
O169 Mn145 2.215 . S
O169 C146 1.283 . S
O170 Mn144 2.094 . S
O170 C148 1.240 . S
O171 Mn145 2.117 . S
O171 C148 1.264 . S
C172 C165 1.403 1_565 S
C172 C173 1.399 . S
C172 H178 0.929 . S
C173 C153 1.449 1_565 S
C173 C172 1.399 . S
C173 H179 0.930 . S
H174 C154 0.931 . S
H175 C155 0.930 . S
H176 C163 0.931 . S
H177 C164 0.929 . S
H178 C172 0.929 . S
H179 C173 0.930 . S
Mn180 O185 2.095 . S
Mn180 O195 2.162 . S
Mn180 O196 2.297 . S
Mn180 O204 2.385 . S
Mn180 O205 2.209 . S
Mn180 O206 2.094 . S
Mn181 O186 2.121 . S
Mn181 N188 2.257 . S
Mn181 N197 2.282 . S
Mn181 O205 2.215 . S
Mn181 O207 2.117 . S
C182 O204 1.234 . S
C182 O205 1.283 . S
C183 O195 1.281 . S
C183 O196 1.236 . S
C184 O206 1.240 . S
C184 O207 1.264 . S
O185 Mn180 2.095 . S
O185 C194 1.250 . S
O186 Mn181 2.121 . S
O186 C194 1.258 . S
C187 N188 1.326 . S
C187 C191 1.460 . S
C187 H193 0.929 . S
N188 Mn181 2.257 . S
N188 C187 1.326 . S
N188 C192 1.362 . S
C189 C190 1.258 . S
C189 C192 1.431 . S
C189 C209 1.449 . S
C190 C189 1.258 . S
C190 C191 1.477 . S
C190 H210 0.931 . S
C191 C187 1.460 . S
C191 C190 1.477 . S
C191 H211 0.930 . S
C192 N188 1.362 . S
C192 C189 1.431 . S
C192 C202 1.476 . S
H193 C187 0.929 . S
C194 O185 1.250 . S
C194 O186 1.258 . S
O195 Mn180 2.162 . S
O195 C183 1.281 . S
O196 Mn180 2.297 . S
O196 C183 1.236 . S
N197 Mn181 2.282 . S
N197 C198 1.328 . S
N197 C202 1.318 . S
C198 N197 1.328 . S
C198 C199 1.457 . S
C198 H203 0.929 . S
C199 C198 1.457 . S
C199 C200 1.291 . S
C199 H212 0.931 . S
C200 C199 1.291 . S
C200 C201 1.373 . S
C200 H213 0.929 . S
C201 C200 1.373 . S
C201 C202 1.396 . S
C201 C208 1.403 . S
C202 C192 1.476 . S
C202 N197 1.318 . S
C202 C201 1.396 . S
H203 C198 0.929 . S
O204 Mn180 2.385 . S
O204 C182 1.234 . S
O205 Mn180 2.209 . S
O205 Mn181 2.215 . S
O205 C182 1.283 . S
O206 Mn180 2.094 . S
O206 C184 1.240 . S
O207 Mn181 2.117 . S
O207 C184 1.264 . S
C208 C201 1.403 . S
C208 C209 1.399 . S
C208 H214 0.929 . S
C209 C189 1.449 . S
C209 C208 1.399 . S
C209 H215 0.930 . S
H210 C190 0.931 . S
H211 C191 0.930 . S
H212 C199 0.931 . S
H213 C200 0.929 . S
H214 C208 0.929 . S
H215 C209 0.930 . S
Mn216 O221 2.095 . S
Mn216 O231 2.162 . S
Mn216 O232 2.297 . S
Mn216 O240 2.385 . S
Mn216 O241 2.209 . S
Mn216 O242 2.094 . S
Mn217 O222 2.121 . S
Mn217 N224 2.257 . S
Mn217 N233 2.282 . S
Mn217 O241 2.215 . S
Mn217 O243 2.117 . S
C218 O240 1.234 . S
C218 O241 1.283 . S
C219 O231 1.281 . S
C219 O232 1.236 . S
C220 O242 1.240 . S
C220 O243 1.264 . S
O221 Mn216 2.095 . S
O221 C230 1.250 . S
O222 Mn217 2.121 . S
O222 C230 1.258 . S
C223 N224 1.326 . S
C223 C227 1.460 . S
C223 H229 0.929 . S
N224 Mn217 2.257 . S
N224 C223 1.326 . S
N224 C228 1.362 . S
C225 C226 1.258 . S
C225 C228 1.431 . S
C225 C245 1.449 1_545 S
C226 C225 1.258 . S
C226 C227 1.477 . S
C226 H246 0.931 . S
C227 C223 1.460 . S
C227 C226 1.477 . S
C227 H247 0.930 . S
C228 N224 1.362 . S
C228 C225 1.431 . S
C228 C238 1.476 . S
H229 C223 0.929 . S
C230 O221 1.250 . S
C230 O222 1.258 . S
O231 Mn216 2.162 . S
O231 C219 1.281 . S
O232 Mn216 2.297 . S
O232 C219 1.236 . S
N233 Mn217 2.282 . S
N233 C234 1.328 . S
N233 C238 1.318 . S
C234 N233 1.328 . S
C234 C235 1.457 . S
C234 H239 0.929 . S
C235 C234 1.457 . S
C235 C236 1.291 . S
C235 H248 0.931 . S
C236 C235 1.291 . S
C236 C237 1.373 . S
C236 H249 0.929 . S
C237 C236 1.373 . S
C237 C238 1.396 . S
C237 C244 1.403 1_545 S
C238 C228 1.476 . S
C238 N233 1.318 . S
C238 C237 1.396 . S
H239 C234 0.929 . S
O240 Mn216 2.385 . S
O240 C218 1.234 . S
O241 Mn216 2.209 . S
O241 Mn217 2.215 . S
O241 C218 1.283 . S
O242 Mn216 2.094 . S
O242 C220 1.240 . S
O243 Mn217 2.117 . S
O243 C220 1.264 . S
C244 C237 1.403 1_565 S
C244 C245 1.399 . S
C244 H250 0.929 . S
C245 C225 1.449 1_565 S
C245 C244 1.399 . S
C245 H251 0.930 . S
H246 C226 0.931 . S
H247 C227 0.930 . S
H248 C235 0.931 . S
H249 C236 0.929 . S
H250 C244 0.929 . S
H251 C245 0.930 . S
Mn252 O257 2.095 . S
Mn252 O267 2.166 . S
Mn252 O268 2.297 . S
Mn252 O276 2.385 1_556 S
Mn252 O277 2.209 . S
Mn252 O278 2.094 . S
Mn253 O258 2.121 . S
Mn253 N260 2.257 . S
Mn253 N269 2.282 . S
Mn253 O277 2.215 . S
Mn253 O279 2.117 . S
C254 O276 1.232 1_556 S
C254 O277 1.286 . S
C255 O267 1.283 . S
C255 O268 1.236 . S
C256 O278 1.240 . S
C256 O279 1.264 . S
O257 Mn252 2.095 . S
O257 C266 1.250 . S
O258 Mn253 2.121 . S
O258 C266 1.258 . S
C259 N260 1.326 . S
C259 C263 1.460 . S
C259 H265 0.929 . S
N260 Mn253 2.257 . S
N260 C259 1.326 . S
N260 C264 1.362 . S
C261 C262 1.258 . S
C261 C264 1.431 . S
C261 C281 1.449 . S
C262 C261 1.258 . S
C262 C263 1.477 . S
C262 H282 0.931 . S
C263 C259 1.460 . S
C263 C262 1.477 . S
C263 H283 0.930 . S
C264 N260 1.362 . S
C264 C261 1.431 . S
C264 C274 1.476 . S
H265 C259 0.929 . S
C266 O257 1.250 . S
C266 O258 1.258 . S
O267 Mn252 2.166 . S
O267 C255 1.283 . S
O268 Mn252 2.297 . S
O268 C255 1.236 . S
N269 Mn253 2.282 . S
N269 C270 1.328 . S
N269 C274 1.318 . S
C270 N269 1.328 . S
C270 C271 1.457 1_556 S
C270 H275 0.929 1_556 S
C271 C270 1.457 1_554 S
C271 C272 1.291 . S
C271 H284 0.931 . S
C272 C271 1.291 . S
C272 C273 1.373 1_554 S
C272 H285 0.929 . S
C273 C272 1.373 1_556 S
C273 C274 1.396 . S
C273 C280 1.403 . S
C274 C264 1.476 . S
C274 N269 1.318 . S
C274 C273 1.396 . S
H275 C270 0.929 1_554 S
O276 Mn252 2.385 1_554 S
O276 C254 1.232 1_554 S
O277 Mn252 2.209 . S
O277 Mn253 2.215 . S
O277 C254 1.286 . S
O278 Mn252 2.094 . S
O278 C256 1.240 . S
O279 Mn253 2.117 . S
O279 C256 1.264 . S
C280 C273 1.403 . S
C280 C281 1.399 . S
C280 H286 0.929 . S
C281 C261 1.449 . S
C281 C280 1.399 . S
C281 H287 0.930 . S
H282 C262 0.931 . S
H283 C263 0.930 . S
H284 C271 0.931 . S
H285 C272 0.929 . S
H286 C280 0.929 . S
H287 C281 0.930 . S
Mn288 O293 2.095 . S
Mn288 O303 2.162 . S
Mn288 O304 2.297 . S
Mn288 O312 2.385 . S
Mn288 O313 2.209 . S
Mn288 O314 2.094 . S
Mn289 O294 2.121 . S
Mn289 N296 2.257 . S
Mn289 N305 2.282 . S
Mn289 O313 2.215 . S
Mn289 O315 2.117 . S
C290 O312 1.234 . S
C290 O313 1.283 . S
C291 O303 1.281 . S
C291 O304 1.236 . S
C292 O314 1.240 . S
C292 O315 1.264 . S
O293 Mn288 2.095 . S
O293 C302 1.250 . S
O294 Mn289 2.121 . S
O294 C302 1.258 . S
C295 N296 1.326 . S
C295 C299 1.460 . S
C295 H301 0.929 . S
N296 Mn289 2.257 . S
N296 C295 1.326 . S
N296 C300 1.362 . S
C297 C298 1.258 . S
C297 C300 1.431 . S
C297 C317 1.449 1_655 S
C298 C297 1.258 . S
C298 C299 1.477 . S
C298 H318 0.931 . S
C299 C295 1.460 . S
C299 C298 1.477 . S
C299 H319 0.930 . S
C300 N296 1.362 . S
C300 C297 1.431 . S
C300 C310 1.476 . S
H301 C295 0.929 . S
C302 O293 1.250 . S
C302 O294 1.258 . S
O303 Mn288 2.162 . S
O303 C291 1.281 . S
O304 Mn288 2.297 . S
O304 C291 1.236 . S
N305 Mn289 2.282 . S
N305 C306 1.328 . S
N305 C310 1.318 . S
C306 N305 1.328 . S
C306 C307 1.457 . S
C306 H311 0.929 . S
C307 C306 1.457 . S
C307 C308 1.291 . S
C307 H320 0.931 . S
C308 C307 1.291 . S
C308 C309 1.373 . S
C308 H321 0.929 . S
C309 C308 1.373 . S
C309 C310 1.396 . S
C309 C316 1.403 1_655 S
C310 C300 1.476 . S
C310 N305 1.318 . S
C310 C309 1.396 . S
H311 C306 0.929 . S
O312 Mn288 2.385 . S
O312 C290 1.234 . S
O313 Mn288 2.209 . S
O313 Mn289 2.215 . S
O313 C290 1.283 . S
O314 Mn288 2.094 . S
O314 C292 1.240 . S
O315 Mn289 2.117 . S
O315 C292 1.264 . S
C316 C309 1.403 1_455 S
C316 C317 1.399 . S
C316 H322 0.929 . S
C317 C297 1.449 1_455 S
C317 C316 1.399 . S
C317 H323 0.930 . S
H318 C298 0.931 . S
H319 C299 0.930 . S
H320 C307 0.931 . S
H321 C308 0.929 . S
H322 C316 0.929 . S
H323 C317 0.930 . S
Mn324 O329 2.095 . S
Mn324 O339 2.162 . S
Mn324 O340 2.297 . S
Mn324 O348 2.385 . S
Mn324 O349 2.209 . S
Mn324 O350 2.094 . S
Mn325 O330 2.121 . S
Mn325 N332 2.257 . S
Mn325 N341 2.282 . S
Mn325 O349 2.215 . S
Mn325 O351 2.117 . S
C326 O348 1.234 . S
C326 O349 1.283 . S
C327 O339 1.281 . S
C327 O340 1.236 . S
C328 O350 1.240 . S
C328 O351 1.264 . S
O329 Mn324 2.095 . S
O329 C338 1.250 . S
O330 Mn325 2.121 . S
O330 C338 1.258 . S
C331 N332 1.326 . S
C331 C335 1.460 . S
C331 H337 0.929 . S
N332 Mn325 2.257 . S
N332 C331 1.326 . S
N332 C336 1.362 . S
C333 C334 1.258 . S
C333 C336 1.431 . S
C333 C353 1.449 1_565 S
C334 C333 1.258 . S
C334 C335 1.477 . S
C334 H354 0.931 . S
C335 C331 1.460 . S
C335 C334 1.477 . S
C335 H355 0.930 . S
C336 N332 1.362 . S
C336 C333 1.431 . S
C336 C346 1.476 . S
H337 C331 0.929 . S
C338 O329 1.250 . S
C338 O330 1.258 . S
O339 Mn324 2.162 . S
O339 C327 1.281 . S
O340 Mn324 2.297 . S
O340 C327 1.236 . S
N341 Mn325 2.282 . S
N341 C342 1.328 . S
N341 C346 1.318 . S
C342 N341 1.328 . S
C342 C343 1.457 . S
C342 H347 0.929 . S
C343 C342 1.457 . S
C343 C344 1.291 . S
C343 H356 0.931 . S
C344 C343 1.291 . S
C344 C345 1.373 . S
C344 H357 0.929 . S
C345 C344 1.373 . S
C345 C346 1.396 . S
C345 C352 1.403 1_565 S
C346 C336 1.476 . S
C346 N341 1.318 . S
C346 C345 1.396 . S
H347 C342 0.929 . S
O348 Mn324 2.385 . S
O348 C326 1.234 . S
O349 Mn324 2.209 . S
O349 Mn325 2.215 . S
O349 C326 1.283 . S
O350 Mn324 2.094 . S
O350 C328 1.240 . S
O351 Mn325 2.117 . S
O351 C328 1.264 . S
C352 C345 1.403 1_545 S
C352 C353 1.399 . S
C352 H358 0.929 . S
C353 C333 1.449 1_545 S
C353 C352 1.399 . S
C353 H359 0.930 . S
H354 C334 0.931 . S
H355 C335 0.930 . S
H356 C343 0.931 . S
H357 C344 0.929 . S
H358 C352 0.929 . S
H359 C353 0.930 . S
Mn360 O365 2.095 . S
Mn360 O375 2.166 . S
Mn360 O376 2.297 . S
Mn360 O384 2.385 1_556 S
Mn360 O385 2.209 . S
Mn360 O386 2.094 . S
Mn361 O366 2.121 . S
Mn361 N368 2.257 . S
Mn361 N377 2.282 . S
Mn361 O385 2.215 . S
Mn361 O387 2.117 . S
C362 O384 1.232 1_556 S
C362 O385 1.286 . S
C363 O375 1.283 . S
C363 O376 1.236 . S
C364 O386 1.240 . S
C364 O387 1.264 . S
O365 Mn360 2.095 . S
O365 C374 1.250 . S
O366 Mn361 2.121 . S
O366 C374 1.258 . S
C367 N368 1.326 . S
C367 C371 1.460 . S
C367 H373 0.929 . S
N368 Mn361 2.257 . S
N368 C367 1.326 . S
N368 C372 1.362 . S
C369 C370 1.258 . S
C369 C372 1.431 . S
C369 C389 1.449 . S
C370 C369 1.258 . S
C370 C371 1.477 . S
C370 H390 0.931 . S
C371 C367 1.460 . S
C371 C370 1.477 . S
C371 H391 0.930 . S
C372 N368 1.362 . S
C372 C369 1.431 . S
C372 C382 1.476 . S
H373 C367 0.929 . S
C374 O365 1.250 . S
C374 O366 1.258 . S
O375 Mn360 2.166 . S
O375 C363 1.283 . S
O376 Mn360 2.297 . S
O376 C363 1.236 . S
N377 Mn361 2.282 . S
N377 C378 1.328 . S
N377 C382 1.318 . S
C378 N377 1.328 . S
C378 C379 1.457 1_556 S
C378 H383 0.929 1_556 S
C379 C378 1.457 1_554 S
C379 C380 1.291 . S
C379 H392 0.931 . S
C380 C379 1.291 . S
C380 C381 1.373 1_554 S
C380 H393 0.929 . S
C381 C380 1.373 1_556 S
C381 C382 1.396 . S
C381 C388 1.403 . S
C382 C372 1.476 . S
C382 N377 1.318 . S
C382 C381 1.396 . S
H383 C378 0.929 1_554 S
O384 Mn360 2.385 1_554 S
O384 C362 1.232 1_554 S
O385 Mn360 2.209 . S
O385 Mn361 2.215 . S
O385 C362 1.286 . S
O386 Mn360 2.094 . S
O386 C364 1.240 . S
O387 Mn361 2.117 . S
O387 C364 1.264 . S
C388 C381 1.403 . S
C388 C389 1.399 . S
C388 H394 0.929 . S
C389 C369 1.449 . S
C389 C388 1.399 . S
C389 H395 0.930 . S
H390 C370 0.931 . S
H391 C371 0.930 . S
H392 C379 0.931 . S
H393 C380 0.929 . S
H394 C388 0.929 . S
H395 C389 0.930 . S
Mn396 O401 2.095 . S
Mn396 O411 2.162 . S
Mn396 O412 2.297 . S
Mn396 O420 2.385 . S
Mn396 O421 2.209 . S
Mn396 O422 2.094 . S
Mn397 O402 2.121 . S
Mn397 N404 2.257 . S
Mn397 N413 2.282 . S
Mn397 O421 2.215 . S
Mn397 O423 2.117 . S
C398 O420 1.234 . S
C398 O421 1.283 . S
C399 O411 1.281 . S
C399 O412 1.236 . S
C400 O422 1.240 . S
C400 O423 1.264 . S
O401 Mn396 2.095 . S
O401 C410 1.250 . S
O402 Mn397 2.121 . S
O402 C410 1.258 . S
C403 N404 1.326 . S
C403 C407 1.460 . S
C403 H409 0.929 . S
N404 Mn397 2.257 . S
N404 C403 1.326 . S
N404 C408 1.362 . S
C405 C406 1.258 . S
C405 C408 1.431 . S
C405 C425 1.449 1_455 S
C406 C405 1.258 . S
C406 C407 1.477 . S
C406 H426 0.931 . S
C407 C403 1.460 . S
C407 C406 1.477 . S
C407 H427 0.930 . S
C408 N404 1.362 . S
C408 C405 1.431 . S
C408 C418 1.476 . S
H409 C403 0.929 . S
C410 O401 1.250 . S
C410 O402 1.258 . S
O411 Mn396 2.162 . S
O411 C399 1.281 . S
O412 Mn396 2.297 . S
O412 C399 1.236 . S
N413 Mn397 2.282 . S
N413 C414 1.328 . S
N413 C418 1.318 . S
C414 N413 1.328 . S
C414 C415 1.457 . S
C414 H419 0.929 . S
C415 C414 1.457 . S
C415 C416 1.291 . S
C415 H428 0.931 . S
C416 C415 1.291 . S
C416 C417 1.373 . S
C416 H429 0.929 . S
C417 C416 1.373 . S
C417 C418 1.396 . S
C417 C424 1.403 1_455 S
C418 C408 1.476 . S
C418 N413 1.318 . S
C418 C417 1.396 . S
H419 C414 0.929 . S
O420 Mn396 2.385 . S
O420 C398 1.234 . S
O421 Mn396 2.209 . S
O421 Mn397 2.215 . S
O421 C398 1.283 . S
O422 Mn396 2.094 . S
O422 C400 1.240 . S
O423 Mn397 2.117 . S
O423 C400 1.264 . S
C424 C417 1.403 1_655 S
C424 C425 1.399 . S
C424 H430 0.929 . S
C425 C405 1.449 1_655 S
C425 C424 1.399 . S
C425 H431 0.930 . S
H426 C406 0.931 . S
H427 C407 0.930 . S
H428 C415 0.931 . S
H429 C416 0.929 . S
H430 C424 0.929 . S
H431 C425 0.930 . S
C255 C3 1.447 1_566 S
C39 C291 1.447 . S
C75 C327 1.447 1_655 S
C111 C363 1.447 1_564 S
C399 C147 1.447 . S
C219 C183 1.447 1_655 S
C362 C2 1.605 . S
C38 C398 1.606 . S
C74 C218 1.605 . S
C254 C110 1.605 . S
C290 C146 1.606 . S
C326 C182 1.605 . S
C14 C302 1.569 . S
C50 C338 1.569 . S
C374 C86 1.569 . S
C122 C410 1.569 . S
C230 C158 1.569 . S
C266 C194 1.569 . S
C112 C4 1.379 . S
C148 C40 1.380 1_655 S
C76 C184 1.379 1_545 S
C220 C328 1.379 . S
C256 C364 1.379 1_455 S
C400 C292 1.379 1_565 S
