# Generated by pormake.
# Topology uka, (4)-cn, num edge types: 1
# Building blocks:
#     Node 0, Type 0, BuildingBlock: KUFVIS_clean_sbu_0, # of connection points: 4
#     Node 1, Type 0, BuildingBlock: KUFVIS_clean_sbu_0, # of connection points: 4
#     Node 2, Type 0, BuildingBlock: KUFVIS_clean_sbu_0, # of connection points: 4
#     Node 3, Type 0, BuildingBlock: KUFVIS_clean_sbu_0, # of connection points: 4
#     Node 4, Type 0, BuildingBlock: KUFVIS_clean_sbu_0, # of connection points: 4
#     Node 5, Type 0, BuildingBlock: KUFVIS_clean_sbu_0, # of connection points: 4
#     Node 6, Type 0, BuildingBlock: KUFVIS_clean_sbu_0, # of connection points: 4
#     Node 7, Type 0, BuildingBlock: KUFVIS_clean_sbu_0, # of connection points: 4
#     Node 8, Type 0, BuildingBlock: KUFVIS_clean_sbu_0, # of connection points: 4
#     Node 9, Type 0, BuildingBlock: KUFVIS_clean_sbu_0, # of connection points: 4
#     Node 10, Type 0, BuildingBlock: KUFVIS_clean_sbu_0, # of connection points: 4
#     Node 11, Type 0, BuildingBlock: KUFVIS_clean_sbu_0, # of connection points: 4
#     Node 12, Type 0, BuildingBlock: KUFVIS_clean_sbu_0, # of connection points: 4
#     Node 13, Type 0, BuildingBlock: KUFVIS_clean_sbu_0, # of connection points: 4
#     Node 14, Type 0, BuildingBlock: KUFVIS_clean_sbu_0, # of connection points: 4
#     Node 15, Type 0, BuildingBlock: KUFVIS_clean_sbu_0, # of connection points: 4
#     Node 16, Type 0, BuildingBlock: KUFVIS_clean_sbu_0, # of connection points: 4
#     Node 17, Type 0, BuildingBlock: KUFVIS_clean_sbu_0, # of connection points: 4
#     Node 18, Type 0, BuildingBlock: KUFVIS_clean_sbu_0, # of connection points: 4
#     Node 19, Type 0, BuildingBlock: KUFVIS_clean_sbu_0, # of connection points: 4
#     Node 20, Type 0, BuildingBlock: KUFVIS_clean_sbu_0, # of connection points: 4
#     Node 21, Type 0, BuildingBlock: KUFVIS_clean_sbu_0, # of connection points: 4
#     Node 22, Type 0, BuildingBlock: KUFVIS_clean_sbu_0, # of connection points: 4
#     Node 23, Type 0, BuildingBlock: KUFVIS_clean_sbu_0, # of connection points: 4
#     Node 24, Type 0, BuildingBlock: KUFVIS_clean_sbu_0, # of connection points: 4
#     Node 25, Type 0, BuildingBlock: KUFVIS_clean_sbu_0, # of connection points: 4
#     Node 26, Type 0, BuildingBlock: KUFVIS_clean_sbu_0, # of connection points: 4
#     Node 27, Type 0, BuildingBlock: KUFVIS_clean_sbu_0, # of connection points: 4
#     Node 28, Type 0, BuildingBlock: KUFVIS_clean_sbu_0, # of connection points: 4
#     Node 29, Type 0, BuildingBlock: KUFVIS_clean_sbu_0, # of connection points: 4
#     Node 30, Type 0, BuildingBlock: KUFVIS_clean_sbu_0, # of connection points: 4
#     Node 31, Type 0, BuildingBlock: KUFVIS_clean_sbu_0, # of connection points: 4
#     Edge 32, Type (0, 0), BuildingBlock: AJUNOK_clean_linker_0, # of connection points: 2
#     Edge 33, Type (0, 0), BuildingBlock: AJUNOK_clean_linker_0, # of connection points: 2
#     Edge 34, Type (0, 0), BuildingBlock: AJUNOK_clean_linker_0, # of connection points: 2
#     Edge 35, Type (0, 0), BuildingBlock: AJUNOK_clean_linker_0, # of connection points: 2
#     Edge 36, Type (0, 0), BuildingBlock: AJUNOK_clean_linker_0, # of connection points: 2
#     Edge 37, Type (0, 0), BuildingBlock: AJUNOK_clean_linker_0, # of connection points: 2
#     Edge 38, Type (0, 0), BuildingBlock: AJUNOK_clean_linker_0, # of connection points: 2
#     Edge 39, Type (0, 0), BuildingBlock: AJUNOK_clean_linker_0, # of connection points: 2
#     Edge 40, Type (0, 0), BuildingBlock: AJUNOK_clean_linker_0, # of connection points: 2
#     Edge 41, Type (0, 0), BuildingBlock: AJUNOK_clean_linker_0, # of connection points: 2
#     Edge 42, Type (0, 0), BuildingBlock: AJUNOK_clean_linker_0, # of connection points: 2
#     Edge 43, Type (0, 0), BuildingBlock: AJUNOK_clean_linker_0, # of connection points: 2
#     Edge 44, Type (0, 0), BuildingBlock: AJUNOK_clean_linker_0, # of connection points: 2
#     Edge 45, Type (0, 0), BuildingBlock: AJUNOK_clean_linker_0, # of connection points: 2
#     Edge 46, Type (0, 0), BuildingBlock: AJUNOK_clean_linker_0, # of connection points: 2
#     Edge 47, Type (0, 0), BuildingBlock: AJUNOK_clean_linker_0, # of connection points: 2
#     Edge 48, Type (0, 0), BuildingBlock: AJUNOK_clean_linker_0, # of connection points: 2
#     Edge 49, Type (0, 0), BuildingBlock: AJUNOK_clean_linker_0, # of connection points: 2
#     Edge 50, Type (0, 0), BuildingBlock: AJUNOK_clean_linker_0, # of connection points: 2
#     Edge 51, Type (0, 0), BuildingBlock: AJUNOK_clean_linker_0, # of connection points: 2
#     Edge 52, Type (0, 0), BuildingBlock: AJUNOK_clean_linker_0, # of connection points: 2
#     Edge 53, Type (0, 0), BuildingBlock: AJUNOK_clean_linker_0, # of connection points: 2
#     Edge 54, Type (0, 0), BuildingBlock: AJUNOK_clean_linker_0, # of connection points: 2
#     Edge 55, Type (0, 0), BuildingBlock: AJUNOK_clean_linker_0, # of connection points: 2
#     Edge 56, Type (0, 0), BuildingBlock: AJUNOK_clean_linker_0, # of connection points: 2
#     Edge 57, Type (0, 0), BuildingBlock: AJUNOK_clean_linker_0, # of connection points: 2
#     Edge 58, Type (0, 0), BuildingBlock: AJUNOK_clean_linker_0, # of connection points: 2
#     Edge 59, Type (0, 0), BuildingBlock: AJUNOK_clean_linker_0, # of connection points: 2
#     Edge 60, Type (0, 0), BuildingBlock: AJUNOK_clean_linker_0, # of connection points: 2
#     Edge 61, Type (0, 0), BuildingBlock: AJUNOK_clean_linker_0, # of connection points: 2
#     Edge 62, Type (0, 0), BuildingBlock: AJUNOK_clean_linker_0, # of connection points: 2
#     Edge 63, Type (0, 0), BuildingBlock: AJUNOK_clean_linker_0, # of connection points: 2
#     Edge 64, Type (0, 0), BuildingBlock: AJUNOK_clean_linker_0, # of connection points: 2
#     Edge 65, Type (0, 0), BuildingBlock: AJUNOK_clean_linker_0, # of connection points: 2
#     Edge 66, Type (0, 0), BuildingBlock: AJUNOK_clean_linker_0, # of connection points: 2
#     Edge 67, Type (0, 0), BuildingBlock: AJUNOK_clean_linker_0, # of connection points: 2
#     Edge 68, Type (0, 0), BuildingBlock: AJUNOK_clean_linker_0, # of connection points: 2
#     Edge 69, Type (0, 0), BuildingBlock: AJUNOK_clean_linker_0, # of connection points: 2
#     Edge 70, Type (0, 0), BuildingBlock: AJUNOK_clean_linker_0, # of connection points: 2
#     Edge 71, Type (0, 0), BuildingBlock: AJUNOK_clean_linker_0, # of connection points: 2
#     Edge 72, Type (0, 0), BuildingBlock: AJUNOK_clean_linker_0, # of connection points: 2
#     Edge 73, Type (0, 0), BuildingBlock: AJUNOK_clean_linker_0, # of connection points: 2
#     Edge 74, Type (0, 0), BuildingBlock: AJUNOK_clean_linker_0, # of connection points: 2
#     Edge 75, Type (0, 0), BuildingBlock: AJUNOK_clean_linker_0, # of connection points: 2
#     Edge 76, Type (0, 0), BuildingBlock: AJUNOK_clean_linker_0, # of connection points: 2
#     Edge 77, Type (0, 0), BuildingBlock: AJUNOK_clean_linker_0, # of connection points: 2
#     Edge 78, Type (0, 0), BuildingBlock: AJUNOK_clean_linker_0, # of connection points: 2
#     Edge 79, Type (0, 0), BuildingBlock: AJUNOK_clean_linker_0, # of connection points: 2
#     Edge 80, Type (0, 0), BuildingBlock: AJUNOK_clean_linker_0, # of connection points: 2
#     Edge 81, Type (0, 0), BuildingBlock: AJUNOK_clean_linker_0, # of connection points: 2
#     Edge 82, Type (0, 0), BuildingBlock: AJUNOK_clean_linker_0, # of connection points: 2
#     Edge 83, Type (0, 0), BuildingBlock: AJUNOK_clean_linker_0, # of connection points: 2
#     Edge 84, Type (0, 0), BuildingBlock: AJUNOK_clean_linker_0, # of connection points: 2
#     Edge 85, Type (0, 0), BuildingBlock: AJUNOK_clean_linker_0, # of connection points: 2
#     Edge 86, Type (0, 0), BuildingBlock: AJUNOK_clean_linker_0, # of connection points: 2
#     Edge 87, Type (0, 0), BuildingBlock: AJUNOK_clean_linker_0, # of connection points: 2
#     Edge 88, Type (0, 0), BuildingBlock: AJUNOK_clean_linker_0, # of connection points: 2
#     Edge 89, Type (0, 0), BuildingBlock: AJUNOK_clean_linker_0, # of connection points: 2
#     Edge 90, Type (0, 0), BuildingBlock: AJUNOK_clean_linker_0, # of connection points: 2
#     Edge 91, Type (0, 0), BuildingBlock: AJUNOK_clean_linker_0, # of connection points: 2
#     Edge 92, Type (0, 0), BuildingBlock: AJUNOK_clean_linker_0, # of connection points: 2
#     Edge 93, Type (0, 0), BuildingBlock: AJUNOK_clean_linker_0, # of connection points: 2
#     Edge 94, Type (0, 0), BuildingBlock: AJUNOK_clean_linker_0, # of connection points: 2
#     Edge 95, Type (0, 0), BuildingBlock: AJUNOK_clean_linker_0, # of connection points: 2
# Relax obj value: 0.146
# Max RMSD: 0.209
# Mean RMSD: 0.204
data_MOF--net-uka--node1-KUFVIS_clean_sbu_0--edge1-AJUNOK_clean_linker_0
_symmetry_space_group_name_H-M    P1
_symmetry_Int_Tables_number       1
_symmetry_cell_setting            triclinic
loop_
_symmetry_equiv_pos_as_xyz
'x, y, z'
_cell_length_a     42.300339
_cell_length_b     44.553591
_cell_length_c     30.715578
_cell_angle_alpha  90.036417
_cell_angle_beta   89.96529
_cell_angle_gamma 89.967219
loop_
_atom_site_label
_atom_site_type_symbol
_atom_site_fract_x
_atom_site_fract_y
_atom_site_fract_z
_atom_type_partial_charge
Mn0 Mn 0.12988 0.27765 0.29633 0.0
Mn1 Mn 0.12431 0.22286 0.22112 0.0
C2 C 0.12633 0.22824 0.31767 0.0
C3 C 0.10503 0.31206 0.34134 0.0
C4 C 0.18599 0.25314 0.24545 0.0
O5 O 0.11714 0.30047 0.24176 0.0
O6 O 0.11226 0.26202 0.19455 0.0
C7 C 0.05516 0.22341 0.20501 0.0
N8 N 0.08165 0.20862 0.21837 0.0
C9 C 0.05193 0.16344 0.23141 0.0
C10 C 0.02443 0.17812 0.2175 0.0
C11 C 0.02605 0.20823 0.20428 0.0
C12 C 0.08035 0.17956 0.23093 0.0
H13 H 0.05621 0.24655 0.19472 0.0
C14 C 0.10988 0.28991 0.20448 0.0
O15 O 0.13442 0.31583 0.33022 0.0
O16 O 0.09015 0.28929 0.32514 0.0
N17 N 0.13441 0.18394 0.24363 0.0
C18 C 0.16296 0.17308 0.25685 0.0
C19 C 0.16515 0.1435 0.2723 0.0
C20 C 0.13803 0.12537 0.27384 0.0
C21 C 0.10896 0.13694 0.25973 0.0
C22 C 0.10823 0.16655 0.24449 0.0
H23 H 0.18389 0.18692 0.25596 0.0
O24 O 0.13802 0.24828 0.34375 0.0
O25 O 0.11688 0.23794 0.27995 0.0
O26 O 0.17487 0.27098 0.27409 0.0
O27 O 0.1691 0.23528 0.22271 0.0
C28 C 0.08064 0.12033 0.26056 0.0
C29 C 0.05217 0.13354 0.24629 0.0
H30 H 0.0019 0.16658 0.21713 0.0
H31 H 0.0049 0.21961 0.1934 0.0
H32 H 0.18767 0.13474 0.28316 0.0
H33 H 0.13978 0.10262 0.28602 0.0
H34 H 0.08048 0.0974 0.27224 0.0
H35 H 0.03052 0.12057 0.2472 0.0
Mn36 Mn 0.96531 0.87189 0.52774 0.0
Mn37 Mn 0.02279 0.87615 0.45233 0.0
C38 C 0.01696 0.87413 0.54967 0.0
C39 C 0.93237 0.84406 0.572 0.0
C40 C 0.98689 0.93032 0.48536 0.0
O41 O 0.94254 0.85926 0.47319 0.0
O42 O 0.98158 0.86483 0.42434 0.0
C43 C 0.02474 0.81208 0.42587 0.0
N44 N 0.03967 0.83696 0.44152 0.0
C45 C 0.08965 0.8111 0.44307 0.0
C46 C 0.07481 0.7853 0.42675 0.0
C47 C 0.04218 0.78576 0.41838 0.0
C48 C 0.07105 0.8367 0.44988 0.0
H49 H 0.99972 0.81226 0.41907 0.0
C50 C 0.95313 0.85766 0.43455 0.0
O51 O 0.92521 0.87157 0.56209 0.0
O52 O 0.95744 0.83247 0.55464 0.0
N53 N 0.06391 0.88577 0.47414 0.0
C54 C 0.07439 0.91207 0.49161 0.0
C55 C 0.10625 0.91486 0.50352 0.0
C56 C 0.12707 0.89067 0.49722 0.0
C57 C 0.11581 0.86389 0.47897 0.0
C58 C 0.08383 0.86247 0.46748 0.0
H59 H 0.05855 0.93077 0.49654 0.0
O60 O 0.99405 0.88196 0.57531 0.0
O61 O 0.00898 0.86416 0.51106 0.0
O62 O 0.96702 0.91579 0.50837 0.0
O63 O 0.00808 0.91756 0.46224 0.0
C64 C 0.13506 0.83853 0.47188 0.0
C65 C 0.122 0.81217 0.45387 0.0
H66 H 0.08815 0.76494 0.421 0.0
H67 H 0.03053 0.76587 0.40604 0.0
H68 H 0.11472 0.93571 0.51722 0.0
H69 H 0.15166 0.89295 0.5063 0.0
H70 H 0.15989 0.83899 0.48046 0.0
H71 H 0.13696 0.79271 0.44899 0.0
Mn72 Mn 0.37327 0.72674 0.79446 0.0
Mn73 Mn 0.38927 0.78352 0.7257 0.0
C74 C 0.37974 0.77472 0.82051 0.0
C75 C 0.39209 0.68961 0.84045 0.0
C76 C 0.32314 0.75925 0.74058 0.0
O77 O 0.38803 0.7047 0.74025 0.0
O78 O 0.39713 0.74426 0.69617 0.0
C79 C 0.45841 0.77469 0.71599 0.0
N80 N 0.43353 0.79228 0.72804 0.0
C81 C 0.46848 0.83252 0.74856 0.0
C82 C 0.49438 0.81486 0.73618 0.0
C83 C 0.48931 0.7859 0.71973 0.0
C84 C 0.43816 0.82037 0.74351 0.0
H85 H 0.45474 0.75231 0.70349 0.0
C86 C 0.39679 0.71599 0.70409 0.0
O87 O 0.36339 0.6881 0.82539 0.0
O88 O 0.40969 0.71144 0.82718 0.0
N89 N 0.38345 0.82252 0.75086 0.0
C90 C 0.35605 0.83642 0.7627 0.0
C91 C 0.35713 0.8654 0.78059 0.0
C92 C 0.38636 0.87979 0.78626 0.0
C93 C 0.41424 0.86511 0.77376 0.0
C94 C 0.41168 0.83634 0.75567 0.0
H95 H 0.33356 0.82532 0.75924 0.0
O96 O 0.36412 0.75504 0.84293 0.0
O97 O 0.39112 0.76558 0.78346 0.0
O98 O 0.33072 0.73793 0.76641 0.0
O99 O 0.34341 0.7767 0.72291 0.0
C100 C 0.4445 0.87774 0.77912 0.0
C101 C 0.4716 0.86147 0.76651 0.0
H102 H 0.51828 0.82312 0.73963 0.0
H103 H 0.50925 0.77231 0.71011 0.0
H104 H 0.3355 0.8765 0.79039 0.0
H105 H 0.38712 0.90202 0.80049 0.0
H106 H 0.44722 0.89988 0.7932 0.0
H107 H 0.49473 0.87132 0.77119 0.0
Mn108 Mn 0.53095 0.13098 0.03064 0.0
Mn109 Mn 0.47278 0.12285 0.95692 0.0
C110 C 0.48011 0.12463 0.05444 0.0
C111 C 0.56339 0.16053 0.07313 0.0
C112 C 0.51219 0.07115 0.98924 0.0
O113 O 0.55188 0.14489 0.97564 0.0
O114 O 0.51336 0.13494 0.92758 0.0
C115 C 0.4685 0.18642 0.92887 0.0
N116 N 0.45457 0.16143 0.94582 0.0
C117 C 0.40384 0.18587 0.94775 0.0
C118 C 0.41763 0.21174 0.93007 0.0
C119 C 0.45012 0.21207 0.92078 0.0
C120 C 0.42331 0.16092 0.9549 0.0
H121 H 0.4934 0.18682 0.92128 0.0
C122 C 0.54129 0.14405 0.93706 0.0
O123 O 0.5717 0.13338 0.0629 0.0
O124 O 0.5371 0.17081 0.05749 0.0
N125 N 0.43203 0.11208 0.97912 0.0
C126 C 0.42238 0.08551 0.99664 0.0
C127 C 0.39061 0.0819 0.00886 0.0
C128 C 0.36903 0.10544 1.00235 0.0
C129 C 0.37942 0.13245 0.9839 0.0
C130 C 0.41136 0.13477 0.97237 0.0
H131 H 0.43884 0.06729 1.00155 0.0
O132 O 0.50426 0.11921 0.07916 0.0
O133 O 0.48628 0.1356 0.01566 0.0
O134 O 0.53178 0.08704 0.01083 0.0
O135 O 0.4893 0.08231 0.96756 0.0
C136 C 0.35937 0.15724 0.97688 0.0
C137 C 0.37156 0.18391 0.95872 0.0
H138 H 0.40351 0.23146 0.92352 0.0
H139 H 0.46094 0.232 0.90723 0.0
H140 H 0.38275 0.06098 0.02308 0.0
H141 H 0.34452 0.10259 0.01148 0.0
H142 H 0.33457 0.15608 0.98552 0.0
H143 H 0.35594 0.20286 0.95357 0.0
Mn144 Mn 0.13149 0.72354 0.2182 0.0
Mn145 Mn 0.12309 0.77849 0.29257 0.0
C146 C 0.12673 0.77262 0.19608 0.0
C147 C 0.10831 0.68816 0.17359 0.0
C148 C 0.18608 0.7504 0.26924 0.0
O149 O 0.11935 0.70062 0.27276 0.0
O150 O 0.11265 0.739 0.31964 0.0
C151 C 0.05383 0.77514 0.30713 0.0
N152 N 0.07978 0.79098 0.29431 0.0
C153 C 0.04807 0.83468 0.27948 0.0
C154 C 0.0211 0.81889 0.29275 0.0
C155 C 0.024 0.78903 0.30668 0.0
C156 C 0.07725 0.81985 0.28119 0.0
H157 H 0.05586 0.75215 0.31786 0.0
C158 C 0.11162 0.71099 0.30994 0.0
O159 O 0.13776 0.68534 0.18501 0.0
O160 O 0.09249 0.71054 0.18929 0.0
N161 N 0.13164 0.81769 0.26989 0.0
C162 C 0.15982 0.82965 0.25714 0.0
C163 C 0.16079 0.85916 0.24122 0.0
C164 C 0.13286 0.87612 0.23877 0.0
C165 C 0.1042 0.86346 0.25247 0.0
C166 C 0.10469 0.83397 0.26822 0.0
H167 H 0.18136 0.8167 0.25866 0.0
O168 O 0.13914 0.75267 0.17047 0.0
O169 O 0.11689 0.76297 0.2337 0.0
O170 O 0.17589 0.73186 0.24095 0.0
O171 O 0.16838 0.76783 0.29159 0.0
C172 C 0.07512 0.87882 0.25058 0.0
C173 C 0.04709 0.86447 0.26419 0.0
H174 H 0.99802 0.82944 0.29221 0.0
H175 H 0.00325 0.77684 0.31716 0.0
H176 H 0.183 0.86876 0.23063 0.0
H177 H 0.13368 0.89881 0.22616 0.0
H178 H 0.07401 0.90163 0.2385 0.0
H179 H 0.02485 0.87648 0.26243 0.0
Mn180 Mn 0.53238 0.8698 0.48508 0.0
Mn181 Mn 0.47641 0.87761 0.56247 0.0
C182 C 0.48036 0.87189 0.46498 0.0
C183 C 0.56481 0.83893 0.4442 0.0
C184 C 0.51316 0.92986 0.52512 0.0
O185 O 0.55621 0.85996 0.54 0.0
O186 O 0.5177 0.86607 0.5897 0.0
C187 C 0.473 0.81475 0.59354 0.0
N188 N 0.45856 0.83937 0.57629 0.0
C189 C 0.40778 0.81515 0.57869 0.0
C190 C 0.42208 0.78971 0.5969 0.0
C191 C 0.45485 0.78941 0.60405 0.0
C192 C 0.42704 0.83983 0.56913 0.0
H193 H 0.49815 0.81444 0.59946 0.0
C194 C 0.54613 0.85931 0.57895 0.0
O195 O 0.57179 0.86711 0.44938 0.0
O196 O 0.53979 0.82875 0.46339 0.0
N197 N 0.43521 0.88783 0.54142 0.0
C198 C 0.42522 0.91383 0.52253 0.0
C199 C 0.39328 0.91702 0.51098 0.0
C200 C 0.37189 0.89363 0.51948 0.0
C201 C 0.38262 0.86728 0.53955 0.0
C202 C 0.41473 0.86535 0.55024 0.0
H203 H 0.44154 0.93191 0.51598 0.0
O204 O 0.50288 0.87741 0.4375 0.0
O205 O 0.48892 0.86356 0.50414 0.0
O206 O 0.5312 0.91473 0.49998 0.0
O207 O 0.49247 0.91795 0.54988 0.0
C208 C 0.36274 0.84277 0.54912 0.0
C209 C 0.37529 0.81678 0.56886 0.0
H210 H 0.40818 0.77023 0.60528 0.0
H211 H 0.46607 0.76972 0.61774 0.0
H212 H 0.38518 0.93751 0.49574 0.0
H213 H 0.34726 0.89616 0.51058 0.0
H214 H 0.3378 0.84363 0.54123 0.0
H215 H 0.35983 0.798 0.57579 0.0
Mn216 Mn 0.37294 0.27635 0.71757 0.0
Mn217 Mn 0.38304 0.221 0.79086 0.0
C218 C 0.37778 0.22742 0.69483 0.0
C219 C 0.39474 0.3116 0.67107 0.0
C220 C 0.31926 0.24796 0.7695 0.0
O221 O 0.38687 0.29918 0.77154 0.0
O222 O 0.39199 0.2606 0.81853 0.0
C223 C 0.45196 0.22652 0.80638 0.0
N224 N 0.42676 0.21003 0.79252 0.0
C225 C 0.46019 0.16762 0.77699 0.0
C226 C 0.48642 0.18418 0.79106 0.0
C227 C 0.48227 0.21367 0.80601 0.0
C228 C 0.43046 0.18142 0.77872 0.0
H229 H 0.44898 0.24924 0.81789 0.0
C230 C 0.39367 0.28857 0.80893 0.0
O231 O 0.36571 0.31449 0.6844 0.0
O232 O 0.41106 0.28941 0.68623 0.0
N233 N 0.37603 0.18169 0.76757 0.0
C234 C 0.34832 0.16874 0.75496 0.0
C235 C 0.34852 0.13932 0.73855 0.0
C236 C 0.37715 0.12349 0.73544 0.0
C237 C 0.40532 0.13715 0.74906 0.0
C238 C 0.40364 0.16647 0.76534 0.0
H239 H 0.32625 0.18086 0.75698 0.0
O240 O 0.36412 0.2472 0.67024 0.0
O241 O 0.38832 0.23703 0.73212 0.0
O242 O 0.32896 0.26789 0.74281 0.0
O243 O 0.33755 0.23009 0.79002 0.0
C244 C 0.43501 0.12289 0.74678 0.0
C245 C 0.46241 0.13809 0.76083 0.0
H246 H 0.50989 0.1746 0.79034 0.0
H247 H 0.50243 0.22639 0.81727 0.0
H248 H 0.32668 0.12894 0.72811 0.0
H249 H 0.37724 0.10086 0.72249 0.0
H250 H 0.43705 0.10026 0.7342 0.0
H251 H 0.4851 0.12692 0.7588 0.0
Mn252 Mn 0.96765 0.12705 0.98207 0.0
Mn253 Mn 0.02504 0.12045 0.05754 0.0
C254 C 0.01933 0.125 0.95994 0.0
C255 C 0.93416 0.15668 0.94094 0.0
C256 C 0.98836 0.06741 0.02186 0.0
O257 O 0.94477 0.13746 0.03769 0.0
O258 O 0.98422 0.13251 0.08596 0.0
C259 C 0.0288 0.18405 0.08571 0.0
N260 N 0.04309 0.15892 0.06977 0.0
C261 C 0.094 0.18302 0.07064 0.0
C262 C 0.07985 0.20905 0.0874 0.0
C263 C 0.04707 0.20964 0.09461 0.0
C264 C 0.07458 0.15821 0.06233 0.0
H265 H 0.00366 0.18463 0.09166 0.0
C266 C 0.9556 0.13926 0.07617 0.0
O267 O 0.92759 0.12861 0.94783 0.0
O268 O 0.95926 0.16765 0.95901 0.0
N269 N 0.06594 0.10999 0.03558 0.0
C270 C 0.07566 0.08377 0.01699 0.0
C271 C 0.10756 0.08017 1.00557 0.0
C272 C 0.12919 0.10342 0.01365 0.0
C273 C 0.1187 0.13011 0.03306 0.0
C274 C 0.08664 0.13239 0.0439 0.0
H275 H 0.05919 0.06578 0.01076 0.0
O276 O 0.9963 0.11894 0.93358 0.0
O277 O 0.01149 0.13382 0.99923 0.0
O278 O 0.96954 0.08246 0.99789 0.0
O279 O 0.00904 0.07962 0.04642 0.0
C280 C 0.13879 0.1546 0.04183 0.0
C281 C 0.12646 0.18101 0.06069 0.0
H282 H 0.09385 0.22884 0.09429 0.0
H283 H 0.03593 0.22975 0.10714 0.0
H284 H 0.11545 0.05942 0.99084 0.0
H285 H 0.15381 0.10054 1.005 0.0
H286 H 0.1637 0.15345 0.03381 0.0
H287 H 0.14205 0.19983 0.06676 0.0
Mn288 Mn 0.88097 0.70994 0.72447 0.0
Mn289 Mn 0.84233 0.64437 0.7319 0.0
C290 C 0.89963 0.66932 0.68517 0.0
C291 C 0.88579 0.75619 0.69028 0.0
C292 C 0.8871 0.66766 0.80164 0.0
O293 O 0.83921 0.72221 0.75037 0.0
O294 O 0.81322 0.67829 0.74579 0.0
C295 C 0.79759 0.65311 0.65874 0.0
N296 N 0.82094 0.63682 0.67811 0.0
C297 C 0.82119 0.6012 0.61919 0.0
C298 C 0.79719 0.61762 0.59863 0.0
C299 C 0.78539 0.64374 0.61847 0.0
C300 C 0.83278 0.61191 0.65898 0.0
H301 H 0.78833 0.67312 0.67385 0.0
C302 C 0.81429 0.70656 0.75315 0.0
O303 O 0.89715 0.7519 0.72915 0.0
O304 O 0.87125 0.73392 0.67224 0.0
N305 N 0.86696 0.60954 0.71827 0.0
C306 C 0.88833 0.59496 0.74394 0.0
C307 C 0.90133 0.56761 0.7298 0.0
C308 C 0.89193 0.5553 0.68973 0.0
C309 C 0.86908 0.57014 0.66462 0.0
C310 C 0.85668 0.59715 0.68064 0.0
H311 H 0.89542 0.60401 0.77502 0.0
O312 O 0.91773 0.69179 0.69499 0.0
O313 O 0.87069 0.67122 0.69949 0.0
O314 O 0.89557 0.69129 0.78142 0.0
O315 O 0.8654 0.64996 0.78802 0.0
C316 C 0.85776 0.55892 0.62468 0.0
C317 C 0.83395 0.57452 0.60188 0.0
H318 H 0.78759 0.61035 0.56768 0.0
H319 H 0.76687 0.65656 0.60282 0.0
H320 H 0.91856 0.55605 0.74972 0.0
H321 H 0.9021 0.53428 0.67885 0.0
H322 H 0.86709 0.53823 0.6113 0.0
H323 H 0.82541 0.56566 0.57121 0.0
Mn324 Mn 0.03636 0.11485 0.47286 0.0
Mn325 Mn 0.97998 0.11583 0.54985 0.0
C326 C 0.98424 0.12247 0.45393 0.0
C327 C 0.07091 0.14101 0.42884 0.0
C328 C 0.00794 0.0584 0.51278 0.0
O329 O 0.06225 0.12088 0.52794 0.0
O330 O 0.02266 0.12209 0.57738 0.0
C331 C 0.98488 0.17888 0.58 0.0
N332 N 0.96785 0.15656 0.5609 0.0
C333 C 0.92356 0.18969 0.55011 0.0
C334 C 0.94094 0.21315 0.56887 0.0
C335 C 0.97169 0.20767 0.58409 0.0
C336 C 0.93794 0.16143 0.5471 0.0
H337 H 0.00822 0.17466 0.59236 0.0
C338 C 0.05205 0.1238 0.56679 0.0
O339 O 0.07488 0.11236 0.43485 0.0
O340 O 0.04908 0.15431 0.4511 0.0
N341 N 0.93822 0.11115 0.52654 0.0
C342 C 0.9246 0.08621 0.50895 0.0
C343 C 0.89366 0.08788 0.49258 0.0
C344 C 0.87706 0.11516 0.49432 0.0
C345 C 0.89146 0.14048 0.51278 0.0
C346 C 0.92222 0.13739 0.52902 0.0
H347 H 0.93731 0.06526 0.50694 0.0
O348 O 0.00432 0.11233 0.42572 0.0
O349 O 0.99541 0.12768 0.49267 0.0
O350 O 0.02798 0.07094 0.4876 0.0
O351 O 0.98991 0.07311 0.53856 0.0
C352 C 0.87662 0.16874 0.51521 0.0
C353 C 0.89265 0.19333 0.53389 0.0
H354 H 0.93088 0.23543 0.57186 0.0
H355 H 0.98519 0.22557 0.59898 0.0
H356 H 0.88274 0.06825 0.47829 0.0
H357 H 0.85332 0.11643 0.48124 0.0
H358 H 0.85291 0.17184 0.5027 0.0
H359 H 0.88101 0.21497 0.53551 0.0
Mn360 Mn 0.62372 0.29489 0.22197 0.0
Mn361 Mn 0.6656 0.35858 0.23048 0.0
C362 C 0.60787 0.3366 0.18266 0.0
C363 C 0.61543 0.24909 0.18756 0.0
C364 C 0.61895 0.33746 0.29931 0.0
O365 O 0.66485 0.28041 0.24775 0.0
O366 O 0.6928 0.32338 0.24541 0.0
C367 C 0.71112 0.34767 0.15873 0.0
N368 N 0.68811 0.36492 0.17718 0.0
C369 C 0.6898 0.39976 0.11736 0.0
C370 C 0.71346 0.38233 0.09774 0.0
C371 C 0.72413 0.35615 0.11851 0.0
C372 C 0.67742 0.38997 0.15719 0.0
H373 H 0.71949 0.32757 0.17452 0.0
C374 C 0.69043 0.29504 0.2518 0.0
O375 O 0.60482 0.25402 0.22666 0.0
O376 O 0.63174 0.2703 0.16966 0.0
N377 N 0.64275 0.39429 0.21577 0.0
C378 C 0.62157 0.40985 0.24057 0.0
C379 C 0.60975 0.43743 0.22549 0.0
C380 C 0.62002 0.44887 0.1853 0.0
C381 C 0.64256 0.43296 0.16101 0.0
C382 C 0.65384 0.4058 0.178 0.0
H383 H 0.61375 0.40141 0.27168 0.0
O384 O 0.58827 0.31522 0.19222 0.0
O385 O 0.63649 0.333 0.19734 0.0
O386 O 0.60987 0.31409 0.27895 0.0
O387 O 0.64144 0.35438 0.28607 0.0
C388 C 0.65465 0.44322 0.12096 0.0
C389 C 0.67815 0.42657 0.09906 0.0
H390 H 0.72365 0.38888 0.06681 0.0
H391 H 0.74239 0.34256 0.1036 0.0
H392 H 0.59273 0.4498 0.24477 0.0
H393 H 0.61073 0.47006 0.17367 0.0
H394 H 0.64619 0.464 0.10684 0.0
H395 H 0.68736 0.43477 0.06839 0.0
Mn396 Mn 0.47154 0.88515 0.98025 0.0
Mn397 Mn 0.53121 0.88561 0.05175 0.0
C398 C 0.52282 0.87824 0.95682 0.0
C399 C 0.43632 0.85764 0.93935 0.0
C400 C 0.5009 0.9423 0.01637 0.0
O401 O 0.44817 0.87973 0.03757 0.0
O402 O 0.49001 0.87993 0.08291 0.0
C403 C 0.52583 0.82206 0.0793 0.0
N404 N 0.54332 0.84481 0.06204 0.0
C405 C 0.58706 0.81146 0.04862 0.0
C406 C 0.56973 0.78786 0.0671 0.0
C407 C 0.53895 0.79318 0.08239 0.0
C408 C 0.5729 0.83987 0.04691 0.0
H409 H 0.5019 0.82576 0.0901 0.0
C410 C 0.46017 0.87778 0.07557 0.0
O411 O 0.43162 0.88625 0.94501 0.0
O412 O 0.45891 0.84516 0.96101 0.0
N413 N 0.572 0.88995 0.02538 0.0
C414 C 0.58506 0.91473 1.0066 0.0
C415 C 0.61546 0.91289 0.98844 0.0
C416 C 0.63211 0.88563 0.9897 0.0
C417 C 0.61831 0.86049 0.00949 0.0
C418 C 0.58811 0.86377 0.02762 0.0
H419 H 0.57227 0.93568 1.00507 0.0
O420 O 0.50132 0.88765 0.93021 0.0
O421 O 0.51345 0.87329 0.99646 0.0
O422 O 0.47982 0.92919 0.99351 0.0
O423 O 0.52071 0.92824 0.04038 0.0
C424 C 0.63313 0.8322 0.01129 0.0
C425 C 0.61751 0.80769 0.03081 0.0
H426 H 0.57962 0.76547 0.06904 0.0
H427 H 0.52522 0.77498 0.09605 0.0
H428 H 0.62594 0.93238 0.97316 0.0
H429 H 0.65541 0.88421 0.97518 0.0
H430 H 0.65641 0.82896 0.99736 0.0
H431 H 0.62899 0.78596 0.03152 0.0
Mn432 Mn 0.87792 0.29319 0.79227 0.0
Mn433 Mn 0.83731 0.35767 0.78402 0.0
C434 C 0.89514 0.33484 0.83075 0.0
C435 C 0.88465 0.24743 0.82784 0.0
C436 C 0.88166 0.33433 0.71343 0.0
O437 O 0.83618 0.27969 0.76706 0.0
O438 O 0.80876 0.32292 0.77243 0.0
C439 C 0.79341 0.3502 0.85852 0.0
N440 N 0.81665 0.36604 0.83818 0.0
C441 C 0.81765 0.40255 0.89596 0.0
C442 C 0.79393 0.38647 0.91766 0.0
C443 C 0.78177 0.36016 0.89885 0.0
C444 C 0.82866 0.39128 0.85616 0.0
H445 H 0.78376 0.33018 0.84406 0.0
C446 C 0.81064 0.29464 0.76522 0.0
O447 O 0.89537 0.25148 0.78858 0.0
O448 O 0.86932 0.2695 0.84522 0.0
N449 N 0.86183 0.3929 0.79569 0.0
C450 C 0.88311 0.40693 0.76925 0.0
C451 C 0.89635 0.43441 0.78227 0.0
C452 C 0.88739 0.44736 0.82212 0.0
C453 C 0.86481 0.43297 0.84821 0.0
C454 C 0.85213 0.4058 0.83328 0.0
H455 H 0.8899 0.39736 0.73835 0.0
O456 O 0.9141 0.31285 0.82151 0.0
O457 O 0.86642 0.33179 0.81635 0.0
O458 O 0.89174 0.31163 0.73456 0.0
O459 O 0.85942 0.35139 0.72727 0.0
C460 C 0.85411 0.44471 0.88819 0.0
C461 C 0.83064 0.42946 0.91212 0.0
H462 H 0.78477 0.39418 0.94866 0.0
H463 H 0.76336 0.34767 0.91528 0.0
H464 H 0.91344 0.44558 0.76166 0.0
H465 H 0.89777 0.46848 0.83216 0.0
H466 H 0.86366 0.46555 0.90072 0.0
H467 H 0.82251 0.43879 0.94271 0.0
Mn468 Mn 0.468 0.11545 0.53663 0.0
Mn469 Mn 0.5271 0.11476 0.464 0.0
C470 C 0.51952 0.12231 0.559 0.0
C471 C 0.43293 0.14249 0.57865 0.0
C472 C 0.49758 0.05827 0.50061 0.0
O473 O 0.44408 0.12116 0.47978 0.0
O474 O 0.48552 0.11996 0.4337 0.0
C475 C 0.52078 0.17811 0.43569 0.0
N476 N 0.53868 0.1556 0.45288 0.0
C477 C 0.58229 0.18936 0.46463 0.0
C478 C 0.56453 0.21268 0.44619 0.0
C479 C 0.53361 0.20704 0.43179 0.0
C480 C 0.5684 0.16087 0.46718 0.0
H481 H 0.49675 0.17418 0.42559 0.0
C482 C 0.45577 0.12259 0.44153 0.0
O483 O 0.4284 0.11391 0.57254 0.0
O484 O 0.45534 0.15528 0.55693 0.0
N485 N 0.56822 0.11095 0.48952 0.0
C486 C 0.58171 0.08642 0.50846 0.0
C487 C 0.61229 0.08863 0.52591 0.0
C488 C 0.62867 0.116 0.52379 0.0
C489 C 0.61441 0.14086 0.50387 0.0
C490 C 0.58405 0.13722 0.4865 0.0
H491 H 0.56913 0.0654 0.51064 0.0
O492 O 0.49832 0.11276 0.586 0.0
O493 O 0.50977 0.12733 0.51956 0.0
O494 O 0.47623 0.07149 0.52286 0.0
O495 O 0.51727 0.07207 0.47611 0.0
C496 C 0.62896 0.16924 0.50122 0.0
C497 C 0.6129 0.19347 0.48163 0.0
H498 H 0.5742 0.23512 0.44362 0.0
H499 H 0.51955 0.22504 0.41818 0.0
H500 H 0.6231 0.06936 0.54131 0.0
H501 H 0.6521 0.11771 0.53776 0.0
H502 H 0.65237 0.17275 0.51453 0.0
H503 H 0.62418 0.21527 0.48027 0.0
Mn504 Mn 0.62063 0.70276 0.29167 0.0
Mn505 Mn 0.66193 0.63905 0.27782 0.0
C506 C 0.60221 0.65898 0.32308 0.0
C507 C 0.61273 0.74621 0.33248 0.0
C508 C 0.61726 0.6642 0.2095 0.0
O509 O 0.6628 0.71816 0.27091 0.0
O510 O 0.6894 0.6746 0.26647 0.0
C511 C 0.70501 0.64795 0.35282 0.0
N512 N 0.68298 0.63103 0.33174 0.0
C513 C 0.68253 0.59474 0.38976 0.0
C514 C 0.70518 0.6118 0.41205 0.0
C515 C 0.71642 0.63855 0.39352 0.0
C516 C 0.67153 0.60558 0.34974 0.0
H517 H 0.71374 0.66852 0.33882 0.0
C518 C 0.68785 0.70323 0.26421 0.0
O519 O 0.6032 0.74458 0.29225 0.0
O520 O 0.62721 0.72302 0.34795 0.0
N521 N 0.63953 0.60245 0.28828 0.0
C522 C 0.62205 0.58626 0.25929 0.0
C523 C 0.61143 0.55743 0.27069 0.0
C524 C 0.61911 0.54543 0.31161 0.0
C525 C 0.6385 0.56183 0.33996 0.0
C526 C 0.64906 0.5901 0.32628 0.0
H527 H 0.6164 0.59513 0.22753 0.0
O528 O 0.58355 0.68145 0.31551 0.0
O529 O 0.63156 0.66293 0.31158 0.0
O530 O 0.60892 0.68739 0.23114 0.0
O531 O 0.63851 0.64567 0.22228 0.0
C532 C 0.64896 0.55063 0.38034 0.0
C533 C 0.67074 0.56721 0.40542 0.0
H534 H 0.71424 0.60448 0.44328 0.0
H535 H 0.73389 0.65187 0.41051 0.0
H536 H 0.59721 0.54459 0.2481 0.0
H537 H 0.61069 0.5233 0.32044 0.0
H538 H 0.64087 0.52902 0.39204 0.0
H539 H 0.67883 0.55823 0.43623 0.0
Mn540 Mn 0.03321 0.88212 0.03922 0.0
Mn541 Mn 0.9765 0.88076 0.9626 0.0
C542 C 0.98111 0.87481 0.05853 0.0
C543 C 0.06847 0.8571 0.08368 0.0
C544 C 0.00501 0.93833 0.99786 0.0
O545 O 0.05878 0.87504 0.98401 0.0
O546 O 0.01904 0.87425 0.9348 0.0
C547 C 0.9812 0.81748 0.9334 0.0
N548 N 0.96424 0.84 0.95219 0.0
C549 C 0.9197 0.80722 0.9631 0.0
C550 C 0.93696 0.78358 0.94453 0.0
C551 C 0.96782 0.78878 0.92945 0.0
C552 C 0.93426 0.83539 0.96594 0.0
H553 H 0.00464 0.82147 0.92122 0.0
C554 C 0.04841 0.87215 0.94523 0.0
O555 O 0.07204 0.88561 0.07617 0.0
O556 O 0.04622 0.84316 0.06308 0.0
N557 N 0.93484 0.88572 0.98622 0.0
C558 C 0.92141 0.91078 1.0038 0.0
C559 C 0.8905 0.90934 0.02034 0.0
C560 C 0.87372 0.88218 0.01872 0.0
C561 C 0.88793 0.85674 1.00028 0.0
C562 C 0.91869 0.85959 0.98391 0.0
H563 H 0.93427 0.93165 1.00568 0.0
O564 O 0.00118 0.88543 0.08639 0.0
O565 O 0.99221 0.86922 0.01985 0.0
O566 O 0.02507 0.92578 0.02293 0.0
O567 O 0.98649 0.92359 0.9729 0.0
C568 C 0.8729 0.82857 0.99797 0.0
C569 C 0.88876 0.80384 0.97936 0.0
H570 H 0.92677 0.76137 0.94166 0.0
H571 H 0.98125 0.77072 0.9148 0.0
H572 H 0.87973 0.92906 0.03462 0.0
H573 H 0.84999 0.88109 0.0319 0.0
H574 H 0.84917 0.82566 0.01056 0.0
H575 H 0.87699 0.78228 0.97786 0.0
Mn576 Mn 0.63132 0.77806 0.8019 0.0
Mn577 Mn 0.6274 0.7241 0.72528 0.0
C578 C 0.62567 0.72862 0.82181 0.0
C579 C 0.60591 0.81165 0.84739 0.0
C580 C 0.68852 0.75332 0.75419 0.0
O581 O 0.62094 0.80164 0.74713 0.0
O582 O 0.61684 0.76371 0.69874 0.0
C583 C 0.55943 0.72482 0.70168 0.0
N584 N 0.58476 0.7103 0.71923 0.0
C585 C 0.55375 0.66584 0.73175 0.0
C586 C 0.52727 0.6805 0.71449 0.0
C587 C 0.5302 0.70996 0.69891 0.0
C588 C 0.58241 0.68154 0.73291 0.0
H589 H 0.56155 0.74747 0.68956 0.0
C590 C 0.61471 0.79157 0.70917 0.0
O591 O 0.63557 0.81538 0.83774 0.0
O592 O 0.59094 0.78993 0.82851 0.0
N593 N 0.63614 0.68503 0.74838 0.0
C594 C 0.66405 0.67378 0.76341 0.0
C595 C 0.66513 0.64438 0.77978 0.0
C596 C 0.63757 0.62684 0.78047 0.0
C597 C 0.60918 0.6388 0.76456 0.0
C598 C 0.60955 0.66821 0.74848 0.0
H599 H 0.68529 0.68719 0.76328 0.0
O600 O 0.63727 0.74802 0.84892 0.0
O601 O 0.61792 0.73889 0.78366 0.0
O602 O 0.6768 0.77095 0.78256 0.0
O603 O 0.67217 0.73594 0.73004 0.0
C604 C 0.58049 0.62277 0.76432 0.0
C605 C 0.55281 0.63624 0.74779 0.0
H606 H 0.50462 0.66928 0.71289 0.0
H607 H 0.50995 0.7211 0.6847 0.0
H608 H 0.68713 0.63532 0.79203 0.0
H609 H 0.63846 0.60423 0.79335 0.0
H610 H 0.57946 0.60002 0.77668 0.0
H611 H 0.53092 0.62363 0.74755 0.0
Mn612 Mn 0.47668 0.36989 0.03205 0.0
Mn613 Mn 0.53298 0.37723 0.95537 0.0
C614 C 0.52834 0.37484 0.05309 0.0
C615 C 0.44556 0.33965 0.07548 0.0
C616 C 0.49316 0.42909 0.98785 0.0
O617 O 0.45418 0.35657 0.97785 0.0
O618 O 0.49239 0.36309 0.92803 0.0
C619 C 0.5399 0.31373 0.9279 0.0
N620 N 0.55284 0.33939 0.94422 0.0
C621 C 0.60475 0.31722 0.94476 0.0
C622 C 0.59197 0.29063 0.92786 0.0
C623 C 0.55939 0.28885 0.91952 0.0
C624 C 0.58422 0.34138 0.9521 0.0
H625 H 0.51491 0.31222 0.92114 0.0
C626 C 0.46432 0.35508 0.93902 0.0
O627 O 0.43677 0.36689 0.06649 0.0
O628 O 0.47149 0.32983 0.0582 0.0
N629 N 0.57338 0.38972 0.97686 0.0
C630 C 0.58173 0.41638 0.9954 0.0
C631 C 0.61321 0.42104 0.00819 0.0
C632 C 0.63584 0.39844 1.00131 0.0
C633 C 0.62675 0.37131 0.98187 0.0
C634 C 0.59501 0.36788 0.96994 0.0
H635 H 0.56442 0.43382 1.00082 0.0
O636 O 0.5052 0.3812 0.07924 0.0
O637 O 0.52057 0.36463 0.0145 0.0
O638 O 0.47533 0.4139 0.01302 0.0
O639 O 0.51505 0.41739 0.96486 0.0
C640 C 0.64789 0.34741 0.97438 0.0
C641 C 0.63693 0.32043 0.95566 0.0
H642 H 0.6069 0.27136 0.92162 0.0
H643 H 0.54933 0.26836 0.90663 0.0
H644 H 0.62004 0.442 0.02331 0.0
H645 H 0.66011 0.4021 0.01112 0.0
H646 H 0.67258 0.34944 0.98324 0.0
H647 H 0.65335 0.30211 0.95043 0.0
Mn648 Mn 0.87253 0.2216 0.30185 0.0
Mn649 Mn 0.87629 0.27499 0.22448 0.0
C650 C 0.87504 0.27143 0.32103 0.0
C651 C 0.89831 0.18923 0.34911 0.0
C652 C 0.81518 0.24571 0.25282 0.0
O653 O 0.88515 0.19761 0.24805 0.0
O654 O 0.88614 0.235 0.19874 0.0
C655 C 0.94495 0.27158 0.20562 0.0
N656 N 0.91929 0.28772 0.21882 0.0
C657 C 0.95093 0.33215 0.22805 0.0
C658 C 0.97757 0.31607 0.21412 0.0
C659 C 0.97458 0.28568 0.2029 0.0
C660 C 0.92193 0.31704 0.2296 0.0
H661 H 0.94286 0.24819 0.19693 0.0
C662 C 0.88957 0.20739 0.2095 0.0
O663 O 0.86903 0.18438 0.3383 0.0
O664 O 0.91269 0.2114 0.33054 0.0
N665 N 0.86813 0.31475 0.24534 0.0
C666 C 0.84034 0.32686 0.25939 0.0
C667 C 0.83959 0.35688 0.27327 0.0
C668 C 0.86732 0.37419 0.27226 0.0
C669 C 0.89556 0.36135 0.2572 0.0
C670 C 0.89486 0.33133 0.24367 0.0
H671 H 0.81898 0.31364 0.26047 0.0
O672 O 0.86403 0.25168 0.34803 0.0
O673 O 0.88483 0.26123 0.28366 0.0
O674 O 0.82709 0.22733 0.28016 0.0
O675 O 0.83138 0.26387 0.22965 0.0
C676 C 0.92445 0.37704 0.25565 0.0
C677 C 0.9521 0.36247 0.24098 0.0
H678 H 1.00048 0.32672 0.21214 0.0
H679 H 0.99507 0.27324 0.19202 0.0
H680 H 0.81771 0.36662 0.28491 0.0
H681 H 0.86668 0.39729 0.28326 0.0
H682 H 0.92571 0.40027 0.26592 0.0
H683 H 0.97419 0.37472 0.24016 0.0
Mn684 Mn 0.0333 0.62989 0.53483 0.0
Mn685 Mn 0.97491 0.62598 0.46028 0.0
C686 C 0.98174 0.62962 0.55762 0.0
C687 C 0.0681 0.65825 0.57592 0.0
C688 C 0.01045 0.57148 0.49319 0.0
O689 O 0.05595 0.64041 0.47912 0.0
O690 O 0.01591 0.63647 0.43131 0.0
C691 C 0.97328 0.68953 0.43171 0.0
N692 N 0.95829 0.66512 0.44872 0.0
C693 C 0.90846 0.69122 0.44955 0.0
C694 C 0.92334 0.71653 0.43177 0.0
C695 C 0.95592 0.71572 0.42305 0.0
C696 C 0.92694 0.66566 0.45723 0.0
H697 H 0.99826 0.68904 0.42459 0.0
C698 C 0.04482 0.64217 0.44078 0.0
O699 O 0.07375 0.63005 0.56849 0.0
O700 O 0.04309 0.66998 0.55866 0.0
N701 N 0.9339 0.617 0.48318 0.0
C702 C 0.92342 0.59118 0.50207 0.0
C703 C 0.89171 0.58901 0.51522 0.0
C704 C 0.87103 0.61324 0.50838 0.0
C705 C 0.88225 0.63942 0.48835 0.0
C706 C 0.9141 0.64031 0.47597 0.0
H707 H 0.93919 0.57248 0.50739 0.0
O708 O 0.00464 0.62217 0.58348 0.0
O709 O 0.98968 0.63841 0.51842 0.0
O710 O 0.02993 0.58544 0.51764 0.0
O711 O 0.98948 0.58471 0.47038 0.0
C712 C 0.86314 0.66478 0.48054 0.0
C713 C 0.8762 0.69061 0.46098 0.0
H714 H 0.91008 0.73678 0.42507 0.0
H715 H 0.96759 0.73522 0.40953 0.0
H716 H 0.88324 0.56867 0.53046 0.0
H717 H 0.84659 0.61149 0.51858 0.0
H718 H 0.83841 0.66473 0.48975 0.0
H719 H 0.86135 0.71006 0.45552 0.0
Mn720 Mn 0.62876 0.22284 0.71219 0.0
Mn721 Mn 0.62381 0.27768 0.78724 0.0
C722 C 0.6249 0.27223 0.69087 0.0
C723 C 0.60344 0.18941 0.66634 0.0
C724 C 0.68523 0.24723 0.76199 0.0
O725 O 0.61636 0.19996 0.76693 0.0
O726 O 0.61204 0.23854 0.81409 0.0
C727 C 0.55492 0.2774 0.80533 0.0
N728 N 0.58117 0.29195 0.79063 0.0
C729 C 0.55111 0.33673 0.77616 0.0
C730 C 0.5238 0.3222 0.79103 0.0
C731 C 0.52574 0.29247 0.80589 0.0
C732 C 0.57963 0.32077 0.77698 0.0
H733 H 0.55624 0.25452 0.81672 0.0
C734 C 0.60953 0.2106 0.80437 0.0
O735 O 0.63279 0.18502 0.67725 0.0
O736 O 0.58874 0.21171 0.68414 0.0
N737 N 0.63368 0.31648 0.76413 0.0
C738 C 0.66213 0.32729 0.7504 0.0
C739 C 0.66409 0.35665 0.73404 0.0
C740 C 0.63683 0.3746 0.73203 0.0
C741 C 0.60787 0.36308 0.74661 0.0
C742 C 0.60738 0.33371 0.76282 0.0
H743 H 0.68315 0.31357 0.75157 0.0
O744 O 0.63666 0.25226 0.66475 0.0
O745 O 0.61587 0.26251 0.72877 0.0
O746 O 0.67392 0.22928 0.73368 0.0
O747 O 0.66852 0.2652 0.78485 0.0
C748 C 0.57941 0.37949 0.74529 0.0
C749 C 0.55106 0.36636 0.76015 0.0
H750 H 0.5012 0.3336 0.79094 0.0
H751 H 0.50474 0.28127 0.81771 0.0
H752 H 0.68653 0.36537 0.72281 0.0
H753 H 0.6384 0.39717 0.71912 0.0
H754 H 0.57904 0.40222 0.73281 0.0
H755 H 0.52932 0.37918 0.75892 0.0
Mn756 Mn 0.02699 0.36771 0.98016 0.0
Mn757 Mn 0.97085 0.37828 0.05632 0.0
C758 C 0.97546 0.373 0.95893 0.0
C759 C 0.05709 0.33478 0.93843 0.0
C760 C 0.01088 0.42867 0.01977 0.0
O761 O 0.04947 0.35588 0.03521 0.0
O762 O 0.01136 0.36499 0.08449 0.0
C763 C 0.96412 0.31536 0.08639 0.0
N764 N 0.95098 0.34084 0.0698 0.0
C765 C 0.89912 0.31863 0.07054 0.0
C766 C 0.91208 0.29228 0.08799 0.0
C767 C 0.94476 0.29057 0.09559 0.0
C768 C 0.91957 0.34266 0.0621 0.0
H769 H 0.9892 0.3139 0.09253 0.0
C770 C 0.03932 0.35633 0.07413 0.0
O771 O 0.06648 0.36223 0.94488 0.0
O772 O 0.03124 0.32662 0.95757 0.0
N773 N 0.93036 0.39023 0.03443 0.0
C774 C 0.92193 0.4164 0.01462 0.0
C775 C 0.89036 0.42083 1.00203 0.0
C776 C 0.86774 0.39848 0.01038 0.0
C777 C 0.87691 0.37186 0.03115 0.0
C778 C 0.90871 0.36869 0.04294 0.0
H779 H 0.93922 0.43363 0.00803 0.0
O780 O 0.99865 0.3778 0.93225 0.0
O781 O 0.98304 0.36383 0.9981 0.0
O782 O 0.02887 0.41243 0.99604 0.0
O783 O 0.98901 0.41788 0.04377 0.0
C784 C 0.85581 0.34818 0.04003 0.0
C785 C 0.86689 0.32162 0.05984 0.0
H786 H 0.89726 0.27307 0.09502 0.0
H787 H 0.955 0.27016 0.10845 0.0
H788 H 0.88347 0.44142 0.98594 0.0
H789 H 0.84342 0.40194 1.00064 0.0
H790 H 0.83108 0.35002 0.03129 0.0
H791 H 0.85053 0.3034 0.06593 0.0
Mn792 Mn 0.87061 0.77423 0.21008 0.0
Mn793 Mn 0.87544 0.72101 0.28759 0.0
C794 C 0.87455 0.72442 0.19099 0.0
C795 C 0.89563 0.80708 0.16284 0.0
C796 C 0.81383 0.74957 0.25972 0.0
O797 O 0.88277 0.79842 0.26372 0.0
O798 O 0.88457 0.76117 0.31332 0.0
C799 C 0.94379 0.72501 0.30815 0.0
N800 N 0.91862 0.70883 0.29344 0.0
C801 C 0.95107 0.66495 0.28364 0.0
C802 C 0.97725 0.68115 0.29875 0.0
C803 C 0.97358 0.71126 0.31115 0.0
C804 C 0.92184 0.67969 0.28196 0.0
H805 H 0.94116 0.74817 0.31786 0.0
C806 C 0.88743 0.78879 0.3023 0.0
O807 O 0.86625 0.81136 0.17365 0.0
O808 O 0.91049 0.78514 0.18128 0.0
N809 N 0.86801 0.68123 0.26633 0.0
C810 C 0.84048 0.66882 0.25195 0.0
C811 C 0.84034 0.63894 0.23739 0.0
C812 C 0.86841 0.62209 0.23802 0.0
C813 C 0.89637 0.63525 0.25336 0.0
C814 C 0.89508 0.6651 0.26752 0.0
H815 H 0.81887 0.68172 0.2511 0.0
O816 O 0.86281 0.74385 0.16405 0.0
O817 O 0.88387 0.73491 0.22841 0.0
O818 O 0.82537 0.76789 0.23204 0.0
O819 O 0.83035 0.73153 0.28263 0.0
C820 C 0.92555 0.62 0.2547 0.0
C821 C 0.95286 0.63481 0.26997 0.0
H822 H 1.00029 0.67075 0.30098 0.0
H823 H 0.99369 0.72372 0.3232 0.0
H824 H 0.81867 0.62897 0.22551 0.0
H825 H 0.86823 0.5991 0.22653 0.0
H826 H 0.92728 0.5969 0.24393 0.0
H827 H 0.97516 0.62286 0.27082 0.0
Mn828 Mn 0.47084 0.62956 0.47856 0.0
Mn829 Mn 0.53051 0.62439 0.55052 0.0
C830 C 0.52117 0.62205 0.45309 0.0
C831 C 0.43818 0.65839 0.43525 0.0
C832 C 0.48948 0.57173 0.52529 0.0
O833 O 0.45113 0.6457 0.53309 0.0
O834 O 0.49095 0.63912 0.58016 0.0
C835 C 0.5375 0.6888 0.57296 0.0
N836 N 0.55015 0.66281 0.5572 0.0
C837 C 0.60167 0.68538 0.55165 0.0
C838 C 0.58921 0.71228 0.5681 0.0
C839 C 0.55697 0.71401 0.57869 0.0
C840 C 0.58122 0.66086 0.54725 0.0
H841 H 0.51281 0.69029 0.58155 0.0
C842 C 0.46274 0.64768 0.57097 0.0
O843 O 0.42931 0.63184 0.44777 0.0
O844 O 0.46507 0.66838 0.44909 0.0
N845 N 0.57033 0.61144 0.52748 0.0
C846 C 0.57853 0.5841 0.51102 0.0
C847 C 0.60973 0.57913 0.49712 0.0
C848 C 0.63225 0.60214 0.50085 0.0
C849 C 0.62335 0.62999 0.51823 0.0
C850 C 0.59189 0.63368 0.53145 0.0
H851 H 0.56132 0.56631 0.50814 0.0
O852 O 0.49641 0.61562 0.43008 0.0
O853 O 0.51584 0.63448 0.49123 0.0
O854 O 0.46995 0.58641 0.50181 0.0
O855 O 0.51272 0.58389 0.54499 0.0
C856 C 0.64434 0.65437 0.52234 0.0
C857 C 0.63355 0.68199 0.53925 0.0
H858 H 0.60415 0.73177 0.57266 0.0
H859 H 0.54719 0.73468 0.59144 0.0
H860 H 0.61642 0.5576 0.48361 0.0
H861 H 0.65631 0.59824 0.49019 0.0
H862 H 0.66881 0.65216 0.51237 0.0
H863 H 0.64991 0.70058 0.54219 0.0
Mn864 Mn 0.37925 0.20283 0.2163 0.0
Mn865 Mn 0.33464 0.14042 0.22162 0.0
C866 C 0.39622 0.15984 0.1811 0.0
C867 C 0.39169 0.24817 0.18346 0.0
C868 C 0.37789 0.16085 0.29475 0.0
O869 O 0.3371 0.21906 0.23651 0.0
O870 O 0.3083 0.17664 0.23379 0.0
C871 C 0.29358 0.15267 0.14546 0.0
N872 N 0.31495 0.13477 0.16611 0.0
C873 C 0.31476 0.09959 0.1066 0.0
C874 C 0.29296 0.11779 0.0846 0.0
C875 C 0.28238 0.14449 0.1041 0.0
C876 C 0.32571 0.1093 0.14727 0.0
H877 H 0.28508 0.17299 0.16045 0.0
C878 C 0.3111 0.205 0.23934 0.0
O879 O 0.3992 0.24283 0.22372 0.0
O880 O 0.37623 0.22748 0.16278 0.0
N881 N 0.35616 0.10349 0.2098 0.0
C882 C 0.37259 0.08603 0.23842 0.0
C883 C 0.38265 0.05728 0.22568 0.0
C884 C 0.37534 0.04657 0.18388 0.0
C885 C 0.35689 0.0642 0.15592 0.0
C886 C 0.34709 0.09247 0.17072 0.0
H887 H 0.37789 0.09385 0.27087 0.0
O888 O 0.4158 0.18095 0.19187 0.0
O889 O 0.36676 0.16464 0.19134 0.0
O890 O 0.38835 0.18395 0.27511 0.0
O891 O 0.35605 0.14402 0.27934 0.0
C892 C 0.3465 0.05415 0.11488 0.0
C893 C 0.32556 0.07189 0.09016 0.0
H894 H 0.28396 0.11136 0.05293 0.0
H895 H 0.26544 0.15862 0.08745 0.0
H896 H 0.39609 0.04346 0.24796 0.0
H897 H 0.38322 0.02443 0.17411 0.0
H898 H 0.35391 0.0325 0.10243 0.0
H899 H 0.31736 0.0637 0.05893 0.0
Mn900 Mn 0.52539 0.6171 0.97008 0.0
Mn901 Mn 0.46571 0.614 0.04179 0.0
C902 C 0.4737 0.62108 0.94674 0.0
C903 C 0.56041 0.64454 0.92863 0.0
C904 C 0.49896 0.55883 0.00707 0.0
O905 O 0.54822 0.62499 0.02735 0.0
O906 O 0.50661 0.62163 0.07274 0.0
C907 C 0.46809 0.6779 0.06858 0.0
N908 N 0.45156 0.65421 0.05221 0.0
C909 C 0.4057 0.68519 0.04058 0.0
C910 C 0.422 0.70969 0.05835 0.0
C911 C 0.45337 0.70604 0.07227 0.0
C912 C 0.42143 0.65755 0.03834 0.0
H913 H 0.49247 0.67553 0.0782 0.0
C914 C 0.53615 0.62616 0.06542 0.0
O915 O 0.56576 0.61628 0.93616 0.0
O916 O 0.53661 0.65698 0.94804 0.0
N917 N 0.42508 0.60776 0.0158 0.0
C918 C 0.41353 0.58262 0.99616 0.0
C919 C 0.38297 0.58302 0.97837 0.0
C920 C 0.3646 0.60922 0.98096 0.0
C921 C 0.37691 0.63477 1.00151 0.0
C922 C 0.40739 0.63295 0.01912 0.0
H923 H 0.42764 0.5625 0.99357 0.0
O924 O 0.49567 0.61224 0.92029 0.0
O925 O 0.48281 0.6271 0.9862 0.0
O926 O 0.51963 0.57304 0.98508 0.0
O927 O 0.47809 0.57177 0.03071 0.0
C928 C 0.36042 0.66218 1.00426 0.0
C929 C 0.3748 0.68737 0.02377 0.0
H930 H 0.41087 0.73153 0.06071 0.0
H931 H 0.46631 0.72496 0.08533 0.0
H932 H 0.37369 0.56326 0.96236 0.0
H933 H 0.34119 0.60956 0.96671 0.0
H934 H 0.33684 0.66427 0.99085 0.0
H935 H 0.36208 0.70846 0.02502 0.0
Mn936 Mn 0.12613 0.79741 0.71592 0.0
Mn937 Mn 0.15999 0.86551 0.71591 0.0
C938 C 0.10177 0.83645 0.67827 0.0
C939 C 0.12078 0.75052 0.68286 0.0
C940 C 0.12355 0.84028 0.79361 0.0
O941 O 0.17078 0.7879 0.73505 0.0
O942 O 0.1921 0.83373 0.72742 0.0
C943 C 0.19894 0.85653 0.63671 0.0
N944 N 0.17745 0.87304 0.65949 0.0
C945 C 0.17431 0.90959 0.60206 0.0
C946 C 0.19725 0.89353 0.5787 0.0
C947 C 0.20931 0.86667 0.59586 0.0
C948 C 0.16463 0.89817 0.64237 0.0
H949 H 0.20784 0.83561 0.64936 0.0
C950 C 0.19443 0.80548 0.73462 0.0
O951 O 0.11303 0.7545 0.72345 0.0
O952 O 0.13261 0.77336 0.66271 0.0
N953 N 0.13267 0.89883 0.70409 0.0
C954 C 0.1111 0.91205 0.731 0.0
C955 C 0.09661 0.93907 0.71847 0.0
C956 C 0.10463 0.95243 0.67858 0.0
C957 C 0.12738 0.93884 0.65184 0.0
C958 C 0.14126 0.91207 0.66626 0.0
H959 H 0.10455 0.90183 0.76137 0.0
O960 O 0.08597 0.81333 0.69174 0.0
O961 O 0.13159 0.83635 0.68856 0.0
O962 O 0.11565 0.81569 0.77529 0.0
O963 O 0.14109 0.85992 0.775 0.0
C964 C 0.13715 0.95104 0.61172 0.0
C965 C 0.16057 0.93639 0.58684 0.0
H966 H 0.20545 0.9014 0.54729 0.0
H967 H 0.22654 0.85381 0.57764 0.0
H968 H 0.0792 0.9495 0.73944 0.0
H969 H 0.09331 0.97321 0.66894 0.0
H970 H 0.12679 0.97167 0.5997 0.0
H971 H 0.1678 0.94591 0.55595 0.0
Mn972 Mn 0.96817 0.38515 0.47014 0.0
Mn973 Mn 0.02844 0.38491 0.54104 0.0
C974 C 0.01949 0.38001 0.44577 0.0
C975 C 0.93206 0.35911 0.42849 0.0
C976 C 0.99641 0.44184 0.50982 0.0
O977 O 0.94562 0.37696 0.52755 0.0
O978 O 0.98775 0.37679 0.57244 0.0
C979 C 0.02538 0.32022 0.56321 0.0
N980 N 0.04209 0.34421 0.54814 0.0
C981 C 0.08695 0.31286 0.53181 0.0
C982 C 0.07039 0.28799 0.54789 0.0
C983 C 0.03947 0.29167 0.56362 0.0
C984 C 0.07184 0.34085 0.53272 0.0
H985 H 0.00131 0.3227 0.57418 0.0
C986 C 0.95795 0.37391 0.56523 0.0
O987 O 0.92754 0.38742 0.43681 0.0
O988 O 0.95571 0.34591 0.447 0.0
N989 N 0.06884 0.39147 0.51444 0.0
C990 C 0.08065 0.41716 0.49666 0.0
C991 C 0.11092 0.41694 0.47791 0.0
C992 C 0.12872 0.39033 0.47751 0.0
C993 C 0.11617 0.36422 0.49618 0.0
C994 C 0.08605 0.3659 0.51505 0.0
H995 H 0.06696 0.43762 0.49631 0.0
O996 O 0.99766 0.38992 0.41995 0.0
O997 O 0.01045 0.37374 0.48515 0.0
O998 O 0.97554 0.42875 0.48671 0.0
O999 O 0.01661 0.4277 0.53312 0.0
C1000 C 0.13205 0.33643 0.49582 0.0
C1001 C 0.11744 0.31076 0.51357 0.0
H1002 H 0.08099 0.26587 0.54747 0.0
H1003 H 0.02636 0.27248 0.57546 0.0
H1004 H 0.12038 0.43715 0.46337 0.0
H1005 H 0.15187 0.39014 0.46241 0.0
H1006 H 0.15531 0.33444 0.48133 0.0
H1007 H 0.12965 0.2894 0.51238 0.0
Mn1008 Mn 0.37809 0.79688 0.29816 0.0
Mn1009 Mn 0.33837 0.8621 0.2953 0.0
C1010 C 0.39629 0.83663 0.33959 0.0
C1011 C 0.38478 0.74952 0.32796 0.0
C1012 C 0.38197 0.84071 0.22279 0.0
O1013 O 0.33608 0.78498 0.27237 0.0
O1014 O 0.3092 0.82813 0.28212 0.0
C1015 C 0.29499 0.85299 0.36998 0.0
N1016 N 0.31832 0.8691 0.35028 0.0
C1017 C 0.31994 0.90414 0.4099 0.0
C1018 C 0.29617 0.88774 0.43098 0.0
C1019 C 0.28366 0.86202 0.41092 0.0
C1020 C 0.33068 0.89374 0.36946 0.0
H1021 H 0.285 0.83348 0.35453 0.0
C1022 C 0.31068 0.80016 0.27263 0.0
O1023 O 0.39514 0.75577 0.28916 0.0
O1024 O 0.36984 0.77052 0.34866 0.0
N1025 N 0.36345 0.89668 0.30869 0.0
C1026 C 0.38449 0.91136 0.2826 0.0
C1027 C 0.39801 0.93842 0.29689 0.0
C1028 C 0.38949 0.95034 0.33758 0.0
C1029 C 0.36705 0.9354 0.36323 0.0
C1030 C 0.35414 0.90865 0.34709 0.0
H1031 H 0.39089 0.90264 0.25103 0.0
O1032 O 0.41475 0.81471 0.32835 0.0
O1033 O 0.36731 0.83466 0.32563 0.0
O1034 O 0.39183 0.81739 0.2424 0.0
O1035 O 0.35982 0.85745 0.23761 0.0
C1036 C 0.35662 0.94626 0.40385 0.0
C1037 C 0.33318 0.93057 0.42724 0.0
H1038 H 0.28721 0.89478 0.46242 0.0
H1039 H 0.26519 0.8493 0.42685 0.0
H1040 H 0.41494 0.95006 0.27658 0.0
H1041 H 0.40004 0.97116 0.34855 0.0
H1042 H 0.36633 0.96675 0.41729 0.0
H1043 H 0.32527 0.93921 0.45838 0.0
Mn1044 Mn 0.9742 0.61452 0.04178 0.0
Mn1045 Mn 0.03574 0.61596 0.97279 0.0
C1046 C 0.02512 0.61933 0.06766 0.0
C1047 C 0.93723 0.63978 0.08337 0.0
C1048 C 0.00329 0.55857 1.00059 0.0
O1049 O 0.9526 0.62377 0.98398 0.0
O1050 O 0.99555 0.62405 0.94064 0.0
C1051 C 0.03221 0.68096 0.9528 0.0
N1052 N 0.04907 0.65684 0.96716 0.0
C1053 C 0.09359 0.68821 0.98478 0.0
C1054 C 0.07696 0.7132 0.9692 0.0
C1055 C 0.04609 0.70957 0.95326 0.0
C1056 C 0.0787 0.66016 0.98297 0.0
H1057 H 0.00814 0.67852 0.94182 0.0
C1058 C 0.96568 0.62714 0.94679 0.0
O1059 O 0.93299 0.61164 0.07378 0.0
O1060 O 0.96121 0.65332 0.06618 0.0
N1061 N 0.0758 0.60936 1.00025 0.0
C1062 C 0.08753 0.58356 0.01779 0.0
C1063 C 0.11761 0.58374 0.03709 0.0
C1064 C 0.13528 0.61039 0.03824 0.0
C1065 C 0.12279 0.63662 0.01979 0.0
C1066 C 0.09289 0.635 1.00037 0.0
H1067 H 0.07393 0.56307 0.01753 0.0
O1068 O 0.00299 0.60892 0.0926 0.0
O1069 O 0.01662 0.62617 0.02832 0.0
O1070 O 0.98197 0.57122 0.0236 0.0
O1071 O 0.02416 0.57312 0.97911 0.0
C1072 C 0.13852 0.66446 0.02093 0.0
C1073 C 0.12392 0.69025 1.00349 0.0
H1074 H 0.0874 0.73538 0.97027 0.0
H1075 H 0.03285 0.72884 0.94196 0.0
H1076 H 0.12701 0.56344 0.05145 0.0
H1077 H 0.15827 0.61053 0.05375 0.0
H1078 H 0.16163 0.66641 0.03586 0.0
H1079 H 0.13598 0.71165 1.00536 0.0
Mn1080 Mn 0.1257 0.20028 0.79489 0.0
Mn1081 Mn 0.16494 0.13476 0.79527 0.0
C1082 C 0.10504 0.15974 0.83318 0.0
C1083 C 0.11587 0.24657 0.82675 0.0
C1084 C 0.12691 0.15757 0.71732 0.0
O1085 O 0.16931 0.2128 0.7753 0.0
O1086 O 0.19498 0.16885 0.78464 0.0
C1087 C 0.20483 0.14352 0.87364 0.0
N1088 N 0.18257 0.12744 0.85175 0.0
C1089 C 0.17992 0.09103 0.90952 0.0
C1090 C 0.20281 0.10727 0.9326 0.0
C1091 C 0.21521 0.13372 0.91464 0.0
C1092 C 0.17012 0.10221 0.86909 0.0
H1093 H 0.21465 0.16357 0.85985 0.0
C1094 C 0.19442 0.19714 0.77654 0.0
O1095 O 0.10866 0.24173 0.78624 0.0
O1096 O 0.12988 0.22522 0.84765 0.0
N1097 N 0.13903 0.1003 0.8067 0.0
C1098 C 0.11763 0.08672 0.78002 0.0
C1099 C 0.10369 0.05947 0.79266 0.0
C1100 C 0.11181 0.04644 0.83272 0.0
C1101 C 0.13402 0.06065 0.85956 0.0
C1102 C 0.14741 0.08761 0.84498 0.0
H1103 H 0.11075 0.09681 0.74975 0.0
O1104 O 0.08716 0.18143 0.81959 0.0
O1105 O 0.13471 0.16214 0.82272 0.0
O1106 O 0.11661 0.18117 0.73598 0.0
O1107 O 0.14623 0.13941 0.73573 0.0
C1108 C 0.14369 0.0489 0.89997 0.0
C1109 C 0.16661 0.06409 0.92493 0.0
H1110 H 0.21106 0.09962 0.96408 0.0
H1111 H 0.23291 0.14641 0.93221 0.0
H1112 H 0.08653 0.04869 0.77174 0.0
H1113 H 0.10088 0.02552 0.8425 0.0
H1114 H 0.1337 0.02814 0.91212 0.0
H1115 H 0.17389 0.05481 0.95594 0.0
Mn1116 Mn 0.52877 0.38457 0.53961 0.0
Mn1117 Mn 0.46825 0.38665 0.46933 0.0
C1118 C 0.4775 0.37928 0.56404 0.0
C1119 C 0.56436 0.35713 0.58013 0.0
C1120 C 0.50008 0.44246 0.50452 0.0
O1121 O 0.55127 0.37782 0.48177 0.0
O1122 O 0.50905 0.38038 0.43744 0.0
C1123 C 0.47244 0.32303 0.44147 0.0
N1124 N 0.45535 0.3461 0.45873 0.0
C1125 C 0.41089 0.31359 0.47168 0.0
C1126 C 0.42778 0.2897 0.45312 0.0
C1127 C 0.45872 0.29444 0.43807 0.0
C1128 C 0.42563 0.34171 0.47365 0.0
H1129 H 0.4965 0.32626 0.4309 0.0
C1130 C 0.5388 0.37662 0.44396 0.0
O1131 O 0.56929 0.38556 0.57336 0.0
O1132 O 0.54096 0.34463 0.56009 0.0
N1133 N 0.42769 0.39157 0.4962 0.0
C1134 C 0.41533 0.4164 0.51582 0.0
C1135 C 0.38499 0.41502 0.53425 0.0
C1136 C 0.36766 0.38817 0.53232 0.0
C1137 C 0.38075 0.363 0.51165 0.0
C1138 C 0.41095 0.36581 0.49335 0.0
H1139 H 0.42865 0.43701 0.5179 0.0
O1140 O 0.49955 0.38829 0.59016 0.0
O1141 O 0.4863 0.3737 0.52431 0.0
O1142 O 0.52154 0.42869 0.52577 0.0
O1143 O 0.47946 0.42908 0.481 0.0
C1144 C 0.36528 0.33505 0.50932 0.0
C1145 C 0.38034 0.31037 0.48936 0.0
H1146 H 0.41743 0.26752 0.45093 0.0
H1147 H 0.47211 0.27601 0.42435 0.0
H1148 H 0.37509 0.43451 0.55029 0.0
H1149 H 0.34443 0.38709 0.54708 0.0
H1150 H 0.34196 0.3322 0.52329 0.0
H1151 H 0.36839 0.28888 0.48835 0.0
C1152 C 0.11893 0.16039 0.39032 0.0
C1153 C 0.08596 0.15762 0.39327 0.0
C1154 C 0.13246 0.18213 0.36288 0.0
C1155 C 0.11331 0.20089 0.33711 0.0
H1156 H 0.13411 0.14736 0.41151 0.0
H1157 H 0.15784 0.18532 0.36338 0.0
S1158 S 0.02576 0.20089 0.332 0.0
N1159 N 0.03465 0.1738 0.3665 0.0
N1160 N 0.05996 0.2148 0.31586 0.0
C1161 C 0.08045 0.19699 0.33816 0.0
C1162 C 0.06679 0.17515 0.36595 0.0
C1163 C 0.05615 0.88837 0.60485 0.0
C1164 C 0.04777 0.86893 0.57064 0.0
C1165 C 0.07558 0.87865 0.63884 0.0
C1166 C 0.0901 0.85045 0.63778 0.0
H1167 H 0.0442 0.90976 0.60849 0.0
H1168 H 0.07621 0.89203 0.66784 0.0
S1169 S 0.07704 0.79127 0.55493 0.0
N1170 N 0.05433 0.81936 0.53918 0.0
N1171 N 0.09615 0.80362 0.59817 0.0
C1172 C 0.08457 0.832 0.6013 0.0
C1173 C 0.06245 0.84075 0.56862 0.0
C1174 C 0.38878 0.84035 0.89746 0.0
C1175 C 0.4216 0.84044 0.90404 0.0
C1176 C 0.37504 0.81985 0.86826 0.0
C1177 C 0.39395 0.79987 0.84409 0.0
H1178 H 0.37365 0.85484 0.91666 0.0
H1179 H 0.34953 0.81896 0.8655 0.0
S1180 S 0.48115 0.79246 0.8487 0.0
N1181 N 0.47273 0.82005 0.88262 0.0
N1182 N 0.44685 0.78145 0.82874 0.0
C1183 C 0.42682 0.80074 0.84926 0.0
C1184 C 0.44069 0.82123 0.87888 0.0
C1185 C 0.40603 0.15689 0.10261 0.0
C1186 C 0.40562 0.14198 0.14304 0.0
C1187 C 0.42835 0.14938 0.07057 0.0
C1188 C 0.4489 0.12494 0.07627 0.0
H1189 H 0.39246 0.17733 0.09836 0.0
H1190 H 0.43197 0.16494 0.04407 0.0
S1191 S 0.45454 0.07643 0.17369 0.0
N1192 N 0.42807 0.10214 0.18666 0.0
N1193 N 0.46388 0.08304 0.12246 0.0
C1194 C 0.4451 0.1071 0.11378 0.0
C1195 C 0.42501 0.11682 0.14824 0.0
C1196 C 0.0813 0.80424 0.17656 0.0
C1197 C 0.11414 0.79999 0.17619 0.0
C1198 C 0.06707 0.82458 0.14818 0.0
C1199 C 0.08521 0.84136 0.1186 0.0
H1200 H 0.06627 0.79018 0.19655 0.0
H1201 H 0.04149 0.82603 0.14778 0.0
S1202 S 0.17228 0.84048 0.10783 0.0
N1203 N 0.16469 0.81541 0.14608 0.0
N1204 N 0.13771 0.85449 0.09304 0.0
C1205 C 0.1182 0.83899 0.11998 0.0
C1206 C 0.13274 0.81787 0.14858 0.0
C1207 C 0.42038 0.87943 0.37888 0.0
C1208 C 0.40472 0.85182 0.38051 0.0
C1209 C 0.4405 0.8885 0.41245 0.0
C1210 C 0.44845 0.86877 0.4465 0.0
H1211 H 0.42037 0.89245 0.34942 0.0
H1212 H 0.45365 0.90918 0.40814 0.0
S1213 S 0.41445 0.79319 0.46475 0.0
N1214 N 0.39568 0.80611 0.42157 0.0
N1215 N 0.43905 0.8201 0.47942 0.0
C1216 C 0.4319 0.84161 0.44972 0.0
C1217 C 0.40889 0.8338 0.41772 0.0
C1218 C 0.37196 0.18193 0.64824 0.0
C1219 C 0.39122 0.2009 0.67353 0.0
C1220 C 0.38536 0.16095 0.61942 0.0
C1221 C 0.41829 0.15926 0.61448 0.0
H1222 H 0.34648 0.18427 0.6494 0.0
H1223 H 0.37001 0.14755 0.59898 0.0
S1224 S 0.4788 0.20354 0.6738 0.0
N1225 N 0.44464 0.21624 0.69215 0.0
N1226 N 0.46981 0.17667 0.63897 0.0
C1227 C 0.43767 0.17711 0.64115 0.0
C1228 C 0.42413 0.19814 0.67037 0.0
C1229 C 0.07857 0.1177 0.87189 0.0
C1230 C 0.09472 0.14506 0.8738 0.0
C1231 C 0.05826 0.10878 0.9054 0.0
C1232 C 0.0508 0.12834 0.93994 0.0
H1233 H 0.07869 0.10461 0.84248 0.0
H1234 H 0.04492 0.08822 0.90103 0.0
S1235 S 0.0858 0.2034 0.95883 0.0
N1236 N 0.10432 0.19046 0.91541 0.0
N1237 N 0.06076 0.17679 0.97316 0.0
C1238 C 0.06755 0.15537 0.94314 0.0
C1239 C 0.0906 0.16306 0.91109 0.0
C1240 C 0.93103 0.82198 0.64543 0.0
C1241 C 0.91558 0.82732 0.60574 0.0
C1242 C 0.91955 0.80062 0.67481 0.0
C1243 C 0.89265 0.78348 0.66481 0.0
H1244 H 0.9531 0.83328 0.65273 0.0
H1245 H 0.93316 0.79602 0.70393 0.0
S1246 S 0.84202 0.79157 0.56675 0.0
N1247 N 0.87077 0.81615 0.55941 0.0
N1248 N 0.84906 0.7755 0.61422 0.0
C1249 C 0.87585 0.79011 0.62636 0.0
C1250 C 0.88742 0.81216 0.59677 0.0
C1251 C 0.93542 0.1239 0.40868 0.0
C1252 C 0.95667 0.13858 0.43676 0.0
C1253 C 0.91432 0.14031 0.38257 0.0
C1254 C 0.91486 0.17182 0.38281 0.0
H1255 H 0.93624 0.0997 0.40536 0.0
H1256 H 0.89926 0.12839 0.35989 0.0
S1257 S 0.9652 0.22071 0.45165 0.0
N1258 N 0.97603 0.18622 0.46437 0.0
N1259 N 0.93671 0.21703 0.41533 0.0
C1260 C 0.9349 0.18662 0.41229 0.0
C1261 C 0.95586 0.16999 0.43921 0.0
C1262 C 0.60444 0.19831 0.09015 0.0
C1263 C 0.58112 0.17841 0.1046 0.0
C1264 C 0.61704 0.21986 0.1184 0.0
C1265 C 0.60638 0.22239 0.16181 0.0
H1266 H 0.61183 0.19817 0.05636 0.0
H1267 H 0.63407 0.23562 0.10533 0.0
S1268 S 0.54721 0.17325 0.21544 0.0
N1269 N 0.54917 0.16072 0.16489 0.0
N1270 N 0.57271 0.20125 0.21838 0.0
C1271 C 0.58426 0.20131 0.17709 0.0
C1272 C 0.57154 0.17936 0.14824 0.0
C1273 C 0.57 0.87697 0.90839 0.0
C1274 C 0.54974 0.86223 0.93774 0.0
C1275 C 0.59033 0.8606 0.88106 0.0
C1276 C 0.58987 0.8291 0.8814 0.0
H1277 H 0.56901 0.90117 0.90516 0.0
H1278 H 0.60473 0.87251 0.85758 0.0
S1279 S 0.5416 0.78008 0.9527 0.0
N1280 N 0.53121 0.81456 0.96629 0.0
N1281 N 0.56895 0.78382 0.91475 0.0
C1282 C 0.57068 0.81424 0.91182 0.0
C1283 C 0.55059 0.83082 0.94002 0.0
C1284 C 0.88608 0.22128 0.89943 0.0
C1285 C 0.89244 0.22067 0.85433 0.0
C1286 C 0.89803 0.19921 0.92729 0.0
C1287 C 0.91583 0.17527 0.91088 0.0
H1288 H 0.87326 0.23983 0.91388 0.0
H1289 H 0.89447 0.20159 0.96205 0.0
S1290 S 0.9365 0.16109 0.79555 0.0
N1291 N 0.916 0.19266 0.79445 0.0
N1292 N 0.9377 0.15068 0.84714 0.0
C1293 C 0.92065 0.17311 0.86581 0.0
C1294 C 0.90902 0.19591 0.83737 0.0
C1295 C 0.58767 0.14025 0.63348 0.0
C1296 C 0.58736 0.17175 0.63261 0.0
C1297 C 0.56704 0.12376 0.60678 0.0
C1298 C 0.54658 0.13836 0.57756 0.0
H1299 H 0.60216 0.12845 0.65696 0.0
H1300 H 0.56599 0.09959 0.61041 0.0
S1301 S 0.53862 0.22043 0.56137 0.0
N1302 N 0.56636 0.21685 0.59877 0.0
N1303 N 0.52796 0.1859 0.54861 0.0
C1304 C 0.54755 0.16975 0.57473 0.0
C1305 C 0.56799 0.18645 0.60221 0.0
C1306 C 0.59217 0.7985 0.34352 0.0
C1307 C 0.60538 0.77211 0.36098 0.0
C1308 C 0.58139 0.82164 0.37083 0.0
C1309 C 0.58327 0.81888 0.41628 0.0
H1310 H 0.58908 0.80085 0.30868 0.0
H1311 H 0.56979 0.84092 0.35643 0.0
S1312 S 0.61794 0.75597 0.47851 0.0
N1313 N 0.62185 0.74598 0.42704 0.0
N1314 N 0.60064 0.78917 0.47773 0.0
C1315 C 0.59762 0.79345 0.4341 0.0
C1316 C 0.60902 0.77013 0.40657 0.0
C1317 C 0.9114 0.85635 0.13027 0.0
C1318 C 0.91185 0.82484 0.12925 0.0
C1319 C 0.93252 0.87299 0.10447 0.0
C1320 C 0.95375 0.85853 0.07605 0.0
H1321 H 0.89641 0.86805 0.15331 0.0
H1322 H 0.93335 0.89715 0.10826 0.0
S1323 S 0.96206 0.77651 0.05931 0.0
N1324 N 0.93352 0.77992 0.09565 0.0
N1325 N 0.97304 0.81109 0.04743 0.0
C1326 C 0.95287 0.82714 0.07291 0.0
C1327 C 0.93182 0.8103 0.09938 0.0
C1328 C 0.61079 0.6619 0.89415 0.0
C1329 C 0.57763 0.66155 0.89536 0.0
C1330 C 0.62681 0.68248 0.86745 0.0
C1331 C 0.60999 0.7023 0.84038 0.0
H1332 H 0.62429 0.64772 0.91593 0.0
H1333 H 0.65234 0.68386 0.86937 0.0
S1334 S 0.52294 0.70809 0.82941 0.0
N1335 N 0.52857 0.68099 0.86518 0.0
N1336 N 0.55861 0.71951 0.81532 0.0
C1337 C 0.5769 0.70075 0.8395 0.0
C1338 C 0.56071 0.68026 0.86688 0.0
C1339 C 0.58573 0.38038 0.14323 0.0
C1340 C 0.60103 0.35255 0.14173 0.0
C1341 C 0.56678 0.39018 0.10874 0.0
C1342 C 0.55955 0.37098 0.07368 0.0
H1343 H 0.58513 0.39308 0.17301 0.0
H1344 H 0.55387 0.41102 0.11284 0.0
S1345 S 0.59285 0.29503 0.05557 0.0
N1346 N 0.61067 0.3073 0.09988 0.0
N1347 N 0.56908 0.32245 0.04032 0.0
C1348 C 0.57577 0.3436 0.07077 0.0
C1349 C 0.59775 0.33511 0.10376 0.0
C1350 C 0.91897 0.30586 0.33637 0.0
C1351 C 0.88652 0.29982 0.33913 0.0
C1352 C 0.93292 0.32714 0.36348 0.0
C1353 C 0.91492 0.34299 0.39434 0.0
H1354 H 0.93413 0.2924 0.31565 0.0
H1355 H 0.95837 0.32991 0.36213 0.0
S1356 S 0.82855 0.33761 0.41112 0.0
N1357 N 0.83623 0.31283 0.37244 0.0
N1358 N 0.86273 0.35346 0.42349 0.0
C1359 C 0.88212 0.33892 0.39523 0.0
C1360 C 0.86786 0.31695 0.36773 0.0
C1361 C 0.9228 0.62563 0.64641 0.0
C1362 C 0.90802 0.65369 0.64449 0.0
C1363 C 0.94237 0.61561 0.61273 0.0
C1364 C 0.95074 0.63473 0.57815 0.0
H1365 H 0.92255 0.61286 0.67605 0.0
H1366 H 0.95461 0.59444 0.61707 0.0
S1367 S 0.9204 0.71177 0.56011 0.0
N1368 N 0.90096 0.69961 0.60318 0.0
N1369 N 0.94374 0.68383 0.54545 0.0
C1370 C 0.93556 0.66262 0.57509 0.0
C1371 C 0.91294 0.67141 0.60712 0.0
C1372 C 0.61364 0.33893 0.61699 0.0
C1373 C 0.58054 0.34018 0.61444 0.0
C1374 C 0.62845 0.31806 0.64458 0.0
C1375 C 0.61045 0.29879 0.67109 0.0
H1376 H 0.628 0.35262 0.5956 0.0
H1377 H 0.65396 0.31602 0.64379 0.0
S1378 S 0.52305 0.29514 0.67808 0.0
N1379 N 0.53029 0.3221 0.64265 0.0
N1380 N 0.55804 0.28287 0.69376 0.0
C1381 C 0.57742 0.30118 0.67047 0.0
C1382 C 0.56247 0.32204 0.64238 0.0
C1383 C 0.93738 0.3886 0.90316 0.0
C1384 C 0.94403 0.3698 0.93885 0.0
C1385 C 0.91838 0.37865 0.86884 0.0
C1386 C 0.90245 0.35119 0.87116 0.0
H1387 H 0.95083 0.40906 0.89848 0.0
H1388 H 0.91934 0.39085 0.83863 0.0
S1389 S 0.90874 0.29507 0.95944 0.0
N1390 N 0.93313 0.32217 0.97392 0.0
N1391 N 0.89149 0.30691 0.91447 0.0
C1392 C 0.90512 0.33433 0.90973 0.0
C1393 C 0.92712 0.34289 0.94263 0.0
C1394 C 0.93585 0.67205 0.14824 0.0
C1395 C 0.91899 0.65543 0.11706 0.0
C1396 C 0.92051 0.69238 0.17554 0.0
C1397 C 0.88776 0.69677 0.17256 0.0
H1398 H 0.96141 0.67053 0.14992 0.0
H1399 H 0.93474 0.70641 0.19665 0.0
S1400 S 0.8325 0.65641 0.09964 0.0
N1401 N 0.86761 0.64241 0.08743 0.0
N1402 N 0.83852 0.68139 0.13859 0.0
C1403 C 0.87031 0.67889 0.14354 0.0
C1404 C 0.88599 0.65782 0.11594 0.0
C1405 C 0.59386 0.65502 0.40169 0.0
C1406 C 0.59326 0.64066 0.36083 0.0
C1407 C 0.57219 0.64729 0.43437 0.0
C1408 C 0.55159 0.62287 0.42915 0.0
H1409 H 0.60763 0.67533 0.40599 0.0
H1410 H 0.56906 0.66275 0.46109 0.0
S1411 S 0.54304 0.57601 0.3303 0.0
N1412 N 0.56924 0.60183 0.3169 0.0
N1413 N 0.53528 0.58171 0.38226 0.0
C1414 C 0.55436 0.60557 0.39085 0.0
C1415 C 0.57351 0.61578 0.35569 0.0
C1416 C 0.40007 0.30732 0.09584 0.0
C1417 C 0.42881 0.32092 0.10697 0.0
C1418 C 0.38728 0.28462 0.1221 0.0
C1419 C 0.40269 0.27526 0.16044 0.0
H1420 H 0.3884 0.31304 0.06555 0.0
H1421 H 0.36577 0.27362 0.11151 0.0
S1422 S 0.47777 0.30583 0.20441 0.0
N1423 N 0.47172 0.3248 0.159 0.0
N1424 N 0.44742 0.28275 0.20912 0.0
C1425 C 0.4306 0.29004 0.17294 0.0
C1426 C 0.4438 0.31271 0.14585 0.0
C1427 C 0.44037 0.66576 0.93593 0.0
C1428 C 0.4455 0.63516 0.92775 0.0
C1429 C 0.42019 0.68257 0.90958 0.0
C1430 C 0.40459 0.66943 0.874 0.0
H1431 H 0.45401 0.6774 0.96054 0.0
H1432 H 0.41856 0.70655 0.91521 0.0
S1433 S 0.40788 0.58959 0.84124 0.0
N1434 N 0.43174 0.5918 0.88372 0.0
N1435 N 0.39338 0.62369 0.83396 0.0
C1436 C 0.40759 0.63845 0.86732 0.0
C1437 C 0.42839 0.62126 0.89413 0.0
C1438 C 0.11839 0.72246 0.61285 0.0
C1439 C 0.11297 0.72291 0.65819 0.0
C1440 C 0.10569 0.6999 0.58648 0.0
C1441 C 0.08789 0.67657 0.60458 0.0
H1442 H 0.13091 0.74064 0.59702 0.0
H1443 H 0.10843 0.70157 0.55147 0.0
S1444 S 0.06936 0.6652 0.72122 0.0
N1445 N 0.09035 0.69645 0.72016 0.0
N1446 N 0.06701 0.65367 0.67018 0.0
C1447 C 0.08407 0.67539 0.6499 0.0
C1448 C 0.09661 0.69863 0.67689 0.0
C1449 C 0.05021 0.33407 0.43178 0.0
C1450 C 0.04692 0.36515 0.42597 0.0
C1451 C 0.07081 0.31742 0.40576 0.0
C1452 C 0.08889 0.33129 0.37314 0.0
H1453 H 0.03527 0.3222 0.4547 0.0
H1454 H 0.07156 0.29327 0.40991 0.0
S1455 S 0.08991 0.41222 0.34623 0.0
N1456 N 0.06393 0.40939 0.38624 0.0
N1457 N 0.10357 0.37794 0.33769 0.0
C1458 C 0.08717 0.36254 0.36843 0.0
C1459 C 0.06572 0.37951 0.3946 0.0
C1460 C 0.43519 0.68506 0.36524 0.0
C1461 C 0.42019 0.67621 0.40392 0.0
C1462 C 0.42195 0.70709 0.33852 0.0
C1463 C 0.39372 0.72158 0.35039 0.0
H1464 H 0.45809 0.67584 0.35664 0.0
H1465 H 0.43514 0.71431 0.31015 0.0
S1466 S 0.3438 0.70404 0.44646 0.0
N1467 N 0.3744 0.68117 0.45091 0.0
N1468 N 0.34964 0.72349 0.40137 0.0
C1469 C 0.37752 0.71157 0.38773 0.0
C1470 C 0.39076 0.68862 0.41443 0.0
C1471 C 0.05509 0.66542 0.08237 0.0
C1472 C 0.05198 0.63436 0.08838 0.0
C1473 C 0.07538 0.68225 0.10843 0.0
C1474 C 0.09315 0.6686 0.14151 0.0
H1475 H 0.0403 0.67716 0.05915 0.0
H1476 H 0.07599 0.70638 0.10405 0.0
S1477 S 0.09444 0.58782 0.16928 0.0
N1478 N 0.0689 0.59033 0.12873 0.0
N1479 N 0.10775 0.62222 0.17778 0.0
C1480 C 0.09158 0.63738 0.14657 0.0
C1481 C 0.07055 0.62019 0.12017 0.0
C1482 C 0.0749 0.26326 0.87732 0.0
C1483 C 0.10108 0.27074 0.85169 0.0
C1484 C 0.06134 0.28416 0.90544 0.0
C1485 C 0.07345 0.3135 0.90906 0.0
H1486 H 0.06497 0.24085 0.87596 0.0
H1487 H 0.04116 0.27704 0.92455 0.0
S1488 S 0.14214 0.34397 0.84815 0.0
N1489 N 0.13906 0.30891 0.831 0.0
N1490 N 0.11334 0.34893 0.88387 0.0
C1491 C 0.09971 0.32135 0.88319 0.0
C1492 C 0.11358 0.29978 0.8544 0.0
C1493 C 0.44565 0.33393 0.57684 0.0
C1494 C 0.44973 0.36485 0.58346 0.0
C1495 C 0.42564 0.31728 0.60368 0.0
C1496 C 0.40893 0.33101 0.63785 0.0
H1497 H 0.45983 0.3221 0.55296 0.0
H1498 H 0.42459 0.29316 0.5992 0.0
S1499 S 0.40955 0.41168 0.66638 0.0
N1500 N 0.4343 0.40891 0.62491 0.0
N1501 N 0.39576 0.37747 0.67497 0.0
C1502 C 0.41103 0.36219 0.64298 0.0
C1503 C 0.43188 0.37915 0.61599 0.0
C1504 C 0.2656 0.22534 0.28169 0.0
C1505 C 0.28192 0.22269 0.24215 0.0
C1506 C 0.23531 0.23818 0.28299 0.0
C1507 C 0.22028 0.24793 0.2446 0.0
H1508 H 0.27574 0.21638 0.31135 0.0
H1509 H 0.22267 0.23843 0.31369 0.0
S1510 S 0.25436 0.24769 0.1336 0.0
N1511 N 0.28237 0.23311 0.16454 0.0
N1512 N 0.22461 0.25551 0.16662 0.0
C1513 C 0.23696 0.24643 0.20525 0.0
C1514 C 0.26807 0.23422 0.20414 0.0
C1515 C 0.01023 0.97987 0.46451 0.0
C1516 C 0.98913 0.96346 0.4908 0.0
C1517 C 0.01681 0.01012 0.47279 0.0
C1518 C 0.00257 0.02554 0.50772 0.0
H1519 H 0.02234 0.96917 0.43757 0.0
H1520 H 0.03309 0.02149 0.45114 0.0
S1521 S 0.94537 0.99312 0.58667 0.0
N1522 N 0.9538 0.96514 0.55344 0.0
N1523 N 0.96615 0.02196 0.56895 0.0
C1524 C 0.98117 0.00954 0.53418 0.0
C1525 C 0.97438 0.97864 0.52565 0.0
C1526 C 0.28201 0.79524 0.71513 0.0
C1527 C 0.28929 0.76787 0.73582 0.0
C1528 C 0.25167 0.80742 0.71647 0.0
C1529 C 0.22661 0.79231 0.73692 0.0
H1530 H 0.30011 0.80822 0.6988 0.0
H1531 H 0.24799 0.82892 0.70093 0.0
S1532 S 0.23182 0.71875 0.79317 0.0
N1533 N 0.26826 0.72535 0.77636 0.0
N1534 N 0.21051 0.74767 0.77674 0.0
C1535 C 0.23295 0.76427 0.7562 0.0
C1536 C 0.26434 0.75214 0.75597 0.0
C1537 C 0.49268 0.02031 0.96845 0.0
C1538 C 0.51281 0.03801 0.99435 0.0
C1539 C 0.48861 0.98973 0.97655 0.0
C1540 C 0.50457 0.97524 0.01084 0.0
H1541 H 0.47932 0.03023 0.94204 0.0
H1542 H 0.47281 0.97738 0.95536 0.0
S1543 S 0.56062 0.01109 0.08806 0.0
N1544 N 0.54938 0.0386 0.05562 0.0
N1545 N 0.54188 0.98093 0.07062 0.0
C1546 C 0.52529 0.99246 0.03662 0.0
C1547 C 0.52945 0.02379 0.02836 0.0
C1548 C 0.23467 0.76642 0.23092 0.0
C1549 C 0.22003 0.75697 0.26978 0.0
C1550 C 0.26468 0.77977 0.23148 0.0
C1551 C 0.28095 0.78343 0.27082 0.0
H1552 H 0.22199 0.76527 0.2003 0.0
H1553 H 0.27472 0.78812 0.20137 0.0
S1554 S 0.25455 0.75929 0.38038 0.0
N1555 N 0.22477 0.75059 0.34794 0.0
N1556 N 0.28204 0.77406 0.34873 0.0
C1557 C 0.26747 0.77236 0.30938 0.0
C1558 C 0.23669 0.75953 0.30896 0.0
C1559 C 0.52269 0.97717 0.48292 0.0
C1560 C 0.51272 0.96303 0.52157 0.0
C1561 C 0.51755 0.00794 0.4761 0.0
C1562 C 0.50199 0.02562 0.50747 0.0
H1563 H 0.53354 0.96422 0.45705 0.0
H1564 H 0.52531 0.0178 0.44569 0.0
S1565 S 0.47492 0.0002 0.61657 0.0
N1566 N 0.48929 0.96974 0.5933 0.0
N1567 N 0.47936 0.02723 0.58041 0.0
C1568 C 0.49302 0.01196 0.54695 0.0
C1569 C 0.4985 0.9808 0.55402 0.0
C1570 C 0.24291 0.21632 0.81227 0.0
C1571 C 0.22468 0.21328 0.77434 0.0
C1572 C 0.27275 0.22977 0.81111 0.0
C1573 C 0.28514 0.24128 0.7721 0.0
H1574 H 0.23429 0.20806 0.8431 0.0
H1575 H 0.28669 0.23025 0.84069 0.0
S1576 S 0.24491 0.24175 0.6647 0.0
N1577 N 0.21956 0.22494 0.69758 0.0
N1578 N 0.27577 0.25062 0.69506 0.0
C1579 C 0.26614 0.24022 0.73446 0.0
C1580 C 0.2358 0.22615 0.73567 0.0
C1581 C 0.01058 0.01749 0.04313 0.0
C1582 C 0.9897 0.03417 0.01686 0.0
C1583 C 0.01595 0.98694 0.03579 0.0
C1584 C 1.0006 0.97138 1.00193 0.0
H1585 H 0.02346 0.02817 0.06938 0.0
H1586 H 0.03217 0.97543 0.05736 0.0
S1587 S 0.94325 0.0043 0.92369 0.0
N1588 N 0.95329 0.0326 0.95547 0.0
N1589 N 0.96327 0.97508 0.94184 0.0
C1590 C 0.97936 0.98762 0.97554 0.0
C1591 C 0.97387 0.01891 0.98304 0.0
C1592 C 0.76671 0.72422 0.79369 0.0
C1593 C 0.78427 0.72279 0.75507 0.0
C1594 C 0.73637 0.73693 0.79381 0.0
C1595 C 0.72266 0.74779 0.75511 0.0
H1596 H 0.77604 0.71467 0.82346 0.0
H1597 H 0.72274 0.7364 0.82369 0.0
S1598 S 0.76022 0.75059 0.64636 0.0
N1599 N 0.7872 0.73515 0.67814 0.0
N1600 N 0.72941 0.7575 0.67794 0.0
C1601 C 0.74051 0.74733 0.71673 0.0
C1602 C 0.7716 0.73519 0.71685 0.0
C1603 C 0.73756 0.27623 0.29258 0.0
C1604 C 0.71984 0.27765 0.25409 0.0
C1605 C 0.76763 0.26284 0.29273 0.0
C1606 C 0.78098 0.25125 0.25418 0.0
H1607 H 0.72864 0.2864 0.32218 0.0
H1608 H 0.78143 0.26352 0.32244 0.0
S1609 S 0.74322 0.24869 0.14562 0.0
N1610 N 0.71661 0.26483 0.17733 0.0
N1611 N 0.77384 0.24123 0.1772 0.0
C1612 C 0.76299 0.25177 0.21595 0.0
C1613 C 0.73216 0.2646 0.21605 0.0
C1614 C 0.7348 0.26043 0.72351 0.0
C1615 C 0.71952 0.2523 0.76254 0.0
C1616 C 0.76509 0.27327 0.72402 0.0
C1617 C 0.78102 0.27768 0.76349 0.0
H1618 H 0.72238 0.25887 0.69274 0.0
H1619 H 0.77554 0.28082 0.69373 0.0
S1620 S 0.75293 0.25691 0.87368 0.0
N1621 N 0.72339 0.24779 0.84108 0.0
N1622 N 0.78106 0.27033 0.84184 0.0
C1623 C 0.76695 0.26773 0.80227 0.0
C1624 C 0.73593 0.25542 0.80188 0.0
C1625 C 0.76506 0.73396 0.22142 0.0
C1626 C 0.77956 0.74445 0.25977 0.0
C1627 C 0.73463 0.72144 0.22242 0.0
C1628 C 0.71767 0.71988 0.26158 0.0
H1629 H 0.77816 0.73351 0.19109 0.0
H1630 H 0.72477 0.71208 0.19284 0.0
S1631 S 0.74422 0.74617 0.37 0.0
N1632 N 0.77438 0.75332 0.33739 0.0
N1633 N 0.71646 0.73135 0.33889 0.0
C1634 C 0.73118 0.73185 0.29955 0.0
C1635 C 0.76239 0.74376 0.29877 0.0
C1636 C 0.47839 0.47678 0.02618 0.0
C1637 C 0.49162 0.46233 0.98963 0.0
C1638 C 0.48102 0.50792 0.03184 0.0
C1639 C 0.49717 0.52581 1.00135 0.0
H1640 H 0.46678 0.46387 0.05142 0.0
H1641 H 0.47075 0.51796 0.0607 0.0
S1642 S 0.53281 0.49943 0.89739 0.0
N1643 N 0.5191 0.46872 0.92064 0.0
N1644 N 0.52423 0.52699 0.93126 0.0
C1645 C 0.50953 0.51176 0.96386 0.0
C1646 C 0.50666 0.48014 0.95799 0.0
C1647 C 0.01724 0.49158 0.53588 0.0
C1648 C 0.99961 0.47493 0.5054 0.0
C1649 C 0.02186 0.5226 0.53082 0.0
C1650 C 0.00922 0.53817 0.49491 0.0
H1651 H 0.02733 0.48065 0.56413 0.0
H1652 H 0.03472 0.53454 0.55591 0.0
S1653 S 0.96414 0.50455 0.40325 0.0
N1654 N 0.97135 0.4762 0.43626 0.0
N1655 N 0.98027 0.5341 0.42671 0.0
C1656 C 0.99246 0.5216 0.46345 0.0
C1657 C 0.98755 0.49015 0.46873 0.0
C1658 C 0.9923 0.47939 0.04252 0.0
C1659 C 0.01218 0.4619 0.01585 0.0
C1660 C 0.98914 0.51024 0.03637 0.0
C1661 C 0.00593 0.52538 1.00349 0.0
H1662 H 0.9784 0.46916 0.06816 0.0
H1663 H 0.97348 0.52229 0.05815 0.0
S1664 S 0.06205 0.49051 0.92529 0.0
N1665 N 0.04953 0.46225 0.95545 0.0
N1666 N 0.04392 0.52061 0.94429 0.0
C1667 C 0.02648 0.50842 0.97697 0.0
C1668 C 0.02958 0.4767 0.98312 0.0
C1669 C 0.47874 0.49268 0.48202 0.0
C1670 C 0.49698 0.47536 0.51095 0.0
C1671 C 0.47474 0.52363 0.48834 0.0
C1672 C 0.48868 0.53847 0.52399 0.0
H1673 H 0.46789 0.48239 0.45379 0.0
H1674 H 0.46165 0.53615 0.46408 0.0
S1675 S 0.5353 0.50284 0.6124 0.0
N1676 N 0.52679 0.47507 0.57888 0.0
N1677 N 0.51911 0.53301 0.59069 0.0
C1678 C 0.50576 0.52119 0.55423 0.0
C1679 C 0.51001 0.48976 0.5477 0.0
C1680 C 0.07923 0.31817 0.09617 0.0
C1681 C 0.05969 0.34248 0.10787 0.0
C1682 C 0.09637 0.30219 0.12744 0.0
C1683 C 0.09519 0.31009 0.17174 0.0
H1684 H 0.08032 0.31054 0.0627 0.0
H1685 H 0.11014 0.28302 0.11684 0.0
S1686 S 0.05021 0.37402 0.21889 0.0
N1687 N 0.04172 0.375 0.16641 0.0
N1688 N 0.07449 0.34532 0.22539 0.0
C1689 C 0.07697 0.33532 0.18371 0.0
C1690 C 0.05901 0.35134 0.15179 0.0
C1691 C 0.92358 0.83063 0.32413 0.0
C1692 C 0.90001 0.80975 0.33546 0.0
C1693 C 0.93984 0.84699 0.3562 0.0
C1694 C 0.93274 0.84351 0.40074 0.0
H1695 H 0.93072 0.83316 0.29045 0.0
H1696 H 0.95874 0.86182 0.34604 0.0
S1697 S 0.87078 0.7934 0.44671 0.0
N1698 N 0.86897 0.78773 0.39368 0.0
N1699 N 0.89884 0.81863 0.45394 0.0
C1700 C 0.90796 0.82377 0.41214 0.0
C1701 C 0.89182 0.80684 0.37953 0.0
C1702 C 0.43389 0.67512 0.68172 0.0
C1703 C 0.41013 0.69585 0.67058 0.0
C1704 C 0.45036 0.65904 0.64948 0.0
C1705 C 0.44337 0.66285 0.60501 0.0
H1706 H 0.44074 0.67227 0.71546 0.0
H1707 H 0.46902 0.64388 0.65943 0.0
S1708 S 0.38105 0.71294 0.55969 0.0
N1709 N 0.37889 0.71797 0.61285 0.0
N1710 N 0.40957 0.68818 0.55207 0.0
C1711 C 0.41862 0.68274 0.5938 0.0
C1712 C 0.40212 0.69915 0.62662 0.0
C1713 C 0.59575 0.19948 0.88171 0.0
C1714 C 0.5954 0.19053 0.83778 0.0
C1715 C 0.5791 0.18354 0.9135 0.0
C1716 C 0.56093 0.15814 0.90276 0.0
H1717 H 0.60849 0.21941 0.89162 0.0
H1718 H 0.57952 0.19196 0.94661 0.0
S1719 S 0.55454 0.12325 0.79354 0.0
N1720 N 0.57729 0.15291 0.78581 0.0
N1721 N 0.54537 0.12333 0.84584 0.0
C1722 C 0.56115 0.14819 0.85936 0.0
C1723 C 0.57863 0.16419 0.82688 0.0
C1724 C 0.08461 0.68036 0.4188 0.0
C1725 C 0.06503 0.65613 0.40707 0.0
C1726 C 0.1006 0.69722 0.38726 0.0
C1727 C 0.09816 0.69019 0.34276 0.0
H1728 H 0.08641 0.68735 0.45251 0.0
H1729 H 0.11443 0.71634 0.39778 0.0
S1730 S 0.05278 0.62666 0.29546 0.0
N1731 N 0.04578 0.62458 0.3483 0.0
N1732 N 0.07652 0.65573 0.28883 0.0
C1733 C 0.08006 0.66493 0.33075 0.0
C1734 C 0.06324 0.6481 0.36292 0.0
C1735 C 0.60228 0.80436 0.63185 0.0
C1736 C 0.60126 0.81235 0.67617 0.0
C1737 C 0.58574 0.82082 0.60048 0.0
C1738 C 0.56696 0.84565 0.61216 0.0
H1739 H 0.61523 0.78464 0.62136 0.0
H1740 H 0.58639 0.81305 0.56705 0.0
S1741 S 0.55869 0.87796 0.72275 0.0
N1742 N 0.58202 0.84858 0.7295 0.0
N1743 N 0.55013 0.87892 0.67031 0.0
C1744 C 0.56666 0.85471 0.65593 0.0
C1745 C 0.58409 0.83829 0.68793 0.0
C1746 C 0.43187 0.3289 0.82962 0.0
C1747 C 0.40778 0.30879 0.84177 0.0
C1748 C 0.44951 0.34449 0.86111 0.0
C1749 C 0.44336 0.34092 0.90588 0.0
H1750 H 0.4382 0.33147 0.79564 0.0
H1751 H 0.46853 0.35896 0.85031 0.0
S1752 S 0.38039 0.29287 0.95398 0.0
N1753 N 0.3772 0.28754 0.90097 0.0
N1754 N 0.40969 0.31692 0.96026 0.0
C1755 C 0.41814 0.3219 0.91816 0.0
C1756 C 0.40058 0.3058 0.8861 0.0
C1757 C 0.92544 0.16529 0.187 0.0
C1758 C 0.90234 0.18673 0.17591 0.0
C1759 C 0.94181 0.14913 0.15471 0.0
C1760 C 0.93524 0.15334 0.11016 0.0
H1761 H 0.93215 0.16212 0.22073 0.0
H1762 H 0.96033 0.13382 0.16472 0.0
S1763 S 0.87518 0.2056 0.06446 0.0
N1764 N 0.87265 0.21034 0.11763 0.0
N1765 N 0.90273 0.17985 0.05708 0.0
C1766 C 0.91105 0.17377 0.09891 0.0
C1767 C 0.89483 0.19049 0.13172 0.0
C1768 C 0.91247 0.63462 0.91085 0.0
C1769 C 0.94577 0.63687 0.90915 0.0
C1770 C 0.89337 0.64459 0.87616 0.0
C1771 C 0.90678 0.65802 0.83909 0.0
H1772 H 0.90103 0.6249 0.93905 0.0
H1773 H 0.86796 0.64209 0.87859 0.0
S1774 S 0.9924 0.66821 0.81696 0.0
N1775 N 0.99106 0.65249 0.86552 0.0
N1776 N 0.95523 0.67193 0.80173 0.0
C1777 C 0.9399 0.6603 0.83682 0.0
C1778 C 0.95934 0.64956 0.87143 0.0
C1779 C 0.11027 0.11928 0.66091 0.0
C1780 C 0.11286 0.14955 0.67418 0.0
C1781 C 0.09108 0.11092 0.62544 0.0
C1782 C 0.07489 0.13261 0.60094 0.0
H1783 H 0.122 0.1017 0.67895 0.0
H1784 H 0.08832 0.08732 0.61779 0.0
S1785 S 0.08005 0.21508 0.61461 0.0
N1786 N 0.10115 0.20143 0.65524 0.0
N1787 N 0.06718 0.18569 0.5871 0.0
C1788 C 0.07988 0.16298 0.61086 0.0
C1789 C 0.09847 0.17148 0.64769 0.0
C1790 C 0.59255 0.36838 0.40957 0.0
C1791 C 0.55923 0.36825 0.40599 0.0
C1792 C 0.61206 0.35875 0.375 0.0
C1793 C 0.59894 0.3478 0.33608 0.0
H1794 H 0.60374 0.37591 0.43934 0.0
H1795 H 0.63748 0.3593 0.37909 0.0
S1796 S 0.51364 0.34448 0.30825 0.0
N1797 N 0.51445 0.35784 0.35833 0.0
N1798 N 0.55094 0.33899 0.29473 0.0
C1799 C 0.56586 0.348 0.33172 0.0
C1800 C 0.54607 0.3584 0.36626 0.0
C1801 C 0.45224 0.85558 0.14948 0.0
C1802 C 0.43918 0.87 0.11292 0.0
C1803 C 0.43328 0.84586 0.18401 0.0
C1804 C 0.4004 0.85069 0.18426 0.0
H1805 H 0.47738 0.8512 0.15136 0.0
H1806 H 0.4447 0.8348 0.2112 0.0
S1807 S 0.3543 0.8889 0.09795 0.0
N1808 N 0.39104 0.88934 0.07966 0.0
N1809 N 0.35555 0.87191 0.14572 0.0
C1810 C 0.38695 0.86583 0.14868 0.0
C1811 C 0.40625 0.87521 0.11276 0.0
C1812 C 0.95084 0.34859 0.63742 0.0
C1813 C 0.93741 0.36437 0.60227 0.0
C1814 C 0.93232 0.33812 0.67206 0.0
C1815 C 0.89955 0.34351 0.67385 0.0
H1816 H 0.97597 0.34399 0.63822 0.0
H1817 H 0.94407 0.32635 0.69834 0.0
S1818 S 0.8525 0.38418 0.59078 0.0
N1819 N 0.88895 0.38479 0.57146 0.0
N1820 N 0.85435 0.36597 0.63755 0.0
C1821 C 0.88571 0.3595 0.63926 0.0
C1822 C 0.90453 0.36964 0.60329 0.0
C1823 C 0.42909 0.15431 0.33295 0.0
C1824 C 0.39605 0.15068 0.33336 0.0
C1825 C 0.44796 0.14421 0.36729 0.0
C1826 C 0.43469 0.1306 0.40438 0.0
H1827 H 0.44072 0.16467 0.30533 0.0
H1828 H 0.47322 0.14767 0.36481 0.0
S1829 S 0.34928 0.11479 0.42107 0.0
N1830 N 0.35077 0.13131 0.37295 0.0
N1831 N 0.38613 0.11326 0.43881 0.0
C1832 C 0.40158 0.12656 0.4052 0.0
C1833 C 0.38233 0.13629 0.36941 0.0
C1834 C 0.59011 0.63478 0.09882 0.0
C1835 C 0.55681 0.6351 0.1028 0.0
C1836 C 0.60985 0.64428 0.13315 0.0
C1837 C 0.59702 0.65539 0.17219 0.0
H1838 H 0.60108 0.62694 0.06904 0.0
H1839 H 0.63525 0.64323 0.12896 0.0
S1840 S 0.51187 0.6596 0.20083 0.0
N1841 N 0.51234 0.64614 0.15079 0.0
N1842 N 0.54926 0.66482 0.21392 0.0
C1843 C 0.56394 0.65566 0.17679 0.0
C1844 C 0.54391 0.64533 0.14252 0.0
C1845 C 0.10578 0.87783 0.85035 0.0
C1846 C 0.10883 0.84768 0.83663 0.0
C1847 C 0.08677 0.88571 0.88622 0.0
C1848 C 0.0711 0.86367 0.91068 0.0
H1849 H 0.11709 0.89571 0.83241 0.0
H1850 H 0.08375 0.90922 0.89427 0.0
S1851 S 0.07689 0.78137 0.8953 0.0
N1852 N 0.09769 0.79553 0.85472 0.0
N1853 N 0.06388 0.81042 0.9235 0.0
C1854 C 0.07628 0.83343 0.90006 0.0
C1855 C 0.09477 0.82539 0.86285 0.0
loop_
_geom_bond_atom_site_label_1
_geom_bond_atom_site_label_2
_geom_bond_distance
_geom_bond_site_symmetry_2
_ccdc_geom_bond_type
Mn0 O5 2.095 . S
Mn0 O15 2.162 . S
Mn0 O16 2.297 . S
Mn0 O24 2.385 . S
Mn0 O25 2.209 . S
Mn0 O26 2.094 . S
Mn1 O6 2.121 . S
Mn1 N8 2.257 . S
Mn1 N17 2.282 . S
Mn1 O25 2.215 . S
Mn1 O27 2.117 . S
C2 O24 1.234 . S
C2 O25 1.283 . S
C3 O15 1.281 . S
C3 O16 1.236 . S
C4 O26 1.240 . S
C4 O27 1.264 . S
O5 Mn0 2.095 . S
O5 C14 1.250 . S
O6 Mn1 2.121 . S
O6 C14 1.258 . S
C7 N8 1.326 . S
C7 C11 1.460 . S
C7 H13 0.929 . S
N8 Mn1 2.257 . S
N8 C7 1.326 . S
N8 C12 1.362 . S
C9 C10 1.258 . S
C9 C12 1.431 . S
C9 C29 1.449 . S
C10 C9 1.258 . S
C10 C11 1.477 . S
C10 H30 0.931 . S
C11 C7 1.460 . S
C11 C10 1.477 . S
C11 H31 0.930 . S
C12 N8 1.362 . S
C12 C9 1.431 . S
C12 C22 1.476 . S
H13 C7 0.929 . S
C14 O5 1.250 . S
C14 O6 1.258 . S
O15 Mn0 2.162 . S
O15 C3 1.281 . S
O16 Mn0 2.297 . S
O16 C3 1.236 . S
N17 Mn1 2.282 . S
N17 C18 1.328 . S
N17 C22 1.318 . S
C18 N17 1.328 . S
C18 C19 1.457 . S
C18 H23 0.929 . S
C19 C18 1.457 . S
C19 C20 1.291 . S
C19 H32 0.931 . S
C20 C19 1.291 . S
C20 C21 1.373 . S
C20 H33 0.929 . S
C21 C20 1.373 . S
C21 C22 1.396 . S
C21 C28 1.403 . S
C22 C12 1.476 . S
C22 N17 1.318 . S
C22 C21 1.396 . S
H23 C18 0.929 . S
O24 Mn0 2.385 . S
O24 C2 1.234 . S
O25 Mn0 2.209 . S
O25 Mn1 2.215 . S
O25 C2 1.283 . S
O26 Mn0 2.094 . S
O26 C4 1.240 . S
O27 Mn1 2.117 . S
O27 C4 1.264 . S
C28 C21 1.403 . S
C28 C29 1.399 . S
C28 H34 0.929 . S
C29 C9 1.449 . S
C29 C28 1.399 . S
C29 H35 0.930 . S
H30 C10 0.931 . S
H31 C11 0.930 . S
H32 C19 0.931 . S
H33 C20 0.929 . S
H34 C28 0.929 . S
H35 C29 0.930 . S
Mn36 O41 2.095 . S
Mn36 O51 2.162 . S
Mn36 O52 2.297 . S
Mn36 O60 2.385 . S
Mn36 O61 2.209 . S
Mn36 O62 2.094 . S
Mn37 O42 2.121 1_455 S
Mn37 N44 2.257 . S
Mn37 N53 2.282 . S
Mn37 O61 2.215 1_455 S
Mn37 O63 2.117 1_455 S
C38 O60 1.234 1_455 S
C38 O61 1.283 1_455 S
C39 O51 1.281 . S
C39 O52 1.236 . S
C40 O62 1.240 . S
C40 O63 1.264 . S
O41 Mn36 2.095 . S
O41 C50 1.250 . S
O42 Mn37 2.121 1_655 S
O42 C50 1.258 . S
C43 N44 1.326 . S
C43 C47 1.460 . S
C43 H49 0.929 . S
N44 Mn37 2.257 . S
N44 C43 1.326 . S
N44 C48 1.362 . S
C45 C46 1.258 . S
C45 C48 1.431 . S
C45 C65 1.449 . S
C46 C45 1.258 . S
C46 C47 1.477 . S
C46 H66 0.931 . S
C47 C43 1.460 . S
C47 C46 1.477 . S
C47 H67 0.930 . S
C48 N44 1.362 . S
C48 C45 1.431 . S
C48 C58 1.476 . S
H49 C43 0.929 . S
C50 O41 1.250 . S
C50 O42 1.258 . S
O51 Mn36 2.162 . S
O51 C39 1.281 . S
O52 Mn36 2.297 . S
O52 C39 1.236 . S
N53 Mn37 2.282 . S
N53 C54 1.328 . S
N53 C58 1.318 . S
C54 N53 1.328 . S
C54 C55 1.457 . S
C54 H59 0.929 . S
C55 C54 1.457 . S
C55 C56 1.291 . S
C55 H68 0.931 . S
C56 C55 1.291 . S
C56 C57 1.373 . S
C56 H69 0.929 . S
C57 C56 1.373 . S
C57 C58 1.396 . S
C57 C64 1.403 . S
C58 C48 1.476 . S
C58 N53 1.318 . S
C58 C57 1.396 . S
H59 C54 0.929 . S
O60 Mn36 2.385 . S
O60 C38 1.234 1_655 S
O61 Mn36 2.209 . S
O61 Mn37 2.215 1_655 S
O61 C38 1.283 1_655 S
O62 Mn36 2.094 . S
O62 C40 1.240 . S
O63 Mn37 2.117 1_655 S
O63 C40 1.264 . S
C64 C57 1.403 . S
C64 C65 1.399 . S
C64 H70 0.929 . S
C65 C45 1.449 . S
C65 C64 1.399 . S
C65 H71 0.930 . S
H66 C46 0.931 . S
H67 C47 0.930 . S
H68 C55 0.931 . S
H69 C56 0.929 . S
H70 C64 0.929 . S
H71 C65 0.930 . S
Mn72 O77 2.095 . S
Mn72 O87 2.162 . S
Mn72 O88 2.297 . S
Mn72 O96 2.385 . S
Mn72 O97 2.209 . S
Mn72 O98 2.094 . S
Mn73 O78 2.121 . S
Mn73 N80 2.257 . S
Mn73 N89 2.282 . S
Mn73 O97 2.215 . S
Mn73 O99 2.117 . S
C74 O96 1.234 . S
C74 O97 1.283 . S
C75 O87 1.281 . S
C75 O88 1.236 . S
C76 O98 1.240 . S
C76 O99 1.264 . S
O77 Mn72 2.095 . S
O77 C86 1.250 . S
O78 Mn73 2.121 . S
O78 C86 1.258 . S
C79 N80 1.326 . S
C79 C83 1.460 . S
C79 H85 0.929 . S
N80 Mn73 2.257 . S
N80 C79 1.326 . S
N80 C84 1.362 . S
C81 C82 1.258 . S
C81 C84 1.431 . S
C81 C101 1.449 . S
C82 C81 1.258 . S
C82 C83 1.477 . S
C82 H102 0.931 . S
C83 C79 1.460 . S
C83 C82 1.477 . S
C83 H103 0.930 . S
C84 N80 1.362 . S
C84 C81 1.431 . S
C84 C94 1.476 . S
H85 C79 0.929 . S
C86 O77 1.250 . S
C86 O78 1.258 . S
O87 Mn72 2.162 . S
O87 C75 1.281 . S
O88 Mn72 2.297 . S
O88 C75 1.236 . S
N89 Mn73 2.282 . S
N89 C90 1.328 . S
N89 C94 1.318 . S
C90 N89 1.328 . S
C90 C91 1.457 . S
C90 H95 0.929 . S
C91 C90 1.457 . S
C91 C92 1.291 . S
C91 H104 0.931 . S
C92 C91 1.291 . S
C92 C93 1.373 . S
C92 H105 0.929 . S
C93 C92 1.373 . S
C93 C94 1.396 . S
C93 C100 1.403 . S
C94 C84 1.476 . S
C94 N89 1.318 . S
C94 C93 1.396 . S
H95 C90 0.929 . S
O96 Mn72 2.385 . S
O96 C74 1.234 . S
O97 Mn72 2.209 . S
O97 Mn73 2.215 . S
O97 C74 1.283 . S
O98 Mn72 2.094 . S
O98 C76 1.240 . S
O99 Mn73 2.117 . S
O99 C76 1.264 . S
C100 C93 1.403 . S
C100 C101 1.399 . S
C100 H106 0.929 . S
C101 C81 1.449 . S
C101 C100 1.399 . S
C101 H107 0.930 . S
H102 C82 0.931 . S
H103 C83 0.930 . S
H104 C91 0.931 . S
H105 C92 0.929 . S
H106 C100 0.929 . S
H107 C101 0.930 . S
Mn108 O113 2.095 1_554 S
Mn108 O123 2.162 . S
Mn108 O124 2.297 . S
Mn108 O132 2.385 . S
Mn108 O133 2.209 . S
Mn108 O134 2.094 . S
Mn109 O114 2.121 . S
Mn109 N116 2.257 . S
Mn109 N125 2.282 1_556 S
Mn109 O133 2.215 1_556 S
Mn109 O135 2.117 . S
C110 O132 1.234 . S
C110 O133 1.283 . S
C111 O123 1.281 . S
C111 O124 1.236 . S
C112 O134 1.240 . S
C112 O135 1.264 1_554 S
O113 Mn108 2.095 1_556 S
O113 C122 1.250 . S
O114 Mn109 2.121 . S
O114 C122 1.258 . S
C115 N116 1.326 . S
C115 C119 1.460 . S
C115 H121 0.929 . S
N116 Mn109 2.257 . S
N116 C115 1.326 . S
N116 C120 1.362 . S
C117 C118 1.258 . S
C117 C120 1.431 . S
C117 C137 1.449 . S
C118 C117 1.258 . S
C118 C119 1.477 . S
C118 H138 0.931 . S
C119 C115 1.460 . S
C119 C118 1.477 . S
C119 H139 0.930 . S
C120 N116 1.362 . S
C120 C117 1.431 . S
C120 C130 1.476 . S
H121 C115 0.929 . S
C122 O113 1.250 . S
C122 O114 1.258 . S
O123 Mn108 2.162 . S
O123 C111 1.281 . S
O124 Mn108 2.297 . S
O124 C111 1.236 . S
N125 Mn109 2.282 1_554 S
N125 C126 1.328 . S
N125 C130 1.318 1_554 S
C126 N125 1.328 . S
C126 C127 1.457 . S
C126 H131 0.929 . S
C127 C126 1.457 . S
C127 C128 1.291 . S
C127 H140 0.931 . S
C128 C127 1.291 . S
C128 C129 1.373 . S
C128 H141 0.929 . S
C129 C128 1.373 . S
C129 C130 1.396 1_554 S
C129 C136 1.403 . S
C130 C120 1.476 . S
C130 N125 1.318 1_556 S
C130 C129 1.396 1_556 S
H131 C126 0.929 . S
O132 Mn108 2.385 . S
O132 C110 1.234 . S
O133 Mn108 2.209 . S
O133 Mn109 2.215 1_554 S
O133 C110 1.283 . S
O134 Mn108 2.094 . S
O134 C112 1.240 . S
O135 Mn109 2.117 . S
O135 C112 1.264 1_556 S
C136 C129 1.403 . S
C136 C137 1.399 1_554 S
C136 H142 0.929 . S
C137 C117 1.449 . S
C137 C136 1.399 1_556 S
C137 H143 0.930 . S
H138 C118 0.931 . S
H139 C119 0.930 . S
H140 C127 0.931 . S
H141 C128 0.929 . S
H142 C136 0.929 . S
H143 C137 0.930 . S
Mn144 O149 2.095 . S
Mn144 O159 2.162 . S
Mn144 O160 2.297 . S
Mn144 O168 2.385 . S
Mn144 O169 2.209 . S
Mn144 O170 2.094 . S
Mn145 O150 2.121 . S
Mn145 N152 2.257 . S
Mn145 N161 2.282 . S
Mn145 O169 2.215 . S
Mn145 O171 2.117 . S
C146 O168 1.234 . S
C146 O169 1.283 . S
C147 O159 1.281 . S
C147 O160 1.236 . S
C148 O170 1.240 . S
C148 O171 1.264 . S
O149 Mn144 2.095 . S
O149 C158 1.250 . S
O150 Mn145 2.121 . S
O150 C158 1.258 . S
C151 N152 1.326 . S
C151 C155 1.460 . S
C151 H157 0.929 . S
N152 Mn145 2.257 . S
N152 C151 1.326 . S
N152 C156 1.362 . S
C153 C154 1.258 . S
C153 C156 1.431 . S
C153 C173 1.449 . S
C154 C153 1.258 . S
C154 C155 1.477 . S
C154 H174 0.931 . S
C155 C151 1.460 . S
C155 C154 1.477 . S
C155 H175 0.930 . S
C156 N152 1.362 . S
C156 C153 1.431 . S
C156 C166 1.476 . S
H157 C151 0.929 . S
C158 O149 1.250 . S
C158 O150 1.258 . S
O159 Mn144 2.162 . S
O159 C147 1.281 . S
O160 Mn144 2.297 . S
O160 C147 1.236 . S
N161 Mn145 2.282 . S
N161 C162 1.328 . S
N161 C166 1.318 . S
C162 N161 1.328 . S
C162 C163 1.457 . S
C162 H167 0.929 . S
C163 C162 1.457 . S
C163 C164 1.291 . S
C163 H176 0.931 . S
C164 C163 1.291 . S
C164 C165 1.373 . S
C164 H177 0.929 . S
C165 C164 1.373 . S
C165 C166 1.396 . S
C165 C172 1.403 . S
C166 C156 1.476 . S
C166 N161 1.318 . S
C166 C165 1.396 . S
H167 C162 0.929 . S
O168 Mn144 2.385 . S
O168 C146 1.234 . S
O169 Mn144 2.209 . S
O169 Mn145 2.215 . S
O169 C146 1.283 . S
O170 Mn144 2.094 . S
O170 C148 1.240 . S
O171 Mn145 2.117 . S
O171 C148 1.264 . S
C172 C165 1.403 . S
C172 C173 1.399 . S
C172 H178 0.929 . S
C173 C153 1.449 . S
C173 C172 1.399 . S
C173 H179 0.930 . S
H174 C154 0.931 . S
H175 C155 0.930 . S
H176 C163 0.931 . S
H177 C164 0.929 . S
H178 C172 0.929 . S
H179 C173 0.930 . S
Mn180 O185 2.095 . S
Mn180 O195 2.162 . S
Mn180 O196 2.297 . S
Mn180 O204 2.385 . S
Mn180 O205 2.209 . S
Mn180 O206 2.094 . S
Mn181 O186 2.121 . S
Mn181 N188 2.257 . S
Mn181 N197 2.282 . S
Mn181 O205 2.215 . S
Mn181 O207 2.117 . S
C182 O204 1.234 . S
C182 O205 1.283 . S
C183 O195 1.281 . S
C183 O196 1.236 . S
C184 O206 1.240 . S
C184 O207 1.264 . S
O185 Mn180 2.095 . S
O185 C194 1.250 . S
O186 Mn181 2.121 . S
O186 C194 1.258 . S
C187 N188 1.326 . S
C187 C191 1.460 . S
C187 H193 0.929 . S
N188 Mn181 2.257 . S
N188 C187 1.326 . S
N188 C192 1.362 . S
C189 C190 1.258 . S
C189 C192 1.431 . S
C189 C209 1.449 . S
C190 C189 1.258 . S
C190 C191 1.477 . S
C190 H210 0.931 . S
C191 C187 1.460 . S
C191 C190 1.477 . S
C191 H211 0.930 . S
C192 N188 1.362 . S
C192 C189 1.431 . S
C192 C202 1.476 . S
H193 C187 0.929 . S
C194 O185 1.250 . S
C194 O186 1.258 . S
O195 Mn180 2.162 . S
O195 C183 1.281 . S
O196 Mn180 2.297 . S
O196 C183 1.236 . S
N197 Mn181 2.282 . S
N197 C198 1.328 . S
N197 C202 1.318 . S
C198 N197 1.328 . S
C198 C199 1.457 . S
C198 H203 0.929 . S
C199 C198 1.457 . S
C199 C200 1.291 . S
C199 H212 0.931 . S
C200 C199 1.291 . S
C200 C201 1.373 . S
C200 H213 0.929 . S
C201 C200 1.373 . S
C201 C202 1.396 . S
C201 C208 1.403 . S
C202 C192 1.476 . S
C202 N197 1.318 . S
C202 C201 1.396 . S
H203 C198 0.929 . S
O204 Mn180 2.385 . S
O204 C182 1.234 . S
O205 Mn180 2.209 . S
O205 Mn181 2.215 . S
O205 C182 1.283 . S
O206 Mn180 2.094 . S
O206 C184 1.240 . S
O207 Mn181 2.117 . S
O207 C184 1.264 . S
C208 C201 1.403 . S
C208 C209 1.399 . S
C208 H214 0.929 . S
C209 C189 1.449 . S
C209 C208 1.399 . S
C209 H215 0.930 . S
H210 C190 0.931 . S
H211 C191 0.930 . S
H212 C199 0.931 . S
H213 C200 0.929 . S
H214 C208 0.929 . S
H215 C209 0.930 . S
Mn216 O221 2.095 . S
Mn216 O231 2.162 . S
Mn216 O232 2.297 . S
Mn216 O240 2.385 . S
Mn216 O241 2.209 . S
Mn216 O242 2.094 . S
Mn217 O222 2.121 . S
Mn217 N224 2.257 . S
Mn217 N233 2.282 . S
Mn217 O241 2.215 . S
Mn217 O243 2.117 . S
C218 O240 1.234 . S
C218 O241 1.283 . S
C219 O231 1.281 . S
C219 O232 1.236 . S
C220 O242 1.240 . S
C220 O243 1.264 . S
O221 Mn216 2.095 . S
O221 C230 1.250 . S
O222 Mn217 2.121 . S
O222 C230 1.258 . S
C223 N224 1.326 . S
C223 C227 1.460 . S
C223 H229 0.929 . S
N224 Mn217 2.257 . S
N224 C223 1.326 . S
N224 C228 1.362 . S
C225 C226 1.258 . S
C225 C228 1.431 . S
C225 C245 1.449 . S
C226 C225 1.258 . S
C226 C227 1.477 . S
C226 H246 0.931 . S
C227 C223 1.460 . S
C227 C226 1.477 . S
C227 H247 0.930 . S
C228 N224 1.362 . S
C228 C225 1.431 . S
C228 C238 1.476 . S
H229 C223 0.929 . S
C230 O221 1.250 . S
C230 O222 1.258 . S
O231 Mn216 2.162 . S
O231 C219 1.281 . S
O232 Mn216 2.297 . S
O232 C219 1.236 . S
N233 Mn217 2.282 . S
N233 C234 1.328 . S
N233 C238 1.318 . S
C234 N233 1.328 . S
C234 C235 1.457 . S
C234 H239 0.929 . S
C235 C234 1.457 . S
C235 C236 1.291 . S
C235 H248 0.931 . S
C236 C235 1.291 . S
C236 C237 1.373 . S
C236 H249 0.929 . S
C237 C236 1.373 . S
C237 C238 1.396 . S
C237 C244 1.403 . S
C238 C228 1.476 . S
C238 N233 1.318 . S
C238 C237 1.396 . S
H239 C234 0.929 . S
O240 Mn216 2.385 . S
O240 C218 1.234 . S
O241 Mn216 2.209 . S
O241 Mn217 2.215 . S
O241 C218 1.283 . S
O242 Mn216 2.094 . S
O242 C220 1.240 . S
O243 Mn217 2.117 . S
O243 C220 1.264 . S
C244 C237 1.403 . S
C244 C245 1.399 . S
C244 H250 0.929 . S
C245 C225 1.449 . S
C245 C244 1.399 . S
C245 H251 0.930 . S
H246 C226 0.931 . S
H247 C227 0.930 . S
H248 C235 0.931 . S
H249 C236 0.929 . S
H250 C244 0.929 . S
H251 C245 0.930 . S
Mn252 O257 2.095 1_556 S
Mn252 O267 2.162 . S
Mn252 O268 2.297 . S
Mn252 O276 2.385 . S
Mn252 O277 2.209 . S
Mn252 O278 2.094 . S
Mn253 O258 2.121 1_455 S
Mn253 N260 2.257 . S
Mn253 N269 2.282 1_554 S
Mn253 O277 2.215 1_454 S
Mn253 O279 2.117 1_455 S
C254 O276 1.234 1_455 S
C254 O277 1.283 1_455 S
C255 O267 1.281 . S
C255 O268 1.236 . S
C256 O278 1.240 . S
C256 O279 1.264 1_556 S
O257 Mn252 2.095 1_554 S
O257 C266 1.250 . S
O258 Mn253 2.121 1_655 S
O258 C266 1.258 . S
C259 N260 1.326 . S
C259 C263 1.460 . S
C259 H265 0.929 . S
N260 Mn253 2.257 . S
N260 C259 1.326 . S
N260 C264 1.362 . S
C261 C262 1.258 . S
C261 C264 1.431 . S
C261 C281 1.449 . S
C262 C261 1.258 . S
C262 C263 1.477 . S
C262 H282 0.931 . S
C263 C259 1.460 . S
C263 C262 1.477 . S
C263 H283 0.930 . S
C264 N260 1.362 . S
C264 C261 1.431 . S
C264 C274 1.476 . S
H265 C259 0.929 . S
C266 O257 1.250 . S
C266 O258 1.258 . S
O267 Mn252 2.162 . S
O267 C255 1.281 . S
O268 Mn252 2.297 . S
O268 C255 1.236 . S
N269 Mn253 2.282 1_556 S
N269 C270 1.328 . S
N269 C274 1.318 1_556 S
C270 N269 1.328 . S
C270 C271 1.457 . S
C270 H275 0.929 . S
C271 C270 1.457 . S
C271 C272 1.291 . S
C271 H284 0.931 . S
C272 C271 1.291 . S
C272 C273 1.373 . S
C272 H285 0.929 . S
C273 C272 1.373 . S
C273 C274 1.396 1_556 S
C273 C280 1.403 . S
C274 C264 1.476 . S
C274 N269 1.318 1_554 S
C274 C273 1.396 1_554 S
H275 C270 0.929 . S
O276 Mn252 2.385 . S
O276 C254 1.234 1_655 S
O277 Mn252 2.209 . S
O277 Mn253 2.215 1_656 S
O277 C254 1.283 1_655 S
O278 Mn252 2.094 . S
O278 C256 1.240 . S
O279 Mn253 2.117 1_655 S
O279 C256 1.264 1_554 S
C280 C273 1.403 . S
C280 C281 1.399 1_556 S
C280 H286 0.929 . S
C281 C261 1.449 . S
C281 C280 1.399 1_554 S
C281 H287 0.930 . S
H282 C262 0.931 . S
H283 C263 0.930 . S
H284 C271 0.931 . S
H285 C272 0.929 . S
H286 C280 0.929 . S
H287 C281 0.930 . S
Mn288 O293 2.095 . S
Mn288 O303 2.162 . S
Mn288 O304 2.297 . S
Mn288 O312 2.385 . S
Mn288 O313 2.209 . S
Mn288 O314 2.094 . S
Mn289 O294 2.121 . S
Mn289 N296 2.257 . S
Mn289 N305 2.282 . S
Mn289 O313 2.215 . S
Mn289 O315 2.117 . S
C290 O312 1.234 . S
C290 O313 1.283 . S
C291 O303 1.281 . S
C291 O304 1.236 . S
C292 O314 1.240 . S
C292 O315 1.264 . S
O293 Mn288 2.095 . S
O293 C302 1.250 . S
O294 Mn289 2.121 . S
O294 C302 1.258 . S
C295 N296 1.326 . S
C295 C299 1.460 . S
C295 H301 0.929 . S
N296 Mn289 2.257 . S
N296 C295 1.326 . S
N296 C300 1.362 . S
C297 C298 1.258 . S
C297 C300 1.431 . S
C297 C317 1.449 . S
C298 C297 1.258 . S
C298 C299 1.477 . S
C298 H318 0.931 . S
C299 C295 1.460 . S
C299 C298 1.477 . S
C299 H319 0.930 . S
C300 N296 1.362 . S
C300 C297 1.431 . S
C300 C310 1.476 . S
H301 C295 0.929 . S
C302 O293 1.250 . S
C302 O294 1.258 . S
O303 Mn288 2.162 . S
O303 C291 1.281 . S
O304 Mn288 2.297 . S
O304 C291 1.236 . S
N305 Mn289 2.282 . S
N305 C306 1.328 . S
N305 C310 1.318 . S
C306 N305 1.328 . S
C306 C307 1.457 . S
C306 H311 0.929 . S
C307 C306 1.457 . S
C307 C308 1.291 . S
C307 H320 0.931 . S
C308 C307 1.291 . S
C308 C309 1.373 . S
C308 H321 0.929 . S
C309 C308 1.373 . S
C309 C310 1.396 . S
C309 C316 1.403 . S
C310 C300 1.476 . S
C310 N305 1.318 . S
C310 C309 1.396 . S
H311 C306 0.929 . S
O312 Mn288 2.385 . S
O312 C290 1.234 . S
O313 Mn288 2.209 . S
O313 Mn289 2.215 . S
O313 C290 1.283 . S
O314 Mn288 2.094 . S
O314 C292 1.240 . S
O315 Mn289 2.117 . S
O315 C292 1.264 . S
C316 C309 1.403 . S
C316 C317 1.399 . S
C316 H322 0.929 . S
C317 C297 1.449 . S
C317 C316 1.399 . S
C317 H323 0.930 . S
H318 C298 0.931 . S
H319 C299 0.930 . S
H320 C307 0.931 . S
H321 C308 0.929 . S
H322 C316 0.929 . S
H323 C317 0.930 . S
Mn324 O329 2.095 . S
Mn324 O339 2.162 . S
Mn324 O340 2.297 . S
Mn324 O348 2.385 . S
Mn324 O349 2.209 . S
Mn324 O350 2.094 . S
Mn325 O330 2.107 1_655 S
Mn325 N332 2.271 . S
Mn325 N341 2.299 . S
Mn325 O349 2.209 1_655 S
Mn325 O351 2.109 1_655 S
C326 O348 1.234 . S
C326 O349 1.283 . S
C327 O339 1.281 . S
C327 O340 1.236 . S
C328 O350 1.240 . S
C328 O351 1.264 . S
O329 Mn324 2.095 . S
O329 C338 1.250 . S
O330 Mn325 2.107 1_455 S
O330 C338 1.258 . S
C331 N332 1.326 . S
C331 C335 1.460 . S
C331 H337 0.929 . S
N332 Mn325 2.271 . S
N332 C331 1.326 . S
N332 C336 1.362 . S
C333 C334 1.258 . S
C333 C336 1.431 . S
C333 C353 1.449 . S
C334 C333 1.258 . S
C334 C335 1.477 . S
C334 H354 0.931 . S
C335 C331 1.460 . S
C335 C334 1.477 . S
C335 H355 0.930 . S
C336 N332 1.362 . S
C336 C333 1.431 . S
C336 C346 1.476 . S
H337 C331 0.929 . S
C338 O329 1.250 . S
C338 O330 1.258 . S
O339 Mn324 2.162 . S
O339 C327 1.281 . S
O340 Mn324 2.297 . S
O340 C327 1.236 . S
N341 Mn325 2.299 . S
N341 C342 1.328 . S
N341 C346 1.318 . S
C342 N341 1.328 . S
C342 C343 1.457 . S
C342 H347 0.929 . S
C343 C342 1.457 . S
C343 C344 1.291 . S
C343 H356 0.931 . S
C344 C343 1.291 . S
C344 C345 1.373 . S
C344 H357 0.929 . S
C345 C344 1.373 . S
C345 C346 1.396 . S
C345 C352 1.403 . S
C346 C336 1.476 . S
C346 N341 1.318 . S
C346 C345 1.396 . S
H347 C342 0.929 . S
O348 Mn324 2.385 . S
O348 C326 1.234 . S
O349 Mn324 2.209 . S
O349 Mn325 2.209 1_455 S
O349 C326 1.283 . S
O350 Mn324 2.094 . S
O350 C328 1.240 . S
O351 Mn325 2.109 1_455 S
O351 C328 1.264 . S
C352 C345 1.403 . S
C352 C353 1.399 . S
C352 H358 0.929 . S
C353 C333 1.449 . S
C353 C352 1.399 . S
C353 H359 0.930 . S
H354 C334 0.931 . S
H355 C335 0.930 . S
H356 C343 0.931 . S
H357 C344 0.929 . S
H358 C352 0.929 . S
H359 C353 0.930 . S
Mn360 O365 2.095 . S
Mn360 O375 2.162 . S
Mn360 O376 2.297 . S
Mn360 O384 2.385 . S
Mn360 O385 2.209 . S
Mn360 O386 2.094 . S
Mn361 O366 2.121 . S
Mn361 N368 2.257 . S
Mn361 N377 2.282 . S
Mn361 O385 2.215 . S
Mn361 O387 2.117 . S
C362 O384 1.234 . S
C362 O385 1.283 . S
C363 O375 1.281 . S
C363 O376 1.236 . S
C364 O386 1.240 . S
C364 O387 1.264 . S
O365 Mn360 2.095 . S
O365 C374 1.250 . S
O366 Mn361 2.121 . S
O366 C374 1.258 . S
C367 N368 1.326 . S
C367 C371 1.460 . S
C367 H373 0.929 . S
N368 Mn361 2.257 . S
N368 C367 1.326 . S
N368 C372 1.362 . S
C369 C370 1.258 . S
C369 C372 1.431 . S
C369 C389 1.449 . S
C370 C369 1.258 . S
C370 C371 1.477 . S
C370 H390 0.931 . S
C371 C367 1.460 . S
C371 C370 1.477 . S
C371 H391 0.930 . S
C372 N368 1.362 . S
C372 C369 1.431 . S
C372 C382 1.476 . S
H373 C367 0.929 . S
C374 O365 1.250 . S
C374 O366 1.258 . S
O375 Mn360 2.162 . S
O375 C363 1.281 . S
O376 Mn360 2.297 . S
O376 C363 1.236 . S
N377 Mn361 2.282 . S
N377 C378 1.328 . S
N377 C382 1.318 . S
C378 N377 1.328 . S
C378 C379 1.457 . S
C378 H383 0.929 . S
C379 C378 1.457 . S
C379 C380 1.291 . S
C379 H392 0.931 . S
C380 C379 1.291 . S
C380 C381 1.373 . S
C380 H393 0.929 . S
C381 C380 1.373 . S
C381 C382 1.396 . S
C381 C388 1.403 . S
C382 C372 1.476 . S
C382 N377 1.318 . S
C382 C381 1.396 . S
H383 C378 0.929 . S
O384 Mn360 2.385 . S
O384 C362 1.234 . S
O385 Mn360 2.209 . S
O385 Mn361 2.215 . S
O385 C362 1.283 . S
O386 Mn360 2.094 . S
O386 C364 1.240 . S
O387 Mn361 2.117 . S
O387 C364 1.264 . S
C388 C381 1.403 . S
C388 C389 1.399 . S
C388 H394 0.929 . S
C389 C369 1.449 . S
C389 C388 1.399 . S
C389 H395 0.930 . S
H390 C370 0.931 . S
H391 C371 0.930 . S
H392 C379 0.931 . S
H393 C380 0.929 . S
H394 C388 0.929 . S
H395 C389 0.930 . S
Mn396 O401 2.095 1_556 S
Mn396 O411 2.162 . S
Mn396 O412 2.297 . S
Mn396 O420 2.385 . S
Mn396 O421 2.209 . S
Mn396 O422 2.094 . S
Mn397 O402 2.121 . S
Mn397 N404 2.257 . S
Mn397 N413 2.282 1_554 S
Mn397 O421 2.215 1_554 S
Mn397 O423 2.117 1_554 S
C398 O420 1.234 . S
C398 O421 1.283 . S
C399 O411 1.281 . S
C399 O412 1.236 . S
C400 O422 1.240 . S
C400 O423 1.264 . S
O401 Mn396 2.095 1_554 S
O401 C410 1.250 . S
O402 Mn397 2.121 . S
O402 C410 1.258 . S
C403 N404 1.326 . S
C403 C407 1.460 . S
C403 H409 0.929 . S
N404 Mn397 2.257 . S
N404 C403 1.326 . S
N404 C408 1.362 . S
C405 C406 1.258 . S
C405 C408 1.431 . S
C405 C425 1.449 . S
C406 C405 1.258 . S
C406 C407 1.477 . S
C406 H426 0.931 . S
C407 C403 1.460 . S
C407 C406 1.477 . S
C407 H427 0.930 . S
C408 N404 1.362 . S
C408 C405 1.431 . S
C408 C418 1.476 1_554 S
H409 C403 0.929 . S
C410 O401 1.250 . S
C410 O402 1.258 . S
O411 Mn396 2.162 . S
O411 C399 1.281 . S
O412 Mn396 2.297 . S
O412 C399 1.236 . S
N413 Mn397 2.282 1_556 S
N413 C414 1.328 . S
N413 C418 1.318 . S
C414 N413 1.328 . S
C414 C415 1.457 . S
C414 H419 0.929 . S
C415 C414 1.457 . S
C415 C416 1.291 . S
C415 H428 0.931 . S
C416 C415 1.291 . S
C416 C417 1.373 . S
C416 H429 0.929 . S
C417 C416 1.373 . S
C417 C418 1.396 . S
C417 C424 1.403 . S
C418 C408 1.476 1_556 S
C418 N413 1.318 . S
C418 C417 1.396 . S
H419 C414 0.929 . S
O420 Mn396 2.385 . S
O420 C398 1.234 . S
O421 Mn396 2.209 . S
O421 Mn397 2.215 1_556 S
O421 C398 1.283 . S
O422 Mn396 2.094 . S
O422 C400 1.240 . S
O423 Mn397 2.117 1_556 S
O423 C400 1.264 . S
C424 C417 1.403 . S
C424 C425 1.399 1_556 S
C424 H430 0.929 . S
C425 C405 1.449 . S
C425 C424 1.399 1_554 S
C425 H431 0.930 . S
H426 C406 0.931 . S
H427 C407 0.930 . S
H428 C415 0.931 . S
H429 C416 0.929 . S
H430 C424 0.929 . S
H431 C425 0.930 . S
Mn432 O437 2.095 . S
Mn432 O447 2.162 . S
Mn432 O448 2.297 . S
Mn432 O456 2.385 . S
Mn432 O457 2.209 . S
Mn432 O458 2.094 . S
Mn433 O438 2.121 . S
Mn433 N440 2.257 . S
Mn433 N449 2.282 . S
Mn433 O457 2.215 . S
Mn433 O459 2.117 . S
C434 O456 1.234 . S
C434 O457 1.283 . S
C435 O447 1.281 . S
C435 O448 1.236 . S
C436 O458 1.240 . S
C436 O459 1.264 . S
O437 Mn432 2.095 . S
O437 C446 1.250 . S
O438 Mn433 2.121 . S
O438 C446 1.258 . S
C439 N440 1.326 . S
C439 C443 1.460 . S
C439 H445 0.929 . S
N440 Mn433 2.257 . S
N440 C439 1.326 . S
N440 C444 1.362 . S
C441 C442 1.258 . S
C441 C444 1.431 . S
C441 C461 1.449 . S
C442 C441 1.258 . S
C442 C443 1.477 . S
C442 H462 0.931 . S
C443 C439 1.460 . S
C443 C442 1.477 . S
C443 H463 0.930 . S
C444 N440 1.362 . S
C444 C441 1.431 . S
C444 C454 1.476 . S
H445 C439 0.929 . S
C446 O437 1.250 . S
C446 O438 1.258 . S
O447 Mn432 2.162 . S
O447 C435 1.281 . S
O448 Mn432 2.297 . S
O448 C435 1.236 . S
N449 Mn433 2.282 . S
N449 C450 1.328 . S
N449 C454 1.318 . S
C450 N449 1.328 . S
C450 C451 1.457 . S
C450 H455 0.929 . S
C451 C450 1.457 . S
C451 C452 1.291 . S
C451 H464 0.931 . S
C452 C451 1.291 . S
C452 C453 1.373 . S
C452 H465 0.929 . S
C453 C452 1.373 . S
C453 C454 1.396 . S
C453 C460 1.403 . S
C454 C444 1.476 . S
C454 N449 1.318 . S
C454 C453 1.396 . S
H455 C450 0.929 . S
O456 Mn432 2.385 . S
O456 C434 1.234 . S
O457 Mn432 2.209 . S
O457 Mn433 2.215 . S
O457 C434 1.283 . S
O458 Mn432 2.094 . S
O458 C436 1.240 . S
O459 Mn433 2.117 . S
O459 C436 1.264 . S
C460 C453 1.403 . S
C460 C461 1.399 . S
C460 H466 0.929 . S
C461 C441 1.449 . S
C461 C460 1.399 . S
C461 H467 0.930 . S
H462 C442 0.931 . S
H463 C443 0.930 . S
H464 C451 0.931 . S
H465 C452 0.929 . S
H466 C460 0.929 . S
H467 C461 0.930 . S
Mn468 O473 2.095 . S
Mn468 O483 2.162 . S
Mn468 O484 2.297 . S
Mn468 O492 2.385 . S
Mn468 O493 2.209 . S
Mn468 O494 2.094 . S
Mn469 O474 2.121 . S
Mn469 N476 2.257 . S
Mn469 N485 2.282 . S
Mn469 O493 2.215 . S
Mn469 O495 2.117 . S
C470 O492 1.234 . S
C470 O493 1.283 . S
C471 O483 1.281 . S
C471 O484 1.236 . S
C472 O494 1.240 . S
C472 O495 1.264 . S
O473 Mn468 2.095 . S
O473 C482 1.250 . S
O474 Mn469 2.121 . S
O474 C482 1.258 . S
C475 N476 1.326 . S
C475 C479 1.460 . S
C475 H481 0.929 . S
N476 Mn469 2.257 . S
N476 C475 1.326 . S
N476 C480 1.362 . S
C477 C478 1.258 . S
C477 C480 1.431 . S
C477 C497 1.449 . S
C478 C477 1.258 . S
C478 C479 1.477 . S
C478 H498 0.931 . S
C479 C475 1.460 . S
C479 C478 1.477 . S
C479 H499 0.930 . S
C480 N476 1.362 . S
C480 C477 1.431 . S
C480 C490 1.476 . S
H481 C475 0.929 . S
C482 O473 1.250 . S
C482 O474 1.258 . S
O483 Mn468 2.162 . S
O483 C471 1.281 . S
O484 Mn468 2.297 . S
O484 C471 1.236 . S
N485 Mn469 2.282 . S
N485 C486 1.328 . S
N485 C490 1.318 . S
C486 N485 1.328 . S
C486 C487 1.457 . S
C486 H491 0.929 . S
C487 C486 1.457 . S
C487 C488 1.291 . S
C487 H500 0.931 . S
C488 C487 1.291 . S
C488 C489 1.373 . S
C488 H501 0.929 . S
C489 C488 1.373 . S
C489 C490 1.396 . S
C489 C496 1.403 . S
C490 C480 1.476 . S
C490 N485 1.318 . S
C490 C489 1.396 . S
H491 C486 0.929 . S
O492 Mn468 2.385 . S
O492 C470 1.234 . S
O493 Mn468 2.209 . S
O493 Mn469 2.215 . S
O493 C470 1.283 . S
O494 Mn468 2.094 . S
O494 C472 1.240 . S
O495 Mn469 2.117 . S
O495 C472 1.264 . S
C496 C489 1.403 . S
C496 C497 1.399 . S
C496 H502 0.929 . S
C497 C477 1.449 . S
C497 C496 1.399 . S
C497 H503 0.930 . S
H498 C478 0.931 . S
H499 C479 0.930 . S
H500 C487 0.931 . S
H501 C488 0.929 . S
H502 C496 0.929 . S
H503 C497 0.930 . S
Mn504 O509 2.095 . S
Mn504 O519 2.162 . S
Mn504 O520 2.297 . S
Mn504 O528 2.385 . S
Mn504 O529 2.209 . S
Mn504 O530 2.094 . S
Mn505 O510 2.121 . S
Mn505 N512 2.257 . S
Mn505 N521 2.282 . S
Mn505 O529 2.215 . S
Mn505 O531 2.117 . S
C506 O528 1.234 . S
C506 O529 1.283 . S
C507 O519 1.281 . S
C507 O520 1.236 . S
C508 O530 1.240 . S
C508 O531 1.264 . S
O509 Mn504 2.095 . S
O509 C518 1.250 . S
O510 Mn505 2.121 . S
O510 C518 1.258 . S
C511 N512 1.326 . S
C511 C515 1.460 . S
C511 H517 0.929 . S
N512 Mn505 2.257 . S
N512 C511 1.326 . S
N512 C516 1.362 . S
C513 C514 1.258 . S
C513 C516 1.431 . S
C513 C533 1.449 . S
C514 C513 1.258 . S
C514 C515 1.477 . S
C514 H534 0.931 . S
C515 C511 1.460 . S
C515 C514 1.477 . S
C515 H535 0.930 . S
C516 N512 1.362 . S
C516 C513 1.431 . S
C516 C526 1.476 . S
H517 C511 0.929 . S
C518 O509 1.250 . S
C518 O510 1.258 . S
O519 Mn504 2.162 . S
O519 C507 1.281 . S
O520 Mn504 2.297 . S
O520 C507 1.236 . S
N521 Mn505 2.282 . S
N521 C522 1.328 . S
N521 C526 1.318 . S
C522 N521 1.328 . S
C522 C523 1.457 . S
C522 H527 0.929 . S
C523 C522 1.457 . S
C523 C524 1.291 . S
C523 H536 0.931 . S
C524 C523 1.291 . S
C524 C525 1.373 . S
C524 H537 0.929 . S
C525 C524 1.373 . S
C525 C526 1.396 . S
C525 C532 1.403 . S
C526 C516 1.476 . S
C526 N521 1.318 . S
C526 C525 1.396 . S
H527 C522 0.929 . S
O528 Mn504 2.385 . S
O528 C506 1.234 . S
O529 Mn504 2.209 . S
O529 Mn505 2.215 . S
O529 C506 1.283 . S
O530 Mn504 2.094 . S
O530 C508 1.240 . S
O531 Mn505 2.117 . S
O531 C508 1.264 . S
C532 C525 1.403 . S
C532 C533 1.399 . S
C532 H538 0.929 . S
C533 C513 1.449 . S
C533 C532 1.399 . S
C533 H539 0.930 . S
H534 C514 0.931 . S
H535 C515 0.930 . S
H536 C523 0.931 . S
H537 C524 0.929 . S
H538 C532 0.929 . S
H539 C533 0.930 . S
Mn540 O545 2.095 1_554 S
Mn540 O555 2.162 . S
Mn540 O556 2.297 . S
Mn540 O564 2.385 . S
Mn540 O565 2.209 . S
Mn540 O566 2.094 . S
Mn541 O546 2.107 1_655 S
Mn541 N548 2.271 . S
Mn541 N557 2.299 1_556 S
Mn541 O565 2.209 1_656 S
Mn541 O567 2.109 1_656 S
C542 O564 1.234 . S
C542 O565 1.283 . S
C543 O555 1.281 . S
C543 O556 1.236 . S
C544 O566 1.240 . S
C544 O567 1.264 . S
O545 Mn540 2.095 1_556 S
O545 C554 1.250 . S
O546 Mn541 2.107 1_455 S
O546 C554 1.258 . S
C547 N548 1.326 . S
C547 C551 1.460 . S
C547 H553 0.929 . S
N548 Mn541 2.271 . S
N548 C547 1.326 . S
N548 C552 1.362 . S
C549 C550 1.258 . S
C549 C552 1.431 . S
C549 C569 1.449 . S
C550 C549 1.258 . S
C550 C551 1.477 . S
C550 H570 0.931 . S
C551 C547 1.460 . S
C551 C550 1.477 . S
C551 H571 0.930 . S
C552 N548 1.362 . S
C552 C549 1.431 . S
C552 C562 1.476 1_556 S
H553 C547 0.929 . S
C554 O545 1.250 . S
C554 O546 1.258 . S
O555 Mn540 2.162 . S
O555 C543 1.281 . S
O556 Mn540 2.297 . S
O556 C543 1.236 . S
N557 Mn541 2.299 1_554 S
N557 C558 1.328 . S
N557 C562 1.318 . S
C558 N557 1.328 . S
C558 C559 1.457 . S
C558 H563 0.929 . S
C559 C558 1.457 . S
C559 C560 1.291 . S
C559 H572 0.931 . S
C560 C559 1.291 . S
C560 C561 1.373 . S
C560 H573 0.929 . S
C561 C560 1.373 . S
C561 C562 1.396 . S
C561 C568 1.403 . S
C562 C552 1.476 1_554 S
C562 N557 1.318 . S
C562 C561 1.396 . S
H563 C558 0.929 . S
O564 Mn540 2.385 . S
O564 C542 1.234 . S
O565 Mn540 2.209 . S
O565 Mn541 2.209 1_454 S
O565 C542 1.283 . S
O566 Mn540 2.094 . S
O566 C544 1.240 . S
O567 Mn541 2.109 1_454 S
O567 C544 1.264 . S
C568 C561 1.403 . S
C568 C569 1.399 1_554 S
C568 H574 0.929 . S
C569 C549 1.449 . S
C569 C568 1.399 1_556 S
C569 H575 0.930 . S
H570 C550 0.931 . S
H571 C551 0.930 . S
H572 C559 0.931 . S
H573 C560 0.929 . S
H574 C568 0.929 . S
H575 C569 0.930 . S
Mn576 O581 2.095 . S
Mn576 O591 2.162 . S
Mn576 O592 2.297 . S
Mn576 O600 2.385 . S
Mn576 O601 2.209 . S
Mn576 O602 2.094 . S
Mn577 O582 2.121 . S
Mn577 N584 2.257 . S
Mn577 N593 2.282 . S
Mn577 O601 2.215 . S
Mn577 O603 2.117 . S
C578 O600 1.234 . S
C578 O601 1.283 . S
C579 O591 1.281 . S
C579 O592 1.236 . S
C580 O602 1.240 . S
C580 O603 1.264 . S
O581 Mn576 2.095 . S
O581 C590 1.250 . S
O582 Mn577 2.121 . S
O582 C590 1.258 . S
C583 N584 1.326 . S
C583 C587 1.460 . S
C583 H589 0.929 . S
N584 Mn577 2.257 . S
N584 C583 1.326 . S
N584 C588 1.362 . S
C585 C586 1.258 . S
C585 C588 1.431 . S
C585 C605 1.449 . S
C586 C585 1.258 . S
C586 C587 1.477 . S
C586 H606 0.931 . S
C587 C583 1.460 . S
C587 C586 1.477 . S
C587 H607 0.930 . S
C588 N584 1.362 . S
C588 C585 1.431 . S
C588 C598 1.476 . S
H589 C583 0.929 . S
C590 O581 1.250 . S
C590 O582 1.258 . S
O591 Mn576 2.162 . S
O591 C579 1.281 . S
O592 Mn576 2.297 . S
O592 C579 1.236 . S
N593 Mn577 2.282 . S
N593 C594 1.328 . S
N593 C598 1.318 . S
C594 N593 1.328 . S
C594 C595 1.457 . S
C594 H599 0.929 . S
C595 C594 1.457 . S
C595 C596 1.291 . S
C595 H608 0.931 . S
C596 C595 1.291 . S
C596 C597 1.373 . S
C596 H609 0.929 . S
C597 C596 1.373 . S
C597 C598 1.396 . S
C597 C604 1.403 . S
C598 C588 1.476 . S
C598 N593 1.318 . S
C598 C597 1.396 . S
H599 C594 0.929 . S
O600 Mn576 2.385 . S
O600 C578 1.234 . S
O601 Mn576 2.209 . S
O601 Mn577 2.215 . S
O601 C578 1.283 . S
O602 Mn576 2.094 . S
O602 C580 1.240 . S
O603 Mn577 2.117 . S
O603 C580 1.264 . S
C604 C597 1.403 . S
C604 C605 1.399 . S
C604 H610 0.929 . S
C605 C585 1.449 . S
C605 C604 1.399 . S
C605 H611 0.930 . S
H606 C586 0.931 . S
H607 C587 0.930 . S
H608 C595 0.931 . S
H609 C596 0.929 . S
H610 C604 0.929 . S
H611 C605 0.930 . S
Mn612 O617 2.095 1_554 S
Mn612 O627 2.162 . S
Mn612 O628 2.297 . S
Mn612 O636 2.385 . S
Mn612 O637 2.209 . S
Mn612 O638 2.094 . S
Mn613 O618 2.121 . S
Mn613 N620 2.257 . S
Mn613 N629 2.282 1_556 S
Mn613 O637 2.215 1_556 S
Mn613 O639 2.117 . S
C614 O636 1.234 . S
C614 O637 1.283 . S
C615 O627 1.281 . S
C615 O628 1.236 . S
C616 O638 1.240 . S
C616 O639 1.264 1_554 S
O617 Mn612 2.095 1_556 S
O617 C626 1.250 . S
O618 Mn613 2.121 . S
O618 C626 1.258 . S
C619 N620 1.326 . S
C619 C623 1.460 . S
C619 H625 0.929 . S
N620 Mn613 2.257 . S
N620 C619 1.326 . S
N620 C624 1.362 . S
C621 C622 1.258 . S
C621 C624 1.431 . S
C621 C641 1.449 . S
C622 C621 1.258 . S
C622 C623 1.477 . S
C622 H642 0.931 . S
C623 C619 1.460 . S
C623 C622 1.477 . S
C623 H643 0.930 . S
C624 N620 1.362 . S
C624 C621 1.431 . S
C624 C634 1.476 . S
H625 C619 0.929 . S
C626 O617 1.250 . S
C626 O618 1.258 . S
O627 Mn612 2.162 . S
O627 C615 1.281 . S
O628 Mn612 2.297 . S
O628 C615 1.236 . S
N629 Mn613 2.282 1_554 S
N629 C630 1.328 . S
N629 C634 1.318 1_554 S
C630 N629 1.328 . S
C630 C631 1.457 . S
C630 H635 0.929 . S
C631 C630 1.457 . S
C631 C632 1.291 . S
C631 H644 0.931 . S
C632 C631 1.291 . S
C632 C633 1.373 . S
C632 H645 0.929 . S
C633 C632 1.373 . S
C633 C634 1.396 1_554 S
C633 C640 1.403 . S
C634 C624 1.476 . S
C634 N629 1.318 1_556 S
C634 C633 1.396 1_556 S
H635 C630 0.929 . S
O636 Mn612 2.385 . S
O636 C614 1.234 . S
O637 Mn612 2.209 . S
O637 Mn613 2.215 1_554 S
O637 C614 1.283 . S
O638 Mn612 2.094 . S
O638 C616 1.240 . S
O639 Mn613 2.117 . S
O639 C616 1.264 1_556 S
C640 C633 1.403 . S
C640 C641 1.399 1_554 S
C640 H646 0.929 . S
C641 C621 1.449 . S
C641 C640 1.399 1_556 S
C641 H647 0.930 . S
H642 C622 0.931 . S
H643 C623 0.930 . S
H644 C631 0.931 . S
H645 C632 0.929 . S
H646 C640 0.929 . S
H647 C641 0.930 . S
Mn648 O653 2.095 . S
Mn648 O663 2.162 . S
Mn648 O664 2.297 . S
Mn648 O672 2.385 . S
Mn648 O673 2.209 . S
Mn648 O674 2.094 . S
Mn649 O654 2.121 . S
Mn649 N656 2.257 . S
Mn649 N665 2.282 . S
Mn649 O673 2.215 . S
Mn649 O675 2.117 . S
C650 O672 1.234 . S
C650 O673 1.283 . S
C651 O663 1.281 . S
C651 O664 1.236 . S
C652 O674 1.240 . S
C652 O675 1.264 . S
O653 Mn648 2.095 . S
O653 C662 1.250 . S
O654 Mn649 2.121 . S
O654 C662 1.258 . S
C655 N656 1.326 . S
C655 C659 1.460 . S
C655 H661 0.929 . S
N656 Mn649 2.257 . S
N656 C655 1.326 . S
N656 C660 1.362 . S
C657 C658 1.258 . S
C657 C660 1.431 . S
C657 C677 1.449 . S
C658 C657 1.258 . S
C658 C659 1.477 . S
C658 H678 0.931 . S
C659 C655 1.460 . S
C659 C658 1.477 . S
C659 H679 0.930 . S
C660 N656 1.362 . S
C660 C657 1.431 . S
C660 C670 1.476 . S
H661 C655 0.929 . S
C662 O653 1.250 . S
C662 O654 1.258 . S
O663 Mn648 2.162 . S
O663 C651 1.281 . S
O664 Mn648 2.297 . S
O664 C651 1.236 . S
N665 Mn649 2.282 . S
N665 C666 1.328 . S
N665 C670 1.318 . S
C666 N665 1.328 . S
C666 C667 1.457 . S
C666 H671 0.929 . S
C667 C666 1.457 . S
C667 C668 1.291 . S
C667 H680 0.931 . S
C668 C667 1.291 . S
C668 C669 1.373 . S
C668 H681 0.929 . S
C669 C668 1.373 . S
C669 C670 1.396 . S
C669 C676 1.403 . S
C670 C660 1.476 . S
C670 N665 1.318 . S
C670 C669 1.396 . S
H671 C666 0.929 . S
O672 Mn648 2.385 . S
O672 C650 1.234 . S
O673 Mn648 2.209 . S
O673 Mn649 2.215 . S
O673 C650 1.283 . S
O674 Mn648 2.094 . S
O674 C652 1.240 . S
O675 Mn649 2.117 . S
O675 C652 1.264 . S
C676 C669 1.403 . S
C676 C677 1.399 . S
C676 H682 0.929 . S
C677 C657 1.449 . S
C677 C676 1.399 . S
C677 H683 0.930 . S
H678 C658 0.931 . S
H679 C659 0.930 . S
H680 C667 0.931 . S
H681 C668 0.929 . S
H682 C676 0.929 . S
H683 C677 0.930 . S
Mn684 O689 2.095 . S
Mn684 O699 2.162 . S
Mn684 O700 2.297 . S
Mn684 O708 2.385 . S
Mn684 O709 2.209 . S
Mn684 O710 2.094 . S
Mn685 O690 2.121 1_655 S
Mn685 N692 2.257 . S
Mn685 N701 2.282 . S
Mn685 O709 2.215 1_655 S
Mn685 O711 2.117 1_655 S
C686 O708 1.234 1_655 S
C686 O709 1.283 1_655 S
C687 O699 1.281 . S
C687 O700 1.236 . S
C688 O710 1.240 . S
C688 O711 1.264 . S
O689 Mn684 2.095 . S
O689 C698 1.250 . S
O690 Mn685 2.121 1_455 S
O690 C698 1.258 . S
C691 N692 1.326 . S
C691 C695 1.460 . S
C691 H697 0.929 . S
N692 Mn685 2.257 . S
N692 C691 1.326 . S
N692 C696 1.362 . S
C693 C694 1.258 . S
C693 C696 1.431 . S
C693 C713 1.449 . S
C694 C693 1.258 . S
C694 C695 1.477 . S
C694 H714 0.931 . S
C695 C691 1.460 . S
C695 C694 1.477 . S
C695 H715 0.930 . S
C696 N692 1.362 . S
C696 C693 1.431 . S
C696 C706 1.476 . S
H697 C691 0.929 . S
C698 O689 1.250 . S
C698 O690 1.258 . S
O699 Mn684 2.162 . S
O699 C687 1.281 . S
O700 Mn684 2.297 . S
O700 C687 1.236 . S
N701 Mn685 2.282 . S
N701 C702 1.328 . S
N701 C706 1.318 . S
C702 N701 1.328 . S
C702 C703 1.457 . S
C702 H707 0.929 . S
C703 C702 1.457 . S
C703 C704 1.291 . S
C703 H716 0.931 . S
C704 C703 1.291 . S
C704 C705 1.373 . S
C704 H717 0.929 . S
C705 C704 1.373 . S
C705 C706 1.396 . S
C705 C712 1.403 . S
C706 C696 1.476 . S
C706 N701 1.318 . S
C706 C705 1.396 . S
H707 C702 0.929 . S
O708 Mn684 2.385 . S
O708 C686 1.234 1_455 S
O709 Mn684 2.209 . S
O709 Mn685 2.215 1_455 S
O709 C686 1.283 1_455 S
O710 Mn684 2.094 . S
O710 C688 1.240 . S
O711 Mn685 2.117 1_455 S
O711 C688 1.264 . S
C712 C705 1.403 . S
C712 C713 1.399 . S
C712 H718 0.929 . S
C713 C693 1.449 . S
C713 C712 1.399 . S
C713 H719 0.930 . S
H714 C694 0.931 . S
H715 C695 0.930 . S
H716 C703 0.931 . S
H717 C704 0.929 . S
H718 C712 0.929 . S
H719 C713 0.930 . S
Mn720 O725 2.095 . S
Mn720 O735 2.162 . S
Mn720 O736 2.297 . S
Mn720 O744 2.385 . S
Mn720 O745 2.209 . S
Mn720 O746 2.094 . S
Mn721 O726 2.121 . S
Mn721 N728 2.257 . S
Mn721 N737 2.282 . S
Mn721 O745 2.215 . S
Mn721 O747 2.117 . S
C722 O744 1.234 . S
C722 O745 1.283 . S
C723 O735 1.281 . S
C723 O736 1.236 . S
C724 O746 1.240 . S
C724 O747 1.264 . S
O725 Mn720 2.095 . S
O725 C734 1.250 . S
O726 Mn721 2.121 . S
O726 C734 1.258 . S
C727 N728 1.326 . S
C727 C731 1.460 . S
C727 H733 0.929 . S
N728 Mn721 2.257 . S
N728 C727 1.326 . S
N728 C732 1.362 . S
C729 C730 1.258 . S
C729 C732 1.431 . S
C729 C749 1.449 . S
C730 C729 1.258 . S
C730 C731 1.477 . S
C730 H750 0.931 . S
C731 C727 1.460 . S
C731 C730 1.477 . S
C731 H751 0.930 . S
C732 N728 1.362 . S
C732 C729 1.431 . S
C732 C742 1.476 . S
H733 C727 0.929 . S
C734 O725 1.250 . S
C734 O726 1.258 . S
O735 Mn720 2.162 . S
O735 C723 1.281 . S
O736 Mn720 2.297 . S
O736 C723 1.236 . S
N737 Mn721 2.282 . S
N737 C738 1.328 . S
N737 C742 1.318 . S
C738 N737 1.328 . S
C738 C739 1.457 . S
C738 H743 0.929 . S
C739 C738 1.457 . S
C739 C740 1.291 . S
C739 H752 0.931 . S
C740 C739 1.291 . S
C740 C741 1.373 . S
C740 H753 0.929 . S
C741 C740 1.373 . S
C741 C742 1.396 . S
C741 C748 1.403 . S
C742 C732 1.476 . S
C742 N737 1.318 . S
C742 C741 1.396 . S
H743 C738 0.929 . S
O744 Mn720 2.385 . S
O744 C722 1.234 . S
O745 Mn720 2.209 . S
O745 Mn721 2.215 . S
O745 C722 1.283 . S
O746 Mn720 2.094 . S
O746 C724 1.240 . S
O747 Mn721 2.117 . S
O747 C724 1.264 . S
C748 C741 1.403 . S
C748 C749 1.399 . S
C748 H754 0.929 . S
C749 C729 1.449 . S
C749 C748 1.399 . S
C749 H755 0.930 . S
H750 C730 0.931 . S
H751 C731 0.930 . S
H752 C739 0.931 . S
H753 C740 0.929 . S
H754 C748 0.929 . S
H755 C749 0.930 . S
Mn756 O761 2.095 1_556 S
Mn756 O771 2.162 . S
Mn756 O772 2.297 . S
Mn756 O780 2.385 . S
Mn756 O781 2.209 . S
Mn756 O782 2.094 . S
Mn757 O762 2.121 1_655 S
Mn757 N764 2.257 . S
Mn757 N773 2.282 1_554 S
Mn757 O781 2.215 1_654 S
Mn757 O783 2.117 1_655 S
C758 O780 1.234 1_655 S
C758 O781 1.283 1_655 S
C759 O771 1.281 . S
C759 O772 1.236 . S
C760 O782 1.240 . S
C760 O783 1.264 1_556 S
O761 Mn756 2.095 1_554 S
O761 C770 1.250 . S
O762 Mn757 2.121 1_455 S
O762 C770 1.258 . S
C763 N764 1.326 . S
C763 C767 1.460 . S
C763 H769 0.929 . S
N764 Mn757 2.257 . S
N764 C763 1.326 . S
N764 C768 1.362 . S
C765 C766 1.258 . S
C765 C768 1.431 . S
C765 C785 1.449 . S
C766 C765 1.258 . S
C766 C767 1.477 . S
C766 H786 0.931 . S
C767 C763 1.460 . S
C767 C766 1.477 . S
C767 H787 0.930 . S
C768 N764 1.362 . S
C768 C765 1.431 . S
C768 C778 1.476 . S
H769 C763 0.929 . S
C770 O761 1.250 . S
C770 O762 1.258 . S
O771 Mn756 2.162 . S
O771 C759 1.281 . S
O772 Mn756 2.297 . S
O772 C759 1.236 . S
N773 Mn757 2.282 1_556 S
N773 C774 1.328 . S
N773 C778 1.318 1_556 S
C774 N773 1.328 . S
C774 C775 1.457 . S
C774 H779 0.929 . S
C775 C774 1.457 . S
C775 C776 1.291 . S
C775 H788 0.931 . S
C776 C775 1.291 . S
C776 C777 1.373 . S
C776 H789 0.929 . S
C777 C776 1.373 . S
C777 C778 1.396 1_556 S
C777 C784 1.403 . S
C778 C768 1.476 . S
C778 N773 1.318 1_554 S
C778 C777 1.396 1_554 S
H779 C774 0.929 . S
O780 Mn756 2.385 . S
O780 C758 1.234 1_455 S
O781 Mn756 2.209 . S
O781 Mn757 2.215 1_456 S
O781 C758 1.283 1_455 S
O782 Mn756 2.094 . S
O782 C760 1.240 . S
O783 Mn757 2.117 1_455 S
O783 C760 1.264 1_554 S
C784 C777 1.403 . S
C784 C785 1.399 1_556 S
C784 H790 0.929 . S
C785 C765 1.449 . S
C785 C784 1.399 1_554 S
C785 H791 0.930 . S
H786 C766 0.931 . S
H787 C767 0.930 . S
H788 C775 0.931 . S
H789 C776 0.929 . S
H790 C784 0.929 . S
H791 C785 0.930 . S
Mn792 O797 2.095 . S
Mn792 O807 2.162 . S
Mn792 O808 2.297 . S
Mn792 O816 2.385 . S
Mn792 O817 2.209 . S
Mn792 O818 2.094 . S
Mn793 O798 2.121 . S
Mn793 N800 2.257 . S
Mn793 N809 2.282 . S
Mn793 O817 2.215 . S
Mn793 O819 2.117 . S
C794 O816 1.234 . S
C794 O817 1.283 . S
C795 O807 1.281 . S
C795 O808 1.236 . S
C796 O818 1.240 . S
C796 O819 1.264 . S
O797 Mn792 2.095 . S
O797 C806 1.250 . S
O798 Mn793 2.121 . S
O798 C806 1.258 . S
C799 N800 1.326 . S
C799 C803 1.460 . S
C799 H805 0.929 . S
N800 Mn793 2.257 . S
N800 C799 1.326 . S
N800 C804 1.362 . S
C801 C802 1.258 . S
C801 C804 1.431 . S
C801 C821 1.449 . S
C802 C801 1.258 . S
C802 C803 1.477 . S
C802 H822 0.931 . S
C803 C799 1.460 . S
C803 C802 1.477 . S
C803 H823 0.930 . S
C804 N800 1.362 . S
C804 C801 1.431 . S
C804 C814 1.476 . S
H805 C799 0.929 . S
C806 O797 1.250 . S
C806 O798 1.258 . S
O807 Mn792 2.162 . S
O807 C795 1.281 . S
O808 Mn792 2.297 . S
O808 C795 1.236 . S
N809 Mn793 2.282 . S
N809 C810 1.328 . S
N809 C814 1.318 . S
C810 N809 1.328 . S
C810 C811 1.457 . S
C810 H815 0.929 . S
C811 C810 1.457 . S
C811 C812 1.291 . S
C811 H824 0.931 . S
C812 C811 1.291 . S
C812 C813 1.373 . S
C812 H825 0.929 . S
C813 C812 1.373 . S
C813 C814 1.396 . S
C813 C820 1.403 . S
C814 C804 1.476 . S
C814 N809 1.318 . S
C814 C813 1.396 . S
H815 C810 0.929 . S
O816 Mn792 2.385 . S
O816 C794 1.234 . S
O817 Mn792 2.209 . S
O817 Mn793 2.215 . S
O817 C794 1.283 . S
O818 Mn792 2.094 . S
O818 C796 1.240 . S
O819 Mn793 2.117 . S
O819 C796 1.264 . S
C820 C813 1.403 . S
C820 C821 1.399 . S
C820 H826 0.929 . S
C821 C801 1.449 . S
C821 C820 1.399 . S
C821 H827 0.930 . S
H822 C802 0.931 . S
H823 C803 0.930 . S
H824 C811 0.931 . S
H825 C812 0.929 . S
H826 C820 0.929 . S
H827 C821 0.930 . S
Mn828 O833 2.095 . S
Mn828 O843 2.162 . S
Mn828 O844 2.297 . S
Mn828 O852 2.385 . S
Mn828 O853 2.209 . S
Mn828 O854 2.094 . S
Mn829 O834 2.121 . S
Mn829 N836 2.257 . S
Mn829 N845 2.282 . S
Mn829 O853 2.215 . S
Mn829 O855 2.117 . S
C830 O852 1.234 . S
C830 O853 1.283 . S
C831 O843 1.281 . S
C831 O844 1.236 . S
C832 O854 1.240 . S
C832 O855 1.264 . S
O833 Mn828 2.095 . S
O833 C842 1.250 . S
O834 Mn829 2.121 . S
O834 C842 1.258 . S
C835 N836 1.326 . S
C835 C839 1.460 . S
C835 H841 0.929 . S
N836 Mn829 2.257 . S
N836 C835 1.326 . S
N836 C840 1.362 . S
C837 C838 1.258 . S
C837 C840 1.431 . S
C837 C857 1.449 . S
C838 C837 1.258 . S
C838 C839 1.477 . S
C838 H858 0.931 . S
C839 C835 1.460 . S
C839 C838 1.477 . S
C839 H859 0.930 . S
C840 N836 1.362 . S
C840 C837 1.431 . S
C840 C850 1.476 . S
H841 C835 0.929 . S
C842 O833 1.250 . S
C842 O834 1.258 . S
O843 Mn828 2.162 . S
O843 C831 1.281 . S
O844 Mn828 2.297 . S
O844 C831 1.236 . S
N845 Mn829 2.282 . S
N845 C846 1.328 . S
N845 C850 1.318 . S
C846 N845 1.328 . S
C846 C847 1.457 . S
C846 H851 0.929 . S
C847 C846 1.457 . S
C847 C848 1.291 . S
C847 H860 0.931 . S
C848 C847 1.291 . S
C848 C849 1.373 . S
C848 H861 0.929 . S
C849 C848 1.373 . S
C849 C850 1.396 . S
C849 C856 1.403 . S
C850 C840 1.476 . S
C850 N845 1.318 . S
C850 C849 1.396 . S
H851 C846 0.929 . S
O852 Mn828 2.385 . S
O852 C830 1.234 . S
O853 Mn828 2.209 . S
O853 Mn829 2.215 . S
O853 C830 1.283 . S
O854 Mn828 2.094 . S
O854 C832 1.240 . S
O855 Mn829 2.117 . S
O855 C832 1.264 . S
C856 C849 1.403 . S
C856 C857 1.399 . S
C856 H862 0.929 . S
C857 C837 1.449 . S
C857 C856 1.399 . S
C857 H863 0.930 . S
H858 C838 0.931 . S
H859 C839 0.930 . S
H860 C847 0.931 . S
H861 C848 0.929 . S
H862 C856 0.929 . S
H863 C857 0.930 . S
Mn864 O869 2.095 . S
Mn864 O879 2.162 . S
Mn864 O880 2.297 . S
Mn864 O888 2.385 . S
Mn864 O889 2.209 . S
Mn864 O890 2.094 . S
Mn865 O870 2.121 . S
Mn865 N872 2.257 . S
Mn865 N881 2.282 . S
Mn865 O889 2.215 . S
Mn865 O891 2.117 . S
C866 O888 1.234 . S
C866 O889 1.283 . S
C867 O879 1.281 . S
C867 O880 1.236 . S
C868 O890 1.240 . S
C868 O891 1.264 . S
O869 Mn864 2.095 . S
O869 C878 1.250 . S
O870 Mn865 2.121 . S
O870 C878 1.258 . S
C871 N872 1.326 . S
C871 C875 1.460 . S
C871 H877 0.929 . S
N872 Mn865 2.257 . S
N872 C871 1.326 . S
N872 C876 1.362 . S
C873 C874 1.258 . S
C873 C876 1.431 . S
C873 C893 1.449 . S
C874 C873 1.258 . S
C874 C875 1.477 . S
C874 H894 0.931 . S
C875 C871 1.460 . S
C875 C874 1.477 . S
C875 H895 0.930 . S
C876 N872 1.362 . S
C876 C873 1.431 . S
C876 C886 1.476 . S
H877 C871 0.929 . S
C878 O869 1.250 . S
C878 O870 1.258 . S
O879 Mn864 2.162 . S
O879 C867 1.281 . S
O880 Mn864 2.297 . S
O880 C867 1.236 . S
N881 Mn865 2.282 . S
N881 C882 1.328 . S
N881 C886 1.318 . S
C882 N881 1.328 . S
C882 C883 1.457 . S
C882 H887 0.929 . S
C883 C882 1.457 . S
C883 C884 1.291 . S
C883 H896 0.931 . S
C884 C883 1.291 . S
C884 C885 1.373 . S
C884 H897 0.929 . S
C885 C884 1.373 . S
C885 C886 1.396 . S
C885 C892 1.403 . S
C886 C876 1.476 . S
C886 N881 1.318 . S
C886 C885 1.396 . S
H887 C882 0.929 . S
O888 Mn864 2.385 . S
O888 C866 1.234 . S
O889 Mn864 2.209 . S
O889 Mn865 2.215 . S
O889 C866 1.283 . S
O890 Mn864 2.094 . S
O890 C868 1.240 . S
O891 Mn865 2.117 . S
O891 C868 1.264 . S
C892 C885 1.403 . S
C892 C893 1.399 . S
C892 H898 0.929 . S
C893 C873 1.449 . S
C893 C892 1.399 . S
C893 H899 0.930 . S
H894 C874 0.931 . S
H895 C875 0.930 . S
H896 C883 0.931 . S
H897 C884 0.929 . S
H898 C892 0.929 . S
H899 C893 0.930 . S
Mn900 O905 2.095 1_556 S
Mn900 O915 2.162 . S
Mn900 O916 2.297 . S
Mn900 O924 2.385 . S
Mn900 O925 2.209 . S
Mn900 O926 2.094 . S
Mn901 O906 2.121 . S
Mn901 N908 2.257 . S
Mn901 N917 2.282 1_554 S
Mn901 O925 2.215 1_554 S
Mn901 O927 2.117 1_554 S
C902 O924 1.234 . S
C902 O925 1.283 . S
C903 O915 1.281 . S
C903 O916 1.236 . S
C904 O926 1.240 . S
C904 O927 1.264 . S
O905 Mn900 2.095 1_554 S
O905 C914 1.250 . S
O906 Mn901 2.121 . S
O906 C914 1.258 . S
C907 N908 1.326 . S
C907 C911 1.460 . S
C907 H913 0.929 . S
N908 Mn901 2.257 . S
N908 C907 1.326 . S
N908 C912 1.362 . S
C909 C910 1.258 . S
C909 C912 1.431 . S
C909 C929 1.449 . S
C910 C909 1.258 . S
C910 C911 1.477 . S
C910 H930 0.931 . S
C911 C907 1.460 . S
C911 C910 1.477 . S
C911 H931 0.930 . S
C912 N908 1.362 . S
C912 C909 1.431 . S
C912 C922 1.476 1_554 S
H913 C907 0.929 . S
C914 O905 1.250 . S
C914 O906 1.258 . S
O915 Mn900 2.162 . S
O915 C903 1.281 . S
O916 Mn900 2.297 . S
O916 C903 1.236 . S
N917 Mn901 2.282 1_556 S
N917 C918 1.328 . S
N917 C922 1.318 . S
C918 N917 1.328 . S
C918 C919 1.457 . S
C918 H923 0.929 . S
C919 C918 1.457 . S
C919 C920 1.291 . S
C919 H932 0.931 . S
C920 C919 1.291 . S
C920 C921 1.373 . S
C920 H933 0.929 . S
C921 C920 1.373 . S
C921 C922 1.396 . S
C921 C928 1.403 . S
C922 C912 1.476 1_556 S
C922 N917 1.318 . S
C922 C921 1.396 . S
H923 C918 0.929 . S
O924 Mn900 2.385 . S
O924 C902 1.234 . S
O925 Mn900 2.209 . S
O925 Mn901 2.215 1_556 S
O925 C902 1.283 . S
O926 Mn900 2.094 . S
O926 C904 1.240 . S
O927 Mn901 2.117 1_556 S
O927 C904 1.264 . S
C928 C921 1.403 . S
C928 C929 1.399 1_556 S
C928 H934 0.929 . S
C929 C909 1.449 . S
C929 C928 1.399 1_554 S
C929 H935 0.930 . S
H930 C910 0.931 . S
H931 C911 0.930 . S
H932 C919 0.931 . S
H933 C920 0.929 . S
H934 C928 0.929 . S
H935 C929 0.930 . S
Mn936 O941 2.095 . S
Mn936 O951 2.162 . S
Mn936 O952 2.297 . S
Mn936 O960 2.385 . S
Mn936 O961 2.209 . S
Mn936 O962 2.094 . S
Mn937 O942 2.121 . S
Mn937 N944 2.257 . S
Mn937 N953 2.282 . S
Mn937 O961 2.215 . S
Mn937 O963 2.117 . S
C938 O960 1.234 . S
C938 O961 1.283 . S
C939 O951 1.281 . S
C939 O952 1.236 . S
C940 O962 1.240 . S
C940 O963 1.264 . S
O941 Mn936 2.095 . S
O941 C950 1.250 . S
O942 Mn937 2.121 . S
O942 C950 1.258 . S
C943 N944 1.326 . S
C943 C947 1.460 . S
C943 H949 0.929 . S
N944 Mn937 2.257 . S
N944 C943 1.326 . S
N944 C948 1.362 . S
C945 C946 1.258 . S
C945 C948 1.431 . S
C945 C965 1.449 . S
C946 C945 1.258 . S
C946 C947 1.477 . S
C946 H966 0.931 . S
C947 C943 1.460 . S
C947 C946 1.477 . S
C947 H967 0.930 . S
C948 N944 1.362 . S
C948 C945 1.431 . S
C948 C958 1.476 . S
H949 C943 0.929 . S
C950 O941 1.250 . S
C950 O942 1.258 . S
O951 Mn936 2.162 . S
O951 C939 1.281 . S
O952 Mn936 2.297 . S
O952 C939 1.236 . S
N953 Mn937 2.282 . S
N953 C954 1.328 . S
N953 C958 1.318 . S
C954 N953 1.328 . S
C954 C955 1.457 . S
C954 H959 0.929 . S
C955 C954 1.457 . S
C955 C956 1.291 . S
C955 H968 0.931 . S
C956 C955 1.291 . S
C956 C957 1.373 . S
C956 H969 0.929 . S
C957 C956 1.373 . S
C957 C958 1.396 . S
C957 C964 1.403 . S
C958 C948 1.476 . S
C958 N953 1.318 . S
C958 C957 1.396 . S
H959 C954 0.929 . S
O960 Mn936 2.385 . S
O960 C938 1.234 . S
O961 Mn936 2.209 . S
O961 Mn937 2.215 . S
O961 C938 1.283 . S
O962 Mn936 2.094 . S
O962 C940 1.240 . S
O963 Mn937 2.117 . S
O963 C940 1.264 . S
C964 C957 1.403 . S
C964 C965 1.399 . S
C964 H970 0.929 . S
C965 C945 1.449 . S
C965 C964 1.399 . S
C965 H971 0.930 . S
H966 C946 0.931 . S
H967 C947 0.930 . S
H968 C955 0.931 . S
H969 C956 0.929 . S
H970 C964 0.929 . S
H971 C965 0.930 . S
Mn972 O977 2.095 . S
Mn972 O987 2.162 . S
Mn972 O988 2.297 . S
Mn972 O996 2.385 . S
Mn972 O997 2.209 . S
Mn972 O998 2.094 . S
Mn973 O978 2.107 1_455 S
Mn973 N980 2.271 . S
Mn973 N989 2.299 . S
Mn973 O997 2.209 1_455 S
Mn973 O999 2.109 1_455 S
C974 O996 1.234 . S
C974 O997 1.283 . S
C975 O987 1.281 . S
C975 O988 1.236 . S
C976 O998 1.240 . S
C976 O999 1.264 . S
O977 Mn972 2.095 . S
O977 C986 1.250 . S
O978 Mn973 2.107 1_655 S
O978 C986 1.258 . S
C979 N980 1.326 . S
C979 C983 1.460 . S
C979 H985 0.929 . S
N980 Mn973 2.271 . S
N980 C979 1.326 . S
N980 C984 1.362 . S
C981 C982 1.258 . S
C981 C984 1.431 . S
C981 C1001 1.449 . S
C982 C981 1.258 . S
C982 C983 1.477 . S
C982 H1002 0.931 . S
C983 C979 1.460 . S
C983 C982 1.477 . S
C983 H1003 0.930 . S
C984 N980 1.362 . S
C984 C981 1.431 . S
C984 C994 1.476 . S
H985 C979 0.929 . S
C986 O977 1.250 . S
C986 O978 1.258 . S
O987 Mn972 2.162 . S
O987 C975 1.281 . S
O988 Mn972 2.297 . S
O988 C975 1.236 . S
N989 Mn973 2.299 . S
N989 C990 1.328 . S
N989 C994 1.318 . S
C990 N989 1.328 . S
C990 C991 1.457 . S
C990 H995 0.929 . S
C991 C990 1.457 . S
C991 C992 1.291 . S
C991 H1004 0.931 . S
C992 C991 1.291 . S
C992 C993 1.373 . S
C992 H1005 0.929 . S
C993 C992 1.373 . S
C993 C994 1.396 . S
C993 C1000 1.403 . S
C994 C984 1.476 . S
C994 N989 1.318 . S
C994 C993 1.396 . S
H995 C990 0.929 . S
O996 Mn972 2.385 . S
O996 C974 1.234 . S
O997 Mn972 2.209 . S
O997 Mn973 2.209 1_655 S
O997 C974 1.283 . S
O998 Mn972 2.094 . S
O998 C976 1.240 . S
O999 Mn973 2.109 1_655 S
O999 C976 1.264 . S
C1000 C993 1.403 . S
C1000 C1001 1.399 . S
C1000 H1006 0.929 . S
C1001 C981 1.449 . S
C1001 C1000 1.399 . S
C1001 H1007 0.930 . S
H1002 C982 0.931 . S
H1003 C983 0.930 . S
H1004 C991 0.931 . S
H1005 C992 0.929 . S
H1006 C1000 0.929 . S
H1007 C1001 0.930 . S
Mn1008 O1013 2.095 . S
Mn1008 O1023 2.162 . S
Mn1008 O1024 2.297 . S
Mn1008 O1032 2.385 . S
Mn1008 O1033 2.209 . S
Mn1008 O1034 2.094 . S
Mn1009 O1014 2.121 . S
Mn1009 N1016 2.257 . S
Mn1009 N1025 2.282 . S
Mn1009 O1033 2.215 . S
Mn1009 O1035 2.117 . S
C1010 O1032 1.234 . S
C1010 O1033 1.283 . S
C1011 O1023 1.281 . S
C1011 O1024 1.236 . S
C1012 O1034 1.240 . S
C1012 O1035 1.264 . S
O1013 Mn1008 2.095 . S
O1013 C1022 1.250 . S
O1014 Mn1009 2.121 . S
O1014 C1022 1.258 . S
C1015 N1016 1.326 . S
C1015 C1019 1.460 . S
C1015 H1021 0.929 . S
N1016 Mn1009 2.257 . S
N1016 C1015 1.326 . S
N1016 C1020 1.362 . S
C1017 C1018 1.258 . S
C1017 C1020 1.431 . S
C1017 C1037 1.449 . S
C1018 C1017 1.258 . S
C1018 C1019 1.477 . S
C1018 H1038 0.931 . S
C1019 C1015 1.460 . S
C1019 C1018 1.477 . S
C1019 H1039 0.930 . S
C1020 N1016 1.362 . S
C1020 C1017 1.431 . S
C1020 C1030 1.476 . S
H1021 C1015 0.929 . S
C1022 O1013 1.250 . S
C1022 O1014 1.258 . S
O1023 Mn1008 2.162 . S
O1023 C1011 1.281 . S
O1024 Mn1008 2.297 . S
O1024 C1011 1.236 . S
N1025 Mn1009 2.282 . S
N1025 C1026 1.328 . S
N1025 C1030 1.318 . S
C1026 N1025 1.328 . S
C1026 C1027 1.457 . S
C1026 H1031 0.929 . S
C1027 C1026 1.457 . S
C1027 C1028 1.291 . S
C1027 H1040 0.931 . S
C1028 C1027 1.291 . S
C1028 C1029 1.373 . S
C1028 H1041 0.929 . S
C1029 C1028 1.373 . S
C1029 C1030 1.396 . S
C1029 C1036 1.403 . S
C1030 C1020 1.476 . S
C1030 N1025 1.318 . S
C1030 C1029 1.396 . S
H1031 C1026 0.929 . S
O1032 Mn1008 2.385 . S
O1032 C1010 1.234 . S
O1033 Mn1008 2.209 . S
O1033 Mn1009 2.215 . S
O1033 C1010 1.283 . S
O1034 Mn1008 2.094 . S
O1034 C1012 1.240 . S
O1035 Mn1009 2.117 . S
O1035 C1012 1.264 . S
C1036 C1029 1.403 . S
C1036 C1037 1.399 . S
C1036 H1042 0.929 . S
C1037 C1017 1.449 . S
C1037 C1036 1.399 . S
C1037 H1043 0.930 . S
H1038 C1018 0.931 . S
H1039 C1019 0.930 . S
H1040 C1027 0.931 . S
H1041 C1028 0.929 . S
H1042 C1036 0.929 . S
H1043 C1037 0.930 . S
Mn1044 O1049 2.095 1_554 S
Mn1044 O1059 2.162 . S
Mn1044 O1060 2.297 . S
Mn1044 O1068 2.385 . S
Mn1044 O1069 2.209 . S
Mn1044 O1070 2.094 . S
Mn1045 O1050 2.107 1_455 S
Mn1045 N1052 2.271 . S
Mn1045 N1061 2.299 1_556 S
Mn1045 O1069 2.209 1_456 S
Mn1045 O1071 2.109 1_456 S
C1046 O1068 1.234 . S
C1046 O1069 1.283 . S
C1047 O1059 1.281 . S
C1047 O1060 1.236 . S
C1048 O1070 1.240 . S
C1048 O1071 1.264 . S
O1049 Mn1044 2.095 1_556 S
O1049 C1058 1.250 . S
O1050 Mn1045 2.107 1_655 S
O1050 C1058 1.258 . S
C1051 N1052 1.326 . S
C1051 C1055 1.460 . S
C1051 H1057 0.929 . S
N1052 Mn1045 2.271 . S
N1052 C1051 1.326 . S
N1052 C1056 1.362 . S
C1053 C1054 1.258 . S
C1053 C1056 1.431 . S
C1053 C1073 1.449 . S
C1054 C1053 1.258 . S
C1054 C1055 1.477 . S
C1054 H1074 0.931 . S
C1055 C1051 1.460 . S
C1055 C1054 1.477 . S
C1055 H1075 0.930 . S
C1056 N1052 1.362 . S
C1056 C1053 1.431 . S
C1056 C1066 1.476 1_556 S
H1057 C1051 0.929 . S
C1058 O1049 1.250 . S
C1058 O1050 1.258 . S
O1059 Mn1044 2.162 . S
O1059 C1047 1.281 . S
O1060 Mn1044 2.297 . S
O1060 C1047 1.236 . S
N1061 Mn1045 2.299 1_554 S
N1061 C1062 1.328 . S
N1061 C1066 1.318 . S
C1062 N1061 1.328 . S
C1062 C1063 1.457 . S
C1062 H1067 0.929 . S
C1063 C1062 1.457 . S
C1063 C1064 1.291 . S
C1063 H1076 0.931 . S
C1064 C1063 1.291 . S
C1064 C1065 1.373 . S
C1064 H1077 0.929 . S
C1065 C1064 1.373 . S
C1065 C1066 1.396 . S
C1065 C1072 1.403 . S
C1066 C1056 1.476 1_554 S
C1066 N1061 1.318 . S
C1066 C1065 1.396 . S
H1067 C1062 0.929 . S
O1068 Mn1044 2.385 . S
O1068 C1046 1.234 . S
O1069 Mn1044 2.209 . S
O1069 Mn1045 2.209 1_654 S
O1069 C1046 1.283 . S
O1070 Mn1044 2.094 . S
O1070 C1048 1.240 . S
O1071 Mn1045 2.109 1_654 S
O1071 C1048 1.264 . S
C1072 C1065 1.403 . S
C1072 C1073 1.399 1_554 S
C1072 H1078 0.929 . S
C1073 C1053 1.449 . S
C1073 C1072 1.399 1_556 S
C1073 H1079 0.930 . S
H1074 C1054 0.931 . S
H1075 C1055 0.930 . S
H1076 C1063 0.931 . S
H1077 C1064 0.929 . S
H1078 C1072 0.929 . S
H1079 C1073 0.930 . S
Mn1080 O1085 2.095 . S
Mn1080 O1095 2.162 . S
Mn1080 O1096 2.297 . S
Mn1080 O1104 2.385 . S
Mn1080 O1105 2.209 . S
Mn1080 O1106 2.094 . S
Mn1081 O1086 2.121 . S
Mn1081 N1088 2.257 . S
Mn1081 N1097 2.282 . S
Mn1081 O1105 2.215 . S
Mn1081 O1107 2.117 . S
C1082 O1104 1.234 . S
C1082 O1105 1.283 . S
C1083 O1095 1.281 . S
C1083 O1096 1.236 . S
C1084 O1106 1.240 . S
C1084 O1107 1.264 . S
O1085 Mn1080 2.095 . S
O1085 C1094 1.250 . S
O1086 Mn1081 2.121 . S
O1086 C1094 1.258 . S
C1087 N1088 1.326 . S
C1087 C1091 1.460 . S
C1087 H1093 0.929 . S
N1088 Mn1081 2.257 . S
N1088 C1087 1.326 . S
N1088 C1092 1.362 . S
C1089 C1090 1.258 . S
C1089 C1092 1.431 . S
C1089 C1109 1.449 . S
C1090 C1089 1.258 . S
C1090 C1091 1.477 . S
C1090 H1110 0.931 . S
C1091 C1087 1.460 . S
C1091 C1090 1.477 . S
C1091 H1111 0.930 . S
C1092 N1088 1.362 . S
C1092 C1089 1.431 . S
C1092 C1102 1.476 . S
H1093 C1087 0.929 . S
C1094 O1085 1.250 . S
C1094 O1086 1.258 . S
O1095 Mn1080 2.162 . S
O1095 C1083 1.281 . S
O1096 Mn1080 2.297 . S
O1096 C1083 1.236 . S
N1097 Mn1081 2.282 . S
N1097 C1098 1.328 . S
N1097 C1102 1.318 . S
C1098 N1097 1.328 . S
C1098 C1099 1.457 . S
C1098 H1103 0.929 . S
C1099 C1098 1.457 . S
C1099 C1100 1.291 . S
C1099 H1112 0.931 . S
C1100 C1099 1.291 . S
C1100 C1101 1.373 . S
C1100 H1113 0.929 . S
C1101 C1100 1.373 . S
C1101 C1102 1.396 . S
C1101 C1108 1.403 . S
C1102 C1092 1.476 . S
C1102 N1097 1.318 . S
C1102 C1101 1.396 . S
H1103 C1098 0.929 . S
O1104 Mn1080 2.385 . S
O1104 C1082 1.234 . S
O1105 Mn1080 2.209 . S
O1105 Mn1081 2.215 . S
O1105 C1082 1.283 . S
O1106 Mn1080 2.094 . S
O1106 C1084 1.240 . S
O1107 Mn1081 2.117 . S
O1107 C1084 1.264 . S
C1108 C1101 1.403 . S
C1108 C1109 1.399 . S
C1108 H1114 0.929 . S
C1109 C1089 1.449 . S
C1109 C1108 1.399 . S
C1109 H1115 0.930 . S
H1110 C1090 0.931 . S
H1111 C1091 0.930 . S
H1112 C1099 0.931 . S
H1113 C1100 0.929 . S
H1114 C1108 0.929 . S
H1115 C1109 0.930 . S
Mn1116 O1121 2.095 . S
Mn1116 O1131 2.162 . S
Mn1116 O1132 2.297 . S
Mn1116 O1140 2.385 . S
Mn1116 O1141 2.209 . S
Mn1116 O1142 2.094 . S
Mn1117 O1122 2.121 . S
Mn1117 N1124 2.257 . S
Mn1117 N1133 2.282 . S
Mn1117 O1141 2.215 . S
Mn1117 O1143 2.117 . S
C1118 O1140 1.234 . S
C1118 O1141 1.283 . S
C1119 O1131 1.281 . S
C1119 O1132 1.236 . S
C1120 O1142 1.240 . S
C1120 O1143 1.264 . S
O1121 Mn1116 2.095 . S
O1121 C1130 1.250 . S
O1122 Mn1117 2.121 . S
O1122 C1130 1.258 . S
C1123 N1124 1.326 . S
C1123 C1127 1.460 . S
C1123 H1129 0.929 . S
N1124 Mn1117 2.257 . S
N1124 C1123 1.326 . S
N1124 C1128 1.362 . S
C1125 C1126 1.258 . S
C1125 C1128 1.431 . S
C1125 C1145 1.449 . S
C1126 C1125 1.258 . S
C1126 C1127 1.477 . S
C1126 H1146 0.931 . S
C1127 C1123 1.460 . S
C1127 C1126 1.477 . S
C1127 H1147 0.930 . S
C1128 N1124 1.362 . S
C1128 C1125 1.431 . S
C1128 C1138 1.476 . S
H1129 C1123 0.929 . S
C1130 O1121 1.250 . S
C1130 O1122 1.258 . S
O1131 Mn1116 2.162 . S
O1131 C1119 1.281 . S
O1132 Mn1116 2.297 . S
O1132 C1119 1.236 . S
N1133 Mn1117 2.282 . S
N1133 C1134 1.328 . S
N1133 C1138 1.318 . S
C1134 N1133 1.328 . S
C1134 C1135 1.457 . S
C1134 H1139 0.929 . S
C1135 C1134 1.457 . S
C1135 C1136 1.291 . S
C1135 H1148 0.931 . S
C1136 C1135 1.291 . S
C1136 C1137 1.373 . S
C1136 H1149 0.929 . S
C1137 C1136 1.373 . S
C1137 C1138 1.396 . S
C1137 C1144 1.403 . S
C1138 C1128 1.476 . S
C1138 N1133 1.318 . S
C1138 C1137 1.396 . S
H1139 C1134 0.929 . S
O1140 Mn1116 2.385 . S
O1140 C1118 1.234 . S
O1141 Mn1116 2.209 . S
O1141 Mn1117 2.215 . S
O1141 C1118 1.283 . S
O1142 Mn1116 2.094 . S
O1142 C1120 1.240 . S
O1143 Mn1117 2.117 . S
O1143 C1120 1.264 . S
C1144 C1137 1.403 . S
C1144 C1145 1.399 . S
C1144 H1150 0.929 . S
C1145 C1125 1.449 . S
C1145 C1144 1.399 . S
C1145 H1151 0.930 . S
H1146 C1126 0.931 . S
H1147 C1127 0.930 . S
H1148 C1135 0.931 . S
H1149 C1136 0.929 . S
H1150 C1144 0.929 . S
H1151 C1145 0.930 . S
C1152 C1153 1.369 . S
C1152 C1154 1.419 . S
C1152 H1156 0.930 . S
C1153 C1152 1.369 . S
C1153 C1162 1.429 . S
C1154 C1152 1.419 . S
C1154 C1155 1.363 . S
C1154 H1157 0.929 . S
C1155 C1154 1.363 . S
C1155 C1161 1.428 . S
H1156 C1152 0.930 . S
H1157 C1154 0.929 . S
S1158 N1159 1.613 . S
S1158 N1160 1.610 . S
N1159 S1158 1.613 . S
N1159 C1162 1.350 . S
N1160 S1158 1.610 . S
N1160 C1161 1.351 . S
C1161 C1155 1.428 . S
C1161 N1160 1.351 . S
C1161 C1162 1.434 . S
C1162 C1153 1.429 . S
C1162 N1159 1.350 . S
C1162 C1161 1.434 . S
C1163 C1164 1.369 . S
C1163 C1165 1.419 . S
C1163 H1167 0.930 . S
C1164 C1163 1.369 . S
C1164 C1173 1.429 . S
C1165 C1163 1.419 . S
C1165 C1166 1.363 . S
C1165 H1168 0.929 . S
C1166 C1165 1.363 . S
C1166 C1172 1.428 . S
H1167 C1163 0.930 . S
H1168 C1165 0.929 . S
S1169 N1170 1.613 . S
S1169 N1171 1.610 . S
N1170 S1169 1.613 . S
N1170 C1173 1.350 . S
N1171 S1169 1.610 . S
N1171 C1172 1.351 . S
C1172 C1166 1.428 . S
C1172 N1171 1.351 . S
C1172 C1173 1.434 . S
C1173 C1164 1.429 . S
C1173 N1170 1.350 . S
C1173 C1172 1.434 . S
C1174 C1175 1.369 . S
C1174 C1176 1.419 . S
C1174 H1178 0.930 . S
C1175 C1174 1.369 . S
C1175 C1184 1.429 . S
C1176 C1174 1.419 . S
C1176 C1177 1.363 . S
C1176 H1179 0.929 . S
C1177 C1176 1.363 . S
C1177 C1183 1.428 . S
H1178 C1174 0.930 . S
H1179 C1176 0.929 . S
S1180 N1181 1.613 . S
S1180 N1182 1.610 . S
N1181 S1180 1.613 . S
N1181 C1184 1.350 . S
N1182 S1180 1.610 . S
N1182 C1183 1.351 . S
C1183 C1177 1.428 . S
C1183 N1182 1.351 . S
C1183 C1184 1.434 . S
C1184 C1175 1.429 . S
C1184 N1181 1.350 . S
C1184 C1183 1.434 . S
C1185 C1186 1.369 . S
C1185 C1187 1.419 . S
C1185 H1189 0.930 . S
C1186 C1185 1.369 . S
C1186 C1195 1.429 . S
C1187 C1185 1.419 . S
C1187 C1188 1.363 . S
C1187 H1190 0.929 . S
C1188 C1187 1.363 . S
C1188 C1194 1.428 . S
H1189 C1185 0.930 . S
H1190 C1187 0.929 . S
S1191 N1192 1.613 . S
S1191 N1193 1.610 . S
N1192 S1191 1.613 . S
N1192 C1195 1.350 . S
N1193 S1191 1.610 . S
N1193 C1194 1.351 . S
C1194 C1188 1.428 . S
C1194 N1193 1.351 . S
C1194 C1195 1.434 . S
C1195 C1186 1.429 . S
C1195 N1192 1.350 . S
C1195 C1194 1.434 . S
C1196 C1197 1.369 . S
C1196 C1198 1.419 . S
C1196 H1200 0.930 . S
C1197 C1196 1.369 . S
C1197 C1206 1.429 . S
C1198 C1196 1.419 . S
C1198 C1199 1.363 . S
C1198 H1201 0.929 . S
C1199 C1198 1.363 . S
C1199 C1205 1.428 . S
H1200 C1196 0.930 . S
H1201 C1198 0.929 . S
S1202 N1203 1.613 . S
S1202 N1204 1.610 . S
N1203 S1202 1.613 . S
N1203 C1206 1.350 . S
N1204 S1202 1.610 . S
N1204 C1205 1.351 . S
C1205 C1199 1.428 . S
C1205 N1204 1.351 . S
C1205 C1206 1.434 . S
C1206 C1197 1.429 . S
C1206 N1203 1.350 . S
C1206 C1205 1.434 . S
C1207 C1208 1.369 . S
C1207 C1209 1.419 . S
C1207 H1211 0.930 . S
C1208 C1207 1.369 . S
C1208 C1217 1.429 . S
C1209 C1207 1.419 . S
C1209 C1210 1.363 . S
C1209 H1212 0.929 . S
C1210 C1209 1.363 . S
C1210 C1216 1.428 . S
H1211 C1207 0.930 . S
H1212 C1209 0.929 . S
S1213 N1214 1.613 . S
S1213 N1215 1.610 . S
N1214 S1213 1.613 . S
N1214 C1217 1.350 . S
N1215 S1213 1.610 . S
N1215 C1216 1.351 . S
C1216 C1210 1.428 . S
C1216 N1215 1.351 . S
C1216 C1217 1.434 . S
C1217 C1208 1.429 . S
C1217 N1214 1.350 . S
C1217 C1216 1.434 . S
C1218 C1219 1.369 . S
C1218 C1220 1.419 . S
C1218 H1222 0.930 . S
C1219 C1218 1.369 . S
C1219 C1228 1.429 . S
C1220 C1218 1.419 . S
C1220 C1221 1.363 . S
C1220 H1223 0.929 . S
C1221 C1220 1.363 . S
C1221 C1227 1.428 . S
H1222 C1218 0.930 . S
H1223 C1220 0.929 . S
S1224 N1225 1.613 . S
S1224 N1226 1.610 . S
N1225 S1224 1.613 . S
N1225 C1228 1.350 . S
N1226 S1224 1.610 . S
N1226 C1227 1.351 . S
C1227 C1221 1.428 . S
C1227 N1226 1.351 . S
C1227 C1228 1.434 . S
C1228 C1219 1.429 . S
C1228 N1225 1.350 . S
C1228 C1227 1.434 . S
C1229 C1230 1.369 . S
C1229 C1231 1.419 . S
C1229 H1233 0.930 . S
C1230 C1229 1.369 . S
C1230 C1239 1.429 . S
C1231 C1229 1.419 . S
C1231 C1232 1.363 . S
C1231 H1234 0.929 . S
C1232 C1231 1.363 . S
C1232 C1238 1.428 . S
H1233 C1229 0.930 . S
H1234 C1231 0.929 . S
S1235 N1236 1.613 . S
S1235 N1237 1.610 . S
N1236 S1235 1.613 . S
N1236 C1239 1.350 . S
N1237 S1235 1.610 . S
N1237 C1238 1.351 . S
C1238 C1232 1.428 . S
C1238 N1237 1.351 . S
C1238 C1239 1.434 . S
C1239 C1230 1.429 . S
C1239 N1236 1.350 . S
C1239 C1238 1.434 . S
C1240 C1241 1.369 . S
C1240 C1242 1.419 . S
C1240 H1244 0.930 . S
C1241 C1240 1.369 . S
C1241 C1250 1.429 . S
C1242 C1240 1.419 . S
C1242 C1243 1.363 . S
C1242 H1245 0.929 . S
C1243 C1242 1.363 . S
C1243 C1249 1.428 . S
H1244 C1240 0.930 . S
H1245 C1242 0.929 . S
S1246 N1247 1.613 . S
S1246 N1248 1.610 . S
N1247 S1246 1.613 . S
N1247 C1250 1.350 . S
N1248 S1246 1.610 . S
N1248 C1249 1.351 . S
C1249 C1243 1.428 . S
C1249 N1248 1.351 . S
C1249 C1250 1.434 . S
C1250 C1241 1.429 . S
C1250 N1247 1.350 . S
C1250 C1249 1.434 . S
C1251 C1252 1.369 . S
C1251 C1253 1.419 . S
C1251 H1255 0.930 . S
C1252 C1251 1.369 . S
C1252 C1261 1.429 . S
C1253 C1251 1.419 . S
C1253 C1254 1.363 . S
C1253 H1256 0.929 . S
C1254 C1253 1.363 . S
C1254 C1260 1.428 . S
H1255 C1251 0.930 . S
H1256 C1253 0.929 . S
S1257 N1258 1.613 . S
S1257 N1259 1.610 . S
N1258 S1257 1.613 . S
N1258 C1261 1.350 . S
N1259 S1257 1.610 . S
N1259 C1260 1.351 . S
C1260 C1254 1.428 . S
C1260 N1259 1.351 . S
C1260 C1261 1.434 . S
C1261 C1252 1.429 . S
C1261 N1258 1.350 . S
C1261 C1260 1.434 . S
C1262 C1263 1.369 . S
C1262 C1264 1.419 . S
C1262 H1266 0.930 . S
C1263 C1262 1.369 . S
C1263 C1272 1.429 . S
C1264 C1262 1.419 . S
C1264 C1265 1.363 . S
C1264 H1267 0.929 . S
C1265 C1264 1.363 . S
C1265 C1271 1.428 . S
H1266 C1262 0.930 . S
H1267 C1264 0.929 . S
S1268 N1269 1.613 . S
S1268 N1270 1.610 . S
N1269 S1268 1.613 . S
N1269 C1272 1.350 . S
N1270 S1268 1.610 . S
N1270 C1271 1.351 . S
C1271 C1265 1.428 . S
C1271 N1270 1.351 . S
C1271 C1272 1.434 . S
C1272 C1263 1.429 . S
C1272 N1269 1.350 . S
C1272 C1271 1.434 . S
C1273 C1274 1.369 . S
C1273 C1275 1.419 . S
C1273 H1277 0.930 . S
C1274 C1273 1.369 . S
C1274 C1283 1.429 . S
C1275 C1273 1.419 . S
C1275 C1276 1.363 . S
C1275 H1278 0.929 . S
C1276 C1275 1.363 . S
C1276 C1282 1.428 . S
H1277 C1273 0.930 . S
H1278 C1275 0.929 . S
S1279 N1280 1.613 . S
S1279 N1281 1.610 . S
N1280 S1279 1.613 . S
N1280 C1283 1.350 . S
N1281 S1279 1.610 . S
N1281 C1282 1.351 . S
C1282 C1276 1.428 . S
C1282 N1281 1.351 . S
C1282 C1283 1.434 . S
C1283 C1274 1.429 . S
C1283 N1280 1.350 . S
C1283 C1282 1.434 . S
C1284 C1285 1.369 . S
C1284 C1286 1.419 . S
C1284 H1288 0.930 . S
C1285 C1284 1.369 . S
C1285 C1294 1.429 . S
C1286 C1284 1.419 . S
C1286 C1287 1.363 . S
C1286 H1289 0.929 . S
C1287 C1286 1.363 . S
C1287 C1293 1.428 . S
H1288 C1284 0.930 . S
H1289 C1286 0.929 . S
S1290 N1291 1.613 . S
S1290 N1292 1.610 . S
N1291 S1290 1.613 . S
N1291 C1294 1.350 . S
N1292 S1290 1.610 . S
N1292 C1293 1.351 . S
C1293 C1287 1.428 . S
C1293 N1292 1.351 . S
C1293 C1294 1.434 . S
C1294 C1285 1.429 . S
C1294 N1291 1.350 . S
C1294 C1293 1.434 . S
C1295 C1296 1.369 . S
C1295 C1297 1.419 . S
C1295 H1299 0.930 . S
C1296 C1295 1.369 . S
C1296 C1305 1.429 . S
C1297 C1295 1.419 . S
C1297 C1298 1.363 . S
C1297 H1300 0.929 . S
C1298 C1297 1.363 . S
C1298 C1304 1.428 . S
H1299 C1295 0.930 . S
H1300 C1297 0.929 . S
S1301 N1302 1.613 . S
S1301 N1303 1.610 . S
N1302 S1301 1.613 . S
N1302 C1305 1.350 . S
N1303 S1301 1.610 . S
N1303 C1304 1.351 . S
C1304 C1298 1.428 . S
C1304 N1303 1.351 . S
C1304 C1305 1.434 . S
C1305 C1296 1.429 . S
C1305 N1302 1.350 . S
C1305 C1304 1.434 . S
C1306 C1307 1.369 . S
C1306 C1308 1.419 . S
C1306 H1310 0.930 . S
C1307 C1306 1.369 . S
C1307 C1316 1.429 . S
C1308 C1306 1.419 . S
C1308 C1309 1.363 . S
C1308 H1311 0.929 . S
C1309 C1308 1.363 . S
C1309 C1315 1.428 . S
H1310 C1306 0.930 . S
H1311 C1308 0.929 . S
S1312 N1313 1.613 . S
S1312 N1314 1.610 . S
N1313 S1312 1.613 . S
N1313 C1316 1.350 . S
N1314 S1312 1.610 . S
N1314 C1315 1.351 . S
C1315 C1309 1.428 . S
C1315 N1314 1.351 . S
C1315 C1316 1.434 . S
C1316 C1307 1.429 . S
C1316 N1313 1.350 . S
C1316 C1315 1.434 . S
C1317 C1318 1.369 . S
C1317 C1319 1.419 . S
C1317 H1321 0.930 . S
C1318 C1317 1.369 . S
C1318 C1327 1.429 . S
C1319 C1317 1.419 . S
C1319 C1320 1.363 . S
C1319 H1322 0.929 . S
C1320 C1319 1.363 . S
C1320 C1326 1.428 . S
H1321 C1317 0.930 . S
H1322 C1319 0.929 . S
S1323 N1324 1.613 . S
S1323 N1325 1.610 . S
N1324 S1323 1.613 . S
N1324 C1327 1.350 . S
N1325 S1323 1.610 . S
N1325 C1326 1.351 . S
C1326 C1320 1.428 . S
C1326 N1325 1.351 . S
C1326 C1327 1.434 . S
C1327 C1318 1.429 . S
C1327 N1324 1.350 . S
C1327 C1326 1.434 . S
C1328 C1329 1.369 . S
C1328 C1330 1.419 . S
C1328 H1332 0.930 . S
C1329 C1328 1.369 . S
C1329 C1338 1.429 . S
C1330 C1328 1.419 . S
C1330 C1331 1.363 . S
C1330 H1333 0.929 . S
C1331 C1330 1.363 . S
C1331 C1337 1.428 . S
H1332 C1328 0.930 . S
H1333 C1330 0.929 . S
S1334 N1335 1.613 . S
S1334 N1336 1.610 . S
N1335 S1334 1.613 . S
N1335 C1338 1.350 . S
N1336 S1334 1.610 . S
N1336 C1337 1.351 . S
C1337 C1331 1.428 . S
C1337 N1336 1.351 . S
C1337 C1338 1.434 . S
C1338 C1329 1.429 . S
C1338 N1335 1.350 . S
C1338 C1337 1.434 . S
C1339 C1340 1.369 . S
C1339 C1341 1.419 . S
C1339 H1343 0.930 . S
C1340 C1339 1.369 . S
C1340 C1349 1.429 . S
C1341 C1339 1.419 . S
C1341 C1342 1.363 . S
C1341 H1344 0.929 . S
C1342 C1341 1.363 . S
C1342 C1348 1.428 . S
H1343 C1339 0.930 . S
H1344 C1341 0.929 . S
S1345 N1346 1.613 . S
S1345 N1347 1.610 . S
N1346 S1345 1.613 . S
N1346 C1349 1.350 . S
N1347 S1345 1.610 . S
N1347 C1348 1.351 . S
C1348 C1342 1.428 . S
C1348 N1347 1.351 . S
C1348 C1349 1.434 . S
C1349 C1340 1.429 . S
C1349 N1346 1.350 . S
C1349 C1348 1.434 . S
C1350 C1351 1.369 . S
C1350 C1352 1.419 . S
C1350 H1354 0.930 . S
C1351 C1350 1.369 . S
C1351 C1360 1.429 . S
C1352 C1350 1.419 . S
C1352 C1353 1.363 . S
C1352 H1355 0.929 . S
C1353 C1352 1.363 . S
C1353 C1359 1.428 . S
H1354 C1350 0.930 . S
H1355 C1352 0.929 . S
S1356 N1357 1.613 . S
S1356 N1358 1.610 . S
N1357 S1356 1.613 . S
N1357 C1360 1.350 . S
N1358 S1356 1.610 . S
N1358 C1359 1.351 . S
C1359 C1353 1.428 . S
C1359 N1358 1.351 . S
C1359 C1360 1.434 . S
C1360 C1351 1.429 . S
C1360 N1357 1.350 . S
C1360 C1359 1.434 . S
C1361 C1362 1.369 . S
C1361 C1363 1.419 . S
C1361 H1365 0.930 . S
C1362 C1361 1.369 . S
C1362 C1371 1.429 . S
C1363 C1361 1.419 . S
C1363 C1364 1.363 . S
C1363 H1366 0.929 . S
C1364 C1363 1.363 . S
C1364 C1370 1.428 . S
H1365 C1361 0.930 . S
H1366 C1363 0.929 . S
S1367 N1368 1.613 . S
S1367 N1369 1.610 . S
N1368 S1367 1.613 . S
N1368 C1371 1.350 . S
N1369 S1367 1.610 . S
N1369 C1370 1.351 . S
C1370 C1364 1.428 . S
C1370 N1369 1.351 . S
C1370 C1371 1.434 . S
C1371 C1362 1.429 . S
C1371 N1368 1.350 . S
C1371 C1370 1.434 . S
C1372 C1373 1.369 . S
C1372 C1374 1.419 . S
C1372 H1376 0.930 . S
C1373 C1372 1.369 . S
C1373 C1382 1.429 . S
C1374 C1372 1.419 . S
C1374 C1375 1.363 . S
C1374 H1377 0.929 . S
C1375 C1374 1.363 . S
C1375 C1381 1.428 . S
H1376 C1372 0.930 . S
H1377 C1374 0.929 . S
S1378 N1379 1.613 . S
S1378 N1380 1.610 . S
N1379 S1378 1.613 . S
N1379 C1382 1.350 . S
N1380 S1378 1.610 . S
N1380 C1381 1.351 . S
C1381 C1375 1.428 . S
C1381 N1380 1.351 . S
C1381 C1382 1.434 . S
C1382 C1373 1.429 . S
C1382 N1379 1.350 . S
C1382 C1381 1.434 . S
C1383 C1384 1.369 . S
C1383 C1385 1.419 . S
C1383 H1387 0.930 . S
C1384 C1383 1.369 . S
C1384 C1393 1.429 . S
C1385 C1383 1.419 . S
C1385 C1386 1.363 . S
C1385 H1388 0.929 . S
C1386 C1385 1.363 . S
C1386 C1392 1.428 . S
H1387 C1383 0.930 . S
H1388 C1385 0.929 . S
S1389 N1390 1.613 . S
S1389 N1391 1.610 . S
N1390 S1389 1.613 . S
N1390 C1393 1.350 . S
N1391 S1389 1.610 . S
N1391 C1392 1.351 . S
C1392 C1386 1.428 . S
C1392 N1391 1.351 . S
C1392 C1393 1.434 . S
C1393 C1384 1.429 . S
C1393 N1390 1.350 . S
C1393 C1392 1.434 . S
C1394 C1395 1.369 . S
C1394 C1396 1.419 . S
C1394 H1398 0.930 . S
C1395 C1394 1.369 . S
C1395 C1404 1.429 . S
C1396 C1394 1.419 . S
C1396 C1397 1.363 . S
C1396 H1399 0.929 . S
C1397 C1396 1.363 . S
C1397 C1403 1.428 . S
H1398 C1394 0.930 . S
H1399 C1396 0.929 . S
S1400 N1401 1.613 . S
S1400 N1402 1.610 . S
N1401 S1400 1.613 . S
N1401 C1404 1.350 . S
N1402 S1400 1.610 . S
N1402 C1403 1.351 . S
C1403 C1397 1.428 . S
C1403 N1402 1.351 . S
C1403 C1404 1.434 . S
C1404 C1395 1.429 . S
C1404 N1401 1.350 . S
C1404 C1403 1.434 . S
C1405 C1406 1.369 . S
C1405 C1407 1.419 . S
C1405 H1409 0.930 . S
C1406 C1405 1.369 . S
C1406 C1415 1.429 . S
C1407 C1405 1.419 . S
C1407 C1408 1.363 . S
C1407 H1410 0.929 . S
C1408 C1407 1.363 . S
C1408 C1414 1.428 . S
H1409 C1405 0.930 . S
H1410 C1407 0.929 . S
S1411 N1412 1.613 . S
S1411 N1413 1.610 . S
N1412 S1411 1.613 . S
N1412 C1415 1.350 . S
N1413 S1411 1.610 . S
N1413 C1414 1.351 . S
C1414 C1408 1.428 . S
C1414 N1413 1.351 . S
C1414 C1415 1.434 . S
C1415 C1406 1.429 . S
C1415 N1412 1.350 . S
C1415 C1414 1.434 . S
C1416 C1417 1.369 . S
C1416 C1418 1.419 . S
C1416 H1420 0.930 . S
C1417 C1416 1.369 . S
C1417 C1426 1.429 . S
C1418 C1416 1.419 . S
C1418 C1419 1.363 . S
C1418 H1421 0.929 . S
C1419 C1418 1.363 . S
C1419 C1425 1.428 . S
H1420 C1416 0.930 . S
H1421 C1418 0.929 . S
S1422 N1423 1.613 . S
S1422 N1424 1.610 . S
N1423 S1422 1.613 . S
N1423 C1426 1.350 . S
N1424 S1422 1.610 . S
N1424 C1425 1.351 . S
C1425 C1419 1.428 . S
C1425 N1424 1.351 . S
C1425 C1426 1.434 . S
C1426 C1417 1.429 . S
C1426 N1423 1.350 . S
C1426 C1425 1.434 . S
C1427 C1428 1.369 . S
C1427 C1429 1.419 . S
C1427 H1431 0.930 . S
C1428 C1427 1.369 . S
C1428 C1437 1.429 . S
C1429 C1427 1.419 . S
C1429 C1430 1.363 . S
C1429 H1432 0.929 . S
C1430 C1429 1.363 . S
C1430 C1436 1.428 . S
H1431 C1427 0.930 . S
H1432 C1429 0.929 . S
S1433 N1434 1.613 . S
S1433 N1435 1.610 . S
N1434 S1433 1.613 . S
N1434 C1437 1.350 . S
N1435 S1433 1.610 . S
N1435 C1436 1.351 . S
C1436 C1430 1.428 . S
C1436 N1435 1.351 . S
C1436 C1437 1.434 . S
C1437 C1428 1.429 . S
C1437 N1434 1.350 . S
C1437 C1436 1.434 . S
C1438 C1439 1.369 . S
C1438 C1440 1.419 . S
C1438 H1442 0.930 . S
C1439 C1438 1.369 . S
C1439 C1448 1.429 . S
C1440 C1438 1.419 . S
C1440 C1441 1.363 . S
C1440 H1443 0.929 . S
C1441 C1440 1.363 . S
C1441 C1447 1.428 . S
H1442 C1438 0.930 . S
H1443 C1440 0.929 . S
S1444 N1445 1.613 . S
S1444 N1446 1.610 . S
N1445 S1444 1.613 . S
N1445 C1448 1.350 . S
N1446 S1444 1.610 . S
N1446 C1447 1.351 . S
C1447 C1441 1.428 . S
C1447 N1446 1.351 . S
C1447 C1448 1.434 . S
C1448 C1439 1.429 . S
C1448 N1445 1.350 . S
C1448 C1447 1.434 . S
C1449 C1450 1.369 . S
C1449 C1451 1.419 . S
C1449 H1453 0.930 . S
C1450 C1449 1.369 . S
C1450 C1459 1.429 . S
C1451 C1449 1.419 . S
C1451 C1452 1.363 . S
C1451 H1454 0.929 . S
C1452 C1451 1.363 . S
C1452 C1458 1.428 . S
H1453 C1449 0.930 . S
H1454 C1451 0.929 . S
S1455 N1456 1.613 . S
S1455 N1457 1.610 . S
N1456 S1455 1.613 . S
N1456 C1459 1.350 . S
N1457 S1455 1.610 . S
N1457 C1458 1.351 . S
C1458 C1452 1.428 . S
C1458 N1457 1.351 . S
C1458 C1459 1.434 . S
C1459 C1450 1.429 . S
C1459 N1456 1.350 . S
C1459 C1458 1.434 . S
C1460 C1461 1.369 . S
C1460 C1462 1.419 . S
C1460 H1464 0.930 . S
C1461 C1460 1.369 . S
C1461 C1470 1.429 . S
C1462 C1460 1.419 . S
C1462 C1463 1.363 . S
C1462 H1465 0.929 . S
C1463 C1462 1.363 . S
C1463 C1469 1.428 . S
H1464 C1460 0.930 . S
H1465 C1462 0.929 . S
S1466 N1467 1.613 . S
S1466 N1468 1.610 . S
N1467 S1466 1.613 . S
N1467 C1470 1.350 . S
N1468 S1466 1.610 . S
N1468 C1469 1.351 . S
C1469 C1463 1.428 . S
C1469 N1468 1.351 . S
C1469 C1470 1.434 . S
C1470 C1461 1.429 . S
C1470 N1467 1.350 . S
C1470 C1469 1.434 . S
C1471 C1472 1.369 . S
C1471 C1473 1.419 . S
C1471 H1475 0.930 . S
C1472 C1471 1.369 . S
C1472 C1481 1.429 . S
C1473 C1471 1.419 . S
C1473 C1474 1.363 . S
C1473 H1476 0.929 . S
C1474 C1473 1.363 . S
C1474 C1480 1.428 . S
H1475 C1471 0.930 . S
H1476 C1473 0.929 . S
S1477 N1478 1.613 . S
S1477 N1479 1.610 . S
N1478 S1477 1.613 . S
N1478 C1481 1.350 . S
N1479 S1477 1.610 . S
N1479 C1480 1.351 . S
C1480 C1474 1.428 . S
C1480 N1479 1.351 . S
C1480 C1481 1.434 . S
C1481 C1472 1.429 . S
C1481 N1478 1.350 . S
C1481 C1480 1.434 . S
C1482 C1483 1.369 . S
C1482 C1484 1.419 . S
C1482 H1486 0.930 . S
C1483 C1482 1.369 . S
C1483 C1492 1.429 . S
C1484 C1482 1.419 . S
C1484 C1485 1.363 . S
C1484 H1487 0.929 . S
C1485 C1484 1.363 . S
C1485 C1491 1.428 . S
H1486 C1482 0.930 . S
H1487 C1484 0.929 . S
S1488 N1489 1.613 . S
S1488 N1490 1.610 . S
N1489 S1488 1.613 . S
N1489 C1492 1.350 . S
N1490 S1488 1.610 . S
N1490 C1491 1.351 . S
C1491 C1485 1.428 . S
C1491 N1490 1.351 . S
C1491 C1492 1.434 . S
C1492 C1483 1.429 . S
C1492 N1489 1.350 . S
C1492 C1491 1.434 . S
C1493 C1494 1.369 . S
C1493 C1495 1.419 . S
C1493 H1497 0.930 . S
C1494 C1493 1.369 . S
C1494 C1503 1.429 . S
C1495 C1493 1.419 . S
C1495 C1496 1.363 . S
C1495 H1498 0.929 . S
C1496 C1495 1.363 . S
C1496 C1502 1.428 . S
H1497 C1493 0.930 . S
H1498 C1495 0.929 . S
S1499 N1500 1.613 . S
S1499 N1501 1.610 . S
N1500 S1499 1.613 . S
N1500 C1503 1.350 . S
N1501 S1499 1.610 . S
N1501 C1502 1.351 . S
C1502 C1496 1.428 . S
C1502 N1501 1.351 . S
C1502 C1503 1.434 . S
C1503 C1494 1.429 . S
C1503 N1500 1.350 . S
C1503 C1502 1.434 . S
C1504 C1505 1.369 . S
C1504 C1506 1.419 . S
C1504 H1508 0.930 . S
C1505 C1504 1.369 . S
C1505 C1514 1.429 . S
C1506 C1504 1.419 . S
C1506 C1507 1.363 . S
C1506 H1509 0.929 . S
C1507 C1506 1.363 . S
C1507 C1513 1.428 . S
H1508 C1504 0.930 . S
H1509 C1506 0.929 . S
S1510 N1511 1.613 . S
S1510 N1512 1.610 . S
N1511 S1510 1.613 . S
N1511 C1514 1.350 . S
N1512 S1510 1.610 . S
N1512 C1513 1.351 . S
C1513 C1507 1.428 . S
C1513 N1512 1.351 . S
C1513 C1514 1.434 . S
C1514 C1505 1.429 . S
C1514 N1511 1.350 . S
C1514 C1513 1.434 . S
C1515 C1516 1.369 . S
C1515 C1517 1.419 1_665 S
C1515 H1519 0.930 . S
C1516 C1515 1.369 . S
C1516 C1525 1.429 1_655 S
C1517 C1515 1.419 1_445 S
C1517 C1518 1.363 . S
C1517 H1520 0.929 1_455 S
C1518 C1517 1.363 . S
C1518 C1524 1.428 . S
H1519 C1515 0.930 . S
H1520 C1517 0.929 1_655 S
S1521 N1522 1.613 . S
S1521 N1523 1.610 1_565 S
N1522 S1521 1.613 . S
N1522 C1525 1.350 . S
N1523 S1521 1.610 1_545 S
N1523 C1524 1.351 . S
C1524 C1518 1.428 . S
C1524 N1523 1.351 . S
C1524 C1525 1.434 1_545 S
C1525 C1516 1.429 1_455 S
C1525 N1522 1.350 . S
C1525 C1524 1.434 1_565 S
C1526 C1527 1.369 . S
C1526 C1528 1.419 . S
C1526 H1530 0.930 . S
C1527 C1526 1.369 . S
C1527 C1536 1.429 . S
C1528 C1526 1.419 . S
C1528 C1529 1.363 . S
C1528 H1531 0.929 . S
C1529 C1528 1.363 . S
C1529 C1535 1.428 . S
H1530 C1526 0.930 . S
H1531 C1528 0.929 . S
S1532 N1533 1.613 . S
S1532 N1534 1.610 . S
N1533 S1532 1.613 . S
N1533 C1536 1.350 . S
N1534 S1532 1.610 . S
N1534 C1535 1.351 . S
C1535 C1529 1.428 . S
C1535 N1534 1.351 . S
C1535 C1536 1.434 . S
C1536 C1527 1.429 . S
C1536 N1533 1.350 . S
C1536 C1535 1.434 . S
C1537 C1538 1.369 1_556 S
C1537 C1539 1.419 . S
C1537 H1541 0.930 . S
C1538 C1537 1.369 1_554 S
C1538 C1547 1.429 1_545 S
C1539 C1537 1.419 . S
C1539 C1540 1.363 1_545 S
C1539 H1542 0.929 . S
C1540 C1539 1.363 1_565 S
C1540 C1546 1.428 1_556 S
H1541 C1537 0.930 . S
H1542 C1539 0.929 . S
S1543 N1544 1.613 . S
S1543 N1545 1.610 . S
N1544 S1543 1.613 . S
N1544 C1547 1.350 . S
N1545 S1543 1.610 . S
N1545 C1546 1.351 . S
C1546 C1540 1.428 1_554 S
C1546 N1545 1.351 . S
C1546 C1547 1.434 . S
C1547 C1538 1.429 1_565 S
C1547 N1544 1.350 . S
C1547 C1546 1.434 . S
C1548 C1549 1.369 . S
C1548 C1550 1.419 . S
C1548 H1552 0.930 . S
C1549 C1548 1.369 . S
C1549 C1558 1.429 . S
C1550 C1548 1.419 . S
C1550 C1551 1.363 . S
C1550 H1553 0.929 . S
C1551 C1550 1.363 . S
C1551 C1557 1.428 . S
H1552 C1548 0.930 . S
H1553 C1550 0.929 . S
S1554 N1555 1.613 . S
S1554 N1556 1.610 . S
N1555 S1554 1.613 . S
N1555 C1558 1.350 . S
N1556 S1554 1.610 . S
N1556 C1557 1.351 . S
C1557 C1551 1.428 . S
C1557 N1556 1.351 . S
C1557 C1558 1.434 . S
C1558 C1549 1.429 . S
C1558 N1555 1.350 . S
C1558 C1557 1.434 . S
C1559 C1560 1.369 . S
C1559 C1561 1.419 1_565 S
C1559 H1563 0.930 . S
C1560 C1559 1.369 . S
C1560 C1569 1.429 . S
C1561 C1559 1.419 1_545 S
C1561 C1562 1.363 . S
C1561 H1564 0.929 . S
C1562 C1561 1.363 . S
C1562 C1568 1.428 . S
H1563 C1559 0.930 . S
H1564 C1561 0.929 . S
S1565 N1566 1.613 . S
S1565 N1567 1.610 1_565 S
N1566 S1565 1.613 . S
N1566 C1569 1.350 . S
N1567 S1565 1.610 1_545 S
N1567 C1568 1.351 . S
C1568 C1562 1.428 . S
C1568 N1567 1.351 . S
C1568 C1569 1.434 1_545 S
C1569 C1560 1.429 . S
C1569 N1566 1.350 . S
C1569 C1568 1.434 1_565 S
C1570 C1571 1.369 . S
C1570 C1572 1.419 . S
C1570 H1574 0.930 . S
C1571 C1570 1.369 . S
C1571 C1580 1.429 . S
C1572 C1570 1.419 . S
C1572 C1573 1.363 . S
C1572 H1575 0.929 . S
C1573 C1572 1.363 . S
C1573 C1579 1.428 . S
H1574 C1570 0.930 . S
H1575 C1572 0.929 . S
S1576 N1577 1.613 . S
S1576 N1578 1.610 . S
N1577 S1576 1.613 . S
N1577 C1580 1.350 . S
N1578 S1576 1.610 . S
N1578 C1579 1.351 . S
C1579 C1573 1.428 . S
C1579 N1578 1.351 . S
C1579 C1580 1.434 . S
C1580 C1571 1.429 . S
C1580 N1577 1.350 . S
C1580 C1579 1.434 . S
C1581 C1582 1.369 1_554 S
C1581 C1583 1.419 1_645 S
C1581 H1585 0.930 . S
C1582 C1581 1.369 1_556 S
C1582 C1591 1.429 . S
C1583 C1581 1.419 1_465 S
C1583 C1584 1.363 . S
C1583 H1586 0.929 . S
C1584 C1583 1.363 . S
C1584 C1590 1.428 1_554 S
H1585 C1581 0.930 . S
H1586 C1583 0.929 . S
S1587 N1588 1.641 1_455 S
S1587 N1589 1.610 . S
N1588 S1587 1.641 1_655 S
N1588 C1591 1.347 1_565 S
N1589 S1587 1.610 . S
N1589 C1590 1.351 . S
C1590 C1584 1.428 1_556 S
C1590 N1589 1.351 . S
C1590 C1591 1.434 1_465 S
C1591 C1582 1.429 . S
C1591 N1588 1.347 1_545 S
C1591 C1590 1.434 1_645 S
C1592 C1593 1.369 . S
C1592 C1594 1.419 . S
C1592 H1596 0.930 . S
C1593 C1592 1.369 . S
C1593 C1602 1.429 . S
C1594 C1592 1.419 . S
C1594 C1595 1.363 . S
C1594 H1597 0.929 . S
C1595 C1594 1.363 . S
C1595 C1601 1.428 . S
H1596 C1592 0.930 . S
H1597 C1594 0.929 . S
S1598 N1599 1.613 . S
S1598 N1600 1.610 . S
N1599 S1598 1.613 . S
N1599 C1602 1.350 . S
N1600 S1598 1.610 . S
N1600 C1601 1.351 . S
C1601 C1595 1.428 . S
C1601 N1600 1.351 . S
C1601 C1602 1.434 . S
C1602 C1593 1.429 . S
C1602 N1599 1.350 . S
C1602 C1601 1.434 . S
C1603 C1604 1.369 . S
C1603 C1605 1.419 . S
C1603 H1607 0.930 . S
C1604 C1603 1.369 . S
C1604 C1613 1.429 . S
C1605 C1603 1.419 . S
C1605 C1606 1.363 . S
C1605 H1608 0.929 . S
C1606 C1605 1.363 . S
C1606 C1612 1.428 . S
H1607 C1603 0.930 . S
H1608 C1605 0.929 . S
S1609 N1610 1.613 . S
S1609 N1611 1.610 . S
N1610 S1609 1.613 . S
N1610 C1613 1.350 . S
N1611 S1609 1.610 . S
N1611 C1612 1.351 . S
C1612 C1606 1.428 . S
C1612 N1611 1.351 . S
C1612 C1613 1.434 . S
C1613 C1604 1.429 . S
C1613 N1610 1.350 . S
C1613 C1612 1.434 . S
C1614 C1615 1.369 . S
C1614 C1616 1.419 . S
C1614 H1618 0.930 . S
C1615 C1614 1.369 . S
C1615 C1624 1.429 . S
C1616 C1614 1.419 . S
C1616 C1617 1.363 . S
C1616 H1619 0.929 . S
C1617 C1616 1.363 . S
C1617 C1623 1.428 . S
H1618 C1614 0.930 . S
H1619 C1616 0.929 . S
S1620 N1621 1.613 . S
S1620 N1622 1.610 . S
N1621 S1620 1.613 . S
N1621 C1624 1.350 . S
N1622 S1620 1.610 . S
N1622 C1623 1.351 . S
C1623 C1617 1.428 . S
C1623 N1622 1.351 . S
C1623 C1624 1.434 . S
C1624 C1615 1.429 . S
C1624 N1621 1.350 . S
C1624 C1623 1.434 . S
C1625 C1626 1.369 . S
C1625 C1627 1.419 . S
C1625 H1629 0.930 . S
C1626 C1625 1.369 . S
C1626 C1635 1.429 . S
C1627 C1625 1.419 . S
C1627 C1628 1.363 . S
C1627 H1630 0.929 . S
C1628 C1627 1.363 . S
C1628 C1634 1.428 . S
H1629 C1625 0.930 . S
H1630 C1627 0.929 . S
S1631 N1632 1.613 . S
S1631 N1633 1.610 . S
N1632 S1631 1.613 . S
N1632 C1635 1.350 . S
N1633 S1631 1.610 . S
N1633 C1634 1.351 . S
C1634 C1628 1.428 . S
C1634 N1633 1.351 . S
C1634 C1635 1.434 . S
C1635 C1626 1.429 . S
C1635 N1632 1.350 . S
C1635 C1634 1.434 . S
C1636 C1637 1.375 . S
C1636 C1638 1.411 1_554 S
C1636 H1640 0.933 . S
C1637 C1636 1.375 . S
C1637 C1646 1.429 . S
C1638 C1636 1.411 1_556 S
C1638 C1639 1.363 . S
C1638 H1641 0.929 . S
C1639 C1638 1.363 . S
C1639 C1645 1.428 . S
H1640 C1636 0.933 . S
H1641 C1638 0.929 . S
S1642 N1643 1.613 . S
S1642 N1644 1.610 1_554 S
N1643 S1642 1.613 . S
N1643 C1646 1.350 . S
N1644 S1642 1.610 1_556 S
N1644 C1645 1.351 . S
C1645 C1639 1.428 . S
C1645 N1644 1.351 . S
C1645 C1646 1.434 1_556 S
C1646 C1637 1.429 . S
C1646 N1643 1.350 . S
C1646 C1645 1.434 1_554 S
C1647 C1648 1.369 . S
C1647 C1649 1.419 1_655 S
C1647 H1651 0.930 . S
C1648 C1647 1.369 . S
C1648 C1657 1.429 . S
C1649 C1647 1.419 1_455 S
C1649 C1650 1.363 . S
C1649 H1652 0.929 . S
C1650 C1649 1.363 . S
C1650 C1656 1.428 . S
H1651 C1647 0.930 . S
H1652 C1649 0.929 . S
S1653 N1654 1.613 . S
S1653 N1655 1.610 1_655 S
N1654 S1653 1.613 . S
N1654 C1657 1.350 . S
N1655 S1653 1.610 1_455 S
N1655 C1656 1.351 . S
C1656 C1650 1.428 . S
C1656 N1655 1.351 . S
C1656 C1657 1.434 1_455 S
C1657 C1648 1.429 . S
C1657 N1654 1.350 . S
C1657 C1656 1.434 1_655 S
C1658 C1659 1.369 1_554 S
C1658 C1660 1.419 1_455 S
C1658 H1662 0.930 . S
C1659 C1658 1.369 1_556 S
C1659 C1668 1.429 . S
C1660 C1658 1.419 1_655 S
C1660 C1661 1.363 . S
C1660 H1663 0.929 . S
C1661 C1660 1.363 . S
C1661 C1667 1.428 1_554 S
H1662 C1658 0.930 . S
H1663 C1660 0.929 . S
S1664 N1665 1.613 1_655 S
S1664 N1666 1.610 . S
N1665 S1664 1.613 1_455 S
N1665 C1668 1.350 . S
N1666 S1664 1.610 . S
N1666 C1667 1.351 . S
C1667 C1661 1.428 1_556 S
C1667 N1666 1.351 . S
C1667 C1668 1.434 1_655 S
C1668 C1659 1.429 . S
C1668 N1665 1.350 . S
C1668 C1667 1.434 1_455 S
C1669 C1670 1.369 . S
C1669 C1671 1.419 . S
C1669 H1673 0.930 . S
C1670 C1669 1.369 . S
C1670 C1679 1.429 . S
C1671 C1669 1.419 . S
C1671 C1672 1.363 . S
C1671 H1674 0.929 . S
C1672 C1671 1.363 . S
C1672 C1678 1.428 . S
H1673 C1669 0.930 . S
H1674 C1671 0.929 . S
S1675 N1676 1.613 . S
S1675 N1677 1.610 . S
N1676 S1675 1.613 . S
N1676 C1679 1.350 . S
N1677 S1675 1.610 . S
N1677 C1678 1.351 . S
C1678 C1672 1.428 . S
C1678 N1677 1.351 . S
C1678 C1679 1.434 . S
C1679 C1670 1.429 . S
C1679 N1676 1.350 . S
C1679 C1678 1.434 . S
C1680 C1681 1.369 . S
C1680 C1682 1.419 . S
C1680 H1684 0.930 . S
C1681 C1680 1.369 . S
C1681 C1690 1.429 . S
C1682 C1680 1.419 . S
C1682 C1683 1.363 . S
C1682 H1685 0.929 . S
C1683 C1682 1.363 . S
C1683 C1689 1.428 . S
H1684 C1680 0.930 . S
H1685 C1682 0.929 . S
S1686 N1687 1.613 . S
S1686 N1688 1.610 . S
N1687 S1686 1.613 . S
N1687 C1690 1.350 . S
N1688 S1686 1.610 . S
N1688 C1689 1.351 . S
C1689 C1683 1.428 . S
C1689 N1688 1.351 . S
C1689 C1690 1.434 . S
C1690 C1681 1.429 . S
C1690 N1687 1.350 . S
C1690 C1689 1.434 . S
C1691 C1692 1.369 . S
C1691 C1693 1.419 . S
C1691 H1695 0.930 . S
C1692 C1691 1.369 . S
C1692 C1701 1.429 . S
C1693 C1691 1.419 . S
C1693 C1694 1.363 . S
C1693 H1696 0.929 . S
C1694 C1693 1.363 . S
C1694 C1700 1.428 . S
H1695 C1691 0.930 . S
H1696 C1693 0.929 . S
S1697 N1698 1.613 . S
S1697 N1699 1.610 . S
N1698 S1697 1.613 . S
N1698 C1701 1.350 . S
N1699 S1697 1.610 . S
N1699 C1700 1.351 . S
C1700 C1694 1.428 . S
C1700 N1699 1.351 . S
C1700 C1701 1.434 . S
C1701 C1692 1.429 . S
C1701 N1698 1.350 . S
C1701 C1700 1.434 . S
C1702 C1703 1.369 . S
C1702 C1704 1.419 . S
C1702 H1706 0.930 . S
C1703 C1702 1.369 . S
C1703 C1712 1.429 . S
C1704 C1702 1.419 . S
C1704 C1705 1.363 . S
C1704 H1707 0.929 . S
C1705 C1704 1.363 . S
C1705 C1711 1.428 . S
H1706 C1702 0.930 . S
H1707 C1704 0.929 . S
S1708 N1709 1.613 . S
S1708 N1710 1.610 . S
N1709 S1708 1.613 . S
N1709 C1712 1.350 . S
N1710 S1708 1.610 . S
N1710 C1711 1.351 . S
C1711 C1705 1.428 . S
C1711 N1710 1.351 . S
C1711 C1712 1.434 . S
C1712 C1703 1.429 . S
C1712 N1709 1.350 . S
C1712 C1711 1.434 . S
C1713 C1714 1.369 . S
C1713 C1715 1.419 . S
C1713 H1717 0.930 . S
C1714 C1713 1.369 . S
C1714 C1723 1.429 . S
C1715 C1713 1.419 . S
C1715 C1716 1.363 . S
C1715 H1718 0.929 . S
C1716 C1715 1.363 . S
C1716 C1722 1.428 . S
H1717 C1713 0.930 . S
H1718 C1715 0.929 . S
S1719 N1720 1.613 . S
S1719 N1721 1.610 . S
N1720 S1719 1.613 . S
N1720 C1723 1.350 . S
N1721 S1719 1.610 . S
N1721 C1722 1.351 . S
C1722 C1716 1.428 . S
C1722 N1721 1.351 . S
C1722 C1723 1.434 . S
C1723 C1714 1.429 . S
C1723 N1720 1.350 . S
C1723 C1722 1.434 . S
C1724 C1725 1.369 . S
C1724 C1726 1.419 . S
C1724 H1728 0.930 . S
C1725 C1724 1.369 . S
C1725 C1734 1.429 . S
C1726 C1724 1.419 . S
C1726 C1727 1.363 . S
C1726 H1729 0.929 . S
C1727 C1726 1.363 . S
C1727 C1733 1.428 . S
H1728 C1724 0.930 . S
H1729 C1726 0.929 . S
S1730 N1731 1.613 . S
S1730 N1732 1.610 . S
N1731 S1730 1.613 . S
N1731 C1734 1.350 . S
N1732 S1730 1.610 . S
N1732 C1733 1.351 . S
C1733 C1727 1.428 . S
C1733 N1732 1.351 . S
C1733 C1734 1.434 . S
C1734 C1725 1.429 . S
C1734 N1731 1.350 . S
C1734 C1733 1.434 . S
C1735 C1736 1.369 . S
C1735 C1737 1.419 . S
C1735 H1739 0.930 . S
C1736 C1735 1.369 . S
C1736 C1745 1.429 . S
C1737 C1735 1.419 . S
C1737 C1738 1.363 . S
C1737 H1740 0.929 . S
C1738 C1737 1.363 . S
C1738 C1744 1.428 . S
H1739 C1735 0.930 . S
H1740 C1737 0.929 . S
S1741 N1742 1.613 . S
S1741 N1743 1.610 . S
N1742 S1741 1.613 . S
N1742 C1745 1.350 . S
N1743 S1741 1.610 . S
N1743 C1744 1.351 . S
C1744 C1738 1.428 . S
C1744 N1743 1.351 . S
C1744 C1745 1.434 . S
C1745 C1736 1.429 . S
C1745 N1742 1.350 . S
C1745 C1744 1.434 . S
C1746 C1747 1.369 . S
C1746 C1748 1.419 . S
C1746 H1750 0.930 . S
C1747 C1746 1.369 . S
C1747 C1756 1.429 . S
C1748 C1746 1.419 . S
C1748 C1749 1.363 . S
C1748 H1751 0.929 . S
C1749 C1748 1.363 . S
C1749 C1755 1.428 . S
H1750 C1746 0.930 . S
H1751 C1748 0.929 . S
S1752 N1753 1.613 . S
S1752 N1754 1.610 . S
N1753 S1752 1.613 . S
N1753 C1756 1.350 . S
N1754 S1752 1.610 . S
N1754 C1755 1.351 . S
C1755 C1749 1.428 . S
C1755 N1754 1.351 . S
C1755 C1756 1.434 . S
C1756 C1747 1.429 . S
C1756 N1753 1.350 . S
C1756 C1755 1.434 . S
C1757 C1758 1.369 . S
C1757 C1759 1.419 . S
C1757 H1761 0.930 . S
C1758 C1757 1.369 . S
C1758 C1767 1.429 . S
C1759 C1757 1.419 . S
C1759 C1760 1.363 . S
C1759 H1762 0.929 . S
C1760 C1759 1.363 . S
C1760 C1766 1.428 . S
H1761 C1757 0.930 . S
H1762 C1759 0.929 . S
S1763 N1764 1.613 . S
S1763 N1765 1.610 . S
N1764 S1763 1.613 . S
N1764 C1767 1.350 . S
N1765 S1763 1.610 . S
N1765 C1766 1.351 . S
C1766 C1760 1.428 . S
C1766 N1765 1.351 . S
C1766 C1767 1.434 . S
C1767 C1758 1.429 . S
C1767 N1764 1.350 . S
C1767 C1766 1.434 . S
C1768 C1769 1.369 . S
C1768 C1770 1.419 . S
C1768 H1772 0.930 . S
C1769 C1768 1.369 . S
C1769 C1778 1.429 . S
C1770 C1768 1.419 . S
C1770 C1771 1.363 . S
C1770 H1773 0.929 . S
C1771 C1770 1.363 . S
C1771 C1777 1.428 . S
H1772 C1768 0.930 . S
H1773 C1770 0.929 . S
S1774 N1775 1.613 . S
S1774 N1776 1.610 . S
N1775 S1774 1.613 . S
N1775 C1778 1.350 . S
N1776 S1774 1.610 . S
N1776 C1777 1.351 . S
C1777 C1771 1.428 . S
C1777 N1776 1.351 . S
C1777 C1778 1.434 . S
C1778 C1769 1.429 . S
C1778 N1775 1.350 . S
C1778 C1777 1.434 . S
C1779 C1780 1.369 . S
C1779 C1781 1.419 . S
C1779 H1783 0.930 . S
C1780 C1779 1.369 . S
C1780 C1789 1.429 . S
C1781 C1779 1.419 . S
C1781 C1782 1.363 . S
C1781 H1784 0.929 . S
C1782 C1781 1.363 . S
C1782 C1788 1.428 . S
H1783 C1779 0.930 . S
H1784 C1781 0.929 . S
S1785 N1786 1.613 . S
S1785 N1787 1.610 . S
N1786 S1785 1.613 . S
N1786 C1789 1.350 . S
N1787 S1785 1.610 . S
N1787 C1788 1.351 . S
C1788 C1782 1.428 . S
C1788 N1787 1.351 . S
C1788 C1789 1.434 . S
C1789 C1780 1.429 . S
C1789 N1786 1.350 . S
C1789 C1788 1.434 . S
C1790 C1791 1.369 . S
C1790 C1792 1.419 . S
C1790 H1794 0.930 . S
C1791 C1790 1.369 . S
C1791 C1800 1.429 . S
C1792 C1790 1.419 . S
C1792 C1793 1.363 . S
C1792 H1795 0.929 . S
C1793 C1792 1.363 . S
C1793 C1799 1.428 . S
H1794 C1790 0.930 . S
H1795 C1792 0.929 . S
S1796 N1797 1.613 . S
S1796 N1798 1.610 . S
N1797 S1796 1.613 . S
N1797 C1800 1.350 . S
N1798 S1796 1.610 . S
N1798 C1799 1.351 . S
C1799 C1793 1.428 . S
C1799 N1798 1.351 . S
C1799 C1800 1.434 . S
C1800 C1791 1.429 . S
C1800 N1797 1.350 . S
C1800 C1799 1.434 . S
C1801 C1802 1.369 . S
C1801 C1803 1.419 . S
C1801 H1805 0.930 . S
C1802 C1801 1.369 . S
C1802 C1811 1.429 . S
C1803 C1801 1.419 . S
C1803 C1804 1.363 . S
C1803 H1806 0.929 . S
C1804 C1803 1.363 . S
C1804 C1810 1.428 . S
H1805 C1801 0.930 . S
H1806 C1803 0.929 . S
S1807 N1808 1.613 . S
S1807 N1809 1.610 . S
N1808 S1807 1.613 . S
N1808 C1811 1.350 . S
N1809 S1807 1.610 . S
N1809 C1810 1.351 . S
C1810 C1804 1.428 . S
C1810 N1809 1.351 . S
C1810 C1811 1.434 . S
C1811 C1802 1.429 . S
C1811 N1808 1.350 . S
C1811 C1810 1.434 . S
C1812 C1813 1.369 . S
C1812 C1814 1.419 . S
C1812 H1816 0.930 . S
C1813 C1812 1.369 . S
C1813 C1822 1.429 . S
C1814 C1812 1.419 . S
C1814 C1815 1.363 . S
C1814 H1817 0.929 . S
C1815 C1814 1.363 . S
C1815 C1821 1.428 . S
H1816 C1812 0.930 . S
H1817 C1814 0.929 . S
S1818 N1819 1.613 . S
S1818 N1820 1.610 . S
N1819 S1818 1.613 . S
N1819 C1822 1.350 . S
N1820 S1818 1.610 . S
N1820 C1821 1.351 . S
C1821 C1815 1.428 . S
C1821 N1820 1.351 . S
C1821 C1822 1.434 . S
C1822 C1813 1.429 . S
C1822 N1819 1.350 . S
C1822 C1821 1.434 . S
C1823 C1824 1.369 . S
C1823 C1825 1.419 . S
C1823 H1827 0.930 . S
C1824 C1823 1.369 . S
C1824 C1833 1.429 . S
C1825 C1823 1.419 . S
C1825 C1826 1.363 . S
C1825 H1828 0.929 . S
C1826 C1825 1.363 . S
C1826 C1832 1.428 . S
H1827 C1823 0.930 . S
H1828 C1825 0.929 . S
S1829 N1830 1.613 . S
S1829 N1831 1.610 . S
N1830 S1829 1.613 . S
N1830 C1833 1.350 . S
N1831 S1829 1.610 . S
N1831 C1832 1.351 . S
C1832 C1826 1.428 . S
C1832 N1831 1.351 . S
C1832 C1833 1.434 . S
C1833 C1824 1.429 . S
C1833 N1830 1.350 . S
C1833 C1832 1.434 . S
C1834 C1835 1.369 . S
C1834 C1836 1.419 . S
C1834 H1838 0.930 . S
C1835 C1834 1.369 . S
C1835 C1844 1.429 . S
C1836 C1834 1.419 . S
C1836 C1837 1.363 . S
C1836 H1839 0.929 . S
C1837 C1836 1.363 . S
C1837 C1843 1.428 . S
H1838 C1834 0.930 . S
H1839 C1836 0.929 . S
S1840 N1841 1.613 . S
S1840 N1842 1.610 . S
N1841 S1840 1.613 . S
N1841 C1844 1.350 . S
N1842 S1840 1.610 . S
N1842 C1843 1.351 . S
C1843 C1837 1.428 . S
C1843 N1842 1.351 . S
C1843 C1844 1.434 . S
C1844 C1835 1.429 . S
C1844 N1841 1.350 . S
C1844 C1843 1.434 . S
C1845 C1846 1.369 . S
C1845 C1847 1.419 . S
C1845 H1849 0.930 . S
C1846 C1845 1.369 . S
C1846 C1855 1.429 . S
C1847 C1845 1.419 . S
C1847 C1848 1.363 . S
C1847 H1850 0.929 . S
C1848 C1847 1.363 . S
C1848 C1854 1.428 . S
H1849 C1845 0.930 . S
H1850 C1847 0.929 . S
S1851 N1852 1.613 . S
S1851 N1853 1.610 . S
N1852 S1851 1.613 . S
N1852 C1855 1.350 . S
N1853 S1851 1.610 . S
N1853 C1854 1.351 . S
C1854 C1848 1.428 . S
C1854 N1853 1.351 . S
C1854 C1855 1.434 . S
C1855 C1846 1.429 . S
C1855 N1852 1.350 . S
C1855 C1854 1.434 . S
C1153 C327 1.326 . S
C1155 C2 1.365 . S
C1164 C38 1.386 . S
C1166 C938 1.268 . S
C1175 C399 1.325 . S
C1177 C74 1.365 . S
C1186 C866 1.269 . S
C1188 C110 1.379 . S
C1197 C146 1.360 . S
C1199 C543 1.329 . S
C1208 C1010 1.276 . S
C1210 C182 1.384 . S
C1219 C218 1.366 . S
C1221 C471 1.321 . S
C1230 C1082 1.274 . S
C1232 C254 1.384 . S
C1241 C39 1.189 . S
C1243 C291 1.226 . S
C1252 C326 1.306 1_655 S
C1254 C651 1.258 . S
C1263 C111 1.189 . S
C1265 C363 1.226 . S
C1274 C398 1.307 . S
C1276 C579 1.259 . S
C1285 C435 1.228 . S
C1287 C255 1.182 . S
C1296 C723 1.260 . S
C1298 C470 1.306 . S
C1307 C507 1.228 . S
C1309 C183 1.183 . S
C1318 C795 1.258 . S
C1320 C542 1.306 1_655 S
C1329 C903 1.323 . S
C1331 C578 1.365 . S
C1340 C362 1.275 . S
C1342 C614 1.384 . S
C1351 C650 1.359 . S
C1353 C975 1.324 . S
C1362 C290 1.276 . S
C1364 C686 1.384 . S
C1373 C1119 1.327 . S
C1375 C722 1.364 . S
C1384 C758 1.384 . S
C1386 C434 1.273 . S
C1395 C1047 1.320 . S
C1397 C794 1.361 . S
C1406 C506 1.261 . S
C1408 C830 1.383 . S
C1417 C615 1.177 . S
C1419 C867 1.229 . S
C1428 C902 1.304 . S
C1430 C75 1.258 . S
C1439 C939 1.226 . S
C1441 C687 1.186 . S
C1450 C974 1.301 1_455 S
C1452 C3 1.260 . S
C1461 C831 1.179 . S
C1463 C1011 1.229 . S
C1472 C1046 1.301 1_455 S
C1474 C147 1.261 . S
C1483 C1083 1.225 . S
C1485 C759 1.188 . S
C1494 C1118 1.301 . S
C1496 C219 1.266 . S
C1505 C878 1.700 . S
C1507 C4 1.559 . S
C1516 C40 1.467 . S
C1518 C328 1.461 . S
C1527 C76 1.559 . S
C1529 C950 1.696 . S
C1538 C112 1.473 . S
C1540 C400 1.456 . S
C1549 C148 1.553 . S
C1551 C1022 1.701 . S
C1560 C184 1.464 . S
C1562 C472 1.462 . S
C1571 C1094 1.693 . S
C1573 C220 1.564 . S
C1582 C256 1.472 . S
C1584 C544 1.457 . S
C1593 C302 1.702 . S
C1595 C580 1.556 . S
C1604 C374 1.701 . S
C1606 C652 1.557 . S
C1615 C724 1.562 . S
C1617 C446 1.698 . S
C1626 C796 1.552 . S
C1628 C518 1.701 . S
C1637 C616 1.461 . S
C1639 C904 1.465 . S
C1648 C976 1.463 . S
C1650 C688 1.465 . S
C1659 C760 1.472 . S
C1661 C1048 1.457 . S
C1670 C1120 1.465 . S
C1672 C832 1.463 . S
C1681 C770 1.660 . S
C1683 C14 1.657 . S
C1692 C806 1.657 . S
C1694 C50 1.662 . S
C1703 C86 1.654 . S
C1705 C842 1.662 . S
C1714 C734 1.656 . S
C1716 C122 1.661 . S
C1725 C698 1.661 . S
C1727 C158 1.658 . S
C1736 C590 1.655 . S
C1738 C194 1.661 . S
C1747 C230 1.654 . S
C1749 C626 1.663 . S
C1758 C662 1.658 . S
C1760 C266 1.662 . S
C1769 C1058 1.610 . S
C1771 C292 1.625 . S
C1780 C1084 1.624 . S
C1782 C338 1.607 . S
C1791 C1130 1.605 . S
C1793 C364 1.623 . S
C1802 C410 1.605 . S
C1804 C1012 1.622 . S
C1813 C986 1.610 . S
C1815 C436 1.625 . S
C1824 C868 1.624 . S
C1826 C482 1.608 . S
C1835 C914 1.608 . S
C1837 C508 1.624 . S
C1846 C940 1.624 . S
C1848 C554 1.607 . S
