# Generated by pormake.
# Topology loh, (5)-cn, num edge types: 1
# Building blocks:
#     Node 0, Type 0, BuildingBlock: XOMCOT_clean_sbu_1, # of connection points: 5
#     Node 1, Type 0, BuildingBlock: XOMCOT_clean_sbu_1, # of connection points: 5
#     Node 2, Type 0, BuildingBlock: XOMCOT_clean_sbu_1, # of connection points: 5
#     Node 3, Type 0, BuildingBlock: XOMCOT_clean_sbu_1, # of connection points: 5
#     Node 4, Type 0, BuildingBlock: XOMCOT_clean_sbu_1, # of connection points: 5
#     Node 5, Type 0, BuildingBlock: XOMCOT_clean_sbu_1, # of connection points: 5
#     Node 6, Type 0, BuildingBlock: XOMCOT_clean_sbu_1, # of connection points: 5
#     Node 7, Type 0, BuildingBlock: XOMCOT_clean_sbu_1, # of connection points: 5
#     Edge 8, Type (0, 0), BuildingBlock: ZUJKAS_clean_linker_0, # of connection points: 2
#     Edge 9, Type (0, 0), BuildingBlock: ZUJKAS_clean_linker_0, # of connection points: 2
#     Edge 10, Type (0, 0), BuildingBlock: ZUJKAS_clean_linker_0, # of connection points: 2
#     Edge 11, Type (0, 0), BuildingBlock: ZUJKAS_clean_linker_0, # of connection points: 2
#     Edge 12, Type (0, 0), BuildingBlock: ZUJKAS_clean_linker_0, # of connection points: 2
#     Edge 13, Type (0, 0), BuildingBlock: ZUJKAS_clean_linker_0, # of connection points: 2
#     Edge 14, Type (0, 0), BuildingBlock: ZUJKAS_clean_linker_0, # of connection points: 2
#     Edge 15, Type (0, 0), BuildingBlock: ZUJKAS_clean_linker_0, # of connection points: 2
#     Edge 16, Type (0, 0), BuildingBlock: ZUJKAS_clean_linker_0, # of connection points: 2
#     Edge 17, Type (0, 0), BuildingBlock: ZUJKAS_clean_linker_0, # of connection points: 2
#     Edge 18, Type (0, 0), BuildingBlock: ZUJKAS_clean_linker_0, # of connection points: 2
#     Edge 19, Type (0, 0), BuildingBlock: ZUJKAS_clean_linker_0, # of connection points: 2
#     Edge 20, Type (0, 0), BuildingBlock: ZUJKAS_clean_linker_0, # of connection points: 2
#     Edge 21, Type (0, 0), BuildingBlock: ZUJKAS_clean_linker_0, # of connection points: 2
#     Edge 22, Type (0, 0), BuildingBlock: ZUJKAS_clean_linker_0, # of connection points: 2
#     Edge 23, Type (0, 0), BuildingBlock: ZUJKAS_clean_linker_0, # of connection points: 2
#     Edge 24, Type (0, 0), BuildingBlock: ZUJKAS_clean_linker_0, # of connection points: 2
#     Edge 25, Type (0, 0), BuildingBlock: ZUJKAS_clean_linker_0, # of connection points: 2
#     Edge 26, Type (0, 0), BuildingBlock: ZUJKAS_clean_linker_0, # of connection points: 2
#     Edge 27, Type (0, 0), BuildingBlock: ZUJKAS_clean_linker_0, # of connection points: 2
# Relax obj value: 0.196
# Max RMSD: 0.135
# Mean RMSD: 0.135
data_MOF--net-loh--node1-XOMCOT_clean_sbu_1--edge1-ZUJKAS_clean_linker_0
_symmetry_space_group_name_H-M    P1
_symmetry_Int_Tables_number       1
_symmetry_cell_setting            triclinic
loop_
_symmetry_equiv_pos_as_xyz
'x, y, z'
_cell_length_a     34.90062
_cell_length_b     31.330077
_cell_length_c     51.52602
_cell_angle_alpha  89.934892
_cell_angle_beta   90.036484
_cell_angle_gamma 90.003712
loop_
_atom_site_label
_atom_site_type_symbol
_atom_site_fract_x
_atom_site_fract_y
_atom_site_fract_z
_atom_type_partial_charge
C0 C 1.00246 0.14553 0.14035 0.0
C1 C 1.0084 0.10715 0.15249 0.0
N2 N 1.0216 0.11477 0.17653 0.0
N3 N 1.01241 0.17802 0.15629 0.0
C4 C 1.02359 0.15787 0.17846 0.0
H5 H 0.99044 0.14894 0.12115 0.0
Co6 Co 1.00693 0.23784 0.14933 0.0
C7 C 1.0225 0.2613 0.19924 0.0
O8 O 0.9867 0.24912 0.20203 0.0
N9 N 1.00074 0.29567 0.14327 0.0
C10 C 0.97712 0.3613 0.14518 0.0
C11 C 0.97499 0.32074 0.15534 0.0
C12 C 1.01826 0.32147 0.12598 0.0
N13 N 1.00432 0.36161 0.12662 0.0
O14 O 0.05301 0.23727 0.12686 0.0
H15 H 0.95536 0.30994 0.17017 0.0
H16 H 0.03954 0.31063 0.11227 0.0
O17 O 0.03953 0.2527 0.17799 0.0
C18 C 0.06653 0.21474 0.10829 0.0
O19 O 0.04701 0.18204 0.0995 0.0
N20 N 0.97185 0.22718 0.12206 0.0
C21 C 0.90865 0.22792 0.08844 0.0
C22 C 0.90458 0.2158 0.1145 0.0
C23 C 0.93651 0.21574 0.13095 0.0
C24 C 0.97649 0.23894 0.09668 0.0
C25 C 0.94538 0.23862 0.07944 0.0
H26 H 0.93277 0.20843 0.15132 0.0
H27 H 1.00352 0.25122 0.08985 0.0
H28 H 1.03277 0.17424 0.19583 0.0
H29 H 1.00208 0.07596 0.14454 0.0
H30 H 0.95953 0.3882 0.15079 0.0
H31 H 0.87674 0.20753 0.1223 0.0
H32 H 0.94959 0.24924 0.05963 0.0
C33 C 0.60383 0.87668 0.63995 0.0
C34 C 0.60134 0.91502 0.65247 0.0
N35 N 0.59027 0.90799 0.6771 0.0
N36 N 0.5936 0.84459 0.65611 0.0
C37 C 0.58557 0.86501 0.67878 0.0
H38 H 0.61349 0.87299 0.62018 0.0
Co39 Co 0.59736 0.78471 0.64868 0.0
C40 C 0.58353 0.76093 0.69898 0.0
O41 O 0.61978 0.7718 0.70096 0.0
N42 N 0.60213 0.7268 0.64205 0.0
C43 C 0.62348 0.66011 0.64315 0.0
C44 C 0.62613 0.69986 0.65436 0.0
C45 C 0.58522 0.70291 0.62353 0.0
N46 N 0.59775 0.66221 0.62367 0.0
O47 O 0.55039 0.78628 0.6271 0.0
H48 H 0.64511 0.70883 0.67001 0.0
H49 H 0.56561 0.71555 0.60924 0.0
O50 O 0.56578 0.7701 0.67804 0.0
C51 C 0.53377 0.81099 0.61082 0.0
O52 O 0.54973 0.84735 0.60437 0.0
N53 N 0.63115 0.79532 0.6207 0.0
C54 C 0.69186 0.79816 0.58505 0.0
C55 C 0.69774 0.80773 0.61136 0.0
C56 C 0.66715 0.8056 0.62884 0.0
C57 C 0.6245 0.78654 0.59511 0.0
C58 C 0.65447 0.78794 0.57697 0.0
H59 H 0.67236 0.81088 0.64929 0.0
H60 H 0.59656 0.77647 0.58863 0.0
H61 H 0.57787 0.84868 0.6965 0.0
H62 H 0.60765 0.94575 0.64389 0.0
H63 H 0.63985 0.63219 0.64862 0.0
H64 H 0.72611 0.81488 0.61869 0.0
H65 H 0.64853 0.78022 0.55689 0.0
C66 C 1.00004 0.87926 0.90863 0.0
C67 C 1.00524 0.91754 0.89633 0.0
N68 N 1.0204 0.91016 0.87279 0.0
N69 N 1.01211 0.84687 0.89329 0.0
C70 C 1.02414 0.86709 0.87135 0.0
H71 H 0.98771 0.8759 0.92773 0.0
Co72 Co 1.00752 0.78696 0.9007 0.0
C73 C 1.02128 0.7635 0.85038 0.0
O74 O 0.98562 0.77634 0.84791 0.0
N75 N 1.00211 0.72912 0.90724 0.0
C76 C 0.9805 0.6626 0.90546 0.0
C77 C 0.97799 0.7027 0.89467 0.0
C78 C 1.01897 0.70459 0.9255 0.0
N79 N 1.00626 0.66394 0.92496 0.0
O80 O 0.05437 0.78803 0.92225 0.0
H81 H 0.95921 0.71221 0.87901 0.0
H82 H 0.03889 0.71669 0.93976 0.0
O83 O 0.03891 0.77195 0.87145 0.0
C84 C 0.0704 0.81317 0.93851 0.0
O85 O 0.05373 0.84924 0.94472 0.0
N86 N 0.97384 0.7977 0.9287 0.0
C87 C 0.91326 0.79953 0.96447 0.0
C88 C 0.9072 0.80941 0.9382 0.0
C89 C 0.93772 0.80774 0.92066 0.0
C90 C 0.98061 0.78854 0.95425 0.0
C91 C 0.95073 0.78952 0.97244 0.0
H92 H 0.93238 0.81314 0.90023 0.0
H93 H 1.00854 0.77828 0.96064 0.0
H94 H 1.03515 0.85071 0.85448 0.0
H95 H 0.99716 0.94844 0.90392 0.0
H96 H 0.96416 0.63489 0.8996 0.0
H97 H 0.87874 0.81638 0.93096 0.0
H98 H 0.9568 0.7815 0.99247 0.0
C99 C 0.5922 0.14649 0.41198 0.0
C100 C 0.58869 0.10795 0.39969 0.0
N101 N 0.58446 0.11492 0.37407 0.0
N102 N 0.58958 0.17858 0.39454 0.0
C103 C 0.58495 0.15807 0.37149 0.0
H104 H 0.59903 0.15007 0.43223 0.0
Co105 Co 0.59723 0.23801 0.40091 0.0
C106 C 0.58196 0.26354 0.35125 0.0
O107 O 0.61806 0.25249 0.34852 0.0
N108 N 0.6054 0.29579 0.40618 0.0
C109 C 0.63378 0.35908 0.40533 0.0
C110 C 0.63521 0.31778 0.39638 0.0
C111 C 0.58591 0.3243 0.42067 0.0
N112 N 0.60284 0.36302 0.42081 0.0
O113 O 0.55107 0.23951 0.42351 0.0
H114 H 0.6572 0.3042 0.38412 0.0
H115 H 0.56111 0.3162 0.43221 0.0
O116 O 0.56483 0.2535 0.37225 0.0
C117 C 0.53948 0.22301 0.44488 0.0
O118 O 0.56176 0.19685 0.45782 0.0
N119 N 0.6321 0.22626 0.42842 0.0
C120 C 0.69499 0.22341 0.46251 0.0
C121 C 0.69637 0.20322 0.43818 0.0
C122 C 0.66484 0.20548 0.42137 0.0
C123 C 0.63014 0.24584 0.4521 0.0
C124 C 0.66092 0.24426 0.46948 0.0
H125 H 0.66717 0.19206 0.4021 0.0
H126 H 0.60553 0.26482 0.45727 0.0
H127 H 0.58366 0.17432 0.35302 0.0
H128 H 0.59015 0.07711 0.40909 0.0
H129 H 0.65457 0.38382 0.4013 0.0
H130 H 0.72197 0.18674 0.43184 0.0
H131 H 0.6587 0.26141 0.48765 0.0
C132 C 0.50474 0.64662 0.14147 0.0
C133 C 0.5075 0.6086 0.15435 0.0
N134 N 0.51622 0.61643 0.17931 0.0
N135 N 0.51249 0.67933 0.15776 0.0
C136 C 0.51931 0.65959 0.18086 0.0
H137 H 0.49552 0.64962 0.12156 0.0
Co138 Co 0.50705 0.73888 0.15002 0.0
C139 C 0.5189 0.76587 0.19957 0.0
O140 O 0.48235 0.75593 0.20074 0.0
N141 N 0.50049 0.7964 0.14318 0.0
C142 C 0.47116 0.85869 0.13882 0.0
C143 C 0.46916 0.81881 0.14989 0.0
C144 C 0.52148 0.82333 0.12851 0.0
N145 N 0.50403 0.86141 0.12512 0.0
O146 O 0.55448 0.73828 0.12871 0.0
H147 H 0.44541 0.80604 0.16091 0.0
H148 H 0.5482 0.8145 0.1195 0.0
O149 O 0.53775 0.75486 0.17945 0.0
C150 C 0.56905 0.71572 0.11051 0.0
O151 O 0.54999 0.68308 0.10124 0.0
N152 N 0.47395 0.72707 0.12179 0.0
C153 C 0.41327 0.72615 0.08598 0.0
C154 C 0.40821 0.71132 0.11149 0.0
C155 C 0.43873 0.71254 0.1291 0.0
C156 C 0.47974 0.74115 0.09698 0.0
C157 C 0.44994 0.74044 0.07874 0.0
H158 H 0.43384 0.70367 0.14912 0.0
H159 H 0.50664 0.7555 0.09147 0.0
H160 H 0.52468 0.67652 0.19876 0.0
H161 H 0.50259 0.57752 0.14585 0.0
H162 H 0.44881 0.88258 0.13948 0.0
H163 H 0.38036 0.70101 0.1183 0.0
H164 H 0.45534 0.75233 0.05934 0.0
C165 C 0.10272 0.38141 0.64349 0.0
C166 C 0.09622 0.41874 0.65653 0.0
N167 N 0.08265 0.40919 0.6802 0.0
N168 N 0.09265 0.34762 0.65843 0.0
C169 C 0.08102 0.36596 0.68104 0.0
H170 H 0.1142 0.37969 0.62406 0.0
Co171 Co 0.09834 0.28852 0.64948 0.0
C172 C 0.08942 0.26 0.69887 0.0
O173 O 0.12561 0.27159 0.69923 0.0
N174 N 0.10513 0.23147 0.64131 0.0
C175 C 0.13352 0.16857 0.6373 0.0
C176 C 0.13461 0.20741 0.64966 0.0
C177 C 0.08634 0.20667 0.62411 0.0
N178 N 0.10319 0.1682 0.62104 0.0
O179 O 0.05024 0.28951 0.62911 0.0
H180 H 0.15662 0.21828 0.66286 0.0
H181 H 0.06174 0.21731 0.61322 0.0
O182 O 0.06919 0.27058 0.67926 0.0
C183 C 1.03269 0.31529 0.61392 0.0
O184 O 0.04801 0.35239 0.60837 0.0
N185 N 0.13002 0.30214 0.62097 0.0
C186 C 0.18922 0.30478 0.58408 0.0
C187 C 0.19639 0.31313 0.61044 0.0
C188 C 0.16651 0.31146 0.62847 0.0
C189 C 0.12207 0.29443 0.59543 0.0
C190 C 0.15113 0.2963 0.57667 0.0
H191 H 0.17278 0.3155 0.64889 0.0
H192 H 0.09389 0.28432 0.58946 0.0
H193 H 0.07158 0.34821 0.69787 0.0
H194 H 0.10199 0.4506 0.64937 0.0
H195 H 0.15486 0.1437 0.63908 0.0
H196 H 0.22518 0.31866 0.61749 0.0
H197 H 0.14388 0.28973 0.55664 0.0
C198 C 0.52237 0.37545 0.90969 0.0
C199 C 0.52517 0.41477 0.89805 0.0
N200 N 0.51896 0.41014 0.8724 0.0
N201 N 0.51464 0.34559 0.89157 0.0
C202 C 0.51268 0.36778 0.86898 0.0
H203 H 0.52573 0.36907 0.93019 0.0
Co204 Co 0.50558 0.28733 0.89855 0.0
C205 C 0.52108 0.26064 0.84874 0.0
O206 O 0.48554 0.27327 0.84528 0.0
N207 N 0.49569 0.23035 0.90534 0.0
C208 C 0.4699 0.16556 0.9042 0.0
C209 C 0.47017 0.20541 0.89286 0.0
C210 C 0.51034 0.20532 0.92418 0.0
N211 N 0.49539 0.16572 0.92383 0.0
O212 O 0.55045 0.28532 0.92174 0.0
H213 H 0.45239 0.21576 0.87686 0.0
H214 H 0.53031 0.21628 0.93873 0.0
O215 O 0.53757 0.26938 0.87018 0.0
C216 C 0.58446 0.29922 0.91797 0.0
O217 O 0.59262 0.31985 0.89646 0.0
N218 N 0.47166 0.30196 0.92549 0.0
C219 C 0.41054 0.30475 0.96088 0.0
C220 C 0.40424 0.30818 0.93399 0.0
C221 C 0.43513 0.30689 0.91674 0.0
C222 C 0.47895 0.30019 0.95151 0.0
C223 C 0.4488 0.30198 0.96952 0.0
H224 H 0.42974 0.30711 0.89606 0.0
H225 H 0.50778 0.29556 0.95859 0.0
H226 H 0.50594 0.35341 0.85048 0.0
H227 H 0.5317 0.44446 0.90781 0.0
H228 H 0.45222 0.13874 0.89856 0.0
H229 H 0.37556 0.30951 0.92604 0.0
H230 H 0.45549 0.3 0.98999 0.0
C231 C 0.09538 0.64321 0.40797 0.0
C232 C 0.08838 0.60543 0.39551 0.0
N233 N 0.07788 0.61409 0.371 0.0
N234 N 0.08864 0.67645 0.39177 0.0
C235 C 0.07852 0.65725 0.36909 0.0
H236 H 0.10667 0.64553 0.42741 0.0
Co237 Co 0.09772 0.73567 0.39875 0.0
C238 C 0.08405 0.76181 0.34889 0.0
O239 O 0.11966 0.74881 0.34641 0.0
N240 N 0.10769 0.79277 0.40467 0.0
C241 C 0.13937 0.8541 0.4049 0.0
C242 C 0.13818 0.81353 0.39481 0.0
C243 C 0.09043 0.82129 0.4204 0.0
N244 N 0.10938 0.85878 0.4211 0.0
O245 O 0.05135 0.73863 0.42108 0.0
H246 H 0.15904 0.7994 0.38191 0.0
H247 H 0.06595 0.81397 0.43246 0.0
O248 O 0.06632 0.75306 0.36988 0.0
C249 C 0.0372 0.7171 0.43993 0.0
O250 O 0.056 0.68425 0.44922 0.0
N251 N 0.13159 0.72231 0.42638 0.0
C252 C 0.19423 0.71955 0.46064 0.0
C253 C 0.19696 0.70283 0.4354 0.0
C254 C 0.16555 0.70508 0.41854 0.0
C255 C 0.12796 0.73784 0.45105 0.0
C256 C 0.15874 0.73634 0.4685 0.0
H257 H 0.16879 0.69468 0.39865 0.0
H258 H 0.1022 0.7542 0.45693 0.0
H259 H 0.07239 0.67431 0.35133 0.0
H260 H 0.09264 0.57381 0.40351 0.0
H261 H 0.16127 0.8778 0.40123 0.0
H262 H 0.22353 0.68927 0.42838 0.0
H263 H 0.15534 0.75068 0.48747 0.0
H264 H 0.40607 0.25875 1.0066 0.0
H265 H 0.35066 0.24849 0.03463 0.0
H266 H 0.28293 0.32889 0.98451 0.0
H267 H 0.33896 0.34221 0.95747 0.0
H268 H 0.26334 0.34317 0.03262 0.0
H269 H 0.26612 0.168 1.01873 0.0
H270 H 0.30936 0.18755 0.03323 0.0
H271 H 0.29685 0.2034 1.00068 0.0
C272 C 0.37975 0.27516 1.00171 0.0
C273 C 0.37733 0.30101 0.97934 0.0
C274 C 0.34769 0.26853 1.01762 0.0
C275 C 0.31203 0.2867 1.01134 0.0
C276 C 0.30986 0.31393 0.9897 0.0
H277 H 0.09233 0.1881 0.06103 0.0
H278 H 0.15119 0.20808 0.03874 0.0
C279 C 0.34203 0.32115 0.974 0.0
C280 C 0.27684 0.27679 0.02687 0.0
H281 H 0.22196 0.1944 0.04963 0.0
C282 C 0.25428 0.3106 0.0363 0.0
C283 C 0.26442 0.23432 0.03141 0.0
C284 C 0.28521 0.19627 1.02026 0.0
C285 C 0.21991 0.30324 0.04998 0.0
C286 C 0.2082 0.26075 0.05523 0.0
C287 C 0.23089 0.227 0.04591 0.0
C288 C 0.17161 0.25018 0.06904 0.0
C289 C 0.1959 0.34117 0.05777 0.0
C290 C 0.16298 0.26702 0.09369 0.0
C291 C 0.1287 0.25612 0.10639 0.0
C292 C 0.10273 0.2273 0.095 0.0
C293 C 0.11166 0.21019 0.07051 0.0
C294 C 0.14548 0.22161 0.05769 0.0
H295 H 0.20268 0.36974 0.04583 0.0
H296 H 0.16484 0.3342 0.05584 0.0
H297 H 0.20196 0.34925 0.07833 0.0
H298 H 0.18295 0.28817 0.10332 0.0
H299 H 0.12286 0.26969 0.1253 0.0
H300 H 0.49412 0.73512 0.61562 0.0
H301 H 0.43544 0.71382 0.59277 0.0
H302 H 0.4331 0.83523 0.55336 0.0
H303 H 0.49123 0.85685 0.57609 0.0
H304 H 0.36209 0.81188 0.57309 0.0
H305 H 0.42641 0.6795 0.51608 0.0
H306 H 0.43292 0.67635 0.55063 0.0
H307 H 0.45515 0.71883 0.5327 0.0
C308 C 0.48115 0.75729 0.60207 0.0
C309 C 0.49765 0.79768 0.59765 0.0
C310 C 0.44766 0.74495 0.58891 0.0
C311 C 0.43004 0.7727 0.57105 0.0
C312 C 0.44616 0.81318 0.56695 0.0
H313 H 0.2685 0.73733 0.44661 0.0
H314 H 0.32421 0.74659 0.4747 0.0
C315 C 0.47955 0.82547 0.57999 0.0
C316 C 0.39464 0.76024 0.55666 0.0
H317 H 0.36005 0.69137 0.51077 0.0
C318 C 0.36156 0.78532 0.55961 0.0
C319 C 0.39404 0.72584 0.53885 0.0
C320 C 0.42904 0.69869 0.53411 0.0
C321 C 0.32813 0.7773 0.54512 0.0
C322 C 0.32747 0.74287 0.52735 0.0
C323 C 0.36044 0.71752 0.52454 0.0
C324 C 0.29363 0.73434 0.51041 0.0
C325 C 0.29422 0.80673 0.54829 0.0
C326 C 0.25785 0.72345 0.52103 0.0
C327 C 0.22579 0.71776 0.50494 0.0
C328 C 0.22879 0.72266 0.47782 0.0
C329 C 0.26499 0.73255 0.46728 0.0
C330 C 0.29697 0.73814 0.48337 0.0
H331 H 0.30211 0.83673 0.55846 0.0
H332 H 0.28166 0.815 0.52913 0.0
H333 H 0.27183 0.79039 0.55991 0.0
H334 H 0.25466 0.71955 0.5418 0.0
H335 H 0.19864 0.70953 0.51378 0.0
H336 H 0.35285 0.67046 0.07985 0.0
H337 H 0.29591 0.67937 0.05261 0.0
H338 H 0.34045 0.79878 0.024 0.0
H339 H 0.39714 0.79048 0.05133 0.0
H340 H 0.24278 0.74441 0.05475 0.0
H341 H 0.30874 0.73889 0.95703 0.0
H342 H 0.33359 0.72119 0.98585 0.0
H343 H 0.33076 0.77714 0.97824 0.0
C344 C 0.35066 0.69859 0.06772 0.0
C345 C 0.37986 0.72965 0.06782 0.0
C346 C 0.3181 0.70354 0.05204 0.0
C347 C 0.31402 0.73946 0.03593 0.0
C348 C 0.34327 0.77026 0.03574 0.0
H349 H 0.10917 0.85734 0.97598 0.0
H350 H 0.16742 0.83651 0.99895 0.0
C351 C 0.3758 0.76539 0.05142 0.0
C352 C 0.27822 0.74606 1.02057 0.0
H353 H 0.24431 0.76464 0.95924 0.0
C354 C 0.24313 0.74847 0.03384 0.0
C355 C 0.27846 0.75089 0.99323 0.0
C356 C 0.31484 0.74649 0.97768 0.0
C357 C 0.20862 0.75696 1.02069 0.0
C358 C 0.20912 0.76372 0.99352 0.0
C359 C 0.24395 0.75987 0.98009 0.0
C360 C 0.17394 0.7763 0.97897 0.0
C361 C 0.17183 0.75863 0.03601 0.0
C362 C 0.15855 0.74982 0.95958 0.0
C363 C 0.12502 0.76167 0.9463 0.0
C364 C 0.10646 0.80048 0.95198 0.0
C365 C 0.12246 0.82716 0.97111 0.0
C366 C 0.15576 0.81522 0.9844 0.0
H367 H 0.1746 0.74198 0.05497 0.0
H368 H 0.16435 0.79244 0.0399 0.0
H369 H 0.14787 0.74397 0.02497 0.0
H370 H 0.17219 0.71972 0.95497 0.0
H371 H 0.11361 0.74036 0.93168 0.0
H372 H 0.51403 0.20732 0.49395 0.0
H373 H 0.45208 0.22452 0.51285 0.0
H374 H 0.41624 0.28168 0.44064 0.0
H375 H 0.47926 0.2657 0.42167 0.0
H376 H 0.3929 0.32909 0.48104 0.0
H377 H 0.35419 0.16137 0.50078 0.0
H378 H 0.3989 0.1747 0.51583 0.0
H379 H 0.39479 0.17565 0.48095 0.0
C380 C 0.49304 0.22343 0.48194 0.0
C381 C 0.50157 0.23458 0.45612 0.0
C382 C 0.45739 0.23303 0.49279 0.0
C383 C 0.42888 0.2533 0.47802 0.0
C384 C 0.43755 0.26558 0.45239 0.0
H385 H 0.19645 0.25078 0.54211 0.0
H386 H 0.25119 0.24215 0.51328 0.0
C387 C 0.47357 0.25637 0.44155 0.0
C388 C 0.39043 0.26188 0.48967 0.0
H389 H 0.31838 0.21431 0.52404 0.0
C390 C 0.37637 0.30391 0.49018 0.0
C391 C 0.36821 0.22902 0.50112 0.0
C392 C 0.3796 0.18262 0.4994 0.0
C393 C 0.3417 0.31416 0.50274 0.0
C394 C 0.32096 0.28173 0.51586 0.0
C395 C 0.3343 0.23947 0.51439 0.0
C396 C 0.28595 0.29063 0.53174 0.0
C397 C 0.32758 0.35962 0.50149 0.0
C398 C 0.28665 0.32118 0.55169 0.0
C399 C 0.25485 0.32699 0.56791 0.0
C400 C 0.22168 0.30173 0.56505 0.0
C401 C 0.22093 0.27152 0.5448 0.0
C402 C 0.25255 0.26616 0.52836 0.0
H403 H 0.33824 0.37605 0.48379 0.0
H404 H 0.2958 0.36116 0.5016 0.0
H405 H 0.33859 0.37742 0.51854 0.0
H406 H 0.31222 0.3398 0.55529 0.0
H407 H 0.2566 0.35097 0.58298 0.0
H408 H 0.61559 0.78502 0.12103 0.0
H409 H 0.67474 0.80577 0.09845 0.0
H410 H 0.66577 0.69437 0.04981 0.0
H411 H 0.60678 0.67387 0.07176 0.0
H412 H 0.74484 0.76343 0.09193 0.0
H413 H 0.67519 0.79037 0.99679 0.0
H414 H 0.64827 0.78517 0.02653 0.0
H415 H 0.66526 0.73842 1.00984 0.0
C416 C 0.62616 0.76499 0.10549 0.0
C417 C 0.60602 0.72799 0.09807 0.0
C418 C 0.66005 0.77686 0.09262 0.0
C419 C 0.67436 0.75211 0.07204 0.0
C420 C 0.65488 0.7146 0.06517 0.0
H421 H 0.89925 0.73865 1.0016 0.0
H422 H 0.84265 0.73107 0.02913 0.0
C423 C 0.62114 0.70279 0.07791 0.0
C424 C 0.70962 0.76497 0.05764 0.0
H425 H 0.74342 0.78447 0.9965 0.0
C426 C 0.74449 0.76845 0.0711 0.0
C427 C 0.7092 0.77227 0.0305 0.0
C428 C 0.67241 0.77182 1.01509 0.0
C429 C 0.77907 0.77738 0.05804 0.0
C430 C 0.77894 0.78222 0.03068 0.0
C431 C 0.7438 0.78031 1.0174 0.0
C432 C 0.81479 0.78847 1.01525 0.0
C433 C 0.81531 0.78186 0.07377 0.0
C434 C 0.81803 0.82287 0.99785 0.0
C435 C 0.85032 0.82708 0.98187 0.0
C436 C 0.88022 0.79696 0.98288 0.0
C437 C 0.8772 0.76292 1.00063 0.0
C438 C 0.84478 0.75858 1.01648 0.0
H439 H 0.80898 0.791 0.09415 0.0
H440 H 0.83048 0.75075 0.07419 0.0
H441 H 0.83478 0.80611 0.06522 0.0
H442 H 0.79533 0.84633 0.99642 0.0
H443 H 0.85177 0.85386 0.9686 0.0
H444 H 0.99044 0.36156 0.5792 0.0
H445 H 0.9322 0.3404 0.55646 0.0
H446 H 0.93408 0.21868 0.59551 0.0
H447 H 0.99285 0.23954 0.6184 0.0
H448 H 0.9201 0.2117 0.54225 0.0
H449 H 0.82403 0.33249 0.58592 0.0
H450 H 0.8663 0.35544 0.57183 0.0
H451 H 0.87058 0.32011 0.59924 0.0
C452 C 0.97848 0.33033 0.58317 0.0
C453 C 0.99647 0.30233 0.60076 0.0
C454 C 0.94495 0.31836 0.57018 0.0
C455 C 0.92831 0.2782 0.57453 0.0
C456 C 0.94624 0.24995 0.59193 0.0
H457 H 0.69829 0.21853 0.51583 0.0
H458 H 0.75437 0.22772 0.54384 0.0
C459 C 0.97986 0.26195 0.60503 0.0
C460 C 0.8928 0.26564 0.56032 0.0
H461 H 0.80085 0.29734 0.54787 0.0
C462 C 0.89391 0.23018 0.54366 0.0
C463 C 0.85837 0.28932 0.56238 0.0
C464 C 0.8545 0.3262 0.581 0.0
C465 C 0.86206 0.21878 0.52835 0.0
C466 C 0.82832 0.24386 0.52941 0.0
C467 C 0.82678 0.27834 0.54679 0.0
C468 C 0.7946 0.23565 0.51227 0.0
C469 C 0.86484 0.17984 0.51127 0.0
C470 C 0.79835 0.2371 0.48514 0.0
C471 C 0.76629 0.23199 0.46905 0.0
C472 C 0.72955 0.2256 0.47969 0.0
C473 C 0.72598 0.22375 0.5069 0.0
C474 C 0.75809 0.22884 0.52297 0.0
H475 H 0.88719 0.15739 0.51833 0.0
H476 H 0.83705 0.16267 0.5103 0.0
H477 H 0.87279 0.18987 0.49133 0.0
H478 H 0.82595 0.24341 0.47635 0.0
H479 H 0.77017 0.23456 0.44826 0.0
H480 H 0.89813 0.19749 0.03902 0.0
H481 H 0.84207 0.20696 1.0109 0.0
H482 H 0.78667 0.28071 0.07078 0.0
H483 H 0.84182 0.26946 0.09928 0.0
H484 H 0.73623 0.23223 0.04993 0.0
H485 H 0.81521 0.30852 0.9693 0.0
H486 H 0.83297 0.25597 0.97591 0.0
H487 H 0.83747 0.29721 1.0001 0.0
C488 C 0.87392 0.21567 0.04613 0.0
C489 C 0.87441 0.23274 0.07135 0.0
C490 C 0.84196 0.22143 0.02996 0.0
C491 C 0.81023 0.24552 0.03833 0.0
C492 C 0.81063 0.26209 0.06369 0.0
H493 H 0.64292 0.35265 0.93077 0.0
H494 H 0.69548 0.33978 0.9612 0.0
C495 C 0.8422 0.25562 0.08002 0.0
C496 C 0.77649 0.25328 1.02095 0.0
H497 H 0.7508 0.28848 0.96056 0.0
C498 C 0.73947 0.24479 0.03043 0.0
C499 C 0.78031 0.27041 0.9956 0.0
C500 C 0.81859 0.284 0.98473 0.0
C501 C 0.70646 0.25272 1.01542 0.0
C502 C 0.7104 0.26792 0.98961 0.0
C503 C 0.74745 0.27648 0.98018 0.0
C504 C 0.67676 0.27633 0.9722 0.0
C505 C 0.66779 0.24605 0.02789 0.0
C506 C 0.64821 0.24527 0.9681 0.0
C507 C 0.6174 0.25325 0.95126 0.0
C508 C 0.61514 0.29184 0.93742 0.0
C509 C 0.64386 0.32263 0.9412 0.0
C510 C 0.67404 0.31517 0.95856 0.0
H511 H 0.66953 0.24872 0.04936 0.0
H512 H 0.64646 0.26958 1.02075 0.0
H513 H 0.65738 0.21345 1.02331 0.0
H514 H 0.65008 0.21441 0.97746 0.0
H515 H 0.59622 0.22851 0.9483 0.0
H516 H 0.75288 0.85324 0.58138 0.0
H517 H 0.80966 0.84677 0.5538 0.0
H518 H 0.7636 0.73161 0.52029 0.0
H519 H 0.70665 0.73814 0.54759 0.0
H520 H 0.86206 0.78547 0.55373 0.0
H521 H 0.79773 0.79287 0.45573 0.0
H522 H 0.77143 0.80727 0.48457 0.0
H523 H 0.77628 0.75209 0.47539 0.0
C524 C 0.75467 0.82672 0.56797 0.0
C525 C 0.72502 0.7963 0.5667 0.0
C526 C 0.78716 0.82311 0.55214 0.0
C527 C 0.79088 0.78904 0.53459 0.0
C528 C 0.76112 0.75888 0.53306 0.0
H529 H 0.99928 0.67564 0.47876 0.0
H530 H 0.94037 0.69644 0.50062 0.0
C531 C 0.72849 0.76261 0.54878 0.0
C532 C 0.82699 0.78339 0.51935 0.0
H533 H 0.86205 0.76583 0.45822 0.0
C534 C 0.86198 0.78163 0.53282 0.0
C535 C 0.82727 0.77899 0.49196 0.0
C536 C 0.7912 0.78335 0.47603 0.0
C537 C 0.89682 0.77409 0.51989 0.0
C538 C 0.89681 0.76718 0.49273 0.0
C539 C 0.86209 0.77057 0.47907 0.0
C540 C 0.93229 0.75447 0.47852 0.0
C541 C 0.93339 0.77365 0.53553 0.0
C542 C 0.94697 0.77942 0.4581 0.0
C543 C 0.98089 0.76741 0.4453 0.0
C544 C 1.00061 0.73005 0.45261 0.0
C545 C 0.98523 0.70482 0.4727 0.0
C546 C 0.95151 0.71678 0.48538 0.0
H547 H 0.93029 0.79198 0.55386 0.0
H548 H 0.94061 0.74023 0.54073 0.0
H549 H 0.95763 0.78725 0.52427 0.0
H550 H 0.93251 0.80851 0.45232 0.0
H551 H 0.99178 0.78755 0.42989 0.0
H552 H 0.07622 0.32324 0.18944 0.0
H553 H 0.09195 0.38472 0.21702 0.0
H554 H 1.0183 0.33528 0.27706 0.0
H555 H 1.00226 0.27414 0.24964 0.0
H556 H 1.03304 0.44353 0.23734 0.0
H557 H 0.11983 0.3684 0.31524 0.0
H558 H 0.11374 0.3444 0.28363 0.0
H559 H 0.07618 0.34084 0.30735 0.0
C560 C 0.06426 0.32484 0.20881 0.0
C561 C 0.03822 0.29357 0.21745 0.0
C562 C 0.07299 0.36021 0.22444 0.0
C563 C 0.05644 0.36453 0.24915 0.0
C564 C 1.03176 0.33242 0.2582 0.0
H565 H 0.04258 0.53833 0.37698 0.0
H566 H 0.03809 0.48053 0.34535 0.0
C567 C 1.02265 0.29743 0.24251 0.0
C568 C 0.06258 0.40375 0.26491 0.0
H569 H 0.09608 0.43814 0.32354 0.0
C570 C 0.04725 0.4426 0.25606 0.0
C571 C 0.08095 0.4024 0.28934 0.0
C572 C 0.09894 0.36189 0.29946 0.0
C573 C 0.04829 0.47969 0.27151 0.0
C574 C 0.06596 0.47814 0.29626 0.0
C575 C 0.08235 0.43948 0.30467 0.0
C576 C 0.06622 0.51527 0.31444 0.0
C577 C 1.02887 0.51957 0.26165 0.0
C578 C 0.08286 0.55466 0.30759 0.0
C579 C 0.085 0.58813 0.32569 0.0
C580 C 0.07116 0.58251 0.35109 0.0
C581 C 0.05374 0.54348 0.35762 0.0
C582 C 0.05124 0.51038 0.33955 0.0
H583 H 1.0084 0.51249 0.2457 0.0
H584 H 1.01318 0.53601 0.27749 0.0
H585 H 0.05088 0.54179 0.25397 0.0
H586 H 0.09536 0.5591 0.28855 0.0
H587 H 0.09908 0.61759 0.32024 0.0
H588 H 0.52257 0.70615 0.69268 0.0
H589 H 0.50512 0.64603 0.72081 0.0
H590 H 0.59165 0.68428 0.77584 0.0
H591 H 0.60957 0.7438 0.74772 0.0
H592 H 0.59816 0.60056 0.76276 0.0
H593 H 0.44737 0.63635 0.78916 0.0
H594 H 0.45688 0.63621 0.7549 0.0
H595 H 0.47888 0.67588 0.7752 0.0
C596 C 0.53714 0.70246 0.71111 0.0
C597 C 0.56742 0.72995 0.71797 0.0
C598 C 0.52716 0.66796 0.7272 0.0
C599 C 0.54695 0.66056 0.75057 0.0
C600 C 0.57599 0.68914 0.75791 0.0
H601 H 0.50298 0.49394 0.88012 0.0
H602 H 0.50831 0.55206 0.84882 0.0
C603 C 0.58609 0.72336 0.74184 0.0
C604 C 0.5397 0.62156 0.76655 0.0
H605 H 0.47173 0.56903 0.80219 0.0
C606 C 0.57045 0.59364 0.77131 0.0
C607 C 0.50362 0.61251 0.77784 0.0
C608 C 0.46983 0.64194 0.77426 0.0
C609 C 0.56633 0.55738 0.7872 0.0
C610 C 0.5302 0.54812 0.79836 0.0
C611 C 0.49932 0.57582 0.79344 0.0
C612 C 0.52473 0.51168 0.81669 0.0
C613 C 0.60111 0.53017 0.79265 0.0
C614 C 0.53137 0.46922 0.80904 0.0
C615 C 0.52863 0.43568 0.82707 0.0
C616 C 0.51916 0.44393 0.85315 0.0
C617 C 0.51117 0.48635 0.86042 0.0
C618 C 0.51386 0.51971 0.84244 0.0
H619 H 0.62816 0.5468 0.78746 0.0
H620 H 0.6024 0.52106 0.81347 0.0
H621 H 0.59938 0.50048 0.78099 0.0
H622 H 0.53913 0.46205 0.78917 0.0
H623 H 0.53496 0.40352 0.82075 0.0
H624 H 0.09827 0.40401 0.73183 0.0
H625 H 0.09011 0.46144 0.76413 0.0
H626 H 0.03952 0.5417 0.70539 0.0
H627 H 0.04782 0.48494 0.67332 0.0
H628 H 0.12189 0.55274 0.75612 0.0
H629 H 0.96435 0.54349 0.77046 0.0
H630 H 0.99249 0.49853 0.75953 0.0
H631 H 0.98073 0.54084 0.7374 0.0
C632 C 0.08478 0.43365 0.72604 0.0
C633 C 0.07367 0.44005 0.70009 0.0
C634 C 0.08041 0.4665 0.7444 0.0
C635 C 0.06416 0.50583 0.73715 0.0
C636 C 0.05196 0.51161 0.71146 0.0
H637 H 0.9984 0.74845 0.80068 0.0
H638 H 1.01264 0.68601 0.77399 0.0
C639 C 0.05677 0.47919 0.69314 0.0
C640 C 0.06105 0.54187 0.75583 0.0
H641 H 0.99553 0.60546 0.7862 0.0
C642 C 0.09436 0.56405 0.76304 0.0
C643 C 1.0251 0.55674 0.76458 0.0
C644 C 0.98854 0.5336 0.75782 0.0
C645 C 0.09252 0.6017 0.77796 0.0
C646 C 0.0564 0.61707 0.78637 0.0
C647 C 1.02323 0.59403 0.77968 0.0
C648 C 0.05186 0.65742 0.80153 0.0
C649 C 0.12912 0.6256 0.78356 0.0
C650 C 0.06991 0.66303 0.82571 0.0
C651 C 0.06227 0.69926 0.84087 0.0
C652 C 0.03592 0.73029 0.83234 0.0
C653 C 1.01897 0.7253 0.80777 0.0
C654 C 1.02691 0.68941 0.79255 0.0
H655 H 0.15237 0.61651 0.76992 0.0
H656 H 0.12465 0.66063 0.78229 0.0
H657 H 0.13888 0.61783 0.80351 0.0
H658 H 0.08859 0.63852 0.83343 0.0
H659 H 0.07524 0.70163 0.85992 0.0
H660 H 0.5295 0.32591 0.36257 0.0
H661 H 0.51423 0.38879 0.33626 0.0
H662 H 0.58421 0.33968 0.27411 0.0
H663 H 0.60064 0.27766 0.30072 0.0
H664 H 0.60226 0.41963 0.28344 0.0
H665 H 0.44406 0.40948 0.27634 0.0
H666 H 0.46118 0.41003 0.30917 0.0
H667 H 0.47286 0.36588 0.28829 0.0
C668 C 0.54071 0.32792 0.343 0.0
C669 C 0.566 0.29655 0.33362 0.0
C670 C 0.532 0.36402 0.32795 0.0
C671 C 0.54776 0.36907 0.303 0.0
C672 C 0.57171 0.33675 0.29327 0.0
H673 H 0.48371 0.53762 0.17985 0.0
H674 H 0.49222 0.48168 0.2118 0.0
C675 C 0.58086 0.30108 0.30842 0.0
C676 C 0.54161 0.40896 0.28759 0.0
H677 H 0.47284 0.47306 0.26077 0.0
C678 C 0.57391 0.43127 0.27848 0.0
C679 C 0.50468 0.42432 0.28103 0.0
C680 C 0.46872 0.401 0.28899 0.0
C681 C 0.57042 0.46767 0.26262 0.0
C682 C 0.5335 0.48327 0.25624 0.0
C683 C 0.50118 0.46149 0.26581 0.0
C684 C 0.52762 0.51926 0.23758 0.0
C685 C 0.6064 0.48786 0.25195 0.0
C686 C 0.54408 0.55984 0.24141 0.0
C687 C 0.53992 0.59216 0.22262 0.0
C688 C 0.5189 0.58464 0.19974 0.0
C689 C 0.50113 0.54454 0.19668 0.0
C690 C 0.50556 0.5124 0.21522 0.0
H691 H 0.63147 0.46614 0.2535 0.0
H692 H 0.60266 0.49691 0.23127 0.0
H693 H 0.61301 0.51715 0.26317 0.0
H694 H 0.56043 0.56645 0.2588 0.0
H695 H 0.55382 0.62258 0.22577 0.0
H696 H 0.49298 0.78353 0.2482 0.0
H697 H 0.50932 0.84479 0.27535 0.0
H698 H 0.59375 0.88456 0.21925 0.0
H699 H 0.57818 0.82244 0.19224 0.0
H700 H 0.619 0.89817 0.26815 0.0
H701 H 0.47257 0.96364 0.25882 0.0
H702 H 0.47223 0.91079 0.2722 0.0
H703 H 0.48917 0.91928 0.23958 0.0
C704 C 0.51552 0.80488 0.24184 0.0
C705 C 0.53418 0.79811 0.21801 0.0
C706 C 0.52453 0.84024 0.25725 0.0
C707 C 0.55189 0.8702 0.249 0.0
C708 C 0.57221 0.86222 0.22593 0.0
H709 H 0.5565 0.12288 0.32471 0.0
H710 H 0.55187 0.06668 0.29172 0.0
C711 C 0.56348 0.82648 0.21058 0.0
C712 C 0.55853 0.9101 0.26423 0.0
H713 H 0.5119 0.99462 0.29191 0.0
C714 C 0.59562 0.91944 0.27315 0.0
C715 C 0.52834 0.93875 0.27021 0.0
C716 C 0.48844 0.93291 0.25946 0.0
C717 C 0.60296 0.95531 0.28884 0.0
C718 C 0.5722 0.98214 0.29644 0.0
C719 C 0.53546 0.9739 0.28649 0.0
C720 C 0.57702 0.01733 0.31575 0.0
C721 C 0.64373 0.96414 0.29696 0.0
C722 C 0.59245 1.00855 0.34032 0.0
C723 C 0.59552 0.04061 0.35904 0.0
C724 C 0.58255 0.08245 0.35401 0.0
C725 C 0.5671 0.09132 0.32932 0.0
C726 C 0.56425 0.05907 0.31045 0.0
H727 H 0.66442 0.95125 0.28258 0.0
H728 H 0.64906 0.99888 0.29925 0.0
H729 H 0.64946 0.94813 0.31578 0.0
H730 H 0.6016 0.97654 0.34528 0.0
H731 H 0.60814 0.03225 0.37752 0.0
H732 H 0.03899 0.99286 0.88127 0.0
H733 H 0.04565 0.04947 0.84916 0.0
H734 H 1.02746 0.95852 0.7877 0.0
H735 H 1.02 0.90123 0.82003 0.0
H736 H 0.08968 0.01817 0.77919 0.0
H737 H 0.95542 0.10075 0.807 0.0
H738 H 0.9865 0.08937 0.83393 0.0
H739 H 0.96543 0.04613 0.81599 0.0
C740 C 0.03607 0.98472 0.86097 0.0
C741 C 1.02828 0.94243 0.85334 0.0
C742 C 0.03992 0.01726 0.84259 0.0
C743 C 0.03613 1.00852 0.81604 0.0
C744 C 1.03006 0.96609 0.80813 0.0
H745 H 1.02284 0.21247 0.6977 0.0
H746 H 1.00722 0.1503 0.72486 0.0
C747 C 1.02606 0.93331 0.82662 0.0
C748 C 0.0389 0.04403 0.79685 0.0
H749 H 0.99945 0.14063 0.78094 0.0
C750 C 0.0697 0.04468 0.77936 0.0
C751 C 1.01258 0.07848 0.79682 0.0
C752 C 0.97788 0.07862 0.81426 0.0
C753 C 0.07585 0.07971 0.76274 0.0
C754 C 0.05076 0.11522 0.76376 0.0
C755 C 1.01893 0.11368 0.78036 0.0
C756 C 0.05823 0.15485 0.74857 0.0
C757 C 0.10943 0.07863 0.74433 0.0
C758 C 0.09121 0.17909 0.75355 0.0
C759 C 0.1 0.21472 0.73831 0.0
C760 C 0.07599 0.22709 0.71765 0.0
C761 C 0.0419 0.20402 0.71349 0.0
C762 C 1.03304 0.16831 0.72889 0.0
H763 H 0.11974 0.04553 0.74103 0.0
H764 H 0.10176 0.09308 0.72533 0.0
H765 H 0.13341 0.09734 0.75273 0.0
H766 H 0.11066 0.16989 0.76897 0.0
H767 H 0.12639 0.23173 0.74221 0.0
H768 H 0.55 0.90298 0.72259 0.0
H769 H 0.54231 0.95942 0.75515 0.0
H770 H 0.6134 0.04308 0.70935 0.0
H771 H 0.62304 0.98679 0.6779 0.0
H772 H 0.63084 0.05176 0.75852 0.0
H773 H 0.47265 0.06054 0.74849 0.0
H774 H 0.49006 1.00927 0.75862 0.0
H775 H 0.50195 0.02927 0.72688 0.0
C776 C 0.56429 0.93322 0.71958 0.0
C777 C 0.58655 0.94023 0.69717 0.0
C778 C 0.5595 0.96574 0.7381 0.0
C779 C 0.5765 1.00609 0.73448 0.0
C780 C 0.59964 1.01254 0.71259 0.0
H781 H 0.50329 0.24764 0.79791 0.0
H782 H 0.51985 0.18606 0.77106 0.0
C783 C 0.60473 0.98016 0.69432 0.0
C784 C 0.57027 0.04217 0.75299 0.0
H785 H 0.50111 0.10608 0.77934 0.0
C786 C 0.60243 0.06354 0.76313 0.0
C787 C 0.53327 0.05808 0.7588 0.0
C788 C 0.4975 0.03842 0.74747 0.0
C789 C 0.59871 0.10051 0.77844 0.0
C790 C 0.56169 0.11608 0.78452 0.0
C791 C 0.52953 0.09427 0.77477 0.0
C792 C 0.55534 0.15563 0.80017 0.0
C793 C 0.63458 0.12339 0.78704 0.0
C794 C 0.57049 0.15992 0.82535 0.0
C795 C 0.56171 0.19574 0.84057 0.0
C796 C 0.53693 0.22761 0.8311 0.0
C797 C 0.52265 0.22381 0.8057 0.0
C798 C 0.53188 0.1884 0.7904 0.0
H799 H 0.6595 0.11506 0.77463 0.0
H800 H 0.63066 0.15855 0.78657 0.0
H801 H 0.64157 0.11379 0.80723 0.0
H802 H 0.58787 0.13478 0.83369 0.0
H803 H 0.57251 0.1972 0.86026 0.0
H804 H 1.00855 0.11956 0.22853 0.0
H805 H 1.01635 0.06151 0.26046 0.0
H806 H 0.0595 0.97917 0.20027 0.0
H807 H 0.05166 0.03661 0.16849 0.0
H808 H 0.98126 0.9688 0.2522 0.0
H809 H 0.13935 0.97823 0.26458 0.0
H810 H 0.11076 0.02376 0.25506 0.0
H811 H 0.121 0.98246 0.232 0.0
C812 C 1.0202 0.08927 0.22226 0.0
C813 C 1.02944 0.08263 0.19598 0.0
C814 C 1.02436 0.05607 0.24043 0.0
C815 C 0.03846 0.01602 0.2327 0.0
C816 C 0.04859 1.00978 0.20666 0.0
H817 H 0.10663 0.77557 0.29902 0.0
H818 H 0.09175 0.83689 0.27147 0.0
C819 C 0.04403 0.04261 0.18851 0.0
C820 C 0.04202 0.98005 0.25143 0.0
H821 H 0.10832 0.91781 0.2822 0.0
C822 C 1.00894 0.95782 0.25906 0.0
C823 C 0.07817 0.96562 0.2601 0.0
C824 C 0.11447 0.98876 0.25273 0.0
C825 C 1.0112 0.92064 0.27444 0.0
C826 C 0.04751 0.90583 0.28291 0.0
C827 C 0.08047 0.92883 0.27569 0.0
C828 C 0.05248 0.86608 0.29867 0.0
C829 C 0.97481 0.89666 0.28053 0.0
C830 C 1.03464 0.86115 0.32298 0.0
C831 C 0.04266 0.82553 0.33865 0.0
C832 C 0.06919 0.79447 0.3305 0.0
C833 C 0.08596 0.79877 0.30583 0.0
C834 C 0.07763 0.83403 0.29011 0.0
H835 H 0.95139 0.90503 0.26681 0.0
H836 H 0.97949 0.86163 0.27981 0.0
H837 H 0.96515 0.90515 0.30037 0.0
H838 H 1.0158 0.88573 0.33038 0.0
H839 H 1.02981 0.82365 0.35775 0.0
H840 H 0.07046 0.65707 0.95456 0.0
H841 H 0.08228 0.60509 0.98905 0.0
H842 H 0.97503 0.54318 0.97157 0.0
H843 H 0.96243 0.59541 0.93756 0.0
H844 H 1.03251 0.59283 0.03239 0.0
H845 H 0.05328 0.44391 0.9761 0.0
H846 H 0.05818 0.49637 0.96186 0.0
H847 H 1.01145 0.47359 0.96673 0.0
C848 C 0.04937 0.6324 0.95798 0.0
C849 C 1.01529 0.63071 0.94334 0.0
C850 C 0.05635 0.60257 0.97758 0.0
C851 C 1.0297 0.57017 0.98263 0.0
C852 C 0.99628 0.56753 0.96761 0.0
H853 H 0.95875 0.42796 0.11272 0.0
H854 H 0.97192 0.48145 0.07955 0.0
C855 C 0.98915 0.59745 0.94812 0.0
C856 C 1.03501 0.54112 1.00492 0.0
H857 H 0.03792 0.43568 1.0212 0.0
C858 C 1.03434 0.55849 0.03 0.0
C859 C 0.03787 0.49647 1.00166 0.0
C860 C 0.04062 0.47642 0.97513 0.0
C861 C 1.03424 0.5321 0.05199 0.0
C862 C 1.03448 0.48734 0.04867 0.0
C863 C 0.0374 0.47006 1.02364 0.0
C864 C 1.02866 0.45781 0.07068 0.0
C865 C 1.03311 0.55226 0.07855 0.0
C866 C 0.05625 0.42684 0.07667 0.0
C867 C 0.04888 0.39624 0.09575 0.0
C868 C 1.01355 0.39576 0.10893 0.0
C869 C 0.98643 0.42765 0.10329 0.0
C870 C 0.9939 0.4583 0.0843 0.0
H871 H 0.04427 0.58547 0.07813 0.0
H872 H 1.003 0.55339 0.08541 0.0
H873 H 0.05009 0.5334 0.09274 0.0
H874 H 0.08322 0.42594 0.06628 0.0
H875 H 0.07066 0.37261 0.09989 0.0
H876 H 0.64248 0.59539 0.60947 0.0
H877 H 0.63055 0.54538 0.57415 0.0
H878 H 0.52197 0.6059 0.5587 0.0
H879 H 0.53321 0.65571 0.59444 0.0
H880 H 0.56521 0.48831 0.56436 0.0
H881 H 0.58569 0.61509 0.48963 0.0
H882 H 0.60164 0.62158 0.52273 0.0
H883 H 0.55158 0.62502 0.51511 0.0
C884 C 0.6157 0.59765 0.59899 0.0
C885 C 0.58902 0.62994 0.60466 0.0
C886 C 0.60902 0.56914 0.57872 0.0
C887 C 0.57566 0.57246 0.56369 0.0
C888 C 0.54816 0.60336 0.56989 0.0
H889 H 0.5334 0.38146 0.44187 0.0
H890 H 0.52016 0.43472 0.4754 0.0
C891 C 0.55474 0.63184 0.59025 0.0
C892 C 0.57094 0.54467 0.54081 0.0
H893 H 0.57756 0.54482 0.47472 0.0
C894 C 0.56725 0.50059 0.54472 0.0
C895 C 0.57389 0.56108 0.51531 0.0
C896 C 0.57864 0.60823 0.51024 0.0
C897 C 0.56768 0.47216 0.52372 0.0
C898 C 0.57173 0.48846 0.49827 0.0
C899 C 0.57418 0.53265 0.4943 0.0
C900 C 0.57787 0.45979 0.47597 0.0
C901 C 0.56576 0.42479 0.52895 0.0
C902 C 0.6143 0.45745 0.46466 0.0
C903 C 0.62208 0.42693 0.44571 0.0
C904 C 0.59346 0.39823 0.43765 0.0
C905 C 0.55632 0.40238 0.44803 0.0
C906 C 0.54862 0.43288 0.46709 0.0
H907 H 0.56756 0.41728 0.54999 0.0
H908 H 0.53828 0.41199 0.5214 0.0
H909 H 0.58939 0.40804 0.51874 0.0
H910 H 0.63721 0.47806 0.47133 0.0
H911 H 0.65103 0.4246 0.43839 0.0
H912 H 0.56267 0.15056 0.94812 0.0
H913 H 0.57515 0.09678 0.98153 0.0
H914 H 0.45874 0.05181 0.97459 0.0
H915 H 0.44627 0.10526 0.94104 0.0
H916 H 0.54133 0.08935 0.0282 0.0
H917 H 0.51822 0.94142 0.97197 0.0
H918 H 0.52397 0.99286 0.95665 0.0
H919 H 0.47807 0.97688 0.96935 0.0
C920 C 0.53984 0.12901 0.95364 0.0
C921 C 0.50347 0.13206 0.94201 0.0
C922 C 0.54704 0.09825 0.97263 0.0
C923 C 0.51804 0.06995 0.98028 0.0
C924 C 0.48183 0.07262 0.96849 0.0
H925 H 0.47686 0.94274 0.12328 0.0
H926 H 0.48691 0.99445 0.08871 0.0
C927 C 0.47469 0.10319 0.94936 0.0
C928 C 0.52475 0.03941 1.00172 0.0
H929 H 0.51428 0.93482 1.01841 0.0
C930 C 0.53597 0.05544 0.026 0.0
C931 C 0.51858 0.99511 0.99869 0.0
C932 C 0.50947 0.9755 0.97267 0.0
C933 C 0.53927 0.02858 0.04769 0.0
C934 C 0.53012 0.98482 0.04508 0.0
C935 C 0.52082 0.96849 1.0205 0.0
C936 C 0.52775 0.95568 0.06767 0.0
C937 C 0.55237 0.04744 0.07312 0.0
C938 C 0.54719 0.91655 0.06734 0.0
C939 C 0.54069 0.88631 0.08674 0.0
C940 C 0.51457 0.89458 0.10697 0.0
C941 C 0.49663 0.93479 0.10788 0.0
C942 C 0.50284 0.96481 0.08829 0.0
H943 H 0.5708 0.07588 0.06993 0.0
H944 H 0.52696 0.05792 0.08437 0.0
H945 H 0.56854 0.02381 0.08489 0.0
H946 H 0.56646 0.90879 0.05155 0.0
H947 H 0.555 0.85587 0.08502 0.0
H948 H 0.16244 0.91052 0.44276 0.0
H949 H 0.15157 0.96499 0.47568 0.0
H950 H 1.03004 0.94025 0.47273 0.0
H951 H 0.04087 0.88508 0.43983 0.0
H952 H 0.10959 0.03806 0.4753 0.0
H953 H 0.05384 0.92484 0.54942 0.0
H954 H 0.07666 0.90713 0.51993 0.0
H955 H 1.02793 0.92564 0.51929 0.0
C956 C 0.13334 0.91705 0.4488 0.0
C957 C 0.1025 0.89342 0.43878 0.0
C958 C 0.12718 0.94804 0.46772 0.0
C959 C 0.09009 0.95612 0.47695 0.0
C960 C 0.059 0.93376 0.46632 0.0
H961 H 0.05833 0.17757 0.57787 0.0
H962 H 0.0487 0.12584 0.54346 0.0
C963 C 0.06519 0.90243 0.44749 0.0
C964 C 0.08459 0.98757 0.49801 0.0
H965 H 0.05724 0.99736 0.56133 0.0
C966 C 0.09786 0.02933 0.49406 0.0
C967 C 0.06962 0.97579 0.52252 0.0
C968 C 0.05647 0.93085 0.52824 0.0
C969 C 0.09758 0.05943 0.51415 0.0
C970 C 0.08257 0.04771 0.53866 0.0
C971 C 0.06842 1.00625 0.54245 0.0
C972 C 0.08406 0.0771 0.56109 0.0
C973 C 0.11501 0.10282 0.50924 0.0
C974 C 0.10531 0.06593 0.58318 0.0
C975 C 0.11028 0.09516 0.60332 0.0
C976 C 0.0943 0.13633 0.6017 0.0
C977 C 0.07129 0.14646 0.58005 0.0
C978 C 0.06601 0.117 0.56007 0.0
H979 H 0.13334 0.10302 0.49162 0.0
H980 H 0.09176 0.12649 0.50629 0.0
H981 H 0.1326 0.11328 0.52603 0.0
H982 H 0.11914 0.03504 0.58446 0.0
H983 H 0.12731 0.08567 0.61988 0.0
loop_
_geom_bond_atom_site_label_1
_geom_bond_atom_site_label_2
_geom_bond_distance
_geom_bond_site_symmetry_2
_ccdc_geom_bond_type
C0 C1 1.351 . S
C0 N3 1.368 . S
C0 H5 0.931 . S
C1 C0 1.351 . S
C1 N2 1.373 . S
C1 H29 0.930 . S
N2 C1 1.373 . S
N2 C4 1.340 . S
N3 C0 1.368 . S
N3 C4 1.321 . S
N3 Co6 2.135 . S
C4 N2 1.340 . S
C4 N3 1.321 . S
C4 H28 0.930 . S
H5 C0 0.931 . S
Co6 N3 2.135 . S
Co6 N9 2.121 . S
Co6 O14 2.055 . S
Co6 O17 2.039 . S
Co6 N20 2.140 1_455 S
C7 O8 1.227 1_455 S
C7 O17 1.265 . S
O8 C7 1.227 1_655 S
N9 Co6 2.121 . S
N9 C11 1.375 . S
N9 C12 1.313 . S
C10 C11 1.338 . S
C10 N13 1.377 . S
C10 H30 0.930 . S
C11 N9 1.375 . S
C11 C10 1.338 . S
C11 H15 0.931 1_455 S
C12 N9 1.313 . S
C12 N13 1.344 . S
C12 H16 0.930 . S
N13 C10 1.377 . S
N13 C12 1.344 . S
O14 Co6 2.055 . S
O14 C18 1.253 . S
H15 C11 0.931 1_655 S
H16 C12 0.930 . S
O17 Co6 2.039 . S
O17 C7 1.265 . S
C18 O14 1.253 . S
C18 O19 1.227 . S
O19 C18 1.227 . S
N20 Co6 2.140 1_655 S
N20 C23 1.346 . S
N20 C24 1.345 . S
C21 C22 1.387 . S
C21 C25 1.391 . S
C22 C21 1.387 . S
C22 C23 1.369 . S
C22 H31 0.929 . S
C23 N20 1.346 . S
C23 C22 1.369 . S
C23 H26 0.928 . S
C24 N20 1.345 . S
C24 C25 1.371 . S
C24 H27 0.926 1_655 S
C25 C21 1.391 . S
C25 C24 1.371 . S
C25 H32 0.930 . S
H26 C23 0.928 . S
H27 C24 0.926 1_455 S
H28 C4 0.930 . S
H29 C1 0.930 . S
H30 C10 0.930 . S
H31 C22 0.929 . S
H32 C25 0.930 . S
C33 C34 1.351 . S
C33 N36 1.368 . S
C33 H38 0.931 . S
C34 C33 1.351 . S
C34 N35 1.373 . S
C34 H62 0.930 . S
N35 C34 1.373 . S
N35 C37 1.340 . S
N36 C33 1.368 . S
N36 C37 1.321 . S
N36 Co39 2.135 . S
C37 N35 1.340 . S
C37 N36 1.321 . S
C37 H61 0.930 . S
H38 C33 0.931 . S
Co39 N36 2.135 . S
Co39 N42 2.121 . S
Co39 O47 2.055 . S
Co39 O50 2.039 . S
Co39 N53 2.140 . S
C40 O41 1.227 . S
C40 O50 1.265 . S
O41 C40 1.227 . S
N42 Co39 2.121 . S
N42 C44 1.375 . S
N42 C45 1.313 . S
C43 C44 1.338 . S
C43 N46 1.377 . S
C43 H63 0.930 . S
C44 N42 1.375 . S
C44 C43 1.338 . S
C44 H48 0.931 . S
C45 N42 1.313 . S
C45 N46 1.344 . S
C45 H49 0.930 . S
N46 C43 1.377 . S
N46 C45 1.344 . S
O47 Co39 2.055 . S
O47 C51 1.253 . S
H48 C44 0.931 . S
H49 C45 0.930 . S
O50 Co39 2.039 . S
O50 C40 1.265 . S
C51 O47 1.253 . S
C51 O52 1.227 . S
O52 C51 1.227 . S
N53 Co39 2.140 . S
N53 C56 1.346 . S
N53 C57 1.345 . S
C54 C55 1.387 . S
C54 C58 1.391 . S
C55 C54 1.387 . S
C55 C56 1.369 . S
C55 H64 0.929 . S
C56 N53 1.346 . S
C56 C55 1.369 . S
C56 H59 0.928 . S
C57 N53 1.345 . S
C57 C58 1.371 . S
C57 H60 0.931 . S
C58 C54 1.391 . S
C58 C57 1.371 . S
C58 H65 0.930 . S
H59 C56 0.928 . S
H60 C57 0.931 . S
H61 C37 0.930 . S
H62 C34 0.930 . S
H63 C43 0.930 . S
H64 C55 0.929 . S
H65 C58 0.930 . S
C66 C67 1.351 . S
C66 N69 1.368 . S
C66 H71 0.931 . S
C67 C66 1.351 . S
C67 N68 1.373 . S
C67 H95 0.930 . S
N68 C67 1.373 . S
N68 C70 1.340 . S
N69 C66 1.368 . S
N69 C70 1.321 . S
N69 Co72 2.135 . S
C70 N68 1.340 . S
C70 N69 1.321 . S
C70 H94 0.930 . S
H71 C66 0.931 . S
Co72 N69 2.135 . S
Co72 N75 2.121 . S
Co72 O80 2.055 . S
Co72 O83 2.039 . S
Co72 N86 2.140 1_455 S
C73 O74 1.227 1_455 S
C73 O83 1.265 . S
O74 C73 1.227 1_655 S
N75 Co72 2.121 . S
N75 C77 1.375 . S
N75 C78 1.313 . S
C76 C77 1.338 . S
C76 N79 1.377 . S
C76 H96 0.930 . S
C77 N75 1.375 . S
C77 C76 1.338 . S
C77 H81 0.931 1_455 S
C78 N75 1.313 . S
C78 N79 1.344 . S
C78 H82 0.930 . S
N79 C76 1.377 . S
N79 C78 1.344 . S
O80 Co72 2.055 . S
O80 C84 1.253 . S
H81 C77 0.931 1_655 S
H82 C78 0.930 . S
O83 Co72 2.039 . S
O83 C73 1.265 . S
C84 O80 1.253 . S
C84 O85 1.227 . S
O85 C84 1.227 . S
N86 Co72 2.140 1_655 S
N86 C89 1.346 . S
N86 C90 1.345 . S
C87 C88 1.387 . S
C87 C91 1.391 . S
C88 C87 1.387 . S
C88 C89 1.369 . S
C88 H97 0.929 . S
C89 N86 1.346 . S
C89 C88 1.369 . S
C89 H92 0.928 . S
C90 N86 1.345 . S
C90 C91 1.371 . S
C90 H93 0.926 1_655 S
C91 C87 1.391 . S
C91 C90 1.371 . S
C91 H98 0.930 . S
H92 C89 0.928 . S
H93 C90 0.926 1_455 S
H94 C70 0.930 . S
H95 C67 0.930 . S
H96 C76 0.930 . S
H97 C88 0.929 . S
H98 C91 0.930 . S
C99 C100 1.351 . S
C99 N102 1.368 . S
C99 H104 0.931 . S
C100 C99 1.351 . S
C100 N101 1.373 . S
C100 H128 0.930 . S
N101 C100 1.373 . S
N101 C103 1.340 . S
N102 C99 1.368 . S
N102 C103 1.321 . S
N102 Co105 2.135 . S
C103 N101 1.340 . S
C103 N102 1.321 . S
C103 H127 0.930 . S
H104 C99 0.931 . S
Co105 N102 2.135 . S
Co105 N108 2.121 . S
Co105 O113 2.055 . S
Co105 O116 2.039 . S
Co105 N119 2.140 . S
C106 O107 1.227 . S
C106 O116 1.265 . S
O107 C106 1.227 . S
N108 Co105 2.121 . S
N108 C110 1.375 . S
N108 C111 1.313 . S
C109 C110 1.338 . S
C109 N112 1.377 . S
C109 H129 0.930 . S
C110 N108 1.375 . S
C110 C109 1.338 . S
C110 H114 0.931 . S
C111 N108 1.313 . S
C111 N112 1.344 . S
C111 H115 0.930 . S
N112 C109 1.377 . S
N112 C111 1.344 . S
O113 Co105 2.055 . S
O113 C117 1.253 . S
H114 C110 0.931 . S
H115 C111 0.930 . S
O116 Co105 2.039 . S
O116 C106 1.265 . S
C117 O113 1.253 . S
C117 O118 1.227 . S
O118 C117 1.227 . S
N119 Co105 2.140 . S
N119 C122 1.346 . S
N119 C123 1.345 . S
C120 C121 1.387 . S
C120 C124 1.391 . S
C121 C120 1.387 . S
C121 C122 1.369 . S
C121 H130 0.929 . S
C122 N119 1.346 . S
C122 C121 1.369 . S
C122 H125 0.928 . S
C123 N119 1.345 . S
C123 C124 1.371 . S
C123 H126 0.931 . S
C124 C120 1.391 . S
C124 C123 1.371 . S
C124 H131 0.930 . S
H125 C122 0.928 . S
H126 C123 0.931 . S
H127 C103 0.930 . S
H128 C100 0.930 . S
H129 C109 0.930 . S
H130 C121 0.929 . S
H131 C124 0.930 . S
C132 C133 1.351 . S
C132 N135 1.368 . S
C132 H137 0.931 . S
C133 C132 1.351 . S
C133 N134 1.373 . S
C133 H161 0.930 . S
N134 C133 1.373 . S
N134 C136 1.340 . S
N135 C132 1.368 . S
N135 C136 1.321 . S
N135 Co138 2.135 . S
C136 N134 1.340 . S
C136 N135 1.321 . S
C136 H160 0.930 . S
H137 C132 0.931 . S
Co138 N135 2.135 . S
Co138 N141 2.121 . S
Co138 O146 2.055 . S
Co138 O149 2.039 . S
Co138 N152 2.140 . S
C139 O140 1.227 . S
C139 O149 1.265 . S
O140 C139 1.227 . S
N141 Co138 2.121 . S
N141 C143 1.375 . S
N141 C144 1.313 . S
C142 C143 1.338 . S
C142 N145 1.377 . S
C142 H162 0.930 . S
C143 N141 1.375 . S
C143 C142 1.338 . S
C143 H147 0.931 . S
C144 N141 1.313 . S
C144 N145 1.344 . S
C144 H148 0.930 . S
N145 C142 1.377 . S
N145 C144 1.344 . S
O146 Co138 2.055 . S
O146 C150 1.253 . S
H147 C143 0.931 . S
H148 C144 0.930 . S
O149 Co138 2.039 . S
O149 C139 1.265 . S
C150 O146 1.253 . S
C150 O151 1.227 . S
O151 C150 1.227 . S
N152 Co138 2.140 . S
N152 C155 1.346 . S
N152 C156 1.345 . S
C153 C154 1.387 . S
C153 C157 1.391 . S
C154 C153 1.387 . S
C154 C155 1.369 . S
C154 H163 0.929 . S
C155 N152 1.346 . S
C155 C154 1.369 . S
C155 H158 0.928 . S
C156 N152 1.345 . S
C156 C157 1.371 . S
C156 H159 0.931 . S
C157 C153 1.391 . S
C157 C156 1.371 . S
C157 H164 0.930 . S
H158 C155 0.928 . S
H159 C156 0.931 . S
H160 C136 0.930 . S
H161 C133 0.930 . S
H162 C142 0.930 . S
H163 C154 0.929 . S
H164 C157 0.930 . S
C165 C166 1.351 . S
C165 N168 1.368 . S
C165 H170 0.931 . S
C166 C165 1.351 . S
C166 N167 1.373 . S
C166 H194 0.930 . S
N167 C166 1.373 . S
N167 C169 1.340 . S
N168 C165 1.368 . S
N168 C169 1.321 . S
N168 Co171 2.135 . S
C169 N167 1.340 . S
C169 N168 1.321 . S
C169 H193 0.930 1_655 S
H170 C165 0.931 . S
Co171 N168 2.135 . S
Co171 N174 2.121 . S
Co171 O179 2.055 . S
Co171 O182 2.039 . S
Co171 N185 2.140 1_655 S
C172 O173 1.227 . S
C172 O182 1.265 1_455 S
O173 C172 1.227 . S
N174 Co171 2.121 . S
N174 C176 1.375 1_655 S
N174 C177 1.313 . S
C175 C176 1.338 . S
C175 N178 1.377 1_455 S
C175 H195 0.930 . S
C176 N174 1.375 1_455 S
C176 C175 1.338 . S
C176 H180 0.931 . S
C177 N174 1.313 . S
C177 N178 1.344 . S
C177 H181 0.930 . S
N178 C175 1.377 1_655 S
N178 C177 1.344 . S
O179 Co171 2.055 . S
O179 C183 1.253 . S
H180 C176 0.931 . S
H181 C177 0.930 . S
O182 Co171 2.039 . S
O182 C172 1.265 1_655 S
C183 O179 1.253 . S
C183 O184 1.227 . S
O184 C183 1.227 . S
N185 Co171 2.140 1_455 S
N185 C188 1.346 . S
N185 C189 1.345 . S
C186 C187 1.387 . S
C186 C190 1.391 . S
C187 C186 1.387 . S
C187 C188 1.369 . S
C187 H196 0.929 . S
C188 N185 1.346 . S
C188 C187 1.369 . S
C188 H191 0.928 . S
C189 N185 1.345 . S
C189 C190 1.371 . S
C189 H192 0.931 . S
C190 C186 1.391 . S
C190 C189 1.371 . S
C190 H197 0.930 . S
H191 C188 0.928 . S
H192 C189 0.931 . S
H193 C169 0.930 1_455 S
H194 C166 0.930 . S
H195 C175 0.930 . S
H196 C187 0.929 . S
H197 C190 0.930 . S
C198 C199 1.351 . S
C198 N201 1.368 . S
C198 H203 0.931 . S
C199 C198 1.351 . S
C199 N200 1.373 . S
C199 H227 0.930 . S
N200 C199 1.373 . S
N200 C202 1.340 . S
N201 C198 1.368 . S
N201 C202 1.321 . S
N201 Co204 2.135 . S
C202 N200 1.340 . S
C202 N201 1.321 . S
C202 H226 0.930 . S
H203 C198 0.931 . S
Co204 N201 2.135 . S
Co204 N207 2.121 . S
Co204 O212 2.055 . S
Co204 O215 2.039 . S
Co204 N218 2.140 . S
C205 O206 1.227 . S
C205 O215 1.265 . S
O206 C205 1.227 . S
N207 Co204 2.121 . S
N207 C209 1.375 . S
N207 C210 1.313 . S
C208 C209 1.338 . S
C208 N211 1.377 . S
C208 H228 0.930 . S
C209 N207 1.375 . S
C209 C208 1.338 . S
C209 H213 0.931 . S
C210 N207 1.313 . S
C210 N211 1.344 . S
C210 H214 0.930 . S
N211 C208 1.377 . S
N211 C210 1.344 . S
O212 Co204 2.055 . S
O212 C216 1.253 . S
H213 C209 0.931 . S
H214 C210 0.930 . S
O215 Co204 2.039 . S
O215 C205 1.265 . S
C216 O212 1.253 . S
C216 O217 1.227 . S
O217 C216 1.227 . S
N218 Co204 2.140 . S
N218 C221 1.346 . S
N218 C222 1.345 . S
C219 C220 1.387 . S
C219 C223 1.391 . S
C220 C219 1.387 . S
C220 C221 1.369 . S
C220 H229 0.929 . S
C221 N218 1.346 . S
C221 C220 1.369 . S
C221 H224 0.928 . S
C222 N218 1.345 . S
C222 C223 1.371 . S
C222 H225 0.931 . S
C223 C219 1.391 . S
C223 C222 1.371 . S
C223 H230 0.930 . S
H224 C221 0.928 . S
H225 C222 0.931 . S
H226 C202 0.930 . S
H227 C199 0.930 . S
H228 C208 0.930 . S
H229 C220 0.929 . S
H230 C223 0.930 . S
C231 C232 1.351 . S
C231 N234 1.368 . S
C231 H236 0.931 . S
C232 C231 1.351 . S
C232 N233 1.373 . S
C232 H260 0.930 . S
N233 C232 1.373 . S
N233 C235 1.340 . S
N234 C231 1.368 . S
N234 C235 1.321 . S
N234 Co237 2.135 . S
C235 N233 1.340 . S
C235 N234 1.321 . S
C235 H259 0.930 1_655 S
H236 C231 0.931 . S
Co237 N234 2.135 . S
Co237 N240 2.121 . S
Co237 O245 2.055 . S
Co237 O248 2.039 . S
Co237 N251 2.140 1_655 S
C238 O239 1.227 . S
C238 O248 1.265 1_455 S
O239 C238 1.227 . S
N240 Co237 2.121 . S
N240 C242 1.375 1_655 S
N240 C243 1.313 . S
C241 C242 1.338 . S
C241 N244 1.377 1_455 S
C241 H261 0.930 . S
C242 N240 1.375 1_455 S
C242 C241 1.338 . S
C242 H246 0.931 . S
C243 N240 1.313 . S
C243 N244 1.344 . S
C243 H247 0.930 . S
N244 C241 1.377 1_655 S
N244 C243 1.344 . S
O245 Co237 2.055 . S
O245 C249 1.253 . S
H246 C242 0.931 . S
H247 C243 0.930 . S
O248 Co237 2.039 . S
O248 C238 1.265 1_655 S
C249 O245 1.253 . S
C249 O250 1.227 . S
O250 C249 1.227 . S
N251 Co237 2.140 1_455 S
N251 C254 1.346 . S
N251 C255 1.345 . S
C252 C253 1.387 . S
C252 C256 1.391 . S
C253 C252 1.387 . S
C253 C254 1.369 . S
C253 H262 0.929 . S
C254 N251 1.346 . S
C254 C253 1.369 . S
C254 H257 0.928 . S
C255 N251 1.345 . S
C255 C256 1.371 . S
C255 H258 0.931 . S
C256 C252 1.391 . S
C256 C255 1.371 . S
C256 H263 0.930 . S
H257 C254 0.928 . S
H258 C255 0.931 . S
H259 C235 0.930 1_455 S
H260 C232 0.930 . S
H261 C241 0.930 . S
H262 C253 0.929 . S
H263 C256 0.930 . S
H264 C272 0.929 . S
H265 C274 0.930 . S
H266 C276 0.930 . S
H267 C279 0.929 . S
H268 C282 0.930 . S
H269 C284 0.960 . S
H270 C284 0.960 . S
H271 C284 0.960 . S
C272 H264 0.929 . S
C272 C273 1.377 . S
C272 C274 1.384 . S
C273 C272 1.377 . S
C273 C279 1.390 . S
C274 H265 0.930 . S
C274 C272 1.384 . S
C274 C275 1.372 . S
C275 C274 1.372 . S
C275 C276 1.400 . S
C275 C280 1.490 . S
C276 H266 0.930 . S
C276 C275 1.400 . S
C276 C279 1.386 . S
H277 C293 0.930 . S
H278 C294 0.931 . S
C279 H267 0.929 . S
C279 C273 1.390 . S
C279 C276 1.386 . S
C280 C275 1.490 . S
C280 C282 1.395 1_556 S
C280 C283 1.403 . S
H281 C287 0.930 . S
C282 H268 0.930 . S
C282 C280 1.395 1_554 S
C282 C285 1.403 . S
C283 C280 1.403 . S
C283 C284 1.524 . S
C283 C287 1.400 . S
C284 H269 0.960 . S
C284 H270 0.960 . S
C284 H271 0.960 . S
C284 C283 1.524 . S
C285 C282 1.403 . S
C285 C286 1.392 . S
C285 C289 1.495 . S
C286 C285 1.392 . S
C286 C287 1.385 1_554 S
C286 C288 1.478 . S
C287 H281 0.930 . S
C287 C283 1.400 . S
C287 C286 1.385 1_556 S
C288 C286 1.478 . S
C288 C290 1.381 . S
C288 C294 1.383 . S
C289 C285 1.495 . S
C289 H295 0.959 . S
C289 H296 0.961 . S
C289 H297 0.960 . S
C290 C288 1.381 . S
C290 C291 1.394 . S
C290 H298 0.930 . S
C291 C290 1.394 . S
C291 C292 1.383 . S
C291 H299 0.929 . S
C292 C291 1.383 . S
C292 C293 1.377 . S
C293 H277 0.930 . S
C293 C292 1.377 . S
C293 C294 1.379 . S
C294 H278 0.931 . S
C294 C288 1.383 . S
C294 C293 1.379 . S
H295 C289 0.959 . S
H296 C289 0.961 . S
H297 C289 0.960 . S
H298 C290 0.930 . S
H299 C291 0.929 . S
H300 C308 0.929 . S
H301 C310 0.930 . S
H302 C312 0.930 . S
H303 C315 0.929 . S
H304 C318 0.930 . S
H305 C320 0.960 . S
H306 C320 0.960 . S
H307 C320 0.960 . S
C308 H300 0.929 . S
C308 C309 1.377 . S
C308 C310 1.384 . S
C309 C308 1.377 . S
C309 C315 1.390 . S
C310 H301 0.930 . S
C310 C308 1.384 . S
C310 C311 1.372 . S
C311 C310 1.372 . S
C311 C312 1.400 . S
C311 C316 1.490 . S
C312 H302 0.930 . S
C312 C311 1.400 . S
C312 C315 1.386 . S
H313 C329 0.930 . S
H314 C330 0.931 . S
C315 H303 0.929 . S
C315 C309 1.390 . S
C315 C312 1.386 . S
C316 C311 1.490 . S
C316 C318 1.395 . S
C316 C319 1.403 . S
H317 C323 0.930 . S
C318 H304 0.930 . S
C318 C316 1.395 . S
C318 C321 1.403 . S
C319 C316 1.403 . S
C319 C320 1.524 . S
C319 C323 1.400 . S
C320 H305 0.960 . S
C320 H306 0.960 . S
C320 H307 0.960 . S
C320 C319 1.524 . S
C321 C318 1.403 . S
C321 C322 1.392 . S
C321 C325 1.495 . S
C322 C321 1.392 . S
C322 C323 1.385 . S
C322 C324 1.478 . S
C323 H317 0.930 . S
C323 C319 1.400 . S
C323 C322 1.385 . S
C324 C322 1.478 . S
C324 C326 1.381 . S
C324 C330 1.383 . S
C325 C321 1.495 . S
C325 H331 0.959 . S
C325 H332 0.961 . S
C325 H333 0.960 . S
C326 C324 1.381 . S
C326 C327 1.394 . S
C326 H334 0.930 . S
C327 C326 1.394 . S
C327 C328 1.383 . S
C327 H335 0.929 . S
C328 C327 1.383 . S
C328 C329 1.377 . S
C329 H313 0.930 . S
C329 C328 1.377 . S
C329 C330 1.379 . S
C330 H314 0.931 . S
C330 C324 1.383 . S
C330 C329 1.379 . S
H331 C325 0.959 . S
H332 C325 0.961 . S
H333 C325 0.960 . S
H334 C326 0.930 . S
H335 C327 0.929 . S
H336 C344 0.929 . S
H337 C346 0.930 . S
H338 C348 0.930 . S
H339 C351 0.929 . S
H340 C354 0.930 . S
H341 C356 0.960 . S
H342 C356 0.960 . S
H343 C356 0.960 . S
C344 H336 0.929 . S
C344 C345 1.377 . S
C344 C346 1.384 . S
C345 C344 1.377 . S
C345 C351 1.390 . S
C346 H337 0.930 . S
C346 C344 1.384 . S
C346 C347 1.372 . S
C347 C346 1.372 . S
C347 C348 1.400 . S
C347 C352 1.490 . S
C348 H338 0.930 . S
C348 C347 1.400 . S
C348 C351 1.386 . S
H349 C365 0.930 . S
H350 C366 0.931 . S
C351 H339 0.929 . S
C351 C345 1.390 . S
C351 C348 1.386 . S
C352 C347 1.490 . S
C352 C354 1.395 . S
C352 C355 1.403 1_554 S
H353 C359 0.930 . S
C354 H340 0.930 . S
C354 C352 1.395 . S
C354 C357 1.403 . S
C355 C352 1.403 1_556 S
C355 C356 1.524 . S
C355 C359 1.400 . S
C356 H341 0.960 . S
C356 H342 0.960 . S
C356 H343 0.960 . S
C356 C355 1.524 . S
C357 C354 1.403 . S
C357 C358 1.392 1_554 S
C357 C361 1.495 . S
C358 C357 1.392 1_556 S
C358 C359 1.385 . S
C358 C360 1.478 . S
C359 H353 0.930 . S
C359 C355 1.400 . S
C359 C358 1.385 . S
C360 C358 1.478 . S
C360 C362 1.381 . S
C360 C366 1.383 . S
C361 C357 1.495 . S
C361 H367 0.959 . S
C361 H368 0.961 . S
C361 H369 0.960 . S
C362 C360 1.381 . S
C362 C363 1.394 . S
C362 H370 0.930 . S
C363 C362 1.394 . S
C363 C364 1.383 . S
C363 H371 0.929 . S
C364 C363 1.383 . S
C364 C365 1.377 . S
C365 H349 0.930 . S
C365 C364 1.377 . S
C365 C366 1.379 . S
C366 H350 0.931 . S
C366 C360 1.383 . S
C366 C365 1.379 . S
H367 C361 0.959 . S
H368 C361 0.961 . S
H369 C361 0.960 . S
H370 C362 0.930 . S
H371 C363 0.929 . S
H372 C380 0.929 . S
H373 C382 0.930 . S
H374 C384 0.930 . S
H375 C387 0.929 . S
H376 C390 0.930 . S
H377 C392 0.960 . S
H378 C392 0.960 . S
H379 C392 0.960 . S
C380 H372 0.929 . S
C380 C381 1.377 . S
C380 C382 1.384 . S
C381 C380 1.377 . S
C381 C387 1.390 . S
C382 H373 0.930 . S
C382 C380 1.384 . S
C382 C383 1.372 . S
C383 C382 1.372 . S
C383 C384 1.400 . S
C383 C388 1.490 . S
C384 H374 0.930 . S
C384 C383 1.400 . S
C384 C387 1.386 . S
H385 C401 0.930 . S
H386 C402 0.931 . S
C387 H375 0.929 . S
C387 C381 1.390 . S
C387 C384 1.386 . S
C388 C383 1.490 . S
C388 C390 1.395 . S
C388 C391 1.403 . S
H389 C395 0.930 . S
C390 H376 0.930 . S
C390 C388 1.395 . S
C390 C393 1.403 . S
C391 C388 1.403 . S
C391 C392 1.524 . S
C391 C395 1.400 . S
C392 H377 0.960 . S
C392 H378 0.960 . S
C392 H379 0.960 . S
C392 C391 1.524 . S
C393 C390 1.403 . S
C393 C394 1.392 . S
C393 C397 1.495 . S
C394 C393 1.392 . S
C394 C395 1.385 . S
C394 C396 1.478 . S
C395 H389 0.930 . S
C395 C391 1.400 . S
C395 C394 1.385 . S
C396 C394 1.478 . S
C396 C398 1.381 . S
C396 C402 1.383 . S
C397 C393 1.495 . S
C397 H403 0.959 . S
C397 H404 0.961 . S
C397 H405 0.960 . S
C398 C396 1.381 . S
C398 C399 1.394 . S
C398 H406 0.930 . S
C399 C398 1.394 . S
C399 C400 1.383 . S
C399 H407 0.929 . S
C400 C399 1.383 . S
C400 C401 1.377 . S
C401 H385 0.930 . S
C401 C400 1.377 . S
C401 C402 1.379 . S
C402 H386 0.931 . S
C402 C396 1.383 . S
C402 C401 1.379 . S
H403 C397 0.959 . S
H404 C397 0.961 . S
H405 C397 0.960 . S
H406 C398 0.930 . S
H407 C399 0.929 . S
H408 C416 0.929 . S
H409 C418 0.930 . S
H410 C420 0.930 . S
H411 C423 0.929 . S
H412 C426 0.930 . S
H413 C428 0.960 . S
H414 C428 0.960 . S
H415 C428 0.960 . S
C416 H408 0.929 . S
C416 C417 1.377 . S
C416 C418 1.384 . S
C417 C416 1.377 . S
C417 C423 1.390 . S
C418 H409 0.930 . S
C418 C416 1.384 . S
C418 C419 1.372 . S
C419 C418 1.372 . S
C419 C420 1.400 . S
C419 C424 1.490 . S
C420 H410 0.930 . S
C420 C419 1.400 . S
C420 C423 1.386 . S
H421 C437 0.930 . S
H422 C438 0.931 . S
C423 H411 0.929 . S
C423 C417 1.390 . S
C423 C420 1.386 . S
C424 C419 1.490 . S
C424 C426 1.395 . S
C424 C427 1.403 1_554 S
H425 C431 0.930 . S
C426 H412 0.930 . S
C426 C424 1.395 . S
C426 C429 1.403 . S
C427 C424 1.403 1_556 S
C427 C428 1.524 . S
C427 C431 1.400 . S
C428 H413 0.960 . S
C428 H414 0.960 . S
C428 H415 0.960 . S
C428 C427 1.524 . S
C429 C426 1.403 . S
C429 C430 1.392 1_554 S
C429 C433 1.495 . S
C430 C429 1.392 1_556 S
C430 C431 1.385 . S
C430 C432 1.478 . S
C431 H425 0.930 . S
C431 C427 1.400 . S
C431 C430 1.385 . S
C432 C430 1.478 . S
C432 C434 1.381 . S
C432 C438 1.383 . S
C433 C429 1.495 . S
C433 H439 0.959 . S
C433 H440 0.961 . S
C433 H441 0.960 . S
C434 C432 1.381 . S
C434 C435 1.394 . S
C434 H442 0.930 . S
C435 C434 1.394 . S
C435 C436 1.383 . S
C435 H443 0.929 . S
C436 C435 1.383 . S
C436 C437 1.377 . S
C437 H421 0.930 . S
C437 C436 1.377 . S
C437 C438 1.379 . S
C438 H422 0.931 . S
C438 C432 1.383 . S
C438 C437 1.379 . S
H439 C433 0.959 . S
H440 C433 0.961 . S
H441 C433 0.960 . S
H442 C434 0.930 . S
H443 C435 0.929 . S
H444 C452 0.929 . S
H445 C454 0.930 . S
H446 C456 0.930 . S
H447 C459 0.929 . S
H448 C462 0.930 . S
H449 C464 0.960 . S
H450 C464 0.960 . S
H451 C464 0.960 . S
C452 H444 0.929 . S
C452 C453 1.377 . S
C452 C454 1.384 . S
C453 C452 1.377 . S
C453 C459 1.390 . S
C454 H445 0.930 . S
C454 C452 1.384 . S
C454 C455 1.372 . S
C455 C454 1.372 . S
C455 C456 1.400 . S
C455 C460 1.490 . S
C456 H446 0.930 . S
C456 C455 1.400 . S
C456 C459 1.386 . S
H457 C473 0.930 . S
H458 C474 0.931 . S
C459 H447 0.929 . S
C459 C453 1.390 . S
C459 C456 1.386 . S
C460 C455 1.490 . S
C460 C462 1.395 . S
C460 C463 1.403 . S
H461 C467 0.930 . S
C462 H448 0.930 . S
C462 C460 1.395 . S
C462 C465 1.403 . S
C463 C460 1.403 . S
C463 C464 1.524 . S
C463 C467 1.400 . S
C464 H449 0.960 . S
C464 H450 0.960 . S
C464 H451 0.960 . S
C464 C463 1.524 . S
C465 C462 1.403 . S
C465 C466 1.392 . S
C465 C469 1.495 . S
C466 C465 1.392 . S
C466 C467 1.385 . S
C466 C468 1.478 . S
C467 H461 0.930 . S
C467 C463 1.400 . S
C467 C466 1.385 . S
C468 C466 1.478 . S
C468 C470 1.381 . S
C468 C474 1.383 . S
C469 C465 1.495 . S
C469 H475 0.959 . S
C469 H476 0.961 . S
C469 H477 0.960 . S
C470 C468 1.381 . S
C470 C471 1.394 . S
C470 H478 0.930 . S
C471 C470 1.394 . S
C471 C472 1.383 . S
C471 H479 0.929 . S
C472 C471 1.383 . S
C472 C473 1.377 . S
C473 H457 0.930 . S
C473 C472 1.377 . S
C473 C474 1.379 . S
C474 H458 0.931 . S
C474 C468 1.383 . S
C474 C473 1.379 . S
H475 C469 0.959 . S
H476 C469 0.961 . S
H477 C469 0.960 . S
H478 C470 0.930 . S
H479 C471 0.929 . S
H480 C488 0.929 . S
H481 C490 0.930 . S
H482 C492 0.930 . S
H483 C495 0.929 . S
H484 C498 0.930 1_554 S
H485 C500 0.960 . S
H486 C500 0.960 . S
H487 C500 0.960 . S
C488 H480 0.929 . S
C488 C489 1.377 . S
C488 C490 1.384 . S
C489 C488 1.377 . S
C489 C495 1.390 . S
C490 H481 0.930 . S
C490 C488 1.384 . S
C490 C491 1.372 . S
C491 C490 1.372 . S
C491 C492 1.400 . S
C491 C496 1.490 . S
C492 H482 0.930 . S
C492 C491 1.400 . S
C492 C495 1.386 . S
H493 C509 0.930 . S
H494 C510 0.931 . S
C495 H483 0.929 . S
C495 C489 1.390 . S
C495 C492 1.386 . S
C496 C491 1.490 . S
C496 C498 1.395 1_554 S
C496 C499 1.403 . S
H497 C503 0.930 . S
C498 H484 0.930 1_556 S
C498 C496 1.395 1_556 S
C498 C501 1.403 . S
C499 C496 1.403 . S
C499 C500 1.524 . S
C499 C503 1.400 1_554 S
C500 H485 0.960 . S
C500 H486 0.960 . S
C500 H487 0.960 . S
C500 C499 1.524 . S
C501 C498 1.403 . S
C501 C502 1.392 . S
C501 C505 1.495 . S
C502 C501 1.392 . S
C502 C503 1.385 . S
C502 C504 1.478 . S
C503 H497 0.930 . S
C503 C499 1.400 1_556 S
C503 C502 1.385 . S
C504 C502 1.478 . S
C504 C506 1.381 . S
C504 C510 1.383 . S
C505 C501 1.495 . S
C505 H511 0.959 . S
C505 H512 0.961 . S
C505 H513 0.960 . S
C506 C504 1.381 . S
C506 C507 1.394 . S
C506 H514 0.930 . S
C507 C506 1.394 . S
C507 C508 1.383 . S
C507 H515 0.929 . S
C508 C507 1.383 . S
C508 C509 1.377 . S
C509 H493 0.930 . S
C509 C508 1.377 . S
C509 C510 1.379 . S
C510 H494 0.931 . S
C510 C504 1.383 . S
C510 C509 1.379 . S
H511 C505 0.959 . S
H512 C505 0.961 . S
H513 C505 0.960 . S
H514 C506 0.930 . S
H515 C507 0.929 . S
H516 C524 0.929 . S
H517 C526 0.930 . S
H518 C528 0.930 . S
H519 C531 0.929 . S
H520 C534 0.930 . S
H521 C536 0.960 . S
H522 C536 0.960 . S
H523 C536 0.960 . S
C524 H516 0.929 . S
C524 C525 1.377 . S
C524 C526 1.384 . S
C525 C524 1.377 . S
C525 C531 1.390 . S
C526 H517 0.930 . S
C526 C524 1.384 . S
C526 C527 1.372 . S
C527 C526 1.372 . S
C527 C528 1.400 . S
C527 C532 1.490 . S
C528 H518 0.930 . S
C528 C527 1.400 . S
C528 C531 1.386 . S
H529 C545 0.930 . S
H530 C546 0.931 . S
C531 H519 0.929 . S
C531 C525 1.390 . S
C531 C528 1.386 . S
C532 C527 1.490 . S
C532 C534 1.395 . S
C532 C535 1.403 . S
H533 C539 0.930 . S
C534 H520 0.930 . S
C534 C532 1.395 . S
C534 C537 1.403 . S
C535 C532 1.403 . S
C535 C536 1.524 . S
C535 C539 1.400 . S
C536 H521 0.960 . S
C536 H522 0.960 . S
C536 H523 0.960 . S
C536 C535 1.524 . S
C537 C534 1.403 . S
C537 C538 1.392 . S
C537 C541 1.495 . S
C538 C537 1.392 . S
C538 C539 1.385 . S
C538 C540 1.478 . S
C539 H533 0.930 . S
C539 C535 1.400 . S
C539 C538 1.385 . S
C540 C538 1.478 . S
C540 C542 1.381 . S
C540 C546 1.383 . S
C541 C537 1.495 . S
C541 H547 0.959 . S
C541 H548 0.961 . S
C541 H549 0.960 . S
C542 C540 1.381 . S
C542 C543 1.394 . S
C542 H550 0.930 . S
C543 C542 1.394 . S
C543 C544 1.383 . S
C543 H551 0.929 . S
C544 C543 1.383 . S
C544 C545 1.377 . S
C545 H529 0.930 . S
C545 C544 1.377 . S
C545 C546 1.379 . S
C546 H530 0.931 . S
C546 C540 1.383 . S
C546 C545 1.379 . S
H547 C541 0.959 . S
H548 C541 0.961 . S
H549 C541 0.960 . S
H550 C542 0.930 . S
H551 C543 0.929 . S
H552 C560 0.929 . S
H553 C562 0.930 . S
H554 C564 0.930 . S
H555 C567 0.929 . S
H556 C570 0.930 . S
H557 C572 0.960 . S
H558 C572 0.960 . S
H559 C572 0.960 . S
C560 H552 0.929 . S
C560 C561 1.377 . S
C560 C562 1.384 . S
C561 C560 1.377 . S
C561 C567 1.390 1_455 S
C562 H553 0.930 . S
C562 C560 1.384 . S
C562 C563 1.372 . S
C563 C562 1.372 . S
C563 C564 1.400 1_455 S
C563 C568 1.490 . S
C564 H554 0.930 . S
C564 C563 1.400 1_655 S
C564 C567 1.386 . S
H565 C581 0.930 . S
H566 C582 0.931 . S
C567 H555 0.929 . S
C567 C561 1.390 1_655 S
C567 C564 1.386 . S
C568 C563 1.490 . S
C568 C570 1.395 1_455 S
C568 C571 1.403 . S
H569 C575 0.930 . S
C570 H556 0.930 . S
C570 C568 1.395 1_655 S
C570 C573 1.403 . S
C571 C568 1.403 . S
C571 C572 1.524 . S
C571 C575 1.400 . S
C572 H557 0.960 . S
C572 H558 0.960 . S
C572 H559 0.960 . S
C572 C571 1.524 . S
C573 C570 1.403 . S
C573 C574 1.392 1_655 S
C573 C577 1.495 . S
C574 C573 1.392 1_455 S
C574 C575 1.385 . S
C574 C576 1.478 . S
C575 H569 0.930 . S
C575 C571 1.400 . S
C575 C574 1.385 . S
C576 C574 1.478 . S
C576 C578 1.381 . S
C576 C582 1.383 1_455 S
C577 C573 1.495 . S
C577 H583 0.959 . S
C577 H584 0.961 . S
C577 H585 0.960 . S
C578 C576 1.381 . S
C578 C579 1.394 . S
C578 H586 0.930 . S
C579 C578 1.394 . S
C579 C580 1.383 . S
C579 H587 0.929 . S
C580 C579 1.383 . S
C580 C581 1.378 1_455 S
C581 H565 0.930 . S
C581 C580 1.378 1_655 S
C581 C582 1.379 . S
C582 H566 0.931 . S
C582 C576 1.383 1_655 S
C582 C581 1.379 . S
H583 C577 0.959 . S
H584 C577 0.961 . S
H585 C577 0.960 . S
H586 C578 0.930 . S
H587 C579 0.929 . S
H588 C596 0.929 . S
H589 C598 0.930 . S
H590 C600 0.930 . S
H591 C603 0.929 . S
H592 C606 0.930 . S
H593 C608 0.960 . S
H594 C608 0.960 . S
H595 C608 0.960 . S
C596 H588 0.929 . S
C596 C597 1.377 . S
C596 C598 1.384 . S
C597 C596 1.377 . S
C597 C603 1.390 . S
C598 H589 0.930 . S
C598 C596 1.384 . S
C598 C599 1.372 . S
C599 C598 1.372 . S
C599 C600 1.400 . S
C599 C604 1.490 . S
C600 H590 0.930 . S
C600 C599 1.400 . S
C600 C603 1.386 . S
H601 C617 0.930 . S
H602 C618 0.931 . S
C603 H591 0.929 . S
C603 C597 1.390 . S
C603 C600 1.386 . S
C604 C599 1.490 . S
C604 C606 1.395 . S
C604 C607 1.403 . S
H605 C611 0.930 . S
C606 H592 0.930 . S
C606 C604 1.395 . S
C606 C609 1.403 . S
C607 C604 1.403 . S
C607 C608 1.524 . S
C607 C611 1.400 . S
C608 H593 0.960 . S
C608 H594 0.960 . S
C608 H595 0.960 . S
C608 C607 1.524 . S
C609 C606 1.403 . S
C609 C610 1.392 . S
C609 C613 1.495 . S
C610 C609 1.392 . S
C610 C611 1.385 . S
C610 C612 1.478 . S
C611 H605 0.930 . S
C611 C607 1.400 . S
C611 C610 1.385 . S
C612 C610 1.478 . S
C612 C614 1.381 . S
C612 C618 1.383 . S
C613 C609 1.495 . S
C613 H619 0.959 . S
C613 H620 0.961 . S
C613 H621 0.960 . S
C614 C612 1.381 . S
C614 C615 1.394 . S
C614 H622 0.930 . S
C615 C614 1.394 . S
C615 C616 1.383 . S
C615 H623 0.929 . S
C616 C615 1.383 . S
C616 C617 1.377 . S
C617 H601 0.930 . S
C617 C616 1.377 . S
C617 C618 1.379 . S
C618 H602 0.931 . S
C618 C612 1.383 . S
C618 C617 1.379 . S
H619 C613 0.959 . S
H620 C613 0.961 . S
H621 C613 0.960 . S
H622 C614 0.930 . S
H623 C615 0.929 . S
H624 C632 0.929 . S
H625 C634 0.930 . S
H626 C636 0.930 . S
H627 C639 0.929 . S
H628 C642 0.930 . S
H629 C644 0.960 . S
H630 C644 0.960 . S
H631 C644 0.960 . S
C632 H624 0.929 . S
C632 C633 1.377 . S
C632 C634 1.384 . S
C633 C632 1.377 . S
C633 C639 1.390 1_455 S
C634 H625 0.930 . S
C634 C632 1.384 . S
C634 C635 1.372 . S
C635 C634 1.372 . S
C635 C636 1.400 1_455 S
C635 C640 1.490 . S
C636 H626 0.930 . S
C636 C635 1.400 1_655 S
C636 C639 1.386 . S
H637 C653 0.930 1_655 S
H638 C654 0.931 1_655 S
C639 H627 0.929 . S
C639 C633 1.390 1_655 S
C639 C636 1.386 . S
C640 C635 1.490 . S
C640 C642 1.395 . S
C640 C643 1.403 1_455 S
H641 C647 0.930 . S
C642 H628 0.930 . S
C642 C640 1.395 . S
C642 C645 1.403 . S
C643 C640 1.403 1_655 S
C643 C644 1.524 . S
C643 C647 1.400 . S
C644 H629 0.960 . S
C644 H630 0.960 . S
C644 H631 0.960 . S
C644 C643 1.524 . S
C645 C642 1.403 . S
C645 C646 1.392 . S
C645 C649 1.495 . S
C646 C645 1.392 . S
C646 C647 1.385 1_455 S
C646 C648 1.478 . S
C647 H641 0.930 . S
C647 C643 1.400 . S
C647 C646 1.385 1_655 S
C648 C646 1.478 . S
C648 C650 1.381 . S
C648 C654 1.383 . S
C649 C645 1.495 . S
C649 H655 0.959 . S
C649 H656 0.961 . S
C649 H657 0.960 . S
C650 C648 1.381 . S
C650 C651 1.394 . S
C650 H658 0.930 . S
C651 C650 1.394 . S
C651 C652 1.383 . S
C651 H659 0.929 . S
C652 C651 1.383 . S
C652 C653 1.377 . S
C653 H637 0.930 1_455 S
C653 C652 1.377 . S
C653 C654 1.379 . S
C654 H638 0.931 1_455 S
C654 C648 1.383 . S
C654 C653 1.379 . S
H655 C649 0.959 . S
H656 C649 0.961 . S
H657 C649 0.960 . S
H658 C650 0.930 . S
H659 C651 0.929 . S
H660 C668 0.929 . S
H661 C670 0.930 . S
H662 C672 0.930 . S
H663 C675 0.929 . S
H664 C678 0.930 . S
H665 C680 0.960 . S
H666 C680 0.960 . S
H667 C680 0.960 . S
C668 H660 0.929 . S
C668 C669 1.377 . S
C668 C670 1.384 . S
C669 C668 1.377 . S
C669 C675 1.390 . S
C670 H661 0.930 . S
C670 C668 1.384 . S
C670 C671 1.372 . S
C671 C670 1.372 . S
C671 C672 1.400 . S
C671 C676 1.490 . S
C672 H662 0.930 . S
C672 C671 1.400 . S
C672 C675 1.386 . S
H673 C689 0.930 . S
H674 C690 0.931 . S
C675 H663 0.929 . S
C675 C669 1.390 . S
C675 C672 1.386 . S
C676 C671 1.490 . S
C676 C678 1.395 . S
C676 C679 1.403 . S
H677 C683 0.930 . S
C678 H664 0.930 . S
C678 C676 1.395 . S
C678 C681 1.403 . S
C679 C676 1.403 . S
C679 C680 1.524 . S
C679 C683 1.400 . S
C680 H665 0.960 . S
C680 H666 0.960 . S
C680 H667 0.960 . S
C680 C679 1.524 . S
C681 C678 1.403 . S
C681 C682 1.392 . S
C681 C685 1.495 . S
C682 C681 1.392 . S
C682 C683 1.385 . S
C682 C684 1.478 . S
C683 H677 0.930 . S
C683 C679 1.400 . S
C683 C682 1.385 . S
C684 C682 1.478 . S
C684 C686 1.381 . S
C684 C690 1.383 . S
C685 C681 1.495 . S
C685 H691 0.959 . S
C685 H692 0.961 . S
C685 H693 0.960 . S
C686 C684 1.381 . S
C686 C687 1.394 . S
C686 H694 0.930 . S
C687 C686 1.394 . S
C687 C688 1.383 . S
C687 H695 0.929 . S
C688 C687 1.383 . S
C688 C689 1.377 . S
C689 H673 0.930 . S
C689 C688 1.377 . S
C689 C690 1.379 . S
C690 H674 0.931 . S
C690 C684 1.383 . S
C690 C689 1.379 . S
H691 C685 0.959 . S
H692 C685 0.961 . S
H693 C685 0.960 . S
H694 C686 0.930 . S
H695 C687 0.929 . S
H696 C704 0.929 . S
H697 C706 0.930 . S
H698 C708 0.930 . S
H699 C711 0.929 . S
H700 C714 0.930 . S
H701 C716 0.960 1_545 S
H702 C716 0.960 . S
H703 C716 0.960 . S
C704 H696 0.929 . S
C704 C705 1.377 . S
C704 C706 1.384 . S
C705 C704 1.377 . S
C705 C711 1.390 . S
C706 H697 0.930 . S
C706 C704 1.384 . S
C706 C707 1.372 . S
C707 C706 1.372 . S
C707 C708 1.400 . S
C707 C712 1.490 . S
C708 H698 0.930 . S
C708 C707 1.400 . S
C708 C711 1.386 . S
H709 C725 0.930 . S
H710 C726 0.931 . S
C711 H699 0.929 . S
C711 C705 1.390 . S
C711 C708 1.386 . S
C712 C707 1.490 . S
C712 C714 1.395 . S
C712 C715 1.407 . S
H713 C719 0.930 . S
C714 H700 0.930 . S
C714 C712 1.395 . S
C714 C717 1.403 1_565 S
C715 C712 1.407 . S
C715 C716 1.525 . S
C715 C719 1.394 1_565 S
C716 H701 0.960 1_565 S
C716 H702 0.960 . S
C716 H703 0.960 . S
C716 C715 1.525 . S
C717 C714 1.403 1_545 S
C717 C718 1.392 . S
C717 C721 1.495 . S
C718 C717 1.392 . S
C718 C719 1.385 . S
C718 C720 1.478 . S
C719 H713 0.930 . S
C719 C715 1.394 1_545 S
C719 C718 1.385 . S
C720 C718 1.478 . S
C720 C722 1.381 . S
C720 C726 1.383 . S
C721 C717 1.495 . S
C721 H727 0.959 . S
C721 H728 0.961 . S
C721 H729 0.960 . S
C722 C720 1.381 . S
C722 C723 1.394 . S
C722 H730 0.930 . S
C723 C722 1.394 . S
C723 C724 1.383 . S
C723 H731 0.929 . S
C724 C723 1.383 . S
C724 C725 1.377 . S
C725 H709 0.930 . S
C725 C724 1.377 . S
C725 C726 1.379 . S
C726 H710 0.931 . S
C726 C720 1.383 . S
C726 C725 1.379 . S
H727 C721 0.959 . S
H728 C721 0.961 . S
H729 C721 0.960 . S
H730 C722 0.930 . S
H731 C723 0.929 . S
H732 C740 0.929 . S
H733 C742 0.930 . S
H734 C744 0.930 . S
H735 C747 0.929 . S
H736 C750 0.930 . S
H737 C752 0.960 1_655 S
H738 C752 0.960 . S
H739 C752 0.960 1_665 S
C740 H732 0.929 . S
C740 C741 1.377 . S
C740 C742 1.384 . S
C741 C740 1.377 . S
C741 C747 1.390 1_455 S
C742 H733 0.930 . S
C742 C740 1.384 . S
C742 C743 1.372 . S
C743 C742 1.372 . S
C743 C744 1.400 1_455 S
C743 C748 1.490 . S
C744 H734 0.930 . S
C744 C743 1.400 1_655 S
C744 C747 1.386 . S
H745 C761 0.930 . S
H746 C762 0.931 . S
C747 H735 0.929 . S
C747 C741 1.390 1_655 S
C747 C744 1.386 . S
C748 C743 1.490 . S
C748 C750 1.395 . S
C748 C751 1.403 . S
H749 C755 0.930 . S
C750 H736 0.930 . S
C750 C748 1.395 . S
C750 C753 1.403 . S
C751 C748 1.403 . S
C751 C752 1.524 1_565 S
C751 C755 1.400 1_565 S
C752 H737 0.960 1_455 S
C752 H738 0.960 . S
C752 H739 0.960 1_445 S
C752 C751 1.524 1_545 S
C753 C750 1.403 . S
C753 C754 1.392 1_565 S
C753 C757 1.495 . S
C754 C753 1.392 1_545 S
C754 C755 1.385 . S
C754 C756 1.478 . S
C755 H749 0.930 . S
C755 C751 1.400 1_545 S
C755 C754 1.385 . S
C756 C754 1.478 . S
C756 C758 1.381 . S
C756 C762 1.383 1_455 S
C757 C753 1.495 . S
C757 H763 0.959 . S
C757 H764 0.961 . S
C757 H765 0.960 . S
C758 C756 1.381 . S
C758 C759 1.394 . S
C758 H766 0.930 . S
C759 C758 1.394 . S
C759 C760 1.383 . S
C759 H767 0.929 . S
C760 C759 1.383 . S
C760 C761 1.377 1_455 S
C761 H745 0.930 . S
C761 C760 1.377 1_655 S
C761 C762 1.379 . S
C762 H746 0.931 . S
C762 C756 1.383 1_655 S
C762 C761 1.379 . S
H763 C757 0.959 . S
H764 C757 0.961 . S
H765 C757 0.960 . S
H766 C758 0.930 . S
H767 C759 0.929 . S
H768 C776 0.929 . S
H769 C778 0.930 . S
H770 C780 0.930 . S
H771 C783 0.929 . S
H772 C786 0.930 . S
H773 C788 0.960 . S
H774 C788 0.960 1_565 S
H775 C788 0.960 . S
C776 H768 0.929 . S
C776 C777 1.377 . S
C776 C778 1.384 . S
C777 C776 1.377 . S
C777 C783 1.390 . S
C778 H769 0.930 . S
C778 C776 1.384 . S
C778 C779 1.372 . S
C779 C778 1.372 . S
C779 C780 1.400 . S
C779 C784 1.490 . S
C780 H770 0.930 . S
C780 C779 1.400 . S
C780 C783 1.386 . S
H781 C797 0.930 . S
H782 C798 0.931 . S
C783 H771 0.929 . S
C783 C777 1.390 . S
C783 C780 1.386 . S
C784 C779 1.490 . S
C784 C786 1.395 . S
C784 C787 1.403 . S
H785 C791 0.930 . S
C786 H772 0.930 . S
C786 C784 1.395 . S
C786 C789 1.403 . S
C787 C784 1.403 . S
C787 C788 1.524 1_565 S
C787 C791 1.400 1_565 S
C788 H773 0.960 . S
C788 H774 0.960 1_545 S
C788 H775 0.960 . S
C788 C787 1.524 1_545 S
C789 C786 1.403 . S
C789 C790 1.392 1_565 S
C789 C793 1.495 . S
C790 C789 1.392 1_545 S
C790 C791 1.385 . S
C790 C792 1.478 . S
C791 H785 0.930 . S
C791 C787 1.400 1_545 S
C791 C790 1.385 . S
C792 C790 1.478 . S
C792 C794 1.381 . S
C792 C798 1.383 . S
C793 C789 1.495 . S
C793 H799 0.959 . S
C793 H800 0.961 . S
C793 H801 0.960 . S
C794 C792 1.381 . S
C794 C795 1.394 . S
C794 H802 0.930 . S
C795 C794 1.394 . S
C795 C796 1.383 . S
C795 H803 0.929 . S
C796 C795 1.383 . S
C796 C797 1.377 . S
C797 H781 0.930 . S
C797 C796 1.377 . S
C797 C798 1.379 . S
C798 H782 0.931 . S
C798 C792 1.383 . S
C798 C797 1.379 . S
H799 C793 0.959 . S
H800 C793 0.961 . S
H801 C793 0.960 . S
H802 C794 0.930 . S
H803 C795 0.929 . S
H804 C812 0.933 . S
H805 C814 0.930 . S
H806 C816 0.930 . S
H807 C819 0.929 . S
H808 C822 0.930 . S
H809 C824 0.960 . S
H810 C824 0.960 . S
H811 C824 0.960 . S
C812 H804 0.933 . S
C812 C813 1.373 1_655 S
C812 C814 1.384 . S
C813 C812 1.373 1_455 S
C813 C819 1.390 . S
C814 H805 0.930 . S
C814 C812 1.384 . S
C814 C815 1.372 1_655 S
C815 C814 1.372 1_455 S
C815 C816 1.400 . S
C815 C820 1.490 . S
C816 H806 0.930 . S
C816 C815 1.400 . S
C816 C819 1.386 . S
H817 C833 0.930 . S
H818 C834 0.931 . S
C819 H807 0.929 . S
C819 C813 1.390 . S
C819 C816 1.386 . S
C820 C815 1.490 . S
C820 C822 1.395 1_455 S
C820 C823 1.403 . S
H821 C827 0.928 1_565 S
C822 H808 0.930 . S
C822 C820 1.395 1_655 S
C822 C825 1.403 1_545 S
C823 C820 1.403 . S
C823 C824 1.524 . S
C823 C827 1.400 . S
C824 H809 0.960 . S
C824 H810 0.960 . S
C824 H811 0.960 . S
C824 C823 1.524 . S
C825 C822 1.403 1_565 S
C825 C826 1.392 1_655 S
C825 C829 1.495 . S
C826 C825 1.392 1_455 S
C826 C827 1.385 1_565 S
C826 C828 1.478 . S
C827 H821 0.928 1_545 S
C827 C823 1.400 . S
C827 C826 1.385 1_545 S
C828 C826 1.478 . S
C828 C830 1.381 1_455 S
C828 C834 1.383 . S
C829 C825 1.495 . S
C829 H835 0.959 . S
C829 H836 0.961 . S
C829 H837 0.960 . S
C830 C828 1.381 1_655 S
C830 C831 1.394 . S
C830 H838 0.930 . S
C831 C830 1.394 . S
C831 C832 1.383 1_655 S
C831 H839 0.929 . S
C832 C831 1.383 1_455 S
C832 C833 1.377 . S
C833 H817 0.930 . S
C833 C832 1.377 . S
C833 C834 1.379 . S
C834 H818 0.931 . S
C834 C828 1.383 . S
C834 C833 1.379 . S
H835 C829 0.959 . S
H836 C829 0.961 . S
H837 C829 0.960 . S
H838 C830 0.930 . S
H839 C831 0.929 . S
H840 C848 0.929 . S
H841 C850 0.930 . S
H842 C852 0.924 1_655 S
H843 C855 0.929 1_655 S
H844 C858 0.930 . S
H845 C860 0.960 . S
H846 C860 0.960 . S
H847 C860 0.960 . S
C848 H840 0.929 . S
C848 C849 1.377 . S
C848 C850 1.384 . S
C849 C848 1.377 . S
C849 C855 1.390 . S
C850 H841 0.930 . S
C850 C848 1.384 . S
C850 C851 1.372 . S
C851 C850 1.372 . S
C851 C852 1.400 . S
C851 C856 1.490 . S
C852 H842 0.924 1_455 S
C852 C851 1.400 . S
C852 C855 1.386 . S
H853 C869 0.930 1_655 S
H854 C870 0.931 1_655 S
C855 H843 0.929 1_455 S
C855 C849 1.390 . S
C855 C852 1.386 . S
C856 C851 1.490 . S
C856 C858 1.395 1_556 S
C856 C859 1.403 . S
H857 C863 0.930 . S
C858 H844 0.930 . S
C858 C856 1.395 1_554 S
C858 C861 1.403 . S
C859 C856 1.403 . S
C859 C860 1.524 . S
C859 C863 1.400 . S
C860 H845 0.960 . S
C860 H846 0.960 . S
C860 H847 0.960 . S
C860 C859 1.524 . S
C861 C858 1.403 . S
C861 C862 1.392 . S
C861 C865 1.495 . S
C862 C861 1.392 . S
C862 C863 1.385 1_554 S
C862 C864 1.478 . S
C863 H857 0.930 . S
C863 C859 1.400 . S
C863 C862 1.385 1_556 S
C864 C862 1.478 . S
C864 C866 1.381 . S
C864 C870 1.383 . S
C865 C861 1.495 . S
C865 H871 0.959 . S
C865 H872 0.961 . S
C865 H873 0.960 . S
C866 C864 1.381 . S
C866 C867 1.394 . S
C866 H874 0.930 . S
C867 C866 1.394 . S
C867 C868 1.383 . S
C867 H875 0.929 . S
C868 C867 1.383 . S
C868 C869 1.377 . S
C869 H853 0.930 1_455 S
C869 C868 1.377 . S
C869 C870 1.379 . S
C870 H854 0.931 1_455 S
C870 C864 1.383 . S
C870 C869 1.379 . S
H871 C865 0.959 . S
H872 C865 0.961 . S
H873 C865 0.960 . S
H874 C866 0.930 . S
H875 C867 0.929 . S
H876 C884 0.929 . S
H877 C886 0.930 . S
H878 C888 0.930 . S
H879 C891 0.929 . S
H880 C894 0.930 . S
H881 C896 0.960 . S
H882 C896 0.960 . S
H883 C896 0.960 . S
C884 H876 0.929 . S
C884 C885 1.377 . S
C884 C886 1.384 . S
C885 C884 1.377 . S
C885 C891 1.390 . S
C886 H877 0.930 . S
C886 C884 1.384 . S
C886 C887 1.372 . S
C887 C886 1.372 . S
C887 C888 1.400 . S
C887 C892 1.490 . S
C888 H878 0.930 . S
C888 C887 1.400 . S
C888 C891 1.386 . S
H889 C905 0.930 . S
H890 C906 0.931 . S
C891 H879 0.929 . S
C891 C885 1.390 . S
C891 C888 1.386 . S
C892 C887 1.490 . S
C892 C894 1.395 . S
C892 C895 1.403 . S
H893 C899 0.930 . S
C894 H880 0.930 . S
C894 C892 1.395 . S
C894 C897 1.403 . S
C895 C892 1.403 . S
C895 C896 1.524 . S
C895 C899 1.400 . S
C896 H881 0.960 . S
C896 H882 0.960 . S
C896 H883 0.960 . S
C896 C895 1.524 . S
C897 C894 1.403 . S
C897 C898 1.392 . S
C897 C901 1.495 . S
C898 C897 1.392 . S
C898 C899 1.385 . S
C898 C900 1.478 . S
C899 H893 0.930 . S
C899 C895 1.400 . S
C899 C898 1.385 . S
C900 C898 1.478 . S
C900 C902 1.381 . S
C900 C906 1.383 . S
C901 C897 1.495 . S
C901 H907 0.959 . S
C901 H908 0.961 . S
C901 H909 0.960 . S
C902 C900 1.381 . S
C902 C903 1.394 . S
C902 H910 0.930 . S
C903 C902 1.394 . S
C903 C904 1.383 . S
C903 H911 0.929 . S
C904 C903 1.383 . S
C904 C905 1.377 . S
C905 H889 0.930 . S
C905 C904 1.377 . S
C905 C906 1.379 . S
C906 H890 0.931 . S
C906 C900 1.383 . S
C906 C905 1.379 . S
H907 C901 0.959 . S
H908 C901 0.961 . S
H909 C901 0.960 . S
H910 C902 0.930 . S
H911 C903 0.929 . S
H912 C920 0.929 . S
H913 C922 0.930 . S
H914 C924 0.930 . S
H915 C927 0.929 . S
H916 C930 0.930 . S
H917 C932 0.960 . S
H918 C932 0.960 . S
H919 C932 0.960 1_545 S
C920 H912 0.929 . S
C920 C921 1.377 . S
C920 C922 1.384 . S
C921 C920 1.377 . S
C921 C927 1.390 . S
C922 H913 0.930 . S
C922 C920 1.384 . S
C922 C923 1.372 . S
C923 C922 1.372 . S
C923 C924 1.400 . S
C923 C928 1.490 . S
C924 H914 0.930 . S
C924 C923 1.400 . S
C924 C927 1.386 . S
H925 C941 0.930 . S
H926 C942 0.931 . S
C927 H915 0.929 . S
C927 C921 1.390 . S
C927 C924 1.386 . S
C928 C923 1.490 . S
C928 C930 1.395 1_556 S
C928 C931 1.403 . S
H929 C935 0.930 . S
C930 H916 0.930 . S
C930 C928 1.395 1_554 S
C930 C933 1.403 1_545 S
C931 C928 1.403 . S
C931 C932 1.524 1_545 S
C931 C935 1.404 1_545 S
C932 H917 0.960 . S
C932 H918 0.960 . S
C932 H919 0.960 1_565 S
C932 C931 1.524 1_565 S
C933 C930 1.403 1_565 S
C933 C934 1.393 . S
C933 C937 1.495 1_565 S
C934 C933 1.393 . S
C934 C935 1.381 1_554 S
C934 C936 1.478 . S
C935 H929 0.930 . S
C935 C931 1.404 1_565 S
C935 C934 1.381 1_556 S
C936 C934 1.478 . S
C936 C938 1.381 . S
C936 C942 1.383 . S
C937 C933 1.495 1_545 S
C937 H943 0.977 . S
C937 H944 0.962 . S
C937 H945 0.942 1_545 S
C938 C936 1.381 . S
C938 C939 1.394 . S
C938 H946 0.930 . S
C939 C938 1.394 . S
C939 C940 1.383 . S
C939 H947 0.929 . S
C940 C939 1.383 . S
C940 C941 1.377 . S
C941 H925 0.930 . S
C941 C940 1.377 . S
C941 C942 1.379 . S
C942 H926 0.931 . S
C942 C936 1.383 . S
C942 C941 1.379 . S
H943 C937 0.977 . S
H944 C937 0.962 . S
H945 C937 0.942 1_565 S
H946 C938 0.930 . S
H947 C939 0.929 . S
H948 C956 0.929 . S
H949 C958 0.930 . S
H950 C960 0.930 . S
H951 C963 0.929 . S
H952 C966 0.930 . S
H953 C968 0.960 . S
H954 C968 0.960 . S
H955 C968 0.960 . S
C956 H948 0.929 . S
C956 C957 1.377 1_455 S
C956 C958 1.384 . S
C957 C956 1.377 1_655 S
C957 C963 1.390 . S
C958 H949 0.930 . S
C958 C956 1.384 . S
C958 C959 1.372 1_455 S
C959 C958 1.372 1_655 S
C959 C960 1.400 . S
C959 C964 1.490 . S
C960 H950 0.930 . S
C960 C959 1.400 . S
C960 C963 1.386 . S
H961 C977 0.930 . S
H962 C978 0.931 . S
C963 H951 0.929 . S
C963 C957 1.390 . S
C963 C960 1.386 . S
C964 C959 1.490 . S
C964 C966 1.395 1_655 S
C964 C967 1.403 . S
H965 C971 0.930 . S
C966 H952 0.930 . S
C966 C964 1.395 1_455 S
C966 C969 1.403 1_565 S
C967 C964 1.403 . S
C967 C968 1.524 . S
C967 C971 1.400 1_565 S
C968 H953 0.960 . S
C968 H954 0.960 . S
C968 H955 0.960 . S
C968 C967 1.524 . S
C969 C966 1.403 1_545 S
C969 C970 1.392 1_455 S
C969 C973 1.495 . S
C970 C969 1.392 1_655 S
C970 C971 1.385 . S
C970 C972 1.478 . S
C971 H965 0.930 . S
C971 C967 1.400 1_545 S
C971 C970 1.385 . S
C972 C970 1.478 . S
C972 C974 1.381 1_655 S
C972 C978 1.383 . S
C973 C969 1.495 . S
C973 H979 0.959 . S
C973 H980 0.961 . S
C973 H981 0.960 . S
C974 C972 1.381 1_455 S
C974 C975 1.394 . S
C974 H982 0.930 . S
C975 C974 1.394 . S
C975 C976 1.383 1_455 S
C975 H983 0.929 . S
C976 C975 1.383 1_655 S
C976 C977 1.377 . S
C977 H961 0.930 . S
C977 C976 1.377 . S
C977 C978 1.379 . S
C978 H962 0.931 . S
C978 C972 1.383 . S
C978 C977 1.379 . S
H979 C973 0.959 . S
H980 C973 0.961 . S
H981 C973 0.960 . S
H982 C974 0.930 . S
H983 C975 0.929 . S
C273 C219 1.773 . S
C292 C18 1.780 . S
C309 C51 1.780 . S
C328 C252 1.764 . S
C345 C153 1.778 . S
C364 C84 1.772 . S
C381 C117 1.783 . S
C400 C186 1.783 . S
C417 C150 1.780 . S
C436 C87 1.765 . S
C453 C183 1.786 . S
C472 C120 1.786 . S
C489 C21 1.773 . S
C508 C216 1.768 . S
C525 C54 1.776 . S
C544 C249 1.766 . S
C561 C7 2.070 . S
C580 N233 2.028 1_455 S
C597 C40 2.069 . S
C616 N200 2.012 . S
C633 N167 2.028 1_455 S
C652 C73 2.069 . S
C669 C106 2.069 . S
C688 N134 2.016 . S
C705 C139 2.069 . S
C724 N101 2.029 . S
C741 N68 2.023 . S
C760 C172 2.061 . S
C777 N35 2.024 . S
C796 C205 2.064 . S
C813 N2 2.029 . S
C832 C238 2.069 . S
C849 N79 1.049 . S
C868 N13 1.033 . S
C885 N46 1.051 . S
C904 N112 1.069 . S
C921 N211 1.044 . S
C940 N145 1.057 . S
C957 N244 1.053 . S
C976 N178 1.057 . S
