# Generated by pormake.
# Topology ukn, (4)-cn, num edge types: 1
# Building blocks:
#     Node 0, Type 0, BuildingBlock: GALJAG_clean_sbu_0, # of connection points: 4
#     Node 1, Type 0, BuildingBlock: GALJAG_clean_sbu_0, # of connection points: 4
#     Node 2, Type 0, BuildingBlock: GALJAG_clean_sbu_0, # of connection points: 4
#     Node 3, Type 0, BuildingBlock: GALJAG_clean_sbu_0, # of connection points: 4
#     Node 4, Type 0, BuildingBlock: GALJAG_clean_sbu_0, # of connection points: 4
#     Node 5, Type 0, BuildingBlock: GALJAG_clean_sbu_0, # of connection points: 4
#     Node 6, Type 0, BuildingBlock: GALJAG_clean_sbu_0, # of connection points: 4
#     Node 7, Type 0, BuildingBlock: GALJAG_clean_sbu_0, # of connection points: 4
#     Node 8, Type 0, BuildingBlock: GALJAG_clean_sbu_0, # of connection points: 4
#     Node 9, Type 0, BuildingBlock: GALJAG_clean_sbu_0, # of connection points: 4
#     Node 10, Type 0, BuildingBlock: GALJAG_clean_sbu_0, # of connection points: 4
#     Node 11, Type 0, BuildingBlock: GALJAG_clean_sbu_0, # of connection points: 4
#     Node 12, Type 0, BuildingBlock: GALJAG_clean_sbu_0, # of connection points: 4
#     Node 13, Type 0, BuildingBlock: GALJAG_clean_sbu_0, # of connection points: 4
#     Node 14, Type 0, BuildingBlock: GALJAG_clean_sbu_0, # of connection points: 4
#     Node 15, Type 0, BuildingBlock: GALJAG_clean_sbu_0, # of connection points: 4
#     Node 16, Type 0, BuildingBlock: GALJAG_clean_sbu_0, # of connection points: 4
#     Node 17, Type 0, BuildingBlock: GALJAG_clean_sbu_0, # of connection points: 4
#     Node 18, Type 0, BuildingBlock: GALJAG_clean_sbu_0, # of connection points: 4
#     Node 19, Type 0, BuildingBlock: GALJAG_clean_sbu_0, # of connection points: 4
#     Node 20, Type 0, BuildingBlock: GALJAG_clean_sbu_0, # of connection points: 4
#     Node 21, Type 0, BuildingBlock: GALJAG_clean_sbu_0, # of connection points: 4
#     Node 22, Type 0, BuildingBlock: GALJAG_clean_sbu_0, # of connection points: 4
#     Node 23, Type 0, BuildingBlock: GALJAG_clean_sbu_0, # of connection points: 4
#     Node 24, Type 0, BuildingBlock: GALJAG_clean_sbu_0, # of connection points: 4
#     Node 25, Type 0, BuildingBlock: GALJAG_clean_sbu_0, # of connection points: 4
#     Node 26, Type 0, BuildingBlock: GALJAG_clean_sbu_0, # of connection points: 4
#     Node 27, Type 0, BuildingBlock: GALJAG_clean_sbu_0, # of connection points: 4
#     Node 28, Type 0, BuildingBlock: GALJAG_clean_sbu_0, # of connection points: 4
#     Node 29, Type 0, BuildingBlock: GALJAG_clean_sbu_0, # of connection points: 4
#     Node 30, Type 0, BuildingBlock: GALJAG_clean_sbu_0, # of connection points: 4
#     Node 31, Type 0, BuildingBlock: GALJAG_clean_sbu_0, # of connection points: 4
#     Node 32, Type 0, BuildingBlock: GALJAG_clean_sbu_0, # of connection points: 4
#     Node 33, Type 0, BuildingBlock: GALJAG_clean_sbu_0, # of connection points: 4
#     Node 34, Type 0, BuildingBlock: GALJAG_clean_sbu_0, # of connection points: 4
#     Node 35, Type 0, BuildingBlock: GALJAG_clean_sbu_0, # of connection points: 4
#     Edge 36, Type (0, 0), BuildingBlock: CIFDUS_clean_linker_0, # of connection points: 2
#     Edge 37, Type (0, 0), BuildingBlock: CIFDUS_clean_linker_0, # of connection points: 2
#     Edge 38, Type (0, 0), BuildingBlock: CIFDUS_clean_linker_0, # of connection points: 2
#     Edge 39, Type (0, 0), BuildingBlock: CIFDUS_clean_linker_0, # of connection points: 2
#     Edge 40, Type (0, 0), BuildingBlock: CIFDUS_clean_linker_0, # of connection points: 2
#     Edge 41, Type (0, 0), BuildingBlock: CIFDUS_clean_linker_0, # of connection points: 2
#     Edge 42, Type (0, 0), BuildingBlock: CIFDUS_clean_linker_0, # of connection points: 2
#     Edge 43, Type (0, 0), BuildingBlock: CIFDUS_clean_linker_0, # of connection points: 2
#     Edge 44, Type (0, 0), BuildingBlock: CIFDUS_clean_linker_0, # of connection points: 2
#     Edge 45, Type (0, 0), BuildingBlock: CIFDUS_clean_linker_0, # of connection points: 2
#     Edge 46, Type (0, 0), BuildingBlock: CIFDUS_clean_linker_0, # of connection points: 2
#     Edge 47, Type (0, 0), BuildingBlock: CIFDUS_clean_linker_0, # of connection points: 2
#     Edge 48, Type (0, 0), BuildingBlock: CIFDUS_clean_linker_0, # of connection points: 2
#     Edge 49, Type (0, 0), BuildingBlock: CIFDUS_clean_linker_0, # of connection points: 2
#     Edge 50, Type (0, 0), BuildingBlock: CIFDUS_clean_linker_0, # of connection points: 2
#     Edge 51, Type (0, 0), BuildingBlock: CIFDUS_clean_linker_0, # of connection points: 2
#     Edge 52, Type (0, 0), BuildingBlock: CIFDUS_clean_linker_0, # of connection points: 2
#     Edge 53, Type (0, 0), BuildingBlock: CIFDUS_clean_linker_0, # of connection points: 2
#     Edge 54, Type (0, 0), BuildingBlock: CIFDUS_clean_linker_0, # of connection points: 2
#     Edge 55, Type (0, 0), BuildingBlock: CIFDUS_clean_linker_0, # of connection points: 2
#     Edge 56, Type (0, 0), BuildingBlock: CIFDUS_clean_linker_0, # of connection points: 2
#     Edge 57, Type (0, 0), BuildingBlock: CIFDUS_clean_linker_0, # of connection points: 2
#     Edge 58, Type (0, 0), BuildingBlock: CIFDUS_clean_linker_0, # of connection points: 2
#     Edge 59, Type (0, 0), BuildingBlock: CIFDUS_clean_linker_0, # of connection points: 2
#     Edge 60, Type (0, 0), BuildingBlock: CIFDUS_clean_linker_0, # of connection points: 2
#     Edge 61, Type (0, 0), BuildingBlock: CIFDUS_clean_linker_0, # of connection points: 2
#     Edge 62, Type (0, 0), BuildingBlock: CIFDUS_clean_linker_0, # of connection points: 2
#     Edge 63, Type (0, 0), BuildingBlock: CIFDUS_clean_linker_0, # of connection points: 2
#     Edge 64, Type (0, 0), BuildingBlock: CIFDUS_clean_linker_0, # of connection points: 2
#     Edge 65, Type (0, 0), BuildingBlock: CIFDUS_clean_linker_0, # of connection points: 2
#     Edge 66, Type (0, 0), BuildingBlock: CIFDUS_clean_linker_0, # of connection points: 2
#     Edge 67, Type (0, 0), BuildingBlock: CIFDUS_clean_linker_0, # of connection points: 2
#     Edge 68, Type (0, 0), BuildingBlock: CIFDUS_clean_linker_0, # of connection points: 2
#     Edge 69, Type (0, 0), BuildingBlock: CIFDUS_clean_linker_0, # of connection points: 2
#     Edge 70, Type (0, 0), BuildingBlock: CIFDUS_clean_linker_0, # of connection points: 2
#     Edge 71, Type (0, 0), BuildingBlock: CIFDUS_clean_linker_0, # of connection points: 2
#     Edge 72, Type (0, 0), BuildingBlock: CIFDUS_clean_linker_0, # of connection points: 2
#     Edge 73, Type (0, 0), BuildingBlock: CIFDUS_clean_linker_0, # of connection points: 2
#     Edge 74, Type (0, 0), BuildingBlock: CIFDUS_clean_linker_0, # of connection points: 2
#     Edge 75, Type (0, 0), BuildingBlock: CIFDUS_clean_linker_0, # of connection points: 2
#     Edge 76, Type (0, 0), BuildingBlock: CIFDUS_clean_linker_0, # of connection points: 2
#     Edge 77, Type (0, 0), BuildingBlock: CIFDUS_clean_linker_0, # of connection points: 2
#     Edge 78, Type (0, 0), BuildingBlock: CIFDUS_clean_linker_0, # of connection points: 2
#     Edge 79, Type (0, 0), BuildingBlock: CIFDUS_clean_linker_0, # of connection points: 2
#     Edge 80, Type (0, 0), BuildingBlock: CIFDUS_clean_linker_0, # of connection points: 2
#     Edge 81, Type (0, 0), BuildingBlock: CIFDUS_clean_linker_0, # of connection points: 2
#     Edge 82, Type (0, 0), BuildingBlock: CIFDUS_clean_linker_0, # of connection points: 2
#     Edge 83, Type (0, 0), BuildingBlock: CIFDUS_clean_linker_0, # of connection points: 2
#     Edge 84, Type (0, 0), BuildingBlock: CIFDUS_clean_linker_0, # of connection points: 2
#     Edge 85, Type (0, 0), BuildingBlock: CIFDUS_clean_linker_0, # of connection points: 2
#     Edge 86, Type (0, 0), BuildingBlock: CIFDUS_clean_linker_0, # of connection points: 2
#     Edge 87, Type (0, 0), BuildingBlock: CIFDUS_clean_linker_0, # of connection points: 2
#     Edge 88, Type (0, 0), BuildingBlock: CIFDUS_clean_linker_0, # of connection points: 2
#     Edge 89, Type (0, 0), BuildingBlock: CIFDUS_clean_linker_0, # of connection points: 2
#     Edge 90, Type (0, 0), BuildingBlock: CIFDUS_clean_linker_0, # of connection points: 2
#     Edge 91, Type (0, 0), BuildingBlock: CIFDUS_clean_linker_0, # of connection points: 2
#     Edge 92, Type (0, 0), BuildingBlock: CIFDUS_clean_linker_0, # of connection points: 2
#     Edge 93, Type (0, 0), BuildingBlock: CIFDUS_clean_linker_0, # of connection points: 2
#     Edge 94, Type (0, 0), BuildingBlock: CIFDUS_clean_linker_0, # of connection points: 2
#     Edge 95, Type (0, 0), BuildingBlock: CIFDUS_clean_linker_0, # of connection points: 2
#     Edge 96, Type (0, 0), BuildingBlock: CIFDUS_clean_linker_0, # of connection points: 2
#     Edge 97, Type (0, 0), BuildingBlock: CIFDUS_clean_linker_0, # of connection points: 2
#     Edge 98, Type (0, 0), BuildingBlock: CIFDUS_clean_linker_0, # of connection points: 2
#     Edge 99, Type (0, 0), BuildingBlock: CIFDUS_clean_linker_0, # of connection points: 2
#     Edge 100, Type (0, 0), BuildingBlock: CIFDUS_clean_linker_0, # of connection points: 2
#     Edge 101, Type (0, 0), BuildingBlock: CIFDUS_clean_linker_0, # of connection points: 2
#     Edge 102, Type (0, 0), BuildingBlock: CIFDUS_clean_linker_0, # of connection points: 2
#     Edge 103, Type (0, 0), BuildingBlock: CIFDUS_clean_linker_0, # of connection points: 2
#     Edge 104, Type (0, 0), BuildingBlock: CIFDUS_clean_linker_0, # of connection points: 2
#     Edge 105, Type (0, 0), BuildingBlock: CIFDUS_clean_linker_0, # of connection points: 2
#     Edge 106, Type (0, 0), BuildingBlock: CIFDUS_clean_linker_0, # of connection points: 2
#     Edge 107, Type (0, 0), BuildingBlock: CIFDUS_clean_linker_0, # of connection points: 2
# Relax obj value: 0.060
# Max RMSD: 0.091
# Mean RMSD: 0.091
data_MOF--net-ukn--node1-GALJAG_clean_sbu_0--edge1-CIFDUS_clean_linker_0
_symmetry_space_group_name_H-M    P1
_symmetry_Int_Tables_number       1
_symmetry_cell_setting            triclinic
loop_
_symmetry_equiv_pos_as_xyz
'x, y, z'
_cell_length_a     91.211204
_cell_length_b     91.214537
_cell_length_c     24.444618
_cell_angle_alpha  90.00521
_cell_angle_beta   89.953716
_cell_angle_gamma 119.97313
loop_
_atom_site_label
_atom_site_type_symbol
_atom_site_fract_x
_atom_site_fract_y
_atom_site_fract_z
_atom_type_partial_charge
In0 In 0.07593 0.29472 0.07459 0.0
O1 O 0.08512 0.27533 0.07575 0.0
O2 O 0.10123 0.29999 0.1071 0.0
C3 C 0.04281 0.27544 0.05197 0.0
C4 C 0.07486 0.30983 0.16815 0.0
C5 C 0.08743 0.31028 0.97718 0.0
O6 O 0.05136 0.2691 0.07043 0.0
O7 O 0.05087 0.29132 0.04697 0.0
O8 O 0.08889 0.31836 0.02064 0.0
O9 O 0.08051 0.29447 0.98314 0.0
C10 C 0.09919 0.28555 0.09706 0.0
O11 O 0.08098 0.31788 0.1242 0.0
O12 O 0.06892 0.29403 0.16467 0.0
In13 In 0.69383 0.77706 0.08938 0.0
O14 O 0.70961 0.80593 0.10051 0.0
O15 O 0.68257 0.79347 0.10405 0.0
C16 C 0.71216 0.76219 0.07003 0.0
C17 C 0.68348 0.76563 0.19163 0.0
C18 C 0.68213 0.77243 0.98615 0.0
O19 O 0.71915 0.77818 0.07366 0.0
O20 O 0.69637 0.75413 0.07841 0.0
O21 O 0.67257 0.76415 0.02584 0.0
O22 O 0.69715 0.78306 0.99922 0.0
C23 C 0.69647 0.80718 0.10724 0.0
O24 O 0.67338 0.76039 0.15124 0.0
O25 O 0.69869 0.7762 0.17977 0.0
In26 In 0.22015 0.91928 0.09942 0.0
O27 O 0.23661 0.91516 0.16177 0.0
O28 O 0.22241 0.92635 0.18981 0.0
C29 C 0.22708 0.90944 0.00307 0.0
C30 C 0.18813 0.89394 0.11319 0.0
C31 C 0.23199 0.95171 0.07085 0.0
O32 O 0.21623 0.91405 0.00818 0.0
O33 O 0.23444 0.90952 0.04704 0.0
O34 O 0.2167 0.9421 0.08421 0.0
O35 O 0.24131 0.94516 0.07472 0.0
C36 C 0.23229 0.92092 0.20189 0.0
O37 O 0.20085 0.892 0.11612 0.0
O38 O 0.19147 0.9089 0.10327 0.0
In39 In 0.29622 0.07585 0.9131 0.0
O40 O 0.31727 0.08214 0.85036 0.0
O41 O 0.29182 0.07128 0.82188 0.0
C42 C 0.30826 0.08295 0.01617 0.0
C43 C 0.28947 0.1011 0.903 0.0
C44 C 0.27995 0.04243 0.92968 0.0
O45 O 0.31803 0.08576 0.97561 0.0
O46 O 0.29287 0.07694 0.00406 0.0
O47 O 0.27202 0.05053 0.92682 0.0
O48 O 0.29572 0.05112 0.92161 0.0
C49 C 0.30725 0.07714 0.80981 0.0
O50 O 0.27761 0.08588 0.90753 0.0
O51 O 0.30424 0.1032 0.90349 0.0
In52 In 0.9151 0.22038 0.92289 0.0
O53 O 0.9089 0.23732 0.87218 0.0
O54 O 0.92042 0.22491 0.83163 0.0
C55 C 0.90404 0.22497 0.02006 0.0
C56 C 0.89236 0.18774 0.90187 0.0
C57 C 0.94864 0.23627 0.94065 0.0
O58 O 0.90225 0.23118 0.97625 0.0
O59 O 0.91125 0.21633 0.01472 0.0
O60 O 0.94 0.22036 0.93593 0.0
O61 O 0.94042 0.2439 0.93517 0.0
C62 C 0.91433 0.23467 0.82789 0.0
O63 O 0.90707 0.19208 0.91869 0.0
O64 O 0.88946 0.19975 0.89559 0.0
In65 In 0.77647 0.70277 0.90743 0.0
O66 O 0.80541 0.72039 0.89857 0.0
O67 O 0.79524 0.69379 0.90386 0.0
C68 C 0.76423 0.72341 0.93127 0.0
C69 C 0.76281 0.68831 0.81048 0.0
C70 C 0.76883 0.68668 0.00416 0.0
O71 O 0.77968 0.72926 0.91951 0.0
O72 O 0.7552 0.70756 0.92769 0.0
O73 O 0.76223 0.67916 0.95987 0.0
O74 O 0.77928 0.70229 0.99954 0.0
C75 C 0.80827 0.70818 0.90027 0.0
O76 O 0.75846 0.68045 0.85527 0.0
O77 O 0.77391 0.70378 0.81442 0.0
In78 In 0.91844 0.69647 0.93223 0.0
O79 O 0.91409 0.67632 0.86922 0.0
O80 O 0.92171 0.70127 0.84092 0.0
C81 C 0.91316 0.68065 0.02887 0.0
C82 C 0.89028 0.6988 0.92776 0.0
C83 C 0.95179 0.71677 0.9454 0.0
O84 O 0.91136 0.67303 0.98395 0.0
O85 O 0.91767 0.69613 0.02466 0.0
O86 O 0.94157 0.72215 0.95391 0.0
O87 O 0.94509 0.70165 0.9292 0.0
C88 C 0.91761 0.68622 0.82885 0.0
O89 O 0.90478 0.71199 0.92565 0.0
O90 O 0.89041 0.68511 0.93237 0.0
In91 In 0.30092 0.22237 0.92892 0.0
O92 O 0.28531 0.19333 0.92072 0.0
O93 O 0.31198 0.20597 0.90819 0.0
C94 C 0.27966 0.23333 0.95725 0.0
C95 C 0.31058 0.23576 0.82796 0.0
C96 C 0.31694 0.22922 0.02607 0.0
O97 O 0.27425 0.21791 0.94586 0.0
O98 O 0.29543 0.24294 0.95207 0.0
O99 O 0.32441 0.23695 0.98273 0.0
O100 O 0.30164 0.218 0.01995 0.0
C101 C 0.29821 0.19213 0.90915 0.0
O102 O 0.32075 0.24047 0.86788 0.0
O103 O 0.29553 0.22474 0.83956 0.0
In104 In 0.77253 0.07986 0.921 0.0
O105 O 0.75272 0.08233 0.87162 0.0
O106 O 0.76601 0.07162 0.83218 0.0
C107 C 0.76988 0.09209 0.01858 0.0
C108 C 0.80326 0.10499 0.8905 0.0
C109 C 0.76089 0.04747 0.94972 0.0
O110 O 0.76127 0.09166 0.97754 0.0
O111 O 0.7799 0.08658 0.01005 0.0
O112 O 0.77557 0.05647 0.92995 0.0
O113 O 0.75219 0.0547 0.95287 0.0
C114 C 0.7552 0.07638 0.82815 0.0
O115 O 0.80131 0.09129 0.91003 0.0
O116 O 0.78989 0.10574 0.88655 0.0
In117 In 0.69304 0.92006 0.07848 0.0
O118 O 0.6691 0.91238 0.12829 0.0
O119 O 0.69268 0.9235 0.17061 0.0
C120 C 0.68235 0.91271 0.97386 0.0
C121 C 0.70167 0.8963 0.09672 0.0
C122 C 0.70998 0.9538 0.06768 0.0
O123 O 0.6721 0.90903 0.0133 0.0
O124 O 0.69771 0.91987 0.98748 0.0
O125 O 0.71764 0.94547 0.07125 0.0
O126 O 0.69407 0.94514 0.07139 0.0
C127 C 0.67679 0.91707 0.1736 0.0
O128 O 0.71286 0.91173 0.09185 0.0
O129 O 0.68663 0.89323 0.09231 0.0
In130 In 0.07604 0.77492 0.09698 0.0
O131 O 0.09003 0.80364 0.11253 0.0
O132 O 0.10381 0.79043 0.11418 0.0
C133 C 0.04356 0.76467 0.0759 0.0
C134 C 0.07413 0.75833 0.19029 0.0
C135 C 0.08332 0.77138 0.99289 0.0
O136 O 0.05335 0.77937 0.09455 0.0
O137 O 0.05 0.75529 0.0714 0.0
O138 O 0.08358 0.76212 0.03102 0.0
O139 O 0.0798 0.78252 0.00773 0.0
C140 C 0.10416 0.80436 0.11881 0.0
O141 O 0.07868 0.75498 0.14531 0.0
O142 O 0.07001 0.76964 0.18762 0.0
In143 In 0.22096 0.30209 0.0885 0.0
O144 O 0.23769 0.32574 0.13827 0.0
O145 O 0.22522 0.30196 0.17985 0.0
C146 C 0.22338 0.31304 0.98476 0.0
C147 C 0.18945 0.29497 0.11329 0.0
C148 C 0.2375 0.28497 0.07466 0.0
O149 O 0.23146 0.32299 0.02358 0.0
O150 O 0.214 0.29781 0.99867 0.0
O151 O 0.22156 0.27732 0.0803 0.0
O152 O 0.24474 0.30088 0.0777 0.0
C153 C 0.23473 0.31784 0.18322 0.0
O154 O 0.19265 0.28323 0.10323 0.0
O155 O 0.2019 0.30977 0.10993 0.0
In156 In 0.7432 0.63812 0.40933 0.0
O157 O 0.74995 0.66144 0.45993 0.0
O158 O 0.73937 0.63785 0.50182 0.0
C159 C 0.75256 0.65396 0.31194 0.0
C160 C 0.76688 0.62913 0.42585 0.0
C161 C 0.70964 0.61944 0.39171 0.0
O162 O 0.75433 0.66177 0.35617 0.0
O163 O 0.74616 0.63817 0.31682 0.0
O164 O 0.71908 0.61298 0.39089 0.0
O165 O 0.71706 0.63497 0.40336 0.0
C166 C 0.74544 0.65369 0.50498 0.0
O167 O 0.75143 0.6181 0.42096 0.0
O168 O 0.77004 0.6442 0.42232 0.0
In169 In 0.36418 0.11009 0.41438 0.0
O170 O 0.38337 0.13846 0.42258 0.0
O171 O 0.35692 0.12985 0.42876 0.0
C172 C 0.38081 0.09334 0.39619 0.0
C173 C 0.35248 0.09929 0.51656 0.0
C174 C 0.35206 0.10588 0.31141 0.0
O175 O 0.38861 0.10929 0.40155 0.0
O176 O 0.36495 0.08611 0.40228 0.0
O177 O 0.34244 0.09824 0.35164 0.0
O178 O 0.36734 0.11568 0.32384 0.0
C179 C 0.37186 0.1422 0.42984 0.0
O180 O 0.34262 0.09534 0.47578 0.0
O181 O 0.36803 0.10823 0.50516 0.0
In182 In 0.88584 0.25368 0.42568 0.0
O183 O 0.85762 0.24587 0.43238 0.0
O184 O 0.86528 0.22799 0.45223 0.0
C185 C 0.90225 0.28704 0.40426 0.0
C186 C 0.8998 0.25292 0.52128 0.0
C187 C 0.88985 0.24192 0.32914 0.0
O188 O 0.88631 0.2787 0.4088 0.0
O189 O 0.9096 0.27865 0.41226 0.0
O190 O 0.89656 0.24069 0.37266 0.0
O191 O 0.88102 0.24892 0.3345 0.0
C192 C 0.85331 0.23103 0.4479 0.0
O193 O 0.90266 0.24757 0.47717 0.0
O194 O 0.89009 0.25904 0.51699 0.0
In195 In 0.96444 0.40952 0.23211 0.0
O196 O 0.98441 0.4121 0.17055 0.0
O197 O 0.95902 0.40166 0.14279 0.0
C198 C 0.98106 0.41891 0.32806 0.0
C199 C 0.96082 0.43655 0.21371 0.0
C200 C 0.94333 0.37751 0.26267 0.0
O201 O 0.98807 0.41793 0.2846 0.0
O202 O 0.96593 0.41551 0.32256 0.0
O203 O 0.93788 0.38743 0.2506 0.0
O204 O 0.95906 0.38358 0.25648 0.0
C205 C 0.97421 0.40638 0.1308 0.0
O206 O 0.94819 0.42221 0.22461 0.0
O207 O 0.97485 0.43699 0.21262 0.0
In208 In 0.58304 0.54786 0.25504 0.0
O209 O 0.57404 0.51952 0.24388 0.0
O210 O 0.55633 0.5281 0.23444 0.0
C211 C 0.61649 0.56289 0.27298 0.0
C212 C 0.58172 0.5626 0.16062 0.0
C213 C 0.57451 0.55061 0.35889 0.0
O214 O 0.60806 0.54762 0.25751 0.0
O215 O 0.60814 0.57047 0.27659 0.0
O216 O 0.57273 0.55867 0.31975 0.0
O217 O 0.58011 0.541 0.34518 0.0
C218 C 0.55897 0.51579 0.23368 0.0
O219 O 0.57624 0.56489 0.20552 0.0
O220 O 0.58825 0.55324 0.16376 0.0
In221 In 0.44594 0.0314 0.2653 0.0
O222 O 0.47493 0.04579 0.25722 0.0
O223 O 0.4616 0.01887 0.26585 0.0
C224 C 0.43403 0.05252 0.28096 0.0
C225 C 0.43544 0.02047 0.1624 0.0
C226 C 0.4384 0.01987 0.36871 0.0
O227 O 0.44978 0.05806 0.2753 0.0
O228 O 0.42467 0.0367 0.27564 0.0
O229 O 0.43043 0.01058 0.32819 0.0
O230 O 0.45007 0.03458 0.35647 0.0
C231 C 0.47568 0.0323 0.26078 0.0
O232 O 0.42949 0.01072 0.20342 0.0
O233 O 0.44629 0.0356 0.17377 0.0
In234 In 0.59196 0.03288 0.23704 0.0
O235 O 0.58075 0.05048 0.22515 0.0
O236 O 0.56486 0.02528 0.25274 0.0
C237 C 0.6255 0.05401 0.24532 0.0
C238 C 0.58647 0.01764 0.13911 0.0
C239 C 0.58841 0.01679 0.33244 0.0
O240 O 0.61492 0.05841 0.25938 0.0
O241 O 0.61912 0.03943 0.22466 0.0
O242 O 0.58528 0.00923 0.287 0.0
O243 O 0.59337 0.03238 0.32954 0.0
C244 C 0.5661 0.03921 0.23991 0.0
O245 O 0.58396 0.00978 0.18374 0.0
O246 O 0.59206 0.03336 0.14375 0.0
In247 In 0.95259 0.54734 0.231 0.0
O248 O 0.97381 0.56374 0.17013 0.0
O249 O 0.9485 0.54994 0.14064 0.0
C250 C 0.96504 0.55185 0.3337 0.0
C251 C 0.94773 0.51616 0.21592 0.0
C252 C 0.93297 0.56041 0.25638 0.0
O253 O 0.97425 0.56048 0.29384 0.0
O254 O 0.95009 0.54095 0.32097 0.0
O255 O 0.9266 0.54511 0.24148 0.0
O256 O 0.94894 0.56904 0.25463 0.0
C257 C 0.96394 0.55962 0.12938 0.0
O258 O 0.93535 0.5186 0.22286 0.0
O259 O 0.96212 0.52933 0.21645 0.0
In260 In 0.43784 0.40868 0.24088 0.0
O261 O 0.41895 0.41236 0.19167 0.0
O262 O 0.43266 0.40229 0.15058 0.0
C263 C 0.43345 0.41889 0.33962 0.0
C264 C 0.46886 0.4341 0.21418 0.0
C265 C 0.42392 0.37543 0.26082 0.0
O266 O 0.42631 0.42015 0.29715 0.0
O267 O 0.44283 0.41259 0.33216 0.0
O268 O 0.43983 0.3849 0.25792 0.0
O269 O 0.4155 0.38273 0.25258 0.0
C270 C 0.4218 0.40703 0.14746 0.0
O271 O 0.46658 0.41969 0.22742 0.0
O272 O 0.45571 0.43531 0.21447 0.0
In273 In 0.36349 0.25343 0.43391 0.0
O274 O 0.37891 0.23977 0.43896 0.0
O275 O 0.35245 0.22606 0.45575 0.0
C276 C 0.38467 0.28534 0.40277 0.0
C277 C 0.35424 0.25751 0.53511 0.0
C278 C 0.34709 0.24401 0.33747 0.0
O279 O 0.39021 0.27567 0.41727 0.0
O280 O 0.36886 0.2791 0.40697 0.0
O281 O 0.3398 0.24454 0.38093 0.0
O282 O 0.36235 0.24789 0.34323 0.0
C283 C 0.36609 0.22579 0.45196 0.0
O284 O 0.34397 0.25206 0.49546 0.0
O285 O 0.36923 0.2614 0.52309 0.0
In286 In 0.7461 0.11089 0.42825 0.0
O287 O 0.75757 0.13966 0.43871 0.0
O288 O 0.77182 0.12823 0.46406 0.0
C289 C 0.71439 0.10038 0.39443 0.0
C290 C 0.74148 0.09267 0.52 0.0
C291 C 0.75871 0.108 0.33179 0.0
O292 O 0.72277 0.11412 0.42035 0.0
O293 O 0.72171 0.09187 0.38845 0.0
O294 O 0.75776 0.0992 0.37299 0.0
O295 O 0.75376 0.11849 0.33987 0.0
C296 C 0.77114 0.14161 0.4593 0.0
O297 O 0.74799 0.09065 0.47709 0.0
O298 O 0.7367 0.10345 0.51592 0.0
In299 In 0.8847 0.63255 0.43366 0.0
O300 O 0.90129 0.65193 0.49704 0.0
O301 O 0.88394 0.62685 0.52438 0.0
C302 C 0.89514 0.64896 0.33779 0.0
C303 C 0.85482 0.63135 0.44421 0.0
C304 C 0.8965 0.61147 0.41388 0.0
O305 O 0.90155 0.65613 0.38282 0.0
O306 O 0.88345 0.63376 0.34156 0.0
O307 O 0.88087 0.60656 0.40929 0.0
O308 O 0.90559 0.62647 0.43051 0.0
C309 C 0.89512 0.64178 0.53691 0.0
O310 O 0.85547 0.61787 0.43826 0.0
O311 O 0.86895 0.6448 0.44399 0.0
In312 In 0.40879 0.96382 0.76602 0.0
O313 O 0.41579 0.98509 0.82861 0.0
O314 O 0.40619 0.95989 0.85785 0.0
C315 C 0.41312 0.97594 0.66323 0.0
C316 C 0.43483 0.958 0.76478 0.0
C317 C 0.37513 0.94619 0.7556 0.0
O318 O 0.41704 0.98567 0.70443 0.0
O319 O 0.40722 0.96049 0.67448 0.0
O320 O 0.38395 0.93898 0.75412 0.0
O321 O 0.38329 0.96192 0.76479 0.0
C322 C 0.41174 0.97527 0.86954 0.0
O323 O 0.41979 0.94597 0.77152 0.0
O324 O 0.43638 0.97248 0.76002 0.0
In325 In 0.0283 0.44039 0.735 0.0
O326 O 0.04698 0.46921 0.73635 0.0
O327 O 0.02071 0.45982 0.75065 0.0
C328 C 0.04482 0.42352 0.71601 0.0
C329 C 0.01833 0.43002 0.83822 0.0
C330 C 0.01215 0.43358 0.63825 0.0
O331 O 0.05252 0.43957 0.71577 0.0
O332 O 0.02923 0.41642 0.72697 0.0
O333 O 0.00425 0.42787 0.68284 0.0
O334 O 0.02799 0.44268 0.64291 0.0
C335 C 0.03533 0.47255 0.74648 0.0
O336 O 0.00805 0.42505 0.79849 0.0
O337 O 0.0336 0.44007 0.82556 0.0
In338 In 0.55123 0.5819 0.7585 0.0
O339 O 0.56898 0.57612 0.80828 0.0
O340 O 0.55592 0.58661 0.85019 0.0
C341 C 0.55434 0.57359 0.65469 0.0
C342 C 0.51932 0.55722 0.77764 0.0
C343 C 0.56417 0.61509 0.73989 0.0
O344 O 0.56263 0.57214 0.69377 0.0
O345 O 0.54449 0.57888 0.66841 0.0
O346 O 0.54907 0.6058 0.75584 0.0
O347 O 0.57279 0.60777 0.73652 0.0
C348 C 0.56593 0.58085 0.8534 0.0
O349 O 0.52291 0.57238 0.7704 0.0
O350 O 0.53174 0.55478 0.77553 0.0
In351 In 0.62732 0.74015 0.58702 0.0
O352 O 0.64879 0.74703 0.52549 0.0
O353 O 0.62328 0.73407 0.49662 0.0
C354 C 0.63915 0.74857 0.68996 0.0
C355 C 0.61899 0.76404 0.56983 0.0
C356 C 0.61198 0.70693 0.60649 0.0
O357 O 0.64903 0.75114 0.64994 0.0
O358 O 0.62377 0.74227 0.67731 0.0
O359 O 0.60364 0.71459 0.60225 0.0
O360 O 0.62773 0.71595 0.59854 0.0
C361 C 0.63884 0.74085 0.48498 0.0
O362 O 0.60768 0.74874 0.57751 0.0
O363 O 0.63404 0.76693 0.57145 0.0
In364 In 0.25067 0.88411 0.5967 0.0
O365 O 0.24687 0.90084 0.5346 0.0
O366 O 0.25807 0.88665 0.50653 0.0
C367 C 0.2411 0.89138 0.69302 0.0
C368 C 0.22534 0.85204 0.58267 0.0
C369 C 0.28319 0.89616 0.62438 0.0
O370 O 0.24068 0.89828 0.6486 0.0
O371 O 0.24596 0.8807 0.68837 0.0
O372 O 0.27372 0.88089 0.61054 0.0
O373 O 0.27644 0.90531 0.62159 0.0
C374 C 0.25281 0.89669 0.49458 0.0
O375 O 0.24015 0.85536 0.59471 0.0
O376 O 0.22351 0.8648 0.57798 0.0
In377 In 0.10385 0.35634 0.56959 0.0
O378 O 0.08449 0.33405 0.5192 0.0
O379 O 0.09868 0.35776 0.47898 0.0
C380 C 0.09954 0.34063 0.6667 0.0
C381 C 0.13511 0.36222 0.54502 0.0
C382 C 0.09272 0.37781 0.59501 0.0
O383 O 0.09119 0.333 0.62462 0.0
O384 O 0.11011 0.35609 0.65962 0.0
O385 O 0.10741 0.38304 0.57605 0.0
O386 O 0.08372 0.36195 0.59899 0.0
C387 C 0.08775 0.34225 0.47498 0.0
O388 O 0.13268 0.37389 0.56237 0.0
O389 O 0.12192 0.348 0.54029 0.0
In390 In 0.25116 0.36699 0.58534 0.0
O391 O 0.24183 0.386 0.57181 0.0
O392 O 0.22421 0.35949 0.56898 0.0
C393 C 0.28488 0.38412 0.59449 0.0
C394 C 0.24878 0.35114 0.49042 0.0
C395 C 0.24404 0.35617 0.68969 0.0
O396 O 0.27648 0.39175 0.59348 0.0
O397 O 0.27628 0.36825 0.58961 0.0
O398 O 0.2411 0.34608 0.65029 0.0
O399 O 0.25029 0.37147 0.67613 0.0
C400 C 0.22666 0.37432 0.565 0.0
O401 O 0.24409 0.3433 0.53554 0.0
O402 O 0.25483 0.36699 0.49354 0.0
In403 In 0.62826 0.88356 0.57497 0.0
O404 O 0.61215 0.85475 0.56206 0.0
O405 O 0.63896 0.86691 0.5534 0.0
C406 C 0.60686 0.89479 0.59836 0.0
C407 C 0.64312 0.8997 0.48096 0.0
C408 C 0.63999 0.88673 0.67793 0.0
O409 O 0.60158 0.88037 0.57693 0.0
O410 O 0.62267 0.9035 0.60461 0.0
O411 O 0.64907 0.8963 0.63956 0.0
O412 O 0.62535 0.87542 0.66377 0.0
C413 C 0.62498 0.8533 0.5518 0.0
O414 O 0.65109 0.90278 0.52568 0.0
O415 O 0.62752 0.88898 0.48428 0.0
In416 In 0.10527 0.74141 0.591 0.0
O417 O 0.13406 0.75434 0.57644 0.0
O418 O 0.12178 0.76901 0.5733 0.0
C419 C 0.09256 0.70824 0.60862 0.0
C420 C 0.08962 0.74092 0.49716 0.0
C421 C 0.10217 0.74876 0.69539 0.0
O422 O 0.10786 0.71761 0.59415 0.0
O423 O 0.08395 0.71557 0.61138 0.0
O424 O 0.09349 0.75004 0.65725 0.0
O425 O 0.11245 0.7441 0.68049 0.0
C426 C 0.13542 0.76873 0.56943 0.0
O427 O 0.08629 0.74545 0.54225 0.0
O428 O 0.10046 0.73616 0.49992 0.0
In429 In 0.0201 0.5802 0.73365 0.0
O430 O 0.03705 0.56826 0.74261 0.0
O431 O 0.01014 0.55258 0.74678 0.0
C432 C 0.0383 0.61368 0.71878 0.0
C433 C 0.00905 0.58022 0.83619 0.0
C434 C 0.00839 0.57371 0.62994 0.0
O435 O 0.04536 0.60473 0.72107 0.0
O436 O 0.02245 0.60573 0.7257 0.0
O437 O -0.00135 0.57143 0.67016 0.0
O438 O 0.0236 0.57886 0.64262 0.0
C439 C 0.02442 0.55353 0.7491 0.0
O440 O -0.00087 0.57544 0.79535 0.0
O441 O 0.02436 0.58521 0.82471 0.0
In442 In 0.40905 0.43807 0.74868 0.0
O443 O 0.40939 0.41708 0.79738 0.0
O444 O 0.40079 0.4321 0.83752 0.0
C445 C 0.42004 0.43355 0.65174 0.0
C446 C 0.43615 0.46765 0.77755 0.0
C447 C 0.37749 0.42938 0.71838 0.0
O448 O 0.41871 0.4247 0.69315 0.0
O449 O 0.41609 0.44482 0.65958 0.0
O450 O 0.3873 0.44373 0.73915 0.0
O451 O 0.38345 0.41957 0.7154 0.0
C452 C 0.40419 0.4203 0.8411 0.0
O453 O 0.42253 0.46687 0.76236 0.0
O454 O 0.43584 0.4537 0.77806 0.0
In455 In 0.55638 0.96885 0.7346 0.0
O456 O 0.57307 0.99178 0.78688 0.0
O457 O 0.55609 0.9688 0.82776 0.0
C458 C 0.57023 0.98404 0.6391 0.0
C459 C 0.52552 0.96608 0.73223 0.0
C460 C 0.56613 0.94548 0.72958 0.0
O461 O 0.57517 0.99157 0.68443 0.0
O462 O 0.55842 0.96887 0.64216 0.0
O463 O 0.55182 0.94241 0.71222 0.0
O464 O 0.57487 0.95982 0.75131 0.0
C465 C 0.5673 0.98423 0.83181 0.0
O466 O 0.52738 0.95394 0.74849 0.0
O467 O 0.53896 0.97899 0.7172 0.0
H468 H 0.1268 0.30323 0.159 0.0
H469 H 0.10261 0.25968 0.05329 0.0
H470 H 0.12812 0.25707 0.05513 0.0
H471 H 0.15872 0.26981 0.07705 0.0
H472 H 0.18256 0.31441 0.17866 0.0
H473 H 0.15575 0.31386 0.18886 0.0
C474 C 0.12701 0.29301 0.13698 0.0
C475 C 0.11301 0.28183 0.10541 0.0
C476 C 0.14173 0.29186 0.13729 0.0
C477 C 0.11332 0.26849 0.07772 0.0
C478 C 0.12792 0.26706 0.07854 0.0
C479 C 0.15786 0.27912 0.10239 0.0
C480 C 0.17254 0.29223 0.12666 0.0
C481 C 0.14242 0.27904 0.10674 0.0
C482 C 0.17141 0.30432 0.15915 0.0
C483 C 0.15611 0.30404 0.16494 0.0
H484 H 0.7221 0.83966 0.08711 0.0
H485 H 0.6712 0.81059 0.15023 0.0
H486 H 0.66919 0.83605 0.15767 0.0
H487 H 0.68052 0.8658 0.1382 0.0
H488 H 0.73093 0.89574 0.07321 0.0
H489 H 0.73465 0.87083 0.07525 0.0
C490 C 0.71071 0.83902 0.10319 0.0
C491 C 0.69673 0.82325 0.11735 0.0
C492 C 0.7095 0.85381 0.10669 0.0
C493 C 0.68204 0.82254 0.13827 0.0
C494 C 0.68086 0.83709 0.14264 0.0
C495 C 0.69241 0.86694 0.12495 0.0
C496 C 0.70534 0.88244 0.10491 0.0
C497 C 0.6943 0.85267 0.1256 0.0
C498 C 0.72077 0.88386 0.08872 0.0
C499 C 0.72285 0.86961 0.0896 0.0
H500 H 0.11112 0.837 0.1045 0.0
H501 H 0.13342 0.80699 0.15375 0.0
H502 H 0.1611 0.8323 0.15996 0.0
H503 H 0.17933 0.86242 0.14492 0.0
H504 H 0.15806 0.89309 0.09357 0.0
H505 H 0.12959 0.86811 0.09511 0.0
C506 C 0.12202 0.8361 0.1173 0.0
C507 C 0.12026 0.82015 0.12822 0.0
C508 C 0.13808 0.85077 0.12002 0.0
C509 C 0.13447 0.8191 0.14466 0.0
C510 C 0.15032 0.83356 0.14821 0.0
C511 C 0.16847 0.8637 0.13441 0.0
C512 C 0.17077 0.8795 0.11864 0.0
C513 C 0.15232 0.84937 0.13487 0.0
C514 C 0.15657 0.881 0.10566 0.0
C515 C 0.14032 0.86673 0.10642 0.0
H516 H 0.31224 0.13237 0.8706 0.0
H517 H 0.26084 0.10271 0.92791 0.0
H518 H 0.25838 0.12833 0.93167 0.0
H519 H 0.27196 0.15972 0.92525 0.0
H520 H 0.32372 0.18845 0.86908 0.0
H521 H 0.32488 0.16261 0.85819 0.0
C522 C 0.30043 0.13145 0.88359 0.0
C523 C 0.28681 0.11576 0.89955 0.0
C524 C 0.29923 0.14611 0.88616 0.0
C525 C 0.27151 0.11471 0.91551 0.0
C526 C 0.27015 0.12936 0.9179 0.0
C527 C 0.28339 0.16024 0.91013 0.0
C528 C 0.29779 0.17599 0.89859 0.0
C529 C 0.28408 0.14521 0.90435 0.0
C530 C 0.31252 0.17652 0.87886 0.0
C531 C 0.31322 0.16174 0.87252 0.0
H532 H 0.83462 0.11189 0.92479 0.0
H533 H 0.80886 0.13127 0.826 0.0
H534 H 0.83507 0.15804 0.81499 0.0
H535 H 0.8641 0.17708 0.84287 0.0
H536 H 0.89031 0.15888 0.94419 0.0
H537 H 0.86526 0.13043 0.94408 0.0
C538 C 0.83489 0.12188 0.89997 0.0
C539 C 0.81982 0.11973 0.87685 0.0
C540 C 0.85001 0.13748 0.89471 0.0
C541 C 0.82027 0.13273 0.84477 0.0
C542 C 0.83524 0.14805 0.83847 0.0
C543 C 0.86442 0.16682 0.86429 0.0
C544 C 0.87885 0.17005 0.89414 0.0
C545 C 0.85 0.15074 0.8648 0.0
C546 C 0.87926 0.15665 0.92103 0.0
C547 C 0.86492 0.14044 0.92124 0.0
H548 H 0.81531 0.68335 0.91555 0.0
H549 H 0.83944 0.73722 0.88949 0.0
H550 H 0.86739 0.73941 0.896 0.0
H551 H 0.88483 0.72557 0.91005 0.0
H552 H 0.85919 0.67156 0.93777 0.0
H553 H 0.83198 0.66995 0.93005 0.0
C554 C 0.82665 0.69562 0.911 0.0
C555 C 0.82533 0.71009 0.90179 0.0
C556 C 0.84243 0.69675 0.91544 0.0
C557 C 0.84016 0.72588 0.89642 0.0
C558 C 0.85611 0.72712 0.90028 0.0
C559 C 0.87326 0.71351 0.91451 0.0
C560 C 0.87408 0.69872 0.92435 0.0
C561 C 0.8574 0.7126 0.91002 0.0
C562 C 0.85899 0.68315 0.93003 0.0
C563 C 0.84336 0.68217 0.92558 0.0
H564 H 0.822 0.60638 0.42358 0.0
H565 H 0.85239 0.65799 0.4793 0.0
H566 H 0.82758 0.66118 0.48237 0.0
H567 H 0.79795 0.65041 0.46302 0.0
H568 H 0.76659 0.59922 0.40621 0.0
H569 H 0.79097 0.59467 0.41037 0.0
C570 C 0.82308 0.61821 0.43693 0.0
C571 C 0.83905 0.63198 0.45051 0.0
C572 C 0.80864 0.62009 0.43815 0.0
C573 C 0.8403 0.64725 0.46792 0.0
C574 C 0.82611 0.64912 0.46979 0.0
C575 C 0.79638 0.63819 0.45185 0.0
C576 C 0.78061 0.62524 0.43373 0.0
C577 C 0.81034 0.63578 0.45391 0.0
C578 C 0.77869 0.6094 0.4202 0.0
C579 C 0.79263 0.60684 0.42235 0.0
H580 H 0.35059 0.15105 0.47405 0.0
H581 H 0.40045 0.17222 0.40379 0.0
H582 H 0.40387 0.20068 0.40849 0.0
H583 H 0.39135 0.21903 0.42553 0.0
H584 H 0.34118 0.19676 0.49506 0.0
H585 H 0.33928 0.16925 0.49807 0.0
C586 C 0.36227 0.16191 0.46009 0.0
C587 C 0.37515 0.15959 0.43793 0.0
C588 C 0.36405 0.17802 0.46263 0.0
C589 C 0.39034 0.17375 0.42086 0.0
C590 C 0.39225 0.18998 0.42335 0.0
C591 C 0.38014 0.20818 0.44201 0.0
C592 C 0.36635 0.20988 0.45942 0.0
C593 C 0.37902 0.19221 0.44312 0.0
C594 C 0.35189 0.19575 0.48082 0.0
C595 C 0.35077 0.17999 0.48257 0.0
H596 H 0.84295 0.20284 0.50693 0.0
H597 H 0.82427 0.22888 0.40693 0.0
H598 H 0.79592 0.20366 0.40719 0.0
H599 H 0.77769 0.17294 0.42587 0.0
H600 H 0.79759 0.14735 0.5232 0.0
H601 H 0.82419 0.1737 0.53444 0.0
C602 C 0.83261 0.20309 0.48588 0.0
C603 C 0.83566 0.21752 0.4563 0.0
C604 C 0.81661 0.18856 0.48537 0.0
C605 C 0.82216 0.21783 0.42989 0.0
C606 C 0.80601 0.20339 0.42974 0.0
C607 C 0.78776 0.17327 0.4504 0.0
C608 C 0.78581 0.15821 0.47302 0.0
C609 C 0.80325 0.18848 0.45582 0.0
C610 C 0.79889 0.15875 0.50479 0.0
C611 C 0.81411 0.1738 0.51124 0.0
H612 H 0.9718 0.5095 0.18286 0.0
H613 H 0.91989 0.48507 0.23708 0.0
H614 H 0.9188 0.45762 0.23769 0.0
H615 H 0.93364 0.44112 0.22963 0.0
H616 H 0.98585 0.46663 0.17705 0.0
H617 H 0.98575 0.49312 0.16885 0.0
C618 C 0.96018 0.49816 0.19444 0.0
C619 C 0.94601 0.49928 0.21046 0.0
C620 C 0.95976 0.48264 0.1953 0.0
C621 C 0.93098 0.48447 0.22467 0.0
C622 C 0.93039 0.46883 0.22525 0.0
C623 C 0.9449 0.45246 0.21586 0.0
C624 C 0.95977 0.45196 0.20454 0.0
C625 C 0.94484 0.46782 0.21171 0.0
C626 C 0.97428 0.46671 0.18657 0.0
C627 C 0.97426 0.48188 0.1818 0.0
H628 H 0.53007 0.50697 0.1807 0.0
H629 H 0.55658 0.48578 0.26561 0.0
H630 H 0.53121 0.45756 0.26153 0.0
H631 H 0.50033 0.43976 0.24314 0.0
H632 H 0.47455 0.46209 0.15965 0.0
H633 H 0.50083 0.48895 0.15322 0.0
C634 C 0.53037 0.49613 0.19773 0.0
C635 C 0.54501 0.49841 0.22411 0.0
C636 C 0.51582 0.48016 0.19569 0.0
C637 C 0.54537 0.48427 0.24523 0.0
C638 C 0.53086 0.46819 0.24313 0.0
C639 C 0.50062 0.45043 0.22258 0.0
C640 C 0.48551 0.44903 0.20255 0.0
C641 C 0.51583 0.46607 0.21982 0.0
C642 C 0.48598 0.46292 0.17601 0.0
C643 C 0.50099 0.47831 0.17234 0.0
H644 H 0.53458 0.01579 0.26783 0.0
H645 H 0.56423 0.06782 0.21631 0.0
H646 H 0.53881 0.07065 0.21927 0.0
H647 H 0.5078 0.05781 0.23557 0.0
H648 H 0.47914 0.0054 0.28531 0.0
H649 H 0.5046 0.0033 0.28405 0.0
C650 C 0.53556 0.0278 0.25727 0.0
C651 C 0.55123 0.04157 0.24184 0.0
C652 C 0.52104 0.02925 0.25873 0.0
C653 C 0.55226 0.05703 0.2283 0.0
C654 C 0.53774 0.05863 0.22999 0.0
C655 C 0.50721 0.04599 0.24622 0.0
C656 C 0.49159 0.03178 0.26034 0.0
C657 C 0.52201 0.04477 0.24501 0.0
C658 C 0.49096 0.01651 0.27398 0.0
C659 C 0.50552 0.01527 0.27337 0.0
H660 H 0.46533 0.98073 0.72659 0.0
H661 H 0.43773 0.93024 0.79293 0.0
H662 H 0.46339 0.92784 0.78762 0.0
H663 H 0.49416 0.94083 0.76621 0.0
H664 H 0.5205 0.99133 0.69835 0.0
H665 H 0.49479 0.99292 0.70207 0.0
C666 C 0.46487 0.96916 0.74002 0.0
C667 C 0.44974 0.95575 0.76064 0.0
C668 C 0.47947 0.96789 0.73651 0.0
C669 C 0.44929 0.94077 0.77705 0.0
C670 C 0.46395 0.93942 0.77406 0.0
C671 C 0.49418 0.9521 0.752 0.0
C672 C 0.50927 0.96597 0.73234 0.0
C673 C 0.47919 0.95299 0.75415 0.0
C674 C 0.50912 0.98049 0.71389 0.0
C675 C 0.49441 0.98145 0.71601 0.0
H676 H 0.05088 0.54813 0.72583 0.0
H677 H 0.00059 0.52457 0.79499 0.0
H678 H 0.00044 0.49802 0.80486 0.0
H679 H 0.01328 0.48085 0.78746 0.0
H680 H 0.06298 0.5029 0.7154 0.0
H681 H 0.06482 0.53074 0.71371 0.0
C682 C 0.04002 0.53721 0.74361 0.0
C683 C 0.02569 0.53825 0.75909 0.0
C684 C 0.03987 0.52172 0.74839 0.0
C685 C 0.01168 0.52404 0.78209 0.0
C686 C 0.01157 0.50883 0.78787 0.0
C687 C 0.0246 0.49176 0.77169 0.0
C688 C 0.03789 0.48982 0.75101 0.0
C689 C 0.0254 0.50744 0.77005 0.0
C690 C 0.05257 0.5041 0.73146 0.0
C691 C 0.05357 0.51997 0.73027 0.0
H692 H 0.44288 0.5001 0.76115 0.0
H693 H 0.46458 0.47073 0.8226 0.0
H694 H 0.49189 0.49629 0.83311 0.0
H695 H 0.51025 0.52634 0.81635 0.0
H696 H 0.48951 0.55633 0.75366 0.0
H697 H 0.46112 0.53124 0.75286 0.0
C698 C 0.45355 0.49939 0.7776 0.0
C699 C 0.45179 0.48355 0.79037 0.0
C700 C 0.46939 0.51419 0.78298 0.0
C701 C 0.46566 0.48276 0.81185 0.0
C702 C 0.4813 0.49736 0.81789 0.0
C703 C 0.49949 0.52744 0.80306 0.0
C704 C 0.50193 0.54303 0.78441 0.0
C705 C 0.4834 0.51304 0.80217 0.0
C706 C 0.48789 0.54438 0.76807 0.0
C707 C 0.4717 0.53004 0.76735 0.0
H708 H 0.59949 0.8213 0.57689 0.0
H709 H 0.64918 0.84902 0.50404 0.0
H710 H 0.65079 0.82326 0.49836 0.0
H711 H 0.63964 0.79381 0.52263 0.0
H712 H 0.59042 0.76537 0.59737 0.0
H713 H 0.58692 0.79038 0.59321 0.0
C714 C 0.6105 0.82157 0.55894 0.0
C715 C 0.62429 0.83705 0.54154 0.0
C716 C 0.6115 0.80666 0.55663 0.0
C717 C 0.6385 0.83729 0.51834 0.0
C718 C 0.63945 0.82258 0.51507 0.0
C719 C 0.62806 0.79302 0.53758 0.0
C720 C 0.61542 0.77793 0.56101 0.0
C721 C 0.62628 0.80735 0.53556 0.0
C722 C 0.60035 0.77694 0.57933 0.0
C723 C 0.5984 0.79124 0.57717 0.0
H724 H 0.1676 0.7753 0.59166 0.0
H725 H 0.13927 0.79763 0.5264 0.0
H726 H 0.16492 0.82508 0.52108 0.0
H727 H 0.19469 0.84324 0.54206 0.0
H728 H 0.22368 0.82198 0.60932 0.0
H729 H 0.19857 0.79361 0.60643 0.0
C730 C 0.16717 0.78615 0.57548 0.0
C731 C 0.15157 0.78449 0.5599 0.0
C732 C 0.18202 0.8021 0.57341 0.0
C733 C 0.15111 0.79862 0.53916 0.0
C734 C 0.16576 0.81434 0.53613 0.0
C735 C 0.19557 0.8324 0.55576 0.0
C736 C 0.21092 0.83469 0.57644 0.0
C737 C 0.18116 0.8163 0.5544 0.0
C738 C 0.21194 0.82051 0.59341 0.0
C739 C 0.19758 0.80431 0.59188 0.0
H740 H 0.19819 0.35348 0.51198 0.0
H741 H 0.22317 0.40141 0.59584 0.0
H742 H 0.19704 0.40296 0.59201 0.0
H743 H 0.16607 0.38867 0.57426 0.0
H744 H 0.14183 0.34031 0.49195 0.0
H745 H 0.16875 0.341 0.48526 0.0
C746 C 0.19798 0.36439 0.5288 0.0
C747 C 0.21239 0.37718 0.55485 0.0
C748 C 0.18301 0.36502 0.52705 0.0
C749 C 0.21214 0.3914 0.57567 0.0
C750 C 0.19719 0.39221 0.57378 0.0
C751 C 0.1668 0.37847 0.55407 0.0
C752 C 0.15197 0.36434 0.53438 0.0
C753 C 0.18238 0.37881 0.55101 0.0
C754 C 0.15304 0.35121 0.5081 0.0
C755 C 0.16842 0.35158 0.50423 0.0
H756 H 0.02397 0.28705 0.00471 0.0
H757 H 0.02192 0.24102 0.05858 0.0
H758 H 0.99266 0.2245 0.02591 0.0
H759 H 0.96751 0.22338 0.98308 0.0
H760 H 0.97021 0.2699 0.93098 0.0
H761 H -0.00049 0.28598 0.96127 0.0
C762 C 0.01714 0.2734 0.00952 0.0
C763 C 0.02503 0.26526 0.03428 0.0
C764 C 0.00049 0.26407 0.99052 0.0
C765 C 0.01605 0.24757 0.03986 0.0
C766 C -0.00064 0.23813 0.02104 0.0
C767 C 0.97461 0.23701 0.9779 0.0
C768 C 0.96675 0.24546 0.95485 0.0
C769 C 0.99145 0.24626 0.99628 0.0
C770 C 0.976 0.26313 0.94875 0.0
C771 C 0.99273 0.27234 0.96616 0.0
H772 H 0.73464 0.71182 0.98341 0.0
H773 H 0.77862 0.75811 0.93166 0.0
H774 H 0.76692 0.7746 0.97335 0.0
H775 H 0.74358 0.77553 0.02313 0.0
H776 H 0.70032 0.72857 0.07545 0.0
H777 H 0.71253 0.71268 0.03568 0.0
C778 C 0.74167 0.72552 0.98084 0.0
C779 C 0.75734 0.73375 0.95386 0.0
C780 C 0.73506 0.73479 0.00561 0.0
C781 C 0.76643 0.75151 0.95183 0.0
C782 C 0.75977 0.76092 0.97585 0.0
C783 C 0.737 0.76185 0.02644 0.0
C784 C 0.72105 0.75324 0.05207 0.0
C785 C 0.74406 0.75267 0.00288 0.0
C786 C 0.71258 0.7355 0.05581 0.0
C787 C 0.71951 0.72637 0.03288 0.0
H788 H 0.26141 0.97053 0.01738 0.0
H789 H 0.21637 0.97073 0.07012 0.0
H790 H 0.22664 -0.0015 0.02739 0.0
H791 H 0.24893 0.02305 0.97672 0.0
H792 H 0.29363 0.02209 0.92398 0.0
H793 H 0.28281 0.99413 0.96416 0.0
C794 C 0.25387 0.97669 0.01985 0.0
C795 C 0.23827 0.96873 0.0474 0.0
C796 C 0.2597 0.99242 0.9946 0.0
C797 C 0.22851 0.97671 0.04947 0.0
C798 C 0.23434 0.99254 0.02486 0.0
C799 C 0.25614 0.01658 0.97335 0.0
C800 C 0.27205 0.02462 0.94746 0.0
C801 C 0.24994 0.00052 0.99731 0.0
C802 C 0.28135 0.01618 0.94376 0.0
C803 C 0.27523 0.00022 0.96695 0.0
H804 H 0.96862 0.74458 0.01162 0.0
H805 H 0.97571 0.71027 0.90799 0.0
H806 H 0.0048 0.72248 0.93885 0.0
H807 H 0.0274 0.74111 0.99969 0.0
H808 H 0.02167 0.77612 0.10351 0.0
H809 H 0.99281 0.76544 0.0683 0.0
C810 C 0.97668 0.74006 0.99516 0.0
C811 C 0.97001 0.72646 0.95794 0.0
C812 C 0.99348 0.74703 0.01374 0.0
C813 C 0.98052 0.72063 0.93699 0.0
C814 C -0.00286 0.72755 0.95473 0.0
C815 C 0.01983 0.7464 0.01481 0.0
C816 C 0.02643 0.75909 0.05488 0.0
C817 C 0.00357 0.7404 0.99404 0.0
C818 C 0.01671 0.76618 0.07302 0.0
C819 C 0.00027 0.76009 0.05284 0.0
H820 H 0.2902 0.26371 0.00307 0.0
H821 H 0.24488 0.21733 0.96053 0.0
H822 H 0.22749 0.22874 0.99689 0.0
H823 H 0.22544 0.25258 0.03794 0.0
H824 H 0.2714 0.29857 0.07973 0.0
H825 H 0.28827 0.28649 0.04717 0.0
C826 C 0.27651 0.25607 0.00154 0.0
C827 C 0.26882 0.2398 0.97858 0.0
C828 C 0.26672 0.26261 0.0228 0.0
C829 C 0.25107 0.22996 0.97771 0.0
C830 C 0.24115 0.23647 0.99859 0.0
C831 C 0.23913 0.25981 0.04056 0.0
C832 C 0.24716 0.27646 0.06102 0.0
C833 C 0.24886 0.25284 0.021 0.0
C834 C 0.26491 0.28576 0.06393 0.0
C835 C 0.2746 0.2789 0.04517 0.0
H836 H 0.73158 0.02839 0.00318 0.0
H837 H 0.77576 0.02774 0.94351 0.0
H838 H 0.76454 -0.00108 0.97896 0.0
H839 H 0.74144 0.9735 0.02405 0.0
H840 H 0.69732 0.97474 0.08155 0.0
H841 H 0.70939 0.0039 0.05055 0.0
C842 C 0.73878 0.02197 0.9978 0.0
C843 C 0.75439 0.0301 0.97035 0.0
C844 C 0.7323 0.00556 0.01831 0.0
C845 C 0.76364 0.02167 0.96423 0.0
C846 C 0.75725 0.00523 0.98461 0.0
C847 C 0.73464 0.98029 0.03047 0.0
C848 C 0.71853 0.97202 0.05501 0.0
C849 C 0.74153 0.99701 0.01149 0.0
C850 C 0.70973 0.98084 0.06265 0.0
C851 C 0.71658 -0.00251 0.04477 0.0
H852 H 0.63436 0.59324 0.32169 0.0
H853 H 0.63847 0.55063 0.26519 0.0
H854 H 0.66763 0.56402 0.29939 0.0
H855 H 0.692 0.58811 0.34511 0.0
H856 H 0.68702 0.63028 0.40158 0.0
H857 H 0.65801 0.61662 0.36828 0.0
C858 C 0.64164 0.58688 0.31649 0.0
C859 C 0.63434 0.57104 0.29058 0.0
C860 C 0.65817 0.59451 0.33679 0.0
C861 C 0.64388 0.5629 0.28473 0.0
C862 C 0.6605 0.57052 0.30447 0.0
C863 C 0.68447 0.59419 0.35056 0.0
C864 C 0.69163 0.61017 0.37581 0.0
C865 C 0.66777 0.58632 0.33073 0.0
C866 C 0.68181 0.61798 0.38229 0.0
C867 C 0.66524 0.61022 0.36309 0.0
H868 H 0.40222 0.04155 0.31463 0.0
H869 H 0.45002 0.08723 0.28905 0.0
H870 H 0.43798 0.10413 0.3247 0.0
H871 H 0.4136 0.10566 0.36336 0.0
H872 H 0.36636 0.05931 0.39005 0.0
H873 H 0.37859 0.0429 0.35443 0.0
C874 C 0.41002 0.05523 0.31638 0.0
C875 C 0.42693 0.06316 0.29876 0.0
C876 C 0.40316 0.06471 0.33776 0.0
C877 C 0.43691 0.08086 0.30204 0.0
C878 C 0.43006 0.09049 0.32265 0.0
C879 C 0.40608 0.09196 0.36184 0.0
C880 C 0.3891 0.08371 0.37933 0.0
C881 C 0.41319 0.08252 0.34089 0.0
C882 C 0.37946 0.06597 0.37686 0.0
C883 C 0.3864 0.05656 0.35629 0.0
H884 H 0.88985 0.306 0.35848 0.0
H885 H 0.93612 0.30775 0.40823 0.0
H886 H 0.95271 0.33579 0.36828 0.0
H887 H 0.95428 0.35911 0.31585 0.0
H888 H 0.90861 0.35842 0.26594 0.0
H889 H 0.89152 0.33055 0.30894 0.0
C890 C 0.90355 0.31266 0.36116 0.0
C891 C 0.91176 0.30481 0.38605 0.0
C892 C 0.9131 0.32879 0.33741 0.0
C893 C 0.92951 0.3135 0.38907 0.0
C894 C 0.93902 0.32951 0.36607 0.0
C895 C 0.94058 0.35285 0.31406 0.0
C896 C 0.93269 0.36064 0.28714 0.0
C897 C 0.93097 0.33711 0.33934 0.0
C898 C 0.91494 0.35254 0.2861 0.0
C899 C 0.9052 0.33667 0.3108 0.0
H900 H 0.70036 0.07836 0.31183 0.0
H901 H 0.69152 0.11061 0.41946 0.0
H902 H 0.66354 0.10041 0.37812 0.0
H903 H 0.64092 0.08067 0.31558 0.0
H904 H 0.65047 0.04867 0.2087 0.0
H905 H 0.67908 0.06074 0.2448 0.0
C906 C 0.69231 0.08317 0.32631 0.0
C907 C 0.69778 0.09495 0.36923 0.0
C908 C 0.67647 0.0774 0.30215 0.0
C909 C 0.68744 0.10139 0.38676 0.0
C910 C 0.67149 0.09558 0.36309 0.0
C911 C 0.6494 0.07662 0.29945 0.0
C912 C 0.64358 0.06374 0.25977 0.0
C913 C 0.66579 0.0834 0.32121 0.0
C914 C 0.65465 0.05853 0.23939 0.0
C915 C 0.67097 0.06534 0.26021 0.0
H916 H 0.88263 0.58317 0.34909 0.0
H917 H 0.92819 0.618 0.43559 0.0
H918 H 0.94335 0.60532 0.39346 0.0
H919 H 0.94432 0.58575 0.32844 0.0
H920 H 0.89919 0.54991 0.2429 0.0
H921 H 0.88317 0.56165 0.28786 0.0
C922 C 0.89578 0.58773 0.35937 0.0
C923 C 0.90431 0.60157 0.39513 0.0
C924 C 0.90455 0.58045 0.33443 0.0
C925 C 0.92136 0.60743 0.40797 0.0
C926 C 0.93008 0.60025 0.38371 0.0
C927 C 0.93099 0.58056 0.31928 0.0
C928 C 0.92299 0.56727 0.28164 0.0
C929 C 0.92192 0.58706 0.34601 0.0
C930 C 0.90562 0.56032 0.27131 0.0
C931 C 0.89649 0.56699 0.29715 0.0
H932 H 0.43722 0.35842 0.31503 0.0
H933 H 0.39127 0.35225 0.24291 0.0
H934 H 0.37535 0.32377 0.27989 0.0
H935 H 0.37391 0.30149 0.33746 0.0
H936 H 0.41918 0.30642 0.4103 0.0
H937 H 0.436 0.33458 0.36853 0.0
C938 C 0.42379 0.35068 0.30676 0.0
C939 C 0.41539 0.35744 0.27667 0.0
C940 C 0.41457 0.33427 0.32897 0.0
C941 C 0.39798 0.34737 0.26634 0.0
C942 C 0.38884 0.3311 0.28759 0.0
C943 C 0.38747 0.30873 0.34441 0.0
C944 C 0.39529 0.30211 0.37765 0.0
C945 C 0.39692 0.32461 0.31998 0.0
C946 C 0.4129 0.31141 0.3852 0.0
C947 C 0.42248 0.32745 0.36128 0.0
H948 H 0.30144 0.92506 0.68067 0.0
H949 H 0.30316 0.88158 0.61962 0.0
H950 H 0.33149 0.89256 0.65884 0.0
H951 H 0.35618 0.91521 0.70787 0.0
H952 H 0.35366 0.95831 0.76903 0.0
H953 H 0.32507 0.9466 0.73324 0.0
C954 C 0.30804 0.918 0.6757 0.0
C955 C 0.30037 0.90267 0.64669 0.0
C956 C 0.32409 0.92424 0.6989 0.0
C957 C 0.30891 0.89351 0.64144 0.0
C958 C 0.32506 0.89975 0.664 0.0
C959 C 0.34924 0.92187 0.71408 0.0
C960 C 0.35703 0.93761 0.74093 0.0
C961 C 0.33281 0.91516 0.69265 0.0
C962 C 0.34796 0.94618 0.7484 0.0
C963 C 0.33164 0.93954 0.72772 0.0
H964 H 0.07538 0.4342 0.66594 0.0
H965 H 0.03179 0.38999 0.73201 0.0
H966 H 0.04281 0.37214 0.70003 0.0
H967 H 0.06403 0.36874 0.65073 0.0
H968 H 0.10795 0.41234 0.58395 0.0
H969 H 0.09756 0.43077 0.61843 0.0
C970 C 0.06845 0.42069 0.67381 0.0
C971 C 0.05278 0.41342 0.70116 0.0
C972 C 0.07478 0.41037 0.65465 0.0
C973 C 0.04385 0.39589 0.71087 0.0
C974 C 0.0501 0.38564 0.69248 0.0
C975 C 0.07134 0.38228 0.64349 0.0
C976 C 0.08664 0.38917 0.61443 0.0
C977 C 0.0654 0.3927 0.66371 0.0
C978 C 0.09606 0.40674 0.60598 0.0
C979 C 0.09015 0.41727 0.6258 0.0
H980 H 0.59401 0.63475 0.68966 0.0
H981 H 0.54889 0.63439 0.74468 0.0
H982 H 0.55923 0.66259 0.70523 0.0
H983 H 0.58128 0.68735 0.65491 0.0
H984 H 0.62617 0.68707 0.60039 0.0
H985 H 0.61557 0.65893 0.63902 0.0
C986 C 0.58648 0.64088 0.69346 0.0
C987 C 0.57078 0.63258 0.72038 0.0
C988 C 0.59236 0.65686 0.67008 0.0
C989 C 0.56109 0.64061 0.72444 0.0
C990 C 0.56695 0.65666 0.70163 0.0
C991 C 0.5886 0.681 0.65094 0.0
C992 C 0.60445 0.68922 0.6247 0.0
C993 C 0.58254 0.66487 0.67406 0.0
C994 C 0.61392 0.68098 0.62036 0.0
C995 C 0.60792 0.66493 0.64264 0.0
H996 H 0.35893 0.40304 0.65254 0.0
H997 H 0.3585 0.44487 0.7332 0.0
H998 H 0.33007 0.43554 0.69688 0.0
H999 H 0.30463 0.41418 0.64666 0.0
H1000 H 0.30586 0.37242 0.56816 0.0
H1001 H 0.33488 0.38323 0.59838 0.0
C1002 C 0.35264 0.41015 0.66228 0.0
C1003 C 0.36063 0.42444 0.69613 0.0
C1004 C 0.33651 0.40478 0.64126 0.0
C1005 C 0.35248 0.43371 0.70754 0.0
C1006 C 0.33627 0.42839 0.68673 0.0
C1007 C 0.31142 0.40769 0.63539 0.0
C1008 C 0.30316 0.39251 0.60547 0.0
C1009 C 0.32807 0.4138 0.65401 0.0
C1010 C 0.31197 0.38409 0.59142 0.0
C1011 C 0.32852 0.39021 0.60883 0.0
H1012 H 0.61359 0.91594 0.68224 0.0
H1013 H 0.57496 0.88664 0.56364 0.0
H1014 H 0.55767 0.89846 0.59808 0.0
H1015 H 0.55494 0.91908 0.65757 0.0
H1016 H 0.59403 0.94774 0.77611 0.0
H1017 H 0.60963 0.93392 0.74677 0.0
C1018 C 0.60137 0.91212 0.66391 0.0
C1019 C 0.59566 0.90076 0.6198 0.0
C1020 C 0.59157 0.91877 0.68421 0.0
C1021 C 0.57964 0.89553 0.59734 0.0
C1022 C 0.56979 0.90228 0.61704 0.0
C1023 C 0.56668 0.92199 0.67768 0.0
C1024 C 0.57341 0.93452 0.71862 0.0
C1025 C 0.57578 0.91414 0.65995 0.0
C1026 C 0.58865 0.93823 0.74427 0.0
C1027 C 0.59763 0.9304 0.72736 0.0
H1028 H 0.07021 0.63283 0.67613 0.0
H1029 H 0.02635 0.63525 0.72996 0.0
H1030 H 0.03927 0.66447 0.6996 0.0
H1031 H 0.06228 0.68892 0.65562 0.0
H1032 H 0.10667 0.68771 0.60148 0.0
H1033 H 0.09423 0.65835 0.63366 0.0
C1034 C 0.06362 0.63987 0.68173 0.0
C1035 C 0.04733 0.63188 0.7052 0.0
C1036 C 0.07109 0.65675 0.66353 0.0
C1037 C 0.03887 0.64108 0.71189 0.0
C1038 C 0.04621 0.65778 0.6944 0.0
C1039 C 0.06926 0.68226 0.65054 0.0
C1040 C 0.0853 0.6904 0.62574 0.0
C1041 C 0.06217 0.66564 0.66958 0.0
C1042 C 0.09424 0.68164 0.62013 0.0
C1043 C 0.08715 0.6649 0.6387 0.0
H1044 H 0.11107 0.35572 0.76512 0.0
H1045 H 0.08162 0.30684 0.68876 0.0
H1046 H 0.07613 0.29307 0.77818 0.0
H1047 H 0.07883 0.29501 0.87816 0.0
H1048 H 0.10699 0.34397 0.95502 0.0
H1049 H 0.11396 0.35765 0.86522 0.0
C1050 C 0.10355 0.34204 0.76807 0.0
C1051 C 0.09676 0.33229 0.72049 0.0
C1052 C 0.1002 0.33425 0.81964 0.0
C1053 C 0.08694 0.31461 0.72486 0.0
C1054 C 0.08381 0.30673 0.77594 0.0
C1055 C 0.08661 0.30867 0.87521 0.0
C1056 C 0.09244 0.31848 0.92304 0.0
C1057 C 0.09025 0.31644 0.8236 0.0
C1058 C 0.10237 0.33616 0.91871 0.0
C1059 C 0.10633 0.34398 0.86742 0.0
H1060 H 0.64995 0.75453 0.94618 0.0
H1061 H 0.70213 0.78424 0.89594 0.0
H1062 H 0.69367 0.77948 0.80003 0.0
H1063 H 0.6714 0.76664 0.72973 0.0
H1064 H 0.61916 0.73786 0.78022 0.0
H1065 H 0.62765 0.74248 0.87602 0.0
C1066 C 0.65944 0.75996 0.9142 0.0
C1067 C 0.67662 0.76967 0.92824 0.0
C1068 C 0.65448 0.75733 0.85891 0.0
C1069 C 0.68879 0.77672 0.88631 0.0
C1070 C 0.68398 0.77399 0.83134 0.0
C1071 C 0.66191 0.76141 0.76176 0.0
C1072 C 0.6447 0.7519 0.74778 0.0
C1073 C 0.66686 0.76428 0.81707 0.0
C1074 C 0.63252 0.74527 0.78978 0.0
C1075 C 0.63735 0.74788 0.84469 0.0
H1076 H 0.21846 0.91546 0.90291 0.0
H1077 H 0.24458 0.89291 0.98273 0.0
H1078 H 0.2508 0.88494 0.89371 0.0
H1079 H 0.24888 0.8845 0.79325 0.0
H1080 H 0.22406 0.90835 0.71332 0.0
H1081 H 0.21723 0.9157 0.80241 0.0
C1082 C 0.22547 0.90875 0.90082 0.0
C1083 C 0.23097 0.90468 0.94935 0.0
C1084 C 0.22922 0.90446 0.84953 0.0
C1085 C 0.24021 0.89618 0.94598 0.0
C1086 C 0.24374 0.89161 0.89511 0.0
C1087 C 0.24191 0.89125 0.79535 0.0
C1088 C 0.23687 0.89578 0.74678 0.0
C1089 C 0.23831 0.89568 0.84664 0.0
C1090 C 0.22805 0.90471 0.75011 0.0
C1091 C 0.22414 0.9089 0.80102 0.0
H1092 H 0.34063 0.10046 0.05524 0.0
H1093 H 0.28849 0.07208 0.10696 0.0
H1094 H 0.29722 0.07652 0.20258 0.0
H1095 H 0.31971 0.08838 0.27224 0.0
H1096 H 0.37181 0.11754 0.22062 0.0
H1097 H 0.36309 0.11294 0.12498 0.0
C1098 C 0.33121 0.09525 0.08748 0.0
C1099 C 0.31396 0.08594 0.0739 0.0
C1100 C 0.33631 0.09801 0.14269 0.0
C1101 C 0.30188 0.07935 0.1162 0.0
C1102 C 0.30684 0.08186 0.17102 0.0
C1103 C 0.32913 0.09374 0.24003 0.0
C1104 C 0.34636 0.10326 0.25366 0.0
C1105 C 0.32402 0.09116 0.18484 0.0
C1106 C 0.35843 0.11018 0.21137 0.0
C1107 C 0.35347 0.10753 0.15654 0.0
H1108 H 0.8802 0.24724 0.23001 0.0
H1109 H 0.90601 0.22417 0.30868 0.0
H1110 H 0.91193 0.2161 0.21956 0.0
H1111 H 0.91075 0.21664 0.11942 0.0
H1112 H 0.88586 0.24066 0.0407 0.0
H1113 H 0.87852 0.24728 0.12994 0.0
C1114 C 0.88702 0.24034 0.22763 0.0
C1115 C 0.89268 0.23631 0.27569 0.0
C1116 C 0.89057 0.23597 0.17637 0.0
C1117 C 0.90156 0.22744 0.27213 0.0
C1118 C 0.90495 0.22283 0.22126 0.0
C1119 C 0.90361 0.22322 0.12183 0.0
C1120 C 0.89885 0.22818 0.07371 0.0
C1121 C 0.89966 0.22719 0.17313 0.0
C1122 C 0.88969 0.23675 0.0773 0.0
C1123 C 0.8855 0.24055 0.12824 0.0
H1124 H 0.74475 0.63943 0.21171 0.0
H1125 H 0.77097 0.68785 0.29293 0.0
H1126 H 0.77861 0.70226 0.20448 0.0
H1127 H 0.77757 0.70107 0.10431 0.0
H1128 H 0.7505 0.65273 0.02298 0.0
H1129 H 0.74342 0.63826 0.1114 0.0
C1130 C 0.75219 0.65313 0.20998 0.0
C1131 C 0.75734 0.66258 0.25859 0.0
C1132 C 0.75634 0.66131 0.1591 0.0
C1133 C 0.76685 0.68032 0.25593 0.0
C1134 C 0.77123 0.68856 0.20545 0.0
C1135 C 0.77016 0.68737 0.10598 0.0
C1136 C 0.76459 0.67796 0.05737 0.0
C1137 C 0.766 0.67918 0.15682 0.0
C1138 C 0.7549 0.66023 0.05999 0.0
C1139 C 0.75088 0.65196 0.11045 0.0
H1140 H 0.92156 0.69544 0.12863 0.0
H1141 H 0.89677 0.64671 0.04898 0.0
H1142 H 0.88919 0.63261 0.13804 0.0
H1143 H 0.88873 0.63421 0.23818 0.0
H1144 H 0.91425 0.68286 0.31807 0.0
H1145 H 0.92249 0.69699 0.22902 0.0
C1146 C 0.91455 0.68173 0.13081 0.0
C1147 C 0.90961 0.67211 0.08242 0.0
C1148 C 0.91034 0.67374 0.18204 0.0
C1149 C 0.9007 0.65437 0.08573 0.0
C1150 C 0.89632 0.64631 0.13657 0.0
C1151 C 0.89611 0.64791 0.23606 0.0
C1152 C 0.90075 0.65752 0.28444 0.0
C1153 C 0.90092 0.65588 0.18492 0.0
C1154 C 0.91051 0.67523 0.28128 0.0
C1155 C 0.91519 0.68329 0.23044 0.0
H1156 H 0.30163 0.22125 0.1252 0.0
H1157 H 0.35078 0.24623 0.0482 0.0
H1158 H 0.36441 0.25259 0.13808 0.0
H1159 H 0.3623 0.2511 0.23836 0.0
H1160 H 0.3132 0.22764 0.31554 0.0
H1161 H 0.29954 0.22061 0.22563 0.0
C1162 C 0.31533 0.22804 0.12814 0.0
C1163 C 0.32521 0.23317 0.08022 0.0
C1164 C 0.32304 0.23192 0.17988 0.0
C1165 C 0.34293 0.24215 0.08455 0.0
C1166 C 0.35071 0.24576 0.13588 0.0
C1167 C 0.3486 0.24439 0.23547 0.0
C1168 C 0.33874 0.23976 0.28342 0.0
C1169 C 0.34089 0.2407 0.18377 0.0
C1170 C 0.32104 0.2313 0.27915 0.0
C1171 C 0.31324 0.22728 0.22781 0.0
H1172 H 0.78032 0.08621 0.11551 0.0
H1173 H 0.75458 0.11037 0.04378 0.0
H1174 H 0.75002 0.11857 0.13475 0.0
H1175 H 0.75219 0.11768 0.23463 0.0
H1176 H 0.77612 0.09177 0.30666 0.0
H1177 H 0.78267 0.08551 0.21547 0.0
C1178 C 0.77384 0.0934 0.11981 0.0
C1179 C 0.76782 0.09773 0.07314 0.0
C1180 C 0.77093 0.0977 0.1722 0.0
C1181 C 0.75929 0.10688 0.07921 0.0
C1182 C 0.7567 0.11156 0.13114 0.0
C1183 C 0.75902 0.11083 0.23032 0.0
C1184 C 0.76375 0.10525 0.27714 0.0
C1185 C 0.7623 0.10689 0.17791 0.0
C1186 C 0.77236 0.09619 0.27111 0.0
C1187 C 0.77609 0.0926 0.21905 0.0
H1188 H 0.67168 0.90719 0.71794 0.0
H1189 H 0.62054 0.87173 0.76761 0.0
H1190 H 0.62897 0.8767 0.8636 0.0
H1191 H 0.6508 0.89158 0.93388 0.0
H1192 H 0.70216 0.92619 0.88401 0.0
H1193 H 0.69374 0.92113 0.78802 0.0
C1194 C 0.66242 0.90051 0.74981 0.0
C1195 C 0.64552 0.88915 0.73568 0.0
C1196 C 0.66737 0.90333 0.805 0.0
C1197 C 0.63366 0.88052 0.77739 0.0
C1198 C 0.63844 0.88339 0.83235 0.0
C1199 C 0.66012 0.898 0.90193 0.0
C1200 C 0.67703 0.9093 0.91599 0.0
C1201 C 0.65525 0.89485 0.84669 0.0
C1202 C 0.68903 0.91742 0.87422 0.0
C1203 C 0.68424 0.91455 0.81929 0.0
H1204 H 0.08753 0.76605 0.7366 0.0
H1205 H 0.11244 0.7384 0.78421 0.0
H1206 H 0.10871 0.74277 0.88062 0.0
H1207 H 0.09811 0.75423 0.95168 0.0
H1208 H 0.07456 0.78317 0.90404 0.0
H1209 H 0.07804 0.77857 0.80764 0.0
C1210 C 0.09213 0.761 0.76816 0.0
C1211 C 0.10017 0.75187 0.75342 0.0
C1212 C 0.0902 0.7638 0.82355 0.0
C1213 C 0.10623 0.74552 0.7946 0.0
C1214 C 0.10408 0.74797 0.84974 0.0
C1215 C 0.09378 0.75953 0.92012 0.0
C1216 C 0.08606 0.76897 0.93486 0.0
C1217 C 0.09605 0.75706 0.86472 0.0
C1218 C 0.08061 0.7759 0.89366 0.0
C1219 C 0.08254 0.77324 0.83852 0.0
H1220 H 0.23951 0.34521 0.94533 0.0
H1221 H 0.21118 0.29296 0.8948 0.0
H1222 H 0.21494 0.30161 0.79897 0.0
H1223 H 0.22682 0.32402 0.72921 0.0
H1224 H 0.25446 0.3763 0.77983 0.0
H1225 H 0.2504 0.36766 0.87568 0.0
C1226 C 0.23413 0.33575 0.91331 0.0
C1227 C 0.22515 0.3185 0.9271 0.0
C1228 C 0.23623 0.3408 0.85824 0.0
C1229 C 0.21815 0.30635 0.88523 0.0
C1230 C 0.22031 0.31127 0.83039 0.0
C1231 C 0.23191 0.3335 0.76127 0.0
C1232 C 0.24098 0.35074 0.74748 0.0
C1233 C 0.22942 0.32846 0.81638 0.0
C1234 C 0.24742 0.36292 0.78941 0.0
C1235 C 0.24513 0.358 0.84425 0.0
H1236 H 0.02699 0.43919 0.53869 0.0
H1237 H 0.97839 0.41966 0.61729 0.0
H1238 H 0.96455 0.41389 0.52784 0.0
H1239 H 0.96632 0.41426 0.42751 0.0
H1240 H 0.01478 0.43258 0.34905 0.0
H1241 H 0.02869 0.43902 0.43845 0.0
C1242 C 0.01337 0.4337 0.53622 0.0
C1243 C 0.00371 0.42991 0.58444 0.0
C1244 C 0.00552 0.43022 0.48479 0.0
C1245 C 0.98607 0.42267 0.58071 0.0
C1246 C 0.97818 0.41939 0.52962 0.0
C1247 C 0.97994 0.41974 0.42999 0.0
C1248 C 0.98955 0.42305 0.38182 0.0
C1249 C 0.98778 0.42312 0.48144 0.0
C1250 C 0.00714 0.42995 0.3856 0.0
C1251 C 0.01508 0.43362 0.43665 0.0
H1252 H 0.55838 0.56671 0.39872 0.0
H1253 H 0.58356 0.53956 0.44908 0.0
H1254 H 0.57968 0.54426 0.54501 0.0
H1255 H 0.56962 0.5566 0.61505 0.0
H1256 H 0.54346 0.58277 0.56458 0.0
H1257 H 0.54721 0.57794 0.46871 0.0
C1258 C 0.56296 0.56178 0.43073 0.0
C1259 C 0.57129 0.55286 0.41677 0.0
C1260 C 0.56054 0.56439 0.48595 0.0
C1261 C 0.57707 0.54646 0.45871 0.0
C1262 C 0.5749 0.54917 0.51364 0.0
C1263 C 0.56473 0.56121 0.58301 0.0
C1264 C 0.55634 0.57008 0.59691 0.0
C1265 C 0.56674 0.5582 0.5278 0.0
C1266 C 0.54995 0.57587 0.55499 0.0
C1267 C 0.55211 0.57315 0.50009 0.0
H1268 H 0.43163 0.00828 0.62472 0.0
H1269 H 0.39971 0.95661 0.57257 0.0
H1270 H 0.40413 0.96554 0.47707 0.0
H1271 H 0.41778 0.98794 0.40765 0.0
H1272 H 0.45057 0.03947 0.45961 0.0
H1273 H 0.44511 0.03073 0.55523 0.0
C1274 C 0.42557 -0.00098 0.59242 0.0
C1275 C 0.41538 0.98183 0.60578 0.0
C1276 C 0.42838 0.00421 0.5373 0.0
C1277 C 0.40768 0.96994 0.56343 0.0
C1278 C 0.41019 0.97503 0.50871 0.0
C1279 C 0.42366 0.99724 0.43994 0.0
C1280 C 0.43458 0.0143 0.42645 0.0
C1281 C 0.42063 0.9921 0.49506 0.0
C1282 C 0.44216 0.02621 0.4688 0.0
C1283 C 0.43903 0.02125 0.5236 0.0
H1284 H 0.56437 0.96943 0.53915 0.0
H1285 H 0.59107 0.01774 0.62088 0.0
H1286 H 0.59991 0.03213 0.53258 0.0
H1287 H 0.59837 0.03106 0.43237 0.0
H1288 H 0.5719 0.98275 0.35055 0.0
H1289 H 0.56473 0.96822 0.43887 0.0
C1290 C 0.57223 0.9831 0.53759 0.0
C1291 C 0.57693 0.99254 0.58627 0.0
C1292 C 0.57723 0.99126 0.4868 0.0
C1293 C 0.58726 0.01021 0.58384 0.0
C1294 C 0.59227 0.01844 0.53343 0.0
C1295 C 0.59114 0.01734 0.43391 0.0
C1296 C 0.58551 0.00797 0.38522 0.0
C1297 C 0.58707 0.00911 0.48469 0.0
C1298 C 0.57632 0.99022 0.38761 0.0
C1299 C 0.57218 0.98192 0.43804 0.0
H1300 H -0.00261 0.56956 0.37341 0.0
H1301 H 0.94522 0.54015 0.42411 0.0
H1302 H 0.95378 0.54453 0.51989 0.0
H1303 H 0.97611 0.55668 0.59006 0.0
H1304 H 0.02836 0.58496 0.53955 0.0
H1305 H 0.0198 0.58108 0.44368 0.0
C1306 C 0.98793 0.56413 0.40547 0.0
C1307 C 0.97071 0.55456 0.39153 0.0
C1308 C 0.99295 0.56649 0.4608 0.0
C1309 C 0.95859 0.54752 0.43361 0.0
C1310 C 0.96346 0.55004 0.48853 0.0
C1311 C 0.98559 0.562 0.55803 0.0
C1312 C 0.00282 0.57111 0.57201 0.0
C1313 C 0.9806 0.5595 0.50271 0.0
C1314 C 0.01499 0.57783 0.52997 0.0
C1315 C 0.01011 0.57565 0.47503 0.0
H1316 H 0.44137 0.41079 0.43728 0.0
H1317 H 0.41918 0.43816 0.36375 0.0
H1318 H 0.41397 0.44596 0.45441 0.0
H1319 H 0.41495 0.44422 0.55432 0.0
H1320 H 0.43556 0.41541 0.6279 0.0
H1321 H 0.44228 0.40898 0.53726 0.0
C1322 C 0.43549 0.41855 0.44117 0.0
C1323 C 0.4307 0.42395 0.39412 0.0
C1324 C 0.43226 0.42269 0.49328 0.0
C1325 C 0.42295 0.43385 0.39954 0.0
C1326 C 0.41999 0.43831 0.45127 0.0
C1327 C 0.42104 0.43666 0.55046 0.0
C1328 C 0.42484 0.43035 0.59748 0.0
C1329 C 0.42449 0.43271 0.49837 0.0
C1330 C 0.43253 0.42039 0.5921 0.0
C1331 C 0.43636 0.41671 0.54039 0.0
H1332 H 0.06246 0.29534 0.26727 0.0
H1333 H 0.09 0.34376 0.18651 0.0
H1334 H 0.09503 0.35822 0.27437 0.0
H1335 H 0.0939 0.35703 0.37474 0.0
H1336 H 0.06666 0.30863 0.45573 0.0
H1337 H 0.05903 0.29428 0.36727 0.0
C1338 C 0.06938 0.30906 0.26887 0.0
C1339 C 0.076 0.31845 0.22053 0.0
C1340 C 0.07234 0.3173 0.31962 0.0
C1341 C 0.08484 0.33622 0.22317 0.0
C1342 C 0.08776 0.34451 0.27342 0.0
C1343 C 0.08608 0.34336 0.37301 0.0
C1344 C 0.08099 0.3339 0.42171 0.0
C1345 C 0.08191 0.33517 0.32201 0.0
C1346 C 0.0708 0.3162 0.41882 0.0
C1347 C 0.06648 0.30798 0.36824 0.0
H1348 H 0.67137 0.75716 0.44711 0.0
H1349 H 0.61948 0.72797 0.3937 0.0
H1350 H 0.62866 0.73217 0.29841 0.0
H1351 H 0.65133 0.74551 0.22965 0.0
H1352 H 0.7032 0.77506 0.28296 0.0
H1353 H 0.69416 0.76926 0.37833 0.0
C1354 C 0.6621 0.75158 0.41463 0.0
C1355 C 0.64476 0.74233 0.42763 0.0
C1356 C 0.66746 0.75417 0.35966 0.0
C1357 C 0.6329 0.7352 0.38495 0.0
C1358 C 0.63814 0.73762 0.33033 0.0
C1359 C 0.66066 0.75054 0.26213 0.0
C1360 C 0.6779 0.76076 0.24908 0.0
C1361 C 0.65536 0.74729 0.31711 0.0
C1362 C 0.68983 0.76719 0.29175 0.0
C1363 C 0.68468 0.7639 0.34641 0.0
H1364 H 0.25046 0.90666 0.23961 0.0
H1365 H 0.22454 0.93278 0.29335 0.0
H1366 H 0.22958 0.92863 0.38869 0.0
H1367 H 0.23959 0.91583 0.45714 0.0
H1368 H 0.26499 0.8892 0.40335 0.0
H1369 H 0.26203 0.89539 0.30815 0.0
C1370 C 0.2461 0.91163 0.27218 0.0
C1371 C 0.23707 0.91996 0.25927 0.0
C1372 C 0.24886 0.90901 0.3271 0.0
C1373 C 0.23148 0.92629 0.30204 0.0
C1374 C 0.23433 0.92388 0.35667 0.0
C1375 C 0.24465 0.91154 0.42461 0.0
C1376 C 0.25243 0.90199 0.43743 0.0
C1377 C 0.24273 0.915 0.36974 0.0
C1378 C 0.2589 0.89653 0.39471 0.0
C1379 C 0.25718 0.90004 0.34016 0.0
H1380 H 0.31987 0.08267 0.55407 0.0
H1381 H 0.37174 0.10603 0.60819 0.0
H1382 H 0.36243 0.10068 0.70333 0.0
H1383 H 0.33961 0.09051 0.77186 0.0
H1384 H 0.28774 0.06741 0.71793 0.0
H1385 H 0.29696 0.07143 0.62263 0.0
C1386 C 0.32911 0.08646 0.58667 0.0
C1387 C 0.34648 0.09478 0.57388 0.0
C1388 C 0.32367 0.08345 0.64159 0.0
C1389 C 0.35829 0.09962 0.61674 0.0
C1390 C 0.35298 0.09659 0.67129 0.0
C1391 C 0.33033 0.08625 0.73925 0.0
C1392 C 0.31302 0.07872 0.75216 0.0
C1393 C 0.33572 0.08869 0.68431 0.0
C1394 C 0.30116 0.07328 0.70929 0.0
C1395 C 0.30641 0.07559 0.65465 0.0
H1396 H 0.92495 0.23079 0.72803 0.0
H1397 H 0.89954 0.25379 0.80986 0.0
H1398 H 0.89392 0.2627 0.72196 0.0
H1399 H 0.8943 0.26202 0.6216 0.0
H1400 H 0.91941 0.2387 0.53981 0.0
H1401 H 0.92721 0.23201 0.62792 0.0
C1402 C 0.91834 0.2379 0.72661 0.0
C1403 C 0.91254 0.24149 0.77523 0.0
C1404 C 0.91503 0.24287 0.67595 0.0
C1405 C 0.90407 0.2508 0.7729 0.0
C1406 C 0.90082 0.25587 0.72267 0.0
C1407 C 0.90165 0.25565 0.6231 0.0
C1408 C 0.90615 0.25074 0.57436 0.0
C1409 C 0.90595 0.25169 0.67389 0.0
C1410 C 0.91573 0.24255 0.57684 0.0
C1411 C 0.92016 0.23868 0.62719 0.0
H1412 H 0.76924 0.70239 0.70895 0.0
H1413 H 0.74196 0.65462 0.7936 0.0
H1414 H 0.73339 0.63966 0.70643 0.0
H1415 H 0.73515 0.63998 0.60613 0.0
H1416 H 0.76219 0.68774 0.52134 0.0
H1417 H 0.76922 0.70284 0.60839 0.0
C1418 C 0.76128 0.68873 0.70824 0.0
C1419 C 0.75636 0.67963 0.75759 0.0
C1420 C 0.75641 0.68018 0.65793 0.0
C1421 C 0.74597 0.66193 0.75612 0.0
C1422 C 0.74109 0.65334 0.7063 0.0
C1423 C 0.74245 0.65369 0.60675 0.0
C1424 C 0.74824 0.66271 0.55747 0.0
C1425 C 0.74647 0.66231 0.65695 0.0
C1426 C 0.7576 0.68049 0.55879 0.0
C1427 C 0.76168 0.68915 0.60855 0.0
H1428 H 0.91349 0.67391 0.57444 0.0
H1429 H 0.88675 0.62188 0.62791 0.0
H1430 H 0.89235 0.63104 0.72337 0.0
H1431 H 0.90341 0.65391 0.79164 0.0
H1432 H 0.92888 0.70591 0.7377 0.0
H1433 H 0.92527 0.6967 0.64243 0.0
C1434 C 0.90905 0.66458 0.60697 0.0
C1435 C 0.89972 0.64726 0.59422 0.0
C1436 C 0.912 0.66994 0.66167 0.0
C1437 C 0.89394 0.6353 0.63676 0.0
C1438 C 0.89711 0.64053 0.69132 0.0
C1439 C 0.9083 0.66321 0.75901 0.0
C1440 C 0.91636 0.68055 0.77162 0.0
C1441 C 0.90591 0.65782 0.70427 0.0
C1442 C 0.92257 0.69248 0.72899 0.0
C1443 C 0.92051 0.68723 0.67451 0.0
H1444 H 0.34279 0.25484 0.78995 0.0
H1445 H 0.29063 0.22883 0.73785 0.0
H1446 H 0.29956 0.23476 0.64236 0.0
H1447 H 0.32216 0.24502 0.57334 0.0
H1448 H 0.37432 0.27 0.62528 0.0
H1449 H 0.36544 0.26695 0.72088 0.0
C1450 C 0.33338 0.2507 0.75773 0.0
C1451 C 0.31608 0.24132 0.77099 0.0
C1452 C 0.33861 0.25387 0.70275 0.0
C1453 C 0.30404 0.23601 0.72875 0.0
C1454 C 0.30913 0.23936 0.67408 0.0
C1455 C 0.33159 0.25002 0.60555 0.0
C1456 C 0.34887 0.25763 0.59221 0.0
C1457 C 0.32638 0.24793 0.66053 0.0
C1458 C 0.36093 0.26402 0.63444 0.0
C1459 C 0.35586 0.26225 0.68916 0.0
H1460 H 0.75914 0.06491 0.72978 0.0
H1461 H 0.73484 0.08969 0.80744 0.0
H1462 H 0.72665 0.09525 0.71813 0.0
H1463 H 0.7294 0.09609 0.61798 0.0
H1464 H 0.7542 0.0718 0.54042 0.0
H1465 H 0.75897 0.06285 0.62956 0.0
C1466 C 0.7518 0.07127 0.72719 0.0
C1467 C 0.74778 0.07706 0.7751 0.0
C1468 C 0.74733 0.07464 0.67566 0.0
C1469 C 0.73817 0.08518 0.77114 0.0
C1470 C 0.73354 0.08843 0.72005 0.0
C1471 C 0.73558 0.08858 0.62054 0.0
C1472 C 0.74162 0.08479 0.57273 0.0
C1473 C 0.73851 0.08368 0.67201 0.0
C1474 C 0.74951 0.07497 0.57664 0.0
C1475 C 0.75231 0.0699 0.62764 0.0
H1476 H 0.69075 0.9275 0.27441 0.0
H1477 H 0.6427 0.90033 0.19154 0.0
H1478 H 0.62792 0.89363 0.27938 0.0
H1479 H 0.62876 0.89383 0.37998 0.0
H1480 H 0.67684 0.92083 0.46282 0.0
H1481 H 0.69146 0.9294 0.37483 0.0
C1482 C 0.67704 0.92023 0.27555 0.0
C1483 C 0.66785 0.91431 0.2265 0.0
C1484 C 0.66862 0.91636 0.32624 0.0
C1485 C 0.65008 0.905 0.22867 0.0
C1486 C 0.64162 0.90113 0.27892 0.0
C1487 C 0.64242 0.90177 0.37879 0.0
C1488 C 0.65169 0.90661 0.42792 0.0
C1489 C 0.65077 0.90651 0.32801 0.0
C1490 C 0.66939 0.91691 0.42564 0.0
C1491 C 0.67777 0.92177 0.37531 0.0
H1492 H 0.09363 0.73053 0.39688 0.0
H1493 H 0.07035 0.75562 0.47899 0.0
H1494 H 0.0622 0.76201 0.39088 0.0
H1495 H 0.06397 0.76273 0.29046 0.0
H1496 H 0.08732 0.73772 0.20833 0.0
H1497 H 0.09298 0.72889 0.29642 0.0
C1498 C 0.08658 0.73721 0.3955 0.0
C1499 C 0.08274 0.74273 0.44438 0.0
C1500 C 0.08202 0.74094 0.34467 0.0
C1501 C 0.0735 0.75126 0.44196 0.0
C1502 C 0.06889 0.75498 0.39157 0.0
C1503 C 0.0701 0.75515 0.29182 0.0
C1504 C 0.07536 0.75102 0.24295 0.0
C1505 C 0.07342 0.75022 0.34264 0.0
C1506 C 0.08318 0.7411 0.24536 0.0
C1507 C 0.08649 0.73611 0.29574 0.0
H1508 H 0.22903 0.30354 0.28406 0.0
H1509 H 0.25355 0.35183 0.20156 0.0
H1510 H 0.26085 0.36643 0.28968 0.0
H1511 H 0.25867 0.36546 0.38995 0.0
H1512 H 0.23386 0.31716 0.47239 0.0
H1513 H 0.22833 0.30258 0.38449 0.0
C1514 C 0.23612 0.31726 0.28536 0.0
C1515 C 0.24067 0.32659 0.23635 0.0
C1516 C 0.24013 0.32556 0.33614 0.0
C1517 C 0.24988 0.34436 0.23871 0.0
C1518 C 0.25401 0.35271 0.28908 0.0
C1519 C 0.25216 0.35174 0.3887 0.0
C1520 C 0.24658 0.3424 0.43758 0.0
C1521 C 0.24895 0.34344 0.33802 0.0
C1522 C 0.23824 0.32464 0.43533 0.0
C1523 C 0.23505 0.31629 0.38508 0.0
H1524 H 0.98622 0.41042 0.87614 0.0
H1525 H 0.03823 0.43879 0.92907 0.0
H1526 H 0.02924 0.43265 0.02446 0.0
H1527 H 0.0065 0.42093 0.09305 0.0
H1528 H 0.95444 0.39334 0.04026 0.0
H1529 H 0.96355 0.39727 0.94475 0.0
C1530 C 0.99559 0.41512 0.90854 0.0
C1531 C 0.01285 0.42514 0.89555 0.0
C1532 C 0.99031 0.4117 0.96338 0.0
C1533 C 0.02485 0.43112 0.93798 0.0
C1534 C 0.01972 0.42762 0.99257 0.0
C1535 C -0.00284 0.41557 0.06066 0.0
C1536 C 0.97983 0.40691 0.0737 0.0
C1537 C 0.00247 0.41816 0.00579 0.0
C1538 C 0.96787 0.4001 0.03128 0.0
C1539 C 0.97306 0.40239 0.97664 0.0
H1540 H 0.59194 0.55879 0.05956 0.0
H1541 H 0.56617 0.58113 0.14303 0.0
H1542 H 0.55999 0.58976 0.0554 0.0
H1543 H 0.56026 0.5893 0.9548 0.0
H1544 H 0.58573 0.56667 0.87121 0.0
H1545 H 0.59378 0.55996 0.95902 0.0
C1546 C 0.58512 0.5657 0.05861 0.0
C1547 C 0.57945 0.56922 0.10781 0.0
C1548 C 0.58149 0.57051 0.00799 0.0
C1549 C 0.57066 0.57822 0.10582 0.0
C1550 C 0.56708 0.58313 0.05568 0.0
C1551 C 0.56773 0.58306 0.95578 0.0
C1552 C 0.57231 0.57842 0.90646 0.0
C1553 C 0.57219 0.5791 0.00646 0.0
C1554 C 0.58201 0.57037 0.90851 0.0
C1555 C 0.58659 0.56647 0.95875 0.0
H1556 H 0.41715 0.98802 0.12501 0.0
H1557 H 0.44387 0.03996 0.07067 0.0
H1558 H 0.43832 0.03071 0.97546 0.0
H1559 H 0.42692 0.00781 0.90705 0.0
H1560 H 0.40099 0.95586 0.96147 0.0
H1561 H 0.40513 0.96514 0.05666 0.0
C1562 C 0.42162 0.9973 0.09233 0.0
C1563 C 0.43091 0.01464 0.10502 0.0
C1564 C 0.4186 0.99189 0.03745 0.0
C1565 C 0.4367 0.02652 0.06211 0.0
C1566 C 0.43355 0.02124 0.00756 0.0
C1567 C 0.42209 -0.00147 0.93976 0.0
C1568 C 0.41369 0.98117 0.92706 0.0
C1569 C 0.42468 0.00396 0.99465 0.0
C1570 C 0.40755 0.96931 0.97 0.0
C1571 C 0.40991 0.9746 0.02456 0.0
H1572 H 0.56075 0.96995 0.93266 0.0
H1573 H 0.58661 0.01812 0.84974 0.0
H1574 H 0.5951 0.03278 0.93761 0.0
H1575 H 0.59452 0.03193 0.03814 0.0
H1576 H 0.56933 0.98369 0.12084 0.0
H1577 H 0.56131 0.96904 0.03297 0.0
C1578 C 0.56828 0.98365 0.93388 0.0
C1579 C 0.57296 0.99295 0.88492 0.0
C1580 C 0.57323 0.99198 0.98448 0.0
C1581 C 0.58283 0.01069 0.88698 0.0
C1582 C 0.58767 0.01908 0.93717 0.0
C1583 C 0.58733 0.01821 0.03684 0.0
C1584 C 0.58245 0.00891 0.0858 0.0
C1585 C 0.58285 0.00986 0.98618 0.0
C1586 C 0.57324 0.99114 0.08363 0.0
C1587 C 0.56861 0.98275 0.03343 0.0
H1588 H 0.9767 0.56771 0.87391 0.0
H1589 H 0.02854 0.59051 0.92797 0.0
H1590 H 0.01938 0.58725 0.02318 0.0
H1591 H -0.00348 0.57642 0.09177 0.0
H1592 H 0.94464 0.55315 0.03784 0.0
H1593 H 0.95392 0.55821 0.94258 0.0
C1594 C 0.986 0.5721 0.90652 0.0
C1595 C 0.00328 0.57928 0.89365 0.0
C1596 C 0.98063 0.57006 0.9615 0.0
C1597 C 0.01515 0.58489 0.93654 0.0
C1598 C 0.00992 0.58302 0.99115 0.0
C1599 C 0.98726 0.57265 0.05919 0.0
C1600 C 0.96991 0.56438 0.07208 0.0
C1601 C 0.99268 0.57541 0.00422 0.0
C1602 C 0.95809 0.55952 0.02923 0.0
C1603 C 0.96338 0.56236 0.9746 0.0
H1604 H 0.42385 0.39413 0.04961 0.0
H1605 H 0.40253 0.42159 0.12836 0.0
H1606 H 0.39317 0.42633 0.03999 0.0
H1607 H 0.39405 0.42554 0.93981 0.0
H1608 H 0.41565 0.39836 0.86086 0.0
H1609 H 0.4216 0.39037 0.94987 0.0
C1610 C 0.41696 0.40095 0.04744 0.0
C1611 C 0.41412 0.40773 0.09521 0.0
C1612 C 0.41171 0.40373 0.99647 0.0
C1613 C 0.40499 0.41636 0.09202 0.0
C1614 C 0.39966 0.41911 0.04151 0.0
C1615 C 0.39977 0.41761 0.94212 0.0
C1616 C 0.40462 0.41275 0.89396 0.0
C1617 C 0.40339 0.41328 0.99337 0.0
C1618 C 0.41189 0.40235 0.89744 0.0
C1619 C 0.41538 0.39785 0.94831 0.0
loop_
_geom_bond_atom_site_label_1
_geom_bond_atom_site_label_2
_geom_bond_distance
_geom_bond_site_symmetry_2
_ccdc_geom_bond_type
In0 O1 2.294 . S
In0 O2 2.326 . S
In0 O6 2.266 . S
In0 O7 2.326 . S
In0 O8 2.266 . S
In0 O9 2.326 1_554 S
In0 O11 2.294 . S
In0 O12 2.326 . S
O1 In0 2.294 . S
O1 C10 1.240 . S
O2 In0 2.326 . S
O2 C10 1.252 . S
C3 O6 1.252 . S
C3 O7 1.260 . S
C4 O11 1.240 . S
C4 O12 1.252 . S
C5 O8 1.252 1_556 S
C5 O9 1.260 . S
O6 In0 2.266 . S
O6 C3 1.252 . S
O7 In0 2.326 . S
O7 C3 1.260 . S
O8 In0 2.266 . S
O8 C5 1.252 1_554 S
O9 In0 2.326 1_556 S
O9 C5 1.260 . S
C10 O1 1.240 . S
C10 O2 1.252 . S
O11 In0 2.294 . S
O11 C4 1.240 . S
O12 In0 2.326 . S
O12 C4 1.252 . S
In13 O14 2.294 . S
In13 O15 2.326 . S
In13 O19 2.266 . S
In13 O20 2.326 . S
In13 O21 2.266 . S
In13 O22 2.326 1_554 S
In13 O24 2.294 . S
In13 O25 2.326 . S
O14 In13 2.294 . S
O14 C23 1.240 . S
O15 In13 2.326 . S
O15 C23 1.252 . S
C16 O19 1.252 . S
C16 O20 1.260 . S
C17 O24 1.240 . S
C17 O25 1.252 . S
C18 O21 1.252 1_556 S
C18 O22 1.260 . S
O19 In13 2.266 . S
O19 C16 1.252 . S
O20 In13 2.326 . S
O20 C16 1.260 . S
O21 In13 2.266 . S
O21 C18 1.252 1_554 S
O22 In13 2.326 1_556 S
O22 C18 1.260 . S
C23 O14 1.240 . S
C23 O15 1.252 . S
O24 In13 2.294 . S
O24 C17 1.240 . S
O25 In13 2.326 . S
O25 C17 1.252 . S
In26 O27 2.294 . S
In26 O28 2.326 . S
In26 O32 2.266 . S
In26 O33 2.326 1_554 S
In26 O34 2.266 . S
In26 O35 2.326 . S
In26 O37 2.294 . S
In26 O38 2.326 . S
O27 In26 2.294 . S
O27 C36 1.240 . S
O28 In26 2.326 . S
O28 C36 1.252 . S
C29 O32 1.252 1_556 S
C29 O33 1.260 . S
C30 O37 1.240 . S
C30 O38 1.252 . S
C31 O34 1.252 . S
C31 O35 1.260 . S
O32 In26 2.266 . S
O32 C29 1.252 1_554 S
O33 In26 2.326 1_556 S
O33 C29 1.260 . S
O34 In26 2.266 . S
O34 C31 1.252 . S
O35 In26 2.326 . S
O35 C31 1.260 . S
C36 O27 1.240 . S
C36 O28 1.252 . S
O37 In26 2.294 . S
O37 C30 1.240 . S
O38 In26 2.326 . S
O38 C30 1.252 . S
In39 O40 2.294 . S
In39 O41 2.326 . S
In39 O45 2.266 . S
In39 O46 2.326 1_556 S
In39 O47 2.266 . S
In39 O48 2.326 . S
In39 O50 2.294 . S
In39 O51 2.326 . S
O40 In39 2.294 . S
O40 C49 1.240 . S
O41 In39 2.326 . S
O41 C49 1.252 . S
C42 O45 1.252 1_554 S
C42 O46 1.260 . S
C43 O50 1.240 . S
C43 O51 1.252 . S
C44 O47 1.252 . S
C44 O48 1.260 . S
O45 In39 2.266 . S
O45 C42 1.252 1_556 S
O46 In39 2.326 1_554 S
O46 C42 1.260 . S
O47 In39 2.266 . S
O47 C44 1.252 . S
O48 In39 2.326 . S
O48 C44 1.260 . S
C49 O40 1.240 . S
C49 O41 1.252 . S
O50 In39 2.294 . S
O50 C43 1.240 . S
O51 In39 2.326 . S
O51 C43 1.252 . S
In52 O53 2.294 . S
In52 O54 2.326 . S
In52 O58 2.266 . S
In52 O59 2.326 1_556 S
In52 O60 2.266 . S
In52 O61 2.326 . S
In52 O63 2.294 . S
In52 O64 2.326 . S
O53 In52 2.294 . S
O53 C62 1.240 . S
O54 In52 2.326 . S
O54 C62 1.252 . S
C55 O58 1.252 1_554 S
C55 O59 1.260 . S
C56 O63 1.240 . S
C56 O64 1.252 . S
C57 O60 1.252 . S
C57 O61 1.260 . S
O58 In52 2.266 . S
O58 C55 1.252 1_556 S
O59 In52 2.326 1_554 S
O59 C55 1.260 . S
O60 In52 2.266 . S
O60 C57 1.252 . S
O61 In52 2.326 . S
O61 C57 1.260 . S
C62 O53 1.240 . S
C62 O54 1.252 . S
O63 In52 2.294 . S
O63 C56 1.240 . S
O64 In52 2.326 . S
O64 C56 1.252 . S
In65 O66 2.294 . S
In65 O67 2.326 . S
In65 O71 2.266 . S
In65 O72 2.326 . S
In65 O73 2.266 . S
In65 O74 2.326 1_556 S
In65 O76 2.294 . S
In65 O77 2.326 . S
O66 In65 2.294 . S
O66 C75 1.240 . S
O67 In65 2.326 . S
O67 C75 1.252 . S
C68 O71 1.252 . S
C68 O72 1.260 . S
C69 O76 1.240 . S
C69 O77 1.252 . S
C70 O73 1.252 1_554 S
C70 O74 1.260 . S
O71 In65 2.266 . S
O71 C68 1.252 . S
O72 In65 2.326 . S
O72 C68 1.260 . S
O73 In65 2.266 . S
O73 C70 1.252 1_556 S
O74 In65 2.326 1_554 S
O74 C70 1.260 . S
C75 O66 1.240 . S
C75 O67 1.252 . S
O76 In65 2.294 . S
O76 C69 1.240 . S
O77 In65 2.326 . S
O77 C69 1.252 . S
In78 O79 2.294 . S
In78 O80 2.326 . S
In78 O84 2.266 . S
In78 O85 2.326 1_556 S
In78 O86 2.266 . S
In78 O87 2.326 . S
In78 O89 2.294 . S
In78 O90 2.326 . S
O79 In78 2.294 . S
O79 C88 1.240 . S
O80 In78 2.326 . S
O80 C88 1.252 . S
C81 O84 1.252 1_554 S
C81 O85 1.260 . S
C82 O89 1.240 . S
C82 O90 1.252 . S
C83 O86 1.252 . S
C83 O87 1.260 . S
O84 In78 2.266 . S
O84 C81 1.252 1_556 S
O85 In78 2.326 1_554 S
O85 C81 1.260 . S
O86 In78 2.266 . S
O86 C83 1.252 . S
O87 In78 2.326 . S
O87 C83 1.260 . S
C88 O79 1.240 . S
C88 O80 1.252 . S
O89 In78 2.294 . S
O89 C82 1.240 . S
O90 In78 2.326 . S
O90 C82 1.252 . S
In91 O92 2.294 . S
In91 O93 2.326 . S
In91 O97 2.266 . S
In91 O98 2.326 . S
In91 O99 2.266 . S
In91 O100 2.326 1_556 S
In91 O102 2.294 . S
In91 O103 2.326 . S
O92 In91 2.294 . S
O92 C101 1.240 . S
O93 In91 2.326 . S
O93 C101 1.252 . S
C94 O97 1.252 . S
C94 O98 1.260 . S
C95 O102 1.240 . S
C95 O103 1.252 . S
C96 O99 1.252 1_554 S
C96 O100 1.260 . S
O97 In91 2.266 . S
O97 C94 1.252 . S
O98 In91 2.326 . S
O98 C94 1.260 . S
O99 In91 2.266 . S
O99 C96 1.252 1_556 S
O100 In91 2.326 1_554 S
O100 C96 1.260 . S
C101 O92 1.240 . S
C101 O93 1.252 . S
O102 In91 2.294 . S
O102 C95 1.240 . S
O103 In91 2.326 . S
O103 C95 1.252 . S
In104 O105 2.294 . S
In104 O106 2.326 . S
In104 O110 2.266 . S
In104 O111 2.326 1_556 S
In104 O112 2.266 . S
In104 O113 2.326 . S
In104 O115 2.294 . S
In104 O116 2.326 . S
O105 In104 2.294 . S
O105 C114 1.240 . S
O106 In104 2.326 . S
O106 C114 1.252 . S
C107 O110 1.252 1_554 S
C107 O111 1.260 . S
C108 O115 1.240 . S
C108 O116 1.252 . S
C109 O112 1.252 . S
C109 O113 1.260 . S
O110 In104 2.266 . S
O110 C107 1.252 1_556 S
O111 In104 2.326 1_554 S
O111 C107 1.260 . S
O112 In104 2.266 . S
O112 C109 1.252 . S
O113 In104 2.326 . S
O113 C109 1.260 . S
C114 O105 1.240 . S
C114 O106 1.252 . S
O115 In104 2.294 . S
O115 C108 1.240 . S
O116 In104 2.326 . S
O116 C108 1.252 . S
In117 O118 2.294 . S
In117 O119 2.326 . S
In117 O123 2.266 . S
In117 O124 2.326 1_554 S
In117 O125 2.266 . S
In117 O126 2.326 . S
In117 O128 2.294 . S
In117 O129 2.326 . S
O118 In117 2.294 . S
O118 C127 1.240 . S
O119 In117 2.326 . S
O119 C127 1.252 . S
C120 O123 1.252 1_556 S
C120 O124 1.260 . S
C121 O128 1.240 . S
C121 O129 1.252 . S
C122 O125 1.252 . S
C122 O126 1.260 . S
O123 In117 2.266 . S
O123 C120 1.252 1_554 S
O124 In117 2.326 1_556 S
O124 C120 1.260 . S
O125 In117 2.266 . S
O125 C122 1.252 . S
O126 In117 2.326 . S
O126 C122 1.260 . S
C127 O118 1.240 . S
C127 O119 1.252 . S
O128 In117 2.294 . S
O128 C121 1.240 . S
O129 In117 2.326 . S
O129 C121 1.252 . S
In130 O131 2.294 . S
In130 O132 2.326 . S
In130 O136 2.266 . S
In130 O137 2.326 . S
In130 O138 2.266 . S
In130 O139 2.326 1_554 S
In130 O141 2.294 . S
In130 O142 2.326 . S
O131 In130 2.294 . S
O131 C140 1.240 . S
O132 In130 2.326 . S
O132 C140 1.252 . S
C133 O136 1.252 . S
C133 O137 1.260 . S
C134 O141 1.240 . S
C134 O142 1.252 . S
C135 O138 1.252 1_556 S
C135 O139 1.260 . S
O136 In130 2.266 . S
O136 C133 1.252 . S
O137 In130 2.326 . S
O137 C133 1.260 . S
O138 In130 2.266 . S
O138 C135 1.252 1_554 S
O139 In130 2.326 1_556 S
O139 C135 1.260 . S
C140 O131 1.240 . S
C140 O132 1.252 . S
O141 In130 2.294 . S
O141 C134 1.240 . S
O142 In130 2.326 . S
O142 C134 1.252 . S
In143 O144 2.294 . S
In143 O145 2.326 . S
In143 O149 2.266 . S
In143 O150 2.326 1_554 S
In143 O151 2.266 . S
In143 O152 2.326 . S
In143 O154 2.294 . S
In143 O155 2.326 . S
O144 In143 2.294 . S
O144 C153 1.240 . S
O145 In143 2.326 . S
O145 C153 1.252 . S
C146 O149 1.252 1_556 S
C146 O150 1.260 . S
C147 O154 1.240 . S
C147 O155 1.252 . S
C148 O151 1.252 . S
C148 O152 1.260 . S
O149 In143 2.266 . S
O149 C146 1.252 1_554 S
O150 In143 2.326 1_556 S
O150 C146 1.260 . S
O151 In143 2.266 . S
O151 C148 1.252 . S
O152 In143 2.326 . S
O152 C148 1.260 . S
C153 O144 1.240 . S
C153 O145 1.252 . S
O154 In143 2.294 . S
O154 C147 1.240 . S
O155 In143 2.326 . S
O155 C147 1.252 . S
In156 O157 2.294 . S
In156 O158 2.326 . S
In156 O162 2.266 . S
In156 O163 2.326 . S
In156 O164 2.266 . S
In156 O165 2.326 . S
In156 O167 2.294 . S
In156 O168 2.326 . S
O157 In156 2.294 . S
O157 C166 1.240 . S
O158 In156 2.326 . S
O158 C166 1.252 . S
C159 O162 1.252 . S
C159 O163 1.260 . S
C160 O167 1.240 . S
C160 O168 1.252 . S
C161 O164 1.252 . S
C161 O165 1.260 . S
O162 In156 2.266 . S
O162 C159 1.252 . S
O163 In156 2.326 . S
O163 C159 1.260 . S
O164 In156 2.266 . S
O164 C161 1.252 . S
O165 In156 2.326 . S
O165 C161 1.260 . S
C166 O157 1.240 . S
C166 O158 1.252 . S
O167 In156 2.294 . S
O167 C160 1.240 . S
O168 In156 2.326 . S
O168 C160 1.252 . S
In169 O170 2.294 . S
In169 O171 2.326 . S
In169 O175 2.266 . S
In169 O176 2.326 . S
In169 O177 2.266 . S
In169 O178 2.326 . S
In169 O180 2.294 . S
In169 O181 2.326 . S
O170 In169 2.294 . S
O170 C179 1.240 . S
O171 In169 2.326 . S
O171 C179 1.252 . S
C172 O175 1.252 . S
C172 O176 1.260 . S
C173 O180 1.240 . S
C173 O181 1.252 . S
C174 O177 1.252 . S
C174 O178 1.260 . S
O175 In169 2.266 . S
O175 C172 1.252 . S
O176 In169 2.326 . S
O176 C172 1.260 . S
O177 In169 2.266 . S
O177 C174 1.252 . S
O178 In169 2.326 . S
O178 C174 1.260 . S
C179 O170 1.240 . S
C179 O171 1.252 . S
O180 In169 2.294 . S
O180 C173 1.240 . S
O181 In169 2.326 . S
O181 C173 1.252 . S
In182 O183 2.294 . S
In182 O184 2.326 . S
In182 O188 2.266 . S
In182 O189 2.326 . S
In182 O190 2.266 . S
In182 O191 2.326 . S
In182 O193 2.294 . S
In182 O194 2.326 . S
O183 In182 2.294 . S
O183 C192 1.240 . S
O184 In182 2.326 . S
O184 C192 1.252 . S
C185 O188 1.252 . S
C185 O189 1.260 . S
C186 O193 1.240 . S
C186 O194 1.252 . S
C187 O190 1.252 . S
C187 O191 1.260 . S
O188 In182 2.266 . S
O188 C185 1.252 . S
O189 In182 2.326 . S
O189 C185 1.260 . S
O190 In182 2.266 . S
O190 C187 1.252 . S
O191 In182 2.326 . S
O191 C187 1.260 . S
C192 O183 1.240 . S
C192 O184 1.252 . S
O193 In182 2.294 . S
O193 C186 1.240 . S
O194 In182 2.326 . S
O194 C186 1.252 . S
In195 O196 2.294 . S
In195 O197 2.326 . S
In195 O201 2.266 . S
In195 O202 2.326 . S
In195 O203 2.266 . S
In195 O204 2.326 . S
In195 O206 2.294 . S
In195 O207 2.326 . S
O196 In195 2.294 . S
O196 C205 1.240 . S
O197 In195 2.326 . S
O197 C205 1.252 . S
C198 O201 1.252 . S
C198 O202 1.260 . S
C199 O206 1.240 . S
C199 O207 1.252 . S
C200 O203 1.252 . S
C200 O204 1.260 . S
O201 In195 2.266 . S
O201 C198 1.252 . S
O202 In195 2.326 . S
O202 C198 1.260 . S
O203 In195 2.266 . S
O203 C200 1.252 . S
O204 In195 2.326 . S
O204 C200 1.260 . S
C205 O196 1.240 . S
C205 O197 1.252 . S
O206 In195 2.294 . S
O206 C199 1.240 . S
O207 In195 2.326 . S
O207 C199 1.252 . S
In208 O209 2.294 . S
In208 O210 2.326 . S
In208 O214 2.266 . S
In208 O215 2.326 . S
In208 O216 2.266 . S
In208 O217 2.326 . S
In208 O219 2.294 . S
In208 O220 2.326 . S
O209 In208 2.294 . S
O209 C218 1.240 . S
O210 In208 2.326 . S
O210 C218 1.252 . S
C211 O214 1.252 . S
C211 O215 1.260 . S
C212 O219 1.240 . S
C212 O220 1.252 . S
C213 O216 1.252 . S
C213 O217 1.260 . S
O214 In208 2.266 . S
O214 C211 1.252 . S
O215 In208 2.326 . S
O215 C211 1.260 . S
O216 In208 2.266 . S
O216 C213 1.252 . S
O217 In208 2.326 . S
O217 C213 1.260 . S
C218 O209 1.240 . S
C218 O210 1.252 . S
O219 In208 2.294 . S
O219 C212 1.240 . S
O220 In208 2.326 . S
O220 C212 1.252 . S
In221 O222 2.294 . S
In221 O223 2.326 . S
In221 O227 2.266 . S
In221 O228 2.326 . S
In221 O229 2.266 . S
In221 O230 2.326 . S
In221 O232 2.294 . S
In221 O233 2.326 . S
O222 In221 2.294 . S
O222 C231 1.240 . S
O223 In221 2.326 . S
O223 C231 1.252 . S
C224 O227 1.252 . S
C224 O228 1.260 . S
C225 O232 1.240 . S
C225 O233 1.252 . S
C226 O229 1.252 . S
C226 O230 1.260 . S
O227 In221 2.266 . S
O227 C224 1.252 . S
O228 In221 2.326 . S
O228 C224 1.260 . S
O229 In221 2.266 . S
O229 C226 1.252 . S
O230 In221 2.326 . S
O230 C226 1.260 . S
C231 O222 1.240 . S
C231 O223 1.252 . S
O232 In221 2.294 . S
O232 C225 1.240 . S
O233 In221 2.326 . S
O233 C225 1.252 . S
In234 O235 2.294 . S
In234 O236 2.326 . S
In234 O240 2.266 . S
In234 O241 2.326 . S
In234 O242 2.266 . S
In234 O243 2.326 . S
In234 O245 2.294 . S
In234 O246 2.326 . S
O235 In234 2.294 . S
O235 C244 1.240 . S
O236 In234 2.326 . S
O236 C244 1.252 . S
C237 O240 1.252 . S
C237 O241 1.260 . S
C238 O245 1.240 . S
C238 O246 1.252 . S
C239 O242 1.252 . S
C239 O243 1.260 . S
O240 In234 2.266 . S
O240 C237 1.252 . S
O241 In234 2.326 . S
O241 C237 1.260 . S
O242 In234 2.266 . S
O242 C239 1.252 . S
O243 In234 2.326 . S
O243 C239 1.260 . S
C244 O235 1.240 . S
C244 O236 1.252 . S
O245 In234 2.294 . S
O245 C238 1.240 . S
O246 In234 2.326 . S
O246 C238 1.252 . S
In247 O248 2.294 . S
In247 O249 2.326 . S
In247 O253 2.266 . S
In247 O254 2.326 . S
In247 O255 2.266 . S
In247 O256 2.326 . S
In247 O258 2.294 . S
In247 O259 2.326 . S
O248 In247 2.294 . S
O248 C257 1.240 . S
O249 In247 2.326 . S
O249 C257 1.252 . S
C250 O253 1.252 . S
C250 O254 1.260 . S
C251 O258 1.240 . S
C251 O259 1.252 . S
C252 O255 1.252 . S
C252 O256 1.260 . S
O253 In247 2.266 . S
O253 C250 1.252 . S
O254 In247 2.326 . S
O254 C250 1.260 . S
O255 In247 2.266 . S
O255 C252 1.252 . S
O256 In247 2.326 . S
O256 C252 1.260 . S
C257 O248 1.240 . S
C257 O249 1.252 . S
O258 In247 2.294 . S
O258 C251 1.240 . S
O259 In247 2.326 . S
O259 C251 1.252 . S
In260 O261 2.294 . S
In260 O262 2.326 . S
In260 O266 2.266 . S
In260 O267 2.326 . S
In260 O268 2.266 . S
In260 O269 2.326 . S
In260 O271 2.294 . S
In260 O272 2.326 . S
O261 In260 2.294 . S
O261 C270 1.240 . S
O262 In260 2.326 . S
O262 C270 1.252 . S
C263 O266 1.252 . S
C263 O267 1.260 . S
C264 O271 1.240 . S
C264 O272 1.252 . S
C265 O268 1.252 . S
C265 O269 1.260 . S
O266 In260 2.266 . S
O266 C263 1.252 . S
O267 In260 2.326 . S
O267 C263 1.260 . S
O268 In260 2.266 . S
O268 C265 1.252 . S
O269 In260 2.326 . S
O269 C265 1.260 . S
C270 O261 1.240 . S
C270 O262 1.252 . S
O271 In260 2.294 . S
O271 C264 1.240 . S
O272 In260 2.326 . S
O272 C264 1.252 . S
In273 O274 2.294 . S
In273 O275 2.326 . S
In273 O279 2.266 . S
In273 O280 2.326 . S
In273 O281 2.266 . S
In273 O282 2.326 . S
In273 O284 2.294 . S
In273 O285 2.326 . S
O274 In273 2.294 . S
O274 C283 1.240 . S
O275 In273 2.326 . S
O275 C283 1.252 . S
C276 O279 1.252 . S
C276 O280 1.260 . S
C277 O284 1.240 . S
C277 O285 1.252 . S
C278 O281 1.252 . S
C278 O282 1.260 . S
O279 In273 2.266 . S
O279 C276 1.252 . S
O280 In273 2.326 . S
O280 C276 1.260 . S
O281 In273 2.266 . S
O281 C278 1.252 . S
O282 In273 2.326 . S
O282 C278 1.260 . S
C283 O274 1.240 . S
C283 O275 1.252 . S
O284 In273 2.294 . S
O284 C277 1.240 . S
O285 In273 2.326 . S
O285 C277 1.252 . S
In286 O287 2.294 . S
In286 O288 2.326 . S
In286 O292 2.266 . S
In286 O293 2.326 . S
In286 O294 2.266 . S
In286 O295 2.326 . S
In286 O297 2.294 . S
In286 O298 2.326 . S
O287 In286 2.294 . S
O287 C296 1.240 . S
O288 In286 2.326 . S
O288 C296 1.252 . S
C289 O292 1.252 . S
C289 O293 1.260 . S
C290 O297 1.240 . S
C290 O298 1.252 . S
C291 O294 1.252 . S
C291 O295 1.260 . S
O292 In286 2.266 . S
O292 C289 1.252 . S
O293 In286 2.326 . S
O293 C289 1.260 . S
O294 In286 2.266 . S
O294 C291 1.252 . S
O295 In286 2.326 . S
O295 C291 1.260 . S
C296 O287 1.240 . S
C296 O288 1.252 . S
O297 In286 2.294 . S
O297 C290 1.240 . S
O298 In286 2.326 . S
O298 C290 1.252 . S
In299 O300 2.294 . S
In299 O301 2.326 . S
In299 O305 2.266 . S
In299 O306 2.326 . S
In299 O307 2.266 . S
In299 O308 2.326 . S
In299 O310 2.294 . S
In299 O311 2.326 . S
O300 In299 2.294 . S
O300 C309 1.240 . S
O301 In299 2.326 . S
O301 C309 1.252 . S
C302 O305 1.252 . S
C302 O306 1.260 . S
C303 O310 1.240 . S
C303 O311 1.252 . S
C304 O307 1.252 . S
C304 O308 1.260 . S
O305 In299 2.266 . S
O305 C302 1.252 . S
O306 In299 2.326 . S
O306 C302 1.260 . S
O307 In299 2.266 . S
O307 C304 1.252 . S
O308 In299 2.326 . S
O308 C304 1.260 . S
C309 O300 1.240 . S
C309 O301 1.252 . S
O310 In299 2.294 . S
O310 C303 1.240 . S
O311 In299 2.326 . S
O311 C303 1.252 . S
In312 O313 2.294 . S
In312 O314 2.326 . S
In312 O318 2.266 . S
In312 O319 2.326 . S
In312 O320 2.266 . S
In312 O321 2.326 . S
In312 O323 2.294 . S
In312 O324 2.326 . S
O313 In312 2.294 . S
O313 C322 1.240 . S
O314 In312 2.326 . S
O314 C322 1.252 . S
C315 O318 1.252 . S
C315 O319 1.260 . S
C316 O323 1.240 . S
C316 O324 1.252 . S
C317 O320 1.252 . S
C317 O321 1.260 . S
O318 In312 2.266 . S
O318 C315 1.252 . S
O319 In312 2.326 . S
O319 C315 1.260 . S
O320 In312 2.266 . S
O320 C317 1.252 . S
O321 In312 2.326 . S
O321 C317 1.260 . S
C322 O313 1.240 . S
C322 O314 1.252 . S
O323 In312 2.294 . S
O323 C316 1.240 . S
O324 In312 2.326 . S
O324 C316 1.252 . S
In325 O326 2.294 . S
In325 O327 2.326 . S
In325 O331 2.266 . S
In325 O332 2.326 . S
In325 O333 2.266 . S
In325 O334 2.326 . S
In325 O336 2.294 . S
In325 O337 2.326 . S
O326 In325 2.294 . S
O326 C335 1.240 . S
O327 In325 2.326 . S
O327 C335 1.252 . S
C328 O331 1.252 . S
C328 O332 1.260 . S
C329 O336 1.240 . S
C329 O337 1.252 . S
C330 O333 1.252 . S
C330 O334 1.260 . S
O331 In325 2.266 . S
O331 C328 1.252 . S
O332 In325 2.326 . S
O332 C328 1.260 . S
O333 In325 2.266 . S
O333 C330 1.252 . S
O334 In325 2.326 . S
O334 C330 1.260 . S
C335 O326 1.240 . S
C335 O327 1.252 . S
O336 In325 2.294 . S
O336 C329 1.240 . S
O337 In325 2.326 . S
O337 C329 1.252 . S
In338 O339 2.294 . S
In338 O340 2.326 . S
In338 O344 2.266 . S
In338 O345 2.326 . S
In338 O346 2.266 . S
In338 O347 2.326 . S
In338 O349 2.294 . S
In338 O350 2.326 . S
O339 In338 2.294 . S
O339 C348 1.240 . S
O340 In338 2.326 . S
O340 C348 1.252 . S
C341 O344 1.252 . S
C341 O345 1.260 . S
C342 O349 1.240 . S
C342 O350 1.252 . S
C343 O346 1.252 . S
C343 O347 1.260 . S
O344 In338 2.266 . S
O344 C341 1.252 . S
O345 In338 2.326 . S
O345 C341 1.260 . S
O346 In338 2.266 . S
O346 C343 1.252 . S
O347 In338 2.326 . S
O347 C343 1.260 . S
C348 O339 1.240 . S
C348 O340 1.252 . S
O349 In338 2.294 . S
O349 C342 1.240 . S
O350 In338 2.326 . S
O350 C342 1.252 . S
In351 O352 2.294 . S
In351 O353 2.326 . S
In351 O357 2.266 . S
In351 O358 2.326 . S
In351 O359 2.266 . S
In351 O360 2.326 . S
In351 O362 2.294 . S
In351 O363 2.326 . S
O352 In351 2.294 . S
O352 C361 1.240 . S
O353 In351 2.326 . S
O353 C361 1.252 . S
C354 O357 1.252 . S
C354 O358 1.260 . S
C355 O362 1.240 . S
C355 O363 1.252 . S
C356 O359 1.252 . S
C356 O360 1.260 . S
O357 In351 2.266 . S
O357 C354 1.252 . S
O358 In351 2.326 . S
O358 C354 1.260 . S
O359 In351 2.266 . S
O359 C356 1.252 . S
O360 In351 2.326 . S
O360 C356 1.260 . S
C361 O352 1.240 . S
C361 O353 1.252 . S
O362 In351 2.294 . S
O362 C355 1.240 . S
O363 In351 2.326 . S
O363 C355 1.252 . S
In364 O365 2.294 . S
In364 O366 2.326 . S
In364 O370 2.266 . S
In364 O371 2.326 . S
In364 O372 2.266 . S
In364 O373 2.326 . S
In364 O375 2.294 . S
In364 O376 2.326 . S
O365 In364 2.294 . S
O365 C374 1.240 . S
O366 In364 2.326 . S
O366 C374 1.252 . S
C367 O370 1.252 . S
C367 O371 1.260 . S
C368 O375 1.240 . S
C368 O376 1.252 . S
C369 O372 1.252 . S
C369 O373 1.260 . S
O370 In364 2.266 . S
O370 C367 1.252 . S
O371 In364 2.326 . S
O371 C367 1.260 . S
O372 In364 2.266 . S
O372 C369 1.252 . S
O373 In364 2.326 . S
O373 C369 1.260 . S
C374 O365 1.240 . S
C374 O366 1.252 . S
O375 In364 2.294 . S
O375 C368 1.240 . S
O376 In364 2.326 . S
O376 C368 1.252 . S
In377 O378 2.294 . S
In377 O379 2.326 . S
In377 O383 2.266 . S
In377 O384 2.326 . S
In377 O385 2.266 . S
In377 O386 2.326 . S
In377 O388 2.294 . S
In377 O389 2.326 . S
O378 In377 2.294 . S
O378 C387 1.240 . S
O379 In377 2.326 . S
O379 C387 1.252 . S
C380 O383 1.252 . S
C380 O384 1.260 . S
C381 O388 1.240 . S
C381 O389 1.252 . S
C382 O385 1.252 . S
C382 O386 1.260 . S
O383 In377 2.266 . S
O383 C380 1.252 . S
O384 In377 2.326 . S
O384 C380 1.260 . S
O385 In377 2.266 . S
O385 C382 1.252 . S
O386 In377 2.326 . S
O386 C382 1.260 . S
C387 O378 1.240 . S
C387 O379 1.252 . S
O388 In377 2.294 . S
O388 C381 1.240 . S
O389 In377 2.326 . S
O389 C381 1.252 . S
In390 O391 2.294 . S
In390 O392 2.326 . S
In390 O396 2.266 . S
In390 O397 2.326 . S
In390 O398 2.266 . S
In390 O399 2.326 . S
In390 O401 2.294 . S
In390 O402 2.326 . S
O391 In390 2.294 . S
O391 C400 1.240 . S
O392 In390 2.326 . S
O392 C400 1.252 . S
C393 O396 1.252 . S
C393 O397 1.260 . S
C394 O401 1.240 . S
C394 O402 1.252 . S
C395 O398 1.252 . S
C395 O399 1.260 . S
O396 In390 2.266 . S
O396 C393 1.252 . S
O397 In390 2.326 . S
O397 C393 1.260 . S
O398 In390 2.266 . S
O398 C395 1.252 . S
O399 In390 2.326 . S
O399 C395 1.260 . S
C400 O391 1.240 . S
C400 O392 1.252 . S
O401 In390 2.294 . S
O401 C394 1.240 . S
O402 In390 2.326 . S
O402 C394 1.252 . S
In403 O404 2.294 . S
In403 O405 2.326 . S
In403 O409 2.266 . S
In403 O410 2.326 . S
In403 O411 2.266 . S
In403 O412 2.326 . S
In403 O414 2.294 . S
In403 O415 2.326 . S
O404 In403 2.294 . S
O404 C413 1.240 . S
O405 In403 2.326 . S
O405 C413 1.252 . S
C406 O409 1.252 . S
C406 O410 1.260 . S
C407 O414 1.240 . S
C407 O415 1.252 . S
C408 O411 1.252 . S
C408 O412 1.260 . S
O409 In403 2.266 . S
O409 C406 1.252 . S
O410 In403 2.326 . S
O410 C406 1.260 . S
O411 In403 2.266 . S
O411 C408 1.252 . S
O412 In403 2.326 . S
O412 C408 1.260 . S
C413 O404 1.240 . S
C413 O405 1.252 . S
O414 In403 2.294 . S
O414 C407 1.240 . S
O415 In403 2.326 . S
O415 C407 1.252 . S
In416 O417 2.294 . S
In416 O418 2.326 . S
In416 O422 2.266 . S
In416 O423 2.326 . S
In416 O424 2.266 . S
In416 O425 2.326 . S
In416 O427 2.294 . S
In416 O428 2.326 . S
O417 In416 2.294 . S
O417 C426 1.240 . S
O418 In416 2.326 . S
O418 C426 1.252 . S
C419 O422 1.252 . S
C419 O423 1.260 . S
C420 O427 1.240 . S
C420 O428 1.252 . S
C421 O424 1.252 . S
C421 O425 1.260 . S
O422 In416 2.266 . S
O422 C419 1.252 . S
O423 In416 2.326 . S
O423 C419 1.260 . S
O424 In416 2.266 . S
O424 C421 1.252 . S
O425 In416 2.326 . S
O425 C421 1.260 . S
C426 O417 1.240 . S
C426 O418 1.252 . S
O427 In416 2.294 . S
O427 C420 1.240 . S
O428 In416 2.326 . S
O428 C420 1.252 . S
In429 O430 2.294 . S
In429 O431 2.326 . S
In429 O435 2.266 . S
In429 O436 2.326 . S
In429 O437 2.266 . S
In429 O438 2.326 . S
In429 O440 2.294 . S
In429 O441 2.326 . S
O430 In429 2.294 . S
O430 C439 1.240 . S
O431 In429 2.326 . S
O431 C439 1.252 . S
C432 O435 1.252 . S
C432 O436 1.260 . S
C433 O440 1.240 . S
C433 O441 1.252 . S
C434 O437 1.252 . S
C434 O438 1.260 . S
O435 In429 2.266 . S
O435 C432 1.252 . S
O436 In429 2.326 . S
O436 C432 1.260 . S
O437 In429 2.266 . S
O437 C434 1.252 . S
O438 In429 2.326 . S
O438 C434 1.260 . S
C439 O430 1.240 . S
C439 O431 1.252 . S
O440 In429 2.294 . S
O440 C433 1.240 . S
O441 In429 2.326 . S
O441 C433 1.252 . S
In442 O443 2.294 . S
In442 O444 2.326 . S
In442 O448 2.266 . S
In442 O449 2.326 . S
In442 O450 2.266 . S
In442 O451 2.326 . S
In442 O453 2.294 . S
In442 O454 2.326 . S
O443 In442 2.294 . S
O443 C452 1.240 . S
O444 In442 2.326 . S
O444 C452 1.252 . S
C445 O448 1.252 . S
C445 O449 1.260 . S
C446 O453 1.240 . S
C446 O454 1.252 . S
C447 O450 1.252 . S
C447 O451 1.260 . S
O448 In442 2.266 . S
O448 C445 1.252 . S
O449 In442 2.326 . S
O449 C445 1.260 . S
O450 In442 2.266 . S
O450 C447 1.252 . S
O451 In442 2.326 . S
O451 C447 1.260 . S
C452 O443 1.240 . S
C452 O444 1.252 . S
O453 In442 2.294 . S
O453 C446 1.240 . S
O454 In442 2.326 . S
O454 C446 1.252 . S
In455 O456 2.294 . S
In455 O457 2.326 . S
In455 O461 2.266 . S
In455 O462 2.326 . S
In455 O463 2.266 . S
In455 O464 2.326 . S
In455 O466 2.294 . S
In455 O467 2.326 . S
O456 In455 2.294 . S
O456 C465 1.240 . S
O457 In455 2.326 . S
O457 C465 1.252 . S
C458 O461 1.252 . S
C458 O462 1.260 . S
C459 O466 1.240 . S
C459 O467 1.252 . S
C460 O463 1.252 . S
C460 O464 1.260 . S
O461 In455 2.266 . S
O461 C458 1.252 . S
O462 In455 2.326 . S
O462 C458 1.260 . S
O463 In455 2.266 . S
O463 C460 1.252 . S
O464 In455 2.326 . S
O464 C460 1.260 . S
C465 O456 1.240 . S
C465 O457 1.252 . S
O466 In455 2.294 . S
O466 C459 1.240 . S
O467 In455 2.326 . S
O467 C459 1.252 . S
H468 C474 0.930 . S
H469 C477 0.930 . S
H470 C478 0.930 . S
H471 C479 0.930 . S
H472 C482 0.930 . S
H473 C483 0.930 . S
C474 H468 0.930 . S
C474 C475 1.355 . S
C474 C476 1.415 . S
C475 C474 1.355 . S
C475 C477 1.419 . S
C476 C474 1.415 . S
C476 C481 1.425 . S
C476 C483 1.409 . S
C477 H469 0.930 . S
C477 C475 1.419 . S
C477 C478 1.362 . S
C478 H470 0.930 . S
C478 C477 1.362 . S
C478 C481 1.409 . S
C479 H471 0.930 . S
C479 C480 1.355 . S
C479 C481 1.415 . S
C480 C479 1.355 . S
C480 C482 1.419 . S
C481 C476 1.425 . S
C481 C478 1.409 . S
C481 C479 1.415 . S
C482 H472 0.930 . S
C482 C480 1.419 . S
C482 C483 1.362 . S
C483 H473 0.930 . S
C483 C476 1.409 . S
C483 C482 1.362 . S
H484 C490 0.930 . S
H485 C493 0.930 . S
H486 C494 0.930 . S
H487 C495 0.930 . S
H488 C498 0.930 . S
H489 C499 0.930 . S
C490 H484 0.930 . S
C490 C491 1.355 . S
C490 C492 1.415 . S
C491 C490 1.355 . S
C491 C493 1.419 . S
C492 C490 1.415 . S
C492 C497 1.425 . S
C492 C499 1.409 . S
C493 H485 0.930 . S
C493 C491 1.419 . S
C493 C494 1.362 . S
C494 H486 0.930 . S
C494 C493 1.362 . S
C494 C497 1.409 . S
C495 H487 0.930 . S
C495 C496 1.355 . S
C495 C497 1.415 . S
C496 C495 1.355 . S
C496 C498 1.419 . S
C497 C492 1.425 . S
C497 C494 1.409 . S
C497 C495 1.415 . S
C498 H488 0.930 . S
C498 C496 1.419 . S
C498 C499 1.362 . S
C499 H489 0.930 . S
C499 C492 1.409 . S
C499 C498 1.362 . S
H500 C506 0.930 . S
H501 C509 0.930 . S
H502 C510 0.930 1_556 S
H503 C511 0.930 . S
H504 C514 0.930 . S
H505 C515 0.930 . S
C506 H500 0.930 . S
C506 C507 1.355 . S
C506 C508 1.415 . S
C507 C506 1.355 . S
C507 C509 1.419 . S
C508 C506 1.415 . S
C508 C513 1.425 . S
C508 C515 1.409 . S
C509 H501 0.930 . S
C509 C507 1.419 . S
C509 C510 1.362 . S
C510 H502 0.930 1_554 S
C510 C509 1.362 . S
C510 C513 1.409 . S
C511 H503 0.930 . S
C511 C512 1.355 . S
C511 C513 1.415 . S
C512 C511 1.355 . S
C512 C514 1.419 . S
C513 C508 1.425 . S
C513 C510 1.409 . S
C513 C511 1.415 . S
C514 H504 0.930 . S
C514 C512 1.419 . S
C514 C515 1.362 . S
C515 H505 0.930 . S
C515 C508 1.409 . S
C515 C514 1.362 . S
H516 C522 0.930 . S
H517 C525 0.930 . S
H518 C526 0.930 . S
H519 C527 0.930 . S
H520 C530 0.930 . S
H521 C531 0.930 . S
C522 H516 0.930 . S
C522 C523 1.355 . S
C522 C524 1.415 . S
C523 C522 1.355 . S
C523 C525 1.419 . S
C524 C522 1.415 . S
C524 C529 1.425 . S
C524 C531 1.409 . S
C525 H517 0.930 . S
C525 C523 1.419 . S
C525 C526 1.362 . S
C526 H518 0.930 . S
C526 C525 1.362 . S
C526 C529 1.409 . S
C527 H519 0.930 . S
C527 C528 1.355 . S
C527 C529 1.415 . S
C528 C527 1.355 . S
C528 C530 1.419 . S
C529 C524 1.425 . S
C529 C526 1.409 . S
C529 C527 1.415 . S
C530 H520 0.930 . S
C530 C528 1.419 . S
C530 C531 1.362 . S
C531 H521 0.930 . S
C531 C524 1.409 . S
C531 C530 1.362 . S
H532 C538 0.930 . S
H533 C541 0.930 . S
H534 C542 0.930 . S
H535 C543 0.930 . S
H536 C546 0.930 . S
H537 C547 0.930 . S
C538 H532 0.930 . S
C538 C539 1.355 . S
C538 C540 1.415 . S
C539 C538 1.355 . S
C539 C541 1.419 . S
C540 C538 1.415 . S
C540 C545 1.425 . S
C540 C547 1.409 . S
C541 H533 0.930 . S
C541 C539 1.419 . S
C541 C542 1.362 . S
C542 H534 0.930 . S
C542 C541 1.362 . S
C542 C545 1.409 . S
C543 H535 0.930 . S
C543 C544 1.355 . S
C543 C545 1.415 . S
C544 C543 1.355 . S
C544 C546 1.419 . S
C545 C540 1.425 . S
C545 C542 1.409 . S
C545 C543 1.415 . S
C546 H536 0.930 . S
C546 C544 1.419 . S
C546 C547 1.362 . S
C547 H537 0.930 . S
C547 C540 1.409 . S
C547 C546 1.362 . S
H548 C554 0.930 . S
H549 C557 0.930 . S
H550 C558 0.930 . S
H551 C559 0.930 . S
H552 C562 0.930 . S
H553 C563 0.930 . S
C554 H548 0.930 . S
C554 C555 1.355 . S
C554 C556 1.415 . S
C555 C554 1.355 . S
C555 C557 1.419 . S
C556 C554 1.415 . S
C556 C561 1.425 . S
C556 C563 1.409 . S
C557 H549 0.930 . S
C557 C555 1.419 . S
C557 C558 1.362 . S
C558 H550 0.930 . S
C558 C557 1.362 . S
C558 C561 1.409 . S
C559 H551 0.930 . S
C559 C560 1.355 . S
C559 C561 1.415 . S
C560 C559 1.355 . S
C560 C562 1.419 . S
C561 C556 1.425 . S
C561 C558 1.409 . S
C561 C559 1.415 . S
C562 H552 0.930 . S
C562 C560 1.419 . S
C562 C563 1.362 . S
C563 H553 0.930 . S
C563 C556 1.409 . S
C563 C562 1.362 . S
H564 C570 0.930 . S
H565 C573 0.930 . S
H566 C574 0.930 . S
H567 C575 0.930 . S
H568 C578 0.930 . S
H569 C579 0.930 . S
C570 H564 0.930 . S
C570 C571 1.355 . S
C570 C572 1.415 . S
C571 C570 1.355 . S
C571 C573 1.419 . S
C572 C570 1.415 . S
C572 C577 1.425 . S
C572 C579 1.409 . S
C573 H565 0.930 . S
C573 C571 1.419 . S
C573 C574 1.362 . S
C574 H566 0.930 . S
C574 C573 1.362 . S
C574 C577 1.409 . S
C575 H567 0.930 . S
C575 C576 1.355 . S
C575 C577 1.415 . S
C576 C575 1.355 . S
C576 C578 1.419 . S
C577 C572 1.425 . S
C577 C574 1.409 . S
C577 C575 1.415 . S
C578 H568 0.930 . S
C578 C576 1.419 . S
C578 C579 1.362 . S
C579 H569 0.930 . S
C579 C572 1.409 . S
C579 C578 1.362 . S
H580 C586 0.930 . S
H581 C589 0.930 . S
H582 C590 0.930 . S
H583 C591 0.930 . S
H584 C594 0.930 . S
H585 C595 0.930 . S
C586 H580 0.930 . S
C586 C587 1.355 . S
C586 C588 1.415 . S
C587 C586 1.355 . S
C587 C589 1.419 . S
C588 C586 1.415 . S
C588 C593 1.425 . S
C588 C595 1.409 . S
C589 H581 0.930 . S
C589 C587 1.419 . S
C589 C590 1.362 . S
C590 H582 0.930 . S
C590 C589 1.362 . S
C590 C593 1.409 . S
C591 H583 0.930 . S
C591 C592 1.355 . S
C591 C593 1.415 . S
C592 C591 1.355 . S
C592 C594 1.419 . S
C593 C588 1.425 . S
C593 C590 1.409 . S
C593 C591 1.415 . S
C594 H584 0.930 . S
C594 C592 1.419 . S
C594 C595 1.362 . S
C595 H585 0.930 . S
C595 C588 1.409 . S
C595 C594 1.362 . S
H596 C602 0.930 . S
H597 C605 0.930 . S
H598 C606 0.930 . S
H599 C607 0.930 . S
H600 C610 0.930 . S
H601 C611 0.930 . S
C602 H596 0.930 . S
C602 C603 1.355 . S
C602 C604 1.415 . S
C603 C602 1.355 . S
C603 C605 1.419 . S
C604 C602 1.415 . S
C604 C609 1.425 . S
C604 C611 1.409 . S
C605 H597 0.930 . S
C605 C603 1.419 . S
C605 C606 1.362 . S
C606 H598 0.930 . S
C606 C605 1.362 . S
C606 C609 1.409 . S
C607 H599 0.930 . S
C607 C608 1.355 . S
C607 C609 1.415 . S
C608 C607 1.355 . S
C608 C610 1.419 . S
C609 C604 1.425 . S
C609 C606 1.409 . S
C609 C607 1.415 . S
C610 H600 0.930 . S
C610 C608 1.419 . S
C610 C611 1.362 . S
C611 H601 0.930 . S
C611 C604 1.409 . S
C611 C610 1.362 . S
H612 C618 0.930 . S
H613 C621 0.930 . S
H614 C622 0.930 . S
H615 C623 0.930 . S
H616 C626 0.930 . S
H617 C627 0.930 . S
C618 H612 0.930 . S
C618 C619 1.355 . S
C618 C620 1.415 . S
C619 C618 1.355 . S
C619 C621 1.419 . S
C620 C618 1.415 . S
C620 C625 1.425 . S
C620 C627 1.409 . S
C621 H613 0.930 . S
C621 C619 1.419 . S
C621 C622 1.362 . S
C622 H614 0.930 . S
C622 C621 1.362 . S
C622 C625 1.409 . S
C623 H615 0.930 . S
C623 C624 1.355 . S
C623 C625 1.415 . S
C624 C623 1.355 . S
C624 C626 1.419 . S
C625 C620 1.425 . S
C625 C622 1.409 . S
C625 C623 1.415 . S
C626 H616 0.930 . S
C626 C624 1.419 . S
C626 C627 1.362 . S
C627 H617 0.930 . S
C627 C620 1.409 . S
C627 C626 1.362 . S
H628 C634 0.930 . S
H629 C637 0.930 . S
H630 C638 0.930 . S
H631 C639 0.930 . S
H632 C642 0.930 . S
H633 C643 0.930 . S
C634 H628 0.930 . S
C634 C635 1.355 . S
C634 C636 1.415 . S
C635 C634 1.355 . S
C635 C637 1.419 . S
C636 C634 1.415 . S
C636 C641 1.425 . S
C636 C643 1.409 . S
C637 H629 0.930 . S
C637 C635 1.419 . S
C637 C638 1.362 . S
C638 H630 0.930 . S
C638 C637 1.362 . S
C638 C641 1.409 . S
C639 H631 0.930 . S
C639 C640 1.355 . S
C639 C641 1.415 . S
C640 C639 1.355 . S
C640 C642 1.419 . S
C641 C636 1.425 . S
C641 C638 1.409 . S
C641 C639 1.415 . S
C642 H632 0.930 . S
C642 C640 1.419 . S
C642 C643 1.362 . S
C643 H633 0.930 . S
C643 C636 1.409 . S
C643 C642 1.362 . S
H644 C650 0.930 . S
H645 C653 0.930 . S
H646 C654 0.930 . S
H647 C655 0.930 . S
H648 C658 0.930 . S
H649 C659 0.930 . S
C650 H644 0.930 . S
C650 C651 1.355 . S
C650 C652 1.415 . S
C651 C650 1.355 . S
C651 C653 1.419 . S
C652 C650 1.415 . S
C652 C657 1.425 . S
C652 C659 1.409 . S
C653 H645 0.930 . S
C653 C651 1.419 . S
C653 C654 1.362 . S
C654 H646 0.930 . S
C654 C653 1.362 . S
C654 C657 1.409 . S
C655 H647 0.930 . S
C655 C656 1.355 . S
C655 C657 1.415 . S
C656 C655 1.355 . S
C656 C658 1.419 . S
C657 C652 1.425 . S
C657 C654 1.409 . S
C657 C655 1.415 . S
C658 H648 0.930 . S
C658 C656 1.419 . S
C658 C659 1.362 . S
C659 H649 0.930 . S
C659 C652 1.409 . S
C659 C658 1.362 . S
H660 C666 0.930 . S
H661 C669 0.930 . S
H662 C670 0.930 . S
H663 C671 0.930 . S
H664 C674 0.930 . S
H665 C675 0.930 . S
C666 H660 0.930 . S
C666 C667 1.355 . S
C666 C668 1.415 . S
C667 C666 1.355 . S
C667 C669 1.419 . S
C668 C666 1.415 . S
C668 C673 1.425 . S
C668 C675 1.409 . S
C669 H661 0.930 . S
C669 C667 1.419 . S
C669 C670 1.362 . S
C670 H662 0.930 . S
C670 C669 1.362 . S
C670 C673 1.409 . S
C671 H663 0.930 . S
C671 C672 1.355 . S
C671 C673 1.415 . S
C672 C671 1.355 . S
C672 C674 1.419 . S
C673 C668 1.425 . S
C673 C670 1.409 . S
C673 C671 1.415 . S
C674 H664 0.930 . S
C674 C672 1.419 . S
C674 C675 1.362 . S
C675 H665 0.930 . S
C675 C668 1.409 . S
C675 C674 1.362 . S
H676 C682 0.930 . S
H677 C685 0.930 . S
H678 C686 0.930 . S
H679 C687 0.930 . S
H680 C690 0.930 . S
H681 C691 0.930 . S
C682 H676 0.930 . S
C682 C683 1.355 . S
C682 C684 1.415 . S
C683 C682 1.355 . S
C683 C685 1.419 . S
C684 C682 1.415 . S
C684 C689 1.425 . S
C684 C691 1.409 . S
C685 H677 0.930 . S
C685 C683 1.419 . S
C685 C686 1.362 . S
C686 H678 0.930 . S
C686 C685 1.362 . S
C686 C689 1.409 . S
C687 H679 0.930 . S
C687 C688 1.355 . S
C687 C689 1.415 . S
C688 C687 1.355 . S
C688 C690 1.419 . S
C689 C684 1.425 . S
C689 C686 1.409 . S
C689 C687 1.415 . S
C690 H680 0.930 . S
C690 C688 1.419 . S
C690 C691 1.362 . S
C691 H681 0.930 . S
C691 C684 1.409 . S
C691 C690 1.362 . S
H692 C698 0.930 . S
H693 C701 0.930 . S
H694 C702 0.930 . S
H695 C703 0.930 . S
H696 C706 0.930 . S
H697 C707 0.930 . S
C698 H692 0.930 . S
C698 C699 1.355 . S
C698 C700 1.415 . S
C699 C698 1.355 . S
C699 C701 1.419 . S
C700 C698 1.415 . S
C700 C705 1.425 . S
C700 C707 1.409 . S
C701 H693 0.930 . S
C701 C699 1.419 . S
C701 C702 1.362 . S
C702 H694 0.930 . S
C702 C701 1.362 . S
C702 C705 1.409 . S
C703 H695 0.930 . S
C703 C704 1.355 . S
C703 C705 1.415 . S
C704 C703 1.355 . S
C704 C706 1.419 . S
C705 C700 1.425 . S
C705 C702 1.409 . S
C705 C703 1.415 . S
C706 H696 0.930 . S
C706 C704 1.419 . S
C706 C707 1.362 . S
C707 H697 0.930 . S
C707 C700 1.409 . S
C707 C706 1.362 . S
H708 C714 0.930 . S
H709 C717 0.930 . S
H710 C718 0.930 . S
H711 C719 0.930 . S
H712 C722 0.930 . S
H713 C723 0.930 . S
C714 H708 0.930 . S
C714 C715 1.355 . S
C714 C716 1.415 . S
C715 C714 1.355 . S
C715 C717 1.419 . S
C716 C714 1.415 . S
C716 C721 1.425 . S
C716 C723 1.409 . S
C717 H709 0.930 . S
C717 C715 1.419 . S
C717 C718 1.362 . S
C718 H710 0.930 . S
C718 C717 1.362 . S
C718 C721 1.409 . S
C719 H711 0.930 . S
C719 C720 1.355 . S
C719 C721 1.415 . S
C720 C719 1.355 . S
C720 C722 1.419 . S
C721 C716 1.425 . S
C721 C718 1.409 . S
C721 C719 1.415 . S
C722 H712 0.930 . S
C722 C720 1.419 . S
C722 C723 1.362 . S
C723 H713 0.930 . S
C723 C716 1.409 . S
C723 C722 1.362 . S
H724 C730 0.930 . S
H725 C733 0.930 . S
H726 C734 0.930 . S
H727 C735 0.930 . S
H728 C738 0.930 . S
H729 C739 0.930 . S
C730 H724 0.930 . S
C730 C731 1.355 . S
C730 C732 1.415 . S
C731 C730 1.355 . S
C731 C733 1.419 . S
C732 C730 1.415 . S
C732 C737 1.425 . S
C732 C739 1.409 . S
C733 H725 0.930 . S
C733 C731 1.419 . S
C733 C734 1.362 . S
C734 H726 0.930 . S
C734 C733 1.362 . S
C734 C737 1.409 . S
C735 H727 0.930 . S
C735 C736 1.355 . S
C735 C737 1.415 . S
C736 C735 1.355 . S
C736 C738 1.419 . S
C737 C732 1.425 . S
C737 C734 1.409 . S
C737 C735 1.415 . S
C738 H728 0.930 . S
C738 C736 1.419 . S
C738 C739 1.362 . S
C739 H729 0.930 . S
C739 C732 1.409 . S
C739 C738 1.362 . S
H740 C746 0.930 . S
H741 C749 0.930 . S
H742 C750 0.930 . S
H743 C751 0.930 . S
H744 C754 0.930 . S
H745 C755 0.930 . S
C746 H740 0.930 . S
C746 C747 1.355 . S
C746 C748 1.415 . S
C747 C746 1.355 . S
C747 C749 1.419 . S
C748 C746 1.415 . S
C748 C753 1.425 . S
C748 C755 1.409 . S
C749 H741 0.930 . S
C749 C747 1.419 . S
C749 C750 1.362 . S
C750 H742 0.930 . S
C750 C749 1.362 . S
C750 C753 1.409 . S
C751 H743 0.930 . S
C751 C752 1.355 . S
C751 C753 1.415 . S
C752 C751 1.355 . S
C752 C754 1.419 . S
C753 C748 1.425 . S
C753 C750 1.409 . S
C753 C751 1.415 . S
C754 H744 0.930 . S
C754 C752 1.419 . S
C754 C755 1.362 . S
C755 H745 0.930 . S
C755 C748 1.409 . S
C755 C754 1.362 . S
H756 C762 0.930 1_556 S
H757 C765 0.930 . S
H758 C766 0.930 1_655 S
H759 C767 0.930 1_554 S
H760 C770 0.930 . S
H761 C771 0.930 1_455 S
C762 H756 0.930 1_554 S
C762 C763 1.355 . S
C762 C764 1.415 1_554 S
C763 C762 1.355 . S
C763 C765 1.419 . S
C764 C762 1.415 1_556 S
C764 C769 1.425 1_456 S
C764 C771 1.409 1_455 S
C765 H757 0.930 . S
C765 C763 1.419 . S
C765 C766 1.362 . S
C766 H758 0.930 1_455 S
C766 C765 1.362 . S
C766 C769 1.409 1_455 S
C767 H759 0.930 1_556 S
C767 C768 1.355 . S
C767 C769 1.415 1_556 S
C768 C767 1.355 . S
C768 C770 1.419 . S
C769 C764 1.425 1_654 S
C769 C766 1.409 1_655 S
C769 C767 1.415 1_554 S
C770 H760 0.930 . S
C770 C768 1.419 . S
C770 C771 1.362 . S
C771 H761 0.930 1_655 S
C771 C764 1.409 1_655 S
C771 C770 1.362 . S
H772 C778 0.930 . S
H773 C781 0.930 . S
H774 C782 0.930 . S
H775 C783 0.930 . S
H776 C786 0.930 . S
H777 C787 0.930 . S
C778 H772 0.930 . S
C778 C779 1.355 . S
C778 C780 1.415 . S
C779 C778 1.355 . S
C779 C781 1.419 1_556 S
C780 C778 1.415 . S
C780 C785 1.425 1_556 S
C780 C787 1.409 . S
C781 H773 0.930 . S
C781 C779 1.419 1_554 S
C781 C782 1.362 . S
C782 H774 0.930 . S
C782 C781 1.362 . S
C782 C785 1.409 . S
C783 H775 0.930 . S
C783 C784 1.355 . S
C783 C785 1.415 . S
C784 C783 1.355 . S
C784 C786 1.419 1_554 S
C785 C780 1.425 1_554 S
C785 C782 1.409 . S
C785 C783 1.415 . S
C786 H776 0.930 . S
C786 C784 1.419 1_556 S
C786 C787 1.362 . S
C787 H777 0.930 . S
C787 C780 1.409 . S
C787 C786 1.362 . S
H788 C794 0.930 . S
H789 C797 0.930 . S
H790 C798 0.956 . S
H791 C799 0.930 . S
H792 C802 0.930 . S
H793 C803 0.957 . S
C794 H788 0.930 . S
C794 C795 1.355 1_556 S
C794 C796 1.415 . S
C795 C794 1.355 1_554 S
C795 C797 1.419 . S
C796 C794 1.415 . S
C796 C801 1.425 1_566 S
C796 C803 1.418 . S
C797 H789 0.930 . S
C797 C795 1.419 . S
C797 C798 1.329 1_565 S
C798 H790 0.956 . S
C798 C797 1.329 1_545 S
C798 C801 1.418 . S
C799 H791 0.930 . S
C799 C800 1.355 1_554 S
C799 C801 1.415 . S
C800 C799 1.355 1_556 S
C800 C802 1.419 . S
C801 C796 1.425 1_544 S
C801 C798 1.418 . S
C801 C799 1.415 . S
C802 H792 0.930 . S
C802 C800 1.419 . S
C802 C803 1.328 1_545 S
C803 H793 0.957 . S
C803 C796 1.418 . S
C803 C802 1.328 1_565 S
H804 C810 0.930 . S
H805 C813 0.930 . S
H806 C814 0.930 1_554 S
H807 C815 0.930 . S
H808 C818 0.930 . S
H809 C819 0.930 1_556 S
C810 H804 0.930 . S
C810 C811 1.355 . S
C810 C812 1.415 . S
C811 C810 1.355 . S
C811 C813 1.419 . S
C812 C810 1.415 . S
C812 C817 1.425 1_656 S
C812 C819 1.409 1_656 S
C813 H805 0.930 . S
C813 C811 1.419 . S
C813 C814 1.362 . S
C814 H806 0.930 1_556 S
C814 C813 1.362 . S
C814 C817 1.409 1_656 S
C815 H807 0.930 . S
C815 C816 1.355 . S
C815 C817 1.415 . S
C816 C815 1.355 . S
C816 C818 1.419 . S
C817 C812 1.425 1_454 S
C817 C814 1.409 1_454 S
C817 C815 1.415 . S
C818 H808 0.930 . S
C818 C816 1.419 . S
C818 C819 1.362 . S
C819 H809 0.930 1_554 S
C819 C812 1.409 1_454 S
C819 C818 1.362 . S
H820 C826 0.930 . S
H821 C829 0.930 . S
H822 C830 0.930 . S
H823 C831 0.930 . S
H824 C834 0.930 . S
H825 C835 0.930 . S
C826 H820 0.930 . S
C826 C827 1.355 . S
C826 C828 1.415 . S
C827 C826 1.355 . S
C827 C829 1.419 1_556 S
C828 C826 1.415 . S
C828 C833 1.425 1_556 S
C828 C835 1.409 . S
C829 H821 0.930 . S
C829 C827 1.419 1_554 S
C829 C830 1.362 . S
C830 H822 0.930 . S
C830 C829 1.362 . S
C830 C833 1.409 . S
C831 H823 0.930 . S
C831 C832 1.355 . S
C831 C833 1.415 . S
C832 C831 1.355 . S
C832 C834 1.419 1_554 S
C833 C828 1.425 1_554 S
C833 C830 1.409 . S
C833 C831 1.415 . S
C834 H824 0.930 . S
C834 C832 1.419 1_556 S
C834 C835 1.362 . S
C835 H825 0.930 . S
C835 C828 1.409 . S
C835 C834 1.362 . S
H836 C842 0.930 . S
H837 C845 0.930 . S
H838 C846 0.930 . S
H839 C847 0.930 . S
H840 C850 0.930 . S
H841 C851 0.930 . S
C842 H836 0.930 . S
C842 C843 1.355 . S
C842 C844 1.402 1_545 S
C843 C842 1.355 . S
C843 C845 1.419 1_556 S
C844 C842 1.402 1_565 S
C844 C849 1.432 1_566 S
C844 C851 1.419 . S
C845 H837 0.930 . S
C845 C843 1.419 1_554 S
C845 C846 1.362 . S
C846 H838 0.930 . S
C846 C845 1.362 . S
C846 C849 1.420 . S
C847 H839 0.930 . S
C847 C848 1.355 . S
C847 C849 1.401 1_565 S
C848 C847 1.355 . S
C848 C850 1.419 1_554 S
C849 C844 1.432 1_544 S
C849 C846 1.420 . S
C849 C847 1.401 1_545 S
C850 H840 0.930 . S
C850 C848 1.419 1_556 S
C850 C851 1.362 . S
C851 H841 0.930 . S
C851 C844 1.419 . S
C851 C850 1.362 . S
H852 C858 0.930 . S
H853 C861 0.930 . S
H854 C862 0.930 . S
H855 C863 0.930 . S
H856 C866 0.930 . S
H857 C867 0.930 . S
C858 H852 0.930 . S
C858 C859 1.355 . S
C858 C860 1.415 . S
C859 C858 1.355 . S
C859 C861 1.419 . S
C860 C858 1.415 . S
C860 C865 1.425 . S
C860 C867 1.409 . S
C861 H853 0.930 . S
C861 C859 1.419 . S
C861 C862 1.362 . S
C862 H854 0.930 . S
C862 C861 1.362 . S
C862 C865 1.409 . S
C863 H855 0.930 . S
C863 C864 1.355 . S
C863 C865 1.415 . S
C864 C863 1.355 . S
C864 C866 1.419 . S
C865 C860 1.425 . S
C865 C862 1.409 . S
C865 C863 1.415 . S
C866 H856 0.930 . S
C866 C864 1.419 . S
C866 C867 1.362 . S
C867 H857 0.930 . S
C867 C860 1.409 . S
C867 C866 1.362 . S
H868 C874 0.930 . S
H869 C877 0.930 . S
H870 C878 0.930 . S
H871 C879 0.930 . S
H872 C882 0.930 . S
H873 C883 0.930 . S
C874 H868 0.930 . S
C874 C875 1.355 . S
C874 C876 1.415 . S
C875 C874 1.355 . S
C875 C877 1.419 . S
C876 C874 1.415 . S
C876 C881 1.425 . S
C876 C883 1.409 . S
C877 H869 0.930 . S
C877 C875 1.419 . S
C877 C878 1.362 . S
C878 H870 0.930 . S
C878 C877 1.362 . S
C878 C881 1.409 . S
C879 H871 0.930 . S
C879 C880 1.355 . S
C879 C881 1.415 . S
C880 C879 1.355 . S
C880 C882 1.419 . S
C881 C876 1.425 . S
C881 C878 1.409 . S
C881 C879 1.415 . S
C882 H872 0.930 . S
C882 C880 1.419 . S
C882 C883 1.362 . S
C883 H873 0.930 . S
C883 C876 1.409 . S
C883 C882 1.362 . S
H884 C890 0.930 . S
H885 C893 0.930 . S
H886 C894 0.930 . S
H887 C895 0.930 . S
H888 C898 0.930 . S
H889 C899 0.930 . S
C890 H884 0.930 . S
C890 C891 1.355 . S
C890 C892 1.415 . S
C891 C890 1.355 . S
C891 C893 1.419 . S
C892 C890 1.415 . S
C892 C897 1.425 . S
C892 C899 1.409 . S
C893 H885 0.930 . S
C893 C891 1.419 . S
C893 C894 1.362 . S
C894 H886 0.930 . S
C894 C893 1.362 . S
C894 C897 1.409 . S
C895 H887 0.930 . S
C895 C896 1.355 . S
C895 C897 1.415 . S
C896 C895 1.355 . S
C896 C898 1.419 . S
C897 C892 1.425 . S
C897 C894 1.409 . S
C897 C895 1.415 . S
C898 H888 0.930 . S
C898 C896 1.419 . S
C898 C899 1.362 . S
C899 H889 0.930 . S
C899 C892 1.409 . S
C899 C898 1.362 . S
H900 C906 0.930 . S
H901 C909 0.930 . S
H902 C910 0.930 . S
H903 C911 0.930 . S
H904 C914 0.930 . S
H905 C915 0.930 . S
C906 H900 0.930 . S
C906 C907 1.355 . S
C906 C908 1.415 . S
C907 C906 1.355 . S
C907 C909 1.419 . S
C908 C906 1.415 . S
C908 C913 1.425 . S
C908 C915 1.409 . S
C909 H901 0.930 . S
C909 C907 1.419 . S
C909 C910 1.362 . S
C910 H902 0.930 . S
C910 C909 1.362 . S
C910 C913 1.409 . S
C911 H903 0.930 . S
C911 C912 1.355 . S
C911 C913 1.415 . S
C912 C911 1.355 . S
C912 C914 1.419 . S
C913 C908 1.425 . S
C913 C910 1.409 . S
C913 C911 1.415 . S
C914 H904 0.930 . S
C914 C912 1.419 . S
C914 C915 1.362 . S
C915 H905 0.930 . S
C915 C908 1.409 . S
C915 C914 1.362 . S
H916 C922 0.930 . S
H917 C925 0.930 . S
H918 C926 0.930 . S
H919 C927 0.930 . S
H920 C930 0.930 . S
H921 C931 0.930 . S
C922 H916 0.930 . S
C922 C923 1.355 . S
C922 C924 1.415 . S
C923 C922 1.355 . S
C923 C925 1.419 . S
C924 C922 1.415 . S
C924 C929 1.425 . S
C924 C931 1.409 . S
C925 H917 0.930 . S
C925 C923 1.419 . S
C925 C926 1.362 . S
C926 H918 0.930 . S
C926 C925 1.362 . S
C926 C929 1.409 . S
C927 H919 0.930 . S
C927 C928 1.355 . S
C927 C929 1.415 . S
C928 C927 1.355 . S
C928 C930 1.419 . S
C929 C924 1.425 . S
C929 C926 1.409 . S
C929 C927 1.415 . S
C930 H920 0.930 . S
C930 C928 1.419 . S
C930 C931 1.362 . S
C931 H921 0.930 . S
C931 C924 1.409 . S
C931 C930 1.362 . S
H932 C938 0.930 . S
H933 C941 0.930 . S
H934 C942 0.930 . S
H935 C943 0.930 . S
H936 C946 0.930 . S
H937 C947 0.930 . S
C938 H932 0.930 . S
C938 C939 1.355 . S
C938 C940 1.415 . S
C939 C938 1.355 . S
C939 C941 1.419 . S
C940 C938 1.415 . S
C940 C945 1.425 . S
C940 C947 1.409 . S
C941 H933 0.930 . S
C941 C939 1.419 . S
C941 C942 1.362 . S
C942 H934 0.930 . S
C942 C941 1.362 . S
C942 C945 1.409 . S
C943 H935 0.930 . S
C943 C944 1.355 . S
C943 C945 1.415 . S
C944 C943 1.355 . S
C944 C946 1.419 . S
C945 C940 1.425 . S
C945 C942 1.409 . S
C945 C943 1.415 . S
C946 H936 0.930 . S
C946 C944 1.419 . S
C946 C947 1.362 . S
C947 H937 0.930 . S
C947 C940 1.409 . S
C947 C946 1.362 . S
H948 C954 0.930 . S
H949 C957 0.930 . S
H950 C958 0.930 . S
H951 C959 0.930 . S
H952 C962 0.930 . S
H953 C963 0.930 . S
C954 H948 0.930 . S
C954 C955 1.355 . S
C954 C956 1.415 . S
C955 C954 1.355 . S
C955 C957 1.419 . S
C956 C954 1.415 . S
C956 C961 1.425 . S
C956 C963 1.409 . S
C957 H949 0.930 . S
C957 C955 1.419 . S
C957 C958 1.362 . S
C958 H950 0.930 . S
C958 C957 1.362 . S
C958 C961 1.409 . S
C959 H951 0.930 . S
C959 C960 1.355 . S
C959 C961 1.415 . S
C960 C959 1.355 . S
C960 C962 1.419 . S
C961 C956 1.425 . S
C961 C958 1.409 . S
C961 C959 1.415 . S
C962 H952 0.930 . S
C962 C960 1.419 . S
C962 C963 1.362 . S
C963 H953 0.930 . S
C963 C956 1.409 . S
C963 C962 1.362 . S
H964 C970 0.930 . S
H965 C973 0.930 . S
H966 C974 0.930 . S
H967 C975 0.930 . S
H968 C978 0.930 . S
H969 C979 0.930 . S
C970 H964 0.930 . S
C970 C971 1.355 . S
C970 C972 1.415 . S
C971 C970 1.355 . S
C971 C973 1.419 . S
C972 C970 1.415 . S
C972 C977 1.425 . S
C972 C979 1.409 . S
C973 H965 0.930 . S
C973 C971 1.419 . S
C973 C974 1.362 . S
C974 H966 0.930 . S
C974 C973 1.362 . S
C974 C977 1.409 . S
C975 H967 0.930 . S
C975 C976 1.355 . S
C975 C977 1.415 . S
C976 C975 1.355 . S
C976 C978 1.419 . S
C977 C972 1.425 . S
C977 C974 1.409 . S
C977 C975 1.415 . S
C978 H968 0.930 . S
C978 C976 1.419 . S
C978 C979 1.362 . S
C979 H969 0.930 . S
C979 C972 1.409 . S
C979 C978 1.362 . S
H980 C986 0.930 . S
H981 C989 0.930 . S
H982 C990 0.930 . S
H983 C991 0.930 . S
H984 C994 0.930 . S
H985 C995 0.930 . S
C986 H980 0.930 . S
C986 C987 1.355 . S
C986 C988 1.415 . S
C987 C986 1.355 . S
C987 C989 1.419 . S
C988 C986 1.415 . S
C988 C993 1.425 . S
C988 C995 1.409 . S
C989 H981 0.930 . S
C989 C987 1.419 . S
C989 C990 1.362 . S
C990 H982 0.930 . S
C990 C989 1.362 . S
C990 C993 1.409 . S
C991 H983 0.930 . S
C991 C992 1.355 . S
C991 C993 1.415 . S
C992 C991 1.355 . S
C992 C994 1.419 . S
C993 C988 1.425 . S
C993 C990 1.409 . S
C993 C991 1.415 . S
C994 H984 0.930 . S
C994 C992 1.419 . S
C994 C995 1.362 . S
C995 H985 0.930 . S
C995 C988 1.409 . S
C995 C994 1.362 . S
H996 C1002 0.930 . S
H997 C1005 0.930 . S
H998 C1006 0.930 . S
H999 C1007 0.930 . S
H1000 C1010 0.930 . S
H1001 C1011 0.930 . S
C1002 H996 0.930 . S
C1002 C1003 1.355 . S
C1002 C1004 1.415 . S
C1003 C1002 1.355 . S
C1003 C1005 1.419 . S
C1004 C1002 1.415 . S
C1004 C1009 1.425 . S
C1004 C1011 1.409 . S
C1005 H997 0.930 . S
C1005 C1003 1.419 . S
C1005 C1006 1.362 . S
C1006 H998 0.930 . S
C1006 C1005 1.362 . S
C1006 C1009 1.409 . S
C1007 H999 0.930 . S
C1007 C1008 1.355 . S
C1007 C1009 1.415 . S
C1008 C1007 1.355 . S
C1008 C1010 1.419 . S
C1009 C1004 1.425 . S
C1009 C1006 1.409 . S
C1009 C1007 1.415 . S
C1010 H1000 0.930 . S
C1010 C1008 1.419 . S
C1010 C1011 1.362 . S
C1011 H1001 0.930 . S
C1011 C1004 1.409 . S
C1011 C1010 1.362 . S
H1012 C1018 0.930 . S
H1013 C1021 0.930 . S
H1014 C1022 0.930 . S
H1015 C1023 0.930 . S
H1016 C1026 0.930 . S
H1017 C1027 0.930 . S
C1018 H1012 0.930 . S
C1018 C1019 1.355 . S
C1018 C1020 1.415 . S
C1019 C1018 1.355 . S
C1019 C1021 1.419 . S
C1020 C1018 1.415 . S
C1020 C1025 1.425 . S
C1020 C1027 1.409 . S
C1021 H1013 0.930 . S
C1021 C1019 1.419 . S
C1021 C1022 1.362 . S
C1022 H1014 0.930 . S
C1022 C1021 1.362 . S
C1022 C1025 1.409 . S
C1023 H1015 0.930 . S
C1023 C1024 1.355 . S
C1023 C1025 1.415 . S
C1024 C1023 1.355 . S
C1024 C1026 1.419 . S
C1025 C1020 1.425 . S
C1025 C1022 1.409 . S
C1025 C1023 1.415 . S
C1026 H1016 0.930 . S
C1026 C1024 1.419 . S
C1026 C1027 1.362 . S
C1027 H1017 0.930 . S
C1027 C1020 1.409 . S
C1027 C1026 1.362 . S
H1028 C1034 0.930 . S
H1029 C1037 0.930 . S
H1030 C1038 0.930 . S
H1031 C1039 0.930 . S
H1032 C1042 0.930 . S
H1033 C1043 0.930 . S
C1034 H1028 0.930 . S
C1034 C1035 1.355 . S
C1034 C1036 1.415 . S
C1035 C1034 1.355 . S
C1035 C1037 1.419 . S
C1036 C1034 1.415 . S
C1036 C1041 1.425 . S
C1036 C1043 1.409 . S
C1037 H1029 0.930 . S
C1037 C1035 1.419 . S
C1037 C1038 1.362 . S
C1038 H1030 0.930 . S
C1038 C1037 1.362 . S
C1038 C1041 1.409 . S
C1039 H1031 0.930 . S
C1039 C1040 1.355 . S
C1039 C1041 1.415 . S
C1040 C1039 1.355 . S
C1040 C1042 1.419 . S
C1041 C1036 1.425 . S
C1041 C1038 1.409 . S
C1041 C1039 1.415 . S
C1042 H1032 0.930 . S
C1042 C1040 1.419 . S
C1042 C1043 1.362 . S
C1043 H1033 0.930 . S
C1043 C1036 1.409 . S
C1043 C1042 1.362 . S
H1044 C1050 0.930 . S
H1045 C1053 0.930 . S
H1046 C1054 0.930 . S
H1047 C1055 0.930 . S
H1048 C1058 0.930 . S
H1049 C1059 0.930 . S
C1050 H1044 0.930 . S
C1050 C1051 1.355 . S
C1050 C1052 1.415 . S
C1051 C1050 1.355 . S
C1051 C1053 1.419 . S
C1052 C1050 1.415 . S
C1052 C1057 1.425 . S
C1052 C1059 1.409 . S
C1053 H1045 0.930 . S
C1053 C1051 1.419 . S
C1053 C1054 1.362 . S
C1054 H1046 0.930 . S
C1054 C1053 1.362 . S
C1054 C1057 1.409 . S
C1055 H1047 0.930 . S
C1055 C1056 1.355 . S
C1055 C1057 1.415 . S
C1056 C1055 1.355 . S
C1056 C1058 1.419 . S
C1057 C1052 1.425 . S
C1057 C1054 1.409 . S
C1057 C1055 1.415 . S
C1058 H1048 0.930 . S
C1058 C1056 1.419 . S
C1058 C1059 1.362 . S
C1059 H1049 0.930 . S
C1059 C1052 1.409 . S
C1059 C1058 1.362 . S
H1060 C1066 0.930 . S
H1061 C1069 0.930 . S
H1062 C1070 0.930 . S
H1063 C1071 0.930 . S
H1064 C1074 0.930 . S
H1065 C1075 0.930 . S
C1066 H1060 0.930 . S
C1066 C1067 1.355 . S
C1066 C1068 1.415 . S
C1067 C1066 1.355 . S
C1067 C1069 1.419 . S
C1068 C1066 1.415 . S
C1068 C1073 1.425 . S
C1068 C1075 1.409 . S
C1069 H1061 0.930 . S
C1069 C1067 1.419 . S
C1069 C1070 1.362 . S
C1070 H1062 0.930 . S
C1070 C1069 1.362 . S
C1070 C1073 1.409 . S
C1071 H1063 0.930 . S
C1071 C1072 1.355 . S
C1071 C1073 1.415 . S
C1072 C1071 1.355 . S
C1072 C1074 1.419 . S
C1073 C1068 1.425 . S
C1073 C1070 1.409 . S
C1073 C1071 1.415 . S
C1074 H1064 0.930 . S
C1074 C1072 1.419 . S
C1074 C1075 1.362 . S
C1075 H1065 0.930 . S
C1075 C1068 1.409 . S
C1075 C1074 1.362 . S
H1076 C1082 0.930 . S
H1077 C1085 0.930 . S
H1078 C1086 0.930 . S
H1079 C1087 0.930 . S
H1080 C1090 0.930 . S
H1081 C1091 0.930 . S
C1082 H1076 0.930 . S
C1082 C1083 1.355 . S
C1082 C1084 1.415 . S
C1083 C1082 1.355 . S
C1083 C1085 1.419 . S
C1084 C1082 1.415 . S
C1084 C1089 1.425 . S
C1084 C1091 1.409 . S
C1085 H1077 0.930 . S
C1085 C1083 1.419 . S
C1085 C1086 1.362 . S
C1086 H1078 0.930 . S
C1086 C1085 1.362 . S
C1086 C1089 1.409 . S
C1087 H1079 0.930 . S
C1087 C1088 1.355 . S
C1087 C1089 1.415 . S
C1088 C1087 1.355 . S
C1088 C1090 1.419 . S
C1089 C1084 1.425 . S
C1089 C1086 1.409 . S
C1089 C1087 1.415 . S
C1090 H1080 0.930 . S
C1090 C1088 1.419 . S
C1090 C1091 1.362 . S
C1091 H1081 0.930 . S
C1091 C1084 1.409 . S
C1091 C1090 1.362 . S
H1092 C1098 0.930 . S
H1093 C1101 0.930 . S
H1094 C1102 0.930 . S
H1095 C1103 0.930 . S
H1096 C1106 0.930 . S
H1097 C1107 0.930 . S
C1098 H1092 0.930 . S
C1098 C1099 1.355 . S
C1098 C1100 1.415 . S
C1099 C1098 1.355 . S
C1099 C1101 1.419 . S
C1100 C1098 1.415 . S
C1100 C1105 1.425 . S
C1100 C1107 1.409 . S
C1101 H1093 0.930 . S
C1101 C1099 1.419 . S
C1101 C1102 1.362 . S
C1102 H1094 0.930 . S
C1102 C1101 1.362 . S
C1102 C1105 1.409 . S
C1103 H1095 0.930 . S
C1103 C1104 1.355 . S
C1103 C1105 1.415 . S
C1104 C1103 1.355 . S
C1104 C1106 1.419 . S
C1105 C1100 1.425 . S
C1105 C1102 1.409 . S
C1105 C1103 1.415 . S
C1106 H1096 0.930 . S
C1106 C1104 1.419 . S
C1106 C1107 1.362 . S
C1107 H1097 0.930 . S
C1107 C1100 1.409 . S
C1107 C1106 1.362 . S
H1108 C1114 0.930 . S
H1109 C1117 0.930 . S
H1110 C1118 0.930 . S
H1111 C1119 0.930 . S
H1112 C1122 0.930 . S
H1113 C1123 0.930 . S
C1114 H1108 0.930 . S
C1114 C1115 1.355 . S
C1114 C1116 1.415 . S
C1115 C1114 1.355 . S
C1115 C1117 1.419 . S
C1116 C1114 1.415 . S
C1116 C1121 1.425 . S
C1116 C1123 1.409 . S
C1117 H1109 0.930 . S
C1117 C1115 1.419 . S
C1117 C1118 1.362 . S
C1118 H1110 0.930 . S
C1118 C1117 1.362 . S
C1118 C1121 1.409 . S
C1119 H1111 0.930 . S
C1119 C1120 1.355 . S
C1119 C1121 1.415 . S
C1120 C1119 1.355 . S
C1120 C1122 1.419 . S
C1121 C1116 1.425 . S
C1121 C1118 1.409 . S
C1121 C1119 1.415 . S
C1122 H1112 0.930 . S
C1122 C1120 1.419 . S
C1122 C1123 1.362 . S
C1123 H1113 0.930 . S
C1123 C1116 1.409 . S
C1123 C1122 1.362 . S
H1124 C1130 0.930 . S
H1125 C1133 0.930 . S
H1126 C1134 0.930 . S
H1127 C1135 0.930 . S
H1128 C1138 0.930 . S
H1129 C1139 0.930 . S
C1130 H1124 0.930 . S
C1130 C1131 1.355 . S
C1130 C1132 1.415 . S
C1131 C1130 1.355 . S
C1131 C1133 1.419 . S
C1132 C1130 1.415 . S
C1132 C1137 1.425 . S
C1132 C1139 1.409 . S
C1133 H1125 0.930 . S
C1133 C1131 1.419 . S
C1133 C1134 1.362 . S
C1134 H1126 0.930 . S
C1134 C1133 1.362 . S
C1134 C1137 1.409 . S
C1135 H1127 0.930 . S
C1135 C1136 1.355 . S
C1135 C1137 1.415 . S
C1136 C1135 1.355 . S
C1136 C1138 1.419 . S
C1137 C1132 1.425 . S
C1137 C1134 1.409 . S
C1137 C1135 1.415 . S
C1138 H1128 0.930 . S
C1138 C1136 1.419 . S
C1138 C1139 1.362 . S
C1139 H1129 0.930 . S
C1139 C1132 1.409 . S
C1139 C1138 1.362 . S
H1140 C1146 0.930 . S
H1141 C1149 0.930 . S
H1142 C1150 0.930 . S
H1143 C1151 0.930 . S
H1144 C1154 0.930 . S
H1145 C1155 0.930 . S
C1146 H1140 0.930 . S
C1146 C1147 1.355 . S
C1146 C1148 1.415 . S
C1147 C1146 1.355 . S
C1147 C1149 1.419 . S
C1148 C1146 1.415 . S
C1148 C1153 1.425 . S
C1148 C1155 1.409 . S
C1149 H1141 0.930 . S
C1149 C1147 1.419 . S
C1149 C1150 1.362 . S
C1150 H1142 0.930 . S
C1150 C1149 1.362 . S
C1150 C1153 1.409 . S
C1151 H1143 0.930 . S
C1151 C1152 1.355 . S
C1151 C1153 1.415 . S
C1152 C1151 1.355 . S
C1152 C1154 1.419 . S
C1153 C1148 1.425 . S
C1153 C1150 1.409 . S
C1153 C1151 1.415 . S
C1154 H1144 0.930 . S
C1154 C1152 1.419 . S
C1154 C1155 1.362 . S
C1155 H1145 0.930 . S
C1155 C1148 1.409 . S
C1155 C1154 1.362 . S
H1156 C1162 0.930 . S
H1157 C1165 0.930 . S
H1158 C1166 0.930 . S
H1159 C1167 0.930 . S
H1160 C1170 0.930 . S
H1161 C1171 0.930 . S
C1162 H1156 0.930 . S
C1162 C1163 1.355 . S
C1162 C1164 1.415 . S
C1163 C1162 1.355 . S
C1163 C1165 1.419 . S
C1164 C1162 1.415 . S
C1164 C1169 1.425 . S
C1164 C1171 1.409 . S
C1165 H1157 0.930 . S
C1165 C1163 1.419 . S
C1165 C1166 1.362 . S
C1166 H1158 0.930 . S
C1166 C1165 1.362 . S
C1166 C1169 1.409 . S
C1167 H1159 0.930 . S
C1167 C1168 1.355 . S
C1167 C1169 1.415 . S
C1168 C1167 1.355 . S
C1168 C1170 1.419 . S
C1169 C1164 1.425 . S
C1169 C1166 1.409 . S
C1169 C1167 1.415 . S
C1170 H1160 0.930 . S
C1170 C1168 1.419 . S
C1170 C1171 1.362 . S
C1171 H1161 0.930 . S
C1171 C1164 1.409 . S
C1171 C1170 1.362 . S
H1172 C1178 0.930 . S
H1173 C1181 0.930 . S
H1174 C1182 0.930 . S
H1175 C1183 0.930 . S
H1176 C1186 0.930 . S
H1177 C1187 0.930 . S
C1178 H1172 0.930 . S
C1178 C1179 1.355 . S
C1178 C1180 1.415 . S
C1179 C1178 1.355 . S
C1179 C1181 1.419 . S
C1180 C1178 1.415 . S
C1180 C1185 1.425 . S
C1180 C1187 1.409 . S
C1181 H1173 0.930 . S
C1181 C1179 1.419 . S
C1181 C1182 1.362 . S
C1182 H1174 0.930 . S
C1182 C1181 1.362 . S
C1182 C1185 1.409 . S
C1183 H1175 0.930 . S
C1183 C1184 1.355 . S
C1183 C1185 1.415 . S
C1184 C1183 1.355 . S
C1184 C1186 1.419 . S
C1185 C1180 1.425 . S
C1185 C1182 1.409 . S
C1185 C1183 1.415 . S
C1186 H1176 0.930 . S
C1186 C1184 1.419 . S
C1186 C1187 1.362 . S
C1187 H1177 0.930 . S
C1187 C1180 1.409 . S
C1187 C1186 1.362 . S
H1188 C1194 0.930 . S
H1189 C1197 0.930 . S
H1190 C1198 0.930 . S
H1191 C1199 0.930 . S
H1192 C1202 0.930 . S
H1193 C1203 0.930 . S
C1194 H1188 0.930 . S
C1194 C1195 1.355 . S
C1194 C1196 1.415 . S
C1195 C1194 1.355 . S
C1195 C1197 1.419 . S
C1196 C1194 1.415 . S
C1196 C1201 1.425 . S
C1196 C1203 1.409 . S
C1197 H1189 0.930 . S
C1197 C1195 1.419 . S
C1197 C1198 1.362 . S
C1198 H1190 0.930 . S
C1198 C1197 1.362 . S
C1198 C1201 1.409 . S
C1199 H1191 0.930 . S
C1199 C1200 1.355 . S
C1199 C1201 1.415 . S
C1200 C1199 1.355 . S
C1200 C1202 1.419 . S
C1201 C1196 1.425 . S
C1201 C1198 1.409 . S
C1201 C1199 1.415 . S
C1202 H1192 0.930 . S
C1202 C1200 1.419 . S
C1202 C1203 1.362 . S
C1203 H1193 0.930 . S
C1203 C1196 1.409 . S
C1203 C1202 1.362 . S
H1204 C1210 0.930 . S
H1205 C1213 0.930 . S
H1206 C1214 0.930 . S
H1207 C1215 0.930 . S
H1208 C1218 0.930 . S
H1209 C1219 0.930 . S
C1210 H1204 0.930 . S
C1210 C1211 1.355 . S
C1210 C1212 1.415 . S
C1211 C1210 1.355 . S
C1211 C1213 1.419 . S
C1212 C1210 1.415 . S
C1212 C1217 1.425 . S
C1212 C1219 1.409 . S
C1213 H1205 0.930 . S
C1213 C1211 1.419 . S
C1213 C1214 1.362 . S
C1214 H1206 0.930 . S
C1214 C1213 1.362 . S
C1214 C1217 1.409 . S
C1215 H1207 0.930 . S
C1215 C1216 1.355 . S
C1215 C1217 1.415 . S
C1216 C1215 1.355 . S
C1216 C1218 1.419 . S
C1217 C1212 1.425 . S
C1217 C1214 1.409 . S
C1217 C1215 1.415 . S
C1218 H1208 0.930 . S
C1218 C1216 1.419 . S
C1218 C1219 1.362 . S
C1219 H1209 0.930 . S
C1219 C1212 1.409 . S
C1219 C1218 1.362 . S
H1220 C1226 0.930 . S
H1221 C1229 0.930 . S
H1222 C1230 0.930 . S
H1223 C1231 0.930 . S
H1224 C1234 0.930 . S
H1225 C1235 0.930 . S
C1226 H1220 0.930 . S
C1226 C1227 1.355 . S
C1226 C1228 1.415 . S
C1227 C1226 1.355 . S
C1227 C1229 1.419 . S
C1228 C1226 1.415 . S
C1228 C1233 1.425 . S
C1228 C1235 1.409 . S
C1229 H1221 0.930 . S
C1229 C1227 1.419 . S
C1229 C1230 1.362 . S
C1230 H1222 0.930 . S
C1230 C1229 1.362 . S
C1230 C1233 1.409 . S
C1231 H1223 0.930 . S
C1231 C1232 1.355 . S
C1231 C1233 1.415 . S
C1232 C1231 1.355 . S
C1232 C1234 1.419 . S
C1233 C1228 1.425 . S
C1233 C1230 1.409 . S
C1233 C1231 1.415 . S
C1234 H1224 0.930 . S
C1234 C1232 1.419 . S
C1234 C1235 1.362 . S
C1235 H1225 0.930 . S
C1235 C1228 1.409 . S
C1235 C1234 1.362 . S
H1236 C1242 0.930 . S
H1237 C1245 0.930 . S
H1238 C1246 0.930 . S
H1239 C1247 0.930 . S
H1240 C1250 0.930 . S
H1241 C1251 0.930 . S
C1242 H1236 0.930 . S
C1242 C1243 1.355 . S
C1242 C1244 1.415 1_455 S
C1243 C1242 1.355 . S
C1243 C1245 1.419 . S
C1244 C1242 1.415 1_655 S
C1244 C1249 1.425 1_655 S
C1244 C1251 1.409 . S
C1245 H1237 0.930 . S
C1245 C1243 1.419 . S
C1245 C1246 1.362 . S
C1246 H1238 0.930 . S
C1246 C1245 1.362 . S
C1246 C1249 1.409 . S
C1247 H1239 0.930 . S
C1247 C1248 1.355 . S
C1247 C1249 1.415 1_655 S
C1248 C1247 1.355 . S
C1248 C1250 1.419 . S
C1249 C1244 1.425 1_455 S
C1249 C1246 1.409 . S
C1249 C1247 1.415 1_455 S
C1250 H1240 0.930 . S
C1250 C1248 1.419 . S
C1250 C1251 1.362 . S
C1251 H1241 0.930 . S
C1251 C1244 1.409 . S
C1251 C1250 1.362 . S
H1252 C1258 0.930 . S
H1253 C1261 0.930 . S
H1254 C1262 0.930 . S
H1255 C1263 0.930 . S
H1256 C1266 0.930 . S
H1257 C1267 0.930 . S
C1258 H1252 0.930 . S
C1258 C1259 1.355 . S
C1258 C1260 1.415 . S
C1259 C1258 1.355 . S
C1259 C1261 1.419 . S
C1260 C1258 1.415 . S
C1260 C1265 1.425 . S
C1260 C1267 1.409 . S
C1261 H1253 0.930 . S
C1261 C1259 1.419 . S
C1261 C1262 1.362 . S
C1262 H1254 0.930 . S
C1262 C1261 1.362 . S
C1262 C1265 1.409 . S
C1263 H1255 0.930 . S
C1263 C1264 1.355 . S
C1263 C1265 1.415 . S
C1264 C1263 1.355 . S
C1264 C1266 1.419 . S
C1265 C1260 1.425 . S
C1265 C1262 1.409 . S
C1265 C1263 1.415 . S
C1266 H1256 0.930 . S
C1266 C1264 1.419 . S
C1266 C1267 1.362 . S
C1267 H1257 0.930 . S
C1267 C1260 1.409 . S
C1267 C1266 1.362 . S
H1268 C1274 0.930 1_545 S
H1269 C1277 0.930 . S
H1270 C1278 0.930 . S
H1271 C1279 0.930 1_565 S
H1272 C1282 0.930 . S
H1273 C1283 0.930 . S
C1274 H1268 0.930 1_565 S
C1274 C1275 1.355 . S
C1274 C1276 1.415 1_565 S
C1275 C1274 1.355 . S
C1275 C1277 1.419 . S
C1276 C1274 1.415 1_545 S
C1276 C1281 1.425 1_545 S
C1276 C1283 1.409 . S
C1277 H1269 0.930 . S
C1277 C1275 1.419 . S
C1277 C1278 1.362 . S
C1278 H1270 0.930 . S
C1278 C1277 1.362 . S
C1278 C1281 1.409 . S
C1279 H1271 0.930 1_545 S
C1279 C1280 1.355 . S
C1279 C1281 1.415 1_545 S
C1280 C1279 1.355 . S
C1280 C1282 1.419 . S
C1281 C1276 1.425 1_565 S
C1281 C1278 1.409 . S
C1281 C1279 1.415 1_565 S
C1282 H1272 0.930 . S
C1282 C1280 1.419 . S
C1282 C1283 1.362 . S
C1283 H1273 0.930 . S
C1283 C1276 1.409 . S
C1283 C1282 1.362 . S
H1284 C1290 0.930 . S
H1285 C1293 0.930 . S
H1286 C1294 0.930 . S
H1287 C1295 0.930 . S
H1288 C1298 0.930 . S
H1289 C1299 0.930 . S
C1290 H1284 0.930 . S
C1290 C1291 1.355 . S
C1290 C1292 1.415 . S
C1291 C1290 1.355 . S
C1291 C1293 1.419 . S
C1292 C1290 1.415 . S
C1292 C1297 1.425 1_565 S
C1292 C1299 1.409 . S
C1293 H1285 0.930 . S
C1293 C1291 1.419 . S
C1293 C1294 1.362 1_565 S
C1294 H1286 0.930 . S
C1294 C1293 1.362 1_545 S
C1294 C1297 1.409 . S
C1295 H1287 0.930 . S
C1295 C1296 1.355 . S
C1295 C1297 1.415 . S
C1296 C1295 1.355 . S
C1296 C1298 1.419 . S
C1297 C1292 1.425 1_545 S
C1297 C1294 1.409 . S
C1297 C1295 1.415 . S
C1298 H1288 0.930 . S
C1298 C1296 1.419 . S
C1298 C1299 1.362 1_545 S
C1299 H1289 0.930 . S
C1299 C1292 1.409 . S
C1299 C1298 1.362 1_565 S
H1300 C1306 0.969 . S
H1301 C1309 0.930 . S
H1302 C1310 0.930 . S
H1303 C1311 0.969 . S
H1304 C1314 0.930 . S
H1305 C1315 0.930 . S
C1306 H1300 0.969 . S
C1306 C1307 1.355 . S
C1306 C1308 1.415 1_655 S
C1307 C1306 1.355 . S
C1307 C1309 1.419 . S
C1308 C1306 1.415 1_455 S
C1308 C1313 1.425 1_455 S
C1308 C1315 1.409 . S
C1309 H1301 0.930 . S
C1309 C1307 1.419 . S
C1309 C1310 1.362 . S
C1310 H1302 0.930 . S
C1310 C1309 1.362 . S
C1310 C1313 1.409 . S
C1311 H1303 0.969 . S
C1311 C1312 1.355 . S
C1311 C1313 1.415 1_455 S
C1312 C1311 1.355 . S
C1312 C1314 1.419 . S
C1313 C1308 1.425 1_655 S
C1313 C1310 1.409 . S
C1313 C1311 1.415 1_655 S
C1314 H1304 0.930 . S
C1314 C1312 1.419 . S
C1314 C1315 1.362 . S
C1315 H1305 0.930 . S
C1315 C1308 1.409 . S
C1315 C1314 1.362 . S
H1316 C1322 0.930 . S
H1317 C1325 0.930 . S
H1318 C1326 0.930 . S
H1319 C1327 0.930 . S
H1320 C1330 0.930 . S
H1321 C1331 0.930 . S
C1322 H1316 0.930 . S
C1322 C1323 1.355 . S
C1322 C1324 1.415 . S
C1323 C1322 1.355 . S
C1323 C1325 1.419 . S
C1324 C1322 1.415 . S
C1324 C1329 1.425 . S
C1324 C1331 1.409 . S
C1325 H1317 0.930 . S
C1325 C1323 1.419 . S
C1325 C1326 1.362 . S
C1326 H1318 0.930 . S
C1326 C1325 1.362 . S
C1326 C1329 1.409 . S
C1327 H1319 0.930 . S
C1327 C1328 1.355 . S
C1327 C1329 1.415 . S
C1328 C1327 1.355 . S
C1328 C1330 1.419 . S
C1329 C1324 1.425 . S
C1329 C1326 1.409 . S
C1329 C1327 1.415 . S
C1330 H1320 0.930 . S
C1330 C1328 1.419 . S
C1330 C1331 1.362 . S
C1331 H1321 0.930 . S
C1331 C1324 1.409 . S
C1331 C1330 1.362 . S
H1332 C1338 0.930 . S
H1333 C1341 0.930 . S
H1334 C1342 0.930 . S
H1335 C1343 0.930 . S
H1336 C1346 0.930 . S
H1337 C1347 0.930 . S
C1338 H1332 0.930 . S
C1338 C1339 1.355 . S
C1338 C1340 1.415 . S
C1339 C1338 1.355 . S
C1339 C1341 1.419 . S
C1340 C1338 1.415 . S
C1340 C1345 1.425 . S
C1340 C1347 1.409 . S
C1341 H1333 0.930 . S
C1341 C1339 1.419 . S
C1341 C1342 1.362 . S
C1342 H1334 0.930 . S
C1342 C1341 1.362 . S
C1342 C1345 1.409 . S
C1343 H1335 0.930 . S
C1343 C1344 1.355 . S
C1343 C1345 1.415 . S
C1344 C1343 1.355 . S
C1344 C1346 1.419 . S
C1345 C1340 1.425 . S
C1345 C1342 1.409 . S
C1345 C1343 1.415 . S
C1346 H1336 0.930 . S
C1346 C1344 1.419 . S
C1346 C1347 1.362 . S
C1347 H1337 0.930 . S
C1347 C1340 1.409 . S
C1347 C1346 1.362 . S
H1348 C1354 0.930 . S
H1349 C1357 0.930 . S
H1350 C1358 0.930 . S
H1351 C1359 0.930 . S
H1352 C1362 0.930 . S
H1353 C1363 0.930 . S
C1354 H1348 0.930 . S
C1354 C1355 1.355 . S
C1354 C1356 1.415 . S
C1355 C1354 1.355 . S
C1355 C1357 1.419 . S
C1356 C1354 1.415 . S
C1356 C1361 1.425 . S
C1356 C1363 1.409 . S
C1357 H1349 0.930 . S
C1357 C1355 1.419 . S
C1357 C1358 1.362 . S
C1358 H1350 0.930 . S
C1358 C1357 1.362 . S
C1358 C1361 1.409 . S
C1359 H1351 0.930 . S
C1359 C1360 1.355 . S
C1359 C1361 1.415 . S
C1360 C1359 1.355 . S
C1360 C1362 1.419 . S
C1361 C1356 1.425 . S
C1361 C1358 1.409 . S
C1361 C1359 1.415 . S
C1362 H1352 0.930 . S
C1362 C1360 1.419 . S
C1362 C1363 1.362 . S
C1363 H1353 0.930 . S
C1363 C1356 1.409 . S
C1363 C1362 1.362 . S
H1364 C1370 0.930 . S
H1365 C1373 0.930 . S
H1366 C1374 0.930 . S
H1367 C1375 0.930 . S
H1368 C1378 0.930 . S
H1369 C1379 0.930 . S
C1370 H1364 0.930 . S
C1370 C1371 1.355 . S
C1370 C1372 1.415 . S
C1371 C1370 1.355 . S
C1371 C1373 1.419 . S
C1372 C1370 1.415 . S
C1372 C1377 1.425 . S
C1372 C1379 1.409 . S
C1373 H1365 0.930 . S
C1373 C1371 1.419 . S
C1373 C1374 1.362 . S
C1374 H1366 0.930 . S
C1374 C1373 1.362 . S
C1374 C1377 1.409 . S
C1375 H1367 0.930 . S
C1375 C1376 1.355 . S
C1375 C1377 1.415 . S
C1376 C1375 1.355 . S
C1376 C1378 1.419 . S
C1377 C1372 1.425 . S
C1377 C1374 1.409 . S
C1377 C1375 1.415 . S
C1378 H1368 0.930 . S
C1378 C1376 1.419 . S
C1378 C1379 1.362 . S
C1379 H1369 0.930 . S
C1379 C1372 1.409 . S
C1379 C1378 1.362 . S
H1380 C1386 0.930 . S
H1381 C1389 0.930 . S
H1382 C1390 0.930 . S
H1383 C1391 0.930 . S
H1384 C1394 0.930 . S
H1385 C1395 0.930 . S
C1386 H1380 0.930 . S
C1386 C1387 1.355 . S
C1386 C1388 1.415 . S
C1387 C1386 1.355 . S
C1387 C1389 1.419 . S
C1388 C1386 1.415 . S
C1388 C1393 1.425 . S
C1388 C1395 1.409 . S
C1389 H1381 0.930 . S
C1389 C1387 1.419 . S
C1389 C1390 1.362 . S
C1390 H1382 0.930 . S
C1390 C1389 1.362 . S
C1390 C1393 1.409 . S
C1391 H1383 0.930 . S
C1391 C1392 1.355 . S
C1391 C1393 1.415 . S
C1392 C1391 1.355 . S
C1392 C1394 1.419 . S
C1393 C1388 1.425 . S
C1393 C1390 1.409 . S
C1393 C1391 1.415 . S
C1394 H1384 0.930 . S
C1394 C1392 1.419 . S
C1394 C1395 1.362 . S
C1395 H1385 0.930 . S
C1395 C1388 1.409 . S
C1395 C1394 1.362 . S
H1396 C1402 0.930 . S
H1397 C1405 0.930 . S
H1398 C1406 0.930 . S
H1399 C1407 0.930 . S
H1400 C1410 0.930 . S
H1401 C1411 0.930 . S
C1402 H1396 0.930 . S
C1402 C1403 1.355 . S
C1402 C1404 1.415 . S
C1403 C1402 1.355 . S
C1403 C1405 1.419 . S
C1404 C1402 1.415 . S
C1404 C1409 1.425 . S
C1404 C1411 1.409 . S
C1405 H1397 0.930 . S
C1405 C1403 1.419 . S
C1405 C1406 1.362 . S
C1406 H1398 0.930 . S
C1406 C1405 1.362 . S
C1406 C1409 1.409 . S
C1407 H1399 0.930 . S
C1407 C1408 1.355 . S
C1407 C1409 1.415 . S
C1408 C1407 1.355 . S
C1408 C1410 1.419 . S
C1409 C1404 1.425 . S
C1409 C1406 1.409 . S
C1409 C1407 1.415 . S
C1410 H1400 0.930 . S
C1410 C1408 1.419 . S
C1410 C1411 1.362 . S
C1411 H1401 0.930 . S
C1411 C1404 1.409 . S
C1411 C1410 1.362 . S
H1412 C1418 0.930 . S
H1413 C1421 0.930 . S
H1414 C1422 0.930 . S
H1415 C1423 0.930 . S
H1416 C1426 0.930 . S
H1417 C1427 0.930 . S
C1418 H1412 0.930 . S
C1418 C1419 1.355 . S
C1418 C1420 1.415 . S
C1419 C1418 1.355 . S
C1419 C1421 1.419 . S
C1420 C1418 1.415 . S
C1420 C1425 1.425 . S
C1420 C1427 1.409 . S
C1421 H1413 0.930 . S
C1421 C1419 1.419 . S
C1421 C1422 1.362 . S
C1422 H1414 0.930 . S
C1422 C1421 1.362 . S
C1422 C1425 1.409 . S
C1423 H1415 0.930 . S
C1423 C1424 1.355 . S
C1423 C1425 1.415 . S
C1424 C1423 1.355 . S
C1424 C1426 1.419 . S
C1425 C1420 1.425 . S
C1425 C1422 1.409 . S
C1425 C1423 1.415 . S
C1426 H1416 0.930 . S
C1426 C1424 1.419 . S
C1426 C1427 1.362 . S
C1427 H1417 0.930 . S
C1427 C1420 1.409 . S
C1427 C1426 1.362 . S
H1428 C1434 0.930 . S
H1429 C1437 0.930 . S
H1430 C1438 0.930 . S
H1431 C1439 0.930 . S
H1432 C1442 0.930 . S
H1433 C1443 0.930 . S
C1434 H1428 0.930 . S
C1434 C1435 1.355 . S
C1434 C1436 1.415 . S
C1435 C1434 1.355 . S
C1435 C1437 1.419 . S
C1436 C1434 1.415 . S
C1436 C1441 1.425 . S
C1436 C1443 1.409 . S
C1437 H1429 0.930 . S
C1437 C1435 1.419 . S
C1437 C1438 1.362 . S
C1438 H1430 0.930 . S
C1438 C1437 1.362 . S
C1438 C1441 1.409 . S
C1439 H1431 0.930 . S
C1439 C1440 1.355 . S
C1439 C1441 1.415 . S
C1440 C1439 1.355 . S
C1440 C1442 1.419 . S
C1441 C1436 1.425 . S
C1441 C1438 1.409 . S
C1441 C1439 1.415 . S
C1442 H1432 0.930 . S
C1442 C1440 1.419 . S
C1442 C1443 1.362 . S
C1443 H1433 0.930 . S
C1443 C1436 1.409 . S
C1443 C1442 1.362 . S
H1444 C1450 0.930 . S
H1445 C1453 0.930 . S
H1446 C1454 0.930 . S
H1447 C1455 0.930 . S
H1448 C1458 0.930 . S
H1449 C1459 0.930 . S
C1450 H1444 0.930 . S
C1450 C1451 1.355 . S
C1450 C1452 1.415 . S
C1451 C1450 1.355 . S
C1451 C1453 1.419 . S
C1452 C1450 1.415 . S
C1452 C1457 1.425 . S
C1452 C1459 1.409 . S
C1453 H1445 0.930 . S
C1453 C1451 1.419 . S
C1453 C1454 1.362 . S
C1454 H1446 0.930 . S
C1454 C1453 1.362 . S
C1454 C1457 1.409 . S
C1455 H1447 0.930 . S
C1455 C1456 1.355 . S
C1455 C1457 1.415 . S
C1456 C1455 1.355 . S
C1456 C1458 1.419 . S
C1457 C1452 1.425 . S
C1457 C1454 1.409 . S
C1457 C1455 1.415 . S
C1458 H1448 0.930 . S
C1458 C1456 1.419 . S
C1458 C1459 1.362 . S
C1459 H1449 0.930 . S
C1459 C1452 1.409 . S
C1459 C1458 1.362 . S
H1460 C1466 0.930 . S
H1461 C1469 0.930 . S
H1462 C1470 0.930 . S
H1463 C1471 0.930 . S
H1464 C1474 0.930 . S
H1465 C1475 0.930 . S
C1466 H1460 0.930 . S
C1466 C1467 1.355 . S
C1466 C1468 1.415 . S
C1467 C1466 1.355 . S
C1467 C1469 1.419 . S
C1468 C1466 1.415 . S
C1468 C1473 1.425 . S
C1468 C1475 1.409 . S
C1469 H1461 0.930 . S
C1469 C1467 1.419 . S
C1469 C1470 1.362 . S
C1470 H1462 0.930 . S
C1470 C1469 1.362 . S
C1470 C1473 1.409 . S
C1471 H1463 0.930 . S
C1471 C1472 1.355 . S
C1471 C1473 1.415 . S
C1472 C1471 1.355 . S
C1472 C1474 1.419 . S
C1473 C1468 1.425 . S
C1473 C1470 1.409 . S
C1473 C1471 1.415 . S
C1474 H1464 0.930 . S
C1474 C1472 1.419 . S
C1474 C1475 1.362 . S
C1475 H1465 0.930 . S
C1475 C1468 1.409 . S
C1475 C1474 1.362 . S
H1476 C1482 0.930 . S
H1477 C1485 0.930 . S
H1478 C1486 0.930 . S
H1479 C1487 0.930 . S
H1480 C1490 0.930 . S
H1481 C1491 0.930 . S
C1482 H1476 0.930 . S
C1482 C1483 1.355 . S
C1482 C1484 1.415 . S
C1483 C1482 1.355 . S
C1483 C1485 1.419 . S
C1484 C1482 1.415 . S
C1484 C1489 1.425 . S
C1484 C1491 1.409 . S
C1485 H1477 0.930 . S
C1485 C1483 1.419 . S
C1485 C1486 1.362 . S
C1486 H1478 0.930 . S
C1486 C1485 1.362 . S
C1486 C1489 1.409 . S
C1487 H1479 0.930 . S
C1487 C1488 1.355 . S
C1487 C1489 1.415 . S
C1488 C1487 1.355 . S
C1488 C1490 1.419 . S
C1489 C1484 1.425 . S
C1489 C1486 1.409 . S
C1489 C1487 1.415 . S
C1490 H1480 0.930 . S
C1490 C1488 1.419 . S
C1490 C1491 1.362 . S
C1491 H1481 0.930 . S
C1491 C1484 1.409 . S
C1491 C1490 1.362 . S
H1492 C1498 0.930 . S
H1493 C1501 0.930 . S
H1494 C1502 0.930 . S
H1495 C1503 0.930 . S
H1496 C1506 0.930 . S
H1497 C1507 0.930 . S
C1498 H1492 0.930 . S
C1498 C1499 1.355 . S
C1498 C1500 1.415 . S
C1499 C1498 1.355 . S
C1499 C1501 1.419 . S
C1500 C1498 1.415 . S
C1500 C1505 1.425 . S
C1500 C1507 1.409 . S
C1501 H1493 0.930 . S
C1501 C1499 1.419 . S
C1501 C1502 1.362 . S
C1502 H1494 0.930 . S
C1502 C1501 1.362 . S
C1502 C1505 1.409 . S
C1503 H1495 0.930 . S
C1503 C1504 1.355 . S
C1503 C1505 1.415 . S
C1504 C1503 1.355 . S
C1504 C1506 1.419 . S
C1505 C1500 1.425 . S
C1505 C1502 1.409 . S
C1505 C1503 1.415 . S
C1506 H1496 0.930 . S
C1506 C1504 1.419 . S
C1506 C1507 1.362 . S
C1507 H1497 0.930 . S
C1507 C1500 1.409 . S
C1507 C1506 1.362 . S
H1508 C1514 0.930 . S
H1509 C1517 0.930 . S
H1510 C1518 0.930 . S
H1511 C1519 0.930 . S
H1512 C1522 0.930 . S
H1513 C1523 0.930 . S
C1514 H1508 0.930 . S
C1514 C1515 1.355 . S
C1514 C1516 1.415 . S
C1515 C1514 1.355 . S
C1515 C1517 1.419 . S
C1516 C1514 1.415 . S
C1516 C1521 1.425 . S
C1516 C1523 1.409 . S
C1517 H1509 0.930 . S
C1517 C1515 1.419 . S
C1517 C1518 1.362 . S
C1518 H1510 0.930 . S
C1518 C1517 1.362 . S
C1518 C1521 1.409 . S
C1519 H1511 0.930 . S
C1519 C1520 1.355 . S
C1519 C1521 1.415 . S
C1520 C1519 1.355 . S
C1520 C1522 1.419 . S
C1521 C1516 1.425 . S
C1521 C1518 1.409 . S
C1521 C1519 1.415 . S
C1522 H1512 0.930 . S
C1522 C1520 1.419 . S
C1522 C1523 1.362 . S
C1523 H1513 0.930 . S
C1523 C1516 1.409 . S
C1523 C1522 1.362 . S
H1524 C1530 0.930 . S
H1525 C1533 0.930 . S
H1526 C1534 0.930 1_554 S
H1527 C1535 0.930 . S
H1528 C1538 0.930 . S
H1529 C1539 0.930 1_556 S
C1530 H1524 0.930 . S
C1530 C1531 1.355 1_655 S
C1530 C1532 1.415 . S
C1531 C1530 1.355 1_455 S
C1531 C1533 1.419 . S
C1532 C1530 1.415 . S
C1532 C1537 1.425 1_656 S
C1532 C1539 1.409 1_556 S
C1533 H1525 0.930 . S
C1533 C1531 1.419 . S
C1533 C1534 1.362 . S
C1534 H1526 0.930 1_556 S
C1534 C1533 1.362 . S
C1534 C1537 1.409 1_556 S
C1535 H1527 0.930 . S
C1535 C1536 1.355 1_455 S
C1535 C1537 1.415 . S
C1536 C1535 1.355 1_655 S
C1536 C1538 1.419 . S
C1537 C1532 1.425 1_454 S
C1537 C1534 1.409 1_554 S
C1537 C1535 1.415 . S
C1538 H1528 0.930 . S
C1538 C1536 1.419 . S
C1538 C1539 1.362 . S
C1539 H1529 0.930 1_554 S
C1539 C1532 1.409 1_554 S
C1539 C1538 1.362 . S
H1540 C1546 0.930 . S
H1541 C1549 0.930 . S
H1542 C1550 0.930 . S
H1543 C1551 0.930 . S
H1544 C1554 0.930 . S
H1545 C1555 0.930 . S
C1546 H1540 0.930 . S
C1546 C1547 1.355 . S
C1546 C1548 1.415 1_554 S
C1547 C1546 1.355 . S
C1547 C1549 1.419 . S
C1548 C1546 1.415 1_556 S
C1548 C1553 1.425 1_556 S
C1548 C1555 1.409 . S
C1549 H1541 0.930 . S
C1549 C1547 1.419 . S
C1549 C1550 1.362 . S
C1550 H1542 0.930 . S
C1550 C1549 1.362 . S
C1550 C1553 1.409 . S
C1551 H1543 0.930 . S
C1551 C1552 1.355 . S
C1551 C1553 1.415 1_556 S
C1552 C1551 1.355 . S
C1552 C1554 1.419 . S
C1553 C1548 1.425 1_554 S
C1553 C1550 1.409 . S
C1553 C1551 1.415 1_554 S
C1554 H1544 0.930 . S
C1554 C1552 1.419 . S
C1554 C1555 1.362 . S
C1555 H1545 0.930 . S
C1555 C1548 1.409 . S
C1555 C1554 1.362 . S
H1556 C1562 0.930 . S
H1557 C1565 0.930 . S
H1558 C1566 0.930 . S
H1559 C1567 0.930 . S
H1560 C1570 0.930 . S
H1561 C1571 0.930 . S
C1562 H1556 0.930 . S
C1562 C1563 1.355 . S
C1562 C1564 1.423 . S
C1563 C1562 1.355 . S
C1563 C1565 1.419 . S
C1564 C1562 1.423 . S
C1564 C1569 1.405 1_544 S
C1564 C1571 1.411 1_544 S
C1565 H1557 0.930 . S
C1565 C1563 1.419 . S
C1565 C1566 1.362 . S
C1566 H1558 0.930 . S
C1566 C1565 1.362 . S
C1566 C1569 1.412 1_544 S
C1567 H1559 0.930 . S
C1567 C1568 1.355 . S
C1567 C1569 1.423 . S
C1568 C1567 1.355 . S
C1568 C1570 1.419 . S
C1569 C1564 1.405 1_566 S
C1569 C1566 1.412 1_566 S
C1569 C1567 1.423 . S
C1570 H1560 0.930 . S
C1570 C1568 1.419 . S
C1570 C1571 1.362 . S
C1571 H1561 0.930 . S
C1571 C1564 1.411 1_566 S
C1571 C1570 1.362 . S
H1572 C1578 0.930 . S
H1573 C1581 0.930 . S
H1574 C1582 0.930 . S
H1575 C1583 0.930 . S
H1576 C1586 0.930 . S
H1577 C1587 0.930 . S
C1578 H1572 0.930 . S
C1578 C1579 1.355 . S
C1578 C1580 1.415 . S
C1579 C1578 1.355 . S
C1579 C1581 1.419 . S
C1580 C1578 1.415 . S
C1580 C1585 1.425 1_566 S
C1580 C1587 1.409 1_556 S
C1581 H1573 0.930 . S
C1581 C1579 1.419 . S
C1581 C1582 1.362 1_565 S
C1582 H1574 0.930 . S
C1582 C1581 1.362 1_545 S
C1582 C1585 1.409 1_556 S
C1583 H1575 0.930 . S
C1583 C1584 1.355 . S
C1583 C1585 1.415 . S
C1584 C1583 1.355 . S
C1584 C1586 1.419 . S
C1585 C1580 1.425 1_544 S
C1585 C1582 1.409 1_554 S
C1585 C1583 1.415 . S
C1586 H1576 0.930 . S
C1586 C1584 1.419 . S
C1586 C1587 1.362 1_545 S
C1587 H1577 0.930 . S
C1587 C1580 1.409 1_554 S
C1587 C1586 1.362 1_565 S
H1588 C1594 0.930 . S
H1589 C1597 0.930 . S
H1590 C1598 0.930 . S
H1591 C1599 0.930 . S
H1592 C1602 0.930 . S
H1593 C1603 0.930 . S
C1594 H1588 0.930 . S
C1594 C1595 1.355 . S
C1594 C1596 1.418 . S
C1595 C1594 1.355 . S
C1595 C1597 1.419 . S
C1596 C1594 1.418 . S
C1596 C1601 1.416 1_456 S
C1596 C1603 1.410 1_456 S
C1597 H1589 0.930 . S
C1597 C1595 1.419 . S
C1597 C1598 1.362 . S
C1598 H1590 0.930 . S
C1598 C1597 1.362 . S
C1598 C1601 1.410 1_456 S
C1599 H1591 0.930 . S
C1599 C1600 1.355 . S
C1599 C1601 1.418 . S
C1600 C1599 1.355 . S
C1600 C1602 1.419 . S
C1601 C1596 1.416 1_654 S
C1601 C1598 1.410 1_654 S
C1601 C1599 1.418 . S
C1602 H1592 0.930 . S
C1602 C1600 1.419 . S
C1602 C1603 1.362 . S
C1603 H1593 0.930 . S
C1603 C1596 1.410 1_654 S
C1603 C1602 1.362 . S
H1604 C1610 0.930 . S
H1605 C1613 0.930 . S
H1606 C1614 0.930 . S
H1607 C1615 0.930 . S
H1608 C1618 0.930 . S
H1609 C1619 0.930 . S
C1610 H1604 0.930 . S
C1610 C1611 1.355 . S
C1610 C1612 1.415 . S
C1611 C1610 1.355 . S
C1611 C1613 1.419 . S
C1612 C1610 1.415 . S
C1612 C1617 1.425 1_554 S
C1612 C1619 1.409 1_554 S
C1613 H1605 0.930 . S
C1613 C1611 1.419 . S
C1613 C1614 1.362 . S
C1614 H1606 0.930 . S
C1614 C1613 1.362 . S
C1614 C1617 1.409 1_554 S
C1615 H1607 0.930 . S
C1615 C1616 1.355 . S
C1615 C1617 1.415 . S
C1616 C1615 1.355 . S
C1616 C1618 1.419 . S
C1617 C1612 1.425 1_556 S
C1617 C1614 1.409 1_556 S
C1617 C1615 1.415 . S
C1618 H1608 0.930 . S
C1618 C1616 1.419 . S
C1618 C1619 1.362 . S
C1619 H1609 0.930 . S
C1619 C1612 1.409 1_556 S
C1619 C1618 1.362 . S
C475 C10 1.455 . S
C480 C147 1.463 . S
C491 C23 1.453 . S
C496 C121 1.464 . S
C507 C140 1.457 . S
C512 C30 1.460 . S
C523 C43 1.467 . S
C528 C101 1.450 . S
C539 C108 1.445 . S
C544 C56 1.472 . S
C555 C75 1.472 . S
C560 C82 1.446 . S
C571 C303 1.457 . S
C576 C160 1.460 . S
C587 C179 1.472 . S
C592 C283 1.446 . S
C603 C192 1.468 . S
C608 C296 1.449 . S
C619 C251 1.468 . S
C624 C199 1.449 . S
C635 C218 1.466 . S
C640 C264 1.451 . S
C651 C244 1.464 . S
C656 C231 1.453 . S
C667 C316 1.471 . S
C672 C459 1.446 . S
C683 C439 1.446 . S
C688 C335 1.471 . S
C699 C446 1.447 . S
C704 C342 1.470 . S
C715 C413 1.447 . S
C720 C355 1.471 . S
C731 C426 1.448 . S
C736 C368 1.469 . S
C747 C400 1.466 . S
C752 C381 1.451 . S
C763 C3 1.418 . S
C768 C57 1.408 . S
C779 C68 1.387 . S
C784 C16 1.378 . S
C795 C31 1.414 . S
C800 C44 1.417 . S
C811 C83 1.391 . S
C816 C133 1.411 . S
C827 C94 1.382 . S
C832 C148 1.379 . S
C843 C109 1.382 . S
C848 C122 1.379 . S
C859 C211 1.410 . S
C864 C161 1.418 . S
C875 C224 1.396 . S
C880 C172 1.380 . S
C891 C185 1.393 . S
C896 C200 1.412 . S
C907 C289 1.413 . S
C912 C237 1.394 . S
C923 C304 1.412 . S
C928 C252 1.418 . S
C939 C265 1.417 . S
C944 C276 1.414 . S
C955 C369 1.403 . S
C960 C317 1.384 . S
C971 C328 1.378 . S
C976 C382 1.385 . S
C987 C343 1.407 . S
C992 C356 1.387 . S
C1003 C447 1.416 . S
C1008 C393 1.400 . S
C1019 C406 1.417 . S
C1024 C460 1.404 . S
C1035 C432 1.387 . S
C1040 C419 1.407 . S
C1051 C380 1.342 . S
C1056 C5 1.327 . S
C1067 C18 1.318 . S
C1072 C354 1.327 . S
C1083 C29 1.319 . S
C1088 C367 1.336 . S
C1099 C42 1.327 . S
C1104 C174 1.318 . S
C1115 C187 1.343 . S
C1120 C55 1.329 . S
C1131 C159 1.343 . S
C1136 C70 1.329 . S
C1147 C81 1.343 . S
C1152 C302 1.332 . S
C1163 C96 1.328 . S
C1168 C278 1.343 . S
C1179 C107 1.343 . S
C1184 C291 1.329 . S
C1195 C408 1.321 . S
C1200 C120 1.322 . S
C1211 C421 1.319 . S
C1216 C135 1.335 . S
C1227 C146 1.320 . S
C1232 C395 1.324 . S
C1243 C330 1.318 . S
C1248 C198 1.331 . S
C1259 C213 1.318 . S
C1264 C341 1.328 . S
C1275 C315 1.338 . S
C1280 C226 1.320 . S
C1291 C458 1.339 . S
C1296 C239 1.321 . S
C1307 C250 1.331 . S
C1312 C434 1.318 . S
C1323 C263 1.330 . S
C1328 C445 1.343 . S
C1339 C4 1.528 . S
C1344 C387 1.514 . S
C1355 C361 1.514 . S
C1360 C17 1.530 . S
C1371 C36 1.515 . S
C1376 C374 1.530 . S
C1387 C173 1.520 . S
C1392 C49 1.530 . S
C1403 C62 1.531 . S
C1408 C186 1.516 . S
C1419 C69 1.520 . S
C1424 C166 1.516 . S
C1435 C309 1.530 . S
C1440 C88 1.521 . S
C1451 C95 1.526 . S
C1456 C277 1.526 . S
C1467 C114 1.527 . S
C1472 C290 1.513 . S
C1483 C127 1.514 . S
C1488 C407 1.529 . S
C1499 C420 1.514 . S
C1504 C134 1.529 . S
C1515 C153 1.515 . S
C1520 C394 1.530 . S
C1531 C329 1.519 . S
C1536 C205 1.530 . S
C1547 C212 1.524 . S
C1552 C348 1.515 . S
C1563 C225 1.514 . S
C1568 C322 1.529 . S
C1579 C465 1.526 . S
C1584 C238 1.514 . S
C1595 C433 1.529 . S
C1600 C257 1.514 . S
C1611 C270 1.524 . S
C1616 C452 1.514 . S
