# Generated by pormake.
# Topology qtz-x, (6)-cn, num edge types: 1
# Building blocks:
#     Node 0, Type 0, BuildingBlock: KUMBOL_clean_sbu_1, # of connection points: 6
#     Node 1, Type 0, BuildingBlock: KUMBOL_clean_sbu_1, # of connection points: 6
#     Node 2, Type 0, BuildingBlock: KUMBOL_clean_sbu_1, # of connection points: 6
#     Edge 3, Type (0, 0), BuildingBlock: XIVTED_clean_linker_0, # of connection points: 2
#     Edge 4, Type (0, 0), BuildingBlock: XIVTED_clean_linker_0, # of connection points: 2
#     Edge 5, Type (0, 0), BuildingBlock: XIVTED_clean_linker_0, # of connection points: 2
#     Edge 6, Type (0, 0), BuildingBlock: XIVTED_clean_linker_0, # of connection points: 2
#     Edge 7, Type (0, 0), BuildingBlock: XIVTED_clean_linker_0, # of connection points: 2
#     Edge 8, Type (0, 0), BuildingBlock: XIVTED_clean_linker_0, # of connection points: 2
#     Edge 9, Type (0, 0), BuildingBlock: XIVTED_clean_linker_0, # of connection points: 2
#     Edge 10, Type (0, 0), BuildingBlock: XIVTED_clean_linker_0, # of connection points: 2
#     Edge 11, Type (0, 0), BuildingBlock: XIVTED_clean_linker_0, # of connection points: 2
# Relax obj value: 0.199
# Max RMSD: 0.278
# Mean RMSD: 0.278
data_MOF--net-qtz-x--node1-KUMBOL_clean_sbu_1--edge1-XIVTED_clean_linker_0
_symmetry_space_group_name_H-M    P1
_symmetry_Int_Tables_number       1
_symmetry_cell_setting            triclinic
loop_
_symmetry_equiv_pos_as_xyz
'x, y, z'
_cell_length_a     15.082619
_cell_length_b     15.085018
_cell_length_c     52.772631
_cell_angle_alpha  90.111373
_cell_angle_beta   89.90801
_cell_angle_gamma 120.03065
loop_
_atom_site_label
_atom_site_type_symbol
_atom_site_fract_x
_atom_site_fract_y
_atom_site_fract_z
_atom_type_partial_charge
C0 C 0.41617 0.57322 0.1561 0.0
C1 C 0.49272 0.75238 0.14469 0.0
C2 C 0.41222 0.66336 0.15586 0.0
C3 C 0.57396 0.74807 0.13283 0.0
C4 C 0.49775 0.56866 0.14431 0.0
C5 C 0.57623 0.65636 0.13255 0.0
N6 N 0.33912 0.4893 0.16757 0.0
C7 C 0.34014 0.39952 0.16864 0.0
C8 C 0.49769 0.4758 0.14461 0.0
C9 C 0.41889 0.39107 0.15698 0.0
Gd10 Gd 0.93357 0.38649 0.14573 0.0
Gd11 Gd 0.20749 0.50827 0.18539 0.0
N12 N 0.33206 0.66505 0.16736 0.0
C13 C 0.49074 0.84391 0.14635 0.0
C14 C 0.33463 0.75616 0.17076 0.0
C15 C 0.41232 0.84612 0.15984 0.0
H16 H 0.27948 0.76167 0.18258 0.0
H17 H 0.41285 0.91765 0.16232 0.0
H18 H 0.86676 0.13592 0.15315 0.0
H19 H 0.28003 0.33452 0.17846 0.0
H20 H 0.7344 0.98373 0.17486 0.0
H21 H 0.55125 0.91398 0.1381 0.0
H22 H 0.63607 0.81562 0.12408 0.0
H23 H 0.86379 0.56288 0.1513 0.0
H24 H 0.55845 0.46892 0.13553 0.0
H25 H 0.41907 0.31944 0.15763 0.0
H26 H 0.50909 0.09019 0.20964 0.0
H27 H 0.63957 0.65434 0.1234 0.0
H28 H 0.58639 0.43487 0.19458 0.0
H29 H 0.72561 0.58123 0.17156 0.0
N30 N 0.80415 0.40932 0.1634 0.0
C31 C 0.72743 0.32715 0.1755 0.0
C32 C 0.80362 0.49922 0.16151 0.0
C33 C 0.64674 0.42655 0.18575 0.0
C34 C 0.72544 0.50953 0.17286 0.0
C35 C 0.64641 0.33363 0.18699 0.0
H36 H 0.5051 0.25115 0.20826 0.0
N37 N 0.81238 0.23414 0.16607 0.0
C38 C 0.73195 0.23736 0.17698 0.0
C39 C 0.65503 0.05914 0.18883 0.0
C40 C 0.65212 0.15035 0.189 0.0
C41 C 0.81123 0.14318 0.16435 0.0
C42 C 0.73406 0.0552 0.1761 0.0
O43 O 0.21355 0.47341 0.14379 0.0
O44 O 0.08668 0.49932 0.12889 0.0
O45 O 0.8805 0.28946 0.11241 0.0
O46 O 0.85348 0.41687 0.11578 0.0
O47 O 0.12732 0.60192 0.18341 0.0
O48 O 0.03839 0.55795 0.14535 0.0
O49 O 0.9294 0.42922 0.1868 0.0
O50 O 0.05014 0.39308 0.19852 0.0
O51 O 0.24575 0.59466 0.22056 0.0
O52 O 0.28744 0.47805 0.21528 0.0
O53 O 0.0172 0.29544 0.14628 0.0
O54 O 0.10552 0.33653 0.18438 0.0
C55 C 0.16338 0.48359 0.1248 0.0
C56 C 0.07912 0.61953 0.16496 0.0
C57 C 0.7368 0.27604 0.09108 0.0
C58 C 0.62799 0.23787 0.05388 0.0
C59 C 0.5629 0.13261 0.0917 0.0
C60 C 0.65676 0.19318 0.1039 0.0
C61 C 0.54863 0.15414 0.06672 0.0
C62 C 0.72171 0.29851 0.0663 0.0
C63 C 0.83845 0.33825 0.10239 0.0
C64 C 0.57079 0.15626 0.2003 0.0
C65 C 0.56824 0.24777 0.19941 0.0
H66 H 0.59496 0.99055 0.19774 0.0
C67 C 0.98285 0.41905 0.20478 0.0
C68 C 0.06756 0.27768 0.16417 0.0
C69 C 0.39502 0.62003 0.24102 0.0
C70 C 0.49435 0.71966 0.27754 0.0
C71 C 0.58018 0.71905 0.23843 0.0
C72 C 0.48579 0.65341 0.22721 0.0
C73 C 0.58474 0.75186 0.26343 0.0
C74 C 0.39956 0.65358 0.26603 0.0
C75 C 0.29455 0.5512 0.22975 0.0
H76 H 0.50138 0.06831 0.10156 0.0
H77 H 0.66718 0.17471 0.12307 0.0
H78 H 0.47573 0.10608 0.05751 0.0
H79 H 0.7844 0.36186 0.05638 0.0
H80 H 0.65012 0.74423 0.22776 0.0
H81 H 0.48378 0.62864 0.20786 0.0
H82 H 0.65914 0.80135 0.27177 0.0
H83 H 0.32884 0.629 0.27636 0.0
C84 C 0.41499 0.68865 0.48498 0.0
C85 C 0.52278 0.61412 0.47748 0.0
C86 C 0.50894 0.69297 0.48774 0.0
C87 C 0.44321 0.53413 0.46372 0.0
C88 C 0.33434 0.60736 0.47157 0.0
C89 C 0.34932 0.53075 0.46078 0.0
N90 N 0.40255 0.7644 0.49532 0.0
C91 C 0.3106 0.76131 0.49398 0.0
C92 C 0.24071 0.60526 0.46947 0.0
C93 C 0.22867 0.68227 0.48085 0.0
Gd94 Gd 0.70378 0.17329 0.48118 0.0
Gd95 Gd 0.54221 0.89055 0.51807 0.0
N96 N 0.58461 0.77088 0.50144 0.0
C97 C 0.61494 0.61586 0.48206 0.0
C98 C 0.67061 0.76716 0.50777 0.0
C99 C 0.68836 0.69174 0.49763 0.0
H100 H 0.72467 0.81941 0.52136 0.0
H101 H 0.7576 0.69062 0.50239 0.0
H102 H 0.52405 0.24118 0.49461 0.0
H103 H 0.30087 0.82001 0.50308 0.0
H104 H 0.51449 0.37787 0.5171 0.0
H105 H 0.62837 0.55664 0.47456 0.0
H106 H 0.45288 0.47335 0.45567 0.0
H107 H 0.94912 0.23721 0.48251 0.0
H108 H 0.17694 0.54397 0.45936 0.0
H109 H 0.15608 0.68034 0.47966 0.0
H110 H 0.85843 0.60468 0.54439 0.0
H111 H 0.28832 0.46787 0.45037 0.0
H112 H 0.11641 0.52068 0.52277 0.0
H113 H 0.11302 0.37643 0.49951 0.0
N114 N 0.86166 0.30134 0.49654 0.0
C115 C 0.8616 0.38005 0.50907 0.0
C116 C 0.95012 0.29926 0.49294 0.0
C117 C 0.04446 0.45963 0.51546 0.0
C118 C 0.04283 0.37816 0.50241 0.0
C119 C 0.95332 0.4616 0.51884 0.0
H120 H 0.02101 0.60561 0.53924 0.0
N121 N 0.68138 0.29709 0.50317 0.0
C122 C 0.769 0.37782 0.51251 0.0
C123 C 0.67406 0.45808 0.5272 0.0
C124 C 0.76725 0.45967 0.52507 0.0
C125 C 0.59154 0.29846 0.50404 0.0
C126 C 0.58618 0.37778 0.51637 0.0
O127 O 0.50842 0.8937 0.47615 0.0
O128 O 0.66609 0.02043 0.46542 0.0
O129 O 0.6544 0.22287 0.44827 0.0
O130 O 0.80996 0.25181 0.45027 0.0
O131 O 0.71696 0.96988 0.51889 0.0
O132 O 0.76804 0.06568 0.48179 0.0
O133 O 0.74553 0.17525 0.5224 0.0
O134 O 0.59016 0.0468 0.53402 0.0
O135 O 0.56045 0.82583 0.554 0.0
O136 O 0.41355 0.81002 0.54294 0.0
O137 O 0.52917 0.09361 0.48146 0.0
O138 O 0.48158 0.99999 0.51853 0.0
C139 C 0.57421 0.95035 0.4587 0.0
C140 C 0.78685 0.0235 0.50151 0.0
C141 C 0.781 0.3656 0.42581 0.0
C142 C 0.8452 0.47188 0.38799 0.0
C143 C 0.81349 0.54009 0.42659 0.0
C144 C 0.78172 0.44689 0.43893 0.0
C145 C 0.84448 0.55255 0.40118 0.0
C146 C 0.81326 0.37866 0.40054 0.0
C147 C 0.74399 0.26496 0.43746 0.0
C148 C 0.85859 0.54137 0.53469 0.0
C149 C 0.95125 0.54212 0.53168 0.0
H150 H 0.66962 0.51971 0.53659 0.0
C151 C 0.68391 0.11518 0.54004 0.0
C152 C 0.45994 0.03883 0.49878 0.0
C153 C 0.41111 0.72746 0.58196 0.0
C154 C 0.41335 0.66335 0.62419 0.0
C155 C 0.25164 0.60536 0.60245 0.0
C156 C 0.30364 0.66682 0.58176 0.0
C157 C 0.306 0.60316 0.62351 0.0
C158 C 0.46587 0.72627 0.60339 0.0
C159 C 0.46397 0.78922 0.55945 0.0
H160 H 0.81362 0.60266 0.43671 0.0
H161 H 0.75696 0.43801 0.45849 0.0
H162 H 0.86883 0.62524 0.39195 0.0
H163 H 0.81121 0.31495 0.39043 0.0
H164 H 0.16896 0.55878 0.60209 0.0
H165 H 0.25955 0.66595 0.56547 0.0
H166 H 0.26408 0.55468 0.63939 0.0
H167 H 0.54871 0.77239 0.60373 0.0
C168 C 0.54712 0.71942 0.81841 0.0
C169 C 0.36567 0.61022 0.81003 0.0
C170 C 0.45782 0.62496 0.82081 0.0
C171 C 0.36574 0.6893 0.796 0.0
C172 C 0.54687 0.79972 0.80481 0.0
C173 C 0.45603 0.78372 0.7934 0.0
N174 N 0.63462 0.73275 0.82934 0.0
C175 C 0.72291 0.82545 0.82851 0.0
C176 C 0.63795 0.89406 0.8032 0.0
C177 C 0.72614 0.90713 0.81525 0.0
Gd178 Gd 0.74354 0.43333 0.81388 0.0
Gd179 Gd 0.6213 0.59255 0.85173 0.0
N180 N 0.45965 0.54978 0.83474 0.0
C181 C 0.27522 0.51776 0.81442 0.0
C182 C 0.36964 0.46377 0.84098 0.0
C183 C 0.27699 0.4451 0.83036 0.0
H184 H 0.36723 0.41029 0.85482 0.0
H185 H 0.20648 0.37574 0.83501 0.0
H186 H 0.99227 0.61334 0.82642 0.0
H187 H 0.79075 0.83575 0.83802 0.0
H188 H 0.13919 0.62352 0.84855 0.0
H189 H 0.20296 0.50363 0.80653 0.0
H190 H 0.29575 0.6789 0.78752 0.0
H191 H 0.56213 0.18809 0.81571 0.0
H192 H 0.64071 0.9576 0.79297 0.0
H193 H 0.79642 0.98024 0.81443 0.0
H194 H 0.02263 0.28055 0.87631 0.0
H195 H 0.45447 0.84439 0.7828 0.0
H196 H 0.67963 0.02203 0.85573 0.0
H197 H 0.53803 0.02464 0.83277 0.0
N198 N 0.71412 0.27599 0.82942 0.0
C199 C 0.79343 0.27641 0.8417 0.0
C200 C 0.62352 0.18736 0.82599 0.0
C201 C 0.69032 0.09375 0.84836 0.0
C202 C 0.61004 0.09494 0.83549 0.0
C203 C 0.7836 0.18497 0.85148 0.0
H204 H 0.86072 0.11784 0.87161 0.0
N205 N 0.89061 0.45651 0.83551 0.0
C206 C 0.88396 0.36915 0.8449 0.0
C207 C 0.05987 0.46441 0.85902 0.0
C208 C 0.96806 0.37121 0.85719 0.0
C209 C 0.98211 0.54623 0.83601 0.0
C210 C 0.06723 0.55191 0.8481 0.0
O211 O 0.66253 0.63055 0.81016 0.0
O212 O 0.63068 0.47377 0.79779 0.0
O213 O 0.84357 0.48013 0.78109 0.0
O214 O 0.7129 0.3269 0.78282 0.0
O215 O 0.52524 0.41792 0.8515 0.0
O216 O 0.57195 0.371 0.81402 0.0
O217 O 0.69999 0.38695 0.85481 0.0
O218 O 0.72884 0.54228 0.86659 0.0
O219 O 0.53744 0.57179 0.88774 0.0
O220 O 0.66878 0.71933 0.87723 0.0
O221 O 0.8387 0.60807 0.81484 0.0
O222 O 0.79147 0.65259 0.85229 0.0
C223 C 0.65208 0.56654 0.79204 0.0
C224 C 0.50986 0.35002 0.83362 0.0
C225 C 0.85467 0.35004 0.75875 0.0
C226 C 0.89015 0.27623 0.72165 0.0
C227 C 0.9957 0.31604 0.75943 0.0
C228 C 0.93681 0.3515 0.77157 0.0
C229 C 0.97316 0.27927 0.73452 0.0
C230 C 0.83121 0.31161 0.73401 0.0
C231 C 0.79372 0.39086 0.77018 0.0
C232 C 0.95876 0.28014 0.86682 0.0
C233 C 0.8667 0.1874 0.86406 0.0
H234 H 0.12628 0.46907 0.86821 0.0
C235 C 0.70167 0.44823 0.87256 0.0
C236 C 0.85259 0.67599 0.83253 0.0
C237 C 0.5881 0.71898 0.91654 0.0
C238 C 0.51637 0.71441 0.95828 0.0
C239 C 0.62928 0.87756 0.93818 0.0
C240 C 0.63931 0.82669 0.91729 0.0
C241 C 0.56775 0.82191 0.95851 0.0
C242 C 0.52726 0.66278 0.93731 0.0
C243 C 0.59716 0.66783 0.89361 0.0
H244 H 0.05941 0.31772 0.7693 0.0
H245 H 0.95592 0.38085 0.79073 0.0
H246 H 0.01986 0.25253 0.72539 0.0
H247 H 0.76834 0.31181 0.7241 0.0
H248 H 0.66865 0.96041 0.93851 0.0
H249 H 0.68634 0.87198 0.90156 0.0
H250 H 0.56035 0.86286 0.97452 0.0
H251 H 0.48708 0.5798 0.93697 0.0
H252 H 0.11468 0.74875 0.20496 0.0
H253 H 0.02828 0.14779 0.12393 0.0
H254 H 0.04014 0.7112 0.12525 0.0
H255 H 0.11 0.18634 0.20321 0.0
H256 H 0.0306 0.98669 0.12392 0.0
H257 H 0.11243 0.90946 0.2046 0.0
C258 C 0.0982 0.77452 0.18737 0.0
C259 C 0.07806 0.71681 0.16509 0.0
C260 C 0.04809 0.03057 0.1413 0.0
C261 C 0.07446 0.9001 0.16456 0.0
C262 C 0.0466 0.12235 0.14131 0.0
C263 C 0.06895 0.18054 0.16358 0.0
C264 C 0.07211 0.99696 0.16372 0.0
C265 C 0.09262 0.14425 0.18555 0.0
C266 C 0.09665 0.86612 0.18717 0.0
C267 C 0.05604 0.75324 0.14289 0.0
N268 N 0.09354 0.05485 0.18506 0.0
N269 N 0.05487 0.84262 0.14318 0.0
H270 H 0.37431 0.09365 0.46038 0.0
H271 H 0.8786 0.9829 0.54123 0.0
H272 H 0.31837 0.97726 0.53694 0.0
H273 H 0.91841 0.06367 0.46192 0.0
H274 H 0.04206 0.98496 0.54053 0.0
H275 H 0.2098 0.08892 0.46107 0.0
C276 C 0.32758 0.06722 0.47733 0.0
C277 C 0.36043 0.03608 0.49863 0.0
C278 C 0.01482 0.00209 0.52328 0.0
C279 C 0.17202 0.03023 0.49957 0.0
C280 C 0.92145 1.00065 0.52367 0.0
C281 C 0.8847 0.02305 0.50162 0.0
C282 C 0.07202 0.02668 0.50071 0.0
C283 C 0.94388 0.04645 0.47944 0.0
C284 C 0.23356 0.0643 0.4777 0.0
C285 C 0.29637 0.00207 0.52005 0.0
N286 N 0.03454 0.04786 0.47957 0.0
N287 N 0.20546 1.00025 0.51998 0.0
H288 H 0.92986 0.81548 0.87116 0.0
H289 H 0.42098 0.22154 0.79335 0.0
H290 H 0.99435 0.76535 0.79437 0.0
H291 H 0.37565 0.25419 0.87287 0.0
H292 H 0.26131 0.05822 0.79287 0.0
H293 H 0.08823 0.9799 0.87146 0.0
C294 C 0.97731 0.83891 0.85432 0.0
C295 C 0.94876 0.77608 0.8327 0.0
C296 C 0.28608 0.10101 0.81043 0.0
C297 C 0.13081 0.96505 0.833 0.0
C298 C 0.37743 0.19441 0.81076 0.0
C299 C 0.41185 0.25182 0.83323 0.0
C300 C 0.22809 0.06451 0.8327 0.0
C301 C 0.35169 0.21285 0.8551 0.0
C302 C 0.06797 0.93297 0.85456 0.0
C303 C 0.0135 0.81096 0.81149 0.0
N304 N 0.26266 0.12159 0.85429 0.0
N305 N 0.10151 0.90316 0.81217 0.0
H306 H 0.3508 0.72244 0.97491 0.0
H307 H 0.32356 0.46065 0.10776 0.0
H308 H 0.53352 0.58302 0.99109 0.0
H309 H 0.10192 0.54295 0.08268 0.0
H310 H 0.40058 0.50066 0.06539 0.0
H311 H 0.25575 0.65133 0.01416 0.0
C312 C 0.36966 0.6754 0.98668 0.0
C313 C 0.44972 0.65838 0.97993 0.0
C314 C 0.33465 0.50919 0.06917 0.0
C315 C 0.34314 0.57847 0.02517 0.0
C316 C 0.29113 0.48713 0.09341 0.0
C317 C 0.20741 0.50045 0.09898 0.0
C318 C 0.29416 0.54493 0.05043 0.0
C319 C 0.16712 0.53269 0.07943 0.0
C320 C 0.31567 0.63493 0.00909 0.0
C321 C 0.47174 0.59722 0.99572 0.0
N322 N 0.21136 0.55459 0.05617 0.0
N323 N 0.41954 0.56043 0.01787 0.0
H324 H 0.78654 0.54889 0.34836 0.0
H325 H 0.07873 0.39594 0.24573 0.0
H326 H 0.97531 0.41749 0.36638 0.0
H327 H 0.85714 0.48457 0.22504 0.0
H328 H 0.0559 0.42377 0.29006 0.0
H329 H 0.8266 0.54723 0.30326 0.0
C330 C 0.83749 0.52106 0.34284 0.0
C331 C 0.87701 0.48242 0.36105 0.0
C332 C 0.01225 0.43744 0.27589 0.0
C333 C 0.92242 0.47963 0.30972 0.0
C334 C 0.02541 0.42171 0.2505 0.0
C335 C 0.96959 0.43775 0.23163 0.0
C336 C 0.9423 0.46909 0.28264 0.0
C337 C 0.90143 0.47092 0.23902 0.0
C338 C 0.85969 0.51944 0.31713 0.0
C339 C 0.94205 0.44661 0.35291 0.0
N340 N 0.88938 0.48521 0.264 0.0
N341 N 0.96233 0.44573 0.32789 0.0
H342 H 0.59211 0.43624 0.75171 0.0
H343 H 0.55372 0.82059 0.65392 0.0
H344 H 0.67803 0.74661 0.77186 0.0
H345 H 0.39744 0.49235 0.64539 0.0
H346 H 0.62881 0.80428 0.69385 0.0
H347 H 0.55115 0.4661 0.7092 0.0
C348 C 0.60266 0.51098 0.74722 0.0
C349 C 0.63621 0.58835 0.76564 0.0
C350 C 0.5788 0.7361 0.68307 0.0
C351 C 0.58941 0.62304 0.71672 0.0
C352 C 0.53661 0.74542 0.6603 0.0
C353 C 0.4689 0.6575 0.64659 0.0
C354 C 0.55392 0.63834 0.69181 0.0
C355 C 0.44851 0.5618 0.6556 0.0
C356 C 0.57907 0.52788 0.72288 0.0
C357 C 0.64999 0.68408 0.75846 0.0
N358 N 0.49059 0.55478 0.67764 0.0
N359 N 0.62573 0.69861 0.73456 0.0
H360 H 0.70634 0.56014 0.91374 0.0
H361 H 0.55733 0.10678 0.0133 0.0
H362 H 0.64093 0.25734 0.89186 0.0
H363 H 0.67439 0.42279 0.034 0.0
H364 H 0.56142 0.15322 0.96857 0.0
H365 H 0.67 0.50381 0.95767 0.0
C366 C 0.68401 0.4816 0.91816 0.0
C367 C 0.6774 0.41354 0.89912 0.0
C368 C 0.58524 0.21214 0.98294 0.0
C369 C 0.63608 0.34851 0.94953 0.0
C370 C 0.58215 0.18554 0.00843 0.0
C371 C 0.61635 0.26131 0.02727 0.0
C372 C 0.62204 0.31502 0.97636 0.0
C373 C 0.64859 0.36235 0.01999 0.0
C374 C 0.66334 0.44948 0.94329 0.0
C375 C 0.64771 0.31255 0.90599 0.0
N376 N 0.65111 0.38632 0.99512 0.0
N377 N 0.62859 0.28316 0.93068 0.0
H378 H 0.37506 0.61014 0.31815 0.0
H379 H 0.6953 0.0523 0.41843 0.0
H380 H 0.62368 0.90933 0.29778 0.0
H381 H 0.40844 0.78257 0.4371 0.0
H382 H 0.67052 0.99912 0.37425 0.0
H383 H 0.38613 0.6692 0.36181 0.0
C384 C 0.43144 0.68848 0.32275 0.0
C385 C 0.49889 0.75467 0.30416 0.0
C386 C 0.61268 0.95151 0.38796 0.0
C387 C 0.51279 0.82214 0.35429 0.0
C388 C 0.6268 0.98179 0.41326 0.0
C389 C 0.55455 0.92094 0.43165 0.0
C390 C 0.52598 0.85909 0.38086 0.0
C391 C 0.46687 0.83096 0.42368 0.0
C392 C 0.43789 0.72196 0.34774 0.0
C393 C 0.57136 0.85484 0.31147 0.0
N394 N 0.45546 0.80217 0.39889 0.0
N395 N 0.57663 0.88523 0.33593 0.0
H396 H 0.02104 0.32999 0.68115 0.0
H397 H 0.57081 0.01177 0.58152 0.0
H398 H 0.70341 0.14057 0.70183 0.0
H399 H 0.87233 0.25177 0.55958 0.0
H400 H 0.625 0.03975 0.62576 0.0
H401 H 0.97467 0.28278 0.6366 0.0
C402 C 0.94184 0.27728 0.67633 0.0
C403 C 0.86575 0.23964 0.69511 0.0
C404 C 0.67937 0.0863 0.61128 0.0
C405 C 0.81216 0.18589 0.64437 0.0
C406 C 0.64849 0.07037 0.58599 0.0
C407 C 0.71682 0.13027 0.56683 0.0
C408 C 0.77947 0.16255 0.61752 0.0
C409 C 0.81684 0.20445 0.57377 0.0
C410 C 0.91532 0.25099 0.65093 0.0
C411 C 0.76416 0.17224 0.68786 0.0
N412 N 0.84508 0.21874 0.59858 0.0
N413 N 0.7403 0.14779 0.66307 0.0
loop_
_geom_bond_atom_site_label_1
_geom_bond_atom_site_label_2
_geom_bond_distance
_geom_bond_site_symmetry_2
_ccdc_geom_bond_type
C0 C2 1.422 . S
C0 C4 1.415 . S
C0 N6 1.369 . S
C1 C2 1.421 . S
C1 C3 1.417 . S
C1 C13 1.422 . S
C2 C0 1.422 . S
C2 C1 1.421 . S
C2 N12 1.359 . S
C3 C1 1.417 . S
C3 C5 1.329 . S
C3 H22 0.930 . S
C4 C0 1.415 . S
C4 C5 1.437 . S
C4 C8 1.413 . S
C5 C3 1.329 . S
C5 C4 1.437 . S
C5 H27 0.929 . S
N6 C0 1.369 . S
N6 C7 1.338 . S
N6 Gd11 2.622 . S
C7 N6 1.338 . S
C7 C9 1.378 . S
C7 H19 0.929 . S
C8 C4 1.413 . S
C8 C9 1.348 . S
C8 H24 0.931 . S
C9 C7 1.378 . S
C9 C8 1.348 . S
C9 H25 0.930 . S
Gd10 N30 2.622 . S
Gd10 N37 2.570 . S
Gd10 O44 2.353 1_655 S
Gd10 O45 2.468 . S
Gd10 O46 2.427 . S
Gd10 O48 2.388 . S
Gd10 O49 2.386 . S
Gd10 O53 2.307 . S
Gd10 C63 2.805 . S
Gd11 N6 2.622 . S
Gd11 N12 2.570 . S
Gd11 O43 2.386 . S
Gd11 O47 2.307 . S
Gd11 O50 2.353 1_455 S
Gd11 O51 2.468 . S
Gd11 O52 2.427 . S
Gd11 O54 2.388 . S
Gd11 C75 2.805 . S
N12 C2 1.359 . S
N12 Gd11 2.570 . S
N12 C14 1.343 . S
C13 C1 1.422 . S
C13 C15 1.321 . S
C13 H21 0.931 . S
C14 N12 1.343 . S
C14 C15 1.390 . S
C14 H16 0.931 . S
C15 C13 1.321 . S
C15 C14 1.390 . S
C15 H17 0.930 . S
H16 C14 0.931 . S
H17 C15 0.930 . S
H18 C41 0.931 . S
H19 C7 0.929 . S
H20 C42 0.930 . S
H21 C13 0.931 . S
H22 C3 0.930 . S
H23 C32 0.929 . S
H24 C8 0.931 . S
H25 C9 0.930 . S
H26 C64 0.930 . S
H27 C5 0.929 . S
H28 C33 0.931 . S
H29 C34 0.930 . S
N30 Gd10 2.622 . S
N30 C31 1.369 . S
N30 C32 1.338 . S
C31 N30 1.369 . S
C31 C35 1.415 . S
C31 C38 1.422 . S
C32 H23 0.929 . S
C32 N30 1.338 . S
C32 C34 1.378 . S
C33 H28 0.931 . S
C33 C34 1.348 . S
C33 C35 1.413 . S
C34 H29 0.930 . S
C34 C32 1.378 . S
C34 C33 1.348 . S
C35 C31 1.415 . S
C35 C33 1.413 . S
C35 C65 1.437 . S
H36 C65 0.929 . S
N37 Gd10 2.570 . S
N37 C38 1.359 . S
N37 C41 1.343 . S
C38 C31 1.422 . S
C38 N37 1.359 . S
C38 C40 1.421 . S
C39 C40 1.422 . S
C39 C42 1.321 . S
C39 H66 0.931 . S
C40 C38 1.421 . S
C40 C39 1.422 . S
C40 C64 1.417 . S
C41 H18 0.931 . S
C41 N37 1.343 . S
C41 C42 1.390 . S
C42 H20 0.930 . S
C42 C39 1.321 . S
C42 C41 1.390 . S
O43 Gd11 2.386 . S
O43 C55 1.265 . S
O44 Gd10 2.353 1_455 S
O44 C55 1.242 . S
O45 Gd10 2.468 . S
O45 C63 1.263 . S
O46 Gd10 2.427 . S
O46 C63 1.252 . S
O47 Gd11 2.307 . S
O47 C56 1.261 . S
O48 Gd10 2.388 . S
O48 C56 1.252 1_655 S
O49 Gd10 2.386 . S
O49 C67 1.265 . S
O50 Gd11 2.353 1_655 S
O50 C67 1.242 . S
O51 Gd11 2.468 . S
O51 C75 1.263 . S
O52 Gd11 2.427 . S
O52 C75 1.252 . S
O53 Gd10 2.307 . S
O53 C68 1.261 . S
O54 Gd11 2.388 . S
O54 C68 1.252 1_455 S
C55 O43 1.265 . S
C55 O44 1.242 . S
C56 O47 1.261 . S
C56 O48 1.252 1_455 S
C57 C60 1.394 . S
C57 C62 1.370 . S
C57 C63 1.500 . S
C58 C61 1.383 . S
C58 C62 1.395 . S
C59 C60 1.396 . S
C59 C61 1.365 . S
C59 H76 0.929 . S
C60 C57 1.394 . S
C60 C59 1.396 . S
C60 H77 0.930 . S
C61 C58 1.383 . S
C61 C59 1.365 . S
C61 H78 0.931 . S
C62 C57 1.370 . S
C62 C58 1.395 . S
C62 H79 0.930 . S
C63 Gd10 2.805 . S
C63 O45 1.263 . S
C63 O46 1.252 . S
C63 C57 1.500 . S
C64 H26 0.930 . S
C64 C40 1.417 . S
C64 C65 1.329 . S
C65 C35 1.437 . S
C65 H36 0.929 . S
C65 C64 1.329 . S
H66 C39 0.931 . S
C67 O49 1.265 . S
C67 O50 1.242 . S
C68 O53 1.261 . S
C68 O54 1.252 1_655 S
C69 C72 1.394 . S
C69 C74 1.370 . S
C69 C75 1.500 . S
C70 C73 1.383 . S
C70 C74 1.395 . S
C71 C72 1.396 . S
C71 C73 1.365 . S
C71 H80 0.929 . S
C72 C69 1.394 . S
C72 C71 1.396 . S
C72 H81 0.930 . S
C73 C70 1.383 . S
C73 C71 1.365 . S
C73 H82 0.931 . S
C74 C69 1.370 . S
C74 C70 1.395 . S
C74 H83 0.930 . S
C75 Gd11 2.805 . S
C75 O51 1.263 . S
C75 O52 1.252 . S
C75 C69 1.500 . S
H76 C59 0.929 . S
H77 C60 0.930 . S
H78 C61 0.931 . S
H79 C62 0.930 . S
H80 C71 0.929 . S
H81 C72 0.930 . S
H82 C73 0.931 . S
H83 C74 0.930 . S
C84 C86 1.422 . S
C84 C88 1.415 . S
C84 N90 1.369 . S
C85 C86 1.421 . S
C85 C87 1.417 . S
C85 C97 1.422 . S
C86 C84 1.422 . S
C86 C85 1.421 . S
C86 N96 1.359 . S
C87 C85 1.417 . S
C87 C89 1.329 . S
C87 H106 0.930 . S
C88 C84 1.415 . S
C88 C89 1.437 . S
C88 C92 1.413 . S
C89 C87 1.329 . S
C89 C88 1.437 . S
C89 H111 0.929 . S
N90 C84 1.369 . S
N90 C91 1.338 . S
N90 Gd95 2.622 . S
C91 N90 1.338 . S
C91 C93 1.378 . S
C91 H103 0.929 . S
C92 C88 1.413 . S
C92 C93 1.348 . S
C92 H108 0.931 . S
C93 C91 1.378 . S
C93 C92 1.348 . S
C93 H109 0.930 . S
Gd94 N114 2.622 . S
Gd94 N121 2.570 . S
Gd94 O128 2.353 . S
Gd94 O129 2.468 . S
Gd94 O130 2.427 . S
Gd94 O132 2.388 . S
Gd94 O133 2.386 . S
Gd94 O137 2.307 . S
Gd94 C147 2.805 . S
Gd95 N90 2.622 . S
Gd95 N96 2.570 . S
Gd95 O127 2.386 . S
Gd95 O131 2.307 1_565 S
Gd95 O134 2.353 1_565 S
Gd95 O135 2.468 . S
Gd95 O136 2.427 . S
Gd95 O138 2.388 1_565 S
Gd95 C159 2.805 . S
N96 C86 1.359 . S
N96 Gd95 2.570 . S
N96 C98 1.343 . S
C97 C85 1.422 . S
C97 C99 1.321 . S
C97 H105 0.931 . S
C98 N96 1.343 . S
C98 C99 1.390 . S
C98 H100 0.931 . S
C99 C97 1.321 . S
C99 C98 1.390 . S
C99 H101 0.930 . S
H100 C98 0.931 . S
H101 C99 0.930 . S
H102 C125 0.931 . S
H103 C91 0.929 . S
H104 C126 0.930 . S
H105 C97 0.931 . S
H106 C87 0.930 . S
H107 C116 0.929 . S
H108 C92 0.931 . S
H109 C93 0.930 . S
H110 C148 0.930 . S
H111 C89 0.929 . S
H112 C117 0.931 . S
H113 C118 0.930 . S
N114 Gd94 2.622 . S
N114 C115 1.369 . S
N114 C116 1.338 1_655 S
C115 N114 1.369 . S
C115 C119 1.415 1_655 S
C115 C122 1.422 . S
C116 H107 0.929 . S
C116 N114 1.338 1_455 S
C116 C118 1.378 . S
C117 H112 0.931 . S
C117 C118 1.348 . S
C117 C119 1.413 . S
C118 H113 0.930 . S
C118 C116 1.378 . S
C118 C117 1.348 . S
C119 C115 1.415 1_455 S
C119 C117 1.413 . S
C119 C149 1.437 . S
H120 C149 0.929 . S
N121 Gd94 2.570 . S
N121 C122 1.359 . S
N121 C125 1.343 . S
C122 C115 1.422 . S
C122 N121 1.359 . S
C122 C124 1.421 . S
C123 C124 1.422 . S
C123 C126 1.321 . S
C123 H150 0.931 . S
C124 C122 1.421 . S
C124 C123 1.422 . S
C124 C148 1.417 1_655 S
C125 H102 0.931 . S
C125 N121 1.343 . S
C125 C126 1.390 . S
C126 H104 0.930 . S
C126 C123 1.321 . S
C126 C125 1.390 . S
O127 Gd95 2.386 . S
O127 C139 1.265 1_565 S
O128 Gd94 2.353 . S
O128 C139 1.242 . S
O129 Gd94 2.468 . S
O129 C147 1.263 . S
O130 Gd94 2.427 . S
O130 C147 1.252 . S
O131 Gd95 2.307 1_545 S
O131 C140 1.261 . S
O132 Gd94 2.388 . S
O132 C140 1.252 . S
O133 Gd94 2.386 . S
O133 C151 1.265 . S
O134 Gd95 2.353 1_545 S
O134 C151 1.242 . S
O135 Gd95 2.468 . S
O135 C159 1.263 . S
O136 Gd95 2.427 . S
O136 C159 1.252 . S
O137 Gd94 2.307 . S
O137 C152 1.261 . S
O138 Gd95 2.388 1_545 S
O138 C152 1.252 . S
C139 O127 1.265 1_545 S
C139 O128 1.242 . S
C140 O131 1.261 . S
C140 O132 1.252 . S
C141 C144 1.394 . S
C141 C146 1.370 . S
C141 C147 1.500 . S
C142 C145 1.383 . S
C142 C146 1.395 . S
C143 C144 1.396 . S
C143 C145 1.365 . S
C143 H160 0.929 . S
C144 C141 1.394 . S
C144 C143 1.396 . S
C144 H161 0.930 . S
C145 C142 1.383 . S
C145 C143 1.365 . S
C145 H162 0.931 . S
C146 C141 1.370 . S
C146 C142 1.395 . S
C146 H163 0.930 . S
C147 Gd94 2.805 . S
C147 O129 1.263 . S
C147 O130 1.252 . S
C147 C141 1.500 . S
C148 H110 0.930 . S
C148 C124 1.417 1_455 S
C148 C149 1.329 . S
C149 C119 1.437 . S
C149 H120 0.929 . S
C149 C148 1.329 . S
H150 C123 0.931 . S
C151 O133 1.265 . S
C151 O134 1.242 . S
C152 O137 1.261 . S
C152 O138 1.252 . S
C153 C156 1.394 . S
C153 C158 1.370 . S
C153 C159 1.500 . S
C154 C157 1.383 . S
C154 C158 1.395 . S
C155 C156 1.396 . S
C155 C157 1.365 . S
C155 H164 0.929 . S
C156 C153 1.394 . S
C156 C155 1.396 . S
C156 H165 0.930 . S
C157 C154 1.383 . S
C157 C155 1.365 . S
C157 H166 0.931 . S
C158 C153 1.370 . S
C158 C154 1.395 . S
C158 H167 0.930 . S
C159 Gd95 2.805 . S
C159 O135 1.263 . S
C159 O136 1.252 . S
C159 C153 1.500 . S
H160 C143 0.929 . S
H161 C144 0.930 . S
H162 C145 0.931 . S
H163 C146 0.930 . S
H164 C155 0.929 . S
H165 C156 0.930 . S
H166 C157 0.931 . S
H167 C158 0.930 . S
C168 C170 1.422 . S
C168 C172 1.415 . S
C168 N174 1.369 . S
C169 C170 1.421 . S
C169 C171 1.417 . S
C169 C181 1.422 . S
C170 C168 1.422 . S
C170 C169 1.421 . S
C170 N180 1.359 . S
C171 C169 1.417 . S
C171 C173 1.329 . S
C171 H190 0.930 . S
C172 C168 1.415 . S
C172 C173 1.437 . S
C172 C176 1.413 . S
C173 C171 1.329 . S
C173 C172 1.437 . S
C173 H195 0.929 . S
N174 C168 1.369 . S
N174 C175 1.338 . S
N174 Gd179 2.622 . S
C175 N174 1.338 . S
C175 C177 1.378 . S
C175 H187 0.929 . S
C176 C172 1.413 . S
C176 C177 1.348 . S
C176 H192 0.931 . S
C177 C175 1.378 . S
C177 C176 1.348 . S
C177 H193 0.930 . S
Gd178 N198 2.622 . S
Gd178 N205 2.570 . S
Gd178 O212 2.353 . S
Gd178 O213 2.468 . S
Gd178 O214 2.427 . S
Gd178 O216 2.388 . S
Gd178 O217 2.386 . S
Gd178 O221 2.307 . S
Gd178 C231 2.805 . S
Gd179 N174 2.622 . S
Gd179 N180 2.570 . S
Gd179 O211 2.386 . S
Gd179 O215 2.307 . S
Gd179 O218 2.353 . S
Gd179 O219 2.468 . S
Gd179 O220 2.427 . S
Gd179 O222 2.388 . S
Gd179 C243 2.805 . S
N180 C170 1.359 . S
N180 Gd179 2.570 . S
N180 C182 1.343 . S
C181 C169 1.422 . S
C181 C183 1.321 . S
C181 H189 0.931 . S
C182 N180 1.343 . S
C182 C183 1.390 . S
C182 H184 0.931 . S
C183 C181 1.321 . S
C183 C182 1.390 . S
C183 H185 0.930 . S
H184 C182 0.931 . S
H185 C183 0.930 . S
H186 C209 0.931 . S
H187 C175 0.929 . S
H188 C210 0.930 . S
H189 C181 0.931 . S
H190 C171 0.930 . S
H191 C200 0.929 . S
H192 C176 0.931 . S
H193 C177 0.930 . S
H194 C232 0.930 . S
H195 C173 0.929 . S
H196 C201 0.931 . S
H197 C202 0.930 . S
N198 Gd178 2.622 . S
N198 C199 1.369 . S
N198 C200 1.338 . S
C199 N198 1.369 . S
C199 C203 1.415 . S
C199 C206 1.422 . S
C200 H191 0.929 . S
C200 N198 1.338 . S
C200 C202 1.378 1_545 S
C201 H196 0.931 . S
C201 C202 1.348 . S
C201 C203 1.413 1_565 S
C202 H197 0.930 . S
C202 C200 1.378 1_565 S
C202 C201 1.348 . S
C203 C199 1.415 . S
C203 C201 1.413 1_545 S
C203 C233 1.437 . S
H204 C233 0.929 1_565 S
N205 Gd178 2.570 . S
N205 C206 1.359 . S
N205 C209 1.343 . S
C206 C199 1.422 . S
C206 N205 1.359 . S
C206 C208 1.421 . S
C207 C208 1.422 1_455 S
C207 C210 1.321 . S
C207 H234 0.931 . S
C208 C206 1.421 . S
C208 C207 1.422 1_655 S
C208 C232 1.417 . S
C209 H186 0.931 . S
C209 N205 1.343 . S
C209 C210 1.390 1_655 S
C210 H188 0.930 . S
C210 C207 1.321 . S
C210 C209 1.390 1_455 S
O211 Gd179 2.386 . S
O211 C223 1.265 . S
O212 Gd178 2.353 . S
O212 C223 1.242 . S
O213 Gd178 2.468 . S
O213 C231 1.263 . S
O214 Gd178 2.427 . S
O214 C231 1.252 . S
O215 Gd179 2.307 . S
O215 C224 1.261 . S
O216 Gd178 2.388 . S
O216 C224 1.252 . S
O217 Gd178 2.386 . S
O217 C235 1.265 . S
O218 Gd179 2.353 . S
O218 C235 1.242 . S
O219 Gd179 2.468 . S
O219 C243 1.263 . S
O220 Gd179 2.427 . S
O220 C243 1.252 . S
O221 Gd178 2.307 . S
O221 C236 1.261 . S
O222 Gd179 2.388 . S
O222 C236 1.252 . S
C223 O211 1.265 . S
C223 O212 1.242 . S
C224 O215 1.261 . S
C224 O216 1.252 . S
C225 C228 1.394 . S
C225 C230 1.370 . S
C225 C231 1.500 . S
C226 C229 1.383 . S
C226 C230 1.395 . S
C227 C228 1.396 . S
C227 C229 1.365 . S
C227 H244 0.929 . S
C228 C225 1.394 . S
C228 C227 1.396 . S
C228 H245 0.930 . S
C229 C226 1.383 . S
C229 C227 1.365 . S
C229 H246 0.931 . S
C230 C225 1.370 . S
C230 C226 1.395 . S
C230 H247 0.930 . S
C231 Gd178 2.805 . S
C231 O213 1.263 . S
C231 O214 1.252 . S
C231 C225 1.500 . S
C232 H194 0.930 . S
C232 C208 1.417 . S
C232 C233 1.329 . S
C233 C203 1.437 . S
C233 H204 0.929 1_545 S
C233 C232 1.329 . S
H234 C207 0.931 . S
C235 O217 1.265 . S
C235 O218 1.242 . S
C236 O221 1.261 . S
C236 O222 1.252 . S
C237 C240 1.394 . S
C237 C242 1.370 . S
C237 C243 1.500 . S
C238 C241 1.383 . S
C238 C242 1.395 . S
C239 C240 1.396 . S
C239 C241 1.365 . S
C239 H248 0.929 . S
C240 C237 1.394 . S
C240 C239 1.396 . S
C240 H249 0.930 . S
C241 C238 1.383 . S
C241 C239 1.365 . S
C241 H250 0.931 . S
C242 C237 1.370 . S
C242 C238 1.395 . S
C242 H251 0.930 . S
C243 Gd179 2.805 . S
C243 O219 1.263 . S
C243 O220 1.252 . S
C243 C237 1.500 . S
H244 C227 0.929 . S
H245 C228 0.930 . S
H246 C229 0.931 . S
H247 C230 0.930 . S
H248 C239 0.929 . S
H249 C240 0.930 . S
H250 C241 0.931 . S
H251 C242 0.930 . S
H252 C258 0.930 . S
H253 C262 0.930 . S
H254 C267 0.929 . S
H255 C265 0.929 . S
H256 C260 0.929 . S
H257 C266 0.929 . S
C258 H252 0.930 . S
C258 C259 1.367 . S
C258 C266 1.378 . S
C259 C258 1.367 . S
C259 C267 1.433 1_455 S
C260 H256 0.929 . S
C260 C262 1.378 1_565 S
C260 C264 1.350 . S
C261 C264 1.463 1_455 S
C261 C266 1.350 . S
C261 N269 1.427 1_455 S
C262 H253 0.930 . S
C262 C260 1.378 1_545 S
C262 C263 1.367 . S
C263 C262 1.367 . S
C263 C265 1.433 1_655 S
C264 C260 1.350 . S
C264 C261 1.463 1_655 S
C264 N268 1.427 1_665 S
C265 H255 0.929 . S
C265 C263 1.433 1_455 S
C265 N268 1.384 . S
C266 H257 0.929 . S
C266 C258 1.378 . S
C266 C261 1.350 . S
C267 H254 0.929 . S
C267 C259 1.433 1_655 S
C267 N269 1.384 . S
N268 C264 1.427 1_445 S
N268 C265 1.384 . S
N269 C261 1.427 1_655 S
N269 C267 1.384 . S
H270 C276 0.930 . S
H271 C280 0.930 1_565 S
H272 C285 0.929 . S
H273 C283 0.929 . S
H274 C278 0.929 . S
H275 C284 0.929 . S
C276 H270 0.930 . S
C276 C277 1.367 . S
C276 C284 1.378 . S
C277 C276 1.367 . S
C277 C285 1.433 . S
C278 H274 0.929 . S
C278 C280 1.378 1_455 S
C278 C282 1.350 . S
C279 C282 1.463 . S
C279 C284 1.350 . S
C279 N287 1.427 . S
C280 H271 0.930 1_545 S
C280 C278 1.378 1_655 S
C280 C281 1.367 . S
C281 C280 1.367 . S
C281 C283 1.433 1_655 S
C282 C278 1.350 . S
C282 C279 1.463 . S
C282 N286 1.427 . S
C283 H273 0.929 . S
C283 C281 1.433 1_455 S
C283 N286 1.384 . S
C284 H275 0.929 . S
C284 C276 1.378 . S
C284 C279 1.350 . S
C285 H272 0.929 . S
C285 C277 1.433 . S
C285 N287 1.384 . S
N286 C282 1.427 . S
N286 C283 1.384 . S
N287 C279 1.427 . S
N287 C285 1.384 . S
H288 C294 0.931 . S
H289 C298 0.930 . S
H290 C303 0.929 1_655 S
H291 C301 0.929 . S
H292 C296 0.929 . S
H293 C302 0.929 . S
C294 H288 0.931 . S
C294 C295 1.367 1_455 S
C294 C302 1.378 . S
C295 C294 1.367 1_655 S
C295 C303 1.433 1_655 S
C296 H292 0.929 . S
C296 C298 1.378 . S
C296 C300 1.350 1_545 S
C297 C300 1.463 . S
C297 C302 1.350 . S
C297 N305 1.427 . S
C298 H289 0.930 . S
C298 C296 1.378 . S
C298 C299 1.367 . S
C299 C298 1.367 . S
C299 C301 1.433 . S
C300 C296 1.350 1_565 S
C300 C297 1.463 . S
C300 N304 1.427 1_565 S
C301 H291 0.929 . S
C301 C299 1.433 . S
C301 N304 1.384 . S
C302 H293 0.929 . S
C302 C294 1.378 . S
C302 C297 1.350 . S
C303 H290 0.929 1_455 S
C303 C295 1.433 1_455 S
C303 N305 1.384 . S
N304 C300 1.427 1_545 S
N304 C301 1.384 . S
N305 C297 1.427 . S
N305 C303 1.384 . S
H306 C312 0.930 . S
H307 C316 0.930 . S
H308 C321 0.929 . S
H309 C319 0.929 . S
H310 C314 0.929 . S
H311 C320 0.929 . S
C312 H306 0.930 . S
C312 C313 1.367 . S
C312 C320 1.378 1_556 S
C313 C312 1.367 . S
C313 C321 1.433 1_556 S
C314 H310 0.929 . S
C314 C316 1.378 . S
C314 C318 1.350 . S
C315 C318 1.463 . S
C315 C320 1.350 . S
C315 N323 1.427 . S
C316 H307 0.930 . S
C316 C314 1.378 . S
C316 C317 1.367 . S
C317 C316 1.367 . S
C317 C319 1.433 . S
C318 C314 1.350 . S
C318 C315 1.463 . S
C318 N322 1.427 . S
C319 H309 0.929 . S
C319 C317 1.433 . S
C319 N322 1.384 . S
C320 H311 0.929 . S
C320 C312 1.378 1_554 S
C320 C315 1.350 . S
C321 H308 0.929 . S
C321 C313 1.433 1_554 S
C321 N323 1.384 . S
N322 C318 1.427 . S
N322 C319 1.384 . S
N323 C315 1.427 . S
N323 C321 1.384 . S
H324 C330 0.930 . S
H325 C334 0.930 . S
H326 C339 0.929 . S
H327 C337 0.929 . S
H328 C332 0.929 . S
H329 C338 0.929 . S
C330 H324 0.930 . S
C330 C331 1.367 . S
C330 C338 1.378 . S
C331 C330 1.367 . S
C331 C339 1.433 . S
C332 H328 0.929 . S
C332 C334 1.378 . S
C332 C336 1.350 . S
C333 C336 1.463 . S
C333 C338 1.350 . S
C333 N341 1.427 . S
C334 H325 0.930 . S
C334 C332 1.378 . S
C334 C335 1.367 . S
C335 C334 1.367 . S
C335 C337 1.433 . S
C336 C332 1.350 . S
C336 C333 1.463 . S
C336 N340 1.427 . S
C337 H327 0.929 . S
C337 C335 1.433 . S
C337 N340 1.384 . S
C338 H329 0.929 . S
C338 C330 1.378 . S
C338 C333 1.350 . S
C339 H326 0.929 . S
C339 C331 1.433 . S
C339 N341 1.384 . S
N340 C336 1.427 . S
N340 C337 1.384 . S
N341 C333 1.427 . S
N341 C339 1.384 . S
H342 C348 0.930 . S
H343 C352 0.930 . S
H344 C357 0.929 . S
H345 C355 0.929 . S
H346 C350 0.929 . S
H347 C356 0.929 . S
C348 H342 0.930 . S
C348 C349 1.367 . S
C348 C356 1.378 . S
C349 C348 1.367 . S
C349 C357 1.433 . S
C350 H346 0.929 . S
C350 C352 1.378 . S
C350 C354 1.350 . S
C351 C354 1.463 . S
C351 C356 1.350 . S
C351 N359 1.427 . S
C352 H343 0.930 . S
C352 C350 1.378 . S
C352 C353 1.367 . S
C353 C352 1.367 . S
C353 C355 1.433 . S
C354 C350 1.350 . S
C354 C351 1.463 . S
C354 N358 1.427 . S
C355 H345 0.929 . S
C355 C353 1.433 . S
C355 N358 1.384 . S
C356 H347 0.929 . S
C356 C348 1.378 . S
C356 C351 1.350 . S
C357 H344 0.929 . S
C357 C349 1.433 . S
C357 N359 1.384 . S
N358 C354 1.427 . S
N358 C355 1.384 . S
N359 C351 1.427 . S
N359 C357 1.384 . S
H360 C366 0.930 . S
H361 C370 0.930 . S
H362 C375 0.929 . S
H363 C373 0.929 . S
H364 C368 0.929 . S
H365 C374 0.929 . S
C366 H360 0.930 . S
C366 C367 1.367 . S
C366 C374 1.378 . S
C367 C366 1.367 . S
C367 C375 1.433 . S
C368 H364 0.929 . S
C368 C370 1.378 1_556 S
C368 C372 1.350 . S
C369 C372 1.463 . S
C369 C374 1.350 . S
C369 N377 1.427 . S
C370 H361 0.930 . S
C370 C368 1.378 1_554 S
C370 C371 1.367 . S
C371 C370 1.367 . S
C371 C373 1.433 . S
C372 C368 1.350 . S
C372 C369 1.463 . S
C372 N376 1.427 . S
C373 H363 0.929 . S
C373 C371 1.433 . S
C373 N376 1.384 1_554 S
C374 H365 0.929 . S
C374 C366 1.378 . S
C374 C369 1.350 . S
C375 H362 0.929 . S
C375 C367 1.433 . S
C375 N377 1.384 . S
N376 C372 1.427 . S
N376 C373 1.384 1_556 S
N377 C369 1.427 . S
N377 C375 1.384 . S
H378 C384 0.930 . S
H379 C388 0.930 . S
H380 C393 0.929 . S
H381 C391 0.929 . S
H382 C386 0.923 1_545 S
H383 C392 0.929 . S
C384 H378 0.930 . S
C384 C385 1.367 . S
C384 C392 1.378 . S
C385 C384 1.367 . S
C385 C393 1.433 . S
C386 H382 0.923 1_565 S
C386 C388 1.377 1_565 S
C386 C390 1.356 . S
C387 C390 1.463 . S
C387 C392 1.350 . S
C387 N395 1.427 . S
C388 H379 0.930 . S
C388 C386 1.377 1_545 S
C388 C389 1.367 1_545 S
C389 C388 1.367 1_565 S
C389 C391 1.433 . S
C390 C386 1.356 . S
C390 C387 1.463 . S
C390 N394 1.427 . S
C391 H381 0.929 . S
C391 C389 1.433 . S
C391 N394 1.384 . S
C392 H383 0.929 . S
C392 C384 1.378 . S
C392 C387 1.350 . S
C393 H380 0.929 . S
C393 C385 1.433 . S
C393 N395 1.384 . S
N394 C390 1.427 . S
N394 C391 1.384 . S
N395 C387 1.427 . S
N395 C393 1.384 . S
H396 C402 0.930 . S
H397 C406 0.930 . S
H398 C411 0.929 . S
H399 C409 0.929 . S
H400 C404 0.929 . S
H401 C410 0.929 . S
C402 H396 0.930 . S
C402 C403 1.367 1_455 S
C402 C410 1.378 . S
C403 C402 1.367 1_655 S
C403 C411 1.433 . S
C404 H400 0.929 . S
C404 C406 1.378 . S
C404 C408 1.350 . S
C405 C408 1.463 . S
C405 C410 1.350 1_655 S
C405 N413 1.427 . S
C406 H397 0.930 . S
C406 C404 1.378 . S
C406 C407 1.367 . S
C407 C406 1.367 . S
C407 C409 1.433 . S
C408 C404 1.350 . S
C408 C405 1.463 . S
C408 N412 1.427 . S
C409 H399 0.929 . S
C409 C407 1.433 . S
C409 N412 1.384 . S
C410 H401 0.929 . S
C410 C402 1.378 . S
C410 C405 1.350 1_455 S
C411 H398 0.929 . S
C411 C403 1.433 . S
C411 N413 1.384 . S
N412 C408 1.427 . S
N412 C409 1.384 . S
N413 C405 1.427 . S
N413 C411 1.384 . S
C259 C56 1.547 . S
C263 C68 1.547 . S
C277 C152 1.548 . S
C281 C140 1.548 . S
C295 C236 1.536 . S
C299 C224 1.536 . S
C313 C238 1.424 . S
C317 C55 1.565 . S
C331 C142 1.016 . S
C335 C67 1.413 . S
C349 C223 1.575 . S
C353 C154 1.430 . S
C367 C235 1.416 . S
C371 C58 1.043 . S
C385 C70 1.417 . S
C389 C139 1.567 1_565 S
C403 C226 1.052 . S
C407 C151 1.411 . S
