# Generated by pormake.
# Topology zfv, (5)-cn, num edge types: 1
# Building blocks:
#     Node 0, Type 0, BuildingBlock: XOMCOT_clean_sbu_0, # of connection points: 5
#     Node 1, Type 0, BuildingBlock: XOMCOT_clean_sbu_0, # of connection points: 5
#     Node 2, Type 0, BuildingBlock: XOMCOT_clean_sbu_0, # of connection points: 5
#     Node 3, Type 0, BuildingBlock: XOMCOT_clean_sbu_0, # of connection points: 5
#     Node 4, Type 0, BuildingBlock: XOMCOT_clean_sbu_0, # of connection points: 5
#     Node 5, Type 0, BuildingBlock: XOMCOT_clean_sbu_0, # of connection points: 5
#     Node 6, Type 0, BuildingBlock: XOMCOT_clean_sbu_0, # of connection points: 5
#     Node 7, Type 0, BuildingBlock: XOMCOT_clean_sbu_0, # of connection points: 5
#     Node 8, Type 0, BuildingBlock: XOMCOT_clean_sbu_0, # of connection points: 5
#     Node 9, Type 0, BuildingBlock: XOMCOT_clean_sbu_0, # of connection points: 5
#     Node 10, Type 0, BuildingBlock: XOMCOT_clean_sbu_0, # of connection points: 5
#     Node 11, Type 0, BuildingBlock: XOMCOT_clean_sbu_0, # of connection points: 5
#     Node 12, Type 0, BuildingBlock: XOMCOT_clean_sbu_0, # of connection points: 5
#     Node 13, Type 0, BuildingBlock: XOMCOT_clean_sbu_0, # of connection points: 5
#     Node 14, Type 0, BuildingBlock: XOMCOT_clean_sbu_0, # of connection points: 5
#     Node 15, Type 0, BuildingBlock: XOMCOT_clean_sbu_0, # of connection points: 5
#     Edge 16, Type (0, 0), BuildingBlock: XUDNAN_clean_linker_2, # of connection points: 2
#     Edge 17, Type (0, 0), BuildingBlock: XUDNAN_clean_linker_2, # of connection points: 2
#     Edge 18, Type (0, 0), BuildingBlock: XUDNAN_clean_linker_2, # of connection points: 2
#     Edge 19, Type (0, 0), BuildingBlock: XUDNAN_clean_linker_2, # of connection points: 2
#     Edge 20, Type (0, 0), BuildingBlock: XUDNAN_clean_linker_2, # of connection points: 2
#     Edge 21, Type (0, 0), BuildingBlock: XUDNAN_clean_linker_2, # of connection points: 2
#     Edge 22, Type (0, 0), BuildingBlock: XUDNAN_clean_linker_2, # of connection points: 2
#     Edge 23, Type (0, 0), BuildingBlock: XUDNAN_clean_linker_2, # of connection points: 2
#     Edge 24, Type (0, 0), BuildingBlock: XUDNAN_clean_linker_2, # of connection points: 2
#     Edge 25, Type (0, 0), BuildingBlock: XUDNAN_clean_linker_2, # of connection points: 2
#     Edge 26, Type (0, 0), BuildingBlock: XUDNAN_clean_linker_2, # of connection points: 2
#     Edge 27, Type (0, 0), BuildingBlock: XUDNAN_clean_linker_2, # of connection points: 2
#     Edge 28, Type (0, 0), BuildingBlock: XUDNAN_clean_linker_2, # of connection points: 2
#     Edge 29, Type (0, 0), BuildingBlock: XUDNAN_clean_linker_2, # of connection points: 2
#     Edge 30, Type (0, 0), BuildingBlock: XUDNAN_clean_linker_2, # of connection points: 2
#     Edge 31, Type (0, 0), BuildingBlock: XUDNAN_clean_linker_2, # of connection points: 2
#     Edge 32, Type (0, 0), BuildingBlock: XUDNAN_clean_linker_2, # of connection points: 2
#     Edge 33, Type (0, 0), BuildingBlock: XUDNAN_clean_linker_2, # of connection points: 2
#     Edge 34, Type (0, 0), BuildingBlock: XUDNAN_clean_linker_2, # of connection points: 2
#     Edge 35, Type (0, 0), BuildingBlock: XUDNAN_clean_linker_2, # of connection points: 2
#     Edge 36, Type (0, 0), BuildingBlock: XUDNAN_clean_linker_2, # of connection points: 2
#     Edge 37, Type (0, 0), BuildingBlock: XUDNAN_clean_linker_2, # of connection points: 2
#     Edge 38, Type (0, 0), BuildingBlock: XUDNAN_clean_linker_2, # of connection points: 2
#     Edge 39, Type (0, 0), BuildingBlock: XUDNAN_clean_linker_2, # of connection points: 2
#     Edge 40, Type (0, 0), BuildingBlock: XUDNAN_clean_linker_2, # of connection points: 2
#     Edge 41, Type (0, 0), BuildingBlock: XUDNAN_clean_linker_2, # of connection points: 2
#     Edge 42, Type (0, 0), BuildingBlock: XUDNAN_clean_linker_2, # of connection points: 2
#     Edge 43, Type (0, 0), BuildingBlock: XUDNAN_clean_linker_2, # of connection points: 2
#     Edge 44, Type (0, 0), BuildingBlock: XUDNAN_clean_linker_2, # of connection points: 2
#     Edge 45, Type (0, 0), BuildingBlock: XUDNAN_clean_linker_2, # of connection points: 2
#     Edge 46, Type (0, 0), BuildingBlock: XUDNAN_clean_linker_2, # of connection points: 2
#     Edge 47, Type (0, 0), BuildingBlock: XUDNAN_clean_linker_2, # of connection points: 2
#     Edge 48, Type (0, 0), BuildingBlock: XUDNAN_clean_linker_2, # of connection points: 2
#     Edge 49, Type (0, 0), BuildingBlock: XUDNAN_clean_linker_2, # of connection points: 2
#     Edge 50, Type (0, 0), BuildingBlock: XUDNAN_clean_linker_2, # of connection points: 2
#     Edge 51, Type (0, 0), BuildingBlock: XUDNAN_clean_linker_2, # of connection points: 2
#     Edge 52, Type (0, 0), BuildingBlock: XUDNAN_clean_linker_2, # of connection points: 2
#     Edge 53, Type (0, 0), BuildingBlock: XUDNAN_clean_linker_2, # of connection points: 2
#     Edge 54, Type (0, 0), BuildingBlock: XUDNAN_clean_linker_2, # of connection points: 2
#     Edge 55, Type (0, 0), BuildingBlock: XUDNAN_clean_linker_2, # of connection points: 2
# Relax obj value: 0.143
# Max RMSD: 0.143
# Mean RMSD: 0.143
data_MOF--net-zfv--node1-XOMCOT_clean_sbu_0--edge1-XUDNAN_clean_linker_2
_symmetry_space_group_name_H-M    P1
_symmetry_Int_Tables_number       1
_symmetry_cell_setting            triclinic
loop_
_symmetry_equiv_pos_as_xyz
'x, y, z'
_cell_length_a     76.333799
_cell_length_b     76.333111
_cell_length_c     17.733692
_cell_angle_alpha  89.924637
_cell_angle_beta   89.959086
_cell_angle_gamma 90.01616
loop_
_atom_site_label
_atom_site_type_symbol
_atom_site_fract_x
_atom_site_fract_y
_atom_site_fract_z
_atom_type_partial_charge
Co0 Co 0.05682 0.5947 0.05896 0.0
C1 C 0.05711 0.59932 0.89042 0.0
C2 C 0.08258 0.5951 0.9388 0.0
C3 C 0.08452 0.59735 0.86257 0.0
N4 N 0.0655 0.59657 0.95667 0.0
N5 N 0.06858 0.59999 0.83213 0.0
H6 H 0.0431 0.60114 0.88517 0.0
H7 H 0.09296 0.5925 0.97871 0.0
C8 C 0.07952 0.62252 0.13332 0.0
O9 O 0.06587 0.62897 0.16902 0.0
N10 N 0.04867 0.59224 0.16347 0.0
C11 C 0.03281 0.58666 0.18753 0.0
C12 C 0.03241 0.58678 0.26519 0.0
C13 C 0.05796 0.59456 0.22769 0.0
N14 N 0.0482 0.59198 0.29045 0.0
C15 C 0.02493 0.61468 0.05642 0.0
C16 C 0.04028 0.64698 0.03273 0.0
C17 C 0.02274 0.64624 0.05627 0.0
C18 C 0.01479 0.6298 0.06354 0.0
C19 C 0.04981 0.63142 0.02444 0.0
N20 N 0.04256 0.61571 0.04454 0.0
H21 H 0.01865 0.60217 0.06314 0.0
H22 H 0.06334 0.63214 1.00672 0.0
H23 H 0.02219 0.58243 0.15177 0.0
H24 H 0.07174 0.59771 0.22908 0.0
O25 O 0.04003 0.57735 0.02711 0.0
O26 O 0.06708 0.57155 0.06548 0.0
O27 O 0.07791 0.60892 0.0918 0.0
C28 C 0.05211 0.56574 0.04066 0.0
H29 H 0.09674 0.59697 0.8315 0.0
H30 H 0.02122 0.58361 0.30016 0.0
H31 H 0.0467 0.65945 0.02347 0.0
H32 H 0.00112 0.62862 0.07917 0.0
Co33 Co 0.70903 0.76495 0.32486 0.0
C34 C 0.70911 0.76406 0.1574 0.0
C35 C 0.69477 0.78618 0.19889 0.0
C36 C 0.69515 0.787 0.12115 0.0
N37 N 0.70341 0.77171 0.22171 0.0
N38 N 0.70429 0.77316 0.09509 0.0
H39 H 0.71708 0.75234 0.15632 0.0
H40 H 0.68937 0.79601 0.23589 0.0
C41 C 0.67789 0.7778 0.41595 0.0
O42 O 0.67817 0.76368 0.45838 0.0
N43 N 0.71529 0.75803 0.42819 0.0
C44 C 0.72411 0.74328 0.44609 0.0
C45 C 0.72763 0.74309 0.52173 0.0
C46 C 0.71419 0.76699 0.49444 0.0
N47 N 0.72138 0.75791 0.55258 0.0
C48 C 0.70174 0.72804 0.30899 0.0
C49 C 0.66574 0.73073 0.31839 0.0
C50 C 0.67343 0.71412 0.32657 0.0
C51 C 0.69166 0.71285 0.31669 0.0
C52 C 0.67636 0.74552 0.30919 0.0
N53 N 0.69419 0.7442 0.31329 0.0
H54 H 0.71569 0.72676 0.3014 0.0
H55 H 0.67011 0.75804 0.30132 0.0
H56 H 0.72862 0.73353 0.40687 0.0
H57 H 0.70874 0.78001 0.49984 0.0
O58 O 0.73141 0.75576 0.29033 0.0
O59 O 0.72663 0.783 0.32812 0.0
O60 O 0.68886 0.77975 0.36208 0.0
C61 C 0.73757 0.77144 0.3022 0.0
H62 H 0.69002 0.79753 0.08673 0.0
H63 H 0.73452 0.73284 0.55182 0.0
H64 H 0.65171 0.73254 0.32231 0.0
H65 H 0.69819 0.70027 0.31663 0.0
Co66 Co 0.5331 0.40235 0.57642 0.0
C67 C 0.5276 0.4055 0.40828 0.0
C68 C 0.53333 0.37933 0.44489 0.0
C69 C 0.53121 0.37919 0.36808 0.0
N70 N 0.53116 0.3958 0.47057 0.0
N71 N 0.52764 0.39562 0.34485 0.0
H72 H 0.52534 0.41948 0.4086 0.0
H73 H 0.53646 0.36814 0.47974 0.0
C74 C 0.50933 0.37361 0.65048 0.0
O75 O 0.51183 0.37806 0.72096 0.0
N76 N 0.53581 0.40914 0.6818 0.0
C77 C 0.55162 0.41309 0.71127 0.0
C78 C 0.54981 0.41659 0.78646 0.0
C79 C 0.52434 0.41151 0.73931 0.0
N80 N 0.53273 0.41545 0.80443 0.0
C81 C 0.56804 0.39021 0.54225 0.0
C82 C 0.56953 0.36603 0.65849 0.0
C83 C 0.58456 0.369 0.61521 0.0
C84 C 0.58365 0.38094 0.55513 0.0
C85 C 0.55426 0.37529 0.64315 0.0
N86 N 0.55367 0.38742 0.58658 0.0
H87 H 0.56758 0.39996 0.49801 0.0
H88 H 0.54326 0.37343 0.6801 0.0
H89 H 0.56385 0.41282 0.68048 0.0
H90 H 0.51032 0.40975 0.73467 0.0
O91 O 0.54422 0.42435 0.55013 0.0
O92 O 0.5156 0.42029 0.56316 0.0
O93 O 0.51693 0.38171 0.59643 0.0
C94 C 0.5285 0.43101 0.54948 0.0
H95 H 0.53215 0.36778 0.33213 0.0
H96 H 0.56035 0.41889 0.82611 0.0
H97 H 0.56969 0.35684 0.70513 0.0
H98 H 0.59505 0.38358 0.52052 0.0
Co99 Co 0.89252 0.22051 0.83207 0.0
C100 C 0.89707 0.22397 0.66628 0.0
C101 C 0.906 0.19904 0.70677 0.0
C102 C 0.90744 0.19928 0.6293 0.0
N103 N 0.89957 0.21455 0.72998 0.0
N104 N 0.90174 0.21493 0.60359 0.0
H105 H 0.89127 0.2369 0.66593 0.0
H106 H 0.90893 0.18807 0.74327 0.0
C107 C 0.92472 0.20747 0.91476 0.0
O108 O 0.92662 0.22264 0.94872 0.0
N109 N 0.88463 0.2263 0.93558 0.0
C110 C 0.87138 0.23749 0.95169 0.0
C111 C 0.87016 0.2398 0.02804 0.0
C112 C 0.89048 0.22113 1.00473 0.0
N113 N 0.88225 0.22967 0.06157 0.0
C114 C 0.90193 0.25659 0.854 0.0
C115 C 0.93704 0.25305 0.81895 0.0
C116 C 0.93126 0.26842 0.85418 0.0
C117 C 0.91335 0.27044 0.86835 0.0
C118 C 0.92512 0.23938 0.80642 0.0
N119 N 0.9081 0.24079 0.83 0.0
H120 H 0.8882 0.25849 0.86457 0.0
H121 H 0.92987 0.22722 0.78286 0.0
H122 H 0.86337 0.24428 0.91088 0.0
H123 H 0.90055 0.21152 0.01452 0.0
O124 O 0.87161 0.23127 0.79176 0.0
O125 O 0.87395 0.20336 0.82544 0.0
O126 O 0.91177 0.20463 0.87081 0.0
C127 C 0.86425 0.21596 0.79872 0.0
H128 H 0.91215 0.1886 0.59473 0.0
H129 H 0.86133 0.24866 0.05684 0.0
H130 H 0.95076 0.25118 0.80562 0.0
H131 H 0.90829 0.28245 0.8925 0.0
Co132 Co 0.05696 0.40945 0.93674 0.0
C133 C 0.06152 0.4162 0.10341 0.0
C134 C 0.07076 0.39095 0.06815 0.0
C135 C 0.07226 0.39201 0.14512 0.0
N136 N 0.06404 0.40608 0.04143 0.0
N137 N 0.06643 0.40783 0.16742 0.0
H138 H 0.05542 0.42898 0.10269 0.0
H139 H 0.07355 0.37951 0.03438 0.0
C140 C 0.08465 0.389 0.84607 0.0
O141 O 0.07597 0.39042 0.78265 0.0
N142 N 0.04923 0.41276 0.83269 0.0
C143 C 0.03331 0.40805 0.80657 0.0
C144 C 0.03248 0.41146 0.73074 0.0
C145 C 0.05744 0.42017 0.77265 0.0
N146 N 0.04766 0.4189 0.70914 0.0
C147 C 0.02861 0.38917 0.99474 0.0
C148 C 0.03315 0.35995 0.905 0.0
C149 C 0.01859 0.3606 0.9532 0.0
C150 C 0.01655 0.37543 0.99915 0.0
C151 C 0.04477 0.37406 0.90167 0.0
N152 N 0.04234 0.38856 0.94548 0.0
H153 H 0.0267 0.40057 0.02985 0.0
H154 H 0.05527 0.37334 0.8618 0.0
H155 H 0.02304 0.40211 0.83983 0.0
H156 H 0.07076 0.42505 0.77407 0.0
O157 O 0.03992 0.42687 0.96547 0.0
O158 O 0.06758 0.4325 0.93563 0.0
O159 O 0.07845 0.39519 0.90757 0.0
C160 C 0.05226 0.43842 0.95562 0.0
H161 H 0.07688 0.38172 0.1822 0.0
H162 H 0.02176 0.40812 0.69344 0.0
H163 H 0.03553 0.34869 0.86936 0.0
H164 H 0.00545 0.37674 0.03676 0.0
Co165 Co 0.89327 0.77956 0.18632 0.0
C166 C 0.89643 0.78021 0.35547 0.0
C167 C 0.89919 0.80551 0.30333 0.0
C168 C 0.90133 0.80741 0.37967 0.0
N169 N 0.89633 0.7885 0.28779 0.0
N170 N 0.89963 0.79157 0.41255 0.0
H171 H 0.89474 0.76622 0.36254 0.0
H172 H 0.89982 0.81586 0.2617 0.0
C173 C 0.92569 0.7931 0.11072 0.0
O174 O 0.92764 0.77748 0.08067 0.0
N175 N 0.88964 0.77139 0.08244 0.0
C176 C 0.88116 0.75687 0.05862 0.0
C177 C 0.88104 0.75655 0.98082 0.0
C178 C 0.8934 0.7802 0.01807 0.0
N179 N 0.88897 0.77116 0.95531 0.0
C180 C 0.90695 0.74414 0.19347 0.0
C181 C 0.94056 0.7537 0.23374 0.0
C182 C 0.93757 0.73637 0.21029 0.0
C183 C 0.92021 0.73149 0.19415 0.0
C184 C 0.92683 0.76579 0.23383 0.0
N185 N 0.91068 0.76134 0.20662 0.0
H186 H 0.89376 0.74009 0.18151 0.0
H187 H 0.92954 0.7791 0.25086 0.0
H188 H 0.87492 0.7473 0.09458 0.0
H189 H 0.89896 0.79321 0.0168 0.0
O190 O 0.87226 0.7674 0.21798 0.0
O191 O 0.87325 0.79469 0.17469 0.0
O192 O 0.91228 0.79637 0.15165 0.0
C193 C 0.86392 0.78176 0.20103 0.0
H194 H 0.904 0.81956 0.40901 0.0
H195 H 0.87569 0.74623 0.94593 0.0
H196 H 0.95353 0.75829 0.24837 0.0
H197 H 0.91686 0.71806 0.18087 0.0
Co198 Co 0.53559 0.5866 0.42667 0.0
C199 C 0.53767 0.59002 0.59279 0.0
C200 C 0.51215 0.59679 0.55141 0.0
C201 C 0.51209 0.59822 0.62897 0.0
N202 N 0.52821 0.59172 0.52891 0.0
N203 N 0.52816 0.59396 0.65506 0.0
H204 H 0.55115 0.58564 0.59343 0.0
H205 H 0.50118 0.59914 0.51413 0.0
C206 C 0.52391 0.62044 0.35207 0.0
O207 O 0.53953 0.62273 0.32239 0.0
N208 N 0.54292 0.58085 0.32307 0.0
C209 C 0.55513 0.5687 0.30511 0.0
C210 C 0.55756 0.56842 0.22861 0.0
C211 C 0.53738 0.58705 0.25516 0.0
N212 N 0.5465 0.57999 0.19713 0.0
C213 C 0.57234 0.59523 0.42742 0.0
C214 C 0.56852 0.63001 0.46737 0.0
C215 C 0.58512 0.62388 0.44631 0.0
C216 C 0.58705 0.6061 0.42902 0.0
C217 C 0.5542 0.61855 0.46657 0.0
N218 N 0.55599 0.60175 0.44078 0.0
H219 H 0.57419 0.58158 0.41512 0.0
H220 H 0.54152 0.6234 0.48374 0.0
H221 H 0.56206 0.56047 0.34464 0.0
H222 H 0.52708 0.59656 0.24745 0.0
O223 O 0.54532 0.56464 0.46212 0.0
O224 O 0.51813 0.56835 0.42128 0.0
O225 O 0.52047 0.60671 0.39066 0.0
C226 C 0.53001 0.55784 0.44817 0.0
H227 H 0.50107 0.60222 0.66328 0.0
H228 H 0.56688 0.5604 0.19821 0.0
H229 H 0.56662 0.64353 0.48389 0.0
H230 H 0.59974 0.60071 0.41467 0.0
Co231 Co 0.70914 0.22885 0.68008 0.0
C232 C 0.70477 0.23119 0.84946 0.0
C233 C 0.70344 0.205 0.80667 0.0
C234 C 0.70168 0.20434 0.88378 0.0
N235 N 0.7052 0.22184 0.78466 0.0
N236 N 0.70249 0.22081 0.91073 0.0
H237 H 0.70648 0.24514 0.85287 0.0
H238 H 0.70341 0.19389 0.76884 0.0
C239 C 0.67348 0.21419 0.68756 0.0
O240 O 0.67128 0.22498 0.74448 0.0
N241 N 0.71357 0.23558 0.57635 0.0
C242 C 0.72233 0.25025 0.5569 0.0
C243 C 0.72101 0.25267 0.48055 0.0
C244 C 0.70707 0.22913 0.51097 0.0
N245 N 0.71144 0.23947 0.45173 0.0
C246 C 0.70096 0.2641 0.72995 0.0
C247 C 0.67154 0.26796 0.64064 0.0
C248 C 0.67662 0.28198 0.68654 0.0
C249 C 0.6917 0.27997 0.73111 0.0
C250 C 0.68118 0.25248 0.64102 0.0
N251 N 0.6951 0.25021 0.68857 0.0
H252 H 0.71316 0.26322 0.76045 0.0
H253 H 0.67752 0.24242 0.60137 0.0
H254 H 0.72851 0.25913 0.59617 0.0
H255 H 0.69856 0.21783 0.50725 0.0
O256 O 0.73192 0.23799 0.70801 0.0
O257 O 0.72662 0.21065 0.67286 0.0
O258 O 0.68792 0.21434 0.6506 0.0
C259 C 0.73792 0.22231 0.69518 0.0
H260 H 0.69976 0.19263 0.91724 0.0
H261 H 0.72619 0.26362 0.4487 0.0
H262 H 0.66016 0.26884 0.60444 0.0
H263 H 0.69658 0.29069 0.76503 0.0
Co264 Co 0.39182 0.26516 0.70867 0.0
C265 C 0.39064 0.26773 0.87878 0.0
C266 C 0.41408 0.27877 0.8321 0.0
C267 C 0.41409 0.28174 0.90824 0.0
N268 N 0.39936 0.27006 0.8125 0.0
N269 N 0.39937 0.2749 0.93774 0.0
H270 H 0.37786 0.26171 0.88372 0.0
H271 H 0.42421 0.28313 0.7942 0.0
C272 C 0.42369 0.27748 0.62004 0.0
O273 O 0.42369 0.26305 0.57965 0.0
N274 N 0.38395 0.2607 0.60463 0.0
C275 C 0.37255 0.24824 0.58178 0.0
C276 C 0.37018 0.24943 0.50508 0.0
C277 C 0.38737 0.27002 0.54102 0.0
N278 N 0.37962 0.26306 0.47911 0.0
C279 C 0.39787 0.228 0.69645 0.0
C280 C 0.43388 0.22915 0.70993 0.0
C281 C 0.42593 0.21352 0.68698 0.0
C282 C 0.40765 0.21286 0.68291 0.0
C283 C 0.4236 0.24408 0.72131 0.0
N284 N 0.40591 0.24371 0.70888 0.0
H285 H 0.38383 0.22707 0.69573 0.0
H286 H 0.43012 0.25606 0.73662 0.0
H287 H 0.3657 0.23919 0.61808 0.0
H288 H 0.39525 0.28175 0.5397 0.0
O289 O 0.36975 0.25586 0.74568 0.0
O290 O 0.37479 0.28364 0.71587 0.0
O291 O 0.41197 0.27998 0.67044 0.0
C292 C 0.36381 0.27182 0.73962 0.0
H293 H 0.42404 0.28874 0.93959 0.0
H294 H 0.36174 0.24117 0.47139 0.0
H295 H 0.44799 0.23007 0.71533 0.0
H296 H 0.40099 0.20079 0.66844 0.0
Co297 Co 0.21368 0.72062 0.18759 0.0
C298 C 0.21497 0.71893 0.35939 0.0
C299 C 0.20735 0.69501 0.3055 0.0
C300 C 0.20884 0.69189 0.38114 0.0
N301 N 0.21072 0.71205 0.29102 0.0
N302 N 0.21375 0.70683 0.41535 0.0
H303 H 0.22013 0.73194 0.36791 0.0
H304 H 0.20485 0.68516 0.26313 0.0
C305 C 0.17878 0.70359 0.18891 0.0
O306 O 0.17548 0.71341 0.24809 0.0
N307 N 0.21716 0.72829 0.08425 0.0
C308 C 0.22089 0.74469 0.06106 0.0
C309 C 0.22218 0.74478 0.98352 0.0
C310 C 0.21651 0.71855 0.02076 0.0
N311 N 0.21947 0.72834 0.95822 0.0
C312 C 0.20181 0.75342 0.25185 0.0
C313 C 0.17411 0.7578 0.15311 0.0
C314 C 0.17765 0.77107 0.20533 0.0
C315 C 0.19169 0.76871 0.25546 0.0
C316 C 0.18452 0.74284 0.15132 0.0
N317 N 0.19789 0.74047 0.20163 0.0
H318 H 0.2133 0.75245 0.28675 0.0
H319 H 0.18213 0.73338 0.1073 0.0
H320 H 0.22255 0.75583 0.09804 0.0
H321 H 0.21384 0.70463 0.0204 0.0
O322 O 0.23558 0.73157 0.21534 0.0
O323 O 0.23265 0.70411 0.17644 0.0
O324 O 0.19354 0.70499 0.15487 0.0
C325 C 0.24292 0.7166 0.19983 0.0
H326 H 0.20704 0.67934 0.40861 0.0
H327 H 0.22528 0.756 0.94857 0.0
H328 H 0.16345 0.75898 0.11315 0.0
H329 H 0.19525 0.77886 0.29521 0.0
Co330 Co 0.20881 0.28037 0.87666 0.0
C331 C 0.21435 0.28501 0.70874 0.0
C332 C 0.18738 0.28228 0.74008 0.0
C333 C 0.18829 0.28443 0.66329 0.0
N334 N 0.20368 0.28254 0.76909 0.0
N335 N 0.20526 0.28622 0.64305 0.0
H336 H 0.22842 0.28612 0.71264 0.0
H337 H 0.17551 0.28061 0.77273 0.0
C338 C 0.18216 0.30776 0.94102 0.0
O339 O 0.18455 0.30488 1.01321 0.0
N340 N 0.21393 0.2775 0.98381 0.0
C341 C 0.21654 0.26154 0.0147 0.0
C342 C 0.22087 0.26337 0.08918 0.0
C343 C 0.21732 0.289 0.04031 0.0
N344 N 0.22127 0.28054 0.10544 0.0
C345 C 0.19335 0.24663 0.84403 0.0
C346 C 0.16754 0.24896 0.9532 0.0
C347 C 0.16955 0.23318 0.91413 0.0
C348 C 0.18233 0.23219 0.85732 0.0
C349 C 0.17866 0.26294 0.93806 0.0
N350 N 0.19156 0.26165 0.88512 0.0
H351 H 0.20371 0.2456 0.80262 0.0
H352 H 0.17751 0.2744 0.97267 0.0
H353 H 0.21545 0.24927 0.98466 0.0
H354 H 0.21717 0.3031 0.03401 0.0
O355 O 0.22985 0.26687 0.85564 0.0
O356 O 0.22853 0.29579 0.86633 0.0
O357 O 0.1903 0.29891 0.89099 0.0
C358 C 0.23803 0.28189 0.85532 0.0
H359 H 0.17718 0.28439 0.62549 0.0
H360 H 0.22332 0.25288 0.12898 0.0
H361 H 0.15778 0.2503 0.99719 0.0
H362 H 0.18431 0.22017 0.82608 0.0
Co363 Co 0.39776 0.72747 0.33023 0.0
C364 C 0.39614 0.72106 0.16274 0.0
C365 C 0.42194 0.72724 0.20281 0.0
C366 C 0.42266 0.72548 0.12583 0.0
N367 N 0.40532 0.72467 0.22623 0.0
N368 N 0.40649 0.72156 0.10087 0.0
H369 H 0.38219 0.71868 0.16087 0.0
H370 H 0.43279 0.7306 0.2392 0.0
C371 C 0.4204 0.69695 0.35944 0.0
O372 O 0.40665 0.6872 0.34503 0.0
N373 N 0.39067 0.73069 0.43397 0.0
C374 C 0.38318 0.74545 0.46033 0.0
C375 C 0.38189 0.74433 0.53738 0.0
C376 C 0.39367 0.7206 0.49535 0.0
N377 N 0.38842 0.72875 0.55916 0.0
C378 C 0.40675 0.76267 0.29105 0.0
C379 C 0.43402 0.76624 0.39267 0.0
C380 C 0.42996 0.78042 0.3452 0.0
C381 C 0.41591 0.7785 0.29456 0.0
C382 C 0.42433 0.75076 0.38824 0.0
N383 N 0.41113 0.74902 0.33688 0.0
H384 H 0.39614 0.76129 0.2512 0.0
H385 H 0.42745 0.74018 0.42642 0.0
H386 H 0.37959 0.75661 0.42598 0.0
H387 H 0.40025 0.70806 0.49397 0.0
O388 O 0.37539 0.73697 0.29843 0.0
O389 O 0.38069 0.70888 0.319 0.0
O390 O 0.41893 0.71359 0.36117 0.0
C391 C 0.36949 0.721 0.30086 0.0
H392 H 0.43415 0.72707 0.09065 0.0
H393 H 0.37694 0.75435 0.57495 0.0
H394 H 0.4448 0.76689 0.43219 0.0
H395 H 0.41194 0.78912 0.25789 0.0
Co396 Co 0.56756 0.08929 0.58013 0.0
C397 C 0.5725 0.08664 0.41224 0.0
C398 C 0.57237 0.11316 0.45162 0.0
C399 C 0.57443 0.11331 0.37458 0.0
N400 N 0.57131 0.09644 0.47567 0.0
N401 N 0.57448 0.09662 0.3494 0.0
H402 H 0.57149 0.07254 0.41171 0.0
H403 H 0.5715 0.12455 0.48762 0.0
C404 C 0.59839 0.11192 0.59584 0.0
O405 O 0.60659 0.1003 0.55419 0.0
N406 N 0.56338 0.08244 0.68398 0.0
C407 C 0.5495 0.07293 0.70731 0.0
C408 C 0.55084 0.07014 0.78362 0.0
C409 C 0.5729 0.0856 0.7469 0.0
N410 N 0.56546 0.07814 0.80832 0.0
C411 C 0.533 0.10018 0.53789 0.0
C412 C 0.53098 0.12805 0.63711 0.0
C413 C 0.51658 0.12469 0.58993 0.0
C414 C 0.51773 0.11034 0.54031 0.0
C415 C 0.54572 0.11729 0.63443 0.0
N416 N 0.54675 0.10381 0.58419 0.0
H417 H 0.5338 0.08933 0.49894 0.0
H418 H 0.55629 0.11985 0.6733 0.0
H419 H 0.53908 0.0683 0.67117 0.0
H420 H 0.58503 0.09294 0.74777 0.0
O421 O 0.55738 0.06725 0.54758 0.0
O422 O 0.58549 0.07157 0.57232 0.0
O423 O 0.58242 0.10944 0.61398 0.0
C424 C 0.5731 0.06075 0.55333 0.0
H425 H 0.57579 0.12494 0.34019 0.0
H426 H 0.54173 0.06291 0.81866 0.0
H427 H 0.53111 0.13903 0.67561 0.0
H428 H 0.50694 0.10679 0.50389 0.0
Co429 Co 0.04641 0.905 0.08535 0.0
C430 C 0.04843 0.89929 0.91788 0.0
C431 C 0.02215 0.90254 0.95796 0.0
C432 C 0.02166 0.9008 0.88092 0.0
N433 N 0.03889 0.90145 0.98163 0.0
N434 N 0.03818 0.8988 0.85545 0.0
H435 H 0.06254 0.89879 0.91647 0.0
H436 H 0.011 0.90502 0.99375 0.0
C437 C 0.0115 0.88954 0.13261 0.0
O438 O 0.00423 0.90502 0.14047 0.0
N439 N 0.05404 0.90861 0.1888 0.0
C440 C 0.07015 0.91452 0.20702 0.0
C441 C 0.07263 0.91276 0.28315 0.0
C442 C 0.04687 0.90329 0.25499 0.0
N443 N 0.05807 0.90569 0.31333 0.0
C444 C 0.07922 0.88835 0.0479 0.0
C445 C 0.07421 0.85955 0.13996 0.0
C446 C 0.09085 0.86262 0.11017 0.0
C447 C 0.09321 0.87684 0.06129 0.0
C448 C 0.06063 0.87117 0.12491 0.0
N449 N 0.06318 0.88566 0.08052 0.0
H450 H 0.08172 0.90009 0.0157 0.0
H451 H 0.04862 0.86902 0.15522 0.0
H452 H 0.07993 0.91891 0.16714 0.0
H453 H 0.03429 0.89687 0.26001 0.0
O454 O 0.06133 0.92386 0.0533 0.0
O455 O 0.03364 0.92718 0.0871 0.0
O456 O 0.0277 0.88817 0.11672 0.0
C457 C 0.04821 0.93435 0.06423 0.0
H458 H 0.00998 0.90112 0.84639 0.0
H459 H 0.08448 0.91586 0.31386 0.0
H460 H 0.07192 0.8487 0.17822 0.0
H461 H 0.10601 0.87971 0.03793 0.0
Co462 Co 0.5704 0.90413 0.46045 0.0
C463 C 0.57578 0.90774 0.62843 0.0
C464 C 0.57111 0.88132 0.5924 0.0
C465 C 0.57321 0.8813 0.66916 0.0
N466 N 0.57264 0.89785 0.5664 0.0
N467 N 0.57611 0.89788 0.69204 0.0
H468 H 0.57746 0.9218 0.62776 0.0
H469 H 0.56848 0.86998 0.55773 0.0
C470 C 0.59401 0.87527 0.387 0.0
O471 O 0.59076 0.87908 0.31628 0.0
N472 N 0.56744 0.91058 0.35489 0.0
C473 C 0.5516 0.91438 0.32547 0.0
C474 C 0.55338 0.91788 0.2502 0.0
C475 C 0.5789 0.91294 0.29733 0.0
N476 N 0.57047 0.91687 0.23227 0.0
C477 C 0.53571 0.89161 0.49747 0.0
C478 C 0.53424 0.8671 0.38283 0.0
C479 C 0.51932 0.86993 0.42688 0.0
C480 C 0.52021 0.88204 0.48618 0.0
C481 C 0.54937 0.87669 0.39645 0.0
N482 N 0.54997 0.88896 0.45225 0.0
H483 H 0.53617 0.90148 0.54113 0.0
H484 H 0.5602 0.87495 0.35869 0.0
H485 H 0.53939 0.91407 0.35639 0.0
H486 H 0.59292 0.91115 0.30191 0.0
O487 O 0.55913 0.92611 0.48574 0.0
O488 O 0.58776 0.92222 0.4716 0.0
O489 O 0.58679 0.88375 0.44081 0.0
C490 C 0.57481 0.93289 0.48466 0.0
H491 H 0.57274 0.86988 0.70534 0.0
H492 H 0.54284 0.92015 0.21054 0.0
H493 H 0.53406 0.85783 0.33661 0.0
H494 H 0.50887 0.88458 0.52124 0.0
Co495 Co 0.04268 0.09197 0.98487 0.0
C496 C 0.03737 0.08503 0.15115 0.0
C497 C 0.03299 0.11175 0.11822 0.0
C498 C 0.0312 0.11061 0.19484 0.0
N499 N 0.03687 0.09579 0.09028 0.0
N500 N 0.03399 0.09388 0.21562 0.0
H501 H 0.04098 0.07134 0.14933 0.0
H502 H 0.03239 0.12367 0.08538 0.0
C503 C 0.01449 0.11521 0.90568 0.0
O504 O 0.02044 0.11334 0.83677 0.0
N505 N 0.04908 0.08835 0.88005 0.0
C506 C 0.06561 0.09011 0.85418 0.0
C507 C 0.06587 0.0867 0.77847 0.0
C508 C 0.03963 0.08282 0.82 0.0
N509 N 0.04957 0.08227 0.75679 0.0
C510 C 0.07212 0.11087 0.04019 0.0
C511 C 0.0702 0.13899 0.94205 0.0
C512 C 0.08418 0.13817 0.99328 0.0
C513 C 0.08496 0.12386 0.04296 0.0
C514 C 0.05761 0.12566 0.94104 0.0
N515 N 0.05869 0.11181 0.98964 0.0
H516 H 0.07306 0.09981 0.07812 0.0
H517 H 0.04743 0.12625 0.89932 0.0
H518 H 0.07676 0.09388 0.888 0.0
H519 H 0.02573 0.08006 0.82166 0.0
O520 O 0.05895 0.07372 1.01037 0.0
O521 O 0.03079 0.0694 0.98611 0.0
O522 O 0.02205 0.10778 0.96153 0.0
C523 C 0.04606 0.06274 1.00259 0.0
H524 H 0.0286 0.12139 0.23288 0.0
H525 H 0.0771 0.08784 0.74145 0.0
H526 H 0.06896 0.14982 0.90292 0.0
H527 H 0.09563 0.12245 0.0827 0.0
H528 H 0.04487 0.58384 0.74063 0.0
H529 H 0.08596 0.62293 0.7455 0.0
H530 H 0.08443 0.62577 0.60692 0.0
H531 H 0.05976 0.56226 0.57741 0.0
H532 H 0.03841 0.55763 0.5389 0.0
H533 H 0.04114 0.55995 0.63924 0.0
H534 H 0.01748 0.58426 0.64181 0.0
H535 H 0.01451 0.58186 0.54153 0.0
H536 H 0.01972 0.60301 0.58062 0.0
H537 H 0.08034 0.62272 0.46851 0.0
H538 H 0.07271 0.61526 0.3376 0.0
H539 H 0.03453 0.57754 0.41918 0.0
C540 C 0.05311 0.59334 0.71233 0.0
C541 C 0.06541 0.60335 0.75343 0.0
C542 C 0.07641 0.61527 0.71469 0.0
C543 C 0.07564 0.61694 0.63615 0.0
C544 C 0.06381 0.60653 0.5968 0.0
C545 C 0.05261 0.59506 0.63332 0.0
C546 C 0.04185 0.58473 0.57662 0.0
C547 C 0.04552 0.56497 0.58348 0.0
C548 C 0.02223 0.58871 0.58569 0.0
C549 C 0.04894 0.59206 0.50291 0.0
C550 C 0.06156 0.60463 0.51611 0.0
C551 C 0.0704 0.61296 0.45738 0.0
C552 C 0.06609 0.60848 0.38303 0.0
C553 C 0.05306 0.59575 0.36759 0.0
C554 C 0.04442 0.58744 0.42879 0.0
H555 H 0.68593 0.78015 0.96619 0.0
H556 H 0.73541 0.75995 0.04894 0.0
H557 H 0.74571 0.75624 0.91798 0.0
H558 H 0.68252 0.75051 0.80856 0.0
H559 H 0.6728 0.76641 0.74608 0.0
H560 H 0.66952 0.76816 0.84637 0.0
H561 H 0.68174 0.7998 0.84301 0.0
H562 H 0.68522 0.79806 0.74275 0.0
H563 H 0.70318 0.80377 0.80391 0.0
H564 H 0.75083 0.75475 0.77956 0.0
H565 H 0.74943 0.75243 0.64116 0.0
H566 H 0.6964 0.77271 0.64371 0.0
C567 C 0.69895 0.77502 0.95654 0.0
C568 C 0.70988 0.77033 0.01805 0.0
C569 C 0.72674 0.76343 1.00305 0.0
C570 C 0.73277 0.76145 0.92876 0.0
C571 C 0.72175 0.7663 0.8696 0.0
C572 C 0.70511 0.77273 0.88235 0.0
C573 C 0.69566 0.77607 0.80806 0.0
C574 C 0.67915 0.7646 0.80192 0.0
C575 C 0.69119 0.79559 0.79892 0.0
C576 C 0.70958 0.77043 0.75165 0.0
C577 C 0.72458 0.76506 0.78882 0.0
C578 C 0.73915 0.75889 0.74991 0.0
C579 C 0.73823 0.75763 0.67124 0.0
C580 C 0.72283 0.76237 0.63156 0.0
C581 C 0.70844 0.76926 0.67237 0.0
H582 H 0.54215 0.38111 0.22041 0.0
H583 H 0.5076 0.4228 0.29374 0.0
H584 H 0.50292 0.43143 0.16021 0.0
H585 H 0.56264 0.40474 0.07303 0.0
H586 H 0.56447 0.38597 1.01199 0.0
H587 H 0.56425 0.38304 0.11265 0.0
H588 H 0.53797 0.3617 0.10007 0.0
H589 H 0.538 0.36472 0.99931 0.0
H590 H 0.51835 0.36889 0.05275 0.0
H591 H 0.50264 0.4355 0.01484 0.0
H592 H 0.50894 0.43594 0.87678 0.0
H593 H 0.54339 0.39146 0.90397 0.0
C594 C 0.53338 0.3919 0.20863 0.0
C595 C 0.52509 0.40115 0.26764 0.0
C596 C 0.51414 0.41555 0.24951 0.0
C597 C 0.5113 0.42044 0.17378 0.0
C598 C 0.51956 0.41084 0.11692 0.0
C599 C 0.53049 0.39695 0.13395 0.0
C600 C 0.53857 0.38915 0.06382 0.0
C601 C 0.55867 0.39084 0.06549 0.0
C602 C 0.53287 0.36998 0.0534 0.0
C603 C 0.5306 0.40083 1.00424 0.0
C604 C 0.51953 0.41322 0.03527 0.0
C605 C 0.5112 0.42576 0.99018 0.0
C606 C 0.5147 0.42588 0.912 0.0
C607 C 0.52647 0.41362 0.88044 0.0
C608 C 0.53418 0.40081 0.92709 0.0
H609 H 0.8999 0.194 0.47799 0.0
H610 H 0.89979 0.24834 0.55043 0.0
H611 H 0.8961 0.25774 0.41848 0.0
H612 H 0.92424 0.20118 0.30275 0.0
H613 H 0.9118 0.18516 0.25081 0.0
H614 H 0.91495 0.18256 0.35093 0.0
H615 H 0.88136 0.1808 0.3701 0.0
H616 H 0.8781 0.18339 0.27015 0.0
H617 H 0.86767 0.19824 0.3351 0.0
H618 H 0.89118 0.26135 0.2803 0.0
H619 H 0.88536 0.25902 0.14393 0.0
H620 H 0.88959 0.20249 0.15753 0.0
C621 C 0.89938 0.2079 0.46638 0.0
C622 C 0.90012 0.22041 0.52554 0.0
C623 C 0.89903 0.23845 0.50697 0.0
C624 C 0.89706 0.24394 0.43187 0.0
C625 C 0.89629 0.23127 0.37539 0.0
C626 C 0.89747 0.21363 0.3915 0.0
C627 C 0.89584 0.20272 0.32005 0.0
C628 C 0.91271 0.19229 0.30528 0.0
C629 C 0.87979 0.19057 0.32412 0.0
C630 C 0.89332 0.21701 0.26135 0.0
C631 C 0.89368 0.23337 0.29485 0.0
C632 C 0.89098 0.24863 0.25346 0.0
C633 C 0.88761 0.24717 0.17611 0.0
C634 C 0.88701 0.2306 0.14026 0.0
C635 C 0.89018 0.21532 0.18338 0.0
H636 H 0.05611 0.38792 0.2853 0.0
H637 H 0.07214 0.44046 0.22424 0.0
H638 H 0.07044 0.4493 0.35911 0.0
H639 H 0.02485 0.40066 0.42622 0.0
H640 H 0.02958 0.38217 0.48614 0.0
H641 H 0.03249 0.3804 0.3857 0.0
H642 H 0.06474 0.37089 0.40627 0.0
H643 H 0.06198 0.37279 0.50679 0.0
H644 H 0.07921 0.38476 0.45999 0.0
H645 H 0.06794 0.45156 0.50522 0.0
H646 H 0.0615 0.44788 0.64226 0.0
H647 H 0.04603 0.39421 0.6018 0.0
C648 C 0.05935 0.40127 0.30033 0.0
C649 C 0.06445 0.41348 0.24461 0.0
C650 C 0.06818 0.43094 0.26623 0.0
C651 C 0.06736 0.436 0.34266 0.0
C652 C 0.06254 0.42348 0.39649 0.0
C653 C 0.05835 0.40654 0.37568 0.0
C654 C 0.05289 0.39562 0.44288 0.0
C655 C 0.03382 0.38935 0.43473 0.0
C656 C 0.06546 0.3801 0.45465 0.0
C657 C 0.0547 0.40897 0.50525 0.0
C658 C 0.06048 0.42495 0.47812 0.0
C659 C 0.0633 0.43911 0.52666 0.0
C660 C 0.05975 0.43693 0.60427 0.0
C661 C 0.05321 0.42082 0.63194 0.0
C662 C 0.0509 0.4067 0.5817 0.0
H663 H 0.87943 0.77099 0.50448 0.0
H664 H 0.92487 0.805 0.50048 0.0
H665 H 0.92737 0.80271 0.63877 0.0
H666 H 0.86069 0.78862 0.67088 0.0
H667 H 0.85277 0.76809 0.70796 0.0
H668 H 0.85527 0.77095 0.6077 0.0
H669 H 0.87539 0.74368 0.60174 0.0
H670 H 0.87281 0.74064 0.70195 0.0
H671 H 0.89442 0.74256 0.66169 0.0
H672 H 0.92404 0.79853 0.77674 0.0
H673 H 0.9159 0.79154 0.90755 0.0
H674 H 0.87215 0.76046 0.82651 0.0
C675 C 0.89011 0.77756 0.53289 0.0
C676 C 0.90203 0.78813 0.49189 0.0
C677 C 0.91562 0.7969 0.53097 0.0
C678 C 0.91715 0.79566 0.60944 0.0
C679 C 0.90495 0.78559 0.64859 0.0
C680 C 0.89175 0.77657 0.61195 0.0
C681 C 0.87997 0.76733 0.66868 0.0
C682 C 0.86106 0.77416 0.66347 0.0
C683 C 0.8807 0.74737 0.65786 0.0
C684 C 0.88853 0.77276 0.74252 0.0
C685 C 0.90294 0.78326 0.72925 0.0
C686 C 0.91281 0.79027 0.78793 0.0
C687 C 0.90795 0.78635 0.8623 0.0
C688 C 0.89329 0.77553 0.87798 0.0
C689 C 0.88349 0.76865 0.81679 0.0
H690 H 0.50786 0.59017 0.78167 0.0
H691 H 0.56157 0.59701 0.70633 0.0
H692 H 0.5716 0.59584 0.83818 0.0
H693 H 0.51177 0.61664 0.95301 0.0
H694 H 0.4978 0.60245 1.00777 0.0
H695 H 0.49459 0.6044 0.90742 0.0
H696 H 0.49763 0.57078 0.89327 0.0
H697 H 0.50081 0.56872 0.99348 0.0
H698 H 0.51691 0.56 0.9293 0.0
H699 H 0.57612 0.5926 0.97647 0.0
H700 H 0.5749 0.58715 0.11361 0.0
H701 H 0.51834 0.58335 0.10294 0.0
C702 C 0.5217 0.59167 0.79276 0.0
C703 C 0.53391 0.59364 0.73289 0.0
C704 C 0.55195 0.59524 0.7505 0.0
C705 C 0.55778 0.59474 0.82547 0.0
C706 C 0.54543 0.59272 0.88276 0.0
C707 C 0.52777 0.59124 0.86754 0.0
C708 C 0.51734 0.58863 0.93984 0.0
C709 C 0.50462 0.60395 0.95275 0.0
C710 C 0.5076 0.57098 0.93889 0.0
C711 C 0.53195 0.58865 0.99796 0.0
C712 C 0.54803 0.5911 0.96345 0.0
C713 C 0.56361 0.59083 1.00415 0.0
C714 C 0.5628 0.5877 0.08188 0.0
C715 C 0.54655 0.58494 0.11866 0.0
C716 C 0.53088 0.58572 0.07628 0.0
H717 H 0.71444 0.21175 0.35652 0.0
H718 H 0.69632 0.26534 0.37274 0.0
H719 H 0.69034 0.26576 0.23579 0.0
H720 H 0.73717 0.21719 0.18639 0.0
H721 H 0.73188 0.19602 0.14761 0.0
H722 H 0.7326 0.19898 0.24824 0.0
H723 H 0.70079 0.18745 0.25991 0.0
H724 H 0.70003 0.18428 0.15925 0.0
H725 H 0.68366 0.19755 0.20508 0.0
H726 H 0.68889 0.26141 0.09654 0.0
H727 H 0.69102 0.25217 0.96361 0.0
H728 H 0.71089 0.20156 0.03549 0.0
C729 C 0.70871 0.22332 0.33118 0.0
C730 C 0.70562 0.23846 0.37478 0.0
C731 C 0.69864 0.25362 0.33988 0.0
C732 C 0.69522 0.25396 0.26234 0.0
C733 C 0.6989 0.23903 0.22022 0.0
C734 C 0.70538 0.22393 0.25326 0.0
C735 C 0.70935 0.21017 0.19395 0.0
C736 C 0.72891 0.20531 0.19408 0.0
C737 C 0.69776 0.1939 0.20523 0.0
C738 C 0.70437 0.22002 0.12268 0.0
C739 C 0.69828 0.2366 0.13926 0.0
C740 C 0.69351 0.24839 0.08282 0.0
C741 C 0.69492 0.24308 1.00735 0.0
C742 C 0.70112 0.22614 0.9887 0.0
C743 C 0.70584 0.21449 0.04759 0.0
H744 H 0.37623 0.24274 0.35321 0.0
H745 H 0.38729 0.29577 0.42723 0.0
H746 H 0.39125 0.30485 0.29469 0.0
H747 H 0.40759 0.24151 0.20648 0.0
H748 H 0.39426 0.22886 0.14273 0.0
H749 H 0.39121 0.22674 0.24299 0.0
H750 H 0.35837 0.2345 0.2278 0.0
H751 H 0.36134 0.23671 0.12738 0.0
H752 H 0.35228 0.25458 0.18105 0.0
H753 H 0.39548 0.30791 0.15533 0.0
H754 H 0.40072 0.30458 0.01871 0.0
H755 H 0.38648 0.24975 0.03248 0.0
C756 C 0.37915 0.25635 0.34166 0.0
C757 C 0.38135 0.26856 0.40122 0.0
C758 C 0.38565 0.28613 0.38317 0.0
C759 C 0.3878 0.29144 0.30783 0.0
C760 C 0.38558 0.27906 0.2508 0.0
C761 C 0.38137 0.26187 0.26669 0.0
C762 C 0.3806 0.25099 0.19495 0.0
C763 C 0.39423 0.23615 0.19693 0.0
C764 C 0.36204 0.24377 0.18205 0.0
C765 C 0.38528 0.26471 0.13621 0.0
C766 C 0.38797 0.28084 0.1699 0.0
C767 C 0.39325 0.2954 0.12838 0.0
C768 C 0.39621 0.29338 0.05088 0.0
C769 C 0.39388 0.27696 0.01511 0.0
C770 C 0.388 0.26251 0.0582 0.0
H771 H 0.20786 0.7346 0.50989 0.0
H772 H 0.22962 0.68218 0.50036 0.0
H773 H 0.23383 0.68238 0.63783 0.0
H774 H 0.2371 0.75055 0.6625 0.0
H775 H 0.22012 0.76344 0.70617 0.0
H776 H 0.21978 0.75974 0.60582 0.0
H777 H 0.1884 0.7471 0.61685 0.0
H778 H 0.18871 0.75059 0.71725 0.0
H779 H 0.18431 0.72906 0.68019 0.0
H780 H 0.23341 0.6869 0.77673 0.0
H781 H 0.23089 0.69679 0.90885 0.0
H782 H 0.2103 0.74666 0.83187 0.0
C783 C 0.21385 0.72337 0.53677 0.0
C784 C 0.21825 0.7083 0.49428 0.0
C785 C 0.22587 0.69375 0.53169 0.0
C786 C 0.22838 0.69375 0.60986 0.0
C787 C 0.22337 0.70848 0.65048 0.0
C788 C 0.2165 0.72315 0.61545 0.0
C789 C 0.21186 0.73705 0.67345 0.0
C790 C 0.22287 0.75368 0.66125 0.0
C791 C 0.19215 0.74119 0.67181 0.0
C792 C 0.21697 0.72776 0.74612 0.0
C793 C 0.22353 0.71127 0.73134 0.0
C794 C 0.22846 0.69987 0.78908 0.0
C795 C 0.22685 0.70553 0.86401 0.0
C796 C 0.22047 0.72249 0.88086 0.0
C797 C 0.21547 0.73371 0.82078 0.0
H798 H 0.18681 0.29553 0.51642 0.0
H799 H 0.23898 0.28165 0.59396 0.0
H800 H 0.24976 0.28355 0.46327 0.0
H801 H 0.18763 0.26941 0.35527 0.0
H802 H 0.17526 0.28442 0.2976 0.0
H803 H 0.17229 0.28434 0.39818 0.0
H804 H 0.17961 0.31748 0.40213 0.0
H805 H 0.18279 0.31759 0.30138 0.0
H806 H 0.19999 0.32519 0.36279 0.0
H807 H 0.25416 0.28341 0.32213 0.0
H808 H 0.2513 0.28003 0.18369 0.0
H809 H 0.19652 0.29381 0.1975 0.0
C810 C 0.20054 0.29297 0.50676 0.0
C811 C 0.21196 0.28843 0.56686 0.0
C812 C 0.22989 0.28537 0.55009 0.0
C813 C 0.23617 0.28641 0.4756 0.0
C814 C 0.22446 0.29063 0.41798 0.0
C815 C 0.20701 0.29386 0.43281 0.0
C816 C 0.19676 0.29665 0.36041 0.0
C817 C 0.18213 0.28288 0.35241 0.0
C818 C 0.18935 0.31534 0.35648 0.0
C819 C 0.21107 0.29397 0.30218 0.0
C820 C 0.22702 0.29076 0.33661 0.0
C821 C 0.24184 0.28633 0.29469 0.0
C822 C 0.24018 0.28458 0.21616 0.0
C823 C 0.22389 0.28733 0.18013 0.0
C824 C 0.20928 0.29248 0.22358 0.0
H825 H 0.40533 0.74663 0.66711 0.0
H826 H 0.3765 0.69893 0.62399 0.0
H827 H 0.3775 0.6916 0.76081 0.0
H828 H 0.4342 0.72809 0.81124 0.0
H829 H 0.43456 0.74808 0.86522 0.0
H830 H 0.43172 0.74893 0.76447 0.0
H831 H 0.40305 0.76663 0.78266 0.0
H832 H 0.40567 0.76563 0.88345 0.0
H833 H 0.38579 0.75772 0.84059 0.0
H834 H 0.37957 0.69135 0.90559 0.0
H835 H 0.38625 0.69587 0.0415 0.0
H836 H 0.41551 0.74268 0.98551 0.0
C837 C 0.39946 0.73454 0.68672 0.0
C838 C 0.39084 0.72329 0.63592 0.0
C839 C 0.38327 0.70756 0.66263 0.0
C840 C 0.38369 0.70342 0.74001 0.0
C841 C 0.39201 0.71503 0.7892 0.0
C842 C 0.40009 0.73009 0.7631 0.0
C843 C 0.40843 0.74031 0.82663 0.0
C844 C 0.42841 0.74141 0.81626 0.0
C845 C 0.40024 0.75865 0.83372 0.0
C846 C 0.4036 0.72884 0.893 0.0
C847 C 0.39394 0.71442 0.87076 0.0
C848 C 0.38735 0.70246 0.92332 0.0
C849 C 0.39106 0.70516 1.0002 0.0
C850 C 0.40149 0.7195 0.02326 0.0
C851 C 0.40771 0.73148 0.96889 0.0
H852 H 0.56748 0.10606 0.90168 0.0
H853 H 0.57512 0.05004 0.88889 0.0
H854 H 0.58058 0.0489 0.02662 0.0
H855 H 0.59949 0.115 0.05606 0.0
H856 H 0.58546 0.13112 0.09924 0.0
H857 H 0.58479 0.1278 0.99865 0.0
H858 H 0.55137 0.12215 1.00662 0.0
H859 H 0.55196 0.12528 0.10713 0.0
H860 H 0.54324 0.10525 0.06859 0.0
H861 H 0.58283 0.05361 0.16676 0.0
H862 H 0.58154 0.06352 0.29856 0.0
H863 H 0.57051 0.11645 0.22118 0.0
C864 C 0.57094 0.09373 0.92795 0.0
C865 C 0.57139 0.07817 0.88513 0.0
C866 C 0.57513 0.06207 0.92115 0.0
C867 C 0.57819 0.06134 0.99912 0.0
C868 C 0.57725 0.07684 0.04042 0.0
C869 C 0.57375 0.09275 1.00614 0.0
C870 C 0.57191 0.10718 0.06436 0.0
C871 C 0.58627 0.1211 0.05395 0.0
C872 C 0.55353 0.11544 0.06148 0.0
C873 C 0.5746 0.09684 0.1366 0.0
C874 C 0.57788 0.07942 0.12151 0.0
C875 C 0.58034 0.06726 0.17923 0.0
C876 C 0.57942 0.07303 0.25432 0.0
C877 C 0.57585 0.09083 0.27163 0.0
C878 C 0.5735 0.10282 0.21118 0.0
H879 H 0.02076 0.9105 0.73058 0.0
H880 H 0.0678 0.88328 0.80248 0.0
H881 H 0.07683 0.88021 0.66936 0.0
H882 H 0.01284 0.88461 0.56137 0.0
H883 H 0.00534 0.90315 0.50724 0.0
H884 H 0.00223 0.90271 0.60799 0.0
H885 H 0.01853 0.93234 0.62012 0.0
H886 H 0.02159 0.93293 0.51949 0.0
H887 H 0.04026 0.93454 0.5813 0.0
H888 H 0.08131 0.88109 0.52925 0.0
H889 H 0.08156 0.88696 0.39213 0.0
H890 H 0.03128 0.91286 0.40977 0.0
C891 C 0.03284 0.90365 0.71858 0.0
C892 C 0.04353 0.89706 0.77752 0.0
C893 C 0.05945 0.88858 0.75877 0.0
C894 C 0.06462 0.88664 0.68318 0.0
C895 C 0.05371 0.89322 0.62674 0.0
C896 C 0.03817 0.90159 0.64347 0.0
C897 C 0.02918 0.9081 0.57234 0.0
C898 C 0.01134 0.8991 0.56162 0.0
C899 C 0.02729 0.92816 0.5734 0.0
C900 C 0.0422 0.90224 0.51285 0.0
C901 C 0.05621 0.89359 0.54562 0.0
C902 C 0.07034 0.8877 0.50302 0.0
C903 C 0.07038 0.89107 0.42532 0.0
C904 C 0.05638 0.90019 0.39067 0.0
C905 C 0.04194 0.90553 0.43481 0.0
H906 H 0.5604 0.89277 0.13255 0.0
H907 H 0.59376 0.93804 0.16042 0.0
H908 H 0.60002 0.938 0.02234 0.0
H909 H 0.58598 0.87111 0.98337 0.0
H910 H 0.5665 0.86345 0.93642 0.0
H911 H 0.56649 0.86639 0.03719 0.0
H912 H 0.53954 0.88687 0.02544 0.0
H913 H 0.53961 0.88422 0.92467 0.0
H914 H 0.54077 0.90585 0.96503 0.0
H915 H 0.59981 0.93419 0.87693 0.0
H916 H 0.59534 0.9256 0.74322 0.0
H917 H 0.56183 0.88297 0.81608 0.0
C918 C 0.56938 0.90237 0.10953 0.0
C919 C 0.57679 0.91529 0.15634 0.0
C920 C 0.58825 0.92789 0.12502 0.0
C921 C 0.59173 0.928 0.04685 0.0
C922 C 0.58371 0.91532 1.00157 0.0
C923 C 0.57297 0.90259 0.03241 0.0
C924 C 0.56524 0.89084 0.97258 0.0
C925 C 0.57143 0.87182 0.98301 0.0
C926 C 0.5451 0.89203 0.97192 0.0
C927 C 0.57307 0.899 0.90267 0.0
C928 C 0.58367 0.91312 0.9199 0.0
C929 C 0.59169 0.92302 0.86318 0.0
C930 C 0.58897 0.91815 0.78739 0.0
C931 C 0.57839 0.90349 0.76915 0.0
C932 C 0.57031 0.89398 0.82799 0.0
H933 H 0.04995 0.11058 0.32946 0.0
H934 H 0.02072 0.06373 0.27471 0.0
H935 H 0.02048 0.05536 0.41064 0.0
H936 H 0.07709 0.09117 0.47349 0.0
H937 H 0.07713 0.11077 0.53002 0.0
H938 H 0.07496 0.11233 0.42917 0.0
H939 H 0.04619 0.12997 0.44609 0.0
H940 H 0.04815 0.12827 0.54698 0.0
H941 H 0.02854 0.12071 0.50073 0.0
H942 H 0.02232 0.05362 0.55733 0.0
H943 H 0.0291 0.05692 0.69422 0.0
H944 H 0.05765 0.10457 0.64567 0.0
C945 C 0.04354 0.09852 0.34612 0.0
C946 C 0.03522 0.08784 0.29226 0.0
C947 C 0.0272 0.07201 0.31558 0.0
C948 C 0.02692 0.06727 0.3925 0.0
C949 C 0.03492 0.07843 0.44465 0.0
C950 C 0.04332 0.09359 0.42176 0.0
C951 C 0.05124 0.10335 0.4873 0.0
C952 C 0.07129 0.10446 0.47952 0.0
C953 C 0.04303 0.12165 0.49574 0.0
C954 C 0.04595 0.09144 0.55129 0.0
C955 C 0.03639 0.07718 0.52642 0.0
C956 C 0.02991 0.06468 0.57702 0.0
C957 C 0.03368 0.06667 0.65445 0.0
C958 C 0.04398 0.0809 0.67969 0.0
C959 C 0.04991 0.09347 0.62739 0.0
H960 H 0.07627 0.53914 0.02889 0.0
H961 H 0.02044 0.54979 0.02437 0.0
H962 H 0.01452 0.51839 1.0032 0.0
H963 H 0.07574 0.50688 0.88085 0.0
H964 H 0.09227 0.49325 0.92358 0.0
H965 H 0.09219 0.5165 0.94085 0.0
H966 H 0.09109 0.51077 0.08484 0.0
H967 H 0.09119 0.4875 0.068 0.0
H968 H 0.07392 0.49721 0.12325 0.0
H969 H 0.01454 0.48594 0.98499 0.0
H970 H 0.02053 0.45454 0.96459 0.0
H971 H 0.07641 0.46483 0.9747 0.0
C972 C 0.06281 0.53482 0.02383 0.0
C973 C 0.04879 0.54687 0.0286 0.0
C974 C 0.03137 0.54078 0.02081 0.0
C975 C 0.02787 0.52297 1.00895 0.0
C976 C 0.04196 0.51143 1.00427 0.0
C977 C 0.05909 0.51708 1.01094 0.0
C978 C 0.07181 0.50197 1.00159 0.0
C979 C 0.0837 0.50482 0.9326 0.0
C980 C 0.08264 0.4992 0.07372 0.0
C981 C 0.05914 0.48696 0.98888 0.0
C982 C 0.04199 0.49272 0.99124 0.0
C983 C 0.02792 0.48128 0.98266 0.0
C984 C 0.03146 0.46347 0.97123 0.0
C985 C 0.04892 0.45728 0.96769 0.0
C986 C 0.06292 0.46922 0.97648 0.0
H987 H 0.83984 0.75557 0.22629 0.0
H988 H 0.84487 0.81195 0.20243 0.0
H989 H 0.81315 0.81527 0.2254 0.0
H990 H 0.7978 0.75221 0.1319 0.0
H991 H 0.78977 0.73516 0.19327 0.0
H992 H 0.81293 0.73715 0.17539 0.0
H993 H 0.81875 0.73921 0.31903 0.0
H994 H 0.79562 0.73727 0.33733 0.0
H995 H 0.80765 0.75573 0.37371 0.0
H996 H 0.7813 0.81269 0.25595 0.0
H997 H 0.75081 0.80426 0.2844 0.0
H998 H 0.7658 0.74941 0.28254 0.0
C999 C 0.83424 0.7686 0.22586 0.0
C1000 C 0.84482 0.78352 0.21281 0.0
C1001 C 0.83701 0.80034 0.21212 0.0
C1002 C 0.81901 0.80237 0.22529 0.0
C1003 C 0.80896 0.78743 0.23824 0.0
C1004 C 0.81622 0.77085 0.23793 0.0
C1005 C 0.80237 0.75697 0.25225 0.0
C1006 C 0.80062 0.74465 0.18413 0.0
C1007 C 0.80634 0.74669 0.32491 0.0
C1008 C 0.78623 0.76836 0.2613 0.0
C1009 C 0.79039 0.78589 0.25347 0.0
C1010 C 0.77786 0.799 0.26166 0.0
C1011 C 0.76058 0.79408 0.27805 0.0
C1012 C 0.75593 0.77619 0.28536 0.0
C1013 C 0.76895 0.76318 0.27659 0.0
H1014 H 0.55349 0.53171 0.48229 0.0
H1015 H 0.4982 0.54148 0.44373 0.0
H1016 H 0.49186 0.51015 0.4656 0.0
H1017 H 0.55487 0.48978 0.38921 0.0
H1018 H 0.57018 0.48034 0.45506 0.0
H1019 H 0.57037 0.5036 0.4376 0.0
H1020 H 0.56642 0.50946 0.5805 0.0
H1021 H 0.56623 0.48622 0.5984 0.0
H1022 H 0.54823 0.49964 0.62981 0.0
H1023 H 0.49144 0.47789 0.49337 0.0
H1024 H 0.49704 0.44672 0.52164 0.0
H1025 H 0.55271 0.4576 0.53877 0.0
C1026 C 0.54004 0.52726 0.47868 0.0
C1027 C 0.52632 0.53905 0.46153 0.0
C1028 C 0.50892 0.53269 0.45674 0.0
C1029 C 0.50519 0.51492 0.46916 0.0
C1030 C 0.519 0.50364 0.48585 0.0
C1031 C 0.5361 0.50952 0.49032 0.0
C1032 C 0.54855 0.4946 0.50807 0.0
C1033 C 0.56177 0.49193 0.44363 0.0
C1034 C 0.55791 0.49767 0.5837 0.0
C1035 C 0.53578 0.47943 0.51317 0.0
C1036 C 0.5188 0.48496 0.50044 0.0
C1037 C 0.50469 0.4734 0.50321 0.0
C1038 C 0.508 0.45572 0.51942 0.0
C1039 C 0.52531 0.44972 0.53223 0.0
C1040 C 0.53935 0.46178 0.52882 0.0
H1041 H 0.83915 0.24104 0.77652 0.0
H1042 H 0.84717 0.18477 0.77938 0.0
H1043 H 0.81582 0.18027 0.74998 0.0
H1044 H 0.79724 0.24029 0.86676 0.0
H1045 H 0.78847 0.25816 0.81203 0.0
H1046 H 0.81166 0.25693 0.82982 0.0
H1047 H 0.81778 0.25814 0.68615 0.0
H1048 H 0.7946 0.25939 0.66789 0.0
H1049 H 0.80753 0.24235 0.62486 0.0
H1050 H 0.78357 0.18198 0.72007 0.0
H1051 H 0.75256 0.18966 0.69761 0.0
H1052 H 0.76541 0.24481 0.71927 0.0
C1053 C 0.83434 0.22777 0.77031 0.0
C1054 C 0.8456 0.21323 0.77968 0.0
C1055 C 0.83877 0.19608 0.77229 0.0
C1056 C 0.82099 0.1934 0.75547 0.0
C1057 C 0.81022 0.20802 0.74686 0.0
C1058 C 0.81661 0.22487 0.75445 0.0
C1059 C 0.80217 0.23831 0.74517 0.0
C1060 C 0.79975 0.24905 0.81777 0.0
C1061 C 0.80574 0.25025 0.67695 0.0
C1062 C 0.78664 0.22641 0.73113 0.0
C1063 C 0.79158 0.20899 0.73176 0.0
C1064 C 0.77954 0.19557 0.71957 0.0
C1065 C 0.76197 0.20006 0.70674 0.0
C1066 C 0.75657 0.21782 0.70684 0.0
C1067 C 0.76912 0.23112 0.71915 0.0
H1068 H 0.2623 0.25541 0.83467 0.0
H1069 H 0.25675 0.31202 0.84107 0.0
H1070 H 0.28818 0.31533 0.81388 0.0
H1071 H 0.30512 0.25385 0.92337 0.0
H1072 H 0.31299 0.23614 0.86537 0.0
H1073 H 0.28994 0.23801 0.88581 0.0
H1074 H 0.28306 0.23811 0.74277 0.0
H1075 H 0.30609 0.23625 0.7219 0.0
H1076 H 0.29352 0.25403 0.68254 0.0
H1077 H 0.31979 0.31285 0.78334 0.0
H1078 H 0.35021 0.3046 0.75342 0.0
H1079 H 0.3361 0.2496 0.76873 0.0
C1080 C 0.26773 0.26848 0.8305 0.0
C1081 C 0.25704 0.28346 0.84004 0.0
C1082 C 0.26464 0.30034 0.83414 0.0
C1083 C 0.2825 0.30238 0.81865 0.0
C1084 C 0.29267 0.28742 0.80945 0.0
C1085 C 0.28565 0.27078 0.81533 0.0
C1086 C 0.29963 0.25694 0.80271 0.0
C1087 C 0.30206 0.24557 0.87354 0.0
C1088 C 0.29531 0.24567 0.73335 0.0
C1089 C 0.31554 0.26844 0.78859 0.0
C1090 C 0.31115 0.28597 0.79264 0.0
C1091 C 0.32343 0.29916 0.7803 0.0
C1092 C 0.34067 0.29434 0.76323 0.0
C1093 C 0.34555 0.27647 0.75895 0.0
C1094 C 0.33279 0.26336 0.77213 0.0
H1095 H 0.26811 0.74124 0.23045 0.0
H1096 H 0.26071 0.68556 0.19279 0.0
H1097 H 0.29233 0.68063 0.2135 0.0
H1098 H 0.31013 0.74443 0.13644 0.0
H1099 H 0.31874 0.7602 0.20229 0.0
H1100 H 0.29554 0.75933 0.18417 0.0
H1101 H 0.2896 0.75525 0.32702 0.0
H1102 H 0.31278 0.75608 0.34557 0.0
H1103 H 0.30008 0.73753 0.3769 0.0
H1104 H 0.32461 0.68164 0.24285 0.0
H1105 H 0.35542 0.68871 0.2732 0.0
H1106 H 0.34194 0.74383 0.28755 0.0
C1107 C 0.27315 0.72802 0.22637 0.0
C1108 C 0.26195 0.71377 0.21011 0.0
C1109 C 0.26905 0.69667 0.20502 0.0
C1110 C 0.28699 0.69374 0.21682 0.0
C1111 C 0.29767 0.70805 0.23308 0.0
C1112 C 0.29105 0.72487 0.23734 0.0
C1113 C 0.30535 0.73799 0.25528 0.0
C1114 C 0.30757 0.75127 0.19068 0.0
C1115 C 0.30173 0.74725 0.33068 0.0
C1116 C 0.32104 0.7259 0.26097 0.0
C1117 C 0.31632 0.70868 0.24829 0.0
C1118 C 0.32848 0.69509 0.25242 0.0
C1119 C 0.34593 0.69923 0.26985 0.0
C1120 C 0.35107 0.71681 0.28239 0.0
C1121 C 0.33842 0.73028 0.27763 0.0
H1122 H 0.5494 0.03407 0.53214 0.0
H1123 H 0.60511 0.04496 0.54664 0.0
H1124 H 0.61148 0.01349 0.53087 0.0
H1125 H 0.55042 0.99386 0.63637 0.0
H1126 H 0.5341 0.98313 0.57933 0.0
H1127 H 0.53382 0.0066 0.58925 0.0
H1128 H 0.53504 0.01012 0.44399 0.0
H1129 H 0.53523 0.98665 0.43359 0.0
H1130 H 0.55238 -0.00033 0.39173 0.0
H1131 H 0.61189 0.98095 0.51511 0.0
H1132 H 0.60634 0.94935 0.49909 0.0
H1133 H 0.55033 0.95923 0.49676 0.0
C1134 C 0.56294 0.02984 0.53137 0.0
C1135 C 0.57678 0.04197 0.54039 0.0
C1136 C 0.59431 0.03591 0.53977 0.0
C1137 C 0.59806 0.01806 0.53087 0.0
C1138 C 0.58414 0.00641 0.52288 0.0
C1139 C 0.56693 0.01202 0.52292 0.0
C1140 C 0.55442 0.9967 0.51446 0.0
C1141 C 0.54249 0.99497 0.58401 0.0
C1142 C 0.54363 0.99839 0.4416 0.0
C1143 C 0.5673 0.98162 0.50976 0.0
C1144 C 0.58437 0.98755 0.5146 0.0
C1145 C 0.59858 0.97615 0.51124 0.0
C1146 C 0.59529 0.95821 0.50218 0.0
C1147 C 0.57791 0.95181 0.49683 0.0
C1148 C 0.56376 0.96372 0.50106 0.0
H1149 H 0.02283 0.96048 0.05735 0.0
H1150 H 0.079 0.95148 0.04831 0.0
H1151 H 0.08402 0.983 0.03226 0.0
H1152 H 0.02234 0.99485 0.91534 0.0
H1153 H 0.00575 0.00771 0.96183 0.0
H1154 H 0.00618 0.98428 0.97401 0.0
H1155 H 0.00756 0.98826 0.1189 0.0
H1156 H 0.00713 0.01171 0.10714 0.0
H1157 H 0.02466 0.00155 0.15933 0.0
H1158 H 0.08356 0.01497 0.02001 0.0
H1159 H 0.0775 0.0464 1.00645 0.0
H1160 H 0.0216 0.03601 0.01815 0.0
C1161 C 0.03615 0.9652 0.05206 0.0
C1162 C 0.05052 0.95347 0.05413 0.0
C1163 C 0.06776 0.96014 0.04661 0.0
C1164 C 0.07079 0.97806 0.03764 0.0
C1165 C 0.05645 0.98926 0.03569 0.0
C1166 C 0.03945 0.98321 0.04218 0.0
C1167 C 0.02651 0.99832 0.03674 0.0
C1168 C 0.01448 0.99616 0.96787 0.0
C1169 C 0.01584 6e-05 0.10989 0.0
C1170 C 0.03897 0.0137 0.0266 0.0
C1171 C 0.05616 0.00805 0.02665 0.0
C1172 C 0.07016 0.01959 0.01958 0.0
C1173 C 0.06656 0.03746 1.01208 0.0
C1174 C 0.04909 0.04369 1.01112 0.0
C1175 C 0.03509 0.03161 0.01829 0.0
H1176 H 0.14541 0.69958 0.24228 0.0
H1177 H 0.18288 0.67699 0.08586 0.0
H1178 H 0.16173 0.65339 0.0563 0.0
H1179 H 0.1288 0.65945 0.31558 0.0
H1180 H 0.10653 0.66711 0.3227 0.0
H1181 H 0.12441 0.68241 0.33014 0.0
H1182 H 0.11142 0.70085 0.22087 0.0
H1183 H 0.0934 0.68571 0.21357 0.0
H1184 H 0.10668 0.69045 0.13197 0.0
H1185 H 0.13674 0.63171 0.04765 0.0
H1186 H 0.10929 0.61476 0.05347 0.0
H1187 H 0.08812 0.65194 0.21469 0.0
C1188 C 0.14919 0.68974 0.20145 0.0
C1189 C 0.16584 0.69012 0.16644 0.0
C1190 C 0.17019 0.677 0.1132 0.0
C1191 C 0.15828 0.66352 0.09631 0.0
C1192 C 0.14209 0.66341 0.13285 0.0
C1193 C 0.13748 0.67628 0.18378 0.0
C1194 C 0.11926 0.67327 0.21514 0.0
C1195 C 0.11979 0.67039 0.30097 0.0
C1196 C 0.10696 0.68848 0.1941 0.0
C1197 C 0.11431 0.65662 0.17413 0.0
C1198 C 0.12767 0.6511 0.12721 0.0
C1199 C 0.12617 0.63596 0.08396 0.0
C1200 C 0.11051 0.62639 0.08788 0.0
C1201 C 0.09648 0.632 0.13446 0.0
C1202 C 0.09855 0.64727 0.17854 0.0
H1203 H 0.61552 0.85654 0.2919 0.0
H1204 H 0.59871 0.85997 0.52541 0.0
H1205 H 0.61751 0.83486 0.55759 0.0
H1206 H 0.61833 0.80934 0.28209 0.0
H1207 H 0.63775 0.80948 0.22419 0.0
H1208 H 0.62242 0.82737 0.2187 0.0
H1209 H 0.64737 0.84932 0.24876 0.0
H1210 H 0.66275 0.83148 0.25431 0.0
H1211 H 0.66032 0.84629 0.33274 0.0
H1212 H 0.63808 0.80902 0.56455 0.0
H1213 H 0.66029 0.78572 0.54622 0.0
H1214 H 0.66431 0.79995 0.30999 0.0
C1215 C 0.6157 0.85197 0.34972 0.0
C1216 C 0.60547 0.86019 0.40588 0.0
C1217 C 0.60631 0.85389 0.48111 0.0
C1218 C 0.61695 0.83959 0.50007 0.0
C1219 C 0.62684 0.83177 0.44339 0.0
C1220 C 0.62642 0.83782 0.36986 0.0
C1221 C 0.63879 0.82748 0.32017 0.0
C1222 C 0.62872 0.81784 0.2576 0.0
C1223 C 0.65316 0.83935 0.28707 0.0
C1224 C 0.64624 0.81474 0.3773 0.0
C1225 C 0.63907 0.8173 0.44793 0.0
C1226 C 0.64383 0.80693 0.5095 0.0
C1227 C 0.65639 0.79372 0.49858 0.0
C1228 C 0.66415 0.79118 0.42695 0.0
C1229 C 0.65886 0.80179 0.3657 0.0
H1230 H 0.48188 0.36043 0.73311 0.0
H1231 H 0.51136 0.35231 0.5269 0.0
H1232 H 0.49278 0.32686 0.49616 0.0
H1233 H 0.47437 0.31509 0.77855 0.0
H1234 H 0.45234 0.31862 0.81179 0.0
H1235 H 0.46831 0.33591 0.81871 0.0
H1236 H 0.44778 0.35665 0.74393 0.0
H1237 H 0.43174 0.33942 0.73687 0.0
H1238 H 0.43979 0.34998 0.65272 0.0
H1239 H 0.47144 0.30153 0.49008 0.0
H1240 H 0.4479 0.27953 0.50563 0.0
H1241 H 0.43101 0.30576 0.71027 0.0
C1242 C 0.48448 0.35322 0.68174 0.0
C1243 C 0.49816 0.3583 0.63263 0.0
C1244 C 0.50096 0.3487 0.56532 0.0
C1245 C 0.4905 0.33418 0.54745 0.0
C1246 C 0.47709 0.32955 0.59692 0.0
C1247 C 0.47394 0.33889 0.6623 0.0
C1248 C 0.4583 0.33157 0.70446 0.0
C1249 C 0.46366 0.3249 0.78302 0.0
C1250 C 0.44353 0.34522 0.70977 0.0
C1251 C 0.45328 0.31657 0.65298 0.0
C1252 C 0.46436 0.3155 0.59161 0.0
C1253 C 0.46261 0.30231 0.53771 0.0
C1254 C 0.44921 0.28987 0.54703 0.0
C1255 C 0.43761 0.29082 0.60927 0.0
C1256 C 0.43965 0.30452 0.66223 0.0
H1257 H 0.993 0.1324 0.80389 0.0
H1258 H 0.00299 0.1264 0.04363 0.0
H1259 H 0.98114 0.14905 0.07135 0.0
H1260 H 0.98622 0.17838 0.80236 0.0
H1261 H 0.96838 0.17796 0.73583 0.0
H1262 H 0.9848 0.16104 0.73371 0.0
H1263 H 0.96069 0.13736 0.7477 0.0
H1264 H 0.94418 0.15423 0.74951 0.0
H1265 H 0.94553 0.13859 0.82552 0.0
H1266 H 0.96027 0.17425 0.07336 0.0
H1267 H 0.93874 0.19787 0.0495 0.0
H1268 H 0.93973 0.18578 0.81076 0.0
C1269 C 0.99052 0.13576 0.86222 0.0
C1270 C 8e-05 0.12778 0.9214 0.0
C1271 C 0.9962 0.13246 0.997 0.0
C1272 C 0.98372 0.14532 1.01353 0.0
C1273 C 0.97483 0.15318 0.95403 0.0
C1274 C 0.97776 0.14836 0.87997 0.0
C1275 C 0.96606 0.15869 0.82691 0.0
C1276 C 0.97702 0.16967 0.77145 0.0
C1277 C 0.95336 0.14648 0.78494 0.0
C1278 C 0.95642 0.17024 0.88274 0.0
C1279 C 0.96183 0.16696 0.95572 0.0
C1280 C 0.95568 0.17674 0.01664 0.0
C1281 C 0.94355 0.19015 1.00265 0.0
C1282 C 0.93748 0.19338 0.92866 0.0
C1283 C 0.94394 0.18326 0.86807 0.0
H1284 H 0.15821 0.32675 0.0255 0.0
H1285 H 0.17675 0.31857 0.79639 0.0
H1286 H 0.15485 0.33939 0.74941 0.0
H1287 H 0.11285 0.32958 0.97947 0.0
H1288 H 0.10792 0.34651 0.04696 0.0
H1289 H 0.12567 0.33151 0.06439 0.0
H1290 H 0.14707 0.35764 0.07911 0.0
H1291 H 0.12935 0.37272 0.06174 0.0
H1292 H 0.14884 0.37358 1.00439 0.0
H1293 H 0.13026 0.35972 0.72505 0.0
H1294 H 0.10427 0.37884 0.72535 0.0
H1295 H 0.10157 0.37481 0.96945 0.0
C1296 C 0.15776 0.32947 0.96559 0.0
C1297 C 0.16923 0.32093 0.91481 0.0
C1298 C 0.16811 0.32481 0.83667 0.0
C1299 C 0.15572 0.33669 0.80922 0.0
C1300 C 0.14454 0.34473 0.86043 0.0
C1301 C 0.14541 0.34138 0.93695 0.0
C1302 C 0.1314 0.35153 0.97912 0.0
C1303 C 0.11871 0.33903 0.01987 0.0
C1304 C 0.13966 0.36465 0.03435 0.0
C1305 C 0.12245 0.36088 0.9141 0.0
C1306 C 0.13031 0.35676 0.84625 0.0
C1307 C 0.12405 0.36317 0.77785 0.0
C1308 C 0.10925 0.37399 0.77862 0.0
C1309 C 0.10086 0.37836 0.84735 0.0
C1310 C 0.10774 0.37184 0.91602 0.0
H1311 H 0.97663 0.88428 0.17439 0.0
H1312 H 0.02204 0.85794 0.07899 0.0
H1313 H 0.00474 0.83135 0.06118 0.0
H1314 H 0.96018 0.84569 0.2752 0.0
H1315 H 0.93746 0.85074 0.25801 0.0
H1316 H 0.95333 0.86816 0.26434 0.0
H1317 H 0.94386 0.87938 0.13264 0.0
H1318 H 0.92806 0.86192 0.12568 0.0
H1319 H 0.94442 0.86466 0.05328 0.0
H1320 H 0.98294 0.80802 0.04709 0.0
H1321 H 0.95795 0.78775 0.04964 0.0
H1322 H 0.92618 0.82762 0.15868 0.0
C1323 C 0.98293 0.87287 0.15032 0.0
C1324 C 0.00077 0.87333 0.12837 0.0
C1325 C 0.00849 0.85805 0.09704 0.0
C1326 C 0.99873 0.84281 0.08611 0.0
C1327 C 0.98123 0.84282 0.10733 0.0
C1328 C 0.97337 0.85728 0.13977 0.0
C1329 C 0.95433 0.85335 0.15867 0.0
C1330 C 0.95114 0.85455 0.24414 0.0
C1331 C 0.94194 0.86556 0.11495 0.0
C1332 C 0.95284 0.83456 0.13104 0.0
C1333 C 0.96854 0.8289 0.1011 0.0
C1334 C 0.97057 0.81222 0.07081 0.0
C1335 C 0.95624 0.80081 0.07226 0.0
C1336 C 0.94008 0.80604 0.10441 0.0
C1337 C 0.93836 0.82322 0.13373 0.0
H1338 H 0.48855 0.61772 0.37675 0.0
H1339 H 0.52926 0.65503 0.31791 0.0
H1340 H 0.50741 0.67893 0.31957 0.0
H1341 H 0.45479 0.63722 0.26167 0.0
H1342 H 0.43757 0.63253 0.32834 0.0
H1343 H 0.45654 0.61855 0.32359 0.0
H1344 H 0.46203 0.62347 0.46623 0.0
H1345 H 0.44318 0.63761 0.47123 0.0
H1346 H 0.46429 0.64548 0.50161 0.0
H1347 H 0.48123 0.69893 0.33264 0.0
H1348 H 0.45218 0.71302 0.34088 0.0
H1349 H 0.42835 0.66238 0.38504 0.0
C1350 C 0.49287 0.63091 0.36391 0.0
C1351 C 0.51062 0.63452 0.34729 0.0
C1352 C 0.51572 0.65194 0.33036 0.0
C1353 C 0.50342 0.66561 0.33169 0.0
C1354 C 0.48607 0.66163 0.3493 0.0
C1355 C 0.48074 0.64466 0.36398 0.0
C1356 C 0.46121 0.64378 0.37884 0.0
C1357 C 0.45199 0.63234 0.31956 0.0
C1358 C 0.45747 0.6372 0.45926 0.0
C1359 C 0.45636 0.66291 0.37014 0.0
C1360 C 0.47092 0.67303 0.35419 0.0
C1361 C 0.46973 0.69112 0.3447 0.0
C1362 C 0.45317 0.69901 0.3499 0.0
C1363 C 0.43797 0.6888 0.36338 0.0
C1364 C 0.4397 0.67054 0.37446 0.0
H1365 H 0.6758 0.18289 0.61014 0.0
H1366 H 0.63933 0.21675 0.72859 0.0
H1367 H 0.61621 0.19452 0.71534 0.0
H1368 H 0.64352 0.16399 0.47793 0.0
H1369 H 0.65329 0.14251 0.48151 0.0
H1370 H 0.6667 0.16169 0.49468 0.0
H1371 H 0.67747 0.14926 0.62249 0.0
H1372 H 0.66394 0.13015 0.6102 0.0
H1373 H 0.66166 0.14338 0.69375 0.0
H1374 H 0.59764 0.1682 0.69814 0.0
H1375 H 0.58403 0.13966 0.67101 0.0
H1376 H 0.63217 0.12234 0.56347 0.0
C1377 C 0.66284 0.18574 0.63173 0.0
C1378 C 0.65936 0.20157 0.67024 0.0
C1379 C 0.64232 0.20471 0.699 0.0
C1380 C 0.62907 0.19217 0.69176 0.0
C1381 C 0.63302 0.17652 0.65553 0.0
C1382 C 0.64941 0.17327 0.62532 0.0
C1383 C 0.65026 0.15501 0.59181 0.0
C1384 C 0.65364 0.15585 0.5064 0.0
C1385 C 0.66416 0.14379 0.63198 0.0
C1386 C 0.63188 0.14851 0.60887 0.0
C1387 C 0.62219 0.16117 0.64555 0.0
C1388 C 0.60503 0.1582 0.66886 0.0
C1389 C 0.59744 0.1419 0.65344 0.0
C1390 C 0.60699 0.12873 0.61502 0.0
C1391 C 0.62449 0.13212 0.59282 0.0
H1392 H 0.0072 0.34044 0.83353 0.0
H1393 H -6e-05 0.34791 0.07448 0.0
H1394 H 0.97708 0.32513 0.07448 0.0
H1395 H 0.96287 0.33282 0.78594 0.0
H1396 H 0.96748 0.31603 0.71736 0.0
H1397 H 0.98343 0.33287 0.73582 0.0
H1398 H 0.00668 0.30923 0.7668 0.0
H1399 H 0.99083 0.29229 0.74803 0.0
H1400 H 0.00198 0.29291 0.83757 0.0
H1401 H 0.95412 0.30265 0.04774 0.0
H1402 H 0.93362 0.28055 0.99722 0.0
H1403 H 0.95704 0.28603 0.77558 0.0
C1404 C 0.00108 0.33713 0.88672 0.0
C1405 C 0.0054 0.34616 0.954 0.0
C1406 C 0.9967 0.34152 0.02185 0.0
C1407 C 0.98377 0.32847 0.02259 0.0
C1408 C 0.97978 0.32 0.95525 0.0
C1409 C 0.98829 0.32398 0.88872 0.0
C1410 C 0.98152 0.31285 0.82417 0.0
C1411 C 0.97334 0.32433 0.76218 0.0
C1412 C 0.99613 0.30113 0.79228 0.0
C1413 C 0.96772 0.30211 0.86473 0.0
C1414 C 0.9669 0.30654 0.94026 0.0
C1415 C 0.95473 0.29896 0.98889 0.0
C1416 C 0.94311 0.28651 0.95966 0.0
C1417 C 0.94381 0.28164 0.88269 0.0
C1418 C 0.95637 0.28945 0.83477 0.0
H1419 H 0.50336 0.14368 0.71071 0.0
H1420 H 0.49358 0.13243 0.47396 0.0
H1421 H 0.46796 0.15189 0.47721 0.0
H1422 H 0.45862 0.14879 0.77201 0.0
H1423 H 0.46351 0.16706 0.83275 0.0
H1424 H 0.47995 0.15065 0.81481 0.0
H1425 H 0.50139 0.17467 0.76826 0.0
H1426 H 0.48507 0.19116 0.78631 0.0
H1427 H 0.49467 0.1893 0.69379 0.0
H1428 H 0.44365 0.17323 0.505 0.0
H1429 H 0.42428 0.19679 0.55213 0.0
H1430 H 0.45199 0.19664 0.76539 0.0
C1431 C 0.49604 0.14529 0.65899 0.0
C1432 C 0.50067 0.13619 0.59217 0.0
C1433 C 0.49025 0.13871 0.5267 0.0
C1434 C 0.47567 0.1499 0.52769 0.0
C1435 C 0.47172 0.15875 0.59418 0.0
C1436 C 0.48174 0.15674 0.65836 0.0
C1437 C 0.47554 0.16878 0.72085 0.0
C1438 C 0.46902 0.15818 0.78913 0.0
C1439 C 0.49003 0.18175 0.74361 0.0
C1440 C 0.46055 0.17801 0.68152 0.0
C1441 C 0.45835 0.17178 0.60895 0.0
C1442 C 0.44526 0.17821 0.56168 0.0
C1443 C 0.43429 0.19151 0.58896 0.0
C1444 C 0.43668 0.19845 0.66223 0.0
C1445 C 0.44994 0.19155 0.70911 0.0
H1446 H 0.63873 0.70638 0.29177 0.0
H1447 H 0.68369 0.68649 0.41559 0.0
H1448 H 0.66612 0.66146 0.45893 0.0
H1449 H 0.60709 0.69567 0.43468 0.0
H1450 H 0.59018 0.68983 0.36844 0.0
H1451 H 0.60653 0.70578 0.34278 0.0
H1452 H 0.61472 0.68744 0.22505 0.0
H1453 H 0.59832 0.67149 0.25011 0.0
H1454 H 0.62073 0.66475 0.23641 0.0
H1455 H 0.6437 0.63851 0.48999 0.0
H1456 H 0.61776 0.61944 0.50668 0.0
H1457 H 0.58686 0.65516 0.37075 0.0
C1458 C 0.64495 0.69687 0.32823 0.0
C1459 C 0.6628 0.69849 0.34922 0.0
C1460 C 0.67026 0.68546 0.39657 0.0
C1461 C 0.66031 0.67123 0.42238 0.0
C1462 C 0.64279 0.67019 0.40127 0.0
C1463 C 0.63514 0.68266 0.35544 0.0
C1464 C 0.61591 0.67865 0.34262 0.0
C1465 C 0.60424 0.69336 0.37402 0.0
C1466 C 0.61221 0.67539 0.25856 0.0
C1467 C 0.61398 0.66197 0.3884 0.0
C1468 C 0.62968 0.65727 0.42143 0.0
C1469 C 0.63131 0.64209 0.46469 0.0
C1470 C 0.61655 0.63135 0.47384 0.0
C1471 C 0.60033 0.63592 0.44055 0.0
C1472 C 0.59904 0.65152 0.39788 0.0
H1473 H 0.11406 0.84305 0.02663 0.0
H1474 H 0.10075 0.85793 0.25539 0.0
H1475 H 0.12359 0.83806 0.30456 0.0
H1476 H 0.11987 0.7985 0.0645 0.0
H1477 H 0.138 0.79532 1.00079 0.0
H1478 H 0.12226 0.81236 0.9827 0.0
H1479 H 0.14716 0.83542 0.97926 0.0
H1480 H 0.16302 0.81841 0.99694 0.0
H1481 H 0.16192 0.83721 0.0582 0.0
H1482 H 0.14585 0.81478 0.32954 0.0
H1483 H 0.16574 0.78926 0.32846 0.0
H1484 H 0.16482 0.7894 0.08364 0.0
C1485 C 0.11631 0.84238 0.08685 0.0
C1486 C 0.10578 0.85201 0.13738 0.0
C1487 C 0.10874 0.85059 0.21598 0.0
C1488 C 0.1217 0.83942 0.24436 0.0
C1489 C 0.13162 0.82975 0.19336 0.0
C1490 C 0.12914 0.83113 0.11625 0.0
C1491 C 0.14065 0.81825 0.07422 0.0
C1492 C 0.12953 0.80535 0.02785 0.0
C1493 C 0.15398 0.8279 0.02421 0.0
C1494 C 0.14959 0.80914 0.13976 0.0
C1495 C 0.14437 0.81613 0.20793 0.0
C1496 C 0.15023 0.80934 0.27646 0.0
C1497 C 0.16158 0.79488 0.27531 0.0
C1498 C 0.16684 0.78728 0.20609 0.0
C1499 C 0.16093 0.79477 0.13759 0.0
H1500 H 0.94018 0.70931 0.10724 0.0
H1501 H 0.969 0.73476 0.28806 0.0
H1502 H 0.99444 0.71602 0.26104 0.0
H1503 H 0.95638 0.66573 0.14938 0.0
H1504 H 0.95688 0.65927 0.05167 0.0
H1505 H 0.9412 0.67528 0.08324 0.0
H1506 H 0.95265 0.69704 0.98232 0.0
H1507 H 0.96856 0.68119 0.95122 0.0
H1508 H 0.97559 0.70267 0.98054 0.0
H1509 H 0.01725 0.69512 0.21158 0.0
H1510 H 0.03421 0.67079 0.15556 0.0
H1511 H 0.98972 0.6572 0.01542 0.0
C1512 C 0.95166 0.71084 0.1424 0.0
C1513 C 0.95246 0.72386 0.1993 0.0
C1514 C 0.96802 0.72535 0.24269 0.0
C1515 C 0.98259 0.71466 0.22808 0.0
C1516 C 0.98139 0.70227 0.17073 0.0
C1517 C 0.9662 0.70006 0.12964 0.0
C1518 C 0.96804 0.68522 0.07341 0.0
C1519 C 0.95484 0.6705 0.09048 0.0
C1520 C 0.9661 0.69194 0.99206 0.0
C1521 C 0.98667 0.67944 0.08929 0.0
C1522 C 0.99423 0.68965 0.14477 0.0
C1523 C 0.01144 0.687 0.16833 0.0
C1524 C 0.02102 0.67326 0.13575 0.0
C1525 C 0.01329 0.6622 0.08103 0.0
C1526 C 0.99594 0.66548 0.05709 0.0
H1527 H 0.14987 0.2108 0.8256 0.0
H1528 H 0.16542 0.22099 0.05668 0.0
H1529 H 0.1459 0.19741 0.10095 0.0
H1530 H 0.10509 0.20264 0.86431 0.0
H1531 H 0.10257 0.18522 0.79667 0.0
H1532 H 0.11874 0.20203 0.78135 0.0
H1533 H 0.14303 0.17847 0.77081 0.0
H1534 H 0.12689 0.16156 0.78531 0.0
H1535 H 0.1458 0.16278 0.84592 0.0
H1536 H 0.12347 0.17442 0.12177 0.0
H1537 H 0.10021 0.15211 0.11763 0.0
H1538 H 0.09923 0.15581 0.87314 0.0
C1539 C 0.14937 0.20779 0.88526 0.0
C1540 C 0.15908 0.21774 0.93783 0.0
C1541 C 0.15795 0.21362 0.01562 0.0
C1542 C 0.14694 0.20023 0.0413 0.0
C1543 C 0.13717 0.19098 0.98851 0.0
C1544 C 0.13833 0.19443 0.91208 0.0
C1545 C 0.12586 0.18281 0.86799 0.0
C1546 C 0.11226 0.19384 0.82506 0.0
C1547 C 0.136 0.17068 0.81434 0.0
C1548 C 0.1174 0.17254 0.93175 0.0
C1549 C 0.12419 0.17747 1.00067 0.0
C1550 C 0.1182 0.17026 0.06807 0.0
C1551 C 0.10502 0.15751 0.06507 0.0
C1552 C 0.09794 0.15202 0.9951 0.0
C1553 C 0.10424 0.15976 0.92763 0.0
H1554 H 0.66011 0.29825 0.56719 0.0
H1555 H 0.66885 0.30274 0.80834 0.0
H1556 H 0.64885 0.3281 0.81245 0.0
H1557 H 0.65486 0.34559 0.5269 0.0
H1558 H 0.63774 0.34173 0.45894 0.0
H1559 H 0.65471 0.32562 0.47276 0.0
H1560 H 0.63116 0.302 0.50022 0.0
H1561 H 0.61416 0.318 0.48659 0.0
H1562 H 0.61525 0.3058 0.57357 0.0
H1563 H 0.62527 0.35039 0.79369 0.0
H1564 H 0.59992 0.36818 0.75332 0.0
H1565 H 0.60594 0.34905 0.52472 0.0
C1566 C 0.65797 0.30464 0.62088 0.0
C1567 C 0.66611 0.29843 0.68755 0.0
C1568 C 0.66303 0.30735 0.75631 0.0
C1569 C 0.65162 0.32176 0.75924 0.0
C1570 C 0.64347 0.32718 0.69287 0.0
C1571 C 0.64658 0.31897 0.62484 0.0
C1572 C 0.6351 0.32645 0.56286 0.0
C1573 C 0.64628 0.33538 0.50176 0.0
C1574 C 0.62321 0.31222 0.52886 0.0
C1575 C 0.62461 0.33977 0.60719 0.0
C1576 C 0.62981 0.34012 0.68191 0.0
C1577 C 0.62127 0.35043 0.73516 0.0
C1578 C 0.60686 0.36043 0.7118 0.0
C1579 C 0.6011 0.36003 0.63591 0.0
C1580 C 0.61032 0.34984 0.58269 0.0
H1581 H 0.49885 0.84866 0.51626 0.0
H1582 H 0.5034 0.87006 0.29056 0.0
H1583 H 0.47888 0.85146 0.24835 0.0
H1584 H 0.49158 0.80578 0.46244 0.0
H1585 H 0.47585 0.80043 0.53474 0.0
H1586 H 0.49186 0.81729 0.55118 0.0
H1587 H 0.46719 0.8395 0.58125 0.0
H1588 H 0.45106 0.82263 0.56577 0.0
H1589 H 0.44983 0.84292 0.51395 0.0
H1590 H 0.45716 0.82795 0.22605 0.0
H1591 H 0.43839 0.80183 0.22582 0.0
H1592 H 0.44645 0.796 0.46727 0.0
C1593 C 0.49424 0.84978 0.45872 0.0
C1594 C 0.50288 0.86081 0.40661 0.0
C1595 C 0.49688 0.86167 0.33117 0.0
C1596 C 0.48296 0.8512 0.30677 0.0
C1597 C 0.47508 0.83999 0.35864 0.0
C1598 C 0.48032 0.83932 0.43326 0.0
C1599 C 0.4705 0.82508 0.47557 0.0
C1600 C 0.48321 0.81134 0.50785 0.0
C1601 C 0.45896 0.83301 0.53782 0.0
C1602 C 0.45946 0.8175 0.4124 0.0
C1603 C 0.4622 0.82642 0.3457 0.0
C1604 C 0.45453 0.82111 0.27833 0.0
C1605 C 0.44376 0.80625 0.27895 0.0
C1606 C 0.44065 0.79681 0.34662 0.0
C1607 C 0.44852 0.80276 0.41433 0.0
loop_
_geom_bond_atom_site_label_1
_geom_bond_atom_site_label_2
_geom_bond_distance
_geom_bond_site_symmetry_2
_ccdc_geom_bond_type
Co0 N4 2.148 1_554 S
Co0 N10 2.128 . S
Co0 N20 2.194 . S
Co0 O25 2.351 . S
Co0 O26 2.155 . S
Co0 O27 2.096 . S
C1 N4 1.301 . S
C1 N5 1.328 . S
C1 H6 0.930 . S
C2 C3 1.333 . S
C2 N4 1.317 . S
C2 H7 0.930 . S
C3 C2 1.333 . S
C3 N5 1.350 . S
C3 H29 0.931 . S
N4 Co0 2.148 1_556 S
N4 C1 1.301 . S
N4 C2 1.317 . S
N5 C1 1.328 . S
N5 C3 1.350 . S
H6 C1 0.930 . S
H7 C2 0.930 . S
C8 O9 1.224 . S
C8 O27 1.247 . S
O9 C8 1.224 . S
N10 Co0 2.128 . S
N10 C11 1.355 . S
N10 C13 1.311 . S
C11 N10 1.355 . S
C11 C12 1.363 . S
C11 H23 0.929 . S
C12 C11 1.363 . S
C12 N14 1.375 . S
C12 H30 0.931 . S
C13 N10 1.311 . S
C13 N14 1.347 . S
C13 H24 0.929 . S
N14 C12 1.375 . S
N14 C13 1.347 . S
C15 C18 1.365 . S
C15 N20 1.328 . S
C15 H21 0.929 . S
C16 C17 1.362 . S
C16 C19 1.378 . S
C16 H31 0.929 . S
C17 C16 1.362 . S
C17 C18 1.366 . S
C18 C15 1.365 . S
C18 C17 1.366 . S
C18 H32 0.930 . S
C19 C16 1.378 . S
C19 N20 1.315 . S
C19 H22 0.930 . S
N20 Co0 2.194 . S
N20 C15 1.328 . S
N20 C19 1.315 . S
H21 C15 0.929 . S
H22 C19 0.930 . S
H23 C11 0.929 . S
H24 C13 0.929 . S
O25 Co0 2.351 . S
O25 C28 1.244 . S
O26 Co0 2.155 . S
O26 C28 1.240 . S
O27 Co0 2.096 . S
O27 C8 1.247 . S
C28 O25 1.244 . S
C28 O26 1.240 . S
H29 C3 0.931 . S
H30 C12 0.931 . S
H31 C16 0.929 . S
H32 C18 0.930 . S
Co33 N37 2.148 . S
Co33 N43 2.128 . S
Co33 N53 2.194 . S
Co33 O58 2.351 . S
Co33 O59 2.155 . S
Co33 O60 2.096 . S
C34 N37 1.301 . S
C34 N38 1.328 . S
C34 H39 0.930 . S
C35 C36 1.333 . S
C35 N37 1.317 . S
C35 H40 0.930 . S
C36 C35 1.333 . S
C36 N38 1.350 . S
C36 H62 0.931 . S
N37 Co33 2.148 . S
N37 C34 1.301 . S
N37 C35 1.317 . S
N38 C34 1.328 . S
N38 C36 1.350 . S
H39 C34 0.930 . S
H40 C35 0.930 . S
C41 O42 1.224 . S
C41 O60 1.247 . S
O42 C41 1.224 . S
N43 Co33 2.128 . S
N43 C44 1.355 . S
N43 C46 1.311 . S
C44 N43 1.355 . S
C44 C45 1.363 . S
C44 H56 0.929 . S
C45 C44 1.363 . S
C45 N47 1.375 . S
C45 H63 0.931 . S
C46 N43 1.311 . S
C46 N47 1.347 . S
C46 H57 0.929 . S
N47 C45 1.375 . S
N47 C46 1.347 . S
C48 C51 1.365 . S
C48 N53 1.328 . S
C48 H54 0.929 . S
C49 C50 1.362 . S
C49 C52 1.378 . S
C49 H64 0.929 . S
C50 C49 1.362 . S
C50 C51 1.366 . S
C51 C48 1.365 . S
C51 C50 1.366 . S
C51 H65 0.930 . S
C52 C49 1.378 . S
C52 N53 1.315 . S
C52 H55 0.930 . S
N53 Co33 2.194 . S
N53 C48 1.328 . S
N53 C52 1.315 . S
H54 C48 0.929 . S
H55 C52 0.930 . S
H56 C44 0.929 . S
H57 C46 0.929 . S
O58 Co33 2.351 . S
O58 C61 1.244 . S
O59 Co33 2.155 . S
O59 C61 1.240 . S
O60 Co33 2.096 . S
O60 C41 1.247 . S
C61 O58 1.244 . S
C61 O59 1.240 . S
H62 C36 0.931 . S
H63 C45 0.931 . S
H64 C49 0.929 . S
H65 C51 0.930 . S
Co66 N70 2.148 . S
Co66 N76 2.128 . S
Co66 N86 2.194 . S
Co66 O91 2.351 . S
Co66 O92 2.155 . S
Co66 O93 2.096 . S
C67 N70 1.301 . S
C67 N71 1.328 . S
C67 H72 0.930 . S
C68 C69 1.333 . S
C68 N70 1.317 . S
C68 H73 0.930 . S
C69 C68 1.333 . S
C69 N71 1.350 . S
C69 H95 0.931 . S
N70 Co66 2.148 . S
N70 C67 1.301 . S
N70 C68 1.317 . S
N71 C67 1.328 . S
N71 C69 1.350 . S
H72 C67 0.930 . S
H73 C68 0.930 . S
C74 O75 1.224 . S
C74 O93 1.247 . S
O75 C74 1.224 . S
N76 Co66 2.128 . S
N76 C77 1.355 . S
N76 C79 1.311 . S
C77 N76 1.355 . S
C77 C78 1.363 . S
C77 H89 0.929 . S
C78 C77 1.363 . S
C78 N80 1.375 . S
C78 H96 0.931 . S
C79 N76 1.311 . S
C79 N80 1.347 . S
C79 H90 0.929 . S
N80 C78 1.375 . S
N80 C79 1.347 . S
C81 C84 1.365 . S
C81 N86 1.328 . S
C81 H87 0.929 . S
C82 C83 1.362 . S
C82 C85 1.378 . S
C82 H97 0.929 . S
C83 C82 1.362 . S
C83 C84 1.366 . S
C84 C81 1.365 . S
C84 C83 1.366 . S
C84 H98 0.930 . S
C85 C82 1.378 . S
C85 N86 1.315 . S
C85 H88 0.930 . S
N86 Co66 2.194 . S
N86 C81 1.328 . S
N86 C85 1.315 . S
H87 C81 0.929 . S
H88 C85 0.930 . S
H89 C77 0.929 . S
H90 C79 0.929 . S
O91 Co66 2.351 . S
O91 C94 1.244 . S
O92 Co66 2.155 . S
O92 C94 1.240 . S
O93 Co66 2.096 . S
O93 C74 1.247 . S
C94 O91 1.244 . S
C94 O92 1.240 . S
H95 C69 0.931 . S
H96 C78 0.931 . S
H97 C82 0.929 . S
H98 C84 0.930 . S
Co99 N103 2.148 . S
Co99 N109 2.128 . S
Co99 N119 2.194 . S
Co99 O124 2.351 . S
Co99 O125 2.155 . S
Co99 O126 2.096 . S
C100 N103 1.301 . S
C100 N104 1.328 . S
C100 H105 0.930 . S
C101 C102 1.333 . S
C101 N103 1.317 . S
C101 H106 0.930 . S
C102 C101 1.333 . S
C102 N104 1.350 . S
C102 H128 0.931 . S
N103 Co99 2.148 . S
N103 C100 1.301 . S
N103 C101 1.317 . S
N104 C100 1.328 . S
N104 C102 1.350 . S
H105 C100 0.930 . S
H106 C101 0.930 . S
C107 O108 1.224 . S
C107 O126 1.247 . S
O108 C107 1.224 . S
N109 Co99 2.128 . S
N109 C110 1.355 . S
N109 C112 1.311 1_556 S
C110 N109 1.355 . S
C110 C111 1.363 1_556 S
C110 H122 0.929 . S
C111 C110 1.363 1_554 S
C111 N113 1.375 . S
C111 H129 0.931 . S
C112 N109 1.311 1_554 S
C112 N113 1.347 . S
C112 H123 0.929 1_554 S
N113 C111 1.375 . S
N113 C112 1.347 . S
C114 C117 1.365 . S
C114 N119 1.328 . S
C114 H120 0.929 . S
C115 C116 1.362 . S
C115 C118 1.378 . S
C115 H130 0.929 . S
C116 C115 1.362 . S
C116 C117 1.366 . S
C117 C114 1.365 . S
C117 C116 1.366 . S
C117 H131 0.930 . S
C118 C115 1.378 . S
C118 N119 1.315 . S
C118 H121 0.930 . S
N119 Co99 2.194 . S
N119 C114 1.328 . S
N119 C118 1.315 . S
H120 C114 0.929 . S
H121 C118 0.930 . S
H122 C110 0.929 . S
H123 C112 0.929 1_556 S
O124 Co99 2.351 . S
O124 C127 1.244 . S
O125 Co99 2.155 . S
O125 C127 1.240 . S
O126 Co99 2.096 . S
O126 C107 1.247 . S
C127 O124 1.244 . S
C127 O125 1.240 . S
H128 C102 0.931 . S
H129 C111 0.931 . S
H130 C115 0.929 . S
H131 C117 0.930 . S
Co132 N136 2.148 1_556 S
Co132 N142 2.128 . S
Co132 N152 2.194 . S
Co132 O157 2.351 . S
Co132 O158 2.155 . S
Co132 O159 2.096 . S
C133 N136 1.301 . S
C133 N137 1.328 . S
C133 H138 0.930 . S
C134 C135 1.333 . S
C134 N136 1.317 . S
C134 H139 0.930 . S
C135 C134 1.333 . S
C135 N137 1.350 . S
C135 H161 0.931 . S
N136 Co132 2.148 1_554 S
N136 C133 1.301 . S
N136 C134 1.317 . S
N137 C133 1.328 . S
N137 C135 1.350 . S
H138 C133 0.930 . S
H139 C134 0.930 . S
C140 O141 1.224 . S
C140 O159 1.247 . S
O141 C140 1.224 . S
N142 Co132 2.128 . S
N142 C143 1.355 . S
N142 C145 1.311 . S
C143 N142 1.355 . S
C143 C144 1.363 . S
C143 H155 0.929 . S
C144 C143 1.363 . S
C144 N146 1.375 . S
C144 H162 0.931 . S
C145 N142 1.311 . S
C145 N146 1.347 . S
C145 H156 0.929 . S
N146 C144 1.375 . S
N146 C145 1.347 . S
C147 C150 1.365 . S
C147 N152 1.328 . S
C147 H153 0.929 . S
C148 C149 1.362 . S
C148 C151 1.378 . S
C148 H163 0.929 . S
C149 C148 1.362 . S
C149 C150 1.366 . S
C150 C147 1.365 . S
C150 C149 1.366 . S
C150 H164 0.930 . S
C151 C148 1.378 . S
C151 N152 1.315 . S
C151 H154 0.930 . S
N152 Co132 2.194 . S
N152 C147 1.328 . S
N152 C151 1.315 . S
H153 C147 0.929 . S
H154 C151 0.930 . S
H155 C143 0.929 . S
H156 C145 0.929 . S
O157 Co132 2.351 . S
O157 C160 1.244 . S
O158 Co132 2.155 . S
O158 C160 1.240 . S
O159 Co132 2.096 . S
O159 C140 1.247 . S
C160 O157 1.244 . S
C160 O158 1.240 . S
H161 C135 0.931 . S
H162 C144 0.931 . S
H163 C148 0.929 . S
H164 C150 0.930 . S
Co165 N169 2.148 . S
Co165 N175 2.128 . S
Co165 N185 2.194 . S
Co165 O190 2.351 . S
Co165 O191 2.155 . S
Co165 O192 2.096 . S
C166 N169 1.301 . S
C166 N170 1.328 . S
C166 H171 0.930 . S
C167 C168 1.333 . S
C167 N169 1.317 . S
C167 H172 0.930 . S
C168 C167 1.333 . S
C168 N170 1.350 . S
C168 H194 0.931 . S
N169 Co165 2.148 . S
N169 C166 1.301 . S
N169 C167 1.317 . S
N170 C166 1.328 . S
N170 C168 1.350 . S
H171 C166 0.930 . S
H172 C167 0.930 . S
C173 O174 1.224 . S
C173 O192 1.247 . S
O174 C173 1.224 . S
N175 Co165 2.128 . S
N175 C176 1.355 . S
N175 C178 1.311 1_554 S
C176 N175 1.355 . S
C176 C177 1.363 1_554 S
C176 H188 0.929 . S
C177 C176 1.363 1_556 S
C177 N179 1.375 . S
C177 H195 0.931 . S
C178 N175 1.311 1_556 S
C178 N179 1.347 . S
C178 H189 0.929 1_556 S
N179 C177 1.375 . S
N179 C178 1.347 . S
C180 C183 1.365 . S
C180 N185 1.328 . S
C180 H186 0.929 . S
C181 C182 1.362 . S
C181 C184 1.378 . S
C181 H196 0.929 . S
C182 C181 1.362 . S
C182 C183 1.366 . S
C183 C180 1.365 . S
C183 C182 1.366 . S
C183 H197 0.930 . S
C184 C181 1.378 . S
C184 N185 1.315 . S
C184 H187 0.930 . S
N185 Co165 2.194 . S
N185 C180 1.328 . S
N185 C184 1.315 . S
H186 C180 0.929 . S
H187 C184 0.930 . S
H188 C176 0.929 . S
H189 C178 0.929 1_554 S
O190 Co165 2.351 . S
O190 C193 1.244 . S
O191 Co165 2.155 . S
O191 C193 1.240 . S
O192 Co165 2.096 . S
O192 C173 1.247 . S
C193 O190 1.244 . S
C193 O191 1.240 . S
H194 C168 0.931 . S
H195 C177 0.931 . S
H196 C181 0.929 . S
H197 C183 0.930 . S
Co198 N202 2.148 . S
Co198 N208 2.128 . S
Co198 N218 2.194 . S
Co198 O223 2.351 . S
Co198 O224 2.155 . S
Co198 O225 2.096 . S
C199 N202 1.301 . S
C199 N203 1.328 . S
C199 H204 0.930 . S
C200 C201 1.333 . S
C200 N202 1.317 . S
C200 H205 0.930 . S
C201 C200 1.333 . S
C201 N203 1.350 . S
C201 H227 0.931 . S
N202 Co198 2.148 . S
N202 C199 1.301 . S
N202 C200 1.317 . S
N203 C199 1.328 . S
N203 C201 1.350 . S
H204 C199 0.930 . S
H205 C200 0.930 . S
C206 O207 1.224 . S
C206 O225 1.247 . S
O207 C206 1.224 . S
N208 Co198 2.128 . S
N208 C209 1.355 . S
N208 C211 1.311 . S
C209 N208 1.355 . S
C209 C210 1.363 . S
C209 H221 0.929 . S
C210 C209 1.363 . S
C210 N212 1.375 . S
C210 H228 0.931 . S
C211 N208 1.311 . S
C211 N212 1.347 . S
C211 H222 0.929 . S
N212 C210 1.375 . S
N212 C211 1.347 . S
C213 C216 1.365 . S
C213 N218 1.328 . S
C213 H219 0.929 . S
C214 C215 1.362 . S
C214 C217 1.378 . S
C214 H229 0.929 . S
C215 C214 1.362 . S
C215 C216 1.366 . S
C216 C213 1.365 . S
C216 C215 1.366 . S
C216 H230 0.930 . S
C217 C214 1.378 . S
C217 N218 1.315 . S
C217 H220 0.930 . S
N218 Co198 2.194 . S
N218 C213 1.328 . S
N218 C217 1.315 . S
H219 C213 0.929 . S
H220 C217 0.930 . S
H221 C209 0.929 . S
H222 C211 0.929 . S
O223 Co198 2.351 . S
O223 C226 1.244 . S
O224 Co198 2.155 . S
O224 C226 1.240 . S
O225 Co198 2.096 . S
O225 C206 1.247 . S
C226 O223 1.244 . S
C226 O224 1.240 . S
H227 C201 0.931 . S
H228 C210 0.931 . S
H229 C214 0.929 . S
H230 C216 0.930 . S
Co231 N235 2.148 . S
Co231 N241 2.128 . S
Co231 N251 2.194 . S
Co231 O256 2.351 . S
Co231 O257 2.155 . S
Co231 O258 2.096 . S
C232 N235 1.301 . S
C232 N236 1.328 . S
C232 H237 0.930 . S
C233 C234 1.333 . S
C233 N235 1.317 . S
C233 H238 0.930 . S
C234 C233 1.333 . S
C234 N236 1.350 . S
C234 H260 0.931 . S
N235 Co231 2.148 . S
N235 C232 1.301 . S
N235 C233 1.317 . S
N236 C232 1.328 . S
N236 C234 1.350 . S
H237 C232 0.930 . S
H238 C233 0.930 . S
C239 O240 1.224 . S
C239 O258 1.247 . S
O240 C239 1.224 . S
N241 Co231 2.128 . S
N241 C242 1.355 . S
N241 C244 1.311 . S
C242 N241 1.355 . S
C242 C243 1.363 . S
C242 H254 0.929 . S
C243 C242 1.363 . S
C243 N245 1.375 . S
C243 H261 0.931 . S
C244 N241 1.311 . S
C244 N245 1.347 . S
C244 H255 0.929 . S
N245 C243 1.375 . S
N245 C244 1.347 . S
C246 C249 1.365 . S
C246 N251 1.328 . S
C246 H252 0.929 . S
C247 C248 1.362 . S
C247 C250 1.378 . S
C247 H262 0.929 . S
C248 C247 1.362 . S
C248 C249 1.366 . S
C249 C246 1.365 . S
C249 C248 1.366 . S
C249 H263 0.930 . S
C250 C247 1.378 . S
C250 N251 1.315 . S
C250 H253 0.930 . S
N251 Co231 2.194 . S
N251 C246 1.328 . S
N251 C250 1.315 . S
H252 C246 0.929 . S
H253 C250 0.930 . S
H254 C242 0.929 . S
H255 C244 0.929 . S
O256 Co231 2.351 . S
O256 C259 1.244 . S
O257 Co231 2.155 . S
O257 C259 1.240 . S
O258 Co231 2.096 . S
O258 C239 1.247 . S
C259 O256 1.244 . S
C259 O257 1.240 . S
H260 C234 0.931 . S
H261 C243 0.931 . S
H262 C247 0.929 . S
H263 C249 0.930 . S
Co264 N268 2.148 . S
Co264 N274 2.128 . S
Co264 N284 2.194 . S
Co264 O289 2.351 . S
Co264 O290 2.155 . S
Co264 O291 2.096 . S
C265 N268 1.301 . S
C265 N269 1.328 . S
C265 H270 0.930 . S
C266 C267 1.333 . S
C266 N268 1.317 . S
C266 H271 0.930 . S
C267 C266 1.333 . S
C267 N269 1.350 . S
C267 H293 0.931 . S
N268 Co264 2.148 . S
N268 C265 1.301 . S
N268 C266 1.317 . S
N269 C265 1.328 . S
N269 C267 1.350 . S
H270 C265 0.930 . S
H271 C266 0.930 . S
C272 O273 1.224 . S
C272 O291 1.247 . S
O273 C272 1.224 . S
N274 Co264 2.128 . S
N274 C275 1.355 . S
N274 C277 1.311 . S
C275 N274 1.355 . S
C275 C276 1.363 . S
C275 H287 0.929 . S
C276 C275 1.363 . S
C276 N278 1.375 . S
C276 H294 0.931 . S
C277 N274 1.311 . S
C277 N278 1.347 . S
C277 H288 0.929 . S
N278 C276 1.375 . S
N278 C277 1.347 . S
C279 C282 1.365 . S
C279 N284 1.328 . S
C279 H285 0.929 . S
C280 C281 1.362 . S
C280 C283 1.378 . S
C280 H295 0.929 . S
C281 C280 1.362 . S
C281 C282 1.366 . S
C282 C279 1.365 . S
C282 C281 1.366 . S
C282 H296 0.930 . S
C283 C280 1.378 . S
C283 N284 1.315 . S
C283 H286 0.930 . S
N284 Co264 2.194 . S
N284 C279 1.328 . S
N284 C283 1.315 . S
H285 C279 0.929 . S
H286 C283 0.930 . S
H287 C275 0.929 . S
H288 C277 0.929 . S
O289 Co264 2.351 . S
O289 C292 1.244 . S
O290 Co264 2.155 . S
O290 C292 1.240 . S
O291 Co264 2.096 . S
O291 C272 1.247 . S
C292 O289 1.244 . S
C292 O290 1.240 . S
H293 C267 0.931 . S
H294 C276 0.931 . S
H295 C280 0.929 . S
H296 C282 0.930 . S
Co297 N301 2.148 . S
Co297 N307 2.128 . S
Co297 N317 2.194 . S
Co297 O322 2.351 . S
Co297 O323 2.155 . S
Co297 O324 2.096 . S
C298 N301 1.301 . S
C298 N302 1.328 . S
C298 H303 0.930 . S
C299 C300 1.333 . S
C299 N301 1.317 . S
C299 H304 0.930 . S
C300 C299 1.333 . S
C300 N302 1.350 . S
C300 H326 0.931 . S
N301 Co297 2.148 . S
N301 C298 1.301 . S
N301 C299 1.317 . S
N302 C298 1.328 . S
N302 C300 1.350 . S
H303 C298 0.930 . S
H304 C299 0.930 . S
C305 O306 1.224 . S
C305 O324 1.247 . S
O306 C305 1.224 . S
N307 Co297 2.128 . S
N307 C308 1.355 . S
N307 C310 1.311 1_554 S
C308 N307 1.355 . S
C308 C309 1.363 1_554 S
C308 H320 0.929 . S
C309 C308 1.363 1_556 S
C309 N311 1.375 . S
C309 H327 0.931 . S
C310 N307 1.311 1_556 S
C310 N311 1.347 . S
C310 H321 0.929 1_556 S
N311 C309 1.375 . S
N311 C310 1.347 . S
C312 C315 1.365 . S
C312 N317 1.328 . S
C312 H318 0.929 . S
C313 C314 1.362 . S
C313 C316 1.378 . S
C313 H328 0.929 . S
C314 C313 1.362 . S
C314 C315 1.366 . S
C315 C312 1.365 . S
C315 C314 1.366 . S
C315 H329 0.930 . S
C316 C313 1.378 . S
C316 N317 1.315 . S
C316 H319 0.930 . S
N317 Co297 2.194 . S
N317 C312 1.328 . S
N317 C316 1.315 . S
H318 C312 0.929 . S
H319 C316 0.930 . S
H320 C308 0.929 . S
H321 C310 0.929 1_554 S
O322 Co297 2.351 . S
O322 C325 1.244 . S
O323 Co297 2.155 . S
O323 C325 1.240 . S
O324 Co297 2.096 . S
O324 C305 1.247 . S
C325 O322 1.244 . S
C325 O323 1.240 . S
H326 C300 0.931 . S
H327 C309 0.931 . S
H328 C313 0.929 . S
H329 C315 0.930 . S
Co330 N334 2.148 . S
Co330 N340 2.128 . S
Co330 N350 2.194 . S
Co330 O355 2.351 . S
Co330 O356 2.155 . S
Co330 O357 2.096 . S
C331 N334 1.301 . S
C331 N335 1.328 . S
C331 H336 0.930 . S
C332 C333 1.333 . S
C332 N334 1.317 . S
C332 H337 0.930 . S
C333 C332 1.333 . S
C333 N335 1.350 . S
C333 H359 0.931 . S
N334 Co330 2.148 . S
N334 C331 1.301 . S
N334 C332 1.317 . S
N335 C331 1.328 . S
N335 C333 1.350 . S
H336 C331 0.930 . S
H337 C332 0.930 . S
C338 O339 1.224 . S
C338 O357 1.247 . S
O339 C338 1.224 . S
N340 Co330 2.128 . S
N340 C341 1.355 . S
N340 C343 1.311 1_556 S
C341 N340 1.355 . S
C341 C342 1.363 1_556 S
C341 H353 0.929 . S
C342 C341 1.363 1_554 S
C342 N344 1.375 . S
C342 H360 0.931 . S
C343 N340 1.311 1_554 S
C343 N344 1.347 . S
C343 H354 0.929 1_554 S
N344 C342 1.375 . S
N344 C343 1.347 . S
C345 C348 1.365 . S
C345 N350 1.328 . S
C345 H351 0.929 . S
C346 C347 1.362 . S
C346 C349 1.378 . S
C346 H361 0.929 . S
C347 C346 1.362 . S
C347 C348 1.366 . S
C348 C345 1.365 . S
C348 C347 1.366 . S
C348 H362 0.930 . S
C349 C346 1.378 . S
C349 N350 1.315 . S
C349 H352 0.930 . S
N350 Co330 2.194 . S
N350 C345 1.328 . S
N350 C349 1.315 . S
H351 C345 0.929 . S
H352 C349 0.930 . S
H353 C341 0.929 . S
H354 C343 0.929 1_556 S
O355 Co330 2.351 . S
O355 C358 1.244 . S
O356 Co330 2.155 . S
O356 C358 1.240 . S
O357 Co330 2.096 . S
O357 C338 1.247 . S
C358 O355 1.244 . S
C358 O356 1.240 . S
H359 C333 0.931 . S
H360 C342 0.931 . S
H361 C346 0.929 . S
H362 C348 0.930 . S
Co363 N367 2.148 . S
Co363 N373 2.128 . S
Co363 N383 2.194 . S
Co363 O388 2.351 . S
Co363 O389 2.155 . S
Co363 O390 2.096 . S
C364 N367 1.301 . S
C364 N368 1.328 . S
C364 H369 0.930 . S
C365 C366 1.333 . S
C365 N367 1.317 . S
C365 H370 0.930 . S
C366 C365 1.333 . S
C366 N368 1.350 . S
C366 H392 0.931 . S
N367 Co363 2.148 . S
N367 C364 1.301 . S
N367 C365 1.317 . S
N368 C364 1.328 . S
N368 C366 1.350 . S
H369 C364 0.930 . S
H370 C365 0.930 . S
C371 O372 1.224 . S
C371 O390 1.247 . S
O372 C371 1.224 . S
N373 Co363 2.128 . S
N373 C374 1.355 . S
N373 C376 1.311 . S
C374 N373 1.355 . S
C374 C375 1.363 . S
C374 H386 0.929 . S
C375 C374 1.363 . S
C375 N377 1.375 . S
C375 H393 0.931 . S
C376 N373 1.311 . S
C376 N377 1.347 . S
C376 H387 0.929 . S
N377 C375 1.375 . S
N377 C376 1.347 . S
C378 C381 1.365 . S
C378 N383 1.328 . S
C378 H384 0.929 . S
C379 C380 1.362 . S
C379 C382 1.378 . S
C379 H394 0.929 . S
C380 C379 1.362 . S
C380 C381 1.366 . S
C381 C378 1.365 . S
C381 C380 1.366 . S
C381 H395 0.930 . S
C382 C379 1.378 . S
C382 N383 1.315 . S
C382 H385 0.930 . S
N383 Co363 2.194 . S
N383 C378 1.328 . S
N383 C382 1.315 . S
H384 C378 0.929 . S
H385 C382 0.930 . S
H386 C374 0.929 . S
H387 C376 0.929 . S
O388 Co363 2.351 . S
O388 C391 1.244 . S
O389 Co363 2.155 . S
O389 C391 1.240 . S
O390 Co363 2.096 . S
O390 C371 1.247 . S
C391 O388 1.244 . S
C391 O389 1.240 . S
H392 C366 0.931 . S
H393 C375 0.931 . S
H394 C379 0.929 . S
H395 C381 0.930 . S
Co396 N400 2.148 . S
Co396 N406 2.128 . S
Co396 N416 2.194 . S
Co396 O421 2.351 . S
Co396 O422 2.155 . S
Co396 O423 2.096 . S
C397 N400 1.301 . S
C397 N401 1.328 . S
C397 H402 0.930 . S
C398 C399 1.333 . S
C398 N400 1.317 . S
C398 H403 0.930 . S
C399 C398 1.333 . S
C399 N401 1.350 . S
C399 H425 0.931 . S
N400 Co396 2.148 . S
N400 C397 1.301 . S
N400 C398 1.317 . S
N401 C397 1.328 . S
N401 C399 1.350 . S
H402 C397 0.930 . S
H403 C398 0.930 . S
C404 O405 1.224 . S
C404 O423 1.247 . S
O405 C404 1.224 . S
N406 Co396 2.128 . S
N406 C407 1.355 . S
N406 C409 1.311 . S
C407 N406 1.355 . S
C407 C408 1.363 . S
C407 H419 0.929 . S
C408 C407 1.363 . S
C408 N410 1.375 . S
C408 H426 0.931 . S
C409 N406 1.311 . S
C409 N410 1.347 . S
C409 H420 0.929 . S
N410 C408 1.375 . S
N410 C409 1.347 . S
C411 C414 1.365 . S
C411 N416 1.328 . S
C411 H417 0.929 . S
C412 C413 1.362 . S
C412 C415 1.378 . S
C412 H427 0.929 . S
C413 C412 1.362 . S
C413 C414 1.366 . S
C414 C411 1.365 . S
C414 C413 1.366 . S
C414 H428 0.930 . S
C415 C412 1.378 . S
C415 N416 1.315 . S
C415 H418 0.930 . S
N416 Co396 2.194 . S
N416 C411 1.328 . S
N416 C415 1.315 . S
H417 C411 0.929 . S
H418 C415 0.930 . S
H419 C407 0.929 . S
H420 C409 0.929 . S
O421 Co396 2.351 . S
O421 C424 1.244 . S
O422 Co396 2.155 . S
O422 C424 1.240 . S
O423 Co396 2.096 . S
O423 C404 1.247 . S
C424 O421 1.244 . S
C424 O422 1.240 . S
H425 C399 0.931 . S
H426 C408 0.931 . S
H427 C412 0.929 . S
H428 C414 0.930 . S
Co429 N433 2.148 1_554 S
Co429 N439 2.128 . S
Co429 N449 2.194 . S
Co429 O454 2.351 . S
Co429 O455 2.155 . S
Co429 O456 2.096 . S
C430 N433 1.301 . S
C430 N434 1.328 . S
C430 H435 0.930 . S
C431 C432 1.333 . S
C431 N433 1.317 . S
C431 H436 0.930 . S
C432 C431 1.333 . S
C432 N434 1.350 . S
C432 H458 0.931 . S
N433 Co429 2.148 1_556 S
N433 C430 1.301 . S
N433 C431 1.317 . S
N434 C430 1.328 . S
N434 C432 1.350 . S
H435 C430 0.930 . S
H436 C431 0.930 . S
C437 O438 1.224 . S
C437 O456 1.247 . S
O438 C437 1.224 . S
N439 Co429 2.128 . S
N439 C440 1.355 . S
N439 C442 1.311 . S
C440 N439 1.355 . S
C440 C441 1.363 . S
C440 H452 0.929 . S
C441 C440 1.363 . S
C441 N443 1.375 . S
C441 H459 0.931 . S
C442 N439 1.311 . S
C442 N443 1.347 . S
C442 H453 0.929 . S
N443 C441 1.375 . S
N443 C442 1.347 . S
C444 C447 1.365 . S
C444 N449 1.328 . S
C444 H450 0.929 . S
C445 C446 1.362 . S
C445 C448 1.378 . S
C445 H460 0.929 . S
C446 C445 1.362 . S
C446 C447 1.366 . S
C447 C444 1.365 . S
C447 C446 1.366 . S
C447 H461 0.930 . S
C448 C445 1.378 . S
C448 N449 1.315 . S
C448 H451 0.930 . S
N449 Co429 2.194 . S
N449 C444 1.328 . S
N449 C448 1.315 . S
H450 C444 0.929 . S
H451 C448 0.930 . S
H452 C440 0.929 . S
H453 C442 0.929 . S
O454 Co429 2.351 . S
O454 C457 1.244 . S
O455 Co429 2.155 . S
O455 C457 1.240 . S
O456 Co429 2.096 . S
O456 C437 1.247 . S
C457 O454 1.244 . S
C457 O455 1.240 . S
H458 C432 0.931 . S
H459 C441 0.931 . S
H460 C445 0.929 . S
H461 C447 0.930 . S
Co462 N466 2.148 . S
Co462 N472 2.128 . S
Co462 N482 2.194 . S
Co462 O487 2.351 . S
Co462 O488 2.155 . S
Co462 O489 2.096 . S
C463 N466 1.301 . S
C463 N467 1.328 . S
C463 H468 0.930 . S
C464 C465 1.333 . S
C464 N466 1.317 . S
C464 H469 0.930 . S
C465 C464 1.333 . S
C465 N467 1.350 . S
C465 H491 0.931 . S
N466 Co462 2.148 . S
N466 C463 1.301 . S
N466 C464 1.317 . S
N467 C463 1.328 . S
N467 C465 1.350 . S
H468 C463 0.930 . S
H469 C464 0.930 . S
C470 O471 1.224 . S
C470 O489 1.247 . S
O471 C470 1.224 . S
N472 Co462 2.128 . S
N472 C473 1.355 . S
N472 C475 1.311 . S
C473 N472 1.355 . S
C473 C474 1.363 . S
C473 H485 0.929 . S
C474 C473 1.363 . S
C474 N476 1.375 . S
C474 H492 0.931 . S
C475 N472 1.311 . S
C475 N476 1.347 . S
C475 H486 0.929 . S
N476 C474 1.375 . S
N476 C475 1.347 . S
C477 C480 1.365 . S
C477 N482 1.328 . S
C477 H483 0.929 . S
C478 C479 1.362 . S
C478 C481 1.378 . S
C478 H493 0.929 . S
C479 C478 1.362 . S
C479 C480 1.366 . S
C480 C477 1.365 . S
C480 C479 1.366 . S
C480 H494 0.930 . S
C481 C478 1.378 . S
C481 N482 1.315 . S
C481 H484 0.930 . S
N482 Co462 2.194 . S
N482 C477 1.328 . S
N482 C481 1.315 . S
H483 C477 0.929 . S
H484 C481 0.930 . S
H485 C473 0.929 . S
H486 C475 0.929 . S
O487 Co462 2.351 . S
O487 C490 1.244 . S
O488 Co462 2.155 . S
O488 C490 1.240 . S
O489 Co462 2.096 . S
O489 C470 1.247 . S
C490 O487 1.244 . S
C490 O488 1.240 . S
H491 C465 0.931 . S
H492 C474 0.931 . S
H493 C478 0.929 . S
H494 C480 0.930 . S
Co495 N499 2.148 1_556 S
Co495 N505 2.128 . S
Co495 N515 2.194 . S
Co495 O520 2.351 . S
Co495 O521 2.155 . S
Co495 O522 2.096 . S
C496 N499 1.301 . S
C496 N500 1.328 . S
C496 H501 0.930 . S
C497 C498 1.333 . S
C497 N499 1.317 . S
C497 H502 0.930 . S
C498 C497 1.333 . S
C498 N500 1.350 . S
C498 H524 0.931 . S
N499 Co495 2.148 1_554 S
N499 C496 1.301 . S
N499 C497 1.317 . S
N500 C496 1.328 . S
N500 C498 1.350 . S
H501 C496 0.930 . S
H502 C497 0.930 . S
C503 O504 1.224 . S
C503 O522 1.247 . S
O504 C503 1.224 . S
N505 Co495 2.128 . S
N505 C506 1.355 . S
N505 C508 1.311 . S
C506 N505 1.355 . S
C506 C507 1.363 . S
C506 H518 0.929 . S
C507 C506 1.363 . S
C507 N509 1.375 . S
C507 H525 0.931 . S
C508 N505 1.311 . S
C508 N509 1.347 . S
C508 H519 0.929 . S
N509 C507 1.375 . S
N509 C508 1.347 . S
C510 C513 1.365 . S
C510 N515 1.328 . S
C510 H516 0.929 . S
C511 C512 1.362 . S
C511 C514 1.378 . S
C511 H526 0.929 . S
C512 C511 1.362 . S
C512 C513 1.366 . S
C513 C510 1.365 . S
C513 C512 1.366 . S
C513 H527 0.930 . S
C514 C511 1.378 . S
C514 N515 1.315 . S
C514 H517 0.930 . S
N515 Co495 2.194 . S
N515 C510 1.328 . S
N515 C514 1.315 . S
H516 C510 0.929 . S
H517 C514 0.930 . S
H518 C506 0.929 . S
H519 C508 0.929 . S
O520 Co495 2.351 . S
O520 C523 1.244 . S
O521 Co495 2.155 . S
O521 C523 1.240 . S
O522 Co495 2.096 . S
O522 C503 1.247 . S
C523 O520 1.244 . S
C523 O521 1.240 . S
H524 C498 0.931 . S
H525 C507 0.931 . S
H526 C511 0.929 . S
H527 C513 0.930 . S
H528 C540 0.930 . S
H529 C542 0.930 . S
H530 C543 0.930 . S
H531 C547 0.959 . S
H532 C547 0.959 . S
H533 C547 0.961 . S
H534 C548 0.960 . S
H535 C548 0.961 . S
H536 C548 0.959 . S
H537 C551 0.929 . S
H538 C552 0.931 . S
H539 C554 0.930 . S
C540 H528 0.930 . S
C540 C541 1.399 . S
C540 C545 1.399 . S
C541 C540 1.399 . S
C541 C542 1.376 . S
C542 H529 0.930 . S
C542 C541 1.376 . S
C542 C543 1.388 . S
C543 H530 0.930 . S
C543 C542 1.388 . S
C543 C544 1.390 . S
C544 C543 1.390 . S
C544 C545 1.394 . S
C544 C550 1.465 . S
C545 C540 1.399 . S
C545 C544 1.394 . S
C545 C546 1.516 . S
C546 C545 1.516 . S
C546 C547 1.502 . S
C546 C548 1.561 . S
C546 C549 1.526 . S
C547 H531 0.959 . S
C547 H532 0.959 . S
C547 H533 0.961 . S
C547 C546 1.502 . S
C548 H534 0.960 . S
C548 H535 0.961 . S
C548 H536 0.959 . S
C548 C546 1.561 . S
C549 C546 1.526 . S
C549 C550 1.396 . S
C549 C554 1.390 . S
C550 C544 1.465 . S
C550 C549 1.396 . S
C550 C551 1.399 . S
C551 H537 0.929 . S
C551 C550 1.399 . S
C551 C552 1.385 . S
C552 H538 0.931 . S
C552 C551 1.385 . S
C552 C553 1.389 . S
C553 C552 1.389 . S
C553 C554 1.387 . S
C554 H539 0.930 . S
C554 C549 1.390 . S
C554 C553 1.387 . S
H555 C567 0.930 . S
H556 C569 0.930 1_554 S
H557 C570 0.930 . S
H558 C574 0.959 . S
H559 C574 0.959 . S
H560 C574 0.961 . S
H561 C575 0.960 . S
H562 C575 0.961 . S
H563 C575 0.959 . S
H564 C578 0.929 . S
H565 C579 0.931 . S
H566 C581 0.930 . S
C567 H555 0.930 . S
C567 C568 1.399 1_556 S
C567 C572 1.399 . S
C568 C567 1.399 1_554 S
C568 C569 1.376 1_554 S
C569 H556 0.930 1_556 S
C569 C568 1.376 1_556 S
C569 C570 1.388 . S
C570 H557 0.930 . S
C570 C569 1.388 . S
C570 C571 1.390 . S
C571 C570 1.390 . S
C571 C572 1.394 . S
C571 C577 1.465 . S
C572 C567 1.399 . S
C572 C571 1.394 . S
C572 C573 1.516 . S
C573 C572 1.516 . S
C573 C574 1.502 . S
C573 C575 1.561 . S
C573 C576 1.526 . S
C574 H558 0.959 . S
C574 H559 0.959 . S
C574 H560 0.961 . S
C574 C573 1.502 . S
C575 H561 0.960 . S
C575 H562 0.961 . S
C575 H563 0.959 . S
C575 C573 1.561 . S
C576 C573 1.526 . S
C576 C577 1.396 . S
C576 C581 1.390 . S
C577 C571 1.465 . S
C577 C576 1.396 . S
C577 C578 1.399 . S
C578 H564 0.929 . S
C578 C577 1.399 . S
C578 C579 1.385 . S
C579 H565 0.931 . S
C579 C578 1.385 . S
C579 C580 1.389 . S
C580 C579 1.389 . S
C580 C581 1.387 . S
C581 H566 0.930 . S
C581 C576 1.390 . S
C581 C580 1.387 . S
H582 C594 0.930 . S
H583 C596 0.930 . S
H584 C597 0.930 . S
H585 C601 0.959 . S
H586 C601 0.959 . S
H587 C601 0.961 . S
H588 C602 0.960 . S
H589 C602 0.961 . S
H590 C602 0.959 . S
H591 C605 0.935 . S
H592 C606 0.931 . S
H593 C608 0.930 . S
C594 H582 0.930 . S
C594 C595 1.399 . S
C594 C599 1.399 . S
C595 C594 1.399 . S
C595 C596 1.376 . S
C596 H583 0.930 . S
C596 C595 1.376 . S
C596 C597 1.388 . S
C597 H584 0.930 . S
C597 C596 1.388 . S
C597 C598 1.390 . S
C598 C597 1.390 . S
C598 C599 1.394 . S
C598 C604 1.465 . S
C599 C594 1.399 . S
C599 C598 1.394 . S
C599 C600 1.516 . S
C600 C599 1.516 . S
C600 C601 1.502 . S
C600 C602 1.561 . S
C600 C603 1.526 . S
C601 H585 0.959 . S
C601 H586 0.959 . S
C601 H587 0.961 . S
C601 C600 1.502 . S
C602 H588 0.960 . S
C602 H589 0.961 . S
C602 H590 0.959 . S
C602 C600 1.561 . S
C603 C600 1.526 . S
C603 C604 1.396 . S
C603 C608 1.390 1_554 S
C604 C598 1.465 . S
C604 C603 1.396 . S
C604 C605 1.409 . S
C605 H591 0.935 . S
C605 C604 1.409 . S
C605 C606 1.369 1_554 S
C606 H592 0.931 . S
C606 C605 1.369 1_556 S
C606 C607 1.389 . S
C607 C606 1.389 . S
C607 C608 1.387 . S
C608 H593 0.930 . S
C608 C603 1.390 1_556 S
C608 C607 1.387 . S
H609 C621 0.930 . S
H610 C623 0.930 . S
H611 C624 0.930 . S
H612 C628 0.959 . S
H613 C628 0.959 . S
H614 C628 0.961 . S
H615 C629 0.960 . S
H616 C629 0.961 . S
H617 C629 0.959 . S
H618 C632 0.929 . S
H619 C633 0.931 . S
H620 C635 0.930 . S
C621 H609 0.930 . S
C621 C622 1.399 . S
C621 C626 1.399 . S
C622 C621 1.399 . S
C622 C623 1.376 . S
C623 H610 0.930 . S
C623 C622 1.376 . S
C623 C624 1.388 . S
C624 H611 0.930 . S
C624 C623 1.388 . S
C624 C625 1.390 . S
C625 C624 1.390 . S
C625 C626 1.394 . S
C625 C631 1.465 . S
C626 C621 1.399 . S
C626 C625 1.394 . S
C626 C627 1.516 . S
C627 C626 1.516 . S
C627 C628 1.502 . S
C627 C629 1.561 . S
C627 C630 1.526 . S
C628 H612 0.959 . S
C628 H613 0.959 . S
C628 H614 0.961 . S
C628 C627 1.502 . S
C629 H615 0.960 . S
C629 H616 0.961 . S
C629 H617 0.959 . S
C629 C627 1.561 . S
C630 C627 1.526 . S
C630 C631 1.396 . S
C630 C635 1.390 . S
C631 C625 1.465 . S
C631 C630 1.396 . S
C631 C632 1.399 . S
C632 H618 0.929 . S
C632 C631 1.399 . S
C632 C633 1.385 . S
C633 H619 0.931 . S
C633 C632 1.385 . S
C633 C634 1.389 . S
C634 C633 1.389 . S
C634 C635 1.387 . S
C635 H620 0.930 . S
C635 C630 1.390 . S
C635 C634 1.387 . S
H636 C648 0.930 . S
H637 C650 0.930 . S
H638 C651 0.930 . S
H639 C655 0.959 . S
H640 C655 0.959 . S
H641 C655 0.961 . S
H642 C656 0.960 . S
H643 C656 0.961 . S
H644 C656 0.959 . S
H645 C659 0.929 . S
H646 C660 0.931 . S
H647 C662 0.930 . S
C648 H636 0.930 . S
C648 C649 1.399 . S
C648 C653 1.399 . S
C649 C648 1.399 . S
C649 C650 1.376 . S
C650 H637 0.930 . S
C650 C649 1.376 . S
C650 C651 1.388 . S
C651 H638 0.930 . S
C651 C650 1.388 . S
C651 C652 1.390 . S
C652 C651 1.390 . S
C652 C653 1.394 . S
C652 C658 1.465 . S
C653 C648 1.399 . S
C653 C652 1.394 . S
C653 C654 1.516 . S
C654 C653 1.516 . S
C654 C655 1.502 . S
C654 C656 1.561 . S
C654 C657 1.526 . S
C655 H639 0.959 . S
C655 H640 0.959 . S
C655 H641 0.961 . S
C655 C654 1.502 . S
C656 H642 0.960 . S
C656 H643 0.961 . S
C656 H644 0.959 . S
C656 C654 1.561 . S
C657 C654 1.526 . S
C657 C658 1.396 . S
C657 C662 1.390 . S
C658 C652 1.465 . S
C658 C657 1.396 . S
C658 C659 1.399 . S
C659 H645 0.929 . S
C659 C658 1.399 . S
C659 C660 1.385 . S
C660 H646 0.931 . S
C660 C659 1.385 . S
C660 C661 1.389 . S
C661 C660 1.389 . S
C661 C662 1.387 . S
C662 H647 0.930 . S
C662 C657 1.390 . S
C662 C661 1.387 . S
H663 C675 0.930 . S
H664 C677 0.930 . S
H665 C678 0.930 . S
H666 C682 0.959 . S
H667 C682 0.959 . S
H668 C682 0.961 . S
H669 C683 0.960 . S
H670 C683 0.961 . S
H671 C683 0.959 . S
H672 C686 0.929 . S
H673 C687 0.931 . S
H674 C689 0.930 . S
C675 H663 0.930 . S
C675 C676 1.399 . S
C675 C680 1.399 . S
C676 C675 1.399 . S
C676 C677 1.376 . S
C677 H664 0.930 . S
C677 C676 1.376 . S
C677 C678 1.388 . S
C678 H665 0.930 . S
C678 C677 1.388 . S
C678 C679 1.390 . S
C679 C678 1.390 . S
C679 C680 1.394 . S
C679 C685 1.465 . S
C680 C675 1.399 . S
C680 C679 1.394 . S
C680 C681 1.516 . S
C681 C680 1.516 . S
C681 C682 1.502 . S
C681 C683 1.561 . S
C681 C684 1.526 . S
C682 H666 0.959 . S
C682 H667 0.959 . S
C682 H668 0.961 . S
C682 C681 1.502 . S
C683 H669 0.960 . S
C683 H670 0.961 . S
C683 H671 0.959 . S
C683 C681 1.561 . S
C684 C681 1.526 . S
C684 C685 1.396 . S
C684 C689 1.390 . S
C685 C679 1.465 . S
C685 C684 1.396 . S
C685 C686 1.399 . S
C686 H672 0.929 . S
C686 C685 1.399 . S
C686 C687 1.385 . S
C687 H673 0.931 . S
C687 C686 1.385 . S
C687 C688 1.389 . S
C688 C687 1.389 . S
C688 C689 1.387 . S
C689 H674 0.930 . S
C689 C684 1.390 . S
C689 C688 1.387 . S
H690 C702 0.930 . S
H691 C704 0.930 . S
H692 C705 0.930 . S
H693 C709 0.959 . S
H694 C709 0.959 . S
H695 C709 0.961 . S
H696 C710 0.960 . S
H697 C710 0.961 . S
H698 C710 0.959 . S
H699 C713 0.929 1_556 S
H700 C714 0.931 . S
H701 C716 0.930 . S
C702 H690 0.930 . S
C702 C703 1.399 . S
C702 C707 1.399 . S
C703 C702 1.399 . S
C703 C704 1.376 . S
C704 H691 0.930 . S
C704 C703 1.376 . S
C704 C705 1.388 . S
C705 H692 0.930 . S
C705 C704 1.388 . S
C705 C706 1.390 . S
C706 C705 1.390 . S
C706 C707 1.394 . S
C706 C712 1.465 . S
C707 C702 1.399 . S
C707 C706 1.394 . S
C707 C708 1.516 . S
C708 C707 1.516 . S
C708 C709 1.502 . S
C708 C710 1.561 . S
C708 C711 1.526 . S
C709 H693 0.959 . S
C709 H694 0.959 . S
C709 H695 0.961 . S
C709 C708 1.502 . S
C710 H696 0.960 . S
C710 H697 0.961 . S
C710 H698 0.959 . S
C710 C708 1.561 . S
C711 C708 1.526 . S
C711 C712 1.396 . S
C711 C716 1.390 1_556 S
C712 C706 1.465 . S
C712 C711 1.396 . S
C712 C713 1.399 1_556 S
C713 H699 0.929 1_554 S
C713 C712 1.399 1_554 S
C713 C714 1.385 . S
C714 H700 0.931 . S
C714 C713 1.385 . S
C714 C715 1.389 . S
C715 C714 1.389 . S
C715 C716 1.387 . S
C716 H701 0.930 . S
C716 C711 1.390 1_554 S
C716 C715 1.387 . S
H717 C729 0.930 . S
H718 C731 0.930 . S
H719 C732 0.930 . S
H720 C736 0.959 . S
H721 C736 0.959 . S
H722 C736 0.961 . S
H723 C737 0.960 . S
H724 C737 0.961 . S
H725 C737 0.959 . S
H726 C740 0.929 . S
H727 C741 0.931 1_556 S
H728 C743 0.930 . S
C729 H717 0.930 . S
C729 C730 1.399 . S
C729 C734 1.399 . S
C730 C729 1.399 . S
C730 C731 1.376 . S
C731 H718 0.930 . S
C731 C730 1.376 . S
C731 C732 1.388 . S
C732 H719 0.930 . S
C732 C731 1.388 . S
C732 C733 1.390 . S
C733 C732 1.390 . S
C733 C734 1.394 . S
C733 C739 1.465 . S
C734 C729 1.399 . S
C734 C733 1.394 . S
C734 C735 1.516 . S
C735 C734 1.516 . S
C735 C736 1.502 . S
C735 C737 1.561 . S
C735 C738 1.526 . S
C736 H720 0.959 . S
C736 H721 0.959 . S
C736 H722 0.961 . S
C736 C735 1.502 . S
C737 H723 0.960 . S
C737 H724 0.961 . S
C737 H725 0.959 . S
C737 C735 1.561 . S
C738 C735 1.526 . S
C738 C739 1.396 . S
C738 C743 1.390 . S
C739 C733 1.465 . S
C739 C738 1.396 . S
C739 C740 1.399 . S
C740 H726 0.929 . S
C740 C739 1.399 . S
C740 C741 1.385 . S
C741 H727 0.931 1_554 S
C741 C740 1.385 . S
C741 C742 1.389 1_554 S
C742 C741 1.389 1_556 S
C742 C743 1.387 1_556 S
C743 H728 0.930 . S
C743 C738 1.390 . S
C743 C742 1.387 1_554 S
H744 C756 0.930 . S
H745 C758 0.930 . S
H746 C759 0.930 . S
H747 C763 0.959 . S
H748 C763 0.959 . S
H749 C763 0.961 . S
H750 C764 0.960 . S
H751 C764 0.961 . S
H752 C764 0.959 . S
H753 C767 0.929 . S
H754 C768 0.931 . S
H755 C770 0.930 . S
C756 H744 0.930 . S
C756 C757 1.399 . S
C756 C761 1.399 . S
C757 C756 1.399 . S
C757 C758 1.376 . S
C758 H745 0.930 . S
C758 C757 1.376 . S
C758 C759 1.388 . S
C759 H746 0.930 . S
C759 C758 1.388 . S
C759 C760 1.390 . S
C760 C759 1.390 . S
C760 C761 1.394 . S
C760 C766 1.465 . S
C761 C756 1.399 . S
C761 C760 1.394 . S
C761 C762 1.516 . S
C762 C761 1.516 . S
C762 C763 1.502 . S
C762 C764 1.561 . S
C762 C765 1.526 . S
C763 H747 0.959 . S
C763 H748 0.959 . S
C763 H749 0.961 . S
C763 C762 1.502 . S
C764 H750 0.960 . S
C764 H751 0.961 . S
C764 H752 0.959 . S
C764 C762 1.561 . S
C765 C762 1.526 . S
C765 C766 1.396 . S
C765 C770 1.390 . S
C766 C760 1.465 . S
C766 C765 1.396 . S
C766 C767 1.399 . S
C767 H753 0.929 . S
C767 C766 1.399 . S
C767 C768 1.385 1_554 S
C768 H754 0.931 . S
C768 C767 1.385 1_556 S
C768 C769 1.389 . S
C769 C768 1.389 . S
C769 C770 1.387 1_556 S
C770 H755 0.930 . S
C770 C765 1.390 . S
C770 C769 1.387 1_554 S
H771 C783 0.930 . S
H772 C785 0.930 . S
H773 C786 0.930 . S
H774 C790 0.959 . S
H775 C790 0.959 . S
H776 C790 0.961 . S
H777 C791 0.960 . S
H778 C791 0.961 . S
H779 C791 0.959 . S
H780 C794 0.929 . S
H781 C795 0.931 . S
H782 C797 0.930 . S
C783 H771 0.930 . S
C783 C784 1.399 . S
C783 C788 1.399 . S
C784 C783 1.399 . S
C784 C785 1.376 . S
C785 H772 0.930 . S
C785 C784 1.376 . S
C785 C786 1.388 . S
C786 H773 0.930 . S
C786 C785 1.388 . S
C786 C787 1.390 . S
C787 C786 1.390 . S
C787 C788 1.394 . S
C787 C793 1.465 . S
C788 C783 1.399 . S
C788 C787 1.394 . S
C788 C789 1.516 . S
C789 C788 1.516 . S
C789 C790 1.502 . S
C789 C791 1.561 . S
C789 C792 1.526 . S
C790 H774 0.959 . S
C790 H775 0.959 . S
C790 H776 0.961 . S
C790 C789 1.502 . S
C791 H777 0.960 . S
C791 H778 0.961 . S
C791 H779 0.959 . S
C791 C789 1.561 . S
C792 C789 1.526 . S
C792 C793 1.396 . S
C792 C797 1.390 . S
C793 C787 1.465 . S
C793 C792 1.396 . S
C793 C794 1.399 . S
C794 H780 0.929 . S
C794 C793 1.399 . S
C794 C795 1.385 . S
C795 H781 0.931 . S
C795 C794 1.385 . S
C795 C796 1.389 . S
C796 C795 1.389 . S
C796 C797 1.387 . S
C797 H782 0.930 . S
C797 C792 1.390 . S
C797 C796 1.387 . S
H798 C810 0.930 . S
H799 C812 0.930 . S
H800 C813 0.930 . S
H801 C817 0.959 . S
H802 C817 0.959 . S
H803 C817 0.961 . S
H804 C818 0.960 . S
H805 C818 0.961 . S
H806 C818 0.959 . S
H807 C821 0.929 . S
H808 C822 0.931 . S
H809 C824 0.930 . S
C810 H798 0.930 . S
C810 C811 1.399 . S
C810 C815 1.399 . S
C811 C810 1.399 . S
C811 C812 1.376 . S
C812 H799 0.930 . S
C812 C811 1.376 . S
C812 C813 1.388 . S
C813 H800 0.930 . S
C813 C812 1.388 . S
C813 C814 1.390 . S
C814 C813 1.390 . S
C814 C815 1.394 . S
C814 C820 1.465 . S
C815 C810 1.399 . S
C815 C814 1.394 . S
C815 C816 1.516 . S
C816 C815 1.516 . S
C816 C817 1.502 . S
C816 C818 1.561 . S
C816 C819 1.526 . S
C817 H801 0.959 . S
C817 H802 0.959 . S
C817 H803 0.961 . S
C817 C816 1.502 . S
C818 H804 0.960 . S
C818 H805 0.961 . S
C818 H806 0.959 . S
C818 C816 1.561 . S
C819 C816 1.526 . S
C819 C820 1.396 . S
C819 C824 1.390 . S
C820 C814 1.465 . S
C820 C819 1.396 . S
C820 C821 1.399 . S
C821 H807 0.929 . S
C821 C820 1.399 . S
C821 C822 1.385 . S
C822 H808 0.931 . S
C822 C821 1.385 . S
C822 C823 1.389 . S
C823 C822 1.389 . S
C823 C824 1.387 . S
C824 H809 0.930 . S
C824 C819 1.390 . S
C824 C823 1.387 . S
H825 C837 0.930 . S
H826 C839 0.930 . S
H827 C840 0.930 . S
H828 C844 0.959 . S
H829 C844 0.959 . S
H830 C844 0.961 . S
H831 C845 0.960 . S
H832 C845 0.961 . S
H833 C845 0.959 . S
H834 C848 0.929 . S
H835 C849 0.931 . S
H836 C851 0.930 . S
C837 H825 0.930 . S
C837 C838 1.399 . S
C837 C842 1.399 . S
C838 C837 1.399 . S
C838 C839 1.376 . S
C839 H826 0.930 . S
C839 C838 1.376 . S
C839 C840 1.388 . S
C840 H827 0.930 . S
C840 C839 1.388 . S
C840 C841 1.390 . S
C841 C840 1.390 . S
C841 C842 1.394 . S
C841 C847 1.465 . S
C842 C837 1.399 . S
C842 C841 1.394 . S
C842 C843 1.516 . S
C843 C842 1.516 . S
C843 C844 1.502 . S
C843 C845 1.561 . S
C843 C846 1.526 . S
C844 H828 0.959 . S
C844 H829 0.959 . S
C844 H830 0.961 . S
C844 C843 1.502 . S
C845 H831 0.960 . S
C845 H832 0.961 . S
C845 H833 0.959 . S
C845 C843 1.561 . S
C846 C843 1.526 . S
C846 C847 1.396 . S
C846 C851 1.390 . S
C847 C841 1.465 . S
C847 C846 1.396 . S
C847 C848 1.399 . S
C848 H834 0.929 . S
C848 C847 1.399 . S
C848 C849 1.385 1_556 S
C849 H835 0.931 . S
C849 C848 1.385 1_554 S
C849 C850 1.389 . S
C850 C849 1.389 . S
C850 C851 1.387 1_554 S
C851 H836 0.930 . S
C851 C846 1.390 . S
C851 C850 1.387 1_556 S
H852 C864 0.930 . S
H853 C866 0.930 . S
H854 C867 0.930 1_554 S
H855 C871 0.959 . S
H856 C871 0.959 . S
H857 C871 0.961 . S
H858 C872 0.960 . S
H859 C872 0.961 . S
H860 C872 0.959 . S
H861 C875 0.929 . S
H862 C876 0.931 . S
H863 C878 0.930 . S
C864 H852 0.930 . S
C864 C865 1.399 . S
C864 C869 1.399 1_556 S
C865 C864 1.399 . S
C865 C866 1.376 . S
C866 H853 0.930 . S
C866 C865 1.376 . S
C866 C867 1.388 . S
C867 H854 0.930 1_556 S
C867 C866 1.388 . S
C867 C868 1.390 1_556 S
C868 C867 1.390 1_554 S
C868 C869 1.394 . S
C868 C874 1.465 . S
C869 C864 1.399 1_554 S
C869 C868 1.394 . S
C869 C870 1.516 . S
C870 C869 1.516 . S
C870 C871 1.502 . S
C870 C872 1.561 . S
C870 C873 1.526 . S
C871 H855 0.959 . S
C871 H856 0.959 . S
C871 H857 0.961 . S
C871 C870 1.502 . S
C872 H858 0.960 . S
C872 H859 0.961 . S
C872 H860 0.959 . S
C872 C870 1.561 . S
C873 C870 1.526 . S
C873 C874 1.396 . S
C873 C878 1.390 . S
C874 C868 1.465 . S
C874 C873 1.396 . S
C874 C875 1.399 . S
C875 H861 0.929 . S
C875 C874 1.399 . S
C875 C876 1.385 . S
C876 H862 0.931 . S
C876 C875 1.385 . S
C876 C877 1.389 . S
C877 C876 1.389 . S
C877 C878 1.387 . S
C878 H863 0.930 . S
C878 C873 1.390 . S
C878 C877 1.387 . S
H879 C891 0.930 . S
H880 C893 0.930 . S
H881 C894 0.930 . S
H882 C898 0.959 . S
H883 C898 0.959 . S
H884 C898 0.961 . S
H885 C899 0.960 . S
H886 C899 0.961 . S
H887 C899 0.959 . S
H888 C902 0.929 . S
H889 C903 0.931 . S
H890 C905 0.930 . S
C891 H879 0.930 . S
C891 C892 1.399 . S
C891 C896 1.399 . S
C892 C891 1.399 . S
C892 C893 1.376 . S
C893 H880 0.930 . S
C893 C892 1.376 . S
C893 C894 1.388 . S
C894 H881 0.930 . S
C894 C893 1.388 . S
C894 C895 1.390 . S
C895 C894 1.390 . S
C895 C896 1.394 . S
C895 C901 1.465 . S
C896 C891 1.399 . S
C896 C895 1.394 . S
C896 C897 1.516 . S
C897 C896 1.516 . S
C897 C898 1.502 . S
C897 C899 1.561 . S
C897 C900 1.526 . S
C898 H882 0.959 . S
C898 H883 0.959 . S
C898 H884 0.961 . S
C898 C897 1.502 . S
C899 H885 0.960 . S
C899 H886 0.961 . S
C899 H887 0.959 . S
C899 C897 1.561 . S
C900 C897 1.526 . S
C900 C901 1.396 . S
C900 C905 1.390 . S
C901 C895 1.465 . S
C901 C900 1.396 . S
C901 C902 1.399 . S
C902 H888 0.929 . S
C902 C901 1.399 . S
C902 C903 1.385 . S
C903 H889 0.931 . S
C903 C902 1.385 . S
C903 C904 1.389 . S
C904 C903 1.389 . S
C904 C905 1.387 . S
C905 H890 0.930 . S
C905 C900 1.390 . S
C905 C904 1.387 . S
H906 C918 0.930 . S
H907 C920 0.930 . S
H908 C921 0.930 1_556 S
H909 C925 0.959 . S
H910 C925 0.959 . S
H911 C925 0.961 . S
H912 C926 0.960 . S
H913 C926 0.961 . S
H914 C926 0.959 . S
H915 C929 0.929 . S
H916 C930 0.931 . S
H917 C932 0.930 . S
C918 H906 0.930 . S
C918 C919 1.399 . S
C918 C923 1.399 1_554 S
C919 C918 1.399 . S
C919 C920 1.376 . S
C920 H907 0.930 . S
C920 C919 1.376 . S
C920 C921 1.388 . S
C921 H908 0.930 1_554 S
C921 C920 1.388 . S
C921 C922 1.390 1_554 S
C922 C921 1.390 1_556 S
C922 C923 1.394 . S
C922 C928 1.465 . S
C923 C918 1.399 1_556 S
C923 C922 1.394 . S
C923 C924 1.516 . S
C924 C923 1.516 . S
C924 C925 1.502 . S
C924 C926 1.561 . S
C924 C927 1.526 . S
C925 H909 0.959 . S
C925 H910 0.959 . S
C925 H911 0.961 . S
C925 C924 1.502 . S
C926 H912 0.960 . S
C926 H913 0.961 . S
C926 H914 0.959 . S
C926 C924 1.561 . S
C927 C924 1.526 . S
C927 C928 1.396 . S
C927 C932 1.390 . S
C928 C922 1.465 . S
C928 C927 1.396 . S
C928 C929 1.399 . S
C929 H915 0.929 . S
C929 C928 1.399 . S
C929 C930 1.385 . S
C930 H916 0.931 . S
C930 C929 1.385 . S
C930 C931 1.389 . S
C931 C930 1.389 . S
C931 C932 1.387 . S
C932 H917 0.930 . S
C932 C927 1.390 . S
C932 C931 1.387 . S
H933 C945 0.930 . S
H934 C947 0.930 . S
H935 C948 0.930 . S
H936 C952 0.959 . S
H937 C952 0.959 . S
H938 C952 0.961 . S
H939 C953 0.960 . S
H940 C953 0.961 . S
H941 C953 0.959 . S
H942 C956 0.929 . S
H943 C957 0.931 . S
H944 C959 0.930 . S
C945 H933 0.930 . S
C945 C946 1.399 . S
C945 C950 1.399 . S
C946 C945 1.399 . S
C946 C947 1.376 . S
C947 H934 0.930 . S
C947 C946 1.376 . S
C947 C948 1.388 . S
C948 H935 0.930 . S
C948 C947 1.388 . S
C948 C949 1.390 . S
C949 C948 1.390 . S
C949 C950 1.394 . S
C949 C955 1.465 . S
C950 C945 1.399 . S
C950 C949 1.394 . S
C950 C951 1.516 . S
C951 C950 1.516 . S
C951 C952 1.502 . S
C951 C953 1.561 . S
C951 C954 1.526 . S
C952 H936 0.959 . S
C952 H937 0.959 . S
C952 H938 0.961 . S
C952 C951 1.502 . S
C953 H939 0.960 . S
C953 H940 0.961 . S
C953 H941 0.959 . S
C953 C951 1.561 . S
C954 C951 1.526 . S
C954 C955 1.396 . S
C954 C959 1.390 . S
C955 C949 1.465 . S
C955 C954 1.396 . S
C955 C956 1.399 . S
C956 H942 0.929 . S
C956 C955 1.399 . S
C956 C957 1.385 . S
C957 H943 0.931 . S
C957 C956 1.385 . S
C957 C958 1.389 . S
C958 C957 1.389 . S
C958 C959 1.387 . S
C959 H944 0.930 . S
C959 C954 1.390 . S
C959 C958 1.387 . S
H960 C972 0.930 . S
H961 C974 0.930 . S
H962 C975 0.930 . S
H963 C979 0.959 . S
H964 C979 0.959 . S
H965 C979 0.961 . S
H966 C980 0.960 . S
H967 C980 0.961 . S
H968 C980 0.959 . S
H969 C983 0.929 . S
H970 C984 0.931 . S
H971 C986 0.930 . S
C972 H960 0.930 . S
C972 C973 1.399 . S
C972 C977 1.399 . S
C973 C972 1.399 . S
C973 C974 1.376 1_554 S
C974 H961 0.930 . S
C974 C973 1.376 1_556 S
C974 C975 1.388 . S
C975 H962 0.930 . S
C975 C974 1.388 . S
C975 C976 1.390 . S
C976 C975 1.390 . S
C976 C977 1.394 1_556 S
C976 C982 1.465 . S
C977 C972 1.399 . S
C977 C976 1.394 1_554 S
C977 C978 1.516 . S
C978 C977 1.516 . S
C978 C979 1.502 . S
C978 C980 1.561 . S
C978 C981 1.526 . S
C979 H963 0.959 . S
C979 H964 0.959 . S
C979 H965 0.961 . S
C979 C978 1.502 . S
C980 H966 0.960 . S
C980 H967 0.961 . S
C980 H968 0.959 . S
C980 C978 1.561 . S
C981 C978 1.526 . S
C981 C982 1.396 1_554 S
C981 C986 1.390 . S
C982 C976 1.465 . S
C982 C981 1.396 1_556 S
C982 C983 1.399 . S
C983 H969 0.929 . S
C983 C982 1.399 . S
C983 C984 1.385 . S
C984 H970 0.931 . S
C984 C983 1.385 . S
C984 C985 1.389 . S
C985 C984 1.389 . S
C985 C986 1.387 1_556 S
C986 H971 0.930 . S
C986 C981 1.390 . S
C986 C985 1.387 1_554 S
H987 C999 0.930 . S
H988 C1001 0.930 . S
H989 C1002 0.930 . S
H990 C1006 0.959 . S
H991 C1006 0.959 . S
H992 C1006 0.961 . S
H993 C1007 0.960 . S
H994 C1007 0.961 . S
H995 C1007 0.959 . S
H996 C1010 0.929 . S
H997 C1011 0.931 . S
H998 C1013 0.930 . S
C999 H987 0.930 . S
C999 C1000 1.399 . S
C999 C1004 1.399 . S
C1000 C999 1.399 . S
C1000 C1001 1.376 . S
C1001 H988 0.930 . S
C1001 C1000 1.376 . S
C1001 C1002 1.388 . S
C1002 H989 0.930 . S
C1002 C1001 1.388 . S
C1002 C1003 1.390 . S
C1003 C1002 1.390 . S
C1003 C1004 1.394 . S
C1003 C1009 1.465 . S
C1004 C999 1.399 . S
C1004 C1003 1.394 . S
C1004 C1005 1.516 . S
C1005 C1004 1.516 . S
C1005 C1006 1.502 . S
C1005 C1007 1.561 . S
C1005 C1008 1.526 . S
C1006 H990 0.959 . S
C1006 H991 0.959 . S
C1006 H992 0.961 . S
C1006 C1005 1.502 . S
C1007 H993 0.960 . S
C1007 H994 0.961 . S
C1007 H995 0.959 . S
C1007 C1005 1.561 . S
C1008 C1005 1.526 . S
C1008 C1009 1.396 . S
C1008 C1013 1.390 . S
C1009 C1003 1.465 . S
C1009 C1008 1.396 . S
C1009 C1010 1.399 . S
C1010 H996 0.929 . S
C1010 C1009 1.399 . S
C1010 C1011 1.385 . S
C1011 H997 0.931 . S
C1011 C1010 1.385 . S
C1011 C1012 1.389 . S
C1012 C1011 1.389 . S
C1012 C1013 1.387 . S
C1013 H998 0.930 . S
C1013 C1008 1.390 . S
C1013 C1012 1.387 . S
H1014 C1026 0.930 . S
H1015 C1028 0.930 . S
H1016 C1029 0.930 . S
H1017 C1033 0.959 . S
H1018 C1033 0.959 . S
H1019 C1033 0.961 . S
H1020 C1034 0.960 . S
H1021 C1034 0.961 . S
H1022 C1034 0.959 . S
H1023 C1037 0.929 . S
H1024 C1038 0.931 . S
H1025 C1040 0.930 . S
C1026 H1014 0.930 . S
C1026 C1027 1.399 . S
C1026 C1031 1.399 . S
C1027 C1026 1.399 . S
C1027 C1028 1.376 . S
C1028 H1015 0.930 . S
C1028 C1027 1.376 . S
C1028 C1029 1.388 . S
C1029 H1016 0.930 . S
C1029 C1028 1.388 . S
C1029 C1030 1.390 . S
C1030 C1029 1.390 . S
C1030 C1031 1.394 . S
C1030 C1036 1.465 . S
C1031 C1026 1.399 . S
C1031 C1030 1.394 . S
C1031 C1032 1.516 . S
C1032 C1031 1.516 . S
C1032 C1033 1.502 . S
C1032 C1034 1.561 . S
C1032 C1035 1.526 . S
C1033 H1017 0.959 . S
C1033 H1018 0.959 . S
C1033 H1019 0.961 . S
C1033 C1032 1.502 . S
C1034 H1020 0.960 . S
C1034 H1021 0.961 . S
C1034 H1022 0.959 . S
C1034 C1032 1.561 . S
C1035 C1032 1.526 . S
C1035 C1036 1.396 . S
C1035 C1040 1.390 . S
C1036 C1030 1.465 . S
C1036 C1035 1.396 . S
C1036 C1037 1.399 . S
C1037 H1023 0.929 . S
C1037 C1036 1.399 . S
C1037 C1038 1.385 . S
C1038 H1024 0.931 . S
C1038 C1037 1.385 . S
C1038 C1039 1.389 . S
C1039 C1038 1.389 . S
C1039 C1040 1.387 . S
C1040 H1025 0.930 . S
C1040 C1035 1.390 . S
C1040 C1039 1.387 . S
H1041 C1053 0.930 . S
H1042 C1055 0.930 . S
H1043 C1056 0.930 . S
H1044 C1060 0.959 . S
H1045 C1060 0.959 . S
H1046 C1060 0.961 . S
H1047 C1061 0.960 . S
H1048 C1061 0.961 . S
H1049 C1061 0.959 . S
H1050 C1064 0.929 . S
H1051 C1065 0.931 . S
H1052 C1067 0.930 . S
C1053 H1041 0.930 . S
C1053 C1054 1.399 . S
C1053 C1058 1.399 . S
C1054 C1053 1.399 . S
C1054 C1055 1.376 . S
C1055 H1042 0.930 . S
C1055 C1054 1.376 . S
C1055 C1056 1.388 . S
C1056 H1043 0.930 . S
C1056 C1055 1.388 . S
C1056 C1057 1.390 . S
C1057 C1056 1.390 . S
C1057 C1058 1.394 . S
C1057 C1063 1.465 . S
C1058 C1053 1.399 . S
C1058 C1057 1.394 . S
C1058 C1059 1.516 . S
C1059 C1058 1.516 . S
C1059 C1060 1.502 . S
C1059 C1061 1.561 . S
C1059 C1062 1.526 . S
C1060 H1044 0.959 . S
C1060 H1045 0.959 . S
C1060 H1046 0.961 . S
C1060 C1059 1.502 . S
C1061 H1047 0.960 . S
C1061 H1048 0.961 . S
C1061 H1049 0.959 . S
C1061 C1059 1.561 . S
C1062 C1059 1.526 . S
C1062 C1063 1.396 . S
C1062 C1067 1.390 . S
C1063 C1057 1.465 . S
C1063 C1062 1.396 . S
C1063 C1064 1.399 . S
C1064 H1050 0.929 . S
C1064 C1063 1.399 . S
C1064 C1065 1.385 . S
C1065 H1051 0.931 . S
C1065 C1064 1.385 . S
C1065 C1066 1.389 . S
C1066 C1065 1.389 . S
C1066 C1067 1.387 . S
C1067 H1052 0.930 . S
C1067 C1062 1.390 . S
C1067 C1066 1.387 . S
H1068 C1080 0.930 . S
H1069 C1082 0.930 . S
H1070 C1083 0.930 . S
H1071 C1087 0.959 . S
H1072 C1087 0.959 . S
H1073 C1087 0.961 . S
H1074 C1088 0.960 . S
H1075 C1088 0.961 . S
H1076 C1088 0.959 . S
H1077 C1091 0.929 . S
H1078 C1092 0.931 . S
H1079 C1094 0.930 . S
C1080 H1068 0.930 . S
C1080 C1081 1.399 . S
C1080 C1085 1.399 . S
C1081 C1080 1.399 . S
C1081 C1082 1.376 . S
C1082 H1069 0.930 . S
C1082 C1081 1.376 . S
C1082 C1083 1.388 . S
C1083 H1070 0.930 . S
C1083 C1082 1.388 . S
C1083 C1084 1.390 . S
C1084 C1083 1.390 . S
C1084 C1085 1.394 . S
C1084 C1090 1.465 . S
C1085 C1080 1.399 . S
C1085 C1084 1.394 . S
C1085 C1086 1.516 . S
C1086 C1085 1.516 . S
C1086 C1087 1.502 . S
C1086 C1088 1.561 . S
C1086 C1089 1.526 . S
C1087 H1071 0.959 . S
C1087 H1072 0.959 . S
C1087 H1073 0.961 . S
C1087 C1086 1.502 . S
C1088 H1074 0.960 . S
C1088 H1075 0.961 . S
C1088 H1076 0.959 . S
C1088 C1086 1.561 . S
C1089 C1086 1.526 . S
C1089 C1090 1.396 . S
C1089 C1094 1.390 . S
C1090 C1084 1.465 . S
C1090 C1089 1.396 . S
C1090 C1091 1.399 . S
C1091 H1077 0.929 . S
C1091 C1090 1.399 . S
C1091 C1092 1.385 . S
C1092 H1078 0.931 . S
C1092 C1091 1.385 . S
C1092 C1093 1.389 . S
C1093 C1092 1.389 . S
C1093 C1094 1.387 . S
C1094 H1079 0.930 . S
C1094 C1089 1.390 . S
C1094 C1093 1.387 . S
H1095 C1107 0.930 . S
H1096 C1109 0.930 . S
H1097 C1110 0.930 . S
H1098 C1114 0.959 . S
H1099 C1114 0.959 . S
H1100 C1114 0.961 . S
H1101 C1115 0.960 . S
H1102 C1115 0.961 . S
H1103 C1115 0.959 . S
H1104 C1118 0.929 . S
H1105 C1119 0.931 . S
H1106 C1121 0.930 . S
C1107 H1095 0.930 . S
C1107 C1108 1.399 . S
C1107 C1112 1.399 . S
C1108 C1107 1.399 . S
C1108 C1109 1.376 . S
C1109 H1096 0.930 . S
C1109 C1108 1.376 . S
C1109 C1110 1.388 . S
C1110 H1097 0.930 . S
C1110 C1109 1.388 . S
C1110 C1111 1.390 . S
C1111 C1110 1.390 . S
C1111 C1112 1.394 . S
C1111 C1117 1.465 . S
C1112 C1107 1.399 . S
C1112 C1111 1.394 . S
C1112 C1113 1.516 . S
C1113 C1112 1.516 . S
C1113 C1114 1.502 . S
C1113 C1115 1.561 . S
C1113 C1116 1.526 . S
C1114 H1098 0.959 . S
C1114 H1099 0.959 . S
C1114 H1100 0.961 . S
C1114 C1113 1.502 . S
C1115 H1101 0.960 . S
C1115 H1102 0.961 . S
C1115 H1103 0.959 . S
C1115 C1113 1.561 . S
C1116 C1113 1.526 . S
C1116 C1117 1.396 . S
C1116 C1121 1.390 . S
C1117 C1111 1.465 . S
C1117 C1116 1.396 . S
C1117 C1118 1.399 . S
C1118 H1104 0.929 . S
C1118 C1117 1.399 . S
C1118 C1119 1.385 . S
C1119 H1105 0.931 . S
C1119 C1118 1.385 . S
C1119 C1120 1.389 . S
C1120 C1119 1.389 . S
C1120 C1121 1.387 . S
C1121 H1106 0.930 . S
C1121 C1116 1.390 . S
C1121 C1120 1.387 . S
H1122 C1134 0.930 . S
H1123 C1136 0.930 . S
H1124 C1137 0.930 . S
H1125 C1141 0.959 . S
H1126 C1141 0.988 . S
H1127 C1141 0.961 . S
H1128 C1142 0.960 . S
H1129 C1142 0.961 . S
H1130 C1142 0.959 . S
H1131 C1145 0.929 . S
H1132 C1146 0.931 . S
H1133 C1148 0.930 . S
C1134 H1122 0.930 . S
C1134 C1135 1.399 . S
C1134 C1139 1.399 . S
C1135 C1134 1.399 . S
C1135 C1136 1.376 . S
C1136 H1123 0.930 . S
C1136 C1135 1.376 . S
C1136 C1137 1.388 . S
C1137 H1124 0.930 . S
C1137 C1136 1.388 . S
C1137 C1138 1.390 . S
C1138 C1137 1.390 . S
C1138 C1139 1.394 . S
C1138 C1144 1.465 1_545 S
C1139 C1134 1.399 . S
C1139 C1138 1.394 . S
C1139 C1140 1.516 . S
C1140 C1139 1.516 . S
C1140 C1141 1.502 . S
C1140 C1142 1.561 . S
C1140 C1143 1.526 1_545 S
C1141 H1125 0.959 . S
C1141 H1126 0.988 . S
C1141 H1127 0.961 . S
C1141 C1140 1.502 . S
C1142 H1128 0.960 . S
C1142 H1129 0.961 . S
C1142 H1130 0.959 . S
C1142 C1140 1.561 . S
C1143 C1140 1.526 1_565 S
C1143 C1144 1.396 . S
C1143 C1148 1.390 . S
C1144 C1138 1.465 1_565 S
C1144 C1143 1.396 . S
C1144 C1145 1.399 . S
C1145 H1131 0.929 . S
C1145 C1144 1.399 . S
C1145 C1146 1.385 . S
C1146 H1132 0.931 . S
C1146 C1145 1.385 . S
C1146 C1147 1.389 . S
C1147 C1146 1.389 . S
C1147 C1148 1.387 . S
C1148 H1133 0.930 . S
C1148 C1143 1.390 . S
C1148 C1147 1.387 . S
H1149 C1161 0.930 . S
H1150 C1163 0.930 . S
H1151 C1164 0.930 . S
H1152 C1168 0.959 . S
H1153 C1168 0.959 . S
H1154 C1168 0.961 1_565 S
H1155 C1169 0.960 . S
H1156 C1169 0.961 . S
H1157 C1169 0.959 . S
H1158 C1172 0.929 . S
H1159 C1173 0.931 . S
H1160 C1175 0.932 . S
C1161 H1149 0.930 . S
C1161 C1162 1.399 . S
C1161 C1166 1.399 . S
C1162 C1161 1.399 . S
C1162 C1163 1.376 1_554 S
C1163 H1150 0.930 . S
C1163 C1162 1.376 1_556 S
C1163 C1164 1.388 . S
C1164 H1151 0.930 . S
C1164 C1163 1.388 . S
C1164 C1165 1.390 . S
C1165 C1164 1.390 . S
C1165 C1166 1.394 1_556 S
C1165 C1171 1.465 1_565 S
C1166 C1161 1.399 . S
C1166 C1165 1.394 1_554 S
C1166 C1167 1.516 1_565 S
C1167 C1166 1.516 1_545 S
C1167 C1168 1.502 . S
C1167 C1169 1.561 . S
C1167 C1170 1.526 . S
C1168 H1152 0.959 . S
C1168 H1153 0.959 . S
C1168 H1154 0.961 1_545 S
C1168 C1167 1.502 . S
C1169 H1155 0.960 . S
C1169 H1156 0.961 . S
C1169 H1157 0.959 . S
C1169 C1167 1.561 . S
C1170 C1167 1.526 . S
C1170 C1171 1.396 1_554 S
C1170 C1175 1.390 . S
C1171 C1165 1.465 1_545 S
C1171 C1170 1.396 1_556 S
C1171 C1172 1.399 . S
C1172 H1158 0.929 . S
C1172 C1171 1.399 . S
C1172 C1173 1.385 . S
C1173 H1159 0.931 . S
C1173 C1172 1.385 . S
C1173 C1174 1.389 . S
C1174 C1173 1.389 . S
C1174 C1175 1.384 1_556 S
C1175 H1160 0.932 . S
C1175 C1170 1.390 . S
C1175 C1174 1.384 1_554 S
H1176 C1188 0.930 . S
H1177 C1190 0.930 . S
H1178 C1191 0.930 . S
H1179 C1195 0.959 . S
H1180 C1195 0.959 . S
H1181 C1195 0.961 . S
H1182 C1196 0.960 . S
H1183 C1196 0.961 . S
H1184 C1196 0.959 . S
H1185 C1199 0.929 . S
H1186 C1200 0.931 . S
H1187 C1202 0.930 . S
C1188 H1176 0.930 . S
C1188 C1189 1.399 . S
C1188 C1193 1.399 . S
C1189 C1188 1.399 . S
C1189 C1190 1.376 . S
C1190 H1177 0.930 . S
C1190 C1189 1.376 . S
C1190 C1191 1.388 . S
C1191 H1178 0.930 . S
C1191 C1190 1.388 . S
C1191 C1192 1.390 . S
C1192 C1191 1.390 . S
C1192 C1193 1.394 . S
C1192 C1198 1.465 . S
C1193 C1188 1.399 . S
C1193 C1192 1.394 . S
C1193 C1194 1.516 . S
C1194 C1193 1.516 . S
C1194 C1195 1.502 . S
C1194 C1196 1.561 . S
C1194 C1197 1.526 . S
C1195 H1179 0.959 . S
C1195 H1180 0.959 . S
C1195 H1181 0.961 . S
C1195 C1194 1.502 . S
C1196 H1182 0.960 . S
C1196 H1183 0.961 . S
C1196 H1184 0.959 . S
C1196 C1194 1.561 . S
C1197 C1194 1.526 . S
C1197 C1198 1.396 . S
C1197 C1202 1.390 . S
C1198 C1192 1.465 . S
C1198 C1197 1.396 . S
C1198 C1199 1.399 . S
C1199 H1185 0.929 . S
C1199 C1198 1.399 . S
C1199 C1200 1.385 . S
C1200 H1186 0.931 . S
C1200 C1199 1.385 . S
C1200 C1201 1.389 . S
C1201 C1200 1.389 . S
C1201 C1202 1.387 . S
C1202 H1187 0.930 . S
C1202 C1197 1.390 . S
C1202 C1201 1.387 . S
H1203 C1215 0.930 . S
H1204 C1217 0.930 . S
H1205 C1218 0.930 . S
H1206 C1222 0.959 . S
H1207 C1222 0.959 . S
H1208 C1222 0.961 . S
H1209 C1223 0.960 . S
H1210 C1223 0.961 . S
H1211 C1223 0.959 . S
H1212 C1226 0.929 . S
H1213 C1227 0.931 . S
H1214 C1229 0.930 . S
C1215 H1203 0.930 . S
C1215 C1216 1.399 . S
C1215 C1220 1.399 . S
C1216 C1215 1.399 . S
C1216 C1217 1.376 . S
C1217 H1204 0.930 . S
C1217 C1216 1.376 . S
C1217 C1218 1.388 . S
C1218 H1205 0.930 . S
C1218 C1217 1.388 . S
C1218 C1219 1.390 . S
C1219 C1218 1.390 . S
C1219 C1220 1.394 . S
C1219 C1225 1.465 . S
C1220 C1215 1.399 . S
C1220 C1219 1.394 . S
C1220 C1221 1.516 . S
C1221 C1220 1.516 . S
C1221 C1222 1.502 . S
C1221 C1223 1.561 . S
C1221 C1224 1.526 . S
C1222 H1206 0.959 . S
C1222 H1207 0.959 . S
C1222 H1208 0.961 . S
C1222 C1221 1.502 . S
C1223 H1209 0.960 . S
C1223 H1210 0.961 . S
C1223 H1211 0.959 . S
C1223 C1221 1.561 . S
C1224 C1221 1.526 . S
C1224 C1225 1.396 . S
C1224 C1229 1.390 . S
C1225 C1219 1.465 . S
C1225 C1224 1.396 . S
C1225 C1226 1.399 . S
C1226 H1212 0.929 . S
C1226 C1225 1.399 . S
C1226 C1227 1.385 . S
C1227 H1213 0.931 . S
C1227 C1226 1.385 . S
C1227 C1228 1.389 . S
C1228 C1227 1.389 . S
C1228 C1229 1.387 . S
C1229 H1214 0.930 . S
C1229 C1224 1.390 . S
C1229 C1228 1.387 . S
H1230 C1242 0.930 . S
H1231 C1244 0.930 . S
H1232 C1245 0.930 . S
H1233 C1249 0.959 . S
H1234 C1249 0.959 . S
H1235 C1249 0.961 . S
H1236 C1250 0.960 . S
H1237 C1250 0.961 . S
H1238 C1250 0.959 . S
H1239 C1253 0.929 . S
H1240 C1254 0.931 . S
H1241 C1256 0.930 . S
C1242 H1230 0.930 . S
C1242 C1243 1.399 . S
C1242 C1247 1.399 . S
C1243 C1242 1.399 . S
C1243 C1244 1.376 . S
C1244 H1231 0.930 . S
C1244 C1243 1.376 . S
C1244 C1245 1.388 . S
C1245 H1232 0.930 . S
C1245 C1244 1.388 . S
C1245 C1246 1.390 . S
C1246 C1245 1.390 . S
C1246 C1247 1.394 . S
C1246 C1252 1.465 . S
C1247 C1242 1.399 . S
C1247 C1246 1.394 . S
C1247 C1248 1.516 . S
C1248 C1247 1.516 . S
C1248 C1249 1.502 . S
C1248 C1250 1.561 . S
C1248 C1251 1.526 . S
C1249 H1233 0.959 . S
C1249 H1234 0.959 . S
C1249 H1235 0.961 . S
C1249 C1248 1.502 . S
C1250 H1236 0.960 . S
C1250 H1237 0.961 . S
C1250 H1238 0.959 . S
C1250 C1248 1.561 . S
C1251 C1248 1.526 . S
C1251 C1252 1.396 . S
C1251 C1256 1.390 . S
C1252 C1246 1.465 . S
C1252 C1251 1.396 . S
C1252 C1253 1.399 . S
C1253 H1239 0.929 . S
C1253 C1252 1.399 . S
C1253 C1254 1.385 . S
C1254 H1240 0.931 . S
C1254 C1253 1.385 . S
C1254 C1255 1.389 . S
C1255 C1254 1.389 . S
C1255 C1256 1.387 . S
C1256 H1241 0.930 . S
C1256 C1251 1.390 . S
C1256 C1255 1.387 . S
H1257 C1269 0.930 . S
H1258 C1271 0.930 . S
H1259 C1272 0.930 . S
H1260 C1276 0.959 . S
H1261 C1276 0.959 . S
H1262 C1276 0.961 . S
H1263 C1277 0.960 . S
H1264 C1277 0.961 . S
H1265 C1277 0.959 . S
H1266 C1280 0.929 . S
H1267 C1281 0.931 . S
H1268 C1283 0.930 . S
C1269 H1257 0.930 . S
C1269 C1270 1.399 . S
C1269 C1274 1.399 . S
C1270 C1269 1.399 . S
C1270 C1271 1.376 . S
C1271 H1258 0.930 . S
C1271 C1270 1.376 . S
C1271 C1272 1.388 . S
C1272 H1259 0.930 . S
C1272 C1271 1.388 . S
C1272 C1273 1.390 . S
C1273 C1272 1.390 . S
C1273 C1274 1.394 . S
C1273 C1279 1.465 . S
C1274 C1269 1.399 . S
C1274 C1273 1.394 . S
C1274 C1275 1.516 . S
C1275 C1274 1.516 . S
C1275 C1276 1.502 . S
C1275 C1277 1.561 . S
C1275 C1278 1.526 . S
C1276 H1260 0.959 . S
C1276 H1261 0.959 . S
C1276 H1262 0.961 . S
C1276 C1275 1.502 . S
C1277 H1263 0.960 . S
C1277 H1264 0.961 . S
C1277 H1265 0.959 . S
C1277 C1275 1.561 . S
C1278 C1275 1.526 . S
C1278 C1279 1.396 . S
C1278 C1283 1.390 . S
C1279 C1273 1.465 . S
C1279 C1278 1.396 . S
C1279 C1280 1.399 . S
C1280 H1266 0.929 . S
C1280 C1279 1.399 . S
C1280 C1281 1.385 . S
C1281 H1267 0.931 . S
C1281 C1280 1.385 . S
C1281 C1282 1.389 . S
C1282 C1281 1.389 . S
C1282 C1283 1.387 . S
C1283 H1268 0.930 . S
C1283 C1278 1.390 . S
C1283 C1282 1.387 . S
H1284 C1296 0.930 . S
H1285 C1298 0.930 . S
H1286 C1299 0.930 . S
H1287 C1303 0.959 . S
H1288 C1303 0.959 . S
H1289 C1303 0.961 . S
H1290 C1304 0.960 . S
H1291 C1304 0.961 . S
H1292 C1304 0.959 . S
H1293 C1307 0.929 . S
H1294 C1308 0.931 . S
H1295 C1310 0.930 . S
C1296 H1284 0.930 . S
C1296 C1297 1.399 . S
C1296 C1301 1.399 . S
C1297 C1296 1.399 . S
C1297 C1298 1.376 . S
C1298 H1285 0.930 . S
C1298 C1297 1.376 . S
C1298 C1299 1.388 . S
C1299 H1286 0.930 . S
C1299 C1298 1.388 . S
C1299 C1300 1.390 . S
C1300 C1299 1.390 . S
C1300 C1301 1.394 . S
C1300 C1306 1.465 . S
C1301 C1296 1.399 . S
C1301 C1300 1.394 . S
C1301 C1302 1.516 . S
C1302 C1301 1.516 . S
C1302 C1303 1.502 . S
C1302 C1304 1.561 1_556 S
C1302 C1305 1.526 . S
C1303 H1287 0.959 . S
C1303 H1288 0.959 . S
C1303 H1289 0.961 . S
C1303 C1302 1.502 . S
C1304 H1290 0.960 . S
C1304 H1291 0.961 . S
C1304 H1292 0.959 . S
C1304 C1302 1.561 1_554 S
C1305 C1302 1.526 . S
C1305 C1306 1.396 . S
C1305 C1310 1.390 . S
C1306 C1300 1.465 . S
C1306 C1305 1.396 . S
C1306 C1307 1.399 . S
C1307 H1293 0.929 . S
C1307 C1306 1.399 . S
C1307 C1308 1.385 . S
C1308 H1294 0.931 . S
C1308 C1307 1.385 . S
C1308 C1309 1.389 . S
C1309 C1308 1.389 . S
C1309 C1310 1.387 . S
C1310 H1295 0.930 . S
C1310 C1305 1.390 . S
C1310 C1309 1.387 . S
H1311 C1323 0.930 . S
H1312 C1325 0.930 . S
H1313 C1326 0.930 1_556 S
H1314 C1330 0.959 . S
H1315 C1330 0.959 . S
H1316 C1330 0.961 . S
H1317 C1331 0.960 . S
H1318 C1331 0.961 . S
H1319 C1331 0.959 . S
H1320 C1334 0.929 1_556 S
H1321 C1335 0.931 . S
H1322 C1337 0.930 . S
C1323 H1311 0.930 . S
C1323 C1324 1.399 . S
C1323 C1328 1.399 . S
C1324 C1323 1.399 . S
C1324 C1325 1.376 . S
C1325 H1312 0.930 . S
C1325 C1324 1.376 . S
C1325 C1326 1.388 . S
C1326 H1313 0.930 1_554 S
C1326 C1325 1.388 . S
C1326 C1327 1.390 . S
C1327 C1326 1.390 . S
C1327 C1328 1.394 . S
C1327 C1333 1.465 . S
C1328 C1323 1.399 . S
C1328 C1327 1.394 . S
C1328 C1329 1.516 . S
C1329 C1328 1.516 . S
C1329 C1330 1.502 . S
C1329 C1331 1.561 . S
C1329 C1332 1.526 . S
C1330 H1314 0.959 . S
C1330 H1315 0.959 . S
C1330 H1316 0.961 . S
C1330 C1329 1.502 . S
C1331 H1317 0.960 . S
C1331 H1318 0.961 . S
C1331 H1319 0.959 . S
C1331 C1329 1.561 . S
C1332 C1329 1.526 . S
C1332 C1333 1.396 . S
C1332 C1337 1.390 . S
C1333 C1327 1.465 . S
C1333 C1332 1.396 . S
C1333 C1334 1.399 . S
C1334 H1320 0.929 1_554 S
C1334 C1333 1.399 . S
C1334 C1335 1.385 . S
C1335 H1321 0.931 . S
C1335 C1334 1.385 . S
C1335 C1336 1.389 . S
C1336 C1335 1.389 . S
C1336 C1337 1.387 . S
C1337 H1322 0.930 . S
C1337 C1332 1.390 . S
C1337 C1336 1.387 . S
H1338 C1350 0.930 . S
H1339 C1352 0.930 . S
H1340 C1353 0.930 . S
H1341 C1357 0.959 . S
H1342 C1357 0.959 . S
H1343 C1357 0.961 . S
H1344 C1358 0.960 . S
H1345 C1358 0.961 . S
H1346 C1358 0.959 . S
H1347 C1361 0.929 . S
H1348 C1362 0.931 . S
H1349 C1364 0.930 . S
C1350 H1338 0.930 . S
C1350 C1351 1.399 . S
C1350 C1355 1.399 . S
C1351 C1350 1.399 . S
C1351 C1352 1.376 . S
C1352 H1339 0.930 . S
C1352 C1351 1.376 . S
C1352 C1353 1.388 . S
C1353 H1340 0.930 . S
C1353 C1352 1.388 . S
C1353 C1354 1.390 . S
C1354 C1353 1.390 . S
C1354 C1355 1.394 . S
C1354 C1360 1.465 . S
C1355 C1350 1.399 . S
C1355 C1354 1.394 . S
C1355 C1356 1.516 . S
C1356 C1355 1.516 . S
C1356 C1357 1.502 . S
C1356 C1358 1.561 . S
C1356 C1359 1.526 . S
C1357 H1341 0.959 . S
C1357 H1342 0.959 . S
C1357 H1343 0.961 . S
C1357 C1356 1.502 . S
C1358 H1344 0.960 . S
C1358 H1345 0.961 . S
C1358 H1346 0.959 . S
C1358 C1356 1.561 . S
C1359 C1356 1.526 . S
C1359 C1360 1.396 . S
C1359 C1364 1.390 . S
C1360 C1354 1.465 . S
C1360 C1359 1.396 . S
C1360 C1361 1.399 . S
C1361 H1347 0.929 . S
C1361 C1360 1.399 . S
C1361 C1362 1.385 . S
C1362 H1348 0.931 . S
C1362 C1361 1.385 . S
C1362 C1363 1.389 . S
C1363 C1362 1.389 . S
C1363 C1364 1.387 . S
C1364 H1349 0.930 . S
C1364 C1359 1.390 . S
C1364 C1363 1.387 . S
H1365 C1377 0.930 . S
H1366 C1379 0.930 . S
H1367 C1380 0.930 . S
H1368 C1384 0.959 . S
H1369 C1384 0.959 . S
H1370 C1384 0.961 . S
H1371 C1385 0.960 . S
H1372 C1385 0.961 . S
H1373 C1385 0.959 . S
H1374 C1388 0.929 . S
H1375 C1389 0.931 . S
H1376 C1391 0.930 . S
C1377 H1365 0.930 . S
C1377 C1378 1.399 . S
C1377 C1382 1.399 . S
C1378 C1377 1.399 . S
C1378 C1379 1.376 . S
C1379 H1366 0.930 . S
C1379 C1378 1.376 . S
C1379 C1380 1.388 . S
C1380 H1367 0.930 . S
C1380 C1379 1.388 . S
C1380 C1381 1.390 . S
C1381 C1380 1.390 . S
C1381 C1382 1.394 . S
C1381 C1387 1.465 . S
C1382 C1377 1.399 . S
C1382 C1381 1.394 . S
C1382 C1383 1.516 . S
C1383 C1382 1.516 . S
C1383 C1384 1.502 . S
C1383 C1385 1.561 . S
C1383 C1386 1.526 . S
C1384 H1368 0.959 . S
C1384 H1369 0.959 . S
C1384 H1370 0.961 . S
C1384 C1383 1.502 . S
C1385 H1371 0.960 . S
C1385 H1372 0.961 . S
C1385 H1373 0.959 . S
C1385 C1383 1.561 . S
C1386 C1383 1.526 . S
C1386 C1387 1.396 . S
C1386 C1391 1.390 . S
C1387 C1381 1.465 . S
C1387 C1386 1.396 . S
C1387 C1388 1.399 . S
C1388 H1374 0.929 . S
C1388 C1387 1.399 . S
C1388 C1389 1.385 . S
C1389 H1375 0.931 . S
C1389 C1388 1.385 . S
C1389 C1390 1.389 . S
C1390 C1389 1.389 . S
C1390 C1391 1.387 . S
C1391 H1376 0.930 . S
C1391 C1386 1.390 . S
C1391 C1390 1.387 . S
H1392 C1404 0.930 1_455 S
H1393 C1406 0.930 1_554 S
H1394 C1407 0.930 1_554 S
H1395 C1411 0.959 . S
H1396 C1411 0.959 . S
H1397 C1411 0.961 . S
H1398 C1412 0.960 1_455 S
H1399 C1412 0.961 . S
H1400 C1412 0.959 . S
H1401 C1415 0.929 1_554 S
H1402 C1416 0.931 . S
H1403 C1418 0.930 . S
C1404 H1392 0.930 1_655 S
C1404 C1405 1.399 1_655 S
C1404 C1409 1.399 . S
C1405 C1404 1.399 1_455 S
C1405 C1406 1.376 1_455 S
C1406 H1393 0.930 1_556 S
C1406 C1405 1.376 1_655 S
C1406 C1407 1.388 . S
C1407 H1394 0.930 1_556 S
C1407 C1406 1.388 . S
C1407 C1408 1.390 . S
C1408 C1407 1.390 . S
C1408 C1409 1.394 . S
C1408 C1414 1.465 . S
C1409 C1404 1.399 . S
C1409 C1408 1.394 . S
C1409 C1410 1.516 . S
C1410 C1409 1.516 . S
C1410 C1411 1.502 . S
C1410 C1412 1.561 . S
C1410 C1413 1.526 . S
C1411 H1395 0.959 . S
C1411 H1396 0.959 . S
C1411 H1397 0.961 . S
C1411 C1410 1.502 . S
C1412 H1398 0.960 1_655 S
C1412 H1399 0.961 . S
C1412 H1400 0.959 . S
C1412 C1410 1.561 . S
C1413 C1410 1.526 . S
C1413 C1414 1.396 . S
C1413 C1418 1.390 . S
C1414 C1408 1.465 . S
C1414 C1413 1.396 . S
C1414 C1415 1.399 . S
C1415 H1401 0.929 1_556 S
C1415 C1414 1.399 . S
C1415 C1416 1.385 . S
C1416 H1402 0.931 . S
C1416 C1415 1.385 . S
C1416 C1417 1.389 . S
C1417 C1416 1.389 . S
C1417 C1418 1.387 . S
C1418 H1403 0.930 . S
C1418 C1413 1.390 . S
C1418 C1417 1.387 . S
H1419 C1431 0.930 . S
H1420 C1433 0.930 . S
H1421 C1434 0.930 . S
H1422 C1438 0.959 . S
H1423 C1438 0.959 . S
H1424 C1438 0.961 . S
H1425 C1439 0.960 . S
H1426 C1439 0.961 . S
H1427 C1439 0.959 . S
H1428 C1442 0.929 . S
H1429 C1443 0.931 . S
H1430 C1445 0.930 . S
C1431 H1419 0.930 . S
C1431 C1432 1.399 . S
C1431 C1436 1.399 . S
C1432 C1431 1.399 . S
C1432 C1433 1.376 . S
C1433 H1420 0.930 . S
C1433 C1432 1.376 . S
C1433 C1434 1.388 . S
C1434 H1421 0.930 . S
C1434 C1433 1.388 . S
C1434 C1435 1.390 . S
C1435 C1434 1.390 . S
C1435 C1436 1.394 . S
C1435 C1441 1.465 . S
C1436 C1431 1.399 . S
C1436 C1435 1.394 . S
C1436 C1437 1.516 . S
C1437 C1436 1.516 . S
C1437 C1438 1.502 . S
C1437 C1439 1.561 . S
C1437 C1440 1.526 . S
C1438 H1422 0.959 . S
C1438 H1423 0.959 . S
C1438 H1424 0.961 . S
C1438 C1437 1.502 . S
C1439 H1425 0.960 . S
C1439 H1426 0.961 . S
C1439 H1427 0.959 . S
C1439 C1437 1.561 . S
C1440 C1437 1.526 . S
C1440 C1441 1.396 . S
C1440 C1445 1.390 . S
C1441 C1435 1.465 . S
C1441 C1440 1.396 . S
C1441 C1442 1.399 . S
C1442 H1428 0.929 . S
C1442 C1441 1.399 . S
C1442 C1443 1.385 . S
C1443 H1429 0.931 . S
C1443 C1442 1.385 . S
C1443 C1444 1.389 . S
C1444 C1443 1.389 . S
C1444 C1445 1.387 . S
C1445 H1430 0.930 . S
C1445 C1440 1.390 . S
C1445 C1444 1.387 . S
H1446 C1458 0.930 . S
H1447 C1460 0.930 . S
H1448 C1461 0.930 . S
H1449 C1465 0.959 . S
H1450 C1465 0.959 . S
H1451 C1465 0.961 . S
H1452 C1466 0.960 . S
H1453 C1466 0.961 . S
H1454 C1466 0.959 . S
H1455 C1469 0.929 . S
H1456 C1470 0.931 . S
H1457 C1472 0.930 . S
C1458 H1446 0.930 . S
C1458 C1459 1.399 . S
C1458 C1463 1.399 . S
C1459 C1458 1.399 . S
C1459 C1460 1.376 . S
C1460 H1447 0.930 . S
C1460 C1459 1.376 . S
C1460 C1461 1.388 . S
C1461 H1448 0.930 . S
C1461 C1460 1.388 . S
C1461 C1462 1.390 . S
C1462 C1461 1.390 . S
C1462 C1463 1.394 . S
C1462 C1468 1.465 . S
C1463 C1458 1.399 . S
C1463 C1462 1.394 . S
C1463 C1464 1.516 . S
C1464 C1463 1.516 . S
C1464 C1465 1.502 . S
C1464 C1466 1.561 . S
C1464 C1467 1.526 . S
C1465 H1449 0.959 . S
C1465 H1450 0.959 . S
C1465 H1451 0.961 . S
C1465 C1464 1.502 . S
C1466 H1452 0.960 . S
C1466 H1453 0.961 . S
C1466 H1454 0.959 . S
C1466 C1464 1.561 . S
C1467 C1464 1.526 . S
C1467 C1468 1.396 . S
C1467 C1472 1.390 . S
C1468 C1462 1.465 . S
C1468 C1467 1.396 . S
C1468 C1469 1.399 . S
C1469 H1455 0.929 . S
C1469 C1468 1.399 . S
C1469 C1470 1.385 . S
C1470 H1456 0.931 . S
C1470 C1469 1.385 . S
C1470 C1471 1.389 . S
C1471 C1470 1.389 . S
C1471 C1472 1.387 . S
C1472 H1457 0.930 . S
C1472 C1467 1.390 . S
C1472 C1471 1.387 . S
H1473 C1485 0.930 . S
H1474 C1487 0.930 . S
H1475 C1488 0.930 . S
H1476 C1492 0.959 1_554 S
H1477 C1492 0.959 . S
H1478 C1492 0.961 . S
H1479 C1493 0.960 . S
H1480 C1493 0.961 . S
H1481 C1493 0.959 1_554 S
H1482 C1496 0.929 . S
H1483 C1497 0.931 . S
H1484 C1499 0.930 . S
C1485 H1473 0.930 . S
C1485 C1486 1.399 . S
C1485 C1490 1.399 . S
C1486 C1485 1.399 . S
C1486 C1487 1.376 . S
C1487 H1474 0.930 . S
C1487 C1486 1.376 . S
C1487 C1488 1.388 . S
C1488 H1475 0.930 . S
C1488 C1487 1.388 . S
C1488 C1489 1.390 . S
C1489 C1488 1.390 . S
C1489 C1490 1.394 . S
C1489 C1495 1.465 . S
C1490 C1485 1.399 . S
C1490 C1489 1.394 . S
C1490 C1491 1.516 . S
C1491 C1490 1.516 . S
C1491 C1492 1.502 1_554 S
C1491 C1493 1.561 1_554 S
C1491 C1494 1.526 . S
C1492 H1476 0.959 1_556 S
C1492 H1477 0.959 . S
C1492 H1478 0.961 . S
C1492 C1491 1.502 1_556 S
C1493 H1479 0.960 . S
C1493 H1480 0.961 . S
C1493 H1481 0.959 1_556 S
C1493 C1491 1.561 1_556 S
C1494 C1491 1.526 . S
C1494 C1495 1.396 . S
C1494 C1499 1.390 . S
C1495 C1489 1.465 . S
C1495 C1494 1.396 . S
C1495 C1496 1.399 . S
C1496 H1482 0.929 . S
C1496 C1495 1.399 . S
C1496 C1497 1.385 . S
C1497 H1483 0.931 . S
C1497 C1496 1.385 . S
C1497 C1498 1.389 . S
C1498 C1497 1.389 . S
C1498 C1499 1.387 . S
C1499 H1484 0.930 . S
C1499 C1494 1.390 . S
C1499 C1498 1.387 . S
H1500 C1512 0.930 . S
H1501 C1514 0.930 . S
H1502 C1515 0.930 . S
H1503 C1519 0.959 . S
H1504 C1519 0.959 . S
H1505 C1519 0.961 . S
H1506 C1520 0.960 . S
H1507 C1520 0.961 . S
H1508 C1520 0.959 . S
H1509 C1523 0.929 1_455 S
H1510 C1524 0.931 . S
H1511 C1526 0.930 . S
C1512 H1500 0.930 . S
C1512 C1513 1.399 . S
C1512 C1517 1.399 . S
C1513 C1512 1.399 . S
C1513 C1514 1.376 . S
C1514 H1501 0.930 . S
C1514 C1513 1.376 . S
C1514 C1515 1.388 . S
C1515 H1502 0.930 . S
C1515 C1514 1.388 . S
C1515 C1516 1.390 . S
C1516 C1515 1.390 . S
C1516 C1517 1.394 . S
C1516 C1522 1.465 . S
C1517 C1512 1.399 . S
C1517 C1516 1.394 . S
C1517 C1518 1.516 . S
C1518 C1517 1.516 . S
C1518 C1519 1.502 . S
C1518 C1520 1.561 1_554 S
C1518 C1521 1.526 . S
C1519 H1503 0.959 . S
C1519 H1504 0.959 . S
C1519 H1505 0.961 . S
C1519 C1518 1.502 . S
C1520 H1506 0.960 . S
C1520 H1507 0.961 . S
C1520 H1508 0.959 . S
C1520 C1518 1.561 1_556 S
C1521 C1518 1.526 . S
C1521 C1522 1.396 . S
C1521 C1526 1.390 . S
C1522 C1516 1.465 . S
C1522 C1521 1.396 . S
C1522 C1523 1.399 . S
C1523 H1509 0.929 1_655 S
C1523 C1522 1.399 . S
C1523 C1524 1.385 1_655 S
C1524 H1510 0.931 . S
C1524 C1523 1.385 1_455 S
C1524 C1525 1.389 . S
C1525 C1524 1.389 . S
C1525 C1526 1.387 1_455 S
C1526 H1511 0.930 . S
C1526 C1521 1.390 . S
C1526 C1525 1.387 1_655 S
H1527 C1539 0.930 . S
H1528 C1541 0.930 . S
H1529 C1542 0.930 . S
H1530 C1546 0.959 . S
H1531 C1546 0.959 . S
H1532 C1546 0.961 . S
H1533 C1547 0.960 . S
H1534 C1547 0.961 . S
H1535 C1547 0.959 . S
H1536 C1550 0.929 1_554 S
H1537 C1551 0.931 1_554 S
H1538 C1553 0.930 . S
C1539 H1527 0.930 . S
C1539 C1540 1.399 . S
C1539 C1544 1.399 . S
C1540 C1539 1.399 . S
C1540 C1541 1.376 . S
C1541 H1528 0.930 . S
C1541 C1540 1.376 . S
C1541 C1542 1.388 . S
C1542 H1529 0.930 . S
C1542 C1541 1.388 . S
C1542 C1543 1.390 . S
C1543 C1542 1.390 . S
C1543 C1544 1.394 . S
C1543 C1549 1.465 . S
C1544 C1539 1.399 . S
C1544 C1543 1.394 . S
C1544 C1545 1.516 . S
C1545 C1544 1.516 . S
C1545 C1546 1.502 . S
C1545 C1547 1.561 . S
C1545 C1548 1.526 . S
C1546 H1530 0.959 . S
C1546 H1531 0.959 . S
C1546 H1532 0.961 . S
C1546 C1545 1.502 . S
C1547 H1533 0.960 . S
C1547 H1534 0.961 . S
C1547 H1535 0.959 . S
C1547 C1545 1.561 . S
C1548 C1545 1.526 . S
C1548 C1549 1.396 . S
C1548 C1553 1.390 . S
C1549 C1543 1.465 . S
C1549 C1548 1.396 . S
C1549 C1550 1.399 . S
C1550 H1536 0.929 1_556 S
C1550 C1549 1.399 . S
C1550 C1551 1.385 . S
C1551 H1537 0.931 1_556 S
C1551 C1550 1.385 . S
C1551 C1552 1.389 . S
C1552 C1551 1.389 . S
C1552 C1553 1.387 . S
C1553 H1538 0.930 . S
C1553 C1548 1.390 . S
C1553 C1552 1.387 . S
H1554 C1566 0.930 . S
H1555 C1568 0.930 . S
H1556 C1569 0.930 . S
H1557 C1573 0.959 . S
H1558 C1573 0.959 . S
H1559 C1573 0.961 . S
H1560 C1574 0.960 . S
H1561 C1574 0.961 . S
H1562 C1574 0.959 . S
H1563 C1577 0.929 . S
H1564 C1578 0.931 . S
H1565 C1580 0.930 . S
C1566 H1554 0.930 . S
C1566 C1567 1.399 . S
C1566 C1571 1.399 . S
C1567 C1566 1.399 . S
C1567 C1568 1.376 . S
C1568 H1555 0.930 . S
C1568 C1567 1.376 . S
C1568 C1569 1.388 . S
C1569 H1556 0.930 . S
C1569 C1568 1.388 . S
C1569 C1570 1.390 . S
C1570 C1569 1.390 . S
C1570 C1571 1.394 . S
C1570 C1576 1.465 . S
C1571 C1566 1.399 . S
C1571 C1570 1.394 . S
C1571 C1572 1.516 . S
C1572 C1571 1.516 . S
C1572 C1573 1.502 . S
C1572 C1574 1.561 . S
C1572 C1575 1.526 . S
C1573 H1557 0.959 . S
C1573 H1558 0.959 . S
C1573 H1559 0.961 . S
C1573 C1572 1.502 . S
C1574 H1560 0.960 . S
C1574 H1561 0.961 . S
C1574 H1562 0.959 . S
C1574 C1572 1.561 . S
C1575 C1572 1.526 . S
C1575 C1576 1.396 . S
C1575 C1580 1.390 . S
C1576 C1570 1.465 . S
C1576 C1575 1.396 . S
C1576 C1577 1.399 . S
C1577 H1563 0.929 . S
C1577 C1576 1.399 . S
C1577 C1578 1.385 . S
C1578 H1564 0.931 . S
C1578 C1577 1.385 . S
C1578 C1579 1.389 . S
C1579 C1578 1.389 . S
C1579 C1580 1.387 . S
C1580 H1565 0.930 . S
C1580 C1575 1.390 . S
C1580 C1579 1.387 . S
H1581 C1593 0.930 . S
H1582 C1595 0.930 . S
H1583 C1596 0.930 . S
H1584 C1600 0.959 . S
H1585 C1600 0.959 . S
H1586 C1600 0.961 . S
H1587 C1601 0.960 . S
H1588 C1601 0.961 . S
H1589 C1601 0.959 . S
H1590 C1604 0.929 . S
H1591 C1605 0.931 . S
H1592 C1607 0.930 . S
C1593 H1581 0.930 . S
C1593 C1594 1.399 . S
C1593 C1598 1.399 . S
C1594 C1593 1.399 . S
C1594 C1595 1.376 . S
C1595 H1582 0.930 . S
C1595 C1594 1.376 . S
C1595 C1596 1.388 . S
C1596 H1583 0.930 . S
C1596 C1595 1.388 . S
C1596 C1597 1.390 . S
C1597 C1596 1.390 . S
C1597 C1598 1.394 . S
C1597 C1603 1.465 . S
C1598 C1593 1.399 . S
C1598 C1597 1.394 . S
C1598 C1599 1.516 . S
C1599 C1598 1.516 . S
C1599 C1600 1.502 . S
C1599 C1601 1.561 . S
C1599 C1602 1.526 . S
C1600 H1584 0.959 . S
C1600 H1585 0.959 . S
C1600 H1586 0.961 . S
C1600 C1599 1.502 . S
C1601 H1587 0.960 . S
C1601 H1588 0.961 . S
C1601 H1589 0.959 . S
C1601 C1599 1.561 . S
C1602 C1599 1.526 . S
C1602 C1603 1.396 . S
C1602 C1607 1.390 . S
C1603 C1597 1.465 . S
C1603 C1602 1.396 . S
C1603 C1604 1.399 . S
C1604 H1590 0.929 . S
C1604 C1603 1.399 . S
C1604 C1605 1.385 . S
C1605 H1591 0.931 . S
C1605 C1604 1.385 . S
C1605 C1606 1.389 . S
C1606 C1605 1.389 . S
C1606 C1607 1.387 . S
C1607 H1592 0.930 . S
C1607 C1602 1.390 . S
C1607 C1606 1.387 . S
C541 N5 1.439 . S
C553 N14 1.442 . S
C568 N38 1.474 . S
C580 N47 1.394 . S
C595 N71 1.423 . S
C607 N80 1.443 . S
C622 N104 1.475 . S
C634 N113 1.395 . S
C649 N137 1.424 . S
C661 N146 1.442 . S
C676 N170 1.413 . S
C688 N179 1.466 . S
C703 N203 1.460 . S
C715 N212 1.419 . S
C730 N245 1.423 . S
C742 N236 1.456 . S
C757 N278 1.450 . S
C769 N269 1.418 . S
C784 N302 1.405 . S
C796 N311 1.470 . S
C811 N335 1.475 . S
C823 N344 1.394 . S
C838 N377 1.446 . S
C850 N368 1.421 . S
C865 N410 1.395 . S
C877 N401 1.469 . S
C892 N434 1.449 . S
C904 N443 1.432 . S
C919 N476 1.394 . S
C931 N467 1.471 . S
C946 N500 1.426 . S
C958 N509 1.439 . S
C973 C28 0.990 . S
C985 C160 0.997 . S
C1000 C193 0.978 . S
C1012 C61 0.983 . S
C1027 C226 0.986 . S
C1039 C94 0.979 . S
C1054 C127 0.978 . S
C1066 C259 0.985 . S
C1081 C358 0.978 . S
C1093 C292 0.984 . S
C1108 C325 0.978 . S
C1120 C391 0.982 . S
C1135 C424 0.987 . S
C1147 C490 0.979 . S
C1162 C457 0.991 . S
C1174 C523 0.997 . S
C1189 C305 1.399 . S
C1201 C8 1.391 . S
C1216 C470 1.422 . S
C1228 C41 1.433 . S
C1243 C74 1.427 . S
C1255 C272 1.436 . S
C1270 C503 1.436 1_655 S
C1282 C107 1.440 . S
C1297 C338 1.431 . S
C1309 C140 1.438 . S
C1324 C437 1.416 1_655 S
C1336 C173 1.428 . S
C1351 C206 1.389 . S
C1363 C371 1.389 . S
C1378 C239 1.402 . S
C1390 C404 1.393 . S
C1405 C149 1.515 . S
C1417 C116 1.520 . S
C1432 C413 1.508 . S
C1444 C281 1.513 . S
C1459 C50 1.529 . S
C1471 C215 1.525 . S
C1486 C446 1.525 . S
C1498 C314 1.520 . S
C1513 C182 1.503 . S
C1525 C17 1.506 . S
C1540 C347 1.530 . S
C1552 C512 1.526 . S
C1567 C248 1.509 . S
C1579 C83 1.514 . S
C1594 C479 1.530 . S
C1606 C380 1.527 . S
