# Generated by pormake.
# Topology yfz, (5)-cn, num edge types: 1
# Building blocks:
#     Node 0, Type 0, BuildingBlock: BEQFEK_clean_sbu_0, # of connection points: 5
#     Node 1, Type 0, BuildingBlock: BEQFEK_clean_sbu_0, # of connection points: 5
#     Node 2, Type 0, BuildingBlock: BEQFEK_clean_sbu_0, # of connection points: 5
#     Node 3, Type 0, BuildingBlock: BEQFEK_clean_sbu_0, # of connection points: 5
#     Node 4, Type 0, BuildingBlock: BEQFEK_clean_sbu_0, # of connection points: 5
#     Node 5, Type 0, BuildingBlock: BEQFEK_clean_sbu_0, # of connection points: 5
#     Node 6, Type 0, BuildingBlock: BEQFEK_clean_sbu_0, # of connection points: 5
#     Node 7, Type 0, BuildingBlock: BEQFEK_clean_sbu_0, # of connection points: 5
#     Edge 8, Type (0, 0), BuildingBlock: XUDNAN_clean_linker_2, # of connection points: 2
#     Edge 9, Type (0, 0), BuildingBlock: XUDNAN_clean_linker_2, # of connection points: 2
#     Edge 10, Type (0, 0), BuildingBlock: XUDNAN_clean_linker_2, # of connection points: 2
#     Edge 11, Type (0, 0), BuildingBlock: XUDNAN_clean_linker_2, # of connection points: 2
#     Edge 12, Type (0, 0), BuildingBlock: XUDNAN_clean_linker_2, # of connection points: 2
#     Edge 13, Type (0, 0), BuildingBlock: XUDNAN_clean_linker_2, # of connection points: 2
#     Edge 14, Type (0, 0), BuildingBlock: XUDNAN_clean_linker_2, # of connection points: 2
#     Edge 15, Type (0, 0), BuildingBlock: XUDNAN_clean_linker_2, # of connection points: 2
#     Edge 16, Type (0, 0), BuildingBlock: XUDNAN_clean_linker_2, # of connection points: 2
#     Edge 17, Type (0, 0), BuildingBlock: XUDNAN_clean_linker_2, # of connection points: 2
#     Edge 18, Type (0, 0), BuildingBlock: XUDNAN_clean_linker_2, # of connection points: 2
#     Edge 19, Type (0, 0), BuildingBlock: XUDNAN_clean_linker_2, # of connection points: 2
#     Edge 20, Type (0, 0), BuildingBlock: XUDNAN_clean_linker_2, # of connection points: 2
#     Edge 21, Type (0, 0), BuildingBlock: XUDNAN_clean_linker_2, # of connection points: 2
#     Edge 22, Type (0, 0), BuildingBlock: XUDNAN_clean_linker_2, # of connection points: 2
#     Edge 23, Type (0, 0), BuildingBlock: XUDNAN_clean_linker_2, # of connection points: 2
#     Edge 24, Type (0, 0), BuildingBlock: XUDNAN_clean_linker_2, # of connection points: 2
#     Edge 25, Type (0, 0), BuildingBlock: XUDNAN_clean_linker_2, # of connection points: 2
#     Edge 26, Type (0, 0), BuildingBlock: XUDNAN_clean_linker_2, # of connection points: 2
#     Edge 27, Type (0, 0), BuildingBlock: XUDNAN_clean_linker_2, # of connection points: 2
# Relax obj value: 0.193
# Max RMSD: 0.175
# Mean RMSD: 0.175
data_MOF--net-yfz--node1-BEQFEK_clean_sbu_0--edge1-XUDNAN_clean_linker_2
_symmetry_space_group_name_H-M    P1
_symmetry_Int_Tables_number       1
_symmetry_cell_setting            triclinic
loop_
_symmetry_equiv_pos_as_xyz
'x, y, z'
_cell_length_a     51.537818
_cell_length_b     51.573912
_cell_length_c     18.762061
_cell_angle_alpha  90.007003
_cell_angle_beta   90.021979
_cell_angle_gamma 89.999372
loop_
_atom_site_label
_atom_site_type_symbol
_atom_site_fract_x
_atom_site_fract_y
_atom_site_fract_z
_atom_type_partial_charge
Co0 Co 0.60714 0.10052 0.24542 0.0
Co1 Co 0.61168 0.12084 0.4 0.0
C2 C 0.65829 0.10261 0.31454 0.0
O3 O 0.6447 0.09658 0.26054 0.0
O4 O 0.64785 0.11197 0.37043 0.0
C5 C 0.6109 0.07001 0.11712 0.0
O6 O 0.62687 0.05465 0.15166 0.0
C7 C 0.62198 0.11146 0.54969 0.0
C8 C 0.5982 0.14164 0.60181 0.0
C9 C 0.61295 0.11969 0.6155 0.0
N10 N 0.61206 0.12712 0.49942 0.0
N11 N 0.59839 0.14551 0.5309 0.0
C12 C 0.63962 0.08908 0.53407 0.0
H13 H 0.65324 0.09432 0.49112 0.0
H14 H 0.62809 0.07224 0.51544 0.0
H15 H 0.65109 0.08352 0.5817 0.0
C16 C 0.57117 0.06306 0.31409 0.0
N17 N 0.58724 0.08364 0.31584 0.0
N18 N 0.58777 0.09321 0.38081 0.0
C19 C 0.57125 0.07944 0.42202 0.0
C20 C 0.56048 0.0597 0.38131 0.0
C21 C 0.5661 0.04707 0.24904 0.0
H22 H 0.56102 0.05997 0.20386 0.0
H23 H 0.58403 0.03641 0.23457 0.0
H24 H 0.55012 0.03302 0.25782 0.0
O25 O 0.5987 0.13784 0.24082 0.0
O26 O 0.60119 0.1532 0.35082 0.0
H27 H 0.56577 0.10547 0.5099 0.0
H28 H 0.54811 0.07566 0.51821 0.0
C29 C 0.56652 0.08436 0.49963 0.0
H30 H 0.58237 0.07561 0.53129 0.0
H31 H 0.58801 0.15981 0.50374 0.0
O32 O 0.5995 0.08829 0.14969 0.0
C33 C 0.59697 0.15657 0.28462 0.0
Co34 Co 0.39117 0.60751 0.80415 0.0
Co35 Co 0.38154 0.62327 0.96217 0.0
C36 C 0.39967 0.66258 0.86605 0.0
O37 O 0.39832 0.64558 0.81685 0.0
O38 O 0.39457 0.65696 0.93059 0.0
C39 C 0.41905 0.61303 0.67386 0.0
O40 O 0.4268 0.63494 0.70241 0.0
C41 C 0.38481 0.63047 0.1199 0.0
C42 C 0.35688 0.59989 0.15021 0.0
C43 C 0.37551 0.61641 0.17766 0.0
N44 N 0.373 0.62158 0.06068 0.0
N45 N 0.3556 0.60412 0.07986 0.0
C46 C 0.40643 0.64985 0.12036 0.0
H47 H 0.41269 0.65456 0.0653 0.0
H48 H 0.42307 0.64241 0.15189 0.0
H49 H 0.39956 0.66786 0.14664 0.0
C50 C 0.41989 0.56433 0.87797 0.0
N51 N 0.40678 0.58704 0.87661 0.0
N52 N 0.40564 0.59644 0.94149 0.0
C53 C 0.41962 0.58126 0.9852 0.0
C54 C 0.42828 0.55963 0.9477 0.0
C55 C 0.42276 0.54703 0.81452 0.0
H56 H 0.40766 0.5515 0.77419 0.0
H57 H 0.4421 0.55027 0.79013 0.0
H58 H 0.42126 0.52636 0.8305 0.0
O59 O 0.35335 0.6026 0.80436 0.0
O60 O 0.34761 0.61597 0.91542 0.0
H61 H 0.41311 0.58459 0.09756 0.0
H62 H 0.44679 0.58051 0.07333 0.0
C63 C 0.42816 0.58968 0.05781 0.0
H64 H 0.43122 0.61086 0.05754 0.0
H65 H 0.34444 0.59337 0.04409 0.0
O66 O 0.40457 0.59779 0.7093 0.0
C67 C 0.33851 0.6078 0.85648 0.0
Co68 Co 0.90358 0.39877 0.23286 0.0
Co69 Co 0.88599 0.38311 0.38665 0.0
C70 C 0.84781 0.4022 0.27902 0.0
O71 O 0.86621 0.40464 0.2346 0.0
O72 O 0.85208 0.39402 0.34211 0.0
C73 C 0.90433 0.42905 0.10546 0.0
O74 O 0.88996 0.44531 0.14214 0.0
C75 C 0.87219 0.3936 0.536 0.0
C76 C 0.89099 0.36041 0.58944 0.0
C77 C 0.87891 0.38396 0.60307 0.0
N78 N 0.88112 0.3771 0.48613 0.0
N79 N 0.89161 0.35695 0.51852 0.0
C80 C 0.85751 0.41782 0.51829 0.0
H81 H 0.84672 0.41525 0.46766 0.0
H82 H 0.87119 0.43417 0.51083 0.0
H83 H 0.84362 0.42271 0.56144 0.0
C84 C 0.93999 0.43215 0.31243 0.0
N85 N 0.91986 0.41555 0.30953 0.0
N86 N 0.91308 0.40875 0.37467 0.0
C87 C 0.92915 0.4208 0.42112 0.0
C88 C 0.94629 0.43625 0.38328 0.0
C89 C 0.95359 0.44266 0.24829 0.0
H90 H 0.93957 0.45383 0.21557 0.0
H91 H 0.97007 0.4554 0.26329 0.0
H92 H 0.96074 0.42632 0.21518 0.0
O93 O 0.91051 0.36143 0.23702 0.0
O94 O 0.8972 0.34924 0.34425 0.0
H95 H 0.94993 0.42115 0.52157 0.0
H96 H 0.91559 0.42559 0.52808 0.0
C97 C 0.93098 0.41497 0.49917 0.0
H98 H 0.92875 0.39391 0.50832 0.0
H99 H 0.90075 0.34164 0.49215 0.0
O100 O 0.91474 0.40988 0.13703 0.0
C101 C 0.90694 0.34388 0.28357 0.0
Co102 Co 0.09904 0.90008 0.71821 0.0
Co103 Co 0.11562 0.88494 0.87398 0.0
C104 C 0.09534 0.84529 0.77185 0.0
O105 O 0.09338 0.86287 0.72497 0.0
O106 O 0.10338 0.85057 0.83451 0.0
C107 C 0.06859 0.89635 0.59267 0.0
O108 O 0.05481 0.88077 0.63308 0.0
C109 C 0.1056 0.87215 0.02408 0.0
C110 C 0.14041 0.88835 0.07637 0.0
C111 C 0.11643 0.87728 0.09077 0.0
N112 N 0.12214 0.88054 0.97361 0.0
N113 N 0.14317 0.88958 0.0052 0.0
C114 C 0.079 0.86212 0.00753 0.0
H115 H 0.07349 0.86696 0.9519 0.0
H116 H 0.06446 0.87027 0.04493 0.0
H117 H 0.07895 0.84071 0.01329 0.0
C118 C 0.0632 0.93485 0.79626 0.0
N119 N 0.08249 0.91727 0.79429 0.0
N120 N 0.09056 0.9125 0.85967 0.0
C121 C 0.0774 0.92814 0.90491 0.0
C122 C 0.05929 0.94235 0.86643 0.0
C123 C 0.04869 0.94399 0.73197 0.0
H124 H 0.06261 0.94891 0.68896 0.0
H125 H 0.03612 0.92805 0.71228 0.0
H126 H 0.0365 0.96115 0.74436 0.0
O127 O 0.13672 0.90662 0.72014 0.0
O128 O 0.14934 0.8944 0.82814 0.0
H129 H 0.10218 0.92549 0.99678 0.0
H130 H 0.07666 0.94875 0.0054 0.0
C131 C 0.08164 0.92942 0.98379 0.0
H132 H 0.06891 0.91515 0.01052 0.0
H133 H 0.1588 0.89795 0.97827 0.0
O134 O 0.08675 0.9095 0.6211 0.0
C135 C 0.15453 0.90311 0.76616 0.0
Co136 Co 0.61151 0.39175 0.2274 0.0
Co137 Co 0.61836 0.38581 0.06517 0.0
C138 C 0.66359 0.39844 0.14987 0.0
O139 O 0.64908 0.39735 0.20474 0.0
O140 O 0.65446 0.39484 0.08763 0.0
C141 C 0.62203 0.41865 0.3571 0.0
O142 O 0.64453 0.4241 0.32796 0.0
C143 C 0.62184 0.39432 0.9101 0.0
C144 C 0.58628 0.37337 0.87745 0.0
C145 C 0.6056 0.38963 0.85266 0.0
N146 N 0.61198 0.3819 0.96691 0.0
N147 N 0.5912 0.36887 0.94653 0.0
C148 C 0.64424 0.41279 0.91304 0.0
H149 H 0.64852 0.41855 0.96871 0.0
H150 H 0.64014 0.43031 0.88057 0.0
H151 H 0.66166 0.40316 0.89052 0.0
C152 C 0.56725 0.42378 0.17824 0.0
N153 N 0.58904 0.41011 0.16644 0.0
N154 N 0.59512 0.41146 0.09901 0.0
C155 C 0.57897 0.42819 0.06628 0.0
C156 C 0.55992 0.43628 0.11481 0.0
C157 C 0.55266 0.42188 0.24707 0.0
H158 H 0.55823 0.40397 0.27603 0.0
H159 H 0.55758 0.43874 0.28125 0.0
H160 H 0.53142 0.42142 0.23748 0.0
O161 O 0.60387 0.35476 0.22286 0.0
O162 O 0.60963 0.35089 0.10623 0.0
H163 H 0.57411 0.4266 0.95291 0.0
H164 H 0.57783 0.45912 0.9886 0.0
C165 C 0.58421 0.43865 0.9933 0.0
H166 H 0.60527 0.43817 0.98263 0.0
H167 H 0.57933 0.35834 0.98106 0.0
O168 O 0.60568 0.40468 0.32409 0.0
C169 C 0.60423 0.34099 0.16673 0.0
Co170 Co 0.09673 0.6082 0.75304 0.0
Co171 Co 0.12047 0.61472 0.60074 0.0
C172 C 0.09472 0.65895 0.67657 0.0
O173 O 0.08984 0.64498 0.73073 0.0
O174 O 0.10599 0.6497 0.62176 0.0
C175 C 0.07852 0.61729 0.89277 0.0
O176 O 0.08213 0.64152 0.87365 0.0
C177 C 0.11792 0.62082 0.44646 0.0
C178 C 0.1522 0.59827 0.41233 0.0
C179 C 0.13024 0.61074 0.38698 0.0
N180 N 0.13162 0.61397 0.50439 0.0
N181 N 0.15256 0.6013 0.48352 0.0
C182 C 0.09166 0.63322 0.44938 0.0
H183 H 0.083 0.63097 0.50316 0.0
H184 H 0.07854 0.62472 0.40869 0.0
H185 H 0.09372 0.65421 0.43774 0.0
C186 C 0.06838 0.56551 0.68073 0.0
N187 N 0.08498 0.5857 0.68018 0.0
N188 N 0.09557 0.58773 0.61656 0.0
C189 C 0.08631 0.56847 0.57492 0.0
C190 C 0.06879 0.55382 0.61411 0.0
C191 C 0.05381 0.55677 0.74533 0.0
H192 H 0.06785 0.55153 0.78781 0.0
H193 H 0.04183 0.57305 0.76565 0.0
H194 H 0.04124 0.53983 0.73369 0.0
O195 O 0.13442 0.6039 0.76728 0.0
O196 O 0.15177 0.60889 0.66013 0.0
H197 H 0.11512 0.5645 0.49332 0.0
H198 H 0.08624 0.54585 0.47671 0.0
C199 C 0.09373 0.56431 0.49856 0.0
H200 H 0.08539 0.58006 0.46585 0.0
H201 H 0.16601 0.59296 0.51823 0.0
O202 O 0.08155 0.59947 0.84671 0.0
C203 C 0.15416 0.60476 0.72667 0.0
Co204 Co 0.90117 0.10484 0.2539 0.0
Co205 Co 0.88348 0.11727 0.09722 0.0
C206 C 0.84474 0.10361 0.20665 0.0
O207 O 0.86323 0.10208 0.25127 0.0
O208 O 0.84907 0.10885 0.14128 0.0
C209 C 0.89627 0.07861 0.38624 0.0
O210 O 0.88074 0.06314 0.35065 0.0
C211 C 0.86777 0.11217 0.94451 0.0
C212 C 0.8869 0.14706 0.9006 0.0
C213 C 0.87217 0.12575 0.88177 0.0
N214 N 0.8797 0.12488 -0.00195 0.0
N215 N 0.8909 0.14578 0.9712 0.0
C216 C 0.85155 0.08839 0.95399 0.0
H217 H 0.85351 0.08071 0.009 0.0
H218 H 0.85724 0.07334 0.9148 0.0
H219 H 0.83093 0.09334 0.94373 0.0
C220 C 0.93298 0.06528 0.17718 0.0
N221 N 0.91594 0.08513 0.17852 0.0
N222 N 0.90852 0.09043 0.11278 0.0
C223 C 0.92101 0.07434 0.06773 0.0
C224 C 0.93656 0.05773 0.10686 0.0
C225 C 0.94437 0.05307 0.2423 0.0
H226 H 0.92883 0.04272 0.2717 0.0
H227 H 0.96001 0.03916 0.22845 0.0
H228 H 0.95209 0.0684 0.27801 0.0
O229 O 0.91046 0.14203 0.2474 0.0
O230 O 0.8967 0.15013 0.13771 0.0
H231 H 0.91955 0.09562 0.96956 0.0
H232 H 0.93533 0.0646 0.96263 0.0
C233 C 0.91909 0.07526 0.98817 0.0
H234 H 0.90066 0.06612 0.97129 0.0
H235 H 0.90169 0.15904 0.00093 0.0
O236 O 0.91083 0.09404 0.35165 0.0
C237 C 0.9069 0.1576 0.19585 0.0
Co238 Co 0.39467 0.8967 0.74192 0.0
Co239 Co 0.38486 0.87815 0.58476 0.0
C240 C 0.40209 0.8409 0.69455 0.0
O241 O 0.40132 0.85943 0.73893 0.0
O242 O 0.39641 0.84452 0.62917 0.0
C243 C 0.42585 0.89529 0.86481 0.0
O244 O 0.44085 0.88193 0.82173 0.0
C245 C 0.39579 0.86508 0.43394 0.0
C246 C 0.36064 0.88109 0.38287 0.0
C247 C 0.38468 0.87038 0.36765 0.0
N248 N 0.37934 0.87327 0.48497 0.0
N249 N 0.35811 0.88211 0.45398 0.0
C250 C 0.42231 0.85469 0.4495 0.0
H251 H 0.42785 0.85881 0.50557 0.0
H252 H 0.43687 0.86313 0.41269 0.0
H253 H 0.4222 0.83336 0.44167 0.0
C254 C 0.43195 0.93179 0.66841 0.0
N255 N 0.41349 0.91324 0.66795 0.0
N256 N 0.4089 0.90609 0.60158 0.0
C257 C 0.42369 0.92077 0.55797 0.0
C258 C 0.43905 0.93698 0.59871 0.0
C259 C 0.44335 0.94341 0.73433 0.0
H260 H 0.42776 0.94744 0.77356 0.0
H261 H 0.45703 0.92933 0.75855 0.0
H262 H 0.45404 0.96156 0.72203 0.0
O263 O 0.35668 0.90291 0.73318 0.0
O264 O 0.35059 0.88849 0.62288 0.0
H265 H 0.40235 0.91727 0.45998 0.0
H266 H 0.42866 0.94014 0.45714 0.0
C267 C 0.42238 0.92104 0.47833 0.0
H268 H 0.43581 0.90627 0.45675 0.0
H269 H 0.34246 0.89023 0.48126 0.0
O270 O 0.4059 0.90651 0.8393 0.0
C271 C 0.34185 0.89815 0.68048 0.0
H272 H 0.44332 0.98964 0.58394 0.0
H273 H 0.48405 0.91725 0.54991 0.0
H274 H 0.51968 0.94081 0.48972 0.0
H275 H 0.4586 0.01724 0.41618 0.0
H276 H 0.46257 0.04989 0.4487 0.0
H277 H 0.44122 0.0278 0.49435 0.0
H278 H 0.46633 0.03522 0.61232 0.0
H279 H 0.48756 0.05761 0.56724 0.0
H280 H 0.50095 0.03026 0.61437 0.0
H281 H 0.54974 0.97178 0.42896 0.0
H282 H 0.5736 0.00881 0.37641 0.0
H283 H 0.51267 0.06101 0.44522 0.0
C284 C 0.4601 0.97899 0.56521 0.0
C285 C 0.46145 0.95183 0.57236 0.0
C286 C 0.48313 0.93818 0.54564 0.0
C287 C 0.50331 0.95135 0.5112 0.0
C288 C 0.5013 0.97814 0.5036 0.0
C289 C 0.48036 0.99188 0.53016 0.0
C290 C 0.48259 0.02045 0.51237 0.0
C291 C 0.45989 0.02936 0.46508 0.0
C292 C 0.48448 0.03685 0.58065 0.0
C293 C 0.50796 0.02057 0.47157 0.0
C294 C 0.51843 0.99596 0.4672 0.0
C295 C 0.54179 0.99116 0.43218 0.0
C296 C 0.55509 0.01219 0.40213 0.0
C297 C 0.54495 0.03758 0.40732 0.0
C298 C 0.5209 0.04174 0.44136 0.0
H299 H 0.53526 0.44783 0.98522 0.0
H300 H 0.5317 0.46565 0.21177 0.0
H301 H 0.49209 0.4904 0.19127 0.0
H302 H 0.52625 0.51599 0.9483 0.0
H303 H 0.51059 0.51026 0.8638 0.0
H304 H 0.53412 0.48748 0.89709 0.0
H305 H 0.50013 0.45073 0.88529 0.0
H306 H 0.47628 0.47356 0.85359 0.0
H307 H 0.46937 0.45369 0.93031 0.0
H308 H 0.45038 0.51008 0.14526 0.0
H309 H 0.4212 0.53933 0.08071 0.0
H310 H 0.4647 0.52599 0.88582 0.0
C311 C 0.52703 0.45726 0.03113 0.0
C312 C 0.53671 0.45324 0.10122 0.0
C313 C 0.52407 0.46611 0.15837 0.0
C314 C 0.50155 0.48075 0.14712 0.0
C315 C 0.4928 0.48407 0.07763 0.0
C316 C 0.50611 0.4741 0.02029 0.0
C317 C 0.49638 0.48569 0.95075 0.0
C318 C 0.51812 0.50076 0.91276 0.0
C319 C 0.48486 0.46465 0.90213 0.0
C320 C 0.47542 0.50372 0.97849 0.0
C321 C 0.47277 0.50109 0.05137 0.0
C322 C 0.45316 0.51344 0.08883 0.0
C323 C 0.43695 0.53039 0.05167 0.0
C324 C 0.44183 0.53676 0.97929 0.0
C325 C 0.46068 0.52228 0.9414 0.0
H326 H 0.94449 0.47977 0.46487 0.0
H327 H 0.99746 0.42449 0.36999 0.0
H328 H 0.0345 0.44639 0.42933 0.0
H329 H 0.98606 0.53527 0.44348 0.0
H330 H 0.97614 0.55019 0.52598 0.0
H331 H 0.95408 0.52927 0.47877 0.0
H332 H 0.94902 0.50107 0.59229 0.0
H333 H 0.97143 0.52169 0.6395 0.0
H334 H 0.97745 0.48732 0.6336 0.0
H335 H 0.06531 0.47378 0.50058 0.0
H336 H 0.0889 0.50869 0.56376 0.0
H337 H 0.01617 0.54785 0.60628 0.0
C338 C 0.96397 0.4725 0.4565 0.0
C339 C 0.96844 0.45067 0.41298 0.0
C340 C 0.99395 0.44141 0.40283 0.0
C341 C 0.01495 0.45355 0.43677 0.0
C342 C 0.00995 0.47496 0.48011 0.0
C343 C 0.98515 0.48464 0.48907 0.0
C344 C 0.98524 0.50881 0.53501 0.0
C345 C 0.97477 0.53227 0.4933 0.0
C346 C 0.96987 0.50445 0.60421 0.0
C347 C 0.01401 0.5114 0.54988 0.0
C348 C 0.02783 0.49135 0.51893 0.0
C349 C 0.05471 0.48962 0.52471 0.0
C350 C 0.06791 0.50943 0.56072 0.0
C351 C 0.05427 0.53089 0.58898 0.0
C352 C 0.02695 0.53152 0.5853 0.0
H353 H 0.98925 0.05134 0.1013 0.0
H354 H 0.91631 0.01541 0.04308 0.0
H355 H 0.93991 0.98159 0.97572 0.0
H356 H 0.01963 0.04275 0.93559 0.0
H357 H 0.05149 0.03592 0.97052 0.0
H358 H 0.0293 0.0557 0.02083 0.0
H359 H 0.03353 0.0248 0.12912 0.0
H360 H 0.05609 0.00512 0.07953 0.0
H361 H 0.02743 0.99064 0.11751 0.0
H362 H 0.97101 0.95372 0.90809 0.0
H363 H 0.00815 0.93158 0.8507 0.0
H364 H 0.06098 0.98644 0.94852 0.0
C365 C 0.97845 0.03584 0.07607 0.0
C366 C 0.9511 0.03548 0.07807 0.0
C367 C 0.93733 0.01556 0.04276 0.0
C368 C 0.95055 0.99642 0.00421 0.0
C369 C 0.97752 0.99762 0.00141 0.0
C370 C 0.99139 0.01664 0.03687 0.0
C371 C 0.0202 0.01418 0.02217 0.0
C372 C 0.03076 0.03859 0.98506 0.0
C373 C 0.0352 0.00833 0.09119 0.0
C374 C 0.0203 0.99105 0.97233 0.0
C375 C 0.99547 0.98176 0.96125 0.0
C376 C 0.99056 0.9607 0.9167 0.0
C377 C 0.01168 0.9484 0.88391 0.0
C378 C 0.03727 0.95726 0.8958 0.0
C379 C 0.04157 0.9791 0.93957 0.0
H380 H 0.59893 0.20302 0.35683 0.0
H381 H 0.58456 0.1698 0.14767 0.0
H382 H 0.58155 0.21365 0.09662 0.0
H383 H 0.55617 0.2605 0.33453 0.0
H384 H 0.57817 0.28131 0.38258 0.0
H385 H 0.57624 0.24733 0.40442 0.0
H386 H 0.62578 0.24288 0.38429 0.0
H387 H 0.62784 0.27672 0.36184 0.0
H388 H 0.63953 0.25263 0.30009 0.0
H389 H 0.585 0.26052 0.0655 0.0
H390 H 0.59254 0.3077 0.05775 0.0
H391 H 0.60387 0.31073 0.28698 0.0
C392 C 0.59455 0.20495 0.30062 0.0
C393 C 0.59196 0.18291 0.25639 0.0
C394 C 0.58661 0.18634 0.18282 0.0
C395 C 0.58482 0.21119 0.15321 0.0
C396 C 0.58819 0.23247 0.19786 0.0
C397 C 0.59266 0.22966 0.27011 0.0
C398 C 0.5971 0.25571 0.3054 0.0
C399 C 0.57564 0.26155 0.35995 0.0
C400 C 0.62417 0.25705 0.33991 0.0
C401 C 0.59518 0.27347 0.24133 0.0
C402 C 0.58988 0.25968 0.17991 0.0
C403 C 0.58876 0.27162 0.11336 0.0
C404 C 0.5932 0.29839 0.10946 0.0
C405 C 0.59866 0.31292 0.17177 0.0
C406 C 0.5994 0.30023 0.23852 0.0
H407 H 0.20142 0.60492 0.6579 0.0
H408 H 0.16616 0.5984 0.86754 0.0
H409 H 0.20953 0.59619 0.922 0.0
H410 H 0.25612 0.5612 0.69316 0.0
H411 H 0.2786 0.58038 0.64183 0.0
H412 H 0.24469 0.57992 0.61833 0.0
H413 H 0.24313 0.63002 0.62759 0.0
H414 H 0.27697 0.63064 0.65131 0.0
H415 H 0.25333 0.64556 0.70901 0.0
H416 H 0.25612 0.59804 0.95499 0.0
H417 H 0.30361 0.60211 0.96432 0.0
H418 H 0.3093 0.60616 0.73364 0.0
C419 C 0.2028 0.60274 0.71518 0.0
C420 C 0.18031 0.60185 0.75836 0.0
C421 C 0.18302 0.59909 0.83319 0.0
C422 C 0.2076 0.5978 0.86474 0.0
C423 C 0.22931 0.59908 0.82081 0.0
C424 C 0.22722 0.60129 0.74766 0.0
C425 C 0.25375 0.60304 0.71306 0.0
C426 C 0.25857 0.57974 0.66368 0.0
C427 C 0.25697 0.62885 0.6729 0.0
C428 C 0.27101 0.60195 0.77842 0.0
C429 C 0.25644 0.59964 0.83992 0.0
C430 C 0.26778 0.59955 0.90722 0.0
C431 C 0.29477 0.60197 0.91194 0.0
C432 C 0.31016 0.60431 0.8497 0.0
C433 C 0.29807 0.60404 0.78207 0.0
H434 H 0.89989 0.18934 0.31147 0.0
H435 H 0.92882 0.18788 0.09452 0.0
H436 H 0.93665 0.23505 0.09975 0.0
H437 H 0.86435 0.2462 0.29148 0.0
H438 H 0.87027 0.25877 0.37965 0.0
H439 H 0.87102 0.22435 0.36423 0.0
H440 H 0.91752 0.22201 0.41625 0.0
H441 H 0.91687 0.25648 0.43224 0.0
H442 H 0.94259 0.24246 0.37978 0.0
H443 H 0.93759 0.28206 0.12328 0.0
H444 H 0.92993 0.32697 0.16117 0.0
H445 H 0.89829 0.29924 0.36191 0.0
C446 C 0.90861 0.19893 0.26604 0.0
C447 C 0.91416 0.18508 0.20291 0.0
C448 C 0.92465 0.19824 0.14342 0.0
C449 C 0.92925 0.22496 0.14605 0.0
C450 C 0.92302 0.23825 0.20835 0.0
C451 C 0.91285 0.22579 0.26731 0.0
C452 C 0.90519 0.24516 0.32447 0.0
C453 C 0.87597 0.24352 0.34088 0.0
C454 C 0.92152 0.2413 0.3922 0.0
C455 C 0.91201 0.27043 0.28755 0.0
C456 C 0.92269 0.26585 0.22119 0.0
C457 C 0.92949 0.28593 0.17541 0.0
C458 C 0.92495 0.31142 0.19749 0.0
C459 C 0.91346 0.31674 0.2646 0.0
C460 C 0.90727 0.29587 0.31057 0.0
H461 H 0.30933 0.8942 0.79645 0.0
H462 H 0.31131 0.91498 0.57245 0.0
H463 H 0.26408 0.92246 0.57418 0.0
H464 H 0.25148 0.85812 0.78569 0.0
H465 H 0.2391 0.86765 0.87165 0.0
H466 H 0.27355 0.86712 0.85606 0.0
H467 H 0.27677 0.91526 0.89445 0.0
H468 H 0.24228 0.91593 0.91028 0.0
H469 H 0.25682 0.93917 0.8507 0.0
H470 H 0.21697 0.92516 0.59697 0.0
H471 H 0.17187 0.92059 0.63734 0.0
H472 H 0.19913 0.89614 0.84607 0.0
C473 C 0.29981 0.90087 0.74835 0.0
C474 C 0.31392 0.90427 0.68443 0.0
C475 C 0.30081 0.91231 0.62192 0.0
C476 C 0.27404 0.91674 0.62248 0.0
C477 C 0.26057 0.91282 0.68585 0.0
C478 C 0.27289 0.90495 0.74764 0.0
C479 C 0.25336 0.89994 0.80661 0.0
C480 C 0.25444 0.87152 0.83143 0.0
C481 C 0.25756 0.9187 0.86921 0.0
C482 C 0.22819 0.90577 0.76775 0.0
C483 C 0.23294 0.91357 0.69854 0.0
C484 C 0.21296 0.91924 0.6512 0.0
C485 C 0.18735 0.91654 0.67476 0.0
C486 C 0.18184 0.90797 0.74497 0.0
C487 C 0.20264 0.90286 0.79225 0.0
H488 H 0.39241 0.79239 0.63591 0.0
H489 H 0.42743 0.83085 0.81816 0.0
H490 H 0.43446 0.78886 0.87574 0.0
H491 H 0.3579 0.74671 0.73205 0.0
H492 H 0.36266 0.71991 0.67177 0.0
H493 H 0.36355 0.75262 0.6386 0.0
H494 H 0.40933 0.7446 0.58606 0.0
H495 H 0.40847 0.71173 0.61869 0.0
H496 H 0.43488 0.73285 0.64319 0.0
H497 H 0.43191 0.74444 0.92238 0.0
H498 H 0.42271 0.69866 0.95128 0.0
H499 H 0.39119 0.68737 0.73896 0.0
C500 C 0.40222 0.79185 0.68692 0.0
C501 C 0.40931 0.815 0.72237 0.0
C502 C 0.42169 0.81349 0.78982 0.0
C503 C 0.4259 0.78966 0.8231 0.0
C504 C 0.4179 0.76732 0.78818 0.0
C505 C 0.40667 0.76801 0.72121 0.0
C506 C 0.39827 0.74105 0.69831 0.0
C507 C 0.36885 0.74003 0.6844 0.0
C508 C 0.41366 0.73203 0.63267 0.0
C509 C 0.40563 0.72551 0.76401 0.0
C510 C 0.41708 0.74109 0.81493 0.0
C511 C 0.42352 0.73183 0.88245 0.0
C512 C 0.41809 0.70589 0.89856 0.0
C513 C 0.40653 0.68949 0.84717 0.0
C514 C 0.40056 0.69938 0.77875 0.0
H515 H 0.80095 0.39302 0.34736 0.0
H516 H 0.83418 0.42319 0.15124 0.0
H517 H 0.79061 0.42778 0.10041 0.0
H518 H 0.75223 0.35564 0.26761 0.0
H519 H 0.7275 0.36236 0.33294 0.0
H520 H 0.76119 0.36355 0.35794 0.0
H521 H 0.75535 0.41065 0.40322 0.0
H522 H 0.72153 0.40953 0.37878 0.0
H523 H 0.74208 0.43486 0.34425 0.0
H524 H 0.74449 0.42469 0.06473 0.0
H525 H 0.69747 0.41713 0.0504 0.0
H526 H 0.69305 0.39083 0.26992 0.0
C527 C 0.79901 0.40108 0.29435 0.0
C528 C 0.82111 0.40764 0.25346 0.0
C529 C 0.81768 0.41791 0.18386 0.0
C530 C 0.79294 0.42066 0.15429 0.0
C531 C 0.77166 0.41338 0.19503 0.0
C532 C 0.77429 0.40415 0.26387 0.0
C533 C 0.74808 0.39682 0.29467 0.0
C534 C 0.74721 0.36787 0.31442 0.0
C535 C 0.74137 0.41399 0.35905 0.0
C536 C 0.73059 0.40272 0.23165 0.0
C537 C 0.74464 0.41228 0.17482 0.0
C538 C 0.73314 0.41763 0.1092 0.0
C539 C 0.70647 0.41315 0.10142 0.0
C540 C 0.69159 0.40362 0.15912 0.0
C541 C 0.70386 0.39854 0.22518 0.0
H542 H 0.09936 0.79982 0.85053 0.0
H543 H 0.07829 0.82951 0.64146 0.0
H544 H 0.07248 0.78517 0.59777 0.0
H545 H 0.13582 0.74694 0.79046 0.0
H546 H 0.1252 0.72451 0.85811 0.0
H547 H 0.12546 0.75876 0.87629 0.0
H548 H 0.07669 0.75699 0.90948 0.0
H549 H 0.07633 0.72265 0.89159 0.0
H550 H 0.05375 0.74376 0.84669 0.0
H551 H 0.07443 0.73822 0.57098 0.0
H552 H 0.08065 0.69067 0.56675 0.0
H553 H 0.09751 0.6904 0.7933 0.0
C554 C 0.09305 0.79698 0.79602 0.0
C555 C 0.08939 0.8183 0.74968 0.0
C556 C 0.08131 0.81366 0.67839 0.0
C557 C 0.07788 0.78846 0.65278 0.0
C558 C 0.08222 0.76792 0.69909 0.0
C559 C 0.08926 0.77179 0.76947 0.0
C560 C 0.09367 0.74608 0.80679 0.0
C561 C 0.1217 0.74396 0.83451 0.0
C562 C 0.07393 0.74214 0.86722 0.0
C563 C 0.08878 0.72739 0.74576 0.0
C564 C 0.0822 0.74044 0.68412 0.0
C565 C 0.07897 0.72765 0.61921 0.0
C566 C 0.08262 0.70072 0.61718 0.0
C567 C 0.08907 0.68694 0.67983 0.0
C568 C 0.09186 0.70044 0.74501 0.0
H569 H 0.79845 0.10254 0.13093 0.0
H570 H 0.83028 0.09765 0.34522 0.0
H571 H 0.78634 0.09479 0.39431 0.0
H572 H 0.74419 0.14178 0.17441 0.0
H573 H 0.72189 0.12572 0.11499 0.0
H574 H 0.75604 0.1261 0.09493 0.0
H575 H 0.75622 0.07593 0.08797 0.0
H576 H 0.72201 0.07541 0.10793 0.0
H577 H 0.74439 0.05731 0.16249 0.0
H578 H 0.73958 0.09607 0.42232 0.0
H579 H 0.69194 0.09892 0.42665 0.0
H580 H 0.68923 0.10066 0.19538 0.0
C581 C 0.79616 0.1006 0.18805 0.0
C582 C 0.81794 0.10037 0.23396 0.0
C583 C 0.81404 0.09786 0.30857 0.0
C584 C 0.78909 0.0962 0.33726 0.0
C585 C 0.7681 0.09678 0.29085 0.0
C586 C 0.77124 0.09866 0.21786 0.0
C587 C 0.74512 0.09932 0.18052 0.0
C588 C 0.74161 0.12475 0.13877 0.0
C589 C 0.74174 0.07557 0.13185 0.0
C590 C 0.72699 0.09804 0.24416 0.0
C591 C 0.74074 0.09663 0.30718 0.0
C592 C 0.72851 0.09677 0.37333 0.0
C593 C 0.70142 0.09844 0.37527 0.0
C594 C 0.68681 0.09967 0.31147 0.0
C595 C 0.69984 0.09925 0.24506 0.0
H596 H 0.61239 0.1423 0.74585 0.0
H597 H 0.61421 0.06701 0.64275 0.0
H598 H 0.61571 0.04567 0.75989 0.0
H599 H 0.65273 0.12729 0.89736 0.0
H600 H 0.63305 0.14583 0.95824 0.0
H601 H 0.63482 0.15504 0.86581 0.0
H602 H 0.58464 0.15248 0.85676 0.0
H603 H 0.58277 0.1431 0.94901 0.0
H604 H 0.56833 0.12288 0.88137 0.0
H605 H 0.61762 0.0326 0.89062 0.0
H606 H 0.61591 0.02938 0.02286 0.0
H607 H 0.60751 0.11293 0.03604 0.0
C608 C 0.61347 0.12134 0.74787 0.0
C609 C 0.61462 0.10645 0.68508 0.0
C610 C 0.61508 0.079 0.6899 0.0
C611 C 0.61548 0.06662 0.75637 0.0
C612 C 0.61466 0.08195 0.81731 0.0
C613 C 0.6133 0.1087 0.8135 0.0
C614 C 0.61083 0.12076 0.88636 0.0
C615 C 0.63426 0.13825 0.9029 0.0
C616 C 0.58511 0.13567 0.89378 0.0
C617 C 0.61099 0.09662 0.93174 0.0
C618 C 0.61358 0.07438 0.89143 0.0
C619 C 0.61528 0.04987 0.92277 0.0
C620 C 0.61429 0.04817 0.99752 0.0
C621 C 0.61104 0.07081 0.039 0.0
C622 C 0.60933 0.09521 0.00544 0.0
H623 H 0.42049 0.64968 0.5701 0.0
H624 H 0.4227 0.56665 0.60558 0.0
H625 H 0.41925 0.55926 0.4759 0.0
H626 H 0.37177 0.64834 0.45207 0.0
H627 H 0.38286 0.67397 0.39431 0.0
H628 H 0.3927 0.67348 0.48615 0.0
H629 H 0.44103 0.67422 0.4488 0.0
H630 H 0.4314 0.67514 0.3564 0.0
H631 H 0.45309 0.65016 0.38747 0.0
H632 H 0.40772 0.56046 0.34949 0.0
H633 H 0.3887 0.56982 0.23215 0.0
H634 H 0.39164 0.65229 0.27703 0.0
C635 C 0.42147 0.63001 0.55007 0.0
C636 C 0.42231 0.60868 0.59714 0.0
C637 C 0.42237 0.58316 0.56986 0.0
C638 C 0.42053 0.57882 0.49644 0.0
C639 C 0.41853 0.60024 0.45145 0.0
C640 C 0.41912 0.62538 0.47698 0.0
C641 C 0.41247 0.64475 0.41894 0.0
C642 C 0.38853 0.66107 0.43911 0.0
C643 C 0.4359 0.66209 0.40189 0.0
C644 C 0.40664 0.62647 0.3579 0.0
C645 C 0.41091 0.60096 0.37755 0.0
C646 C 0.40477 0.58034 0.33296 0.0
C647 C 0.3937 0.58586 0.26681 0.0
C648 C 0.3887 0.61178 0.24602 0.0
C649 C 0.39569 0.63237 0.29148 0.0
H650 H 0.9048 0.38659 0.01991 0.0
H651 H 0.89766 0.47035 0.015 0.0
H652 H 0.88936 0.46846 0.88474 0.0
H653 H 0.93498 0.37745 0.84796 0.0
H654 H 0.91679 0.34838 0.82936 0.0
H655 H 0.92422 0.35701 0.92008 0.0
H656 H 0.87525 0.35505 0.95111 0.0
H657 H 0.8676 0.34684 0.86021 0.0
H658 H 0.85261 0.37464 0.9014 0.0
H659 H 0.88297 0.45673 0.75379 0.0
H660 H 0.8778 0.4368 0.63604 0.0
H661 H 0.8835 0.36036 0.732 0.0
C662 C 0.9021 0.40462 0.99124 0.0
C663 C 0.90243 0.4287 0.02701 0.0
C664 C 0.89785 0.45176 0.98813 0.0
C665 C 0.89304 0.45084 0.91438 0.0
C666 C 0.89233 0.42665 0.88102 0.0
C667 C 0.8966 0.40398 0.91845 0.0
C668 C 0.89338 0.38036 0.87155 0.0
C669 C 0.91886 0.3649 0.86696 0.0
C670 C 0.87087 0.36322 0.89764 0.0
C671 C 0.88691 0.39323 0.80141 0.0
C672 C 0.88658 0.4199 0.80761 0.0
C673 C 0.88255 0.43583 0.7487 0.0
C674 C 0.87911 0.42418 0.68166 0.0
C675 C 0.87908 0.39678 0.67418 0.0
C676 C 0.88283 0.38131 0.73554 0.0
H677 H 0.12607 0.90981 0.20205 0.0
H678 H 0.07971 0.84285 0.14339 0.0
H679 H 0.05849 0.84406 0.26123 0.0
H680 H 0.13817 0.88943 0.37942 0.0
H681 H 0.13727 0.92175 0.41588 0.0
H682 H 0.14691 0.91681 0.32474 0.0
H683 H 0.11109 0.94876 0.28343 0.0
H684 H 0.10112 0.95355 0.37454 0.0
H685 H 0.07786 0.94301 0.30889 0.0
H686 H 0.04332 0.8519 0.38762 0.0
H687 H 0.03895 0.8624 0.51531 0.0
H688 H 0.09677 0.92306 0.49236 0.0
C689 C 0.11138 0.8954 0.21363 0.0
C690 C 0.10402 0.87672 0.16226 0.0
C691 C 0.08497 0.85805 0.18033 0.0
C692 C 0.07291 0.85848 0.2475 0.0
C693 C 0.0803 0.87753 0.29623 0.0
C694 C 0.09934 0.89545 0.28034 0.0
C695 C 0.10509 0.91283 0.34345 0.0
C696 C 0.13354 0.91002 0.36728 0.0
C697 C 0.09838 0.94122 0.32654 0.0
C698 C 0.08662 0.90161 0.398 0.0
C699 C 0.07218 0.88154 0.36944 0.0
C700 C 0.05444 0.86765 0.4104 0.0
C701 C 0.05202 0.87387 0.48293 0.0
C702 C 0.0675 0.8936 0.51405 0.0
C703 C 0.0845 0.90803 0.47026 0.0
H704 H 0.65613 0.41905 0.46705 0.0
H705 H 0.57556 0.43253 0.41259 0.0
H706 H 0.56462 0.43604 0.54008 0.0
H707 H 0.6442 0.37629 0.59361 0.0
H708 H 0.66967 0.38505 0.65494 0.0
H709 H 0.67324 0.392 0.56179 0.0
H710 H 0.68061 0.44062 0.58985 0.0
H711 H 0.67742 0.43378 0.68373 0.0
H712 H 0.65714 0.45802 0.64265 0.0
H713 H 0.56046 0.42817 0.6673 0.0
H714 H 0.5632 0.40957 0.7879 0.0
H715 H 0.64611 0.39894 0.76209 0.0
C716 C 0.63648 0.42402 0.48233 0.0
C717 C 0.61669 0.42593 0.43089 0.0
C718 C 0.59093 0.43128 0.45186 0.0
C719 C 0.58461 0.43348 0.52397 0.0
C720 C 0.6043 0.43013 0.57402 0.0
C721 C 0.6298 0.42568 0.55431 0.0
C722 C 0.64622 0.41792 0.61778 0.0
C723 C 0.65905 0.39124 0.6063 0.0
C724 C 0.66655 0.43884 0.63449 0.0
C725 C 0.62559 0.41686 0.67498 0.0
C726 C 0.60174 0.42478 0.649 0.0
C727 C 0.57911 0.42261 0.68896 0.0
C728 C 0.5808 0.41175 0.75693 0.0
C729 C 0.60491 0.4031 0.78388 0.0
C730 C 0.62763 0.40614 0.74312 0.0
H731 H 0.0776 0.65072 0.00589 0.0
H732 H 0.07852 0.56881 0.95233 0.0
H733 H 0.08733 0.55815 0.07802 0.0
H734 H 0.12925 0.65017 0.11563 0.0
H735 H 0.11728 0.67286 0.18089 0.0
H736 H 0.10559 0.67429 0.09073 0.0
H737 H 0.05819 0.66954 0.13453 0.0
H738 H 0.06964 0.66866 0.22533 0.0
H739 H 0.04957 0.64278 0.19166 0.0
H740 H 0.10453 0.55684 0.20148 0.0
H741 H 0.12391 0.56471 0.31998 0.0
H742 H 0.11083 0.64725 0.29554 0.0
C743 C 0.07869 0.63049 0.02098 0.0
C744 C 0.07745 0.6106 0.96925 0.0
C745 C 0.07933 0.58438 0.99102 0.0
C746 C 0.08436 0.57812 0.06234 0.0
C747 C 0.08698 0.59828 0.11124 0.0
C748 C 0.08362 0.62392 0.09197 0.0
C749 C 0.08978 0.642 0.15337 0.0
C750 C 0.11178 0.66093 0.13395 0.0
C751 C 0.06533 0.6566 0.17767 0.0
C752 C 0.09844 0.62259 0.20892 0.0
C753 C 0.09646 0.59746 0.18366 0.0
C754 C 0.10558 0.57635 0.22254 0.0
C755 C 0.1168 0.58101 0.28924 0.0
C756 C 0.11869 0.60654 0.31629 0.0
C757 C 0.1092 0.62755 0.27603 0.0
H758 H 0.90163 0.05401 0.51632 0.0
H759 H 0.8713 0.12298 0.41386 0.0
H760 H 0.85569 0.13921 0.52983 0.0
H761 H 0.85059 0.04817 0.65534 0.0
H762 H 0.87323 0.03845 0.72353 0.0
H763 H 0.87943 0.03039 0.63157 0.0
H764 H 0.92424 0.05309 0.63858 0.0
H765 H 0.91827 0.06084 0.7306 0.0
H766 H 0.926 0.08629 0.66828 0.0
H767 H 0.84689 0.14998 0.65507 0.0
H768 H 0.84835 0.15634 0.78538 0.0
H769 H 0.88467 0.08113 0.81046 0.0
C770 C 0.89145 0.07236 0.51876 0.0
C771 C 0.8876 0.08737 0.4568 0.0
C772 C 0.87448 0.11139 0.46126 0.0
C773 C 0.86535 0.12062 0.52663 0.0
C774 C 0.86954 0.10559 0.58713 0.0
C775 C 0.88243 0.08208 0.58421 0.0
C776 C 0.88639 0.07111 0.65852 0.0
C777 C 0.87152 0.04551 0.66776 0.0
C778 C 0.91545 0.06764 0.67495 0.0
C779 C 0.87445 0.09252 0.70337 0.0
C780 C 0.86439 0.11194 0.66074 0.0
C781 C 0.8542 0.13471 0.68916 0.0
C782 C 0.85503 0.13814 0.76308 0.0
C783 C 0.86587 0.1189 0.80764 0.0
C784 C 0.8752 0.09557 0.77763 0.0
H785 H 0.37371 0.90393 0.26035 0.0
H786 H 0.42222 0.83759 0.31067 0.0
H787 H 0.44227 0.84056 0.19133 0.0
H788 H 0.35998 0.88504 0.08409 0.0
H789 H 0.35965 0.91769 0.04985 0.0
H790 H 0.35138 0.91173 0.14149 0.0
H791 H 0.38702 0.94412 0.18147 0.0
H792 H 0.39562 0.94996 0.08978 0.0
H793 H 0.42 0.93938 0.15224 0.0
H794 H 0.45553 0.84988 0.06357 0.0
H795 H 0.45758 0.86148 0.93611 0.0
H796 H 0.39877 0.92048 0.96963 0.0
C797 C 0.38865 0.89001 0.24677 0.0
C798 C 0.39684 0.87093 0.29596 0.0
C799 C 0.41626 0.85301 0.27528 0.0
C800 C 0.42766 0.85446 0.2073 0.0
C801 C 0.4193 0.87382 0.16065 0.0
C802 C 0.40002 0.89109 0.17944 0.0
C803 C 0.393 0.90889 0.11833 0.0
C804 C 0.36431 0.90562 0.0972 0.0
C805 C 0.39929 0.93727 0.13657 0.0
C806 C 0.41096 0.89861 0.06132 0.0
C807 C 0.42631 0.87868 0.08698 0.0
C808 C 0.44371 0.86555 0.04313 0.0
C809 C 0.44482 0.87239 0.97078 0.0
C810 C 0.42835 0.89194 0.94284 0.0
C811 C 0.41174 0.9056 0.98938 0.0
loop_
_geom_bond_atom_site_label_1
_geom_bond_atom_site_label_2
_geom_bond_distance
_geom_bond_site_symmetry_2
_ccdc_geom_bond_type
Co0 O3 1.970 . S
Co0 N17 1.989 . S
Co0 O25 1.967 . S
Co0 O32 1.920 . S
Co1 O4 1.966 . S
Co1 N10 2.022 . S
Co1 N18 1.993 . S
Co1 O26 1.941 . S
C2 O3 1.258 . S
C2 O4 1.263 . S
O3 Co0 1.970 . S
O3 C2 1.258 . S
O4 Co1 1.966 . S
O4 C2 1.263 . S
C5 O6 1.235 . S
C5 O32 1.289 . S
O6 C5 1.235 . S
C7 C9 1.400 . S
C7 N10 1.351 . S
C7 C12 1.501 . S
C8 C9 1.387 . S
C8 N11 1.341 . S
C9 C7 1.400 . S
C9 C8 1.387 . S
N10 Co1 2.022 . S
N10 C7 1.351 . S
N10 N11 1.365 . S
N11 C8 1.341 . S
N11 N10 1.365 . S
N11 H31 0.862 . S
C12 C7 1.501 . S
C12 H13 0.961 . S
C12 H14 0.961 . S
C12 H15 0.960 . S
H13 C12 0.961 . S
H14 C12 0.961 . S
H15 C12 0.960 . S
C16 N17 1.342 . S
C16 C20 1.401 . S
C16 C21 1.499 . S
N17 Co0 1.989 . S
N17 C16 1.342 . S
N17 N18 1.388 . S
N18 Co1 1.993 . S
N18 N17 1.388 . S
N18 C19 1.346 . S
C19 N18 1.346 . S
C19 C20 1.396 . S
C19 C29 1.510 . S
C20 C16 1.401 . S
C20 C19 1.396 . S
C21 C16 1.499 . S
C21 H22 0.959 . S
C21 H23 0.960 . S
C21 H24 0.961 . S
H22 C21 0.959 . S
H23 C21 0.960 . S
H24 C21 0.961 . S
O25 Co0 1.967 . S
O25 C33 1.258 . S
O26 Co1 1.941 . S
O26 C33 1.266 . S
H27 C29 0.959 . S
H28 C29 0.961 . S
C29 C19 1.510 . S
C29 H27 0.959 . S
C29 H28 0.961 . S
C29 H30 0.960 . S
H30 C29 0.960 . S
H31 N11 0.862 . S
O32 Co0 1.920 . S
O32 C5 1.289 . S
C33 O25 1.258 . S
C33 O26 1.266 . S
Co34 O37 1.970 . S
Co34 N51 1.989 . S
Co34 O59 1.967 . S
Co34 O66 1.920 . S
Co35 O38 1.966 . S
Co35 N44 2.022 1_556 S
Co35 N52 1.993 . S
Co35 O60 1.941 . S
C36 O37 1.258 . S
C36 O38 1.263 . S
O37 Co34 1.970 . S
O37 C36 1.258 . S
O38 Co35 1.966 . S
O38 C36 1.263 . S
C39 O40 1.235 . S
C39 O66 1.289 . S
O40 C39 1.235 . S
C41 C43 1.400 . S
C41 N44 1.351 . S
C41 C46 1.501 . S
C42 C43 1.387 . S
C42 N45 1.341 . S
C43 C41 1.400 . S
C43 C42 1.387 . S
N44 Co35 2.022 1_554 S
N44 C41 1.351 . S
N44 N45 1.365 . S
N45 C42 1.341 . S
N45 N44 1.365 . S
N45 H65 0.862 . S
C46 C41 1.501 . S
C46 H47 0.961 . S
C46 H48 0.961 . S
C46 H49 0.960 . S
H47 C46 0.961 . S
H48 C46 0.961 . S
H49 C46 0.960 . S
C50 N51 1.342 . S
C50 C54 1.401 . S
C50 C55 1.499 . S
N51 Co34 1.989 . S
N51 C50 1.342 . S
N51 N52 1.388 . S
N52 Co35 1.993 . S
N52 N51 1.388 . S
N52 C53 1.346 . S
C53 N52 1.346 . S
C53 C54 1.396 . S
C53 C63 1.510 1_556 S
C54 C50 1.401 . S
C54 C53 1.396 . S
C55 C50 1.499 . S
C55 H56 0.959 . S
C55 H57 0.960 . S
C55 H58 0.961 . S
H56 C55 0.959 . S
H57 C55 0.960 . S
H58 C55 0.961 . S
O59 Co34 1.967 . S
O59 C67 1.258 . S
O60 Co35 1.941 . S
O60 C67 1.266 . S
H61 C63 0.959 . S
H62 C63 0.961 . S
C63 C53 1.510 1_554 S
C63 H61 0.959 . S
C63 H62 0.961 . S
C63 H64 0.960 . S
H64 C63 0.960 . S
H65 N45 0.862 . S
O66 Co34 1.920 . S
O66 C39 1.289 . S
C67 O59 1.258 . S
C67 O60 1.266 . S
Co68 O71 1.970 . S
Co68 N85 1.989 . S
Co68 O93 1.967 . S
Co68 O100 1.920 . S
Co69 O72 1.966 . S
Co69 N78 2.022 . S
Co69 N86 1.993 . S
Co69 O94 1.941 . S
C70 O71 1.258 . S
C70 O72 1.263 . S
O71 Co68 1.970 . S
O71 C70 1.258 . S
O72 Co69 1.966 . S
O72 C70 1.263 . S
C73 O74 1.235 . S
C73 O100 1.289 . S
O74 C73 1.235 . S
C75 C77 1.400 . S
C75 N78 1.351 . S
C75 C80 1.501 . S
C76 C77 1.387 . S
C76 N79 1.341 . S
C77 C75 1.400 . S
C77 C76 1.387 . S
N78 Co69 2.022 . S
N78 C75 1.351 . S
N78 N79 1.365 . S
N79 C76 1.341 . S
N79 N78 1.365 . S
N79 H99 0.862 . S
C80 C75 1.501 . S
C80 H81 0.961 . S
C80 H82 0.961 . S
C80 H83 0.960 . S
H81 C80 0.961 . S
H82 C80 0.961 . S
H83 C80 0.960 . S
C84 N85 1.342 . S
C84 C88 1.401 . S
C84 C89 1.499 . S
N85 Co68 1.989 . S
N85 C84 1.342 . S
N85 N86 1.388 . S
N86 Co69 1.993 . S
N86 N85 1.388 . S
N86 C87 1.346 . S
C87 N86 1.346 . S
C87 C88 1.396 . S
C87 C97 1.510 . S
C88 C84 1.401 . S
C88 C87 1.396 . S
C89 C84 1.499 . S
C89 H90 0.959 . S
C89 H91 0.960 . S
C89 H92 0.961 . S
H90 C89 0.959 . S
H91 C89 0.960 . S
H92 C89 0.961 . S
O93 Co68 1.967 . S
O93 C101 1.258 . S
O94 Co69 1.941 . S
O94 C101 1.266 . S
H95 C97 0.959 . S
H96 C97 0.961 . S
C97 C87 1.510 . S
C97 H95 0.959 . S
C97 H96 0.961 . S
C97 H98 0.960 . S
H98 C97 0.960 . S
H99 N79 0.862 . S
O100 Co68 1.920 . S
O100 C73 1.289 . S
C101 O93 1.258 . S
C101 O94 1.266 . S
Co102 O105 1.970 . S
Co102 N119 1.989 . S
Co102 O127 1.967 . S
Co102 O134 1.920 . S
Co103 O106 1.966 . S
Co103 N112 2.022 1_556 S
Co103 N120 1.993 . S
Co103 O128 1.941 . S
C104 O105 1.258 . S
C104 O106 1.263 . S
O105 Co102 1.970 . S
O105 C104 1.258 . S
O106 Co103 1.966 . S
O106 C104 1.263 . S
C107 O108 1.235 . S
C107 O134 1.289 . S
O108 C107 1.235 . S
C109 C111 1.400 . S
C109 N112 1.351 . S
C109 C114 1.501 . S
C110 C111 1.387 . S
C110 N113 1.341 . S
C111 C109 1.400 . S
C111 C110 1.387 . S
N112 Co103 2.022 1_554 S
N112 C109 1.351 . S
N112 N113 1.365 . S
N113 C110 1.341 . S
N113 N112 1.365 . S
N113 H133 0.862 . S
C114 C109 1.501 . S
C114 H115 0.961 . S
C114 H116 0.961 . S
C114 H117 0.960 . S
H115 C114 0.961 . S
H116 C114 0.961 . S
H117 C114 0.960 . S
C118 N119 1.342 . S
C118 C122 1.401 . S
C118 C123 1.499 . S
N119 Co102 1.989 . S
N119 C118 1.342 . S
N119 N120 1.388 . S
N120 Co103 1.993 . S
N120 N119 1.388 . S
N120 C121 1.346 . S
C121 N120 1.346 . S
C121 C122 1.396 . S
C121 C131 1.510 1_556 S
C122 C118 1.401 . S
C122 C121 1.396 . S
C123 C118 1.499 . S
C123 H124 0.959 . S
C123 H125 0.960 . S
C123 H126 0.961 . S
H124 C123 0.959 . S
H125 C123 0.960 . S
H126 C123 0.961 . S
O127 Co102 1.967 . S
O127 C135 1.258 . S
O128 Co103 1.941 . S
O128 C135 1.266 . S
H129 C131 0.959 . S
H130 C131 0.961 . S
C131 C121 1.510 1_554 S
C131 H129 0.959 . S
C131 H130 0.961 . S
C131 H132 0.960 . S
H132 C131 0.960 . S
H133 N113 0.862 . S
O134 Co102 1.920 . S
O134 C107 1.289 . S
C135 O127 1.258 . S
C135 O128 1.266 . S
Co136 O139 1.970 . S
Co136 N153 1.989 . S
Co136 O161 1.967 . S
Co136 O168 1.920 . S
Co137 O140 1.966 . S
Co137 N146 2.022 1_554 S
Co137 N154 1.993 . S
Co137 O162 1.941 . S
C138 O139 1.258 . S
C138 O140 1.263 . S
O139 Co136 1.970 . S
O139 C138 1.258 . S
O140 Co137 1.966 . S
O140 C138 1.263 . S
C141 O142 1.235 . S
C141 O168 1.289 . S
O142 C141 1.235 . S
C143 C145 1.400 . S
C143 N146 1.351 . S
C143 C148 1.501 . S
C144 C145 1.387 . S
C144 N147 1.341 . S
C145 C143 1.400 . S
C145 C144 1.387 . S
N146 Co137 2.022 1_556 S
N146 C143 1.351 . S
N146 N147 1.365 . S
N147 C144 1.341 . S
N147 N146 1.365 . S
N147 H167 0.862 . S
C148 C143 1.501 . S
C148 H149 0.961 . S
C148 H150 0.961 . S
C148 H151 0.960 . S
H149 C148 0.961 . S
H150 C148 0.961 . S
H151 C148 0.960 . S
C152 N153 1.342 . S
C152 C156 1.401 . S
C152 C157 1.499 . S
N153 Co136 1.989 . S
N153 C152 1.342 . S
N153 N154 1.388 . S
N154 Co137 1.993 . S
N154 N153 1.388 . S
N154 C155 1.346 . S
C155 N154 1.346 . S
C155 C156 1.396 . S
C155 C165 1.510 1_554 S
C156 C152 1.401 . S
C156 C155 1.396 . S
C157 C152 1.499 . S
C157 H158 0.959 . S
C157 H159 0.960 . S
C157 H160 0.961 . S
H158 C157 0.959 . S
H159 C157 0.960 . S
H160 C157 0.961 . S
O161 Co136 1.967 . S
O161 C169 1.258 . S
O162 Co137 1.941 . S
O162 C169 1.266 . S
H163 C165 0.959 . S
H164 C165 0.961 . S
C165 C155 1.510 1_556 S
C165 H163 0.959 . S
C165 H164 0.961 . S
C165 H166 0.960 . S
H166 C165 0.960 . S
H167 N147 0.862 . S
O168 Co136 1.920 . S
O168 C141 1.289 . S
C169 O161 1.258 . S
C169 O162 1.266 . S
Co170 O173 1.970 . S
Co170 N187 1.989 . S
Co170 O195 1.967 . S
Co170 O202 1.920 . S
Co171 O174 1.966 . S
Co171 N180 2.022 . S
Co171 N188 1.993 . S
Co171 O196 1.941 . S
C172 O173 1.258 . S
C172 O174 1.263 . S
O173 Co170 1.970 . S
O173 C172 1.258 . S
O174 Co171 1.966 . S
O174 C172 1.263 . S
C175 O176 1.235 . S
C175 O202 1.289 . S
O176 C175 1.235 . S
C177 C179 1.400 . S
C177 N180 1.351 . S
C177 C182 1.501 . S
C178 C179 1.387 . S
C178 N181 1.341 . S
C179 C177 1.400 . S
C179 C178 1.387 . S
N180 Co171 2.022 . S
N180 C177 1.351 . S
N180 N181 1.365 . S
N181 C178 1.341 . S
N181 N180 1.365 . S
N181 H201 0.862 . S
C182 C177 1.501 . S
C182 H183 0.961 . S
C182 H184 0.961 . S
C182 H185 0.960 . S
H183 C182 0.961 . S
H184 C182 0.961 . S
H185 C182 0.960 . S
C186 N187 1.342 . S
C186 C190 1.401 . S
C186 C191 1.499 . S
N187 Co170 1.989 . S
N187 C186 1.342 . S
N187 N188 1.388 . S
N188 Co171 1.993 . S
N188 N187 1.388 . S
N188 C189 1.346 . S
C189 N188 1.346 . S
C189 C190 1.396 . S
C189 C199 1.510 . S
C190 C186 1.401 . S
C190 C189 1.396 . S
C191 C186 1.499 . S
C191 H192 0.959 . S
C191 H193 0.960 . S
C191 H194 0.961 . S
H192 C191 0.959 . S
H193 C191 0.960 . S
H194 C191 0.961 . S
O195 Co170 1.967 . S
O195 C203 1.258 . S
O196 Co171 1.941 . S
O196 C203 1.266 . S
H197 C199 0.959 . S
H198 C199 0.961 . S
C199 C189 1.510 . S
C199 H197 0.959 . S
C199 H198 0.961 . S
C199 H200 0.960 . S
H200 C199 0.960 . S
H201 N181 0.862 . S
O202 Co170 1.920 . S
O202 C175 1.289 . S
C203 O195 1.258 . S
C203 O196 1.266 . S
Co204 O207 1.970 . S
Co204 N221 1.989 . S
Co204 O229 1.967 . S
Co204 O236 1.920 . S
Co205 O208 1.966 . S
Co205 N214 2.022 1_554 S
Co205 N222 1.993 . S
Co205 O230 1.941 . S
C206 O207 1.258 . S
C206 O208 1.263 . S
O207 Co204 1.970 . S
O207 C206 1.258 . S
O208 Co205 1.966 . S
O208 C206 1.263 . S
C209 O210 1.235 . S
C209 O236 1.289 . S
O210 C209 1.235 . S
C211 C213 1.400 . S
C211 N214 1.351 . S
C211 C216 1.501 . S
C212 C213 1.387 . S
C212 N215 1.341 . S
C213 C211 1.400 . S
C213 C212 1.387 . S
N214 Co205 2.022 1_556 S
N214 C211 1.351 . S
N214 N215 1.365 . S
N215 C212 1.341 . S
N215 N214 1.365 . S
N215 H235 0.862 . S
C216 C211 1.501 . S
C216 H217 0.961 . S
C216 H218 0.961 . S
C216 H219 0.960 . S
H217 C216 0.961 . S
H218 C216 0.961 . S
H219 C216 0.960 . S
C220 N221 1.342 . S
C220 C224 1.401 . S
C220 C225 1.499 . S
N221 Co204 1.989 . S
N221 C220 1.342 . S
N221 N222 1.388 . S
N222 Co205 1.993 . S
N222 N221 1.388 . S
N222 C223 1.346 . S
C223 N222 1.346 . S
C223 C224 1.396 . S
C223 C233 1.510 1_554 S
C224 C220 1.401 . S
C224 C223 1.396 . S
C225 C220 1.499 . S
C225 H226 0.959 . S
C225 H227 0.960 . S
C225 H228 0.961 . S
H226 C225 0.959 . S
H227 C225 0.960 . S
H228 C225 0.961 . S
O229 Co204 1.967 . S
O229 C237 1.258 . S
O230 Co205 1.941 . S
O230 C237 1.266 . S
H231 C233 0.959 . S
H232 C233 0.961 . S
C233 C223 1.510 1_556 S
C233 H231 0.959 . S
C233 H232 0.961 . S
C233 H234 0.960 . S
H234 C233 0.960 . S
H235 N215 0.862 . S
O236 Co204 1.920 . S
O236 C209 1.289 . S
C237 O229 1.258 . S
C237 O230 1.266 . S
Co238 O241 1.970 . S
Co238 N255 1.989 . S
Co238 O263 1.967 . S
Co238 O270 1.920 . S
Co239 O242 1.966 . S
Co239 N248 2.022 . S
Co239 N256 1.993 . S
Co239 O264 1.941 . S
C240 O241 1.258 . S
C240 O242 1.263 . S
O241 Co238 1.970 . S
O241 C240 1.258 . S
O242 Co239 1.966 . S
O242 C240 1.263 . S
C243 O244 1.235 . S
C243 O270 1.289 . S
O244 C243 1.235 . S
C245 C247 1.400 . S
C245 N248 1.351 . S
C245 C250 1.501 . S
C246 C247 1.387 . S
C246 N249 1.341 . S
C247 C245 1.400 . S
C247 C246 1.387 . S
N248 Co239 2.022 . S
N248 C245 1.351 . S
N248 N249 1.365 . S
N249 C246 1.341 . S
N249 N248 1.365 . S
N249 H269 0.862 . S
C250 C245 1.501 . S
C250 H251 0.961 . S
C250 H252 0.961 . S
C250 H253 0.960 . S
H251 C250 0.961 . S
H252 C250 0.961 . S
H253 C250 0.960 . S
C254 N255 1.342 . S
C254 C258 1.401 . S
C254 C259 1.499 . S
N255 Co238 1.989 . S
N255 C254 1.342 . S
N255 N256 1.388 . S
N256 Co239 1.993 . S
N256 N255 1.388 . S
N256 C257 1.346 . S
C257 N256 1.346 . S
C257 C258 1.396 . S
C257 C267 1.510 . S
C258 C254 1.401 . S
C258 C257 1.396 . S
C259 C254 1.499 . S
C259 H260 0.959 . S
C259 H261 0.960 . S
C259 H262 0.961 . S
H260 C259 0.959 . S
H261 C259 0.960 . S
H262 C259 0.961 . S
O263 Co238 1.967 . S
O263 C271 1.258 . S
O264 Co239 1.941 . S
O264 C271 1.266 . S
H265 C267 0.959 . S
H266 C267 0.961 . S
C267 C257 1.510 . S
C267 H265 0.959 . S
C267 H266 0.961 . S
C267 H268 0.960 . S
H268 C267 0.960 . S
H269 N249 0.862 . S
O270 Co238 1.920 . S
O270 C243 1.289 . S
C271 O263 1.258 . S
C271 O264 1.266 . S
H272 C284 0.918 1_545 S
H273 C286 0.930 . S
H274 C287 0.930 . S
H275 C291 0.959 . S
H276 C291 0.959 . S
H277 C291 0.961 . S
H278 C292 0.960 . S
H279 C292 0.961 . S
H280 C292 0.959 . S
H281 C295 0.929 1_565 S
H282 C296 0.931 . S
H283 C298 0.930 . S
C284 H272 0.918 1_565 S
C284 C285 1.399 . S
C284 C289 1.399 1_565 S
C285 C284 1.399 . S
C285 C286 1.376 . S
C286 H273 0.930 . S
C286 C285 1.376 . S
C286 C287 1.388 . S
C287 H274 0.930 . S
C287 C286 1.388 . S
C287 C288 1.390 . S
C288 C287 1.390 . S
C288 C289 1.394 1_565 S
C288 C294 1.465 1_565 S
C289 C284 1.399 1_545 S
C289 C288 1.394 1_545 S
C289 C290 1.516 . S
C290 C289 1.516 . S
C290 C291 1.502 . S
C290 C292 1.561 . S
C290 C293 1.526 . S
C291 H275 0.959 . S
C291 H276 0.959 . S
C291 H277 0.961 . S
C291 C290 1.502 . S
C292 H278 0.960 . S
C292 H279 0.961 . S
C292 H280 0.959 . S
C292 C290 1.561 . S
C293 C290 1.526 . S
C293 C294 1.396 . S
C293 C298 1.390 . S
C294 C288 1.465 1_545 S
C294 C293 1.396 . S
C294 C295 1.399 . S
C295 H281 0.929 1_545 S
C295 C294 1.399 . S
C295 C296 1.385 . S
C296 H282 0.931 . S
C296 C295 1.385 . S
C296 C297 1.389 . S
C297 C296 1.389 . S
C297 C298 1.387 . S
C298 H283 0.930 . S
C298 C293 1.390 . S
C298 C297 1.387 . S
H299 C311 0.930 1_556 S
H300 C313 0.930 . S
H301 C314 0.930 . S
H302 C318 0.959 . S
H303 C318 0.959 . S
H304 C318 0.961 . S
H305 C319 0.960 . S
H306 C319 0.961 . S
H307 C319 0.959 . S
H308 C322 0.929 . S
H309 C323 0.931 1_554 S
H310 C325 0.930 . S
C311 H299 0.930 1_554 S
C311 C312 1.399 . S
C311 C316 1.403 . S
C312 C311 1.399 . S
C312 C313 1.376 . S
C313 H300 0.930 . S
C313 C312 1.376 . S
C313 C314 1.388 . S
C314 H301 0.930 . S
C314 C313 1.388 . S
C314 C315 1.390 . S
C315 C314 1.390 . S
C315 C316 1.404 . S
C315 C321 1.465 . S
C316 C311 1.403 . S
C316 C315 1.404 . S
C316 C317 1.503 1_554 S
C317 C316 1.503 1_556 S
C317 C318 1.502 . S
C317 C319 1.561 . S
C317 C320 1.526 . S
C318 H302 0.959 . S
C318 H303 0.959 . S
C318 H304 0.961 . S
C318 C317 1.502 . S
C319 H305 0.960 . S
C319 H306 0.961 . S
C319 H307 0.959 . S
C319 C317 1.561 . S
C320 C317 1.526 . S
C320 C321 1.396 1_556 S
C320 C325 1.390 . S
C321 C315 1.465 . S
C321 C320 1.396 1_554 S
C321 C322 1.399 . S
C322 H308 0.929 . S
C322 C321 1.399 . S
C322 C323 1.385 1_554 S
C323 H309 0.931 1_556 S
C323 C322 1.385 1_556 S
C323 C324 1.389 . S
C324 C323 1.389 . S
C324 C325 1.387 . S
C325 H310 0.930 . S
C325 C320 1.390 . S
C325 C324 1.387 . S
H326 C338 0.930 . S
H327 C340 0.930 . S
H328 C341 0.930 . S
H329 C345 0.959 . S
H330 C345 0.959 . S
H331 C345 0.961 . S
H332 C346 0.975 . S
H333 C346 0.959 1_455 S
H334 C346 0.944 1_455 S
H335 C349 0.929 . S
H336 C350 0.931 . S
H337 C352 0.930 . S
C338 H326 0.930 . S
C338 C339 1.399 . S
C338 C343 1.399 . S
C339 C338 1.399 . S
C339 C340 1.376 . S
C340 H327 0.930 . S
C340 C339 1.376 . S
C340 C341 1.388 1_655 S
C341 H328 0.930 . S
C341 C340 1.388 1_455 S
C341 C342 1.390 . S
C342 C341 1.390 . S
C342 C343 1.394 1_455 S
C342 C348 1.465 . S
C343 C338 1.399 . S
C343 C342 1.394 1_655 S
C343 C344 1.516 . S
C344 C343 1.516 . S
C344 C345 1.502 . S
C344 C346 1.564 . S
C344 C347 1.526 1_655 S
C345 H329 0.959 . S
C345 H330 0.959 . S
C345 H331 0.961 . S
C345 C344 1.502 . S
C346 H332 0.975 . S
C346 H333 0.959 1_655 S
C346 H334 0.944 1_655 S
C346 C344 1.564 . S
C347 C344 1.526 1_455 S
C347 C348 1.396 . S
C347 C352 1.390 . S
C348 C342 1.465 . S
C348 C347 1.396 . S
C348 C349 1.399 . S
C349 H335 0.929 . S
C349 C348 1.399 . S
C349 C350 1.385 . S
C350 H336 0.931 . S
C350 C349 1.385 . S
C350 C351 1.389 . S
C351 C350 1.389 . S
C351 C352 1.387 . S
C352 H337 0.930 . S
C352 C347 1.390 . S
C352 C351 1.387 . S
H353 C365 0.930 . S
H354 C367 0.930 1_556 S
H355 C368 0.930 . S
H356 C372 0.959 . S
H357 C372 0.959 . S
H358 C372 0.961 . S
H359 C373 0.960 . S
H360 C373 0.961 . S
H361 C373 0.959 . S
H362 C376 0.960 1_545 S
H363 C377 0.931 . S
H364 C379 0.930 1_554 S
C365 H353 0.930 . S
C365 C366 1.399 . S
C365 C370 1.399 1_655 S
C366 C365 1.399 . S
C366 C367 1.376 . S
C367 H354 0.930 1_554 S
C367 C366 1.376 . S
C367 C368 1.388 1_554 S
C368 H355 0.930 . S
C368 C367 1.388 1_556 S
C368 C369 1.390 . S
C369 C368 1.390 . S
C369 C370 1.394 1_656 S
C369 C375 1.465 1_655 S
C370 C365 1.399 1_455 S
C370 C369 1.394 1_454 S
C370 C371 1.516 . S
C371 C370 1.516 . S
C371 C372 1.502 . S
C371 C373 1.561 1_545 S
C371 C374 1.524 1_544 S
C372 H356 0.959 . S
C372 H357 0.959 . S
C372 H358 0.961 . S
C372 C371 1.502 . S
C373 H359 0.960 . S
C373 H360 0.961 . S
C373 H361 0.959 . S
C373 C371 1.561 1_565 S
C374 C371 1.524 1_566 S
C374 C375 1.398 1_565 S
C374 C379 1.390 . S
C375 C369 1.465 1_455 S
C375 C374 1.398 1_545 S
C375 C376 1.399 1_545 S
C376 H362 0.960 1_565 S
C376 C375 1.399 1_565 S
C376 C377 1.385 . S
C377 H363 0.931 . S
C377 C376 1.385 . S
C377 C378 1.389 . S
C378 C377 1.389 . S
C378 C379 1.387 . S
C379 H364 0.930 1_556 S
C379 C374 1.390 . S
C379 C378 1.387 . S
H380 C392 0.930 . S
H381 C394 0.930 . S
H382 C395 0.930 . S
H383 C399 0.959 . S
H384 C399 0.959 . S
H385 C399 0.961 . S
H386 C400 0.960 . S
H387 C400 0.961 . S
H388 C400 0.959 . S
H389 C403 0.929 . S
H390 C404 0.931 . S
H391 C406 0.930 . S
C392 H380 0.930 . S
C392 C393 1.399 . S
C392 C397 1.399 . S
C393 C392 1.399 . S
C393 C394 1.376 . S
C394 H381 0.930 . S
C394 C393 1.376 . S
C394 C395 1.388 . S
C395 H382 0.930 . S
C395 C394 1.388 . S
C395 C396 1.390 . S
C396 C395 1.390 . S
C396 C397 1.394 . S
C396 C402 1.465 . S
C397 C392 1.399 . S
C397 C396 1.394 . S
C397 C398 1.516 . S
C398 C397 1.516 . S
C398 C399 1.502 . S
C398 C400 1.561 . S
C398 C401 1.526 . S
C399 H383 0.959 . S
C399 H384 0.959 . S
C399 H385 0.961 . S
C399 C398 1.502 . S
C400 H386 0.960 . S
C400 H387 0.961 . S
C400 H388 0.959 . S
C400 C398 1.561 . S
C401 C398 1.526 . S
C401 C402 1.396 . S
C401 C406 1.390 . S
C402 C396 1.465 . S
C402 C401 1.396 . S
C402 C403 1.399 . S
C403 H389 0.929 . S
C403 C402 1.399 . S
C403 C404 1.385 . S
C404 H390 0.931 . S
C404 C403 1.385 . S
C404 C405 1.389 . S
C405 C404 1.389 . S
C405 C406 1.387 . S
C406 H391 0.930 . S
C406 C401 1.390 . S
C406 C405 1.387 . S
H407 C419 0.930 . S
H408 C421 0.930 . S
H409 C422 0.930 . S
H410 C426 0.959 . S
H411 C426 0.959 . S
H412 C426 0.961 . S
H413 C427 0.960 . S
H414 C427 0.961 . S
H415 C427 0.959 . S
H416 C430 0.929 . S
H417 C431 0.931 . S
H418 C433 0.930 . S
C419 H407 0.930 . S
C419 C420 1.399 . S
C419 C424 1.399 . S
C420 C419 1.399 . S
C420 C421 1.376 . S
C421 H408 0.930 . S
C421 C420 1.376 . S
C421 C422 1.388 . S
C422 H409 0.930 . S
C422 C421 1.388 . S
C422 C423 1.390 . S
C423 C422 1.390 . S
C423 C424 1.394 . S
C423 C429 1.465 . S
C424 C419 1.399 . S
C424 C423 1.394 . S
C424 C425 1.516 . S
C425 C424 1.516 . S
C425 C426 1.502 . S
C425 C427 1.561 . S
C425 C428 1.526 . S
C426 H410 0.959 . S
C426 H411 0.959 . S
C426 H412 0.961 . S
C426 C425 1.502 . S
C427 H413 0.960 . S
C427 H414 0.961 . S
C427 H415 0.959 . S
C427 C425 1.561 . S
C428 C425 1.526 . S
C428 C429 1.396 . S
C428 C433 1.390 . S
C429 C423 1.465 . S
C429 C428 1.396 . S
C429 C430 1.399 . S
C430 H416 0.929 . S
C430 C429 1.399 . S
C430 C431 1.385 . S
C431 H417 0.931 . S
C431 C430 1.385 . S
C431 C432 1.389 . S
C432 C431 1.389 . S
C432 C433 1.387 . S
C433 H418 0.930 . S
C433 C428 1.390 . S
C433 C432 1.387 . S
H434 C446 0.930 . S
H435 C448 0.930 . S
H436 C449 0.930 . S
H437 C453 0.959 . S
H438 C453 0.959 . S
H439 C453 0.961 . S
H440 C454 0.960 . S
H441 C454 0.961 . S
H442 C454 0.959 . S
H443 C457 0.929 . S
H444 C458 0.931 . S
H445 C460 0.930 . S
C446 H434 0.930 . S
C446 C447 1.399 . S
C446 C451 1.399 . S
C447 C446 1.399 . S
C447 C448 1.376 . S
C448 H435 0.930 . S
C448 C447 1.376 . S
C448 C449 1.388 . S
C449 H436 0.930 . S
C449 C448 1.388 . S
C449 C450 1.390 . S
C450 C449 1.390 . S
C450 C451 1.394 . S
C450 C456 1.465 . S
C451 C446 1.399 . S
C451 C450 1.394 . S
C451 C452 1.516 . S
C452 C451 1.516 . S
C452 C453 1.502 . S
C452 C454 1.561 . S
C452 C455 1.526 . S
C453 H437 0.959 . S
C453 H438 0.959 . S
C453 H439 0.961 . S
C453 C452 1.502 . S
C454 H440 0.960 . S
C454 H441 0.961 . S
C454 H442 0.959 . S
C454 C452 1.561 . S
C455 C452 1.526 . S
C455 C456 1.396 . S
C455 C460 1.390 . S
C456 C450 1.465 . S
C456 C455 1.396 . S
C456 C457 1.399 . S
C457 H443 0.929 . S
C457 C456 1.399 . S
C457 C458 1.385 . S
C458 H444 0.931 . S
C458 C457 1.385 . S
C458 C459 1.389 . S
C459 C458 1.389 . S
C459 C460 1.387 . S
C460 H445 0.930 . S
C460 C455 1.390 . S
C460 C459 1.387 . S
H461 C473 0.930 . S
H462 C475 0.930 . S
H463 C476 0.930 . S
H464 C480 0.959 . S
H465 C480 0.959 . S
H466 C480 0.961 . S
H467 C481 0.960 . S
H468 C481 0.961 . S
H469 C481 0.959 . S
H470 C484 0.929 . S
H471 C485 0.931 . S
H472 C487 0.930 . S
C473 H461 0.930 . S
C473 C474 1.399 . S
C473 C478 1.399 . S
C474 C473 1.399 . S
C474 C475 1.376 . S
C475 H462 0.930 . S
C475 C474 1.376 . S
C475 C476 1.388 . S
C476 H463 0.930 . S
C476 C475 1.388 . S
C476 C477 1.390 . S
C477 C476 1.390 . S
C477 C478 1.394 . S
C477 C483 1.465 . S
C478 C473 1.399 . S
C478 C477 1.394 . S
C478 C479 1.516 . S
C479 C478 1.516 . S
C479 C480 1.502 . S
C479 C481 1.561 . S
C479 C482 1.526 . S
C480 H464 0.959 . S
C480 H465 0.959 . S
C480 H466 0.961 . S
C480 C479 1.502 . S
C481 H467 0.960 . S
C481 H468 0.961 . S
C481 H469 0.959 . S
C481 C479 1.561 . S
C482 C479 1.526 . S
C482 C483 1.396 . S
C482 C487 1.390 . S
C483 C477 1.465 . S
C483 C482 1.396 . S
C483 C484 1.399 . S
C484 H470 0.929 . S
C484 C483 1.399 . S
C484 C485 1.385 . S
C485 H471 0.931 . S
C485 C484 1.385 . S
C485 C486 1.389 . S
C486 C485 1.389 . S
C486 C487 1.387 . S
C487 H472 0.930 . S
C487 C482 1.390 . S
C487 C486 1.387 . S
H488 C500 0.930 . S
H489 C502 0.930 . S
H490 C503 0.930 . S
H491 C507 0.959 . S
H492 C507 0.959 . S
H493 C507 0.961 . S
H494 C508 0.960 . S
H495 C508 0.961 . S
H496 C508 0.959 . S
H497 C511 0.929 . S
H498 C512 0.931 . S
H499 C514 0.930 . S
C500 H488 0.930 . S
C500 C501 1.399 . S
C500 C505 1.399 . S
C501 C500 1.399 . S
C501 C502 1.376 . S
C502 H489 0.930 . S
C502 C501 1.376 . S
C502 C503 1.388 . S
C503 H490 0.930 . S
C503 C502 1.388 . S
C503 C504 1.390 . S
C504 C503 1.390 . S
C504 C505 1.394 . S
C504 C510 1.465 . S
C505 C500 1.399 . S
C505 C504 1.394 . S
C505 C506 1.516 . S
C506 C505 1.516 . S
C506 C507 1.502 . S
C506 C508 1.561 . S
C506 C509 1.526 . S
C507 H491 0.959 . S
C507 H492 0.959 . S
C507 H493 0.961 . S
C507 C506 1.502 . S
C508 H494 0.960 . S
C508 H495 0.961 . S
C508 H496 0.959 . S
C508 C506 1.561 . S
C509 C506 1.526 . S
C509 C510 1.396 . S
C509 C514 1.390 . S
C510 C504 1.465 . S
C510 C509 1.396 . S
C510 C511 1.399 . S
C511 H497 0.929 . S
C511 C510 1.399 . S
C511 C512 1.385 . S
C512 H498 0.931 . S
C512 C511 1.385 . S
C512 C513 1.389 . S
C513 C512 1.389 . S
C513 C514 1.387 . S
C514 H499 0.930 . S
C514 C509 1.390 . S
C514 C513 1.387 . S
H515 C527 0.930 . S
H516 C529 0.930 . S
H517 C530 0.930 . S
H518 C534 0.959 . S
H519 C534 0.959 . S
H520 C534 0.961 . S
H521 C535 0.960 . S
H522 C535 0.961 . S
H523 C535 0.959 . S
H524 C538 0.929 . S
H525 C539 0.931 . S
H526 C541 0.930 . S
C527 H515 0.930 . S
C527 C528 1.399 . S
C527 C532 1.399 . S
C528 C527 1.399 . S
C528 C529 1.376 . S
C529 H516 0.930 . S
C529 C528 1.376 . S
C529 C530 1.388 . S
C530 H517 0.930 . S
C530 C529 1.388 . S
C530 C531 1.390 . S
C531 C530 1.390 . S
C531 C532 1.394 . S
C531 C537 1.465 . S
C532 C527 1.399 . S
C532 C531 1.394 . S
C532 C533 1.516 . S
C533 C532 1.516 . S
C533 C534 1.502 . S
C533 C535 1.561 . S
C533 C536 1.526 . S
C534 H518 0.959 . S
C534 H519 0.959 . S
C534 H520 0.961 . S
C534 C533 1.502 . S
C535 H521 0.960 . S
C535 H522 0.961 . S
C535 H523 0.959 . S
C535 C533 1.561 . S
C536 C533 1.526 . S
C536 C537 1.396 . S
C536 C541 1.390 . S
C537 C531 1.465 . S
C537 C536 1.396 . S
C537 C538 1.399 . S
C538 H524 0.929 . S
C538 C537 1.399 . S
C538 C539 1.385 . S
C539 H525 0.931 . S
C539 C538 1.385 . S
C539 C540 1.389 . S
C540 C539 1.389 . S
C540 C541 1.387 . S
C541 H526 0.930 . S
C541 C536 1.390 . S
C541 C540 1.387 . S
H542 C554 0.930 . S
H543 C556 0.930 . S
H544 C557 0.930 . S
H545 C561 0.959 . S
H546 C561 0.959 . S
H547 C561 0.961 . S
H548 C562 0.960 . S
H549 C562 0.961 . S
H550 C562 0.959 . S
H551 C565 0.929 . S
H552 C566 0.931 . S
H553 C568 0.930 . S
C554 H542 0.930 . S
C554 C555 1.399 . S
C554 C559 1.399 . S
C555 C554 1.399 . S
C555 C556 1.376 . S
C556 H543 0.930 . S
C556 C555 1.376 . S
C556 C557 1.388 . S
C557 H544 0.930 . S
C557 C556 1.388 . S
C557 C558 1.390 . S
C558 C557 1.390 . S
C558 C559 1.394 . S
C558 C564 1.465 . S
C559 C554 1.399 . S
C559 C558 1.394 . S
C559 C560 1.516 . S
C560 C559 1.516 . S
C560 C561 1.502 . S
C560 C562 1.561 . S
C560 C563 1.526 . S
C561 H545 0.959 . S
C561 H546 0.959 . S
C561 H547 0.961 . S
C561 C560 1.502 . S
C562 H548 0.960 . S
C562 H549 0.961 . S
C562 H550 0.959 . S
C562 C560 1.561 . S
C563 C560 1.526 . S
C563 C564 1.396 . S
C563 C568 1.390 . S
C564 C558 1.465 . S
C564 C563 1.396 . S
C564 C565 1.399 . S
C565 H551 0.929 . S
C565 C564 1.399 . S
C565 C566 1.385 . S
C566 H552 0.931 . S
C566 C565 1.385 . S
C566 C567 1.389 . S
C567 C566 1.389 . S
C567 C568 1.387 . S
C568 H553 0.930 . S
C568 C563 1.390 . S
C568 C567 1.387 . S
H569 C581 0.930 . S
H570 C583 0.930 . S
H571 C584 0.930 . S
H572 C588 0.959 . S
H573 C588 0.959 . S
H574 C588 0.961 . S
H575 C589 0.960 . S
H576 C589 0.961 . S
H577 C589 0.959 . S
H578 C592 0.929 . S
H579 C593 0.931 . S
H580 C595 0.930 . S
C581 H569 0.930 . S
C581 C582 1.399 . S
C581 C586 1.399 . S
C582 C581 1.399 . S
C582 C583 1.376 . S
C583 H570 0.930 . S
C583 C582 1.376 . S
C583 C584 1.388 . S
C584 H571 0.930 . S
C584 C583 1.388 . S
C584 C585 1.390 . S
C585 C584 1.390 . S
C585 C586 1.394 . S
C585 C591 1.465 . S
C586 C581 1.399 . S
C586 C585 1.394 . S
C586 C587 1.516 . S
C587 C586 1.516 . S
C587 C588 1.502 . S
C587 C589 1.561 . S
C587 C590 1.526 . S
C588 H572 0.959 . S
C588 H573 0.959 . S
C588 H574 0.961 . S
C588 C587 1.502 . S
C589 H575 0.960 . S
C589 H576 0.961 . S
C589 H577 0.959 . S
C589 C587 1.561 . S
C590 C587 1.526 . S
C590 C591 1.396 . S
C590 C595 1.390 . S
C591 C585 1.465 . S
C591 C590 1.396 . S
C591 C592 1.399 . S
C592 H578 0.929 . S
C592 C591 1.399 . S
C592 C593 1.385 . S
C593 H579 0.931 . S
C593 C592 1.385 . S
C593 C594 1.389 . S
C594 C593 1.389 . S
C594 C595 1.387 . S
C595 H580 0.930 . S
C595 C590 1.390 . S
C595 C594 1.387 . S
H596 C608 0.930 . S
H597 C610 0.930 . S
H598 C611 0.930 . S
H599 C615 0.959 . S
H600 C615 0.959 . S
H601 C615 0.961 . S
H602 C616 0.960 . S
H603 C616 0.961 . S
H604 C616 0.959 . S
H605 C619 0.929 . S
H606 C620 0.931 . S
H607 C622 0.930 . S
C608 H596 0.930 . S
C608 C609 1.399 . S
C608 C613 1.399 . S
C609 C608 1.399 . S
C609 C610 1.376 . S
C610 H597 0.930 . S
C610 C609 1.376 . S
C610 C611 1.388 . S
C611 H598 0.930 . S
C611 C610 1.388 . S
C611 C612 1.390 . S
C612 C611 1.390 . S
C612 C613 1.394 . S
C612 C618 1.465 . S
C613 C608 1.399 . S
C613 C612 1.394 . S
C613 C614 1.516 . S
C614 C613 1.516 . S
C614 C615 1.502 . S
C614 C616 1.561 . S
C614 C617 1.526 . S
C615 H599 0.959 . S
C615 H600 0.959 . S
C615 H601 0.961 . S
C615 C614 1.502 . S
C616 H602 0.960 . S
C616 H603 0.961 . S
C616 H604 0.959 . S
C616 C614 1.561 . S
C617 C614 1.526 . S
C617 C618 1.396 . S
C617 C622 1.390 1_556 S
C618 C612 1.465 . S
C618 C617 1.396 . S
C618 C619 1.399 . S
C619 H605 0.929 . S
C619 C618 1.399 . S
C619 C620 1.385 1_556 S
C620 H606 0.931 . S
C620 C619 1.385 1_554 S
C620 C621 1.389 . S
C621 C620 1.389 . S
C621 C622 1.387 . S
C622 H607 0.930 . S
C622 C617 1.390 1_554 S
C622 C621 1.387 . S
H623 C635 0.930 . S
H624 C637 0.930 . S
H625 C638 0.930 . S
H626 C642 0.959 . S
H627 C642 0.959 . S
H628 C642 0.961 . S
H629 C643 0.960 . S
H630 C643 0.961 . S
H631 C643 0.959 . S
H632 C646 0.929 . S
H633 C647 0.931 . S
H634 C649 0.930 . S
C635 H623 0.930 . S
C635 C636 1.399 . S
C635 C640 1.399 . S
C636 C635 1.399 . S
C636 C637 1.376 . S
C637 H624 0.930 . S
C637 C636 1.376 . S
C637 C638 1.388 . S
C638 H625 0.930 . S
C638 C637 1.388 . S
C638 C639 1.390 . S
C639 C638 1.390 . S
C639 C640 1.394 . S
C639 C645 1.465 . S
C640 C635 1.399 . S
C640 C639 1.394 . S
C640 C641 1.516 . S
C641 C640 1.516 . S
C641 C642 1.502 . S
C641 C643 1.561 . S
C641 C644 1.526 . S
C642 H626 0.959 . S
C642 H627 0.959 . S
C642 H628 0.961 . S
C642 C641 1.502 . S
C643 H629 0.960 . S
C643 H630 0.961 . S
C643 H631 0.959 . S
C643 C641 1.561 . S
C644 C641 1.526 . S
C644 C645 1.396 . S
C644 C649 1.390 . S
C645 C639 1.465 . S
C645 C644 1.396 . S
C645 C646 1.399 . S
C646 H632 0.929 . S
C646 C645 1.399 . S
C646 C647 1.385 . S
C647 H633 0.931 . S
C647 C646 1.385 . S
C647 C648 1.389 . S
C648 C647 1.389 . S
C648 C649 1.387 . S
C649 H634 0.930 . S
C649 C644 1.390 . S
C649 C648 1.387 . S
H650 C662 0.930 . S
H651 C664 0.930 . S
H652 C665 0.930 . S
H653 C669 0.959 . S
H654 C669 0.959 . S
H655 C669 0.961 . S
H656 C670 0.960 . S
H657 C670 0.961 . S
H658 C670 0.959 . S
H659 C673 0.929 . S
H660 C674 0.931 . S
H661 C676 0.930 . S
C662 H650 0.930 . S
C662 C663 1.399 . S
C662 C667 1.399 1_554 S
C663 C662 1.399 . S
C663 C664 1.376 . S
C664 H651 0.930 . S
C664 C663 1.376 . S
C664 C665 1.388 1_554 S
C665 H652 0.930 . S
C665 C664 1.388 1_556 S
C665 C666 1.390 . S
C666 C665 1.390 . S
C666 C667 1.394 . S
C666 C672 1.465 . S
C667 C662 1.399 1_556 S
C667 C666 1.394 . S
C667 C668 1.516 . S
C668 C667 1.516 . S
C668 C669 1.502 . S
C668 C670 1.561 . S
C668 C671 1.526 . S
C669 H653 0.959 . S
C669 H654 0.959 . S
C669 H655 0.961 . S
C669 C668 1.502 . S
C670 H656 0.960 . S
C670 H657 0.961 . S
C670 H658 0.959 . S
C670 C668 1.561 . S
C671 C668 1.526 . S
C671 C672 1.396 . S
C671 C676 1.390 . S
C672 C666 1.465 . S
C672 C671 1.396 . S
C672 C673 1.399 . S
C673 H659 0.929 . S
C673 C672 1.399 . S
C673 C674 1.385 . S
C674 H660 0.931 . S
C674 C673 1.385 . S
C674 C675 1.389 . S
C675 C674 1.389 . S
C675 C676 1.387 . S
C676 H661 0.930 . S
C676 C671 1.390 . S
C676 C675 1.387 . S
H677 C689 0.930 . S
H678 C691 0.930 . S
H679 C692 0.930 . S
H680 C696 0.959 . S
H681 C696 0.959 . S
H682 C696 0.961 . S
H683 C697 0.960 . S
H684 C697 0.961 . S
H685 C697 0.959 . S
H686 C700 0.929 . S
H687 C701 0.931 . S
H688 C703 0.930 . S
C689 H677 0.930 . S
C689 C690 1.399 . S
C689 C694 1.399 . S
C690 C689 1.399 . S
C690 C691 1.376 . S
C691 H678 0.930 . S
C691 C690 1.376 . S
C691 C692 1.388 . S
C692 H679 0.930 . S
C692 C691 1.388 . S
C692 C693 1.390 . S
C693 C692 1.390 . S
C693 C694 1.394 . S
C693 C699 1.465 . S
C694 C689 1.399 . S
C694 C693 1.394 . S
C694 C695 1.516 . S
C695 C694 1.516 . S
C695 C696 1.502 . S
C695 C697 1.561 . S
C695 C698 1.526 . S
C696 H680 0.959 . S
C696 H681 0.959 . S
C696 H682 0.961 . S
C696 C695 1.502 . S
C697 H683 0.960 . S
C697 H684 0.961 . S
C697 H685 0.959 . S
C697 C695 1.561 . S
C698 C695 1.526 . S
C698 C699 1.396 . S
C698 C703 1.390 . S
C699 C693 1.465 . S
C699 C698 1.396 . S
C699 C700 1.399 . S
C700 H686 0.929 . S
C700 C699 1.399 . S
C700 C701 1.385 . S
C701 H687 0.931 . S
C701 C700 1.385 . S
C701 C702 1.389 . S
C702 C701 1.389 . S
C702 C703 1.387 . S
C703 H688 0.930 . S
C703 C698 1.390 . S
C703 C702 1.387 . S
H704 C716 0.930 . S
H705 C718 0.930 . S
H706 C719 0.930 . S
H707 C723 0.959 . S
H708 C723 0.959 . S
H709 C723 0.961 . S
H710 C724 0.960 . S
H711 C724 0.961 . S
H712 C724 0.959 . S
H713 C727 0.929 . S
H714 C728 0.931 . S
H715 C730 0.930 . S
C716 H704 0.930 . S
C716 C717 1.399 . S
C716 C721 1.399 . S
C717 C716 1.399 . S
C717 C718 1.376 . S
C718 H705 0.930 . S
C718 C717 1.376 . S
C718 C719 1.388 . S
C719 H706 0.930 . S
C719 C718 1.388 . S
C719 C720 1.390 . S
C720 C719 1.390 . S
C720 C721 1.394 . S
C720 C726 1.465 . S
C721 C716 1.399 . S
C721 C720 1.394 . S
C721 C722 1.516 . S
C722 C721 1.516 . S
C722 C723 1.502 . S
C722 C724 1.561 . S
C722 C725 1.526 . S
C723 H707 0.959 . S
C723 H708 0.959 . S
C723 H709 0.961 . S
C723 C722 1.502 . S
C724 H710 0.960 . S
C724 H711 0.961 . S
C724 H712 0.959 . S
C724 C722 1.561 . S
C725 C722 1.526 . S
C725 C726 1.396 . S
C725 C730 1.390 . S
C726 C720 1.465 . S
C726 C725 1.396 . S
C726 C727 1.399 . S
C727 H713 0.929 . S
C727 C726 1.399 . S
C727 C728 1.385 . S
C728 H714 0.931 . S
C728 C727 1.385 . S
C728 C729 1.389 . S
C729 C728 1.389 . S
C729 C730 1.387 . S
C730 H715 0.930 . S
C730 C725 1.390 . S
C730 C729 1.387 . S
H731 C743 0.930 . S
H732 C745 0.930 . S
H733 C746 0.930 . S
H734 C750 0.959 . S
H735 C750 0.959 . S
H736 C750 0.961 . S
H737 C751 0.960 . S
H738 C751 0.961 . S
H739 C751 0.959 . S
H740 C754 0.929 . S
H741 C755 0.931 . S
H742 C757 0.930 . S
C743 H731 0.930 . S
C743 C744 1.399 . S
C743 C748 1.399 1_556 S
C744 C743 1.399 . S
C744 C745 1.376 . S
C745 H732 0.930 . S
C745 C744 1.376 . S
C745 C746 1.388 1_556 S
C746 H733 0.930 . S
C746 C745 1.388 1_554 S
C746 C747 1.390 . S
C747 C746 1.390 . S
C747 C748 1.394 . S
C747 C753 1.465 . S
C748 C743 1.399 1_554 S
C748 C747 1.394 . S
C748 C749 1.516 . S
C749 C748 1.516 . S
C749 C750 1.502 . S
C749 C751 1.561 . S
C749 C752 1.526 . S
C750 H734 0.959 . S
C750 H735 0.959 . S
C750 H736 0.961 . S
C750 C749 1.502 . S
C751 H737 0.960 . S
C751 H738 0.961 . S
C751 H739 0.959 . S
C751 C749 1.561 . S
C752 C749 1.526 . S
C752 C753 1.396 . S
C752 C757 1.390 . S
C753 C747 1.465 . S
C753 C752 1.396 . S
C753 C754 1.399 . S
C754 H740 0.929 . S
C754 C753 1.399 . S
C754 C755 1.385 . S
C755 H741 0.931 . S
C755 C754 1.385 . S
C755 C756 1.389 . S
C756 C755 1.389 . S
C756 C757 1.387 . S
C757 H742 0.930 . S
C757 C752 1.390 . S
C757 C756 1.387 . S
H758 C770 0.930 . S
H759 C772 0.930 . S
H760 C773 0.930 . S
H761 C777 0.959 . S
H762 C777 0.959 . S
H763 C777 0.961 . S
H764 C778 0.960 . S
H765 C778 0.961 . S
H766 C778 0.959 . S
H767 C781 0.929 . S
H768 C782 0.931 . S
H769 C784 0.930 . S
C770 H758 0.930 . S
C770 C771 1.399 . S
C770 C775 1.399 . S
C771 C770 1.399 . S
C771 C772 1.376 . S
C772 H759 0.930 . S
C772 C771 1.376 . S
C772 C773 1.388 . S
C773 H760 0.930 . S
C773 C772 1.388 . S
C773 C774 1.390 . S
C774 C773 1.390 . S
C774 C775 1.394 . S
C774 C780 1.465 . S
C775 C770 1.399 . S
C775 C774 1.394 . S
C775 C776 1.516 . S
C776 C775 1.516 . S
C776 C777 1.502 . S
C776 C778 1.561 . S
C776 C779 1.526 . S
C777 H761 0.959 . S
C777 H762 0.959 . S
C777 H763 0.961 . S
C777 C776 1.502 . S
C778 H764 0.960 . S
C778 H765 0.961 . S
C778 H766 0.959 . S
C778 C776 1.561 . S
C779 C776 1.526 . S
C779 C780 1.396 . S
C779 C784 1.390 . S
C780 C774 1.465 . S
C780 C779 1.396 . S
C780 C781 1.399 . S
C781 H767 0.929 . S
C781 C780 1.399 . S
C781 C782 1.385 . S
C782 H768 0.931 . S
C782 C781 1.385 . S
C782 C783 1.389 . S
C783 C782 1.389 . S
C783 C784 1.387 . S
C784 H769 0.930 . S
C784 C779 1.390 . S
C784 C783 1.387 . S
H785 C797 0.930 . S
H786 C799 0.930 . S
H787 C800 0.930 . S
H788 C804 0.959 . S
H789 C804 0.959 . S
H790 C804 0.961 . S
H791 C805 0.960 . S
H792 C805 0.961 . S
H793 C805 0.959 . S
H794 C808 0.929 . S
H795 C809 0.931 . S
H796 C811 0.930 . S
C797 H785 0.930 . S
C797 C798 1.399 . S
C797 C802 1.399 . S
C798 C797 1.399 . S
C798 C799 1.376 . S
C799 H786 0.930 . S
C799 C798 1.376 . S
C799 C800 1.388 . S
C800 H787 0.930 . S
C800 C799 1.388 . S
C800 C801 1.390 . S
C801 C800 1.390 . S
C801 C802 1.394 . S
C801 C807 1.465 . S
C802 C797 1.399 . S
C802 C801 1.394 . S
C802 C803 1.516 . S
C803 C802 1.516 . S
C803 C804 1.502 . S
C803 C805 1.561 . S
C803 C806 1.526 . S
C804 H788 0.959 . S
C804 H789 0.959 . S
C804 H790 0.961 . S
C804 C803 1.502 . S
C805 H791 0.960 . S
C805 H792 0.961 . S
C805 H793 0.959 . S
C805 C803 1.561 . S
C806 C803 1.526 . S
C806 C807 1.396 . S
C806 C811 1.390 1_554 S
C807 C801 1.465 . S
C807 C806 1.396 . S
C807 C808 1.399 . S
C808 H794 0.929 . S
C808 C807 1.399 . S
C808 C809 1.385 1_554 S
C809 H795 0.931 . S
C809 C808 1.385 1_556 S
C809 C810 1.389 . S
C810 C809 1.389 . S
C810 C811 1.387 . S
C811 H796 0.930 . S
C811 C806 1.390 1_556 S
C811 C810 1.387 . S
C285 C258 1.539 . S
C297 C20 1.523 . S
C312 C156 1.565 . S
C324 C54 1.523 . S
C339 C88 1.567 . S
C351 C190 1.534 . S
C366 C224 1.517 . S
C378 C122 1.555 . S
C393 C33 1.172 . S
C405 C169 1.178 . S
C420 C203 1.195 . S
C432 C67 1.210 . S
C447 C237 1.197 . S
C459 C101 1.174 . S
C474 C271 1.189 . S
C486 C135 1.171 . S
C501 C240 1.662 . S
C513 C36 1.685 . S
C528 C70 1.658 . S
C540 C138 1.681 . S
C555 C104 1.658 . S
C567 C172 1.688 . S
C582 C206 1.658 . S
C594 C2 1.681 . S
C609 C9 1.102 . S
C621 C5 1.187 . S
C636 C39 1.195 . S
C648 C43 1.082 . S
C663 C73 1.150 . S
C675 C77 1.165 . S
C690 C111 1.172 . S
C702 C107 1.145 . S
C717 C141 1.200 . S
C729 C145 1.046 . S
C744 C175 1.193 . S
C756 C179 1.088 . S
C771 C209 1.188 . S
C783 C213 1.052 . S
C798 C247 1.171 . S
C810 C243 1.146 . S
