# Generated by pormake.
# Topology vmg, (6)-cn, num edge types: 1
# Building blocks:
#     Node 0, Type 0, BuildingBlock: IZENUY_clean_sbu_0, # of connection points: 6
#     Node 1, Type 0, BuildingBlock: IZENUY_clean_sbu_0, # of connection points: 6
#     Node 2, Type 0, BuildingBlock: IZENUY_clean_sbu_0, # of connection points: 6
#     Node 3, Type 0, BuildingBlock: IZENUY_clean_sbu_0, # of connection points: 6
#     Node 4, Type 0, BuildingBlock: IZENUY_clean_sbu_0, # of connection points: 6
#     Node 5, Type 0, BuildingBlock: IZENUY_clean_sbu_0, # of connection points: 6
#     Node 6, Type 0, BuildingBlock: IZENUY_clean_sbu_0, # of connection points: 6
#     Node 7, Type 0, BuildingBlock: IZENUY_clean_sbu_0, # of connection points: 6
#     Edge 8, Type (0, 0), BuildingBlock: AJUNOK_clean_linker_0, # of connection points: 2
#     Edge 9, Type (0, 0), BuildingBlock: AJUNOK_clean_linker_0, # of connection points: 2
#     Edge 10, Type (0, 0), BuildingBlock: AJUNOK_clean_linker_0, # of connection points: 2
#     Edge 11, Type (0, 0), BuildingBlock: AJUNOK_clean_linker_0, # of connection points: 2
#     Edge 12, Type (0, 0), BuildingBlock: AJUNOK_clean_linker_0, # of connection points: 2
#     Edge 13, Type (0, 0), BuildingBlock: AJUNOK_clean_linker_0, # of connection points: 2
#     Edge 14, Type (0, 0), BuildingBlock: AJUNOK_clean_linker_0, # of connection points: 2
#     Edge 15, Type (0, 0), BuildingBlock: AJUNOK_clean_linker_0, # of connection points: 2
#     Edge 16, Type (0, 0), BuildingBlock: AJUNOK_clean_linker_0, # of connection points: 2
#     Edge 17, Type (0, 0), BuildingBlock: AJUNOK_clean_linker_0, # of connection points: 2
#     Edge 18, Type (0, 0), BuildingBlock: AJUNOK_clean_linker_0, # of connection points: 2
#     Edge 19, Type (0, 0), BuildingBlock: AJUNOK_clean_linker_0, # of connection points: 2
#     Edge 20, Type (0, 0), BuildingBlock: AJUNOK_clean_linker_0, # of connection points: 2
#     Edge 21, Type (0, 0), BuildingBlock: AJUNOK_clean_linker_0, # of connection points: 2
#     Edge 22, Type (0, 0), BuildingBlock: AJUNOK_clean_linker_0, # of connection points: 2
#     Edge 23, Type (0, 0), BuildingBlock: AJUNOK_clean_linker_0, # of connection points: 2
#     Edge 24, Type (0, 0), BuildingBlock: AJUNOK_clean_linker_0, # of connection points: 2
#     Edge 25, Type (0, 0), BuildingBlock: AJUNOK_clean_linker_0, # of connection points: 2
#     Edge 26, Type (0, 0), BuildingBlock: AJUNOK_clean_linker_0, # of connection points: 2
#     Edge 27, Type (0, 0), BuildingBlock: AJUNOK_clean_linker_0, # of connection points: 2
#     Edge 28, Type (0, 0), BuildingBlock: AJUNOK_clean_linker_0, # of connection points: 2
#     Edge 29, Type (0, 0), BuildingBlock: AJUNOK_clean_linker_0, # of connection points: 2
#     Edge 30, Type (0, 0), BuildingBlock: AJUNOK_clean_linker_0, # of connection points: 2
#     Edge 31, Type (0, 0), BuildingBlock: AJUNOK_clean_linker_0, # of connection points: 2
# Relax obj value: 0.254
# Max RMSD: 0.238
# Mean RMSD: 0.238
data_MOF--net-vmg--node1-IZENUY_clean_sbu_0--edge1-AJUNOK_clean_linker_0
_symmetry_space_group_name_H-M    P1
_symmetry_Int_Tables_number       1
_symmetry_cell_setting            triclinic
loop_
_symmetry_equiv_pos_as_xyz
'x, y, z'
_cell_length_a     20.735726
_cell_length_b     33.098161
_cell_length_c     19.622458
_cell_angle_alpha  90.012893
_cell_angle_beta   99.471085
_cell_angle_gamma 90.01564
loop_
_atom_site_label
_atom_site_type_symbol
_atom_site_fract_x
_atom_site_fract_y
_atom_site_fract_z
_atom_type_partial_charge
Fe0 Fe 0.2654 0.39052 0.21754 0.0
Fe1 Fe 0.17085 0.41002 0.08573 0.0
O2 O 0.23372 0.42488 0.15208 0.0
Fe3 Fe 0.26259 0.47513 0.15333 0.0
O4 O 0.23465 0.48446 0.23262 0.0
O5 O 0.27775 0.4301 0.28713 0.0
O6 O 0.18621 0.38265 0.24229 0.0
C7 C 0.13482 0.37236 0.20307 0.0
C8 C 0.37755 0.42969 0.20533 0.0
O9 O 0.13281 0.37306 0.13806 0.0
C10 C 0.25035 0.46321 0.01785 0.0
O11 O 0.25716 0.34584 0.15711 0.0
O12 O 0.22144 0.37289 0.0553 0.0
O13 O 0.34634 0.46287 0.19798 0.0
O14 O 0.34697 0.39671 0.19863 0.0
C15 C 0.12589 0.48336 0.10695 0.0
O16 O 0.1967 0.44485 0.02064 0.0
O17 O 0.29106 0.46803 0.07228 0.0
C18 C 0.24867 0.34428 0.09083 0.0
O19 O 0.1176 0.44635 0.1144 0.0
O20 O 0.18362 0.49701 0.11008 0.0
C21 C 0.25139 0.46504 0.28749 0.0
Fe22 Fe 0.7706 0.47409 0.38103 0.0
Fe23 Fe 0.76754 0.39068 0.3127 0.0
O24 O 0.79896 0.42386 0.38015 0.0
Fe25 Fe 0.86094 0.40763 0.44641 0.0
O26 O 0.9154 0.44424 0.42074 0.0
O27 O 0.84981 0.49517 0.42551 0.0
O28 O 0.79881 0.48474 0.30214 0.0
C29 C 0.78145 0.46638 0.24626 0.0
C30 C 0.78213 0.46046 0.51599 0.0
O31 O 0.75514 0.43138 0.24513 0.0
C32 C 0.78354 0.34167 0.43646 0.0
O33 O 0.68676 0.4624 0.33574 0.0
O34 O 0.68587 0.39621 0.33155 0.0
O35 O 0.83525 0.44156 0.51299 0.0
O36 O 0.74171 0.46581 0.46155 0.0
C37 C 0.89811 0.37279 0.32739 0.0
O38 O 0.77564 0.34481 0.37039 0.0
O39 O 0.80907 0.37003 0.47404 0.0
C40 C 0.65542 0.42926 0.32692 0.0
O41 O 0.84701 0.38377 0.28827 0.0
O42 O 0.89893 0.37155 0.39225 0.0
C43 C 0.90743 0.48121 0.42911 0.0
Fe44 Fe 0.77177 0.56331 0.8794 0.0
Fe45 Fe 0.76847 0.64724 0.81268 0.0
O46 O 0.79987 0.6137 0.87966 0.0
Fe47 Fe 0.86172 0.62986 0.94623 0.0
O48 O 0.91704 0.59333 0.92086 0.0
O49 O 0.85077 0.54237 0.92308 0.0
O50 O 0.8001 0.55345 0.79987 0.0
C51 C 0.78168 0.57209 0.7445 0.0
C52 C 0.78393 0.57629 1.01527 0.0
O53 O 0.75564 0.60705 0.74455 0.0
C54 C 0.78405 0.69566 0.93689 0.0
O55 O 0.68769 0.5752 0.83467 0.0
O56 O 0.68677 0.64146 0.83145 0.0
O57 O 0.83618 0.59584 1.01183 0.0
O58 O 0.74328 0.57021 0.96096 0.0
C59 C 0.89904 0.66511 0.82828 0.0
O60 O 0.77659 0.6928 0.87085 0.0
O61 O 0.80941 0.66716 0.97417 0.0
C62 C 0.65633 0.60837 0.82612 0.0
O63 O 0.84819 0.65434 0.78844 0.0
O64 O 0.89915 0.66629 0.89289 0.0
C65 C 0.90852 0.5563 0.92895 0.0
Fe66 Fe 0.267 0.64717 0.71794 0.0
Fe67 Fe 0.17069 0.6289 0.58665 0.0
O68 O 0.23415 0.61331 0.65212 0.0
Fe69 Fe 0.26259 0.56299 0.65257 0.0
O70 O 0.23553 0.55347 0.73278 0.0
O71 O 0.28083 0.60738 0.78661 0.0
O72 O 0.18843 0.65454 0.74407 0.0
C73 C 0.13652 0.66502 0.7059 0.0
C74 C 0.37847 0.60818 0.70327 0.0
O75 O 0.13358 0.6652 0.64078 0.0
C76 C 0.24821 0.57551 0.51667 0.0
O77 O 0.25775 0.69226 0.65921 0.0
O78 O 0.22118 0.66662 0.55664 0.0
O79 O 0.34701 0.57503 0.69604 0.0
O80 O 0.34799 0.64121 0.69725 0.0
C81 C 0.12561 0.55508 0.60548 0.0
O82 O 0.1958 0.59482 0.52069 0.0
O83 O 0.28971 0.56989 0.57045 0.0
C84 C 0.24815 0.695 0.59316 0.0
O85 O 0.11681 0.59203 0.61385 0.0
O86 O 0.18347 0.54155 0.61022 0.0
C87 C 0.25432 0.5726 0.78761 0.0
Fe88 Fe 0.76628 0.88979 0.21822 0.0
Fe89 Fe 0.67198 0.91043 0.08688 0.0
O90 O 0.73454 0.92486 0.15393 0.0
Fe91 Fe 0.76281 0.97528 0.15742 0.0
O92 O 0.73447 0.98322 0.23721 0.0
O93 O 0.77849 0.92842 0.28929 0.0
O94 O 0.68705 0.88165 0.24235 0.0
C95 C 0.63545 0.87214 0.20271 0.0
C96 C 0.87815 0.92958 0.20767 0.0
O97 O 0.63416 0.8727 0.13786 0.0
C98 C 0.75101 0.9651 0.02134 0.0
O99 O 0.75813 0.84574 0.15648 0.0
O100 O 0.72308 0.87384 0.05552 0.0
O101 O 0.84665 0.96271 0.20169 0.0
O102 O 0.84786 0.89651 0.19966 0.0
C103 C 0.62611 0.98331 0.1106 0.0
O104 O 0.69773 0.94617 0.02332 0.0
O105 O 0.79154 0.96979 0.07603 0.0
C106 C 0.74944 0.84464 0.09018 0.0
O107 O 0.61808 0.94613 0.11625 0.0
O108 O 0.68374 0.99731 0.11481 0.0
C109 C 0.75133 0.96299 0.29121 0.0
Fe110 Fe 0.27023 0.97492 0.38313 0.0
Fe111 Fe 0.26819 0.89111 0.31535 0.0
O112 O 0.30036 0.92499 0.38162 0.0
Fe113 Fe 0.36495 0.91005 0.44616 0.0
O114 O 0.41665 0.94789 0.418 0.0
O115 O 0.34879 0.9971 0.42566 0.0
O116 O 0.29614 0.98584 0.30332 0.0
C117 C 0.27972 0.9669 0.24784 0.0
C118 C 0.28625 0.96105 0.5185 0.0
O119 O 0.25476 0.93148 0.24713 0.0
C120 C 0.28822 0.84351 0.44086 0.0
O121 O 0.18639 0.96251 0.33953 0.0
O122 O 0.18677 0.89644 0.33536 0.0
O123 O 0.33956 0.9432 0.51309 0.0
O124 O 0.24393 0.96639 0.46528 0.0
C125 C 0.3991 0.87377 0.32704 0.0
O126 O 0.27739 0.84578 0.37456 0.0
O127 O 0.31634 0.87186 0.47632 0.0
C128 C 0.15571 0.92924 0.33059 0.0
O129 O 0.34698 0.88389 0.28891 0.0
O130 O 0.40254 0.87427 0.39207 0.0
C131 C 0.40705 0.98446 0.42919 0.0
Fe132 Fe 0.27185 0.06338 0.88287 0.0
Fe133 Fe 0.26783 0.14677 0.81365 0.0
O134 O 0.29934 0.1138 0.88179 0.0
Fe135 Fe 0.36095 0.13045 0.94834 0.0
O136 O 0.41684 0.09382 0.92427 0.0
O137 O 0.35083 0.04291 0.92761 0.0
O138 O 0.30066 0.05297 0.80412 0.0
C139 C 0.28347 0.07124 0.74814 0.0
C140 C 0.28293 0.07732 0.01805 0.0
O141 O 0.25669 0.10604 0.74652 0.0
C142 C 0.28214 0.1958 0.93716 0.0
O143 O 0.18824 0.0745 0.83737 0.0
O144 O 0.18505 0.14071 0.83061 0.0
O145 O 0.33522 0.09685 1.01459 0.0
O146 O 0.24258 0.07107 0.96368 0.0
C147 C 0.39889 0.16497 0.83001 0.0
O148 O 0.27469 0.19265 0.87113 0.0
O149 O 0.30814 0.16774 0.97504 0.0
C150 C 0.15579 0.10713 0.82709 0.0
O151 O 0.34804 0.15413 0.79016 0.0
O152 O 0.39862 0.16657 0.89454 0.0
C153 C 0.40853 0.05689 0.93341 0.0
Fe154 Fe 0.76834 0.14795 0.71872 0.0
Fe155 Fe 0.66943 0.12823 0.58985 0.0
O156 O 0.73326 0.11316 0.65516 0.0
Fe157 Fe 0.75888 0.06224 0.65842 0.0
O158 O 0.73216 0.05557 0.73957 0.0
O159 O 0.78126 0.10951 0.78971 0.0
O160 O 0.69028 0.15734 0.74552 0.0
C161 C 0.63772 0.16694 0.70753 0.0
C162 C 0.8775 0.10582 0.70567 0.0
O163 O 0.63449 0.1664 0.64239 0.0
C164 C 0.74398 0.07178 0.52179 0.0
O165 O 0.76008 0.19184 0.65686 0.0
O166 O 0.72044 0.16423 0.55657 0.0
O167 O 0.84378 0.07354 0.70032 0.0
O168 O 0.84936 0.13973 0.69805 0.0
C169 C 0.62161 0.05602 0.61407 0.0
O170 O 0.69228 0.09206 0.52521 0.0
O171 O 0.78553 0.06641 0.57561 0.0
C172 C 0.74918 0.19299 0.59056 0.0
O173 O 0.61522 0.09324 0.62097 0.0
O174 O 0.67861 0.0413 0.61791 0.0
C175 C 0.75305 0.07543 0.7931 0.0
C176 C 0.54987 0.46535 0.28129 0.0
C177 C 0.58396 0.42897 0.29873 0.0
C178 C 0.48376 0.46542 0.2498 0.0
C179 C 0.44891 0.42911 0.23406 0.0
H180 H 0.57449 0.49412 0.29144 0.0
H181 H 0.4598 0.49425 0.23807 0.0
S182 S 0.51521 0.32534 0.26951 0.0
N183 N 0.57693 0.35547 0.29855 0.0
N184 N 0.4542 0.35557 0.23863 0.0
C185 C 0.48256 0.39249 0.25116 0.0
C186 C 0.54946 0.39243 0.28373 0.0
C187 C 0.55059 0.57234 0.78014 0.0
C188 C 0.58491 0.6087 0.79731 0.0
C189 C 0.48452 0.57231 0.74837 0.0
C190 C 0.44993 0.60864 0.73192 0.0
H191 H 0.57497 0.54356 0.79084 0.0
H192 H 0.46035 0.5435 0.73708 0.0
S193 S 0.517 0.71239 0.76577 0.0
N194 N 0.57839 0.68223 0.79569 0.0
N195 N 0.45586 0.68217 0.73515 0.0
C196 C 0.48387 0.64524 0.74851 0.0
C197 C 0.55069 0.64526 0.78144 0.0
C198 C 0.04969 0.96513 0.2865 0.0
C199 C 0.08431 0.92872 0.30208 0.0
C200 C 0.98372 0.96525 0.25466 0.0
C201 C 0.94946 0.92899 0.23665 0.0
H202 H 0.0738 0.9939 0.29844 0.0
H203 H 0.95938 0.99409 0.24449 0.0
S204 S 1.01734 0.82517 0.26616 0.0
N205 N 0.07852 0.85523 0.29735 0.0
N206 N 0.95591 0.85545 0.23684 0.0
C207 C 0.98363 0.89234 0.25178 0.0
C208 C 0.05046 0.89221 0.2847 0.0
C209 C 0.05216 0.14094 0.77014 0.0
C210 C 0.08431 0.10578 0.79858 0.0
C211 C 0.98622 0.14031 0.73879 0.0
C212 C 0.94894 0.10452 0.73433 0.0
H213 H 0.07822 0.16936 0.77129 0.0
H214 H 0.96429 0.16837 0.71813 0.0
S215 S 1.00872 1.00419 0.80293 0.0
N216 N 0.07292 0.03411 0.82145 0.0
N217 N 0.94926 0.0329 0.76283 0.0
C218 C 0.9803 0.06907 0.76282 0.0
C219 C 0.04765 0.06973 0.79487 0.0
C220 C 0.26453 0.26889 0.08373 0.0
C221 C 0.26075 0.30693 0.05185 0.0
C222 C 0.26916 0.2334 0.04542 0.0
C223 C 0.27042 0.23418 0.97342 0.0
H224 H 0.26262 0.26636 0.13839 0.0
H225 H 0.27193 0.20491 0.07293 0.0
S226 S 0.26506 0.32628 0.86539 0.0
N227 N 0.26091 0.34335 0.9436 0.0
N228 N 0.26921 0.27664 0.87255 0.0
C229 C 0.26704 0.272 0.94094 0.0
C230 C 0.26258 0.30825 0.97988 0.0
C231 C 0.77734 0.30324 0.54592 0.0
C232 C 0.77222 0.30317 0.47297 0.0
C233 C 0.77189 0.26768 0.58374 0.0
C234 C 0.76074 0.23017 0.5506 0.0
H235 H 0.78581 0.3312 0.5747 0.0
H236 H 0.77538 0.26982 0.63931 0.0
S237 S 0.74511 0.21262 0.36076 0.0
N238 N 0.7563 0.26184 0.3695 0.0
N239 N 0.74619 0.195 0.43962 0.0
C240 C 0.75584 0.22951 0.47755 0.0
C241 C 0.76131 0.26587 0.43908 0.0
C242 C 0.77277 0.76991 0.08404 0.0
C243 C 0.76077 0.80726 0.05054 0.0
C244 C 0.77852 0.73426 0.04647 0.0
C245 C 0.77272 0.73411 0.97346 0.0
H246 H 0.7769 0.76799 0.13969 0.0
H247 H 0.78778 0.70643 0.07544 0.0
S248 S 0.74294 0.82407 0.86025 0.0
N249 N 0.74461 0.84195 0.93902 0.0
N250 N 0.75501 0.77497 0.86952 0.0
C251 C 0.76087 0.77122 0.93924 0.0
C252 C 0.75522 0.80765 0.97739 0.0
C253 C 0.25125 0.73383 0.48303 0.0
C254 C 0.2602 0.73318 0.55625 0.0
C255 C 0.2588 0.7694 0.44579 0.0
C256 C 0.27568 0.80611 0.47991 0.0
H257 H 0.23821 0.70646 0.4537 0.0
H258 H 0.25208 0.76793 0.38992 0.0
S259 S 0.30303 0.82139 0.67119 0.0
N260 N 0.28612 0.77286 0.66104 0.0
N261 N 0.29955 0.83963 0.59246 0.0
C262 C 0.28421 0.80596 0.55334 0.0
C263 C 0.27686 0.76964 0.59104 0.0
C264 C 0.02738 0.55009 0.97351 0.0
C265 C 0.96353 0.53469 0.97039 0.0
C266 C 0.07938 0.53552 0.02162 0.0
C267 C 0.06942 0.50506 0.06853 0.0
H268 H 0.03721 0.57397 0.93885 0.0
H269 H 0.12794 0.54725 0.02027 0.0
S270 S 0.91195 0.45455 0.08234 0.0
N271 N 0.89362 0.48688 0.01813 0.0
N272 N 0.9908 0.46058 0.11036 0.0
C273 C 1.00563 0.48984 0.06677 0.0
C274 C 0.95299 0.50407 0.01687 0.0
C275 C 1.00655 0.54853 0.5616 0.0
C276 C 0.07039 0.53309 0.56491 0.0
C277 C 0.95441 0.53359 0.51402 0.0
C278 C 0.96413 0.50264 0.46789 0.0
H279 H 0.99686 0.57281 0.59557 0.0
H280 H 0.90593 0.54554 0.51503 0.0
S281 S 0.1214 0.45153 0.4554 0.0
N282 N 0.13996 0.48454 0.51854 0.0
N283 N 0.0425 0.45732 0.42749 0.0
C284 C 0.02782 0.48713 0.47018 0.0
C285 C 0.08064 0.50184 0.51946 0.0
C286 C 0.57933 0.03641 0.02718 0.0
C287 C 0.56952 1.00535 0.07308 0.0
C288 C 0.52734 0.05119 0.97924 0.0
C289 C 0.46357 0.03553 0.97545 0.0
H290 H 0.62782 0.04838 0.02632 0.0
H291 H 0.53717 0.07536 0.94512 0.0
S292 S 0.41212 0.95459 0.08591 0.0
N293 N 0.49103 0.96036 0.11387 0.0
N294 N 0.39373 0.98734 0.02236 0.0
C295 C 0.4531 1.00457 0.02137 0.0
C296 C 0.50579 0.99 0.07092 0.0
C297 C 0.52477 0.98938 0.47948 0.0
C298 C 0.46127 1.00575 0.47285 0.0
C299 C 0.57553 1.0036 0.5293 0.0
C300 C 0.56504 0.03506 0.57417 0.0
H301 H 0.53541 0.96497 0.44621 0.0
H302 H 0.62384 0.99087 0.53058 0.0
S303 S 0.40812 0.0883 0.57926 0.0
N304 N 0.39087 0.05526 0.51589 0.0
N305 N 0.48624 0.08163 0.61043 0.0
C306 C 0.50165 0.05143 0.56889 0.0
C307 C 0.45001 0.03719 0.51765 0.0
C308 C 1.0125 0.36879 0.1937 0.0
C309 C 0.07474 0.36399 0.23384 0.0
C310 C 0.95567 0.36932 0.22413 0.0
C311 C 0.95818 0.36475 0.29617 0.0
H312 H 1.00771 0.3744 0.13873 0.0
H313 H 0.90956 0.37514 0.19082 0.0
S314 S 0.10807 0.3436 0.42275 0.0
N315 N 0.13471 0.34923 0.34851 0.0
N316 N 0.02809 0.34999 0.40535 0.0
C317 C 0.01966 0.35681 0.33618 0.0
C318 C 0.07771 0.35648 0.30518 0.0
C319 C 1.01476 0.67375 0.69676 0.0
C320 C 0.07711 0.67305 0.73793 0.0
C321 C 0.95755 0.67362 0.72654 0.0
C322 C 0.95996 0.67293 0.79887 0.0
H323 H 1.00984 0.67228 0.641 0.0
H324 H 0.91098 0.67232 0.69224 0.0
S325 S 0.11097 0.67527 0.93013 0.0
N326 N 0.13763 0.67521 0.8554 0.0
N327 N 0.03047 0.67477 0.91085 0.0
C328 C 0.02195 0.67475 0.84066 0.0
C329 C 0.08028 0.67483 0.81038 0.0
C330 C 0.52095 0.86966 0.33572 0.0
C331 C 0.4586 0.86549 0.2955 0.0
C332 C 0.57774 0.86932 0.30548 0.0
C333 C 0.5751 0.8647 0.23349 0.0
H334 H 0.52598 0.87541 0.39069 0.0
H335 H 0.62398 0.87462 0.33891 0.0
S336 S 0.42461 0.84577 0.10646 0.0
N337 N 0.39807 0.85169 0.1807 0.0
N338 N 0.50482 0.85106 0.124 0.0
C339 C 0.51339 0.85769 0.19323 0.0
C340 C 0.4553 0.85813 0.22412 0.0
C341 C 0.5154 0.17467 0.69864 0.0
C342 C 0.57785 0.17407 0.73977 0.0
C343 C 0.45801 0.17389 0.72832 0.0
C344 C 0.46015 0.17272 0.80064 0.0
H345 H 0.51055 0.17376 0.64285 0.0
H346 H 0.4115 0.17265 0.69392 0.0
S347 S 0.61112 0.17402 0.93208 0.0
N348 N 0.63794 0.17495 0.85745 0.0
N349 N 0.53062 0.17348 0.91263 0.0
C350 C 0.52219 0.17428 0.84246 0.0
C351 C 0.5807 0.17494 0.81227 0.0
C352 C 0.19897 0.49637 0.90782 0.0
C353 C 0.25448 0.49075 0.95874 0.0
C354 C 0.19839 0.52511 0.85553 0.0
C355 C 0.25306 0.54968 0.85177 0.0
H356 H 0.15508 0.4787 0.90839 0.0
H357 H 0.15498 0.52755 0.81654 0.0
S358 S 0.41138 0.54705 0.97053 0.0
N359 N 0.3664 0.51247 1.00131 0.0
N360 N 0.36457 0.56643 0.90211 0.0
C361 C 0.30873 0.54496 0.90226 0.0
C362 C 0.30969 0.51543 0.95571 0.0
C363 C 0.83465 0.49382 0.62571 0.0
C364 C 0.77882 0.48826 0.57512 0.0
C365 C 0.83613 0.52306 0.67746 0.0
C366 C 0.78213 0.5483 0.68092 0.0
H367 H 0.87813 0.47576 0.62517 0.0
H368 H 0.87975 0.52546 0.71617 0.0
S369 S 0.62313 0.54583 0.56327 0.0
N370 N 0.66717 0.51055 0.53295 0.0
N371 N 0.67075 0.56547 0.63091 0.0
C372 C 0.72611 0.54352 0.63089 0.0
C373 C 0.72419 0.51345 0.57809 0.0
C374 C 0.73232 0.49201 0.12833 0.0
C375 C 0.78487 0.49041 0.1834 0.0
C376 C 0.73097 0.52095 0.07546 0.0
C377 C 0.78202 0.54938 0.07591 0.0
H378 H 0.69109 0.47178 0.12729 0.0
H379 H 0.68964 0.52086 0.03378 0.0
S380 S 0.93282 0.55548 0.20763 0.0
N381 N 0.89062 0.51798 0.23382 0.0
N382 N 0.88781 0.57251 0.1363 0.0
C383 C 0.83511 0.54753 0.13084 0.0
C384 C 0.83666 0.51797 0.18383 0.0
C385 C 0.30113 0.49136 0.40438 0.0
C386 C 0.24732 0.48806 0.35105 0.0
C387 C 0.30219 0.52076 0.45644 0.0
C388 C 0.24963 0.54799 0.45677 0.0
H389 H 0.34363 0.47234 0.40433 0.0
H390 H 0.34466 0.52211 0.49671 0.0
S391 S 0.09539 0.54935 0.32955 0.0
N392 N 0.13896 0.51261 0.30309 0.0
N393 N 0.14109 0.56803 0.39916 0.0
C394 C 0.1952 0.54432 0.40372 0.0
C395 C 0.19396 0.51426 0.35161 0.0
C396 C 0.69669 1.00273 0.91734 0.0
C397 C 0.75436 0.99344 0.96325 0.0
C398 C 0.69605 0.03213 0.86616 0.0
C399 C 0.75291 0.05358 0.85836 0.0
H400 H 0.65121 0.98742 0.921 0.0
H401 H 0.65089 0.03725 0.83068 0.0
S402 S 0.91713 0.04061 0.96314 0.0
N403 N 0.87038 1.0084 0.99707 0.0
N404 N 0.8687 0.06339 0.89938 0.0
C405 C 0.81079 0.04525 0.904 0.0
C406 C 0.81165 1.01517 0.95656 0.0
C407 C 0.23345 0.04442 0.6319 0.0
C408 C 0.28708 0.04729 0.68552 0.0
C409 C 0.23224 1.01526 0.57955 0.0
C410 C 0.2846 0.98794 0.57905 0.0
H411 H 0.19129 0.06376 0.63174 0.0
H412 H 0.18997 1.01432 0.53899 0.0
S413 S 0.43819 0.98528 0.70723 0.0
N414 N 0.39487 0.02205 0.73397 0.0
N415 N 0.39263 0.96711 0.63707 0.0
C416 C 0.3388 0.99107 0.63254 0.0
C417 C 0.34009 0.02084 0.68512 0.0
C418 C 0.23079 0.9927 0.13006 0.0
C419 C 0.28354 0.99061 0.18481 0.0
C420 C 0.2296 0.02193 0.07767 0.0
C421 C 0.28098 0.05018 0.07836 0.0
H422 H 0.18926 0.97272 0.12902 0.0
H423 H 0.18807 0.02224 0.03621 0.0
S424 S 0.43226 0.05503 0.2095 0.0
N425 N 0.38977 1.01753 0.23523 0.0
N426 N 0.38721 0.0726 0.13861 0.0
C427 C 0.33425 0.04782 0.13295 0.0
C428 C 0.33567 1.01795 0.18541 0.0
C429 C 0.80052 0.01898 0.45996 0.0
C430 C 0.74539 0.04379 0.46241 0.0
C431 C 0.80101 0.98997 0.4075 0.0
C432 C 0.74618 0.98453 0.35599 0.0
H433 H 0.84406 0.02223 0.49846 0.0
H434 H 0.84547 0.97315 0.40544 0.0
S435 S 0.58801 0.03896 0.34041 0.0
N436 N 0.63342 0.05908 0.40896 0.0
N437 N 0.63434 1.00433 0.31213 0.0
C438 C 0.69014 1.00796 0.3591 0.0
C439 C 0.68978 0.03771 0.41158 0.0
loop_
_geom_bond_atom_site_label_1
_geom_bond_atom_site_label_2
_geom_bond_distance
_geom_bond_site_symmetry_2
_ccdc_geom_bond_type
Fe0 O2 1.918 . S
Fe0 O5 1.997 . S
Fe0 O6 2.002 . S
Fe0 O11 1.976 . S
Fe0 O14 1.996 . S
Fe1 O2 1.918 . S
Fe1 O9 1.997 . S
Fe1 O12 1.996 . S
Fe1 O16 1.976 1_554 S
Fe1 O19 2.002 . S
O2 Fe0 1.918 . S
O2 Fe1 1.918 . S
O2 Fe3 1.918 . S
Fe3 O2 1.918 . S
Fe3 O4 2.002 . S
Fe3 O13 1.976 . S
Fe3 O17 1.996 . S
Fe3 O20 1.997 . S
O4 Fe3 2.002 . S
O4 C21 1.295 . S
O5 Fe0 1.997 . S
O5 C21 1.235 . S
O6 Fe0 2.002 . S
O6 C7 1.295 . S
C7 O6 1.295 . S
C7 O9 1.235 . S
C8 O13 1.287 . S
C8 O14 1.255 . S
O9 Fe1 1.997 . S
O9 C7 1.235 . S
C10 O16 1.287 . S
C10 O17 1.255 1_556 S
O11 Fe0 1.976 . S
O11 C18 1.287 . S
O12 Fe1 1.996 . S
O12 C18 1.255 . S
O13 Fe3 1.976 . S
O13 C8 1.287 . S
O14 Fe0 1.996 . S
O14 C8 1.255 . S
C15 O19 1.295 . S
C15 O20 1.235 . S
O16 Fe1 1.976 1_556 S
O16 C10 1.287 . S
O17 Fe3 1.996 . S
O17 C10 1.255 1_554 S
C18 O11 1.287 . S
C18 O12 1.255 . S
O19 Fe1 2.002 . S
O19 C15 1.295 . S
O20 Fe3 1.997 . S
O20 C15 1.235 . S
C21 O4 1.295 . S
C21 O5 1.235 . S
Fe22 O24 1.918 . S
Fe22 O27 1.997 . S
Fe22 O28 2.002 . S
Fe22 O33 1.976 . S
Fe22 O36 1.996 . S
Fe23 O24 1.918 . S
Fe23 O31 1.997 . S
Fe23 O34 1.996 . S
Fe23 O38 1.976 . S
Fe23 O41 2.002 . S
O24 Fe22 1.918 . S
O24 Fe23 1.918 . S
O24 Fe25 1.918 . S
Fe25 O24 1.918 . S
Fe25 O26 2.002 . S
Fe25 O35 1.976 . S
Fe25 O39 1.996 . S
Fe25 O42 1.997 . S
O26 Fe25 2.002 . S
O26 C43 1.295 . S
O27 Fe22 1.997 . S
O27 C43 1.235 . S
O28 Fe22 2.002 . S
O28 C29 1.295 . S
C29 O28 1.295 . S
C29 O31 1.235 . S
C30 O35 1.287 . S
C30 O36 1.255 . S
O31 Fe23 1.997 . S
O31 C29 1.235 . S
C32 O38 1.287 . S
C32 O39 1.255 . S
O33 Fe22 1.976 . S
O33 C40 1.287 . S
O34 Fe23 1.996 . S
O34 C40 1.255 . S
O35 Fe25 1.976 . S
O35 C30 1.287 . S
O36 Fe22 1.996 . S
O36 C30 1.255 . S
C37 O41 1.295 . S
C37 O42 1.235 . S
O38 Fe23 1.976 . S
O38 C32 1.287 . S
O39 Fe25 1.996 . S
O39 C32 1.255 . S
C40 O33 1.287 . S
C40 O34 1.255 . S
O41 Fe23 2.002 . S
O41 C37 1.295 . S
O42 Fe25 1.997 . S
O42 C37 1.235 . S
C43 O26 1.295 . S
C43 O27 1.235 . S
Fe44 O46 1.918 . S
Fe44 O49 1.997 . S
Fe44 O50 2.002 . S
Fe44 O55 1.976 . S
Fe44 O58 1.996 . S
Fe45 O46 1.918 . S
Fe45 O53 1.997 . S
Fe45 O56 1.996 . S
Fe45 O60 1.976 . S
Fe45 O63 2.002 . S
O46 Fe44 1.918 . S
O46 Fe45 1.918 . S
O46 Fe47 1.918 . S
Fe47 O46 1.918 . S
Fe47 O48 2.002 . S
Fe47 O57 1.976 1_556 S
Fe47 O61 1.996 . S
Fe47 O64 1.997 . S
O48 Fe47 2.002 . S
O48 C65 1.295 . S
O49 Fe44 1.997 . S
O49 C65 1.235 . S
O50 Fe44 2.002 . S
O50 C51 1.295 . S
C51 O50 1.295 . S
C51 O53 1.235 . S
C52 O57 1.287 . S
C52 O58 1.255 1_554 S
O53 Fe45 1.997 . S
O53 C51 1.235 . S
C54 O60 1.287 . S
C54 O61 1.255 . S
O55 Fe44 1.976 . S
O55 C62 1.287 . S
O56 Fe45 1.996 . S
O56 C62 1.255 . S
O57 Fe47 1.976 1_554 S
O57 C52 1.287 . S
O58 Fe44 1.996 . S
O58 C52 1.255 1_556 S
C59 O63 1.295 . S
C59 O64 1.235 . S
O60 Fe45 1.976 . S
O60 C54 1.287 . S
O61 Fe47 1.996 . S
O61 C54 1.255 . S
C62 O55 1.287 . S
C62 O56 1.255 . S
O63 Fe45 2.002 . S
O63 C59 1.295 . S
O64 Fe47 1.997 . S
O64 C59 1.235 . S
C65 O48 1.295 . S
C65 O49 1.235 . S
Fe66 O68 1.918 . S
Fe66 O71 1.997 . S
Fe66 O72 2.002 . S
Fe66 O77 1.976 . S
Fe66 O80 1.996 . S
Fe67 O68 1.918 . S
Fe67 O75 1.997 . S
Fe67 O78 1.996 . S
Fe67 O82 1.976 . S
Fe67 O85 2.002 . S
O68 Fe66 1.918 . S
O68 Fe67 1.918 . S
O68 Fe69 1.918 . S
Fe69 O68 1.918 . S
Fe69 O70 2.002 . S
Fe69 O79 1.976 . S
Fe69 O83 1.996 . S
Fe69 O86 1.997 . S
O70 Fe69 2.002 . S
O70 C87 1.295 . S
O71 Fe66 1.997 . S
O71 C87 1.235 . S
O72 Fe66 2.002 . S
O72 C73 1.295 . S
C73 O72 1.295 . S
C73 O75 1.235 . S
C74 O79 1.287 . S
C74 O80 1.255 . S
O75 Fe67 1.997 . S
O75 C73 1.235 . S
C76 O82 1.287 . S
C76 O83 1.255 . S
O77 Fe66 1.976 . S
O77 C84 1.287 . S
O78 Fe67 1.996 . S
O78 C84 1.255 . S
O79 Fe69 1.976 . S
O79 C74 1.287 . S
O80 Fe66 1.996 . S
O80 C74 1.255 . S
C81 O85 1.295 . S
C81 O86 1.235 . S
O82 Fe67 1.976 . S
O82 C76 1.287 . S
O83 Fe69 1.996 . S
O83 C76 1.255 . S
C84 O77 1.287 . S
C84 O78 1.255 . S
O85 Fe67 2.002 . S
O85 C81 1.295 . S
O86 Fe69 1.997 . S
O86 C81 1.235 . S
C87 O70 1.295 . S
C87 O71 1.235 . S
Fe88 O90 1.918 . S
Fe88 O93 1.997 . S
Fe88 O94 2.002 . S
Fe88 O99 1.976 . S
Fe88 O102 1.996 . S
Fe89 O90 1.918 . S
Fe89 O97 1.997 . S
Fe89 O100 1.996 . S
Fe89 O104 1.976 1_554 S
Fe89 O107 2.002 . S
O90 Fe88 1.918 . S
O90 Fe89 1.918 . S
O90 Fe91 1.918 . S
Fe91 O90 1.918 . S
Fe91 O92 2.002 . S
Fe91 O101 1.976 . S
Fe91 O105 1.996 . S
Fe91 O108 1.997 . S
O92 Fe91 2.002 . S
O92 C109 1.295 . S
O93 Fe88 1.997 . S
O93 C109 1.235 . S
O94 Fe88 2.002 . S
O94 C95 1.295 . S
C95 O94 1.295 . S
C95 O97 1.235 . S
C96 O101 1.287 . S
C96 O102 1.255 . S
O97 Fe89 1.997 . S
O97 C95 1.235 . S
C98 O104 1.287 . S
C98 O105 1.255 1_556 S
O99 Fe88 1.976 . S
O99 C106 1.287 . S
O100 Fe89 1.996 . S
O100 C106 1.255 . S
O101 Fe91 1.976 . S
O101 C96 1.287 . S
O102 Fe88 1.996 . S
O102 C96 1.255 . S
C103 O107 1.295 . S
C103 O108 1.235 . S
O104 Fe89 1.976 1_556 S
O104 C98 1.287 . S
O105 Fe91 1.996 . S
O105 C98 1.255 1_554 S
C106 O99 1.287 . S
C106 O100 1.255 . S
O107 Fe89 2.002 . S
O107 C103 1.295 . S
O108 Fe91 1.997 . S
O108 C103 1.235 . S
C109 O92 1.295 . S
C109 O93 1.235 . S
Fe110 O112 1.918 . S
Fe110 O115 1.997 . S
Fe110 O116 2.002 . S
Fe110 O121 1.976 . S
Fe110 O124 1.996 . S
Fe111 O112 1.918 . S
Fe111 O119 1.997 . S
Fe111 O122 1.996 . S
Fe111 O126 1.976 . S
Fe111 O129 2.002 . S
O112 Fe110 1.918 . S
O112 Fe111 1.918 . S
O112 Fe113 1.918 . S
Fe113 O112 1.918 . S
Fe113 O114 2.002 . S
Fe113 O123 1.976 . S
Fe113 O127 1.996 . S
Fe113 O130 1.997 . S
O114 Fe113 2.002 . S
O114 C131 1.295 . S
O115 Fe110 1.997 . S
O115 C131 1.235 . S
O116 Fe110 2.002 . S
O116 C117 1.295 . S
C117 O116 1.295 . S
C117 O119 1.235 . S
C118 O123 1.287 . S
C118 O124 1.255 . S
O119 Fe111 1.997 . S
O119 C117 1.235 . S
C120 O126 1.287 . S
C120 O127 1.255 . S
O121 Fe110 1.976 . S
O121 C128 1.287 . S
O122 Fe111 1.996 . S
O122 C128 1.255 . S
O123 Fe113 1.976 . S
O123 C118 1.287 . S
O124 Fe110 1.996 . S
O124 C118 1.255 . S
C125 O129 1.295 . S
C125 O130 1.235 . S
O126 Fe111 1.976 . S
O126 C120 1.287 . S
O127 Fe113 1.996 . S
O127 C120 1.255 . S
C128 O121 1.287 . S
C128 O122 1.255 . S
O129 Fe111 2.002 . S
O129 C125 1.295 . S
O130 Fe113 1.997 . S
O130 C125 1.235 . S
C131 O114 1.295 . S
C131 O115 1.235 . S
Fe132 O134 1.918 . S
Fe132 O137 1.997 . S
Fe132 O138 2.002 . S
Fe132 O143 1.976 . S
Fe132 O146 1.996 . S
Fe133 O134 1.918 . S
Fe133 O141 1.997 . S
Fe133 O144 1.996 . S
Fe133 O148 1.976 . S
Fe133 O151 2.002 . S
O134 Fe132 1.918 . S
O134 Fe133 1.918 . S
O134 Fe135 1.918 . S
Fe135 O134 1.918 . S
Fe135 O136 2.002 . S
Fe135 O145 1.976 1_556 S
Fe135 O149 1.996 . S
Fe135 O152 1.997 . S
O136 Fe135 2.002 . S
O136 C153 1.295 . S
O137 Fe132 1.997 . S
O137 C153 1.235 . S
O138 Fe132 2.002 . S
O138 C139 1.295 . S
C139 O138 1.295 . S
C139 O141 1.235 . S
C140 O145 1.287 . S
C140 O146 1.255 1_554 S
O141 Fe133 1.997 . S
O141 C139 1.235 . S
C142 O148 1.287 . S
C142 O149 1.255 . S
O143 Fe132 1.976 . S
O143 C150 1.287 . S
O144 Fe133 1.996 . S
O144 C150 1.255 . S
O145 Fe135 1.976 1_554 S
O145 C140 1.287 . S
O146 Fe132 1.996 . S
O146 C140 1.255 1_556 S
C147 O151 1.295 . S
C147 O152 1.235 . S
O148 Fe133 1.976 . S
O148 C142 1.287 . S
O149 Fe135 1.996 . S
O149 C142 1.255 . S
C150 O143 1.287 . S
C150 O144 1.255 . S
O151 Fe133 2.002 . S
O151 C147 1.295 . S
O152 Fe135 1.997 . S
O152 C147 1.235 . S
C153 O136 1.295 . S
C153 O137 1.235 . S
Fe154 O156 1.918 . S
Fe154 O159 1.997 . S
Fe154 O160 2.002 . S
Fe154 O165 1.976 . S
Fe154 O168 1.996 . S
Fe155 O156 1.918 . S
Fe155 O163 1.997 . S
Fe155 O166 1.996 . S
Fe155 O170 1.976 . S
Fe155 O173 2.002 . S
O156 Fe154 1.918 . S
O156 Fe155 1.918 . S
O156 Fe157 1.918 . S
Fe157 O156 1.918 . S
Fe157 O158 2.002 . S
Fe157 O167 1.976 . S
Fe157 O171 1.996 . S
Fe157 O174 1.997 . S
O158 Fe157 2.002 . S
O158 C175 1.295 . S
O159 Fe154 1.997 . S
O159 C175 1.235 . S
O160 Fe154 2.002 . S
O160 C161 1.295 . S
C161 O160 1.295 . S
C161 O163 1.235 . S
C162 O167 1.287 . S
C162 O168 1.255 . S
O163 Fe155 1.997 . S
O163 C161 1.235 . S
C164 O170 1.287 . S
C164 O171 1.255 . S
O165 Fe154 1.976 . S
O165 C172 1.287 . S
O166 Fe155 1.996 . S
O166 C172 1.255 . S
O167 Fe157 1.976 . S
O167 C162 1.287 . S
O168 Fe154 1.996 . S
O168 C162 1.255 . S
C169 O173 1.295 . S
C169 O174 1.235 . S
O170 Fe155 1.976 . S
O170 C164 1.287 . S
O171 Fe157 1.996 . S
O171 C164 1.255 . S
C172 O165 1.287 . S
C172 O166 1.255 . S
O173 Fe155 2.002 . S
O173 C169 1.295 . S
O174 Fe157 1.997 . S
O174 C169 1.235 . S
C175 O158 1.295 . S
C175 O159 1.235 . S
C176 C177 1.369 . S
C176 C178 1.419 . S
C176 H180 0.930 . S
C177 C176 1.369 . S
C177 C186 1.429 . S
C178 C176 1.419 . S
C178 C179 1.363 . S
C178 H181 0.929 . S
C179 C178 1.363 . S
C179 C185 1.428 . S
H180 C176 0.930 . S
H181 C178 0.929 . S
S182 N183 1.613 . S
S182 N184 1.610 . S
N183 S182 1.613 . S
N183 C186 1.350 . S
N184 S182 1.610 . S
N184 C185 1.351 . S
C185 C179 1.428 . S
C185 N184 1.351 . S
C185 C186 1.434 . S
C186 C177 1.429 . S
C186 N183 1.350 . S
C186 C185 1.434 . S
C187 C188 1.369 . S
C187 C189 1.419 . S
C187 H191 0.930 . S
C188 C187 1.369 . S
C188 C197 1.429 . S
C189 C187 1.419 . S
C189 C190 1.363 . S
C189 H192 0.929 . S
C190 C189 1.363 . S
C190 C196 1.428 . S
H191 C187 0.930 . S
H192 C189 0.929 . S
S193 N194 1.613 . S
S193 N195 1.610 . S
N194 S193 1.613 . S
N194 C197 1.350 . S
N195 S193 1.610 . S
N195 C196 1.351 . S
C196 C190 1.428 . S
C196 N195 1.351 . S
C196 C197 1.434 . S
C197 C188 1.429 . S
C197 N194 1.350 . S
C197 C196 1.434 . S
C198 C199 1.369 . S
C198 C200 1.419 1_455 S
C198 H202 0.930 . S
C199 C198 1.369 . S
C199 C208 1.429 . S
C200 C198 1.419 1_655 S
C200 C201 1.363 . S
C200 H203 0.929 . S
C201 C200 1.363 . S
C201 C207 1.428 . S
H202 C198 0.930 . S
H203 C200 0.929 . S
S204 N205 1.613 1_655 S
S204 N206 1.610 . S
N205 S204 1.613 1_455 S
N205 C208 1.350 . S
N206 S204 1.610 . S
N206 C207 1.351 . S
C207 C201 1.428 . S
C207 N206 1.351 . S
C207 C208 1.434 1_655 S
C208 C199 1.429 . S
C208 N205 1.350 . S
C208 C207 1.434 1_455 S
C209 C210 1.369 . S
C209 C211 1.419 1_455 S
C209 H213 0.930 . S
C210 C209 1.369 . S
C210 C219 1.429 . S
C211 C209 1.419 1_655 S
C211 C212 1.363 . S
C211 H214 0.929 . S
C212 C211 1.363 . S
C212 C218 1.428 . S
H213 C209 0.930 . S
H214 C211 0.929 . S
S215 N216 1.613 1_655 S
S215 N217 1.610 . S
N216 S215 1.613 1_455 S
N216 C219 1.350 . S
N217 S215 1.610 . S
N217 C218 1.351 . S
C218 C212 1.428 . S
C218 N217 1.351 . S
C218 C219 1.434 1_655 S
C219 C210 1.429 . S
C219 N216 1.350 . S
C219 C218 1.434 1_455 S
C220 C221 1.369 . S
C220 C222 1.419 . S
C220 H224 0.930 . S
C221 C220 1.369 . S
C221 C230 1.429 1_554 S
C222 C220 1.419 . S
C222 C223 1.363 1_554 S
C222 H225 0.929 . S
C223 C222 1.363 1_556 S
C223 C229 1.428 . S
H224 C220 0.930 . S
H225 C222 0.929 . S
S226 N227 1.613 . S
S226 N228 1.610 . S
N227 S226 1.613 . S
N227 C230 1.350 . S
N228 S226 1.610 . S
N228 C229 1.351 . S
C229 C223 1.428 . S
C229 N228 1.351 . S
C229 C230 1.434 . S
C230 C221 1.429 1_556 S
C230 N227 1.350 . S
C230 C229 1.434 . S
C231 C232 1.369 . S
C231 C233 1.419 . S
C231 H235 0.930 . S
C232 C231 1.369 . S
C232 C241 1.429 . S
C233 C231 1.419 . S
C233 C234 1.363 . S
C233 H236 0.929 . S
C234 C233 1.363 . S
C234 C240 1.428 . S
H235 C231 0.930 . S
H236 C233 0.929 . S
S237 N238 1.613 . S
S237 N239 1.610 . S
N238 S237 1.613 . S
N238 C241 1.350 . S
N239 S237 1.610 . S
N239 C240 1.351 . S
C240 C234 1.428 . S
C240 N239 1.351 . S
C240 C241 1.434 . S
C241 C232 1.429 . S
C241 N238 1.350 . S
C241 C240 1.434 . S
C242 C243 1.369 . S
C242 C244 1.419 . S
C242 H246 0.930 . S
C243 C242 1.369 . S
C243 C252 1.429 1_554 S
C244 C242 1.419 . S
C244 C245 1.363 1_554 S
C244 H247 0.929 . S
C245 C244 1.363 1_556 S
C245 C251 1.428 . S
H246 C242 0.930 . S
H247 C244 0.929 . S
S248 N249 1.613 . S
S248 N250 1.610 . S
N249 S248 1.613 . S
N249 C252 1.350 . S
N250 S248 1.610 . S
N250 C251 1.351 . S
C251 C245 1.428 . S
C251 N250 1.351 . S
C251 C252 1.434 . S
C252 C243 1.429 1_556 S
C252 N249 1.350 . S
C252 C251 1.434 . S
C253 C254 1.369 . S
C253 C255 1.419 . S
C253 H257 0.930 . S
C254 C253 1.369 . S
C254 C263 1.429 . S
C255 C253 1.419 . S
C255 C256 1.363 . S
C255 H258 0.929 . S
C256 C255 1.363 . S
C256 C262 1.428 . S
H257 C253 0.930 . S
H258 C255 0.929 . S
S259 N260 1.613 . S
S259 N261 1.610 . S
N260 S259 1.613 . S
N260 C263 1.350 . S
N261 S259 1.610 . S
N261 C262 1.351 . S
C262 C256 1.428 . S
C262 N261 1.351 . S
C262 C263 1.434 . S
C263 C254 1.429 . S
C263 N260 1.350 . S
C263 C262 1.434 . S
C264 C265 1.369 . S
C264 C266 1.419 1_655 S
C264 H268 0.930 . S
C265 C264 1.369 . S
C265 C274 1.429 1_556 S
C266 C264 1.419 1_455 S
C266 C267 1.363 1_556 S
C266 H269 0.929 . S
C267 C266 1.363 1_554 S
C267 C273 1.428 . S
H268 C264 0.930 . S
H269 C266 0.929 . S
S270 N271 1.613 . S
S270 N272 1.610 1_655 S
N271 S270 1.613 . S
N271 C274 1.350 . S
N272 S270 1.610 1_455 S
N272 C273 1.351 . S
C273 C267 1.428 . S
C273 N272 1.351 . S
C273 C274 1.434 1_455 S
C274 C265 1.429 1_554 S
C274 N271 1.350 . S
C274 C273 1.434 1_655 S
C275 C276 1.369 . S
C275 C277 1.419 1_455 S
C275 H279 0.930 . S
C276 C275 1.369 . S
C276 C285 1.429 . S
C277 C275 1.419 1_655 S
C277 C278 1.363 . S
C277 H280 0.929 . S
C278 C277 1.363 . S
C278 C284 1.428 . S
H279 C275 0.930 . S
H280 C277 0.929 . S
S281 N282 1.613 . S
S281 N283 1.610 1_455 S
N282 S281 1.613 . S
N282 C285 1.350 . S
N283 S281 1.610 1_655 S
N283 C284 1.351 . S
C284 C278 1.428 . S
C284 N283 1.351 . S
C284 C285 1.434 1_655 S
C285 C276 1.429 . S
C285 N282 1.350 . S
C285 C284 1.434 1_455 S
C286 C287 1.369 1_546 S
C286 C288 1.419 . S
C286 H290 0.930 . S
C287 C286 1.369 1_564 S
C287 C296 1.429 . S
C288 C286 1.419 . S
C288 C289 1.363 . S
C288 H291 0.929 . S
C289 C288 1.363 . S
C289 C295 1.428 1_546 S
H290 C286 0.930 . S
H291 C288 0.929 . S
S292 N293 1.613 . S
S292 N294 1.610 . S
N293 S292 1.613 . S
N293 C296 1.350 . S
N294 S292 1.610 . S
N294 C295 1.351 . S
C295 C289 1.428 1_564 S
C295 N294 1.351 . S
C295 C296 1.434 . S
C296 C287 1.429 . S
C296 N293 1.350 . S
C296 C295 1.434 . S
C297 C298 1.369 1_545 S
C297 C299 1.419 . S
C297 H301 0.930 . S
C298 C297 1.369 1_565 S
C298 C307 1.429 . S
C299 C297 1.419 . S
C299 C300 1.363 . S
C299 H302 0.929 . S
C300 C299 1.363 . S
C300 C306 1.428 1_545 S
H301 C297 0.930 . S
H302 C299 0.929 . S
S303 N304 1.613 . S
S303 N305 1.610 . S
N304 S303 1.613 . S
N304 C307 1.350 . S
N305 S303 1.610 . S
N305 C306 1.351 . S
C306 C300 1.428 1_565 S
C306 N305 1.351 . S
C306 C307 1.434 . S
C307 C298 1.429 . S
C307 N304 1.350 . S
C307 C306 1.434 . S
C308 C309 1.369 1_655 S
C308 C310 1.419 . S
C308 H312 0.930 . S
C309 C308 1.369 1_455 S
C309 C318 1.429 . S
C310 C308 1.419 . S
C310 C311 1.363 . S
C310 H313 0.929 . S
C311 C310 1.363 . S
C311 C317 1.428 1_655 S
H312 C308 0.930 . S
H313 C310 0.929 . S
S314 N315 1.613 . S
S314 N316 1.610 . S
N315 S314 1.613 . S
N315 C318 1.350 . S
N316 S314 1.610 . S
N316 C317 1.351 . S
C317 C311 1.428 1_455 S
C317 N316 1.351 . S
C317 C318 1.434 . S
C318 C309 1.429 . S
C318 N315 1.350 . S
C318 C317 1.434 . S
C319 C320 1.369 . S
C319 C321 1.419 1_455 S
C319 H323 0.930 . S
C320 C319 1.369 . S
C320 C329 1.429 . S
C321 C319 1.419 1_655 S
C321 C322 1.363 . S
C321 H324 0.929 . S
C322 C321 1.363 . S
C322 C328 1.428 . S
H323 C319 0.930 . S
H324 C321 0.929 . S
S325 N326 1.613 1_655 S
S325 N327 1.610 . S
N326 S325 1.613 1_455 S
N326 C329 1.350 . S
N327 S325 1.610 . S
N327 C328 1.351 . S
C328 C322 1.428 . S
C328 N327 1.351 . S
C328 C329 1.434 1_655 S
C329 C320 1.429 . S
C329 N326 1.350 . S
C329 C328 1.434 1_455 S
C330 C331 1.369 . S
C330 C332 1.419 . S
C330 H334 0.930 . S
C331 C330 1.369 . S
C331 C340 1.429 . S
C332 C330 1.419 . S
C332 C333 1.363 . S
C332 H335 0.929 . S
C333 C332 1.363 . S
C333 C339 1.428 . S
H334 C330 0.930 . S
H335 C332 0.929 . S
S336 N337 1.613 . S
S336 N338 1.610 . S
N337 S336 1.613 . S
N337 C340 1.350 . S
N338 S336 1.610 . S
N338 C339 1.351 . S
C339 C333 1.428 . S
C339 N338 1.351 . S
C339 C340 1.434 . S
C340 C331 1.429 . S
C340 N337 1.350 . S
C340 C339 1.434 . S
C341 C342 1.369 . S
C341 C343 1.419 . S
C341 H345 0.930 . S
C342 C341 1.369 . S
C342 C351 1.429 . S
C343 C341 1.419 . S
C343 C344 1.363 . S
C343 H346 0.929 . S
C344 C343 1.363 . S
C344 C350 1.428 . S
H345 C341 0.930 . S
H346 C343 0.929 . S
S347 N348 1.613 . S
S347 N349 1.610 . S
N348 S347 1.613 . S
N348 C351 1.350 . S
N349 S347 1.610 . S
N349 C350 1.351 . S
C350 C344 1.428 . S
C350 N349 1.351 . S
C350 C351 1.434 . S
C351 C342 1.429 . S
C351 N348 1.350 . S
C351 C350 1.434 . S
C352 C353 1.369 . S
C352 C354 1.419 . S
C352 H356 0.930 . S
C353 C352 1.369 . S
C353 C362 1.429 . S
C354 C352 1.419 . S
C354 C355 1.363 . S
C354 H357 0.929 . S
C355 C354 1.363 . S
C355 C361 1.428 . S
H356 C352 0.930 . S
H357 C354 0.929 . S
S358 N359 1.613 . S
S358 N360 1.610 . S
N359 S358 1.613 . S
N359 C362 1.350 . S
N360 S358 1.610 . S
N360 C361 1.351 . S
C361 C355 1.428 . S
C361 N360 1.351 . S
C361 C362 1.434 . S
C362 C353 1.429 . S
C362 N359 1.350 . S
C362 C361 1.434 . S
C363 C364 1.369 . S
C363 C365 1.419 . S
C363 H367 0.930 . S
C364 C363 1.369 . S
C364 C373 1.429 . S
C365 C363 1.419 . S
C365 C366 1.363 . S
C365 H368 0.929 . S
C366 C365 1.363 . S
C366 C372 1.428 . S
H367 C363 0.930 . S
H368 C365 0.929 . S
S369 N370 1.613 . S
S369 N371 1.610 . S
N370 S369 1.613 . S
N370 C373 1.350 . S
N371 S369 1.610 . S
N371 C372 1.351 . S
C372 C366 1.428 . S
C372 N371 1.351 . S
C372 C373 1.434 . S
C373 C364 1.429 . S
C373 N370 1.350 . S
C373 C372 1.434 . S
C374 C375 1.369 . S
C374 C376 1.419 . S
C374 H378 0.930 . S
C375 C374 1.369 . S
C375 C384 1.429 . S
C376 C374 1.419 . S
C376 C377 1.363 . S
C376 H379 0.929 . S
C377 C376 1.363 . S
C377 C383 1.428 . S
H378 C374 0.930 . S
H379 C376 0.929 . S
S380 N381 1.613 . S
S380 N382 1.610 . S
N381 S380 1.613 . S
N381 C384 1.350 . S
N382 S380 1.610 . S
N382 C383 1.351 . S
C383 C377 1.428 . S
C383 N382 1.351 . S
C383 C384 1.434 . S
C384 C375 1.429 . S
C384 N381 1.350 . S
C384 C383 1.434 . S
C385 C386 1.369 . S
C385 C387 1.419 . S
C385 H389 0.930 . S
C386 C385 1.369 . S
C386 C395 1.429 . S
C387 C385 1.419 . S
C387 C388 1.363 . S
C387 H390 0.929 . S
C388 C387 1.363 . S
C388 C394 1.428 . S
H389 C385 0.930 . S
H390 C387 0.929 . S
S391 N392 1.613 . S
S391 N393 1.610 . S
N392 S391 1.613 . S
N392 C395 1.350 . S
N393 S391 1.610 . S
N393 C394 1.351 . S
C394 C388 1.428 . S
C394 N393 1.351 . S
C394 C395 1.434 . S
C395 C386 1.429 . S
C395 N392 1.350 . S
C395 C394 1.434 . S
C396 C397 1.369 . S
C396 C398 1.419 . S
C396 H400 0.930 . S
C397 C396 1.369 . S
C397 C406 1.429 . S
C398 C396 1.419 . S
C398 C399 1.363 1_565 S
C398 H401 0.929 . S
C399 C398 1.363 1_545 S
C399 C405 1.428 . S
H400 C396 0.930 . S
H401 C398 0.929 . S
S402 N403 1.613 . S
S402 N404 1.610 . S
N403 S402 1.613 . S
N403 C406 1.350 1_545 S
N404 S402 1.610 . S
N404 C405 1.351 . S
C405 C399 1.428 . S
C405 N404 1.351 . S
C405 C406 1.434 1_545 S
C406 C397 1.429 . S
C406 N403 1.350 1_565 S
C406 C405 1.434 1_565 S
C407 C408 1.369 . S
C407 C409 1.419 1_545 S
C407 H411 0.930 . S
C408 C407 1.369 . S
C408 C417 1.429 1_545 S
C409 C407 1.419 1_565 S
C409 C410 1.363 . S
C409 H412 0.929 . S
C410 C409 1.363 . S
C410 C416 1.428 . S
H411 C407 0.930 . S
H412 C409 0.929 . S
S413 N414 1.613 . S
S413 N415 1.610 . S
N414 S413 1.613 . S
N414 C417 1.350 . S
N415 S413 1.610 . S
N415 C416 1.351 . S
C416 C410 1.428 . S
C416 N415 1.351 . S
C416 C417 1.434 . S
C417 C408 1.429 1_565 S
C417 N414 1.350 . S
C417 C416 1.434 . S
C418 C419 1.369 . S
C418 C420 1.419 1_565 S
C418 H422 0.930 . S
C419 C418 1.369 . S
C419 C428 1.429 1_565 S
C420 C418 1.419 1_545 S
C420 C421 1.363 . S
C420 H423 0.929 . S
C421 C420 1.363 . S
C421 C427 1.428 . S
H422 C418 0.930 . S
H423 C420 0.929 . S
S424 N425 1.613 . S
S424 N426 1.610 . S
N425 S424 1.613 . S
N425 C428 1.350 . S
N426 S424 1.610 . S
N426 C427 1.351 . S
C427 C421 1.428 . S
C427 N426 1.351 . S
C427 C428 1.434 . S
C428 C419 1.429 1_545 S
C428 N425 1.350 . S
C428 C427 1.434 . S
C429 C430 1.369 . S
C429 C431 1.419 1_545 S
C429 H433 0.930 . S
C430 C429 1.369 . S
C430 C439 1.429 . S
C431 C429 1.419 1_565 S
C431 C432 1.363 . S
C431 H434 0.929 . S
C432 C431 1.363 . S
C432 C438 1.428 1_565 S
H433 C429 0.930 . S
H434 C431 0.929 . S
S435 N436 1.613 . S
S435 N437 1.610 . S
N436 S435 1.613 . S
N436 C439 1.350 . S
N437 S435 1.610 . S
N437 C438 1.351 . S
C438 C432 1.428 1_545 S
C438 N437 1.351 . S
C438 C439 1.434 . S
C439 C430 1.429 . S
C439 N436 1.350 . S
C439 C438 1.434 . S
C177 C40 1.404 . S
C179 C8 1.399 . S
C188 C62 1.405 . S
C190 C74 1.398 . S
C199 C128 1.402 . S
C201 C96 1.400 . S
C210 C150 1.402 . S
C212 C162 1.400 . S
C221 C18 1.634 . S
C223 C142 1.636 . S
C232 C32 1.638 . S
C234 C172 1.633 . S
C243 C106 1.633 . S
C245 C54 1.637 . S
C254 C84 1.638 . S
C256 C120 1.633 . S
C265 C65 1.205 . S
C267 C15 1.218 . S
C276 C81 1.206 . S
C278 C43 1.218 . S
C287 C103 1.207 . S
C289 C153 1.217 . S
C298 C131 1.209 . S
C300 C169 1.216 . S
C309 C7 1.669 . S
C311 C37 1.670 . S
C320 C73 1.667 . S
C322 C59 1.667 . S
C331 C125 1.667 . S
C333 C95 1.670 . S
C342 C161 1.666 . S
C344 C147 1.668 . S
C353 C10 1.345 . S
C355 C87 1.414 . S
C364 C30 1.346 . S
C366 C51 1.413 . S
C375 C29 1.410 . S
C377 C52 1.353 . S
C386 C21 1.410 . S
C388 C76 1.354 . S
C397 C98 1.344 . S
C399 C175 1.414 . S
C408 C139 1.409 . S
C410 C118 1.354 . S
C419 C117 1.410 . S
C421 C140 1.353 . S
C430 C164 1.356 . S
C432 C109 1.410 . S
