# Generated by pormake.
# Topology umf, (4)-cn, num edge types: 1
# Building blocks:
#     Node 0, Type 0, BuildingBlock: QUQFOY_clean_sbu_3, # of connection points: 4
#     Node 1, Type 0, BuildingBlock: QUQFOY_clean_sbu_3, # of connection points: 4
#     Node 2, Type 0, BuildingBlock: QUQFOY_clean_sbu_3, # of connection points: 4
#     Node 3, Type 0, BuildingBlock: QUQFOY_clean_sbu_3, # of connection points: 4
#     Node 4, Type 0, BuildingBlock: QUQFOY_clean_sbu_3, # of connection points: 4
#     Node 5, Type 0, BuildingBlock: QUQFOY_clean_sbu_3, # of connection points: 4
#     Node 6, Type 0, BuildingBlock: QUQFOY_clean_sbu_3, # of connection points: 4
#     Node 7, Type 0, BuildingBlock: QUQFOY_clean_sbu_3, # of connection points: 4
#     Edge 8, Type (0, 0), BuildingBlock: XUDNAN_clean_linker_2, # of connection points: 2
#     Edge 9, Type (0, 0), BuildingBlock: XUDNAN_clean_linker_2, # of connection points: 2
#     Edge 10, Type (0, 0), BuildingBlock: XUDNAN_clean_linker_2, # of connection points: 2
#     Edge 11, Type (0, 0), BuildingBlock: XUDNAN_clean_linker_2, # of connection points: 2
#     Edge 12, Type (0, 0), BuildingBlock: XUDNAN_clean_linker_2, # of connection points: 2
#     Edge 13, Type (0, 0), BuildingBlock: XUDNAN_clean_linker_2, # of connection points: 2
#     Edge 14, Type (0, 0), BuildingBlock: XUDNAN_clean_linker_2, # of connection points: 2
#     Edge 15, Type (0, 0), BuildingBlock: XUDNAN_clean_linker_2, # of connection points: 2
#     Edge 16, Type (0, 0), BuildingBlock: XUDNAN_clean_linker_2, # of connection points: 2
#     Edge 17, Type (0, 0), BuildingBlock: XUDNAN_clean_linker_2, # of connection points: 2
#     Edge 18, Type (0, 0), BuildingBlock: XUDNAN_clean_linker_2, # of connection points: 2
#     Edge 19, Type (0, 0), BuildingBlock: XUDNAN_clean_linker_2, # of connection points: 2
#     Edge 20, Type (0, 0), BuildingBlock: XUDNAN_clean_linker_2, # of connection points: 2
#     Edge 21, Type (0, 0), BuildingBlock: XUDNAN_clean_linker_2, # of connection points: 2
#     Edge 22, Type (0, 0), BuildingBlock: XUDNAN_clean_linker_2, # of connection points: 2
#     Edge 23, Type (0, 0), BuildingBlock: XUDNAN_clean_linker_2, # of connection points: 2
# Relax obj value: 0.168
# Max RMSD: 0.287
# Mean RMSD: 0.287
data_MOF--net-umf--node1-QUQFOY_clean_sbu_3--edge1-XUDNAN_clean_linker_2
_symmetry_space_group_name_H-M    P1
_symmetry_Int_Tables_number       1
_symmetry_cell_setting            triclinic
loop_
_symmetry_equiv_pos_as_xyz
'x, y, z'
_cell_length_a     29.273448
_cell_length_b     29.091909
_cell_length_c     52.989607
_cell_angle_alpha  90.126274
_cell_angle_beta   90.051725
_cell_angle_gamma 89.988475
loop_
_atom_site_label
_atom_site_type_symbol
_atom_site_fract_x
_atom_site_fract_y
_atom_site_fract_z
_atom_type_partial_charge
C0 C 0.16553 0.22981 0.15515 0.0
O1 O 0.17064 0.20102 0.13732 0.0
Cd2 Cd 0.11274 0.19311 0.10468 0.0
O3 O 0.13093 0.25607 0.15564 0.0
Cd4 Cd 0.06182 0.27724 0.13277 0.0
C5 C 0.0233 0.17099 0.14525 0.0
O6 O 0.08603 0.26568 0.08918 0.0
O7 O 0.0136 0.27544 0.09542 0.0
O8 O 0.08915 0.35396 0.14104 0.0
C9 C 0.04594 0.26852 0.07996 0.0
O10 O 0.05004 0.15796 0.12769 0.0
C11 C 0.0526 0.36817 0.15129 0.0
O12 O 0.02223 0.21256 0.15286 0.0
O13 O 0.01939 0.34002 0.15253 0.0
C14 C 0.74316 0.16241 0.66627 0.0
O15 O 0.76331 0.18245 0.6482 0.0
Cd16 Cd 0.79407 0.13345 0.6151 0.0
O17 O 0.73542 0.11956 0.6649 0.0
Cd18 Cd 0.74214 0.05482 0.6356 0.0
C19 C 0.85365 0.05361 0.64903 0.0
O20 O 0.7383 0.08711 0.5925 0.0
O21 O 0.76284 0.01711 0.59672 0.0
O22 O 0.66124 0.04969 0.64194 0.0
C23 C 0.74966 0.04909 0.58221 0.0
O24 O 0.85526 0.08806 0.63427 0.0
C25 C 0.66084 0.00812 0.64909 0.0
O26 O 0.81553 0.03488 0.65431 0.0
O27 O 0.69914 -0.01249 0.65027 0.0
C28 C 0.80036 0.74874 0.16726 0.0
O29 O 0.78349 0.76216 0.14651 0.0
Cd30 Cd 0.84002 0.79471 0.11768 0.0
O31 O 0.84335 0.74819 0.16995 0.0
Cd32 Cd 0.91346 0.75962 0.14637 0.0
C33 C 0.89796 0.87088 0.15476 0.0
O34 O 0.9012 0.74761 0.09993 0.0
O35 O 0.96178 0.78384 0.11311 0.0
O36 O 0.92065 0.68021 0.15606 0.0
C37 C 0.94079 0.76404 0.09519 0.0
O38 O 0.86969 0.86481 0.13679 0.0
C39 C 0.95977 0.68246 0.16626 0.0
O40 O 0.91881 0.83675 0.16441 0.0
O41 O 0.97835 0.72196 0.16775 0.0
C42 C 0.23027 0.78287 0.66546 0.0
O43 O 0.2046 0.7654 0.64872 0.0
Cd44 Cd 0.18128 0.81767 0.61541 0.0
O45 O 0.24598 0.82312 0.66255 0.0
Cd46 Cd 0.25194 0.88737 0.6334 0.0
C47 C 0.14558 0.90929 0.65176 0.0
O48 O 0.24098 0.85471 0.59076 0.0
O49 O 0.23506 0.92869 0.59561 0.0
O50 O 0.33075 0.86733 0.63748 0.0
C51 C 0.23582 0.89434 0.58083 0.0
O52 O 0.13642 0.87393 0.63853 0.0
C53 C 0.34462 0.90651 0.64465 0.0
O54 O 0.18642 0.92372 0.65425 0.0
O55 O 0.315 0.93851 0.64619 0.0
C56 C 0.16703 0.73893 0.839 0.0
O57 O 0.18566 0.75757 0.85806 0.0
Cd58 Cd 0.13124 0.78495 0.889 0.0
O59 O 0.125 0.72831 0.83975 0.0
Cd60 Cd 0.05832 0.72172 0.86728 0.0
C61 C 0.04772 0.83016 0.84982 0.0
O62 O 0.08869 0.72527 0.91064 0.0
O63 O 0.01592 0.73628 0.90535 0.0
O64 O 0.0745 0.64302 0.85817 0.0
C65 C 0.04938 0.73194 0.92038 0.0
O66 O 0.0828 0.83559 0.86374 0.0
C67 C 0.03457 0.6323 0.851 0.0
O68 O 0.02911 0.79091 0.84722 0.0
O69 O 0.00402 0.66344 0.85195 0.0
C70 C 0.22798 0.1366 0.32331 0.0
O71 O 0.24044 0.1528 0.34443 0.0
Cd72 Cd 0.19721 0.09774 0.37001 0.0
O73 O 0.21087 0.09662 0.32282 0.0
Cd74 Cd 0.22919 0.04097 0.35632 0.0
C75 C 0.12914 0.03196 0.33521 0.0
O76 O 0.22332 0.04813 0.40377 0.0
O77 O 0.21544 0.9813 0.38523 0.0
O78 O 0.30565 0.0689 0.35243 0.0
C79 C 0.21934 0.00434 0.40553 0.0
O80 O 0.12976 0.06972 0.34733 0.0
C81 C 0.32117 0.03255 0.34222 0.0
O82 O 0.16479 0.00712 0.33454 0.0
O83 O 0.29364 -0.00091 0.33898 0.0
C84 C 0.78442 0.22489 0.837 0.0
O85 O 0.77103 0.2001 0.85516 0.0
Cd86 Cd 0.83164 0.17441 0.88359 0.0
O87 O 0.82596 0.23663 0.83569 0.0
Cd88 Cd 0.8971 0.23009 0.85874 0.0
C89 C 0.90215 0.12022 0.84236 0.0
O90 O 0.88449 0.2271 0.90533 0.0
O91 O 0.94811 0.20151 0.88957 0.0
O92 O 0.89949 0.31244 0.85662 0.0
C93 C 0.9257 0.21394 0.90887 0.0
O94 O 0.87326 0.11587 0.86013 0.0
C95 C 0.93648 0.31493 0.84426 0.0
O96 O 0.91599 0.15993 0.83584 0.0
O97 O 0.95596 0.27724 0.83852 0.0
C98 C 0.72412 0.79639 0.33437 0.0
O99 O 0.74806 0.78187 0.35262 0.0
Cd100 Cd 0.77718 0.84202 0.38054 0.0
O101 O 0.71423 0.83867 0.33309 0.0
Cd102 Cd 0.72308 0.91007 0.35636 0.0
C103 C 0.83106 0.91016 0.33813 0.0
O104 O 0.72689 0.89612 0.40299 0.0
O105 O 0.7496 0.96156 0.38762 0.0
O106 O 0.64178 0.91312 0.35224 0.0
C107 C 0.73863 0.93796 0.40674 0.0
O108 O 0.83539 0.88081 0.35574 0.0
C109 C 0.64046 0.95156 0.34101 0.0
O110 O 0.79196 0.92637 0.33267 0.0
O111 O 0.6783 0.97166 0.33694 0.0
H112 H 0.97486 0.41424 0.16434 0.0
H113 H 0.12179 0.42989 0.15834 0.0
H114 H 0.11477 0.51181 0.16988 0.0
H115 H 0.94793 0.5139 0.13452 0.0
H116 H 0.8987 0.52778 0.15348 0.0
H117 H 0.91618 0.46898 0.14999 0.0
H118 H 0.92138 0.46101 0.19866 0.0
H119 H 0.90402 0.52012 0.20227 0.0
H120 H 0.95648 0.50041 0.21642 0.0
H121 H 0.09098 0.59377 0.17594 0.0
H122 H 0.05179 0.66899 0.17306 0.0
H123 H 0.92078 0.59952 0.17461 0.0
C124 C 0.00564 0.4346 0.16619 0.0
C125 C 0.04882 0.41579 0.1606 0.0
C126 C 0.08831 0.44371 0.16261 0.0
C127 C 0.08472 0.49017 0.16935 0.0
C128 C 0.04146 0.50806 0.17415 0.0
C129 C 0.0026 0.48106 0.17269 0.0
C130 C 0.95976 0.50961 0.17538 0.0
C131 C 0.92888 0.50479 0.15195 0.0
C132 C 0.93389 0.49703 0.19963 0.0
C133 C 0.98048 0.55708 0.17729 0.0
C134 C 0.02765 0.55552 0.17724 0.0
C135 C 0.05406 0.59545 0.17652 0.0
C136 C 0.03159 0.638 0.17494 0.0
C137 C -0.01662 0.63988 0.17365 0.0
C138 C 0.95772 0.59903 0.17576 0.0
H139 H 0.39081 -0.01163 0.64824 0.0
H140 H 0.40842 0.84059 0.65371 0.0
H141 H 0.49106 0.85118 0.66039 0.0
H142 H 0.48825 0.00826 0.61256 0.0
H143 H 0.50292 0.06219 0.62729 0.0
H144 H 0.44437 0.04359 0.62652 0.0
H145 H 0.43988 0.05078 0.67524 0.0
H146 H 0.49856 0.06948 0.67614 0.0
H147 H 0.48077 0.02064 0.69455 0.0
H148 H 0.57236 0.87697 0.66252 0.0
H149 H 0.64679 0.91648 0.65843 0.0
H150 H 0.57626 0.04703 0.65091 0.0
C151 C 0.41196 0.95838 0.6514 0.0
C152 C 0.39329 0.91374 0.65057 0.0
C153 C 0.4221 0.87517 0.65427 0.0
C154 C 0.46904 0.8808 0.65823 0.0
C155 C 0.48662 0.92521 0.65846 0.0
C156 C 0.45901 0.96337 0.65517 0.0
C157 C 0.48704 0.00697 0.65397 0.0
C158 C 0.48024 0.03167 0.62858 0.0
C159 C 0.47589 0.03884 0.67631 0.0
C160 C 0.53465 -0.01284 0.65629 0.0
C161 C 0.5337 0.94005 0.6593 0.0
C162 C 0.57361 0.91395 0.6605 0.0
C163 C 0.61568 0.93663 0.65815 0.0
C164 C 0.61724 -0.01527 0.65438 0.0
C165 C 0.57617 0.01022 0.65391 0.0
H166 H 0.89703 0.39897 0.85055 0.0
H167 H 0.02096 0.33251 0.8242 0.0
H168 H 0.05645 0.40871 0.81784 0.0
H169 H 0.90348 0.50096 0.80816 0.0
H170 H 0.88166 0.53866 0.83236 0.0
H171 H 0.86397 0.47933 0.83135 0.0
H172 H 0.89071 0.46889 0.87763 0.0
H173 H 0.90862 0.52795 0.87876 0.0
H174 H 0.94879 0.48289 0.88601 0.0
H175 H 0.08176 0.4903 0.82039 0.0
H176 H 0.0947 0.57216 0.83027 0.0
H177 H 0.95338 0.58595 0.85362 0.0
C178 C 0.93131 0.40041 0.84293 0.0
C179 C 0.95634 0.35994 0.83786 0.0
C180 C 0.00118 0.36318 0.8281 0.0
C181 C 0.02153 0.40626 0.82437 0.0
C182 C -0.00376 0.44551 0.83015 0.0
C183 C 0.95192 0.443 0.83896 0.0
C184 C 0.93336 0.49004 0.84565 0.0
C185 C 0.89324 0.50301 0.82834 0.0
C186 C 0.91959 0.49256 0.87367 0.0
C187 C 0.97487 0.5193 0.84027 0.0
C188 C 0.0106 0.49298 0.8311 0.0
C189 C 0.0538 0.51144 0.82702 0.0
C190 C 0.06085 0.55784 0.83282 0.0
C191 C 0.02485 0.58519 0.84248 0.0
C192 C -0.01889 0.56594 0.84572 0.0
H193 H 0.37156 0.95453 0.33645 0.0
H194 H 0.3801 0.10325 0.33353 0.0
H195 H 0.46328 0.098 0.32632 0.0
H196 H 0.46737 0.93966 0.37244 0.0
H197 H 0.48607 0.8871 0.35763 0.0
H198 H 0.42652 0.90203 0.35748 0.0
H199 H 0.42497 0.89599 0.30865 0.0
H200 H 0.48469 0.88085 0.30865 0.0
H201 H 0.46499 0.929 0.29026 0.0
H202 H 0.5461 0.077 0.32436 0.0
H203 H 0.62236 0.04194 0.33047 0.0
H204 H 0.55922 0.90751 0.33652 0.0
C205 C 0.39079 -0.01413 0.33352 0.0
C206 C 0.36964 0.02922 0.33531 0.0
C207 C 0.39589 0.06966 0.33214 0.0
C208 C 0.44301 0.06702 0.32786 0.0
C209 C 0.46318 0.02371 0.32685 0.0
C210 C 0.43788 -0.01616 0.32962 0.0
C211 C 0.46829 0.94197 0.33103 0.0
C212 C 0.46167 0.91622 0.35614 0.0
C213 C 0.46025 0.91008 0.30829 0.0
C214 C 0.51462 0.96467 0.32966 0.0
C215 C 0.51106 0.01168 0.32661 0.0
C216 C 0.5494 0.04014 0.32638 0.0
C217 C 0.59248 0.02001 0.32987 0.0
C218 C 0.59642 0.97217 0.33402 0.0
C219 C 0.5571 0.94422 0.33335 0.0
H220 H 0.8927 0.2458 0.95492 0.0
H221 H 0.01295 0.188 0.91875 0.0
H222 H 0.05621 0.19666 0.95811 0.0
H223 H 0.95142 0.32955 0.99229 0.0
H224 H 0.91582 0.32281 0.01977 0.0
H225 H 0.8929 0.31123 0.98885 0.0
H226 H 0.86982 0.22923 0.00293 0.0
H227 H 0.89232 0.24072 0.03397 0.0
H228 H 0.91242 0.19171 0.01632 0.0
H229 H 0.08832 0.21451 0.00033 0.0
H230 H 0.1053 0.23515 0.04457 0.0
H231 H 0.96478 0.27946 0.05456 0.0
C232 C 0.92796 0.23459 0.9554 0.0
C233 C 0.94931 0.21637 0.93362 0.0
C234 C -0.00435 0.20218 0.93506 0.0
C235 C 0.02072 0.207 0.95736 0.0
C236 C -0.00092 0.22578 0.97829 0.0
C237 C 0.95367 0.23889 0.97771 0.0
C238 C 0.93901 0.25792 0.00314 0.0
C239 C 0.9239 0.30837 0.00086 0.0
C240 C 0.90115 0.22811 0.01478 0.0
C241 C -0.01664 0.25372 0.01785 0.0
C242 C 0.01758 0.2353 0.00306 0.0
C243 C 0.06177 0.22874 0.0122 0.0
C244 C 0.07116 0.24075 0.03731 0.0
C245 C 0.03644 0.25884 0.05303 0.0
C246 C -0.00795 0.26558 0.04303 0.0
H247 H 0.75789 0.9672 0.55681 0.0
H248 H 0.73119 0.11252 0.54546 0.0
H249 H 0.72338 0.0987 0.49961 0.0
H250 H 0.82392 0.949 0.50072 0.0
H251 H 0.80086 0.89264 0.49454 0.0
H252 H 0.80412 0.91382 0.52645 0.0
H253 H 0.71732 0.89984 0.53197 0.0
H254 H 0.71374 0.87875 0.50004 0.0
H255 H 0.67773 0.92559 0.51009 0.0
H256 H 0.7212 0.06999 0.45535 0.0
H257 H 0.72297 0.02832 0.41495 0.0
H258 H 0.74795 0.90028 0.45456 0.0
C259 C 0.75045 -0.00383 0.54469 0.0
C260 C 0.74529 0.04107 0.55471 0.0
C261 C 0.7353 0.07793 0.53822 0.0
C262 C 0.73078 0.07037 0.51217 0.0
C263 C 0.73598 0.02572 0.50297 0.0
C264 C 0.74542 -0.01083 0.51868 0.0
C265 C 0.74934 0.94457 0.50388 0.0
C266 C 0.79742 0.9238 0.50656 0.0
C267 C 0.71232 0.91016 0.51198 0.0
C268 C 0.74097 0.96183 0.47729 0.0
C269 C 0.73351 0.00881 0.47731 0.0
C270 C 0.7267 0.03321 0.45511 0.0
C271 C 0.7279 0.00916 0.43224 0.0
C272 C 0.73547 0.96101 0.43161 0.0
C273 C 0.74156 0.93694 0.4545 0.0
H274 H 0.90333 0.74761 0.04797 0.0
H275 H 0.03227 0.765 0.08739 0.0
H276 H 0.07388 0.75533 0.04743 0.0
H277 H 0.94288 0.66289 0.00196 0.0
H278 H 0.91005 0.68687 0.97638 0.0
H279 H 0.88994 0.69234 0.00838 0.0
H280 H 0.88581 0.7808 0.00322 0.0
H281 H 0.9059 0.77557 0.97123 0.0
H282 H 0.93598 0.81182 0.99331 0.0
H283 H 0.10213 0.74484 0.00339 0.0
H284 H 0.11455 0.73813 0.95738 0.0
H285 H 0.96786 0.73082 0.94584 0.0
C286 C 0.94029 0.7489 0.04815 0.0
C287 C 0.96451 0.75691 0.07082 0.0
C288 C 0.01291 0.75906 0.07026 0.0
C289 C 0.03696 0.75342 0.04766 0.0
C290 C 0.01224 0.74601 0.02562 0.0
C291 C 0.965 0.74401 0.02557 0.0
C292 C 0.94693 0.73795 -0.00106 0.0
C293 C 0.92092 0.69229 0.99626 0.0
C294 C 0.91689 0.77899 0.99123 0.0
C295 C -0.00867 0.73709 0.98418 0.0
C296 C 0.0286 0.7413 -2e-05 0.0
C297 C 0.07323 0.7415 0.99077 0.0
C298 C 0.07997 0.73761 0.96464 0.0
C299 C 0.04227 0.73406 0.94802 0.0
C300 C -0.00257 0.73361 0.95805 0.0
H301 H 0.2248 0.04129 0.4536 0.0
H302 H 0.21664 0.91172 0.41296 0.0
H303 H 0.21969 0.86961 0.45311 0.0
H304 H 0.30315 0.00302 0.50143 0.0
H305 H 0.27643 0.03527 0.52647 0.0
H306 H 0.27326 0.05569 0.49445 0.0
H307 H 0.1849 0.05772 0.49734 0.0
H308 H 0.18783 0.03736 0.52938 0.0
H309 H 0.15441 0.00647 0.50634 0.0
H310 H 0.225 0.8409 0.49763 0.0
H311 H 0.23048 0.82839 0.54373 0.0
H312 H 0.23401 0.97612 0.55546 0.0
C313 C 0.22358 0.0041 0.45317 0.0
C314 C 0.22052 0.97993 0.43007 0.0
C315 C 0.21897 0.93117 0.43036 0.0
C316 C 0.22071 0.9068 0.4531 0.0
C317 C 0.22385 0.93155 0.4755 0.0
C318 C 0.22512 0.97909 0.47578 0.0
C319 C 0.22846 -0.0028 0.50254 0.0
C320 C 0.27298 0.02439 0.50644 0.0
C321 C 0.18639 0.02641 0.50929 0.0
C322 C 0.22904 0.95244 0.51714 0.0
C323 C 0.22644 0.91495 0.50121 0.0
C324 C 0.22693 0.87 0.51035 0.0
C325 C 0.23011 0.86319 0.53653 0.0
C326 C 0.2326 0.90117 0.5532 0.0
C327 C 0.232 0.94629 0.54325 0.0
H328 H 0.20361 0.15402 0.17629 0.0
H329 H 0.18833 0.30098 0.18626 0.0
H330 H 0.21765 0.29459 0.22983 0.0
H331 H 0.15714 0.12613 0.23111 0.0
H332 H 0.1925 0.07716 0.23835 0.0
H333 H 0.18438 0.09411 0.20613 0.0
H334 H 0.2719 0.1012 0.19994 0.0
H335 H 0.28049 0.08337 0.23217 0.0
H336 H 0.30482 0.1366 0.22119 0.0
H337 H 0.23368 0.27038 0.27451 0.0
H338 H 0.23392 0.2302 0.31578 0.0
H339 H 0.23422 0.09911 0.27671 0.0
C340 C 0.20893 0.1851 0.1872 0.0
C341 C 0.1947 0.22806 0.17783 0.0
C342 C 0.19984 0.26783 0.19303 0.0
C343 C 0.21648 0.26451 0.21779 0.0
C344 C 0.22769 0.22116 0.22708 0.0
C345 C 0.22451 0.18215 0.21211 0.0
C346 C 0.23082 0.13896 0.22757 0.0
C347 C 0.18871 0.10729 0.22567 0.0
C348 C 0.27462 0.11354 0.21975 0.0
C349 C 0.23549 0.15957 0.25365 0.0
C350 C 0.23495 0.20702 0.25303 0.0
C351 C 0.2351 0.23323 0.27518 0.0
C352 C 0.23511 0.21024 0.29852 0.0
C353 C 0.23387 0.16169 0.29936 0.0
C354 C 0.23515 0.13633 0.27662 0.0
H355 H 0.72925 0.16392 0.81302 0.0
H356 H 0.78047 0.30318 0.80943 0.0
H357 H 0.75728 0.30812 0.7648 0.0
H358 H 0.77579 0.12915 0.76103 0.0
H359 H 0.7315 0.09151 0.74949 0.0
H360 H 0.73556 0.10354 0.78259 0.0
H361 H 0.65204 0.13278 0.78324 0.0
H362 H 0.64721 0.1199 0.75003 0.0
H363 H 0.63438 0.17686 0.76146 0.0
H364 H 0.75012 0.29089 0.71923 0.0
H365 H 0.7554 0.25419 0.67725 0.0
H366 H 0.70927 0.12552 0.70967 0.0
C367 C 0.73255 0.19639 0.80324 0.0
C368 C 0.7556 0.23351 0.81469 0.0
C369 C 0.76193 0.27475 0.80104 0.0
C370 C 0.74893 0.27779 0.77565 0.0
C371 C 0.72952 0.2393 0.76418 0.0
C372 C 0.72043 0.19956 0.77768 0.0
C373 C 0.70748 0.16043 0.76014 0.0
C374 C 0.73951 0.11878 0.76352 0.0
C375 C 0.65729 0.1467 0.76394 0.0
C376 C 0.71435 0.18326 0.73476 0.0
C377 C 0.72581 0.22907 0.73743 0.0
C378 C 0.73972 0.25546 0.71682 0.0
C379 C 0.74287 0.23427 0.69304 0.0
C380 C 0.73255 0.18704 0.6901 0.0
C381 C 0.71668 0.16188 0.71116 0.0
H382 H 0.7811 0.73429 0.31262 0.0
H383 H 0.64907 0.79927 0.30422 0.0
H384 H 0.64617 0.77482 0.2597 0.0
H385 H 0.82519 0.77576 0.26184 0.0
H386 H 0.85916 0.72737 0.25181 0.0
H387 H 0.84419 0.73349 0.28439 0.0
H388 H 0.80701 0.65275 0.2843 0.0
H389 H 0.82264 0.64587 0.25158 0.0
H390 H 0.76397 0.63892 0.26114 0.0
H391 H 0.66693 0.76423 0.21468 0.0
H392 H 0.70868 0.76656 0.17417 0.0
H393 H 0.82786 0.70908 0.2111 0.0
C394 C 0.75032 0.74051 0.30181 0.0
C395 C 0.71495 0.76779 0.31189 0.0
C396 C 0.67613 0.77762 0.2969 0.0
C397 C 0.67424 0.76386 0.27155 0.0
C398 C 0.71137 0.74013 0.26146 0.0
C399 C 0.74843 0.72769 0.27629 0.0
C400 C 0.78757 0.71046 0.26014 0.0
C401 C 0.83154 0.73848 0.26482 0.0
C402 C 0.79576 0.65893 0.26455 0.0
C403 C 0.76831 0.71896 0.23403 0.0
C404 C 0.7238 0.73462 0.23508 0.0
C405 C 0.70126 0.7506 0.21354 0.0
C406 C 0.72524 0.75191 0.19057 0.0
C407 C 0.77149 0.73799 0.18945 0.0
C408 C 0.79237 0.71957 0.21128 0.0
H409 H 0.17123 0.72777 0.69131 0.0
H410 H 0.30513 0.79065 0.6955 0.0
H411 H 0.30993 0.77125 0.74068 0.0
H412 H 0.13133 0.77404 0.74393 0.0
H413 H 0.09768 0.72619 0.75488 0.0
H414 H 0.10978 0.73202 0.72186 0.0
H415 H 0.14561 0.6506 0.72094 0.0
H416 H 0.13303 0.64416 0.75406 0.0
H417 H 0.19061 0.63635 0.74282 0.0
H418 H 0.29303 0.76199 0.78637 0.0
H419 H 0.25647 0.76128 0.8284 0.0
H420 H 0.13347 0.70444 0.79485 0.0
C421 C 0.20251 0.73509 0.70147 0.0
C422 C 0.23806 0.76004 0.68993 0.0
C423 C 0.27773 0.77104 0.70401 0.0
C424 C 0.2808 0.76007 0.72968 0.0
C425 C 0.24398 0.7379 0.74099 0.0
C426 C 0.2058 0.72485 0.72725 0.0
C427 C 0.16808 0.70821 0.7445 0.0
C428 C 0.12418 0.73684 0.74109 0.0
C429 C 0.1588 0.65676 0.74033 0.0
C430 C 0.18989 0.71673 0.77001 0.0
C431 C 0.23404 0.73284 0.76765 0.0
C432 C 0.25895 0.74816 0.78853 0.0
C433 C 0.23787 0.74781 0.81234 0.0
C434 C 0.1922 0.73264 0.81499 0.0
C435 C 0.16866 0.71567 0.79358 0.0
H436 H 0.95166 0.1281 0.1239 0.0
H437 H 0.03418 0.13273 0.19158 0.0
H438 H 5e-05 0.05923 0.20577 0.0
H439 H 0.84814 0.06755 0.1537 0.0
H440 H 0.8389 0.03546 0.12501 0.0
H441 H 0.86136 0.09311 0.12362 0.0
H442 H 0.93047 0.06314 0.09788 0.0
H443 H 0.90886 0.00554 0.09952 0.0
H444 H 0.96562 0.01804 0.11083 0.0
H445 H 0.97118 0.97781 0.20702 0.0
H446 H 0.94487 0.89893 0.19718 0.0
H447 H 0.8782 0.94974 0.12962 0.0
C448 C 0.96056 0.11466 0.14232 0.0
C449 C -0.00554 0.13604 0.15702 0.0
C450 C 0.00716 0.1171 0.18052 0.0
C451 C -0.01192 0.07538 0.18862 0.0
C452 C 0.95592 0.05384 0.17313 0.0
C453 C 0.94138 0.07352 0.15074 0.0
C454 C 0.91073 0.04135 0.13604 0.0
C455 C 0.86187 0.06051 0.13452 0.0
C456 C 0.93012 0.03144 0.10953 0.0
C457 C 0.91279 -0.00066 0.15271 0.0
C458 C 0.93844 0.00723 0.17421 0.0
C459 C 0.94982 0.97163 0.19069 0.0
C460 C 0.935 0.9269 0.18487 0.0
C461 C 0.90911 0.91829 0.16277 0.0
C462 C 0.89704 0.95532 0.14696 0.0
H463 H 0.11635 -0.00467 0.64068 0.0
H464 H 0.08641 0.87583 0.68619 0.0
H465 H 0.01102 0.90843 0.69712 0.0
H466 H 0.04577 0.08287 0.67867 0.0
H467 H 0.02744 0.11058 0.65 0.0
H468 H 0.08335 0.08472 0.65175 0.0
H469 H 0.0646 0.03584 0.61216 0.0
H470 H 0.00862 0.06083 0.61049 0.0
H471 H 0.01486 -0.00072 0.61232 0.0
H472 H 0.93476 0.94507 0.6959 0.0
H473 H 0.8633 0.98336 0.68306 0.0
H474 H 0.94124 0.07839 0.63699 0.0
C475 C 0.09475 0.97751 0.65405 0.0
C476 C 0.10725 0.93395 0.66329 0.0
C477 C 0.0775 0.90988 0.67955 0.0
C478 C 0.03472 0.92814 0.68582 0.0
C479 C 0.02223 0.97033 0.67548 0.0
C480 C 0.05153 -0.00499 0.6601 0.0
C481 C 0.02723 0.03544 0.6481 0.0
C482 C 0.04713 0.08111 0.65771 0.0
C483 C 0.02893 0.03262 0.61906 0.0
C484 C 0.97925 0.02805 0.65794 0.0
C485 C 0.97731 -0.00899 0.67418 0.0
C486 C 0.93597 0.9748 0.68369 0.0
C487 C 0.8955 -0.00339 0.67615 0.0
C488 C 0.89662 0.03395 0.65906 0.0
C489 C 0.93923 0.05035 0.65035 0.0
H490 H 0.87272 0.03158 0.84688 0.0
H491 H 0.98059 0.11474 0.81437 0.0
H492 H 0.02424 0.04447 0.80461 0.0
H493 H 0.93855 0.95985 0.87872 0.0
H494 H 0.90618 0.90789 0.87375 0.0
H495 H 0.87813 0.96263 0.87221 0.0
H496 H 0.84896 0.9441 0.82716 0.0
H497 H 0.8766 0.88875 0.82863 0.0
H498 H 0.88905 0.92742 0.80301 0.0
H499 H 0.06378 0.9698 0.80878 0.0
H500 H 0.09349 0.89481 0.8232 0.0
H501 H 0.95912 0.858 0.85054 0.0
C502 C 0.90474 0.03489 0.83683 0.0
C503 C 0.92333 0.07858 0.83144 0.0
C504 C 0.96553 0.08161 0.81854 0.0
C505 C -0.00944 0.04183 0.81287 0.0
C506 C 0.97238 -0.00066 0.81969 0.0
C507 C 0.92989 -0.0045 0.83086 0.0
C508 C 0.92049 0.9466 0.83913 0.0
C509 C 0.91028 0.94415 0.86763 0.0
C510 C 0.88146 0.92547 0.82354 0.0
C511 C 0.96573 0.9243 0.83273 0.0
C512 C -0.00508 0.95514 0.82111 0.0
C513 C 0.0408 0.9448 0.81695 0.0
C514 C 0.05745 0.90234 0.82531 0.0
C515 C 0.02817 0.87068 0.8374 0.0
C516 C -0.01844 0.88118 0.84047 0.0
H517 H 0.91663 0.87328 0.33877 0.0
H518 H 0.83879 -0.01083 0.31051 0.0
H519 H 0.91032 0.02716 0.29767 0.0
H520 H -0.00258 0.93225 0.36755 0.0
H521 H 0.04526 0.89555 0.36022 0.0
H522 H -0.01134 0.87207 0.36087 0.0
H523 H -0.0019 0.84249 0.31501 0.0
H524 H 0.05524 0.86563 0.31426 0.0
H525 H 0.01439 0.88196 0.29043 0.0
H526 H -0.01221 0.06052 0.29887 0.0
H527 H 0.06592 0.08406 0.31091 0.0
H528 H 0.09502 0.94541 0.33573 0.0
C529 C 0.91459 0.9059 0.32903 0.0
C530 C 0.87231 0.9284 0.32572 0.0
C531 C 0.87086 0.97121 0.31312 0.0
C532 C 0.91133 -0.00702 0.30568 0.0
C533 C 0.95274 0.97095 0.31043 0.0
C534 C 0.95462 0.9278 0.3213 0.0
C535 C 0.00326 0.9141 0.32741 0.0
C536 C 0.00894 0.90289 0.35567 0.0
C537 C 0.01865 0.87365 0.31078 0.0
C538 C 0.02803 0.9578 0.32031 0.0
C539 C -0.00159 -0.01012 0.31007 0.0
C540 C 0.01171 0.03524 0.30591 0.0
C541 C 0.05595 0.0484 0.31294 0.0
C542 C 0.08631 0.01618 0.32374 0.0
C543 C 0.07274 0.97008 0.32664 0.0
loop_
_geom_bond_atom_site_label_1
_geom_bond_atom_site_label_2
_geom_bond_distance
_geom_bond_site_symmetry_2
_ccdc_geom_bond_type
C0 O1 1.306 . S
C0 O3 1.160 . S
O1 C0 1.306 . S
O1 Cd2 2.228 . S
Cd2 O1 2.228 . S
Cd2 O6 2.273 . S
Cd2 O10 2.277 . S
O3 C0 1.160 . S
O3 Cd4 2.203 . S
Cd4 O3 2.203 . S
Cd4 O6 2.411 . S
Cd4 O7 2.333 . S
Cd4 O8 2.352 . S
Cd4 O12 2.277 . S
Cd4 O13 2.356 . S
C5 O10 1.209 . S
C5 O12 1.226 . S
O6 Cd2 2.273 . S
O6 Cd4 2.411 . S
O6 C9 1.320 . S
O7 Cd4 2.333 . S
O7 C9 1.214 . S
O8 Cd4 2.352 . S
O8 C11 1.258 . S
C9 O6 1.320 . S
C9 O7 1.214 . S
O10 Cd2 2.277 . S
O10 C5 1.209 . S
C11 O8 1.258 . S
C11 O13 1.282 . S
O12 Cd4 2.277 . S
O12 C5 1.226 . S
O13 Cd4 2.356 . S
O13 C11 1.282 . S
C14 O15 1.306 . S
C14 O17 1.160 . S
O15 C14 1.306 . S
O15 Cd16 2.228 . S
Cd16 O15 2.228 . S
Cd16 O20 2.273 . S
Cd16 O24 2.277 . S
O17 C14 1.160 . S
O17 Cd18 2.203 . S
Cd18 O17 2.203 . S
Cd18 O20 2.411 . S
Cd18 O21 2.333 . S
Cd18 O22 2.352 . S
Cd18 O26 2.277 . S
Cd18 O27 2.356 . S
C19 O24 1.209 . S
C19 O26 1.226 . S
O20 Cd16 2.273 . S
O20 Cd18 2.411 . S
O20 C23 1.320 . S
O21 Cd18 2.333 . S
O21 C23 1.214 . S
O22 Cd18 2.352 . S
O22 C25 1.258 . S
C23 O20 1.320 . S
C23 O21 1.214 . S
O24 Cd16 2.277 . S
O24 C19 1.209 . S
C25 O22 1.258 . S
C25 O27 1.282 . S
O26 Cd18 2.277 . S
O26 C19 1.226 . S
O27 Cd18 2.356 . S
O27 C25 1.282 . S
C28 O29 1.306 . S
C28 O31 1.160 . S
O29 C28 1.306 . S
O29 Cd30 2.228 . S
Cd30 O29 2.228 . S
Cd30 O34 2.273 . S
Cd30 O38 2.277 . S
O31 C28 1.160 . S
O31 Cd32 2.203 . S
Cd32 O31 2.203 . S
Cd32 O34 2.411 . S
Cd32 O35 2.333 . S
Cd32 O36 2.352 . S
Cd32 O40 2.277 . S
Cd32 O41 2.356 . S
C33 O38 1.209 . S
C33 O40 1.226 . S
O34 Cd30 2.273 . S
O34 Cd32 2.411 . S
O34 C37 1.320 . S
O35 Cd32 2.333 . S
O35 C37 1.214 . S
O36 Cd32 2.352 . S
O36 C39 1.258 . S
C37 O34 1.320 . S
C37 O35 1.214 . S
O38 Cd30 2.277 . S
O38 C33 1.209 . S
C39 O36 1.258 . S
C39 O41 1.282 . S
O40 Cd32 2.277 . S
O40 C33 1.226 . S
O41 Cd32 2.356 . S
O41 C39 1.282 . S
C42 O43 1.306 . S
C42 O45 1.160 . S
O43 C42 1.306 . S
O43 Cd44 2.228 . S
Cd44 O43 2.228 . S
Cd44 O48 2.273 . S
Cd44 O52 2.277 . S
O45 C42 1.160 . S
O45 Cd46 2.203 . S
Cd46 O45 2.203 . S
Cd46 O48 2.411 . S
Cd46 O49 2.333 . S
Cd46 O50 2.352 . S
Cd46 O54 2.277 . S
Cd46 O55 2.356 . S
C47 O52 1.209 . S
C47 O54 1.226 . S
O48 Cd44 2.273 . S
O48 Cd46 2.411 . S
O48 C51 1.320 . S
O49 Cd46 2.333 . S
O49 C51 1.214 . S
O50 Cd46 2.352 . S
O50 C53 1.258 . S
C51 O48 1.320 . S
C51 O49 1.214 . S
O52 Cd44 2.277 . S
O52 C47 1.209 . S
C53 O50 1.258 . S
C53 O55 1.282 . S
O54 Cd46 2.277 . S
O54 C47 1.226 . S
O55 Cd46 2.356 . S
O55 C53 1.282 . S
C56 O57 1.306 . S
C56 O59 1.160 . S
O57 C56 1.306 . S
O57 Cd58 2.228 . S
Cd58 O57 2.228 . S
Cd58 O62 2.273 . S
Cd58 O66 2.277 . S
O59 C56 1.160 . S
O59 Cd60 2.203 . S
Cd60 O59 2.203 . S
Cd60 O62 2.411 . S
Cd60 O63 2.333 . S
Cd60 O64 2.352 . S
Cd60 O68 2.277 . S
Cd60 O69 2.356 . S
C61 O66 1.209 . S
C61 O68 1.226 . S
O62 Cd58 2.273 . S
O62 Cd60 2.411 . S
O62 C65 1.320 . S
O63 Cd60 2.333 . S
O63 C65 1.214 . S
O64 Cd60 2.352 . S
O64 C67 1.258 . S
C65 O62 1.320 . S
C65 O63 1.214 . S
O66 Cd58 2.277 . S
O66 C61 1.209 . S
C67 O64 1.258 . S
C67 O69 1.282 . S
O68 Cd60 2.277 . S
O68 C61 1.226 . S
O69 Cd60 2.356 . S
O69 C67 1.282 . S
C70 O71 1.306 . S
C70 O73 1.160 . S
O71 C70 1.306 . S
O71 Cd72 2.228 . S
Cd72 O71 2.228 . S
Cd72 O76 2.273 . S
Cd72 O80 2.277 . S
O73 C70 1.160 . S
O73 Cd74 2.203 . S
Cd74 O73 2.203 . S
Cd74 O76 2.411 . S
Cd74 O77 2.333 . S
Cd74 O78 2.352 . S
Cd74 O82 2.277 . S
Cd74 O83 2.356 . S
C75 O80 1.209 . S
C75 O82 1.226 . S
O76 Cd72 2.273 . S
O76 Cd74 2.411 . S
O76 C79 1.320 . S
O77 Cd74 2.333 . S
O77 C79 1.214 . S
O78 Cd74 2.352 . S
O78 C81 1.258 . S
C79 O76 1.320 . S
C79 O77 1.214 . S
O80 Cd72 2.277 . S
O80 C75 1.209 . S
C81 O78 1.258 . S
C81 O83 1.282 . S
O82 Cd74 2.277 . S
O82 C75 1.226 . S
O83 Cd74 2.356 . S
O83 C81 1.282 . S
C84 O85 1.306 . S
C84 O87 1.160 . S
O85 C84 1.306 . S
O85 Cd86 2.228 . S
Cd86 O85 2.228 . S
Cd86 O90 2.273 . S
Cd86 O94 2.277 . S
O87 C84 1.160 . S
O87 Cd88 2.203 . S
Cd88 O87 2.203 . S
Cd88 O90 2.411 . S
Cd88 O91 2.333 . S
Cd88 O92 2.352 . S
Cd88 O96 2.277 . S
Cd88 O97 2.356 . S
C89 O94 1.209 . S
C89 O96 1.226 . S
O90 Cd86 2.273 . S
O90 Cd88 2.411 . S
O90 C93 1.320 . S
O91 Cd88 2.333 . S
O91 C93 1.214 . S
O92 Cd88 2.352 . S
O92 C95 1.258 . S
C93 O90 1.320 . S
C93 O91 1.214 . S
O94 Cd86 2.277 . S
O94 C89 1.209 . S
C95 O92 1.258 . S
C95 O97 1.282 . S
O96 Cd88 2.277 . S
O96 C89 1.226 . S
O97 Cd88 2.356 . S
O97 C95 1.282 . S
C98 O99 1.306 . S
C98 O101 1.160 . S
O99 C98 1.306 . S
O99 Cd100 2.228 . S
Cd100 O99 2.228 . S
Cd100 O104 2.273 . S
Cd100 O108 2.277 . S
O101 C98 1.160 . S
O101 Cd102 2.203 . S
Cd102 O101 2.203 . S
Cd102 O104 2.411 . S
Cd102 O105 2.333 . S
Cd102 O106 2.352 . S
Cd102 O110 2.277 . S
Cd102 O111 2.356 . S
C103 O108 1.209 . S
C103 O110 1.226 . S
O104 Cd100 2.273 . S
O104 Cd102 2.411 . S
O104 C107 1.320 . S
O105 Cd102 2.333 . S
O105 C107 1.214 . S
O106 Cd102 2.352 . S
O106 C109 1.258 . S
C107 O104 1.320 . S
C107 O105 1.214 . S
O108 Cd100 2.277 . S
O108 C103 1.209 . S
C109 O106 1.258 . S
C109 O111 1.282 . S
O110 Cd102 2.277 . S
O110 C103 1.226 . S
O111 Cd102 2.356 . S
O111 C109 1.282 . S
H112 C124 0.930 . S
H113 C126 0.930 . S
H114 C127 0.930 . S
H115 C131 0.959 . S
H116 C131 0.959 . S
H117 C131 0.961 . S
H118 C132 0.960 . S
H119 C132 0.961 . S
H120 C132 0.959 . S
H121 C135 0.929 . S
H122 C136 0.931 . S
H123 C138 0.930 . S
C124 H112 0.930 . S
C124 C125 1.399 . S
C124 C129 1.399 . S
C125 C124 1.399 . S
C125 C126 1.376 . S
C126 H113 0.930 . S
C126 C125 1.376 . S
C126 C127 1.388 . S
C127 H114 0.930 . S
C127 C126 1.388 . S
C127 C128 1.390 . S
C128 C127 1.390 . S
C128 C129 1.394 . S
C128 C134 1.465 . S
C129 C124 1.399 . S
C129 C128 1.394 . S
C129 C130 1.516 1_455 S
C130 C129 1.516 1_655 S
C130 C131 1.502 . S
C130 C132 1.561 1_655 S
C130 C133 1.526 . S
C131 H115 0.959 . S
C131 H116 0.959 . S
C131 H117 0.961 . S
C131 C130 1.502 . S
C132 H118 0.960 . S
C132 H119 0.961 . S
C132 H120 0.959 . S
C132 C130 1.561 1_455 S
C133 C130 1.526 . S
C133 C134 1.396 1_655 S
C133 C138 1.390 . S
C134 C128 1.465 . S
C134 C133 1.396 1_455 S
C134 C135 1.399 . S
C135 H121 0.929 . S
C135 C134 1.399 . S
C135 C136 1.385 1_455 S
C136 H122 0.931 . S
C136 C135 1.385 1_655 S
C136 C137 1.389 . S
C137 C136 1.389 . S
C137 C138 1.387 . S
C138 H123 0.930 . S
C138 C133 1.390 . S
C138 C137 1.387 . S
H139 C151 0.930 . S
H140 C153 0.930 . S
H141 C154 0.930 . S
H142 C158 0.959 . S
H143 C158 0.959 . S
H144 C158 0.961 . S
H145 C159 0.960 . S
H146 C159 0.961 . S
H147 C159 0.959 . S
H148 C162 0.929 1_565 S
H149 C163 0.931 . S
H150 C165 0.930 . S
C151 H139 0.930 . S
C151 C152 1.399 . S
C151 C156 1.399 . S
C152 C151 1.399 . S
C152 C153 1.376 . S
C153 H140 0.930 . S
C153 C152 1.376 . S
C153 C154 1.388 . S
C154 H141 0.930 . S
C154 C153 1.388 . S
C154 C155 1.390 . S
C155 C154 1.390 . S
C155 C156 1.394 . S
C155 C161 1.464 1_565 S
C156 C151 1.399 . S
C156 C155 1.394 . S
C156 C157 1.513 1_565 S
C157 C156 1.513 1_545 S
C157 C158 1.510 . S
C157 C159 1.552 1_545 S
C157 C160 1.528 . S
C158 H142 0.959 . S
C158 H143 0.959 . S
C158 H144 0.961 . S
C158 C157 1.510 . S
C159 H145 0.960 . S
C159 H146 0.961 . S
C159 H147 0.959 . S
C159 C157 1.552 1_565 S
C160 C157 1.528 . S
C160 C161 1.397 . S
C160 C165 1.390 . S
C161 C155 1.464 1_545 S
C161 C160 1.397 . S
C161 C162 1.399 . S
C162 H148 0.929 1_545 S
C162 C161 1.399 . S
C162 C163 1.385 . S
C163 H149 0.931 . S
C163 C162 1.385 . S
C163 C164 1.389 . S
C164 C163 1.389 . S
C164 C165 1.387 . S
C165 H150 0.930 . S
C165 C160 1.390 . S
C165 C164 1.387 . S
H166 C178 0.930 . S
H167 C180 0.930 . S
H168 C181 0.930 . S
H169 C185 0.959 . S
H170 C185 0.959 . S
H171 C185 0.961 . S
H172 C186 0.960 . S
H173 C186 0.961 . S
H174 C186 0.959 . S
H175 C189 0.929 . S
H176 C190 0.931 . S
H177 C192 0.930 . S
C178 H166 0.930 . S
C178 C179 1.399 . S
C178 C183 1.399 . S
C179 C178 1.399 . S
C179 C180 1.376 . S
C180 H167 0.930 . S
C180 C179 1.376 . S
C180 C181 1.388 1_655 S
C181 H168 0.930 . S
C181 C180 1.388 1_455 S
C181 C182 1.390 . S
C182 C181 1.390 . S
C182 C183 1.394 1_455 S
C182 C188 1.465 . S
C183 C178 1.399 . S
C183 C182 1.394 1_655 S
C183 C184 1.516 . S
C184 C183 1.516 . S
C184 C185 1.502 . S
C184 C186 1.561 1_655 S
C184 C187 1.526 1_655 S
C185 H169 0.959 . S
C185 H170 0.959 . S
C185 H171 0.961 . S
C185 C184 1.502 . S
C186 H172 0.960 . S
C186 H173 0.961 . S
C186 H174 0.959 . S
C186 C184 1.561 1_455 S
C187 C184 1.526 1_455 S
C187 C188 1.396 . S
C187 C192 1.390 . S
C188 C182 1.465 . S
C188 C187 1.396 . S
C188 C189 1.399 . S
C189 H175 0.929 . S
C189 C188 1.399 . S
C189 C190 1.385 . S
C190 H176 0.931 . S
C190 C189 1.385 . S
C190 C191 1.389 . S
C191 C190 1.389 . S
C191 C192 1.387 . S
C192 H177 0.930 . S
C192 C187 1.390 . S
C192 C191 1.387 . S
H193 C205 0.930 . S
H194 C207 0.930 . S
H195 C208 0.930 . S
H196 C212 0.959 . S
H197 C212 0.959 . S
H198 C212 0.961 . S
H199 C213 0.960 . S
H200 C213 0.961 . S
H201 C213 0.959 . S
H202 C216 0.929 . S
H203 C217 0.931 . S
H204 C219 0.930 . S
C205 H193 0.930 . S
C205 C206 1.399 . S
C205 C210 1.399 . S
C206 C205 1.399 . S
C206 C207 1.376 . S
C207 H194 0.930 . S
C207 C206 1.376 . S
C207 C208 1.388 . S
C208 H195 0.930 . S
C208 C207 1.388 . S
C208 C209 1.390 . S
C209 C208 1.390 . S
C209 C210 1.394 . S
C209 C215 1.465 . S
C210 C205 1.399 . S
C210 C209 1.394 . S
C210 C211 1.516 1_545 S
C211 C210 1.516 1_565 S
C211 C212 1.502 . S
C211 C213 1.561 1_565 S
C211 C214 1.526 . S
C212 H196 0.959 . S
C212 H197 0.959 . S
C212 H198 0.961 . S
C212 C211 1.502 . S
C213 H199 0.960 . S
C213 H200 0.961 . S
C213 H201 0.959 . S
C213 C211 1.561 1_545 S
C214 C211 1.526 . S
C214 C215 1.396 1_565 S
C214 C219 1.390 . S
C215 C209 1.465 . S
C215 C214 1.396 1_545 S
C215 C216 1.399 . S
C216 H202 0.929 . S
C216 C215 1.399 . S
C216 C217 1.385 1_545 S
C217 H203 0.931 . S
C217 C216 1.385 1_565 S
C217 C218 1.389 . S
C218 C217 1.389 . S
C218 C219 1.387 . S
C219 H204 0.930 . S
C219 C214 1.390 . S
C219 C218 1.387 . S
H220 C232 0.930 . S
H221 C234 0.930 . S
H222 C235 0.930 . S
H223 C239 0.959 . S
H224 C239 0.959 1_554 S
H225 C239 0.961 1_655 S
H226 C240 0.960 . S
H227 C240 0.961 . S
H228 C240 0.959 . S
H229 C243 0.929 . S
H230 C244 0.931 . S
H231 C246 0.930 . S
C232 H220 0.930 . S
C232 C233 1.399 . S
C232 C237 1.399 . S
C233 C232 1.399 . S
C233 C234 1.376 . S
C234 H221 0.930 . S
C234 C233 1.376 . S
C234 C235 1.388 . S
C235 H222 0.930 . S
C235 C234 1.388 . S
C235 C236 1.390 . S
C236 C235 1.390 . S
C236 C237 1.394 . S
C236 C242 1.465 1_656 S
C237 C232 1.399 . S
C237 C236 1.394 . S
C237 C238 1.516 1_556 S
C238 C237 1.516 1_554 S
C238 C239 1.502 1_654 S
C238 C240 1.561 . S
C238 C241 1.526 1_655 S
C239 H223 0.959 . S
C239 H224 0.959 1_556 S
C239 H225 0.961 1_455 S
C239 C238 1.502 1_456 S
C240 H226 0.960 . S
C240 H227 0.961 . S
C240 H228 0.959 . S
C240 C238 1.561 . S
C241 C238 1.526 1_455 S
C241 C242 1.396 . S
C241 C246 1.390 . S
C242 C236 1.465 1_454 S
C242 C241 1.396 . S
C242 C243 1.399 . S
C243 H229 0.929 . S
C243 C242 1.399 . S
C243 C244 1.385 . S
C244 H230 0.931 . S
C244 C243 1.385 . S
C244 C245 1.389 . S
C245 C244 1.389 . S
C245 C246 1.387 . S
C246 H231 0.930 . S
C246 C241 1.390 . S
C246 C245 1.387 . S
H247 C259 0.930 . S
H248 C261 0.930 . S
H249 C262 0.930 . S
H250 C266 0.959 . S
H251 C266 0.959 . S
H252 C266 0.961 . S
H253 C267 0.960 . S
H254 C267 0.961 . S
H255 C267 0.959 . S
H256 C270 0.929 . S
H257 C271 0.931 . S
H258 C273 0.930 . S
C259 H247 0.930 . S
C259 C260 1.399 . S
C259 C264 1.399 . S
C260 C259 1.399 . S
C260 C261 1.376 . S
C261 H248 0.930 . S
C261 C260 1.376 . S
C261 C262 1.388 . S
C262 H249 0.930 . S
C262 C261 1.388 . S
C262 C263 1.390 . S
C263 C262 1.390 . S
C263 C264 1.394 . S
C263 C269 1.465 1_545 S
C264 C259 1.399 . S
C264 C263 1.394 . S
C264 C265 1.516 1_545 S
C265 C264 1.516 1_565 S
C265 C266 1.502 . S
C265 C267 1.561 . S
C265 C268 1.526 . S
C266 H250 0.959 . S
C266 H251 0.959 . S
C266 H252 0.961 . S
C266 C265 1.502 . S
C267 H253 0.960 . S
C267 H254 0.961 . S
C267 H255 0.959 . S
C267 C265 1.561 . S
C268 C265 1.526 . S
C268 C269 1.396 . S
C268 C273 1.390 . S
C269 C263 1.465 1_565 S
C269 C268 1.396 . S
C269 C270 1.399 1_565 S
C270 H256 0.929 . S
C270 C269 1.399 1_545 S
C270 C271 1.385 1_545 S
C271 H257 0.931 . S
C271 C270 1.385 1_565 S
C271 C272 1.389 . S
C272 C271 1.389 . S
C272 C273 1.387 . S
C273 H258 0.930 . S
C273 C268 1.390 . S
C273 C272 1.387 . S
H274 C286 0.930 . S
H275 C288 0.930 . S
H276 C289 0.930 . S
H277 C293 0.959 . S
H278 C293 0.985 . S
H279 C293 0.961 . S
H280 C294 0.960 . S
H281 C294 0.961 . S
H282 C294 0.959 . S
H283 C297 0.929 . S
H284 C298 0.931 . S
H285 C300 0.930 . S
C286 H274 0.930 . S
C286 C287 1.399 . S
C286 C291 1.399 . S
C287 C286 1.399 . S
C287 C288 1.376 . S
C288 H275 0.930 . S
C288 C287 1.376 . S
C288 C289 1.388 . S
C289 H276 0.930 . S
C289 C288 1.388 . S
C289 C290 1.390 . S
C290 C289 1.390 . S
C290 C291 1.394 . S
C290 C296 1.465 1_654 S
C291 C286 1.399 . S
C291 C290 1.394 . S
C291 C292 1.489 1_554 S
C292 C291 1.489 1_556 S
C292 C293 1.480 1_656 S
C292 C294 1.587 . S
C292 C295 1.553 1_655 S
C293 H277 0.959 . S
C293 H278 0.985 . S
C293 H279 0.961 . S
C293 C292 1.480 1_454 S
C294 H280 0.960 . S
C294 H281 0.961 . S
C294 H282 0.959 . S
C294 C292 1.587 . S
C295 C292 1.553 1_455 S
C295 C296 1.396 . S
C295 C300 1.390 . S
C296 C290 1.465 1_456 S
C296 C295 1.396 . S
C296 C297 1.399 . S
C297 H283 0.929 . S
C297 C296 1.399 . S
C297 C298 1.385 . S
C298 H284 0.931 . S
C298 C297 1.385 . S
C298 C299 1.389 . S
C299 C298 1.389 . S
C299 C300 1.387 . S
C300 H285 0.930 . S
C300 C295 1.390 . S
C300 C299 1.387 . S
H301 C313 0.930 . S
H302 C315 0.930 . S
H303 C316 0.930 . S
H304 C320 0.959 . S
H305 C320 0.959 . S
H306 C320 0.961 1_545 S
H307 C321 0.960 . S
H308 C321 0.961 . S
H309 C321 0.959 . S
H310 C324 0.929 . S
H311 C325 0.931 . S
H312 C327 0.930 . S
C313 H301 0.930 . S
C313 C314 1.399 . S
C313 C318 1.399 . S
C314 C313 1.399 . S
C314 C315 1.376 . S
C315 H302 0.930 . S
C315 C314 1.376 . S
C315 C316 1.388 . S
C316 H303 0.930 . S
C316 C315 1.388 . S
C316 C317 1.390 . S
C317 C316 1.390 . S
C317 C318 1.394 . S
C317 C323 1.465 1_545 S
C318 C313 1.399 . S
C318 C317 1.394 . S
C318 C319 1.516 . S
C319 C318 1.516 . S
C319 C320 1.502 1_545 S
C319 C321 1.561 . S
C319 C322 1.526 1_545 S
C320 H304 0.959 . S
C320 H305 0.959 . S
C320 H306 0.961 1_565 S
C320 C319 1.502 1_565 S
C321 H307 0.960 . S
C321 H308 0.961 . S
C321 H309 0.959 . S
C321 C319 1.561 . S
C322 C319 1.526 1_565 S
C322 C323 1.396 . S
C322 C327 1.390 . S
C323 C317 1.465 1_565 S
C323 C322 1.396 . S
C323 C324 1.399 . S
C324 H310 0.929 . S
C324 C323 1.399 . S
C324 C325 1.385 . S
C325 H311 0.931 . S
C325 C324 1.385 . S
C325 C326 1.389 . S
C326 C325 1.389 . S
C326 C327 1.387 . S
C327 H312 0.930 . S
C327 C322 1.390 . S
C327 C326 1.387 . S
H328 C340 0.930 . S
H329 C342 0.930 . S
H330 C343 0.930 . S
H331 C347 0.959 . S
H332 C347 0.959 . S
H333 C347 0.961 . S
H334 C348 0.960 . S
H335 C348 0.961 . S
H336 C348 0.959 . S
H337 C351 0.929 . S
H338 C352 0.931 . S
H339 C354 0.930 . S
C340 H328 0.930 . S
C340 C341 1.399 . S
C340 C345 1.399 . S
C341 C340 1.399 . S
C341 C342 1.376 . S
C342 H329 0.930 . S
C342 C341 1.376 . S
C342 C343 1.388 . S
C343 H330 0.930 . S
C343 C342 1.388 . S
C343 C344 1.390 . S
C344 C343 1.390 . S
C344 C345 1.394 . S
C344 C350 1.465 . S
C345 C340 1.399 . S
C345 C344 1.394 . S
C345 C346 1.516 . S
C346 C345 1.516 . S
C346 C347 1.502 . S
C346 C348 1.561 . S
C346 C349 1.526 . S
C347 H331 0.959 . S
C347 H332 0.959 . S
C347 H333 0.961 . S
C347 C346 1.502 . S
C348 H334 0.960 . S
C348 H335 0.961 . S
C348 H336 0.959 . S
C348 C346 1.561 . S
C349 C346 1.526 . S
C349 C350 1.396 . S
C349 C354 1.390 . S
C350 C344 1.465 . S
C350 C349 1.396 . S
C350 C351 1.399 . S
C351 H337 0.929 . S
C351 C350 1.399 . S
C351 C352 1.385 . S
C352 H338 0.931 . S
C352 C351 1.385 . S
C352 C353 1.389 . S
C353 C352 1.389 . S
C353 C354 1.387 . S
C354 H339 0.930 . S
C354 C349 1.390 . S
C354 C353 1.387 . S
H355 C367 0.930 . S
H356 C369 0.930 . S
H357 C370 0.930 . S
H358 C374 0.959 . S
H359 C374 0.959 . S
H360 C374 0.961 . S
H361 C375 0.960 . S
H362 C375 0.961 . S
H363 C375 0.959 . S
H364 C378 0.929 . S
H365 C379 0.931 . S
H366 C381 0.930 . S
C367 H355 0.930 . S
C367 C368 1.399 . S
C367 C372 1.399 . S
C368 C367 1.399 . S
C368 C369 1.376 . S
C369 H356 0.930 . S
C369 C368 1.376 . S
C369 C370 1.388 . S
C370 H357 0.930 . S
C370 C369 1.388 . S
C370 C371 1.390 . S
C371 C370 1.390 . S
C371 C372 1.394 . S
C371 C377 1.465 . S
C372 C367 1.399 . S
C372 C371 1.394 . S
C372 C373 1.516 . S
C373 C372 1.516 . S
C373 C374 1.502 . S
C373 C375 1.561 . S
C373 C376 1.526 . S
C374 H358 0.959 . S
C374 H359 0.959 . S
C374 H360 0.961 . S
C374 C373 1.502 . S
C375 H361 0.960 . S
C375 H362 0.961 . S
C375 H363 0.959 . S
C375 C373 1.561 . S
C376 C373 1.526 . S
C376 C377 1.396 . S
C376 C381 1.390 . S
C377 C371 1.465 . S
C377 C376 1.396 . S
C377 C378 1.399 . S
C378 H364 0.929 . S
C378 C377 1.399 . S
C378 C379 1.385 . S
C379 H365 0.931 . S
C379 C378 1.385 . S
C379 C380 1.389 . S
C380 C379 1.389 . S
C380 C381 1.387 . S
C381 H366 0.930 . S
C381 C376 1.390 . S
C381 C380 1.387 . S
H382 C394 0.930 . S
H383 C396 0.930 . S
H384 C397 0.930 . S
H385 C401 0.959 . S
H386 C401 0.959 . S
H387 C401 0.961 . S
H388 C402 0.960 . S
H389 C402 0.961 . S
H390 C402 0.959 . S
H391 C405 0.929 . S
H392 C406 0.931 . S
H393 C408 0.930 . S
C394 H382 0.930 . S
C394 C395 1.399 . S
C394 C399 1.399 . S
C395 C394 1.399 . S
C395 C396 1.376 . S
C396 H383 0.930 . S
C396 C395 1.376 . S
C396 C397 1.388 . S
C397 H384 0.930 . S
C397 C396 1.388 . S
C397 C398 1.390 . S
C398 C397 1.390 . S
C398 C399 1.394 . S
C398 C404 1.465 . S
C399 C394 1.399 . S
C399 C398 1.394 . S
C399 C400 1.516 . S
C400 C399 1.516 . S
C400 C401 1.502 . S
C400 C402 1.561 . S
C400 C403 1.526 . S
C401 H385 0.959 . S
C401 H386 0.959 . S
C401 H387 0.961 . S
C401 C400 1.502 . S
C402 H388 0.960 . S
C402 H389 0.961 . S
C402 H390 0.959 . S
C402 C400 1.561 . S
C403 C400 1.526 . S
C403 C404 1.396 . S
C403 C408 1.390 . S
C404 C398 1.465 . S
C404 C403 1.396 . S
C404 C405 1.399 . S
C405 H391 0.929 . S
C405 C404 1.399 . S
C405 C406 1.385 . S
C406 H392 0.931 . S
C406 C405 1.385 . S
C406 C407 1.389 . S
C407 C406 1.389 . S
C407 C408 1.387 . S
C408 H393 0.930 . S
C408 C403 1.390 . S
C408 C407 1.387 . S
H409 C421 0.930 . S
H410 C423 0.930 . S
H411 C424 0.930 . S
H412 C428 0.959 . S
H413 C428 0.959 . S
H414 C428 0.961 . S
H415 C429 0.960 . S
H416 C429 0.961 . S
H417 C429 0.959 . S
H418 C432 0.929 . S
H419 C433 0.931 . S
H420 C435 0.930 . S
C421 H409 0.930 . S
C421 C422 1.399 . S
C421 C426 1.399 . S
C422 C421 1.399 . S
C422 C423 1.376 . S
C423 H410 0.930 . S
C423 C422 1.376 . S
C423 C424 1.388 . S
C424 H411 0.930 . S
C424 C423 1.388 . S
C424 C425 1.390 . S
C425 C424 1.390 . S
C425 C426 1.394 . S
C425 C431 1.465 . S
C426 C421 1.399 . S
C426 C425 1.394 . S
C426 C427 1.516 . S
C427 C426 1.516 . S
C427 C428 1.502 . S
C427 C429 1.561 . S
C427 C430 1.526 . S
C428 H412 0.959 . S
C428 H413 0.959 . S
C428 H414 0.961 . S
C428 C427 1.502 . S
C429 H415 0.960 . S
C429 H416 0.961 . S
C429 H417 0.959 . S
C429 C427 1.561 . S
C430 C427 1.526 . S
C430 C431 1.396 . S
C430 C435 1.390 . S
C431 C425 1.465 . S
C431 C430 1.396 . S
C431 C432 1.399 . S
C432 H418 0.929 . S
C432 C431 1.399 . S
C432 C433 1.385 . S
C433 H419 0.931 . S
C433 C432 1.385 . S
C433 C434 1.389 . S
C434 C433 1.389 . S
C434 C435 1.387 . S
C435 H420 0.930 . S
C435 C430 1.390 . S
C435 C434 1.387 . S
H436 C448 0.930 . S
H437 C450 0.930 . S
H438 C451 0.930 . S
H439 C455 0.959 . S
H440 C455 0.959 1_565 S
H441 C455 0.961 . S
H442 C456 0.960 1_545 S
H443 C456 0.961 . S
H444 C456 0.959 . S
H445 C459 0.929 . S
H446 C460 0.931 . S
H447 C462 0.930 . S
C448 H436 0.930 . S
C448 C449 1.399 . S
C448 C453 1.399 . S
C449 C448 1.399 . S
C449 C450 1.376 . S
C450 H437 0.930 . S
C450 C449 1.376 . S
C450 C451 1.388 . S
C451 H438 0.930 . S
C451 C450 1.388 . S
C451 C452 1.390 . S
C452 C451 1.390 . S
C452 C453 1.394 . S
C452 C458 1.465 1_545 S
C453 C448 1.399 . S
C453 C452 1.394 . S
C453 C454 1.516 1_455 S
C454 C453 1.516 1_655 S
C454 C455 1.502 . S
C454 C456 1.561 1_645 S
C454 C457 1.526 1_545 S
C455 H439 0.959 . S
C455 H440 0.959 1_545 S
C455 H441 0.961 . S
C455 C454 1.502 . S
C456 H442 0.960 1_565 S
C456 H443 0.961 . S
C456 H444 0.959 . S
C456 C454 1.561 1_465 S
C457 C454 1.526 1_565 S
C457 C458 1.396 1_655 S
C457 C462 1.390 . S
C458 C452 1.465 1_565 S
C458 C457 1.396 1_455 S
C458 C459 1.399 . S
C459 H445 0.929 . S
C459 C458 1.399 . S
C459 C460 1.385 1_455 S
C460 H446 0.931 . S
C460 C459 1.385 1_655 S
C460 C461 1.389 . S
C461 C460 1.389 . S
C461 C462 1.387 . S
C462 H447 0.930 . S
C462 C457 1.390 . S
C462 C461 1.387 . S
H463 C475 0.936 . S
H464 C477 0.930 . S
H465 C478 0.930 . S
H466 C482 0.959 . S
H467 C482 0.959 1_655 S
H468 C482 0.961 . S
H469 C483 0.960 1_455 S
H470 C483 0.961 . S
H471 C483 0.959 . S
H472 C486 0.929 . S
H473 C487 0.931 . S
H474 C489 0.930 . S
C475 H463 0.936 . S
C475 C476 1.399 . S
C475 C480 1.399 . S
C476 C475 1.399 . S
C476 C477 1.376 . S
C477 H464 0.930 . S
C477 C476 1.376 . S
C477 C478 1.388 . S
C478 H465 0.930 . S
C478 C477 1.388 . S
C478 C479 1.390 . S
C479 C478 1.390 . S
C479 C480 1.394 . S
C479 C485 1.465 1_455 S
C480 C475 1.399 . S
C480 C479 1.394 . S
C480 C481 1.516 1_565 S
C481 C480 1.516 1_545 S
C481 C482 1.502 . S
C481 C483 1.561 1_445 S
C481 C484 1.526 1_455 S
C482 H466 0.959 . S
C482 H467 0.959 1_455 S
C482 H468 0.961 . S
C482 C481 1.502 . S
C483 H469 0.960 1_655 S
C483 H470 0.961 . S
C483 H471 0.959 . S
C483 C481 1.561 1_665 S
C484 C481 1.526 1_655 S
C484 C485 1.396 1_545 S
C484 C489 1.390 . S
C485 C479 1.465 1_655 S
C485 C484 1.396 1_565 S
C485 C486 1.399 . S
C486 H472 0.929 . S
C486 C485 1.399 . S
C486 C487 1.385 1_565 S
C487 H473 0.931 . S
C487 C486 1.385 1_545 S
C487 C488 1.389 . S
C488 C487 1.389 . S
C488 C489 1.387 . S
C489 H474 0.930 . S
C489 C484 1.390 . S
C489 C488 1.387 . S
H490 C502 0.930 . S
H491 C504 0.930 1_455 S
H492 C505 0.930 . S
H493 C509 0.959 . S
H494 C509 0.959 . S
H495 C509 0.961 1_545 S
H496 C510 0.960 . S
H497 C510 0.961 1_565 S
H498 C510 0.959 . S
H499 C513 0.929 . S
H500 C514 0.931 . S
H501 C516 0.930 . S
C502 H490 0.930 . S
C502 C503 1.399 . S
C502 C507 1.399 . S
C503 C502 1.399 . S
C503 C504 1.376 . S
C504 H491 0.930 1_655 S
C504 C503 1.376 . S
C504 C505 1.388 1_655 S
C505 H492 0.930 . S
C505 C504 1.388 1_455 S
C505 C506 1.390 . S
C506 C505 1.390 . S
C506 C507 1.394 1_455 S
C506 C512 1.465 1_545 S
C507 C502 1.399 . S
C507 C506 1.394 1_655 S
C507 C508 1.516 1_545 S
C508 C507 1.516 1_565 S
C508 C509 1.502 . S
C508 C510 1.561 1_665 S
C508 C511 1.526 1_655 S
C509 H493 0.959 . S
C509 H494 0.959 . S
C509 H495 0.961 1_565 S
C509 C508 1.502 . S
C510 H496 0.960 . S
C510 H497 0.961 1_545 S
C510 H498 0.959 . S
C510 C508 1.561 1_445 S
C511 C508 1.526 1_455 S
C511 C512 1.396 . S
C511 C516 1.390 . S
C512 C506 1.465 1_565 S
C512 C511 1.396 . S
C512 C513 1.399 . S
C513 H499 0.929 . S
C513 C512 1.399 . S
C513 C514 1.385 . S
C514 H500 0.931 . S
C514 C513 1.385 . S
C514 C515 1.389 . S
C515 C514 1.389 . S
C515 C516 1.387 . S
C516 H501 0.930 . S
C516 C511 1.390 . S
C516 C515 1.387 . S
H517 C529 0.930 . S
H518 C531 0.930 . S
H519 C532 0.930 1_545 S
H520 C536 0.962 . S
H521 C536 0.944 1_455 S
H522 C536 0.976 1_565 S
H523 C537 0.960 1_655 S
H524 C537 0.961 . S
H525 C537 0.959 . S
H526 C540 0.929 . S
H527 C541 0.931 . S
H528 C543 0.930 . S
C529 H517 0.930 . S
C529 C530 1.399 . S
C529 C534 1.399 . S
C530 C529 1.399 . S
C530 C531 1.376 . S
C531 H518 0.930 . S
C531 C530 1.376 . S
C531 C532 1.388 . S
C532 H519 0.930 1_565 S
C532 C531 1.388 . S
C532 C533 1.390 . S
C533 C532 1.390 . S
C533 C534 1.394 . S
C533 C539 1.465 1_665 S
C534 C529 1.399 . S
C534 C533 1.394 . S
C534 C535 1.516 1_655 S
C535 C534 1.516 1_455 S
C535 C536 1.500 1_465 S
C535 C537 1.561 . S
C535 C538 1.523 1_565 S
C536 H520 0.962 . S
C536 H521 0.944 1_655 S
C536 H522 0.976 1_545 S
C536 C535 1.500 1_645 S
C537 H523 0.960 1_455 S
C537 H524 0.961 . S
C537 H525 0.959 . S
C537 C535 1.561 . S
C538 C535 1.523 1_545 S
C538 C539 1.397 . S
C538 C543 1.391 . S
C539 C533 1.465 1_445 S
C539 C538 1.397 . S
C539 C540 1.399 . S
C540 H526 0.929 . S
C540 C539 1.399 . S
C540 C541 1.385 . S
C541 H527 0.931 . S
C541 C540 1.385 . S
C541 C542 1.389 . S
C542 C541 1.389 . S
C542 C543 1.387 . S
C543 H528 0.930 . S
C543 C538 1.391 . S
C543 C542 1.387 . S
C125 C11 1.380 . S
C137 C39 1.373 . S
C152 C53 1.377 . S
C164 C25 1.373 . S
C179 C95 1.395 . S
C191 C67 1.403 . S
C206 C81 1.381 . S
C218 C109 1.373 . S
C233 C93 1.549 . S
C245 C9 1.535 . S
C260 C23 1.559 . S
C272 C107 1.477 . S
C287 C37 1.560 . S
C299 C65 1.522 . S
C314 C79 1.540 . S
C326 C51 1.544 . S
C341 C0 1.452 . S
C353 C70 1.459 . S
C368 C84 1.457 . S
C380 C14 1.459 . S
C395 C98 1.431 . S
C407 C28 1.448 . S
C422 C42 1.409 . S
C434 C56 1.429 . S
C449 C5 0.946 . S
C461 C33 0.983 . S
C476 C47 0.945 . S
C488 C19 0.984 . S
C503 C89 0.975 . S
C515 C61 0.936 . S
C530 C103 0.965 . S
C542 C75 0.967 . S
