# Generated by pormake.
# Topology wjk, (5)-cn, num edge types: 1
# Building blocks:
#     Node 0, Type 0, BuildingBlock: XOMCOT_clean_sbu_1, # of connection points: 5
#     Node 1, Type 0, BuildingBlock: XOMCOT_clean_sbu_1, # of connection points: 5
#     Node 2, Type 0, BuildingBlock: XOMCOT_clean_sbu_1, # of connection points: 5
#     Node 3, Type 0, BuildingBlock: XOMCOT_clean_sbu_1, # of connection points: 5
#     Node 4, Type 0, BuildingBlock: XOMCOT_clean_sbu_1, # of connection points: 5
#     Node 5, Type 0, BuildingBlock: XOMCOT_clean_sbu_1, # of connection points: 5
#     Node 6, Type 0, BuildingBlock: XOMCOT_clean_sbu_1, # of connection points: 5
#     Node 7, Type 0, BuildingBlock: XOMCOT_clean_sbu_1, # of connection points: 5
#     Node 8, Type 0, BuildingBlock: XOMCOT_clean_sbu_1, # of connection points: 5
#     Node 9, Type 0, BuildingBlock: XOMCOT_clean_sbu_1, # of connection points: 5
#     Node 10, Type 0, BuildingBlock: XOMCOT_clean_sbu_1, # of connection points: 5
#     Node 11, Type 0, BuildingBlock: XOMCOT_clean_sbu_1, # of connection points: 5
#     Edge 12, Type (0, 0), BuildingBlock: ZUJKAS_clean_linker_0, # of connection points: 2
#     Edge 13, Type (0, 0), BuildingBlock: ZUJKAS_clean_linker_0, # of connection points: 2
#     Edge 14, Type (0, 0), BuildingBlock: ZUJKAS_clean_linker_0, # of connection points: 2
#     Edge 15, Type (0, 0), BuildingBlock: ZUJKAS_clean_linker_0, # of connection points: 2
#     Edge 16, Type (0, 0), BuildingBlock: ZUJKAS_clean_linker_0, # of connection points: 2
#     Edge 17, Type (0, 0), BuildingBlock: ZUJKAS_clean_linker_0, # of connection points: 2
#     Edge 18, Type (0, 0), BuildingBlock: ZUJKAS_clean_linker_0, # of connection points: 2
#     Edge 19, Type (0, 0), BuildingBlock: ZUJKAS_clean_linker_0, # of connection points: 2
#     Edge 20, Type (0, 0), BuildingBlock: ZUJKAS_clean_linker_0, # of connection points: 2
#     Edge 21, Type (0, 0), BuildingBlock: ZUJKAS_clean_linker_0, # of connection points: 2
#     Edge 22, Type (0, 0), BuildingBlock: ZUJKAS_clean_linker_0, # of connection points: 2
#     Edge 23, Type (0, 0), BuildingBlock: ZUJKAS_clean_linker_0, # of connection points: 2
#     Edge 24, Type (0, 0), BuildingBlock: ZUJKAS_clean_linker_0, # of connection points: 2
#     Edge 25, Type (0, 0), BuildingBlock: ZUJKAS_clean_linker_0, # of connection points: 2
#     Edge 26, Type (0, 0), BuildingBlock: ZUJKAS_clean_linker_0, # of connection points: 2
#     Edge 27, Type (0, 0), BuildingBlock: ZUJKAS_clean_linker_0, # of connection points: 2
#     Edge 28, Type (0, 0), BuildingBlock: ZUJKAS_clean_linker_0, # of connection points: 2
#     Edge 29, Type (0, 0), BuildingBlock: ZUJKAS_clean_linker_0, # of connection points: 2
#     Edge 30, Type (0, 0), BuildingBlock: ZUJKAS_clean_linker_0, # of connection points: 2
#     Edge 31, Type (0, 0), BuildingBlock: ZUJKAS_clean_linker_0, # of connection points: 2
#     Edge 32, Type (0, 0), BuildingBlock: ZUJKAS_clean_linker_0, # of connection points: 2
#     Edge 33, Type (0, 0), BuildingBlock: ZUJKAS_clean_linker_0, # of connection points: 2
#     Edge 34, Type (0, 0), BuildingBlock: ZUJKAS_clean_linker_0, # of connection points: 2
#     Edge 35, Type (0, 0), BuildingBlock: ZUJKAS_clean_linker_0, # of connection points: 2
#     Edge 36, Type (0, 0), BuildingBlock: ZUJKAS_clean_linker_0, # of connection points: 2
#     Edge 37, Type (0, 0), BuildingBlock: ZUJKAS_clean_linker_0, # of connection points: 2
#     Edge 38, Type (0, 0), BuildingBlock: ZUJKAS_clean_linker_0, # of connection points: 2
#     Edge 39, Type (0, 0), BuildingBlock: ZUJKAS_clean_linker_0, # of connection points: 2
#     Edge 40, Type (0, 0), BuildingBlock: ZUJKAS_clean_linker_0, # of connection points: 2
#     Edge 41, Type (0, 0), BuildingBlock: ZUJKAS_clean_linker_0, # of connection points: 2
# Relax obj value: 0.513
# Max RMSD: 0.263
# Mean RMSD: 0.263
data_MOF--net-wjk--node1-XOMCOT_clean_sbu_1--edge1-ZUJKAS_clean_linker_0
_symmetry_space_group_name_H-M    P1
_symmetry_Int_Tables_number       1
_symmetry_cell_setting            triclinic
loop_
_symmetry_equiv_pos_as_xyz
'x, y, z'
_cell_length_a     41.514716
_cell_length_b     41.515447
_cell_length_c     92.980898
_cell_angle_alpha  90.001266
_cell_angle_beta   89.980049
_cell_angle_gamma 120.11107
loop_
_atom_site_label
_atom_site_type_symbol
_atom_site_fract_x
_atom_site_fract_y
_atom_site_fract_z
_atom_type_partial_charge
C0 C 0.12747 0.2581 0.25211 0.0
C1 C 0.09935 0.22274 0.25538 0.0
N2 N 0.10844 0.19822 0.24997 0.0
N3 N 0.1541 0.25589 0.24464 0.0
C4 C 0.14187 0.21911 0.24356 0.0
H5 H 0.12841 0.28385 0.25488 0.0
Co6 Co 0.19729 0.29669 0.23791 0.0
C7 C 0.21785 0.26898 0.21183 0.0
O8 O 0.22491 0.2994 0.20495 0.0
N9 N 0.24201 0.33954 0.23132 0.0
C10 C 0.28308 0.39136 0.2199 0.0
C11 C 0.2465 0.36402 0.22078 0.0
C12 C 0.27691 0.35314 0.2366 0.0
N13 N 0.30232 0.38473 0.22994 0.0
O14 O 0.22377 0.28908 0.25298 0.0
H15 H 0.22509 0.36199 0.21364 0.0
H16 H 0.28373 0.34046 0.24532 0.0
O17 O 0.20642 0.26433 0.22488 0.0
C18 C 0.22354 0.30728 0.26399 0.0
O19 O 0.20912 0.329 0.26268 0.0
N20 N 0.16858 0.30458 0.22458 0.0
C21 C 0.11845 0.31749 0.20948 0.0
C22 C 0.12222 0.2865 0.20626 0.0
C23 C 0.14713 0.28018 0.21411 0.0
C24 C 0.16403 0.33388 0.22822 0.0
C25 C 0.13983 0.34148 0.22055 0.0
H26 H 0.1478 0.25487 0.21222 0.0
H27 H 0.17934 0.35137 0.23723 0.0
H28 H 0.15733 0.20784 0.23833 0.0
H29 H 0.0739 0.2157 0.26106 0.0
H30 H 0.29456 0.4139 0.21218 0.0
H31 H 0.10538 0.26686 0.19799 0.0
H32 H 0.13674 0.36496 0.22362 0.0
C33 C 0.90169 0.15103 0.58569 0.0
C34 C 0.90255 0.12108 0.59169 0.0
N35 N 0.93668 0.12568 0.58944 0.0
N36 N 0.9351 0.17412 0.57972 0.0
C37 C 0.95585 0.15816 0.5823 0.0
H38 H 0.87824 0.15563 0.58559 0.0
Co39 Co 0.94987 0.21877 0.57049 0.0
C40 C 0.02257 0.23844 0.55842 0.0
O41 O 0.03646 0.27047 0.56518 0.0
N42 N 0.96463 0.26375 0.56108 0.0
C43 C 0.98102 0.30595 0.54376 0.0
C44 C 0.9715 0.26996 0.54685 0.0
C45 C 0.96979 0.29624 0.56638 0.0
N46 N 0.97996 0.32245 0.55607 0.0
O47 O 0.98287 0.24354 0.58612 0.0
H48 H 0.96949 0.24946 0.53917 0.0
H49 H 0.96646 0.30078 0.57759 0.0
O50 O 0.98812 0.21429 0.55987 0.0
C51 C 0.96535 0.24909 0.59617 0.0
O52 O 0.93084 0.24094 0.59382 0.0
N53 N 0.91494 0.19384 0.55623 0.0
C54 C 0.85508 0.15502 0.53777 0.0
C55 C 0.88453 0.14752 0.53806 0.0
C56 C 0.91431 0.16722 0.54746 0.0
C57 C 0.88673 0.20161 0.55606 0.0
C58 C 0.85664 0.18278 0.54678 0.0
H59 H 0.93613 0.16029 0.54799 0.0
H60 H 0.88734 0.2221 0.56341 0.0
H61 H 0.98473 0.17035 0.57916 0.0
H62 H 0.87966 0.09741 0.59697 0.0
H63 H 0.98745 0.31869 0.53321 0.0
H64 H 0.88426 0.12623 0.53124 0.0
H65 H 0.83416 0.18889 0.54704 0.0
C66 C 0.7378 0.87695 0.91813 0.0
C67 C 0.77218 0.88155 0.92148 0.0
N68 N 0.79846 0.91616 0.91749 0.0
N69 N 0.74251 0.90837 0.91195 0.0
C70 C 0.77962 0.93176 0.91178 0.0
H71 H 0.71106 0.85249 0.92021 0.0
Co72 Co 0.70539 0.91764 0.90619 0.0
C73 C 0.73539 0.96592 0.88047 0.0
O74 O 0.70318 0.94524 0.87411 0.0
N75 N 0.66706 0.92759 0.90056 0.0
C76 C 0.61809 0.92749 0.8906 0.0
C77 C 0.63761 0.90899 0.89158 0.0
C78 C 0.66446 0.95744 0.90481 0.0
N79 N 0.63499 0.95781 0.89899 0.0
O80 O 0.71842 0.9513 0.92191 0.0
H81 H 0.63078 0.88419 0.88558 0.0
H82 H 0.68407 0.97909 0.91187 0.0
O83 O 0.74047 0.95812 0.8933 0.0
C84 C 0.69637 0.93403 0.93228 0.0
O85 O 0.66902 0.89985 0.93008 0.0
N86 N 0.69147 0.88082 0.8922 0.0
C87 C 0.6661 0.81808 0.87486 0.0
C88 C 0.70015 0.85052 0.87192 0.0
C89 C 0.71279 0.88137 0.88094 0.0
C90 C 0.66 0.8486 0.89589 0.0
C91 C 0.64625 0.81715 0.88718 0.0
H92 H 0.7401 0.9051 0.87908 0.0
H93 H 0.64501 0.84774 0.90554 0.0
H94 H 0.79258 0.95974 0.90752 0.0
H95 H 0.7773 0.86124 0.92669 0.0
H96 H 0.59307 0.91903 0.88437 0.0
H97 H 0.71749 0.85166 0.86301 0.0
H98 H 0.62032 0.79249 0.89005 0.0
C99 C 0.86135 0.74154 0.25637 0.0
C100 C 0.88879 0.77714 0.25974 0.0
N101 N 0.88206 0.80122 0.25245 0.0
N102 N 0.83744 0.74314 0.24701 0.0
C103 C 0.85068 0.77982 0.24485 0.0
H104 H 0.85912 0.716 0.26033 0.0
Co105 Co 0.7966 0.70162 0.23932 0.0
C106 C 0.77458 0.72851 0.21343 0.0
O107 O 0.76727 0.69803 0.20651 0.0
N108 N 0.75446 0.65807 0.23179 0.0
C109 C 0.71666 0.60526 0.22014 0.0
C110 C 0.75286 0.63317 0.22195 0.0
C111 C 0.71843 0.64424 0.2357 0.0
N112 N 0.69515 0.61219 0.22889 0.0
O113 O 0.7667 0.70569 0.25388 0.0
H114 H 0.7761 0.63501 0.21606 0.0
H115 H 0.709 0.65737 0.24333 0.0
O116 O 0.78665 0.73334 0.22637 0.0
C117 C 0.76426 0.68577 0.2647 0.0
O118 O 0.77916 0.66439 0.26378 0.0
N119 N 0.82857 0.69746 0.22645 0.0
C120 C 0.88576 0.69242 0.2131 0.0
C121 C 0.87758 0.72011 0.20904 0.0
C122 C 0.84911 0.72252 0.21601 0.0
C123 C 0.83674 0.67095 0.23072 0.0
C124 C 0.86467 0.66733 0.22396 0.0
H125 H 0.84525 0.74575 0.21356 0.0
H126 H 0.82174 0.6529 0.23965 0.0
H127 H 0.83754 0.79073 0.23792 0.0
H128 H 0.91229 0.78461 0.26676 0.0
H129 H 0.707 0.58134 0.21313 0.0
H130 H 0.89385 0.74044 0.20087 0.0
H131 H 0.87088 0.6463 0.22765 0.0
C132 C 0.10871 0.85344 0.58394 0.0
C133 C 0.10601 0.88158 0.59069 0.0
N134 N 0.07377 0.87924 0.5866 0.0
N135 N 0.07834 0.83376 0.57565 0.0
C136 C 0.05749 0.84989 0.5776 0.0
H137 H 0.13114 0.8475 0.58504 0.0
Co138 Co 0.06584 0.79113 0.56515 0.0
C139 C 0.02952 0.81118 0.54067 0.0
O140 O 0.05836 0.82465 0.53204 0.0
N141 N 0.0523 0.74733 0.55483 0.0
C142 C 0.03932 0.70556 0.53752 0.0
C143 C 0.04825 0.74152 0.54047 0.0
C144 C 0.04577 0.7145 0.56032 0.0
N145 N 0.0377 0.68867 0.55005 0.0
O146 O 0.0271 0.76392 0.57871 0.0
H147 H 0.05268 0.76221 0.53253 0.0
H148 H 0.04812 0.70978 0.57158 0.0
O149 O 0.03049 0.79827 0.55308 0.0
C150 C 0.04118 0.7565 0.5895 0.0
O151 O 0.07631 0.76531 0.58889 0.0
N152 N 0.10733 0.81851 0.55308 0.0
C153 C 0.17395 0.85777 0.53796 0.0
C154 C 0.15205 0.87397 0.54086 0.0
C155 C 0.11932 0.85424 0.54879 0.0
C156 C 0.12983 0.80356 0.55123 0.0
C157 C 0.16299 0.82247 0.54351 0.0
H158 H 0.1033 0.86753 0.5513 0.0
H159 H 0.12238 0.77689 0.55591 0.0
H160 H 0.03034 0.83973 0.57282 0.0
H161 H 0.1263 0.90231 0.59789 0.0
H162 H 0.03462 0.69295 0.52697 0.0
H163 H 0.16038 0.90183 0.53716 0.0
H164 H 0.17968 0.80945 0.54178 0.0
C165 C 0.25283 0.11136 0.90684 0.0
C166 C 0.22019 0.11038 0.91047 0.0
N167 N 0.19209 0.07482 0.90956 0.0
N168 N 0.24523 0.07664 0.90356 0.0
C169 C 0.20817 0.05503 0.90538 0.0
H170 H 0.28037 0.1357 0.90679 0.0
Co171 Co 0.27896 0.06164 0.8987 0.0
C172 C 0.22923 0.98606 0.88743 0.0
O173 O 0.24451 0.9726 0.89614 0.0
N174 N 0.31324 0.04733 0.89383 0.0
C175 C 0.34818 0.03075 0.88143 0.0
C176 C 0.31628 0.03289 0.88126 0.0
C177 C 0.34384 0.05439 0.90136 0.0
N178 N 0.36571 0.04457 0.89405 0.0
O179 O 0.26523 0.03179 0.91566 0.0
H180 H 0.29727 0.02565 0.8723 0.0
H181 H 0.35082 0.0682 0.91168 0.0
O182 O 0.24055 0.02086 0.88745 0.0
C183 C 0.28167 0.05233 0.9265 0.0
O184 O 0.30533 0.08785 0.92426 0.0
N185 N 0.29447 0.09342 0.88306 0.0
C186 C 0.32223 0.15141 0.86342 0.0
C187 C 0.28927 0.11794 0.86047 0.0
C188 C 0.27552 0.08915 0.87057 0.0
C189 C 0.3274 0.12502 0.88574 0.0
C190 C 0.34177 0.15456 0.87607 0.0
H191 H 0.24905 0.06437 0.86858 0.0
H192 H 0.34168 0.12783 0.89579 0.0
H193 H 0.19329 0.02527 0.90363 0.0
H194 H 0.21758 0.13396 0.91378 0.0
H195 H 0.35785 0.02029 0.87279 0.0
H196 H 0.27312 0.11499 0.85091 0.0
H197 H 0.36709 0.18016 0.87871 0.0
C198 C 0.73283 0.85653 0.41438 0.0
C199 C 0.76843 0.88394 0.41098 0.0
N200 N 0.79259 0.87636 0.41776 0.0
N201 N 0.73443 0.83181 0.42328 0.0
C202 C 0.77116 0.84448 0.42511 0.0
H203 H 0.70729 0.85483 0.41071 0.0
Co204 Co 0.69296 0.79032 0.43079 0.0
C205 C 0.71978 0.77291 0.45772 0.0
O206 O 0.68953 0.76727 0.46439 0.0
N207 N 0.64978 0.74735 0.43821 0.0
C208 C 0.5977 0.7084 0.45007 0.0
C209 C 0.62411 0.74499 0.44785 0.0
C210 C 0.63785 0.71131 0.43482 0.0
N211 N 0.60632 0.68731 0.4418 0.0
O212 O 0.69937 0.7608 0.41672 0.0
H213 H 0.62459 0.76795 0.45345 0.0
H214 H 0.65219 0.70241 0.42755 0.0
O215 O 0.72454 0.78226 0.44444 0.0
C216 C 0.67961 0.75753 0.40574 0.0
O217 O 0.65715 0.77123 0.40641 0.0
N218 N 0.68632 0.82191 0.44311 0.0
C219 C 0.67437 0.87416 0.45717 0.0
C220 C 0.70422 0.86912 0.46107 0.0
C221 C 0.71027 0.84343 0.45367 0.0
C222 C 0.65851 0.82797 0.43863 0.0
C223 C 0.65156 0.85349 0.44568 0.0
H224 H 0.73501 0.84213 0.45606 0.0
H225 H 0.64144 0.81254 0.42955 0.0
H226 H 0.78202 0.83045 0.43159 0.0
H227 H 0.77585 0.90795 0.40426 0.0
H228 H 0.57383 0.69811 0.45714 0.0
H229 H 0.72371 0.88603 0.46937 0.0
H230 H 0.62875 0.85713 0.44213 0.0
C231 C 0.88064 0.75351 0.74275 0.0
C232 C 0.88825 0.78895 0.73948 0.0
N233 N 0.91794 0.81322 0.74729 0.0
N234 N 0.90524 0.75544 0.75264 0.0
C235 C 0.92775 0.79215 0.75515 0.0
H236 H 0.85855 0.72786 0.73826 0.0
Co237 Co 0.90517 0.71434 0.76023 0.0
C238 C 0.94807 0.73909 0.78728 0.0
O239 O 0.92229 0.70819 0.7933 0.0
N240 N 0.90511 0.6717 0.76764 0.0
C241 C 0.89087 0.61663 0.77691 0.0
C242 C 0.87765 0.64011 0.77368 0.0
C243 C 0.93475 0.66641 0.7674 0.0
N244 N 0.92678 0.63316 0.77291 0.0
O245 O 0.94111 0.72048 0.74618 0.0
H246 H 0.84947 0.63356 0.77564 0.0
H247 H 0.96182 0.68665 0.76324 0.0
O248 O 0.94485 0.74573 0.77406 0.0
C249 C 0.9254 0.69732 0.73597 0.0
O250 O 0.89014 0.67172 0.73734 0.0
N251 N 0.86678 0.70774 0.7725 0.0
C252 C 0.80205 0.69464 0.78641 0.0
C253 C 0.83679 0.72424 0.79069 0.0
C254 C 0.86889 0.73086 0.78336 0.0
C255 C 0.83295 0.68103 0.76748 0.0
C256 C 0.80025 0.67315 0.77455 0.0
H257 H 0.89499 0.75516 0.78616 0.0
H258 H 0.83152 0.66531 0.75798 0.0
H259 H 0.9505 0.80326 0.76277 0.0
H260 H 0.87333 0.79626 0.73182 0.0
H261 H 0.87483 0.58893 0.7814 0.0
H262 H 0.83909 0.74227 0.79953 0.0
H263 H 0.77378 0.65107 0.77058 0.0
C264 C 0.13422 0.88243 0.10001 0.0
C265 C 0.10094 0.88207 0.09889 0.0
N266 N 0.10806 0.9174 0.10008 0.0
N267 N 0.16195 0.91783 0.10188 0.0
C268 C 0.14518 0.93842 0.10184 0.0
H269 H 0.13811 0.85864 0.09907 0.0
Co270 Co 0.21265 0.93561 0.10215 0.0
C271 C 0.24186 0.99328 0.12502 0.0
O272 O 0.26416 0.9811 0.12913 0.0
N273 N 0.26436 0.95428 0.10184 0.0
C274 C 0.32438 0.9942 0.09773 0.0
C275 C 0.28944 0.98993 0.09847 0.0
C276 C 0.2849 0.93738 0.10289 0.0
N277 N 0.32143 0.961 0.10049 0.0
O278 O 0.21773 0.9629 0.08498 0.0
H279 H 0.28261 0.01145 0.09639 0.0
H280 H 0.27378 0.90835 0.1052 0.0
O281 O 0.22 0.97782 0.11432 0.0
C282 C 0.21058 0.94089 0.07438 0.0
O283 O 0.20145 0.90623 0.07705 0.0
N284 N 0.20564 0.90504 0.11805 0.0
C285 C 0.18194 0.84653 0.13775 0.0
C286 C 0.17988 0.87853 0.14106 0.0
C287 C 0.19141 0.90722 0.13102 0.0
C288 C 0.20652 0.87367 0.11448 0.0
C289 C 0.19641 0.8449 0.12432 0.0
H290 H 0.18598 0.92953 0.1333 0.0
H291 H 0.21326 0.87004 0.10359 0.0
H292 H 0.16014 0.96853 0.10233 0.0
H293 H 0.07377 0.85787 0.09713 0.0
H294 H 0.34973 0.01953 0.09493 0.0
H295 H 0.16694 0.88045 0.15088 0.0
H296 H 0.19819 0.82081 0.12107 0.0
C297 C 0.24995 0.12286 0.4119 0.0
C298 C 0.21418 0.09556 0.40864 0.0
N299 N 0.19033 0.1031 0.4157 0.0
N300 N 0.24873 0.14747 0.42099 0.0
C301 C 0.2121 0.13489 0.42304 0.0
H302 H 0.27531 0.12444 0.40808 0.0
Co303 Co 0.29025 0.18856 0.42875 0.0
C304 C 0.26267 0.19642 0.45747 0.0
O305 O 0.29107 0.19661 0.46372 0.0
N306 N 0.33345 0.23132 0.43653 0.0
C307 C 0.38416 0.26902 0.44929 0.0
C308 C 0.3565 0.23297 0.44718 0.0
C309 C 0.34828 0.26741 0.43243 0.0
N310 N 0.37923 0.29087 0.43994 0.0
O311 O 0.28133 0.21931 0.41612 0.0
H312 H 0.35349 0.20974 0.45345 0.0
H313 H 0.33685 0.27652 0.42402 0.0
O314 O 0.25907 0.1932 0.44378 0.0
C315 C 0.299 0.22242 0.4045 0.0
O316 O 0.32079 0.20792 0.40404 0.0
N317 N 0.29955 0.15604 0.43942 0.0
C318 C 0.31566 0.10379 0.45079 0.0
C319 C 0.28261 0.10323 0.45452 0.0
C320 C 0.27472 0.12928 0.44851 0.0
C321 C 0.33058 0.15541 0.43499 0.0
C322 C 0.33978 0.1302 0.44087 0.0
H323 H 0.24829 0.12729 0.45084 0.0
H324 H 0.34844 0.17491 0.42689 0.0
H325 H 0.20157 0.14885 0.42974 0.0
H326 H 0.20645 0.07155 0.40189 0.0
H327 H 0.40577 0.27822 0.45735 0.0
H328 H 0.26289 0.08265 0.46194 0.0
H329 H 0.36495 0.1307 0.43741 0.0
C330 C 0.11711 0.26826 0.75982 0.0
C331 C 0.11424 0.23521 0.75548 0.0
N332 N 0.07874 0.20781 0.75744 0.0
N333 N 0.08368 0.26156 0.76463 0.0
C334 C 0.06081 0.22462 0.76291 0.0
H335 H 0.14204 0.29538 0.75968 0.0
Co336 Co 0.0728 0.29628 0.77221 0.0
C337 C -0.00081 0.24999 0.78523 0.0
O338 O 0.98739 0.26949 0.77815 0.0
N339 N 0.06249 0.33165 0.77989 0.0
C340 C 0.05152 0.36564 0.79543 0.0
C341 C 0.05522 0.33478 0.79381 0.0
C342 C 0.06359 0.36115 0.77331 0.0
N343 N 0.05689 0.38228 0.78251 0.0
O344 O 0.04001 0.28707 0.75642 0.0
H345 H 0.05307 0.31596 0.80229 0.0
H346 H 0.07009 0.3676 0.76206 0.0
O347 O 0.03283 0.25752 0.78377 0.0
C348 C 0.05855 0.30676 0.7457 0.0
O349 O 0.09417 0.33083 0.74743 0.0
N350 N 0.10749 0.30689 0.78659 0.0
C351 C 0.17111 0.32373 0.80209 0.0
C352 C 0.13781 0.28998 0.8044 0.0
C353 C 0.10617 0.2819 0.79642 0.0
C354 C 0.13877 0.34074 0.7849 0.0
C355 C 0.17098 0.34984 0.7926 0.0
H356 H 0.08173 0.25462 0.79738 0.0
H357 H 0.13938 0.35976 0.77681 0.0
H358 H 0.03173 0.21014 0.76594 0.0
H359 H 0.13652 0.23165 0.75121 0.0
H360 H 0.04499 0.37478 0.80535 0.0
H361 H 0.13701 0.26876 0.81141 0.0
H362 H 0.19611 0.37612 0.79053 0.0
C363 C 0.83674 0.09834 0.08907 0.0
C364 C 0.86789 0.09609 0.08569 0.0
N365 N 0.86692 0.06828 0.09349 0.0
N366 N 0.81639 0.07199 0.09889 0.0
C367 C 0.83546 0.05415 0.10135 0.0
H368 H 0.82894 0.11737 0.08446 0.0
Co369 Co 0.77039 0.0613 0.10579 0.0
C370 C 0.75597 0.01449 0.13188 0.0
O371 O 0.74155 0.03265 0.13821 0.0
N372 N 0.72288 0.05013 0.11252 0.0
C373 C 0.67412 0.05095 0.12206 0.0
C374 C 0.71163 0.07146 0.11946 0.0
C375 C 0.69137 0.01671 0.1111 0.0
N376 N 0.66141 0.01653 0.11677 0.0
O377 O 0.74812 0.02498 0.09099 0.0
H378 H 0.72892 0.10014 0.12254 0.0
H379 H 0.69035 0.99279 0.10601 0.0
O380 O 0.76915 0.02363 0.11912 0.0
C381 C 0.73801 0.038 0.08064 0.0
O382 O 0.74034 0.07055 0.08228 0.0
N383 N 0.79432 0.10026 0.11879 0.0
C384 C 0.83468 0.16754 0.13339 0.0
C385 C 0.83519 0.13551 0.13801 0.0
C386 C 0.81525 0.10219 0.13041 0.0
C387 C 0.79535 0.13151 0.11368 0.0
C388 C 0.81441 0.16516 0.12101 0.0
H389 H 0.81816 0.07874 0.13351 0.0
H390 H 0.78068 0.13001 0.10386 0.0
H391 H 0.82587 0.03026 0.10832 0.0
H392 H 0.88935 0.11333 0.07804 0.0
H393 H 0.65726 0.06112 0.12696 0.0
H394 H 0.8521 0.13651 0.14705 0.0
H395 H 0.81348 0.18909 0.11691 0.0
H396 H 0.65746 0.60029 0.25386 0.0
H397 H 0.59059 0.55846 0.25766 0.0
H398 H 0.57701 0.53099 0.21247 0.0
H399 H 0.64387 0.57189 0.20876 0.0
H400 H 0.5317 0.55894 0.24749 0.0
H401 H 0.5254 0.42902 0.22975 0.0
H402 H 0.56895 0.47129 0.23299 0.0
H403 H 0.54534 0.46384 0.21599 0.0
C404 C 0.64009 0.58533 0.24476 0.0
C405 C 0.65573 0.58903 0.23103 0.0
C406 C 0.602 0.56135 0.24695 0.0
C407 C 0.57896 0.54087 0.23542 0.0
C408 C 0.59444 0.54547 0.22162 0.0
H409 H 0.34863 0.45681 0.2223 0.0
H410 H 0.41539 0.49314 0.22584 0.0
C411 C 0.63254 0.569 0.21948 0.0
C412 C 0.53849 0.51571 0.23763 0.0
H413 H 0.46711 0.42874 0.22968 0.0
C414 C 0.51763 0.53029 0.24379 0.0
C415 C 0.5202 0.47801 0.23321 0.0
C416 C 0.54124 0.45954 0.22778 0.0
C417 C 0.47874 0.50883 0.24486 0.0
C418 C 0.4602 0.47226 0.23918 0.0
C419 C 0.48124 0.45699 0.23381 0.0
C420 C 0.41914 0.45034 0.23775 0.0
C421 C 0.45803 0.52571 0.25201 0.0
C422 C 0.39899 0.4136 0.24284 0.0
C423 C 0.36065 0.39211 0.24043 0.0
C424 C 0.3417 0.407 0.23287 0.0
C425 C 0.36206 0.44403 0.22798 0.0
C426 C 0.40034 0.46525 0.23024 0.0
H427 H 0.47562 0.54652 0.26026 0.0
H428 H 0.45075 0.54043 0.24381 0.0
H429 H 0.43201 0.50415 0.25723 0.0
H430 H 0.41303 0.40138 0.24853 0.0
H431 H 0.3462 0.36366 0.24422 0.0
H432 H 0.05438 0.64867 0.53169 0.0
H433 H 0.04376 0.58575 0.53553 0.0
H434 H 0.99543 0.58174 0.57701 0.0
H435 H 0.00545 0.6445 0.57317 0.0
H436 H 0.07191 0.56287 0.56132 0.0
H437 H 0.9178 0.48519 0.554 0.0
H438 H 0.94696 0.53126 0.54667 0.0
H439 H 0.93787 0.52532 0.56562 0.0
C440 C 0.04108 0.63422 0.54154 0.0
C441 C 0.03068 0.65141 0.55212 0.0
C442 C 0.0353 0.59849 0.54376 0.0
C443 C 0.01872 0.57933 0.55651 0.0
C444 C 0.00809 0.5962 0.56708 0.0
H445 H 0.9523 0.34863 0.57652 0.0
H446 H 0.96384 0.41227 0.57875 0.0
C447 C 0.01406 0.63204 0.5649 0.0
C448 C 0.01314 0.5418 0.55877 0.0
H449 H 0.94667 0.44991 0.5586 0.0
C450 C 0.04456 0.53811 0.56083 0.0
C451 C 0.97735 0.50986 0.55827 0.0
C452 C 0.94293 0.51278 0.55595 0.0
C453 C 0.04117 0.50293 0.56213 0.0
C454 C 0.00551 0.47084 0.56099 0.0
C455 C 0.97395 0.47464 0.55944 0.0
C456 C 0.00056 0.43313 0.56033 0.0
C457 C 0.07577 0.50047 0.56468 0.0
C458 C 0.01729 0.42391 0.54921 0.0
C459 C 0.01101 0.38777 0.54797 0.0
C460 C 0.98752 0.36005 0.55774 0.0
C461 C 0.97093 0.36944 0.56894 0.0
C462 C 0.97731 0.40569 0.57019 0.0
H463 H 0.09804 0.52617 0.56985 0.0
H464 H 0.06976 0.47621 0.57155 0.0
H465 H 0.08659 0.49719 0.55419 0.0
H466 H 0.0347 0.44453 0.54131 0.0
H467 H 0.02452 0.38157 0.53933 0.0
H468 H 0.42011 0.0484 0.87674 0.0
H469 H 0.47764 0.05152 0.88412 0.0
H470 H 0.45188 0.05821 0.92858 0.0
H471 H 0.39275 0.05283 0.92133 0.0
H472 H 0.53903 0.10233 0.89925 0.0
H473 H 0.46339 0.96709 0.92866 0.0
H474 H 0.43935 0.98316 0.91719 0.0
H475 H 0.45592 0.00404 0.93454 0.0
C476 C 0.42625 0.05011 0.88811 0.0
C477 C 0.40122 0.04949 0.89844 0.0
C478 C 0.45955 0.05249 0.8923 0.0
C479 C 0.4688 0.05459 0.9069 0.0
C480 C 0.44493 0.05593 0.91726 0.0
H481 H 0.63483 0.98824 0.92463 0.0
H482 H 0.60373 0.02395 0.93011 0.0
C483 C 0.41126 0.05315 0.91307 0.0
C484 C 0.50207 0.05236 0.91096 0.0
H485 H 0.52615 0.99031 0.92369 0.0
C486 C 0.5365 0.07834 0.90492 0.0
C487 C 0.4988 0.02124 0.9185 0.0
C488 C 0.46242 0.99211 0.92505 0.0
C489 C 0.56675 0.07218 0.90509 0.0
C490 C 0.56229 0.03933 0.91144 0.0
C491 C 0.52928 0.01544 0.9188 0.0
C492 C 0.58765 0.02515 0.90808 0.0
C493 C 0.60244 0.09961 0.89769 0.0
C494 C 0.58913 0.01448 0.89388 0.0
C495 C 0.60621 0.99374 0.89081 0.0
C496 C 0.62232 0.98356 0.90185 0.0
C497 C 0.62281 0.9961 0.91594 0.0
C498 C 0.60514 0.01643 0.91907 0.0
H499 H 0.6061 0.12802 0.89768 0.0
H500 H 0.62693 0.10058 0.90295 0.0
H501 H 0.60149 0.09096 0.88633 0.0
H502 H 0.5751 0.02027 0.8853 0.0
H503 H 0.60575 0.98452 0.87988 0.0
H504 H 0.56974 0.63805 0.46301 0.0
H505 H 0.53198 0.57036 0.46079 0.0
H506 H 0.55657 0.57885 0.41538 0.0
H507 H 0.59538 0.64662 0.41772 0.0
H508 H 0.47056 0.53008 0.44576 0.0
H509 H 0.57874 0.49893 0.42679 0.0
H510 H 0.59003 0.54399 0.43369 0.0
H511 H 0.57383 0.53123 0.4155 0.0
C512 C 0.56723 0.62538 0.45259 0.0
C513 C 0.58553 0.64744 0.44055 0.0
C514 C 0.5457 0.58676 0.45132 0.0
C515 C 0.54176 0.56942 0.43795 0.0
C516 C 0.55996 0.59145 0.42587 0.0
H517 H 0.36228 0.33844 0.42594 0.0
H518 H 0.40128 0.40576 0.42384 0.0
C519 C 0.58202 0.63013 0.4272 0.0
C520 C 0.51748 0.52846 0.4367 0.0
H521 H 0.5165 0.44877 0.42684 0.0
C522 C 0.4806 0.51228 0.44162 0.0
C523 C 0.53071 0.50527 0.43139 0.0
C524 C 0.57058 0.52065 0.42667 0.0
C525 C 0.45676 0.47356 0.44163 0.0
C526 C 0.46977 0.45039 0.43609 0.0
C527 C 0.50647 0.4666 0.43095 0.0
C528 C 0.44669 0.40919 0.43646 0.0
C529 C 0.41842 0.4579 0.44811 0.0
C530 C 0.45985 0.38847 0.4437 0.0
C531 C 0.43804 0.34981 0.44462 0.0
C532 C 0.40226 0.33082 0.43843 0.0
C533 C 0.38951 0.35171 0.43087 0.0
C534 C 0.41165 0.39044 0.4298 0.0
H535 H 0.41654 0.47841 0.45522 0.0
H536 H 0.39772 0.45054 0.43936 0.0
H537 H 0.41069 0.43239 0.45446 0.0
H538 H 0.48694 0.40229 0.44883 0.0
H539 H 0.44948 0.33501 0.45023 0.0
H540 H 0.98228 0.64565 0.7543 0.0
H541 H 0.01611 0.61131 0.75319 0.0
H542 H 0.95737 0.54879 0.79084 0.0
H543 H 0.92398 0.58322 0.79216 0.0
H544 H 0.05928 0.5952 0.7772 0.0
H545 H 0.93188 0.47399 0.75493 0.0
H546 H 0.94026 0.52106 0.75399 0.0
H547 H 0.9247 0.49532 0.77051 0.0
C548 C 0.97725 0.62522 0.76253 0.0
C549 C 0.95014 0.61675 0.77322 0.0
C550 C -0.00352 0.6056 0.76185 0.0
C551 C 0.9888 0.57738 0.77184 0.0
C552 C 0.96331 0.57031 0.78296 0.0
H553 H 0.06731 0.43741 0.8009 0.0
H554 H 0.05695 0.48909 0.79595 0.0
C555 C 0.94414 0.58982 0.78365 0.0
C556 C 0.00484 0.55299 0.77017 0.0
H557 H 0.97901 0.46251 0.7636 0.0
C558 C 0.04206 0.56632 0.77401 0.0
C559 C 0.98237 0.51564 0.76575 0.0
C560 C 0.94264 0.50058 0.76093 0.0
C561 C 0.05682 0.5424 0.77433 0.0
C562 C 0.03343 0.50429 0.77094 0.0
C563 C -0.00312 0.49167 0.76628 0.0
C564 C 0.04477 0.47614 0.77336 0.0
C565 C 0.09705 0.55803 0.7785 0.0
C566 C 0.04099 0.45137 0.76234 0.0
C567 C 0.04604 0.42118 0.76522 0.0
C568 C 0.05485 0.41513 0.77921 0.0
C569 C 0.05997 0.44084 0.79008 0.0
C570 C 0.05474 0.47088 0.7872 0.0
H571 H 0.11388 0.58808 0.77577 0.0
H572 H 0.09888 0.55532 0.7903 0.0
H573 H 0.10939 0.5429 0.77308 0.0
H574 H 0.03291 0.45471 0.75161 0.0
H575 H 0.04153 0.40182 0.75662 0.0
H576 H 0.39476 0.00882 0.10497 0.0
H577 H 0.44488 0.99447 0.10468 0.0
H578 H 0.36584 0.87904 0.09619 0.0
H579 H 0.31531 0.89323 0.09601 0.0
H580 H 0.42041 0.89514 0.11972 0.0
H581 H 0.48462 0.96475 0.06828 0.0
H582 H 0.47324 0.99265 0.07963 0.0
H583 H 0.43658 0.94906 0.07274 0.0
C584 C 0.38793 0.98048 0.10282 0.0
C585 C 0.35094 0.9523 0.10045 0.0
C586 C 0.41661 0.9723 0.1027 0.0
C587 C 0.40894 0.93582 0.10023 0.0
C588 C 0.37216 0.90739 0.09805 0.0
H589 H 0.62966 0.9657 0.09539 0.0
H590 H 0.56288 0.92719 0.09079 0.0
C591 C 0.34335 0.91559 0.09806 0.0
C592 C 0.43986 0.92804 0.10038 0.0
H593 H 0.52592 0.96155 0.08582 0.0
C594 C 0.44316 0.90864 0.1121 0.0
C595 C 0.46889 0.94466 0.0902 0.0
C596 C 0.46556 0.96362 0.07691 0.0
C597 C 0.47671 0.90923 0.11478 0.0
C598 C 0.50752 0.93029 0.10563 0.0
C599 C 0.50253 0.94576 0.09298 0.0
C600 C 0.54625 0.94345 0.11028 0.0
C601 C 0.47942 0.88907 0.12779 0.0
C602 C 0.55902 0.96415 0.12304 0.0
C603 C 0.59703 0.98598 0.1257 0.0
C604 C 0.62301 0.9879 0.11558 0.0
C605 C 0.61028 0.9647 0.10341 0.0
C606 C 0.57212 0.9427 0.10076 0.0
H607 H 0.45268 0.86284 0.12963 0.0
H608 H 0.50206 0.88239 0.12665 0.0
H609 H 0.48497 0.90681 0.13745 0.0
H610 H 0.53979 0.96597 0.13041 0.0
H611 H 0.60611 0.00311 0.13528 0.0
H612 H 0.34433 0.24643 0.38124 0.0
H613 H 0.333 0.26655 0.35815 0.0
H614 H 0.23128 0.25669 0.3746 0.0
H615 H 0.24237 0.23605 0.39794 0.0
H616 H 0.22339 0.21861 0.34835 0.0
H617 H 0.33989 0.36437 0.34545 0.0
H618 H 0.35444 0.33164 0.3501 0.0
H619 H 0.32472 0.33882 0.36215 0.0
C620 C 0.31981 0.24909 0.38006 0.0
C621 C 0.29417 0.23961 0.39139 0.0
C622 C 0.31352 0.26082 0.36686 0.0
C623 C 0.28152 0.26345 0.36471 0.0
C624 C 0.25628 0.25503 0.37611 0.0
H625 H 0.23305 0.3486 0.2879 0.0
H626 H 0.24753 0.33779 0.31219 0.0
C627 C 0.26271 0.24346 0.38943 0.0
C628 C 0.27334 0.27205 0.35018 0.0
H629 H 0.30923 0.33667 0.3233 0.0
C630 C 0.24191 0.24455 0.3429 0.0
C631 C 0.29757 0.30593 0.34313 0.0
C632 C 0.33087 0.33705 0.35065 0.0
C633 C 0.23451 0.24971 0.32862 0.0
C634 C 0.25954 0.28301 0.32139 0.0
C635 C 0.29045 0.31089 0.32879 0.0
C636 C 0.25299 0.29031 0.3064 0.0
C637 C 0.19977 0.21966 0.32144 0.0
C638 C 0.25225 0.26773 0.29499 0.0
C639 C 0.24397 0.27386 0.281 0.0
C640 C 0.23635 0.30267 0.27826 0.0
C641 C 0.23853 0.32599 0.28965 0.0
C642 C 0.24685 0.31992 0.30355 0.0
H643 H 0.17945 0.19993 0.32938 0.0
H644 H 0.18604 0.23196 0.31503 0.0
H645 H 0.2074 0.2036 0.31403 0.0
H646 H 0.25761 0.24513 0.29694 0.0
H647 H 0.24255 0.25549 0.27244 0.0
H648 H 0.0137 0.23277 0.60992 0.0
H649 H 0.02865 0.24036 0.6357 0.0
H650 H 0.96637 0.29723 0.641 0.0
H651 H 0.95025 0.28838 0.6155 0.0
H652 H 0.06331 0.2972 0.65372 0.0
H653 H 0.91554 0.21543 0.66994 0.0
H654 H 0.93035 0.21784 0.65154 0.0
H655 H 0.92386 0.25431 0.65894 0.0
C656 C 0.00379 0.24741 0.61658 0.0
C657 C 0.98063 0.25977 0.6108 0.0
C658 C 0.01208 0.25151 0.63131 0.0
C659 C -0.00244 0.26826 0.64038 0.0
C660 C 0.97669 0.28296 0.63434 0.0
H661 H 0.07696 0.35803 0.7247 0.0
H662 H 0.06001 0.34669 0.6993 0.0
C663 C 0.96789 0.2783 0.61974 0.0
C664 C 0.00379 0.27019 0.65615 0.0
H665 H 0.9587 0.25202 0.68847 0.0
C666 C 0.04043 0.28704 0.66132 0.0
C667 C 0.97387 0.256 0.6661 0.0
C668 C 0.93371 0.2345 0.66135 0.0
C669 C 0.04805 0.29146 0.67612 0.0
C670 C 0.01826 0.27988 0.68602 0.0
C671 C 0.98155 0.26162 0.68088 0.0
C672 C 0.02481 0.28703 0.70169 0.0
C673 C 0.08798 0.30813 0.68096 0.0
C674 C 0.00838 0.25765 0.71167 0.0
C675 C 0.0172 0.26429 0.72632 0.0
C676 C 0.04278 0.30034 0.7311 0.0
C677 C 0.05742 0.32992 0.72123 0.0
C678 C 0.04812 0.3234 0.7067 0.0
H679 H 0.10503 0.3038 0.67281 0.0
H680 H 0.10024 0.3386 0.68242 0.0
H681 H 0.08995 0.2959 0.69131 0.0
H682 H 0.98993 0.2294 0.70806 0.0
H683 H 0.0058 0.241 0.73372 0.0
H684 H 0.69585 0.04523 0.06015 0.0
H685 H 0.68952 0.02594 0.03503 0.0
H686 H 0.7559 0.9746 0.04327 0.0
H687 H 0.76141 0.993 0.06863 0.0
H688 H 0.74633 0.04929 0.01627 0.0
H689 H 0.67117 0.89497 0.01997 0.0
H690 H 0.67446 0.92412 0.03495 0.0
H691 H 0.71309 0.91784 0.03046 0.0
C692 C 0.70837 0.02906 0.05668 0.0
C693 C 0.72899 0.02045 0.06632 0.0
C694 C 0.7049 0.01824 0.04231 0.0
C695 C 0.72219 -0.00119 0.03726 0.0
C696 C 0.74176 0.989 0.04698 0.0
H697 H 0.7615 0.98673 0.94482 0.0
H698 H 0.77082 0.0048 0.97031 0.0
C699 C 0.74485 -0.00055 0.06146 0.0
C700 C 0.72143 0.99112 0.02165 0.0
H701 H 0.69339 0.92129 0.99699 0.0
C702 C 0.73475 0.02129 0.01204 0.0
C703 C 0.70626 0.9546 0.01617 0.0
C704 C 0.69011 0.92096 0.02589 0.0
C705 C 0.73265 0.01589 0.99709 0.0
C706 C 0.71765 0.97938 0.99162 0.0
C707 C 0.70501 0.94929 1.00123 0.0
C708 C 0.71251 0.97123 0.97599 0.0
C709 C 0.74526 0.04914 0.98734 0.0
C710 C 0.67676 0.94656 0.97073 0.0
C711 C 0.67154 0.93595 0.95633 0.0
C712 C 0.70192 0.94999 0.94683 0.0
C713 C 0.73757 0.97591 0.9519 0.0
C714 C 0.74289 0.98621 0.96644 0.0
H715 H 0.74731 0.07347 0.99316 0.0
H716 H 0.77323 0.05734 0.98299 0.0
H717 H 0.72586 0.04242 0.97814 0.0
H718 H 0.65291 0.93484 0.97788 0.0
H719 H 0.64372 0.91602 0.95269 0.0
H720 H 0.73421 0.74199 0.39795 0.0
H721 H 0.7447 0.72455 0.3739 0.0
H722 H 0.64551 0.72208 0.35849 0.0
H723 H 0.63462 0.73895 0.38237 0.0
H724 H 0.65391 0.66288 0.34827 0.0
H725 H 0.78148 0.80083 0.34054 0.0
H726 H 0.78143 0.77555 0.35624 0.0
H727 H 0.74877 0.79181 0.35491 0.0
C728 C 0.71437 0.73714 0.38948 0.0
C729 C 0.68382 0.7422 0.392 0.0
C730 C 0.72053 0.72747 0.37575 0.0
C731 C 0.69622 0.72274 0.36439 0.0
C732 C 0.6647 0.72585 0.36709 0.0
H733 H 0.74407 0.73684 0.27269 0.0
H734 H 0.72376 0.7443 0.29664 0.0
C735 C 0.6586 0.73557 0.38075 0.0
C736 C 0.7042 0.71622 0.3495 0.0
H737 H 0.7658 0.75678 0.32188 0.0
C738 C 0.6784 0.68333 0.34249 0.0
C739 C 0.73574 0.74338 0.34192 0.0
C740 C 0.76335 0.78005 0.3487 0.0
C741 C 0.68366 0.67657 0.32813 0.0
C742 C 0.71575 0.70326 0.32069 0.0
C743 C 0.74124 0.73638 0.32764 0.0
C744 C 0.72435 0.69676 0.3059 0.0
C745 C 0.65461 0.64118 0.32099 0.0
C746 C 0.73104 0.66743 0.30319 0.0
C747 C 0.74259 0.66315 0.28961 0.0
C748 C 0.74786 0.68823 0.27846 0.0
C749 C 0.74008 0.71699 0.28105 0.0
C750 C 0.72862 0.72135 0.29471 0.0
H751 H 0.62738 0.62901 0.32663 0.0
H752 H 0.6506 0.64623 0.30958 0.0
H753 H 0.66392 0.62037 0.32125 0.0
H754 H 0.72855 0.64856 0.31173 0.0
H755 H 0.74835 0.64069 0.28796 0.0
H756 H 0.048 0.71047 0.60807 0.0
H757 H 0.02575 0.6971 0.63286 0.0
H758 H 0.96972 0.76002 0.62699 0.0
H759 H 0.99107 0.77242 0.60191 0.0
H760 H 0.04588 0.74976 0.65296 0.0
H761 H 0.89181 0.67012 0.64857 0.0
H762 H 0.92188 0.67731 0.63342 0.0
H763 H 0.91317 0.71366 0.63909 0.0
C764 C 0.03001 0.7205 0.61196 0.0
C765 C 0.02101 0.74226 0.60313 0.0
C766 C 0.0175 0.71304 0.62613 0.0
C767 C 0.99607 0.72753 0.6318 0.0
C768 C 0.98562 0.74795 0.62278 0.0
H769 H 0.98006 0.76155 0.72373 0.0
H770 H -0.00015 0.7701 0.69849 0.0
C771 C -0.00227 0.75497 0.60846 0.0
C772 C 0.98772 0.72383 0.64741 0.0
H773 H 0.91703 0.69132 0.67187 0.0
C774 C 0.01767 0.73682 0.6571 0.0
C775 C 0.95095 0.70686 0.65279 0.0
C776 C 0.91757 0.69086 0.64294 0.0
C777 C 0.01187 0.73307 0.67202 0.0
C778 C 0.97516 0.71673 0.6774 0.0
C779 C 0.94521 0.70395 0.66772 0.0
C780 C 0.9668 0.71161 0.69301 0.0
C781 C 0.04505 0.74572 0.68182 0.0
C782 C 0.94199 0.67596 0.69834 0.0
C783 C 0.93039 0.67116 0.71264 0.0
C784 C 0.94358 0.70188 0.72192 0.0
C785 C 0.96996 0.73734 0.71684 0.0
C786 C 0.98122 0.74223 0.70242 0.0
H787 H 0.06938 0.74772 0.67601 0.0
H788 H 0.05328 0.77377 0.68609 0.0
H789 H 0.03834 0.72643 0.69106 0.0
H790 H 0.93065 0.65194 0.69129 0.0
H791 H 0.91002 0.64351 0.7163 0.0
H792 H 0.31102 0.0919 0.951 0.0
H793 H 0.29508 0.07074 0.97576 0.0
H794 H 0.21637 0.96028 0.96089 0.0
H795 H 0.23214 0.98132 0.93582 0.0
H796 H 0.22017 0.03627 0.98834 0.0
H797 H 0.286 0.94793 0.99072 0.0
H798 H 0.29856 0.98373 0.97729 0.0
H799 H 0.25539 0.9406 0.97582 0.0
C800 C 0.29042 0.063 0.95292 0.0
C801 C 0.27286 0.03823 0.94142 0.0
C802 C 0.2813 0.05104 0.9671 0.0
C803 C 0.25469 0.01402 0.97012 0.0
C804 C 0.23724 0.98895 0.95873 0.0
H805 H 0.1816 0.89685 0.05095 0.0
H806 H 0.18988 0.91537 0.02577 0.0
C807 C 0.24625 0.00098 0.94444 0.0
C808 C 0.2452 0.00221 0.98526 0.0
H809 H 0.25539 0.95082 0.01156 0.0
C810 C 0.22768 0.01746 0.99345 0.0
C811 C 0.25523 0.97784 0.99182 0.0
C812 C 0.27506 0.96165 0.98355 0.0
C813 C 0.21956 0.00865 0.00807 0.0
C814 C 0.23008 0.98466 0.0147 0.0
C815 C 0.24742 0.96927 0.00646 0.0
C816 C 0.22284 0.97441 0.03012 0.0
C817 C 0.19926 0.02457 0.01619 0.0
C818 C 0.23828 0.00155 0.041 0.0
C819 C 0.2333 0.99102 0.05551 0.0
C820 C 0.21331 0.95317 0.0593 0.0
C821 C 0.19736 0.92625 0.04838 0.0
C822 C 0.20205 0.93676 0.03397 0.0
H823 H 0.18447 0.03384 0.0088 0.0
H824 H 0.17873 0.00384 0.02381 0.0
H825 H 0.21967 0.04913 0.02246 0.0
H826 H 0.25506 0.03076 0.03826 0.0
H827 H 0.24613 0.01231 0.0637 0.0
H828 H 0.05736 0.15654 0.27022 0.0
H829 H 0.01919 0.0887 0.27099 0.0
H830 H 0.07142 0.08093 0.23208 0.0
H831 H 0.10953 0.14878 0.23115 0.0
H832 H 0.96869 0.04123 0.25043 0.0
H833 H 0.0821 0.00961 0.25963 0.0
H834 H 0.08845 0.05557 0.26212 0.0
H835 H 0.08919 0.03892 0.24435 0.0
C836 C 0.06068 0.14046 0.26179 0.0
C837 C 0.0866 0.15815 0.25064 0.0
C838 C 0.03895 0.10168 0.26229 0.0
C839 C 0.04283 0.07981 0.2517 0.0
C840 C 0.06857 0.09729 0.24053 0.0
H841 H 0.88735 0.84853 0.23121 0.0
H842 H 0.92559 0.91638 0.23126 0.0
C843 C 0.09036 0.13609 0.24003 0.0
C844 C 0.01913 0.03875 0.25214 0.0
H845 H 0.02223 0.95828 0.25437 0.0
C846 C 0.98035 0.02306 0.25133 0.0
C847 C 0.03445 0.0152 0.25348 0.0
C848 C 0.0758 0.03059 0.25508 0.0
C849 C 0.95644 0.98433 0.25161 0.0
C850 C 0.97182 0.96076 0.25251 0.0
C851 C 0.01057 0.97646 0.25355 0.0
C852 C 0.94817 0.91968 0.25254 0.0
C853 C 0.91492 0.96901 0.25116 0.0
C854 C 0.94869 0.89902 0.26437 0.0
C855 C 0.92686 0.86022 0.26438 0.0
C856 C 0.9042 0.8413 0.25251 0.0
C857 C 0.9039 0.86217 0.24064 0.0
C858 C 0.92578 0.90098 0.24064 0.0
H859 H 0.90753 0.99041 0.25416 0.0
H860 H 0.90467 0.95947 0.24007 0.0
H861 H 0.90019 0.94483 0.25851 0.0
H862 H 0.96585 0.91296 0.27366 0.0
H863 H 0.92747 0.8451 0.27376 0.0
H864 H 0.98708 0.11587 0.57473 0.0
H865 H 0.00909 0.07297 0.5804 0.0
H866 H 0.9383 0.03515 0.61788 0.0
H867 H 0.9158 0.07829 0.61216 0.0
H868 H 0.04491 0.0676 0.60473 0.0
H869 H 0.90814 0.93872 0.59586 0.0
H870 H 0.91668 0.98399 0.59033 0.0
H871 H 0.90958 0.97122 0.60899 0.0
C872 C 0.97644 0.09878 0.58427 0.0
C873 C 0.94974 0.10048 0.59301 0.0
C874 C 0.989 0.0742 0.58748 0.0
C875 C 0.97519 0.05077 0.59951 0.0
C876 C 0.94889 0.05265 0.60843 0.0
H877 H 0.08413 0.91581 0.6119 0.0
H878 H 0.05915 0.95634 0.61851 0.0
C879 C 0.93606 0.0772 0.60515 0.0
C880 C 0.988 0.02387 0.60217 0.0
H881 H 0.96003 0.93159 0.59938 0.0
C882 C 0.02635 0.03776 0.60383 0.0
C883 C 0.96358 0.98505 0.60097 0.0
C884 C 0.92221 0.96866 0.59885 0.0
C885 C 0.0413 0.01407 0.60338 0.0
C886 C 0.01704 0.97541 0.60151 0.0
C887 C 0.97846 0.96128 0.60081 0.0
C888 C 0.03125 0.94996 0.59816 0.0
C889 C 0.08304 0.03086 0.6039 0.0
C890 C 0.02328 0.93254 0.58467 0.0
C891 C 0.03724 0.90941 0.58094 0.0
C892 C 0.05955 0.90321 0.59061 0.0
C893 C 0.06742 0.92052 0.60418 0.0
C894 C 0.05315 0.94358 0.60796 0.0
H895 H 0.09798 0.06172 0.60304 0.0
H896 H 0.09096 0.02343 0.61424 0.0
H897 H 0.0926 0.01969 0.59505 0.0
H898 H 0.00665 0.93732 0.57691 0.0
H899 H 0.03113 0.89691 0.57035 0.0
H900 H 0.13976 0.00391 0.91652 0.0
H901 H 0.07307 0.97923 0.91929 0.0
H902 H 0.08874 0.0889 0.91238 0.0
H903 H 0.15535 0.11362 0.90888 0.0
H904 H 0.03297 0.99588 0.93829 0.0
H905 H 0.01122 0.02747 0.88228 0.0
H906 H 0.05392 0.03002 0.88805 0.0
H907 H 0.04516 0.06728 0.89213 0.0
C908 C 0.12913 0.02281 0.9154 0.0
C909 C 0.15303 0.06072 0.91222 0.0
C910 C 0.09097 0.00866 0.91714 0.0
C911 C 0.0759 0.03209 0.91577 0.0
C912 C 0.09973 0.07018 0.91316 0.0
H913 H 0.84925 0.99003 0.91877 0.0
H914 H 0.91688 0.01859 0.91939 0.0
C915 C 0.13791 0.08435 0.91133 0.0
C916 C 0.03515 0.01638 0.91682 0.0
H917 H 0.95937 0.00428 0.89793 0.0
C918 C 0.01685 0.99768 0.92948 0.0
C919 C 0.01422 0.01864 0.90525 0.0
C920 C 0.03201 0.03661 0.89111 0.0
C921 C 0.97812 0.98144 0.93092 0.0
C922 C 0.95733 0.98382 0.91937 0.0
C923 C 0.97559 0.00273 0.90677 0.0
C924 C 0.9164 0.9663 0.91997 0.0
C925 C 0.9597 0.96215 0.94479 0.0
C926 C 0.89384 0.92742 0.92008 0.0
C927 C 0.85511 0.91091 0.91954 0.0
C928 C 0.83829 0.93306 0.91883 0.0
C929 C 0.86115 0.97207 0.91902 0.0
C930 C 0.89983 0.9885 0.91949 0.0
H931 H 0.98022 0.96939 0.95363 0.0
H932 H 0.93855 0.96956 0.94814 0.0
H933 H 0.94525 0.93156 0.94315 0.0
H934 H 0.90624 0.90986 0.9202 0.0
H935 H 0.83846 0.88086 0.91923 0.0
H936 H 0.83575 0.92403 0.39679 0.0
H937 H 0.90358 0.96225 0.39652 0.0
H938 H 0.90889 0.91686 0.43757 0.0
H939 H 0.84099 0.8788 0.43803 0.0
H940 H 0.94992 0.01634 0.41668 0.0
H941 H 0.98191 0.90184 0.41232 0.0
H942 H 0.93623 0.89516 0.40868 0.0
H943 H 0.95148 0.89719 0.42691 0.0
C944 C 0.85123 0.92223 0.4058 0.0
C945 C 0.83276 0.89821 0.41742 0.0
C946 C 0.89005 0.94401 0.4056 0.0
C947 C 0.91128 0.94208 0.41694 0.0
C948 C 0.89307 0.91823 0.42856 0.0
H949 H 0.14317 0.10066 0.43654 0.0
H950 H 0.07532 0.06237 0.43676 0.0
C951 C 0.8542 0.89643 0.42879 0.0
C952 C 0.95242 0.96578 0.41673 0.0
H953 H 0.03304 0.96259 0.41618 0.0
C954 C 0.96813 0.00463 0.41656 0.0
C955 C 0.97605 0.95039 0.41641 0.0
C956 C 0.96068 0.90886 0.41596 0.0
C957 C 0.00689 0.02853 0.41626 0.0
C958 C 0.03053 0.01314 0.41628 0.0
C959 C 0.01482 0.9743 0.41628 0.0
C960 C 0.07166 0.03688 0.41608 0.0
C961 C 0.02222 0.07004 0.41566 0.0
C962 C 0.09218 0.03488 0.40448 0.0
C963 C 0.13099 0.05683 0.40429 0.0
C964 C 0.15016 0.08109 0.41576 0.0
C965 C 0.12942 0.08289 0.4274 0.0
C966 C 0.09058 0.06094 0.42757 0.0
H967 H 0.00073 0.07695 0.41228 0.0
H968 H 0.03227 0.08208 0.4265 0.0
H969 H 0.04611 0.08349 0.40809 0.0
H970 H 0.07809 0.01646 0.39551 0.0
H971 H 0.14592 0.05498 0.39508 0.0
H972 H 0.88464 0.85375 0.74182 0.0
H973 H 0.91355 0.92158 0.74234 0.0
H974 H 0.01861 0.93131 0.75396 0.0
H975 H 0.99008 0.86348 0.75318 0.0
H976 H 0.9503 0.96835 0.76668 0.0
H977 H 0.04389 0.00342 0.71933 0.0
H978 H 0.0045 0.95739 0.72225 0.0
H979 H 0.04662 0.97282 0.73233 0.0
C980 C 0.914 0.8703 0.74429 0.0
C981 C 0.93508 0.8532 0.74742 0.0
C982 C 0.93042 0.90902 0.74466 0.0
C983 C 0.96827 0.93137 0.74802 0.0
C984 C 0.98946 0.91451 0.75114 0.0
H985 H 0.11524 0.16907 0.75888 0.0
H986 H 0.08822 0.10172 0.75628 0.0
C987 C 0.97302 0.87575 0.75084 0.0
C988 C 0.98514 0.97228 0.74885 0.0
H989 H 0.05069 0.05385 0.73352 0.0
C990 C 0.97214 0.98709 0.75941 0.0
C991 C 0.01373 0.99651 0.73937 0.0
C992 C 0.02792 0.98187 0.72759 0.0
C993 C 0.98737 0.02566 0.7609 0.0
C994 C 0.01577 0.04996 0.75135 0.0
C995 C 0.02885 0.03512 0.7408 0.0
C996 C 0.03234 0.09088 0.75221 0.0
C997 C 0.97352 0.04004 0.77292 0.0
C998 C 0.01005 0.10716 0.75042 0.0
C999 C 0.02539 0.14558 0.75191 0.0
C1000 C 0.06342 0.1685 0.75507 0.0
C1001 C 0.08594 0.15223 0.75636 0.0
C1002 C 0.07051 0.11375 0.75493 0.0
H1003 H 0.9594 0.01881 0.78148 0.0
H1004 H -0.00324 0.06547 0.77784 0.0
H1005 H 0.95308 0.04725 0.76853 0.0
H1006 H 0.9807 0.0901 0.74794 0.0
H1007 H 0.0075 0.15736 0.75057 0.0
H1008 H 0.9073 0.06803 0.07062 0.0
H1009 H 0.9475 0.04048 0.06965 0.0
H1010 H 0.92473 0.01022 0.11443 0.0
H1011 H 0.88445 0.03732 0.11541 0.0
H1012 H 0.01015 0.05612 0.0846 0.0
H1013 H 0.89874 0.91171 0.09591 0.0
H1014 H 0.88901 0.94815 0.09119 0.0
H1015 H 0.90109 0.94372 0.10939 0.0
C1016 C 0.91114 0.05573 0.08026 0.0
C1017 C 0.89247 0.05445 0.09305 0.0
C1018 C 0.93389 0.03985 0.07968 0.0
C1019 C 0.9383 0.0225 0.09187 0.0
C1020 C 0.92076 0.02242 0.10477 0.0
H1021 H 0.11196 0.97691 0.11342 0.0
H1022 H 0.07024 0.00188 0.11016 0.0
C1023 C 0.89787 0.03802 0.10533 0.0
C1024 C 0.96181 0.00506 0.0913 0.0
H1025 H 0.96148 0.9245 0.09889 0.0
C1026 C -0.00054 0.02723 0.08756 0.0
C1027 C 0.94759 0.96716 0.09487 0.0
C1028 C 0.9068 0.9412 0.09791 0.0
C1029 C 0.02371 0.01294 0.08795 0.0
C1030 C 0.01004 0.97579 0.09253 0.0
C1031 C 0.97203 0.95315 0.09561 0.0
C1032 C 0.03491 0.96023 0.09461 0.0
C1033 C 0.06369 0.03778 0.08342 0.0
C1034 C 0.02793 0.92761 0.08743 0.0
C1035 C 0.05147 0.913 0.08944 0.0
C1036 C 0.08238 0.93086 0.09865 0.0
C1037 C 0.08874 0.96301 0.10606 0.0
C1038 C 0.06506 0.97739 0.10415 0.0
H1039 H 0.0666 0.06009 0.07601 0.0
H1040 H 0.0809 0.0514 0.09307 0.0
H1041 H 0.07491 0.02162 0.07801 0.0
H1042 H 0.0046 0.91378 0.08011 0.0
H1043 H 0.04609 0.88835 0.08352 0.0
H1044 H 0.84692 0.17994 0.16225 0.0
H1045 H 0.89327 0.23666 0.17389 0.0
H1046 H 0.91894 0.29481 0.13328 0.0
H1047 H 0.8744 0.23721 0.12134 0.0
H1048 H 0.97789 0.30146 0.1435 0.0
H1049 H 0.91554 0.33447 0.18861 0.0
H1050 H 0.89782 0.28542 0.1897 0.0
H1051 H 0.88719 0.30461 0.17415 0.0
C1052 C 0.86207 0.20487 0.1558 0.0
C1053 C 0.85744 0.20373 0.14082 0.0
C1054 C 0.88801 0.23771 0.16255 0.0
C1055 C 0.90934 0.27041 0.15453 0.0
C1056 C 0.9026 0.27009 0.13973 0.0
H1057 H 0.12745 0.38145 0.19719 0.0
H1058 H 0.08049 0.38878 0.18364 0.0
C1059 C 0.87701 0.23703 0.13292 0.0
C1060 C 0.94361 0.30115 0.16103 0.0
H1061 H 0.97608 0.33512 0.19451 0.0
C1062 C 0.97766 0.31055 0.15442 0.0
C1063 C 0.94378 0.3141 0.17512 0.0
C1064 C 0.90897 0.30938 0.18216 0.0
C1065 C 0.01075 0.32656 0.16235 0.0
C1066 C 0.0094 0.33297 0.17718 0.0
C1067 C 0.97674 0.32931 0.18317 0.0
C1068 C 0.03672 0.3318 0.18691 0.0
C1069 C 0.04582 0.33168 0.15536 0.0
C1070 C 0.02726 0.29753 0.19324 0.0
C1071 C 0.05381 0.29315 0.20071 0.0
C1072 C 0.09028 0.3231 0.20204 0.0
C1073 C 0.09944 0.35797 0.19623 0.0
C1074 C 0.07277 0.36225 0.18858 0.0
H1075 H 0.04307 0.32851 0.14348 0.0
H1076 H 0.06957 0.35972 0.15791 0.0
H1077 H 0.05245 0.31073 0.15968 0.0
H1078 H -0.00045 0.27368 0.19194 0.0
H1079 H 0.04593 0.26622 0.20532 0.0
H1080 H 0.81721 0.07988 0.53486 0.0
H1081 H 0.76375 0.04219 0.51945 0.0
H1082 H 0.76343 0.14094 0.50525 0.0
H1083 H 0.81766 0.17922 0.52065 0.0
H1084 H 0.68885 0.03889 0.51746 0.0
H1085 H 0.77823 0.08948 0.4684 0.0
H1086 H 0.79955 0.09516 0.48583 0.0
H1087 H 0.77779 0.12176 0.48127 0.0
C1088 C 0.80586 0.09362 0.52845 0.0
C1089 C 0.82189 0.13247 0.52876 0.0
C1090 C 0.77505 0.07206 0.51981 0.0
C1091 C 0.75975 0.08888 0.51129 0.0
C1092 C 0.77492 0.12757 0.51182 0.0
H1093 H 0.65999 0.92555 0.44484 0.0
H1094 H 0.66296 0.97977 0.45657 0.0
C1095 C 0.8058 0.14928 0.52056 0.0
C1096 C 0.73043 0.06536 0.50094 0.0
H1097 H 0.72569 0.02986 0.46758 0.0
C1098 C 0.69609 0.03754 0.50636 0.0
C1099 C 0.73956 0.06426 0.4864 0.0
C1100 C 0.77572 0.0942 0.48001 0.0
C1101 C 0.67288 0.00605 0.4981 0.0
C1102 C 0.68506 0.00214 0.48435 0.0
C1103 C 0.7166 0.03253 0.47822 0.0
C1104 C 0.67218 0.96506 0.47789 0.0
C1105 C 0.63705 0.97603 0.50461 0.0
C1106 C 0.67522 0.9382 0.48604 0.0
C1107 C 0.67348 0.90732 0.47939 0.0
C1108 C 0.66907 0.90286 0.46444 0.0
C1109 C 0.66327 0.92822 0.45641 0.0
C1110 C 0.66493 0.95919 0.46309 0.0
H1111 H 0.62349 0.9886 0.51097 0.0
H1112 H 0.61731 0.95751 0.49626 0.0
H1113 H 0.64323 0.95903 0.51211 0.0
H1114 H 0.68189 0.94247 0.49739 0.0
H1115 H 0.67754 0.88794 0.48586 0.0
H1116 H 0.78103 0.74476 0.79361 0.0
H1117 H 0.72682 0.73367 0.80773 0.0
H1118 H 0.6911 0.61672 0.8103 0.0
H1119 H 0.74571 0.62771 0.79607 0.0
H1120 H 0.64192 0.67448 0.80399 0.0
H1121 H 0.7136 0.66358 0.85291 0.0
H1122 H 0.74097 0.68584 0.83709 0.0
H1123 H 0.70843 0.63674 0.83694 0.0
C1124 C 0.76151 0.71666 0.79709 0.0
C1125 C 0.7677 0.68718 0.79396 0.0
C1126 C 0.73038 0.71027 0.80498 0.0
C1127 C 0.70508 0.67438 0.80996 0.0
C1128 C 0.71031 0.64451 0.80643 0.0
H1129 H 0.63378 0.74472 0.88296 0.0
H1130 H 0.62114 0.6918 0.86764 0.0
C1131 C 0.74143 0.65086 0.79838 0.0
C1132 C 0.67651 0.67041 0.82032 0.0
H1133 H 0.67474 0.68912 0.85576 0.0
C1134 C 0.64785 0.67614 0.81542 0.0
C1135 C 0.68357 0.6714 0.8352 0.0
C1136 C 0.7132 0.66395 0.84097 0.0
C1137 C 0.62968 0.68808 0.82489 0.0
C1138 C 0.64168 0.69567 0.83936 0.0
C1139 C 0.666 0.68411 0.8446 0.0
C1140 C 0.63809 0.72381 0.84792 0.0
C1141 C 0.60006 0.69535 0.81905 0.0
C1142 C 0.65066 0.75919 0.84188 0.0
C1143 C 0.65757 0.7893 0.85056 0.0
C1144 C 0.65272 0.7849 0.86551 0.0
C1145 C 0.6377 0.74902 0.87146 0.0
C1146 C 0.63043 0.71871 0.86272 0.0
H1147 H 0.58187 0.67299 0.8114 0.0
H1148 H 0.58256 0.69693 0.82774 0.0
H1149 H 0.61342 0.72194 0.81296 0.0
H1150 H 0.65793 0.76434 0.8306 0.0
H1151 H 0.66844 0.81645 0.84563 0.0
H1152 H 0.17632 0.84424 0.16725 0.0
H1153 H 0.13126 0.79219 0.18147 0.0
H1154 H 0.10364 0.71978 0.14463 0.0
H1155 H 0.14548 0.77244 0.12993 0.0
H1156 H 0.04598 0.71788 0.15254 0.0
H1157 H 0.10514 0.70087 0.20244 0.0
H1158 H 0.12182 0.74964 0.2009 0.0
H1159 H 0.13465 0.72654 0.18747 0.0
C1160 C 0.16103 0.8172 0.16217 0.0
C1161 C 0.16378 0.81316 0.14728 0.0
C1162 C 0.13583 0.787 0.17046 0.0
C1163 C 0.11382 0.75177 0.16417 0.0
C1164 C 0.12013 0.74666 0.14975 0.0
H1165 H 0.88887 0.63217 0.20286 0.0
H1166 H 0.94284 0.63225 0.19183 0.0
C1167 C 0.14448 0.77707 0.14133 0.0
C1168 C 0.07893 0.72407 0.17144 0.0
H1169 H 0.04297 0.6982 0.2052 0.0
C1170 C 0.04536 0.71203 0.16394 0.0
C1171 C 0.0776 0.71574 0.18626 0.0
C1172 C 0.1119 0.72361 0.19461 0.0
C1173 C 0.01132 0.69675 0.1712 0.0
C1174 C 0.01097 0.6937 0.1863 0.0
C1175 C 0.04359 0.70129 0.1936 0.0
C1176 C 0.97974 0.69144 0.19461 0.0
C1177 C 0.97658 0.68793 0.16291 0.0
C1178 C 0.98304 0.72464 0.19982 0.0
C1179 C 0.95248 0.72479 0.20587 0.0
C1180 C 0.9181 0.69165 0.20689 0.0
C1181 C 0.91513 0.65808 0.20214 0.0
C1182 C 0.94581 0.65802 0.19593 0.0
H1183 H 0.98128 0.69029 0.1511 0.0
H1184 H 0.95407 0.65921 0.16543 0.0
H1185 H 0.96679 0.70731 0.16619 0.0
H1186 H 0.00905 0.75072 0.19875 0.0
H1187 H 0.95568 0.75088 0.20971 0.0
H1188 H 0.24401 0.86938 0.54339 0.0
H1189 H 0.30039 0.90597 0.5287 0.0
H1190 H 0.23529 0.92639 0.49774 0.0
H1191 H 0.17949 0.89031 0.51223 0.0
H1192 H 0.29417 0.90505 0.48698 0.0
H1193 H 0.34357 0.02475 0.52472 0.0
H1194 H 0.32897 0.97809 0.53082 0.0
H1195 H 0.29483 0.98995 0.52525 0.0
C1196 C 0.24186 0.88134 0.53333 0.0
C1197 C 0.20764 0.87753 0.52896 0.0
C1198 C 0.27392 0.90205 0.525 0.0
C1199 C 0.27175 0.91857 0.51217 0.0
C1200 C 0.23734 0.91353 0.50759 0.0
H1201 H 0.26965 0.02913 0.45244 0.0
H1202 H 0.27982 0.98459 0.46569 0.0
C1203 C 0.20561 0.89331 0.51592 0.0
C1204 C 0.30502 0.94464 0.50391 0.0
H1205 H 0.35178 0.03856 0.49975 0.0
C1206 C 0.30852 0.9343 0.4899 0.0
C1207 C 0.32465 0.98258 0.50786 0.0
C1208 C 0.32318 0.99476 0.52301 0.0
C1209 C 0.32557 0.9613 0.47914 0.0
C1210 C 0.33823 -0.00104 0.48255 0.0
C1211 C 0.34117 0.00954 0.49705 0.0
C1212 C 0.33667 0.02439 0.47179 0.0
C1213 C 0.32594 0.94893 0.46394 0.0
C1214 C 0.36515 0.06173 0.47077 0.0
C1215 C 0.35907 0.08745 0.46329 0.0
C1216 C 0.32422 0.07619 0.45697 0.0
C1217 C 0.29657 0.03853 0.45736 0.0
C1218 C 0.30271 0.01292 0.46471 0.0
H1219 H 0.33245 0.92603 0.46386 0.0
H1220 H 0.29788 0.93785 0.45912 0.0
H1221 H 0.34663 0.97222 0.45718 0.0
H1222 H 0.39128 0.07128 0.47637 0.0
H1223 H 0.38079 0.11645 0.46313 0.0
H1224 H 0.33424 0.15942 0.83438 0.0
H1225 H 0.33835 0.2101 0.81948 0.0
H1226 H 0.33344 0.26625 0.85784 0.0
H1227 H 0.33183 0.21725 0.87255 0.0
H1228 H 0.28319 0.21792 0.81771 0.0
H1229 H 0.39431 0.35526 0.83486 0.0
H1230 H 0.39472 0.31339 0.8398 0.0
H1231 H 0.37086 0.33077 0.85083 0.0
C1232 C 0.33563 0.18347 0.83955 0.0
C1233 C 0.33263 0.1846 0.85454 0.0
C1234 C 0.33809 0.21243 0.83108 0.0
C1235 C 0.33652 0.24235 0.83749 0.0
C1236 C 0.33604 0.24443 0.85256 0.0
H1237 H 0.18623 0.30973 0.82924 0.0
H1238 H 0.23851 0.30146 0.83617 0.0
C1239 C 0.33461 0.21606 0.861 0.0
C1240 C 0.32636 0.26591 0.82881 0.0
H1241 H 0.33337 0.35153 0.82895 0.0
C1242 C 0.29527 0.24749 0.81973 0.0
C1243 C 0.34193 0.30461 0.83131 0.0
C1244 C 0.37757 0.32704 0.83962 0.0
C1245 C 0.27715 0.26561 0.81437 0.0
C1246 C 0.29019 0.30298 0.8183 0.0
C1247 C 0.32313 0.32258 0.82624 0.0
C1248 C 0.26669 0.31956 0.81568 0.0
C1249 C 0.24232 0.24388 0.80546 0.0
C1250 C 0.26647 0.3341 0.80213 0.0
C1251 C 0.23663 0.33871 0.79814 0.0
C1252 C 0.20663 0.32857 0.80765 0.0
C1253 C 0.20882 0.3174 0.82169 0.0
C1254 C 0.23877 0.31301 0.82569 0.0
H1255 H 0.23705 0.2156 0.8027 0.0
H1256 H 0.2179 0.241 0.81148 0.0
H1257 H 0.24464 0.25905 0.79533 0.0
H1258 H 0.28763 0.3388 0.79426 0.0
H1259 H 0.23553 0.34705 0.7872 0.0
H1260 H 0.20152 0.1993 0.22133 0.0
H1261 H 0.20527 0.15085 0.20747 0.0
H1262 H 0.24225 0.22271 0.17033 0.0
H1263 H 0.23915 0.27103 0.18399 0.0
H1264 H 0.16907 0.11451 0.18184 0.0
H1265 H 0.32198 0.19346 0.17417 0.0
H1266 H 0.29864 0.20688 0.18719 0.0
H1267 H 0.29978 0.21892 0.16854 0.0
C1268 C 0.21066 0.20483 0.21024 0.0
C1269 C 0.2203 0.23924 0.20384 0.0
C1270 C 0.21269 0.17708 0.20232 0.0
C1271 C 0.22464 0.18337 0.18791 0.0
C1272 C 0.23375 0.21746 0.1815 0.0
H1273 H 0.1964 0.02321 0.12108 0.0
H1274 H 0.19123 0.0683 0.13652 0.0
C1275 C 0.23178 0.24507 0.18936 0.0
C1276 C 0.22738 0.15446 0.1794 0.0
H1277 H 0.28791 0.14012 0.15926 0.0
C1278 C 0.19509 0.11995 0.17699 0.0
C1279 C 0.26141 0.1614 0.17318 0.0
C1280 C 0.2975 0.19702 0.176 0.0
C1281 C 0.19576 0.09259 0.16824 0.0
C1282 C 0.2295 0.10021 0.16151 0.0
C1283 C 0.26192 0.1344 0.16423 0.0
C1284 C 0.23228 0.07281 0.15199 0.0
C1285 C 0.16044 0.0556 0.16647 0.0
C1286 C 0.25788 0.06118 0.15524 0.0
C1287 C 0.26126 0.03588 0.14635 0.0
C1288 C 0.23914 0.02155 0.13394 0.0
C1289 C 0.2138 0.03358 0.13056 0.0
C1290 C 0.21054 0.05909 0.13947 0.0
H1291 H 0.14028 0.05047 0.17526 0.0
H1292 H 0.14701 0.05549 0.15614 0.0
H1293 H 0.1664 0.03235 0.16628 0.0
H1294 H 0.27512 0.07146 0.16478 0.0
H1295 H 0.28108 0.02732 0.14932 0.0
H1296 H 0.08613 0.29139 0.54552 0.0
H1297 H 0.12288 0.28286 0.52706 0.0
H1298 H 0.04903 0.16391 0.52888 0.0
H1299 H 0.01096 0.17253 0.54695 0.0
H1300 H 0.16202 0.25123 0.52775 0.0
H1301 H 0.05324 0.17769 0.4865 0.0
H1302 H 0.04568 0.19881 0.50212 0.0
H1303 H 0.04108 0.15337 0.50333 0.0
C1304 C 0.07762 0.26338 0.54199 0.0
C1305 C 0.0456 0.23262 0.5477 0.0
C1306 C 0.09864 0.25853 0.53137 0.0
C1307 C 0.08849 0.22278 0.52631 0.0
C1308 C 0.05689 0.19188 0.53222 0.0
H1309 H 0.24835 0.1768 0.48556 0.0
H1310 H 0.20455 0.18195 0.50146 0.0
C1311 C 0.03536 0.19678 0.54268 0.0
C1312 C 0.11219 0.21817 0.51536 0.0
H1313 H 0.11056 0.17815 0.48299 0.0
C1314 C 0.15067 0.23542 0.51793 0.0
C1315 C 0.09773 0.19815 0.50236 0.0
C1316 C 0.05724 0.18131 0.49833 0.0
C1317 C 0.17488 0.23285 0.50807 0.0
C1318 C 0.16016 0.21106 0.49548 0.0
C1319 C 0.12182 0.19439 0.49272 0.0
C1320 C 0.18422 0.20484 0.48528 0.0
C1321 C 0.21615 0.25426 0.51117 0.0
C1322 C 0.18587 0.21382 0.4706 0.0
C1323 C 0.21052 0.21009 0.46132 0.0
C1324 C 0.23409 0.19764 0.46664 0.0
C1325 C 0.23118 0.18726 0.48119 0.0
C1326 C 0.20623 0.19037 0.49033 0.0
H1327 H 0.22361 0.27857 0.51825 0.0
H1328 H 0.22418 0.23582 0.51683 0.0
H1329 H 0.2327 0.26442 0.50112 0.0
H1330 H 0.16884 0.22465 0.4664 0.0
H1331 H 0.21198 0.21805 0.45015 0.0
H1332 H 0.94076 0.24732 0.79957 0.0
H1333 H 0.90048 0.20182 0.81744 0.0
H1334 H 0.95997 0.14208 0.81219 0.0
H1335 H 0.00186 0.18904 0.79491 0.0
H1336 H 0.85316 0.13375 0.81537 0.0
H1337 H 0.95735 0.14276 0.85458 0.0
H1338 H 0.96951 0.17546 0.83999 0.0
H1339 H 0.966 0.13088 0.83704 0.0
C1340 C 0.94542 0.22461 0.8023 0.0
C1341 C 0.97449 0.22176 0.79586 0.0
C1342 C 0.92237 0.19857 0.81255 0.0
C1343 C 0.92739 0.16865 0.81645 0.0
C1344 C 0.95615 0.16546 0.80982 0.0
H1345 H 0.74555 0.96603 0.85172 0.0
H1346 H 0.79365 0.01504 0.83697 0.0
C1347 C 0.97985 0.19209 0.7998 0.0
C1348 C 0.90108 0.13992 0.82681 0.0
H1349 H 0.89585 0.08996 0.85689 0.0
C1350 C 0.86267 0.12454 0.82451 0.0
C1351 C 0.91313 0.12811 0.83896 0.0
C1352 C 0.95374 0.14548 0.84289 0.0
C1353 C 0.83617 0.09755 0.83377 0.0
C1354 C 0.84817 0.08395 0.84535 0.0
C1355 C 0.88654 0.09983 0.84789 0.0
C1356 C 0.82117 0.05284 0.8547 0.0
C1357 C 0.79557 0.0846 0.83115 0.0
C1358 C 0.82193 0.05647 0.86978 0.0
C1359 C 0.79484 0.02776 0.87835 0.0
C1360 C 0.76635 0.99525 0.87194 0.0
C1361 C 0.76664 0.99114 0.85695 0.0
C1362 C 0.79403 0.01929 0.84847 0.0
H1363 H 0.79208 0.10624 0.82549 0.0
H1364 H 0.78339 0.05951 0.82419 0.0
H1365 H 0.77959 0.07754 0.84137 0.0
H1366 H 0.84285 0.08188 0.87488 0.0
H1367 H 0.7954 0.03152 0.88989 0.0
H1368 H 0.74975 0.72586 0.18606 0.0
H1369 H 0.74815 0.77526 0.17249 0.0
H1370 H 0.79219 0.84848 0.20907 0.0
H1371 H 0.79404 0.79901 0.22283 0.0
H1372 H 0.70989 0.81305 0.17869 0.0
H1373 H 0.8627 0.90996 0.17591 0.0
H1374 H 0.84269 0.86162 0.18093 0.0
H1375 H 0.8442 0.89482 0.19369 0.0
C1376 C 0.75916 0.75243 0.19128 0.0
C1377 C 0.77231 0.75846 0.20555 0.0
C1378 C 0.7582 0.78068 0.18347 0.0
C1379 C 0.77057 0.81575 0.18967 0.0
C1380 C 0.78318 0.82184 0.20398 0.0
H1381 H 0.72796 0.98749 0.15852 0.0
H1382 H 0.73202 0.93951 0.17217 0.0
C1383 C 0.78403 0.79345 0.21185 0.0
C1384 C 0.76942 0.84545 0.18113 0.0
H1385 H 0.82409 0.93181 0.16647 0.0
C1386 C 0.73486 0.83902 0.17603 0.0
C1387 C 0.80209 0.8791 0.17749 0.0
C1388 C 0.84011 0.88684 0.18216 0.0
C1389 C 0.73199 0.8655 0.16757 0.0
C1390 C 0.76452 0.89951 0.16421 0.0
C1391 C 0.79918 0.90578 0.16912 0.0
C1392 C 0.76284 0.92914 0.15586 0.0
C1393 C 0.69419 0.8567 0.16213 0.0
C1394 C 0.77941 0.93978 0.14221 0.0
C1395 C 0.77709 0.96732 0.13429 0.0
C1396 C 0.75851 0.985 0.13999 0.0
C1397 C 0.74239 0.97448 0.15375 0.0
C1398 C 0.74456 0.94691 0.16158 0.0
H1399 H 0.67366 0.82642 0.1627 0.0
H1400 H 0.68367 0.87157 0.16883 0.0
H1401 H 0.69593 0.86614 0.15083 0.0
H1402 H 0.79376 0.92646 0.13761 0.0
H1403 H 0.78986 0.97473 0.12376 0.0
H1404 H 0.77437 0.75853 0.44882 0.0
H1405 H 0.82428 0.76004 0.4635 0.0
H1406 H 0.78605 0.79546 0.50016 0.0
H1407 H 0.73507 0.79149 0.48586 0.0
H1408 H 0.88071 0.811 0.476 0.0
H1409 H 0.79479 0.71625 0.51933 0.0
H1410 H 0.77444 0.72205 0.50312 0.0
H1411 H 0.78582 0.75403 0.51796 0.0
C1412 C 0.77646 0.76613 0.46007 0.0
C1413 C 0.75047 0.77421 0.46627 0.0
C1414 C 0.80499 0.76706 0.46846 0.0
C1415 C 0.80846 0.77678 0.48313 0.0
C1416 C 0.78319 0.78619 0.48911 0.0
H1417 H 0.01858 0.86445 0.52881 0.0
H1418 H 0.9637 0.8555 0.51559 0.0
C1419 C 0.75417 0.78425 0.48086 0.0
C1420 C 0.83942 0.77891 0.49203 0.0
H1421 H 0.85952 0.75707 0.52503 0.0
C1422 C 0.87593 0.79876 0.48665 0.0
C1423 C 0.83345 0.7623 0.50584 0.0
C1424 C 0.79494 0.73712 0.5118 0.0
C1425 C 0.9065 0.80334 0.49476 0.0
C1426 C 0.90081 0.78942 0.50904 0.0
C1427 C 0.86421 0.76859 0.51426 0.0
C1428 C 0.93232 0.79566 0.51861 0.0
C1429 C 0.94438 0.82227 0.4877 0.0
C1430 C 0.93192 0.76563 0.52582 0.0
C1431 C 0.96266 0.77111 0.53398 0.0
C1432 C 0.99448 0.80658 0.53486 0.0
C1433 C 0.9943 0.83682 0.52823 0.0
C1434 C 0.96319 0.83157 0.52047 0.0
H1435 H 0.94201 0.81902 0.47582 0.0
H1436 H 0.95872 0.85254 0.49006 0.0
H1437 H 0.96189 0.81087 0.49165 0.0
H1438 H 0.90841 0.73769 0.52471 0.0
H1439 H 0.96244 0.74731 0.53887 0.0
H1440 H 0.22142 0.92242 0.87561 0.0
H1441 H 0.1775 0.8835 0.857 0.0
H1442 H 0.12912 0.95442 0.85684 0.0
H1443 H 0.17465 0.99472 0.8748 0.0
H1444 H 0.10804 0.84217 0.85664 0.0
H1445 H 0.13937 0.94872 0.81501 0.0
H1446 H 0.16773 0.95838 0.83087 0.0
H1447 H 0.12565 0.96096 0.83144 0.0
C1448 C 0.20152 0.92979 0.87154 0.0
C1449 C 0.20155 0.96167 0.87661 0.0
C1450 C 0.17641 0.90755 0.86087 0.0
C1451 C 0.15031 0.91629 0.85519 0.0
C1452 C 0.14974 0.94768 0.86056 0.0
H1453 H 0.94515 0.74959 0.8159 0.0
H1454 H 0.9948 0.79354 0.83157 0.0
C1455 C 0.1755 0.9705 0.87098 0.0
C1456 C 0.12267 0.89147 0.84421 0.0
H1457 H 0.08195 0.89092 0.81215 0.0
C1458 C 0.10273 0.85295 0.84685 0.0
C1459 C 0.11601 0.90508 0.83121 0.0
C1460 C 0.13866 0.94549 0.82689 0.0
C1461 C 0.07595 0.82794 0.83714 0.0
C1462 C 0.06731 0.84183 0.82469 0.0
C1463 C 0.08795 0.8802 0.8218 0.0
C1464 C 0.03648 0.81702 0.81477 0.0
C1465 C 0.05784 0.78678 0.84027 0.0
C1466 C 0.04243 0.81708 0.79985 0.0
C1467 C 0.01349 0.79254 0.79073 0.0
C1468 C 0.97833 0.76725 0.79642 0.0
C1469 C 0.97218 0.76816 0.81124 0.0
C1470 C 0.0007 0.79314 0.82025 0.0
H1471 H 0.07637 0.78046 0.84683 0.0
H1472 H 0.03198 0.7778 0.84656 0.0
H1473 H 0.05068 0.77013 0.83023 0.0
H1474 H 0.06963 0.83554 0.79531 0.0
H1475 H 0.01892 0.79256 0.77933 0.0
loop_
_geom_bond_atom_site_label_1
_geom_bond_atom_site_label_2
_geom_bond_distance
_geom_bond_site_symmetry_2
_ccdc_geom_bond_type
C0 C1 1.351 . S
C0 N3 1.368 . S
C0 H5 0.931 . S
C1 C0 1.351 . S
C1 N2 1.373 . S
C1 H29 0.930 . S
N2 C1 1.373 . S
N2 C4 1.340 . S
N3 C0 1.368 . S
N3 C4 1.321 . S
N3 Co6 2.135 . S
C4 N2 1.340 . S
C4 N3 1.321 . S
C4 H28 0.930 . S
H5 C0 0.931 . S
Co6 N3 2.135 . S
Co6 N9 2.121 . S
Co6 O14 2.055 . S
Co6 O17 2.039 . S
Co6 N20 2.140 . S
C7 O8 1.227 . S
C7 O17 1.265 . S
O8 C7 1.227 . S
N9 Co6 2.121 . S
N9 C11 1.375 . S
N9 C12 1.313 . S
C10 C11 1.338 . S
C10 N13 1.377 . S
C10 H30 0.930 . S
C11 N9 1.375 . S
C11 C10 1.338 . S
C11 H15 0.931 . S
C12 N9 1.313 . S
C12 N13 1.344 . S
C12 H16 0.930 . S
N13 C10 1.377 . S
N13 C12 1.344 . S
O14 Co6 2.055 . S
O14 C18 1.253 . S
H15 C11 0.931 . S
H16 C12 0.930 . S
O17 Co6 2.039 . S
O17 C7 1.265 . S
C18 O14 1.253 . S
C18 O19 1.227 . S
O19 C18 1.227 . S
N20 Co6 2.140 . S
N20 C23 1.346 . S
N20 C24 1.345 . S
C21 C22 1.387 . S
C21 C25 1.391 . S
C22 C21 1.387 . S
C22 C23 1.369 . S
C22 H31 0.929 . S
C23 N20 1.346 . S
C23 C22 1.369 . S
C23 H26 0.928 . S
C24 N20 1.345 . S
C24 C25 1.371 . S
C24 H27 0.931 . S
C25 C21 1.391 . S
C25 C24 1.371 . S
C25 H32 0.930 . S
H26 C23 0.928 . S
H27 C24 0.931 . S
H28 C4 0.930 . S
H29 C1 0.930 . S
H30 C10 0.930 . S
H31 C22 0.929 . S
H32 C25 0.930 . S
C33 C34 1.351 . S
C33 N36 1.368 . S
C33 H38 0.931 . S
C34 C33 1.351 . S
C34 N35 1.373 . S
C34 H62 0.930 . S
N35 C34 1.373 . S
N35 C37 1.340 . S
N36 C33 1.368 . S
N36 C37 1.321 . S
N36 Co39 2.135 . S
C37 N35 1.340 . S
C37 N36 1.321 . S
C37 H61 0.930 . S
H38 C33 0.931 . S
Co39 N36 2.135 . S
Co39 N42 2.121 . S
Co39 O47 2.055 . S
Co39 O50 2.039 . S
Co39 N53 2.140 . S
C40 O41 1.227 . S
C40 O50 1.265 . S
O41 C40 1.227 . S
N42 Co39 2.121 . S
N42 C44 1.375 . S
N42 C45 1.313 . S
C43 C44 1.338 . S
C43 N46 1.377 . S
C43 H63 0.930 . S
C44 N42 1.375 . S
C44 C43 1.338 . S
C44 H48 0.931 . S
C45 N42 1.313 . S
C45 N46 1.344 . S
C45 H49 0.930 . S
N46 C43 1.377 . S
N46 C45 1.344 . S
O47 Co39 2.055 . S
O47 C51 1.253 . S
H48 C44 0.931 . S
H49 C45 0.930 . S
O50 Co39 2.039 . S
O50 C40 1.265 . S
C51 O47 1.253 . S
C51 O52 1.227 . S
O52 C51 1.227 . S
N53 Co39 2.140 . S
N53 C56 1.346 . S
N53 C57 1.345 . S
C54 C55 1.387 . S
C54 C58 1.391 . S
C55 C54 1.387 . S
C55 C56 1.369 . S
C55 H64 0.929 . S
C56 N53 1.346 . S
C56 C55 1.369 . S
C56 H59 0.928 . S
C57 N53 1.345 . S
C57 C58 1.371 . S
C57 H60 0.931 . S
C58 C54 1.391 . S
C58 C57 1.371 . S
C58 H65 0.930 . S
H59 C56 0.928 . S
H60 C57 0.931 . S
H61 C37 0.930 . S
H62 C34 0.930 . S
H63 C43 0.930 . S
H64 C55 0.929 . S
H65 C58 0.930 . S
C66 C67 1.351 . S
C66 N69 1.368 . S
C66 H71 0.931 . S
C67 C66 1.351 . S
C67 N68 1.373 . S
C67 H95 0.930 . S
N68 C67 1.373 . S
N68 C70 1.340 . S
N69 C66 1.368 . S
N69 C70 1.321 . S
N69 Co72 2.135 . S
C70 N68 1.340 . S
C70 N69 1.321 . S
C70 H94 0.930 . S
H71 C66 0.931 . S
Co72 N69 2.135 . S
Co72 N75 2.121 . S
Co72 O80 2.055 . S
Co72 O83 2.039 . S
Co72 N86 2.140 . S
C73 O74 1.227 . S
C73 O83 1.265 . S
O74 C73 1.227 . S
N75 Co72 2.121 . S
N75 C77 1.375 . S
N75 C78 1.313 . S
C76 C77 1.338 . S
C76 N79 1.377 . S
C76 H96 0.930 . S
C77 N75 1.375 . S
C77 C76 1.338 . S
C77 H81 0.931 . S
C78 N75 1.313 . S
C78 N79 1.344 . S
C78 H82 0.930 . S
N79 C76 1.377 . S
N79 C78 1.344 . S
O80 Co72 2.055 . S
O80 C84 1.253 . S
H81 C77 0.931 . S
H82 C78 0.930 . S
O83 Co72 2.039 . S
O83 C73 1.265 . S
C84 O80 1.253 . S
C84 O85 1.227 . S
O85 C84 1.227 . S
N86 Co72 2.140 . S
N86 C89 1.346 . S
N86 C90 1.345 . S
C87 C88 1.387 . S
C87 C91 1.391 . S
C88 C87 1.387 . S
C88 C89 1.369 . S
C88 H97 0.929 . S
C89 N86 1.346 . S
C89 C88 1.369 . S
C89 H92 0.928 . S
C90 N86 1.345 . S
C90 C91 1.371 . S
C90 H93 0.931 . S
C91 C87 1.391 . S
C91 C90 1.371 . S
C91 H98 0.930 . S
H92 C89 0.928 . S
H93 C90 0.931 . S
H94 C70 0.930 . S
H95 C67 0.930 . S
H96 C76 0.930 . S
H97 C88 0.929 . S
H98 C91 0.930 . S
C99 C100 1.351 . S
C99 N102 1.368 . S
C99 H104 0.931 . S
C100 C99 1.351 . S
C100 N101 1.373 . S
C100 H128 0.930 . S
N101 C100 1.373 . S
N101 C103 1.340 . S
N102 C99 1.368 . S
N102 C103 1.321 . S
N102 Co105 2.135 . S
C103 N101 1.340 . S
C103 N102 1.321 . S
C103 H127 0.930 . S
H104 C99 0.931 . S
Co105 N102 2.135 . S
Co105 N108 2.121 . S
Co105 O113 2.055 . S
Co105 O116 2.039 . S
Co105 N119 2.140 . S
C106 O107 1.227 . S
C106 O116 1.265 . S
O107 C106 1.227 . S
N108 Co105 2.121 . S
N108 C110 1.375 . S
N108 C111 1.313 . S
C109 C110 1.338 . S
C109 N112 1.377 . S
C109 H129 0.930 . S
C110 N108 1.375 . S
C110 C109 1.338 . S
C110 H114 0.931 . S
C111 N108 1.313 . S
C111 N112 1.344 . S
C111 H115 0.930 . S
N112 C109 1.377 . S
N112 C111 1.344 . S
O113 Co105 2.055 . S
O113 C117 1.253 . S
H114 C110 0.931 . S
H115 C111 0.930 . S
O116 Co105 2.039 . S
O116 C106 1.265 . S
C117 O113 1.253 . S
C117 O118 1.227 . S
O118 C117 1.227 . S
N119 Co105 2.140 . S
N119 C122 1.346 . S
N119 C123 1.345 . S
C120 C121 1.387 . S
C120 C124 1.391 . S
C121 C120 1.387 . S
C121 C122 1.369 . S
C121 H130 0.929 . S
C122 N119 1.346 . S
C122 C121 1.369 . S
C122 H125 0.928 . S
C123 N119 1.345 . S
C123 C124 1.371 . S
C123 H126 0.931 . S
C124 C120 1.391 . S
C124 C123 1.371 . S
C124 H131 0.930 . S
H125 C122 0.928 . S
H126 C123 0.931 . S
H127 C103 0.930 . S
H128 C100 0.930 . S
H129 C109 0.930 . S
H130 C121 0.929 . S
H131 C124 0.930 . S
C132 C133 1.351 . S
C132 N135 1.368 . S
C132 H137 0.931 . S
C133 C132 1.351 . S
C133 N134 1.373 . S
C133 H161 0.930 . S
N134 C133 1.373 . S
N134 C136 1.340 . S
N135 C132 1.368 . S
N135 C136 1.321 . S
N135 Co138 2.135 . S
C136 N134 1.340 . S
C136 N135 1.321 . S
C136 H160 0.930 . S
H137 C132 0.931 . S
Co138 N135 2.135 . S
Co138 N141 2.121 . S
Co138 O146 2.055 . S
Co138 O149 2.039 . S
Co138 N152 2.140 . S
C139 O140 1.227 . S
C139 O149 1.265 . S
O140 C139 1.227 . S
N141 Co138 2.121 . S
N141 C143 1.375 . S
N141 C144 1.313 . S
C142 C143 1.338 . S
C142 N145 1.377 . S
C142 H162 0.930 . S
C143 N141 1.375 . S
C143 C142 1.338 . S
C143 H147 0.931 . S
C144 N141 1.313 . S
C144 N145 1.344 . S
C144 H148 0.930 . S
N145 C142 1.377 . S
N145 C144 1.344 . S
O146 Co138 2.055 . S
O146 C150 1.253 . S
H147 C143 0.931 . S
H148 C144 0.930 . S
O149 Co138 2.039 . S
O149 C139 1.265 . S
C150 O146 1.253 . S
C150 O151 1.227 . S
O151 C150 1.227 . S
N152 Co138 2.140 . S
N152 C155 1.346 . S
N152 C156 1.345 . S
C153 C154 1.387 . S
C153 C157 1.391 . S
C154 C153 1.387 . S
C154 C155 1.369 . S
C154 H163 0.929 . S
C155 N152 1.346 . S
C155 C154 1.369 . S
C155 H158 0.928 . S
C156 N152 1.345 . S
C156 C157 1.371 . S
C156 H159 0.931 . S
C157 C153 1.391 . S
C157 C156 1.371 . S
C157 H164 0.930 . S
H158 C155 0.928 . S
H159 C156 0.931 . S
H160 C136 0.930 . S
H161 C133 0.930 . S
H162 C142 0.930 . S
H163 C154 0.929 . S
H164 C157 0.930 . S
C165 C166 1.351 . S
C165 N168 1.368 . S
C165 H170 0.931 . S
C166 C165 1.351 . S
C166 N167 1.373 . S
C166 H194 0.930 . S
N167 C166 1.373 . S
N167 C169 1.340 . S
N168 C165 1.368 . S
N168 C169 1.321 . S
N168 Co171 2.135 . S
C169 N167 1.340 . S
C169 N168 1.321 . S
C169 H193 0.930 . S
H170 C165 0.931 . S
Co171 N168 2.135 . S
Co171 N174 2.121 . S
Co171 O179 2.055 . S
Co171 O182 2.039 . S
Co171 N185 2.140 . S
C172 O173 1.227 . S
C172 O182 1.265 . S
O173 C172 1.227 . S
N174 Co171 2.121 . S
N174 C176 1.375 . S
N174 C177 1.313 . S
C175 C176 1.338 . S
C175 N178 1.377 . S
C175 H195 0.930 . S
C176 N174 1.375 . S
C176 C175 1.338 . S
C176 H180 0.931 . S
C177 N174 1.313 . S
C177 N178 1.344 . S
C177 H181 0.930 . S
N178 C175 1.377 . S
N178 C177 1.344 . S
O179 Co171 2.055 . S
O179 C183 1.253 . S
H180 C176 0.931 . S
H181 C177 0.930 . S
O182 Co171 2.039 . S
O182 C172 1.265 . S
C183 O179 1.253 . S
C183 O184 1.227 . S
O184 C183 1.227 . S
N185 Co171 2.140 . S
N185 C188 1.346 . S
N185 C189 1.345 . S
C186 C187 1.387 . S
C186 C190 1.391 . S
C187 C186 1.387 . S
C187 C188 1.369 . S
C187 H196 0.929 . S
C188 N185 1.346 . S
C188 C187 1.369 . S
C188 H191 0.928 . S
C189 N185 1.345 . S
C189 C190 1.371 . S
C189 H192 0.931 . S
C190 C186 1.391 . S
C190 C189 1.371 . S
C190 H197 0.930 . S
H191 C188 0.928 . S
H192 C189 0.931 . S
H193 C169 0.930 . S
H194 C166 0.930 . S
H195 C175 0.930 . S
H196 C187 0.929 . S
H197 C190 0.930 . S
C198 C199 1.351 . S
C198 N201 1.368 . S
C198 H203 0.931 . S
C199 C198 1.351 . S
C199 N200 1.373 . S
C199 H227 0.930 . S
N200 C199 1.373 . S
N200 C202 1.340 . S
N201 C198 1.368 . S
N201 C202 1.321 . S
N201 Co204 2.135 . S
C202 N200 1.340 . S
C202 N201 1.321 . S
C202 H226 0.930 . S
H203 C198 0.931 . S
Co204 N201 2.135 . S
Co204 N207 2.121 . S
Co204 O212 2.055 . S
Co204 O215 2.039 . S
Co204 N218 2.140 . S
C205 O206 1.227 . S
C205 O215 1.265 . S
O206 C205 1.227 . S
N207 Co204 2.121 . S
N207 C209 1.375 . S
N207 C210 1.313 . S
C208 C209 1.338 . S
C208 N211 1.377 . S
C208 H228 0.930 . S
C209 N207 1.375 . S
C209 C208 1.338 . S
C209 H213 0.931 . S
C210 N207 1.313 . S
C210 N211 1.344 . S
C210 H214 0.930 . S
N211 C208 1.377 . S
N211 C210 1.344 . S
O212 Co204 2.055 . S
O212 C216 1.253 . S
H213 C209 0.931 . S
H214 C210 0.930 . S
O215 Co204 2.039 . S
O215 C205 1.265 . S
C216 O212 1.253 . S
C216 O217 1.227 . S
O217 C216 1.227 . S
N218 Co204 2.140 . S
N218 C221 1.346 . S
N218 C222 1.345 . S
C219 C220 1.387 . S
C219 C223 1.391 . S
C220 C219 1.387 . S
C220 C221 1.369 . S
C220 H229 0.929 . S
C221 N218 1.346 . S
C221 C220 1.369 . S
C221 H224 0.928 . S
C222 N218 1.345 . S
C222 C223 1.371 . S
C222 H225 0.931 . S
C223 C219 1.391 . S
C223 C222 1.371 . S
C223 H230 0.930 . S
H224 C221 0.928 . S
H225 C222 0.931 . S
H226 C202 0.930 . S
H227 C199 0.930 . S
H228 C208 0.930 . S
H229 C220 0.929 . S
H230 C223 0.930 . S
C231 C232 1.351 . S
C231 N234 1.368 . S
C231 H236 0.931 . S
C232 C231 1.351 . S
C232 N233 1.373 . S
C232 H260 0.930 . S
N233 C232 1.373 . S
N233 C235 1.340 . S
N234 C231 1.368 . S
N234 C235 1.321 . S
N234 Co237 2.135 . S
C235 N233 1.340 . S
C235 N234 1.321 . S
C235 H259 0.930 . S
H236 C231 0.931 . S
Co237 N234 2.135 . S
Co237 N240 2.121 . S
Co237 O245 2.055 . S
Co237 O248 2.039 . S
Co237 N251 2.140 . S
C238 O239 1.227 . S
C238 O248 1.265 . S
O239 C238 1.227 . S
N240 Co237 2.121 . S
N240 C242 1.375 . S
N240 C243 1.313 . S
C241 C242 1.338 . S
C241 N244 1.377 . S
C241 H261 0.930 . S
C242 N240 1.375 . S
C242 C241 1.338 . S
C242 H246 0.931 . S
C243 N240 1.313 . S
C243 N244 1.344 . S
C243 H247 0.930 . S
N244 C241 1.377 . S
N244 C243 1.344 . S
O245 Co237 2.055 . S
O245 C249 1.253 . S
H246 C242 0.931 . S
H247 C243 0.930 . S
O248 Co237 2.039 . S
O248 C238 1.265 . S
C249 O245 1.253 . S
C249 O250 1.227 . S
O250 C249 1.227 . S
N251 Co237 2.140 . S
N251 C254 1.346 . S
N251 C255 1.345 . S
C252 C253 1.387 . S
C252 C256 1.391 . S
C253 C252 1.387 . S
C253 C254 1.369 . S
C253 H262 0.929 . S
C254 N251 1.346 . S
C254 C253 1.369 . S
C254 H257 0.928 . S
C255 N251 1.345 . S
C255 C256 1.371 . S
C255 H258 0.931 . S
C256 C252 1.391 . S
C256 C255 1.371 . S
C256 H263 0.930 . S
H257 C254 0.928 . S
H258 C255 0.931 . S
H259 C235 0.930 . S
H260 C232 0.930 . S
H261 C241 0.930 . S
H262 C253 0.929 . S
H263 C256 0.930 . S
C264 C265 1.351 . S
C264 N267 1.368 . S
C264 H269 0.931 . S
C265 C264 1.351 . S
C265 N266 1.373 . S
C265 H293 0.930 . S
N266 C265 1.373 . S
N266 C268 1.340 . S
N267 C264 1.368 . S
N267 C268 1.321 . S
N267 Co270 2.135 . S
C268 N266 1.340 . S
C268 N267 1.321 . S
C268 H292 0.930 . S
H269 C264 0.931 . S
Co270 N267 2.135 . S
Co270 N273 2.121 . S
Co270 O278 2.055 . S
Co270 O281 2.039 . S
Co270 N284 2.140 . S
C271 O272 1.227 . S
C271 O281 1.265 . S
O272 C271 1.227 . S
N273 Co270 2.121 . S
N273 C275 1.375 . S
N273 C276 1.313 . S
C274 C275 1.338 . S
C274 N277 1.377 . S
C274 H294 0.930 . S
C275 N273 1.375 . S
C275 C274 1.338 . S
C275 H279 0.931 . S
C276 N273 1.313 . S
C276 N277 1.344 . S
C276 H280 0.930 . S
N277 C274 1.377 . S
N277 C276 1.344 . S
O278 Co270 2.055 . S
O278 C282 1.253 . S
H279 C275 0.931 . S
H280 C276 0.930 . S
O281 Co270 2.039 . S
O281 C271 1.265 . S
C282 O278 1.253 . S
C282 O283 1.227 . S
O283 C282 1.227 . S
N284 Co270 2.140 . S
N284 C287 1.346 . S
N284 C288 1.345 . S
C285 C286 1.387 . S
C285 C289 1.391 . S
C286 C285 1.387 . S
C286 C287 1.369 . S
C286 H295 0.929 . S
C287 N284 1.346 . S
C287 C286 1.369 . S
C287 H290 0.928 . S
C288 N284 1.345 . S
C288 C289 1.371 . S
C288 H291 0.931 . S
C289 C285 1.391 . S
C289 C288 1.371 . S
C289 H296 0.930 . S
H290 C287 0.928 . S
H291 C288 0.931 . S
H292 C268 0.930 . S
H293 C265 0.930 . S
H294 C274 0.930 . S
H295 C286 0.929 . S
H296 C289 0.930 . S
C297 C298 1.351 . S
C297 N300 1.368 . S
C297 H302 0.931 . S
C298 C297 1.351 . S
C298 N299 1.373 . S
C298 H326 0.930 . S
N299 C298 1.373 . S
N299 C301 1.340 . S
N300 C297 1.368 . S
N300 C301 1.321 . S
N300 Co303 2.135 . S
C301 N299 1.340 . S
C301 N300 1.321 . S
C301 H325 0.930 . S
H302 C297 0.931 . S
Co303 N300 2.135 . S
Co303 N306 2.121 . S
Co303 O311 2.055 . S
Co303 O314 2.039 . S
Co303 N317 2.140 . S
C304 O305 1.227 . S
C304 O314 1.265 . S
O305 C304 1.227 . S
N306 Co303 2.121 . S
N306 C308 1.375 . S
N306 C309 1.313 . S
C307 C308 1.338 . S
C307 N310 1.377 . S
C307 H327 0.930 . S
C308 N306 1.375 . S
C308 C307 1.338 . S
C308 H312 0.931 . S
C309 N306 1.313 . S
C309 N310 1.344 . S
C309 H313 0.930 . S
N310 C307 1.377 . S
N310 C309 1.344 . S
O311 Co303 2.055 . S
O311 C315 1.253 . S
H312 C308 0.931 . S
H313 C309 0.930 . S
O314 Co303 2.039 . S
O314 C304 1.265 . S
C315 O311 1.253 . S
C315 O316 1.227 . S
O316 C315 1.227 . S
N317 Co303 2.140 . S
N317 C320 1.346 . S
N317 C321 1.345 . S
C318 C319 1.387 . S
C318 C322 1.391 . S
C319 C318 1.387 . S
C319 C320 1.369 . S
C319 H328 0.929 . S
C320 N317 1.346 . S
C320 C319 1.369 . S
C320 H323 0.928 . S
C321 N317 1.345 . S
C321 C322 1.371 . S
C321 H324 0.931 . S
C322 C318 1.391 . S
C322 C321 1.371 . S
C322 H329 0.930 . S
H323 C320 0.928 . S
H324 C321 0.931 . S
H325 C301 0.930 . S
H326 C298 0.930 . S
H327 C307 0.930 . S
H328 C319 0.929 . S
H329 C322 0.930 . S
C330 C331 1.351 . S
C330 N333 1.368 . S
C330 H335 0.931 . S
C331 C330 1.351 . S
C331 N332 1.373 . S
C331 H359 0.930 . S
N332 C331 1.373 . S
N332 C334 1.340 . S
N333 C330 1.368 . S
N333 C334 1.321 . S
N333 Co336 2.135 . S
C334 N332 1.340 . S
C334 N333 1.321 . S
C334 H358 0.930 . S
H335 C330 0.931 . S
Co336 N333 2.135 . S
Co336 N339 2.121 . S
Co336 O344 2.055 . S
Co336 O347 2.039 . S
Co336 N350 2.140 . S
C337 O338 1.227 . S
C337 O347 1.265 . S
O338 C337 1.227 . S
N339 Co336 2.121 . S
N339 C341 1.375 . S
N339 C342 1.313 . S
C340 C341 1.338 . S
C340 N343 1.377 . S
C340 H360 0.930 . S
C341 N339 1.375 . S
C341 C340 1.338 . S
C341 H345 0.931 . S
C342 N339 1.313 . S
C342 N343 1.344 . S
C342 H346 0.930 . S
N343 C340 1.377 . S
N343 C342 1.344 . S
O344 Co336 2.055 . S
O344 C348 1.253 . S
H345 C341 0.931 . S
H346 C342 0.930 . S
O347 Co336 2.039 . S
O347 C337 1.265 . S
C348 O344 1.253 . S
C348 O349 1.227 . S
O349 C348 1.227 . S
N350 Co336 2.140 . S
N350 C353 1.346 . S
N350 C354 1.345 . S
C351 C352 1.387 . S
C351 C355 1.391 . S
C352 C351 1.387 . S
C352 C353 1.369 . S
C352 H361 0.929 . S
C353 N350 1.346 . S
C353 C352 1.369 . S
C353 H356 0.928 . S
C354 N350 1.345 . S
C354 C355 1.371 . S
C354 H357 0.931 . S
C355 C351 1.391 . S
C355 C354 1.371 . S
C355 H362 0.930 . S
H356 C353 0.928 . S
H357 C354 0.931 . S
H358 C334 0.930 . S
H359 C331 0.930 . S
H360 C340 0.930 . S
H361 C352 0.929 . S
H362 C355 0.930 . S
C363 C364 1.351 . S
C363 N366 1.368 . S
C363 H368 0.931 . S
C364 C363 1.351 . S
C364 N365 1.373 . S
C364 H392 0.930 . S
N365 C364 1.373 . S
N365 C367 1.340 . S
N366 C363 1.368 . S
N366 C367 1.321 . S
N366 Co369 2.135 . S
C367 N365 1.340 . S
C367 N366 1.321 . S
C367 H391 0.930 . S
H368 C363 0.931 . S
Co369 N366 2.135 . S
Co369 N372 2.121 . S
Co369 O377 2.055 . S
Co369 O380 2.039 . S
Co369 N383 2.140 . S
C370 O371 1.227 . S
C370 O380 1.265 . S
O371 C370 1.227 . S
N372 Co369 2.121 . S
N372 C374 1.375 . S
N372 C375 1.313 . S
C373 C374 1.338 . S
C373 N376 1.377 . S
C373 H393 0.930 . S
C374 N372 1.375 . S
C374 C373 1.338 . S
C374 H378 0.931 . S
C375 N372 1.313 . S
C375 N376 1.344 . S
C375 H379 0.930 . S
N376 C373 1.377 . S
N376 C375 1.344 . S
O377 Co369 2.055 . S
O377 C381 1.253 . S
H378 C374 0.931 . S
H379 C375 0.930 . S
O380 Co369 2.039 . S
O380 C370 1.265 . S
C381 O377 1.253 . S
C381 O382 1.227 . S
O382 C381 1.227 . S
N383 Co369 2.140 . S
N383 C386 1.346 . S
N383 C387 1.345 . S
C384 C385 1.387 . S
C384 C388 1.391 . S
C385 C384 1.387 . S
C385 C386 1.369 . S
C385 H394 0.929 . S
C386 N383 1.346 . S
C386 C385 1.369 . S
C386 H389 0.928 . S
C387 N383 1.345 . S
C387 C388 1.371 . S
C387 H390 0.931 . S
C388 C384 1.391 . S
C388 C387 1.371 . S
C388 H395 0.930 . S
H389 C386 0.928 . S
H390 C387 0.931 . S
H391 C367 0.930 . S
H392 C364 0.930 . S
H393 C373 0.930 . S
H394 C385 0.929 . S
H395 C388 0.930 . S
H396 C404 0.929 . S
H397 C406 0.930 . S
H398 C408 0.930 . S
H399 C411 0.929 . S
H400 C414 0.930 . S
H401 C416 0.960 . S
H402 C416 0.960 . S
H403 C416 0.960 . S
C404 H396 0.929 . S
C404 C405 1.377 . S
C404 C406 1.384 . S
C405 C404 1.377 . S
C405 C411 1.390 . S
C406 H397 0.930 . S
C406 C404 1.384 . S
C406 C407 1.372 . S
C407 C406 1.372 . S
C407 C408 1.400 . S
C407 C412 1.490 . S
C408 H398 0.930 . S
C408 C407 1.400 . S
C408 C411 1.386 . S
H409 C425 0.930 . S
H410 C426 0.931 . S
C411 H399 0.929 . S
C411 C405 1.390 . S
C411 C408 1.386 . S
C412 C407 1.490 . S
C412 C414 1.395 . S
C412 C415 1.403 . S
H413 C419 0.930 . S
C414 H400 0.930 . S
C414 C412 1.395 . S
C414 C417 1.403 . S
C415 C412 1.403 . S
C415 C416 1.524 . S
C415 C419 1.400 . S
C416 H401 0.960 . S
C416 H402 0.960 . S
C416 H403 0.960 . S
C416 C415 1.524 . S
C417 C414 1.403 . S
C417 C418 1.392 . S
C417 C421 1.495 . S
C418 C417 1.392 . S
C418 C419 1.385 . S
C418 C420 1.478 . S
C419 H413 0.930 . S
C419 C415 1.400 . S
C419 C418 1.385 . S
C420 C418 1.478 . S
C420 C422 1.381 . S
C420 C426 1.383 . S
C421 C417 1.495 . S
C421 H427 0.959 . S
C421 H428 0.961 . S
C421 H429 0.960 . S
C422 C420 1.381 . S
C422 C423 1.394 . S
C422 H430 0.930 . S
C423 C422 1.394 . S
C423 C424 1.383 . S
C423 H431 0.929 . S
C424 C423 1.383 . S
C424 C425 1.377 . S
C425 H409 0.930 . S
C425 C424 1.377 . S
C425 C426 1.379 . S
C426 H410 0.931 . S
C426 C420 1.383 . S
C426 C425 1.379 . S
H427 C421 0.959 . S
H428 C421 0.961 . S
H429 C421 0.960 . S
H430 C422 0.930 . S
H431 C423 0.929 . S
H432 C440 0.929 . S
H433 C442 0.930 . S
H434 C444 0.930 . S
H435 C447 0.929 . S
H436 C450 0.930 . S
H437 C452 0.960 . S
H438 C452 0.960 . S
H439 C452 0.960 . S
C440 H432 0.929 . S
C440 C441 1.377 . S
C440 C442 1.384 . S
C441 C440 1.377 . S
C441 C447 1.390 . S
C442 H433 0.930 . S
C442 C440 1.384 . S
C442 C443 1.372 . S
C443 C442 1.372 . S
C443 C444 1.400 . S
C443 C448 1.490 . S
C444 H434 0.930 . S
C444 C443 1.400 . S
C444 C447 1.386 . S
H445 C461 0.930 . S
H446 C462 0.931 . S
C447 H435 0.929 . S
C447 C441 1.390 . S
C447 C444 1.386 . S
C448 C443 1.490 . S
C448 C450 1.395 . S
C448 C451 1.403 1_455 S
H449 C455 0.930 . S
C450 H436 0.930 . S
C450 C448 1.395 . S
C450 C453 1.403 . S
C451 C448 1.403 1_655 S
C451 C452 1.524 . S
C451 C455 1.400 . S
C452 H437 0.960 . S
C452 H438 0.960 . S
C452 H439 0.960 . S
C452 C451 1.524 . S
C453 C450 1.403 . S
C453 C454 1.392 1_455 S
C453 C457 1.495 . S
C454 C453 1.392 1_655 S
C454 C455 1.385 . S
C454 C456 1.478 . S
C455 H449 0.930 . S
C455 C451 1.400 . S
C455 C454 1.385 . S
C456 C454 1.478 . S
C456 C458 1.381 . S
C456 C462 1.383 . S
C457 C453 1.495 . S
C457 H463 0.959 . S
C457 H464 0.961 . S
C457 H465 0.960 . S
C458 C456 1.381 . S
C458 C459 1.394 . S
C458 H466 0.930 . S
C459 C458 1.394 . S
C459 C460 1.383 . S
C459 H467 0.929 . S
C460 C459 1.383 . S
C460 C461 1.377 . S
C461 H445 0.930 . S
C461 C460 1.377 . S
C461 C462 1.379 . S
C462 H446 0.931 . S
C462 C456 1.383 . S
C462 C461 1.379 . S
H463 C457 0.959 . S
H464 C457 0.961 . S
H465 C457 0.960 . S
H466 C458 0.930 . S
H467 C459 0.929 . S
H468 C476 0.929 . S
H469 C478 0.930 . S
H470 C480 0.939 . S
H471 C483 0.929 . S
H472 C486 0.930 . S
H473 C488 0.960 . S
H474 C488 0.960 . S
H475 C488 0.960 . S
C476 H468 0.929 . S
C476 C477 1.377 . S
C476 C478 1.384 . S
C477 C476 1.377 . S
C477 C483 1.390 . S
C478 H469 0.930 . S
C478 C476 1.384 . S
C478 C479 1.372 . S
C479 C478 1.372 . S
C479 C480 1.400 . S
C479 C484 1.490 . S
C480 H470 0.939 . S
C480 C479 1.400 . S
C480 C483 1.386 . S
H481 C497 0.930 . S
H482 C498 0.931 . S
C483 H471 0.929 . S
C483 C477 1.390 . S
C483 C480 1.386 . S
C484 C479 1.490 . S
C484 C486 1.395 . S
C484 C487 1.403 1_545 S
H485 C491 0.930 . S
C486 H472 0.930 . S
C486 C484 1.395 . S
C486 C489 1.403 . S
C487 C484 1.403 1_565 S
C487 C488 1.524 . S
C487 C491 1.400 . S
C488 H473 0.960 . S
C488 H474 0.960 . S
C488 H475 0.960 . S
C488 C487 1.524 . S
C489 C486 1.403 . S
C489 C490 1.392 1_545 S
C489 C493 1.495 . S
C490 C489 1.392 1_565 S
C490 C491 1.385 . S
C490 C492 1.478 . S
C491 H485 0.930 . S
C491 C487 1.400 . S
C491 C490 1.385 . S
C492 C490 1.478 . S
C492 C494 1.381 . S
C492 C498 1.383 . S
C493 C489 1.495 . S
C493 H499 0.959 . S
C493 H500 0.961 . S
C493 H501 0.960 . S
C494 C492 1.381 . S
C494 C495 1.394 . S
C494 H502 0.906 1_565 S
C495 C494 1.394 . S
C495 C496 1.383 . S
C495 H503 0.929 . S
C496 C495 1.383 . S
C496 C497 1.377 . S
C497 H481 0.930 . S
C497 C496 1.377 . S
C497 C498 1.379 . S
C498 H482 0.931 . S
C498 C492 1.383 . S
C498 C497 1.379 . S
H499 C493 0.959 . S
H500 C493 0.961 . S
H501 C493 0.960 . S
H502 C494 0.906 1_545 S
H503 C495 0.929 . S
H504 C512 0.929 . S
H505 C514 0.930 . S
H506 C516 0.930 . S
H507 C519 0.929 . S
H508 C522 0.930 . S
H509 C524 0.960 . S
H510 C524 0.960 . S
H511 C524 0.960 . S
C512 H504 0.929 . S
C512 C513 1.377 . S
C512 C514 1.384 . S
C513 C512 1.377 . S
C513 C519 1.390 . S
C514 H505 0.930 . S
C514 C512 1.384 . S
C514 C515 1.372 . S
C515 C514 1.372 . S
C515 C516 1.400 . S
C515 C520 1.490 . S
C516 H506 0.930 . S
C516 C515 1.400 . S
C516 C519 1.386 . S
H517 C533 0.930 . S
H518 C534 0.931 . S
C519 H507 0.929 . S
C519 C513 1.390 . S
C519 C516 1.386 . S
C520 C515 1.490 . S
C520 C522 1.395 . S
C520 C523 1.403 . S
H521 C527 0.930 . S
C522 H508 0.930 . S
C522 C520 1.395 . S
C522 C525 1.403 . S
C523 C520 1.403 . S
C523 C524 1.524 . S
C523 C527 1.400 . S
C524 H509 0.960 . S
C524 H510 0.960 . S
C524 H511 0.960 . S
C524 C523 1.524 . S
C525 C522 1.403 . S
C525 C526 1.392 . S
C525 C529 1.495 . S
C526 C525 1.392 . S
C526 C527 1.385 . S
C526 C528 1.478 . S
C527 H521 0.930 . S
C527 C523 1.400 . S
C527 C526 1.385 . S
C528 C526 1.478 . S
C528 C530 1.381 . S
C528 C534 1.383 . S
C529 C525 1.495 . S
C529 H535 0.959 . S
C529 H536 0.961 . S
C529 H537 0.960 . S
C530 C528 1.381 . S
C530 C531 1.394 . S
C530 H538 0.930 . S
C531 C530 1.394 . S
C531 C532 1.383 . S
C531 H539 0.929 . S
C532 C531 1.383 . S
C532 C533 1.377 . S
C533 H517 0.930 . S
C533 C532 1.377 . S
C533 C534 1.379 . S
C534 H518 0.931 . S
C534 C528 1.383 . S
C534 C533 1.379 . S
H535 C529 0.959 . S
H536 C529 0.961 . S
H537 C529 0.960 . S
H538 C530 0.930 . S
H539 C531 0.929 . S
H540 C548 0.929 . S
H541 C550 0.930 . S
H542 C552 0.930 . S
H543 C555 0.929 . S
H544 C558 0.930 . S
H545 C560 0.960 . S
H546 C560 0.960 . S
H547 C560 0.960 . S
C548 H540 0.929 . S
C548 C549 1.377 . S
C548 C550 1.384 . S
C549 C548 1.377 . S
C549 C555 1.390 . S
C550 H541 0.930 . S
C550 C548 1.384 . S
C550 C551 1.372 . S
C551 C550 1.372 . S
C551 C552 1.400 . S
C551 C556 1.490 . S
C552 H542 0.930 . S
C552 C551 1.400 . S
C552 C555 1.386 . S
H553 C569 0.930 . S
H554 C570 0.931 . S
C555 H543 0.929 . S
C555 C549 1.390 . S
C555 C552 1.386 . S
C556 C551 1.490 . S
C556 C558 1.395 1_655 S
C556 C559 1.403 . S
H557 C563 0.930 . S
C558 H544 0.930 . S
C558 C556 1.395 1_455 S
C558 C561 1.403 . S
C559 C556 1.403 . S
C559 C560 1.524 . S
C559 C563 1.400 . S
C560 H545 0.960 . S
C560 H546 0.960 . S
C560 H547 0.960 . S
C560 C559 1.524 . S
C561 C558 1.403 . S
C561 C562 1.392 . S
C561 C565 1.495 . S
C562 C561 1.392 . S
C562 C563 1.385 1_455 S
C562 C564 1.478 . S
C563 H557 0.930 . S
C563 C559 1.400 . S
C563 C562 1.385 1_655 S
C564 C562 1.478 . S
C564 C566 1.381 . S
C564 C570 1.383 . S
C565 C561 1.495 . S
C565 H571 0.959 . S
C565 H572 0.961 . S
C565 H573 0.960 . S
C566 C564 1.381 . S
C566 C567 1.394 . S
C566 H574 0.930 . S
C567 C566 1.394 . S
C567 C568 1.383 . S
C567 H575 0.929 . S
C568 C567 1.383 . S
C568 C569 1.377 . S
C569 H553 0.930 . S
C569 C568 1.377 . S
C569 C570 1.379 . S
C570 H554 0.931 . S
C570 C564 1.383 . S
C570 C569 1.379 . S
H571 C565 0.959 . S
H572 C565 0.961 . S
H573 C565 0.960 . S
H574 C566 0.930 . S
H575 C567 0.929 . S
H576 C584 0.929 . S
H577 C586 0.930 . S
H578 C588 0.930 . S
H579 C591 0.929 . S
H580 C594 0.930 . S
H581 C596 0.960 . S
H582 C596 0.960 . S
H583 C596 0.960 . S
C584 H576 0.929 . S
C584 C585 1.377 . S
C584 C586 1.384 . S
C585 C584 1.377 . S
C585 C591 1.390 . S
C586 H577 0.930 . S
C586 C584 1.384 . S
C586 C587 1.372 . S
C587 C586 1.372 . S
C587 C588 1.400 . S
C587 C592 1.490 . S
C588 H578 0.930 . S
C588 C587 1.400 . S
C588 C591 1.386 . S
H589 C605 0.930 . S
H590 C606 0.931 . S
C591 H579 0.929 . S
C591 C585 1.390 . S
C591 C588 1.386 . S
C592 C587 1.490 . S
C592 C594 1.395 . S
C592 C595 1.403 1_565 S
H593 C599 0.930 . S
C594 H580 0.930 . S
C594 C592 1.395 . S
C594 C597 1.403 . S
C595 C592 1.403 1_545 S
C595 C596 1.524 . S
C595 C599 1.400 . S
C596 H581 0.960 . S
C596 H582 0.960 . S
C596 H583 0.960 . S
C596 C595 1.524 . S
C597 C594 1.403 . S
C597 C598 1.392 1_565 S
C597 C601 1.495 . S
C598 C597 1.392 1_545 S
C598 C599 1.385 . S
C598 C600 1.478 . S
C599 H593 0.930 . S
C599 C595 1.400 . S
C599 C598 1.385 . S
C600 C598 1.478 . S
C600 C602 1.381 . S
C600 C606 1.383 . S
C601 C597 1.495 . S
C601 H607 0.959 . S
C601 H608 0.961 . S
C601 H609 0.960 . S
C602 C600 1.381 . S
C602 C603 1.394 . S
C602 H610 0.930 . S
C603 C602 1.394 . S
C603 C604 1.383 . S
C603 H611 0.929 . S
C604 C603 1.383 . S
C604 C605 1.377 . S
C605 H589 0.930 . S
C605 C604 1.377 . S
C605 C606 1.379 . S
C606 H590 0.931 . S
C606 C600 1.383 . S
C606 C605 1.379 . S
H607 C601 0.959 . S
H608 C601 0.961 . S
H609 C601 0.960 . S
H610 C602 0.930 . S
H611 C603 0.929 . S
H612 C620 0.929 . S
H613 C622 0.930 . S
H614 C624 0.930 . S
H615 C627 0.929 . S
H616 C630 0.930 . S
H617 C632 0.960 . S
H618 C632 0.960 . S
H619 C632 0.960 . S
C620 H612 0.929 . S
C620 C621 1.377 . S
C620 C622 1.384 . S
C621 C620 1.377 . S
C621 C627 1.390 . S
C622 H613 0.930 . S
C622 C620 1.384 . S
C622 C623 1.372 . S
C623 C622 1.372 . S
C623 C624 1.400 . S
C623 C628 1.490 . S
C624 H614 0.930 . S
C624 C623 1.400 . S
C624 C627 1.386 . S
H625 C641 0.930 . S
H626 C642 0.931 . S
C627 H615 0.929 . S
C627 C621 1.390 . S
C627 C624 1.386 . S
C628 C623 1.490 . S
C628 C630 1.395 . S
C628 C631 1.403 . S
H629 C635 0.930 . S
C630 H616 0.930 . S
C630 C628 1.395 . S
C630 C633 1.403 . S
C631 C628 1.403 . S
C631 C632 1.524 . S
C631 C635 1.400 . S
C632 H617 0.960 . S
C632 H618 0.960 . S
C632 H619 0.960 . S
C632 C631 1.524 . S
C633 C630 1.403 . S
C633 C634 1.392 . S
C633 C637 1.495 . S
C634 C633 1.392 . S
C634 C635 1.385 . S
C634 C636 1.478 . S
C635 H629 0.930 . S
C635 C631 1.400 . S
C635 C634 1.385 . S
C636 C634 1.478 . S
C636 C638 1.381 . S
C636 C642 1.383 . S
C637 C633 1.495 . S
C637 H643 0.959 . S
C637 H644 0.961 . S
C637 H645 0.960 . S
C638 C636 1.381 . S
C638 C639 1.394 . S
C638 H646 0.930 . S
C639 C638 1.394 . S
C639 C640 1.383 . S
C639 H647 0.929 . S
C640 C639 1.383 . S
C640 C641 1.377 . S
C641 H625 0.930 . S
C641 C640 1.377 . S
C641 C642 1.379 . S
C642 H626 0.931 . S
C642 C636 1.383 . S
C642 C641 1.379 . S
H643 C637 0.959 . S
H644 C637 0.961 . S
H645 C637 0.960 . S
H646 C638 0.930 . S
H647 C639 0.929 . S
H648 C656 0.929 . S
H649 C658 0.930 . S
H650 C660 0.930 . S
H651 C663 0.929 . S
H652 C666 0.930 . S
H653 C668 0.960 . S
H654 C668 0.960 . S
H655 C668 0.960 . S
C656 H648 0.929 . S
C656 C657 1.377 . S
C656 C658 1.384 . S
C657 C656 1.377 . S
C657 C663 1.390 . S
C658 H649 0.930 . S
C658 C656 1.384 . S
C658 C659 1.372 . S
C659 C658 1.372 . S
C659 C660 1.400 . S
C659 C664 1.490 . S
C660 H650 0.930 . S
C660 C659 1.400 . S
C660 C663 1.386 . S
H661 C677 0.930 . S
H662 C678 0.931 . S
C663 H651 0.929 . S
C663 C657 1.390 . S
C663 C660 1.386 . S
C664 C659 1.490 . S
C664 C666 1.395 1_655 S
C664 C667 1.403 . S
H665 C671 0.930 . S
C666 H652 0.930 . S
C666 C664 1.395 1_455 S
C666 C669 1.403 . S
C667 C664 1.403 . S
C667 C668 1.524 . S
C667 C671 1.400 . S
C668 H653 0.960 . S
C668 H654 0.960 . S
C668 H655 0.960 . S
C668 C667 1.524 . S
C669 C666 1.403 . S
C669 C670 1.392 . S
C669 C673 1.495 . S
C670 C669 1.392 . S
C670 C671 1.385 1_455 S
C670 C672 1.478 . S
C671 H665 0.930 . S
C671 C667 1.400 . S
C671 C670 1.385 1_655 S
C672 C670 1.478 . S
C672 C674 1.381 . S
C672 C678 1.383 . S
C673 C669 1.495 . S
C673 H679 0.959 . S
C673 H680 0.961 . S
C673 H681 0.960 . S
C674 C672 1.381 . S
C674 C675 1.394 . S
C674 H682 0.930 . S
C675 C674 1.394 . S
C675 C676 1.383 . S
C675 H683 0.929 . S
C676 C675 1.383 . S
C676 C677 1.377 . S
C677 H661 0.930 . S
C677 C676 1.377 . S
C677 C678 1.379 . S
C678 H662 0.931 . S
C678 C672 1.383 . S
C678 C677 1.379 . S
H679 C673 0.959 . S
H680 C673 0.961 . S
H681 C673 0.960 . S
H682 C674 0.930 . S
H683 C675 0.929 . S
H684 C692 0.929 . S
H685 C694 0.930 . S
H686 C696 0.930 . S
H687 C699 0.929 . S
H688 C702 0.930 . S
H689 C704 0.960 . S
H690 C704 0.960 . S
H691 C704 0.960 . S
C692 H684 0.929 . S
C692 C693 1.377 . S
C692 C694 1.384 . S
C693 C692 1.377 . S
C693 C699 1.390 . S
C694 H685 0.930 . S
C694 C692 1.384 . S
C694 C695 1.372 . S
C695 C694 1.372 . S
C695 C696 1.400 . S
C695 C700 1.490 . S
C696 H686 0.930 . S
C696 C695 1.400 . S
C696 C699 1.386 . S
H697 C713 0.930 . S
H698 C714 0.931 . S
C699 H687 0.929 . S
C699 C693 1.390 . S
C699 C696 1.386 . S
C700 C695 1.490 . S
C700 C702 1.395 . S
C700 C703 1.403 1_545 S
H701 C707 0.930 . S
C702 H688 0.930 . S
C702 C700 1.395 . S
C702 C705 1.403 1_554 S
C703 C700 1.403 1_565 S
C703 C704 1.524 . S
C703 C707 1.400 1_554 S
C704 H689 0.960 . S
C704 H690 0.960 . S
C704 H691 0.960 . S
C704 C703 1.524 . S
C705 C702 1.403 1_556 S
C705 C706 1.392 1_545 S
C705 C709 1.495 . S
C706 C705 1.392 1_565 S
C706 C707 1.385 . S
C706 C708 1.478 . S
C707 H701 0.930 . S
C707 C703 1.400 1_556 S
C707 C706 1.385 . S
C708 C706 1.478 . S
C708 C710 1.381 . S
C708 C714 1.383 . S
C709 C705 1.495 . S
C709 H715 0.959 . S
C709 H716 0.961 . S
C709 H717 0.960 . S
C710 C708 1.381 . S
C710 C711 1.394 . S
C710 H718 0.930 . S
C711 C710 1.394 . S
C711 C712 1.383 . S
C711 H719 0.929 . S
C712 C711 1.383 . S
C712 C713 1.377 . S
C713 H697 0.930 . S
C713 C712 1.377 . S
C713 C714 1.379 . S
C714 H698 0.931 . S
C714 C708 1.383 . S
C714 C713 1.379 . S
H715 C709 0.959 . S
H716 C709 0.961 . S
H717 C709 0.960 . S
H718 C710 0.930 . S
H719 C711 0.929 . S
H720 C728 0.929 . S
H721 C730 0.930 . S
H722 C732 0.930 . S
H723 C735 0.929 . S
H724 C738 0.930 . S
H725 C740 0.960 . S
H726 C740 0.960 . S
H727 C740 0.960 . S
C728 H720 0.929 . S
C728 C729 1.377 . S
C728 C730 1.384 . S
C729 C728 1.377 . S
C729 C735 1.390 . S
C730 H721 0.930 . S
C730 C728 1.384 . S
C730 C731 1.372 . S
C731 C730 1.372 . S
C731 C732 1.400 . S
C731 C736 1.490 . S
C732 H722 0.930 . S
C732 C731 1.400 . S
C732 C735 1.386 . S
H733 C749 0.930 . S
H734 C750 0.931 . S
C735 H723 0.929 . S
C735 C729 1.390 . S
C735 C732 1.386 . S
C736 C731 1.490 . S
C736 C738 1.395 . S
C736 C739 1.403 . S
H737 C743 0.930 . S
C738 H724 0.930 . S
C738 C736 1.395 . S
C738 C741 1.403 . S
C739 C736 1.403 . S
C739 C740 1.524 . S
C739 C743 1.400 . S
C740 H725 0.960 . S
C740 H726 0.960 . S
C740 H727 0.960 . S
C740 C739 1.524 . S
C741 C738 1.403 . S
C741 C742 1.392 . S
C741 C745 1.495 . S
C742 C741 1.392 . S
C742 C743 1.385 . S
C742 C744 1.478 . S
C743 H737 0.930 . S
C743 C739 1.400 . S
C743 C742 1.385 . S
C744 C742 1.478 . S
C744 C746 1.381 . S
C744 C750 1.383 . S
C745 C741 1.495 . S
C745 H751 0.959 . S
C745 H752 0.961 . S
C745 H753 0.960 . S
C746 C744 1.381 . S
C746 C747 1.394 . S
C746 H754 0.930 . S
C747 C746 1.394 . S
C747 C748 1.383 . S
C747 H755 0.929 . S
C748 C747 1.383 . S
C748 C749 1.377 . S
C749 H733 0.930 . S
C749 C748 1.377 . S
C749 C750 1.379 . S
C750 H734 0.931 . S
C750 C744 1.383 . S
C750 C749 1.379 . S
H751 C745 0.959 . S
H752 C745 0.961 . S
H753 C745 0.960 . S
H754 C746 0.930 . S
H755 C747 0.929 . S
H756 C764 0.929 . S
H757 C766 0.930 . S
H758 C768 0.930 . S
H759 C771 0.929 . S
H760 C774 0.930 . S
H761 C776 0.960 . S
H762 C776 0.960 . S
H763 C776 0.960 . S
C764 H756 0.929 . S
C764 C765 1.377 . S
C764 C766 1.384 . S
C765 C764 1.377 . S
C765 C771 1.390 . S
C766 H757 0.930 . S
C766 C764 1.384 . S
C766 C767 1.372 . S
C767 C766 1.372 . S
C767 C768 1.400 . S
C767 C772 1.490 . S
C768 H758 0.930 . S
C768 C767 1.400 . S
C768 C771 1.386 . S
H769 C785 0.930 . S
H770 C786 0.931 . S
C771 H759 0.929 . S
C771 C765 1.390 . S
C771 C768 1.386 . S
C772 C767 1.490 . S
C772 C774 1.395 . S
C772 C775 1.403 1_455 S
H773 C779 0.930 . S
C774 H760 0.930 . S
C774 C772 1.395 . S
C774 C777 1.403 . S
C775 C772 1.403 1_655 S
C775 C776 1.524 . S
C775 C779 1.400 . S
C776 H761 0.960 . S
C776 H762 0.960 . S
C776 H763 0.960 . S
C776 C775 1.524 . S
C777 C774 1.403 . S
C777 C778 1.392 1_455 S
C777 C781 1.495 . S
C778 C777 1.392 1_655 S
C778 C779 1.385 . S
C778 C780 1.478 . S
C779 H773 0.930 . S
C779 C775 1.400 . S
C779 C778 1.385 . S
C780 C778 1.478 . S
C780 C782 1.381 . S
C780 C786 1.383 . S
C781 C777 1.495 . S
C781 H787 0.959 . S
C781 H788 0.961 . S
C781 H789 0.960 . S
C782 C780 1.381 . S
C782 C783 1.394 . S
C782 H790 0.930 . S
C783 C782 1.394 . S
C783 C784 1.383 . S
C783 H791 0.929 . S
C784 C783 1.383 . S
C784 C785 1.377 . S
C785 H769 0.930 . S
C785 C784 1.377 . S
C785 C786 1.379 . S
C786 H770 0.931 . S
C786 C780 1.383 . S
C786 C785 1.379 . S
H787 C781 0.959 . S
H788 C781 0.961 . S
H789 C781 0.960 . S
H790 C782 0.930 . S
H791 C783 0.929 . S
H792 C800 0.929 . S
H793 C802 0.930 . S
H794 C804 0.930 1_565 S
H795 C807 0.929 . S
H796 C810 0.930 . S
H797 C812 0.960 . S
H798 C812 0.960 1_545 S
H799 C812 0.960 . S
C800 H792 0.929 . S
C800 C801 1.377 . S
C800 C802 1.384 . S
C801 C800 1.377 . S
C801 C807 1.390 . S
C802 H793 0.930 . S
C802 C800 1.384 . S
C802 C803 1.372 . S
C803 C802 1.372 . S
C803 C804 1.400 . S
C803 C808 1.490 . S
C804 H794 0.930 1_545 S
C804 C803 1.400 . S
C804 C807 1.386 . S
H805 C821 0.930 . S
H806 C822 0.931 . S
C807 H795 0.929 . S
C807 C801 1.390 . S
C807 C804 1.386 . S
C808 C803 1.490 . S
C808 C810 1.395 . S
C808 C811 1.403 1_545 S
H809 C815 0.930 . S
C810 H796 0.930 . S
C810 C808 1.395 . S
C810 C813 1.403 1_556 S
C811 C808 1.403 1_565 S
C811 C812 1.524 . S
C811 C815 1.400 1_556 S
C812 H797 0.960 . S
C812 H798 0.960 1_565 S
C812 H799 0.960 . S
C812 C811 1.524 . S
C813 C810 1.403 1_554 S
C813 C814 1.392 1_545 S
C813 C817 1.495 . S
C814 C813 1.392 1_565 S
C814 C815 1.385 . S
C814 C816 1.478 . S
C815 H809 0.930 . S
C815 C811 1.400 1_554 S
C815 C814 1.385 . S
C816 C814 1.478 . S
C816 C818 1.381 . S
C816 C822 1.383 . S
C817 C813 1.495 . S
C817 H823 0.959 . S
C817 H824 0.961 . S
C817 H825 0.960 . S
C818 C816 1.381 . S
C818 C819 1.394 . S
C818 H826 0.930 1_565 S
C819 C818 1.394 . S
C819 C820 1.383 . S
C819 H827 0.929 . S
C820 C819 1.383 . S
C820 C821 1.377 . S
C821 H805 0.930 . S
C821 C820 1.377 . S
C821 C822 1.379 . S
C822 H806 0.931 . S
C822 C816 1.383 . S
C822 C821 1.379 . S
H823 C817 0.959 . S
H824 C817 0.961 . S
H825 C817 0.960 . S
H826 C818 0.930 1_545 S
H827 C819 0.929 . S
H828 C836 0.929 . S
H829 C838 0.930 . S
H830 C840 0.930 . S
H831 C843 0.929 . S
H832 C846 0.930 . S
H833 C848 0.960 1_565 S
H834 C848 0.960 . S
H835 C848 0.960 . S
C836 H828 0.929 . S
C836 C837 1.377 . S
C836 C838 1.384 . S
C837 C836 1.377 . S
C837 C843 1.390 . S
C838 H829 0.930 . S
C838 C836 1.384 . S
C838 C839 1.372 . S
C839 C838 1.372 . S
C839 C840 1.400 . S
C839 C844 1.490 . S
C840 H830 0.930 . S
C840 C839 1.400 . S
C840 C843 1.386 . S
H841 C857 0.930 . S
H842 C858 0.931 . S
C843 H831 0.929 . S
C843 C837 1.390 . S
C843 C840 1.386 . S
C844 C839 1.490 . S
C844 C846 1.395 1_455 S
C844 C847 1.403 . S
H845 C851 0.930 . S
C846 H832 0.930 . S
C846 C844 1.395 1_655 S
C846 C849 1.403 1_545 S
C847 C844 1.403 . S
C847 C848 1.524 . S
C847 C851 1.400 1_545 S
C848 H833 0.960 1_545 S
C848 H834 0.960 . S
C848 H835 0.960 . S
C848 C847 1.524 . S
C849 C846 1.403 1_565 S
C849 C850 1.392 . S
C849 C853 1.495 . S
C850 C849 1.392 . S
C850 C851 1.385 1_655 S
C850 C852 1.478 . S
C851 H845 0.930 . S
C851 C847 1.400 1_565 S
C851 C850 1.385 1_455 S
C852 C850 1.478 . S
C852 C854 1.381 . S
C852 C858 1.383 . S
C853 C849 1.495 . S
C853 H859 0.959 1_565 S
C853 H860 0.961 . S
C853 H861 0.960 . S
C854 C852 1.381 . S
C854 C855 1.394 . S
C854 H862 0.930 . S
C855 C854 1.394 . S
C855 C856 1.383 . S
C855 H863 0.929 . S
C856 C855 1.383 . S
C856 C857 1.377 . S
C857 H841 0.930 . S
C857 C856 1.377 . S
C857 C858 1.379 . S
C858 H842 0.931 . S
C858 C852 1.383 . S
C858 C857 1.379 . S
H859 C853 0.959 1_545 S
H860 C853 0.961 . S
H861 C853 0.960 . S
H862 C854 0.930 . S
H863 C855 0.929 . S
H864 C872 0.929 . S
H865 C874 0.930 . S
H866 C876 0.930 . S
H867 C879 0.929 . S
H868 C882 0.930 . S
H869 C884 0.960 . S
H870 C884 0.960 . S
H871 C884 0.960 1_545 S
C872 H864 0.929 . S
C872 C873 1.377 . S
C872 C874 1.384 . S
C873 C872 1.377 . S
C873 C879 1.390 . S
C874 H865 0.930 . S
C874 C872 1.384 . S
C874 C875 1.372 . S
C875 C874 1.372 . S
C875 C876 1.400 . S
C875 C880 1.490 . S
C876 H866 0.930 . S
C876 C875 1.400 . S
C876 C879 1.386 . S
H877 C893 0.930 . S
H878 C894 0.931 . S
C879 H867 0.929 . S
C879 C873 1.390 . S
C879 C876 1.386 . S
C880 C875 1.490 . S
C880 C882 1.395 1_655 S
C880 C883 1.403 1_545 S
H881 C887 0.930 . S
C882 H868 0.930 . S
C882 C880 1.395 1_455 S
C882 C885 1.403 . S
C883 C880 1.403 1_565 S
C883 C884 1.524 . S
C883 C887 1.400 . S
C884 H869 0.960 . S
C884 H870 0.960 . S
C884 H871 0.960 1_565 S
C884 C883 1.524 . S
C885 C882 1.403 . S
C885 C886 1.392 1_545 S
C885 C889 1.495 . S
C886 C885 1.392 1_565 S
C886 C887 1.385 1_455 S
C886 C888 1.478 . S
C887 H881 0.930 . S
C887 C883 1.400 . S
C887 C886 1.385 1_655 S
C888 C886 1.478 . S
C888 C890 1.381 . S
C888 C894 1.383 . S
C889 C885 1.495 . S
C889 H895 0.959 . S
C889 H896 0.961 . S
C889 H897 0.960 1_545 S
C890 C888 1.381 . S
C890 C891 1.394 . S
C890 H898 0.930 . S
C891 C890 1.394 . S
C891 C892 1.383 . S
C891 H899 0.929 . S
C892 C891 1.383 . S
C892 C893 1.377 . S
C893 H877 0.930 . S
C893 C892 1.377 . S
C893 C894 1.379 . S
C894 H878 0.931 . S
C894 C888 1.383 . S
C894 C893 1.379 . S
H895 C889 0.959 . S
H896 C889 0.961 . S
H897 C889 0.960 1_565 S
H898 C890 0.930 . S
H899 C891 0.929 . S
H900 C908 0.929 1_565 S
H901 C910 0.919 1_565 S
H902 C912 0.930 . S
H903 C915 0.929 . S
H904 C918 0.930 . S
H905 C920 0.960 . S
H906 C920 0.960 . S
H907 C920 0.960 . S
C908 H900 0.929 1_545 S
C908 C909 1.377 . S
C908 C910 1.381 . S
C909 C908 1.377 . S
C909 C915 1.390 . S
C910 H901 0.919 1_545 S
C910 C908 1.381 . S
C910 C911 1.385 . S
C911 C910 1.385 . S
C911 C912 1.400 . S
C911 C916 1.490 . S
C912 H902 0.930 . S
C912 C911 1.400 . S
C912 C915 1.386 . S
H913 C929 0.930 . S
H914 C930 0.931 1_545 S
C915 H903 0.929 . S
C915 C909 1.390 . S
C915 C912 1.386 . S
C916 C911 1.490 . S
C916 C918 1.395 1_545 S
C916 C919 1.403 . S
H917 C923 0.930 . S
C918 H904 0.930 . S
C918 C916 1.395 1_565 S
C918 C921 1.403 1_455 S
C919 C916 1.403 . S
C919 C920 1.524 . S
C919 C923 1.400 1_455 S
C920 H905 0.960 . S
C920 H906 0.960 . S
C920 H907 0.960 . S
C920 C919 1.524 . S
C921 C918 1.403 1_655 S
C921 C922 1.392 . S
C921 C925 1.495 . S
C922 C921 1.392 . S
C922 C923 1.385 1_565 S
C922 C924 1.478 . S
C923 H917 0.930 . S
C923 C919 1.400 1_655 S
C923 C922 1.385 1_545 S
C924 C922 1.478 . S
C924 C926 1.381 . S
C924 C930 1.383 . S
C925 C921 1.495 . S
C925 H931 0.959 . S
C925 H932 0.961 . S
C925 H933 0.960 . S
C926 C924 1.381 . S
C926 C927 1.394 . S
C926 H934 0.930 . S
C927 C926 1.394 . S
C927 C928 1.383 . S
C927 H935 0.929 . S
C928 C927 1.383 . S
C928 C929 1.377 . S
C929 H913 0.930 . S
C929 C928 1.377 . S
C929 C930 1.379 . S
C930 H914 0.931 1_565 S
C930 C924 1.383 . S
C930 C929 1.379 . S
H931 C925 0.959 . S
H932 C925 0.961 . S
H933 C925 0.960 . S
H934 C926 0.930 . S
H935 C927 0.929 . S
H936 C944 0.929 . S
H937 C946 0.930 . S
H938 C948 0.930 . S
H939 C951 0.929 . S
H940 C954 0.930 . S
H941 C956 0.963 1_455 S
H942 C956 0.960 . S
H943 C956 0.960 . S
C944 H936 0.929 . S
C944 C945 1.377 . S
C944 C946 1.384 . S
C945 C944 1.377 . S
C945 C951 1.390 . S
C946 H937 0.930 . S
C946 C944 1.384 . S
C946 C947 1.372 . S
C947 C946 1.372 . S
C947 C948 1.400 . S
C947 C952 1.490 . S
C948 H938 0.930 . S
C948 C947 1.400 . S
C948 C951 1.386 . S
H949 C965 0.930 . S
H950 C966 0.931 . S
C951 H939 0.929 . S
C951 C945 1.390 . S
C951 C948 1.386 . S
C952 C947 1.490 . S
C952 C954 1.395 1_565 S
C952 C955 1.403 . S
H953 C959 0.930 . S
C954 H940 0.930 . S
C954 C952 1.395 1_545 S
C954 C957 1.403 1_655 S
C955 C952 1.403 . S
C955 C956 1.524 . S
C955 C959 1.400 1_655 S
C956 H941 0.963 1_655 S
C956 H942 0.960 . S
C956 H943 0.960 . S
C956 C955 1.524 . S
C957 C954 1.403 1_455 S
C957 C958 1.392 . S
C957 C961 1.495 . S
C958 C957 1.392 . S
C958 C959 1.385 1_545 S
C958 C960 1.478 . S
C959 H953 0.930 . S
C959 C955 1.400 1_455 S
C959 C958 1.385 1_565 S
C960 C958 1.478 . S
C960 C962 1.381 . S
C960 C966 1.383 . S
C961 C957 1.495 . S
C961 H967 0.991 . S
C961 H968 0.961 . S
C961 H969 0.960 . S
C962 C960 1.381 . S
C962 C963 1.394 . S
C962 H970 0.930 . S
C963 C962 1.394 . S
C963 C964 1.383 . S
C963 H971 0.929 . S
C964 C963 1.383 . S
C964 C965 1.377 . S
C965 H949 0.930 . S
C965 C964 1.377 . S
C965 C966 1.379 . S
C966 H950 0.931 . S
C966 C960 1.383 . S
C966 C965 1.379 . S
H967 C961 0.991 . S
H968 C961 0.961 . S
H969 C961 0.960 . S
H970 C962 0.930 . S
H971 C963 0.929 . S
H972 C980 0.929 . S
H973 C982 0.930 . S
H974 C984 0.930 1_455 S
H975 C987 0.929 . S
H976 C990 0.930 . S
H977 C992 0.960 1_545 S
H978 C992 0.960 . S
H979 C992 0.960 . S
C980 H972 0.929 . S
C980 C981 1.377 . S
C980 C982 1.384 . S
C981 C980 1.377 . S
C981 C987 1.390 . S
C982 H973 0.930 . S
C982 C980 1.384 . S
C982 C983 1.372 . S
C983 C982 1.372 . S
C983 C984 1.400 . S
C983 C988 1.490 . S
C984 H974 0.930 1_655 S
C984 C983 1.400 . S
C984 C987 1.386 . S
H985 C1001 0.930 . S
H986 C1002 0.931 . S
C987 H975 0.929 . S
C987 C981 1.390 . S
C987 C984 1.386 . S
C988 C983 1.490 . S
C988 C990 1.395 . S
C988 C991 1.403 1_655 S
H989 C995 0.930 . S
C990 H976 0.930 . S
C990 C988 1.395 . S
C990 C993 1.403 1_565 S
C991 C988 1.403 1_455 S
C991 C992 1.524 . S
C991 C995 1.400 1_565 S
C992 H977 0.960 1_565 S
C992 H978 0.960 . S
C992 H979 0.960 . S
C992 C991 1.524 . S
C993 C990 1.403 1_545 S
C993 C994 1.392 1_655 S
C993 C997 1.495 . S
C994 C993 1.392 1_455 S
C994 C995 1.385 . S
C994 C996 1.478 . S
C995 H989 0.930 . S
C995 C991 1.400 1_545 S
C995 C994 1.385 . S
C996 C994 1.478 . S
C996 C998 1.381 . S
C996 C1002 1.383 . S
C997 C993 1.495 . S
C997 H1003 0.959 1_545 S
C997 H1004 0.961 . S
C997 H1005 0.960 . S
C998 C996 1.381 . S
C998 C999 1.394 . S
C998 H1006 0.930 1_455 S
C999 C998 1.394 . S
C999 C1000 1.383 . S
C999 H1007 0.929 . S
C1000 C999 1.383 . S
C1000 C1001 1.377 . S
C1001 H985 0.930 . S
C1001 C1000 1.377 . S
C1001 C1002 1.379 . S
C1002 H986 0.931 . S
C1002 C996 1.383 . S
C1002 C1001 1.379 . S
H1003 C997 0.959 1_565 S
H1004 C997 0.961 . S
H1005 C997 0.960 . S
H1006 C998 0.930 1_655 S
H1007 C999 0.929 . S
H1008 C1016 0.929 . S
H1009 C1018 0.930 . S
H1010 C1020 0.930 . S
H1011 C1023 0.929 . S
H1012 C1026 0.930 . S
H1013 C1028 0.960 . S
H1014 C1028 0.960 . S
H1015 C1028 0.960 . S
C1016 H1008 0.929 . S
C1016 C1017 1.377 . S
C1016 C1018 1.384 . S
C1017 C1016 1.377 . S
C1017 C1023 1.390 . S
C1018 H1009 0.930 . S
C1018 C1016 1.384 . S
C1018 C1019 1.372 . S
C1019 C1018 1.372 . S
C1019 C1020 1.400 . S
C1019 C1024 1.490 . S
C1020 H1010 0.930 . S
C1020 C1019 1.400 . S
C1020 C1023 1.386 . S
H1021 C1037 0.930 . S
H1022 C1038 0.931 . S
C1023 H1011 0.929 . S
C1023 C1017 1.390 . S
C1023 C1020 1.386 . S
C1024 C1019 1.490 . S
C1024 C1026 1.395 1_655 S
C1024 C1027 1.403 1_545 S
H1025 C1031 0.930 . S
C1026 H1012 0.930 . S
C1026 C1024 1.395 1_455 S
C1026 C1029 1.403 . S
C1027 C1024 1.403 1_565 S
C1027 C1028 1.524 . S
C1027 C1031 1.400 . S
C1028 H1013 0.960 . S
C1028 H1014 0.960 . S
C1028 H1015 0.960 . S
C1028 C1027 1.524 . S
C1029 C1026 1.403 . S
C1029 C1030 1.392 1_545 S
C1029 C1033 1.495 . S
C1030 C1029 1.392 1_565 S
C1030 C1031 1.385 1_455 S
C1030 C1032 1.478 . S
C1031 H1025 0.930 . S
C1031 C1027 1.400 . S
C1031 C1030 1.385 1_655 S
C1032 C1030 1.478 . S
C1032 C1034 1.381 . S
C1032 C1038 1.383 . S
C1033 C1029 1.495 . S
C1033 H1039 0.959 . S
C1033 H1040 0.961 . S
C1033 H1041 0.960 . S
C1034 C1032 1.381 . S
C1034 C1035 1.394 . S
C1034 H1042 0.930 . S
C1035 C1034 1.394 . S
C1035 C1036 1.383 . S
C1035 H1043 0.929 . S
C1036 C1035 1.383 . S
C1036 C1037 1.377 . S
C1037 H1021 0.930 . S
C1037 C1036 1.377 . S
C1037 C1038 1.379 . S
C1038 H1022 0.931 . S
C1038 C1032 1.383 . S
C1038 C1037 1.379 . S
H1039 C1033 0.959 . S
H1040 C1033 0.961 . S
H1041 C1033 0.960 . S
H1042 C1034 0.930 . S
H1043 C1035 0.929 . S
H1044 C1052 0.929 . S
H1045 C1054 0.930 . S
H1046 C1056 0.930 . S
H1047 C1059 0.929 . S
H1048 C1062 0.930 . S
H1049 C1064 0.960 . S
H1050 C1064 0.960 . S
H1051 C1064 0.960 . S
C1052 H1044 0.929 . S
C1052 C1053 1.377 . S
C1052 C1054 1.384 . S
C1053 C1052 1.377 . S
C1053 C1059 1.390 . S
C1054 H1045 0.930 . S
C1054 C1052 1.384 . S
C1054 C1055 1.372 . S
C1055 C1054 1.372 . S
C1055 C1056 1.400 . S
C1055 C1060 1.490 . S
C1056 H1046 0.930 . S
C1056 C1055 1.400 . S
C1056 C1059 1.386 . S
H1057 C1073 0.930 . S
H1058 C1074 0.931 . S
C1059 H1047 0.929 . S
C1059 C1053 1.390 . S
C1059 C1056 1.386 . S
C1060 C1055 1.490 . S
C1060 C1062 1.395 . S
C1060 C1063 1.403 . S
H1061 C1067 0.930 . S
C1062 H1048 0.930 . S
C1062 C1060 1.395 . S
C1062 C1065 1.403 1_655 S
C1063 C1060 1.403 . S
C1063 C1064 1.524 . S
C1063 C1067 1.400 1_655 S
C1064 H1049 0.960 . S
C1064 H1050 0.960 . S
C1064 H1051 0.960 . S
C1064 C1063 1.524 . S
C1065 C1062 1.403 1_455 S
C1065 C1066 1.392 . S
C1065 C1069 1.495 . S
C1066 C1065 1.392 . S
C1066 C1067 1.385 . S
C1066 C1068 1.478 . S
C1067 H1061 0.930 . S
C1067 C1063 1.400 1_455 S
C1067 C1066 1.385 . S
C1068 C1066 1.478 . S
C1068 C1070 1.381 . S
C1068 C1074 1.383 . S
C1069 C1065 1.495 . S
C1069 H1075 0.959 . S
C1069 H1076 0.961 . S
C1069 H1077 0.960 . S
C1070 C1068 1.381 . S
C1070 C1071 1.394 . S
C1070 H1078 0.930 . S
C1071 C1070 1.394 . S
C1071 C1072 1.383 . S
C1071 H1079 0.929 . S
C1072 C1071 1.383 . S
C1072 C1073 1.377 . S
C1073 H1057 0.930 . S
C1073 C1072 1.377 . S
C1073 C1074 1.379 . S
C1074 H1058 0.931 . S
C1074 C1068 1.383 . S
C1074 C1073 1.379 . S
H1075 C1069 0.959 . S
H1076 C1069 0.961 . S
H1077 C1069 0.960 . S
H1078 C1070 0.930 . S
H1079 C1071 0.929 . S
H1080 C1088 0.929 . S
H1081 C1090 0.930 . S
H1082 C1092 0.930 . S
H1083 C1095 0.929 . S
H1084 C1098 0.930 . S
H1085 C1100 0.960 . S
H1086 C1100 0.960 . S
H1087 C1100 0.960 . S
C1088 H1080 0.929 . S
C1088 C1089 1.377 . S
C1088 C1090 1.384 . S
C1089 C1088 1.377 . S
C1089 C1095 1.390 . S
C1090 H1081 0.930 . S
C1090 C1088 1.384 . S
C1090 C1091 1.372 . S
C1091 C1090 1.372 . S
C1091 C1092 1.400 . S
C1091 C1096 1.490 . S
C1092 H1082 0.930 . S
C1092 C1091 1.400 . S
C1092 C1095 1.386 . S
H1093 C1109 0.930 . S
H1094 C1110 0.931 . S
C1095 H1083 0.929 . S
C1095 C1089 1.390 . S
C1095 C1092 1.386 . S
C1096 C1091 1.490 . S
C1096 C1098 1.395 1_545 S
C1096 C1099 1.403 . S
H1097 C1103 0.929 1_545 S
C1098 H1084 0.930 . S
C1098 C1096 1.395 1_565 S
C1098 C1101 1.403 . S
C1099 C1096 1.403 . S
C1099 C1100 1.524 . S
C1099 C1103 1.386 1_545 S
C1100 H1085 0.960 . S
C1100 H1086 0.960 . S
C1100 H1087 0.960 . S
C1100 C1099 1.524 . S
C1101 C1098 1.403 . S
C1101 C1102 1.392 . S
C1101 C1105 1.495 . S
C1102 C1101 1.392 . S
C1102 C1103 1.401 . S
C1102 C1104 1.478 . S
C1103 H1097 0.929 1_565 S
C1103 C1099 1.386 1_565 S
C1103 C1102 1.401 . S
C1104 C1102 1.478 . S
C1104 C1106 1.381 . S
C1104 C1110 1.383 . S
C1105 C1101 1.495 . S
C1105 H1111 0.959 . S
C1105 H1112 0.961 . S
C1105 H1113 0.960 . S
C1106 C1104 1.381 . S
C1106 C1107 1.394 . S
C1106 H1114 0.930 . S
C1107 C1106 1.394 . S
C1107 C1108 1.383 . S
C1107 H1115 0.929 . S
C1108 C1107 1.383 . S
C1108 C1109 1.377 . S
C1109 H1093 0.930 . S
C1109 C1108 1.377 . S
C1109 C1110 1.379 . S
C1110 H1094 0.931 . S
C1110 C1104 1.383 . S
C1110 C1109 1.379 . S
H1111 C1105 0.959 . S
H1112 C1105 0.961 . S
H1113 C1105 0.960 . S
H1114 C1106 0.930 . S
H1115 C1107 0.929 . S
H1116 C1124 0.929 . S
H1117 C1126 0.930 . S
H1118 C1128 0.930 . S
H1119 C1131 0.929 . S
H1120 C1134 0.930 . S
H1121 C1136 0.960 . S
H1122 C1136 0.960 . S
H1123 C1136 0.960 . S
C1124 H1116 0.929 . S
C1124 C1125 1.377 . S
C1124 C1126 1.384 . S
C1125 C1124 1.377 . S
C1125 C1131 1.390 . S
C1126 H1117 0.930 . S
C1126 C1124 1.384 . S
C1126 C1127 1.372 . S
C1127 C1126 1.372 . S
C1127 C1128 1.400 . S
C1127 C1132 1.490 . S
C1128 H1118 0.930 . S
C1128 C1127 1.400 . S
C1128 C1131 1.386 . S
H1129 C1145 0.930 . S
H1130 C1146 0.931 . S
C1131 H1119 0.929 . S
C1131 C1125 1.390 . S
C1131 C1128 1.386 . S
C1132 C1127 1.490 . S
C1132 C1134 1.395 . S
C1132 C1135 1.403 . S
H1133 C1139 0.930 . S
C1134 H1120 0.930 . S
C1134 C1132 1.395 . S
C1134 C1137 1.403 . S
C1135 C1132 1.403 . S
C1135 C1136 1.524 . S
C1135 C1139 1.400 . S
C1136 H1121 0.960 . S
C1136 H1122 0.960 . S
C1136 H1123 0.960 . S
C1136 C1135 1.524 . S
C1137 C1134 1.403 . S
C1137 C1138 1.392 . S
C1137 C1141 1.495 . S
C1138 C1137 1.392 . S
C1138 C1139 1.385 . S
C1138 C1140 1.478 . S
C1139 H1133 0.930 . S
C1139 C1135 1.400 . S
C1139 C1138 1.385 . S
C1140 C1138 1.478 . S
C1140 C1142 1.381 . S
C1140 C1146 1.383 . S
C1141 C1137 1.495 . S
C1141 H1147 0.959 . S
C1141 H1148 0.961 . S
C1141 H1149 0.960 . S
C1142 C1140 1.381 . S
C1142 C1143 1.394 . S
C1142 H1150 0.930 . S
C1143 C1142 1.394 . S
C1143 C1144 1.383 . S
C1143 H1151 0.929 . S
C1144 C1143 1.383 . S
C1144 C1145 1.377 . S
C1145 H1129 0.930 . S
C1145 C1144 1.377 . S
C1145 C1146 1.379 . S
C1146 H1130 0.931 . S
C1146 C1140 1.383 . S
C1146 C1145 1.379 . S
H1147 C1141 0.959 . S
H1148 C1141 0.961 . S
H1149 C1141 0.960 . S
H1150 C1142 0.930 . S
H1151 C1143 0.929 . S
H1152 C1160 0.929 . S
H1153 C1162 0.930 . S
H1154 C1164 0.930 . S
H1155 C1167 0.929 . S
H1156 C1170 0.930 . S
H1157 C1172 0.960 . S
H1158 C1172 0.960 . S
H1159 C1172 0.960 . S
C1160 H1152 0.929 . S
C1160 C1161 1.377 . S
C1160 C1162 1.384 . S
C1161 C1160 1.377 . S
C1161 C1167 1.390 . S
C1162 H1153 0.930 . S
C1162 C1160 1.384 . S
C1162 C1163 1.372 . S
C1163 C1162 1.372 . S
C1163 C1164 1.400 . S
C1163 C1168 1.490 . S
C1164 H1154 0.930 . S
C1164 C1163 1.400 . S
C1164 C1167 1.386 . S
H1165 C1181 0.930 . S
H1166 C1182 0.931 . S
C1167 H1155 0.929 . S
C1167 C1161 1.390 . S
C1167 C1164 1.386 . S
C1168 C1163 1.490 . S
C1168 C1170 1.395 1_455 S
C1168 C1171 1.403 . S
H1169 C1175 0.930 . S
C1170 H1156 0.930 . S
C1170 C1168 1.395 1_655 S
C1170 C1173 1.403 . S
C1171 C1168 1.403 . S
C1171 C1172 1.524 . S
C1171 C1175 1.400 1_455 S
C1172 H1157 0.960 . S
C1172 H1158 0.960 . S
C1172 H1159 0.960 . S
C1172 C1171 1.524 . S
C1173 C1170 1.403 . S
C1173 C1174 1.392 . S
C1173 C1177 1.495 . S
C1174 C1173 1.392 . S
C1174 C1175 1.385 . S
C1174 C1176 1.478 . S
C1175 H1169 0.930 . S
C1175 C1171 1.400 1_655 S
C1175 C1174 1.385 . S
C1176 C1174 1.478 . S
C1176 C1178 1.381 . S
C1176 C1182 1.383 . S
C1177 C1173 1.495 . S
C1177 H1183 0.959 . S
C1177 H1184 0.961 . S
C1177 H1185 0.960 . S
C1178 C1176 1.381 . S
C1178 C1179 1.394 . S
C1178 H1186 0.930 . S
C1179 C1178 1.394 . S
C1179 C1180 1.383 . S
C1179 H1187 0.929 . S
C1180 C1179 1.383 . S
C1180 C1181 1.377 . S
C1181 H1165 0.930 . S
C1181 C1180 1.377 . S
C1181 C1182 1.379 . S
C1182 H1166 0.931 . S
C1182 C1176 1.383 . S
C1182 C1181 1.379 . S
H1183 C1177 0.959 . S
H1184 C1177 0.961 . S
H1185 C1177 0.960 . S
H1186 C1178 0.930 . S
H1187 C1179 0.929 . S
H1188 C1196 0.929 . S
H1189 C1198 0.930 . S
H1190 C1200 0.930 . S
H1191 C1203 0.929 . S
H1192 C1206 0.930 . S
H1193 C1208 0.960 . S
H1194 C1208 0.960 . S
H1195 C1208 0.960 1_565 S
C1196 H1188 0.929 . S
C1196 C1197 1.377 . S
C1196 C1198 1.384 . S
C1197 C1196 1.377 . S
C1197 C1203 1.390 . S
C1198 H1189 0.930 . S
C1198 C1196 1.384 . S
C1198 C1199 1.372 . S
C1199 C1198 1.372 . S
C1199 C1200 1.400 . S
C1199 C1204 1.490 . S
C1200 H1190 0.930 . S
C1200 C1199 1.400 . S
C1200 C1203 1.386 . S
H1201 C1217 0.930 . S
H1202 C1218 0.931 . S
C1203 H1191 0.929 . S
C1203 C1197 1.390 . S
C1203 C1200 1.386 . S
C1204 C1199 1.490 . S
C1204 C1206 1.395 . S
C1204 C1207 1.403 1_565 S
H1205 C1211 0.930 . S
C1206 H1192 0.930 . S
C1206 C1204 1.395 . S
C1206 C1209 1.403 . S
C1207 C1204 1.403 1_545 S
C1207 C1208 1.524 . S
C1207 C1211 1.400 . S
C1208 H1193 0.960 . S
C1208 H1194 0.960 . S
C1208 H1195 0.960 1_545 S
C1208 C1207 1.524 . S
C1209 C1206 1.403 . S
C1209 C1210 1.392 1_565 S
C1209 C1213 1.495 . S
C1210 C1209 1.392 1_545 S
C1210 C1211 1.385 . S
C1210 C1212 1.478 . S
C1211 H1205 0.930 . S
C1211 C1207 1.400 . S
C1211 C1210 1.385 . S
C1212 C1210 1.478 . S
C1212 C1214 1.381 . S
C1212 C1218 1.383 . S
C1213 C1209 1.495 . S
C1213 H1219 0.959 . S
C1213 H1220 0.961 . S
C1213 H1221 0.960 1_565 S
C1214 C1212 1.381 . S
C1214 C1215 1.394 . S
C1214 H1222 0.930 . S
C1215 C1214 1.394 . S
C1215 C1216 1.383 . S
C1215 H1223 0.929 . S
C1216 C1215 1.383 . S
C1216 C1217 1.377 . S
C1217 H1201 0.930 . S
C1217 C1216 1.377 . S
C1217 C1218 1.379 . S
C1218 H1202 0.931 . S
C1218 C1212 1.383 . S
C1218 C1217 1.379 . S
H1219 C1213 0.959 . S
H1220 C1213 0.961 . S
H1221 C1213 0.960 1_545 S
H1222 C1214 0.930 . S
H1223 C1215 0.929 . S
H1224 C1232 0.929 . S
H1225 C1234 0.930 . S
H1226 C1236 0.930 . S
H1227 C1239 0.929 . S
H1228 C1242 0.930 . S
H1229 C1244 0.960 . S
H1230 C1244 0.960 . S
H1231 C1244 0.960 . S
C1232 H1224 0.929 . S
C1232 C1233 1.377 . S
C1232 C1234 1.384 . S
C1233 C1232 1.377 . S
C1233 C1239 1.390 . S
C1234 H1225 0.930 . S
C1234 C1232 1.384 . S
C1234 C1235 1.372 . S
C1235 C1234 1.372 . S
C1235 C1236 1.400 . S
C1235 C1240 1.490 . S
C1236 H1226 0.930 . S
C1236 C1235 1.400 . S
C1236 C1239 1.386 . S
H1237 C1253 0.930 . S
H1238 C1254 0.931 . S
C1239 H1227 0.929 . S
C1239 C1233 1.390 . S
C1239 C1236 1.386 . S
C1240 C1235 1.490 . S
C1240 C1242 1.395 . S
C1240 C1243 1.403 . S
H1241 C1247 0.930 . S
C1242 H1228 0.930 . S
C1242 C1240 1.395 . S
C1242 C1245 1.403 . S
C1243 C1240 1.403 . S
C1243 C1244 1.524 . S
C1243 C1247 1.400 . S
C1244 H1229 0.960 . S
C1244 H1230 0.960 . S
C1244 H1231 0.960 . S
C1244 C1243 1.524 . S
C1245 C1242 1.403 . S
C1245 C1246 1.392 . S
C1245 C1249 1.495 . S
C1246 C1245 1.392 . S
C1246 C1247 1.385 . S
C1246 C1248 1.478 . S
C1247 H1241 0.930 . S
C1247 C1243 1.400 . S
C1247 C1246 1.385 . S
C1248 C1246 1.478 . S
C1248 C1250 1.381 . S
C1248 C1254 1.383 . S
C1249 C1245 1.495 . S
C1249 H1255 0.959 . S
C1249 H1256 0.961 . S
C1249 H1257 0.960 . S
C1250 C1248 1.381 . S
C1250 C1251 1.394 . S
C1250 H1258 0.930 . S
C1251 C1250 1.394 . S
C1251 C1252 1.383 . S
C1251 H1259 0.929 . S
C1252 C1251 1.383 . S
C1252 C1253 1.377 . S
C1253 H1237 0.930 . S
C1253 C1252 1.377 . S
C1253 C1254 1.379 . S
C1254 H1238 0.931 . S
C1254 C1248 1.383 . S
C1254 C1253 1.379 . S
H1255 C1249 0.959 . S
H1256 C1249 0.961 . S
H1257 C1249 0.960 . S
H1258 C1250 0.930 . S
H1259 C1251 0.929 . S
H1260 C1268 0.929 . S
H1261 C1270 0.930 . S
H1262 C1272 0.930 . S
H1263 C1275 0.929 . S
H1264 C1278 0.930 . S
H1265 C1280 0.960 . S
H1266 C1280 0.960 . S
H1267 C1280 0.960 . S
C1268 H1260 0.929 . S
C1268 C1269 1.377 . S
C1268 C1270 1.384 . S
C1269 C1268 1.377 . S
C1269 C1275 1.390 . S
C1270 H1261 0.930 . S
C1270 C1268 1.384 . S
C1270 C1271 1.372 . S
C1271 C1270 1.372 . S
C1271 C1272 1.400 . S
C1271 C1276 1.490 . S
C1272 H1262 0.930 . S
C1272 C1271 1.400 . S
C1272 C1275 1.386 . S
H1273 C1289 0.930 1_565 S
H1274 C1290 0.931 . S
C1275 H1263 0.929 . S
C1275 C1269 1.390 . S
C1275 C1272 1.386 . S
C1276 C1271 1.490 . S
C1276 C1278 1.395 . S
C1276 C1279 1.403 . S
H1277 C1283 0.930 . S
C1278 H1264 0.930 . S
C1278 C1276 1.395 . S
C1278 C1281 1.403 . S
C1279 C1276 1.403 . S
C1279 C1280 1.524 . S
C1279 C1283 1.400 . S
C1280 H1265 0.960 . S
C1280 H1266 0.960 . S
C1280 H1267 0.960 . S
C1280 C1279 1.524 . S
C1281 C1278 1.403 . S
C1281 C1282 1.392 . S
C1281 C1285 1.495 . S
C1282 C1281 1.392 . S
C1282 C1283 1.385 . S
C1282 C1284 1.478 . S
C1283 H1277 0.930 . S
C1283 C1279 1.400 . S
C1283 C1282 1.385 . S
C1284 C1282 1.478 . S
C1284 C1286 1.381 . S
C1284 C1290 1.383 . S
C1285 C1281 1.495 . S
C1285 H1291 0.959 . S
C1285 H1292 0.961 . S
C1285 H1293 0.960 . S
C1286 C1284 1.381 . S
C1286 C1287 1.394 . S
C1286 H1294 0.930 . S
C1287 C1286 1.394 . S
C1287 C1288 1.383 . S
C1287 H1295 0.929 . S
C1288 C1287 1.383 . S
C1288 C1289 1.377 . S
C1289 H1273 0.930 1_545 S
C1289 C1288 1.377 . S
C1289 C1290 1.379 . S
C1290 H1274 0.931 . S
C1290 C1284 1.383 . S
C1290 C1289 1.379 . S
H1291 C1285 0.959 . S
H1292 C1285 0.961 . S
H1293 C1285 0.960 . S
H1294 C1286 0.930 . S
H1295 C1287 0.929 . S
H1296 C1304 0.929 . S
H1297 C1306 0.930 . S
H1298 C1308 0.930 . S
H1299 C1311 0.929 1_655 S
H1300 C1314 0.930 . S
H1301 C1316 0.960 . S
H1302 C1316 0.960 . S
H1303 C1316 0.960 . S
C1304 H1296 0.929 . S
C1304 C1305 1.377 . S
C1304 C1306 1.384 . S
C1305 C1304 1.377 . S
C1305 C1311 1.390 . S
C1306 H1297 0.930 . S
C1306 C1304 1.384 . S
C1306 C1307 1.372 . S
C1307 C1306 1.372 . S
C1307 C1308 1.400 . S
C1307 C1312 1.490 . S
C1308 H1298 0.930 . S
C1308 C1307 1.400 . S
C1308 C1311 1.386 . S
H1309 C1325 0.930 . S
H1310 C1326 0.931 . S
C1311 H1299 0.929 1_455 S
C1311 C1305 1.390 . S
C1311 C1308 1.386 . S
C1312 C1307 1.490 . S
C1312 C1314 1.395 . S
C1312 C1315 1.403 . S
H1313 C1319 0.930 . S
C1314 H1300 0.930 . S
C1314 C1312 1.395 . S
C1314 C1317 1.403 . S
C1315 C1312 1.403 . S
C1315 C1316 1.524 . S
C1315 C1319 1.400 . S
C1316 H1301 0.960 . S
C1316 H1302 0.960 . S
C1316 H1303 0.960 . S
C1316 C1315 1.524 . S
C1317 C1314 1.403 . S
C1317 C1318 1.392 . S
C1317 C1321 1.495 . S
C1318 C1317 1.392 . S
C1318 C1319 1.385 . S
C1318 C1320 1.478 . S
C1319 H1313 0.930 . S
C1319 C1315 1.400 . S
C1319 C1318 1.385 . S
C1320 C1318 1.478 . S
C1320 C1322 1.381 . S
C1320 C1326 1.383 . S
C1321 C1317 1.495 . S
C1321 H1327 0.959 . S
C1321 H1328 0.961 . S
C1321 H1329 0.960 . S
C1322 C1320 1.381 . S
C1322 C1323 1.394 . S
C1322 H1330 0.930 . S
C1323 C1322 1.394 . S
C1323 C1324 1.383 . S
C1323 H1331 0.929 . S
C1324 C1323 1.383 . S
C1324 C1325 1.377 . S
C1325 H1309 0.930 . S
C1325 C1324 1.377 . S
C1325 C1326 1.379 . S
C1326 H1310 0.931 . S
C1326 C1320 1.383 . S
C1326 C1325 1.379 . S
H1327 C1321 0.959 . S
H1328 C1321 0.961 . S
H1329 C1321 0.960 . S
H1330 C1322 0.930 . S
H1331 C1323 0.929 . S
H1332 C1340 0.929 . S
H1333 C1342 0.930 . S
H1334 C1344 0.930 . S
H1335 C1347 0.929 1_455 S
H1336 C1350 0.930 . S
H1337 C1352 0.960 . S
H1338 C1352 0.960 . S
H1339 C1352 0.960 . S
C1340 H1332 0.929 . S
C1340 C1341 1.377 . S
C1340 C1342 1.384 . S
C1341 C1340 1.377 . S
C1341 C1347 1.390 . S
C1342 H1333 0.930 . S
C1342 C1340 1.384 . S
C1342 C1343 1.372 . S
C1343 C1342 1.372 . S
C1343 C1344 1.400 . S
C1343 C1348 1.490 . S
C1344 H1334 0.930 . S
C1344 C1343 1.400 . S
C1344 C1347 1.386 . S
H1345 C1361 0.930 . S
H1346 C1362 0.931 . S
C1347 H1335 0.929 1_655 S
C1347 C1341 1.390 . S
C1347 C1344 1.386 . S
C1348 C1343 1.490 . S
C1348 C1350 1.395 . S
C1348 C1351 1.403 . S
H1349 C1355 0.930 . S
C1350 H1336 0.930 . S
C1350 C1348 1.395 . S
C1350 C1353 1.403 . S
C1351 C1348 1.403 . S
C1351 C1352 1.524 . S
C1351 C1355 1.400 . S
C1352 H1337 0.960 . S
C1352 H1338 0.960 . S
C1352 H1339 0.960 . S
C1352 C1351 1.524 . S
C1353 C1350 1.403 . S
C1353 C1354 1.392 . S
C1353 C1357 1.495 . S
C1354 C1353 1.392 . S
C1354 C1355 1.385 . S
C1354 C1356 1.478 . S
C1355 H1349 0.930 . S
C1355 C1351 1.400 . S
C1355 C1354 1.385 . S
C1356 C1354 1.478 . S
C1356 C1358 1.381 . S
C1356 C1362 1.383 . S
C1357 C1353 1.495 . S
C1357 H1363 0.959 . S
C1357 H1364 0.961 . S
C1357 H1365 0.960 . S
C1358 C1356 1.381 . S
C1358 C1359 1.394 . S
C1358 H1366 0.930 . S
C1359 C1358 1.394 . S
C1359 C1360 1.383 . S
C1359 H1367 0.929 . S
C1360 C1359 1.383 . S
C1360 C1361 1.377 1_545 S
C1361 H1345 0.930 . S
C1361 C1360 1.377 1_565 S
C1361 C1362 1.379 1_565 S
C1362 H1346 0.931 . S
C1362 C1356 1.383 . S
C1362 C1361 1.379 1_545 S
H1363 C1357 0.959 . S
H1364 C1357 0.961 . S
H1365 C1357 0.960 . S
H1366 C1358 0.930 . S
H1367 C1359 0.929 . S
H1368 C1376 0.929 . S
H1369 C1378 0.930 . S
H1370 C1380 0.930 . S
H1371 C1383 0.929 . S
H1372 C1386 0.930 . S
H1373 C1388 0.960 . S
H1374 C1388 0.960 . S
H1375 C1388 0.960 . S
C1376 H1368 0.929 . S
C1376 C1377 1.377 . S
C1376 C1378 1.384 . S
C1377 C1376 1.377 . S
C1377 C1383 1.390 . S
C1378 H1369 0.930 . S
C1378 C1376 1.384 . S
C1378 C1379 1.372 . S
C1379 C1378 1.372 . S
C1379 C1380 1.400 . S
C1379 C1384 1.490 . S
C1380 H1370 0.930 . S
C1380 C1379 1.400 . S
C1380 C1383 1.386 . S
H1381 C1397 0.930 . S
H1382 C1398 0.931 . S
C1383 H1371 0.929 . S
C1383 C1377 1.390 . S
C1383 C1380 1.386 . S
C1384 C1379 1.490 . S
C1384 C1386 1.395 . S
C1384 C1387 1.403 . S
H1385 C1391 0.930 . S
C1386 H1372 0.930 . S
C1386 C1384 1.395 . S
C1386 C1389 1.403 . S
C1387 C1384 1.403 . S
C1387 C1388 1.524 . S
C1387 C1391 1.400 . S
C1388 H1373 0.960 . S
C1388 H1374 0.960 . S
C1388 H1375 0.960 . S
C1388 C1387 1.524 . S
C1389 C1386 1.403 . S
C1389 C1390 1.392 . S
C1389 C1393 1.495 . S
C1390 C1389 1.392 . S
C1390 C1391 1.385 . S
C1390 C1392 1.478 . S
C1391 H1385 0.930 . S
C1391 C1387 1.400 . S
C1391 C1390 1.385 . S
C1392 C1390 1.478 . S
C1392 C1394 1.381 . S
C1392 C1398 1.383 . S
C1393 C1389 1.495 . S
C1393 H1399 0.959 . S
C1393 H1400 0.961 . S
C1393 H1401 0.960 . S
C1394 C1392 1.381 . S
C1394 C1395 1.394 . S
C1394 H1402 0.930 . S
C1395 C1394 1.394 . S
C1395 C1396 1.383 . S
C1395 H1403 0.929 . S
C1396 C1395 1.383 . S
C1396 C1397 1.377 . S
C1397 H1381 0.930 . S
C1397 C1396 1.377 . S
C1397 C1398 1.379 . S
C1398 H1382 0.931 . S
C1398 C1392 1.383 . S
C1398 C1397 1.379 . S
H1399 C1393 0.959 . S
H1400 C1393 0.961 . S
H1401 C1393 0.960 . S
H1402 C1394 0.930 . S
H1403 C1395 0.929 . S
H1404 C1412 0.929 . S
H1405 C1414 0.930 . S
H1406 C1416 0.930 . S
H1407 C1419 0.929 . S
H1408 C1422 0.930 . S
H1409 C1424 0.960 . S
H1410 C1424 0.960 . S
H1411 C1424 0.960 . S
C1412 H1404 0.929 . S
C1412 C1413 1.377 . S
C1412 C1414 1.384 . S
C1413 C1412 1.377 . S
C1413 C1419 1.390 . S
C1414 H1405 0.930 . S
C1414 C1412 1.384 . S
C1414 C1415 1.372 . S
C1415 C1414 1.372 . S
C1415 C1416 1.400 . S
C1415 C1420 1.490 . S
C1416 H1406 0.930 . S
C1416 C1415 1.400 . S
C1416 C1419 1.386 . S
H1417 C1433 0.930 1_455 S
H1418 C1434 0.931 . S
C1419 H1407 0.929 . S
C1419 C1413 1.390 . S
C1419 C1416 1.386 . S
C1420 C1415 1.490 . S
C1420 C1422 1.395 . S
C1420 C1423 1.403 . S
H1421 C1427 0.930 . S
C1422 H1408 0.930 . S
C1422 C1420 1.395 . S
C1422 C1425 1.403 . S
C1423 C1420 1.403 . S
C1423 C1424 1.524 . S
C1423 C1427 1.400 . S
C1424 H1409 0.960 . S
C1424 H1410 0.960 . S
C1424 H1411 0.960 . S
C1424 C1423 1.524 . S
C1425 C1422 1.403 . S
C1425 C1426 1.392 . S
C1425 C1429 1.495 . S
C1426 C1425 1.392 . S
C1426 C1427 1.385 . S
C1426 C1428 1.478 . S
C1427 H1421 0.930 . S
C1427 C1423 1.400 . S
C1427 C1426 1.385 . S
C1428 C1426 1.478 . S
C1428 C1430 1.381 . S
C1428 C1434 1.383 . S
C1429 C1425 1.495 . S
C1429 H1435 0.959 . S
C1429 H1436 0.961 . S
C1429 H1437 0.960 . S
C1430 C1428 1.381 . S
C1430 C1431 1.394 . S
C1430 H1438 0.930 . S
C1431 C1430 1.394 . S
C1431 C1432 1.383 . S
C1431 H1439 0.929 . S
C1432 C1431 1.383 . S
C1432 C1433 1.377 . S
C1433 H1417 0.930 1_655 S
C1433 C1432 1.377 . S
C1433 C1434 1.379 . S
C1434 H1418 0.931 . S
C1434 C1428 1.383 . S
C1434 C1433 1.379 . S
H1435 C1429 0.959 . S
H1436 C1429 0.961 . S
H1437 C1429 0.960 . S
H1438 C1430 0.930 . S
H1439 C1431 0.929 . S
H1440 C1448 0.929 . S
H1441 C1450 0.930 . S
H1442 C1452 0.930 . S
H1443 C1455 0.929 1_545 S
H1444 C1458 0.930 . S
H1445 C1460 0.960 . S
H1446 C1460 0.960 . S
H1447 C1460 0.960 . S
C1448 H1440 0.929 . S
C1448 C1449 1.377 . S
C1448 C1450 1.384 . S
C1449 C1448 1.377 . S
C1449 C1455 1.390 . S
C1450 H1441 0.930 . S
C1450 C1448 1.384 . S
C1450 C1451 1.372 . S
C1451 C1450 1.372 . S
C1451 C1452 1.400 . S
C1451 C1456 1.490 . S
C1452 H1442 0.930 . S
C1452 C1451 1.400 . S
C1452 C1455 1.386 . S
H1453 C1469 0.930 . S
H1454 C1470 0.931 . S
C1455 H1443 0.929 1_565 S
C1455 C1449 1.390 . S
C1455 C1452 1.386 . S
C1456 C1451 1.490 . S
C1456 C1458 1.395 . S
C1456 C1459 1.403 . S
H1457 C1463 0.930 . S
C1458 H1444 0.930 . S
C1458 C1456 1.395 . S
C1458 C1461 1.403 . S
C1459 C1456 1.403 . S
C1459 C1460 1.524 . S
C1459 C1463 1.400 . S
C1460 H1445 0.960 . S
C1460 H1446 0.960 . S
C1460 H1447 0.960 . S
C1460 C1459 1.524 . S
C1461 C1458 1.403 . S
C1461 C1462 1.392 . S
C1461 C1465 1.495 . S
C1462 C1461 1.392 . S
C1462 C1463 1.385 . S
C1462 C1464 1.478 . S
C1463 H1457 0.930 . S
C1463 C1459 1.400 . S
C1463 C1462 1.385 . S
C1464 C1462 1.478 . S
C1464 C1466 1.381 . S
C1464 C1470 1.383 . S
C1465 C1461 1.495 . S
C1465 H1471 0.959 . S
C1465 H1472 0.961 . S
C1465 H1473 0.960 . S
C1466 C1464 1.381 . S
C1466 C1467 1.394 . S
C1466 H1474 0.930 . S
C1467 C1466 1.394 . S
C1467 C1468 1.383 . S
C1467 H1475 0.929 . S
C1468 C1467 1.383 . S
C1468 C1469 1.377 1_455 S
C1469 H1453 0.930 . S
C1469 C1468 1.377 1_655 S
C1469 C1470 1.379 1_655 S
C1470 H1454 0.931 . S
C1470 C1464 1.383 . S
C1470 C1469 1.379 1_455 S
H1471 C1465 0.959 . S
H1472 C1465 0.961 . S
H1473 C1465 0.960 . S
H1474 C1466 0.930 . S
H1475 C1467 0.929 . S
C405 N112 1.404 . S
C424 N13 1.427 . S
C441 N145 1.391 . S
C460 N46 1.363 . S
C477 N178 1.393 . S
C496 N79 1.372 . S
C513 N211 1.390 . S
C532 N310 1.360 . S
C549 N244 1.404 . S
C568 N343 1.425 . S
C585 N277 1.391 . S
C604 N376 1.363 . S
C621 C315 1.868 . S
C640 C18 1.850 . S
C657 C51 1.867 . S
C676 C348 1.872 . S
C693 C381 1.867 . S
C712 C84 1.853 . S
C729 C216 1.865 . S
C748 C117 1.863 . S
C765 C150 1.867 . S
C784 C249 1.853 . S
C801 C183 1.869 . S
C820 C282 1.851 . S
C837 N2 0.346 . S
C856 N101 0.323 . S
C873 N35 0.366 . S
C892 N134 0.428 . S
C909 N167 0.372 . S
C928 N68 0.327 . S
C945 N200 0.349 . S
C964 N299 0.309 . S
C981 N233 0.344 . S
C1000 N332 0.388 . S
C1017 N365 0.344 . S
C1036 N266 0.345 . S
C1053 C384 0.593 . S
C1072 C21 0.538 . S
C1089 C54 0.582 . S
C1108 C219 0.602 . S
C1125 C252 0.580 . S
C1144 C87 0.646 . S
C1161 C285 0.588 . S
C1180 C120 0.561 . S
C1197 C153 0.608 . S
C1216 C318 0.645 . S
C1233 C186 0.601 . S
C1252 C351 0.514 . S
C1269 C7 0.669 . S
C1288 C271 0.675 1_545 S
C1305 C40 0.667 1_455 S
C1324 C304 0.689 . S
C1341 C337 0.664 1_655 S
C1360 C73 0.702 1_545 S
C1377 C106 0.648 . S
C1396 C370 0.674 1_565 S
C1413 C205 0.670 . S
C1432 C139 0.668 1_655 S
C1449 C172 0.666 1_565 S
C1468 C238 0.694 1_455 S
