# Generated by pormake.
# Topology bcg, (8)-cn, num edge types: 1
# Building blocks:
#     Node 0, Type 0, BuildingBlock: EBIMEJ_clean_sbu_0, # of connection points: 8
#     Node 1, Type 0, BuildingBlock: EBIMEJ_clean_sbu_0, # of connection points: 8
#     Node 2, Type 0, BuildingBlock: EBIMEJ_clean_sbu_0, # of connection points: 8
#     Node 3, Type 0, BuildingBlock: EBIMEJ_clean_sbu_0, # of connection points: 8
#     Edge 4, Type (0, 0), BuildingBlock: TEMPAE_clean_linker_10, # of connection points: 2
#     Edge 5, Type (0, 0), BuildingBlock: TEMPAE_clean_linker_10, # of connection points: 2
#     Edge 6, Type (0, 0), BuildingBlock: TEMPAE_clean_linker_10, # of connection points: 2
#     Edge 7, Type (0, 0), BuildingBlock: TEMPAE_clean_linker_10, # of connection points: 2
#     Edge 8, Type (0, 0), BuildingBlock: TEMPAE_clean_linker_10, # of connection points: 2
#     Edge 9, Type (0, 0), BuildingBlock: TEMPAE_clean_linker_10, # of connection points: 2
#     Edge 10, Type (0, 0), BuildingBlock: TEMPAE_clean_linker_10, # of connection points: 2
#     Edge 11, Type (0, 0), BuildingBlock: TEMPAE_clean_linker_10, # of connection points: 2
#     Edge 12, Type (0, 0), BuildingBlock: TEMPAE_clean_linker_10, # of connection points: 2
#     Edge 13, Type (0, 0), BuildingBlock: TEMPAE_clean_linker_10, # of connection points: 2
#     Edge 14, Type (0, 0), BuildingBlock: TEMPAE_clean_linker_10, # of connection points: 2
#     Edge 15, Type (0, 0), BuildingBlock: TEMPAE_clean_linker_10, # of connection points: 2
#     Edge 16, Type (0, 0), BuildingBlock: TEMPAE_clean_linker_10, # of connection points: 2
#     Edge 17, Type (0, 0), BuildingBlock: TEMPAE_clean_linker_10, # of connection points: 2
#     Edge 18, Type (0, 0), BuildingBlock: TEMPAE_clean_linker_10, # of connection points: 2
#     Edge 19, Type (0, 0), BuildingBlock: TEMPAE_clean_linker_10, # of connection points: 2
# Relax obj value: 0.041
# Max RMSD: 0.091
# Mean RMSD: 0.091
data_MOF--net-bcg--node1-EBIMEJ_clean_sbu_0--edge1-TEMPAE_clean_linker_10
_symmetry_space_group_name_H-M    P1
_symmetry_Int_Tables_number       1
_symmetry_cell_setting            triclinic
loop_
_symmetry_equiv_pos_as_xyz
'x, y, z'
_cell_length_a     17.121333
_cell_length_b     28.324542
_cell_length_c     34.605247
_cell_angle_alpha  82.366352
_cell_angle_beta   89.971162
_cell_angle_gamma 90.018452
loop_
_atom_site_label
_atom_site_type_symbol
_atom_site_fract_x
_atom_site_fract_y
_atom_site_fract_z
_atom_type_partial_charge
Co0 Co 0.16712 0.25081 0.94048 0.0
Co1 Co 0.3272 0.25017 0.99637 0.0
Co2 Co 0.17026 0.25269 0.03319 0.0
H3 H 0.18808 0.25889 0.98744 0.0
O4 O 0.22544 0.27899 0.98186 0.0
H5 H 0.30756 0.24678 0.04166 0.0
O6 O 0.27222 0.2255 0.0478 0.0
Co7 Co 0.32268 0.26143 0.08701 0.0
O8 O 0.43522 0.25485 0.06911 0.0
O9 O 0.42783 0.22201 1.01386 0.0
O10 O 0.22321 0.26976 0.11811 0.0
O11 O 0.12864 0.23573 0.08696 0.0
O12 O 0.15127 0.21517 0.89275 0.0
O13 O 0.11691 0.28578 0.89047 0.0
O14 O 0.33936 0.32918 0.06486 0.0
O15 O 0.36591 0.31646 1.00414 0.0
C16 C 0.02937 0.28129 0.98687 0.0
C17 C 0.33737 0.26713 0.90977 0.0
C18 C 0.36897 0.2569 0.15567 0.0
C19 C 0.1164 0.16616 0.99371 0.0
C20 C 0.4667 0.23528 0.04177 0.0
C21 C 0.15458 0.25248 0.11689 0.0
C22 C 0.11973 0.2501 0.87243 0.0
C23 C 0.36438 0.34366 0.03091 0.0
O24 O 0.05723 0.26852 0.95567 0.0
O25 O 0.06916 0.2811 0.01785 0.0
O26 O 0.37083 0.2649 0.94288 0.0
O27 O 0.26381 0.26236 0.90601 0.0
O28 O 0.32765 0.28988 0.13862 0.0
O29 O 0.38261 0.22555 0.13399 0.0
O30 O 0.12684 0.18573 0.95901 0.0
O31 O 0.13313 0.18711 0.02326 0.0
Co32 Co 0.66613 0.74541 0.93993 0.0
Co33 Co 0.82018 0.74708 0.997 0.0
Co34 Co 0.66149 0.76064 0.02937 0.0
H35 H 0.68368 0.76058 0.98494 0.0
O36 O 0.72304 0.77879 0.97852 0.0
H37 H 0.79757 0.74852 0.04112 0.0
O38 O 0.75903 0.7298 0.04807 0.0
Co39 Co 0.81318 0.76716 0.08489 0.0
O40 O 0.92615 0.75765 0.06903 0.0
O41 O 0.91721 0.71674 0.01823 0.0
O42 O 0.71583 0.76699 0.11851 0.0
O43 O 0.61308 0.75091 0.08234 0.0
O44 O 0.62642 0.70701 0.89721 0.0
O45 O 0.62896 0.78089 0.88718 0.0
O46 O 0.80941 0.83311 0.05575 0.0
O47 O 0.86438 0.81258 1.00245 0.0
C48 C 0.52339 0.77607 0.98253 0.0
C49 C 0.83569 0.76235 0.91052 0.0
C50 C 0.86852 0.76807 0.15133 0.0
C51 C 0.63286 0.66567 0.99873 0.0
C52 C 0.95683 0.73317 0.04453 0.0
C53 C 0.64326 0.75843 0.11475 0.0
C54 C 0.6122 0.74335 0.87329 0.0
C55 C 0.84773 0.84402 0.02451 0.0
O56 O 0.55228 0.75361 0.95617 0.0
O57 O 0.56528 0.79137 1.00852 0.0
O58 O 0.86773 0.75564 0.94412 0.0
O59 O 0.76177 0.7619 0.90542 0.0
O60 O 0.87653 0.80112 0.12362 0.0
O61 O 0.82904 0.73428 0.14129 0.0
O62 O 0.66821 0.678 0.96679 0.0
O63 O 0.61803 0.69559 0.02238 0.0
Co64 Co 0.15919 0.75944 0.58631 0.0
Co65 Co 0.31615 0.75272 0.53195 0.0
Co66 Co 0.1583 0.75188 0.49456 0.0
H67 H 0.17691 0.74766 0.54009 0.0
O68 O 0.21265 0.72664 0.54626 0.0
H69 H 0.29775 0.75778 0.4865 0.0
O70 O 0.26183 0.77871 0.48028 0.0
Co71 Co 0.31717 0.74571 0.44062 0.0
O72 O 0.42975 0.74727 0.45943 0.0
O73 O 0.41958 0.77789 0.51551 0.0
O74 O 0.22089 0.75151 0.40581 0.0
O75 O 0.1163 0.7675 0.44065 0.0
O76 O 0.15703 0.78965 0.63736 0.0
O77 O 0.08882 0.73027 0.6316 0.0
O78 O 0.33761 0.67776 0.46104 0.0
O79 O 0.3497 0.68577 0.52392 0.0
C80 C 0.02007 0.72371 0.54313 0.0
C81 C 0.32752 0.7441 0.61794 0.0
C82 C 0.36918 0.74862 0.37309 0.0
C83 C 0.11278 0.84252 0.53126 0.0
C84 C 0.46011 0.76398 0.48838 0.0
C85 C 0.14866 0.76155 0.40841 0.0
C86 C 0.10766 0.7605 0.65341 0.0
C87 C 0.35464 0.66084 0.49575 0.0
O88 O 0.05082 0.73775 0.57315 0.0
O89 O 0.05581 0.72421 0.51078 0.0
O90 O 0.35838 0.73659 0.58574 0.0
O91 O 0.25616 0.75607 0.62064 0.0
O92 O 0.3805 0.71504 0.4 0.0
O93 O 0.32788 0.78088 0.38447 0.0
O94 O 0.12913 0.82595 0.56609 0.0
O95 O 0.12146 0.81816 0.5029 0.0
Co96 Co 0.67087 0.26424 0.58691 0.0
Co97 Co 0.823 0.26091 0.53036 0.0
Co98 Co 0.66376 0.24747 0.49792 0.0
H99 H 0.68649 0.24786 0.54221 0.0
O100 O 0.72549 0.22936 0.54865 0.0
H101 H 0.80061 0.26196 0.48583 0.0
O102 O 0.76092 0.28003 0.47971 0.0
Co103 Co 0.8188 0.24785 0.44051 0.0
O104 O 0.93253 0.25344 0.45765 0.0
O105 O 0.9203 0.29138 0.50987 0.0
O106 O 0.7217 0.26023 0.40621 0.0
O107 O 0.61591 0.25709 0.44503 0.0
O108 O 0.64746 0.3014 0.63299 0.0
O109 O 0.61737 0.22996 0.63623 0.0
O110 O 0.81846 0.17993 0.46607 0.0
O111 O 0.86537 0.19592 0.52277 0.0
C112 C 0.52733 0.2296 0.54652 0.0
C113 C 0.84026 0.24853 0.61678 0.0
C114 C 0.8783 0.24898 0.37462 0.0
C115 C 0.63292 0.34245 0.52818 0.0
C116 C 0.96204 0.27522 0.4842 0.0
C117 C 0.64773 0.26165 0.41133 0.0
C118 C 0.6167 0.26633 0.65346 0.0
C119 C 0.85258 0.1668 0.49823 0.0
O120 O 0.55792 0.25258 0.57209 0.0
O121 O 0.56672 0.21613 0.5187 0.0
O122 O 0.87165 0.25 0.58314 0.0
O123 O 0.76687 0.25308 0.62162 0.0
O124 O 0.90802 0.22875 0.40563 0.0
O125 O 0.81504 0.26899 0.38106 0.0
O126 O 0.67115 0.33123 0.55939 0.0
O127 O 0.61804 0.31184 0.50515 0.0
C128 C 0.57215 0.29237 0.02639 0.0
C129 C 0.54887 0.24474 0.03419 0.0
C130 C 0.64743 0.30422 1.01337 0.0
C131 C 0.70128 0.2673 1.01002 0.0
C132 C 0.67815 0.2189 0.01816 0.0
C133 C 0.6009 0.20814 0.02933 0.0
C134 C 0.66915 0.35613 1.00339 0.0
C135 C 0.73527 0.17871 0.01592 0.0
C136 C 0.89507 0.28564 0.95834 0.0
C137 C 0.94477 0.28866 0.99011 0.0
C138 C 0.81418 0.28155 0.96389 0.0
C139 C 0.78372 0.27918 1.0021 0.0
C140 C 0.83297 0.28543 0.03371 0.0
C141 C 0.91275 0.29121 0.02713 0.0
C142 C 0.76204 0.27719 0.92935 0.0
C143 C 0.80249 0.28235 0.07502 0.0
H144 H 0.53047 0.32048 0.02921 0.0
H145 H 0.58137 0.17142 0.03468 0.0
H146 H 0.71041 0.36657 0.02545 0.0
H147 H 0.69897 0.36221 0.97468 0.0
H148 H 0.61721 0.37977 1.00247 0.0
H149 H 0.70767 0.14314 0.02322 0.0
H150 H 0.76041 0.18117 0.98618 0.0
H151 H 0.78442 0.18161 0.03638 0.0
H152 H 0.91942 0.28429 0.92958 0.0
H153 H 0.9505 0.29419 0.05183 0.0
H154 H 0.70906 0.29958 0.9303 0.0
H155 H 0.74239 0.23974 0.93027 0.0
H156 H 0.79268 0.28777 0.90122 0.0
H157 H 0.75525 0.30872 0.07681 0.0
H158 H 0.84887 0.28868 0.09619 0.0
H159 H 0.7772 0.24648 0.08404 0.0
C160 C 0.07313 0.78345 0.0339 0.0
C161 C 0.04072 0.73771 0.03818 0.0
C162 C 0.15036 0.79102 0.02193 0.0
C163 C 0.19674 0.7515 0.01564 0.0
C164 C 0.16478 0.70494 0.02089 0.0
C165 C 0.08599 0.69869 0.03129 0.0
C166 C 0.18183 0.84131 0.0155 0.0
C167 C 0.2141 0.66187 0.01634 0.0
C168 C 0.38585 0.77193 0.95907 0.0
C169 C 0.43895 0.77396 0.98952 0.0
C170 C 0.30594 0.76524 0.967 0.0
C171 C 0.28013 0.75883 1.00625 0.0
C172 C 0.33375 0.7606 0.03699 0.0
C173 C 0.41234 0.7688 0.02819 0.0
C174 C 0.2493 0.76494 0.9336 0.0
C175 C 0.30855 0.75286 0.07926 0.0
H176 H 0.03693 0.81367 0.03837 0.0
H177 H 0.05989 0.6635 0.0343 0.0
H178 H 0.23438 0.8444 0.03371 0.0
H179 H 0.19975 0.85046 0.98458 0.0
H180 H 0.13809 0.86784 0.02257 0.0
H181 H 0.17947 0.6284 0.01981 0.0
H182 H 0.24271 0.66612 0.98732 0.0
H183 H 0.26112 0.65849 0.03859 0.0
H184 H 0.40678 0.77557 0.92924 0.0
H185 H 0.45355 0.7692 0.05192 0.0
H186 H 0.20333 0.79221 0.9353 0.0
H187 H 0.21963 0.72988 0.93563 0.0
H188 H 0.27857 0.77214 0.90476 0.0
H189 H 0.26264 0.77884 0.0846 0.0
H190 H 0.3578 0.75653 0.09951 0.0
H191 H 0.28309 0.71671 0.08636 0.0
C192 C 0.55518 0.71562 0.52883 0.0
C193 C 0.54086 0.75146 0.49771 0.0
C194 C 0.63127 0.70106 0.53862 0.0
C195 C 0.69402 0.72428 0.5175 0.0
C196 C 0.67957 0.75982 0.48533 0.0
C197 C 0.6024 0.77251 0.47535 0.0
C198 C 0.64427 0.66172 0.57198 0.0
C199 C 0.7456 0.78545 0.46235 0.0
C200 C 0.88726 0.74091 0.56502 0.0
C201 C 0.93602 0.71409 0.54383 0.0
C202 C 0.80684 0.74228 0.55844 0.0
C203 C 0.77486 0.71492 0.53096 0.0
C204 C 0.82268 0.68346 0.51297 0.0
C205 C 0.90348 0.68412 0.51904 0.0
C206 C 0.75759 0.77651 0.57802 0.0
C207 C 0.78949 0.65168 0.4853 0.0
H208 H 0.50654 0.6987 0.54536 0.0
H209 H 0.59019 0.79959 0.4509 0.0
H210 H 0.68815 0.63589 0.56393 0.0
H211 H 0.66726 0.67702 0.59758 0.0
H212 H 0.58942 0.64221 0.5808 0.0
H213 H 0.72425 0.81168 0.43792 0.0
H214 H 0.78202 0.80445 0.48189 0.0
H215 H 0.78388 0.75944 0.45024 0.0
H216 H 0.91254 0.7641 0.58422 0.0
H217 H 0.94141 0.66279 0.50317 0.0
H218 H 0.7044 0.7586 0.59104 0.0
H219 H 0.7383 0.80624 0.55592 0.0
H220 H 0.79012 0.79172 0.60125 0.0
H221 H 0.73307 0.6359 0.49629 0.0
H222 H 0.83041 0.62244 0.48085 0.0
H223 H 0.77835 0.67306 0.4566 0.0
C224 C 0.06283 0.24201 0.53026 0.0
C225 C 0.04438 0.26694 0.49372 0.0
C226 C 0.13998 0.2304 0.54035 0.0
C227 C 0.20012 0.24557 0.51362 0.0
C228 C 0.18178 0.27056 0.47644 0.0
C229 C 0.10335 0.28018 0.46656 0.0
C230 C 0.15697 0.20216 0.57963 0.0
C231 C 0.24503 0.28808 0.44762 0.0
C232 C 0.39886 0.26656 0.55501 0.0
C233 C 0.44179 0.22853 0.54375 0.0
C234 C 0.31982 0.27221 0.54562 0.0
C235 C 0.28243 0.23813 0.52561 0.0
C236 C 0.32413 0.19795 0.51638 0.0
C237 C 0.40407 0.19405 0.52498 0.0
C238 C 0.27744 0.31592 0.5554 0.0
C239 C 0.285 0.16002 0.49636 0.0
H240 H 0.01641 0.23063 0.55073 0.0
H241 H 0.08821 0.29881 0.43814 0.0
H242 H 0.19311 0.17055 0.57597 0.0
H243 H 0.19088 0.22427 0.59781 0.0
H244 H 0.10278 0.18994 0.59563 0.0
H245 H 0.22087 0.30657 0.41987 0.0
H246 H 0.28409 0.31308 0.46053 0.0
H247 H 0.28147 0.25781 0.44098 0.0
H248 H 0.42817 0.29369 0.56902 0.0
H249 H 0.43742 0.16467 0.51629 0.0
H250 H 0.22553 0.30535 0.57371 0.0
H251 H 0.2563 0.33726 0.5282 0.0
H252 H 0.31523 0.33893 0.57114 0.0
H253 H 0.22979 0.14823 0.51148 0.0
H254 H 0.32316 0.12846 0.49545 0.0
H255 H 0.26979 0.17483 0.46601 0.0
C256 C 0.51598 0.61373 1.01327 0.0
C257 C 0.59595 0.61795 1.00485 0.0
C258 C 0.47763 0.56953 0.01514 0.0
C259 C 0.52084 0.52811 1.01 0.0
C260 C 0.60213 0.53217 1.00224 0.0
C261 C 0.63831 0.57722 0.99889 0.0
C262 C 0.39066 0.56728 0.02234 0.0
C263 C 0.65112 0.48886 0.99805 0.0
C264 C 0.43342 0.41067 0.05677 0.0
C265 C 0.40281 0.3913 0.0246 0.0
C266 C 0.47329 0.45437 0.05222 0.0
C267 C 0.48154 0.4804 0.01462 0.0
C268 C 0.45075 0.46122 0.98192 0.0
C269 C 0.41278 0.41656 0.98723 0.0
C270 C 0.50704 0.47253 0.0878 0.0
C271 C 0.45685 0.48825 0.94143 0.0
H272 H 0.48276 0.64542 0.01703 0.0
H273 H 0.70005 0.58057 0.99209 0.0
H274 H 0.36135 0.54794 1.00053 0.0
H275 H 0.37867 0.5474 0.05155 0.0
H276 H 0.36435 0.60328 0.02093 0.0
H277 H 0.71359 0.49793 0.99245 0.0
H278 H 0.64699 0.46304 0.02506 0.0
H279 H 0.62876 0.47079 0.97377 0.0
H280 H 0.42773 0.39106 0.08575 0.0
H281 H 0.38991 0.40175 0.96222 0.0
H282 H 0.47802 0.50633 0.09242 0.0
H283 H 0.57019 0.48028 0.08337 0.0
H284 H 0.49984 0.44664 0.11464 0.0
H285 H 0.42775 0.52339 0.94055 0.0
H286 H 0.42972 0.4687 0.91909 0.0
H287 H 0.51902 0.49515 0.93362 0.0
C288 C 0.51601 0.39301 0.50904 0.0
C289 C 0.59345 0.38947 0.52231 0.0
C290 C 0.47473 0.43621 0.50693 0.0
C291 C 0.5125 0.47734 0.51716 0.0
C292 C 0.59116 0.47408 0.53007 0.0
C293 C 0.63018 0.42998 0.53315 0.0
C294 C 0.39042 0.4377 0.49403 0.0
C295 C 0.63441 0.51729 0.54016 0.0
C296 C 0.43281 0.59689 0.47093 0.0
C297 C 0.39226 0.61311 0.50194 0.0
C298 C 0.47284 0.55332 0.47574 0.0
C299 C 0.4711 0.52427 0.51229 0.0
C300 C 0.42989 0.54016 0.54377 0.0
C301 C 0.39193 0.58477 0.53839 0.0
C302 C 0.51786 0.53866 0.44171 0.0
C303 C 0.4255 0.50988 0.58302 0.0
H304 H 0.48674 0.3615 0.50153 0.0
H305 H 0.68984 0.42723 0.5437 0.0
H306 H 0.35329 0.45173 0.5162 0.0
H307 H 0.38399 0.46223 0.46643 0.0
H308 H 0.36817 0.40203 0.48938 0.0
H309 H 0.69532 0.50883 0.54974 0.0
H310 H 0.63604 0.54522 0.51444 0.0
H311 H 0.60343 0.53263 0.56374 0.0
H312 H 0.43505 0.61896 0.44284 0.0
H313 H 0.36126 0.5972 0.56252 0.0
H314 H 0.49381 0.50492 0.43368 0.0
H315 H 0.57989 0.53201 0.45 0.0
H316 H 0.51574 0.56612 0.41562 0.0
H317 H 0.39996 0.47462 0.57974 0.0
H318 H 0.38968 0.52672 0.60421 0.0
H319 H 0.48503 0.50346 0.59519 0.0
C320 C 0.02238 0.1081 0.97152 0.0
C321 C 0.07751 0.11879 0.99914 0.0
C322 C 0.98393 0.06394 0.97529 0.0
C323 C 0.00225 0.02876 1.00696 0.0
C324 C 0.05821 0.03917 0.03492 0.0
C325 C 0.09432 0.08437 0.03101 0.0
C326 C 0.92315 0.0551 0.94544 0.0
C327 C 0.08049 1.00235 0.0687 0.0
C328 C 0.85449 0.92955 0.03606 0.0
C329 C 0.88396 0.89222 0.01737 0.0
C330 C 0.89208 0.97407 0.03277 0.0
C331 C 0.96194 0.98143 1.01084 0.0
C332 C -0.0082 0.94401 0.99166 0.0
C333 C 0.95213 0.90008 0.99484 0.0
C334 C 0.857 0.01325 0.05286 0.0
C335 C 0.06649 0.95013 0.96832 0.0
H336 H 0.00815 0.1348 0.9471 0.0
H337 H 0.13692 0.09239 0.05237 0.0
H338 H 0.94085 0.02451 0.93048 0.0
H339 H 0.86653 0.0457 0.96009 0.0
H340 H 0.91418 0.08661 0.9231 0.0
H341 H 0.12604 0.01554 0.08746 0.0
H342 H 0.02836 0.99179 0.08686 0.0
H343 H 0.10259 0.96983 0.05764 0.0
H344 H 0.8019 0.92388 0.05353 0.0
H345 H 0.97602 0.87136 0.98068 0.0
H346 H 0.84519 0.045 0.03122 0.0
H347 H 0.89894 0.02427 0.07439 0.0
H348 H 0.80164 1.00214 0.0682 0.0
H349 H 0.06099 0.98052 0.94473 0.0
H350 H 0.08192 0.91773 0.95506 0.0
H351 H 0.11525 0.9585 0.98741 0.0
C352 C 0.85698 0.08133 0.48651 0.0
C353 C 0.88862 0.11867 0.50437 0.0
C354 C 0.89366 0.03653 0.48972 0.0
C355 C 0.965 0.02913 0.51041 0.0
C356 C -0.0023 0.06695 0.52814 0.0
C357 C 0.95864 0.11099 0.52534 0.0
C358 C 0.85571 0.997 0.47117 0.0
C359 C 0.07445 0.06111 0.54971 0.0
C360 C 0.02297 0.90312 0.55274 0.0
C361 C 0.07536 0.89023 0.52472 0.0
C362 C 0.98605 0.94776 0.54808 0.0
C363 C 0.00337 0.98121 0.51506 0.0
C364 C 0.05665 0.96858 0.48668 0.0
C365 C 0.09106 0.92287 0.49152 0.0
C366 C 0.92803 0.95898 0.57849 0.0
C367 C 0.07812 1.0036 0.45155 0.0
H368 H 0.8031 0.08711 0.47012 0.0
H369 H 0.98431 0.13994 0.53858 0.0
H370 H 0.89587 0.98446 0.44953 0.0
H371 H 0.84369 0.96618 0.49371 0.0
H372 H 0.80002 0.00839 0.45631 0.0
H373 H 0.09392 0.09464 0.56017 0.0
H374 H 0.06901 0.03307 0.57517 0.0
H375 H 0.12037 0.04942 0.53042 0.0
H376 H 0.00969 0.87776 0.57822 0.0
H377 H 0.13166 0.91311 0.46988 0.0
H378 H 0.87099 0.96905 0.56455 0.0
H379 H 0.94876 0.98984 0.59231 0.0
H380 H 0.91871 0.92839 0.60166 0.0
H381 H 0.02516 0.01432 0.43412 0.0
H382 H 0.12136 0.9887 0.4325 0.0
H383 H 0.1029 0.03635 0.46112 0.0
C384 C 0.62751 0.28622 0.33993 0.0
C385 C 0.59736 0.26606 0.37609 0.0
C386 C 0.58455 0.286 0.30544 0.0
C387 C 0.50974 0.26447 0.30691 0.0
C388 C 0.47761 0.24557 0.34348 0.0
C389 C 0.52162 0.24687 0.3777 0.0
C390 C 0.62056 0.30749 0.26726 0.0
C391 C 0.39821 0.22216 0.34634 0.0
C392 C 0.38275 0.29437 0.21676 0.0
C393 C 0.39968 0.25652 0.19574 0.0
C394 C 0.41604 0.29669 0.25357 0.0
C395 C 0.46724 0.26013 0.26989 0.0
C396 C 0.48225 0.22095 0.24938 0.0
C397 C 0.44846 0.21967 0.21249 0.0
C398 C 0.39882 0.3392 0.27428 0.0
C399 C 0.53588 0.18102 0.26592 0.0
H400 H 0.68544 0.30175 0.33845 0.0
H401 H 0.49796 0.23104 0.4055 0.0
H402 H 0.63526 0.27877 0.2496 0.0
H403 H 0.57854 0.33172 0.25017 0.0
H404 H 0.67469 0.32778 0.2716 0.0
H405 H 0.3787 0.21292 0.37704 0.0
H406 H 0.35401 0.24586 0.3304 0.0
H407 H 0.40022 0.18906 0.33244 0.0
H408 H 0.34479 0.32288 0.20401 0.0
H409 H 0.46149 0.19027 0.19644 0.0
H410 H 0.45309 0.36013 0.2764 0.0
H411 H 0.37852 0.32737 0.30445 0.0
H412 H 0.35377 0.36293 0.25894 0.0
H413 H 0.59613 0.19488 0.26803 0.0
H414 H 0.53721 0.15154 0.24771 0.0
H415 H 0.5171 0.16648 0.29584 0.0
C416 C 0.62297 0.77733 0.18243 0.0
C417 C 0.59351 0.758 0.15003 0.0
C418 C 0.57956 0.77634 0.21681 0.0
C419 C 0.50466 0.75507 0.21934 0.0
C420 C 0.47368 0.73605 0.18666 0.0
C421 C 0.51826 0.73809 0.1522 0.0
C422 C 0.61483 0.79732 0.25078 0.0
C423 C 0.39417 0.71285 0.18838 0.0
C424 C 0.44514 0.71132 0.32358 0.0
C425 C 0.39864 0.74897 0.33284 0.0
C426 C 0.47668 0.71175 0.2861 0.0
C427 C 0.46154 0.75086 0.2571 0.0
C428 C 0.41212 0.78815 0.26587 0.0
C429 C 0.3812 0.78675 0.30368 0.0
C430 C 0.52872 0.67116 0.27797 0.0
C431 C 0.39456 0.83045 0.23581 0.0
H432 H 0.68061 0.79331 0.18106 0.0
H433 H 0.49495 0.72316 0.12735 0.0
H434 H 0.57472 0.82417 0.26049 0.0
H435 H 0.62314 0.76893 0.27578 0.0
H436 H 0.67221 0.81455 0.24343 0.0
H437 H 0.38034 0.69724 0.16139 0.0
H438 H 0.3909 0.68426 0.21358 0.0
H439 H 0.3487 0.73951 0.19279 0.0
H440 H 0.45824 0.68181 0.34592 0.0
H441 H 0.34455 0.81569 0.31061 0.0
H442 H 0.58945 0.68423 0.27291 0.0
H443 H 0.50931 0.65707 0.25113 0.0
H444 H 0.52913 0.64152 0.30246 0.0
H445 H 0.44872 0.85143 0.22894 0.0
H446 H 0.34955 0.85419 0.24603 0.0
H447 H 0.37409 0.81841 0.20833 0.0
C448 C 0.33875 0.74109 0.69027 0.0
C449 C 0.37558 0.74025 0.65406 0.0
C450 C 0.38194 0.74044 0.72471 0.0
C451 C 0.4645 0.73895 0.72324 0.0
C452 C 0.50239 0.73731 0.68697 0.0
C453 C 0.45746 0.73786 0.65278 0.0
C454 C 0.33891 0.74199 0.76268 0.0
C455 C 0.59032 0.73591 0.68417 0.0
C456 C 0.56473 0.78456 0.80914 0.0
C457 C 0.57972 0.74211 0.83375 0.0
C458 C 0.53024 0.78399 0.77234 0.0
C459 C 0.51028 0.73988 0.75984 0.0
C460 C 0.52772 0.69686 0.78408 0.0
C461 C 0.56216 0.69849 0.82076 0.0
C462 C 0.51268 0.83066 0.74742 0.0
C463 C 0.50753 0.64911 0.77186 0.0
H464 H 0.2756 0.74259 0.69182 0.0
H465 H 0.48657 0.73738 0.625 0.0
H466 H 0.35492 0.71064 0.78392 0.0
H467 H 0.35617 0.77429 0.77556 0.0
H468 H 0.27444 0.74237 0.7589 0.0
H469 H 0.61073 0.73261 0.65416 0.0
H470 H 0.61537 0.76891 0.69314 0.0
H471 H 0.61369 0.70553 0.70439 0.0
H472 H 0.57862 0.81838 0.81894 0.0
H473 H 0.57407 0.66555 0.83957 0.0
H474 H 0.44854 0.83526 0.74426 0.0
H475 H 0.53722 0.83067 0.71775 0.0
H476 H 0.53676 0.86167 0.76006 0.0
H477 H 0.44315 0.64558 0.76991 0.0
H478 H 0.53012 0.61896 0.79266 0.0
H479 H 0.53175 0.64635 0.74251 0.0
C480 C 0.3492 0.28414 0.83722 0.0
C481 C 0.38544 0.27274 0.87366 0.0
C482 C 0.3914 0.28498 0.80241 0.0
C483 C 0.47204 0.27383 0.80384 0.0
C484 C 0.50971 0.26361 0.84046 0.0
C485 C 0.46602 0.2634 0.87497 0.0
C486 C 0.349 0.29653 0.76403 0.0
C487 C 0.59549 0.25125 0.84321 0.0
C488 C 0.54995 0.22674 0.71342 0.0
C489 C 0.5841 0.26759 0.69294 0.0
C490 C 0.51568 0.22789 0.75018 0.0
C491 C 0.51544 0.27097 0.76684 0.0
C492 C 0.55179 0.31199 0.74672 0.0
C493 C 0.58572 0.3098 0.71 0.0
C494 C 0.4778 0.18331 0.7707 0.0
C495 C 0.5528 0.35855 0.76347 0.0
H496 H 0.28712 0.29173 0.83579 0.0
H497 H 0.49453 0.2543 0.90293 0.0
H498 H 0.37875 0.32623 0.74559 0.0
H499 H 0.35024 0.2652 0.74791 0.0
H500 H 0.28708 0.30665 0.76795 0.0
H501 H 0.61705 0.24686 0.87375 0.0
H502 H 0.60587 0.21756 0.83091 0.0
H503 H 0.63048 0.27936 0.82572 0.0
H504 H 0.54891 0.19396 0.70044 0.0
H505 H 0.61245 0.34142 0.69435 0.0
H506 H 0.41407 0.18913 0.77345 0.0
H507 H 0.50159 0.17488 0.80064 0.0
H508 H 0.48692 0.15206 0.75492 0.0
H509 H 0.49217 0.37171 0.7658 0.0
H510 H 0.58736 0.38638 0.7453 0.0
H511 H 0.57764 0.35327 0.79333 0.0
C512 C 0.1334 0.7482 0.33887 0.0
C513 C 0.10133 0.76446 0.3721 0.0
C514 C 0.09055 0.74926 0.3043 0.0
C515 C 0.01361 0.7676 0.30242 0.0
C516 C 0.98058 0.78426 0.33569 0.0
C517 C 0.02468 0.78223 0.37026 0.0
C518 C 0.12787 0.73056 0.26975 0.0
C519 C 0.89905 0.80464 0.3346 0.0
C520 C 0.94442 0.80856 0.1991 0.0
C521 C 0.90089 0.76918 0.19086 0.0
C522 C 0.97847 0.80942 0.23592 0.0
C523 C 0.96908 0.76983 0.26518 0.0
C524 C 0.92311 0.73057 0.25737 0.0
C525 C 0.88942 0.73076 0.2203 0.0
C526 C 0.0267 0.85205 0.24308 0.0
C527 C 0.91194 0.68759 0.28767 0.0
H528 H 0.19224 0.73398 0.33985 0.0
H529 H -0.00066 0.79488 0.39569 0.0
H530 H 0.09147 0.70165 0.26048 0.0
H531 H 0.13137 0.75933 0.24473 0.0
H532 H 0.18768 0.7165 0.2763 0.0
H533 H 0.881 0.81493 0.36317 0.0
H534 H 0.89586 0.83654 0.31227 0.0
H535 H 0.85658 0.77833 0.32604 0.0
H536 H 0.95303 0.83849 0.17652 0.0
H537 H 0.8553 0.70039 0.21414 0.0
H538 H 0.08882 0.84144 0.24723 0.0
H539 H 0.0071 0.86551 0.27016 0.0
H540 H 0.02304 0.88149 0.21851 0.0
H541 H 0.96886 0.66946 0.29395 0.0
H542 H 0.87 0.66158 0.27804 0.0
H543 H 0.89055 0.69865 0.31536 0.0
C544 C 0.87292 0.26874 0.30188 0.0
C545 C 0.91309 0.24875 0.33544 0.0
C546 C 0.90591 0.26905 0.26461 0.0
C547 C 0.98086 0.24894 0.26085 0.0
C548 C 0.02116 0.22824 0.29467 0.0
C549 C 0.98678 0.22838 0.33152 0.0
C550 C 0.86127 0.29173 0.22933 0.0
C551 C 0.10121 0.20649 0.292 0.0
C552 C 0.05116 0.21623 0.16317 0.0
C553 C 0.10421 0.25312 0.15163 0.0
C554 C 0.00937 0.2147 0.19839 0.0
C555 C 0.01934 0.25165 0.2219 0.0
C556 C 0.06998 0.29013 0.20924 0.0
C557 C 0.11257 0.29001 0.17463 0.0
C558 C 0.95715 0.1726 0.21125 0.0
C559 C 0.08085 0.33091 0.23278 0.0
H560 H 0.81577 0.28434 0.30475 0.0
H561 H 0.01804 0.21287 0.35736 0.0
H562 H 0.89453 0.32262 0.21458 0.0
H563 H 0.85436 0.26604 0.20802 0.0
H564 H 0.80246 0.30414 0.23704 0.0
H565 H 0.12309 0.18979 0.32083 0.0
H566 H 0.09975 0.17909 0.27188 0.0
H567 H 0.14343 0.23429 0.27986 0.0
H568 H 0.04487 0.18755 0.14554 0.0
H569 H 0.1529 0.31891 0.16557 0.0
H570 H 0.89779 0.18485 0.21802 0.0
H571 H 0.98072 0.15232 0.23838 0.0
H572 H 0.95236 0.14817 0.18876 0.0
H573 H 0.02331 0.34554 0.23996 0.0
H574 H 0.11647 0.36019 0.21708 0.0
H575 H 0.11027 0.31792 0.26072 0.0
C576 C 0.05479 0.28997 0.81204 0.0
C577 C 0.09003 0.24938 0.83231 0.0
C578 C 0.02183 0.28895 0.77498 0.0
C579 C 0.02397 0.24627 0.75778 0.0
C580 C 0.06205 0.20568 0.77754 0.0
C581 C 0.09466 0.20773 0.81458 0.0
C582 C 0.98211 0.3331 0.75487 0.0
C583 C 0.06561 0.15952 0.76027 0.0
C584 C 0.85598 0.23096 0.68903 0.0
C585 C 0.89025 0.24344 0.65221 0.0
C586 C 0.89956 0.23034 0.72337 0.0
C587 C 0.97962 0.24293 0.72111 0.0
C588 C 0.01543 0.25419 0.68406 0.0
C589 C 0.9704 0.25404 0.65 0.0
C590 C 0.8591 0.2175 0.76217 0.0
C591 C 0.10051 0.26808 0.68043 0.0
H592 H 0.05145 0.32234 0.82552 0.0
H593 H 0.12226 0.17632 0.83003 0.0
H594 H 0.00472 0.34193 0.72473 0.0
H595 H 0.91848 0.32647 0.75273 0.0
H596 H -0.00923 0.36438 0.77066 0.0
H597 H 0.10277 0.13249 0.77774 0.0
H598 H 0.00584 0.14474 0.75867 0.0
H599 H 0.08876 0.16583 0.73008 0.0
H600 H 0.79431 0.22228 0.69113 0.0
H601 H -0.00262 0.26389 0.62173 0.0
H602 H 0.85918 0.24867 0.77849 0.0
H603 H 0.89101 0.18832 0.78009 0.0
H604 H 0.79765 0.20608 0.75885 0.0
H605 H 0.10977 0.30194 0.69265 0.0
H606 H 0.12081 0.27289 0.64966 0.0
H607 H 0.1373 0.24063 0.69754 0.0
C608 C 0.10242 0.79533 0.71616 0.0
C609 C 0.07594 0.76151 0.69304 0.0
C610 C 0.07022 0.79779 0.75322 0.0
C611 C 0.01035 0.76555 0.76745 0.0
C612 C 0.98483 0.73062 0.74453 0.0
C613 C 0.01782 0.7291 0.70758 0.0
C614 C 0.0988 0.83562 0.77669 0.0
C615 C 0.92161 0.69531 0.75874 0.0
C616 C 0.95736 0.74404 0.87518 0.0
C617 C 0.88585 0.76817 0.87537 0.0
C618 C 0.0 0.74392 0.84045 0.0
C619 C 0.97128 0.76954 0.80537 0.0
C620 C 0.90148 0.79626 0.80599 0.0
C621 C 0.85906 0.79467 0.84083 0.0
C622 C 0.0733 0.71422 0.8409 0.0
C623 C 0.86998 0.82517 0.76952 0.0
H624 H 0.14772 0.82028 0.70508 0.0
H625 H -0.00271 0.70285 0.68983 0.0
H626 H 0.0502 0.86023 0.78118 0.0
H627 H 0.1184 0.81911 0.80594 0.0
H628 H 0.14789 0.85669 0.76218 0.0
H629 H 0.91147 0.66876 0.73835 0.0
H630 H 0.9374 0.67611 0.78774 0.0
H631 H 0.86602 0.7144 0.76225 0.0
H632 H 0.97797 0.72318 0.90177 0.0
H633 H 0.80411 0.81369 0.84094 0.0
H634 H 0.12186 0.73531 0.82605 0.0
H635 H 0.06274 0.6836 0.82463 0.0
H636 H 0.09196 0.70025 0.871 0.0
H637 H 0.91652 0.84823 0.75482 0.0
H638 H 0.81995 0.84796 0.77577 0.0
H639 H 0.85022 0.80094 0.74879 0.0
loop_
_geom_bond_atom_site_label_1
_geom_bond_atom_site_label_2
_geom_bond_distance
_geom_bond_site_symmetry_2
_ccdc_geom_bond_type
Co0 H3 2.400 . S
Co0 O4 2.009 . S
Co0 O12 2.115 . S
Co0 O13 2.315 . S
Co0 O24 2.053 . S
Co0 O27 2.094 . S
Co0 O30 2.122 . S
Co1 O4 2.126 . S
Co1 H5 2.388 1_556 S
Co1 O6 2.053 1_556 S
Co1 O9 2.047 . S
Co1 O15 2.113 . S
Co1 O26 2.063 . S
Co2 H3 2.388 1_554 S
Co2 O4 2.053 1_554 S
Co2 O6 2.126 . S
Co2 O11 2.063 . S
Co2 O25 2.047 . S
Co2 O31 2.113 . S
H3 Co0 2.400 . S
H3 Co2 2.388 1_556 S
H3 O4 0.760 . S
O4 Co0 2.009 . S
O4 Co1 2.126 . S
O4 Co2 2.053 1_556 S
O4 H3 0.760 . S
H5 Co1 2.388 1_554 S
H5 O6 0.760 . S
H5 Co7 2.400 . S
O6 Co1 2.053 1_554 S
O6 Co2 2.126 . S
O6 H5 0.760 . S
O6 Co7 2.009 . S
Co7 H5 2.400 . S
Co7 O6 2.009 . S
Co7 O8 2.053 . S
Co7 O10 2.094 . S
Co7 O14 2.122 . S
Co7 O28 2.115 . S
Co7 O29 2.315 . S
O8 Co7 2.053 . S
O8 C20 1.259 . S
O9 Co1 2.047 . S
O9 C20 1.257 1_556 S
O10 Co7 2.094 . S
O10 C21 1.253 . S
O11 Co2 2.063 . S
O11 C21 1.268 . S
O12 Co0 2.115 . S
O12 C22 1.281 . S
O13 Co0 2.315 . S
O13 C22 1.252 . S
O14 Co7 2.122 . S
O14 C23 1.272 . S
O15 Co1 2.113 . S
O15 C23 1.245 1_556 S
C16 O24 1.259 . S
C16 O25 1.257 1_556 S
C17 O26 1.268 . S
C17 O27 1.253 . S
C18 O28 1.281 . S
C18 O29 1.252 . S
C19 O30 1.272 . S
C19 O31 1.245 1_556 S
C20 O8 1.259 . S
C20 O9 1.257 1_554 S
C21 O10 1.253 . S
C21 O11 1.268 . S
C22 O12 1.281 . S
C22 O13 1.252 . S
C23 O14 1.272 . S
C23 O15 1.245 1_554 S
O24 Co0 2.053 . S
O24 C16 1.259 . S
O25 Co2 2.047 . S
O25 C16 1.257 1_554 S
O26 Co1 2.063 . S
O26 C17 1.268 . S
O27 Co0 2.094 . S
O27 C17 1.253 . S
O28 Co7 2.115 . S
O28 C18 1.281 . S
O29 Co7 2.315 . S
O29 C18 1.252 . S
O30 Co0 2.122 . S
O30 C19 1.272 . S
O31 Co2 2.113 . S
O31 C19 1.245 1_554 S
Co32 H35 2.400 . S
Co32 O36 2.009 . S
Co32 O44 2.115 . S
Co32 O45 2.315 . S
Co32 O56 2.053 . S
Co32 O59 2.094 . S
Co32 O62 2.122 . S
Co33 O36 2.126 . S
Co33 H37 2.388 1_556 S
Co33 O38 2.053 1_556 S
Co33 O41 2.047 . S
Co33 O47 2.113 . S
Co33 O58 2.063 . S
Co34 H35 2.388 1_554 S
Co34 O36 2.053 1_554 S
Co34 O38 2.126 . S
Co34 O43 2.063 . S
Co34 O57 2.047 . S
Co34 O63 2.113 . S
H35 Co32 2.400 . S
H35 Co34 2.388 1_556 S
H35 O36 0.760 . S
O36 Co32 2.009 . S
O36 Co33 2.126 . S
O36 Co34 2.053 1_556 S
O36 H35 0.760 . S
H37 Co33 2.388 1_554 S
H37 O38 0.760 . S
H37 Co39 2.400 . S
O38 Co33 2.053 1_554 S
O38 Co34 2.126 . S
O38 H37 0.760 . S
O38 Co39 2.009 . S
Co39 H37 2.400 . S
Co39 O38 2.009 . S
Co39 O40 2.053 . S
Co39 O42 2.094 . S
Co39 O46 2.122 . S
Co39 O60 2.115 . S
Co39 O61 2.315 . S
O40 Co39 2.053 . S
O40 C52 1.259 . S
O41 Co33 2.047 . S
O41 C52 1.257 1_556 S
O42 Co39 2.094 . S
O42 C53 1.253 . S
O43 Co34 2.063 . S
O43 C53 1.268 . S
O44 Co32 2.115 . S
O44 C54 1.281 . S
O45 Co32 2.315 . S
O45 C54 1.252 . S
O46 Co39 2.122 . S
O46 C55 1.272 . S
O47 Co33 2.113 . S
O47 C55 1.245 1_556 S
C48 O56 1.259 . S
C48 O57 1.257 1_556 S
C49 O58 1.268 . S
C49 O59 1.253 . S
C50 O60 1.281 . S
C50 O61 1.252 . S
C51 O62 1.272 . S
C51 O63 1.245 1_556 S
C52 O40 1.259 . S
C52 O41 1.257 1_554 S
C53 O42 1.253 . S
C53 O43 1.268 . S
C54 O44 1.281 . S
C54 O45 1.252 . S
C55 O46 1.272 . S
C55 O47 1.245 1_554 S
O56 Co32 2.053 . S
O56 C48 1.259 . S
O57 Co34 2.047 . S
O57 C48 1.257 1_554 S
O58 Co33 2.063 . S
O58 C49 1.268 . S
O59 Co32 2.094 . S
O59 C49 1.253 . S
O60 Co39 2.115 . S
O60 C50 1.281 . S
O61 Co39 2.315 . S
O61 C50 1.252 . S
O62 Co32 2.122 . S
O62 C51 1.272 . S
O63 Co34 2.113 . S
O63 C51 1.245 1_554 S
Co64 H67 2.400 . S
Co64 O68 2.009 . S
Co64 O76 2.115 . S
Co64 O77 2.315 . S
Co64 O88 2.053 . S
Co64 O91 2.094 . S
Co64 O94 2.122 . S
Co65 O68 2.126 . S
Co65 H69 2.388 . S
Co65 O70 2.053 . S
Co65 O73 2.047 . S
Co65 O79 2.113 . S
Co65 O90 2.063 . S
Co66 H67 2.388 . S
Co66 O68 2.053 . S
Co66 O70 2.126 . S
Co66 O75 2.063 . S
Co66 O89 2.047 . S
Co66 O95 2.113 . S
H67 Co64 2.400 . S
H67 Co66 2.388 . S
H67 O68 0.760 . S
O68 Co64 2.009 . S
O68 Co65 2.126 . S
O68 Co66 2.053 . S
O68 H67 0.760 . S
H69 Co65 2.388 . S
H69 O70 0.760 . S
H69 Co71 2.400 . S
O70 Co65 2.053 . S
O70 Co66 2.126 . S
O70 H69 0.760 . S
O70 Co71 2.009 . S
Co71 H69 2.400 . S
Co71 O70 2.009 . S
Co71 O72 2.053 . S
Co71 O74 2.094 . S
Co71 O78 2.122 . S
Co71 O92 2.115 . S
Co71 O93 2.315 . S
O72 Co71 2.053 . S
O72 C84 1.259 . S
O73 Co65 2.047 . S
O73 C84 1.257 . S
O74 Co71 2.094 . S
O74 C85 1.253 . S
O75 Co66 2.063 . S
O75 C85 1.268 . S
O76 Co64 2.115 . S
O76 C86 1.281 . S
O77 Co64 2.315 . S
O77 C86 1.252 . S
O78 Co71 2.122 . S
O78 C87 1.272 . S
O79 Co65 2.113 . S
O79 C87 1.245 . S
C80 O88 1.259 . S
C80 O89 1.257 . S
C81 O90 1.268 . S
C81 O91 1.253 . S
C82 O92 1.281 . S
C82 O93 1.252 . S
C83 O94 1.272 . S
C83 O95 1.245 . S
C84 O72 1.259 . S
C84 O73 1.257 . S
C85 O74 1.253 . S
C85 O75 1.268 . S
C86 O76 1.281 . S
C86 O77 1.252 . S
C87 O78 1.272 . S
C87 O79 1.245 . S
O88 Co64 2.053 . S
O88 C80 1.259 . S
O89 Co66 2.047 . S
O89 C80 1.257 . S
O90 Co65 2.063 . S
O90 C81 1.268 . S
O91 Co64 2.094 . S
O91 C81 1.253 . S
O92 Co71 2.115 . S
O92 C82 1.281 . S
O93 Co71 2.315 . S
O93 C82 1.252 . S
O94 Co64 2.122 . S
O94 C83 1.272 . S
O95 Co66 2.113 . S
O95 C83 1.245 . S
Co96 H99 2.400 . S
Co96 O100 2.009 . S
Co96 O108 2.115 . S
Co96 O109 2.315 . S
Co96 O120 2.053 . S
Co96 O123 2.094 . S
Co96 O126 2.122 . S
Co97 O100 2.126 . S
Co97 H101 2.388 . S
Co97 O102 2.053 . S
Co97 O105 2.047 . S
Co97 O111 2.113 . S
Co97 O122 2.063 . S
Co98 H99 2.388 . S
Co98 O100 2.053 . S
Co98 O102 2.126 . S
Co98 O107 2.063 . S
Co98 O121 2.047 . S
Co98 O127 2.113 . S
H99 Co96 2.400 . S
H99 Co98 2.388 . S
H99 O100 0.760 . S
O100 Co96 2.009 . S
O100 Co97 2.126 . S
O100 Co98 2.053 . S
O100 H99 0.760 . S
H101 Co97 2.388 . S
H101 O102 0.760 . S
H101 Co103 2.400 . S
O102 Co97 2.053 . S
O102 Co98 2.126 . S
O102 H101 0.760 . S
O102 Co103 2.009 . S
Co103 H101 2.400 . S
Co103 O102 2.009 . S
Co103 O104 2.053 . S
Co103 O106 2.094 . S
Co103 O110 2.122 . S
Co103 O124 2.115 . S
Co103 O125 2.315 . S
O104 Co103 2.053 . S
O104 C116 1.259 . S
O105 Co97 2.047 . S
O105 C116 1.257 . S
O106 Co103 2.094 . S
O106 C117 1.253 . S
O107 Co98 2.063 . S
O107 C117 1.268 . S
O108 Co96 2.115 . S
O108 C118 1.281 . S
O109 Co96 2.315 . S
O109 C118 1.252 . S
O110 Co103 2.122 . S
O110 C119 1.272 . S
O111 Co97 2.113 . S
O111 C119 1.245 . S
C112 O120 1.259 . S
C112 O121 1.257 . S
C113 O122 1.268 . S
C113 O123 1.253 . S
C114 O124 1.281 . S
C114 O125 1.252 . S
C115 O126 1.272 . S
C115 O127 1.245 . S
C116 O104 1.259 . S
C116 O105 1.257 . S
C117 O106 1.253 . S
C117 O107 1.268 . S
C118 O108 1.281 . S
C118 O109 1.252 . S
C119 O110 1.272 . S
C119 O111 1.245 . S
O120 Co96 2.053 . S
O120 C112 1.259 . S
O121 Co98 2.047 . S
O121 C112 1.257 . S
O122 Co97 2.063 . S
O122 C113 1.268 . S
O123 Co96 2.094 . S
O123 C113 1.253 . S
O124 Co103 2.115 . S
O124 C114 1.281 . S
O125 Co103 2.315 . S
O125 C114 1.252 . S
O126 Co96 2.122 . S
O126 C115 1.272 . S
O127 Co98 2.113 . S
O127 C115 1.245 . S
C128 C129 1.391 . S
C128 C130 1.394 . S
C128 H144 0.931 . S
C129 C128 1.391 . S
C129 C133 1.376 . S
C130 C128 1.394 . S
C130 C131 1.369 . S
C130 C134 1.531 1_554 S
C131 C130 1.369 . S
C131 C132 1.410 . S
C131 C139 1.503 . S
C132 C131 1.410 . S
C132 C133 1.392 . S
C132 C135 1.511 . S
C133 C129 1.376 . S
C133 C132 1.392 . S
C133 H145 0.929 . S
C134 C130 1.531 1_556 S
C134 H146 0.960 1_556 S
C134 H147 0.962 . S
C134 H148 0.960 1_556 S
C135 C132 1.511 . S
C135 H149 0.961 . S
C135 H150 0.961 . S
C135 H151 0.961 . S
C136 C137 1.370 . S
C136 C138 1.363 . S
C136 H152 0.931 . S
C137 C136 1.370 . S
C137 C141 1.408 1_556 S
C138 C136 1.363 . S
C138 C139 1.370 1_556 S
C138 C142 1.524 . S
C139 C131 1.503 . S
C139 C138 1.370 1_554 S
C139 C140 1.403 . S
C140 C139 1.403 . S
C140 C141 1.404 . S
C140 C143 1.539 . S
C141 C137 1.408 1_554 S
C141 C140 1.404 . S
C141 H153 0.930 . S
C142 C138 1.524 . S
C142 H154 0.956 . S
C142 H155 0.961 . S
C142 H156 0.961 . S
C143 C140 1.539 . S
C143 H157 0.958 . S
C143 H158 0.961 . S
C143 H159 0.960 . S
H144 C128 0.931 . S
H145 C133 0.929 . S
H146 C134 0.960 1_554 S
H147 C134 0.962 . S
H148 C134 0.960 1_554 S
H149 C135 0.961 . S
H150 C135 0.961 . S
H151 C135 0.961 . S
H152 C136 0.931 . S
H153 C141 0.930 . S
H154 C142 0.956 . S
H155 C142 0.961 . S
H156 C142 0.961 . S
H157 C143 0.958 . S
H158 C143 0.961 . S
H159 C143 0.960 . S
C160 C161 1.391 . S
C160 C162 1.394 . S
C160 H176 0.931 . S
C161 C160 1.391 . S
C161 C165 1.376 . S
C162 C160 1.394 . S
C162 C163 1.369 . S
C162 C166 1.531 1_554 S
C163 C162 1.369 . S
C163 C164 1.410 . S
C163 C171 1.503 . S
C164 C163 1.410 . S
C164 C165 1.392 . S
C164 C167 1.511 . S
C165 C161 1.376 . S
C165 C164 1.392 . S
C165 H177 0.929 . S
C166 C162 1.531 1_556 S
C166 H178 0.960 1_556 S
C166 H179 0.962 . S
C166 H180 0.960 1_556 S
C167 C164 1.511 . S
C167 H181 0.961 . S
C167 H182 0.961 . S
C167 H183 0.961 . S
C168 C169 1.370 . S
C168 C170 1.363 . S
C168 H184 0.931 . S
C169 C168 1.370 . S
C169 C173 1.408 1_556 S
C170 C168 1.363 . S
C170 C171 1.370 1_556 S
C170 C174 1.524 . S
C171 C163 1.503 . S
C171 C170 1.370 1_554 S
C171 C172 1.403 . S
C172 C171 1.403 . S
C172 C173 1.404 . S
C172 C175 1.539 . S
C173 C169 1.408 1_554 S
C173 C172 1.404 . S
C173 H185 0.930 . S
C174 C170 1.524 . S
C174 H186 0.956 . S
C174 H187 0.961 . S
C174 H188 0.961 . S
C175 C172 1.539 . S
C175 H189 0.958 . S
C175 H190 0.961 . S
C175 H191 0.960 . S
H176 C160 0.931 . S
H177 C165 0.929 . S
H178 C166 0.960 1_554 S
H179 C166 0.962 . S
H180 C166 0.960 1_554 S
H181 C167 0.961 . S
H182 C167 0.961 . S
H183 C167 0.961 . S
H184 C168 0.931 . S
H185 C173 0.930 . S
H186 C174 0.956 . S
H187 C174 0.961 . S
H188 C174 0.961 . S
H189 C175 0.958 . S
H190 C175 0.961 . S
H191 C175 0.960 . S
C192 C193 1.391 . S
C192 C194 1.394 . S
C192 H208 0.931 . S
C193 C192 1.391 . S
C193 C197 1.376 . S
C194 C192 1.394 . S
C194 C195 1.369 . S
C194 C198 1.531 . S
C195 C194 1.369 . S
C195 C196 1.410 . S
C195 C203 1.503 . S
C196 C195 1.410 . S
C196 C197 1.392 . S
C196 C199 1.511 . S
C197 C193 1.376 . S
C197 C196 1.392 . S
C197 H209 0.929 . S
C198 C194 1.531 . S
C198 H210 0.960 . S
C198 H211 0.962 . S
C198 H212 0.960 . S
C199 C196 1.511 . S
C199 H213 0.961 . S
C199 H214 0.961 . S
C199 H215 0.961 . S
C200 C201 1.370 . S
C200 C202 1.363 . S
C200 H216 0.931 . S
C201 C200 1.370 . S
C201 C205 1.408 . S
C202 C200 1.363 . S
C202 C203 1.370 . S
C202 C206 1.524 . S
C203 C195 1.503 . S
C203 C202 1.370 . S
C203 C204 1.403 . S
C204 C203 1.403 . S
C204 C205 1.404 . S
C204 C207 1.539 . S
C205 C201 1.408 . S
C205 C204 1.404 . S
C205 H217 0.930 . S
C206 C202 1.524 . S
C206 H218 0.956 . S
C206 H219 0.961 . S
C206 H220 0.961 . S
C207 C204 1.539 . S
C207 H221 0.958 . S
C207 H222 0.961 . S
C207 H223 0.960 . S
H208 C192 0.931 . S
H209 C197 0.929 . S
H210 C198 0.960 . S
H211 C198 0.962 . S
H212 C198 0.960 . S
H213 C199 0.961 . S
H214 C199 0.961 . S
H215 C199 0.961 . S
H216 C200 0.931 . S
H217 C205 0.930 . S
H218 C206 0.956 . S
H219 C206 0.961 . S
H220 C206 0.961 . S
H221 C207 0.958 . S
H222 C207 0.961 . S
H223 C207 0.960 . S
C224 C225 1.391 . S
C224 C226 1.394 . S
C224 H240 0.931 . S
C225 C224 1.391 . S
C225 C229 1.376 . S
C226 C224 1.394 . S
C226 C227 1.369 . S
C226 C230 1.531 . S
C227 C226 1.369 . S
C227 C228 1.410 . S
C227 C235 1.503 . S
C228 C227 1.410 . S
C228 C229 1.392 . S
C228 C231 1.511 . S
C229 C225 1.376 . S
C229 C228 1.392 . S
C229 H241 0.929 . S
C230 C226 1.531 . S
C230 H242 0.960 . S
C230 H243 0.962 . S
C230 H244 0.960 . S
C231 C228 1.511 . S
C231 H245 0.961 . S
C231 H246 0.961 . S
C231 H247 0.961 . S
C232 C233 1.370 . S
C232 C234 1.363 . S
C232 H248 0.931 . S
C233 C232 1.370 . S
C233 C237 1.408 . S
C234 C232 1.363 . S
C234 C235 1.370 . S
C234 C238 1.524 . S
C235 C227 1.503 . S
C235 C234 1.370 . S
C235 C236 1.403 . S
C236 C235 1.403 . S
C236 C237 1.404 . S
C236 C239 1.539 . S
C237 C233 1.408 . S
C237 C236 1.404 . S
C237 H249 0.930 . S
C238 C234 1.524 . S
C238 H250 0.956 . S
C238 H251 0.961 . S
C238 H252 0.961 . S
C239 C236 1.539 . S
C239 H253 0.958 . S
C239 H254 0.961 . S
C239 H255 0.960 . S
H240 C224 0.931 . S
H241 C229 0.929 . S
H242 C230 0.960 . S
H243 C230 0.962 . S
H244 C230 0.960 . S
H245 C231 0.961 . S
H246 C231 0.961 . S
H247 C231 0.961 . S
H248 C232 0.931 . S
H249 C237 0.930 . S
H250 C238 0.956 . S
H251 C238 0.961 . S
H252 C238 0.961 . S
H253 C239 0.958 . S
H254 C239 0.961 . S
H255 C239 0.960 . S
C256 C257 1.391 . S
C256 C258 1.394 . S
C256 H272 0.931 . S
C257 C256 1.391 . S
C257 C261 1.376 . S
C258 C256 1.394 . S
C258 C259 1.369 . S
C258 C262 1.531 . S
C259 C258 1.369 . S
C259 C260 1.410 . S
C259 C267 1.503 . S
C260 C259 1.410 . S
C260 C261 1.392 . S
C260 C263 1.511 . S
C261 C257 1.376 . S
C261 C260 1.392 . S
C261 H273 0.929 . S
C262 C258 1.531 . S
C262 H274 0.960 . S
C262 H275 0.962 1_556 S
C262 H276 0.960 . S
C263 C260 1.511 . S
C263 H277 0.955 1_556 S
C263 H278 0.961 . S
C263 H279 0.961 . S
C264 C265 1.370 1_554 S
C264 C266 1.363 . S
C264 H280 0.931 . S
C265 C264 1.370 1_556 S
C265 C269 1.408 . S
C266 C264 1.363 . S
C266 C267 1.370 1_554 S
C266 C270 1.524 . S
C267 C259 1.503 . S
C267 C266 1.370 1_556 S
C267 C268 1.403 . S
C268 C267 1.403 . S
C268 C269 1.404 . S
C268 C271 1.539 . S
C269 C265 1.408 . S
C269 C268 1.404 . S
C269 H281 0.930 . S
C270 C266 1.524 . S
C270 H282 0.956 . S
C270 H283 0.961 . S
C270 H284 0.961 . S
C271 C268 1.539 . S
C271 H285 0.958 . S
C271 H286 0.961 . S
C271 H287 0.960 . S
H272 C256 0.931 . S
H273 C261 0.929 . S
H274 C262 0.960 . S
H275 C262 0.962 1_554 S
H276 C262 0.960 . S
H277 C263 0.955 1_554 S
H278 C263 0.961 . S
H279 C263 0.961 . S
H280 C264 0.931 . S
H281 C269 0.930 . S
H282 C270 0.956 . S
H283 C270 0.961 . S
H284 C270 0.961 . S
H285 C271 0.958 . S
H286 C271 0.961 . S
H287 C271 0.960 . S
C288 C289 1.391 . S
C288 C290 1.394 . S
C288 H304 0.931 . S
C289 C288 1.391 . S
C289 C293 1.376 . S
C290 C288 1.394 . S
C290 C291 1.369 . S
C290 C294 1.531 . S
C291 C290 1.369 . S
C291 C292 1.410 . S
C291 C299 1.503 . S
C292 C291 1.410 . S
C292 C293 1.392 . S
C292 C295 1.511 . S
C293 C289 1.376 . S
C293 C292 1.392 . S
C293 H305 0.929 . S
C294 C290 1.531 . S
C294 H306 0.960 . S
C294 H307 0.962 . S
C294 H308 0.960 . S
C295 C292 1.511 . S
C295 H309 0.961 . S
C295 H310 0.961 . S
C295 H311 0.961 . S
C296 C297 1.370 . S
C296 C298 1.363 . S
C296 H312 0.931 . S
C297 C296 1.370 . S
C297 C301 1.408 . S
C298 C296 1.363 . S
C298 C299 1.370 . S
C298 C302 1.524 . S
C299 C291 1.503 . S
C299 C298 1.370 . S
C299 C300 1.403 . S
C300 C299 1.403 . S
C300 C301 1.404 . S
C300 C303 1.539 . S
C301 C297 1.408 . S
C301 C300 1.404 . S
C301 H313 0.930 . S
C302 C298 1.524 . S
C302 H314 0.956 . S
C302 H315 0.961 . S
C302 H316 0.961 . S
C303 C300 1.539 . S
C303 H317 0.958 . S
C303 H318 0.961 . S
C303 H319 0.960 . S
H304 C288 0.931 . S
H305 C293 0.929 . S
H306 C294 0.960 . S
H307 C294 0.962 . S
H308 C294 0.960 . S
H309 C295 0.961 . S
H310 C295 0.961 . S
H311 C295 0.961 . S
H312 C296 0.931 . S
H313 C301 0.930 . S
H314 C302 0.956 . S
H315 C302 0.961 . S
H316 C302 0.961 . S
H317 C303 0.958 . S
H318 C303 0.961 . S
H319 C303 0.960 . S
C320 C321 1.397 . S
C320 C322 1.394 . S
C320 H336 0.931 . S
C321 C320 1.397 . S
C321 C325 1.372 1_556 S
C322 C320 1.394 . S
C322 C323 1.369 . S
C322 C326 1.531 1_455 S
C323 C322 1.369 . S
C323 C324 1.410 1_556 S
C323 C331 1.503 1_445 S
C324 C323 1.410 1_554 S
C324 C325 1.392 . S
C324 C327 1.511 1_545 S
C325 C321 1.372 1_554 S
C325 C324 1.392 . S
C325 H337 0.929 . S
C326 C322 1.531 1_655 S
C326 H338 0.960 . S
C326 H339 0.962 . S
C326 H340 0.960 . S
C327 C324 1.511 1_565 S
C327 H341 0.961 . S
C327 H342 0.961 . S
C327 H343 0.961 . S
C328 C329 1.370 1_554 S
C328 C330 1.363 . S
C328 H344 0.931 . S
C329 C328 1.370 1_556 S
C329 C333 1.408 . S
C330 C328 1.363 . S
C330 C331 1.370 1_554 S
C330 C334 1.524 1_565 S
C331 C323 1.503 1_665 S
C331 C330 1.370 1_556 S
C331 C332 1.402 1_655 S
C332 C331 1.402 1_455 S
C332 C333 1.402 1_455 S
C332 C335 1.542 . S
C333 C329 1.408 . S
C333 C332 1.402 1_655 S
C333 H345 0.930 . S
C334 C330 1.524 1_545 S
C334 H346 0.956 . S
C334 H347 0.961 . S
C334 H348 0.961 1_545 S
C335 C332 1.542 . S
C335 H349 0.958 . S
C335 H350 0.961 . S
C335 H351 0.960 . S
H336 C320 0.931 . S
H337 C325 0.929 . S
H338 C326 0.960 . S
H339 C326 0.962 . S
H340 C326 0.960 . S
H341 C327 0.961 . S
H342 C327 0.961 . S
H343 C327 0.961 . S
H344 C328 0.931 . S
H345 C333 0.930 . S
H346 C334 0.956 . S
H347 C334 0.961 . S
H348 C334 0.961 1_565 S
H349 C335 0.958 . S
H350 C335 0.961 . S
H351 C335 0.960 . S
C352 C353 1.391 . S
C352 C354 1.394 . S
C352 H368 0.931 . S
C353 C352 1.391 . S
C353 C357 1.376 . S
C354 C352 1.394 . S
C354 C355 1.369 . S
C354 C358 1.518 1_545 S
C355 C354 1.369 . S
C355 C356 1.410 1_655 S
C355 C363 1.503 1_645 S
C356 C355 1.410 1_455 S
C356 C357 1.392 1_455 S
C356 C359 1.511 . S
C357 C353 1.376 . S
C357 C356 1.392 1_655 S
C357 H369 0.929 . S
C358 C354 1.518 1_565 S
C358 H370 0.968 . S
C358 H371 0.973 . S
C358 H372 0.954 1_565 S
C359 C356 1.511 . S
C359 H373 0.961 . S
C359 H374 0.961 . S
C359 H375 0.961 . S
C360 C361 1.370 . S
C360 C362 1.363 . S
C360 H376 0.931 . S
C361 C360 1.370 . S
C361 C365 1.408 . S
C362 C360 1.363 . S
C362 C363 1.370 . S
C362 C366 1.524 1_455 S
C363 C355 1.503 1_465 S
C363 C362 1.370 . S
C363 C364 1.403 . S
C364 C363 1.403 . S
C364 C365 1.404 . S
C364 C367 1.539 1_565 S
C365 C361 1.408 . S
C365 C364 1.404 . S
C365 H377 0.930 . S
C366 C362 1.524 1_655 S
C366 H378 0.956 . S
C366 H379 0.961 . S
C366 H380 0.961 . S
C367 C364 1.539 1_545 S
C367 H381 0.958 . S
C367 H382 0.961 . S
C367 H383 0.960 . S
H368 C352 0.931 . S
H369 C357 0.929 . S
H370 C358 0.968 . S
H371 C358 0.973 . S
H372 C358 0.954 1_545 S
H373 C359 0.961 . S
H374 C359 0.961 . S
H375 C359 0.961 . S
H376 C360 0.931 . S
H377 C365 0.930 . S
H378 C366 0.956 . S
H379 C366 0.961 . S
H380 C366 0.961 . S
H381 C367 0.958 . S
H382 C367 0.961 . S
H383 C367 0.960 . S
C384 C385 1.391 . S
C384 C386 1.394 . S
C384 H400 0.931 . S
C385 C384 1.391 . S
C385 C389 1.376 . S
C386 C384 1.394 . S
C386 C387 1.369 . S
C386 C390 1.531 . S
C387 C386 1.369 . S
C387 C388 1.410 . S
C387 C395 1.503 . S
C388 C387 1.410 . S
C388 C389 1.392 . S
C388 C391 1.511 . S
C389 C385 1.376 . S
C389 C388 1.392 . S
C389 H401 0.929 . S
C390 C386 1.531 . S
C390 H402 0.960 . S
C390 H403 0.962 . S
C390 H404 0.960 . S
C391 C388 1.511 . S
C391 H405 0.961 . S
C391 H406 0.961 . S
C391 H407 0.961 . S
C392 C393 1.370 . S
C392 C394 1.363 . S
C392 H408 0.931 . S
C393 C392 1.370 . S
C393 C397 1.408 . S
C394 C392 1.363 . S
C394 C395 1.370 . S
C394 C398 1.524 . S
C395 C387 1.503 . S
C395 C394 1.370 . S
C395 C396 1.403 . S
C396 C395 1.403 . S
C396 C397 1.404 . S
C396 C399 1.539 . S
C397 C393 1.408 . S
C397 C396 1.404 . S
C397 H409 0.930 . S
C398 C394 1.524 . S
C398 H410 0.956 . S
C398 H411 0.961 . S
C398 H412 0.961 . S
C399 C396 1.539 . S
C399 H413 0.958 . S
C399 H414 0.961 . S
C399 H415 0.960 . S
H400 C384 0.931 . S
H401 C389 0.929 . S
H402 C390 0.960 . S
H403 C390 0.962 . S
H404 C390 0.960 . S
H405 C391 0.961 . S
H406 C391 0.961 . S
H407 C391 0.961 . S
H408 C392 0.931 . S
H409 C397 0.930 . S
H410 C398 0.956 . S
H411 C398 0.961 . S
H412 C398 0.961 . S
H413 C399 0.958 . S
H414 C399 0.961 . S
H415 C399 0.960 . S
C416 C417 1.391 . S
C416 C418 1.394 . S
C416 H432 0.931 . S
C417 C416 1.391 . S
C417 C421 1.376 . S
C418 C416 1.394 . S
C418 C419 1.369 . S
C418 C422 1.531 . S
C419 C418 1.369 . S
C419 C420 1.410 . S
C419 C427 1.503 . S
C420 C419 1.410 . S
C420 C421 1.392 . S
C420 C423 1.511 . S
C421 C417 1.376 . S
C421 C420 1.392 . S
C421 H433 0.929 . S
C422 C418 1.531 . S
C422 H434 0.960 . S
C422 H435 0.962 . S
C422 H436 0.960 . S
C423 C420 1.511 . S
C423 H437 0.961 . S
C423 H438 0.961 . S
C423 H439 0.961 . S
C424 C425 1.370 . S
C424 C426 1.363 . S
C424 H440 0.931 . S
C425 C424 1.370 . S
C425 C429 1.408 . S
C426 C424 1.363 . S
C426 C427 1.370 . S
C426 C430 1.524 . S
C427 C419 1.503 . S
C427 C426 1.370 . S
C427 C428 1.403 . S
C428 C427 1.403 . S
C428 C429 1.404 . S
C428 C431 1.539 . S
C429 C425 1.408 . S
C429 C428 1.404 . S
C429 H441 0.930 . S
C430 C426 1.524 . S
C430 H442 0.956 . S
C430 H443 0.961 . S
C430 H444 0.961 . S
C431 C428 1.539 . S
C431 H445 0.958 . S
C431 H446 0.961 . S
C431 H447 0.960 . S
H432 C416 0.931 . S
H433 C421 0.929 . S
H434 C422 0.960 . S
H435 C422 0.962 . S
H436 C422 0.960 . S
H437 C423 0.961 . S
H438 C423 0.961 . S
H439 C423 0.961 . S
H440 C424 0.931 . S
H441 C429 0.930 . S
H442 C430 0.956 . S
H443 C430 0.961 . S
H444 C430 0.961 . S
H445 C431 0.958 . S
H446 C431 0.961 . S
H447 C431 0.960 . S
C448 C449 1.391 . S
C448 C450 1.394 . S
C448 H464 0.931 . S
C449 C448 1.391 . S
C449 C453 1.376 . S
C450 C448 1.394 . S
C450 C451 1.369 . S
C450 C454 1.531 . S
C451 C450 1.369 . S
C451 C452 1.410 . S
C451 C459 1.503 . S
C452 C451 1.410 . S
C452 C453 1.392 . S
C452 C455 1.511 . S
C453 C449 1.376 . S
C453 C452 1.392 . S
C453 H465 0.929 . S
C454 C450 1.531 . S
C454 H466 0.960 . S
C454 H467 0.962 . S
C454 H468 0.960 . S
C455 C452 1.511 . S
C455 H469 0.961 . S
C455 H470 0.961 . S
C455 H471 0.961 . S
C456 C457 1.370 . S
C456 C458 1.363 . S
C456 H472 0.931 . S
C457 C456 1.370 . S
C457 C461 1.408 . S
C458 C456 1.363 . S
C458 C459 1.370 . S
C458 C462 1.524 . S
C459 C451 1.503 . S
C459 C458 1.370 . S
C459 C460 1.403 . S
C460 C459 1.403 . S
C460 C461 1.404 . S
C460 C463 1.539 . S
C461 C457 1.408 . S
C461 C460 1.404 . S
C461 H473 0.930 . S
C462 C458 1.524 . S
C462 H474 0.956 . S
C462 H475 0.961 . S
C462 H476 0.961 . S
C463 C460 1.539 . S
C463 H477 0.958 . S
C463 H478 0.961 . S
C463 H479 0.960 . S
H464 C448 0.931 . S
H465 C453 0.929 . S
H466 C454 0.960 . S
H467 C454 0.962 . S
H468 C454 0.960 . S
H469 C455 0.961 . S
H470 C455 0.961 . S
H471 C455 0.961 . S
H472 C456 0.931 . S
H473 C461 0.930 . S
H474 C462 0.956 . S
H475 C462 0.961 . S
H476 C462 0.961 . S
H477 C463 0.958 . S
H478 C463 0.961 . S
H479 C463 0.960 . S
C480 C481 1.391 . S
C480 C482 1.394 . S
C480 H496 0.931 . S
C481 C480 1.391 . S
C481 C485 1.376 . S
C482 C480 1.394 . S
C482 C483 1.369 . S
C482 C486 1.531 . S
C483 C482 1.369 . S
C483 C484 1.410 . S
C483 C491 1.503 . S
C484 C483 1.410 . S
C484 C485 1.392 . S
C484 C487 1.511 . S
C485 C481 1.376 . S
C485 C484 1.392 . S
C485 H497 0.929 . S
C486 C482 1.531 . S
C486 H498 0.960 . S
C486 H499 0.962 . S
C486 H500 0.960 . S
C487 C484 1.511 . S
C487 H501 0.961 . S
C487 H502 0.961 . S
C487 H503 0.961 . S
C488 C489 1.370 . S
C488 C490 1.363 . S
C488 H504 0.931 . S
C489 C488 1.370 . S
C489 C493 1.408 . S
C490 C488 1.363 . S
C490 C491 1.370 . S
C490 C494 1.524 . S
C491 C483 1.503 . S
C491 C490 1.370 . S
C491 C492 1.403 . S
C492 C491 1.403 . S
C492 C493 1.404 . S
C492 C495 1.539 . S
C493 C489 1.408 . S
C493 C492 1.404 . S
C493 H505 0.930 . S
C494 C490 1.524 . S
C494 H506 0.956 . S
C494 H507 0.961 . S
C494 H508 0.961 . S
C495 C492 1.539 . S
C495 H509 0.958 . S
C495 H510 0.961 . S
C495 H511 0.960 . S
H496 C480 0.931 . S
H497 C485 0.929 . S
H498 C486 0.960 . S
H499 C486 0.962 . S
H500 C486 0.960 . S
H501 C487 0.961 . S
H502 C487 0.961 . S
H503 C487 0.961 . S
H504 C488 0.931 . S
H505 C493 0.930 . S
H506 C494 0.956 . S
H507 C494 0.961 . S
H508 C494 0.961 . S
H509 C495 0.958 . S
H510 C495 0.961 . S
H511 C495 0.960 . S
C512 C513 1.391 . S
C512 C514 1.394 . S
C512 H528 0.931 . S
C513 C512 1.391 . S
C513 C517 1.376 . S
C514 C512 1.394 . S
C514 C515 1.369 . S
C514 C518 1.531 . S
C515 C514 1.369 . S
C515 C516 1.410 . S
C515 C523 1.503 . S
C516 C515 1.410 . S
C516 C517 1.392 . S
C516 C519 1.511 1_455 S
C517 C513 1.376 . S
C517 C516 1.392 . S
C517 H529 0.929 . S
C518 C514 1.531 . S
C518 H530 0.960 . S
C518 H531 0.962 . S
C518 H532 0.960 . S
C519 C516 1.511 1_655 S
C519 H533 0.961 . S
C519 H534 0.961 . S
C519 H535 0.961 . S
C520 C521 1.370 . S
C520 C522 1.363 1_655 S
C520 H536 0.931 1_655 S
C521 C520 1.370 . S
C521 C525 1.408 . S
C522 C520 1.363 1_455 S
C522 C523 1.370 . S
C522 C526 1.524 . S
C523 C515 1.503 . S
C523 C522 1.370 . S
C523 C524 1.403 1_455 S
C524 C523 1.403 1_655 S
C524 C525 1.404 . S
C524 C527 1.539 . S
C525 C521 1.408 . S
C525 C524 1.404 . S
C525 H537 0.930 . S
C526 C522 1.524 . S
C526 H538 0.956 . S
C526 H539 0.961 . S
C526 H540 0.961 . S
C527 C524 1.539 . S
C527 H541 0.958 . S
C527 H542 0.961 . S
C527 H543 0.960 . S
H528 C512 0.931 . S
H529 C517 0.929 . S
H530 C518 0.960 . S
H531 C518 0.962 . S
H532 C518 0.960 . S
H533 C519 0.961 . S
H534 C519 0.961 . S
H535 C519 0.961 . S
H536 C520 0.931 1_455 S
H537 C525 0.930 . S
H538 C526 0.956 . S
H539 C526 0.961 . S
H540 C526 0.961 . S
H541 C527 0.958 . S
H542 C527 0.961 . S
H543 C527 0.960 . S
C544 C545 1.391 . S
C544 C546 1.394 . S
C544 H560 0.931 . S
C545 C544 1.391 . S
C545 C549 1.376 1_655 S
C546 C544 1.394 . S
C546 C547 1.369 1_655 S
C546 C550 1.531 . S
C547 C546 1.369 1_455 S
C547 C548 1.410 . S
C547 C555 1.503 . S
C548 C547 1.410 . S
C548 C549 1.392 . S
C548 C551 1.511 . S
C549 C545 1.376 1_455 S
C549 C548 1.392 . S
C549 H561 0.929 . S
C550 C546 1.531 . S
C550 H562 0.960 . S
C550 H563 0.962 . S
C550 H564 0.960 . S
C551 C548 1.511 . S
C551 H565 0.961 . S
C551 H566 0.961 . S
C551 H567 0.961 . S
C552 C553 1.370 . S
C552 C554 1.363 . S
C552 H568 0.931 . S
C553 C552 1.370 . S
C553 C557 1.408 . S
C554 C552 1.363 . S
C554 C555 1.370 . S
C554 C558 1.524 . S
C555 C547 1.503 . S
C555 C554 1.370 . S
C555 C556 1.403 . S
C556 C555 1.403 . S
C556 C557 1.404 . S
C556 C559 1.539 . S
C557 C553 1.408 . S
C557 C556 1.404 . S
C557 H569 0.930 . S
C558 C554 1.524 . S
C558 H570 0.956 1_455 S
C558 H571 0.961 . S
C558 H572 0.961 . S
C559 C556 1.539 . S
C559 H573 0.958 . S
C559 H574 0.961 . S
C559 H575 0.960 . S
H560 C544 0.931 . S
H561 C549 0.929 . S
H562 C550 0.960 . S
H563 C550 0.962 . S
H564 C550 0.960 . S
H565 C551 0.961 . S
H566 C551 0.961 . S
H567 C551 0.961 . S
H568 C552 0.931 . S
H569 C557 0.930 . S
H570 C558 0.956 1_655 S
H571 C558 0.961 . S
H572 C558 0.961 . S
H573 C559 0.958 . S
H574 C559 0.961 . S
H575 C559 0.960 . S
C576 C577 1.391 . S
C576 C578 1.394 1_455 S
C576 H592 0.931 . S
C577 C576 1.391 . S
C577 C581 1.376 . S
C578 C576 1.394 1_655 S
C578 C579 1.369 1_655 S
C578 C582 1.531 . S
C579 C578 1.369 1_455 S
C579 C580 1.410 . S
C579 C587 1.503 1_455 S
C580 C579 1.410 . S
C580 C581 1.392 . S
C580 C583 1.511 . S
C581 C577 1.376 . S
C581 C580 1.392 . S
C581 H593 0.929 . S
C582 C578 1.531 . S
C582 H594 0.960 . S
C582 H595 0.962 . S
C582 H596 0.960 . S
C583 C580 1.511 . S
C583 H597 0.961 . S
C583 H598 0.961 . S
C583 H599 0.961 . S
C584 C585 1.370 . S
C584 C586 1.363 . S
C584 H600 0.931 . S
C585 C584 1.370 . S
C585 C589 1.408 . S
C586 C584 1.363 . S
C586 C587 1.370 . S
C586 C590 1.524 . S
C587 C579 1.503 1_655 S
C587 C586 1.370 . S
C587 C588 1.403 . S
C588 C587 1.403 . S
C588 C589 1.404 . S
C588 C591 1.539 1_655 S
C589 C585 1.408 . S
C589 C588 1.404 . S
C589 H601 0.930 . S
C590 C586 1.524 . S
C590 H602 0.956 . S
C590 H603 0.961 . S
C590 H604 0.961 . S
C591 C588 1.539 1_455 S
C591 H605 0.958 . S
C591 H606 0.961 . S
C591 H607 0.960 . S
H592 C576 0.931 . S
H593 C581 0.929 . S
H594 C582 0.960 . S
H595 C582 0.962 . S
H596 C582 0.960 . S
H597 C583 0.961 . S
H598 C583 0.961 . S
H599 C583 0.961 . S
H600 C584 0.931 . S
H601 C589 0.930 . S
H602 C590 0.956 . S
H603 C590 0.961 . S
H604 C590 0.961 . S
H605 C591 0.958 . S
H606 C591 0.961 . S
H607 C591 0.960 . S
C608 C609 1.391 . S
C608 C610 1.394 . S
C608 H624 0.931 . S
C609 C608 1.391 . S
C609 C613 1.376 1_455 S
C610 C608 1.394 . S
C610 C611 1.369 1_455 S
C610 C614 1.531 . S
C611 C610 1.369 1_655 S
C611 C612 1.410 . S
C611 C619 1.503 . S
C612 C611 1.410 . S
C612 C613 1.392 . S
C612 C615 1.511 . S
C613 C609 1.376 1_655 S
C613 C612 1.392 . S
C613 H625 0.929 . S
C614 C610 1.531 . S
C614 H626 0.960 . S
C614 H627 0.962 . S
C614 H628 0.960 . S
C615 C612 1.511 . S
C615 H629 0.961 . S
C615 H630 0.961 . S
C615 H631 0.961 . S
C616 C617 1.370 . S
C616 C618 1.363 . S
C616 H632 0.931 . S
C617 C616 1.370 . S
C617 C621 1.408 . S
C618 C616 1.363 . S
C618 C619 1.370 . S
C618 C622 1.530 . S
C619 C611 1.503 . S
C619 C618 1.370 . S
C619 C620 1.403 . S
C620 C619 1.403 . S
C620 C621 1.404 . S
C620 C623 1.539 . S
C621 C617 1.408 . S
C621 C620 1.404 . S
C621 H633 0.930 . S
C622 C618 1.530 . S
C622 H634 0.946 1_655 S
C622 H635 0.964 . S
C622 H636 0.962 . S
C623 C620 1.539 . S
C623 H637 0.958 . S
C623 H638 0.961 . S
C623 H639 0.960 . S
H624 C608 0.931 . S
H625 C613 0.929 . S
H626 C614 0.960 . S
H627 C614 0.962 . S
H628 C614 0.960 . S
H629 C615 0.961 . S
H630 C615 0.961 . S
H631 C615 0.961 . S
H632 C616 0.931 . S
H633 C621 0.930 . S
H634 C622 0.946 1_455 S
H635 C622 0.964 . S
H636 C622 0.962 . S
H637 C623 0.958 . S
H638 C623 0.961 . S
H639 C623 0.960 . S
C129 C20 0.897 . S
C137 C16 0.889 1_655 S
C161 C52 0.897 1_455 S
C169 C48 0.889 . S
C193 C84 0.892 . S
C201 C80 0.890 1_655 S
C225 C116 0.892 1_455 S
C233 C112 0.890 . S
C257 C51 1.426 . S
C265 C23 1.463 1_556 S
C289 C115 1.421 . S
C297 C87 1.465 . S
C321 C19 1.447 . S
C329 C55 1.453 1_556 S
C353 C119 1.419 . S
C361 C83 1.467 . S
C385 C117 1.707 . S
C393 C18 1.684 . S
C417 C53 1.704 . S
C425 C82 1.691 . S
C449 C81 1.712 . S
C457 C54 1.688 . S
C481 C17 1.710 . S
C489 C118 1.691 . S
C513 C85 1.704 . S
C521 C50 1.691 . S
C545 C114 1.691 . S
C553 C21 1.708 . S
C577 C22 1.701 . S
C585 C113 1.714 . S
C609 C86 1.667 . S
C617 C49 1.718 . S
