# Generated by pormake.
# Topology hbo, (4)-cn, num edge types: 1
# Building blocks:
#     Node 0, Type 0, BuildingBlock: GALJAG_clean_sbu_0, # of connection points: 4
#     Node 1, Type 0, BuildingBlock: GALJAG_clean_sbu_0, # of connection points: 4
#     Node 2, Type 0, BuildingBlock: GALJAG_clean_sbu_0, # of connection points: 4
#     Node 3, Type 0, BuildingBlock: GALJAG_clean_sbu_0, # of connection points: 4
#     Node 4, Type 0, BuildingBlock: GALJAG_clean_sbu_0, # of connection points: 4
#     Node 5, Type 0, BuildingBlock: GALJAG_clean_sbu_0, # of connection points: 4
#     Node 6, Type 0, BuildingBlock: GALJAG_clean_sbu_0, # of connection points: 4
#     Node 7, Type 0, BuildingBlock: GALJAG_clean_sbu_0, # of connection points: 4
#     Node 8, Type 0, BuildingBlock: GALJAG_clean_sbu_0, # of connection points: 4
#     Node 9, Type 0, BuildingBlock: GALJAG_clean_sbu_0, # of connection points: 4
#     Node 10, Type 0, BuildingBlock: GALJAG_clean_sbu_0, # of connection points: 4
#     Node 11, Type 0, BuildingBlock: GALJAG_clean_sbu_0, # of connection points: 4
#     Node 12, Type 0, BuildingBlock: GALJAG_clean_sbu_0, # of connection points: 4
#     Node 13, Type 0, BuildingBlock: GALJAG_clean_sbu_0, # of connection points: 4
#     Node 14, Type 0, BuildingBlock: GALJAG_clean_sbu_0, # of connection points: 4
#     Node 15, Type 0, BuildingBlock: GALJAG_clean_sbu_0, # of connection points: 4
#     Node 16, Type 0, BuildingBlock: GALJAG_clean_sbu_0, # of connection points: 4
#     Node 17, Type 0, BuildingBlock: GALJAG_clean_sbu_0, # of connection points: 4
#     Node 18, Type 0, BuildingBlock: GALJAG_clean_sbu_0, # of connection points: 4
#     Node 19, Type 0, BuildingBlock: GALJAG_clean_sbu_0, # of connection points: 4
#     Node 20, Type 0, BuildingBlock: GALJAG_clean_sbu_0, # of connection points: 4
#     Node 21, Type 0, BuildingBlock: GALJAG_clean_sbu_0, # of connection points: 4
#     Node 22, Type 0, BuildingBlock: GALJAG_clean_sbu_0, # of connection points: 4
#     Node 23, Type 0, BuildingBlock: GALJAG_clean_sbu_0, # of connection points: 4
#     Edge 24, Type (0, 0), BuildingBlock: KIFKEQ_clean_linker_1, # of connection points: 2
#     Edge 25, Type (0, 0), BuildingBlock: KIFKEQ_clean_linker_1, # of connection points: 2
#     Edge 26, Type (0, 0), BuildingBlock: KIFKEQ_clean_linker_1, # of connection points: 2
#     Edge 27, Type (0, 0), BuildingBlock: KIFKEQ_clean_linker_1, # of connection points: 2
#     Edge 28, Type (0, 0), BuildingBlock: KIFKEQ_clean_linker_1, # of connection points: 2
#     Edge 29, Type (0, 0), BuildingBlock: KIFKEQ_clean_linker_1, # of connection points: 2
#     Edge 30, Type (0, 0), BuildingBlock: KIFKEQ_clean_linker_1, # of connection points: 2
#     Edge 31, Type (0, 0), BuildingBlock: KIFKEQ_clean_linker_1, # of connection points: 2
#     Edge 32, Type (0, 0), BuildingBlock: KIFKEQ_clean_linker_1, # of connection points: 2
#     Edge 33, Type (0, 0), BuildingBlock: KIFKEQ_clean_linker_1, # of connection points: 2
#     Edge 34, Type (0, 0), BuildingBlock: KIFKEQ_clean_linker_1, # of connection points: 2
#     Edge 35, Type (0, 0), BuildingBlock: KIFKEQ_clean_linker_1, # of connection points: 2
#     Edge 36, Type (0, 0), BuildingBlock: KIFKEQ_clean_linker_1, # of connection points: 2
#     Edge 37, Type (0, 0), BuildingBlock: KIFKEQ_clean_linker_1, # of connection points: 2
#     Edge 38, Type (0, 0), BuildingBlock: KIFKEQ_clean_linker_1, # of connection points: 2
#     Edge 39, Type (0, 0), BuildingBlock: KIFKEQ_clean_linker_1, # of connection points: 2
#     Edge 40, Type (0, 0), BuildingBlock: KIFKEQ_clean_linker_1, # of connection points: 2
#     Edge 41, Type (0, 0), BuildingBlock: KIFKEQ_clean_linker_1, # of connection points: 2
#     Edge 42, Type (0, 0), BuildingBlock: KIFKEQ_clean_linker_1, # of connection points: 2
#     Edge 43, Type (0, 0), BuildingBlock: KIFKEQ_clean_linker_1, # of connection points: 2
#     Edge 44, Type (0, 0), BuildingBlock: KIFKEQ_clean_linker_1, # of connection points: 2
#     Edge 45, Type (0, 0), BuildingBlock: KIFKEQ_clean_linker_1, # of connection points: 2
#     Edge 46, Type (0, 0), BuildingBlock: KIFKEQ_clean_linker_1, # of connection points: 2
#     Edge 47, Type (0, 0), BuildingBlock: KIFKEQ_clean_linker_1, # of connection points: 2
#     Edge 48, Type (0, 0), BuildingBlock: KIFKEQ_clean_linker_1, # of connection points: 2
#     Edge 49, Type (0, 0), BuildingBlock: KIFKEQ_clean_linker_1, # of connection points: 2
#     Edge 50, Type (0, 0), BuildingBlock: KIFKEQ_clean_linker_1, # of connection points: 2
#     Edge 51, Type (0, 0), BuildingBlock: KIFKEQ_clean_linker_1, # of connection points: 2
#     Edge 52, Type (0, 0), BuildingBlock: KIFKEQ_clean_linker_1, # of connection points: 2
#     Edge 53, Type (0, 0), BuildingBlock: KIFKEQ_clean_linker_1, # of connection points: 2
#     Edge 54, Type (0, 0), BuildingBlock: KIFKEQ_clean_linker_1, # of connection points: 2
#     Edge 55, Type (0, 0), BuildingBlock: KIFKEQ_clean_linker_1, # of connection points: 2
#     Edge 56, Type (0, 0), BuildingBlock: KIFKEQ_clean_linker_1, # of connection points: 2
#     Edge 57, Type (0, 0), BuildingBlock: KIFKEQ_clean_linker_1, # of connection points: 2
#     Edge 58, Type (0, 0), BuildingBlock: KIFKEQ_clean_linker_1, # of connection points: 2
#     Edge 59, Type (0, 0), BuildingBlock: KIFKEQ_clean_linker_1, # of connection points: 2
#     Edge 60, Type (0, 0), BuildingBlock: KIFKEQ_clean_linker_1, # of connection points: 2
#     Edge 61, Type (0, 0), BuildingBlock: KIFKEQ_clean_linker_1, # of connection points: 2
#     Edge 62, Type (0, 0), BuildingBlock: KIFKEQ_clean_linker_1, # of connection points: 2
#     Edge 63, Type (0, 0), BuildingBlock: KIFKEQ_clean_linker_1, # of connection points: 2
#     Edge 64, Type (0, 0), BuildingBlock: KIFKEQ_clean_linker_1, # of connection points: 2
#     Edge 65, Type (0, 0), BuildingBlock: KIFKEQ_clean_linker_1, # of connection points: 2
#     Edge 66, Type (0, 0), BuildingBlock: KIFKEQ_clean_linker_1, # of connection points: 2
#     Edge 67, Type (0, 0), BuildingBlock: KIFKEQ_clean_linker_1, # of connection points: 2
#     Edge 68, Type (0, 0), BuildingBlock: KIFKEQ_clean_linker_1, # of connection points: 2
#     Edge 69, Type (0, 0), BuildingBlock: KIFKEQ_clean_linker_1, # of connection points: 2
#     Edge 70, Type (0, 0), BuildingBlock: KIFKEQ_clean_linker_1, # of connection points: 2
#     Edge 71, Type (0, 0), BuildingBlock: KIFKEQ_clean_linker_1, # of connection points: 2
# Relax obj value: 0.092
# Max RMSD: 0.160
# Mean RMSD: 0.160
data_MOF--net-hbo--node1-GALJAG_clean_sbu_0--edge1-KIFKEQ_clean_linker_1
_symmetry_space_group_name_H-M    P1
_symmetry_Int_Tables_number       1
_symmetry_cell_setting            triclinic
loop_
_symmetry_equiv_pos_as_xyz
'x, y, z'
_cell_length_a     54.545264
_cell_length_b     54.537205
_cell_length_c     54.521746
_cell_angle_alpha  90.008814
_cell_angle_beta   90.036313
_cell_angle_gamma 89.942549
loop_
_atom_site_label
_atom_site_type_symbol
_atom_site_fract_x
_atom_site_fract_y
_atom_site_fract_z
_atom_type_partial_charge
In0 In 0.12754 0.3559 0.23088 0.0
O1 O 0.13276 0.38818 0.25746 0.0
O2 O 0.11451 0.39449 0.22356 0.0
C3 C 0.13954 0.31717 0.25888 0.0
C4 C 0.0805 0.34475 0.22163 0.0
C5 C 0.16689 0.35681 0.20106 0.0
O6 O 0.13627 0.33832 0.26786 0.0
O7 O 0.13678 0.31575 0.23593 0.0
O8 O 0.14622 0.34922 0.19383 0.0
O9 O 0.16737 0.36427 0.22293 0.0
C10 C 0.12216 0.40334 0.24349 0.0
O11 O 0.09503 0.35094 0.20466 0.0
O12 O 0.08986 0.34396 0.24277 0.0
In13 In 0.13825 0.64098 0.74832 0.0
O14 O 0.11763 0.60765 0.73433 0.0
O15 O 0.15621 0.60841 0.72904 0.0
C16 C 0.14579 0.67848 0.7168 0.0
C17 C 0.0942 0.64562 0.76985 0.0
C18 C 0.17394 0.64074 0.78269 0.0
O19 O 0.13887 0.65766 0.70955 0.0
O20 O 0.14945 0.68 0.73953 0.0
O21 O 0.15464 0.65325 0.78486 0.0
O22 O 0.17517 0.62821 0.76334 0.0
C23 C 0.13646 0.59661 0.72668 0.0
O24 O 0.10941 0.62935 0.77622 0.0
O25 O 0.10134 0.65957 0.75284 0.0
In26 In 0.85686 0.63612 0.22064 0.0
O27 O 0.87029 0.60239 0.24184 0.0
O28 O 0.83369 0.60256 0.22864 0.0
C29 C 0.84341 0.6649 0.25866 0.0
C30 C 0.90298 0.64276 0.2043 0.0
C31 C 0.82967 0.64681 0.18064 0.0
O32 O 0.82822 0.65544 0.24407 0.0
O33 O 0.86541 0.65914 0.25466 0.0
O34 O 0.83964 0.66299 0.19376 0.0
O35 O 0.83441 0.62509 0.18697 0.0
C36 C 0.85028 0.59098 0.23979 0.0
O37 O 0.89051 0.65949 0.2142 0.0
O38 O 0.89185 0.62263 0.20174 0.0
In39 In 0.85495 0.35601 0.75355 0.0
O40 O 0.85104 0.39036 0.72958 0.0
O41 O 0.85583 0.39443 0.76822 0.0
C42 C 0.8439 0.319 0.72309 0.0
C43 C 0.90371 0.35135 0.75884 0.0
C44 C 0.81769 0.34928 0.78494 0.0
O45 O 0.84126 0.34117 0.71674 0.0
O46 O 0.85196 0.31584 0.74456 0.0
O47 O 0.83883 0.3406 0.78906 0.0
O48 O 0.81558 0.36114 0.76519 0.0
C49 C 0.85277 0.40472 0.74773 0.0
O50 O 0.88962 0.35259 0.7772 0.0
O51 O 0.89315 0.35241 0.7383 0.0
In52 In 0.24773 0.14121 0.36113 0.0
O53 O 0.22456 0.10722 0.35276 0.0
O54 O 0.2613 0.1023 0.36516 0.0
C55 C 0.2152 0.17589 0.34777 0.0
C56 C 0.25155 0.14475 0.41016 0.0
C57 C 0.28217 0.15282 0.32766 0.0
O58 O 0.21215 0.15354 0.34238 0.0
O59 O 0.23411 0.18034 0.36029 0.0
O60 O 0.28149 0.16259 0.34862 0.0
O61 O 0.26613 0.13664 0.32399 0.0
C62 C 0.24153 0.09241 0.35833 0.0
O63 O 0.27017 0.14349 0.39644 0.0
O64 O 0.23123 0.14431 0.3991 0.0
In65 In 0.36006 0.73396 0.85448 0.0
O66 O 0.39422 0.71149 0.84566 0.0
O67 O 0.39685 0.75048 0.84536 0.0
C68 C 0.32602 0.69844 0.85575 0.0
C69 C 0.36406 0.74492 0.90234 0.0
C70 C 0.34257 0.76015 0.81644 0.0
O71 O 0.34638 0.69565 0.84506 0.0
O72 O 0.32327 0.7188 0.8664 0.0
O73 O 0.34775 0.77021 0.83669 0.0
O74 O 0.34629 0.73738 0.81567 0.0
C75 C 0.4076 0.73015 0.84269 0.0
O76 O 0.3511 0.75777 0.88798 0.0
O77 O 0.37473 0.72693 0.89245 0.0
In78 In 0.75358 0.85099 0.35787 0.0
O79 O 0.73143 0.84616 0.39299 0.0
O80 O 0.77055 0.8464 0.3952 0.0
C81 C 0.7209 0.84666 0.3212 0.0
C82 C 0.7624 0.89934 0.35908 0.0
C83 C 0.78037 0.8112 0.34698 0.0
O84 O 0.71589 0.84037 0.34295 0.0
O85 O 0.74196 0.85574 0.31833 0.0
O86 O 0.78849 0.83264 0.3433 0.0
O87 O 0.7592 0.8102 0.3562 0.0
C88 C 0.75034 0.84477 0.4064 0.0
O89 O 0.77796 0.88448 0.35035 0.0
O90 O 0.7428 0.88972 0.36666 0.0
In91 In 0.62468 0.25559 0.85753 0.0
O92 O 0.63729 0.22761 0.88616 0.0
O93 O 0.61289 0.25592 0.89739 0.0
C94 C 0.63338 0.22698 0.81818 0.0
C95 C 0.57735 0.26864 0.85261 0.0
C96 C 0.66224 0.2878 0.85513 0.0
O97 O 0.63091 0.21819 0.83947 0.0
O98 O 0.63132 0.24996 0.8169 0.0
O99 O 0.64214 0.2913 0.84424 0.0
O100 O 0.66303 0.26858 0.86789 0.0
C101 C 0.62521 0.23728 0.90339 0.0
O102 O 0.5932 0.28302 0.86145 0.0
O103 O 0.58543 0.24789 0.84631 0.0
In104 In 0.23795 0.85915 0.63307 0.0
O105 O 0.263 0.8494 0.6006 0.0
O106 O 0.23493 0.87599 0.5954 0.0
C107 C 0.26319 0.84131 0.67153 0.0
C108 C 0.23201 0.90595 0.64704 0.0
C109 C 0.20279 0.82469 0.63068 0.0
O110 O 0.27397 0.8489 0.65244 0.0
O111 O 0.24015 0.84289 0.671 0.0
O112 O 0.19907 0.84554 0.6401 0.0
O113 O 0.22382 0.82182 0.6215 0.0
C114 C 0.25235 0.86401 0.58608 0.0
O115 O 0.21442 0.89333 0.63879 0.0
O116 O 0.25227 0.89484 0.6484 0.0
In117 In 0.63539 0.74291 0.1333 0.0
O118 O 0.64209 0.77063 0.10238 0.0
O119 O 0.61505 0.74305 0.09716 0.0
C120 C 0.64916 0.76944 0.17255 0.0
C121 C 0.59004 0.72963 0.14687 0.0
C122 C 0.6736 0.71222 0.12621 0.0
O123 O 0.64299 0.77943 0.15255 0.0
O124 O 0.64872 0.74633 0.17244 0.0
O125 O 0.6548 0.7059 0.13814 0.0
O126 O 0.67277 0.73363 0.11763 0.0
C127 C 0.62627 0.76119 0.08834 0.0
O128 O 0.60416 0.71503 0.13565 0.0
O129 O 0.59897 0.7505 0.15129 0.0
In130 In 0.74056 0.1345 0.63731 0.0
O131 O 0.71765 0.13996 0.60232 0.0
O132 O 0.75387 0.12574 0.59923 0.0
C133 C 0.70976 0.14499 0.67425 0.0
C134 C 0.74807 0.08676 0.64629 0.0
C135 C 0.77067 0.1732 0.64252 0.0
O136 O 0.70308 0.1463 0.65205 0.0
O137 O 0.73163 0.13818 0.67752 0.0
O138 O 0.77711 0.15172 0.64833 0.0
O139 O 0.74937 0.17492 0.6337 0.0
C140 C 0.73449 0.13218 0.58841 0.0
O141 O 0.76559 0.10187 0.645 0.0
O142 O 0.72698 0.09581 0.64314 0.0
In143 In 0.35909 0.25906 0.13672 0.0
O144 O 0.39286 0.28394 0.13442 0.0
O145 O 0.39656 0.24847 0.1505 0.0
C146 C 0.32125 0.29112 0.13564 0.0
C147 C 0.36251 0.23976 0.09138 0.0
C148 C 0.34849 0.23306 0.17722 0.0
O149 O 0.34201 0.29698 0.14402 0.0
O150 O 0.32001 0.26962 0.1274 0.0
O151 O 0.34669 0.22406 0.15594 0.0
O152 O 0.35548 0.2551 0.178 0.0
C153 C 0.40676 0.26832 0.14448 0.0
O154 O 0.35094 0.22917 0.10839 0.0
O155 O 0.37228 0.25983 0.0973 0.0
In156 In 0.86733 0.63667 0.75898 0.0
O157 O 0.89817 0.64826 0.78482 0.0
O158 O 0.90728 0.62806 0.75258 0.0
C159 C 0.82702 0.64333 0.7866 0.0
C160 C 0.86319 0.58824 0.75185 0.0
C161 C 0.86539 0.67445 0.72721 0.0
O162 O 0.82617 0.63895 0.76392 0.0
O163 O 0.84836 0.64448 0.79553 0.0
O164 O 0.86263 0.6525 0.7203 0.0
O165 O 0.86931 0.67706 0.74983 0.0
C166 C 0.91468 0.63836 0.77193 0.0
O167 O 0.85969 0.60334 0.73458 0.0
O168 O 0.86847 0.59771 0.7723 0.0
In169 In 0.85021 0.36019 0.23778 0.0
O170 O 0.84772 0.39396 0.26251 0.0
O171 O 0.84802 0.39901 0.2237 0.0
C172 C 0.84492 0.32177 0.26822 0.0
C173 C 0.89833 0.35683 0.22794 0.0
C174 C 0.80963 0.35265 0.21091 0.0
O175 O 0.84102 0.34354 0.27523 0.0
O176 O 0.85148 0.31966 0.24615 0.0
O177 O 0.83085 0.34864 0.2024 0.0
O178 O 0.80914 0.36058 0.23265 0.0
C179 C 0.84703 0.40878 0.24467 0.0
O180 O 0.88236 0.35313 0.21151 0.0
O181 O 0.88986 0.36241 0.24872 0.0
In182 In 0.13601 0.36764 0.74986 0.0
O183 O 0.10186 0.36113 0.77327 0.0
O184 O 0.09745 0.36725 0.7349 0.0
C185 C 0.17283 0.36357 0.78254 0.0
C186 C 0.13729 0.41547 0.73836 0.0
C187 C 0.14509 0.3274 0.72277 0.0
O188 O 0.15076 0.35954 0.78826 0.0
O189 O 0.17607 0.3703 0.76065 0.0
O190 O 0.14793 0.34877 0.71428 0.0
O191 O 0.13756 0.32655 0.74459 0.0
C192 C 0.08733 0.36311 0.75529 0.0
O193 O 0.14472 0.39917 0.72364 0.0
O194 O 0.12975 0.40758 0.75877 0.0
In195 In 0.12902 0.6356 0.24442 0.0
O196 O 0.12709 0.60098 0.26855 0.0
O197 O 0.12861 0.59715 0.22973 0.0
C198 C 0.13595 0.67117 0.27803 0.0
C199 C 0.08256 0.64105 0.22936 0.0
C200 C 0.16906 0.64421 0.21698 0.0
O201 O 0.14437 0.64976 0.281 0.0
O202 O 0.12381 0.67423 0.25862 0.0
O203 O 0.14841 0.6534 0.21189 0.0
O204 O 0.16939 0.63074 0.23574 0.0
C205 C 0.1274 0.58666 0.25028 0.0
O206 O 0.10027 0.64044 0.21444 0.0
O207 O 0.08838 0.63891 0.25169 0.0
In208 In 0.76055 0.85446 0.63895 0.0
O209 O 0.78022 0.89046 0.64788 0.0
O210 O 0.74279 0.89156 0.63655 0.0
C211 C 0.79341 0.8183 0.64538 0.0
C212 C 0.75504 0.85157 0.59026 0.0
C213 C 0.73081 0.84415 0.67673 0.0
O214 O 0.79876 0.84048 0.64958 0.0
O215 O 0.77187 0.81476 0.63776 0.0
O216 O 0.72422 0.84098 0.65471 0.0
O217 O 0.75216 0.85259 0.67945 0.0
C218 C 0.7615 0.90339 0.64324 0.0
O219 O 0.73836 0.84476 0.60485 0.0
O220 O 0.77423 0.85972 0.60034 0.0
In221 In 0.63438 0.23202 0.13044 0.0
O222 O 0.65487 0.22524 0.09435 0.0
O223 O 0.61777 0.21413 0.09651 0.0
C224 C 0.64915 0.19674 0.16202 0.0
C225 C 0.58742 0.24626 0.13522 0.0
C226 C 0.66207 0.27082 0.14358 0.0
O227 O 0.66175 0.20277 0.1436 0.0
O228 O 0.62903 0.20783 0.16387 0.0
O229 O 0.65092 0.25757 0.15887 0.0
O230 O 0.65843 0.26517 0.12143 0.0
C231 C 0.6367 0.21602 0.08348 0.0
O232 O 0.60411 0.26141 0.12988 0.0
O233 O 0.59458 0.22444 0.13786 0.0
In234 In 0.24893 0.13693 0.64365 0.0
O235 O 0.27103 0.14297 0.60848 0.0
O236 O 0.2331 0.13407 0.60558 0.0
C237 C 0.28137 0.14204 0.68041 0.0
C238 C 0.24131 0.08864 0.64758 0.0
C239 C 0.22031 0.17606 0.65283 0.0
O240 O 0.28613 0.14916 0.65885 0.0
O241 O 0.26055 0.13243 0.68316 0.0
O242 O 0.21285 0.15439 0.65628 0.0
O243 O 0.24188 0.17772 0.64475 0.0
C244 C 0.25286 0.13895 0.59462 0.0
O245 O 0.22459 0.10405 0.65235 0.0
O246 O 0.26147 0.09774 0.64077 0.0
In247 In 0.36021 0.7402 0.13512 0.0
O248 O 0.39299 0.71508 0.14234 0.0
O249 O 0.39929 0.75329 0.13684 0.0
C250 C 0.3238 0.70833 0.14457 0.0
C251 C 0.36117 0.74578 0.08619 0.0
C252 C 0.34868 0.77391 0.16935 0.0
O253 O 0.34453 0.70664 0.15475 0.0
O254 O 0.32178 0.72561 0.12939 0.0
O255 O 0.33997 0.7748 0.14789 0.0
O256 O 0.36338 0.75652 0.17315 0.0
C257 C 0.40833 0.73242 0.1412 0.0
O258 O 0.35814 0.76383 0.10044 0.0
O259 O 0.36364 0.72532 0.09672 0.0
In260 In 0.75314 0.13173 0.35645 0.0
O261 O 0.77821 0.09803 0.35349 0.0
O262 O 0.73972 0.09295 0.35828 0.0
C263 C 0.7809 0.17149 0.34838 0.0
C264 C 0.74458 0.13618 0.40469 0.0
C265 C 0.72559 0.13602 0.31591 0.0
O266 O 0.7894 0.15 0.34591 0.0
O267 O 0.7588 0.17258 0.35513 0.0
O268 O 0.71761 0.1422 0.33683 0.0
O269 O 0.74717 0.12767 0.31571 0.0
C270 C 0.76052 0.08315 0.35565 0.0
O271 O 0.72728 0.13659 0.38921 0.0
O272 O 0.76575 0.1337 0.39568 0.0
In273 In 0.3528 0.24819 0.86574 0.0
O274 O 0.36622 0.22239 0.89596 0.0
O275 O 0.33795 0.24792 0.90454 0.0
C276 C 0.35006 0.21182 0.83206 0.0
C277 C 0.39662 0.27058 0.86164 0.0
C278 C 0.31485 0.27899 0.85702 0.0
O279 O 0.33711 0.21211 0.85118 0.0
O280 O 0.36495 0.22933 0.83039 0.0
O281 O 0.33623 0.28675 0.86108 0.0
O282 O 0.31281 0.25603 0.85733 0.0
C283 C 0.35181 0.23094 0.91196 0.0
O284 O 0.38804 0.26365 0.88198 0.0
O285 O 0.38269 0.26698 0.8435 0.0
In286 In 0.24052 0.85948 0.35448 0.0
O287 O 0.21767 0.89459 0.35063 0.0
O288 O 0.25668 0.89728 0.35086 0.0
C289 C 0.20809 0.82276 0.34829 0.0
C290 C 0.24865 0.86 0.40303 0.0
C291 C 0.27035 0.84837 0.3169 0.0
O292 O 0.2045 0.8439 0.33944 0.0
O293 O 0.22758 0.8205 0.36049 0.0
O294 O 0.27544 0.84234 0.33874 0.0
O295 O 0.25049 0.85992 0.31429 0.0
C296 C 0.23637 0.90829 0.34957 0.0
O297 O 0.26546 0.85455 0.38798 0.0
O298 O 0.22814 0.86486 0.39347 0.0
In299 In 0.63654 0.73982 0.86015 0.0
O300 O 0.63853 0.76745 0.89181 0.0
O301 O 0.62563 0.73138 0.89912 0.0
C302 C 0.6504 0.76721 0.82178 0.0
C303 C 0.5898 0.7315 0.84743 0.0
C304 C 0.675 0.70891 0.85997 0.0
O305 O 0.64928 0.77596 0.84325 0.0
O306 O 0.64458 0.7449 0.81994 0.0
O307 O 0.65404 0.7026 0.85241 0.0
O308 O 0.67622 0.73045 0.86828 0.0
C309 C 0.6304 0.75241 0.90744 0.0
O310 O 0.60367 0.71444 0.85477 0.0
O311 O 0.59948 0.75247 0.84675 0.0
H312 H 0.1276 0.5544 0.2127 0.0
H313 H 0.12438 0.55801 0.29182 0.0
H314 H 0.12461 0.51016 0.2144 0.0
H315 H 0.12106 0.51306 0.2935 0.0
H316 H 0.1462 0.43002 0.27879 0.0
H317 H 0.14621 0.47482 0.28329 0.0
H318 H 0.0926 0.48045 0.22521 0.0
H319 H 0.09299 0.43616 0.22039 0.0
C320 C 0.12618 0.54572 0.23052 0.0
C321 C 0.12608 0.5597 0.25214 0.0
C322 C 0.1243 0.52033 0.23147 0.0
C323 C 0.12222 0.50817 0.25406 0.0
C324 C 0.12261 0.52201 0.27583 0.0
C325 C 0.12443 0.54765 0.27488 0.0
C326 C 0.13419 0.4409 0.26729 0.0
C327 C 0.11992 0.42972 0.24896 0.0
C328 C 0.13412 0.46647 0.26992 0.0
C329 C 0.11973 0.48111 0.2543 0.0
C330 C 0.1043 0.46968 0.23713 0.0
C331 C 0.10448 0.4443 0.23441 0.0
H332 H 0.93855 0.6718 0.8006 0.0
H333 H 0.94945 0.60593 0.75797 0.0
H334 H 0.98299 0.6744 0.80767 0.0
H335 H 0.99344 0.60821 0.76547 0.0
H336 H 0.0697 0.60962 0.7942 0.0
H337 H 0.02553 0.6078 0.80172 0.0
H338 H 0.01759 0.68143 0.77378 0.0
H339 H 0.06163 0.68318 0.7659 0.0
C340 C 0.9504 0.65767 0.7932 0.0
C341 C 0.94077 0.6388 0.77857 0.0
C342 C 0.97569 0.65915 0.79724 0.0
C343 C 0.99146 0.64141 0.78724 0.0
C344 C 0.9816 0.62192 0.77366 0.0
C345 C 0.9565 0.62075 0.76917 0.0
C346 C 0.05861 0.62564 0.7903 0.0
C347 C 0.06892 0.64642 0.77917 0.0
C348 C 0.0334 0.62457 0.79457 0.0
C349 C 0.0183 0.64443 0.7882 0.0
C350 C 0.02893 0.66597 0.77901 0.0
C351 C 0.05405 0.66689 0.77436 0.0
H352 H 0.85736 0.43608 0.2856 0.0
H353 H 0.83281 0.44178 0.21047 0.0
H354 H 0.85615 0.481 0.28925 0.0
H355 H 0.83129 0.48622 0.21423 0.0
H356 H 0.8099 0.56252 0.23365 0.0
H357 H 0.80698 0.51825 0.23894 0.0
H358 H 0.88082 0.51651 0.26741 0.0
H359 H 0.88387 0.56099 0.26205 0.0
C360 C 0.85148 0.44691 0.27001 0.0
C361 C 0.84524 0.43555 0.24773 0.0
C362 C 0.85086 0.4725 0.27209 0.0
C363 C 0.84347 0.48696 0.25207 0.0
C364 C 0.83675 0.47547 0.23003 0.0
C365 C 0.83778 0.45006 0.22784 0.0
C366 C 0.82536 0.5528 0.24148 0.0
C367 C 0.84725 0.56513 0.24712 0.0
C368 C 0.82368 0.52748 0.24446 0.0
C369 C 0.84376 0.51402 0.25332 0.0
C370 C 0.86505 0.52652 0.26063 0.0
C371 C 0.86682 0.55192 0.25747 0.0
H372 H 0.06083 0.34739 0.79501 0.0
H373 H 0.05337 0.37381 0.72068 0.0
H374 H 0.01627 0.34228 0.79753 0.0
H375 H 0.00922 0.36957 0.72341 0.0
H376 H 0.93514 0.33654 0.72351 0.0
H377 H 0.97962 0.33764 0.72433 0.0
H378 H 0.97769 0.36488 0.79879 0.0
H379 H 0.93282 0.36281 0.79819 0.0
C380 C 0.04965 0.35225 0.77931 0.0
C381 C 0.06052 0.36078 0.75758 0.0
C382 C 0.02418 0.34942 0.78078 0.0
C383 C 0.00921 0.35521 0.76056 0.0
C384 C 0.02021 0.3643 0.7391 0.0
C385 C 0.04554 0.36691 0.73758 0.0
C386 C 0.94421 0.34253 0.74015 0.0
C387 C 0.93059 0.34984 0.76071 0.0
C388 C 0.96971 0.34332 0.74058 0.0
C389 C 0.98222 0.35184 0.76145 0.0
C390 C 0.96861 0.35816 0.78245 0.0
C391 C 0.94296 0.35706 0.78211 0.0
H392 H 0.1598 0.43896 0.70002 0.0
H393 H 0.11321 0.45128 0.76289 0.0
H394 H 0.15874 0.48306 0.69081 0.0
H395 H 0.11202 0.49485 0.75364 0.0
H396 H 0.09625 0.56748 0.72248 0.0
H397 H 0.09569 0.52286 0.72026 0.0
H398 H 0.17452 0.52196 0.7133 0.0
H399 H 0.17516 0.56675 0.71542 0.0
C400 C 0.14926 0.45104 0.71173 0.0
C401 C 0.13665 0.44177 0.7322 0.0
C402 C 0.14867 0.47618 0.70648 0.0
C403 C 0.13508 0.49225 0.72136 0.0
C404 C 0.12228 0.48282 0.7416 0.0
C405 C 0.12316 0.4579 0.74703 0.0
C406 C 0.11342 0.55783 0.71984 0.0
C407 C 0.13579 0.57054 0.71952 0.0
C408 C 0.11308 0.5323 0.71866 0.0
C409 C 0.13509 0.51902 0.71705 0.0
C410 C 0.1573 0.53179 0.71452 0.0
C411 C 0.15765 0.5574 0.71579 0.0
H412 H 0.93513 0.60852 0.18653 0.0
H413 H 0.93075 0.6832 0.21275 0.0
H414 H 0.97995 0.61073 0.18807 0.0
H415 H 0.97535 0.68521 0.21443 0.0
H416 H 0.04438 0.65621 0.25721 0.0
H417 H 0.00144 0.65943 0.24531 0.0
H418 H 0.01953 0.63499 0.1722 0.0
H419 H 0.06294 0.63218 0.18403 0.0
C420 C 0.94373 0.62558 0.19197 0.0
C421 C 0.92949 0.64556 0.19987 0.0
C422 C 0.96933 0.62684 0.19278 0.0
C423 C 0.98095 0.64803 0.20167 0.0
C424 C 0.96674 0.6686 0.20775 0.0
C425 C 0.94124 0.66743 0.20673 0.0
C426 C 0.03926 0.65173 0.23854 0.0
C427 C 0.0569 0.64392 0.22154 0.0
C428 C 0.01474 0.65374 0.23169 0.0
C429 C 0.00731 0.6476 0.20781 0.0
C430 C 0.02492 0.63987 0.19069 0.0
C431 C 0.04964 0.63832 0.19744 0.0
H432 H 0.8443 0.56227 0.71299 0.0
H433 H 0.87859 0.55381 0.78394 0.0
H434 H 0.83985 0.51757 0.70998 0.0
H435 H 0.87495 0.50969 0.78065 0.0
H436 H 0.84122 0.43634 0.7839 0.0
H437 H 0.84215 0.48077 0.78277 0.0
H438 H 0.86292 0.47855 0.70629 0.0
H439 H 0.86101 0.43357 0.70728 0.0
C440 C 0.85103 0.55086 0.72779 0.0
C441 C 0.86148 0.56146 0.74884 0.0
C442 C 0.84859 0.52533 0.72604 0.0
C443 C 0.85666 0.51014 0.74527 0.0
C444 C 0.86789 0.52088 0.76583 0.0
C445 C 0.87011 0.5462 0.76766 0.0
C446 C 0.84581 0.44531 0.76678 0.0
C447 C 0.8514 0.43159 0.74577 0.0
C448 C 0.84647 0.47078 0.76615 0.0
C449 C 0.85318 0.48318 0.74459 0.0
C450 C 0.8577 0.4695 0.72317 0.0
C451 C 0.8567 0.44382 0.72374 0.0
H452 H 0.9225 0.34319 0.18576 0.0
H453 H 0.93422 0.36396 0.26136 0.0
H454 H 0.96685 0.33658 0.18093 0.0
H455 H 0.97789 0.35764 0.25651 0.0
H456 H 0.04929 0.32131 0.25212 0.0
H457 H 0.00474 0.32163 0.25063 0.0
H458 H 0.00702 0.361 0.18194 0.0
H459 H 0.05199 0.36018 0.18317 0.0
C460 C 0.93452 0.34643 0.20124 0.0
C461 C 0.92492 0.35393 0.22397 0.0
C462 C 0.95981 0.34268 0.19848 0.0
C463 C 0.97572 0.34618 0.21847 0.0
C464 C 0.96604 0.3542 0.24094 0.0
C465 C 0.94099 0.35801 0.24365 0.0
C466 C 0.04031 0.32961 0.23645 0.0
C467 C 0.05401 0.34106 0.21796 0.0
C468 C 0.01482 0.32988 0.23564 0.0
C469 C 0.00245 0.34184 0.21646 0.0
C470 C 0.01611 0.35168 0.19695 0.0
C471 C 0.04179 0.35124 0.19767 0.0
H472 H 0.21833 0.12352 0.56244 0.0
H473 H 0.29027 0.15637 0.56595 0.0
H474 H 0.21931 0.12563 0.51802 0.0
H475 H 0.29096 0.15934 0.52113 0.0
H476 H 0.29171 0.13642 0.43906 0.0
H477 H 0.29316 0.13531 0.48388 0.0
H478 H 0.21653 0.15552 0.48655 0.0
H479 H 0.21495 0.15568 0.442 0.0
C480 C 0.23433 0.13136 0.55367 0.0
C481 C 0.25418 0.13991 0.56763 0.0
C482 C 0.23483 0.13274 0.52818 0.0
C483 C 0.25507 0.14298 0.51598 0.0
C484 C 0.27515 0.15122 0.52995 0.0
C485 C 0.27473 0.14962 0.55558 0.0
C486 C 0.27526 0.14072 0.44931 0.0
C487 C 0.25316 0.14589 0.43711 0.0
C488 C 0.2761 0.14021 0.47496 0.0
C489 C 0.25489 0.14504 0.48882 0.0
C490 C 0.23306 0.1511 0.47647 0.0
C491 C 0.23217 0.15135 0.45093 0.0
H492 H 0.39669 0.7248 0.93387 0.0
H493 H 0.33536 0.77489 0.93084 0.0
H494 H 0.39715 0.72781 0.97833 0.0
H495 H 0.33544 0.77747 0.97575 0.0
H496 H 0.3567 0.78741 0.05816 0.0
H497 H 0.35886 0.79028 0.01328 0.0
H498 H 0.36905 0.71182 0.00903 0.0
H499 H 0.36731 0.70903 0.05338 0.0
C500 C 0.38337 0.73659 0.94274 0.0
C501 C 0.36577 0.74935 0.92896 0.0
C502 C 0.38357 0.73823 0.96822 0.0
C503 C 0.36603 0.7525 0.98055 0.0
C504 C 0.3492 0.76635 0.96673 0.0
C505 C 0.3491 0.76481 0.94108 0.0
C506 C 0.35944 0.77085 0.04754 0.0
C507 C 0.36198 0.74802 0.05924 0.0
C508 C 0.36058 0.77248 0.02191 0.0
C509 C 0.36441 0.75132 0.00767 0.0
C510 C 0.36662 0.72854 0.01949 0.0
C511 C 0.36546 0.72691 0.04493 0.0
H512 H 0.71048 0.8507 0.43633 0.0
H513 H 0.78794 0.83409 0.43705 0.0
H514 H 0.71033 0.85142 0.48124 0.0
H515 H 0.78767 0.83411 0.48161 0.0
H516 H 0.78683 0.86912 0.55641 0.0
H517 H 0.78415 0.86591 0.5121 0.0
H518 H 0.71562 0.82677 0.51882 0.0
H519 H 0.71803 0.83057 0.56354 0.0
C520 C 0.72734 0.84683 0.4461 0.0
C521 C 0.74928 0.84264 0.43329 0.0
C522 C 0.72725 0.84716 0.47176 0.0
C523 C 0.74907 0.84319 0.48493 0.0
C524 C 0.77069 0.83784 0.47199 0.0
C525 C 0.77082 0.83769 0.44646 0.0
C526 C 0.77116 0.85984 0.54847 0.0
C527 C 0.75271 0.84996 0.5634 0.0
C528 C 0.7697 0.85786 0.52307 0.0
C529 C 0.74984 0.84578 0.51197 0.0
C530 C 0.7311 0.83625 0.52687 0.0
C531 C 0.73252 0.83834 0.55241 0.0
H532 H 0.59805 0.20063 0.05594 0.0
H533 H 0.67443 0.22091 0.05087 0.0
H534 H 0.59514 0.20027 0.0113 0.0
H535 H 0.67145 0.22057 0.00613 0.0
H536 H 0.65894 0.2064 0.92409 0.0
H537 H 0.66234 0.19511 0.96753 0.0
H538 H 0.59709 0.23716 0.98331 0.0
H539 H 0.59382 0.24853 0.94025 0.0
C540 C 0.61435 0.20448 0.04529 0.0
C541 C 0.63639 0.21112 0.05686 0.0
C542 C 0.61265 0.20435 0.01976 0.0
C543 C 0.63298 0.21068 0.00532 0.0
C544 C 0.65552 0.21551 0.01684 0.0
C545 C 0.65719 0.2158 0.04243 0.0
C546 C 0.64519 0.21291 0.93685 0.0
C547 C 0.62618 0.22841 0.9289 0.0
C548 C 0.64718 0.20653 0.96164 0.0
C549 C 0.62994 0.21519 0.97872 0.0
C550 C 0.61046 0.22994 0.97051 0.0
C551 C 0.60869 0.23659 0.9459 0.0
H552 H 0.21517 0.87323 0.43716 0.0
H553 H 0.29029 0.84919 0.42942 0.0
H554 H 0.22031 0.87555 0.48123 0.0
H555 H 0.29557 0.85184 0.4741 0.0
H556 H 0.27765 0.83127 0.55748 0.0
H557 H 0.28004 0.83126 0.51256 0.0
H558 H 0.24241 0.90098 0.51074 0.0
H559 H 0.23948 0.90066 0.55523 0.0
C560 C 0.23287 0.86852 0.44489 0.0
C561 C 0.25235 0.86109 0.42983 0.0
C562 C 0.23587 0.87005 0.47018 0.0
C563 C 0.25846 0.86421 0.48111 0.0
C564 C 0.27797 0.85646 0.46614 0.0
C565 C 0.27496 0.85501 0.44063 0.0
C566 C 0.27034 0.84677 0.54742 0.0
C567 C 0.25801 0.86576 0.55972 0.0
C568 C 0.27176 0.8468 0.52175 0.0
C569 C 0.26097 0.86589 0.50815 0.0
C570 C 0.25035 0.88572 0.5207 0.0
C571 C 0.24876 0.88559 0.54618 0.0
H572 H 0.58665 0.75284 0.05962 0.0
H573 H 0.65886 0.78518 0.05886 0.0
H574 H 0.5845 0.75628 0.01514 0.0
H575 H 0.65715 0.78782 0.01411 0.0
H576 H 0.64292 0.79478 0.93164 0.0
H577 H 0.63858 0.80316 0.97566 0.0
H578 H 0.6063 0.73152 0.98571 0.0
H579 H 0.61021 0.72344 0.94223 0.0
C580 C 0.60189 0.7611 0.04992 0.0
C581 C 0.62307 0.76839 0.06253 0.0
C582 C 0.60072 0.76295 0.02446 0.0
C583 C 0.6209 0.77174 0.01108 0.0
C584 C 0.64129 0.78099 0.0239 0.0
C585 C 0.64231 0.77943 0.0495 0.0
C586 C 0.63467 0.78101 0.94333 0.0
C587 C 0.62696 0.75844 0.93357 0.0
C588 C 0.63225 0.78577 0.96847 0.0
C589 C 0.62191 0.7681 0.98414 0.0
C590 C 0.61385 0.74577 0.97413 0.0
C591 C 0.61632 0.74102 0.94919 0.0
H592 H 0.76447 0.108 0.55726 0.0
H593 H 0.70032 0.15448 0.55878 0.0
H594 H 0.76455 0.1093 0.51279 0.0
H595 H 0.70076 0.15633 0.51377 0.0
H596 H 0.70127 0.1333 0.43027 0.0
H597 H 0.69636 0.13186 0.47501 0.0
H598 H 0.77453 0.14132 0.48365 0.0
H599 H 0.77944 0.14217 0.43946 0.0
C600 C 0.75033 0.11848 0.54804 0.0
C601 C 0.73257 0.13139 0.56146 0.0
C602 C 0.75045 0.11934 0.52255 0.0
C603 C 0.73298 0.13335 0.5098 0.0
C604 C 0.71446 0.14541 0.52313 0.0
C605 C 0.71424 0.1444 0.54882 0.0
C606 C 0.71731 0.13523 0.44184 0.0
C607 C 0.74077 0.13754 0.43143 0.0
C608 C 0.7145 0.13447 0.46738 0.0
C609 C 0.73512 0.13603 0.48281 0.0
C610 C 0.75836 0.13941 0.47226 0.0
C611 C 0.76116 0.14005 0.44692 0.0
H612 H 0.39587 0.25083 0.05626 0.0
H613 H 0.33026 0.20854 0.06928 0.0
H614 H 0.39368 0.2409 0.01267 0.0
H615 H 0.3278 0.19899 0.02537 0.0
H616 H 0.31598 0.23665 0.94598 0.0
H617 H 0.31965 0.23122 0.99027 0.0
H618 H 0.39358 0.20445 0.98102 0.0
H619 H 0.38975 0.20943 0.93649 0.0
C620 C 0.38124 0.23904 0.04982 0.0
C621 C 0.36311 0.23061 0.066 0.0
C622 C 0.3801 0.23321 0.02495 0.0
C623 C 0.36056 0.21921 0.01575 0.0
C624 C 0.34304 0.2098 0.0321 0.0
C625 C 0.34447 0.21523 0.05713 0.0
C626 C 0.33278 0.22903 0.95337 0.0
C627 C 0.35265 0.22365 0.93793 0.0
C628 C 0.33482 0.22577 0.97866 0.0
C629 C 0.35691 0.21748 0.98896 0.0
C630 C 0.37637 0.21087 0.97343 0.0
C631 C 0.37415 0.21368 0.94803 0.0
H632 H 0.56611 0.2919 0.13169 0.0
H633 H 0.54997 0.21558 0.14546 0.0
H634 H 0.52254 0.30196 0.13719 0.0
H635 H 0.50703 0.22539 0.15038 0.0
H636 H 0.43584 0.24706 0.17844 0.0
H637 H 0.48041 0.24594 0.17898 0.0
H638 H 0.48238 0.29482 0.11661 0.0
H639 H 0.43747 0.29669 0.1168 0.0
C640 C 0.55329 0.27734 0.13589 0.0
C641 C 0.56141 0.25299 0.13826 0.0
C642 C 0.52842 0.28308 0.13898 0.0
C643 C 0.51141 0.26453 0.14459 0.0
C644 C 0.5197 0.24023 0.14673 0.0
C645 C 0.54434 0.23455 0.14368 0.0
C646 C 0.44582 0.25799 0.1652 0.0
C647 C 0.43334 0.27166 0.14736 0.0
C648 C 0.47132 0.25726 0.16541 0.0
C649 C 0.48488 0.26978 0.14743 0.0
C650 C 0.47243 0.28498 0.13069 0.0
C651 C 0.44677 0.28602 0.13075 0.0
H652 H 0.5617 0.76016 0.81823 0.0
H653 H 0.5596 0.69466 0.86262 0.0
H654 H 0.51766 0.7574 0.8117 0.0
H655 H 0.51519 0.69248 0.8572 0.0
H656 H 0.43538 0.68896 0.83534 0.0
H657 H 0.48001 0.68675 0.83139 0.0
H658 H 0.484 0.76573 0.83741 0.0
H659 H 0.43977 0.76789 0.84038 0.0
C660 C 0.55175 0.74509 0.82649 0.0
C661 C 0.56386 0.72781 0.84119 0.0
C662 C 0.52652 0.74356 0.82287 0.0
C663 C 0.5128 0.72501 0.83433 0.0
C664 C 0.5252 0.70691 0.84796 0.0
C665 C 0.55059 0.70821 0.8512 0.0
C666 C 0.44588 0.70581 0.83543 0.0
C667 C 0.43417 0.72858 0.83823 0.0
C668 C 0.47141 0.70455 0.83332 0.0
C669 C 0.48561 0.72605 0.83408 0.0
C670 C 0.47368 0.74882 0.83624 0.0
C671 C 0.44828 0.75007 0.83815 0.0
H672 H 0.79573 0.92746 0.33381 0.0
H673 H 0.73728 0.93148 0.38707 0.0
H674 H 0.79771 0.97248 0.3329 0.0
H675 H 0.73969 0.97587 0.38671 0.0
H676 H 0.72412 0.04965 0.3546 0.0
H677 H 0.72747 0.00541 0.3557 0.0
H678 H 0.80647 0.01099 0.35731 0.0
H679 H 0.80308 0.05593 0.35566 0.0
C680 C 0.78363 0.93795 0.34556 0.0
C681 C 0.76606 0.92608 0.36018 0.0
C682 C 0.78482 0.96364 0.34512 0.0
C683 C 0.76852 0.97767 0.35938 0.0
C684 C 0.75203 0.96559 0.37501 0.0
C685 C 0.75071 0.94014 0.37529 0.0
C686 C 0.74226 0.04155 0.35516 0.0
C687 C 0.76335 0.05626 0.35531 0.0
C688 C 0.74417 0.01615 0.35592 0.0
C689 C 0.76723 0.00473 0.35706 0.0
C690 C 0.78846 0.01934 0.35647 0.0
C691 C 0.78653 0.04498 0.35562 0.0
H692 H 0.4217 0.27811 0.8191 0.0
H693 H 0.42945 0.28101 0.89792 0.0
H694 H 0.46592 0.28347 0.81461 0.0
H695 H 0.47363 0.28638 0.89338 0.0
H696 H 0.55288 0.30567 0.87598 0.0
H697 H 0.50847 0.31275 0.87641 0.0
H698 H 0.49858 0.25248 0.82598 0.0
H699 H 0.54265 0.24533 0.82569 0.0
C700 C 0.43276 0.2805 0.83543 0.0
C701 C 0.42221 0.27883 0.85887 0.0
C702 C 0.45805 0.28348 0.83285 0.0
C703 C 0.47318 0.28508 0.85365 0.0
C704 C 0.46238 0.28533 0.87703 0.0
C705 C 0.43711 0.28214 0.87963 0.0
C706 C 0.54119 0.29423 0.86472 0.0
C707 C 0.55111 0.27485 0.85093 0.0
C708 C 0.51584 0.29824 0.86502 0.0
C709 C 0.50014 0.2832 0.85119 0.0
C710 C 0.51026 0.26457 0.83656 0.0
C711 C 0.53547 0.26034 0.83655 0.0
H712 H 0.27336 0.93925 0.33814 0.0
H713 H 0.19661 0.93815 0.35749 0.0
H714 H 0.27303 0.98376 0.33888 0.0
H715 H 0.1964 0.98308 0.359 0.0
H716 H 0.20325 0.06591 0.33922 0.0
H717 H 0.2005 0.02123 0.33523 0.0
H718 H 0.27102 0.01396 0.37071 0.0
H719 H 0.274 0.05821 0.37403 0.0
C720 C 0.25637 0.94858 0.34253 0.0
C721 C 0.23507 0.93526 0.348 0.0
C722 C 0.25622 0.9741 0.34311 0.0
C723 C 0.23481 0.98698 0.34946 0.0
C724 C 0.21317 0.97369 0.35398 0.0
C725 C 0.21329 0.94801 0.3532 0.0
C726 C 0.21809 0.05467 0.34616 0.0
C727 C 0.23893 0.06552 0.35674 0.0
C728 C 0.21648 0.02912 0.34397 0.0
C729 C 0.23568 0.01405 0.35236 0.0
C730 C 0.25617 0.02502 0.36349 0.0
C731 C 0.25782 0.05042 0.36555 0.0
H732 H 0.56129 0.69422 0.126 0.0
H733 H 0.56029 0.75322 0.17883 0.0
H734 H 0.51652 0.69177 0.12801 0.0
H735 H 0.51583 0.75038 0.18132 0.0
H736 H 0.44278 0.76796 0.14397 0.0
H737 H 0.48661 0.76322 0.14957 0.0
H738 H 0.47813 0.68452 0.15284 0.0
H739 H 0.43374 0.6893 0.14696 0.0
C740 C 0.55155 0.70613 0.13857 0.0
C741 C 0.5641 0.72422 0.15192 0.0
C742 C 0.52596 0.70469 0.13977 0.0
C743 C 0.5127 0.72124 0.15444 0.0
C744 C 0.52555 0.73779 0.16941 0.0
C745 C 0.55099 0.73936 0.16806 0.0
C746 C 0.45017 0.74962 0.14598 0.0
C747 C 0.43486 0.729 0.14501 0.0
C748 C 0.47529 0.74691 0.14942 0.0
C749 C 0.48576 0.72351 0.15195 0.0
C750 C 0.4705 0.70277 0.15096 0.0
C751 C 0.44518 0.70551 0.14764 0.0
H752 H 0.79684 0.9338 0.66224 0.0
H753 H 0.72498 0.93374 0.62885 0.0
H754 H 0.79474 0.97853 0.66628 0.0
H755 H 0.72318 0.97798 0.63212 0.0
H756 H 0.71402 0.05339 0.66015 0.0
H757 H 0.71862 0.00909 0.66233 0.0
H758 H 0.79486 0.01586 0.6418 0.0
H759 H 0.79039 0.06048 0.64061 0.0
C760 C 0.7807 0.94335 0.65569 0.0
C761 C 0.76103 0.93033 0.64536 0.0
C762 C 0.77951 0.96892 0.65792 0.0
C763 C 0.75867 0.9818 0.64978 0.0
C764 C 0.73924 0.96864 0.63916 0.0
C765 C 0.74036 0.94324 0.6371 0.0
C766 C 0.73182 0.04542 0.65637 0.0
C767 C 0.75177 0.06027 0.64993 0.0
C768 C 0.73445 0.02004 0.65749 0.0
C769 C 0.757 0.0089 0.65176 0.0
C770 C 0.77728 0.02386 0.64641 0.0
C771 C 0.77471 0.04938 0.64561 0.0
H772 H 0.19971 0.06355 0.66061 0.0
H773 H 0.27556 0.05348 0.64007 0.0
H774 H 0.19508 0.01899 0.66464 0.0
H775 H 0.27089 0.00943 0.64372 0.0
H776 H 0.26471 0.93408 0.67172 0.0
H777 H 0.26482 0.97855 0.67539 0.0
H778 H 0.19521 0.982 0.63767 0.0
H779 H 0.19481 0.93724 0.63456 0.0
C780 C 0.21534 0.05184 0.65698 0.0
C781 C 0.23799 0.06194 0.65006 0.0
C782 C 0.21268 0.0264 0.65923 0.0
C783 C 0.23269 0.01076 0.65476 0.0
C784 C 0.25526 0.021 0.64782 0.0
C785 C 0.25788 0.04626 0.64551 0.0
C786 C 0.24923 0.9443 0.66458 0.0
C787 C 0.22993 0.9323 0.65254 0.0
C788 C 0.24934 0.96975 0.66658 0.0
C789 C 0.23027 0.98376 0.65638 0.0
C790 C 0.21014 0.97167 0.64575 0.0
C791 C 0.20995 0.94608 0.6439 0.0
H792 H 0.14951 0.27101 0.2428 0.0
H793 H 0.14543 0.31489 0.30864 0.0
H794 H 0.16385 0.23622 0.26675 0.0
H795 H 0.15922 0.27978 0.33283 0.0
H796 H 0.21923 0.22458 0.35732 0.0
H797 H 0.19741 0.25806 0.33765 0.0
H798 H 0.15343 0.20586 0.29738 0.0
H799 H 0.17587 0.17217 0.31674 0.0
C800 C 0.15138 0.27312 0.26247 0.0
C801 C 0.14658 0.29573 0.27383 0.0
C802 C 0.15938 0.25309 0.27625 0.0
C803 C 0.1627 0.2552 0.30172 0.0
C804 C 0.15714 0.27764 0.31319 0.0
C805 C 0.14919 0.29773 0.29937 0.0
C806 C 0.20467 0.22021 0.34453 0.0
C807 C 0.1994 0.19576 0.33839 0.0
C808 C 0.19202 0.23944 0.33336 0.0
C809 C 0.17377 0.23466 0.31581 0.0
C810 C 0.16767 0.21014 0.31055 0.0
C811 C 0.18038 0.19086 0.32174 0.0
H812 H 0.2843 0.69533 0.883 0.0
H813 H 0.32097 0.66376 0.82035 0.0
H814 H 0.24655 0.67434 0.87153 0.0
H815 H 0.28314 0.644 0.80797 0.0
H816 H 0.21345 0.6103 0.78664 0.0
H817 H 0.25031 0.61694 0.81111 0.0
H818 H 0.21803 0.68302 0.841 0.0
H819 H 0.18096 0.67549 0.81767 0.0
C820 C 0.28436 0.68351 0.86702 0.0
C821 C 0.30538 0.68141 0.85234 0.0
C822 C 0.2627 0.67166 0.8603 0.0
C823 C 0.26151 0.65796 0.83845 0.0
C824 C 0.28323 0.65422 0.825 0.0
C825 C 0.305 0.66567 0.83201 0.0
C826 C 0.21414 0.62592 0.7989 0.0
C827 C 0.19455 0.64258 0.80006 0.0
C828 C 0.23529 0.62982 0.81283 0.0
C829 C 0.23743 0.65073 0.82781 0.0
C830 C 0.21709 0.66652 0.83001 0.0
C831 C 0.19582 0.66236 0.81643 0.0
H832 H 0.79721 0.67683 0.27286 0.0
H833 H 0.87326 0.69513 0.28521 0.0
H834 H 0.78473 0.71115 0.29848 0.0
H835 H 0.86071 0.7296 0.31112 0.0
H836 H 0.8223 0.80732 0.31957 0.0
H837 H 0.83986 0.76971 0.30246 0.0
H838 H 0.7854 0.7269 0.34077 0.0
H839 H 0.76772 0.7643 0.35749 0.0
C840 C 0.81126 0.68793 0.28145 0.0
C841 C 0.83618 0.68338 0.277 0.0
C842 C 0.80413 0.70754 0.29622 0.0
C843 C 0.82177 0.7231 0.30676 0.0
C844 C 0.84675 0.71802 0.30305 0.0
C845 C 0.8539 0.69822 0.28839 0.0
C846 C 0.8144 0.78982 0.32464 0.0
C847 C 0.79346 0.78873 0.33954 0.0
C848 C 0.8245 0.7683 0.31496 0.0
C849 C 0.81378 0.7454 0.32007 0.0
C850 C 0.79377 0.74431 0.33619 0.0
C851 C 0.7837 0.76574 0.3458 0.0
H852 H 0.81098 0.31151 0.81697 0.0
H853 H 0.77651 0.3769 0.78869 0.0
H854 H 0.77321 0.30076 0.8382 0.0
H855 H 0.73915 0.36712 0.81103 0.0
H856 H 0.66894 0.32101 0.81861 0.0
H857 H 0.70734 0.33934 0.80581 0.0
H858 H 0.74369 0.30725 0.86867 0.0
H859 H 0.70527 0.28781 0.88066 0.0
C860 C 0.79549 0.32391 0.81589 0.0
C861 C 0.79646 0.3448 0.80096 0.0
C862 C 0.77383 0.31788 0.82818 0.0
C863 C 0.75289 0.33291 0.82613 0.0
C864 C 0.75461 0.35474 0.81251 0.0
C865 C 0.77606 0.36046 0.79983 0.0
C866 C 0.68503 0.31828 0.82995 0.0
C867 C 0.68421 0.30279 0.85046 0.0
C868 C 0.70713 0.32891 0.8227 0.0
C869 C 0.72883 0.32461 0.83604 0.0
C870 C 0.72752 0.31049 0.8576 0.0
C871 C 0.70547 0.29953 0.86462 0.0
H872 H 0.2087 0.77761 0.61501 0.0
H873 H 0.15993 0.82432 0.65645 0.0
H874 H 0.18884 0.74152 0.63218 0.0
H875 H 0.13979 0.78815 0.67334 0.0
H876 H 0.15279 0.72571 0.73029 0.0
H877 H 0.15948 0.76098 0.70404 0.0
H878 H 0.15207 0.71503 0.6399 0.0
H879 H 0.14533 0.67933 0.66648 0.0
C880 C 0.19316 0.78016 0.62711 0.0
C881 C 0.18622 0.80375 0.63486 0.0
C882 C 0.18171 0.75946 0.63686 0.0
C883 C 0.16315 0.76205 0.65452 0.0
C884 C 0.15441 0.78566 0.66013 0.0
C885 C 0.16584 0.80636 0.65035 0.0
C886 C 0.15238 0.7231 0.71059 0.0
C887 C 0.14878 0.69975 0.70041 0.0
C888 C 0.15589 0.74339 0.69552 0.0
C889 C 0.15606 0.74082 0.66989 0.0
C890 C 0.15199 0.71752 0.65961 0.0
C891 C 0.1482 0.69714 0.67478 0.0
H892 H 0.68317 0.66911 0.14985 0.0
H893 H 0.71504 0.72191 0.10021 0.0
H894 H 0.72313 0.64967 0.15483 0.0
H895 H 0.75493 0.70221 0.10482 0.0
H896 H 0.81893 0.69174 0.16199 0.0
H897 H 0.78148 0.70358 0.14093 0.0
H898 H 0.75899 0.62768 0.13796 0.0
H899 H 0.7966 0.61582 0.15934 0.0
C900 C 0.69856 0.6761 0.13945 0.0
C901 C 0.69613 0.69728 0.12503 0.0
C902 C 0.72145 0.66488 0.14216 0.0
C903 C 0.74226 0.67463 0.13045 0.0
C904 C 0.73931 0.69454 0.11438 0.0
C905 C 0.71646 0.70577 0.11171 0.0
C906 C 0.80634 0.6775 0.1562 0.0
C907 C 0.81049 0.65293 0.16258 0.0
C908 C 0.78491 0.68426 0.144 0.0
C909 C 0.76712 0.66657 0.13803 0.0
C910 C 0.77223 0.64173 0.14262 0.0
C911 C 0.79382 0.63494 0.1547 0.0
H912 H 0.75751 0.22102 0.6373 0.0
H913 H 0.81738 0.17462 0.66056 0.0
H914 H 0.77897 0.25678 0.65294 0.0
H915 H 0.8394 0.21061 0.67548 0.0
H916 H 0.8261 0.31999 0.67606 0.0
H917 H 0.81273 0.28494 0.65142 0.0
H918 H 0.83305 0.23605 0.71048 0.0
H919 H 0.84696 0.27073 0.73452 0.0
C920 C 0.77556 0.21855 0.64522 0.0
C921 C 0.78562 0.19501 0.64808 0.0
C922 C 0.78796 0.2391 0.65404 0.0
C923 C 0.81078 0.23655 0.66576 0.0
C924 C 0.8216 0.21314 0.66702 0.0
C925 C 0.80908 0.19254 0.65837 0.0
C926 C 0.82795 0.30169 0.68355 0.0
C927 C 0.83736 0.29808 0.70725 0.0
C928 C 0.82025 0.28164 0.66951 0.0
C929 C 0.82177 0.25767 0.67898 0.0
C930 C 0.83198 0.25415 0.70239 0.0
C931 C 0.83973 0.2741 0.71631 0.0
H932 H 0.21355 0.36568 0.21593 0.0
H933 H 0.17126 0.34265 0.15305 0.0
H934 H 0.25112 0.35512 0.19477 0.0
H935 H 0.20914 0.33307 0.13116 0.0
H936 H 0.27456 0.27921 0.12336 0.0
H937 H 0.2374 0.30079 0.13446 0.0
H938 H 0.28069 0.36036 0.16389 0.0
H939 H 0.31813 0.33795 0.15367 0.0
C940 C 0.21233 0.35896 0.19727 0.0
C941 C 0.18946 0.35458 0.18629 0.0
C942 C 0.23397 0.3531 0.18498 0.0
C943 C 0.23327 0.34294 0.16128 0.0
C944 C 0.21036 0.34033 0.1496 0.0
C945 C 0.18865 0.34594 0.16206 0.0
C946 C 0.27618 0.29712 0.13181 0.0
C947 C 0.29924 0.3067 0.13805 0.0
C948 C 0.25479 0.30967 0.13801 0.0
C949 C 0.25592 0.33226 0.15039 0.0
C950 C 0.2791 0.34274 0.15487 0.0
C951 C 0.30057 0.33001 0.14888 0.0
H952 H 0.36499 0.24163 0.22348 0.0
H953 H 0.31907 0.19302 0.18122 0.0
H954 H 0.35429 0.21961 0.26081 0.0
H955 H 0.30691 0.17193 0.21857 0.0
H956 H 0.29598 0.12861 0.28625 0.0
H957 H 0.31653 0.14581 0.25051 0.0
H958 H 0.32213 0.21563 0.28788 0.0
H959 H 0.30314 0.1978 0.32396 0.0
C960 C 0.35248 0.22626 0.22226 0.0
C961 C 0.34272 0.21907 0.19956 0.0
C962 C 0.3462 0.2137 0.24367 0.0
C963 C 0.32953 0.19402 0.24292 0.0
C964 C 0.32016 0.18663 0.21998 0.0
C965 C 0.32691 0.19885 0.19852 0.0
C966 C 0.30218 0.14747 0.28691 0.0
C967 C 0.29795 0.16193 0.30776 0.0
C968 C 0.3137 0.15746 0.26634 0.0
C969 C 0.32066 0.18231 0.26598 0.0
C970 C 0.31739 0.19637 0.28741 0.0
C971 C 0.30639 0.1862 0.30816 0.0
H972 H 0.32012 0.74022 0.77697 0.0
H973 H 0.34204 0.8098 0.80791 0.0
H974 H 0.30218 0.76135 0.74191 0.0
H975 H 0.32431 0.831 0.77217 0.0
H976 H 0.31159 0.8464 0.68438 0.0
H977 H 0.3322 0.82833 0.7203 0.0
H978 H 0.26422 0.79435 0.74207 0.0
H979 H 0.24359 0.81262 0.70685 0.0
C980 C 0.32126 0.76004 0.77618 0.0
C981 C 0.33236 0.77342 0.7952 0.0
C982 C 0.31099 0.77207 0.75614 0.0
C983 C 0.31196 0.79769 0.75447 0.0
C984 C 0.32353 0.81117 0.77312 0.0
C985 C 0.33348 0.79911 0.79353 0.0
C986 C 0.30113 0.83514 0.69694 0.0
C987 C 0.27606 0.83083 0.69286 0.0
C988 C 0.31283 0.825 0.71747 0.0
C989 C 0.29968 0.81005 0.73378 0.0
C990 C 0.27467 0.80583 0.72967 0.0
C991 C 0.26292 0.81629 0.70955 0.0
H992 H 0.67874 0.81967 0.32106 0.0
H993 H 0.72749 0.86022 0.27366 0.0
H994 H 0.6571 0.80388 0.28512 0.0
H995 H 0.70613 0.84424 0.23784 0.0
H996 H 0.65504 0.81911 0.17708 0.0
H997 H 0.6676 0.84175 0.21381 0.0
H998 H 0.67114 0.77377 0.25435 0.0
H999 H 0.65848 0.75134 0.21797 0.0
C1000 C 0.68449 0.82561 0.30301 0.0
C1001 C 0.70496 0.84091 0.30012 0.0
C1002 C 0.67222 0.81647 0.28244 0.0
C1003 C 0.68015 0.82257 0.25867 0.0
C1004 C 0.6995 0.8393 0.2559 0.0
C1005 C 0.71182 0.84835 0.27643 0.0
C1006 C 0.65836 0.8091 0.19392 0.0
C1007 C 0.65597 0.78347 0.19465 0.0
C1008 C 0.66553 0.82203 0.2149 0.0
C1009 C 0.67023 0.80954 0.23698 0.0
C1010 C 0.66725 0.78397 0.23775 0.0
C1011 C 0.66025 0.77109 0.21682 0.0
H1012 H 0.66505 0.16779 0.67253 0.0
H1013 H 0.71927 0.13923 0.72278 0.0
H1014 H 0.6419 0.18449 0.70719 0.0
H1015 H 0.69644 0.15604 0.75718 0.0
H1016 H 0.64423 0.17803 0.81672 0.0
H1017 H 0.65828 0.15442 0.78124 0.0
H1018 H 0.65059 0.2187 0.73555 0.0
H1019 H 0.63634 0.24209 0.77078 0.0
C1020 C 0.6718 0.16477 0.69097 0.0
C1021 C 0.69405 0.15243 0.69497 0.0
C1022 C 0.65864 0.1744 0.71077 0.0
C1023 C 0.66742 0.17168 0.73489 0.0
C1024 C 0.68903 0.15823 0.73888 0.0
C1025 C 0.70222 0.14876 0.71913 0.0
C1026 C 0.64521 0.18696 0.799 0.0
C1027 C 0.63943 0.21193 0.79653 0.0
C1028 C 0.65331 0.17349 0.77874 0.0
C1029 C 0.65563 0.18473 0.75563 0.0
C1030 C 0.64874 0.20942 0.75301 0.0
C1031 C 0.64077 0.22288 0.77326 0.0
H1032 H 0.83922 0.81983 0.66604 0.0
H1033 H 0.78462 0.76996 0.63773 0.0
H1034 H 0.86317 0.78496 0.68102 0.0
H1035 H 0.80789 0.73541 0.65323 0.0
H1036 H 0.85453 0.67437 0.67815 0.0
H1037 H 0.84333 0.70973 0.65297 0.0
H1038 H 0.85675 0.75765 0.71471 0.0
H1039 H 0.86864 0.7226 0.73938 0.0
C1040 C 0.83254 0.80143 0.6627 0.0
C1041 C 0.80991 0.79761 0.65106 0.0
C1042 C 0.84617 0.78147 0.67136 0.0
C1043 C 0.83733 0.75737 0.6686 0.0
C1044 C 0.81545 0.75362 0.65549 0.0
C1045 C 0.80195 0.7735 0.64679 0.0
C1046 C 0.85556 0.69254 0.6861 0.0
C1047 C 0.86209 0.69571 0.7108 0.0
C1048 C 0.84906 0.71278 0.67174 0.0
C1049 C 0.84885 0.73653 0.68188 0.0
C1050 C 0.85693 0.73973 0.70616 0.0
C1051 C 0.86353 0.71956 0.72042 0.0
H1052 H 0.69389 0.29656 0.11461 0.0
H1053 H 0.67186 0.28611 0.18997 0.0
H1054 H 0.72837 0.32176 0.12828 0.0
H1055 H 0.70634 0.31074 0.20361 0.0
H1056 H 0.76304 0.36483 0.22369 0.0
H1057 H 0.7251 0.35072 0.20484 0.0
H1058 H 0.76689 0.31251 0.14938 0.0
H1059 H 0.80489 0.32723 0.16793 0.0
C1060 C 0.69616 0.30002 0.13404 0.0
C1061 C 0.68031 0.28926 0.15125 0.0
C1062 C 0.71599 0.31428 0.14187 0.0
C1063 C 0.72021 0.31812 0.16703 0.0
C1064 C 0.7035 0.30842 0.18408 0.0
C1065 C 0.68378 0.29416 0.17628 0.0
C1066 C 0.76411 0.35374 0.20723 0.0
C1067 C 0.7869 0.34684 0.19744 0.0
C1068 C 0.74237 0.3456 0.19649 0.0
C1069 C 0.74296 0.33022 0.17581 0.0
C1070 C 0.76577 0.32449 0.16518 0.0
C1071 C 0.78756 0.33279 0.17588 0.0
H1072 H 0.14168 0.28032 0.73865 0.0
H1073 H 0.16312 0.32387 0.67607 0.0
H1074 H 0.15652 0.24356 0.71832 0.0
H1075 H 0.17745 0.28681 0.6553 0.0
H1076 H 0.23387 0.22363 0.64751 0.0
H1077 H 0.21205 0.25995 0.66121 0.0
H1078 H 0.15161 0.21469 0.68514 0.0
H1079 H 0.17392 0.17807 0.67193 0.0
C1080 C 0.14919 0.28196 0.72033 0.0
C1081 C 0.15151 0.30499 0.70904 0.0
C1082 C 0.15751 0.26083 0.70858 0.0
C1083 C 0.16829 0.26224 0.68522 0.0
C1084 C 0.16956 0.28517 0.67345 0.0
C1085 C 0.16128 0.30637 0.68527 0.0
C1086 C 0.21581 0.22142 0.65546 0.0
C1087 C 0.20569 0.19801 0.6589 0.0
C1088 C 0.20319 0.24229 0.66312 0.0
C1089 C 0.1801 0.24024 0.67434 0.0
C1090 C 0.16952 0.21685 0.67685 0.0
C1091 C 0.18222 0.1959 0.66922 0.0
H1092 H 0.17571 0.6804 0.18325 0.0
H1093 H 0.21285 0.62037 0.21917 0.0
H1094 H 0.21381 0.69203 0.16324 0.0
H1095 H 0.25083 0.63121 0.1983 0.0
H1096 H 0.31842 0.68094 0.18599 0.0
H1097 H 0.28082 0.66222 0.20101 0.0
H1098 H 0.24389 0.6825 0.13376 0.0
H1099 H 0.28126 0.70224 0.11937 0.0
C1100 C 0.19195 0.66941 0.18646 0.0
C1101 C 0.19143 0.64966 0.2029 0.0
C1102 C 0.21379 0.67593 0.17485 0.0
C1103 C 0.2355 0.6626 0.17919 0.0
C1104 C 0.23461 0.64216 0.19488 0.0
C1105 C 0.21284 0.63586 0.20674 0.0
C1106 C 0.30236 0.68099 0.17428 0.0
C1107 C 0.30261 0.69324 0.15167 0.0
C1108 C 0.2808 0.67017 0.18282 0.0
C1109 C 0.25917 0.67111 0.16873 0.0
C1110 C 0.26 0.68198 0.14536 0.0
C1111 C 0.28145 0.69311 0.13701 0.0
H1112 H 0.82909 0.32067 0.31587 0.0
H1113 H 0.85129 0.27396 0.25585 0.0
H1114 H 0.81831 0.28442 0.33994 0.0
H1115 H 0.83997 0.23798 0.27944 0.0
H1116 H 0.82729 0.17482 0.32941 0.0
H1117 H 0.84758 0.2118 0.31423 0.0
H1118 H 0.78538 0.25524 0.33724 0.0
H1119 H 0.76559 0.21863 0.35289 0.0
C1120 C 0.83188 0.30267 0.30794 0.0
C1121 C 0.84076 0.30013 0.28391 0.0
C1122 C 0.82564 0.28192 0.32166 0.0
C1123 C 0.82812 0.25829 0.31157 0.0
C1124 C 0.83811 0.25583 0.28794 0.0
C1125 C 0.84439 0.27651 0.2743 0.0
C1126 C 0.81823 0.19236 0.3316 0.0
C1127 C 0.79477 0.19382 0.34206 0.0
C1128 C 0.82977 0.21352 0.32282 0.0
C1129 C 0.81801 0.23647 0.32433 0.0
C1130 C 0.79511 0.23797 0.33602 0.0
C1131 C 0.78365 0.2169 0.34481 0.0
H1132 H 0.17119 0.34222 0.82782 0.0
H1133 H 0.22134 0.37144 0.77397 0.0
H1134 H 0.20581 0.32573 0.85103 0.0
H1135 H 0.25581 0.35471 0.79691 0.0
H1136 H 0.31529 0.3284 0.84796 0.0
H1137 H 0.2806 0.3539 0.83499 0.0
H1138 H 0.2327 0.29108 0.84036 0.0
H1139 H 0.26705 0.26587 0.85341 0.0
C1140 C 0.18962 0.34556 0.82123 0.0
C1141 C 0.19357 0.3578 0.79893 0.0
C1142 C 0.20941 0.33603 0.83444 0.0
C1143 C 0.23349 0.33866 0.82562 0.0
C1144 C 0.23751 0.35251 0.80428 0.0
C1145 C 0.21773 0.36196 0.79104 0.0
C1146 C 0.29725 0.32021 0.84668 0.0
C1147 C 0.29387 0.29514 0.85146 0.0
C1148 C 0.27744 0.33476 0.83923 0.0
C1149 C 0.25393 0.3245 0.83668 0.0
C1150 C 0.25048 0.29965 0.8425 0.0
C1151 C 0.27023 0.28513 0.84975 0.0
H1152 H 0.1747 0.8181 0.31137 0.0
H1153 H 0.20628 0.77935 0.37276 0.0
H1154 H 0.15395 0.78082 0.29843 0.0
H1155 H 0.18453 0.74225 0.3607 0.0
H1156 H 0.17451 0.67528 0.30961 0.0
H1157 H 0.18839 0.71234 0.33025 0.0
H1158 H 0.12403 0.75085 0.30426 0.0
H1159 H 0.11101 0.71405 0.28257 0.0
C1160 C 0.17663 0.80174 0.32248 0.0
C1161 C 0.19226 0.80152 0.34289 0.0
C1162 C 0.16462 0.78032 0.31516 0.0
C1163 C 0.16769 0.7583 0.32837 0.0
C1164 C 0.18218 0.75863 0.34972 0.0
C1165 C 0.19449 0.77994 0.35677 0.0
C1166 C 0.16315 0.69156 0.30873 0.0
C1167 C 0.14187 0.69192 0.29432 0.0
C1168 C 0.17103 0.71286 0.32065 0.0
C1169 C 0.15752 0.73484 0.31871 0.0
C1170 C 0.13527 0.73454 0.30565 0.0
C1171 C 0.12767 0.71338 0.29339 0.0
H1172 H 0.82376 0.65464 0.83539 0.0
H1173 H 0.77989 0.64193 0.77063 0.0
H1174 H 0.7867 0.66516 0.85835 0.0
H1175 H 0.74315 0.65291 0.79323 0.0
H1176 H 0.6778 0.66339 0.83925 0.0
H1177 H 0.71492 0.64233 0.82571 0.0
H1178 H 0.75904 0.69996 0.85749 0.0
H1179 H 0.72209 0.72056 0.87153 0.0
C1180 C 0.80619 0.65389 0.82615 0.0
C1181 C 0.8047 0.64771 0.80119 0.0
C1182 C 0.78501 0.65996 0.83926 0.0
C1183 C 0.76198 0.65992 0.82762 0.0
C1184 C 0.7605 0.65276 0.8029 0.0
C1185 C 0.78161 0.6467 0.78984 0.0
C1186 C 0.69547 0.6712 0.84386 0.0
C1187 C 0.69707 0.69377 0.85612 0.0
C1188 C 0.7167 0.65923 0.83598 0.0
C1189 C 0.7399 0.66968 0.84017 0.0
C1190 C 0.7415 0.69131 0.85408 0.0
C1191 C 0.72028 0.70322 0.86201 0.0
H1192 H 0.68528 0.82325 0.67615 0.0
H1193 H 0.74199 0.84917 0.72503 0.0
H1194 H 0.66211 0.80799 0.71134 0.0
H1195 H 0.71922 0.83353 0.76 0.0
H1196 H 0.66649 0.81472 0.82064 0.0
H1197 H 0.68236 0.83707 0.78512 0.0
H1198 H 0.66866 0.77385 0.73933 0.0
H1199 H 0.65248 0.75185 0.77449 0.0
C1200 C 0.69265 0.8259 0.69441 0.0
C1201 C 0.71551 0.83716 0.69786 0.0
C1202 C 0.67946 0.81709 0.71453 0.0
C1203 C 0.68893 0.81941 0.73842 0.0
C1204 C 0.71128 0.83169 0.74188 0.0
C1205 C 0.72443 0.84048 0.72181 0.0
C1206 C 0.66665 0.80577 0.8029 0.0
C1207 C 0.65845 0.78152 0.80033 0.0
C1208 C 0.67578 0.81851 0.78261 0.0
C1209 C 0.67679 0.8072 0.75944 0.0
C1210 C 0.66781 0.78322 0.75682 0.0
C1211 C 0.65875 0.77052 0.77704 0.0
H1212 H 0.73645 0.11796 0.27072 0.0
H1213 H 0.68337 0.16217 0.30947 0.0
H1214 H 0.71592 0.12699 0.23206 0.0
H1215 H 0.66329 0.17197 0.27075 0.0
H1216 H 0.6233 0.17758 0.20009 0.0
H1217 H 0.63971 0.15781 0.23668 0.0
H1218 H 0.71265 0.16185 0.20593 0.0
H1219 H 0.69604 0.1808 0.16905 0.0
C1220 C 0.72028 0.12951 0.27096 0.0
C1221 C 0.71158 0.13954 0.29305 0.0
C1222 C 0.70859 0.13478 0.2488 0.0
C1223 C 0.68809 0.15038 0.24822 0.0
C1224 C 0.67884 0.15962 0.2705 0.0
C1225 C 0.69042 0.15415 0.29271 0.0
C1226 C 0.64277 0.17372 0.20097 0.0
C1227 C 0.65845 0.18087 0.18184 0.0
C1228 C 0.6522 0.16259 0.22201 0.0
C1229 C 0.67754 0.15859 0.22445 0.0
C1230 C 0.693 0.16444 0.20463 0.0
C1231 C 0.68352 0.17538 0.18348 0.0
H1232 H 0.31684 0.17693 0.68497 0.0
H1233 H 0.28232 0.11705 0.7234 0.0
H1234 H 0.33797 0.18884 0.72249 0.0
H1235 H 0.30443 0.12795 0.76065 0.0
H1236 H 0.31165 0.18059 0.82654 0.0
H1237 H 0.29965 0.15915 0.78947 0.0
H1238 H 0.36664 0.18259 0.75411 0.0
H1239 H 0.378 0.2051 0.79109 0.0
C1240 C 0.3144 0.16588 0.7013 0.0
C1241 C 0.29771 0.14635 0.70147 0.0
C1242 C 0.32661 0.17258 0.72283 0.0
C1243 C 0.32265 0.15958 0.74482 0.0
C1244 C 0.30741 0.1388 0.7443 0.0
C1245 C 0.29486 0.13244 0.72292 0.0
C1246 C 0.32405 0.18073 0.81102 0.0
C1247 C 0.34558 0.19474 0.81157 0.0
C1248 C 0.31725 0.1683 0.78971 0.0
C1249 C 0.33203 0.16932 0.76856 0.0
C1250 C 0.35453 0.18186 0.76982 0.0
C1251 C 0.36115 0.19459 0.79107 0.0
H1252 H 0.26946 0.86852 0.27137 0.0
H1253 H 0.30522 0.81258 0.31451 0.0
H1254 H 0.29165 0.85495 0.23509 0.0
H1255 H 0.32654 0.79806 0.27805 0.0
H1256 H 0.37216 0.7827 0.2124 0.0
H1257 H 0.35641 0.80472 0.24792 0.0
H1258 H 0.29037 0.82211 0.20747 0.0
H1259 H 0.30683 0.80115 0.17165 0.0
C1260 C 0.28215 0.85333 0.27306 0.0
C1261 C 0.28556 0.84148 0.29567 0.0
C1262 C 0.29476 0.84543 0.25223 0.0
C1263 C 0.31073 0.82522 0.25347 0.0
C1264 C 0.31469 0.8139 0.27638 0.0
C1265 C 0.30237 0.8221 0.2973 0.0
C1266 C 0.35448 0.79167 0.21102 0.0
C1267 C 0.34062 0.79016 0.18937 0.0
C1268 C 0.34534 0.8041 0.23145 0.0
C1269 C 0.32193 0.81492 0.23079 0.0
C1270 C 0.30859 0.8143 0.20866 0.0
C1271 C 0.31794 0.8022 0.18809 0.0
loop_
_geom_bond_atom_site_label_1
_geom_bond_atom_site_label_2
_geom_bond_distance
_geom_bond_site_symmetry_2
_ccdc_geom_bond_type
In0 O1 2.294 . S
In0 O2 2.326 . S
In0 O6 2.266 . S
In0 O7 2.326 . S
In0 O8 2.266 . S
In0 O9 2.326 . S
In0 O11 2.294 . S
In0 O12 2.326 . S
O1 In0 2.294 . S
O1 C10 1.240 . S
O2 In0 2.326 . S
O2 C10 1.252 . S
C3 O6 1.252 . S
C3 O7 1.260 . S
C4 O11 1.240 . S
C4 O12 1.252 . S
C5 O8 1.252 . S
C5 O9 1.260 . S
O6 In0 2.266 . S
O6 C3 1.252 . S
O7 In0 2.326 . S
O7 C3 1.260 . S
O8 In0 2.266 . S
O8 C5 1.252 . S
O9 In0 2.326 . S
O9 C5 1.260 . S
C10 O1 1.240 . S
C10 O2 1.252 . S
O11 In0 2.294 . S
O11 C4 1.240 . S
O12 In0 2.326 . S
O12 C4 1.252 . S
In13 O14 2.294 . S
In13 O15 2.326 . S
In13 O19 2.266 . S
In13 O20 2.326 . S
In13 O21 2.266 . S
In13 O22 2.326 . S
In13 O24 2.294 . S
In13 O25 2.326 . S
O14 In13 2.294 . S
O14 C23 1.240 . S
O15 In13 2.326 . S
O15 C23 1.252 . S
C16 O19 1.252 . S
C16 O20 1.260 . S
C17 O24 1.240 . S
C17 O25 1.252 . S
C18 O21 1.252 . S
C18 O22 1.260 . S
O19 In13 2.266 . S
O19 C16 1.252 . S
O20 In13 2.326 . S
O20 C16 1.260 . S
O21 In13 2.266 . S
O21 C18 1.252 . S
O22 In13 2.326 . S
O22 C18 1.260 . S
C23 O14 1.240 . S
C23 O15 1.252 . S
O24 In13 2.294 . S
O24 C17 1.240 . S
O25 In13 2.326 . S
O25 C17 1.252 . S
In26 O27 2.294 . S
In26 O28 2.326 . S
In26 O32 2.266 . S
In26 O33 2.326 . S
In26 O34 2.266 . S
In26 O35 2.326 . S
In26 O37 2.294 . S
In26 O38 2.326 . S
O27 In26 2.294 . S
O27 C36 1.240 . S
O28 In26 2.326 . S
O28 C36 1.252 . S
C29 O32 1.252 . S
C29 O33 1.260 . S
C30 O37 1.240 . S
C30 O38 1.252 . S
C31 O34 1.252 . S
C31 O35 1.260 . S
O32 In26 2.266 . S
O32 C29 1.252 . S
O33 In26 2.326 . S
O33 C29 1.260 . S
O34 In26 2.266 . S
O34 C31 1.252 . S
O35 In26 2.326 . S
O35 C31 1.260 . S
C36 O27 1.240 . S
C36 O28 1.252 . S
O37 In26 2.294 . S
O37 C30 1.240 . S
O38 In26 2.326 . S
O38 C30 1.252 . S
In39 O40 2.294 . S
In39 O41 2.326 . S
In39 O45 2.266 . S
In39 O46 2.326 . S
In39 O47 2.266 . S
In39 O48 2.326 . S
In39 O50 2.294 . S
In39 O51 2.326 . S
O40 In39 2.294 . S
O40 C49 1.240 . S
O41 In39 2.326 . S
O41 C49 1.252 . S
C42 O45 1.252 . S
C42 O46 1.260 . S
C43 O50 1.240 . S
C43 O51 1.252 . S
C44 O47 1.252 . S
C44 O48 1.260 . S
O45 In39 2.266 . S
O45 C42 1.252 . S
O46 In39 2.326 . S
O46 C42 1.260 . S
O47 In39 2.266 . S
O47 C44 1.252 . S
O48 In39 2.326 . S
O48 C44 1.260 . S
C49 O40 1.240 . S
C49 O41 1.252 . S
O50 In39 2.294 . S
O50 C43 1.240 . S
O51 In39 2.326 . S
O51 C43 1.252 . S
In52 O53 2.294 . S
In52 O54 2.326 . S
In52 O58 2.266 . S
In52 O59 2.326 . S
In52 O60 2.266 . S
In52 O61 2.326 . S
In52 O63 2.294 . S
In52 O64 2.326 . S
O53 In52 2.294 . S
O53 C62 1.240 . S
O54 In52 2.326 . S
O54 C62 1.252 . S
C55 O58 1.252 . S
C55 O59 1.260 . S
C56 O63 1.240 . S
C56 O64 1.252 . S
C57 O60 1.252 . S
C57 O61 1.260 . S
O58 In52 2.266 . S
O58 C55 1.252 . S
O59 In52 2.326 . S
O59 C55 1.260 . S
O60 In52 2.266 . S
O60 C57 1.252 . S
O61 In52 2.326 . S
O61 C57 1.260 . S
C62 O53 1.240 . S
C62 O54 1.252 . S
O63 In52 2.294 . S
O63 C56 1.240 . S
O64 In52 2.326 . S
O64 C56 1.252 . S
In65 O66 2.294 . S
In65 O67 2.326 . S
In65 O71 2.266 . S
In65 O72 2.326 . S
In65 O73 2.266 . S
In65 O74 2.326 . S
In65 O76 2.294 . S
In65 O77 2.326 . S
O66 In65 2.294 . S
O66 C75 1.240 . S
O67 In65 2.326 . S
O67 C75 1.252 . S
C68 O71 1.252 . S
C68 O72 1.260 . S
C69 O76 1.240 . S
C69 O77 1.252 . S
C70 O73 1.252 . S
C70 O74 1.260 . S
O71 In65 2.266 . S
O71 C68 1.252 . S
O72 In65 2.326 . S
O72 C68 1.260 . S
O73 In65 2.266 . S
O73 C70 1.252 . S
O74 In65 2.326 . S
O74 C70 1.260 . S
C75 O66 1.240 . S
C75 O67 1.252 . S
O76 In65 2.294 . S
O76 C69 1.240 . S
O77 In65 2.326 . S
O77 C69 1.252 . S
In78 O79 2.294 . S
In78 O80 2.326 . S
In78 O84 2.266 . S
In78 O85 2.326 . S
In78 O86 2.266 . S
In78 O87 2.326 . S
In78 O89 2.294 . S
In78 O90 2.326 . S
O79 In78 2.294 . S
O79 C88 1.240 . S
O80 In78 2.326 . S
O80 C88 1.252 . S
C81 O84 1.252 . S
C81 O85 1.260 . S
C82 O89 1.240 . S
C82 O90 1.252 . S
C83 O86 1.252 . S
C83 O87 1.260 . S
O84 In78 2.266 . S
O84 C81 1.252 . S
O85 In78 2.326 . S
O85 C81 1.260 . S
O86 In78 2.266 . S
O86 C83 1.252 . S
O87 In78 2.326 . S
O87 C83 1.260 . S
C88 O79 1.240 . S
C88 O80 1.252 . S
O89 In78 2.294 . S
O89 C82 1.240 . S
O90 In78 2.326 . S
O90 C82 1.252 . S
In91 O92 2.294 . S
In91 O93 2.326 . S
In91 O97 2.266 . S
In91 O98 2.326 . S
In91 O99 2.266 . S
In91 O100 2.326 . S
In91 O102 2.294 . S
In91 O103 2.326 . S
O92 In91 2.294 . S
O92 C101 1.240 . S
O93 In91 2.326 . S
O93 C101 1.252 . S
C94 O97 1.252 . S
C94 O98 1.260 . S
C95 O102 1.240 . S
C95 O103 1.252 . S
C96 O99 1.252 . S
C96 O100 1.260 . S
O97 In91 2.266 . S
O97 C94 1.252 . S
O98 In91 2.326 . S
O98 C94 1.260 . S
O99 In91 2.266 . S
O99 C96 1.252 . S
O100 In91 2.326 . S
O100 C96 1.260 . S
C101 O92 1.240 . S
C101 O93 1.252 . S
O102 In91 2.294 . S
O102 C95 1.240 . S
O103 In91 2.326 . S
O103 C95 1.252 . S
In104 O105 2.294 . S
In104 O106 2.326 . S
In104 O110 2.266 . S
In104 O111 2.326 . S
In104 O112 2.266 . S
In104 O113 2.326 . S
In104 O115 2.294 . S
In104 O116 2.326 . S
O105 In104 2.294 . S
O105 C114 1.240 . S
O106 In104 2.326 . S
O106 C114 1.252 . S
C107 O110 1.252 . S
C107 O111 1.260 . S
C108 O115 1.240 . S
C108 O116 1.252 . S
C109 O112 1.252 . S
C109 O113 1.260 . S
O110 In104 2.266 . S
O110 C107 1.252 . S
O111 In104 2.326 . S
O111 C107 1.260 . S
O112 In104 2.266 . S
O112 C109 1.252 . S
O113 In104 2.326 . S
O113 C109 1.260 . S
C114 O105 1.240 . S
C114 O106 1.252 . S
O115 In104 2.294 . S
O115 C108 1.240 . S
O116 In104 2.326 . S
O116 C108 1.252 . S
In117 O118 2.294 . S
In117 O119 2.326 . S
In117 O123 2.266 . S
In117 O124 2.326 . S
In117 O125 2.266 . S
In117 O126 2.326 . S
In117 O128 2.294 . S
In117 O129 2.326 . S
O118 In117 2.294 . S
O118 C127 1.240 . S
O119 In117 2.326 . S
O119 C127 1.252 . S
C120 O123 1.252 . S
C120 O124 1.260 . S
C121 O128 1.240 . S
C121 O129 1.252 . S
C122 O125 1.252 . S
C122 O126 1.260 . S
O123 In117 2.266 . S
O123 C120 1.252 . S
O124 In117 2.326 . S
O124 C120 1.260 . S
O125 In117 2.266 . S
O125 C122 1.252 . S
O126 In117 2.326 . S
O126 C122 1.260 . S
C127 O118 1.240 . S
C127 O119 1.252 . S
O128 In117 2.294 . S
O128 C121 1.240 . S
O129 In117 2.326 . S
O129 C121 1.252 . S
In130 O131 2.294 . S
In130 O132 2.326 . S
In130 O136 2.266 . S
In130 O137 2.326 . S
In130 O138 2.266 . S
In130 O139 2.326 . S
In130 O141 2.294 . S
In130 O142 2.326 . S
O131 In130 2.294 . S
O131 C140 1.240 . S
O132 In130 2.326 . S
O132 C140 1.252 . S
C133 O136 1.252 . S
C133 O137 1.260 . S
C134 O141 1.240 . S
C134 O142 1.252 . S
C135 O138 1.252 . S
C135 O139 1.260 . S
O136 In130 2.266 . S
O136 C133 1.252 . S
O137 In130 2.326 . S
O137 C133 1.260 . S
O138 In130 2.266 . S
O138 C135 1.252 . S
O139 In130 2.326 . S
O139 C135 1.260 . S
C140 O131 1.240 . S
C140 O132 1.252 . S
O141 In130 2.294 . S
O141 C134 1.240 . S
O142 In130 2.326 . S
O142 C134 1.252 . S
In143 O144 2.294 . S
In143 O145 2.326 . S
In143 O149 2.266 . S
In143 O150 2.326 . S
In143 O151 2.266 . S
In143 O152 2.326 . S
In143 O154 2.294 . S
In143 O155 2.326 . S
O144 In143 2.294 . S
O144 C153 1.240 . S
O145 In143 2.326 . S
O145 C153 1.252 . S
C146 O149 1.252 . S
C146 O150 1.260 . S
C147 O154 1.240 . S
C147 O155 1.252 . S
C148 O151 1.252 . S
C148 O152 1.260 . S
O149 In143 2.266 . S
O149 C146 1.252 . S
O150 In143 2.326 . S
O150 C146 1.260 . S
O151 In143 2.266 . S
O151 C148 1.252 . S
O152 In143 2.326 . S
O152 C148 1.260 . S
C153 O144 1.240 . S
C153 O145 1.252 . S
O154 In143 2.294 . S
O154 C147 1.240 . S
O155 In143 2.326 . S
O155 C147 1.252 . S
In156 O157 2.294 . S
In156 O158 2.326 . S
In156 O162 2.266 . S
In156 O163 2.326 . S
In156 O164 2.266 . S
In156 O165 2.326 . S
In156 O167 2.294 . S
In156 O168 2.326 . S
O157 In156 2.294 . S
O157 C166 1.240 . S
O158 In156 2.326 . S
O158 C166 1.252 . S
C159 O162 1.252 . S
C159 O163 1.260 . S
C160 O167 1.240 . S
C160 O168 1.252 . S
C161 O164 1.252 . S
C161 O165 1.260 . S
O162 In156 2.266 . S
O162 C159 1.252 . S
O163 In156 2.326 . S
O163 C159 1.260 . S
O164 In156 2.266 . S
O164 C161 1.252 . S
O165 In156 2.326 . S
O165 C161 1.260 . S
C166 O157 1.240 . S
C166 O158 1.252 . S
O167 In156 2.294 . S
O167 C160 1.240 . S
O168 In156 2.326 . S
O168 C160 1.252 . S
In169 O170 2.294 . S
In169 O171 2.326 . S
In169 O175 2.266 . S
In169 O176 2.326 . S
In169 O177 2.266 . S
In169 O178 2.326 . S
In169 O180 2.294 . S
In169 O181 2.326 . S
O170 In169 2.294 . S
O170 C179 1.240 . S
O171 In169 2.326 . S
O171 C179 1.252 . S
C172 O175 1.252 . S
C172 O176 1.260 . S
C173 O180 1.240 . S
C173 O181 1.252 . S
C174 O177 1.252 . S
C174 O178 1.260 . S
O175 In169 2.266 . S
O175 C172 1.252 . S
O176 In169 2.326 . S
O176 C172 1.260 . S
O177 In169 2.266 . S
O177 C174 1.252 . S
O178 In169 2.326 . S
O178 C174 1.260 . S
C179 O170 1.240 . S
C179 O171 1.252 . S
O180 In169 2.294 . S
O180 C173 1.240 . S
O181 In169 2.326 . S
O181 C173 1.252 . S
In182 O183 2.294 . S
In182 O184 2.326 . S
In182 O188 2.266 . S
In182 O189 2.326 . S
In182 O190 2.266 . S
In182 O191 2.326 . S
In182 O193 2.294 . S
In182 O194 2.326 . S
O183 In182 2.294 . S
O183 C192 1.240 . S
O184 In182 2.326 . S
O184 C192 1.252 . S
C185 O188 1.252 . S
C185 O189 1.260 . S
C186 O193 1.240 . S
C186 O194 1.252 . S
C187 O190 1.252 . S
C187 O191 1.260 . S
O188 In182 2.266 . S
O188 C185 1.252 . S
O189 In182 2.326 . S
O189 C185 1.260 . S
O190 In182 2.266 . S
O190 C187 1.252 . S
O191 In182 2.326 . S
O191 C187 1.260 . S
C192 O183 1.240 . S
C192 O184 1.252 . S
O193 In182 2.294 . S
O193 C186 1.240 . S
O194 In182 2.326 . S
O194 C186 1.252 . S
In195 O196 2.294 . S
In195 O197 2.326 . S
In195 O201 2.266 . S
In195 O202 2.326 . S
In195 O203 2.266 . S
In195 O204 2.326 . S
In195 O206 2.294 . S
In195 O207 2.326 . S
O196 In195 2.294 . S
O196 C205 1.240 . S
O197 In195 2.326 . S
O197 C205 1.252 . S
C198 O201 1.252 . S
C198 O202 1.260 . S
C199 O206 1.240 . S
C199 O207 1.252 . S
C200 O203 1.252 . S
C200 O204 1.260 . S
O201 In195 2.266 . S
O201 C198 1.252 . S
O202 In195 2.326 . S
O202 C198 1.260 . S
O203 In195 2.266 . S
O203 C200 1.252 . S
O204 In195 2.326 . S
O204 C200 1.260 . S
C205 O196 1.240 . S
C205 O197 1.252 . S
O206 In195 2.294 . S
O206 C199 1.240 . S
O207 In195 2.326 . S
O207 C199 1.252 . S
In208 O209 2.294 . S
In208 O210 2.326 . S
In208 O214 2.266 . S
In208 O215 2.326 . S
In208 O216 2.266 . S
In208 O217 2.326 . S
In208 O219 2.294 . S
In208 O220 2.326 . S
O209 In208 2.294 . S
O209 C218 1.240 . S
O210 In208 2.326 . S
O210 C218 1.252 . S
C211 O214 1.252 . S
C211 O215 1.260 . S
C212 O219 1.240 . S
C212 O220 1.252 . S
C213 O216 1.252 . S
C213 O217 1.260 . S
O214 In208 2.266 . S
O214 C211 1.252 . S
O215 In208 2.326 . S
O215 C211 1.260 . S
O216 In208 2.266 . S
O216 C213 1.252 . S
O217 In208 2.326 . S
O217 C213 1.260 . S
C218 O209 1.240 . S
C218 O210 1.252 . S
O219 In208 2.294 . S
O219 C212 1.240 . S
O220 In208 2.326 . S
O220 C212 1.252 . S
In221 O222 2.294 . S
In221 O223 2.326 . S
In221 O227 2.266 . S
In221 O228 2.326 . S
In221 O229 2.266 . S
In221 O230 2.326 . S
In221 O232 2.294 . S
In221 O233 2.326 . S
O222 In221 2.294 . S
O222 C231 1.240 . S
O223 In221 2.326 . S
O223 C231 1.252 . S
C224 O227 1.252 . S
C224 O228 1.260 . S
C225 O232 1.240 . S
C225 O233 1.252 . S
C226 O229 1.252 . S
C226 O230 1.260 . S
O227 In221 2.266 . S
O227 C224 1.252 . S
O228 In221 2.326 . S
O228 C224 1.260 . S
O229 In221 2.266 . S
O229 C226 1.252 . S
O230 In221 2.326 . S
O230 C226 1.260 . S
C231 O222 1.240 . S
C231 O223 1.252 . S
O232 In221 2.294 . S
O232 C225 1.240 . S
O233 In221 2.326 . S
O233 C225 1.252 . S
In234 O235 2.294 . S
In234 O236 2.326 . S
In234 O240 2.266 . S
In234 O241 2.326 . S
In234 O242 2.266 . S
In234 O243 2.326 . S
In234 O245 2.294 . S
In234 O246 2.326 . S
O235 In234 2.294 . S
O235 C244 1.240 . S
O236 In234 2.326 . S
O236 C244 1.252 . S
C237 O240 1.252 . S
C237 O241 1.260 . S
C238 O245 1.240 . S
C238 O246 1.252 . S
C239 O242 1.252 . S
C239 O243 1.260 . S
O240 In234 2.266 . S
O240 C237 1.252 . S
O241 In234 2.326 . S
O241 C237 1.260 . S
O242 In234 2.266 . S
O242 C239 1.252 . S
O243 In234 2.326 . S
O243 C239 1.260 . S
C244 O235 1.240 . S
C244 O236 1.252 . S
O245 In234 2.294 . S
O245 C238 1.240 . S
O246 In234 2.326 . S
O246 C238 1.252 . S
In247 O248 2.294 . S
In247 O249 2.326 . S
In247 O253 2.266 . S
In247 O254 2.326 . S
In247 O255 2.266 . S
In247 O256 2.326 . S
In247 O258 2.294 . S
In247 O259 2.326 . S
O248 In247 2.294 . S
O248 C257 1.240 . S
O249 In247 2.326 . S
O249 C257 1.252 . S
C250 O253 1.252 . S
C250 O254 1.260 . S
C251 O258 1.240 . S
C251 O259 1.252 . S
C252 O255 1.252 . S
C252 O256 1.260 . S
O253 In247 2.266 . S
O253 C250 1.252 . S
O254 In247 2.326 . S
O254 C250 1.260 . S
O255 In247 2.266 . S
O255 C252 1.252 . S
O256 In247 2.326 . S
O256 C252 1.260 . S
C257 O248 1.240 . S
C257 O249 1.252 . S
O258 In247 2.294 . S
O258 C251 1.240 . S
O259 In247 2.326 . S
O259 C251 1.252 . S
In260 O261 2.294 . S
In260 O262 2.326 . S
In260 O266 2.266 . S
In260 O267 2.326 . S
In260 O268 2.266 . S
In260 O269 2.326 . S
In260 O271 2.294 . S
In260 O272 2.326 . S
O261 In260 2.294 . S
O261 C270 1.240 . S
O262 In260 2.326 . S
O262 C270 1.252 . S
C263 O266 1.252 . S
C263 O267 1.260 . S
C264 O271 1.240 . S
C264 O272 1.252 . S
C265 O268 1.252 . S
C265 O269 1.260 . S
O266 In260 2.266 . S
O266 C263 1.252 . S
O267 In260 2.326 . S
O267 C263 1.260 . S
O268 In260 2.266 . S
O268 C265 1.252 . S
O269 In260 2.326 . S
O269 C265 1.260 . S
C270 O261 1.240 . S
C270 O262 1.252 . S
O271 In260 2.294 . S
O271 C264 1.240 . S
O272 In260 2.326 . S
O272 C264 1.252 . S
In273 O274 2.294 . S
In273 O275 2.326 . S
In273 O279 2.266 . S
In273 O280 2.326 . S
In273 O281 2.266 . S
In273 O282 2.326 . S
In273 O284 2.294 . S
In273 O285 2.326 . S
O274 In273 2.294 . S
O274 C283 1.240 . S
O275 In273 2.326 . S
O275 C283 1.252 . S
C276 O279 1.252 . S
C276 O280 1.260 . S
C277 O284 1.240 . S
C277 O285 1.252 . S
C278 O281 1.252 . S
C278 O282 1.260 . S
O279 In273 2.266 . S
O279 C276 1.252 . S
O280 In273 2.326 . S
O280 C276 1.260 . S
O281 In273 2.266 . S
O281 C278 1.252 . S
O282 In273 2.326 . S
O282 C278 1.260 . S
C283 O274 1.240 . S
C283 O275 1.252 . S
O284 In273 2.294 . S
O284 C277 1.240 . S
O285 In273 2.326 . S
O285 C277 1.252 . S
In286 O287 2.294 . S
In286 O288 2.326 . S
In286 O292 2.266 . S
In286 O293 2.326 . S
In286 O294 2.266 . S
In286 O295 2.326 . S
In286 O297 2.294 . S
In286 O298 2.326 . S
O287 In286 2.294 . S
O287 C296 1.240 . S
O288 In286 2.326 . S
O288 C296 1.252 . S
C289 O292 1.252 . S
C289 O293 1.260 . S
C290 O297 1.240 . S
C290 O298 1.252 . S
C291 O294 1.252 . S
C291 O295 1.260 . S
O292 In286 2.266 . S
O292 C289 1.252 . S
O293 In286 2.326 . S
O293 C289 1.260 . S
O294 In286 2.266 . S
O294 C291 1.252 . S
O295 In286 2.326 . S
O295 C291 1.260 . S
C296 O287 1.240 . S
C296 O288 1.252 . S
O297 In286 2.294 . S
O297 C290 1.240 . S
O298 In286 2.326 . S
O298 C290 1.252 . S
In299 O300 2.294 . S
In299 O301 2.326 . S
In299 O305 2.266 . S
In299 O306 2.326 . S
In299 O307 2.266 . S
In299 O308 2.326 . S
In299 O310 2.294 . S
In299 O311 2.326 . S
O300 In299 2.294 . S
O300 C309 1.240 . S
O301 In299 2.326 . S
O301 C309 1.252 . S
C302 O305 1.252 . S
C302 O306 1.260 . S
C303 O310 1.240 . S
C303 O311 1.252 . S
C304 O307 1.252 . S
C304 O308 1.260 . S
O305 In299 2.266 . S
O305 C302 1.252 . S
O306 In299 2.326 . S
O306 C302 1.260 . S
O307 In299 2.266 . S
O307 C304 1.252 . S
O308 In299 2.326 . S
O308 C304 1.260 . S
C309 O300 1.240 . S
C309 O301 1.252 . S
O310 In299 2.294 . S
O310 C303 1.240 . S
O311 In299 2.326 . S
O311 C303 1.252 . S
H312 C320 0.950 . S
H313 C325 0.950 . S
H314 C322 0.950 . S
H315 C324 0.950 . S
H316 C326 0.950 . S
H317 C328 0.950 . S
H318 C330 0.950 . S
H319 C331 0.950 . S
C320 H312 0.950 . S
C320 C321 1.386 . S
C320 C322 1.391 . S
C321 C320 1.386 . S
C321 C325 1.393 . S
C322 H314 0.950 . S
C322 C320 1.391 . S
C322 C323 1.400 . S
C323 C322 1.400 . S
C323 C324 1.398 . S
C323 C329 1.491 . S
C324 H315 0.950 . S
C324 C323 1.398 . S
C324 C325 1.391 . S
C325 H313 0.950 . S
C325 C321 1.393 . S
C325 C324 1.391 . S
C326 H316 0.950 . S
C326 C327 1.386 . S
C326 C328 1.391 . S
C327 C326 1.386 . S
C327 C331 1.393 . S
C328 H317 0.950 . S
C328 C326 1.391 . S
C328 C329 1.400 . S
C329 C323 1.491 . S
C329 C328 1.400 . S
C329 C330 1.398 . S
C330 H318 0.950 . S
C330 C329 1.398 . S
C330 C331 1.391 . S
C331 H319 0.950 . S
C331 C327 1.393 . S
C331 C330 1.391 . S
H332 C340 0.950 . S
H333 C345 0.950 . S
H334 C342 0.950 . S
H335 C344 0.950 . S
H336 C346 0.950 . S
H337 C348 0.950 . S
H338 C350 0.950 . S
H339 C351 0.950 . S
C340 H332 0.950 . S
C340 C341 1.386 . S
C340 C342 1.391 . S
C341 C340 1.386 . S
C341 C345 1.393 . S
C342 H334 0.950 . S
C342 C340 1.391 . S
C342 C343 1.400 . S
C343 C342 1.400 . S
C343 C344 1.398 . S
C343 C349 1.491 1_655 S
C344 H335 0.950 . S
C344 C343 1.398 . S
C344 C345 1.391 . S
C345 H333 0.950 . S
C345 C341 1.393 . S
C345 C344 1.391 . S
C346 H336 0.950 . S
C346 C347 1.386 . S
C346 C348 1.391 . S
C347 C346 1.386 . S
C347 C351 1.393 . S
C348 H337 0.950 . S
C348 C346 1.391 . S
C348 C349 1.400 . S
C349 C343 1.491 1_455 S
C349 C348 1.400 . S
C349 C350 1.398 . S
C350 H338 0.950 . S
C350 C349 1.398 . S
C350 C351 1.391 . S
C351 H339 0.950 . S
C351 C347 1.393 . S
C351 C350 1.391 . S
H352 C360 0.950 . S
H353 C365 0.950 . S
H354 C362 0.950 . S
H355 C364 0.950 . S
H356 C366 0.950 . S
H357 C368 0.950 . S
H358 C370 0.950 . S
H359 C371 0.950 . S
C360 H352 0.950 . S
C360 C361 1.386 . S
C360 C362 1.391 . S
C361 C360 1.386 . S
C361 C365 1.393 . S
C362 H354 0.950 . S
C362 C360 1.391 . S
C362 C363 1.400 . S
C363 C362 1.400 . S
C363 C364 1.398 . S
C363 C369 1.491 . S
C364 H355 0.950 . S
C364 C363 1.398 . S
C364 C365 1.391 . S
C365 H353 0.950 . S
C365 C361 1.393 . S
C365 C364 1.391 . S
C366 H356 0.950 . S
C366 C367 1.386 . S
C366 C368 1.391 . S
C367 C366 1.386 . S
C367 C371 1.393 . S
C368 H357 0.950 . S
C368 C366 1.391 . S
C368 C369 1.400 . S
C369 C363 1.491 . S
C369 C368 1.400 . S
C369 C370 1.398 . S
C370 H358 0.950 . S
C370 C369 1.398 . S
C370 C371 1.391 . S
C371 H359 0.950 . S
C371 C367 1.393 . S
C371 C370 1.391 . S
H372 C380 0.950 . S
H373 C385 0.950 . S
H374 C382 0.950 . S
H375 C384 0.950 . S
H376 C386 0.950 . S
H377 C388 0.950 . S
H378 C390 0.950 . S
H379 C391 0.950 . S
C380 H372 0.950 . S
C380 C381 1.386 . S
C380 C382 1.391 . S
C381 C380 1.386 . S
C381 C385 1.393 . S
C382 H374 0.950 . S
C382 C380 1.391 . S
C382 C383 1.400 . S
C383 C382 1.400 . S
C383 C384 1.398 . S
C383 C389 1.491 1_455 S
C384 H375 0.950 . S
C384 C383 1.398 . S
C384 C385 1.391 . S
C385 H373 0.950 . S
C385 C381 1.393 . S
C385 C384 1.391 . S
C386 H376 0.950 . S
C386 C387 1.386 . S
C386 C388 1.391 . S
C387 C386 1.386 . S
C387 C391 1.393 . S
C388 H377 0.950 . S
C388 C386 1.391 . S
C388 C389 1.400 . S
C389 C383 1.491 1_655 S
C389 C388 1.400 . S
C389 C390 1.398 . S
C390 H378 0.950 . S
C390 C389 1.398 . S
C390 C391 1.391 . S
C391 H379 0.950 . S
C391 C387 1.393 . S
C391 C390 1.391 . S
H392 C400 0.950 . S
H393 C405 0.950 . S
H394 C402 0.950 . S
H395 C404 0.950 . S
H396 C406 0.950 . S
H397 C408 0.950 . S
H398 C410 0.950 . S
H399 C411 0.950 . S
C400 H392 0.950 . S
C400 C401 1.386 . S
C400 C402 1.391 . S
C401 C400 1.386 . S
C401 C405 1.393 . S
C402 H394 0.950 . S
C402 C400 1.391 . S
C402 C403 1.400 . S
C403 C402 1.400 . S
C403 C404 1.398 . S
C403 C409 1.491 . S
C404 H395 0.950 . S
C404 C403 1.398 . S
C404 C405 1.391 . S
C405 H393 0.950 . S
C405 C401 1.393 . S
C405 C404 1.391 . S
C406 H396 0.950 . S
C406 C407 1.386 . S
C406 C408 1.391 . S
C407 C406 1.386 . S
C407 C411 1.393 . S
C408 H397 0.950 . S
C408 C406 1.391 . S
C408 C409 1.400 . S
C409 C403 1.491 . S
C409 C408 1.400 . S
C409 C410 1.398 . S
C410 H398 0.950 . S
C410 C409 1.398 . S
C410 C411 1.391 . S
C411 H399 0.950 . S
C411 C407 1.393 . S
C411 C410 1.391 . S
H412 C420 0.950 . S
H413 C425 0.950 . S
H414 C422 0.950 . S
H415 C424 0.950 . S
H416 C426 0.950 . S
H417 C428 0.950 . S
H418 C430 0.950 . S
H419 C431 0.950 . S
C420 H412 0.950 . S
C420 C421 1.386 . S
C420 C422 1.391 . S
C421 C420 1.386 . S
C421 C425 1.393 . S
C422 H414 0.950 . S
C422 C420 1.391 . S
C422 C423 1.400 . S
C423 C422 1.400 . S
C423 C424 1.398 . S
C423 C429 1.491 1_655 S
C424 H415 0.950 . S
C424 C423 1.398 . S
C424 C425 1.391 . S
C425 H413 0.950 . S
C425 C421 1.393 . S
C425 C424 1.391 . S
C426 H416 0.950 . S
C426 C427 1.386 . S
C426 C428 1.391 . S
C427 C426 1.386 . S
C427 C431 1.393 . S
C428 H417 0.950 . S
C428 C426 1.391 . S
C428 C429 1.400 . S
C429 C423 1.491 1_455 S
C429 C428 1.400 . S
C429 C430 1.398 . S
C430 H418 0.950 . S
C430 C429 1.398 . S
C430 C431 1.391 . S
C431 H419 0.950 . S
C431 C427 1.393 . S
C431 C430 1.391 . S
H432 C440 0.950 . S
H433 C445 0.950 . S
H434 C442 0.950 . S
H435 C444 0.950 . S
H436 C446 0.950 . S
H437 C448 0.950 . S
H438 C450 0.950 . S
H439 C451 0.950 . S
C440 H432 0.950 . S
C440 C441 1.386 . S
C440 C442 1.391 . S
C441 C440 1.386 . S
C441 C445 1.393 . S
C442 H434 0.950 . S
C442 C440 1.391 . S
C442 C443 1.400 . S
C443 C442 1.400 . S
C443 C444 1.398 . S
C443 C449 1.491 . S
C444 H435 0.950 . S
C444 C443 1.398 . S
C444 C445 1.391 . S
C445 H433 0.950 . S
C445 C441 1.393 . S
C445 C444 1.391 . S
C446 H436 0.950 . S
C446 C447 1.386 . S
C446 C448 1.391 . S
C447 C446 1.386 . S
C447 C451 1.393 . S
C448 H437 0.950 . S
C448 C446 1.391 . S
C448 C449 1.400 . S
C449 C443 1.491 . S
C449 C448 1.400 . S
C449 C450 1.398 . S
C450 H438 0.950 . S
C450 C449 1.398 . S
C450 C451 1.391 . S
C451 H439 0.950 . S
C451 C447 1.393 . S
C451 C450 1.391 . S
H452 C460 0.950 . S
H453 C465 0.950 . S
H454 C462 0.950 . S
H455 C464 0.950 . S
H456 C466 0.950 . S
H457 C468 0.950 . S
H458 C470 0.950 . S
H459 C471 0.950 . S
C460 H452 0.950 . S
C460 C461 1.386 . S
C460 C462 1.391 . S
C461 C460 1.386 . S
C461 C465 1.393 . S
C462 H454 0.950 . S
C462 C460 1.391 . S
C462 C463 1.400 . S
C463 C462 1.400 . S
C463 C464 1.398 . S
C463 C469 1.491 1_655 S
C464 H455 0.950 . S
C464 C463 1.398 . S
C464 C465 1.391 . S
C465 H453 0.950 . S
C465 C461 1.393 . S
C465 C464 1.391 . S
C466 H456 0.950 . S
C466 C467 1.386 . S
C466 C468 1.391 . S
C467 C466 1.386 . S
C467 C471 1.393 . S
C468 H457 0.950 . S
C468 C466 1.391 . S
C468 C469 1.400 . S
C469 C463 1.491 1_455 S
C469 C468 1.400 . S
C469 C470 1.398 . S
C470 H458 0.950 . S
C470 C469 1.398 . S
C470 C471 1.391 . S
C471 H459 0.950 . S
C471 C467 1.393 . S
C471 C470 1.391 . S
H472 C480 0.950 . S
H473 C485 0.950 . S
H474 C482 0.950 . S
H475 C484 0.950 . S
H476 C486 0.950 . S
H477 C488 0.950 . S
H478 C490 0.950 . S
H479 C491 0.950 . S
C480 H472 0.950 . S
C480 C481 1.386 . S
C480 C482 1.391 . S
C481 C480 1.386 . S
C481 C485 1.393 . S
C482 H474 0.950 . S
C482 C480 1.391 . S
C482 C483 1.400 . S
C483 C482 1.400 . S
C483 C484 1.398 . S
C483 C489 1.491 . S
C484 H475 0.950 . S
C484 C483 1.398 . S
C484 C485 1.391 . S
C485 H473 0.950 . S
C485 C481 1.393 . S
C485 C484 1.391 . S
C486 H476 0.950 . S
C486 C487 1.386 . S
C486 C488 1.391 . S
C487 C486 1.386 . S
C487 C491 1.393 . S
C488 H477 0.950 . S
C488 C486 1.391 . S
C488 C489 1.400 . S
C489 C483 1.491 . S
C489 C488 1.400 . S
C489 C490 1.398 . S
C490 H478 0.950 . S
C490 C489 1.398 . S
C490 C491 1.391 . S
C491 H479 0.950 . S
C491 C487 1.393 . S
C491 C490 1.391 . S
H492 C500 0.950 . S
H493 C505 0.950 . S
H494 C502 0.950 . S
H495 C504 0.950 . S
H496 C506 0.950 . S
H497 C508 0.950 . S
H498 C510 0.950 . S
H499 C511 0.950 . S
C500 H492 0.950 . S
C500 C501 1.386 . S
C500 C502 1.391 . S
C501 C500 1.386 . S
C501 C505 1.393 . S
C502 H494 0.950 . S
C502 C500 1.391 . S
C502 C503 1.400 . S
C503 C502 1.400 . S
C503 C504 1.398 . S
C503 C509 1.491 1_556 S
C504 H495 0.950 . S
C504 C503 1.398 . S
C504 C505 1.391 . S
C505 H493 0.950 . S
C505 C501 1.393 . S
C505 C504 1.391 . S
C506 H496 0.950 . S
C506 C507 1.386 . S
C506 C508 1.391 . S
C507 C506 1.386 . S
C507 C511 1.393 . S
C508 H497 0.950 . S
C508 C506 1.391 . S
C508 C509 1.400 . S
C509 C503 1.491 1_554 S
C509 C508 1.400 . S
C509 C510 1.398 . S
C510 H498 0.950 . S
C510 C509 1.398 . S
C510 C511 1.391 . S
C511 H499 0.950 . S
C511 C507 1.393 . S
C511 C510 1.391 . S
H512 C520 0.950 . S
H513 C525 0.950 . S
H514 C522 0.950 . S
H515 C524 0.950 . S
H516 C526 0.950 . S
H517 C528 0.950 . S
H518 C530 0.950 . S
H519 C531 0.950 . S
C520 H512 0.950 . S
C520 C521 1.386 . S
C520 C522 1.391 . S
C521 C520 1.386 . S
C521 C525 1.393 . S
C522 H514 0.950 . S
C522 C520 1.391 . S
C522 C523 1.400 . S
C523 C522 1.400 . S
C523 C524 1.398 . S
C523 C529 1.491 . S
C524 H515 0.950 . S
C524 C523 1.398 . S
C524 C525 1.391 . S
C525 H513 0.950 . S
C525 C521 1.393 . S
C525 C524 1.391 . S
C526 H516 0.950 . S
C526 C527 1.386 . S
C526 C528 1.391 . S
C527 C526 1.386 . S
C527 C531 1.393 . S
C528 H517 0.950 . S
C528 C526 1.391 . S
C528 C529 1.400 . S
C529 C523 1.491 . S
C529 C528 1.400 . S
C529 C530 1.398 . S
C530 H518 0.950 . S
C530 C529 1.398 . S
C530 C531 1.391 . S
C531 H519 0.950 . S
C531 C527 1.393 . S
C531 C530 1.391 . S
H532 C540 0.950 . S
H533 C545 0.950 . S
H534 C542 0.950 . S
H535 C544 0.950 . S
H536 C546 0.950 . S
H537 C548 0.950 . S
H538 C550 0.950 . S
H539 C551 0.950 . S
C540 H532 0.950 . S
C540 C541 1.386 . S
C540 C542 1.391 . S
C541 C540 1.386 . S
C541 C545 1.393 . S
C542 H534 0.950 . S
C542 C540 1.391 . S
C542 C543 1.400 . S
C543 C542 1.400 . S
C543 C544 1.398 . S
C543 C549 1.491 1_554 S
C544 H535 0.950 . S
C544 C543 1.398 . S
C544 C545 1.391 . S
C545 H533 0.950 . S
C545 C541 1.393 . S
C545 C544 1.391 . S
C546 H536 0.950 . S
C546 C547 1.386 . S
C546 C548 1.391 . S
C547 C546 1.386 . S
C547 C551 1.393 . S
C548 H537 0.950 . S
C548 C546 1.391 . S
C548 C549 1.400 . S
C549 C543 1.491 1_556 S
C549 C548 1.400 . S
C549 C550 1.398 . S
C550 H538 0.950 . S
C550 C549 1.398 . S
C550 C551 1.391 . S
C551 H539 0.950 . S
C551 C547 1.393 . S
C551 C550 1.391 . S
H552 C560 0.950 . S
H553 C565 0.950 . S
H554 C562 0.950 . S
H555 C564 0.950 . S
H556 C566 0.950 . S
H557 C568 0.950 . S
H558 C570 0.950 . S
H559 C571 0.950 . S
C560 H552 0.950 . S
C560 C561 1.386 . S
C560 C562 1.391 . S
C561 C560 1.386 . S
C561 C565 1.393 . S
C562 H554 0.950 . S
C562 C560 1.391 . S
C562 C563 1.400 . S
C563 C562 1.400 . S
C563 C564 1.398 . S
C563 C569 1.491 . S
C564 H555 0.950 . S
C564 C563 1.398 . S
C564 C565 1.391 . S
C565 H553 0.950 . S
C565 C561 1.393 . S
C565 C564 1.391 . S
C566 H556 0.950 . S
C566 C567 1.386 . S
C566 C568 1.391 . S
C567 C566 1.386 . S
C567 C571 1.393 . S
C568 H557 0.950 . S
C568 C566 1.391 . S
C568 C569 1.400 . S
C569 C563 1.491 . S
C569 C568 1.400 . S
C569 C570 1.398 . S
C570 H558 0.950 . S
C570 C569 1.398 . S
C570 C571 1.391 . S
C571 H559 0.950 . S
C571 C567 1.393 . S
C571 C570 1.391 . S
H572 C580 0.950 . S
H573 C585 0.950 . S
H574 C582 0.950 . S
H575 C584 0.950 . S
H576 C586 0.950 . S
H577 C588 0.950 . S
H578 C590 0.950 . S
H579 C591 0.950 . S
C580 H572 0.950 . S
C580 C581 1.386 . S
C580 C582 1.391 . S
C581 C580 1.386 . S
C581 C585 1.393 . S
C582 H574 0.950 . S
C582 C580 1.391 . S
C582 C583 1.400 . S
C583 C582 1.400 . S
C583 C584 1.398 . S
C583 C589 1.491 1_554 S
C584 H575 0.950 . S
C584 C583 1.398 . S
C584 C585 1.391 . S
C585 H573 0.950 . S
C585 C581 1.393 . S
C585 C584 1.391 . S
C586 H576 0.950 . S
C586 C587 1.386 . S
C586 C588 1.391 . S
C587 C586 1.386 . S
C587 C591 1.393 . S
C588 H577 0.950 . S
C588 C586 1.391 . S
C588 C589 1.400 . S
C589 C583 1.491 1_556 S
C589 C588 1.400 . S
C589 C590 1.398 . S
C590 H578 0.950 . S
C590 C589 1.398 . S
C590 C591 1.391 . S
C591 H579 0.950 . S
C591 C587 1.393 . S
C591 C590 1.391 . S
H592 C600 0.950 . S
H593 C605 0.950 . S
H594 C602 0.950 . S
H595 C604 0.950 . S
H596 C606 0.950 . S
H597 C608 0.950 . S
H598 C610 0.950 . S
H599 C611 0.950 . S
C600 H592 0.950 . S
C600 C601 1.386 . S
C600 C602 1.391 . S
C601 C600 1.386 . S
C601 C605 1.393 . S
C602 H594 0.950 . S
C602 C600 1.391 . S
C602 C603 1.400 . S
C603 C602 1.400 . S
C603 C604 1.398 . S
C603 C609 1.491 . S
C604 H595 0.950 . S
C604 C603 1.398 . S
C604 C605 1.391 . S
C605 H593 0.950 . S
C605 C601 1.393 . S
C605 C604 1.391 . S
C606 H596 0.950 . S
C606 C607 1.386 . S
C606 C608 1.391 . S
C607 C606 1.386 . S
C607 C611 1.393 . S
C608 H597 0.950 . S
C608 C606 1.391 . S
C608 C609 1.400 . S
C609 C603 1.491 . S
C609 C608 1.400 . S
C609 C610 1.398 . S
C610 H598 0.950 . S
C610 C609 1.398 . S
C610 C611 1.391 . S
C611 H599 0.950 . S
C611 C607 1.393 . S
C611 C610 1.391 . S
H612 C620 0.950 . S
H613 C625 0.950 . S
H614 C622 0.950 . S
H615 C624 0.950 . S
H616 C626 0.950 . S
H617 C628 0.950 . S
H618 C630 0.950 . S
H619 C631 0.950 . S
C620 H612 0.950 . S
C620 C621 1.386 . S
C620 C622 1.391 . S
C621 C620 1.386 . S
C621 C625 1.393 . S
C622 H614 0.950 . S
C622 C620 1.391 . S
C622 C623 1.400 . S
C623 C622 1.400 . S
C623 C624 1.398 . S
C623 C629 1.491 1_554 S
C624 H615 0.950 . S
C624 C623 1.398 . S
C624 C625 1.391 . S
C625 H613 0.950 . S
C625 C621 1.393 . S
C625 C624 1.391 . S
C626 H616 0.950 . S
C626 C627 1.386 . S
C626 C628 1.391 . S
C627 C626 1.386 . S
C627 C631 1.393 . S
C628 H617 0.950 . S
C628 C626 1.391 . S
C628 C629 1.400 . S
C629 C623 1.491 1_556 S
C629 C628 1.400 . S
C629 C630 1.398 . S
C630 H618 0.950 . S
C630 C629 1.398 . S
C630 C631 1.391 . S
C631 H619 0.950 . S
C631 C627 1.393 . S
C631 C630 1.391 . S
H632 C640 0.950 . S
H633 C645 0.950 . S
H634 C642 0.950 . S
H635 C644 0.950 . S
H636 C646 0.950 . S
H637 C648 0.950 . S
H638 C650 0.950 . S
H639 C651 0.950 . S
C640 H632 0.950 . S
C640 C641 1.386 . S
C640 C642 1.391 . S
C641 C640 1.386 . S
C641 C645 1.393 . S
C642 H634 0.950 . S
C642 C640 1.391 . S
C642 C643 1.400 . S
C643 C642 1.400 . S
C643 C644 1.398 . S
C643 C649 1.491 . S
C644 H635 0.950 . S
C644 C643 1.398 . S
C644 C645 1.391 . S
C645 H633 0.950 . S
C645 C641 1.393 . S
C645 C644 1.391 . S
C646 H636 0.950 . S
C646 C647 1.386 . S
C646 C648 1.391 . S
C647 C646 1.386 . S
C647 C651 1.393 . S
C648 H637 0.950 . S
C648 C646 1.391 . S
C648 C649 1.400 . S
C649 C643 1.491 . S
C649 C648 1.400 . S
C649 C650 1.398 . S
C650 H638 0.950 . S
C650 C649 1.398 . S
C650 C651 1.391 . S
C651 H639 0.950 . S
C651 C647 1.393 . S
C651 C650 1.391 . S
H652 C660 0.950 . S
H653 C665 0.950 . S
H654 C662 0.950 . S
H655 C664 0.950 . S
H656 C666 0.950 . S
H657 C668 0.950 . S
H658 C670 0.950 . S
H659 C671 0.950 . S
C660 H652 0.950 . S
C660 C661 1.386 . S
C660 C662 1.391 . S
C661 C660 1.386 . S
C661 C665 1.393 . S
C662 H654 0.950 . S
C662 C660 1.391 . S
C662 C663 1.400 . S
C663 C662 1.400 . S
C663 C664 1.398 . S
C663 C669 1.491 . S
C664 H655 0.950 . S
C664 C663 1.398 . S
C664 C665 1.391 . S
C665 H653 0.950 . S
C665 C661 1.393 . S
C665 C664 1.391 . S
C666 H656 0.950 . S
C666 C667 1.386 . S
C666 C668 1.391 . S
C667 C666 1.386 . S
C667 C671 1.393 . S
C668 H657 0.950 . S
C668 C666 1.391 . S
C668 C669 1.400 . S
C669 C663 1.491 . S
C669 C668 1.400 . S
C669 C670 1.398 . S
C670 H658 0.950 . S
C670 C669 1.398 . S
C670 C671 1.391 . S
C671 H659 0.950 . S
C671 C667 1.393 . S
C671 C670 1.391 . S
H672 C680 0.950 . S
H673 C685 0.950 . S
H674 C682 0.950 . S
H675 C684 0.950 . S
H676 C686 0.950 . S
H677 C688 0.950 . S
H678 C690 0.950 . S
H679 C691 0.950 . S
C680 H672 0.950 . S
C680 C681 1.386 . S
C680 C682 1.391 . S
C681 C680 1.386 . S
C681 C685 1.393 . S
C682 H674 0.950 . S
C682 C680 1.391 . S
C682 C683 1.400 . S
C683 C682 1.400 . S
C683 C684 1.398 . S
C683 C689 1.491 1_565 S
C684 H675 0.950 . S
C684 C683 1.398 . S
C684 C685 1.391 . S
C685 H673 0.950 . S
C685 C681 1.393 . S
C685 C684 1.391 . S
C686 H676 0.950 . S
C686 C687 1.386 . S
C686 C688 1.391 . S
C687 C686 1.386 . S
C687 C691 1.393 . S
C688 H677 0.950 . S
C688 C686 1.391 . S
C688 C689 1.400 . S
C689 C683 1.491 1_545 S
C689 C688 1.400 . S
C689 C690 1.398 . S
C690 H678 0.950 . S
C690 C689 1.398 . S
C690 C691 1.391 . S
C691 H679 0.950 . S
C691 C687 1.393 . S
C691 C690 1.391 . S
H692 C700 0.950 . S
H693 C705 0.950 . S
H694 C702 0.950 . S
H695 C704 0.950 . S
H696 C706 0.950 . S
H697 C708 0.950 . S
H698 C710 0.950 . S
H699 C711 0.950 . S
C700 H692 0.950 . S
C700 C701 1.386 . S
C700 C702 1.391 . S
C701 C700 1.386 . S
C701 C705 1.393 . S
C702 H694 0.950 . S
C702 C700 1.391 . S
C702 C703 1.400 . S
C703 C702 1.400 . S
C703 C704 1.398 . S
C703 C709 1.491 . S
C704 H695 0.950 . S
C704 C703 1.398 . S
C704 C705 1.391 . S
C705 H693 0.950 . S
C705 C701 1.393 . S
C705 C704 1.391 . S
C706 H696 0.950 . S
C706 C707 1.386 . S
C706 C708 1.391 . S
C707 C706 1.386 . S
C707 C711 1.393 . S
C708 H697 0.950 . S
C708 C706 1.391 . S
C708 C709 1.400 . S
C709 C703 1.491 . S
C709 C708 1.400 . S
C709 C710 1.398 . S
C710 H698 0.950 . S
C710 C709 1.398 . S
C710 C711 1.391 . S
C711 H699 0.950 . S
C711 C707 1.393 . S
C711 C710 1.391 . S
H712 C720 0.950 . S
H713 C725 0.950 . S
H714 C722 0.950 . S
H715 C724 0.950 . S
H716 C726 0.950 . S
H717 C728 0.950 . S
H718 C730 0.950 . S
H719 C731 0.950 . S
C720 H712 0.950 . S
C720 C721 1.386 . S
C720 C722 1.391 . S
C721 C720 1.386 . S
C721 C725 1.393 . S
C722 H714 0.950 . S
C722 C720 1.391 . S
C722 C723 1.400 . S
C723 C722 1.400 . S
C723 C724 1.398 . S
C723 C729 1.491 1_565 S
C724 H715 0.950 . S
C724 C723 1.398 . S
C724 C725 1.391 . S
C725 H713 0.950 . S
C725 C721 1.393 . S
C725 C724 1.391 . S
C726 H716 0.950 . S
C726 C727 1.386 . S
C726 C728 1.391 . S
C727 C726 1.386 . S
C727 C731 1.393 . S
C728 H717 0.950 . S
C728 C726 1.391 . S
C728 C729 1.400 . S
C729 C723 1.491 1_545 S
C729 C728 1.400 . S
C729 C730 1.398 . S
C730 H718 0.950 . S
C730 C729 1.398 . S
C730 C731 1.391 . S
C731 H719 0.950 . S
C731 C727 1.393 . S
C731 C730 1.391 . S
H732 C740 0.950 . S
H733 C745 0.950 . S
H734 C742 0.950 . S
H735 C744 0.950 . S
H736 C746 0.950 . S
H737 C748 0.950 . S
H738 C750 0.950 . S
H739 C751 0.950 . S
C740 H732 0.950 . S
C740 C741 1.386 . S
C740 C742 1.391 . S
C741 C740 1.386 . S
C741 C745 1.393 . S
C742 H734 0.950 . S
C742 C740 1.391 . S
C742 C743 1.400 . S
C743 C742 1.400 . S
C743 C744 1.398 . S
C743 C749 1.491 . S
C744 H735 0.950 . S
C744 C743 1.398 . S
C744 C745 1.391 . S
C745 H733 0.950 . S
C745 C741 1.393 . S
C745 C744 1.391 . S
C746 H736 0.950 . S
C746 C747 1.386 . S
C746 C748 1.391 . S
C747 C746 1.386 . S
C747 C751 1.393 . S
C748 H737 0.950 . S
C748 C746 1.391 . S
C748 C749 1.400 . S
C749 C743 1.491 . S
C749 C748 1.400 . S
C749 C750 1.398 . S
C750 H738 0.950 . S
C750 C749 1.398 . S
C750 C751 1.391 . S
C751 H739 0.950 . S
C751 C747 1.393 . S
C751 C750 1.391 . S
H752 C760 0.950 . S
H753 C765 0.950 . S
H754 C762 0.950 . S
H755 C764 0.950 . S
H756 C766 0.950 . S
H757 C768 0.950 . S
H758 C770 0.950 . S
H759 C771 0.950 . S
C760 H752 0.950 . S
C760 C761 1.386 . S
C760 C762 1.391 . S
C761 C760 1.386 . S
C761 C765 1.393 . S
C762 H754 0.950 . S
C762 C760 1.391 . S
C762 C763 1.400 . S
C763 C762 1.400 . S
C763 C764 1.398 . S
C763 C769 1.491 1_565 S
C764 H755 0.950 . S
C764 C763 1.398 . S
C764 C765 1.391 . S
C765 H753 0.950 . S
C765 C761 1.393 . S
C765 C764 1.391 . S
C766 H756 0.950 . S
C766 C767 1.386 . S
C766 C768 1.391 . S
C767 C766 1.386 . S
C767 C771 1.393 . S
C768 H757 0.950 . S
C768 C766 1.391 . S
C768 C769 1.400 . S
C769 C763 1.491 1_545 S
C769 C768 1.400 . S
C769 C770 1.398 . S
C770 H758 0.950 . S
C770 C769 1.398 . S
C770 C771 1.391 . S
C771 H759 0.950 . S
C771 C767 1.393 . S
C771 C770 1.391 . S
H772 C780 0.950 . S
H773 C785 0.950 . S
H774 C782 0.950 . S
H775 C784 0.950 . S
H776 C786 0.950 . S
H777 C788 0.950 . S
H778 C790 0.950 . S
H779 C791 0.950 . S
C780 H772 0.950 . S
C780 C781 1.386 . S
C780 C782 1.391 . S
C781 C780 1.386 . S
C781 C785 1.393 . S
C782 H774 0.950 . S
C782 C780 1.391 . S
C782 C783 1.400 . S
C783 C782 1.400 . S
C783 C784 1.398 . S
C783 C789 1.491 1_545 S
C784 H775 0.950 . S
C784 C783 1.398 . S
C784 C785 1.391 . S
C785 H773 0.950 . S
C785 C781 1.393 . S
C785 C784 1.391 . S
C786 H776 0.950 . S
C786 C787 1.386 . S
C786 C788 1.391 . S
C787 C786 1.386 . S
C787 C791 1.393 . S
C788 H777 0.950 . S
C788 C786 1.391 . S
C788 C789 1.400 . S
C789 C783 1.491 1_565 S
C789 C788 1.400 . S
C789 C790 1.398 . S
C790 H778 0.950 . S
C790 C789 1.398 . S
C790 C791 1.391 . S
C791 H779 0.950 . S
C791 C787 1.393 . S
C791 C790 1.391 . S
H792 C800 0.950 . S
H793 C805 0.950 . S
H794 C802 0.950 . S
H795 C804 0.950 . S
H796 C806 0.950 . S
H797 C808 0.950 . S
H798 C810 0.950 . S
H799 C811 0.950 . S
C800 H792 0.950 . S
C800 C801 1.386 . S
C800 C802 1.391 . S
C801 C800 1.386 . S
C801 C805 1.393 . S
C802 H794 0.950 . S
C802 C800 1.391 . S
C802 C803 1.400 . S
C803 C802 1.400 . S
C803 C804 1.398 . S
C803 C809 1.491 . S
C804 H795 0.950 . S
C804 C803 1.398 . S
C804 C805 1.391 . S
C805 H793 0.950 . S
C805 C801 1.393 . S
C805 C804 1.391 . S
C806 H796 0.950 . S
C806 C807 1.386 . S
C806 C808 1.391 . S
C807 C806 1.386 . S
C807 C811 1.393 . S
C808 H797 0.950 . S
C808 C806 1.391 . S
C808 C809 1.400 . S
C809 C803 1.491 . S
C809 C808 1.400 . S
C809 C810 1.398 . S
C810 H798 0.950 . S
C810 C809 1.398 . S
C810 C811 1.391 . S
C811 H799 0.950 . S
C811 C807 1.393 . S
C811 C810 1.391 . S
H812 C820 0.950 . S
H813 C825 0.950 . S
H814 C822 0.950 . S
H815 C824 0.950 . S
H816 C826 0.950 . S
H817 C828 0.950 . S
H818 C830 0.950 . S
H819 C831 0.950 . S
C820 H812 0.950 . S
C820 C821 1.386 . S
C820 C822 1.391 . S
C821 C820 1.386 . S
C821 C825 1.393 . S
C822 H814 0.950 . S
C822 C820 1.391 . S
C822 C823 1.400 . S
C823 C822 1.400 . S
C823 C824 1.398 . S
C823 C829 1.491 . S
C824 H815 0.950 . S
C824 C823 1.398 . S
C824 C825 1.391 . S
C825 H813 0.950 . S
C825 C821 1.393 . S
C825 C824 1.391 . S
C826 H816 0.950 . S
C826 C827 1.386 . S
C826 C828 1.391 . S
C827 C826 1.386 . S
C827 C831 1.393 . S
C828 H817 0.950 . S
C828 C826 1.391 . S
C828 C829 1.400 . S
C829 C823 1.491 . S
C829 C828 1.400 . S
C829 C830 1.398 . S
C830 H818 0.950 . S
C830 C829 1.398 . S
C830 C831 1.391 . S
C831 H819 0.950 . S
C831 C827 1.393 . S
C831 C830 1.391 . S
H832 C840 0.950 . S
H833 C845 0.950 . S
H834 C842 0.950 . S
H835 C844 0.950 . S
H836 C846 0.950 . S
H837 C848 0.950 . S
H838 C850 0.950 . S
H839 C851 0.950 . S
C840 H832 0.950 . S
C840 C841 1.386 . S
C840 C842 1.391 . S
C841 C840 1.386 . S
C841 C845 1.393 . S
C842 H834 0.950 . S
C842 C840 1.391 . S
C842 C843 1.400 . S
C843 C842 1.400 . S
C843 C844 1.398 . S
C843 C849 1.491 . S
C844 H835 0.950 . S
C844 C843 1.398 . S
C844 C845 1.391 . S
C845 H833 0.950 . S
C845 C841 1.393 . S
C845 C844 1.391 . S
C846 H836 0.950 . S
C846 C847 1.386 . S
C846 C848 1.391 . S
C847 C846 1.386 . S
C847 C851 1.393 . S
C848 H837 0.950 . S
C848 C846 1.391 . S
C848 C849 1.400 . S
C849 C843 1.491 . S
C849 C848 1.400 . S
C849 C850 1.398 . S
C850 H838 0.950 . S
C850 C849 1.398 . S
C850 C851 1.391 . S
C851 H839 0.950 . S
C851 C847 1.393 . S
C851 C850 1.391 . S
H852 C860 0.950 . S
H853 C865 0.950 . S
H854 C862 0.950 . S
H855 C864 0.950 . S
H856 C866 0.950 . S
H857 C868 0.950 . S
H858 C870 0.950 . S
H859 C871 0.950 . S
C860 H852 0.950 . S
C860 C861 1.386 . S
C860 C862 1.391 . S
C861 C860 1.386 . S
C861 C865 1.393 . S
C862 H854 0.950 . S
C862 C860 1.391 . S
C862 C863 1.400 . S
C863 C862 1.400 . S
C863 C864 1.398 . S
C863 C869 1.491 . S
C864 H855 0.950 . S
C864 C863 1.398 . S
C864 C865 1.391 . S
C865 H853 0.950 . S
C865 C861 1.393 . S
C865 C864 1.391 . S
C866 H856 0.950 . S
C866 C867 1.386 . S
C866 C868 1.391 . S
C867 C866 1.386 . S
C867 C871 1.393 . S
C868 H857 0.950 . S
C868 C866 1.391 . S
C868 C869 1.400 . S
C869 C863 1.491 . S
C869 C868 1.400 . S
C869 C870 1.398 . S
C870 H858 0.950 . S
C870 C869 1.398 . S
C870 C871 1.391 . S
C871 H859 0.950 . S
C871 C867 1.393 . S
C871 C870 1.391 . S
H872 C880 0.950 . S
H873 C885 0.950 . S
H874 C882 0.950 . S
H875 C884 0.950 . S
H876 C886 0.950 . S
H877 C888 0.950 . S
H878 C890 0.950 . S
H879 C891 0.950 . S
C880 H872 0.950 . S
C880 C881 1.386 . S
C880 C882 1.391 . S
C881 C880 1.386 . S
C881 C885 1.393 . S
C882 H874 0.950 . S
C882 C880 1.391 . S
C882 C883 1.400 . S
C883 C882 1.400 . S
C883 C884 1.398 . S
C883 C889 1.491 . S
C884 H875 0.950 . S
C884 C883 1.398 . S
C884 C885 1.391 . S
C885 H873 0.950 . S
C885 C881 1.393 . S
C885 C884 1.391 . S
C886 H876 0.950 . S
C886 C887 1.386 . S
C886 C888 1.391 . S
C887 C886 1.386 . S
C887 C891 1.393 . S
C888 H877 0.950 . S
C888 C886 1.391 . S
C888 C889 1.400 . S
C889 C883 1.491 . S
C889 C888 1.400 . S
C889 C890 1.398 . S
C890 H878 0.950 . S
C890 C889 1.398 . S
C890 C891 1.391 . S
C891 H879 0.950 . S
C891 C887 1.393 . S
C891 C890 1.391 . S
H892 C900 0.950 . S
H893 C905 0.950 . S
H894 C902 0.950 . S
H895 C904 0.950 . S
H896 C906 0.950 . S
H897 C908 0.950 . S
H898 C910 0.950 . S
H899 C911 0.950 . S
C900 H892 0.950 . S
C900 C901 1.386 . S
C900 C902 1.391 . S
C901 C900 1.386 . S
C901 C905 1.393 . S
C902 H894 0.950 . S
C902 C900 1.391 . S
C902 C903 1.400 . S
C903 C902 1.400 . S
C903 C904 1.398 . S
C903 C909 1.491 . S
C904 H895 0.950 . S
C904 C903 1.398 . S
C904 C905 1.391 . S
C905 H893 0.950 . S
C905 C901 1.393 . S
C905 C904 1.391 . S
C906 H896 0.950 . S
C906 C907 1.386 . S
C906 C908 1.391 . S
C907 C906 1.386 . S
C907 C911 1.393 . S
C908 H897 0.950 . S
C908 C906 1.391 . S
C908 C909 1.400 . S
C909 C903 1.491 . S
C909 C908 1.400 . S
C909 C910 1.398 . S
C910 H898 0.950 . S
C910 C909 1.398 . S
C910 C911 1.391 . S
C911 H899 0.950 . S
C911 C907 1.393 . S
C911 C910 1.391 . S
H912 C920 0.950 . S
H913 C925 0.950 . S
H914 C922 0.950 . S
H915 C924 0.950 . S
H916 C926 0.950 . S
H917 C928 0.950 . S
H918 C930 0.950 . S
H919 C931 0.950 . S
C920 H912 0.950 . S
C920 C921 1.386 . S
C920 C922 1.391 . S
C921 C920 1.386 . S
C921 C925 1.393 . S
C922 H914 0.950 . S
C922 C920 1.391 . S
C922 C923 1.400 . S
C923 C922 1.400 . S
C923 C924 1.398 . S
C923 C929 1.491 . S
C924 H915 0.950 . S
C924 C923 1.398 . S
C924 C925 1.391 . S
C925 H913 0.950 . S
C925 C921 1.393 . S
C925 C924 1.391 . S
C926 H916 0.950 . S
C926 C927 1.386 . S
C926 C928 1.391 . S
C927 C926 1.386 . S
C927 C931 1.393 . S
C928 H917 0.950 . S
C928 C926 1.391 . S
C928 C929 1.400 . S
C929 C923 1.491 . S
C929 C928 1.400 . S
C929 C930 1.398 . S
C930 H918 0.950 . S
C930 C929 1.398 . S
C930 C931 1.391 . S
C931 H919 0.950 . S
C931 C927 1.393 . S
C931 C930 1.391 . S
H932 C940 0.950 . S
H933 C945 0.950 . S
H934 C942 0.950 . S
H935 C944 0.950 . S
H936 C946 0.950 . S
H937 C948 0.950 . S
H938 C950 0.950 . S
H939 C951 0.950 . S
C940 H932 0.950 . S
C940 C941 1.386 . S
C940 C942 1.391 . S
C941 C940 1.386 . S
C941 C945 1.393 . S
C942 H934 0.950 . S
C942 C940 1.391 . S
C942 C943 1.400 . S
C943 C942 1.400 . S
C943 C944 1.398 . S
C943 C949 1.491 . S
C944 H935 0.950 . S
C944 C943 1.398 . S
C944 C945 1.391 . S
C945 H933 0.950 . S
C945 C941 1.393 . S
C945 C944 1.391 . S
C946 H936 0.950 . S
C946 C947 1.386 . S
C946 C948 1.391 . S
C947 C946 1.386 . S
C947 C951 1.393 . S
C948 H937 0.950 . S
C948 C946 1.391 . S
C948 C949 1.400 . S
C949 C943 1.491 . S
C949 C948 1.400 . S
C949 C950 1.398 . S
C950 H938 0.950 . S
C950 C949 1.398 . S
C950 C951 1.391 . S
C951 H939 0.950 . S
C951 C947 1.393 . S
C951 C950 1.391 . S
H952 C960 0.950 . S
H953 C965 0.950 . S
H954 C962 0.950 . S
H955 C964 0.950 . S
H956 C966 0.950 . S
H957 C968 0.950 . S
H958 C970 0.950 . S
H959 C971 0.950 . S
C960 H952 0.950 . S
C960 C961 1.386 . S
C960 C962 1.391 . S
C961 C960 1.386 . S
C961 C965 1.393 . S
C962 H954 0.950 . S
C962 C960 1.391 . S
C962 C963 1.400 . S
C963 C962 1.400 . S
C963 C964 1.398 . S
C963 C969 1.491 . S
C964 H955 0.950 . S
C964 C963 1.398 . S
C964 C965 1.391 . S
C965 H953 0.950 . S
C965 C961 1.393 . S
C965 C964 1.391 . S
C966 H956 0.950 . S
C966 C967 1.386 . S
C966 C968 1.391 . S
C967 C966 1.386 . S
C967 C971 1.393 . S
C968 H957 0.950 . S
C968 C966 1.391 . S
C968 C969 1.400 . S
C969 C963 1.491 . S
C969 C968 1.400 . S
C969 C970 1.398 . S
C970 H958 0.950 . S
C970 C969 1.398 . S
C970 C971 1.391 . S
C971 H959 0.950 . S
C971 C967 1.393 . S
C971 C970 1.391 . S
H972 C980 0.950 . S
H973 C985 0.950 . S
H974 C982 0.950 . S
H975 C984 0.950 . S
H976 C986 0.950 . S
H977 C988 0.950 . S
H978 C990 0.950 . S
H979 C991 0.950 . S
C980 H972 0.950 . S
C980 C981 1.386 . S
C980 C982 1.391 . S
C981 C980 1.386 . S
C981 C985 1.393 . S
C982 H974 0.950 . S
C982 C980 1.391 . S
C982 C983 1.400 . S
C983 C982 1.400 . S
C983 C984 1.398 . S
C983 C989 1.491 . S
C984 H975 0.950 . S
C984 C983 1.398 . S
C984 C985 1.391 . S
C985 H973 0.950 . S
C985 C981 1.393 . S
C985 C984 1.391 . S
C986 H976 0.950 . S
C986 C987 1.386 . S
C986 C988 1.391 . S
C987 C986 1.386 . S
C987 C991 1.393 . S
C988 H977 0.950 . S
C988 C986 1.391 . S
C988 C989 1.400 . S
C989 C983 1.491 . S
C989 C988 1.400 . S
C989 C990 1.398 . S
C990 H978 0.950 . S
C990 C989 1.398 . S
C990 C991 1.391 . S
C991 H979 0.950 . S
C991 C987 1.393 . S
C991 C990 1.391 . S
H992 C1000 0.950 . S
H993 C1005 0.950 . S
H994 C1002 0.950 . S
H995 C1004 0.950 . S
H996 C1006 0.950 . S
H997 C1008 0.950 . S
H998 C1010 0.950 . S
H999 C1011 0.950 . S
C1000 H992 0.950 . S
C1000 C1001 1.386 . S
C1000 C1002 1.391 . S
C1001 C1000 1.386 . S
C1001 C1005 1.393 . S
C1002 H994 0.950 . S
C1002 C1000 1.391 . S
C1002 C1003 1.400 . S
C1003 C1002 1.400 . S
C1003 C1004 1.398 . S
C1003 C1009 1.491 . S
C1004 H995 0.950 . S
C1004 C1003 1.398 . S
C1004 C1005 1.391 . S
C1005 H993 0.950 . S
C1005 C1001 1.393 . S
C1005 C1004 1.391 . S
C1006 H996 0.950 . S
C1006 C1007 1.386 . S
C1006 C1008 1.391 . S
C1007 C1006 1.386 . S
C1007 C1011 1.393 . S
C1008 H997 0.950 . S
C1008 C1006 1.391 . S
C1008 C1009 1.400 . S
C1009 C1003 1.491 . S
C1009 C1008 1.400 . S
C1009 C1010 1.398 . S
C1010 H998 0.950 . S
C1010 C1009 1.398 . S
C1010 C1011 1.391 . S
C1011 H999 0.950 . S
C1011 C1007 1.393 . S
C1011 C1010 1.391 . S
H1012 C1020 0.950 . S
H1013 C1025 0.950 . S
H1014 C1022 0.950 . S
H1015 C1024 0.950 . S
H1016 C1026 0.950 . S
H1017 C1028 0.950 . S
H1018 C1030 0.950 . S
H1019 C1031 0.950 . S
C1020 H1012 0.950 . S
C1020 C1021 1.386 . S
C1020 C1022 1.391 . S
C1021 C1020 1.386 . S
C1021 C1025 1.393 . S
C1022 H1014 0.950 . S
C1022 C1020 1.391 . S
C1022 C1023 1.400 . S
C1023 C1022 1.400 . S
C1023 C1024 1.398 . S
C1023 C1029 1.491 . S
C1024 H1015 0.950 . S
C1024 C1023 1.398 . S
C1024 C1025 1.391 . S
C1025 H1013 0.950 . S
C1025 C1021 1.393 . S
C1025 C1024 1.391 . S
C1026 H1016 0.950 . S
C1026 C1027 1.386 . S
C1026 C1028 1.391 . S
C1027 C1026 1.386 . S
C1027 C1031 1.393 . S
C1028 H1017 0.950 . S
C1028 C1026 1.391 . S
C1028 C1029 1.400 . S
C1029 C1023 1.491 . S
C1029 C1028 1.400 . S
C1029 C1030 1.398 . S
C1030 H1018 0.950 . S
C1030 C1029 1.398 . S
C1030 C1031 1.391 . S
C1031 H1019 0.950 . S
C1031 C1027 1.393 . S
C1031 C1030 1.391 . S
H1032 C1040 0.950 . S
H1033 C1045 0.950 . S
H1034 C1042 0.950 . S
H1035 C1044 0.950 . S
H1036 C1046 0.950 . S
H1037 C1048 0.950 . S
H1038 C1050 0.950 . S
H1039 C1051 0.950 . S
C1040 H1032 0.950 . S
C1040 C1041 1.386 . S
C1040 C1042 1.391 . S
C1041 C1040 1.386 . S
C1041 C1045 1.393 . S
C1042 H1034 0.950 . S
C1042 C1040 1.391 . S
C1042 C1043 1.400 . S
C1043 C1042 1.400 . S
C1043 C1044 1.398 . S
C1043 C1049 1.491 . S
C1044 H1035 0.950 . S
C1044 C1043 1.398 . S
C1044 C1045 1.391 . S
C1045 H1033 0.950 . S
C1045 C1041 1.393 . S
C1045 C1044 1.391 . S
C1046 H1036 0.950 . S
C1046 C1047 1.386 . S
C1046 C1048 1.391 . S
C1047 C1046 1.386 . S
C1047 C1051 1.393 . S
C1048 H1037 0.950 . S
C1048 C1046 1.391 . S
C1048 C1049 1.400 . S
C1049 C1043 1.491 . S
C1049 C1048 1.400 . S
C1049 C1050 1.398 . S
C1050 H1038 0.950 . S
C1050 C1049 1.398 . S
C1050 C1051 1.391 . S
C1051 H1039 0.950 . S
C1051 C1047 1.393 . S
C1051 C1050 1.391 . S
H1052 C1060 0.950 . S
H1053 C1065 0.950 . S
H1054 C1062 0.950 . S
H1055 C1064 0.950 . S
H1056 C1066 0.950 . S
H1057 C1068 0.950 . S
H1058 C1070 0.950 . S
H1059 C1071 0.950 . S
C1060 H1052 0.950 . S
C1060 C1061 1.386 . S
C1060 C1062 1.391 . S
C1061 C1060 1.386 . S
C1061 C1065 1.393 . S
C1062 H1054 0.950 . S
C1062 C1060 1.391 . S
C1062 C1063 1.400 . S
C1063 C1062 1.400 . S
C1063 C1064 1.398 . S
C1063 C1069 1.491 . S
C1064 H1055 0.950 . S
C1064 C1063 1.398 . S
C1064 C1065 1.391 . S
C1065 H1053 0.950 . S
C1065 C1061 1.393 . S
C1065 C1064 1.391 . S
C1066 H1056 0.950 . S
C1066 C1067 1.386 . S
C1066 C1068 1.391 . S
C1067 C1066 1.386 . S
C1067 C1071 1.393 . S
C1068 H1057 0.950 . S
C1068 C1066 1.391 . S
C1068 C1069 1.400 . S
C1069 C1063 1.491 . S
C1069 C1068 1.400 . S
C1069 C1070 1.398 . S
C1070 H1058 0.950 . S
C1070 C1069 1.398 . S
C1070 C1071 1.391 . S
C1071 H1059 0.950 . S
C1071 C1067 1.393 . S
C1071 C1070 1.391 . S
H1072 C1080 0.950 . S
H1073 C1085 0.950 . S
H1074 C1082 0.950 . S
H1075 C1084 0.950 . S
H1076 C1086 0.950 . S
H1077 C1088 0.950 . S
H1078 C1090 0.950 . S
H1079 C1091 0.950 . S
C1080 H1072 0.950 . S
C1080 C1081 1.386 . S
C1080 C1082 1.391 . S
C1081 C1080 1.386 . S
C1081 C1085 1.393 . S
C1082 H1074 0.950 . S
C1082 C1080 1.391 . S
C1082 C1083 1.400 . S
C1083 C1082 1.400 . S
C1083 C1084 1.398 . S
C1083 C1089 1.491 . S
C1084 H1075 0.950 . S
C1084 C1083 1.398 . S
C1084 C1085 1.391 . S
C1085 H1073 0.950 . S
C1085 C1081 1.393 . S
C1085 C1084 1.391 . S
C1086 H1076 0.950 . S
C1086 C1087 1.386 . S
C1086 C1088 1.391 . S
C1087 C1086 1.386 . S
C1087 C1091 1.393 . S
C1088 H1077 0.950 . S
C1088 C1086 1.391 . S
C1088 C1089 1.400 . S
C1089 C1083 1.491 . S
C1089 C1088 1.400 . S
C1089 C1090 1.398 . S
C1090 H1078 0.950 . S
C1090 C1089 1.398 . S
C1090 C1091 1.391 . S
C1091 H1079 0.950 . S
C1091 C1087 1.393 . S
C1091 C1090 1.391 . S
H1092 C1100 0.950 . S
H1093 C1105 0.950 . S
H1094 C1102 0.950 . S
H1095 C1104 0.950 . S
H1096 C1106 0.950 . S
H1097 C1108 0.950 . S
H1098 C1110 0.950 . S
H1099 C1111 0.950 . S
C1100 H1092 0.950 . S
C1100 C1101 1.386 . S
C1100 C1102 1.391 . S
C1101 C1100 1.386 . S
C1101 C1105 1.393 . S
C1102 H1094 0.950 . S
C1102 C1100 1.391 . S
C1102 C1103 1.400 . S
C1103 C1102 1.400 . S
C1103 C1104 1.398 . S
C1103 C1109 1.491 . S
C1104 H1095 0.950 . S
C1104 C1103 1.398 . S
C1104 C1105 1.391 . S
C1105 H1093 0.950 . S
C1105 C1101 1.393 . S
C1105 C1104 1.391 . S
C1106 H1096 0.950 . S
C1106 C1107 1.386 . S
C1106 C1108 1.391 . S
C1107 C1106 1.386 . S
C1107 C1111 1.393 . S
C1108 H1097 0.950 . S
C1108 C1106 1.391 . S
C1108 C1109 1.400 . S
C1109 C1103 1.491 . S
C1109 C1108 1.400 . S
C1109 C1110 1.398 . S
C1110 H1098 0.950 . S
C1110 C1109 1.398 . S
C1110 C1111 1.391 . S
C1111 H1099 0.950 . S
C1111 C1107 1.393 . S
C1111 C1110 1.391 . S
H1112 C1120 0.950 . S
H1113 C1125 0.950 . S
H1114 C1122 0.950 . S
H1115 C1124 0.950 . S
H1116 C1126 0.950 . S
H1117 C1128 0.950 . S
H1118 C1130 0.950 . S
H1119 C1131 0.950 . S
C1120 H1112 0.950 . S
C1120 C1121 1.386 . S
C1120 C1122 1.391 . S
C1121 C1120 1.386 . S
C1121 C1125 1.393 . S
C1122 H1114 0.950 . S
C1122 C1120 1.391 . S
C1122 C1123 1.400 . S
C1123 C1122 1.400 . S
C1123 C1124 1.398 . S
C1123 C1129 1.491 . S
C1124 H1115 0.950 . S
C1124 C1123 1.398 . S
C1124 C1125 1.391 . S
C1125 H1113 0.950 . S
C1125 C1121 1.393 . S
C1125 C1124 1.391 . S
C1126 H1116 0.950 . S
C1126 C1127 1.386 . S
C1126 C1128 1.391 . S
C1127 C1126 1.386 . S
C1127 C1131 1.393 . S
C1128 H1117 0.950 . S
C1128 C1126 1.391 . S
C1128 C1129 1.400 . S
C1129 C1123 1.491 . S
C1129 C1128 1.400 . S
C1129 C1130 1.398 . S
C1130 H1118 0.950 . S
C1130 C1129 1.398 . S
C1130 C1131 1.391 . S
C1131 H1119 0.950 . S
C1131 C1127 1.393 . S
C1131 C1130 1.391 . S
H1132 C1140 0.950 . S
H1133 C1145 0.950 . S
H1134 C1142 0.950 . S
H1135 C1144 0.950 . S
H1136 C1146 0.950 . S
H1137 C1148 0.950 . S
H1138 C1150 0.950 . S
H1139 C1151 0.950 . S
C1140 H1132 0.950 . S
C1140 C1141 1.386 . S
C1140 C1142 1.391 . S
C1141 C1140 1.386 . S
C1141 C1145 1.393 . S
C1142 H1134 0.950 . S
C1142 C1140 1.391 . S
C1142 C1143 1.400 . S
C1143 C1142 1.400 . S
C1143 C1144 1.398 . S
C1143 C1149 1.491 . S
C1144 H1135 0.950 . S
C1144 C1143 1.398 . S
C1144 C1145 1.391 . S
C1145 H1133 0.950 . S
C1145 C1141 1.393 . S
C1145 C1144 1.391 . S
C1146 H1136 0.950 . S
C1146 C1147 1.386 . S
C1146 C1148 1.391 . S
C1147 C1146 1.386 . S
C1147 C1151 1.393 . S
C1148 H1137 0.950 . S
C1148 C1146 1.391 . S
C1148 C1149 1.400 . S
C1149 C1143 1.491 . S
C1149 C1148 1.400 . S
C1149 C1150 1.398 . S
C1150 H1138 0.950 . S
C1150 C1149 1.398 . S
C1150 C1151 1.391 . S
C1151 H1139 0.950 . S
C1151 C1147 1.393 . S
C1151 C1150 1.391 . S
H1152 C1160 0.950 . S
H1153 C1165 0.950 . S
H1154 C1162 0.950 . S
H1155 C1164 0.950 . S
H1156 C1166 0.950 . S
H1157 C1168 0.950 . S
H1158 C1170 0.950 . S
H1159 C1171 0.950 . S
C1160 H1152 0.950 . S
C1160 C1161 1.386 . S
C1160 C1162 1.391 . S
C1161 C1160 1.386 . S
C1161 C1165 1.393 . S
C1162 H1154 0.950 . S
C1162 C1160 1.391 . S
C1162 C1163 1.400 . S
C1163 C1162 1.400 . S
C1163 C1164 1.398 . S
C1163 C1169 1.491 . S
C1164 H1155 0.950 . S
C1164 C1163 1.398 . S
C1164 C1165 1.391 . S
C1165 H1153 0.950 . S
C1165 C1161 1.393 . S
C1165 C1164 1.391 . S
C1166 H1156 0.950 . S
C1166 C1167 1.386 . S
C1166 C1168 1.391 . S
C1167 C1166 1.386 . S
C1167 C1171 1.393 . S
C1168 H1157 0.950 . S
C1168 C1166 1.391 . S
C1168 C1169 1.400 . S
C1169 C1163 1.491 . S
C1169 C1168 1.400 . S
C1169 C1170 1.398 . S
C1170 H1158 0.950 . S
C1170 C1169 1.398 . S
C1170 C1171 1.391 . S
C1171 H1159 0.950 . S
C1171 C1167 1.393 . S
C1171 C1170 1.391 . S
H1172 C1180 0.950 . S
H1173 C1185 0.950 . S
H1174 C1182 0.950 . S
H1175 C1184 0.950 . S
H1176 C1186 0.950 . S
H1177 C1188 0.950 . S
H1178 C1190 0.950 . S
H1179 C1191 0.950 . S
C1180 H1172 0.950 . S
C1180 C1181 1.386 . S
C1180 C1182 1.391 . S
C1181 C1180 1.386 . S
C1181 C1185 1.393 . S
C1182 H1174 0.950 . S
C1182 C1180 1.391 . S
C1182 C1183 1.400 . S
C1183 C1182 1.400 . S
C1183 C1184 1.398 . S
C1183 C1189 1.491 . S
C1184 H1175 0.950 . S
C1184 C1183 1.398 . S
C1184 C1185 1.391 . S
C1185 H1173 0.950 . S
C1185 C1181 1.393 . S
C1185 C1184 1.391 . S
C1186 H1176 0.950 . S
C1186 C1187 1.386 . S
C1186 C1188 1.391 . S
C1187 C1186 1.386 . S
C1187 C1191 1.393 . S
C1188 H1177 0.950 . S
C1188 C1186 1.391 . S
C1188 C1189 1.400 . S
C1189 C1183 1.491 . S
C1189 C1188 1.400 . S
C1189 C1190 1.398 . S
C1190 H1178 0.950 . S
C1190 C1189 1.398 . S
C1190 C1191 1.391 . S
C1191 H1179 0.950 . S
C1191 C1187 1.393 . S
C1191 C1190 1.391 . S
H1192 C1200 0.950 . S
H1193 C1205 0.950 . S
H1194 C1202 0.950 . S
H1195 C1204 0.950 . S
H1196 C1206 0.950 . S
H1197 C1208 0.950 . S
H1198 C1210 0.950 . S
H1199 C1211 0.950 . S
C1200 H1192 0.950 . S
C1200 C1201 1.386 . S
C1200 C1202 1.391 . S
C1201 C1200 1.386 . S
C1201 C1205 1.393 . S
C1202 H1194 0.950 . S
C1202 C1200 1.391 . S
C1202 C1203 1.400 . S
C1203 C1202 1.400 . S
C1203 C1204 1.398 . S
C1203 C1209 1.491 . S
C1204 H1195 0.950 . S
C1204 C1203 1.398 . S
C1204 C1205 1.391 . S
C1205 H1193 0.950 . S
C1205 C1201 1.393 . S
C1205 C1204 1.391 . S
C1206 H1196 0.950 . S
C1206 C1207 1.386 . S
C1206 C1208 1.391 . S
C1207 C1206 1.386 . S
C1207 C1211 1.393 . S
C1208 H1197 0.950 . S
C1208 C1206 1.391 . S
C1208 C1209 1.400 . S
C1209 C1203 1.491 . S
C1209 C1208 1.400 . S
C1209 C1210 1.398 . S
C1210 H1198 0.950 . S
C1210 C1209 1.398 . S
C1210 C1211 1.391 . S
C1211 H1199 0.950 . S
C1211 C1207 1.393 . S
C1211 C1210 1.391 . S
H1212 C1220 0.950 . S
H1213 C1225 0.950 . S
H1214 C1222 0.950 . S
H1215 C1224 0.950 . S
H1216 C1226 0.950 . S
H1217 C1228 0.950 . S
H1218 C1230 0.950 . S
H1219 C1231 0.950 . S
C1220 H1212 0.950 . S
C1220 C1221 1.386 . S
C1220 C1222 1.391 . S
C1221 C1220 1.386 . S
C1221 C1225 1.393 . S
C1222 H1214 0.950 . S
C1222 C1220 1.391 . S
C1222 C1223 1.400 . S
C1223 C1222 1.400 . S
C1223 C1224 1.398 . S
C1223 C1229 1.491 . S
C1224 H1215 0.950 . S
C1224 C1223 1.398 . S
C1224 C1225 1.391 . S
C1225 H1213 0.950 . S
C1225 C1221 1.393 . S
C1225 C1224 1.391 . S
C1226 H1216 0.950 . S
C1226 C1227 1.386 . S
C1226 C1228 1.391 . S
C1227 C1226 1.386 . S
C1227 C1231 1.393 . S
C1228 H1217 0.950 . S
C1228 C1226 1.391 . S
C1228 C1229 1.400 . S
C1229 C1223 1.491 . S
C1229 C1228 1.400 . S
C1229 C1230 1.398 . S
C1230 H1218 0.950 . S
C1230 C1229 1.398 . S
C1230 C1231 1.391 . S
C1231 H1219 0.950 . S
C1231 C1227 1.393 . S
C1231 C1230 1.391 . S
H1232 C1240 0.950 . S
H1233 C1245 0.950 . S
H1234 C1242 0.950 . S
H1235 C1244 0.950 . S
H1236 C1246 0.950 . S
H1237 C1248 0.950 . S
H1238 C1250 0.950 . S
H1239 C1251 0.950 . S
C1240 H1232 0.950 . S
C1240 C1241 1.386 . S
C1240 C1242 1.391 . S
C1241 C1240 1.386 . S
C1241 C1245 1.393 . S
C1242 H1234 0.950 . S
C1242 C1240 1.391 . S
C1242 C1243 1.400 . S
C1243 C1242 1.400 . S
C1243 C1244 1.398 . S
C1243 C1249 1.491 . S
C1244 H1235 0.950 . S
C1244 C1243 1.398 . S
C1244 C1245 1.391 . S
C1245 H1233 0.950 . S
C1245 C1241 1.393 . S
C1245 C1244 1.391 . S
C1246 H1236 0.950 . S
C1246 C1247 1.386 . S
C1246 C1248 1.391 . S
C1247 C1246 1.386 . S
C1247 C1251 1.393 . S
C1248 H1237 0.950 . S
C1248 C1246 1.391 . S
C1248 C1249 1.400 . S
C1249 C1243 1.491 . S
C1249 C1248 1.400 . S
C1249 C1250 1.398 . S
C1250 H1238 0.950 . S
C1250 C1249 1.398 . S
C1250 C1251 1.391 . S
C1251 H1239 0.950 . S
C1251 C1247 1.393 . S
C1251 C1250 1.391 . S
H1252 C1260 0.950 . S
H1253 C1265 0.950 . S
H1254 C1262 0.950 . S
H1255 C1264 0.950 . S
H1256 C1266 0.950 . S
H1257 C1268 0.950 . S
H1258 C1270 0.950 . S
H1259 C1271 0.950 . S
C1260 H1252 0.950 . S
C1260 C1261 1.386 . S
C1260 C1262 1.391 . S
C1261 C1260 1.386 . S
C1261 C1265 1.393 . S
C1262 H1254 0.950 . S
C1262 C1260 1.391 . S
C1262 C1263 1.400 . S
C1263 C1262 1.400 . S
C1263 C1264 1.398 . S
C1263 C1269 1.491 . S
C1264 H1255 0.950 . S
C1264 C1263 1.398 . S
C1264 C1265 1.391 . S
C1265 H1253 0.950 . S
C1265 C1261 1.393 . S
C1265 C1264 1.391 . S
C1266 H1256 0.950 . S
C1266 C1267 1.386 . S
C1266 C1268 1.391 . S
C1267 C1266 1.386 . S
C1267 C1271 1.393 . S
C1268 H1257 0.950 . S
C1268 C1266 1.391 . S
C1268 C1269 1.400 . S
C1269 C1263 1.491 . S
C1269 C1268 1.400 . S
C1269 C1270 1.398 . S
C1270 H1258 0.950 . S
C1270 C1269 1.398 . S
C1270 C1271 1.391 . S
C1271 H1259 0.950 . S
C1271 C1267 1.393 . S
C1271 C1270 1.391 . S
C321 C205 1.410 . S
C327 C10 1.407 . S
C341 C166 1.410 . S
C347 C17 1.407 . S
C361 C179 1.407 . S
C367 C36 1.410 . S
C381 C192 1.408 . S
C387 C43 1.409 . S
C401 C186 1.410 . S
C407 C23 1.407 . S
C421 C30 1.410 . S
C427 C199 1.407 . S
C441 C160 1.407 . S
C447 C49 1.410 . S
C461 C173 1.407 . S
C467 C4 1.410 . S
C481 C244 1.408 . S
C487 C56 1.410 . S
C501 C69 1.409 . S
C507 C251 1.408 . S
C521 C88 1.408 . S
C527 C212 1.410 . S
C541 C231 1.407 . S
C547 C101 1.410 . S
C561 C290 1.409 . S
C567 C114 1.408 . S
C581 C127 1.410 . S
C587 C309 1.407 . S
C601 C140 1.407 . S
C607 C264 1.410 . S
C621 C147 1.410 . S
C627 C283 1.407 . S
C641 C225 1.407 . S
C647 C153 1.410 . S
C661 C303 1.410 . S
C667 C75 1.407 . S
C681 C82 1.407 . S
C687 C270 1.410 . S
C701 C277 1.410 . S
C707 C95 1.407 . S
C721 C296 1.410 . S
C727 C62 1.408 . S
C741 C121 1.410 . S
C747 C257 1.407 . S
C761 C218 1.407 . S
C767 C134 1.410 . S
C781 C238 1.407 . S
C787 C108 1.410 . S
C801 C3 1.085 . S
C807 C55 1.100 . S
C821 C68 1.098 . S
C827 C18 1.104 . S
C841 C29 1.103 . S
C847 C83 1.086 . S
C861 C44 1.094 . S
C867 C96 1.087 . S
C881 C109 1.085 . S
C887 C16 1.100 . S
C901 C122 1.104 . S
C907 C31 1.087 . S
C921 C135 1.102 . S
C927 C42 1.101 . S
C941 C5 1.092 . S
C947 C146 1.106 . S
C961 C148 1.088 . S
C967 C57 1.105 . S
C981 C70 1.101 . S
C987 C107 1.102 . S
C1001 C81 1.106 . S
C1007 C120 1.091 . S
C1021 C133 1.106 . S
C1027 C94 1.093 . S
C1041 C211 1.096 . S
C1047 C161 1.105 . S
C1061 C226 1.103 . S
C1067 C174 1.099 . S
C1081 C187 1.103 . S
C1087 C239 1.099 . S
C1101 C200 1.085 . S
C1107 C250 1.101 . S
C1121 C172 1.098 . S
C1127 C263 1.104 . S
C1141 C185 1.086 . S
C1147 C278 1.097 . S
C1161 C289 1.086 . S
C1167 C198 1.104 . S
C1181 C159 1.100 . S
C1187 C304 1.102 . S
C1201 C213 1.092 . S
C1207 C302 1.106 . S
C1221 C265 1.096 . S
C1227 C224 1.086 . S
C1241 C237 1.086 . S
C1247 C276 1.103 . S
C1261 C291 1.105 . S
C1267 C252 1.087 . S
