# Generated by pormake.
# Topology dmp, (4)-cn, num edge types: 1
# Building blocks:
#     Node 0, Type 0, BuildingBlock: KUFVIS_clean_sbu_0, # of connection points: 4
#     Node 1, Type 0, BuildingBlock: KUFVIS_clean_sbu_0, # of connection points: 4
#     Node 2, Type 0, BuildingBlock: KUFVIS_clean_sbu_0, # of connection points: 4
#     Node 3, Type 0, BuildingBlock: KUFVIS_clean_sbu_0, # of connection points: 4
#     Edge 4, Type (0, 0), BuildingBlock: TEMPAE_clean_linker_10, # of connection points: 2
#     Edge 5, Type (0, 0), BuildingBlock: TEMPAE_clean_linker_10, # of connection points: 2
#     Edge 6, Type (0, 0), BuildingBlock: TEMPAE_clean_linker_10, # of connection points: 2
#     Edge 7, Type (0, 0), BuildingBlock: TEMPAE_clean_linker_10, # of connection points: 2
#     Edge 8, Type (0, 0), BuildingBlock: TEMPAE_clean_linker_10, # of connection points: 2
#     Edge 9, Type (0, 0), BuildingBlock: TEMPAE_clean_linker_10, # of connection points: 2
#     Edge 10, Type (0, 0), BuildingBlock: TEMPAE_clean_linker_10, # of connection points: 2
#     Edge 11, Type (0, 0), BuildingBlock: TEMPAE_clean_linker_10, # of connection points: 2
# Relax obj value: 0.123
# Max RMSD: 0.219
# Mean RMSD: 0.219
data_MOF--net-dmp--node1-KUFVIS_clean_sbu_0--edge1-TEMPAE_clean_linker_10
_symmetry_space_group_name_H-M    P1
_symmetry_Int_Tables_number       1
_symmetry_cell_setting            triclinic
loop_
_symmetry_equiv_pos_as_xyz
'x, y, z'
_cell_length_a     39.541953
_cell_length_b     18.792631
_cell_length_c     15.710074
_cell_angle_alpha  90.035197
_cell_angle_beta   89.995438
_cell_angle_gamma 93.908507
loop_
_atom_site_label
_atom_site_type_symbol
_atom_site_fract_x
_atom_site_fract_y
_atom_site_fract_z
_atom_type_partial_charge
Mn0 Mn 0.11917 0.24874 0.39611 0.0
Mn1 Mn 0.14369 0.20041 0.1991 0.0
C2 C 0.16059 0.31709 0.32511 0.0
C3 C 0.08146 0.31057 0.4789 0.0
C4 C 0.1683 0.13328 0.36149 0.0
O5 O 0.08257 0.17202 0.36191 0.0
O6 O 0.09891 0.15367 0.22651 0.0
C7 C 0.09166 0.27149 0.1011 0.0
N8 N 0.12485 0.26136 0.117 0.0
C9 C 0.14311 0.34067 1.0034 0.0
C10 C 0.10912 0.35179 0.9855 0.0
C11 C 0.0833 0.3173 0.03487 0.0
C12 C 0.1499 0.29527 0.07098 0.0
H13 H 0.07175 0.24472 0.13863 0.0
C14 C 0.07856 0.14297 0.28888 0.0
O15 O 0.09859 0.26074 0.51192 0.0
O16 O 0.0853 0.32214 0.39822 0.0
N17 N 0.18684 0.24086 0.16183 0.0
C18 C 0.21828 0.22337 0.18642 0.0
C19 C 0.24689 0.25171 0.142 0.0
C20 C 0.24285 0.29641 0.07168 0.0
C21 C 0.21028 0.31341 0.0472 0.0
C22 C 0.1827 0.28335 0.0937 0.0
H23 H 0.22151 0.18754 0.23903 0.0
O24 O 0.15652 0.32449 0.40635 0.0
O25 O 0.13904 0.27294 0.28649 0.0
O26 O 0.1537 0.17238 0.41526 0.0
O27 O 0.16468 0.13747 0.28079 0.0
C28 C 0.20403 0.35809 0.9777 0.0
C29 C 0.17051 0.37248 0.95654 0.0
H30 H 0.10257 0.38663 0.93402 0.0
H31 H 0.05701 0.32567 0.02155 0.0
H32 H 0.27197 0.23826 0.16107 0.0
H33 H 0.26493 0.31661 0.03626 0.0
H34 H 0.22483 0.38189 0.94023 0.0
H35 H 0.16606 0.40754 0.90359 0.0
Mn36 Mn 0.39666 0.73819 0.19418 0.0
Mn37 Mn 0.33715 0.78233 0.05269 0.0
C38 C 0.34348 0.68018 0.1957 0.0
C39 C 0.44147 0.66778 0.22882 0.0
C40 C 0.3541 0.86747 0.21314 0.0
O41 O 0.42425 0.79748 0.10613 0.0
O42 O 0.3827 0.81656 0.01265 0.0
C43 C 0.35672 0.68997 0.91071 0.0
N44 N 0.33279 0.71109 0.96589 0.0
C45 C 0.28993 0.63074 0.90272 0.0
C46 C 0.31407 0.60831 0.84494 0.0
C47 C 0.34764 0.63782 0.84926 0.0
C48 C 0.30057 0.68222 0.96321 0.0
H49 H 0.38251 0.71278 0.9136 0.0
C50 C 0.41377 0.82206 0.03573 0.0
O51 O 0.43749 0.72756 0.26814 0.0
O52 O 0.42085 0.6517 0.1667 0.0
N53 N 0.29141 0.75244 0.08203 0.0
C54 C 0.27138 0.77876 0.14357 0.0
C55 C 0.23705 0.75459 0.14816 0.0
C56 C 0.22349 0.70486 0.08844 0.0
C57 C 0.2445 0.67899 0.02526 0.0
C58 C 0.27854 0.70483 0.02399 0.0
H59 H 0.28148 0.81798 0.18874 0.0
O60 O 0.36308 0.67799 0.26163 0.0
O61 O 0.356 0.71374 0.1295 0.0
O62 O 0.37647 0.82813 0.24304 0.0
O63 O 0.33938 0.85653 0.14141 0.0
C64 C 0.23296 0.62899 0.96307 0.0
C65 C 0.25576 0.60412 0.90262 0.0
H66 H 0.30712 0.56838 0.79715 0.0
H67 H 0.36644 0.62065 0.80504 0.0
H68 H 0.22097 0.77478 0.19707 0.0
H69 H 0.19688 0.68724 0.09143 0.0
H70 H 0.20663 0.609 0.96139 0.0
H71 H 0.24669 0.56473 0.85612 0.0
Mn72 Mn 0.89731 0.74015 0.80668 0.0
Mn73 Mn 0.83893 0.78231 0.95239 0.0
C74 C 0.84421 0.68191 0.80667 0.0
C75 C 0.94195 0.67012 0.769 0.0
C76 C 0.85409 0.86881 0.79213 0.0
O77 O 0.92555 0.79908 0.89386 0.0
O78 O 0.88478 0.81689 0.99001 0.0
C79 C 0.86042 0.68895 0.09121 0.0
N80 N 0.83577 0.71039 0.03842 0.0
C81 C 0.79385 0.62923 0.1038 0.0
C82 C 0.81873 0.60659 0.15929 0.0
C83 C 0.8522 0.63633 0.15264 0.0
C84 C 0.80364 0.68126 0.04326 0.0
H85 H 0.88615 0.71181 0.08644 0.0
C86 C 0.91561 0.82289 0.96518 0.0
O87 O 0.93765 0.73012 0.73052 0.0
O88 O 0.9218 0.65369 0.83191 0.0
N89 N 0.79294 0.75201 0.92599 0.0
C90 C 0.77215 0.7784 0.86627 0.0
C91 C 0.73782 0.75385 0.86395 0.0
C92 C 0.72508 0.70366 0.92408 0.0
C93 C 0.74687 0.67773 0.98541 0.0
C94 C 0.78085 0.70401 0.98448 0.0
H95 H 0.78163 0.81798 0.82084 0.0
O96 O 0.8634 0.68036 0.73992 0.0
O97 O 0.85716 0.71472 0.87302 0.0
O98 O 0.87644 0.83024 0.76042 0.0
O99 O 0.84 0.8571 0.8645 0.0
C100 C 0.7362 0.62711 0.04769 0.0
C101 C 0.75975 0.60218 0.1061 0.0
H102 H 0.81244 0.56625 0.207 0.0
H103 H 0.87158 0.61893 0.19499 0.0
H104 H 0.72113 0.77408 0.81648 0.0
H105 H 0.69849 0.68572 0.92285 0.0
H106 H 0.70997 0.60654 0.0509 0.0
H107 H 0.75135 0.5623 0.15265 0.0
Mn108 Mn 0.61757 0.25216 0.6106 0.0
Mn109 Mn 0.6404 0.21007 0.81074 0.0
C110 C 0.65869 0.32261 0.68026 0.0
C111 C 0.58012 0.31116 0.5241 0.0
C112 C 0.66553 0.13677 0.65252 0.0
O113 O 0.58097 0.17595 0.64637 0.0
O114 O 0.59497 0.1657 0.78481 0.0
C115 C 0.58953 0.28869 0.90374 0.0
N116 N 0.62246 0.27528 0.8894 0.0
C117 C 0.6417 0.35627 1.00056 0.0
C118 C 0.60798 0.37072 0.0169 0.0
C119 C 0.58179 0.33706 0.96792 0.0
C120 C 0.64787 0.30848 0.93487 0.0
H121 H 0.56935 0.26261 0.8665 0.0
C122 C 0.57548 0.15183 0.72136 0.0
O123 O 0.59753 0.26065 0.49362 0.0
O124 O 0.5836 0.32508 0.60438 0.0
N125 N 0.68402 0.24891 0.84688 0.0
C126 C 0.71516 0.22864 0.82353 0.0
C127 C 0.74403 0.25594 0.86774 0.0
C128 C 0.74055 0.30252 0.93661 0.0
C129 C 0.70829 0.32259 0.95965 0.0
C130 C 0.68043 0.29348 0.91343 0.0
H131 H 0.71796 0.19125 0.77226 0.0
O132 O 0.65492 0.32787 0.59867 0.0
O133 O 0.63691 0.27964 0.71974 0.0
O134 O 0.65224 0.17566 0.59636 0.0
O135 O 0.66062 0.14248 0.73269 0.0
C136 C 0.70263 0.36942 0.02754 0.0
C137 C 0.66941 0.38707 0.04717 0.0
H138 H 0.6019 0.40754 0.06681 0.0
H139 H 0.55571 0.34803 0.97999 0.0
H140 H 0.76886 0.24016 0.84975 0.0
H141 H 0.76279 0.32185 0.97201 0.0
H142 H 0.72365 0.39247 0.06487 0.0
H143 H 0.66543 0.42386 0.09875 0.0
C144 C 0.32668 0.98135 0.23065 0.0
C145 C 0.33933 0.92106 0.26831 0.0
C146 C 0.30203 0.01919 0.27168 0.0
C147 C 0.28951 -0.0043 0.35217 0.0
C148 C 0.30511 0.94014 0.39476 0.0
C149 C 0.32998 0.90334 0.35222 0.0
C150 C 0.28677 0.07928 0.22447 0.0
C151 C 0.29318 0.91456 0.48133 0.0
C152 C 0.22368 0.11754 0.43112 0.0
C153 C 0.19481 0.08716 0.38961 0.0
C154 C 0.25458 0.08451 0.42765 0.0
C155 C 0.25632 0.01994 0.38169 0.0
C156 C 0.22613 0.98514 0.34896 0.0
C157 C 0.1958 0.01947 0.3529 0.0
C158 C 0.28588 0.12275 0.46508 0.0
C159 C 0.2265 0.91568 0.3006 0.0
H160 H 0.33401 -0.00465 0.16594 0.0
H161 H 0.33952 0.85644 0.38147 0.0
H162 H 0.26086 0.06148 0.20268 0.0
H163 H 0.28455 0.12586 0.26696 0.0
H164 H 0.30205 0.09672 0.16794 0.0
H165 H 0.31289 0.88555 0.51449 0.0
H166 H 0.28621 0.95971 0.5218 0.0
H167 H 0.2703 0.8775 0.47387 0.0
H168 H 0.2231 0.17043 0.45851 0.0
H169 H 0.17347 -0.00375 0.32045 0.0
H170 H 0.29917 0.15541 0.41489 0.0
H171 H 0.30371 0.0845 0.48958 0.0
H172 H 0.27931 0.15905 0.5175 0.0
H173 H 0.23873 0.92559 0.23771 0.0
H174 H 0.20053 0.89094 0.2898 0.0
H175 H 0.24142 0.87711 0.33532 0.0
C176 C 0.21997 0.36355 0.30948 0.0
C177 C 0.18643 0.36261 0.28159 0.0
C178 C 0.24431 0.41465 0.27877 0.0
C179 C 0.23433 0.46752 0.2215 0.0
C180 C 0.20061 0.46472 0.19073 0.0
C181 C 0.17691 0.41221 0.22159 0.0
C182 C 0.28021 0.41439 0.31141 0.0
C183 C 0.18915 0.51918 0.1289 0.0
C184 C 0.28834 0.63785 0.25786 0.0
C185 C 0.31223 0.63432 0.19286 0.0
C186 C 0.26085 0.58701 0.26306 0.0
C187 C 0.25821 0.53007 0.2037 0.0
C188 C 0.28164 0.52855 0.13573 0.0
C189 C 0.30859 0.58065 0.13148 0.0
C190 C 0.23591 0.59178 0.33525 0.0
C191 C 0.28009 0.46929 0.07128 0.0
H192 H 0.22696 0.32507 0.35668 0.0
H193 H 0.15062 0.41177 0.20173 0.0
H194 H 0.29843 0.4189 0.25767 0.0
H195 H 0.28574 0.46111 0.35362 0.0
H196 H 0.28457 0.3652 0.34787 0.0
H197 H 0.16298 0.50581 0.10539 0.0
H198 H 0.18999 0.57206 0.16037 0.0
H199 H 0.20656 0.52299 0.07376 0.0
H200 H 0.29161 0.67953 0.30553 0.0
H201 H 0.32774 0.57746 0.08243 0.0
H202 H 0.2397 0.54882 0.38203 0.0
H203 H 0.20953 0.58404 0.31123 0.0
H204 H 0.23894 0.64393 0.36872 0.0
H205 H 0.29188 0.42274 0.09909 0.0
H206 H 0.29406 0.48507 0.01212 0.0
H207 H 0.25353 0.45303 0.05463 0.0
C208 C 0.72065 0.11765 0.58266 0.0
C209 C 0.69225 0.08965 0.62803 0.0
C210 C 0.75145 0.08427 0.58571 0.0
C211 C 0.75358 0.02151 0.63484 0.0
C212 C 0.72381 0.98905 0.67253 0.0
C213 C 0.6936 0.02388 0.66921 0.0
C214 C 0.78235 0.12025 0.54369 0.0
C215 C 0.72461 0.9214 0.7242 0.0
C216 C 0.82689 0.90281 0.65653 0.0
C217 C 0.83843 0.92202 0.73836 0.0
C218 C 0.80119 0.93933 0.6171 0.0
C219 C 0.78708 -0.00363 0.66055 0.0
C220 C 0.80165 0.02109 0.73848 0.0
C221 C 0.82697 0.98325 0.77668 0.0
C222 C 0.78683 0.91192 0.53346 0.0
C223 C 0.788 0.08277 0.78628 0.0
H224 H 0.71981 0.16911 0.55182 0.0
H225 H 0.67165 0.00241 0.70454 0.0
H226 H 0.79704 0.1529 0.5916 0.0
H227 H 0.79915 0.08052 0.51781 0.0
H228 H 0.77524 0.15612 0.49141 0.0
H229 H 0.69873 0.89821 0.73958 0.0
H230 H 0.73837 0.88086 0.68946 0.0
H231 H 0.73829 0.93306 0.78484 0.0
H232 H 0.8354 0.85499 0.62704 0.0
H233 H 0.83588 -0.00184 0.83994 0.0
H234 H 0.77953 0.95638 0.49241 0.0
H235 H 0.76369 0.87663 0.54572 0.0
H236 H 0.80521 0.88057 0.49853 0.0
H237 H 0.7847 0.12826 0.74282 0.0
H238 H 0.80492 0.10139 0.8394 0.0
H239 H 0.76274 0.06604 0.81316 0.0
C240 C 0.78894 0.64119 0.74406 0.0
C241 C 0.8127 0.6369 0.80927 0.0
C242 C 0.7612 0.59101 0.7383 0.0
C243 C 0.75801 0.53425 0.79773 0.0
C244 C 0.78135 0.53196 0.86582 0.0
C245 C 0.80869 0.58308 0.87026 0.0
C246 C 0.73657 0.59624 0.66553 0.0
C247 C 0.77903 0.473 0.93052 0.0
C248 C 0.67563 0.41966 0.78091 0.0
C249 C 0.68481 0.36823 0.72272 0.0
C250 C 0.69975 0.47184 0.81071 0.0
C251 C 0.7335 0.47264 0.7804 0.0
C252 C 0.74305 0.41824 0.72463 0.0
C253 C 0.71835 0.36726 0.69531 0.0
C254 C 0.68859 0.52816 0.87054 0.0
C255 C 0.77889 0.41617 0.69202 0.0
H256 H 0.79255 0.68288 0.69654 0.0
H257 H 0.82778 0.57914 0.9193 0.0
H258 H 0.7399 0.55236 0.61962 0.0
H259 H 0.71009 0.59028 0.68918 0.0
H260 H 0.74033 0.64784 0.63118 0.0
H261 H 0.79411 0.48711 0.98854 0.0
H262 H 0.75235 0.46038 0.94921 0.0
H263 H 0.78896 0.42471 0.90184 0.0
H264 H 0.64934 0.42084 0.8002 0.0
H265 H 0.72505 0.32742 0.6494 0.0
H266 H 0.68698 0.57884 0.83514 0.0
H267 H 0.70739 0.53738 0.92213 0.0
H268 H 0.66344 0.51321 0.89931 0.0
H269 H 0.78489 0.46247 0.64953 0.0
H270 H 0.78275 0.36651 0.65591 0.0
H271 H 0.79713 0.42017 0.74574 0.0
C272 C 0.05385 0.01969 0.27609 0.0
C273 C 0.04944 0.09283 0.27224 0.0
C274 C 0.0313 0.97051 0.23427 0.0
C275 C 0.00409 -0.00431 0.18694 0.0
C276 C 0.99841 0.06934 0.18755 0.0
C277 C 0.02135 0.11721 0.23006 0.0
C278 C 0.03806 0.89243 0.23561 0.0
C279 C 0.96958 0.09821 0.13823 0.0
C280 C 0.97097 0.89265 0.99253 0.0
C281 C 0.94017 0.86131 0.02299 0.0
C282 C 0.99246 0.93529 0.04595 0.0
C283 C 0.98299 0.94611 0.13184 0.0
C284 C 0.95266 0.91215 0.16378 0.0
C285 C 0.9316 0.87037 0.109 0.0
C286 C 0.02473 0.97073 0.00976 0.0
C287 C 0.94192 0.9217 0.25512 0.0
H288 H 0.07625 0.00146 0.30687 0.0
H289 H 0.01868 0.17414 0.22538 0.0
H290 H 0.01445 0.85921 0.24959 0.0
H291 H 0.04706 0.87636 0.17199 0.0
H292 H 0.05756 0.88061 0.28354 0.0
H293 H 0.9669 0.15563 0.1515 0.0
H294 H 0.97404 0.09167 0.06901 0.0
H295 H 0.94532 0.0679 0.15389 0.0
H296 H 0.97773 0.88596 0.92627 0.0
H297 H 0.90803 0.8456 0.13354 0.0
H298 H 0.04677 0.95729 0.04885 0.0
H299 H 0.02356 0.02954 0.01185 0.0
H300 H 0.02916 0.95452 0.94287 0.0
H301 H 0.96259 0.90865 0.29898 0.0
H302 H 0.91874 0.88772 0.2715 0.0
H303 H 0.93684 0.97827 0.26646 0.0
C304 C 0.54733 0.03045 0.7197 0.0
C305 C 0.54595 0.10291 0.73875 0.0
C306 C 0.52509 0.97923 0.75931 0.0
C307 C 0.50114 0.00162 0.819 0.0
C308 C 0.49827 0.07533 0.83372 0.0
C309 C 0.52098 0.12512 0.79381 0.0
C310 C 0.52889 0.90117 0.74201 0.0
C311 C 0.47276 0.10145 0.89594 0.0
C312 C 0.42714 0.88011 0.89559 0.0
C313 C 0.43791 0.86138 0.97744 0.0
C314 C 0.44796 0.92341 0.84194 0.0
C315 C 0.48047 0.94851 0.87043 0.0
C316 C 0.49223 0.92717 0.95116 0.0
C317 C 0.47078 0.88377 1.00381 0.0
C318 C 0.43457 0.94481 0.75629 0.0
C319 C 0.52697 0.95255 0.98331 0.0
H320 H 0.56737 0.01354 0.67877 0.0
H321 H 0.52051 0.18126 0.80943 0.0
H322 H 0.53989 0.87637 0.79882 0.0
H323 H 0.50382 0.8728 0.72996 0.0
H324 H 0.54567 0.89298 0.68664 0.0
H325 H 0.47186 0.1604 0.89449 0.0
H326 H 0.44707 0.07688 0.8818 0.0
H327 H 0.47942 0.08531 0.96144 0.0
H328 H 0.40196 0.86235 0.87378 0.0
H329 H 0.4794 0.86937 0.06658 0.0
H330 H 0.45309 0.93474 0.70539 0.0
H331 H 0.43096 0.00285 0.7562 0.0
H332 H 0.40998 0.91569 0.74046 0.0
H333 H 0.54656 0.94134 0.93551 0.0
H334 H 0.5333 0.92684 0.0444 0.0
H335 H 0.52816 0.01116 0.99304 0.0
C336 C 0.99288 0.63892 0.68373 0.0
C337 C 0.96555 0.61799 0.73696 0.0
C338 C 0.01342 0.58802 0.64837 0.0
C339 C 0.00573 0.51434 0.66432 0.0
C340 C 0.97844 0.49322 0.71902 0.0
C341 C 0.95906 0.54524 0.75555 0.0
C342 C 0.04287 0.61297 0.59233 0.0
C343 C 0.96858 0.41541 0.73575 0.0
C344 C 0.03238 0.38622 0.49288 0.0
C345 C 0.06037 0.35665 0.53034 0.0
C346 C 0.014 0.43615 0.53662 0.0
C347 C 0.02452 0.45912 0.61898 0.0
C348 C 0.05268 0.42897 0.65749 0.0
C349 C 0.06997 0.37723 0.61315 0.0
C350 C 0.98346 0.4648 0.49419 0.0
C351 C 0.06523 0.45309 0.74426 0.0
H352 H 0.99809 0.695 0.66933 0.0
H353 H 0.93776 0.52846 0.79592 0.0
H354 H 0.06619 0.58809 0.61286 0.0
H355 H 0.03765 0.59613 0.52568 0.0
H356 H 0.04774 0.67189 0.5936 0.0
H357 H 0.94757 0.40787 0.78252 0.0
H358 H 0.96048 0.38879 0.67531 0.0
H359 H 0.99063 0.3881 0.75991 0.0
H360 H 0.02491 0.3704 0.42883 0.0
H361 H 0.09194 0.3553 0.64173 0.0
H362 H 0.98808 0.5229 0.48291 0.0
H363 H 0.96099 0.45726 0.53639 0.0
H364 H 0.97741 0.4383 0.43228 0.0
H365 H 0.07245 0.5112 0.74301 0.0
H366 H 0.08747 0.42459 0.76536 0.0
H367 H 0.04476 0.4443 0.79211 0.0
C368 C 0.45896 0.54293 0.23971 0.0
C369 C 0.46526 0.61552 0.25946 0.0
C370 C 0.47828 0.49072 0.27599 0.0
C371 C 0.50529 0.51155 0.33173 0.0
C372 C 0.51292 0.58513 0.34844 0.0
C373 C 0.49247 0.63618 0.31321 0.0
C374 C 0.46854 0.41301 0.2583 0.0
C375 C 0.54207 0.60981 0.40562 0.0
C376 C 0.53059 0.3847 0.50565 0.0
C377 C 0.55909 0.35548 0.47034 0.0
C378 C 0.51237 0.43376 0.46013 0.0
C379 C 0.52357 0.45622 0.37815 0.0
C380 C 0.55217 0.42616 0.34162 0.0
C381 C 0.5693 0.37525 0.38774 0.0
C382 C 0.48139 0.46238 0.5005 0.0
C383 C 0.56542 0.44973 0.2553 0.0
H384 H 0.43777 0.52636 0.19885 0.0
H385 H 0.49756 0.69214 0.32848 0.0
H386 H 0.49085 0.38547 0.23618 0.0
H387 H 0.45949 0.38642 0.31795 0.0
H388 H 0.44821 0.40576 0.20964 0.0
H389 H 0.54713 0.66868 0.40436 0.0
H390 H 0.53633 0.59323 0.4721 0.0
H391 H 0.56544 0.58454 0.38621 0.0
H392 H 0.52264 0.36948 0.56954 0.0
H393 H 0.59166 0.35357 0.36084 0.0
H394 H 0.45937 0.45493 0.45684 0.0
H395 H 0.48591 0.52046 0.51215 0.0
H396 H 0.47468 0.43583 0.56197 0.0
H397 H 0.54532 0.44078 0.20648 0.0
H398 H 0.58778 0.421 0.2356 0.0
H399 H 0.5727 0.50781 0.25646 0.0
loop_
_geom_bond_atom_site_label_1
_geom_bond_atom_site_label_2
_geom_bond_distance
_geom_bond_site_symmetry_2
_ccdc_geom_bond_type
Mn0 O5 2.095 . S
Mn0 O15 2.162 . S
Mn0 O16 2.297 . S
Mn0 O24 2.385 . S
Mn0 O25 2.209 . S
Mn0 O26 2.094 . S
Mn1 O6 2.121 . S
Mn1 N8 2.257 . S
Mn1 N17 2.282 . S
Mn1 O25 2.215 . S
Mn1 O27 2.117 . S
C2 O24 1.234 . S
C2 O25 1.283 . S
C3 O15 1.281 . S
C3 O16 1.236 . S
C4 O26 1.240 . S
C4 O27 1.264 . S
O5 Mn0 2.095 . S
O5 C14 1.250 . S
O6 Mn1 2.121 . S
O6 C14 1.258 . S
C7 N8 1.326 1_556 S
C7 C11 1.460 . S
C7 H13 0.929 . S
N8 Mn1 2.257 . S
N8 C7 1.326 1_554 S
N8 C12 1.362 . S
C9 C10 1.258 . S
C9 C12 1.431 1_556 S
C9 C29 1.449 . S
C10 C9 1.258 . S
C10 C11 1.477 . S
C10 H30 0.931 . S
C11 C7 1.460 . S
C11 C10 1.477 . S
C11 H31 0.930 . S
C12 N8 1.362 . S
C12 C9 1.431 1_554 S
C12 C22 1.476 . S
H13 C7 0.929 . S
C14 O5 1.250 . S
C14 O6 1.258 . S
O15 Mn0 2.162 . S
O15 C3 1.281 . S
O16 Mn0 2.297 . S
O16 C3 1.236 . S
N17 Mn1 2.282 . S
N17 C18 1.328 . S
N17 C22 1.318 . S
C18 N17 1.328 . S
C18 C19 1.457 . S
C18 H23 0.929 . S
C19 C18 1.457 . S
C19 C20 1.291 . S
C19 H32 0.931 . S
C20 C19 1.291 . S
C20 C21 1.373 . S
C20 H33 0.929 . S
C21 C20 1.373 . S
C21 C22 1.396 . S
C21 C28 1.403 1_554 S
C22 C12 1.476 . S
C22 N17 1.318 . S
C22 C21 1.396 . S
H23 C18 0.929 . S
O24 Mn0 2.385 . S
O24 C2 1.234 . S
O25 Mn0 2.209 . S
O25 Mn1 2.215 . S
O25 C2 1.283 . S
O26 Mn0 2.094 . S
O26 C4 1.240 . S
O27 Mn1 2.117 . S
O27 C4 1.264 . S
C28 C21 1.403 1_556 S
C28 C29 1.399 . S
C28 H34 0.929 . S
C29 C9 1.449 . S
C29 C28 1.399 . S
C29 H35 0.930 . S
H30 C10 0.931 . S
H31 C11 0.930 . S
H32 C19 0.931 . S
H33 C20 0.929 . S
H34 C28 0.929 . S
H35 C29 0.930 . S
Mn36 O41 2.095 . S
Mn36 O51 2.162 . S
Mn36 O52 2.297 . S
Mn36 O60 2.385 . S
Mn36 O61 2.209 . S
Mn36 O62 2.094 . S
Mn37 O42 2.121 . S
Mn37 N44 2.257 . S
Mn37 N53 2.282 . S
Mn37 O61 2.215 . S
Mn37 O63 2.117 . S
C38 O60 1.234 . S
C38 O61 1.283 . S
C39 O51 1.281 . S
C39 O52 1.236 . S
C40 O62 1.240 . S
C40 O63 1.264 . S
O41 Mn36 2.095 . S
O41 C50 1.250 . S
O42 Mn37 2.121 . S
O42 C50 1.258 . S
C43 N44 1.326 1_556 S
C43 C47 1.460 . S
C43 H49 0.929 . S
N44 Mn37 2.257 . S
N44 C43 1.326 1_554 S
N44 C48 1.362 . S
C45 C46 1.258 . S
C45 C48 1.431 1_556 S
C45 C65 1.449 . S
C46 C45 1.258 . S
C46 C47 1.477 . S
C46 H66 0.931 . S
C47 C43 1.460 . S
C47 C46 1.477 . S
C47 H67 0.930 . S
C48 N44 1.362 . S
C48 C45 1.431 1_554 S
C48 C58 1.476 . S
H49 C43 0.929 . S
C50 O41 1.250 . S
C50 O42 1.258 . S
O51 Mn36 2.162 . S
O51 C39 1.281 . S
O52 Mn36 2.297 . S
O52 C39 1.236 . S
N53 Mn37 2.282 . S
N53 C54 1.328 . S
N53 C58 1.318 . S
C54 N53 1.328 . S
C54 C55 1.457 . S
C54 H59 0.929 . S
C55 C54 1.457 . S
C55 C56 1.291 . S
C55 H68 0.931 . S
C56 C55 1.291 . S
C56 C57 1.373 . S
C56 H69 0.929 . S
C57 C56 1.373 . S
C57 C58 1.396 . S
C57 C64 1.403 1_554 S
C58 C48 1.476 . S
C58 N53 1.318 . S
C58 C57 1.396 . S
H59 C54 0.929 . S
O60 Mn36 2.385 . S
O60 C38 1.234 . S
O61 Mn36 2.209 . S
O61 Mn37 2.215 . S
O61 C38 1.283 . S
O62 Mn36 2.094 . S
O62 C40 1.240 . S
O63 Mn37 2.117 . S
O63 C40 1.264 . S
C64 C57 1.403 1_556 S
C64 C65 1.399 . S
C64 H70 0.929 . S
C65 C45 1.449 . S
C65 C64 1.399 . S
C65 H71 0.930 . S
H66 C46 0.931 . S
H67 C47 0.930 . S
H68 C55 0.931 . S
H69 C56 0.929 . S
H70 C64 0.929 . S
H71 C65 0.930 . S
Mn72 O77 2.095 . S
Mn72 O87 2.162 . S
Mn72 O88 2.297 . S
Mn72 O96 2.385 . S
Mn72 O97 2.209 . S
Mn72 O98 2.094 . S
Mn73 O78 2.121 . S
Mn73 N80 2.257 . S
Mn73 N89 2.282 . S
Mn73 O97 2.215 . S
Mn73 O99 2.117 . S
C74 O96 1.234 . S
C74 O97 1.283 . S
C75 O87 1.281 . S
C75 O88 1.236 . S
C76 O98 1.240 . S
C76 O99 1.264 . S
O77 Mn72 2.095 . S
O77 C86 1.250 . S
O78 Mn73 2.121 . S
O78 C86 1.258 . S
C79 N80 1.326 1_554 S
C79 C83 1.460 . S
C79 H85 0.929 . S
N80 Mn73 2.257 . S
N80 C79 1.326 1_556 S
N80 C84 1.362 . S
C81 C82 1.258 . S
C81 C84 1.431 1_554 S
C81 C101 1.449 . S
C82 C81 1.258 . S
C82 C83 1.477 . S
C82 H102 0.931 . S
C83 C79 1.460 . S
C83 C82 1.477 . S
C83 H103 0.930 . S
C84 N80 1.362 . S
C84 C81 1.431 1_556 S
C84 C94 1.476 . S
H85 C79 0.929 . S
C86 O77 1.250 . S
C86 O78 1.258 . S
O87 Mn72 2.162 . S
O87 C75 1.281 . S
O88 Mn72 2.297 . S
O88 C75 1.236 . S
N89 Mn73 2.282 . S
N89 C90 1.328 . S
N89 C94 1.318 . S
C90 N89 1.328 . S
C90 C91 1.457 . S
C90 H95 0.929 . S
C91 C90 1.457 . S
C91 C92 1.291 . S
C91 H104 0.931 . S
C92 C91 1.291 . S
C92 C93 1.373 . S
C92 H105 0.929 . S
C93 C92 1.373 . S
C93 C94 1.396 . S
C93 C100 1.403 1_556 S
C94 C84 1.476 . S
C94 N89 1.318 . S
C94 C93 1.396 . S
H95 C90 0.929 . S
O96 Mn72 2.385 . S
O96 C74 1.234 . S
O97 Mn72 2.209 . S
O97 Mn73 2.215 . S
O97 C74 1.283 . S
O98 Mn72 2.094 . S
O98 C76 1.240 . S
O99 Mn73 2.117 . S
O99 C76 1.264 . S
C100 C93 1.403 1_554 S
C100 C101 1.399 . S
C100 H106 0.929 . S
C101 C81 1.449 . S
C101 C100 1.399 . S
C101 H107 0.930 . S
H102 C82 0.931 . S
H103 C83 0.930 . S
H104 C91 0.931 . S
H105 C92 0.929 . S
H106 C100 0.929 . S
H107 C101 0.930 . S
Mn108 O113 2.095 . S
Mn108 O123 2.162 . S
Mn108 O124 2.297 . S
Mn108 O132 2.385 . S
Mn108 O133 2.209 . S
Mn108 O134 2.094 . S
Mn109 O114 2.121 . S
Mn109 N116 2.257 . S
Mn109 N125 2.282 . S
Mn109 O133 2.215 . S
Mn109 O135 2.117 . S
C110 O132 1.234 . S
C110 O133 1.283 . S
C111 O123 1.281 . S
C111 O124 1.236 . S
C112 O134 1.240 . S
C112 O135 1.264 . S
O113 Mn108 2.095 . S
O113 C122 1.250 . S
O114 Mn109 2.121 . S
O114 C122 1.258 . S
C115 N116 1.326 1_554 S
C115 C119 1.460 . S
C115 H121 0.929 . S
N116 Mn109 2.257 . S
N116 C115 1.326 1_556 S
N116 C120 1.362 . S
C117 C118 1.258 . S
C117 C120 1.431 1_554 S
C117 C137 1.449 . S
C118 C117 1.258 . S
C118 C119 1.477 . S
C118 H138 0.931 . S
C119 C115 1.460 . S
C119 C118 1.477 . S
C119 H139 0.930 . S
C120 N116 1.362 . S
C120 C117 1.431 1_556 S
C120 C130 1.476 . S
H121 C115 0.929 . S
C122 O113 1.250 . S
C122 O114 1.258 . S
O123 Mn108 2.162 . S
O123 C111 1.281 . S
O124 Mn108 2.297 . S
O124 C111 1.236 . S
N125 Mn109 2.282 . S
N125 C126 1.328 . S
N125 C130 1.318 . S
C126 N125 1.328 . S
C126 C127 1.457 . S
C126 H131 0.929 . S
C127 C126 1.457 . S
C127 C128 1.291 . S
C127 H140 0.931 . S
C128 C127 1.291 . S
C128 C129 1.373 . S
C128 H141 0.929 . S
C129 C128 1.373 . S
C129 C130 1.396 . S
C129 C136 1.403 1_556 S
C130 C120 1.476 . S
C130 N125 1.318 . S
C130 C129 1.396 . S
H131 C126 0.929 . S
O132 Mn108 2.385 . S
O132 C110 1.234 . S
O133 Mn108 2.209 . S
O133 Mn109 2.215 . S
O133 C110 1.283 . S
O134 Mn108 2.094 . S
O134 C112 1.240 . S
O135 Mn109 2.117 . S
O135 C112 1.264 . S
C136 C129 1.403 1_554 S
C136 C137 1.399 . S
C136 H142 0.929 . S
C137 C117 1.449 . S
C137 C136 1.399 . S
C137 H143 0.930 . S
H138 C118 0.931 . S
H139 C119 0.930 . S
H140 C127 0.931 . S
H141 C128 0.929 . S
H142 C136 0.929 . S
H143 C137 0.930 . S
C144 C145 1.391 . S
C144 C146 1.394 1_565 S
C144 H160 0.931 . S
C145 C144 1.391 . S
C145 C149 1.376 . S
C146 C144 1.394 1_545 S
C146 C147 1.369 1_545 S
C146 C150 1.531 . S
C147 C146 1.369 1_565 S
C147 C148 1.410 . S
C147 C155 1.503 1_565 S
C148 C147 1.410 . S
C148 C149 1.392 . S
C148 C151 1.511 . S
C149 C145 1.376 . S
C149 C148 1.392 . S
C149 H161 0.929 . S
C150 C146 1.531 . S
C150 H162 0.960 . S
C150 H163 0.962 . S
C150 H164 0.960 . S
C151 C148 1.511 . S
C151 H165 0.961 . S
C151 H166 0.961 . S
C151 H167 0.961 . S
C152 C153 1.370 . S
C152 C154 1.363 . S
C152 H168 0.931 . S
C153 C152 1.370 . S
C153 C157 1.408 . S
C154 C152 1.363 . S
C154 C155 1.370 . S
C154 C158 1.524 . S
C155 C147 1.503 1_545 S
C155 C154 1.370 . S
C155 C156 1.403 . S
C156 C155 1.403 . S
C156 C157 1.404 . S
C156 C159 1.539 1_545 S
C157 C153 1.408 . S
C157 C156 1.404 . S
C157 H169 0.930 . S
C158 C154 1.524 . S
C158 H170 0.956 . S
C158 H171 0.961 . S
C158 H172 0.961 . S
C159 C156 1.539 1_565 S
C159 H173 0.958 . S
C159 H174 0.961 . S
C159 H175 0.960 . S
H160 C144 0.931 . S
H161 C149 0.929 . S
H162 C150 0.960 . S
H163 C150 0.962 . S
H164 C150 0.960 . S
H165 C151 0.961 . S
H166 C151 0.961 . S
H167 C151 0.961 . S
H168 C152 0.931 . S
H169 C157 0.930 . S
H170 C158 0.956 . S
H171 C158 0.961 . S
H172 C158 0.961 . S
H173 C159 0.958 . S
H174 C159 0.961 . S
H175 C159 0.960 . S
C176 C177 1.391 . S
C176 C178 1.394 . S
C176 H192 0.931 . S
C177 C176 1.391 . S
C177 C181 1.376 . S
C178 C176 1.394 . S
C178 C179 1.369 . S
C178 C182 1.531 . S
C179 C178 1.369 . S
C179 C180 1.410 . S
C179 C187 1.503 . S
C180 C179 1.410 . S
C180 C181 1.392 . S
C180 C183 1.511 . S
C181 C177 1.376 . S
C181 C180 1.392 . S
C181 H193 0.929 . S
C182 C178 1.531 . S
C182 H194 0.960 . S
C182 H195 0.962 . S
C182 H196 0.960 . S
C183 C180 1.511 . S
C183 H197 0.961 . S
C183 H198 0.961 . S
C183 H199 0.961 . S
C184 C185 1.370 . S
C184 C186 1.363 . S
C184 H200 0.931 . S
C185 C184 1.370 . S
C185 C189 1.408 . S
C186 C184 1.363 . S
C186 C187 1.370 . S
C186 C190 1.524 . S
C187 C179 1.503 . S
C187 C186 1.370 . S
C187 C188 1.403 . S
C188 C187 1.403 . S
C188 C189 1.404 . S
C188 C191 1.539 . S
C189 C185 1.408 . S
C189 C188 1.404 . S
C189 H201 0.930 . S
C190 C186 1.524 . S
C190 H202 0.956 . S
C190 H203 0.961 . S
C190 H204 0.961 . S
C191 C188 1.539 . S
C191 H205 0.958 . S
C191 H206 0.961 . S
C191 H207 0.960 . S
H192 C176 0.931 . S
H193 C181 0.929 . S
H194 C182 0.960 . S
H195 C182 0.962 . S
H196 C182 0.960 . S
H197 C183 0.961 . S
H198 C183 0.961 . S
H199 C183 0.961 . S
H200 C184 0.931 . S
H201 C189 0.930 . S
H202 C190 0.956 . S
H203 C190 0.961 . S
H204 C190 0.961 . S
H205 C191 0.958 . S
H206 C191 0.961 . S
H207 C191 0.960 . S
C208 C209 1.391 . S
C208 C210 1.394 . S
C208 H224 0.931 . S
C209 C208 1.391 . S
C209 C213 1.376 . S
C210 C208 1.394 . S
C210 C211 1.369 . S
C210 C214 1.531 . S
C211 C210 1.369 . S
C211 C212 1.410 . S
C211 C219 1.503 1_545 S
C212 C211 1.410 . S
C212 C213 1.392 . S
C212 C215 1.511 1_545 S
C213 C209 1.376 . S
C213 C212 1.392 . S
C213 H225 0.929 . S
C214 C210 1.531 . S
C214 H226 0.960 . S
C214 H227 0.962 . S
C214 H228 0.960 . S
C215 C212 1.511 1_565 S
C215 H229 0.961 . S
C215 H230 0.961 . S
C215 H231 0.961 1_565 S
C216 C217 1.370 . S
C216 C218 1.363 . S
C216 H232 0.931 . S
C217 C216 1.370 . S
C217 C221 1.408 . S
C218 C216 1.363 . S
C218 C219 1.370 . S
C218 C222 1.524 . S
C219 C211 1.503 1_565 S
C219 C218 1.370 . S
C219 C220 1.403 1_565 S
C220 C219 1.403 1_545 S
C220 C221 1.404 1_545 S
C220 C223 1.539 . S
C221 C217 1.408 . S
C221 C220 1.404 1_565 S
C221 H233 0.927 1_565 S
C222 C218 1.524 . S
C222 H234 0.956 . S
C222 H235 0.961 . S
C222 H236 0.961 . S
C223 C220 1.539 . S
C223 H237 0.958 . S
C223 H238 0.961 . S
C223 H239 0.960 . S
H224 C208 0.931 . S
H225 C213 0.929 . S
H226 C214 0.960 . S
H227 C214 0.962 . S
H228 C214 0.960 . S
H229 C215 0.961 . S
H230 C215 0.961 . S
H231 C215 0.961 1_545 S
H232 C216 0.931 . S
H233 C221 0.927 1_545 S
H234 C222 0.956 . S
H235 C222 0.961 . S
H236 C222 0.961 . S
H237 C223 0.958 . S
H238 C223 0.961 . S
H239 C223 0.960 . S
C240 C241 1.391 . S
C240 C242 1.394 . S
C240 H256 0.931 . S
C241 C240 1.391 . S
C241 C245 1.376 . S
C242 C240 1.394 . S
C242 C243 1.369 . S
C242 C246 1.531 . S
C243 C242 1.369 . S
C243 C244 1.410 . S
C243 C251 1.503 . S
C244 C243 1.410 . S
C244 C245 1.392 . S
C244 C247 1.511 . S
C245 C241 1.376 . S
C245 C244 1.392 . S
C245 H257 0.929 . S
C246 C242 1.531 . S
C246 H258 0.960 . S
C246 H259 0.962 . S
C246 H260 0.960 . S
C247 C244 1.511 . S
C247 H261 0.961 . S
C247 H262 0.961 . S
C247 H263 0.961 . S
C248 C249 1.370 . S
C248 C250 1.363 . S
C248 H264 0.931 . S
C249 C248 1.370 . S
C249 C253 1.408 . S
C250 C248 1.363 . S
C250 C251 1.370 . S
C250 C254 1.524 . S
C251 C243 1.503 . S
C251 C250 1.370 . S
C251 C252 1.403 . S
C252 C251 1.403 . S
C252 C253 1.404 . S
C252 C255 1.539 . S
C253 C249 1.408 . S
C253 C252 1.404 . S
C253 H265 0.930 . S
C254 C250 1.524 . S
C254 H266 0.956 . S
C254 H267 0.961 . S
C254 H268 0.961 . S
C255 C252 1.539 . S
C255 H269 0.958 . S
C255 H270 0.961 . S
C255 H271 0.960 . S
H256 C240 0.931 . S
H257 C245 0.929 . S
H258 C246 0.960 . S
H259 C246 0.962 . S
H260 C246 0.960 . S
H261 C247 0.961 . S
H262 C247 0.961 . S
H263 C247 0.961 . S
H264 C248 0.931 . S
H265 C253 0.930 . S
H266 C254 0.956 . S
H267 C254 0.961 . S
H268 C254 0.961 . S
H269 C255 0.958 . S
H270 C255 0.961 . S
H271 C255 0.960 . S
C272 C273 1.391 . S
C272 C274 1.394 . S
C272 H288 0.931 . S
C273 C272 1.391 . S
C273 C277 1.376 . S
C274 C272 1.394 . S
C274 C275 1.369 . S
C274 C278 1.531 1_545 S
C275 C274 1.369 . S
C275 C276 1.415 . S
C275 C283 1.503 1_444 S
C276 C275 1.415 . S
C276 C277 1.402 . S
C276 C279 1.497 1_454 S
C277 C273 1.376 . S
C277 C276 1.402 . S
C277 H289 0.929 . S
C278 C274 1.531 1_565 S
C278 H290 0.960 . S
C278 H291 0.962 . S
C278 H292 0.960 . S
C279 C276 1.497 1_656 S
C279 H293 0.961 . S
C279 H294 0.961 . S
C279 H295 0.961 1_556 S
C280 C281 1.370 . S
C280 C282 1.363 . S
C280 H296 0.931 . S
C281 C280 1.370 . S
C281 C285 1.408 . S
C282 C280 1.363 . S
C282 C283 1.370 . S
C282 C286 1.524 1_655 S
C283 C275 1.503 1_666 S
C283 C282 1.370 . S
C283 C284 1.403 1_556 S
C284 C283 1.403 1_554 S
C284 C285 1.404 1_554 S
C284 C287 1.539 . S
C285 C281 1.408 . S
C285 C284 1.404 1_556 S
C285 H297 0.927 1_556 S
C286 C282 1.524 1_455 S
C286 H298 0.956 . S
C286 H299 0.962 1_565 S
C286 H300 0.960 . S
C287 C284 1.539 . S
C287 H301 0.958 . S
C287 H302 0.961 . S
C287 H303 0.960 . S
H288 C272 0.931 . S
H289 C277 0.929 . S
H290 C278 0.960 . S
H291 C278 0.962 . S
H292 C278 0.960 . S
H293 C279 0.961 . S
H294 C279 0.961 . S
H295 C279 0.961 1_554 S
H296 C280 0.931 . S
H297 C285 0.927 1_554 S
H298 C286 0.956 . S
H299 C286 0.962 1_545 S
H300 C286 0.960 . S
H301 C287 0.958 . S
H302 C287 0.961 . S
H303 C287 0.960 . S
C304 C305 1.391 . S
C304 C306 1.394 . S
C304 H320 0.931 . S
C305 C304 1.391 . S
C305 C309 1.376 . S
C306 C304 1.394 . S
C306 C307 1.369 . S
C306 C310 1.531 1_545 S
C307 C306 1.369 . S
C307 C308 1.410 1_556 S
C307 C315 1.503 1_546 S
C308 C307 1.410 1_554 S
C308 C309 1.392 1_554 S
C308 C311 1.511 . S
C309 C305 1.376 . S
C309 C308 1.392 1_556 S
C309 H321 0.929 . S
C310 C306 1.531 1_565 S
C310 H322 0.960 . S
C310 H323 0.962 1_565 S
C310 H324 0.960 . S
C311 C308 1.511 . S
C311 H325 0.961 . S
C311 H326 0.961 . S
C311 H327 0.961 1_545 S
C312 C313 1.370 . S
C312 C314 1.363 . S
C312 H328 0.931 . S
C313 C312 1.370 . S
C313 C317 1.408 . S
C314 C312 1.363 . S
C314 C315 1.370 . S
C314 C318 1.524 1_565 S
C315 C307 1.503 1_564 S
C315 C314 1.370 . S
C315 C316 1.403 . S
C316 C315 1.403 . S
C316 C317 1.404 . S
C316 C319 1.539 1_554 S
C317 C313 1.408 . S
C317 C316 1.404 . S
C317 H329 0.930 . S
C318 C314 1.524 1_545 S
C318 H330 0.956 . S
C318 H331 0.961 . S
C318 H332 0.961 . S
C319 C316 1.539 1_556 S
C319 H333 0.958 . S
C319 H334 0.961 . S
C319 H335 0.960 . S
H320 C304 0.931 . S
H321 C309 0.929 . S
H322 C310 0.960 . S
H323 C310 0.962 1_545 S
H324 C310 0.960 . S
H325 C311 0.961 . S
H326 C311 0.961 . S
H327 C311 0.961 1_565 S
H328 C312 0.931 . S
H329 C317 0.930 . S
H330 C318 0.956 . S
H331 C318 0.961 . S
H332 C318 0.961 . S
H333 C319 0.958 . S
H334 C319 0.961 . S
H335 C319 0.960 . S
C336 C337 1.391 . S
C336 C338 1.394 1_655 S
C336 H352 0.931 . S
C337 C336 1.391 . S
C337 C341 1.376 . S
C338 C336 1.394 1_455 S
C338 C339 1.369 1_455 S
C338 C342 1.531 . S
C339 C338 1.369 1_655 S
C339 C340 1.410 . S
C339 C347 1.503 1_655 S
C340 C339 1.410 . S
C340 C341 1.392 . S
C340 C343 1.511 . S
C341 C337 1.376 . S
C341 C340 1.392 . S
C341 H353 0.929 . S
C342 C338 1.531 . S
C342 H354 0.960 . S
C342 H355 0.962 . S
C342 H356 0.960 . S
C343 C340 1.511 . S
C343 H357 0.961 . S
C343 H358 0.961 . S
C343 H359 0.961 . S
C344 C345 1.370 . S
C344 C346 1.363 . S
C344 H360 0.931 . S
C345 C344 1.370 . S
C345 C349 1.408 . S
C346 C344 1.363 . S
C346 C347 1.370 . S
C346 C350 1.524 . S
C347 C339 1.503 1_455 S
C347 C346 1.370 . S
C347 C348 1.403 . S
C348 C347 1.403 . S
C348 C349 1.404 . S
C348 C351 1.539 1_455 S
C349 C345 1.408 . S
C349 C348 1.404 . S
C349 H361 0.930 . S
C350 C346 1.524 . S
C350 H362 0.956 . S
C350 H363 0.961 1_455 S
C350 H364 0.961 . S
C351 C348 1.539 1_655 S
C351 H365 0.958 1_655 S
C351 H366 0.961 . S
C351 H367 0.960 . S
H352 C336 0.931 . S
H353 C341 0.929 . S
H354 C342 0.960 . S
H355 C342 0.962 . S
H356 C342 0.960 . S
H357 C343 0.961 . S
H358 C343 0.961 . S
H359 C343 0.961 . S
H360 C344 0.931 . S
H361 C349 0.930 . S
H362 C350 0.956 . S
H363 C350 0.961 1_655 S
H364 C350 0.961 . S
H365 C351 0.958 1_455 S
H366 C351 0.961 . S
H367 C351 0.960 . S
C368 C369 1.391 . S
C368 C370 1.394 . S
C368 H384 0.931 . S
C369 C368 1.391 . S
C369 C373 1.376 . S
C370 C368 1.394 . S
C370 C371 1.369 . S
C370 C374 1.531 . S
C371 C370 1.369 . S
C371 C372 1.410 . S
C371 C379 1.503 . S
C372 C371 1.410 . S
C372 C373 1.392 . S
C372 C375 1.511 . S
C373 C369 1.376 . S
C373 C372 1.392 . S
C373 H385 0.929 . S
C374 C370 1.531 . S
C374 H386 0.960 . S
C374 H387 0.962 . S
C374 H388 0.960 . S
C375 C372 1.511 . S
C375 H389 0.961 . S
C375 H390 0.961 . S
C375 H391 0.961 . S
C376 C377 1.370 . S
C376 C378 1.363 . S
C376 H392 0.931 . S
C377 C376 1.370 . S
C377 C381 1.408 . S
C378 C376 1.363 . S
C378 C379 1.370 . S
C378 C382 1.524 . S
C379 C371 1.503 . S
C379 C378 1.370 . S
C379 C380 1.403 . S
C380 C379 1.403 . S
C380 C381 1.404 . S
C380 C383 1.539 . S
C381 C377 1.408 . S
C381 C380 1.404 . S
C381 H393 0.930 . S
C382 C378 1.524 . S
C382 H394 0.956 . S
C382 H395 0.961 . S
C382 H396 0.961 . S
C383 C380 1.539 . S
C383 H397 0.958 . S
C383 H398 0.961 . S
C383 H399 0.960 . S
H384 C368 0.931 . S
H385 C373 0.929 . S
H386 C374 0.960 . S
H387 C374 0.962 . S
H388 C374 0.960 . S
H389 C375 0.961 . S
H390 C375 0.961 . S
H391 C375 0.961 . S
H392 C376 0.931 . S
H393 C381 0.930 . S
H394 C382 0.956 . S
H395 C382 0.961 . S
H396 C382 0.961 . S
H397 C383 0.958 . S
H398 C383 0.961 . S
H399 C383 0.960 . S
C145 C40 0.943 . S
C153 C4 0.987 . S
C177 C2 0.938 . S
C185 C38 0.916 . S
C209 C112 0.944 . S
C217 C76 0.996 . S
C241 C74 0.909 . S
C249 C110 0.886 . S
C273 C14 1.498 . S
C281 C86 1.480 . S
C305 C122 1.455 . S
C313 C50 1.500 . S
C337 C75 1.552 . S
C345 C3 1.582 . S
C369 C39 1.555 . S
C377 C111 1.580 . S
