# Generated by pormake.
# Topology nia-e, (7)-cn, num edge types: 1
# Building blocks:
#     Node 0, Type 0, BuildingBlock: OLANEW_clean_sbu_3, # of connection points: 7
#     Node 1, Type 0, BuildingBlock: OLANEW_clean_sbu_3, # of connection points: 7
#     Node 2, Type 0, BuildingBlock: OLANEW_clean_sbu_3, # of connection points: 7
#     Node 3, Type 0, BuildingBlock: OLANEW_clean_sbu_3, # of connection points: 7
#     Node 4, Type 0, BuildingBlock: OLANEW_clean_sbu_3, # of connection points: 7
#     Node 5, Type 0, BuildingBlock: OLANEW_clean_sbu_3, # of connection points: 7
#     Node 6, Type 0, BuildingBlock: OLANEW_clean_sbu_3, # of connection points: 7
#     Node 7, Type 0, BuildingBlock: OLANEW_clean_sbu_3, # of connection points: 7
#     Node 8, Type 0, BuildingBlock: OLANEW_clean_sbu_3, # of connection points: 7
#     Node 9, Type 0, BuildingBlock: OLANEW_clean_sbu_3, # of connection points: 7
#     Node 10, Type 0, BuildingBlock: OLANEW_clean_sbu_3, # of connection points: 7
#     Node 11, Type 0, BuildingBlock: OLANEW_clean_sbu_3, # of connection points: 7
#     Edge 12, Type (0, 0), None
#     Edge 13, Type (0, 0), None
#     Edge 14, Type (0, 0), None
#     Edge 15, Type (0, 0), None
#     Edge 16, Type (0, 0), None
#     Edge 17, Type (0, 0), None
#     Edge 18, Type (0, 0), None
#     Edge 19, Type (0, 0), None
#     Edge 20, Type (0, 0), None
#     Edge 21, Type (0, 0), None
#     Edge 22, Type (0, 0), None
#     Edge 23, Type (0, 0), None
#     Edge 24, Type (0, 0), None
#     Edge 25, Type (0, 0), None
#     Edge 26, Type (0, 0), None
#     Edge 27, Type (0, 0), None
#     Edge 28, Type (0, 0), None
#     Edge 29, Type (0, 0), None
#     Edge 30, Type (0, 0), None
#     Edge 31, Type (0, 0), None
#     Edge 32, Type (0, 0), None
#     Edge 33, Type (0, 0), None
#     Edge 34, Type (0, 0), None
#     Edge 35, Type (0, 0), None
#     Edge 36, Type (0, 0), None
#     Edge 37, Type (0, 0), None
#     Edge 38, Type (0, 0), None
#     Edge 39, Type (0, 0), None
#     Edge 40, Type (0, 0), None
#     Edge 41, Type (0, 0), None
#     Edge 42, Type (0, 0), None
#     Edge 43, Type (0, 0), None
#     Edge 44, Type (0, 0), None
#     Edge 45, Type (0, 0), None
#     Edge 46, Type (0, 0), None
#     Edge 47, Type (0, 0), None
#     Edge 48, Type (0, 0), None
#     Edge 49, Type (0, 0), None
#     Edge 50, Type (0, 0), None
#     Edge 51, Type (0, 0), None
#     Edge 52, Type (0, 0), None
#     Edge 53, Type (0, 0), None
# Relax obj value: 0.214
# Max RMSD: 0.287
# Mean RMSD: 0.287
data_MOF--net-nia-e--node1-OLANEW_clean_sbu_3--edge1-none
_symmetry_space_group_name_H-M    P1
_symmetry_Int_Tables_number       1
_symmetry_cell_setting            triclinic
loop_
_symmetry_equiv_pos_as_xyz
'x, y, z'
_cell_length_a     27.816659
_cell_length_b     27.815966
_cell_length_c     35.447953
_cell_angle_alpha  89.999388
_cell_angle_beta   90.000386
_cell_angle_gamma 120.00003
loop_
_atom_site_label
_atom_site_type_symbol
_atom_site_fract_x
_atom_site_fract_y
_atom_site_fract_z
_atom_type_partial_charge
C0 C 0.30192 0.43139 0.1795 0.0
C1 C 0.31925 0.40695 0.2068 0.0
C2 C 0.29557 0.34846 0.20606 0.0
C3 C 0.25526 0.3157 0.17866 0.0
C4 C 0.23999 0.34289 0.15218 0.0
N5 N 0.26518 0.39838 0.15373 0.0
C6 C 0.1972 0.31873 0.12211 0.0
C7 C 0.15762 0.344 0.0688 0.0
C8 C 0.17635 0.32856 0.03673 0.0
C9 C 0.14807 0.31875 1.00249 0.0
C10 C 0.10077 0.32394 1.00013 0.0
C11 C 0.08126 0.33802 0.03216 0.0
C12 C 0.10913 0.34739 0.0665 0.0
Cd13 Cd 0.0824 0.18145 0.11253 0.0
Cd14 Cd 0.06201 0.12272 0.22518 0.0
C15 C 0.3127 0.55567 0.1286 0.0
C16 C 0.28656 0.6096 0.0879 0.0
C17 C 0.33019 0.61389 0.06513 0.0
C18 C 0.37831 0.62589 0.08563 0.0
C19 C 0.36797 0.58768 0.11508 0.0
C20 C 0.27541 0.57498 0.11986 0.0
Co21 Co 0.2388 0.43164 0.1219 0.0
N22 N 0.2903 0.44228 0.0802 0.0
N23 N 0.21057 0.46366 0.09038 0.0
C24 C 0.23308 0.47812 0.05617 0.0
C25 C 0.21093 0.50049 0.03078 0.0
C26 C 0.16582 0.5066 0.04304 0.0
C27 C 0.14383 0.49034 0.07985 0.0
C28 C 0.16807 0.46815 0.10357 0.0
N29 N 0.18412 0.42707 0.15843 0.0
N30 N 0.1882 0.35678 0.10347 0.0
N31 N 0.29316 0.50167 0.1452 0.0
O32 O 0.97495 0.05933 0.19821 0.0
O33 O 0.99877 0.09863 0.1416 0.0
C34 C 0.03245 0.1683 0.03888 0.0
O35 O 0.03907 0.20868 0.05949 0.0
O36 O 0.04977 0.13751 0.05214 0.0
C37 C 0.12735 0.1185 0.14866 0.0
O38 O 0.13359 0.12917 0.11381 0.0
O39 O 0.11345 0.14722 0.16853 0.0
C40 C 0.27924 0.46731 0.05062 0.0
O41 O 0.30952 0.48313 1.01976 0.0
O42 O 0.07807 0.22719 0.1723 0.0
O43 O 0.05816 0.20595 0.23258 0.0
C44 C 0.15322 0.44773 0.14256 0.0
O45 O 0.11024 0.44529 0.15988 0.0
C46 C 0.16488 0.39147 0.19092 0.0
C47 C 0.11797 0.33916 0.18634 0.0
C48 C 0.1001 0.30021 0.21531 0.0
C49 C 0.12533 0.31663 0.25076 0.0
C50 C 0.17665 0.36593 0.25496 0.0
C51 C 0.19503 0.40508 0.22533 0.0
C52 C 0.96366 0.06105 0.16367 0.0
O53 O 0.17719 0.26634 0.10872 0.0
C54 C 0.07178 0.24066 0.20568 0.0
C55 C 0.33022 0.42335 0.07709 0.0
C56 C 0.37066 0.43656 0.10497 0.0
C57 C 0.41005 0.4198 0.10165 0.0
C58 C 0.41184 0.39206 0.06946 0.0
C59 C 0.37562 0.38301 0.03928 0.0
C60 C 0.33367 0.397 0.04381 0.0
C61 C 0.31891 0.49076 0.17422 0.0
O62 O 0.35866 0.53053 0.19425 0.0
H63 H 0.34929 0.43177 0.22815 0.0
H64 H 0.30785 0.32845 0.22706 0.0
H65 H 0.23622 0.27093 0.17869 0.0
H66 H 0.21286 0.32434 0.0382 0.0
H67 H 0.07892 0.3165 0.97362 0.0
H68 H 0.09272 0.35709 0.09113 0.0
H69 H 0.33408 0.62813 0.03637 0.0
H70 H 0.4013 0.58307 0.12694 0.0
H71 H 0.23958 0.56349 0.13752 0.0
H72 H 0.22778 0.51292 1.00266 0.0
H73 H 0.14799 0.52396 0.02407 0.0
H74 H 0.10935 0.49497 0.08925 0.0
H75 H 0.09868 0.32718 0.15877 0.0
H76 H 0.11092 0.28644 0.27347 0.0
H77 H 0.23341 0.44402 0.2283 0.0
H78 H 0.37474 0.46289 0.12822 0.0
H79 H 0.44464 0.38203 0.06699 0.0
H80 H 0.30539 0.3895 0.02067 0.0
C81 C 0.88277 0.29581 0.67949 0.0
C82 C 0.92453 0.31313 0.7068 0.0
C83 C 0.95935 0.28946 0.70606 0.0
C84 C 0.9518 0.24915 0.67865 0.0
C85 C 0.90934 0.23388 0.65218 0.0
N86 N 0.87904 0.25906 0.65373 0.0
C87 C 0.8907 0.19108 0.6221 0.0
C88 C 0.82586 0.15151 0.56879 0.0
C89 C 0.86003 0.17024 0.53672 0.0
C90 C 0.84156 0.14196 0.50248 0.0
C91 C 0.78907 0.09466 0.50012 0.0
C92 C 0.75548 0.07514 0.53216 0.0
C93 C 0.77398 0.10301 0.56649 0.0
Cd94 Cd 0.91319 0.07629 0.61253 0.0
Cd95 Cd 0.95153 0.0559 0.72518 0.0
C96 C 0.76927 0.30658 0.6286 0.0
C97 C 0.6892 0.28044 0.5879 0.0
C98 C 0.72854 0.32407 0.56513 0.0
C99 C 0.76465 0.37219 0.58562 0.0
C100 C 0.79253 0.36185 0.61508 0.0
C101 C 0.71266 0.26929 0.61986 0.0
Co102 Co 0.8194 0.23268 0.6219 0.0
N103 N 0.86025 0.28418 0.5802 0.0
N104 N 0.75915 0.20445 0.59038 0.0
C105 C 0.76719 0.22696 0.55617 0.0
C106 C 0.72268 0.20481 0.53078 0.0
C107 C 0.67145 0.1597 0.54303 0.0
C108 C 0.66573 0.13771 0.57984 0.0
C109 C 0.71216 0.16195 0.60357 0.0
N110 N 0.76928 0.17799 0.65843 0.0
N111 N 0.84366 0.18209 0.60347 0.0
N112 N 0.80372 0.28704 0.6452 0.0
O113 O 0.92786 0.96884 0.69822 0.0
O114 O 0.91238 0.99266 0.6416 0.0
C115 C 0.87639 0.02633 0.53889 0.0
O116 O 0.84264 0.03297 0.55948 0.0
O117 O 0.9245 0.04364 0.55215 0.0
C118 C 0.02109 0.12125 0.64866 0.0
O119 O 1.01667 0.12749 0.61381 0.0
O120 O 0.97847 0.10734 0.66853 0.0
C121 C 0.82416 0.27312 0.55062 0.0
O122 O 0.83863 0.30341 0.51976 0.0
O123 O 0.86313 0.07196 0.6723 0.0
O124 O 0.86446 0.05205 0.73258 0.0
C125 C 0.71772 0.14709 0.64256 0.0
O126 O 0.67719 0.10412 0.65988 0.0
C127 C 0.78565 0.15876 0.69091 0.0
C128 C 0.79104 0.11185 0.68634 0.0
C129 C 0.81213 0.09398 0.71531 0.0
C130 C 0.82093 0.11921 0.75076 0.0
C131 C 0.82296 0.17053 0.75496 0.0
C132 C 0.80218 0.18891 0.72533 0.0
C133 C 0.91486 0.95755 0.66368 0.0
O134 O 0.92309 0.17108 0.60871 0.0
C135 C 0.84336 0.06566 0.70568 0.0
C136 C 0.91911 0.32411 0.57708 0.0
C137 C 0.94634 0.36454 0.60497 0.0
C138 C 1.00249 0.40393 0.60164 0.0
C139 C 0.03201 0.40572 0.56945 0.0
C140 C 1.00485 0.36951 0.53927 0.0
C141 C 0.94891 0.32756 0.5438 0.0
C142 C 0.84038 0.31279 0.67422 0.0
O143 O 0.84036 0.35254 0.69425 0.0
H144 H 0.92976 0.34318 0.72814 0.0
H145 H 0.99164 0.30174 0.72706 0.0
H146 H 0.97752 0.23011 0.67869 0.0
H147 H 0.90076 0.20674 0.53819 0.0
H148 H 0.77466 0.07281 0.47362 0.0
H149 H 0.74787 0.0866 0.59113 0.0
H150 H 0.71819 0.32796 0.53637 0.0
H151 H 0.83046 0.39518 0.62694 0.0
H152 H 0.68833 0.23346 0.63752 0.0
H153 H 0.72709 0.22166 0.50266 0.0
H154 H 0.63627 0.14187 0.52406 0.0
H155 H 0.62662 0.10323 0.58925 0.0
H156 H 0.78374 0.09256 0.65877 0.0
H157 H 0.83672 0.1048 0.77347 0.0
H158 H 0.80162 0.22729 0.72829 0.0
H159 H 0.92409 0.36862 0.62822 0.0
H160 H 0.07484 0.43852 0.56699 0.0
H161 H 0.92813 0.29927 0.52067 0.0
C162 C 0.5992 0.87668 0.17951 0.0
C163 C 0.62365 0.91845 0.20681 0.0
C164 C 0.68214 0.95326 0.20607 0.0
C165 C 0.71489 0.9457 0.17866 0.0
C166 C 0.68769 0.90323 0.15219 0.0
N167 N 0.63221 0.87294 0.15374 0.0
C168 C 0.71185 0.88459 0.12211 0.0
C169 C 0.68657 0.81974 0.06881 0.0
C170 C 0.70201 0.8539 0.03674 0.0
C171 C 0.71182 0.83542 1.0025 0.0
C172 C 0.70663 0.78292 1.00015 0.0
C173 C 0.69255 0.74934 0.03218 0.0
C174 C 0.68318 0.76785 0.06652 0.0
Cd175 Cd 0.84913 0.90708 0.11253 0.0
Cd176 Cd 0.90787 0.94541 0.22518 0.0
C177 C 0.47492 0.76319 0.12862 0.0
C178 C 0.42098 0.68313 0.08792 0.0
C179 C 0.41672 0.72246 0.06513 0.0
C180 C 0.40473 0.75859 0.08561 0.0
C181 C 0.44294 0.78647 0.11507 0.0
C182 C 0.45559 0.70657 0.11989 0.0
Co183 Co 0.59895 0.8133 0.12191 0.0
N184 N 0.5883 0.85415 0.08021 0.0
N185 N 0.56691 0.75304 0.0904 0.0
C186 C 0.55245 0.76108 0.05619 0.0
C187 C 0.53008 0.71656 0.0308 0.0
C188 C 0.52395 0.66533 0.04306 0.0
C189 C 0.54021 0.65961 0.07987 0.0
C190 C 0.56242 0.70605 0.10359 0.0
N191 N 0.60351 0.76318 0.15845 0.0
N192 N 0.67379 0.83754 0.10348 0.0
N193 N 0.52892 0.79763 0.14522 0.0
O194 O 0.97125 0.92174 0.19822 0.0
O195 O 0.93195 0.90626 0.1416 0.0
C196 C 0.86228 0.87027 0.03889 0.0
O197 O 0.8219 0.83652 0.05949 0.0
O198 O 0.89307 0.9184 0.05215 0.0
C199 C 0.9121 0.01496 0.14865 0.0
O200 O 0.90141 1.01056 0.11381 0.0
O201 O 0.88337 0.97234 0.16854 0.0
C202 C 0.56327 0.81806 0.05064 0.0
O203 O 0.54745 0.83252 1.01977 0.0
O204 O 0.80339 0.85702 0.17231 0.0
O205 O 0.82464 0.85835 0.23259 0.0
C206 C 0.58283 0.71161 0.14258 0.0
O207 O 0.58527 0.67108 0.1599 0.0
C208 C 0.63911 0.77954 0.19093 0.0
C209 C 0.69142 0.78494 0.18635 0.0
C210 C 0.73037 0.80602 0.21532 0.0
C211 C 0.71395 0.81484 0.25077 0.0
C212 C 0.66466 0.81686 0.25497 0.0
C213 C 0.6255 0.79608 0.22535 0.0
C214 C 0.96953 0.90874 0.16368 0.0
O215 O 0.76423 0.91697 0.10872 0.0
C216 C 0.78992 0.83725 0.20568 0.0
C217 C 0.60724 0.91301 0.07709 0.0
C218 C 0.59404 0.94024 0.10498 0.0
C219 C 0.6108 0.99639 0.10165 0.0
C220 C 0.63854 0.02591 0.06946 0.0
C221 C 0.64758 0.99874 0.03928 0.0
C222 C 0.6336 0.94281 0.04381 0.0
C223 C 0.53983 0.8343 0.17423 0.0
O224 O 0.50007 0.83429 0.19426 0.0
H225 H 0.59883 0.92368 0.22815 0.0
H226 H 0.70215 0.98555 0.22706 0.0
H227 H 0.75966 0.97142 0.17869 0.0
H228 H 0.70624 0.89462 0.0382 0.0
H229 H 0.71406 0.76851 0.97364 0.0
H230 H 0.67347 0.74174 0.09116 0.0
H231 H 0.40248 0.71209 0.03637 0.0
H232 H 0.44756 0.82441 0.12693 0.0
H233 H 0.46707 0.68223 0.13755 0.0
H234 H 0.51764 0.72098 1.00268 0.0
H235 H 0.50659 0.63014 0.02409 0.0
H236 H 0.53558 0.6205 0.08928 0.0
H237 H 0.7034 0.77763 0.15878 0.0
H238 H 0.74415 0.83062 0.27348 0.0
H239 H 0.58657 0.79553 0.22831 0.0
H240 H 0.56771 0.918 0.12823 0.0
H241 H 0.64857 0.06875 0.06699 0.0
H242 H 0.64109 0.92202 0.02068 0.0
C243 C 0.73476 0.59308 0.67951 0.0
C244 C 0.71744 0.61753 0.70681 0.0
C245 C 0.74112 0.67602 0.70607 0.0
C246 C 0.78143 0.70877 0.67867 0.0
C247 C 0.7967 0.68157 0.65219 0.0
N248 N 0.77151 0.62609 0.65374 0.0
C249 C 0.83949 0.70573 0.62212 0.0
C250 C 0.87907 0.68046 0.56882 0.0
C251 C 0.86035 0.6959 0.53674 0.0
C252 C 0.88863 0.7057 0.50251 0.0
C253 C 0.93593 0.70051 0.50015 0.0
C254 C 0.95544 0.68643 0.53219 0.0
C255 C 0.92757 0.67707 0.56652 0.0
Cd256 Cd 0.95428 0.84301 0.61253 0.0
Cd257 Cd 0.97469 0.90176 0.72518 0.0
C258 C 0.72397 0.4688 0.62862 0.0
C259 C 0.75009 0.41486 0.58792 0.0
C260 C 0.7065 0.4106 0.56513 0.0
C261 C 0.65837 0.39861 0.58561 0.0
C262 C 0.66871 0.43682 0.61507 0.0
C263 C 0.76125 0.44947 0.61989 0.0
Co264 Co 0.79788 0.59283 0.62192 0.0
N265 N 0.7464 0.58218 0.58022 0.0
N266 N 0.82612 0.5608 0.5904 0.0
C267 C 0.80361 0.54634 0.55619 0.0
C268 C 0.82576 0.52396 0.53081 0.0
C269 C 0.87086 0.51784 0.54307 0.0
C270 C 0.89284 0.5341 0.57988 0.0
C271 C 0.86861 0.5563 0.6036 0.0
N272 N 0.85256 0.59739 0.65845 0.0
N273 N 0.84849 0.66768 0.60349 0.0
N274 N 0.74352 0.52279 0.64522 0.0
O275 O 0.06174 0.96514 0.69821 0.0
O276 O 0.03792 0.92584 0.6416 0.0
C277 C 1.00423 0.85616 0.53889 0.0
O278 O 0.99762 0.81579 0.55949 0.0
O279 O 0.98689 0.88695 0.55214 0.0
C280 C 0.90938 0.90599 0.64865 0.0
O281 O 0.9031 0.8953 0.61381 0.0
O282 O 0.92326 0.87725 0.66854 0.0
C283 C 0.75745 0.55715 0.55064 0.0
O284 O 0.72717 0.54133 0.51978 0.0
O285 O 0.95861 0.79728 0.67231 0.0
O286 O 0.97853 0.81852 0.73259 0.0
C287 C 0.88346 0.57672 0.64259 0.0
O288 O 0.92643 0.57915 0.65991 0.0
C289 C 0.8718 0.63299 0.69094 0.0
C290 C 0.91871 0.6853 0.68636 0.0
C291 C 0.93658 0.72426 0.71532 0.0
C292 C 0.91135 0.70784 0.75078 0.0
C293 C 0.86003 0.65854 0.75498 0.0
C294 C 0.84165 0.61938 0.72535 0.0
C295 C 0.07303 0.96342 0.66367 0.0
O296 O 0.8595 0.75812 0.60872 0.0
C297 C 0.96491 0.78381 0.70569 0.0
C298 C 0.70647 0.60112 0.5771 0.0
C299 C 0.66603 0.58791 0.60498 0.0
C300 C 0.62664 0.60467 0.60165 0.0
C301 C 0.62486 0.63241 0.56946 0.0
C302 C 0.66108 0.64146 0.53928 0.0
C303 C 0.70303 0.62747 0.54382 0.0
C304 C 0.71777 0.53371 0.67424 0.0
O305 O 0.67801 0.49394 0.69426 0.0
H306 H 0.68739 0.5927 0.72816 0.0
H307 H 0.72883 0.69603 0.72707 0.0
H308 H 0.80047 0.75354 0.6787 0.0
H309 H 0.82385 0.70012 0.53821 0.0
H310 H 0.95778 0.70795 0.47365 0.0
H311 H 0.94397 0.66736 0.59116 0.0
H312 H 0.70263 0.39636 0.53637 0.0
H313 H 0.63539 0.44144 0.62693 0.0
H314 H 0.79708 0.46095 0.63755 0.0
H315 H 0.80891 0.51153 0.50269 0.0
H316 H 0.88869 0.50048 0.5241 0.0
H317 H 0.92732 0.52947 0.58929 0.0
H318 H 0.938 0.69728 0.65879 0.0
H319 H 0.92576 0.73804 0.77348 0.0
H320 H 0.80327 0.58045 0.72832 0.0
H321 H 0.66195 0.56158 0.62823 0.0
H322 H 0.59206 0.64244 0.56699 0.0
H323 H 0.73131 0.63497 0.52069 0.0
C324 C 0.15394 0.72866 0.17951 0.0
C325 C 0.11217 0.71133 0.20681 0.0
C326 C 0.07735 0.73501 0.20607 0.0
C327 C 0.0849 0.77531 0.17867 0.0
C328 C 0.12737 0.79059 0.15219 0.0
N329 N 0.15766 0.76541 0.15374 0.0
C330 C 0.146 0.83339 0.12212 0.0
C331 C 0.21084 0.87297 0.06881 0.0
C332 C 0.17667 0.85424 0.03674 0.0
C333 C 0.19515 0.88252 1.0025 0.0
C334 C 0.24764 0.92982 1.00014 0.0
C335 C 0.28123 0.94934 0.03218 0.0
C336 C 0.26273 0.92147 0.06651 0.0
Cd337 Cd 0.1235 0.94817 0.11253 0.0
Cd338 Cd 0.08516 0.96858 0.22518 0.0
C339 C 0.26744 0.7179 0.12862 0.0
C340 C 0.3475 0.74403 0.08791 0.0
C341 C 0.30817 0.70042 0.06513 0.0
C342 C 0.27207 0.65233 0.08564 0.0
C343 C 0.24418 0.66263 0.1151 0.0
C344 C 0.32405 0.7552 0.11988 0.0
Co345 Co 0.21731 0.79179 0.12192 0.0
N346 N 0.17646 0.7403 0.08022 0.0
N347 N 0.27756 0.82004 0.0904 0.0
C348 C 0.26952 0.79753 0.05619 0.0
C349 C 0.31404 0.81969 0.0308 0.0
C350 C 0.36526 0.8648 0.04306 0.0
C351 C 0.37098 0.88678 0.07987 0.0
C352 C 0.32455 0.86254 0.10359 0.0
N353 N 0.26742 0.84648 0.15845 0.0
N354 N 0.19305 0.84239 0.10349 0.0
N355 N 0.23299 0.73744 0.14522 0.0
O356 O 0.10885 0.05564 0.19822 0.0
O357 O 0.12433 0.03183 0.1416 0.0
C358 C 0.16031 0.99813 0.03889 0.0
O359 O 0.19406 0.9915 0.05949 0.0
O360 O 0.11219 0.98081 0.05215 0.0
C361 C 1.01562 0.90327 0.14865 0.0
O362 O 0.02002 0.89699 0.11381 0.0
O363 O 0.05824 0.91715 0.16854 0.0
C364 C 0.21255 0.75136 0.05064 0.0
O365 O 0.19809 0.72108 1.01978 0.0
O366 O 0.17356 0.95251 0.17232 0.0
O367 O 0.17222 0.97241 0.23259 0.0
C368 C 0.31898 0.87739 0.14258 0.0
O369 O 0.35951 0.92036 0.1599 0.0
C370 C 0.25105 0.86571 0.19093 0.0
C371 C 0.24564 0.91262 0.18636 0.0
C372 C 0.22456 0.93048 0.21532 0.0
C373 C 0.21575 0.90525 0.25078 0.0
C374 C 0.21372 0.85393 0.25498 0.0
C375 C 0.23451 0.83556 0.22535 0.0
C376 C 0.12186 0.06693 0.16368 0.0
O377 O 0.11361 0.85339 0.10873 0.0
C378 C 0.19332 0.9588 0.20569 0.0
C379 C 0.11761 0.70037 0.0771 0.0
C380 C 0.09038 0.65993 0.10498 0.0
C381 C 0.03423 0.62054 0.10166 0.0
C382 C 1.0047 0.61876 0.06946 0.0
C383 C 0.03187 0.65497 0.03928 0.0
C384 C 0.0878 0.69692 0.04382 0.0
C385 C 0.19632 0.71168 0.17424 0.0
O386 O 0.19634 0.67193 0.19427 0.0
H387 H 0.10694 0.68128 0.22816 0.0
H388 H 0.04506 0.72272 0.22707 0.0
H389 H 0.05917 0.79435 0.1787 0.0
H390 H 0.13595 0.81773 0.03821 0.0
H391 H 0.26205 0.95167 0.97364 0.0
H392 H 0.28884 0.93788 0.09115 0.0
H393 H 0.31853 0.69652 0.03637 0.0
H394 H 0.20626 0.62929 0.12697 0.0
H395 H 0.34839 0.79103 0.13752 0.0
H396 H 0.30963 0.80284 1.00268 0.0
H397 H 0.40045 0.88264 0.02409 0.0
H398 H 0.41008 0.92127 0.08928 0.0
H399 H 0.25295 0.93191 0.15879 0.0
H400 H 0.19996 0.91966 0.27348 0.0
H401 H 0.23507 0.79718 0.22831 0.0
H402 H 0.11263 0.65585 0.12823 0.0
H403 H 0.96187 0.58596 0.067 0.0
H404 H 0.10859 0.72521 0.02068 0.0
C405 C 0.4375 0.14781 0.67951 0.0
C406 C 0.41306 0.10604 0.70681 0.0
C407 C 0.35457 0.07123 0.70607 0.0
C408 C 0.32181 0.07878 0.67866 0.0
C409 C 0.34901 0.12125 0.65219 0.0
N410 N 0.40449 0.15154 0.65374 0.0
C411 C 0.32485 0.13989 0.62212 0.0
C412 C 0.35011 0.20473 0.56881 0.0
C413 C 0.33468 0.17057 0.53674 0.0
C414 C 0.32487 0.18904 0.5025 0.0
C415 C 0.33006 0.24153 0.50014 0.0
C416 C 0.34413 0.27512 0.53218 0.0
C417 C 0.3535 0.25662 0.56651 0.0
Cd418 Cd 0.18757 0.1174 0.61253 0.0
Cd419 Cd 0.12882 0.07905 0.72518 0.0
C420 C 0.56178 0.26132 0.62862 0.0
C421 C 0.6157 0.34137 0.58791 0.0
C422 C 0.61999 0.30205 0.56513 0.0
C423 C 0.63198 0.26594 0.58564 0.0
C424 C 0.59379 0.23806 0.6151 0.0
C425 C 0.58109 0.31793 0.61988 0.0
Co426 Co 0.43775 0.21119 0.62191 0.0
N427 N 0.4484 0.17034 0.58021 0.0
N428 N 0.46977 0.27145 0.5904 0.0
C429 C 0.48423 0.2634 0.55619 0.0
C430 C 0.5066 0.30792 0.5308 0.0
C431 C 0.51271 0.35915 0.54306 0.0
C432 C 0.49644 0.36487 0.57987 0.0
C433 C 0.47425 0.31843 0.60359 0.0
N434 N 0.43318 0.2613 0.65845 0.0
N435 N 0.3629 0.18693 0.60349 0.0
N436 N 0.50778 0.22686 0.64522 0.0
O437 O 0.06545 0.10274 0.69822 0.0
O438 O 0.10475 0.11823 0.6416 0.0
C439 C 0.17442 0.15421 0.53889 0.0
O440 O 0.2148 0.18796 0.55949 0.0
O441 O 0.14362 0.10608 0.55215 0.0
C442 C 0.12459 1.00951 0.64865 0.0
O443 O 0.13527 0.01392 0.61381 0.0
O444 O 0.15332 0.05213 0.66853 0.0
C445 C 0.47343 0.20643 0.55064 0.0
O446 O 0.48924 0.19197 0.51977 0.0
O447 O 0.23329 0.16745 0.67231 0.0
O448 O 0.21205 0.16612 0.73259 0.0
C449 C 0.45384 0.31287 0.64258 0.0
O450 O 0.45139 0.3534 0.6599 0.0
C451 C 0.39758 0.24493 0.69093 0.0
C452 C 0.34527 0.23953 0.68636 0.0
C453 C 0.30632 0.21845 0.71532 0.0
C454 C 0.32274 0.20963 0.75077 0.0
C455 C 0.37203 0.20761 0.75498 0.0
C456 C 0.41119 0.22839 0.72535 0.0
C457 C 0.06718 0.11576 0.66368 0.0
O458 O 0.27246 0.1075 0.60872 0.0
C459 C 0.24676 0.18722 0.70569 0.0
C460 C 0.42947 0.11148 0.5771 0.0
C461 C 0.44267 0.08425 0.60498 0.0
C462 C 0.42591 0.0281 0.60166 0.0
C463 C 0.39817 0.99858 0.56946 0.0
C464 C 0.38912 0.02574 0.53928 0.0
C465 C 0.40311 0.08168 0.54382 0.0
C466 C 0.49687 0.1902 0.67423 0.0
O467 O 0.53664 0.19021 0.69427 0.0
H468 H 0.43788 0.10082 0.72816 0.0
H469 H 0.33456 0.03893 0.72707 0.0
H470 H 0.27705 0.05305 0.6787 0.0
H471 H 0.33046 0.12984 0.53821 0.0
H472 H 0.32262 0.25595 0.47364 0.0
H473 H 0.3632 0.28273 0.59115 0.0
H474 H 0.63425 0.31241 0.53637 0.0
H475 H 0.5892 0.20013 0.62697 0.0
H476 H 0.5696 0.34227 0.63753 0.0
H477 H 0.51903 0.30351 0.50268 0.0
H478 H 0.53006 0.39433 0.52409 0.0
H479 H 0.50107 0.40397 0.58927 0.0
H480 H 0.33329 0.24684 0.65879 0.0
H481 H 0.29254 0.19385 0.77348 0.0
H482 H 0.45013 0.22895 0.72831 0.0
H483 H 0.469 0.1065 0.62823 0.0
H484 H 0.38814 0.95574 0.567 0.0
H485 H 0.39561 0.10247 0.52068 0.0
C486 C 0.5992 0.72866 0.36129 0.0
C487 C 0.62364 0.71134 0.33399 0.0
C488 C 0.68212 0.73501 0.33473 0.0
C489 C 0.71488 0.77532 0.36214 0.0
C490 C 0.68769 0.79059 0.38861 0.0
N491 N 0.63221 0.76541 0.38706 0.0
C492 C 0.71185 0.83339 0.41868 0.0
C493 C 0.68659 0.87297 0.47199 0.0
C494 C 0.70203 0.85424 0.50406 0.0
C495 C 0.71184 0.88253 0.5383 0.0
C496 C 0.70665 0.92983 0.54066 0.0
C497 C 0.69257 0.94934 0.50862 0.0
C498 C 0.6832 0.92147 0.47429 0.0
Cd499 Cd 0.84913 0.94818 0.42826 0.0
Cd500 Cd 0.90787 0.96858 0.31561 0.0
C501 C 0.47493 0.71788 0.41219 0.0
C502 C 0.42099 0.74402 0.45289 0.0
C503 C 0.41672 0.70041 0.47567 0.0
C504 C 0.40472 0.65228 0.45517 0.0
C505 C 0.44293 0.66262 0.42572 0.0
C506 C 0.4556 0.75517 0.42092 0.0
Co507 Co 0.59895 0.79179 0.41889 0.0
N508 N 0.5883 0.7403 0.46059 0.0
N509 N 0.56693 0.82003 0.4504 0.0
C510 C 0.55247 0.79753 0.48461 0.0
C511 C 0.5301 0.81968 0.51 0.0
C512 C 0.52398 0.86479 0.49774 0.0
C513 C 0.54025 0.88677 0.46093 0.0
C514 C 0.56244 0.86253 0.43721 0.0
N515 N 0.60352 0.84648 0.38235 0.0
N516 N 0.6738 0.84239 0.43731 0.0
N517 N 0.52892 0.73743 0.39559 0.0
O518 O 0.97126 0.05563 0.34257 0.0
O519 O 0.93196 0.03182 0.39919 0.0
C520 C 0.86229 0.99815 0.5019 0.0
O521 O 0.82191 0.99151 0.4813 0.0
O522 O 0.89309 0.98082 0.48864 0.0
C523 C 0.91208 0.90323 0.39213 0.0
O524 O 0.90141 0.89698 0.42697 0.0
O525 O 0.88336 0.91713 0.37225 0.0
C526 C 0.56327 0.75136 0.49016 0.0
O527 O 0.54746 0.72108 0.52103 0.0
O528 O 0.80341 0.95252 0.36848 0.0
O529 O 0.82464 0.97243 0.3082 0.0
C530 C 0.58285 0.87738 0.39822 0.0
O531 O 0.5853 0.92035 0.3809 0.0
C532 C 0.63912 0.86571 0.34987 0.0
C533 C 0.69143 0.91262 0.35444 0.0
C534 C 0.73038 0.93049 0.32548 0.0
C535 C 0.71396 0.90525 0.29002 0.0
C536 C 0.66467 0.85393 0.28583 0.0
C537 C 0.6255 0.83555 0.31545 0.0
C538 C 0.96954 0.06692 0.37712 0.0
O539 O 0.76424 0.85339 0.43207 0.0
C540 C 0.78993 0.95881 0.33511 0.0
C541 C 0.60723 0.70037 0.46371 0.0
C542 C 0.59403 0.65993 0.43582 0.0
C543 C 0.61078 0.62054 0.43915 0.0
C544 C 0.63852 0.61875 0.47134 0.0
C545 C 0.64756 0.65497 0.50152 0.0
C546 C 0.63359 0.69692 0.49699 0.0
C547 C 0.53983 0.71168 0.36657 0.0
O548 O 0.50006 0.67192 0.34654 0.0
H549 H 0.59881 0.68128 0.31265 0.0
H550 H 0.70213 0.72272 0.31373 0.0
H551 H 0.75965 0.79436 0.3621 0.0
H552 H 0.70625 0.81774 0.50259 0.0
H553 H 0.71408 0.95168 0.56716 0.0
H554 H 0.6735 0.93788 0.44965 0.0
H555 H 0.40248 0.69652 0.50443 0.0
H556 H 0.44754 0.62929 0.41386 0.0
H557 H 0.46709 0.791 0.40327 0.0
H558 H 0.51767 0.80283 0.53812 0.0
H559 H 0.50663 0.88262 0.51671 0.0
H560 H 0.53562 0.92125 0.45152 0.0
H561 H 0.70341 0.93191 0.38201 0.0
H562 H 0.74416 0.91966 0.26732 0.0
H563 H 0.58657 0.79717 0.31249 0.0
H564 H 0.5677 0.65585 0.41257 0.0
H565 H 0.64855 0.58595 0.47381 0.0
H566 H 0.64109 0.72521 0.52012 0.0
C567 C 0.88277 0.59309 0.8613 0.0
C568 C 0.92454 0.61753 0.834 0.0
C569 C 0.95935 0.67602 0.83474 0.0
C570 C 0.9518 0.70878 0.86214 0.0
C571 C 0.90934 0.68159 0.88862 0.0
N572 N 0.87904 0.6261 0.88707 0.0
C573 C 0.8907 0.70574 0.91869 0.0
C574 C 0.82585 0.68048 0.97199 0.0
C575 C 0.86002 0.69591 1.00407 0.0
C576 C 0.84154 0.70572 0.03831 0.0
C577 C 0.78905 0.70053 0.04066 0.0
C578 C 0.75546 0.68646 1.00863 0.0
C579 C 0.77397 0.67709 0.97429 0.0
Cd580 Cd 0.91318 0.84302 0.92826 0.0
Cd581 Cd 0.95153 0.90175 0.81561 0.0
C582 C 0.76928 0.46881 0.9122 0.0
C583 C 0.68921 0.41487 0.95289 0.0
C584 C 0.72855 0.4106 0.97567 0.0
C585 C 0.76467 0.3986 0.95518 0.0
C586 C 0.79255 0.43682 0.92573 0.0
C587 C 0.71267 0.44949 0.92093 0.0
Co588 Co 0.8194 0.59284 0.9189 0.0
N589 N 0.86025 0.5822 0.9606 0.0
N590 N 0.75915 0.56082 0.95041 0.0
C591 C 0.76719 0.54635 0.98462 0.0
C592 C 0.72267 0.52398 1.01001 0.0
C593 C 0.67145 0.51786 0.99775 0.0
C594 C 0.66572 0.53413 0.96094 0.0
C595 C 0.71216 0.55632 0.93722 0.0
N596 N 0.76928 0.5974 0.88236 0.0
N597 N 0.84365 0.66769 0.93732 0.0
N598 N 0.80373 0.52281 0.89559 0.0
O599 O 0.92786 0.96515 0.84257 0.0
O600 O 0.91238 0.92585 0.89918 0.0
C601 C 0.87637 0.85618 1.0019 0.0
O602 O 0.84263 0.81579 0.9813 0.0
O603 O 0.92449 0.88699 0.98863 0.0
C604 C 0.02108 0.90597 0.89213 0.0
O605 O 1.01666 0.8953 0.92698 0.0
O606 O 0.97846 0.87725 0.87226 0.0
C607 C 0.82416 0.55716 0.99017 0.0
O608 O 0.83863 0.54135 0.02104 0.0
O609 O 0.86312 0.79729 0.86848 0.0
O610 O 0.86445 0.81853 0.80821 0.0
C611 C 0.71772 0.57674 0.89823 0.0
O612 O 0.67719 0.57918 0.88091 0.0
C613 C 0.78565 0.633 0.84988 0.0
C614 C 0.79104 0.68531 0.85445 0.0
C615 C 0.81213 0.72426 0.82548 0.0
C616 C 0.82094 0.70784 0.79003 0.0
C617 C 0.82297 0.65855 0.78584 0.0
C618 C 0.80219 0.61939 0.81546 0.0
C619 C 0.91486 0.96343 0.87711 0.0
O620 O 0.92308 0.75813 0.93208 0.0
C621 C 0.84335 0.78382 0.83511 0.0
C622 C 0.91911 0.60113 0.96371 0.0
C623 C 0.94634 0.58792 0.93583 0.0
C624 C 1.00249 0.60468 0.93915 0.0
C625 C 0.03201 0.63242 0.97135 0.0
C626 C 1.00484 0.64146 1.00152 0.0
C627 C 0.94891 0.62748 0.99699 0.0
C628 C 0.84039 0.53372 0.86658 0.0
O629 O 0.84038 0.49395 0.84655 0.0
H630 H 0.92977 0.59271 0.81265 0.0
H631 H 0.99165 0.69603 0.81374 0.0
H632 H 0.97752 0.75355 0.86211 0.0
H633 H 0.90074 0.70013 1.0026 0.0
H634 H 0.77463 0.70797 0.06717 0.0
H635 H 0.74786 0.66738 0.94965 0.0
H636 H 0.71819 0.39636 1.00443 0.0
H637 H 0.83049 0.44143 0.91387 0.0
H638 H 0.68834 0.46098 0.90327 0.0
H639 H 0.72709 0.51155 0.03813 0.0
H640 H 0.63626 0.50051 1.01672 0.0
H641 H 0.62662 0.5295 0.95153 0.0
H642 H 0.78373 0.6973 0.88202 0.0
H643 H 0.83673 0.73804 0.76732 0.0
H644 H 0.80163 0.58045 0.8125 0.0
H645 H 0.92409 0.56159 0.91258 0.0
H646 H 0.07484 0.64245 0.97381 0.0
H647 H 0.92813 0.63498 1.02013 0.0
C648 C 0.30191 0.87665 0.3613 0.0
C649 C 0.31924 0.91842 0.334 0.0
C650 C 0.29556 0.95324 0.33474 0.0
C651 C 0.25526 0.94569 0.36214 0.0
C652 C 0.23998 0.90322 0.38862 0.0
N653 N 0.26517 0.87293 0.38707 0.0
C654 C 0.19718 0.88458 0.41869 0.0
C655 C 0.1576 0.81974 0.47199 0.0
C656 C 0.17633 0.8539 0.50407 0.0
C657 C 0.14805 0.83542 0.5383 0.0
C658 C 0.10075 0.78294 0.54066 0.0
C659 C 0.08123 0.74935 0.50862 0.0
C660 C 0.1091 0.76786 0.47429 0.0
Cd661 Cd 0.08239 0.90707 0.42826 0.0
Cd662 Cd 0.062 0.94542 0.31561 0.0
C663 C 0.31268 0.76315 0.41219 0.0
C664 C 0.28653 0.68308 0.45291 0.0
C665 C 0.33017 0.72241 0.47567 0.0
C666 C 0.37826 0.75851 0.45515 0.0
C667 C 0.36795 0.78639 0.42569 0.0
C668 C 0.27538 0.70654 0.42094 0.0
Co669 Co 0.23878 0.81328 0.41889 0.0
N670 N 0.29027 0.85412 0.46059 0.0
N671 N 0.21054 0.75302 0.45041 0.0
C672 C 0.23304 0.76106 0.48462 0.0
C673 C 0.21089 0.71654 0.51001 0.0
C674 C 0.16577 0.66532 0.49775 0.0
C675 C 0.14379 0.6596 0.46094 0.0
C676 C 0.16804 0.70604 0.43722 0.0
N677 N 0.1841 0.76316 0.38236 0.0
N678 N 0.18818 0.83754 0.43732 0.0
N679 N 0.29314 0.7976 0.39559 0.0
O680 O 0.97494 0.92174 0.34257 0.0
O681 O 0.99875 0.90624 0.39918 0.0
C682 C 0.03241 0.87025 0.5019 0.0
O683 O 0.03908 0.83652 0.48131 0.0
O684 O 0.04971 0.91837 0.48863 0.0
C685 C 0.12734 0.01497 0.39213 0.0
O686 O 0.13359 1.01055 0.42698 0.0
O687 O 0.11344 0.97235 0.37226 0.0
C688 C 0.27921 0.81803 0.49017 0.0
O689 O 0.30949 0.83249 0.52104 0.0
O690 O 0.07806 0.85701 0.36848 0.0
O691 O 0.05816 0.85835 0.3082 0.0
C692 C 0.15319 0.7116 0.39823 0.0
O693 O 0.11022 0.67107 0.3809 0.0
C694 C 0.16487 0.77953 0.34987 0.0
C695 C 0.11796 0.78493 0.35444 0.0
C696 C 0.10009 0.80602 0.32547 0.0
C697 C 0.12533 0.81484 0.29002 0.0
C698 C 0.17665 0.81686 0.28583 0.0
C699 C 0.19503 0.79608 0.31546 0.0
C700 C 0.96365 0.90871 0.37711 0.0
O701 O 0.17718 0.91697 0.43208 0.0
C702 C 0.07177 0.83725 0.33511 0.0
C703 C 0.3302 0.91298 0.46371 0.0
C704 C 0.37064 0.94021 0.43583 0.0
C705 C 0.41004 0.99636 0.43915 0.0
C706 C 0.41183 0.02589 0.47135 0.0
C707 C 0.37561 0.99872 0.50152 0.0
C708 C 0.33366 0.94279 0.49699 0.0
C709 C 0.31889 0.83427 0.36658 0.0
O710 O 0.35864 0.83425 0.34654 0.0
H711 H 0.34929 0.92365 0.31265 0.0
H712 H 0.30785 0.98553 0.31374 0.0
H713 H 0.23622 0.97142 0.36211 0.0
H714 H 0.21284 0.89462 0.5026 0.0
H715 H 0.07889 0.76852 0.56717 0.0
H716 H 0.09269 0.74175 0.44965 0.0
H717 H 0.33408 0.71207 0.50443 0.0
H718 H 0.40129 0.82431 0.41382 0.0
H719 H 0.23954 0.6822 0.40329 0.0
H720 H 0.22773 0.72096 0.53813 0.0
H721 H 0.14793 0.63013 0.51672 0.0
H722 H 0.10931 0.6205 0.45153 0.0
H723 H 0.09866 0.77762 0.38201 0.0
H724 H 0.11093 0.83063 0.26732 0.0
H725 H 0.23341 0.79552 0.31249 0.0
H726 H 0.37472 0.91796 0.41258 0.0
H727 H 0.44463 0.06872 0.47381 0.0
H728 H 0.30537 0.922 0.52013 0.0
C729 C 0.43751 0.2958 0.86129 0.0
C730 C 0.41307 0.31313 0.83399 0.0
C731 C 0.35458 0.28946 0.83473 0.0
C732 C 0.32182 0.24915 0.86213 0.0
C733 C 0.34901 0.23388 0.88861 0.0
N734 N 0.40449 0.25906 0.88706 0.0
C735 C 0.32484 0.19108 0.91868 0.0
C736 C 0.3501 0.1515 0.97199 0.0
C737 C 0.33466 0.17023 1.00406 0.0
C738 C 0.32486 0.14195 0.0383 0.0
C739 C 0.33004 0.09465 0.04066 0.0
C740 C 0.34411 0.07513 1.00863 0.0
C741 C 0.35348 0.10299 0.97429 0.0
Cd742 Cd 0.18756 0.07629 0.92826 0.0
Cd743 Cd 0.12882 0.05589 0.81561 0.0
C744 C 0.56177 0.30656 0.91219 0.0
C745 C 0.61569 0.28041 0.95291 0.0
C746 C 0.61999 0.32405 0.97567 0.0
C747 C 0.63199 0.37214 0.95515 0.0
C748 C 0.5938 0.36184 0.92569 0.0
C749 C 0.58108 0.26926 0.92094 0.0
Co750 Co 0.43774 0.23267 0.91889 0.0
N751 N 0.4484 0.28416 0.96059 0.0
N752 N 0.46975 0.20442 0.95041 0.0
C753 C 0.48422 0.22693 0.98462 0.0
C754 C 0.50657 0.20477 1.01 0.0
C755 C 0.51268 0.15965 0.99775 0.0
C756 C 0.49641 0.13767 0.96094 0.0
C757 C 0.47423 0.16192 0.93721 0.0
N758 N 0.43317 0.17798 0.88235 0.0
N759 N 0.36289 0.18207 0.93731 0.0
N760 N 0.50778 0.28703 0.89559 0.0
O761 O 0.06544 0.96883 0.84257 0.0
O762 O 0.10474 0.99264 0.89919 0.0
C763 C 0.1744 0.02632 1.0019 0.0
O764 O 0.21479 0.03297 0.9813 0.0
O765 O 0.14359 0.04363 0.98864 0.0
C766 C 0.12461 0.12124 0.89213 0.0
O767 O 0.13528 0.12748 0.92698 0.0
O768 O 0.15333 0.10733 0.87225 0.0
C769 C 0.47342 0.2731 0.99017 0.0
O770 O 0.48924 0.30338 0.02103 0.0
O771 O 0.23328 0.07195 0.86848 0.0
O772 O 0.21204 0.05205 0.8082 0.0
C773 C 0.45382 0.14707 0.89822 0.0
O774 O 0.45137 0.10409 0.8809 0.0
C775 C 0.39757 0.15875 0.84987 0.0
C776 C 0.34526 0.11184 0.85444 0.0
C777 C 0.30631 0.09398 0.82547 0.0
C778 C 0.32273 0.11922 0.79002 0.0
C779 C 0.37202 0.17054 0.78583 0.0
C780 C 0.41119 0.18891 0.81545 0.0
C781 C 0.06716 0.95754 0.87711 0.0
O782 O 0.27246 0.17108 0.93207 0.0
C783 C 0.24675 0.06566 0.83511 0.0
C784 C 0.42947 0.3241 0.96371 0.0
C785 C 0.44268 0.36453 0.93582 0.0
C786 C 0.42593 0.40393 0.93915 0.0
C787 C 0.39819 0.40572 0.97134 0.0
C788 C 0.38914 0.3695 1.00152 0.0
C789 C 0.40312 0.32755 0.99699 0.0
C790 C 0.49687 0.31278 0.86657 0.0
O791 O 0.53664 0.35252 0.84654 0.0
H792 H 0.4379 0.34318 0.81265 0.0
H793 H 0.33458 0.30175 0.81373 0.0
H794 H 0.27706 0.23012 0.8621 0.0
H795 H 0.33045 0.20674 1.00259 0.0
H796 H 0.3226 0.0728 0.06717 0.0
H797 H 0.36318 0.08658 0.94966 0.0
H798 H 0.63425 0.32796 1.00443 0.0
H799 H 0.58922 0.39517 0.91381 0.0
H800 H 0.56958 0.23342 0.90329 0.0
H801 H 0.51901 0.22161 0.03813 0.0
H802 H 0.53002 0.14181 1.01672 0.0
H803 H 0.50103 0.10318 0.95153 0.0
H804 H 0.33327 0.09255 0.88201 0.0
H805 H 0.29253 0.10481 0.76732 0.0
H806 H 0.45013 0.22729 0.81249 0.0
H807 H 0.46901 0.36861 0.91257 0.0
H808 H 0.38816 0.43852 0.9738 0.0
H809 H 0.39561 0.29926 1.02012 0.0
C810 C 0.15393 0.43139 0.36129 0.0
C811 C 0.11216 0.40695 0.33399 0.0
C812 C 0.07734 0.34846 0.33473 0.0
C813 C 0.08489 0.3157 0.36213 0.0
C814 C 0.12736 0.3429 0.3886 0.0
N815 N 0.15766 0.39838 0.38705 0.0
C816 C 0.146 0.31874 0.41867 0.0
C817 C 0.21085 0.34401 0.47198 0.0
C818 C 0.17669 0.32857 0.50405 0.0
C819 C 0.19517 0.31877 0.53829 0.0
C820 C 0.24766 0.32395 0.54064 0.0
C821 C 0.28125 0.33803 0.50861 0.0
C822 C 0.26274 0.34739 0.47427 0.0
Cd823 Cd 0.12351 0.18146 0.42826 0.0
Cd824 Cd 0.08517 0.12271 0.3156 0.0
C825 C 0.26743 0.55567 0.41217 0.0
C826 C 0.34749 0.6096 0.45288 0.0
C827 C 0.30816 0.61388 0.47567 0.0
C828 C 0.27204 0.62586 0.45517 0.0
C829 C 0.24416 0.58767 0.4257 0.0
C830 C 0.32404 0.57499 0.42091 0.0
Co831 Co 0.2173 0.43164 0.41888 0.0
N832 N 0.17646 0.44229 0.46058 0.0
N833 N 0.27757 0.46366 0.45039 0.0
C834 C 0.26952 0.47812 0.4846 0.0
C835 C 0.31404 0.50049 0.50999 0.0
C836 C 0.36527 0.50661 0.49773 0.0
C837 C 0.37098 0.49034 0.46092 0.0
C838 C 0.32455 0.46815 0.43719 0.0
N839 N 0.26742 0.42707 0.38234 0.0
N840 N 0.19305 0.35679 0.4373 0.0
N841 N 0.23298 0.50168 0.39557 0.0
O842 O 0.10885 0.05933 0.34257 0.0
O843 O 0.12434 0.09864 0.39919 0.0
C844 C 0.16033 0.1683 0.50189 0.0
O845 O 0.19407 0.20869 0.4813 0.0
O846 O 0.11221 0.13749 0.48863 0.0
C847 C 1.01563 0.11848 0.39214 0.0
O848 O 0.02004 0.12917 0.42698 0.0
O849 O 0.05825 0.14721 0.37225 0.0
C850 C 0.21255 0.46732 0.49015 0.0
O851 O 0.19809 0.48314 0.52102 0.0
O852 O 0.17356 0.22718 0.36847 0.0
O853 O 0.17223 0.20594 0.30819 0.0
C854 C 0.31898 0.44774 0.3982 0.0
O855 O 0.35951 0.44529 0.38088 0.0
C856 C 0.25105 0.39147 0.34986 0.0
C857 C 0.24564 0.33916 0.35443 0.0
C858 C 0.22456 0.30021 0.32547 0.0
C859 C 0.21574 0.31662 0.29001 0.0
C860 C 0.21371 0.36592 0.28582 0.0
C861 C 0.2345 0.40509 0.31544 0.0
C862 C 0.12187 0.06106 0.37711 0.0
O863 O 0.11362 0.26635 0.43207 0.0
C864 C 0.19333 0.24065 0.3351 0.0
C865 C 0.11761 0.42336 0.4637 0.0
C866 C 0.09037 0.43657 0.43581 0.0
C867 C 0.03423 0.41982 0.43914 0.0
C868 C 1.0047 0.39207 0.47133 0.0
C869 C 0.03187 0.38303 0.50151 0.0
C870 C 0.0878 0.39701 0.49698 0.0
C871 C 0.19631 0.49076 0.36656 0.0
O872 O 0.19633 0.53053 0.34653 0.0
H873 H 0.10693 0.43178 0.31264 0.0
H874 H 0.04505 0.32845 0.31373 0.0
H875 H 0.05917 0.27094 0.3621 0.0
H876 H 0.13597 0.32435 0.50259 0.0
H877 H 0.26208 0.31652 0.56715 0.0
H878 H 0.28885 0.35709 0.44963 0.0
H879 H 0.31853 0.62813 0.50443 0.0
H880 H 0.20623 0.58307 0.41384 0.0
H881 H 0.34838 0.5635 0.40326 0.0
H882 H 0.30963 0.51292 0.53811 0.0
H883 H 0.40046 0.52396 0.5167 0.0
H884 H 0.41009 0.49497 0.45151 0.0
H885 H 0.25296 0.32718 0.382 0.0
H886 H 0.19994 0.28643 0.26731 0.0
H887 H 0.23506 0.44403 0.31248 0.0
H888 H 0.11262 0.4629 0.41256 0.0
H889 H 0.96187 0.38204 0.4738 0.0
H890 H 0.10859 0.3895 0.52011 0.0
C891 C 0.73477 0.14781 0.86128 0.0
C892 C 0.71744 0.10604 0.83399 0.0
C893 C 0.74112 0.07123 0.83473 0.0
C894 C 0.78143 0.07878 0.86213 0.0
C895 C 0.79671 0.12125 0.8886 0.0
N896 N 0.77152 0.15155 0.88705 0.0
C897 C 0.83951 0.1399 0.91867 0.0
C898 C 0.87909 0.20475 0.97197 0.0
C899 C 0.86037 0.17059 1.00405 0.0
C900 C 0.88866 0.18908 0.03828 0.0
C901 C 0.93596 0.24157 0.04064 0.0
C902 C 0.95547 0.27515 1.0086 0.0
C903 C 0.92759 0.25664 0.97426 0.0
Cd904 Cd 0.95429 0.1174 0.92825 0.0
Cd905 Cd 0.9747 0.07906 0.8156 0.0
C906 C 0.72399 0.26131 0.91217 0.0
C907 C 0.75012 0.34137 0.95288 0.0
C908 C 0.70652 0.30204 0.97567 0.0
C909 C 0.65842 0.26592 0.95516 0.0
C910 C 0.66873 0.23804 0.9257 0.0
C911 C 0.76128 0.31792 0.92091 0.0
Co912 Co 0.7979 0.21119 0.91887 0.0
N913 N 0.74642 0.17036 0.96058 0.0
N914 N 0.82614 0.27146 0.95039 0.0
C915 C 0.80365 0.26342 0.9846 0.0
C916 C 0.8258 0.30794 1.00998 0.0
C917 C 0.87091 0.35917 0.99772 0.0
C918 C 0.89289 0.36488 0.96091 0.0
C919 C 0.86864 0.31844 0.93719 0.0
N920 N 0.85258 0.26131 0.88233 0.0
N921 N 0.84851 0.18695 0.9373 0.0
N922 N 0.74354 0.22686 0.89557 0.0
O923 O 0.06175 0.10274 0.84257 0.0
O924 O 0.03794 0.11823 0.89918 0.0
C925 C 1.00427 0.15421 1.00189 0.0
O926 O 0.99761 0.18796 0.9813 0.0
O927 O 0.98695 0.10609 0.98863 0.0
C928 C 0.90939 1.00952 0.89213 0.0
O929 O 0.9031 0.01392 0.92698 0.0
O930 O 0.92327 0.05214 0.87225 0.0
C931 C 0.75748 0.20645 0.99015 0.0
O932 O 0.72721 0.19199 0.02102 0.0
O933 O 0.95862 0.16745 0.86847 0.0
O934 O 0.97853 0.16612 0.80819 0.0
C935 C 0.88349 0.31288 0.8982 0.0
O936 O 0.92646 0.3534 0.88087 0.0
C937 C 0.87181 0.24493 0.84985 0.0
C938 C 0.91872 0.23953 0.85442 0.0
C939 C 0.93659 0.21844 0.82546 0.0
C940 C 0.91135 0.20962 0.79001 0.0
C941 C 0.86003 0.2076 0.78581 0.0
C942 C 0.84166 0.22839 0.81544 0.0
C943 C 0.07305 0.11576 0.87711 0.0
O944 O 0.85951 0.10751 0.93207 0.0
C945 C 0.96492 0.18722 0.83509 0.0
C946 C 0.70649 0.1115 0.9637 0.0
C947 C 0.66605 0.08426 0.93582 0.0
C948 C 0.62665 0.02812 0.93915 0.0
C949 C 0.62487 0.99859 0.97134 0.0
C950 C 0.66109 0.02577 1.00152 0.0
C951 C 0.70304 0.0817 0.99698 0.0
C952 C 0.71779 0.1902 0.86656 0.0
O953 O 0.67803 0.19021 0.84653 0.0
H954 H 0.68739 0.10081 0.81264 0.0
H955 H 0.72883 0.03893 0.81373 0.0
H956 H 0.80047 0.05305 0.8621 0.0
H957 H 0.82386 0.12987 1.00259 0.0
H958 H 0.95781 0.25599 0.06714 0.0
H959 H 0.944 0.28274 0.94963 0.0
H960 H 0.70263 0.3124 1.00443 0.0
H961 H 0.63539 0.20011 0.91383 0.0
H962 H 0.79712 0.34227 0.90326 0.0
H963 H 0.80896 0.30353 0.0381 0.0
H964 H 0.88875 0.39436 1.01669 0.0
H965 H 0.92736 0.40399 0.95149 0.0
H966 H 0.93802 0.24685 0.88199 0.0
H967 H 0.92575 0.19383 0.7673 0.0
H968 H 0.80327 0.22895 0.81247 0.0
H969 H 0.66197 0.10651 0.91256 0.0
H970 H 0.59207 0.95576 0.97381 0.0
H971 H 0.73133 0.10249 1.02011 0.0
loop_
_geom_bond_atom_site_label_1
_geom_bond_atom_site_label_2
_geom_bond_distance
_geom_bond_site_symmetry_2
_ccdc_geom_bond_type
C0 C1 1.359 . S
C0 N5 1.330 . S
C0 C61 1.504 . S
C1 C0 1.359 . S
C1 C2 1.366 . S
C1 H63 0.929 . S
C2 C1 1.366 . S
C2 C3 1.415 . S
C2 H64 0.932 . S
C3 C2 1.415 . S
C3 C4 1.366 . S
C3 H65 0.931 . S
C4 C3 1.366 . S
C4 N5 1.325 . S
C4 C6 1.516 . S
N5 C0 1.330 . S
N5 C4 1.325 . S
N5 Co21 1.869 . S
C6 C4 1.516 . S
C6 N30 1.316 . S
C6 O53 1.263 . S
C7 C8 1.421 . S
C7 C12 1.360 . S
C7 N30 1.436 . S
C8 C7 1.421 . S
C8 C9 1.379 1_554 S
C8 H66 0.930 1_554 S
C9 C8 1.379 1_556 S
C9 C10 1.417 . S
C10 C9 1.417 . S
C10 C11 1.352 1_556 S
C10 H67 0.929 . S
C11 C10 1.352 1_554 S
C11 C12 1.393 . S
C12 C7 1.360 . S
C12 C11 1.393 . S
C12 H68 0.931 . S
Cd13 O33 2.329 1_455 S
Cd13 O35 2.350 1_455 S
Cd13 O36 2.277 . S
Cd13 O38 2.173 . S
Cd13 O42 2.263 . S
Cd13 O53 2.366 . S
Cd14 O32 2.352 . S
Cd14 O39 2.250 1_655 S
Cd14 O43 2.308 1_655 S
C15 C19 1.403 . S
C15 C20 1.370 . S
C15 N31 1.423 . S
C16 C17 1.389 . S
C16 C20 1.389 . S
C17 C16 1.389 . S
C17 C18 1.379 . S
C17 H69 0.929 . S
C18 C17 1.379 . S
C18 C19 1.405 . S
C19 C15 1.403 . S
C19 C18 1.405 . S
C19 H70 0.932 . S
C20 C15 1.370 . S
C20 C16 1.389 . S
C20 H71 0.931 . S
Co21 N5 1.869 . S
Co21 N22 1.955 . S
Co21 N23 1.864 . S
Co21 N29 1.958 . S
Co21 N30 1.953 . S
Co21 N31 1.974 . S
N22 Co21 1.955 . S
N22 C40 1.329 . S
N22 C55 1.432 . S
N23 Co21 1.864 . S
N23 C24 1.327 . S
N23 C28 1.342 . S
C24 N23 1.327 . S
C24 C25 1.407 . S
C24 C40 1.481 . S
C25 C24 1.407 . S
C25 C26 1.364 . S
C25 H72 0.930 . S
C26 C25 1.364 . S
C26 C27 1.390 . S
C26 H73 0.931 . S
C27 C26 1.390 . S
C27 C28 1.346 . S
C27 H74 0.930 . S
C28 N23 1.342 . S
C28 C27 1.346 . S
C28 C44 1.516 . S
N29 Co21 1.958 . S
N29 C44 1.324 . S
N29 C46 1.427 . S
N30 C6 1.316 . S
N30 C7 1.436 . S
N30 Co21 1.953 . S
N31 C15 1.423 . S
N31 Co21 1.974 . S
N31 C61 1.309 . S
O32 Cd14 2.352 . S
O32 C52 1.235 . S
O33 Cd13 2.329 1_655 S
O33 C52 1.270 . S
C34 O35 1.270 . S
C34 O36 1.248 1_655 S
O35 Cd13 2.350 1_655 S
O35 C34 1.270 . S
O36 Cd13 2.277 . S
O36 C34 1.248 1_455 S
C37 O38 1.277 . S
C37 O39 1.230 . S
O38 Cd13 2.173 . S
O38 C37 1.277 . S
O39 Cd14 2.250 1_455 S
O39 C37 1.230 . S
C40 N22 1.329 . S
C40 C24 1.481 . S
C40 O41 1.246 . S
O41 C40 1.246 . S
O42 Cd13 2.263 . S
O42 C54 1.258 . S
O43 Cd14 2.308 1_455 S
O43 C54 1.274 . S
C44 C28 1.516 . S
C44 N29 1.324 . S
C44 O45 1.238 . S
O45 C44 1.238 . S
C46 N29 1.427 . S
C46 C47 1.394 . S
C46 C51 1.395 . S
C47 C46 1.394 . S
C47 C48 1.380 . S
C47 H75 0.929 . S
C48 C47 1.380 . S
C48 C49 1.384 . S
C48 C54 1.495 . S
C49 C48 1.384 . S
C49 C50 1.382 . S
C49 H76 0.930 . S
C50 C49 1.382 . S
C50 C51 1.398 . S
C51 C46 1.395 . S
C51 C50 1.398 . S
C51 H77 0.930 . S
C52 O32 1.235 . S
C52 O33 1.270 . S
O53 C6 1.263 . S
O53 Cd13 2.366 . S
C54 O42 1.258 . S
C54 O43 1.274 . S
C54 C48 1.495 . S
C55 N22 1.432 . S
C55 C56 1.381 . S
C55 C60 1.385 . S
C56 C55 1.381 . S
C56 C57 1.371 . S
C56 H78 0.932 . S
C57 C56 1.371 . S
C57 C58 1.400 . S
C58 C57 1.400 . S
C58 C59 1.351 1_554 S
C58 H79 0.930 . S
C59 C58 1.351 1_556 S
C59 C60 1.388 1_556 S
C60 C55 1.385 . S
C60 C59 1.388 1_554 S
C60 H80 0.929 1_554 S
C61 C0 1.504 . S
C61 N31 1.309 . S
C61 O62 1.258 . S
O62 C61 1.258 . S
H63 C1 0.929 . S
H64 C2 0.932 . S
H65 C3 0.931 . S
H66 C8 0.930 1_556 S
H67 C10 0.929 . S
H68 C12 0.931 . S
H69 C17 0.929 . S
H70 C19 0.932 . S
H71 C20 0.931 . S
H72 C25 0.930 . S
H73 C26 0.931 . S
H74 C27 0.930 . S
H75 C47 0.929 . S
H76 C49 0.930 . S
H77 C51 0.930 . S
H78 C56 0.932 . S
H79 C58 0.930 . S
H80 C60 0.929 1_556 S
C81 C82 1.359 . S
C81 N86 1.330 . S
C81 C142 1.504 . S
C82 C81 1.359 . S
C82 C83 1.366 . S
C82 H144 0.929 . S
C83 C82 1.366 . S
C83 C84 1.415 . S
C83 H145 0.932 1_655 S
C84 C83 1.415 . S
C84 C85 1.366 . S
C84 H146 0.931 . S
C85 C84 1.366 . S
C85 N86 1.325 . S
C85 C87 1.516 . S
N86 C81 1.330 . S
N86 C85 1.325 . S
N86 Co102 1.869 . S
C87 C85 1.516 . S
C87 N111 1.316 . S
C87 O134 1.263 . S
C88 C89 1.421 . S
C88 C93 1.360 . S
C88 N111 1.436 . S
C89 C88 1.421 . S
C89 C90 1.379 . S
C89 H147 0.929 . S
C90 C89 1.379 . S
C90 C91 1.417 . S
C91 C90 1.417 . S
C91 C92 1.352 . S
C91 H148 0.929 . S
C92 C91 1.352 . S
C92 C93 1.393 . S
C93 C88 1.360 . S
C93 C92 1.393 . S
C93 H149 0.931 . S
Cd94 O114 2.329 1_545 S
Cd94 O116 2.350 1_545 S
Cd94 O117 2.277 . S
Cd94 O119 2.173 . S
Cd94 O123 2.263 . S
Cd94 O134 2.366 . S
Cd95 O113 2.352 . S
Cd95 O120 2.250 1_565 S
Cd95 O124 2.308 1_565 S
C96 C100 1.403 . S
C96 C101 1.370 . S
C96 N112 1.423 . S
C97 C98 1.389 . S
C97 C101 1.389 . S
C98 C97 1.389 . S
C98 C99 1.379 . S
C98 H150 0.929 . S
C99 C98 1.379 . S
C99 C100 1.405 . S
C100 C96 1.403 . S
C100 C99 1.405 . S
C100 H151 0.932 . S
C101 C96 1.370 . S
C101 C97 1.389 . S
C101 H152 0.931 . S
Co102 N86 1.869 . S
Co102 N103 1.955 . S
Co102 N104 1.864 . S
Co102 N110 1.958 . S
Co102 N111 1.953 . S
Co102 N112 1.974 . S
N103 Co102 1.955 . S
N103 C121 1.329 . S
N103 C136 1.432 . S
N104 Co102 1.864 . S
N104 C105 1.327 . S
N104 C109 1.342 . S
C105 N104 1.327 . S
C105 C106 1.407 . S
C105 C121 1.481 . S
C106 C105 1.407 . S
C106 C107 1.364 . S
C106 H153 0.930 . S
C107 C106 1.364 . S
C107 C108 1.390 . S
C107 H154 0.931 . S
C108 C107 1.390 . S
C108 C109 1.346 . S
C108 H155 0.930 . S
C109 N104 1.342 . S
C109 C108 1.346 . S
C109 C125 1.516 . S
N110 Co102 1.958 . S
N110 C125 1.324 . S
N110 C127 1.427 . S
N111 C87 1.316 . S
N111 C88 1.436 . S
N111 Co102 1.953 . S
N112 C96 1.423 . S
N112 Co102 1.974 . S
N112 C142 1.309 . S
O113 Cd95 2.352 . S
O113 C133 1.235 . S
O114 Cd94 2.329 1_565 S
O114 C133 1.270 . S
C115 O116 1.270 . S
C115 O117 1.248 1_565 S
O116 Cd94 2.350 1_565 S
O116 C115 1.270 . S
O117 Cd94 2.277 . S
O117 C115 1.248 1_545 S
C118 O119 1.277 . S
C118 O120 1.230 . S
O119 Cd94 2.173 . S
O119 C118 1.277 . S
O120 Cd95 2.250 1_545 S
O120 C118 1.230 . S
C121 N103 1.329 . S
C121 C105 1.481 . S
C121 O122 1.246 . S
O122 C121 1.246 . S
O123 Cd94 2.263 . S
O123 C135 1.258 . S
O124 Cd95 2.308 1_545 S
O124 C135 1.274 . S
C125 C109 1.516 . S
C125 N110 1.324 . S
C125 O126 1.238 . S
O126 C125 1.238 . S
C127 N110 1.427 . S
C127 C128 1.394 . S
C127 C132 1.395 . S
C128 C127 1.394 . S
C128 C129 1.380 . S
C128 H156 0.929 . S
C129 C128 1.380 . S
C129 C130 1.384 . S
C129 C135 1.495 . S
C130 C129 1.384 . S
C130 C131 1.382 . S
C130 H157 0.930 . S
C131 C130 1.382 . S
C131 C132 1.398 . S
C132 C127 1.395 . S
C132 C131 1.398 . S
C132 H158 0.930 . S
C133 O113 1.235 . S
C133 O114 1.270 . S
O134 C87 1.263 . S
O134 Cd94 2.366 . S
C135 O123 1.258 . S
C135 O124 1.274 . S
C135 C129 1.495 . S
C136 N103 1.432 . S
C136 C137 1.381 . S
C136 C141 1.385 . S
C137 C136 1.381 . S
C137 C138 1.371 . S
C137 H159 0.932 . S
C138 C137 1.371 . S
C138 C139 1.400 1_655 S
C139 C138 1.400 1_455 S
C139 C140 1.351 1_455 S
C139 H160 0.930 . S
C140 C139 1.351 1_655 S
C140 C141 1.388 . S
C141 C136 1.385 . S
C141 C140 1.388 . S
C141 H161 0.929 . S
C142 C81 1.504 . S
C142 N112 1.309 . S
C142 O143 1.258 . S
O143 C142 1.258 . S
H144 C82 0.929 . S
H145 C83 0.932 1_455 S
H146 C84 0.931 . S
H147 C89 0.929 . S
H148 C91 0.929 . S
H149 C93 0.931 . S
H150 C98 0.929 . S
H151 C100 0.932 . S
H152 C101 0.931 . S
H153 C106 0.930 . S
H154 C107 0.931 . S
H155 C108 0.930 . S
H156 C128 0.929 . S
H157 C130 0.930 . S
H158 C132 0.930 . S
H159 C137 0.932 . S
H160 C139 0.930 . S
H161 C141 0.929 . S
C162 C163 1.359 . S
C162 N167 1.330 . S
C162 C223 1.504 . S
C163 C162 1.359 . S
C163 C164 1.366 . S
C163 H225 0.929 . S
C164 C163 1.366 . S
C164 C165 1.415 . S
C164 H226 0.932 1_565 S
C165 C164 1.415 . S
C165 C166 1.366 . S
C165 H227 0.931 . S
C166 C165 1.366 . S
C166 N167 1.325 . S
C166 C168 1.516 . S
N167 C162 1.330 . S
N167 C166 1.325 . S
N167 Co183 1.869 . S
C168 C166 1.516 . S
C168 N192 1.316 . S
C168 O215 1.263 . S
C169 C170 1.421 . S
C169 C174 1.360 . S
C169 N192 1.436 . S
C170 C169 1.421 . S
C170 C171 1.379 1_554 S
C170 H228 0.930 1_554 S
C171 C170 1.379 1_556 S
C171 C172 1.417 . S
C172 C171 1.417 . S
C172 C173 1.352 1_556 S
C172 H229 0.929 . S
C173 C172 1.352 1_554 S
C173 C174 1.393 . S
C174 C169 1.360 . S
C174 C173 1.393 . S
C174 H230 0.931 . S
Cd175 O195 2.329 . S
Cd175 O197 2.350 . S
Cd175 O198 2.277 . S
Cd175 O200 2.173 . S
Cd175 O204 2.263 . S
Cd175 O215 2.366 . S
Cd176 O194 2.352 . S
Cd176 O201 2.250 . S
Cd176 O205 2.308 . S
C177 C181 1.403 . S
C177 C182 1.370 . S
C177 N193 1.423 . S
C178 C179 1.389 . S
C178 C182 1.389 . S
C179 C178 1.389 . S
C179 C180 1.379 . S
C179 H231 0.929 . S
C180 C179 1.379 . S
C180 C181 1.405 . S
C181 C177 1.403 . S
C181 C180 1.405 . S
C181 H232 0.932 . S
C182 C177 1.370 . S
C182 C178 1.389 . S
C182 H233 0.931 . S
Co183 N167 1.869 . S
Co183 N184 1.955 . S
Co183 N185 1.864 . S
Co183 N191 1.958 . S
Co183 N192 1.953 . S
Co183 N193 1.974 . S
N184 Co183 1.955 . S
N184 C202 1.329 . S
N184 C217 1.432 . S
N185 Co183 1.864 . S
N185 C186 1.327 . S
N185 C190 1.342 . S
C186 N185 1.327 . S
C186 C187 1.407 . S
C186 C202 1.481 . S
C187 C186 1.407 . S
C187 C188 1.364 . S
C187 H234 0.930 . S
C188 C187 1.364 . S
C188 C189 1.390 . S
C188 H235 0.931 . S
C189 C188 1.390 . S
C189 C190 1.346 . S
C189 H236 0.930 . S
C190 N185 1.342 . S
C190 C189 1.346 . S
C190 C206 1.516 . S
N191 Co183 1.958 . S
N191 C206 1.324 . S
N191 C208 1.427 . S
N192 C168 1.316 . S
N192 C169 1.436 . S
N192 Co183 1.953 . S
N193 C177 1.423 . S
N193 Co183 1.974 . S
N193 C223 1.309 . S
O194 Cd176 2.352 . S
O194 C214 1.235 . S
O195 Cd175 2.329 . S
O195 C214 1.270 . S
C196 O197 1.270 . S
C196 O198 1.248 . S
O197 Cd175 2.350 . S
O197 C196 1.270 . S
O198 Cd175 2.277 . S
O198 C196 1.248 . S
C199 O200 1.277 . S
C199 O201 1.230 . S
O200 Cd175 2.173 . S
O200 C199 1.277 . S
O201 Cd176 2.250 . S
O201 C199 1.230 . S
C202 N184 1.329 . S
C202 C186 1.481 . S
C202 O203 1.246 . S
O203 C202 1.246 . S
O204 Cd175 2.263 . S
O204 C216 1.258 . S
O205 Cd176 2.308 . S
O205 C216 1.274 . S
C206 C190 1.516 . S
C206 N191 1.324 . S
C206 O207 1.238 . S
O207 C206 1.238 . S
C208 N191 1.427 . S
C208 C209 1.394 . S
C208 C213 1.395 . S
C209 C208 1.394 . S
C209 C210 1.380 . S
C209 H237 0.929 . S
C210 C209 1.380 . S
C210 C211 1.384 . S
C210 C216 1.495 . S
C211 C210 1.384 . S
C211 C212 1.382 . S
C211 H238 0.930 . S
C212 C211 1.382 . S
C212 C213 1.398 . S
C213 C208 1.395 . S
C213 C212 1.398 . S
C213 H239 0.930 . S
C214 O194 1.235 . S
C214 O195 1.270 . S
O215 C168 1.263 . S
O215 Cd175 2.366 . S
C216 O204 1.258 . S
C216 O205 1.274 . S
C216 C210 1.495 . S
C217 N184 1.432 . S
C217 C218 1.381 . S
C217 C222 1.385 . S
C218 C217 1.381 . S
C218 C219 1.371 . S
C218 H240 0.932 . S
C219 C218 1.371 . S
C219 C220 1.400 1_565 S
C220 C219 1.400 1_545 S
C220 C221 1.351 1_544 S
C220 H241 0.930 . S
C221 C220 1.351 1_566 S
C221 C222 1.388 1_556 S
C222 C217 1.385 . S
C222 C221 1.388 1_554 S
C222 H242 0.929 1_554 S
C223 C162 1.504 . S
C223 N193 1.309 . S
C223 O224 1.258 . S
O224 C223 1.258 . S
H225 C163 0.929 . S
H226 C164 0.932 1_545 S
H227 C165 0.931 . S
H228 C170 0.930 1_556 S
H229 C172 0.929 . S
H230 C174 0.931 . S
H231 C179 0.929 . S
H232 C181 0.932 . S
H233 C182 0.931 . S
H234 C187 0.930 . S
H235 C188 0.931 . S
H236 C189 0.930 . S
H237 C209 0.929 . S
H238 C211 0.930 . S
H239 C213 0.930 . S
H240 C218 0.932 . S
H241 C220 0.930 . S
H242 C222 0.929 1_556 S
C243 C244 1.359 . S
C243 N248 1.330 . S
C243 C304 1.504 . S
C244 C243 1.359 . S
C244 C245 1.366 . S
C244 H306 0.929 . S
C245 C244 1.366 . S
C245 C246 1.415 . S
C245 H307 0.932 . S
C246 C245 1.415 . S
C246 C247 1.366 . S
C246 H308 0.931 . S
C247 C246 1.366 . S
C247 N248 1.325 . S
C247 C249 1.516 . S
N248 C243 1.330 . S
N248 C247 1.325 . S
N248 Co264 1.869 . S
C249 C247 1.516 . S
C249 N273 1.316 . S
C249 O296 1.263 . S
C250 C251 1.421 . S
C250 C255 1.360 . S
C250 N273 1.436 . S
C251 C250 1.421 . S
C251 C252 1.379 . S
C251 H309 0.929 . S
C252 C251 1.379 . S
C252 C253 1.417 . S
C253 C252 1.417 . S
C253 C254 1.352 . S
C253 H310 0.929 . S
C254 C253 1.352 . S
C254 C255 1.393 . S
C255 C250 1.360 . S
C255 C254 1.393 . S
C255 H311 0.931 . S
Cd256 O276 2.329 1_655 S
Cd256 O278 2.350 1_655 S
Cd256 O279 2.277 . S
Cd256 O281 2.173 . S
Cd256 O285 2.263 . S
Cd256 O296 2.366 . S
Cd257 O275 2.352 . S
Cd257 O282 2.250 1_455 S
Cd257 O286 2.308 1_455 S
C258 C262 1.403 . S
C258 C263 1.370 . S
C258 N274 1.423 . S
C259 C260 1.389 . S
C259 C263 1.389 . S
C260 C259 1.389 . S
C260 C261 1.379 . S
C260 H312 0.929 . S
C261 C260 1.379 . S
C261 C262 1.405 . S
C262 C258 1.403 . S
C262 C261 1.405 . S
C262 H313 0.932 . S
C263 C258 1.370 . S
C263 C259 1.389 . S
C263 H314 0.931 . S
Co264 N248 1.869 . S
Co264 N265 1.955 . S
Co264 N266 1.864 . S
Co264 N272 1.958 . S
Co264 N273 1.953 . S
Co264 N274 1.974 . S
N265 Co264 1.955 . S
N265 C283 1.329 . S
N265 C298 1.432 . S
N266 Co264 1.864 . S
N266 C267 1.327 . S
N266 C271 1.342 . S
C267 N266 1.327 . S
C267 C268 1.407 . S
C267 C283 1.481 . S
C268 C267 1.407 . S
C268 C269 1.364 . S
C268 H315 0.930 . S
C269 C268 1.364 . S
C269 C270 1.390 . S
C269 H316 0.931 . S
C270 C269 1.390 . S
C270 C271 1.346 . S
C270 H317 0.930 . S
C271 N266 1.342 . S
C271 C270 1.346 . S
C271 C287 1.516 . S
N272 Co264 1.958 . S
N272 C287 1.324 . S
N272 C289 1.427 . S
N273 C249 1.316 . S
N273 C250 1.436 . S
N273 Co264 1.953 . S
N274 C258 1.423 . S
N274 Co264 1.974 . S
N274 C304 1.309 . S
O275 Cd257 2.352 . S
O275 C295 1.235 . S
O276 Cd256 2.329 1_455 S
O276 C295 1.270 . S
C277 O278 1.270 . S
C277 O279 1.248 1_455 S
O278 Cd256 2.350 1_455 S
O278 C277 1.270 . S
O279 Cd256 2.277 . S
O279 C277 1.248 1_655 S
C280 O281 1.277 . S
C280 O282 1.230 . S
O281 Cd256 2.173 . S
O281 C280 1.277 . S
O282 Cd257 2.250 1_655 S
O282 C280 1.230 . S
C283 N265 1.329 . S
C283 C267 1.481 . S
C283 O284 1.246 . S
O284 C283 1.246 . S
O285 Cd256 2.263 . S
O285 C297 1.258 . S
O286 Cd257 2.308 1_655 S
O286 C297 1.274 . S
C287 C271 1.516 . S
C287 N272 1.324 . S
C287 O288 1.238 . S
O288 C287 1.238 . S
C289 N272 1.427 . S
C289 C290 1.394 . S
C289 C294 1.395 . S
C290 C289 1.394 . S
C290 C291 1.380 . S
C290 H318 0.929 . S
C291 C290 1.380 . S
C291 C292 1.384 . S
C291 C297 1.495 . S
C292 C291 1.384 . S
C292 C293 1.382 . S
C292 H319 0.930 . S
C293 C292 1.382 . S
C293 C294 1.398 . S
C294 C289 1.395 . S
C294 C293 1.398 . S
C294 H320 0.930 . S
C295 O275 1.235 . S
C295 O276 1.270 . S
O296 C249 1.263 . S
O296 Cd256 2.366 . S
C297 O285 1.258 . S
C297 O286 1.274 . S
C297 C291 1.495 . S
C298 N265 1.432 . S
C298 C299 1.381 . S
C298 C303 1.385 . S
C299 C298 1.381 . S
C299 C300 1.371 . S
C299 H321 0.932 . S
C300 C299 1.371 . S
C300 C301 1.400 . S
C301 C300 1.400 . S
C301 C302 1.351 . S
C301 H322 0.930 . S
C302 C301 1.351 . S
C302 C303 1.388 . S
C303 C298 1.385 . S
C303 C302 1.388 . S
C303 H323 0.929 . S
C304 C243 1.504 . S
C304 N274 1.309 . S
C304 O305 1.258 . S
O305 C304 1.258 . S
H306 C244 0.929 . S
H307 C245 0.932 . S
H308 C246 0.931 . S
H309 C251 0.929 . S
H310 C253 0.929 . S
H311 C255 0.931 . S
H312 C260 0.929 . S
H313 C262 0.932 . S
H314 C263 0.931 . S
H315 C268 0.930 . S
H316 C269 0.931 . S
H317 C270 0.930 . S
H318 C290 0.929 . S
H319 C292 0.930 . S
H320 C294 0.930 . S
H321 C299 0.932 . S
H322 C301 0.930 . S
H323 C303 0.929 . S
C324 C325 1.359 . S
C324 N329 1.330 . S
C324 C385 1.504 . S
C325 C324 1.359 . S
C325 C326 1.366 . S
C325 H387 0.929 . S
C326 C325 1.366 . S
C326 C327 1.415 . S
C326 H388 0.932 1_455 S
C327 C326 1.415 . S
C327 C328 1.366 . S
C327 H389 0.931 . S
C328 C327 1.366 . S
C328 N329 1.325 . S
C328 C330 1.516 . S
N329 C324 1.330 . S
N329 C328 1.325 . S
N329 Co345 1.869 . S
C330 C328 1.516 . S
C330 N354 1.316 . S
C330 O377 1.263 . S
C331 C332 1.421 . S
C331 C336 1.360 . S
C331 N354 1.436 . S
C332 C331 1.421 . S
C332 C333 1.379 1_554 S
C332 H390 0.930 1_554 S
C333 C332 1.379 1_556 S
C333 C334 1.417 . S
C334 C333 1.417 . S
C334 C335 1.352 1_556 S
C334 H391 0.929 . S
C335 C334 1.352 1_554 S
C335 C336 1.393 . S
C336 C331 1.360 . S
C336 C335 1.393 . S
C336 H392 0.931 . S
Cd337 O357 2.329 1_565 S
Cd337 O359 2.350 1_565 S
Cd337 O360 2.277 . S
Cd337 O362 2.173 . S
Cd337 O366 2.263 . S
Cd337 O377 2.366 . S
Cd338 O356 2.352 . S
Cd338 O363 2.250 1_545 S
Cd338 O367 2.308 1_545 S
C339 C343 1.403 . S
C339 C344 1.370 . S
C339 N355 1.423 . S
C340 C341 1.389 . S
C340 C344 1.389 . S
C341 C340 1.389 . S
C341 C342 1.379 . S
C341 H393 0.929 . S
C342 C341 1.379 . S
C342 C343 1.405 . S
C343 C339 1.403 . S
C343 C342 1.405 . S
C343 H394 0.932 . S
C344 C339 1.370 . S
C344 C340 1.389 . S
C344 H395 0.931 . S
Co345 N329 1.869 . S
Co345 N346 1.955 . S
Co345 N347 1.864 . S
Co345 N353 1.958 . S
Co345 N354 1.953 . S
Co345 N355 1.974 . S
N346 Co345 1.955 . S
N346 C364 1.329 . S
N346 C379 1.432 . S
N347 Co345 1.864 . S
N347 C348 1.327 . S
N347 C352 1.342 . S
C348 N347 1.327 . S
C348 C349 1.407 . S
C348 C364 1.481 . S
C349 C348 1.407 . S
C349 C350 1.364 . S
C349 H396 0.930 . S
C350 C349 1.364 . S
C350 C351 1.390 . S
C350 H397 0.931 . S
C351 C350 1.390 . S
C351 C352 1.346 . S
C351 H398 0.930 . S
C352 N347 1.342 . S
C352 C351 1.346 . S
C352 C368 1.516 . S
N353 Co345 1.958 . S
N353 C368 1.324 . S
N353 C370 1.427 . S
N354 C330 1.316 . S
N354 C331 1.436 . S
N354 Co345 1.953 . S
N355 C339 1.423 . S
N355 Co345 1.974 . S
N355 C385 1.309 . S
O356 Cd338 2.352 . S
O356 C376 1.235 . S
O357 Cd337 2.329 1_545 S
O357 C376 1.270 . S
C358 O359 1.270 . S
C358 O360 1.248 1_545 S
O359 Cd337 2.350 1_545 S
O359 C358 1.270 . S
O360 Cd337 2.277 . S
O360 C358 1.248 1_565 S
C361 O362 1.277 . S
C361 O363 1.230 . S
O362 Cd337 2.173 . S
O362 C361 1.277 . S
O363 Cd338 2.250 1_565 S
O363 C361 1.230 . S
C364 N346 1.329 . S
C364 C348 1.481 . S
C364 O365 1.246 . S
O365 C364 1.246 . S
O366 Cd337 2.263 . S
O366 C378 1.258 . S
O367 Cd338 2.308 1_565 S
O367 C378 1.274 . S
C368 C352 1.516 . S
C368 N353 1.324 . S
C368 O369 1.238 . S
O369 C368 1.238 . S
C370 N353 1.427 . S
C370 C371 1.394 . S
C370 C375 1.395 . S
C371 C370 1.394 . S
C371 C372 1.380 . S
C371 H399 0.929 . S
C372 C371 1.380 . S
C372 C373 1.384 . S
C372 C378 1.495 . S
C373 C372 1.384 . S
C373 C374 1.382 . S
C373 H400 0.930 . S
C374 C373 1.382 . S
C374 C375 1.398 . S
C375 C370 1.395 . S
C375 C374 1.398 . S
C375 H401 0.930 . S
C376 O356 1.235 . S
C376 O357 1.270 . S
O377 C330 1.263 . S
O377 Cd337 2.366 . S
C378 O366 1.258 . S
C378 O367 1.274 . S
C378 C372 1.495 . S
C379 N346 1.432 . S
C379 C380 1.381 . S
C379 C384 1.385 . S
C380 C379 1.381 . S
C380 C381 1.371 . S
C380 H402 0.932 . S
C381 C380 1.371 . S
C381 C382 1.400 1_455 S
C382 C381 1.400 1_655 S
C382 C383 1.351 1_654 S
C382 H403 0.930 . S
C383 C382 1.351 1_456 S
C383 C384 1.388 1_556 S
C384 C379 1.385 . S
C384 C383 1.388 1_554 S
C384 H404 0.929 1_554 S
C385 C324 1.504 . S
C385 N355 1.309 . S
C385 O386 1.258 . S
O386 C385 1.258 . S
H387 C325 0.929 . S
H388 C326 0.932 1_655 S
H389 C327 0.931 . S
H390 C332 0.930 1_556 S
H391 C334 0.929 . S
H392 C336 0.931 . S
H393 C341 0.929 . S
H394 C343 0.932 . S
H395 C344 0.931 . S
H396 C349 0.930 . S
H397 C350 0.931 . S
H398 C351 0.930 . S
H399 C371 0.929 . S
H400 C373 0.930 . S
H401 C375 0.930 . S
H402 C380 0.932 . S
H403 C382 0.930 . S
H404 C384 0.929 1_556 S
C405 C406 1.359 . S
C405 N410 1.330 . S
C405 C466 1.504 . S
C406 C405 1.359 . S
C406 C407 1.366 . S
C406 H468 0.929 . S
C407 C406 1.366 . S
C407 C408 1.415 . S
C407 H469 0.932 1_545 S
C408 C407 1.415 . S
C408 C409 1.366 . S
C408 H470 0.931 . S
C409 C408 1.366 . S
C409 N410 1.325 . S
C409 C411 1.516 . S
N410 C405 1.330 . S
N410 C409 1.325 . S
N410 Co426 1.869 . S
C411 C409 1.516 . S
C411 N435 1.316 . S
C411 O458 1.263 . S
C412 C413 1.421 . S
C412 C417 1.360 . S
C412 N435 1.436 . S
C413 C412 1.421 . S
C413 C414 1.379 . S
C413 H471 0.929 . S
C414 C413 1.379 . S
C414 C415 1.417 . S
C415 C414 1.417 . S
C415 C416 1.352 . S
C415 H472 0.929 . S
C416 C415 1.352 . S
C416 C417 1.393 . S
C417 C412 1.360 . S
C417 C416 1.393 . S
C417 H473 0.931 . S
Cd418 O438 2.329 . S
Cd418 O440 2.350 . S
Cd418 O441 2.277 . S
Cd418 O443 2.173 . S
Cd418 O447 2.263 . S
Cd418 O458 2.366 . S
Cd419 O437 2.352 . S
Cd419 O444 2.250 . S
Cd419 O448 2.308 . S
C420 C424 1.403 . S
C420 C425 1.370 . S
C420 N436 1.423 . S
C421 C422 1.389 . S
C421 C425 1.389 . S
C422 C421 1.389 . S
C422 C423 1.379 . S
C422 H474 0.929 . S
C423 C422 1.379 . S
C423 C424 1.405 . S
C424 C420 1.403 . S
C424 C423 1.405 . S
C424 H475 0.932 . S
C425 C420 1.370 . S
C425 C421 1.389 . S
C425 H476 0.931 . S
Co426 N410 1.869 . S
Co426 N427 1.955 . S
Co426 N428 1.864 . S
Co426 N434 1.958 . S
Co426 N435 1.953 . S
Co426 N436 1.974 . S
N427 Co426 1.955 . S
N427 C445 1.329 . S
N427 C460 1.432 . S
N428 Co426 1.864 . S
N428 C429 1.327 . S
N428 C433 1.342 . S
C429 N428 1.327 . S
C429 C430 1.407 . S
C429 C445 1.481 . S
C430 C429 1.407 . S
C430 C431 1.364 . S
C430 H477 0.930 . S
C431 C430 1.364 . S
C431 C432 1.390 . S
C431 H478 0.931 . S
C432 C431 1.390 . S
C432 C433 1.346 . S
C432 H479 0.930 . S
C433 N428 1.342 . S
C433 C432 1.346 . S
C433 C449 1.516 . S
N434 Co426 1.958 . S
N434 C449 1.324 . S
N434 C451 1.427 . S
N435 C411 1.316 . S
N435 C412 1.436 . S
N435 Co426 1.953 . S
N436 C420 1.423 . S
N436 Co426 1.974 . S
N436 C466 1.309 . S
O437 Cd419 2.352 . S
O437 C457 1.235 . S
O438 Cd418 2.329 . S
O438 C457 1.270 . S
C439 O440 1.270 . S
C439 O441 1.248 . S
O440 Cd418 2.350 . S
O440 C439 1.270 . S
O441 Cd418 2.277 . S
O441 C439 1.248 . S
C442 O443 1.277 . S
C442 O444 1.230 . S
O443 Cd418 2.173 . S
O443 C442 1.277 . S
O444 Cd419 2.250 . S
O444 C442 1.230 . S
C445 N427 1.329 . S
C445 C429 1.481 . S
C445 O446 1.246 . S
O446 C445 1.246 . S
O447 Cd418 2.263 . S
O447 C459 1.258 . S
O448 Cd419 2.308 . S
O448 C459 1.274 . S
C449 C433 1.516 . S
C449 N434 1.324 . S
C449 O450 1.238 . S
O450 C449 1.238 . S
C451 N434 1.427 . S
C451 C452 1.394 . S
C451 C456 1.395 . S
C452 C451 1.394 . S
C452 C453 1.380 . S
C452 H480 0.929 . S
C453 C452 1.380 . S
C453 C454 1.384 . S
C453 C459 1.495 . S
C454 C453 1.384 . S
C454 C455 1.382 . S
C454 H481 0.930 . S
C455 C454 1.382 . S
C455 C456 1.398 . S
C456 C451 1.395 . S
C456 C455 1.398 . S
C456 H482 0.930 . S
C457 O437 1.235 . S
C457 O438 1.270 . S
O458 C411 1.263 . S
O458 Cd418 2.366 . S
C459 O447 1.258 . S
C459 O448 1.274 . S
C459 C453 1.495 . S
C460 N427 1.432 . S
C460 C461 1.381 . S
C460 C465 1.385 . S
C461 C460 1.381 . S
C461 C462 1.371 . S
C461 H483 0.932 . S
C462 C461 1.371 . S
C462 C463 1.400 1_545 S
C463 C462 1.400 1_565 S
C463 C464 1.351 1_565 S
C463 H484 0.930 . S
C464 C463 1.351 1_545 S
C464 C465 1.388 . S
C465 C460 1.385 . S
C465 C464 1.388 . S
C465 H485 0.929 . S
C466 C405 1.504 . S
C466 N436 1.309 . S
C466 O467 1.258 . S
O467 C466 1.258 . S
H468 C406 0.929 . S
H469 C407 0.932 1_565 S
H470 C408 0.931 . S
H471 C413 0.929 . S
H472 C415 0.929 . S
H473 C417 0.931 . S
H474 C422 0.929 . S
H475 C424 0.932 . S
H476 C425 0.931 . S
H477 C430 0.930 . S
H478 C431 0.931 . S
H479 C432 0.930 . S
H480 C452 0.929 . S
H481 C454 0.930 . S
H482 C456 0.930 . S
H483 C461 0.932 . S
H484 C463 0.930 . S
H485 C465 0.929 . S
C486 C487 1.359 . S
C486 N491 1.330 . S
C486 C547 1.504 . S
C487 C486 1.359 . S
C487 C488 1.366 . S
C487 H549 0.929 . S
C488 C487 1.366 . S
C488 C489 1.415 . S
C488 H550 0.932 . S
C489 C488 1.415 . S
C489 C490 1.366 . S
C489 H551 0.931 . S
C490 C489 1.366 . S
C490 N491 1.325 . S
C490 C492 1.516 . S
N491 C486 1.330 . S
N491 C490 1.325 . S
N491 Co507 1.869 . S
C492 C490 1.516 . S
C492 N516 1.316 . S
C492 O539 1.263 . S
C493 C494 1.421 . S
C493 C498 1.360 . S
C493 N516 1.436 . S
C494 C493 1.421 . S
C494 C495 1.379 . S
C494 H552 0.929 . S
C495 C494 1.379 . S
C495 C496 1.417 . S
C496 C495 1.417 . S
C496 C497 1.352 . S
C496 H553 0.929 . S
C497 C496 1.352 . S
C497 C498 1.393 . S
C498 C493 1.360 . S
C498 C497 1.393 . S
C498 H554 0.931 . S
Cd499 O519 2.329 1_565 S
Cd499 O521 2.350 1_565 S
Cd499 O522 2.277 . S
Cd499 O524 2.173 . S
Cd499 O528 2.263 . S
Cd499 O539 2.366 . S
Cd500 O518 2.352 . S
Cd500 O525 2.250 1_545 S
Cd500 O529 2.308 1_545 S
C501 C505 1.403 . S
C501 C506 1.370 . S
C501 N517 1.423 . S
C502 C503 1.389 . S
C502 C506 1.389 . S
C503 C502 1.389 . S
C503 C504 1.379 . S
C503 H555 0.929 . S
C504 C503 1.379 . S
C504 C505 1.405 . S
C505 C501 1.403 . S
C505 C504 1.405 . S
C505 H556 0.932 . S
C506 C501 1.370 . S
C506 C502 1.389 . S
C506 H557 0.931 . S
Co507 N491 1.869 . S
Co507 N508 1.955 . S
Co507 N509 1.864 . S
Co507 N515 1.958 . S
Co507 N516 1.953 . S
Co507 N517 1.974 . S
N508 Co507 1.955 . S
N508 C526 1.329 . S
N508 C541 1.432 . S
N509 Co507 1.864 . S
N509 C510 1.327 . S
N509 C514 1.342 . S
C510 N509 1.327 . S
C510 C511 1.407 . S
C510 C526 1.481 . S
C511 C510 1.407 . S
C511 C512 1.364 . S
C511 H558 0.930 . S
C512 C511 1.364 . S
C512 C513 1.390 . S
C512 H559 0.931 . S
C513 C512 1.390 . S
C513 C514 1.346 . S
C513 H560 0.930 . S
C514 N509 1.342 . S
C514 C513 1.346 . S
C514 C530 1.516 . S
N515 Co507 1.958 . S
N515 C530 1.324 . S
N515 C532 1.427 . S
N516 C492 1.316 . S
N516 C493 1.436 . S
N516 Co507 1.953 . S
N517 C501 1.423 . S
N517 Co507 1.974 . S
N517 C547 1.309 . S
O518 Cd500 2.352 . S
O518 C538 1.235 . S
O519 Cd499 2.329 1_545 S
O519 C538 1.270 . S
C520 O521 1.270 . S
C520 O522 1.248 1_545 S
O521 Cd499 2.350 1_545 S
O521 C520 1.270 . S
O522 Cd499 2.277 . S
O522 C520 1.248 1_565 S
C523 O524 1.277 . S
C523 O525 1.230 . S
O524 Cd499 2.173 . S
O524 C523 1.277 . S
O525 Cd500 2.250 1_565 S
O525 C523 1.230 . S
C526 N508 1.329 . S
C526 C510 1.481 . S
C526 O527 1.246 . S
O527 C526 1.246 . S
O528 Cd499 2.263 . S
O528 C540 1.258 . S
O529 Cd500 2.308 1_565 S
O529 C540 1.274 . S
C530 C514 1.516 . S
C530 N515 1.324 . S
C530 O531 1.238 . S
O531 C530 1.238 . S
C532 N515 1.427 . S
C532 C533 1.394 . S
C532 C537 1.395 . S
C533 C532 1.394 . S
C533 C534 1.380 . S
C533 H561 0.929 . S
C534 C533 1.380 . S
C534 C535 1.384 . S
C534 C540 1.495 . S
C535 C534 1.384 . S
C535 C536 1.382 . S
C535 H562 0.930 . S
C536 C535 1.382 . S
C536 C537 1.398 . S
C537 C532 1.395 . S
C537 C536 1.398 . S
C537 H563 0.930 . S
C538 O518 1.235 . S
C538 O519 1.270 . S
O539 C492 1.263 . S
O539 Cd499 2.366 . S
C540 O528 1.258 . S
C540 O529 1.274 . S
C540 C534 1.495 . S
C541 N508 1.432 . S
C541 C542 1.381 . S
C541 C546 1.385 . S
C542 C541 1.381 . S
C542 C543 1.371 . S
C542 H564 0.932 . S
C543 C542 1.371 . S
C543 C544 1.400 . S
C544 C543 1.400 . S
C544 C545 1.351 . S
C544 H565 0.930 . S
C545 C544 1.351 . S
C545 C546 1.388 . S
C546 C541 1.385 . S
C546 C545 1.388 . S
C546 H566 0.929 . S
C547 C486 1.504 . S
C547 N517 1.309 . S
C547 O548 1.258 . S
O548 C547 1.258 . S
H549 C487 0.929 . S
H550 C488 0.932 . S
H551 C489 0.931 . S
H552 C494 0.929 . S
H553 C496 0.929 . S
H554 C498 0.931 . S
H555 C503 0.929 . S
H556 C505 0.932 . S
H557 C506 0.931 . S
H558 C511 0.930 . S
H559 C512 0.931 . S
H560 C513 0.930 . S
H561 C533 0.929 . S
H562 C535 0.930 . S
H563 C537 0.930 . S
H564 C542 0.932 . S
H565 C544 0.930 . S
H566 C546 0.929 . S
C567 C568 1.359 . S
C567 N572 1.330 . S
C567 C628 1.504 . S
C568 C567 1.359 . S
C568 C569 1.366 . S
C568 H630 0.929 . S
C569 C568 1.366 . S
C569 C570 1.415 . S
C569 H631 0.932 1_655 S
C570 C569 1.415 . S
C570 C571 1.366 . S
C570 H632 0.931 . S
C571 C570 1.366 . S
C571 N572 1.325 . S
C571 C573 1.516 . S
N572 C567 1.330 . S
N572 C571 1.325 . S
N572 Co588 1.869 . S
C573 C571 1.516 . S
C573 N597 1.316 . S
C573 O620 1.263 . S
C574 C575 1.421 . S
C574 C579 1.360 . S
C574 N597 1.436 . S
C575 C574 1.421 . S
C575 C576 1.379 1_556 S
C575 H633 0.930 1_556 S
C576 C575 1.379 1_554 S
C576 C577 1.417 . S
C577 C576 1.417 . S
C577 C578 1.352 1_554 S
C577 H634 0.929 . S
C578 C577 1.352 1_556 S
C578 C579 1.393 . S
C579 C574 1.360 . S
C579 C578 1.393 . S
C579 H635 0.931 . S
Cd580 O600 2.329 . S
Cd580 O602 2.350 . S
Cd580 O603 2.277 . S
Cd580 O605 2.173 . S
Cd580 O609 2.263 . S
Cd580 O620 2.366 . S
Cd581 O599 2.352 . S
Cd581 O606 2.250 . S
Cd581 O610 2.308 . S
C582 C586 1.403 . S
C582 C587 1.370 . S
C582 N598 1.423 . S
C583 C584 1.389 . S
C583 C587 1.389 . S
C584 C583 1.389 . S
C584 C585 1.379 . S
C584 H636 0.929 . S
C585 C584 1.379 . S
C585 C586 1.405 . S
C586 C582 1.403 . S
C586 C585 1.405 . S
C586 H637 0.932 . S
C587 C582 1.370 . S
C587 C583 1.389 . S
C587 H638 0.931 . S
Co588 N572 1.869 . S
Co588 N589 1.955 . S
Co588 N590 1.864 . S
Co588 N596 1.958 . S
Co588 N597 1.953 . S
Co588 N598 1.974 . S
N589 Co588 1.955 . S
N589 C607 1.329 . S
N589 C622 1.432 . S
N590 Co588 1.864 . S
N590 C591 1.327 . S
N590 C595 1.342 . S
C591 N590 1.327 . S
C591 C592 1.407 . S
C591 C607 1.481 . S
C592 C591 1.407 . S
C592 C593 1.364 . S
C592 H639 0.930 . S
C593 C592 1.364 . S
C593 C594 1.390 . S
C593 H640 0.931 . S
C594 C593 1.390 . S
C594 C595 1.346 . S
C594 H641 0.930 . S
C595 N590 1.342 . S
C595 C594 1.346 . S
C595 C611 1.516 . S
N596 Co588 1.958 . S
N596 C611 1.324 . S
N596 C613 1.427 . S
N597 C573 1.316 . S
N597 C574 1.436 . S
N597 Co588 1.953 . S
N598 C582 1.423 . S
N598 Co588 1.974 . S
N598 C628 1.309 . S
O599 Cd581 2.352 . S
O599 C619 1.235 . S
O600 Cd580 2.329 . S
O600 C619 1.270 . S
C601 O602 1.270 . S
C601 O603 1.248 . S
O602 Cd580 2.350 . S
O602 C601 1.270 . S
O603 Cd580 2.277 . S
O603 C601 1.248 . S
C604 O605 1.277 . S
C604 O606 1.230 . S
O605 Cd580 2.173 . S
O605 C604 1.277 . S
O606 Cd581 2.250 . S
O606 C604 1.230 . S
C607 N589 1.329 . S
C607 C591 1.481 . S
C607 O608 1.246 . S
O608 C607 1.246 . S
O609 Cd580 2.263 . S
O609 C621 1.258 . S
O610 Cd581 2.308 . S
O610 C621 1.274 . S
C611 C595 1.516 . S
C611 N596 1.324 . S
C611 O612 1.238 . S
O612 C611 1.238 . S
C613 N596 1.427 . S
C613 C614 1.394 . S
C613 C618 1.395 . S
C614 C613 1.394 . S
C614 C615 1.380 . S
C614 H642 0.929 . S
C615 C614 1.380 . S
C615 C616 1.384 . S
C615 C621 1.495 . S
C616 C615 1.384 . S
C616 C617 1.382 . S
C616 H643 0.930 . S
C617 C616 1.382 . S
C617 C618 1.398 . S
C618 C613 1.395 . S
C618 C617 1.398 . S
C618 H644 0.930 . S
C619 O599 1.235 . S
C619 O600 1.270 . S
O620 C573 1.263 . S
O620 Cd580 2.366 . S
C621 O609 1.258 . S
C621 O610 1.274 . S
C621 C615 1.495 . S
C622 N589 1.432 . S
C622 C623 1.381 . S
C622 C627 1.385 . S
C623 C622 1.381 . S
C623 C624 1.371 . S
C623 H645 0.932 . S
C624 C623 1.371 . S
C624 C625 1.400 1_655 S
C625 C624 1.400 1_455 S
C625 C626 1.351 1_456 S
C625 H646 0.930 . S
C626 C625 1.351 1_654 S
C626 C627 1.388 1_554 S
C627 C622 1.385 . S
C627 C626 1.388 1_556 S
C627 H647 0.929 1_556 S
C628 C567 1.504 . S
C628 N598 1.309 . S
C628 O629 1.258 . S
O629 C628 1.258 . S
H630 C568 0.929 . S
H631 C569 0.932 1_455 S
H632 C570 0.931 . S
H633 C575 0.930 1_554 S
H634 C577 0.929 . S
H635 C579 0.931 . S
H636 C584 0.929 . S
H637 C586 0.932 . S
H638 C587 0.931 . S
H639 C592 0.930 . S
H640 C593 0.931 . S
H641 C594 0.930 . S
H642 C614 0.929 . S
H643 C616 0.930 . S
H644 C618 0.930 . S
H645 C623 0.932 . S
H646 C625 0.930 . S
H647 C627 0.929 1_554 S
C648 C649 1.359 . S
C648 N653 1.330 . S
C648 C709 1.504 . S
C649 C648 1.359 . S
C649 C650 1.366 . S
C649 H711 0.929 . S
C650 C649 1.366 . S
C650 C651 1.415 . S
C650 H712 0.932 1_565 S
C651 C650 1.415 . S
C651 C652 1.366 . S
C651 H713 0.931 . S
C652 C651 1.366 . S
C652 N653 1.325 . S
C652 C654 1.516 . S
N653 C648 1.330 . S
N653 C652 1.325 . S
N653 Co669 1.869 . S
C654 C652 1.516 . S
C654 N678 1.316 . S
C654 O701 1.263 . S
C655 C656 1.421 . S
C655 C660 1.360 . S
C655 N678 1.436 . S
C656 C655 1.421 . S
C656 C657 1.379 . S
C656 H714 0.929 . S
C657 C656 1.379 . S
C657 C658 1.417 . S
C658 C657 1.417 . S
C658 C659 1.352 . S
C658 H715 0.929 . S
C659 C658 1.352 . S
C659 C660 1.393 . S
C660 C655 1.360 . S
C660 C659 1.393 . S
C660 H716 0.931 . S
Cd661 O681 2.329 1_455 S
Cd661 O683 2.350 1_455 S
Cd661 O684 2.277 . S
Cd661 O686 2.173 . S
Cd661 O690 2.263 . S
Cd661 O701 2.366 . S
Cd662 O680 2.352 . S
Cd662 O687 2.250 1_655 S
Cd662 O691 2.308 1_655 S
C663 C667 1.403 . S
C663 C668 1.370 . S
C663 N679 1.423 . S
C664 C665 1.389 . S
C664 C668 1.389 . S
C665 C664 1.389 . S
C665 C666 1.379 . S
C665 H717 0.929 . S
C666 C665 1.379 . S
C666 C667 1.405 . S
C667 C663 1.403 . S
C667 C666 1.405 . S
C667 H718 0.932 . S
C668 C663 1.370 . S
C668 C664 1.389 . S
C668 H719 0.931 . S
Co669 N653 1.869 . S
Co669 N670 1.955 . S
Co669 N671 1.864 . S
Co669 N677 1.958 . S
Co669 N678 1.953 . S
Co669 N679 1.974 . S
N670 Co669 1.955 . S
N670 C688 1.329 . S
N670 C703 1.432 . S
N671 Co669 1.864 . S
N671 C672 1.327 . S
N671 C676 1.342 . S
C672 N671 1.327 . S
C672 C673 1.407 . S
C672 C688 1.481 . S
C673 C672 1.407 . S
C673 C674 1.364 . S
C673 H720 0.930 . S
C674 C673 1.364 . S
C674 C675 1.390 . S
C674 H721 0.931 . S
C675 C674 1.390 . S
C675 C676 1.346 . S
C675 H722 0.930 . S
C676 N671 1.342 . S
C676 C675 1.346 . S
C676 C692 1.516 . S
N677 Co669 1.958 . S
N677 C692 1.324 . S
N677 C694 1.427 . S
N678 C654 1.316 . S
N678 C655 1.436 . S
N678 Co669 1.953 . S
N679 C663 1.423 . S
N679 Co669 1.974 . S
N679 C709 1.309 . S
O680 Cd662 2.352 . S
O680 C700 1.235 . S
O681 Cd661 2.329 1_655 S
O681 C700 1.270 . S
C682 O683 1.270 . S
C682 O684 1.248 1_655 S
O683 Cd661 2.350 1_655 S
O683 C682 1.270 . S
O684 Cd661 2.277 . S
O684 C682 1.248 1_455 S
C685 O686 1.277 . S
C685 O687 1.230 . S
O686 Cd661 2.173 . S
O686 C685 1.277 . S
O687 Cd662 2.250 1_455 S
O687 C685 1.230 . S
C688 N670 1.329 . S
C688 C672 1.481 . S
C688 O689 1.246 . S
O689 C688 1.246 . S
O690 Cd661 2.263 . S
O690 C702 1.258 . S
O691 Cd662 2.308 1_455 S
O691 C702 1.274 . S
C692 C676 1.516 . S
C692 N677 1.324 . S
C692 O693 1.238 . S
O693 C692 1.238 . S
C694 N677 1.427 . S
C694 C695 1.394 . S
C694 C699 1.395 . S
C695 C694 1.394 . S
C695 C696 1.380 . S
C695 H723 0.929 . S
C696 C695 1.380 . S
C696 C697 1.384 . S
C696 C702 1.495 . S
C697 C696 1.384 . S
C697 C698 1.382 . S
C697 H724 0.930 . S
C698 C697 1.382 . S
C698 C699 1.398 . S
C699 C694 1.395 . S
C699 C698 1.398 . S
C699 H725 0.930 . S
C700 O680 1.235 . S
C700 O681 1.270 . S
O701 C654 1.263 . S
O701 Cd661 2.366 . S
C702 O690 1.258 . S
C702 O691 1.274 . S
C702 C696 1.495 . S
C703 N670 1.432 . S
C703 C704 1.381 . S
C703 C708 1.385 . S
C704 C703 1.381 . S
C704 C705 1.371 . S
C704 H726 0.932 . S
C705 C704 1.371 . S
C705 C706 1.400 1_565 S
C706 C705 1.400 1_545 S
C706 C707 1.351 1_545 S
C706 H727 0.930 . S
C707 C706 1.351 1_565 S
C707 C708 1.388 . S
C708 C703 1.385 . S
C708 C707 1.388 . S
C708 H728 0.929 . S
C709 C648 1.504 . S
C709 N679 1.309 . S
C709 O710 1.258 . S
O710 C709 1.258 . S
H711 C649 0.929 . S
H712 C650 0.932 1_545 S
H713 C651 0.931 . S
H714 C656 0.929 . S
H715 C658 0.929 . S
H716 C660 0.931 . S
H717 C665 0.929 . S
H718 C667 0.932 . S
H719 C668 0.931 . S
H720 C673 0.930 . S
H721 C674 0.931 . S
H722 C675 0.930 . S
H723 C695 0.929 . S
H724 C697 0.930 . S
H725 C699 0.930 . S
H726 C704 0.932 . S
H727 C706 0.930 . S
H728 C708 0.929 . S
C729 C730 1.359 . S
C729 N734 1.330 . S
C729 C790 1.504 . S
C730 C729 1.359 . S
C730 C731 1.366 . S
C730 H792 0.929 . S
C731 C730 1.366 . S
C731 C732 1.415 . S
C731 H793 0.932 . S
C732 C731 1.415 . S
C732 C733 1.366 . S
C732 H794 0.931 . S
C733 C732 1.366 . S
C733 N734 1.325 . S
C733 C735 1.516 . S
N734 C729 1.330 . S
N734 C733 1.325 . S
N734 Co750 1.869 . S
C735 C733 1.516 . S
C735 N759 1.316 . S
C735 O782 1.263 . S
C736 C737 1.421 . S
C736 C741 1.360 . S
C736 N759 1.436 . S
C737 C736 1.421 . S
C737 C738 1.379 1_556 S
C737 H795 0.930 1_556 S
C738 C737 1.379 1_554 S
C738 C739 1.417 . S
C739 C738 1.417 . S
C739 C740 1.352 1_554 S
C739 H796 0.929 . S
C740 C739 1.352 1_556 S
C740 C741 1.393 . S
C741 C736 1.360 . S
C741 C740 1.393 . S
C741 H797 0.931 . S
Cd742 O762 2.329 1_545 S
Cd742 O764 2.350 1_545 S
Cd742 O765 2.277 . S
Cd742 O767 2.173 . S
Cd742 O771 2.263 . S
Cd742 O782 2.366 . S
Cd743 O761 2.352 . S
Cd743 O768 2.250 1_565 S
Cd743 O772 2.308 1_565 S
C744 C748 1.403 . S
C744 C749 1.370 . S
C744 N760 1.423 . S
C745 C746 1.389 . S
C745 C749 1.389 . S
C746 C745 1.389 . S
C746 C747 1.379 . S
C746 H798 0.929 . S
C747 C746 1.379 . S
C747 C748 1.405 . S
C748 C744 1.403 . S
C748 C747 1.405 . S
C748 H799 0.932 . S
C749 C744 1.370 . S
C749 C745 1.389 . S
C749 H800 0.931 . S
Co750 N734 1.869 . S
Co750 N751 1.955 . S
Co750 N752 1.864 . S
Co750 N758 1.958 . S
Co750 N759 1.953 . S
Co750 N760 1.974 . S
N751 Co750 1.955 . S
N751 C769 1.329 . S
N751 C784 1.432 . S
N752 Co750 1.864 . S
N752 C753 1.327 . S
N752 C757 1.342 . S
C753 N752 1.327 . S
C753 C754 1.407 . S
C753 C769 1.481 . S
C754 C753 1.407 . S
C754 C755 1.364 . S
C754 H801 0.930 . S
C755 C754 1.364 . S
C755 C756 1.390 . S
C755 H802 0.931 . S
C756 C755 1.390 . S
C756 C757 1.346 . S
C756 H803 0.930 . S
C757 N752 1.342 . S
C757 C756 1.346 . S
C757 C773 1.516 . S
N758 Co750 1.958 . S
N758 C773 1.324 . S
N758 C775 1.427 . S
N759 C735 1.316 . S
N759 C736 1.436 . S
N759 Co750 1.953 . S
N760 C744 1.423 . S
N760 Co750 1.974 . S
N760 C790 1.309 . S
O761 Cd743 2.352 . S
O761 C781 1.235 . S
O762 Cd742 2.329 1_565 S
O762 C781 1.270 . S
C763 O764 1.270 . S
C763 O765 1.248 1_565 S
O764 Cd742 2.350 1_565 S
O764 C763 1.270 . S
O765 Cd742 2.277 . S
O765 C763 1.248 1_545 S
C766 O767 1.277 . S
C766 O768 1.230 . S
O767 Cd742 2.173 . S
O767 C766 1.277 . S
O768 Cd743 2.250 1_545 S
O768 C766 1.230 . S
C769 N751 1.329 . S
C769 C753 1.481 . S
C769 O770 1.246 . S
O770 C769 1.246 . S
O771 Cd742 2.263 . S
O771 C783 1.258 . S
O772 Cd743 2.308 1_545 S
O772 C783 1.274 . S
C773 C757 1.516 . S
C773 N758 1.324 . S
C773 O774 1.238 . S
O774 C773 1.238 . S
C775 N758 1.427 . S
C775 C776 1.394 . S
C775 C780 1.395 . S
C776 C775 1.394 . S
C776 C777 1.380 . S
C776 H804 0.929 . S
C777 C776 1.380 . S
C777 C778 1.384 . S
C777 C783 1.495 . S
C778 C777 1.384 . S
C778 C779 1.382 . S
C778 H805 0.930 . S
C779 C778 1.382 . S
C779 C780 1.398 . S
C780 C775 1.395 . S
C780 C779 1.398 . S
C780 H806 0.930 . S
C781 O761 1.235 . S
C781 O762 1.270 . S
O782 C735 1.263 . S
O782 Cd742 2.366 . S
C783 O771 1.258 . S
C783 O772 1.274 . S
C783 C777 1.495 . S
C784 N751 1.432 . S
C784 C785 1.381 . S
C784 C789 1.385 . S
C785 C784 1.381 . S
C785 C786 1.371 . S
C785 H807 0.932 . S
C786 C785 1.371 . S
C786 C787 1.400 . S
C787 C786 1.400 . S
C787 C788 1.351 1_556 S
C787 H808 0.930 . S
C788 C787 1.351 1_554 S
C788 C789 1.388 1_554 S
C789 C784 1.385 . S
C789 C788 1.388 1_556 S
C789 H809 0.929 1_556 S
C790 C729 1.504 . S
C790 N760 1.309 . S
C790 O791 1.258 . S
O791 C790 1.258 . S
H792 C730 0.929 . S
H793 C731 0.932 . S
H794 C732 0.931 . S
H795 C737 0.930 1_554 S
H796 C739 0.929 . S
H797 C741 0.931 . S
H798 C746 0.929 . S
H799 C748 0.932 . S
H800 C749 0.931 . S
H801 C754 0.930 . S
H802 C755 0.931 . S
H803 C756 0.930 . S
H804 C776 0.929 . S
H805 C778 0.930 . S
H806 C780 0.930 . S
H807 C785 0.932 . S
H808 C787 0.930 . S
H809 C789 0.929 1_554 S
C810 C811 1.359 . S
C810 N815 1.330 . S
C810 C871 1.504 . S
C811 C810 1.359 . S
C811 C812 1.366 . S
C811 H873 0.929 . S
C812 C811 1.366 . S
C812 C813 1.415 . S
C812 H874 0.932 1_455 S
C813 C812 1.415 . S
C813 C814 1.366 . S
C813 H875 0.931 . S
C814 C813 1.366 . S
C814 N815 1.325 . S
C814 C816 1.516 . S
N815 C810 1.330 . S
N815 C814 1.325 . S
N815 Co831 1.869 . S
C816 C814 1.516 . S
C816 N840 1.316 . S
C816 O863 1.263 . S
C817 C818 1.421 . S
C817 C822 1.360 . S
C817 N840 1.436 . S
C818 C817 1.421 . S
C818 C819 1.379 . S
C818 H876 0.929 . S
C819 C818 1.379 . S
C819 C820 1.417 . S
C820 C819 1.417 . S
C820 C821 1.352 . S
C820 H877 0.929 . S
C821 C820 1.352 . S
C821 C822 1.393 . S
C822 C817 1.360 . S
C822 C821 1.393 . S
C822 H878 0.931 . S
Cd823 O843 2.329 . S
Cd823 O845 2.350 . S
Cd823 O846 2.277 . S
Cd823 O848 2.173 . S
Cd823 O852 2.263 . S
Cd823 O863 2.366 . S
Cd824 O842 2.352 . S
Cd824 O849 2.250 . S
Cd824 O853 2.308 . S
C825 C829 1.403 . S
C825 C830 1.370 . S
C825 N841 1.423 . S
C826 C827 1.389 . S
C826 C830 1.389 . S
C827 C826 1.389 . S
C827 C828 1.379 . S
C827 H879 0.929 . S
C828 C827 1.379 . S
C828 C829 1.405 . S
C829 C825 1.403 . S
C829 C828 1.405 . S
C829 H880 0.932 . S
C830 C825 1.370 . S
C830 C826 1.389 . S
C830 H881 0.931 . S
Co831 N815 1.869 . S
Co831 N832 1.955 . S
Co831 N833 1.864 . S
Co831 N839 1.958 . S
Co831 N840 1.953 . S
Co831 N841 1.974 . S
N832 Co831 1.955 . S
N832 C850 1.329 . S
N832 C865 1.432 . S
N833 Co831 1.864 . S
N833 C834 1.327 . S
N833 C838 1.342 . S
C834 N833 1.327 . S
C834 C835 1.407 . S
C834 C850 1.481 . S
C835 C834 1.407 . S
C835 C836 1.364 . S
C835 H882 0.930 . S
C836 C835 1.364 . S
C836 C837 1.390 . S
C836 H883 0.931 . S
C837 C836 1.390 . S
C837 C838 1.346 . S
C837 H884 0.930 . S
C838 N833 1.342 . S
C838 C837 1.346 . S
C838 C854 1.516 . S
N839 Co831 1.958 . S
N839 C854 1.324 . S
N839 C856 1.427 . S
N840 C816 1.316 . S
N840 C817 1.436 . S
N840 Co831 1.953 . S
N841 C825 1.423 . S
N841 Co831 1.974 . S
N841 C871 1.309 . S
O842 Cd824 2.352 . S
O842 C862 1.235 . S
O843 Cd823 2.329 . S
O843 C862 1.270 . S
C844 O845 1.270 . S
C844 O846 1.248 . S
O845 Cd823 2.350 . S
O845 C844 1.270 . S
O846 Cd823 2.277 . S
O846 C844 1.248 . S
C847 O848 1.277 . S
C847 O849 1.230 . S
O848 Cd823 2.173 . S
O848 C847 1.277 . S
O849 Cd824 2.250 . S
O849 C847 1.230 . S
C850 N832 1.329 . S
C850 C834 1.481 . S
C850 O851 1.246 . S
O851 C850 1.246 . S
O852 Cd823 2.263 . S
O852 C864 1.258 . S
O853 Cd824 2.308 . S
O853 C864 1.274 . S
C854 C838 1.516 . S
C854 N839 1.324 . S
C854 O855 1.238 . S
O855 C854 1.238 . S
C856 N839 1.427 . S
C856 C857 1.394 . S
C856 C861 1.395 . S
C857 C856 1.394 . S
C857 C858 1.380 . S
C857 H885 0.929 . S
C858 C857 1.380 . S
C858 C859 1.384 . S
C858 C864 1.495 . S
C859 C858 1.384 . S
C859 C860 1.382 . S
C859 H886 0.930 . S
C860 C859 1.382 . S
C860 C861 1.398 . S
C861 C856 1.395 . S
C861 C860 1.398 . S
C861 H887 0.930 . S
C862 O842 1.235 . S
C862 O843 1.270 . S
O863 C816 1.263 . S
O863 Cd823 2.366 . S
C864 O852 1.258 . S
C864 O853 1.274 . S
C864 C858 1.495 . S
C865 N832 1.432 . S
C865 C866 1.381 . S
C865 C870 1.385 . S
C866 C865 1.381 . S
C866 C867 1.371 . S
C866 H888 0.932 . S
C867 C866 1.371 . S
C867 C868 1.400 1_455 S
C868 C867 1.400 1_655 S
C868 C869 1.351 1_655 S
C868 H889 0.930 . S
C869 C868 1.351 1_455 S
C869 C870 1.388 . S
C870 C865 1.385 . S
C870 C869 1.388 . S
C870 H890 0.929 . S
C871 C810 1.504 . S
C871 N841 1.309 . S
C871 O872 1.258 . S
O872 C871 1.258 . S
H873 C811 0.929 . S
H874 C812 0.932 1_655 S
H875 C813 0.931 . S
H876 C818 0.929 . S
H877 C820 0.929 . S
H878 C822 0.931 . S
H879 C827 0.929 . S
H880 C829 0.932 . S
H881 C830 0.931 . S
H882 C835 0.930 . S
H883 C836 0.931 . S
H884 C837 0.930 . S
H885 C857 0.929 . S
H886 C859 0.930 . S
H887 C861 0.930 . S
H888 C866 0.932 . S
H889 C868 0.930 . S
H890 C870 0.929 . S
C891 C892 1.359 . S
C891 N896 1.330 . S
C891 C952 1.504 . S
C892 C891 1.359 . S
C892 C893 1.366 . S
C892 H954 0.929 . S
C893 C892 1.366 . S
C893 C894 1.415 . S
C893 H955 0.932 1_545 S
C894 C893 1.415 . S
C894 C895 1.366 . S
C894 H956 0.931 . S
C895 C894 1.366 . S
C895 N896 1.325 . S
C895 C897 1.516 . S
N896 C891 1.330 . S
N896 C895 1.325 . S
N896 Co912 1.869 . S
C897 C895 1.516 . S
C897 N921 1.316 . S
C897 O944 1.263 . S
C898 C899 1.421 . S
C898 C903 1.360 . S
C898 N921 1.436 . S
C899 C898 1.421 . S
C899 C900 1.379 1_556 S
C899 H957 0.930 1_556 S
C900 C899 1.379 1_554 S
C900 C901 1.417 . S
C901 C900 1.417 . S
C901 C902 1.352 1_554 S
C901 H958 0.929 . S
C902 C901 1.352 1_556 S
C902 C903 1.393 . S
C903 C898 1.360 . S
C903 C902 1.393 . S
C903 H959 0.931 . S
Cd904 O924 2.329 1_655 S
Cd904 O926 2.350 1_655 S
Cd904 O927 2.277 . S
Cd904 O929 2.173 . S
Cd904 O933 2.263 . S
Cd904 O944 2.366 . S
Cd905 O923 2.352 . S
Cd905 O930 2.250 1_455 S
Cd905 O934 2.308 1_455 S
C906 C910 1.403 . S
C906 C911 1.370 . S
C906 N922 1.423 . S
C907 C908 1.389 . S
C907 C911 1.389 . S
C908 C907 1.389 . S
C908 C909 1.379 . S
C908 H960 0.929 . S
C909 C908 1.379 . S
C909 C910 1.405 . S
C910 C906 1.403 . S
C910 C909 1.405 . S
C910 H961 0.932 . S
C911 C906 1.370 . S
C911 C907 1.389 . S
C911 H962 0.931 . S
Co912 N896 1.869 . S
Co912 N913 1.955 . S
Co912 N914 1.864 . S
Co912 N920 1.958 . S
Co912 N921 1.953 . S
Co912 N922 1.974 . S
N913 Co912 1.955 . S
N913 C931 1.329 . S
N913 C946 1.432 . S
N914 Co912 1.864 . S
N914 C915 1.327 . S
N914 C919 1.342 . S
C915 N914 1.327 . S
C915 C916 1.407 . S
C915 C931 1.481 . S
C916 C915 1.407 . S
C916 C917 1.364 . S
C916 H963 0.930 . S
C917 C916 1.364 . S
C917 C918 1.390 . S
C917 H964 0.931 . S
C918 C917 1.390 . S
C918 C919 1.346 . S
C918 H965 0.930 . S
C919 N914 1.342 . S
C919 C918 1.346 . S
C919 C935 1.516 . S
N920 Co912 1.958 . S
N920 C935 1.324 . S
N920 C937 1.427 . S
N921 C897 1.316 . S
N921 C898 1.436 . S
N921 Co912 1.953 . S
N922 C906 1.423 . S
N922 Co912 1.974 . S
N922 C952 1.309 . S
O923 Cd905 2.352 . S
O923 C943 1.235 . S
O924 Cd904 2.329 1_455 S
O924 C943 1.270 . S
C925 O926 1.270 . S
C925 O927 1.248 1_455 S
O926 Cd904 2.350 1_455 S
O926 C925 1.270 . S
O927 Cd904 2.277 . S
O927 C925 1.248 1_655 S
C928 O929 1.277 . S
C928 O930 1.230 . S
O929 Cd904 2.173 . S
O929 C928 1.277 . S
O930 Cd905 2.250 1_655 S
O930 C928 1.230 . S
C931 N913 1.329 . S
C931 C915 1.481 . S
C931 O932 1.246 . S
O932 C931 1.246 . S
O933 Cd904 2.263 . S
O933 C945 1.258 . S
O934 Cd905 2.308 1_655 S
O934 C945 1.274 . S
C935 C919 1.516 . S
C935 N920 1.324 . S
C935 O936 1.238 . S
O936 C935 1.238 . S
C937 N920 1.427 . S
C937 C938 1.394 . S
C937 C942 1.395 . S
C938 C937 1.394 . S
C938 C939 1.380 . S
C938 H966 0.929 . S
C939 C938 1.380 . S
C939 C940 1.384 . S
C939 C945 1.495 . S
C940 C939 1.384 . S
C940 C941 1.382 . S
C940 H967 0.930 . S
C941 C940 1.382 . S
C941 C942 1.398 . S
C942 C937 1.395 . S
C942 C941 1.398 . S
C942 H968 0.930 . S
C943 O923 1.235 . S
C943 O924 1.270 . S
O944 C897 1.263 . S
O944 Cd904 2.366 . S
C945 O933 1.258 . S
C945 O934 1.274 . S
C945 C939 1.495 . S
C946 N913 1.432 . S
C946 C947 1.381 . S
C946 C951 1.385 . S
C947 C946 1.381 . S
C947 C948 1.371 . S
C947 H969 0.932 . S
C948 C947 1.371 . S
C948 C949 1.400 1_545 S
C949 C948 1.400 1_565 S
C949 C950 1.351 1_566 S
C949 H970 0.930 . S
C950 C949 1.351 1_544 S
C950 C951 1.388 1_554 S
C951 C946 1.385 . S
C951 C950 1.388 1_556 S
C951 H971 0.929 1_556 S
C952 C891 1.504 . S
C952 N922 1.309 . S
C952 O953 1.258 . S
O953 C952 1.258 . S
H954 C892 0.929 . S
H955 C893 0.932 1_565 S
H956 C894 0.931 . S
H957 C899 0.930 1_554 S
H958 C901 0.929 . S
H959 C903 0.931 . S
H960 C908 0.929 . S
H961 C910 0.932 . S
H962 C911 0.931 . S
H963 C916 0.930 . S
H964 C917 0.931 . S
H965 C918 0.930 . S
H966 C938 0.929 . S
H967 C940 0.930 . S
H968 C942 0.930 . S
H969 C947 0.932 . S
H970 C949 0.930 . S
H971 C951 0.929 1_554 S
C16 C342 3.856 . S
C423 C97 3.856 . S
C18 C178 3.856 . S
C99 C259 3.856 . S
C340 C180 3.856 . S
C261 C421 3.856 . S
C502 C666 3.856 . S
C583 C747 3.856 . S
C828 C664 3.856 . S
C909 C745 3.856 . S
C504 C826 3.856 . S
C907 C585 3.856 . S
C860 C50 2.433 . S
C941 C131 2.433 . S
C536 C212 2.433 . S
C617 C293 2.433 . S
C374 C698 2.433 . S
C779 C455 2.433 . S
C788 C59 1.634 1_554 S
C869 C140 1.634 1_455 S
C221 C950 1.634 1_566 S
C545 C302 1.634 . S
C626 C383 1.634 1_654 S
C707 C464 1.634 1_565 S
C601 C196 2.514 1_556 S
C682 C277 2.514 1_655 S
C763 C358 2.514 1_566 S
C844 C439 2.514 . S
C34 C925 2.514 1_654 S
C115 C520 2.514 1_565 S
C376 C37 1.574 . S
C457 C118 1.574 1_455 S
C199 C52 1.574 1_565 S
C133 C280 1.574 . S
C214 C361 1.574 1_655 S
C295 C442 1.574 1_565 S
C523 C700 1.574 . S
C781 C604 1.574 1_455 S
C862 C685 1.574 1_545 S
C766 C943 1.574 . S
C847 C538 1.574 1_455 S
C619 C928 1.574 1_565 S
