# Generated by pormake.
# Topology crs, (6)-cn, num edge types: 1
# Building blocks:
#     Node 0, Type 0, BuildingBlock: CUKXOW_clean_sbu_0, # of connection points: 6
#     Node 1, Type 0, BuildingBlock: CUKXOW_clean_sbu_0, # of connection points: 6
#     Node 2, Type 0, BuildingBlock: CUKXOW_clean_sbu_0, # of connection points: 6
#     Node 3, Type 0, BuildingBlock: CUKXOW_clean_sbu_0, # of connection points: 6
#     Node 4, Type 0, BuildingBlock: CUKXOW_clean_sbu_0, # of connection points: 6
#     Node 5, Type 0, BuildingBlock: CUKXOW_clean_sbu_0, # of connection points: 6
#     Node 6, Type 0, BuildingBlock: CUKXOW_clean_sbu_0, # of connection points: 6
#     Node 7, Type 0, BuildingBlock: CUKXOW_clean_sbu_0, # of connection points: 6
#     Node 8, Type 0, BuildingBlock: CUKXOW_clean_sbu_0, # of connection points: 6
#     Node 9, Type 0, BuildingBlock: CUKXOW_clean_sbu_0, # of connection points: 6
#     Node 10, Type 0, BuildingBlock: CUKXOW_clean_sbu_0, # of connection points: 6
#     Node 11, Type 0, BuildingBlock: CUKXOW_clean_sbu_0, # of connection points: 6
#     Node 12, Type 0, BuildingBlock: CUKXOW_clean_sbu_0, # of connection points: 6
#     Node 13, Type 0, BuildingBlock: CUKXOW_clean_sbu_0, # of connection points: 6
#     Node 14, Type 0, BuildingBlock: CUKXOW_clean_sbu_0, # of connection points: 6
#     Node 15, Type 0, BuildingBlock: CUKXOW_clean_sbu_0, # of connection points: 6
#     Edge 16, Type (0, 0), BuildingBlock: XIVTED_clean_linker_0, # of connection points: 2
#     Edge 17, Type (0, 0), BuildingBlock: XIVTED_clean_linker_0, # of connection points: 2
#     Edge 18, Type (0, 0), BuildingBlock: XIVTED_clean_linker_0, # of connection points: 2
#     Edge 19, Type (0, 0), BuildingBlock: XIVTED_clean_linker_0, # of connection points: 2
#     Edge 20, Type (0, 0), BuildingBlock: XIVTED_clean_linker_0, # of connection points: 2
#     Edge 21, Type (0, 0), BuildingBlock: XIVTED_clean_linker_0, # of connection points: 2
#     Edge 22, Type (0, 0), BuildingBlock: XIVTED_clean_linker_0, # of connection points: 2
#     Edge 23, Type (0, 0), BuildingBlock: XIVTED_clean_linker_0, # of connection points: 2
#     Edge 24, Type (0, 0), BuildingBlock: XIVTED_clean_linker_0, # of connection points: 2
#     Edge 25, Type (0, 0), BuildingBlock: XIVTED_clean_linker_0, # of connection points: 2
#     Edge 26, Type (0, 0), BuildingBlock: XIVTED_clean_linker_0, # of connection points: 2
#     Edge 27, Type (0, 0), BuildingBlock: XIVTED_clean_linker_0, # of connection points: 2
#     Edge 28, Type (0, 0), BuildingBlock: XIVTED_clean_linker_0, # of connection points: 2
#     Edge 29, Type (0, 0), BuildingBlock: XIVTED_clean_linker_0, # of connection points: 2
#     Edge 30, Type (0, 0), BuildingBlock: XIVTED_clean_linker_0, # of connection points: 2
#     Edge 31, Type (0, 0), BuildingBlock: XIVTED_clean_linker_0, # of connection points: 2
#     Edge 32, Type (0, 0), BuildingBlock: XIVTED_clean_linker_0, # of connection points: 2
#     Edge 33, Type (0, 0), BuildingBlock: XIVTED_clean_linker_0, # of connection points: 2
#     Edge 34, Type (0, 0), BuildingBlock: XIVTED_clean_linker_0, # of connection points: 2
#     Edge 35, Type (0, 0), BuildingBlock: XIVTED_clean_linker_0, # of connection points: 2
#     Edge 36, Type (0, 0), BuildingBlock: XIVTED_clean_linker_0, # of connection points: 2
#     Edge 37, Type (0, 0), BuildingBlock: XIVTED_clean_linker_0, # of connection points: 2
#     Edge 38, Type (0, 0), BuildingBlock: XIVTED_clean_linker_0, # of connection points: 2
#     Edge 39, Type (0, 0), BuildingBlock: XIVTED_clean_linker_0, # of connection points: 2
#     Edge 40, Type (0, 0), BuildingBlock: XIVTED_clean_linker_0, # of connection points: 2
#     Edge 41, Type (0, 0), BuildingBlock: XIVTED_clean_linker_0, # of connection points: 2
#     Edge 42, Type (0, 0), BuildingBlock: XIVTED_clean_linker_0, # of connection points: 2
#     Edge 43, Type (0, 0), BuildingBlock: XIVTED_clean_linker_0, # of connection points: 2
#     Edge 44, Type (0, 0), BuildingBlock: XIVTED_clean_linker_0, # of connection points: 2
#     Edge 45, Type (0, 0), BuildingBlock: XIVTED_clean_linker_0, # of connection points: 2
#     Edge 46, Type (0, 0), BuildingBlock: XIVTED_clean_linker_0, # of connection points: 2
#     Edge 47, Type (0, 0), BuildingBlock: XIVTED_clean_linker_0, # of connection points: 2
#     Edge 48, Type (0, 0), BuildingBlock: XIVTED_clean_linker_0, # of connection points: 2
#     Edge 49, Type (0, 0), BuildingBlock: XIVTED_clean_linker_0, # of connection points: 2
#     Edge 50, Type (0, 0), BuildingBlock: XIVTED_clean_linker_0, # of connection points: 2
#     Edge 51, Type (0, 0), BuildingBlock: XIVTED_clean_linker_0, # of connection points: 2
#     Edge 52, Type (0, 0), BuildingBlock: XIVTED_clean_linker_0, # of connection points: 2
#     Edge 53, Type (0, 0), BuildingBlock: XIVTED_clean_linker_0, # of connection points: 2
#     Edge 54, Type (0, 0), BuildingBlock: XIVTED_clean_linker_0, # of connection points: 2
#     Edge 55, Type (0, 0), BuildingBlock: XIVTED_clean_linker_0, # of connection points: 2
#     Edge 56, Type (0, 0), BuildingBlock: XIVTED_clean_linker_0, # of connection points: 2
#     Edge 57, Type (0, 0), BuildingBlock: XIVTED_clean_linker_0, # of connection points: 2
#     Edge 58, Type (0, 0), BuildingBlock: XIVTED_clean_linker_0, # of connection points: 2
#     Edge 59, Type (0, 0), BuildingBlock: XIVTED_clean_linker_0, # of connection points: 2
#     Edge 60, Type (0, 0), BuildingBlock: XIVTED_clean_linker_0, # of connection points: 2
#     Edge 61, Type (0, 0), BuildingBlock: XIVTED_clean_linker_0, # of connection points: 2
#     Edge 62, Type (0, 0), BuildingBlock: XIVTED_clean_linker_0, # of connection points: 2
#     Edge 63, Type (0, 0), BuildingBlock: XIVTED_clean_linker_0, # of connection points: 2
# Relax obj value: 0.154
# Max RMSD: 0.222
# Mean RMSD: 0.190
data_MOF--net-crs--node1-CUKXOW_clean_sbu_0--edge1-XIVTED_clean_linker_0
_symmetry_space_group_name_H-M    P1
_symmetry_Int_Tables_number       1
_symmetry_cell_setting            triclinic
loop_
_symmetry_equiv_pos_as_xyz
'x, y, z'
_cell_length_a     38.217072
_cell_length_b     44.311012
_cell_length_c     48.14291
_cell_angle_alpha  95.532969
_cell_angle_beta   94.279059
_cell_angle_gamma 93.270395
loop_
_atom_site_label
_atom_site_type_symbol
_atom_site_fract_x
_atom_site_fract_y
_atom_site_fract_z
_atom_type_partial_charge
Tb0 Tb 0.01709 0.99277 0.97969 0.0
C1 C 0.03553 0.00335 0.0434 0.0
Tb2 Tb 0.98041 0.04243 0.01139 0.0
O3 O 0.0675 0.01907 0.98898 0.0
O4 O 0.02073 0.04092 0.98375 0.0
O5 O 0.03543 0.98321 0.0212 0.0
C6 C 0.96479 0.09061 0.04472 0.0
O7 O 0.0187 0.02877 0.04315 0.0
C8 C 0.9438 0.99031 0.00084 0.0
C9 C 0.96086 0.03092 0.9481 0.0
O10 O 0.94882 0.06382 0.04268 0.0
O11 O 0.98964 0.09046 0.02775 0.0
O12 O 0.92996 0.01645 0.00252 0.0
O13 O 0.97647 0.9942 0.00726 0.0
O14 O 0.96293 0.05203 0.96967 0.0
O15 O 0.97677 0.00511 0.94886 0.0
C16 C 0.03219 0.94529 0.9452 0.0
O17 O 0.046 0.97277 0.94589 0.0
O18 O 0.01007 0.94433 0.96433 0.0
C19 C 0.05326 0.04502 -0.00957 0.0
Tb20 Tb 0.98551 0.25883 0.26856 0.0
C21 C 0.05894 0.23757 0.25623 0.0
Tb22 Tb 0.02228 0.2889 0.22483 0.0
O23 O 0.97503 0.21634 0.24206 0.0
O24 O 0.97835 0.25749 0.22419 0.0
O25 O 0.03659 0.24082 0.27589 0.0
C26 C 0.05864 0.29907 0.18136 0.0
O27 O 0.05648 0.25248 0.23364 0.0
C28 C 0.03234 0.31709 0.27545 0.0
C29 C 0.9471 0.30804 0.23502 0.0
O30 O 0.04343 0.27329 0.18568 0.0
O31 O 0.05263 0.3195 0.20122 0.0
O32 O 0.03263 0.33086 0.25292 0.0
O33 O 0.03006 0.28894 0.26885 0.0
O34 O 0.97095 0.30619 0.21636 0.0
O35 O 0.94936 0.29335 0.25781 0.0
C36 C 0.95377 0.24893 0.31424 0.0
O37 O 0.96622 0.27514 0.30829 0.0
O38 O 0.95909 0.22821 0.29443 0.0
C39 C 0.97637 0.22899 0.21896 0.0
Tb40 Tb 0.7242 0.29197 0.47799 0.0
C41 C 0.70858 0.29041 0.54164 0.0
Tb42 Tb 0.75821 0.24588 0.51228 0.0
O43 O 0.69048 0.25608 0.45324 0.0
O44 O 0.70702 0.25187 0.49499 0.0
O45 O 0.70766 0.3059 0.5194 0.0
C46 C 0.77821 0.19569 0.5337 0.0
O47 O 0.72367 0.26423 0.54249 0.0
C48 C 0.79146 0.2997 0.5168 0.0
C49 C 0.7738 0.24771 0.44863 0.0
O50 O 0.74868 0.19807 0.51923 0.0
O51 O 0.79637 0.22154 0.53614 0.0
O52 O 0.79147 0.28209 0.53684 0.0
O53 O 0.77562 0.28574 0.49501 0.0
O54 O 0.77363 0.2314 0.47037 0.0
O55 O 0.7596 0.27431 0.44859 0.0
C56 C 0.70788 0.34374 0.45766 0.0
O57 O 0.73524 0.34031 0.47437 0.0
O58 O 0.6896 0.31796 0.45233 0.0
C59 C 0.69127 0.23814 0.47306 0.0
Tb60 Tb 0.77212 0.04275 0.7274 0.0
C61 C 0.78236 0.97315 0.73643 0.0
Tb62 Tb 0.7314 0.01201 0.77111 0.0
O63 O 0.80708 0.06879 0.76037 0.0
O64 O 0.78394 0.02648 0.76637 0.0
O65 O 0.78667 0.99551 0.72013 0.0
C66 C 0.70918 0.99422 0.81841 0.0
O67 O 0.76531 0.97614 0.75949 0.0
C68 C 0.70346 0.00447 0.71974 0.0
C69 C 0.71986 0.08082 0.76177 0.0
O70 O 0.69245 0.98853 0.79383 0.0
O71 O 0.73823 0.01019 0.81633 0.0
O72 O 0.69891 0.98447 0.7374 0.0
O73 O 0.71992 0.02787 0.73199 0.0
O74 O 0.71757 0.05917 0.77896 0.0
O75 O 0.73597 0.07739 0.73821 0.0
C76 C 0.79428 0.05885 0.67939 0.0
O77 O 0.80615 0.07085 0.70419 0.0
O78 O 0.77022 0.03765 0.6817 0.0
C79 C 0.8016 0.04941 0.7784 0.0
Tb80 Tb 0.49737 0.76107 0.26895 0.0
C81 C 0.57716 0.74972 0.26509 0.0
Tb82 Tb 0.53689 0.79734 0.23153 0.0
O83 O 0.46464 0.73907 0.23226 0.0
O84 O 0.51707 0.75172 0.22898 0.0
O85 O 0.54844 0.74389 0.27793 0.0
C86 C 0.57369 0.81845 0.19224 0.0
O87 O 0.57834 0.76889 0.24554 0.0
C88 C 0.52486 0.82847 0.27847 0.0
C89 C 0.457 0.80637 0.23633 0.0
O90 O 0.58348 0.82132 0.21879 0.0
O91 O 0.54334 0.80333 0.18771 0.0
O92 O 0.52718 0.83992 0.25491 0.0
O93 O 0.53223 0.80094 0.27564 0.0
O94 O 0.48223 0.80559 0.21879 0.0
O95 O 0.46037 0.79439 0.26033 0.0
C96 C 0.46923 0.73544 0.31045 0.0
O97 O 0.48131 0.7635 0.31161 0.0
O98 O 0.47311 0.72174 0.28598 0.0
C99 C 0.48933 0.74043 0.2153 0.0
Tb100 Tb 0.24512 0.77978 0.47366 0.0
C101 C 0.22464 0.77881 0.5366 0.0
Tb102 Tb 0.27813 0.73571 0.51079 0.0
O103 O 0.21183 0.74306 0.44965 0.0
O104 O 0.22744 0.74072 0.49179 0.0
O105 O 0.22562 0.79437 0.51436 0.0
C106 C 0.29555 0.68578 0.53354 0.0
O107 O 0.24029 0.75305 0.53825 0.0
C108 C 0.30992 0.78992 0.51448 0.0
C109 C 0.29714 0.73481 0.44771 0.0
O110 O 0.3128 0.71207 0.53831 0.0
O111 O 0.26849 0.68764 0.51603 0.0
O112 O 0.30979 0.77328 0.53527 0.0
O113 O 0.29553 0.77484 0.49275 0.0
O114 O 0.29687 0.72032 0.47054 0.0
O115 O 0.28152 0.76056 0.4452 0.0
C116 C 0.22898 0.83117 0.4528 0.0
O117 O 0.25567 0.82817 0.47027 0.0
O118 O 0.21136 0.80514 0.44684 0.0
C119 C 0.21202 0.72605 0.47021 0.0
Tb120 Tb 0.26899 0.52791 0.72738 0.0
C121 C 0.27819 0.46049 0.73747 0.0
Tb122 Tb 0.23258 0.50406 0.77553 0.0
O123 O 0.3201 0.52518 0.75011 0.0
O124 O 0.27593 0.53472 0.77178 0.0
O125 O 0.27978 0.48079 0.71908 0.0
C126 C 0.22131 0.483 0.82431 0.0
O127 O 0.26356 0.46573 0.7616 0.0
C128 C 0.19346 0.50204 0.7284 0.0
C129 C 0.21906 0.56993 0.76195 0.0
O130 O 0.2004 0.47778 0.80163 0.0
O131 O 0.24845 0.49997 0.81947 0.0
O132 O 0.18092 0.50521 0.75282 0.0
O133 O 0.22567 0.49742 0.7314 0.0
O134 O 0.21886 0.55101 0.78172 0.0
O135 O 0.23453 0.56413 0.73837 0.0
C136 C 0.28546 0.5496 0.68011 0.0
O137 O 0.30217 0.55693 0.70448 0.0
O138 O 0.25925 0.53038 0.68239 0.0
C139 C 0.30799 0.5294 0.77457 0.0
Tb140 Tb 0.02533 0.48663 0.48235 0.0
C141 C 0.04628 0.50508 0.54709 0.0
Tb142 Tb 0.9872 0.53507 0.51269 0.0
O143 O 0.04853 0.51991 0.45746 0.0
O144 O 0.0382 0.5326 0.4987 0.0
O145 O 0.04717 0.4839 0.52562 0.0
C146 C 0.96152 0.58588 0.53504 0.0
O147 O 0.0276 0.52922 0.54541 0.0
C148 C 0.96335 0.47918 0.51756 0.0
C149 C 0.96563 0.51651 0.44824 0.0
O150 O 0.94632 0.55882 0.5334 0.0
O151 O 0.99104 0.58444 0.52345 0.0
O152 O 0.96345 0.50146 0.53712 0.0
O153 O 0.97426 0.48933 0.49602 0.0
O154 O 0.96516 0.53777 0.46964 0.0
O155 O 0.98441 0.4924 0.44982 0.0
C156 C 0.05037 0.43612 0.45864 0.0
O157 O 0.06605 0.46307 0.46125 0.0
O158 O 0.02097 0.43747 0.47041 0.0
C159 C 0.04868 0.54236 0.47681 0.0
Tb160 Tb 0.23846 0.28872 0.98717 0.0
C161 C 0.24231 0.28867 0.05299 0.0
Tb162 Tb 0.27316 0.23731 0.0142 0.0
O163 O 0.19201 0.25907 0.9719 0.0
O164 O 0.22149 0.25146 0.00851 0.0
O165 O 0.23937 0.30522 0.03148 0.0
C166 C 0.28582 0.18295 0.03054 0.0
O167 O 0.25066 0.25989 0.05006 0.0
C168 C 0.31518 0.28502 0.00955 0.0
C169 C 0.26672 0.23621 0.94822 0.0
O170 O 0.30492 0.20789 0.03842 0.0
O171 O 0.25981 0.18865 0.01345 0.0
O172 O 0.32025 0.2667 0.02872 0.0
O173 O 0.28999 0.27419 -0.00749 0.0
O174 O 0.27216 0.2206 0.9701 0.0
O175 O 0.25812 0.26492 0.95057 0.0
C176 C 0.22336 0.34171 0.96866 0.0
O177 O 0.20279 0.31714 0.96536 0.0
O178 O 0.25232 0.33652 0.98264 0.0
C179 C 0.19668 0.24068 -0.00896 0.0
Tb180 Tb 0.25296 0.01465 0.21335 0.0
C181 C 0.27066 0.9519 0.23154 0.0
Tb182 Tb 0.22124 0.99547 0.266 0.0
O183 O 0.30463 0.02011 0.23763 0.0
O184 O 0.25846 0.02861 0.25643 0.0
O185 O 0.26689 0.96806 0.20988 0.0
C186 C 0.21301 0.97947 0.31708 0.0
O187 O 0.25736 0.95969 0.25585 0.0
C188 C 0.18072 0.98386 0.22012 0.0
C189 C 0.20294 0.05832 0.24636 0.0
O190 O 0.1895 0.97513 0.296 0.0
O191 O 0.24129 0.9928 0.3094 0.0
O192 O 0.1689 0.98894 0.24462 0.0
O193 O 0.21361 0.98242 0.22253 0.0
O194 O 0.20569 0.04199 0.26809 0.0
O195 O 0.21689 0.05045 0.22238 0.0
C196 C 0.26678 0.03279 0.16395 0.0
O197 O 0.28868 0.03488 0.18602 0.0
O198 O 0.23684 0.02057 0.16966 0.0
C199 C 0.29089 0.02773 0.26091 0.0
Tb200 Tb 0.45227 0.2328 0.75483 0.0
C201 C 0.53171 0.22175 0.75291 0.0
Tb202 Tb 0.49624 0.27039 0.71763 0.0
O203 O 0.43416 0.19398 0.72381 0.0
O204 O 0.46537 0.22964 0.71344 0.0
O205 O 0.50438 0.21993 0.76832 0.0
C206 C 0.54068 0.29146 0.68344 0.0
O207 O 0.53174 0.23663 0.73024 0.0
C208 C 0.48474 0.2984 0.76661 0.0
C209 C 0.41681 0.28048 0.71765 0.0
O210 O 0.54637 0.2927 0.71039 0.0
O211 O 0.50993 0.27804 0.6755 0.0
O212 O 0.48857 0.31169 0.74407 0.0
O213 O 0.49007 0.27061 0.76146 0.0
O214 O 0.44443 0.2822 0.70268 0.0
O215 O 0.41606 0.2649 0.73976 0.0
C216 C 0.41109 0.22176 0.79474 0.0
O217 O 0.4141 0.24701 0.7834 0.0
O218 O 0.43257 0.20266 0.78448 0.0
C219 C 0.45053 0.20446 0.70375 0.0
Tb220 Tb 0.97234 0.74991 0.75864 0.0
C221 C 0.04812 0.73011 0.75089 0.0
Tb222 Tb 0.01264 0.78089 0.71743 0.0
O223 O 0.96912 0.70752 0.73144 0.0
O224 O 0.96908 0.74903 0.71433 0.0
O225 O 0.02192 0.72993 0.76744 0.0
C226 C 0.04619 0.79246 0.67284 0.0
O227 O 0.04871 0.74684 0.72945 0.0
C228 C 0.01572 0.81129 0.76678 0.0
C229 C 0.93939 0.80291 0.72831 0.0
O230 O 0.02699 0.76799 0.67524 0.0
O231 O 0.047 0.81046 0.69576 0.0
O232 O 0.01822 0.82375 0.74364 0.0
O233 O 0.0154 0.78274 0.7619 0.0
O234 O 0.96192 0.79895 0.70887 0.0
O235 O 0.94196 0.78916 0.75161 0.0
C236 C 0.93172 0.73178 0.79711 0.0
O237 O 0.92288 0.73022 0.77054 0.0
O238 O 0.96346 0.74411 0.80233 0.0
C239 C 0.96944 0.72074 0.70862 0.0
Tb240 Tb 0.77211 0.53332 0.2263 0.0
C241 C 0.77481 0.46483 0.23551 0.0
Tb242 Tb 0.73164 0.50835 0.27296 0.0
O243 O 0.82249 0.52435 0.24766 0.0
O244 O 0.77939 0.53421 0.27033 0.0
O245 O 0.77473 0.4846 0.21654 0.0
C246 C 0.71491 0.49331 0.32269 0.0
O247 O 0.76365 0.47118 0.26068 0.0
C248 C 0.70079 0.49837 0.22187 0.0
C249 C 0.72803 0.57796 0.26383 0.0
O250 O 0.74653 0.498 0.3153 0.0
O251 O 0.69227 0.49717 0.30197 0.0
O252 O 0.69577 0.48033 0.24117 0.0
O253 O 0.71955 0.52128 0.2326 0.0
O254 O 0.71943 0.55587 0.27946 0.0
O255 O 0.74715 0.57393 0.24191 0.0
C256 C 0.78889 0.55584 0.17965 0.0
O257 O 0.80194 0.56605 0.20473 0.0
O258 O 0.76652 0.53294 0.18088 0.0
C259 C 0.81042 0.52606 0.27223 0.0
Tb260 Tb 0.72612 0.78712 0.97051 0.0
C261 C 0.71558 0.79598 0.03562 0.0
Tb262 Tb 0.76146 0.74594 0.01026 0.0
O263 O 0.69182 0.74884 0.95039 0.0
O264 O 0.70987 0.75062 -0.00721 0.0
O265 O 0.71389 0.80798 0.01137 0.0
C266 C 0.77836 0.69781 0.03611 0.0
O267 O 0.72932 0.76967 0.03918 0.0
C268 C 0.79439 0.79889 0.00879 0.0
C269 C 0.77398 0.73798 0.94542 0.0
O270 O 0.79752 0.72307 0.03729 0.0
O271 O 0.74955 0.69967 0.02052 0.0
O272 O 0.79794 0.78298 0.03 0.0
O273 O 0.77732 0.78291 0.98863 0.0
O274 O 0.77716 0.72668 0.96996 0.0
O275 O 0.7574 0.76285 0.94121 0.0
C276 C 0.71136 0.8359 0.94482 0.0
O277 O 0.7424 0.82898 0.95366 0.0
O278 O 0.68819 0.8149 0.94982 0.0
C279 C 0.69333 0.73426 0.97261 0.0
Tb280 Tb 0.52723 0.00473 0.51042 0.0
C281 C 0.51 0.97742 0.44706 0.0
Tb282 Tb 0.46675 0.02707 0.47706 0.0
O283 O 0.49108 0.98397 0.5372 0.0
O284 O 0.4763 0.98643 0.49507 0.0
O285 O 0.53402 0.98156 0.46874 0.0
C286 C 0.40448 0.03651 0.45176 0.0
O287 O 0.48007 0.99102 0.44693 0.0
C288 C 0.5285 0.05355 0.47009 0.0
C289 C 0.48406 0.05516 0.53974 0.0
O290 O 0.43105 0.05639 0.45654 0.0
O291 O 0.41275 0.01186 0.46238 0.0
O292 O 0.50271 0.04915 0.45073 0.0
O293 O 0.51774 0.04525 0.49237 0.0
O294 O 0.45913 0.04879 0.51887 0.0
O295 O 0.515 0.04294 0.53947 0.0
C296 C 0.58889 0.99032 0.53332 0.0
O297 O 0.55973 0.97364 0.53151 0.0
O298 O 0.58334 0.01522 0.52204 0.0
C299 C 0.46567 0.97857 0.5176 0.0
Tb300 Tb 0.5223 0.48358 0.98041 0.0
C301 C 0.55423 0.50123 0.04071 0.0
Tb302 Tb 0.4901 0.53538 0.01447 0.0
O303 O 0.57219 0.50983 0.97958 0.0
O304 O 0.5254 0.53194 0.98253 0.0
O305 O 0.54757 0.47769 0.02139 0.0
C306 C 0.48103 0.58243 0.05208 0.0
O307 O 0.53901 0.5273 0.03882 0.0
C308 C 0.45505 0.48242 0.01028 0.0
C309 C 0.46166 0.52093 0.95195 0.0
O310 O 0.48436 0.55458 0.05727 0.0
O311 O 0.48208 0.58399 0.02531 0.0
O312 O 0.44022 0.50803 0.01326 0.0
O313 O 0.48786 0.48747 0.01265 0.0
O314 O 0.4636 0.54184 0.97387 0.0
O315 O 0.47993 0.49628 0.95158 0.0
C316 C 0.52771 0.4329 0.94606 0.0
O317 O 0.54792 0.45763 0.94756 0.0
O318 O 0.50506 0.43631 0.96474 0.0
C319 C 0.55852 0.53593 0.98374 0.0
H320 H 0.91966 0.0889 0.08535 0.0
H321 H 0.98068 0.25024 0.16731 0.0
H322 H -0.00199 0.14767 0.05373 0.0
H323 H 0.95669 0.16935 0.2073 0.0
H324 H 0.9733 0.21948 0.12149 0.0
H325 H 0.91745 0.12606 0.12596 0.0
C326 C 0.93596 0.1099 0.08673 0.0
C327 C 0.95941 0.11516 0.06646 0.0
C328 C 0.96953 0.20871 0.1404 0.0
C329 C 0.95692 0.15761 0.11271 0.0
C330 C 0.97388 0.22611 0.16643 0.0
C331 C 0.96996 0.21212 0.19104 0.0
C332 C 0.96013 0.1775 0.13923 0.0
C333 C 0.9603 0.18096 0.18884 0.0
C334 C 0.93475 0.13099 0.10992 0.0
C335 C 0.97981 0.14278 0.06914 0.0
N336 N 0.95562 0.16472 0.16339 0.0
N337 N 0.97834 0.16303 0.0921 0.0
H338 H 0.82011 0.20231 0.44487 0.0
H339 H 0.93095 0.29288 0.3499 0.0
H340 H 0.77803 0.27418 0.40039 0.0
H341 H 0.92479 0.1956 0.32925 0.0
H342 H 0.8848 0.28685 0.3817 0.0
H343 H 0.86626 0.19815 0.41192 0.0
C344 C 0.82004 0.21668 0.4279 0.0
C345 C 0.79578 0.23918 0.42574 0.0
C346 C 0.89393 0.26685 0.37038 0.0
C347 C 0.84829 0.23491 0.3891 0.0
C348 C 0.92029 0.27021 0.35247 0.0
C349 C 0.9311 0.2447 0.33681 0.0
C350 C 0.8788 0.2378 0.37286 0.0
C351 C 0.91669 0.21577 0.34093 0.0
C352 C 0.84635 0.21431 0.40931 0.0
C353 C 0.79669 0.25705 0.40329 0.0
N354 N 0.89088 0.21299 0.35865 0.0
N355 N 0.8231 0.25501 0.38621 0.0
H356 H 0.84422 0.10285 0.67158 0.0
H357 H 0.74079 0.14121 0.53248 0.0
H358 H 0.75934 0.04445 0.62801 0.0
H359 H 0.8362 0.19088 0.56892 0.0
H360 H 0.75197 0.10133 0.56319 0.0
H361 H 0.84731 0.1309 0.63046 0.0
C362 C 0.8267 0.09561 0.6531 0.0
C363 C 0.80117 0.0717 0.6532 0.0
C364 C 0.77081 0.12068 0.56415 0.0
C365 C 0.80396 0.10391 0.60639 0.0
C366 C 0.7644 0.14342 0.54665 0.0
C367 C 0.78736 0.16946 0.54858 0.0
C368 C 0.80015 0.12431 0.58389 0.0
C369 C 0.81766 0.17125 0.56708 0.0
C370 C 0.8284 0.11162 0.62964 0.0
C371 C 0.77919 0.06301 0.62877 0.0
N372 N 0.82291 0.14919 0.58435 0.0
N373 N 0.78064 0.07949 0.60648 0.0
H374 H 0.93513 0.98732 0.907 0.0
H375 H 0.84179 0.09641 0.80809 0.0
H376 H 0.93458 0.08356 0.93214 0.0
H377 H 0.80909 1.00167 0.80899 0.0
H378 H 0.88085 0.09342 0.85061 0.0
H379 H 0.89481 0.9933 0.86672 0.0
C380 C 0.92673 0.00979 0.90394 0.0
C381 C 0.93815 0.03501 0.92293 0.0
C382 C 0.86477 0.07347 0.84156 0.0
C383 C 0.89188 0.04191 0.87692 0.0
C384 C 0.84262 0.07514 0.81742 0.0
C385 C 0.82242 0.04923 0.80516 0.0
C386 C 0.86692 0.04557 0.85292 0.0
C387 C 0.82423 0.02219 0.81787 0.0
C388 C 0.90348 0.01312 0.88106 0.0
C389 C 0.92621 0.06354 0.918 0.0
N390 N 0.84641 0.02098 0.84093 0.0
N391 N 0.90371 0.06629 0.89529 0.0
H392 H 0.02677 0.02859 0.09592 0.0
H393 H 0.19771 0.96507 0.16727 0.0
H394 H 0.08923 0.96571 0.05026 0.0
H395 H 0.11436 1.00129 0.21345 0.0
H396 H 0.16099 0.96736 0.12348 0.0
H397 H 0.06141 0.02134 0.13896 0.0
C398 C 0.04775 0.01318 0.09498 0.0
C399 C 0.05525 0.99776 0.06955 0.0
C400 C 0.15074 0.97456 0.14325 0.0
C401 C 0.09509 0.98948 0.11867 0.0
C402 C 0.17167 0.97341 0.1681 0.0
C403 C 0.15898 0.98329 0.19375 0.0
C404 C 0.11723 0.98588 0.14434 0.0
C405 C 0.12505 0.99355 0.19399 0.0
C406 C 0.06742 0.00894 0.11957 0.0
C407 C 0.08257 0.97791 0.06953 0.0
N408 N 0.10542 0.99482 0.16961 0.0
N409 N 0.10181 0.97451 0.09378 0.0
H410 H 0.01709 0.37948 0.44696 0.0
H411 H 0.05256 0.37646 0.29101 0.0
H412 H 0.09917 0.43865 0.42065 0.0
H413 H 0.03229 0.29099 0.32471 0.0
H414 H 0.0653 0.40105 0.33869 0.0
H415 H 0.01888 0.3463 0.40321 0.0
C416 C 0.03617 0.38497 0.43237 0.0
C417 C 0.05777 0.41192 0.43718 0.0
C418 C 0.05829 0.37686 0.3356 0.0
C419 C 0.05907 0.37494 0.38717 0.0
C420 C 0.05077 0.3629 0.30847 0.0
C421 C 0.04083 0.33181 0.30405 0.0
C422 C 0.05503 0.35972 0.35841 0.0
C423 C 0.03917 0.31518 0.32735 0.0
C424 C 0.03708 0.36615 0.40745 0.0
C425 C 0.08192 0.41816 0.41762 0.0
N426 N 0.04561 0.32946 0.35369 0.0
N427 N 0.08131 0.40021 0.39309 0.0
H428 H 0.65188 0.32491 0.5398 0.0
H429 H 0.6104 0.30458 0.69665 0.0
H430 H 0.71865 0.27895 0.59617 0.0
H431 H 0.53005 0.29953 0.62815 0.0
H432 H 0.6551 0.31375 0.66397 0.0
H433 H 0.61229 0.33434 0.57694 0.0
C434 C 0.65862 0.31743 0.56018 0.0
C435 C 0.68817 0.3007 0.56494 0.0
C436 C 0.6276 0.31116 0.65629 0.0
C437 C 0.6435 0.31168 0.60715 0.0
C438 C 0.60219 0.30597 0.6748 0.0
C439 C 0.56677 0.30088 0.66479 0.0
C440 C 0.61725 0.31174 0.62783 0.0
C441 C 0.55726 0.30297 0.63645 0.0
C442 C 0.63601 0.32273 0.58122 0.0
C443 C 0.69576 0.2915 0.59163 0.0
N444 N 0.58251 0.3081 0.61879 0.0
N445 N 0.67334 0.29695 0.6118 0.0
H446 H 0.74614 0.99995 0.8693 0.0
H447 H 0.65134 0.84914 0.9147 0.0
H448 H 0.65457 0.95308 0.8232 0.0
H449 H 0.7558 0.88553 0.94501 0.0
H450 H 0.64372 0.8941 0.88912 0.0
H451 H 0.74046 0.96596 0.90596 0.0
C452 C 0.72437 0.9829 0.86723 0.0
C453 C 0.70114 0.97885 0.84308 0.0
C454 C 0.66809 0.89234 0.90169 0.0
C455 C 0.69483 0.93966 0.88454 0.0
C456 C 0.67242 0.86677 0.9162 0.0
C457 C 0.70442 0.86357 0.93146 0.0
C458 C 0.69588 0.91475 0.90285 0.0
C459 C 0.73091 0.88699 0.93303 0.0
C460 C 0.72123 0.96342 0.88806 0.0
C461 C 0.67325 0.95662 0.84144 0.0
N462 N 0.72613 0.91151 0.91874 0.0
N463 N 0.67117 0.93743 0.86172 0.0
H464 H 0.20903 0.34137 0.0643 0.0
H465 H 0.08556 0.25358 0.1502 0.0
H466 H 0.23963 0.26043 0.10069 0.0
H467 H 0.09525 0.35095 0.17019 0.0
H468 H 0.13813 0.25692 0.12477 0.0
H469 H 0.16632 0.34864 0.09945 0.0
C470 C 0.20763 0.32567 0.08015 0.0
C471 C 0.22692 0.29956 0.07894 0.0
C472 C 0.12873 0.27755 0.13476 0.0
C473 C 0.17811 0.30757 0.11837 0.0
C474 C 0.09851 0.27573 0.14886 0.0
C475 C 0.08631 0.30204 0.16225 0.0
C476 C 0.14643 0.30592 0.13361 0.0
C477 C 0.10407 0.3302 0.16 0.0
C478 C 0.18321 0.32986 0.10009 0.0
C479 C 0.22449 0.28033 0.10027 0.0
N480 N 0.1334 0.33151 0.1457 0.0
N481 N 0.19963 0.2842 0.11865 0.0
H482 H 0.758 0.49442 0.37005 0.0
H483 H 0.65366 0.35304 0.41978 0.0
H484 H 0.65483 0.46142 0.33353 0.0
H485 H 0.74809 0.39694 0.46404 0.0
H486 H 0.64897 0.39634 0.39199 0.0
H487 H 0.7504 0.46366 0.40878 0.0
C488 C 0.73342 0.48109 0.37055 0.0
C489 C 0.70714 0.48008 0.34854 0.0
C490 C 0.67038 0.39676 0.40811 0.0
C491 C 0.69853 0.44421 0.39234 0.0
C492 C 0.67306 0.37205 0.42392 0.0
C493 C 0.70157 0.37134 0.44386 0.0
C494 C 0.69664 0.42065 0.41215 0.0
C495 C 0.7259 0.39652 0.44861 0.0
C496 C 0.72908 0.46348 0.39262 0.0
C497 C 0.67574 0.46264 0.35014 0.0
N498 N 0.72316 0.41996 0.43258 0.0
N499 N 0.67255 0.44484 0.37142 0.0
H500 H 0.6015 0.94069 0.56067 0.0
H501 H 0.70083 0.0477 0.68376 0.0
H502 H 0.64343 0.03132 0.55151 0.0
H503 H 0.68382 0.95117 0.68757 0.0
H504 H 0.6855 0.04039 0.63347 0.0
H505 H 0.63897 0.94099 0.60405 0.0
C506 C 0.61947 0.96028 0.56739 0.0
C507 C 0.61889 0.98633 0.55307 0.0
C508 C 0.68551 0.02069 0.64514 0.0
C509 C 0.66089 0.98717 0.60276 0.0
C510 C 0.69405 0.02489 0.67386 0.0
C511 C 0.69362 0.99996 0.68961 0.0
C512 C 0.67551 0.99139 0.63221 0.0
C513 C 0.68426 0.97095 0.67601 0.0
C514 C 0.64071 0.96051 0.5922 0.0
C515 C 0.64277 0.01099 0.56232 0.0
N516 N 0.6752 0.96746 0.648 0.0
N517 N 0.66226 0.01112 0.58705 0.0
H518 H -0.00017 0.88783 0.93729 0.0
H519 H 0.03488 0.87106 0.77788 0.0
H520 H 0.07211 0.94846 0.90132 0.0
H521 H 0.00911 0.79112 0.81867 0.0
H522 H 0.04368 0.90067 0.82333 0.0
H523 H -0.0008 0.85194 0.89486 0.0
C524 C 0.01603 0.89328 0.9207 0.0
C525 C 0.03581 0.92117 0.92257 0.0
C526 C 0.03632 0.87661 0.82244 0.0
C527 C 0.03468 0.88087 0.87425 0.0
C528 C 0.03109 0.85971 0.79648 0.0
C529 C 0.02118 0.82862 0.79458 0.0
C530 C 0.03098 0.86251 0.84677 0.0
C531 C 0.01662 0.81509 0.81935 0.0
C532 C 0.01563 0.87288 0.89658 0.0
C533 C 0.0563 0.92728 0.9006 0.0
N534 N 0.0212 0.83224 0.84457 0.0
N535 N 0.05479 0.90751 0.87718 0.0
H536 H 0.12008 0.05867 0.01405 0.0
H537 H 0.14079 0.21796 0.95556 0.0
H538 H 0.03147 0.09889 0.9748 0.0
H539 H 0.19994 0.20131 0.03182 0.0
H540 H 0.10402 0.17142 0.9581 0.0
H541 H 0.15397 0.1079 0.01699 0.0
C542 C 0.10777 0.07792 0.00619 0.0
C543 C 0.07308 0.07483 -0.00595 0.0
C544 C 0.12505 0.17799 0.97428 0.0
C545 C 0.11163 0.13065 -0.0031 0.0
C546 C 0.1461 0.20445 0.97281 0.0
C547 C 0.17387 0.21314 -0.00678 0.0
C548 C 0.13223 0.15979 -0.00398 0.0
C549 C 0.17939 0.19495 0.01525 0.0
C550 C 0.12701 0.10592 0.00798 0.0
C551 C 0.05819 0.1004 0.98428 0.0
N552 N 0.15904 0.16882 0.01588 0.0
N553 N 0.07773 0.12717 0.98555 0.0
H554 H 0.68794 0.59667 0.30644 0.0
H555 H 0.63621 0.74508 0.23622 0.0
H556 H 0.73537 0.62781 0.23474 0.0
H557 H 0.58722 0.71238 0.30657 0.0
H558 H 0.68041 0.7078 0.24088 0.0
H559 H 0.65848 0.64401 0.31207 0.0
C560 C 0.69248 0.61355 0.29204 0.0
C561 C 0.71366 0.60796 0.26976 0.0
C562 C 0.66027 0.70909 0.25554 0.0
C563 C 0.67985 0.66218 0.27602 0.0
C564 C 0.63507 0.73045 0.25295 0.0
C565 C 0.60755 0.73145 0.27068 0.0
C566 C 0.65781 0.68858 0.27594 0.0
C567 C 0.60757 0.71205 0.29208 0.0
C568 C 0.67566 0.64063 0.29529 0.0
C569 C 0.7189 0.63089 0.252 0.0
N570 N 0.632 0.69115 0.29387 0.0
N571 N 0.70173 0.65682 0.2553 0.0
H572 H 0.32482 0.82104 0.47013 0.0
H573 H 0.44477 0.95234 0.56322 0.0
H574 H 0.33875 0.82663 0.56023 0.0
H575 H 0.42182 0.95097 0.47399 0.0
H576 H 0.40298 0.90835 0.56317 0.0
H577 H 0.35756 0.87022 0.47149 0.0
C578 C 0.33447 0.83283 0.49024 0.0
C579 C 0.3289 0.81993 0.51513 0.0
C580 C 0.40676 0.91787 0.54365 0.0
C581 C 0.36702 0.87595 0.51687 0.0
C582 C 0.43054 0.94303 0.54369 0.0
C583 C 0.43689 0.95514 0.51856 0.0
C584 C 0.38944 0.90464 0.51823 0.0
C585 C 0.41773 0.94228 0.49384 0.0
C586 C 0.35326 0.86087 0.49101 0.0
C587 C 0.34252 0.83585 0.54057 0.0
N588 N 0.39515 0.91754 0.49426 0.0
N589 N 0.36112 0.86299 0.54079 0.0
H590 H 0.10702 0.72476 0.72222 0.0
H591 H 0.17392 0.58604 0.80188 0.0
H592 H 0.05635 0.69075 0.79126 0.0
H593 H 0.21853 0.61669 0.72886 0.0
H594 H 0.1358 0.62858 0.8026 0.0
H595 H 0.15288 0.68951 0.72855 0.0
C596 C 0.10561 0.71004 0.73886 0.0
C597 C 0.07752 0.71054 0.75605 0.0
C598 C 0.15419 0.62612 0.7866 0.0
C599 C 0.13007 0.66994 0.76336 0.0
C600 C 0.17607 0.60191 0.78623 0.0
C601 C 0.1992 0.59757 0.76509 0.0
C602 C 0.15552 0.64612 0.7657 0.0
C603 C 0.20084 0.61889 0.74539 0.0
C604 C 0.13187 0.68988 0.74246 0.0
C605 C 0.07734 0.69102 0.77737 0.0
N606 N 0.17911 0.64206 0.74606 0.0
N607 N 0.10307 0.67134 0.78029 0.0
H608 H 0.82724 0.33173 0.56217 0.0
H609 H 0.94014 0.43866 0.47246 0.0
H610 H 0.81177 0.32864 0.47226 0.0
H611 H 0.93525 0.4557 0.56177 0.0
H612 H 0.89796 0.39473 0.47201 0.0
H613 H 0.87087 0.3744 0.56249 0.0
C614 C 0.83293 0.34019 0.54251 0.0
C615 C 0.8159 0.32675 0.51717 0.0
C616 C 0.90623 0.40803 0.49171 0.0
C617 C 0.86607 0.37526 0.51729 0.0
C618 C 0.93045 0.43294 0.492 0.0
C619 C 0.94101 0.45084 0.5172 0.0
C620 C 0.89278 0.40086 0.51682 0.0
C621 C 0.92764 0.44252 0.5419 0.0
C622 C 0.85785 0.3645 0.54268 0.0
C623 C 0.82424 0.3385 0.49226 0.0
N624 N 0.90419 0.41816 0.5411 0.0
N625 N 0.84891 0.36201 0.49292 0.0
H626 H 0.28095 0.90963 0.26878 0.0
H627 H 0.44248 0.84293 0.19432 0.0
H628 H 0.30926 0.93361 0.18812 0.0
H629 H 0.39843 0.80637 0.26505 0.0
H630 H 0.39184 0.87414 0.18955 0.0
H631 H 0.3219 0.86943 0.26607 0.0
C632 C 0.29546 0.90624 0.25036 0.0
C633 C 0.29191 0.9252 0.22879 0.0
C634 C 0.39314 0.85896 0.20587 0.0
C635 C 0.33913 0.87946 0.22566 0.0
C636 C 0.42201 0.84116 0.20858 0.0
C637 C 0.42498 0.82243 0.23038 0.0
C638 C 0.36738 0.85803 0.22523 0.0
C639 C 0.3976 0.82088 0.24821 0.0
C640 C 0.31884 0.88324 0.24879 0.0
C641 C 0.31129 0.91964 0.20535 0.0
N642 N 0.3702 0.83871 0.24543 0.0
N643 N 0.33443 0.89751 0.20457 0.0
H644 H 0.31363 0.44325 0.69189 0.0
H645 H 0.35544 0.28251 0.74333 0.0
H646 H 0.27596 0.41001 0.76643 0.0
H647 H 0.41269 0.32517 0.68194 0.0
H648 H 0.31568 0.32355 0.74419 0.0
H649 H 0.34027 0.39526 0.68134 0.0
C650 C 0.31074 0.42582 0.706 0.0
C651 C 0.29285 0.43085 0.73032 0.0
C652 C 0.33663 0.32369 0.73024 0.0
C653 C 0.32321 0.37572 0.71814 0.0
C654 C 0.35931 0.30017 0.72959 0.0
C655 C 0.38798 0.30071 0.71294 0.0
C656 C 0.34258 0.34788 0.71409 0.0
C657 C 0.39123 0.32398 0.69533 0.0
C658 C 0.32596 0.39839 0.69989 0.0
C659 C 0.28981 0.40728 0.74763 0.0
N660 N 0.3691 0.34692 0.69667 0.0
N661 N 0.30504 0.38077 0.74128 0.0
H662 H 0.19262 0.83263 0.54692 0.0
H663 H 0.04817 0.75387 0.62618 0.0
H664 H 0.20019 0.74291 0.57421 0.0
H665 H 0.09297 0.84011 0.6666 0.0
H666 H 0.09144 0.7558 0.59147 0.0
H667 H 0.1456 0.84151 0.57876 0.0
C668 C 0.18474 0.81503 0.55973 0.0
C669 C 0.20018 0.78695 0.55785 0.0
C670 C 0.09124 0.77455 0.60767 0.0
C671 C 0.14657 0.79662 0.59296 0.0
C672 C 0.0667 0.77349 0.6274 0.0
C673 C 0.06766 0.7966 0.64943 0.0
C674 C 0.11657 0.79894 0.60994 0.0
C675 C 0.09188 0.82172 0.64997 0.0
C676 C 0.15807 0.82013 0.57771 0.0
C677 C 0.18913 0.76489 0.57489 0.0
N678 N 0.11596 0.82213 0.63055 0.0
N679 N 0.16261 0.77004 0.59139 0.0
H680 H 0.15622 0.94856 0.33381 0.0
H681 H 0.27011 0.88391 0.45761 0.0
H682 H 0.26358 0.97988 0.36027 0.0
H683 H 0.1723 0.84125 0.41806 0.0
H684 H 0.26185 0.92741 0.43059 0.0
H685 H 0.15547 0.91812 0.37347 0.0
C686 C 0.17942 0.94942 0.34831 0.0
C687 C 0.21022 0.96618 0.34362 0.0
C688 C 0.24196 0.90873 0.42814 0.0
C689 C 0.20972 0.9313 0.38866 0.0
C690 C 0.24664 0.88397 0.44353 0.0
C691 C 0.22206 0.85892 0.43961 0.0
C692 C 0.21247 0.90831 0.40885 0.0
C693 C 0.19203 0.86005 0.42133 0.0
C694 C 0.17902 0.93201 0.37087 0.0
C695 C 0.23947 0.96687 0.36308 0.0
N696 N 0.18823 0.88425 0.40639 0.0
N697 N 0.2387 0.94922 0.3846 0.0
H698 H 0.96606 0.74446 0.65781 0.0
H699 H 0.91077 0.58535 0.57146 0.0
H700 H 0.95624 0.66016 0.69545 0.0
H701 H 0.99276 0.64356 0.5437 0.0
H702 H 0.90672 0.62229 0.61206 0.0
H703 H 0.95783 0.71555 0.61119 0.0
C704 C 0.96241 0.71995 0.65627 0.0
C705 C 0.96289 0.70452 0.68042 0.0
C706 C 0.92493 0.62724 0.59664 0.0
C707 C 0.95126 0.67199 0.62775 0.0
C708 C 0.92715 0.60635 0.57345 0.0
C709 C 0.95253 0.61132 0.55455 0.0
C710 C 0.9478 0.65341 0.60061 0.0
C711 C 0.97309 0.63888 0.55805 0.0
C712 C 0.95733 0.70364 0.62979 0.0
C713 C 0.95656 0.67288 0.67735 0.0
N714 N 0.97058 0.65891 0.58097 0.0
N715 N 0.95086 0.65764 0.65147 0.0
H716 H 0.35775 0.70665 0.4557 0.0
H717 H 0.40983 0.69849 0.29949 0.0
H718 H 0.28951 0.73984 0.39146 0.0
H719 H 0.47688 0.74758 0.36693 0.0
H720 H 0.36541 0.68922 0.3327 0.0
H721 H 0.40121 0.6971 0.42149 0.0
C722 C 0.35151 0.71113 0.43422 0.0
C723 C 0.32026 0.72433 0.4263 0.0
C724 C 0.39034 0.7012 0.34018 0.0
C725 C 0.36916 0.71276 0.38743 0.0
C726 C 0.41564 0.70634 0.32146 0.0
C727 C 0.44673 0.72386 0.33075 0.0
C728 C 0.39704 0.71288 0.36826 0.0
C729 C 0.45305 0.73403 0.35918 0.0
C730 C 0.37628 0.70571 0.41488 0.0
C731 C 0.31352 0.72994 0.39833 0.0
N732 N 0.42825 0.72842 0.37708 0.0
N733 N 0.33798 0.72421 0.37977 0.0
H734 H 0.22133 0.03521 0.11777 0.0
H735 H 0.33953 0.16753 0.06571 0.0
H736 H 0.32752 0.06151 0.15175 0.0
H737 H 0.23921 0.13355 0.02402 0.0
H738 H 0.33944 0.12353 0.09265 0.0
H739 H 0.2306 0.06544 0.07867 0.0
C740 C 0.24678 0.04695 0.11669 0.0
C741 C 0.27354 0.04641 0.13811 0.0
C742 C 0.31769 0.12537 0.07727 0.0
C743 C 0.28426 0.08112 0.09387 0.0
C744 C 0.31779 0.15047 0.06192 0.0
C745 C 0.28913 0.15422 0.04301 0.0
C746 C 0.28843 0.10425 0.07395 0.0
C747 C 0.26168 0.1315 0.03864 0.0
C748 C 0.25209 0.06419 0.09441 0.0
C749 C 0.30608 0.06175 0.13577 0.0
N750 N 0.2617 0.10768 0.05439 0.0
N751 N 0.31038 0.07888 0.11425 0.0
H752 H 0.83545 0.70992 0.95009 0.0
H753 H 0.86276 0.71308 0.78797 0.0
H754 H 0.75757 0.73704 0.8894 0.0
H755 H 0.94738 0.72977 0.85316 0.0
H756 H 0.8219 0.70356 0.82336 0.0
H757 H 0.87393 0.69856 0.91244 0.0
C758 C 0.82608 0.71266 0.92874 0.0
C759 C 0.79364 0.72486 0.92273 0.0
C760 C 0.84952 0.70885 0.82981 0.0
C761 C 0.83714 0.71188 0.88 0.0
C762 C 0.87277 0.71432 0.80973 0.0
C763 C 0.9082 0.72275 0.8179 0.0
C764 C 0.86195 0.7116 0.85812 0.0
C765 C 0.92005 0.72376 0.84621 0.0
C766 C 0.84809 0.70636 0.90739 0.0
C767 C 0.78269 0.72811 0.89483 0.0
N768 N 0.89681 0.71851 0.86548 0.0
N769 N 0.80459 0.7219 0.87445 0.0
H770 H 0.24945 0.53886 0.62881 0.0
H771 H 0.34949 0.68018 0.5725 0.0
H772 H 0.33904 0.59056 0.67321 0.0
H773 H 0.25597 0.63235 0.53033 0.0
H774 H 0.35368 0.64058 0.60436 0.0
H775 H 0.25867 0.56603 0.5878 0.0
C776 C 0.27133 0.55569 0.62974 0.0
C777 C 0.29321 0.56296 0.6544 0.0
C778 C 0.33254 0.63847 0.58788 0.0
C779 C 0.30384 0.59409 0.60789 0.0
C780 C 0.33021 0.66101 0.56969 0.0
C781 C 0.30202 0.65963 0.54921 0.0
C782 C 0.30627 0.61465 0.58562 0.0
C783 C 0.27788 0.63432 0.54616 0.0
C784 C 0.27661 0.57116 0.60638 0.0
C785 C 0.32134 0.58466 0.6546 0.0
N786 N 0.28023 0.61299 0.56451 0.0
N787 N 0.32562 0.59976 0.63177 0.0
H788 H 0.33951 0.99199 0.28273 0.0
H789 H 0.38141 0.08576 0.42771 0.0
H790 H 0.27977 0.06967 0.30292 0.0
H791 H 0.36924 0.98786 0.42164 0.0
H792 H 0.35089 0.08431 0.38078 0.0
H793 H 0.3611 0.99401 0.33244 0.0
C794 C 0.33169 0.00981 0.29758 0.0
C795 C 0.30841 0.03095 0.28908 0.0
C796 C 0.35435 0.06327 0.3901 0.0
C797 C 0.33235 0.03328 0.34512 0.0
C798 C 0.3714 0.06409 0.41682 0.0
C799 C 0.37781 0.03691 0.42835 0.0
C800 C 0.34485 0.03507 0.3748 0.0
C801 C 0.36472 0.00933 0.41342 0.0
C802 C 0.34343 0.01068 0.3258 0.0
C803 C 0.29807 0.05322 0.30895 0.0
N804 N 0.34958 0.00904 0.38701 0.0
N805 N 0.31042 0.05405 0.33617 0.0
H806 H 0.77245 0.85433 -0.00154 0.0
H807 H 0.96726 0.93413 0.00856 0.0
H808 H 0.8657 0.80666 0.01458 0.0
H809 H 0.87319 0.97999 0.98947 0.0
H810 H 0.93115 0.88661 0.0089 0.0
H811 H 0.80924 0.90017 -0.00668 0.0
C812 C 0.80074 0.85342 0.00023 0.0
C813 C 0.81622 0.82664 0.00601 0.0
C814 C 0.91842 0.90703 0.00448 0.0
C815 C 0.8586 0.87913 0.00137 0.0
C816 C 0.93904 0.93409 0.00418 0.0
C817 C 0.92311 0.96096 -0.00092 0.0
C818 C 0.88165 0.90695 -0.0003 0.0
C819 C 0.88647 0.95977 -0.00635 0.0
C820 C 0.82178 0.87966 -0.0023 0.0
C821 C 0.85294 0.82696 0.00982 0.0
N822 N 0.86698 0.93326 -0.00577 0.0
N823 N 0.87296 0.85281 0.00738 0.0
H824 H 0.65837 0.20515 0.42676 0.0
H825 H 0.57507 0.07729 0.51357 0.0
H826 H 0.67844 0.20388 0.51596 0.0
H827 H 0.54848 0.08236 0.42556 0.0
H828 H 0.61861 0.11994 0.5137 0.0
H829 H 0.62295 0.15706 0.42488 0.0
C830 C 0.65548 0.1946 0.44592 0.0
C831 C 0.67134 0.20842 0.47154 0.0
C832 C 0.60351 0.11158 0.49428 0.0
C833 C 0.63089 0.15347 0.46961 0.0
C834 C 0.57877 0.08712 0.49417 0.0
C835 C 0.55801 0.07644 0.46954 0.0
C836 C 0.60748 0.12551 0.46959 0.0
C837 C 0.56383 0.09004 0.44502 0.0
C838 C 0.63531 0.16715 0.44484 0.0
C839 C 0.66687 0.19383 0.49574 0.0
N840 N 0.58783 0.11403 0.44571 0.0
N841 N 0.64694 0.16721 0.4942 0.0
H842 H 0.77304 0.41575 0.26566 0.0
H843 H 0.93358 0.34403 0.19263 0.0
H844 H 0.81569 0.44855 0.19276 0.0
H845 H 0.89082 0.31359 0.26646 0.0
H846 H 0.88503 0.37725 0.18773 0.0
H847 H 0.80964 0.37265 0.26118 0.0
C848 C 0.78976 0.41368 0.24846 0.0
C849 C 0.79179 0.43607 0.22985 0.0
C850 C 0.88613 0.36305 0.20483 0.0
C851 C 0.83415 0.38693 0.22481 0.0
C852 C 0.91387 0.34412 0.20767 0.0
C853 C 0.91657 0.32634 0.23023 0.0
C854 C 0.86104 0.36421 0.22473 0.0
C855 C 0.89011 0.32718 0.24894 0.0
C856 C 0.81072 0.38904 0.24593 0.0
C857 C 0.81355 0.43196 0.20774 0.0
N858 N 0.86366 0.34601 0.2459 0.0
N859 N 0.83435 0.4081 0.20609 0.0
H860 H 0.07131 0.58474 0.52069 0.0
H861 H 0.17579 0.69222 0.42581 0.0
H862 H 0.07381 0.56542 0.43135 0.0
H863 H 0.1935 0.69834 0.51577 0.0
H864 H 0.13384 0.64858 0.42725 0.0
H865 H 0.11084 0.63006 0.51916 0.0
C866 C 0.07991 0.59023 0.50073 0.0
C867 C 0.0695 0.57131 0.47611 0.0
C868 C 0.14699 0.65941 0.44667 0.0
C869 C 0.11468 0.62286 0.47419 0.0
C870 C 0.17094 0.68426 0.44584 0.0
C871 C 0.18818 0.69876 0.47068 0.0
C872 C 0.13999 0.6492 0.47258 0.0
C873 C 0.1809 0.68765 0.49611 0.0
C874 C 0.10262 0.61595 0.49988 0.0
C875 C 0.0814 0.57938 0.45082 0.0
N876 N 0.15724 0.66359 0.49642 0.0
N877 N 0.1034 0.60452 0.4505 0.0
H878 H 0.72079 0.13142 0.73373 0.0
H879 H 0.5983 0.23812 0.74184 0.0
H880 H 0.67157 0.09124 0.80046 0.0
H881 H 0.53837 0.17203 0.7823 0.0
H882 H 0.65061 0.21062 0.75012 0.0
H883 H 0.67985 0.17104 0.7361 0.0
C884 C 0.70183 0.13134 0.74937 0.0
C885 C 0.69936 0.10775 0.76667 0.0
C886 C 0.62606 0.20173 0.75687 0.0
C887 C 0.65244 0.15374 0.77006 0.0
C888 C 0.59618 0.21762 0.75235 0.0
C889 C 0.56384 0.20683 0.76077 0.0
C890 C 0.62339 0.17435 0.76924 0.0
C891 C 0.56277 0.18082 0.77514 0.0
C892 C 0.67851 0.15429 0.75096 0.0
C893 C 0.6743 0.1089 0.78658 0.0
N894 N 0.59208 0.16513 0.77855 0.0
N895 N 0.6514 0.13125 0.78741 0.0
H896 H 0.7542 0.54277 0.12807 0.0
H897 H 0.83516 0.69373 0.07278 0.0
H898 H 0.83568 0.60305 0.17403 0.0
H899 H 0.7396 0.64431 0.03625 0.0
H900 H 0.84429 0.65396 0.10394 0.0
H901 H 0.7574 0.57301 0.08829 0.0
C902 C 0.77319 0.56208 0.12955 0.0
C903 C 0.79443 0.57079 0.15434 0.0
C904 C 0.82155 0.65163 0.08888 0.0
C905 C 0.79809 0.6054 0.10925 0.0
C906 C 0.81637 0.67427 0.07111 0.0
C907 C 0.78636 0.67235 0.05232 0.0
C908 C 0.79649 0.62702 0.08777 0.0
C909 C 0.7629 0.64667 0.05074 0.0
C910 C 0.77493 0.57936 0.10693 0.0
C911 C 0.81864 0.59586 0.15529 0.0
N912 N 0.76827 0.62508 0.0685 0.0
N913 N 0.81959 0.61253 0.13312 0.0
H914 H 0.96947 0.48465 0.39727 0.0
H915 H 0.79651 0.54712 0.32537 0.0
H916 H 0.91039 0.55267 0.43973 0.0
H917 H 0.8733 0.50088 0.27894 0.0
H918 H 0.83417 0.54511 0.36867 0.0
H919 H 0.93108 0.48646 0.35476 0.0
C920 C 0.94844 0.50003 0.39767 0.0
C921 C 0.94318 0.51857 0.42215 0.0
C922 C 0.84274 0.53541 0.349 0.0
C923 C 0.89886 0.52056 0.37344 0.0
C924 C 0.82119 0.53635 0.32436 0.0
C925 C 0.83189 0.52407 0.29865 0.0
C926 C 0.87503 0.52186 0.34785 0.0
C927 C 0.8642 0.51066 0.29837 0.0
C928 C 0.92655 0.50108 0.37334 0.0
C929 C 0.91552 0.53809 0.42132 0.0
N930 N 0.88459 0.50983 0.32261 0.0
N931 N 0.89424 0.53846 0.39738 0.0
H932 H 0.21104 0.48052 0.67628 0.0
H933 H 0.03722 0.53421 0.59818 0.0
H934 H 0.12784 0.52151 0.71916 0.0
H935 H 0.10328 0.47089 0.55714 0.0
H936 H 0.07292 0.5326 0.64194 0.0
H937 H 0.17501 0.47973 0.63171 0.0
C938 C 0.18525 0.48946 0.67626 0.0
C939 C 0.17239 0.50127 0.70134 0.0
C940 C 0.07961 0.51893 0.62344 0.0
C941 C 0.13112 0.50032 0.65067 0.0
C942 C 0.05927 0.5199 0.59835 0.0
C943 C 0.06729 0.5027 0.57386 0.0
C944 C 0.10861 0.50091 0.6242 0.0
C945 C 0.09608 0.48443 0.57553 0.0
C946 C 0.16464 0.48881 0.65089 0.0
C947 C 0.1387 0.51221 0.70027 0.0
N948 N 0.11591 0.48418 0.60025 0.0
N949 N 0.11932 0.51161 0.67536 0.0
H950 H 0.64334 0.83596 0.19795 0.0
H951 H 0.65787 0.82938 0.03326 0.0
H952 H 0.55377 0.82086 0.13709 0.0
H953 H 0.7351 0.7965 0.09106 0.0
H954 H 0.62451 0.8464 0.07288 0.0
H955 H 0.68155 0.84187 0.15989 0.0
C956 C 0.63169 0.83457 0.17661 0.0
C957 C 0.59563 0.82734 0.17038 0.0
C958 C 0.64918 0.83607 0.0768 0.0
C959 C 0.63875 0.83438 0.12723 0.0
C960 C 0.6682 0.82645 0.05434 0.0
C961 C 0.6988 0.81108 0.05907 0.0
C962 C 0.66139 0.83071 0.10397 0.0
C963 C 0.71121 0.80779 0.08665 0.0
C964 C 0.65342 0.83794 0.15502 0.0
C965 C 0.58163 0.82595 0.14254 0.0
N966 N 0.69227 0.81733 0.10814 0.0
N967 N 0.60334 0.82912 0.12183 0.0
H968 H 0.66094 0.44972 0.19345 0.0
H969 H 0.5907 0.54798 0.07302 0.0
H970 H 0.69706 0.5425 0.18663 0.0
H971 H 0.57459 0.45024 0.06482 0.0
H972 H 0.62838 0.54576 0.11565 0.0
H973 H 0.62767 0.44859 0.14744 0.0
C974 C 0.66203 0.46972 0.18219 0.0
C975 C 0.68179 0.49621 0.19378 0.0
C976 C 0.61687 0.52471 0.10452 0.0
C977 C 0.64386 0.49519 0.14154 0.0
C978 C 0.59522 0.52596 0.08014 0.0
C979 C 0.57935 0.49925 0.06534 0.0
C980 C 0.62248 0.49655 0.11462 0.0
C981 C 0.58643 0.47138 0.07554 0.0
C982 C 0.64318 0.46905 0.15597 0.0
C983 C 0.68237 0.52153 0.17841 0.0
N984 N 0.60722 0.47074 0.09977 0.0
N985 N 0.66356 0.52044 0.15325 0.0
H986 H 0.48054 0.42945 0.02499 0.0
H987 H 0.31211 0.32254 0.96743 0.0
H988 H 0.38744 0.46682 0.98974 0.0
H989 H 0.37026 0.30972 0.04521 0.0
H990 H 0.34694 0.37065 0.96595 0.0
H991 H 0.44781 0.37976 0.02289 0.0
C992 C 0.4533 0.42707 0.0166 0.0
C993 C 0.43643 0.45215 0.00774 0.0
C994 C 0.35196 0.3572 0.98328 0.0
C995 C 0.39939 0.39566 0.00478 0.0
C996 C 0.33196 0.32998 0.98429 0.0
C997 C 0.33754 0.31274 0.00698 0.0
C998 C 0.37856 0.36651 0.00456 0.0
C999 C 0.36478 0.32261 0.02757 0.0
C1000 C 0.43472 0.39886 0.0155 0.0
C1001 C 0.40118 0.44799 -0.00299 0.0
N1002 N 0.38439 0.34884 0.02585 0.0
N1003 N 0.38378 0.42018 -0.00433 0.0
H1004 H 0.07233 0.20163 0.29853 0.0
H1005 H 0.19791 0.10083 0.20896 0.0
H1006 H 0.10765 0.22345 0.2192 0.0
H1007 H 0.16946 0.08194 0.29105 0.0
H1008 H 0.16848 0.14808 0.21415 0.0
H1009 H 0.11211 0.16043 0.29841 0.0
C1010 C 0.08875 0.19803 0.28127 0.0
C1011 C 0.08631 0.21571 0.25865 0.0
C1012 C 0.16884 0.1337 0.23111 0.0
C1013 C 0.13149 0.16852 0.25826 0.0
C1014 C 0.18552 0.10662 0.22811 0.0
C1015 C 0.18586 0.08726 0.2495 0.0
C1016 C 0.15216 0.14139 0.25559 0.0
C1017 C 0.16964 0.09609 0.27394 0.0
C1018 C 0.11141 0.17447 0.2812 0.0
C1019 C 0.10838 0.21018 0.23695 0.0
N1020 N 0.15321 0.12246 0.27624 0.0
N1021 N 0.12976 0.18683 0.23715 0.0
H1022 H 0.16508 0.35351 0.93653 0.0
H1023 H 0.26653 0.48868 0.87124 0.0
H1024 H 0.26904 0.39096 0.96708 0.0
H1025 H 0.16689 0.44529 0.83637 0.0
H1026 H 0.26284 0.45999 0.91199 0.0
H1027 H 0.16011 0.39399 0.90567 0.0
C1028 C 0.1866 0.37062 0.93707 0.0
C1029 C 0.21766 0.36881 0.95403 0.0
C1030 C 0.24155 0.45702 0.89561 0.0
C1031 C 0.21243 0.41483 0.91862 0.0
C1032 C 0.24364 0.47339 0.87239 0.0
C1033 C 0.21716 0.46895 0.85038 0.0
C1034 C 0.21281 0.43605 0.89668 0.0
C1035 C 0.188 0.44907 0.85286 0.0
C1036 C 0.18381 0.39366 0.9194 0.0
C1037 C 0.24472 0.39153 0.95411 0.0
N1038 N 0.18676 0.43308 0.87548 0.0
N1039 N 0.24168 0.41343 0.93634 0.0
H1040 H 0.24583 0.25284 0.89696 0.0
H1041 H 0.4063 0.17622 0.82946 0.0
H1042 H 0.30875 0.18928 0.93744 0.0
H1043 H 0.35264 0.25174 0.8004 0.0
H1044 H 0.3604 0.16908 0.86198 0.0
H1045 H 0.27255 0.23914 0.85353 0.0
C1046 C 0.26488 0.23563 0.89655 0.0
C1047 C 0.27606 0.22293 0.92092 0.0
C1048 C 0.35852 0.18687 0.84812 0.0
C1049 C 0.30727 0.20771 0.87171 0.0
C1050 C 0.38469 0.19102 0.82981 0.0
C1051 C 0.3835 0.21509 0.81303 0.0
C1052 C 0.33115 0.20678 0.84911 0.0
C1053 C 0.35491 0.23342 0.81365 0.0
C1054 C 0.28012 0.22779 0.87179 0.0
C1055 C 0.30002 0.2001 0.91915 0.0
N1056 N 0.33001 0.22902 0.83157 0.0
N1057 N 0.31563 0.19375 0.89506 0.0
H1058 H 0.46784 0.49367 0.89978 0.0
H1059 H 0.29275 0.55196 0.82736 0.0
H1060 H 0.40458 0.55623 0.94492 0.0
H1061 H 0.37267 0.5082 0.78259 0.0
H1062 H 0.33015 0.55179 0.8713 0.0
H1063 H 0.43036 0.49687 0.85744 0.0
C1064 C 0.446 0.50818 0.90083 0.0
C1065 C 0.43934 0.52465 0.92609 0.0
C1066 C 0.33945 0.54232 0.85182 0.0
C1067 C 0.39584 0.52835 0.87715 0.0
C1068 C 0.31807 0.54221 0.82683 0.0
C1069 C 0.32958 0.52981 0.8014 0.0
C1070 C 0.3724 0.52979 0.85126 0.0
C1071 C 0.36275 0.51792 0.80173 0.0
C1072 C 0.42459 0.51006 0.8765 0.0
C1073 C 0.41074 0.54323 0.92589 0.0
N1074 N 0.38285 0.51807 0.82622 0.0
N1075 N 0.38981 0.54443 0.9018 0.0
H1076 H 0.67674 0.68871 0.93094 0.0
H1077 H 0.54653 0.59103 0.01097 0.0
H1078 H 0.66723 0.71284 0.01884 0.0
H1079 H 0.61553 0.54747 0.95506 0.0
H1080 H 0.58057 0.63969 0.00935 0.0
H1081 H 0.64432 0.63984 0.9343 0.0
C1082 C 0.66774 0.68368 0.9509 0.0
C1083 C 0.67462 0.70464 0.97466 0.0
C1084 C 0.58812 0.6194 -0.00253 0.0
C1085 C 0.63699 0.64948 0.97845 0.0
C1086 C 0.56861 0.59182 -0.00179 0.0
C1087 C 0.57819 0.56541 0.98301 0.0
C1088 C 0.61664 0.62055 0.98074 0.0
C1089 C 0.60737 0.5674 0.96709 0.0
C1090 C 0.64941 0.65588 0.95281 0.0
C1091 C 0.66252 0.69712 0.0001 0.0
N1092 N 0.62532 0.5946 0.96605 0.0
N1093 N 0.64384 0.67023 0.00128 0.0
H1094 H 0.93165 0.84281 0.68846 0.0
H1095 H 0.77455 0.92102 0.76174 0.0
H1096 H 0.88388 0.81171 0.76 0.0
H1097 H 0.82986 0.96027 0.69746 0.0
H1098 H 0.80805 0.87622 0.75556 0.0
H1099 H 0.88847 0.88134 0.68598 0.0
C1100 C 0.91189 0.84386 0.70346 0.0
C1101 C 0.91163 0.82429 0.72471 0.0
C1102 C 0.81274 0.89451 0.74265 0.0
C1103 C 0.86232 0.86821 0.72196 0.0
C1104 C 0.79362 0.92017 0.74617 0.0
C1105 C 0.79986 0.9447 0.73043 0.0
C1106 C 0.83846 0.89333 0.72333 0.0
C1107 C 0.82447 0.94202 0.71025 0.0
C1108 C 0.88731 0.86589 0.70205 0.0
C1109 C 0.88536 0.82658 0.74349 0.0
N1110 N 0.84321 0.91688 0.70748 0.0
N1111 N 0.86192 0.84829 0.74178 0.0
H1112 H 0.50504 0.20788 0.66963 0.0
H1113 H 0.42129 0.07335 0.55724 0.0
H1114 H 0.40493 0.16057 0.67688 0.0
H1115 H 0.53345 0.09045 0.57461 0.0
H1116 H 0.41231 0.11268 0.595 0.0
H1117 H 0.51322 0.17261 0.62806 0.0
C1118 C 0.48454 0.19048 0.66212 0.0
C1119 C 0.45427 0.18701 0.67656 0.0
C1120 C 0.43887 0.1078 0.59049 0.0
C1121 C 0.46331 0.14695 0.6294 0.0
C1122 C 0.44401 0.08537 0.56897 0.0
C1123 C 0.47816 0.07838 0.56294 0.0
C1124 C 0.46805 0.12383 0.60575 0.0
C1125 C 0.50666 0.09482 0.5788 0.0
C1126 C 0.48933 0.17025 0.63864 0.0
C1127 C 0.42866 0.16391 0.66628 0.0
N1128 N 0.50098 0.11689 0.59938 0.0
N1129 N 0.4337 0.14481 0.64333 0.0
H1130 H 0.4793 0.2772 0.81844 0.0
H1131 H 0.56395 0.43167 0.8997 0.0
H1132 H 0.50096 0.35872 0.77871 0.0
H1133 H 0.48539 0.37979 0.93824 0.0
H1134 H 0.55339 0.39654 0.85719 0.0
H1135 H 0.49131 0.30723 0.86461 0.0
C1136 C 0.48642 0.30132 0.81943 0.0
C1137 C 0.48922 0.31551 0.79475 0.0
C1138 C 0.53875 0.39264 0.87507 0.0
C1139 C 0.50383 0.34939 0.84694 0.0
C1140 C 0.54493 0.41253 0.89941 0.0
C1141 C 0.52537 0.40871 0.92244 0.0
C1142 C 0.51317 0.36843 0.8738 0.0
C1143 C 0.50095 0.38352 0.92084 0.0
C1144 C 0.49325 0.31834 0.84566 0.0
C1145 C 0.49851 0.3468 0.79713 0.0
N1146 N 0.49541 0.36425 0.89681 0.0
N1147 N 0.50587 0.36254 0.82268 0.0
H1148 H 0.54538 0.81794 0.33302 0.0
H1149 H 0.47868 0.97695 0.39465 0.0
H1150 H 0.49705 0.88277 0.28359 0.0
H1151 H 0.55139 0.92811 0.44348 0.0
H1152 H 0.48142 0.93923 0.35503 0.0
H1153 H 0.54353 0.85418 0.37524 0.0
C1154 C 0.5341 0.8396 0.33114 0.0
C1155 C 0.52147 0.84753 0.30487 0.0
C1156 C 0.49701 0.93668 0.37429 0.0
C1157 C 0.51934 0.88872 0.35256 0.0
C1158 C 0.49546 0.95831 0.39701 0.0
C1159 C 0.51489 0.95575 0.42245 0.0
C1160 C 0.51793 0.91191 0.37685 0.0
C1161 C 0.53622 0.93106 0.42414 0.0
C1162 C 0.53331 0.8603 0.3551 0.0
C1163 C 0.50728 0.87584 0.30343 0.0
N1164 N 0.53703 0.9099 0.40165 0.0
N1165 N 0.5066 0.8953 0.32684 0.0
H1166 H 0.45045 0.63711 0.04954 0.0
H1167 H 0.54473 0.71526 0.19157 0.0
H1168 H 0.51316 0.58624 0.10428 0.0
H1169 H 0.43264 0.72158 0.17815 0.0
H1170 H 0.54255 0.67864 0.14975 0.0
H1171 H 0.45192 0.67887 0.08779 0.0
C1172 C 0.46461 0.63485 0.0695 0.0
C1173 C 0.48149 0.60824 0.07396 0.0
C1174 C 0.51857 0.68844 0.15582 0.0
C1175 C 0.48421 0.65574 0.1169 0.0
C1176 C 0.51976 0.70934 0.17954 0.0
C1177 C 0.48873 0.72121 0.18838 0.0
C1178 C 0.48634 0.68003 0.14038 0.0
C1179 C 0.45706 0.7127 0.17206 0.0
C1180 C 0.46534 0.65851 0.09119 0.0
C1181 C 0.49953 0.6063 0.10012 0.0
N1182 N 0.45663 0.69261 0.14871 0.0
N1183 N 0.50077 0.62986 0.1205 0.0
loop_
_geom_bond_atom_site_label_1
_geom_bond_atom_site_label_2
_geom_bond_distance
_geom_bond_site_symmetry_2
_ccdc_geom_bond_type
Tb0 O3 2.453 1_565 S
Tb0 O4 2.596 1_566 S
Tb0 O5 2.374 1_556 S
Tb0 O13 2.362 1_455 S
Tb0 O15 2.353 1_465 S
Tb0 O17 2.427 . S
Tb0 O18 2.513 . S
C1 O5 1.251 . S
C1 O7 1.263 1_565 S
Tb2 O4 2.343 1_655 S
Tb2 O7 2.353 1_655 S
Tb2 O10 2.429 . S
Tb2 O11 2.513 . S
Tb2 O12 2.453 1_545 S
Tb2 O13 2.576 1_544 S
Tb2 O14 2.374 1_554 S
O3 Tb0 2.453 1_545 S
O3 C19 1.245 1_556 S
O4 Tb0 2.596 1_544 S
O4 Tb2 2.343 1_455 S
O4 C19 1.259 . S
O5 Tb0 2.374 1_554 S
O5 C1 1.251 . S
C6 O10 1.277 . S
C6 O11 1.246 . S
O7 C1 1.263 1_545 S
O7 Tb2 2.353 1_455 S
C8 O12 1.245 . S
C8 O13 1.246 1_554 S
C9 O14 1.250 . S
C9 O15 1.263 . S
O10 Tb2 2.429 . S
O10 C6 1.277 . S
O11 Tb2 2.513 . S
O11 C6 1.246 . S
O12 Tb2 2.453 1_565 S
O12 C8 1.245 . S
O13 Tb0 2.362 1_655 S
O13 Tb2 2.576 1_566 S
O13 C8 1.246 1_556 S
O14 Tb2 2.374 1_556 S
O14 C9 1.250 . S
O15 Tb0 2.353 1_645 S
O15 C9 1.263 . S
C16 O17 1.275 . S
C16 O18 1.246 . S
O17 Tb0 2.427 . S
O17 C16 1.275 . S
O18 Tb0 2.513 . S
O18 C16 1.246 . S
C19 O3 1.245 1_554 S
C19 O4 1.259 . S
Tb20 O23 2.453 . S
Tb20 O24 2.596 1_655 S
Tb20 O25 2.374 1_655 S
Tb20 O33 2.343 1_655 S
Tb20 O35 2.353 . S
Tb20 O37 2.427 . S
Tb20 O38 2.513 . S
C21 O25 1.251 . S
C21 O27 1.263 . S
Tb22 O24 2.343 . S
Tb22 O27 2.353 . S
Tb22 O30 2.427 . S
Tb22 O31 2.513 . S
Tb22 O32 2.453 . S
Tb22 O33 2.596 . S
Tb22 O34 2.374 1_455 S
O23 Tb20 2.453 . S
O23 C39 1.245 . S
O24 Tb20 2.596 1_455 S
O24 Tb22 2.343 . S
O24 C39 1.259 1_455 S
O25 Tb20 2.374 1_455 S
O25 C21 1.251 . S
C26 O30 1.275 . S
C26 O31 1.246 . S
O27 C21 1.263 . S
O27 Tb22 2.353 . S
C28 O32 1.245 . S
C28 O33 1.259 . S
C29 O34 1.250 . S
C29 O35 1.263 . S
O30 Tb22 2.427 . S
O30 C26 1.275 . S
O31 Tb22 2.513 . S
O31 C26 1.246 . S
O32 Tb22 2.453 . S
O32 C28 1.245 . S
O33 Tb20 2.343 1_455 S
O33 Tb22 2.596 . S
O33 C28 1.259 . S
O34 Tb22 2.374 1_655 S
O34 C29 1.250 . S
O35 Tb20 2.353 . S
O35 C29 1.263 . S
C36 O37 1.275 . S
C36 O38 1.246 . S
O37 Tb20 2.427 . S
O37 C36 1.275 . S
O38 Tb20 2.513 . S
O38 C36 1.246 . S
C39 O23 1.245 . S
C39 O24 1.259 1_655 S
Tb40 O43 2.453 . S
Tb40 O44 2.596 . S
Tb40 O45 2.374 . S
Tb40 O53 2.343 . S
Tb40 O55 2.353 . S
Tb40 O57 2.427 . S
Tb40 O58 2.513 . S
C41 O45 1.251 . S
C41 O47 1.263 . S
Tb42 O44 2.343 . S
Tb42 O47 2.353 . S
Tb42 O50 2.427 . S
Tb42 O51 2.513 . S
Tb42 O52 2.453 . S
Tb42 O53 2.596 . S
Tb42 O54 2.374 . S
O43 Tb40 2.453 . S
O43 C59 1.245 . S
O44 Tb40 2.596 . S
O44 Tb42 2.343 . S
O44 C59 1.259 . S
O45 Tb40 2.374 . S
O45 C41 1.251 . S
C46 O50 1.275 . S
C46 O51 1.246 . S
O47 C41 1.263 . S
O47 Tb42 2.353 . S
C48 O52 1.245 . S
C48 O53 1.259 . S
C49 O54 1.250 . S
C49 O55 1.263 . S
O50 Tb42 2.427 . S
O50 C46 1.275 . S
O51 Tb42 2.513 . S
O51 C46 1.246 . S
O52 Tb42 2.453 . S
O52 C48 1.245 . S
O53 Tb40 2.343 . S
O53 Tb42 2.596 . S
O53 C48 1.259 . S
O54 Tb42 2.374 . S
O54 C49 1.250 . S
O55 Tb40 2.353 . S
O55 C49 1.263 . S
C56 O57 1.275 . S
C56 O58 1.246 . S
O57 Tb40 2.427 . S
O57 C56 1.275 . S
O58 Tb40 2.513 . S
O58 C56 1.246 . S
C59 O43 1.245 . S
C59 O44 1.259 . S
Tb60 O63 2.453 . S
Tb60 O64 2.596 . S
Tb60 O65 2.374 . S
Tb60 O73 2.343 . S
Tb60 O75 2.353 . S
Tb60 O77 2.427 . S
Tb60 O78 2.513 . S
C61 O65 1.251 1_565 S
C61 O67 1.263 . S
Tb62 O64 2.343 1_565 S
Tb62 O67 2.353 . S
Tb62 O70 2.427 . S
Tb62 O71 2.513 . S
Tb62 O72 2.453 . S
Tb62 O73 2.596 1_565 S
Tb62 O74 2.374 1_565 S
O63 Tb60 2.453 . S
O63 C79 1.245 . S
O64 Tb60 2.596 . S
O64 Tb62 2.343 1_545 S
O64 C79 1.259 . S
O65 Tb60 2.374 . S
O65 C61 1.251 1_545 S
C66 O70 1.275 . S
C66 O71 1.246 . S
O67 C61 1.263 . S
O67 Tb62 2.353 . S
C68 O72 1.245 1_545 S
C68 O73 1.259 . S
C69 O74 1.250 . S
C69 O75 1.263 . S
O70 Tb62 2.427 . S
O70 C66 1.275 . S
O71 Tb62 2.513 . S
O71 C66 1.246 . S
O72 Tb62 2.453 . S
O72 C68 1.245 1_565 S
O73 Tb60 2.343 . S
O73 Tb62 2.596 1_545 S
O73 C68 1.259 . S
O74 Tb62 2.374 1_545 S
O74 C69 1.250 . S
O75 Tb60 2.353 . S
O75 C69 1.263 . S
C76 O77 1.275 . S
C76 O78 1.246 . S
O77 Tb60 2.427 . S
O77 C76 1.275 . S
O78 Tb60 2.513 . S
O78 C76 1.246 . S
C79 O63 1.245 . S
C79 O64 1.259 . S
Tb80 O83 2.453 . S
Tb80 O84 2.596 . S
Tb80 O85 2.374 . S
Tb80 O93 2.343 . S
Tb80 O95 2.353 . S
Tb80 O97 2.427 . S
Tb80 O98 2.513 . S
C81 O85 1.251 . S
C81 O87 1.263 . S
Tb82 O84 2.343 . S
Tb82 O87 2.353 . S
Tb82 O90 2.427 . S
Tb82 O91 2.513 . S
Tb82 O92 2.453 . S
Tb82 O93 2.596 . S
Tb82 O94 2.374 . S
O83 Tb80 2.453 . S
O83 C99 1.245 . S
O84 Tb80 2.596 . S
O84 Tb82 2.343 . S
O84 C99 1.259 . S
O85 Tb80 2.374 . S
O85 C81 1.251 . S
C86 O90 1.275 . S
C86 O91 1.246 . S
O87 C81 1.263 . S
O87 Tb82 2.353 . S
C88 O92 1.245 . S
C88 O93 1.259 . S
C89 O94 1.250 . S
C89 O95 1.263 . S
O90 Tb82 2.427 . S
O90 C86 1.275 . S
O91 Tb82 2.513 . S
O91 C86 1.246 . S
O92 Tb82 2.453 . S
O92 C88 1.245 . S
O93 Tb80 2.343 . S
O93 Tb82 2.596 . S
O93 C88 1.259 . S
O94 Tb82 2.374 . S
O94 C89 1.250 . S
O95 Tb80 2.353 . S
O95 C89 1.263 . S
C96 O97 1.275 . S
C96 O98 1.246 . S
O97 Tb80 2.427 . S
O97 C96 1.275 . S
O98 Tb80 2.513 . S
O98 C96 1.246 . S
C99 O83 1.245 . S
C99 O84 1.259 . S
Tb100 O103 2.453 . S
Tb100 O104 2.596 . S
Tb100 O105 2.374 . S
Tb100 O113 2.343 . S
Tb100 O115 2.353 . S
Tb100 O117 2.427 . S
Tb100 O118 2.513 . S
C101 O105 1.251 . S
C101 O107 1.263 . S
Tb102 O104 2.343 . S
Tb102 O107 2.353 . S
Tb102 O110 2.427 . S
Tb102 O111 2.513 . S
Tb102 O112 2.453 . S
Tb102 O113 2.596 . S
Tb102 O114 2.374 . S
O103 Tb100 2.453 . S
O103 C119 1.245 . S
O104 Tb100 2.596 . S
O104 Tb102 2.343 . S
O104 C119 1.259 . S
O105 Tb100 2.374 . S
O105 C101 1.251 . S
C106 O110 1.275 . S
C106 O111 1.246 . S
O107 C101 1.263 . S
O107 Tb102 2.353 . S
C108 O112 1.245 . S
C108 O113 1.259 . S
C109 O114 1.250 . S
C109 O115 1.263 . S
O110 Tb102 2.427 . S
O110 C106 1.275 . S
O111 Tb102 2.513 . S
O111 C106 1.246 . S
O112 Tb102 2.453 . S
O112 C108 1.245 . S
O113 Tb100 2.343 . S
O113 Tb102 2.596 . S
O113 C108 1.259 . S
O114 Tb102 2.374 . S
O114 C109 1.250 . S
O115 Tb100 2.353 . S
O115 C109 1.263 . S
C116 O117 1.275 . S
C116 O118 1.246 . S
O117 Tb100 2.427 . S
O117 C116 1.275 . S
O118 Tb100 2.513 . S
O118 C116 1.246 . S
C119 O103 1.245 . S
C119 O104 1.259 . S
Tb120 O123 2.453 . S
Tb120 O124 2.596 . S
Tb120 O125 2.374 . S
Tb120 O133 2.343 . S
Tb120 O135 2.353 . S
Tb120 O137 2.427 . S
Tb120 O138 2.513 . S
C121 O125 1.251 . S
C121 O127 1.263 . S
Tb122 O124 2.343 . S
Tb122 O127 2.353 . S
Tb122 O130 2.427 . S
Tb122 O131 2.513 . S
Tb122 O132 2.453 . S
Tb122 O133 2.596 . S
Tb122 O134 2.374 . S
O123 Tb120 2.453 . S
O123 C139 1.245 . S
O124 Tb120 2.596 . S
O124 Tb122 2.343 . S
O124 C139 1.259 . S
O125 Tb120 2.374 . S
O125 C121 1.251 . S
C126 O130 1.275 . S
C126 O131 1.246 . S
O127 C121 1.263 . S
O127 Tb122 2.353 . S
C128 O132 1.245 . S
C128 O133 1.259 . S
C129 O134 1.250 . S
C129 O135 1.263 . S
O130 Tb122 2.427 . S
O130 C126 1.275 . S
O131 Tb122 2.513 . S
O131 C126 1.246 . S
O132 Tb122 2.453 . S
O132 C128 1.245 . S
O133 Tb120 2.343 . S
O133 Tb122 2.596 . S
O133 C128 1.259 . S
O134 Tb122 2.374 . S
O134 C129 1.250 . S
O135 Tb120 2.353 . S
O135 C129 1.263 . S
C136 O137 1.275 . S
C136 O138 1.246 . S
O137 Tb120 2.427 . S
O137 C136 1.275 . S
O138 Tb120 2.513 . S
O138 C136 1.246 . S
C139 O123 1.245 . S
C139 O124 1.259 . S
Tb140 O143 2.453 . S
Tb140 O144 2.596 . S
Tb140 O145 2.374 . S
Tb140 O153 2.343 1_455 S
Tb140 O155 2.353 1_455 S
Tb140 O157 2.427 . S
Tb140 O158 2.513 . S
C141 O145 1.251 . S
C141 O147 1.263 . S
Tb142 O144 2.343 1_655 S
Tb142 O147 2.353 1_655 S
Tb142 O150 2.434 . S
Tb142 O151 2.513 . S
Tb142 O152 2.453 . S
Tb142 O153 2.596 . S
Tb142 O154 2.374 . S
O143 Tb140 2.453 . S
O143 C159 1.245 . S
O144 Tb140 2.596 . S
O144 Tb142 2.343 1_455 S
O144 C159 1.259 . S
O145 Tb140 2.374 . S
O145 C141 1.251 . S
C146 O150 1.284 . S
C146 O151 1.246 . S
O147 C141 1.263 . S
O147 Tb142 2.353 1_455 S
C148 O152 1.245 . S
C148 O153 1.259 . S
C149 O154 1.250 . S
C149 O155 1.263 . S
O150 Tb142 2.434 . S
O150 C146 1.284 . S
O151 Tb142 2.513 . S
O151 C146 1.246 . S
O152 Tb142 2.453 . S
O152 C148 1.245 . S
O153 Tb140 2.343 1_655 S
O153 Tb142 2.596 . S
O153 C148 1.259 . S
O154 Tb142 2.374 . S
O154 C149 1.250 . S
O155 Tb140 2.353 1_655 S
O155 C149 1.263 . S
C156 O157 1.275 . S
C156 O158 1.246 . S
O157 Tb140 2.427 . S
O157 C156 1.275 . S
O158 Tb140 2.513 . S
O158 C156 1.246 . S
C159 O143 1.245 . S
C159 O144 1.259 . S
Tb160 O163 2.453 . S
Tb160 O164 2.596 1_556 S
Tb160 O165 2.374 1_556 S
Tb160 O173 2.348 . S
Tb160 O175 2.353 . S
Tb160 O177 2.427 . S
Tb160 O178 2.513 . S
C161 O165 1.251 . S
C161 O167 1.263 . S
Tb162 O164 2.343 . S
Tb162 O167 2.353 . S
Tb162 O170 2.427 . S
Tb162 O171 2.513 . S
Tb162 O172 2.453 . S
Tb162 O173 2.589 1_554 S
Tb162 O174 2.374 1_554 S
O163 Tb160 2.453 . S
O163 C179 1.245 . S
O164 Tb160 2.596 1_554 S
O164 Tb162 2.343 . S
O164 C179 1.259 1_554 S
O165 Tb160 2.374 1_554 S
O165 C161 1.251 . S
C166 O170 1.275 . S
C166 O171 1.246 . S
O167 C161 1.263 . S
O167 Tb162 2.353 . S
C168 O172 1.245 . S
C168 O173 1.256 1_554 S
C169 O174 1.250 . S
C169 O175 1.263 . S
O170 Tb162 2.427 . S
O170 C166 1.275 . S
O171 Tb162 2.513 . S
O171 C166 1.246 . S
O172 Tb162 2.453 . S
O172 C168 1.245 . S
O173 Tb160 2.348 . S
O173 Tb162 2.589 1_556 S
O173 C168 1.256 1_556 S
O174 Tb162 2.374 1_556 S
O174 C169 1.250 . S
O175 Tb160 2.353 . S
O175 C169 1.263 . S
C176 O177 1.275 . S
C176 O178 1.246 . S
O177 Tb160 2.427 . S
O177 C176 1.275 . S
O178 Tb160 2.513 . S
O178 C176 1.246 . S
C179 O163 1.245 . S
C179 O164 1.259 1_556 S
Tb180 O183 2.453 . S
Tb180 O184 2.596 . S
Tb180 O185 2.374 1_545 S
Tb180 O193 2.343 . S
Tb180 O195 2.353 . S
Tb180 O197 2.427 . S
Tb180 O198 2.513 . S
C181 O185 1.251 . S
C181 O187 1.263 . S
Tb182 O184 2.343 1_565 S
Tb182 O187 2.353 . S
Tb182 O190 2.427 . S
Tb182 O191 2.513 . S
Tb182 O192 2.453 . S
Tb182 O193 2.596 1_565 S
Tb182 O194 2.374 1_565 S
O183 Tb180 2.453 . S
O183 C199 1.245 . S
O184 Tb180 2.596 . S
O184 Tb182 2.343 1_545 S
O184 C199 1.259 . S
O185 Tb180 2.374 1_565 S
O185 C181 1.251 . S
C186 O190 1.275 . S
C186 O191 1.246 . S
O187 C181 1.263 . S
O187 Tb182 2.353 . S
C188 O192 1.245 . S
C188 O193 1.259 1_565 S
C189 O194 1.250 . S
C189 O195 1.263 . S
O190 Tb182 2.427 . S
O190 C186 1.275 . S
O191 Tb182 2.513 . S
O191 C186 1.246 . S
O192 Tb182 2.453 . S
O192 C188 1.245 . S
O193 Tb180 2.343 . S
O193 Tb182 2.596 1_545 S
O193 C188 1.259 1_545 S
O194 Tb182 2.374 1_545 S
O194 C189 1.250 . S
O195 Tb180 2.353 . S
O195 C189 1.263 . S
C196 O197 1.275 . S
C196 O198 1.246 . S
O197 Tb180 2.427 . S
O197 C196 1.275 . S
O198 Tb180 2.513 . S
O198 C196 1.246 . S
C199 O183 1.245 . S
C199 O184 1.259 . S
Tb200 O203 2.453 . S
Tb200 O204 2.596 . S
Tb200 O205 2.374 . S
Tb200 O213 2.343 . S
Tb200 O215 2.353 . S
Tb200 O217 2.427 . S
Tb200 O218 2.513 . S
C201 O205 1.251 . S
C201 O207 1.263 . S
Tb202 O204 2.343 . S
Tb202 O207 2.353 . S
Tb202 O210 2.427 . S
Tb202 O211 2.513 . S
Tb202 O212 2.453 . S
Tb202 O213 2.596 . S
Tb202 O214 2.374 . S
O203 Tb200 2.453 . S
O203 C219 1.245 . S
O204 Tb200 2.596 . S
O204 Tb202 2.343 . S
O204 C219 1.259 . S
O205 Tb200 2.374 . S
O205 C201 1.251 . S
C206 O210 1.275 . S
C206 O211 1.246 . S
O207 C201 1.263 . S
O207 Tb202 2.353 . S
C208 O212 1.245 . S
C208 O213 1.259 . S
C209 O214 1.250 . S
C209 O215 1.263 . S
O210 Tb202 2.427 . S
O210 C206 1.275 . S
O211 Tb202 2.513 . S
O211 C206 1.246 . S
O212 Tb202 2.453 . S
O212 C208 1.245 . S
O213 Tb200 2.343 . S
O213 Tb202 2.596 . S
O213 C208 1.259 . S
O214 Tb202 2.374 . S
O214 C209 1.250 . S
O215 Tb200 2.353 . S
O215 C209 1.263 . S
C216 O217 1.275 . S
C216 O218 1.246 . S
O217 Tb200 2.427 . S
O217 C216 1.275 . S
O218 Tb200 2.513 . S
O218 C216 1.246 . S
C219 O203 1.245 . S
C219 O204 1.259 . S
Tb220 O223 2.453 . S
Tb220 O224 2.596 1_655 S
Tb220 O225 2.374 1_655 S
Tb220 O233 2.343 1_655 S
Tb220 O235 2.353 . S
Tb220 O237 2.427 . S
Tb220 O238 2.513 . S
C221 O225 1.251 . S
C221 O227 1.263 . S
Tb222 O224 2.343 . S
Tb222 O227 2.353 . S
Tb222 O230 2.427 . S
Tb222 O231 2.513 . S
Tb222 O232 2.453 . S
Tb222 O233 2.596 . S
Tb222 O234 2.374 1_455 S
O223 Tb220 2.453 . S
O223 C239 1.245 . S
O224 Tb220 2.596 1_455 S
O224 Tb222 2.343 . S
O224 C239 1.259 1_455 S
O225 Tb220 2.374 1_455 S
O225 C221 1.251 . S
C226 O230 1.275 . S
C226 O231 1.246 . S
O227 C221 1.263 . S
O227 Tb222 2.353 . S
C228 O232 1.245 . S
C228 O233 1.259 . S
C229 O234 1.250 . S
C229 O235 1.263 . S
O230 Tb222 2.427 . S
O230 C226 1.275 . S
O231 Tb222 2.513 . S
O231 C226 1.246 . S
O232 Tb222 2.453 . S
O232 C228 1.245 . S
O233 Tb220 2.343 1_455 S
O233 Tb222 2.596 . S
O233 C228 1.259 . S
O234 Tb222 2.374 1_655 S
O234 C229 1.250 . S
O235 Tb220 2.353 . S
O235 C229 1.263 . S
C236 O237 1.275 . S
C236 O238 1.246 . S
O237 Tb220 2.427 . S
O237 C236 1.275 . S
O238 Tb220 2.513 . S
O238 C236 1.246 . S
C239 O223 1.245 . S
C239 O224 1.259 1_655 S
Tb240 O243 2.453 . S
Tb240 O244 2.596 . S
Tb240 O245 2.374 . S
Tb240 O253 2.343 . S
Tb240 O255 2.353 . S
Tb240 O257 2.427 . S
Tb240 O258 2.513 . S
C241 O245 1.251 . S
C241 O247 1.263 . S
Tb242 O244 2.343 . S
Tb242 O247 2.353 . S
Tb242 O250 2.427 . S
Tb242 O251 2.513 . S
Tb242 O252 2.453 . S
Tb242 O253 2.596 . S
Tb242 O254 2.374 . S
O243 Tb240 2.453 . S
O243 C259 1.245 . S
O244 Tb240 2.596 . S
O244 Tb242 2.343 . S
O244 C259 1.259 . S
O245 Tb240 2.374 . S
O245 C241 1.251 . S
C246 O250 1.275 . S
C246 O251 1.246 . S
O247 C241 1.263 . S
O247 Tb242 2.353 . S
C248 O252 1.245 . S
C248 O253 1.259 . S
C249 O254 1.250 . S
C249 O255 1.263 . S
O250 Tb242 2.427 . S
O250 C246 1.275 . S
O251 Tb242 2.513 . S
O251 C246 1.246 . S
O252 Tb242 2.453 . S
O252 C248 1.245 . S
O253 Tb240 2.343 . S
O253 Tb242 2.596 . S
O253 C248 1.259 . S
O254 Tb242 2.374 . S
O254 C249 1.250 . S
O255 Tb240 2.353 . S
O255 C249 1.263 . S
C256 O257 1.275 . S
C256 O258 1.246 . S
O257 Tb240 2.427 . S
O257 C256 1.275 . S
O258 Tb240 2.513 . S
O258 C256 1.246 . S
C259 O243 1.245 . S
C259 O244 1.259 . S
Tb260 O263 2.453 . S
Tb260 O264 2.596 1_556 S
Tb260 O265 2.374 1_556 S
Tb260 O273 2.343 1_556 S
Tb260 O275 2.353 . S
Tb260 O277 2.427 . S
Tb260 O278 2.513 . S
C261 O265 1.251 . S
C261 O267 1.263 . S
Tb262 O264 2.343 . S
Tb262 O267 2.353 . S
Tb262 O270 2.427 . S
Tb262 O271 2.513 . S
Tb262 O272 2.453 . S
Tb262 O273 2.596 . S
Tb262 O274 2.374 1_554 S
O263 Tb260 2.453 . S
O263 C279 1.245 . S
O264 Tb260 2.596 1_554 S
O264 Tb262 2.343 . S
O264 C279 1.259 1_554 S
O265 Tb260 2.374 1_554 S
O265 C261 1.251 . S
C266 O270 1.275 . S
C266 O271 1.246 . S
O267 C261 1.263 . S
O267 Tb262 2.353 . S
C268 O272 1.245 . S
C268 O273 1.259 . S
C269 O274 1.250 . S
C269 O275 1.263 . S
O270 Tb262 2.427 . S
O270 C266 1.275 . S
O271 Tb262 2.513 . S
O271 C266 1.246 . S
O272 Tb262 2.453 . S
O272 C268 1.245 . S
O273 Tb260 2.343 1_554 S
O273 Tb262 2.596 . S
O273 C268 1.259 . S
O274 Tb262 2.374 1_556 S
O274 C269 1.250 . S
O275 Tb260 2.353 . S
O275 C269 1.263 . S
C276 O277 1.275 . S
C276 O278 1.246 . S
O277 Tb260 2.427 . S
O277 C276 1.275 . S
O278 Tb260 2.513 . S
O278 C276 1.246 . S
C279 O263 1.245 . S
C279 O264 1.259 1_556 S
Tb280 O283 2.453 . S
Tb280 O284 2.596 . S
Tb280 O285 2.374 . S
Tb280 O293 2.343 1_565 S
Tb280 O295 2.353 1_565 S
Tb280 O297 2.427 1_565 S
Tb280 O298 2.513 . S
C281 O285 1.251 . S
C281 O287 1.263 . S
Tb282 O284 2.343 1_545 S
Tb282 O287 2.353 1_545 S
Tb282 O290 2.427 . S
Tb282 O291 2.513 . S
Tb282 O292 2.453 . S
Tb282 O293 2.596 . S
Tb282 O294 2.374 . S
O283 Tb280 2.453 . S
O283 C299 1.245 . S
O284 Tb280 2.596 . S
O284 Tb282 2.343 1_565 S
O284 C299 1.259 . S
O285 Tb280 2.374 . S
O285 C281 1.251 . S
C286 O290 1.275 . S
C286 O291 1.246 . S
O287 C281 1.263 . S
O287 Tb282 2.353 1_565 S
C288 O292 1.245 . S
C288 O293 1.259 . S
C289 O294 1.250 . S
C289 O295 1.263 . S
O290 Tb282 2.427 . S
O290 C286 1.275 . S
O291 Tb282 2.513 . S
O291 C286 1.246 . S
O292 Tb282 2.453 . S
O292 C288 1.245 . S
O293 Tb280 2.343 1_545 S
O293 Tb282 2.596 . S
O293 C288 1.259 . S
O294 Tb282 2.374 . S
O294 C289 1.250 . S
O295 Tb280 2.353 1_545 S
O295 C289 1.263 . S
C296 O297 1.275 . S
C296 O298 1.246 1_545 S
O297 Tb280 2.427 1_545 S
O297 C296 1.275 . S
O298 Tb280 2.513 . S
O298 C296 1.246 1_565 S
C299 O283 1.245 . S
C299 O284 1.259 . S
Tb300 O303 2.453 . S
Tb300 O304 2.596 1_556 S
Tb300 O305 2.374 1_556 S
Tb300 O313 2.357 . S
Tb300 O315 2.353 . S
Tb300 O317 2.427 . S
Tb300 O318 2.513 . S
C301 O305 1.251 . S
C301 O307 1.263 . S
Tb302 O304 2.343 . S
Tb302 O307 2.353 . S
Tb302 O310 2.427 . S
Tb302 O311 2.513 . S
Tb302 O312 2.453 . S
Tb302 O313 2.581 1_554 S
Tb302 O314 2.374 1_554 S
O303 Tb300 2.453 . S
O303 C319 1.210 1_556 S
O304 Tb300 2.596 1_554 S
O304 Tb302 2.343 . S
O304 C319 1.277 . S
O305 Tb300 2.374 1_554 S
O305 C301 1.251 . S
C306 O310 1.275 . S
C306 O311 1.246 . S
O307 C301 1.263 . S
O307 Tb302 2.353 . S
C308 O312 1.245 . S
C308 O313 1.250 1_554 S
C309 O314 1.250 . S
C309 O315 1.263 . S
O310 Tb302 2.427 . S
O310 C306 1.275 . S
O311 Tb302 2.513 . S
O311 C306 1.246 . S
O312 Tb302 2.453 . S
O312 C308 1.245 . S
O313 Tb300 2.357 . S
O313 Tb302 2.581 1_556 S
O313 C308 1.250 1_556 S
O314 Tb302 2.374 1_556 S
O314 C309 1.250 . S
O315 Tb300 2.353 . S
O315 C309 1.263 . S
C316 O317 1.275 . S
C316 O318 1.246 . S
O317 Tb300 2.427 . S
O317 C316 1.275 . S
O318 Tb300 2.513 . S
O318 C316 1.246 . S
C319 O303 1.210 1_554 S
C319 O304 1.277 . S
H320 C326 0.930 . S
H321 C330 0.930 . S
H322 C335 0.929 . S
H323 C333 0.929 . S
H324 C328 0.929 . S
H325 C334 0.929 . S
C326 H320 0.930 . S
C326 C327 1.367 1_455 S
C326 C334 1.378 . S
C327 C326 1.367 1_655 S
C327 C335 1.433 . S
C328 H324 0.929 . S
C328 C330 1.378 . S
C328 C332 1.350 . S
C329 C332 1.463 . S
C329 C334 1.350 1_655 S
C329 N337 1.427 . S
C330 H321 0.930 . S
C330 C328 1.378 . S
C330 C331 1.380 . S
C331 C330 1.380 . S
C331 C333 1.420 1_655 S
C332 C328 1.350 . S
C332 C329 1.463 . S
C332 N336 1.427 1_655 S
C333 H323 0.929 . S
C333 C331 1.420 1_455 S
C333 N336 1.384 . S
C334 H325 0.929 . S
C334 C326 1.378 . S
C334 C329 1.350 1_455 S
C335 H322 0.929 . S
C335 C327 1.433 . S
C335 N337 1.384 . S
N336 C332 1.427 1_455 S
N336 C333 1.384 . S
N337 C329 1.427 . S
N337 C335 1.384 . S
H338 C344 0.930 . S
H339 C348 0.930 . S
H340 C353 0.929 . S
H341 C351 0.929 . S
H342 C346 0.929 . S
H343 C352 0.929 . S
C344 H338 0.930 . S
C344 C345 1.367 . S
C344 C352 1.378 . S
C345 C344 1.367 . S
C345 C353 1.433 . S
C346 H342 0.929 . S
C346 C348 1.378 . S
C346 C350 1.350 . S
C347 C350 1.463 . S
C347 C352 1.350 . S
C347 N355 1.427 . S
C348 H339 0.930 . S
C348 C346 1.378 . S
C348 C349 1.367 . S
C349 C348 1.367 . S
C349 C351 1.433 . S
C350 C346 1.350 . S
C350 C347 1.463 . S
C350 N354 1.427 . S
C351 H341 0.929 . S
C351 C349 1.433 . S
C351 N354 1.384 . S
C352 H343 0.929 . S
C352 C344 1.378 . S
C352 C347 1.350 . S
C353 H340 0.929 . S
C353 C345 1.433 . S
C353 N355 1.384 . S
N354 C350 1.427 . S
N354 C351 1.384 . S
N355 C347 1.427 . S
N355 C353 1.384 . S
H356 C362 0.930 . S
H357 C366 0.930 . S
H358 C371 0.929 . S
H359 C369 0.929 . S
H360 C364 0.929 . S
H361 C370 0.929 . S
C362 H356 0.930 . S
C362 C363 1.367 . S
C362 C370 1.378 . S
C363 C362 1.367 . S
C363 C371 1.433 . S
C364 H360 0.929 . S
C364 C366 1.378 . S
C364 C368 1.350 . S
C365 C368 1.463 . S
C365 C370 1.350 . S
C365 N373 1.427 . S
C366 H357 0.930 . S
C366 C364 1.378 . S
C366 C367 1.367 . S
C367 C366 1.367 . S
C367 C369 1.433 . S
C368 C364 1.350 . S
C368 C365 1.463 . S
C368 N372 1.427 . S
C369 H359 0.929 . S
C369 C367 1.433 . S
C369 N372 1.384 . S
C370 H361 0.929 . S
C370 C362 1.378 . S
C370 C365 1.350 . S
C371 H358 0.929 . S
C371 C363 1.433 . S
C371 N373 1.384 . S
N372 C368 1.427 . S
N372 C369 1.384 . S
N373 C365 1.427 . S
N373 C371 1.384 . S
H374 C380 0.930 1_565 S
H375 C384 0.930 . S
H376 C389 0.929 . S
H377 C387 0.929 . S
H378 C382 0.929 . S
H379 C388 0.929 1_565 S
C380 H374 0.930 1_545 S
C380 C381 1.367 . S
C380 C388 1.378 . S
C381 C380 1.367 . S
C381 C389 1.433 . S
C382 H378 0.929 . S
C382 C384 1.378 . S
C382 C386 1.350 . S
C383 C386 1.463 . S
C383 C388 1.350 . S
C383 N391 1.427 . S
C384 H375 0.930 . S
C384 C382 1.378 . S
C384 C385 1.367 . S
C385 C384 1.367 . S
C385 C387 1.433 1_545 S
C386 C382 1.350 . S
C386 C383 1.463 . S
C386 N390 1.425 . S
C387 H377 0.929 . S
C387 C385 1.433 1_565 S
C387 N390 1.383 1_565 S
C388 H379 0.929 1_545 S
C388 C380 1.378 . S
C388 C383 1.350 . S
C389 H376 0.929 . S
C389 C381 1.433 . S
C389 N391 1.384 . S
N390 C386 1.425 . S
N390 C387 1.383 1_545 S
N391 C383 1.427 . S
N391 C389 1.384 . S
H392 C398 0.930 . S
H393 C402 0.930 . S
H394 C407 0.929 . S
H395 C405 0.929 . S
H396 C400 0.929 . S
H397 C406 0.929 . S
C398 H392 0.930 . S
C398 C399 1.367 1_545 S
C398 C406 1.378 . S
C399 C398 1.367 1_565 S
C399 C407 1.433 . S
C400 H396 0.929 . S
C400 C402 1.378 . S
C400 C404 1.354 . S
C401 C404 1.460 1_545 S
C401 C406 1.362 . S
C401 N409 1.416 1_545 S
C402 H393 0.930 . S
C402 C400 1.378 . S
C402 C403 1.367 1_565 S
C403 C402 1.367 1_545 S
C403 C405 1.433 . S
C404 C400 1.354 . S
C404 C401 1.460 1_565 S
C404 N408 1.423 1_565 S
C405 H395 0.929 . S
C405 C403 1.433 . S
C405 N408 1.384 . S
C406 H397 0.929 . S
C406 C398 1.378 . S
C406 C401 1.362 . S
C407 H394 0.929 . S
C407 C399 1.433 . S
C407 N409 1.384 . S
N408 C404 1.423 1_545 S
N408 C405 1.384 . S
N409 C401 1.416 1_565 S
N409 C407 1.384 . S
H410 C416 0.930 . S
H411 C420 0.930 . S
H412 C425 0.929 . S
H413 C423 0.929 . S
H414 C418 0.929 . S
H415 C424 0.929 . S
C416 H410 0.930 . S
C416 C417 1.367 . S
C416 C424 1.378 . S
C417 C416 1.367 . S
C417 C425 1.433 . S
C418 H414 0.929 . S
C418 C420 1.378 . S
C418 C422 1.350 . S
C419 C422 1.463 . S
C419 C424 1.350 . S
C419 N427 1.427 . S
C420 H411 0.930 . S
C420 C418 1.378 . S
C420 C421 1.367 . S
C421 C420 1.367 . S
C421 C423 1.433 . S
C422 C418 1.350 . S
C422 C419 1.463 . S
C422 N426 1.427 . S
C423 H413 0.929 . S
C423 C421 1.433 . S
C423 N426 1.384 . S
C424 H415 0.929 . S
C424 C416 1.378 . S
C424 C419 1.350 . S
C425 H412 0.929 . S
C425 C417 1.433 . S
C425 N427 1.384 . S
N426 C422 1.427 . S
N426 C423 1.384 . S
N427 C419 1.427 . S
N427 C425 1.384 . S
H428 C434 0.930 . S
H429 C438 0.930 . S
H430 C443 0.929 . S
H431 C441 0.929 . S
H432 C436 0.929 . S
H433 C442 0.929 . S
C434 H428 0.930 . S
C434 C435 1.367 . S
C434 C442 1.378 . S
C435 C434 1.367 . S
C435 C443 1.433 . S
C436 H432 0.929 . S
C436 C438 1.378 . S
C436 C440 1.350 . S
C437 C440 1.463 . S
C437 C442 1.350 . S
C437 N445 1.427 . S
C438 H429 0.930 . S
C438 C436 1.378 . S
C438 C439 1.367 . S
C439 C438 1.367 . S
C439 C441 1.433 . S
C440 C436 1.350 . S
C440 C437 1.463 . S
C440 N444 1.427 . S
C441 H431 0.929 . S
C441 C439 1.433 . S
C441 N444 1.384 . S
C442 H433 0.929 . S
C442 C434 1.378 . S
C442 C437 1.350 . S
C443 H430 0.929 . S
C443 C435 1.433 . S
C443 N445 1.384 . S
N444 C440 1.427 . S
N444 C441 1.384 . S
N445 C437 1.427 . S
N445 C443 1.384 . S
H446 C452 0.930 . S
H447 C456 0.930 . S
H448 C461 0.929 . S
H449 C459 0.929 . S
H450 C454 0.929 . S
H451 C460 0.929 . S
C452 H446 0.930 . S
C452 C453 1.367 . S
C452 C460 1.378 . S
C453 C452 1.367 . S
C453 C461 1.433 . S
C454 H450 0.929 . S
C454 C456 1.378 . S
C454 C458 1.350 . S
C455 C458 1.463 . S
C455 C460 1.350 . S
C455 N463 1.427 . S
C456 H447 0.930 . S
C456 C454 1.378 . S
C456 C457 1.367 . S
C457 C456 1.367 . S
C457 C459 1.433 . S
C458 C454 1.350 . S
C458 C455 1.463 . S
C458 N462 1.427 . S
C459 H449 0.929 . S
C459 C457 1.433 . S
C459 N462 1.384 . S
C460 H451 0.929 . S
C460 C452 1.378 . S
C460 C455 1.350 . S
C461 H448 0.929 . S
C461 C453 1.433 . S
C461 N463 1.384 . S
N462 C458 1.427 . S
N462 C459 1.384 . S
N463 C455 1.427 . S
N463 C461 1.384 . S
H464 C470 0.930 . S
H465 C474 0.930 . S
H466 C479 0.929 . S
H467 C477 0.929 . S
H468 C472 0.929 . S
H469 C478 0.929 . S
C470 H464 0.930 . S
C470 C471 1.367 . S
C470 C478 1.378 . S
C471 C470 1.367 . S
C471 C479 1.433 . S
C472 H468 0.929 . S
C472 C474 1.378 . S
C472 C476 1.350 . S
C473 C476 1.463 . S
C473 C478 1.350 . S
C473 N481 1.427 . S
C474 H465 0.930 . S
C474 C472 1.378 . S
C474 C475 1.367 . S
C475 C474 1.367 . S
C475 C477 1.433 . S
C476 C472 1.350 . S
C476 C473 1.463 . S
C476 N480 1.427 . S
C477 H467 0.929 . S
C477 C475 1.433 . S
C477 N480 1.384 . S
C478 H469 0.929 . S
C478 C470 1.378 . S
C478 C473 1.350 . S
C479 H466 0.929 . S
C479 C471 1.433 . S
C479 N481 1.384 . S
N480 C476 1.427 . S
N480 C477 1.384 . S
N481 C473 1.427 . S
N481 C479 1.384 . S
H482 C488 0.930 . S
H483 C492 0.930 . S
H484 C497 0.929 . S
H485 C495 0.929 . S
H486 C490 0.929 . S
H487 C496 0.929 . S
C488 H482 0.930 . S
C488 C489 1.367 . S
C488 C496 1.378 . S
C489 C488 1.367 . S
C489 C497 1.433 . S
C490 H486 0.929 . S
C490 C492 1.378 . S
C490 C494 1.350 . S
C491 C494 1.463 . S
C491 C496 1.350 . S
C491 N499 1.427 . S
C492 H483 0.930 . S
C492 C490 1.378 . S
C492 C493 1.367 . S
C493 C492 1.367 . S
C493 C495 1.433 . S
C494 C490 1.350 . S
C494 C491 1.463 . S
C494 N498 1.427 . S
C495 H485 0.929 . S
C495 C493 1.433 . S
C495 N498 1.384 . S
C496 H487 0.929 . S
C496 C488 1.378 . S
C496 C491 1.350 . S
C497 H484 0.929 . S
C497 C489 1.433 . S
C497 N499 1.384 . S
N498 C494 1.427 . S
N498 C495 1.384 . S
N499 C491 1.427 . S
N499 C497 1.384 . S
H500 C506 0.930 . S
H501 C510 0.930 . S
H502 C515 0.929 . S
H503 C513 0.929 . S
H504 C508 0.929 . S
H505 C514 0.929 . S
C506 H500 0.930 . S
C506 C507 1.367 1_565 S
C506 C514 1.378 . S
C507 C506 1.367 1_545 S
C507 C515 1.433 . S
C508 H504 0.929 . S
C508 C510 1.378 . S
C508 C512 1.350 . S
C509 C512 1.463 . S
C509 C514 1.350 1_545 S
C509 N517 1.427 . S
C510 H501 0.930 . S
C510 C508 1.378 . S
C510 C511 1.367 . S
C511 C510 1.367 . S
C511 C513 1.433 1_545 S
C512 C508 1.350 . S
C512 C509 1.463 . S
C512 N516 1.427 1_545 S
C513 H503 0.929 . S
C513 C511 1.433 1_565 S
C513 N516 1.384 . S
C514 H505 0.929 . S
C514 C506 1.378 . S
C514 C509 1.350 1_565 S
C515 H502 0.929 . S
C515 C507 1.433 . S
C515 N517 1.384 . S
N516 C512 1.427 1_565 S
N516 C513 1.384 . S
N517 C509 1.427 . S
N517 C515 1.384 . S
H518 C524 0.930 . S
H519 C528 0.930 . S
H520 C533 0.929 . S
H521 C531 0.929 . S
H522 C526 0.929 . S
H523 C532 0.929 . S
C524 H518 0.930 . S
C524 C525 1.367 . S
C524 C532 1.378 . S
C525 C524 1.367 . S
C525 C533 1.433 . S
C526 H522 0.929 . S
C526 C528 1.378 . S
C526 C530 1.350 . S
C527 C530 1.463 . S
C527 C532 1.350 . S
C527 N535 1.427 . S
C528 H519 0.930 . S
C528 C526 1.378 . S
C528 C529 1.367 . S
C529 C528 1.367 . S
C529 C531 1.433 . S
C530 C526 1.350 . S
C530 C527 1.463 . S
C530 N534 1.427 . S
C531 H521 0.929 . S
C531 C529 1.433 . S
C531 N534 1.384 . S
C532 H523 0.929 . S
C532 C524 1.378 . S
C532 C527 1.350 . S
C533 H520 0.929 . S
C533 C525 1.433 . S
C533 N535 1.384 . S
N534 C530 1.427 . S
N534 C531 1.384 . S
N535 C527 1.427 . S
N535 C533 1.384 . S
H536 C542 0.930 . S
H537 C546 0.930 . S
H538 C551 0.929 . S
H539 C549 0.929 . S
H540 C544 0.929 . S
H541 C550 0.929 . S
C542 H536 0.930 . S
C542 C543 1.367 . S
C542 C550 1.378 . S
C543 C542 1.367 . S
C543 C551 1.433 1_554 S
C544 H540 0.929 . S
C544 C546 1.378 . S
C544 C548 1.350 1_556 S
C545 C548 1.463 . S
C545 C550 1.350 . S
C545 N553 1.427 1_554 S
C546 H537 0.930 . S
C546 C544 1.378 . S
C546 C547 1.367 1_556 S
C547 C546 1.367 1_554 S
C547 C549 1.433 . S
C548 C544 1.350 1_554 S
C548 C545 1.463 . S
C548 N552 1.427 . S
C549 H539 0.929 . S
C549 C547 1.433 . S
C549 N552 1.384 . S
C550 H541 0.929 . S
C550 C542 1.378 . S
C550 C545 1.350 . S
C551 H538 0.929 . S
C551 C543 1.433 1_556 S
C551 N553 1.384 . S
N552 C548 1.427 . S
N552 C549 1.384 . S
N553 C545 1.427 1_556 S
N553 C551 1.384 . S
H554 C560 0.930 . S
H555 C564 0.930 . S
H556 C569 0.929 . S
H557 C567 0.929 . S
H558 C562 0.929 . S
H559 C568 0.929 . S
C560 H554 0.930 . S
C560 C561 1.367 . S
C560 C568 1.378 . S
C561 C560 1.367 . S
C561 C569 1.433 . S
C562 H558 0.929 . S
C562 C564 1.378 . S
C562 C566 1.350 . S
C563 C566 1.463 . S
C563 C568 1.350 . S
C563 N571 1.427 . S
C564 H555 0.930 . S
C564 C562 1.378 . S
C564 C565 1.367 . S
C565 C564 1.367 . S
C565 C567 1.433 . S
C566 C562 1.350 . S
C566 C563 1.463 . S
C566 N570 1.427 . S
C567 H557 0.929 . S
C567 C565 1.433 . S
C567 N570 1.384 . S
C568 H559 0.929 . S
C568 C560 1.378 . S
C568 C563 1.350 . S
C569 H556 0.929 . S
C569 C561 1.433 . S
C569 N571 1.384 . S
N570 C566 1.427 . S
N570 C567 1.384 . S
N571 C563 1.427 . S
N571 C569 1.384 . S
H572 C578 0.930 . S
H573 C582 0.930 . S
H574 C587 0.929 . S
H575 C585 0.929 . S
H576 C580 0.929 . S
H577 C586 0.929 . S
C578 H572 0.930 . S
C578 C579 1.367 . S
C578 C586 1.378 . S
C579 C578 1.367 . S
C579 C587 1.433 . S
C580 H576 0.929 . S
C580 C582 1.378 . S
C580 C584 1.350 . S
C581 C584 1.463 . S
C581 C586 1.350 . S
C581 N589 1.427 . S
C582 H573 0.930 . S
C582 C580 1.378 . S
C582 C583 1.367 . S
C583 C582 1.367 . S
C583 C585 1.433 . S
C584 C580 1.350 . S
C584 C581 1.463 . S
C584 N588 1.427 . S
C585 H575 0.929 . S
C585 C583 1.433 . S
C585 N588 1.384 . S
C586 H577 0.929 . S
C586 C578 1.378 . S
C586 C581 1.350 . S
C587 H574 0.929 . S
C587 C579 1.433 . S
C587 N589 1.384 . S
N588 C584 1.427 . S
N588 C585 1.384 . S
N589 C581 1.427 . S
N589 C587 1.384 . S
H590 C596 0.930 . S
H591 C600 0.930 . S
H592 C605 0.929 . S
H593 C603 0.929 . S
H594 C598 0.929 . S
H595 C604 0.929 . S
C596 H590 0.930 . S
C596 C597 1.367 . S
C596 C604 1.378 . S
C597 C596 1.367 . S
C597 C605 1.433 . S
C598 H594 0.929 . S
C598 C600 1.378 . S
C598 C602 1.350 . S
C599 C602 1.463 . S
C599 C604 1.350 . S
C599 N607 1.427 . S
C600 H591 0.930 . S
C600 C598 1.378 . S
C600 C601 1.367 . S
C601 C600 1.367 . S
C601 C603 1.433 . S
C602 C598 1.350 . S
C602 C599 1.463 . S
C602 N606 1.427 . S
C603 H593 0.929 . S
C603 C601 1.433 . S
C603 N606 1.384 . S
C604 H595 0.929 . S
C604 C596 1.378 . S
C604 C599 1.350 . S
C605 H592 0.929 . S
C605 C597 1.433 . S
C605 N607 1.384 . S
N606 C602 1.427 . S
N606 C603 1.384 . S
N607 C599 1.427 . S
N607 C605 1.384 . S
H608 C614 0.930 . S
H609 C618 0.930 . S
H610 C623 0.929 . S
H611 C621 0.929 . S
H612 C616 0.929 . S
H613 C622 0.929 . S
C614 H608 0.930 . S
C614 C615 1.367 . S
C614 C622 1.378 . S
C615 C614 1.367 . S
C615 C623 1.433 . S
C616 H612 0.929 . S
C616 C618 1.378 . S
C616 C620 1.350 . S
C617 C620 1.463 . S
C617 C622 1.350 . S
C617 N625 1.427 . S
C618 H609 0.930 . S
C618 C616 1.378 . S
C618 C619 1.367 . S
C619 C618 1.367 . S
C619 C621 1.433 . S
C620 C616 1.350 . S
C620 C617 1.463 . S
C620 N624 1.427 . S
C621 H611 0.929 . S
C621 C619 1.433 . S
C621 N624 1.384 . S
C622 H613 0.929 . S
C622 C614 1.378 . S
C622 C617 1.350 . S
C623 H610 0.929 . S
C623 C615 1.433 . S
C623 N625 1.384 . S
N624 C620 1.427 . S
N624 C621 1.384 . S
N625 C617 1.427 . S
N625 C623 1.384 . S
H626 C632 0.930 . S
H627 C636 0.930 . S
H628 C641 0.929 . S
H629 C639 0.929 . S
H630 C634 0.929 . S
H631 C640 0.929 . S
C632 H626 0.930 . S
C632 C633 1.367 . S
C632 C640 1.378 . S
C633 C632 1.367 . S
C633 C641 1.433 . S
C634 H630 0.929 . S
C634 C636 1.378 . S
C634 C638 1.350 . S
C635 C638 1.463 . S
C635 C640 1.350 . S
C635 N643 1.427 . S
C636 H627 0.930 . S
C636 C634 1.378 . S
C636 C637 1.367 . S
C637 C636 1.367 . S
C637 C639 1.433 . S
C638 C634 1.350 . S
C638 C635 1.463 . S
C638 N642 1.427 . S
C639 H629 0.929 . S
C639 C637 1.433 . S
C639 N642 1.384 . S
C640 H631 0.929 . S
C640 C632 1.378 . S
C640 C635 1.350 . S
C641 H628 0.929 . S
C641 C633 1.433 . S
C641 N643 1.384 . S
N642 C638 1.427 . S
N642 C639 1.384 . S
N643 C635 1.427 . S
N643 C641 1.384 . S
H644 C650 0.930 . S
H645 C654 0.930 . S
H646 C659 0.929 . S
H647 C657 0.929 . S
H648 C652 0.929 . S
H649 C658 0.929 . S
C650 H644 0.930 . S
C650 C651 1.367 . S
C650 C658 1.378 . S
C651 C650 1.367 . S
C651 C659 1.433 . S
C652 H648 0.929 . S
C652 C654 1.378 . S
C652 C656 1.350 . S
C653 C656 1.463 . S
C653 C658 1.350 . S
C653 N661 1.427 . S
C654 H645 0.930 . S
C654 C652 1.378 . S
C654 C655 1.367 . S
C655 C654 1.367 . S
C655 C657 1.433 . S
C656 C652 1.350 . S
C656 C653 1.463 . S
C656 N660 1.427 . S
C657 H647 0.929 . S
C657 C655 1.433 . S
C657 N660 1.384 . S
C658 H649 0.929 . S
C658 C650 1.378 . S
C658 C653 1.350 . S
C659 H646 0.929 . S
C659 C651 1.433 . S
C659 N661 1.384 . S
N660 C656 1.427 . S
N660 C657 1.384 . S
N661 C653 1.427 . S
N661 C659 1.384 . S
H662 C668 0.930 . S
H663 C672 0.930 . S
H664 C677 0.929 . S
H665 C675 0.929 . S
H666 C670 0.929 . S
H667 C676 0.929 . S
C668 H662 0.930 . S
C668 C669 1.367 . S
C668 C676 1.378 . S
C669 C668 1.367 . S
C669 C677 1.433 . S
C670 H666 0.929 . S
C670 C672 1.378 . S
C670 C674 1.350 . S
C671 C674 1.463 . S
C671 C676 1.350 . S
C671 N679 1.427 . S
C672 H663 0.930 . S
C672 C670 1.378 . S
C672 C673 1.367 . S
C673 C672 1.367 . S
C673 C675 1.433 . S
C674 C670 1.350 . S
C674 C671 1.463 . S
C674 N678 1.427 . S
C675 H665 0.929 . S
C675 C673 1.433 . S
C675 N678 1.384 . S
C676 H667 0.929 . S
C676 C668 1.378 . S
C676 C671 1.350 . S
C677 H664 0.929 . S
C677 C669 1.433 . S
C677 N679 1.384 . S
N678 C674 1.427 . S
N678 C675 1.384 . S
N679 C671 1.427 . S
N679 C677 1.384 . S
H680 C686 0.930 . S
H681 C690 0.930 . S
H682 C695 0.929 . S
H683 C693 0.929 . S
H684 C688 0.929 . S
H685 C694 0.929 . S
C686 H680 0.930 . S
C686 C687 1.367 . S
C686 C694 1.378 . S
C687 C686 1.367 . S
C687 C695 1.433 . S
C688 H684 0.929 . S
C688 C690 1.378 . S
C688 C692 1.350 . S
C689 C692 1.463 . S
C689 C694 1.350 . S
C689 N697 1.427 . S
C690 H681 0.930 . S
C690 C688 1.378 . S
C690 C691 1.367 . S
C691 C690 1.367 . S
C691 C693 1.433 . S
C692 C688 1.350 . S
C692 C689 1.463 . S
C692 N696 1.427 . S
C693 H683 0.929 . S
C693 C691 1.433 . S
C693 N696 1.384 . S
C694 H685 0.929 . S
C694 C686 1.378 . S
C694 C689 1.350 . S
C695 H682 0.929 . S
C695 C687 1.433 . S
C695 N697 1.384 . S
N696 C692 1.427 . S
N696 C693 1.384 . S
N697 C689 1.427 . S
N697 C695 1.384 . S
H698 C704 0.930 . S
H699 C708 0.930 . S
H700 C713 0.929 . S
H701 C711 0.929 . S
H702 C706 0.929 . S
H703 C712 0.929 . S
C704 H698 0.930 . S
C704 C705 1.367 . S
C704 C712 1.378 . S
C705 C704 1.367 . S
C705 C713 1.433 1_655 S
C706 H702 0.929 . S
C706 C708 1.378 . S
C706 C710 1.350 1_455 S
C707 C710 1.463 . S
C707 C712 1.350 . S
C707 N715 1.427 1_655 S
C708 H699 0.930 . S
C708 C706 1.378 . S
C708 C709 1.367 1_455 S
C709 C708 1.367 1_655 S
C709 C711 1.433 . S
C710 C706 1.350 1_655 S
C710 C707 1.463 . S
C710 N714 1.427 . S
C711 H701 0.929 . S
C711 C709 1.433 . S
C711 N714 1.384 . S
C712 H703 0.929 . S
C712 C704 1.378 . S
C712 C707 1.350 . S
C713 H700 0.929 . S
C713 C705 1.433 1_455 S
C713 N715 1.384 . S
N714 C710 1.427 . S
N714 C711 1.384 . S
N715 C707 1.427 1_455 S
N715 C713 1.384 . S
H716 C722 0.930 . S
H717 C726 0.930 . S
H718 C731 0.929 . S
H719 C729 0.929 . S
H720 C724 0.929 . S
H721 C730 0.929 . S
C722 H716 0.930 . S
C722 C723 1.367 . S
C722 C730 1.378 . S
C723 C722 1.367 . S
C723 C731 1.433 . S
C724 H720 0.929 . S
C724 C726 1.378 . S
C724 C728 1.350 . S
C725 C728 1.463 . S
C725 C730 1.350 . S
C725 N733 1.427 . S
C726 H717 0.930 . S
C726 C724 1.378 . S
C726 C727 1.367 . S
C727 C726 1.367 . S
C727 C729 1.433 . S
C728 C724 1.350 . S
C728 C725 1.463 . S
C728 N732 1.427 . S
C729 H719 0.929 . S
C729 C727 1.433 . S
C729 N732 1.384 . S
C730 H721 0.929 . S
C730 C722 1.378 . S
C730 C725 1.350 . S
C731 H718 0.929 . S
C731 C723 1.433 . S
C731 N733 1.384 . S
N732 C728 1.427 . S
N732 C729 1.384 . S
N733 C725 1.427 . S
N733 C731 1.384 . S
H734 C740 0.930 . S
H735 C744 0.930 . S
H736 C749 0.929 . S
H737 C747 0.929 . S
H738 C742 0.929 . S
H739 C748 0.929 . S
C740 H734 0.930 . S
C740 C741 1.367 . S
C740 C748 1.378 . S
C741 C740 1.367 . S
C741 C749 1.433 . S
C742 H738 0.929 . S
C742 C744 1.378 . S
C742 C746 1.350 . S
C743 C746 1.463 . S
C743 C748 1.350 . S
C743 N751 1.427 . S
C744 H735 0.930 . S
C744 C742 1.378 . S
C744 C745 1.367 . S
C745 C744 1.367 . S
C745 C747 1.433 . S
C746 C742 1.350 . S
C746 C743 1.463 . S
C746 N750 1.427 . S
C747 H737 0.929 . S
C747 C745 1.433 . S
C747 N750 1.384 . S
C748 H739 0.929 . S
C748 C740 1.378 . S
C748 C743 1.350 . S
C749 H736 0.929 . S
C749 C741 1.433 . S
C749 N751 1.384 . S
N750 C746 1.427 . S
N750 C747 1.384 . S
N751 C743 1.427 . S
N751 C749 1.384 . S
H752 C758 0.930 . S
H753 C762 0.930 . S
H754 C767 0.929 . S
H755 C765 0.929 . S
H756 C760 0.929 . S
H757 C766 0.929 . S
C758 H752 0.930 . S
C758 C759 1.367 . S
C758 C766 1.378 . S
C759 C758 1.367 . S
C759 C767 1.433 . S
C760 H756 0.929 . S
C760 C762 1.378 . S
C760 C764 1.350 . S
C761 C764 1.463 . S
C761 C766 1.350 . S
C761 N769 1.427 . S
C762 H753 0.930 . S
C762 C760 1.378 . S
C762 C763 1.367 . S
C763 C762 1.367 . S
C763 C765 1.433 . S
C764 C760 1.350 . S
C764 C761 1.463 . S
C764 N768 1.427 . S
C765 H755 0.929 . S
C765 C763 1.433 . S
C765 N768 1.384 . S
C766 H757 0.929 . S
C766 C758 1.378 . S
C766 C761 1.350 . S
C767 H754 0.929 . S
C767 C759 1.433 . S
C767 N769 1.384 . S
N768 C764 1.427 . S
N768 C765 1.384 . S
N769 C761 1.427 . S
N769 C767 1.384 . S
H770 C776 0.930 . S
H771 C780 0.930 . S
H772 C785 0.929 . S
H773 C783 0.929 . S
H774 C778 0.929 . S
H775 C784 0.929 . S
C776 H770 0.930 . S
C776 C777 1.367 . S
C776 C784 1.378 . S
C777 C776 1.367 . S
C777 C785 1.433 . S
C778 H774 0.929 . S
C778 C780 1.378 . S
C778 C782 1.350 . S
C779 C782 1.463 . S
C779 C784 1.350 . S
C779 N787 1.427 . S
C780 H771 0.930 . S
C780 C778 1.378 . S
C780 C781 1.367 . S
C781 C780 1.367 . S
C781 C783 1.433 . S
C782 C778 1.350 . S
C782 C779 1.463 . S
C782 N786 1.427 . S
C783 H773 0.929 . S
C783 C781 1.433 . S
C783 N786 1.384 . S
C784 H775 0.929 . S
C784 C776 1.378 . S
C784 C779 1.350 . S
C785 H772 0.929 . S
C785 C777 1.433 . S
C785 N787 1.384 . S
N786 C782 1.427 . S
N786 C783 1.384 . S
N787 C779 1.427 . S
N787 C785 1.384 . S
H788 C794 0.930 . S
H789 C798 0.930 . S
H790 C803 0.929 . S
H791 C801 0.929 . S
H792 C796 0.929 . S
H793 C802 0.929 . S
C794 H788 0.930 . S
C794 C795 1.367 1_565 S
C794 C802 1.378 . S
C795 C794 1.367 1_545 S
C795 C803 1.433 . S
C796 H792 0.929 . S
C796 C798 1.378 . S
C796 C800 1.350 . S
C797 C800 1.463 . S
C797 C802 1.350 1_545 S
C797 N805 1.427 . S
C798 H789 0.930 . S
C798 C796 1.378 . S
C798 C799 1.367 . S
C799 C798 1.367 . S
C799 C801 1.433 1_545 S
C800 C796 1.350 . S
C800 C797 1.463 . S
C800 N804 1.427 1_545 S
C801 H791 0.929 . S
C801 C799 1.433 1_565 S
C801 N804 1.384 . S
C802 H793 0.929 . S
C802 C794 1.378 . S
C802 C797 1.350 1_565 S
C803 H790 0.929 . S
C803 C795 1.433 . S
C803 N805 1.384 . S
N804 C800 1.427 1_565 S
N804 C801 1.384 . S
N805 C797 1.427 . S
N805 C803 1.384 . S
H806 C812 0.930 . S
H807 C816 0.930 . S
H808 C821 0.929 . S
H809 C819 0.929 . S
H810 C814 0.929 . S
H811 C820 0.929 . S
C812 H806 0.930 . S
C812 C813 1.367 1_556 S
C812 C820 1.378 . S
C813 C812 1.367 1_554 S
C813 C821 1.433 . S
C814 H810 0.929 . S
C814 C816 1.378 . S
C814 C818 1.350 . S
C815 C818 1.463 . S
C815 C820 1.350 1_554 S
C815 N823 1.427 . S
C816 H807 0.930 . S
C816 C814 1.378 . S
C816 C817 1.366 . S
C817 C816 1.366 . S
C817 C819 1.434 1_554 S
C818 C814 1.350 . S
C818 C815 1.463 . S
C818 N822 1.427 1_554 S
C819 H809 0.929 . S
C819 C817 1.434 1_556 S
C819 N822 1.384 . S
C820 H811 0.929 . S
C820 C812 1.378 . S
C820 C815 1.350 1_556 S
C821 H808 0.929 . S
C821 C813 1.433 . S
C821 N823 1.384 . S
N822 C818 1.427 1_556 S
N822 C819 1.384 . S
N823 C815 1.427 . S
N823 C821 1.384 . S
H824 C830 0.930 . S
H825 C834 0.930 . S
H826 C839 0.929 . S
H827 C837 0.929 . S
H828 C832 0.929 . S
H829 C838 0.929 . S
C830 H824 0.930 . S
C830 C831 1.367 . S
C830 C838 1.378 . S
C831 C830 1.367 . S
C831 C839 1.433 . S
C832 H828 0.929 . S
C832 C834 1.378 . S
C832 C836 1.350 . S
C833 C836 1.463 . S
C833 C838 1.350 . S
C833 N841 1.427 . S
C834 H825 0.930 . S
C834 C832 1.378 . S
C834 C835 1.367 . S
C835 C834 1.367 . S
C835 C837 1.433 . S
C836 C832 1.350 . S
C836 C833 1.463 . S
C836 N840 1.427 . S
C837 H827 0.929 . S
C837 C835 1.433 . S
C837 N840 1.384 . S
C838 H829 0.929 . S
C838 C830 1.378 . S
C838 C833 1.350 . S
C839 H826 0.929 . S
C839 C831 1.433 . S
C839 N841 1.384 . S
N840 C836 1.427 . S
N840 C837 1.384 . S
N841 C833 1.427 . S
N841 C839 1.384 . S
H842 C848 0.930 . S
H843 C852 0.930 . S
H844 C857 0.929 . S
H845 C855 0.929 . S
H846 C850 0.929 . S
H847 C856 0.929 . S
C848 H842 0.930 . S
C848 C849 1.367 . S
C848 C856 1.378 . S
C849 C848 1.367 . S
C849 C857 1.433 . S
C850 H846 0.929 . S
C850 C852 1.378 . S
C850 C854 1.350 . S
C851 C854 1.463 . S
C851 C856 1.350 . S
C851 N859 1.427 . S
C852 H843 0.930 . S
C852 C850 1.378 . S
C852 C853 1.367 . S
C853 C852 1.367 . S
C853 C855 1.433 . S
C854 C850 1.350 . S
C854 C851 1.463 . S
C854 N858 1.427 . S
C855 H845 0.929 . S
C855 C853 1.433 . S
C855 N858 1.384 . S
C856 H847 0.929 . S
C856 C848 1.378 . S
C856 C851 1.350 . S
C857 H844 0.929 . S
C857 C849 1.433 . S
C857 N859 1.384 . S
N858 C854 1.427 . S
N858 C855 1.384 . S
N859 C851 1.427 . S
N859 C857 1.384 . S
H860 C866 0.930 . S
H861 C870 0.930 . S
H862 C875 0.929 . S
H863 C873 0.929 . S
H864 C868 0.929 . S
H865 C874 0.929 . S
C866 H860 0.930 . S
C866 C867 1.367 . S
C866 C874 1.378 . S
C867 C866 1.367 . S
C867 C875 1.433 . S
C868 H864 0.929 . S
C868 C870 1.378 . S
C868 C872 1.350 . S
C869 C872 1.463 . S
C869 C874 1.350 . S
C869 N877 1.427 . S
C870 H861 0.930 . S
C870 C868 1.378 . S
C870 C871 1.367 . S
C871 C870 1.367 . S
C871 C873 1.433 . S
C872 C868 1.350 . S
C872 C869 1.463 . S
C872 N876 1.427 . S
C873 H863 0.929 . S
C873 C871 1.433 . S
C873 N876 1.384 . S
C874 H865 0.929 . S
C874 C866 1.378 . S
C874 C869 1.350 . S
C875 H862 0.929 . S
C875 C867 1.433 . S
C875 N877 1.384 . S
N876 C872 1.427 . S
N876 C873 1.384 . S
N877 C869 1.427 . S
N877 C875 1.384 . S
H878 C884 0.930 . S
H879 C888 0.930 . S
H880 C893 0.929 . S
H881 C891 0.929 . S
H882 C886 0.929 . S
H883 C892 0.929 . S
C884 H878 0.930 . S
C884 C885 1.367 . S
C884 C892 1.378 . S
C885 C884 1.367 . S
C885 C893 1.433 . S
C886 H882 0.929 . S
C886 C888 1.378 . S
C886 C890 1.350 . S
C887 C890 1.463 . S
C887 C892 1.350 . S
C887 N895 1.427 . S
C888 H879 0.930 . S
C888 C886 1.378 . S
C888 C889 1.367 . S
C889 C888 1.367 . S
C889 C891 1.433 . S
C890 C886 1.350 . S
C890 C887 1.463 . S
C890 N894 1.427 . S
C891 H881 0.929 . S
C891 C889 1.433 . S
C891 N894 1.384 . S
C892 H883 0.929 . S
C892 C884 1.378 . S
C892 C887 1.350 . S
C893 H880 0.929 . S
C893 C885 1.433 . S
C893 N895 1.384 . S
N894 C890 1.427 . S
N894 C891 1.384 . S
N895 C887 1.427 . S
N895 C893 1.384 . S
H896 C902 0.930 . S
H897 C906 0.930 . S
H898 C911 0.929 . S
H899 C909 0.929 . S
H900 C904 0.929 . S
H901 C910 0.929 . S
C902 H896 0.930 . S
C902 C903 1.367 . S
C902 C910 1.378 . S
C903 C902 1.367 . S
C903 C911 1.433 . S
C904 H900 0.929 . S
C904 C906 1.378 . S
C904 C908 1.350 . S
C905 C908 1.463 . S
C905 C910 1.350 . S
C905 N913 1.427 . S
C906 H897 0.930 . S
C906 C904 1.378 . S
C906 C907 1.367 . S
C907 C906 1.367 . S
C907 C909 1.433 . S
C908 C904 1.350 . S
C908 C905 1.463 . S
C908 N912 1.427 . S
C909 H899 0.929 . S
C909 C907 1.433 . S
C909 N912 1.384 . S
C910 H901 0.929 . S
C910 C902 1.378 . S
C910 C905 1.350 . S
C911 H898 0.929 . S
C911 C903 1.433 . S
C911 N913 1.384 . S
N912 C908 1.427 . S
N912 C909 1.384 . S
N913 C905 1.427 . S
N913 C911 1.384 . S
H914 C920 0.930 . S
H915 C924 0.930 . S
H916 C929 0.929 . S
H917 C927 0.929 . S
H918 C922 0.929 . S
H919 C928 0.929 . S
C920 H914 0.930 . S
C920 C921 1.367 . S
C920 C928 1.378 . S
C921 C920 1.367 . S
C921 C929 1.433 . S
C922 H918 0.929 . S
C922 C924 1.378 . S
C922 C926 1.350 . S
C923 C926 1.463 . S
C923 C928 1.350 . S
C923 N931 1.427 . S
C924 H915 0.930 . S
C924 C922 1.378 . S
C924 C925 1.367 . S
C925 C924 1.367 . S
C925 C927 1.433 . S
C926 C922 1.350 . S
C926 C923 1.463 . S
C926 N930 1.427 . S
C927 H917 0.929 . S
C927 C925 1.433 . S
C927 N930 1.384 . S
C928 H919 0.929 . S
C928 C920 1.378 . S
C928 C923 1.350 . S
C929 H916 0.929 . S
C929 C921 1.433 . S
C929 N931 1.384 . S
N930 C926 1.427 . S
N930 C927 1.384 . S
N931 C923 1.427 . S
N931 C929 1.384 . S
H932 C938 0.930 . S
H933 C942 0.930 . S
H934 C947 0.929 . S
H935 C945 0.929 . S
H936 C940 0.929 . S
H937 C946 0.929 . S
C938 H932 0.930 . S
C938 C939 1.367 . S
C938 C946 1.378 . S
C939 C938 1.367 . S
C939 C947 1.433 . S
C940 H936 0.929 . S
C940 C942 1.378 . S
C940 C944 1.350 . S
C941 C944 1.463 . S
C941 C946 1.350 . S
C941 N949 1.427 . S
C942 H933 0.930 . S
C942 C940 1.378 . S
C942 C943 1.367 . S
C943 C942 1.367 . S
C943 C945 1.433 . S
C944 C940 1.350 . S
C944 C941 1.463 . S
C944 N948 1.427 . S
C945 H935 0.929 . S
C945 C943 1.433 . S
C945 N948 1.384 . S
C946 H937 0.929 . S
C946 C938 1.378 . S
C946 C941 1.350 . S
C947 H934 0.929 . S
C947 C939 1.433 . S
C947 N949 1.384 . S
N948 C944 1.427 . S
N948 C945 1.384 . S
N949 C941 1.427 . S
N949 C947 1.384 . S
H950 C956 0.930 . S
H951 C960 0.930 . S
H952 C965 0.929 . S
H953 C963 0.929 . S
H954 C958 0.929 . S
H955 C964 0.929 . S
C956 H950 0.930 . S
C956 C957 1.367 . S
C956 C964 1.378 . S
C957 C956 1.367 . S
C957 C965 1.433 . S
C958 H954 0.929 . S
C958 C960 1.378 . S
C958 C962 1.350 . S
C959 C962 1.463 . S
C959 C964 1.350 . S
C959 N967 1.427 . S
C960 H951 0.930 . S
C960 C958 1.378 . S
C960 C961 1.367 . S
C961 C960 1.367 . S
C961 C963 1.433 . S
C962 C958 1.350 . S
C962 C959 1.463 . S
C962 N966 1.427 . S
C963 H953 0.929 . S
C963 C961 1.433 . S
C963 N966 1.384 . S
C964 H955 0.929 . S
C964 C956 1.378 . S
C964 C959 1.350 . S
C965 H952 0.929 . S
C965 C957 1.433 . S
C965 N967 1.384 . S
N966 C962 1.427 . S
N966 C963 1.384 . S
N967 C959 1.427 . S
N967 C965 1.384 . S
H968 C974 0.930 . S
H969 C978 0.930 . S
H970 C983 0.929 . S
H971 C981 0.929 . S
H972 C976 0.929 . S
H973 C982 0.929 . S
C974 H968 0.930 . S
C974 C975 1.367 . S
C974 C982 1.378 . S
C975 C974 1.367 . S
C975 C983 1.433 . S
C976 H972 0.929 . S
C976 C978 1.378 . S
C976 C980 1.350 . S
C977 C980 1.463 . S
C977 C982 1.350 . S
C977 N985 1.427 . S
C978 H969 0.930 . S
C978 C976 1.378 . S
C978 C979 1.367 . S
C979 C978 1.367 . S
C979 C981 1.433 . S
C980 C976 1.350 . S
C980 C977 1.463 . S
C980 N984 1.427 . S
C981 H971 0.929 . S
C981 C979 1.433 . S
C981 N984 1.384 . S
C982 H973 0.929 . S
C982 C974 1.378 . S
C982 C977 1.350 . S
C983 H970 0.929 . S
C983 C975 1.433 . S
C983 N985 1.384 . S
N984 C980 1.427 . S
N984 C981 1.384 . S
N985 C977 1.427 . S
N985 C983 1.384 . S
H986 C992 0.930 . S
H987 C996 0.930 . S
H988 C1001 0.929 . S
H989 C999 0.929 . S
H990 C994 0.929 . S
H991 C1000 0.929 . S
C992 H986 0.930 . S
C992 C993 1.386 . S
C992 C1000 1.378 . S
C993 C992 1.386 . S
C993 C1001 1.416 1_554 S
C994 H990 0.929 . S
C994 C996 1.378 . S
C994 C998 1.328 1_556 S
C995 C998 1.461 . S
C995 C1000 1.350 . S
C995 N1003 1.427 1_554 S
C996 H987 0.930 . S
C996 C994 1.378 . S
C996 C997 1.367 1_556 S
C997 C996 1.367 1_554 S
C997 C999 1.433 . S
C998 C994 1.328 1_554 S
C998 C995 1.461 . S
C998 N1002 1.453 . S
C999 H989 0.929 . S
C999 C997 1.433 . S
C999 N1002 1.384 . S
C1000 H991 0.929 . S
C1000 C992 1.378 . S
C1000 C995 1.350 . S
C1001 H988 0.929 . S
C1001 C993 1.416 1_556 S
C1001 N1003 1.384 . S
N1002 C998 1.453 . S
N1002 C999 1.384 . S
N1003 C995 1.427 1_556 S
N1003 C1001 1.384 . S
H1004 C1010 0.930 . S
H1005 C1014 0.930 . S
H1006 C1019 0.929 . S
H1007 C1017 0.929 . S
H1008 C1012 0.929 . S
H1009 C1018 0.929 . S
C1010 H1004 0.930 . S
C1010 C1011 1.367 . S
C1010 C1018 1.378 . S
C1011 C1010 1.367 . S
C1011 C1019 1.433 . S
C1012 H1008 0.929 . S
C1012 C1014 1.378 . S
C1012 C1016 1.350 . S
C1013 C1016 1.463 . S
C1013 C1018 1.350 . S
C1013 N1021 1.427 . S
C1014 H1005 0.930 . S
C1014 C1012 1.378 . S
C1014 C1015 1.367 . S
C1015 C1014 1.367 . S
C1015 C1017 1.433 . S
C1016 C1012 1.350 . S
C1016 C1013 1.463 . S
C1016 N1020 1.427 . S
C1017 H1007 0.929 . S
C1017 C1015 1.433 . S
C1017 N1020 1.384 . S
C1018 H1009 0.929 . S
C1018 C1010 1.378 . S
C1018 C1013 1.350 . S
C1019 H1006 0.929 . S
C1019 C1011 1.433 . S
C1019 N1021 1.384 . S
N1020 C1016 1.427 . S
N1020 C1017 1.384 . S
N1021 C1013 1.427 . S
N1021 C1019 1.384 . S
H1022 C1028 0.930 . S
H1023 C1032 0.930 . S
H1024 C1037 0.929 . S
H1025 C1035 0.929 . S
H1026 C1030 0.929 . S
H1027 C1036 0.929 . S
C1028 H1022 0.930 . S
C1028 C1029 1.367 . S
C1028 C1036 1.378 . S
C1029 C1028 1.367 . S
C1029 C1037 1.433 . S
C1030 H1026 0.929 . S
C1030 C1032 1.378 . S
C1030 C1034 1.350 . S
C1031 C1034 1.463 . S
C1031 C1036 1.350 . S
C1031 N1039 1.427 . S
C1032 H1023 0.930 . S
C1032 C1030 1.378 . S
C1032 C1033 1.367 . S
C1033 C1032 1.367 . S
C1033 C1035 1.433 . S
C1034 C1030 1.350 . S
C1034 C1031 1.463 . S
C1034 N1038 1.427 . S
C1035 H1025 0.929 . S
C1035 C1033 1.433 . S
C1035 N1038 1.384 . S
C1036 H1027 0.929 . S
C1036 C1028 1.378 . S
C1036 C1031 1.350 . S
C1037 H1024 0.929 . S
C1037 C1029 1.433 . S
C1037 N1039 1.384 . S
N1038 C1034 1.427 . S
N1038 C1035 1.384 . S
N1039 C1031 1.427 . S
N1039 C1037 1.384 . S
H1040 C1046 0.930 . S
H1041 C1050 0.930 . S
H1042 C1055 0.929 . S
H1043 C1053 0.929 . S
H1044 C1048 0.929 . S
H1045 C1054 0.929 . S
C1046 H1040 0.930 . S
C1046 C1047 1.367 . S
C1046 C1054 1.378 . S
C1047 C1046 1.367 . S
C1047 C1055 1.433 . S
C1048 H1044 0.929 . S
C1048 C1050 1.378 . S
C1048 C1052 1.350 . S
C1049 C1052 1.463 . S
C1049 C1054 1.350 . S
C1049 N1057 1.427 . S
C1050 H1041 0.930 . S
C1050 C1048 1.378 . S
C1050 C1051 1.367 . S
C1051 C1050 1.367 . S
C1051 C1053 1.433 . S
C1052 C1048 1.350 . S
C1052 C1049 1.463 . S
C1052 N1056 1.427 . S
C1053 H1043 0.929 . S
C1053 C1051 1.433 . S
C1053 N1056 1.384 . S
C1054 H1045 0.929 . S
C1054 C1046 1.378 . S
C1054 C1049 1.350 . S
C1055 H1042 0.929 . S
C1055 C1047 1.433 . S
C1055 N1057 1.384 . S
N1056 C1052 1.427 . S
N1056 C1053 1.384 . S
N1057 C1049 1.427 . S
N1057 C1055 1.384 . S
H1058 C1064 0.930 . S
H1059 C1068 0.930 . S
H1060 C1073 0.929 . S
H1061 C1071 0.929 . S
H1062 C1066 0.929 . S
H1063 C1072 0.929 . S
C1064 H1058 0.930 . S
C1064 C1065 1.367 . S
C1064 C1072 1.378 . S
C1065 C1064 1.367 . S
C1065 C1073 1.433 . S
C1066 H1062 0.929 . S
C1066 C1068 1.378 . S
C1066 C1070 1.350 . S
C1067 C1070 1.463 . S
C1067 C1072 1.350 . S
C1067 N1075 1.427 . S
C1068 H1059 0.930 . S
C1068 C1066 1.378 . S
C1068 C1069 1.367 . S
C1069 C1068 1.367 . S
C1069 C1071 1.433 . S
C1070 C1066 1.350 . S
C1070 C1067 1.463 . S
C1070 N1074 1.427 . S
C1071 H1061 0.929 . S
C1071 C1069 1.433 . S
C1071 N1074 1.384 . S
C1072 H1063 0.929 . S
C1072 C1064 1.378 . S
C1072 C1067 1.350 . S
C1073 H1060 0.929 . S
C1073 C1065 1.433 . S
C1073 N1075 1.384 . S
N1074 C1070 1.427 . S
N1074 C1071 1.384 . S
N1075 C1067 1.427 . S
N1075 C1073 1.384 . S
H1076 C1082 0.930 . S
H1077 C1086 0.930 . S
H1078 C1091 0.929 . S
H1079 C1089 0.929 . S
H1080 C1084 0.929 . S
H1081 C1090 0.929 . S
C1082 H1076 0.930 . S
C1082 C1083 1.367 1_556 S
C1082 C1090 1.378 . S
C1083 C1082 1.367 1_554 S
C1083 C1091 1.433 . S
C1084 H1080 0.929 . S
C1084 C1086 1.378 . S
C1084 C1088 1.350 . S
C1085 C1088 1.463 . S
C1085 C1090 1.350 1_554 S
C1085 N1093 1.427 . S
C1086 H1077 0.930 . S
C1086 C1084 1.378 . S
C1086 C1087 1.367 . S
C1087 C1086 1.367 . S
C1087 C1089 1.433 1_554 S
C1088 C1084 1.350 . S
C1088 C1085 1.463 . S
C1088 N1092 1.427 1_554 S
C1089 H1079 0.929 . S
C1089 C1087 1.433 1_556 S
C1089 N1092 1.384 . S
C1090 H1081 0.929 . S
C1090 C1082 1.378 . S
C1090 C1085 1.350 1_556 S
C1091 H1078 0.929 . S
C1091 C1083 1.433 . S
C1091 N1093 1.384 . S
N1092 C1088 1.427 1_556 S
N1092 C1089 1.384 . S
N1093 C1085 1.427 . S
N1093 C1091 1.384 . S
H1094 C1100 0.930 . S
H1095 C1104 0.930 . S
H1096 C1109 0.929 . S
H1097 C1107 0.929 . S
H1098 C1102 0.929 . S
H1099 C1108 0.929 . S
C1100 H1094 0.930 . S
C1100 C1101 1.367 . S
C1100 C1108 1.378 . S
C1101 C1100 1.367 . S
C1101 C1109 1.433 . S
C1102 H1098 0.929 . S
C1102 C1104 1.378 . S
C1102 C1106 1.350 . S
C1103 C1106 1.463 . S
C1103 C1108 1.350 . S
C1103 N1111 1.427 . S
C1104 H1095 0.930 . S
C1104 C1102 1.378 . S
C1104 C1105 1.367 . S
C1105 C1104 1.367 . S
C1105 C1107 1.433 . S
C1106 C1102 1.350 . S
C1106 C1103 1.463 . S
C1106 N1110 1.427 . S
C1107 H1097 0.929 . S
C1107 C1105 1.433 . S
C1107 N1110 1.384 . S
C1108 H1099 0.929 . S
C1108 C1100 1.378 . S
C1108 C1103 1.350 . S
C1109 H1096 0.929 . S
C1109 C1101 1.433 . S
C1109 N1111 1.384 . S
N1110 C1106 1.427 . S
N1110 C1107 1.384 . S
N1111 C1103 1.427 . S
N1111 C1109 1.384 . S
H1112 C1118 0.930 . S
H1113 C1122 0.930 . S
H1114 C1127 0.929 . S
H1115 C1125 0.929 . S
H1116 C1120 0.929 . S
H1117 C1126 0.929 . S
C1118 H1112 0.930 . S
C1118 C1119 1.367 . S
C1118 C1126 1.378 . S
C1119 C1118 1.367 . S
C1119 C1127 1.433 . S
C1120 H1116 0.929 . S
C1120 C1122 1.378 . S
C1120 C1124 1.350 . S
C1121 C1124 1.463 . S
C1121 C1126 1.350 . S
C1121 N1129 1.427 . S
C1122 H1113 0.930 . S
C1122 C1120 1.378 . S
C1122 C1123 1.367 . S
C1123 C1122 1.367 . S
C1123 C1125 1.433 . S
C1124 C1120 1.350 . S
C1124 C1121 1.463 . S
C1124 N1128 1.427 . S
C1125 H1115 0.929 . S
C1125 C1123 1.433 . S
C1125 N1128 1.384 . S
C1126 H1117 0.929 . S
C1126 C1118 1.378 . S
C1126 C1121 1.350 . S
C1127 H1114 0.929 . S
C1127 C1119 1.433 . S
C1127 N1129 1.384 . S
N1128 C1124 1.427 . S
N1128 C1125 1.384 . S
N1129 C1121 1.427 . S
N1129 C1127 1.384 . S
H1130 C1136 0.930 . S
H1131 C1140 0.930 . S
H1132 C1145 0.929 . S
H1133 C1143 0.929 . S
H1134 C1138 0.929 . S
H1135 C1144 0.929 . S
C1136 H1130 0.930 . S
C1136 C1137 1.367 . S
C1136 C1144 1.378 . S
C1137 C1136 1.367 . S
C1137 C1145 1.433 . S
C1138 H1134 0.929 . S
C1138 C1140 1.378 . S
C1138 C1142 1.350 . S
C1139 C1142 1.463 . S
C1139 C1144 1.350 . S
C1139 N1147 1.427 . S
C1140 H1131 0.930 . S
C1140 C1138 1.378 . S
C1140 C1141 1.367 . S
C1141 C1140 1.367 . S
C1141 C1143 1.433 . S
C1142 C1138 1.350 . S
C1142 C1139 1.463 . S
C1142 N1146 1.427 . S
C1143 H1133 0.929 . S
C1143 C1141 1.433 . S
C1143 N1146 1.384 . S
C1144 H1135 0.929 . S
C1144 C1136 1.378 . S
C1144 C1139 1.350 . S
C1145 H1132 0.929 . S
C1145 C1137 1.433 . S
C1145 N1147 1.384 . S
N1146 C1142 1.427 . S
N1146 C1143 1.384 . S
N1147 C1139 1.427 . S
N1147 C1145 1.384 . S
H1148 C1154 0.930 . S
H1149 C1158 0.930 . S
H1150 C1163 0.929 . S
H1151 C1161 0.929 . S
H1152 C1156 0.929 . S
H1153 C1162 0.929 . S
C1154 H1148 0.930 . S
C1154 C1155 1.367 . S
C1154 C1162 1.378 . S
C1155 C1154 1.367 . S
C1155 C1163 1.433 . S
C1156 H1152 0.929 . S
C1156 C1158 1.378 . S
C1156 C1160 1.350 . S
C1157 C1160 1.463 . S
C1157 C1162 1.350 . S
C1157 N1165 1.427 . S
C1158 H1149 0.930 . S
C1158 C1156 1.378 . S
C1158 C1159 1.367 . S
C1159 C1158 1.367 . S
C1159 C1161 1.433 . S
C1160 C1156 1.350 . S
C1160 C1157 1.463 . S
C1160 N1164 1.427 . S
C1161 H1151 0.929 . S
C1161 C1159 1.433 . S
C1161 N1164 1.384 . S
C1162 H1153 0.929 . S
C1162 C1154 1.378 . S
C1162 C1157 1.350 . S
C1163 H1150 0.929 . S
C1163 C1155 1.433 . S
C1163 N1165 1.384 . S
N1164 C1160 1.427 . S
N1164 C1161 1.384 . S
N1165 C1157 1.427 . S
N1165 C1163 1.384 . S
H1166 C1172 0.930 . S
H1167 C1176 0.930 . S
H1168 C1181 0.929 . S
H1169 C1179 0.929 . S
H1170 C1174 0.929 . S
H1171 C1180 0.929 . S
C1172 H1166 0.930 . S
C1172 C1173 1.367 . S
C1172 C1180 1.378 . S
C1173 C1172 1.367 . S
C1173 C1181 1.433 . S
C1174 H1170 0.929 . S
C1174 C1176 1.378 . S
C1174 C1178 1.350 . S
C1175 C1178 1.463 . S
C1175 C1180 1.350 . S
C1175 N1183 1.427 . S
C1176 H1167 0.930 . S
C1176 C1174 1.378 . S
C1176 C1177 1.367 . S
C1177 C1176 1.367 . S
C1177 C1179 1.433 . S
C1178 C1174 1.350 . S
C1178 C1175 1.463 . S
C1178 N1182 1.427 . S
C1179 H1169 0.929 . S
C1179 C1177 1.433 . S
C1179 N1182 1.384 . S
C1180 H1171 0.929 . S
C1180 C1172 1.378 . S
C1180 C1175 1.350 . S
C1181 H1168 0.929 . S
C1181 C1173 1.433 . S
C1181 N1183 1.384 . S
N1182 C1178 1.427 . S
N1182 C1179 1.384 . S
N1183 C1175 1.427 . S
N1183 C1181 1.384 . S
C327 C6 1.121 . S
C331 C39 1.129 . S
C345 C49 0.945 . S
C349 C36 0.929 . S
C363 C76 0.875 . S
C367 C46 0.873 . S
C381 C9 1.022 . S
C385 C79 0.987 . S
C399 C1 1.017 . S
C403 C188 0.991 1_545 S
C417 C156 1.130 . S
C421 C28 1.114 . S
C435 C41 1.136 . S
C439 C206 1.098 . S
C453 C66 0.986 . S
C457 C276 1.000 . S
C471 C161 0.957 . S
C475 C26 0.941 . S
C489 C246 1.013 . S
C493 C56 1.014 . S
C507 C296 1.049 . S
C511 C68 1.055 . S
C525 C16 1.135 . S
C529 C228 1.116 . S
C543 C19 1.250 . S
C547 C179 1.264 1_554 S
C561 C249 1.447 . S
C565 C81 1.463 . S
C579 C108 1.326 . S
C583 C299 1.281 . S
C597 C221 1.360 . S
C601 C129 1.356 . S
C615 C48 1.291 . S
C619 C148 1.270 . S
C633 C181 1.406 . S
C637 C89 1.399 . S
C651 C121 1.448 . S
C655 C209 1.463 . S
C669 C101 0.943 . S
C673 C226 0.937 . S
C687 C186 0.879 . S
C691 C116 0.865 . S
C705 C239 1.116 . S
C709 C146 1.116 . S
C723 C109 1.137 . S
C727 C96 1.099 . S
C741 C196 0.998 . S
C745 C166 0.988 . S
C759 C269 0.955 . S
C763 C236 0.935 . S
C777 C136 1.022 . S
C781 C106 1.005 . S
C795 C199 1.054 . S
C799 C286 1.051 . S
C813 C268 1.278 . S
C817 C8 1.239 . S
C831 C59 1.309 . S
C835 C288 1.301 . S
C849 C241 1.356 . S
C853 C29 1.359 . S
C867 C159 1.259 . S
C871 C119 1.285 . S
C885 C69 1.406 . S
C889 C201 1.399 . S
C903 C256 0.991 . S
C907 C266 0.971 . S
C921 C149 1.382 . S
C925 C259 1.336 . S
C939 C128 1.331 . S
C943 C141 1.382 . S
C957 C86 0.945 . S
C961 C261 0.959 . S
C975 C248 1.317 . S
C979 C301 1.374 . S
C993 C308 1.290 . S
C997 C168 1.322 . S
C1011 C21 1.317 . S
C1015 C189 1.297 . S
C1029 C176 0.974 . S
C1033 C126 0.990 . S
C1047 C169 0.951 . S
C1051 C216 0.958 . S
C1065 C309 1.371 . S
C1069 C139 1.322 . S
C1083 C279 1.309 1_554 S
C1087 C319 1.314 . S
C1101 C229 1.317 . S
C1105 C61 1.296 . S
C1119 C219 1.473 . S
C1123 C289 1.516 . S
C1137 C208 1.426 . S
C1141 C316 1.438 . S
C1155 C88 1.465 . S
C1159 C281 1.514 . S
C1173 C306 1.445 . S
C1177 C99 1.430 . S
