# Generated by pormake.
# Topology lcy-e, (6)-cn, num edge types: 1
# Building blocks:
#     Node 0, Type 0, BuildingBlock: BETDIP_clean_sbu_0, # of connection points: 6
#     Node 1, Type 0, BuildingBlock: BETDIP_clean_sbu_0, # of connection points: 6
#     Node 2, Type 0, BuildingBlock: BETDIP_clean_sbu_0, # of connection points: 6
#     Node 3, Type 0, BuildingBlock: BETDIP_clean_sbu_0, # of connection points: 6
#     Node 4, Type 0, BuildingBlock: BETDIP_clean_sbu_0, # of connection points: 6
#     Node 5, Type 0, BuildingBlock: BETDIP_clean_sbu_0, # of connection points: 6
#     Node 6, Type 0, BuildingBlock: BETDIP_clean_sbu_0, # of connection points: 6
#     Node 7, Type 0, BuildingBlock: BETDIP_clean_sbu_0, # of connection points: 6
#     Node 8, Type 0, BuildingBlock: BETDIP_clean_sbu_0, # of connection points: 6
#     Node 9, Type 0, BuildingBlock: BETDIP_clean_sbu_0, # of connection points: 6
#     Node 10, Type 0, BuildingBlock: BETDIP_clean_sbu_0, # of connection points: 6
#     Node 11, Type 0, BuildingBlock: BETDIP_clean_sbu_0, # of connection points: 6
#     Edge 12, Type (0, 0), BuildingBlock: OJICUG_clean_linker_0, # of connection points: 2
#     Edge 13, Type (0, 0), BuildingBlock: OJICUG_clean_linker_0, # of connection points: 2
#     Edge 14, Type (0, 0), BuildingBlock: OJICUG_clean_linker_0, # of connection points: 2
#     Edge 15, Type (0, 0), BuildingBlock: OJICUG_clean_linker_0, # of connection points: 2
#     Edge 16, Type (0, 0), BuildingBlock: OJICUG_clean_linker_0, # of connection points: 2
#     Edge 17, Type (0, 0), BuildingBlock: OJICUG_clean_linker_0, # of connection points: 2
#     Edge 18, Type (0, 0), BuildingBlock: OJICUG_clean_linker_0, # of connection points: 2
#     Edge 19, Type (0, 0), BuildingBlock: OJICUG_clean_linker_0, # of connection points: 2
#     Edge 20, Type (0, 0), BuildingBlock: OJICUG_clean_linker_0, # of connection points: 2
#     Edge 21, Type (0, 0), BuildingBlock: OJICUG_clean_linker_0, # of connection points: 2
#     Edge 22, Type (0, 0), BuildingBlock: OJICUG_clean_linker_0, # of connection points: 2
#     Edge 23, Type (0, 0), BuildingBlock: OJICUG_clean_linker_0, # of connection points: 2
#     Edge 24, Type (0, 0), BuildingBlock: OJICUG_clean_linker_0, # of connection points: 2
#     Edge 25, Type (0, 0), BuildingBlock: OJICUG_clean_linker_0, # of connection points: 2
#     Edge 26, Type (0, 0), BuildingBlock: OJICUG_clean_linker_0, # of connection points: 2
#     Edge 27, Type (0, 0), BuildingBlock: OJICUG_clean_linker_0, # of connection points: 2
#     Edge 28, Type (0, 0), BuildingBlock: OJICUG_clean_linker_0, # of connection points: 2
#     Edge 29, Type (0, 0), BuildingBlock: OJICUG_clean_linker_0, # of connection points: 2
#     Edge 30, Type (0, 0), BuildingBlock: OJICUG_clean_linker_0, # of connection points: 2
#     Edge 31, Type (0, 0), BuildingBlock: OJICUG_clean_linker_0, # of connection points: 2
#     Edge 32, Type (0, 0), BuildingBlock: OJICUG_clean_linker_0, # of connection points: 2
#     Edge 33, Type (0, 0), BuildingBlock: OJICUG_clean_linker_0, # of connection points: 2
#     Edge 34, Type (0, 0), BuildingBlock: OJICUG_clean_linker_0, # of connection points: 2
#     Edge 35, Type (0, 0), BuildingBlock: OJICUG_clean_linker_0, # of connection points: 2
#     Edge 36, Type (0, 0), BuildingBlock: OJICUG_clean_linker_0, # of connection points: 2
#     Edge 37, Type (0, 0), BuildingBlock: OJICUG_clean_linker_0, # of connection points: 2
#     Edge 38, Type (0, 0), BuildingBlock: OJICUG_clean_linker_0, # of connection points: 2
#     Edge 39, Type (0, 0), BuildingBlock: OJICUG_clean_linker_0, # of connection points: 2
#     Edge 40, Type (0, 0), BuildingBlock: OJICUG_clean_linker_0, # of connection points: 2
#     Edge 41, Type (0, 0), BuildingBlock: OJICUG_clean_linker_0, # of connection points: 2
#     Edge 42, Type (0, 0), BuildingBlock: OJICUG_clean_linker_0, # of connection points: 2
#     Edge 43, Type (0, 0), BuildingBlock: OJICUG_clean_linker_0, # of connection points: 2
#     Edge 44, Type (0, 0), BuildingBlock: OJICUG_clean_linker_0, # of connection points: 2
#     Edge 45, Type (0, 0), BuildingBlock: OJICUG_clean_linker_0, # of connection points: 2
#     Edge 46, Type (0, 0), BuildingBlock: OJICUG_clean_linker_0, # of connection points: 2
#     Edge 47, Type (0, 0), BuildingBlock: OJICUG_clean_linker_0, # of connection points: 2
# Relax obj value: 0.209
# Max RMSD: 0.307
# Mean RMSD: 0.289
data_MOF--net-lcy-e--node1-BETDIP_clean_sbu_0--edge1-OJICUG_clean_linker_0
_symmetry_space_group_name_H-M    P1
_symmetry_Int_Tables_number       1
_symmetry_cell_setting            triclinic
loop_
_symmetry_equiv_pos_as_xyz
'x, y, z'
_cell_length_a     32.465646
_cell_length_b     34.792039
_cell_length_c     34.76986
_cell_angle_alpha  91.56561
_cell_angle_beta   90.432
_cell_angle_gamma 88.250568
loop_
_atom_site_label
_atom_site_type_symbol
_atom_site_fract_x
_atom_site_fract_y
_atom_site_fract_z
_atom_type_partial_charge
Tb0 Tb 0.14955 0.27407 0.58387 0.0
Tb1 Tb 0.1258 0.33518 0.52914 0.0
C2 C 0.16515 0.2296 0.63842 0.0
C3 C 0.15454 0.18952 0.64599 0.0
C4 C 0.11665 0.17511 0.63327 0.0
C5 C 0.10361 0.13954 0.64541 0.0
C6 C 0.12837 0.11724 0.6702 0.0
C7 C 0.16752 0.13073 0.68081 0.0
C8 C 0.18031 0.16664 0.66905 0.0
C9 C 0.18 0.26328 0.51358 0.0
C10 C 0.071 0.26039 0.53283 0.0
C11 C 0.11047 0.37139 0.46872 0.0
C12 C 0.13167 0.39014 0.43738 0.0
C13 C 0.17471 0.38792 0.43347 0.0
C14 C 0.19355 0.4052 0.40236 0.0
C15 C 0.16957 0.42495 0.37481 0.0
C16 C 0.12646 0.42667 0.37901 0.0
C17 C 0.10781 0.40953 0.40996 0.0
C18 C 0.09675 0.34715 0.59997 0.0
C19 C 0.19691 0.3533 0.58088 0.0
O20 O 0.13365 0.25375 0.63745 0.0
O21 O 0.19124 0.23519 0.61074 0.0
O22 O 0.17702 0.29477 0.53235 0.0
O23 O 0.1656 0.23669 0.5345 0.0
O24 O 0.09264 0.24853 0.56283 0.0
O25 O 0.08001 0.29213 0.51508 0.0
O26 O 0.11505 0.33391 0.46971 0.0
O27 O 0.11236 0.38787 0.50298 0.0
O28 O 0.10078 0.31547 0.58175 0.0
O29 O 0.10431 0.37433 0.57652 0.0
O30 O 0.18675 0.35286 0.54425 0.0
O31 O 0.18244 0.32669 0.60361 0.0
H32 H 0.09614 0.19213 0.61535 0.0
H33 H 0.07317 0.13058 0.63682 0.0
H34 H 0.18796 0.114 0.69906 0.0
H35 H 0.20975 0.17707 0.67899 0.0
H36 H 0.19362 0.37281 0.45434 0.0
H37 H 0.22681 0.4035 0.40015 0.0
H38 H 0.10691 0.44086 0.35802 0.0
H39 H 0.07452 0.41114 0.41228 0.0
Tb40 Tb 0.9821 0.92987 0.75224 0.0
Tb41 Tb 0.0547 0.93118 0.81358 0.0
C42 C 0.92078 0.95007 0.71225 0.0
C43 C 0.91066 0.95508 0.67116 0.0
C44 C 0.8923 0.99009 0.66 0.0
C45 C 0.88175 0.9961 0.62157 0.0
C46 C 0.88912 0.96709 0.59331 0.0
C47 C 0.9084 0.93223 0.60438 0.0
C48 C 0.91926 0.92632 0.64295 0.0
C49 C 0.04101 0.87849 0.7338 0.0
C50 C 0.05592 0.98707 0.74282 0.0
C51 C 0.12484 0.92621 0.84459 0.0
C52 C 0.15185 0.90301 0.87016 0.0
C53 C 0.17063 0.86789 0.85757 0.0
C54 C 0.20167 0.85008 0.87974 0.0
C55 C 0.21477 0.8673 0.9146 0.0
C56 C 0.19444 0.90131 0.92794 0.0
C57 C 0.16351 0.91898 0.90595 0.0
C58 C 0.98427 0.96701 0.83397 0.0
C59 C 0.98564 0.8756 0.82558 0.0
O60 O 0.9474 0.97417 0.72668 0.0
O61 O 0.92664 0.91497 0.72477 0.0
O62 O 0.0394 0.90222 0.76161 0.0
O63 O 1.00769 0.88411 0.71375 0.0
O64 O 0.02385 0.97016 0.72654 0.0
O65 O 0.07045 0.97808 0.77715 0.0
O66 O 0.11638 0.91203 0.81022 0.0
O67 O 0.09342 0.94525 0.86016 0.0
O68 O 0.99988 0.96403 0.8008 0.0
O69 O 1.01074 0.9522 0.85817 0.0
O70 O 0.02619 0.8779 0.82541 0.0
O71 O 0.9613 0.89681 0.80244 0.0
H72 H 0.88554 1.01274 0.68125 0.0
H73 H 0.86625 1.02297 0.61431 0.0
H74 H 0.91462 0.90935 0.58329 0.0
H75 H 0.93391 0.8992 0.65069 0.0
H76 H 0.16259 0.85493 0.82996 0.0
H77 H 0.21679 0.82392 0.8687 0.0
H78 H 0.2033 0.91493 0.95502 0.0
H79 H 0.14988 0.94611 0.91628 0.0
Tb80 Tb 0.38661 0.79642 0.07592 0.0
Tb81 Tb 0.40454 0.74082 1.01221 0.0
C82 C 0.37559 0.83313 0.13849 0.0
C83 C 0.38757 0.87171 0.15172 0.0
C84 C 0.40426 0.89734 0.12594 0.0
C85 C 0.41761 0.93329 0.13905 0.0
C86 C 0.41446 0.94423 0.17818 0.0
C87 C 0.39766 0.91832 0.20383 0.0
C88 C 0.38439 0.8824 0.19069 0.0
C89 C 0.34922 0.81333 1.01067 0.0
C90 C 0.45607 0.81771 1.01997 0.0
C91 C 0.41734 0.70976 0.94706 0.0
C92 C 0.39549 0.69554 0.91245 0.0
C93 C 0.36563 0.66722 0.9138 0.0
C94 C 0.34835 0.65242 0.87964 0.0
C95 C 0.36074 0.66566 0.84373 0.0
C96 C 0.38929 0.69514 0.84279 0.0
C97 C 0.40653 0.7098 0.87675 0.0
C98 C 0.44439 0.72767 0.07812 0.0
C99 C 0.33935 0.71709 0.06542 0.0
O100 O 0.40628 0.80865 0.13232 0.0
O101 O 0.34799 0.83177 0.1109 0.0
O102 O 0.35362 0.78004 1.02405 0.0
O103 O 0.3649 0.83806 0.03461 0.0
O104 O 0.44011 0.82556 0.05428 0.0
O105 O 0.44417 0.78796 0.99878 0.0
O106 O 0.4149 0.74693 0.95348 0.0
O107 O 0.41527 0.69033 0.97872 0.0
O108 O 0.43692 0.75906 0.06264 0.0
O109 O 0.43128 0.70084 0.05501 0.0
O110 O 0.34594 0.71999 0.02843 0.0
O111 O 0.35628 0.74196 0.0902 0.0
H112 H 0.40718 0.88945 0.09571 0.0
H113 H 0.43004 0.95262 0.11849 0.0
H114 H 0.39543 0.92552 0.23426 0.0
H115 H 0.37207 0.86278 0.21105 0.0
H116 H 0.35642 0.65587 0.94103 0.0
H117 H 0.32663 0.62951 0.88127 0.0
H118 H 0.399 0.70635 0.81565 0.0
H119 H 0.42934 0.73178 0.87506 0.0
Tb120 Tb 0.53729 0.15687 0.24958 0.0
Tb121 Tb 0.47537 0.14555 0.31303 0.0
C122 C 0.5948 0.14614 0.20198 0.0
C123 C 0.6006 0.13433 0.16098 0.0
C124 C 0.61882 0.09809 0.15201 0.0
C125 C 0.62832 0.08735 0.11401 0.0
C126 C 0.62013 0.11269 0.08385 0.0
C127 C 0.60059 0.14853 0.09265 0.0
C128 C 0.59093 0.15926 0.1308 0.0
C129 C 0.47187 0.20189 0.24434 0.0
C130 C 0.47335 0.08781 0.24312 0.0
C131 C 0.417 0.15185 0.36072 0.0
C132 C 0.38343 0.17796 0.37615 0.0
C133 C 0.34344 0.176 0.36042 0.0
C134 C 0.30985 0.19459 0.37876 0.0
C135 C 0.31518 0.21568 0.41341 0.0
C136 C 0.35544 0.21943 0.42813 0.0
C137 C 0.38915 0.20057 0.40986 0.0
C138 C 0.54765 0.1059 0.31822 0.0
C139 C 0.5364 0.20965 0.32426 0.0
O140 O 0.58191 0.11959 0.22458 0.0
O141 O 0.57763 0.18003 0.20991 0.0
O142 O 0.47175 0.1675 0.25547 0.0
O143 O 0.50782 0.20968 0.23137 0.0
O144 O 0.50559 0.10497 0.22881 0.0
O145 O 0.45492 0.1003 0.27486 0.0
O146 O 0.41306 0.13908 0.32519 0.0
O147 O 0.45541 0.15879 0.36968 0.0
O148 O 0.54015 0.1385 0.30604 0.0
O149 O 0.51364 0.0953 0.3336 0.0
O150 O 0.49656 0.20384 0.32272 0.0
O151 O 0.56109 0.18916 0.30043 0.0
H152 H 0.62702 0.07839 0.17463 0.0
H153 H 0.64412 0.05989 0.10863 0.0
H154 H 0.59366 0.16869 0.07014 0.0
H155 H 0.57689 0.18742 0.13667 0.0
H156 H 0.33765 0.1586 0.33475 0.0
H157 H 0.27937 0.19144 0.36639 0.0
H158 H 0.36062 0.23516 0.45495 0.0
H159 H 0.41936 0.20232 0.4231 0.0
Tb160 Tb 0.63223 0.24636 0.55995 0.0
Tb161 Tb 0.6522 0.30928 0.5082 0.0
C162 C 0.63449 0.19128 0.6053 0.0
C163 C 0.66114 0.17737 0.63702 0.0
C164 C 0.66791 0.13771 0.64072 0.0
C165 C 0.68722 0.1233 0.6736 0.0
C166 C 0.70007 0.14827 0.70362 0.0
C167 C 0.69602 0.18815 0.69868 0.0
C168 C 0.67662 0.20262 0.66564 0.0
C169 C 0.57381 0.29978 0.55658 0.0
C170 C 0.70089 0.30566 0.58531 0.0
C171 C 0.66356 0.3747 0.48153 0.0
C172 C 0.64335 0.40452 0.45828 0.0
C173 C 0.60031 0.40755 0.4541 0.0
C174 C 0.58214 0.43826 0.43413 0.0
C175 C 0.6068 0.4662 0.41803 0.0
C176 C 0.64988 0.46268 0.42231 0.0
C177 C 0.66789 0.43214 0.44216 0.0
C178 C 0.69045 0.24164 0.49341 0.0
C179 C 0.59027 0.25271 0.47739 0.0
O180 O 0.6494 0.18865 0.57038 0.0
O181 O 0.61392 0.22368 0.6119 0.0
O182 O 0.61218 0.3056 0.55728 0.0
O183 O 0.56767 0.26329 0.5584 0.0
O184 O 0.67459 0.28004 0.59699 0.0
O185 O 0.70064 0.31705 0.54962 0.0
O186 O 0.64724 0.36908 0.51507 0.0
O187 O 0.67513 0.34254 0.46391 0.0
O188 O 0.68324 0.25751 0.5256 0.0
O189 O 0.67713 0.26489 0.46714 0.0
O190 O 0.59698 0.28977 0.48072 0.0
O191 O 0.60619 0.22819 0.50294 0.0
H192 H 0.65656 0.11773 0.61896 0.0
H193 H 0.69046 0.09241 0.67635 0.0
H194 H 0.7055 0.20806 0.72131 0.0
H195 H 0.67206 0.23344 0.66338 0.0
H196 H 0.58086 0.3865 0.46659 0.0
H197 H 0.54892 0.43998 0.43105 0.0
H198 H 0.66977 0.48398 0.4109 0.0
H199 H 0.70111 0.43049 0.44553 0.0
Tb200 Tb 0.98406 0.41668 0.77829 0.0
Tb201 Tb 0.05185 0.39968 0.83461 0.0
C202 C 0.93563 0.42625 0.72236 0.0
C203 C 0.89362 0.414 0.71295 0.0
C204 C 0.87906 0.37923 0.7266 0.0
C205 C 0.84339 0.36335 0.71089 0.0
C206 C 0.82166 0.38212 0.68142 0.0
C207 C 0.83422 0.41869 0.67058 0.0
C208 C 0.87007 0.43434 0.68601 0.0
C209 C 0.97277 0.4482 0.84794 0.0
C210 C 0.97473 0.34491 0.82943 0.0
C211 C 0.08989 0.39003 0.89698 0.0
C212 C 0.10754 0.41116 0.93022 0.0
C213 C 0.08793 0.44415 0.94693 0.0
C214 C 0.10235 0.4598 0.98202 0.0
C215 C 0.1362 0.44238 1.00092 0.0
C216 C 0.15678 0.41063 0.98296 0.0
C217 C 0.14257 0.39522 0.94807 0.0
C218 C 0.06599 0.37174 0.76398 0.0
C219 C 0.0664 0.46492 0.78271 0.0
O220 O 0.96298 0.3981 0.72442 0.0
O221 O 0.93992 0.45202 0.75012 0.0
O222 O 1.00615 0.44515 0.82972 0.0
O223 O 0.94442 0.43269 0.82683 0.0
O224 O 0.96001 0.36345 0.79944 0.0
O225 O 1.00883 0.35514 0.84723 0.0
O226 O 0.04966 0.39124 0.89372 0.0
O227 O 0.10848 0.39185 0.86377 0.0
O228 O 0.03184 0.37424 0.78114 0.0
O229 O 0.09471 0.37968 0.78878 0.0
O230 O 0.06871 0.45599 0.81913 0.0
O231 O 0.03681 0.45109 0.76004 0.0
H232 H 0.89667 0.36309 0.74759 0.0
H233 H 0.8346 0.3352 0.71986 0.0
H234 H 0.81755 0.43429 0.64854 0.0
H235 H 0.88059 0.46128 0.6753 0.0
H236 H 0.06075 0.45697 0.93359 0.0
H237 H 0.0861 0.48441 0.99511 0.0
H238 H 0.18353 0.39713 0.99639 0.0
H239 H 0.15816 0.36986 0.93569 0.0
Tb240 Tb 0.89575 0.8242 0.05579 0.0
Tb241 Tb 0.87722 0.76219 0.99772 0.0
C242 C 0.90332 0.88497 0.09604 0.0
C243 C 0.88978 0.8969 0.13512 0.0
C244 C 0.86922 0.87147 0.15857 0.0
C245 C 0.85347 0.88409 0.19437 0.0
C246 C 0.8582 0.92235 0.20747 0.0
C247 C 0.8791 0.94755 0.18383 0.0
C248 C 0.89463 0.93495 0.14806 0.0
C249 C 0.93492 0.75801 0.0676 0.0
C250 C 0.83015 0.7655 0.07798 0.0
C251 C 0.86584 0.69774 0.96486 0.0
C252 C 0.88802 0.66148 0.95309 0.0
C253 C 0.91766 0.65973 0.92376 0.0
C254 C 0.93507 0.62415 0.91127 0.0
C255 C 0.92303 0.58967 0.92771 0.0
C256 C 0.89443 0.59181 0.95788 0.0
C257 C 0.8771 0.62721 0.97029 0.0
C258 C 0.83417 0.82836 0.99056 0.0
C259 C 0.93932 0.81743 0.97273 0.0
O260 O 0.87345 0.87948 0.07135 0.0
O261 O 0.93202 0.85778 0.09336 0.0
O262 O 0.929 0.77284 0.03513 0.0
O263 O 0.92005 0.78108 0.09418 0.0
O264 O 0.8434 0.80053 0.08513 0.0
O265 O 0.84294 0.74492 0.04769 0.0
O266 O 0.86266 0.70434 1.00188 0.0
O267 O 0.87237 0.72917 0.94619 0.0
O268 O 0.845 0.81196 1.02054 0.0
O269 O 0.84411 0.80557 0.96187 0.0
O270 O 0.9339 0.78025 0.97378 0.0
O271 O 0.92449 0.84064 1.0007 0.0
H272 H 0.86494 0.84198 0.14902 0.0
H273 H 0.83788 0.86385 0.21188 0.0
H274 H 0.88274 0.97736 0.19261 0.0
H275 H 0.90984 0.95517 0.1302 0.0
H276 H 0.92666 0.68562 0.90985 0.0
H277 H 0.95672 0.62353 0.8877 0.0
H278 H 0.88486 0.56598 0.97157 0.0
H279 H 0.8543 0.62768 0.99291 0.0
Tb280 Tb 0.48239 0.6675 0.31863 0.0
Tb281 Tb 0.54525 0.64743 0.26019 0.0
C282 C 0.42279 0.6797 0.36332 0.0
C283 C 0.41548 0.66496 0.40208 0.0
C284 C 0.41609 0.62509 0.40822 0.0
C285 C 0.40702 0.61102 0.44425 0.0
C286 C 0.39763 0.6364 0.47525 0.0
C287 C 0.39928 0.67633 0.46956 0.0
C288 C 0.40778 0.69044 0.43325 0.0
C289 C 0.55424 0.70051 0.33037 0.0
C290 C 0.54127 0.59731 0.33543 0.0
C291 C 0.6128 0.63537 0.22662 0.0
C292 C 0.64467 0.65699 0.20799 0.0
C293 C 0.64013 0.69671 0.2024 0.0
C294 C 0.67103 0.7162 0.18371 0.0
C295 C 0.70663 0.69608 0.17043 0.0
C296 C 0.71134 0.65655 0.17739 0.0
C297 C 0.68059 0.63721 0.1959 0.0
C298 C 0.47353 0.61469 0.2476 0.0
C299 C 0.48444 0.70928 0.23804 0.0
O300 O 0.42335 0.65373 0.33565 0.0
O301 O 0.45244 0.70398 0.35998 0.0
O302 O 0.53582 0.69624 0.29854 0.0
O303 O 0.53256 0.68508 0.3565 0.0
O304 O 0.50585 0.61471 0.3446 0.0
O305 O 0.56248 0.60769 0.30542 0.0
O306 O 0.60941 0.64115 0.26381 0.0
O307 O 0.57701 0.63402 0.20908 0.0
O308 O 0.49093 0.62062 0.27955 0.0
O309 O 0.49886 0.6228 0.22065 0.0
O310 O 0.52437 0.7022 0.23925 0.0
O311 O 0.46049 0.69555 0.26502 0.0
H312 H 0.42259 0.60449 0.38498 0.0
H313 H 0.40566 0.58019 0.4472 0.0
H314 H 0.39317 0.69681 0.49298 0.0
H315 H 0.40779 0.72124 0.42942 0.0
H316 H 0.61258 0.7124 0.21199 0.0
H317 H 0.66653 0.74661 0.17859 0.0
H318 H 0.73873 0.64041 0.16812 0.0
H319 H 0.68471 0.60664 0.20048 0.0
Tb320 Tb 0.2984 0.49722 0.16895 0.0
Tb321 Tb 0.23163 0.56456 0.18294 0.0
C322 C 0.36099 0.45473 0.17777 0.0
C323 C 0.36859 0.41402 0.18743 0.0
C324 C 0.3945 0.40549 0.21869 0.0
C325 C 0.40145 0.3675 0.22961 0.0
C326 C 0.38282 0.33705 0.20933 0.0
C327 C 0.35659 0.3456 0.1781 0.0
C328 C 0.34929 0.38379 0.16739 0.0
C329 C 0.22748 0.48103 0.13456 0.0
C330 C 0.23592 0.49694 0.24067 0.0
C331 C 0.17288 0.61282 0.17947 0.0
C332 C 0.14267 0.63199 0.15401 0.0
C333 C 0.12288 0.6125 0.1234 0.0
C334 C 0.08956 0.63029 0.10408 0.0
C335 C 0.07558 0.66746 0.11554 0.0
C336 C 0.09688 0.68738 0.14476 0.0
C337 C 0.13013 0.66985 0.16369 0.0
C338 C 0.30527 0.57072 0.21773 0.0
C339 C 0.28956 0.56814 0.11352 0.0
O340 O 0.34451 0.47619 0.20563 0.0
O341 O 0.34503 0.46215 0.14369 0.0
O342 O 0.23599 0.50945 0.15586 0.0
O343 O 0.2605 0.45918 0.13276 0.0
O344 O 0.27034 0.48325 0.22415 0.0
O345 O 0.2139 0.52631 0.22727 0.0
O346 O 0.16821 0.57613 0.18559 0.0
O347 O 0.21162 0.62207 0.17671 0.0
O348 O 0.29639 0.55549 0.18619 0.0
O349 O 0.27158 0.58763 0.23031 0.0
O350 O 0.25038 0.56972 0.12341 0.0
O351 O 0.31609 0.54398 0.13088 0.0
H352 H 0.40955 0.42833 0.23469 0.0
H353 H 0.4225 0.36191 0.25327 0.0
H354 H 0.34184 0.32275 0.1619 0.0
H355 H 0.32867 0.38958 0.14347 0.0
H356 H 0.13206 0.58316 0.1155 0.0
H357 H 0.07347 0.6144 0.08168 0.0
H358 H 0.08679 0.71615 0.15392 0.0
H359 H 0.14491 0.68534 0.18722 0.0
Tb360 Tb 0.79562 0.06164 0.92645 0.0
Tb361 Tb 0.73449 1.00573 0.8974 0.0
C362 C 0.85653 0.1043 0.93239 0.0
C363 C 0.86811 0.14151 0.91691 0.0
C364 C 0.86478 0.14896 0.87741 0.0
C365 C 0.87879 0.18339 0.8631 0.0
C366 C 0.89629 0.21102 0.888 0.0
C367 C 0.89789 0.20406 0.92771 0.0
C368 C 0.88412 0.16961 0.94194 0.0
C369 C 0.72489 0.06994 0.96113 0.0
C370 C 0.74411 0.07712 0.84799 0.0
C371 C 0.67594 0.96079 0.88709 0.0
C372 C 0.64421 0.94236 0.90937 0.0
C373 C 0.64401 0.9439 0.94977 0.0
C374 C 0.61328 0.92562 0.96996 0.0
C375 C 0.58245 0.90564 0.94988 0.0
C376 C 0.58226 0.90539 0.90939 0.0
C377 C 0.6129 0.92347 0.8894 0.0
C378 C 0.81136 0.99663 0.87055 0.0
C379 C 0.78048 0.98626 0.97148 0.0
O380 O 0.8542 0.07547 0.9076 0.0
O381 O 0.82635 0.10525 0.95715 0.0
O382 O 0.72914 0.06193 0.92544 0.0
O383 O 0.76024 0.07669 0.97692 0.0
O384 O 0.77516 0.08707 0.87102 0.0
O385 O 0.72173 0.04734 0.85483 0.0
O386 O 0.67208 0.99817 0.88491 0.0
O387 O 0.71417 0.94909 0.89265 0.0
O388 O 0.79969 1.00567 0.90351 0.0
O389 O 0.77874 0.98948 0.85016 0.0
O390 O 0.74315 0.99049 0.95709 0.0
O391 O 0.80941 1.00992 0.96041 0.0
H392 H 0.85228 0.12785 0.85742 0.0
H393 H 0.87731 0.18768 0.83238 0.0
H394 H 0.91038 0.22505 0.94782 0.0
H395 H 0.88665 0.16461 0.97251 0.0
H396 H 0.66773 0.95881 0.96563 0.0
H397 H 0.61428 0.92622 1.00111 0.0
H398 H 0.55848 0.89092 0.89307 0.0
H399 H 0.61224 0.92252 0.85822 0.0
Tb400 Tb 0.72429 1.00203 0.41765 0.0
Tb401 Tb 0.78716 0.0624 0.40345 0.0
C402 C 0.66531 0.95708 0.40868 0.0
C403 C 0.65757 0.91624 0.3985 0.0
C404 C 0.67427 0.89804 0.3652 0.0
C405 C 0.66268 0.86085 0.35392 0.0
C406 C 0.63435 0.84094 0.37578 0.0
C407 C 0.61865 0.85892 0.40963 0.0
C408 C 0.63006 0.89609 0.42075 0.0
C409 C 0.78874 0.99547 0.46249 0.0
C410 C 0.79055 0.99028 0.34874 0.0
C411 C 0.84434 0.10993 0.40426 0.0
C412 C 0.87392 0.1326 0.42714 0.0
C413 C 0.87925 0.12899 0.46703 0.0
C414 C 0.90989 0.14969 0.48673 0.0
C415 C 0.93537 0.17446 0.46681 0.0
C416 C 0.9295 0.17779 0.42688 0.0
C417 C 0.8992 0.15719 0.40741 0.0
C418 C 0.71552 0.06742 0.36424 0.0
C419 C 0.7262 0.07913 0.46806 0.0
O420 O 0.67972 0.97801 0.3814 0.0
O421 O 0.68238 0.96474 0.44221 0.0
O422 O 0.78977 1.00562 0.42769 0.0
O423 O 0.75226 0.98439 0.47083 0.0
O424 O 0.75723 0.97802 0.36614 0.0
O425 O 0.80897 1.02179 0.36019 0.0
O426 O 0.85041 0.07258 0.4027 0.0
O427 O 0.80519 0.12009 0.40564 0.0
O428 O 0.72229 0.05768 0.3977 0.0
O429 O 0.75017 0.07918 0.35128 0.0
O430 O 0.76604 0.07579 0.46169 0.0
O431 O 0.70139 0.05523 0.44885 0.0
H432 H 0.6956 0.9128 0.34738 0.0
H433 H 0.67569 0.8478 0.32793 0.0
H434 H 0.5963 0.84481 0.4269 0.0
H435 H 0.61642 0.90957 0.44627 0.0
H436 H 0.85998 0.11019 0.48282 0.0
H437 H 0.91336 0.14662 0.5175 0.0
H438 H 0.94892 0.19588 0.41036 0.0
H439 H 0.8959 0.16008 0.37657 0.0
Tb440 Tb 0.29891 0.51349 0.66934 0.0
Tb441 Tb 0.23791 0.57782 0.65721 0.0
C442 C 0.33706 0.44973 0.67475 0.0
C443 C 0.37386 0.43155 0.65679 0.0
C444 C 0.40228 0.45318 0.63688 0.0
C445 C 0.43585 0.4348 0.61812 0.0
C446 C 0.4411 0.39454 0.61865 0.0
C447 C 0.4128 0.37326 0.6392 0.0
C448 C 0.37953 0.3916 0.65802 0.0
C449 C 0.31399 0.57721 0.70881 0.0
C450 C 0.32028 0.57245 0.60739 0.0
C451 C 0.20395 0.6433 0.65092 0.0
C452 C 0.18024 0.67349 0.67285 0.0
C453 C 0.20032 0.70068 0.69658 0.0
C454 C 0.17883 0.7334 0.7111 0.0
C455 C 0.13705 0.73963 0.70185 0.0
C456 C 0.11647 0.71118 0.68031 0.0
C457 C 0.13785 0.6786 0.66582 0.0
C458 C 0.22416 0.51237 0.61851 0.0
C459 C 0.21326 0.52196 0.71609 0.0
O460 O 0.30577 0.45561 0.6516 0.0
O461 O 0.34303 0.47921 0.69804 0.0
O462 O 0.27906 0.56314 0.7032 0.0
O463 O 0.3419 0.55464 0.69308 0.0
O464 O 0.32862 0.53722 0.61933 0.0
O465 O 0.2884 0.593 0.62059 0.0
O466 O 0.24265 0.63755 0.66059 0.0
O467 O 0.18563 0.61122 0.64179 0.0
O468 O 0.25797 0.528 0.62453 0.0
O469 O 0.19541 0.53533 0.63229 0.0
O470 O 0.21238 0.55887 0.70931 0.0
O471 O 0.24256 0.49833 0.70139 0.0
H472 H 0.39817 0.48412 0.63542 0.0
H473 H 0.45703 0.4519 0.60243 0.0
H474 H 0.41637 0.34228 0.64073 0.0
H475 H 0.3579 0.37448 0.67318 0.0
H476 H 0.23307 0.69775 0.7024 0.0
H477 H 0.19547 0.75487 0.72755 0.0
H478 H 0.08406 0.71494 0.67327 0.0
H479 H 0.12155 0.65834 0.64755 0.0
C480 C 0.23966 0.41143 0.57599 0.0
C481 C 0.21114 0.39062 0.59671 0.0
H482 H 0.26644 0.46623 0.5671 0.0
C483 C 0.18849 0.40988 0.62609 0.0
H484 H 0.25687 0.39756 0.55263 0.0
C485 C 0.19233 0.44954 0.6329 0.0
C486 C 0.21998 0.47047 0.61139 0.0
H487 H 0.16565 0.39495 0.64197 0.0
H488 H 0.17335 0.46388 0.65473 0.0
C489 C 0.24456 0.45081 0.58375 0.0
C490 C 0.86746 0.97938 0.823 0.0
C491 C 0.85538 0.98935 0.86055 0.0
H492 H 0.91721 0.96322 0.78618 0.0
C493 C 0.88608 0.99202 0.8894 0.0
H494 H 0.84469 0.97638 0.80028 0.0
C495 C 0.92786 0.98539 0.88072 0.0
C496 C 0.94006 0.97588 0.84296 0.0
H497 H 0.87789 0.99908 0.91892 0.0
H498 H 0.95058 0.98749 0.90359 0.0
C499 C 0.90925 0.97264 0.81457 0.0
C500 C 0.33132 0.66786 0.1159 0.0
C501 C 0.32286 0.68033 0.07855 0.0
H502 H 0.33 0.62153 0.15503 0.0
C503 C 0.30398 0.65475 0.05211 0.0
H504 H 0.34528 0.6868 0.13713 0.0
C505 C 0.29434 0.61748 0.06274 0.0
C506 C 0.30493 0.60457 0.09942 0.0
H507 H 0.29692 0.66344 1.02306 0.0
H508 H 0.27871 0.59877 0.04235 0.0
C509 C 0.32317 0.63021 0.12596 0.0
C510 C 0.62402 0.10809 0.30815 0.0
C511 C 0.5904 0.09222 0.32709 0.0
H512 H 0.68987 0.11175 0.30375 0.0
C513 C 0.59862 0.06707 0.35707 0.0
H514 H 0.61891 0.12904 0.28616 0.0
C515 C 0.63935 0.05895 0.3685 0.0
C516 C 0.67301 0.07432 0.3492 0.0
H517 H 0.57361 0.05527 0.37298 0.0
H518 H 0.64426 0.04154 0.39346 0.0
C519 C 0.66486 0.09862 0.31851 0.0
C520 C 0.6853 0.18037 0.45406 0.0
C521 C 0.69895 0.19965 0.48753 0.0
H522 H 0.68028 0.12657 0.4232 0.0
C523 C 0.71924 0.17813 0.51608 0.0
H524 H 0.67062 0.19627 0.43114 0.0
C525 C 0.72592 0.13821 0.51109 0.0
C526 C 0.71118 0.11879 0.47804 0.0
H527 H 0.73058 0.19231 0.54202 0.0
H528 H 0.74342 0.12263 0.53261 0.0
C529 C 0.69045 0.14033 0.44976 0.0
C530 C 0.10108 0.50614 0.7356 0.0
C531 C 0.10355 0.48068 0.76597 0.0
H532 H 0.13466 0.53984 0.69669 0.0
C533 C 0.14261 0.46797 0.77948 0.0
H534 H 0.07143 0.51584 0.72442 0.0
C535 C 0.17869 0.48049 0.76284 0.0
C536 C 0.17616 0.50687 0.73335 0.0
H537 H 0.14532 0.44761 0.80245 0.0
H538 H 0.20836 0.47017 0.77344 0.0
C539 C 0.13718 0.51971 0.71989 0.0
C540 C 0.83445 0.93766 0.99084 0.0
C541 C 0.79287 0.9471 0.98402 0.0
H542 H 0.87997 0.89377 0.998 0.0
C543 C 0.76458 0.91702 0.98163 0.0
H544 H 0.85715 0.95983 0.99267 0.0
C545 C 0.77808 0.87848 0.98363 0.0
C546 C 0.81997 0.86915 0.98862 0.0
H547 H 0.7322 0.92299 0.97623 0.0
H548 H 0.75585 0.85596 0.98072 0.0
C549 C 0.84771 0.89925 0.99321 0.0
C550 C 0.42219 0.5713 0.21683 0.0
C551 C 0.43048 0.60264 0.24145 0.0
H552 H 0.37619 0.53762 0.18919 0.0
C553 C 0.39705 0.62391 0.2576 0.0
H554 H 0.44713 0.55533 0.20257 0.0
C555 C 0.35642 0.61242 0.25196 0.0
C556 C 0.34817 0.58055 0.22804 0.0
H557 H 0.40175 0.65091 0.27235 0.0
H558 H 0.33143 0.62969 0.26459 0.0
C559 C 0.38149 0.56072 0.2098 0.0
C560 C 0.57374 0.19477 0.38516 0.0
C561 C 0.55223 0.22172 0.36244 0.0
H562 H 0.5994 0.18199 0.4406 0.0
C563 C 0.53919 0.25693 0.37935 0.0
H564 H 0.58248 0.16662 0.37333 0.0
C565 C 0.5497 0.26602 0.41756 0.0
C566 C 0.57222 0.23952 0.44016 0.0
H567 H 0.52106 0.27747 0.36295 0.0
H568 H 0.54066 0.29417 0.4293 0.0
C569 C 0.5829 0.20329 0.42387 0.0
C570 C 0.05813 0.3797 0.65459 0.0
C571 C 0.08847 0.35288 0.6419 0.0
H572 H 0.02925 0.40853 0.7024 0.0
C573 C 0.11273 0.33415 0.66983 0.0
H574 H 0.04037 0.39626 0.63397 0.0
C575 C 0.10487 0.33981 0.70926 0.0
C576 C 0.07293 0.36497 0.72192 0.0
H577 H 0.13926 0.31674 0.66164 0.0
H578 H 0.12419 0.32485 0.72992 0.0
C579 C 0.05078 0.3859 0.69405 0.0
C580 C 0.93799 0.8759 0.88195 0.0
C581 C 0.96899 0.85711 0.85989 0.0
H582 H 0.90582 0.87934 0.93551 0.0
C583 C 0.99051 0.82542 0.87564 0.0
H584 H 0.92121 0.90064 0.87095 0.0
C585 C 0.98157 0.81308 0.91262 0.0
C586 C 0.95194 0.83299 0.93538 0.0
H587 H 0.01505 0.81069 0.8596 0.0
H588 H 0.99825 0.78825 0.92367 0.0
C589 C 0.92993 0.86428 0.91943 0.0
C590 C 0.44187 0.69297 0.18046 0.0
C591 C 0.46747 0.71912 0.19986 0.0
H592 H 0.41748 0.67317 0.12614 0.0
C593 C 0.48511 0.74828 0.17884 0.0
H594 H 0.42884 0.66951 0.19553 0.0
C595 C 0.47728 0.75117 0.1393 0.0
C596 C 0.45308 0.72401 0.11972 0.0
H597 H 0.50599 0.76806 0.19279 0.0
H598 H 0.49107 0.77405 0.12378 0.0
C599 C 0.43567 0.69477 0.14063 0.0
C600 C 0.17292 0.47971 0.32957 0.0
C601 C 0.18883 0.44401 0.34177 0.0
H602 H 0.17507 0.52413 0.28865 0.0
C603 C 0.22192 0.42641 0.32128 0.0
H604 H 0.14813 0.49459 0.3451 0.0
C605 C 0.23782 0.44367 0.28873 0.0
C606 C 0.22087 0.47883 0.27596 0.0
H607 H 0.23478 0.3988 0.32974 0.0
H608 H 0.26278 0.42908 0.27319 0.0
C609 C 0.18856 0.49677 0.29713 0.0
C610 C 0.8733 1.00755 0.5354 0.0
C611 C 0.87229 0.97187 0.55368 0.0
H612 H 0.84813 0.04274 0.49047 0.0
C613 C 0.84995 0.94214 0.53615 0.0
H614 H 0.8906 0.03092 0.54798 0.0
C615 C 0.82597 0.94902 0.50344 0.0
C616 C 0.82426 0.98552 0.48717 0.0
H617 H 0.84814 0.91447 0.54947 0.0
H618 H 0.80629 0.92653 0.49252 0.0
C619 C 0.84952 1.01425 0.50224 0.0
C620 C 0.29425 0.61521 0.76854 0.0
C621 C 0.3238 0.60425 0.74068 0.0
H622 H 0.28278 0.64333 0.82333 0.0
C623 C 0.36443 0.61613 0.74554 0.0
H624 H 0.26267 0.60638 0.76544 0.0
C625 C 0.37588 0.6371 0.77843 0.0
C626 C 0.34696 0.64662 0.80731 0.0
H627 H 0.38779 0.60807 0.72448 0.0
H628 H 0.4079 0.64444 0.78195 0.0
C629 C 0.30582 0.63604 0.80175 0.0
C630 C 0.63781 0.06531 0.02966 0.0
C631 C 0.63678 0.10339 0.04466 0.0
H632 H 0.66621 1.02482 0.98957 0.0
C633 C 0.65755 0.13148 1.02465 0.0
H634 H 0.62167 0.04303 0.04399 0.0
C635 C 0.68241 0.121 0.99319 0.0
C636 C 0.68667 0.08237 0.98081 0.0
H637 H 0.65785 0.16098 0.03539 0.0
H638 H 0.70141 0.14254 0.98089 0.0
C639 C 0.66269 0.05489 0.99804 0.0
C640 C 0.68714 0.10465 0.75723 0.0
C641 C 0.71206 0.13228 0.74152 0.0
H642 H 0.67702 0.06674 0.80261 0.0
C643 C 0.74704 0.14414 0.76245 0.0
H644 H 0.65938 0.09565 0.74246 0.0
C645 C 0.75764 0.12719 0.79773 0.0
C646 C 0.73305 0.09853 0.81266 0.0
H647 H 0.76662 0.16574 0.75112 0.0
H648 H 0.78526 0.13592 0.81281 0.0
C649 C 0.69732 0.08819 0.79211 0.0
C650 C 0.17988 0.4379 0.10133 0.0
C651 C 0.1925 0.47566 0.10802 0.0
H652 H 0.15128 0.39809 0.06253 0.0
C653 C 0.18001 0.50429 0.0823 0.0
H654 H 0.18936 0.41532 0.12067 0.0
C655 C 0.1587 0.49424 0.04828 0.0
C656 C 0.14985 0.45552 0.03988 0.0
H657 H 0.18992 0.53352 0.08655 0.0
H658 H 0.1521 0.51609 0.02732 0.0
C659 C 0.15857 0.42797 0.06779 0.0
C660 C 0.78598 0.94244 0.29266 0.0
C661 C 0.80855 0.96898 0.31483 0.0
H662 H 0.78368 0.90706 0.24105 0.0
C663 C 0.84847 0.97754 0.30277 0.0
H664 H 0.75515 0.93525 0.30106 0.0
C665 C 0.86474 0.96147 0.26875 0.0
C666 C 0.84165 0.93637 0.2455 0.0
H667 H 0.86717 0.99736 0.31931 0.0
H668 H 0.89544 0.96915 0.26042 0.0
C669 C 0.80237 0.92629 0.25829 0.0
C670 C 0.33138 0.62588 0.56292 0.0
C671 C 0.34391 0.58943 0.57613 0.0
H672 H 0.33748 0.66851 0.52093 0.0
C673 C 0.37701 0.56968 0.55788 0.0
H674 H 0.30609 0.64222 0.57619 0.0
C675 C 0.39601 0.58558 0.52611 0.0
C676 C 0.38198 0.62133 0.5119 0.0
H677 H 0.38762 0.54173 0.56756 0.0
H678 H 0.42116 0.56955 0.5123 0.0
C679 C 0.34987 0.64141 0.53122 0.0
C680 C 0.24434 0.27889 0.47767 0.0
C681 C 0.21172 0.25412 0.48393 0.0
H682 H 0.30292 0.28613 0.45072 0.0
C683 C 0.21208 0.2181 0.46471 0.0
H684 H 0.24504 0.30678 0.49225 0.0
C685 C 0.24489 0.20644 0.44083 0.0
C686 C 0.27856 0.23031 0.43585 0.0
H687 H 0.18748 0.19835 0.46908 0.0
H688 H 0.2447 0.17791 0.42756 0.0
C689 C 0.27764 0.26695 0.45415 0.0
C690 C 0.08479 0.05798 0.66672 0.0
C691 C 0.11196 0.08191 0.68737 0.0
H692 H 0.04559 1.00943 0.66786 0.0
C693 C 0.12134 0.07327 0.72578 0.0
H694 H 0.07721 0.06331 0.63693 0.0
C695 C 0.10375 0.04211 0.7432 0.0
C696 C 0.0758 1.01883 0.72297 0.0
H697 H 0.14127 0.09131 0.74305 0.0
H698 H 0.11139 0.03699 0.77304 0.0
C699 C 0.06673 1.02694 0.68439 0.0
C700 C 0.28084 0.87724 0.95024 0.0
C701 C 0.25121 0.85181 0.93603 0.0
H702 H 0.33524 0.88471 0.98418 0.0
C703 C 0.25641 0.81234 0.94336 0.0
H704 H 0.27837 0.90763 0.94428 0.0
C705 C 0.28943 0.79906 0.9663 0.0
C706 C 0.31773 0.82507 0.98201 0.0
H707 H 0.23417 0.79204 0.93261 0.0
H708 H 0.29193 0.76881 0.97285 0.0
C709 C 0.31365 0.86404 0.97288 0.0
C710 C 0.41971 0.03805 0.23582 0.0
C711 C 0.45721 0.0528 0.22372 0.0
H712 H 0.37662 0.99298 0.23053 0.0
C713 C 0.47962 0.03257 0.19481 0.0
H714 H 0.40129 0.053 0.2577 0.0
C715 C 0.46545 0.99769 0.17936 0.0
C716 C 0.42857 0.9824 0.19249 0.0
H717 H 0.50866 0.04306 0.18491 0.0
H718 H 0.48403 0.98211 0.15802 0.0
C719 C 0.40558 1.00341 0.22039 0.0
C720 C 0.76011 0.33892 0.67484 0.0
C721 C 0.7901 0.36165 0.65817 0.0
H722 H 0.70788 0.30303 0.66495 0.0
C723 C 0.79151 0.36355 0.618 0.0
H724 H 0.75857 0.33662 0.70579 0.0
C725 C 0.76317 0.34444 0.59502 0.0
C726 C 0.73229 0.32264 0.61131 0.0
H727 H 0.81499 0.37957 0.60404 0.0
H728 H 0.76558 0.34711 0.56415 0.0
C729 C 0.73127 0.3196 0.65154 0.0
C730 C 0.99117 0.51022 0.88163 0.0
C731 C 0.96254 0.48136 0.87415 0.0
H732 H 1.00124 0.56718 0.9044 0.0
C733 C 0.92206 0.48705 0.88751 0.0
H734 H 0.02264 0.50668 0.8717 0.0
C735 C 0.9098 0.52164 0.90605 0.0
C736 C 0.93771 0.55149 0.91166 0.0
H737 H 0.89928 0.46539 0.8821 0.0
H738 H 0.87783 0.52563 0.91432 0.0
C739 C 0.97882 0.54503 0.90001 0.0
C740 C 0.78332 0.71254 0.09211 0.0
C741 C 0.79861 0.74878 0.10247 0.0
H742 H 0.742 0.66829 0.10479 0.0
C743 C 0.78281 0.76832 0.13537 0.0
H744 H 0.79431 0.69669 0.06678 0.0
C745 C 0.75251 0.75161 0.15754 0.0
C746 C 0.7378 0.7151 0.14717 0.0
H747 H 0.79387 0.79634 0.14401 0.0
H748 H 0.7411 0.76689 0.18303 0.0
C749 C 0.75332 0.69604 0.11405 0.0
C750 C 0.55279 0.51927 0.40978 0.0
C751 C 0.58831 0.49892 0.39654 0.0
H752 H 0.51002 0.56667 0.40111 0.0
C753 C 0.60729 0.51084 0.36292 0.0
H754 H 0.53761 0.51095 0.43576 0.0
C755 C 0.59193 0.54274 0.3435 0.0
C756 C 0.55688 0.56359 0.35691 0.0
H757 H 0.63416 0.49541 0.35144 0.0
H758 H 0.6077 0.55092 0.31777 0.0
C759 C 0.53718 0.55134 0.39012 0.0
C760 C 0.3991 0.2856 0.25719 0.0
C761 C 0.39434 0.29664 0.21868 0.0
H762 H 0.42647 0.24483 0.29578 0.0
C763 C 0.40666 0.2705 0.18916 0.0
H764 H 0.38943 0.30497 0.28054 0.0
C765 C 0.42756 0.23612 0.19797 0.0
C766 C 0.43589 0.22699 0.23637 0.0
H767 H 0.4037 0.27816 0.15926 0.0
H768 H 0.44061 0.21842 0.17471 0.0
C769 C 0.4197 0.25094 0.26596 0.0
C770 C 0.97181 0.29009 0.87397 0.0
C771 C 0.95381 0.31082 0.84366 0.0
H772 H 0.96836 0.24247 0.91095 0.0
C773 C 0.9163 0.29855 0.82782 0.0
H774 H 1.00081 0.29839 0.88684 0.0
C775 C 0.89727 0.26626 0.84217 0.0
C776 C 0.9154 0.24573 0.87264 0.0
H777 H 0.90157 0.3139 0.80452 0.0
H778 H 0.86821 0.25762 0.8297 0.0
C779 C 0.95297 0.25803 0.88814 0.0
C780 C 1.00539 0.69536 0.12672 0.0
C781 C 0.03659 0.68463 0.10055 0.0
H782 H 0.94836 0.72609 0.13629 0.0
C783 C 0.03149 0.69373 0.06161 0.0
H784 H 1.0084 0.68825 0.15679 0.0
C785 C 0.9969 0.7158 0.04973 0.0
C786 C 0.96715 0.7287 0.07673 0.0
H787 H 0.05522 0.68564 0.04094 0.0
H788 H 0.99457 0.72442 1.02007 0.0
C789 C 0.97102 0.71697 0.11493 0.0
C790 C 0.61243 0.77393 0.38964 0.0
C791 C 0.61948 0.80244 0.36275 0.0
H792 H 0.5871 0.71915 0.40025 0.0
C793 C 0.6094 0.79476 0.32384 0.0
H794 H 0.62058 0.77844 0.41966 0.0
C795 C 0.59041 0.76046 0.31263 0.0
C796 C 0.58111 0.73318 0.34009 0.0
H797 H 0.61423 0.81607 0.30234 0.0
H798 H 0.58123 0.75621 0.28283 0.0
C799 C 0.59352 0.73977 0.37845 0.0
C800 C 0.54871 0.36372 0.58468 0.0
C801 C 0.54067 0.32834 0.56613 0.0
H802 H 0.52316 0.41266 0.61635 0.0
C803 C 0.49967 0.31752 0.561 0.0
H804 H 0.58011 0.37266 0.58901 0.0
C805 C 0.4674 0.34012 0.57645 0.0
C806 C 0.47531 0.3741 0.59757 0.0
H807 H 0.49258 0.2906 0.54636 0.0
H808 H 0.43621 0.3303 0.57292 0.0
C809 C 0.51616 0.38651 0.60034 0.0
C810 C 0.11782 0.79533 0.74734 0.0
C811 C 0.11578 0.77717 0.71068 0.0
H812 H 0.09529 0.84217 0.78396 0.0
C813 C 0.09265 0.79502 0.68158 0.0
H814 H 0.13562 0.78224 0.77026 0.0
C815 C 0.07033 0.82904 0.68924 0.0
C816 C 0.07058 0.84631 0.72615 0.0
H817 H 0.09137 0.78237 0.65279 0.0
H818 H 0.05185 0.84135 0.66631 0.0
C819 C 0.09513 0.82971 0.75511 0.0
C820 C 0.49987 0.87668 1.02012 0.0
C821 C 0.48978 0.84041 1.00458 0.0
H822 H 0.53726 0.92628 1.01477 0.0
C823 C 0.51198 0.82535 0.97274 0.0
H824 H 0.48342 0.88893 0.04475 0.0
C825 C 0.5425 0.84629 0.956 0.0
C826 C 0.5517 0.88312 0.97032 0.0
H827 H 0.50575 0.79721 0.96033 0.0
H828 H 0.55886 0.83358 0.93151 0.0
C829 C 0.53069 0.89793 1.00307 0.0
C830 C 0.97502 0.23491 0.47596 0.0
C831 C 0.96811 0.19702 0.4868 0.0
H832 H 1.01229 0.2842 0.48173 0.0
C833 C 0.99411 0.18067 0.51501 0.0
H834 H 0.95514 0.24886 0.45506 0.0
C835 C 0.02713 0.20129 0.53077 0.0
C836 C 0.03484 0.23865 0.51859 0.0
H837 H 0.98982 0.15149 0.52394 0.0
H838 H 0.04719 0.18761 0.5517 0.0
C839 C 1.00789 0.2553 0.49145 0.0
loop_
_geom_bond_atom_site_label_1
_geom_bond_atom_site_label_2
_geom_bond_distance
_geom_bond_site_symmetry_2
_ccdc_geom_bond_type
Tb0 C2 2.809 . S
Tb0 O20 2.484 . S
Tb0 O21 2.440 . S
Tb0 O22 2.658 . S
Tb0 O23 2.409 . S
Tb0 O24 2.378 . S
Tb0 O28 2.325 . S
Tb0 O31 2.341 . S
Tb1 C11 2.809 . S
Tb1 O22 2.325 . S
Tb1 O25 2.341 . S
Tb1 O26 2.484 . S
Tb1 O27 2.440 . S
Tb1 O28 2.658 . S
Tb1 O29 2.409 . S
Tb1 O30 2.378 . S
C2 Tb0 2.809 . S
C2 C3 1.514 . S
C2 O20 1.248 . S
C2 O21 1.266 . S
C3 C2 1.514 . S
C3 C4 1.359 . S
C3 C8 1.348 . S
C4 C3 1.359 . S
C4 C5 1.380 . S
C4 H32 0.929 . S
C5 C4 1.380 . S
C5 C6 1.347 . S
C5 H33 0.931 . S
C6 C5 1.347 . S
C6 C7 1.369 . S
C7 C6 1.369 . S
C7 C8 1.408 . S
C7 H34 0.930 . S
C8 C3 1.348 . S
C8 C7 1.408 . S
C8 H35 0.930 . S
C9 O22 1.281 . S
C9 O23 1.254 . S
C10 O24 1.236 . S
C10 O25 1.266 . S
C11 Tb1 2.809 . S
C11 C12 1.514 . S
C11 O26 1.248 . S
C11 O27 1.266 . S
C12 C11 1.514 . S
C12 C13 1.359 . S
C12 C17 1.348 . S
C13 C12 1.359 . S
C13 C14 1.380 . S
C13 H36 0.929 . S
C14 C13 1.380 . S
C14 C15 1.347 . S
C14 H37 0.931 . S
C15 C14 1.347 . S
C15 C16 1.369 . S
C16 C15 1.369 . S
C16 C17 1.408 . S
C16 H38 0.930 . S
C17 C12 1.348 . S
C17 C16 1.408 . S
C17 H39 0.930 . S
C18 O28 1.281 . S
C18 O29 1.254 . S
C19 O30 1.236 . S
C19 O31 1.266 . S
O20 Tb0 2.484 . S
O20 C2 1.248 . S
O21 Tb0 2.440 . S
O21 C2 1.266 . S
O22 Tb0 2.658 . S
O22 Tb1 2.325 . S
O22 C9 1.281 . S
O23 Tb0 2.409 . S
O23 C9 1.254 . S
O24 Tb0 2.378 . S
O24 C10 1.236 . S
O25 Tb1 2.341 . S
O25 C10 1.266 . S
O26 Tb1 2.484 . S
O26 C11 1.248 . S
O27 Tb1 2.440 . S
O27 C11 1.266 . S
O28 Tb0 2.325 . S
O28 Tb1 2.658 . S
O28 C18 1.281 . S
O29 Tb1 2.409 . S
O29 C18 1.254 . S
O30 Tb1 2.378 . S
O30 C19 1.236 . S
O31 Tb0 2.341 . S
O31 C19 1.266 . S
H32 C4 0.929 . S
H33 C5 0.931 . S
H34 C7 0.930 . S
H35 C8 0.930 . S
H36 C13 0.929 . S
H37 C14 0.931 . S
H38 C16 0.930 . S
H39 C17 0.930 . S
Tb40 C42 2.809 . S
Tb40 O60 2.484 . S
Tb40 O61 2.440 . S
Tb40 O62 2.658 1_655 S
Tb40 O63 2.409 1_655 S
Tb40 O64 2.378 1_655 S
Tb40 O68 2.325 . S
Tb40 O71 2.341 . S
Tb41 C51 2.809 . S
Tb41 O62 2.325 . S
Tb41 O65 2.341 . S
Tb41 O66 2.484 . S
Tb41 O67 2.440 . S
Tb41 O68 2.658 1_455 S
Tb41 O69 2.409 1_455 S
Tb41 O70 2.378 1_455 S
C42 Tb40 2.809 . S
C42 C43 1.514 . S
C42 O60 1.248 . S
C42 O61 1.266 . S
C43 C42 1.514 . S
C43 C44 1.359 . S
C43 C48 1.348 . S
C44 C43 1.359 . S
C44 C45 1.380 . S
C44 H72 0.929 . S
C45 C44 1.380 . S
C45 C46 1.347 . S
C45 H73 0.931 . S
C46 C45 1.347 . S
C46 C47 1.369 . S
C47 C46 1.369 . S
C47 C48 1.408 . S
C47 H74 0.930 . S
C48 C43 1.348 . S
C48 C47 1.408 . S
C48 H75 0.930 . S
C49 O62 1.281 . S
C49 O63 1.254 . S
C50 O64 1.236 . S
C50 O65 1.266 . S
C51 Tb41 2.809 . S
C51 C52 1.514 . S
C51 O66 1.248 . S
C51 O67 1.266 . S
C52 C51 1.514 . S
C52 C53 1.359 . S
C52 C57 1.348 . S
C53 C52 1.359 . S
C53 C54 1.380 . S
C53 H76 0.929 . S
C54 C53 1.380 . S
C54 C55 1.347 . S
C54 H77 0.931 . S
C55 C54 1.347 . S
C55 C56 1.369 . S
C56 C55 1.369 . S
C56 C57 1.408 . S
C56 H78 0.930 . S
C57 C52 1.348 . S
C57 C56 1.408 . S
C57 H79 0.930 . S
C58 O68 1.281 . S
C58 O69 1.254 . S
C59 O70 1.236 . S
C59 O71 1.266 . S
O60 Tb40 2.484 . S
O60 C42 1.248 . S
O61 Tb40 2.440 . S
O61 C42 1.266 . S
O62 Tb40 2.658 1_455 S
O62 Tb41 2.325 . S
O62 C49 1.281 . S
O63 Tb40 2.409 1_455 S
O63 C49 1.254 . S
O64 Tb40 2.378 1_455 S
O64 C50 1.236 . S
O65 Tb41 2.341 . S
O65 C50 1.266 . S
O66 Tb41 2.484 . S
O66 C51 1.248 . S
O67 Tb41 2.440 . S
O67 C51 1.266 . S
O68 Tb40 2.325 . S
O68 Tb41 2.658 1_655 S
O68 C58 1.281 . S
O69 Tb41 2.409 1_655 S
O69 C58 1.254 . S
O70 Tb41 2.378 1_655 S
O70 C59 1.236 . S
O71 Tb40 2.341 . S
O71 C59 1.266 . S
H72 C44 0.929 . S
H73 C45 0.931 . S
H74 C47 0.930 . S
H75 C48 0.930 . S
H76 C53 0.929 . S
H77 C54 0.931 . S
H78 C56 0.930 . S
H79 C57 0.930 . S
Tb80 C82 2.809 . S
Tb80 O100 2.484 . S
Tb80 O101 2.440 . S
Tb80 O102 2.658 1_554 S
Tb80 O103 2.409 1_554 S
Tb80 O104 2.359 1_554 S
Tb80 O108 2.325 . S
Tb80 O111 2.341 . S
Tb81 C91 2.809 . S
Tb81 O102 2.325 . S
Tb81 O105 2.341 . S
Tb81 O106 2.484 . S
Tb81 O107 2.440 . S
Tb81 O108 2.658 1_556 S
Tb81 O109 2.409 1_556 S
Tb81 O110 2.364 1_556 S
C82 Tb80 2.809 . S
C82 C83 1.514 . S
C82 O100 1.248 . S
C82 O101 1.266 . S
C83 C82 1.514 . S
C83 C84 1.359 . S
C83 C88 1.348 . S
C84 C83 1.359 . S
C84 C85 1.380 . S
C84 H112 0.929 . S
C85 C84 1.380 . S
C85 C86 1.347 . S
C85 H113 0.931 . S
C86 C85 1.347 . S
C86 C87 1.369 . S
C87 C86 1.369 . S
C87 C88 1.408 . S
C87 H114 0.930 . S
C88 C83 1.348 . S
C88 C87 1.408 . S
C88 H115 0.930 . S
C89 O102 1.281 . S
C89 O103 1.254 . S
C90 O104 1.253 . S
C90 O105 1.266 . S
C91 Tb81 2.809 . S
C91 C92 1.514 . S
C91 O106 1.248 . S
C91 O107 1.266 . S
C92 C91 1.514 . S
C92 C93 1.359 . S
C92 C97 1.348 . S
C93 C92 1.359 . S
C93 C94 1.380 . S
C93 H116 0.929 . S
C94 C93 1.380 . S
C94 C95 1.347 . S
C94 H117 0.931 . S
C95 C94 1.347 . S
C95 C96 1.369 . S
C96 C95 1.369 . S
C96 C97 1.408 . S
C96 H118 0.930 . S
C97 C92 1.348 . S
C97 C96 1.408 . S
C97 H119 0.930 . S
C98 O108 1.281 . S
C98 O109 1.254 . S
C99 O110 1.249 . S
C99 O111 1.266 . S
O100 Tb80 2.484 . S
O100 C82 1.248 . S
O101 Tb80 2.440 . S
O101 C82 1.266 . S
O102 Tb80 2.658 1_556 S
O102 Tb81 2.325 . S
O102 C89 1.281 . S
O103 Tb80 2.409 1_556 S
O103 C89 1.254 . S
O104 Tb80 2.359 1_556 S
O104 C90 1.253 . S
O105 Tb81 2.341 . S
O105 C90 1.266 . S
O106 Tb81 2.484 . S
O106 C91 1.248 . S
O107 Tb81 2.440 . S
O107 C91 1.266 . S
O108 Tb80 2.325 . S
O108 Tb81 2.658 1_554 S
O108 C98 1.281 . S
O109 Tb81 2.409 1_554 S
O109 C98 1.254 . S
O110 Tb81 2.364 1_554 S
O110 C99 1.249 . S
O111 Tb80 2.341 . S
O111 C99 1.266 . S
H112 C84 0.929 . S
H113 C85 0.931 . S
H114 C87 0.930 . S
H115 C88 0.930 . S
H116 C93 0.929 . S
H117 C94 0.931 . S
H118 C96 0.930 . S
H119 C97 0.930 . S
Tb120 C122 2.809 . S
Tb120 O140 2.484 . S
Tb120 O141 2.440 . S
Tb120 O142 2.658 . S
Tb120 O143 2.409 . S
Tb120 O144 2.378 . S
Tb120 O148 2.325 . S
Tb120 O151 2.341 . S
Tb121 C131 2.809 . S
Tb121 O142 2.325 . S
Tb121 O145 2.341 . S
Tb121 O146 2.484 . S
Tb121 O147 2.440 . S
Tb121 O148 2.658 . S
Tb121 O149 2.409 . S
Tb121 O150 2.378 . S
C122 Tb120 2.809 . S
C122 C123 1.514 . S
C122 O140 1.248 . S
C122 O141 1.266 . S
C123 C122 1.514 . S
C123 C124 1.359 . S
C123 C128 1.348 . S
C124 C123 1.359 . S
C124 C125 1.380 . S
C124 H152 0.929 . S
C125 C124 1.380 . S
C125 C126 1.347 . S
C125 H153 0.931 . S
C126 C125 1.347 . S
C126 C127 1.369 . S
C127 C126 1.369 . S
C127 C128 1.408 . S
C127 H154 0.930 . S
C128 C123 1.348 . S
C128 C127 1.408 . S
C128 H155 0.930 . S
C129 O142 1.281 . S
C129 O143 1.254 . S
C130 O144 1.236 . S
C130 O145 1.266 . S
C131 Tb121 2.809 . S
C131 C132 1.514 . S
C131 O146 1.248 . S
C131 O147 1.266 . S
C132 C131 1.514 . S
C132 C133 1.359 . S
C132 C137 1.348 . S
C133 C132 1.359 . S
C133 C134 1.380 . S
C133 H156 0.929 . S
C134 C133 1.380 . S
C134 C135 1.347 . S
C134 H157 0.931 . S
C135 C134 1.347 . S
C135 C136 1.369 . S
C136 C135 1.369 . S
C136 C137 1.408 . S
C136 H158 0.930 . S
C137 C132 1.348 . S
C137 C136 1.408 . S
C137 H159 0.930 . S
C138 O148 1.281 . S
C138 O149 1.254 . S
C139 O150 1.236 . S
C139 O151 1.266 . S
O140 Tb120 2.484 . S
O140 C122 1.248 . S
O141 Tb120 2.440 . S
O141 C122 1.266 . S
O142 Tb120 2.658 . S
O142 Tb121 2.325 . S
O142 C129 1.281 . S
O143 Tb120 2.409 . S
O143 C129 1.254 . S
O144 Tb120 2.378 . S
O144 C130 1.236 . S
O145 Tb121 2.341 . S
O145 C130 1.266 . S
O146 Tb121 2.484 . S
O146 C131 1.248 . S
O147 Tb121 2.440 . S
O147 C131 1.266 . S
O148 Tb120 2.325 . S
O148 Tb121 2.658 . S
O148 C138 1.281 . S
O149 Tb121 2.409 . S
O149 C138 1.254 . S
O150 Tb121 2.378 . S
O150 C139 1.236 . S
O151 Tb120 2.341 . S
O151 C139 1.266 . S
H152 C124 0.929 . S
H153 C125 0.931 . S
H154 C127 0.930 . S
H155 C128 0.930 . S
H156 C133 0.929 . S
H157 C134 0.931 . S
H158 C136 0.930 . S
H159 C137 0.930 . S
Tb160 C162 2.809 . S
Tb160 O180 2.484 . S
Tb160 O181 2.440 . S
Tb160 O182 2.658 . S
Tb160 O183 2.409 . S
Tb160 O184 2.378 . S
Tb160 O188 2.325 . S
Tb160 O191 2.341 . S
Tb161 C171 2.809 . S
Tb161 O182 2.325 . S
Tb161 O185 2.341 . S
Tb161 O186 2.484 . S
Tb161 O187 2.440 . S
Tb161 O188 2.658 . S
Tb161 O189 2.409 . S
Tb161 O190 2.378 . S
C162 Tb160 2.809 . S
C162 C163 1.514 . S
C162 O180 1.248 . S
C162 O181 1.266 . S
C163 C162 1.514 . S
C163 C164 1.359 . S
C163 C168 1.348 . S
C164 C163 1.359 . S
C164 C165 1.380 . S
C164 H192 0.929 . S
C165 C164 1.380 . S
C165 C166 1.347 . S
C165 H193 0.931 . S
C166 C165 1.347 . S
C166 C167 1.369 . S
C167 C166 1.369 . S
C167 C168 1.408 . S
C167 H194 0.930 . S
C168 C163 1.348 . S
C168 C167 1.408 . S
C168 H195 0.930 . S
C169 O182 1.281 . S
C169 O183 1.254 . S
C170 O184 1.236 . S
C170 O185 1.266 . S
C171 Tb161 2.809 . S
C171 C172 1.514 . S
C171 O186 1.248 . S
C171 O187 1.266 . S
C172 C171 1.514 . S
C172 C173 1.359 . S
C172 C177 1.348 . S
C173 C172 1.359 . S
C173 C174 1.380 . S
C173 H196 0.929 . S
C174 C173 1.380 . S
C174 C175 1.347 . S
C174 H197 0.931 . S
C175 C174 1.347 . S
C175 C176 1.369 . S
C176 C175 1.369 . S
C176 C177 1.408 . S
C176 H198 0.930 . S
C177 C172 1.348 . S
C177 C176 1.408 . S
C177 H199 0.930 . S
C178 O188 1.281 . S
C178 O189 1.254 . S
C179 O190 1.236 . S
C179 O191 1.266 . S
O180 Tb160 2.484 . S
O180 C162 1.248 . S
O181 Tb160 2.440 . S
O181 C162 1.266 . S
O182 Tb160 2.658 . S
O182 Tb161 2.325 . S
O182 C169 1.281 . S
O183 Tb160 2.409 . S
O183 C169 1.254 . S
O184 Tb160 2.378 . S
O184 C170 1.236 . S
O185 Tb161 2.341 . S
O185 C170 1.266 . S
O186 Tb161 2.484 . S
O186 C171 1.248 . S
O187 Tb161 2.440 . S
O187 C171 1.266 . S
O188 Tb160 2.325 . S
O188 Tb161 2.658 . S
O188 C178 1.281 . S
O189 Tb161 2.409 . S
O189 C178 1.254 . S
O190 Tb161 2.378 . S
O190 C179 1.236 . S
O191 Tb160 2.341 . S
O191 C179 1.266 . S
H192 C164 0.929 . S
H193 C165 0.931 . S
H194 C167 0.930 . S
H195 C168 0.930 . S
H196 C173 0.929 . S
H197 C174 0.931 . S
H198 C176 0.930 . S
H199 C177 0.930 . S
Tb200 C202 2.809 . S
Tb200 O220 2.484 . S
Tb200 O221 2.440 . S
Tb200 O222 2.658 . S
Tb200 O223 2.409 . S
Tb200 O224 2.378 . S
Tb200 O228 2.325 1_655 S
Tb200 O231 2.341 1_655 S
Tb201 C211 2.809 . S
Tb201 O222 2.325 1_455 S
Tb201 O225 2.341 1_455 S
Tb201 O226 2.484 . S
Tb201 O227 2.440 . S
Tb201 O228 2.658 . S
Tb201 O229 2.409 . S
Tb201 O230 2.378 . S
C202 Tb200 2.809 . S
C202 C203 1.514 . S
C202 O220 1.248 . S
C202 O221 1.266 . S
C203 C202 1.514 . S
C203 C204 1.359 . S
C203 C208 1.348 . S
C204 C203 1.359 . S
C204 C205 1.380 . S
C204 H232 0.929 . S
C205 C204 1.380 . S
C205 C206 1.347 . S
C205 H233 0.931 . S
C206 C205 1.347 . S
C206 C207 1.369 . S
C207 C206 1.369 . S
C207 C208 1.408 . S
C207 H234 0.930 . S
C208 C203 1.348 . S
C208 C207 1.408 . S
C208 H235 0.930 . S
C209 O222 1.281 . S
C209 O223 1.254 . S
C210 O224 1.236 . S
C210 O225 1.266 . S
C211 Tb201 2.809 . S
C211 C212 1.514 . S
C211 O226 1.248 . S
C211 O227 1.266 . S
C212 C211 1.514 . S
C212 C213 1.359 . S
C212 C217 1.348 . S
C213 C212 1.359 . S
C213 C214 1.380 . S
C213 H236 0.929 . S
C214 C213 1.380 . S
C214 C215 1.347 . S
C214 H237 0.931 . S
C215 C214 1.347 . S
C215 C216 1.369 . S
C216 C215 1.369 . S
C216 C217 1.408 . S
C216 H238 0.930 . S
C217 C212 1.348 . S
C217 C216 1.408 . S
C217 H239 0.930 . S
C218 O228 1.281 . S
C218 O229 1.254 . S
C219 O230 1.236 . S
C219 O231 1.266 . S
O220 Tb200 2.484 . S
O220 C202 1.248 . S
O221 Tb200 2.440 . S
O221 C202 1.266 . S
O222 Tb200 2.658 . S
O222 Tb201 2.325 1_655 S
O222 C209 1.281 . S
O223 Tb200 2.409 . S
O223 C209 1.254 . S
O224 Tb200 2.378 . S
O224 C210 1.236 . S
O225 Tb201 2.341 1_655 S
O225 C210 1.266 . S
O226 Tb201 2.484 . S
O226 C211 1.248 . S
O227 Tb201 2.440 . S
O227 C211 1.266 . S
O228 Tb200 2.325 1_455 S
O228 Tb201 2.658 . S
O228 C218 1.281 . S
O229 Tb201 2.409 . S
O229 C218 1.254 . S
O230 Tb201 2.378 . S
O230 C219 1.236 . S
O231 Tb200 2.341 1_455 S
O231 C219 1.266 . S
H232 C204 0.929 . S
H233 C205 0.931 . S
H234 C207 0.930 . S
H235 C208 0.930 . S
H236 C213 0.929 . S
H237 C214 0.931 . S
H238 C216 0.930 . S
H239 C217 0.930 . S
Tb240 C242 2.809 . S
Tb240 O260 2.484 . S
Tb240 O261 2.440 . S
Tb240 O262 2.658 . S
Tb240 O263 2.409 . S
Tb240 O264 2.378 . S
Tb240 O268 2.325 1_554 S
Tb240 O271 2.341 1_554 S
Tb241 C251 2.809 . S
Tb241 O262 2.325 1_556 S
Tb241 O265 2.341 1_556 S
Tb241 O266 2.484 . S
Tb241 O267 2.440 . S
Tb241 O268 2.658 . S
Tb241 O269 2.409 . S
Tb241 O270 2.378 . S
C242 Tb240 2.809 . S
C242 C243 1.514 . S
C242 O260 1.248 . S
C242 O261 1.266 . S
C243 C242 1.514 . S
C243 C244 1.359 . S
C243 C248 1.348 . S
C244 C243 1.359 . S
C244 C245 1.380 . S
C244 H272 0.929 . S
C245 C244 1.380 . S
C245 C246 1.347 . S
C245 H273 0.931 . S
C246 C245 1.347 . S
C246 C247 1.369 . S
C247 C246 1.369 . S
C247 C248 1.408 . S
C247 H274 0.930 . S
C248 C243 1.348 . S
C248 C247 1.408 . S
C248 H275 0.930 . S
C249 O262 1.281 . S
C249 O263 1.254 . S
C250 O264 1.236 . S
C250 O265 1.266 . S
C251 Tb241 2.809 . S
C251 C252 1.514 . S
C251 O266 1.248 . S
C251 O267 1.266 . S
C252 C251 1.514 . S
C252 C253 1.359 . S
C252 C257 1.348 . S
C253 C252 1.359 . S
C253 C254 1.380 . S
C253 H276 0.929 . S
C254 C253 1.380 . S
C254 C255 1.347 . S
C254 H277 0.931 . S
C255 C254 1.347 . S
C255 C256 1.369 . S
C256 C255 1.369 . S
C256 C257 1.408 . S
C256 H278 0.930 . S
C257 C252 1.348 . S
C257 C256 1.408 . S
C257 H279 0.930 . S
C258 O268 1.281 . S
C258 O269 1.254 . S
C259 O270 1.236 . S
C259 O271 1.266 . S
O260 Tb240 2.484 . S
O260 C242 1.248 . S
O261 Tb240 2.440 . S
O261 C242 1.266 . S
O262 Tb240 2.658 . S
O262 Tb241 2.325 1_554 S
O262 C249 1.281 . S
O263 Tb240 2.409 . S
O263 C249 1.254 . S
O264 Tb240 2.378 . S
O264 C250 1.236 . S
O265 Tb241 2.341 1_554 S
O265 C250 1.266 . S
O266 Tb241 2.484 . S
O266 C251 1.248 . S
O267 Tb241 2.440 . S
O267 C251 1.266 . S
O268 Tb240 2.325 1_556 S
O268 Tb241 2.658 . S
O268 C258 1.281 . S
O269 Tb241 2.409 . S
O269 C258 1.254 . S
O270 Tb241 2.378 . S
O270 C259 1.236 . S
O271 Tb240 2.341 1_556 S
O271 C259 1.266 . S
H272 C244 0.929 . S
H273 C245 0.931 . S
H274 C247 0.930 . S
H275 C248 0.930 . S
H276 C253 0.929 . S
H277 C254 0.931 . S
H278 C256 0.930 . S
H279 C257 0.930 . S
Tb280 C282 2.809 . S
Tb280 O300 2.484 . S
Tb280 O301 2.440 . S
Tb280 O302 2.658 . S
Tb280 O303 2.409 . S
Tb280 O304 2.378 . S
Tb280 O308 2.325 . S
Tb280 O311 2.341 . S
Tb281 C291 2.809 . S
Tb281 O302 2.325 . S
Tb281 O305 2.341 . S
Tb281 O306 2.484 . S
Tb281 O307 2.440 . S
Tb281 O308 2.658 . S
Tb281 O309 2.409 . S
Tb281 O310 2.378 . S
C282 Tb280 2.809 . S
C282 C283 1.514 . S
C282 O300 1.248 . S
C282 O301 1.266 . S
C283 C282 1.514 . S
C283 C284 1.359 . S
C283 C288 1.348 . S
C284 C283 1.359 . S
C284 C285 1.380 . S
C284 H312 0.929 . S
C285 C284 1.380 . S
C285 C286 1.347 . S
C285 H313 0.931 . S
C286 C285 1.347 . S
C286 C287 1.369 . S
C287 C286 1.369 . S
C287 C288 1.408 . S
C287 H314 0.930 . S
C288 C283 1.348 . S
C288 C287 1.408 . S
C288 H315 0.930 . S
C289 O302 1.281 . S
C289 O303 1.254 . S
C290 O304 1.236 . S
C290 O305 1.266 . S
C291 Tb281 2.809 . S
C291 C292 1.514 . S
C291 O306 1.248 . S
C291 O307 1.266 . S
C292 C291 1.514 . S
C292 C293 1.359 . S
C292 C297 1.348 . S
C293 C292 1.359 . S
C293 C294 1.380 . S
C293 H316 0.929 . S
C294 C293 1.380 . S
C294 C295 1.347 . S
C294 H317 0.931 . S
C295 C294 1.347 . S
C295 C296 1.369 . S
C296 C295 1.369 . S
C296 C297 1.408 . S
C296 H318 0.930 . S
C297 C292 1.348 . S
C297 C296 1.408 . S
C297 H319 0.930 . S
C298 O308 1.281 . S
C298 O309 1.254 . S
C299 O310 1.236 . S
C299 O311 1.266 . S
O300 Tb280 2.484 . S
O300 C282 1.248 . S
O301 Tb280 2.440 . S
O301 C282 1.266 . S
O302 Tb280 2.658 . S
O302 Tb281 2.325 . S
O302 C289 1.281 . S
O303 Tb280 2.409 . S
O303 C289 1.254 . S
O304 Tb280 2.378 . S
O304 C290 1.236 . S
O305 Tb281 2.341 . S
O305 C290 1.266 . S
O306 Tb281 2.484 . S
O306 C291 1.248 . S
O307 Tb281 2.440 . S
O307 C291 1.266 . S
O308 Tb280 2.325 . S
O308 Tb281 2.658 . S
O308 C298 1.281 . S
O309 Tb281 2.409 . S
O309 C298 1.254 . S
O310 Tb281 2.378 . S
O310 C299 1.236 . S
O311 Tb280 2.341 . S
O311 C299 1.266 . S
H312 C284 0.929 . S
H313 C285 0.931 . S
H314 C287 0.930 . S
H315 C288 0.930 . S
H316 C293 0.929 . S
H317 C294 0.931 . S
H318 C296 0.930 . S
H319 C297 0.930 . S
Tb320 C322 2.809 . S
Tb320 O340 2.484 . S
Tb320 O341 2.440 . S
Tb320 O342 2.658 . S
Tb320 O343 2.409 . S
Tb320 O344 2.378 . S
Tb320 O348 2.325 . S
Tb320 O351 2.341 . S
Tb321 C331 2.809 . S
Tb321 O342 2.325 . S
Tb321 O345 2.341 . S
Tb321 O346 2.484 . S
Tb321 O347 2.440 . S
Tb321 O348 2.658 . S
Tb321 O349 2.409 . S
Tb321 O350 2.378 . S
C322 Tb320 2.809 . S
C322 C323 1.514 . S
C322 O340 1.248 . S
C322 O341 1.266 . S
C323 C322 1.514 . S
C323 C324 1.359 . S
C323 C328 1.348 . S
C324 C323 1.359 . S
C324 C325 1.380 . S
C324 H352 0.929 . S
C325 C324 1.380 . S
C325 C326 1.347 . S
C325 H353 0.931 . S
C326 C325 1.347 . S
C326 C327 1.369 . S
C327 C326 1.369 . S
C327 C328 1.408 . S
C327 H354 0.930 . S
C328 C323 1.348 . S
C328 C327 1.408 . S
C328 H355 0.930 . S
C329 O342 1.281 . S
C329 O343 1.254 . S
C330 O344 1.236 . S
C330 O345 1.266 . S
C331 Tb321 2.809 . S
C331 C332 1.514 . S
C331 O346 1.248 . S
C331 O347 1.266 . S
C332 C331 1.514 . S
C332 C333 1.359 . S
C332 C337 1.348 . S
C333 C332 1.359 . S
C333 C334 1.380 . S
C333 H356 0.929 . S
C334 C333 1.380 . S
C334 C335 1.347 . S
C334 H357 0.931 . S
C335 C334 1.347 . S
C335 C336 1.369 . S
C336 C335 1.369 . S
C336 C337 1.408 . S
C336 H358 0.930 . S
C337 C332 1.348 . S
C337 C336 1.408 . S
C337 H359 0.930 . S
C338 O348 1.281 . S
C338 O349 1.254 . S
C339 O350 1.236 . S
C339 O351 1.266 . S
O340 Tb320 2.484 . S
O340 C322 1.248 . S
O341 Tb320 2.440 . S
O341 C322 1.266 . S
O342 Tb320 2.658 . S
O342 Tb321 2.325 . S
O342 C329 1.281 . S
O343 Tb320 2.409 . S
O343 C329 1.254 . S
O344 Tb320 2.378 . S
O344 C330 1.236 . S
O345 Tb321 2.341 . S
O345 C330 1.266 . S
O346 Tb321 2.484 . S
O346 C331 1.248 . S
O347 Tb321 2.440 . S
O347 C331 1.266 . S
O348 Tb320 2.325 . S
O348 Tb321 2.658 . S
O348 C338 1.281 . S
O349 Tb321 2.409 . S
O349 C338 1.254 . S
O350 Tb321 2.378 . S
O350 C339 1.236 . S
O351 Tb320 2.341 . S
O351 C339 1.266 . S
H352 C324 0.929 . S
H353 C325 0.931 . S
H354 C327 0.930 . S
H355 C328 0.930 . S
H356 C333 0.929 . S
H357 C334 0.931 . S
H358 C336 0.930 . S
H359 C337 0.930 . S
Tb360 C362 2.809 . S
Tb360 O380 2.484 . S
Tb360 O381 2.440 . S
Tb360 O382 2.658 . S
Tb360 O383 2.409 . S
Tb360 O384 2.378 . S
Tb360 O388 2.325 . S
Tb360 O391 2.341 1_545 S
Tb361 C371 2.809 . S
Tb361 O382 2.325 1_565 S
Tb361 O385 2.341 1_565 S
Tb361 O386 2.484 . S
Tb361 O387 2.440 . S
Tb361 O388 2.658 1_565 S
Tb361 O389 2.409 . S
Tb361 O390 2.378 . S
C362 Tb360 2.809 . S
C362 C363 1.514 . S
C362 O380 1.248 . S
C362 O381 1.266 . S
C363 C362 1.514 . S
C363 C364 1.359 . S
C363 C368 1.348 . S
C364 C363 1.359 . S
C364 C365 1.380 . S
C364 H392 0.929 . S
C365 C364 1.380 . S
C365 C366 1.347 . S
C365 H393 0.931 . S
C366 C365 1.347 . S
C366 C367 1.369 . S
C367 C366 1.369 . S
C367 C368 1.408 . S
C367 H394 0.930 . S
C368 C363 1.348 . S
C368 C367 1.408 . S
C368 H395 0.930 . S
C369 O382 1.281 . S
C369 O383 1.254 . S
C370 O384 1.236 . S
C370 O385 1.266 . S
C371 Tb361 2.809 . S
C371 C372 1.514 . S
C371 O386 1.248 . S
C371 O387 1.266 . S
C372 C371 1.514 . S
C372 C373 1.359 . S
C372 C377 1.348 . S
C373 C372 1.359 . S
C373 C374 1.380 . S
C373 H396 0.929 . S
C374 C373 1.380 . S
C374 C375 1.347 . S
C374 H397 0.931 . S
C375 C374 1.347 . S
C375 C376 1.369 . S
C376 C375 1.369 . S
C376 C377 1.408 . S
C376 H398 0.930 . S
C377 C372 1.348 . S
C377 C376 1.408 . S
C377 H399 0.930 . S
C378 O388 1.281 1_565 S
C378 O389 1.254 . S
C379 O390 1.236 . S
C379 O391 1.266 . S
O380 Tb360 2.484 . S
O380 C362 1.248 . S
O381 Tb360 2.440 . S
O381 C362 1.266 . S
O382 Tb360 2.658 . S
O382 Tb361 2.325 1_545 S
O382 C369 1.281 . S
O383 Tb360 2.409 . S
O383 C369 1.254 . S
O384 Tb360 2.378 . S
O384 C370 1.236 . S
O385 Tb361 2.341 1_545 S
O385 C370 1.266 . S
O386 Tb361 2.484 . S
O386 C371 1.248 . S
O387 Tb361 2.440 . S
O387 C371 1.266 . S
O388 Tb360 2.325 . S
O388 Tb361 2.658 1_545 S
O388 C378 1.281 1_545 S
O389 Tb361 2.409 . S
O389 C378 1.254 . S
O390 Tb361 2.378 . S
O390 C379 1.236 . S
O391 Tb360 2.341 1_565 S
O391 C379 1.266 . S
H392 C364 0.929 . S
H393 C365 0.931 . S
H394 C367 0.930 . S
H395 C368 0.930 . S
H396 C373 0.929 . S
H397 C374 0.931 . S
H398 C376 0.930 . S
H399 C377 0.930 . S
Tb400 C402 2.809 . S
Tb400 O420 2.484 . S
Tb400 O421 2.440 . S
Tb400 O422 2.658 . S
Tb400 O423 2.409 . S
Tb400 O424 2.378 . S
Tb400 O428 2.325 1_565 S
Tb400 O431 2.341 1_565 S
Tb401 C411 2.809 . S
Tb401 O422 2.325 1_545 S
Tb401 O425 2.341 1_545 S
Tb401 O426 2.484 . S
Tb401 O427 2.440 . S
Tb401 O428 2.658 . S
Tb401 O429 2.409 . S
Tb401 O430 2.378 . S
C402 Tb400 2.809 . S
C402 C403 1.514 . S
C402 O420 1.248 . S
C402 O421 1.266 . S
C403 C402 1.514 . S
C403 C404 1.359 . S
C403 C408 1.348 . S
C404 C403 1.359 . S
C404 C405 1.380 . S
C404 H432 0.929 . S
C405 C404 1.380 . S
C405 C406 1.347 . S
C405 H433 0.931 . S
C406 C405 1.347 . S
C406 C407 1.369 . S
C407 C406 1.369 . S
C407 C408 1.408 . S
C407 H434 0.930 . S
C408 C403 1.348 . S
C408 C407 1.408 . S
C408 H435 0.930 . S
C409 O422 1.281 . S
C409 O423 1.254 . S
C410 O424 1.236 . S
C410 O425 1.266 . S
C411 Tb401 2.809 . S
C411 C412 1.514 . S
C411 O426 1.248 . S
C411 O427 1.266 . S
C412 C411 1.514 . S
C412 C413 1.359 . S
C412 C417 1.348 . S
C413 C412 1.359 . S
C413 C414 1.380 . S
C413 H436 0.929 . S
C414 C413 1.380 . S
C414 C415 1.347 . S
C414 H437 0.931 . S
C415 C414 1.347 . S
C415 C416 1.369 . S
C416 C415 1.369 . S
C416 C417 1.408 . S
C416 H438 0.930 . S
C417 C412 1.348 . S
C417 C416 1.408 . S
C417 H439 0.930 . S
C418 O428 1.281 . S
C418 O429 1.254 . S
C419 O430 1.236 . S
C419 O431 1.266 . S
O420 Tb400 2.484 . S
O420 C402 1.248 . S
O421 Tb400 2.440 . S
O421 C402 1.266 . S
O422 Tb400 2.658 . S
O422 Tb401 2.325 1_565 S
O422 C409 1.281 . S
O423 Tb400 2.409 . S
O423 C409 1.254 . S
O424 Tb400 2.378 . S
O424 C410 1.236 . S
O425 Tb401 2.341 1_565 S
O425 C410 1.266 . S
O426 Tb401 2.484 . S
O426 C411 1.248 . S
O427 Tb401 2.440 . S
O427 C411 1.266 . S
O428 Tb400 2.325 1_545 S
O428 Tb401 2.658 . S
O428 C418 1.281 . S
O429 Tb401 2.409 . S
O429 C418 1.254 . S
O430 Tb401 2.378 . S
O430 C419 1.236 . S
O431 Tb400 2.341 1_545 S
O431 C419 1.266 . S
H432 C404 0.929 . S
H433 C405 0.931 . S
H434 C407 0.930 . S
H435 C408 0.930 . S
H436 C413 0.929 . S
H437 C414 0.931 . S
H438 C416 0.930 . S
H439 C417 0.930 . S
Tb440 C442 2.809 . S
Tb440 O460 2.484 . S
Tb440 O461 2.440 . S
Tb440 O462 2.658 . S
Tb440 O463 2.409 . S
Tb440 O464 2.378 . S
Tb440 O468 2.325 . S
Tb440 O471 2.341 . S
Tb441 C451 2.809 . S
Tb441 O462 2.325 . S
Tb441 O465 2.341 . S
Tb441 O466 2.484 . S
Tb441 O467 2.440 . S
Tb441 O468 2.658 . S
Tb441 O469 2.409 . S
Tb441 O470 2.378 . S
C442 Tb440 2.809 . S
C442 C443 1.514 . S
C442 O460 1.248 . S
C442 O461 1.266 . S
C443 C442 1.514 . S
C443 C444 1.359 . S
C443 C448 1.348 . S
C444 C443 1.359 . S
C444 C445 1.380 . S
C444 H472 0.929 . S
C445 C444 1.380 . S
C445 C446 1.347 . S
C445 H473 0.931 . S
C446 C445 1.347 . S
C446 C447 1.369 . S
C447 C446 1.369 . S
C447 C448 1.408 . S
C447 H474 0.930 . S
C448 C443 1.348 . S
C448 C447 1.408 . S
C448 H475 0.930 . S
C449 O462 1.281 . S
C449 O463 1.254 . S
C450 O464 1.236 . S
C450 O465 1.266 . S
C451 Tb441 2.809 . S
C451 C452 1.514 . S
C451 O466 1.248 . S
C451 O467 1.266 . S
C452 C451 1.514 . S
C452 C453 1.359 . S
C452 C457 1.348 . S
C453 C452 1.359 . S
C453 C454 1.380 . S
C453 H476 0.929 . S
C454 C453 1.380 . S
C454 C455 1.347 . S
C454 H477 0.931 . S
C455 C454 1.347 . S
C455 C456 1.369 . S
C456 C455 1.369 . S
C456 C457 1.408 . S
C456 H478 0.930 . S
C457 C452 1.348 . S
C457 C456 1.408 . S
C457 H479 0.930 . S
C458 O468 1.281 . S
C458 O469 1.254 . S
C459 O470 1.236 . S
C459 O471 1.266 . S
O460 Tb440 2.484 . S
O460 C442 1.248 . S
O461 Tb440 2.440 . S
O461 C442 1.266 . S
O462 Tb440 2.658 . S
O462 Tb441 2.325 . S
O462 C449 1.281 . S
O463 Tb440 2.409 . S
O463 C449 1.254 . S
O464 Tb440 2.378 . S
O464 C450 1.236 . S
O465 Tb441 2.341 . S
O465 C450 1.266 . S
O466 Tb441 2.484 . S
O466 C451 1.248 . S
O467 Tb441 2.440 . S
O467 C451 1.266 . S
O468 Tb440 2.325 . S
O468 Tb441 2.658 . S
O468 C458 1.281 . S
O469 Tb441 2.409 . S
O469 C458 1.254 . S
O470 Tb441 2.378 . S
O470 C459 1.236 . S
O471 Tb440 2.341 . S
O471 C459 1.266 . S
H472 C444 0.929 . S
H473 C445 0.931 . S
H474 C447 0.930 . S
H475 C448 0.930 . S
H476 C453 0.929 . S
H477 C454 0.931 . S
H478 C456 0.930 . S
H479 C457 0.930 . S
C480 C481 1.387 . S
C480 H484 0.950 . S
C480 C489 1.390 . S
C481 C480 1.387 . S
C481 C483 1.387 . S
H482 C489 0.950 . S
C483 C481 1.387 . S
C483 C485 1.390 . S
C483 H487 0.950 . S
H484 C480 0.950 . S
C485 C483 1.390 . S
C485 C486 1.387 . S
C485 H488 0.950 . S
C486 C485 1.387 . S
C486 C489 1.387 . S
H487 C483 0.950 . S
H488 C485 0.950 . S
C489 C480 1.390 . S
C489 H482 0.950 . S
C489 C486 1.387 . S
C490 C491 1.387 . S
C490 H494 0.950 . S
C490 C499 1.390 . S
C491 C490 1.387 . S
C491 C493 1.387 . S
H492 C499 0.950 . S
C493 C491 1.387 . S
C493 C495 1.390 . S
C493 H497 0.950 . S
H494 C490 0.950 . S
C495 C493 1.390 . S
C495 C496 1.387 . S
C495 H498 0.950 . S
C496 C495 1.387 . S
C496 C499 1.387 . S
H497 C493 0.950 . S
H498 C495 0.950 . S
C499 C490 1.390 . S
C499 H492 0.950 . S
C499 C496 1.387 . S
C500 C501 1.387 . S
C500 H504 0.950 . S
C500 C509 1.390 . S
C501 C500 1.387 . S
C501 C503 1.387 . S
H502 C509 0.950 . S
C503 C501 1.387 . S
C503 C505 1.390 . S
C503 H507 0.945 1_554 S
H504 C500 0.950 . S
C505 C503 1.390 . S
C505 C506 1.387 . S
C505 H508 0.950 . S
C506 C505 1.387 . S
C506 C509 1.387 . S
H507 C503 0.945 1_556 S
H508 C505 0.950 . S
C509 C500 1.390 . S
C509 H502 0.950 . S
C509 C506 1.387 . S
C510 C511 1.387 . S
C510 H514 0.950 . S
C510 C519 1.390 . S
C511 C510 1.387 . S
C511 C513 1.387 . S
H512 C519 0.950 . S
C513 C511 1.387 . S
C513 C515 1.390 . S
C513 H517 0.950 . S
H514 C510 0.950 . S
C515 C513 1.390 . S
C515 C516 1.387 . S
C515 H518 0.950 . S
C516 C515 1.387 . S
C516 C519 1.387 . S
H517 C513 0.950 . S
H518 C515 0.950 . S
C519 C510 1.390 . S
C519 H512 0.950 . S
C519 C516 1.387 . S
C520 C521 1.387 . S
C520 H524 0.950 . S
C520 C529 1.390 . S
C521 C520 1.387 . S
C521 C523 1.387 . S
H522 C529 0.950 . S
C523 C521 1.387 . S
C523 C525 1.390 . S
C523 H527 0.950 . S
H524 C520 0.950 . S
C525 C523 1.390 . S
C525 C526 1.387 . S
C525 H528 0.950 . S
C526 C525 1.387 . S
C526 C529 1.387 . S
H527 C523 0.950 . S
H528 C525 0.950 . S
C529 C520 1.390 . S
C529 H522 0.950 . S
C529 C526 1.387 . S
C530 C531 1.387 . S
C530 H534 0.950 . S
C530 C539 1.390 . S
C531 C530 1.387 . S
C531 C533 1.387 . S
H532 C539 0.950 . S
C533 C531 1.387 . S
C533 C535 1.390 . S
C533 H537 0.950 . S
H534 C530 0.950 . S
C535 C533 1.390 . S
C535 C536 1.387 . S
C535 H538 0.950 . S
C536 C535 1.387 . S
C536 C539 1.387 . S
H537 C533 0.950 . S
H538 C535 0.950 . S
C539 C530 1.390 . S
C539 H532 0.950 . S
C539 C536 1.387 . S
C540 C541 1.387 . S
C540 H544 0.950 1_556 S
C540 C549 1.390 . S
C541 C540 1.387 . S
C541 C543 1.387 . S
H542 C549 0.950 1_554 S
C543 C541 1.387 . S
C543 C545 1.390 . S
C543 H547 0.950 . S
H544 C540 0.950 1_554 S
C545 C543 1.390 . S
C545 C546 1.387 . S
C545 H548 0.950 . S
C546 C545 1.387 . S
C546 C549 1.387 . S
H547 C543 0.950 . S
H548 C545 0.950 . S
C549 C540 1.390 . S
C549 H542 0.950 1_556 S
C549 C546 1.387 . S
C550 C551 1.387 . S
C550 H554 0.950 . S
C550 C559 1.390 . S
C551 C550 1.387 . S
C551 C553 1.387 . S
H552 C559 0.950 . S
C553 C551 1.387 . S
C553 C555 1.390 . S
C553 H557 0.950 . S
H554 C550 0.950 . S
C555 C553 1.390 . S
C555 C556 1.387 . S
C555 H558 0.950 . S
C556 C555 1.387 . S
C556 C559 1.387 . S
H557 C553 0.950 . S
H558 C555 0.950 . S
C559 C550 1.390 . S
C559 H552 0.950 . S
C559 C556 1.387 . S
C560 C561 1.387 . S
C560 H564 0.950 . S
C560 C569 1.390 . S
C561 C560 1.387 . S
C561 C563 1.387 . S
H562 C569 0.950 . S
C563 C561 1.387 . S
C563 C565 1.390 . S
C563 H567 0.950 . S
H564 C560 0.950 . S
C565 C563 1.390 . S
C565 C566 1.387 . S
C565 H568 0.950 . S
C566 C565 1.387 . S
C566 C569 1.387 . S
H567 C563 0.950 . S
H568 C565 0.950 . S
C569 C560 1.390 . S
C569 H562 0.950 . S
C569 C566 1.387 . S
C570 C571 1.387 . S
C570 H574 0.950 . S
C570 C579 1.390 . S
C571 C570 1.387 . S
C571 C573 1.387 . S
H572 C579 0.950 . S
C573 C571 1.387 . S
C573 C575 1.390 . S
C573 H577 0.950 . S
H574 C570 0.950 . S
C575 C573 1.390 . S
C575 C576 1.387 . S
C575 H578 0.950 . S
C576 C575 1.387 . S
C576 C579 1.387 . S
H577 C573 0.950 . S
H578 C575 0.950 . S
C579 C570 1.390 . S
C579 H572 0.950 . S
C579 C576 1.387 . S
C580 C581 1.387 . S
C580 H584 0.950 . S
C580 C589 1.390 . S
C581 C580 1.387 . S
C581 C583 1.387 . S
H582 C589 0.950 . S
C583 C581 1.387 . S
C583 C585 1.390 . S
C583 H587 0.950 . S
H584 C580 0.950 . S
C585 C583 1.390 . S
C585 C586 1.387 . S
C585 H588 0.950 . S
C586 C585 1.387 . S
C586 C589 1.387 . S
H587 C583 0.950 . S
H588 C585 0.950 . S
C589 C580 1.390 . S
C589 H582 0.950 . S
C589 C586 1.387 . S
C590 C591 1.387 . S
C590 H594 0.950 . S
C590 C599 1.390 . S
C591 C590 1.387 . S
C591 C593 1.387 . S
H592 C599 0.950 . S
C593 C591 1.387 . S
C593 C595 1.390 . S
C593 H597 0.950 . S
H594 C590 0.950 . S
C595 C593 1.390 . S
C595 C596 1.387 . S
C595 H598 0.950 . S
C596 C595 1.387 . S
C596 C599 1.387 . S
H597 C593 0.950 . S
H598 C595 0.950 . S
C599 C590 1.390 . S
C599 H592 0.950 . S
C599 C596 1.387 . S
C600 C601 1.387 . S
C600 H604 0.950 . S
C600 C609 1.390 . S
C601 C600 1.387 . S
C601 C603 1.387 . S
H602 C609 0.950 . S
C603 C601 1.387 . S
C603 C605 1.390 . S
C603 H607 0.950 . S
H604 C600 0.950 . S
C605 C603 1.390 . S
C605 C606 1.387 . S
C605 H608 0.950 . S
C606 C605 1.387 . S
C606 C609 1.387 . S
H607 C603 0.950 . S
H608 C605 0.950 . S
C609 C600 1.390 . S
C609 H602 0.950 . S
C609 C606 1.387 . S
C610 C611 1.387 . S
C610 H614 0.950 . S
C610 C619 1.390 . S
C611 C610 1.387 . S
C611 C613 1.387 . S
H612 C619 0.950 1_545 S
C613 C611 1.387 . S
C613 C615 1.390 . S
C613 H617 0.950 . S
H614 C610 0.950 . S
C615 C613 1.390 . S
C615 C616 1.387 . S
C615 H618 0.950 . S
C616 C615 1.387 . S
C616 C619 1.387 . S
H617 C613 0.950 . S
H618 C615 0.950 . S
C619 C610 1.390 . S
C619 H612 0.950 1_565 S
C619 C616 1.387 . S
C620 C621 1.387 . S
C620 H624 0.950 . S
C620 C629 1.390 . S
C621 C620 1.387 . S
C621 C623 1.387 . S
H622 C629 0.950 . S
C623 C621 1.387 . S
C623 C625 1.390 . S
C623 H627 0.950 . S
H624 C620 0.950 . S
C625 C623 1.390 . S
C625 C626 1.387 . S
C625 H628 0.950 . S
C626 C625 1.387 . S
C626 C629 1.387 . S
H627 C623 0.950 . S
H628 C625 0.950 . S
C629 C620 1.390 . S
C629 H622 0.950 . S
C629 C626 1.387 . S
C630 C631 1.387 . S
C630 H634 0.950 . S
C630 C639 1.390 1_554 S
C631 C630 1.387 . S
C631 C633 1.387 . S
H632 C639 0.950 . S
C633 C631 1.387 . S
C633 C635 1.390 1_554 S
C633 H637 0.950 . S
H634 C630 0.950 . S
C635 C633 1.390 1_556 S
C635 C636 1.387 . S
C635 H638 0.950 . S
C636 C635 1.387 . S
C636 C639 1.387 . S
H637 C633 0.950 . S
H638 C635 0.950 . S
C639 C630 1.390 1_556 S
C639 H632 0.950 . S
C639 C636 1.387 . S
C640 C641 1.387 . S
C640 H644 0.950 . S
C640 C649 1.390 . S
C641 C640 1.387 . S
C641 C643 1.387 . S
H642 C649 0.950 . S
C643 C641 1.387 . S
C643 C645 1.390 . S
C643 H647 0.950 . S
H644 C640 0.950 . S
C645 C643 1.390 . S
C645 C646 1.387 . S
C645 H648 0.950 . S
C646 C645 1.387 . S
C646 C649 1.387 . S
H647 C643 0.950 . S
H648 C645 0.950 . S
C649 C640 1.390 . S
C649 H642 0.950 . S
C649 C646 1.387 . S
C650 C651 1.387 . S
C650 H654 0.950 . S
C650 C659 1.390 1_554 S
C651 C650 1.387 . S
C651 C653 1.387 . S
H652 C659 0.950 . S
C653 C651 1.387 . S
C653 C655 1.390 1_554 S
C653 H657 0.950 . S
H654 C650 0.950 . S
C655 C653 1.390 1_556 S
C655 C656 1.387 . S
C655 H658 0.950 . S
C656 C655 1.387 . S
C656 C659 1.387 . S
H657 C653 0.950 . S
H658 C655 0.950 . S
C659 C650 1.390 1_556 S
C659 H652 0.950 . S
C659 C656 1.387 . S
C660 C661 1.387 . S
C660 H664 0.950 . S
C660 C669 1.390 . S
C661 C660 1.387 . S
C661 C663 1.387 . S
H662 C669 0.950 . S
C663 C661 1.387 . S
C663 C665 1.390 . S
C663 H667 0.950 . S
H664 C660 0.950 . S
C665 C663 1.390 . S
C665 C666 1.387 . S
C665 H668 0.950 . S
C666 C665 1.387 . S
C666 C669 1.387 . S
H667 C663 0.950 . S
H668 C665 0.950 . S
C669 C660 1.390 . S
C669 H662 0.950 . S
C669 C666 1.387 . S
C670 C671 1.387 . S
C670 H674 0.950 . S
C670 C679 1.390 . S
C671 C670 1.387 . S
C671 C673 1.387 . S
H672 C679 0.950 . S
C673 C671 1.387 . S
C673 C675 1.390 . S
C673 H677 0.950 . S
H674 C670 0.950 . S
C675 C673 1.390 . S
C675 C676 1.387 . S
C675 H678 0.950 . S
C676 C675 1.387 . S
C676 C679 1.387 . S
H677 C673 0.950 . S
H678 C675 0.950 . S
C679 C670 1.390 . S
C679 H672 0.950 . S
C679 C676 1.387 . S
C680 C681 1.387 . S
C680 H684 0.950 . S
C680 C689 1.390 . S
C681 C680 1.387 . S
C681 C683 1.387 . S
H682 C689 0.950 . S
C683 C681 1.387 . S
C683 C685 1.390 . S
C683 H687 0.950 . S
H684 C680 0.950 . S
C685 C683 1.390 . S
C685 C686 1.387 . S
C685 H688 0.950 . S
C686 C685 1.387 . S
C686 C689 1.387 . S
H687 C683 0.950 . S
H688 C685 0.950 . S
C689 C680 1.390 . S
C689 H682 0.950 . S
C689 C686 1.387 . S
C690 C691 1.387 . S
C690 H694 0.938 1_455 S
C690 C699 1.390 1_545 S
C691 C690 1.387 . S
C691 C693 1.387 . S
H692 C699 0.950 1_655 S
C693 C691 1.387 . S
C693 C695 1.390 1_545 S
C693 H697 0.950 . S
H694 C690 0.938 1_655 S
C695 C693 1.390 1_565 S
C695 C696 1.387 . S
C695 H698 0.950 . S
C696 C695 1.387 . S
C696 C699 1.387 . S
H697 C693 0.950 . S
H698 C695 0.950 . S
C699 C690 1.390 1_565 S
C699 H692 0.950 1_455 S
C699 C696 1.387 . S
C700 C701 1.387 . S
C700 H704 0.950 . S
C700 C709 1.390 . S
C701 C700 1.387 . S
C701 C703 1.387 . S
H702 C709 0.950 . S
C703 C701 1.387 . S
C703 C705 1.390 . S
C703 H707 0.950 . S
H704 C700 0.950 . S
C705 C703 1.390 . S
C705 C706 1.387 . S
C705 H708 0.950 . S
C706 C705 1.387 . S
C706 C709 1.387 . S
H707 C703 0.950 . S
H708 C705 0.950 . S
C709 C700 1.390 . S
C709 H702 0.950 . S
C709 C706 1.387 . S
C710 C711 1.387 . S
C710 H714 0.950 . S
C710 C719 1.390 . S
C711 C710 1.387 . S
C711 C713 1.387 . S
H712 C719 0.950 . S
C713 C711 1.387 . S
C713 C715 1.390 1_545 S
C713 H717 0.950 . S
H714 C710 0.950 . S
C715 C713 1.390 1_565 S
C715 C716 1.387 . S
C715 H718 0.950 . S
C716 C715 1.387 . S
C716 C719 1.387 1_565 S
H717 C713 0.950 . S
H718 C715 0.950 . S
C719 C710 1.390 . S
C719 H712 0.950 . S
C719 C716 1.387 1_545 S
C720 C721 1.387 . S
C720 H724 0.950 . S
C720 C729 1.390 . S
C721 C720 1.387 . S
C721 C723 1.387 . S
H722 C729 0.950 . S
C723 C721 1.387 . S
C723 C725 1.390 . S
C723 H727 0.950 . S
H724 C720 0.950 . S
C725 C723 1.390 . S
C725 C726 1.387 . S
C725 H728 0.950 . S
C726 C725 1.387 . S
C726 C729 1.387 . S
H727 C723 0.950 . S
H728 C725 0.950 . S
C729 C720 1.390 . S
C729 H722 0.950 . S
C729 C726 1.387 . S
C730 C731 1.387 . S
C730 H734 0.950 . S
C730 C739 1.390 . S
C731 C730 1.387 . S
C731 C733 1.387 . S
H732 C739 0.950 . S
C733 C731 1.387 . S
C733 C735 1.390 . S
C733 H737 0.950 . S
H734 C730 0.950 . S
C735 C733 1.390 . S
C735 C736 1.387 . S
C735 H738 0.950 . S
C736 C735 1.387 . S
C736 C739 1.387 . S
H737 C733 0.950 . S
H738 C735 0.950 . S
C739 C730 1.390 . S
C739 H732 0.950 . S
C739 C736 1.387 . S
C740 C741 1.387 . S
C740 H744 0.950 . S
C740 C749 1.390 . S
C741 C740 1.387 . S
C741 C743 1.387 . S
H742 C749 0.950 . S
C743 C741 1.387 . S
C743 C745 1.390 . S
C743 H747 0.950 . S
H744 C740 0.950 . S
C745 C743 1.390 . S
C745 C746 1.387 . S
C745 H748 0.950 . S
C746 C745 1.387 . S
C746 C749 1.387 . S
H747 C743 0.950 . S
H748 C745 0.950 . S
C749 C740 1.390 . S
C749 H742 0.950 . S
C749 C746 1.387 . S
C750 C751 1.387 . S
C750 H754 0.950 . S
C750 C759 1.390 . S
C751 C750 1.387 . S
C751 C753 1.387 . S
H752 C759 0.950 . S
C753 C751 1.387 . S
C753 C755 1.390 . S
C753 H757 0.950 . S
H754 C750 0.950 . S
C755 C753 1.390 . S
C755 C756 1.387 . S
C755 H758 0.950 . S
C756 C755 1.387 . S
C756 C759 1.387 . S
H757 C753 0.950 . S
H758 C755 0.950 . S
C759 C750 1.390 . S
C759 H752 0.950 . S
C759 C756 1.387 . S
C760 C761 1.387 . S
C760 H764 0.950 . S
C760 C769 1.390 . S
C761 C760 1.387 . S
C761 C763 1.387 . S
H762 C769 0.950 . S
C763 C761 1.387 . S
C763 C765 1.390 . S
C763 H767 0.950 . S
H764 C760 0.950 . S
C765 C763 1.390 . S
C765 C766 1.387 . S
C765 H768 0.950 . S
C766 C765 1.387 . S
C766 C769 1.387 . S
H767 C763 0.950 . S
H768 C765 0.950 . S
C769 C760 1.390 . S
C769 H762 0.950 . S
C769 C766 1.387 . S
C770 C771 1.387 . S
C770 H774 0.950 . S
C770 C779 1.390 . S
C771 C770 1.387 . S
C771 C773 1.387 . S
H772 C779 0.950 . S
C773 C771 1.387 . S
C773 C775 1.390 . S
C773 H777 0.950 . S
H774 C770 0.950 . S
C775 C773 1.390 . S
C775 C776 1.387 . S
C775 H778 0.950 . S
C776 C775 1.387 . S
C776 C779 1.387 . S
H777 C773 0.950 . S
H778 C775 0.950 . S
C779 C770 1.390 . S
C779 H772 0.950 . S
C779 C776 1.387 . S
C780 C781 1.387 . S
C780 H784 0.950 . S
C780 C789 1.390 . S
C781 C780 1.387 . S
C781 C783 1.387 . S
H782 C789 0.950 1_655 S
C783 C781 1.387 . S
C783 C785 1.390 1_455 S
C783 H787 0.950 . S
H784 C780 0.950 . S
C785 C783 1.390 1_655 S
C785 C786 1.387 . S
C785 H788 0.950 . S
C786 C785 1.387 . S
C786 C789 1.387 1_655 S
H787 C783 0.950 . S
H788 C785 0.950 . S
C789 C780 1.390 . S
C789 H782 0.950 1_455 S
C789 C786 1.387 1_455 S
C790 C791 1.387 . S
C790 H794 0.950 . S
C790 C799 1.390 . S
C791 C790 1.387 . S
C791 C793 1.387 . S
H792 C799 0.950 . S
C793 C791 1.387 . S
C793 C795 1.390 . S
C793 H797 0.950 . S
H794 C790 0.950 . S
C795 C793 1.390 . S
C795 C796 1.387 . S
C795 H798 0.950 . S
C796 C795 1.387 . S
C796 C799 1.387 . S
H797 C793 0.950 . S
H798 C795 0.950 . S
C799 C790 1.390 . S
C799 H792 0.950 . S
C799 C796 1.387 . S
C800 C801 1.387 . S
C800 H804 0.950 . S
C800 C809 1.390 . S
C801 C800 1.387 . S
C801 C803 1.387 . S
H802 C809 0.950 . S
C803 C801 1.387 . S
C803 C805 1.390 . S
C803 H807 0.950 . S
H804 C800 0.950 . S
C805 C803 1.390 . S
C805 C806 1.387 . S
C805 H808 0.950 . S
C806 C805 1.387 . S
C806 C809 1.387 . S
H807 C803 0.950 . S
H808 C805 0.950 . S
C809 C800 1.390 . S
C809 H802 0.950 . S
C809 C806 1.387 . S
C810 C811 1.387 . S
C810 H814 0.950 . S
C810 C819 1.390 . S
C811 C810 1.387 . S
C811 C813 1.387 . S
H812 C819 0.950 . S
C813 C811 1.387 . S
C813 C815 1.390 . S
C813 H817 0.950 . S
H814 C810 0.950 . S
C815 C813 1.390 . S
C815 C816 1.387 . S
C815 H818 0.950 . S
C816 C815 1.387 . S
C816 C819 1.387 . S
H817 C813 0.950 . S
H818 C815 0.950 . S
C819 C810 1.390 . S
C819 H812 0.950 . S
C819 C816 1.387 . S
C820 C821 1.387 . S
C820 H824 0.950 . S
C820 C829 1.390 . S
C821 C820 1.387 . S
C821 C823 1.387 . S
H822 C829 0.950 . S
C823 C821 1.387 . S
C823 C825 1.390 . S
C823 H827 0.950 . S
H824 C820 0.950 . S
C825 C823 1.390 . S
C825 C826 1.387 . S
C825 H828 0.950 . S
C826 C825 1.387 . S
C826 C829 1.387 . S
H827 C823 0.950 . S
H828 C825 0.950 . S
C829 C820 1.390 . S
C829 H822 0.950 . S
C829 C826 1.387 . S
C830 C831 1.387 . S
C830 H834 0.950 . S
C830 C839 1.390 . S
C831 C830 1.387 . S
C831 C833 1.387 . S
H832 C839 0.950 1_455 S
C833 C831 1.387 . S
C833 C835 1.390 . S
C833 H837 0.950 . S
H834 C830 0.950 . S
C835 C833 1.390 . S
C835 C836 1.387 1_655 S
C835 H838 0.941 1_655 S
C836 C835 1.387 1_455 S
C836 C839 1.387 1_455 S
H837 C833 0.950 . S
H838 C835 0.941 1_455 S
C839 C830 1.390 . S
C839 H832 0.950 1_655 S
C839 C836 1.387 1_655 S
C481 C19 1.654 . S
C486 C458 1.779 . S
C491 C378 1.901 . S
C496 C58 1.914 . S
C501 C99 1.478 . S
C506 C339 1.493 . S
C511 C138 1.784 . S
C516 C418 1.786 . S
C521 C178 2.147 . S
C526 C419 2.007 . S
C531 C219 1.523 . S
C536 C459 1.528 . S
C541 C379 1.848 . S
C546 C258 1.980 . S
C551 C298 1.649 . S
C556 C338 1.663 . S
C561 C139 1.854 . S
C566 C179 1.821 . S
C571 C18 2.043 . S
C576 C218 2.046 . S
C581 C59 1.586 . S
C586 C259 1.620 . S
C591 C299 1.772 . S
C596 C98 1.870 . S
C601 C15 2.733 . S
C606 C330 2.895 . S
C611 C46 1.288 . S
C616 C409 1.224 . S
C621 C449 1.901 . S
C626 C95 1.989 . S
C631 C126 1.494 . S
C636 C369 1.391 . S
C641 C166 1.545 . S
C646 C370 1.526 . S
C651 C329 1.957 . S
C656 C215 2.034 . S
C661 C410 1.903 . S
C666 C246 1.925 . S
C671 C450 1.789 . S
C676 C286 1.816 . S
C681 C9 1.674 . S
C686 C135 1.767 . S
C691 C6 2.077 . S
C696 C50 2.047 . S
C701 C55 2.065 . S
C706 C89 1.975 . S
C711 C130 1.880 . S
C716 C86 1.894 . S
C721 C206 1.120 . S
C726 C170 1.095 . S
C731 C209 1.973 . S
C736 C255 2.059 . S
C741 C250 1.705 . S
C746 C295 1.629 . S
C751 C175 1.944 . S
C756 C290 2.071 . S
C761 C326 1.388 . S
C766 C129 1.276 . S
C771 C210 1.641 . S
C776 C366 1.672 . S
C781 C335 2.220 . S
C786 C249 2.139 . S
C791 C406 1.688 . S
C796 C289 1.541 . S
C801 C169 0.886 . S
C806 C446 0.918 . S
C811 C455 1.850 . S
C816 C49 1.777 . S
C821 C90 1.631 . S
C826 C375 1.548 . S
C831 C415 1.992 . S
C836 C10 2.101 . S
