# Generated by pormake.
# Topology whz, (6)-cn, num edge types: 1
# Building blocks:
#     Node 0, Type 0, BuildingBlock: PAMTUU_clean_sbu_0, # of connection points: 6
#     Node 1, Type 0, BuildingBlock: PAMTUU_clean_sbu_0, # of connection points: 6
#     Node 2, Type 0, BuildingBlock: PAMTUU_clean_sbu_0, # of connection points: 6
#     Node 3, Type 0, BuildingBlock: PAMTUU_clean_sbu_0, # of connection points: 6
#     Node 4, Type 0, BuildingBlock: PAMTUU_clean_sbu_0, # of connection points: 6
#     Node 5, Type 0, BuildingBlock: PAMTUU_clean_sbu_0, # of connection points: 6
#     Node 6, Type 0, BuildingBlock: PAMTUU_clean_sbu_0, # of connection points: 6
#     Node 7, Type 0, BuildingBlock: PAMTUU_clean_sbu_0, # of connection points: 6
#     Node 8, Type 0, BuildingBlock: PAMTUU_clean_sbu_0, # of connection points: 6
#     Node 9, Type 0, BuildingBlock: PAMTUU_clean_sbu_0, # of connection points: 6
#     Node 10, Type 0, BuildingBlock: PAMTUU_clean_sbu_0, # of connection points: 6
#     Node 11, Type 0, BuildingBlock: PAMTUU_clean_sbu_0, # of connection points: 6
#     Node 12, Type 0, BuildingBlock: PAMTUU_clean_sbu_0, # of connection points: 6
#     Node 13, Type 0, BuildingBlock: PAMTUU_clean_sbu_0, # of connection points: 6
#     Node 14, Type 0, BuildingBlock: PAMTUU_clean_sbu_0, # of connection points: 6
#     Node 15, Type 0, BuildingBlock: PAMTUU_clean_sbu_0, # of connection points: 6
#     Edge 16, Type (0, 0), BuildingBlock: EZIPEK_clean_linker_0, # of connection points: 2
#     Edge 17, Type (0, 0), BuildingBlock: EZIPEK_clean_linker_0, # of connection points: 2
#     Edge 18, Type (0, 0), BuildingBlock: EZIPEK_clean_linker_0, # of connection points: 2
#     Edge 19, Type (0, 0), BuildingBlock: EZIPEK_clean_linker_0, # of connection points: 2
#     Edge 20, Type (0, 0), BuildingBlock: EZIPEK_clean_linker_0, # of connection points: 2
#     Edge 21, Type (0, 0), BuildingBlock: EZIPEK_clean_linker_0, # of connection points: 2
#     Edge 22, Type (0, 0), BuildingBlock: EZIPEK_clean_linker_0, # of connection points: 2
#     Edge 23, Type (0, 0), BuildingBlock: EZIPEK_clean_linker_0, # of connection points: 2
#     Edge 24, Type (0, 0), BuildingBlock: EZIPEK_clean_linker_0, # of connection points: 2
#     Edge 25, Type (0, 0), BuildingBlock: EZIPEK_clean_linker_0, # of connection points: 2
#     Edge 26, Type (0, 0), BuildingBlock: EZIPEK_clean_linker_0, # of connection points: 2
#     Edge 27, Type (0, 0), BuildingBlock: EZIPEK_clean_linker_0, # of connection points: 2
#     Edge 28, Type (0, 0), BuildingBlock: EZIPEK_clean_linker_0, # of connection points: 2
#     Edge 29, Type (0, 0), BuildingBlock: EZIPEK_clean_linker_0, # of connection points: 2
#     Edge 30, Type (0, 0), BuildingBlock: EZIPEK_clean_linker_0, # of connection points: 2
#     Edge 31, Type (0, 0), BuildingBlock: EZIPEK_clean_linker_0, # of connection points: 2
#     Edge 32, Type (0, 0), BuildingBlock: EZIPEK_clean_linker_0, # of connection points: 2
#     Edge 33, Type (0, 0), BuildingBlock: EZIPEK_clean_linker_0, # of connection points: 2
#     Edge 34, Type (0, 0), BuildingBlock: EZIPEK_clean_linker_0, # of connection points: 2
#     Edge 35, Type (0, 0), BuildingBlock: EZIPEK_clean_linker_0, # of connection points: 2
#     Edge 36, Type (0, 0), BuildingBlock: EZIPEK_clean_linker_0, # of connection points: 2
#     Edge 37, Type (0, 0), BuildingBlock: EZIPEK_clean_linker_0, # of connection points: 2
#     Edge 38, Type (0, 0), BuildingBlock: EZIPEK_clean_linker_0, # of connection points: 2
#     Edge 39, Type (0, 0), BuildingBlock: EZIPEK_clean_linker_0, # of connection points: 2
#     Edge 40, Type (0, 0), BuildingBlock: EZIPEK_clean_linker_0, # of connection points: 2
#     Edge 41, Type (0, 0), BuildingBlock: EZIPEK_clean_linker_0, # of connection points: 2
#     Edge 42, Type (0, 0), BuildingBlock: EZIPEK_clean_linker_0, # of connection points: 2
#     Edge 43, Type (0, 0), BuildingBlock: EZIPEK_clean_linker_0, # of connection points: 2
#     Edge 44, Type (0, 0), BuildingBlock: EZIPEK_clean_linker_0, # of connection points: 2
#     Edge 45, Type (0, 0), BuildingBlock: EZIPEK_clean_linker_0, # of connection points: 2
#     Edge 46, Type (0, 0), BuildingBlock: EZIPEK_clean_linker_0, # of connection points: 2
#     Edge 47, Type (0, 0), BuildingBlock: EZIPEK_clean_linker_0, # of connection points: 2
#     Edge 48, Type (0, 0), BuildingBlock: EZIPEK_clean_linker_0, # of connection points: 2
#     Edge 49, Type (0, 0), BuildingBlock: EZIPEK_clean_linker_0, # of connection points: 2
#     Edge 50, Type (0, 0), BuildingBlock: EZIPEK_clean_linker_0, # of connection points: 2
#     Edge 51, Type (0, 0), BuildingBlock: EZIPEK_clean_linker_0, # of connection points: 2
#     Edge 52, Type (0, 0), BuildingBlock: EZIPEK_clean_linker_0, # of connection points: 2
#     Edge 53, Type (0, 0), BuildingBlock: EZIPEK_clean_linker_0, # of connection points: 2
#     Edge 54, Type (0, 0), BuildingBlock: EZIPEK_clean_linker_0, # of connection points: 2
#     Edge 55, Type (0, 0), BuildingBlock: EZIPEK_clean_linker_0, # of connection points: 2
#     Edge 56, Type (0, 0), BuildingBlock: EZIPEK_clean_linker_0, # of connection points: 2
#     Edge 57, Type (0, 0), BuildingBlock: EZIPEK_clean_linker_0, # of connection points: 2
#     Edge 58, Type (0, 0), BuildingBlock: EZIPEK_clean_linker_0, # of connection points: 2
#     Edge 59, Type (0, 0), BuildingBlock: EZIPEK_clean_linker_0, # of connection points: 2
#     Edge 60, Type (0, 0), BuildingBlock: EZIPEK_clean_linker_0, # of connection points: 2
#     Edge 61, Type (0, 0), BuildingBlock: EZIPEK_clean_linker_0, # of connection points: 2
#     Edge 62, Type (0, 0), BuildingBlock: EZIPEK_clean_linker_0, # of connection points: 2
#     Edge 63, Type (0, 0), BuildingBlock: EZIPEK_clean_linker_0, # of connection points: 2
# Relax obj value: 0.813
# Max RMSD: 0.325
# Mean RMSD: 0.325
data_MOF--net-whz--node1-PAMTUU_clean_sbu_0--edge1-EZIPEK_clean_linker_0
_symmetry_space_group_name_H-M    P1
_symmetry_Int_Tables_number       1
_symmetry_cell_setting            triclinic
loop_
_symmetry_equiv_pos_as_xyz
'x, y, z'
_cell_length_a     26.364685
_cell_length_b     26.370781
_cell_length_c     57.917285
_cell_angle_alpha  89.710627
_cell_angle_beta   89.786058
_cell_angle_gamma 90.135549
loop_
_atom_site_label
_atom_site_type_symbol
_atom_site_fract_x
_atom_site_fract_y
_atom_site_fract_z
_atom_type_partial_charge
Tb0 Tb 0.32056 0.19611 0.15377 0.0
Tb1 Tb 0.31315 0.24376 0.20585 0.0
C2 C 0.36456 0.14187 0.20029 0.0
C3 C 0.30502 0.16249 0.08794 0.0
C4 C 0.26645 0.15172 1.04148 0.0
C5 C 0.30095 0.11659 1.05099 0.0
C6 C 0.31976 0.12188 0.07368 0.0
C7 C 0.27094 0.19823 0.07843 0.0
C8 C 0.25173 0.19272 0.05564 0.0
C9 C 0.32967 0.16837 0.11146 0.0
O10 O 0.24363 0.17493 0.16347 0.0
O11 O 0.257 0.18091 0.2023 0.0
O12 O 0.27843 0.30418 0.18648 0.0
O13 O 0.2673 0.26237 0.15196 0.0
O14 O 0.26612 0.27369 0.23184 0.0
O15 O 0.34202 0.24969 0.2396 0.0
O16 O 0.38156 0.28257 0.19212 0.0
O17 O 0.39726 0.22771 0.16202 0.0
O18 O 0.34155 0.13437 0.17999 0.0
O19 O 0.37138 0.18799 0.20709 0.0
C20 C 0.22957 0.1649 0.18475 0.0
O21 O 0.3387 0.21397 0.1191 0.0
O22 O 0.31737 0.13776 0.12843 0.0
C23 C 0.25744 0.3007 0.16614 0.0
C24 C 0.27591 0.2176 0.2626 0.0
C25 C 0.21926 0.14025 0.28439 0.0
C26 C 0.2215 0.18945 0.29386 0.0
C27 C 0.2489 0.22816 0.28281 0.0
C28 C 0.27592 0.16784 0.254 0.0
C29 C 0.24635 0.13005 0.2642 0.0
C30 C 0.29693 0.25826 0.24793 0.0
C31 C 0.41293 0.26378 0.17633 0.0
H32 H 0.31273 0.08416 1.04092 0.0
H33 H 0.34638 0.09399 0.0801 0.0
H34 H 0.25898 0.23041 0.08861 0.0
H35 H 0.22463 0.22012 1.04922 0.0
H36 H 0.20051 0.19835 0.30941 0.0
H37 H 0.24776 0.26633 0.28961 0.0
H38 H 0.29714 0.15872 0.23867 0.0
H39 H 0.244 0.09324 0.25608 0.0
Tb40 Tb 0.62912 0.58055 0.40293 0.0
Tb41 Tb 0.57951 0.57337 0.45532 0.0
C42 C 0.68773 0.61808 0.45028 0.0
C43 C 0.66098 0.5637 0.33702 0.0
C44 C 0.6671 0.52532 0.29037 0.0
C45 C 0.65666 0.57676 0.2948 0.0
C46 C 0.65367 0.59548 0.31762 0.0
C47 C 0.67108 0.51201 0.33266 0.0
C48 C 0.67381 0.49315 0.30973 0.0
C49 C 0.6616 0.58683 0.36102 0.0
O50 O 0.64158 0.50203 0.41364 0.0
O51 O 0.64182 0.51694 0.45248 0.0
O52 O 0.52308 0.53358 0.43594 0.0
O53 O 0.55373 0.54206 0.39871 0.0
O54 O 0.55511 0.52473 0.48197 0.0
O55 O 0.55367 0.60581 0.48629 0.0
O56 O 0.54519 0.64204 0.43985 0.0
O57 O 0.60632 0.65906 0.41254 0.0
O58 O 0.69157 0.59977 0.42872 0.0
O59 O 0.64388 0.62149 0.46049 0.0
C60 C 0.65449 0.48842 0.43465 0.0
O61 O 0.62047 0.60844 0.36872 0.0
O62 O 0.68556 0.56404 0.37779 0.0
C63 C 0.5196 0.52493 0.41386 0.0
C64 C 0.58934 0.55608 0.51606 0.0
C65 C 0.67274 0.5317 0.54411 0.0
C66 C 0.63069 0.49897 0.54304 0.0
C67 C 0.58923 0.51108 0.5291 0.0
C68 C 0.63019 0.59007 0.51828 0.0
C69 C 0.67137 0.57776 0.53212 0.0
C70 C 0.55379 0.56186 0.49671 0.0
C71 C 0.56823 0.67453 0.42576 0.0
H72 H 0.65108 0.60273 0.28049 0.0
H73 H 0.64634 0.63549 0.3201 0.0
H74 H 0.67734 0.48616 0.34695 0.0
H75 H 0.68171 0.45331 0.30711 0.0
H76 H 0.6309 0.4631 0.5522 0.0
H77 H 0.55858 0.48392 0.5274 0.0
H78 H 0.63187 0.62499 0.50837 0.0
H79 H 0.70265 0.60377 0.53314 0.0
Tb80 Tb 0.2501 0.87329 0.65495 0.0
Tb81 Tb 0.25291 0.81882 0.70637 0.0
C82 C 0.20938 0.92792 0.70269 0.0
C83 C 0.26515 0.90871 0.58878 0.0
C84 C 0.29499 0.91854 0.54071 0.0
C85 C 0.31687 0.94911 0.55803 0.0
C86 C 0.302 0.94459 0.58156 0.0
C87 C 0.24368 0.87801 0.57138 0.0
C88 C 0.25827 0.88278 0.54791 0.0
C89 C 0.24367 0.90743 0.61329 0.0
O90 O 0.32728 0.88849 0.66696 0.0
O91 O 0.31037 0.88093 0.70565 0.0
O92 O 0.29317 0.76349 0.6864 0.0
O93 O 0.29403 0.80094 0.65027 0.0
O94 O 0.29904 0.79093 0.73303 0.0
O95 O 0.21771 0.79176 0.73669 0.0
O96 O 0.18493 0.78615 0.68996 0.0
O97 O 0.17087 0.84973 0.66364 0.0
O98 O 0.22907 0.93365 0.68138 0.0
O99 O 0.2053 0.88323 0.71213 0.0
C100 C 0.33991 0.897 0.68857 0.0
O101 O 0.22299 0.86546 0.62083 0.0
O102 O 0.26624 0.93131 0.63012 0.0
C103 C 0.3074 0.764 0.66478 0.0
C104 C 0.26682 0.8256 0.76696 0.0
C105 C 0.29249 0.90983 0.79421 0.0
C106 C 0.32504 0.86779 0.79297 0.0
C107 C 0.31229 0.82594 0.77947 0.0
C108 C 0.23285 0.86629 0.76948 0.0
C109 C 0.24579 0.90793 0.7829 0.0
C110 C 0.26103 0.79045 0.74747 0.0
C111 C 0.15381 0.81083 0.67604 0.0
H112 H 0.34552 0.97682 0.55331 0.0
H113 H 0.31891 0.96985 0.59406 0.0
H114 H 0.21442 0.85073 0.57583 0.0
H115 H 0.24046 0.85854 0.53525 0.0
H116 H 0.3614 0.86836 0.80158 0.0
H117 H 0.33946 0.79548 0.77755 0.0
H118 H 0.19751 0.8676 0.76001 0.0
H119 H 0.21974 0.93914 0.78408 0.0
Tb120 Tb 0.93905 0.48291 0.89941 0.0
Tb121 Tb 0.99573 0.49557 0.94907 0.0
C122 C 0.89096 0.44651 0.94982 0.0
C123 C 0.90789 0.49117 0.83275 0.0
C124 C 0.90724 0.51928 0.78403 0.0
C125 C 0.86227 0.51729 0.79737 0.0
C126 C 0.86254 0.50286 0.82101 0.0
C127 C 0.95283 0.49158 0.81931 0.0
C128 C 0.95237 0.5046 0.79546 0.0
C129 C 0.90638 0.47207 0.85771 0.0
O130 O 0.91998 0.56095 0.909 0.0
O131 O 0.93645 0.55624 0.94812 0.0
O132 O 0.02536 0.55643 0.92854 0.0
O133 O 1.01762 0.51511 0.89446 0.0
O134 O 0.99747 0.50642 0.9849 0.0
O135 O 0.06677 0.49576 0.96528 0.0
O136 O 0.02507 0.42498 0.93271 0.0
O137 O 0.95804 0.40451 0.90974 0.0
O138 O 0.88192 0.4644 0.92836 0.0
O139 O 0.93709 0.44298 0.95733 0.0
C140 C 0.9149 0.57916 0.93008 0.0
O141 O 0.88262 0.49757 0.87372 0.0
O142 O 0.94686 0.45091 0.86621 0.0
C143 C 0.04015 0.54992 0.90742 0.0
C144 C 0.05914 0.45384 1.00123 0.0
C145 C 0.06324 0.37007 1.03149 0.0
C146 C 0.05944 0.41991 1.04003 0.0
C147 C 0.05716 0.4613 1.02506 0.0
C148 C 0.06708 0.4046 0.9926 0.0
C149 C 0.06955 0.36295 1.00768 0.0
C150 C 0.04587 0.49613 0.98577 0.0
C151 C 0.99903 0.39061 0.92107 0.0
H152 H 0.82648 0.52673 0.78939 0.0
H153 H 0.82675 0.50013 0.83011 0.0
H154 H 0.98855 0.48108 0.82713 0.0
H155 H 0.98782 0.50406 0.78597 0.0
H156 H 0.05564 0.42678 0.05837 0.0
H157 H 0.05119 0.49886 1.03207 0.0
H158 H 0.06922 0.39801 0.97419 0.0
H159 H 0.07444 0.3253 1.00067 0.0
Tb160 Tb 0.72891 0.82402 0.89416 0.0
Tb161 Tb 0.73705 0.8706 0.94581 0.0
C162 C 0.78649 0.76205 0.93141 0.0
C163 C 0.69008 0.72902 0.85457 0.0
C164 C 0.68459 0.6247 0.8468 0.0
C165 C 0.69334 0.64297 0.86926 0.0
C166 C 0.69778 0.69497 0.87286 0.0
C167 C 0.66793 0.71162 0.83427 0.0
C168 C 0.66399 0.65946 0.83054 0.0
C169 C 0.70743 0.78154 0.85679 0.0
O170 O 0.67162 0.7848 0.91587 0.0
O171 O 0.6561 0.84826 0.94116 0.0
O172 O 0.72653 0.93676 0.92042 0.0
O173 O 0.68448 0.89178 0.89315 0.0
O174 O 0.77811 0.86643 0.9768 0.0
O175 O 0.71061 0.91288 0.97547 0.0
O176 O 0.81127 0.88878 0.93073 0.0
O177 O 0.7944 0.87871 0.89193 0.0
O178 O 0.7837 0.77387 0.90959 0.0
O179 O 0.76088 0.78857 0.94709 0.0
C180 C 0.63944 0.80868 0.92945 0.0
O181 O 0.67619 0.81079 0.86777 0.0
O182 O 0.75386 0.78712 0.86412 0.0
C183 C 0.70037 0.93523 0.90056 0.0
C184 C 0.75783 0.90814 1.01348 0.0
C185 C 0.77765 0.92204 0.06228 0.0
C186 C 0.72909 0.93109 0.05275 0.0
C187 C 0.71954 0.92489 1.02877 0.0
C188 C 0.80607 0.8987 1.02311 0.0
C189 C 0.81579 0.90576 1.04686 0.0
C190 C 0.74735 0.89527 0.98833 0.0
C191 C 0.82429 0.89532 0.90893 0.0
H192 H 0.70475 0.61771 0.88304 0.0
H193 H 0.7116 0.70841 0.88927 0.0
H194 H 0.65845 0.73783 0.82049 0.0
H195 H 0.65201 0.64748 0.81357 0.0
H196 H 0.69827 0.94267 0.06394 0.0
H197 H 0.68165 0.93169 1.02233 0.0
H198 H 0.8367 0.88538 1.01223 0.0
H199 H 0.85354 0.89808 0.0533 0.0
Tb200 Tb 0.51886 0.49598 0.64912 0.0
Tb201 Tb 0.45236 0.48727 0.69527 0.0
C202 C 0.56307 0.53552 0.69235 0.0
C203 C 0.63396 0.47666 0.61706 0.0
C204 C 0.73369 0.44862 0.60712 0.0
C205 C 0.72298 0.47562 0.62756 0.0
C206 C 0.6734 0.49187 0.6318 0.0
C207 C 0.64322 0.43739 0.60142 0.0
C208 C 0.6928 0.42144 0.59732 0.0
C209 C 0.58355 0.50069 0.61787 0.0
O210 O 0.52009 0.41348 0.6562 0.0
O211 O 0.48742 0.41111 0.69285 0.0
O212 O 0.40686 0.45102 0.66574 0.0
O213 O 0.4452 0.49018 0.63459 0.0
O214 O 0.46138 0.46418 0.72993 0.0
O215 O 0.39118 0.4977 0.719 0.0
O216 O 0.41672 0.55392 0.68058 0.0
O217 O 0.4745 0.56886 0.6511 0.0
O218 O 0.56957 0.49855 0.67811 0.0
O219 O 0.5158 0.54421 0.69879 0.0
C220 C 0.5095 0.38816 0.67531 0.0
O221 O 0.54506 0.46953 0.61721 0.0
O222 O 0.57726 0.537 0.63293 0.0
C223 C 0.40883 0.46207 0.64291 0.0
C224 C 0.41316 0.50387 0.76027 0.0
C225 C 0.39985 0.54121 0.80673 0.0
C226 C 0.42457 0.49491 0.80243 0.0
C227 C 0.43122 0.47678 0.77968 0.0
C228 C 0.38892 0.55057 0.76447 0.0
C229 C 0.38253 0.56891 0.78729 0.0
C230 C 0.41688 0.47993 0.73654 0.0
C231 C 0.43387 0.58227 0.66354 0.0
H232 H 0.75327 0.49252 0.63746 0.0
H233 H 0.66683 0.519 0.64547 0.0
H234 H 0.61276 0.42169 0.59116 0.0
H235 H 0.6987 0.39495 0.58335 0.0
H236 H 0.43767 0.47199 0.81677 0.0
H237 H 0.4495 0.44042 0.7773 0.0
H238 H 0.37401 0.57253 0.7502 0.0
H239 H 0.36273 0.6044 0.78982 0.0
Tb240 Tb 0.82298 0.24373 0.39304 0.0
Tb241 Tb 0.83524 0.19483 0.44555 0.0
C242 C 0.78166 0.30648 0.4342 0.0
C243 C 0.79001 0.22747 0.33504 0.0
C244 C 0.72845 0.15366 0.31408 0.0
C245 C 0.71548 0.20527 0.31287 0.0
C246 C 0.746 0.24193 0.32326 0.0
C247 C 0.80369 0.17584 0.33552 0.0
C248 C 0.77273 0.13923 0.32554 0.0
C249 C 0.81423 0.26308 0.35116 0.0
O250 O 0.89963 0.26854 0.40421 0.0
O251 O 0.91292 0.22263 0.43756 0.0
O252 O 0.87629 0.143 0.42056 0.0
O253 O 0.82835 0.16322 0.38936 0.0
O254 O 0.85786 0.20813 0.48014 0.0
O255 O 0.82296 0.13751 0.47095 0.0
O256 O 0.76655 0.1576 0.43237 0.0
O257 O 0.74903 0.20695 0.4003 0.0
O258 O 0.79859 0.30695 0.41298 0.0
O259 O 0.78918 0.26679 0.44817 0.0
C260 C 0.93006 0.25309 0.42098 0.0
O261 O 0.78353 0.28173 0.36669 0.0
O262 O 0.85695 0.24787 0.36023 0.0
C263 C 0.86197 0.13435 0.39885 0.0
C264 C 0.81584 0.16278 0.51164 0.0
C265 C 0.77716 0.15121 0.55827 0.0
C266 C 0.82209 0.17855 0.5536 0.0
C267 C 0.84094 0.18423 0.53079 0.0
C268 C 0.77062 0.13558 0.51628 0.0
C269 C 0.75157 0.13013 0.53915 0.0
C270 C 0.8408 0.16475 0.48786 0.0
C271 C 0.7369 0.17016 0.41495 0.0
H272 H 0.68086 0.21707 0.30453 0.0
H273 H 0.73385 0.28115 0.32314 0.0
H274 H 0.83698 0.16324 0.34465 0.0
H275 H 0.78288 0.09964 0.32706 0.0
H276 H 0.84303 0.19524 0.56771 0.0
H277 H 0.87619 0.20469 0.52819 0.0
H278 H 0.75026 0.11776 0.50229 0.0
H279 H 0.71698 0.10871 0.54196 0.0
Tb280 Tb 0.02963 0.55373 0.15504 0.0
Tb281 Tb 0.10629 0.57175 0.19646 0.0
C282 C 0.99859 0.52629 0.20157 0.0
C283 C 0.95792 0.46743 0.12005 0.0
C284 C 0.97919 0.3721 0.10096 0.0
C285 C 0.97534 0.3772 0.12493 0.0
C286 C 0.96522 0.42468 0.13446 0.0
C287 C 0.95512 0.4607 0.09618 0.0
C288 C 0.96538 0.41334 0.08672 0.0
C289 C 0.96112 0.5191 0.12952 0.0
O290 O 0.02715 0.63789 0.15698 0.0
O291 O 0.07035 0.64734 0.19129 0.0
O292 O 0.14413 0.60672 0.16463 0.0
O293 O 0.09895 0.56527 0.13632 0.0
O294 O 0.10324 0.59894 0.23063 0.0
O295 O 0.17125 0.56392 0.21791 0.0
O296 O 0.14346 0.50822 0.17996 0.0
O297 O 0.07326 0.48133 0.15996 0.0
O298 O 0.9936 0.56479 0.18789 0.0
O299 O 0.04625 0.51371 0.20415 0.0
C300 C 0.04337 0.66697 0.17414 0.0
O301 O 0.95748 0.52159 0.15184 0.0
O302 O 0.99806 0.54764 0.12169 0.0
C303 C 0.1366 0.59476 0.14229 0.0
C304 C 0.15598 0.56075 0.25962 0.0
C305 C 0.16845 0.5222 0.30594 0.0
C306 C 0.17575 0.57394 0.3007 0.0
C307 C 0.16969 0.59274 0.27802 0.0
C308 C 0.14798 0.50897 0.26475 0.0
C309 C 0.15425 0.48999 0.28757 0.0
C310 C 0.14876 0.58373 0.23588 0.0
C311 C 0.12047 0.47392 0.1674 0.0
H312 H 0.98353 0.34556 0.13629 0.0
H313 H 0.96659 0.42837 0.15306 0.0
H314 H 0.94874 0.49274 0.08478 0.0
H315 H 0.96642 0.41006 0.06809 0.0
H316 H 0.18669 0.59993 0.31423 0.0
H317 H 0.17577 0.63282 0.27483 0.0
H318 H 0.13688 0.48321 0.25117 0.0
H319 H 0.14832 0.44996 0.29086 0.0
Tb320 Tb 0.83808 0.69488 0.65364 0.0
Tb321 Tb 0.83419 0.73944 0.70627 0.0
C322 C 0.87478 0.62857 0.6991 0.0
C323 C 0.81803 0.66969 0.58469 0.0
C324 C 0.79537 0.6568 0.53597 0.0
C325 C 0.84213 0.64079 0.54559 0.0
C326 C 0.85282 0.64624 0.56953 0.0
C327 C 0.77283 0.68832 0.57476 0.0
C328 C 0.7615 0.68141 0.55116 0.0
C329 C 0.82827 0.67719 0.61038 0.0
O330 O 0.76714 0.66368 0.66826 0.0
O331 O 0.77522 0.67977 0.70725 0.0
O332 O 0.77523 0.77661 0.68734 0.0
O333 O 0.81912 0.77838 0.65414 0.0
O334 O 0.79467 0.76888 0.73484 0.0
O335 O 0.87599 0.76969 0.73384 0.0
O336 O 0.89988 0.77563 0.68829 0.0
O337 O 0.91749 0.71734 0.66025 0.0
O338 O 0.86021 0.62801 0.6768 0.0
O339 O 0.87224 0.66953 0.71152 0.0
C340 C 0.7508 0.65867 0.6898 0.0
O341 O 0.79509 0.69996 0.62334 0.0
O342 O 0.86749 0.66133 0.62219 0.0
C343 C 0.78421 0.79875 0.66774 0.0
C344 C 0.83656 0.74153 0.76804 0.0
C345 C 0.81301 0.66468 0.79987 0.0
C346 C 0.7882 0.71159 0.80094 0.0
C347 C 0.79975 0.74986 0.78506 0.0
C348 C 0.86564 0.69676 0.76885 0.0
C349 C 0.85379 0.65856 0.78473 0.0
C350 C 0.83599 0.77264 0.74692 0.0
C351 C 0.93292 0.75366 0.67421 0.0
H352 H 0.8702 0.62305 0.53461 0.0
H353 H 0.88856 0.63232 0.57614 0.0
H354 H 0.74509 0.70745 0.58544 0.0
H355 H 0.72542 0.695 0.54477 0.0
H356 H 0.75717 0.71711 0.81281 0.0
H357 H 0.7769 0.78396 0.78479 0.0
H358 H 0.89461 0.68936 0.75602 0.0
H359 H 0.8733 0.6228 0.78397 0.0
Tb360 Tb 0.11698 0.07754 0.90124 0.0
Tb361 Tb 0.04828 0.06601 0.94598 0.0
C362 C 0.15748 0.10608 0.95436 0.0
C363 C 0.15671 0.06996 0.83582 0.0
C364 C 0.16624 0.03737 0.78828 0.0
C365 C 0.17901 0.08714 0.79506 0.0
C366 C 0.17505 0.10276 0.81835 0.0
C367 C 0.14059 1.02132 0.82894 0.0
C368 C 0.14567 1.00521 0.80566 0.0
C369 C 0.15699 0.0876 0.86076 0.0
O370 O 0.14185 1.00308 0.91326 0.0
O371 O 0.10114 0.9998 0.94875 0.0
O372 O 0.02931 1.00068 0.92597 0.0
O373 O 0.03868 0.04598 0.89352 0.0
O374 O 0.02742 0.0752 0.98089 0.0
O375 O 0.97292 0.05181 0.95518 0.0
O376 O 0.0265 0.13604 0.92695 0.0
O377 O 0.10258 0.15652 0.9116 0.0
O378 O 0.16886 0.09683 0.93195 0.0
O379 O 0.11093 0.1031 0.96188 0.0
C380 C 0.13479 0.9816 0.9336 0.0
O381 O 0.17401 0.05758 0.87693 0.0
O382 O 0.11839 0.11342 0.86834 0.0
C383 C 1.01638 1.00779 0.90473 0.0
C384 C 0.945 0.11273 0.98209 0.0
C385 C 0.86641 0.17007 1.00153 0.0
C386 C 0.86184 0.15188 0.97883 0.0
C387 C 0.90019 0.12162 0.96958 0.0
C388 C 0.95459 0.14266 1.00152 0.0
C389 C 0.91609 0.17299 1.01067 0.0
C390 C 0.97943 0.07063 0.97571 0.0
C391 C 0.05815 0.1712 0.91937 0.0
H392 H 0.19382 0.11366 0.78237 0.0
H393 H 0.18724 0.14072 0.82278 0.0
H394 H 0.12561 0.99506 0.84169 0.0
H395 H 0.13453 0.96689 0.80132 0.0
H396 H 0.82562 0.15287 0.97012 0.0
H397 H 0.89277 0.10196 0.95364 0.0
H398 H 0.99016 0.13956 1.0107 0.0
H399 H 0.92335 0.1913 1.02701 0.0
Tb400 Tb 0.73444 0.37036 0.15343 0.0
Tb401 Tb 0.73468 0.30967 0.20166 0.0
C402 C 0.69591 0.4212 0.2028 0.0
C403 C 0.76127 0.40499 0.08811 0.0
C404 C 0.79719 0.41308 1.04075 0.0
C405 C 0.81593 0.44507 0.05831 0.0
C406 C 0.79825 0.44124 0.08145 0.0
C407 C 0.7435 0.37225 0.07059 0.0
C408 C 0.76118 0.37609 1.04748 0.0
C409 C 0.73602 0.40619 0.11191 0.0
O410 O 0.81079 0.3841 0.16714 0.0
O411 O 0.79651 0.36676 0.20571 0.0
O412 O 0.80011 0.28163 0.18355 0.0
O413 O 0.76266 0.29034 0.14883 0.0
O414 O 0.71247 0.29728 0.23627 0.0
O415 O 0.7509 0.23933 0.21673 0.0
O416 O 0.66802 0.28495 0.18148 0.0
O417 O 0.65302 0.35767 0.16191 0.0
O418 O 0.7119 0.42833 0.18087 0.0
O419 O 0.69535 0.37622 0.21222 0.0
C420 C 0.82372 0.3889 0.18904 0.0
O421 O 0.75915 0.42691 0.12941 0.0
O422 O 0.70942 0.36709 0.11874 0.0
C423 C 0.79641 0.26735 0.16223 0.0
C424 C 0.68081 0.21298 0.23943 0.0
C425 C 0.62183 0.13167 0.25589 0.0
C426 C 0.64325 0.12974 0.2336 0.0
C427 C 0.67414 0.16942 0.22584 0.0
C428 C 0.64848 0.22006 0.25836 0.0
C429 C 0.61786 0.18008 0.2662 0.0
C430 C 0.72272 0.24912 0.23467 0.0
C431 C 0.63525 0.31599 0.17176 0.0
H432 H 0.84374 0.47393 0.05401 0.0
H433 H 0.81264 0.46781 0.09404 0.0
H434 H 0.71455 0.34433 0.07457 0.0
H435 H 0.74573 0.35069 1.03465 0.0
H436 H 0.64368 0.09456 0.22405 0.0
H437 H 0.6959 0.16397 0.21023 0.0
H438 H 0.64999 0.25481 0.26823 0.0
H439 H 0.59769 0.18531 0.28232 0.0
Tb440 Tb 0.44444 0.9903 0.40343 0.0
Tb441 Tb 0.49251 0.99498 0.45572 0.0
C442 C 0.38883 0.94801 0.45025 0.0
C443 C 0.41161 1.00858 0.33728 0.0
C444 C 0.39969 0.0442 0.29007 0.0
C445 C 0.37286 0.06653 0.3086 0.0
C446 C 0.37821 0.04872 0.33169 0.0
C447 C 0.43928 0.98732 0.31873 0.0
C448 C 0.43356 1.00478 0.29569 0.0
C449 C 0.4139 0.98415 0.36127 0.0
O450 O 0.4287 0.06852 0.4135 0.0
O451 O 0.43178 0.05254 0.45214 0.0
O452 O 0.55531 1.0228 0.43558 0.0
O453 O 0.51479 0.03807 0.40104 0.0
O454 O 0.52893 0.04114 0.4801 0.0
O455 O 0.49562 0.96977 0.49025 0.0
O456 O 0.5278 0.92508 0.44264 0.0
O457 O 0.47314 0.91214 0.41211 0.0
O458 O 0.38249 0.97145 0.42987 0.0
O459 O 0.43442 0.93892 0.45732 0.0
C460 C 0.41849 0.08202 0.4348 0.0
O461 O 0.45741 0.96751 0.36883 0.0
O462 O 0.38656 1.00168 0.37832 0.0
C463 C 0.55415 0.04368 0.4151 0.0
C464 C 0.47356 0.04243 0.51138 0.0
C465 C 0.40463 0.1109 0.53159 0.0
C466 C 0.45519 0.10772 0.53939 0.0
C467 C 0.48963 0.07432 0.52912 0.0
C468 C 0.42273 0.04444 0.50417 0.0
C469 C 0.38917 0.07969 0.51349 0.0
C470 C 0.51027 1.01446 0.49713 0.0
C471 C 0.5084 0.89492 0.42666 0.0
H472 H 0.34714 0.09761 0.30516 0.0
H473 H 0.35552 0.06603 0.34513 0.0
H474 H 0.46485 0.95601 0.32196 0.0
H475 H 0.45539 0.98692 0.28212 0.0
H476 H 0.46842 0.13198 0.55311 0.0
H477 H 0.52887 0.07436 0.53459 0.0
H478 H 0.40949 1.02001 0.49059 0.0
H479 H 0.35135 0.0827 0.50644 0.0
Tb480 Tb 0.25811 0.31224 0.39783 0.0
Tb481 Tb 0.24267 0.37329 0.44507 0.0
C482 C 0.30688 0.2724 0.44022 0.0
C483 C 0.23334 0.20197 0.36259 0.0
C484 C 0.17294 0.11651 0.35209 0.0
C485 C 0.2243 0.111 0.35874 0.0
C486 C 0.25428 0.15334 0.36325 0.0
C487 C 0.18082 0.20725 0.35959 0.0
C488 C 0.15081 0.16498 0.35464 0.0
C489 C 0.26617 0.24593 0.36717 0.0
O490 O 0.18486 0.28679 0.41349 0.0
O491 O 0.16406 0.3559 0.43503 0.0
O492 O 0.21861 0.42718 0.41603 0.0
O493 O 0.22141 0.3765 0.3833 0.0
O494 O 0.25786 0.43375 0.46839 0.0
O495 O 0.21552 0.36846 0.47942 0.0
O496 O 0.3208 0.39118 0.43436 0.0
O497 O 0.31571 0.37377 0.39549 0.0
O498 O 0.31891 0.29166 0.42045 0.0
O499 O 0.2679 0.29285 0.45114 0.0
C500 C 0.15005 0.31463 0.424 0.0
O501 O 0.24777 0.29101 0.36316 0.0
O502 O 0.28959 0.24368 0.38683 0.0
C503 C 0.21165 0.41969 0.39321 0.0
C504 C 0.26075 0.41343 0.50963 0.0
C505 C 0.2987 0.42106 0.55631 0.0
C506 C 0.28806 0.46463 0.54298 0.0
C507 C 0.26937 0.46086 0.52016 0.0
C508 C 0.27116 0.36972 0.52302 0.0
C509 C 0.28994 0.37349 0.54588 0.0
C510 C 0.23625 0.41096 0.48592 0.0
C511 C 0.33822 0.39683 0.41308 0.0
H512 H 0.24299 0.07453 0.35857 0.0
H513 H 0.29429 0.14811 0.36677 0.0
H514 H 0.16315 0.24421 0.36022 0.0
H515 H 0.11107 0.17127 0.35104 0.0
H516 H 0.29485 0.50185 0.55017 0.0
H517 H 0.26121 0.49543 0.51071 0.0
H518 H 0.26465 0.33241 0.51588 0.0
H519 H 0.29825 0.33904 0.55538 0.0
Tb520 Tb 0.98713 0.99071 0.14493 0.0
Tb521 Tb 0.93667 0.98631 0.19702 0.0
C522 C 0.04822 0.03789 0.18617 0.0
C523 C 0.98089 1.01611 0.08479 0.0
C524 C 0.90348 0.06386 0.05959 0.0
C525 C 0.95265 0.08459 0.05997 0.0
C526 C 0.99115 0.0608 0.07241 0.0
C527 C 0.93265 0.99358 0.08305 0.0
C528 C 0.89444 1.0175 0.07063 0.0
C529 C 1.01467 1.00128 0.10373 0.0
O530 O 1.01959 0.92198 0.16115 0.0
O531 O 0.9551 0.90693 0.18682 0.0
O532 O 0.87377 0.97036 0.17109 0.0
O533 O 0.92165 0.94418 0.14021 0.0
O534 O 0.94696 0.96017 0.23127 0.0
O535 O 0.87943 1.00095 0.22228 0.0
O536 O 0.9252 0.06503 0.18608 0.0
O537 O 0.92764 0.0505 0.14713 0.0
O538 O 0.04497 0.02795 0.16423 0.0
O539 O 1.01293 1.02313 0.20127 0.0
C540 C 0.99384 0.88991 0.17442 0.0
O541 O 1.02037 0.03638 0.11924 0.0
O542 O 1.00621 0.95709 0.11319 0.0
C543 C 0.87753 0.95096 0.14976 0.0
C544 C 0.90413 1.00287 0.26312 0.0
C545 C 0.89918 0.03631 0.31081 0.0
C546 C 0.855 0.02732 0.29771 0.0
C547 C 0.85745 1.01067 0.27452 0.0
C548 C 0.94855 1.01138 0.27617 0.0
C549 C 0.94609 0.02751 0.29952 0.0
C550 C 0.90487 0.97975 0.23905 0.0
C551 C 0.91432 0.07921 0.16484 0.0
H552 H 0.96061 0.1206 0.05168 0.0
H553 H 0.02773 0.07933 0.07383 0.0
H554 H 0.92323 0.95927 0.0925 0.0
H555 H 0.85746 1.00051 0.07005 0.0
H556 H 0.81811 0.03231 0.30557 0.0
H557 H 0.82239 1.00268 0.26556 0.0
H558 H 0.98542 1.00472 0.26848 0.0
H559 H 0.98116 0.03293 0.30886 0.0
Tb560 Tb 0.31403 0.75603 0.89833 0.0
Tb561 Tb 0.31723 0.69132 0.94499 0.0
C562 C 0.26827 0.80118 0.93979 0.0
C563 C 0.33878 0.86984 0.86613 0.0
C564 C 0.37415 0.9678 0.85681 0.0
C565 C 0.34493 0.95845 0.87691 0.0
C566 C 0.32503 0.90992 0.88079 0.0
C567 C 0.37982 0.87695 0.85101 0.0
C568 C 0.39927 0.9255 0.84719 0.0
C569 C 0.31228 0.82049 0.86684 0.0
O570 O 0.39527 0.76079 0.90691 0.0
O571 O 0.39552 0.72327 0.94266 0.0
O572 O 0.34738 0.63892 0.91635 0.0
O573 O 0.33297 0.686 0.88308 0.0
O574 O 0.32924 0.70531 0.98028 0.0
O575 O 0.31096 0.62985 0.96905 0.0
O576 O 0.24988 0.65641 0.93159 0.0
O577 O 0.24299 0.70667 0.89884 0.0
O578 O 0.30813 0.80741 0.92704 0.0
O579 O 0.25825 0.75369 0.94562 0.0
C580 C 0.41958 0.74763 0.92583 0.0
O581 O 0.34183 0.781 0.86634 0.0
O582 O 0.27519 0.81531 0.88172 0.0
C583 C 0.34664 0.64399 0.89305 0.0
C584 C 0.2903 0.65128 1.00927 0.0
C585 C 0.2466 0.63843 0.05475 0.0
C586 C 0.27048 0.59786 1.04328 0.0
C587 C 0.29205 0.60424 1.02101 0.0
C588 C 0.26617 0.69182 1.02076 0.0
C589 C 0.24462 0.68544 1.04301 0.0
C590 C 0.3195 0.6589 0.98687 0.0
C591 C 0.22612 0.66907 0.91263 0.0
H592 H 0.32928 0.98959 0.88669 0.0
H593 H 0.29654 0.90479 0.89413 0.0
H594 H 0.39446 0.84572 0.84091 0.0
H595 H 0.42709 0.92999 0.83354 0.0
H596 H 0.2723 0.56099 1.05154 0.0
H597 H 0.31099 0.57232 1.01307 0.0
H598 H 0.26443 0.72889 1.01267 0.0
H599 H 0.2261 0.71742 1.0511 0.0
Tb600 Tb 0.56747 0.06075 0.65174 0.0
Tb601 Tb 0.63011 0.07904 0.69801 0.0
C602 C 0.53088 1.00958 0.69412 0.0
C603 C 0.46322 0.09548 0.61409 0.0
C604 C 0.39023 0.16758 0.59966 0.0
C605 C 0.37618 0.12533 0.61338 0.0
C606 C 0.41197 0.0892 0.61987 0.0
C607 C 0.47858 0.14035 0.60304 0.0
C608 C 0.44279 0.17642 0.59633 0.0
C609 C 0.50017 0.05669 0.62136 0.0
O610 O 0.54274 0.13336 0.66831 0.0
O611 O 0.61457 0.1568 0.68688 0.0
O612 O 0.68277 0.10495 0.66894 0.0
O613 O 0.63126 0.09824 0.63663 0.0
O614 O 0.68674 0.05908 0.7224 0.0
O615 O 0.62878 0.11222 0.73132 0.0
O616 O 0.66014 1.00734 0.6856 0.0
O617 O 0.62286 0.99722 0.64997 0.0
O618 O 0.54938 0.99832 0.67417 0.0
O619 O 0.55077 0.04949 0.70456 0.0
C620 C 0.57138 0.1696 0.67733 0.0
O621 O 0.54801 0.06467 0.61655 0.0
O622 O 0.49377 0.04034 0.6424 0.0
C623 C 0.67462 0.10976 0.64607 0.0
C624 C 0.66489 0.06464 0.76339 0.0
C625 C 0.6712 0.03203 0.81107 0.0
C626 C 0.69297 1.00334 0.79306 0.0
C627 C 0.68999 1.01934 0.76969 0.0
C628 C 0.64255 0.09286 0.78145 0.0
C629 C 0.64559 0.07689 0.80478 0.0
C630 C 0.66717 0.08612 0.73896 0.0
C631 C 0.65539 0.98216 0.6661 0.0
H632 H 0.33694 0.11756 0.61756 0.0
H633 H 0.39935 0.05544 0.62889 0.0
H634 H 0.51813 0.14716 0.59895 0.0
H635 H 0.45669 0.20906 0.58685 0.0
H636 H 0.7133 0.96882 0.79713 0.0
H637 H 0.7085 0.99669 0.75661 0.0
H638 H 0.62374 0.12836 0.77759 0.0
H639 H 0.62875 0.1003 0.81805 0.0
C640 C 0.2077 0.05904 0.30766 0.0
C641 C 0.1865 0.1013 0.29558 0.0
C642 C 0.11349 0.09585 0.32115 0.0
C643 C 0.14734 0.07623 0.33763 0.0
N644 N 0.19264 0.99783 0.33885 0.0
N645 N 0.10932 0.14522 0.28557 0.0
C646 C 0.18137 0.04172 0.32765 0.0
C647 C 0.13503 0.11389 0.30014 0.0
N648 N 0.25345 0.03925 0.30174 0.0
N649 N 0.06357 0.1002 0.32641 0.0
H650 H 0.12526 0.15729 0.26993 0.0
H651 H 0.07326 0.15921 0.28921 0.0
H652 H 0.04973 0.08828 0.34249 0.0
H653 H 0.03703 0.11239 0.31438 0.0
H654 H 0.27155 1.01155 0.31159 0.0
H655 H 0.27368 0.05174 0.2874 0.0
H656 H 0.21688 0.97058 0.33197 0.0
H657 H 0.17458 0.9886 0.35442 0.0
C658 C 0.77516 0.44781 0.56891 0.0
C659 C 0.77435 0.46935 0.59115 0.0
C660 C 0.73596 0.54495 0.57641 0.0
C661 C 0.71866 0.51648 0.55711 0.0
N662 N 0.73793 0.44562 0.53143 0.0
N663 N 0.7994 0.55082 0.60605 0.0
C664 C 0.74422 0.47015 0.5518 0.0
C665 C 0.77333 0.52276 0.59053 0.0
N666 N 0.79709 0.40214 0.56519 0.0
N667 N 0.71382 0.58921 0.58296 0.0
H668 H 0.82528 0.53445 0.61747 0.0
H669 H 0.82528 0.53445 0.61747 0.0
H670 H 0.68331 0.60543 0.57431 0.0
H671 H 0.72438 0.60746 0.59818 0.0
H672 H 0.81722 0.38323 0.57812 0.0
H673 H 0.81722 0.38323 0.57812 0.0
H674 H 0.71607 0.46001 0.51791 0.0
H675 H 0.71607 0.46001 0.51791 0.0
C676 C 0.35619 0.97985 0.80132 0.0
C677 C 0.30867 0.9561 0.80672 0.0
C678 C 0.30406 1.01197 0.83966 0.0
C679 C 0.35735 1.00988 0.84071 0.0
N680 N 0.42677 0.02997 0.8155 0.0
N681 N 0.236 0.95376 0.83302 0.0
C682 C 0.37994 1.00951 0.81862 0.0
C683 C 0.28059 0.97486 0.82592 0.0
N684 N 0.38002 0.97312 0.78072 0.0
N685 N 0.27686 0.04006 0.85479 0.0
H686 H 0.21903 0.92303 0.82487 0.0
H687 H 0.21854 0.96508 0.84836 0.0
H688 H 0.29422 0.06541 0.8661 0.0
H689 H 0.29422 0.06541 0.8661 0.0
H690 H 0.36419 0.95255 0.76716 0.0
H691 H 0.36419 0.95255 0.76716 0.0
H692 H 0.44598 0.02794 0.79973 0.0
H693 H 0.44495 0.04891 0.82897 0.0
C694 C 0.08437 0.3289 0.06829 0.0
C695 C 0.05518 0.32726 1.04797 0.0
C696 C 0.98033 0.30693 0.07101 0.0
C697 C 1.00523 0.32834 0.0901 0.0
N698 N 0.08652 0.33615 0.10935 0.0
N699 N 0.98052 0.28995 1.03058 0.0
C700 C 0.05907 0.32957 0.0898 0.0
C701 C 1.00561 0.30646 1.0495 0.0
N702 N 0.1354 0.33614 0.06682 0.0
N703 N 0.93077 0.29302 0.07289 0.0
H704 H 0.99739 0.28788 1.01432 0.0
H705 H 0.99739 0.28788 1.01432 0.0
H706 H 0.91161 0.295 0.08869 0.0
H707 H 0.91032 0.27885 0.05893 0.0
H708 H 0.15823 0.33989 0.08141 0.0
H709 H 0.15386 0.33713 1.05082 0.0
H710 H 0.07038 0.3367 0.12582 0.0
H711 H 0.07038 0.3367 0.12582 0.0
C712 C 0.76463 0.57936 0.84688 0.0
C713 C 0.71432 0.57933 0.83853 0.0
C714 C 0.74695 0.59605 0.80042 0.0
C715 C 0.78912 0.62034 0.81112 0.0
N716 N 0.84618 0.62061 0.84374 0.0
N717 N 0.67003 0.54686 0.80579 0.0
C718 C 0.80119 0.60701 0.83414 0.0
C719 C 0.71135 0.57049 0.81466 0.0
N720 N 0.77647 0.55751 0.86736 0.0
N721 N 0.73824 0.5996 0.77739 0.0
H722 H 0.64216 0.53158 0.81668 0.0
H723 H 0.66502 0.54238 0.78804 0.0
H724 H 0.76264 0.61849 0.766 0.0
H725 H 0.76264 0.61849 0.766 0.0
H726 H 0.74973 0.53702 0.87698 0.0
H727 H 0.74973 0.53702 0.87698 0.0
H728 H 0.85497 0.61155 0.86084 0.0
H729 H 0.87396 0.64015 0.83435 0.0
C730 C 0.60844 0.09049 0.29386 0.0
C731 C 0.62544 0.08494 0.27097 0.0
C732 C 0.71195 0.08873 0.28307 0.0
C733 C 0.69534 0.11542 0.30307 0.0
N734 N 0.62817 0.12781 0.33116 0.0
N735 N 0.68561 0.02818 0.25392 0.0
C736 C 0.64357 0.11057 0.31014 0.0
C737 C 0.67443 0.06427 0.26976 0.0
N738 N 0.5596 0.07881 0.29915 0.0
N739 N 0.76046 0.09221 0.27506 0.0
H740 H 0.65721 1.01287 0.2435 0.0
H741 H 0.72161 1.01202 0.25264 0.0
H742 H 0.78873 0.11267 0.28341 0.0
H743 H 0.77098 0.07791 0.25898 0.0
H744 H 0.54468 0.08053 0.3158 0.0
H745 H 0.53588 0.06362 0.28652 0.0
H746 H 0.59031 0.12862 0.33633 0.0
H747 H 0.65383 0.14217 0.34315 0.0
C748 C 0.83365 0.07505 1.02964 0.0
C749 C 0.86149 0.09315 1.04905 0.0
C750 C 0.8301 0.1782 1.04064 0.0
C751 C 0.82249 0.16141 1.01786 0.0
N752 N 0.77141 0.09628 1.00066 0.0
N753 N 0.86716 0.15968 0.07781 0.0
C754 C 0.80573 0.11074 1.01677 0.0
C755 C 0.8525 0.14388 0.05649 0.0
N756 N 0.83685 0.02694 1.02151 0.0
N757 N 0.82215 0.22729 1.0463 0.0
H758 H 0.88261 0.13476 0.08995 0.0
H759 H 0.86211 0.19705 0.08323 0.0
H760 H 0.80704 0.25319 1.0345 0.0
H761 H 0.80704 0.25319 1.0345 0.0
H762 H 0.8603 0.99917 1.02853 0.0
H763 H 0.8603 0.99917 1.02853 0.0
H764 H 0.76086 0.05836 0.9986 0.0
H765 H 0.75269 0.12321 0.99052 0.0
C766 C 0.32803 0.12924 0.5569 0.0
C767 C 0.36923 0.14696 0.54295 0.0
C768 C 0.3717 0.22329 0.5665 0.0
C769 C 0.35129 0.19302 0.58434 0.0
N770 N 0.27133 0.14938 0.58831 0.0
N771 N 0.4136 0.22272 0.52969 0.0
C772 C 0.31445 0.15881 0.5762 0.0
C773 C 0.38465 0.19845 0.54571 0.0
N774 N 0.30432 0.08418 0.55313 0.0
N775 N 0.38574 0.27191 0.57075 0.0
H776 H 0.42392 0.20593 0.51409 0.0
H777 H 0.42392 0.20593 0.51409 0.0
H778 H 0.37851 0.28845 0.58679 0.0
H779 H 0.40344 0.29445 0.55821 0.0
H780 H 0.27549 0.0709 0.56402 0.0
H781 H 0.31357 0.06039 0.53955 0.0
H782 H 0.26212 0.16967 0.60319 0.0
H783 H 0.26212 0.16967 0.60319 0.0
C784 C 0.22515 0.15963 0.97631 0.0
C785 C 0.19573 0.11448 0.97407 0.0
C786 C 0.20856 0.09875 1.01619 0.0
C787 C 0.2414 0.14104 1.01811 0.0
N788 N 0.28642 0.20856 0.99879 0.0
N789 N 0.17222 0.03476 0.9919 0.0
C790 C 0.25134 0.17055 0.99776 0.0
C791 C 0.19161 0.08236 0.99405 0.0
N792 N 0.22642 0.1932 0.95833 0.0
N793 N 0.19124 0.075 1.03575 0.0
H794 H 0.16118 1.02057 0.97614 0.0
H795 H 0.17333 1.00752 1.00498 0.0
H796 H 0.20148 0.08613 0.05235 0.0
H797 H 0.16241 0.04791 1.03564 0.0
H798 H 0.24209 0.22938 0.95947 0.0
H799 H 0.20907 0.18555 0.94255 0.0
H800 H 0.29932 0.22843 0.98433 0.0
H801 H 0.30528 0.21772 1.01402 0.0
C802 C 0.71383 0.51577 0.25145 0.0
C803 C 0.6705 0.50542 0.26557 0.0
C804 C 0.63522 0.45424 0.23342 0.0
C805 C 0.67975 0.46257 0.21979 0.0
N806 N 0.75064 0.51699 0.2128 0.0
N807 N 0.58478 0.47427 0.26764 0.0
C808 C 0.71573 0.49827 0.22793 0.0
C809 C 0.62956 0.47759 0.25575 0.0
N810 N 0.75423 0.54084 0.26072 0.0
N811 N 0.5986 0.42274 0.22498 0.0
H812 H 0.57959 0.49038 0.28389 0.0
H813 H 0.55169 0.45885 0.26089 0.0
H814 H 0.59973 0.40939 0.20804 0.0
H815 H 0.56817 0.40895 0.23465 0.0
H816 H 0.78902 0.54475 0.25231 0.0
H817 H 0.75428 0.55441 0.27761 0.0
H818 H 0.77631 0.54568 0.21677 0.0
H819 H 0.74817 0.50864 0.19531 0.0
C820 C 0.29637 0.96603 0.50157 0.0
C821 C 0.31087 0.92326 0.51525 0.0
C822 C 0.35379 0.88869 0.48053 0.0
C823 C 0.34821 0.93546 0.46838 0.0
N824 N 0.31143 1.01875 0.46749 0.0
N825 N 0.35673 0.84447 0.51743 0.0
C826 C 0.31782 0.9738 0.47881 0.0
C827 C 0.33988 0.88443 0.50448 0.0
N828 N 0.2611 0.99881 0.51017 0.0
N829 N 0.37305 0.84805 0.46892 0.0
H830 H 0.34801 0.84001 0.5349 0.0
H831 H 0.38279 0.81799 0.51141 0.0
H832 H 0.38283 0.85024 0.45145 0.0
H833 H 0.3744 0.8115 0.47578 0.0
H834 H 0.24502 0.02805 0.50056 0.0
H835 H 0.24485 0.99422 0.5265 0.0
H836 H 0.29561 0.05087 0.47497 0.0
H837 H 0.32357 1.02418 0.45058 0.0
C838 C 0.86497 0.54208 0.71981 0.0
C839 C 0.89548 0.58432 0.71338 0.0
C840 C 0.93944 0.57826 0.75108 0.0
C841 C 0.90681 0.53803 0.75864 0.0
N842 N 0.8488 0.47225 0.74691 0.0
N843 N 0.9752 0.62591 0.71879 0.0
C844 C 0.87273 0.51695 0.74189 0.0
C845 C 0.93764 0.59582 0.72763 0.0
N846 N 0.82854 0.5263 0.70481 0.0
N847 N 0.96889 0.60355 0.76662 0.0
H848 H 0.97401 0.63926 0.70177 0.0
H849 H 1.00923 0.63283 0.72733 0.0
H850 H 0.96841 0.59603 0.78428 0.0
H851 H 0.98918 0.63631 0.76246 0.0
H852 H 0.80184 0.49831 0.70854 0.0
H853 H 0.82456 0.54274 0.6885 0.0
H854 H 0.82577 0.45283 0.73539 0.0
H855 H 0.85562 0.4521 0.76212 0.0
C856 C 0.83308 0.8908 0.12246 0.0
C857 C 0.83357 0.93891 0.13355 0.0
C858 C 0.78632 0.97444 0.10005 0.0
C859 C 0.78936 0.92701 0.0882 0.0
N860 N 0.8003 0.83683 0.0919 0.0
N861 N 0.79742 1.02194 0.13576 0.0
C862 C 0.8079 0.88422 0.10069 0.0
C863 C 0.80533 0.979 0.12329 0.0
N864 N 0.85885 0.85157 0.13244 0.0
N865 N 0.76916 1.01632 0.0885 0.0
H866 H 0.81013 0.02499 0.15264 0.0
H867 H 0.7741 0.0516 0.13053 0.0
H868 H 0.75669 1.01533 0.07148 0.0
H869 H 0.77155 0.05303 0.09492 0.0
H870 H 0.86665 0.81756 0.12411 0.0
H871 H 0.87427 0.85417 0.14898 0.0
H872 H 0.80858 0.80356 0.10086 0.0
H873 H 0.78082 0.83069 0.07652 0.0
C874 C 0.4107 0.59037 0.87037 0.0
C875 C 0.35925 0.60301 0.87529 0.0
C876 C 0.33575 0.56173 0.83819 0.0
C877 C 0.38719 0.55826 0.83133 0.0
N878 N 0.47489 0.57204 0.84106 0.0
N879 N 0.27391 0.60855 0.85975 0.0
C880 C 0.42512 0.57264 0.84764 0.0
C881 C 0.32211 0.5902 0.85816 0.0
N882 N 0.44603 0.59661 0.88726 0.0
N883 N 0.29926 0.53752 0.82565 0.0
H884 H 0.26142 0.63041 0.87341 0.0
H885 H 0.24759 0.60584 0.84643 0.0
H886 H 0.3076 0.51569 0.81116 0.0
H887 H 0.26168 0.53451 0.83118 0.0
H888 H 0.48352 0.58475 0.88574 0.0
H889 H 0.43619 0.60932 0.90368 0.0
H890 H 0.50412 0.58688 0.85102 0.0
H891 H 0.48659 0.56009 0.82476 0.0
C892 C 0.76722 0.09828 0.59557 0.0
C893 C 0.75752 0.14407 0.58307 0.0
C894 C 0.70537 0.17376 0.61624 0.0
C895 C 0.71398 0.12753 0.62848 0.0
N896 N 0.76091 0.05021 0.63175 0.0
N897 N 0.72507 0.22932 0.58359 0.0
C898 C 0.74775 0.09142 0.61873 0.0
C899 C 0.72924 0.18309 0.59418 0.0
N900 N 0.79398 0.06059 0.58499 0.0
N901 N 0.67214 0.20798 0.62539 0.0
H902 H 0.73982 0.23682 0.56719 0.0
H903 H 0.70999 0.26125 0.59153 0.0
H904 H 0.65697 0.20379 0.64197 0.0
H905 H 0.65811 0.23923 0.61644 0.0
H906 H 0.79804 1.02418 0.5917 0.0
H907 H 0.81038 0.06498 0.56868 0.0
H908 H 0.788 1.02367 0.62691 0.0
H909 H 0.74733 0.04483 0.64853 0.0
C910 C 0.23616 0.4844 0.36294 0.0
C911 C 0.19677 0.4605 0.37588 0.0
C912 C 0.13682 0.48478 0.34463 0.0
C913 C 0.17772 0.50201 0.33038 0.0
N914 N 0.26793 0.51282 0.32557 0.0
N915 N 0.10923 0.43606 0.3784 0.0
C916 C 0.22775 0.50094 0.3396 0.0
C917 C 0.14685 0.46075 0.36657 0.0
N918 N 0.28228 0.49073 0.37306 0.0
N919 N 0.08815 0.49227 0.3374 0.0
H920 H 0.11489 0.42099 0.3949 0.0
H921 H 0.07353 0.42862 0.37156 0.0
H922 H 0.07954 0.50941 0.32163 0.0
H923 H 0.05646 0.48532 0.34773 0.0
H924 H 0.31183 0.51184 0.36586 0.0
H925 H 0.28875 0.47883 0.38991 0.0
H926 H 0.30562 0.50738 0.33024 0.0
H927 H 0.26379 0.52397 0.30839 0.0
C928 C 0.76237 0.68984 0.49685 0.0
C929 C 0.7805 0.6484 0.51045 0.0
C930 C 0.75957 0.59212 0.47724 0.0
C931 C 0.73204 0.63157 0.46611 0.0
N932 N 0.70738 0.71916 0.46586 0.0
N933 N 0.79369 0.55779 0.51297 0.0
C934 C 0.73416 0.68087 0.47602 0.0
C935 C 0.77954 0.59905 0.5002 0.0
N936 N 0.77337 0.7382 0.50355 0.0
N937 N 0.76541 0.54724 0.46601 0.0
H938 H 0.8048 0.55984 0.53013 0.0
H939 H 0.7902 0.52063 0.5073 0.0
H940 H 0.75111 0.54195 0.44951 0.0
H941 H 0.78861 0.5179 0.47172 0.0
H942 H 0.76533 0.77005 0.49352 0.0
H943 H 0.79558 0.74602 0.51798 0.0
H944 H 0.7012 0.75415 0.47364 0.0
H945 H 0.68927 0.71476 0.44998 0.0
C946 C 0.22481 1.01934 0.75314 0.0
C947 C 0.1753 1.01857 0.76341 0.0
C948 C 0.145 0.97042 0.72921 0.0
C949 C 0.19442 0.97081 0.71908 0.0
N950 N 0.27778 1.00712 0.71905 0.0
N951 N 0.08597 1.00547 0.75737 0.0
C952 C 0.23284 0.9996 0.73023 0.0
C953 C 0.13475 0.99775 0.75021 0.0
N954 N 0.26533 0.03507 0.76591 0.0
N955 N 0.10781 0.94228 0.71902 0.0
H956 H 0.07706 0.02647 0.77204 0.0
H957 H 0.05438 0.99565 0.74761 0.0
H958 H 0.11284 0.92516 0.70296 0.0
H959 H 0.07314 0.93407 0.72687 0.0
H960 H 0.30279 0.03243 0.76038 0.0
H961 H 0.26243 0.04638 0.78305 0.0
H962 H 0.30619 0.03141 0.72479 0.0
H963 H 0.28405 0.99301 0.7026 0.0
C964 C 0.84233 0.38069 1.00397 0.0
C965 C 0.81412 0.41924 1.01543 0.0
C966 C 0.82486 0.47314 0.98032 0.0
C967 C 0.8515 0.43389 0.96851 0.0
N968 N 0.87291 0.34561 0.96764 0.0
N969 N 0.76793 0.49747 1.01154 0.0
C970 C 0.85557 0.38608 0.97993 0.0
C971 C 0.80201 0.46389 1.00261 0.0
N972 N 0.85964 0.34024 1.01642 0.0
N973 N 0.82396 0.52055 0.97095 0.0
H974 H 0.75032 0.49201 1.02753 0.0
H975 H 0.75356 0.52805 1.00219 0.0
H976 H 0.83906 0.52801 0.95474 0.0
H977 H 0.81134 0.5525 0.97976 0.0
H978 H 0.88434 0.3132 1.00974 0.0
H979 H 0.85315 0.33637 1.03411 0.0
H980 H 0.87302 0.30862 0.97405 0.0
H981 H 0.88238 0.34872 0.95016 0.0
C982 C 0.34584 0.06546 0.22787 0.0
C983 C 0.38017 0.10217 0.21847 0.0
C984 C 0.42723 0.09971 0.25562 0.0
C985 C 0.39362 0.06273 0.26502 0.0
N986 N 0.32911 1.00049 0.25712 0.0
N987 N 0.46394 0.13771 0.22109 0.0
C988 C 0.35563 0.04236 0.25013 0.0
C989 C 0.42435 0.11342 0.23166 0.0
N990 N 0.30245 0.05439 0.21624 0.0
N991 N 0.46062 0.12389 0.26978 0.0
H992 H 0.46319 0.14704 0.20355 0.0
H993 H 0.49892 0.14336 0.22902 0.0
H994 H 0.4625 0.11646 0.28746 0.0
H995 H 0.48285 0.15451 0.2644 0.0
H996 H 0.27272 0.03329 0.22331 0.0
H997 H 0.29549 0.06841 0.19978 0.0
H998 H 0.30444 0.98077 0.24639 0.0
H999 H 0.33488 0.98326 0.27315 0.0
C1000 C 0.40013 0.4167 0.60449 0.0
C1001 C 0.37528 0.43981 0.62384 0.0
C1002 C 0.29682 0.44269 0.59995 0.0
C1003 C 0.32387 0.42539 0.58004 0.0
N1004 N 0.40429 0.4036 0.56308 0.0
N1005 N 0.29998 0.47915 0.63868 0.0
C1006 C 0.37613 0.41392 0.58238 0.0
C1007 C 0.32332 0.4534 0.62126 0.0
N1008 N 0.44775 0.39748 0.60711 0.0
N1009 N 0.24548 0.44836 0.59857 0.0
H1010 H 0.31775 0.48618 0.65441 0.0
H1011 H 0.26442 0.49587 0.6371 0.0
H1012 H 0.22542 0.44136 0.58341 0.0
H1013 H 0.22245 0.45602 0.61276 0.0
H1014 H 0.46514 0.37389 0.59509 0.0
H1015 H 0.46831 0.40149 0.6222 0.0
H1016 H 0.44374 0.40173 0.56301 0.0
H1017 H 0.38892 0.40134 0.54656 0.0
C1018 C 0.9233 0.09899 0.34327 0.0
C1019 C 0.89611 0.05508 0.33599 0.0
C1020 C 0.8551 0.05381 0.37487 0.0
C1021 C 0.88461 0.09598 0.38223 0.0
N1022 N 0.95944 0.14526 0.37542 0.0
N1023 N 0.84629 0.98289 0.34841 0.0
C1024 C 0.92324 0.11346 0.36711 0.0
C1025 C 0.86514 0.03002 0.35293 0.0
N1026 N 0.94499 0.13041 0.32726 0.0
N1027 N 0.81626 0.03731 0.38861 0.0
H1028 H 0.85474 0.96344 0.33325 0.0
H1029 H 0.82697 0.9611 0.36067 0.0
H1030 H 0.80987 0.05231 0.40502 0.0
H1031 H 0.78927 1.011 0.38324 0.0
H1032 H 0.96082 0.16537 0.33158 0.0
H1033 H 0.94229 0.12426 0.30955 0.0
H1034 H 0.99118 0.15588 0.36572 0.0
H1035 H 0.96005 0.15585 0.39277 0.0
C1036 C 0.22161 0.61119 0.12029 0.0
C1037 C 0.16765 0.6148 0.12166 0.0
C1038 C 0.16636 0.63099 0.07919 0.0
C1039 C 0.22008 0.63083 0.07805 0.0
N1040 N 0.29926 0.62901 0.09855 0.0
N1041 N 0.09065 0.64114 0.10218 0.0
C1042 C 0.24777 0.62346 0.09896 0.0
C1043 C 0.14092 0.62881 0.10104 0.0
N1044 N 0.24795 0.5934 0.13887 0.0
N1045 N 0.13895 0.63055 0.05918 0.0
H1046 H 0.06946 0.63986 0.11732 0.0
H1047 H 0.07105 0.65773 0.08851 0.0
H1048 H 0.15557 0.63156 1.04282 0.0
H1049 H 0.09999 0.62397 0.05872 0.0
H1050 H 0.28623 0.58387 0.1382 0.0
H1051 H 0.2307 0.58446 0.15458 0.0
H1052 H 0.32149 0.62949 0.11337 0.0
H1053 H 0.31932 0.63732 0.08343 0.0
C1054 C 0.63576 0.99941 0.85004 0.0
C1055 C 0.67768 1.01652 0.83643 0.0
C1056 C 0.73392 0.99802 0.86975 0.0
C1057 C 0.69255 0.97845 0.88299 0.0
N1058 N 0.60269 0.97866 0.88836 0.0
N1059 N 0.7646 0.04448 0.83593 0.0
C1060 C 0.64302 0.98513 0.87384 0.0
C1061 C 0.72613 1.01958 0.84714 0.0
N1062 N 0.58924 0.99442 0.84 0.0
N1063 N 0.78118 0.99501 0.87874 0.0
H1064 H 0.7602 0.061 0.81966 0.0
H1065 H 0.79951 0.05258 0.8434 0.0
H1066 H 0.78563 0.98626 0.896 0.0
H1067 H 0.81457 1.00086 0.86944 0.0
H1068 H 0.5584 0.97713 0.84815 0.0
H1069 H 0.58243 1.00407 0.82281 0.0
H1070 H 0.56534 0.98639 0.88377 0.0
H1071 H 0.60797 0.97131 0.90592 0.0
C1072 C 0.49257 0.29627 0.15427 0.0
C1073 C 0.4693 0.28052 0.17548 0.0
C1074 C 0.55344 0.29356 0.19448 0.0
C1075 C 0.57775 0.30428 0.17287 0.0
N1076 N 0.56987 0.30775 0.13151 0.0
N1077 N 0.48194 0.25736 0.21545 0.0
C1078 C 0.54695 0.30367 0.15263 0.0
C1079 C 0.501 0.27761 0.19547 0.0
N1080 N 0.46236 0.30625 0.1357 0.0
N1081 N 0.57984 0.30061 0.21448 0.0
H1082 H 0.44437 0.24616 0.21743 0.0
H1083 H 0.50438 0.24745 0.22952 0.0
H1084 H 0.6175 0.31243 0.21483 0.0
H1085 H 0.56315 0.29977 0.2308 0.0
H1086 H 0.4756 0.323 0.12051 0.0
H1087 H 0.42298 0.3025 0.13628 0.0
H1088 H 0.55097 0.30191 0.11599 0.0
H1089 H 0.60893 0.31227 0.12951 0.0
C1090 C 0.54727 0.75828 0.44686 0.0
C1091 C 0.55273 0.73107 0.42574 0.0
C1092 C 0.53559 0.81281 0.40509 0.0
C1093 C 0.52395 0.83828 0.42621 0.0
N1094 N 0.5073 0.8279 0.46707 0.0
N1095 N 0.54203 0.73277 0.38444 0.0
C1096 C 0.52671 0.80889 0.44702 0.0
C1097 C 0.54414 0.75859 0.40478 0.0
N1098 N 0.56411 0.73705 0.46696 0.0
N1099 N 0.54086 0.84058 0.38526 0.0
H1100 H 0.5464 0.69356 0.38346 0.0
H1101 H 0.53073 0.74942 0.36894 0.0
H1102 H 0.53699 0.8799 0.38478 0.0
H1103 H 0.55435 0.82536 0.36986 0.0
H1104 H 0.56617 0.75703 0.48241 0.0
H1105 H 0.58153 0.70168 0.46771 0.0
H1106 H 0.5032 0.80619 0.48205 0.0
H1107 H 0.48988 0.86313 0.46813 0.0
C1108 C 1.01705 0.77125 0.69561 0.0
C1109 C 0.98937 0.7695 0.67447 0.0
C1110 C 0.07084 0.78917 0.65402 0.0
C1111 C 0.09699 0.79641 0.67535 0.0
N1112 N 0.0886 0.80585 0.71662 0.0
N1113 N 0.9902 0.78663 0.63358 0.0
C1114 C 0.0682 0.7906 0.69616 0.0
C1115 C 1.01651 0.78114 0.65369 0.0
N1116 N 0.99567 0.75186 0.71528 0.0
N1117 N 0.09809 0.78769 0.63394 0.0
H1118 H 0.95091 0.78259 0.63267 0.0
H1119 H 1.00655 0.80022 0.61835 0.0
H1120 H 0.13742 0.79179 0.63342 0.0
H1121 H 0.08245 0.77729 0.61817 0.0
H1122 H 1.01571 0.74706 0.73061 0.0
H1123 H 0.9599 0.73505 0.71559 0.0
H1124 H 0.06769 0.8077 0.7319 0.0
H1125 H 0.1245 0.8221 0.71789 0.0
C1126 C 1.0128 0.30375 0.94098 0.0
C1127 C 1.01596 0.3347 0.92072 0.0
C1128 C 0.04284 0.25756 0.89902 0.0
C1129 C 0.04334 0.22765 0.91966 0.0
N1130 N 0.03615 0.22608 0.96114 0.0
N1131 N 0.04139 0.34142 0.88092 0.0
C1132 C 0.03005 0.25187 0.94081 0.0
C1133 C 0.03301 0.3115 0.89989 0.0
N1134 N 0.99123 0.32318 0.96043 0.0
N1135 N 0.04939 0.23398 0.87828 0.0
H1136 H 0.03463 0.38038 0.88088 0.0
H1137 H 0.05902 0.32866 0.86593 0.0
H1138 H 0.0556 0.19508 0.87691 0.0
H1139 H 0.04411 0.25183 0.86241 0.0
H1140 H 0.97945 0.30072 0.97426 0.0
H1141 H 0.98102 0.36105 0.96193 0.0
H1142 H 0.03308 0.24303 0.97729 0.0
H1143 H 0.04873 0.18869 0.96198 0.0
C1144 C 0.54414 0.82805 0.92315 0.0
C1145 C 0.58276 0.79316 0.92999 0.0
C1146 C 0.51477 0.72712 0.93362 0.0
C1147 C 0.4759 0.76314 0.92838 0.0
N1148 N 0.4549 0.8514 0.92343 0.0
N1149 N 0.6019 0.71106 0.94582 0.0
C1150 C 0.49115 0.81452 0.92463 0.0
C1151 C 0.56707 0.74309 0.93631 0.0
N1152 N 0.55795 0.87384 0.91404 0.0
N1153 N 0.5023 0.67694 0.93516 0.0
H1154 H 0.63944 0.72185 0.9486 0.0
H1155 H 0.59264 0.67597 0.95303 0.0
H1156 H 0.46519 0.66381 0.93364 0.0
H1157 H 0.52905 0.64803 0.93609 0.0
H1158 H 0.53252 0.8984 0.90603 0.0
H1159 H 0.59561 0.88507 0.91245 0.0
H1160 H 0.46329 0.89002 0.92324 0.0
H1161 H 0.41623 0.84383 0.92515 0.0
C1162 C 0.55252 0.31135 0.69542 0.0
C1163 C 0.523 0.3315 0.67694 0.0
C1164 C 0.52986 0.24763 0.6579 0.0
C1165 C 0.55394 0.22541 0.67748 0.0
N1166 N 0.57538 0.23656 0.7177 0.0
N1167 N 0.46891 0.3101 0.64508 0.0
C1168 C 0.56174 0.25749 0.69705 0.0
C1169 C 0.5076 0.29711 0.65943 0.0
N1170 N 0.57332 0.34352 0.71118 0.0
N1171 N 0.53022 0.22304 0.63727 0.0
H1172 H 0.44734 0.34257 0.64792 0.0
H1173 H 0.45386 0.28524 0.63292 0.0
H1174 H 0.54914 0.18884 0.63478 0.0
H1175 H 0.51734 0.24008 0.6221 0.0
H1176 H 0.59933 0.33165 0.72358 0.0
H1177 H 0.56849 0.38273 0.71045 0.0
H1178 H 0.57721 0.25732 0.73294 0.0
H1179 H 0.57859 0.19758 0.72022 0.0
C1180 C 0.06456 0.29217 0.44376 0.0
C1181 C 0.09364 0.29927 0.42319 0.0
C1182 C 1.0167 0.27462 0.40083 0.0
C1183 C 0.98624 0.27106 0.42141 0.0
N1184 N 0.98128 0.29202 0.46191 0.0
N1185 N 0.0922 0.30848 0.38185 0.0
C1186 C 1.01039 0.28404 0.44271 0.0
C1187 C 0.06813 0.29354 0.40169 0.0
N1188 N 0.08881 0.29158 0.46455 0.0
N1189 N 0.99776 0.25821 0.38026 0.0
H1190 H 0.12908 0.32278 0.3816 0.0
H1191 H 0.07399 0.31152 0.36597 0.0
H1192 H 0.96111 0.24463 0.37814 0.0
H1193 H 1.02009 0.25353 0.36555 0.0
H1194 H 0.07098 0.28107 0.47994 0.0
H1195 H 0.12788 0.29669 0.4661 0.0
H1196 H 0.99582 0.30625 0.47728 0.0
H1197 H 0.94178 0.29068 0.46169 0.0
C1198 C 1.00971 0.74812 0.19435 0.0
C1199 C 0.03098 0.72427 0.17445 0.0
C1200 C 1.02185 0.80692 0.15395 0.0
C1201 C 1.00701 0.83264 0.17459 0.0
N1202 N 0.99946 0.8261 0.2161 0.0
N1203 N 0.07232 0.73881 0.13793 0.0
C1204 C 1.00439 0.80267 0.19525 0.0
C1205 C 0.04118 0.75596 0.15499 0.0
N1206 N 0.99285 0.71881 0.2123 0.0
N1207 N 1.01531 0.8297 0.13298 0.0
H1208 H 0.09196 0.70479 0.1396 0.0
H1209 H 0.08419 0.76146 0.12411 0.0
H1210 H 0.99709 0.86442 0.13103 0.0
H1211 H 1.02185 0.81094 0.11745 0.0
H1212 H 0.97248 0.73347 0.22619 0.0
H1213 H 0.99447 0.67931 0.21215 0.0
H1214 H 1.00207 0.80677 0.23178 0.0
H1215 H 0.999 0.86539 0.21786 0.0
C1216 C 0.2339 0.38904 0.15178 0.0
C1217 C 0.2184 0.34092 0.16034 0.0
C1218 C 0.13403 0.3773 0.16988 0.0
C1219 C 0.15007 0.42589 0.16182 0.0
N1220 N 0.20951 0.47309 0.13853 0.0
N1221 N 0.14989 0.28631 0.17216 0.0
C1222 C 0.19834 0.43011 0.15077 0.0
C1223 C 0.16706 0.3342 0.16755 0.0
N1224 N 0.28325 0.39599 0.14521 0.0
N1225 N 0.08833 0.37268 0.18087 0.0
H1226 H 0.173 0.25452 0.17047 0.0
H1227 H 0.11206 0.2775 0.1755 0.0
H1228 H 0.06283 0.4026 0.18229 0.0
H1229 H 0.07673 0.34016 0.18969 0.0
H1230 H 0.29896 0.43139 0.14151 0.0
H1231 H 0.30929 0.36626 0.14459 0.0
H1232 H 0.24181 0.47735 0.1283 0.0
H1233 H 0.18346 0.50239 0.13659 0.0
C1234 C 0.43038 0.41276 0.39978 0.0
C1235 C 0.38396 0.43142 0.40929 0.0
C1236 C 0.4248 0.51584 0.41308 0.0
C1237 C 0.47267 0.49553 0.40689 0.0
N1238 N 0.52198 0.42335 0.39545 0.0
N1239 N 0.33973 0.50118 0.42747 0.0
C1240 C 0.47553 0.44378 0.40014 0.0
C1241 C 0.38202 0.48313 0.41655 0.0
N1242 N 0.4319 0.36484 0.39097 0.0
N1243 N 0.42014 0.56718 0.41535 0.0
H1244 H 0.3062 0.48061 0.42925 0.0
H1245 H 0.33876 0.53587 0.43597 0.0
H1246 H 0.45057 0.59193 0.4126 0.0
H1247 H 0.38548 0.58547 0.41748 0.0
H1248 H 0.46239 0.35087 0.38148 0.0
H1249 H 0.40143 0.3397 0.39196 0.0
H1250 H 0.5283 0.38471 0.39334 0.0
H1251 H 0.55504 0.44512 0.39485 0.0
C1252 C 0.33421 0.68165 0.64403 0.0
C1253 C 0.34592 0.72333 0.65859 0.0
C1254 C 0.41698 0.67402 0.67498 0.0
C1255 C 0.40733 0.63287 0.65979 0.0
N1256 N 0.36094 0.60127 0.62712 0.0
N1257 N 0.40883 0.76419 0.68199 0.0
C1258 C 0.36749 0.63817 0.64328 0.0
C1259 C 0.39089 0.72099 0.67199 0.0
N1260 N 0.2901 0.68252 0.63179 0.0
N1261 N 0.44866 0.66762 0.69336 0.0
H1262 H 0.39141 0.79926 0.67948 0.0
H1263 H 0.44374 0.76614 0.69033 0.0
H1264 H 0.46631 0.63333 0.69714 0.0
H1265 H 0.45302 0.69468 0.70626 0.0
H1266 H 0.27594 0.65142 0.62286 0.0
H1267 H 0.26628 0.71406 0.6316 0.0
H1268 H 0.33563 0.60425 0.61343 0.0
H1269 H 0.38389 0.56918 0.62642 0.0
C1270 C 0.08545 0.63279 0.90221 0.0
C1271 C 0.08739 0.57915 0.90066 0.0
C1272 C 0.18123 0.58468 0.90337 0.0
C1273 C 0.17848 0.63832 0.90711 0.0
N1274 N 0.12453 0.70658 0.9191 0.0
N1275 N 0.13733 0.50315 0.90122 0.0
C1276 C 0.12968 0.66087 0.90852 0.0
C1277 C 0.13554 0.55495 0.90119 0.0
N1278 N 0.04033 0.65685 0.89868 0.0
N1279 N 0.22755 0.56162 0.90265 0.0
H1280 H 0.10528 0.48068 0.89864 0.0
H1281 H 0.16978 0.48215 0.90473 0.0
H1282 H 0.26127 0.58042 0.90639 0.0
H1283 H 0.23321 0.5246 0.89711 0.0
H1284 H 0.03709 0.69621 0.89783 0.0
H1285 H 1.00738 0.63711 0.89431 0.0
H1286 H 0.0896 0.72363 0.92228 0.0
H1287 H 0.15447 0.72282 0.92812 0.0
C1288 C 0.8695 0.71759 0.94226 0.0
C1289 C 0.81672 0.71444 0.93709 0.0
C1290 C 0.82838 0.6234 0.92796 0.0
C1291 C 0.88113 0.62577 0.93341 0.0
N1292 N 0.95046 0.67481 0.9486 0.0
N1293 N 0.74551 0.66013 0.92832 0.0
C1294 C 0.90105 0.67275 0.94165 0.0
C1295 C 0.79632 0.66631 0.93124 0.0
N1296 N 0.89001 0.76417 0.94664 0.0
N1297 N 0.80766 0.57973 0.91958 0.0
H1298 H 0.719 0.68881 0.93109 0.0
H1299 H 0.719 0.68881 0.93109 0.0
H1300 H 0.82867 0.54729 0.91605 0.0
H1301 H 0.76906 0.57623 0.91598 0.0
H1302 H 0.92877 0.7712 0.94773 0.0
H1303 H 0.86783 0.79672 0.9482 0.0
H1304 H 0.96639 0.70571 0.95703 0.0
H1305 H 0.97521 0.64424 0.94705 0.0
C1306 C 0.69651 0.58725 0.70825 0.0
C1307 C 0.70033 0.63116 0.69384 0.0
C1308 C 0.6094 0.61963 0.68373 0.0
C1309 C 0.60744 0.57225 0.69578 0.0
N1310 N 0.65103 0.50965 0.71852 0.0
N1311 N 0.65878 0.69068 0.6686 0.0
C1312 C 0.65157 0.55601 0.70786 0.0
C1313 C 0.6561 0.64774 0.68193 0.0
N1314 N 0.7356 0.57549 0.72264 0.0
N1315 N 0.56625 0.63816 0.67398 0.0
H1316 H 0.68942 0.71572 0.66903 0.0
H1317 H 0.63151 0.70113 0.65656 0.0
H1318 H 0.53269 0.61788 0.67397 0.0
H1319 H 0.56232 0.67468 0.66738 0.0
H1320 H 0.73384 0.54712 0.73517 0.0
H1321 H 0.76891 0.59662 0.72331 0.0
H1322 H 0.6833 0.49186 0.72491 0.0
H1323 H 0.61833 0.48745 0.71991 0.0
C1324 C 0.77212 0.40125 0.43239 0.0
C1325 C 0.75325 0.35449 0.44121 0.0
C1326 C 0.67294 0.39932 0.45086 0.0
C1327 C 0.68899 0.44274 0.43791 0.0
N1328 N 0.75404 0.48158 0.41406 0.0
N1329 N 0.68518 0.31018 0.46056 0.0
C1330 C 0.7386 0.44263 0.42805 0.0
C1331 C 0.70372 0.35407 0.45128 0.0
N1332 N 0.8231 0.40658 0.42874 0.0
N1333 N 0.62793 0.40101 0.4626 0.0
H1334 H 0.70803 0.27894 0.46379 0.0
H1335 H 0.64721 0.30449 0.46485 0.0
H1336 H 0.60317 0.43169 0.46155 0.0
H1337 H 0.61639 0.37346 0.47444 0.0
H1338 H 0.84018 0.44106 0.42445 0.0
H1339 H 0.84881 0.37783 0.43278 0.0
H1340 H 0.78698 0.48011 0.40408 0.0
H1341 H 0.73277 0.5142 0.41131 0.0
C1342 C 0.91282 0.40447 0.20642 0.0
C1343 C 0.86878 0.423 0.19478 0.0
C1344 C 0.90465 0.50906 0.19769 0.0
C1345 C 0.95284 0.4904 0.20448 0.0
N1346 N 0.99968 0.41913 0.21955 0.0
N1347 N 0.8311 0.49406 0.17441 0.0
C1348 C 0.95605 0.43761 0.21019 0.0
C1349 C 0.86727 0.47545 0.18892 0.0
N1350 N 0.91356 0.35511 0.21367 0.0
N1351 N 0.89345 0.55922 0.2004 0.0
H1352 H 0.80172 0.47243 0.16769 0.0
H1353 H 0.83259 0.53093 0.16781 0.0
H1354 H 0.91765 0.58404 0.20905 0.0
H1355 H 0.85763 0.57413 0.197 0.0
H1356 H 0.94158 0.33978 0.22418 0.0
H1357 H 0.88452 0.32956 0.20994 0.0
H1358 H 1.00783 0.3807 0.22111 0.0
H1359 H 0.02781 0.44256 0.2262 0.0
C1360 C 0.74607 0.87753 0.68458 0.0
C1361 C 0.75827 0.84998 0.66431 0.0
C1362 C 0.70739 0.91398 0.64282 0.0
C1363 C 0.68732 0.93382 0.66402 0.0
N1364 N 0.67617 0.91479 0.70479 0.0
N1365 N 0.74363 0.8404 0.62344 0.0
C1366 C 0.70327 0.90973 0.6848 0.0
C1367 C 0.73705 0.86774 0.64312 0.0
N1368 N 0.77559 0.87362 0.70381 0.0
N1369 N 0.70042 0.93957 0.62257 0.0
H1370 H 0.765 0.80725 0.62294 0.0
H1371 H 0.72474 0.84882 0.60812 0.0
H1372 H 0.7182 0.92907 0.60723 0.0
H1373 H 0.68143 0.97402 0.6215 0.0
H1374 H 0.76888 0.89522 0.71856 0.0
H1375 H 0.81 0.85409 0.70376 0.0
H1376 H 0.68586 0.89547 0.71991 0.0
H1377 H 0.6405 0.93177 0.7053 0.0
C1378 C 0.87862 0.9764 0.91345 0.0
C1379 C 0.87264 0.92648 0.90408 0.0
C1380 C 0.96237 0.93314 0.89042 0.0
C1381 C 0.96576 0.98418 0.89822 0.0
N1382 N 0.92002 0.05824 0.90974 0.0
N1383 N 0.90946 0.86005 0.88097 0.0
C1384 C 0.92144 1.00688 0.90717 0.0
C1385 C 0.91454 0.90605 0.89141 0.0
N1386 N 0.84463 0.9951 0.9291 0.0
N1387 N 1.00548 0.90985 0.88288 0.0
H1388 H 0.8769 0.8378 0.88257 0.0
H1389 H 0.93636 0.8453 0.86966 0.0
H1390 H 0.03976 0.92941 0.88102 0.0
H1391 H 1.00785 0.87116 0.87956 0.0
H1392 H 0.85111 0.02837 0.93826 0.0
H1393 H 0.81149 0.97664 0.93408 0.0
H1394 H 0.88673 0.07764 0.91373 0.0
H1395 H 0.95057 0.08149 0.9052 0.0
C1396 C 0.83214 0.12954 0.17075 0.0
C1397 C 0.88193 0.12648 0.16105 0.0
C1398 C 0.87188 0.21561 0.14731 0.0
C1399 C 0.8218 0.21739 0.15649 0.0
N1400 N 0.74972 0.17034 0.17006 0.0
N1401 N 0.94552 0.16506 0.13648 0.0
C1402 C 0.80069 0.17245 0.16599 0.0
C1403 C 0.90036 0.1689 0.14795 0.0
N1404 N 0.81475 0.09227 0.18523 0.0
N1405 N 0.89297 0.25921 0.13879 0.0
H1406 H 0.96881 0.13329 0.13771 0.0
H1407 H 0.95846 0.19202 0.12464 0.0
H1408 H 0.87236 0.29282 0.13726 0.0
H1409 H 0.93102 0.26271 0.13419 0.0
H1410 H 0.78179 0.09592 0.19507 0.0
H1411 H 0.83447 0.05893 0.18856 0.0
H1412 H 0.7308 0.13671 0.17414 0.0
H1413 H 0.7258 0.20095 0.16669 0.0
C1414 C 0.59963 0.12426 0.42539 0.0
C1415 C 0.59595 0.0819 0.41042 0.0
C1416 C 0.6802 0.10492 0.39447 0.0
C1417 C 0.687 0.14194 0.41218 0.0
N1418 N 0.65363 0.18279 0.44608 0.0
N1419 N 0.63344 0.03079 0.3808 0.0
C1420 C 0.6467 0.15047 0.42802 0.0
C1421 C 0.63629 0.07224 0.39477 0.0
N1422 N 0.55717 0.14037 0.43669 0.0
N1423 N 0.7157 0.10084 0.37738 0.0
H1424 H 0.60124 1.00776 0.38018 0.0
H1425 H 0.6635 1.01778 0.37077 0.0
H1426 H 0.74776 0.12381 0.37663 0.0
H1427 H 0.7116 0.0777 0.36301 0.0
H1428 H 0.55564 0.1736 0.44631 0.0
H1429 H 0.52194 0.12339 0.43406 0.0
H1430 H 0.62803 0.18618 0.45972 0.0
H1431 H 0.68697 0.20331 0.44834 0.0
C1432 C 0.37817 0.21636 0.45486 0.0
C1433 C 0.3288 0.22062 0.44533 0.0
C1434 C 0.3368 0.13351 0.42995 0.0
C1435 C 0.38647 0.12891 0.4395 0.0
N1436 N 0.44899 0.16245 0.46581 0.0
N1437 N 0.25639 0.17889 0.42913 0.0
C1438 C 0.40522 0.16912 0.45362 0.0
C1439 C 0.3067 0.17759 0.43464 0.0
N1440 N 0.39984 0.25827 0.46453 0.0
N1441 N 0.3183 0.09601 0.41609 0.0
H1442 H 0.23366 0.21014 0.4328 0.0
H1443 H 0.23605 0.14779 0.42314 0.0
H1444 H 0.33698 0.06183 0.41333 0.0
H1445 H 0.28531 0.09943 0.40642 0.0
H1446 H 0.43783 0.2606 0.46922 0.0
H1447 H 0.37985 0.29199 0.46691 0.0
H1448 H 0.4637 0.18892 0.47722 0.0
H1449 H 0.46945 0.12881 0.46585 0.0
C1450 C 0.14286 0.04637 0.18428 0.0
C1451 C 0.09629 0.06576 0.19284 0.0
C1452 C 0.141 0.14628 0.20157 0.0
C1453 C 0.18459 0.12981 0.18895 0.0
N1454 N 0.22449 0.06343 0.16665 0.0
N1455 N 0.05042 0.13609 0.2089 0.0
C1456 C 0.18481 0.07957 0.17993 0.0
C1457 C 0.09542 0.11599 0.2017 0.0
N1458 N 0.14706 0.99543 0.18053 0.0
N1459 N 0.14258 0.19127 0.21312 0.0
H1460 H 1.01702 0.11493 0.20977 0.0
H1461 H 0.04555 0.17429 0.21276 0.0
H1462 H 0.17364 0.21574 0.21248 0.0
H1463 H 0.1145 0.20268 0.22466 0.0
H1464 H 0.18117 0.97768 0.17646 0.0
H1465 H 0.11736 0.97023 0.18405 0.0
H1466 H 0.22358 0.02998 0.15717 0.0
H1467 H 0.2573 0.08463 0.16386 0.0
C1468 C 0.21621 0.93724 0.94769 0.0
C1469 C 0.16577 0.93416 0.93882 0.0
C1470 C 0.18366 0.84509 0.92898 0.0
C1471 C 0.23038 0.84523 0.9414 0.0
N1472 N 0.28746 0.89312 0.96525 0.0
N1473 N 0.09938 0.88026 0.92444 0.0
C1474 C 0.24519 0.89183 0.95174 0.0
C1475 C 0.14868 0.8863 0.93097 0.0
N1476 N 0.23819 0.98358 0.95075 0.0
N1477 N 0.17513 0.80906 0.9128 0.0
H1478 H 0.07295 0.90954 0.92534 0.0
H1479 H 0.08411 0.84497 0.92023 0.0
H1480 H 0.20205 0.78185 0.90903 0.0
H1481 H 0.14461 0.81017 0.90141 0.0
H1482 H 0.2763 0.98829 0.95496 0.0
H1483 H 0.21973 1.01728 0.94669 0.0
H1484 H 0.29764 0.92472 0.97494 0.0
H1485 H 0.30954 0.86104 0.96841 0.0
C1486 C 0.39141 0.97957 0.68482 0.0
C1487 C 0.38697 0.92899 0.69365 0.0
C1488 C 0.47526 0.93645 0.70829 0.0
C1489 C 0.4792 0.98682 0.6996 0.0
N1490 N 0.43574 0.06075 0.68586 0.0
N1491 N 0.42198 0.86421 0.71853 0.0
C1492 C 0.43535 1.00973 0.68999 0.0
C1493 C 0.4279 0.90923 0.70706 0.0
N1494 N 0.35412 0.99886 0.67102 0.0
N1495 N 0.51762 0.91383 0.71704 0.0
H1496 H 0.38943 0.84199 0.71735 0.0
H1497 H 0.44793 0.85051 0.73053 0.0
H1498 H 0.55142 0.93371 0.71952 0.0
H1499 H 0.51995 0.87529 0.72088 0.0
H1500 H 0.35675 0.03359 0.66253 0.0
H1501 H 0.32092 0.97939 0.66709 0.0
H1502 H 0.4039 0.08132 0.6809 0.0
H1503 H 0.46694 0.08345 0.68975 0.0
loop_
_geom_bond_atom_site_label_1
_geom_bond_atom_site_label_2
_geom_bond_distance
_geom_bond_site_symmetry_2
_ccdc_geom_bond_type
Tb0 C9 2.764 . S
Tb0 O10 2.325 . S
Tb0 O13 2.303 . S
Tb0 O17 2.322 . S
Tb0 O18 2.349 . S
Tb0 O21 2.415 . S
Tb0 O22 2.399 . S
Tb1 O11 2.322 . S
Tb1 O12 2.349 . S
Tb1 O14 2.415 . S
Tb1 O15 2.399 . S
Tb1 O16 2.325 . S
Tb1 O19 2.303 . S
Tb1 C30 2.764 . S
C2 O18 1.261 . S
C2 O19 1.257 . S
C3 C6 1.346 1_545 S
C3 C7 1.332 . S
C3 C9 1.504 . S
C4 C5 1.366 1_545 S
C4 C8 1.322 . S
C5 C4 1.366 1_565 S
C5 C6 1.435 . S
C5 H32 0.932 . S
C6 C3 1.346 1_565 S
C6 C5 1.435 . S
C6 H33 0.937 . S
C7 C3 1.332 . S
C7 C8 1.394 . S
C7 H34 0.932 . S
C8 C4 1.322 . S
C8 C7 1.394 . S
C8 H35 0.929 . S
C9 Tb0 2.764 . S
C9 C3 1.504 . S
C9 O21 1.239 . S
C9 O22 1.263 . S
O10 Tb0 2.325 . S
O10 C20 1.236 . S
O11 Tb1 2.322 . S
O11 C20 1.257 . S
O12 Tb1 2.349 . S
O12 C23 1.261 . S
O13 Tb0 2.303 . S
O13 C23 1.257 . S
O14 Tb1 2.415 . S
O14 C30 1.239 . S
O15 Tb1 2.399 . S
O15 C30 1.263 . S
O16 Tb1 2.325 . S
O16 C31 1.236 . S
O17 Tb0 2.322 . S
O17 C31 1.257 . S
O18 Tb0 2.349 . S
O18 C2 1.261 . S
O19 Tb1 2.303 . S
O19 C2 1.257 . S
C20 O10 1.236 . S
C20 O11 1.257 . S
O21 Tb0 2.415 . S
O21 C9 1.239 . S
O22 Tb0 2.399 . S
O22 C9 1.263 . S
C23 O12 1.261 . S
C23 O13 1.257 . S
C24 C27 1.358 . S
C24 C28 1.332 . S
C24 C30 1.504 . S
C25 C26 1.373 . S
C25 C29 1.308 . S
C26 C25 1.373 . S
C26 C27 1.429 . S
C26 H36 0.932 . S
C27 C24 1.358 . S
C27 C26 1.429 . S
C27 H37 0.930 . S
C28 C24 1.332 . S
C28 C29 1.394 . S
C28 H38 0.932 . S
C29 C25 1.308 . S
C29 C28 1.394 . S
C29 H39 0.929 . S
C30 Tb1 2.764 . S
C30 O14 1.239 . S
C30 O15 1.263 . S
C30 C24 1.504 . S
C31 O16 1.236 . S
C31 O17 1.257 . S
H32 C5 0.932 . S
H33 C6 0.937 . S
H34 C7 0.932 . S
H35 C8 0.929 . S
H36 C26 0.932 . S
H37 C27 0.930 . S
H38 C28 0.932 . S
H39 C29 0.929 . S
Tb40 C49 2.764 . S
Tb40 O50 2.325 . S
Tb40 O53 2.303 . S
Tb40 O57 2.322 . S
Tb40 O58 2.349 . S
Tb40 O61 2.415 . S
Tb40 O62 2.399 . S
Tb41 O51 2.322 . S
Tb41 O52 2.349 . S
Tb41 O54 2.415 . S
Tb41 O55 2.399 . S
Tb41 O56 2.325 . S
Tb41 O59 2.303 . S
Tb41 C70 2.764 . S
C42 O58 1.261 . S
C42 O59 1.257 . S
C43 C46 1.358 . S
C43 C47 1.332 . S
C43 C49 1.504 . S
C44 C45 1.373 . S
C44 C48 1.308 . S
C45 C44 1.373 . S
C45 C46 1.429 . S
C45 H72 0.932 . S
C46 C43 1.358 . S
C46 C45 1.429 . S
C46 H73 0.930 . S
C47 C43 1.332 . S
C47 C48 1.394 . S
C47 H74 0.932 . S
C48 C44 1.308 . S
C48 C47 1.394 . S
C48 H75 0.929 . S
C49 Tb40 2.764 . S
C49 C43 1.504 . S
C49 O61 1.239 . S
C49 O62 1.263 . S
O50 Tb40 2.325 . S
O50 C60 1.236 . S
O51 Tb41 2.322 . S
O51 C60 1.257 . S
O52 Tb41 2.349 . S
O52 C63 1.261 . S
O53 Tb40 2.303 . S
O53 C63 1.257 . S
O54 Tb41 2.415 . S
O54 C70 1.239 . S
O55 Tb41 2.399 . S
O55 C70 1.263 . S
O56 Tb41 2.325 . S
O56 C71 1.236 . S
O57 Tb40 2.322 . S
O57 C71 1.257 . S
O58 Tb40 2.349 . S
O58 C42 1.261 . S
O59 Tb41 2.303 . S
O59 C42 1.257 . S
C60 O50 1.236 . S
C60 O51 1.257 . S
O61 Tb40 2.415 . S
O61 C49 1.239 . S
O62 Tb40 2.399 . S
O62 C49 1.263 . S
C63 O52 1.261 . S
C63 O53 1.257 . S
C64 C67 1.358 . S
C64 C68 1.332 . S
C64 C70 1.504 . S
C65 C66 1.373 . S
C65 C69 1.308 . S
C66 C65 1.373 . S
C66 C67 1.429 . S
C66 H76 0.932 . S
C67 C64 1.358 . S
C67 C66 1.429 . S
C67 H77 0.930 . S
C68 C64 1.332 . S
C68 C69 1.394 . S
C68 H78 0.932 . S
C69 C65 1.308 . S
C69 C68 1.394 . S
C69 H79 0.929 . S
C70 Tb41 2.764 . S
C70 O54 1.239 . S
C70 O55 1.263 . S
C70 C64 1.504 . S
C71 O56 1.236 . S
C71 O57 1.257 . S
H72 C45 0.932 . S
H73 C46 0.930 . S
H74 C47 0.932 . S
H75 C48 0.929 . S
H76 C66 0.932 . S
H77 C67 0.930 . S
H78 C68 0.932 . S
H79 C69 0.929 . S
Tb80 C89 2.764 . S
Tb80 O90 2.325 . S
Tb80 O93 2.303 . S
Tb80 O97 2.322 . S
Tb80 O98 2.349 . S
Tb80 O101 2.415 . S
Tb80 O102 2.399 . S
Tb81 O91 2.322 . S
Tb81 O92 2.349 . S
Tb81 O94 2.415 . S
Tb81 O95 2.399 . S
Tb81 O96 2.325 . S
Tb81 O99 2.303 . S
Tb81 C110 2.764 . S
C82 O98 1.261 . S
C82 O99 1.257 . S
C83 C86 1.346 1_565 S
C83 C87 1.332 . S
C83 C89 1.504 . S
C84 C85 1.366 1_565 S
C84 C88 1.321 . S
C85 C84 1.366 1_545 S
C85 C86 1.435 . S
C85 H112 0.932 . S
C86 C83 1.346 1_545 S
C86 C85 1.435 . S
C86 H113 0.937 . S
C87 C83 1.332 . S
C87 C88 1.394 . S
C87 H114 0.932 . S
C88 C84 1.321 . S
C88 C87 1.394 . S
C88 H115 0.929 . S
C89 Tb80 2.764 . S
C89 C83 1.504 . S
C89 O101 1.239 . S
C89 O102 1.263 . S
O90 Tb80 2.325 . S
O90 C100 1.236 . S
O91 Tb81 2.322 . S
O91 C100 1.257 . S
O92 Tb81 2.349 . S
O92 C103 1.261 . S
O93 Tb80 2.303 . S
O93 C103 1.257 . S
O94 Tb81 2.415 . S
O94 C110 1.239 . S
O95 Tb81 2.399 . S
O95 C110 1.263 . S
O96 Tb81 2.325 . S
O96 C111 1.236 . S
O97 Tb80 2.322 . S
O97 C111 1.257 . S
O98 Tb80 2.349 . S
O98 C82 1.261 . S
O99 Tb81 2.303 . S
O99 C82 1.257 . S
C100 O90 1.236 . S
C100 O91 1.257 . S
O101 Tb80 2.415 . S
O101 C89 1.239 . S
O102 Tb80 2.399 . S
O102 C89 1.263 . S
C103 O92 1.261 . S
C103 O93 1.257 . S
C104 C107 1.358 . S
C104 C108 1.332 . S
C104 C110 1.504 . S
C105 C106 1.373 . S
C105 C109 1.308 . S
C106 C105 1.373 . S
C106 C107 1.429 . S
C106 H116 0.932 . S
C107 C104 1.358 . S
C107 C106 1.429 . S
C107 H117 0.930 . S
C108 C104 1.332 . S
C108 C109 1.394 . S
C108 H118 0.932 . S
C109 C105 1.308 . S
C109 C108 1.394 . S
C109 H119 0.929 . S
C110 Tb81 2.764 . S
C110 O94 1.239 . S
C110 O95 1.263 . S
C110 C104 1.504 . S
C111 O96 1.236 . S
C111 O97 1.257 . S
H112 C85 0.932 . S
H113 C86 0.937 . S
H114 C87 0.932 . S
H115 C88 0.929 . S
H116 C106 0.932 . S
H117 C107 0.930 . S
H118 C108 0.932 . S
H119 C109 0.929 . S
Tb120 C129 2.764 . S
Tb120 O130 2.325 . S
Tb120 O133 2.303 . S
Tb120 O137 2.322 . S
Tb120 O138 2.349 . S
Tb120 O141 2.415 . S
Tb120 O142 2.399 . S
Tb121 O131 2.322 . S
Tb121 O132 2.349 . S
Tb121 O134 2.415 . S
Tb121 O135 2.399 . S
Tb121 O136 2.325 . S
Tb121 O139 2.303 . S
Tb121 C150 2.764 . S
C122 O138 1.261 . S
C122 O139 1.257 . S
C123 C126 1.358 . S
C123 C127 1.332 . S
C123 C129 1.504 . S
C124 C125 1.373 . S
C124 C128 1.308 . S
C125 C124 1.373 . S
C125 C126 1.429 . S
C125 H152 0.932 . S
C126 C123 1.358 . S
C126 C125 1.429 . S
C126 H153 0.930 . S
C127 C123 1.332 . S
C127 C128 1.394 . S
C127 H154 0.932 . S
C128 C124 1.308 . S
C128 C127 1.394 . S
C128 H155 0.929 . S
C129 Tb120 2.764 . S
C129 C123 1.504 . S
C129 O141 1.239 . S
C129 O142 1.263 . S
O130 Tb120 2.325 . S
O130 C140 1.236 . S
O131 Tb121 2.322 . S
O131 C140 1.257 . S
O132 Tb121 2.349 . S
O132 C143 1.261 . S
O133 Tb120 2.303 . S
O133 C143 1.257 . S
O134 Tb121 2.415 . S
O134 C150 1.239 . S
O135 Tb121 2.399 . S
O135 C150 1.263 . S
O136 Tb121 2.325 . S
O136 C151 1.236 . S
O137 Tb120 2.322 . S
O137 C151 1.257 . S
O138 Tb120 2.349 . S
O138 C122 1.261 . S
O139 Tb121 2.303 . S
O139 C122 1.257 . S
C140 O130 1.236 . S
C140 O131 1.257 . S
O141 Tb120 2.415 . S
O141 C129 1.239 . S
O142 Tb120 2.399 . S
O142 C129 1.263 . S
C143 O132 1.261 . S
C143 O133 1.257 . S
C144 C147 1.358 1_655 S
C144 C148 1.332 . S
C144 C150 1.504 . S
C145 C146 1.373 . S
C145 C149 1.308 1_455 S
C146 C145 1.373 . S
C146 C147 1.429 . S
C146 H156 0.932 . S
C147 C144 1.358 1_455 S
C147 C146 1.429 . S
C147 H157 0.930 . S
C148 C144 1.332 . S
C148 C149 1.394 . S
C148 H158 0.932 . S
C149 C145 1.308 1_655 S
C149 C148 1.394 . S
C149 H159 0.929 . S
C150 Tb121 2.764 . S
C150 O134 1.239 . S
C150 O135 1.263 . S
C150 C144 1.504 . S
C151 O136 1.236 . S
C151 O137 1.257 . S
H152 C125 0.932 . S
H153 C126 0.930 . S
H154 C127 0.932 . S
H155 C128 0.929 . S
H156 C146 0.932 . S
H157 C147 0.930 . S
H158 C148 0.932 . S
H159 C149 0.929 . S
Tb160 C169 2.764 . S
Tb160 O170 2.325 . S
Tb160 O173 2.303 . S
Tb160 O177 2.322 . S
Tb160 O178 2.349 . S
Tb160 O181 2.415 . S
Tb160 O182 2.399 . S
Tb161 O171 2.322 . S
Tb161 O172 2.349 . S
Tb161 O174 2.415 . S
Tb161 O175 2.399 . S
Tb161 O176 2.325 . S
Tb161 O179 2.303 . S
Tb161 C190 2.764 . S
C162 O178 1.261 . S
C162 O179 1.257 . S
C163 C166 1.358 . S
C163 C167 1.332 . S
C163 C169 1.504 . S
C164 C165 1.373 . S
C164 C168 1.308 . S
C165 C164 1.373 . S
C165 C166 1.429 . S
C165 H192 0.932 . S
C166 C163 1.358 . S
C166 C165 1.429 . S
C166 H193 0.930 . S
C167 C163 1.332 . S
C167 C168 1.394 . S
C167 H194 0.932 . S
C168 C164 1.308 . S
C168 C167 1.394 . S
C168 H195 0.929 . S
C169 Tb160 2.764 . S
C169 C163 1.504 . S
C169 O181 1.239 . S
C169 O182 1.263 . S
O170 Tb160 2.325 . S
O170 C180 1.236 . S
O171 Tb161 2.322 . S
O171 C180 1.257 . S
O172 Tb161 2.349 . S
O172 C183 1.261 . S
O173 Tb160 2.303 . S
O173 C183 1.257 . S
O174 Tb161 2.415 . S
O174 C190 1.239 . S
O175 Tb161 2.399 . S
O175 C190 1.263 . S
O176 Tb161 2.325 . S
O176 C191 1.236 . S
O177 Tb160 2.322 . S
O177 C191 1.257 . S
O178 Tb160 2.349 . S
O178 C162 1.261 . S
O179 Tb161 2.303 . S
O179 C162 1.257 . S
C180 O170 1.236 . S
C180 O171 1.257 . S
O181 Tb160 2.415 . S
O181 C169 1.239 . S
O182 Tb160 2.399 . S
O182 C169 1.263 . S
C183 O172 1.261 . S
C183 O173 1.257 . S
C184 C187 1.346 1_565 S
C184 C188 1.332 . S
C184 C190 1.504 . S
C185 C186 1.366 1_565 S
C185 C189 1.322 . S
C186 C185 1.366 1_545 S
C186 C187 1.435 . S
C186 H196 0.932 . S
C187 C184 1.346 1_545 S
C187 C186 1.435 . S
C187 H197 0.937 . S
C188 C184 1.332 . S
C188 C189 1.394 . S
C188 H198 0.932 . S
C189 C185 1.322 . S
C189 C188 1.394 . S
C189 H199 0.929 . S
C190 Tb161 2.764 . S
C190 O174 1.239 . S
C190 O175 1.263 . S
C190 C184 1.504 . S
C191 O176 1.236 . S
C191 O177 1.257 . S
H192 C165 0.932 . S
H193 C166 0.930 . S
H194 C167 0.932 . S
H195 C168 0.929 . S
H196 C186 0.932 . S
H197 C187 0.937 . S
H198 C188 0.932 . S
H199 C189 0.929 . S
Tb200 C209 2.764 . S
Tb200 O210 2.325 . S
Tb200 O213 2.303 . S
Tb200 O217 2.322 . S
Tb200 O218 2.349 . S
Tb200 O221 2.415 . S
Tb200 O222 2.399 . S
Tb201 O211 2.322 . S
Tb201 O212 2.349 . S
Tb201 O214 2.415 . S
Tb201 O215 2.399 . S
Tb201 O216 2.325 . S
Tb201 O219 2.303 . S
Tb201 C230 2.764 . S
C202 O218 1.261 . S
C202 O219 1.257 . S
C203 C206 1.358 . S
C203 C207 1.332 . S
C203 C209 1.504 . S
C204 C205 1.373 . S
C204 C208 1.308 . S
C205 C204 1.373 . S
C205 C206 1.429 . S
C205 H232 0.932 . S
C206 C203 1.358 . S
C206 C205 1.429 . S
C206 H233 0.930 . S
C207 C203 1.332 . S
C207 C208 1.394 . S
C207 H234 0.932 . S
C208 C204 1.308 . S
C208 C207 1.394 . S
C208 H235 0.929 . S
C209 Tb200 2.764 . S
C209 C203 1.504 . S
C209 O221 1.239 . S
C209 O222 1.263 . S
O210 Tb200 2.325 . S
O210 C220 1.236 . S
O211 Tb201 2.322 . S
O211 C220 1.257 . S
O212 Tb201 2.349 . S
O212 C223 1.261 . S
O213 Tb200 2.303 . S
O213 C223 1.257 . S
O214 Tb201 2.415 . S
O214 C230 1.239 . S
O215 Tb201 2.399 . S
O215 C230 1.263 . S
O216 Tb201 2.325 . S
O216 C231 1.236 . S
O217 Tb200 2.322 . S
O217 C231 1.257 . S
O218 Tb200 2.349 . S
O218 C202 1.261 . S
O219 Tb201 2.303 . S
O219 C202 1.257 . S
C220 O210 1.236 . S
C220 O211 1.257 . S
O221 Tb200 2.415 . S
O221 C209 1.239 . S
O222 Tb200 2.399 . S
O222 C209 1.263 . S
C223 O212 1.261 . S
C223 O213 1.257 . S
C224 C227 1.358 . S
C224 C228 1.332 . S
C224 C230 1.504 . S
C225 C226 1.373 . S
C225 C229 1.308 . S
C226 C225 1.373 . S
C226 C227 1.429 . S
C226 H236 0.932 . S
C227 C224 1.358 . S
C227 C226 1.429 . S
C227 H237 0.930 . S
C228 C224 1.332 . S
C228 C229 1.394 . S
C228 H238 0.932 . S
C229 C225 1.308 . S
C229 C228 1.394 . S
C229 H239 0.929 . S
C230 Tb201 2.764 . S
C230 O214 1.239 . S
C230 O215 1.263 . S
C230 C224 1.504 . S
C231 O216 1.236 . S
C231 O217 1.257 . S
H232 C205 0.932 . S
H233 C206 0.930 . S
H234 C207 0.932 . S
H235 C208 0.929 . S
H236 C226 0.932 . S
H237 C227 0.930 . S
H238 C228 0.932 . S
H239 C229 0.929 . S
Tb240 C249 2.764 . S
Tb240 O250 2.325 . S
Tb240 O253 2.303 . S
Tb240 O257 2.322 . S
Tb240 O258 2.349 . S
Tb240 O261 2.415 . S
Tb240 O262 2.399 . S
Tb241 O251 2.322 . S
Tb241 O252 2.349 . S
Tb241 O254 2.415 . S
Tb241 O255 2.399 . S
Tb241 O256 2.325 . S
Tb241 O259 2.303 . S
Tb241 C270 2.764 . S
C242 O258 1.261 . S
C242 O259 1.257 . S
C243 C246 1.358 . S
C243 C247 1.332 . S
C243 C249 1.504 . S
C244 C245 1.373 . S
C244 C248 1.308 . S
C245 C244 1.373 . S
C245 C246 1.429 . S
C245 H272 0.932 . S
C246 C243 1.358 . S
C246 C245 1.429 . S
C246 H273 0.930 . S
C247 C243 1.332 . S
C247 C248 1.394 . S
C247 H274 0.932 . S
C248 C244 1.308 . S
C248 C247 1.394 . S
C248 H275 0.929 . S
C249 Tb240 2.764 . S
C249 C243 1.504 . S
C249 O261 1.239 . S
C249 O262 1.263 . S
O250 Tb240 2.325 . S
O250 C260 1.236 . S
O251 Tb241 2.322 . S
O251 C260 1.257 . S
O252 Tb241 2.349 . S
O252 C263 1.261 . S
O253 Tb240 2.303 . S
O253 C263 1.257 . S
O254 Tb241 2.415 . S
O254 C270 1.239 . S
O255 Tb241 2.399 . S
O255 C270 1.263 . S
O256 Tb241 2.325 . S
O256 C271 1.236 . S
O257 Tb240 2.322 . S
O257 C271 1.257 . S
O258 Tb240 2.349 . S
O258 C242 1.261 . S
O259 Tb241 2.303 . S
O259 C242 1.257 . S
C260 O250 1.236 . S
C260 O251 1.257 . S
O261 Tb240 2.415 . S
O261 C249 1.239 . S
O262 Tb240 2.399 . S
O262 C249 1.263 . S
C263 O252 1.261 . S
C263 O253 1.257 . S
C264 C267 1.346 1_545 S
C264 C268 1.332 . S
C264 C270 1.504 . S
C265 C266 1.366 1_545 S
C265 C269 1.321 . S
C266 C265 1.366 1_565 S
C266 C267 1.435 . S
C266 H276 0.932 . S
C267 C264 1.346 1_565 S
C267 C266 1.435 . S
C267 H277 0.937 . S
C268 C264 1.332 . S
C268 C269 1.394 . S
C268 H278 0.932 . S
C269 C265 1.321 . S
C269 C268 1.394 . S
C269 H279 0.929 . S
C270 Tb241 2.764 . S
C270 O254 1.239 . S
C270 O255 1.263 . S
C270 C264 1.504 . S
C271 O256 1.236 . S
C271 O257 1.257 . S
H272 C245 0.932 . S
H273 C246 0.930 . S
H274 C247 0.932 . S
H275 C248 0.929 . S
H276 C266 0.932 . S
H277 C267 0.937 . S
H278 C268 0.932 . S
H279 C269 0.929 . S
Tb280 C289 2.764 . S
Tb280 O290 2.325 . S
Tb280 O293 2.303 . S
Tb280 O297 2.322 . S
Tb280 O298 2.349 . S
Tb280 O301 2.415 . S
Tb280 O302 2.399 . S
Tb281 O291 2.322 . S
Tb281 O292 2.349 . S
Tb281 O294 2.415 . S
Tb281 O295 2.399 . S
Tb281 O296 2.325 . S
Tb281 O299 2.303 . S
Tb281 C310 2.764 . S
C282 O298 1.261 . S
C282 O299 1.257 . S
C283 C286 1.358 1_455 S
C283 C287 1.332 . S
C283 C289 1.504 . S
C284 C285 1.373 . S
C284 C288 1.308 1_655 S
C285 C284 1.373 . S
C285 C286 1.429 . S
C285 H312 0.932 . S
C286 C283 1.358 1_655 S
C286 C285 1.429 . S
C286 H313 0.930 . S
C287 C283 1.332 . S
C287 C288 1.394 . S
C287 H314 0.932 . S
C288 C284 1.308 1_455 S
C288 C287 1.394 . S
C288 H315 0.929 . S
C289 Tb280 2.764 . S
C289 C283 1.504 . S
C289 O301 1.239 . S
C289 O302 1.263 . S
O290 Tb280 2.325 . S
O290 C300 1.236 . S
O291 Tb281 2.322 . S
O291 C300 1.257 . S
O292 Tb281 2.349 . S
O292 C303 1.261 . S
O293 Tb280 2.303 . S
O293 C303 1.257 . S
O294 Tb281 2.415 . S
O294 C310 1.239 . S
O295 Tb281 2.399 . S
O295 C310 1.263 . S
O296 Tb281 2.325 . S
O296 C311 1.236 . S
O297 Tb280 2.322 . S
O297 C311 1.257 . S
O298 Tb280 2.349 . S
O298 C282 1.261 . S
O299 Tb281 2.303 . S
O299 C282 1.257 . S
C300 O290 1.236 . S
C300 O291 1.257 . S
O301 Tb280 2.415 . S
O301 C289 1.239 . S
O302 Tb280 2.399 . S
O302 C289 1.263 . S
C303 O292 1.261 . S
C303 O293 1.257 . S
C304 C307 1.358 . S
C304 C308 1.332 . S
C304 C310 1.504 . S
C305 C306 1.373 . S
C305 C309 1.308 . S
C306 C305 1.373 . S
C306 C307 1.429 . S
C306 H316 0.932 . S
C307 C304 1.358 . S
C307 C306 1.429 . S
C307 H317 0.930 . S
C308 C304 1.332 . S
C308 C309 1.394 . S
C308 H318 0.932 . S
C309 C305 1.308 . S
C309 C308 1.394 . S
C309 H319 0.929 . S
C310 Tb281 2.764 . S
C310 O294 1.239 . S
C310 O295 1.263 . S
C310 C304 1.504 . S
C311 O296 1.236 . S
C311 O297 1.257 . S
H312 C285 0.932 . S
H313 C286 0.930 . S
H314 C287 0.932 . S
H315 C288 0.929 . S
H316 C306 0.932 . S
H317 C307 0.930 . S
H318 C308 0.932 . S
H319 C309 0.929 . S
Tb320 C329 2.764 . S
Tb320 O330 2.325 . S
Tb320 O333 2.303 . S
Tb320 O337 2.322 . S
Tb320 O338 2.349 . S
Tb320 O341 2.415 . S
Tb320 O342 2.399 . S
Tb321 O331 2.322 . S
Tb321 O332 2.349 . S
Tb321 O334 2.415 . S
Tb321 O335 2.399 . S
Tb321 O336 2.325 . S
Tb321 O339 2.303 . S
Tb321 C350 2.764 . S
C322 O338 1.261 . S
C322 O339 1.257 . S
C323 C326 1.358 . S
C323 C327 1.332 . S
C323 C329 1.504 . S
C324 C325 1.373 . S
C324 C328 1.308 . S
C325 C324 1.373 . S
C325 C326 1.429 . S
C325 H352 0.932 . S
C326 C323 1.358 . S
C326 C325 1.429 . S
C326 H353 0.930 . S
C327 C323 1.332 . S
C327 C328 1.394 . S
C327 H354 0.932 . S
C328 C324 1.308 . S
C328 C327 1.394 . S
C328 H355 0.929 . S
C329 Tb320 2.764 . S
C329 C323 1.504 . S
C329 O341 1.239 . S
C329 O342 1.263 . S
O330 Tb320 2.325 . S
O330 C340 1.236 . S
O331 Tb321 2.322 . S
O331 C340 1.257 . S
O332 Tb321 2.349 . S
O332 C343 1.261 . S
O333 Tb320 2.303 . S
O333 C343 1.257 . S
O334 Tb321 2.415 . S
O334 C350 1.239 . S
O335 Tb321 2.399 . S
O335 C350 1.263 . S
O336 Tb321 2.325 . S
O336 C351 1.236 . S
O337 Tb320 2.322 . S
O337 C351 1.257 . S
O338 Tb320 2.349 . S
O338 C322 1.261 . S
O339 Tb321 2.303 . S
O339 C322 1.257 . S
C340 O330 1.236 . S
C340 O331 1.257 . S
O341 Tb320 2.415 . S
O341 C329 1.239 . S
O342 Tb320 2.399 . S
O342 C329 1.263 . S
C343 O332 1.261 . S
C343 O333 1.257 . S
C344 C347 1.358 . S
C344 C348 1.332 . S
C344 C350 1.504 . S
C345 C346 1.373 . S
C345 C349 1.308 . S
C346 C345 1.373 . S
C346 C347 1.429 . S
C346 H356 0.932 . S
C347 C344 1.358 . S
C347 C346 1.429 . S
C347 H357 0.930 . S
C348 C344 1.332 . S
C348 C349 1.394 . S
C348 H358 0.932 . S
C349 C345 1.308 . S
C349 C348 1.394 . S
C349 H359 0.929 . S
C350 Tb321 2.764 . S
C350 O334 1.239 . S
C350 O335 1.263 . S
C350 C344 1.504 . S
C351 O336 1.236 . S
C351 O337 1.257 . S
H352 C325 0.932 . S
H353 C326 0.930 . S
H354 C327 0.932 . S
H355 C328 0.929 . S
H356 C346 0.932 . S
H357 C347 0.930 . S
H358 C348 0.932 . S
H359 C349 0.929 . S
Tb360 C369 2.764 . S
Tb360 O370 2.325 1_545 S
Tb360 O373 2.303 . S
Tb360 O377 2.322 . S
Tb360 O378 2.349 . S
Tb360 O381 2.415 . S
Tb360 O382 2.399 . S
Tb361 O371 2.322 . S
Tb361 O372 2.349 . S
Tb361 O374 2.415 1_565 S
Tb361 O375 2.399 1_565 S
Tb361 O376 2.325 1_565 S
Tb361 O379 2.303 1_565 S
Tb361 C390 2.764 1_565 S
C362 O378 1.261 . S
C362 O379 1.257 . S
C363 C366 1.364 . S
C363 C367 1.321 1_545 S
C363 C369 1.509 . S
C364 C365 1.373 1_565 S
C364 C368 1.308 . S
C365 C364 1.373 1_545 S
C365 C366 1.429 . S
C365 H392 0.932 . S
C366 C363 1.364 . S
C366 C365 1.429 . S
C366 H393 0.930 . S
C367 C363 1.321 1_565 S
C367 C368 1.394 . S
C367 H394 0.932 . S
C368 C364 1.308 . S
C368 C367 1.394 . S
C368 H395 0.929 . S
C369 Tb360 2.764 . S
C369 C363 1.509 . S
C369 O381 1.239 . S
C369 O382 1.263 . S
O370 Tb360 2.325 1_565 S
O370 C380 1.236 . S
O371 Tb361 2.322 . S
O371 C380 1.257 . S
O372 Tb361 2.349 . S
O372 C383 1.261 . S
O373 Tb360 2.303 . S
O373 C383 1.257 1_545 S
O374 Tb361 2.415 1_545 S
O374 C390 1.239 . S
O375 Tb361 2.399 1_545 S
O375 C390 1.263 . S
O376 Tb361 2.325 1_545 S
O376 C391 1.236 . S
O377 Tb360 2.322 . S
O377 C391 1.257 . S
O378 Tb360 2.349 . S
O378 C362 1.261 . S
O379 Tb361 2.303 1_545 S
O379 C362 1.257 . S
C380 O370 1.236 . S
C380 O371 1.257 . S
O381 Tb360 2.415 . S
O381 C369 1.239 . S
O382 Tb360 2.399 . S
O382 C369 1.263 . S
C383 O372 1.261 . S
C383 O373 1.257 1_565 S
C384 C387 1.358 1_455 S
C384 C388 1.332 . S
C384 C390 1.504 . S
C385 C386 1.373 . S
C385 C389 1.308 1_655 S
C386 C385 1.373 . S
C386 C387 1.429 . S
C386 H396 0.932 . S
C387 C384 1.358 1_655 S
C387 C386 1.429 . S
C387 H397 0.930 . S
C388 C384 1.332 . S
C388 C389 1.394 . S
C388 H398 0.932 . S
C389 C385 1.308 1_455 S
C389 C388 1.394 . S
C389 H399 0.929 . S
C390 Tb361 2.764 1_545 S
C390 O374 1.239 . S
C390 O375 1.263 . S
C390 C384 1.504 . S
C391 O376 1.236 . S
C391 O377 1.257 . S
H392 C365 0.932 . S
H393 C366 0.930 . S
H394 C367 0.932 . S
H395 C368 0.929 . S
H396 C386 0.932 . S
H397 C387 0.930 . S
H398 C388 0.932 . S
H399 C389 0.929 . S
Tb400 C409 2.764 . S
Tb400 O410 2.325 . S
Tb400 O413 2.303 . S
Tb400 O417 2.322 . S
Tb400 O418 2.349 . S
Tb400 O421 2.415 . S
Tb400 O422 2.399 . S
Tb401 O411 2.322 . S
Tb401 O412 2.349 . S
Tb401 O414 2.415 . S
Tb401 O415 2.399 . S
Tb401 O416 2.325 . S
Tb401 O419 2.303 . S
Tb401 C430 2.764 . S
C402 O418 1.261 . S
C402 O419 1.257 . S
C403 C406 1.358 . S
C403 C407 1.332 . S
C403 C409 1.504 . S
C404 C405 1.373 . S
C404 C408 1.308 . S
C405 C404 1.373 . S
C405 C406 1.429 . S
C405 H432 0.932 . S
C406 C403 1.358 . S
C406 C405 1.429 . S
C406 H433 0.930 . S
C407 C403 1.332 . S
C407 C408 1.394 . S
C407 H434 0.932 . S
C408 C404 1.308 . S
C408 C407 1.394 . S
C408 H435 0.929 . S
C409 Tb400 2.764 . S
C409 C403 1.504 . S
C409 O421 1.239 . S
C409 O422 1.263 . S
O410 Tb400 2.325 . S
O410 C420 1.236 . S
O411 Tb401 2.322 . S
O411 C420 1.257 . S
O412 Tb401 2.349 . S
O412 C423 1.261 . S
O413 Tb400 2.303 . S
O413 C423 1.257 . S
O414 Tb401 2.415 . S
O414 C430 1.239 . S
O415 Tb401 2.399 . S
O415 C430 1.263 . S
O416 Tb401 2.325 . S
O416 C431 1.236 . S
O417 Tb400 2.322 . S
O417 C431 1.257 . S
O418 Tb400 2.349 . S
O418 C402 1.261 . S
O419 Tb401 2.303 . S
O419 C402 1.257 . S
C420 O410 1.236 . S
C420 O411 1.257 . S
O421 Tb400 2.415 . S
O421 C409 1.239 . S
O422 Tb400 2.399 . S
O422 C409 1.263 . S
C423 O412 1.261 . S
C423 O413 1.257 . S
C424 C427 1.358 . S
C424 C428 1.332 . S
C424 C430 1.504 . S
C425 C426 1.373 . S
C425 C429 1.308 . S
C426 C425 1.373 . S
C426 C427 1.429 . S
C426 H436 0.932 . S
C427 C424 1.358 . S
C427 C426 1.429 . S
C427 H437 0.930 . S
C428 C424 1.332 . S
C428 C429 1.394 . S
C428 H438 0.932 . S
C429 C425 1.308 . S
C429 C428 1.394 . S
C429 H439 0.929 . S
C430 Tb401 2.764 . S
C430 O414 1.239 . S
C430 O415 1.263 . S
C430 C424 1.504 . S
C431 O416 1.236 . S
C431 O417 1.257 . S
H432 C405 0.932 . S
H433 C406 0.930 . S
H434 C407 0.932 . S
H435 C408 0.929 . S
H436 C426 0.932 . S
H437 C427 0.930 . S
H438 C428 0.932 . S
H439 C429 0.929 . S
Tb440 C449 2.764 . S
Tb440 O450 2.325 1_565 S
Tb440 O453 2.303 . S
Tb440 O457 2.322 . S
Tb440 O458 2.349 . S
Tb440 O461 2.415 . S
Tb440 O462 2.399 . S
Tb441 O451 2.322 . S
Tb441 O452 2.349 . S
Tb441 O454 2.415 1_545 S
Tb441 O455 2.399 1_545 S
Tb441 O456 2.325 1_545 S
Tb441 O459 2.303 1_545 S
Tb441 C470 2.764 1_545 S
C442 O458 1.261 . S
C442 O459 1.257 . S
C443 C446 1.364 . S
C443 C447 1.320 1_565 S
C443 C449 1.509 . S
C444 C445 1.373 1_545 S
C444 C448 1.308 . S
C445 C444 1.373 1_565 S
C445 C446 1.429 . S
C445 H472 0.932 . S
C446 C443 1.364 . S
C446 C445 1.429 . S
C446 H473 0.930 . S
C447 C443 1.320 1_545 S
C447 C448 1.394 . S
C447 H474 0.932 . S
C448 C444 1.308 . S
C448 C447 1.394 . S
C448 H475 0.929 . S
C449 Tb440 2.764 . S
C449 C443 1.509 . S
C449 O461 1.239 . S
C449 O462 1.263 . S
O450 Tb440 2.325 1_545 S
O450 C460 1.236 . S
O451 Tb441 2.322 . S
O451 C460 1.257 . S
O452 Tb441 2.349 . S
O452 C463 1.261 . S
O453 Tb440 2.303 . S
O453 C463 1.257 1_565 S
O454 Tb441 2.415 1_565 S
O454 C470 1.239 . S
O455 Tb441 2.399 1_565 S
O455 C470 1.263 . S
O456 Tb441 2.325 1_565 S
O456 C471 1.236 . S
O457 Tb440 2.322 . S
O457 C471 1.257 . S
O458 Tb440 2.349 . S
O458 C442 1.261 . S
O459 Tb441 2.303 1_565 S
O459 C442 1.257 . S
C460 O450 1.236 . S
C460 O451 1.257 . S
O461 Tb440 2.415 . S
O461 C449 1.239 . S
O462 Tb440 2.399 . S
O462 C449 1.263 . S
C463 O452 1.261 . S
C463 O453 1.257 1_545 S
C464 C467 1.358 . S
C464 C468 1.332 . S
C464 C470 1.504 . S
C465 C466 1.373 . S
C465 C469 1.308 . S
C466 C465 1.373 . S
C466 C467 1.429 . S
C466 H476 0.932 . S
C467 C464 1.358 . S
C467 C466 1.429 . S
C467 H477 0.930 . S
C468 C464 1.332 . S
C468 C469 1.394 . S
C468 H478 0.932 . S
C469 C465 1.308 . S
C469 C468 1.394 . S
C469 H479 0.929 . S
C470 Tb441 2.764 1_565 S
C470 O454 1.239 . S
C470 O455 1.263 . S
C470 C464 1.504 . S
C471 O456 1.236 . S
C471 O457 1.257 . S
H472 C445 0.932 . S
H473 C446 0.930 . S
H474 C447 0.932 . S
H475 C448 0.929 . S
H476 C466 0.932 . S
H477 C467 0.930 . S
H478 C468 0.932 . S
H479 C469 0.929 . S
Tb480 C489 2.764 . S
Tb480 O490 2.325 . S
Tb480 O493 2.303 . S
Tb480 O497 2.322 . S
Tb480 O498 2.349 . S
Tb480 O501 2.415 . S
Tb480 O502 2.399 . S
Tb481 O491 2.322 . S
Tb481 O492 2.349 . S
Tb481 O494 2.415 . S
Tb481 O495 2.399 . S
Tb481 O496 2.325 . S
Tb481 O499 2.303 . S
Tb481 C510 2.764 . S
C482 O498 1.261 . S
C482 O499 1.257 . S
C483 C486 1.358 . S
C483 C487 1.332 . S
C483 C489 1.504 . S
C484 C485 1.373 . S
C484 C488 1.308 . S
C485 C484 1.373 . S
C485 C486 1.429 . S
C485 H512 0.932 . S
C486 C483 1.358 . S
C486 C485 1.429 . S
C486 H513 0.930 . S
C487 C483 1.332 . S
C487 C488 1.394 . S
C487 H514 0.932 . S
C488 C484 1.308 . S
C488 C487 1.394 . S
C488 H515 0.929 . S
C489 Tb480 2.764 . S
C489 C483 1.504 . S
C489 O501 1.239 . S
C489 O502 1.263 . S
O490 Tb480 2.325 . S
O490 C500 1.236 . S
O491 Tb481 2.322 . S
O491 C500 1.257 . S
O492 Tb481 2.349 . S
O492 C503 1.261 . S
O493 Tb480 2.303 . S
O493 C503 1.257 . S
O494 Tb481 2.415 . S
O494 C510 1.239 . S
O495 Tb481 2.399 . S
O495 C510 1.263 . S
O496 Tb481 2.325 . S
O496 C511 1.236 . S
O497 Tb480 2.322 . S
O497 C511 1.257 . S
O498 Tb480 2.349 . S
O498 C482 1.261 . S
O499 Tb481 2.303 . S
O499 C482 1.257 . S
C500 O490 1.236 . S
C500 O491 1.257 . S
O501 Tb480 2.415 . S
O501 C489 1.239 . S
O502 Tb480 2.399 . S
O502 C489 1.263 . S
C503 O492 1.261 . S
C503 O493 1.257 . S
C504 C507 1.358 . S
C504 C508 1.332 . S
C504 C510 1.504 . S
C505 C506 1.373 . S
C505 C509 1.308 . S
C506 C505 1.373 . S
C506 C507 1.429 . S
C506 H516 0.932 . S
C507 C504 1.358 . S
C507 C506 1.429 . S
C507 H517 0.930 . S
C508 C504 1.332 . S
C508 C509 1.394 . S
C508 H518 0.932 . S
C509 C505 1.308 . S
C509 C508 1.394 . S
C509 H519 0.929 . S
C510 Tb481 2.764 . S
C510 O494 1.239 . S
C510 O495 1.263 . S
C510 C504 1.504 . S
C511 O496 1.236 . S
C511 O497 1.257 . S
H512 C485 0.932 . S
H513 C486 0.930 . S
H514 C487 0.932 . S
H515 C488 0.929 . S
H516 C506 0.932 . S
H517 C507 0.930 . S
H518 C508 0.932 . S
H519 C509 0.929 . S
Tb520 C529 2.764 1_545 S
Tb520 O530 2.325 1_545 S
Tb520 O533 2.303 1_545 S
Tb520 O537 2.322 . S
Tb520 O538 2.349 . S
Tb520 O541 2.415 1_545 S
Tb520 O542 2.399 1_545 S
Tb521 O531 2.322 . S
Tb521 O532 2.349 . S
Tb521 O534 2.415 . S
Tb521 O535 2.399 . S
Tb521 O536 2.325 1_565 S
Tb521 O539 2.303 . S
Tb521 C550 2.764 . S
C522 O538 1.261 . S
C522 O539 1.257 1_545 S
C523 C526 1.358 1_655 S
C523 C527 1.332 . S
C523 C529 1.504 . S
C524 C525 1.373 . S
C524 C528 1.308 1_455 S
C525 C524 1.373 . S
C525 C526 1.429 . S
C525 H552 0.932 . S
C526 C523 1.358 1_455 S
C526 C525 1.429 . S
C526 H553 0.930 . S
C527 C523 1.332 . S
C527 C528 1.394 . S
C527 H554 0.932 . S
C528 C524 1.308 1_655 S
C528 C527 1.394 . S
C528 H555 0.929 . S
C529 Tb520 2.764 1_565 S
C529 C523 1.504 . S
C529 O541 1.239 . S
C529 O542 1.263 . S
O530 Tb520 2.325 1_565 S
O530 C540 1.236 . S
O531 Tb521 2.322 . S
O531 C540 1.257 . S
O532 Tb521 2.349 . S
O532 C543 1.261 . S
O533 Tb520 2.303 1_565 S
O533 C543 1.257 . S
O534 Tb521 2.415 . S
O534 C550 1.239 . S
O535 Tb521 2.399 . S
O535 C550 1.263 . S
O536 Tb521 2.325 1_545 S
O536 C551 1.236 . S
O537 Tb520 2.322 . S
O537 C551 1.257 . S
O538 Tb520 2.349 . S
O538 C522 1.261 . S
O539 Tb521 2.303 . S
O539 C522 1.257 1_565 S
C540 O530 1.236 . S
C540 O531 1.257 . S
O541 Tb520 2.415 1_565 S
O541 C529 1.239 . S
O542 Tb520 2.399 1_565 S
O542 C529 1.263 . S
C543 O532 1.261 . S
C543 O533 1.257 . S
C544 C547 1.364 . S
C544 C548 1.321 1_565 S
C544 C550 1.509 . S
C545 C546 1.373 1_545 S
C545 C549 1.308 . S
C546 C545 1.373 1_565 S
C546 C547 1.429 . S
C546 H556 0.932 . S
C547 C544 1.364 . S
C547 C546 1.429 . S
C547 H557 0.930 . S
C548 C544 1.321 1_545 S
C548 C549 1.394 . S
C548 H558 0.932 . S
C549 C545 1.308 . S
C549 C548 1.394 . S
C549 H559 0.929 . S
C550 Tb521 2.764 . S
C550 O534 1.239 . S
C550 O535 1.263 . S
C550 C544 1.509 . S
C551 O536 1.236 . S
C551 O537 1.257 . S
H552 C525 0.932 . S
H553 C526 0.930 . S
H554 C527 0.932 . S
H555 C528 0.929 . S
H556 C546 0.932 . S
H557 C547 0.930 . S
H558 C548 0.932 . S
H559 C549 0.929 . S
Tb560 C569 2.764 . S
Tb560 O570 2.325 . S
Tb560 O573 2.303 . S
Tb560 O577 2.322 . S
Tb560 O578 2.349 . S
Tb560 O581 2.415 . S
Tb560 O582 2.399 . S
Tb561 O571 2.322 . S
Tb561 O572 2.349 . S
Tb561 O574 2.415 . S
Tb561 O575 2.399 . S
Tb561 O576 2.325 . S
Tb561 O579 2.303 . S
Tb561 C590 2.764 . S
C562 O578 1.261 . S
C562 O579 1.257 . S
C563 C566 1.358 . S
C563 C567 1.332 . S
C563 C569 1.504 . S
C564 C565 1.373 . S
C564 C568 1.308 . S
C565 C564 1.373 . S
C565 C566 1.429 . S
C565 H592 0.932 . S
C566 C563 1.358 . S
C566 C565 1.429 . S
C566 H593 0.930 . S
C567 C563 1.332 . S
C567 C568 1.394 . S
C567 H594 0.932 . S
C568 C564 1.308 . S
C568 C567 1.394 . S
C568 H595 0.929 . S
C569 Tb560 2.764 . S
C569 C563 1.504 . S
C569 O581 1.239 . S
C569 O582 1.263 . S
O570 Tb560 2.325 . S
O570 C580 1.236 . S
O571 Tb561 2.322 . S
O571 C580 1.257 . S
O572 Tb561 2.349 . S
O572 C583 1.261 . S
O573 Tb560 2.303 . S
O573 C583 1.257 . S
O574 Tb561 2.415 . S
O574 C590 1.239 . S
O575 Tb561 2.399 . S
O575 C590 1.263 . S
O576 Tb561 2.325 . S
O576 C591 1.236 . S
O577 Tb560 2.322 . S
O577 C591 1.257 . S
O578 Tb560 2.349 . S
O578 C562 1.261 . S
O579 Tb561 2.303 . S
O579 C562 1.257 . S
C580 O570 1.236 . S
C580 O571 1.257 . S
O581 Tb560 2.415 . S
O581 C569 1.239 . S
O582 Tb560 2.399 . S
O582 C569 1.263 . S
C583 O572 1.261 . S
C583 O573 1.257 . S
C584 C587 1.358 . S
C584 C588 1.332 . S
C584 C590 1.504 . S
C585 C586 1.373 . S
C585 C589 1.308 . S
C586 C585 1.373 . S
C586 C587 1.429 . S
C586 H596 0.932 . S
C587 C584 1.358 . S
C587 C586 1.429 . S
C587 H597 0.930 . S
C588 C584 1.332 . S
C588 C589 1.394 . S
C588 H598 0.932 . S
C589 C585 1.308 . S
C589 C588 1.394 . S
C589 H599 0.929 . S
C590 Tb561 2.764 . S
C590 O574 1.239 . S
C590 O575 1.263 . S
C590 C584 1.504 . S
C591 O576 1.236 . S
C591 O577 1.257 . S
H592 C565 0.932 . S
H593 C566 0.930 . S
H594 C567 0.932 . S
H595 C568 0.929 . S
H596 C586 0.932 . S
H597 C587 0.930 . S
H598 C588 0.932 . S
H599 C589 0.929 . S
Tb600 C609 2.764 1_565 S
Tb600 O610 2.325 1_565 S
Tb600 O613 2.303 1_565 S
Tb600 O617 2.322 . S
Tb600 O618 2.349 . S
Tb600 O621 2.415 1_565 S
Tb600 O622 2.399 1_565 S
Tb601 O611 2.322 . S
Tb601 O612 2.349 . S
Tb601 O614 2.415 . S
Tb601 O615 2.399 . S
Tb601 O616 2.325 1_545 S
Tb601 O619 2.303 . S
Tb601 C630 2.764 . S
C602 O618 1.261 . S
C602 O619 1.257 1_565 S
C603 C606 1.358 . S
C603 C607 1.332 . S
C603 C609 1.504 . S
C604 C605 1.373 . S
C604 C608 1.308 . S
C605 C604 1.373 . S
C605 C606 1.429 . S
C605 H632 0.932 . S
C606 C603 1.358 . S
C606 C605 1.429 . S
C606 H633 0.930 . S
C607 C603 1.332 . S
C607 C608 1.394 . S
C607 H634 0.932 . S
C608 C604 1.308 . S
C608 C607 1.394 . S
C608 H635 0.929 . S
C609 Tb600 2.764 1_545 S
C609 C603 1.504 . S
C609 O621 1.239 . S
C609 O622 1.263 . S
O610 Tb600 2.325 1_545 S
O610 C620 1.236 . S
O611 Tb601 2.322 . S
O611 C620 1.257 . S
O612 Tb601 2.349 . S
O612 C623 1.261 . S
O613 Tb600 2.303 1_545 S
O613 C623 1.257 . S
O614 Tb601 2.415 . S
O614 C630 1.239 . S
O615 Tb601 2.399 . S
O615 C630 1.263 . S
O616 Tb601 2.325 1_565 S
O616 C631 1.236 . S
O617 Tb600 2.322 . S
O617 C631 1.257 . S
O618 Tb600 2.349 . S
O618 C602 1.261 . S
O619 Tb601 2.303 . S
O619 C602 1.257 1_545 S
C620 O610 1.236 . S
C620 O611 1.257 . S
O621 Tb600 2.415 1_545 S
O621 C609 1.239 . S
O622 Tb600 2.399 1_545 S
O622 C609 1.263 . S
C623 O612 1.261 . S
C623 O613 1.257 . S
C624 C627 1.364 . S
C624 C628 1.320 1_545 S
C624 C630 1.509 . S
C625 C626 1.373 1_565 S
C625 C629 1.308 . S
C626 C625 1.373 1_545 S
C626 C627 1.429 . S
C626 H636 0.932 . S
C627 C624 1.364 . S
C627 C626 1.429 . S
C627 H637 0.930 . S
C628 C624 1.320 1_565 S
C628 C629 1.394 . S
C628 H638 0.932 . S
C629 C625 1.308 . S
C629 C628 1.394 . S
C629 H639 0.929 . S
C630 Tb601 2.764 . S
C630 O614 1.239 . S
C630 O615 1.263 . S
C630 C624 1.509 . S
C631 O616 1.236 . S
C631 O617 1.257 . S
H632 C605 0.932 . S
H633 C606 0.930 . S
H634 C607 0.932 . S
H635 C608 0.929 . S
H636 C626 0.932 . S
H637 C627 0.930 . S
H638 C628 0.932 . S
H639 C629 0.929 . S
C640 C641 1.363 . S
C640 C646 1.379 . S
C640 N648 1.356 . S
C641 C640 1.363 . S
C641 C647 1.363 . S
C642 C643 1.363 . S
C642 C647 1.379 . S
C642 N649 1.356 . S
C643 C642 1.363 . S
C643 C646 1.363 . S
N644 C646 1.356 . S
N644 H656 0.984 . S
N644 H657 0.985 . S
N645 C647 1.356 . S
N645 H650 0.984 . S
N645 H651 0.985 . S
C646 C640 1.379 . S
C646 C643 1.363 . S
C646 N644 1.356 . S
C647 C641 1.363 . S
C647 C642 1.379 . S
C647 N645 1.356 . S
N648 C640 1.356 . S
N648 H654 0.984 . S
N648 H655 0.984 . S
N649 C642 1.356 . S
N649 H652 0.984 . S
N649 H653 0.985 . S
H650 N645 0.984 . S
H651 N645 0.985 . S
H652 N649 0.984 . S
H653 N649 0.985 . S
H654 N648 0.984 . S
H655 N648 0.984 . S
H656 N644 0.984 . S
H657 N644 0.985 . S
C658 C659 1.363 . S
C658 C664 1.379 . S
C658 N666 1.356 . S
C659 C658 1.363 . S
C659 C665 1.363 . S
C660 C661 1.363 . S
C660 C665 1.379 . S
C660 N667 1.356 . S
C661 C660 1.363 . S
C661 C664 1.363 . S
N662 C664 1.356 . S
N662 H674 0.984 . S
N662 H675 0.985 . S
N663 C665 1.356 . S
N663 H668 0.984 . S
N663 H669 0.985 . S
C664 C658 1.379 . S
C664 C661 1.363 . S
C664 N662 1.356 . S
C665 C659 1.363 . S
C665 C660 1.379 . S
C665 N663 1.356 . S
N666 C658 1.356 . S
N666 H672 0.984 . S
N666 H673 0.984 . S
N667 C660 1.356 . S
N667 H670 0.984 . S
N667 H671 0.985 . S
H668 N663 0.984 . S
H669 N663 0.985 . S
H670 N667 0.984 . S
H671 N667 0.985 . S
H672 N666 0.984 . S
H673 N666 0.984 . S
H674 N662 0.984 . S
H675 N662 0.985 . S
C676 C677 1.363 . S
C676 C682 1.379 . S
C676 N684 1.356 . S
C677 C676 1.363 . S
C677 C683 1.363 . S
C678 C679 1.363 . S
C678 C683 1.379 . S
C678 N685 1.356 . S
C679 C678 1.363 . S
C679 C682 1.363 . S
N680 C682 1.356 . S
N680 H692 0.984 . S
N680 H693 0.985 . S
N681 C683 1.356 . S
N681 H686 0.984 . S
N681 H687 0.985 . S
C682 C676 1.379 . S
C682 C679 1.363 . S
C682 N680 1.356 . S
C683 C677 1.363 . S
C683 C678 1.379 . S
C683 N681 1.356 . S
N684 C676 1.356 . S
N684 H690 0.984 . S
N684 H691 0.984 . S
N685 C678 1.356 . S
N685 H688 0.984 . S
N685 H689 0.985 . S
H686 N681 0.984 . S
H687 N681 0.985 . S
H688 N685 0.984 . S
H689 N685 0.985 . S
H690 N684 0.984 . S
H691 N684 0.984 . S
H692 N680 0.984 . S
H693 N680 0.985 . S
C694 C695 1.363 1_655 S
C694 C700 1.379 . S
C694 N702 1.356 . S
C695 C694 1.363 1_455 S
C695 C701 1.363 1_554 S
C696 C697 1.363 1_455 S
C696 C701 1.379 . S
C696 N703 1.356 . S
C697 C696 1.363 1_655 S
C697 C700 1.363 1_556 S
N698 C700 1.356 . S
N698 H710 0.984 . S
N698 H711 0.985 . S
N699 C701 1.356 . S
N699 H704 0.984 . S
N699 H705 0.985 . S
C700 C694 1.379 . S
C700 C697 1.363 1_554 S
C700 N698 1.356 . S
C701 C695 1.363 1_556 S
C701 C696 1.379 . S
C701 N699 1.356 . S
N702 C694 1.356 . S
N702 H708 0.984 . S
N702 H709 0.984 1_655 S
N703 C696 1.356 . S
N703 H706 0.984 1_455 S
N703 H707 0.985 . S
H704 N699 0.984 . S
H705 N699 0.985 . S
H706 N703 0.984 1_655 S
H707 N703 0.985 . S
H708 N702 0.984 . S
H709 N702 0.984 1_455 S
H710 N698 0.984 . S
H711 N698 0.985 . S
C712 C713 1.363 . S
C712 C718 1.379 . S
C712 N720 1.356 . S
C713 C712 1.363 . S
C713 C719 1.363 . S
C714 C715 1.363 . S
C714 C719 1.379 . S
C714 N721 1.356 . S
C715 C714 1.363 . S
C715 C718 1.363 . S
N716 C718 1.356 . S
N716 H728 0.984 . S
N716 H729 0.985 . S
N717 C719 1.356 . S
N717 H722 0.984 . S
N717 H723 0.985 . S
C718 C712 1.379 . S
C718 C715 1.363 . S
C718 N716 1.356 . S
C719 C713 1.363 . S
C719 C714 1.379 . S
C719 N717 1.356 . S
N720 C712 1.356 . S
N720 H726 0.984 . S
N720 H727 0.984 . S
N721 C714 1.356 . S
N721 H724 0.984 . S
N721 H725 0.985 . S
H722 N717 0.984 . S
H723 N717 0.985 . S
H724 N721 0.984 . S
H725 N721 0.985 . S
H726 N720 0.984 . S
H727 N720 0.984 . S
H728 N716 0.984 . S
H729 N716 0.985 . S
C730 C731 1.363 . S
C730 C736 1.379 . S
C730 N738 1.356 . S
C731 C730 1.363 . S
C731 C737 1.363 . S
C732 C733 1.363 . S
C732 C737 1.379 . S
C732 N739 1.356 . S
C733 C732 1.363 . S
C733 C736 1.363 . S
N734 C736 1.356 . S
N734 H746 0.984 . S
N734 H747 0.985 . S
N735 C737 1.356 . S
N735 H740 0.984 . S
N735 H741 0.985 . S
C736 C730 1.379 . S
C736 C733 1.363 . S
C736 N734 1.356 . S
C737 C731 1.363 . S
C737 C732 1.379 . S
C737 N735 1.356 . S
N738 C730 1.356 . S
N738 H744 0.984 . S
N738 H745 0.984 . S
N739 C732 1.356 . S
N739 H742 0.984 . S
N739 H743 0.985 . S
H740 N735 0.984 . S
H741 N735 0.985 . S
H742 N739 0.984 . S
H743 N739 0.985 . S
H744 N738 0.984 . S
H745 N738 0.984 . S
H746 N734 0.984 . S
H747 N734 0.985 . S
C748 C749 1.363 1_654 S
C748 C754 1.379 1_565 S
C748 N756 1.356 . S
C749 C748 1.363 1_456 S
C749 C755 1.363 . S
C750 C751 1.363 1_456 S
C750 C755 1.379 1_545 S
C750 N757 1.356 . S
C751 C750 1.363 1_654 S
C751 C754 1.363 . S
N752 C754 1.356 . S
N752 H764 0.984 . S
N752 H765 0.985 . S
N753 C755 1.356 . S
N753 H758 0.984 . S
N753 H759 0.985 . S
C754 C748 1.379 1_545 S
C754 C751 1.363 . S
C754 N752 1.356 . S
C755 C749 1.363 . S
C755 C750 1.379 1_565 S
C755 N753 1.356 . S
N756 C748 1.356 . S
N756 H762 0.984 . S
N756 H763 0.984 1_655 S
N757 C750 1.356 . S
N757 H760 0.984 1_455 S
N757 H761 0.985 . S
H758 N753 0.984 . S
H759 N753 0.985 . S
H760 N757 0.984 1_655 S
H761 N757 0.985 . S
H762 N756 0.984 . S
H763 N756 0.984 1_455 S
H764 N752 0.984 . S
H765 N752 0.985 . S
C766 C767 1.363 . S
C766 C772 1.379 1_565 S
C766 N774 1.356 . S
C767 C766 1.363 . S
C767 C773 1.363 . S
C768 C769 1.363 . S
C768 C773 1.379 1_545 S
C768 N775 1.356 . S
C769 C768 1.363 . S
C769 C772 1.363 . S
N770 C772 1.356 . S
N770 H782 0.984 . S
N770 H783 0.985 . S
N771 C773 1.356 . S
N771 H776 0.984 . S
N771 H777 0.985 . S
C772 C766 1.379 1_545 S
C772 C769 1.363 . S
C772 N770 1.356 . S
C773 C767 1.363 . S
C773 C768 1.379 1_565 S
C773 N771 1.356 . S
N774 C766 1.356 . S
N774 H780 0.984 . S
N774 H781 0.984 . S
N775 C768 1.356 . S
N775 H778 0.984 . S
N775 H779 0.985 . S
H776 N771 0.984 . S
H777 N771 0.985 . S
H778 N775 0.984 . S
H779 N775 0.985 . S
H780 N774 0.984 . S
H781 N774 0.984 . S
H782 N770 0.984 . S
H783 N770 0.985 . S
C784 C785 1.363 . S
C784 C790 1.379 . S
C784 N792 1.356 . S
C785 C784 1.363 . S
C785 C791 1.359 1_545 S
C786 C787 1.363 1_565 S
C786 C791 1.380 . S
C786 N793 1.356 . S
C787 C786 1.363 1_545 S
C787 C790 1.363 . S
N788 C790 1.356 . S
N788 H800 0.984 . S
N788 H801 0.985 . S
N789 C791 1.358 . S
N789 H794 0.984 1_565 S
N789 H795 0.985 . S
C790 C784 1.379 . S
C790 C787 1.363 . S
C790 N788 1.356 . S
C791 C785 1.359 1_565 S
C791 C786 1.380 . S
C791 N789 1.358 . S
N792 C784 1.356 . S
N792 H798 0.984 . S
N792 H799 0.984 . S
N793 C786 1.356 . S
N793 H796 0.984 . S
N793 H797 0.985 . S
H794 N789 0.984 1_545 S
H795 N789 0.985 . S
H796 N793 0.984 . S
H797 N793 0.985 . S
H798 N792 0.984 . S
H799 N792 0.984 . S
H800 N788 0.984 . S
H801 N788 0.985 . S
C802 C803 1.363 . S
C802 C808 1.379 . S
C802 N810 1.356 . S
C803 C802 1.363 . S
C803 C809 1.363 . S
C804 C805 1.363 . S
C804 C809 1.379 . S
C804 N811 1.356 . S
C805 C804 1.363 . S
C805 C808 1.363 . S
N806 C808 1.356 . S
N806 H818 0.984 . S
N806 H819 0.985 . S
N807 C809 1.356 . S
N807 H812 0.984 . S
N807 H813 0.985 . S
C808 C802 1.379 . S
C808 C805 1.363 . S
C808 N806 1.356 . S
C809 C803 1.363 . S
C809 C804 1.379 . S
C809 N807 1.356 . S
N810 C802 1.356 . S
N810 H816 0.984 . S
N810 H817 0.984 . S
N811 C804 1.356 . S
N811 H814 0.984 . S
N811 H815 0.985 . S
H812 N807 0.984 . S
H813 N807 0.985 . S
H814 N811 0.984 . S
H815 N811 0.985 . S
H816 N810 0.984 . S
H817 N810 0.984 . S
H818 N806 0.984 . S
H819 N806 0.985 . S
C820 C821 1.363 1_545 S
C820 C826 1.379 1_545 S
C820 N828 1.356 . S
C821 C820 1.363 1_565 S
C821 C827 1.363 . S
C822 C823 1.363 . S
C822 C827 1.379 . S
C822 N829 1.356 . S
C823 C822 1.363 . S
C823 C826 1.363 . S
N824 C826 1.356 1_545 S
N824 H836 0.984 . S
N824 H837 0.985 1_545 S
N825 C827 1.356 . S
N825 H830 0.984 . S
N825 H831 0.985 . S
C826 C820 1.379 1_565 S
C826 C823 1.363 . S
C826 N824 1.356 1_565 S
C827 C821 1.363 . S
C827 C822 1.379 . S
C827 N825 1.356 . S
N828 C820 1.356 . S
N828 H834 0.984 . S
N828 H835 0.984 . S
N829 C822 1.356 . S
N829 H832 0.984 . S
N829 H833 0.985 . S
H830 N825 0.984 . S
H831 N825 0.985 . S
H832 N829 0.984 . S
H833 N829 0.985 . S
H834 N828 0.984 . S
H835 N828 0.984 . S
H836 N824 0.984 . S
H837 N824 0.985 1_565 S
C838 C839 1.363 . S
C838 C844 1.379 . S
C838 N846 1.356 . S
C839 C838 1.363 . S
C839 C845 1.363 . S
C840 C841 1.363 . S
C840 C845 1.379 . S
C840 N847 1.356 . S
C841 C840 1.363 . S
C841 C844 1.363 . S
N842 C844 1.356 . S
N842 H854 0.984 . S
N842 H855 0.985 . S
N843 C845 1.356 . S
N843 H848 0.984 . S
N843 H849 0.985 . S
C844 C838 1.379 . S
C844 C841 1.363 . S
C844 N842 1.356 . S
C845 C839 1.363 . S
C845 C840 1.379 . S
C845 N843 1.356 . S
N846 C838 1.356 . S
N846 H852 0.984 . S
N846 H853 0.984 . S
N847 C840 1.356 . S
N847 H850 0.984 . S
N847 H851 0.985 . S
H848 N843 0.984 . S
H849 N843 0.985 . S
H850 N847 0.984 . S
H851 N847 0.985 . S
H852 N846 0.984 . S
H853 N846 0.984 . S
H854 N842 0.984 . S
H855 N842 0.985 . S
C856 C857 1.363 . S
C856 C862 1.379 . S
C856 N864 1.356 . S
C857 C856 1.363 . S
C857 C863 1.363 . S
C858 C859 1.363 1_545 S
C858 C863 1.379 1_545 S
C858 N865 1.356 . S
C859 C858 1.363 1_565 S
C859 C862 1.363 . S
N860 C862 1.356 . S
N860 H872 0.984 . S
N860 H873 0.985 . S
N861 C863 1.356 1_545 S
N861 H866 0.984 1_545 S
N861 H867 0.985 . S
C862 C856 1.379 . S
C862 C859 1.363 . S
C862 N860 1.356 . S
C863 C857 1.363 . S
C863 C858 1.379 1_565 S
C863 N861 1.356 1_565 S
N864 C856 1.356 . S
N864 H870 0.984 . S
N864 H871 0.984 . S
N865 C858 1.356 . S
N865 H868 0.984 . S
N865 H869 0.985 . S
H866 N861 0.984 1_565 S
H867 N861 0.985 . S
H868 N865 0.984 . S
H869 N865 0.985 . S
H870 N864 0.984 . S
H871 N864 0.984 . S
H872 N860 0.984 . S
H873 N860 0.985 . S
C874 C875 1.363 . S
C874 C880 1.379 . S
C874 N882 1.356 . S
C875 C874 1.363 . S
C875 C881 1.363 . S
C876 C877 1.363 . S
C876 C881 1.379 . S
C876 N883 1.356 . S
C877 C876 1.363 . S
C877 C880 1.363 . S
N878 C880 1.356 . S
N878 H890 0.984 . S
N878 H891 0.985 . S
N879 C881 1.356 . S
N879 H884 0.984 . S
N879 H885 0.985 . S
C880 C874 1.379 . S
C880 C877 1.363 . S
C880 N878 1.356 . S
C881 C875 1.363 . S
C881 C876 1.379 . S
C881 N879 1.356 . S
N882 C874 1.356 . S
N882 H888 0.984 . S
N882 H889 0.984 . S
N883 C876 1.356 . S
N883 H886 0.984 . S
N883 H887 0.985 . S
H884 N879 0.984 . S
H885 N879 0.985 . S
H886 N883 0.984 . S
H887 N883 0.985 . S
H888 N882 0.984 . S
H889 N882 0.984 . S
H890 N878 0.984 . S
H891 N878 0.985 . S
C892 C893 1.363 1_565 S
C892 C898 1.379 1_565 S
C892 N900 1.356 . S
C893 C892 1.363 1_545 S
C893 C899 1.363 . S
C894 C895 1.363 . S
C894 C899 1.379 . S
C894 N901 1.356 . S
C895 C894 1.363 . S
C895 C898 1.363 . S
N896 C898 1.356 1_565 S
N896 H908 0.984 . S
N896 H909 0.985 1_565 S
N897 C899 1.356 . S
N897 H902 0.984 . S
N897 H903 0.985 . S
C898 C892 1.379 1_545 S
C898 C895 1.363 . S
C898 N896 1.356 1_545 S
C899 C893 1.363 . S
C899 C894 1.379 . S
C899 N897 1.356 . S
N900 C892 1.356 . S
N900 H906 0.984 . S
N900 H907 0.984 . S
N901 C894 1.356 . S
N901 H904 0.984 . S
N901 H905 0.985 . S
H902 N897 0.984 . S
H903 N897 0.985 . S
H904 N901 0.984 . S
H905 N901 0.985 . S
H906 N900 0.984 . S
H907 N900 0.984 . S
H908 N896 0.984 . S
H909 N896 0.985 1_545 S
C910 C911 1.363 . S
C910 C916 1.379 . S
C910 N918 1.356 . S
C911 C910 1.363 . S
C911 C917 1.363 . S
C912 C913 1.363 . S
C912 C917 1.379 . S
C912 N919 1.356 . S
C913 C912 1.363 . S
C913 C916 1.363 . S
N914 C916 1.356 . S
N914 H926 0.984 . S
N914 H927 0.985 . S
N915 C917 1.356 . S
N915 H920 0.984 . S
N915 H921 0.985 . S
C916 C910 1.379 . S
C916 C913 1.363 . S
C916 N914 1.356 . S
C917 C911 1.363 . S
C917 C912 1.379 . S
C917 N915 1.356 . S
N918 C910 1.356 . S
N918 H924 0.984 . S
N918 H925 0.984 . S
N919 C912 1.356 . S
N919 H922 0.984 . S
N919 H923 0.985 . S
H920 N915 0.984 . S
H921 N915 0.985 . S
H922 N919 0.984 . S
H923 N919 0.985 . S
H924 N918 0.984 . S
H925 N918 0.984 . S
H926 N914 0.984 . S
H927 N914 0.985 . S
C928 C929 1.363 . S
C928 C934 1.379 . S
C928 N936 1.356 . S
C929 C928 1.363 . S
C929 C935 1.363 . S
C930 C931 1.363 . S
C930 C935 1.379 . S
C930 N937 1.356 . S
C931 C930 1.363 . S
C931 C934 1.363 . S
N932 C934 1.356 . S
N932 H944 0.984 . S
N932 H945 0.985 . S
N933 C935 1.356 . S
N933 H938 0.984 . S
N933 H939 0.985 . S
C934 C928 1.379 . S
C934 C931 1.363 . S
C934 N932 1.356 . S
C935 C929 1.363 . S
C935 C930 1.379 . S
C935 N933 1.356 . S
N936 C928 1.356 . S
N936 H942 0.984 . S
N936 H943 0.984 . S
N937 C930 1.356 . S
N937 H940 0.984 . S
N937 H941 0.985 . S
H938 N933 0.984 . S
H939 N933 0.985 . S
H940 N937 0.984 . S
H941 N937 0.985 . S
H942 N936 0.984 . S
H943 N936 0.984 . S
H944 N932 0.984 . S
H945 N932 0.985 . S
C946 C947 1.363 . S
C946 C952 1.379 . S
C946 N954 1.356 . S
C947 C946 1.363 . S
C947 C953 1.363 . S
C948 C949 1.363 . S
C948 C953 1.379 . S
C948 N955 1.356 1_565 S
C949 C948 1.363 . S
C949 C952 1.363 . S
N950 C952 1.356 . S
N950 H962 0.984 . S
N950 H963 0.985 . S
N951 C953 1.356 1_545 S
N951 H956 0.984 . S
N951 H957 0.985 . S
C952 C946 1.379 . S
C952 C949 1.363 . S
C952 N950 1.356 . S
C953 C947 1.363 . S
C953 C948 1.379 . S
C953 N951 1.356 1_565 S
N954 C946 1.356 . S
N954 H960 0.984 . S
N954 H961 0.984 . S
N955 C948 1.356 1_545 S
N955 H958 0.984 . S
N955 H959 0.985 . S
H956 N951 0.984 . S
H957 N951 0.985 . S
H958 N955 0.984 . S
H959 N955 0.985 . S
H960 N954 0.984 . S
H961 N954 0.984 . S
H962 N950 0.984 . S
H963 N950 0.985 . S
C964 C965 1.363 . S
C964 C970 1.379 . S
C964 N972 1.356 . S
C965 C964 1.363 . S
C965 C971 1.363 . S
C966 C967 1.363 . S
C966 C971 1.379 . S
C966 N973 1.356 . S
C967 C966 1.363 . S
C967 C970 1.363 . S
N968 C970 1.356 . S
N968 H980 0.984 . S
N968 H981 0.985 . S
N969 C971 1.356 . S
N969 H974 0.984 . S
N969 H975 0.985 . S
C970 C964 1.379 . S
C970 C967 1.363 . S
C970 N968 1.356 . S
C971 C965 1.363 . S
C971 C966 1.379 . S
C971 N969 1.356 . S
N972 C964 1.356 . S
N972 H978 0.984 . S
N972 H979 0.984 . S
N973 C966 1.356 . S
N973 H976 0.984 . S
N973 H977 0.985 . S
H974 N969 0.984 . S
H975 N969 0.985 . S
H976 N973 0.984 . S
H977 N973 0.985 . S
H978 N972 0.984 . S
H979 N972 0.984 . S
H980 N968 0.984 . S
H981 N968 0.985 . S
C982 C983 1.363 . S
C982 C988 1.379 . S
C982 N990 1.356 1_545 S
C983 C982 1.363 . S
C983 C989 1.363 . S
C984 C985 1.363 . S
C984 C989 1.379 . S
C984 N991 1.356 . S
C985 C984 1.363 . S
C985 C988 1.363 . S
N986 C988 1.356 1_565 S
N986 H998 0.984 . S
N986 H999 0.985 . S
N987 C989 1.356 . S
N987 H992 0.984 . S
N987 H993 0.985 . S
C988 C982 1.379 . S
C988 C985 1.363 . S
C988 N986 1.356 1_545 S
C989 C983 1.363 . S
C989 C984 1.379 . S
C989 N987 1.356 . S
N990 C982 1.356 1_565 S
N990 H996 0.984 . S
N990 H997 0.984 . S
N991 C984 1.356 . S
N991 H994 0.984 . S
N991 H995 0.985 . S
H992 N987 0.984 . S
H993 N987 0.985 . S
H994 N991 0.984 . S
H995 N991 0.985 . S
H996 N990 0.984 . S
H997 N990 0.984 . S
H998 N986 0.984 . S
H999 N986 0.985 . S
C1000 C1001 1.363 . S
C1000 C1006 1.379 . S
C1000 N1008 1.356 . S
C1001 C1000 1.363 . S
C1001 C1007 1.363 . S
C1002 C1003 1.363 . S
C1002 C1007 1.379 . S
C1002 N1009 1.356 . S
C1003 C1002 1.363 . S
C1003 C1006 1.363 . S
N1004 C1006 1.356 . S
N1004 H1016 0.984 . S
N1004 H1017 0.985 . S
N1005 C1007 1.356 . S
N1005 H1010 0.984 . S
N1005 H1011 0.985 . S
C1006 C1000 1.379 . S
C1006 C1003 1.363 . S
C1006 N1004 1.356 . S
C1007 C1001 1.363 . S
C1007 C1002 1.379 . S
C1007 N1005 1.356 . S
N1008 C1000 1.356 . S
N1008 H1014 0.984 . S
N1008 H1015 0.984 . S
N1009 C1002 1.356 . S
N1009 H1012 0.984 . S
N1009 H1013 0.985 . S
H1010 N1005 0.984 . S
H1011 N1005 0.985 . S
H1012 N1009 0.984 . S
H1013 N1009 0.985 . S
H1014 N1008 0.984 . S
H1015 N1008 0.984 . S
H1016 N1004 0.984 . S
H1017 N1004 0.985 . S
C1018 C1019 1.363 . S
C1018 C1024 1.379 . S
C1018 N1026 1.356 . S
C1019 C1018 1.363 . S
C1019 C1025 1.363 . S
C1020 C1021 1.363 . S
C1020 C1025 1.379 . S
C1020 N1027 1.356 1_545 S
C1021 C1020 1.363 . S
C1021 C1024 1.363 . S
N1022 C1024 1.356 . S
N1022 H1034 0.984 . S
N1022 H1035 0.985 . S
N1023 C1025 1.356 1_565 S
N1023 H1028 0.984 . S
N1023 H1029 0.985 . S
C1024 C1018 1.379 . S
C1024 C1021 1.363 . S
C1024 N1022 1.356 . S
C1025 C1019 1.363 . S
C1025 C1020 1.379 . S
C1025 N1023 1.356 1_545 S
N1026 C1018 1.356 . S
N1026 H1032 0.984 . S
N1026 H1033 0.984 . S
N1027 C1020 1.356 1_565 S
N1027 H1030 0.984 . S
N1027 H1031 0.985 . S
H1028 N1023 0.984 . S
H1029 N1023 0.985 . S
H1030 N1027 0.984 . S
H1031 N1027 0.985 . S
H1032 N1026 0.984 . S
H1033 N1026 0.984 . S
H1034 N1022 0.984 . S
H1035 N1022 0.985 . S
C1036 C1037 1.363 . S
C1036 C1042 1.379 . S
C1036 N1044 1.356 . S
C1037 C1036 1.363 . S
C1037 C1043 1.363 . S
C1038 C1039 1.363 . S
C1038 C1043 1.379 . S
C1038 N1045 1.356 . S
C1039 C1038 1.363 . S
C1039 C1042 1.363 . S
N1040 C1042 1.356 . S
N1040 H1052 0.984 . S
N1040 H1053 0.985 . S
N1041 C1043 1.356 . S
N1041 H1046 0.984 . S
N1041 H1047 0.985 . S
C1042 C1036 1.379 . S
C1042 C1039 1.363 . S
C1042 N1040 1.356 . S
C1043 C1037 1.363 . S
C1043 C1038 1.379 . S
C1043 N1041 1.356 . S
N1044 C1036 1.356 . S
N1044 H1050 0.984 . S
N1044 H1051 0.984 . S
N1045 C1038 1.356 . S
N1045 H1048 0.984 . S
N1045 H1049 0.985 . S
H1046 N1041 0.984 . S
H1047 N1041 0.985 . S
H1048 N1045 0.984 . S
H1049 N1045 0.985 . S
H1050 N1044 0.984 . S
H1051 N1044 0.984 . S
H1052 N1040 0.984 . S
H1053 N1040 0.985 . S
C1054 C1055 1.363 . S
C1054 C1060 1.379 . S
C1054 N1062 1.356 . S
C1055 C1054 1.363 . S
C1055 C1061 1.363 . S
C1056 C1057 1.363 . S
C1056 C1061 1.379 . S
C1056 N1063 1.356 1_565 S
C1057 C1056 1.363 . S
C1057 C1060 1.363 . S
N1058 C1060 1.356 . S
N1058 H1070 0.984 . S
N1058 H1071 0.985 . S
N1059 C1061 1.356 1_545 S
N1059 H1064 0.984 . S
N1059 H1065 0.985 . S
C1060 C1054 1.379 . S
C1060 C1057 1.363 . S
C1060 N1058 1.356 . S
C1061 C1055 1.363 . S
C1061 C1056 1.379 . S
C1061 N1059 1.356 1_565 S
N1062 C1054 1.356 . S
N1062 H1068 0.984 . S
N1062 H1069 0.984 . S
N1063 C1056 1.356 1_545 S
N1063 H1066 0.984 1_545 S
N1063 H1067 0.985 . S
H1064 N1059 0.984 . S
H1065 N1059 0.985 . S
H1066 N1063 0.984 1_565 S
H1067 N1063 0.985 . S
H1068 N1062 0.984 . S
H1069 N1062 0.984 . S
H1070 N1058 0.984 . S
H1071 N1058 0.985 . S
C1072 C1073 1.363 . S
C1072 C1078 1.379 . S
C1072 N1080 1.356 . S
C1073 C1072 1.363 . S
C1073 C1079 1.363 . S
C1074 C1075 1.363 . S
C1074 C1079 1.379 . S
C1074 N1081 1.356 . S
C1075 C1074 1.363 . S
C1075 C1078 1.363 . S
N1076 C1078 1.356 . S
N1076 H1088 0.984 . S
N1076 H1089 0.985 . S
N1077 C1079 1.356 . S
N1077 H1082 0.984 . S
N1077 H1083 0.985 . S
C1078 C1072 1.379 . S
C1078 C1075 1.363 . S
C1078 N1076 1.356 . S
C1079 C1073 1.363 . S
C1079 C1074 1.379 . S
C1079 N1077 1.356 . S
N1080 C1072 1.356 . S
N1080 H1086 0.984 . S
N1080 H1087 0.984 . S
N1081 C1074 1.356 . S
N1081 H1084 0.984 . S
N1081 H1085 0.985 . S
H1082 N1077 0.984 . S
H1083 N1077 0.985 . S
H1084 N1081 0.984 . S
H1085 N1081 0.985 . S
H1086 N1080 0.984 . S
H1087 N1080 0.984 . S
H1088 N1076 0.984 . S
H1089 N1076 0.985 . S
C1090 C1091 1.363 . S
C1090 C1096 1.379 . S
C1090 N1098 1.356 . S
C1091 C1090 1.363 . S
C1091 C1097 1.363 . S
C1092 C1093 1.363 . S
C1092 C1097 1.379 . S
C1092 N1099 1.356 . S
C1093 C1092 1.363 . S
C1093 C1096 1.363 . S
N1094 C1096 1.356 . S
N1094 H1106 0.984 . S
N1094 H1107 0.985 . S
N1095 C1097 1.356 . S
N1095 H1100 0.984 . S
N1095 H1101 0.985 . S
C1096 C1090 1.379 . S
C1096 C1093 1.363 . S
C1096 N1094 1.356 . S
C1097 C1091 1.363 . S
C1097 C1092 1.379 . S
C1097 N1095 1.356 . S
N1098 C1090 1.356 . S
N1098 H1104 0.984 . S
N1098 H1105 0.984 . S
N1099 C1092 1.356 . S
N1099 H1102 0.984 . S
N1099 H1103 0.985 . S
H1100 N1095 0.984 . S
H1101 N1095 0.985 . S
H1102 N1099 0.984 . S
H1103 N1099 0.985 . S
H1104 N1098 0.984 . S
H1105 N1098 0.984 . S
H1106 N1094 0.984 . S
H1107 N1094 0.985 . S
C1108 C1109 1.363 . S
C1108 C1114 1.379 1_655 S
C1108 N1116 1.356 . S
C1109 C1108 1.363 . S
C1109 C1115 1.363 . S
C1110 C1111 1.363 . S
C1110 C1115 1.379 1_455 S
C1110 N1117 1.356 . S
C1111 C1110 1.363 . S
C1111 C1114 1.363 . S
N1112 C1114 1.356 . S
N1112 H1124 0.984 . S
N1112 H1125 0.985 . S
N1113 C1115 1.356 . S
N1113 H1118 0.984 . S
N1113 H1119 0.985 . S
C1114 C1108 1.379 1_455 S
C1114 C1111 1.363 . S
C1114 N1112 1.356 . S
C1115 C1109 1.363 . S
C1115 C1110 1.379 1_655 S
C1115 N1113 1.356 . S
N1116 C1108 1.356 . S
N1116 H1122 0.984 . S
N1116 H1123 0.984 . S
N1117 C1110 1.356 . S
N1117 H1120 0.984 . S
N1117 H1121 0.985 . S
H1118 N1113 0.984 . S
H1119 N1113 0.985 . S
H1120 N1117 0.984 . S
H1121 N1117 0.985 . S
H1122 N1116 0.984 . S
H1123 N1116 0.984 . S
H1124 N1112 0.984 . S
H1125 N1112 0.985 . S
C1126 C1127 1.363 1_455 S
C1126 C1132 1.379 . S
C1126 N1134 1.356 . S
C1127 C1126 1.363 1_655 S
C1127 C1133 1.363 . S
C1128 C1129 1.363 1_655 S
C1128 C1133 1.379 . S
C1128 N1135 1.356 . S
C1129 C1128 1.363 1_455 S
C1129 C1132 1.363 . S
N1130 C1132 1.356 . S
N1130 H1142 0.984 . S
N1130 H1143 0.985 . S
N1131 C1133 1.356 . S
N1131 H1136 0.984 . S
N1131 H1137 0.985 . S
C1132 C1126 1.379 . S
C1132 C1129 1.363 . S
C1132 N1130 1.356 . S
C1133 C1127 1.363 . S
C1133 C1128 1.379 . S
C1133 N1131 1.356 . S
N1134 C1126 1.356 . S
N1134 H1140 0.984 . S
N1134 H1141 0.984 1_455 S
N1135 C1128 1.356 . S
N1135 H1138 0.984 1_655 S
N1135 H1139 0.985 . S
H1136 N1131 0.984 . S
H1137 N1131 0.985 . S
H1138 N1135 0.984 1_455 S
H1139 N1135 0.985 . S
H1140 N1134 0.984 . S
H1141 N1134 0.984 1_655 S
H1142 N1130 0.984 . S
H1143 N1130 0.985 . S
C1144 C1145 1.363 . S
C1144 C1150 1.379 . S
C1144 N1152 1.356 . S
C1145 C1144 1.363 . S
C1145 C1151 1.363 . S
C1146 C1147 1.363 . S
C1146 C1151 1.379 . S
C1146 N1153 1.356 . S
C1147 C1146 1.363 . S
C1147 C1150 1.363 . S
N1148 C1150 1.356 . S
N1148 H1160 0.984 . S
N1148 H1161 0.985 . S
N1149 C1151 1.356 . S
N1149 H1154 0.984 . S
N1149 H1155 0.985 . S
C1150 C1144 1.379 . S
C1150 C1147 1.363 . S
C1150 N1148 1.356 . S
C1151 C1145 1.363 . S
C1151 C1146 1.379 . S
C1151 N1149 1.356 . S
N1152 C1144 1.356 . S
N1152 H1158 0.984 . S
N1152 H1159 0.984 . S
N1153 C1146 1.356 . S
N1153 H1156 0.984 . S
N1153 H1157 0.985 . S
H1154 N1149 0.984 . S
H1155 N1149 0.985 . S
H1156 N1153 0.984 . S
H1157 N1153 0.985 . S
H1158 N1152 0.984 . S
H1159 N1152 0.984 . S
H1160 N1148 0.984 . S
H1161 N1148 0.985 . S
C1162 C1163 1.363 . S
C1162 C1168 1.379 . S
C1162 N1170 1.356 . S
C1163 C1162 1.363 . S
C1163 C1169 1.363 . S
C1164 C1165 1.363 . S
C1164 C1169 1.379 . S
C1164 N1171 1.356 . S
C1165 C1164 1.363 . S
C1165 C1168 1.363 . S
N1166 C1168 1.356 . S
N1166 H1178 0.984 . S
N1166 H1179 0.985 . S
N1167 C1169 1.356 . S
N1167 H1172 0.984 . S
N1167 H1173 0.985 . S
C1168 C1162 1.379 . S
C1168 C1165 1.363 . S
C1168 N1166 1.356 . S
C1169 C1163 1.363 . S
C1169 C1164 1.379 . S
C1169 N1167 1.356 . S
N1170 C1162 1.356 . S
N1170 H1176 0.984 . S
N1170 H1177 0.984 . S
N1171 C1164 1.356 . S
N1171 H1174 0.984 . S
N1171 H1175 0.985 . S
H1172 N1167 0.984 . S
H1173 N1167 0.985 . S
H1174 N1171 0.984 . S
H1175 N1171 0.985 . S
H1176 N1170 0.984 . S
H1177 N1170 0.984 . S
H1178 N1166 0.984 . S
H1179 N1166 0.985 . S
C1180 C1181 1.363 . S
C1180 C1186 1.379 1_455 S
C1180 N1188 1.356 . S
C1181 C1180 1.363 . S
C1181 C1187 1.363 . S
C1182 C1183 1.363 . S
C1182 C1187 1.379 1_655 S
C1182 N1189 1.356 . S
C1183 C1182 1.363 . S
C1183 C1186 1.363 . S
N1184 C1186 1.356 . S
N1184 H1196 0.984 . S
N1184 H1197 0.985 . S
N1185 C1187 1.356 . S
N1185 H1190 0.984 . S
N1185 H1191 0.985 . S
C1186 C1180 1.379 1_655 S
C1186 C1183 1.363 . S
C1186 N1184 1.356 . S
C1187 C1181 1.363 . S
C1187 C1182 1.379 1_455 S
C1187 N1185 1.356 . S
N1188 C1180 1.356 . S
N1188 H1194 0.984 . S
N1188 H1195 0.984 . S
N1189 C1182 1.356 . S
N1189 H1192 0.984 . S
N1189 H1193 0.985 . S
H1190 N1185 0.984 . S
H1191 N1185 0.985 . S
H1192 N1189 0.984 . S
H1193 N1189 0.985 . S
H1194 N1188 0.984 . S
H1195 N1188 0.984 . S
H1196 N1184 0.984 . S
H1197 N1184 0.985 . S
C1198 C1199 1.363 1_655 S
C1198 C1204 1.379 . S
C1198 N1206 1.356 . S
C1199 C1198 1.363 1_455 S
C1199 C1205 1.363 . S
C1200 C1201 1.363 1_455 S
C1200 C1205 1.379 . S
C1200 N1207 1.356 . S
C1201 C1200 1.363 1_655 S
C1201 C1204 1.363 . S
N1202 C1204 1.356 . S
N1202 H1214 0.984 . S
N1202 H1215 0.985 . S
N1203 C1205 1.356 . S
N1203 H1208 0.984 . S
N1203 H1209 0.985 . S
C1204 C1198 1.379 . S
C1204 C1201 1.363 . S
C1204 N1202 1.356 . S
C1205 C1199 1.363 . S
C1205 C1200 1.379 . S
C1205 N1203 1.356 . S
N1206 C1198 1.356 . S
N1206 H1212 0.984 . S
N1206 H1213 0.984 1_655 S
N1207 C1200 1.356 . S
N1207 H1210 0.984 1_455 S
N1207 H1211 0.985 . S
H1208 N1203 0.984 . S
H1209 N1203 0.985 . S
H1210 N1207 0.984 1_655 S
H1211 N1207 0.985 . S
H1212 N1206 0.984 . S
H1213 N1206 0.984 1_455 S
H1214 N1202 0.984 . S
H1215 N1202 0.985 . S
C1216 C1217 1.363 . S
C1216 C1222 1.379 . S
C1216 N1224 1.356 . S
C1217 C1216 1.363 . S
C1217 C1223 1.363 . S
C1218 C1219 1.363 . S
C1218 C1223 1.379 . S
C1218 N1225 1.356 . S
C1219 C1218 1.363 . S
C1219 C1222 1.363 . S
N1220 C1222 1.356 . S
N1220 H1232 0.984 . S
N1220 H1233 0.985 . S
N1221 C1223 1.356 . S
N1221 H1226 0.984 . S
N1221 H1227 0.985 . S
C1222 C1216 1.379 . S
C1222 C1219 1.363 . S
C1222 N1220 1.356 . S
C1223 C1217 1.363 . S
C1223 C1218 1.379 . S
C1223 N1221 1.356 . S
N1224 C1216 1.356 . S
N1224 H1230 0.984 . S
N1224 H1231 0.984 . S
N1225 C1218 1.356 . S
N1225 H1228 0.984 . S
N1225 H1229 0.985 . S
H1226 N1221 0.984 . S
H1227 N1221 0.985 . S
H1228 N1225 0.984 . S
H1229 N1225 0.985 . S
H1230 N1224 0.984 . S
H1231 N1224 0.984 . S
H1232 N1220 0.984 . S
H1233 N1220 0.985 . S
C1234 C1235 1.363 . S
C1234 C1240 1.379 . S
C1234 N1242 1.356 . S
C1235 C1234 1.363 . S
C1235 C1241 1.363 . S
C1236 C1237 1.363 . S
C1236 C1241 1.379 . S
C1236 N1243 1.356 . S
C1237 C1236 1.363 . S
C1237 C1240 1.363 . S
N1238 C1240 1.356 . S
N1238 H1250 0.984 . S
N1238 H1251 0.985 . S
N1239 C1241 1.356 . S
N1239 H1244 0.984 . S
N1239 H1245 0.985 . S
C1240 C1234 1.379 . S
C1240 C1237 1.363 . S
C1240 N1238 1.356 . S
C1241 C1235 1.363 . S
C1241 C1236 1.379 . S
C1241 N1239 1.356 . S
N1242 C1234 1.356 . S
N1242 H1248 0.984 . S
N1242 H1249 0.984 . S
N1243 C1236 1.356 . S
N1243 H1246 0.984 . S
N1243 H1247 0.985 . S
H1244 N1239 0.984 . S
H1245 N1239 0.985 . S
H1246 N1243 0.984 . S
H1247 N1243 0.985 . S
H1248 N1242 0.984 . S
H1249 N1242 0.984 . S
H1250 N1238 0.984 . S
H1251 N1238 0.985 . S
C1252 C1253 1.363 . S
C1252 C1258 1.379 . S
C1252 N1260 1.356 . S
C1253 C1252 1.363 . S
C1253 C1259 1.363 . S
C1254 C1255 1.363 . S
C1254 C1259 1.379 . S
C1254 N1261 1.356 . S
C1255 C1254 1.363 . S
C1255 C1258 1.363 . S
N1256 C1258 1.356 . S
N1256 H1268 0.984 . S
N1256 H1269 0.985 . S
N1257 C1259 1.356 . S
N1257 H1262 0.984 . S
N1257 H1263 0.985 . S
C1258 C1252 1.379 . S
C1258 C1255 1.363 . S
C1258 N1256 1.356 . S
C1259 C1253 1.363 . S
C1259 C1254 1.379 . S
C1259 N1257 1.356 . S
N1260 C1252 1.356 . S
N1260 H1266 0.984 . S
N1260 H1267 0.984 . S
N1261 C1254 1.356 . S
N1261 H1264 0.984 . S
N1261 H1265 0.985 . S
H1262 N1257 0.984 . S
H1263 N1257 0.985 . S
H1264 N1261 0.984 . S
H1265 N1261 0.985 . S
H1266 N1260 0.984 . S
H1267 N1260 0.984 . S
H1268 N1256 0.984 . S
H1269 N1256 0.985 . S
C1270 C1271 1.363 . S
C1270 C1276 1.379 . S
C1270 N1278 1.356 1_455 S
C1271 C1270 1.363 . S
C1271 C1277 1.363 . S
C1272 C1273 1.363 . S
C1272 C1277 1.379 . S
C1272 N1279 1.356 . S
C1273 C1272 1.363 . S
C1273 C1276 1.363 . S
N1274 C1276 1.356 . S
N1274 H1286 0.984 . S
N1274 H1287 0.985 . S
N1275 C1277 1.356 . S
N1275 H1280 0.984 . S
N1275 H1281 0.985 . S
C1276 C1270 1.379 . S
C1276 C1273 1.363 . S
C1276 N1274 1.356 . S
C1277 C1271 1.363 . S
C1277 C1272 1.379 . S
C1277 N1275 1.356 . S
N1278 C1270 1.356 1_655 S
N1278 H1284 0.984 . S
N1278 H1285 0.984 . S
N1279 C1272 1.356 . S
N1279 H1282 0.984 . S
N1279 H1283 0.985 . S
H1280 N1275 0.984 . S
H1281 N1275 0.985 . S
H1282 N1279 0.984 . S
H1283 N1279 0.985 . S
H1284 N1278 0.984 . S
H1285 N1278 0.984 . S
H1286 N1274 0.984 . S
H1287 N1274 0.985 . S
C1288 C1289 1.363 . S
C1288 C1294 1.379 . S
C1288 N1296 1.356 . S
C1289 C1288 1.363 . S
C1289 C1295 1.363 . S
C1290 C1291 1.363 . S
C1290 C1295 1.379 . S
C1290 N1297 1.356 . S
C1291 C1290 1.363 . S
C1291 C1294 1.363 . S
N1292 C1294 1.356 . S
N1292 H1304 0.984 . S
N1292 H1305 0.985 . S
N1293 C1295 1.356 . S
N1293 H1298 0.984 . S
N1293 H1299 0.985 . S
C1294 C1288 1.379 . S
C1294 C1291 1.363 . S
C1294 N1292 1.356 . S
C1295 C1289 1.363 . S
C1295 C1290 1.379 . S
C1295 N1293 1.356 . S
N1296 C1288 1.356 . S
N1296 H1302 0.984 . S
N1296 H1303 0.984 . S
N1297 C1290 1.356 . S
N1297 H1300 0.984 . S
N1297 H1301 0.985 . S
H1298 N1293 0.984 . S
H1299 N1293 0.985 . S
H1300 N1297 0.984 . S
H1301 N1297 0.985 . S
H1302 N1296 0.984 . S
H1303 N1296 0.984 . S
H1304 N1292 0.984 . S
H1305 N1292 0.985 . S
C1306 C1307 1.363 . S
C1306 C1312 1.379 . S
C1306 N1314 1.356 . S
C1307 C1306 1.363 . S
C1307 C1313 1.363 . S
C1308 C1309 1.363 . S
C1308 C1313 1.379 . S
C1308 N1315 1.356 . S
C1309 C1308 1.363 . S
C1309 C1312 1.363 . S
N1310 C1312 1.356 . S
N1310 H1322 0.984 . S
N1310 H1323 0.985 . S
N1311 C1313 1.356 . S
N1311 H1316 0.984 . S
N1311 H1317 0.985 . S
C1312 C1306 1.379 . S
C1312 C1309 1.363 . S
C1312 N1310 1.356 . S
C1313 C1307 1.363 . S
C1313 C1308 1.379 . S
C1313 N1311 1.356 . S
N1314 C1306 1.356 . S
N1314 H1320 0.984 . S
N1314 H1321 0.984 . S
N1315 C1308 1.356 . S
N1315 H1318 0.984 . S
N1315 H1319 0.985 . S
H1316 N1311 0.984 . S
H1317 N1311 0.985 . S
H1318 N1315 0.984 . S
H1319 N1315 0.985 . S
H1320 N1314 0.984 . S
H1321 N1314 0.984 . S
H1322 N1310 0.984 . S
H1323 N1310 0.985 . S
C1324 C1325 1.363 . S
C1324 C1330 1.379 . S
C1324 N1332 1.356 . S
C1325 C1324 1.363 . S
C1325 C1331 1.363 . S
C1326 C1327 1.363 . S
C1326 C1331 1.379 . S
C1326 N1333 1.356 . S
C1327 C1326 1.363 . S
C1327 C1330 1.363 . S
N1328 C1330 1.356 . S
N1328 H1340 0.984 . S
N1328 H1341 0.985 . S
N1329 C1331 1.356 . S
N1329 H1334 0.984 . S
N1329 H1335 0.985 . S
C1330 C1324 1.379 . S
C1330 C1327 1.363 . S
C1330 N1328 1.356 . S
C1331 C1325 1.363 . S
C1331 C1326 1.379 . S
C1331 N1329 1.356 . S
N1332 C1324 1.356 . S
N1332 H1338 0.984 . S
N1332 H1339 0.984 . S
N1333 C1326 1.356 . S
N1333 H1336 0.984 . S
N1333 H1337 0.985 . S
H1334 N1329 0.984 . S
H1335 N1329 0.985 . S
H1336 N1333 0.984 . S
H1337 N1333 0.985 . S
H1338 N1332 0.984 . S
H1339 N1332 0.984 . S
H1340 N1328 0.984 . S
H1341 N1328 0.985 . S
C1342 C1343 1.363 . S
C1342 C1348 1.379 . S
C1342 N1350 1.356 . S
C1343 C1342 1.363 . S
C1343 C1349 1.363 . S
C1344 C1345 1.363 . S
C1344 C1349 1.379 . S
C1344 N1351 1.356 . S
C1345 C1344 1.363 . S
C1345 C1348 1.363 . S
N1346 C1348 1.356 1_455 S
N1346 H1358 0.984 . S
N1346 H1359 0.985 . S
N1347 C1349 1.356 . S
N1347 H1352 0.984 . S
N1347 H1353 0.985 . S
C1348 C1342 1.379 . S
C1348 C1345 1.363 . S
C1348 N1346 1.356 1_655 S
C1349 C1343 1.363 . S
C1349 C1344 1.379 . S
C1349 N1347 1.356 . S
N1350 C1342 1.356 . S
N1350 H1356 0.984 . S
N1350 H1357 0.984 . S
N1351 C1344 1.356 . S
N1351 H1354 0.984 . S
N1351 H1355 0.985 . S
H1352 N1347 0.984 . S
H1353 N1347 0.985 . S
H1354 N1351 0.984 . S
H1355 N1351 0.985 . S
H1356 N1350 0.984 . S
H1357 N1350 0.984 . S
H1358 N1346 0.984 . S
H1359 N1346 0.985 . S
C1360 C1361 1.363 . S
C1360 C1366 1.379 . S
C1360 N1368 1.356 . S
C1361 C1360 1.363 . S
C1361 C1367 1.363 . S
C1362 C1363 1.363 . S
C1362 C1367 1.379 . S
C1362 N1369 1.356 . S
C1363 C1362 1.363 . S
C1363 C1366 1.363 . S
N1364 C1366 1.356 . S
N1364 H1376 0.984 . S
N1364 H1377 0.985 . S
N1365 C1367 1.356 . S
N1365 H1370 0.984 . S
N1365 H1371 0.985 . S
C1366 C1360 1.379 . S
C1366 C1363 1.363 . S
C1366 N1364 1.356 . S
C1367 C1361 1.363 . S
C1367 C1362 1.379 . S
C1367 N1365 1.356 . S
N1368 C1360 1.356 . S
N1368 H1374 0.984 . S
N1368 H1375 0.984 . S
N1369 C1362 1.356 . S
N1369 H1372 0.984 . S
N1369 H1373 0.985 . S
H1370 N1365 0.984 . S
H1371 N1365 0.985 . S
H1372 N1369 0.984 . S
H1373 N1369 0.985 . S
H1374 N1368 0.984 . S
H1375 N1368 0.984 . S
H1376 N1364 0.984 . S
H1377 N1364 0.985 . S
C1378 C1379 1.363 . S
C1378 C1384 1.379 . S
C1378 N1386 1.356 . S
C1379 C1378 1.363 . S
C1379 C1385 1.363 . S
C1380 C1381 1.363 . S
C1380 C1385 1.379 . S
C1380 N1387 1.356 . S
C1381 C1380 1.363 . S
C1381 C1384 1.363 . S
N1382 C1384 1.356 1_545 S
N1382 H1394 0.984 . S
N1382 H1395 0.985 . S
N1383 C1385 1.356 . S
N1383 H1388 0.984 . S
N1383 H1389 0.985 . S
C1384 C1378 1.379 . S
C1384 C1381 1.363 . S
C1384 N1382 1.356 1_565 S
C1385 C1379 1.363 . S
C1385 C1380 1.379 . S
C1385 N1383 1.356 . S
N1386 C1378 1.356 . S
N1386 H1392 0.984 1_565 S
N1386 H1393 0.984 . S
N1387 C1380 1.356 . S
N1387 H1390 0.984 1_655 S
N1387 H1391 0.985 . S
H1388 N1383 0.984 . S
H1389 N1383 0.985 . S
H1390 N1387 0.984 1_455 S
H1391 N1387 0.985 . S
H1392 N1386 0.984 1_545 S
H1393 N1386 0.984 . S
H1394 N1382 0.984 . S
H1395 N1382 0.985 . S
C1396 C1397 1.363 . S
C1396 C1402 1.379 . S
C1396 N1404 1.356 . S
C1397 C1396 1.363 . S
C1397 C1403 1.363 . S
C1398 C1399 1.363 . S
C1398 C1403 1.379 . S
C1398 N1405 1.356 . S
C1399 C1398 1.363 . S
C1399 C1402 1.363 . S
N1400 C1402 1.356 . S
N1400 H1412 0.984 . S
N1400 H1413 0.985 . S
N1401 C1403 1.356 . S
N1401 H1406 0.984 . S
N1401 H1407 0.985 . S
C1402 C1396 1.379 . S
C1402 C1399 1.363 . S
C1402 N1400 1.356 . S
C1403 C1397 1.363 . S
C1403 C1398 1.379 . S
C1403 N1401 1.356 . S
N1404 C1396 1.356 . S
N1404 H1410 0.984 . S
N1404 H1411 0.984 . S
N1405 C1398 1.356 . S
N1405 H1408 0.984 . S
N1405 H1409 0.985 . S
H1406 N1401 0.984 . S
H1407 N1401 0.985 . S
H1408 N1405 0.984 . S
H1409 N1405 0.985 . S
H1410 N1404 0.984 . S
H1411 N1404 0.984 . S
H1412 N1400 0.984 . S
H1413 N1400 0.985 . S
C1414 C1415 1.363 . S
C1414 C1420 1.379 . S
C1414 N1422 1.356 . S
C1415 C1414 1.363 . S
C1415 C1421 1.363 . S
C1416 C1417 1.363 . S
C1416 C1421 1.379 . S
C1416 N1423 1.356 . S
C1417 C1416 1.363 . S
C1417 C1420 1.363 . S
N1418 C1420 1.356 . S
N1418 H1430 0.984 . S
N1418 H1431 0.985 . S
N1419 C1421 1.356 1_565 S
N1419 H1424 0.984 . S
N1419 H1425 0.985 . S
C1420 C1414 1.379 . S
C1420 C1417 1.363 . S
C1420 N1418 1.356 . S
C1421 C1415 1.363 . S
C1421 C1416 1.379 . S
C1421 N1419 1.356 1_545 S
N1422 C1414 1.356 . S
N1422 H1428 0.984 . S
N1422 H1429 0.984 . S
N1423 C1416 1.356 . S
N1423 H1426 0.984 . S
N1423 H1427 0.985 . S
H1424 N1419 0.984 . S
H1425 N1419 0.985 . S
H1426 N1423 0.984 . S
H1427 N1423 0.985 . S
H1428 N1422 0.984 . S
H1429 N1422 0.984 . S
H1430 N1418 0.984 . S
H1431 N1418 0.985 . S
C1432 C1433 1.363 . S
C1432 C1438 1.379 . S
C1432 N1440 1.356 . S
C1433 C1432 1.363 . S
C1433 C1439 1.363 . S
C1434 C1435 1.363 . S
C1434 C1439 1.379 . S
C1434 N1441 1.356 . S
C1435 C1434 1.363 . S
C1435 C1438 1.363 . S
N1436 C1438 1.356 . S
N1436 H1448 0.984 . S
N1436 H1449 0.985 . S
N1437 C1439 1.356 . S
N1437 H1442 0.984 . S
N1437 H1443 0.985 . S
C1438 C1432 1.379 . S
C1438 C1435 1.363 . S
C1438 N1436 1.356 . S
C1439 C1433 1.363 . S
C1439 C1434 1.379 . S
C1439 N1437 1.356 . S
N1440 C1432 1.356 . S
N1440 H1446 0.984 . S
N1440 H1447 0.984 . S
N1441 C1434 1.356 . S
N1441 H1444 0.984 . S
N1441 H1445 0.985 . S
H1442 N1437 0.984 . S
H1443 N1437 0.985 . S
H1444 N1441 0.984 . S
H1445 N1441 0.985 . S
H1446 N1440 0.984 . S
H1447 N1440 0.984 . S
H1448 N1436 0.984 . S
H1449 N1436 0.985 . S
C1450 C1451 1.363 . S
C1450 C1456 1.379 . S
C1450 N1458 1.356 1_545 S
C1451 C1450 1.363 . S
C1451 C1457 1.363 . S
C1452 C1453 1.363 . S
C1452 C1457 1.379 . S
C1452 N1459 1.356 . S
C1453 C1452 1.363 . S
C1453 C1456 1.363 . S
N1454 C1456 1.356 . S
N1454 H1466 0.984 1_545 S
N1454 H1467 0.985 . S
N1455 C1457 1.338 1_655 S
N1455 H1460 1.001 . S
N1455 H1461 0.987 . S
C1456 C1450 1.379 . S
C1456 C1453 1.363 . S
C1456 N1454 1.356 . S
C1457 C1451 1.363 . S
C1457 C1452 1.379 . S
C1457 N1455 1.338 1_455 S
N1458 C1450 1.356 1_565 S
N1458 H1464 0.984 . S
N1458 H1465 0.984 . S
N1459 C1452 1.356 . S
N1459 H1462 0.984 . S
N1459 H1463 0.985 . S
H1460 N1455 1.001 . S
H1461 N1455 0.987 . S
H1462 N1459 0.984 . S
H1463 N1459 0.985 . S
H1464 N1458 0.984 . S
H1465 N1458 0.984 . S
H1466 N1454 0.984 1_565 S
H1467 N1454 0.985 . S
C1468 C1469 1.363 . S
C1468 C1474 1.379 . S
C1468 N1476 1.356 . S
C1469 C1468 1.363 . S
C1469 C1475 1.363 . S
C1470 C1471 1.363 . S
C1470 C1475 1.379 . S
C1470 N1477 1.356 . S
C1471 C1470 1.363 . S
C1471 C1474 1.363 . S
N1472 C1474 1.356 . S
N1472 H1484 0.984 . S
N1472 H1485 0.985 . S
N1473 C1475 1.356 . S
N1473 H1478 0.984 . S
N1473 H1479 0.985 . S
C1474 C1468 1.379 . S
C1474 C1471 1.363 . S
C1474 N1472 1.356 . S
C1475 C1469 1.363 . S
C1475 C1470 1.379 . S
C1475 N1473 1.356 . S
N1476 C1468 1.356 . S
N1476 H1482 0.984 . S
N1476 H1483 0.984 . S
N1477 C1470 1.356 . S
N1477 H1480 0.984 . S
N1477 H1481 0.985 . S
H1478 N1473 0.984 . S
H1479 N1473 0.985 . S
H1480 N1477 0.984 . S
H1481 N1477 0.985 . S
H1482 N1476 0.984 . S
H1483 N1476 0.984 . S
H1484 N1472 0.984 . S
H1485 N1472 0.985 . S
C1486 C1487 1.363 . S
C1486 C1492 1.379 . S
C1486 N1494 1.356 . S
C1487 C1486 1.363 . S
C1487 C1493 1.363 . S
C1488 C1489 1.363 . S
C1488 C1493 1.379 . S
C1488 N1495 1.356 . S
C1489 C1488 1.363 . S
C1489 C1492 1.363 . S
N1490 C1492 1.356 1_545 S
N1490 H1502 0.984 . S
N1490 H1503 0.985 . S
N1491 C1493 1.356 . S
N1491 H1496 0.984 . S
N1491 H1497 0.985 . S
C1492 C1486 1.379 . S
C1492 C1489 1.363 . S
C1492 N1490 1.356 1_565 S
C1493 C1487 1.363 . S
C1493 C1488 1.379 . S
C1493 N1491 1.356 . S
N1494 C1486 1.356 . S
N1494 H1500 0.984 1_565 S
N1494 H1501 0.984 . S
N1495 C1488 1.356 . S
N1495 H1498 0.984 . S
N1495 H1499 0.985 . S
H1496 N1491 0.984 . S
H1497 N1491 0.985 . S
H1498 N1495 0.984 . S
H1499 N1495 0.985 . S
H1500 N1494 0.984 1_545 S
H1501 N1494 0.984 . S
H1502 N1490 0.984 . S
H1503 N1490 0.985 . S
C641 C25 1.046 . S
C643 C484 1.046 . S
C659 C204 1.046 . S
C661 C65 1.046 . S
C677 C105 1.045 . S
C679 C564 1.045 . S
C695 C145 1.046 1_554 S
C697 C284 1.046 1_556 S
C713 C164 1.046 . S
C715 C345 1.046 . S
C731 C425 1.045 . S
C733 C244 1.045 . S
C749 C524 1.045 1_556 S
C751 C385 1.045 1_554 S
C767 C465 1.046 . S
C769 C604 1.046 . S
C785 C362 2.411 . S
C787 C4 2.398 1_556 S
C803 C44 2.396 . S
C805 C402 2.412 . S
C821 C84 2.398 . S
C823 C442 2.412 . S
C839 C322 2.412 . S
C841 C124 2.396 . S
C857 C543 2.411 . S
C859 C185 2.398 1_554 S
C875 C583 2.412 . S
C877 C225 2.396 . S
C893 C265 2.398 . S
C895 C623 2.412 . S
C911 C503 2.412 . S
C913 C305 2.396 . S
C929 C324 2.396 . S
C931 C42 2.412 . S
C947 C364 2.396 . S
C949 C82 2.412 . S
C965 C404 2.396 1_556 S
C967 C122 2.412 . S
C983 C2 2.412 . S
C985 C444 2.396 . S
C1001 C223 2.412 . S
C1003 C505 2.396 . S
C1019 C545 2.396 . S
C1021 C263 2.412 . S
C1037 C303 2.412 . S
C1039 C585 2.396 1_554 S
C1055 C625 2.396 . S
C1057 C183 2.412 . S
C1073 C31 2.911 . S
C1075 C431 2.911 . S
C1091 C71 2.911 . S
C1093 C471 2.911 . S
C1109 C351 2.911 . S
C1111 C111 2.911 . S
C1127 C151 2.911 . S
C1129 C391 2.911 . S
C1145 C180 2.911 . S
C1147 C580 2.911 . S
C1163 C220 2.911 . S
C1165 C620 2.911 . S
C1181 C500 2.911 . S
C1183 C260 2.911 . S
C1199 C300 2.911 . S
C1201 C540 2.911 . S
C1217 C23 1.842 . S
C1219 C311 2.181 . S
C1235 C511 2.181 . S
C1237 C63 1.842 . S
C1253 C103 1.842 . S
C1255 C231 2.181 . S
C1271 C143 1.842 1_455 S
C1273 C591 2.181 . S
C1289 C162 1.842 . S
C1291 C140 2.181 . S
C1307 C340 2.181 . S
C1309 C202 1.842 . S
C1325 C242 1.842 . S
C1327 C60 2.181 . S
C1343 C420 2.181 . S
C1345 C282 1.842 1_655 S
C1361 C343 1.842 . S
C1363 C631 2.181 . S
C1379 C191 2.181 . S
C1381 C383 1.842 1_655 S
C1397 C551 2.181 . S
C1399 C423 1.842 . S
C1415 C463 1.842 . S
C1417 C271 2.181 . S
C1433 C482 1.842 . S
C1435 C460 2.181 . S
C1451 C522 1.842 1_455 S
C1453 C20 2.181 . S
C1469 C380 2.181 . S
C1471 C562 1.842 . S
C1487 C100 2.181 . S
C1489 C602 1.842 . S
