# Generated by pormake.
# Topology bcu-i, (5)-cn, num edge types: 1
# Building blocks:
#     Node 0, Type 0, BuildingBlock: XOMCOT_clean_sbu_0, # of connection points: 5
#     Node 1, Type 0, BuildingBlock: XOMCOT_clean_sbu_0, # of connection points: 5
#     Node 2, Type 0, BuildingBlock: XOMCOT_clean_sbu_0, # of connection points: 5
#     Node 3, Type 0, BuildingBlock: XOMCOT_clean_sbu_0, # of connection points: 5
#     Node 4, Type 0, BuildingBlock: XOMCOT_clean_sbu_0, # of connection points: 5
#     Node 5, Type 0, BuildingBlock: XOMCOT_clean_sbu_0, # of connection points: 5
#     Node 6, Type 0, BuildingBlock: XOMCOT_clean_sbu_0, # of connection points: 5
#     Node 7, Type 0, BuildingBlock: XOMCOT_clean_sbu_0, # of connection points: 5
#     Node 8, Type 0, BuildingBlock: XOMCOT_clean_sbu_0, # of connection points: 5
#     Node 9, Type 0, BuildingBlock: XOMCOT_clean_sbu_0, # of connection points: 5
#     Node 10, Type 0, BuildingBlock: XOMCOT_clean_sbu_0, # of connection points: 5
#     Node 11, Type 0, BuildingBlock: XOMCOT_clean_sbu_0, # of connection points: 5
#     Node 12, Type 0, BuildingBlock: XOMCOT_clean_sbu_0, # of connection points: 5
#     Node 13, Type 0, BuildingBlock: XOMCOT_clean_sbu_0, # of connection points: 5
#     Node 14, Type 0, BuildingBlock: XOMCOT_clean_sbu_0, # of connection points: 5
#     Node 15, Type 0, BuildingBlock: XOMCOT_clean_sbu_0, # of connection points: 5
#     Edge 16, Type (0, 0), BuildingBlock: XUDNAN_clean_linker_2, # of connection points: 2
#     Edge 17, Type (0, 0), BuildingBlock: XUDNAN_clean_linker_2, # of connection points: 2
#     Edge 18, Type (0, 0), BuildingBlock: XUDNAN_clean_linker_2, # of connection points: 2
#     Edge 19, Type (0, 0), BuildingBlock: XUDNAN_clean_linker_2, # of connection points: 2
#     Edge 20, Type (0, 0), BuildingBlock: XUDNAN_clean_linker_2, # of connection points: 2
#     Edge 21, Type (0, 0), BuildingBlock: XUDNAN_clean_linker_2, # of connection points: 2
#     Edge 22, Type (0, 0), BuildingBlock: XUDNAN_clean_linker_2, # of connection points: 2
#     Edge 23, Type (0, 0), BuildingBlock: XUDNAN_clean_linker_2, # of connection points: 2
#     Edge 24, Type (0, 0), BuildingBlock: XUDNAN_clean_linker_2, # of connection points: 2
#     Edge 25, Type (0, 0), BuildingBlock: XUDNAN_clean_linker_2, # of connection points: 2
#     Edge 26, Type (0, 0), BuildingBlock: XUDNAN_clean_linker_2, # of connection points: 2
#     Edge 27, Type (0, 0), BuildingBlock: XUDNAN_clean_linker_2, # of connection points: 2
#     Edge 28, Type (0, 0), BuildingBlock: XUDNAN_clean_linker_2, # of connection points: 2
#     Edge 29, Type (0, 0), BuildingBlock: XUDNAN_clean_linker_2, # of connection points: 2
#     Edge 30, Type (0, 0), BuildingBlock: XUDNAN_clean_linker_2, # of connection points: 2
#     Edge 31, Type (0, 0), BuildingBlock: XUDNAN_clean_linker_2, # of connection points: 2
#     Edge 32, Type (0, 0), BuildingBlock: XUDNAN_clean_linker_2, # of connection points: 2
#     Edge 33, Type (0, 0), BuildingBlock: XUDNAN_clean_linker_2, # of connection points: 2
#     Edge 34, Type (0, 0), BuildingBlock: XUDNAN_clean_linker_2, # of connection points: 2
#     Edge 35, Type (0, 0), BuildingBlock: XUDNAN_clean_linker_2, # of connection points: 2
#     Edge 36, Type (0, 0), BuildingBlock: XUDNAN_clean_linker_2, # of connection points: 2
#     Edge 37, Type (0, 0), BuildingBlock: XUDNAN_clean_linker_2, # of connection points: 2
#     Edge 38, Type (0, 0), BuildingBlock: XUDNAN_clean_linker_2, # of connection points: 2
#     Edge 39, Type (0, 0), BuildingBlock: XUDNAN_clean_linker_2, # of connection points: 2
#     Edge 40, Type (0, 0), BuildingBlock: XUDNAN_clean_linker_2, # of connection points: 2
#     Edge 41, Type (0, 0), BuildingBlock: XUDNAN_clean_linker_2, # of connection points: 2
#     Edge 42, Type (0, 0), BuildingBlock: XUDNAN_clean_linker_2, # of connection points: 2
#     Edge 43, Type (0, 0), BuildingBlock: XUDNAN_clean_linker_2, # of connection points: 2
#     Edge 44, Type (0, 0), BuildingBlock: XUDNAN_clean_linker_2, # of connection points: 2
#     Edge 45, Type (0, 0), BuildingBlock: XUDNAN_clean_linker_2, # of connection points: 2
#     Edge 46, Type (0, 0), BuildingBlock: XUDNAN_clean_linker_2, # of connection points: 2
#     Edge 47, Type (0, 0), BuildingBlock: XUDNAN_clean_linker_2, # of connection points: 2
#     Edge 48, Type (0, 0), BuildingBlock: XUDNAN_clean_linker_2, # of connection points: 2
#     Edge 49, Type (0, 0), BuildingBlock: XUDNAN_clean_linker_2, # of connection points: 2
#     Edge 50, Type (0, 0), BuildingBlock: XUDNAN_clean_linker_2, # of connection points: 2
#     Edge 51, Type (0, 0), BuildingBlock: XUDNAN_clean_linker_2, # of connection points: 2
#     Edge 52, Type (0, 0), BuildingBlock: XUDNAN_clean_linker_2, # of connection points: 2
#     Edge 53, Type (0, 0), BuildingBlock: XUDNAN_clean_linker_2, # of connection points: 2
#     Edge 54, Type (0, 0), BuildingBlock: XUDNAN_clean_linker_2, # of connection points: 2
#     Edge 55, Type (0, 0), BuildingBlock: XUDNAN_clean_linker_2, # of connection points: 2
# Relax obj value: 0.521
# Max RMSD: 0.248
# Mean RMSD: 0.248
data_MOF--net-bcu-i--node1-XOMCOT_clean_sbu_0--edge1-XUDNAN_clean_linker_2
_symmetry_space_group_name_H-M    P1
_symmetry_Int_Tables_number       1
_symmetry_cell_setting            triclinic
loop_
_symmetry_equiv_pos_as_xyz
'x, y, z'
_cell_length_a     44.703226
_cell_length_b     44.74621
_cell_length_c     50.876557
_cell_angle_alpha  90.031012
_cell_angle_beta   90.03495
_cell_angle_gamma 90.135441
loop_
_atom_site_label
_atom_site_type_symbol
_atom_site_fract_x
_atom_site_fract_y
_atom_site_fract_z
_atom_type_partial_charge
Co0 Co 0.2464 0.12951 0.39691 0.0
C1 C 0.18497 0.14544 0.37578 0.0
C2 C 0.19157 0.09895 0.38412 0.0
C3 C 0.16214 0.10299 0.37786 0.0
N4 N 0.20625 0.12533 0.38256 0.0
N5 N 0.15802 0.1321 0.37266 0.0
H6 H 0.1882 0.1693 0.37491 0.0
H7 H 0.2013 0.07826 0.39097 0.0
C8 C 0.25074 0.0842 0.35521 0.0
O9 O 0.24013 0.10513 0.33968 0.0
N10 N 0.28562 0.13232 0.41237 0.0
C11 C 0.30174 0.15739 0.41648 0.0
C12 C 0.32648 0.15021 0.43129 0.0
C13 C 0.30054 0.11034 0.42461 0.0
N14 N 0.32561 0.12063 0.43638 0.0
C15 C 0.25139 0.18095 0.36325 0.0
C16 C 0.30382 0.16219 0.33967 0.0
C17 C 0.29389 0.19137 0.33519 0.0
C18 C 0.26697 0.20055 0.34678 0.0
C19 C 0.28759 0.14341 0.35599 0.0
N20 N 0.26159 0.15266 0.36753 0.0
H21 H 0.23256 0.18941 0.37409 0.0
H22 H 0.29733 0.1221 0.36098 0.0
H23 H 0.29526 0.17952 0.41014 0.0
H24 H 0.29201 0.08778 0.42648 0.0
O25 O 0.23365 0.16191 0.41908 0.0
O26 O 0.231 0.11366 0.42943 0.0
O27 O 0.25691 0.09046 0.37919 0.0
C28 C 0.22638 0.14139 0.43602 0.0
H29 H 0.14479 0.08606 0.37793 0.0
H30 H 0.3431 0.16571 0.43869 0.0
H31 H 0.32504 0.1544 0.33206 0.0
H32 H 0.25861 0.22303 0.34405 0.0
Co33 Co 0.88562 0.16448 0.36333 0.0
C34 C 0.84863 0.12053 0.33479 0.0
C35 C 0.89242 0.10363 0.34243 0.0
C36 C 0.87443 0.08027 0.3347 0.0
N37 N 0.87639 0.12917 0.34232 0.0
N38 N 0.84665 0.0908 0.33041 0.0
H39 H 0.82938 0.13501 0.3355 0.0
H40 H 0.91444 0.10111 0.35087 0.0
C41 C 0.94546 0.15146 0.34072 0.0
O42 O 0.93219 0.14949 0.31772 0.0
N43 N 0.89407 0.19862 0.38507 0.0
C44 C 0.88044 0.22542 0.3845 0.0
C45 C 0.89209 0.24281 0.40435 0.0
C46 C 0.91338 0.19976 0.40525 0.0
N47 N 0.91275 0.22659 0.41742 0.0
C48 C 0.86533 0.19185 0.31539 0.0
C49 C 0.91282 0.23146 0.31129 0.0
C50 C 0.88897 0.23377 0.29369 0.0
C51 C 0.86524 0.21331 0.29555 0.0
C52 C 0.91201 0.20977 0.33081 0.0
N53 N 0.88853 0.19018 0.3327 0.0
H54 H 0.8461 0.1776 0.31752 0.0
H55 H 0.92977 0.20963 0.34522 0.0
H56 H 0.8631 0.23171 0.37075 0.0
H57 H 0.9267 0.18086 0.4114 0.0
O58 O 0.8438 0.16973 0.3712 0.0
O59 O 0.87523 0.14191 0.39442 0.0
O60 O 0.92996 0.15565 0.36153 0.0
C61 C 0.84826 0.15237 0.39131 0.0
H62 H 0.88046 0.05688 0.33566 0.0
H63 H 0.88564 0.26552 0.40885 0.0
H64 H 0.93122 0.24725 0.3109 0.0
H65 H 0.84633 0.21442 0.28226 0.0
Co66 Co 0.75549 0.86908 0.39797 0.0
C67 C 0.81707 0.85242 0.38269 0.0
C68 C 0.809 0.89954 0.37901 0.0
C69 C 0.83841 0.89415 0.37302 0.0
N70 N 0.79564 0.87341 0.38489 0.0
N71 N 0.84358 0.86457 0.37554 0.0
H72 H 0.81366 0.82911 0.38751 0.0
H73 H 0.79848 0.92121 0.38013 0.0
C74 C 0.73071 0.9267 0.38232 0.0
O75 O 0.72129 0.92867 0.4067 0.0
N76 N 0.71469 0.86537 0.41103 0.0
C77 C 0.68965 0.86138 0.39662 0.0
C78 C 0.66506 0.86584 0.41246 0.0
C79 C 0.70482 0.87219 0.43535 0.0
N80 N 0.67469 0.87298 0.43682 0.0
C81 C 0.73585 0.81277 0.3783 0.0
C82 C 0.73727 0.82866 0.32575 0.0
C83 C 0.72295 0.80202 0.33314 0.0
C84 C 0.7234 0.79354 0.35966 0.0
C85 C 0.74921 0.84735 0.34506 0.0
N86 N 0.74686 0.83995 0.37098 0.0
H87 H 0.73463 0.80691 0.39889 0.0
H88 H 0.75904 0.86842 0.33926 0.0
H89 H 0.68916 0.85762 0.37563 0.0
H90 H 0.71925 0.87968 0.451 0.0
O91 O 0.76996 0.84281 0.42536 0.0
O92 O 0.76688 0.89224 0.4283 0.0
O93 O 0.74294 0.90264 0.37441 0.0
C94 C 0.77432 0.86698 0.43913 0.0
H95 H 0.85485 0.91091 0.36782 0.0
H96 H 0.64201 0.86585 0.40597 0.0
H97 H 0.73755 0.83594 0.30546 0.0
H98 H 0.71305 0.77288 0.36606 0.0
Co99 Co 0.11252 0.8332 0.39068 0.0
C100 C 0.14408 0.88089 0.36293 0.0
C101 C 0.09694 0.88347 0.35525 0.0
C102 C 0.11109 0.90652 0.34213 0.0
N103 N 0.11778 0.86756 0.36831 0.0
N104 N 0.14061 0.90475 0.34724 0.0
H105 H 0.16543 0.87374 0.37069 0.0
H106 H 0.07314 0.87918 0.35562 0.0
C107 C 0.05392 0.80595 0.37505 0.0
O108 O 0.06668 0.77952 0.3748 0.0
N109 N 0.10733 0.79877 0.41334 0.0
C110 C 0.1235 0.77344 0.41558 0.0
C111 C 0.10903 0.75431 0.43249 0.0
C112 C 0.08395 0.79501 0.42962 0.0
N113 N 0.08395 0.7678 0.44108 0.0
C114 C 0.15494 0.79703 0.36348 0.0
C115 C 0.12098 0.78851 0.31875 0.0
C116 C 0.14809 0.77326 0.32147 0.0
C117 C 0.16567 0.77843 0.34375 0.0
C118 C 0.11113 0.80683 0.33903 0.0
N119 N 0.12691 0.80887 0.36195 0.0
H120 H 0.16898 0.80132 0.38034 0.0
H121 H 0.0908 0.81931 0.33615 0.0
H122 H 0.14414 0.76841 0.40574 0.0
H123 H 0.06696 0.81187 0.43239 0.0
O124 O 0.15002 0.84182 0.40786 0.0
O125 O 0.10582 0.85937 0.4202 0.0
O126 O 0.06945 0.82948 0.37942 0.0
C127 C 0.13462 0.85865 0.42367 0.0
H128 H 0.10044 0.92403 0.33084 0.0
H129 H 0.11619 0.73195 0.43747 0.0
H130 H 0.10719 0.78588 0.30138 0.0
H131 H 0.18746 0.76816 0.34592 0.0
Co132 Co 0.27771 0.94347 0.60277 0.0
C133 C 0.22047 0.91224 0.61818 0.0
C134 C 0.22055 0.95924 0.62607 0.0
C135 C 0.19277 0.94823 0.63189 0.0
N136 N 0.2385 0.93665 0.61834 0.0
N137 N 0.19271 0.91874 0.62696 0.0
H138 H 0.22651 0.89073 0.61034 0.0
H139 H 0.22655 0.98264 0.62565 0.0
C140 C 0.27874 0.97507 0.65397 0.0
O141 O 0.27187 0.94934 0.66488 0.0
N142 N 0.31581 0.95127 0.58668 0.0
C143 C 0.33409 0.93108 0.57539 0.0
C144 C 0.3559 0.94621 0.56164 0.0
C145 C 0.32672 0.9782 0.57998 0.0
N146 N 0.3512 0.97576 0.56468 0.0
C147 C 0.28997 0.88403 0.61968 0.0
C148 C 0.33889 0.89824 0.65053 0.0
C149 C 0.33147 0.86816 0.64651 0.0
C150 C 0.30661 0.86117 0.63097 0.0
C151 C 0.32165 0.92046 0.63878 0.0
N152 N 0.29701 0.91328 0.62412 0.0
H153 H 0.27258 0.87799 0.60608 0.0
H154 H 0.32898 0.94339 0.64049 0.0
H155 H 0.33054 0.90717 0.57558 0.0
H156 H 0.31527 -0.00099 0.58399 0.0
O157 O 0.26705 0.91881 0.57333 0.0
O158 O 0.25797 0.96749 0.57638 0.0
O159 O 0.28524 0.97602 0.62949 0.0
C160 C 0.25559 0.94275 0.56304 0.0
H161 H 0.17333 0.96123 0.63724 0.0
H162 H 0.3725 0.93637 0.54881 0.0
H163 H 0.3584 0.90451 0.66191 0.0
H164 H 0.30021 0.83818 0.62726 0.0
Co165 Co 0.07237 0.17317 0.62646 0.0
C166 C 0.11546 0.13828 0.65643 0.0
C167 C 0.07802 0.11101 0.64512 0.0
C168 C 0.09935 0.09307 0.65673 0.0
N169 N 0.08838 0.13926 0.64488 0.0
N170 N 0.12301 0.11027 0.66356 0.0
H171 H 0.13006 0.15749 0.65818 0.0
H172 H 0.05744 0.10364 0.63599 0.0
C173 C 0.00656 0.1717 0.63243 0.0
O174 O 0.00837 0.20039 0.63771 0.0
N175 N 0.05683 0.2074 0.60728 0.0
C176 C 0.05981 0.2371 0.6117 0.0
C177 C 0.04429 0.25247 0.59272 0.0
C178 C 0.04021 0.20536 0.58523 0.0
N179 N 0.03212 0.23243 0.57617 0.0
C180 C 0.08949 0.21598 0.66501 0.0
C181 C 0.04761 0.20057 0.70264 0.0
C182 C 0.06519 0.22609 0.70616 0.0
C183 C 0.0871 0.23312 0.6876 0.0
C184 C 0.05055 0.18418 0.67939 0.0
N185 N 0.06955 0.19362 0.65999 0.0
H186 H 0.10667 0.22163 0.65098 0.0
H187 H 0.0374 0.16411 0.67701 0.0
H188 H 0.07219 0.2476 0.62726 0.0
H189 H 0.03348 0.18437 0.57642 0.0
O190 O 0.11225 0.18513 0.61647 0.0
O191 O 0.08296 0.15488 0.59337 0.0
O192 O 0.03041 0.15638 0.62923 0.0
C193 C 0.10834 0.16894 0.59555 0.0
H194 H 0.09849 0.06894 0.65804 0.0
H195 H 0.04236 0.27651 0.59103 0.0
H196 H 0.03159 0.19369 0.71743 0.0
H197 H 0.10217 0.25184 0.69052 0.0
Co198 Co 0.71318 0.09049 0.58544 0.0
C199 C 0.77632 0.1062 0.59548 0.0
C200 C 0.74783 0.14318 0.60483 0.0
C201 C 0.77692 0.15145 0.60947 0.0
N202 N 0.74728 0.1146 0.59637 0.0
N203 N 0.79489 0.12824 0.60359 0.0
H204 H 0.78358 0.08439 0.58892 0.0
H205 H 0.72889 0.1576 0.60742 0.0
C206 C 0.74049 0.05901 0.63125 0.0
O207 O 0.74472 0.08498 0.64274 0.0
N208 N 0.6795 0.06677 0.57405 0.0
C209 C 0.65095 0.07608 0.57208 0.0
C210 C 0.63395 0.05338 0.56175 0.0
C211 C 0.6796 0.03862 0.56464 0.0
N212 N 0.65196 0.02986 0.55686 0.0
C213 C 0.67616 0.13624 0.60772 0.0
C214 C 0.6582 0.10441 0.65147 0.0
C215 C 0.64835 0.1338 0.64825 0.0
C216 C 0.65687 0.14957 0.62575 0.0
C217 C 0.67707 0.09179 0.63275 0.0
N218 N 0.68739 0.10829 0.61202 0.0
H219 H 0.68222 0.14856 0.59028 0.0
H220 H 0.68261 0.0685 0.63481 0.0
H221 H 0.64301 0.09814 0.57708 0.0
H222 H 0.69973 0.02549 0.56238 0.0
O223 O 0.70646 0.11779 0.55645 0.0
O224 O 0.7358 0.07792 0.55532 0.0
O225 O 0.72641 0.05721 0.60943 0.0
C226 C 0.72519 0.10122 0.54335 0.0
H227 H 0.78412 0.17293 0.61696 0.0
H228 H 0.61024 0.05447 0.55762 0.0
H229 H 0.65109 0.09119 0.66819 0.0
H230 H 0.64927 0.17223 0.62242 0.0
Co231 Co 0.92567 0.83163 0.62748 0.0
C232 C 0.89259 0.87818 0.65602 0.0
C233 C 0.93282 0.89554 0.63927 0.0
C234 C 0.91528 0.91914 0.64711 0.0
N235 N 0.91878 0.86964 0.6451 0.0
N236 N 0.88965 0.90819 0.65723 0.0
H237 H 0.87446 0.86296 0.66 0.0
H238 H 0.9526 0.89745 0.62718 0.0
C239 C 0.98732 0.85035 0.64243 0.0
O240 O 0.9768 0.8566 0.66591 0.0
N241 N 0.93126 0.79442 0.60928 0.0
C242 C 0.91905 0.76762 0.6152 0.0
C243 C 0.92769 0.74723 0.5964 0.0
C244 C 0.94632 0.79035 0.58678 0.0
N245 N 0.94444 0.76182 0.57855 0.0
C246 C 0.9091 0.80792 0.67818 0.0
C247 C 0.95861 0.77112 0.68237 0.0
C248 C 0.93495 0.76746 0.69991 0.0
C249 C 0.91045 0.78687 0.69838 0.0
C250 C 0.95652 0.79253 0.66269 0.0
N251 N 0.93174 0.81031 0.66036 0.0
H252 H 0.88873 0.82026 0.67564 0.0
H253 H 0.97367 0.7926 0.64778 0.0
H254 H 0.90484 0.76327 0.63197 0.0
H255 H 0.95852 0.80787 0.57671 0.0
O256 O 0.8829 0.8265 0.62279 0.0
O257 O 0.91358 0.84987 0.59508 0.0
O258 O 0.96985 0.84034 0.62458 0.0
C259 C 0.88673 0.84084 0.60075 0.0
H260 H 0.91951 0.94241 0.6426 0.0
H261 H 0.92189 0.72374 0.59564 0.0
H262 H 0.97763 0.75615 0.6827 0.0
H263 H 0.89131 0.78405 0.71122 0.0
Co264 Co 0.75443 0.60089 0.86206 0.0
C265 C 0.69017 0.60638 0.84958 0.0
C266 C 0.71632 0.62463 0.81816 0.0
C267 C 0.6866 0.62872 0.81236 0.0
N268 N 0.71873 0.61094 0.84179 0.0
N269 N 0.67028 0.61731 0.83216 0.0
H270 H 0.68389 0.59608 0.86799 0.0
H271 H 0.73443 0.63081 0.80533 0.0
C272 C 0.74027 0.54638 0.83021 0.0
O273 O 0.73366 0.56329 0.80997 0.0
N274 N 0.78943 0.59112 0.88225 0.0
C275 C 0.8142 0.60791 0.88531 0.0
C276 C 0.83518 0.59135 0.89866 0.0
C277 C 0.79536 0.5649 0.89392 0.0
N278 N 0.82335 0.56419 0.90401 0.0
C279 C 0.78427 0.64028 0.82757 0.0
C280 C 0.82507 0.59929 0.80848 0.0
C281 C 0.82931 0.62975 0.80325 0.0
C282 C 0.80781 0.65014 0.81211 0.0
C283 C 0.80061 0.5902 0.82363 0.0
N284 N 0.78079 0.61072 0.83321 0.0
H285 H 0.76907 0.65662 0.83562 0.0
H286 H 0.79913 0.56703 0.82939 0.0
H287 H 0.81712 0.63028 0.87769 0.0
H288 H 0.77931 0.54685 0.89483 0.0
O289 O 0.75301 0.63952 0.87919 0.0
O290 O 0.73056 0.59834 0.89344 0.0
O291 O 0.75049 0.55782 0.85134 0.0
C292 C 0.73622 0.62661 0.89671 0.0
H293 H 0.67766 0.63923 0.79489 0.0
H294 H 0.85755 0.59873 0.90353 0.0
H295 H 0.84132 0.58285 0.80222 0.0
H296 H 0.80959 0.6738 0.80788 0.0
Co297 Co 0.39411 0.67265 0.8534 0.0
C298 C 0.35346 0.62091 0.84546 0.0
C299 C 0.39452 0.61524 0.82436 0.0
C300 C 0.37698 0.59025 0.82044 0.0
N301 N 0.37973 0.63455 0.84005 0.0
N302 N 0.35134 0.59393 0.83389 0.0
H303 H 0.3362 0.63 0.85796 0.0
H304 H 0.41692 0.6184 0.81693 0.0
C305 C 0.46009 0.67377 0.84451 0.0
O306 O 0.45793 0.70222 0.83845 0.0
N307 N 0.40827 0.71065 0.86727 0.0
C308 C 0.40267 0.73885 0.85917 0.0
C309 C 0.41589 0.7586 0.87641 0.0
C310 C 0.42444 0.71379 0.88949 0.0
N311 N 0.42938 0.74275 0.89551 0.0
C312 C 0.36819 0.70595 0.81154 0.0
C313 C 0.41222 0.69617 0.77443 0.0
C314 C 0.38981 0.71706 0.76935 0.0
C315 C 0.36688 0.72091 0.78768 0.0
C316 C 0.41273 0.68171 0.79874 0.0
N317 N 0.39215 0.68848 0.81775 0.0
H318 H 0.35075 0.71016 0.82567 0.0
H319 H 0.43007 0.66555 0.80204 0.0
H320 H 0.38958 0.74524 0.84235 0.0
H321 H 0.43255 0.69513 0.90097 0.0
O322 O 0.35446 0.68309 0.86532 0.0
O323 O 0.38832 0.65879 0.88889 0.0
O324 O 0.43663 0.65844 0.84953 0.0
C325 C 0.36189 0.67075 0.8875 0.0
H326 H 0.38318 0.57031 0.8097 0.0
H327 H 0.41492 0.78274 0.87538 0.0
H328 H 0.42975 0.69192 0.76023 0.0
H329 H 0.34855 0.73613 0.78394 0.0
Co330 Co 0.22202 0.36697 0.90854 0.0
C331 C 0.28445 0.34825 0.89677 0.0
C332 C 0.26373 0.36964 0.86388 0.0
C333 C 0.29314 0.36382 0.85765 0.0
N334 N 0.2583 0.35995 0.88849 0.0
N335 N 0.30624 0.35047 0.87847 0.0
H336 H 0.28775 0.3388 0.91596 0.0
H337 H 0.24768 0.3811 0.8516 0.0
C338 C 0.23685 0.43101 0.90573 0.0
O339 O 0.24912 0.42798 0.92901 0.0
N340 N 0.18599 0.37419 0.92826 0.0
C341 C 0.16058 0.35777 0.92873 0.0
C342 C 0.14064 0.37108 0.94582 0.0
C343 C 0.18162 0.39653 0.94536 0.0
N344 N 0.15428 0.39513 0.95627 0.0
C345 C 0.20092 0.32751 0.8685 0.0
C346 C 0.15474 0.36438 0.85234 0.0
C347 C 0.1566 0.33543 0.84195 0.0
C348 C 0.18063 0.31718 0.84971 0.0
C349 C 0.17588 0.37406 0.87046 0.0
N350 N 0.19799 0.35539 0.87884 0.0
H351 H 0.21857 0.31296 0.87534 0.0
H352 H 0.17317 0.39591 0.87916 0.0
H353 H 0.15681 0.33762 0.91745 0.0
H354 H 0.19807 0.41352 0.94985 0.0
O355 O 0.22602 0.32868 0.92617 0.0
O356 O 0.24474 0.37175 0.94028 0.0
O357 O 0.22289 0.40918 0.89525 0.0
C358 C 0.24063 0.34339 0.94419 0.0
H359 H 0.30416 0.37012 0.83956 0.0
H360 H 0.11827 0.36352 0.95057 0.0
H361 H 0.13642 0.37915 0.84749 0.0
H362 H 0.18358 0.29497 0.8417 0.0
Co363 Co 0.58325 0.2924 0.88466 0.0
C364 C 0.6184 0.34176 0.86054 0.0
C365 C 0.57427 0.35595 0.87078 0.0
C366 C 0.59002 0.38036 0.86194 0.0
N367 N 0.59166 0.33136 0.86911 0.0
N368 N 0.6178 0.37139 0.85568 0.0
H369 H 0.63856 0.32855 0.8596 0.0
H370 H 0.55251 0.35696 0.87989 0.0
C371 C 0.52121 0.30963 0.86681 0.0
O372 O 0.53128 0.31552 0.8431 0.0
N373 N 0.57508 0.25444 0.90101 0.0
C374 C 0.58533 0.22702 0.89465 0.0
C375 C 0.57457 0.20673 0.91285 0.0
C376 C 0.55888 0.25071 0.92297 0.0
N377 N 0.55823 0.22193 0.93058 0.0
C378 C 0.60625 0.27403 0.8349 0.0
C379 C 0.55689 0.24102 0.81932 0.0
C380 C 0.58209 0.2421 0.80312 0.0
C381 C 0.607 0.25873 0.81111 0.0
C382 C 0.55728 0.25627 0.84326 0.0
N383 N 0.58142 0.27331 0.85042 0.0
H384 H 0.62615 0.28544 0.84128 0.0
H385 H 0.53849 0.25361 0.8564 0.0
H386 H 0.59998 0.22219 0.87829 0.0
H387 H 0.54819 0.26883 0.93348 0.0
O388 O 0.62523 0.28686 0.89227 0.0
O389 O 0.59244 0.30923 0.9185 0.0
O390 O 0.539 0.30073 0.88482 0.0
C391 C 0.61977 0.30045 0.91438 0.0
H392 H 0.58247 0.40333 0.86227 0.0
H393 H 0.57925 0.18302 0.91361 0.0
H394 H 0.53762 0.22758 0.81403 0.0
H395 H 0.62709 0.25952 0.79921 0.0
Co396 Co 0.77451 0.40077 0.08513 0.0
C397 C 0.71117 0.38766 0.10059 0.0
C398 C 0.73531 0.41246 0.12985 0.0
C399 C 0.70605 0.41001 0.13778 0.0
N400 N 0.73857 0.39865 0.10643 0.0
N401 N 0.69101 0.39445 0.11935 0.0
H402 H 0.70544 0.37625 0.08256 0.0
H403 H 0.75283 0.4245 0.14004 0.0
C404 C 0.79173 0.46713 0.08889 0.0
O405 O 0.81671 0.46438 0.0756 0.0
N406 N 0.81042 0.4029 0.06396 0.0
C407 C 0.83708 0.38941 0.0679 0.0
C408 C 0.85588 0.39646 0.04731 0.0
C409 C 0.81287 0.41649 0.0405 0.0
N410 N 0.84035 0.41321 0.03015 0.0
C411 C 0.79103 0.36362 0.12727 0.0
C412 C 0.83614 0.39933 0.14763 0.0
C413 C 0.82927 0.37214 0.15979 0.0
C414 C 0.80641 0.35423 0.14944 0.0
C415 C 0.81975 0.40819 0.12562 0.0
N416 N 0.7977 0.39023 0.1157 0.0
H417 H 0.77345 0.34964 0.11937 0.0
H418 H 0.82546 0.42894 0.11617 0.0
H419 H 0.84265 0.37531 0.08442 0.0
H420 H 0.79529 0.42976 0.03169 0.0
O421 O 0.76766 0.3613 0.07075 0.0
O422 O 0.75042 0.40378 0.05393 0.0
O423 O 0.7755 0.44446 0.09429 0.0
C424 C 0.75269 0.37485 0.05232 0.0
H425 H 0.6964 0.41946 0.15543 0.0
H426 H 0.87904 0.3899 0.04509 0.0
H427 H 0.85389 0.41351 0.15509 0.0
H428 H 0.80083 0.33284 0.15816 0.0
Co429 Co 0.59899 0.6987 0.08792 0.0
C430 C 0.64518 0.65508 0.10331 0.0
C431 C 0.6016 0.63491 0.1014 0.0
C432 C 0.62223 0.61302 0.10677 0.0
N433 N 0.61602 0.66125 0.09924 0.0
N434 N 0.64965 0.62568 0.10778 0.0
H435 H 0.66284 0.67159 0.10212 0.0
H436 H 0.57797 0.63144 0.09804 0.0
C437 C 0.53555 0.69755 0.10584 0.0
O438 O 0.53944 0.72422 0.11614 0.0
N439 N 0.58123 0.73561 0.07558 0.0
C440 C 0.58817 0.76472 0.07928 0.0
C441 C 0.56984 0.78189 0.06348 0.0
C442 C 0.55914 0.73565 0.05763 0.0
N443 N 0.55156 0.76341 0.05001 0.0
C444 C 0.62682 0.73497 0.12719 0.0
C445 C 0.60095 0.70706 0.16996 0.0
C446 C 0.62254 0.72932 0.17436 0.0
C447 C 0.63522 0.74358 0.15247 0.0
C448 C 0.59283 0.69951 0.1443 0.0
N449 N 0.60515 0.71395 0.12325 0.0
H450 H 0.63878 0.74441 0.11076 0.0
H451 H 0.57778 0.6809 0.14143 0.0
H452 H 0.60564 0.77338 0.0917 0.0
H453 H 0.54972 0.71538 0.04944 0.0
O454 O 0.63683 0.71015 0.07233 0.0
O455 O 0.60077 0.68483 0.05216 0.0
O456 O 0.55758 0.68346 0.09584 0.0
C457 C 0.62734 0.69663 0.05125 0.0
H458 H 0.61756 0.58932 0.10812 0.0
H459 H 0.57039 0.80598 0.06166 0.0
H460 H 0.59135 0.69456 0.18611 0.0
H461 H 0.65205 0.76083 0.15471 0.0
Co462 Co 0.23809 0.61484 0.08918 0.0
C463 C 0.30164 0.63615 0.09155 0.0
C464 C 0.28306 0.62817 0.12974 0.0
C465 C 0.31242 0.63674 0.13274 0.0
N466 N 0.27605 0.6282 0.10392 0.0
N467 N 0.32405 0.64159 0.10871 0.0
H468 H 0.30429 0.63744 0.07049 0.0
H469 H 0.26813 0.62145 0.14538 0.0
C470 C 0.23186 0.55124 0.11148 0.0
O471 O 0.20501 0.54633 0.10212 0.0
N472 N 0.20038 0.60172 0.0745 0.0
C473 C 0.17287 0.61346 0.07797 0.0
C474 C 0.15233 0.59584 0.0649 0.0
C475 C 0.19647 0.57854 0.05809 0.0
N476 N 0.16731 0.57361 0.05289 0.0
C477 C 0.22152 0.66207 0.12331 0.0
C478 C 0.19011 0.62707 0.15868 0.0
C479 C 0.1961 0.65695 0.16484 0.0
C480 C 0.21113 0.67486 0.14649 0.0
C481 C 0.201 0.61518 0.13538 0.0
N482 N 0.21753 0.63235 0.11864 0.0
H483 H 0.23443 0.67552 0.10978 0.0
H484 H 0.19637 0.59214 0.13103 0.0
H485 H 0.16783 0.63288 0.0898 0.0
H486 H 0.21454 0.56429 0.05157 0.0
O487 O 0.23702 0.64816 0.06504 0.0
O488 O 0.25778 0.60388 0.05723 0.0
O489 O 0.24517 0.57634 0.10881 0.0
C490 C 0.25131 0.6306 0.04895 0.0
H491 H 0.32466 0.63794 0.15108 0.0
H492 H 0.12824 0.59817 0.06543 0.0
H493 H 0.17775 0.61282 0.17205 0.0
H494 H 0.21623 0.69808 0.1506 0.0
Co495 Co 0.41809 0.31859 0.11589 0.0
C496 C 0.38303 0.37499 0.12124 0.0
C497 C 0.42615 0.37761 0.13954 0.0
C498 C 0.41076 0.40326 0.14526 0.0
N499 N 0.40894 0.35987 0.12432 0.0
N500 N 0.38352 0.40147 0.13399 0.0
H501 H 0.3634 0.36595 0.11176 0.0
H502 H 0.4475 0.37143 0.14777 0.0
C503 C 0.48698 0.31641 0.11608 0.0
O504 O 0.48825 0.28714 0.11571 0.0
N505 N 0.42702 0.2775 0.10729 0.0
C506 C 0.41768 0.25205 0.119 0.0
C507 C 0.42826 0.22795 0.10469 0.0
C508 C 0.4417 0.26867 0.08563 0.0
N509 N 0.44364 0.23877 0.08402 0.0
C510 C 0.39134 0.31774 0.16589 0.0
C511 C 0.43615 0.28833 0.19286 0.0
C512 C 0.41009 0.29683 0.2061 0.0
C513 C 0.38775 0.31205 0.19247 0.0
C514 C 0.4393 0.29539 0.16623 0.0
N515 N 0.41684 0.30964 0.15307 0.0
H516 H 0.37325 0.32829 0.15539 0.0
H517 H 0.45909 0.28817 0.15615 0.0
H518 H 0.4042 0.25103 0.13662 0.0
H519 H 0.45173 0.28398 0.07168 0.0
O520 O 0.37681 0.3102 0.10769 0.0
O521 O 0.41097 0.32609 0.07905 0.0
O522 O 0.46194 0.33017 0.11711 0.0
C523 C 0.3837 0.31727 0.08366 0.0
H524 H 0.41867 0.42125 0.15768 0.0
H525 H 0.4256 0.20452 0.10943 0.0
H526 H 0.45345 0.27574 0.20282 0.0
H527 H 0.3669 0.31806 0.20196 0.0
H528 H 0.24832 0.03452 0.38643 0.0
H529 H 0.24322 0.06366 0.30527 0.0
H530 H 0.22142 0.01519 0.29279 0.0
H531 H 0.26011 0.95048 0.37153 0.0
H532 H 0.23696 0.94069 0.39924 0.0
H533 H 0.26004 0.97377 0.40045 0.0
H534 H 0.21317 0.00518 0.41159 0.0
H535 H 0.18987 0.97254 0.40974 0.0
H536 H 0.18158 0.00456 0.38953 0.0
H537 H 0.18769 0.97136 0.29136 0.0
H538 H 0.15098 0.93097 0.30033 0.0
H539 H 0.17947 0.92867 0.38158 0.0
C540 C 0.24415 0.03007 0.36583 0.0
C541 C 0.24737 0.05282 0.34684 0.0
C542 C 0.2409 0.04651 0.32015 0.0
C543 C 0.22853 0.019 0.31285 0.0
C544 C 0.22333 0.99785 0.33238 0.0
C545 C 0.23174 0.00266 0.35825 0.0
C546 C 0.21998 0.97815 0.37601 0.0
C547 C 0.24582 0.95967 0.38747 0.0
C548 C 0.19996 0.99089 0.39798 0.0
C549 C 0.202 0.9601 0.3564 0.0
C550 C 0.20446 0.97159 0.33128 0.0
C551 C 0.18646 0.96137 0.31069 0.0
C552 C 0.16553 0.93875 0.31592 0.0
C553 C 0.16308 0.92658 0.34141 0.0
C554 C 0.18183 0.93707 0.36173 0.0
H555 H 0.10781 0.12723 0.40129 0.0
H556 H 0.14431 0.16458 0.32977 0.0
H557 H 0.09297 0.17685 0.31454 0.0
H558 H 0.0473 0.09199 0.37455 0.0
H559 H 0.02116 0.09993 0.40058 0.0
H560 H 0.06056 0.09825 0.40758 0.0
H561 H 0.05914 0.15169 0.42707 0.0
H562 H 0.01955 0.15355 0.42053 0.0
H563 H 0.04426 0.18187 0.40764 0.0
H564 H 0.03784 0.17662 0.30433 0.0
H565 H 0.9829 0.17121 0.30224 0.0
H566 H 0.98221 0.13663 0.38188 0.0
C567 C 0.10486 0.13896 0.38286 0.0
C568 C 0.12968 0.14531 0.36667 0.0
C569 C 0.1254 0.16015 0.34248 0.0
C570 C 0.0964 0.16693 0.3337 0.0
C571 C 0.07219 0.15923 0.34969 0.0
C572 C 0.07619 0.1463 0.3741 0.0
C573 C 0.04652 0.13895 0.38699 0.0
C574 C 0.04374 0.10529 0.39274 0.0
C575 C 0.04211 0.15762 0.41204 0.0
C576 C 0.02515 0.14852 0.36553 0.0
C577 C 0.0404 0.16013 0.34418 0.0
C578 C 0.02564 0.1682 0.32115 0.0
C579 C 0.99448 0.16474 0.32005 0.0
C580 C 0.97839 0.15355 0.34193 0.0
C581 C 0.99397 0.14553 0.36499 0.0
H582 H 0.76867 0.93586 0.34105 0.0
H583 H 0.70284 0.98037 0.38976 0.0
H584 H 0.7193 0.02907 0.37231 0.0
H585 H 0.82402 0.98096 0.35642 0.0
H586 H 0.84292 0.98189 0.32513 0.0
H587 H 0.82001 0.95039 0.33357 0.0
H588 H 0.78817 0.95759 0.29163 0.0
H589 H 0.8114 0.98892 0.28249 0.0
H590 H 0.77144 0.99341 0.28494 0.0
H591 H 0.75004 0.07218 0.3587 0.0
H592 H 0.79223 0.10594 0.35077 0.0
H593 H 0.8402 0.03433 0.31176 0.0
C594 C 0.75679 0.95574 0.34715 0.0
C595 C 0.73444 0.95434 0.36673 0.0
C596 C 0.71991 0.98091 0.37466 0.0
C597 C 0.72908 0.0087 0.36477 0.0
C598 C 0.75275 0.00951 0.34693 0.0
C599 C 0.76625 0.98366 0.33796 0.0
C600 C 0.79465 0.99063 0.32285 0.0
C601 C 0.82198 0.97507 0.33526 0.0
C602 C 0.7912 0.98214 0.29374 0.0
C603 C 0.7961 0.02422 0.32628 0.0
C604 C 0.77123 0.03476 0.33947 0.0
C605 C 0.76916 0.06439 0.34763 0.0
C606 C 0.79339 0.08353 0.3429 0.0
C607 C 0.81967 0.07296 0.33033 0.0
C608 C 0.8204 0.04314 0.32117 0.0
H609 H 0.89812 0.88965 0.38354 0.0
H610 H 0.85404 0.80614 0.36369 0.0
H611 H 0.90344 0.7814 0.3607 0.0
H612 H 0.96041 0.88187 0.33998 0.0
H613 H 0.98654 0.89864 0.36264 0.0
H614 H 0.94772 0.90928 0.36342 0.0
H615 H 0.94495 0.89523 0.41285 0.0
H616 H 0.98377 0.88468 0.41222 0.0
H617 H 0.95591 0.85829 0.42314 0.0
H618 H 0.95843 0.76612 0.36023 0.0
H619 H 0.01355 0.76164 0.36264 0.0
H620 H 0.02009 0.85606 0.38154 0.0
C621 C 0.8987 0.86626 0.37819 0.0
C622 C 0.87215 0.8499 0.37364 0.0
C623 C 0.87407 0.81909 0.36741 0.0
C624 C 0.90202 0.80491 0.36555 0.0
C625 C 0.92774 0.82188 0.37001 0.0
C626 C 0.92622 0.85189 0.37624 0.0
C627 C 0.95691 0.86525 0.38044 0.0
C628 C 0.96326 0.89023 0.36042 0.0
C629 C 0.96059 0.87652 0.40885 0.0
C630 C 0.9761 0.83816 0.37534 0.0
C631 C 0.95899 0.81327 0.36949 0.0
C632 C 0.97202 0.78552 0.36468 0.0
C633 C 0.00333 0.78321 0.36605 0.0
C634 C 0.02115 0.80854 0.37207 0.0
C635 C 0.00719 0.83631 0.3766 0.0
H636 H 0.13674 0.06042 0.69121 0.0
H637 H 0.17613 0.13584 0.65042 0.0
H638 H 0.22587 0.11339 0.65502 0.0
H639 H 0.20552 0.04294 0.73503 0.0
H640 H 0.19853 0.00345 0.73151 0.0
H641 H 0.16766 0.02932 0.73223 0.0
H642 H 0.14884 0.00808 0.68805 0.0
H643 H 0.17965 0.98263 0.68646 0.0
H644 H 0.17329 0.00862 0.65992 0.0
H645 H 0.26763 0.0778 0.65273 0.0
H646 H 0.29722 0.03232 0.6443 0.0
H647 H 0.23292 0.98014 0.68856 0.0
C648 C 0.15603 0.07265 0.68415 0.0
C649 C 0.15246 0.09994 0.67064 0.0
C650 C 0.17818 0.11521 0.66133 0.0
C651 C 0.20667 0.1026 0.66387 0.0
C652 C 0.20929 0.07495 0.67622 0.0
C653 C 0.18469 0.06039 0.6867 0.0
C654 C 0.19264 0.02899 0.69525 0.0
C655 C 0.191 0.02601 0.7253 0.0
C656 C 0.17245 0.00571 0.6816 0.0
C657 C 0.22472 0.02726 0.68576 0.0
C658 C 0.23421 0.05429 0.67551 0.0
C659 C 0.26099 0.05683 0.66157 0.0
C660 C 0.27772 0.03089 0.65688 0.0
C661 C 0.26763 0.00286 0.66618 0.0
C662 C 0.24174 0.00143 0.68205 0.0
H663 H 0.83261 0.17583 0.60328 0.0
H664 H 0.83044 0.07915 0.60966 0.0
H665 H 0.88527 0.0789 0.61657 0.0
H666 H 0.90383 0.1821 0.57026 0.0
H667 H 0.91412 0.21551 0.58791 0.0
H668 H 0.87529 0.20742 0.58158 0.0
H669 H 0.86399 0.21118 0.63149 0.0
H670 H 0.90278 0.21913 0.63798 0.0
H671 H 0.88466 0.18822 0.65422 0.0
H672 H 0.94101 0.09018 0.6243 0.0
H673 H 0.9914 0.1119 0.63215 0.0
H674 H 0.95458 0.20088 0.62275 0.0
C675 C 0.84346 0.15452 0.60621 0.0
C676 C 0.82705 0.12752 0.60606 0.0
C677 C 0.84249 0.10014 0.60945 0.0
C678 C 0.87363 0.09979 0.61352 0.0
C679 C 0.88894 0.127 0.6141 0.0
C680 C 0.87425 0.15381 0.61045 0.0
C681 C 0.8953 0.18014 0.61271 0.0
C682 C 0.89725 0.19729 0.58656 0.0
C683 C 0.88613 0.20087 0.63546 0.0
C684 C 0.92416 0.16407 0.61867 0.0
C685 C 0.9203 0.13342 0.61913 0.0
C686 C 0.9442 0.11416 0.62401 0.0
C687 C 0.97269 0.12665 0.62848 0.0
C688 C 0.9768 0.15806 0.62836 0.0
C689 C 0.95212 0.17681 0.62338 0.0
H690 H 0.88373 0.96687 0.6702 0.0
H691 H 0.83267 0.88727 0.65039 0.0
H692 H 0.7869 0.91699 0.64849 0.0
H693 H 0.8223 0.00454 0.70895 0.0
H694 H 0.83268 0.04085 0.69657 0.0
H695 H 0.86085 0.01256 0.70123 0.0
H696 H 0.87699 0.01797 0.6524 0.0
H697 H 0.84916 0.04643 0.64815 0.0
H698 H 0.84916 0.01415 0.62692 0.0
H699 H 0.74884 0.95591 0.6399 0.0
H700 H 0.72057 0.00151 0.62847 0.0
H701 H 0.79467 0.05615 0.65547 0.0
C702 C 0.86281 0.95558 0.6661 0.0
C703 C 0.86211 0.92463 0.6605 0.0
C704 C 0.83416 0.91075 0.65518 0.0
C705 C 0.80782 0.92752 0.65395 0.0
C706 C 0.80953 0.95812 0.65855 0.0
C707 C 0.83621 0.97201 0.66496 0.0
C708 C 0.83234 0.00559 0.66676 0.0
C709 C 0.83733 0.01652 0.69507 0.0
C710 C 0.85314 0.02196 0.64738 0.0
C711 C 0.79979 0.00845 0.65883 0.0
C712 C 0.78695 0.98075 0.65449 0.0
C713 C 0.75827 0.97771 0.64402 0.0
C714 C 0.74243 0.00366 0.6375 0.0
C715 C 0.75524 0.03218 0.64169 0.0
C716 C 0.78399 0.03457 0.653 0.0
H717 H 0.02829 0.88136 0.67157 0.0
H718 H 0.01906 0.82829 0.60059 0.0
H719 H 0.07287 0.83553 0.59118 0.0
H720 H 0.07621 0.9354 0.64452 0.0
H721 H 0.09803 0.94039 0.67401 0.0
H722 H 0.05967 0.92847 0.67626 0.0
H723 H 0.07608 0.88192 0.70292 0.0
H724 H 0.11459 0.89364 0.7006 0.0
H725 H 0.1037 0.85698 0.68937 0.0
H726 H 0.12749 0.85097 0.5885 0.0
H727 H 0.17664 0.87668 0.59106 0.0
H728 H 0.14912 0.91985 0.66328 0.0
C729 C 0.03764 0.8709 0.65422 0.0
C730 C 0.01955 0.85414 0.63689 0.0
C731 C 0.03254 0.84125 0.61415 0.0
C732 C 0.06311 0.84507 0.60874 0.0
C733 C 0.08032 0.86186 0.62623 0.0
C734 C 0.06795 0.87469 0.64843 0.0
C735 C 0.09058 0.89354 0.66308 0.0
C736 C 0.08052 0.92639 0.66454 0.0
C737 C 0.09659 0.88074 0.69062 0.0
C738 C 0.11747 0.88983 0.6454 0.0
C739 C 0.11137 0.8711 0.62445 0.0
C740 C 0.1326 0.86542 0.60497 0.0
C741 C 0.16048 0.87991 0.60664 0.0
C742 C 0.16654 0.90006 0.62743 0.0
C743 C 0.14497 0.90445 0.64725 0.0
H744 H 0.69066 0.52243 0.80764 0.0
H745 H 0.76747 0.50016 0.85572 0.0
H746 H 0.74702 0.4493 0.86257 0.0
H747 H 0.63942 0.48986 0.84869 0.0
H748 H 0.61434 0.47688 0.82336 0.0
H749 H 0.63776 0.5089 0.81751 0.0
H750 H 0.65999 0.48338 0.77617 0.0
H751 H 0.63638 0.45129 0.78175 0.0
H752 H 0.67631 0.44671 0.77895 0.0
H753 H 0.71559 0.40299 0.868 0.0
H754 H 0.67454 0.36645 0.87403 0.0
H755 H 0.61688 0.42051 0.82492 0.0
C756 C 0.70373 0.5064 0.81868 0.0
C757 C 0.73097 0.5148 0.83059 0.0
C758 C 0.74681 0.49383 0.84605 0.0
C759 C 0.73538 0.46494 0.84999 0.0
C760 C 0.70795 0.45758 0.83858 0.0
C761 C 0.69228 0.47778 0.8233 0.0
C762 C 0.66149 0.46601 0.81637 0.0
C763 C 0.63682 0.48663 0.82714 0.0
C764 C 0.65837 0.46158 0.78654 0.0
C765 C 0.66197 0.43636 0.83064 0.0
C766 C 0.68917 0.43157 0.84284 0.0
C767 C 0.69436 0.4063 0.85821 0.0
C768 C 0.67099 0.38562 0.86144 0.0
C769 C 0.64269 0.39066 0.84977 0.0
C770 C 0.63837 0.41616 0.83393 0.0
H771 H 0.51238 0.69618 0.82482 0.0
H772 H 0.4745 0.61822 0.86328 0.0
H773 H 0.52438 0.59444 0.86361 0.0
H774 H 0.56367 0.65596 0.78308 0.0
H775 H 0.59256 0.68398 0.78571 0.0
H776 H 0.55383 0.69455 0.78838 0.0
H777 H 0.56448 0.71901 0.83366 0.0
H778 H 0.60322 0.70854 0.83113 0.0
H779 H 0.58161 0.69712 0.8593 0.0
H780 H 0.57919 0.58033 0.86146 0.0
H781 H 0.634 0.57621 0.85501 0.0
H782 H 0.63474 0.66277 0.81685 0.0
C783 C 0.5145 0.67408 0.83328 0.0
C784 C 0.4896 0.65907 0.84409 0.0
C785 C 0.49331 0.6301 0.85483 0.0
C786 C 0.52153 0.61644 0.85514 0.0
C787 C 0.54566 0.63196 0.84441 0.0
C788 C 0.54235 0.66005 0.83351 0.0
C789 C 0.57172 0.67203 0.82323 0.0
C790 C 0.57035 0.6769 0.79332 0.0
C791 C 0.58078 0.70087 0.8377 0.0
C792 C 0.59217 0.64641 0.83021 0.0
C793 C 0.57683 0.62353 0.84254 0.0
C794 C 0.59138 0.59801 0.85164 0.0
C795 C 0.62243 0.5959 0.84802 0.0
C796 C 0.63841 0.61905 0.83524 0.0
C797 C 0.62296 0.64449 0.82618 0.0
H798 H 0.25754 0.48511 0.92304 0.0
H799 H 0.23418 0.43627 0.8522 0.0
H800 H 0.25662 0.47624 0.82526 0.0
H801 H 0.24532 0.56165 0.89387 0.0
H802 H 0.27629 0.57751 0.91174 0.0
H803 H 0.2547 0.54753 0.92601 0.0
H804 H 0.30235 0.51607 0.93234 0.0
H805 H 0.32467 0.54553 0.91847 0.0
H806 H 0.32617 0.50854 0.90453 0.0
H807 H 0.29026 0.51601 0.80681 0.0
H808 H 0.3271 0.55635 0.79806 0.0
H809 H 0.32549 0.58095 0.88036 0.0
C810 C 0.25631 0.48329 0.90184 0.0
C811 C 0.24426 0.45755 0.88972 0.0
C812 C 0.24321 0.45584 0.86193 0.0
C813 C 0.25593 0.47844 0.84644 0.0
C814 C 0.26887 0.50292 0.85903 0.0
C815 C 0.26841 0.5059 0.8861 0.0
C816 C 0.2854 0.53347 0.89485 0.0
C817 C 0.26416 0.55639 0.90737 0.0
C818 C 0.31117 0.52539 0.91364 0.0
C819 C 0.29699 0.54447 0.86866 0.0
C820 C 0.28707 0.52671 0.84818 0.0
C821 C 0.29746 0.53063 0.82255 0.0
C822 C 0.31846 0.55334 0.81777 0.0
C823 C 0.32856 0.5719 0.83846 0.0
C824 C 0.31737 0.56758 0.8641 0.0
H825 H 0.34882 0.34571 0.83991 0.0
H826 H 0.33555 0.33747 0.92436 0.0
H827 H 0.38824 0.3246 0.92974 0.0
H828 H 0.40243 0.286 0.83302 0.0
H829 H 0.42484 0.30568 0.80918 0.0
H830 H 0.38529 0.31289 0.81139 0.0
H831 H 0.3961 0.36931 0.81811 0.0
H832 H 0.43567 0.36227 0.81592 0.0
H833 H 0.42061 0.38098 0.84435 0.0
H834 H 0.44241 0.31338 0.92669 0.0
H835 H 0.49529 0.3057 0.91523 0.0
H836 H 0.47482 0.32324 0.83316 0.0
C837 C 0.35681 0.3413 0.85958 0.0
C838 C 0.33741 0.34247 0.88158 0.0
C839 C 0.34925 0.33628 0.90693 0.0
C840 C 0.37943 0.32906 0.91032 0.0
C841 C 0.39776 0.32826 0.88828 0.0
C842 C 0.38702 0.3343 0.86341 0.0
C843 C 0.41185 0.33274 0.84316 0.0
C844 C 0.40573 0.30784 0.823 0.0
C845 C 0.41631 0.36314 0.82959 0.0
C846 C 0.4382 0.32506 0.86064 0.0
C847 C 0.42944 0.3224 0.88657 0.0
C848 C 0.4496 0.31541 0.90646 0.0
C849 C 0.47961 0.31108 0.89971 0.0
C850 C 0.48927 0.31395 0.87329 0.0
C851 C 0.46818 0.321 0.85353 0.0
H852 H 0.66018 0.57255 0.1314 0.0
H853 H 0.70251 0.64261 0.0857 0.0
H854 H 0.7482 0.61208 0.08216 0.0
H855 H 0.7294 0.5446 0.16502 0.0
H856 H 0.71683 0.50639 0.16259 0.0
H857 H 0.68997 0.53613 0.16599 0.0
H858 H 0.66311 0.51811 0.12362 0.0
H859 H 0.68982 0.48846 0.12017 0.0
H860 H 0.68424 0.51452 0.09362 0.0
H861 H 0.78598 0.57058 0.07743 0.0
H862 H 0.81172 0.52209 0.07186 0.0
H863 H 0.74422 0.47956 0.12049 0.0
C864 C 0.67928 0.58175 0.12114 0.0
C865 C 0.67775 0.61002 0.10894 0.0
C866 C 0.70326 0.62126 0.09563 0.0
C867 C 0.72934 0.60401 0.09345 0.0
C868 C 0.72968 0.57574 0.10495 0.0
C869 C 0.70535 0.56483 0.11876 0.0
C870 C 0.70993 0.53265 0.12683 0.0
C871 C 0.71164 0.52979 0.1569 0.0
C872 C 0.68533 0.51226 0.11536 0.0
C873 C 0.73997 0.52668 0.11429 0.0
C874 C 0.75136 0.55188 0.10218 0.0
C875 C 0.77759 0.55086 0.08732 0.0
C876 C 0.79208 0.52323 0.08426 0.0
C877 C 0.78004 0.49703 0.09576 0.0
C878 C 0.75418 0.49917 0.11159 0.0
H879 H 0.48589 0.70889 0.1359 0.0
H880 H 0.5163 0.65962 0.0675 0.0
H881 H 0.46477 0.64185 0.05954 0.0
H882 H 0.43385 0.65278 0.15814 0.0
H883 H 0.40665 0.67948 0.16954 0.0
H884 H 0.44577 0.68919 0.16924 0.0
H885 H 0.43396 0.73572 0.14077 0.0
H886 H 0.39482 0.72604 0.14082 0.0
H887 H 0.41425 0.73109 0.1101 0.0
H888 H 0.40973 0.63037 0.05841 0.0
H889 H 0.35596 0.62172 0.06692 0.0
H890 H 0.36178 0.67636 0.13716 0.0
C891 C 0.48166 0.69429 0.11932 0.0
C892 C 0.50503 0.68554 0.10237 0.0
C893 C 0.49874 0.66632 0.08091 0.0
C894 C 0.46952 0.6563 0.0761 0.0
C895 C 0.44693 0.6654 0.09312 0.0
C896 C 0.45269 0.68363 0.1145 0.0
C897 C 0.42459 0.6891 0.13037 0.0
C898 C 0.42792 0.6769 0.15848 0.0
C899 C 0.41643 0.72247 0.13051 0.0
C900 C 0.40218 0.67101 0.11464 0.0
C901 C 0.41542 0.6579 0.093 0.0
C902 C 0.39913 0.64042 0.07535 0.0
C903 C 0.3686 0.63579 0.08024 0.0
C904 C 0.35481 0.64828 0.10276 0.0
C905 C 0.37186 0.6663 0.11998 0.0
H906 H 0.24348 0.49728 0.08964 0.0
H907 H 0.2602 0.55186 0.15845 0.0
H908 H 0.29652 0.51458 0.17468 0.0
H909 H 0.25674 0.42151 0.12017 0.0
H910 H 0.27609 0.40842 0.09132 0.0
H911 H 0.24641 0.43537 0.08816 0.0
H912 H 0.28233 0.4706 0.06323 0.0
H913 H 0.31234 0.44422 0.06667 0.0
H914 H 0.31699 0.48192 0.07848 0.0
H915 H 0.33497 0.47589 0.18049 0.0
H916 H 0.3748 0.43865 0.17542 0.0
H917 H 0.33657 0.41078 0.10081 0.0
C918 C 0.25387 0.50052 0.10868 0.0
C919 C 0.24865 0.52673 0.12335 0.0
C920 C 0.26363 0.53142 0.14743 0.0
C921 C 0.28418 0.51041 0.15673 0.0
C922 C 0.28972 0.48517 0.14144 0.0
C923 C 0.27506 0.48008 0.11789 0.0
C924 C 0.28846 0.4537 0.10337 0.0
C925 C 0.26554 0.42824 0.10061 0.0
C926 C 0.30076 0.4632 0.07635 0.0
C927 C 0.31345 0.44535 0.1221 0.0
C928 C 0.31333 0.46346 0.14411 0.0
C929 C 0.33518 0.46137 0.16348 0.0
C930 C 0.35796 0.44036 0.16023 0.0
C931 C 0.35904 0.42193 0.13758 0.0
C932 C 0.33617 0.42425 0.11848 0.0
H933 H 0.54328 0.29736 0.10249 0.0
H934 H 0.49423 0.37526 0.12933 0.0
H935 H 0.54109 0.40397 0.13145 0.0
H936 H 0.60773 0.30727 0.14161 0.0
H937 H 0.63393 0.29594 0.11662 0.0
H938 H 0.59632 0.2815 0.11623 0.0
H939 H 0.58922 0.30072 0.0686 0.0
H940 H 0.62692 0.31511 0.0688 0.0
H941 H 0.59609 0.33957 0.06134 0.0
H942 H 0.59317 0.42306 0.13422 0.0
H943 H 0.64764 0.43259 0.13424 0.0
H944 H 0.66319 0.34382 0.10305 0.0
C945 C 0.5424 0.32047 0.10878 0.0
C946 C 0.51507 0.3339 0.1162 0.0
C947 C 0.51481 0.36433 0.12386 0.0
C948 C 0.54135 0.3809 0.12505 0.0
C949 C 0.56791 0.36691 0.11798 0.0
C950 C 0.56866 0.33755 0.1096 0.0
C951 C 0.60031 0.32798 0.10309 0.0
C952 C 0.61014 0.30162 0.12043 0.0
C953 C 0.6033 0.3204 0.07371 0.0
C954 C 0.61726 0.35631 0.10994 0.0
C955 C 0.59807 0.37845 0.11848 0.0
C956 C 0.60844 0.40606 0.12729 0.0
C957 C 0.63933 0.4112 0.12742 0.0
C958 C 0.65939 0.38893 0.11864 0.0
C959 C 0.64818 0.36128 0.10953 0.0
H960 H 0.18391 0.11076 0.46335 0.0
H961 H 0.2396 0.19018 0.46556 0.0
H962 H 0.2176 0.20413 0.50847 0.0
H963 H 0.11893 0.1466 0.48862 0.0
H964 H 0.10623 0.11454 0.50695 0.0
H965 H 0.12832 0.10945 0.47772 0.0
H966 H 0.16675 0.07836 0.5043 0.0
H967 H 0.1448 0.08343 0.53365 0.0
H968 H 0.18365 0.09428 0.53331 0.0
H969 H 0.18969 0.20928 0.55078 0.0
H970 H 0.15386 0.20841 0.58769 0.0
H971 H 0.11351 0.12769 0.55612 0.0
C972 C 0.19168 0.13085 0.47313 0.0
C973 C 0.2136 0.1493 0.46157 0.0
C974 C 0.22282 0.17582 0.47435 0.0
C975 C 0.2106 0.1838 0.4987 0.0
C976 C 0.18888 0.1652 0.50961 0.0
C977 C 0.17918 0.1395 0.4971 0.0
C978 C 0.15386 0.12475 0.51202 0.0
C979 C 0.12515 0.1238 0.49533 0.0
C980 C 0.16282 0.09334 0.52138 0.0
C981 C 0.15087 0.14617 0.53488 0.0
C982 C 0.1716 0.16906 0.53332 0.0
C983 C 0.1733 0.19151 0.55222 0.0
C984 C 0.15295 0.19078 0.57311 0.0
C985 C 0.13095 0.16804 0.57461 0.0
C986 C 0.13006 0.14538 0.55535 0.0
H987 H 0.84872 0.11204 0.43182 0.0
H988 H 0.7931 0.17827 0.39334 0.0
H989 H 0.7536 0.17002 0.42646 0.0
H990 H 0.78733 0.06143 0.45025 0.0
H991 H 0.80444 0.05183 0.4812 0.0
H992 H 0.82749 0.06164 0.45346 0.0
H993 H 0.85322 0.10306 0.48113 0.0
H994 H 0.83026 0.09342 0.50891 0.0
H995 H 0.83059 0.13124 0.49675 0.0
H996 H 0.72231 0.15813 0.46637 0.0
H997 H 0.7007 0.14133 0.50873 0.0
H998 H 0.77577 0.08129 0.51953 0.0
C999 C 0.82809 0.12455 0.43019 0.0
C1000 C 0.82397 0.14583 0.41008 0.0
C1001 C 0.79669 0.16179 0.40859 0.0
C1002 C 0.77411 0.15727 0.4273 0.0
C1003 C 0.77903 0.13642 0.44714 0.0
C1004 C 0.80521 0.12008 0.44853 0.0
C1005 C 0.80531 0.09967 0.47222 0.0
C1006 C 0.80619 0.06669 0.46377 0.0
C1007 C 0.83138 0.10732 0.49085 0.0
C1008 C 0.77544 0.10763 0.48428 0.0
C1009 C 0.76057 0.12885 0.46956 0.0
C1010 C 0.73348 0.14112 0.47784 0.0
C1011 C 0.72141 0.13152 0.50189 0.0
C1012 C 0.73636 0.10976 0.51715 0.0
C1013 C 0.7635 0.0975 0.508 0.0
H1014 H 0.87578 0.80888 0.55684 0.0
H1015 H 0.84536 0.88502 0.60189 0.0
H1016 H 0.80987 0.89814 0.56624 0.0
H1017 H 0.87633 0.84346 0.49615 0.0
H1018 H 0.86339 0.81173 0.47748 0.0
H1019 H 0.88332 0.80607 0.50779 0.0
H1020 H 0.83932 0.77456 0.52605 0.0
H1021 H 0.81933 0.77975 0.49561 0.0
H1022 H 0.80212 0.79005 0.52633 0.0
H1023 H 0.78323 0.90648 0.5235 0.0
H1024 H 0.76398 0.90745 0.47797 0.0
H1025 H 0.81027 0.82452 0.46126 0.0
C1026 C 0.86084 0.8277 0.55941 0.0
C1027 C 0.86241 0.84565 0.5821 0.0
C1028 C 0.84357 0.8707 0.5848 0.0
C1029 C 0.82359 0.87834 0.56463 0.0
C1030 C 0.82286 0.86049 0.54213 0.0
C1031 C 0.84067 0.83542 0.53957 0.0
C1032 C 0.83694 0.82105 0.51282 0.0
C1033 C 0.86676 0.82057 0.49768 0.0
C1034 C 0.82362 0.78948 0.51536 0.0
C1035 C 0.81485 0.8424 0.50042 0.0
C1036 C 0.80703 0.865 0.51765 0.0
C1037 C 0.78873 0.88861 0.51001 0.0
C1038 C 0.77806 0.88907 0.48411 0.0
C1039 C 0.78546 0.86591 0.46633 0.0
C1040 C 0.80387 0.84219 0.47467 0.0
H1041 H 0.19105 0.85246 0.44292 0.0
H1042 H 0.11172 0.90773 0.44846 0.0
H1043 H 0.1375 0.9404 0.48058 0.0
H1044 H 0.20766 0.85314 0.50991 0.0
H1045 H 0.24767 0.85367 0.50555 0.0
H1046 H 0.22415 0.8373 0.48074 0.0
H1047 H 0.24761 0.8726 0.44587 0.0
H1048 H 0.27096 0.8894 0.47074 0.0
H1049 H 0.24672 0.91244 0.45102 0.0
H1050 H 0.17116 0.96536 0.51377 0.0
H1051 H 0.20717 0.97642 0.5495 0.0
H1052 H 0.26306 0.90322 0.5233 0.0
C1053 C 0.17924 0.87164 0.45069 0.0
C1054 C 0.14951 0.87771 0.44326 0.0
C1055 C 0.13454 0.9027 0.45406 0.0
C1056 C 0.14909 0.92152 0.47206 0.0
C1057 C 0.17849 0.91491 0.47901 0.0
C1058 C 0.19326 0.89036 0.46886 0.0
C1059 C 0.22362 0.88634 0.48139 0.0
C1060 C 0.22588 0.85582 0.49522 0.0
C1061 C 0.24871 0.89045 0.46104 0.0
C1062 C 0.22323 0.91181 0.50087 0.0
C1063 C 0.19742 0.92861 0.49871 0.0
C1064 C 0.19157 0.95256 0.51549 0.0
C1065 C 0.21217 0.95879 0.53559 0.0
C1066 C 0.23777 0.94068 0.53891 0.0
C1067 C 0.24369 0.91748 0.52095 0.0
H1068 H 0.68618 0.6125 0.92427 0.0
H1069 H 0.75756 0.67803 0.91913 0.0
H1070 H 0.73668 0.70461 0.95773 0.0
H1071 H 0.62804 0.6651 0.94235 0.0
H1072 H 0.60958 0.63892 0.96386 0.0
H1073 H 0.63018 0.62557 0.9358 0.0
H1074 H 0.6621 0.59182 0.96628 0.0
H1075 H 0.64162 0.60507 -0.0056 0.0
H1076 H 0.6818 0.60836 -0.00638 0.0
H1077 H 0.70965 0.72155 -0.00097 0.0
H1078 H 0.67663 0.72962 0.03751 0.0
H1079 H 0.62155 0.65469 0.01299 0.0
C1080 C 0.6974 0.63247 0.93127 0.0
C1081 C 0.72355 0.64318 0.91901 0.0
C1082 C 0.73744 0.66956 0.92838 0.0
C1083 C 0.72578 0.68472 0.95026 0.0
C1084 C 0.69999 0.67342 0.96207 0.0
C1085 C 0.68578 0.6481 0.95266 0.0
C1086 C 0.65826 0.6406 0.96859 0.0
C1087 C 0.62984 0.64268 0.95164 0.0
C1088 C 0.66114 0.60963 0.98149 0.0
C1089 C 0.65947 0.66531 0.9888 0.0
C1090 C 0.68375 0.68396 0.98487 0.0
C1091 C 0.69032 0.70736 0.00207 0.0
C1092 C 0.67154 0.71174 0.02385 0.0
C1093 C 0.64643 0.69301 0.02793 0.0
C1094 C 0.64029 0.66971 0.01005 0.0
H1095 H 0.36428 0.63298 0.92925 0.0
H1096 H 0.31222 0.70505 0.89538 0.0
H1097 H 0.27735 0.70273 0.93312 0.0
H1098 H 0.30162 0.59059 0.95366 0.0
H1099 H 0.32127 0.57869 0.98272 0.0
H1100 H 0.34174 0.58665 0.95305 0.0
H1101 H 0.37465 0.62463 0.97891 0.0
H1102 H 0.35385 0.61696 0.00845 0.0
H1103 H 0.35692 0.65474 -0.0035 0.0
H1104 H 0.2497 0.69381 0.97591 0.0
H1105 H 0.22959 0.67647 0.01876 0.0
H1106 H 0.29852 0.60851 0.02215 0.0
C1107 C 0.34559 0.64833 0.92982 0.0
C1108 C 0.34093 0.66932 0.90964 0.0
C1109 C 0.31606 0.6888 0.91078 0.0
C1110 C 0.29623 0.68769 0.9321 0.0
C1111 C 0.3015 0.66672 0.95178 0.0
C1112 C 0.32543 0.64721 0.95066 0.0
C1113 C 0.32595 0.62642 0.974 0.0
C1114 C 0.32243 0.59365 0.96532 0.0
C1115 C 0.35453 0.63097 0.99043 0.0
C1116 C 0.29861 0.63729 0.98848 0.0
C1117 C 0.28493 0.66075 0.9756 0.0
C1118 C 0.26001 0.67523 0.98604 0.0
C1119 C 0.2488 0.66533 0.01031 0.0
C1120 C 0.26233 0.641 0.0234 0.0
C1121 C 0.28741 0.62683 0.01226 0.0
H1122 H 0.24853 0.36536 0.9932 0.0
H1123 H 0.26902 0.2896 0.94336 0.0
H1124 H 0.30594 0.27189 0.97611 0.0
H1125 H 0.3182 0.38208 0.01307 0.0
H1126 H 0.30996 0.39105 0.04684 0.0
H1127 H 0.28151 0.39519 0.02216 0.0
H1128 H 0.24614 0.36056 0.04813 0.0
H1129 H 0.27413 0.35609 0.07335 0.0
H1130 H 0.2584 0.32369 0.05745 0.0
H1131 H 0.34739 0.26892 0.00938 0.0
H1132 H 0.38472 0.2758 0.04501 0.0
H1133 H 0.33423 0.351 0.07486 0.0
C1134 C 0.25999 0.34441 0.98976 0.0
C1135 C 0.25604 0.32865 0.96603 0.0
C1136 C 0.27152 0.30159 0.96174 0.0
C1137 C 0.29263 0.29154 0.98012 0.0
C1138 C 0.29709 0.30839 0.00287 0.0
C1139 C 0.28048 0.33373 0.00817 0.0
C1140 C 0.29056 0.34868 0.03336 0.0
C1141 C 0.30066 0.38116 0.02853 0.0
C1142 C 0.26583 0.34716 0.05431 0.0
C1143 C 0.31664 0.32889 0.04054 0.0
C1144 C 0.32005 0.30573 0.02276 0.0
C1145 C 0.34444 0.28639 0.02385 0.0
C1146 C 0.36561 0.2906 0.04388 0.0
C1147 C 0.36194 0.31373 0.06248 0.0
C1148 C 0.33713 0.33291 0.06097 0.0
H1149 H 0.62067 0.34406 0.95156 0.0
H1150 H 0.67223 0.26996 0.92068 0.0
H1151 H 0.7117 0.27967 0.95387 0.0
H1152 H 0.68283 0.39243 0.96226 0.0
H1153 H 0.66763 0.40868 0.99179 0.0
H1154 H 0.64289 0.39455 0.96675 0.0
H1155 H 0.61725 0.36028 0.00116 0.0
H1156 H 0.64204 0.37406 0.02636 0.0
H1157 H 0.63962 0.33452 0.01995 0.0
H1158 H 0.74468 0.29692 0.99168 0.0
H1159 H 0.77089 0.32366 0.02778 0.0
H1160 H 0.69924 0.38867 0.03053 0.0
C1161 C 0.64018 0.32974 0.95192 0.0
C1162 C 0.64344 0.30612 0.93383 0.0
C1163 C 0.66944 0.28817 0.9345 0.0
C1164 C 0.69183 0.29343 0.9533 0.0
C1165 C 0.68794 0.31697 0.97094 0.0
C1166 C 0.6629 0.33504 0.97015 0.0
C1167 C 0.6647 0.35983 0.99028 0.0
C1168 C 0.66451 0.39069 0.97697 0.0
C1169 C 0.6394 0.357 0.01064 0.0
C1170 C 0.69477 0.35306 0.00241 0.0
C1171 C 0.70762 0.32792 0.99141 0.0
C1172 C 0.73496 0.31679 0.00026 0.0
C1173 C 0.74962 0.33199 0.02073 0.0
C1174 C 0.73714 0.35827 0.0315 0.0
C1175 C 0.70943 0.36885 0.02223 0.0
H1176 H 0.32735 0.17921 0.29151 0.0
H1177 H 0.30421 0.25095 0.34525 0.0
H1178 H 0.33844 0.28483 0.32147 0.0
H1179 H 0.40687 0.19909 0.28557 0.0
H1180 H 0.4081 0.18865 0.25136 0.0
H1181 H 0.38286 0.16973 0.27344 0.0
H1182 H 0.33791 0.1831 0.24337 0.0
H1183 H 0.36308 0.20143 0.22105 0.0
H1184 H 0.33174 0.2216 0.23447 0.0
H1185 H 0.37145 0.3117 0.28937 0.0
H1186 H 0.39802 0.32991 0.24978 0.0
H1187 H 0.40311 0.23941 0.22012 0.0
C1188 C 0.32979 0.20189 0.29862 0.0
C1189 C 0.31307 0.21239 0.32025 0.0
C1190 C 0.3164 0.24249 0.32845 0.0
C1191 C 0.33616 0.26177 0.31536 0.0
C1192 C 0.35274 0.25042 0.29444 0.0
C1193 C 0.34972 0.22117 0.28615 0.0
C1194 C 0.3687 0.2148 0.26227 0.0
C1195 C 0.39308 0.1917 0.26855 0.0
C1196 C 0.34919 0.20466 0.23892 0.0
C1197 C 0.38207 0.24539 0.25775 0.0
C1198 C 0.3729 0.2656 0.27669 0.0
C1199 C 0.37947 0.29599 0.27484 0.0
C1200 C 0.39467 0.30612 0.25246 0.0
C1201 C 0.4032 0.28581 0.23255 0.0
C1202 C 0.39787 0.25504 0.23572 0.0
H1203 H 0.80646 0.3527 0.20588 0.0
H1204 H 0.88977 0.36559 0.16395 0.0
H1205 H 0.91639 0.3362 0.19789 0.0
H1206 H 0.83947 0.35073 0.27473 0.0
H1207 H 0.81307 0.32226 0.28435 0.0
H1208 H 0.80254 0.35008 0.26048 0.0
H1209 H 0.78812 0.30787 0.22792 0.0
H1210 H 0.79927 0.27996 0.25127 0.0
H1211 H 0.81572 0.28038 0.21893 0.0
H1212 H 0.93136 0.29749 0.23107 0.0
H1213 H 0.93428 0.25565 0.26275 0.0
H1214 H 0.84082 0.26858 0.28255 0.0
C1215 C 0.83051 0.35025 0.20448 0.0
C1216 C 0.84624 0.36133 0.1826 0.0
C1217 C 0.87756 0.35752 0.18092 0.0
C1218 C 0.89277 0.34082 0.20002 0.0
C1219 C 0.87625 0.32868 0.22068 0.0
C1220 C 0.84587 0.33374 0.22329 0.0
C1221 C 0.83249 0.3155 0.24532 0.0
C1222 C 0.82124 0.33586 0.26754 0.0
C1223 C 0.80745 0.29471 0.23523 0.0
C1224 C 0.85967 0.29807 0.25373 0.0
C1225 C 0.88484 0.30627 0.23967 0.0
C1226 C 0.91199 0.2914 0.24265 0.0
C1227 C 0.91341 0.26763 0.26056 0.0
C1228 C 0.88772 0.25888 0.27493 0.0
C1229 C 0.86072 0.27459 0.27162 0.0
H1230 H 0.7383 0.78652 0.28269 0.0
H1231 H 0.66626 0.7807 0.33958 0.0
H1232 H 0.63337 0.75854 0.30578 0.0
H1233 H 0.69475 0.80866 0.22943 0.0
H1234 H 0.71461 0.78722 0.20507 0.0
H1235 H 0.73362 0.79956 0.23433 0.0
H1236 H 0.74842 0.74495 0.24515 0.0
H1237 H 0.72976 0.73245 0.21571 0.0
H1238 H 0.71976 0.71662 0.24708 0.0
H1239 H 0.60669 0.74272 0.26464 0.0
H1240 H 0.58924 0.73073 0.21985 0.0
H1241 H 0.67946 0.74447 0.19036 0.0
C1242 C 0.71577 0.78009 0.2881 0.0
C1243 C 0.70487 0.78512 0.31376 0.0
C1244 C 0.67522 0.77653 0.32015 0.0
C1245 C 0.65631 0.76412 0.30105 0.0
C1246 C 0.66751 0.76013 0.27577 0.0
C1247 C 0.69668 0.76743 0.26935 0.0
C1248 C 0.70283 0.76198 0.24051 0.0
C1249 C 0.71198 0.79109 0.22652 0.0
C1250 C 0.7266 0.73754 0.23691 0.0
C1251 C 0.67232 0.75134 0.23157 0.0
C1252 C 0.65227 0.75037 0.25218 0.0
C1253 C 0.62233 0.74282 0.24841 0.0
C1254 C 0.61265 0.73594 0.22288 0.0
C1255 C 0.6329 0.73653 0.20144 0.0
C1256 C 0.66319 0.74414 0.2061 0.0
H1257 H 0.14638 0.78019 0.26817 0.0
H1258 H 0.171 0.71768 0.32969 0.0
H1259 H 0.18493 0.68044 0.29604 0.0
H1260 H 0.11366 0.72623 0.22459 0.0
H1261 H 0.12739 0.74414 0.19524 0.0
H1262 H 0.11977 0.76607 0.22416 0.0
H1263 H 0.17404 0.7867 0.22347 0.0
H1264 H 0.18178 0.76497 0.19447 0.0
H1265 H 0.20499 0.76094 0.22323 0.0
H1266 H 0.19547 0.65017 0.25611 0.0
H1267 H 0.20459 0.62934 0.21196 0.0
H1268 H 0.17182 0.71133 0.17669 0.0
C1269 C 0.1546 0.75862 0.27453 0.0
C1270 C 0.15767 0.75168 0.3014 0.0
C1271 C 0.16887 0.72344 0.3091 0.0
C1272 C 0.17659 0.70212 0.2902 0.0
C1273 C 0.17296 0.70956 0.26384 0.0
C1274 C 0.1624 0.73714 0.25598 0.0
C1275 C 0.16088 0.7396 0.22641 0.0
C1276 C 0.1285 0.74428 0.21706 0.0
C1277 C 0.18167 0.76452 0.21631 0.0
C1278 C 0.1723 0.70906 0.21888 0.0
C1279 C 0.17899 0.69205 0.24076 0.0
C1280 C 0.1902 0.66317 0.23879 0.0
C1281 C 0.19506 0.65148 0.21368 0.0
C1282 C 0.18871 0.66874 0.19103 0.0
C1283 C 0.17697 0.69776 0.19372 0.0
H1284 H 0.38617 0.77712 0.76882 0.0
H1285 H 0.39493 0.70022 0.71766 0.0
H1286 H 0.38917 0.73315 0.67877 0.0
H1287 H 0.32911 0.80962 0.73664 0.0
H1288 H 0.3409 0.84778 0.74149 0.0
H1289 H 0.35216 0.8195 0.76443 0.0
H1290 H 0.40787 0.83327 0.75684 0.0
H1291 H 0.39675 0.86184 0.73387 0.0
H1292 H 0.42279 0.8333 0.72393 0.0
H1293 H 0.37345 0.77277 0.64675 0.0
H1294 H 0.35014 0.81566 0.62408 0.0
H1295 H 0.35147 0.86606 0.69689 0.0
C1296 C 0.38761 0.76739 0.74936 0.0
C1297 C 0.39084 0.73634 0.74598 0.0
C1298 C 0.39264 0.72411 0.72042 0.0
C1299 C 0.38947 0.74262 0.69834 0.0
C1300 C 0.38511 0.77317 0.70239 0.0
C1301 C 0.38461 0.78548 0.72732 0.0
C1302 C 0.3762 0.81813 0.72679 0.0
C1303 C 0.34791 0.82407 0.74329 0.0
C1304 C 0.40248 0.83779 0.73589 0.0
C1305 C 0.37031 0.82197 0.69781 0.0
C1306 C 0.37613 0.79602 0.68393 0.0
C1307 C 0.36943 0.79338 0.65729 0.0
C1308 C 0.35596 0.81771 0.64467 0.0
C1309 C 0.34914 0.84411 0.65881 0.0
C1310 C 0.35712 0.84642 0.6855 0.0
H1311 H 0.13532 0.27794 0.83686 0.0
H1312 H 0.12536 0.36743 0.80487 0.0
H1313 H 0.08788 0.3487 0.77377 0.0
H1314 H 0.13942 0.24427 0.77753 0.0
H1315 H 0.12024 0.21037 0.78672 0.0
H1316 H 0.13941 0.2319 0.81126 0.0
H1317 H 0.0903 0.23509 0.83828 0.0
H1318 H 0.07086 0.21388 0.81338 0.0
H1319 H 0.05701 0.24999 0.82322 0.0
H1320 H 0.05953 0.32041 0.74136 0.0
H1321 H 0.04836 0.28389 0.7064 0.0
H1322 H 0.07853 0.21197 0.75657 0.0
C1323 C 0.12507 0.29375 0.82355 0.0
C1324 C 0.13318 0.32429 0.82368 0.0
C1325 C 0.11905 0.34409 0.80585 0.0
C1326 C 0.09758 0.33367 0.78807 0.0
C1327 C 0.09052 0.30336 0.78818 0.0
C1328 C 0.10408 0.28359 0.80528 0.0
C1329 C 0.09691 0.25151 0.79818 0.0
C1330 C 0.12569 0.23349 0.7931 0.0
C1331 C 0.07761 0.23675 0.81954 0.0
C1332 C 0.07909 0.25631 0.77325 0.0
C1333 C 0.07455 0.28644 0.76852 0.0
C1334 C 0.06217 0.29676 0.74511 0.0
C1335 C 0.05586 0.27595 0.72541 0.0
C1336 C 0.06222 0.24537 0.72927 0.0
C1337 C 0.07259 0.23521 0.75378 0.0
H1338 H 0.62366 0.20072 0.79033 0.0
H1339 H 0.54392 0.24446 0.76117 0.0
H1340 H 0.54967 0.21818 0.71847 0.0
H1341 H 0.66558 0.2052 0.73313 0.0
H1342 H 0.683 0.16913 0.7366 0.0
H1343 H 0.67076 0.18912 0.76529 0.0
H1344 H 0.63827 0.14376 0.77929 0.0
H1345 H 0.65053 0.12352 0.75064 0.0
H1346 H 0.61114 0.12864 0.75664 0.0
H1347 H 0.56819 0.19184 0.67753 0.0
H1348 H 0.59579 0.16464 0.64268 0.0
H1349 H 0.66173 0.13676 0.70007 0.0
C1350 C 0.60721 0.20437 0.77502 0.0
C1351 C 0.58345 0.22453 0.77871 0.0
C1352 C 0.56219 0.22889 0.7585 0.0
C1353 C 0.56531 0.21413 0.73431 0.0
C1354 C 0.58947 0.19479 0.73106 0.0
C1355 C 0.60977 0.18957 0.75105 0.0
C1356 C 0.6344 0.16873 0.74244 0.0
C1357 C 0.66524 0.18397 0.74448 0.0
C1358 C 0.63351 0.13942 0.75819 0.0
C1359 C 0.6254 0.16373 0.71418 0.0
C1360 C 0.59943 0.17887 0.70791 0.0
C1361 C 0.58819 0.1794 0.68234 0.0
C1362 C 0.60401 0.16409 0.6627 0.0
C1363 C 0.63052 0.14839 0.66894 0.0
C1364 C 0.64108 0.14801 0.69501 0.0
H1365 H 0.86093 0.68025 0.81439 0.0
H1366 H 0.85804 0.60497 0.76069 0.0
H1367 H 0.89722 0.62879 0.73365 0.0
H1368 H 0.8579 0.73165 0.76797 0.0
H1369 H 0.88152 0.75918 0.78353 0.0
H1370 H 0.86185 0.73242 0.80325 0.0
H1371 H 0.91185 0.71535 0.82423 0.0
H1372 H 0.93178 0.74231 0.80451 0.0
H1373 H 0.9422 0.70343 0.80343 0.0
H1374 H 0.92724 0.66469 0.70777 0.0
H1375 H 0.94202 0.71015 0.68371 0.0
H1376 H 0.92162 0.76403 0.75211 0.0
C1377 C 0.869 0.66843 0.79724 0.0
C1378 C 0.85628 0.6409 0.78948 0.0
C1379 C 0.86768 0.62595 0.76714 0.0
C1380 C 0.89001 0.63931 0.75172 0.0
C1381 C 0.90071 0.66745 0.75905 0.0
C1382 C 0.89059 0.68179 0.7814 0.0
C1383 C 0.90074 0.71404 0.78235 0.0
C1384 C 0.87391 0.73555 0.78436 0.0
C1385 C 0.92297 0.71906 0.80497 0.0
C1386 C 0.91613 0.71635 0.75603 0.0
C1387 C 0.91711 0.68892 0.74342 0.0
C1388 C 0.92735 0.68608 0.7177 0.0
C1389 C 0.93572 0.71202 0.7042 0.0
C1390 C 0.93313 0.74039 0.7163 0.0
C1391 C 0.92418 0.74245 0.74273 0.0
H1392 H 0.33905 0.06199 0.43461 0.0
H1393 H 0.35116 0.14244 0.48078 0.0
H1394 H 0.37188 0.11256 0.51708 0.0
H1395 H 0.31008 0.02071 0.48164 0.0
H1396 H 0.32721 0.98555 0.47324 0.0
H1397 H 0.32206 0.01344 0.44841 0.0
H1398 H 0.37878 0.01239 0.43789 0.0
H1399 H 0.38413 0.98421 0.46278 0.0
H1400 H 0.40559 0.01835 0.46387 0.0
H1401 H 0.37694 0.07424 0.55162 0.0
H1402 H 0.36891 0.03042 0.58048 0.0
H1403 H 0.35591 0.97438 0.51222 0.0
C1404 C 0.34716 0.07331 0.45202 0.0
C1405 C 0.34359 0.10442 0.45491 0.0
C1406 C 0.35414 0.11866 0.47798 0.0
C1407 C 0.36594 0.10183 0.49873 0.0
C1408 C 0.36761 0.0709 0.49585 0.0
C1409 C 0.35907 0.05679 0.47281 0.0
C1410 C 0.35875 0.02318 0.47596 0.0
C1411 C 0.32769 0.00998 0.46945 0.0
C1412 C 0.38328 0.00868 0.45913 0.0
C1413 C 0.36595 0.02068 0.50492 0.0
C1414 C 0.37166 0.0484 0.51596 0.0
C1415 C 0.37379 0.05229 0.54311 0.0
C1416 C 0.36914 0.02743 0.55936 0.0
C1417 C 0.36267 -0.00083 0.54837 0.0
C1418 C 0.36218 0.9956 0.52087 0.0
H1419 H 0.96422 0.20172 0.43555 0.0
H1420 H 0.89843 0.27039 0.45244 0.0
H1421 H 0.92464 0.28215 0.49377 0.0
H1422 H 0.96845 0.17348 0.49916 0.0
H1423 H 0.00803 0.16593 0.49827 0.0
H1424 H 0.98666 0.16559 0.46831 0.0
H1425 H 0.02188 0.20569 0.4478 0.0
H1426 H 0.04387 0.20486 0.47749 0.0
H1427 H 0.0291 0.23977 0.46552 0.0
H1428 H 0.95609 0.28417 0.53466 0.0
H1429 H 0.98974 0.27515 0.5725 0.0
H1430 H 0.03267 0.20333 0.52975 0.0
C1431 C 0.95526 0.2193 0.44781 0.0
C1432 C 0.92916 0.23507 0.44063 0.0
C1433 C 0.91857 0.25822 0.45721 0.0
C1434 C 0.93325 0.26502 0.48082 0.0
C1435 C 0.95848 0.2485 0.48752 0.0
C1436 C 0.96942 0.22616 0.47147 0.0
C1437 C 0.99575 0.21041 0.48389 0.0
C1438 C 0.98931 0.17687 0.48763 0.0
C1439 C 0.02436 0.21549 0.46772 0.0
C1440 C 0.99724 0.22669 0.50986 0.0
C1441 C 0.97598 0.249 0.51138 0.0
C1442 C 0.97295 0.2669 0.53363 0.0
C1443 C 0.99212 0.26171 0.55493 0.0
C1444 C 0.01357 0.23854 0.55387 0.0
C1445 C 0.01622 0.22098 0.53102 0.0
H1446 H 0.69168 0.87937 0.48781 0.0
H1447 H 0.62048 0.90065 0.43292 0.0
H1448 H 0.60015 0.93676 0.46441 0.0
H1449 H 0.64953 0.8979 0.55159 0.0
H1450 H 0.68292 0.91441 0.56524 0.0
H1451 H 0.68571 0.88299 0.54317 0.0
H1452 H 0.7214 0.91357 0.51368 0.0
H1453 H 0.71834 0.94533 0.535 0.0
H1454 H 0.70924 0.94898 0.50063 0.0
H1455 H 0.59521 0.97879 0.49528 0.0
H1456 H 0.60512 0.02223 0.52332 0.0
H1457 H 0.68136 0.97665 0.5576 0.0
C1458 C 0.67129 0.89094 0.48267 0.0
C1459 C 0.65804 0.88733 0.4576 0.0
C1460 C 0.63111 0.90267 0.45192 0.0
C1461 C 0.61935 0.92339 0.46978 0.0
C1462 C 0.63459 0.92836 0.49329 0.0
C1463 C 0.65979 0.91223 0.49998 0.0
C1464 C 0.67519 0.9254 0.5239 0.0
C1465 C 0.6732 0.90389 0.54737 0.0
C1466 C 0.70795 0.93384 0.51791 0.0
C1467 C 0.65607 0.95279 0.52832 0.0
C1468 C 0.63218 0.95349 0.51105 0.0
C1469 C 0.61327 0.97807 0.50945 0.0
C1470 C 0.61914 0.00275 0.52555 0.0
C1471 C 0.64402 0.00295 0.54287 0.0
C1472 C 0.66219 0.97723 0.54464 0.0
H1473 H 0.94404 0.78517 0.53022 0.0
H1474 H 0.97879 0.71255 0.57704 0.0
H1475 H 0.01359 0.69913 0.54109 0.0
H1476 H 0.95567 0.74701 0.4625 0.0
H1477 H 0.96555 0.78254 0.4482 0.0
H1478 H 0.93816 0.78076 0.47417 0.0
H1479 H 0.96914 0.81912 0.50092 0.0
H1480 H 0.99681 0.82062 0.47546 0.0
H1481 H 0.00771 0.81108 0.50853 0.0
H1482 H 0.05246 0.70289 0.50653 0.0
H1483 H 0.08941 0.7201 0.47412 0.0
H1484 H 0.02712 0.78815 0.44769 0.0
C1485 C 0.95814 0.76566 0.53221 0.0
C1486 C 0.959 0.74972 0.556 0.0
C1487 C 0.97778 0.72459 0.55861 0.0
C1488 C 0.99751 0.7169 0.53834 0.0
C1489 C 0.99737 0.73415 0.5155 0.0
C1490 C 0.97752 0.75753 0.51202 0.0
C1491 C 0.98441 0.77506 0.48737 0.0
C1492 C 0.95947 0.77108 0.46684 0.0
C1493 C 0.98986 0.80841 0.49347 0.0
C1494 C 0.01278 0.7596 0.47884 0.0
C1495 C 0.0196 0.7357 0.49494 0.0
C1496 C 0.04686 0.72083 0.49315 0.0
C1497 C 0.06781 0.73088 0.47468 0.0
C1498 C 0.06142 0.75567 0.45828 0.0
C1499 C 0.03307 0.76939 0.45996 0.0
H1500 H 0.80285 0.50687 0.90802 0.0
H1501 H 0.87521 0.56559 0.93268 0.0
H1502 H 0.89494 0.52563 0.96069 0.0
H1503 H 0.78637 0.48287 0.96844 0.0
H1504 H 0.77638 0.44519 0.95936 0.0
H1505 H 0.77299 0.4747 0.93576 0.0
H1506 H 0.80713 0.44554 0.9036 0.0
H1507 H 0.81078 0.41585 0.92733 0.0
H1508 H 0.84373 0.43369 0.91418 0.0
H1509 H 0.90139 0.48366 0.99221 0.0
H1510 H 0.89075 0.44612 0.0267 0.0
H1511 H 0.81278 0.41654 0.98361 0.0
C1512 C 0.82311 0.51147 0.91884 0.0
C1513 C 0.83718 0.53977 0.91801 0.0
C1514 C 0.86391 0.54422 0.93257 0.0
C1515 C 0.87548 0.52149 0.94855 0.0
C1516 C 0.86023 0.49435 0.9497 0.0
C1517 C 0.83457 0.4893 0.93519 0.0
C1518 C 0.8193 0.46053 0.94315 0.0
C1519 C 0.78688 0.46619 0.95223 0.0
C1520 C 0.82032 0.43754 0.92072 0.0
C1521 C 0.83922 0.45124 0.96569 0.0
C1522 C 0.86341 0.47033 0.96853 0.0
C1523 C 0.88301 0.46812 0.9898 0.0
C1524 C 0.87693 0.44674 0.00923 0.0
C1525 C 0.85115 0.42855 0.00741 0.0
C1526 C 0.83287 0.43001 0.98494 0.0
H1527 H 0.43314 0.71722 0.94363 0.0
H1528 H 0.46174 0.79401 0.89813 0.0
H1529 H 0.49153 0.81198 0.93598 0.0
H1530 H 0.42972 0.75551 0.00821 0.0
H1531 H 0.44364 0.72314 0.02534 0.0
H1532 H 0.42167 0.71857 -0.00411 0.0
H1533 H 0.46421 0.68721 0.97503 0.0
H1534 H 0.48613 0.69164 0.00441 0.0
H1535 H 0.50138 0.70279 0.97311 0.0
H1536 H 0.52298 0.81798 0.97683 0.0
H1537 H 0.55378 0.81099 0.01673 0.0
H1538 H 0.50284 0.7313 0.03582 0.0
C1539 C 0.44546 0.73794 0.94171 0.0
C1540 C 0.44522 0.75422 0.91797 0.0
C1541 C 0.46141 0.78139 0.91627 0.0
C1542 C 0.47836 0.79175 0.93765 0.0
C1543 C 0.47847 0.77488 0.96067 0.0
C1544 C 0.46223 0.74865 0.96287 0.0
C1545 C 0.46768 0.73352 0.98898 0.0
C1546 C 0.43897 0.73265 0.00559 0.0
C1547 C 0.48063 0.70194 0.98513 0.0
C1548 C 0.49053 0.75463 0.00068 0.0
C1549 C 0.4962 0.77859 0.98429 0.0
C1550 C 0.51832 0.79963 0.99007 0.0
C1551 C 0.53563 0.79557 0.01283 0.0
C1552 C 0.53079 0.77054 0.02933 0.0
C1553 C 0.50724 0.75052 0.02351 0.0
H1554 H 0.19069 0.51835 0.05625 0.0
H1555 H 0.11622 0.56834 0.02422 0.0
H1556 H 0.0976 0.52224 0.00246 0.0
H1557 H 0.20726 0.48001 0.00119 0.0
H1558 H 0.21792 0.44587 0.01747 0.0
H1559 H 0.22109 0.48081 0.0345 0.0
H1560 H 0.18786 0.46012 0.07202 0.0
H1561 H 0.18434 0.42501 0.05489 0.0
H1562 H 0.1513 0.44524 0.06457 0.0
H1563 H 0.09255 0.4731 0.97846 0.0
H1564 H 0.10356 0.4274 0.95254 0.0
H1565 H 0.18133 0.41083 0.00072 0.0
C1566 C 0.17025 0.51962 0.04495 0.0
C1567 C 0.15499 0.54687 0.04164 0.0
C1568 C 0.12812 0.54753 0.02698 0.0
C1569 C 0.11735 0.52147 0.01475 0.0
C1570 C 0.1335 0.49503 0.0179 0.0
C1571 C 0.15934 0.49402 0.03282 0.0
C1572 C 0.17492 0.46427 0.03067 0.0
C1573 C 0.20716 0.46799 0.02032 0.0
C1574 C 0.17455 0.44768 0.05711 0.0
C1575 C 0.15486 0.44918 0.01084 0.0
C1576 C 0.13055 0.46678 0.00422 0.0
C1577 C 0.11099 0.45878 0.98398 0.0
C1578 C 0.11724 0.43284 0.96946 0.0
C1579 C 0.14302 0.41586 0.97511 0.0
C1580 C 0.16119 0.42341 -0.00336 0.0
H1581 H 0.5678 0.24337 0.97874 0.0
H1582 H 0.51752 0.17748 0.93501 0.0
H1583 H 0.48696 0.16656 0.97468 0.0
H1584 H 0.56333 0.20422 0.0456 0.0
H1585 H 0.56006 0.23983 0.06194 0.0
H1586 H 0.58206 0.23662 0.03238 0.0
H1587 H 0.55093 0.27899 0.0111 0.0
H1588 H 0.5289 0.28211 0.04038 0.0
H1589 H 0.5108 0.27525 0.00927 0.0
H1590 H 0.45558 0.17135 0.01598 0.0
H1591 H 0.42749 0.19086 0.0545 0.0
H1592 H 0.49973 0.25249 0.07088 0.0
C1593 C 0.55109 0.22583 0.97801 0.0
C1594 C 0.54489 0.21103 0.95425 0.0
C1595 C 0.52267 0.18857 0.95338 0.0
C1596 C 0.50533 0.18231 0.97577 0.0
C1597 C 0.51118 0.19828 -0.00117 0.0
C1598 C 0.53402 0.2192 0.00016 0.0
C1599 C 0.53366 0.23612 0.02584 0.0
C1600 C 0.56142 0.22873 0.04242 0.0
C1601 C 0.53087 0.2701 0.02135 0.0
C1602 C 0.50572 0.22313 0.03797 0.0
C1603 C 0.49335 0.2008 0.02257 0.0
C1604 C 0.46553 0.18816 0.02856 0.0
C1605 C 0.44973 0.19926 0.05039 0.0
C1606 C 0.46171 0.22296 0.06544 0.0
C1607 C 0.4904 0.23413 0.05967 0.0
loop_
_geom_bond_atom_site_label_1
_geom_bond_atom_site_label_2
_geom_bond_distance
_geom_bond_site_symmetry_2
_ccdc_geom_bond_type
Co0 N4 2.148 . S
Co0 N10 2.128 . S
Co0 N20 2.194 . S
Co0 O25 2.351 . S
Co0 O26 2.155 . S
Co0 O27 2.096 . S
C1 N4 1.301 . S
C1 N5 1.328 . S
C1 H6 0.930 . S
C2 C3 1.333 . S
C2 N4 1.317 . S
C2 H7 0.930 . S
C3 C2 1.333 . S
C3 N5 1.350 . S
C3 H29 0.931 . S
N4 Co0 2.148 . S
N4 C1 1.301 . S
N4 C2 1.317 . S
N5 C1 1.328 . S
N5 C3 1.350 . S
H6 C1 0.930 . S
H7 C2 0.930 . S
C8 O9 1.224 . S
C8 O27 1.247 . S
O9 C8 1.224 . S
N10 Co0 2.128 . S
N10 C11 1.355 . S
N10 C13 1.311 . S
C11 N10 1.355 . S
C11 C12 1.363 . S
C11 H23 0.929 . S
C12 C11 1.363 . S
C12 N14 1.375 . S
C12 H30 0.931 . S
C13 N10 1.311 . S
C13 N14 1.347 . S
C13 H24 0.929 . S
N14 C12 1.375 . S
N14 C13 1.347 . S
C15 C18 1.365 . S
C15 N20 1.328 . S
C15 H21 0.929 . S
C16 C17 1.362 . S
C16 C19 1.378 . S
C16 H31 0.929 . S
C17 C16 1.362 . S
C17 C18 1.366 . S
C18 C15 1.365 . S
C18 C17 1.366 . S
C18 H32 0.930 . S
C19 C16 1.378 . S
C19 N20 1.315 . S
C19 H22 0.930 . S
N20 Co0 2.194 . S
N20 C15 1.328 . S
N20 C19 1.315 . S
H21 C15 0.929 . S
H22 C19 0.930 . S
H23 C11 0.929 . S
H24 C13 0.929 . S
O25 Co0 2.351 . S
O25 C28 1.244 . S
O26 Co0 2.155 . S
O26 C28 1.240 . S
O27 Co0 2.096 . S
O27 C8 1.247 . S
C28 O25 1.244 . S
C28 O26 1.240 . S
H29 C3 0.931 . S
H30 C12 0.931 . S
H31 C16 0.929 . S
H32 C18 0.930 . S
Co33 N37 2.148 . S
Co33 N43 2.128 . S
Co33 N53 2.194 . S
Co33 O58 2.351 . S
Co33 O59 2.155 . S
Co33 O60 2.096 . S
C34 N37 1.301 . S
C34 N38 1.328 . S
C34 H39 0.930 . S
C35 C36 1.333 . S
C35 N37 1.317 . S
C35 H40 0.930 . S
C36 C35 1.333 . S
C36 N38 1.350 . S
C36 H62 0.931 . S
N37 Co33 2.148 . S
N37 C34 1.301 . S
N37 C35 1.317 . S
N38 C34 1.328 . S
N38 C36 1.350 . S
H39 C34 0.930 . S
H40 C35 0.930 . S
C41 O42 1.224 . S
C41 O60 1.247 . S
O42 C41 1.224 . S
N43 Co33 2.128 . S
N43 C44 1.355 . S
N43 C46 1.311 . S
C44 N43 1.355 . S
C44 C45 1.363 . S
C44 H56 0.929 . S
C45 C44 1.363 . S
C45 N47 1.375 . S
C45 H63 0.931 . S
C46 N43 1.311 . S
C46 N47 1.347 . S
C46 H57 0.929 . S
N47 C45 1.375 . S
N47 C46 1.347 . S
C48 C51 1.365 . S
C48 N53 1.328 . S
C48 H54 0.929 . S
C49 C50 1.362 . S
C49 C52 1.378 . S
C49 H64 0.929 . S
C50 C49 1.362 . S
C50 C51 1.366 . S
C51 C48 1.365 . S
C51 C50 1.366 . S
C51 H65 0.930 . S
C52 C49 1.378 . S
C52 N53 1.315 . S
C52 H55 0.930 . S
N53 Co33 2.194 . S
N53 C48 1.328 . S
N53 C52 1.315 . S
H54 C48 0.929 . S
H55 C52 0.930 . S
H56 C44 0.929 . S
H57 C46 0.929 . S
O58 Co33 2.351 . S
O58 C61 1.244 . S
O59 Co33 2.155 . S
O59 C61 1.240 . S
O60 Co33 2.096 . S
O60 C41 1.247 . S
C61 O58 1.244 . S
C61 O59 1.240 . S
H62 C36 0.931 . S
H63 C45 0.931 . S
H64 C49 0.929 . S
H65 C51 0.930 . S
Co66 N70 2.148 . S
Co66 N76 2.128 . S
Co66 N86 2.194 . S
Co66 O91 2.351 . S
Co66 O92 2.155 . S
Co66 O93 2.096 . S
C67 N70 1.301 . S
C67 N71 1.328 . S
C67 H72 0.930 . S
C68 C69 1.333 . S
C68 N70 1.317 . S
C68 H73 0.930 . S
C69 C68 1.333 . S
C69 N71 1.350 . S
C69 H95 0.931 . S
N70 Co66 2.148 . S
N70 C67 1.301 . S
N70 C68 1.317 . S
N71 C67 1.328 . S
N71 C69 1.350 . S
H72 C67 0.930 . S
H73 C68 0.930 . S
C74 O75 1.224 . S
C74 O93 1.247 . S
O75 C74 1.224 . S
N76 Co66 2.128 . S
N76 C77 1.355 . S
N76 C79 1.311 . S
C77 N76 1.355 . S
C77 C78 1.363 . S
C77 H89 0.929 . S
C78 C77 1.363 . S
C78 N80 1.375 . S
C78 H96 0.931 . S
C79 N76 1.311 . S
C79 N80 1.347 . S
C79 H90 0.929 . S
N80 C78 1.375 . S
N80 C79 1.347 . S
C81 C84 1.365 . S
C81 N86 1.328 . S
C81 H87 0.929 . S
C82 C83 1.362 . S
C82 C85 1.378 . S
C82 H97 0.929 . S
C83 C82 1.362 . S
C83 C84 1.366 . S
C84 C81 1.365 . S
C84 C83 1.366 . S
C84 H98 0.930 . S
C85 C82 1.378 . S
C85 N86 1.315 . S
C85 H88 0.930 . S
N86 Co66 2.194 . S
N86 C81 1.328 . S
N86 C85 1.315 . S
H87 C81 0.929 . S
H88 C85 0.930 . S
H89 C77 0.929 . S
H90 C79 0.929 . S
O91 Co66 2.351 . S
O91 C94 1.244 . S
O92 Co66 2.155 . S
O92 C94 1.240 . S
O93 Co66 2.096 . S
O93 C74 1.247 . S
C94 O91 1.244 . S
C94 O92 1.240 . S
H95 C69 0.931 . S
H96 C78 0.931 . S
H97 C82 0.929 . S
H98 C84 0.930 . S
Co99 N103 2.148 . S
Co99 N109 2.128 . S
Co99 N119 2.194 . S
Co99 O124 2.351 . S
Co99 O125 2.155 . S
Co99 O126 2.096 . S
C100 N103 1.301 . S
C100 N104 1.328 . S
C100 H105 0.930 . S
C101 C102 1.333 . S
C101 N103 1.317 . S
C101 H106 0.930 . S
C102 C101 1.333 . S
C102 N104 1.350 . S
C102 H128 0.931 . S
N103 Co99 2.148 . S
N103 C100 1.301 . S
N103 C101 1.317 . S
N104 C100 1.328 . S
N104 C102 1.350 . S
H105 C100 0.930 . S
H106 C101 0.930 . S
C107 O108 1.224 . S
C107 O126 1.247 . S
O108 C107 1.224 . S
N109 Co99 2.128 . S
N109 C110 1.355 . S
N109 C112 1.311 . S
C110 N109 1.355 . S
C110 C111 1.363 . S
C110 H122 0.929 . S
C111 C110 1.363 . S
C111 N113 1.375 . S
C111 H129 0.931 . S
C112 N109 1.311 . S
C112 N113 1.347 . S
C112 H123 0.929 . S
N113 C111 1.375 . S
N113 C112 1.347 . S
C114 C117 1.365 . S
C114 N119 1.328 . S
C114 H120 0.929 . S
C115 C116 1.362 . S
C115 C118 1.378 . S
C115 H130 0.929 . S
C116 C115 1.362 . S
C116 C117 1.366 . S
C117 C114 1.365 . S
C117 C116 1.366 . S
C117 H131 0.930 . S
C118 C115 1.378 . S
C118 N119 1.315 . S
C118 H121 0.930 . S
N119 Co99 2.194 . S
N119 C114 1.328 . S
N119 C118 1.315 . S
H120 C114 0.929 . S
H121 C118 0.930 . S
H122 C110 0.929 . S
H123 C112 0.929 . S
O124 Co99 2.351 . S
O124 C127 1.244 . S
O125 Co99 2.155 . S
O125 C127 1.240 . S
O126 Co99 2.096 . S
O126 C107 1.247 . S
C127 O124 1.244 . S
C127 O125 1.240 . S
H128 C102 0.931 . S
H129 C111 0.931 . S
H130 C115 0.929 . S
H131 C117 0.930 . S
Co132 N136 2.148 . S
Co132 N142 2.128 . S
Co132 N152 2.194 . S
Co132 O157 2.351 . S
Co132 O158 2.155 . S
Co132 O159 2.096 . S
C133 N136 1.301 . S
C133 N137 1.328 . S
C133 H138 0.930 . S
C134 C135 1.333 . S
C134 N136 1.317 . S
C134 H139 0.930 . S
C135 C134 1.333 . S
C135 N137 1.350 . S
C135 H161 0.931 . S
N136 Co132 2.148 . S
N136 C133 1.301 . S
N136 C134 1.317 . S
N137 C133 1.328 . S
N137 C135 1.350 . S
H138 C133 0.930 . S
H139 C134 0.930 . S
C140 O141 1.224 . S
C140 O159 1.247 . S
O141 C140 1.224 . S
N142 Co132 2.128 . S
N142 C143 1.355 . S
N142 C145 1.311 . S
C143 N142 1.355 . S
C143 C144 1.363 . S
C143 H155 0.929 . S
C144 C143 1.363 . S
C144 N146 1.375 . S
C144 H162 0.931 . S
C145 N142 1.311 . S
C145 N146 1.347 . S
C145 H156 0.929 . S
N146 C144 1.375 . S
N146 C145 1.347 . S
C147 C150 1.365 . S
C147 N152 1.328 . S
C147 H153 0.929 . S
C148 C149 1.362 . S
C148 C151 1.378 . S
C148 H163 0.929 . S
C149 C148 1.362 . S
C149 C150 1.366 . S
C150 C147 1.365 . S
C150 C149 1.366 . S
C150 H164 0.930 . S
C151 C148 1.378 . S
C151 N152 1.315 . S
C151 H154 0.930 . S
N152 Co132 2.194 . S
N152 C147 1.328 . S
N152 C151 1.315 . S
H153 C147 0.929 . S
H154 C151 0.930 . S
H155 C143 0.929 . S
H156 C145 0.929 . S
O157 Co132 2.351 . S
O157 C160 1.244 . S
O158 Co132 2.155 . S
O158 C160 1.240 . S
O159 Co132 2.096 . S
O159 C140 1.247 . S
C160 O157 1.244 . S
C160 O158 1.240 . S
H161 C135 0.931 . S
H162 C144 0.931 . S
H163 C148 0.929 . S
H164 C150 0.930 . S
Co165 N169 2.148 . S
Co165 N175 2.128 . S
Co165 N185 2.194 . S
Co165 O190 2.351 . S
Co165 O191 2.155 . S
Co165 O192 2.096 . S
C166 N169 1.301 . S
C166 N170 1.328 . S
C166 H171 0.930 . S
C167 C168 1.333 . S
C167 N169 1.317 . S
C167 H172 0.930 . S
C168 C167 1.333 . S
C168 N170 1.350 . S
C168 H194 0.931 . S
N169 Co165 2.148 . S
N169 C166 1.301 . S
N169 C167 1.317 . S
N170 C166 1.328 . S
N170 C168 1.350 . S
H171 C166 0.930 . S
H172 C167 0.930 . S
C173 O174 1.224 . S
C173 O192 1.247 . S
O174 C173 1.224 . S
N175 Co165 2.128 . S
N175 C176 1.355 . S
N175 C178 1.311 . S
C176 N175 1.355 . S
C176 C177 1.363 . S
C176 H188 0.929 . S
C177 C176 1.363 . S
C177 N179 1.375 . S
C177 H195 0.931 . S
C178 N175 1.311 . S
C178 N179 1.347 . S
C178 H189 0.929 . S
N179 C177 1.375 . S
N179 C178 1.347 . S
C180 C183 1.365 . S
C180 N185 1.328 . S
C180 H186 0.929 . S
C181 C182 1.362 . S
C181 C184 1.378 . S
C181 H196 0.929 . S
C182 C181 1.362 . S
C182 C183 1.366 . S
C183 C180 1.365 . S
C183 C182 1.366 . S
C183 H197 0.930 . S
C184 C181 1.378 . S
C184 N185 1.315 . S
C184 H187 0.930 . S
N185 Co165 2.194 . S
N185 C180 1.328 . S
N185 C184 1.315 . S
H186 C180 0.929 . S
H187 C184 0.930 . S
H188 C176 0.929 . S
H189 C178 0.929 . S
O190 Co165 2.351 . S
O190 C193 1.244 . S
O191 Co165 2.155 . S
O191 C193 1.240 . S
O192 Co165 2.096 . S
O192 C173 1.247 . S
C193 O190 1.244 . S
C193 O191 1.240 . S
H194 C168 0.931 . S
H195 C177 0.931 . S
H196 C181 0.929 . S
H197 C183 0.930 . S
Co198 N202 2.148 . S
Co198 N208 2.128 . S
Co198 N218 2.194 . S
Co198 O223 2.351 . S
Co198 O224 2.155 . S
Co198 O225 2.096 . S
C199 N202 1.301 . S
C199 N203 1.328 . S
C199 H204 0.930 . S
C200 C201 1.333 . S
C200 N202 1.317 . S
C200 H205 0.930 . S
C201 C200 1.333 . S
C201 N203 1.350 . S
C201 H227 0.931 . S
N202 Co198 2.148 . S
N202 C199 1.301 . S
N202 C200 1.317 . S
N203 C199 1.328 . S
N203 C201 1.350 . S
H204 C199 0.930 . S
H205 C200 0.930 . S
C206 O207 1.224 . S
C206 O225 1.247 . S
O207 C206 1.224 . S
N208 Co198 2.128 . S
N208 C209 1.355 . S
N208 C211 1.311 . S
C209 N208 1.355 . S
C209 C210 1.363 . S
C209 H221 0.929 . S
C210 C209 1.363 . S
C210 N212 1.375 . S
C210 H228 0.931 . S
C211 N208 1.311 . S
C211 N212 1.347 . S
C211 H222 0.929 . S
N212 C210 1.375 . S
N212 C211 1.347 . S
C213 C216 1.365 . S
C213 N218 1.328 . S
C213 H219 0.929 . S
C214 C215 1.362 . S
C214 C217 1.378 . S
C214 H229 0.929 . S
C215 C214 1.362 . S
C215 C216 1.366 . S
C216 C213 1.365 . S
C216 C215 1.366 . S
C216 H230 0.930 . S
C217 C214 1.378 . S
C217 N218 1.315 . S
C217 H220 0.930 . S
N218 Co198 2.194 . S
N218 C213 1.328 . S
N218 C217 1.315 . S
H219 C213 0.929 . S
H220 C217 0.930 . S
H221 C209 0.929 . S
H222 C211 0.929 . S
O223 Co198 2.351 . S
O223 C226 1.244 . S
O224 Co198 2.155 . S
O224 C226 1.240 . S
O225 Co198 2.096 . S
O225 C206 1.247 . S
C226 O223 1.244 . S
C226 O224 1.240 . S
H227 C201 0.931 . S
H228 C210 0.931 . S
H229 C214 0.929 . S
H230 C216 0.930 . S
Co231 N235 2.148 . S
Co231 N241 2.128 . S
Co231 N251 2.194 . S
Co231 O256 2.351 . S
Co231 O257 2.155 . S
Co231 O258 2.096 . S
C232 N235 1.301 . S
C232 N236 1.328 . S
C232 H237 0.930 . S
C233 C234 1.333 . S
C233 N235 1.317 . S
C233 H238 0.930 . S
C234 C233 1.333 . S
C234 N236 1.350 . S
C234 H260 0.931 . S
N235 Co231 2.148 . S
N235 C232 1.301 . S
N235 C233 1.317 . S
N236 C232 1.328 . S
N236 C234 1.350 . S
H237 C232 0.930 . S
H238 C233 0.930 . S
C239 O240 1.224 . S
C239 O258 1.247 . S
O240 C239 1.224 . S
N241 Co231 2.128 . S
N241 C242 1.355 . S
N241 C244 1.311 . S
C242 N241 1.355 . S
C242 C243 1.363 . S
C242 H254 0.929 . S
C243 C242 1.363 . S
C243 N245 1.375 . S
C243 H261 0.931 . S
C244 N241 1.311 . S
C244 N245 1.347 . S
C244 H255 0.929 . S
N245 C243 1.375 . S
N245 C244 1.347 . S
C246 C249 1.365 . S
C246 N251 1.328 . S
C246 H252 0.929 . S
C247 C248 1.362 . S
C247 C250 1.378 . S
C247 H262 0.929 . S
C248 C247 1.362 . S
C248 C249 1.366 . S
C249 C246 1.365 . S
C249 C248 1.366 . S
C249 H263 0.930 . S
C250 C247 1.378 . S
C250 N251 1.315 . S
C250 H253 0.930 . S
N251 Co231 2.194 . S
N251 C246 1.328 . S
N251 C250 1.315 . S
H252 C246 0.929 . S
H253 C250 0.930 . S
H254 C242 0.929 . S
H255 C244 0.929 . S
O256 Co231 2.351 . S
O256 C259 1.244 . S
O257 Co231 2.155 . S
O257 C259 1.240 . S
O258 Co231 2.096 . S
O258 C239 1.247 . S
C259 O256 1.244 . S
C259 O257 1.240 . S
H260 C234 0.931 . S
H261 C243 0.931 . S
H262 C247 0.929 . S
H263 C249 0.930 . S
Co264 N268 2.148 . S
Co264 N274 2.128 . S
Co264 N284 2.194 . S
Co264 O289 2.351 . S
Co264 O290 2.155 . S
Co264 O291 2.096 . S
C265 N268 1.301 . S
C265 N269 1.328 . S
C265 H270 0.930 . S
C266 C267 1.333 . S
C266 N268 1.317 . S
C266 H271 0.930 . S
C267 C266 1.333 . S
C267 N269 1.350 . S
C267 H293 0.931 . S
N268 Co264 2.148 . S
N268 C265 1.301 . S
N268 C266 1.317 . S
N269 C265 1.328 . S
N269 C267 1.350 . S
H270 C265 0.930 . S
H271 C266 0.930 . S
C272 O273 1.224 . S
C272 O291 1.247 . S
O273 C272 1.224 . S
N274 Co264 2.128 . S
N274 C275 1.355 . S
N274 C277 1.311 . S
C275 N274 1.355 . S
C275 C276 1.363 . S
C275 H287 0.929 . S
C276 C275 1.363 . S
C276 N278 1.375 . S
C276 H294 0.931 . S
C277 N274 1.311 . S
C277 N278 1.347 . S
C277 H288 0.929 . S
N278 C276 1.375 . S
N278 C277 1.347 . S
C279 C282 1.365 . S
C279 N284 1.328 . S
C279 H285 0.929 . S
C280 C281 1.362 . S
C280 C283 1.378 . S
C280 H295 0.929 . S
C281 C280 1.362 . S
C281 C282 1.366 . S
C282 C279 1.365 . S
C282 C281 1.366 . S
C282 H296 0.930 . S
C283 C280 1.378 . S
C283 N284 1.315 . S
C283 H286 0.930 . S
N284 Co264 2.194 . S
N284 C279 1.328 . S
N284 C283 1.315 . S
H285 C279 0.929 . S
H286 C283 0.930 . S
H287 C275 0.929 . S
H288 C277 0.929 . S
O289 Co264 2.351 . S
O289 C292 1.244 . S
O290 Co264 2.155 . S
O290 C292 1.240 . S
O291 Co264 2.096 . S
O291 C272 1.247 . S
C292 O289 1.244 . S
C292 O290 1.240 . S
H293 C267 0.931 . S
H294 C276 0.931 . S
H295 C280 0.929 . S
H296 C282 0.930 . S
Co297 N301 2.148 . S
Co297 N307 2.128 . S
Co297 N317 2.194 . S
Co297 O322 2.351 . S
Co297 O323 2.155 . S
Co297 O324 2.096 . S
C298 N301 1.301 . S
C298 N302 1.328 . S
C298 H303 0.930 . S
C299 C300 1.333 . S
C299 N301 1.317 . S
C299 H304 0.930 . S
C300 C299 1.333 . S
C300 N302 1.350 . S
C300 H326 0.931 . S
N301 Co297 2.148 . S
N301 C298 1.301 . S
N301 C299 1.317 . S
N302 C298 1.328 . S
N302 C300 1.350 . S
H303 C298 0.930 . S
H304 C299 0.930 . S
C305 O306 1.224 . S
C305 O324 1.247 . S
O306 C305 1.224 . S
N307 Co297 2.128 . S
N307 C308 1.355 . S
N307 C310 1.311 . S
C308 N307 1.355 . S
C308 C309 1.363 . S
C308 H320 0.929 . S
C309 C308 1.363 . S
C309 N311 1.375 . S
C309 H327 0.931 . S
C310 N307 1.311 . S
C310 N311 1.347 . S
C310 H321 0.929 . S
N311 C309 1.375 . S
N311 C310 1.347 . S
C312 C315 1.365 . S
C312 N317 1.328 . S
C312 H318 0.929 . S
C313 C314 1.362 . S
C313 C316 1.378 . S
C313 H328 0.929 . S
C314 C313 1.362 . S
C314 C315 1.366 . S
C315 C312 1.365 . S
C315 C314 1.366 . S
C315 H329 0.930 . S
C316 C313 1.378 . S
C316 N317 1.315 . S
C316 H319 0.930 . S
N317 Co297 2.194 . S
N317 C312 1.328 . S
N317 C316 1.315 . S
H318 C312 0.929 . S
H319 C316 0.930 . S
H320 C308 0.929 . S
H321 C310 0.929 . S
O322 Co297 2.351 . S
O322 C325 1.244 . S
O323 Co297 2.155 . S
O323 C325 1.240 . S
O324 Co297 2.096 . S
O324 C305 1.247 . S
C325 O322 1.244 . S
C325 O323 1.240 . S
H326 C300 0.931 . S
H327 C309 0.931 . S
H328 C313 0.929 . S
H329 C315 0.930 . S
Co330 N334 2.148 . S
Co330 N340 2.128 . S
Co330 N350 2.194 . S
Co330 O355 2.351 . S
Co330 O356 2.155 . S
Co330 O357 2.096 . S
C331 N334 1.301 . S
C331 N335 1.328 . S
C331 H336 0.930 . S
C332 C333 1.333 . S
C332 N334 1.317 . S
C332 H337 0.930 . S
C333 C332 1.333 . S
C333 N335 1.350 . S
C333 H359 0.931 . S
N334 Co330 2.148 . S
N334 C331 1.301 . S
N334 C332 1.317 . S
N335 C331 1.328 . S
N335 C333 1.350 . S
H336 C331 0.930 . S
H337 C332 0.930 . S
C338 O339 1.224 . S
C338 O357 1.247 . S
O339 C338 1.224 . S
N340 Co330 2.128 . S
N340 C341 1.355 . S
N340 C343 1.311 . S
C341 N340 1.355 . S
C341 C342 1.363 . S
C341 H353 0.929 . S
C342 C341 1.363 . S
C342 N344 1.375 . S
C342 H360 0.931 . S
C343 N340 1.311 . S
C343 N344 1.347 . S
C343 H354 0.929 . S
N344 C342 1.375 . S
N344 C343 1.347 . S
C345 C348 1.365 . S
C345 N350 1.328 . S
C345 H351 0.929 . S
C346 C347 1.362 . S
C346 C349 1.378 . S
C346 H361 0.929 . S
C347 C346 1.362 . S
C347 C348 1.366 . S
C348 C345 1.365 . S
C348 C347 1.366 . S
C348 H362 0.930 . S
C349 C346 1.378 . S
C349 N350 1.315 . S
C349 H352 0.930 . S
N350 Co330 2.194 . S
N350 C345 1.328 . S
N350 C349 1.315 . S
H351 C345 0.929 . S
H352 C349 0.930 . S
H353 C341 0.929 . S
H354 C343 0.929 . S
O355 Co330 2.351 . S
O355 C358 1.244 . S
O356 Co330 2.155 . S
O356 C358 1.240 . S
O357 Co330 2.096 . S
O357 C338 1.247 . S
C358 O355 1.244 . S
C358 O356 1.240 . S
H359 C333 0.931 . S
H360 C342 0.931 . S
H361 C346 0.929 . S
H362 C348 0.930 . S
Co363 N367 2.148 . S
Co363 N373 2.128 . S
Co363 N383 2.194 . S
Co363 O388 2.351 . S
Co363 O389 2.155 . S
Co363 O390 2.096 . S
C364 N367 1.301 . S
C364 N368 1.328 . S
C364 H369 0.930 . S
C365 C366 1.333 . S
C365 N367 1.317 . S
C365 H370 0.930 . S
C366 C365 1.333 . S
C366 N368 1.350 . S
C366 H392 0.931 . S
N367 Co363 2.148 . S
N367 C364 1.301 . S
N367 C365 1.317 . S
N368 C364 1.328 . S
N368 C366 1.350 . S
H369 C364 0.930 . S
H370 C365 0.930 . S
C371 O372 1.224 . S
C371 O390 1.247 . S
O372 C371 1.224 . S
N373 Co363 2.128 . S
N373 C374 1.355 . S
N373 C376 1.311 . S
C374 N373 1.355 . S
C374 C375 1.363 . S
C374 H386 0.929 . S
C375 C374 1.363 . S
C375 N377 1.375 . S
C375 H393 0.931 . S
C376 N373 1.311 . S
C376 N377 1.347 . S
C376 H387 0.929 . S
N377 C375 1.375 . S
N377 C376 1.347 . S
C378 C381 1.365 . S
C378 N383 1.328 . S
C378 H384 0.929 . S
C379 C380 1.362 . S
C379 C382 1.378 . S
C379 H394 0.929 . S
C380 C379 1.362 . S
C380 C381 1.366 . S
C381 C378 1.365 . S
C381 C380 1.366 . S
C381 H395 0.930 . S
C382 C379 1.378 . S
C382 N383 1.315 . S
C382 H385 0.930 . S
N383 Co363 2.194 . S
N383 C378 1.328 . S
N383 C382 1.315 . S
H384 C378 0.929 . S
H385 C382 0.930 . S
H386 C374 0.929 . S
H387 C376 0.929 . S
O388 Co363 2.351 . S
O388 C391 1.244 . S
O389 Co363 2.155 . S
O389 C391 1.240 . S
O390 Co363 2.096 . S
O390 C371 1.247 . S
C391 O388 1.244 . S
C391 O389 1.240 . S
H392 C366 0.931 . S
H393 C375 0.931 . S
H394 C379 0.929 . S
H395 C381 0.930 . S
Co396 N400 2.148 . S
Co396 N406 2.128 . S
Co396 N416 2.194 . S
Co396 O421 2.351 . S
Co396 O422 2.155 . S
Co396 O423 2.096 . S
C397 N400 1.301 . S
C397 N401 1.328 . S
C397 H402 0.930 . S
C398 C399 1.333 . S
C398 N400 1.317 . S
C398 H403 0.930 . S
C399 C398 1.333 . S
C399 N401 1.350 . S
C399 H425 0.931 . S
N400 Co396 2.148 . S
N400 C397 1.301 . S
N400 C398 1.317 . S
N401 C397 1.328 . S
N401 C399 1.350 . S
H402 C397 0.930 . S
H403 C398 0.930 . S
C404 O405 1.224 . S
C404 O423 1.247 . S
O405 C404 1.224 . S
N406 Co396 2.128 . S
N406 C407 1.355 . S
N406 C409 1.311 . S
C407 N406 1.355 . S
C407 C408 1.363 . S
C407 H419 0.929 . S
C408 C407 1.363 . S
C408 N410 1.375 . S
C408 H426 0.931 . S
C409 N406 1.311 . S
C409 N410 1.347 . S
C409 H420 0.929 . S
N410 C408 1.375 . S
N410 C409 1.347 . S
C411 C414 1.365 . S
C411 N416 1.328 . S
C411 H417 0.929 . S
C412 C413 1.362 . S
C412 C415 1.378 . S
C412 H427 0.929 . S
C413 C412 1.362 . S
C413 C414 1.366 . S
C414 C411 1.365 . S
C414 C413 1.366 . S
C414 H428 0.930 . S
C415 C412 1.378 . S
C415 N416 1.315 . S
C415 H418 0.930 . S
N416 Co396 2.194 . S
N416 C411 1.328 . S
N416 C415 1.315 . S
H417 C411 0.929 . S
H418 C415 0.930 . S
H419 C407 0.929 . S
H420 C409 0.929 . S
O421 Co396 2.351 . S
O421 C424 1.244 . S
O422 Co396 2.155 . S
O422 C424 1.240 . S
O423 Co396 2.096 . S
O423 C404 1.247 . S
C424 O421 1.244 . S
C424 O422 1.240 . S
H425 C399 0.931 . S
H426 C408 0.931 . S
H427 C412 0.929 . S
H428 C414 0.930 . S
Co429 N433 2.148 . S
Co429 N439 2.128 . S
Co429 N449 2.194 . S
Co429 O454 2.351 . S
Co429 O455 2.155 . S
Co429 O456 2.096 . S
C430 N433 1.301 . S
C430 N434 1.328 . S
C430 H435 0.930 . S
C431 C432 1.333 . S
C431 N433 1.317 . S
C431 H436 0.930 . S
C432 C431 1.333 . S
C432 N434 1.350 . S
C432 H458 0.931 . S
N433 Co429 2.148 . S
N433 C430 1.301 . S
N433 C431 1.317 . S
N434 C430 1.328 . S
N434 C432 1.350 . S
H435 C430 0.930 . S
H436 C431 0.930 . S
C437 O438 1.224 . S
C437 O456 1.247 . S
O438 C437 1.224 . S
N439 Co429 2.128 . S
N439 C440 1.355 . S
N439 C442 1.311 . S
C440 N439 1.355 . S
C440 C441 1.363 . S
C440 H452 0.929 . S
C441 C440 1.363 . S
C441 N443 1.375 . S
C441 H459 0.931 . S
C442 N439 1.311 . S
C442 N443 1.347 . S
C442 H453 0.929 . S
N443 C441 1.375 . S
N443 C442 1.347 . S
C444 C447 1.365 . S
C444 N449 1.328 . S
C444 H450 0.929 . S
C445 C446 1.362 . S
C445 C448 1.378 . S
C445 H460 0.929 . S
C446 C445 1.362 . S
C446 C447 1.366 . S
C447 C444 1.365 . S
C447 C446 1.366 . S
C447 H461 0.930 . S
C448 C445 1.378 . S
C448 N449 1.315 . S
C448 H451 0.930 . S
N449 Co429 2.194 . S
N449 C444 1.328 . S
N449 C448 1.315 . S
H450 C444 0.929 . S
H451 C448 0.930 . S
H452 C440 0.929 . S
H453 C442 0.929 . S
O454 Co429 2.351 . S
O454 C457 1.244 . S
O455 Co429 2.155 . S
O455 C457 1.240 . S
O456 Co429 2.096 . S
O456 C437 1.247 . S
C457 O454 1.244 . S
C457 O455 1.240 . S
H458 C432 0.931 . S
H459 C441 0.931 . S
H460 C445 0.929 . S
H461 C447 0.930 . S
Co462 N466 2.148 . S
Co462 N472 2.128 . S
Co462 N482 2.194 . S
Co462 O487 2.351 . S
Co462 O488 2.155 . S
Co462 O489 2.096 . S
C463 N466 1.301 . S
C463 N467 1.328 . S
C463 H468 0.930 . S
C464 C465 1.333 . S
C464 N466 1.317 . S
C464 H469 0.930 . S
C465 C464 1.333 . S
C465 N467 1.350 . S
C465 H491 0.931 . S
N466 Co462 2.148 . S
N466 C463 1.301 . S
N466 C464 1.317 . S
N467 C463 1.328 . S
N467 C465 1.350 . S
H468 C463 0.930 . S
H469 C464 0.930 . S
C470 O471 1.224 . S
C470 O489 1.247 . S
O471 C470 1.224 . S
N472 Co462 2.128 . S
N472 C473 1.355 . S
N472 C475 1.311 . S
C473 N472 1.355 . S
C473 C474 1.363 . S
C473 H485 0.929 . S
C474 C473 1.363 . S
C474 N476 1.375 . S
C474 H492 0.931 . S
C475 N472 1.311 . S
C475 N476 1.347 . S
C475 H486 0.929 . S
N476 C474 1.375 . S
N476 C475 1.347 . S
C477 C480 1.365 . S
C477 N482 1.328 . S
C477 H483 0.929 . S
C478 C479 1.362 . S
C478 C481 1.378 . S
C478 H493 0.929 . S
C479 C478 1.362 . S
C479 C480 1.366 . S
C480 C477 1.365 . S
C480 C479 1.366 . S
C480 H494 0.930 . S
C481 C478 1.378 . S
C481 N482 1.315 . S
C481 H484 0.930 . S
N482 Co462 2.194 . S
N482 C477 1.328 . S
N482 C481 1.315 . S
H483 C477 0.929 . S
H484 C481 0.930 . S
H485 C473 0.929 . S
H486 C475 0.929 . S
O487 Co462 2.351 . S
O487 C490 1.244 . S
O488 Co462 2.155 . S
O488 C490 1.240 . S
O489 Co462 2.096 . S
O489 C470 1.247 . S
C490 O487 1.244 . S
C490 O488 1.240 . S
H491 C465 0.931 . S
H492 C474 0.931 . S
H493 C478 0.929 . S
H494 C480 0.930 . S
Co495 N499 2.148 . S
Co495 N505 2.128 . S
Co495 N515 2.194 . S
Co495 O520 2.351 . S
Co495 O521 2.155 . S
Co495 O522 2.096 . S
C496 N499 1.301 . S
C496 N500 1.328 . S
C496 H501 0.930 . S
C497 C498 1.333 . S
C497 N499 1.317 . S
C497 H502 0.930 . S
C498 C497 1.333 . S
C498 N500 1.350 . S
C498 H524 0.931 . S
N499 Co495 2.148 . S
N499 C496 1.301 . S
N499 C497 1.317 . S
N500 C496 1.328 . S
N500 C498 1.350 . S
H501 C496 0.930 . S
H502 C497 0.930 . S
C503 O504 1.224 . S
C503 O522 1.247 . S
O504 C503 1.224 . S
N505 Co495 2.128 . S
N505 C506 1.355 . S
N505 C508 1.311 . S
C506 N505 1.355 . S
C506 C507 1.363 . S
C506 H518 0.929 . S
C507 C506 1.363 . S
C507 N509 1.375 . S
C507 H525 0.931 . S
C508 N505 1.311 . S
C508 N509 1.347 . S
C508 H519 0.929 . S
N509 C507 1.375 . S
N509 C508 1.347 . S
C510 C513 1.365 . S
C510 N515 1.328 . S
C510 H516 0.929 . S
C511 C512 1.362 . S
C511 C514 1.378 . S
C511 H526 0.929 . S
C512 C511 1.362 . S
C512 C513 1.366 . S
C513 C510 1.365 . S
C513 C512 1.366 . S
C513 H527 0.930 . S
C514 C511 1.378 . S
C514 N515 1.315 . S
C514 H517 0.930 . S
N515 Co495 2.194 . S
N515 C510 1.328 . S
N515 C514 1.315 . S
H516 C510 0.929 . S
H517 C514 0.930 . S
H518 C506 0.929 . S
H519 C508 0.929 . S
O520 Co495 2.351 . S
O520 C523 1.244 . S
O521 Co495 2.155 . S
O521 C523 1.240 . S
O522 Co495 2.096 . S
O522 C503 1.247 . S
C523 O520 1.244 . S
C523 O521 1.240 . S
H524 C498 0.931 . S
H525 C507 0.931 . S
H526 C511 0.929 . S
H527 C513 0.930 . S
H528 C540 0.937 . S
H529 C542 0.930 1_545 S
H530 C543 0.930 . S
H531 C547 0.959 . S
H532 C547 0.959 . S
H533 C547 0.961 . S
H534 C548 0.960 . S
H535 C548 0.961 . S
H536 C548 0.959 . S
H537 C551 0.929 . S
H538 C552 0.931 . S
H539 C554 0.930 . S
C540 H528 0.937 . S
C540 C541 1.399 1_565 S
C540 C545 1.399 . S
C541 C540 1.399 1_545 S
C541 C542 1.376 1_545 S
C542 H529 0.930 1_565 S
C542 C541 1.376 1_565 S
C542 C543 1.388 . S
C543 H530 0.930 . S
C543 C542 1.388 . S
C543 C544 1.390 . S
C544 C543 1.390 . S
C544 C545 1.394 . S
C544 C550 1.465 . S
C545 C540 1.399 . S
C545 C544 1.394 . S
C545 C546 1.516 . S
C546 C545 1.516 . S
C546 C547 1.502 . S
C546 C548 1.561 . S
C546 C549 1.526 . S
C547 H531 0.959 . S
C547 H532 0.959 . S
C547 H533 0.961 . S
C547 C546 1.502 . S
C548 H534 0.960 . S
C548 H535 0.961 . S
C548 H536 0.959 . S
C548 C546 1.561 . S
C549 C546 1.526 . S
C549 C550 1.396 . S
C549 C554 1.390 . S
C550 C544 1.465 . S
C550 C549 1.396 . S
C550 C551 1.399 . S
C551 H537 0.929 . S
C551 C550 1.399 . S
C551 C552 1.385 . S
C552 H538 0.931 . S
C552 C551 1.385 . S
C552 C553 1.389 . S
C553 C552 1.389 . S
C553 C554 1.387 . S
C554 H539 0.930 . S
C554 C549 1.390 . S
C554 C553 1.387 . S
H555 C567 0.930 . S
H556 C569 0.930 . S
H557 C570 0.930 . S
H558 C574 0.959 . S
H559 C574 0.959 . S
H560 C574 0.961 . S
H561 C575 0.960 . S
H562 C575 0.961 . S
H563 C575 0.959 . S
H564 C578 0.929 . S
H565 C579 0.931 . S
H566 C581 0.930 1_655 S
C567 H555 0.930 . S
C567 C568 1.399 . S
C567 C572 1.399 . S
C568 C567 1.399 . S
C568 C569 1.376 . S
C569 H556 0.930 . S
C569 C568 1.376 . S
C569 C570 1.388 . S
C570 H557 0.930 . S
C570 C569 1.388 . S
C570 C571 1.390 . S
C571 C570 1.390 . S
C571 C572 1.394 . S
C571 C577 1.465 . S
C572 C567 1.399 . S
C572 C571 1.394 . S
C572 C573 1.516 . S
C573 C572 1.516 . S
C573 C574 1.502 . S
C573 C575 1.561 . S
C573 C576 1.526 . S
C574 H558 0.959 . S
C574 H559 0.959 . S
C574 H560 0.961 . S
C574 C573 1.502 . S
C575 H561 0.960 . S
C575 H562 0.961 . S
C575 H563 0.959 . S
C575 C573 1.561 . S
C576 C573 1.526 . S
C576 C577 1.396 . S
C576 C581 1.390 . S
C577 C571 1.465 . S
C577 C576 1.396 . S
C577 C578 1.399 . S
C578 H564 0.929 . S
C578 C577 1.399 . S
C578 C579 1.385 . S
C579 H565 0.931 . S
C579 C578 1.385 . S
C579 C580 1.389 1_455 S
C580 C579 1.389 1_655 S
C580 C581 1.387 1_655 S
C581 H566 0.930 1_455 S
C581 C576 1.390 . S
C581 C580 1.387 1_455 S
H582 C594 0.930 1_565 S
H583 C596 0.930 1_565 S
H584 C597 0.930 . S
H585 C601 0.959 . S
H586 C601 0.959 . S
H587 C601 0.961 . S
H588 C602 0.960 . S
H589 C602 0.961 . S
H590 C602 0.959 . S
H591 C605 0.929 . S
H592 C606 0.931 . S
H593 C608 0.930 . S
C594 H582 0.930 1_545 S
C594 C595 1.399 1_545 S
C594 C599 1.399 . S
C595 C594 1.399 1_565 S
C595 C596 1.376 1_565 S
C596 H583 0.930 1_545 S
C596 C595 1.376 1_545 S
C596 C597 1.388 . S
C597 H584 0.930 . S
C597 C596 1.388 . S
C597 C598 1.390 . S
C598 C597 1.390 . S
C598 C599 1.394 . S
C598 C604 1.465 . S
C599 C594 1.399 . S
C599 C598 1.394 . S
C599 C600 1.516 . S
C600 C599 1.516 . S
C600 C601 1.502 . S
C600 C602 1.561 . S
C600 C603 1.526 . S
C601 H585 0.959 . S
C601 H586 0.959 . S
C601 H587 0.961 . S
C601 C600 1.502 . S
C602 H588 0.960 . S
C602 H589 0.961 . S
C602 H590 0.959 . S
C602 C600 1.561 . S
C603 C600 1.526 . S
C603 C604 1.396 . S
C603 C608 1.390 . S
C604 C598 1.465 . S
C604 C603 1.396 . S
C604 C605 1.399 . S
C605 H591 0.929 . S
C605 C604 1.399 . S
C605 C606 1.385 . S
C606 H592 0.931 . S
C606 C605 1.385 . S
C606 C607 1.389 . S
C607 C606 1.389 . S
C607 C608 1.387 . S
C608 H593 0.930 . S
C608 C603 1.390 . S
C608 C607 1.387 . S
H609 C621 0.930 . S
H610 C623 0.930 . S
H611 C624 0.930 . S
H612 C628 0.959 . S
H613 C628 0.959 . S
H614 C628 0.961 . S
H615 C629 0.960 . S
H616 C629 0.961 . S
H617 C629 0.959 . S
H618 C632 0.929 . S
H619 C633 0.931 1_455 S
H620 C635 0.919 1_455 S
C621 H609 0.930 . S
C621 C622 1.399 . S
C621 C626 1.399 . S
C622 C621 1.399 . S
C622 C623 1.376 . S
C623 H610 0.930 . S
C623 C622 1.376 . S
C623 C624 1.388 . S
C624 H611 0.930 . S
C624 C623 1.388 . S
C624 C625 1.390 . S
C625 C624 1.390 . S
C625 C626 1.394 . S
C625 C631 1.465 . S
C626 C621 1.399 . S
C626 C625 1.394 . S
C626 C627 1.516 . S
C627 C626 1.516 . S
C627 C628 1.502 . S
C627 C629 1.561 . S
C627 C630 1.526 . S
C628 H612 0.959 . S
C628 H613 0.959 . S
C628 H614 0.961 . S
C628 C627 1.502 . S
C629 H615 0.960 . S
C629 H616 0.961 . S
C629 H617 0.959 . S
C629 C627 1.561 . S
C630 C627 1.526 . S
C630 C631 1.396 . S
C630 C635 1.390 . S
C631 C625 1.465 . S
C631 C630 1.396 . S
C631 C632 1.399 . S
C632 H618 0.929 . S
C632 C631 1.399 . S
C632 C633 1.385 . S
C633 H619 0.931 1_655 S
C633 C632 1.385 . S
C633 C634 1.389 1_655 S
C634 C633 1.389 1_455 S
C634 C635 1.387 1_455 S
C635 H620 0.919 1_655 S
C635 C630 1.390 . S
C635 C634 1.387 1_655 S
H636 C648 0.930 . S
H637 C650 0.930 . S
H638 C651 0.930 . S
H639 C655 0.959 . S
H640 C655 0.959 . S
H641 C655 0.961 . S
H642 C656 0.960 . S
H643 C656 0.961 . S
H644 C656 0.959 . S
H645 C659 0.929 . S
H646 C660 0.949 . S
H647 C662 0.930 1_565 S
C648 H636 0.930 . S
C648 C649 1.399 . S
C648 C653 1.399 . S
C649 C648 1.399 . S
C649 C650 1.376 . S
C650 H637 0.930 . S
C650 C649 1.376 . S
C650 C651 1.388 . S
C651 H638 0.930 . S
C651 C650 1.388 . S
C651 C652 1.390 . S
C652 C651 1.390 . S
C652 C653 1.394 . S
C652 C658 1.465 . S
C653 C648 1.399 . S
C653 C652 1.394 . S
C653 C654 1.516 . S
C654 C653 1.516 . S
C654 C655 1.502 . S
C654 C656 1.561 . S
C654 C657 1.526 . S
C655 H639 0.959 . S
C655 H640 0.959 . S
C655 H641 0.961 . S
C655 C654 1.502 . S
C656 H642 0.960 . S
C656 H643 0.961 . S
C656 H644 0.959 . S
C656 C654 1.561 . S
C657 C654 1.526 . S
C657 C658 1.396 . S
C657 C662 1.390 . S
C658 C652 1.465 . S
C658 C657 1.396 . S
C658 C659 1.399 . S
C659 H645 0.929 . S
C659 C658 1.399 . S
C659 C660 1.385 . S
C660 H646 0.949 . S
C660 C659 1.385 . S
C660 C661 1.389 1_545 S
C661 C660 1.389 1_565 S
C661 C662 1.387 1_565 S
C662 H647 0.930 1_545 S
C662 C657 1.390 . S
C662 C661 1.387 1_545 S
H663 C675 0.930 . S
H664 C677 0.930 . S
H665 C678 0.930 . S
H666 C682 0.959 . S
H667 C682 0.959 . S
H668 C682 0.961 . S
H669 C683 0.960 . S
H670 C683 0.961 . S
H671 C683 0.959 . S
H672 C686 0.929 . S
H673 C687 0.931 . S
H674 C689 0.930 . S
C675 H663 0.930 . S
C675 C676 1.399 . S
C675 C680 1.399 . S
C676 C675 1.399 . S
C676 C677 1.376 . S
C677 H664 0.930 . S
C677 C676 1.376 . S
C677 C678 1.388 . S
C678 H665 0.930 . S
C678 C677 1.388 . S
C678 C679 1.390 . S
C679 C678 1.390 . S
C679 C680 1.394 . S
C679 C685 1.465 . S
C680 C675 1.399 . S
C680 C679 1.394 . S
C680 C681 1.516 . S
C681 C680 1.516 . S
C681 C682 1.502 . S
C681 C683 1.561 . S
C681 C684 1.526 . S
C682 H666 0.959 . S
C682 H667 0.959 . S
C682 H668 0.961 . S
C682 C681 1.502 . S
C683 H669 0.960 . S
C683 H670 0.961 . S
C683 H671 0.959 . S
C683 C681 1.561 . S
C684 C681 1.526 . S
C684 C685 1.396 . S
C684 C689 1.390 . S
C685 C679 1.465 . S
C685 C684 1.396 . S
C685 C686 1.399 . S
C686 H672 0.929 . S
C686 C685 1.399 . S
C686 C687 1.385 1_655 S
C687 H673 0.931 . S
C687 C686 1.385 1_455 S
C687 C688 1.389 . S
C688 C687 1.389 . S
C688 C689 1.387 1_455 S
C689 H674 0.930 . S
C689 C684 1.390 . S
C689 C688 1.387 1_655 S
H690 C702 0.930 . S
H691 C704 0.930 . S
H692 C705 0.930 . S
H693 C709 0.959 . S
H694 C709 0.959 . S
H695 C709 0.961 . S
H696 C710 0.960 . S
H697 C710 0.961 . S
H698 C710 0.959 . S
H699 C713 0.929 . S
H700 C714 0.931 . S
H701 C716 0.930 1_545 S
C702 H690 0.930 . S
C702 C703 1.399 . S
C702 C707 1.399 . S
C703 C702 1.399 . S
C703 C704 1.376 . S
C704 H691 0.930 . S
C704 C703 1.376 . S
C704 C705 1.388 . S
C705 H692 0.930 . S
C705 C704 1.388 . S
C705 C706 1.390 . S
C706 C705 1.390 . S
C706 C707 1.394 . S
C706 C712 1.465 . S
C707 C702 1.399 . S
C707 C706 1.394 . S
C707 C708 1.516 . S
C708 C707 1.516 . S
C708 C709 1.502 . S
C708 C710 1.561 . S
C708 C711 1.526 . S
C709 H693 0.959 . S
C709 H694 0.959 . S
C709 H695 0.961 . S
C709 C708 1.502 . S
C710 H696 0.960 . S
C710 H697 0.961 . S
C710 H698 0.959 . S
C710 C708 1.561 . S
C711 C708 1.526 . S
C711 C712 1.396 . S
C711 C716 1.390 . S
C712 C706 1.465 . S
C712 C711 1.396 . S
C712 C713 1.399 . S
C713 H699 0.929 . S
C713 C712 1.399 . S
C713 C714 1.385 . S
C714 H700 0.931 . S
C714 C713 1.385 . S
C714 C715 1.389 1_565 S
C715 C714 1.389 1_545 S
C715 C716 1.387 1_545 S
C716 H701 0.930 1_565 S
C716 C711 1.390 . S
C716 C715 1.387 1_565 S
H717 C729 0.930 1_655 S
H718 C731 0.930 . S
H719 C732 0.930 . S
H720 C736 0.959 . S
H721 C736 0.959 . S
H722 C736 0.961 . S
H723 C737 0.960 . S
H724 C737 0.961 . S
H725 C737 0.959 . S
H726 C740 0.929 . S
H727 C741 0.931 . S
H728 C743 0.930 . S
C729 H717 0.930 1_455 S
C729 C730 1.399 1_455 S
C729 C734 1.399 . S
C730 C729 1.399 1_655 S
C730 C731 1.376 1_655 S
C731 H718 0.930 . S
C731 C730 1.376 1_455 S
C731 C732 1.388 . S
C732 H719 0.930 . S
C732 C731 1.388 . S
C732 C733 1.390 . S
C733 C732 1.390 . S
C733 C734 1.394 . S
C733 C739 1.465 . S
C734 C729 1.399 . S
C734 C733 1.394 . S
C734 C735 1.516 . S
C735 C734 1.516 . S
C735 C736 1.502 . S
C735 C737 1.561 . S
C735 C738 1.526 . S
C736 H720 0.959 . S
C736 H721 0.959 . S
C736 H722 0.961 . S
C736 C735 1.502 . S
C737 H723 0.960 . S
C737 H724 0.961 . S
C737 H725 0.959 . S
C737 C735 1.561 . S
C738 C735 1.526 . S
C738 C739 1.396 . S
C738 C743 1.390 . S
C739 C733 1.465 . S
C739 C738 1.396 . S
C739 C740 1.399 . S
C740 H726 0.929 . S
C740 C739 1.399 . S
C740 C741 1.385 . S
C741 H727 0.931 . S
C741 C740 1.385 . S
C741 C742 1.389 . S
C742 C741 1.389 . S
C742 C743 1.387 . S
C743 H728 0.930 . S
C743 C738 1.390 . S
C743 C742 1.387 . S
H744 C756 0.930 . S
H745 C758 0.930 . S
H746 C759 0.930 . S
H747 C763 0.959 . S
H748 C763 0.959 . S
H749 C763 0.961 . S
H750 C764 0.960 . S
H751 C764 0.961 . S
H752 C764 0.959 . S
H753 C767 0.929 . S
H754 C768 0.931 . S
H755 C770 0.930 . S
C756 H744 0.930 . S
C756 C757 1.399 . S
C756 C761 1.399 . S
C757 C756 1.399 . S
C757 C758 1.376 . S
C758 H745 0.930 . S
C758 C757 1.376 . S
C758 C759 1.388 . S
C759 H746 0.930 . S
C759 C758 1.388 . S
C759 C760 1.390 . S
C760 C759 1.390 . S
C760 C761 1.394 . S
C760 C766 1.465 . S
C761 C756 1.399 . S
C761 C760 1.394 . S
C761 C762 1.516 . S
C762 C761 1.516 . S
C762 C763 1.502 . S
C762 C764 1.561 . S
C762 C765 1.526 . S
C763 H747 0.959 . S
C763 H748 0.959 . S
C763 H749 0.961 . S
C763 C762 1.502 . S
C764 H750 0.960 . S
C764 H751 0.961 . S
C764 H752 0.959 . S
C764 C762 1.561 . S
C765 C762 1.526 . S
C765 C766 1.396 . S
C765 C770 1.390 . S
C766 C760 1.465 . S
C766 C765 1.396 . S
C766 C767 1.399 . S
C767 H753 0.929 . S
C767 C766 1.399 . S
C767 C768 1.385 . S
C768 H754 0.931 . S
C768 C767 1.385 . S
C768 C769 1.389 . S
C769 C768 1.389 . S
C769 C770 1.387 . S
C770 H755 0.930 . S
C770 C765 1.390 . S
C770 C769 1.387 . S
H771 C783 0.930 . S
H772 C785 0.930 . S
H773 C786 0.930 . S
H774 C790 0.959 . S
H775 C790 0.959 . S
H776 C790 0.961 . S
H777 C791 0.960 . S
H778 C791 0.961 . S
H779 C791 0.959 . S
H780 C794 0.929 . S
H781 C795 0.931 . S
H782 C797 0.930 . S
C783 H771 0.930 . S
C783 C784 1.399 . S
C783 C788 1.399 . S
C784 C783 1.399 . S
C784 C785 1.376 . S
C785 H772 0.930 . S
C785 C784 1.376 . S
C785 C786 1.388 . S
C786 H773 0.930 . S
C786 C785 1.388 . S
C786 C787 1.390 . S
C787 C786 1.390 . S
C787 C788 1.394 . S
C787 C793 1.465 . S
C788 C783 1.399 . S
C788 C787 1.394 . S
C788 C789 1.516 . S
C789 C788 1.516 . S
C789 C790 1.502 . S
C789 C791 1.561 . S
C789 C792 1.526 . S
C790 H774 0.959 . S
C790 H775 0.959 . S
C790 H776 0.961 . S
C790 C789 1.502 . S
C791 H777 0.960 . S
C791 H778 0.961 . S
C791 H779 0.959 . S
C791 C789 1.561 . S
C792 C789 1.526 . S
C792 C793 1.396 . S
C792 C797 1.390 . S
C793 C787 1.465 . S
C793 C792 1.396 . S
C793 C794 1.399 . S
C794 H780 0.929 . S
C794 C793 1.399 . S
C794 C795 1.385 . S
C795 H781 0.931 . S
C795 C794 1.385 . S
C795 C796 1.389 . S
C796 C795 1.389 . S
C796 C797 1.387 . S
C797 H782 0.930 . S
C797 C792 1.390 . S
C797 C796 1.387 . S
H798 C810 0.930 . S
H799 C812 0.930 . S
H800 C813 0.930 . S
H801 C817 0.959 . S
H802 C817 0.959 . S
H803 C817 0.961 . S
H804 C818 0.960 . S
H805 C818 0.961 . S
H806 C818 0.959 . S
H807 C821 0.929 . S
H808 C822 0.931 . S
H809 C824 0.930 . S
C810 H798 0.930 . S
C810 C811 1.399 . S
C810 C815 1.399 . S
C811 C810 1.399 . S
C811 C812 1.376 . S
C812 H799 0.930 . S
C812 C811 1.376 . S
C812 C813 1.388 . S
C813 H800 0.930 . S
C813 C812 1.388 . S
C813 C814 1.390 . S
C814 C813 1.390 . S
C814 C815 1.394 . S
C814 C820 1.465 . S
C815 C810 1.399 . S
C815 C814 1.394 . S
C815 C816 1.516 . S
C816 C815 1.516 . S
C816 C817 1.502 . S
C816 C818 1.561 . S
C816 C819 1.526 . S
C817 H801 0.959 . S
C817 H802 0.959 . S
C817 H803 0.961 . S
C817 C816 1.502 . S
C818 H804 0.960 . S
C818 H805 0.961 . S
C818 H806 0.959 . S
C818 C816 1.561 . S
C819 C816 1.526 . S
C819 C820 1.396 . S
C819 C824 1.390 . S
C820 C814 1.465 . S
C820 C819 1.396 . S
C820 C821 1.399 . S
C821 H807 0.929 . S
C821 C820 1.399 . S
C821 C822 1.385 . S
C822 H808 0.931 . S
C822 C821 1.385 . S
C822 C823 1.389 . S
C823 C822 1.389 . S
C823 C824 1.387 . S
C824 H809 0.930 . S
C824 C819 1.390 . S
C824 C823 1.387 . S
H825 C837 0.930 . S
H826 C839 0.930 . S
H827 C840 0.930 . S
H828 C844 0.959 . S
H829 C844 0.959 . S
H830 C844 0.961 . S
H831 C845 0.960 . S
H832 C845 0.961 . S
H833 C845 0.959 . S
H834 C848 0.929 . S
H835 C849 0.931 . S
H836 C851 0.930 . S
C837 H825 0.930 . S
C837 C838 1.399 . S
C837 C842 1.399 . S
C838 C837 1.399 . S
C838 C839 1.376 . S
C839 H826 0.930 . S
C839 C838 1.376 . S
C839 C840 1.388 . S
C840 H827 0.930 . S
C840 C839 1.388 . S
C840 C841 1.390 . S
C841 C840 1.390 . S
C841 C842 1.394 . S
C841 C847 1.465 . S
C842 C837 1.399 . S
C842 C841 1.394 . S
C842 C843 1.516 . S
C843 C842 1.516 . S
C843 C844 1.502 . S
C843 C845 1.561 . S
C843 C846 1.526 . S
C844 H828 0.959 . S
C844 H829 0.959 . S
C844 H830 0.961 . S
C844 C843 1.502 . S
C845 H831 0.960 . S
C845 H832 0.961 . S
C845 H833 0.959 . S
C845 C843 1.561 . S
C846 C843 1.526 . S
C846 C847 1.396 . S
C846 C851 1.390 . S
C847 C841 1.465 . S
C847 C846 1.396 . S
C847 C848 1.399 . S
C848 H834 0.929 . S
C848 C847 1.399 . S
C848 C849 1.385 . S
C849 H835 0.931 . S
C849 C848 1.385 . S
C849 C850 1.389 . S
C850 C849 1.389 . S
C850 C851 1.387 . S
C851 H836 0.930 . S
C851 C846 1.390 . S
C851 C850 1.387 . S
H852 C864 0.930 . S
H853 C866 0.930 . S
H854 C867 0.930 . S
H855 C871 0.959 . S
H856 C871 0.959 . S
H857 C871 0.961 . S
H858 C872 0.960 . S
H859 C872 0.961 . S
H860 C872 0.959 . S
H861 C875 0.929 . S
H862 C876 0.931 . S
H863 C878 0.930 . S
C864 H852 0.930 . S
C864 C865 1.399 . S
C864 C869 1.399 . S
C865 C864 1.399 . S
C865 C866 1.376 . S
C866 H853 0.930 . S
C866 C865 1.376 . S
C866 C867 1.388 . S
C867 H854 0.930 . S
C867 C866 1.388 . S
C867 C868 1.390 . S
C868 C867 1.390 . S
C868 C869 1.394 . S
C868 C874 1.465 . S
C869 C864 1.399 . S
C869 C868 1.394 . S
C869 C870 1.516 . S
C870 C869 1.516 . S
C870 C871 1.502 . S
C870 C872 1.561 . S
C870 C873 1.526 . S
C871 H855 0.959 . S
C871 H856 0.959 . S
C871 H857 0.961 . S
C871 C870 1.502 . S
C872 H858 0.960 . S
C872 H859 0.961 . S
C872 H860 0.959 . S
C872 C870 1.561 . S
C873 C870 1.526 . S
C873 C874 1.396 . S
C873 C878 1.390 . S
C874 C868 1.465 . S
C874 C873 1.396 . S
C874 C875 1.399 . S
C875 H861 0.929 . S
C875 C874 1.399 . S
C875 C876 1.385 . S
C876 H862 0.931 . S
C876 C875 1.385 . S
C876 C877 1.389 . S
C877 C876 1.389 . S
C877 C878 1.387 . S
C878 H863 0.930 . S
C878 C873 1.390 . S
C878 C877 1.387 . S
H879 C891 0.930 . S
H880 C893 0.930 . S
H881 C894 0.930 . S
H882 C898 0.959 . S
H883 C898 0.959 . S
H884 C898 0.961 . S
H885 C899 0.960 . S
H886 C899 0.961 . S
H887 C899 0.959 . S
H888 C902 0.929 . S
H889 C903 0.931 . S
H890 C905 0.930 . S
C891 H879 0.930 . S
C891 C892 1.399 . S
C891 C896 1.399 . S
C892 C891 1.399 . S
C892 C893 1.376 . S
C893 H880 0.930 . S
C893 C892 1.376 . S
C893 C894 1.388 . S
C894 H881 0.930 . S
C894 C893 1.388 . S
C894 C895 1.390 . S
C895 C894 1.390 . S
C895 C896 1.394 . S
C895 C901 1.465 . S
C896 C891 1.399 . S
C896 C895 1.394 . S
C896 C897 1.516 . S
C897 C896 1.516 . S
C897 C898 1.502 . S
C897 C899 1.561 . S
C897 C900 1.526 . S
C898 H882 0.959 . S
C898 H883 0.959 . S
C898 H884 0.961 . S
C898 C897 1.502 . S
C899 H885 0.960 . S
C899 H886 0.961 . S
C899 H887 0.959 . S
C899 C897 1.561 . S
C900 C897 1.526 . S
C900 C901 1.396 . S
C900 C905 1.390 . S
C901 C895 1.465 . S
C901 C900 1.396 . S
C901 C902 1.399 . S
C902 H888 0.929 . S
C902 C901 1.399 . S
C902 C903 1.385 . S
C903 H889 0.931 . S
C903 C902 1.385 . S
C903 C904 1.389 . S
C904 C903 1.389 . S
C904 C905 1.387 . S
C905 H890 0.930 . S
C905 C900 1.390 . S
C905 C904 1.387 . S
H906 C918 0.930 . S
H907 C920 0.930 . S
H908 C921 0.930 . S
H909 C925 0.959 . S
H910 C925 0.959 . S
H911 C925 0.961 . S
H912 C926 0.960 . S
H913 C926 0.961 . S
H914 C926 0.959 . S
H915 C929 0.929 . S
H916 C930 0.931 . S
H917 C932 0.930 . S
C918 H906 0.930 . S
C918 C919 1.399 . S
C918 C923 1.399 . S
C919 C918 1.399 . S
C919 C920 1.376 . S
C920 H907 0.930 . S
C920 C919 1.376 . S
C920 C921 1.388 . S
C921 H908 0.930 . S
C921 C920 1.388 . S
C921 C922 1.390 . S
C922 C921 1.390 . S
C922 C923 1.394 . S
C922 C928 1.465 . S
C923 C918 1.399 . S
C923 C922 1.394 . S
C923 C924 1.516 . S
C924 C923 1.516 . S
C924 C925 1.502 . S
C924 C926 1.561 . S
C924 C927 1.526 . S
C925 H909 0.959 . S
C925 H910 0.959 . S
C925 H911 0.961 . S
C925 C924 1.502 . S
C926 H912 0.960 . S
C926 H913 0.961 . S
C926 H914 0.959 . S
C926 C924 1.561 . S
C927 C924 1.526 . S
C927 C928 1.396 . S
C927 C932 1.390 . S
C928 C922 1.465 . S
C928 C927 1.396 . S
C928 C929 1.399 . S
C929 H915 0.929 . S
C929 C928 1.399 . S
C929 C930 1.385 . S
C930 H916 0.931 . S
C930 C929 1.385 . S
C930 C931 1.389 . S
C931 C930 1.389 . S
C931 C932 1.387 . S
C932 H917 0.930 . S
C932 C927 1.390 . S
C932 C931 1.387 . S
H933 C945 0.930 . S
H934 C947 0.930 . S
H935 C948 0.930 . S
H936 C952 0.959 . S
H937 C952 0.959 . S
H938 C952 0.961 . S
H939 C953 0.960 . S
H940 C953 0.961 . S
H941 C953 0.959 . S
H942 C956 0.929 . S
H943 C957 0.931 . S
H944 C959 0.930 . S
C945 H933 0.930 . S
C945 C946 1.399 . S
C945 C950 1.399 . S
C946 C945 1.399 . S
C946 C947 1.376 . S
C947 H934 0.930 . S
C947 C946 1.376 . S
C947 C948 1.388 . S
C948 H935 0.930 . S
C948 C947 1.388 . S
C948 C949 1.390 . S
C949 C948 1.390 . S
C949 C950 1.394 . S
C949 C955 1.465 . S
C950 C945 1.399 . S
C950 C949 1.394 . S
C950 C951 1.516 . S
C951 C950 1.516 . S
C951 C952 1.502 . S
C951 C953 1.561 . S
C951 C954 1.526 . S
C952 H936 0.959 . S
C952 H937 0.959 . S
C952 H938 0.961 . S
C952 C951 1.502 . S
C953 H939 0.960 . S
C953 H940 0.961 . S
C953 H941 0.959 . S
C953 C951 1.561 . S
C954 C951 1.526 . S
C954 C955 1.396 . S
C954 C959 1.390 . S
C955 C949 1.465 . S
C955 C954 1.396 . S
C955 C956 1.399 . S
C956 H942 0.929 . S
C956 C955 1.399 . S
C956 C957 1.385 . S
C957 H943 0.931 . S
C957 C956 1.385 . S
C957 C958 1.389 . S
C958 C957 1.389 . S
C958 C959 1.387 . S
C959 H944 0.930 . S
C959 C954 1.390 . S
C959 C958 1.387 . S
H960 C972 0.930 . S
H961 C974 0.930 . S
H962 C975 0.930 . S
H963 C979 0.959 . S
H964 C979 0.959 . S
H965 C979 0.961 . S
H966 C980 0.960 . S
H967 C980 0.961 . S
H968 C980 0.959 . S
H969 C983 0.929 . S
H970 C984 0.931 . S
H971 C986 0.930 . S
C972 H960 0.930 . S
C972 C973 1.399 . S
C972 C977 1.399 . S
C973 C972 1.399 . S
C973 C974 1.376 . S
C974 H961 0.930 . S
C974 C973 1.376 . S
C974 C975 1.388 . S
C975 H962 0.930 . S
C975 C974 1.388 . S
C975 C976 1.390 . S
C976 C975 1.390 . S
C976 C977 1.394 . S
C976 C982 1.465 . S
C977 C972 1.399 . S
C977 C976 1.394 . S
C977 C978 1.516 . S
C978 C977 1.516 . S
C978 C979 1.502 . S
C978 C980 1.561 . S
C978 C981 1.526 . S
C979 H963 0.959 . S
C979 H964 0.959 . S
C979 H965 0.961 . S
C979 C978 1.502 . S
C980 H966 0.960 . S
C980 H967 0.961 . S
C980 H968 0.959 . S
C980 C978 1.561 . S
C981 C978 1.526 . S
C981 C982 1.396 . S
C981 C986 1.390 . S
C982 C976 1.465 . S
C982 C981 1.396 . S
C982 C983 1.399 . S
C983 H969 0.929 . S
C983 C982 1.399 . S
C983 C984 1.385 . S
C984 H970 0.931 . S
C984 C983 1.385 . S
C984 C985 1.389 . S
C985 C984 1.389 . S
C985 C986 1.387 . S
C986 H971 0.930 . S
C986 C981 1.390 . S
C986 C985 1.387 . S
H987 C999 0.930 . S
H988 C1001 0.930 . S
H989 C1002 0.930 . S
H990 C1006 0.959 . S
H991 C1006 0.959 . S
H992 C1006 0.961 . S
H993 C1007 0.960 . S
H994 C1007 0.961 . S
H995 C1007 0.959 . S
H996 C1010 0.929 . S
H997 C1011 0.931 . S
H998 C1013 0.930 . S
C999 H987 0.930 . S
C999 C1000 1.399 . S
C999 C1004 1.399 . S
C1000 C999 1.399 . S
C1000 C1001 1.376 . S
C1001 H988 0.930 . S
C1001 C1000 1.376 . S
C1001 C1002 1.388 . S
C1002 H989 0.930 . S
C1002 C1001 1.388 . S
C1002 C1003 1.390 . S
C1003 C1002 1.390 . S
C1003 C1004 1.394 . S
C1003 C1009 1.465 . S
C1004 C999 1.399 . S
C1004 C1003 1.394 . S
C1004 C1005 1.516 . S
C1005 C1004 1.516 . S
C1005 C1006 1.502 . S
C1005 C1007 1.561 . S
C1005 C1008 1.526 . S
C1006 H990 0.959 . S
C1006 H991 0.959 . S
C1006 H992 0.961 . S
C1006 C1005 1.502 . S
C1007 H993 0.960 . S
C1007 H994 0.961 . S
C1007 H995 0.959 . S
C1007 C1005 1.561 . S
C1008 C1005 1.526 . S
C1008 C1009 1.396 . S
C1008 C1013 1.390 . S
C1009 C1003 1.465 . S
C1009 C1008 1.396 . S
C1009 C1010 1.399 . S
C1010 H996 0.929 . S
C1010 C1009 1.399 . S
C1010 C1011 1.385 . S
C1011 H997 0.931 . S
C1011 C1010 1.385 . S
C1011 C1012 1.389 . S
C1012 C1011 1.389 . S
C1012 C1013 1.387 . S
C1013 H998 0.930 . S
C1013 C1008 1.390 . S
C1013 C1012 1.387 . S
H1014 C1026 0.930 . S
H1015 C1028 0.930 . S
H1016 C1029 0.930 . S
H1017 C1033 0.959 . S
H1018 C1033 0.959 . S
H1019 C1033 0.961 . S
H1020 C1034 0.960 . S
H1021 C1034 0.961 . S
H1022 C1034 0.959 . S
H1023 C1037 0.929 . S
H1024 C1038 0.931 . S
H1025 C1040 0.930 . S
C1026 H1014 0.930 . S
C1026 C1027 1.399 . S
C1026 C1031 1.399 . S
C1027 C1026 1.399 . S
C1027 C1028 1.376 . S
C1028 H1015 0.930 . S
C1028 C1027 1.376 . S
C1028 C1029 1.388 . S
C1029 H1016 0.930 . S
C1029 C1028 1.388 . S
C1029 C1030 1.390 . S
C1030 C1029 1.390 . S
C1030 C1031 1.394 . S
C1030 C1036 1.465 . S
C1031 C1026 1.399 . S
C1031 C1030 1.394 . S
C1031 C1032 1.516 . S
C1032 C1031 1.516 . S
C1032 C1033 1.502 . S
C1032 C1034 1.561 . S
C1032 C1035 1.526 . S
C1033 H1017 0.959 . S
C1033 H1018 0.959 . S
C1033 H1019 0.961 . S
C1033 C1032 1.502 . S
C1034 H1020 0.960 . S
C1034 H1021 0.961 . S
C1034 H1022 0.959 . S
C1034 C1032 1.561 . S
C1035 C1032 1.526 . S
C1035 C1036 1.396 . S
C1035 C1040 1.390 . S
C1036 C1030 1.465 . S
C1036 C1035 1.396 . S
C1036 C1037 1.399 . S
C1037 H1023 0.929 . S
C1037 C1036 1.399 . S
C1037 C1038 1.385 . S
C1038 H1024 0.931 . S
C1038 C1037 1.385 . S
C1038 C1039 1.389 . S
C1039 C1038 1.389 . S
C1039 C1040 1.387 . S
C1040 H1025 0.930 . S
C1040 C1035 1.390 . S
C1040 C1039 1.387 . S
H1041 C1053 0.930 . S
H1042 C1055 0.930 . S
H1043 C1056 0.930 . S
H1044 C1060 0.959 . S
H1045 C1060 0.959 . S
H1046 C1060 0.961 . S
H1047 C1061 0.960 . S
H1048 C1061 0.961 . S
H1049 C1061 0.959 . S
H1050 C1064 0.929 . S
H1051 C1065 0.931 . S
H1052 C1067 0.930 . S
C1053 H1041 0.930 . S
C1053 C1054 1.399 . S
C1053 C1058 1.399 . S
C1054 C1053 1.399 . S
C1054 C1055 1.376 . S
C1055 H1042 0.930 . S
C1055 C1054 1.376 . S
C1055 C1056 1.388 . S
C1056 H1043 0.930 . S
C1056 C1055 1.388 . S
C1056 C1057 1.390 . S
C1057 C1056 1.390 . S
C1057 C1058 1.394 . S
C1057 C1063 1.465 . S
C1058 C1053 1.399 . S
C1058 C1057 1.394 . S
C1058 C1059 1.516 . S
C1059 C1058 1.516 . S
C1059 C1060 1.502 . S
C1059 C1061 1.561 . S
C1059 C1062 1.526 . S
C1060 H1044 0.959 . S
C1060 H1045 0.959 . S
C1060 H1046 0.961 . S
C1060 C1059 1.502 . S
C1061 H1047 0.960 . S
C1061 H1048 0.961 . S
C1061 H1049 0.959 . S
C1061 C1059 1.561 . S
C1062 C1059 1.526 . S
C1062 C1063 1.396 . S
C1062 C1067 1.390 . S
C1063 C1057 1.465 . S
C1063 C1062 1.396 . S
C1063 C1064 1.399 . S
C1064 H1050 0.929 . S
C1064 C1063 1.399 . S
C1064 C1065 1.385 . S
C1065 H1051 0.931 . S
C1065 C1064 1.385 . S
C1065 C1066 1.389 . S
C1066 C1065 1.389 . S
C1066 C1067 1.387 . S
C1067 H1052 0.930 . S
C1067 C1062 1.390 . S
C1067 C1066 1.387 . S
H1068 C1080 0.930 . S
H1069 C1082 0.930 . S
H1070 C1083 0.930 . S
H1071 C1087 0.959 . S
H1072 C1087 0.959 . S
H1073 C1087 0.961 . S
H1074 C1088 0.960 . S
H1075 C1088 0.961 . S
H1076 C1088 0.959 . S
H1077 C1091 0.929 1_556 S
H1078 C1092 0.931 . S
H1079 C1094 0.930 . S
C1080 H1068 0.930 . S
C1080 C1081 1.399 . S
C1080 C1085 1.399 . S
C1081 C1080 1.399 . S
C1081 C1082 1.376 . S
C1082 H1069 0.930 . S
C1082 C1081 1.376 . S
C1082 C1083 1.388 . S
C1083 H1070 0.930 . S
C1083 C1082 1.388 . S
C1083 C1084 1.390 . S
C1084 C1083 1.390 . S
C1084 C1085 1.394 . S
C1084 C1090 1.465 1_556 S
C1085 C1080 1.399 . S
C1085 C1084 1.394 . S
C1085 C1086 1.516 1_556 S
C1086 C1085 1.516 1_554 S
C1086 C1087 1.502 . S
C1086 C1088 1.561 . S
C1086 C1089 1.526 . S
C1087 H1071 0.959 . S
C1087 H1072 0.959 . S
C1087 H1073 0.961 . S
C1087 C1086 1.502 . S
C1088 H1074 0.960 . S
C1088 H1075 0.961 . S
C1088 H1076 0.959 . S
C1088 C1086 1.561 . S
C1089 C1086 1.526 . S
C1089 C1090 1.396 . S
C1089 C1094 1.390 . S
C1090 C1084 1.465 1_554 S
C1090 C1089 1.396 . S
C1090 C1091 1.399 . S
C1091 H1077 0.929 1_554 S
C1091 C1090 1.399 . S
C1091 C1092 1.385 . S
C1092 H1078 0.931 . S
C1092 C1091 1.385 . S
C1092 C1093 1.389 . S
C1093 C1092 1.389 . S
C1093 C1094 1.387 . S
C1094 H1079 0.930 . S
C1094 C1089 1.390 . S
C1094 C1093 1.387 . S
H1095 C1107 0.930 . S
H1096 C1109 0.930 . S
H1097 C1110 0.930 . S
H1098 C1114 0.959 . S
H1099 C1114 0.959 . S
H1100 C1114 0.961 . S
H1101 C1115 0.960 . S
H1102 C1115 0.961 . S
H1103 C1115 0.959 . S
H1104 C1118 0.929 1_556 S
H1105 C1119 0.931 . S
H1106 C1121 0.930 . S
C1107 H1095 0.930 . S
C1107 C1108 1.399 . S
C1107 C1112 1.399 . S
C1108 C1107 1.399 . S
C1108 C1109 1.376 . S
C1109 H1096 0.930 . S
C1109 C1108 1.376 . S
C1109 C1110 1.388 . S
C1110 H1097 0.930 . S
C1110 C1109 1.388 . S
C1110 C1111 1.390 . S
C1111 C1110 1.390 . S
C1111 C1112 1.394 . S
C1111 C1117 1.465 1_556 S
C1112 C1107 1.399 . S
C1112 C1111 1.394 . S
C1112 C1113 1.516 1_556 S
C1113 C1112 1.516 1_554 S
C1113 C1114 1.502 . S
C1113 C1115 1.561 . S
C1113 C1116 1.526 . S
C1114 H1098 0.959 . S
C1114 H1099 0.959 . S
C1114 H1100 0.961 . S
C1114 C1113 1.502 . S
C1115 H1101 0.960 . S
C1115 H1102 0.961 . S
C1115 H1103 0.959 . S
C1115 C1113 1.561 . S
C1116 C1113 1.526 . S
C1116 C1117 1.396 . S
C1116 C1121 1.390 . S
C1117 C1111 1.465 1_554 S
C1117 C1116 1.396 . S
C1117 C1118 1.399 . S
C1118 H1104 0.929 1_554 S
C1118 C1117 1.399 . S
C1118 C1119 1.385 . S
C1119 H1105 0.931 . S
C1119 C1118 1.385 . S
C1119 C1120 1.389 . S
C1120 C1119 1.389 . S
C1120 C1121 1.387 . S
C1121 H1106 0.930 . S
C1121 C1116 1.390 . S
C1121 C1120 1.387 . S
H1122 C1134 0.930 . S
H1123 C1136 0.930 . S
H1124 C1137 0.930 . S
H1125 C1141 0.959 . S
H1126 C1141 0.959 . S
H1127 C1141 0.961 . S
H1128 C1142 0.960 . S
H1129 C1142 0.961 . S
H1130 C1142 0.959 . S
H1131 C1145 0.929 . S
H1132 C1146 0.931 . S
H1133 C1148 0.930 . S
C1134 H1122 0.930 . S
C1134 C1135 1.399 . S
C1134 C1139 1.399 . S
C1135 C1134 1.399 . S
C1135 C1136 1.376 . S
C1136 H1123 0.930 . S
C1136 C1135 1.376 . S
C1136 C1137 1.388 . S
C1137 H1124 0.930 . S
C1137 C1136 1.388 . S
C1137 C1138 1.390 . S
C1138 C1137 1.390 . S
C1138 C1139 1.394 . S
C1138 C1144 1.465 1_556 S
C1139 C1134 1.399 . S
C1139 C1138 1.394 . S
C1139 C1140 1.516 1_556 S
C1140 C1139 1.516 1_554 S
C1140 C1141 1.502 . S
C1140 C1142 1.561 . S
C1140 C1143 1.526 . S
C1141 H1125 0.959 . S
C1141 H1126 0.959 . S
C1141 H1127 0.961 . S
C1141 C1140 1.502 . S
C1142 H1128 0.960 . S
C1142 H1129 0.961 . S
C1142 H1130 0.959 . S
C1142 C1140 1.561 . S
C1143 C1140 1.526 . S
C1143 C1144 1.396 . S
C1143 C1148 1.390 . S
C1144 C1138 1.465 1_554 S
C1144 C1143 1.396 . S
C1144 C1145 1.399 1_554 S
C1145 H1131 0.929 . S
C1145 C1144 1.399 1_556 S
C1145 C1146 1.385 1_556 S
C1146 H1132 0.931 . S
C1146 C1145 1.385 1_554 S
C1146 C1147 1.389 . S
C1147 C1146 1.389 . S
C1147 C1148 1.387 . S
C1148 H1133 0.930 . S
C1148 C1143 1.390 . S
C1148 C1147 1.387 . S
H1149 C1161 0.930 . S
H1150 C1163 0.930 . S
H1151 C1164 0.930 . S
H1152 C1168 0.959 . S
H1153 C1168 0.959 . S
H1154 C1168 0.961 . S
H1155 C1169 0.960 . S
H1156 C1169 0.961 . S
H1157 C1169 0.959 . S
H1158 C1172 0.942 . S
H1159 C1173 0.931 . S
H1160 C1175 0.930 . S
C1161 H1149 0.930 . S
C1161 C1162 1.399 . S
C1161 C1166 1.399 . S
C1162 C1161 1.399 . S
C1162 C1163 1.376 . S
C1163 H1150 0.930 . S
C1163 C1162 1.376 . S
C1163 C1164 1.388 . S
C1164 H1151 0.930 . S
C1164 C1163 1.388 . S
C1164 C1165 1.390 . S
C1165 C1164 1.390 . S
C1165 C1166 1.394 . S
C1165 C1171 1.465 1_556 S
C1166 C1161 1.399 . S
C1166 C1165 1.394 . S
C1166 C1167 1.516 1_556 S
C1167 C1166 1.516 1_554 S
C1167 C1168 1.502 . S
C1167 C1169 1.561 . S
C1167 C1170 1.526 . S
C1168 H1152 0.959 . S
C1168 H1153 0.959 . S
C1168 H1154 0.961 . S
C1168 C1167 1.502 . S
C1169 H1155 0.960 . S
C1169 H1156 0.961 . S
C1169 H1157 0.959 . S
C1169 C1167 1.561 . S
C1170 C1167 1.526 . S
C1170 C1171 1.396 . S
C1170 C1175 1.390 . S
C1171 C1165 1.465 1_554 S
C1171 C1170 1.396 . S
C1171 C1172 1.398 1_554 S
C1172 H1158 0.942 . S
C1172 C1171 1.398 1_556 S
C1172 C1173 1.373 1_556 S
C1173 H1159 0.931 . S
C1173 C1172 1.373 1_554 S
C1173 C1174 1.389 . S
C1174 C1173 1.389 . S
C1174 C1175 1.387 . S
C1175 H1160 0.930 . S
C1175 C1170 1.390 . S
C1175 C1174 1.387 . S
H1176 C1188 0.930 . S
H1177 C1190 0.930 . S
H1178 C1191 0.930 . S
H1179 C1195 0.959 . S
H1180 C1195 0.959 . S
H1181 C1195 0.961 . S
H1182 C1196 0.960 . S
H1183 C1196 0.961 . S
H1184 C1196 0.959 . S
H1185 C1199 0.929 . S
H1186 C1200 0.931 . S
H1187 C1202 0.930 . S
C1188 H1176 0.930 . S
C1188 C1189 1.399 . S
C1188 C1193 1.399 . S
C1189 C1188 1.399 . S
C1189 C1190 1.376 . S
C1190 H1177 0.930 . S
C1190 C1189 1.376 . S
C1190 C1191 1.388 . S
C1191 H1178 0.930 . S
C1191 C1190 1.388 . S
C1191 C1192 1.390 . S
C1192 C1191 1.390 . S
C1192 C1193 1.394 . S
C1192 C1198 1.465 . S
C1193 C1188 1.399 . S
C1193 C1192 1.394 . S
C1193 C1194 1.516 . S
C1194 C1193 1.516 . S
C1194 C1195 1.502 . S
C1194 C1196 1.561 . S
C1194 C1197 1.526 . S
C1195 H1179 0.959 . S
C1195 H1180 0.959 . S
C1195 H1181 0.961 . S
C1195 C1194 1.502 . S
C1196 H1182 0.960 . S
C1196 H1183 0.961 . S
C1196 H1184 0.959 . S
C1196 C1194 1.561 . S
C1197 C1194 1.526 . S
C1197 C1198 1.396 . S
C1197 C1202 1.390 . S
C1198 C1192 1.465 . S
C1198 C1197 1.396 . S
C1198 C1199 1.399 . S
C1199 H1185 0.929 . S
C1199 C1198 1.399 . S
C1199 C1200 1.385 . S
C1200 H1186 0.931 . S
C1200 C1199 1.385 . S
C1200 C1201 1.389 . S
C1201 C1200 1.389 . S
C1201 C1202 1.387 . S
C1202 H1187 0.930 . S
C1202 C1197 1.390 . S
C1202 C1201 1.387 . S
H1203 C1215 0.930 . S
H1204 C1217 0.930 . S
H1205 C1218 0.930 . S
H1206 C1222 0.959 . S
H1207 C1222 0.959 . S
H1208 C1222 0.961 . S
H1209 C1223 0.960 . S
H1210 C1223 0.961 . S
H1211 C1223 0.959 . S
H1212 C1226 0.929 . S
H1213 C1227 0.931 . S
H1214 C1229 0.930 . S
C1215 H1203 0.930 . S
C1215 C1216 1.399 . S
C1215 C1220 1.399 . S
C1216 C1215 1.399 . S
C1216 C1217 1.376 . S
C1217 H1204 0.930 . S
C1217 C1216 1.376 . S
C1217 C1218 1.388 . S
C1218 H1205 0.930 . S
C1218 C1217 1.388 . S
C1218 C1219 1.390 . S
C1219 C1218 1.390 . S
C1219 C1220 1.394 . S
C1219 C1225 1.465 . S
C1220 C1215 1.399 . S
C1220 C1219 1.394 . S
C1220 C1221 1.516 . S
C1221 C1220 1.516 . S
C1221 C1222 1.502 . S
C1221 C1223 1.561 . S
C1221 C1224 1.526 . S
C1222 H1206 0.959 . S
C1222 H1207 0.959 . S
C1222 H1208 0.961 . S
C1222 C1221 1.502 . S
C1223 H1209 0.960 . S
C1223 H1210 0.961 . S
C1223 H1211 0.959 . S
C1223 C1221 1.561 . S
C1224 C1221 1.526 . S
C1224 C1225 1.396 . S
C1224 C1229 1.390 . S
C1225 C1219 1.465 . S
C1225 C1224 1.396 . S
C1225 C1226 1.399 . S
C1226 H1212 0.929 . S
C1226 C1225 1.399 . S
C1226 C1227 1.385 . S
C1227 H1213 0.931 . S
C1227 C1226 1.385 . S
C1227 C1228 1.389 . S
C1228 C1227 1.389 . S
C1228 C1229 1.387 . S
C1229 H1214 0.930 . S
C1229 C1224 1.390 . S
C1229 C1228 1.387 . S
H1230 C1242 0.930 . S
H1231 C1244 0.930 . S
H1232 C1245 0.930 . S
H1233 C1249 0.959 . S
H1234 C1249 0.959 . S
H1235 C1249 0.961 . S
H1236 C1250 0.960 . S
H1237 C1250 0.961 . S
H1238 C1250 0.959 . S
H1239 C1253 0.929 . S
H1240 C1254 0.931 . S
H1241 C1256 0.930 . S
C1242 H1230 0.930 . S
C1242 C1243 1.399 . S
C1242 C1247 1.399 . S
C1243 C1242 1.399 . S
C1243 C1244 1.376 . S
C1244 H1231 0.930 . S
C1244 C1243 1.376 . S
C1244 C1245 1.388 . S
C1245 H1232 0.930 . S
C1245 C1244 1.388 . S
C1245 C1246 1.390 . S
C1246 C1245 1.390 . S
C1246 C1247 1.394 . S
C1246 C1252 1.465 . S
C1247 C1242 1.399 . S
C1247 C1246 1.394 . S
C1247 C1248 1.516 . S
C1248 C1247 1.516 . S
C1248 C1249 1.502 . S
C1248 C1250 1.561 . S
C1248 C1251 1.526 . S
C1249 H1233 0.959 . S
C1249 H1234 0.959 . S
C1249 H1235 0.961 . S
C1249 C1248 1.502 . S
C1250 H1236 0.960 . S
C1250 H1237 0.961 . S
C1250 H1238 0.959 . S
C1250 C1248 1.561 . S
C1251 C1248 1.526 . S
C1251 C1252 1.396 . S
C1251 C1256 1.390 . S
C1252 C1246 1.465 . S
C1252 C1251 1.396 . S
C1252 C1253 1.399 . S
C1253 H1239 0.929 . S
C1253 C1252 1.399 . S
C1253 C1254 1.385 . S
C1254 H1240 0.931 . S
C1254 C1253 1.385 . S
C1254 C1255 1.389 . S
C1255 C1254 1.389 . S
C1255 C1256 1.387 . S
C1256 H1241 0.930 . S
C1256 C1251 1.390 . S
C1256 C1255 1.387 . S
H1257 C1269 0.930 . S
H1258 C1271 0.930 . S
H1259 C1272 0.930 . S
H1260 C1276 0.959 . S
H1261 C1276 0.959 . S
H1262 C1276 0.961 . S
H1263 C1277 0.960 . S
H1264 C1277 0.961 . S
H1265 C1277 0.959 . S
H1266 C1280 0.929 . S
H1267 C1281 0.931 . S
H1268 C1283 0.930 . S
C1269 H1257 0.930 . S
C1269 C1270 1.399 . S
C1269 C1274 1.399 . S
C1270 C1269 1.399 . S
C1270 C1271 1.376 . S
C1271 H1258 0.930 . S
C1271 C1270 1.376 . S
C1271 C1272 1.388 . S
C1272 H1259 0.930 . S
C1272 C1271 1.388 . S
C1272 C1273 1.390 . S
C1273 C1272 1.390 . S
C1273 C1274 1.394 . S
C1273 C1279 1.465 . S
C1274 C1269 1.399 . S
C1274 C1273 1.394 . S
C1274 C1275 1.516 . S
C1275 C1274 1.516 . S
C1275 C1276 1.502 . S
C1275 C1277 1.561 . S
C1275 C1278 1.526 . S
C1276 H1260 0.959 . S
C1276 H1261 0.959 . S
C1276 H1262 0.961 . S
C1276 C1275 1.502 . S
C1277 H1263 0.960 . S
C1277 H1264 0.961 . S
C1277 H1265 0.959 . S
C1277 C1275 1.561 . S
C1278 C1275 1.526 . S
C1278 C1279 1.396 . S
C1278 C1283 1.390 . S
C1279 C1273 1.465 . S
C1279 C1278 1.396 . S
C1279 C1280 1.399 . S
C1280 H1266 0.929 . S
C1280 C1279 1.399 . S
C1280 C1281 1.385 . S
C1281 H1267 0.931 . S
C1281 C1280 1.385 . S
C1281 C1282 1.389 . S
C1282 C1281 1.389 . S
C1282 C1283 1.387 . S
C1283 H1268 0.930 . S
C1283 C1278 1.390 . S
C1283 C1282 1.387 . S
H1284 C1296 0.930 . S
H1285 C1298 0.930 . S
H1286 C1299 0.930 . S
H1287 C1303 0.959 . S
H1288 C1303 0.959 . S
H1289 C1303 0.961 . S
H1290 C1304 0.960 . S
H1291 C1304 0.961 . S
H1292 C1304 0.959 . S
H1293 C1307 0.929 . S
H1294 C1308 0.931 . S
H1295 C1310 0.930 . S
C1296 H1284 0.930 . S
C1296 C1297 1.399 . S
C1296 C1301 1.399 . S
C1297 C1296 1.399 . S
C1297 C1298 1.376 . S
C1298 H1285 0.930 . S
C1298 C1297 1.376 . S
C1298 C1299 1.388 . S
C1299 H1286 0.930 . S
C1299 C1298 1.388 . S
C1299 C1300 1.390 . S
C1300 C1299 1.390 . S
C1300 C1301 1.394 . S
C1300 C1306 1.465 . S
C1301 C1296 1.399 . S
C1301 C1300 1.394 . S
C1301 C1302 1.516 . S
C1302 C1301 1.516 . S
C1302 C1303 1.502 . S
C1302 C1304 1.561 . S
C1302 C1305 1.526 . S
C1303 H1287 0.959 . S
C1303 H1288 0.959 . S
C1303 H1289 0.961 . S
C1303 C1302 1.502 . S
C1304 H1290 0.960 . S
C1304 H1291 0.961 . S
C1304 H1292 0.959 . S
C1304 C1302 1.561 . S
C1305 C1302 1.526 . S
C1305 C1306 1.396 . S
C1305 C1310 1.390 . S
C1306 C1300 1.465 . S
C1306 C1305 1.396 . S
C1306 C1307 1.399 . S
C1307 H1293 0.929 . S
C1307 C1306 1.399 . S
C1307 C1308 1.385 . S
C1308 H1294 0.931 . S
C1308 C1307 1.385 . S
C1308 C1309 1.389 . S
C1309 C1308 1.389 . S
C1309 C1310 1.387 . S
C1310 H1295 0.930 . S
C1310 C1305 1.390 . S
C1310 C1309 1.387 . S
H1311 C1323 0.930 . S
H1312 C1325 0.930 . S
H1313 C1326 0.930 . S
H1314 C1330 0.959 . S
H1315 C1330 0.959 . S
H1316 C1330 0.961 . S
H1317 C1331 0.960 . S
H1318 C1331 0.961 . S
H1319 C1331 0.959 . S
H1320 C1334 0.929 . S
H1321 C1335 0.931 . S
H1322 C1337 0.930 . S
C1323 H1311 0.930 . S
C1323 C1324 1.399 . S
C1323 C1328 1.399 . S
C1324 C1323 1.399 . S
C1324 C1325 1.376 . S
C1325 H1312 0.930 . S
C1325 C1324 1.376 . S
C1325 C1326 1.388 . S
C1326 H1313 0.930 . S
C1326 C1325 1.388 . S
C1326 C1327 1.390 . S
C1327 C1326 1.390 . S
C1327 C1328 1.394 . S
C1327 C1333 1.465 . S
C1328 C1323 1.399 . S
C1328 C1327 1.394 . S
C1328 C1329 1.516 . S
C1329 C1328 1.516 . S
C1329 C1330 1.502 . S
C1329 C1331 1.561 . S
C1329 C1332 1.526 . S
C1330 H1314 0.959 . S
C1330 H1315 0.959 . S
C1330 H1316 0.961 . S
C1330 C1329 1.502 . S
C1331 H1317 0.960 . S
C1331 H1318 0.961 . S
C1331 H1319 0.959 . S
C1331 C1329 1.561 . S
C1332 C1329 1.526 . S
C1332 C1333 1.396 . S
C1332 C1337 1.390 . S
C1333 C1327 1.465 . S
C1333 C1332 1.396 . S
C1333 C1334 1.399 . S
C1334 H1320 0.929 . S
C1334 C1333 1.399 . S
C1334 C1335 1.385 . S
C1335 H1321 0.931 . S
C1335 C1334 1.385 . S
C1335 C1336 1.389 . S
C1336 C1335 1.389 . S
C1336 C1337 1.387 . S
C1337 H1322 0.930 . S
C1337 C1332 1.390 . S
C1337 C1336 1.387 . S
H1338 C1350 0.930 . S
H1339 C1352 0.930 . S
H1340 C1353 0.930 . S
H1341 C1357 0.959 . S
H1342 C1357 0.959 . S
H1343 C1357 0.961 . S
H1344 C1358 0.960 . S
H1345 C1358 0.961 . S
H1346 C1358 0.959 . S
H1347 C1361 0.929 . S
H1348 C1362 0.931 . S
H1349 C1364 0.930 . S
C1350 H1338 0.930 . S
C1350 C1351 1.399 . S
C1350 C1355 1.399 . S
C1351 C1350 1.399 . S
C1351 C1352 1.376 . S
C1352 H1339 0.930 . S
C1352 C1351 1.376 . S
C1352 C1353 1.388 . S
C1353 H1340 0.930 . S
C1353 C1352 1.388 . S
C1353 C1354 1.390 . S
C1354 C1353 1.390 . S
C1354 C1355 1.394 . S
C1354 C1360 1.465 . S
C1355 C1350 1.399 . S
C1355 C1354 1.394 . S
C1355 C1356 1.516 . S
C1356 C1355 1.516 . S
C1356 C1357 1.502 . S
C1356 C1358 1.561 . S
C1356 C1359 1.526 . S
C1357 H1341 0.959 . S
C1357 H1342 0.959 . S
C1357 H1343 0.961 . S
C1357 C1356 1.502 . S
C1358 H1344 0.960 . S
C1358 H1345 0.961 . S
C1358 H1346 0.959 . S
C1358 C1356 1.561 . S
C1359 C1356 1.526 . S
C1359 C1360 1.396 . S
C1359 C1364 1.390 . S
C1360 C1354 1.465 . S
C1360 C1359 1.396 . S
C1360 C1361 1.399 . S
C1361 H1347 0.929 . S
C1361 C1360 1.399 . S
C1361 C1362 1.385 . S
C1362 H1348 0.931 . S
C1362 C1361 1.385 . S
C1362 C1363 1.389 . S
C1363 C1362 1.389 . S
C1363 C1364 1.387 . S
C1364 H1349 0.930 . S
C1364 C1359 1.390 . S
C1364 C1363 1.387 . S
H1365 C1377 0.930 . S
H1366 C1379 0.930 . S
H1367 C1380 0.930 . S
H1368 C1384 0.959 . S
H1369 C1384 0.959 . S
H1370 C1384 0.961 . S
H1371 C1385 0.960 . S
H1372 C1385 0.961 . S
H1373 C1385 0.959 . S
H1374 C1388 0.929 . S
H1375 C1389 0.931 . S
H1376 C1391 0.930 . S
C1377 H1365 0.930 . S
C1377 C1378 1.399 . S
C1377 C1382 1.399 . S
C1378 C1377 1.399 . S
C1378 C1379 1.376 . S
C1379 H1366 0.930 . S
C1379 C1378 1.376 . S
C1379 C1380 1.388 . S
C1380 H1367 0.930 . S
C1380 C1379 1.388 . S
C1380 C1381 1.390 . S
C1381 C1380 1.390 . S
C1381 C1382 1.394 . S
C1381 C1387 1.465 . S
C1382 C1377 1.399 . S
C1382 C1381 1.394 . S
C1382 C1383 1.516 . S
C1383 C1382 1.516 . S
C1383 C1384 1.502 . S
C1383 C1385 1.561 . S
C1383 C1386 1.526 . S
C1384 H1368 0.959 . S
C1384 H1369 0.959 . S
C1384 H1370 0.961 . S
C1384 C1383 1.502 . S
C1385 H1371 0.960 . S
C1385 H1372 0.961 . S
C1385 H1373 0.959 . S
C1385 C1383 1.561 . S
C1386 C1383 1.526 . S
C1386 C1387 1.396 . S
C1386 C1391 1.390 . S
C1387 C1381 1.465 . S
C1387 C1386 1.396 . S
C1387 C1388 1.399 . S
C1388 H1374 0.929 . S
C1388 C1387 1.399 . S
C1388 C1389 1.385 . S
C1389 H1375 0.931 . S
C1389 C1388 1.385 . S
C1389 C1390 1.389 . S
C1390 C1389 1.389 . S
C1390 C1391 1.387 . S
C1391 H1376 0.930 . S
C1391 C1386 1.390 . S
C1391 C1390 1.387 . S
H1392 C1404 0.930 . S
H1393 C1406 0.930 . S
H1394 C1407 0.930 . S
H1395 C1411 0.959 . S
H1396 C1411 0.959 . S
H1397 C1411 0.961 . S
H1398 C1412 0.960 . S
H1399 C1412 0.961 . S
H1400 C1412 0.959 . S
H1401 C1415 0.929 . S
H1402 C1416 0.931 . S
H1403 C1418 0.930 . S
C1404 H1392 0.930 . S
C1404 C1405 1.399 . S
C1404 C1409 1.399 . S
C1405 C1404 1.399 . S
C1405 C1406 1.376 . S
C1406 H1393 0.930 . S
C1406 C1405 1.376 . S
C1406 C1407 1.388 . S
C1407 H1394 0.930 . S
C1407 C1406 1.388 . S
C1407 C1408 1.390 . S
C1408 C1407 1.390 . S
C1408 C1409 1.394 . S
C1408 C1414 1.465 . S
C1409 C1404 1.399 . S
C1409 C1408 1.394 . S
C1409 C1410 1.516 1_545 S
C1410 C1409 1.516 1_565 S
C1410 C1411 1.502 . S
C1410 C1412 1.561 . S
C1410 C1413 1.526 . S
C1411 H1395 0.959 . S
C1411 H1396 0.959 . S
C1411 H1397 0.961 . S
C1411 C1410 1.502 . S
C1412 H1398 0.960 . S
C1412 H1399 0.961 . S
C1412 H1400 0.959 . S
C1412 C1410 1.561 . S
C1413 C1410 1.526 . S
C1413 C1414 1.396 1_565 S
C1413 C1418 1.390 . S
C1414 C1408 1.465 . S
C1414 C1413 1.396 1_545 S
C1414 C1415 1.399 . S
C1415 H1401 0.929 . S
C1415 C1414 1.399 . S
C1415 C1416 1.385 1_545 S
C1416 H1402 0.931 . S
C1416 C1415 1.385 1_565 S
C1416 C1417 1.389 . S
C1417 C1416 1.389 . S
C1417 C1418 1.387 . S
C1418 H1403 0.930 . S
C1418 C1413 1.390 . S
C1418 C1417 1.387 . S
H1419 C1431 0.930 . S
H1420 C1433 0.930 . S
H1421 C1434 0.930 . S
H1422 C1438 0.959 . S
H1423 C1438 0.959 . S
H1424 C1438 0.961 . S
H1425 C1439 0.970 . S
H1426 C1439 0.961 . S
H1427 C1439 0.959 1_655 S
H1428 C1442 0.957 . S
H1429 C1443 0.931 . S
H1430 C1445 0.930 . S
C1431 H1419 0.930 . S
C1431 C1432 1.399 . S
C1431 C1436 1.399 . S
C1432 C1431 1.399 . S
C1432 C1433 1.376 . S
C1433 H1420 0.930 . S
C1433 C1432 1.376 . S
C1433 C1434 1.388 . S
C1434 H1421 0.930 . S
C1434 C1433 1.388 . S
C1434 C1435 1.390 . S
C1435 C1434 1.390 . S
C1435 C1436 1.394 . S
C1435 C1441 1.472 . S
C1436 C1431 1.399 . S
C1436 C1435 1.394 . S
C1436 C1437 1.516 1_655 S
C1437 C1436 1.516 1_455 S
C1437 C1438 1.502 . S
C1437 C1439 1.561 . S
C1437 C1440 1.526 . S
C1438 H1422 0.959 . S
C1438 H1423 0.959 . S
C1438 H1424 0.961 . S
C1438 C1437 1.502 . S
C1439 H1425 0.970 . S
C1439 H1426 0.961 . S
C1439 H1427 0.959 1_455 S
C1439 C1437 1.561 . S
C1440 C1437 1.526 . S
C1440 C1441 1.388 1_455 S
C1440 C1445 1.390 . S
C1441 C1435 1.472 . S
C1441 C1440 1.388 1_655 S
C1441 C1442 1.398 . S
C1442 H1428 0.957 . S
C1442 C1441 1.398 . S
C1442 C1443 1.358 1_655 S
C1443 H1429 0.931 . S
C1443 C1442 1.358 1_455 S
C1443 C1444 1.389 . S
C1444 C1443 1.389 . S
C1444 C1445 1.387 . S
C1445 H1430 0.930 . S
C1445 C1440 1.390 . S
C1445 C1444 1.387 . S
H1446 C1458 0.930 . S
H1447 C1460 0.930 . S
H1448 C1461 0.930 . S
H1449 C1465 0.959 . S
H1450 C1465 0.959 . S
H1451 C1465 0.961 . S
H1452 C1466 0.960 . S
H1453 C1466 0.961 . S
H1454 C1466 0.959 . S
H1455 C1469 0.929 . S
H1456 C1470 0.931 . S
H1457 C1472 0.930 . S
C1458 H1446 0.930 . S
C1458 C1459 1.399 . S
C1458 C1463 1.399 . S
C1459 C1458 1.399 . S
C1459 C1460 1.376 . S
C1460 H1447 0.930 . S
C1460 C1459 1.376 . S
C1460 C1461 1.388 1_565 S
C1461 H1448 0.930 . S
C1461 C1460 1.388 1_545 S
C1461 C1462 1.390 1_545 S
C1462 C1461 1.390 1_565 S
C1462 C1463 1.394 . S
C1462 C1468 1.465 1_565 S
C1463 C1458 1.399 . S
C1463 C1462 1.394 . S
C1463 C1464 1.516 . S
C1464 C1463 1.516 . S
C1464 C1465 1.502 . S
C1464 C1466 1.561 . S
C1464 C1467 1.526 1_565 S
C1465 H1449 0.959 . S
C1465 H1450 0.959 . S
C1465 H1451 0.961 . S
C1465 C1464 1.502 . S
C1466 H1452 0.960 . S
C1466 H1453 0.961 . S
C1466 H1454 0.959 . S
C1466 C1464 1.561 . S
C1467 C1464 1.526 1_545 S
C1467 C1468 1.396 . S
C1467 C1472 1.390 . S
C1468 C1462 1.465 1_545 S
C1468 C1467 1.396 . S
C1468 C1469 1.399 . S
C1469 H1455 0.929 . S
C1469 C1468 1.399 . S
C1469 C1470 1.385 . S
C1470 H1456 0.931 . S
C1470 C1469 1.385 . S
C1470 C1471 1.389 . S
C1471 C1470 1.389 . S
C1471 C1472 1.387 . S
C1472 H1457 0.930 . S
C1472 C1467 1.390 . S
C1472 C1471 1.387 . S
H1473 C1485 0.930 . S
H1474 C1487 0.930 . S
H1475 C1488 0.930 1_455 S
H1476 C1492 0.959 . S
H1477 C1492 0.959 . S
H1478 C1492 0.961 . S
H1479 C1493 0.960 1_655 S
H1480 C1493 0.961 . S
H1481 C1493 0.959 . S
H1482 C1496 0.929 . S
H1483 C1497 0.931 . S
H1484 C1499 0.930 . S
C1485 H1473 0.930 . S
C1485 C1486 1.399 . S
C1485 C1490 1.399 . S
C1486 C1485 1.399 . S
C1486 C1487 1.376 . S
C1487 H1474 0.930 . S
C1487 C1486 1.376 . S
C1487 C1488 1.388 . S
C1488 H1475 0.930 1_655 S
C1488 C1487 1.388 . S
C1488 C1489 1.390 . S
C1489 C1488 1.390 . S
C1489 C1490 1.394 . S
C1489 C1495 1.465 1_655 S
C1490 C1485 1.399 . S
C1490 C1489 1.394 . S
C1490 C1491 1.516 . S
C1491 C1490 1.516 . S
C1491 C1492 1.502 . S
C1491 C1493 1.561 1_655 S
C1491 C1494 1.526 1_655 S
C1492 H1476 0.959 . S
C1492 H1477 0.959 . S
C1492 H1478 0.961 . S
C1492 C1491 1.502 . S
C1493 H1479 0.960 1_455 S
C1493 H1480 0.961 . S
C1493 H1481 0.959 . S
C1493 C1491 1.561 1_455 S
C1494 C1491 1.526 1_455 S
C1494 C1495 1.396 . S
C1494 C1499 1.390 . S
C1495 C1489 1.465 1_455 S
C1495 C1494 1.396 . S
C1495 C1496 1.399 . S
C1496 H1482 0.929 . S
C1496 C1495 1.399 . S
C1496 C1497 1.385 . S
C1497 H1483 0.931 . S
C1497 C1496 1.385 . S
C1497 C1498 1.389 . S
C1498 C1497 1.389 . S
C1498 C1499 1.387 . S
C1499 H1484 0.930 . S
C1499 C1494 1.390 . S
C1499 C1498 1.387 . S
H1500 C1512 0.930 . S
H1501 C1514 0.930 . S
H1502 C1515 0.930 . S
H1503 C1519 0.959 . S
H1504 C1519 0.959 . S
H1505 C1519 0.961 1_556 S
H1506 C1520 0.960 . S
H1507 C1520 0.961 . S
H1508 C1520 0.959 . S
H1509 C1523 0.929 . S
H1510 C1524 0.931 . S
H1511 C1526 0.930 . S
C1512 H1500 0.930 . S
C1512 C1513 1.399 . S
C1512 C1517 1.399 . S
C1513 C1512 1.399 . S
C1513 C1514 1.376 . S
C1514 H1501 0.930 . S
C1514 C1513 1.376 . S
C1514 C1515 1.388 . S
C1515 H1502 0.930 . S
C1515 C1514 1.388 . S
C1515 C1516 1.390 . S
C1516 C1515 1.390 . S
C1516 C1517 1.394 . S
C1516 C1522 1.465 1_556 S
C1517 C1512 1.399 . S
C1517 C1516 1.394 . S
C1517 C1518 1.516 . S
C1518 C1517 1.516 . S
C1518 C1519 1.502 1_556 S
C1518 C1520 1.561 . S
C1518 C1521 1.526 1_556 S
C1519 H1503 0.959 . S
C1519 H1504 0.959 . S
C1519 H1505 0.961 1_554 S
C1519 C1518 1.502 1_554 S
C1520 H1506 0.960 . S
C1520 H1507 0.961 . S
C1520 H1508 0.959 . S
C1520 C1518 1.561 . S
C1521 C1518 1.526 1_554 S
C1521 C1522 1.396 . S
C1521 C1526 1.390 . S
C1522 C1516 1.465 1_554 S
C1522 C1521 1.396 . S
C1522 C1523 1.399 . S
C1523 H1509 0.929 . S
C1523 C1522 1.399 . S
C1523 C1524 1.385 . S
C1524 H1510 0.931 . S
C1524 C1523 1.385 . S
C1524 C1525 1.389 . S
C1525 C1524 1.389 . S
C1525 C1526 1.387 . S
C1526 H1511 0.930 . S
C1526 C1521 1.390 . S
C1526 C1525 1.387 . S
H1527 C1539 0.930 . S
H1528 C1541 0.930 . S
H1529 C1542 0.930 . S
H1530 C1546 0.959 . S
H1531 C1546 0.959 . S
H1532 C1546 0.961 . S
H1533 C1547 0.960 . S
H1534 C1547 0.961 1_554 S
H1535 C1547 0.959 . S
H1536 C1550 0.929 . S
H1537 C1551 0.931 . S
H1538 C1553 0.930 . S
C1539 H1527 0.930 . S
C1539 C1540 1.399 . S
C1539 C1544 1.399 . S
C1540 C1539 1.399 . S
C1540 C1541 1.376 . S
C1541 H1528 0.930 . S
C1541 C1540 1.376 . S
C1541 C1542 1.388 . S
C1542 H1529 0.930 . S
C1542 C1541 1.388 . S
C1542 C1543 1.390 . S
C1543 C1542 1.390 . S
C1543 C1544 1.394 . S
C1543 C1549 1.465 1_556 S
C1544 C1539 1.399 . S
C1544 C1543 1.394 . S
C1544 C1545 1.516 1_556 S
C1545 C1544 1.516 1_554 S
C1545 C1546 1.502 . S
C1545 C1547 1.561 1_554 S
C1545 C1548 1.526 . S
C1546 H1530 0.959 . S
C1546 H1531 0.959 . S
C1546 H1532 0.961 . S
C1546 C1545 1.502 . S
C1547 H1533 0.960 . S
C1547 H1534 0.961 1_556 S
C1547 H1535 0.959 . S
C1547 C1545 1.561 1_556 S
C1548 C1545 1.526 . S
C1548 C1549 1.396 . S
C1548 C1553 1.390 . S
C1549 C1543 1.465 1_554 S
C1549 C1548 1.396 . S
C1549 C1550 1.399 . S
C1550 H1536 0.929 . S
C1550 C1549 1.399 . S
C1550 C1551 1.385 . S
C1551 H1537 0.931 . S
C1551 C1550 1.385 . S
C1551 C1552 1.389 . S
C1552 C1551 1.389 . S
C1552 C1553 1.387 . S
C1553 H1538 0.930 . S
C1553 C1548 1.390 . S
C1553 C1552 1.387 . S
H1554 C1566 0.930 . S
H1555 C1568 0.930 . S
H1556 C1569 0.930 . S
H1557 C1573 0.959 . S
H1558 C1573 0.959 . S
H1559 C1573 0.961 . S
H1560 C1574 0.960 . S
H1561 C1574 0.961 . S
H1562 C1574 0.959 . S
H1563 C1577 0.929 . S
H1564 C1578 0.931 . S
H1565 C1580 0.930 . S
C1566 H1554 0.930 . S
C1566 C1567 1.399 . S
C1566 C1571 1.399 . S
C1567 C1566 1.399 . S
C1567 C1568 1.376 . S
C1568 H1555 0.930 . S
C1568 C1567 1.376 . S
C1568 C1569 1.388 . S
C1569 H1556 0.930 . S
C1569 C1568 1.388 . S
C1569 C1570 1.390 . S
C1570 C1569 1.390 . S
C1570 C1571 1.394 . S
C1570 C1576 1.465 1_554 S
C1571 C1566 1.399 . S
C1571 C1570 1.394 . S
C1571 C1572 1.516 . S
C1572 C1571 1.516 . S
C1572 C1573 1.502 . S
C1572 C1574 1.561 . S
C1572 C1575 1.526 1_554 S
C1573 H1557 0.959 . S
C1573 H1558 0.959 . S
C1573 H1559 0.961 . S
C1573 C1572 1.502 . S
C1574 H1560 0.960 . S
C1574 H1561 0.961 . S
C1574 H1562 0.959 . S
C1574 C1572 1.561 . S
C1575 C1572 1.526 1_556 S
C1575 C1576 1.396 . S
C1575 C1580 1.390 . S
C1576 C1570 1.465 1_556 S
C1576 C1575 1.396 . S
C1576 C1577 1.399 . S
C1577 H1563 0.929 . S
C1577 C1576 1.399 . S
C1577 C1578 1.385 . S
C1578 H1564 0.931 . S
C1578 C1577 1.385 . S
C1578 C1579 1.389 . S
C1579 C1578 1.389 . S
C1579 C1580 1.387 . S
C1580 H1565 0.930 . S
C1580 C1575 1.390 . S
C1580 C1579 1.387 . S
H1581 C1593 0.930 . S
H1582 C1595 0.930 . S
H1583 C1596 0.930 . S
H1584 C1600 0.959 . S
H1585 C1600 0.959 . S
H1586 C1600 0.961 . S
H1587 C1601 0.960 . S
H1588 C1601 0.961 . S
H1589 C1601 0.959 . S
H1590 C1604 0.929 1_556 S
H1591 C1605 0.931 . S
H1592 C1607 0.930 . S
C1593 H1581 0.930 . S
C1593 C1594 1.399 . S
C1593 C1598 1.399 . S
C1594 C1593 1.399 . S
C1594 C1595 1.376 . S
C1595 H1582 0.930 . S
C1595 C1594 1.376 . S
C1595 C1596 1.388 . S
C1596 H1583 0.930 . S
C1596 C1595 1.388 . S
C1596 C1597 1.390 . S
C1597 C1596 1.390 . S
C1597 C1598 1.394 . S
C1597 C1603 1.465 1_556 S
C1598 C1593 1.399 . S
C1598 C1597 1.394 . S
C1598 C1599 1.516 1_556 S
C1599 C1598 1.516 1_554 S
C1599 C1600 1.502 . S
C1599 C1601 1.561 . S
C1599 C1602 1.526 . S
C1600 H1584 0.959 . S
C1600 H1585 0.959 . S
C1600 H1586 0.961 . S
C1600 C1599 1.502 . S
C1601 H1587 0.960 . S
C1601 H1588 0.961 . S
C1601 H1589 0.959 . S
C1601 C1599 1.561 . S
C1602 C1599 1.526 . S
C1602 C1603 1.396 . S
C1602 C1607 1.390 . S
C1603 C1597 1.465 1_554 S
C1603 C1602 1.396 . S
C1603 C1604 1.399 . S
C1604 H1590 0.929 1_554 S
C1604 C1603 1.399 . S
C1604 C1605 1.385 . S
C1605 H1591 0.931 . S
C1605 C1604 1.385 . S
C1605 C1606 1.389 . S
C1606 C1605 1.389 . S
C1606 C1607 1.387 . S
C1607 H1592 0.930 . S
C1607 C1602 1.390 . S
C1607 C1606 1.387 . S
C541 C8 2.004 . S
C553 N104 1.890 . S
C568 N5 1.870 . S
C580 C41 2.007 . S
C595 C74 2.017 . S
C607 N38 1.828 . S
C622 N71 1.806 . S
C634 C107 2.023 . S
C649 N170 1.872 . S
C661 C140 2.007 . S
C676 N203 1.806 . S
C688 C173 2.025 . S
C703 N236 1.835 . S
C715 C206 2.015 . S
C730 C239 2.003 . S
C742 N137 1.884 . S
C757 C272 2.011 . S
C769 N368 1.850 . S
C784 C305 2.025 . S
C796 N269 1.802 . S
C811 C338 2.015 . S
C823 N302 1.850 . S
C838 N335 1.849 . S
C850 C371 2.012 . S
C865 N434 1.803 . S
C877 C404 2.024 . S
C892 C437 2.014 . S
C904 N467 1.837 . S
C919 C470 2.018 . S
C931 N500 1.838 . S
C946 C503 2.023 . S
C958 N401 1.807 . S
C973 C28 0.680 . S
C985 C193 0.674 . S
C1000 C61 0.658 . S
C1012 C226 0.634 . S
C1027 C259 0.601 . S
C1039 C94 0.628 . S
C1054 C127 0.574 . S
C1066 C160 0.563 . S
C1081 C292 0.658 . S
C1093 C457 0.674 . S
C1108 C325 0.658 . S
C1120 C490 0.673 . S
C1135 C358 0.636 . S
C1147 C523 0.659 . S
C1162 C391 0.651 . S
C1174 C424 0.669 . S
C1189 C17 0.963 . S
C1201 C512 0.954 . S
C1216 C413 0.958 . S
C1228 C50 0.958 . S
C1243 C83 1.012 . S
C1255 C446 1.052 . S
C1270 C116 1.043 . S
C1282 C479 0.950 . S
C1297 C314 0.941 . S
C1309 C149 1.032 . S
C1324 C347 1.033 . S
C1336 C182 1.040 . S
C1351 C380 0.960 . S
C1363 C215 1.050 . S
C1378 C281 1.029 . S
C1390 C248 1.043 . S
C1405 N14 0.839 . S
C1417 N146 0.935 . S
C1432 N47 0.786 . S
C1444 N179 0.879 . S
C1459 N80 0.849 . S
C1471 N212 0.782 . S
C1486 N245 0.949 . S
C1498 N113 0.888 . S
C1513 N278 0.941 . S
C1525 N410 0.919 . S
C1540 N311 0.949 . S
C1552 N443 0.893 . S
C1567 N476 0.901 . S
C1579 N344 0.947 . S
C1594 N377 0.848 . S
C1606 N509 0.782 . S
