# Generated by pormake.
# Topology uli, (4)-cn, num edge types: 1
# Building blocks:
#     Node 0, Type 0, BuildingBlock: AZAVOO_clean_sbu_0, # of connection points: 4
#     Node 1, Type 0, BuildingBlock: AZAVOO_clean_sbu_0, # of connection points: 4
#     Node 2, Type 0, BuildingBlock: AZAVOO_clean_sbu_0, # of connection points: 4
#     Node 3, Type 0, BuildingBlock: AZAVOO_clean_sbu_0, # of connection points: 4
#     Node 4, Type 0, BuildingBlock: AZAVOO_clean_sbu_0, # of connection points: 4
#     Node 5, Type 0, BuildingBlock: AZAVOO_clean_sbu_0, # of connection points: 4
#     Node 6, Type 0, BuildingBlock: AZAVOO_clean_sbu_0, # of connection points: 4
#     Node 7, Type 0, BuildingBlock: AZAVOO_clean_sbu_0, # of connection points: 4
#     Node 8, Type 0, BuildingBlock: AZAVOO_clean_sbu_0, # of connection points: 4
#     Node 9, Type 0, BuildingBlock: AZAVOO_clean_sbu_0, # of connection points: 4
#     Node 10, Type 0, BuildingBlock: AZAVOO_clean_sbu_0, # of connection points: 4
#     Node 11, Type 0, BuildingBlock: AZAVOO_clean_sbu_0, # of connection points: 4
#     Node 12, Type 0, BuildingBlock: AZAVOO_clean_sbu_0, # of connection points: 4
#     Node 13, Type 0, BuildingBlock: AZAVOO_clean_sbu_0, # of connection points: 4
#     Node 14, Type 0, BuildingBlock: AZAVOO_clean_sbu_0, # of connection points: 4
#     Node 15, Type 0, BuildingBlock: AZAVOO_clean_sbu_0, # of connection points: 4
#     Node 16, Type 0, BuildingBlock: AZAVOO_clean_sbu_0, # of connection points: 4
#     Node 17, Type 0, BuildingBlock: AZAVOO_clean_sbu_0, # of connection points: 4
#     Node 18, Type 0, BuildingBlock: AZAVOO_clean_sbu_0, # of connection points: 4
#     Node 19, Type 0, BuildingBlock: AZAVOO_clean_sbu_0, # of connection points: 4
#     Node 20, Type 0, BuildingBlock: AZAVOO_clean_sbu_0, # of connection points: 4
#     Node 21, Type 0, BuildingBlock: AZAVOO_clean_sbu_0, # of connection points: 4
#     Node 22, Type 0, BuildingBlock: AZAVOO_clean_sbu_0, # of connection points: 4
#     Node 23, Type 0, BuildingBlock: AZAVOO_clean_sbu_0, # of connection points: 4
#     Node 24, Type 0, BuildingBlock: AZAVOO_clean_sbu_0, # of connection points: 4
#     Node 25, Type 0, BuildingBlock: AZAVOO_clean_sbu_0, # of connection points: 4
#     Node 26, Type 0, BuildingBlock: AZAVOO_clean_sbu_0, # of connection points: 4
#     Node 27, Type 0, BuildingBlock: AZAVOO_clean_sbu_0, # of connection points: 4
#     Node 28, Type 0, BuildingBlock: AZAVOO_clean_sbu_0, # of connection points: 4
#     Node 29, Type 0, BuildingBlock: AZAVOO_clean_sbu_0, # of connection points: 4
#     Node 30, Type 0, BuildingBlock: AZAVOO_clean_sbu_0, # of connection points: 4
#     Node 31, Type 0, BuildingBlock: AZAVOO_clean_sbu_0, # of connection points: 4
#     Node 32, Type 0, BuildingBlock: AZAVOO_clean_sbu_0, # of connection points: 4
#     Node 33, Type 0, BuildingBlock: AZAVOO_clean_sbu_0, # of connection points: 4
#     Node 34, Type 0, BuildingBlock: AZAVOO_clean_sbu_0, # of connection points: 4
#     Node 35, Type 0, BuildingBlock: AZAVOO_clean_sbu_0, # of connection points: 4
#     Node 36, Type 0, BuildingBlock: AZAVOO_clean_sbu_0, # of connection points: 4
#     Node 37, Type 0, BuildingBlock: AZAVOO_clean_sbu_0, # of connection points: 4
#     Node 38, Type 0, BuildingBlock: AZAVOO_clean_sbu_0, # of connection points: 4
#     Node 39, Type 0, BuildingBlock: AZAVOO_clean_sbu_0, # of connection points: 4
#     Node 40, Type 0, BuildingBlock: AZAVOO_clean_sbu_0, # of connection points: 4
#     Node 41, Type 0, BuildingBlock: AZAVOO_clean_sbu_0, # of connection points: 4
#     Node 42, Type 0, BuildingBlock: AZAVOO_clean_sbu_0, # of connection points: 4
#     Node 43, Type 0, BuildingBlock: AZAVOO_clean_sbu_0, # of connection points: 4
#     Node 44, Type 0, BuildingBlock: AZAVOO_clean_sbu_0, # of connection points: 4
#     Node 45, Type 0, BuildingBlock: AZAVOO_clean_sbu_0, # of connection points: 4
#     Node 46, Type 0, BuildingBlock: AZAVOO_clean_sbu_0, # of connection points: 4
#     Node 47, Type 0, BuildingBlock: AZAVOO_clean_sbu_0, # of connection points: 4
#     Edge 48, Type (0, 0), BuildingBlock: CIFDUS_clean_linker_0, # of connection points: 2
#     Edge 49, Type (0, 0), BuildingBlock: CIFDUS_clean_linker_0, # of connection points: 2
#     Edge 50, Type (0, 0), BuildingBlock: CIFDUS_clean_linker_0, # of connection points: 2
#     Edge 51, Type (0, 0), BuildingBlock: CIFDUS_clean_linker_0, # of connection points: 2
#     Edge 52, Type (0, 0), BuildingBlock: CIFDUS_clean_linker_0, # of connection points: 2
#     Edge 53, Type (0, 0), BuildingBlock: CIFDUS_clean_linker_0, # of connection points: 2
#     Edge 54, Type (0, 0), BuildingBlock: CIFDUS_clean_linker_0, # of connection points: 2
#     Edge 55, Type (0, 0), BuildingBlock: CIFDUS_clean_linker_0, # of connection points: 2
#     Edge 56, Type (0, 0), BuildingBlock: CIFDUS_clean_linker_0, # of connection points: 2
#     Edge 57, Type (0, 0), BuildingBlock: CIFDUS_clean_linker_0, # of connection points: 2
#     Edge 58, Type (0, 0), BuildingBlock: CIFDUS_clean_linker_0, # of connection points: 2
#     Edge 59, Type (0, 0), BuildingBlock: CIFDUS_clean_linker_0, # of connection points: 2
#     Edge 60, Type (0, 0), BuildingBlock: CIFDUS_clean_linker_0, # of connection points: 2
#     Edge 61, Type (0, 0), BuildingBlock: CIFDUS_clean_linker_0, # of connection points: 2
#     Edge 62, Type (0, 0), BuildingBlock: CIFDUS_clean_linker_0, # of connection points: 2
#     Edge 63, Type (0, 0), BuildingBlock: CIFDUS_clean_linker_0, # of connection points: 2
#     Edge 64, Type (0, 0), BuildingBlock: CIFDUS_clean_linker_0, # of connection points: 2
#     Edge 65, Type (0, 0), BuildingBlock: CIFDUS_clean_linker_0, # of connection points: 2
#     Edge 66, Type (0, 0), BuildingBlock: CIFDUS_clean_linker_0, # of connection points: 2
#     Edge 67, Type (0, 0), BuildingBlock: CIFDUS_clean_linker_0, # of connection points: 2
#     Edge 68, Type (0, 0), BuildingBlock: CIFDUS_clean_linker_0, # of connection points: 2
#     Edge 69, Type (0, 0), BuildingBlock: CIFDUS_clean_linker_0, # of connection points: 2
#     Edge 70, Type (0, 0), BuildingBlock: CIFDUS_clean_linker_0, # of connection points: 2
#     Edge 71, Type (0, 0), BuildingBlock: CIFDUS_clean_linker_0, # of connection points: 2
#     Edge 72, Type (0, 0), BuildingBlock: CIFDUS_clean_linker_0, # of connection points: 2
#     Edge 73, Type (0, 0), BuildingBlock: CIFDUS_clean_linker_0, # of connection points: 2
#     Edge 74, Type (0, 0), BuildingBlock: CIFDUS_clean_linker_0, # of connection points: 2
#     Edge 75, Type (0, 0), BuildingBlock: CIFDUS_clean_linker_0, # of connection points: 2
#     Edge 76, Type (0, 0), BuildingBlock: CIFDUS_clean_linker_0, # of connection points: 2
#     Edge 77, Type (0, 0), BuildingBlock: CIFDUS_clean_linker_0, # of connection points: 2
#     Edge 78, Type (0, 0), BuildingBlock: CIFDUS_clean_linker_0, # of connection points: 2
#     Edge 79, Type (0, 0), BuildingBlock: CIFDUS_clean_linker_0, # of connection points: 2
#     Edge 80, Type (0, 0), BuildingBlock: CIFDUS_clean_linker_0, # of connection points: 2
#     Edge 81, Type (0, 0), BuildingBlock: CIFDUS_clean_linker_0, # of connection points: 2
#     Edge 82, Type (0, 0), BuildingBlock: CIFDUS_clean_linker_0, # of connection points: 2
#     Edge 83, Type (0, 0), BuildingBlock: CIFDUS_clean_linker_0, # of connection points: 2
#     Edge 84, Type (0, 0), BuildingBlock: CIFDUS_clean_linker_0, # of connection points: 2
#     Edge 85, Type (0, 0), BuildingBlock: CIFDUS_clean_linker_0, # of connection points: 2
#     Edge 86, Type (0, 0), BuildingBlock: CIFDUS_clean_linker_0, # of connection points: 2
#     Edge 87, Type (0, 0), BuildingBlock: CIFDUS_clean_linker_0, # of connection points: 2
#     Edge 88, Type (0, 0), BuildingBlock: CIFDUS_clean_linker_0, # of connection points: 2
#     Edge 89, Type (0, 0), BuildingBlock: CIFDUS_clean_linker_0, # of connection points: 2
#     Edge 90, Type (0, 0), BuildingBlock: CIFDUS_clean_linker_0, # of connection points: 2
#     Edge 91, Type (0, 0), BuildingBlock: CIFDUS_clean_linker_0, # of connection points: 2
#     Edge 92, Type (0, 0), BuildingBlock: CIFDUS_clean_linker_0, # of connection points: 2
#     Edge 93, Type (0, 0), BuildingBlock: CIFDUS_clean_linker_0, # of connection points: 2
#     Edge 94, Type (0, 0), BuildingBlock: CIFDUS_clean_linker_0, # of connection points: 2
#     Edge 95, Type (0, 0), BuildingBlock: CIFDUS_clean_linker_0, # of connection points: 2
#     Edge 96, Type (0, 0), BuildingBlock: CIFDUS_clean_linker_0, # of connection points: 2
#     Edge 97, Type (0, 0), BuildingBlock: CIFDUS_clean_linker_0, # of connection points: 2
#     Edge 98, Type (0, 0), BuildingBlock: CIFDUS_clean_linker_0, # of connection points: 2
#     Edge 99, Type (0, 0), BuildingBlock: CIFDUS_clean_linker_0, # of connection points: 2
#     Edge 100, Type (0, 0), BuildingBlock: CIFDUS_clean_linker_0, # of connection points: 2
#     Edge 101, Type (0, 0), BuildingBlock: CIFDUS_clean_linker_0, # of connection points: 2
#     Edge 102, Type (0, 0), BuildingBlock: CIFDUS_clean_linker_0, # of connection points: 2
#     Edge 103, Type (0, 0), BuildingBlock: CIFDUS_clean_linker_0, # of connection points: 2
#     Edge 104, Type (0, 0), BuildingBlock: CIFDUS_clean_linker_0, # of connection points: 2
#     Edge 105, Type (0, 0), BuildingBlock: CIFDUS_clean_linker_0, # of connection points: 2
#     Edge 106, Type (0, 0), BuildingBlock: CIFDUS_clean_linker_0, # of connection points: 2
#     Edge 107, Type (0, 0), BuildingBlock: CIFDUS_clean_linker_0, # of connection points: 2
#     Edge 108, Type (0, 0), BuildingBlock: CIFDUS_clean_linker_0, # of connection points: 2
#     Edge 109, Type (0, 0), BuildingBlock: CIFDUS_clean_linker_0, # of connection points: 2
#     Edge 110, Type (0, 0), BuildingBlock: CIFDUS_clean_linker_0, # of connection points: 2
#     Edge 111, Type (0, 0), BuildingBlock: CIFDUS_clean_linker_0, # of connection points: 2
#     Edge 112, Type (0, 0), BuildingBlock: CIFDUS_clean_linker_0, # of connection points: 2
#     Edge 113, Type (0, 0), BuildingBlock: CIFDUS_clean_linker_0, # of connection points: 2
#     Edge 114, Type (0, 0), BuildingBlock: CIFDUS_clean_linker_0, # of connection points: 2
#     Edge 115, Type (0, 0), BuildingBlock: CIFDUS_clean_linker_0, # of connection points: 2
#     Edge 116, Type (0, 0), BuildingBlock: CIFDUS_clean_linker_0, # of connection points: 2
#     Edge 117, Type (0, 0), BuildingBlock: CIFDUS_clean_linker_0, # of connection points: 2
#     Edge 118, Type (0, 0), BuildingBlock: CIFDUS_clean_linker_0, # of connection points: 2
#     Edge 119, Type (0, 0), BuildingBlock: CIFDUS_clean_linker_0, # of connection points: 2
#     Edge 120, Type (0, 0), BuildingBlock: CIFDUS_clean_linker_0, # of connection points: 2
#     Edge 121, Type (0, 0), BuildingBlock: CIFDUS_clean_linker_0, # of connection points: 2
#     Edge 122, Type (0, 0), BuildingBlock: CIFDUS_clean_linker_0, # of connection points: 2
#     Edge 123, Type (0, 0), BuildingBlock: CIFDUS_clean_linker_0, # of connection points: 2
#     Edge 124, Type (0, 0), BuildingBlock: CIFDUS_clean_linker_0, # of connection points: 2
#     Edge 125, Type (0, 0), BuildingBlock: CIFDUS_clean_linker_0, # of connection points: 2
#     Edge 126, Type (0, 0), BuildingBlock: CIFDUS_clean_linker_0, # of connection points: 2
#     Edge 127, Type (0, 0), BuildingBlock: CIFDUS_clean_linker_0, # of connection points: 2
#     Edge 128, Type (0, 0), BuildingBlock: CIFDUS_clean_linker_0, # of connection points: 2
#     Edge 129, Type (0, 0), BuildingBlock: CIFDUS_clean_linker_0, # of connection points: 2
#     Edge 130, Type (0, 0), BuildingBlock: CIFDUS_clean_linker_0, # of connection points: 2
#     Edge 131, Type (0, 0), BuildingBlock: CIFDUS_clean_linker_0, # of connection points: 2
#     Edge 132, Type (0, 0), BuildingBlock: CIFDUS_clean_linker_0, # of connection points: 2
#     Edge 133, Type (0, 0), BuildingBlock: CIFDUS_clean_linker_0, # of connection points: 2
#     Edge 134, Type (0, 0), BuildingBlock: CIFDUS_clean_linker_0, # of connection points: 2
#     Edge 135, Type (0, 0), BuildingBlock: CIFDUS_clean_linker_0, # of connection points: 2
#     Edge 136, Type (0, 0), BuildingBlock: CIFDUS_clean_linker_0, # of connection points: 2
#     Edge 137, Type (0, 0), BuildingBlock: CIFDUS_clean_linker_0, # of connection points: 2
#     Edge 138, Type (0, 0), BuildingBlock: CIFDUS_clean_linker_0, # of connection points: 2
#     Edge 139, Type (0, 0), BuildingBlock: CIFDUS_clean_linker_0, # of connection points: 2
#     Edge 140, Type (0, 0), BuildingBlock: CIFDUS_clean_linker_0, # of connection points: 2
#     Edge 141, Type (0, 0), BuildingBlock: CIFDUS_clean_linker_0, # of connection points: 2
#     Edge 142, Type (0, 0), BuildingBlock: CIFDUS_clean_linker_0, # of connection points: 2
#     Edge 143, Type (0, 0), BuildingBlock: CIFDUS_clean_linker_0, # of connection points: 2
# Relax obj value: 0.379
# Max RMSD: 0.224
# Mean RMSD: 0.224
data_MOF--net-uli--node1-AZAVOO_clean_sbu_0--edge1-CIFDUS_clean_linker_0
_symmetry_space_group_name_H-M    P1
_symmetry_Int_Tables_number       1
_symmetry_cell_setting            triclinic
loop_
_symmetry_equiv_pos_as_xyz
'x, y, z'
_cell_length_a     59.051093
_cell_length_b     59.081675
_cell_length_c     59.017056
_cell_angle_alpha  90.028178
_cell_angle_beta   89.992241
_cell_angle_gamma 90.010428
loop_
_atom_site_label
_atom_site_type_symbol
_atom_site_fract_x
_atom_site_fract_y
_atom_site_fract_z
_atom_type_partial_charge
Mg0 Mg 0.09392 0.27993 0.17484 0.0
O1 O 0.10669 0.25096 0.19691 0.0
O2 O 0.14444 0.25107 0.19852 0.0
Mg3 Mg 0.15604 0.28243 0.17814 0.0
C4 C 0.12528 0.24242 0.20356 0.0
C5 C 0.05288 0.25026 0.187 0.0
O6 O 0.06635 0.23619 0.17623 0.0
O7 O 0.10037 0.30543 0.20371 0.0
O8 O 0.13829 0.30673 0.20238 0.0
O9 O 0.1001 0.2573 0.14451 0.0
O10 O 0.12503 0.28174 0.1576 0.0
C11 C 0.11936 0.3136 0.21023 0.0
C12 C 0.12036 0.26563 0.14385 0.0
O13 O 0.05862 0.27097 0.18848 0.0
Mg14 Mg 0.72541 0.09237 0.19313 0.0
O15 O 0.75539 0.09796 0.21697 0.0
O16 O 0.75671 0.13438 0.2271 0.0
Mg17 Mg 0.72894 0.15296 0.20749 0.0
C18 C 0.76431 0.11422 0.22794 0.0
C19 C 0.74494 0.04329 0.19214 0.0
O20 O 0.75627 0.05244 0.17532 0.0
O21 O 0.6984 0.09709 0.2212 0.0
O22 O 0.70188 0.13434 0.2271 0.0
O23 O 0.74924 0.10033 0.164 0.0
O24 O 0.72853 0.12579 0.18185 0.0
C25 C 0.69246 0.11538 0.23115 0.0
C26 C 0.74405 0.12135 0.16732 0.0
O27 O 0.72949 0.05479 0.20177 0.0
Mg28 Mg 0.90998 0.72113 0.17752 0.0
O29 O 0.89716 0.75144 0.19738 0.0
O30 O 0.85943 0.75332 0.19677 0.0
Mg31 Mg 0.84772 0.71994 0.18036 0.0
C32 C 0.87872 0.76146 0.20205 0.0
C33 C 0.95066 0.75171 0.18743 0.0
O34 O 0.93751 0.76442 0.17477 0.0
O35 O 0.90313 0.69775 0.20802 0.0
O36 O 0.86519 0.69796 0.2067 0.0
O37 O 0.90429 0.74177 0.1457 0.0
O38 O 0.87902 0.71857 0.16029 0.0
C39 C 0.88382 0.69106 0.21518 0.0
C40 C 0.88381 0.73397 0.14577 0.0
O41 O 0.94495 0.73123 0.19095 0.0
Mg42 Mg 0.27099 0.91007 0.17428 0.0
O43 O 0.24035 0.89208 0.19006 0.0
O44 O 0.23961 0.85654 0.17717 0.0
Mg45 Mg 0.27209 0.85023 0.1571 0.0
C46 C 0.23087 0.87273 0.18855 0.0
C47 C 0.26062 0.95918 0.18425 0.0
O48 O 0.26601 0.95829 0.16266 0.0
O49 O 0.29505 0.89431 0.20115 0.0
O50 O 0.29275 0.85885 0.18814 0.0
O51 O 0.24916 0.91422 0.14301 0.0
O52 O 0.27294 0.88598 0.14818 0.0
C53 C 0.30023 0.87329 0.20235 0.0
C54 C 0.25703 0.89488 0.13643 0.0
O55 O 0.26215 0.94114 0.19588 0.0
Mg56 Mg 0.0967 0.72673 0.82388 0.0
O57 O 0.11751 0.75426 0.8062 0.0
O58 O 0.15319 0.75306 0.81865 0.0
Mg59 Mg 0.15645 0.72122 0.84077 0.0
C60 C 0.1375 0.76239 0.80705 0.0
C61 C 0.06162 0.75668 0.79851 0.0
O62 O 0.07404 0.77179 0.80912 0.0
O63 O 0.11058 0.69965 0.79924 0.0
O64 O 0.14617 0.69772 0.81206 0.0
O65 O 0.0942 0.75145 0.85268 0.0
O66 O 0.12075 0.72531 0.85008 0.0
C67 C 0.13048 0.69105 0.79881 0.0
C68 C 0.11349 0.74355 0.85943 0.0
O69 O 0.06649 0.7358 0.80078 0.0
Mg70 Mg 0.27406 0.09023 0.8271 0.0
O71 O 0.24388 0.10116 0.80592 0.0
O72 O 0.24131 0.13877 0.80473 0.0
Mg73 Mg 0.27213 0.15239 0.82483 0.0
C74 C 0.23391 0.11912 0.79965 0.0
C75 C 0.26404 0.05216 0.7915 0.0
O76 O 0.26834 0.0693 0.77799 0.0
O77 O 0.29932 0.09906 0.7985 0.0
O78 O 0.29778 0.13693 0.80049 0.0
O79 O 0.25134 0.0948 0.8578 0.0
O80 O 0.27432 0.1211 0.84486 0.0
C81 C 0.30611 0.11871 0.7924 0.0
C82 C 0.25873 0.1154 0.85879 0.0
O83 O 0.26646 0.05477 0.81281 0.0
Mg84 Mg 0.9012 0.27388 0.80949 0.0
O85 O 0.88537 0.24161 0.79278 0.0
O86 O 0.84883 0.23995 0.80306 0.0
Mg87 Mg 0.83995 0.27688 0.80817 0.0
C88 C 0.86675 0.23069 0.79518 0.0
C89 C 0.94997 0.25541 0.8096 0.0
O90 O 0.94514 0.25721 0.83126 0.0
O91 O 0.89424 0.29942 0.78019 0.0
O92 O 0.8628 0.28066 0.77792 0.0
O93 O 0.89609 0.25489 0.84211 0.0
O94 O 0.8712 0.2794 0.82885 0.0
C95 C 0.87388 0.29838 0.77328 0.0
C96 C 0.87631 0.26422 0.84354 0.0
O97 O 0.93539 0.26209 0.79523 0.0
Mg98 Mg 0.72637 0.90453 0.82156 0.0
O99 O 0.75478 0.88882 0.80106 0.0
O100 O 0.75962 0.85259 0.81048 0.0
Mg101 Mg 0.72913 0.84364 0.83334 0.0
C102 C 0.76566 0.87032 0.79972 0.0
C103 C 0.73427 0.95532 0.80709 0.0
O104 O 0.72989 0.9589 0.82863 0.0
O105 O 0.69931 0.88994 0.79748 0.0
O106 O 0.70225 0.85349 0.80742 0.0
O107 O 0.75205 0.907 0.8498 0.0
O108 O 0.72811 0.87866 0.84578 0.0
C109 C 0.69284 0.86931 0.79611 0.0
C110 C 0.74553 0.88693 0.85572 0.0
O111 O 0.73258 0.93539 0.79922 0.0
Mg112 Mg 0.1736 0.09934 0.27304 0.0
O113 O 0.19594 0.11468 0.2455 0.0
O114 O 0.18895 0.15164 0.24209 0.0
Mg115 Mg 0.1672 0.16139 0.27304 0.0
C116 C 0.19843 0.13346 0.23528 0.0
C117 C 0.19424 0.05981 0.24577 0.0
O118 O 0.18463 0.07236 0.23012 0.0
O119 O 0.19859 0.11054 0.30105 0.0
O120 O 0.19174 0.14781 0.29947 0.0
O121 O 0.14523 0.1009 0.24719 0.0
O122 O 0.15203 0.1276 0.27232 0.0
C123 C 0.20156 0.13075 0.30832 0.0
C124 C 0.14126 0.12112 0.25466 0.0
O125 O 0.19231 0.06569 0.26645 0.0
Mg126 Mg 0.90694 0.17607 0.27113 0.0
O127 O 0.88887 0.18966 0.23978 0.0
O128 O 0.85198 0.1818 0.24227 0.0
Mg129 Mg 0.84569 0.16689 0.27776 0.0
C130 C 0.869 0.18955 0.23141 0.0
C131 C 0.95384 0.18139 0.24874 0.0
O132 O 0.9508 0.15937 0.24869 0.0
O133 O 0.89565 0.20701 0.2923 0.0
O134 O 0.85897 0.19799 0.29615 0.0
O135 O 0.90602 0.14171 0.25392 0.0
O136 O 0.8803 0.15376 0.27806 0.0
C137 C 0.8759 0.21068 0.30049 0.0
C138 C 0.88664 0.13879 0.26371 0.0
O139 O 0.93885 0.19385 0.25789 0.0
Mg140 Mg 0.83086 0.90212 0.26775 0.0
O141 O 0.81203 0.88048 0.24185 0.0
O142 O 0.82391 0.84473 0.24468 0.0
Mg143 Mg 0.8474 0.84268 0.27563 0.0
C144 C 0.81229 0.86008 0.23483 0.0
C145 C 0.79179 0.94129 0.26736 0.0
O146 O 0.78673 0.93512 0.28814 0.0
O147 O 0.80731 0.89016 0.29672 0.0
O148 O 0.82039 0.85482 0.3002 0.0
O149 O 0.85832 0.90323 0.24165 0.0
O150 O 0.85705 0.87792 0.26911 0.0
C151 C 0.80754 0.8709 0.30664 0.0
C152 C 0.86524 0.88417 0.24991 0.0
O153 O 0.8078 0.93138 0.25691 0.0
Mg154 Mg 0.09376 0.82943 0.26992 0.0
O155 O 0.10815 0.80986 0.23995 0.0
O156 O 0.14591 0.81099 0.24112 0.0
Mg157 Mg 0.15575 0.83289 0.27199 0.0
C158 C 0.12741 0.80462 0.23193 0.0
C159 C 0.0585 0.7909 0.25925 0.0
O160 O 0.07593 0.77825 0.26474 0.0
O161 O 0.10396 0.80113 0.29491 0.0
O162 O 0.14149 0.8066 0.29633 0.0
O163 O 0.09589 0.86031 0.24767 0.0
O164 O 0.1227 0.85007 0.27152 0.0
C165 C 0.12355 0.79658 0.30297 0.0
C166 C 0.1162 0.86311 0.25543 0.0
O167 O 0.06009 0.81234 0.26088 0.0
Mg168 Mg 0.17195 0.90645 0.7265 0.0
O169 O 0.19642 0.8871 0.74871 0.0
O170 O 0.19462 0.84997 0.74174 0.0
Mg171 Mg 0.16779 0.84563 0.7137 0.0
C172 C 0.2027 0.86689 0.75251 0.0
C173 C 0.19254 0.94168 0.75934 0.0
O174 O 0.18321 0.92697 0.77318 0.0
O175 O 0.19579 0.90181 0.69585 0.0
O176 O 0.19021 0.86496 0.68904 0.0
O177 O 0.14625 0.89953 0.75364 0.0
O178 O 0.15147 0.87742 0.72394 0.0
C179 C 0.19911 0.88398 0.68399 0.0
C180 C 0.14241 0.88051 0.74346 0.0
O181 O 0.19043 0.93871 0.73806 0.0
Mg182 Mg 0.09366 0.16485 0.73009 0.0
O183 O 0.10888 0.18654 0.7582 0.0
O184 O 0.14533 0.17799 0.7632 0.0
Mg185 Mg 0.15522 0.15524 0.73298 0.0
C186 C 0.12733 0.18835 0.76916 0.0
C187 C 0.05372 0.18712 0.75545 0.0
O188 O 0.06477 0.17658 0.77162 0.0
O189 O 0.10746 0.189 0.70249 0.0
O190 O 0.1442 0.18014 0.7058 0.0
O191 O 0.09267 0.13662 0.75611 0.0
O192 O 0.12064 0.14187 0.73202 0.0
C193 C 0.12811 0.19078 0.69609 0.0
C194 C 0.11292 0.13153 0.74942 0.0
O195 O 0.06085 0.18533 0.73515 0.0
Mg196 Mg 0.82694 0.08889 0.72758 0.0
O197 O 0.80676 0.10349 0.75672 0.0
O198 O 0.81019 0.14103 0.75824 0.0
Mg199 Mg 0.83244 0.1507 0.72737 0.0
C200 C 0.80254 0.12238 0.76602 0.0
C201 C 0.80777 0.03685 0.72834 0.0
O202 O 0.82109 0.03214 0.71114 0.0
O203 O 0.79962 0.10033 0.7021 0.0
O204 O 0.80611 0.13772 0.70218 0.0
O205 O 0.85733 0.09014 0.75092 0.0
O206 O 0.84855 0.11708 0.72668 0.0
C207 C 0.7958 0.1203 0.69459 0.0
C208 C 0.86111 0.1102 0.74297 0.0
O209 O 0.80757 0.05672 0.73654 0.0
Mg210 Mg 0.90865 0.8282 0.72675 0.0
O211 O 0.89002 0.80673 0.75319 0.0
O212 O 0.85331 0.81561 0.75047 0.0
Mg213 Mg 0.84763 0.8386 0.7198 0.0
C214 C 0.86966 0.80541 0.76032 0.0
C215 C 0.95855 0.82111 0.73886 0.0
O216 O 0.95652 0.8431 0.7362 0.0
O217 O 0.89861 0.80361 0.69793 0.0
O218 O 0.86202 0.81289 0.69526 0.0
O219 O 0.90716 0.85544 0.75327 0.0
O220 O 0.88164 0.85155 0.72627 0.0
C221 C 0.8792 0.80175 0.68846 0.0
C222 C 0.88727 0.86026 0.74542 0.0
O223 O 0.94129 0.80875 0.73524 0.0
Mg224 Mg 0.27163 0.18291 0.09603 0.0
O225 O 0.24589 0.20344 0.11636 0.0
O226 O 0.2471 0.19126 0.15217 0.0
Mg227 Mg 0.27674 0.16648 0.15599 0.0
C228 C 0.23821 0.20332 0.13656 0.0
C229 C 0.26868 0.20033 0.04558 0.0
O230 O 0.27985 0.18137 0.04233 0.0
O231 O 0.30142 0.20516 0.10886 0.0
O232 O 0.30279 0.19206 0.14438 0.0
O233 O 0.24399 0.15674 0.09473 0.0
O234 O 0.27082 0.15698 0.12069 0.0
C235 C 0.31054 0.20448 0.12855 0.0
C236 C 0.25144 0.14962 0.11409 0.0
O237 O 0.26385 0.20622 0.06575 0.0
Mg238 Mg 0.27721 0.81836 0.90008 0.0
O239 O 0.24565 0.79759 0.89214 0.0
O240 O 0.24369 0.7911 0.85492 0.0
Mg241 Mg 0.27626 0.80525 0.83919 0.0
C242 C 0.23553 0.78968 0.87486 0.0
C243 C 0.25215 0.82093 0.94609 0.0
O244 O 0.24214 0.83721 0.93472 0.0
O245 O 0.30044 0.78711 0.89738 0.0
O246 O 0.2995 0.7824 0.85972 0.0
O247 O 0.25721 0.84954 0.89046 0.0
O248 O 0.27853 0.83043 0.86658 0.0
C249 C 0.3069 0.77709 0.8793 0.0
C250 C 0.26396 0.84619 0.86987 0.0
O251 O 0.26881 0.81067 0.93709 0.0
Mg252 Mg 0.17854 0.26902 0.90255 0.0
O253 O 0.19852 0.24221 0.88301 0.0
O254 O 0.18475 0.24129 0.84778 0.0
Mg255 Mg 0.15951 0.27036 0.84317 0.0
C256 C 0.19751 0.23332 0.86333 0.0
C257 C 0.19732 0.26787 0.95246 0.0
O258 O 0.17779 0.27794 0.9559 0.0
O259 O 0.19973 0.29848 0.8871 0.0
O260 O 0.18502 0.29742 0.85224 0.0
O261 O 0.15284 0.24119 0.90658 0.0
O262 O 0.15154 0.26643 0.87913 0.0
C263 C 0.19798 0.30639 0.86696 0.0
C264 C 0.14478 0.24738 0.88715 0.0
O265 O 0.20316 0.26318 0.93224 0.0
Mg266 Mg 0.73007 0.17206 0.90538 0.0
O267 O 0.75854 0.19157 0.88783 0.0
O268 O 0.75823 0.18251 0.85103 0.0
Mg269 Mg 0.72607 0.16183 0.84405 0.0
C270 C 0.76711 0.19247 0.86805 0.0
C271 C 0.73743 0.18437 0.95708 0.0
O272 O 0.7301 0.16353 0.95969 0.0
O273 O 0.70355 0.19822 0.89367 0.0
O274 O 0.7024 0.18925 0.85682 0.0
O275 O 0.75424 0.14243 0.90515 0.0
O276 O 0.72874 0.14857 0.87861 0.0
C277 C 0.69545 0.20069 0.87373 0.0
C278 C 0.74636 0.13772 0.88522 0.0
O279 O 0.73859 0.1926 0.93722 0.0
Mg280 Mg 0.82501 0.72674 0.90007 0.0
O281 O 0.80426 0.75731 0.88929 0.0
O282 O 0.80488 0.761 0.85169 0.0
Mg283 Mg 0.82521 0.73058 0.83785 0.0
C284 C 0.79892 0.76783 0.87132 0.0
C285 C 0.81402 0.75229 0.94391 0.0
O286 O 0.82786 0.76588 0.93301 0.0
O287 O 0.79619 0.70254 0.88934 0.0
O288 O 0.79986 0.7049 0.85157 0.0
O289 O 0.85631 0.74898 0.89755 0.0
O290 O 0.84389 0.72738 0.86985 0.0
C291 C 0.79079 0.69639 0.86924 0.0
C292 C 0.85789 0.74242 0.8767 0.0
O293 O 0.80969 0.73299 0.93534 0.0
Mg294 Mg 0.73171 0.82004 0.09218 0.0
O295 O 0.7581 0.79647 0.10715 0.0
O296 O 0.75507 0.79616 0.14491 0.0
Mg297 Mg 0.72627 0.82079 0.15428 0.0
C298 C 0.76443 0.7896 0.12655 0.0
C299 C 0.73893 0.78398 0.05225 0.0
O300 O 0.72869 0.77007 0.06625 0.0
O301 O 0.70329 0.79396 0.09927 0.0
O302 O 0.7006 0.79805 0.13693 0.0
O303 O 0.75722 0.84792 0.09747 0.0
O304 O 0.73075 0.83896 0.12226 0.0
C305 C 0.69379 0.78956 0.11827 0.0
C306 C 0.7486 0.85034 0.11748 0.0
O307 O 0.74121 0.80471 0.05769 0.0
Mg308 Mg 0.19615 0.72954 0.09897 0.0
O309 O 0.20499 0.76708 0.10851 0.0
O310 O 0.19514 0.77333 0.14465 0.0
Mg311 Mg 0.20255 0.73833 0.15906 0.0
C312 C 0.20032 0.78052 0.12489 0.0
C313 C 0.20099 0.75747 0.0541 0.0
O314 O 0.18664 0.77049 0.06503 0.0
O315 O 0.23118 0.71323 0.10684 0.0
O316 O 0.22976 0.73899 0.13255 0.0
O317 O 0.15967 0.73996 0.10576 0.0
O318 O 0.18157 0.72384 0.13128 0.0
C319 C 0.23829 0.72064 0.12573 0.0
C320 C 0.16262 0.73305 0.12638 0.0
O321 O 0.20683 0.73869 0.06287 0.0
Mg322 Mg 0.82193 0.26757 0.0963 0.0
O323 O 0.80439 0.24301 0.12044 0.0
O324 O 0.81627 0.25042 0.15562 0.0
Mg325 Mg 0.83969 0.28133 0.1543 0.0
C326 C 0.80476 0.2386 0.14159 0.0
C327 C 0.79933 0.26321 0.04818 0.0
O328 O 0.81311 0.28022 0.04421 0.0
O329 O 0.7973 0.29596 0.10701 0.0
O330 O 0.8106 0.30333 0.14173 0.0
O331 O 0.85013 0.24233 0.09637 0.0
O332 O 0.84851 0.27158 0.11964 0.0
C333 C 0.79694 0.30733 0.12548 0.0
C334 C 0.85732 0.25234 0.1145 0.0
O335 O 0.79842 0.25499 0.06806 0.0
Mg336 Mg 0.59833 0.77359 0.6755 0.0
O337 O 0.62134 0.75065 0.69614 0.0
O338 O 0.65741 0.75609 0.68611 0.0
Mg339 Mg 0.65745 0.78402 0.65889 0.0
C340 C 0.64233 0.74593 0.69783 0.0
C341 C 0.54891 0.76908 0.69629 0.0
O342 O 0.54399 0.78253 0.67926 0.0
O343 O 0.60882 0.80418 0.69754 0.0
O344 O 0.64404 0.80946 0.68446 0.0
O345 O 0.59913 0.74589 0.64949 0.0
O346 O 0.6227 0.77488 0.64958 0.0
C347 C 0.62743 0.8153 0.69697 0.0
C348 C 0.61741 0.75527 0.64186 0.0
O349 O 0.56943 0.76338 0.69948 0.0
Mg350 Mg 0.23806 0.59809 0.67914 0.0
O351 O 0.26895 0.61538 0.69479 0.0
O352 O 0.26597 0.65275 0.69019 0.0
Mg353 Mg 0.23066 0.65989 0.67541 0.0
C354 C 0.27704 0.6353 0.69648 0.0
C355 C 0.27064 0.55821 0.68735 0.0
O356 O 0.28102 0.57031 0.67183 0.0
O357 O 0.21587 0.60624 0.71043 0.0
O358 O 0.21169 0.64346 0.70448 0.0
O359 O 0.2558 0.60226 0.64525 0.0
O360 O 0.23125 0.62661 0.65909 0.0
C361 C 0.20723 0.62546 0.7155 0.0
C362 C 0.24604 0.62183 0.64396 0.0
O363 O 0.25141 0.56486 0.69448 0.0
Mg364 Mg 0.40308 0.22377 0.67748 0.0
O365 O 0.38531 0.25033 0.69883 0.0
O366 O 0.34803 0.24737 0.69323 0.0
Mg367 Mg 0.34157 0.21513 0.67256 0.0
C368 C 0.3652 0.2575 0.70165 0.0
C369 C 0.45003 0.22952 0.70828 0.0
O370 O 0.44892 0.2085 0.71545 0.0
O371 O 0.39608 0.19641 0.70461 0.0
O372 O 0.35891 0.19258 0.6984 0.0
O373 O 0.39866 0.24853 0.64907 0.0
O374 O 0.37422 0.22125 0.6562 0.0
C375 C 0.37706 0.18678 0.70851 0.0
C376 C 0.37869 0.24004 0.64615 0.0
O377 O 0.43531 0.23695 0.69444 0.0
Mg378 Mg 0.76704 0.40508 0.66799 0.0
O379 O 0.73775 0.39484 0.69107 0.0
O380 O 0.735 0.3573 0.69365 0.0
Mg381 Mg 0.76448 0.34309 0.67249 0.0
C382 C 0.728 0.37714 0.69842 0.0
C383 C 0.75902 0.44352 0.70318 0.0
O384 O 0.76407 0.42647 0.71653 0.0
O385 O 0.7941 0.39687 0.69516 0.0
O386 O 0.79042 0.35912 0.69603 0.0
O387 O 0.74292 0.40019 0.63848 0.0
O388 O 0.76599 0.37381 0.65124 0.0
C389 C 0.7997 0.3774 0.7028 0.0
C390 C 0.75002 0.37948 0.6377 0.0
O391 O 0.76038 0.44083 0.6818 0.0
Mg392 Mg 0.58844 0.22813 0.31802 0.0
O393 O 0.60196 0.25559 0.29298 0.0
O394 O 0.63943 0.25976 0.29745 0.0
Mg395 Mg 0.64889 0.22405 0.3087 0.0
C396 C 0.6203 0.26677 0.29021 0.0
C397 C 0.54841 0.25892 0.30494 0.0
O398 O 0.563 0.27318 0.31381 0.0
O399 O 0.59138 0.19729 0.29388 0.0
O400 O 0.62195 0.21443 0.28325 0.0
O401 O 0.5979 0.25247 0.34585 0.0
O402 O 0.62081 0.22541 0.33402 0.0
C403 C 0.61041 0.19638 0.28392 0.0
C404 C 0.61743 0.24257 0.3469 0.0
O405 O 0.55309 0.23788 0.30511 0.0
Mg406 Mg 0.77469 0.59642 0.32757 0.0
O407 O 0.74961 0.6135 0.30381 0.0
O408 O 0.74905 0.65085 0.30969 0.0
Mg409 Mg 0.77939 0.6583 0.33313 0.0
C410 C 0.74137 0.63304 0.30016 0.0
C411 C 0.74551 0.55875 0.30626 0.0
O412 O 0.73042 0.57233 0.31537 0.0
O413 O 0.80387 0.60511 0.30325 0.0
O414 O 0.80509 0.64257 0.30895 0.0
O415 O 0.74774 0.59984 0.35436 0.0
O416 O 0.77473 0.62503 0.3488 0.0
C417 C 0.81267 0.62458 0.29969 0.0
C418 C 0.7559 0.6198 0.35828 0.0
O419 O 0.76644 0.56329 0.30882 0.0
Mg420 Mg 0.40373 0.77371 0.31829 0.0
O421 O 0.39316 0.74055 0.30074 0.0
O422 O 0.357 0.73212 0.30872 0.0
Mg423 Mg 0.34057 0.7647 0.3222 0.0
C424 C 0.37637 0.72692 0.3006 0.0
C425 C 0.45412 0.7591 0.31754 0.0
O426 O 0.44933 0.75797 0.33925 0.0
O427 O 0.39399 0.79589 0.28673 0.0
O428 O 0.36106 0.78415 0.29811 0.0
O429 O 0.4017 0.75336 0.35098 0.0
O430 O 0.37308 0.77342 0.33835 0.0
C431 C 0.37262 0.79537 0.28417 0.0
C432 C 0.38067 0.75914 0.35266 0.0
O433 O 0.43913 0.76658 0.30402 0.0
Mg434 Mg 0.21607 0.40421 0.3365 0.0
O435 O 0.2449 0.39274 0.31358 0.0
O436 O 0.24406 0.3551 0.30987 0.0
Mg437 Mg 0.21392 0.34223 0.3311 0.0
C438 C 0.25283 0.37439 0.30562 0.0
C439 C 0.22834 0.44589 0.30479 0.0
O440 O 0.2258 0.4306 0.28881 0.0
O441 O 0.19013 0.39854 0.30773 0.0
O442 O 0.18907 0.36061 0.30814 0.0
O443 O 0.23956 0.39745 0.36586 0.0
O444 O 0.21525 0.3725 0.35245 0.0
C445 C 0.18195 0.37966 0.30091 0.0
C446 C 0.23178 0.37698 0.36578 0.0
O447 O 0.22433 0.44047 0.32529 0.0
Mg448 Mg 0.68344 0.59339 0.77436 0.0
O449 O 0.7103 0.6072 0.75061 0.0
O450 O 0.72115 0.64264 0.75943 0.0
Mg451 Mg 0.69893 0.65625 0.78921 0.0
C452 C 0.7224 0.62474 0.74718 0.0
C453 C 0.69188 0.55538 0.7393 0.0
O454 O 0.68535 0.57211 0.72618 0.0
O455 O 0.71053 0.58915 0.80254 0.0
O456 O 0.69405 0.62144 0.80171 0.0
O457 O 0.65722 0.60871 0.75154 0.0
O458 O 0.67374 0.62881 0.77853 0.0
C459 C 0.70955 0.60925 0.80991 0.0
C460 C 0.66073 0.62817 0.76099 0.0
O461 O 0.69129 0.55806 0.76069 0.0
Mg462 Mg 0.41423 0.67445 0.77605 0.0
O463 O 0.39065 0.69498 0.75347 0.0
O464 O 0.35502 0.68348 0.75902 0.0
Mg465 Mg 0.35564 0.65645 0.78694 0.0
C466 C 0.36958 0.69585 0.74884 0.0
C467 C 0.46348 0.69333 0.76912 0.0
O468 O 0.46807 0.67409 0.77929 0.0
O469 O 0.40361 0.696 0.80697 0.0
O470 O 0.36856 0.68262 0.81205 0.0
O471 O 0.41374 0.64906 0.74784 0.0
O472 O 0.39035 0.64807 0.777 0.0
C473 C 0.38491 0.69542 0.81795 0.0
C474 C 0.39552 0.64107 0.75704 0.0
O475 O 0.44287 0.69883 0.76616 0.0
Mg476 Mg 0.32605 0.40034 0.77157 0.0
O477 O 0.30693 0.38986 0.73917 0.0
O478 O 0.30729 0.35221 0.73681 0.0
Mg479 Mg 0.32583 0.33824 0.76828 0.0
C480 C 0.30205 0.37159 0.72884 0.0
C481 C 0.31694 0.44549 0.74669 0.0
O482 O 0.33143 0.43532 0.73321 0.0
O483 O 0.29658 0.39016 0.79546 0.0
O484 O 0.30049 0.35246 0.7935 0.0
O485 O 0.35871 0.39707 0.75122 0.0
O486 O 0.34471 0.37001 0.7725 0.0
C487 C 0.29132 0.37012 0.80185 0.0
C488 C 0.35985 0.37643 0.75845 0.0
O489 O 0.31146 0.43582 0.76517 0.0
Mg490 Mg 0.60009 0.32035 0.77413 0.0
O491 O 0.61651 0.30332 0.74335 0.0
O492 O 0.65116 0.31778 0.73898 0.0
Mg493 Mg 0.65905 0.33977 0.77014 0.0
C494 C 0.63481 0.30542 0.7321 0.0
C495 C 0.55359 0.30114 0.75859 0.0
O496 O 0.55236 0.32217 0.75149 0.0
O497 O 0.61877 0.2971 0.79944 0.0
O498 O 0.65351 0.31171 0.79582 0.0
O499 O 0.59311 0.34943 0.75014 0.0
O500 O 0.62286 0.34768 0.77251 0.0
C501 C 0.63965 0.29806 0.80519 0.0
C502 C 0.61271 0.35732 0.75594 0.0
O503 O 0.57102 0.29495 0.7696 0.0
Mg504 Mg 0.6779 0.409 0.22659 0.0
O505 O 0.6971 0.39518 0.25697 0.0
O506 O 0.69152 0.35787 0.2598 0.0
Mg507 Mg 0.67255 0.34703 0.22739 0.0
C508 C 0.69953 0.37648 0.26736 0.0
C509 C 0.68193 0.45924 0.24017 0.0
O510 O 0.65991 0.4563 0.23892 0.0
O511 O 0.70653 0.39751 0.20264 0.0
O512 O 0.7003 0.36008 0.2038 0.0
O513 O 0.64683 0.40796 0.24883 0.0
O514 O 0.65683 0.38047 0.22564 0.0
C515 C 0.71092 0.37729 0.19616 0.0
C516 C 0.64395 0.38747 0.24164 0.0
O517 O 0.69483 0.44293 0.23463 0.0
Mg518 Mg 0.59671 0.67858 0.22677 0.0
O519 O 0.61223 0.70199 0.25314 0.0
O520 O 0.64972 0.69721 0.25459 0.0
Mg521 Mg 0.65882 0.67513 0.22367 0.0
C522 C 0.6314 0.70586 0.26212 0.0
C523 C 0.55743 0.69749 0.25543 0.0
O524 O 0.57061 0.68793 0.27059 0.0
O525 O 0.6054 0.70399 0.19853 0.0
O526 O 0.64306 0.69945 0.19805 0.0
O527 O 0.60018 0.65115 0.25301 0.0
O528 O 0.62596 0.65828 0.22693 0.0
C529 C 0.62495 0.70834 0.19029 0.0
C530 C 0.62049 0.64811 0.24534 0.0
O531 O 0.56285 0.69609 0.23459 0.0
Mg532 Mg 0.3225 0.5923 0.23555 0.0
O533 O 0.30278 0.60835 0.26479 0.0
O534 O 0.31598 0.64298 0.27234 0.0
Mg535 Mg 0.33887 0.65206 0.24232 0.0
C536 C 0.30331 0.62612 0.27699 0.0
C537 C 0.2963 0.55345 0.25912 0.0
O538 O 0.30677 0.56319 0.27617 0.0
O539 O 0.29882 0.61008 0.20967 0.0
O540 O 0.31043 0.64518 0.21768 0.0
O541 O 0.35085 0.58676 0.26092 0.0
O542 O 0.34831 0.61651 0.23864 0.0
C543 C 0.29757 0.63155 0.20695 0.0
C544 C 0.35803 0.60667 0.25531 0.0
O545 O 0.29929 0.56124 0.23921 0.0
Mg546 Mg 0.39654 0.32951 0.23173 0.0
O547 O 0.38437 0.30647 0.26014 0.0
O548 O 0.34684 0.30947 0.2636 0.0
Mg549 Mg 0.33428 0.33023 0.23305 0.0
C550 C 0.36595 0.30206 0.27041 0.0
C551 C 0.4465 0.32669 0.24701 0.0
O552 O 0.44204 0.34832 0.24962 0.0
O553 O 0.38714 0.30335 0.20408 0.0
O554 O 0.34944 0.30721 0.20611 0.0
O555 O 0.39313 0.35816 0.25707 0.0
O556 O 0.36654 0.34845 0.23279 0.0
C557 C 0.36714 0.29883 0.197 0.0
C558 C 0.37252 0.3603 0.24993 0.0
O559 O 0.43146 0.31402 0.23827 0.0
Mg560 Mg 0.77648 0.67858 0.59843 0.0
O561 O 0.74498 0.69507 0.61417 0.0
O562 O 0.74854 0.69332 0.65182 0.0
Mg563 Mg 0.78389 0.67985 0.66038 0.0
C564 C 0.7371 0.69801 0.63408 0.0
C565 C 0.75804 0.71055 0.5586 0.0
O566 O 0.75988 0.72646 0.57405 0.0
O567 O 0.79834 0.7106 0.604 0.0
O568 O 0.80258 0.70756 0.64158 0.0
O569 O 0.75924 0.64492 0.60487 0.0
O570 O 0.78316 0.66092 0.62856 0.0
C571 C 0.80696 0.71718 0.62277 0.0
C572 C 0.76871 0.64522 0.62465 0.0
O573 O 0.76385 0.69037 0.56351 0.0
Mg574 Mg 0.76916 0.32105 0.40486 0.0
O575 O 0.74242 0.30288 0.38323 0.0
O576 O 0.74525 0.31599 0.34779 0.0
Mg577 Mg 0.77688 0.3383 0.34549 0.0
C578 C 0.73526 0.3041 0.36286 0.0
C579 C 0.7393 0.29557 0.44016 0.0
O580 O 0.72396 0.30586 0.42776 0.0
O581 O 0.79685 0.2968 0.39183 0.0
O582 O 0.80014 0.30957 0.35632 0.0
O583 O 0.74384 0.34923 0.40694 0.0
O584 O 0.7706 0.34736 0.3809 0.0
C585 C 0.80618 0.29632 0.37225 0.0
C586 C 0.75184 0.35608 0.38771 0.0
O587 O 0.76011 0.29793 0.43498 0.0
Mg588 Mg 0.68012 0.7809 0.40262 0.0
O589 O 0.70287 0.7531 0.38844 0.0
O590 O 0.69576 0.74866 0.35151 0.0
Mg591 Mg 0.67324 0.77856 0.34063 0.0
C592 C 0.70549 0.74255 0.36982 0.0
C593 C 0.70057 0.75633 0.44456 0.0
O594 O 0.69202 0.73938 0.43295 0.0
O595 O 0.70498 0.80848 0.39007 0.0
O596 O 0.69794 0.80547 0.35287 0.0
O597 O 0.65233 0.75453 0.40239 0.0
O598 O 0.65845 0.77856 0.37453 0.0
C599 C 0.70789 0.81492 0.36955 0.0
C600 C 0.64819 0.76091 0.38183 0.0
O601 O 0.69849 0.77634 0.43677 0.0
Mg602 Mg 0.2237 0.68387 0.41085 0.0
O603 O 0.25159 0.70442 0.39383 0.0
O604 O 0.25445 0.69474 0.35731 0.0
Mg605 Mg 0.22363 0.67204 0.34978 0.0
C606 C 0.26139 0.70561 0.37467 0.0
C607 C 0.24978 0.70804 0.4496 0.0
O608 O 0.26643 0.69836 0.43845 0.0
O609 O 0.1972 0.70873 0.39705 0.0
O610 O 0.19835 0.69952 0.36026 0.0
O611 O 0.2491 0.65577 0.41316 0.0
O612 O 0.22505 0.65984 0.38479 0.0
C613 C 0.19023 0.71104 0.37667 0.0
C614 C 0.24277 0.65019 0.39291 0.0
O615 O 0.22954 0.70515 0.44274 0.0
Mg616 Mg 0.31861 0.22735 0.40804 0.0
O617 O 0.2986 0.2532 0.38769 0.0
O618 O 0.31079 0.25307 0.35189 0.0
Mg619 Mg 0.33557 0.22329 0.34819 0.0
C620 C 0.29862 0.2614 0.36773 0.0
C621 C 0.29812 0.22998 0.4579 0.0
O622 O 0.31586 0.21742 0.46265 0.0
O623 O 0.29643 0.19796 0.39452 0.0
O624 O 0.30965 0.1971 0.35901 0.0
O625 O 0.34484 0.25477 0.4102 0.0
O626 O 0.34492 0.22837 0.38378 0.0
C627 C 0.29711 0.18919 0.37469 0.0
C628 C 0.35222 0.24762 0.39083 0.0
O629 O 0.29439 0.23545 0.43741 0.0
Mg630 Mg 0.21879 0.31698 0.59787 0.0
O631 O 0.24768 0.29772 0.61431 0.0
O632 O 0.24925 0.30469 0.65144 0.0
Mg633 Mg 0.21739 0.32597 0.65962 0.0
C634 C 0.25714 0.29552 0.63352 0.0
C635 C 0.22637 0.30422 0.54564 0.0
O636 O 0.21737 0.32425 0.54216 0.0
O637 O 0.19291 0.29023 0.61005 0.0
O638 O 0.19289 0.29904 0.64705 0.0
O639 O 0.24159 0.34808 0.59888 0.0
O640 O 0.21659 0.33958 0.62515 0.0
C641 C 0.18532 0.28776 0.63024 0.0
C642 C 0.23266 0.35239 0.61845 0.0
O643 O 0.22813 0.2969 0.56582 0.0
Mg644 Mg 0.67555 0.22157 0.59624 0.0
O645 O 0.69444 0.25066 0.61335 0.0
O646 O 0.68875 0.24764 0.65064 0.0
Mg647 Mg 0.66957 0.21462 0.65789 0.0
C648 C 0.69666 0.2582 0.63347 0.0
C649 C 0.67877 0.23722 0.54655 0.0
O650 O 0.65688 0.23506 0.54996 0.0
O651 O 0.70434 0.19661 0.60522 0.0
O652 O 0.69747 0.19311 0.64238 0.0
O653 O 0.64473 0.24391 0.59946 0.0
O654 O 0.65407 0.21792 0.62454 0.0
C655 C 0.70844 0.18772 0.62457 0.0
C656 C 0.64176 0.235 0.61926 0.0
O657 O 0.69219 0.23217 0.56263 0.0
Mg658 Mg 0.32358 0.7812 0.60359 0.0
O659 O 0.29938 0.75216 0.61109 0.0
O660 O 0.28721 0.75492 0.64686 0.0
Mg661 Mg 0.30765 0.78366 0.66376 0.0
C662 C 0.28726 0.74526 0.62751 0.0
C663 C 0.29674 0.7717 0.55919 0.0
O664 O 0.28013 0.77538 0.57353 0.0
O665 O 0.295 0.80802 0.60499 0.0
O666 O 0.28969 0.80998 0.64248 0.0
O667 O 0.35198 0.75773 0.61374 0.0
O668 O 0.33384 0.7802 0.6375 0.0
C669 C 0.28594 0.81707 0.62246 0.0
C670 C 0.34795 0.76393 0.63438 0.0
O671 O 0.31709 0.77411 0.56594 0.0
H672 H 0.96437 0.22625 0.24281 0.0
H673 H 0.98813 0.15865 0.22814 0.0
H674 H 0.0202 0.17406 0.20742 0.0
H675 H 0.0415 0.20637 0.19324 0.0
H676 H 0.01894 0.27425 0.208 0.0
H677 H 0.98637 0.25907 0.22876 0.0
C678 C 0.97662 0.21491 0.23515 0.0
C679 C 0.97377 0.19129 0.23707 0.0
C680 C 0.99518 0.2239 0.22314 0.0
C681 C 0.98982 0.17687 0.22699 0.0
C682 C 0.00819 0.18566 0.21506 0.0
C683 C 0.02943 0.21792 0.20086 0.0
C684 C 0.03261 0.24143 0.19892 0.0
C685 C 0.01099 0.2091 0.21295 0.0
C686 C 0.01686 0.25608 0.20915 0.0
C687 C 0.99826 0.2474 0.22107 0.0
H688 H 0.79562 0.95496 0.22356 0.0
H689 H 0.7597 0.96949 0.28559 0.0
H690 H 0.74046 0.00119 0.26718 0.0
H691 H 0.73551 0.02612 0.23405 0.0
H692 H 0.77236 0.01185 0.17251 0.0
H693 H 0.78929 0.97854 0.19009 0.0
C694 C 0.78353 0.96499 0.2331 0.0
C695 C 0.77929 0.95992 0.25602 0.0
C696 C 0.77262 0.98323 0.22245 0.0
C697 C 0.76339 0.97303 0.26797 0.0
C698 C 0.75237 0.99118 0.25745 0.0
C699 C 0.74697 0.01553 0.22437 0.0
C700 C 0.75268 0.02153 0.20198 0.0
C701 C 0.75704 0.9966 0.23476 0.0
C702 C 0.76771 0.00769 0.18977 0.0
C703 C 0.77748 0.98866 0.19984 0.0
H704 H 0.02708 0.81124 0.23258 0.0
H705 H 0.04518 0.74673 0.2616 0.0
H706 H 0.01356 0.72869 0.24184 0.0
H707 H 0.98111 0.73116 0.21567 0.0
H708 H 0.96422 0.79569 0.18577 0.0
H709 H 0.99509 0.81365 0.20632 0.0
C710 C 0.02397 0.79328 0.23478 0.0
C711 C 0.03836 0.78039 0.24866 0.0
C712 C 0.0061 0.78293 0.22299 0.0
C713 C 0.03431 0.75706 0.25104 0.0
C714 C 0.01627 0.74671 0.2397 0.0
C715 C 0.98425 0.74913 0.21358 0.0
C716 C 0.97034 0.762 0.19914 0.0
C717 C 0.00216 0.75945 0.22546 0.0
C718 C 0.97466 0.78529 0.19668 0.0
C719 C 0.99229 0.79565 0.20851 0.0
H720 H 0.24555 0.96728 0.22767 0.0
H721 H 0.25305 0.99857 0.16192 0.0
H722 H 0.23365 0.03221 0.17539 0.0
H723 H 0.21307 0.05228 0.20492 0.0
H724 H 0.20594 0.02259 0.27125 0.0
H725 H 0.22673 0.98891 0.25851 0.0
C726 C 0.24311 0.98155 0.21637 0.0
C727 C 0.25065 0.98023 0.19373 0.0
C728 C 0.23187 0.0011 0.22426 0.0
C729 C 0.2474 0.99895 0.17938 0.0
C730 C 0.23623 0.01826 0.18703 0.0
C731 C 0.21603 0.03845 0.21664 0.0
C732 C 0.20771 0.03979 0.2389 0.0
C733 C 0.22812 0.01939 0.20929 0.0
C734 C 0.2121 0.02191 0.25398 0.0
C735 C 0.22395 0.00265 0.24668 0.0
H736 H 0.96856 0.77677 0.74896 0.0
H737 H 0.99713 0.84409 0.74888 0.0
H738 H 0.03161 0.82986 0.76625 0.0
H739 H 0.05305 0.79898 0.78331 0.0
H740 H 0.02552 0.73136 0.78353 0.0
H741 H 0.99144 0.74498 0.76413 0.0
C742 C 0.9824 0.78828 0.75258 0.0
C743 C 0.98008 0.81154 0.74774 0.0
C744 C 0.00239 0.77996 0.7627 0.0
C745 C 0.99828 0.82616 0.75249 0.0
C746 C 0.01808 0.81804 0.76247 0.0
C747 C 0.03965 0.78715 0.77907 0.0
C748 C 0.04175 0.76422 0.78509 0.0
C749 C 0.02019 0.79509 0.76796 0.0
C750 C 0.02433 0.74911 0.77913 0.0
C751 C 0.0048 0.75692 0.7681 0.0
H752 H 0.24392 0.01761 0.81463 0.0
H753 H 0.2602 0.04019 0.74703 0.0
H754 H 0.23977 0.00804 0.73102 0.0
H755 H 0.21594 0.97422 0.73611 0.0
H756 H 0.19926 0.95211 0.80381 0.0
H757 H 0.22103 0.98331 0.81974 0.0
C758 C 0.24323 0.01537 0.7964 0.0
C759 C 0.25361 0.03133 0.78209 0.0
C760 C 0.23114 0.997 0.78726 0.0
C761 C 0.25237 0.0282 0.75849 0.0
C762 C 0.24061 0.00983 0.74928 0.0
C763 C 0.21706 0.97623 0.75434 0.0
C764 C 0.20583 0.96086 0.76868 0.0
C765 C 0.22967 0.99428 0.76349 0.0
C766 C 0.20761 0.96369 0.7923 0.0
C767 C 0.22012 0.98154 0.80148 0.0
H768 H 0.04064 0.20058 0.79721 0.0
H769 H 0.022 0.20554 0.72671 0.0
H770 H 0.98858 0.2279 0.73703 0.0
H771 H 0.96401 0.24505 0.76645 0.0
H772 H 0.98372 0.23989 0.83675 0.0
H773 H 0.01738 0.21873 0.82605 0.0
C774 C 0.02929 0.2065 0.78404 0.0
C775 C 0.03373 0.20119 0.76123 0.0
C776 C 0.01027 0.21938 0.79007 0.0
C777 C 0.01896 0.20931 0.74441 0.0
C778 C 0.99983 0.22209 0.75031 0.0
C779 C 0.97576 0.23944 0.7794 0.0
C780 C 0.9712 0.24402 0.80241 0.0
C781 C 0.99523 0.22712 0.77314 0.0
C782 C 0.98667 0.2366 0.81894 0.0
C783 C 0.00596 0.22443 0.81285 0.0
H784 H 0.77905 0.04187 0.76392 0.0
H785 H 0.80465 0.99186 0.71709 0.0
H786 H 0.78267 0.96249 0.73633 0.0
H787 H 0.75779 0.95076 0.76766 0.0
H788 H 0.73359 0.00076 0.81523 0.0
H789 H 0.75328 0.03047 0.79425 0.0
C790 C 0.77979 0.02458 0.75778 0.0
C791 C 0.79361 0.01909 0.73911 0.0
C792 C 0.76732 0.00778 0.76904 0.0
C793 C 0.79423 0.99658 0.73143 0.0
C794 C 0.78166 0.97977 0.74243 0.0
C795 C 0.75657 0.9682 0.77328 0.0
C796 C 0.74422 0.97353 0.79301 0.0
C797 C 0.76834 0.98514 0.76141 0.0
C798 C 0.74301 0.99618 0.80015 0.0
C799 C 0.7543 0.01318 0.78819 0.0
H800 H 0.23832 0.23526 0.04582 0.0
H801 H 0.27871 0.19417 0.00083 0.0
H802 H 0.26154 0.21262 0.96808 0.0
H803 H 0.23316 0.23857 0.95207 0.0
H804 H 0.19181 0.27867 0.99709 0.0
H805 H 0.21133 0.26263 0.0298 0.0
C806 C 0.24358 0.23051 0.02887 0.0
C807 C 0.25976 0.21324 0.02587 0.0
C808 C 0.23335 0.24096 0.01002 0.0
C809 C 0.26625 0.20731 0.00371 0.0
C810 C 0.25641 0.21785 0.98492 0.0
C811 C 0.2286 0.24403 0.96901 0.0
C812 C 0.21094 0.25978 0.97205 0.0
C813 C 0.23966 0.23443 0.98785 0.0
C814 C 0.20524 0.26653 0.99419 0.0
C815 C 0.21639 0.25733 0.01296 0.0
H816 H 0.25866 0.78019 0.96673 0.0
H817 H 0.2226 0.84339 0.97341 0.0
H818 H 0.20329 0.82916 0.00708 0.0
H819 H 0.19601 0.7986 0.03413 0.0
H820 H 0.23146 0.73506 0.02726 0.0
H821 H 0.25143 0.74954 0.99403 0.0
C822 C 0.24677 0.79094 0.97571 0.0
C823 C 0.24216 0.81286 0.96762 0.0
C824 C 0.23539 0.7825 0.99486 0.0
C825 C 0.22648 0.82646 0.97928 0.0
C826 C 0.21536 0.81831 0.9985 0.0
C827 C 0.208 0.78783 0.02532 0.0
C828 C 0.21212 0.76573 0.03316 0.0
C829 C 0.21951 0.79629 0.0063 0.0
C830 C 0.22786 0.75211 0.02156 0.0
C831 C 0.23937 0.76041 0.0026 0.0
H832 H 0.75768 0.22587 0.95694 0.0
H833 H 0.73622 0.17228 0.00177 0.0
H834 H 0.75226 0.19253 0.03406 0.0
H835 H 0.7741 0.2245 0.04935 0.0
H836 H 0.79631 0.27763 0.00433 0.0
H837 H 0.77814 0.25857 0.97246 0.0
C838 C 0.75634 0.21867 0.97378 0.0
C839 C 0.74582 0.19749 0.97684 0.0
C840 C 0.76581 0.23031 0.99229 0.0
C841 C 0.74428 0.18848 0.99885 0.0
C842 C 0.75347 0.20006 0.01736 0.0
C843 C 0.77481 0.23204 0.03262 0.0
C844 C 0.78667 0.25246 0.02928 0.0
C845 C 0.76453 0.22084 0.01425 0.0
C846 C 0.7874 0.26191 0.00743 0.0
C847 C 0.77702 0.251 0.98915 0.0
H848 H 0.7794 0.73215 0.96747 0.0
H849 H 0.82264 0.79111 0.96703 0.0
H850 H 0.80272 0.80638 0.9997 0.0
H851 H 0.77294 0.80341 0.0283 0.0
H852 H 0.73007 0.74432 0.02997 0.0
H853 H 0.74971 0.72887 0.99685 0.0
C854 C 0.78454 0.74825 0.97462 0.0
C855 C 0.80251 0.76043 0.96472 0.0
C856 C 0.77292 0.75708 0.99352 0.0
C857 C 0.80887 0.78134 0.9742 0.0
C858 C 0.79744 0.79016 0.9929 0.0
C859 C 0.76774 0.78723 0.02132 0.0
C860 C 0.74995 0.77512 0.0315 0.0
C861 C 0.77936 0.77828 0.0026 0.0
C862 C 0.74369 0.75401 0.02243 0.0
C863 C 0.75495 0.74515 0.00352 0.0
H864 H 0.5527 0.73652 0.72886 0.0
H865 H 0.50365 0.77875 0.69493 0.0
H866 H 0.47302 0.7601 0.71551 0.0
H867 H 0.45991 0.73026 0.74146 0.0
H868 H 0.509 0.68741 0.77457 0.0
H869 H 0.53974 0.70792 0.75611 0.0
C870 C 0.53534 0.74182 0.7261 0.0
C871 C 0.53055 0.75898 0.71025 0.0
C872 C 0.51773 0.73082 0.73779 0.0
C873 C 0.50789 0.76555 0.70693 0.0
C874 C 0.49032 0.75486 0.71869 0.0
C875 C 0.47733 0.72554 0.74483 0.0
C876 C 0.48206 0.70721 0.75935 0.0
C877 C 0.495 0.73724 0.73391 0.0
C878 C 0.50479 0.70135 0.76343 0.0
C879 C 0.52242 0.71307 0.75285 0.0
H880 H 0.32821 0.47137 0.71055 0.0
H881 H 0.28139 0.46802 0.76658 0.0
H882 H 0.2626 0.50244 0.75314 0.0
H883 H 0.25912 0.53326 0.72487 0.0
H884 H 0.30685 0.53626 0.6695 0.0
H885 H 0.32547 0.50222 0.68326 0.0
C886 C 0.31393 0.47816 0.71992 0.0
C887 C 0.30621 0.46705 0.73952 0.0
C888 C 0.30325 0.4979 0.71212 0.0
C889 C 0.28774 0.47623 0.75146 0.0
C890 C 0.27693 0.49588 0.74373 0.0
C891 C 0.27355 0.52641 0.71581 0.0
C892 C 0.28148 0.53731 0.6961 0.0
C893 C 0.28445 0.5068 0.72397 0.0
C894 C 0.30035 0.5283 0.6847 0.0
C895 C 0.31105 0.50879 0.69255 0.0
H896 H 0.48772 0.21998 0.73393 0.0
H897 H 0.45152 0.27507 0.70223 0.0
H898 H 0.47967 0.30179 0.71576 0.0
H899 H 0.51484 0.30979 0.73568 0.0
H900 H 0.55207 0.25542 0.76717 0.0
H901 H 0.52325 0.22831 0.75474 0.0
C902 C 0.486 0.23782 0.73002 0.0
C903 C 0.46754 0.24537 0.71692 0.0
C904 C 0.50244 0.25331 0.73781 0.0
C905 C 0.4656 0.26863 0.71207 0.0
C906 C 0.48168 0.28402 0.71986 0.0
C907 C 0.51667 0.29203 0.73995 0.0
C908 C 0.53563 0.2847 0.75233 0.0
C909 C 0.50021 0.27657 0.73261 0.0
C910 C 0.53763 0.26158 0.75769 0.0
C911 C 0.52117 0.24604 0.75053 0.0
H912 H 0.73634 0.47725 0.68117 0.0
H913 H 0.75843 0.45603 0.74757 0.0
H914 H 0.73893 0.48815 0.76469 0.0
H915 H 0.71515 0.52198 0.76099 0.0
H916 H 0.69296 0.54331 0.69467 0.0
H917 H 0.7127 0.51134 0.67745 0.0
C918 C 0.7371 0.47979 0.69936 0.0
C919 C 0.74892 0.46427 0.71303 0.0
C920 C 0.72556 0.49817 0.70918 0.0
C921 C 0.74949 0.46771 0.73661 0.0
C922 C 0.73826 0.48604 0.74646 0.0
C923 C 0.71446 0.51955 0.74279 0.0
C924 C 0.70247 0.53499 0.72919 0.0
C925 C 0.72607 0.50126 0.73294 0.0
C926 C 0.70198 0.53166 0.70559 0.0
C927 C 0.71335 0.51342 0.69569 0.0
H928 H 0.45725 0.28206 0.25333 0.0
H929 H 0.48315 0.3498 0.26262 0.0
H930 H 0.51662 0.33475 0.28142 0.0
H931 H 0.53808 0.30271 0.2962 0.0
H932 H 0.5128 0.23475 0.28726 0.0
H933 H 0.4795 0.24957 0.26748 0.0
C934 C 0.47033 0.29351 0.25926 0.0
C935 C 0.46764 0.31706 0.25655 0.0
C936 C 0.48954 0.28473 0.27034 0.0
C937 C 0.48471 0.33163 0.26449 0.0
C938 C 0.50387 0.32304 0.27532 0.0
C939 C 0.52528 0.29107 0.29002 0.0
C940 C 0.52789 0.26764 0.29338 0.0
C941 C 0.50633 0.29968 0.27857 0.0
C942 C 0.51119 0.25287 0.28501 0.0
C943 C 0.49217 0.26133 0.27365 0.0
H944 H 0.72594 0.46855 0.25164 0.0
H945 H 0.65862 0.49715 0.25193 0.0
H946 H 0.67254 0.53036 0.27199 0.0
H947 H 0.70317 0.55059 0.29089 0.0
H948 H 0.77073 0.52279 0.29086 0.0
H949 H 0.75734 0.48998 0.26925 0.0
C950 C 0.71436 0.48215 0.25589 0.0
C951 C 0.69122 0.48025 0.25035 0.0
C952 C 0.72246 0.50126 0.26765 0.0
C953 C 0.67648 0.49806 0.25603 0.0
C954 C 0.6844 0.51708 0.26757 0.0
C955 C 0.71503 0.53737 0.28621 0.0
C956 C 0.73788 0.53904 0.2927 0.0
C957 C 0.70725 0.5187 0.27375 0.0
C958 C 0.75303 0.52188 0.28616 0.0
C959 C 0.74537 0.50312 0.27381 0.0
H960 H 0.5461 0.70863 0.29843 0.0
H961 H 0.52345 0.71555 0.22926 0.0
H962 H 0.48998 0.73637 0.24221 0.0
H963 H 0.46656 0.75152 0.27346 0.0
H964 H 0.48989 0.74421 0.34243 0.0
H965 H 0.52377 0.72481 0.32918 0.0
C966 C 0.53386 0.71464 0.28612 0.0
C967 C 0.5372 0.71034 0.26291 0.0
C968 C 0.51479 0.72663 0.29365 0.0
C969 C 0.52125 0.71853 0.24724 0.0
C970 C 0.50212 0.73045 0.25464 0.0
C971 C 0.47917 0.7459 0.28557 0.0
C972 C 0.4756 0.7493 0.30894 0.0
C973 C 0.49864 0.7345 0.27784 0.0
C974 C 0.49211 0.7418 0.32437 0.0
C975 C 0.5115 0.73063 0.31682 0.0
H976 H 0.27978 0.53925 0.29947 0.0
H977 H 0.27986 0.52287 0.22822 0.0
H978 H 0.25768 0.4887 0.2359 0.0
H979 H 0.24001 0.46249 0.2632 0.0
H980 H 0.23989 0.4795 0.33439 0.0
H981 H 0.26018 0.51449 0.3263 0.0
C982 C 0.27491 0.52825 0.28558 0.0
C983 C 0.28168 0.53349 0.26333 0.0
C984 C 0.26214 0.50873 0.29011 0.0
C985 C 0.27493 0.51921 0.24551 0.0
C986 C 0.26228 0.49964 0.2499 0.0
C987 C 0.24422 0.47394 0.27694 0.0
C988 C 0.23852 0.46822 0.29941 0.0
C989 C 0.25603 0.49409 0.27218 0.0
C990 C 0.24407 0.48337 0.31695 0.0
C991 C 0.25576 0.50339 0.31235 0.0
H992 H 0.74717 0.75202 0.54113 0.0
H993 H 0.74671 0.68067 0.52519 0.0
H994 H 0.7292 0.68866 0.48867 0.0
H995 H 0.7133 0.71562 0.46154 0.0
H996 H 0.71418 0.78708 0.47668 0.0
H997 H 0.7323 0.77931 0.51316 0.0
C998 C 0.7433 0.73822 0.52965 0.0
C999 C 0.74822 0.71575 0.53602 0.0
C1000 C 0.73326 0.74293 0.50852 0.0
C1001 C 0.74316 0.69812 0.52082 0.0
C1002 C 0.73309 0.70266 0.4999 0.0
C1003 C 0.71743 0.72954 0.47279 0.0
C1004 C 0.71223 0.7519 0.4664 0.0
C1005 C 0.72794 0.72496 0.49364 0.0
C1006 C 0.71796 0.76971 0.48114 0.0
C1007 C 0.7283 0.76526 0.50204 0.0
H1008 H 0.69664 0.28346 0.4519 0.0
H1009 H 0.76602 0.27848 0.47424 0.0
H1010 H 0.75365 0.25932 0.50889 0.0
H1011 H 0.72275 0.24536 0.53363 0.0
H1012 H 0.65357 0.25057 0.51041 0.0
H1013 H 0.66631 0.26817 0.47542 0.0
C1014 C 0.70912 0.27813 0.46428 0.0
C1015 C 0.73222 0.28257 0.4605 0.0
C1016 C 0.70191 0.26719 0.48412 0.0
C1017 C 0.74813 0.27532 0.47669 0.0
C1018 C 0.74105 0.2644 0.49656 0.0
C1019 C 0.71048 0.25023 0.52086 0.0
C1020 C 0.68719 0.2467 0.5248 0.0
C1021 C 0.71793 0.26045 0.50058 0.0
C1022 C 0.67158 0.25309 0.50797 0.0
C1023 C 0.67883 0.26321 0.4879 0.0
H1024 H 0.29104 0.72109 0.46525 0.0
H1025 H 0.21953 0.72614 0.47969 0.0
H1026 H 0.22781 0.74756 0.51413 0.0
H1027 H 0.25535 0.76326 0.54096 0.0
H1028 H 0.32687 0.75803 0.52666 0.0
H1029 H 0.31852 0.73846 0.49116 0.0
C1030 C 0.27723 0.7269 0.47589 0.0
C1031 C 0.25469 0.72183 0.46998 0.0
C1032 C 0.28211 0.73921 0.49566 0.0
C1033 C 0.23703 0.72972 0.48386 0.0
C1034 C 0.24176 0.74197 0.50357 0.0
C1035 C 0.26914 0.75804 0.53001 0.0
C1036 C 0.29173 0.76202 0.53656 0.0
C1037 C 0.26423 0.7466 0.50974 0.0
C1038 C 0.30934 0.75518 0.52208 0.0
C1039 C 0.30458 0.7439 0.5018 0.0
H1040 H 0.25256 0.26622 0.54777 0.0
H1041 H 0.22246 0.31295 0.50031 0.0
H1042 H 0.24071 0.29317 0.46889 0.0
H1043 H 0.26689 0.2639 0.455 0.0
H1044 H 0.29815 0.21814 0.50264 0.0
H1045 H 0.27766 0.23613 0.53376 0.0
C1046 C 0.24979 0.27197 0.53054 0.0
C1047 C 0.23616 0.29112 0.52647 0.0
C1048 C 0.26063 0.26072 0.51253 0.0
C1049 C 0.2329 0.29834 0.504 0.0
C1050 C 0.24336 0.28703 0.48599 0.0
C1051 C 0.26904 0.25768 0.47215 0.0
C1052 C 0.2841 0.23968 0.47643 0.0
C1053 C 0.2575 0.26838 0.49007 0.0
C1054 C 0.28675 0.23198 0.49882 0.0
C1055 C 0.27504 0.24229 0.51666 0.0
H1056 H 0.12101 0.15904 0.26938 0.0
H1057 H 0.14029 0.12392 0.20831 0.0
H1058 H 0.13576 0.15893 0.18656 0.0
H1059 H 0.1313 0.2004 0.18616 0.0
H1060 H 0.11556 0.23596 0.2479 0.0
H1061 H 0.11397 0.19989 0.26844 0.0
C1062 C 0.12359 0.15893 0.25117 0.0
C1063 C 0.13105 0.13898 0.24046 0.0
C1064 C 0.12232 0.17934 0.23916 0.0
C1065 C 0.13427 0.13897 0.21689 0.0
C1066 C 0.13211 0.1591 0.20456 0.0
C1067 C 0.12784 0.20028 0.20413 0.0
C1068 C 0.12436 0.22076 0.21578 0.0
C1069 C 0.12714 0.17954 0.21573 0.0
C1070 C 0.11882 0.22034 0.23884 0.0
C1071 C 0.11776 0.19976 0.25047 0.0
H1072 H 0.85144 0.12162 0.28656 0.0
H1073 H 0.88172 0.12333 0.22014 0.0
H1074 H 0.84576 0.11136 0.20326 0.0
H1075 H 0.80412 0.10863 0.20692 0.0
H1076 H 0.7734 0.1132 0.27296 0.0
H1077 H 0.81093 0.1147 0.29064 0.0
C1078 C 0.85032 0.11863 0.26844 0.0
C1079 C 0.86904 0.12359 0.25456 0.0
C1080 C 0.82928 0.11348 0.25883 0.0
C1081 C 0.86756 0.11953 0.23118 0.0
C1082 C 0.84688 0.11308 0.22151 0.0
C1083 C 0.80582 0.10929 0.22522 0.0
C1084 C 0.78631 0.11064 0.2388 0.0
C1085 C 0.82738 0.11126 0.23506 0.0
C1086 C 0.78835 0.112 0.26238 0.0
C1087 C 0.80975 0.11291 0.2724 0.0
H1088 H 0.86493 0.80164 0.18502 0.0
H1089 H 0.89738 0.77095 0.2427 0.0
H1090 H 0.90064 0.80801 0.26108 0.0
H1091 H 0.89071 0.84831 0.26217 0.0
H1092 H 0.85856 0.87922 0.20438 0.0
H1093 H 0.86012 0.8433 0.18392 0.0
C1094 C 0.87264 0.8032 0.20163 0.0
C1095 C 0.88023 0.78373 0.21297 0.0
C1096 C 0.87506 0.82463 0.21174 0.0
C1097 C 0.89095 0.7858 0.23406 0.0
C1098 C 0.89299 0.80695 0.24443 0.0
C1099 C 0.88472 0.84732 0.24482 0.0
C1100 C 0.87428 0.86627 0.23494 0.0
C1101 C 0.88475 0.8264 0.23358 0.0
C1102 C 0.86681 0.86492 0.21236 0.0
C1103 C 0.86726 0.84423 0.20081 0.0
H1104 H 0.20962 0.8986 0.22078 0.0
H1105 H 0.20087 0.83925 0.179 0.0
H1106 H 0.16183 0.83583 0.1914 0.0
H1107 H 0.13086 0.84808 0.21594 0.0
H1108 H 0.14247 0.89992 0.26549 0.0
H1109 H 0.17909 0.90897 0.24778 0.0
C1110 C 0.19914 0.88494 0.2144 0.0
C1111 C 0.20799 0.86962 0.19835 0.0
C1112 C 0.177 0.88213 0.2228 0.0
C1113 C 0.19435 0.85167 0.19077 0.0
C1114 C 0.17197 0.84965 0.1979 0.0
C1115 C 0.14129 0.86156 0.22249 0.0
C1116 C 0.13394 0.87359 0.24152 0.0
C1117 C 0.16316 0.86472 0.21394 0.0
C1118 C 0.14763 0.89087 0.25038 0.0
C1119 C 0.1687 0.89569 0.24054 0.0
H1120 H 0.1122 0.78376 0.7749 0.0
H1121 H 0.17142 0.79222 0.81701 0.0
H1122 H 0.17551 0.83115 0.80386 0.0
H1123 H 0.16266 0.86263 0.77988 0.0
H1124 H 0.10712 0.85261 0.7338 0.0
H1125 H 0.10037 0.81482 0.74973 0.0
C1126 C 0.12609 0.79407 0.7811 0.0
C1127 C 0.14148 0.78502 0.79693 0.0
C1128 C 0.12858 0.81636 0.77318 0.0
C1129 C 0.15943 0.79862 0.8047 0.0
C1130 C 0.16166 0.82099 0.79736 0.0
C1131 C 0.14887 0.85227 0.77368 0.0
C1132 C 0.13504 0.86043 0.75616 0.0
C1133 C 0.14628 0.83005 0.78169 0.0
C1134 C 0.11756 0.84676 0.74771 0.0
C1135 C 0.11396 0.82509 0.75657 0.0
H1136 H 0.19222 0.12684 0.81716 0.0
H1137 H 0.2265 0.10388 0.75701 0.0
H1138 H 0.18997 0.09981 0.73759 0.0
H1139 H 0.14919 0.10752 0.73649 0.0
H1140 H 0.11547 0.13388 0.79566 0.0
H1141 H 0.15075 0.13099 0.81725 0.0
C1142 C 0.19173 0.12138 0.79971 0.0
C1143 C 0.21198 0.11671 0.78808 0.0
C1144 C 0.17074 0.11917 0.78879 0.0
C1145 C 0.21106 0.10822 0.76594 0.0
C1146 C 0.19023 0.10573 0.75497 0.0
C1147 C 0.14941 0.11184 0.75437 0.0
C1148 C 0.12985 0.12101 0.76446 0.0
C1149 C 0.17004 0.11166 0.76609 0.0
C1150 C 0.13022 0.12654 0.78758 0.0
C1151 C 0.15054 0.12538 0.79976 0.0
H1152 H 0.89495 0.20615 0.76751 0.0
H1153 H 0.83672 0.20008 0.81119 0.0
H1154 H 0.83535 0.15965 0.80451 0.0
H1155 H 0.84744 0.12665 0.78253 0.0
H1156 H 0.8986 0.13441 0.73143 0.0
H1157 H 0.90707 0.17268 0.74524 0.0
C1158 C 0.8821 0.19588 0.77566 0.0
C1159 C 0.86618 0.20612 0.79019 0.0
C1160 C 0.88046 0.17263 0.77052 0.0
C1161 C 0.8494 0.19263 0.8003 0.0
C1162 C 0.84857 0.16941 0.79643 0.0
C1163 C 0.86087 0.13656 0.77497 0.0
C1164 C 0.8726 0.12775 0.75634 0.0
C1165 C 0.86369 0.15928 0.78123 0.0
C1166 C 0.88975 0.14073 0.74622 0.0
C1167 C 0.8942 0.16277 0.75379 0.0
H1168 H 0.84837 0.88102 0.73339 0.0
H1169 H 0.88423 0.85494 0.79138 0.0
H1170 H 0.8492 0.85526 0.8135 0.0
H1171 H 0.80734 0.85812 0.81459 0.0
H1172 H 0.77182 0.88483 0.75673 0.0
H1173 H 0.80752 0.88803 0.73586 0.0
C1174 C 0.8486 0.87592 0.75105 0.0
C1175 C 0.8688 0.86776 0.76063 0.0
C1176 C 0.82825 0.87524 0.7633 0.0
C1177 C 0.86896 0.86149 0.78361 0.0
C1178 C 0.84882 0.86125 0.79614 0.0
C1179 C 0.8075 0.86445 0.79736 0.0
C1180 C 0.78703 0.87057 0.78685 0.0
C1181 C 0.8282 0.86707 0.78582 0.0
C1182 C 0.78739 0.87953 0.76485 0.0
C1183 C 0.80778 0.88158 0.75305 0.0
H1184 H 0.18372 0.14954 0.19491 0.0
H1185 H 0.2396 0.11511 0.22678 0.0
H1186 H 0.25945 0.11304 0.19039 0.0
H1187 H 0.26212 0.12385 0.15031 0.0
H1188 H 0.20599 0.15761 0.11812 0.0
H1189 H 0.18432 0.15567 0.15339 0.0
C1190 C 0.20032 0.14174 0.19381 0.0
C1191 C 0.21065 0.13319 0.21351 0.0
C1192 C 0.21123 0.13988 0.17269 0.0
C1193 C 0.23169 0.12231 0.21186 0.0
C1194 C 0.2429 0.12093 0.19106 0.0
C1195 C 0.24489 0.13021 0.15087 0.0
C1196 C 0.23579 0.14107 0.13172 0.0
C1197 C 0.23295 0.12992 0.17144 0.0
C1198 C 0.21336 0.14901 0.13255 0.0
C1199 C 0.20113 0.14832 0.15287 0.0
H1200 H 0.84458 0.21133 0.12968 0.0
H1201 H 0.89194 0.26544 0.14178 0.0
H1202 H 0.90114 0.24949 0.17898 0.0
H1203 H 0.89194 0.22301 0.20987 0.0
H1204 H 0.83982 0.17285 0.19982 0.0
H1205 H 0.83578 0.18456 0.16027 0.0
C1206 C 0.85743 0.21919 0.14021 0.0
C1207 C 0.86789 0.23929 0.13295 0.0
C1208 C 0.8611 0.21105 0.16227 0.0
C1209 C 0.88403 0.24971 0.14693 0.0
C1210 C 0.88897 0.24081 0.16831 0.0
C1211 C 0.87973 0.21466 0.19897 0.0
C1212 C 0.86606 0.19725 0.20776 0.0
C1213 C 0.87695 0.22201 0.1765 0.0
C1214 C 0.85026 0.18656 0.19353 0.0
C1215 C 0.8481 0.19312 0.17087 0.0
H1216 H 0.78079 0.88511 0.2122 0.0
H1217 H 0.82103 0.82428 0.20692 0.0
H1218 H 0.80828 0.81891 0.16801 0.0
H1219 H 0.78507 0.83102 0.13575 0.0
H1220 H 0.74021 0.88785 0.1428 0.0
H1221 H 0.7562 0.89617 0.18031 0.0
C1222 C 0.78663 0.87057 0.2026 0.0
C1223 C 0.8019 0.85516 0.21251 0.0
C1224 C 0.77889 0.86732 0.18033 0.0
C1225 C 0.80919 0.83635 0.19984 0.0
C1226 C 0.80209 0.83338 0.17747 0.0
C1227 C 0.77916 0.84541 0.14539 0.0
C1228 C 0.76198 0.85913 0.13648 0.0
C1229 C 0.78703 0.8488 0.16754 0.0
C1230 C 0.75394 0.8775 0.14919 0.0
C1231 C 0.76278 0.88196 0.17073 0.0
H1232 H 0.13722 0.7607 0.22426 0.0
H1233 H 0.11818 0.82242 0.19055 0.0
H1234 H 0.12416 0.80475 0.15361 0.0
H1235 H 0.1394 0.77281 0.13115 0.0
H1236 H 0.15571 0.71032 0.16515 0.0
H1237 H 0.14515 0.72672 0.2015 0.0
C1238 C 0.13414 0.77008 0.20877 0.0
C1239 C 0.12821 0.79296 0.20996 0.0
C1240 C 0.13677 0.75955 0.1876 0.0
C1241 C 0.12357 0.80495 0.18995 0.0
C1242 C 0.12677 0.79479 0.16881 0.0
C1243 C 0.13969 0.76254 0.14638 0.0
C1244 C 0.14849 0.74049 0.14555 0.0
C1245 C 0.13394 0.77223 0.16741 0.0
C1246 C 0.14904 0.72741 0.16545 0.0
C1247 C 0.14328 0.73684 0.1863 0.0
H1248 H 0.19641 0.88139 0.79519 0.0
H1249 H 0.24262 0.84398 0.75282 0.0
H1250 H 0.26782 0.83802 0.78533 0.0
H1251 H 0.27571 0.84241 0.82567 0.0
H1252 H 0.22588 0.87301 0.86954 0.0
H1253 H 0.20348 0.88394 0.83634 0.0
C1254 C 0.21201 0.8719 0.79318 0.0
C1255 C 0.21783 0.86306 0.77183 0.0
C1256 C 0.22574 0.86767 0.81208 0.0
C1257 C 0.23791 0.85076 0.76922 0.0
C1258 C 0.25227 0.84748 0.78772 0.0
C1259 C 0.25971 0.85101 0.82814 0.0
C1260 C 0.25214 0.85622 0.85015 0.0
C1261 C 0.24618 0.85562 0.80925 0.0
C1262 C 0.23203 0.86862 0.85281 0.0
C1263 C 0.21912 0.87467 0.83386 0.0
H1264 H 0.14414 0.17569 0.81008 0.0
H1265 H 0.10801 0.22931 0.77627 0.0
H1266 H 0.10599 0.25069 0.81173 0.0
H1267 H 0.11754 0.25553 0.85136 0.0
H1268 H 0.15325 0.20185 0.8855 0.0
H1269 H 0.15082 0.17833 0.85147 0.0
C1270 C 0.13592 0.19209 0.81055 0.0
C1271 C 0.12687 0.20133 0.79052 0.0
C1272 C 0.13414 0.20393 0.83119 0.0
C1273 C 0.11555 0.22219 0.79141 0.0
C1274 C 0.11421 0.23429 0.8117 0.0
C1275 C 0.12422 0.23842 0.85153 0.0
C1276 C 0.13583 0.2306 0.8708 0.0
C1277 C 0.12374 0.22547 0.83159 0.0
C1278 C 0.14413 0.20829 0.87095 0.0
C1279 C 0.14317 0.195 0.85131 0.0
H1280 H 0.81815 0.12426 0.80915 0.0
H1281 H 0.75722 0.11771 0.76963 0.0
H1282 H 0.7346 0.11599 0.80444 0.0
H1283 H 0.73203 0.12002 0.84561 0.0
H1284 H 0.79251 0.13143 0.88492 0.0
H1285 H 0.81571 0.126 0.85095 0.0
C1286 C 0.79991 0.12291 0.80822 0.0
C1287 C 0.78914 0.12211 0.78699 0.0
C1288 C 0.78711 0.12213 0.82828 0.0
C1289 C 0.76565 0.11904 0.78588 0.0
C1290 C 0.75281 0.11785 0.80573 0.0
C1291 C 0.75034 0.12106 0.8468 0.0
C1292 C 0.76048 0.12673 0.86762 0.0
C1293 C 0.76333 0.11983 0.82697 0.0
C1294 C 0.78422 0.12718 0.86911 0.0
C1295 C 0.79747 0.12449 0.84958 0.0
H1296 H 0.84263 0.78132 0.86052 0.0
H1297 H 0.89618 0.73287 0.85259 0.0
H1298 H 0.90564 0.74896 0.81535 0.0
H1299 H 0.89522 0.774 0.78314 0.0
H1300 H 0.83496 0.81505 0.7887 0.0
H1301 H 0.83044 0.80381 0.82782 0.0
C1302 C 0.85649 0.77457 0.85067 0.0
C1303 C 0.86888 0.75632 0.85927 0.0
C1304 C 0.85992 0.78201 0.82841 0.0
C1305 C 0.88684 0.74743 0.84649 0.0
C1306 C 0.89187 0.75628 0.82503 0.0
C1307 C 0.88103 0.78032 0.79294 0.0
C1308 C 0.86557 0.79553 0.78298 0.0
C1309 C 0.87791 0.773 0.81544 0.0
C1310 C 0.84716 0.80339 0.79585 0.0
C1311 C 0.84466 0.79715 0.81842 0.0
H1312 H 0.13749 0.22798 0.16087 0.0
H1313 H 0.14707 0.2764 0.10764 0.0
H1314 H 0.1851 0.26111 0.10018 0.0
H1315 H 0.21678 0.23597 0.11153 0.0
H1316 H 0.20892 0.19373 0.17076 0.0
H1317 H 0.1697 0.2054 0.17427 0.0
C1318 C 0.14789 0.23486 0.14753 0.0
C1319 C 0.13949 0.25278 0.13456 0.0
C1320 C 0.17035 0.22765 0.14511 0.0
C1321 C 0.15304 0.26205 0.11738 0.0
C1322 C 0.17489 0.25363 0.11347 0.0
C1323 C 0.20652 0.22952 0.12534 0.0
C1324 C 0.21581 0.2138 0.14073 0.0
C1325 C 0.18398 0.23688 0.12774 0.0
C1326 C 0.20232 0.2058 0.15864 0.0
C1327 C 0.17972 0.21228 0.16054 0.0
H1328 H 0.19544 0.80814 0.86329 0.0
H1329 H 0.22556 0.74933 0.8941 0.0
H1330 H 0.1882 0.73143 0.89716 0.0
H1331 H 0.14811 0.7307 0.8862 0.0
H1332 H 0.11803 0.78928 0.8548 0.0
H1333 H 0.15386 0.80972 0.8581 0.0
C1334 C 0.19365 0.79149 0.87084 0.0
C1335 C 0.21301 0.77968 0.87799 0.0
C1336 C 0.17212 0.78153 0.87282 0.0
C1337 C 0.21075 0.75841 0.88819 0.0
C1338 C 0.18944 0.74829 0.89004 0.0
C1339 C 0.1492 0.74826 0.88091 0.0
C1340 C 0.13058 0.75838 0.87006 0.0
C1341 C 0.17012 0.75946 0.88186 0.0
C1342 C 0.13207 0.78115 0.86336 0.0
C1343 C 0.15272 0.79268 0.8648 0.0
H1344 H 0.22966 0.21206 0.88934 0.0
H1345 H 0.18755 0.20304 0.83013 0.0
H1346 H 0.19825 0.16359 0.82814 0.0
H1347 H 0.22011 0.13131 0.84268 0.0
H1348 H 0.26917 0.14201 0.89514 0.0
H1349 H 0.25415 0.18026 0.90181 0.0
C1350 C 0.22301 0.20147 0.87587 0.0
C1351 C 0.20759 0.21058 0.86005 0.0
C1352 C 0.22985 0.17869 0.87431 0.0
C1353 C 0.19937 0.19663 0.8426 0.0
C1354 C 0.20528 0.17384 0.84159 0.0
C1355 C 0.22717 0.142 0.8557 0.0
C1356 C 0.24527 0.13386 0.86861 0.0
C1357 C 0.22035 0.16465 0.85742 0.0
C1358 C 0.25468 0.14775 0.88546 0.0
C1359 C 0.24646 0.16976 0.88885 0.0
H1360 H 0.77993 0.23581 0.8766 0.0
H1361 H 0.80497 0.17096 0.85479 0.0
H1362 H 0.84321 0.18632 0.85126 0.0
H1363 H 0.86814 0.21948 0.84858 0.0
H1364 H 0.84195 0.28549 0.86515 0.0
H1365 H 0.80576 0.26876 0.87642 0.0
C1366 C 0.79383 0.22519 0.87099 0.0
C1367 C 0.78977 0.20243 0.86559 0.0
C1368 C 0.81554 0.23449 0.86784 0.0
C1369 C 0.80778 0.18863 0.85861 0.0
C1370 C 0.82962 0.1974 0.85669 0.0
C1371 C 0.85476 0.23005 0.85545 0.0
C1372 C 0.85768 0.25361 0.85628 0.0
C1373 C 0.83357 0.22047 0.86049 0.0
C1374 C 0.84005 0.26726 0.86458 0.0
C1375 C 0.81929 0.25773 0.87074 0.0
H1376 H 0.73342 0.85086 0.88051 0.0
H1377 H 0.79183 0.88561 0.8539 0.0
H1378 H 0.81446 0.85114 0.85807 0.0
H1379 H 0.8155 0.8097 0.86305 0.0
H1380 H 0.75625 0.77446 0.88674 0.0
H1381 H 0.73577 0.81047 0.88969 0.0
C1382 C 0.75133 0.85106 0.87638 0.0
C1383 C 0.76091 0.87062 0.86672 0.0
C1384 C 0.76372 0.83087 0.8774 0.0
C1385 C 0.78411 0.87082 0.86153 0.0
C1386 C 0.7969 0.85096 0.86345 0.0
C1387 C 0.79804 0.80992 0.86851 0.0
C1388 C 0.78696 0.78952 0.87369 0.0
C1389 C 0.7865 0.83063 0.87012 0.0
C1390 C 0.76478 0.79003 0.8821 0.0
C1391 C 0.75319 0.81057 0.88392 0.0
H1392 H 0.80745 0.8025 0.11852 0.0
H1393 H 0.76647 0.745 0.13683 0.0
H1394 H 0.80049 0.72132 0.13934 0.0
H1395 H 0.84165 0.71793 0.13917 0.0
H1396 H 0.88314 0.77691 0.12767 0.0
H1397 H 0.84921 0.79899 0.11845 0.0
C1398 C 0.80608 0.78478 0.12309 0.0
C1399 C 0.78471 0.77537 0.12773 0.0
C1400 C 0.82574 0.77162 0.12536 0.0
C1401 C 0.78288 0.75246 0.13344 0.0
C1402 C 0.80226 0.73899 0.13475 0.0
C1403 C 0.84332 0.73563 0.13462 0.0
C1404 C 0.86483 0.74589 0.13458 0.0
C1405 C 0.82376 0.74852 0.13114 0.0
C1406 C 0.86679 0.7686 0.12785 0.0
C1407 C 0.84736 0.78129 0.12291 0.0
H1408 H 0.23243 0.80175 0.10002 0.0
H1409 H 0.17437 0.8144 0.14244 0.0
H1410 H 0.18309 0.85492 0.14273 0.0
H1411 H 0.21279 0.88405 0.13986 0.0
H1412 H 0.27335 0.86986 0.10182 0.0
H1413 H 0.25826 0.833 0.09075 0.0
C1414 C 0.22148 0.81348 0.10897 0.0
C1415 C 0.20312 0.80514 0.12161 0.0
C1416 C 0.22741 0.83648 0.11029 0.0
C1417 C 0.18891 0.82044 0.133 0.0
C1418 C 0.19392 0.84357 0.13321 0.0
C1419 C 0.22208 0.87337 0.12814 0.0
C1420 C 0.24411 0.87956 0.12162 0.0
C1421 C 0.21395 0.85152 0.12322 0.0
C1422 C 0.25627 0.86542 0.10687 0.0
C1423 C 0.24781 0.84417 0.10089 0.0
H1424 H 0.76671 0.15251 0.19111 0.0
H1425 H 0.75172 0.1321 0.12281 0.0
H1426 H 0.76905 0.16721 0.10849 0.0
H1427 H 0.78634 0.20461 0.11609 0.0
H1428 H 0.79952 0.22469 0.1853 0.0
H1429 H 0.78428 0.18888 0.19879 0.0
C1430 C 0.76708 0.15577 0.17315 0.0
C1431 C 0.75768 0.14004 0.15807 0.0
C1432 C 0.77637 0.17605 0.16532 0.0
C1433 C 0.75899 0.14403 0.13469 0.0
C1434 C 0.76865 0.16417 0.12659 0.0
C1435 C 0.78566 0.20129 0.13414 0.0
C1436 C 0.79382 0.21754 0.14968 0.0
C1437 C 0.77694 0.18053 0.14184 0.0
C1438 C 0.79313 0.2127 0.17298 0.0
C1439 C 0.78456 0.19215 0.18071 0.0
H1440 H 0.68578 0.66553 0.75256 0.0
H1441 H 0.61914 0.63746 0.74334 0.0
H1442 H 0.60705 0.67229 0.72416 0.0
H1443 H 0.61595 0.71022 0.70944 0.0
H1444 H 0.68367 0.73683 0.71651 0.0
H1445 H 0.69493 0.70297 0.73752 0.0
C1446 C 0.66852 0.66717 0.74684 0.0
C1447 C 0.65321 0.64922 0.74987 0.0
C1448 C 0.66198 0.68692 0.73544 0.0
C1449 C 0.63113 0.65121 0.74136 0.0
C1450 C 0.62425 0.67108 0.73044 0.0
C1451 C 0.63309 0.70877 0.71586 0.0
C1452 C 0.64889 0.72618 0.71175 0.0
C1453 C 0.63958 0.68902 0.72735 0.0
C1454 C 0.67118 0.72376 0.71963 0.0
C1455 C 0.67762 0.7044 0.73158 0.0
H1456 H 0.30017 0.60841 0.7258 0.0
H1457 H 0.30732 0.66765 0.68367 0.0
H1458 H 0.34706 0.67107 0.69476 0.0
H1459 H 0.3789 0.65897 0.71864 0.0
H1460 H 0.36964 0.6041 0.76572 0.0
H1461 H 0.33214 0.59631 0.74971 0.0
C1462 C 0.31046 0.62205 0.71906 0.0
C1463 C 0.30078 0.63787 0.70411 0.0
C1464 C 0.33311 0.62432 0.72605 0.0
C1465 C 0.31428 0.65549 0.69551 0.0
C1466 C 0.33706 0.65732 0.70167 0.0
C1467 C 0.36888 0.64492 0.72492 0.0
C1468 C 0.37706 0.63186 0.74304 0.0
C1469 C 0.34659 0.64198 0.71711 0.0
C1470 C 0.36379 0.61404 0.75145 0.0
C1471 C 0.34222 0.60988 0.74258 0.0
H1472 H 0.39152 0.27958 0.73286 0.0
H1473 H 0.33297 0.28759 0.68979 0.0
H1474 H 0.33154 0.3275 0.69866 0.0
H1475 H 0.34629 0.36047 0.71948 0.0
H1476 H 0.39663 0.35084 0.77061 0.0
H1477 H 0.40381 0.31223 0.75667 0.0
C1478 C 0.37836 0.29015 0.72562 0.0
C1479 C 0.36243 0.28065 0.71056 0.0
C1480 C 0.37705 0.3132 0.73153 0.0
C1481 C 0.34539 0.29443 0.70143 0.0
C1482 C 0.34478 0.31745 0.70623 0.0
C1483 C 0.35901 0.34991 0.72707 0.0
C1484 C 0.3711 0.35846 0.74549 0.0
C1485 C 0.36057 0.32704 0.72112 0.0
C1486 C 0.38758 0.3448 0.75583 0.0
C1487 C 0.39121 0.32257 0.74825 0.0
H1488 H 0.64728 0.38495 0.76674 0.0
H1489 H 0.61113 0.35746 0.70957 0.0
H1490 H 0.64423 0.36363 0.68544 0.0
H1491 H 0.6858 0.3679 0.6833 0.0
H1492 H 0.7225 0.39359 0.74091 0.0
H1493 H 0.68715 0.39592 0.76267 0.0
C1494 C 0.64643 0.38106 0.74878 0.0
C1495 C 0.62703 0.37029 0.74005 0.0
C1496 C 0.66604 0.38298 0.73553 0.0
C1497 C 0.62588 0.36569 0.71674 0.0
C1498 C 0.64501 0.36871 0.70307 0.0
C1499 C 0.68598 0.37413 0.70056 0.0
C1500 C 0.70665 0.37985 0.7109 0.0
C1501 C 0.66561 0.37569 0.71274 0.0
C1502 C 0.70673 0.3886 0.73296 0.0
C1503 C 0.68656 0.39008 0.74526 0.0
H1504 H 0.62141 0.35125 0.22582 0.0
H1505 H 0.64225 0.38408 0.28763 0.0
H1506 H 0.63541 0.34912 0.30878 0.0
H1507 H 0.62884 0.30804 0.30834 0.0
H1508 H 0.60833 0.27496 0.24664 0.0
H1509 H 0.6096 0.3113 0.22656 0.0
C1510 C 0.62361 0.35093 0.24408 0.0
C1511 C 0.63225 0.37014 0.25521 0.0
C1512 C 0.62029 0.33062 0.25591 0.0
C1513 C 0.63524 0.36961 0.27879 0.0
C1514 C 0.63172 0.3495 0.29079 0.0
C1515 C 0.62465 0.30878 0.29055 0.0
C1516 C 0.61915 0.28886 0.27875 0.0
C1517 C 0.62521 0.32969 0.27932 0.0
C1518 C 0.61293 0.29013 0.25588 0.0
C1519 C 0.61361 0.31086 0.24447 0.0
H1520 H 0.7 0.64508 0.31498 0.0
H1521 H 0.73592 0.62172 0.25598 0.0
H1522 H 0.70044 0.62094 0.23435 0.0
H1523 H 0.65967 0.62895 0.23195 0.0
H1524 H 0.62345 0.65092 0.29145 0.0
H1525 H 0.65839 0.64901 0.31369 0.0
C1526 C 0.69998 0.64002 0.29736 0.0
C1527 C 0.72046 0.6342 0.28675 0.0
C1528 C 0.67945 0.63876 0.28542 0.0
C1529 C 0.72032 0.62685 0.26418 0.0
C1530 C 0.70007 0.62617 0.25195 0.0
C1531 C 0.65934 0.63274 0.24994 0.0
C1532 C 0.63907 0.64014 0.26004 0.0
C1533 C 0.67957 0.63223 0.26238 0.0
C1534 C 0.63878 0.64493 0.28335 0.0
C1535 C 0.65884 0.64425 0.29596 0.0
H1536 H 0.38928 0.63779 0.24458 0.0
H1537 H 0.35233 0.61017 0.30109 0.0
H1538 H 0.3566 0.64595 0.32164 0.0
H1539 H 0.36248 0.68735 0.31918 0.0
H1540 H 0.39908 0.71502 0.26239 0.0
H1541 H 0.40244 0.67719 0.24575 0.0
C1542 C 0.38306 0.63931 0.26183 0.0
C1543 C 0.37024 0.62156 0.2712 0.0
C1544 C 0.38425 0.66033 0.27282 0.0
C1545 C 0.36234 0.62357 0.29355 0.0
C1546 C 0.36418 0.64425 0.30501 0.0
C1547 C 0.37135 0.68499 0.30327 0.0
C1548 C 0.37991 0.7039 0.2916 0.0
C1549 C 0.37362 0.66315 0.29408 0.0
C1550 C 0.392 0.70068 0.27138 0.0
C1551 C 0.39402 0.67908 0.26196 0.0
H1552 H 0.3322 0.37501 0.23517 0.0
H1553 H 0.37167 0.36665 0.29605 0.0
H1554 H 0.33754 0.37212 0.31907 0.0
H1555 H 0.29583 0.37429 0.32139 0.0
H1556 H 0.2563 0.37787 0.26014 0.0
H1557 H 0.29111 0.3789 0.23749 0.0
C1558 C 0.33341 0.37484 0.25352 0.0
C1559 C 0.35435 0.37027 0.26392 0.0
C1560 C 0.31361 0.37652 0.26643 0.0
C1561 C 0.35578 0.37033 0.28766 0.0
C1562 C 0.33621 0.37308 0.30078 0.0
C1563 C 0.2949 0.37519 0.3031 0.0
C1564 C 0.27371 0.37552 0.29225 0.0
C1565 C 0.31494 0.37526 0.29029 0.0
C1566 C 0.27256 0.37725 0.26864 0.0
C1567 C 0.29239 0.37796 0.25579 0.0
H1568 H 0.70799 0.61382 0.70546 0.0
H1569 H 0.76655 0.63725 0.74224 0.0
H1570 H 0.78793 0.64005 0.70669 0.0
H1571 H 0.78857 0.63928 0.66534 0.0
H1572 H 0.7277 0.62334 0.62823 0.0
H1573 H 0.7089 0.6126 0.66366 0.0
C1574 C 0.72555 0.61924 0.70562 0.0
C1575 C 0.73587 0.62527 0.72627 0.0
C1576 C 0.73725 0.62184 0.6851 0.0
C1577 C 0.7584 0.63263 0.72645 0.0
C1578 C 0.77056 0.63413 0.7062 0.0
C1579 C 0.77117 0.63344 0.66496 0.0
C1580 C 0.75934 0.6327 0.64425 0.0
C1581 C 0.75996 0.62929 0.68543 0.0
C1582 C 0.73715 0.62417 0.64393 0.0
C1583 C 0.72631 0.61837 0.66423 0.0
H1584 H 0.39582 0.71191 0.7145 0.0
H1585 H 0.32673 0.70951 0.73847 0.0
H1586 H 0.31416 0.7297 0.70469 0.0
H1587 H 0.32272 0.74738 0.6685 0.0
H1588 H 0.39109 0.74963 0.64344 0.0
H1589 H 0.40418 0.72943 0.67744 0.0
C1590 C 0.37805 0.71608 0.7125 0.0
C1591 C 0.36225 0.70952 0.72919 0.0
C1592 C 0.37088 0.72735 0.69282 0.0
C1593 C 0.33924 0.71456 0.72603 0.0
C1594 C 0.33203 0.72601 0.70668 0.0
C1595 C 0.3405 0.74392 0.67062 0.0
C1596 C 0.356 0.75055 0.65386 0.0
C1597 C 0.3477 0.73245 0.69003 0.0
C1598 C 0.37891 0.74481 0.65628 0.0
C1599 C 0.38635 0.73339 0.67573 0.0
H1600 H 0.25973 0.38356 0.71476 0.0
H1601 H 0.32545 0.3643 0.68979 0.0
H1602 H 0.31065 0.36002 0.6518 0.0
H1603 H 0.27774 0.35666 0.62653 0.0
H1604 H 0.21211 0.37755 0.65057 0.0
H1605 H 0.22817 0.38745 0.68738 0.0
C1606 C 0.27078 0.37876 0.70089 0.0
C1607 C 0.29335 0.37289 0.70539 0.0
C1608 C 0.2622 0.37699 0.67867 0.0
C1609 C 0.30769 0.36737 0.6872 0.0
C1610 C 0.29932 0.36537 0.66523 0.0
C1611 C 0.2672 0.36437 0.63946 0.0
C1612 C 0.24382 0.36633 0.63591 0.0
C1613 C 0.27641 0.36937 0.66086 0.0
C1614 C 0.23024 0.37598 0.65297 0.0
C1615 C 0.23934 0.38133 0.67415 0.0
H1616 H 0.64803 0.27903 0.62946 0.0
H1617 H 0.61419 0.21856 0.65207 0.0
H1618 H 0.60749 0.23575 0.68923 0.0
H1619 H 0.61587 0.26613 0.71681 0.0
H1620 H 0.65511 0.32372 0.69522 0.0
H1621 H 0.65401 0.31031 0.65616 0.0
C1622 C 0.63839 0.27002 0.64225 0.0
C1623 C 0.63126 0.24774 0.63799 0.0
C1624 C 0.63602 0.2794 0.66402 0.0
C1625 C 0.61948 0.23589 0.65492 0.0
C1626 C 0.61599 0.24558 0.67627 0.0
C1627 C 0.6244 0.27556 0.70356 0.0
C1628 C 0.63568 0.29584 0.70894 0.0
C1629 C 0.62509 0.26692 0.68132 0.0
C1630 C 0.64646 0.30801 0.69158 0.0
C1631 C 0.64589 0.30031 0.66923 0.0
H1632 H 0.68322 0.36328 0.30818 0.0
H1633 H 0.74189 0.39171 0.2754 0.0
H1634 H 0.76225 0.39221 0.31156 0.0
H1635 H 0.76446 0.381 0.3515 0.0
H1636 H 0.70576 0.35285 0.38454 0.0
H1637 H 0.68374 0.35735 0.34976 0.0
C1638 C 0.70046 0.36958 0.30909 0.0
C1639 C 0.71142 0.37682 0.28924 0.0
C1640 C 0.71178 0.37044 0.33004 0.0
C1641 C 0.73342 0.38563 0.29052 0.0
C1642 C 0.74496 0.38607 0.31116 0.0
C1643 C 0.74667 0.37643 0.35124 0.0
C1644 C 0.73687 0.36632 0.37044 0.0
C1645 C 0.73444 0.37812 0.33093 0.0
C1646 C 0.71371 0.36078 0.37004 0.0
C1647 C 0.70122 0.36296 0.35 0.0
H1648 H 0.64452 0.69104 0.30331 0.0
H1649 H 0.61699 0.74886 0.26849 0.0
H1650 H 0.61549 0.76998 0.30423 0.0
H1651 H 0.62504 0.77279 0.34457 0.0
H1652 H 0.6518 0.7148 0.37978 0.0
H1653 H 0.64914 0.69227 0.34499 0.0
C1654 C 0.63833 0.70829 0.30365 0.0
C1655 C 0.63162 0.71879 0.28337 0.0
C1656 C 0.63677 0.71995 0.32435 0.0
C1657 C 0.62281 0.74081 0.28393 0.0
C1658 C 0.62173 0.75273 0.30433 0.0
C1659 C 0.6296 0.755 0.34478 0.0
C1660 C 0.63873 0.74548 0.36461 0.0
C1661 C 0.62893 0.74255 0.32457 0.0
C1662 C 0.64452 0.72243 0.36478 0.0
C1663 C 0.64347 0.70972 0.34476 0.0
H1664 H 0.23206 0.62542 0.35611 0.0
H1665 H 0.28888 0.65306 0.3927 0.0
H1666 H 0.31315 0.64758 0.35955 0.0
H1667 H 0.31644 0.64046 0.31849 0.0
H1668 H 0.26011 0.61141 0.28233 0.0
H1669 H 0.23706 0.61259 0.31681 0.0
C1670 C 0.24994 0.62959 0.35701 0.0
C1671 C 0.25865 0.63978 0.37669 0.0
C1672 C 0.26356 0.62703 0.33772 0.0
C1673 C 0.28183 0.64501 0.37779 0.0
C1674 C 0.2956 0.64228 0.3587 0.0
C1675 C 0.29917 0.63433 0.31826 0.0
C1676 C 0.28972 0.62642 0.2979 0.0
C1677 C 0.28634 0.63434 0.33828 0.0
C1678 C 0.26753 0.61792 0.29781 0.0
C1679 C 0.25443 0.61848 0.31751 0.0
H1680 H 0.37814 0.23775 0.35443 0.0
H1681 H 0.34413 0.29308 0.38777 0.0
H1682 H 0.34562 0.31527 0.35286 0.0
H1683 H 0.35108 0.3164 0.31127 0.0
H1684 H 0.38547 0.26126 0.2781 0.0
H1685 H 0.38851 0.24107 0.31426 0.0
C1686 C 0.37167 0.25494 0.35421 0.0
C1687 C 0.36079 0.26362 0.37355 0.0
C1688 C 0.37167 0.26717 0.33382 0.0
C1689 C 0.35272 0.286 0.37317 0.0
C1690 C 0.35314 0.29854 0.35305 0.0
C1691 C 0.35915 0.29992 0.31206 0.0
C1692 C 0.36739 0.28986 0.2921 0.0
C1693 C 0.36148 0.2888 0.33301 0.0
C1694 C 0.37857 0.26896 0.29327 0.0
C1695 C 0.38047 0.25756 0.31392 0.0
H1696 H 0.71258 0.72607 0.60688 0.0
H1697 H 0.70781 0.68465 0.66688 0.0
H1698 H 0.66791 0.69466 0.67106 0.0
H1699 H 0.63523 0.71744 0.65945 0.0
H1700 H 0.64195 0.76424 0.60399 0.0
H1701 H 0.67961 0.74906 0.59529 0.0
C1702 C 0.70273 0.71923 0.6208 0.0
C1703 C 0.71315 0.70483 0.63666 0.0
C1704 C 0.67994 0.72564 0.62353 0.0
C1705 C 0.70026 0.69609 0.65467 0.0
C1706 C 0.67738 0.70161 0.65695 0.0
C1707 C 0.64474 0.72383 0.64508 0.0
C1708 C 0.63579 0.7416 0.63209 0.0
C1709 C 0.66712 0.71657 0.64164 0.0
C1710 C 0.64839 0.75019 0.61385 0.0
C1711 C 0.67005 0.7418 0.60918 0.0
H1712 H 0.71405 0.26821 0.38296 0.0
H1713 H 0.70559 0.31906 0.33116 0.0
H1714 H 0.66634 0.3078 0.32597 0.0
H1715 H 0.6345 0.28265 0.33535 0.0
H1716 H 0.64531 0.22619 0.37973 0.0
H1717 H 0.68297 0.24083 0.38973 0.0
C1718 C 0.70363 0.27665 0.3704 0.0
C1719 C 0.71267 0.29465 0.35767 0.0
C1720 C 0.68127 0.26932 0.36667 0.0
C1721 C 0.69905 0.30527 0.34129 0.0
C1722 C 0.67651 0.29892 0.33839 0.0
C1723 C 0.64514 0.27379 0.34727 0.0
C1724 C 0.63724 0.25372 0.357 0.0
C1725 C 0.66744 0.281 0.35099 0.0
C1726 C 0.65101 0.24201 0.3724 0.0
C1727 C 0.67262 0.25017 0.3778 0.0
H1728 H 0.76968 0.65806 0.37901 0.0
H1729 H 0.71003 0.62413 0.35407 0.0
H1730 H 0.68905 0.65985 0.3551 0.0
H1731 H 0.68946 0.70152 0.35812 0.0
H1732 H 0.74842 0.73523 0.38462 0.0
H1733 H 0.76837 0.69889 0.38711 0.0
C1734 C 0.75189 0.6584 0.37441 0.0
C1735 C 0.74146 0.63858 0.36627 0.0
C1736 C 0.74021 0.67907 0.37437 0.0
C1737 C 0.71839 0.63912 0.36054 0.0
C1738 C 0.70653 0.65963 0.36071 0.0
C1739 C 0.70668 0.70083 0.36436 0.0
C1740 C 0.7178 0.72093 0.3705 0.0
C1741 C 0.7176 0.67983 0.3666 0.0
C1742 C 0.73983 0.71992 0.3793 0.0
C1743 C 0.7511 0.69918 0.38091 0.0
H1744 H 0.30304 0.68961 0.36489 0.0
H1745 H 0.26697 0.7503 0.38297 0.0
H1746 H 0.30239 0.77195 0.382 0.0
H1747 H 0.34293 0.77388 0.373 0.0
H1748 H 0.37934 0.71308 0.35574 0.0
H1749 H 0.34471 0.69075 0.36064 0.0
C1750 C 0.30306 0.70756 0.36857 0.0
C1751 C 0.28255 0.7186 0.37338 0.0
C1752 C 0.32356 0.71962 0.36875 0.0
C1753 C 0.28262 0.7417 0.37878 0.0
C1754 C 0.30284 0.75396 0.37842 0.0
C1755 C 0.34344 0.7556 0.37123 0.0
C1756 C 0.36363 0.74507 0.36421 0.0
C1757 C 0.32336 0.74312 0.37324 0.0
C1758 C 0.36412 0.72146 0.36163 0.0
C1759 C 0.34419 0.7088 0.3639 0.0
H1760 H 0.26526 0.28053 0.39332 0.0
H1761 H 0.30744 0.29244 0.33472 0.0
H1762 H 0.29401 0.33137 0.33269 0.0
H1763 H 0.26983 0.36188 0.3472 0.0
H1764 H 0.22245 0.34826 0.40065 0.0
H1765 H 0.2392 0.31059 0.40622 0.0
C1766 C 0.27135 0.29158 0.37996 0.0
C1767 C 0.28747 0.28357 0.36428 0.0
C1768 C 0.26312 0.31385 0.37854 0.0
C1769 C 0.29502 0.29808 0.34698 0.0
C1770 C 0.28753 0.32045 0.34595 0.0
C1771 C 0.2635 0.35072 0.36021 0.0
C1772 C 0.24541 0.35784 0.37379 0.0
C1773 C 0.27171 0.32853 0.36171 0.0
C1774 C 0.23687 0.34326 0.39047 0.0
C1775 C 0.24614 0.32162 0.39331 0.0
H1776 H 0.33804 0.22628 0.63006 0.0
H1777 H 0.37592 0.28628 0.64721 0.0
H1778 H 0.34131 0.30893 0.6454 0.0
H1779 H 0.29942 0.31093 0.64268 0.0
H1780 H 0.26193 0.25095 0.62485 0.0
H1781 H 0.29701 0.22885 0.62401 0.0
C1782 C 0.33877 0.2444 0.633 0.0
C1783 C 0.3595 0.25451 0.63891 0.0
C1784 C 0.31871 0.25716 0.63261 0.0
C1785 C 0.36025 0.27805 0.6424 0.0
C1786 C 0.34038 0.29098 0.64171 0.0
C1787 C 0.29906 0.29297 0.63882 0.0
C1788 C 0.27822 0.28229 0.63447 0.0
C1789 C 0.31939 0.28056 0.63765 0.0
C1790 C 0.27782 0.25927 0.62872 0.0
C1791 C 0.29786 0.24672 0.62805 0.0
H1792 H 0.72199 0.28366 0.60397 0.0
H1793 H 0.69079 0.28533 0.67013 0.0
H1794 H 0.69841 0.32568 0.67306 0.0
H1795 H 0.71459 0.36031 0.65727 0.0
H1796 H 0.7564 0.35644 0.59798 0.0
H1797 H 0.74249 0.31788 0.59044 0.0
C1798 C 0.71702 0.29284 0.61909 0.0
C1799 C 0.70522 0.28157 0.63655 0.0
C1800 C 0.72266 0.31589 0.6213 0.0
C1801 C 0.69946 0.29361 0.65626 0.0
C1802 C 0.70369 0.31674 0.65791 0.0
C1803 C 0.72059 0.35096 0.64278 0.0
C1804 C 0.73625 0.3611 0.62821 0.0
C1805 C 0.71513 0.32804 0.64049 0.0
C1806 C 0.7438 0.34911 0.60912 0.0
C1807 C 0.73629 0.32692 0.60517 0.0
H1808 H 0.22458 0.66012 0.6323 0.0
H1809 H 0.28922 0.62661 0.62714 0.0
H1810 H 0.30735 0.66277 0.6179 0.0
H1811 H 0.30575 0.70464 0.61866 0.0
H1812 H 0.24206 0.73793 0.63122 0.0
H1813 H 0.22254 0.7013 0.63086 0.0
C1814 C 0.24259 0.66066 0.62869 0.0
C1815 C 0.25562 0.64083 0.63079 0.0
C1816 C 0.25308 0.68165 0.62543 0.0
C1817 C 0.27881 0.64163 0.62563 0.0
C1818 C 0.28923 0.66238 0.62074 0.0
C1819 C 0.28753 0.70376 0.62088 0.0
C1820 C 0.27518 0.72372 0.62491 0.0
C1821 C 0.27671 0.6826 0.62178 0.0
C1822 C 0.25173 0.72264 0.62814 0.0
C1823 C 0.24064 0.70177 0.62788 0.0
H1824 H 0.14223 0.35763 0.30203 0.0
H1825 H 0.18489 0.39805 0.25884 0.0
H1826 H 0.16503 0.38366 0.22536 0.0
H1827 H 0.14207 0.35295 0.20887 0.0
H1828 H 0.10013 0.31179 0.25208 0.0
H1829 H 0.11272 0.33338 0.28525 0.0
C1830 C 0.14644 0.364 0.2853 0.0
C1831 C 0.165 0.3787 0.28271 0.0
C1832 C 0.13535 0.35517 0.26624 0.0
C1833 C 0.17052 0.38688 0.26113 0.0
C1834 C 0.15937 0.37839 0.24201 0.0
C1835 C 0.13507 0.34934 0.22548 0.0
C1836 C 0.12045 0.33075 0.22825 0.0
C1837 C 0.14272 0.36154 0.24438 0.0
C1838 C 0.11134 0.32611 0.24967 0.0
C1839 C 0.11873 0.33829 0.26861 0.0
H1840 H 0.68896 0.12842 0.2745 0.0
H1841 H 0.64963 0.10777 0.21675 0.0
H1842 H 0.61711 0.12927 0.23079 0.0
H1843 H 0.6041 0.16174 0.25419 0.0
H1844 H 0.64445 0.18279 0.31124 0.0
H1845 H 0.67219 0.15335 0.30308 0.0
C1846 C 0.67282 0.12759 0.26574 0.0
C1847 C 0.67161 0.11666 0.24467 0.0
C1848 C 0.65463 0.1408 0.27342 0.0
C1849 C 0.6508 0.11588 0.23318 0.0
C1850 C 0.63236 0.12859 0.24097 0.0
C1851 C 0.61856 0.15925 0.26525 0.0
C1852 C 0.62265 0.17468 0.28289 0.0
C1853 C 0.63465 0.14235 0.26025 0.0
C1854 C 0.64134 0.17141 0.29721 0.0
C1855 C 0.65717 0.15453 0.29259 0.0
H1856 H 0.8492 0.65131 0.30467 0.0
H1857 H 0.81741 0.6049 0.25813 0.0
H1858 H 0.84171 0.61871 0.22745 0.0
H1859 H 0.86542 0.64975 0.2128 0.0
H1860 H 0.89609 0.69701 0.25912 0.0
H1861 H 0.8793 0.67679 0.29125 0.0
C1862 C 0.84814 0.64375 0.28794 0.0
C1863 C 0.83136 0.62744 0.28343 0.0
C1864 C 0.86183 0.65209 0.27042 0.0
C1865 C 0.83021 0.6175 0.26189 0.0
C1866 C 0.84395 0.62555 0.24435 0.0
C1867 C 0.8692 0.65494 0.23003 0.0
C1868 C 0.88186 0.67474 0.23379 0.0
C1869 C 0.85892 0.64365 0.24822 0.0
C1870 C 0.88658 0.68163 0.256 0.0
C1871 C 0.87671 0.67026 0.27429 0.0
H1872 H 0.37807 0.83906 0.2681 0.0
H1873 H 0.3377 0.77842 0.2617 0.0
H1874 H 0.31038 0.79835 0.23856 0.0
H1875 H 0.2976 0.83225 0.22037 0.0
H1876 H 0.33691 0.89359 0.22373 0.0
H1877 H 0.36474 0.87444 0.24833 0.0
C1878 C 0.36363 0.8302 0.261 0.0
C1879 C 0.36006 0.80721 0.26624 0.0
C1880 C 0.34759 0.84196 0.24766 0.0
C1881 C 0.34094 0.79602 0.2576 0.0
C1882 C 0.32516 0.80744 0.24458 0.0
C1883 C 0.31223 0.84156 0.22649 0.0
C1884 C 0.3153 0.86422 0.22017 0.0
C1885 C 0.32823 0.83034 0.23968 0.0
C1886 C 0.33411 0.87613 0.22856 0.0
C1887 C 0.35014 0.86508 0.24233 0.0
H1888 H 0.16071 0.6572 0.80401 0.0
H1889 H 0.11486 0.68669 0.75539 0.0
H1890 H 0.13265 0.66467 0.72506 0.0
H1891 H 0.16569 0.643 0.71184 0.0
H1892 H 0.21232 0.61453 0.76018 0.0
H1893 H 0.18952 0.62983 0.79142 0.0
C1894 C 0.15428 0.65839 0.78683 0.0
C1895 C 0.13681 0.67385 0.78178 0.0
C1896 C 0.16486 0.64601 0.76953 0.0
C1897 C 0.12832 0.67498 0.75962 0.0
C1898 C 0.13862 0.66252 0.74229 0.0
C1899 C 0.17038 0.63953 0.72929 0.0
C1900 C 0.19061 0.62783 0.73389 0.0
C1901 C 0.15753 0.64884 0.74694 0.0
C1902 C 0.19669 0.62335 0.75638 0.0
C1903 C 0.18381 0.63234 0.77415 0.0
H1904 H 0.35548 0.14696 0.7046 0.0
H1905 H 0.39174 0.1887 0.75223 0.0
H1906 H 0.37535 0.16728 0.78378 0.0
H1907 H 0.34434 0.14275 0.79715 0.0
H1908 H 0.30731 0.10174 0.7495 0.0
H1909 H 0.33062 0.11645 0.71841 0.0
C1910 C 0.36045 0.15073 0.7219 0.0
C1911 C 0.37457 0.16944 0.72624 0.0
C1912 C 0.35049 0.13874 0.73982 0.0
C1913 C 0.38101 0.17428 0.74858 0.0
C1914 C 0.37139 0.16222 0.76657 0.0
C1915 C 0.34199 0.13647 0.78003 0.0
C1916 C 0.32411 0.12141 0.7754 0.0
C1917 C 0.35517 0.14532 0.76235 0.0
C1918 C 0.32107 0.11325 0.75333 0.0
C1919 C 0.33425 0.12184 0.73559 0.0
H1920 H 0.79721 0.36496 0.74619 0.0
H1921 H 0.84445 0.38101 0.69313 0.0
H1922 H 0.87431 0.35994 0.71283 0.0
H1923 H 0.88396 0.33001 0.74091 0.0
H1924 H 0.83522 0.3134 0.79268 0.0
H1925 H 0.80922 0.34162 0.77811 0.0
C1926 C 0.81438 0.36477 0.7396 0.0
C1927 C 0.81879 0.37459 0.71847 0.0
C1928 C 0.83104 0.35186 0.75051 0.0
C1929 C 0.84087 0.37389 0.70967 0.0
C1930 C 0.85781 0.36148 0.72073 0.0
C1931 C 0.86792 0.33311 0.74931 0.0
C1932 C 0.86124 0.31917 0.76744 0.0
C1933 C 0.8527 0.3493 0.74052 0.0
C1934 C 0.84047 0.32337 0.77828 0.0
C1935 C 0.82558 0.33964 0.77003 0.0
H1936 H 0.68262 0.88405 0.75348 0.0
H1937 H 0.66 0.83948 0.80668 0.0
H1938 H 0.63265 0.82205 0.78114 0.0
H1939 H 0.62074 0.81444 0.74213 0.0
H1940 H 0.64616 0.85614 0.688 0.0
H1941 H 0.66612 0.88011 0.71524 0.0
C1942 C 0.67122 0.87099 0.75954 0.0
C1943 C 0.67349 0.8628 0.78174 0.0
C1944 C 0.65605 0.8604 0.74448 0.0
C1945 C 0.65874 0.84578 0.78948 0.0
C1946 C 0.64309 0.8358 0.77491 0.0
C1947 C 0.62984 0.82937 0.73647 0.0
C1948 C 0.63199 0.83362 0.71323 0.0
C1949 C 0.64233 0.84224 0.75211 0.0
C1950 C 0.64424 0.85268 0.70593 0.0
C1951 C 0.65587 0.86622 0.72147 0.0
H1952 H 0.25225 0.18372 0.38341 0.0
H1953 H 0.30935 0.15236 0.35057 0.0
H1954 H 0.28417 0.12705 0.32975 0.0
H1955 H 0.24581 0.11974 0.31499 0.0
H1956 H 0.18889 0.15351 0.34563 0.0
H1957 H 0.21374 0.17147 0.37335 0.0
C1958 C 0.25913 0.17073 0.37238 0.0
C1959 C 0.2825 0.16996 0.36835 0.0
C1960 C 0.24446 0.15687 0.35969 0.0
C1961 C 0.2913 0.15328 0.35378 0.0
C1962 C 0.27692 0.13891 0.34175 0.0
C1963 C 0.23887 0.13033 0.32831 0.0
C1964 C 0.2157 0.13543 0.32831 0.0
C1965 C 0.25342 0.14138 0.34364 0.0
C1966 C 0.20679 0.14945 0.34537 0.0
C1967 C 0.22099 0.15984 0.36113 0.0
H1968 H 0.85524 0.20834 0.34077 0.0
H1969 H 0.88611 0.25539 0.29435 0.0
H1970 H 0.86939 0.28718 0.31531 0.0
H1971 H 0.84086 0.30055 0.34267 0.0
H1972 H 0.80961 0.25322 0.38871 0.0
H1973 H 0.83202 0.22241 0.37237 0.0
C1974 C 0.85879 0.22563 0.33568 0.0
C1975 C 0.87164 0.22969 0.31602 0.0
C1976 C 0.84886 0.24361 0.34756 0.0
C1977 C 0.87634 0.252 0.30951 0.0
C1978 C 0.8666 0.27009 0.32136 0.0
C1979 C 0.83934 0.28355 0.34945 0.0
C1980 C 0.82333 0.27902 0.36658 0.0
C1981 C 0.85204 0.26597 0.33978 0.0
C1982 C 0.82176 0.25708 0.37551 0.0
C1983 C 0.83444 0.23946 0.36604 0.0
H1984 H 0.76319 0.88265 0.31167 0.0
H1985 H 0.81799 0.84718 0.34426 0.0
H1986 H 0.79164 0.82996 0.37099 0.0
H1987 H 0.75244 0.81902 0.37984 0.0
H1988 H 0.69749 0.85189 0.34502 0.0
H1989 H 0.72413 0.87637 0.32498 0.0
C1990 C 0.76935 0.87177 0.32513 0.0
C1991 C 0.79236 0.86595 0.32587 0.0
C1992 C 0.75395 0.86119 0.33994 0.0
C1993 C 0.80022 0.85167 0.34325 0.0
C1994 C 0.78517 0.84175 0.3585 0.0
C1995 C 0.74637 0.83219 0.36857 0.0
C1996 C 0.72317 0.83375 0.36386 0.0
C1997 C 0.76188 0.84548 0.35629 0.0
C1998 C 0.71538 0.85052 0.34888 0.0
C1999 C 0.73061 0.86437 0.33727 0.0
H2000 H 0.15507 0.70711 0.34774 0.0
H2001 H 0.18847 0.75438 0.39224 0.0
H2002 H 0.16718 0.78566 0.37528 0.0
H2003 H 0.14448 0.79978 0.34323 0.0
H2004 H 0.11064 0.75258 0.29907 0.0
H2005 H 0.12628 0.72081 0.32075 0.0
C2006 C 0.15718 0.72421 0.3541 0.0
C2007 C 0.17348 0.72861 0.37093 0.0
C2008 C 0.14495 0.74202 0.34423 0.0
C2009 C 0.17599 0.75068 0.3793 0.0
C2010 C 0.16396 0.76855 0.36948 0.0
C2011 C 0.13993 0.78251 0.33891 0.0
C2012 C 0.12661 0.77835 0.31962 0.0
C2013 C 0.14916 0.76448 0.35129 0.0
C2014 C 0.12074 0.75605 0.314 0.0
C2015 C 0.12989 0.73795 0.32623 0.0
H2016 H 0.2892 0.85863 0.64031 0.0
H2017 H 0.24483 0.81524 0.60204 0.0
H2018 H 0.21209 0.83753 0.61428 0.0
H2019 H 0.19628 0.86204 0.64405 0.0
H2020 H 0.24073 0.90385 0.68409 0.0
H2021 H 0.27335 0.89015 0.66254 0.0
C2022 C 0.27245 0.85486 0.63375 0.0
C2023 C 0.26923 0.83535 0.62047 0.0
C2024 C 0.25374 0.8672 0.64162 0.0
C2025 C 0.2476 0.83032 0.61212 0.0
C2026 C 0.22888 0.84287 0.61943 0.0
C2027 C 0.21303 0.86885 0.64735 0.0
C2028 C 0.21627 0.88355 0.66585 0.0
C2029 C 0.23169 0.86029 0.63541 0.0
C2030 C 0.23789 0.89251 0.66995 0.0
C2031 C 0.25656 0.88443 0.6578 0.0
H2032 H 0.1849 0.24235 0.62398 0.0
H2033 H 0.14533 0.29799 0.64948 0.0
H2034 H 0.12029 0.2718 0.66944 0.0
H2035 H 0.11472 0.23379 0.68582 0.0
H2036 H 0.15656 0.17872 0.6626 0.0
H2037 H 0.17522 0.20355 0.63543 0.0
C2038 C 0.17022 0.24855 0.63313 0.0
C2039 C 0.16683 0.2719 0.6353 0.0
C2040 C 0.15653 0.23344 0.64543 0.0
C2041 C 0.14809 0.27995 0.64758 0.0
C2042 C 0.13391 0.26501 0.65917 0.0
C2043 C 0.12738 0.22717 0.67426 0.0
C2044 C 0.13449 0.20464 0.67633 0.0
C2045 C 0.13868 0.24179 0.65918 0.0
C2046 C 0.15104 0.19617 0.66142 0.0
C2047 C 0.16178 0.21036 0.64592 0.0
H2048 H 0.79911 0.14764 0.65826 0.0
H2049 H 0.75322 0.10251 0.69266 0.0
H2050 H 0.72164 0.11707 0.66999 0.0
H2051 H 0.70656 0.14763 0.64592 0.0
H2052 H 0.75242 0.19285 0.61165 0.0
H2053 H 0.7848 0.1729 0.62827 0.0
C2054 C 0.78226 0.14058 0.6603 0.0
C2055 C 0.77829 0.12431 0.67726 0.0
C2056 C 0.76429 0.14917 0.64736 0.0
C2057 C 0.75658 0.11504 0.67969 0.0
C2058 C 0.73854 0.1235 0.66686 0.0
C2059 C 0.72371 0.15254 0.64148 0.0
C2060 C 0.72725 0.1717 0.62777 0.0
C2061 C 0.74209 0.14126 0.65142 0.0
C2062 C 0.74939 0.17803 0.62203 0.0
C2063 C 0.76785 0.16681 0.63177 0.0
H2064 H 0.84909 0.71454 0.63894 0.0
H2065 H 0.80096 0.76126 0.61036 0.0
H2066 H 0.82304 0.79321 0.62512 0.0
H2067 H 0.85087 0.80663 0.65305 0.0
H2068 H 0.89762 0.75955 0.68351 0.0
H2069 H 0.88168 0.72882 0.66063 0.0
C2070 C 0.844 0.7318 0.63521 0.0
C2071 C 0.82348 0.73574 0.62374 0.0
C2072 C 0.85633 0.74986 0.64442 0.0
C2073 C 0.81681 0.75797 0.61899 0.0
C2074 C 0.82929 0.77616 0.62769 0.0
C2075 C 0.858 0.78974 0.65416 0.0
C2076 C 0.87507 0.78517 0.67022 0.0
C2077 C 0.84831 0.77217 0.64148 0.0
C2078 C 0.88446 0.7634 0.67132 0.0
C2079 C 0.87518 0.74583 0.65841 0.0
H2080 H 0.31601 0.24941 0.12015 0.0
H2081 H 0.34771 0.19196 0.15192 0.0
H2082 H 0.37265 0.2169 0.17343 0.0
H2083 H 0.37912 0.25495 0.18939 0.0
H2084 H 0.34536 0.31218 0.15945 0.0
H2085 H 0.32807 0.2878 0.1309 0.0
C2086 C 0.32905 0.24242 0.13104 0.0
C2087 C 0.32993 0.219 0.13464 0.0
C2088 C 0.34274 0.25694 0.1441 0.0
C2089 C 0.34669 0.21005 0.14903 0.0
C2090 C 0.36084 0.2243 0.16148 0.0
C2091 C 0.36873 0.26209 0.17602 0.0
C2092 C 0.36338 0.28518 0.17648 0.0
C2093 C 0.35812 0.24779 0.16014 0.0
C2094 C 0.34962 0.29433 0.15934 0.0
C2095 C 0.3396 0.2804 0.14311 0.0
H2096 H 0.3569 0.68976 0.85368 0.0
H2097 H 0.4012 0.73856 0.82223 0.0
H2098 H 0.38324 0.76897 0.84389 0.0
H2099 H 0.34927 0.78205 0.86429 0.0
H2100 H 0.30346 0.73346 0.8935 0.0
H2101 H 0.32783 0.70244 0.88059 0.0
C2102 C 0.3631 0.70698 0.85212 0.0
C2103 C 0.38001 0.71203 0.83604 0.0
C2104 C 0.35217 0.72439 0.86403 0.0
C2105 C 0.38816 0.73428 0.83441 0.0
C2106 C 0.37771 0.7517 0.84662 0.0
C2107 C 0.34525 0.76466 0.86867 0.0
C2108 C 0.32477 0.75986 0.87984 0.0
C2109 C 0.35888 0.74705 0.86042 0.0
C2110 C 0.31933 0.73742 0.88519 0.0
C2111 C 0.33312 0.71974 0.87753 0.0
H2112 H 0.2416 0.31795 0.87776 0.0
H2113 H 0.18399 0.33888 0.8381 0.0
H2114 H 0.20755 0.36505 0.81668 0.0
H2115 H 0.24576 0.37593 0.80403 0.0
H2116 H 0.30363 0.35379 0.84238 0.0
H2117 H 0.279 0.33477 0.86964 0.0
C2118 C 0.23413 0.32883 0.86498 0.0
C2119 C 0.21124 0.32618 0.85923 0.0
C2120 C 0.24796 0.34352 0.85222 0.0
C2121 C 0.20174 0.34035 0.84256 0.0
C2122 C 0.21519 0.3553 0.83023 0.0
C2123 C 0.2528 0.36778 0.81892 0.0
C2124 C 0.27632 0.36627 0.82135 0.0
C2125 C 0.23853 0.35619 0.83411 0.0
C2126 C 0.28544 0.35525 0.84039 0.0
C2127 C 0.27139 0.34417 0.85584 0.0
H2128 H 0.62504 0.25638 0.81953 0.0
H2129 H 0.67461 0.30839 0.83288 0.0
H2130 H 0.69374 0.28399 0.85991 0.0
H2131 H 0.70013 0.2459 0.87497 0.0
H2132 H 0.65281 0.19275 0.85944 0.0
H2133 H 0.62877 0.21945 0.83881 0.0
C2134 C 0.63975 0.26246 0.82871 0.0
C2135 C 0.64865 0.28394 0.82382 0.0
C2136 C 0.65111 0.24807 0.84397 0.0
C2137 C 0.6677 0.29168 0.83592 0.0
C2138 C 0.67864 0.27778 0.8515 0.0
C2139 C 0.68405 0.2405 0.86789 0.0
C2140 C 0.67797 0.21764 0.8689 0.0
C2141 C 0.67102 0.25567 0.85504 0.0
C2142 C 0.65752 0.21047 0.85909 0.0
C2143 C 0.64396 0.22565 0.84704 0.0
H2144 H 0.7052 0.63964 0.84341 0.0
H2145 H 0.75509 0.60295 0.80477 0.0
H2146 H 0.78535 0.62559 0.82202 0.0
H2147 H 0.79681 0.6587 0.84469 0.0
H2148 H 0.7472 0.69451 0.88446 0.0
H2149 H 0.71743 0.66899 0.87057 0.0
C2150 C 0.72278 0.63637 0.83914 0.0
C2151 C 0.72805 0.61987 0.82279 0.0
C2152 C 0.73996 0.64927 0.84929 0.0
C2153 C 0.75076 0.61553 0.8174 0.0
C2154 C 0.76798 0.62855 0.82716 0.0
C2155 C 0.77953 0.6605 0.8507 0.0
C2156 C 0.77401 0.67838 0.86545 0.0
C2157 C 0.76269 0.64584 0.84265 0.0
C2158 C 0.75173 0.6807 0.87325 0.0
C2159 C 0.73475 0.66627 0.86514 0.0
H2160 H 0.65356 0.79464 0.13883 0.0
H2161 H 0.6949 0.74601 0.10353 0.0
H2162 H 0.67316 0.715 0.12042 0.0
H2163 H 0.64882 0.70251 0.15195 0.0
H2164 H 0.60811 0.75118 0.18796 0.0
H2165 H 0.6228 0.78156 0.16381 0.0
C2166 C 0.65707 0.77724 0.13408 0.0
C2167 C 0.67581 0.77246 0.12015 0.0
C2168 C 0.64494 0.75962 0.14438 0.0
C2169 C 0.68042 0.74999 0.11407 0.0
C2170 C 0.6682 0.7323 0.12402 0.0
C2171 C 0.6426 0.71968 0.15391 0.0
C2172 C 0.6277 0.72481 0.17179 0.0
C2173 C 0.65139 0.73697 0.14021 0.0
C2174 C 0.61956 0.74695 0.17425 0.0
C2175 C 0.62812 0.7643 0.16058 0.0
H2176 H 0.27878 0.67219 0.21096 0.0
H2177 H 0.28206 0.61503 0.16572 0.0
H2178 H 0.26323 0.63747 0.13596 0.0
H2179 H 0.24901 0.675 0.12209 0.0
H2180 H 0.24994 0.73185 0.16833 0.0
H2181 H 0.26449 0.70797 0.19814 0.0
C2182 C 0.27521 0.66447 0.19464 0.0
C2183 C 0.28196 0.64209 0.19045 0.0
C2184 C 0.26556 0.67764 0.17761 0.0
C2185 C 0.27688 0.63223 0.16939 0.0
C2186 C 0.26643 0.64517 0.15231 0.0
C2187 C 0.25248 0.6821 0.13867 0.0
C2188 C 0.24832 0.70527 0.14286 0.0
C2189 C 0.26129 0.66818 0.15603 0.0
C2190 C 0.25288 0.71415 0.1645 0.0
C2191 C 0.26115 0.70049 0.18169 0.0
H2192 H 0.70739 0.35146 0.1589 0.0
H2193 H 0.75462 0.39226 0.1967 0.0
H2194 H 0.78615 0.37631 0.1748 0.0
H2195 H 0.8002 0.34597 0.1498 0.0
H2196 H 0.75279 0.30522 0.11203 0.0
H2197 H 0.72121 0.32635 0.12859 0.0
C2198 C 0.72456 0.35729 0.16185 0.0
C2199 C 0.72887 0.37277 0.17945 0.0
C2200 C 0.74246 0.34792 0.14935 0.0
C2201 C 0.75102 0.38041 0.18315 0.0
C2202 C 0.769 0.37114 0.17078 0.0
C2203 C 0.78296 0.34216 0.14473 0.0
C2204 C 0.77874 0.32387 0.12999 0.0
C2205 C 0.76495 0.35418 0.15455 0.0
C2206 C 0.75642 0.31923 0.12331 0.0
C2207 C 0.73837 0.33115 0.13296 0.0
loop_
_geom_bond_atom_site_label_1
_geom_bond_atom_site_label_2
_geom_bond_distance
_geom_bond_site_symmetry_2
_ccdc_geom_bond_type
Mg0 O1 2.028 . S
Mg0 O7 1.986 . S
Mg0 O9 2.114 . S
Mg0 O10 2.251 . S
Mg0 O13 2.010 . S
O1 Mg0 2.028 . S
O1 C4 1.250 . S
O2 Mg3 2.028 . S
O2 C4 1.248 . S
Mg3 O2 2.028 . S
Mg3 O8 2.032 . S
Mg3 O10 2.079 . S
C4 O1 1.250 . S
C4 O2 1.248 . S
C5 O6 1.264 . S
C5 O13 1.249 . S
O6 C5 1.264 . S
O7 Mg0 1.986 . S
O7 C11 1.246 . S
O8 Mg3 2.032 . S
O8 C11 1.259 . S
O9 Mg0 2.114 . S
O9 C12 1.252 . S
O10 Mg0 2.251 . S
O10 Mg3 2.079 . S
O10 C12 1.273 . S
C11 O7 1.246 . S
C11 O8 1.259 . S
C12 O9 1.252 . S
C12 O10 1.273 . S
O13 Mg0 2.010 . S
O13 C5 1.249 . S
Mg14 O15 2.028 . S
Mg14 O21 1.986 . S
Mg14 O23 2.114 . S
Mg14 O24 2.251 . S
Mg14 O27 2.010 . S
O15 Mg14 2.028 . S
O15 C18 1.250 . S
O16 Mg17 2.028 . S
O16 C18 1.248 . S
Mg17 O16 2.028 . S
Mg17 O22 2.032 . S
Mg17 O24 2.079 . S
C18 O15 1.250 . S
C18 O16 1.248 . S
C19 O20 1.264 . S
C19 O27 1.249 . S
O20 C19 1.264 . S
O21 Mg14 1.986 . S
O21 C25 1.246 . S
O22 Mg17 2.032 . S
O22 C25 1.259 . S
O23 Mg14 2.114 . S
O23 C26 1.252 . S
O24 Mg14 2.251 . S
O24 Mg17 2.079 . S
O24 C26 1.273 . S
C25 O21 1.246 . S
C25 O22 1.259 . S
C26 O23 1.252 . S
C26 O24 1.273 . S
O27 Mg14 2.010 . S
O27 C19 1.249 . S
Mg28 O29 2.028 . S
Mg28 O35 1.986 . S
Mg28 O37 2.114 . S
Mg28 O38 2.251 . S
Mg28 O41 2.010 . S
O29 Mg28 2.028 . S
O29 C32 1.250 . S
O30 Mg31 2.028 . S
O30 C32 1.248 . S
Mg31 O30 2.028 . S
Mg31 O36 2.032 . S
Mg31 O38 2.079 . S
C32 O29 1.250 . S
C32 O30 1.248 . S
C33 O34 1.264 . S
C33 O41 1.249 . S
O34 C33 1.264 . S
O35 Mg28 1.986 . S
O35 C39 1.246 . S
O36 Mg31 2.032 . S
O36 C39 1.259 . S
O37 Mg28 2.114 . S
O37 C40 1.252 . S
O38 Mg28 2.251 . S
O38 Mg31 2.079 . S
O38 C40 1.273 . S
C39 O35 1.246 . S
C39 O36 1.259 . S
C40 O37 1.252 . S
C40 O38 1.273 . S
O41 Mg28 2.010 . S
O41 C33 1.249 . S
Mg42 O43 2.028 . S
Mg42 O49 1.986 . S
Mg42 O51 2.114 . S
Mg42 O52 2.251 . S
Mg42 O55 2.010 . S
O43 Mg42 2.028 . S
O43 C46 1.250 . S
O44 Mg45 2.028 . S
O44 C46 1.248 . S
Mg45 O44 2.028 . S
Mg45 O50 2.032 . S
Mg45 O52 2.079 . S
C46 O43 1.250 . S
C46 O44 1.248 . S
C47 O48 1.264 . S
C47 O55 1.249 . S
O48 C47 1.264 . S
O49 Mg42 1.986 . S
O49 C53 1.246 . S
O50 Mg45 2.032 . S
O50 C53 1.259 . S
O51 Mg42 2.114 . S
O51 C54 1.252 . S
O52 Mg42 2.251 . S
O52 Mg45 2.079 . S
O52 C54 1.273 . S
C53 O49 1.246 . S
C53 O50 1.259 . S
C54 O51 1.252 . S
C54 O52 1.273 . S
O55 Mg42 2.010 . S
O55 C47 1.249 . S
Mg56 O57 2.028 . S
Mg56 O63 1.986 . S
Mg56 O65 2.114 . S
Mg56 O66 2.251 . S
Mg56 O69 2.010 . S
O57 Mg56 2.028 . S
O57 C60 1.250 . S
O58 Mg59 2.028 . S
O58 C60 1.248 . S
Mg59 O58 2.028 . S
Mg59 O64 2.032 . S
Mg59 O66 2.079 . S
C60 O57 1.250 . S
C60 O58 1.248 . S
C61 O62 1.264 . S
C61 O69 1.249 . S
O62 C61 1.264 . S
O63 Mg56 1.986 . S
O63 C67 1.246 . S
O64 Mg59 2.032 . S
O64 C67 1.259 . S
O65 Mg56 2.114 . S
O65 C68 1.252 . S
O66 Mg56 2.251 . S
O66 Mg59 2.079 . S
O66 C68 1.273 . S
C67 O63 1.246 . S
C67 O64 1.259 . S
C68 O65 1.252 . S
C68 O66 1.273 . S
O69 Mg56 2.010 . S
O69 C61 1.249 . S
Mg70 O71 2.028 . S
Mg70 O77 1.986 . S
Mg70 O79 2.114 . S
Mg70 O80 2.251 . S
Mg70 O83 2.010 . S
O71 Mg70 2.028 . S
O71 C74 1.250 . S
O72 Mg73 2.028 . S
O72 C74 1.248 . S
Mg73 O72 2.028 . S
Mg73 O78 2.032 . S
Mg73 O80 2.079 . S
C74 O71 1.250 . S
C74 O72 1.248 . S
C75 O76 1.264 . S
C75 O83 1.249 . S
O76 C75 1.264 . S
O77 Mg70 1.986 . S
O77 C81 1.246 . S
O78 Mg73 2.032 . S
O78 C81 1.259 . S
O79 Mg70 2.114 . S
O79 C82 1.252 . S
O80 Mg70 2.251 . S
O80 Mg73 2.079 . S
O80 C82 1.273 . S
C81 O77 1.246 . S
C81 O78 1.259 . S
C82 O79 1.252 . S
C82 O80 1.273 . S
O83 Mg70 2.010 . S
O83 C75 1.249 . S
Mg84 O85 2.028 . S
Mg84 O91 1.986 . S
Mg84 O93 2.114 . S
Mg84 O94 2.251 . S
Mg84 O97 2.010 . S
O85 Mg84 2.028 . S
O85 C88 1.250 . S
O86 Mg87 2.028 . S
O86 C88 1.248 . S
Mg87 O86 2.028 . S
Mg87 O92 2.032 . S
Mg87 O94 2.079 . S
C88 O85 1.250 . S
C88 O86 1.248 . S
C89 O90 1.264 . S
C89 O97 1.249 . S
O90 C89 1.264 . S
O91 Mg84 1.986 . S
O91 C95 1.246 . S
O92 Mg87 2.032 . S
O92 C95 1.259 . S
O93 Mg84 2.114 . S
O93 C96 1.252 . S
O94 Mg84 2.251 . S
O94 Mg87 2.079 . S
O94 C96 1.273 . S
C95 O91 1.246 . S
C95 O92 1.259 . S
C96 O93 1.252 . S
C96 O94 1.273 . S
O97 Mg84 2.010 . S
O97 C89 1.249 . S
Mg98 O99 2.028 . S
Mg98 O105 1.986 . S
Mg98 O107 2.114 . S
Mg98 O108 2.251 . S
Mg98 O111 2.010 . S
O99 Mg98 2.028 . S
O99 C102 1.250 . S
O100 Mg101 2.028 . S
O100 C102 1.248 . S
Mg101 O100 2.028 . S
Mg101 O106 2.032 . S
Mg101 O108 2.079 . S
C102 O99 1.250 . S
C102 O100 1.248 . S
C103 O104 1.264 . S
C103 O111 1.249 . S
O104 C103 1.264 . S
O105 Mg98 1.986 . S
O105 C109 1.246 . S
O106 Mg101 2.032 . S
O106 C109 1.259 . S
O107 Mg98 2.114 . S
O107 C110 1.252 . S
O108 Mg98 2.251 . S
O108 Mg101 2.079 . S
O108 C110 1.273 . S
C109 O105 1.246 . S
C109 O106 1.259 . S
C110 O107 1.252 . S
C110 O108 1.273 . S
O111 Mg98 2.010 . S
O111 C103 1.249 . S
Mg112 O113 2.028 . S
Mg112 O119 1.986 . S
Mg112 O121 2.114 . S
Mg112 O122 2.251 . S
Mg112 O125 2.010 . S
O113 Mg112 2.028 . S
O113 C116 1.250 . S
O114 Mg115 2.028 . S
O114 C116 1.248 . S
Mg115 O114 2.028 . S
Mg115 O120 2.032 . S
Mg115 O122 2.079 . S
C116 O113 1.250 . S
C116 O114 1.248 . S
C117 O118 1.264 . S
C117 O125 1.249 . S
O118 C117 1.264 . S
O119 Mg112 1.986 . S
O119 C123 1.246 . S
O120 Mg115 2.032 . S
O120 C123 1.259 . S
O121 Mg112 2.114 . S
O121 C124 1.252 . S
O122 Mg112 2.251 . S
O122 Mg115 2.079 . S
O122 C124 1.273 . S
C123 O119 1.246 . S
C123 O120 1.259 . S
C124 O121 1.252 . S
C124 O122 1.273 . S
O125 Mg112 2.010 . S
O125 C117 1.249 . S
Mg126 O127 2.028 . S
Mg126 O133 1.986 . S
Mg126 O135 2.114 . S
Mg126 O136 2.251 . S
Mg126 O139 2.010 . S
O127 Mg126 2.028 . S
O127 C130 1.250 . S
O128 Mg129 2.028 . S
O128 C130 1.248 . S
Mg129 O128 2.028 . S
Mg129 O134 2.032 . S
Mg129 O136 2.079 . S
C130 O127 1.250 . S
C130 O128 1.248 . S
C131 O132 1.264 . S
C131 O139 1.249 . S
O132 C131 1.264 . S
O133 Mg126 1.986 . S
O133 C137 1.246 . S
O134 Mg129 2.032 . S
O134 C137 1.259 . S
O135 Mg126 2.114 . S
O135 C138 1.252 . S
O136 Mg126 2.251 . S
O136 Mg129 2.079 . S
O136 C138 1.273 . S
C137 O133 1.246 . S
C137 O134 1.259 . S
C138 O135 1.252 . S
C138 O136 1.273 . S
O139 Mg126 2.010 . S
O139 C131 1.249 . S
Mg140 O141 2.028 . S
Mg140 O147 1.986 . S
Mg140 O149 2.114 . S
Mg140 O150 2.251 . S
Mg140 O153 2.010 . S
O141 Mg140 2.028 . S
O141 C144 1.250 . S
O142 Mg143 2.028 . S
O142 C144 1.248 . S
Mg143 O142 2.028 . S
Mg143 O148 2.032 . S
Mg143 O150 2.079 . S
C144 O141 1.250 . S
C144 O142 1.248 . S
C145 O146 1.264 . S
C145 O153 1.249 . S
O146 C145 1.264 . S
O147 Mg140 1.986 . S
O147 C151 1.246 . S
O148 Mg143 2.032 . S
O148 C151 1.259 . S
O149 Mg140 2.114 . S
O149 C152 1.252 . S
O150 Mg140 2.251 . S
O150 Mg143 2.079 . S
O150 C152 1.273 . S
C151 O147 1.246 . S
C151 O148 1.259 . S
C152 O149 1.252 . S
C152 O150 1.273 . S
O153 Mg140 2.010 . S
O153 C145 1.249 . S
Mg154 O155 2.028 . S
Mg154 O161 1.986 . S
Mg154 O163 2.114 . S
Mg154 O164 2.251 . S
Mg154 O167 2.010 . S
O155 Mg154 2.028 . S
O155 C158 1.250 . S
O156 Mg157 2.028 . S
O156 C158 1.248 . S
Mg157 O156 2.028 . S
Mg157 O162 2.032 . S
Mg157 O164 2.079 . S
C158 O155 1.250 . S
C158 O156 1.248 . S
C159 O160 1.264 . S
C159 O167 1.249 . S
O160 C159 1.264 . S
O161 Mg154 1.986 . S
O161 C165 1.246 . S
O162 Mg157 2.032 . S
O162 C165 1.259 . S
O163 Mg154 2.114 . S
O163 C166 1.252 . S
O164 Mg154 2.251 . S
O164 Mg157 2.079 . S
O164 C166 1.273 . S
C165 O161 1.246 . S
C165 O162 1.259 . S
C166 O163 1.252 . S
C166 O164 1.273 . S
O167 Mg154 2.010 . S
O167 C159 1.249 . S
Mg168 O169 2.028 . S
Mg168 O175 1.986 . S
Mg168 O177 2.114 . S
Mg168 O178 2.251 . S
Mg168 O181 2.010 . S
O169 Mg168 2.028 . S
O169 C172 1.250 . S
O170 Mg171 2.028 . S
O170 C172 1.248 . S
Mg171 O170 2.028 . S
Mg171 O176 2.032 . S
Mg171 O178 2.079 . S
C172 O169 1.250 . S
C172 O170 1.248 . S
C173 O174 1.264 . S
C173 O181 1.249 . S
O174 C173 1.264 . S
O175 Mg168 1.986 . S
O175 C179 1.246 . S
O176 Mg171 2.032 . S
O176 C179 1.259 . S
O177 Mg168 2.114 . S
O177 C180 1.252 . S
O178 Mg168 2.251 . S
O178 Mg171 2.079 . S
O178 C180 1.273 . S
C179 O175 1.246 . S
C179 O176 1.259 . S
C180 O177 1.252 . S
C180 O178 1.273 . S
O181 Mg168 2.010 . S
O181 C173 1.249 . S
Mg182 O183 2.028 . S
Mg182 O189 1.986 . S
Mg182 O191 2.114 . S
Mg182 O192 2.251 . S
Mg182 O195 2.010 . S
O183 Mg182 2.028 . S
O183 C186 1.250 . S
O184 Mg185 2.028 . S
O184 C186 1.248 . S
Mg185 O184 2.028 . S
Mg185 O190 2.032 . S
Mg185 O192 2.079 . S
C186 O183 1.250 . S
C186 O184 1.248 . S
C187 O188 1.264 . S
C187 O195 1.249 . S
O188 C187 1.264 . S
O189 Mg182 1.986 . S
O189 C193 1.246 . S
O190 Mg185 2.032 . S
O190 C193 1.259 . S
O191 Mg182 2.114 . S
O191 C194 1.252 . S
O192 Mg182 2.251 . S
O192 Mg185 2.079 . S
O192 C194 1.273 . S
C193 O189 1.246 . S
C193 O190 1.259 . S
C194 O191 1.252 . S
C194 O192 1.273 . S
O195 Mg182 2.010 . S
O195 C187 1.249 . S
Mg196 O197 2.028 . S
Mg196 O203 1.986 . S
Mg196 O205 2.114 . S
Mg196 O206 2.251 . S
Mg196 O209 2.010 . S
O197 Mg196 2.028 . S
O197 C200 1.250 . S
O198 Mg199 2.028 . S
O198 C200 1.248 . S
Mg199 O198 2.028 . S
Mg199 O204 2.032 . S
Mg199 O206 2.079 . S
C200 O197 1.250 . S
C200 O198 1.248 . S
C201 O202 1.264 . S
C201 O209 1.249 . S
O202 C201 1.264 . S
O203 Mg196 1.986 . S
O203 C207 1.246 . S
O204 Mg199 2.032 . S
O204 C207 1.259 . S
O205 Mg196 2.114 . S
O205 C208 1.252 . S
O206 Mg196 2.251 . S
O206 Mg199 2.079 . S
O206 C208 1.273 . S
C207 O203 1.246 . S
C207 O204 1.259 . S
C208 O205 1.252 . S
C208 O206 1.273 . S
O209 Mg196 2.010 . S
O209 C201 1.249 . S
Mg210 O211 2.028 . S
Mg210 O217 1.986 . S
Mg210 O219 2.114 . S
Mg210 O220 2.251 . S
Mg210 O223 2.010 . S
O211 Mg210 2.028 . S
O211 C214 1.250 . S
O212 Mg213 2.028 . S
O212 C214 1.248 . S
Mg213 O212 2.028 . S
Mg213 O218 2.032 . S
Mg213 O220 2.079 . S
C214 O211 1.250 . S
C214 O212 1.248 . S
C215 O216 1.264 . S
C215 O223 1.249 . S
O216 C215 1.264 . S
O217 Mg210 1.986 . S
O217 C221 1.246 . S
O218 Mg213 2.032 . S
O218 C221 1.259 . S
O219 Mg210 2.114 . S
O219 C222 1.252 . S
O220 Mg210 2.251 . S
O220 Mg213 2.079 . S
O220 C222 1.273 . S
C221 O217 1.246 . S
C221 O218 1.259 . S
C222 O219 1.252 . S
C222 O220 1.273 . S
O223 Mg210 2.010 . S
O223 C215 1.249 . S
Mg224 O225 2.028 . S
Mg224 O231 1.986 . S
Mg224 O233 2.114 . S
Mg224 O234 2.251 . S
Mg224 O237 2.010 . S
O225 Mg224 2.028 . S
O225 C228 1.250 . S
O226 Mg227 2.028 . S
O226 C228 1.248 . S
Mg227 O226 2.028 . S
Mg227 O232 2.032 . S
Mg227 O234 2.079 . S
C228 O225 1.250 . S
C228 O226 1.248 . S
C229 O230 1.264 . S
C229 O237 1.249 . S
O230 C229 1.264 . S
O231 Mg224 1.986 . S
O231 C235 1.246 . S
O232 Mg227 2.032 . S
O232 C235 1.259 . S
O233 Mg224 2.114 . S
O233 C236 1.252 . S
O234 Mg224 2.251 . S
O234 Mg227 2.079 . S
O234 C236 1.273 . S
C235 O231 1.246 . S
C235 O232 1.259 . S
C236 O233 1.252 . S
C236 O234 1.273 . S
O237 Mg224 2.010 . S
O237 C229 1.249 . S
Mg238 O239 2.028 . S
Mg238 O245 1.986 . S
Mg238 O247 2.114 . S
Mg238 O248 2.251 . S
Mg238 O251 2.010 . S
O239 Mg238 2.028 . S
O239 C242 1.250 . S
O240 Mg241 2.028 . S
O240 C242 1.248 . S
Mg241 O240 2.028 . S
Mg241 O246 2.032 . S
Mg241 O248 2.079 . S
C242 O239 1.250 . S
C242 O240 1.248 . S
C243 O244 1.264 . S
C243 O251 1.249 . S
O244 C243 1.264 . S
O245 Mg238 1.986 . S
O245 C249 1.246 . S
O246 Mg241 2.032 . S
O246 C249 1.259 . S
O247 Mg238 2.114 . S
O247 C250 1.252 . S
O248 Mg238 2.251 . S
O248 Mg241 2.079 . S
O248 C250 1.273 . S
C249 O245 1.246 . S
C249 O246 1.259 . S
C250 O247 1.252 . S
C250 O248 1.273 . S
O251 Mg238 2.010 . S
O251 C243 1.249 . S
Mg252 O253 2.028 . S
Mg252 O259 1.986 . S
Mg252 O261 2.114 . S
Mg252 O262 2.251 . S
Mg252 O265 2.010 . S
O253 Mg252 2.028 . S
O253 C256 1.250 . S
O254 Mg255 2.028 . S
O254 C256 1.248 . S
Mg255 O254 2.028 . S
Mg255 O260 2.032 . S
Mg255 O262 2.079 . S
C256 O253 1.250 . S
C256 O254 1.248 . S
C257 O258 1.264 . S
C257 O265 1.249 . S
O258 C257 1.264 . S
O259 Mg252 1.986 . S
O259 C263 1.246 . S
O260 Mg255 2.032 . S
O260 C263 1.259 . S
O261 Mg252 2.114 . S
O261 C264 1.252 . S
O262 Mg252 2.251 . S
O262 Mg255 2.079 . S
O262 C264 1.273 . S
C263 O259 1.246 . S
C263 O260 1.259 . S
C264 O261 1.252 . S
C264 O262 1.273 . S
O265 Mg252 2.010 . S
O265 C257 1.249 . S
Mg266 O267 2.028 . S
Mg266 O273 1.986 . S
Mg266 O275 2.114 . S
Mg266 O276 2.251 . S
Mg266 O279 2.010 . S
O267 Mg266 2.028 . S
O267 C270 1.250 . S
O268 Mg269 2.028 . S
O268 C270 1.248 . S
Mg269 O268 2.028 . S
Mg269 O274 2.032 . S
Mg269 O276 2.079 . S
C270 O267 1.250 . S
C270 O268 1.248 . S
C271 O272 1.264 . S
C271 O279 1.249 . S
O272 C271 1.264 . S
O273 Mg266 1.986 . S
O273 C277 1.246 . S
O274 Mg269 2.032 . S
O274 C277 1.259 . S
O275 Mg266 2.114 . S
O275 C278 1.252 . S
O276 Mg266 2.251 . S
O276 Mg269 2.079 . S
O276 C278 1.273 . S
C277 O273 1.246 . S
C277 O274 1.259 . S
C278 O275 1.252 . S
C278 O276 1.273 . S
O279 Mg266 2.010 . S
O279 C271 1.249 . S
Mg280 O281 2.028 . S
Mg280 O287 1.986 . S
Mg280 O289 2.114 . S
Mg280 O290 2.251 . S
Mg280 O293 2.010 . S
O281 Mg280 2.028 . S
O281 C284 1.250 . S
O282 Mg283 2.028 . S
O282 C284 1.248 . S
Mg283 O282 2.028 . S
Mg283 O288 2.032 . S
Mg283 O290 2.079 . S
C284 O281 1.250 . S
C284 O282 1.248 . S
C285 O286 1.264 . S
C285 O293 1.249 . S
O286 C285 1.264 . S
O287 Mg280 1.986 . S
O287 C291 1.246 . S
O288 Mg283 2.032 . S
O288 C291 1.259 . S
O289 Mg280 2.114 . S
O289 C292 1.252 . S
O290 Mg280 2.251 . S
O290 Mg283 2.079 . S
O290 C292 1.273 . S
C291 O287 1.246 . S
C291 O288 1.259 . S
C292 O289 1.252 . S
C292 O290 1.273 . S
O293 Mg280 2.010 . S
O293 C285 1.249 . S
Mg294 O295 2.028 . S
Mg294 O301 1.986 . S
Mg294 O303 2.114 . S
Mg294 O304 2.251 . S
Mg294 O307 2.010 . S
O295 Mg294 2.028 . S
O295 C298 1.250 . S
O296 Mg297 2.028 . S
O296 C298 1.248 . S
Mg297 O296 2.028 . S
Mg297 O302 2.032 . S
Mg297 O304 2.079 . S
C298 O295 1.250 . S
C298 O296 1.248 . S
C299 O300 1.264 . S
C299 O307 1.249 . S
O300 C299 1.264 . S
O301 Mg294 1.986 . S
O301 C305 1.246 . S
O302 Mg297 2.032 . S
O302 C305 1.259 . S
O303 Mg294 2.114 . S
O303 C306 1.252 . S
O304 Mg294 2.251 . S
O304 Mg297 2.079 . S
O304 C306 1.273 . S
C305 O301 1.246 . S
C305 O302 1.259 . S
C306 O303 1.252 . S
C306 O304 1.273 . S
O307 Mg294 2.010 . S
O307 C299 1.249 . S
Mg308 O309 2.028 . S
Mg308 O315 1.986 . S
Mg308 O317 2.114 . S
Mg308 O318 2.251 . S
Mg308 O321 2.010 . S
O309 Mg308 2.028 . S
O309 C312 1.250 . S
O310 Mg311 2.028 . S
O310 C312 1.248 . S
Mg311 O310 2.028 . S
Mg311 O316 2.032 . S
Mg311 O318 2.079 . S
C312 O309 1.250 . S
C312 O310 1.248 . S
C313 O314 1.264 . S
C313 O321 1.249 . S
O314 C313 1.264 . S
O315 Mg308 1.986 . S
O315 C319 1.246 . S
O316 Mg311 2.032 . S
O316 C319 1.259 . S
O317 Mg308 2.114 . S
O317 C320 1.252 . S
O318 Mg308 2.251 . S
O318 Mg311 2.079 . S
O318 C320 1.273 . S
C319 O315 1.246 . S
C319 O316 1.259 . S
C320 O317 1.252 . S
C320 O318 1.273 . S
O321 Mg308 2.010 . S
O321 C313 1.249 . S
Mg322 O323 2.028 . S
Mg322 O329 1.986 . S
Mg322 O331 2.114 . S
Mg322 O332 2.251 . S
Mg322 O335 2.010 . S
O323 Mg322 2.028 . S
O323 C326 1.250 . S
O324 Mg325 2.028 . S
O324 C326 1.248 . S
Mg325 O324 2.028 . S
Mg325 O330 2.032 . S
Mg325 O332 2.079 . S
C326 O323 1.250 . S
C326 O324 1.248 . S
C327 O328 1.264 . S
C327 O335 1.249 . S
O328 C327 1.264 . S
O329 Mg322 1.986 . S
O329 C333 1.246 . S
O330 Mg325 2.032 . S
O330 C333 1.259 . S
O331 Mg322 2.114 . S
O331 C334 1.252 . S
O332 Mg322 2.251 . S
O332 Mg325 2.079 . S
O332 C334 1.273 . S
C333 O329 1.246 . S
C333 O330 1.259 . S
C334 O331 1.252 . S
C334 O332 1.273 . S
O335 Mg322 2.010 . S
O335 C327 1.249 . S
Mg336 O337 2.028 . S
Mg336 O343 1.986 . S
Mg336 O345 2.114 . S
Mg336 O346 2.251 . S
Mg336 O349 2.010 . S
O337 Mg336 2.028 . S
O337 C340 1.250 . S
O338 Mg339 2.028 . S
O338 C340 1.248 . S
Mg339 O338 2.028 . S
Mg339 O344 2.032 . S
Mg339 O346 2.079 . S
C340 O337 1.250 . S
C340 O338 1.248 . S
C341 O342 1.264 . S
C341 O349 1.249 . S
O342 C341 1.264 . S
O343 Mg336 1.986 . S
O343 C347 1.246 . S
O344 Mg339 2.032 . S
O344 C347 1.259 . S
O345 Mg336 2.114 . S
O345 C348 1.252 . S
O346 Mg336 2.251 . S
O346 Mg339 2.079 . S
O346 C348 1.273 . S
C347 O343 1.246 . S
C347 O344 1.259 . S
C348 O345 1.252 . S
C348 O346 1.273 . S
O349 Mg336 2.010 . S
O349 C341 1.249 . S
Mg350 O351 2.028 . S
Mg350 O357 1.986 . S
Mg350 O359 2.114 . S
Mg350 O360 2.251 . S
Mg350 O363 2.010 . S
O351 Mg350 2.028 . S
O351 C354 1.250 . S
O352 Mg353 2.028 . S
O352 C354 1.248 . S
Mg353 O352 2.028 . S
Mg353 O358 2.032 . S
Mg353 O360 2.079 . S
C354 O351 1.250 . S
C354 O352 1.248 . S
C355 O356 1.264 . S
C355 O363 1.249 . S
O356 C355 1.264 . S
O357 Mg350 1.986 . S
O357 C361 1.246 . S
O358 Mg353 2.032 . S
O358 C361 1.259 . S
O359 Mg350 2.114 . S
O359 C362 1.252 . S
O360 Mg350 2.251 . S
O360 Mg353 2.079 . S
O360 C362 1.273 . S
C361 O357 1.246 . S
C361 O358 1.259 . S
C362 O359 1.252 . S
C362 O360 1.273 . S
O363 Mg350 2.010 . S
O363 C355 1.249 . S
Mg364 O365 2.028 . S
Mg364 O371 1.986 . S
Mg364 O373 2.114 . S
Mg364 O374 2.251 . S
Mg364 O377 2.010 . S
O365 Mg364 2.028 . S
O365 C368 1.250 . S
O366 Mg367 2.028 . S
O366 C368 1.248 . S
Mg367 O366 2.028 . S
Mg367 O372 2.032 . S
Mg367 O374 2.079 . S
C368 O365 1.250 . S
C368 O366 1.248 . S
C369 O370 1.264 . S
C369 O377 1.249 . S
O370 C369 1.264 . S
O371 Mg364 1.986 . S
O371 C375 1.246 . S
O372 Mg367 2.032 . S
O372 C375 1.259 . S
O373 Mg364 2.114 . S
O373 C376 1.252 . S
O374 Mg364 2.251 . S
O374 Mg367 2.079 . S
O374 C376 1.273 . S
C375 O371 1.246 . S
C375 O372 1.259 . S
C376 O373 1.252 . S
C376 O374 1.273 . S
O377 Mg364 2.010 . S
O377 C369 1.249 . S
Mg378 O379 2.028 . S
Mg378 O385 1.986 . S
Mg378 O387 2.114 . S
Mg378 O388 2.251 . S
Mg378 O391 2.010 . S
O379 Mg378 2.028 . S
O379 C382 1.250 . S
O380 Mg381 2.028 . S
O380 C382 1.248 . S
Mg381 O380 2.028 . S
Mg381 O386 2.032 . S
Mg381 O388 2.079 . S
C382 O379 1.250 . S
C382 O380 1.248 . S
C383 O384 1.264 . S
C383 O391 1.249 . S
O384 C383 1.264 . S
O385 Mg378 1.986 . S
O385 C389 1.246 . S
O386 Mg381 2.032 . S
O386 C389 1.259 . S
O387 Mg378 2.114 . S
O387 C390 1.252 . S
O388 Mg378 2.251 . S
O388 Mg381 2.079 . S
O388 C390 1.273 . S
C389 O385 1.246 . S
C389 O386 1.259 . S
C390 O387 1.252 . S
C390 O388 1.273 . S
O391 Mg378 2.010 . S
O391 C383 1.249 . S
Mg392 O393 2.028 . S
Mg392 O399 1.986 . S
Mg392 O401 2.114 . S
Mg392 O402 2.251 . S
Mg392 O405 2.010 . S
O393 Mg392 2.028 . S
O393 C396 1.250 . S
O394 Mg395 2.028 . S
O394 C396 1.248 . S
Mg395 O394 2.028 . S
Mg395 O400 2.032 . S
Mg395 O402 2.079 . S
C396 O393 1.250 . S
C396 O394 1.248 . S
C397 O398 1.264 . S
C397 O405 1.249 . S
O398 C397 1.264 . S
O399 Mg392 1.986 . S
O399 C403 1.246 . S
O400 Mg395 2.032 . S
O400 C403 1.259 . S
O401 Mg392 2.114 . S
O401 C404 1.252 . S
O402 Mg392 2.251 . S
O402 Mg395 2.079 . S
O402 C404 1.273 . S
C403 O399 1.246 . S
C403 O400 1.259 . S
C404 O401 1.252 . S
C404 O402 1.273 . S
O405 Mg392 2.010 . S
O405 C397 1.249 . S
Mg406 O407 2.028 . S
Mg406 O413 1.986 . S
Mg406 O415 2.114 . S
Mg406 O416 2.251 . S
Mg406 O419 2.010 . S
O407 Mg406 2.028 . S
O407 C410 1.250 . S
O408 Mg409 2.028 . S
O408 C410 1.248 . S
Mg409 O408 2.028 . S
Mg409 O414 2.032 . S
Mg409 O416 2.079 . S
C410 O407 1.250 . S
C410 O408 1.248 . S
C411 O412 1.264 . S
C411 O419 1.249 . S
O412 C411 1.264 . S
O413 Mg406 1.986 . S
O413 C417 1.246 . S
O414 Mg409 2.032 . S
O414 C417 1.259 . S
O415 Mg406 2.114 . S
O415 C418 1.252 . S
O416 Mg406 2.251 . S
O416 Mg409 2.079 . S
O416 C418 1.273 . S
C417 O413 1.246 . S
C417 O414 1.259 . S
C418 O415 1.252 . S
C418 O416 1.273 . S
O419 Mg406 2.010 . S
O419 C411 1.249 . S
Mg420 O421 2.028 . S
Mg420 O427 1.986 . S
Mg420 O429 2.114 . S
Mg420 O430 2.251 . S
Mg420 O433 2.010 . S
O421 Mg420 2.028 . S
O421 C424 1.250 . S
O422 Mg423 2.028 . S
O422 C424 1.248 . S
Mg423 O422 2.028 . S
Mg423 O428 2.032 . S
Mg423 O430 2.079 . S
C424 O421 1.250 . S
C424 O422 1.248 . S
C425 O426 1.264 . S
C425 O433 1.249 . S
O426 C425 1.264 . S
O427 Mg420 1.986 . S
O427 C431 1.246 . S
O428 Mg423 2.032 . S
O428 C431 1.259 . S
O429 Mg420 2.114 . S
O429 C432 1.252 . S
O430 Mg420 2.251 . S
O430 Mg423 2.079 . S
O430 C432 1.273 . S
C431 O427 1.246 . S
C431 O428 1.259 . S
C432 O429 1.252 . S
C432 O430 1.273 . S
O433 Mg420 2.010 . S
O433 C425 1.249 . S
Mg434 O435 2.028 . S
Mg434 O441 1.986 . S
Mg434 O443 2.114 . S
Mg434 O444 2.251 . S
Mg434 O447 2.010 . S
O435 Mg434 2.028 . S
O435 C438 1.250 . S
O436 Mg437 2.028 . S
O436 C438 1.248 . S
Mg437 O436 2.028 . S
Mg437 O442 2.032 . S
Mg437 O444 2.079 . S
C438 O435 1.250 . S
C438 O436 1.248 . S
C439 O440 1.264 . S
C439 O447 1.249 . S
O440 C439 1.264 . S
O441 Mg434 1.986 . S
O441 C445 1.246 . S
O442 Mg437 2.032 . S
O442 C445 1.259 . S
O443 Mg434 2.114 . S
O443 C446 1.252 . S
O444 Mg434 2.251 . S
O444 Mg437 2.079 . S
O444 C446 1.273 . S
C445 O441 1.246 . S
C445 O442 1.259 . S
C446 O443 1.252 . S
C446 O444 1.273 . S
O447 Mg434 2.010 . S
O447 C439 1.249 . S
Mg448 O449 2.028 . S
Mg448 O455 1.986 . S
Mg448 O457 2.114 . S
Mg448 O458 2.251 . S
Mg448 O461 2.010 . S
O449 Mg448 2.028 . S
O449 C452 1.250 . S
O450 Mg451 2.028 . S
O450 C452 1.248 . S
Mg451 O450 2.028 . S
Mg451 O456 2.032 . S
Mg451 O458 2.079 . S
C452 O449 1.250 . S
C452 O450 1.248 . S
C453 O454 1.264 . S
C453 O461 1.249 . S
O454 C453 1.264 . S
O455 Mg448 1.986 . S
O455 C459 1.246 . S
O456 Mg451 2.032 . S
O456 C459 1.259 . S
O457 Mg448 2.114 . S
O457 C460 1.252 . S
O458 Mg448 2.251 . S
O458 Mg451 2.079 . S
O458 C460 1.273 . S
C459 O455 1.246 . S
C459 O456 1.259 . S
C460 O457 1.252 . S
C460 O458 1.273 . S
O461 Mg448 2.010 . S
O461 C453 1.249 . S
Mg462 O463 2.028 . S
Mg462 O469 1.986 . S
Mg462 O471 2.114 . S
Mg462 O472 2.251 . S
Mg462 O475 2.010 . S
O463 Mg462 2.028 . S
O463 C466 1.250 . S
O464 Mg465 2.028 . S
O464 C466 1.248 . S
Mg465 O464 2.028 . S
Mg465 O470 2.032 . S
Mg465 O472 2.079 . S
C466 O463 1.250 . S
C466 O464 1.248 . S
C467 O468 1.264 . S
C467 O475 1.249 . S
O468 C467 1.264 . S
O469 Mg462 1.986 . S
O469 C473 1.246 . S
O470 Mg465 2.032 . S
O470 C473 1.259 . S
O471 Mg462 2.114 . S
O471 C474 1.252 . S
O472 Mg462 2.251 . S
O472 Mg465 2.079 . S
O472 C474 1.273 . S
C473 O469 1.246 . S
C473 O470 1.259 . S
C474 O471 1.252 . S
C474 O472 1.273 . S
O475 Mg462 2.010 . S
O475 C467 1.249 . S
Mg476 O477 2.028 . S
Mg476 O483 1.986 . S
Mg476 O485 2.114 . S
Mg476 O486 2.251 . S
Mg476 O489 2.010 . S
O477 Mg476 2.028 . S
O477 C480 1.250 . S
O478 Mg479 2.028 . S
O478 C480 1.248 . S
Mg479 O478 2.028 . S
Mg479 O484 2.032 . S
Mg479 O486 2.079 . S
C480 O477 1.250 . S
C480 O478 1.248 . S
C481 O482 1.264 . S
C481 O489 1.249 . S
O482 C481 1.264 . S
O483 Mg476 1.986 . S
O483 C487 1.246 . S
O484 Mg479 2.032 . S
O484 C487 1.259 . S
O485 Mg476 2.114 . S
O485 C488 1.252 . S
O486 Mg476 2.251 . S
O486 Mg479 2.079 . S
O486 C488 1.273 . S
C487 O483 1.246 . S
C487 O484 1.259 . S
C488 O485 1.252 . S
C488 O486 1.273 . S
O489 Mg476 2.010 . S
O489 C481 1.249 . S
Mg490 O491 2.028 . S
Mg490 O497 1.986 . S
Mg490 O499 2.114 . S
Mg490 O500 2.251 . S
Mg490 O503 2.010 . S
O491 Mg490 2.028 . S
O491 C494 1.250 . S
O492 Mg493 2.028 . S
O492 C494 1.248 . S
Mg493 O492 2.028 . S
Mg493 O498 2.032 . S
Mg493 O500 2.079 . S
C494 O491 1.250 . S
C494 O492 1.248 . S
C495 O496 1.264 . S
C495 O503 1.249 . S
O496 C495 1.264 . S
O497 Mg490 1.986 . S
O497 C501 1.246 . S
O498 Mg493 2.032 . S
O498 C501 1.259 . S
O499 Mg490 2.114 . S
O499 C502 1.252 . S
O500 Mg490 2.251 . S
O500 Mg493 2.079 . S
O500 C502 1.273 . S
C501 O497 1.246 . S
C501 O498 1.259 . S
C502 O499 1.252 . S
C502 O500 1.273 . S
O503 Mg490 2.010 . S
O503 C495 1.249 . S
Mg504 O505 2.028 . S
Mg504 O511 1.986 . S
Mg504 O513 2.114 . S
Mg504 O514 2.251 . S
Mg504 O517 2.010 . S
O505 Mg504 2.028 . S
O505 C508 1.250 . S
O506 Mg507 2.028 . S
O506 C508 1.248 . S
Mg507 O506 2.028 . S
Mg507 O512 2.032 . S
Mg507 O514 2.079 . S
C508 O505 1.250 . S
C508 O506 1.248 . S
C509 O510 1.264 . S
C509 O517 1.249 . S
O510 C509 1.264 . S
O511 Mg504 1.986 . S
O511 C515 1.246 . S
O512 Mg507 2.032 . S
O512 C515 1.259 . S
O513 Mg504 2.114 . S
O513 C516 1.252 . S
O514 Mg504 2.251 . S
O514 Mg507 2.079 . S
O514 C516 1.273 . S
C515 O511 1.246 . S
C515 O512 1.259 . S
C516 O513 1.252 . S
C516 O514 1.273 . S
O517 Mg504 2.010 . S
O517 C509 1.249 . S
Mg518 O519 2.028 . S
Mg518 O525 1.986 . S
Mg518 O527 2.114 . S
Mg518 O528 2.251 . S
Mg518 O531 2.010 . S
O519 Mg518 2.028 . S
O519 C522 1.250 . S
O520 Mg521 2.028 . S
O520 C522 1.248 . S
Mg521 O520 2.028 . S
Mg521 O526 2.032 . S
Mg521 O528 2.079 . S
C522 O519 1.250 . S
C522 O520 1.248 . S
C523 O524 1.264 . S
C523 O531 1.249 . S
O524 C523 1.264 . S
O525 Mg518 1.986 . S
O525 C529 1.246 . S
O526 Mg521 2.032 . S
O526 C529 1.259 . S
O527 Mg518 2.114 . S
O527 C530 1.252 . S
O528 Mg518 2.251 . S
O528 Mg521 2.079 . S
O528 C530 1.273 . S
C529 O525 1.246 . S
C529 O526 1.259 . S
C530 O527 1.252 . S
C530 O528 1.273 . S
O531 Mg518 2.010 . S
O531 C523 1.249 . S
Mg532 O533 2.028 . S
Mg532 O539 1.986 . S
Mg532 O541 2.114 . S
Mg532 O542 2.251 . S
Mg532 O545 2.010 . S
O533 Mg532 2.028 . S
O533 C536 1.250 . S
O534 Mg535 2.028 . S
O534 C536 1.248 . S
Mg535 O534 2.028 . S
Mg535 O540 2.032 . S
Mg535 O542 2.079 . S
C536 O533 1.250 . S
C536 O534 1.248 . S
C537 O538 1.264 . S
C537 O545 1.249 . S
O538 C537 1.264 . S
O539 Mg532 1.986 . S
O539 C543 1.246 . S
O540 Mg535 2.032 . S
O540 C543 1.259 . S
O541 Mg532 2.114 . S
O541 C544 1.252 . S
O542 Mg532 2.251 . S
O542 Mg535 2.079 . S
O542 C544 1.273 . S
C543 O539 1.246 . S
C543 O540 1.259 . S
C544 O541 1.252 . S
C544 O542 1.273 . S
O545 Mg532 2.010 . S
O545 C537 1.249 . S
Mg546 O547 2.028 . S
Mg546 O553 1.986 . S
Mg546 O555 2.114 . S
Mg546 O556 2.251 . S
Mg546 O559 2.010 . S
O547 Mg546 2.028 . S
O547 C550 1.250 . S
O548 Mg549 2.028 . S
O548 C550 1.248 . S
Mg549 O548 2.028 . S
Mg549 O554 2.032 . S
Mg549 O556 2.079 . S
C550 O547 1.250 . S
C550 O548 1.248 . S
C551 O552 1.264 . S
C551 O559 1.249 . S
O552 C551 1.264 . S
O553 Mg546 1.986 . S
O553 C557 1.246 . S
O554 Mg549 2.032 . S
O554 C557 1.259 . S
O555 Mg546 2.114 . S
O555 C558 1.252 . S
O556 Mg546 2.251 . S
O556 Mg549 2.079 . S
O556 C558 1.273 . S
C557 O553 1.246 . S
C557 O554 1.259 . S
C558 O555 1.252 . S
C558 O556 1.273 . S
O559 Mg546 2.010 . S
O559 C551 1.249 . S
Mg560 O561 2.028 . S
Mg560 O567 1.986 . S
Mg560 O569 2.114 . S
Mg560 O570 2.251 . S
Mg560 O573 2.010 . S
O561 Mg560 2.028 . S
O561 C564 1.250 . S
O562 Mg563 2.028 . S
O562 C564 1.248 . S
Mg563 O562 2.028 . S
Mg563 O568 2.032 . S
Mg563 O570 2.079 . S
C564 O561 1.250 . S
C564 O562 1.248 . S
C565 O566 1.264 . S
C565 O573 1.249 . S
O566 C565 1.264 . S
O567 Mg560 1.986 . S
O567 C571 1.246 . S
O568 Mg563 2.032 . S
O568 C571 1.259 . S
O569 Mg560 2.114 . S
O569 C572 1.252 . S
O570 Mg560 2.251 . S
O570 Mg563 2.079 . S
O570 C572 1.273 . S
C571 O567 1.246 . S
C571 O568 1.259 . S
C572 O569 1.252 . S
C572 O570 1.273 . S
O573 Mg560 2.010 . S
O573 C565 1.249 . S
Mg574 O575 2.028 . S
Mg574 O581 1.986 . S
Mg574 O583 2.114 . S
Mg574 O584 2.251 . S
Mg574 O587 2.010 . S
O575 Mg574 2.028 . S
O575 C578 1.250 . S
O576 Mg577 2.028 . S
O576 C578 1.248 . S
Mg577 O576 2.028 . S
Mg577 O582 2.032 . S
Mg577 O584 2.079 . S
C578 O575 1.250 . S
C578 O576 1.248 . S
C579 O580 1.264 . S
C579 O587 1.249 . S
O580 C579 1.264 . S
O581 Mg574 1.986 . S
O581 C585 1.246 . S
O582 Mg577 2.032 . S
O582 C585 1.259 . S
O583 Mg574 2.114 . S
O583 C586 1.252 . S
O584 Mg574 2.251 . S
O584 Mg577 2.079 . S
O584 C586 1.273 . S
C585 O581 1.246 . S
C585 O582 1.259 . S
C586 O583 1.252 . S
C586 O584 1.273 . S
O587 Mg574 2.010 . S
O587 C579 1.249 . S
Mg588 O589 2.028 . S
Mg588 O595 1.986 . S
Mg588 O597 2.114 . S
Mg588 O598 2.251 . S
Mg588 O601 2.010 . S
O589 Mg588 2.028 . S
O589 C592 1.250 . S
O590 Mg591 2.028 . S
O590 C592 1.248 . S
Mg591 O590 2.028 . S
Mg591 O596 2.032 . S
Mg591 O598 2.079 . S
C592 O589 1.250 . S
C592 O590 1.248 . S
C593 O594 1.264 . S
C593 O601 1.249 . S
O594 C593 1.264 . S
O595 Mg588 1.986 . S
O595 C599 1.246 . S
O596 Mg591 2.032 . S
O596 C599 1.259 . S
O597 Mg588 2.114 . S
O597 C600 1.252 . S
O598 Mg588 2.251 . S
O598 Mg591 2.079 . S
O598 C600 1.273 . S
C599 O595 1.246 . S
C599 O596 1.259 . S
C600 O597 1.252 . S
C600 O598 1.273 . S
O601 Mg588 2.010 . S
O601 C593 1.249 . S
Mg602 O603 2.028 . S
Mg602 O609 1.986 . S
Mg602 O611 2.114 . S
Mg602 O612 2.251 . S
Mg602 O615 2.010 . S
O603 Mg602 2.028 . S
O603 C606 1.250 . S
O604 Mg605 2.028 . S
O604 C606 1.248 . S
Mg605 O604 2.028 . S
Mg605 O610 2.032 . S
Mg605 O612 2.079 . S
C606 O603 1.250 . S
C606 O604 1.248 . S
C607 O608 1.264 . S
C607 O615 1.249 . S
O608 C607 1.264 . S
O609 Mg602 1.986 . S
O609 C613 1.246 . S
O610 Mg605 2.032 . S
O610 C613 1.259 . S
O611 Mg602 2.114 . S
O611 C614 1.252 . S
O612 Mg602 2.251 . S
O612 Mg605 2.079 . S
O612 C614 1.273 . S
C613 O609 1.246 . S
C613 O610 1.259 . S
C614 O611 1.252 . S
C614 O612 1.273 . S
O615 Mg602 2.010 . S
O615 C607 1.249 . S
Mg616 O617 2.028 . S
Mg616 O623 1.986 . S
Mg616 O625 2.114 . S
Mg616 O626 2.251 . S
Mg616 O629 2.010 . S
O617 Mg616 2.028 . S
O617 C620 1.250 . S
O618 Mg619 2.028 . S
O618 C620 1.248 . S
Mg619 O618 2.028 . S
Mg619 O624 2.032 . S
Mg619 O626 2.079 . S
C620 O617 1.250 . S
C620 O618 1.248 . S
C621 O622 1.264 . S
C621 O629 1.249 . S
O622 C621 1.264 . S
O623 Mg616 1.986 . S
O623 C627 1.246 . S
O624 Mg619 2.032 . S
O624 C627 1.259 . S
O625 Mg616 2.114 . S
O625 C628 1.252 . S
O626 Mg616 2.251 . S
O626 Mg619 2.079 . S
O626 C628 1.273 . S
C627 O623 1.246 . S
C627 O624 1.259 . S
C628 O625 1.252 . S
C628 O626 1.273 . S
O629 Mg616 2.010 . S
O629 C621 1.249 . S
Mg630 O631 2.028 . S
Mg630 O637 1.986 . S
Mg630 O639 2.114 . S
Mg630 O640 2.251 . S
Mg630 O643 2.010 . S
O631 Mg630 2.028 . S
O631 C634 1.250 . S
O632 Mg633 2.028 . S
O632 C634 1.248 . S
Mg633 O632 2.028 . S
Mg633 O638 2.032 . S
Mg633 O640 2.079 . S
C634 O631 1.250 . S
C634 O632 1.248 . S
C635 O636 1.264 . S
C635 O643 1.249 . S
O636 C635 1.264 . S
O637 Mg630 1.986 . S
O637 C641 1.246 . S
O638 Mg633 2.032 . S
O638 C641 1.259 . S
O639 Mg630 2.114 . S
O639 C642 1.252 . S
O640 Mg630 2.251 . S
O640 Mg633 2.079 . S
O640 C642 1.273 . S
C641 O637 1.246 . S
C641 O638 1.259 . S
C642 O639 1.252 . S
C642 O640 1.273 . S
O643 Mg630 2.010 . S
O643 C635 1.249 . S
Mg644 O645 2.028 . S
Mg644 O651 1.986 . S
Mg644 O653 2.114 . S
Mg644 O654 2.251 . S
Mg644 O657 2.010 . S
O645 Mg644 2.028 . S
O645 C648 1.250 . S
O646 Mg647 2.028 . S
O646 C648 1.248 . S
Mg647 O646 2.028 . S
Mg647 O652 2.032 . S
Mg647 O654 2.079 . S
C648 O645 1.250 . S
C648 O646 1.248 . S
C649 O650 1.264 . S
C649 O657 1.249 . S
O650 C649 1.264 . S
O651 Mg644 1.986 . S
O651 C655 1.246 . S
O652 Mg647 2.032 . S
O652 C655 1.259 . S
O653 Mg644 2.114 . S
O653 C656 1.252 . S
O654 Mg644 2.251 . S
O654 Mg647 2.079 . S
O654 C656 1.273 . S
C655 O651 1.246 . S
C655 O652 1.259 . S
C656 O653 1.252 . S
C656 O654 1.273 . S
O657 Mg644 2.010 . S
O657 C649 1.249 . S
Mg658 O659 2.028 . S
Mg658 O665 1.986 . S
Mg658 O667 2.114 . S
Mg658 O668 2.251 . S
Mg658 O671 2.010 . S
O659 Mg658 2.028 . S
O659 C662 1.250 . S
O660 Mg661 2.028 . S
O660 C662 1.248 . S
Mg661 O660 2.028 . S
Mg661 O666 2.032 . S
Mg661 O668 2.079 . S
C662 O659 1.250 . S
C662 O660 1.248 . S
C663 O664 1.264 . S
C663 O671 1.249 . S
O664 C663 1.264 . S
O665 Mg658 1.986 . S
O665 C669 1.246 . S
O666 Mg661 2.032 . S
O666 C669 1.259 . S
O667 Mg658 2.114 . S
O667 C670 1.252 . S
O668 Mg658 2.251 . S
O668 Mg661 2.079 . S
O668 C670 1.273 . S
C669 O665 1.246 . S
C669 O666 1.259 . S
C670 O667 1.252 . S
C670 O668 1.273 . S
O671 Mg658 2.010 . S
O671 C663 1.249 . S
H672 C678 0.930 . S
H673 C681 0.930 . S
H674 C682 0.943 . S
H675 C683 0.930 . S
H676 C686 0.930 . S
H677 C687 0.943 . S
C678 H672 0.930 . S
C678 C679 1.355 . S
C678 C680 1.415 . S
C679 C678 1.355 . S
C679 C681 1.419 . S
C680 C678 1.415 . S
C680 C685 1.425 1_655 S
C680 C687 1.415 . S
C681 H673 0.930 . S
C681 C679 1.419 . S
C681 C682 1.344 1_655 S
C682 H674 0.943 . S
C682 C681 1.344 1_455 S
C682 C685 1.415 . S
C683 H675 0.930 . S
C683 C684 1.355 . S
C683 C685 1.415 . S
C684 C683 1.355 . S
C684 C686 1.419 . S
C685 C680 1.425 1_455 S
C685 C682 1.415 . S
C685 C683 1.415 . S
C686 H676 0.930 . S
C686 C684 1.419 . S
C686 C687 1.344 1_455 S
C687 H677 0.943 . S
C687 C680 1.415 . S
C687 C686 1.344 1_655 S
H688 C694 0.930 . S
H689 C697 0.930 . S
H690 C698 0.930 . S
H691 C699 0.930 . S
H692 C702 0.930 . S
H693 C703 0.930 . S
C694 H688 0.930 . S
C694 C695 1.355 . S
C694 C696 1.415 . S
C695 C694 1.355 . S
C695 C697 1.419 . S
C696 C694 1.415 . S
C696 C701 1.425 1_565 S
C696 C703 1.409 . S
C697 H689 0.930 . S
C697 C695 1.419 . S
C697 C698 1.362 1_565 S
C698 H690 0.930 . S
C698 C697 1.362 1_545 S
C698 C701 1.409 . S
C699 H691 0.930 . S
C699 C700 1.355 . S
C699 C701 1.415 . S
C700 C699 1.355 . S
C700 C702 1.419 . S
C701 C696 1.425 1_545 S
C701 C698 1.409 . S
C701 C699 1.415 . S
C702 H692 0.930 . S
C702 C700 1.419 . S
C702 C703 1.362 1_545 S
C703 H693 0.930 . S
C703 C696 1.409 . S
C703 C702 1.362 1_565 S
H704 C710 0.930 . S
H705 C713 0.930 . S
H706 C714 0.930 . S
H707 C715 0.930 . S
H708 C718 0.930 . S
H709 C719 0.930 . S
C710 H704 0.930 . S
C710 C711 1.355 . S
C710 C712 1.415 . S
C711 C710 1.355 . S
C711 C713 1.419 . S
C712 C710 1.415 . S
C712 C717 1.425 1_455 S
C712 C719 1.409 . S
C713 H705 0.930 . S
C713 C711 1.419 . S
C713 C714 1.362 1_455 S
C714 H706 0.930 . S
C714 C713 1.362 1_655 S
C714 C717 1.409 . S
C715 H707 0.930 . S
C715 C716 1.355 . S
C715 C717 1.415 . S
C716 C715 1.355 . S
C716 C718 1.419 . S
C717 C712 1.425 1_655 S
C717 C714 1.409 . S
C717 C715 1.415 . S
C718 H708 0.930 . S
C718 C716 1.419 . S
C718 C719 1.362 1_655 S
C719 H709 0.930 . S
C719 C712 1.409 . S
C719 C718 1.362 1_455 S
H720 C726 0.930 . S
H721 C729 0.930 . S
H722 C730 0.930 . S
H723 C731 0.930 . S
H724 C734 0.930 . S
H725 C735 0.930 . S
C726 H720 0.930 . S
C726 C727 1.355 . S
C726 C728 1.415 . S
C727 C726 1.355 . S
C727 C729 1.419 . S
C728 C726 1.415 . S
C728 C733 1.425 1_565 S
C728 C735 1.409 . S
C729 H721 0.930 . S
C729 C727 1.419 . S
C729 C730 1.362 1_565 S
C730 H722 0.930 . S
C730 C729 1.362 1_545 S
C730 C733 1.409 . S
C731 H723 0.930 . S
C731 C732 1.355 . S
C731 C733 1.415 . S
C732 C731 1.355 . S
C732 C734 1.419 . S
C733 C728 1.425 1_545 S
C733 C730 1.409 . S
C733 C731 1.415 . S
C734 H724 0.930 . S
C734 C732 1.419 . S
C734 C735 1.362 1_545 S
C735 H725 0.930 . S
C735 C728 1.409 . S
C735 C734 1.362 1_565 S
H736 C742 0.930 . S
H737 C745 0.930 . S
H738 C746 0.930 1_455 S
H739 C747 0.930 . S
H740 C750 0.930 . S
H741 C751 0.930 1_655 S
C742 H736 0.930 . S
C742 C743 1.355 . S
C742 C744 1.415 . S
C743 C742 1.355 . S
C743 C745 1.419 . S
C744 C742 1.415 . S
C744 C749 1.425 1_655 S
C744 C751 1.409 1_655 S
C745 H737 0.930 . S
C745 C743 1.419 . S
C745 C746 1.362 . S
C746 H738 0.930 1_655 S
C746 C745 1.362 . S
C746 C749 1.409 1_655 S
C747 H739 0.930 . S
C747 C748 1.355 . S
C747 C749 1.415 . S
C748 C747 1.355 . S
C748 C750 1.419 . S
C749 C744 1.425 1_455 S
C749 C746 1.409 1_455 S
C749 C747 1.415 . S
C750 H740 0.930 . S
C750 C748 1.419 . S
C750 C751 1.362 . S
C751 H741 0.930 1_455 S
C751 C744 1.409 1_455 S
C751 C750 1.362 . S
H752 C758 0.930 . S
H753 C761 0.930 . S
H754 C762 0.930 . S
H755 C763 0.930 . S
H756 C766 0.930 . S
H757 C767 0.930 . S
C758 H752 0.930 . S
C758 C759 1.355 . S
C758 C760 1.415 . S
C759 C758 1.355 . S
C759 C761 1.419 . S
C760 C758 1.415 . S
C760 C765 1.425 1_545 S
C760 C767 1.409 . S
C761 H753 0.930 . S
C761 C759 1.419 . S
C761 C762 1.362 1_545 S
C762 H754 0.930 . S
C762 C761 1.362 1_565 S
C762 C765 1.409 . S
C763 H755 0.930 . S
C763 C764 1.355 . S
C763 C765 1.415 . S
C764 C763 1.355 . S
C764 C766 1.419 . S
C765 C760 1.425 1_565 S
C765 C762 1.409 . S
C765 C763 1.415 . S
C766 H756 0.930 . S
C766 C764 1.419 . S
C766 C767 1.362 1_565 S
C767 H757 0.930 . S
C767 C760 1.409 . S
C767 C766 1.362 1_545 S
H768 C774 0.930 . S
H769 C777 0.930 . S
H770 C778 0.930 . S
H771 C779 0.930 . S
H772 C782 0.930 . S
H773 C783 0.930 . S
C774 H768 0.930 . S
C774 C775 1.355 . S
C774 C776 1.415 . S
C775 C774 1.355 . S
C775 C777 1.419 . S
C776 C774 1.415 . S
C776 C781 1.425 1_455 S
C776 C783 1.409 . S
C777 H769 0.930 . S
C777 C775 1.419 . S
C777 C778 1.362 1_455 S
C778 H770 0.930 . S
C778 C777 1.362 1_655 S
C778 C781 1.409 . S
C779 H771 0.930 . S
C779 C780 1.355 . S
C779 C781 1.415 . S
C780 C779 1.355 . S
C780 C782 1.419 . S
C781 C776 1.425 1_655 S
C781 C778 1.409 . S
C781 C779 1.415 . S
C782 H772 0.930 . S
C782 C780 1.419 . S
C782 C783 1.362 1_655 S
C783 H773 0.930 . S
C783 C776 1.409 . S
C783 C782 1.362 1_455 S
H784 C790 0.930 . S
H785 C793 0.930 . S
H786 C794 0.930 . S
H787 C795 0.930 . S
H788 C798 0.930 . S
H789 C799 0.930 . S
C790 H784 0.930 . S
C790 C791 1.355 . S
C790 C792 1.415 . S
C791 C790 1.355 . S
C791 C793 1.419 . S
C792 C790 1.415 . S
C792 C797 1.425 1_545 S
C792 C799 1.409 . S
C793 H785 0.930 . S
C793 C791 1.419 . S
C793 C794 1.362 1_545 S
C794 H786 0.930 . S
C794 C793 1.362 1_565 S
C794 C797 1.409 . S
C795 H787 0.930 . S
C795 C796 1.355 . S
C795 C797 1.415 . S
C796 C795 1.355 . S
C796 C798 1.419 . S
C797 C792 1.425 1_565 S
C797 C794 1.409 . S
C797 C795 1.415 . S
C798 H788 0.930 . S
C798 C796 1.419 . S
C798 C799 1.362 1_565 S
C799 H789 0.930 . S
C799 C792 1.409 . S
C799 C798 1.362 1_545 S
H800 C806 0.930 . S
H801 C809 0.930 . S
H802 C810 0.930 . S
H803 C811 0.930 . S
H804 C814 0.930 . S
H805 C815 0.930 . S
C806 H800 0.930 . S
C806 C807 1.355 . S
C806 C808 1.415 . S
C807 C806 1.355 . S
C807 C809 1.419 . S
C808 C806 1.415 . S
C808 C813 1.425 1_554 S
C808 C815 1.409 . S
C809 H801 0.930 . S
C809 C807 1.419 . S
C809 C810 1.362 1_554 S
C810 H802 0.930 . S
C810 C809 1.362 1_556 S
C810 C813 1.409 . S
C811 H803 0.930 . S
C811 C812 1.355 . S
C811 C813 1.415 . S
C812 C811 1.355 . S
C812 C814 1.419 . S
C813 C808 1.425 1_556 S
C813 C810 1.409 . S
C813 C811 1.415 . S
C814 H804 0.930 . S
C814 C812 1.419 . S
C814 C815 1.362 1_556 S
C815 H805 0.930 . S
C815 C808 1.409 . S
C815 C814 1.362 1_554 S
H816 C822 0.930 . S
H817 C825 0.930 . S
H818 C826 0.936 . S
H819 C827 0.930 . S
H820 C830 0.930 . S
H821 C831 0.936 . S
C822 H816 0.930 . S
C822 C823 1.355 . S
C822 C824 1.415 . S
C823 C822 1.355 . S
C823 C825 1.419 . S
C824 C822 1.415 . S
C824 C829 1.425 1_556 S
C824 C831 1.412 . S
C825 H817 0.930 . S
C825 C823 1.419 . S
C825 C826 1.354 1_556 S
C826 H818 0.936 . S
C826 C825 1.354 1_554 S
C826 C829 1.412 . S
C827 H819 0.930 . S
C827 C828 1.355 . S
C827 C829 1.415 . S
C828 C827 1.355 . S
C828 C830 1.419 . S
C829 C824 1.425 1_554 S
C829 C826 1.412 . S
C829 C827 1.415 . S
C830 H820 0.930 . S
C830 C828 1.419 . S
C830 C831 1.354 1_554 S
C831 H821 0.936 . S
C831 C824 1.412 . S
C831 C830 1.354 1_556 S
H832 C838 0.930 . S
H833 C841 0.930 . S
H834 C842 0.930 . S
H835 C843 0.930 . S
H836 C846 0.930 . S
H837 C847 0.930 . S
C838 H832 0.930 . S
C838 C839 1.355 . S
C838 C840 1.415 . S
C839 C838 1.355 . S
C839 C841 1.419 . S
C840 C838 1.415 . S
C840 C845 1.425 1_556 S
C840 C847 1.409 . S
C841 H833 0.930 . S
C841 C839 1.419 . S
C841 C842 1.362 1_556 S
C842 H834 0.930 . S
C842 C841 1.362 1_554 S
C842 C845 1.409 . S
C843 H835 0.930 . S
C843 C844 1.355 . S
C843 C845 1.415 . S
C844 C843 1.355 . S
C844 C846 1.419 . S
C845 C840 1.425 1_554 S
C845 C842 1.409 . S
C845 C843 1.415 . S
C846 H836 0.930 . S
C846 C844 1.419 . S
C846 C847 1.362 1_554 S
C847 H837 0.930 . S
C847 C840 1.409 . S
C847 C846 1.362 1_556 S
H848 C854 0.930 . S
H849 C857 0.930 . S
H850 C858 0.930 . S
H851 C859 0.930 . S
H852 C862 0.930 . S
H853 C863 0.930 . S
C854 H848 0.930 . S
C854 C855 1.355 . S
C854 C856 1.415 . S
C855 C854 1.355 . S
C855 C857 1.419 . S
C856 C854 1.415 . S
C856 C861 1.425 1_556 S
C856 C863 1.409 . S
C857 H849 0.930 . S
C857 C855 1.419 . S
C857 C858 1.362 1_556 S
C858 H850 0.930 . S
C858 C857 1.362 1_554 S
C858 C861 1.409 . S
C859 H851 0.930 . S
C859 C860 1.355 . S
C859 C861 1.415 . S
C860 C859 1.355 . S
C860 C862 1.419 . S
C861 C856 1.425 1_554 S
C861 C858 1.409 . S
C861 C859 1.415 . S
C862 H852 0.930 . S
C862 C860 1.419 . S
C862 C863 1.362 1_554 S
C863 H853 0.930 . S
C863 C856 1.409 . S
C863 C862 1.362 1_556 S
H864 C870 0.930 . S
H865 C873 0.930 . S
H866 C874 0.930 . S
H867 C875 0.930 . S
H868 C878 0.930 . S
H869 C879 0.930 . S
C870 H864 0.930 . S
C870 C871 1.355 . S
C870 C872 1.415 . S
C871 C870 1.355 . S
C871 C873 1.419 . S
C872 C870 1.415 . S
C872 C877 1.425 . S
C872 C879 1.409 . S
C873 H865 0.930 . S
C873 C871 1.419 . S
C873 C874 1.362 . S
C874 H866 0.930 . S
C874 C873 1.362 . S
C874 C877 1.409 . S
C875 H867 0.930 . S
C875 C876 1.355 . S
C875 C877 1.415 . S
C876 C875 1.355 . S
C876 C878 1.419 . S
C877 C872 1.425 . S
C877 C874 1.409 . S
C877 C875 1.415 . S
C878 H868 0.930 . S
C878 C876 1.419 . S
C878 C879 1.362 . S
C879 H869 0.930 . S
C879 C872 1.409 . S
C879 C878 1.362 . S
H880 C886 0.930 . S
H881 C889 0.930 . S
H882 C890 0.930 . S
H883 C891 0.930 . S
H884 C894 0.930 . S
H885 C895 0.930 . S
C886 H880 0.930 . S
C886 C887 1.355 . S
C886 C888 1.415 . S
C887 C886 1.355 . S
C887 C889 1.419 . S
C888 C886 1.415 . S
C888 C893 1.425 . S
C888 C895 1.409 . S
C889 H881 0.930 . S
C889 C887 1.419 . S
C889 C890 1.362 . S
C890 H882 0.930 . S
C890 C889 1.362 . S
C890 C893 1.409 . S
C891 H883 0.930 . S
C891 C892 1.355 . S
C891 C893 1.415 . S
C892 C891 1.355 . S
C892 C894 1.419 . S
C893 C888 1.425 . S
C893 C890 1.409 . S
C893 C891 1.415 . S
C894 H884 0.930 . S
C894 C892 1.419 . S
C894 C895 1.362 . S
C895 H885 0.930 . S
C895 C888 1.409 . S
C895 C894 1.362 . S
H896 C902 0.930 . S
H897 C905 0.930 . S
H898 C906 0.930 . S
H899 C907 0.930 . S
H900 C910 0.930 . S
H901 C911 0.930 . S
C902 H896 0.930 . S
C902 C903 1.355 . S
C902 C904 1.415 . S
C903 C902 1.355 . S
C903 C905 1.419 . S
C904 C902 1.415 . S
C904 C909 1.425 . S
C904 C911 1.409 . S
C905 H897 0.930 . S
C905 C903 1.419 . S
C905 C906 1.362 . S
C906 H898 0.930 . S
C906 C905 1.362 . S
C906 C909 1.409 . S
C907 H899 0.930 . S
C907 C908 1.355 . S
C907 C909 1.415 . S
C908 C907 1.355 . S
C908 C910 1.419 . S
C909 C904 1.425 . S
C909 C906 1.409 . S
C909 C907 1.415 . S
C910 H900 0.930 . S
C910 C908 1.419 . S
C910 C911 1.362 . S
C911 H901 0.930 . S
C911 C904 1.409 . S
C911 C910 1.362 . S
H912 C918 0.930 . S
H913 C921 0.930 . S
H914 C922 0.930 . S
H915 C923 0.930 . S
H916 C926 0.930 . S
H917 C927 0.930 . S
C918 H912 0.930 . S
C918 C919 1.355 . S
C918 C920 1.415 . S
C919 C918 1.355 . S
C919 C921 1.419 . S
C920 C918 1.415 . S
C920 C925 1.425 . S
C920 C927 1.409 . S
C921 H913 0.930 . S
C921 C919 1.419 . S
C921 C922 1.362 . S
C922 H914 0.930 . S
C922 C921 1.362 . S
C922 C925 1.409 . S
C923 H915 0.930 . S
C923 C924 1.355 . S
C923 C925 1.415 . S
C924 C923 1.355 . S
C924 C926 1.419 . S
C925 C920 1.425 . S
C925 C922 1.409 . S
C925 C923 1.415 . S
C926 H916 0.930 . S
C926 C924 1.419 . S
C926 C927 1.362 . S
C927 H917 0.930 . S
C927 C920 1.409 . S
C927 C926 1.362 . S
H928 C934 0.930 . S
H929 C937 0.930 . S
H930 C938 0.930 . S
H931 C939 0.930 . S
H932 C942 0.930 . S
H933 C943 0.930 . S
C934 H928 0.930 . S
C934 C935 1.355 . S
C934 C936 1.415 . S
C935 C934 1.355 . S
C935 C937 1.419 . S
C936 C934 1.415 . S
C936 C941 1.425 . S
C936 C943 1.409 . S
C937 H929 0.930 . S
C937 C935 1.419 . S
C937 C938 1.362 . S
C938 H930 0.930 . S
C938 C937 1.362 . S
C938 C941 1.409 . S
C939 H931 0.930 . S
C939 C940 1.355 . S
C939 C941 1.415 . S
C940 C939 1.355 . S
C940 C942 1.419 . S
C941 C936 1.425 . S
C941 C938 1.409 . S
C941 C939 1.415 . S
C942 H932 0.930 . S
C942 C940 1.419 . S
C942 C943 1.362 . S
C943 H933 0.930 . S
C943 C936 1.409 . S
C943 C942 1.362 . S
H944 C950 0.930 . S
H945 C953 0.930 . S
H946 C954 0.930 . S
H947 C955 0.930 . S
H948 C958 0.930 . S
H949 C959 0.930 . S
C950 H944 0.930 . S
C950 C951 1.355 . S
C950 C952 1.415 . S
C951 C950 1.355 . S
C951 C953 1.419 . S
C952 C950 1.415 . S
C952 C957 1.425 . S
C952 C959 1.409 . S
C953 H945 0.930 . S
C953 C951 1.419 . S
C953 C954 1.362 . S
C954 H946 0.930 . S
C954 C953 1.362 . S
C954 C957 1.409 . S
C955 H947 0.930 . S
C955 C956 1.355 . S
C955 C957 1.415 . S
C956 C955 1.355 . S
C956 C958 1.419 . S
C957 C952 1.425 . S
C957 C954 1.409 . S
C957 C955 1.415 . S
C958 H948 0.930 . S
C958 C956 1.419 . S
C958 C959 1.362 . S
C959 H949 0.930 . S
C959 C952 1.409 . S
C959 C958 1.362 . S
H960 C966 0.930 . S
H961 C969 0.930 . S
H962 C970 0.930 . S
H963 C971 0.930 . S
H964 C974 0.930 . S
H965 C975 0.930 . S
C966 H960 0.930 . S
C966 C967 1.355 . S
C966 C968 1.415 . S
C967 C966 1.355 . S
C967 C969 1.419 . S
C968 C966 1.415 . S
C968 C973 1.425 . S
C968 C975 1.409 . S
C969 H961 0.930 . S
C969 C967 1.419 . S
C969 C970 1.362 . S
C970 H962 0.930 . S
C970 C969 1.362 . S
C970 C973 1.409 . S
C971 H963 0.930 . S
C971 C972 1.355 . S
C971 C973 1.415 . S
C972 C971 1.355 . S
C972 C974 1.419 . S
C973 C968 1.425 . S
C973 C970 1.409 . S
C973 C971 1.415 . S
C974 H964 0.930 . S
C974 C972 1.419 . S
C974 C975 1.362 . S
C975 H965 0.930 . S
C975 C968 1.409 . S
C975 C974 1.362 . S
H976 C982 0.930 . S
H977 C985 0.930 . S
H978 C986 0.930 . S
H979 C987 0.930 . S
H980 C990 0.930 . S
H981 C991 0.930 . S
C982 H976 0.930 . S
C982 C983 1.355 . S
C982 C984 1.415 . S
C983 C982 1.355 . S
C983 C985 1.419 . S
C984 C982 1.415 . S
C984 C989 1.425 . S
C984 C991 1.409 . S
C985 H977 0.930 . S
C985 C983 1.419 . S
C985 C986 1.362 . S
C986 H978 0.930 . S
C986 C985 1.362 . S
C986 C989 1.409 . S
C987 H979 0.930 . S
C987 C988 1.355 . S
C987 C989 1.415 . S
C988 C987 1.355 . S
C988 C990 1.419 . S
C989 C984 1.425 . S
C989 C986 1.409 . S
C989 C987 1.415 . S
C990 H980 0.930 . S
C990 C988 1.419 . S
C990 C991 1.362 . S
C991 H981 0.930 . S
C991 C984 1.409 . S
C991 C990 1.362 . S
H992 C998 0.930 . S
H993 C1001 0.930 . S
H994 C1002 0.930 . S
H995 C1003 0.930 . S
H996 C1006 0.930 . S
H997 C1007 0.930 . S
C998 H992 0.930 . S
C998 C999 1.355 . S
C998 C1000 1.415 . S
C999 C998 1.355 . S
C999 C1001 1.419 . S
C1000 C998 1.415 . S
C1000 C1005 1.425 . S
C1000 C1007 1.409 . S
C1001 H993 0.930 . S
C1001 C999 1.419 . S
C1001 C1002 1.362 . S
C1002 H994 0.930 . S
C1002 C1001 1.362 . S
C1002 C1005 1.409 . S
C1003 H995 0.930 . S
C1003 C1004 1.355 . S
C1003 C1005 1.415 . S
C1004 C1003 1.355 . S
C1004 C1006 1.419 . S
C1005 C1000 1.425 . S
C1005 C1002 1.409 . S
C1005 C1003 1.415 . S
C1006 H996 0.930 . S
C1006 C1004 1.419 . S
C1006 C1007 1.362 . S
C1007 H997 0.930 . S
C1007 C1000 1.409 . S
C1007 C1006 1.362 . S
H1008 C1014 0.930 . S
H1009 C1017 0.930 . S
H1010 C1018 0.930 . S
H1011 C1019 0.930 . S
H1012 C1022 0.930 . S
H1013 C1023 0.930 . S
C1014 H1008 0.930 . S
C1014 C1015 1.355 . S
C1014 C1016 1.415 . S
C1015 C1014 1.355 . S
C1015 C1017 1.419 . S
C1016 C1014 1.415 . S
C1016 C1021 1.425 . S
C1016 C1023 1.409 . S
C1017 H1009 0.930 . S
C1017 C1015 1.419 . S
C1017 C1018 1.362 . S
C1018 H1010 0.930 . S
C1018 C1017 1.362 . S
C1018 C1021 1.409 . S
C1019 H1011 0.930 . S
C1019 C1020 1.355 . S
C1019 C1021 1.415 . S
C1020 C1019 1.355 . S
C1020 C1022 1.419 . S
C1021 C1016 1.425 . S
C1021 C1018 1.409 . S
C1021 C1019 1.415 . S
C1022 H1012 0.930 . S
C1022 C1020 1.419 . S
C1022 C1023 1.362 . S
C1023 H1013 0.930 . S
C1023 C1016 1.409 . S
C1023 C1022 1.362 . S
H1024 C1030 0.930 . S
H1025 C1033 0.930 . S
H1026 C1034 0.930 . S
H1027 C1035 0.930 . S
H1028 C1038 0.930 . S
H1029 C1039 0.930 . S
C1030 H1024 0.930 . S
C1030 C1031 1.355 . S
C1030 C1032 1.415 . S
C1031 C1030 1.355 . S
C1031 C1033 1.419 . S
C1032 C1030 1.415 . S
C1032 C1037 1.425 . S
C1032 C1039 1.409 . S
C1033 H1025 0.930 . S
C1033 C1031 1.419 . S
C1033 C1034 1.362 . S
C1034 H1026 0.930 . S
C1034 C1033 1.362 . S
C1034 C1037 1.409 . S
C1035 H1027 0.930 . S
C1035 C1036 1.355 . S
C1035 C1037 1.415 . S
C1036 C1035 1.355 . S
C1036 C1038 1.419 . S
C1037 C1032 1.425 . S
C1037 C1034 1.409 . S
C1037 C1035 1.415 . S
C1038 H1028 0.930 . S
C1038 C1036 1.419 . S
C1038 C1039 1.362 . S
C1039 H1029 0.930 . S
C1039 C1032 1.409 . S
C1039 C1038 1.362 . S
H1040 C1046 0.930 . S
H1041 C1049 0.930 . S
H1042 C1050 0.930 . S
H1043 C1051 0.930 . S
H1044 C1054 0.930 . S
H1045 C1055 0.930 . S
C1046 H1040 0.930 . S
C1046 C1047 1.355 . S
C1046 C1048 1.415 . S
C1047 C1046 1.355 . S
C1047 C1049 1.419 . S
C1048 C1046 1.415 . S
C1048 C1053 1.425 . S
C1048 C1055 1.409 . S
C1049 H1041 0.930 . S
C1049 C1047 1.419 . S
C1049 C1050 1.362 . S
C1050 H1042 0.930 . S
C1050 C1049 1.362 . S
C1050 C1053 1.409 . S
C1051 H1043 0.930 . S
C1051 C1052 1.355 . S
C1051 C1053 1.415 . S
C1052 C1051 1.355 . S
C1052 C1054 1.419 . S
C1053 C1048 1.425 . S
C1053 C1050 1.409 . S
C1053 C1051 1.415 . S
C1054 H1044 0.930 . S
C1054 C1052 1.419 . S
C1054 C1055 1.362 . S
C1055 H1045 0.930 . S
C1055 C1048 1.409 . S
C1055 C1054 1.362 . S
H1056 C1062 0.930 . S
H1057 C1065 0.930 . S
H1058 C1066 0.930 . S
H1059 C1067 0.930 . S
H1060 C1070 0.930 . S
H1061 C1071 0.930 . S
C1062 H1056 0.930 . S
C1062 C1063 1.355 . S
C1062 C1064 1.415 . S
C1063 C1062 1.355 . S
C1063 C1065 1.419 . S
C1064 C1062 1.415 . S
C1064 C1069 1.425 . S
C1064 C1071 1.409 . S
C1065 H1057 0.930 . S
C1065 C1063 1.419 . S
C1065 C1066 1.362 . S
C1066 H1058 0.930 . S
C1066 C1065 1.362 . S
C1066 C1069 1.409 . S
C1067 H1059 0.930 . S
C1067 C1068 1.355 . S
C1067 C1069 1.415 . S
C1068 C1067 1.355 . S
C1068 C1070 1.419 . S
C1069 C1064 1.425 . S
C1069 C1066 1.409 . S
C1069 C1067 1.415 . S
C1070 H1060 0.930 . S
C1070 C1068 1.419 . S
C1070 C1071 1.362 . S
C1071 H1061 0.930 . S
C1071 C1064 1.409 . S
C1071 C1070 1.362 . S
H1072 C1078 0.930 . S
H1073 C1081 0.930 . S
H1074 C1082 0.930 . S
H1075 C1083 0.930 . S
H1076 C1086 0.930 . S
H1077 C1087 0.930 . S
C1078 H1072 0.930 . S
C1078 C1079 1.355 . S
C1078 C1080 1.415 . S
C1079 C1078 1.355 . S
C1079 C1081 1.419 . S
C1080 C1078 1.415 . S
C1080 C1085 1.425 . S
C1080 C1087 1.409 . S
C1081 H1073 0.930 . S
C1081 C1079 1.419 . S
C1081 C1082 1.362 . S
C1082 H1074 0.930 . S
C1082 C1081 1.362 . S
C1082 C1085 1.409 . S
C1083 H1075 0.930 . S
C1083 C1084 1.355 . S
C1083 C1085 1.415 . S
C1084 C1083 1.355 . S
C1084 C1086 1.419 . S
C1085 C1080 1.425 . S
C1085 C1082 1.409 . S
C1085 C1083 1.415 . S
C1086 H1076 0.930 . S
C1086 C1084 1.419 . S
C1086 C1087 1.362 . S
C1087 H1077 0.930 . S
C1087 C1080 1.409 . S
C1087 C1086 1.362 . S
H1088 C1094 0.930 . S
H1089 C1097 0.930 . S
H1090 C1098 0.930 . S
H1091 C1099 0.930 . S
H1092 C1102 0.930 . S
H1093 C1103 0.930 . S
C1094 H1088 0.930 . S
C1094 C1095 1.355 . S
C1094 C1096 1.415 . S
C1095 C1094 1.355 . S
C1095 C1097 1.419 . S
C1096 C1094 1.415 . S
C1096 C1101 1.425 . S
C1096 C1103 1.409 . S
C1097 H1089 0.930 . S
C1097 C1095 1.419 . S
C1097 C1098 1.362 . S
C1098 H1090 0.930 . S
C1098 C1097 1.362 . S
C1098 C1101 1.409 . S
C1099 H1091 0.930 . S
C1099 C1100 1.355 . S
C1099 C1101 1.415 . S
C1100 C1099 1.355 . S
C1100 C1102 1.419 . S
C1101 C1096 1.425 . S
C1101 C1098 1.409 . S
C1101 C1099 1.415 . S
C1102 H1092 0.930 . S
C1102 C1100 1.419 . S
C1102 C1103 1.362 . S
C1103 H1093 0.930 . S
C1103 C1096 1.409 . S
C1103 C1102 1.362 . S
H1104 C1110 0.930 . S
H1105 C1113 0.930 . S
H1106 C1114 0.930 . S
H1107 C1115 0.930 . S
H1108 C1118 0.930 . S
H1109 C1119 0.930 . S
C1110 H1104 0.930 . S
C1110 C1111 1.355 . S
C1110 C1112 1.415 . S
C1111 C1110 1.355 . S
C1111 C1113 1.419 . S
C1112 C1110 1.415 . S
C1112 C1117 1.425 . S
C1112 C1119 1.409 . S
C1113 H1105 0.930 . S
C1113 C1111 1.419 . S
C1113 C1114 1.362 . S
C1114 H1106 0.930 . S
C1114 C1113 1.362 . S
C1114 C1117 1.409 . S
C1115 H1107 0.930 . S
C1115 C1116 1.355 . S
C1115 C1117 1.415 . S
C1116 C1115 1.355 . S
C1116 C1118 1.419 . S
C1117 C1112 1.425 . S
C1117 C1114 1.409 . S
C1117 C1115 1.415 . S
C1118 H1108 0.930 . S
C1118 C1116 1.419 . S
C1118 C1119 1.362 . S
C1119 H1109 0.930 . S
C1119 C1112 1.409 . S
C1119 C1118 1.362 . S
H1120 C1126 0.930 . S
H1121 C1129 0.930 . S
H1122 C1130 0.930 . S
H1123 C1131 0.930 . S
H1124 C1134 0.930 . S
H1125 C1135 0.930 . S
C1126 H1120 0.930 . S
C1126 C1127 1.355 . S
C1126 C1128 1.415 . S
C1127 C1126 1.355 . S
C1127 C1129 1.419 . S
C1128 C1126 1.415 . S
C1128 C1133 1.425 . S
C1128 C1135 1.409 . S
C1129 H1121 0.930 . S
C1129 C1127 1.419 . S
C1129 C1130 1.362 . S
C1130 H1122 0.930 . S
C1130 C1129 1.362 . S
C1130 C1133 1.409 . S
C1131 H1123 0.930 . S
C1131 C1132 1.355 . S
C1131 C1133 1.415 . S
C1132 C1131 1.355 . S
C1132 C1134 1.419 . S
C1133 C1128 1.425 . S
C1133 C1130 1.409 . S
C1133 C1131 1.415 . S
C1134 H1124 0.930 . S
C1134 C1132 1.419 . S
C1134 C1135 1.362 . S
C1135 H1125 0.930 . S
C1135 C1128 1.409 . S
C1135 C1134 1.362 . S
H1136 C1142 0.930 . S
H1137 C1145 0.930 . S
H1138 C1146 0.930 . S
H1139 C1147 0.930 . S
H1140 C1150 0.930 . S
H1141 C1151 0.930 . S
C1142 H1136 0.930 . S
C1142 C1143 1.355 . S
C1142 C1144 1.415 . S
C1143 C1142 1.355 . S
C1143 C1145 1.419 . S
C1144 C1142 1.415 . S
C1144 C1149 1.425 . S
C1144 C1151 1.409 . S
C1145 H1137 0.930 . S
C1145 C1143 1.419 . S
C1145 C1146 1.362 . S
C1146 H1138 0.930 . S
C1146 C1145 1.362 . S
C1146 C1149 1.409 . S
C1147 H1139 0.930 . S
C1147 C1148 1.355 . S
C1147 C1149 1.415 . S
C1148 C1147 1.355 . S
C1148 C1150 1.419 . S
C1149 C1144 1.425 . S
C1149 C1146 1.409 . S
C1149 C1147 1.415 . S
C1150 H1140 0.930 . S
C1150 C1148 1.419 . S
C1150 C1151 1.362 . S
C1151 H1141 0.930 . S
C1151 C1144 1.409 . S
C1151 C1150 1.362 . S
H1152 C1158 0.930 . S
H1153 C1161 0.930 . S
H1154 C1162 0.930 . S
H1155 C1163 0.930 . S
H1156 C1166 0.930 . S
H1157 C1167 0.930 . S
C1158 H1152 0.930 . S
C1158 C1159 1.355 . S
C1158 C1160 1.415 . S
C1159 C1158 1.355 . S
C1159 C1161 1.419 . S
C1160 C1158 1.415 . S
C1160 C1165 1.425 . S
C1160 C1167 1.409 . S
C1161 H1153 0.930 . S
C1161 C1159 1.419 . S
C1161 C1162 1.362 . S
C1162 H1154 0.930 . S
C1162 C1161 1.362 . S
C1162 C1165 1.409 . S
C1163 H1155 0.930 . S
C1163 C1164 1.355 . S
C1163 C1165 1.415 . S
C1164 C1163 1.355 . S
C1164 C1166 1.419 . S
C1165 C1160 1.425 . S
C1165 C1162 1.409 . S
C1165 C1163 1.415 . S
C1166 H1156 0.930 . S
C1166 C1164 1.419 . S
C1166 C1167 1.362 . S
C1167 H1157 0.930 . S
C1167 C1160 1.409 . S
C1167 C1166 1.362 . S
H1168 C1174 0.930 . S
H1169 C1177 0.930 . S
H1170 C1178 0.930 . S
H1171 C1179 0.930 . S
H1172 C1182 0.930 . S
H1173 C1183 0.930 . S
C1174 H1168 0.930 . S
C1174 C1175 1.355 . S
C1174 C1176 1.415 . S
C1175 C1174 1.355 . S
C1175 C1177 1.419 . S
C1176 C1174 1.415 . S
C1176 C1181 1.425 . S
C1176 C1183 1.409 . S
C1177 H1169 0.930 . S
C1177 C1175 1.419 . S
C1177 C1178 1.362 . S
C1178 H1170 0.930 . S
C1178 C1177 1.362 . S
C1178 C1181 1.409 . S
C1179 H1171 0.930 . S
C1179 C1180 1.355 . S
C1179 C1181 1.415 . S
C1180 C1179 1.355 . S
C1180 C1182 1.419 . S
C1181 C1176 1.425 . S
C1181 C1178 1.409 . S
C1181 C1179 1.415 . S
C1182 H1172 0.930 . S
C1182 C1180 1.419 . S
C1182 C1183 1.362 . S
C1183 H1173 0.930 . S
C1183 C1176 1.409 . S
C1183 C1182 1.362 . S
H1184 C1190 0.930 . S
H1185 C1193 0.930 . S
H1186 C1194 0.930 . S
H1187 C1195 0.930 . S
H1188 C1198 0.930 . S
H1189 C1199 0.930 . S
C1190 H1184 0.930 . S
C1190 C1191 1.355 . S
C1190 C1192 1.415 . S
C1191 C1190 1.355 . S
C1191 C1193 1.419 . S
C1192 C1190 1.415 . S
C1192 C1197 1.425 . S
C1192 C1199 1.409 . S
C1193 H1185 0.930 . S
C1193 C1191 1.419 . S
C1193 C1194 1.362 . S
C1194 H1186 0.930 . S
C1194 C1193 1.362 . S
C1194 C1197 1.409 . S
C1195 H1187 0.930 . S
C1195 C1196 1.355 . S
C1195 C1197 1.415 . S
C1196 C1195 1.355 . S
C1196 C1198 1.419 . S
C1197 C1192 1.425 . S
C1197 C1194 1.409 . S
C1197 C1195 1.415 . S
C1198 H1188 0.930 . S
C1198 C1196 1.419 . S
C1198 C1199 1.362 . S
C1199 H1189 0.930 . S
C1199 C1192 1.409 . S
C1199 C1198 1.362 . S
H1200 C1206 0.930 . S
H1201 C1209 0.930 . S
H1202 C1210 0.930 . S
H1203 C1211 0.930 . S
H1204 C1214 0.930 . S
H1205 C1215 0.930 . S
C1206 H1200 0.930 . S
C1206 C1207 1.355 . S
C1206 C1208 1.415 . S
C1207 C1206 1.355 . S
C1207 C1209 1.419 . S
C1208 C1206 1.415 . S
C1208 C1213 1.425 . S
C1208 C1215 1.409 . S
C1209 H1201 0.930 . S
C1209 C1207 1.419 . S
C1209 C1210 1.362 . S
C1210 H1202 0.930 . S
C1210 C1209 1.362 . S
C1210 C1213 1.409 . S
C1211 H1203 0.930 . S
C1211 C1212 1.355 . S
C1211 C1213 1.415 . S
C1212 C1211 1.355 . S
C1212 C1214 1.419 . S
C1213 C1208 1.425 . S
C1213 C1210 1.409 . S
C1213 C1211 1.415 . S
C1214 H1204 0.930 . S
C1214 C1212 1.419 . S
C1214 C1215 1.362 . S
C1215 H1205 0.930 . S
C1215 C1208 1.409 . S
C1215 C1214 1.362 . S
H1216 C1222 0.930 . S
H1217 C1225 0.930 . S
H1218 C1226 0.930 . S
H1219 C1227 0.930 . S
H1220 C1230 0.930 . S
H1221 C1231 0.930 . S
C1222 H1216 0.930 . S
C1222 C1223 1.355 . S
C1222 C1224 1.415 . S
C1223 C1222 1.355 . S
C1223 C1225 1.419 . S
C1224 C1222 1.415 . S
C1224 C1229 1.425 . S
C1224 C1231 1.409 . S
C1225 H1217 0.930 . S
C1225 C1223 1.419 . S
C1225 C1226 1.362 . S
C1226 H1218 0.930 . S
C1226 C1225 1.362 . S
C1226 C1229 1.409 . S
C1227 H1219 0.930 . S
C1227 C1228 1.355 . S
C1227 C1229 1.415 . S
C1228 C1227 1.355 . S
C1228 C1230 1.419 . S
C1229 C1224 1.425 . S
C1229 C1226 1.409 . S
C1229 C1227 1.415 . S
C1230 H1220 0.930 . S
C1230 C1228 1.419 . S
C1230 C1231 1.362 . S
C1231 H1221 0.930 . S
C1231 C1224 1.409 . S
C1231 C1230 1.362 . S
H1232 C1238 0.930 . S
H1233 C1241 0.930 . S
H1234 C1242 0.930 . S
H1235 C1243 0.930 . S
H1236 C1246 0.930 . S
H1237 C1247 0.930 . S
C1238 H1232 0.930 . S
C1238 C1239 1.355 . S
C1238 C1240 1.415 . S
C1239 C1238 1.355 . S
C1239 C1241 1.419 . S
C1240 C1238 1.415 . S
C1240 C1245 1.425 . S
C1240 C1247 1.409 . S
C1241 H1233 0.930 . S
C1241 C1239 1.419 . S
C1241 C1242 1.362 . S
C1242 H1234 0.930 . S
C1242 C1241 1.362 . S
C1242 C1245 1.409 . S
C1243 H1235 0.930 . S
C1243 C1244 1.355 . S
C1243 C1245 1.415 . S
C1244 C1243 1.355 . S
C1244 C1246 1.419 . S
C1245 C1240 1.425 . S
C1245 C1242 1.409 . S
C1245 C1243 1.415 . S
C1246 H1236 0.930 . S
C1246 C1244 1.419 . S
C1246 C1247 1.362 . S
C1247 H1237 0.930 . S
C1247 C1240 1.409 . S
C1247 C1246 1.362 . S
H1248 C1254 0.930 . S
H1249 C1257 0.930 . S
H1250 C1258 0.930 . S
H1251 C1259 0.930 . S
H1252 C1262 0.930 . S
H1253 C1263 0.930 . S
C1254 H1248 0.930 . S
C1254 C1255 1.355 . S
C1254 C1256 1.415 . S
C1255 C1254 1.355 . S
C1255 C1257 1.419 . S
C1256 C1254 1.415 . S
C1256 C1261 1.425 . S
C1256 C1263 1.409 . S
C1257 H1249 0.930 . S
C1257 C1255 1.419 . S
C1257 C1258 1.362 . S
C1258 H1250 0.930 . S
C1258 C1257 1.362 . S
C1258 C1261 1.409 . S
C1259 H1251 0.930 . S
C1259 C1260 1.355 . S
C1259 C1261 1.415 . S
C1260 C1259 1.355 . S
C1260 C1262 1.419 . S
C1261 C1256 1.425 . S
C1261 C1258 1.409 . S
C1261 C1259 1.415 . S
C1262 H1252 0.930 . S
C1262 C1260 1.419 . S
C1262 C1263 1.362 . S
C1263 H1253 0.930 . S
C1263 C1256 1.409 . S
C1263 C1262 1.362 . S
H1264 C1270 0.930 . S
H1265 C1273 0.930 . S
H1266 C1274 0.930 . S
H1267 C1275 0.930 . S
H1268 C1278 0.930 . S
H1269 C1279 0.930 . S
C1270 H1264 0.930 . S
C1270 C1271 1.355 . S
C1270 C1272 1.415 . S
C1271 C1270 1.355 . S
C1271 C1273 1.419 . S
C1272 C1270 1.415 . S
C1272 C1277 1.425 . S
C1272 C1279 1.409 . S
C1273 H1265 0.930 . S
C1273 C1271 1.419 . S
C1273 C1274 1.362 . S
C1274 H1266 0.930 . S
C1274 C1273 1.362 . S
C1274 C1277 1.409 . S
C1275 H1267 0.930 . S
C1275 C1276 1.355 . S
C1275 C1277 1.415 . S
C1276 C1275 1.355 . S
C1276 C1278 1.419 . S
C1277 C1272 1.425 . S
C1277 C1274 1.409 . S
C1277 C1275 1.415 . S
C1278 H1268 0.930 . S
C1278 C1276 1.419 . S
C1278 C1279 1.362 . S
C1279 H1269 0.930 . S
C1279 C1272 1.409 . S
C1279 C1278 1.362 . S
H1280 C1286 0.930 . S
H1281 C1289 0.930 . S
H1282 C1290 0.930 . S
H1283 C1291 0.930 . S
H1284 C1294 0.930 . S
H1285 C1295 0.930 . S
C1286 H1280 0.930 . S
C1286 C1287 1.355 . S
C1286 C1288 1.415 . S
C1287 C1286 1.355 . S
C1287 C1289 1.419 . S
C1288 C1286 1.415 . S
C1288 C1293 1.425 . S
C1288 C1295 1.409 . S
C1289 H1281 0.930 . S
C1289 C1287 1.419 . S
C1289 C1290 1.362 . S
C1290 H1282 0.930 . S
C1290 C1289 1.362 . S
C1290 C1293 1.409 . S
C1291 H1283 0.930 . S
C1291 C1292 1.355 . S
C1291 C1293 1.415 . S
C1292 C1291 1.355 . S
C1292 C1294 1.419 . S
C1293 C1288 1.425 . S
C1293 C1290 1.409 . S
C1293 C1291 1.415 . S
C1294 H1284 0.930 . S
C1294 C1292 1.419 . S
C1294 C1295 1.362 . S
C1295 H1285 0.930 . S
C1295 C1288 1.409 . S
C1295 C1294 1.362 . S
H1296 C1302 0.930 . S
H1297 C1305 0.930 . S
H1298 C1306 0.930 . S
H1299 C1307 0.930 . S
H1300 C1310 0.930 . S
H1301 C1311 0.930 . S
C1302 H1296 0.930 . S
C1302 C1303 1.355 . S
C1302 C1304 1.415 . S
C1303 C1302 1.355 . S
C1303 C1305 1.419 . S
C1304 C1302 1.415 . S
C1304 C1309 1.425 . S
C1304 C1311 1.409 . S
C1305 H1297 0.930 . S
C1305 C1303 1.419 . S
C1305 C1306 1.362 . S
C1306 H1298 0.930 . S
C1306 C1305 1.362 . S
C1306 C1309 1.409 . S
C1307 H1299 0.930 . S
C1307 C1308 1.355 . S
C1307 C1309 1.415 . S
C1308 C1307 1.355 . S
C1308 C1310 1.419 . S
C1309 C1304 1.425 . S
C1309 C1306 1.409 . S
C1309 C1307 1.415 . S
C1310 H1300 0.930 . S
C1310 C1308 1.419 . S
C1310 C1311 1.362 . S
C1311 H1301 0.930 . S
C1311 C1304 1.409 . S
C1311 C1310 1.362 . S
H1312 C1318 0.930 . S
H1313 C1321 0.930 . S
H1314 C1322 0.930 . S
H1315 C1323 0.930 . S
H1316 C1326 0.930 . S
H1317 C1327 0.930 . S
C1318 H1312 0.930 . S
C1318 C1319 1.355 . S
C1318 C1320 1.415 . S
C1319 C1318 1.355 . S
C1319 C1321 1.419 . S
C1320 C1318 1.415 . S
C1320 C1325 1.425 . S
C1320 C1327 1.409 . S
C1321 H1313 0.930 . S
C1321 C1319 1.419 . S
C1321 C1322 1.362 . S
C1322 H1314 0.930 . S
C1322 C1321 1.362 . S
C1322 C1325 1.409 . S
C1323 H1315 0.930 . S
C1323 C1324 1.355 . S
C1323 C1325 1.415 . S
C1324 C1323 1.355 . S
C1324 C1326 1.419 . S
C1325 C1320 1.425 . S
C1325 C1322 1.409 . S
C1325 C1323 1.415 . S
C1326 H1316 0.930 . S
C1326 C1324 1.419 . S
C1326 C1327 1.362 . S
C1327 H1317 0.930 . S
C1327 C1320 1.409 . S
C1327 C1326 1.362 . S
H1328 C1334 0.930 . S
H1329 C1337 0.930 . S
H1330 C1338 0.930 . S
H1331 C1339 0.930 . S
H1332 C1342 0.930 . S
H1333 C1343 0.930 . S
C1334 H1328 0.930 . S
C1334 C1335 1.355 . S
C1334 C1336 1.415 . S
C1335 C1334 1.355 . S
C1335 C1337 1.419 . S
C1336 C1334 1.415 . S
C1336 C1341 1.425 . S
C1336 C1343 1.409 . S
C1337 H1329 0.930 . S
C1337 C1335 1.419 . S
C1337 C1338 1.362 . S
C1338 H1330 0.930 . S
C1338 C1337 1.362 . S
C1338 C1341 1.409 . S
C1339 H1331 0.930 . S
C1339 C1340 1.355 . S
C1339 C1341 1.415 . S
C1340 C1339 1.355 . S
C1340 C1342 1.419 . S
C1341 C1336 1.425 . S
C1341 C1338 1.409 . S
C1341 C1339 1.415 . S
C1342 H1332 0.930 . S
C1342 C1340 1.419 . S
C1342 C1343 1.362 . S
C1343 H1333 0.930 . S
C1343 C1336 1.409 . S
C1343 C1342 1.362 . S
H1344 C1350 0.930 . S
H1345 C1353 0.930 . S
H1346 C1354 0.930 . S
H1347 C1355 0.930 . S
H1348 C1358 0.930 . S
H1349 C1359 0.930 . S
C1350 H1344 0.930 . S
C1350 C1351 1.355 . S
C1350 C1352 1.415 . S
C1351 C1350 1.355 . S
C1351 C1353 1.419 . S
C1352 C1350 1.415 . S
C1352 C1357 1.425 . S
C1352 C1359 1.409 . S
C1353 H1345 0.930 . S
C1353 C1351 1.419 . S
C1353 C1354 1.362 . S
C1354 H1346 0.930 . S
C1354 C1353 1.362 . S
C1354 C1357 1.409 . S
C1355 H1347 0.930 . S
C1355 C1356 1.355 . S
C1355 C1357 1.415 . S
C1356 C1355 1.355 . S
C1356 C1358 1.419 . S
C1357 C1352 1.425 . S
C1357 C1354 1.409 . S
C1357 C1355 1.415 . S
C1358 H1348 0.930 . S
C1358 C1356 1.419 . S
C1358 C1359 1.362 . S
C1359 H1349 0.930 . S
C1359 C1352 1.409 . S
C1359 C1358 1.362 . S
H1360 C1366 0.930 . S
H1361 C1369 0.930 . S
H1362 C1370 0.930 . S
H1363 C1371 0.930 . S
H1364 C1374 0.930 . S
H1365 C1375 0.930 . S
C1366 H1360 0.930 . S
C1366 C1367 1.355 . S
C1366 C1368 1.415 . S
C1367 C1366 1.355 . S
C1367 C1369 1.419 . S
C1368 C1366 1.415 . S
C1368 C1373 1.425 . S
C1368 C1375 1.409 . S
C1369 H1361 0.930 . S
C1369 C1367 1.419 . S
C1369 C1370 1.362 . S
C1370 H1362 0.930 . S
C1370 C1369 1.362 . S
C1370 C1373 1.409 . S
C1371 H1363 0.930 . S
C1371 C1372 1.355 . S
C1371 C1373 1.415 . S
C1372 C1371 1.355 . S
C1372 C1374 1.419 . S
C1373 C1368 1.425 . S
C1373 C1370 1.409 . S
C1373 C1371 1.415 . S
C1374 H1364 0.930 . S
C1374 C1372 1.419 . S
C1374 C1375 1.362 . S
C1375 H1365 0.930 . S
C1375 C1368 1.409 . S
C1375 C1374 1.362 . S
H1376 C1382 0.930 . S
H1377 C1385 0.930 . S
H1378 C1386 0.930 . S
H1379 C1387 0.930 . S
H1380 C1390 0.930 . S
H1381 C1391 0.930 . S
C1382 H1376 0.930 . S
C1382 C1383 1.355 . S
C1382 C1384 1.415 . S
C1383 C1382 1.355 . S
C1383 C1385 1.419 . S
C1384 C1382 1.415 . S
C1384 C1389 1.425 . S
C1384 C1391 1.409 . S
C1385 H1377 0.930 . S
C1385 C1383 1.419 . S
C1385 C1386 1.362 . S
C1386 H1378 0.930 . S
C1386 C1385 1.362 . S
C1386 C1389 1.409 . S
C1387 H1379 0.930 . S
C1387 C1388 1.355 . S
C1387 C1389 1.415 . S
C1388 C1387 1.355 . S
C1388 C1390 1.419 . S
C1389 C1384 1.425 . S
C1389 C1386 1.409 . S
C1389 C1387 1.415 . S
C1390 H1380 0.930 . S
C1390 C1388 1.419 . S
C1390 C1391 1.362 . S
C1391 H1381 0.930 . S
C1391 C1384 1.409 . S
C1391 C1390 1.362 . S
H1392 C1398 0.930 . S
H1393 C1401 0.930 . S
H1394 C1402 0.930 . S
H1395 C1403 0.930 . S
H1396 C1406 0.930 . S
H1397 C1407 0.930 . S
C1398 H1392 0.930 . S
C1398 C1399 1.355 . S
C1398 C1400 1.415 . S
C1399 C1398 1.355 . S
C1399 C1401 1.419 . S
C1400 C1398 1.415 . S
C1400 C1405 1.425 . S
C1400 C1407 1.409 . S
C1401 H1393 0.930 . S
C1401 C1399 1.419 . S
C1401 C1402 1.362 . S
C1402 H1394 0.930 . S
C1402 C1401 1.362 . S
C1402 C1405 1.409 . S
C1403 H1395 0.930 . S
C1403 C1404 1.355 . S
C1403 C1405 1.415 . S
C1404 C1403 1.355 . S
C1404 C1406 1.419 . S
C1405 C1400 1.425 . S
C1405 C1402 1.409 . S
C1405 C1403 1.415 . S
C1406 H1396 0.930 . S
C1406 C1404 1.419 . S
C1406 C1407 1.362 . S
C1407 H1397 0.930 . S
C1407 C1400 1.409 . S
C1407 C1406 1.362 . S
H1408 C1414 0.930 . S
H1409 C1417 0.930 . S
H1410 C1418 0.930 . S
H1411 C1419 0.930 . S
H1412 C1422 0.930 . S
H1413 C1423 0.930 . S
C1414 H1408 0.930 . S
C1414 C1415 1.355 . S
C1414 C1416 1.415 . S
C1415 C1414 1.355 . S
C1415 C1417 1.419 . S
C1416 C1414 1.415 . S
C1416 C1421 1.425 . S
C1416 C1423 1.409 . S
C1417 H1409 0.930 . S
C1417 C1415 1.419 . S
C1417 C1418 1.362 . S
C1418 H1410 0.930 . S
C1418 C1417 1.362 . S
C1418 C1421 1.409 . S
C1419 H1411 0.930 . S
C1419 C1420 1.355 . S
C1419 C1421 1.415 . S
C1420 C1419 1.355 . S
C1420 C1422 1.419 . S
C1421 C1416 1.425 . S
C1421 C1418 1.409 . S
C1421 C1419 1.415 . S
C1422 H1412 0.930 . S
C1422 C1420 1.419 . S
C1422 C1423 1.362 . S
C1423 H1413 0.930 . S
C1423 C1416 1.409 . S
C1423 C1422 1.362 . S
H1424 C1430 0.930 . S
H1425 C1433 0.930 . S
H1426 C1434 0.930 . S
H1427 C1435 0.930 . S
H1428 C1438 0.930 . S
H1429 C1439 0.930 . S
C1430 H1424 0.930 . S
C1430 C1431 1.355 . S
C1430 C1432 1.415 . S
C1431 C1430 1.355 . S
C1431 C1433 1.419 . S
C1432 C1430 1.415 . S
C1432 C1437 1.425 . S
C1432 C1439 1.409 . S
C1433 H1425 0.930 . S
C1433 C1431 1.419 . S
C1433 C1434 1.362 . S
C1434 H1426 0.930 . S
C1434 C1433 1.362 . S
C1434 C1437 1.409 . S
C1435 H1427 0.930 . S
C1435 C1436 1.355 . S
C1435 C1437 1.415 . S
C1436 C1435 1.355 . S
C1436 C1438 1.419 . S
C1437 C1432 1.425 . S
C1437 C1434 1.409 . S
C1437 C1435 1.415 . S
C1438 H1428 0.930 . S
C1438 C1436 1.419 . S
C1438 C1439 1.362 . S
C1439 H1429 0.930 . S
C1439 C1432 1.409 . S
C1439 C1438 1.362 . S
H1440 C1446 0.930 . S
H1441 C1449 0.930 . S
H1442 C1450 0.930 . S
H1443 C1451 0.930 . S
H1444 C1454 0.930 . S
H1445 C1455 0.930 . S
C1446 H1440 0.930 . S
C1446 C1447 1.355 . S
C1446 C1448 1.415 . S
C1447 C1446 1.355 . S
C1447 C1449 1.419 . S
C1448 C1446 1.415 . S
C1448 C1453 1.425 . S
C1448 C1455 1.409 . S
C1449 H1441 0.930 . S
C1449 C1447 1.419 . S
C1449 C1450 1.362 . S
C1450 H1442 0.930 . S
C1450 C1449 1.362 . S
C1450 C1453 1.409 . S
C1451 H1443 0.930 . S
C1451 C1452 1.355 . S
C1451 C1453 1.415 . S
C1452 C1451 1.355 . S
C1452 C1454 1.419 . S
C1453 C1448 1.425 . S
C1453 C1450 1.409 . S
C1453 C1451 1.415 . S
C1454 H1444 0.930 . S
C1454 C1452 1.419 . S
C1454 C1455 1.362 . S
C1455 H1445 0.930 . S
C1455 C1448 1.409 . S
C1455 C1454 1.362 . S
H1456 C1462 0.930 . S
H1457 C1465 0.930 . S
H1458 C1466 0.930 . S
H1459 C1467 0.930 . S
H1460 C1470 0.930 . S
H1461 C1471 0.930 . S
C1462 H1456 0.930 . S
C1462 C1463 1.355 . S
C1462 C1464 1.415 . S
C1463 C1462 1.355 . S
C1463 C1465 1.419 . S
C1464 C1462 1.415 . S
C1464 C1469 1.425 . S
C1464 C1471 1.409 . S
C1465 H1457 0.930 . S
C1465 C1463 1.419 . S
C1465 C1466 1.362 . S
C1466 H1458 0.930 . S
C1466 C1465 1.362 . S
C1466 C1469 1.409 . S
C1467 H1459 0.930 . S
C1467 C1468 1.355 . S
C1467 C1469 1.415 . S
C1468 C1467 1.355 . S
C1468 C1470 1.419 . S
C1469 C1464 1.425 . S
C1469 C1466 1.409 . S
C1469 C1467 1.415 . S
C1470 H1460 0.930 . S
C1470 C1468 1.419 . S
C1470 C1471 1.362 . S
C1471 H1461 0.930 . S
C1471 C1464 1.409 . S
C1471 C1470 1.362 . S
H1472 C1478 0.930 . S
H1473 C1481 0.930 . S
H1474 C1482 0.930 . S
H1475 C1483 0.930 . S
H1476 C1486 0.930 . S
H1477 C1487 0.930 . S
C1478 H1472 0.930 . S
C1478 C1479 1.355 . S
C1478 C1480 1.415 . S
C1479 C1478 1.355 . S
C1479 C1481 1.419 . S
C1480 C1478 1.415 . S
C1480 C1485 1.425 . S
C1480 C1487 1.409 . S
C1481 H1473 0.930 . S
C1481 C1479 1.419 . S
C1481 C1482 1.362 . S
C1482 H1474 0.930 . S
C1482 C1481 1.362 . S
C1482 C1485 1.409 . S
C1483 H1475 0.930 . S
C1483 C1484 1.355 . S
C1483 C1485 1.415 . S
C1484 C1483 1.355 . S
C1484 C1486 1.419 . S
C1485 C1480 1.425 . S
C1485 C1482 1.409 . S
C1485 C1483 1.415 . S
C1486 H1476 0.930 . S
C1486 C1484 1.419 . S
C1486 C1487 1.362 . S
C1487 H1477 0.930 . S
C1487 C1480 1.409 . S
C1487 C1486 1.362 . S
H1488 C1494 0.930 . S
H1489 C1497 0.930 . S
H1490 C1498 0.930 . S
H1491 C1499 0.930 . S
H1492 C1502 0.930 . S
H1493 C1503 0.930 . S
C1494 H1488 0.930 . S
C1494 C1495 1.355 . S
C1494 C1496 1.415 . S
C1495 C1494 1.355 . S
C1495 C1497 1.419 . S
C1496 C1494 1.415 . S
C1496 C1501 1.425 . S
C1496 C1503 1.409 . S
C1497 H1489 0.930 . S
C1497 C1495 1.419 . S
C1497 C1498 1.362 . S
C1498 H1490 0.930 . S
C1498 C1497 1.362 . S
C1498 C1501 1.409 . S
C1499 H1491 0.930 . S
C1499 C1500 1.355 . S
C1499 C1501 1.415 . S
C1500 C1499 1.355 . S
C1500 C1502 1.419 . S
C1501 C1496 1.425 . S
C1501 C1498 1.409 . S
C1501 C1499 1.415 . S
C1502 H1492 0.930 . S
C1502 C1500 1.419 . S
C1502 C1503 1.362 . S
C1503 H1493 0.930 . S
C1503 C1496 1.409 . S
C1503 C1502 1.362 . S
H1504 C1510 0.930 . S
H1505 C1513 0.930 . S
H1506 C1514 0.930 . S
H1507 C1515 0.930 . S
H1508 C1518 0.930 . S
H1509 C1519 0.930 . S
C1510 H1504 0.930 . S
C1510 C1511 1.355 . S
C1510 C1512 1.415 . S
C1511 C1510 1.355 . S
C1511 C1513 1.419 . S
C1512 C1510 1.415 . S
C1512 C1517 1.425 . S
C1512 C1519 1.409 . S
C1513 H1505 0.930 . S
C1513 C1511 1.419 . S
C1513 C1514 1.362 . S
C1514 H1506 0.930 . S
C1514 C1513 1.362 . S
C1514 C1517 1.409 . S
C1515 H1507 0.930 . S
C1515 C1516 1.355 . S
C1515 C1517 1.415 . S
C1516 C1515 1.355 . S
C1516 C1518 1.419 . S
C1517 C1512 1.425 . S
C1517 C1514 1.409 . S
C1517 C1515 1.415 . S
C1518 H1508 0.930 . S
C1518 C1516 1.419 . S
C1518 C1519 1.362 . S
C1519 H1509 0.930 . S
C1519 C1512 1.409 . S
C1519 C1518 1.362 . S
H1520 C1526 0.930 . S
H1521 C1529 0.930 . S
H1522 C1530 0.930 . S
H1523 C1531 0.930 . S
H1524 C1534 0.930 . S
H1525 C1535 0.930 . S
C1526 H1520 0.930 . S
C1526 C1527 1.355 . S
C1526 C1528 1.415 . S
C1527 C1526 1.355 . S
C1527 C1529 1.419 . S
C1528 C1526 1.415 . S
C1528 C1533 1.425 . S
C1528 C1535 1.409 . S
C1529 H1521 0.930 . S
C1529 C1527 1.419 . S
C1529 C1530 1.362 . S
C1530 H1522 0.930 . S
C1530 C1529 1.362 . S
C1530 C1533 1.409 . S
C1531 H1523 0.930 . S
C1531 C1532 1.355 . S
C1531 C1533 1.415 . S
C1532 C1531 1.355 . S
C1532 C1534 1.419 . S
C1533 C1528 1.425 . S
C1533 C1530 1.409 . S
C1533 C1531 1.415 . S
C1534 H1524 0.930 . S
C1534 C1532 1.419 . S
C1534 C1535 1.362 . S
C1535 H1525 0.930 . S
C1535 C1528 1.409 . S
C1535 C1534 1.362 . S
H1536 C1542 0.930 . S
H1537 C1545 0.930 . S
H1538 C1546 0.930 . S
H1539 C1547 0.930 . S
H1540 C1550 0.930 . S
H1541 C1551 0.930 . S
C1542 H1536 0.930 . S
C1542 C1543 1.355 . S
C1542 C1544 1.415 . S
C1543 C1542 1.355 . S
C1543 C1545 1.419 . S
C1544 C1542 1.415 . S
C1544 C1549 1.425 . S
C1544 C1551 1.409 . S
C1545 H1537 0.930 . S
C1545 C1543 1.419 . S
C1545 C1546 1.362 . S
C1546 H1538 0.930 . S
C1546 C1545 1.362 . S
C1546 C1549 1.409 . S
C1547 H1539 0.930 . S
C1547 C1548 1.355 . S
C1547 C1549 1.415 . S
C1548 C1547 1.355 . S
C1548 C1550 1.419 . S
C1549 C1544 1.425 . S
C1549 C1546 1.409 . S
C1549 C1547 1.415 . S
C1550 H1540 0.930 . S
C1550 C1548 1.419 . S
C1550 C1551 1.362 . S
C1551 H1541 0.930 . S
C1551 C1544 1.409 . S
C1551 C1550 1.362 . S
H1552 C1558 0.930 . S
H1553 C1561 0.930 . S
H1554 C1562 0.930 . S
H1555 C1563 0.930 . S
H1556 C1566 0.930 . S
H1557 C1567 0.930 . S
C1558 H1552 0.930 . S
C1558 C1559 1.355 . S
C1558 C1560 1.415 . S
C1559 C1558 1.355 . S
C1559 C1561 1.419 . S
C1560 C1558 1.415 . S
C1560 C1565 1.425 . S
C1560 C1567 1.409 . S
C1561 H1553 0.930 . S
C1561 C1559 1.419 . S
C1561 C1562 1.362 . S
C1562 H1554 0.930 . S
C1562 C1561 1.362 . S
C1562 C1565 1.409 . S
C1563 H1555 0.930 . S
C1563 C1564 1.355 . S
C1563 C1565 1.415 . S
C1564 C1563 1.355 . S
C1564 C1566 1.419 . S
C1565 C1560 1.425 . S
C1565 C1562 1.409 . S
C1565 C1563 1.415 . S
C1566 H1556 0.930 . S
C1566 C1564 1.419 . S
C1566 C1567 1.362 . S
C1567 H1557 0.930 . S
C1567 C1560 1.409 . S
C1567 C1566 1.362 . S
H1568 C1574 0.930 . S
H1569 C1577 0.930 . S
H1570 C1578 0.930 . S
H1571 C1579 0.930 . S
H1572 C1582 0.930 . S
H1573 C1583 0.930 . S
C1574 H1568 0.930 . S
C1574 C1575 1.355 . S
C1574 C1576 1.415 . S
C1575 C1574 1.355 . S
C1575 C1577 1.419 . S
C1576 C1574 1.415 . S
C1576 C1581 1.425 . S
C1576 C1583 1.409 . S
C1577 H1569 0.930 . S
C1577 C1575 1.419 . S
C1577 C1578 1.362 . S
C1578 H1570 0.930 . S
C1578 C1577 1.362 . S
C1578 C1581 1.409 . S
C1579 H1571 0.930 . S
C1579 C1580 1.355 . S
C1579 C1581 1.415 . S
C1580 C1579 1.355 . S
C1580 C1582 1.419 . S
C1581 C1576 1.425 . S
C1581 C1578 1.409 . S
C1581 C1579 1.415 . S
C1582 H1572 0.930 . S
C1582 C1580 1.419 . S
C1582 C1583 1.362 . S
C1583 H1573 0.930 . S
C1583 C1576 1.409 . S
C1583 C1582 1.362 . S
H1584 C1590 0.930 . S
H1585 C1593 0.930 . S
H1586 C1594 0.930 . S
H1587 C1595 0.930 . S
H1588 C1598 0.930 . S
H1589 C1599 0.930 . S
C1590 H1584 0.930 . S
C1590 C1591 1.355 . S
C1590 C1592 1.415 . S
C1591 C1590 1.355 . S
C1591 C1593 1.419 . S
C1592 C1590 1.415 . S
C1592 C1597 1.425 . S
C1592 C1599 1.409 . S
C1593 H1585 0.930 . S
C1593 C1591 1.419 . S
C1593 C1594 1.362 . S
C1594 H1586 0.930 . S
C1594 C1593 1.362 . S
C1594 C1597 1.409 . S
C1595 H1587 0.930 . S
C1595 C1596 1.355 . S
C1595 C1597 1.415 . S
C1596 C1595 1.355 . S
C1596 C1598 1.419 . S
C1597 C1592 1.425 . S
C1597 C1594 1.409 . S
C1597 C1595 1.415 . S
C1598 H1588 0.930 . S
C1598 C1596 1.419 . S
C1598 C1599 1.362 . S
C1599 H1589 0.930 . S
C1599 C1592 1.409 . S
C1599 C1598 1.362 . S
H1600 C1606 0.930 . S
H1601 C1609 0.930 . S
H1602 C1610 0.930 . S
H1603 C1611 0.930 . S
H1604 C1614 0.930 . S
H1605 C1615 0.930 . S
C1606 H1600 0.930 . S
C1606 C1607 1.355 . S
C1606 C1608 1.415 . S
C1607 C1606 1.355 . S
C1607 C1609 1.419 . S
C1608 C1606 1.415 . S
C1608 C1613 1.425 . S
C1608 C1615 1.409 . S
C1609 H1601 0.930 . S
C1609 C1607 1.419 . S
C1609 C1610 1.362 . S
C1610 H1602 0.930 . S
C1610 C1609 1.362 . S
C1610 C1613 1.409 . S
C1611 H1603 0.930 . S
C1611 C1612 1.355 . S
C1611 C1613 1.415 . S
C1612 C1611 1.355 . S
C1612 C1614 1.419 . S
C1613 C1608 1.425 . S
C1613 C1610 1.409 . S
C1613 C1611 1.415 . S
C1614 H1604 0.930 . S
C1614 C1612 1.419 . S
C1614 C1615 1.362 . S
C1615 H1605 0.930 . S
C1615 C1608 1.409 . S
C1615 C1614 1.362 . S
H1616 C1622 0.930 . S
H1617 C1625 0.930 . S
H1618 C1626 0.930 . S
H1619 C1627 0.930 . S
H1620 C1630 0.930 . S
H1621 C1631 0.930 . S
C1622 H1616 0.930 . S
C1622 C1623 1.355 . S
C1622 C1624 1.415 . S
C1623 C1622 1.355 . S
C1623 C1625 1.419 . S
C1624 C1622 1.415 . S
C1624 C1629 1.425 . S
C1624 C1631 1.409 . S
C1625 H1617 0.930 . S
C1625 C1623 1.419 . S
C1625 C1626 1.362 . S
C1626 H1618 0.930 . S
C1626 C1625 1.362 . S
C1626 C1629 1.409 . S
C1627 H1619 0.930 . S
C1627 C1628 1.355 . S
C1627 C1629 1.415 . S
C1628 C1627 1.355 . S
C1628 C1630 1.419 . S
C1629 C1624 1.425 . S
C1629 C1626 1.409 . S
C1629 C1627 1.415 . S
C1630 H1620 0.930 . S
C1630 C1628 1.419 . S
C1630 C1631 1.362 . S
C1631 H1621 0.930 . S
C1631 C1624 1.409 . S
C1631 C1630 1.362 . S
H1632 C1638 0.930 . S
H1633 C1641 0.930 . S
H1634 C1642 0.930 . S
H1635 C1643 0.930 . S
H1636 C1646 0.930 . S
H1637 C1647 0.930 . S
C1638 H1632 0.930 . S
C1638 C1639 1.355 . S
C1638 C1640 1.415 . S
C1639 C1638 1.355 . S
C1639 C1641 1.419 . S
C1640 C1638 1.415 . S
C1640 C1645 1.425 . S
C1640 C1647 1.409 . S
C1641 H1633 0.930 . S
C1641 C1639 1.419 . S
C1641 C1642 1.362 . S
C1642 H1634 0.930 . S
C1642 C1641 1.362 . S
C1642 C1645 1.409 . S
C1643 H1635 0.930 . S
C1643 C1644 1.355 . S
C1643 C1645 1.415 . S
C1644 C1643 1.355 . S
C1644 C1646 1.419 . S
C1645 C1640 1.425 . S
C1645 C1642 1.409 . S
C1645 C1643 1.415 . S
C1646 H1636 0.930 . S
C1646 C1644 1.419 . S
C1646 C1647 1.362 . S
C1647 H1637 0.930 . S
C1647 C1640 1.409 . S
C1647 C1646 1.362 . S
H1648 C1654 0.930 . S
H1649 C1657 0.930 . S
H1650 C1658 0.930 . S
H1651 C1659 0.930 . S
H1652 C1662 0.930 . S
H1653 C1663 0.930 . S
C1654 H1648 0.930 . S
C1654 C1655 1.355 . S
C1654 C1656 1.415 . S
C1655 C1654 1.355 . S
C1655 C1657 1.419 . S
C1656 C1654 1.415 . S
C1656 C1661 1.425 . S
C1656 C1663 1.409 . S
C1657 H1649 0.930 . S
C1657 C1655 1.419 . S
C1657 C1658 1.362 . S
C1658 H1650 0.930 . S
C1658 C1657 1.362 . S
C1658 C1661 1.409 . S
C1659 H1651 0.930 . S
C1659 C1660 1.355 . S
C1659 C1661 1.415 . S
C1660 C1659 1.355 . S
C1660 C1662 1.419 . S
C1661 C1656 1.425 . S
C1661 C1658 1.409 . S
C1661 C1659 1.415 . S
C1662 H1652 0.930 . S
C1662 C1660 1.419 . S
C1662 C1663 1.362 . S
C1663 H1653 0.930 . S
C1663 C1656 1.409 . S
C1663 C1662 1.362 . S
H1664 C1670 0.930 . S
H1665 C1673 0.930 . S
H1666 C1674 0.930 . S
H1667 C1675 0.930 . S
H1668 C1678 0.930 . S
H1669 C1679 0.930 . S
C1670 H1664 0.930 . S
C1670 C1671 1.355 . S
C1670 C1672 1.415 . S
C1671 C1670 1.355 . S
C1671 C1673 1.419 . S
C1672 C1670 1.415 . S
C1672 C1677 1.425 . S
C1672 C1679 1.409 . S
C1673 H1665 0.930 . S
C1673 C1671 1.419 . S
C1673 C1674 1.362 . S
C1674 H1666 0.930 . S
C1674 C1673 1.362 . S
C1674 C1677 1.409 . S
C1675 H1667 0.930 . S
C1675 C1676 1.355 . S
C1675 C1677 1.415 . S
C1676 C1675 1.355 . S
C1676 C1678 1.419 . S
C1677 C1672 1.425 . S
C1677 C1674 1.409 . S
C1677 C1675 1.415 . S
C1678 H1668 0.930 . S
C1678 C1676 1.419 . S
C1678 C1679 1.362 . S
C1679 H1669 0.930 . S
C1679 C1672 1.409 . S
C1679 C1678 1.362 . S
H1680 C1686 0.930 . S
H1681 C1689 0.930 . S
H1682 C1690 0.930 . S
H1683 C1691 0.930 . S
H1684 C1694 0.930 . S
H1685 C1695 0.930 . S
C1686 H1680 0.930 . S
C1686 C1687 1.355 . S
C1686 C1688 1.415 . S
C1687 C1686 1.355 . S
C1687 C1689 1.419 . S
C1688 C1686 1.415 . S
C1688 C1693 1.425 . S
C1688 C1695 1.409 . S
C1689 H1681 0.930 . S
C1689 C1687 1.419 . S
C1689 C1690 1.362 . S
C1690 H1682 0.930 . S
C1690 C1689 1.362 . S
C1690 C1693 1.409 . S
C1691 H1683 0.930 . S
C1691 C1692 1.355 . S
C1691 C1693 1.415 . S
C1692 C1691 1.355 . S
C1692 C1694 1.419 . S
C1693 C1688 1.425 . S
C1693 C1690 1.409 . S
C1693 C1691 1.415 . S
C1694 H1684 0.930 . S
C1694 C1692 1.419 . S
C1694 C1695 1.362 . S
C1695 H1685 0.930 . S
C1695 C1688 1.409 . S
C1695 C1694 1.362 . S
H1696 C1702 0.930 . S
H1697 C1705 0.930 . S
H1698 C1706 0.930 . S
H1699 C1707 0.930 . S
H1700 C1710 0.930 . S
H1701 C1711 0.930 . S
C1702 H1696 0.930 . S
C1702 C1703 1.355 . S
C1702 C1704 1.415 . S
C1703 C1702 1.355 . S
C1703 C1705 1.419 . S
C1704 C1702 1.415 . S
C1704 C1709 1.425 . S
C1704 C1711 1.409 . S
C1705 H1697 0.930 . S
C1705 C1703 1.419 . S
C1705 C1706 1.362 . S
C1706 H1698 0.930 . S
C1706 C1705 1.362 . S
C1706 C1709 1.409 . S
C1707 H1699 0.930 . S
C1707 C1708 1.355 . S
C1707 C1709 1.415 . S
C1708 C1707 1.355 . S
C1708 C1710 1.419 . S
C1709 C1704 1.425 . S
C1709 C1706 1.409 . S
C1709 C1707 1.415 . S
C1710 H1700 0.930 . S
C1710 C1708 1.419 . S
C1710 C1711 1.362 . S
C1711 H1701 0.930 . S
C1711 C1704 1.409 . S
C1711 C1710 1.362 . S
H1712 C1718 0.930 . S
H1713 C1721 0.930 . S
H1714 C1722 0.930 . S
H1715 C1723 0.930 . S
H1716 C1726 0.930 . S
H1717 C1727 0.930 . S
C1718 H1712 0.930 . S
C1718 C1719 1.355 . S
C1718 C1720 1.415 . S
C1719 C1718 1.355 . S
C1719 C1721 1.419 . S
C1720 C1718 1.415 . S
C1720 C1725 1.425 . S
C1720 C1727 1.409 . S
C1721 H1713 0.930 . S
C1721 C1719 1.419 . S
C1721 C1722 1.362 . S
C1722 H1714 0.930 . S
C1722 C1721 1.362 . S
C1722 C1725 1.409 . S
C1723 H1715 0.930 . S
C1723 C1724 1.355 . S
C1723 C1725 1.415 . S
C1724 C1723 1.355 . S
C1724 C1726 1.419 . S
C1725 C1720 1.425 . S
C1725 C1722 1.409 . S
C1725 C1723 1.415 . S
C1726 H1716 0.930 . S
C1726 C1724 1.419 . S
C1726 C1727 1.362 . S
C1727 H1717 0.930 . S
C1727 C1720 1.409 . S
C1727 C1726 1.362 . S
H1728 C1734 0.930 . S
H1729 C1737 0.930 . S
H1730 C1738 0.930 . S
H1731 C1739 0.930 . S
H1732 C1742 0.930 . S
H1733 C1743 0.930 . S
C1734 H1728 0.930 . S
C1734 C1735 1.355 . S
C1734 C1736 1.415 . S
C1735 C1734 1.355 . S
C1735 C1737 1.419 . S
C1736 C1734 1.415 . S
C1736 C1741 1.425 . S
C1736 C1743 1.409 . S
C1737 H1729 0.930 . S
C1737 C1735 1.419 . S
C1737 C1738 1.362 . S
C1738 H1730 0.930 . S
C1738 C1737 1.362 . S
C1738 C1741 1.409 . S
C1739 H1731 0.930 . S
C1739 C1740 1.355 . S
C1739 C1741 1.415 . S
C1740 C1739 1.355 . S
C1740 C1742 1.419 . S
C1741 C1736 1.425 . S
C1741 C1738 1.409 . S
C1741 C1739 1.415 . S
C1742 H1732 0.930 . S
C1742 C1740 1.419 . S
C1742 C1743 1.362 . S
C1743 H1733 0.930 . S
C1743 C1736 1.409 . S
C1743 C1742 1.362 . S
H1744 C1750 0.930 . S
H1745 C1753 0.930 . S
H1746 C1754 0.930 . S
H1747 C1755 0.930 . S
H1748 C1758 0.930 . S
H1749 C1759 0.930 . S
C1750 H1744 0.930 . S
C1750 C1751 1.355 . S
C1750 C1752 1.415 . S
C1751 C1750 1.355 . S
C1751 C1753 1.419 . S
C1752 C1750 1.415 . S
C1752 C1757 1.425 . S
C1752 C1759 1.409 . S
C1753 H1745 0.930 . S
C1753 C1751 1.419 . S
C1753 C1754 1.362 . S
C1754 H1746 0.930 . S
C1754 C1753 1.362 . S
C1754 C1757 1.409 . S
C1755 H1747 0.930 . S
C1755 C1756 1.355 . S
C1755 C1757 1.415 . S
C1756 C1755 1.355 . S
C1756 C1758 1.419 . S
C1757 C1752 1.425 . S
C1757 C1754 1.409 . S
C1757 C1755 1.415 . S
C1758 H1748 0.930 . S
C1758 C1756 1.419 . S
C1758 C1759 1.362 . S
C1759 H1749 0.930 . S
C1759 C1752 1.409 . S
C1759 C1758 1.362 . S
H1760 C1766 0.930 . S
H1761 C1769 0.930 . S
H1762 C1770 0.930 . S
H1763 C1771 0.930 . S
H1764 C1774 0.930 . S
H1765 C1775 0.930 . S
C1766 H1760 0.930 . S
C1766 C1767 1.355 . S
C1766 C1768 1.415 . S
C1767 C1766 1.355 . S
C1767 C1769 1.419 . S
C1768 C1766 1.415 . S
C1768 C1773 1.425 . S
C1768 C1775 1.409 . S
C1769 H1761 0.930 . S
C1769 C1767 1.419 . S
C1769 C1770 1.362 . S
C1770 H1762 0.930 . S
C1770 C1769 1.362 . S
C1770 C1773 1.409 . S
C1771 H1763 0.930 . S
C1771 C1772 1.355 . S
C1771 C1773 1.415 . S
C1772 C1771 1.355 . S
C1772 C1774 1.419 . S
C1773 C1768 1.425 . S
C1773 C1770 1.409 . S
C1773 C1771 1.415 . S
C1774 H1764 0.930 . S
C1774 C1772 1.419 . S
C1774 C1775 1.362 . S
C1775 H1765 0.930 . S
C1775 C1768 1.409 . S
C1775 C1774 1.362 . S
H1776 C1782 0.930 . S
H1777 C1785 0.930 . S
H1778 C1786 0.930 . S
H1779 C1787 0.930 . S
H1780 C1790 0.930 . S
H1781 C1791 0.930 . S
C1782 H1776 0.930 . S
C1782 C1783 1.355 . S
C1782 C1784 1.415 . S
C1783 C1782 1.355 . S
C1783 C1785 1.419 . S
C1784 C1782 1.415 . S
C1784 C1789 1.425 . S
C1784 C1791 1.409 . S
C1785 H1777 0.930 . S
C1785 C1783 1.419 . S
C1785 C1786 1.362 . S
C1786 H1778 0.930 . S
C1786 C1785 1.362 . S
C1786 C1789 1.409 . S
C1787 H1779 0.930 . S
C1787 C1788 1.355 . S
C1787 C1789 1.415 . S
C1788 C1787 1.355 . S
C1788 C1790 1.419 . S
C1789 C1784 1.425 . S
C1789 C1786 1.409 . S
C1789 C1787 1.415 . S
C1790 H1780 0.930 . S
C1790 C1788 1.419 . S
C1790 C1791 1.362 . S
C1791 H1781 0.930 . S
C1791 C1784 1.409 . S
C1791 C1790 1.362 . S
H1792 C1798 0.930 . S
H1793 C1801 0.930 . S
H1794 C1802 0.930 . S
H1795 C1803 0.930 . S
H1796 C1806 0.930 . S
H1797 C1807 0.930 . S
C1798 H1792 0.930 . S
C1798 C1799 1.355 . S
C1798 C1800 1.415 . S
C1799 C1798 1.355 . S
C1799 C1801 1.419 . S
C1800 C1798 1.415 . S
C1800 C1805 1.425 . S
C1800 C1807 1.409 . S
C1801 H1793 0.930 . S
C1801 C1799 1.419 . S
C1801 C1802 1.362 . S
C1802 H1794 0.930 . S
C1802 C1801 1.362 . S
C1802 C1805 1.409 . S
C1803 H1795 0.930 . S
C1803 C1804 1.355 . S
C1803 C1805 1.415 . S
C1804 C1803 1.355 . S
C1804 C1806 1.419 . S
C1805 C1800 1.425 . S
C1805 C1802 1.409 . S
C1805 C1803 1.415 . S
C1806 H1796 0.930 . S
C1806 C1804 1.419 . S
C1806 C1807 1.362 . S
C1807 H1797 0.930 . S
C1807 C1800 1.409 . S
C1807 C1806 1.362 . S
H1808 C1814 0.930 . S
H1809 C1817 0.930 . S
H1810 C1818 0.930 . S
H1811 C1819 0.930 . S
H1812 C1822 0.930 . S
H1813 C1823 0.930 . S
C1814 H1808 0.930 . S
C1814 C1815 1.355 . S
C1814 C1816 1.415 . S
C1815 C1814 1.355 . S
C1815 C1817 1.419 . S
C1816 C1814 1.415 . S
C1816 C1821 1.425 . S
C1816 C1823 1.409 . S
C1817 H1809 0.930 . S
C1817 C1815 1.419 . S
C1817 C1818 1.362 . S
C1818 H1810 0.930 . S
C1818 C1817 1.362 . S
C1818 C1821 1.409 . S
C1819 H1811 0.930 . S
C1819 C1820 1.355 . S
C1819 C1821 1.415 . S
C1820 C1819 1.355 . S
C1820 C1822 1.419 . S
C1821 C1816 1.425 . S
C1821 C1818 1.409 . S
C1821 C1819 1.415 . S
C1822 H1812 0.930 . S
C1822 C1820 1.419 . S
C1822 C1823 1.362 . S
C1823 H1813 0.930 . S
C1823 C1816 1.409 . S
C1823 C1822 1.362 . S
H1824 C1830 0.930 . S
H1825 C1833 0.930 . S
H1826 C1834 0.930 . S
H1827 C1835 0.930 . S
H1828 C1838 0.930 . S
H1829 C1839 0.930 . S
C1830 H1824 0.930 . S
C1830 C1831 1.355 . S
C1830 C1832 1.415 . S
C1831 C1830 1.355 . S
C1831 C1833 1.419 . S
C1832 C1830 1.415 . S
C1832 C1837 1.425 . S
C1832 C1839 1.409 . S
C1833 H1825 0.930 . S
C1833 C1831 1.419 . S
C1833 C1834 1.362 . S
C1834 H1826 0.930 . S
C1834 C1833 1.362 . S
C1834 C1837 1.409 . S
C1835 H1827 0.930 . S
C1835 C1836 1.355 . S
C1835 C1837 1.415 . S
C1836 C1835 1.355 . S
C1836 C1838 1.419 . S
C1837 C1832 1.425 . S
C1837 C1834 1.409 . S
C1837 C1835 1.415 . S
C1838 H1828 0.930 . S
C1838 C1836 1.419 . S
C1838 C1839 1.362 . S
C1839 H1829 0.930 . S
C1839 C1832 1.409 . S
C1839 C1838 1.362 . S
H1840 C1846 0.930 . S
H1841 C1849 0.930 . S
H1842 C1850 0.930 . S
H1843 C1851 0.930 . S
H1844 C1854 0.930 . S
H1845 C1855 0.930 . S
C1846 H1840 0.930 . S
C1846 C1847 1.355 . S
C1846 C1848 1.415 . S
C1847 C1846 1.355 . S
C1847 C1849 1.419 . S
C1848 C1846 1.415 . S
C1848 C1853 1.425 . S
C1848 C1855 1.409 . S
C1849 H1841 0.930 . S
C1849 C1847 1.419 . S
C1849 C1850 1.362 . S
C1850 H1842 0.930 . S
C1850 C1849 1.362 . S
C1850 C1853 1.409 . S
C1851 H1843 0.930 . S
C1851 C1852 1.355 . S
C1851 C1853 1.415 . S
C1852 C1851 1.355 . S
C1852 C1854 1.419 . S
C1853 C1848 1.425 . S
C1853 C1850 1.409 . S
C1853 C1851 1.415 . S
C1854 H1844 0.930 . S
C1854 C1852 1.419 . S
C1854 C1855 1.362 . S
C1855 H1845 0.930 . S
C1855 C1848 1.409 . S
C1855 C1854 1.362 . S
H1856 C1862 0.930 . S
H1857 C1865 0.930 . S
H1858 C1866 0.930 . S
H1859 C1867 0.930 . S
H1860 C1870 0.930 . S
H1861 C1871 0.930 . S
C1862 H1856 0.930 . S
C1862 C1863 1.355 . S
C1862 C1864 1.415 . S
C1863 C1862 1.355 . S
C1863 C1865 1.419 . S
C1864 C1862 1.415 . S
C1864 C1869 1.425 . S
C1864 C1871 1.409 . S
C1865 H1857 0.930 . S
C1865 C1863 1.419 . S
C1865 C1866 1.362 . S
C1866 H1858 0.930 . S
C1866 C1865 1.362 . S
C1866 C1869 1.409 . S
C1867 H1859 0.930 . S
C1867 C1868 1.355 . S
C1867 C1869 1.415 . S
C1868 C1867 1.355 . S
C1868 C1870 1.419 . S
C1869 C1864 1.425 . S
C1869 C1866 1.409 . S
C1869 C1867 1.415 . S
C1870 H1860 0.930 . S
C1870 C1868 1.419 . S
C1870 C1871 1.362 . S
C1871 H1861 0.930 . S
C1871 C1864 1.409 . S
C1871 C1870 1.362 . S
H1872 C1878 0.930 . S
H1873 C1881 0.930 . S
H1874 C1882 0.930 . S
H1875 C1883 0.930 . S
H1876 C1886 0.930 . S
H1877 C1887 0.930 . S
C1878 H1872 0.930 . S
C1878 C1879 1.355 . S
C1878 C1880 1.415 . S
C1879 C1878 1.355 . S
C1879 C1881 1.419 . S
C1880 C1878 1.415 . S
C1880 C1885 1.425 . S
C1880 C1887 1.409 . S
C1881 H1873 0.930 . S
C1881 C1879 1.419 . S
C1881 C1882 1.362 . S
C1882 H1874 0.930 . S
C1882 C1881 1.362 . S
C1882 C1885 1.409 . S
C1883 H1875 0.930 . S
C1883 C1884 1.355 . S
C1883 C1885 1.415 . S
C1884 C1883 1.355 . S
C1884 C1886 1.419 . S
C1885 C1880 1.425 . S
C1885 C1882 1.409 . S
C1885 C1883 1.415 . S
C1886 H1876 0.930 . S
C1886 C1884 1.419 . S
C1886 C1887 1.362 . S
C1887 H1877 0.930 . S
C1887 C1880 1.409 . S
C1887 C1886 1.362 . S
H1888 C1894 0.930 . S
H1889 C1897 0.930 . S
H1890 C1898 0.930 . S
H1891 C1899 0.930 . S
H1892 C1902 0.930 . S
H1893 C1903 0.930 . S
C1894 H1888 0.930 . S
C1894 C1895 1.355 . S
C1894 C1896 1.415 . S
C1895 C1894 1.355 . S
C1895 C1897 1.419 . S
C1896 C1894 1.415 . S
C1896 C1901 1.425 . S
C1896 C1903 1.409 . S
C1897 H1889 0.930 . S
C1897 C1895 1.419 . S
C1897 C1898 1.362 . S
C1898 H1890 0.930 . S
C1898 C1897 1.362 . S
C1898 C1901 1.409 . S
C1899 H1891 0.930 . S
C1899 C1900 1.355 . S
C1899 C1901 1.415 . S
C1900 C1899 1.355 . S
C1900 C1902 1.419 . S
C1901 C1896 1.425 . S
C1901 C1898 1.409 . S
C1901 C1899 1.415 . S
C1902 H1892 0.930 . S
C1902 C1900 1.419 . S
C1902 C1903 1.362 . S
C1903 H1893 0.930 . S
C1903 C1896 1.409 . S
C1903 C1902 1.362 . S
H1904 C1910 0.930 . S
H1905 C1913 0.930 . S
H1906 C1914 0.930 . S
H1907 C1915 0.930 . S
H1908 C1918 0.930 . S
H1909 C1919 0.930 . S
C1910 H1904 0.930 . S
C1910 C1911 1.355 . S
C1910 C1912 1.415 . S
C1911 C1910 1.355 . S
C1911 C1913 1.419 . S
C1912 C1910 1.415 . S
C1912 C1917 1.425 . S
C1912 C1919 1.409 . S
C1913 H1905 0.930 . S
C1913 C1911 1.419 . S
C1913 C1914 1.362 . S
C1914 H1906 0.930 . S
C1914 C1913 1.362 . S
C1914 C1917 1.409 . S
C1915 H1907 0.930 . S
C1915 C1916 1.355 . S
C1915 C1917 1.415 . S
C1916 C1915 1.355 . S
C1916 C1918 1.419 . S
C1917 C1912 1.425 . S
C1917 C1914 1.409 . S
C1917 C1915 1.415 . S
C1918 H1908 0.930 . S
C1918 C1916 1.419 . S
C1918 C1919 1.362 . S
C1919 H1909 0.930 . S
C1919 C1912 1.409 . S
C1919 C1918 1.362 . S
H1920 C1926 0.930 . S
H1921 C1929 0.930 . S
H1922 C1930 0.930 . S
H1923 C1931 0.930 . S
H1924 C1934 0.930 . S
H1925 C1935 0.930 . S
C1926 H1920 0.930 . S
C1926 C1927 1.355 . S
C1926 C1928 1.415 . S
C1927 C1926 1.355 . S
C1927 C1929 1.419 . S
C1928 C1926 1.415 . S
C1928 C1933 1.425 . S
C1928 C1935 1.409 . S
C1929 H1921 0.930 . S
C1929 C1927 1.419 . S
C1929 C1930 1.362 . S
C1930 H1922 0.930 . S
C1930 C1929 1.362 . S
C1930 C1933 1.409 . S
C1931 H1923 0.930 . S
C1931 C1932 1.355 . S
C1931 C1933 1.415 . S
C1932 C1931 1.355 . S
C1932 C1934 1.419 . S
C1933 C1928 1.425 . S
C1933 C1930 1.409 . S
C1933 C1931 1.415 . S
C1934 H1924 0.930 . S
C1934 C1932 1.419 . S
C1934 C1935 1.362 . S
C1935 H1925 0.930 . S
C1935 C1928 1.409 . S
C1935 C1934 1.362 . S
H1936 C1942 0.930 . S
H1937 C1945 0.930 . S
H1938 C1946 0.930 . S
H1939 C1947 0.930 . S
H1940 C1950 0.930 . S
H1941 C1951 0.930 . S
C1942 H1936 0.930 . S
C1942 C1943 1.355 . S
C1942 C1944 1.415 . S
C1943 C1942 1.355 . S
C1943 C1945 1.419 . S
C1944 C1942 1.415 . S
C1944 C1949 1.425 . S
C1944 C1951 1.409 . S
C1945 H1937 0.930 . S
C1945 C1943 1.419 . S
C1945 C1946 1.362 . S
C1946 H1938 0.930 . S
C1946 C1945 1.362 . S
C1946 C1949 1.409 . S
C1947 H1939 0.930 . S
C1947 C1948 1.355 . S
C1947 C1949 1.415 . S
C1948 C1947 1.355 . S
C1948 C1950 1.419 . S
C1949 C1944 1.425 . S
C1949 C1946 1.409 . S
C1949 C1947 1.415 . S
C1950 H1940 0.930 . S
C1950 C1948 1.419 . S
C1950 C1951 1.362 . S
C1951 H1941 0.930 . S
C1951 C1944 1.409 . S
C1951 C1950 1.362 . S
H1952 C1958 0.930 . S
H1953 C1961 0.930 . S
H1954 C1962 0.930 . S
H1955 C1963 0.930 . S
H1956 C1966 0.930 . S
H1957 C1967 0.930 . S
C1958 H1952 0.930 . S
C1958 C1959 1.355 . S
C1958 C1960 1.415 . S
C1959 C1958 1.355 . S
C1959 C1961 1.419 . S
C1960 C1958 1.415 . S
C1960 C1965 1.425 . S
C1960 C1967 1.409 . S
C1961 H1953 0.930 . S
C1961 C1959 1.419 . S
C1961 C1962 1.362 . S
C1962 H1954 0.930 . S
C1962 C1961 1.362 . S
C1962 C1965 1.409 . S
C1963 H1955 0.930 . S
C1963 C1964 1.355 . S
C1963 C1965 1.415 . S
C1964 C1963 1.355 . S
C1964 C1966 1.419 . S
C1965 C1960 1.425 . S
C1965 C1962 1.409 . S
C1965 C1963 1.415 . S
C1966 H1956 0.930 . S
C1966 C1964 1.419 . S
C1966 C1967 1.362 . S
C1967 H1957 0.930 . S
C1967 C1960 1.409 . S
C1967 C1966 1.362 . S
H1968 C1974 0.930 . S
H1969 C1977 0.930 . S
H1970 C1978 0.930 . S
H1971 C1979 0.930 . S
H1972 C1982 0.930 . S
H1973 C1983 0.930 . S
C1974 H1968 0.930 . S
C1974 C1975 1.355 . S
C1974 C1976 1.415 . S
C1975 C1974 1.355 . S
C1975 C1977 1.419 . S
C1976 C1974 1.415 . S
C1976 C1981 1.425 . S
C1976 C1983 1.409 . S
C1977 H1969 0.930 . S
C1977 C1975 1.419 . S
C1977 C1978 1.362 . S
C1978 H1970 0.930 . S
C1978 C1977 1.362 . S
C1978 C1981 1.409 . S
C1979 H1971 0.930 . S
C1979 C1980 1.355 . S
C1979 C1981 1.415 . S
C1980 C1979 1.355 . S
C1980 C1982 1.419 . S
C1981 C1976 1.425 . S
C1981 C1978 1.409 . S
C1981 C1979 1.415 . S
C1982 H1972 0.930 . S
C1982 C1980 1.419 . S
C1982 C1983 1.362 . S
C1983 H1973 0.930 . S
C1983 C1976 1.409 . S
C1983 C1982 1.362 . S
H1984 C1990 0.930 . S
H1985 C1993 0.930 . S
H1986 C1994 0.930 . S
H1987 C1995 0.930 . S
H1988 C1998 0.930 . S
H1989 C1999 0.930 . S
C1990 H1984 0.930 . S
C1990 C1991 1.355 . S
C1990 C1992 1.415 . S
C1991 C1990 1.355 . S
C1991 C1993 1.419 . S
C1992 C1990 1.415 . S
C1992 C1997 1.425 . S
C1992 C1999 1.409 . S
C1993 H1985 0.930 . S
C1993 C1991 1.419 . S
C1993 C1994 1.362 . S
C1994 H1986 0.930 . S
C1994 C1993 1.362 . S
C1994 C1997 1.409 . S
C1995 H1987 0.930 . S
C1995 C1996 1.355 . S
C1995 C1997 1.415 . S
C1996 C1995 1.355 . S
C1996 C1998 1.419 . S
C1997 C1992 1.425 . S
C1997 C1994 1.409 . S
C1997 C1995 1.415 . S
C1998 H1988 0.930 . S
C1998 C1996 1.419 . S
C1998 C1999 1.362 . S
C1999 H1989 0.930 . S
C1999 C1992 1.409 . S
C1999 C1998 1.362 . S
H2000 C2006 0.930 . S
H2001 C2009 0.930 . S
H2002 C2010 0.930 . S
H2003 C2011 0.930 . S
H2004 C2014 0.930 . S
H2005 C2015 0.930 . S
C2006 H2000 0.930 . S
C2006 C2007 1.355 . S
C2006 C2008 1.415 . S
C2007 C2006 1.355 . S
C2007 C2009 1.419 . S
C2008 C2006 1.415 . S
C2008 C2013 1.425 . S
C2008 C2015 1.409 . S
C2009 H2001 0.930 . S
C2009 C2007 1.419 . S
C2009 C2010 1.362 . S
C2010 H2002 0.930 . S
C2010 C2009 1.362 . S
C2010 C2013 1.409 . S
C2011 H2003 0.930 . S
C2011 C2012 1.355 . S
C2011 C2013 1.415 . S
C2012 C2011 1.355 . S
C2012 C2014 1.419 . S
C2013 C2008 1.425 . S
C2013 C2010 1.409 . S
C2013 C2011 1.415 . S
C2014 H2004 0.930 . S
C2014 C2012 1.419 . S
C2014 C2015 1.362 . S
C2015 H2005 0.930 . S
C2015 C2008 1.409 . S
C2015 C2014 1.362 . S
H2016 C2022 0.930 . S
H2017 C2025 0.930 . S
H2018 C2026 0.930 . S
H2019 C2027 0.930 . S
H2020 C2030 0.930 . S
H2021 C2031 0.930 . S
C2022 H2016 0.930 . S
C2022 C2023 1.355 . S
C2022 C2024 1.415 . S
C2023 C2022 1.355 . S
C2023 C2025 1.419 . S
C2024 C2022 1.415 . S
C2024 C2029 1.425 . S
C2024 C2031 1.409 . S
C2025 H2017 0.930 . S
C2025 C2023 1.419 . S
C2025 C2026 1.362 . S
C2026 H2018 0.930 . S
C2026 C2025 1.362 . S
C2026 C2029 1.409 . S
C2027 H2019 0.930 . S
C2027 C2028 1.355 . S
C2027 C2029 1.415 . S
C2028 C2027 1.355 . S
C2028 C2030 1.419 . S
C2029 C2024 1.425 . S
C2029 C2026 1.409 . S
C2029 C2027 1.415 . S
C2030 H2020 0.930 . S
C2030 C2028 1.419 . S
C2030 C2031 1.362 . S
C2031 H2021 0.930 . S
C2031 C2024 1.409 . S
C2031 C2030 1.362 . S
H2032 C2038 0.930 . S
H2033 C2041 0.930 . S
H2034 C2042 0.930 . S
H2035 C2043 0.930 . S
H2036 C2046 0.930 . S
H2037 C2047 0.930 . S
C2038 H2032 0.930 . S
C2038 C2039 1.355 . S
C2038 C2040 1.415 . S
C2039 C2038 1.355 . S
C2039 C2041 1.419 . S
C2040 C2038 1.415 . S
C2040 C2045 1.425 . S
C2040 C2047 1.409 . S
C2041 H2033 0.930 . S
C2041 C2039 1.419 . S
C2041 C2042 1.362 . S
C2042 H2034 0.930 . S
C2042 C2041 1.362 . S
C2042 C2045 1.409 . S
C2043 H2035 0.930 . S
C2043 C2044 1.355 . S
C2043 C2045 1.415 . S
C2044 C2043 1.355 . S
C2044 C2046 1.419 . S
C2045 C2040 1.425 . S
C2045 C2042 1.409 . S
C2045 C2043 1.415 . S
C2046 H2036 0.930 . S
C2046 C2044 1.419 . S
C2046 C2047 1.362 . S
C2047 H2037 0.930 . S
C2047 C2040 1.409 . S
C2047 C2046 1.362 . S
H2048 C2054 0.930 . S
H2049 C2057 0.930 . S
H2050 C2058 0.930 . S
H2051 C2059 0.930 . S
H2052 C2062 0.930 . S
H2053 C2063 0.930 . S
C2054 H2048 0.930 . S
C2054 C2055 1.355 . S
C2054 C2056 1.415 . S
C2055 C2054 1.355 . S
C2055 C2057 1.419 . S
C2056 C2054 1.415 . S
C2056 C2061 1.425 . S
C2056 C2063 1.409 . S
C2057 H2049 0.930 . S
C2057 C2055 1.419 . S
C2057 C2058 1.362 . S
C2058 H2050 0.930 . S
C2058 C2057 1.362 . S
C2058 C2061 1.409 . S
C2059 H2051 0.930 . S
C2059 C2060 1.355 . S
C2059 C2061 1.415 . S
C2060 C2059 1.355 . S
C2060 C2062 1.419 . S
C2061 C2056 1.425 . S
C2061 C2058 1.409 . S
C2061 C2059 1.415 . S
C2062 H2052 0.930 . S
C2062 C2060 1.419 . S
C2062 C2063 1.362 . S
C2063 H2053 0.930 . S
C2063 C2056 1.409 . S
C2063 C2062 1.362 . S
H2064 C2070 0.930 . S
H2065 C2073 0.930 . S
H2066 C2074 0.930 . S
H2067 C2075 0.930 . S
H2068 C2078 0.930 . S
H2069 C2079 0.930 . S
C2070 H2064 0.930 . S
C2070 C2071 1.355 . S
C2070 C2072 1.415 . S
C2071 C2070 1.355 . S
C2071 C2073 1.419 . S
C2072 C2070 1.415 . S
C2072 C2077 1.425 . S
C2072 C2079 1.409 . S
C2073 H2065 0.930 . S
C2073 C2071 1.419 . S
C2073 C2074 1.362 . S
C2074 H2066 0.930 . S
C2074 C2073 1.362 . S
C2074 C2077 1.409 . S
C2075 H2067 0.930 . S
C2075 C2076 1.355 . S
C2075 C2077 1.415 . S
C2076 C2075 1.355 . S
C2076 C2078 1.419 . S
C2077 C2072 1.425 . S
C2077 C2074 1.409 . S
C2077 C2075 1.415 . S
C2078 H2068 0.930 . S
C2078 C2076 1.419 . S
C2078 C2079 1.362 . S
C2079 H2069 0.930 . S
C2079 C2072 1.409 . S
C2079 C2078 1.362 . S
H2080 C2086 0.930 . S
H2081 C2089 0.930 . S
H2082 C2090 0.930 . S
H2083 C2091 0.930 . S
H2084 C2094 0.930 . S
H2085 C2095 0.930 . S
C2086 H2080 0.930 . S
C2086 C2087 1.355 . S
C2086 C2088 1.415 . S
C2087 C2086 1.355 . S
C2087 C2089 1.419 . S
C2088 C2086 1.415 . S
C2088 C2093 1.425 . S
C2088 C2095 1.409 . S
C2089 H2081 0.930 . S
C2089 C2087 1.419 . S
C2089 C2090 1.362 . S
C2090 H2082 0.930 . S
C2090 C2089 1.362 . S
C2090 C2093 1.409 . S
C2091 H2083 0.930 . S
C2091 C2092 1.355 . S
C2091 C2093 1.415 . S
C2092 C2091 1.355 . S
C2092 C2094 1.419 . S
C2093 C2088 1.425 . S
C2093 C2090 1.409 . S
C2093 C2091 1.415 . S
C2094 H2084 0.930 . S
C2094 C2092 1.419 . S
C2094 C2095 1.362 . S
C2095 H2085 0.930 . S
C2095 C2088 1.409 . S
C2095 C2094 1.362 . S
H2096 C2102 0.930 . S
H2097 C2105 0.930 . S
H2098 C2106 0.930 . S
H2099 C2107 0.930 . S
H2100 C2110 0.930 . S
H2101 C2111 0.930 . S
C2102 H2096 0.930 . S
C2102 C2103 1.355 . S
C2102 C2104 1.415 . S
C2103 C2102 1.355 . S
C2103 C2105 1.419 . S
C2104 C2102 1.415 . S
C2104 C2109 1.425 . S
C2104 C2111 1.409 . S
C2105 H2097 0.930 . S
C2105 C2103 1.419 . S
C2105 C2106 1.362 . S
C2106 H2098 0.930 . S
C2106 C2105 1.362 . S
C2106 C2109 1.409 . S
C2107 H2099 0.930 . S
C2107 C2108 1.355 . S
C2107 C2109 1.415 . S
C2108 C2107 1.355 . S
C2108 C2110 1.419 . S
C2109 C2104 1.425 . S
C2109 C2106 1.409 . S
C2109 C2107 1.415 . S
C2110 H2100 0.930 . S
C2110 C2108 1.419 . S
C2110 C2111 1.362 . S
C2111 H2101 0.930 . S
C2111 C2104 1.409 . S
C2111 C2110 1.362 . S
H2112 C2118 0.930 . S
H2113 C2121 0.930 . S
H2114 C2122 0.930 . S
H2115 C2123 0.930 . S
H2116 C2126 0.930 . S
H2117 C2127 0.930 . S
C2118 H2112 0.930 . S
C2118 C2119 1.355 . S
C2118 C2120 1.415 . S
C2119 C2118 1.355 . S
C2119 C2121 1.419 . S
C2120 C2118 1.415 . S
C2120 C2125 1.425 . S
C2120 C2127 1.409 . S
C2121 H2113 0.930 . S
C2121 C2119 1.419 . S
C2121 C2122 1.362 . S
C2122 H2114 0.930 . S
C2122 C2121 1.362 . S
C2122 C2125 1.409 . S
C2123 H2115 0.930 . S
C2123 C2124 1.355 . S
C2123 C2125 1.415 . S
C2124 C2123 1.355 . S
C2124 C2126 1.419 . S
C2125 C2120 1.425 . S
C2125 C2122 1.409 . S
C2125 C2123 1.415 . S
C2126 H2116 0.930 . S
C2126 C2124 1.419 . S
C2126 C2127 1.362 . S
C2127 H2117 0.930 . S
C2127 C2120 1.409 . S
C2127 C2126 1.362 . S
H2128 C2134 0.930 . S
H2129 C2137 0.930 . S
H2130 C2138 0.930 . S
H2131 C2139 0.930 . S
H2132 C2142 0.930 . S
H2133 C2143 0.930 . S
C2134 H2128 0.930 . S
C2134 C2135 1.355 . S
C2134 C2136 1.415 . S
C2135 C2134 1.355 . S
C2135 C2137 1.419 . S
C2136 C2134 1.415 . S
C2136 C2141 1.425 . S
C2136 C2143 1.409 . S
C2137 H2129 0.930 . S
C2137 C2135 1.419 . S
C2137 C2138 1.362 . S
C2138 H2130 0.930 . S
C2138 C2137 1.362 . S
C2138 C2141 1.409 . S
C2139 H2131 0.930 . S
C2139 C2140 1.355 . S
C2139 C2141 1.415 . S
C2140 C2139 1.355 . S
C2140 C2142 1.419 . S
C2141 C2136 1.425 . S
C2141 C2138 1.409 . S
C2141 C2139 1.415 . S
C2142 H2132 0.930 . S
C2142 C2140 1.419 . S
C2142 C2143 1.362 . S
C2143 H2133 0.930 . S
C2143 C2136 1.409 . S
C2143 C2142 1.362 . S
H2144 C2150 0.930 . S
H2145 C2153 0.930 . S
H2146 C2154 0.930 . S
H2147 C2155 0.930 . S
H2148 C2158 0.930 . S
H2149 C2159 0.930 . S
C2150 H2144 0.930 . S
C2150 C2151 1.355 . S
C2150 C2152 1.415 . S
C2151 C2150 1.355 . S
C2151 C2153 1.419 . S
C2152 C2150 1.415 . S
C2152 C2157 1.425 . S
C2152 C2159 1.409 . S
C2153 H2145 0.930 . S
C2153 C2151 1.419 . S
C2153 C2154 1.362 . S
C2154 H2146 0.930 . S
C2154 C2153 1.362 . S
C2154 C2157 1.409 . S
C2155 H2147 0.930 . S
C2155 C2156 1.355 . S
C2155 C2157 1.415 . S
C2156 C2155 1.355 . S
C2156 C2158 1.419 . S
C2157 C2152 1.425 . S
C2157 C2154 1.409 . S
C2157 C2155 1.415 . S
C2158 H2148 0.930 . S
C2158 C2156 1.419 . S
C2158 C2159 1.362 . S
C2159 H2149 0.930 . S
C2159 C2152 1.409 . S
C2159 C2158 1.362 . S
H2160 C2166 0.930 . S
H2161 C2169 0.930 . S
H2162 C2170 0.930 . S
H2163 C2171 0.930 . S
H2164 C2174 0.930 . S
H2165 C2175 0.930 . S
C2166 H2160 0.930 . S
C2166 C2167 1.355 . S
C2166 C2168 1.415 . S
C2167 C2166 1.355 . S
C2167 C2169 1.419 . S
C2168 C2166 1.415 . S
C2168 C2173 1.425 . S
C2168 C2175 1.409 . S
C2169 H2161 0.930 . S
C2169 C2167 1.419 . S
C2169 C2170 1.362 . S
C2170 H2162 0.930 . S
C2170 C2169 1.362 . S
C2170 C2173 1.409 . S
C2171 H2163 0.930 . S
C2171 C2172 1.355 . S
C2171 C2173 1.415 . S
C2172 C2171 1.355 . S
C2172 C2174 1.419 . S
C2173 C2168 1.425 . S
C2173 C2170 1.409 . S
C2173 C2171 1.415 . S
C2174 H2164 0.930 . S
C2174 C2172 1.419 . S
C2174 C2175 1.362 . S
C2175 H2165 0.930 . S
C2175 C2168 1.409 . S
C2175 C2174 1.362 . S
H2176 C2182 0.930 . S
H2177 C2185 0.930 . S
H2178 C2186 0.930 . S
H2179 C2187 0.930 . S
H2180 C2190 0.930 . S
H2181 C2191 0.930 . S
C2182 H2176 0.930 . S
C2182 C2183 1.355 . S
C2182 C2184 1.415 . S
C2183 C2182 1.355 . S
C2183 C2185 1.419 . S
C2184 C2182 1.415 . S
C2184 C2189 1.425 . S
C2184 C2191 1.409 . S
C2185 H2177 0.930 . S
C2185 C2183 1.419 . S
C2185 C2186 1.362 . S
C2186 H2178 0.930 . S
C2186 C2185 1.362 . S
C2186 C2189 1.409 . S
C2187 H2179 0.930 . S
C2187 C2188 1.355 . S
C2187 C2189 1.415 . S
C2188 C2187 1.355 . S
C2188 C2190 1.419 . S
C2189 C2184 1.425 . S
C2189 C2186 1.409 . S
C2189 C2187 1.415 . S
C2190 H2180 0.930 . S
C2190 C2188 1.419 . S
C2190 C2191 1.362 . S
C2191 H2181 0.930 . S
C2191 C2184 1.409 . S
C2191 C2190 1.362 . S
H2192 C2198 0.930 . S
H2193 C2201 0.930 . S
H2194 C2202 0.930 . S
H2195 C2203 0.930 . S
H2196 C2206 0.930 . S
H2197 C2207 0.930 . S
C2198 H2192 0.930 . S
C2198 C2199 1.355 . S
C2198 C2200 1.415 . S
C2199 C2198 1.355 . S
C2199 C2201 1.419 . S
C2200 C2198 1.415 . S
C2200 C2205 1.425 . S
C2200 C2207 1.409 . S
C2201 H2193 0.930 . S
C2201 C2199 1.419 . S
C2201 C2202 1.362 . S
C2202 H2194 0.930 . S
C2202 C2201 1.362 . S
C2202 C2205 1.409 . S
C2203 H2195 0.930 . S
C2203 C2204 1.355 . S
C2203 C2205 1.415 . S
C2204 C2203 1.355 . S
C2204 C2206 1.419 . S
C2205 C2200 1.425 . S
C2205 C2202 1.409 . S
C2205 C2203 1.415 . S
C2206 H2196 0.930 . S
C2206 C2204 1.419 . S
C2206 C2207 1.362 . S
C2207 H2197 0.930 . S
C2207 C2200 1.409 . S
C2207 C2206 1.362 . S
C679 C131 1.819 . S
C684 C5 1.794 . S
C695 C145 1.788 . S
C700 C19 1.794 . S
C711 C159 1.788 . S
C716 C33 1.795 . S
C727 C47 1.817 . S
C732 C117 1.793 . S
C743 C215 1.822 . S
C748 C61 1.797 . S
C759 C75 1.787 . S
C764 C173 1.803 . S
C775 C187 1.787 . S
C780 C89 1.803 . S
C791 C201 1.812 . S
C796 C103 1.790 . S
C807 C229 1.806 . S
C812 C257 1.787 . S
C823 C243 1.819 . S
C828 C313 1.795 . S
C839 C271 1.796 . S
C844 C327 1.787 . S
C855 C285 1.812 . S
C860 C299 1.790 . S
C871 C341 1.788 . S
C876 C467 1.794 . S
C887 C481 1.803 . S
C892 C355 1.825 . S
C903 C369 1.825 . S
C908 C495 1.824 . S
C919 C383 1.792 . S
C924 C453 1.789 . S
C935 C551 1.823 . S
C940 C397 1.799 . S
C951 C509 1.821 . S
C956 C411 1.797 . S
C967 C523 1.789 . S
C972 C425 1.811 . S
C983 C537 1.815 . S
C988 C439 1.829 . S
C999 C565 1.822 . S
C1004 C593 1.827 . S
C1015 C579 1.788 . S
C1020 C649 1.808 . S
C1031 C607 1.810 . S
C1036 C663 1.828 . S
C1047 C635 1.806 . S
C1052 C621 1.788 . S
C1063 C124 1.055 . S
C1068 C4 1.240 . S
C1079 C138 1.151 . S
C1084 C18 1.205 . S
C1095 C32 1.241 . S
C1100 C152 1.048 . S
C1111 C46 1.193 . S
C1116 C166 1.179 . S
C1127 C60 1.232 . S
C1132 C180 1.075 . S
C1143 C74 1.234 . S
C1148 C194 1.075 . S
C1159 C88 1.193 . S
C1164 C208 1.179 . S
C1175 C222 1.144 . S
C1180 C102 1.208 . S
C1191 C116 1.246 . S
C1196 C236 1.039 . S
C1207 C334 1.111 . S
C1212 C130 1.218 . S
C1223 C144 1.207 . S
C1228 C306 1.141 . S
C1239 C158 1.219 . S
C1244 C320 1.108 . S
C1255 C172 1.246 . S
C1260 C250 1.034 . S
C1271 C186 1.247 . S
C1276 C264 1.035 . S
C1287 C200 1.248 . S
C1292 C278 1.030 . S
C1303 C292 1.178 . S
C1308 C214 1.193 . S
C1319 C12 1.074 . S
C1324 C228 1.232 . S
C1335 C242 1.219 . S
C1340 C68 1.114 . S
C1351 C256 1.216 . S
C1356 C82 1.118 . S
C1367 C270 1.195 . S
C1372 C96 1.172 . S
C1383 C110 1.100 . S
C1388 C284 1.224 . S
C1399 C298 1.207 . S
C1404 C40 1.147 . S
C1415 C312 1.218 . S
C1420 C54 1.111 . S
C1431 C26 1.064 . S
C1436 C326 1.236 . S
C1447 C460 1.180 . S
C1452 C340 1.193 . S
C1463 C354 1.195 . S
C1468 C474 1.174 . S
C1479 C368 1.193 . S
C1484 C488 1.180 . S
C1495 C502 1.134 . S
C1500 C382 1.212 . S
C1511 C516 1.057 . S
C1516 C396 1.240 . S
C1527 C410 1.246 . S
C1532 C530 1.036 . S
C1543 C544 1.178 . S
C1548 C424 1.194 . S
C1559 C558 1.168 . S
C1564 C438 1.198 . S
C1575 C452 1.246 . S
C1580 C572 1.038 . S
C1591 C466 1.197 . S
C1596 C670 1.169 . S
C1607 C480 1.210 . S
C1612 C642 1.132 . S
C1623 C656 1.104 . S
C1628 C494 1.221 . S
C1639 C508 1.241 . S
C1644 C586 1.049 . S
C1655 C522 1.245 . S
C1660 C600 1.041 . S
C1671 C614 1.031 . S
C1676 C536 1.248 . S
C1687 C628 1.084 . S
C1692 C550 1.230 . S
C1703 C564 1.220 . S
C1708 C348 1.107 . S
C1719 C578 1.203 . S
C1724 C404 1.152 . S
C1735 C418 1.126 . S
C1740 C592 1.215 . S
C1751 C606 1.236 . S
C1756 C432 1.068 . S
C1767 C620 1.213 . S
C1772 C446 1.127 . S
C1783 C376 1.118 . S
C1788 C634 1.218 . S
C1799 C648 1.198 . S
C1804 C390 1.164 . S
C1815 C362 1.161 . S
C1820 C662 1.201 . S
C1831 C445 1.477 . S
C1836 C11 1.446 . S
C1847 C25 1.488 . S
C1852 C403 1.414 . S
C1863 C417 1.444 . S
C1868 C39 1.478 . S
C1879 C431 1.418 . S
C1884 C53 1.482 . S
C1895 C67 1.429 . S
C1900 C361 1.490 . S
C1911 C375 1.489 . S
C1916 C81 1.430 . S
C1927 C389 1.488 . S
C1932 C95 1.414 . S
C1943 C109 1.421 . S
C1948 C347 1.477 . S
C1959 C627 1.456 . S
C1964 C123 1.439 . S
C1975 C137 1.413 . S
C1980 C585 1.491 . S
C1991 C151 1.457 . S
C1996 C599 1.438 . S
C2007 C613 1.417 . S
C2012 C165 1.495 . S
C2023 C669 1.426 . S
C2028 C179 1.491 . S
C2039 C641 1.459 . S
C2044 C193 1.436 . S
C2055 C207 1.469 . S
C2060 C655 1.455 . S
C2071 C571 1.428 . S
C2076 C221 1.490 . S
C2087 C235 1.472 . S
C2092 C557 1.425 . S
C2103 C473 1.489 . S
C2108 C249 1.430 . S
C2119 C263 1.445 . S
C2124 C487 1.450 . S
C2135 C501 1.465 . S
C2140 C277 1.431 . S
C2151 C459 1.415 . S
C2156 C291 1.487 . S
C2167 C305 1.414 . S
C2172 C529 1.495 . S
C2183 C543 1.489 . S
C2188 C319 1.414 . S
C2199 C515 1.488 . S
C2204 C333 1.431 . S
