# Generated by pormake.
# Topology unc, (4)-cn, num edge types: 1
# Building blocks:
#     Node 0, Type 0, BuildingBlock: CEKHIL_clean_sbu_0, # of connection points: 4
#     Node 1, Type 0, BuildingBlock: CEKHIL_clean_sbu_0, # of connection points: 4
#     Node 2, Type 0, BuildingBlock: CEKHIL_clean_sbu_0, # of connection points: 4
#     Node 3, Type 0, BuildingBlock: CEKHIL_clean_sbu_0, # of connection points: 4
#     Edge 4, Type (0, 0), BuildingBlock: XUDNAN_clean_linker_2, # of connection points: 2
#     Edge 5, Type (0, 0), BuildingBlock: XUDNAN_clean_linker_2, # of connection points: 2
#     Edge 6, Type (0, 0), BuildingBlock: XUDNAN_clean_linker_2, # of connection points: 2
#     Edge 7, Type (0, 0), BuildingBlock: XUDNAN_clean_linker_2, # of connection points: 2
#     Edge 8, Type (0, 0), BuildingBlock: XUDNAN_clean_linker_2, # of connection points: 2
#     Edge 9, Type (0, 0), BuildingBlock: XUDNAN_clean_linker_2, # of connection points: 2
#     Edge 10, Type (0, 0), BuildingBlock: XUDNAN_clean_linker_2, # of connection points: 2
#     Edge 11, Type (0, 0), BuildingBlock: XUDNAN_clean_linker_2, # of connection points: 2
# Relax obj value: 0.004
# Max RMSD: 0.040
# Mean RMSD: 0.040
data_MOF--net-unc--node1-CEKHIL_clean_sbu_0--edge1-XUDNAN_clean_linker_2
_symmetry_space_group_name_H-M    P1
_symmetry_Int_Tables_number       1
_symmetry_cell_setting            triclinic
loop_
_symmetry_equiv_pos_as_xyz
'x, y, z'
_cell_length_a     29.601965
_cell_length_b     29.66548
_cell_length_c     21.950289
_cell_angle_alpha  90.053078
_cell_angle_beta   89.803929
_cell_angle_gamma 93.347171
loop_
_atom_site_label
_atom_site_type_symbol
_atom_site_fract_x
_atom_site_fract_y
_atom_site_fract_z
_atom_type_partial_charge
Co0 Co 0.01836 0.69142 0.95678 0.0
O1 O 0.00776 0.73414 0.89338 0.0
O2 O 0.96654 0.72626 0.97724 0.0
C3 C 0.02661 0.63256 0.89235 0.0
O4 O 0.0178 0.64903 0.03073 0.0
Co5 Co 0.10976 0.64587 0.96338 0.0
O6 O 0.07893 0.60745 0.02611 0.0
C7 C 0.10349 0.73838 0.01163 0.0
C8 C 0.97328 0.74603 0.92478 0.0
C9 C 0.04172 0.6172 0.05077 0.0
O10 O 0.06087 0.73707 0.99966 0.0
O11 O 0.12905 0.7065 0.99789 0.0
O12 O 0.98674 0.64377 0.90937 0.0
O13 O 0.05992 0.65911 0.91092 0.0
Co14 Co 0.35038 0.03141 0.30063 0.0
O15 O 0.30047 0.05205 0.34774 0.0
O16 O 0.32451 0.08214 0.26049 0.0
C17 C 0.39795 0.02573 0.3805 0.0
O18 O 0.4025 0.02052 0.24105 0.0
Co19 Co 0.38556 0.93638 0.32487 0.0
O20 O 0.43785 0.96063 0.27607 0.0
C21 C 0.30103 0.94422 0.25563 0.0
C22 C 0.29645 0.08262 0.30628 0.0
C23 C 0.43587 0.99432 0.24034 0.0
O24 O 0.30779 0.98756 0.25461 0.0
O25 O 0.32636 0.9184 0.28511 0.0
O26 O 0.39325 0.06458 0.3547 0.0
O27 O 0.37109 0.99309 0.361 0.0
Co28 Co 0.01922 0.34595 0.45687 0.0
O29 O 0.02922 0.30304 0.39308 0.0
O30 O 0.07041 0.31024 0.47667 0.0
C31 C 0.0123 0.40498 0.39245 0.0
O32 O 0.0208 0.38836 0.53085 0.0
Co33 Co 0.92906 0.39378 0.46428 0.0
O34 O 0.95989 0.43037 0.52873 0.0
C35 C 0.93274 0.30067 0.51142 0.0
C36 C 0.06375 0.29097 0.42389 0.0
C37 C 0.99719 0.42006 0.55223 0.0
O38 O 0.97561 0.30127 0.50033 0.0
O39 O 0.90809 0.33296 0.4966 0.0
O40 O 0.05184 0.39292 0.40915 0.0
O41 O 0.97845 0.37922 0.41142 0.0
Co42 Co 0.6878 0.00765 0.80595 0.0
O43 O 0.73717 0.98908 0.85604 0.0
O44 O 0.71745 0.95889 0.76711 0.0
C45 C 0.63684 0.01021 0.88321 0.0
O46 O 0.63839 0.01431 0.74228 0.0
Co47 Co 0.64459 0.09781 0.82077 0.0
O48 O 0.60047 0.07651 0.75807 0.0
C49 C 0.7327 0.09643 0.7587 0.0
C50 C 0.74398 0.95925 0.81418 0.0
C51 C 0.60664 0.04039 0.72873 0.0
O52 O 0.73001 0.05304 0.76201 0.0
O53 O 0.70331 0.12087 0.783 0.0
O54 O 0.64495 0.97242 0.85658 0.0
O55 O 0.66199 0.04504 0.8658 0.0
H56 H 0.09498 0.57064 0.12625 0.0
H57 H 0.95585 0.60491 0.10033 0.0
H58 H 0.93285 0.55763 0.18975 0.0
H59 H 0.07299 0.45715 0.16671 0.0
H60 H 0.11752 0.45675 0.22247 0.0
H61 H 0.12254 0.49506 0.15903 0.0
H62 H 0.13411 0.56261 0.23351 0.0
H63 H 0.12909 0.52445 0.29729 0.0
H64 H 0.09257 0.57082 0.29212 0.0
H65 H 0.92515 0.50082 0.2781 0.0
H66 H 0.93383 0.44298 0.35801 0.0
H67 H 0.07873 0.44991 0.32626 0.0
C68 C 0.05961 0.56849 0.13933 0.0
C69 C 0.02712 0.59125 0.10594 0.0
C70 C 0.98133 0.58782 0.12524 0.0
C71 C 0.96801 0.56102 0.17592 0.0
C72 C 1.00102 0.53856 0.20726 0.0
C73 C 0.04596 0.54254 0.18986 0.0
C74 C 0.07503 0.51463 0.22988 0.0
C75 C 0.09837 0.47878 0.19227 0.0
C76 C 0.10974 0.54495 0.2653 0.0
C77 C 0.03938 0.49327 0.27191 0.0
C78 C 0.99685 0.50741 0.25845 0.0
C79 C 0.95841 0.49006 0.28941 0.0
C80 C 0.96363 0.4572 0.33467 0.0
C81 C 0.00698 0.44223 0.34867 0.0
C82 C 0.04523 0.46111 0.31729 0.0
H83 H 0.44017 0.09014 0.45362 0.0
H84 H 0.43076 0.94612 0.41752 0.0
H85 H 0.48475 0.93425 0.50077 0.0
H86 H 0.55931 0.09978 0.49475 0.0
H87 H 0.55101 0.14021 0.55451 0.0
H88 H 0.51397 0.13759 0.4895 0.0
H89 H 0.44458 0.12622 0.5613 0.0
H90 H 0.48138 0.12861 0.6265 0.0
H91 H 0.44233 0.08041 0.61535 0.0
H92 H 0.53988 0.93815 0.58842 0.0
H93 H 0.58879 0.95708 0.67707 0.0
H94 H 0.55845 0.09789 0.6599 0.0
C95 C 0.44991 0.05619 0.46283 0.0
C96 C 0.43158 0.01907 0.42885 0.0
C97 C 0.44448 0.97505 0.44291 0.0
C98 C 0.47519 0.96798 0.49004 0.0
C99 C 0.49231 0.00523 0.52316 0.0
C100 C 0.47994 0.04845 0.51042 0.0
C101 C 0.50151 0.08238 0.55478 0.0
C102 C 0.53334 0.11703 0.52138 0.0
C103 C 0.46528 0.10577 0.59166 0.0
C104 C 0.52774 0.05149 0.59462 0.0
C105 C 0.52246 0.0072 0.57518 0.0
C106 C 0.54412 0.9727 0.6042 0.0
C107 C 0.57185 0.98377 0.65447 0.0
C108 C 0.57715 0.02885 0.6758 0.0
C109 C 0.55465 0.063 0.64526 0.0
H110 H 0.96061 0.58021 0.83557 0.0
H111 H 0.1064 0.60141 0.84942 0.0
H112 H 0.11573 0.54389 0.76914 0.0
H113 H 0.9577 0.45785 0.80309 0.0
H114 H 0.91128 0.46127 0.75069 0.0
H115 H 0.91676 0.4998 0.81411 0.0
H116 H 0.91554 0.56754 0.73971 0.0
H117 H 0.9103 0.52933 0.67616 0.0
H118 H 0.95607 0.57213 0.67819 0.0
H119 H 0.10822 0.48683 0.68124 0.0
H120 H 0.08444 0.43885 0.59286 0.0
H121 H 0.94396 0.45863 0.63634 0.0
C122 C 0.99455 0.57216 0.82267 0.0
C123 C 0.03279 0.59511 0.84897 0.0
C124 C 0.07661 0.58405 0.83007 0.0
C125 C 0.08222 0.55137 0.78457 0.0
C126 C 0.04368 0.53001 0.75859 0.0
C127 C 1.0007 0.53997 0.77725 0.0
C128 C 0.96466 0.51493 0.73958 0.0
C129 C 0.93591 0.48148 0.77924 0.0
C130 C 0.93492 0.54796 0.70645 0.0
C131 C 0.99394 0.49044 0.6954 0.0
C132 C 0.03943 0.49867 0.70758 0.0
C133 C 0.07265 0.48001 0.6716 0.0
C134 C 0.0589 0.45278 0.62159 0.0
C135 C 0.01242 0.4453 0.6075 0.0
C136 C 0.97979 0.46402 0.64558 0.0
H137 H 0.43543 0.03455 0.12559 0.0
H138 H 0.5216 0.96891 0.25386 0.0
H139 H 0.58273 0.97049 0.17799 0.0
H140 H 0.46919 0.97565 0.99549 0.0
H141 H 0.46907 0.02263 0.94348 0.0
H142 H 0.43266 0.02114 0.00942 0.0
H143 H 0.46762 0.09899 0.04394 0.0
H144 H 0.50391 0.10089 0.97775 0.0
H145 H 0.52808 0.10701 0.05277 0.0
H146 H 0.63159 0.97103 0.08741 0.0
H147 H 0.66827 0.97537 0.98621 0.0
H148 H 0.55395 0.04262 0.91384 0.0
C149 C 0.46755 0.02156 0.13802 0.0
C150 C 0.47359 1.00154 0.19585 0.0
C151 C 0.51593 0.98416 0.20993 0.0
C152 C 0.55103 0.98499 0.16715 0.0
C153 C 0.54368 0.00355 0.11018 0.0
C154 C 0.50333 0.02202 0.0954 0.0
C155 C 0.5042 0.03782 0.02938 0.0
C156 C 0.46654 0.01281 0.99227 0.0
C157 C 0.50075 0.08924 0.02577 0.0
C158 C 0.5508 0.02425 0.00942 0.0
C159 C 0.57283 0.00465 0.05714 0.0
C160 C 0.61508 0.98696 0.04989 0.0
C161 C 0.63557 0.9894 0.99236 0.0
C162 C 0.61404 0.00962 0.94294 0.0
C163 C 0.57123 0.02756 0.95144 0.0
H164 H 0.28158 0.85381 0.23986 0.0
H165 H 0.23601 0.98473 0.18756 0.0
H166 H 0.17675 0.94666 0.12295 0.0
H167 H 0.27085 0.80288 0.09699 0.0
H168 H 0.25209 0.74815 0.1262 0.0
H169 H 0.28762 0.78581 0.17202 0.0
H170 H 0.22805 0.78067 0.25903 0.0
H171 H 0.19232 0.74282 0.21349 0.0
H172 H 0.17056 0.79387 0.24339 0.0
H173 H 0.12293 0.89227 0.0612 0.0
H174 H 0.08409 0.82815 1.00546 0.0
H175 H 0.16938 0.73546 0.09654 0.0
C176 C 0.25895 0.87476 0.21555 0.0
C177 C 0.26353 0.92239 0.21915 0.0
C178 C 0.2332 0.94818 0.18581 0.0
C179 C 0.19935 0.92685 0.14905 0.0
C180 C 0.19628 0.87973 0.14614 0.0
C181 C 0.22544 0.85418 0.17865 0.0
C182 C 0.21711 0.80434 0.16597 0.0
C183 C 0.25943 0.78414 0.13866 0.0
C184 C 0.20105 0.77894 0.22391 0.0
C185 C 0.17952 0.80564 0.11983 0.0
C186 C 0.1671 0.84919 0.10963 0.0
C187 C 0.13255 0.85811 0.06889 0.0
C188 C 0.11066 0.82159 0.0375 0.0
C189 C 0.12421 0.77706 0.04618 0.0
C190 C 0.15879 0.76926 0.08827 0.0
H191 H 0.25402 0.10923 0.41023 0.0
H192 H 0.26056 0.13228 0.21518 0.0
H193 H 0.20073 0.18685 0.22453 0.0
H194 H 0.13411 0.1172 0.42908 0.0
H195 H 0.13881 0.14674 0.50079 0.0
H196 H 0.18128 0.10877 0.47869 0.0
H197 H 0.24366 0.17294 0.49187 0.0
H198 H 0.20141 0.21107 0.51424 0.0
H199 H 0.23903 0.22538 0.45154 0.0
H200 H 0.1377 0.23561 0.25448 0.0
H201 H 0.08147 0.28198 0.30361 0.0
H202 H 0.11986 0.23256 0.48092 0.0
C203 C 0.24277 0.12571 0.36946 0.0
C204 C 0.26162 0.11628 0.31179 0.0
C205 C 0.24654 0.13899 0.25969 0.0
C206 C 0.21249 0.16989 0.26459 0.0
C207 C 0.19443 0.17821 0.32207 0.0
C208 C 0.20948 0.1573 0.37373 0.0
C209 C 0.18557 0.17348 0.43034 0.0
C210 C 0.15833 0.1342 0.46155 0.0
C211 C 0.21944 0.19713 0.4746 0.0
C212 C 0.15453 0.2067 0.40244 0.0
C213 C 0.15977 0.20829 0.3398 0.0
C214 C 0.13362 0.23494 0.3035 0.0
C215 C 0.10159 0.26097 0.33186 0.0
C216 C 0.0964 0.26096 0.39607 0.0
C217 C 0.12337 0.23349 0.43181 0.0
H218 H 0.73885 0.18396 0.71894 0.0
H219 H 0.81083 0.06064 0.71595 0.0
H220 H 0.87123 0.09905 0.65318 0.0
H221 H 0.76206 0.21544 0.5656 0.0
H222 H 0.76763 0.27506 0.58193 0.0
H223 H 0.73172 0.23826 0.62881 0.0
H224 H 0.77592 0.26589 0.72493 0.0
H225 H 0.81186 0.30293 0.67835 0.0
H226 H 0.83647 0.26224 0.72721 0.0
H227 H 0.92447 0.15285 0.58981 0.0
H228 H 0.96276 0.2151 0.53004 0.0
H229 H 0.85263 0.30024 0.57309 0.0
C230 C 0.76745 0.16497 0.70576 0.0
C231 C 0.77013 0.11929 0.72289 0.0
C232 C 0.80799 0.0957 0.70359 0.0
C233 C 0.84251 0.11725 0.66796 0.0
C234 C 0.83853 0.16231 0.6516 0.0
C235 C 0.80176 0.1857 0.66985 0.0
C236 C 0.80432 0.23327 0.64497 0.0
C237 C 0.76405 0.24093 0.60282 0.0
C238 C 0.80733 0.26813 0.69697 0.0
C239 C 0.84819 0.23316 0.60958 0.0
C240 C 0.86786 0.19221 0.61416 0.0
C241 C 0.90915 0.18495 0.58579 0.0
C242 C 0.93068 0.22047 0.55194 0.0
C243 C 0.91055 0.26245 0.54618 0.0
C244 C 0.86876 0.26846 0.57561 0.0
H245 H 0.78086 0.92651 0.91892 0.0
H246 H 0.78805 0.91904 0.72176 0.0
H247 H 0.84848 0.86532 0.72961 0.0
H248 H 0.89989 0.91775 0.95004 0.0
H249 H 0.89061 0.88208 0.01587 0.0
H250 H 0.84923 0.92149 0.99516 0.0
H251 H 0.78722 0.85625 0.99143 0.0
H252 H 0.82839 0.81664 0.01218 0.0
H253 H 0.79547 0.80785 0.94382 0.0
H254 H 0.90921 0.81484 0.7582 0.0
H255 H 0.96241 0.76459 0.80521 0.0
H256 H 0.91276 0.79893 0.98469 0.0
C257 C 0.79546 0.91373 0.87749 0.0
C258 C 0.78018 0.92719 0.81962 0.0
C259 C 0.79937 0.90919 0.76643 0.0
C260 C 0.83376 0.87879 0.77047 0.0
C261 C 0.84805 0.86612 0.82809 0.0
C262 C 0.8292 0.88247 0.88073 0.0
C263 C 0.84941 0.86153 0.93684 0.0
C264 C 0.87373 0.89789 0.97683 0.0
C265 C 0.81295 0.83393 0.9732 0.0
C266 C 0.88283 0.83114 0.90744 0.0
C267 C 0.88172 0.83488 0.84468 0.0
C268 C 0.91019 0.81138 0.80724 0.0
C269 C 0.94044 0.78304 0.83449 0.0
C270 C 0.94169 0.77773 0.8986 0.0
C271 C 0.91235 0.80209 0.93556 0.0
loop_
_geom_bond_atom_site_label_1
_geom_bond_atom_site_label_2
_geom_bond_distance
_geom_bond_site_symmetry_2
_ccdc_geom_bond_type
Co0 O1 2.216 1_554 S
Co0 O2 2.091 . S
Co0 O4 2.004 . S
Co0 O10 2.021 1_655 S
Co0 O12 2.137 1_554 S
Co0 O13 2.244 1_654 S
O1 Co0 2.216 1_556 S
O1 C8 1.247 . S
O2 Co0 2.091 . S
O2 C8 1.261 1_554 S
C3 O12 1.247 1_455 S
C3 O13 1.272 . S
O4 Co0 2.004 . S
O4 C9 1.259 1_655 S
Co5 O6 2.061 . S
Co5 O11 2.052 . S
Co5 O13 2.135 1_554 S
O6 Co5 2.061 . S
O6 C9 1.235 . S
C7 O10 1.238 . S
C7 O11 1.241 . S
C8 O1 1.247 . S
C8 O2 1.261 1_556 S
C9 O4 1.259 1_455 S
C9 O6 1.235 . S
O10 Co0 2.021 1_455 S
O10 C7 1.238 . S
O11 Co5 2.052 . S
O11 C7 1.241 . S
O12 Co0 2.137 1_556 S
O12 C3 1.247 1_655 S
O13 Co0 2.244 1_456 S
O13 C3 1.272 . S
O13 Co5 2.135 1_556 S
Co14 O15 2.216 . S
Co14 O16 2.091 . S
Co14 O18 2.004 . S
Co14 O24 2.021 1_545 S
Co14 O26 2.137 . S
Co14 O27 2.244 1_545 S
O15 Co14 2.216 . S
O15 C22 1.247 . S
O16 Co14 2.091 . S
O16 C22 1.261 . S
C17 O26 1.247 . S
C17 O27 1.272 1_545 S
O18 Co14 2.004 . S
O18 C23 1.259 . S
Co19 O20 2.061 . S
Co19 O25 2.052 . S
Co19 O27 2.135 . S
O20 Co19 2.061 . S
O20 C23 1.235 1_565 S
C21 O24 1.238 . S
C21 O25 1.241 . S
C22 O15 1.247 . S
C22 O16 1.261 . S
C23 O18 1.259 . S
C23 O20 1.235 1_545 S
O24 Co14 2.021 1_565 S
O24 C21 1.238 . S
O25 Co19 2.052 . S
O25 C21 1.241 . S
O26 Co14 2.137 . S
O26 C17 1.247 . S
O27 Co14 2.244 1_565 S
O27 C17 1.272 1_565 S
O27 Co19 2.135 . S
Co28 O29 2.216 . S
Co28 O30 2.091 . S
Co28 O32 2.004 . S
Co28 O38 2.021 1_455 S
Co28 O40 2.137 . S
Co28 O41 2.244 1_455 S
O29 Co28 2.216 . S
O29 C36 1.247 . S
O30 Co28 2.091 . S
O30 C36 1.261 . S
C31 O40 1.247 . S
C31 O41 1.272 1_455 S
O32 Co28 2.004 . S
O32 C37 1.259 . S
Co33 O34 2.061 . S
Co33 O39 2.052 . S
Co33 O41 2.135 . S
O34 Co33 2.061 . S
O34 C37 1.235 1_655 S
C35 O38 1.238 . S
C35 O39 1.241 . S
C36 O29 1.247 . S
C36 O30 1.261 . S
C37 O32 1.259 . S
C37 O34 1.235 1_455 S
O38 Co28 2.021 1_655 S
O38 C35 1.238 . S
O39 Co33 2.052 . S
O39 C35 1.241 . S
O40 Co28 2.137 . S
O40 C31 1.247 . S
O41 Co28 2.244 1_655 S
O41 C31 1.272 1_655 S
O41 Co33 2.135 . S
Co42 O43 2.216 . S
Co42 O44 2.091 . S
Co42 O46 2.004 . S
Co42 O52 2.021 1_565 S
Co42 O54 2.137 . S
Co42 O55 2.244 1_565 S
O43 Co42 2.216 . S
O43 C50 1.247 . S
O44 Co42 2.091 . S
O44 C50 1.261 . S
C45 O54 1.247 1_545 S
C45 O55 1.272 . S
O46 Co42 2.004 . S
O46 C51 1.259 1_565 S
Co47 O48 2.061 . S
Co47 O53 2.052 . S
Co47 O55 2.135 . S
O48 Co47 2.061 . S
O48 C51 1.235 . S
C49 O52 1.238 . S
C49 O53 1.241 . S
C50 O43 1.247 . S
C50 O44 1.261 . S
C51 O46 1.259 1_545 S
C51 O48 1.235 . S
O52 Co42 2.021 1_545 S
O52 C49 1.238 . S
O53 Co47 2.052 . S
O53 C49 1.241 . S
O54 Co42 2.137 . S
O54 C45 1.247 1_565 S
O55 Co42 2.244 1_545 S
O55 C45 1.272 . S
O55 Co47 2.135 . S
H56 C68 0.930 . S
H57 C70 0.930 . S
H58 C71 0.930 . S
H59 C75 0.959 . S
H60 C75 0.959 . S
H61 C75 0.961 . S
H62 C76 0.960 . S
H63 C76 0.961 . S
H64 C76 0.959 . S
H65 C79 0.929 . S
H66 C80 0.931 . S
H67 C82 0.930 . S
C68 H56 0.930 . S
C68 C69 1.399 . S
C68 C73 1.399 . S
C69 C68 1.399 . S
C69 C70 1.376 1_455 S
C70 H57 0.930 . S
C70 C69 1.376 1_655 S
C70 C71 1.388 . S
C71 H58 0.930 . S
C71 C70 1.388 . S
C71 C72 1.390 . S
C72 C71 1.390 . S
C72 C73 1.394 1_655 S
C72 C78 1.465 . S
C73 C68 1.399 . S
C73 C72 1.394 1_455 S
C73 C74 1.516 . S
C74 C73 1.516 . S
C74 C75 1.502 . S
C74 C76 1.561 . S
C74 C77 1.526 . S
C75 H59 0.959 . S
C75 H60 0.959 . S
C75 H61 0.961 . S
C75 C74 1.502 . S
C76 H62 0.960 . S
C76 H63 0.961 . S
C76 H64 0.959 . S
C76 C74 1.561 . S
C77 C74 1.526 . S
C77 C78 1.396 1_455 S
C77 C82 1.390 . S
C78 C72 1.465 . S
C78 C77 1.396 1_655 S
C78 C79 1.399 . S
C79 H65 0.929 . S
C79 C78 1.399 . S
C79 C80 1.385 . S
C80 H66 0.931 . S
C80 C79 1.385 . S
C80 C81 1.389 1_655 S
C81 C80 1.389 1_455 S
C81 C82 1.387 . S
C82 H67 0.930 . S
C82 C77 1.390 . S
C82 C81 1.387 . S
H83 C95 0.930 . S
H84 C97 0.930 . S
H85 C98 0.930 . S
H86 C102 0.959 . S
H87 C102 0.959 . S
H88 C102 0.961 . S
H89 C103 0.960 . S
H90 C103 0.961 . S
H91 C103 0.959 . S
H92 C106 0.929 . S
H93 C107 0.931 . S
H94 C109 0.930 . S
C95 H83 0.930 . S
C95 C96 1.399 . S
C95 C100 1.399 . S
C96 C95 1.399 . S
C96 C97 1.376 1_545 S
C97 H84 0.930 . S
C97 C96 1.376 1_565 S
C97 C98 1.388 . S
C98 H85 0.930 . S
C98 C97 1.388 . S
C98 C99 1.390 . S
C99 C98 1.390 . S
C99 C100 1.394 1_565 S
C99 C105 1.465 . S
C100 C95 1.399 . S
C100 C99 1.394 1_545 S
C100 C101 1.516 . S
C101 C100 1.516 . S
C101 C102 1.502 . S
C101 C103 1.561 . S
C101 C104 1.526 . S
C102 H86 0.959 . S
C102 H87 0.959 . S
C102 H88 0.961 . S
C102 C101 1.502 . S
C103 H89 0.960 . S
C103 H90 0.961 . S
C103 H91 0.959 . S
C103 C101 1.561 . S
C104 C101 1.526 . S
C104 C105 1.396 1_545 S
C104 C109 1.390 . S
C105 C99 1.465 . S
C105 C104 1.396 1_565 S
C105 C106 1.399 . S
C106 H92 0.929 . S
C106 C105 1.399 . S
C106 C107 1.385 . S
C107 H93 0.931 . S
C107 C106 1.385 . S
C107 C108 1.389 1_565 S
C108 C107 1.389 1_545 S
C108 C109 1.387 . S
C109 H94 0.930 . S
C109 C104 1.390 . S
C109 C108 1.387 . S
H110 C122 0.930 . S
H111 C124 0.930 . S
H112 C125 0.930 . S
H113 C129 0.959 . S
H114 C129 0.959 . S
H115 C129 0.961 . S
H116 C130 0.960 . S
H117 C130 0.961 . S
H118 C130 0.959 1_655 S
H119 C133 0.929 . S
H120 C134 0.936 . S
H121 C136 0.930 . S
C122 H110 0.930 . S
C122 C123 1.399 . S
C122 C127 1.399 . S
C123 C122 1.399 . S
C123 C124 1.376 1_455 S
C124 H111 0.930 . S
C124 C123 1.376 1_655 S
C124 C125 1.388 . S
C125 H112 0.930 . S
C125 C124 1.388 . S
C125 C126 1.390 1_655 S
C126 C125 1.390 1_455 S
C126 C127 1.394 . S
C126 C132 1.465 . S
C127 C122 1.399 . S
C127 C126 1.394 . S
C127 C128 1.516 . S
C128 C127 1.516 . S
C128 C129 1.502 . S
C128 C130 1.561 . S
C128 C131 1.526 . S
C129 H113 0.959 . S
C129 H114 0.959 . S
C129 H115 0.961 . S
C129 C128 1.502 . S
C130 H116 0.960 . S
C130 H117 0.961 . S
C130 H118 0.959 1_455 S
C130 C128 1.561 . S
C131 C128 1.526 . S
C131 C132 1.396 . S
C131 C136 1.390 . S
C132 C126 1.465 . S
C132 C131 1.396 . S
C132 C133 1.399 1_455 S
C133 H119 0.929 . S
C133 C132 1.399 1_655 S
C133 C134 1.389 . S
C134 H120 0.936 . S
C134 C133 1.389 . S
C134 C135 1.381 1_655 S
C135 C134 1.381 1_455 S
C135 C136 1.387 . S
C136 H121 0.930 . S
C136 C131 1.390 . S
C136 C135 1.387 . S
H137 C149 0.930 . S
H138 C151 0.930 . S
H139 C152 0.930 . S
H140 C156 0.959 . S
H141 C156 0.959 . S
H142 C156 0.961 . S
H143 C157 0.960 1_554 S
H144 C157 0.961 . S
H145 C157 0.959 1_554 S
H146 C160 0.929 . S
H147 C161 0.931 . S
H148 C163 0.930 . S
C149 H137 0.930 . S
C149 C150 1.399 . S
C149 C154 1.399 . S
C150 C149 1.399 . S
C150 C151 1.376 1_545 S
C151 H138 0.930 . S
C151 C150 1.376 1_565 S
C151 C152 1.388 . S
C152 H139 0.930 . S
C152 C151 1.388 . S
C152 C153 1.390 1_565 S
C153 C152 1.390 1_545 S
C153 C154 1.394 . S
C153 C159 1.466 1_554 S
C154 C149 1.399 . S
C154 C153 1.394 . S
C154 C155 1.516 1_554 S
C155 C154 1.516 1_556 S
C155 C156 1.502 . S
C155 C157 1.561 . S
C155 C158 1.526 . S
C156 H140 0.959 . S
C156 H141 0.959 . S
C156 H142 0.961 . S
C156 C155 1.502 . S
C157 H143 0.960 1_556 S
C157 H144 0.961 . S
C157 H145 0.959 1_556 S
C157 C155 1.561 . S
C158 C155 1.526 . S
C158 C159 1.401 . S
C158 C163 1.390 . S
C159 C153 1.466 1_556 S
C159 C158 1.401 . S
C159 C160 1.395 1_545 S
C160 H146 0.929 . S
C160 C159 1.395 1_565 S
C160 C161 1.385 . S
C161 H147 0.931 . S
C161 C160 1.385 . S
C161 C162 1.389 1_565 S
C162 C161 1.389 1_545 S
C162 C163 1.387 . S
C163 H148 0.930 . S
C163 C158 1.390 . S
C163 C162 1.387 . S
H164 C176 0.930 . S
H165 C178 0.930 . S
H166 C179 0.930 . S
H167 C183 0.959 . S
H168 C183 0.959 . S
H169 C183 0.961 . S
H170 C184 0.960 . S
H171 C184 0.961 . S
H172 C184 0.959 . S
H173 C187 0.929 . S
H174 C188 0.931 . S
H175 C190 0.930 . S
C176 H164 0.930 . S
C176 C177 1.399 . S
C176 C181 1.399 . S
C177 C176 1.399 . S
C177 C178 1.376 . S
C178 H165 0.930 . S
C178 C177 1.376 . S
C178 C179 1.388 . S
C179 H166 0.930 . S
C179 C178 1.388 . S
C179 C180 1.390 . S
C180 C179 1.390 . S
C180 C181 1.394 . S
C180 C186 1.465 . S
C181 C176 1.399 . S
C181 C180 1.394 . S
C181 C182 1.516 . S
C182 C181 1.516 . S
C182 C183 1.502 . S
C182 C184 1.561 . S
C182 C185 1.526 . S
C183 H167 0.959 . S
C183 H168 0.959 . S
C183 H169 0.961 . S
C183 C182 1.502 . S
C184 H170 0.960 . S
C184 H171 0.961 . S
C184 H172 0.959 . S
C184 C182 1.561 . S
C185 C182 1.526 . S
C185 C186 1.396 . S
C185 C190 1.390 . S
C186 C180 1.465 . S
C186 C185 1.396 . S
C186 C187 1.399 . S
C187 H173 0.929 . S
C187 C186 1.399 . S
C187 C188 1.385 . S
C188 H174 0.931 . S
C188 C187 1.385 . S
C188 C189 1.389 . S
C189 C188 1.389 . S
C189 C190 1.387 . S
C190 H175 0.930 . S
C190 C185 1.390 . S
C190 C189 1.387 . S
H191 C203 0.930 . S
H192 C205 0.930 . S
H193 C206 0.930 . S
H194 C210 0.959 . S
H195 C210 0.959 . S
H196 C210 0.961 . S
H197 C211 0.960 . S
H198 C211 0.961 . S
H199 C211 0.959 . S
H200 C214 0.929 . S
H201 C215 0.931 . S
H202 C217 0.930 . S
C203 H191 0.930 . S
C203 C204 1.399 . S
C203 C208 1.399 . S
C204 C203 1.399 . S
C204 C205 1.376 . S
C205 H192 0.930 . S
C205 C204 1.376 . S
C205 C206 1.388 . S
C206 H193 0.930 . S
C206 C205 1.388 . S
C206 C207 1.390 . S
C207 C206 1.390 . S
C207 C208 1.394 . S
C207 C213 1.465 . S
C208 C203 1.399 . S
C208 C207 1.394 . S
C208 C209 1.516 . S
C209 C208 1.516 . S
C209 C210 1.502 . S
C209 C211 1.561 . S
C209 C212 1.526 . S
C210 H194 0.959 . S
C210 H195 0.959 . S
C210 H196 0.961 . S
C210 C209 1.502 . S
C211 H197 0.960 . S
C211 H198 0.961 . S
C211 H199 0.959 . S
C211 C209 1.561 . S
C212 C209 1.526 . S
C212 C213 1.396 . S
C212 C217 1.390 . S
C213 C207 1.465 . S
C213 C212 1.396 . S
C213 C214 1.399 . S
C214 H200 0.929 . S
C214 C213 1.399 . S
C214 C215 1.385 . S
C215 H201 0.931 . S
C215 C214 1.385 . S
C215 C216 1.389 . S
C216 C215 1.389 . S
C216 C217 1.387 . S
C217 H202 0.930 . S
C217 C212 1.390 . S
C217 C216 1.387 . S
H218 C230 0.930 . S
H219 C232 0.930 . S
H220 C233 0.930 . S
H221 C237 0.959 . S
H222 C237 0.959 . S
H223 C237 0.961 . S
H224 C238 0.960 . S
H225 C238 0.961 . S
H226 C238 0.959 . S
H227 C241 0.929 . S
H228 C242 0.931 . S
H229 C244 0.930 . S
C230 H218 0.930 . S
C230 C231 1.399 . S
C230 C235 1.399 . S
C231 C230 1.399 . S
C231 C232 1.376 . S
C232 H219 0.930 . S
C232 C231 1.376 . S
C232 C233 1.388 . S
C233 H220 0.930 . S
C233 C232 1.388 . S
C233 C234 1.390 . S
C234 C233 1.390 . S
C234 C235 1.394 . S
C234 C240 1.465 . S
C235 C230 1.399 . S
C235 C234 1.394 . S
C235 C236 1.516 . S
C236 C235 1.516 . S
C236 C237 1.502 . S
C236 C238 1.561 . S
C236 C239 1.526 . S
C237 H221 0.959 . S
C237 H222 0.959 . S
C237 H223 0.961 . S
C237 C236 1.502 . S
C238 H224 0.960 . S
C238 H225 0.961 . S
C238 H226 0.959 . S
C238 C236 1.561 . S
C239 C236 1.526 . S
C239 C240 1.396 . S
C239 C244 1.390 . S
C240 C234 1.465 . S
C240 C239 1.396 . S
C240 C241 1.399 . S
C241 H227 0.929 . S
C241 C240 1.399 . S
C241 C242 1.385 . S
C242 H228 0.931 . S
C242 C241 1.385 . S
C242 C243 1.389 . S
C243 C242 1.389 . S
C243 C244 1.387 . S
C244 H229 0.930 . S
C244 C239 1.390 . S
C244 C243 1.387 . S
H245 C257 0.930 . S
H246 C259 0.930 . S
H247 C260 0.930 . S
H248 C264 0.959 . S
H249 C264 0.959 1_554 S
H250 C264 0.961 . S
H251 C265 0.960 . S
H252 C265 0.961 1_554 S
H253 C265 0.959 . S
H254 C268 0.929 . S
H255 C269 0.931 . S
H256 C271 0.930 . S
C257 H245 0.930 . S
C257 C258 1.399 . S
C257 C262 1.399 . S
C258 C257 1.399 . S
C258 C259 1.376 . S
C259 H246 0.930 . S
C259 C258 1.376 . S
C259 C260 1.388 . S
C260 H247 0.930 . S
C260 C259 1.388 . S
C260 C261 1.390 . S
C261 C260 1.390 . S
C261 C262 1.394 . S
C261 C267 1.465 . S
C262 C257 1.399 . S
C262 C261 1.394 . S
C262 C263 1.516 . S
C263 C262 1.516 . S
C263 C264 1.502 . S
C263 C265 1.561 . S
C263 C266 1.526 . S
C264 H248 0.959 . S
C264 H249 0.959 1_556 S
C264 H250 0.961 . S
C264 C263 1.502 . S
C265 H251 0.960 . S
C265 H252 0.961 1_556 S
C265 H253 0.959 . S
C265 C263 1.561 . S
C266 C263 1.526 . S
C266 C267 1.396 . S
C266 C271 1.390 . S
C267 C261 1.465 . S
C267 C266 1.396 . S
C267 C268 1.399 . S
C268 H254 0.929 . S
C268 C267 1.399 . S
C268 C269 1.385 . S
C269 H255 0.931 . S
C269 C268 1.385 . S
C269 C270 1.389 . S
C270 C269 1.389 . S
C270 C271 1.387 . S
C271 H256 0.930 . S
C271 C266 1.390 . S
C271 C270 1.387 . S
C69 C9 1.414 . S
C81 C31 1.423 . S
C96 C17 1.422 . S
C108 C51 1.414 . S
C123 C3 1.404 . S
C135 C37 1.374 . S
C150 C23 1.373 . S
C162 C45 1.404 . S
C177 C21 1.433 . S
C189 C7 1.435 . S
C204 C22 1.476 . S
C216 C36 1.477 . S
C231 C49 1.477 . S
C243 C35 1.478 . S
C258 C50 1.481 . S
C270 C8 1.476 . S
