# Generated by pormake.
# Topology snz, (6)-cn, num edge types: 1
# Building blocks:
#     Node 0, Type 0, BuildingBlock: BETFAJ_clean_sbu_0, # of connection points: 6
#     Node 1, Type 0, BuildingBlock: BETFAJ_clean_sbu_0, # of connection points: 6
#     Node 2, Type 0, BuildingBlock: BETFAJ_clean_sbu_0, # of connection points: 6
#     Node 3, Type 0, BuildingBlock: BETFAJ_clean_sbu_0, # of connection points: 6
#     Node 4, Type 0, BuildingBlock: BETFAJ_clean_sbu_0, # of connection points: 6
#     Node 5, Type 0, BuildingBlock: BETFAJ_clean_sbu_0, # of connection points: 6
#     Node 6, Type 0, BuildingBlock: BETFAJ_clean_sbu_0, # of connection points: 6
#     Node 7, Type 0, BuildingBlock: BETFAJ_clean_sbu_0, # of connection points: 6
#     Node 8, Type 0, BuildingBlock: BETFAJ_clean_sbu_0, # of connection points: 6
#     Edge 9, Type (0, 0), BuildingBlock: OJICUG_clean_linker_0, # of connection points: 2
#     Edge 10, Type (0, 0), BuildingBlock: OJICUG_clean_linker_0, # of connection points: 2
#     Edge 11, Type (0, 0), BuildingBlock: OJICUG_clean_linker_0, # of connection points: 2
#     Edge 12, Type (0, 0), BuildingBlock: OJICUG_clean_linker_0, # of connection points: 2
#     Edge 13, Type (0, 0), BuildingBlock: OJICUG_clean_linker_0, # of connection points: 2
#     Edge 14, Type (0, 0), BuildingBlock: OJICUG_clean_linker_0, # of connection points: 2
#     Edge 15, Type (0, 0), BuildingBlock: OJICUG_clean_linker_0, # of connection points: 2
#     Edge 16, Type (0, 0), BuildingBlock: OJICUG_clean_linker_0, # of connection points: 2
#     Edge 17, Type (0, 0), BuildingBlock: OJICUG_clean_linker_0, # of connection points: 2
#     Edge 18, Type (0, 0), BuildingBlock: OJICUG_clean_linker_0, # of connection points: 2
#     Edge 19, Type (0, 0), BuildingBlock: OJICUG_clean_linker_0, # of connection points: 2
#     Edge 20, Type (0, 0), BuildingBlock: OJICUG_clean_linker_0, # of connection points: 2
#     Edge 21, Type (0, 0), BuildingBlock: OJICUG_clean_linker_0, # of connection points: 2
#     Edge 22, Type (0, 0), BuildingBlock: OJICUG_clean_linker_0, # of connection points: 2
#     Edge 23, Type (0, 0), BuildingBlock: OJICUG_clean_linker_0, # of connection points: 2
#     Edge 24, Type (0, 0), BuildingBlock: OJICUG_clean_linker_0, # of connection points: 2
#     Edge 25, Type (0, 0), BuildingBlock: OJICUG_clean_linker_0, # of connection points: 2
#     Edge 26, Type (0, 0), BuildingBlock: OJICUG_clean_linker_0, # of connection points: 2
#     Edge 27, Type (0, 0), BuildingBlock: OJICUG_clean_linker_0, # of connection points: 2
#     Edge 28, Type (0, 0), BuildingBlock: OJICUG_clean_linker_0, # of connection points: 2
#     Edge 29, Type (0, 0), BuildingBlock: OJICUG_clean_linker_0, # of connection points: 2
#     Edge 30, Type (0, 0), BuildingBlock: OJICUG_clean_linker_0, # of connection points: 2
#     Edge 31, Type (0, 0), BuildingBlock: OJICUG_clean_linker_0, # of connection points: 2
#     Edge 32, Type (0, 0), BuildingBlock: OJICUG_clean_linker_0, # of connection points: 2
#     Edge 33, Type (0, 0), BuildingBlock: OJICUG_clean_linker_0, # of connection points: 2
#     Edge 34, Type (0, 0), BuildingBlock: OJICUG_clean_linker_0, # of connection points: 2
#     Edge 35, Type (0, 0), BuildingBlock: OJICUG_clean_linker_0, # of connection points: 2
# Relax obj value: 0.628
# Max RMSD: 0.284
# Mean RMSD: 0.190
data_MOF--net-snz--node1-BETFAJ_clean_sbu_0--edge1-OJICUG_clean_linker_0
_symmetry_space_group_name_H-M    P1
_symmetry_Int_Tables_number       1
_symmetry_cell_setting            triclinic
loop_
_symmetry_equiv_pos_as_xyz
'x, y, z'
_cell_length_a     53.660103
_cell_length_b     41.189062
_cell_length_c     12.405137
_cell_angle_alpha  97.231464
_cell_angle_beta   98.316924
_cell_angle_gamma 120.9321
loop_
_atom_site_label
_atom_site_type_symbol
_atom_site_fract_x
_atom_site_fract_y
_atom_site_fract_z
_atom_type_partial_charge
Sm0 Sm 0.16275 0.50064 0.27549 0.0
Sm1 Sm 0.12525 0.51125 0.29066 0.0
C2 C 0.19793 0.47241 0.30403 0.0
C3 C 0.21045 0.45736 0.3852 0.0
C4 C 0.19399 0.41777 0.38846 0.0
C5 C 0.20693 0.4023 0.45401 0.0
C6 C 0.23683 0.42586 0.518 0.0
C7 C 0.25295 0.46577 0.51755 0.0
C8 C 0.24 0.48123 0.4518 0.0
C9 C 0.15158 0.51091 1.04614 0.0
C10 C 0.09549 0.42296 0.17768 0.0
C11 C 0.08962 0.53798 0.30728 0.0
C12 C 0.07456 0.55554 0.25494 0.0
C13 C 0.08439 0.57571 0.17133 0.0
C14 C 0.0711 0.59484 0.12999 0.0
C15 C 0.04782 0.59419 0.1718 0.0
C16 C 1.03818 0.57392 0.25574 0.0
C17 C 0.05141 0.55481 0.29668 0.0
C18 C 0.13827 0.49867 0.51649 0.0
C19 C 0.18865 0.59155 0.33412 0.0
O20 O 0.20826 0.50952 0.32347 0.0
O21 O 0.16922 0.45128 0.25967 0.0
O22 O 0.13168 0.49579 0.10531 0.0
O23 O 0.17719 0.52352 0.11418 0.0
O24 O 0.12251 0.43469 0.23426 0.0
O25 O 0.09014 0.4504 0.17411 0.0
O26 O 0.07947 0.50149 0.26655 0.0
O27 O 0.11873 0.55949 0.33901 0.0
O28 O 0.15732 0.51812 0.45907 0.0
O29 O 0.11246 0.48123 0.44466 0.0
O30 O 0.16027 0.57498 0.28567 0.0
O31 O 0.197 0.56758 0.3543 0.0
H32 H 0.1713 0.39824 0.33732 0.0
H33 H 0.19383 0.37141 0.45042 0.0
H34 H 0.27586 0.48508 0.56674 0.0
H35 H 0.25346 0.51173 0.45091 0.0
H36 H 0.10245 0.57691 0.13878 0.0
H37 H 0.07879 0.60967 1.06421 0.0
H38 H 1.0206 0.57315 0.29086 0.0
H39 H 0.04385 0.53991 0.36254 0.0
Sm40 Sm 0.66836 0.5217 1.06497 0.0
Sm41 Sm 0.62673 0.52528 1.01332 0.0
C42 C 0.72339 0.53375 1.09692 0.0
C43 C 0.75151 0.55323 1.05663 0.0
C44 C 0.77144 0.59408 1.08555 0.0
C45 C 0.79882 0.61184 1.05407 0.0
C46 C 0.80715 0.58934 0.99267 0.0
C47 C 0.78714 0.5485 0.96382 0.0
C48 C 0.75984 0.53077 0.99559 0.0
C49 C 0.64876 0.51664 0.27768 0.0
C50 C 0.68332 0.6102 1.09327 0.0
C51 C 0.57279 0.51422 0.99692 0.0
C52 C 0.55394 0.50432 1.07816 0.0
C53 C 0.56702 0.51163 0.19222 0.0
C54 C 0.54919 0.49958 0.26868 0.0
C55 C 0.51778 0.47966 0.23275 0.0
C56 C 0.50474 0.47245 0.11825 0.0
C57 C 0.52268 0.48466 1.04169 0.0
C58 C 0.64527 0.52908 0.79808 0.0
C59 C 0.60903 0.43648 0.9878 0.0
O60 O 0.69951 0.50264 1.031 0.0
O61 O 0.71677 0.55583 0.15344 0.0
O62 O 0.64887 0.53849 0.20943 0.0
O63 O 0.65627 0.49483 0.22489 0.0
O64 O 0.69327 0.58821 1.06162 0.0
O65 O 0.65516 0.59145 1.09585 0.0
O66 O 0.59756 0.54859 1.02536 0.0
O67 O 0.57694 0.48723 0.95573 0.0
O68 O 0.64629 0.50833 0.8684 0.0
O69 O 0.63661 0.54976 0.84867 0.0
O70 O 0.60005 0.45947 1.01936 0.0
O71 O 0.63739 0.4543 0.98553 0.0
H72 H 0.76607 0.61247 0.13356 0.0
H73 H 0.81335 0.6433 1.07709 0.0
H74 H 0.79282 0.53 0.91832 0.0
H75 H 0.74539 0.49928 0.97367 0.0
H76 H 0.59108 0.52607 0.22196 0.0
H77 H 0.55999 0.50503 0.35559 0.0
H78 H 0.48066 0.45743 1.08779 0.0
H79 H 0.51212 0.47829 0.95384 0.0
Sm80 Sm 0.61653 0.05095 0.80368 0.0
Sm81 Sm 0.66081 0.10149 0.86227 0.0
C82 C 0.56037 0.99127 0.77449 0.0
C83 C 0.54226 0.97327 0.85371 0.0
C84 C 0.55616 0.97988 0.96618 0.0
C85 C 0.53895 0.96536 1.04339 0.0
C86 C 0.5074 0.94408 1.01001 0.0
C87 C 0.49361 0.93717 0.89661 0.0
C88 C 0.51088 0.95167 0.81939 0.0
C89 C 0.63419 0.0635 0.58716 0.0
C90 C 0.61106 0.12437 0.82096 0.0
C91 C 0.72115 0.15166 0.93309 0.0
C92 C 0.74978 0.15569 0.91159 0.0
C93 C 0.75745 0.15886 0.80756 0.0
C94 C 0.78447 0.16254 0.79203 0.0
C95 C 0.80506 0.16324 0.87981 0.0
C96 C 0.79707 0.15994 0.98354 0.0
C97 C 0.7702 0.15634 0.99889 0.0
C98 C 0.64457 0.06866 1.08585 0.0
C99 C 0.65974 0.02544 0.8568 0.0
O100 O 0.58284 0.98719 0.77166 0.0
O101 O 0.56761 0.02665 0.77438 0.0
O102 O 0.63845 0.08906 0.67153 0.0
O103 O 0.62364 0.03175 0.62371 0.0
O104 O 0.59524 0.08676 0.80683 0.0
O105 O 0.6407 0.14136 0.84348 0.0
O106 O 0.704 0.15673 0.86046 0.0
O107 O 0.70511 0.12343 0.97815 0.0
O108 O 0.63662 0.08233 1.00499 0.0
O109 O 0.63595 0.08242 1.00743 0.0
O110 O 0.67188 0.05472 0.80973 0.0
O111 O 0.63586 0.01941 0.88592 0.0
H112 H 0.58038 0.99673 0.99469 0.0
H113 H 0.55041 0.97086 0.12934 0.0
H114 H 0.46944 0.92145 0.86792 0.0
H115 H 0.49973 0.94667 0.73328 0.0
H116 H 0.74258 0.15852 0.73775 0.0
H117 H 0.78931 0.1654 0.71083 0.0
H118 H 0.81136 0.15953 1.0537 0.0
H119 H 0.76531 0.15391 1.0803 0.0
Sm120 Sm 0.82615 0.86342 0.27485 0.0
Sm121 Sm 0.78853 0.87368 0.28987 0.0
C122 C 0.86199 0.83699 0.25885 0.0
C123 C 0.87703 0.81934 0.3108 0.0
C124 C 0.86778 0.80017 0.39673 0.0
C125 C 0.881 0.78095 0.43793 0.0
C126 C 0.90361 0.78049 0.39363 0.0
C127 C 0.91264 0.79973 0.30728 0.0
C128 C 0.89949 0.81895 0.2665 0.0
C129 C 0.81322 0.87582 1.04877 0.0
C130 C 0.76278 0.78297 0.23137 0.0
C131 C 0.7533 0.90178 0.26193 0.0
C132 C 0.7415 0.91748 0.18069 0.0
C133 C 0.71267 0.89354 0.10847 0.0
C134 C 0.70021 0.9093 1.04191 0.0
C135 C 0.71607 0.94957 1.04633 0.0
C136 C 0.74535 0.97327 0.11572 0.0
C137 C 0.75783 0.9575 0.18207 0.0
C138 C 0.79992 0.86336 0.51909 0.0
C139 C 0.85534 0.95172 0.38602 0.0
O140 O 0.87201 0.87338 0.30045 0.0
O141 O 0.8329 0.81539 0.22635 0.0
O142 O 0.79408 0.85653 0.10615 0.0
O143 O 0.83901 0.89323 0.12062 0.0
O144 O 0.79119 0.79964 0.27977 0.0
O145 O 0.75433 0.80683 0.21123 0.0
O146 O 0.74308 0.8647 0.23986 0.0
O147 O 0.78183 0.92284 0.30949 0.0
O148 O 0.81975 0.87906 0.46007 0.0
O149 O 0.77422 0.85023 0.45078 0.0
O150 O 0.82829 0.93964 0.32917 0.0
O151 O 0.86101 0.92456 0.39032 0.0
H152 H 0.85024 0.79983 0.43122 0.0
H153 H 0.87381 0.76693 0.50556 0.0
H154 H 0.92967 0.79958 0.2702 0.0
H155 H 0.90656 0.83306 0.19882 0.0
H156 H 0.69936 0.86269 0.10544 0.0
H157 H 0.67782 0.88989 0.98832 0.0
H158 H 0.75824 1.0044 0.12287 0.0
H159 H 0.78 0.97704 0.23734 0.0
Sm160 Sm 0.32508 0.84935 0.55182 0.0
Sm161 Sm 0.28332 0.85299 0.50031 0.0
C162 C 0.37885 0.85975 0.56724 0.0
C163 C 0.39774 0.8686 0.48606 0.0
C164 C 0.38496 0.86175 0.37195 0.0
C165 C 0.40298 0.87272 0.29567 0.0
C166 C 0.43426 0.89105 0.33182 0.0
C167 C 0.44695 0.89766 0.44635 0.0
C168 C 0.42884 0.88654 0.52269 0.0
C169 C 0.30668 0.84554 0.76739 0.0
C170 C 0.34279 0.93835 0.57881 0.0
C171 C 0.22829 0.84102 0.46841 0.0
C172 C 0.20018 0.82174 0.50896 0.0
C173 C 0.17978 0.78098 0.47794 0.0
C174 C 0.15241 0.76345 0.50957 0.0
C175 C 0.14457 0.78608 0.57331 0.0
C176 C 0.16504 0.82682 0.60431 0.0
C177 C 0.19232 0.84434 0.57228 0.0
C178 C 0.30302 0.85793 0.28772 0.0
C179 C 0.26828 0.76443 0.47189 0.0
O180 O 0.35396 0.82554 0.54044 0.0
O181 O 0.37493 0.8872 0.60608 0.0
O182 O 0.30529 0.86604 0.69681 0.0
O183 O 0.31564 0.8252 0.71714 0.0
O184 O 0.35187 0.91541 0.54779 0.0
O185 O 0.31435 0.92045 0.58008 0.0
O186 O 0.25223 0.87219 0.53384 0.0
O187 O 0.23486 0.81878 0.41231 0.0
O188 O 0.3027 0.83599 0.35596 0.0
O189 O 0.29556 0.87982 0.34041 0.0
O190 O 0.25837 0.78646 0.50373 0.0
O191 O 0.29643 0.78314 0.46901 0.0
H192 H 0.36105 0.84855 0.34207 0.0
H193 H 0.39244 0.86775 0.20876 0.0
H194 H 0.47089 0.91141 0.47708 0.0
H195 H 0.43917 0.89245 0.61054 0.0
H196 H 0.18477 0.76249 0.42815 0.0
H197 H 0.13749 0.73205 0.48485 0.0
H198 H 0.15974 0.84542 0.6517 0.0
H199 H 0.20713 0.87578 0.59587 0.0
Sm200 Sm 0.29006 0.27213 0.70134 0.0
Sm201 Sm 0.33471 0.32177 0.75878 0.0
C202 C 0.22954 0.22354 0.6343 0.0
C203 C 0.20175 0.22139 0.65964 0.0
C204 C 0.19097 0.24284 0.61317 0.0
C205 C 0.16414 0.23924 0.62915 0.0
C206 C 0.14656 0.21393 0.69232 0.0
C207 C 0.1575 0.19271 0.73977 0.0
C208 C 0.18438 0.19623 0.72335 0.0
C209 C 0.30664 0.30475 0.47732 0.0
C210 C 0.29266 0.34919 0.70683 0.0
C211 C 0.39128 0.38044 0.78935 0.0
C212 C 0.40968 0.39739 0.71003 0.0
C213 C 0.396 0.38953 0.59642 0.0
C214 C 0.41342 0.40342 0.51947 0.0
C215 C 0.44495 0.42534 0.55433 0.0
C216 C 0.45853 0.43336 0.66871 0.0
C217 C 0.44104 0.41945 0.7457 0.0
C218 C 0.317 0.30946 0.97561 0.0
C219 C 0.33857 0.24715 0.73612 0.0
O220 O 0.24586 0.25102 0.58738 0.0
O221 O 0.24642 0.21761 0.70536 0.0
O222 O 0.314 0.29037 0.55745 0.0
O223 O 0.31467 0.29022 0.55493 0.0
O224 O 0.28024 0.32011 0.75451 0.0
O225 O 0.31628 0.35439 0.67707 0.0
O226 O 0.36907 0.38522 0.78947 0.0
O227 O 0.38351 0.34501 0.79183 0.0
O228 O 0.31272 0.28393 0.89116 0.0
O229 O 0.32768 0.34118 0.93896 0.0
O230 O 0.35488 0.28462 0.74773 0.0
O231 O 0.30911 0.23114 0.71892 0.0
H232 H 0.20319 0.26243 0.56282 0.0
H233 H 0.15734 0.25677 0.59212 0.0
H234 H 0.1449 0.17248 0.78791 0.0
H235 H 0.19135 0.17871 0.75956 0.0
H236 H 0.3718 0.3723 0.56697 0.0
H237 H 0.40213 0.39707 0.43265 0.0
H238 H 0.48269 0.44964 0.69849 0.0
H239 H 0.45201 0.42541 0.83278 0.0
Sm240 Sm 0.476 0.19039 0.68301 0.0
Sm241 Sm 0.47654 0.18539 0.87889 0.0
C242 C 0.4648 0.20017 0.47975 0.0
C243 C 0.47043 0.23747 0.45923 0.0
C244 C 0.47222 0.24522 0.35344 0.0
C245 C 0.48647 0.28373 0.34271 0.0
C246 C 0.49995 0.31509 0.4387 0.0
C247 C 0.49361 0.30642 0.54115 0.0
C248 C 0.47909 0.26787 0.55138 0.0
C249 C 0.52149 0.26521 0.81793 0.0
C250 C 0.42628 0.20063 0.78111 0.0
C251 C 0.49801 0.19639 1.0953 0.0
C252 C 0.52455 0.23271 0.1668 0.0
C253 C 0.54275 0.2625 0.11693 0.0
C254 C 0.56202 0.3008 0.18036 0.0
C255 C 0.56316 0.30985 0.29469 0.0
C256 C 0.54857 0.27862 0.34701 0.0
C257 C 0.52909 0.24041 0.28308 0.0
C258 C 0.43059 0.10998 0.74865 0.0
C259 C 0.52388 0.17209 0.77376 0.0
O260 O 0.44387 0.18308 0.53219 0.0
O261 O 0.48886 0.20094 0.52204 0.0
O262 O 0.49522 0.24421 0.83168 0.0
O263 O 0.52465 0.2456 0.73762 0.0
O264 O 0.43102 0.18641 0.69106 0.0
O265 O 0.44491 0.20882 0.87677 0.0
O266 O 0.47537 0.19908 1.05697 0.0
O267 O 0.50327 0.17816 1.01747 0.0
O268 O 0.45627 0.13098 0.72928 0.0
O269 O 0.42885 0.12893 0.83562 0.0
O270 O 0.52176 0.19105 0.86197 0.0
O271 O 0.50302 0.16041 0.68131 0.0
H272 H 0.46518 0.22206 0.28113 0.0
H273 H 0.49029 0.28867 0.26133 0.0
H274 H 0.50305 0.32955 0.61613 0.0
H275 H 0.4772 0.26223 0.6337 0.0
H276 H 0.54012 0.25679 1.02727 0.0
H277 H 0.57327 0.3238 0.13762 0.0
H278 H 0.54888 0.28387 0.43507 0.0
H279 H 0.51562 0.21768 0.32326 0.0
Sm280 Sm 0.9765 0.17022 0.86045 0.0
Sm281 Sm 0.97283 0.20333 0.70486 0.0
C282 C 0.97026 0.13511 1.02815 0.0
C283 C 0.94207 0.10332 1.04407 0.0
C284 C 0.91695 0.08101 0.95219 0.0
C285 C 0.88814 0.05981 0.96944 0.0
C286 C 0.88401 0.06141 1.0789 0.0
C287 C 0.90966 0.07912 0.16964 0.0
C288 C 0.93842 0.10028 0.15222 0.0
C289 C 0.94413 0.11214 0.65945 0.0
C290 C 0.91812 0.17691 0.81743 0.0
C291 C 0.96332 0.22485 0.51931 0.0
C292 C 0.9342 0.20809 0.439 0.0
C293 C 0.93174 0.1978 0.32445 0.0
C294 C 0.90372 0.17073 0.25181 0.0
C295 C 0.87771 0.15282 0.29309 0.0
C296 C 0.87983 0.16666 0.40531 0.0
C297 C 0.90785 0.19453 0.47741 0.0
C298 C 1.00547 0.26243 0.90415 0.0
C299 C 1.03271 0.19776 0.75511 0.0
O300 O 0.97219 0.16826 1.03565 0.0
O301 O 0.979 0.1266 0.94241 0.0
O302 O 0.93959 0.13858 0.69365 0.0
O303 O 0.96818 0.11912 0.72485 0.0
O304 O 0.93896 0.18097 0.89884 0.0
O305 O 0.92367 0.1767 0.71821 0.0
O306 O 0.96667 0.24376 0.61834 0.0
O307 O 0.97269 0.20126 0.52446 0.0
O308 O 1.00974 0.23541 0.87307 0.0
O309 O 0.98203 0.25609 0.83555 0.0
O310 O 1.01376 0.19857 0.67556 0.0
O311 O 1.02533 0.19269 0.85104 0.0
H312 H 0.91932 0.08286 0.86752 0.0
H313 H 0.86907 0.04599 0.89768 0.0
H314 H 0.90783 0.0811 0.25567 0.0
H315 H 0.95752 0.1172 0.224 0.0
H316 H 0.95166 0.20781 0.29288 0.0
H317 H 0.90311 0.16045 0.16607 0.0
H318 H 0.8603 0.15342 0.4394 0.0
H319 H 0.90901 0.20283 0.56506 0.0
Sm320 Sm 0.96348 0.65009 0.71956 0.0
Sm321 Sm 0.98845 0.72577 0.8488 0.0
C322 C 0.94454 0.58287 0.5799 0.0
C323 C 0.95214 0.57389 0.47567 0.0
C324 C 0.98246 0.59433 0.47275 0.0
C325 C 0.99058 0.61249 0.38513 0.0
C326 C 0.96824 0.61076 0.30536 0.0
C327 C 0.93864 0.57887 0.28762 0.0
C328 C 0.93036 0.56048 0.37501 0.0
C329 C 0.98654 0.65611 0.94013 0.0
C330 C 1.03168 0.71741 0.71361 0.0
C331 C 1.00742 0.79228 0.99211 0.0
C332 C 1.00192 0.79986 0.10254 0.0
C333 C 1.02531 0.81263 0.19721 0.0
C334 C 1.01922 0.79325 0.28376 0.0
C335 C 0.98998 0.76133 0.27232 0.0
C336 C 0.9663 0.75951 0.20012 0.0
C337 C 0.97232 0.77877 0.11364 0.0
C338 C 0.9652 0.71965 0.62839 0.0
C339 C 0.9202 0.65849 0.85373 0.0
O340 O 0.9309 0.60154 0.57353 0.0
O341 O 0.96565 0.59778 0.67209 0.0
O342 O 0.99944 0.68118 0.88482 0.0
O343 O 0.95954 0.62986 0.88317 0.0
O344 O 1.00628 0.6858 0.65251 0.0
O345 O 1.0317 0.73604 0.80771 0.0
O346 O 1.02259 0.77565 0.98888 0.0
O347 O 0.98451 0.77612 0.90558 0.0
O348 O 0.95242 0.69465 0.68403 0.0
O349 O 0.99209 0.74626 0.68555 0.0
O350 O 0.94569 0.68973 0.91583 0.0
O351 O 0.92018 0.64016 0.75908 0.0
H352 H 0.99996 0.60271 0.54635 0.0
H353 H 1.01407 0.63374 0.3941 0.0
H354 H 0.92111 0.57441 0.22017 0.0
H355 H 0.90674 0.54264 0.37275 0.0
H356 H 0.04845 0.83102 0.19373 0.0
H357 H 1.03789 0.79788 0.34568 0.0
H358 H 0.94317 0.73802 0.19577 0.0
H359 H 0.95364 0.77083 1.0455 0.0
C360 C 0.11964 0.48684 0.82523 0.0
C361 C 0.14745 0.50768 0.90983 0.0
H362 H 0.09489 0.46749 0.64927 0.0
C363 C 0.17241 0.5256 0.85851 0.0
H364 H 0.09907 0.47186 0.85231 0.0
C365 C 0.16999 0.52324 0.73756 0.0
C366 C 0.1422 0.50227 0.65289 0.0
H367 H 0.19475 0.5422 0.9133 0.0
H368 H 0.19057 0.53819 0.71051 0.0
C369 C 0.11723 0.48424 0.70415 0.0
C370 C 0.64181 0.54877 0.59633 0.0
C371 C 0.64622 0.52519 0.66436 0.0
H372 H 0.63882 0.56594 0.43657 0.0
C373 C 0.65127 0.49878 0.59819 0.0
H374 H 0.6377 0.56992 0.63601 0.0
C375 C 0.65189 0.49645 0.47899 0.0
C376 C 0.64763 0.52017 0.41117 0.0
H377 H 0.65483 0.47923 0.63875 0.0
H378 H 0.65591 0.47521 0.43918 0.0
C379 C 0.64248 0.54647 0.47723 0.0
C380 C 0.63814 0.09714 0.40651 0.0
C381 C 0.63556 0.06621 0.45743 0.0
H382 H 0.64195 0.12314 0.26027 0.0
C383 C 0.63402 0.03644 0.37803 0.0
H384 H 0.63951 0.12144 0.45848 0.0
C385 C 0.6357 0.03766 0.26225 0.0
C386 C 0.63806 0.06801 0.21019 0.0
H387 H 0.6321 1.01161 0.40633 0.0
H388 H 0.63542 1.01391 0.2121 0.0
C389 C 0.63919 0.09795 0.28856 0.0
C390 C 0.7791 0.84846 0.70665 0.0
C391 C 0.80405 0.86673 0.65545 0.0
H392 H 0.76096 0.83564 0.85456 0.0
C393 C 0.83185 0.88801 0.7402 0.0
H394 H 0.75678 0.83152 0.65173 0.0
C395 C 0.83426 0.89065 0.86129 0.0
C396 C 0.8093 0.87225 0.9124 0.0
H397 H 0.85241 0.90329 0.71323 0.0
H398 H 0.85658 0.90772 0.91629 0.0
C399 C 0.78152 0.8509 0.8276 0.0
C400 C 0.29987 0.87508 0.96642 0.0
C401 C 0.3056 0.8493 0.901 0.0
H402 H 0.29464 0.89815 0.12477 0.0
C403 C 0.31056 0.82624 0.96968 0.0
H404 H 0.29578 0.89415 0.92527 0.0
C405 C 0.30983 0.82851 1.08874 0.0
C406 C 0.30407 0.85426 0.15413 0.0
H407 H 0.31519 0.80556 0.93057 0.0
H408 H 0.31397 0.80949 0.12995 0.0
C409 C 0.2992 0.87741 1.08557 0.0
C410 C 0.31713 0.33658 0.18458 0.0
C411 C 0.31557 0.30676 0.10535 0.0
H412 H 0.31575 0.35924 0.35036 0.0
C413 C 0.31292 0.27583 0.15646 0.0
H414 H 0.31911 0.36142 0.15615 0.0
C415 C 0.31182 0.27507 0.27443 0.0
C416 C 0.31295 0.30506 0.3526 0.0
H417 H 0.31154 0.2515 0.10465 0.0
H418 H 0.30906 0.2499 0.30292 0.0
C419 C 0.3154 0.33542 0.30034 0.0
C420 C 0.53075 0.36261 0.33503 0.0
C421 C 0.52763 0.35262 0.43877 0.0
H422 H 0.54946 0.35788 0.19833 0.0
C423 C 0.55404 0.36111 0.51204 0.0
H424 H 0.5124 0.36117 0.28004 0.0
C425 C 0.57555 0.35906 0.46497 0.0
C426 C 0.56958 0.34888 0.34739 0.0
H427 H 0.55454 0.35885 0.59829 0.0
H428 H 0.59135 0.35493 0.51637 0.0
C429 C 0.55224 0.36054 0.28783 0.0
C430 C 0.84937 0.08226 0.27351 0.0
C431 C 0.85227 0.11354 0.22931 0.0
H432 H 0.85508 0.03441 0.24772 0.0
C433 C 0.84427 0.10701 0.11226 0.0
H434 H 0.85307 0.08467 0.36314 0.0
C435 C 0.84635 0.07874 1.04657 0.0
C436 C 0.85608 0.05763 0.10059 0.0
H437 H 0.84367 0.12895 1.07485 0.0
H438 H 0.84729 0.0804 0.96069 0.0
C439 C 0.85068 0.05332 0.20708 0.0
C440 C 1.00108 0.67791 0.27694 0.0
C441 C 0.97316 0.64834 0.28725 0.0
H442 H 1.02854 0.73646 0.26577 0.0
C443 C 0.95171 0.65745 0.30261 0.0
H444 H 1.01837 0.67233 0.26751 0.0
C445 C 0.95784 0.69476 0.30568 0.0
C446 C 0.9856 0.72425 0.29368 0.0
H447 H 0.93033 0.63616 0.31612 0.0
H448 H 0.94051 0.70017 0.31587 0.0
C449 C 1.00718 0.71523 0.27945 0.0
C450 C 0.24955 0.35915 0.67616 0.0
C451 C 0.27909 0.37125 0.67252 0.0
H452 H 0.21306 0.36695 0.63176 0.0
C453 C 0.29503 0.40284 0.6244 0.0
H454 H 0.23657 0.3348 0.71203 0.0
C455 C 0.28162 0.42108 0.57792 0.0
C456 C 0.25172 0.40834 0.57767 0.0
H457 H 0.31777 0.41285 0.61942 0.0
H458 H 0.29443 0.44424 0.53793 0.0
C459 C 0.236 0.37741 0.62907 0.0
C460 C 0.73492 0.67383 0.15437 0.0
C461 C 0.7034 0.65452 0.1268 0.0
H462 H 0.77778 0.72815 0.21011 0.0
C463 C 0.69152 0.67823 0.13462 0.0
H464 H 0.74518 0.65707 0.15037 0.0
C465 C 0.71042 0.71952 0.16738 0.0
C466 C 0.74196 0.73874 0.19636 0.0
H467 H 0.66747 0.66485 0.11448 0.0
H468 H 0.70025 0.7364 0.17107 0.0
C469 C 0.75374 0.71493 0.18946 0.0
C470 C 0.46162 0.8936 1.06405 0.0
C471 C 0.48903 0.92994 1.09346 0.0
H472 H 0.42324 0.85259 0.11591 0.0
C473 C 0.49854 0.95297 0.203 0.0
H474 H 0.45377 0.87474 0.98129 0.0
C475 C 0.48104 0.94017 0.28048 0.0
C476 C 0.45349 0.90402 0.25061 0.0
H477 H 0.51922 0.98141 0.22839 0.0
H478 H 0.48879 0.9591 0.36306 0.0
C479 C 0.4441 0.88084 0.14146 0.0
C480 C 0.59499 0.17108 0.88839 0.0
C481 C 0.59363 0.14381 0.80263 0.0
H482 H 0.5745 0.20106 0.94758 0.0
C483 C 0.56993 0.12781 0.7052 0.0
H484 H 0.61205 0.18321 0.96622 0.0
C485 C 0.54831 0.13798 0.69407 0.0
C486 C 0.54886 0.16405 0.78116 0.0
H487 H 0.56742 0.10598 0.63812 0.0
H488 H 0.53037 0.1241 0.61838 0.0
C489 C 0.573 0.1809 0.87795 0.0
C490 C 1.02186 0.33148 0.99495 0.0
C491 C 1.0285 0.30239 0.98149 0.0
H492 H 1.0369 0.39086 1.06514 0.0
C493 C 0.05742 0.31309 1.03803 0.0
H494 H 1.00003 0.32488 0.95356 0.0
C495 C 0.0789 0.35158 0.10359 0.0
C496 C 0.07229 0.38082 0.11474 0.0
H497 H 0.06368 0.29191 1.03013 0.0
H498 H 0.10094 0.35862 0.14384 0.0
C499 C 1.04321 0.36971 1.05961 0.0
C500 C 0.86476 0.60983 0.81898 0.0
C501 C 0.89149 0.64212 0.89043 0.0
H502 H 0.81774 0.5686 0.79362 0.0
C503 C 0.8902 0.6574 0.996 0.0
H504 H 0.86461 0.59716 0.73673 0.0
C505 C 0.86298 0.64073 1.02918 0.0
C506 C 0.8363 0.60811 0.95778 0.0
H507 H 0.91028 0.68192 1.05347 0.0
H508 H 0.863 0.65294 0.11179 0.0
C509 C 0.83771 0.59316 0.852 0.0
C510 C 0.9867 0.60971 1.05066 0.0
C511 C 1.00288 0.64461 1.01658 0.0
H512 H 0.988 0.56632 0.12439 0.0
C513 C 1.03432 0.66471 1.04241 0.0
H514 H 0.96245 0.59352 1.03225 0.0
C515 C 0.0491 0.64904 1.09592 0.0
C516 C 1.03272 0.61304 0.12479 0.0
H517 H 0.04741 0.69164 1.01707 0.0
H518 H 0.0733 0.66474 0.11269 0.0
C519 C 1.0014 0.59412 0.10391 0.0
C520 C 0.55789 0.37367 0.9693 0.0
C521 C 0.5871 0.39223 0.95068 0.0
H522 H 0.51482 0.32014 0.94569 0.0
C523 C 0.59431 0.36798 0.89083 0.0
H524 H 0.55111 0.39086 1.01457 0.0
C525 C 0.57318 0.32735 0.84961 0.0
C526 C 0.54396 0.30881 0.86752 0.0
H527 H 0.61621 0.38056 0.87339 0.0
H528 H 0.57982 0.31032 0.80262 0.0
C529 C 0.53687 0.33281 0.92951 0.0
C530 C 0.86391 0.15669 0.74409 0.0
C531 C 0.88925 0.17297 0.83491 0.0
H532 H 0.81823 0.13971 0.68586 0.0
C533 C 0.88671 0.18643 0.94048 0.0
H534 H 0.86467 0.14586 0.6612 0.0
C535 C 0.86007 0.1841 0.9543 0.0
C536 C 0.83434 0.16708 0.8639 0.0
H537 H 0.90562 0.19967 1.01253 0.0
H538 H 0.85989 0.19599 1.03684 0.0
C539 C 0.83705 0.15347 0.75833 0.0
C540 C 0.70378 0.01744 0.8926 0.0
C541 C 0.67368 1.0038 0.89078 0.0
H542 H 0.7408 1.01099 0.9418 0.0
C543 C 0.65738 0.97095 0.93369 0.0
H544 H 0.71706 0.04287 0.86112 0.0
C545 C 0.6709 0.95292 0.98049 0.0
C546 C 0.70128 0.96711 0.98623 0.0
H547 H 0.6342 0.95975 0.93438 0.0
H548 H 0.65771 0.92872 1.01649 0.0
C549 C 0.71745 0.99936 0.94003 0.0
C550 C 0.26 0.69632 0.43057 0.0
C551 C 0.24816 0.72008 0.43848 0.0
H552 H 0.25123 0.63811 0.39417 0.0
C553 C 0.21664 0.70078 0.41117 0.0
H554 H 0.28405 0.70967 0.45051 0.0
C555 C 0.19779 0.65966 0.37622 0.0
C556 C 0.20954 0.63581 0.3692 0.0
H557 H 0.20639 0.71756 0.41526 0.0
H558 H 0.17376 0.64647 0.35574 0.0
C559 C 0.24108 0.65501 0.39796 0.0
C560 C 0.47207 0.42897 0.28578 0.0
C561 C 0.49884 0.46597 0.31439 0.0
H562 H 0.43451 0.38687 0.33896 0.0
C563 C 0.50768 0.48953 0.4225 0.0
H564 H 0.46483 0.40976 0.20405 0.0
C565 C 0.49025 0.47645 0.49996 0.0
C566 C 0.46351 0.43939 0.47156 0.0
H567 H 0.52796 0.51839 0.44699 0.0
H568 H 0.49757 0.49566 0.58174 0.0
C569 C 0.45466 0.41584 0.36334 0.0
C570 C 0.96473 0.76483 0.5134 0.0
C571 C 0.94868 0.7306 0.55071 0.0
H572 H 0.96326 0.80749 0.43612 0.0
C573 C 0.91727 0.71076 0.52672 0.0
H574 H 0.98895 0.78076 0.5303 0.0
C575 C 0.90243 0.7262 0.4724 0.0
C576 C 0.9187 0.76165 0.44063 0.0
H577 H 0.9043 0.68432 0.55448 0.0
H578 H 0.87827 0.71082 0.45751 0.0
C579 C 0.94995 0.78014 0.45904 0.0
C580 C 0.37882 0.04766 0.71816 0.0
C581 C 0.40793 0.0663 0.69897 0.0
H582 H 0.33584 0.99435 0.69524 0.0
C583 C 0.41481 0.04226 0.63575 0.0
H584 H 0.37231 0.06467 0.76602 0.0
C585 C 0.39379 1.00136 0.59621 0.0
C586 C 0.3647 0.9827 0.61601 0.0
H587 H 0.43678 0.05492 0.61879 0.0
H588 H 0.40049 0.98421 0.55024 0.0
C589 C 0.35765 1.00697 0.67691 0.0
C590 C 0.07133 0.20948 0.63853 0.0
C591 C 0.06183 0.20215 0.73807 0.0
H592 H 0.10432 0.21849 0.54525 0.0
C593 C 0.08058 0.19869 0.82204 0.0
H594 H 0.05778 0.21225 0.57123 0.0
C595 C 0.10753 0.20227 0.80725 0.0
C596 C 0.11721 0.20975 0.70791 0.0
H597 H 0.07444 0.19309 0.9002 0.0
H598 H 0.12103 0.19974 0.87528 0.0
C599 C 0.09841 0.21331 0.62392 0.0
C600 C 0.38001 0.19653 0.66885 0.0
C601 C 0.4008 0.2078 0.77238 0.0
H602 H 0.34362 0.19855 0.57604 0.0
C603 C 0.3976 0.22757 0.86552 0.0
H604 H 0.3815 0.18147 0.59439 0.0
C605 C 0.37559 0.23714 0.85462 0.0
C606 C 0.35524 0.22666 0.7509 0.0
H607 H 0.41295 0.23712 0.94662 0.0
H608 H 0.37533 0.25444 0.92733 0.0
C609 C 0.35777 0.20582 0.6583 0.0
C610 C 0.87061 0.02211 0.46504 0.0
C611 C 0.87817 0.99389 0.44868 0.0
H612 H 0.88491 0.08109 0.54226 0.0
C613 C 0.90782 1.00596 0.49879 0.0
H614 H 0.84802 1.01417 0.42942 0.0
C615 C 0.92888 0.04423 0.5635 0.0
C616 C 0.92134 0.07231 0.5818 0.0
H617 H 0.9148 0.98555 0.48926 0.0
H618 H 0.9512 0.05163 0.60114 0.0
C619 C 0.89183 0.06066 0.53027 0.0
C620 C 0.06131 0.71929 0.56925 0.0
C621 C 0.06034 0.73374 0.67649 0.0
H622 H 0.08822 0.72423 0.45193 0.0
C623 C 0.08732 0.76519 0.74906 0.0
H624 H 1.04099 0.69567 0.51064 0.0
C625 C 0.11433 0.78178 0.71566 0.0
C626 C 0.11543 0.76753 0.60841 0.0
H627 H 0.08769 0.77724 0.83252 0.0
H628 H 0.1345 0.80568 0.77486 0.0
C629 C 0.08848 0.73581 0.53574 0.0
loop_
_geom_bond_atom_site_label_1
_geom_bond_atom_site_label_2
_geom_bond_distance
_geom_bond_site_symmetry_2
_ccdc_geom_bond_type
Sm0 C2 2.846 . S
Sm0 O20 2.543 . S
Sm0 O21 2.450 . S
Sm0 O22 2.681 1_554 S
Sm0 O23 2.464 1_554 S
Sm0 O24 2.396 1_554 S
Sm0 O28 2.386 . S
Sm0 O31 2.408 . S
Sm1 C11 2.846 1_554 S
Sm1 O22 2.386 1_554 S
Sm1 O25 2.408 1_554 S
Sm1 O26 2.543 1_554 S
Sm1 O27 2.449 1_455 S
Sm1 O28 2.681 . S
Sm1 O29 2.464 . S
Sm1 O30 2.396 . S
C2 Sm0 2.846 . S
C2 C3 1.506 . S
C2 O20 1.261 . S
C2 O21 1.242 . S
C3 C2 1.506 . S
C3 C4 1.358 . S
C3 C8 1.382 . S
C4 C3 1.358 . S
C4 C5 1.385 . S
C4 H32 0.930 . S
C5 C4 1.385 . S
C5 C6 1.395 . S
C5 H33 0.929 . S
C6 C5 1.395 . S
C6 C7 1.335 . S
C7 C6 1.335 . S
C7 C8 1.398 . S
C7 H34 0.930 . S
C8 C3 1.382 . S
C8 C7 1.398 . S
C8 H35 0.929 . S
C9 O22 1.271 . S
C9 O23 1.251 . S
C10 O24 1.252 . S
C10 O25 1.272 . S
C11 Sm1 2.846 1_556 S
C11 C12 1.515 . S
C11 O26 1.261 . S
C11 O27 1.242 1_456 S
C12 C11 1.515 . S
C12 C13 1.360 . S
C12 C17 1.371 1_456 S
C13 C12 1.360 . S
C13 C14 1.385 . S
C13 H36 0.930 . S
C14 C13 1.385 . S
C14 C15 1.395 1_455 S
C14 H37 0.929 . S
C15 C14 1.395 1_655 S
C15 C16 1.335 1_556 S
C16 C15 1.335 1_554 S
C16 C17 1.398 . S
C16 H38 0.930 . S
C17 C12 1.371 1_654 S
C17 C16 1.398 . S
C17 H39 0.929 . S
C18 O28 1.271 . S
C18 O29 1.251 . S
C19 O30 1.252 . S
C19 O31 1.272 . S
O20 Sm0 2.543 . S
O20 C2 1.261 . S
O21 Sm0 2.450 . S
O21 C2 1.242 . S
O22 Sm0 2.681 1_556 S
O22 Sm1 2.386 1_556 S
O22 C9 1.271 . S
O23 Sm0 2.464 1_556 S
O23 C9 1.251 . S
O24 Sm0 2.396 1_556 S
O24 C10 1.252 . S
O25 Sm1 2.408 1_556 S
O25 C10 1.272 . S
O26 Sm1 2.543 1_556 S
O26 C11 1.261 . S
O27 Sm1 2.449 1_655 S
O27 C11 1.242 1_654 S
O28 Sm0 2.386 . S
O28 Sm1 2.681 . S
O28 C18 1.271 . S
O29 Sm1 2.464 . S
O29 C18 1.251 . S
O30 Sm1 2.396 . S
O30 C19 1.252 . S
O31 Sm0 2.408 . S
O31 C19 1.272 . S
H32 C4 0.930 . S
H33 C5 0.929 . S
H34 C7 0.930 . S
H35 C8 0.929 . S
H36 C13 0.930 . S
H37 C14 0.929 . S
H38 C16 0.930 . S
H39 C17 0.929 . S
Sm40 C42 2.846 . S
Sm40 O60 2.543 . S
Sm40 O61 2.450 . S
Sm40 O62 2.681 . S
Sm40 O63 2.464 . S
Sm40 O64 2.396 . S
Sm40 O68 2.386 . S
Sm40 O71 2.408 . S
Sm41 C51 2.846 . S
Sm41 O62 2.386 . S
Sm41 O65 2.408 . S
Sm41 O66 2.543 . S
Sm41 O67 2.450 . S
Sm41 O68 2.681 . S
Sm41 O69 2.464 1_554 S
Sm41 O70 2.396 . S
C42 Sm40 2.846 . S
C42 C43 1.506 . S
C42 O60 1.261 . S
C42 O61 1.242 . S
C43 C42 1.506 . S
C43 C44 1.358 . S
C43 C48 1.382 . S
C44 C43 1.358 . S
C44 C45 1.385 . S
C44 H72 0.930 . S
C45 C44 1.385 . S
C45 C46 1.395 . S
C45 H73 0.929 . S
C46 C45 1.395 . S
C46 C47 1.335 . S
C47 C46 1.335 . S
C47 C48 1.398 . S
C47 H74 0.930 . S
C48 C43 1.382 . S
C48 C47 1.398 . S
C48 H75 0.929 . S
C49 O62 1.271 . S
C49 O63 1.251 . S
C50 O64 1.252 . S
C50 O65 1.272 . S
C51 Sm41 2.846 . S
C51 C52 1.506 . S
C51 O66 1.261 . S
C51 O67 1.242 . S
C52 C51 1.506 . S
C52 C53 1.358 . S
C52 C57 1.382 . S
C53 C52 1.358 . S
C53 C54 1.385 . S
C53 H76 0.930 . S
C54 C53 1.385 . S
C54 C55 1.395 . S
C54 H77 0.929 . S
C55 C54 1.395 . S
C55 C56 1.335 . S
C56 C55 1.335 . S
C56 C57 1.398 . S
C56 H78 0.930 . S
C57 C52 1.382 . S
C57 C56 1.398 . S
C57 H79 0.929 . S
C58 O68 1.271 1_556 S
C58 O69 1.251 . S
C59 O70 1.252 . S
C59 O71 1.272 . S
O60 Sm40 2.543 . S
O60 C42 1.261 . S
O61 Sm40 2.450 . S
O61 C42 1.242 . S
O62 Sm40 2.681 . S
O62 Sm41 2.386 . S
O62 C49 1.271 . S
O63 Sm40 2.464 . S
O63 C49 1.251 . S
O64 Sm40 2.396 . S
O64 C50 1.252 . S
O65 Sm41 2.408 . S
O65 C50 1.272 . S
O66 Sm41 2.543 . S
O66 C51 1.261 . S
O67 Sm41 2.450 . S
O67 C51 1.242 . S
O68 Sm40 2.386 . S
O68 Sm41 2.681 . S
O68 C58 1.271 1_554 S
O69 Sm41 2.464 1_556 S
O69 C58 1.251 . S
O70 Sm41 2.396 . S
O70 C59 1.252 . S
O71 Sm40 2.408 . S
O71 C59 1.272 . S
H72 C44 0.930 . S
H73 C45 0.929 . S
H74 C47 0.930 . S
H75 C48 0.929 . S
H76 C53 0.930 . S
H77 C54 0.929 . S
H78 C56 0.930 . S
H79 C57 0.929 . S
Sm80 C82 2.846 . S
Sm80 O100 2.543 . S
Sm80 O101 2.450 . S
Sm80 O102 2.681 . S
Sm80 O103 2.464 1_554 S
Sm80 O104 2.396 . S
Sm80 O108 2.386 . S
Sm80 O111 2.408 . S
Sm81 C91 2.846 . S
Sm81 O102 2.386 . S
Sm81 O105 2.408 . S
Sm81 O106 2.543 . S
Sm81 O107 2.450 . S
Sm81 O108 2.681 . S
Sm81 O109 2.464 . S
Sm81 O110 2.396 . S
C82 Sm80 2.846 . S
C82 C83 1.506 . S
C82 O100 1.261 . S
C82 O101 1.242 . S
C83 C82 1.506 . S
C83 C84 1.358 . S
C83 C88 1.382 . S
C84 C83 1.358 . S
C84 C85 1.385 . S
C84 H112 0.930 . S
C85 C84 1.385 . S
C85 C86 1.395 . S
C85 H113 0.929 . S
C86 C85 1.395 . S
C86 C87 1.335 . S
C87 C86 1.335 . S
C87 C88 1.398 . S
C87 H114 0.930 1_544 S
C88 C83 1.382 . S
C88 C87 1.398 . S
C88 H115 0.929 1_554 S
C89 O102 1.271 1_556 S
C89 O103 1.251 . S
C90 O104 1.252 . S
C90 O105 1.272 . S
C91 Sm81 2.846 . S
C91 C92 1.506 . S
C91 O106 1.261 . S
C91 O107 1.242 . S
C92 C91 1.506 . S
C92 C93 1.358 . S
C92 C97 1.382 . S
C93 C92 1.358 . S
C93 C94 1.385 . S
C93 H116 0.930 . S
C94 C93 1.385 . S
C94 C95 1.395 . S
C94 H117 0.929 . S
C95 C94 1.395 . S
C95 C96 1.335 . S
C96 C95 1.335 . S
C96 C97 1.398 . S
C96 H118 0.930 . S
C97 C92 1.382 . S
C97 C96 1.398 . S
C97 H119 0.929 . S
C98 O108 1.271 . S
C98 O109 1.251 . S
C99 O110 1.252 . S
C99 O111 1.272 . S
O100 Sm80 2.543 . S
O100 C82 1.261 . S
O101 Sm80 2.450 . S
O101 C82 1.242 . S
O102 Sm80 2.681 . S
O102 Sm81 2.386 . S
O102 C89 1.271 1_554 S
O103 Sm80 2.464 1_556 S
O103 C89 1.251 . S
O104 Sm80 2.396 . S
O104 C90 1.252 . S
O105 Sm81 2.408 . S
O105 C90 1.272 . S
O106 Sm81 2.543 . S
O106 C91 1.261 . S
O107 Sm81 2.450 . S
O107 C91 1.242 . S
O108 Sm80 2.386 . S
O108 Sm81 2.681 . S
O108 C98 1.271 . S
O109 Sm81 2.464 . S
O109 C98 1.251 . S
O110 Sm81 2.396 . S
O110 C99 1.252 . S
O111 Sm80 2.408 . S
O111 C99 1.272 . S
H112 C84 0.930 . S
H113 C85 0.929 . S
H114 C87 0.930 1_566 S
H115 C88 0.929 1_556 S
H116 C93 0.930 . S
H117 C94 0.929 . S
H118 C96 0.930 . S
H119 C97 0.929 . S
Sm120 C122 2.846 . S
Sm120 O140 2.543 . S
Sm120 O141 2.450 . S
Sm120 O142 2.681 . S
Sm120 O143 2.464 . S
Sm120 O144 2.396 . S
Sm120 O148 2.386 . S
Sm120 O151 2.408 . S
Sm121 C131 2.846 . S
Sm121 O142 2.386 . S
Sm121 O145 2.408 . S
Sm121 O146 2.543 . S
Sm121 O147 2.450 . S
Sm121 O148 2.681 . S
Sm121 O149 2.464 . S
Sm121 O150 2.396 . S
C122 Sm120 2.846 . S
C122 C123 1.506 . S
C122 O140 1.261 . S
C122 O141 1.242 . S
C123 C122 1.506 . S
C123 C124 1.358 . S
C123 C128 1.382 . S
C124 C123 1.358 . S
C124 C125 1.385 . S
C124 H152 0.930 . S
C125 C124 1.385 . S
C125 C126 1.395 . S
C125 H153 0.929 . S
C126 C125 1.395 . S
C126 C127 1.335 . S
C127 C126 1.335 . S
C127 C128 1.398 . S
C127 H154 0.930 . S
C128 C123 1.382 . S
C128 C127 1.398 . S
C128 H155 0.929 . S
C129 O142 1.271 . S
C129 O143 1.251 . S
C130 O144 1.252 . S
C130 O145 1.272 . S
C131 Sm121 2.846 . S
C131 C132 1.506 . S
C131 O146 1.261 . S
C131 O147 1.242 . S
C132 C131 1.506 . S
C132 C133 1.358 . S
C132 C137 1.382 . S
C133 C132 1.358 . S
C133 C134 1.385 1_565 S
C133 H156 0.930 . S
C134 C133 1.385 1_545 S
C134 C135 1.395 . S
C134 H157 0.929 . S
C135 C134 1.395 . S
C135 C136 1.335 1_545 S
C136 C135 1.335 1_565 S
C136 C137 1.398 . S
C136 H158 0.930 . S
C137 C132 1.382 . S
C137 C136 1.398 . S
C137 H159 0.929 . S
C138 O148 1.271 . S
C138 O149 1.251 . S
C139 O150 1.252 . S
C139 O151 1.272 . S
O140 Sm120 2.543 . S
O140 C122 1.261 . S
O141 Sm120 2.450 . S
O141 C122 1.242 . S
O142 Sm120 2.681 . S
O142 Sm121 2.386 . S
O142 C129 1.271 . S
O143 Sm120 2.464 . S
O143 C129 1.251 . S
O144 Sm120 2.396 . S
O144 C130 1.252 . S
O145 Sm121 2.408 . S
O145 C130 1.272 . S
O146 Sm121 2.543 . S
O146 C131 1.261 . S
O147 Sm121 2.450 . S
O147 C131 1.242 . S
O148 Sm120 2.386 . S
O148 Sm121 2.681 . S
O148 C138 1.271 . S
O149 Sm121 2.464 . S
O149 C138 1.251 . S
O150 Sm121 2.396 . S
O150 C139 1.252 . S
O151 Sm120 2.408 . S
O151 C139 1.272 . S
H152 C124 0.930 . S
H153 C125 0.929 . S
H154 C127 0.930 . S
H155 C128 0.929 . S
H156 C133 0.930 . S
H157 C134 0.929 . S
H158 C136 0.930 . S
H159 C137 0.929 . S
Sm160 C162 2.846 . S
Sm160 O180 2.543 . S
Sm160 O181 2.450 . S
Sm160 O182 2.681 . S
Sm160 O183 2.464 . S
Sm160 O184 2.396 . S
Sm160 O188 2.386 . S
Sm160 O191 2.408 . S
Sm161 C171 2.846 . S
Sm161 O182 2.386 . S
Sm161 O185 2.408 . S
Sm161 O186 2.543 . S
Sm161 O187 2.450 . S
Sm161 O188 2.681 . S
Sm161 O189 2.464 . S
Sm161 O190 2.396 . S
C162 Sm160 2.846 . S
C162 C163 1.506 . S
C162 O180 1.261 . S
C162 O181 1.242 . S
C163 C162 1.506 . S
C163 C164 1.358 . S
C163 C168 1.382 . S
C164 C163 1.358 . S
C164 C165 1.385 . S
C164 H192 0.930 . S
C165 C164 1.385 . S
C165 C166 1.395 . S
C165 H193 0.929 . S
C166 C165 1.395 . S
C166 C167 1.335 . S
C167 C166 1.335 . S
C167 C168 1.398 . S
C167 H194 0.930 . S
C168 C163 1.382 . S
C168 C167 1.398 . S
C168 H195 0.929 . S
C169 O182 1.271 . S
C169 O183 1.251 . S
C170 O184 1.252 . S
C170 O185 1.272 . S
C171 Sm161 2.846 . S
C171 C172 1.506 . S
C171 O186 1.261 . S
C171 O187 1.242 . S
C172 C171 1.506 . S
C172 C173 1.358 . S
C172 C177 1.382 . S
C173 C172 1.358 . S
C173 C174 1.385 . S
C173 H196 0.930 . S
C174 C173 1.385 . S
C174 C175 1.395 . S
C174 H197 0.929 . S
C175 C174 1.395 . S
C175 C176 1.335 . S
C176 C175 1.335 . S
C176 C177 1.398 . S
C176 H198 0.930 . S
C177 C172 1.382 . S
C177 C176 1.398 . S
C177 H199 0.929 . S
C178 O188 1.271 . S
C178 O189 1.251 . S
C179 O190 1.252 . S
C179 O191 1.272 . S
O180 Sm160 2.543 . S
O180 C162 1.261 . S
O181 Sm160 2.450 . S
O181 C162 1.242 . S
O182 Sm160 2.681 . S
O182 Sm161 2.386 . S
O182 C169 1.271 . S
O183 Sm160 2.464 . S
O183 C169 1.251 . S
O184 Sm160 2.396 . S
O184 C170 1.252 . S
O185 Sm161 2.408 . S
O185 C170 1.272 . S
O186 Sm161 2.543 . S
O186 C171 1.261 . S
O187 Sm161 2.450 . S
O187 C171 1.242 . S
O188 Sm160 2.386 . S
O188 Sm161 2.681 . S
O188 C178 1.271 . S
O189 Sm161 2.464 . S
O189 C178 1.251 . S
O190 Sm161 2.396 . S
O190 C179 1.252 . S
O191 Sm160 2.408 . S
O191 C179 1.272 . S
H192 C164 0.930 . S
H193 C165 0.929 . S
H194 C167 0.930 . S
H195 C168 0.929 . S
H196 C173 0.930 . S
H197 C174 0.929 . S
H198 C176 0.930 . S
H199 C177 0.929 . S
Sm200 C202 2.846 . S
Sm200 O220 2.543 . S
Sm200 O221 2.450 . S
Sm200 O222 2.681 . S
Sm200 O223 2.464 . S
Sm200 O224 2.396 . S
Sm200 O228 2.386 . S
Sm200 O231 2.408 . S
Sm201 C211 2.846 . S
Sm201 O222 2.386 . S
Sm201 O225 2.408 . S
Sm201 O226 2.543 . S
Sm201 O227 2.450 . S
Sm201 O228 2.681 . S
Sm201 O229 2.464 . S
Sm201 O230 2.396 . S
C202 Sm200 2.846 . S
C202 C203 1.506 . S
C202 O220 1.261 . S
C202 O221 1.242 . S
C203 C202 1.506 . S
C203 C204 1.358 . S
C203 C208 1.382 . S
C204 C203 1.358 . S
C204 C205 1.385 . S
C204 H232 0.930 . S
C205 C204 1.385 . S
C205 C206 1.395 . S
C205 H233 0.929 . S
C206 C205 1.395 . S
C206 C207 1.335 . S
C207 C206 1.335 . S
C207 C208 1.398 . S
C207 H234 0.930 . S
C208 C203 1.382 . S
C208 C207 1.398 . S
C208 H235 0.929 . S
C209 O222 1.271 . S
C209 O223 1.251 . S
C210 O224 1.252 . S
C210 O225 1.272 . S
C211 Sm201 2.846 . S
C211 C212 1.506 . S
C211 O226 1.261 . S
C211 O227 1.242 . S
C212 C211 1.506 . S
C212 C213 1.358 . S
C212 C217 1.382 . S
C213 C212 1.358 . S
C213 C214 1.385 . S
C213 H236 0.930 . S
C214 C213 1.385 . S
C214 C215 1.395 . S
C214 H237 0.929 . S
C215 C214 1.395 . S
C215 C216 1.335 . S
C216 C215 1.335 . S
C216 C217 1.398 . S
C216 H238 0.930 . S
C217 C212 1.382 . S
C217 C216 1.398 . S
C217 H239 0.929 . S
C218 O228 1.271 . S
C218 O229 1.251 . S
C219 O230 1.252 . S
C219 O231 1.272 . S
O220 Sm200 2.543 . S
O220 C202 1.261 . S
O221 Sm200 2.450 . S
O221 C202 1.242 . S
O222 Sm200 2.681 . S
O222 Sm201 2.386 . S
O222 C209 1.271 . S
O223 Sm200 2.464 . S
O223 C209 1.251 . S
O224 Sm200 2.396 . S
O224 C210 1.252 . S
O225 Sm201 2.408 . S
O225 C210 1.272 . S
O226 Sm201 2.543 . S
O226 C211 1.261 . S
O227 Sm201 2.450 . S
O227 C211 1.242 . S
O228 Sm200 2.386 . S
O228 Sm201 2.681 . S
O228 C218 1.271 . S
O229 Sm201 2.464 . S
O229 C218 1.251 . S
O230 Sm201 2.396 . S
O230 C219 1.252 . S
O231 Sm200 2.408 . S
O231 C219 1.272 . S
H232 C204 0.930 . S
H233 C205 0.929 . S
H234 C207 0.930 . S
H235 C208 0.929 . S
H236 C213 0.930 . S
H237 C214 0.929 . S
H238 C216 0.930 . S
H239 C217 0.929 . S
Sm240 C242 2.846 . S
Sm240 O260 2.543 . S
Sm240 O261 2.450 . S
Sm240 O262 2.681 . S
Sm240 O263 2.464 . S
Sm240 O264 2.396 . S
Sm240 O268 2.386 . S
Sm240 O271 2.408 . S
Sm241 C251 2.846 . S
Sm241 O262 2.386 . S
Sm241 O265 2.408 . S
Sm241 O266 2.543 . S
Sm241 O267 2.450 . S
Sm241 O268 2.681 . S
Sm241 O269 2.464 . S
Sm241 O270 2.396 . S
C242 Sm240 2.846 . S
C242 C243 1.506 . S
C242 O260 1.261 . S
C242 O261 1.242 . S
C243 C242 1.506 . S
C243 C244 1.358 . S
C243 C248 1.382 . S
C244 C243 1.358 . S
C244 C245 1.385 . S
C244 H272 0.930 . S
C245 C244 1.385 . S
C245 C246 1.395 . S
C245 H273 0.929 . S
C246 C245 1.395 . S
C246 C247 1.335 . S
C247 C246 1.335 . S
C247 C248 1.398 . S
C247 H274 0.930 . S
C248 C243 1.382 . S
C248 C247 1.398 . S
C248 H275 0.929 . S
C249 O262 1.271 . S
C249 O263 1.251 . S
C250 O264 1.252 . S
C250 O265 1.272 . S
C251 Sm241 2.846 . S
C251 C252 1.506 1_556 S
C251 O266 1.261 . S
C251 O267 1.242 . S
C252 C251 1.506 1_554 S
C252 C253 1.358 . S
C252 C257 1.382 . S
C253 C252 1.358 . S
C253 C254 1.385 . S
C253 H276 0.930 . S
C254 C253 1.385 . S
C254 C255 1.395 . S
C254 H277 0.929 . S
C255 C254 1.395 . S
C255 C256 1.335 . S
C256 C255 1.335 . S
C256 C257 1.398 . S
C256 H278 0.930 . S
C257 C252 1.382 . S
C257 C256 1.398 . S
C257 H279 0.929 . S
C258 O268 1.271 . S
C258 O269 1.251 . S
C259 O270 1.252 . S
C259 O271 1.272 . S
O260 Sm240 2.543 . S
O260 C242 1.261 . S
O261 Sm240 2.450 . S
O261 C242 1.242 . S
O262 Sm240 2.681 . S
O262 Sm241 2.386 . S
O262 C249 1.271 . S
O263 Sm240 2.464 . S
O263 C249 1.251 . S
O264 Sm240 2.396 . S
O264 C250 1.252 . S
O265 Sm241 2.408 . S
O265 C250 1.272 . S
O266 Sm241 2.543 . S
O266 C251 1.261 . S
O267 Sm241 2.450 . S
O267 C251 1.242 . S
O268 Sm240 2.386 . S
O268 Sm241 2.681 . S
O268 C258 1.271 . S
O269 Sm241 2.464 . S
O269 C258 1.251 . S
O270 Sm241 2.396 . S
O270 C259 1.252 . S
O271 Sm240 2.408 . S
O271 C259 1.272 . S
H272 C244 0.930 . S
H273 C245 0.929 . S
H274 C247 0.930 . S
H275 C248 0.929 . S
H276 C253 0.930 . S
H277 C254 0.929 . S
H278 C256 0.930 . S
H279 C257 0.929 . S
Sm280 C282 2.846 . S
Sm280 O300 2.543 . S
Sm280 O301 2.450 . S
Sm280 O302 2.681 . S
Sm280 O303 2.464 . S
Sm280 O304 2.396 . S
Sm280 O308 2.386 . S
Sm280 O311 2.408 . S
Sm281 C291 2.846 . S
Sm281 O302 2.386 . S
Sm281 O305 2.408 . S
Sm281 O306 2.543 . S
Sm281 O307 2.450 . S
Sm281 O308 2.681 . S
Sm281 O309 2.464 . S
Sm281 O310 2.396 . S
C282 Sm280 2.846 . S
C282 C283 1.506 1_556 S
C282 O300 1.261 . S
C282 O301 1.242 . S
C283 C282 1.506 1_554 S
C283 C284 1.358 . S
C283 C288 1.382 . S
C284 C283 1.358 . S
C284 C285 1.385 . S
C284 H312 0.930 . S
C285 C284 1.385 . S
C285 C286 1.395 . S
C285 H313 0.929 . S
C286 C285 1.395 . S
C286 C287 1.335 . S
C287 C286 1.335 . S
C287 C288 1.398 . S
C287 H314 0.930 . S
C288 C283 1.382 . S
C288 C287 1.398 . S
C288 H315 0.929 . S
C289 O302 1.271 . S
C289 O303 1.251 . S
C290 O304 1.252 . S
C290 O305 1.272 . S
C291 Sm281 2.846 . S
C291 C292 1.506 . S
C291 O306 1.261 . S
C291 O307 1.242 . S
C292 C291 1.506 . S
C292 C293 1.358 . S
C292 C297 1.382 . S
C293 C292 1.358 . S
C293 C294 1.385 . S
C293 H316 0.930 . S
C294 C293 1.385 . S
C294 C295 1.395 . S
C294 H317 0.929 . S
C295 C294 1.395 . S
C295 C296 1.335 . S
C296 C295 1.335 . S
C296 C297 1.398 . S
C296 H318 0.930 . S
C297 C292 1.382 . S
C297 C296 1.398 . S
C297 H319 0.929 . S
C298 O308 1.271 . S
C298 O309 1.251 . S
C299 O310 1.252 . S
C299 O311 1.272 . S
O300 Sm280 2.543 . S
O300 C282 1.261 . S
O301 Sm280 2.450 . S
O301 C282 1.242 . S
O302 Sm280 2.681 . S
O302 Sm281 2.386 . S
O302 C289 1.271 . S
O303 Sm280 2.464 . S
O303 C289 1.251 . S
O304 Sm280 2.396 . S
O304 C290 1.252 . S
O305 Sm281 2.408 . S
O305 C290 1.272 . S
O306 Sm281 2.543 . S
O306 C291 1.261 . S
O307 Sm281 2.450 . S
O307 C291 1.242 . S
O308 Sm280 2.386 . S
O308 Sm281 2.681 . S
O308 C298 1.271 . S
O309 Sm281 2.464 . S
O309 C298 1.251 . S
O310 Sm281 2.396 . S
O310 C299 1.252 . S
O311 Sm280 2.408 . S
O311 C299 1.272 . S
H312 C284 0.930 . S
H313 C285 0.929 . S
H314 C287 0.930 . S
H315 C288 0.929 . S
H316 C293 0.930 . S
H317 C294 0.929 . S
H318 C296 0.930 . S
H319 C297 0.929 . S
Sm320 C322 2.846 . S
Sm320 O340 2.543 . S
Sm320 O341 2.450 . S
Sm320 O342 2.681 . S
Sm320 O343 2.464 . S
Sm320 O344 2.396 . S
Sm320 O348 2.386 . S
Sm320 O351 2.408 . S
Sm321 C331 2.846 . S
Sm321 O342 2.386 . S
Sm321 O345 2.408 . S
Sm321 O346 2.543 . S
Sm321 O347 2.450 . S
Sm321 O348 2.681 . S
Sm321 O349 2.464 . S
Sm321 O350 2.396 . S
C322 Sm320 2.846 . S
C322 C323 1.506 . S
C322 O340 1.261 . S
C322 O341 1.242 . S
C323 C322 1.506 . S
C323 C324 1.358 . S
C323 C328 1.382 . S
C324 C323 1.358 . S
C324 C325 1.385 . S
C324 H352 0.930 . S
C325 C324 1.385 . S
C325 C326 1.395 . S
C325 H353 0.929 . S
C326 C325 1.395 . S
C326 C327 1.335 . S
C327 C326 1.335 . S
C327 C328 1.398 . S
C327 H354 0.930 . S
C328 C323 1.382 . S
C328 C327 1.398 . S
C328 H355 0.929 . S
C329 O342 1.271 . S
C329 O343 1.251 . S
C330 O344 1.252 . S
C330 O345 1.272 . S
C331 Sm321 2.846 . S
C331 C332 1.506 1_556 S
C331 O346 1.261 . S
C331 O347 1.242 . S
C332 C331 1.506 1_554 S
C332 C333 1.358 . S
C332 C337 1.382 . S
C333 C332 1.358 . S
C333 C334 1.385 . S
C333 H356 0.930 . S
C334 C333 1.385 . S
C334 C335 1.395 . S
C334 H357 0.929 . S
C335 C334 1.395 . S
C335 C336 1.335 . S
C336 C335 1.335 . S
C336 C337 1.398 . S
C336 H358 0.930 . S
C337 C332 1.382 . S
C337 C336 1.398 . S
C337 H359 0.929 . S
C338 O348 1.271 . S
C338 O349 1.251 . S
C339 O350 1.252 . S
C339 O351 1.272 . S
O340 Sm320 2.543 . S
O340 C322 1.261 . S
O341 Sm320 2.450 . S
O341 C322 1.242 . S
O342 Sm320 2.681 . S
O342 Sm321 2.386 . S
O342 C329 1.271 . S
O343 Sm320 2.464 . S
O343 C329 1.251 . S
O344 Sm320 2.396 . S
O344 C330 1.252 . S
O345 Sm321 2.408 . S
O345 C330 1.272 . S
O346 Sm321 2.543 . S
O346 C331 1.261 . S
O347 Sm321 2.450 . S
O347 C331 1.242 . S
O348 Sm320 2.386 . S
O348 Sm321 2.681 . S
O348 C338 1.271 . S
O349 Sm321 2.464 . S
O349 C338 1.251 . S
O350 Sm321 2.396 . S
O350 C339 1.252 . S
O351 Sm320 2.408 . S
O351 C339 1.272 . S
H352 C324 0.930 . S
H353 C325 0.929 . S
H354 C327 0.930 . S
H355 C328 0.929 . S
H356 C333 0.930 . S
H357 C334 0.929 . S
H358 C336 0.930 . S
H359 C337 0.929 . S
C360 C361 1.387 . S
C360 H364 0.950 . S
C360 C369 1.390 . S
C361 C360 1.387 . S
C361 C363 1.387 . S
H362 C369 0.950 . S
C363 C361 1.387 . S
C363 C365 1.390 . S
C363 H367 0.950 . S
H364 C360 0.950 . S
C365 C363 1.390 . S
C365 C366 1.387 . S
C365 H368 0.950 . S
C366 C365 1.387 . S
C366 C369 1.387 . S
H367 C363 0.950 . S
H368 C365 0.950 . S
C369 C360 1.390 . S
C369 H362 0.950 . S
C369 C366 1.387 . S
C370 C371 1.387 . S
C370 H374 0.950 . S
C370 C379 1.390 . S
C371 C370 1.387 . S
C371 C373 1.387 . S
H372 C379 0.950 . S
C373 C371 1.387 . S
C373 C375 1.390 . S
C373 H377 0.950 . S
H374 C370 0.950 . S
C375 C373 1.390 . S
C375 C376 1.387 . S
C375 H378 0.950 . S
C376 C375 1.387 . S
C376 C379 1.387 . S
H377 C373 0.950 . S
H378 C375 0.950 . S
C379 C370 1.390 . S
C379 H372 0.950 . S
C379 C376 1.387 . S
C380 C381 1.387 . S
C380 H384 0.950 . S
C380 C389 1.390 . S
C381 C380 1.387 . S
C381 C383 1.387 . S
H382 C389 0.950 . S
C383 C381 1.387 . S
C383 C385 1.390 . S
C383 H387 0.950 . S
H384 C380 0.950 . S
C385 C383 1.390 . S
C385 C386 1.387 . S
C385 H388 0.950 . S
C386 C385 1.387 . S
C386 C389 1.387 . S
H387 C383 0.950 . S
H388 C385 0.950 . S
C389 C380 1.390 . S
C389 H382 0.950 . S
C389 C386 1.387 . S
C390 C391 1.387 . S
C390 H394 0.950 . S
C390 C399 1.390 . S
C391 C390 1.387 . S
C391 C393 1.387 . S
H392 C399 0.950 . S
C393 C391 1.387 . S
C393 C395 1.390 . S
C393 H397 0.950 . S
H394 C390 0.950 . S
C395 C393 1.390 . S
C395 C396 1.387 . S
C395 H398 0.950 . S
C396 C395 1.387 . S
C396 C399 1.387 . S
H397 C393 0.950 . S
H398 C395 0.950 . S
C399 C390 1.390 . S
C399 H392 0.950 . S
C399 C396 1.387 . S
C400 C401 1.387 . S
C400 H404 0.950 . S
C400 C409 1.390 . S
C401 C400 1.387 . S
C401 C403 1.387 . S
H402 C409 0.950 . S
C403 C401 1.387 . S
C403 C405 1.390 . S
C403 H407 0.950 . S
H404 C400 0.950 . S
C405 C403 1.390 . S
C405 C406 1.387 . S
C405 H408 0.950 . S
C406 C405 1.387 . S
C406 C409 1.387 . S
H407 C403 0.950 . S
H408 C405 0.950 . S
C409 C400 1.390 . S
C409 H402 0.950 . S
C409 C406 1.387 . S
C410 C411 1.387 . S
C410 H414 0.950 . S
C410 C419 1.390 . S
C411 C410 1.387 . S
C411 C413 1.387 . S
H412 C419 0.950 . S
C413 C411 1.387 . S
C413 C415 1.390 . S
C413 H417 0.950 . S
H414 C410 0.950 . S
C415 C413 1.390 . S
C415 C416 1.387 . S
C415 H418 0.950 . S
C416 C415 1.387 . S
C416 C419 1.387 . S
H417 C413 0.950 . S
H418 C415 0.950 . S
C419 C410 1.390 . S
C419 H412 0.950 . S
C419 C416 1.387 . S
C420 C421 1.387 . S
C420 H424 0.950 . S
C420 C429 1.390 . S
C421 C420 1.387 . S
C421 C423 1.387 . S
H422 C429 0.950 . S
C423 C421 1.387 . S
C423 C425 1.390 . S
C423 H427 0.950 . S
H424 C420 0.950 . S
C425 C423 1.390 . S
C425 C426 1.387 . S
C425 H428 0.950 . S
C426 C425 1.387 . S
C426 C429 1.387 . S
H427 C423 0.950 . S
H428 C425 0.950 . S
C429 C420 1.390 . S
C429 H422 0.950 . S
C429 C426 1.387 . S
C430 C431 1.387 . S
C430 H434 0.950 . S
C430 C439 1.390 . S
C431 C430 1.387 . S
C431 C433 1.387 . S
H432 C439 0.950 . S
C433 C431 1.387 . S
C433 C435 1.390 . S
C433 H437 0.950 . S
H434 C430 0.950 . S
C435 C433 1.390 . S
C435 C436 1.387 . S
C435 H438 0.950 . S
C436 C435 1.387 . S
C436 C439 1.387 . S
H437 C433 0.950 . S
H438 C435 0.950 . S
C439 C430 1.390 . S
C439 H432 0.950 . S
C439 C436 1.387 . S
C440 C441 1.387 . S
C440 H444 0.950 . S
C440 C449 1.390 . S
C441 C440 1.387 . S
C441 C443 1.387 . S
H442 C449 0.950 . S
C443 C441 1.387 . S
C443 C445 1.390 . S
C443 H447 0.950 . S
H444 C440 0.950 . S
C445 C443 1.390 . S
C445 C446 1.387 . S
C445 H448 0.950 . S
C446 C445 1.387 . S
C446 C449 1.387 . S
H447 C443 0.950 . S
H448 C445 0.950 . S
C449 C440 1.390 . S
C449 H442 0.950 . S
C449 C446 1.387 . S
C450 C451 1.387 . S
C450 H454 0.950 . S
C450 C459 1.390 . S
C451 C450 1.387 . S
C451 C453 1.387 . S
H452 C459 0.950 . S
C453 C451 1.387 . S
C453 C455 1.390 . S
C453 H457 0.950 . S
H454 C450 0.950 . S
C455 C453 1.390 . S
C455 C456 1.387 . S
C455 H458 0.950 . S
C456 C455 1.387 . S
C456 C459 1.387 . S
H457 C453 0.950 . S
H458 C455 0.950 . S
C459 C450 1.390 . S
C459 H452 0.950 . S
C459 C456 1.387 . S
C460 C461 1.387 . S
C460 H464 0.950 . S
C460 C469 1.390 . S
C461 C460 1.387 . S
C461 C463 1.387 . S
H462 C469 0.950 . S
C463 C461 1.387 . S
C463 C465 1.390 . S
C463 H467 0.950 . S
H464 C460 0.950 . S
C465 C463 1.390 . S
C465 C466 1.387 . S
C465 H468 0.950 . S
C466 C465 1.387 . S
C466 C469 1.387 . S
H467 C463 0.950 . S
H468 C465 0.950 . S
C469 C460 1.390 . S
C469 H462 0.950 . S
C469 C466 1.387 . S
C470 C471 1.387 1_565 S
C470 H474 0.950 . S
C470 C479 1.390 . S
C471 C470 1.387 1_545 S
C471 C473 1.387 . S
H472 C479 0.950 . S
C473 C471 1.387 . S
C473 C475 1.390 . S
C473 H477 0.950 . S
H474 C470 0.950 . S
C475 C473 1.390 . S
C475 C476 1.387 1_545 S
C475 H478 0.950 . S
C476 C475 1.387 1_565 S
C476 C479 1.387 . S
H477 C473 0.950 . S
H478 C475 0.950 . S
C479 C470 1.390 . S
C479 H472 0.950 . S
C479 C476 1.387 . S
C480 C481 1.387 . S
C480 H484 0.950 . S
C480 C489 1.390 1_554 S
C481 C480 1.387 . S
C481 C483 1.387 . S
H482 C489 0.950 . S
C483 C481 1.387 . S
C483 C485 1.390 1_554 S
C483 H487 0.950 . S
H484 C480 0.950 . S
C485 C483 1.390 1_556 S
C485 C486 1.387 . S
C485 H488 0.950 . S
C486 C485 1.387 . S
C486 C489 1.387 . S
H487 C483 0.950 . S
H488 C485 0.950 . S
C489 C480 1.390 1_556 S
C489 H482 0.950 . S
C489 C486 1.387 . S
C490 C491 1.387 . S
C490 H494 0.950 . S
C490 C499 1.390 . S
C491 C490 1.387 . S
C491 C493 1.387 1_655 S
H492 C499 0.950 . S
C493 C491 1.387 1_455 S
C493 C495 1.390 . S
C493 H497 0.950 . S
H494 C490 0.950 . S
C495 C493 1.390 . S
C495 C496 1.387 . S
C495 H498 0.950 . S
C496 C495 1.387 . S
C496 C499 1.387 1_455 S
H497 C493 0.950 . S
H498 C495 0.950 . S
C499 C490 1.390 . S
C499 H492 0.950 . S
C499 C496 1.387 1_655 S
C500 C501 1.387 . S
C500 H504 0.950 . S
C500 C509 1.390 . S
C501 C500 1.387 . S
C501 C503 1.387 . S
H502 C509 0.950 . S
C503 C501 1.387 . S
C503 C505 1.390 1_556 S
C503 H507 0.950 . S
H504 C500 0.950 . S
C505 C503 1.390 1_554 S
C505 C506 1.387 . S
C505 H508 0.950 . S
C506 C505 1.387 . S
C506 C509 1.387 1_554 S
H507 C503 0.950 . S
H508 C505 0.950 . S
C509 C500 1.390 . S
C509 H502 0.950 . S
C509 C506 1.387 1_556 S
C510 C511 1.387 . S
C510 H514 0.950 . S
C510 C519 1.390 . S
C511 C510 1.387 . S
C511 C513 1.387 . S
H512 C519 0.950 . S
C513 C511 1.387 . S
C513 C515 1.390 . S
C513 H517 0.950 . S
H514 C510 0.950 . S
C515 C513 1.390 . S
C515 C516 1.387 . S
C515 H518 0.945 1_655 S
C516 C515 1.387 . S
C516 C519 1.387 . S
H517 C513 0.950 . S
H518 C515 0.945 1_455 S
C519 C510 1.390 . S
C519 H512 0.950 . S
C519 C516 1.387 . S
C520 C521 1.387 . S
C520 H524 0.950 . S
C520 C529 1.390 . S
C521 C520 1.387 . S
C521 C523 1.387 1_556 S
H522 C529 0.950 . S
C523 C521 1.387 1_554 S
C523 C525 1.390 1_554 S
C523 H527 0.950 . S
H524 C520 0.950 . S
C525 C523 1.390 1_556 S
C525 C526 1.387 . S
C525 H528 0.950 . S
C526 C525 1.387 . S
C526 C529 1.387 . S
H527 C523 0.950 . S
H528 C525 0.950 . S
C529 C520 1.390 . S
C529 H522 0.950 . S
C529 C526 1.387 . S
C530 C531 1.387 . S
C530 H534 0.950 . S
C530 C539 1.390 1_556 S
C531 C530 1.387 . S
C531 C533 1.387 . S
H532 C539 0.950 . S
C533 C531 1.387 . S
C533 C535 1.390 . S
C533 H537 0.950 . S
H534 C530 0.950 . S
C535 C533 1.390 . S
C535 C536 1.387 1_556 S
C535 H538 0.950 1_556 S
C536 C535 1.387 1_554 S
C536 C539 1.387 . S
H537 C533 0.950 . S
H538 C535 0.950 1_554 S
C539 C530 1.390 1_554 S
C539 H532 0.950 . S
C539 C536 1.387 . S
C540 C541 1.387 . S
C540 H544 0.950 . S
C540 C549 1.390 . S
C541 C540 1.387 . S
C541 C543 1.387 . S
H542 C549 0.950 . S
C543 C541 1.387 . S
C543 C545 1.390 . S
C543 H547 0.950 . S
H544 C540 0.950 . S
C545 C543 1.390 . S
C545 C546 1.387 . S
C545 H548 0.950 . S
C546 C545 1.387 . S
C546 C549 1.387 . S
H547 C543 0.950 . S
H548 C545 0.950 . S
C549 C540 1.390 . S
C549 H542 0.950 . S
C549 C546 1.387 . S
C550 C551 1.387 . S
C550 H554 0.950 . S
C550 C559 1.390 . S
C551 C550 1.387 . S
C551 C553 1.387 . S
H552 C559 0.950 . S
C553 C551 1.387 . S
C553 C555 1.390 . S
C553 H557 0.950 . S
H554 C550 0.950 . S
C555 C553 1.390 . S
C555 C556 1.387 . S
C555 H558 0.950 1_554 S
C556 C555 1.387 . S
C556 C559 1.387 . S
H557 C553 0.950 . S
H558 C555 0.950 1_556 S
C559 C550 1.390 . S
C559 H552 0.950 . S
C559 C556 1.387 . S
C560 C561 1.387 . S
C560 H564 0.950 . S
C560 C569 1.390 . S
C561 C560 1.387 . S
C561 C563 1.387 . S
H562 C569 0.950 . S
C563 C561 1.387 . S
C563 C565 1.390 . S
C563 H567 0.950 . S
H564 C560 0.950 . S
C565 C563 1.390 . S
C565 C566 1.387 . S
C565 H568 0.950 . S
C566 C565 1.387 . S
C566 C569 1.387 . S
H567 C563 0.950 . S
H568 C565 0.950 . S
C569 C560 1.390 . S
C569 H562 0.950 . S
C569 C566 1.387 . S
C570 C571 1.387 . S
C570 H574 0.950 . S
C570 C579 1.390 . S
C571 C570 1.387 . S
C571 C573 1.387 . S
H572 C579 0.950 . S
C573 C571 1.387 . S
C573 C575 1.390 . S
C573 H577 0.950 . S
H574 C570 0.950 . S
C575 C573 1.390 . S
C575 C576 1.387 . S
C575 H578 0.950 . S
C576 C575 1.387 . S
C576 C579 1.387 . S
H577 C573 0.950 . S
H578 C575 0.950 . S
C579 C570 1.390 . S
C579 H572 0.950 . S
C579 C576 1.387 . S
C580 C581 1.387 . S
C580 H584 0.950 . S
C580 C589 1.390 . S
C581 C580 1.387 . S
C581 C583 1.387 . S
H582 C589 0.950 . S
C583 C581 1.387 . S
C583 C585 1.390 1_545 S
C583 H587 0.950 . S
H584 C580 0.950 . S
C585 C583 1.390 1_565 S
C585 C586 1.387 . S
C585 H588 0.950 . S
C586 C585 1.387 . S
C586 C589 1.387 1_565 S
H587 C583 0.950 . S
H588 C585 0.950 . S
C589 C580 1.390 . S
C589 H582 0.950 . S
C589 C586 1.387 1_545 S
C590 C591 1.387 1_455 S
C590 H594 0.950 . S
C590 C599 1.390 . S
C591 C590 1.387 1_655 S
C591 C593 1.387 . S
H592 C599 0.950 . S
C593 C591 1.387 . S
C593 C595 1.364 1_655 S
C593 H597 0.950 . S
H594 C590 0.950 . S
C595 C593 1.364 1_455 S
C595 C596 1.393 . S
C595 H598 0.959 . S
C596 C595 1.393 . S
C596 C599 1.387 . S
H597 C593 0.950 . S
H598 C595 0.959 . S
C599 C590 1.390 . S
C599 H592 0.950 . S
C599 C596 1.387 . S
C600 C601 1.387 . S
C600 H604 0.950 . S
C600 C609 1.390 . S
C601 C600 1.387 . S
C601 C603 1.387 . S
H602 C609 0.950 . S
C603 C601 1.387 . S
C603 C605 1.390 . S
C603 H607 0.950 . S
H604 C600 0.950 . S
C605 C603 1.390 . S
C605 C606 1.387 . S
C605 H608 0.950 . S
C606 C605 1.387 . S
C606 C609 1.387 . S
H607 C603 0.950 . S
H608 C605 0.950 . S
C609 C600 1.390 . S
C609 H602 0.950 . S
C609 C606 1.387 . S
C610 C611 1.387 1_545 S
C610 H614 0.950 1_545 S
C610 C619 1.390 . S
C611 C610 1.387 1_565 S
C611 C613 1.387 1_565 S
H612 C619 0.950 . S
C613 C611 1.387 1_545 S
C613 C615 1.390 . S
C613 H617 0.950 . S
H614 C610 0.950 1_565 S
C615 C613 1.390 . S
C615 C616 1.387 . S
C615 H618 0.950 . S
C616 C615 1.387 . S
C616 C619 1.387 . S
H617 C613 0.950 . S
H618 C615 0.950 . S
C619 C610 1.390 . S
C619 H612 0.950 . S
C619 C616 1.387 . S
C620 C621 1.387 . S
C620 H624 0.950 . S
C620 C629 1.382 1_655 S
C621 C620 1.387 . S
C621 C623 1.397 1_655 S
H622 C629 0.955 . S
C623 C621 1.397 1_455 S
C623 C625 1.405 . S
C623 H627 0.955 . S
H624 C620 0.950 . S
C625 C623 1.405 . S
C625 C626 1.387 . S
C625 H628 0.950 . S
C626 C625 1.387 . S
C626 C629 1.382 . S
H627 C623 0.955 . S
H628 C625 0.950 . S
C629 C620 1.382 1_455 S
C629 H622 0.955 . S
C629 C626 1.382 . S
C361 C9 3.610 . S
C366 C18 3.610 . S
C371 C58 3.712 . S
C376 C49 3.712 . S
C381 C89 3.757 . S
C386 C98 3.757 . S
C391 C138 3.610 . S
C396 C129 3.610 1_556 S
C401 C169 3.712 . S
C406 C178 3.712 1_556 S
C411 C218 3.757 . S
C416 C209 3.757 1_556 S
C421 C246 0.324 . S
C426 C255 0.324 . S
C431 C295 0.278 . S
C436 C286 0.278 . S
C441 C326 0.746 . S
C446 C335 0.746 . S
C451 C210 1.588 . S
C456 C6 1.619 . S
C461 C50 2.668 . S
C466 C130 2.708 . S
C471 C86 1.224 . S
C476 C166 1.240 . S
C481 C90 3.118 . S
C486 C259 3.317 . S
C491 C298 1.377 . S
C496 C10 1.267 . S
C501 C339 2.270 . S
C506 C46 2.065 . S
C511 C329 1.174 . S
C516 C15 1.065 . S
C521 C59 2.396 1_556 S
C526 C249 2.481 . S
C531 C290 3.234 . S
C536 C95 2.966 . S
C541 C99 1.589 . S
C546 C135 1.619 . S
C551 C179 2.668 . S
C556 C19 2.708 . S
C561 C55 1.240 . S
C566 C215 1.224 . S
C571 C338 1.177 . S
C576 C126 1.070 . S
C581 C258 2.483 . S
C586 C170 2.398 . S
C591 C299 3.234 . S
C596 C206 2.964 . S
C601 C250 3.317 . S
C606 C219 3.120 . S
C611 C139 1.267 . S
C616 C289 1.377 . S
C621 C330 2.271 . S
C626 C175 2.066 . S
