# Generated by pormake.
# Topology wnr, (7)-cn, num edge types: 1
# Building blocks:
#     Node 0, Type 0, BuildingBlock: HICVOG_clean_sbu_0, # of connection points: 7
#     Node 1, Type 0, BuildingBlock: HICVOG_clean_sbu_0, # of connection points: 7
#     Node 2, Type 0, BuildingBlock: HICVOG_clean_sbu_0, # of connection points: 7
#     Node 3, Type 0, BuildingBlock: HICVOG_clean_sbu_0, # of connection points: 7
#     Node 4, Type 0, BuildingBlock: HICVOG_clean_sbu_0, # of connection points: 7
#     Node 5, Type 0, BuildingBlock: HICVOG_clean_sbu_0, # of connection points: 7
#     Edge 6, Type (0, 0), BuildingBlock: XUDNAN_clean_linker_2, # of connection points: 2
#     Edge 7, Type (0, 0), BuildingBlock: XUDNAN_clean_linker_2, # of connection points: 2
#     Edge 8, Type (0, 0), BuildingBlock: XUDNAN_clean_linker_2, # of connection points: 2
#     Edge 9, Type (0, 0), BuildingBlock: XUDNAN_clean_linker_2, # of connection points: 2
#     Edge 10, Type (0, 0), BuildingBlock: XUDNAN_clean_linker_2, # of connection points: 2
#     Edge 11, Type (0, 0), BuildingBlock: XUDNAN_clean_linker_2, # of connection points: 2
#     Edge 12, Type (0, 0), BuildingBlock: XUDNAN_clean_linker_2, # of connection points: 2
#     Edge 13, Type (0, 0), BuildingBlock: XUDNAN_clean_linker_2, # of connection points: 2
#     Edge 14, Type (0, 0), BuildingBlock: XUDNAN_clean_linker_2, # of connection points: 2
#     Edge 15, Type (0, 0), BuildingBlock: XUDNAN_clean_linker_2, # of connection points: 2
#     Edge 16, Type (0, 0), BuildingBlock: XUDNAN_clean_linker_2, # of connection points: 2
#     Edge 17, Type (0, 0), BuildingBlock: XUDNAN_clean_linker_2, # of connection points: 2
#     Edge 18, Type (0, 0), BuildingBlock: XUDNAN_clean_linker_2, # of connection points: 2
#     Edge 19, Type (0, 0), BuildingBlock: XUDNAN_clean_linker_2, # of connection points: 2
#     Edge 20, Type (0, 0), BuildingBlock: XUDNAN_clean_linker_2, # of connection points: 2
#     Edge 21, Type (0, 0), BuildingBlock: XUDNAN_clean_linker_2, # of connection points: 2
#     Edge 22, Type (0, 0), BuildingBlock: XUDNAN_clean_linker_2, # of connection points: 2
#     Edge 23, Type (0, 0), BuildingBlock: XUDNAN_clean_linker_2, # of connection points: 2
#     Edge 24, Type (0, 0), BuildingBlock: XUDNAN_clean_linker_2, # of connection points: 2
#     Edge 25, Type (0, 0), BuildingBlock: XUDNAN_clean_linker_2, # of connection points: 2
#     Edge 26, Type (0, 0), BuildingBlock: XUDNAN_clean_linker_2, # of connection points: 2
# Relax obj value: 0.156
# Max RMSD: 0.226
# Mean RMSD: 0.226
data_MOF--net-wnr--node1-HICVOG_clean_sbu_0--edge1-XUDNAN_clean_linker_2
_symmetry_space_group_name_H-M    P1
_symmetry_Int_Tables_number       1
_symmetry_cell_setting            triclinic
loop_
_symmetry_equiv_pos_as_xyz
'x, y, z'
_cell_length_a     43.027908
_cell_length_b     43.016029
_cell_length_c     17.773862
_cell_angle_alpha  89.926091
_cell_angle_beta   90.011403
_cell_angle_gamma 119.7702
loop_
_atom_site_label
_atom_site_type_symbol
_atom_site_fract_x
_atom_site_fract_y
_atom_site_fract_z
_atom_type_partial_charge
Zn0 Zn 0.17584 0.3954 0.00357 0.0
C1 C 0.11133 0.41951 0.128 0.0
N2 N 0.08582 0.39561 0.08348 0.0
C3 C 0.10362 0.38595 0.03598 0.0
N4 N 0.13921 0.40279 0.052 0.0
N5 N 0.14403 0.42465 0.10949 0.0
C6 C 0.21165 0.46904 0.31212 0.0
O7 O 0.23823 0.50128 0.29729 0.0
O8 O 0.16843 0.39202 0.89137 0.0
Zn9 Zn 0.18745 0.46418 0.15307 0.0
N10 N 0.17517 0.35213 0.03987 0.0
C11 C 0.1544 0.30398 0.12732 0.0
C12 C 0.15348 0.33367 0.09835 0.0
C13 C 0.1978 0.34197 0.00891 0.0
N14 N 0.17694 0.29388 0.09667 0.0
C15 C 0.19882 0.31183 0.03774 0.0
O16 O 0.23499 0.47764 0.10223 0.0
C17 C 0.24674 0.46459 0.05301 0.0
O18 O 0.22621 0.43555 0.01887 0.0
H19 H 0.13594 0.3422 0.12282 0.0
H20 H 0.21531 0.35782 0.96362 0.0
C21 C 0.18981 0.53119 0.20173 0.0
C22 C 0.18583 0.56145 0.18799 0.0
C23 C 0.16397 0.53886 0.06545 0.0
C24 C 0.16888 0.50975 0.07875 0.0
N25 N 0.18161 0.50632 0.14633 0.0
N26 N 0.17272 0.56392 0.1198 0.0
H27 H 0.19905 0.52724 0.2553 0.0
C28 C 0.17821 0.42075 0.8545 0.0
O29 O 0.19129 0.45119 0.89117 0.0
O30 O 0.18964 0.45086 0.26065 0.0
H31 H 0.16264 0.48989 0.03537 0.0
H32 H 0.13739 0.28913 0.17412 0.0
H33 H 0.1537 0.54181 0.01197 0.0
Zn34 Zn 0.62988 0.77824 0.67104 0.0
C35 C 0.6325 0.70454 0.80415 0.0
N36 N 0.65513 0.70541 0.75126 0.0
C37 C 0.65305 0.72637 0.69826 0.0
N38 N 0.63036 0.73809 0.71735 0.0
N39 N 0.61704 0.72407 0.78406 0.0
C40 C 0.61042 0.75289 0.96372 0.0
O41 O 0.63357 0.77501 0.91433 0.0
O42 O 0.63976 0.77898 0.56042 0.0
Zn43 Zn 0.57314 0.7182 0.82903 0.0
N44 N 0.6679 0.82235 0.71417 0.0
C45 C 0.71508 0.85208 0.80256 0.0
C46 C 0.68774 0.82058 0.77173 0.0
C47 C 0.67444 0.85449 0.68579 0.0
N48 N 0.7219 0.88411 0.77382 0.0
C49 C 0.7026 0.88661 0.71567 0.0
O50 O 0.55222 0.74774 0.78283 0.0
C51 C 0.557 0.76811 0.72646 0.0
O52 O 0.58389 0.77862 0.68312 0.0
H53 H 0.6824 0.79494 0.79358 0.0
H54 H 0.65756 0.85457 0.64089 0.0
C55 C 0.50965 0.64816 0.86008 0.0
C56 C 0.48607 0.61183 0.84301 0.0
C57 C 0.5187 0.61828 0.73072 0.0
C58 C 0.54182 0.65408 0.74756 0.0
N59 N 0.53732 0.66829 0.81217 0.0
N60 N 0.49162 0.59807 0.77876 0.0
H61 H 0.50652 0.66003 0.91112 0.0
C62 C 0.61628 0.75693 0.51528 0.0
O63 O 0.585 0.7327 0.5418 0.0
O64 O 0.58122 0.72669 0.94047 0.0
H65 H 0.56339 0.67044 0.70937 0.0
H66 H 0.731 0.85111 0.84866 0.0
H67 H 0.52222 0.60658 0.67987 0.0
Zn68 Zn 0.31316 0.86414 0.50207 0.0
C69 C 0.29298 0.93122 0.37665 0.0
N70 N 0.31318 0.95559 0.42766 0.0
C71 C 0.32042 0.93671 0.4778 0.0
N72 N 0.30579 0.90176 0.45738 0.0
N73 N 0.28787 0.89852 0.39423 0.0
C74 C 0.28116 0.85979 0.21052 0.0
O75 O 0.3011 0.8541 0.2584 0.0
O76 O 0.31143 0.86534 0.61513 0.0
Zn77 Zn 0.24857 0.8566 0.34812 0.0
N78 N 0.3609 0.87301 0.47849 0.0
C79 C 0.41442 0.9007 0.40638 0.0
C80 C 0.37993 0.89454 0.42031 0.0
C81 C 0.37473 0.85704 0.52298 0.0
N82 N 0.42839 0.88508 0.45121 0.0
C83 C 0.4097 0.86331 0.50985 0.0
O84 O 0.24521 0.80948 0.3726 0.0
C85 C 0.25729 0.79475 0.4168 0.0
O86 O 0.28094 0.81283 0.46609 0.0
H87 H 0.36845 0.9069 0.38544 0.0
H88 H 0.35812 0.83942 0.56726 0.0
C89 C 0.17153 0.83065 0.34814 0.0
C90 C 0.1404 0.83097 0.37197 0.0
C91 C 0.17569 0.87844 0.45603 0.0
C92 C 0.20623 0.87778 0.43303 0.0
N93 N 0.20387 0.85445 0.37868 0.0
N94 N 0.14368 0.85522 0.425 0.0
H95 H 0.17022 0.81212 0.30543 0.0
C96 C 0.2937 0.87425 0.65851 0.0
O97 O 0.27145 0.88368 0.62984 0.0
O98 O 0.25486 0.86231 0.23568 0.0
H99 H 0.2316 0.8958 0.45882 0.0
H100 H 0.43004 0.91783 0.36039 0.0
H101 H 0.17734 0.89715 0.49863 0.0
Zn102 Zn 0.47561 0.17537 0.83798 0.0
C103 C 0.40788 0.09326 0.97264 0.0
N104 N 0.41869 0.07601 0.9261 0.0
C105 C 0.43797 0.10066 0.8745 0.0
N106 N 0.43931 0.1321 0.88873 0.0
N107 N 0.41977 0.1275 0.95013 0.0
C108 C 0.42169 0.15634 0.14999 0.0
O109 O 0.45155 0.1594 0.12325 0.0
O110 O 0.46416 0.1736 0.72655 0.0
Zn111 Zn 0.40739 0.16218 0.99113 0.0
N112 N 0.52059 0.17502 0.84929 0.0
C113 C 0.55532 0.16099 0.93206 0.0
C114 C 0.52438 0.16239 0.91675 0.0
C115 C 0.54716 0.18713 0.7964 0.0
N116 N 0.58169 0.17293 0.87979 0.0
C117 C 0.579 0.18628 0.81205 0.0
O118 O 0.44619 0.21297 0.97616 0.0
C119 C 0.47334 0.23391 0.9369 0.0
O120 O 0.48532 0.22253 0.88457 0.0
H121 H 0.50343 0.15353 0.95859 0.0
H122 H 0.54329 0.19699 0.74326 0.0
C123 C 0.35343 0.18187 0.95475 0.0
C124 C 0.32551 0.18066 0.91095 0.0
C125 C 0.32189 0.13136 0.84326 0.0
C126 C 0.34974 0.1329 0.88606 0.0
N127 N 0.3652 0.15819 0.94054 0.0
N128 N 0.31073 0.15537 0.85609 0.0
H129 H 0.36662 0.20227 -0.00267 0.0
C130 C 0.43662 0.1744 0.70322 0.0
O131 O 0.41527 0.17691 0.75267 0.0
O132 O 0.39873 0.15599 0.10425 0.0
H133 H 0.35946 0.11452 0.87484 0.0
H134 H 0.55854 0.15077 0.98538 0.0
H135 H 0.30961 0.11159 0.79921 0.0
Zn136 Zn 0.87304 0.24621 0.64129 0.0
C137 C 0.95769 0.32435 0.52676 0.0
N138 N 0.97461 0.31369 0.57472 0.0
C139 C 0.94862 0.28988 0.61854 0.0
N140 N 0.91651 0.28585 0.59935 0.0
N141 N 0.92173 0.30744 0.54093 0.0
C142 C 0.88847 0.2804 0.3547 0.0
O143 O 0.89735 0.26314 0.40328 0.0
O144 O 0.87879 0.24292 0.75456 0.0
Zn145 Zn 0.88465 0.31558 0.4923 0.0
N146 N 0.86539 0.20207 0.59316 0.0
C147 C 0.88232 0.17597 0.4946 0.0
C148 C 0.88771 0.20584 0.5353 0.0
C149 C 0.83812 0.16901 0.6132 0.0
N150 N 0.85481 0.14329 0.51332 0.0
C151 C 0.83255 0.13874 0.57179 0.0
O152 O 0.83403 0.28841 0.53768 0.0
C153 C 0.81554 0.26505 0.58742 0.0
O154 O 0.82874 0.24965 0.62641 0.0
H155 H 0.90934 0.23191 0.51987 0.0
H156 H 0.82048 0.16649 0.6591 0.0
C157 C 0.88891 0.3849 0.46141 0.0
C158 C 0.90163 0.42149 0.47627 0.0
C159 C 0.93283 0.4176 0.58304 0.0
C160 C 0.9202 0.38157 0.56829 0.0
N161 N 0.89897 0.36596 0.50743 0.0
N162 N 0.92342 0.43662 0.53679 0.0
H163 H 0.87197 0.37187 0.41333 0.0
C164 C 0.87283 0.26209 0.80054 0.0
O165 O 0.86314 0.28451 0.77393 0.0
O166 O 0.88109 0.30382 0.37911 0.0
H167 H 0.92746 0.36615 0.60499 0.0
H168 H 0.89968 0.17877 0.44796 0.0
H169 H 0.95002 0.43043 0.63087 0.0
Zn170 Zn 0.73283 0.55454 0.17351 0.0
C171 C 0.71262 0.61752 0.30138 0.0
N172 N 0.68916 0.61092 0.24558 0.0
C173 C 0.69988 0.597 0.19094 0.0
N174 N 0.72805 0.59378 0.2141 0.0
N175 N 0.73692 0.60756 0.28256 0.0
C176 C 0.75845 0.60198 0.48581 0.0
O177 O 0.73335 0.57143 0.45817 0.0
O178 O 0.73832 0.56134 0.06127 0.0
Zn179 Zn 0.7822 0.61904 0.32931 0.0
N180 N 0.68782 0.51255 0.19767 0.0
C181 C 0.64624 0.48225 0.29632 0.0
C182 C 0.67928 0.50964 0.27192 0.0
C183 C 0.66486 0.48861 0.14641 0.0
N184 N 0.62302 0.45879 0.24539 0.0
C185 C 0.63136 0.46098 0.17098 0.0
O186 O 0.79747 0.58233 0.31379 0.0
C187 C 0.79348 0.55662 0.27211 0.0
O188 O 0.77135 0.54526 0.21762 0.0
H189 H 0.6979 0.52897 0.3116 0.0
H190 H 0.67211 0.49171 0.08745 0.0
C191 C 0.85494 0.67174 0.2964 0.0
C192 C 0.88262 0.70384 0.26593 0.0
C193 C 0.83896 0.71653 0.21547 0.0
C194 C 0.81172 0.68473 0.24572 0.0
N195 N 0.82018 0.6631 0.28608 0.0
N196 N 0.87362 0.7254 0.22655 0.0
H197 H 0.86082 0.65411 0.32932 0.0
C198 C 0.76347 0.59108 0.03722 0.0
O199 O 0.78565 0.61455 0.086 0.0
O200 O 0.78121 0.62547 0.44153 0.0
H201 H 0.78405 0.67754 0.23785 0.0
H202 H 0.63892 0.47983 0.35514 0.0
H203 H 0.83265 0.73414 0.1837 0.0
H204 H 0.04884 0.38662 0.96903 0.0
H205 H 0.11277 0.33443 0.95565 0.0
H206 H 0.07163 0.29408 0.85594 0.0
H207 H 0.96253 0.30657 0.95289 0.0
H208 H 0.94491 0.33081 0.90218 0.0
H209 H 0.97998 0.35364 0.97015 0.0
H210 H 1.01845 0.39994 0.86636 0.0
H211 H 0.98286 0.37647 0.80008 0.0
H212 H 0.02707 0.38392 0.77953 0.0
H213 H 0.02399 0.26333 0.74916 0.0
H214 H 0.98074 0.25006 0.64534 0.0
H215 H 0.94491 0.31735 0.74943 0.0
C216 C 0.05445 0.36663 0.94584 0.0
C217 C 0.08428 0.36389 0.96982 0.0
C218 C 0.09059 0.33759 0.93699 0.0
C219 C 0.06691 0.31419 0.88146 0.0
C220 C 0.03678 0.317 0.86175 0.0
C221 C 0.03081 0.34276 0.89361 0.0
C222 C 0.99762 0.34184 0.86359 0.0
C223 C 0.96961 0.33261 0.92597 0.0
C224 C 1.00708 0.37763 0.82508 0.0
C225 C 0.98558 0.3118 0.80764 0.0
C226 C 1.00835 0.29761 0.80683 0.0
C227 C 1.00543 0.2734 0.75128 0.0
C228 C 0.98035 0.26548 0.69312 0.0
C229 C 0.95833 0.28135 0.69166 0.0
C230 C 0.95971 0.30306 0.75192 0.0
H231 H 0.65521 0.61502 0.36502 0.0
H232 H 0.77102 0.6716 0.3773 0.0
H233 H 0.76904 0.71366 0.46965 0.0
H234 H 0.64672 0.69494 0.36935 0.0
H235 H 0.60549 0.67262 0.42191 0.0
H236 H 0.61722 0.64741 0.35865 0.0
H237 H 0.61108 0.60449 0.46867 0.0
H238 H 0.5988 0.62963 0.53043 0.0
H239 H 0.63597 0.62322 0.55417 0.0
H240 H 0.75275 0.74723 0.56621 0.0
H241 H 0.72384 0.76453 0.66543 0.0
H242 H 0.61976 0.69042 0.57463 0.0
C243 C 0.68025 0.63601 0.38781 0.0
C244 C 0.71327 0.63927 0.36605 0.0
C245 C 0.74538 0.6675 0.39582 0.0
C246 C 0.74447 0.69206 0.44683 0.0
C247 C 0.71129 0.68862 0.46497 0.0
C248 C 0.67981 0.66117 0.43617 0.0
C249 C 0.64745 0.6626 0.46435 0.0
C250 C 0.62812 0.66984 0.39968 0.0
C251 C 0.62185 0.62796 0.50697 0.0
C252 C 0.66536 0.6944 0.51637 0.0
C253 C 0.70226 0.70947 0.51541 0.0
C254 C 0.72404 0.73637 0.56581 0.0
C255 C 0.7075 0.74644 0.62125 0.0
C256 C 0.66978 0.72988 0.62499 0.0
C257 C 0.64869 0.70488 0.5699 0.0
H258 H 0.33164 0.93343 0.25883 0.0
H259 H 0.25385 0.9623 0.33342 0.0
H260 H 0.27215 1.00691 0.2303 0.0
H261 H 0.39686 0.01733 0.24204 0.0
H262 H 0.41936 1.01135 0.16253 0.0
H263 H 0.39305 0.97431 0.22413 0.0
H264 H 0.35503 0.93635 0.11297 0.0
H265 H 0.38093 0.97248 0.04876 0.0
H266 H 0.33296 0.95297 0.05231 0.0
H267 H 0.30661 0.05523 0.12754 0.0
H268 H 0.35052 0.09791 0.0347 0.0
H269 H 0.41034 0.04154 0.04961 0.0
C270 C 0.31655 0.94713 0.24963 0.0
C271 C 0.29014 0.94325 0.30119 0.0
C272 C 0.273 0.96383 0.29191 0.0
C273 C 0.28364 0.98958 0.23419 0.0
C274 C 0.31189 0.99472 0.18748 0.0
C275 C 0.32779 0.97361 0.19447 0.0
C276 C 0.36137 0.98791 0.14776 0.0
C277 C 0.39458 0.99834 0.1971 0.0
C278 C 0.3573 0.96083 0.08676 0.0
C279 C 0.36232 0.02055 0.11421 0.0
C280 C 0.33346 0.02407 0.13606 0.0
C281 C 0.32934 0.05263 0.11036 0.0
C282 C 0.35476 0.07726 0.059 0.0
C283 C 0.38431 0.0736 0.03651 0.0
C284 C 0.38819 0.0453 0.06617 0.0
H285 H 0.16653 0.61315 0.1849 0.0
H286 H 0.23037 0.57945 0.31465 0.0
H287 H 0.25066 0.63239 0.3956 0.0
H288 H 0.23053 0.7039 0.1814 0.0
H289 H 0.19869 0.71946 0.18763 0.0
H290 H 0.18565 0.6766 0.14613 0.0
H291 H 0.13291 0.64602 0.24042 0.0
H292 H 0.14579 0.68888 0.28224 0.0
H293 H 0.14167 0.65255 0.34001 0.0
H294 H 0.26844 0.69283 0.45623 0.0
H295 H 0.28228 0.75439 0.48791 0.0
H296 H 0.20771 0.74825 0.31605 0.0
C297 C 0.18437 0.61635 0.23091 0.0
C298 C 0.19624 0.59135 0.24312 0.0
C299 C 0.21992 0.59727 0.30411 0.0
C300 C 0.23187 0.6276 0.35057 0.0
C301 C 0.22002 0.65187 0.3357 0.0
C302 C 0.19669 0.64642 0.27732 0.0
C303 C 0.1898 0.67754 0.26925 0.0
C304 C 0.2019 0.69542 0.19152 0.0
C305 C 0.15019 0.66552 0.28387 0.0
C306 C 0.21346 0.70181 0.3313 0.0
C307 C 0.23045 0.68649 0.36964 0.0
C308 C 0.25493 0.70484 0.42703 0.0
C309 C 0.26259 0.73984 0.44472 0.0
C310 C 0.24603 0.75631 0.40483 0.0
C311 C 0.2207 0.73654 0.34827 0.0
H312 H 0.29417 0.53706 0.03743 0.0
H313 H 0.28609 0.43258 0.02585 0.0
H314 H 0.34938 0.46083 0.98725 0.0
H315 H 0.3454 0.57016 0.8725 0.0
H316 H 0.37268 0.6155 0.90522 0.0
H317 H 0.3284 0.58802 0.94288 0.0
H318 H 0.35451 0.59907 0.07775 0.0
H319 H 0.39898 0.62657 0.0404 0.0
H320 H 0.38934 0.5888 0.0997 0.0
H321 H 0.41077 0.49854 0.93988 0.0
H322 H 0.46625 0.54341 0.87787 0.0
H323 H 0.43606 0.62461 0.91426 0.0
C324 C 0.30613 0.52037 0.02852 0.0
C325 C 0.28546 0.48267 0.03556 0.0
C326 C 0.30155 0.46149 0.02113 0.0
C327 C 0.33752 0.47732 -0.00041 0.0
C328 C 0.3571 0.51442 0.99194 0.0
C329 C 0.34207 0.53578 0.0054 0.0
C330 C 0.36819 0.57458 0.98503 0.0
C331 C 0.35274 0.58783 0.9227 0.0
C332 C 0.37835 0.59868 0.0549 0.0
C333 C 0.39986 0.57143 0.95665 0.0
C334 C 0.39289 0.53649 0.96246 0.0
C335 C 0.41675 0.52607 0.93586 0.0
C336 C 0.44819 0.55175 0.90062 0.0
C337 C 0.45567 0.58754 0.89198 0.0
C338 C 0.43149 0.59768 0.92186 0.0
H339 H 0.55357 0.80245 0.59944 0.0
H340 H 0.50021 0.76007 0.81317 0.0
H341 H 0.45666 0.77997 0.78229 0.0
H342 H 0.54368 0.88041 0.59503 0.0
H343 H 0.53603 0.87803 0.49496 0.0
H344 H 0.56293 0.86075 0.5347 0.0
H345 H 0.52167 0.79909 0.47312 0.0
H346 H 0.49464 0.81616 0.43316 0.0
H347 H 0.4742 0.77659 0.49132 0.0
H348 H 0.41966 0.80613 0.72784 0.0
H349 H 0.39133 0.8337 0.65445 0.0
H350 H 0.46791 0.85636 0.47385 0.0
C351 C 0.53285 0.79738 0.64016 0.0
C352 C 0.5305 0.77978 0.70908 0.0
C353 C 0.50265 0.7735 0.7601 0.0
C354 C 0.47781 0.78476 0.74305 0.0
C355 C 0.48103 0.80206 0.67458 0.0
C356 C 0.50779 0.80816 0.62388 0.0
C357 C 0.50526 0.82677 0.55366 0.0
C358 C 0.53898 0.86368 0.54407 0.0
C359 C 0.49853 0.80324 0.4837 0.0
C360 C 0.47285 0.83031 0.57261 0.0
C361 C 0.45931 0.81607 0.64263 0.0
C362 C 0.42981 0.81693 0.6725 0.0
C363 C 0.4136 0.83248 0.62957 0.0
C364 C 0.42662 0.84674 0.55673 0.0
C365 C 0.4569 0.84566 0.52879 0.0
H366 H 0.63086 0.16746 0.80994 0.0
H367 H 0.59916 0.23685 0.69645 0.0
H368 H 0.65436 0.26199 0.61993 0.0
H369 H 0.72174 0.23104 0.8264 0.0
H370 H 0.73726 0.19954 0.81191 0.0
H371 H 0.69365 0.18462 0.85164 0.0
H372 H 0.66473 0.13704 0.74632 0.0
H373 H 0.70834 0.15171 0.70642 0.0
H374 H 0.67334 0.15085 0.64919 0.0
H375 H 0.7166 0.2828 0.56169 0.0
H376 H 0.77801 0.29629 0.52846 0.0
H377 H 0.7678 0.21363 0.6834 0.0
C378 C 0.63509 0.18765 0.76845 0.0
C379 C 0.61012 0.19973 0.75922 0.0
C380 C 0.61718 0.22636 0.70409 0.0
C381 C 0.64873 0.24107 0.66051 0.0
C382 C 0.67298 0.22887 0.67239 0.0
C383 C 0.66628 0.20257 0.72493 0.0
C384 C 0.69706 0.19508 0.73022 0.0
C385 C 0.71338 0.20306 0.80974 0.0
C386 C 0.68515 0.15637 0.70661 0.0
C387 C 0.72259 0.2217 0.67337 0.0
C388 C 0.70831 0.24085 0.63999 0.0
C389 C 0.72781 0.26769 0.58721 0.0
C390 C 0.76271 0.27518 0.56863 0.0
C391 C 0.77792 0.25605 0.60308 0.0
C392 C 0.75718 0.22879 0.65563 0.0
H393 H 0.83702 0.40497 0.40772 0.0
H394 H 0.94608 0.49103 0.44137 0.0
H395 H 0.93124 0.53336 0.38037 0.0
H396 H 0.82236 0.43831 0.22266 0.0
H397 H 0.7766 0.42505 0.24538 0.0
H398 H 0.79665 0.40009 0.28257 0.0
H399 H 0.78055 0.40971 0.41764 0.0
H400 H 0.76071 0.43486 0.38103 0.0
H401 H 0.79571 0.45461 0.45058 0.0
H402 H 0.90361 0.568 0.3336 0.0
H403 H 0.86486 0.59261 0.29624 0.0
H404 H 0.77355 0.4852 0.28593 0.0
C405 C 0.85802 0.43245 0.39987 0.0
C406 C 0.89287 0.44461 0.42885 0.0
C407 C 0.91926 0.48107 0.41964 0.0
C408 C 0.91113 0.50535 0.3848 0.0
C409 C 0.87642 0.49289 0.3589 0.0
C410 C 0.85027 0.45728 0.36509 0.0
C411 C 0.81443 0.45178 0.33735 0.0
C412 C 0.80177 0.42736 0.26784 0.0
C413 C 0.7862 0.43686 0.40042 0.0
C414 C 0.82441 0.48997 0.31693 0.0
C415 C 0.86041 0.51314 0.32965 0.0
C416 C 0.87557 0.55009 0.32171 0.0
C417 C 0.85338 0.56385 0.30073 0.0
C418 C 0.81649 0.54077 0.28697 0.0
C419 C 0.80191 0.5033 0.29409 0.0
H420 H 0.54552 0.28202 0.932 0.0
H421 H 0.44276 0.272 0.98726 0.0
H422 H 0.47325 0.33405 0.03444 0.0
H423 H 0.58785 0.32609 0.09426 0.0
H424 H 0.63101 0.35535 0.05294 0.0
H425 H 0.60146 0.31299 0.00967 0.0
H426 H 0.60467 0.34517 0.88424 0.0
H427 H 0.63437 0.38777 0.92722 0.0
H428 H 0.59358 0.38046 0.88299 0.0
H429 H 0.51367 0.39234 0.09259 0.0
H430 H 0.56199 0.44343 0.16071 0.0
H431 H 0.63967 0.41732 0.06987 0.0
C432 C 0.52953 0.29344 0.95163 0.0
C433 C 0.4918 0.27247 0.9552 0.0
C434 C 0.47168 0.28774 0.98372 0.0
C435 C 0.48876 0.32301 0.01024 0.0
C436 C 0.52601 0.34271 0.00807 0.0
C437 C 0.54627 0.32861 0.97941 0.0
C438 C 0.58593 0.35396 0.99237 0.0
C439 C 0.60251 0.33602 0.04016 0.0
C440 C 0.60581 0.36766 0.91722 0.0
C441 C 0.58464 0.38378 0.03531 0.0
C442 C 0.54977 0.37692 0.04247 0.0
C443 C 0.54115 0.3985 0.08591 0.0
C444 C 0.5687 0.42738 0.12448 0.0
C445 C 0.60445 0.43457 0.11917 0.0
C446 C 0.61266 0.413 0.07267 0.0
H447 H 0.02913 0.35574 0.50924 0.0
H448 H 0.93702 0.35674 0.41359 0.0
H449 H 0.97631 0.40063 0.31891 0.0
H450 H 0.09857 0.44944 0.46246 0.0
H451 H 0.13086 0.43644 0.43665 0.0
H452 H 0.09906 0.41277 0.51061 0.0
H453 H 0.07543 0.35203 0.44483 0.0
H454 H 0.10812 0.37339 0.37252 0.0
H455 H 0.06149 0.34726 0.34781 0.0
H456 H 0.02471 0.43782 0.22447 0.0
H457 H 0.06897 0.44903 0.1252 0.0
H458 H 0.12496 0.41451 0.2747 0.0
C459 C 1.01681 0.36561 0.46999 0.0
C460 C 0.97942 0.35274 0.47046 0.0
C461 C 0.9652 0.36629 0.41626 0.0
C462 C 0.98766 0.39164 0.36235 0.0
C463 C 0.02435 0.40311 0.36332 0.0
C464 C 0.03854 0.3899 0.4155 0.0
C465 C 0.07665 0.3998 0.39673 0.0
C466 C 0.1028 0.42614 0.45514 0.0
C467 C 0.0806 0.36615 0.38998 0.0
C468 C 0.08099 0.41819 0.32185 0.0
C469 C 0.05149 0.42203 0.30598 0.0
C470 C 0.04804 0.43541 0.23704 0.0
C471 C 0.0736 0.44208 0.1811 0.0
C472 C 0.10113 0.43361 0.19308 0.0
C473 C 0.10604 0.42367 0.26557 0.0
H474 H 0.64145 0.56993 0.09582 0.0
H475 H 0.75213 0.65346 0.12027 0.0
H476 H 0.74129 0.69269 0.03727 0.0
H477 H 0.63948 0.5926 0.8863 0.0
H478 H 0.5928 0.57979 0.89256 0.0
H479 H 0.61032 0.55744 0.94986 0.0
H480 H 0.58552 0.57334 0.06763 0.0
H481 H 0.56976 0.59751 0.01117 0.0
H482 H 0.60017 0.61966 0.088 0.0
H483 H 0.71457 0.72729 0.98312 0.0
H484 H 0.68423 0.74811 0.89628 0.0
H485 H 0.59482 0.6399 0.87879 0.0
C486 C 0.66385 0.59561 0.07977 0.0
C487 C 0.69767 0.60872 0.11451 0.0
C488 C 0.72623 0.64272 0.0935 0.0
C489 C 0.7201 0.66556 0.04785 0.0
C490 C 0.68569 0.65319 0.02041 0.0
C491 C 0.65875 0.61821 0.03027 0.0
C492 C 0.62515 0.61142 0.98818 0.0
C493 C 0.61643 0.58368 0.92547 0.0
C494 C 0.59328 0.59978 0.04201 0.0
C495 C 0.63722 0.64849 0.95616 0.0
C496 C 0.6717 0.67235 0.97895 0.0
C497 C 0.68803 0.7087 0.96254 0.0
C498 C 0.67018 0.72042 0.91477 0.0
C499 C 0.63729 0.69563 0.88116 0.0
C500 C 0.6197 0.65946 0.90477 0.0
H501 H 0.40302 0.10109 0.75165 0.0
H502 H 0.47477 0.06651 0.83793 0.0
H503 H 0.45379 0.01931 0.74037 0.0
H504 H 0.33366 0.01982 0.73964 0.0
H505 H 0.31342 0.02593 0.65628 0.0
H506 H 0.34133 0.06372 0.71463 0.0
H507 H 0.38154 0.09673 0.6024 0.0
H508 H 0.35456 0.06 0.54081 0.0
H509 H 0.40201 0.07639 0.54799 0.0
H510 H 0.41571 0.96843 0.6468 0.0
H511 H 0.37105 0.92588 0.5562 0.0
H512 H 0.32093 0.99167 0.54749 0.0
C513 C 0.41652 0.08564 0.74582 0.0
C514 C 0.44155 0.08833 0.79994 0.0
C515 C 0.45655 0.06563 0.7948 0.0
C516 C 0.44428 0.03836 0.74041 0.0
C517 C 0.41688 0.03417 0.6922 0.0
C518 C 0.40375 0.05779 0.69362 0.0
C519 C 0.37084 0.04479 0.64511 0.0
C520 C 0.3379 0.03818 0.69175 0.0
C521 C 0.37768 0.07101 0.58011 0.0
C522 C 0.36715 1.01008 0.61704 0.0
C523 C 0.39388 1.00421 0.64371 0.0
C524 C 0.39495 0.97316 0.62486 0.0
C525 C 0.36914 0.94871 0.57415 0.0
C526 C 0.34257 0.95539 0.5442 0.0
C527 C 0.34109 0.98581 0.5687 0.0
H528 H 0.2268 0.27486 0.1111 0.0
H529 H 0.22368 0.31778 0.89167 0.0
H530 H 0.25966 0.29289 0.83915 0.0
H531 H 0.31841 0.28957 0.09527 0.0
H532 H 0.30753 0.2485 0.14347 0.0
H533 H 0.28355 0.2718 0.16547 0.0
H534 H 0.2235 0.2144 0.13652 0.0
H535 H 0.24725 0.19095 0.11448 0.0
H536 H 0.21724 0.19293 0.04635 0.0
H537 H 0.29105 0.25849 0.80724 0.0
H538 H 0.31758 0.21914 0.79959 0.0
H539 H 0.30295 0.19994 0.0398 0.0
C540 C 0.234 0.27942 0.05212 0.0
C541 C 0.22261 0.29887 0.00605 0.0
C542 C 0.23257 0.30388 0.92901 0.0
C543 C 0.2529 0.28956 0.89836 0.0
C544 C 0.26344 0.27044 0.94529 0.0
C545 C 0.25458 0.26557 0.02069 0.0
C546 C 0.26834 0.24294 0.0583 0.0
C547 C 0.29611 0.2645 0.11924 0.0
C548 C 0.23722 0.20825 0.09081 0.0
C549 C 0.28567 0.23519 0.9919 0.0
C550 C 0.28248 0.25135 0.92726 0.0
C551 C 0.29421 0.24623 0.85772 0.0
C552 C 0.30921 0.22381 0.85389 0.0
C553 C 0.31289 0.20701 0.91918 0.0
C554 C 0.30133 0.21319 0.98932 0.0
H555 H 0.74344 0.95173 0.78436 0.0
H556 H 0.68664 0.90471 0.57573 0.0
H557 H 0.70733 0.96479 0.52491 0.0
H558 H 0.73044 0.03063 0.78538 0.0
H559 H 0.77488 0.05982 0.82094 0.0
H560 H 0.7517 1.01298 0.84574 0.0
H561 H 0.8048 1.00683 0.79489 0.0
H562 H 0.82813 0.05356 0.77018 0.0
H563 H 0.81987 0.02029 0.69956 0.0
H564 H 0.73984 0.02944 0.48982 0.0
H565 H 0.78247 0.09402 0.47344 0.0
H566 H 0.8184 0.10034 0.70347 0.0
C567 C 0.73473 0.95387 0.72841 0.0
C568 C 0.71261 0.92287 0.68525 0.0
C569 C 0.70251 0.92739 0.61172 0.0
C570 C 0.71436 0.96168 0.5818 0.0
C571 C 0.73632 0.99144 0.62571 0.0
C572 C 0.74639 0.98792 0.69753 0.0
C573 C 0.77258 0.02421 0.73062 0.0
C574 C 0.75642 0.03239 0.79978 0.0
C575 C 0.80846 0.02633 0.74991 0.0
C576 C 0.7765 0.04862 0.66526 0.0
C577 C 0.75502 0.0291 0.60558 0.0
C578 C 0.75618 0.04509 0.53664 0.0
C579 C 0.78041 0.08174 0.52785 0.0
C580 C 0.80299 0.10215 0.5877 0.0
C581 C 0.80051 0.08552 0.65776 0.0
H582 H 0.93734 0.7719 0.28607 0.0
H583 H 0.91502 0.66207 0.27043 0.0
H584 H 0.97955 0.6828 0.287 0.0
H585 H 1.0223 0.8136 0.18863 0.0
H586 H 0.04198 0.85206 0.24978 0.0
H587 H 0.9944 0.82854 0.2332 0.0
H588 H 0.98268 0.81934 0.37678 0.0
H589 H 0.03016 0.84306 0.39378 0.0
H590 H 1.00289 0.79841 0.43043 0.0
H591 H 0.04771 0.71661 0.30587 0.0
H592 H 0.11111 0.75915 0.33747 0.0
H593 H 0.08712 0.84583 0.34395 0.0
C594 C 0.94602 0.75218 0.2856 0.0
C595 C 0.92109 0.71538 0.27708 0.0
C596 C 0.93352 0.69039 0.27779 0.0
C597 C 0.97019 0.70196 0.28647 0.0
C598 C 0.99406 0.73855 0.29474 0.0
C599 C 0.9823 0.76318 0.29509 0.0
C600 C 1.0128 0.80074 0.30887 0.0
C601 C 1.01818 0.82517 0.24107 0.0
C602 C 1.00677 0.81628 0.3818 0.0
C603 C 0.04364 0.79351 0.31674 0.0
C604 C 0.03257 0.75761 0.30737 0.0
C605 C 0.05662 0.74478 0.31306 0.0
C606 C 0.09264 0.76917 0.33042 0.0
C607 C 0.10409 0.80584 0.34276 0.0
C608 C 0.07919 0.81797 0.33475 0.0
H609 H 0.23119 0.50679 0.44411 0.0
H610 H 0.17636 0.39884 0.3543 0.0
H611 H 0.16065 0.37443 0.48335 0.0
H612 H 0.26735 0.488 0.61081 0.0
H613 H 0.26031 0.5182 0.66918 0.0
H614 H 0.26815 0.52676 0.56983 0.0
H615 H 0.209 0.52852 0.5581 0.0
H616 H 0.20066 0.51948 0.65723 0.0
H617 H 0.16766 0.49068 0.58963 0.0
H618 H 0.15035 0.36193 0.6224 0.0
H619 H 0.14768 0.36226 0.76135 0.0
H620 H 0.20802 0.47851 0.75946 0.0
C621 C 0.21639 0.47802 0.45176 0.0
C622 C 0.20512 0.45465 0.38946 0.0
C623 C 0.18525 0.41717 0.40149 0.0
C624 C 0.17619 0.40307 0.47449 0.0
C625 C 0.18706 0.42685 0.53474 0.0
C626 C 0.2068 0.46351 0.52419 0.0
C627 C 0.21444 0.48326 0.5983 0.0
C628 C 0.25497 0.50535 0.61288 0.0
C629 C 0.19689 0.50687 0.60095 0.0
C630 C 0.19637 0.45199 0.65226 0.0
C631 C 0.1806 0.41968 0.61452 0.0
C632 C 0.16263 0.38708 0.6526 0.0
C633 C 0.16125 0.38753 0.73147 0.0
C634 C 0.17768 0.42039 0.77128 0.0
C635 C 0.19506 0.45295 0.73076 0.0
H636 H 0.5719 0.71432 0.40277 0.0
H637 H 0.67769 0.80524 0.44302 0.0
H638 H 0.68883 0.81209 0.30626 0.0
H639 H 0.59835 0.67917 0.23945 0.0
H640 H 0.55637 0.66499 0.19218 0.0
H641 H 0.55819 0.66562 0.29354 0.0
H642 H 0.52949 0.70634 0.2956 0.0
H643 H 0.52814 0.7062 0.19442 0.0
H644 H 0.55067 0.7481 0.24452 0.0
H645 H 0.68668 0.81209 0.16532 0.0
H646 H 0.67226 0.80384 0.0299 0.0
H647 H 0.56818 0.71238 0.08128 0.0
C648 C 0.59757 0.73543 0.38292 0.0
C649 C 0.62384 0.75936 0.43363 0.0
C650 C 0.6571 0.78662 0.4053 0.0
C651 C 0.66373 0.79068 0.32769 0.0
C652 C 0.637 0.76705 0.27919 0.0
C653 C 0.60474 0.7397 0.30566 0.0
C654 C 0.58012 0.71861 0.24148 0.0
C655 C 0.57283 0.6798 0.24169 0.0
C656 C 0.54504 0.71992 0.24419 0.0
C657 C 0.60302 0.7393 0.17483 0.0
C658 C 0.63588 0.76688 0.19781 0.0
C659 C 0.66116 0.79038 0.14658 0.0
C660 C 0.65263 0.78557 0.06978 0.0
C661 C 0.61904 0.75757 0.04495 0.0
C662 C 0.59409 0.73405 0.09841 0.0
H663 H 0.25567 0.8843 0.77199 0.0
H664 H 0.34332 0.86353 0.73153 0.0
H665 H 0.35114 0.86071 0.86792 0.0
H666 H 0.29418 0.93942 0.93944 0.0
H667 H 0.25211 0.92177 0.98857 0.0
H668 H 0.25325 0.92391 0.88723 0.0
H669 H 0.20849 0.8562 0.87784 0.0
H670 H 0.20598 0.85338 0.97893 0.0
H671 H 0.21783 0.82493 0.92644 0.0
H672 H 0.34778 0.85672 0.00692 0.0
H673 H 0.33355 0.85209 0.14195 0.0
H674 H 0.24822 0.8756 0.09521 0.0
C675 C 0.27671 0.87949 0.79188 0.0
C676 C 0.29879 0.87403 0.74088 0.0
C677 C 0.32592 0.86765 0.76927 0.0
C678 C 0.33071 0.86611 0.84676 0.0
C679 C 0.30826 0.87113 0.89541 0.0
C680 C 0.28186 0.8778 0.8694 0.0
C681 C 0.26065 0.88094 0.93427 0.0
C682 C 0.26534 0.91876 0.9376 0.0
C683 C 0.22089 0.85214 0.92903 0.0
C684 C 0.27876 0.87412 0.00044 0.0
C685 C 0.30634 0.86885 0.97652 0.0
C686 C 0.32641 0.86103 0.02652 0.0
C687 C 0.31802 0.85836 0.10317 0.0
C688 C 0.28973 0.86342 0.12926 0.0
C689 C 0.27001 0.87161 0.07703 0.0
H690 H 0.47506 0.16881 0.58502 0.0
H691 H 0.37794 0.17178 0.63676 0.0
H692 H 0.36218 0.16453 0.50194 0.0
H693 H 0.4955 0.21953 0.41494 0.0
H694 H 0.51232 0.1941 0.3666 0.0
H695 H 0.51522 0.19782 0.46755 0.0
H696 H 0.48034 0.12827 0.48032 0.0
H697 H 0.47869 0.12513 0.37914 0.0
H698 H 0.43792 0.103 0.43298 0.0
H699 H 0.3571 0.15747 0.36089 0.0
H700 H 0.36478 0.15442 0.22391 0.0
H701 H 0.46577 0.1573 0.26339 0.0
C702 C 0.45046 0.16793 0.56808 0.0
C703 C 0.42775 0.17089 0.62175 0.0
C704 C 0.39585 0.16967 0.59694 0.0
C705 C 0.38655 0.16538 0.5204 0.0
C706 C 0.40944 0.16244 0.46908 0.0
C707 C 0.44082 0.16381 0.4918 0.0
C708 C 0.46134 0.16128 0.42489 0.0
C709 C 0.49828 0.1952 0.41811 0.0
C710 C 0.46477 0.12741 0.4297 0.0
C711 C 0.4368 0.15867 0.36096 0.0
C712 C 0.40683 0.15901 0.38773 0.0
C713 C 0.38047 0.15717 0.33932 0.0
C714 C 0.38506 0.15541 0.2615 0.0
C715 C 0.41592 0.15573 0.23258 0.0
C716 C 0.44187 0.15701 0.28344 0.0
H717 H 0.87319 0.31211 0.23538 0.0
H718 H 0.90307 0.23184 0.28825 0.0
H719 H 0.90312 0.21909 0.15317 0.0
H720 H 0.81367 0.26461 0.08325 0.0
H721 H 0.82671 0.304 0.02668 0.0
H722 H 0.82981 0.30758 0.12766 0.0
H723 H 0.89695 0.35534 0.11685 0.0
H724 H 0.89422 0.35182 0.01577 0.0
H725 H 0.9268 0.34496 0.06563 0.0
H726 H 0.90021 0.21495 0.01176 0.0
H727 H 0.89287 0.21882 0.87478 0.0
H728 H 0.86353 0.3006 0.91314 0.0
C729 C 0.87972 0.29184 0.21858 0.0
C730 C 0.88808 0.27297 0.27282 0.0
C731 C 0.89655 0.2467 0.24813 0.0
C732 C 0.89671 0.23926 0.17134 0.0
C733 C 0.88835 0.25826 0.11943 0.0
C734 C 0.87997 0.28399 0.1419 0.0
C735 C 0.8717 0.30031 0.07443 0.0
C736 C 0.83318 0.29372 0.07826 0.0
C737 C 0.89905 0.34049 0.0678 0.0
C738 C 0.87611 0.2793 0.01084 0.0
C739 C 0.8861 0.25545 0.03796 0.0
C740 C 0.89225 0.23345 0.9899 0.0
C741 C 0.88796 0.23579 0.9121 0.0
C742 C 0.87738 0.2598 0.88294 0.0
C743 C 0.8714 0.28177 0.93342 0.0
H744 H 0.71891 0.55513 0.59881 0.0
H745 H 0.80557 0.66348 0.55886 0.0
H746 H 0.81432 0.67319 0.69568 0.0
H747 H 0.68398 0.5762 0.7696 0.0
H748 H 0.67324 0.53445 0.81448 0.0
H749 H 0.67184 0.53694 0.7134 0.0
H750 H 0.71593 0.51248 0.7025 0.0
H751 H 0.71767 0.51021 0.80341 0.0
H752 H 0.75843 0.53539 0.75038 0.0
H753 H 0.8166 0.66994 0.83595 0.0
H754 H 0.81106 0.65446 0.97078 0.0
H755 H 0.72278 0.54833 0.92035 0.0
C756 C 0.7394 0.58107 0.61881 0.0
C757 C 0.76164 0.60849 0.56799 0.0
C758 C 0.78828 0.64199 0.59657 0.0
C759 C 0.79342 0.64782 0.67426 0.0
C760 C 0.77157 0.62 0.72275 0.0
C761 C 0.74488 0.58739 0.69629 0.0
C762 C 0.72597 0.56156 0.76053 0.0
C763 C 0.68641 0.55171 0.76473 0.0
C764 C 0.72975 0.52793 0.75378 0.0
C765 C 0.74691 0.58442 0.82694 0.0
C766 C 0.77287 0.61814 0.80391 0.0
C767 C 0.79621 0.6437 0.85475 0.0
C768 C 0.79294 0.63458 0.93122 0.0
C769 C 0.76661 0.60013 0.95618 0.0
C770 C 0.74321 0.57487 0.90311 0.0
loop_
_geom_bond_atom_site_label_1
_geom_bond_atom_site_label_2
_geom_bond_distance
_geom_bond_site_symmetry_2
_ccdc_geom_bond_type
Zn0 N4 2.020 . S
Zn0 O8 2.019 1_554 S
Zn0 N10 2.119 . S
Zn0 O18 1.975 . S
C1 N2 1.334 . S
C1 N5 1.336 . S
N2 C1 1.334 . S
N2 C3 1.334 . S
C3 N2 1.334 . S
C3 N4 1.336 . S
N4 Zn0 2.020 . S
N4 C3 1.336 . S
N4 N5 1.354 . S
N5 C1 1.336 . S
N5 N4 1.354 . S
N5 Zn9 2.020 . S
C6 O7 1.244 . S
C6 O30 1.257 . S
O7 C6 1.244 . S
O8 Zn0 2.019 1_556 S
O8 C28 1.257 . S
Zn9 N5 2.020 . S
Zn9 O16 1.975 . S
Zn9 N25 2.119 . S
Zn9 O30 2.019 . S
N10 Zn0 2.119 . S
N10 C12 1.334 . S
N10 C13 1.328 . S
C11 C12 1.391 . S
C11 N14 1.329 . S
C11 H32 0.930 . S
C12 N10 1.334 . S
C12 C11 1.391 . S
C12 H19 0.930 . S
C13 N10 1.328 . S
C13 C15 1.392 . S
C13 H20 0.930 1_554 S
N14 C11 1.329 . S
N14 C15 1.331 . S
C15 C13 1.392 . S
C15 N14 1.331 . S
O16 Zn9 1.975 . S
O16 C17 1.252 . S
C17 O16 1.252 . S
C17 O18 1.252 . S
O18 Zn0 1.975 . S
O18 C17 1.252 . S
H19 C12 0.930 . S
H20 C13 0.930 1_556 S
C21 C22 1.392 . S
C21 N25 1.328 . S
C21 H27 0.930 . S
C22 C21 1.392 . S
C22 N26 1.331 . S
C23 C24 1.391 . S
C23 N26 1.329 . S
C23 H33 0.930 . S
C24 C23 1.391 . S
C24 N25 1.334 . S
C24 H31 0.930 . S
N25 Zn9 2.119 . S
N25 C21 1.328 . S
N25 C24 1.334 . S
N26 C22 1.331 . S
N26 C23 1.329 . S
H27 C21 0.930 . S
C28 O8 1.257 . S
C28 O29 1.244 . S
O29 C28 1.244 . S
O30 C6 1.257 . S
O30 Zn9 2.019 . S
H31 C24 0.930 . S
H32 C11 0.930 . S
H33 C23 0.930 . S
Zn34 N38 2.020 . S
Zn34 O42 2.019 . S
Zn34 N44 2.119 . S
Zn34 O52 1.975 . S
C35 N36 1.334 . S
C35 N39 1.336 . S
N36 C35 1.334 . S
N36 C37 1.334 . S
C37 N36 1.334 . S
C37 N38 1.336 . S
N38 Zn34 2.020 . S
N38 C37 1.336 . S
N38 N39 1.354 . S
N39 C35 1.336 . S
N39 N38 1.354 . S
N39 Zn43 2.020 . S
C40 O41 1.244 . S
C40 O64 1.257 . S
O41 C40 1.244 . S
O42 Zn34 2.019 . S
O42 C62 1.257 . S
Zn43 N39 2.020 . S
Zn43 O50 1.975 . S
Zn43 N59 2.119 . S
Zn43 O64 2.019 1_556 S
N44 Zn34 2.119 . S
N44 C46 1.334 . S
N44 C47 1.328 . S
C45 C46 1.391 . S
C45 N48 1.329 . S
C45 H66 0.930 . S
C46 N44 1.334 . S
C46 C45 1.391 . S
C46 H53 0.930 . S
C47 N44 1.328 . S
C47 C49 1.392 . S
C47 H54 0.930 . S
N48 C45 1.329 . S
N48 C49 1.331 . S
C49 C47 1.392 . S
C49 N48 1.331 . S
O50 Zn43 1.975 . S
O50 C51 1.252 . S
C51 O50 1.252 . S
C51 O52 1.252 . S
O52 Zn34 1.975 . S
O52 C51 1.252 . S
H53 C46 0.930 . S
H54 C47 0.930 . S
C55 C56 1.392 . S
C55 N59 1.328 . S
C55 H61 0.930 . S
C56 C55 1.392 . S
C56 N60 1.331 . S
C57 C58 1.391 . S
C57 N60 1.329 . S
C57 H67 0.930 . S
C58 C57 1.391 . S
C58 N59 1.334 . S
C58 H65 0.930 . S
N59 Zn43 2.119 . S
N59 C55 1.328 . S
N59 C58 1.334 . S
N60 C56 1.331 . S
N60 C57 1.329 . S
H61 C55 0.930 . S
C62 O42 1.257 . S
C62 O63 1.244 . S
O63 C62 1.244 . S
O64 C40 1.257 . S
O64 Zn43 2.019 1_554 S
H65 C58 0.930 . S
H66 C45 0.930 . S
H67 C57 0.930 . S
Zn68 N72 2.020 . S
Zn68 O76 2.019 . S
Zn68 N78 2.119 . S
Zn68 O86 1.975 . S
C69 N70 1.334 . S
C69 N73 1.336 . S
N70 C69 1.334 . S
N70 C71 1.334 . S
C71 N70 1.334 . S
C71 N72 1.336 . S
N72 Zn68 2.020 . S
N72 C71 1.336 . S
N72 N73 1.354 . S
N73 C69 1.336 . S
N73 N72 1.354 . S
N73 Zn77 2.020 . S
C74 O75 1.244 . S
C74 O98 1.257 . S
O75 C74 1.244 . S
O76 Zn68 2.019 . S
O76 C96 1.257 . S
Zn77 N73 2.020 . S
Zn77 O84 1.975 . S
Zn77 N93 2.119 . S
Zn77 O98 2.019 . S
N78 Zn68 2.119 . S
N78 C80 1.334 . S
N78 C81 1.328 . S
C79 C80 1.391 . S
C79 N82 1.329 . S
C79 H100 0.930 . S
C80 N78 1.334 . S
C80 C79 1.391 . S
C80 H87 0.930 . S
C81 N78 1.328 . S
C81 C83 1.392 . S
C81 H88 0.930 . S
N82 C79 1.329 . S
N82 C83 1.331 . S
C83 C81 1.392 . S
C83 N82 1.331 . S
O84 Zn77 1.975 . S
O84 C85 1.252 . S
C85 O84 1.252 . S
C85 O86 1.252 . S
O86 Zn68 1.975 . S
O86 C85 1.252 . S
H87 C80 0.930 . S
H88 C81 0.930 . S
C89 C90 1.392 . S
C89 N93 1.328 . S
C89 H95 0.930 . S
C90 C89 1.392 . S
C90 N94 1.331 . S
C91 C92 1.391 . S
C91 N94 1.329 . S
C91 H101 0.930 . S
C92 C91 1.391 . S
C92 N93 1.334 . S
C92 H99 0.930 . S
N93 Zn77 2.119 . S
N93 C89 1.328 . S
N93 C92 1.334 . S
N94 C90 1.331 . S
N94 C91 1.329 . S
H95 C89 0.930 . S
C96 O76 1.257 . S
C96 O97 1.244 . S
O97 C96 1.244 . S
O98 C74 1.257 . S
O98 Zn77 2.019 . S
H99 C92 0.930 . S
H100 C79 0.930 . S
H101 C91 0.930 . S
Zn102 N106 2.020 . S
Zn102 O110 2.019 . S
Zn102 N112 2.119 . S
Zn102 O120 1.975 . S
C103 N104 1.334 . S
C103 N107 1.336 . S
N104 C103 1.334 . S
N104 C105 1.334 . S
C105 N104 1.334 . S
C105 N106 1.336 . S
N106 Zn102 2.020 . S
N106 C105 1.336 . S
N106 N107 1.354 . S
N107 C103 1.336 . S
N107 N106 1.354 . S
N107 Zn111 2.020 . S
C108 O109 1.244 . S
C108 O132 1.257 . S
O109 C108 1.244 . S
O110 Zn102 2.019 . S
O110 C130 1.257 . S
Zn111 N107 2.020 . S
Zn111 O118 1.975 . S
Zn111 N127 2.119 . S
Zn111 O132 2.019 1_556 S
N112 Zn102 2.119 . S
N112 C114 1.334 . S
N112 C115 1.328 . S
C113 C114 1.391 . S
C113 N116 1.329 . S
C113 H134 0.930 . S
C114 N112 1.334 . S
C114 C113 1.391 . S
C114 H121 0.930 . S
C115 N112 1.328 . S
C115 C117 1.392 . S
C115 H122 0.930 . S
N116 C113 1.329 . S
N116 C117 1.331 . S
C117 C115 1.392 . S
C117 N116 1.331 . S
O118 Zn111 1.975 . S
O118 C119 1.252 . S
C119 O118 1.252 . S
C119 O120 1.252 . S
O120 Zn102 1.975 . S
O120 C119 1.252 . S
H121 C114 0.930 . S
H122 C115 0.930 . S
C123 C124 1.392 . S
C123 N127 1.328 . S
C123 H129 0.930 1_556 S
C124 C123 1.392 . S
C124 N128 1.331 . S
C125 C126 1.391 . S
C125 N128 1.329 . S
C125 H135 0.930 . S
C126 C125 1.391 . S
C126 N127 1.334 . S
C126 H133 0.930 . S
N127 Zn111 2.119 . S
N127 C123 1.328 . S
N127 C126 1.334 . S
N128 C124 1.331 . S
N128 C125 1.329 . S
H129 C123 0.930 1_554 S
C130 O110 1.257 . S
C130 O131 1.244 . S
O131 C130 1.244 . S
O132 C108 1.257 . S
O132 Zn111 2.019 1_554 S
H133 C126 0.930 . S
H134 C113 0.930 . S
H135 C125 0.930 . S
Zn136 N140 2.020 . S
Zn136 O144 2.019 . S
Zn136 N146 2.119 . S
Zn136 O154 1.975 . S
C137 N138 1.334 . S
C137 N141 1.336 . S
N138 C137 1.334 . S
N138 C139 1.334 . S
C139 N138 1.334 . S
C139 N140 1.336 . S
N140 Zn136 2.020 . S
N140 C139 1.336 . S
N140 N141 1.354 . S
N141 C137 1.336 . S
N141 N140 1.354 . S
N141 Zn145 2.020 . S
C142 O143 1.244 . S
C142 O166 1.257 . S
O143 C142 1.244 . S
O144 Zn136 2.019 . S
O144 C164 1.257 . S
Zn145 N141 2.020 . S
Zn145 O152 1.975 . S
Zn145 N161 2.119 . S
Zn145 O166 2.019 . S
N146 Zn136 2.119 . S
N146 C148 1.334 . S
N146 C149 1.328 . S
C147 C148 1.391 . S
C147 N150 1.329 . S
C147 H168 0.930 . S
C148 N146 1.334 . S
C148 C147 1.391 . S
C148 H155 0.930 . S
C149 N146 1.328 . S
C149 C151 1.392 . S
C149 H156 0.930 . S
N150 C147 1.329 . S
N150 C151 1.331 . S
C151 C149 1.392 . S
C151 N150 1.331 . S
O152 Zn145 1.975 . S
O152 C153 1.252 . S
C153 O152 1.252 . S
C153 O154 1.252 . S
O154 Zn136 1.975 . S
O154 C153 1.252 . S
H155 C148 0.930 . S
H156 C149 0.930 . S
C157 C158 1.392 . S
C157 N161 1.328 . S
C157 H163 0.930 . S
C158 C157 1.392 . S
C158 N162 1.331 . S
C159 C160 1.391 . S
C159 N162 1.329 . S
C159 H169 0.930 . S
C160 C159 1.391 . S
C160 N161 1.334 . S
C160 H167 0.930 . S
N161 Zn145 2.119 . S
N161 C157 1.328 . S
N161 C160 1.334 . S
N162 C158 1.331 . S
N162 C159 1.329 . S
H163 C157 0.930 . S
C164 O144 1.257 . S
C164 O165 1.244 . S
O165 C164 1.244 . S
O166 C142 1.257 . S
O166 Zn145 2.019 . S
H167 C160 0.930 . S
H168 C147 0.930 . S
H169 C159 0.930 . S
Zn170 N174 2.020 . S
Zn170 O178 2.019 1_554 S
Zn170 N180 2.119 . S
Zn170 O188 1.975 . S
C171 N172 1.334 . S
C171 N175 1.336 . S
N172 C171 1.334 . S
N172 C173 1.334 . S
C173 N172 1.334 . S
C173 N174 1.336 . S
N174 Zn170 2.020 . S
N174 C173 1.336 . S
N174 N175 1.354 . S
N175 C171 1.336 . S
N175 N174 1.354 . S
N175 Zn179 2.020 . S
C176 O177 1.244 . S
C176 O200 1.257 . S
O177 C176 1.244 . S
O178 Zn170 2.019 1_556 S
O178 C198 1.257 . S
Zn179 N175 2.020 . S
Zn179 O186 1.975 . S
Zn179 N195 2.119 . S
Zn179 O200 2.019 . S
N180 Zn170 2.119 . S
N180 C182 1.334 . S
N180 C183 1.328 . S
C181 C182 1.391 . S
C181 N184 1.329 . S
C181 H202 0.930 . S
C182 N180 1.334 . S
C182 C181 1.391 . S
C182 H189 0.930 . S
C183 N180 1.328 . S
C183 C185 1.392 . S
C183 H190 0.930 . S
N184 C181 1.329 . S
N184 C185 1.331 . S
C185 C183 1.392 . S
C185 N184 1.331 . S
O186 Zn179 1.975 . S
O186 C187 1.252 . S
C187 O186 1.252 . S
C187 O188 1.252 . S
O188 Zn170 1.975 . S
O188 C187 1.252 . S
H189 C182 0.930 . S
H190 C183 0.930 . S
C191 C192 1.392 . S
C191 N195 1.328 . S
C191 H197 0.930 . S
C192 C191 1.392 . S
C192 N196 1.331 . S
C193 C194 1.391 . S
C193 N196 1.329 . S
C193 H203 0.930 . S
C194 C193 1.391 . S
C194 N195 1.334 . S
C194 H201 0.930 . S
N195 Zn179 2.119 . S
N195 C191 1.328 . S
N195 C194 1.334 . S
N196 C192 1.331 . S
N196 C193 1.329 . S
H197 C191 0.930 . S
C198 O178 1.257 . S
C198 O199 1.244 . S
O199 C198 1.244 . S
O200 C176 1.257 . S
O200 Zn179 2.019 . S
H201 C194 0.930 . S
H202 C181 0.930 . S
H203 C193 0.930 . S
H204 C216 0.930 . S
H205 C218 0.930 . S
H206 C219 0.930 . S
H207 C223 0.959 . S
H208 C223 0.959 . S
H209 C223 0.961 . S
H210 C224 0.960 . S
H211 C224 0.961 . S
H212 C224 0.959 . S
H213 C227 0.929 . S
H214 C228 0.931 . S
H215 C230 0.930 . S
C216 H204 0.930 . S
C216 C217 1.399 . S
C216 C221 1.399 . S
C217 C216 1.399 . S
C217 C218 1.376 1_556 S
C218 H205 0.930 . S
C218 C217 1.376 1_554 S
C218 C219 1.388 1_454 S
C219 H206 0.930 . S
C219 C218 1.388 1_656 S
C219 C220 1.390 1_655 S
C220 C219 1.390 1_455 S
C220 C221 1.394 . S
C220 C226 1.465 1_455 S
C221 C216 1.399 . S
C221 C220 1.394 . S
C221 C222 1.516 . S
C222 C221 1.516 . S
C222 C223 1.502 . S
C222 C224 1.561 . S
C222 C225 1.526 1_455 S
C223 H207 0.959 . S
C223 H208 0.959 . S
C223 H209 0.961 . S
C223 C222 1.502 . S
C224 H210 0.960 . S
C224 H211 0.961 . S
C224 H212 0.959 . S
C224 C222 1.561 . S
C225 C222 1.526 1_655 S
C225 C226 1.396 . S
C225 C230 1.390 . S
C226 C220 1.465 1_655 S
C226 C225 1.396 . S
C226 C227 1.399 . S
C227 H213 0.929 . S
C227 C226 1.399 . S
C227 C228 1.385 . S
C228 H214 0.931 . S
C228 C227 1.385 . S
C228 C229 1.389 . S
C229 C228 1.389 . S
C229 C230 1.387 . S
C230 H215 0.930 . S
C230 C225 1.390 . S
C230 C229 1.387 . S
H231 C243 0.930 . S
H232 C245 0.930 . S
H233 C246 0.930 . S
H234 C250 0.959 . S
H235 C250 0.959 . S
H236 C250 0.961 . S
H237 C251 0.960 . S
H238 C251 0.961 . S
H239 C251 0.959 . S
H240 C254 0.929 . S
H241 C255 0.931 . S
H242 C257 0.930 . S
C243 H231 0.930 . S
C243 C244 1.399 . S
C243 C248 1.399 . S
C244 C243 1.399 . S
C244 C245 1.376 . S
C245 H232 0.930 . S
C245 C244 1.376 . S
C245 C246 1.388 . S
C246 H233 0.930 . S
C246 C245 1.388 . S
C246 C247 1.390 . S
C247 C246 1.390 . S
C247 C248 1.394 . S
C247 C253 1.465 . S
C248 C243 1.399 . S
C248 C247 1.394 . S
C248 C249 1.516 . S
C249 C248 1.516 . S
C249 C250 1.502 . S
C249 C251 1.561 . S
C249 C252 1.526 . S
C250 H234 0.959 . S
C250 H235 0.959 . S
C250 H236 0.961 . S
C250 C249 1.502 . S
C251 H237 0.960 . S
C251 H238 0.961 . S
C251 H239 0.959 . S
C251 C249 1.561 . S
C252 C249 1.526 . S
C252 C253 1.396 . S
C252 C257 1.390 . S
C253 C247 1.465 . S
C253 C252 1.396 . S
C253 C254 1.399 . S
C254 H240 0.929 . S
C254 C253 1.399 . S
C254 C255 1.385 . S
C255 H241 0.931 . S
C255 C254 1.385 . S
C255 C256 1.389 . S
C256 C255 1.389 . S
C256 C257 1.387 . S
C257 H242 0.930 . S
C257 C252 1.390 . S
C257 C256 1.387 . S
H258 C270 0.930 . S
H259 C272 0.930 . S
H260 C273 0.930 . S
H261 C277 0.959 . S
H262 C277 0.959 . S
H263 C277 0.961 . S
H264 C278 0.960 . S
H265 C278 0.961 . S
H266 C278 0.959 . S
H267 C281 0.929 . S
H268 C282 0.931 . S
H269 C284 0.930 . S
C270 H258 0.930 . S
C270 C271 1.399 . S
C270 C275 1.399 . S
C271 C270 1.399 . S
C271 C272 1.376 . S
C272 H259 0.930 . S
C272 C271 1.376 . S
C272 C273 1.388 . S
C273 H260 0.930 . S
C273 C272 1.388 . S
C273 C274 1.390 . S
C274 C273 1.390 . S
C274 C275 1.394 . S
C274 C280 1.484 . S
C275 C270 1.399 . S
C275 C274 1.394 . S
C275 C276 1.516 1_565 S
C276 C275 1.516 1_545 S
C276 C277 1.502 . S
C276 C278 1.561 . S
C276 C279 1.526 . S
C277 H261 0.959 . S
C277 H262 0.959 . S
C277 H263 0.961 . S
C277 C276 1.502 . S
C278 H264 0.960 . S
C278 H265 0.961 . S
C278 H266 0.959 . S
C278 C276 1.561 . S
C279 C276 1.526 . S
C279 C280 1.373 1_545 S
C279 C284 1.390 . S
C280 C274 1.484 . S
C280 C279 1.373 1_565 S
C280 C281 1.401 . S
C281 H267 0.929 . S
C281 C280 1.401 . S
C281 C282 1.385 1_564 S
C282 H268 0.931 . S
C282 C281 1.385 1_546 S
C282 C283 1.389 1_556 S
C283 C282 1.389 1_554 S
C283 C284 1.387 . S
C284 H269 0.930 . S
C284 C279 1.390 . S
C284 C283 1.387 . S
H285 C297 0.930 . S
H286 C299 0.930 . S
H287 C300 0.930 . S
H288 C304 0.959 . S
H289 C304 0.959 . S
H290 C304 0.961 . S
H291 C305 0.960 . S
H292 C305 0.961 . S
H293 C305 0.959 . S
H294 C308 0.929 . S
H295 C309 0.931 . S
H296 C311 0.930 . S
C297 H285 0.930 . S
C297 C298 1.399 . S
C297 C302 1.399 . S
C298 C297 1.399 . S
C298 C299 1.376 . S
C299 H286 0.930 . S
C299 C298 1.376 . S
C299 C300 1.388 . S
C300 H287 0.930 . S
C300 C299 1.388 . S
C300 C301 1.390 . S
C301 C300 1.390 . S
C301 C302 1.394 . S
C301 C307 1.465 . S
C302 C297 1.399 . S
C302 C301 1.394 . S
C302 C303 1.516 . S
C303 C302 1.516 . S
C303 C304 1.502 . S
C303 C305 1.561 . S
C303 C306 1.526 . S
C304 H288 0.959 . S
C304 H289 0.959 . S
C304 H290 0.961 . S
C304 C303 1.502 . S
C305 H291 0.960 . S
C305 H292 0.961 . S
C305 H293 0.959 . S
C305 C303 1.561 . S
C306 C303 1.526 . S
C306 C307 1.396 . S
C306 C311 1.390 . S
C307 C301 1.465 . S
C307 C306 1.396 . S
C307 C308 1.399 . S
C308 H294 0.929 . S
C308 C307 1.399 . S
C308 C309 1.385 . S
C309 H295 0.931 . S
C309 C308 1.385 . S
C309 C310 1.389 . S
C310 C309 1.389 . S
C310 C311 1.387 . S
C311 H296 0.930 . S
C311 C306 1.390 . S
C311 C310 1.387 . S
H312 C324 0.930 . S
H313 C326 0.930 . S
H314 C327 0.930 1_556 S
H315 C331 0.959 . S
H316 C331 0.959 . S
H317 C331 0.961 . S
H318 C332 0.960 . S
H319 C332 0.961 . S
H320 C332 0.959 . S
H321 C335 0.929 . S
H322 C336 0.931 . S
H323 C338 0.930 . S
C324 H312 0.930 . S
C324 C325 1.399 . S
C324 C329 1.399 . S
C325 C324 1.399 . S
C325 C326 1.376 . S
C326 H313 0.930 . S
C326 C325 1.376 . S
C326 C327 1.388 . S
C327 H314 0.930 1_554 S
C327 C326 1.388 . S
C327 C328 1.390 . S
C328 C327 1.390 . S
C328 C329 1.394 . S
C328 C334 1.465 . S
C329 C324 1.399 . S
C329 C328 1.394 . S
C329 C330 1.516 . S
C330 C329 1.516 . S
C330 C331 1.502 . S
C330 C332 1.561 . S
C330 C333 1.526 . S
C331 H315 0.959 . S
C331 H316 0.959 . S
C331 H317 0.961 . S
C331 C330 1.502 . S
C332 H318 0.960 . S
C332 H319 0.961 . S
C332 H320 0.959 . S
C332 C330 1.561 . S
C333 C330 1.526 . S
C333 C334 1.396 . S
C333 C338 1.390 . S
C334 C328 1.465 . S
C334 C333 1.396 . S
C334 C335 1.399 1_554 S
C335 H321 0.929 . S
C335 C334 1.399 1_556 S
C335 C336 1.385 . S
C336 H322 0.931 . S
C336 C335 1.385 . S
C336 C337 1.389 . S
C337 C336 1.389 . S
C337 C338 1.387 1_556 S
C338 H323 0.930 . S
C338 C333 1.390 . S
C338 C337 1.387 1_554 S
H339 C351 0.930 . S
H340 C353 0.930 . S
H341 C354 0.930 . S
H342 C358 0.959 . S
H343 C358 0.959 . S
H344 C358 0.961 . S
H345 C359 0.960 . S
H346 C359 0.961 . S
H347 C359 0.959 . S
H348 C362 0.929 . S
H349 C363 0.931 . S
H350 C365 0.930 . S
C351 H339 0.930 . S
C351 C352 1.399 . S
C351 C356 1.399 . S
C352 C351 1.399 . S
C352 C353 1.376 . S
C353 H340 0.930 . S
C353 C352 1.376 . S
C353 C354 1.388 . S
C354 H341 0.930 . S
C354 C353 1.388 . S
C354 C355 1.390 . S
C355 C354 1.390 . S
C355 C356 1.394 . S
C355 C361 1.465 . S
C356 C351 1.399 . S
C356 C355 1.394 . S
C356 C357 1.516 . S
C357 C356 1.516 . S
C357 C358 1.502 . S
C357 C359 1.561 . S
C357 C360 1.526 . S
C358 H342 0.959 . S
C358 H343 0.959 . S
C358 H344 0.961 . S
C358 C357 1.502 . S
C359 H345 0.960 . S
C359 H346 0.961 . S
C359 H347 0.959 . S
C359 C357 1.561 . S
C360 C357 1.526 . S
C360 C361 1.396 . S
C360 C365 1.390 . S
C361 C355 1.465 . S
C361 C360 1.396 . S
C361 C362 1.399 . S
C362 H348 0.929 . S
C362 C361 1.399 . S
C362 C363 1.385 . S
C363 H349 0.931 . S
C363 C362 1.385 . S
C363 C364 1.389 . S
C364 C363 1.389 . S
C364 C365 1.387 . S
C365 H350 0.930 . S
C365 C360 1.390 . S
C365 C364 1.387 . S
H366 C378 0.930 . S
H367 C380 0.930 . S
H368 C381 0.930 . S
H369 C385 0.959 . S
H370 C385 0.959 . S
H371 C385 0.961 . S
H372 C386 0.960 . S
H373 C386 0.961 . S
H374 C386 0.959 . S
H375 C389 0.929 . S
H376 C390 0.931 . S
H377 C392 0.930 . S
C378 H366 0.930 . S
C378 C379 1.399 . S
C378 C383 1.399 . S
C379 C378 1.399 . S
C379 C380 1.376 . S
C380 H367 0.930 . S
C380 C379 1.376 . S
C380 C381 1.388 . S
C381 H368 0.930 . S
C381 C380 1.388 . S
C381 C382 1.390 . S
C382 C381 1.390 . S
C382 C383 1.394 . S
C382 C388 1.465 . S
C383 C378 1.399 . S
C383 C382 1.394 . S
C383 C384 1.516 . S
C384 C383 1.516 . S
C384 C385 1.502 . S
C384 C386 1.561 . S
C384 C387 1.526 . S
C385 H369 0.959 . S
C385 H370 0.959 . S
C385 H371 0.961 . S
C385 C384 1.502 . S
C386 H372 0.960 . S
C386 H373 0.961 . S
C386 H374 0.959 . S
C386 C384 1.561 . S
C387 C384 1.526 . S
C387 C388 1.396 . S
C387 C392 1.390 . S
C388 C382 1.465 . S
C388 C387 1.396 . S
C388 C389 1.399 . S
C389 H375 0.929 . S
C389 C388 1.399 . S
C389 C390 1.385 . S
C390 H376 0.931 . S
C390 C389 1.385 . S
C390 C391 1.389 . S
C391 C390 1.389 . S
C391 C392 1.387 . S
C392 H377 0.930 . S
C392 C387 1.390 . S
C392 C391 1.387 . S
H393 C405 0.930 . S
H394 C407 0.930 . S
H395 C408 0.930 . S
H396 C412 0.959 . S
H397 C412 0.959 . S
H398 C412 0.961 . S
H399 C413 0.960 . S
H400 C413 0.961 . S
H401 C413 0.959 . S
H402 C416 0.929 . S
H403 C417 0.931 . S
H404 C419 0.930 . S
C405 H393 0.930 . S
C405 C406 1.399 . S
C405 C410 1.399 . S
C406 C405 1.399 . S
C406 C407 1.376 . S
C407 H394 0.930 . S
C407 C406 1.376 . S
C407 C408 1.388 . S
C408 H395 0.930 . S
C408 C407 1.388 . S
C408 C409 1.390 . S
C409 C408 1.390 . S
C409 C410 1.394 . S
C409 C415 1.465 . S
C410 C405 1.399 . S
C410 C409 1.394 . S
C410 C411 1.516 . S
C411 C410 1.516 . S
C411 C412 1.502 . S
C411 C413 1.561 . S
C411 C414 1.526 . S
C412 H396 0.959 . S
C412 H397 0.959 . S
C412 H398 0.961 . S
C412 C411 1.502 . S
C413 H399 0.960 . S
C413 H400 0.961 . S
C413 H401 0.959 . S
C413 C411 1.561 . S
C414 C411 1.526 . S
C414 C415 1.396 . S
C414 C419 1.390 . S
C415 C409 1.465 . S
C415 C414 1.396 . S
C415 C416 1.399 . S
C416 H402 0.929 . S
C416 C415 1.399 . S
C416 C417 1.385 . S
C417 H403 0.931 . S
C417 C416 1.385 . S
C417 C418 1.389 . S
C418 C417 1.389 . S
C418 C419 1.387 . S
C419 H404 0.930 . S
C419 C414 1.390 . S
C419 C418 1.387 . S
H420 C432 0.930 . S
H421 C434 0.930 . S
H422 C435 0.930 . S
H423 C439 0.959 1_554 S
H424 C439 0.959 . S
H425 C439 0.961 . S
H426 C440 0.960 . S
H427 C440 0.961 . S
H428 C440 0.959 . S
H429 C443 0.929 . S
H430 C444 0.931 . S
H431 C446 0.930 . S
C432 H420 0.930 . S
C432 C433 1.399 . S
C432 C437 1.399 . S
C433 C432 1.399 . S
C433 C434 1.376 . S
C434 H421 0.930 . S
C434 C433 1.376 . S
C434 C435 1.388 . S
C435 H422 0.930 . S
C435 C434 1.388 . S
C435 C436 1.390 . S
C436 C435 1.390 . S
C436 C437 1.394 . S
C436 C442 1.465 . S
C437 C432 1.399 . S
C437 C436 1.394 . S
C437 C438 1.516 . S
C438 C437 1.516 . S
C438 C439 1.502 . S
C438 C440 1.561 . S
C438 C441 1.526 . S
C439 H423 0.959 1_556 S
C439 H424 0.959 . S
C439 H425 0.961 . S
C439 C438 1.502 . S
C440 H426 0.960 . S
C440 H427 0.961 . S
C440 H428 0.959 . S
C440 C438 1.561 . S
C441 C438 1.526 . S
C441 C442 1.396 . S
C441 C446 1.390 . S
C442 C436 1.465 . S
C442 C441 1.396 . S
C442 C443 1.399 . S
C443 H429 0.929 . S
C443 C442 1.399 . S
C443 C444 1.385 1_556 S
C444 H430 0.931 . S
C444 C443 1.385 1_554 S
C444 C445 1.389 . S
C445 C444 1.389 . S
C445 C446 1.387 1_554 S
C446 H431 0.930 . S
C446 C441 1.390 . S
C446 C445 1.387 1_556 S
H447 C459 0.930 . S
H448 C461 0.930 . S
H449 C462 0.930 . S
H450 C466 0.959 . S
H451 C466 0.959 . S
H452 C466 0.961 . S
H453 C467 0.960 . S
H454 C467 0.961 . S
H455 C467 0.959 . S
H456 C470 0.929 . S
H457 C471 0.931 . S
H458 C473 0.930 . S
C459 H447 0.930 . S
C459 C460 1.399 . S
C459 C464 1.399 . S
C460 C459 1.399 . S
C460 C461 1.376 . S
C461 H448 0.930 . S
C461 C460 1.376 . S
C461 C462 1.388 . S
C462 H449 0.930 . S
C462 C461 1.388 . S
C462 C463 1.390 . S
C463 C462 1.390 . S
C463 C464 1.394 . S
C463 C469 1.465 1_655 S
C464 C459 1.399 . S
C464 C463 1.394 . S
C464 C465 1.516 1_655 S
C465 C464 1.516 1_455 S
C465 C466 1.502 . S
C465 C467 1.561 . S
C465 C468 1.526 . S
C466 H450 0.959 . S
C466 H451 0.959 . S
C466 H452 0.961 . S
C466 C465 1.502 . S
C467 H453 0.960 . S
C467 H454 0.961 . S
C467 H455 0.959 . S
C467 C465 1.561 . S
C468 C465 1.526 . S
C468 C469 1.396 . S
C468 C473 1.390 . S
C469 C463 1.465 1_455 S
C469 C468 1.396 . S
C469 C470 1.399 . S
C470 H456 0.929 . S
C470 C469 1.399 . S
C470 C471 1.385 . S
C471 H457 0.931 . S
C471 C470 1.385 . S
C471 C472 1.389 . S
C472 C471 1.389 . S
C472 C473 1.387 . S
C473 H458 0.930 . S
C473 C468 1.390 . S
C473 C472 1.387 . S
H474 C486 0.930 1_556 S
H475 C488 0.930 . S
H476 C489 0.930 . S
H477 C493 0.959 . S
H478 C493 0.959 . S
H479 C493 0.961 . S
H480 C494 0.960 . S
H481 C494 0.961 . S
H482 C494 0.959 . S
H483 C497 0.929 . S
H484 C498 0.931 1_554 S
H485 C500 0.930 . S
C486 H474 0.930 1_554 S
C486 C487 1.399 . S
C486 C491 1.401 . S
C487 C486 1.399 . S
C487 C488 1.376 . S
C488 H475 0.930 . S
C488 C487 1.376 . S
C488 C489 1.388 . S
C489 H476 0.930 . S
C489 C488 1.388 . S
C489 C490 1.390 . S
C490 C489 1.390 . S
C490 C491 1.398 . S
C490 C496 1.465 . S
C491 C486 1.401 . S
C491 C490 1.398 . S
C491 C492 1.510 1_554 S
C492 C491 1.510 1_556 S
C492 C493 1.502 . S
C492 C494 1.561 . S
C492 C495 1.526 . S
C493 H477 0.959 . S
C493 H478 0.959 . S
C493 H479 0.961 . S
C493 C492 1.502 . S
C494 H480 0.960 . S
C494 H481 0.961 . S
C494 H482 0.959 . S
C494 C492 1.561 . S
C495 C492 1.526 . S
C495 C496 1.396 1_556 S
C495 C500 1.390 . S
C496 C490 1.465 . S
C496 C495 1.396 1_554 S
C496 C497 1.399 . S
C497 H483 0.929 . S
C497 C496 1.399 . S
C497 C498 1.385 1_554 S
C498 H484 0.931 1_556 S
C498 C497 1.385 1_556 S
C498 C499 1.389 . S
C499 C498 1.389 . S
C499 C500 1.387 . S
C500 H485 0.930 . S
C500 C495 1.390 . S
C500 C499 1.387 . S
H501 C513 0.930 . S
H502 C515 0.930 . S
H503 C516 0.930 . S
H504 C520 0.959 . S
H505 C520 0.959 . S
H506 C520 0.961 . S
H507 C521 0.960 . S
H508 C521 0.961 . S
H509 C521 0.959 . S
H510 C524 0.929 . S
H511 C525 0.931 . S
H512 C527 0.930 . S
C513 H501 0.930 . S
C513 C514 1.399 . S
C513 C518 1.399 . S
C514 C513 1.399 . S
C514 C515 1.376 . S
C515 H502 0.930 . S
C515 C514 1.376 . S
C515 C516 1.388 . S
C516 H503 0.930 . S
C516 C515 1.388 . S
C516 C517 1.390 . S
C517 C516 1.390 . S
C517 C518 1.394 . S
C517 C523 1.465 1_545 S
C518 C513 1.399 . S
C518 C517 1.394 . S
C518 C519 1.516 . S
C519 C518 1.516 . S
C519 C520 1.502 . S
C519 C521 1.561 . S
C519 C522 1.526 1_545 S
C520 H504 0.959 . S
C520 H505 0.959 . S
C520 H506 0.961 . S
C520 C519 1.502 . S
C521 H507 0.960 . S
C521 H508 0.961 . S
C521 H509 0.959 . S
C521 C519 1.561 . S
C522 C519 1.526 1_565 S
C522 C523 1.396 . S
C522 C527 1.390 . S
C523 C517 1.465 1_565 S
C523 C522 1.396 . S
C523 C524 1.399 . S
C524 H510 0.929 . S
C524 C523 1.399 . S
C524 C525 1.385 . S
C525 H511 0.931 . S
C525 C524 1.385 . S
C525 C526 1.389 . S
C526 C525 1.389 . S
C526 C527 1.387 . S
C527 H512 0.930 . S
C527 C522 1.390 . S
C527 C526 1.387 . S
H528 C540 0.930 . S
H529 C542 0.930 . S
H530 C543 0.930 . S
H531 C547 0.959 . S
H532 C547 0.959 . S
H533 C547 0.961 . S
H534 C548 0.960 . S
H535 C548 0.961 . S
H536 C548 0.959 . S
H537 C551 0.929 . S
H538 C552 0.931 . S
H539 C554 0.930 . S
C540 H528 0.930 . S
C540 C541 1.399 1_554 S
C540 C545 1.399 . S
C541 C540 1.399 1_556 S
C541 C542 1.376 . S
C542 H529 0.930 . S
C542 C541 1.376 . S
C542 C543 1.388 . S
C543 H530 0.930 . S
C543 C542 1.388 . S
C543 C544 1.390 . S
C544 C543 1.390 . S
C544 C545 1.394 1_556 S
C544 C550 1.465 . S
C545 C540 1.399 . S
C545 C544 1.394 1_554 S
C545 C546 1.516 . S
C546 C545 1.516 . S
C546 C547 1.502 . S
C546 C548 1.561 . S
C546 C549 1.526 . S
C547 H531 0.959 . S
C547 H532 0.959 . S
C547 H533 0.961 . S
C547 C546 1.502 . S
C548 H534 0.960 . S
C548 H535 0.961 . S
C548 H536 0.959 . S
C548 C546 1.561 . S
C549 C546 1.526 . S
C549 C550 1.396 1_554 S
C549 C554 1.390 . S
C550 C544 1.465 . S
C550 C549 1.396 1_556 S
C550 C551 1.399 . S
C551 H537 0.929 . S
C551 C550 1.399 . S
C551 C552 1.385 . S
C552 H538 0.931 . S
C552 C551 1.385 . S
C552 C553 1.389 . S
C553 C552 1.389 . S
C553 C554 1.387 1_556 S
C554 H539 0.930 . S
C554 C549 1.390 . S
C554 C553 1.387 1_554 S
H555 C567 0.930 . S
H556 C569 0.930 . S
H557 C570 0.930 . S
H558 C574 0.959 . S
H559 C574 0.959 . S
H560 C574 0.961 1_565 S
H561 C575 0.960 1_565 S
H562 C575 0.961 . S
H563 C575 0.959 . S
H564 C578 0.929 . S
H565 C579 0.931 . S
H566 C581 0.930 . S
C567 H555 0.930 . S
C567 C568 1.399 . S
C567 C572 1.399 . S
C568 C567 1.399 . S
C568 C569 1.376 . S
C569 H556 0.930 . S
C569 C568 1.376 . S
C569 C570 1.388 . S
C570 H557 0.930 . S
C570 C569 1.388 . S
C570 C571 1.390 . S
C571 C570 1.390 . S
C571 C572 1.394 . S
C571 C577 1.465 1_565 S
C572 C567 1.399 . S
C572 C571 1.394 . S
C572 C573 1.498 1_565 S
C573 C572 1.498 1_545 S
C573 C574 1.513 . S
C573 C575 1.553 . S
C573 C576 1.540 . S
C574 H558 0.959 . S
C574 H559 0.959 . S
C574 H560 0.961 1_545 S
C574 C573 1.513 . S
C575 H561 0.960 1_545 S
C575 H562 0.961 . S
C575 H563 0.959 . S
C575 C573 1.553 . S
C576 C573 1.540 . S
C576 C577 1.396 . S
C576 C581 1.390 . S
C577 C571 1.465 1_545 S
C577 C576 1.396 . S
C577 C578 1.399 . S
C578 H564 0.929 . S
C578 C577 1.399 . S
C578 C579 1.385 . S
C579 H565 0.931 . S
C579 C578 1.385 . S
C579 C580 1.389 . S
C580 C579 1.389 . S
C580 C581 1.387 . S
C581 H566 0.930 . S
C581 C576 1.390 . S
C581 C580 1.387 . S
H582 C594 0.930 . S
H583 C596 0.930 . S
H584 C597 0.930 . S
H585 C601 0.959 . S
H586 C601 0.959 . S
H587 C601 0.961 1_655 S
H588 C602 0.960 1_655 S
H589 C602 0.961 . S
H590 C602 0.959 . S
H591 C605 0.929 . S
H592 C606 0.931 . S
H593 C608 0.930 . S
C594 H582 0.930 . S
C594 C595 1.399 . S
C594 C599 1.399 . S
C595 C594 1.399 . S
C595 C596 1.376 . S
C596 H583 0.930 . S
C596 C595 1.376 . S
C596 C597 1.388 . S
C597 H584 0.930 . S
C597 C596 1.388 . S
C597 C598 1.390 . S
C598 C597 1.390 . S
C598 C599 1.394 . S
C598 C604 1.465 1_655 S
C599 C594 1.399 . S
C599 C598 1.394 . S
C599 C600 1.498 1_655 S
C600 C599 1.498 1_455 S
C600 C601 1.513 . S
C600 C602 1.554 . S
C600 C603 1.540 . S
C601 H585 0.959 . S
C601 H586 0.959 . S
C601 H587 0.961 1_455 S
C601 C600 1.513 . S
C602 H588 0.960 1_455 S
C602 H589 0.961 . S
C602 H590 0.959 . S
C602 C600 1.554 . S
C603 C600 1.540 . S
C603 C604 1.396 . S
C603 C608 1.390 . S
C604 C598 1.465 1_455 S
C604 C603 1.396 . S
C604 C605 1.399 . S
C605 H591 0.929 . S
C605 C604 1.399 . S
C605 C606 1.385 . S
C606 H592 0.931 . S
C606 C605 1.385 . S
C606 C607 1.389 . S
C607 C606 1.389 . S
C607 C608 1.387 . S
C608 H593 0.930 . S
C608 C603 1.390 . S
C608 C607 1.387 . S
H609 C621 0.930 . S
H610 C623 0.930 . S
H611 C624 0.930 . S
H612 C628 0.959 . S
H613 C628 0.959 . S
H614 C628 0.961 . S
H615 C629 0.960 . S
H616 C629 0.961 . S
H617 C629 0.959 . S
H618 C632 0.929 . S
H619 C633 0.931 . S
H620 C635 0.930 . S
C621 H609 0.930 . S
C621 C622 1.399 . S
C621 C626 1.399 . S
C622 C621 1.399 . S
C622 C623 1.376 . S
C623 H610 0.930 . S
C623 C622 1.376 . S
C623 C624 1.388 . S
C624 H611 0.930 . S
C624 C623 1.388 . S
C624 C625 1.390 . S
C625 C624 1.390 . S
C625 C626 1.394 . S
C625 C631 1.465 . S
C626 C621 1.399 . S
C626 C625 1.394 . S
C626 C627 1.516 . S
C627 C626 1.516 . S
C627 C628 1.502 . S
C627 C629 1.561 . S
C627 C630 1.526 . S
C628 H612 0.959 . S
C628 H613 0.959 . S
C628 H614 0.961 . S
C628 C627 1.502 . S
C629 H615 0.960 . S
C629 H616 0.961 . S
C629 H617 0.959 . S
C629 C627 1.561 . S
C630 C627 1.526 . S
C630 C631 1.396 . S
C630 C635 1.390 . S
C631 C625 1.465 . S
C631 C630 1.396 . S
C631 C632 1.399 . S
C632 H618 0.929 . S
C632 C631 1.399 . S
C632 C633 1.385 . S
C633 H619 0.931 . S
C633 C632 1.385 . S
C633 C634 1.389 . S
C634 C633 1.389 . S
C634 C635 1.387 . S
C635 H620 0.930 . S
C635 C630 1.390 . S
C635 C634 1.387 . S
H636 C648 0.930 . S
H637 C650 0.930 . S
H638 C651 0.930 . S
H639 C655 0.959 . S
H640 C655 0.959 . S
H641 C655 0.961 . S
H642 C656 0.960 . S
H643 C656 0.961 . S
H644 C656 0.959 . S
H645 C659 0.929 . S
H646 C660 0.931 . S
H647 C662 0.930 . S
C648 H636 0.930 . S
C648 C649 1.399 . S
C648 C653 1.399 . S
C649 C648 1.399 . S
C649 C650 1.376 . S
C650 H637 0.930 . S
C650 C649 1.376 . S
C650 C651 1.388 . S
C651 H638 0.930 . S
C651 C650 1.388 . S
C651 C652 1.390 . S
C652 C651 1.390 . S
C652 C653 1.394 . S
C652 C658 1.465 . S
C653 C648 1.399 . S
C653 C652 1.394 . S
C653 C654 1.516 . S
C654 C653 1.516 . S
C654 C655 1.502 . S
C654 C656 1.561 . S
C654 C657 1.526 . S
C655 H639 0.959 . S
C655 H640 0.959 . S
C655 H641 0.961 . S
C655 C654 1.502 . S
C656 H642 0.960 . S
C656 H643 0.961 . S
C656 H644 0.959 . S
C656 C654 1.561 . S
C657 C654 1.526 . S
C657 C658 1.396 . S
C657 C662 1.390 . S
C658 C652 1.465 . S
C658 C657 1.396 . S
C658 C659 1.399 . S
C659 H645 0.929 . S
C659 C658 1.399 . S
C659 C660 1.385 . S
C660 H646 0.931 . S
C660 C659 1.385 . S
C660 C661 1.389 . S
C661 C660 1.389 . S
C661 C662 1.387 . S
C662 H647 0.930 . S
C662 C657 1.390 . S
C662 C661 1.387 . S
H663 C675 0.930 . S
H664 C677 0.930 . S
H665 C678 0.930 . S
H666 C682 0.959 . S
H667 C682 0.959 1_554 S
H668 C682 0.961 . S
H669 C683 0.960 . S
H670 C683 0.961 1_554 S
H671 C683 0.959 . S
H672 C686 0.929 . S
H673 C687 0.931 . S
H674 C689 0.930 . S
C675 H663 0.930 . S
C675 C676 1.399 . S
C675 C680 1.399 . S
C676 C675 1.399 . S
C676 C677 1.376 . S
C677 H664 0.930 . S
C677 C676 1.376 . S
C677 C678 1.388 . S
C678 H665 0.930 . S
C678 C677 1.388 . S
C678 C679 1.390 . S
C679 C678 1.390 . S
C679 C680 1.394 . S
C679 C685 1.465 1_556 S
C680 C675 1.399 . S
C680 C679 1.394 . S
C680 C681 1.516 . S
C681 C680 1.516 . S
C681 C682 1.502 . S
C681 C683 1.561 . S
C681 C684 1.526 1_556 S
C682 H666 0.959 . S
C682 H667 0.959 1_556 S
C682 H668 0.961 . S
C682 C681 1.502 . S
C683 H669 0.960 . S
C683 H670 0.961 1_556 S
C683 H671 0.959 . S
C683 C681 1.561 . S
C684 C681 1.526 1_554 S
C684 C685 1.396 . S
C684 C689 1.390 . S
C685 C679 1.465 1_554 S
C685 C684 1.396 . S
C685 C686 1.399 . S
C686 H672 0.929 . S
C686 C685 1.399 . S
C686 C687 1.385 . S
C687 H673 0.931 . S
C687 C686 1.385 . S
C687 C688 1.389 . S
C688 C687 1.389 . S
C688 C689 1.387 . S
C689 H674 0.930 . S
C689 C684 1.390 . S
C689 C688 1.387 . S
H690 C702 0.930 . S
H691 C704 0.930 . S
H692 C705 0.930 . S
H693 C709 0.959 . S
H694 C709 0.959 . S
H695 C709 0.961 . S
H696 C710 0.960 . S
H697 C710 0.961 . S
H698 C710 0.959 . S
H699 C713 0.929 . S
H700 C714 0.931 . S
H701 C716 0.930 . S
C702 H690 0.930 . S
C702 C703 1.399 . S
C702 C707 1.399 . S
C703 C702 1.399 . S
C703 C704 1.376 . S
C704 H691 0.930 . S
C704 C703 1.376 . S
C704 C705 1.388 . S
C705 H692 0.930 . S
C705 C704 1.388 . S
C705 C706 1.390 . S
C706 C705 1.390 . S
C706 C707 1.394 . S
C706 C712 1.465 . S
C707 C702 1.399 . S
C707 C706 1.394 . S
C707 C708 1.516 . S
C708 C707 1.516 . S
C708 C709 1.502 . S
C708 C710 1.561 . S
C708 C711 1.526 . S
C709 H693 0.959 . S
C709 H694 0.959 . S
C709 H695 0.961 . S
C709 C708 1.502 . S
C710 H696 0.960 . S
C710 H697 0.961 . S
C710 H698 0.959 . S
C710 C708 1.561 . S
C711 C708 1.526 . S
C711 C712 1.396 . S
C711 C716 1.390 . S
C712 C706 1.465 . S
C712 C711 1.396 . S
C712 C713 1.399 . S
C713 H699 0.929 . S
C713 C712 1.399 . S
C713 C714 1.385 . S
C714 H700 0.931 . S
C714 C713 1.385 . S
C714 C715 1.389 . S
C715 C714 1.389 . S
C715 C716 1.387 . S
C716 H701 0.930 . S
C716 C711 1.390 . S
C716 C715 1.387 . S
H717 C729 0.930 . S
H718 C731 0.930 . S
H719 C732 0.930 . S
H720 C736 0.959 . S
H721 C736 0.959 1_556 S
H722 C736 0.961 . S
H723 C737 0.960 . S
H724 C737 0.961 1_556 S
H725 C737 0.959 . S
H726 C740 0.929 . S
H727 C741 0.931 . S
H728 C743 0.930 . S
C729 H717 0.930 . S
C729 C730 1.399 . S
C729 C734 1.399 . S
C730 C729 1.399 . S
C730 C731 1.376 . S
C731 H718 0.930 . S
C731 C730 1.376 . S
C731 C732 1.388 . S
C732 H719 0.930 . S
C732 C731 1.388 . S
C732 C733 1.390 . S
C733 C732 1.390 . S
C733 C734 1.394 . S
C733 C739 1.465 1_554 S
C734 C729 1.399 . S
C734 C733 1.394 . S
C734 C735 1.516 . S
C735 C734 1.516 . S
C735 C736 1.502 . S
C735 C737 1.561 . S
C735 C738 1.526 1_554 S
C736 H720 0.959 . S
C736 H721 0.959 1_554 S
C736 H722 0.961 . S
C736 C735 1.502 . S
C737 H723 0.960 . S
C737 H724 0.961 1_554 S
C737 H725 0.959 . S
C737 C735 1.561 . S
C738 C735 1.526 1_556 S
C738 C739 1.396 . S
C738 C743 1.390 . S
C739 C733 1.465 1_556 S
C739 C738 1.396 . S
C739 C740 1.399 . S
C740 H726 0.929 . S
C740 C739 1.399 . S
C740 C741 1.385 . S
C741 H727 0.931 . S
C741 C740 1.385 . S
C741 C742 1.389 . S
C742 C741 1.389 . S
C742 C743 1.387 . S
C743 H728 0.930 . S
C743 C738 1.390 . S
C743 C742 1.387 . S
H744 C756 0.930 . S
H745 C758 0.930 . S
H746 C759 0.930 . S
H747 C763 0.959 . S
H748 C763 0.959 . S
H749 C763 0.961 . S
H750 C764 0.960 . S
H751 C764 0.961 . S
H752 C764 0.959 . S
H753 C767 0.929 . S
H754 C768 0.931 . S
H755 C770 0.930 . S
C756 H744 0.930 . S
C756 C757 1.399 . S
C756 C761 1.399 . S
C757 C756 1.399 . S
C757 C758 1.376 . S
C758 H745 0.930 . S
C758 C757 1.376 . S
C758 C759 1.388 . S
C759 H746 0.930 . S
C759 C758 1.388 . S
C759 C760 1.390 . S
C760 C759 1.390 . S
C760 C761 1.394 . S
C760 C766 1.465 . S
C761 C756 1.399 . S
C761 C760 1.394 . S
C761 C762 1.516 . S
C762 C761 1.516 . S
C762 C763 1.502 . S
C762 C764 1.561 . S
C762 C765 1.526 . S
C763 H747 0.959 . S
C763 H748 0.959 . S
C763 H749 0.961 . S
C763 C762 1.502 . S
C764 H750 0.960 . S
C764 H751 0.961 . S
C764 H752 0.959 . S
C764 C762 1.561 . S
C765 C762 1.526 . S
C765 C766 1.396 . S
C765 C770 1.390 . S
C766 C760 1.465 . S
C766 C765 1.396 . S
C766 C767 1.399 . S
C767 H753 0.929 . S
C767 C766 1.399 . S
C767 C768 1.385 . S
C768 H754 0.931 . S
C768 C767 1.385 . S
C768 C769 1.389 . S
C769 C768 1.389 . S
C769 C770 1.387 . S
C770 H755 0.930 . S
C770 C765 1.390 . S
C770 C769 1.387 . S
C217 C3 2.625 1_556 S
C229 C139 2.647 . S
C244 C171 2.644 . S
C256 C37 2.644 . S
C271 C69 2.635 . S
C283 C103 2.608 1_554 S
C298 C22 1.810 . S
C310 C85 1.840 . S
C325 C17 1.816 . S
C337 C56 1.769 . S
C352 C51 1.809 . S
C364 C83 1.766 . S
C379 C117 1.798 . S
C391 C153 1.834 . S
C406 C158 1.777 . S
C418 C187 1.822 . S
C433 C119 1.832 . S
C445 C185 1.794 . S
C460 C137 1.069 . S
C472 C1 0.965 . S
C487 C173 0.969 . S
C499 C35 1.099 . S
C514 C105 1.013 . S
C526 C71 1.121 . S
C541 C15 1.366 1_556 S
C553 C124 1.242 . S
C568 C49 1.360 . S
C580 C151 1.255 . S
C595 C192 1.359 . S
C607 C90 1.256 . S
C622 C6 1.136 . S
C634 C28 1.151 . S
C649 C62 1.156 . S
C661 C40 1.172 . S
C676 C96 1.135 . S
C688 C74 1.160 . S
C703 C130 1.170 . S
C715 C108 1.153 . S
C730 C142 1.166 . S
C742 C164 1.150 . S
C757 C176 1.148 . S
C769 C198 1.162 . S
