# Generated by pormake.
# Topology ukf, (4)-cn, num edge types: 1
# Building blocks:
#     Node 0, Type 0, BuildingBlock: ICAMEG_clean_sbu_1, # of connection points: 4
#     Node 1, Type 0, BuildingBlock: ICAMEG_clean_sbu_1, # of connection points: 4
#     Node 2, Type 0, BuildingBlock: ICAMEG_clean_sbu_1, # of connection points: 4
#     Node 3, Type 0, BuildingBlock: ICAMEG_clean_sbu_1, # of connection points: 4
#     Node 4, Type 0, BuildingBlock: ICAMEG_clean_sbu_1, # of connection points: 4
#     Node 5, Type 0, BuildingBlock: ICAMEG_clean_sbu_1, # of connection points: 4
#     Node 6, Type 0, BuildingBlock: ICAMEG_clean_sbu_1, # of connection points: 4
#     Node 7, Type 0, BuildingBlock: ICAMEG_clean_sbu_1, # of connection points: 4
#     Node 8, Type 0, BuildingBlock: ICAMEG_clean_sbu_1, # of connection points: 4
#     Node 9, Type 0, BuildingBlock: ICAMEG_clean_sbu_1, # of connection points: 4
#     Node 10, Type 0, BuildingBlock: ICAMEG_clean_sbu_1, # of connection points: 4
#     Node 11, Type 0, BuildingBlock: ICAMEG_clean_sbu_1, # of connection points: 4
#     Edge 12, Type (0, 0), BuildingBlock: KIFKEQ_clean_linker_1, # of connection points: 2
#     Edge 13, Type (0, 0), BuildingBlock: KIFKEQ_clean_linker_1, # of connection points: 2
#     Edge 14, Type (0, 0), BuildingBlock: KIFKEQ_clean_linker_1, # of connection points: 2
#     Edge 15, Type (0, 0), BuildingBlock: KIFKEQ_clean_linker_1, # of connection points: 2
#     Edge 16, Type (0, 0), BuildingBlock: KIFKEQ_clean_linker_1, # of connection points: 2
#     Edge 17, Type (0, 0), BuildingBlock: KIFKEQ_clean_linker_1, # of connection points: 2
#     Edge 18, Type (0, 0), BuildingBlock: KIFKEQ_clean_linker_1, # of connection points: 2
#     Edge 19, Type (0, 0), BuildingBlock: KIFKEQ_clean_linker_1, # of connection points: 2
#     Edge 20, Type (0, 0), BuildingBlock: KIFKEQ_clean_linker_1, # of connection points: 2
#     Edge 21, Type (0, 0), BuildingBlock: KIFKEQ_clean_linker_1, # of connection points: 2
#     Edge 22, Type (0, 0), BuildingBlock: KIFKEQ_clean_linker_1, # of connection points: 2
#     Edge 23, Type (0, 0), BuildingBlock: KIFKEQ_clean_linker_1, # of connection points: 2
#     Edge 24, Type (0, 0), BuildingBlock: KIFKEQ_clean_linker_1, # of connection points: 2
#     Edge 25, Type (0, 0), BuildingBlock: KIFKEQ_clean_linker_1, # of connection points: 2
#     Edge 26, Type (0, 0), BuildingBlock: KIFKEQ_clean_linker_1, # of connection points: 2
#     Edge 27, Type (0, 0), BuildingBlock: KIFKEQ_clean_linker_1, # of connection points: 2
#     Edge 28, Type (0, 0), BuildingBlock: KIFKEQ_clean_linker_1, # of connection points: 2
#     Edge 29, Type (0, 0), BuildingBlock: KIFKEQ_clean_linker_1, # of connection points: 2
#     Edge 30, Type (0, 0), BuildingBlock: KIFKEQ_clean_linker_1, # of connection points: 2
#     Edge 31, Type (0, 0), BuildingBlock: KIFKEQ_clean_linker_1, # of connection points: 2
#     Edge 32, Type (0, 0), BuildingBlock: KIFKEQ_clean_linker_1, # of connection points: 2
#     Edge 33, Type (0, 0), BuildingBlock: KIFKEQ_clean_linker_1, # of connection points: 2
#     Edge 34, Type (0, 0), BuildingBlock: KIFKEQ_clean_linker_1, # of connection points: 2
#     Edge 35, Type (0, 0), BuildingBlock: KIFKEQ_clean_linker_1, # of connection points: 2
# Relax obj value: 0.106
# Max RMSD: 0.105
# Mean RMSD: 0.105
data_MOF--net-ukf--node1-ICAMEG_clean_sbu_1--edge1-KIFKEQ_clean_linker_1
_symmetry_space_group_name_H-M    P1
_symmetry_Int_Tables_number       1
_symmetry_cell_setting            triclinic
loop_
_symmetry_equiv_pos_as_xyz
'x, y, z'
_cell_length_a     34.267759
_cell_length_b     34.224295
_cell_length_c     71.951279
_cell_angle_alpha  89.96844
_cell_angle_beta   90.015169
_cell_angle_gamma 120.00477
loop_
_atom_site_label
_atom_site_type_symbol
_atom_site_fract_x
_atom_site_fract_y
_atom_site_fract_z
_atom_type_partial_charge
Co0 Co 0.41971 0.24954 0.04341 0.0
Co1 Co 0.4476 0.19687 0.07727 0.0
O2 O 0.42651 0.23823 0.06963 0.0
C3 C 0.4746 0.34302 0.05812 0.0
O4 O 0.50293 0.3313 0.06481 0.0
C5 C 0.37335 0.18055 0.10439 0.0
O6 O 0.35557 0.19621 0.09249 0.0
O7 O 0.39899 0.14726 0.0622 0.0
O8 O 0.39969 0.18526 0.03661 0.0
H9 H 0.49206 0.07942 0.06615 0.0
H10 H 0.37487 0.2771 0.07157 0.0
O11 O 0.43952 0.31424 0.0494 0.0
H12 H 0.25219 0.16491 0.03217 0.0
H13 H 0.37512 0.31711 0.99113 0.0
H14 H 0.44364 0.22468 0.00742 0.0
H15 H 0.33116 0.18651 0.02584 0.0
H16 H 0.38289 0.30113 0.02392 0.0
O17 O 0.40754 0.17725 0.09988 0.0
H18 H 0.46638 0.13246 0.0572 0.0
H19 H 0.47238 0.17223 0.11353 0.0
H20 H 0.43622 0.23955 0.97445 0.0
H21 H 0.29642 0.25708 0.07818 0.0
H22 H 0.40173 0.28606 0.96612 0.0
H23 H 0.2344 0.20042 0.05846 0.0
O24 O 0.48315 0.26609 0.03815 0.0
H25 H 0.50998 0.3285 0.12132 0.0
H26 H 0.54644 0.233 0.08214 0.0
H27 H 0.60697 0.29584 0.09974 0.0
H28 H 0.58887 0.34404 0.11957 0.0
H29 H 0.45067 0.26572 0.10328 0.0
H30 H 0.4977 0.1193 0.1231 0.0
H31 H 0.50789 0.07258 0.09932 0.0
O32 O 0.48982 0.21536 0.05555 0.0
C33 C 0.38916 0.14854 0.04515 0.0
C34 C 0.48784 0.09967 0.07664 0.0
C35 C 0.49094 0.12201 0.1086 0.0
N36 N 0.46809 0.15561 0.0848 0.0
C37 C 0.47339 0.12984 0.07165 0.0
C38 C 0.47644 0.15182 0.1031 0.0
C39 C 0.49668 0.09582 0.09525 0.0
C40 C 0.34814 0.25278 0.0628 0.0
N41 N 0.35763 0.23293 0.04838 0.0
C42 C 0.30374 0.24141 0.06667 0.0
C43 C 0.26896 0.20956 0.05562 0.0
C44 C 0.27891 0.18957 0.04089 0.0
C45 C 0.3237 0.20175 0.03745 0.0
C46 C 0.3901 0.29669 0.99458 0.0
C47 C 0.4283 0.24467 1.00391 0.0
C48 C 0.39465 0.28758 0.01313 0.0
N49 N 0.41331 0.26162 0.01758 0.0
C50 C 0.42433 0.25311 0.98521 0.0
C51 C 0.40502 0.27925 0.98055 0.0
C52 C 0.50375 0.24515 0.04274 0.0
C53 C 0.51828 0.30765 0.11277 0.0
C54 C 0.53832 0.25394 0.09062 0.0
C55 C 0.57272 0.2894 0.10063 0.0
C56 C 0.56254 0.3164 0.11176 0.0
N57 N 0.49494 0.24544 0.09171 0.0
C58 C 0.48475 0.27187 0.10258 0.0
Co59 Co 0.17163 0.41544 0.37621 0.0
Co60 Co 0.25376 0.44605 0.40983 0.0
O61 O 0.19104 0.4238 0.40228 0.0
C62 C 0.13567 0.473 0.39049 0.0
O63 O 0.17621 0.50118 0.39679 0.0
C64 C 0.19722 0.37072 0.43689 0.0
O65 O 0.16324 0.35288 0.42525 0.0
O66 O 0.2564 0.3987 0.39445 0.0
O67 O 0.21421 0.39342 0.36964 0.0
H68 H 0.4164 0.49444 0.39843 0.0
H69 H 0.10076 0.3742 0.4052 0.0
O70 O 0.12823 0.43714 0.38208 0.0
H71 H 0.08452 0.24695 0.36727 0.0
H72 H 0.05717 0.36937 0.32481 0.0
H73 H 0.21833 0.43449 0.33981 0.0
H74 H 0.14298 0.32494 0.35982 0.0
H75 H 0.08252 0.37935 0.35743 0.0
O76 O 0.2343 0.40532 0.43225 0.0
H77 H 0.33743 0.46744 0.38958 0.0
H78 H 0.30323 0.47099 0.44606 0.0
H79 H 0.19441 0.42481 0.307 0.0
H80 H 0.0413 0.29679 0.41293 0.0
H81 H 0.1133 0.39203 0.29933 0.0
H82 H 0.03303 0.23247 0.39395 0.0
O83 O 0.21919 0.47817 0.36985 0.0
H84 H 0.18165 0.50436 0.45435 0.0
H85 H 0.31467 0.54513 0.41525 0.0
H86 H 0.31061 0.6043 0.43319 0.0
H87 H 0.24375 0.58402 0.45299 0.0
H88 H 0.18686 0.44645 0.43597 0.0
H89 H 0.38172 0.49763 0.45553 0.0
H90 H 0.43899 0.50971 0.43162 0.0
O91 O 0.27643 0.48875 0.38832 0.0
C92 C 0.24273 0.38568 0.37785 0.0
C93 C 0.39178 0.48942 0.40897 0.0
C94 C 0.37231 0.49114 0.44102 0.0
N95 N 0.31576 0.46786 0.41726 0.0
C96 C 0.34703 0.47423 0.40404 0.0
C97 C 0.32786 0.4759 0.43558 0.0
C98 C 0.40442 0.49793 0.4276 0.0
C99 C 0.09709 0.34646 0.39675 0.0
N100 N 0.12541 0.35413 0.38211 0.0
C101 C 0.06349 0.30266 0.40125 0.0
C102 C 0.05892 0.26659 0.39062 0.0
C103 C 0.08785 0.27468 0.37567 0.0
C104 C 0.12108 0.31892 0.37159 0.0
C105 C 0.0926 0.38363 0.32798 0.0
C106 C 0.18294 0.41999 0.33659 0.0
C107 C 0.10717 0.38945 0.34642 0.0
N108 N 0.15184 0.40723 0.35052 0.0
C109 C 0.16962 0.41469 0.31798 0.0
C110 C 0.12411 0.39633 0.31369 0.0
C111 C 0.2604 0.5005 0.37482 0.0
C112 C 0.21102 0.51361 0.44582 0.0
C113 C 0.28537 0.53608 0.4237 0.0
C114 C 0.28332 0.5697 0.43391 0.0
C115 C 0.24583 0.5583 0.44502 0.0
N116 N 0.25116 0.49227 0.42457 0.0
C117 C 0.21427 0.48089 0.43543 0.0
Co118 Co 0.76294 0.17158 0.70884 0.0
Co119 Co 0.81571 0.24909 0.74377 0.0
O120 O 0.77431 0.18715 0.73536 0.0
C121 C 0.67063 0.12949 0.72505 0.0
O122 O 0.68372 0.16641 0.73478 0.0
C123 C 0.83009 0.18865 0.77047 0.0
O124 O 0.81048 0.15425 0.75908 0.0
O125 O 0.86512 0.25113 0.72826 0.0
O126 O 0.82709 0.21656 0.70232 0.0
H127 H 0.9332 0.41179 0.73434 0.0
H128 H 0.73588 0.09658 0.73568 0.0
O129 O 0.69825 0.12603 0.71427 0.0
H130 H 0.84781 0.09015 0.69467 0.0
H131 H 0.69605 0.06516 0.65468 0.0
H132 H 0.78774 0.22429 0.67379 0.0
H133 H 0.82592 0.14795 0.68989 0.0
H134 H 0.71194 0.08526 0.68782 0.0
O135 O 0.83577 0.22707 0.76578 0.0
H136 H 0.88004 0.33379 0.72453 0.0
H137 H 0.84052 0.29577 0.78062 0.0
H138 H 0.77298 0.20568 0.6405 0.0
H139 H 0.75627 0.03775 0.74078 0.0
H140 H 0.72682 0.1256 0.63075 0.0
H141 H 0.81278 0.03441 0.72023 0.0
O142 O 0.74591 0.21858 0.70494 0.0
H143 H 0.68547 0.17774 0.78847 0.0
H144 H 0.77956 0.31143 0.74986 0.0
H145 H 0.71754 0.3085 0.76826 0.0
H146 H 0.67008 0.24136 0.78784 0.0
H147 H 0.74725 0.18175 0.76959 0.0
H148 H 0.89357 0.37324 0.79104 0.0
H149 H 0.94024 0.43194 0.76781 0.0
O150 O 0.79714 0.27465 0.72266 0.0
C151 C 0.86381 0.2416 0.71102 0.0
C152 C 0.91298 0.38654 0.74459 0.0
C153 C 0.89078 0.36489 0.77641 0.0
N154 N 0.85701 0.31027 0.75196 0.0
C155 C 0.88274 0.34233 0.73911 0.0
C156 C 0.8609 0.32102 0.77043 0.0
C157 C 0.91694 0.39781 0.76337 0.0
C158 C 0.7602 0.0951 0.72658 0.0
N159 N 0.77976 0.12576 0.71255 0.0
C160 C 0.77175 0.06182 0.72958 0.0
C161 C 0.80351 0.06001 0.71807 0.0
C162 C 0.82323 0.09132 0.70375 0.0
C163 C 0.81087 0.12415 0.70117 0.0
C164 C 0.7163 0.10017 0.65875 0.0
C165 C 0.76789 0.18935 0.66966 0.0
C166 C 0.72535 0.11177 0.6775 0.0
N167 N 0.75108 0.1559 0.68273 0.0
C168 C 0.75952 0.17903 0.65078 0.0
C169 C 0.73358 0.1341 0.64533 0.0
C170 C 0.76704 0.25978 0.70999 0.0
C171 C 0.70605 0.20729 0.78007 0.0
C172 C 0.75893 0.28198 0.75821 0.0
C173 C 0.72394 0.28058 0.76868 0.0
C174 C 0.69736 0.24294 0.77967 0.0
N175 N 0.76739 0.24696 0.7587 0.0
C176 C 0.74136 0.2099 0.76943 0.0
Co177 Co 0.59974 0.76077 0.04299 0.0
Co178 Co 0.56829 0.81159 0.07662 0.0
O179 O 0.59107 0.77152 0.06907 0.0
C180 C 0.54294 0.66703 0.05722 0.0
O181 O 0.51457 0.67905 0.0636 0.0
C182 C 0.64321 0.83039 0.10389 0.0
O183 O 0.66113 0.81408 0.09237 0.0
O184 O 0.61546 0.86196 0.06131 0.0
O185 O 0.62123 0.82536 0.03649 0.0
H186 H 0.5186 0.92503 0.06525 0.0
H187 H 0.64125 0.7314 0.07199 0.0
O188 O 0.5786 0.69569 0.04879 0.0
H189 H 0.7681 0.84343 0.0342 0.0
H190 H 0.64702 0.69354 0.99155 0.0
H191 H 0.58058 0.78847 0.00661 0.0
H192 H 0.69006 0.82332 0.02669 0.0
H193 H 0.63664 0.70846 0.02418 0.0
O194 O 0.60877 0.83297 0.0991 0.0
H195 H 0.54639 0.87365 0.05639 0.0
H196 H 0.54265 0.83545 0.11285 0.0
H197 H 0.59065 0.77468 0.9738 0.0
H198 H 0.71873 0.74993 0.07977 0.0
H199 H 0.6241 0.7269 0.96609 0.0
H200 H 0.78284 0.80649 0.06086 0.0
O201 O 0.53696 0.74513 0.0366 0.0
H202 H 0.51056 0.68065 0.12096 0.0
H203 H 0.46918 0.77266 0.08191 0.0
H204 H 0.41023 0.70897 0.09973 0.0
H205 H 0.43081 0.6625 0.1195 0.0
H206 H 0.56825 0.74422 0.10271 0.0
H207 H 0.51523 0.88673 0.12231 0.0
H208 H 0.50284 0.93183 0.09842 0.0
O209 O 0.52583 0.79146 0.05506 0.0
C210 C 0.62863 0.8615 0.04471 0.0
C211 C 0.52376 0.90547 0.07578 0.0
C212 C 0.52194 0.88403 0.10781 0.0
N213 N 0.54593 0.85137 0.08406 0.0
C214 C 0.53939 0.87623 0.07085 0.0
C215 C 0.53762 0.85515 0.10237 0.0
C216 C 0.51497 0.9093 0.0944 0.0
C217 C 0.66891 0.7557 0.06357 0.0
N218 N 0.66109 0.77632 0.04894 0.0
C219 C 0.71274 0.76622 0.0681 0.0
C220 C 0.7487 0.79802 0.05751 0.0
C221 C 0.74046 0.81881 0.04257 0.0
C222 C 0.69619 0.80747 0.03846 0.0
C223 C 0.63247 0.71447 0.99473 0.0
C224 C 0.59537 0.76783 1.00338 0.0
C225 C 0.62642 0.72295 0.01318 0.0
N226 N 0.60827 0.74954 0.0173 0.0
C227 C 0.60089 0.76005 0.98477 0.0
C228 C 0.61962 0.73321 0.98045 0.0
C229 C 0.51438 0.76378 0.04154 0.0
C230 C 0.50118 0.70072 0.11245 0.0
C231 C 0.47837 0.75248 0.09035 0.0
C232 C 0.44486 0.71653 0.10049 0.0
C233 C 0.45643 0.69051 0.11159 0.0
N234 N 0.52223 0.76241 0.09128 0.0
C235 C 0.53378 0.73696 0.10213 0.0
Co236 Co 0.84237 0.59724 0.37726 0.0
Co237 Co 0.76354 0.57104 0.41172 0.0
O238 O 0.82562 0.59207 0.40361 0.0
C239 C 0.8817 0.54332 0.39226 0.0
O240 O 0.84201 0.51541 0.39937 0.0
C241 C 0.82287 0.64587 0.43857 0.0
O242 O 0.85717 0.66151 0.42711 0.0
O243 O 0.76143 0.6185 0.3962 0.0
O244 O 0.79772 0.61672 0.37048 0.0
H245 H 0.60095 0.52488 0.40172 0.0
H246 H 0.9162 0.64415 0.40468 0.0
O247 O 0.88761 0.57792 0.38323 0.0
H248 H 0.92439 0.76413 0.36407 0.0
H249 H 0.95162 0.63843 0.3241 0.0
H250 H 0.79171 0.57104 0.34172 0.0
H251 H 0.86678 0.68463 0.35876 0.0
H252 H 0.92967 0.63289 0.35706 0.0
O253 O 0.78479 0.61272 0.43386 0.0
H254 H 0.67919 0.55037 0.39218 0.0
H255 H 0.71608 0.54834 0.4484 0.0
H256 H 0.81218 0.5762 0.30859 0.0
H257 H 0.97486 0.72317 0.41029 0.0
H258 H 0.89266 0.6101 0.2996 0.0
H259 H 0.97908 0.78384 0.38995 0.0
O260 O 0.79538 0.53339 0.37275 0.0
H261 H 0.8357 0.51196 0.45593 0.0
H262 H 0.70143 0.47242 0.41783 0.0
H263 H 0.70487 0.41319 0.43601 0.0
H264 H 0.77233 0.43285 0.45532 0.0
H265 H 0.8311 0.56992 0.43734 0.0
H266 H 0.63836 0.52328 0.45855 0.0
H267 H 0.58011 0.51118 0.43512 0.0
O268 O 0.73885 0.52728 0.39052 0.0
C269 C 0.77181 0.62753 0.37904 0.0
C270 C 0.62601 0.52993 0.41206 0.0
C271 C 0.64702 0.5291 0.44395 0.0
N272 N 0.70216 0.55064 0.41969 0.0
C273 C 0.67036 0.54428 0.40674 0.0
C274 C 0.69103 0.54346 0.43812 0.0
C275 C 0.61435 0.52229 0.4308 0.0
C276 C 0.91807 0.6703 0.39566 0.0
N277 N 0.88797 0.65975 0.38146 0.0
C278 C 0.95124 0.71502 0.39896 0.0
C279 C 0.95355 0.74904 0.38756 0.0
C280 C 0.92283 0.73802 0.37306 0.0
C281 C 0.89009 0.69294 0.37019 0.0
C282 C 0.91645 0.62369 0.32784 0.0
C283 C 0.82682 0.58614 0.33791 0.0
C284 C 0.9038 0.6204 0.34648 0.0
N285 N 0.85946 0.60204 0.3513 0.0
C286 C 0.8382 0.58883 0.31913 0.0
C287 C 0.88335 0.6078 0.3141 0.0
C288 C 0.75415 0.51278 0.37772 0.0
C289 C 0.80603 0.503 0.44764 0.0
C290 C 0.73097 0.48124 0.4261 0.0
C291 C 0.73268 0.44756 0.43642 0.0
C292 C 0.77051 0.45861 0.44726 0.0
N293 N 0.76584 0.52478 0.42659 0.0
C294 C 0.80311 0.53579 0.43714 0.0
Co295 Co 0.25263 0.84015 0.70954 0.0
Co296 Co 0.20154 0.75933 0.74382 0.0
O297 O 0.24207 0.82195 0.73584 0.0
C298 C 0.34551 0.87875 0.72495 0.0
O299 O 0.33191 0.84115 0.73427 0.0
C300 C 0.18366 0.81707 0.77059 0.0
O301 O 0.20066 0.85113 0.75896 0.0
O302 O 0.15134 0.75608 0.72843 0.0
O303 O 0.18792 0.79736 0.70339 0.0
H304 H 0.08709 0.59604 0.73348 0.0
H305 H 0.28309 0.91242 0.7379 0.0
O306 O 0.318 0.88374 0.7147 0.0
H307 H 0.17147 0.92715 0.69982 0.0
H308 H 0.31917 0.95157 0.65692 0.0
H309 H 0.22399 0.79115 0.67367 0.0
H310 H 0.19065 0.86824 0.69284 0.0
H311 H 0.30481 0.92826 0.6898 0.0
O312 O 0.1805 0.77961 0.76604 0.0
H313 H 0.13886 0.67478 0.72411 0.0
H314 H 0.17756 0.71119 0.78038 0.0
H315 H 0.23721 0.81302 0.64061 0.0
H316 H 0.26547 0.97235 0.74516 0.0
H317 H 0.28511 0.89375 0.63206 0.0
H318 H 0.20912 0.97985 0.7261 0.0
O319 O 0.26774 0.79238 0.70374 0.0
H320 H 0.33106 0.83194 0.78878 0.0
H321 H 0.24023 0.69896 0.74937 0.0
H322 H 0.30311 0.70324 0.76761 0.0
H323 H 0.34895 0.77005 0.78758 0.0
H324 H 0.26842 0.8266 0.77006 0.0
H325 H 0.1259 0.63294 0.79035 0.0
H326 H 0.08034 0.57469 0.76681 0.0
O327 O 0.22118 0.73574 0.7225 0.0
C328 C 0.15178 0.76925 0.71175 0.0
C329 C 0.10684 0.6211 0.74386 0.0
C330 C 0.12858 0.64182 0.77578 0.0
N331 N 0.16142 0.69754 0.75166 0.0
C332 C 0.1363 0.66572 0.73864 0.0
C333 C 0.15768 0.68612 0.77005 0.0
C334 C 0.10304 0.60915 0.76257 0.0
C335 C 0.25888 0.91576 0.72943 0.0
N336 N 0.23788 0.88679 0.715 0.0
C337 C 0.24888 0.94963 0.73366 0.0
C338 C 0.2172 0.95377 0.72298 0.0
C339 C 0.19601 0.92416 0.70825 0.0
C340 C 0.20683 0.89069 0.70444 0.0
C341 C 0.29818 0.91629 0.66047 0.0
C342 C 0.24469 0.82637 0.67006 0.0
C343 C 0.29 0.90287 0.67907 0.0
N344 N 0.26336 0.8584 0.68365 0.0
C345 C 0.25214 0.83854 0.65132 0.0
C346 C 0.27905 0.88384 0.64653 0.0
C347 C 0.24886 0.75132 0.70896 0.0
C348 C 0.31124 0.80257 0.78019 0.0
C349 C 0.26019 0.72828 0.75788 0.0
C350 C 0.29566 0.73044 0.76826 0.0
C351 C 0.32132 0.76789 0.77948 0.0
N352 N 0.2504 0.76237 0.75866 0.0
C353 C 0.27548 0.79921 0.76963 0.0
Co354 Co 0.76294 0.59528 0.63746 0.0
Co355 Co 0.81437 0.5666 0.60301 0.0
O356 O 0.77374 0.58839 0.61112 0.0
C357 C 0.67024 0.54142 0.62182 0.0
O358 O 0.68391 0.51765 0.6124 0.0
C359 C 0.83236 0.64289 0.57657 0.0
O360 O 0.81526 0.65959 0.58831 0.0
O361 O 0.8644 0.61328 0.61856 0.0
O362 O 0.82759 0.61709 0.64368 0.0
H363 H 0.92888 0.51786 0.61306 0.0
H364 H 0.73282 0.63793 0.60933 0.0
O365 O 0.69764 0.57362 0.63223 0.0
H366 H 0.84409 0.76326 0.64796 0.0
H367 H 0.69588 0.63857 0.69034 0.0
H368 H 0.79119 0.5739 0.67321 0.0
H369 H 0.82479 0.68493 0.65456 0.0
H370 H 0.71059 0.6306 0.65741 0.0
O371 O 0.83553 0.60851 0.58096 0.0
H372 H 0.87696 0.54443 0.62258 0.0
H373 H 0.83868 0.54344 0.56633 0.0
H374 H 0.77762 0.58157 0.70631 0.0
H375 H 0.75055 0.71571 0.60244 0.0
H376 H 0.72965 0.61411 0.71506 0.0
H377 H 0.80673 0.77906 0.62178 0.0
O378 O 0.74773 0.53221 0.64296 0.0
H379 H 0.68521 0.51048 0.5579 0.0
H380 H 0.77582 0.46764 0.5971 0.0
H381 H 0.71312 0.40936 0.57866 0.0
H382 H 0.66739 0.43068 0.5588 0.0
H383 H 0.74766 0.56745 0.57682 0.0
H384 H 0.89048 0.51726 0.55621 0.0
H385 H 0.9359 0.5041 0.57966 0.0
O386 O 0.79461 0.52282 0.62417 0.0
C387 C 0.86381 0.62548 0.63531 0.0
C388 C 0.90918 0.52336 0.60271 0.0
C389 C 0.88768 0.52309 0.57081 0.0
N390 N 0.85461 0.54526 0.59506 0.0
C391 C 0.87964 0.5383 0.60802 0.0
C392 C 0.8585 0.53805 0.57663 0.0
C393 C 0.91314 0.51569 0.58397 0.0
C394 C 0.75695 0.66525 0.61792 0.0
N395 N 0.77779 0.65686 0.63229 0.0
C396 C 0.76702 0.70926 0.6139 0.0
C397 C 0.7986 0.74479 0.62474 0.0
C398 C 0.81963 0.73596 0.63941 0.0
C399 C 0.80874 0.69153 0.64301 0.0
C400 C 0.7169 0.62441 0.68671 0.0
C401 C 0.77046 0.58831 0.6769 0.0
C402 C 0.72527 0.61972 0.66808 0.0
N403 N 0.75194 0.60204 0.66339 0.0
C404 C 0.76282 0.59247 0.69567 0.0
C405 C 0.73587 0.61069 0.70057 0.0
C406 C 0.76674 0.51026 0.63765 0.0
C407 C 0.70499 0.50079 0.56645 0.0
C408 C 0.7559 0.47715 0.58864 0.0
C409 C 0.72054 0.44402 0.57814 0.0
C410 C 0.69494 0.45601 0.56699 0.0
N411 N 0.76565 0.52104 0.58802 0.0
C412 C 0.74064 0.533 0.57712 0.0
Co413 Co 0.17706 0.75956 0.97015 0.0
Co414 Co 0.25413 0.81311 0.93521 0.0
O415 O 0.19231 0.7714 0.94362 0.0
C416 C 0.13423 0.66732 0.95363 0.0
O417 O 0.17088 0.68032 0.94375 0.0
C418 C 0.19347 0.82745 0.90865 0.0
O419 O 0.15914 0.80749 0.92004 0.0
O420 O 0.25592 0.86225 0.95087 0.0
O421 O 0.22228 0.82364 0.97683 0.0
H422 H 0.41647 0.93107 0.94467 0.0
H423 H 0.10191 0.73341 0.94355 0.0
O424 O 0.13123 0.69495 0.96458 0.0
H425 H 0.09652 0.84479 0.98531 0.0
H426 H 0.07153 0.69179 0.02451 0.0
H427 H 0.23021 0.78352 1.00504 0.0
H428 H 0.15403 0.82241 0.98965 0.0
H429 H 0.09113 0.70835 0.99136 0.0
O430 O 0.23195 0.83335 0.9133 0.0
H431 H 0.33865 0.87747 0.95447 0.0
H432 H 0.30068 0.83863 0.89833 0.0
H433 H 0.21211 0.76807 0.03834 0.0
H434 H 0.04337 0.75431 0.93889 0.0
H435 H 0.13225 0.72188 0.04828 0.0
H436 H 0.04055 0.81054 0.95982 0.0
O437 O 0.22384 0.74214 0.97364 0.0
H438 H 0.18326 0.68331 0.89023 0.0
H439 H 0.3167 0.77738 0.92887 0.0
H440 H 0.31406 0.71572 0.91026 0.0
H441 H 0.24705 0.66828 0.89066 0.0
H442 H 0.18697 0.74472 0.90931 0.0
H443 H 0.37796 0.89212 0.88793 0.0
H444 H 0.43655 0.93867 0.91118 0.0
O445 O 0.27985 0.79435 0.9562 0.0
C446 C 0.24678 0.86062 0.96817 0.0
C447 C 0.39126 0.9109 0.93441 0.0
C448 C 0.36964 0.88909 0.90256 0.0
N449 N 0.31516 0.85476 0.92702 0.0
C450 C 0.34716 0.88042 0.93988 0.0
C451 C 0.32587 0.85895 0.90854 0.0
C452 C 0.4025 0.91518 0.91562 0.0
C453 C 0.10067 0.75762 0.9528 0.0
N454 N 0.13146 0.77675 0.9668 0.0
C455 C 0.06755 0.76945 0.95006 0.0
C456 C 0.06603 0.80105 0.96179 0.0
C457 C 0.09747 0.82033 0.97607 0.0
C458 C 0.13012 0.8077 0.97839 0.0
C459 C 0.10644 0.71204 0.02037 0.0
C460 C 0.19537 0.76366 0.00925 0.0
C461 C 0.11776 0.72147 1.00161 0.0
N462 N 0.16177 0.7472 0.99627 0.0
C463 C 0.18533 0.7549 0.02813 0.0
C464 C 0.14053 0.72894 0.03369 0.0
C465 C 0.26501 0.7636 0.96863 0.0
C466 C 0.21276 0.70389 0.89863 0.0
C467 C 0.2873 0.75676 0.92051 0.0
C468 C 0.28607 0.72197 0.90992 0.0
C469 C 0.2485 0.6954 0.89892 0.0
N470 N 0.25219 0.76504 0.92012 0.0
C471 C 0.2152 0.739 0.90939 0.0
Co472 Co 0.42092 0.17506 0.30312 0.0
Co473 Co 0.45041 0.25661 0.26926 0.0
O474 O 0.42905 0.19389 0.27691 0.0
C475 C 0.47535 0.13638 0.2877 0.0
O476 O 0.49947 0.17391 0.27836 0.0
C477 C 0.37531 0.19914 0.24242 0.0
O478 O 0.35706 0.16604 0.25448 0.0
O479 O 0.40224 0.25833 0.28435 0.0
O480 O 0.39862 0.21757 0.3094 0.0
H481 H 0.49595 0.41885 0.2804 0.0
H482 H 0.37992 0.10356 0.27444 0.0
O483 O 0.4429 0.1316 0.29792 0.0
H484 H 0.25261 0.08758 0.31215 0.0
H485 H 0.37501 0.06244 0.35534 0.0
H486 H 0.44074 0.22327 0.33918 0.0
H487 H 0.33045 0.14629 0.31956 0.0
H488 H 0.38462 0.0865 0.32254 0.0
O489 O 0.41015 0.23634 0.24673 0.0
H490 H 0.46988 0.34001 0.28935 0.0
H491 H 0.47535 0.30606 0.23299 0.0
H492 H 0.43142 0.20065 0.37215 0.0
H493 H 0.30266 0.04384 0.26674 0.0
H494 H 0.39833 0.1197 0.38041 0.0
H495 H 0.23832 0.03572 0.28561 0.0
O496 O 0.48362 0.22286 0.30912 0.0
H497 H 0.51123 0.18762 0.22434 0.0
H498 H 0.54944 0.31845 0.26455 0.0
H499 H 0.60948 0.31596 0.24668 0.0
H500 H 0.5905 0.25024 0.22632 0.0
H501 H 0.45245 0.19117 0.24272 0.0
H502 H 0.50111 0.38444 0.22343 0.0
H503 H 0.51175 0.44151 0.24723 0.0
O504 O 0.49263 0.28004 0.29092 0.0
C505 C 0.38976 0.24513 0.30104 0.0
C506 C 0.49155 0.39432 0.26991 0.0
C507 C 0.49438 0.37499 0.23793 0.0
N508 N 0.47131 0.31847 0.26174 0.0
C509 C 0.47689 0.34964 0.27489 0.0
C510 C 0.47964 0.33061 0.24343 0.0
C511 C 0.50037 0.407 0.25129 0.0
C512 C 0.35216 0.09991 0.28284 0.0
N513 N 0.35973 0.12845 0.2974 0.0
C514 C 0.30846 0.06618 0.27836 0.0
C515 C 0.27237 0.0617 0.28893 0.0
C516 C 0.28036 0.09084 0.3038 0.0
C517 C 0.32451 0.1242 0.30786 0.0
C518 C 0.3894 0.0978 0.35192 0.0
C519 C 0.42611 0.18796 0.34265 0.0
C520 C 0.39502 0.11165 0.33337 0.0
N521 N 0.41298 0.15623 0.32894 0.0
C522 C 0.42101 0.17536 0.36135 0.0
C523 C 0.40248 0.12995 0.36598 0.0
C524 C 0.50515 0.26422 0.30425 0.0
C525 C 0.51993 0.21651 0.23312 0.0
C526 C 0.54096 0.28957 0.25589 0.0
C527 C 0.57508 0.28844 0.24571 0.0
C528 C 0.5644 0.2516 0.23427 0.0
N529 N 0.49739 0.25505 0.2547 0.0
C530 C 0.4867 0.21883 0.2435 0.0
Co531 Co 0.25303 0.41774 0.63696 0.0
Co532 Co 0.20059 0.44275 0.60201 0.0
O533 O 0.24195 0.42221 0.61043 0.0
C534 C 0.34556 0.46802 0.62093 0.0
O535 O 0.33273 0.49203 0.61118 0.0
C536 C 0.18695 0.3686 0.57508 0.0
O537 O 0.20685 0.35397 0.58639 0.0
O538 O 0.15103 0.39501 0.61738 0.0
O539 O 0.18886 0.39859 0.64339 0.0
H540 H 0.08283 0.48743 0.61137 0.0
H541 H 0.28015 0.3699 0.61016 0.0
O542 O 0.31773 0.43685 0.63164 0.0
H543 H 0.16768 0.25123 0.65098 0.0
H544 H 0.31919 0.37765 0.69123 0.0
H545 H 0.22803 0.44548 0.67198 0.0
H546 H 0.18973 0.33096 0.65582 0.0
H547 H 0.30365 0.38213 0.65806 0.0
O548 O 0.18084 0.40098 0.57989 0.0
H549 H 0.13596 0.46263 0.62121 0.0
H550 H 0.17613 0.46507 0.56516 0.0
H551 H 0.24246 0.44138 0.70529 0.0
H552 H 0.25958 0.29062 0.60501 0.0
H553 H 0.28836 0.40726 0.71511 0.0
H554 H 0.2028 0.23062 0.62546 0.0
O555 O 0.27017 0.4818 0.64089 0.0
H556 H 0.33148 0.50286 0.5576 0.0
H557 H 0.23659 0.54134 0.59612 0.0
H558 H 0.29875 0.60091 0.57791 0.0
H559 H 0.34662 0.58179 0.55837 0.0
H560 H 0.26955 0.4446 0.57629 0.0
H561 H 0.12311 0.48946 0.55472 0.0
H562 H 0.07613 0.501 0.57791 0.0
O563 O 0.21885 0.48658 0.62322 0.0
C564 C 0.1522 0.38676 0.63463 0.0
C565 C 0.10318 0.48261 0.60114 0.0
C566 C 0.12574 0.48369 0.56934 0.0
N567 N 0.15931 0.4626 0.5938 0.0
C568 C 0.13341 0.46866 0.60663 0.0
C569 C 0.15561 0.46972 0.57534 0.0
C570 C 0.09941 0.49018 0.58236 0.0
C571 C 0.2557 0.34403 0.61921 0.0
N572 N 0.23608 0.35507 0.63322 0.0
C573 C 0.24405 0.29917 0.61618 0.0
C574 C 0.21215 0.26552 0.62764 0.0
C575 C 0.19238 0.27705 0.64195 0.0
C576 C 0.20483 0.32226 0.64455 0.0
C577 C 0.29906 0.39249 0.68713 0.0
C578 C 0.24776 0.4303 0.67614 0.0
C579 C 0.2902 0.39519 0.66836 0.0
N580 N 0.26462 0.41371 0.66309 0.0
C581 C 0.25594 0.4282 0.69503 0.0
C582 C 0.28174 0.4091 0.70052 0.0
C583 C 0.24898 0.50182 0.63588 0.0
C584 C 0.31072 0.51158 0.56598 0.0
C585 C 0.25739 0.53276 0.58778 0.0
C586 C 0.29247 0.56663 0.57742 0.0
C587 C 0.31927 0.55587 0.56645 0.0
N588 N 0.24905 0.48931 0.58721 0.0
C589 C 0.27531 0.4786 0.57651 0.0
Co590 Co 0.84135 0.2499 0.96936 0.0
Co591 Co 0.76137 0.1979 0.93494 0.0
O592 O 0.82381 0.23863 0.94301 0.0
C593 C 0.88136 0.34268 0.95344 0.0
O594 O 0.84419 0.32932 0.94387 0.0
C595 C 0.81951 0.17982 0.90849 0.0
O596 O 0.8536 0.19761 0.92008 0.0
O597 O 0.75792 0.14799 0.95067 0.0
O598 O 0.798 0.18538 0.9758 0.0
H599 H 0.59812 0.08356 0.94514 0.0
H600 H 0.9142 0.2788 0.94139 0.0
O601 O 0.88557 0.31507 0.96397 0.0
H602 H 0.9266 0.1676 0.98081 0.0
H603 H 0.95126 0.31738 0.02237 0.0
H604 H 0.79136 0.22285 1.00504 0.0
H605 H 0.86815 0.1878 0.98701 0.0
H606 H 0.9289 0.30203 0.98942 0.0
O607 O 0.78192 0.17632 0.91298 0.0
H608 H 0.67663 0.13558 0.9546 0.0
H609 H 0.71381 0.1731 0.89828 0.0
H610 H 0.81227 0.23707 0.03815 0.0
H611 H 0.97369 0.26015 0.93489 0.0
H612 H 0.89274 0.28466 0.04701 0.0
H613 H 0.98002 0.204 0.95463 0.0
O614 O 0.79395 0.26583 0.9745 0.0
H615 H 0.83448 0.32663 0.88953 0.0
H616 H 0.70112 0.23647 0.9288 0.0
H617 H 0.70558 0.29895 0.91013 0.0
H618 H 0.77257 0.34444 0.89023 0.0
H619 H 0.82897 0.26442 0.90866 0.0
H620 H 0.63581 0.12118 0.88822 0.0
H621 H 0.57728 0.07609 0.91173 0.0
O622 O 0.73747 0.21806 0.956 0.0
C623 C 0.7704 0.14891 0.96749 0.0
C624 C 0.6233 0.10311 0.93476 0.0
C625 C 0.64446 0.12417 0.90282 0.0
N626 N 0.69977 0.15756 0.92703 0.0
C627 C 0.6678 0.1327 0.94004 0.0
C628 C 0.68863 0.15342 0.9086 0.0
C629 C 0.61164 0.0989 0.91602 0.0
C630 C 0.91702 0.25467 0.95015 0.0
N631 N 0.88764 0.23435 0.96452 0.0
C632 C 0.95064 0.24409 0.94635 0.0
C633 C 0.95413 0.21253 0.95741 0.0
C634 C 0.92412 0.19204 0.97209 0.0
C635 C 0.8909 0.20343 0.97546 0.0
C636 C 0.91609 0.29653 0.01869 0.0
C637 C 0.82647 0.2434 0.00877 0.0
C638 C 0.90321 0.2878 1.00006 0.0
N639 N 0.85888 0.26135 0.99531 0.0
C640 C 0.8381 0.25142 0.02755 0.0
C641 C 0.88325 0.27816 0.03251 0.0
C642 C 0.75295 0.24658 0.96925 0.0
C643 C 0.80503 0.30695 0.89808 0.0
C644 C 0.73052 0.25628 0.92032 0.0
C645 C 0.73278 0.29152 0.9097 0.0
C646 C 0.77034 0.31699 0.89852 0.0
N647 N 0.76461 0.24651 0.9198 0.0
C648 C 0.80157 0.27142 0.90888 0.0
Co649 Co 0.59424 0.83876 0.30405 0.0
Co650 Co 0.57074 0.762 0.26898 0.0
O651 O 0.5909 0.82382 0.27749 0.0
C652 C 0.54547 0.88233 0.28759 0.0
O653 O 0.52179 0.84588 0.27758 0.0
C654 C 0.64494 0.82314 0.24217 0.0
O655 O 0.65859 0.85785 0.25332 0.0
O656 O 0.61805 0.76009 0.28461 0.0
O657 O 0.6128 0.79325 0.31065 0.0
H658 H 0.52624 0.59939 0.27825 0.0
H659 H 0.64366 0.91427 0.2776 0.0
O660 O 0.57582 0.88492 0.29859 0.0
H661 H 0.75981 0.91872 0.31944 0.0
H662 H 0.63208 0.9437 0.35865 0.0
H663 H 0.56464 0.78505 0.33883 0.0
H664 H 0.67984 0.86131 0.32365 0.0
H665 H 0.62918 0.92453 0.32546 0.0
O666 O 0.61314 0.78437 0.24706 0.0
H667 H 0.55049 0.67721 0.28814 0.0
H668 H 0.54973 0.71568 0.23205 0.0
H669 H 0.56715 0.80272 0.37217 0.0
H670 H 0.7232 0.9727 0.27306 0.0
H671 H 0.60106 0.88255 0.38228 0.0
H672 H 0.78193 0.97506 0.29403 0.0
O673 O 0.52999 0.79201 0.30743 0.0
H674 H 0.51151 0.83324 0.22428 0.0
H675 H 0.47258 0.69916 0.26255 0.0
H676 H 0.4135 0.70175 0.244 0.0
H677 H 0.43285 0.76908 0.22459 0.0
H678 H 0.56926 0.82958 0.24331 0.0
H679 H 0.52592 0.6384 0.22155 0.0
H680 H 0.51381 0.57955 0.24473 0.0
O681 O 0.52628 0.73606 0.28997 0.0
C682 C 0.62538 0.76892 0.30194 0.0
C683 C 0.53131 0.6247 0.26802 0.0
C684 C 0.53119 0.64661 0.2362 0.0
N685 N 0.55133 0.70096 0.26072 0.0
C686 C 0.54495 0.66882 0.27354 0.0
C687 C 0.54484 0.69038 0.24223 0.0
C688 C 0.52438 0.61361 0.24921 0.0
C689 C 0.66898 0.91529 0.28686 0.0
N690 N 0.6571 0.8843 0.30081 0.0
C691 C 0.71398 0.94836 0.28419 0.0
C692 C 0.74693 0.94962 0.29594 0.0
C693 C 0.73454 0.91797 0.31018 0.0
C694 C 0.68921 0.88538 0.31243 0.0
C695 C 0.61731 0.90879 0.35443 0.0
C696 C 0.57973 0.81988 0.34312 0.0
C697 C 0.6155 0.89772 0.33564 0.0
N698 N 0.59708 0.85371 0.33021 0.0
C699 C 0.58093 0.82968 0.36202 0.0
C700 C 0.59991 0.87447 0.36768 0.0
C701 C 0.51029 0.75082 0.30238 0.0
C702 C 0.5027 0.80359 0.2326 0.0
C703 C 0.48127 0.7287 0.25426 0.0
C704 C 0.44767 0.7299 0.24372 0.0
C705 C 0.45856 0.76765 0.23281 0.0
N706 N 0.52459 0.76399 0.25394 0.0
C707 C 0.53541 0.80117 0.24332 0.0
H708 H 0.26884 0.87081 1.00488 0.0
H709 H 0.27048 0.94616 0.95653 0.0
H710 H 0.30287 0.93927 0.02328 0.0
H711 H 0.30164 0.01471 0.97519 0.0
H712 H 0.39651 0.13913 0.00797 0.0
H713 H 0.36305 0.0707 0.98962 0.0
H714 H 0.29557 0.99315 0.03873 0.0
H715 H 0.33211 0.06195 0.05729 0.0
C716 C 0.27591 0.90208 0.99823 0.0
C717 C 0.26696 0.90299 0.97921 0.0
C718 C 0.29518 0.94158 0.00888 0.0
C719 C 0.30517 0.98323 1.00096 0.0
C720 C 0.29559 0.98386 0.98189 0.0
C721 C 0.27733 0.9444 0.97111 0.0
C722 C 0.37447 0.10745 0.01487 0.0
C723 C 0.36698 0.10609 0.03413 0.0
C724 C 0.35481 0.06792 1.00425 0.0
C725 C 0.32604 0.02568 0.01246 0.0
C726 C 0.31813 0.02454 0.03179 0.0
C727 C 0.3388 0.06412 0.04251 0.0
H728 H 0.30695 0.36425 0.38872 0.0
H729 H 0.22354 0.35503 0.34195 0.0
H730 H 0.34145 0.33008 0.36998 0.0
H731 H 0.25778 0.32078 0.3234 0.0
H732 H 0.35945 0.2258 0.33695 0.0
H733 H 0.32348 0.2584 0.35535 0.0
H734 H 0.3299 0.3405 0.30859 0.0
H735 H 0.36585 0.30755 0.28994 0.0
C736 C 0.29563 0.35464 0.37454 0.0
C737 C 0.26229 0.36246 0.36695 0.0
C738 C 0.3154 0.33495 0.36377 0.0
C739 C 0.30255 0.32278 0.34511 0.0
C740 C 0.269 0.33028 0.3376 0.0
C741 C 0.24909 0.34968 0.34836 0.0
C742 C 0.35314 0.25066 0.33045 0.0
C743 C 0.36566 0.26388 0.31184 0.0
C744 C 0.33272 0.26964 0.34113 0.0
C745 C 0.32393 0.30229 0.33354 0.0
C746 C 0.33579 0.31513 0.31485 0.0
C747 C 0.35651 0.29628 0.30415 0.0
H748 H 0.87386 0.26128 0.67407 0.0
H749 H 0.94974 0.26848 0.72307 0.0
H750 H 0.94243 0.29612 0.6558 0.0
H751 H 0.01855 0.30062 0.70457 0.0
H752 H 0.1418 0.39685 0.67148 0.0
H753 H 0.07318 0.36259 0.68971 0.0
H754 H 0.99765 0.28966 0.64104 0.0
H755 H 0.0665 0.32686 0.62256 0.0
C756 C 0.90527 0.26972 0.6809 0.0
C757 C 0.90627 0.26207 0.70006 0.0
C758 C 0.94484 0.28948 0.67033 0.0
C759 C 0.98671 0.30134 0.67848 0.0
C760 C 0.98747 0.29307 0.69769 0.0
C761 C 0.94788 0.27425 0.70837 0.0
C762 C 0.1105 0.37349 0.66466 0.0
C763 C 0.10968 0.3646 0.64554 0.0
C764 C 0.0709 0.35337 0.6752 0.0
C765 C 0.0292 0.3228 0.66708 0.0
C766 C 0.0286 0.31359 0.64789 0.0
C767 C 0.06821 0.33467 0.63723 0.0
H768 H 0.66032 0.8733 0.00899 0.0
H769 H 0.6487 0.94697 0.05542 0.0
H770 H 0.69447 0.94179 0.99043 0.0
H771 H 0.68276 0.01571 0.03664 0.0
H772 H 0.70839 0.06245 0.95642 0.0
H773 H 0.67481 0.99369 0.97522 0.0
H774 H 0.75451 0.06997 0.02233 0.0
H775 H 0.7877 0.13842 1.00377 0.0
C776 C 0.6651 0.90409 0.01532 0.0
C777 C 0.6517 0.90436 0.03383 0.0
C778 C 0.68445 0.94341 1.00455 0.0
C779 C 0.69124 0.98434 0.01195 0.0
C780 C 0.67843 0.98488 0.03052 0.0
C781 C 0.65881 0.94539 0.04131 0.0
C782 C 0.71896 0.06455 0.97075 0.0
C783 C 0.75093 0.10621 0.97847 0.0
C784 C 0.69975 0.02506 0.98154 0.0
C785 C 0.71181 0.02623 1.00035 0.0
C786 C 0.74389 0.06782 0.008 0.0
C787 C 0.76322 0.10714 0.99724 0.0
H788 H 0.68672 0.74471 0.29023 0.0
H789 H 0.61388 0.74709 0.33869 0.0
H790 H 0.72414 0.71356 0.30889 0.0
H791 H 0.64839 0.71314 0.35709 0.0
H792 H 0.74247 0.68479 0.39103 0.0
H793 H 0.70986 0.72088 0.37241 0.0
H794 H 0.71888 0.65227 0.3235 0.0
H795 H 0.75418 0.6192 0.34191 0.0
C796 C 0.67831 0.73803 0.30484 0.0
C797 C 0.64751 0.74862 0.31296 0.0
C798 C 0.69952 0.71978 0.31561 0.0
C799 C 0.68962 0.71048 0.33472 0.0
C800 C 0.65816 0.72064 0.34266 0.0
C801 C 0.63789 0.73986 0.33201 0.0
C802 C 0.73763 0.67773 0.37628 0.0
C803 C 0.75122 0.64934 0.36798 0.0
C804 C 0.71851 0.69815 0.36553 0.0
C805 C 0.71134 0.68979 0.34623 0.0
C806 C 0.72462 0.66082 0.3381 0.0
C807 C 0.74468 0.64139 0.34875 0.0
H808 H 0.94963 0.64818 0.62415 0.0
H809 H 0.87521 0.65508 0.67134 0.0
H810 H 0.01851 0.68294 0.64278 0.0
H811 H 0.94383 0.68994 0.68974 0.0
H812 H 0.06612 0.70535 0.72283 0.0
H813 H 0.99719 0.6713 0.70423 0.0
H814 H 0.07143 0.75473 0.65754 0.0
H815 H 0.14008 0.78842 0.6759 0.0
C816 C 0.94791 0.65738 0.63841 0.0
C817 C 0.90664 0.64877 0.64614 0.0
C818 C 0.98747 0.67741 0.6491 0.0
C819 C 0.98676 0.68913 0.66782 0.0
C820 C 0.94559 0.6808 0.67548 0.0
C821 C 0.90618 0.66103 0.66481 0.0
C822 C 0.06773 0.71667 0.70865 0.0
C823 C 0.10889 0.74979 0.70097 0.0
C824 C 0.02814 0.69718 0.69797 0.0
C825 C 0.02872 0.71011 0.67932 0.0
C826 C 0.06977 0.74343 0.67173 0.0
C827 C 0.1092 0.76303 0.68239 0.0
H828 H 0.76375 0.28626 1.00349 0.0
H829 H 0.6684 0.22643 0.95841 0.0
H830 H 0.70705 0.29361 0.02144 0.0
H831 H 0.61276 0.23501 0.97613 0.0
H832 H 0.5348 0.28904 0.00933 0.0
H833 H 0.59914 0.2973 0.99128 0.0
H834 H 0.62975 0.22962 0.03462 0.0
H835 H 0.56524 0.22004 0.05235 0.0
C836 C 0.73116 0.27549 0.99724 0.0
C837 C 0.72073 0.2557 0.97948 0.0
C838 C 0.69875 0.27966 0.00754 0.0
C839 C 0.65566 0.26503 1.00011 0.0
C840 C 0.64589 0.24709 0.98209 0.0
C841 C 0.67785 0.24206 0.97196 0.0
C842 C 0.55553 0.27638 0.01511 0.0
C843 C 0.54478 0.25396 0.03235 0.0
C844 C 0.59229 0.28109 1.00476 0.0
C845 C 0.61951 0.26436 0.01164 0.0
C846 C 0.60972 0.24342 0.02912 0.0
C847 C 0.57257 0.23785 0.03925 0.0
H848 H 0.24978 0.52624 0.33981 0.0
H849 H 0.34398 0.56688 0.38554 0.0
H850 H 0.30608 0.59024 0.32154 0.0
H851 H 0.39896 0.63087 0.36758 0.0
H852 H 0.47472 0.76217 0.33477 0.0
H853 H 0.40962 0.70483 0.352 0.0
H854 H 0.38574 0.6073 0.30912 0.0
H855 H 0.45116 0.66376 0.29212 0.0
C856 C 0.28199 0.54914 0.3461 0.0
C857 C 0.29221 0.54135 0.36419 0.0
C858 C 0.31418 0.58566 0.33564 0.0
C859 C 0.35669 0.61558 0.34323 0.0
C860 C 0.36624 0.60872 0.36149 0.0
C861 C 0.33462 0.57185 0.37176 0.0
C862 C 0.45531 0.72869 0.32888 0.0
C863 C 0.46834 0.71768 0.31203 0.0
C864 C 0.41808 0.69591 0.33876 0.0
C865 C 0.39262 0.65176 0.33183 0.0
C866 C 0.40443 0.64123 0.31465 0.0
C867 C 0.4421 0.67366 0.30496 0.0
H868 H 0.72215 0.24858 0.67703 0.0
H869 H 0.79349 0.34647 0.72028 0.0
H870 H 0.71461 0.30583 0.65954 0.0
H871 H 0.78473 0.40276 0.70305 0.0
H872 H 0.7291 0.48261 0.67231 0.0
H873 H 0.72187 0.41848 0.69028 0.0
H874 H 0.77731 0.3809 0.6444 0.0
H875 H 0.78579 0.44515 0.62668 0.0
C876 C 0.7355 0.28192 0.68298 0.0
C877 C 0.75844 0.29281 0.70009 0.0
C878 C 0.73121 0.31465 0.67295 0.0
C879 C 0.74892 0.35859 0.68001 0.0
C880 C 0.77025 0.36899 0.6974 0.0
C881 C 0.77536 0.33664 0.70724 0.0
C882 C 0.73923 0.46038 0.66596 0.0
C883 C 0.75799 0.46913 0.64801 0.0
C884 C 0.73516 0.42377 0.67627 0.0
C885 C 0.74884 0.3947 0.66866 0.0
C886 C 0.76595 0.40243 0.6505 0.0
C887 C 0.7709 0.43942 0.64037 0.0
H888 H 0.35207 0.79152 0.9585 0.0
H889 H 0.25334 0.71644 1.00101 0.0
H890 H 0.4083 0.78244 0.97562 0.0
H891 H 0.31042 0.70852 0.01834 0.0
H892 H 0.44762 0.78044 0.05217 0.0
H893 H 0.38387 0.77146 0.03409 0.0
H894 H 0.42548 0.72002 0.98807 0.0
H895 H 0.48925 0.72771 1.00646 0.0
C896 C 0.34205 0.77248 0.97133 0.0
C897 C 0.29801 0.75469 0.97834 0.0
C898 C 0.37434 0.76716 0.98109 0.0
C899 C 0.36365 0.74472 0.99826 0.0
C900 C 0.31947 0.72599 1.00512 0.0
C901 C 0.28684 0.73053 0.99517 0.0
C902 C 0.44291 0.76628 0.03838 0.0
C903 C 0.47362 0.75462 0.03085 0.0
C904 C 0.40618 0.76105 0.02803 0.0
C905 C 0.39968 0.7449 0.00973 0.0
C906 C 0.42979 0.73251 1.00219 0.0
C907 C 0.46617 0.73683 0.01273 0.0
H908 H 0.56877 0.34984 0.29424 0.0
H909 H 0.53339 0.25228 0.3385 0.0
H910 H 0.63285 0.40478 0.31218 0.0
H911 H 0.59737 0.30846 0.35674 0.0
H912 H 0.66821 0.45092 0.38814 0.0
H913 H 0.61231 0.38625 0.37064 0.0
H914 H 0.70863 0.41656 0.32656 0.0
H915 H 0.76554 0.48096 0.34431 0.0
C916 C 0.57492 0.33975 0.30767 0.0
C917 C 0.54588 0.29638 0.31484 0.0
C918 C 0.61183 0.37135 0.31792 0.0
C919 C 0.62015 0.36077 0.33578 0.0
C920 C 0.59165 0.31735 0.34296 0.0
C921 C 0.55513 0.28525 0.3325 0.0
C922 C 0.67802 0.44344 0.37492 0.0
C923 C 0.72155 0.47127 0.36767 0.0
C924 C 0.6459 0.40621 0.36493 0.0
C925 C 0.65622 0.39641 0.3473 0.0
C926 C 0.6999 0.42347 0.34016 0.0
C927 C 0.73243 0.46027 0.35033 0.0
H928 H 0.29404 0.53543 0.66881 0.0
H929 H 0.22212 0.56186 0.62578 0.0
H930 H 0.30141 0.59993 0.68643 0.0
H931 H 0.23069 0.62665 0.64316 0.0
H932 H 0.28604 0.76186 0.67418 0.0
H933 H 0.2933 0.70531 0.65599 0.0
H934 H 0.23867 0.61167 0.70177 0.0
H935 H 0.23016 0.66708 0.7197 0.0
C936 C 0.28051 0.55533 0.66293 0.0
C937 C 0.25746 0.54332 0.64585 0.0
C938 C 0.28471 0.59219 0.67304 0.0
C939 C 0.26678 0.6183 0.66609 0.0
C940 C 0.24534 0.60743 0.64872 0.0
C941 C 0.24034 0.57014 0.6388 0.0
C942 C 0.27609 0.72943 0.68045 0.0
C943 C 0.25756 0.71915 0.69845 0.0
C944 C 0.28017 0.69709 0.67002 0.0
C945 C 0.26674 0.65427 0.67754 0.0
C946 C 0.24983 0.64461 0.69573 0.0
C947 C 0.24487 0.67646 0.70598 0.0
H948 H 0.32987 0.21711 0.12337 0.0
H949 H 0.38723 0.1308 0.13042 0.0
H950 H 0.31965 0.21707 0.15707 0.0
H951 H 0.37665 0.13048 0.16396 0.0
H952 H 0.38984 0.26267 0.21627 0.0
H953 H 0.3783 0.25197 0.18279 0.0
H954 H 0.31893 0.10811 0.19003 0.0
H955 H 0.33012 0.11875 0.22369 0.0
C956 C 0.33924 0.19723 0.13204 0.0
C957 C 0.35954 0.17412 0.12422 0.0
C958 C 0.33366 0.19745 0.15135 0.0
C959 C 0.3475 0.17391 0.16318 0.0
C960 C 0.36527 0.14862 0.15523 0.0
C961 C 0.37152 0.14899 0.136 0.0
C962 C 0.37342 0.22864 0.21078 0.0
C963 C 0.36103 0.19157 0.22265 0.0
C964 C 0.36662 0.2225 0.19159 0.0
C965 C 0.34787 0.17921 0.18375 0.0
C966 C 0.33367 0.1419 0.19567 0.0
C967 C 0.33981 0.14798 0.21495 0.0
H968 H 0.26243 0.38592 0.46226 0.0
H969 H 0.11812 0.32434 0.4564 0.0
H970 H 0.25386 0.37417 0.49575 0.0
H971 H 0.10957 0.31269 0.49009 0.0
H972 H 0.1331 0.37884 0.54992 0.0
H973 H 0.13098 0.36828 0.51636 0.0
H974 H 0.22282 0.31706 0.52156 0.0
H975 H 0.22492 0.32754 0.55527 0.0
C976 C 0.22876 0.36905 0.46809 0.0
C977 C 0.19097 0.35627 0.45665 0.0
C978 C 0.22384 0.36209 0.4873 0.0
C979 C 0.18104 0.34268 0.49562 0.0
C980 C 0.14302 0.32802 0.4841 0.0
C981 C 0.1479 0.33441 0.4648 0.0
C982 C 0.15212 0.36441 0.54398 0.0
C983 C 0.17939 0.35429 0.55529 0.0
C984 C 0.15071 0.35815 0.52472 0.0
C985 C 0.17694 0.34208 0.51626 0.0
C986 C 0.2025 0.32984 0.52766 0.0
C987 C 0.20345 0.33555 0.54698 0.0
H988 H 0.89887 0.21378 0.88909 0.0
H989 H 0.75489 0.12816 0.88316 0.0
H990 H 0.90774 0.21072 0.85544 0.0
H991 H 0.76377 0.12512 0.8497 0.0
H992 H 0.79313 0.1093 0.79012 0.0
H993 H 0.79545 0.10057 0.8238 0.0
H994 H 0.88576 0.24402 0.82922 0.0
H995 H 0.88348 0.25277 0.7957 0.0
C996 C 0.86925 0.19344 0.88069 0.0
C997 C 0.82614 0.17144 0.88881 0.0
C998 C 0.87431 0.19195 0.8614 0.0
C999 C 0.83645 0.16788 0.84986 0.0
C1000 C 0.79368 0.14363 0.85816 0.0
C1001 C 0.78857 0.14559 0.87736 0.0
C1002 C 0.81433 0.1388 0.79845 0.0
C1003 C 0.83789 0.18177 0.79022 0.0
C1004 C 0.8154 0.13383 0.81776 0.0
C1005 C 0.84057 0.17163 0.82922 0.0
C1006 C 0.86634 0.21415 0.82082 0.0
C1007 C 0.86483 0.21919 0.80159 0.0
H1008 H 0.68987 0.79819 0.12358 0.0
H1009 H 0.62714 0.88004 0.12916 0.0
H1010 H 0.70134 0.80154 0.15727 0.0
H1011 H 0.63866 0.88341 0.16266 0.0
H1012 H 0.68502 0.90201 0.22218 0.0
H1013 H 0.69543 0.91014 0.18847 0.0
H1014 H 0.64626 0.76726 0.18361 0.0
H1015 H 0.63582 0.75908 0.21718 0.0
C1016 C 0.67948 0.81775 0.13191 0.0
C1017 C 0.65738 0.83866 0.12368 0.0
C1018 C 0.68577 0.81939 0.15123 0.0
C1019 C 0.67074 0.84257 0.16267 0.0
C1020 C 0.65103 0.86562 0.15427 0.0
C1021 C 0.6442 0.86348 0.13505 0.0
C1022 C 0.67745 0.87253 0.21397 0.0
C1023 C 0.65932 0.82984 0.22239 0.0
C1024 C 0.68311 0.87714 0.19464 0.0
C1025 C 0.6714 0.8393 0.18333 0.0
C1026 C 0.65596 0.79715 0.1919 0.0
C1027 C 0.64977 0.79244 0.21116 0.0
H1028 H 0.79807 0.68832 0.55736 0.0
H1029 H 0.88369 0.63002 0.55107 0.0
H1030 H 0.80078 0.70046 0.52372 0.0
H1031 H 0.88647 0.64225 0.51762 0.0
H1032 H 0.90212 0.6887 0.45816 0.0
H1033 H 0.91086 0.69936 0.49186 0.0
H1034 H 0.7674 0.6448 0.49744 0.0
H1035 H 0.75861 0.63406 0.4639 0.0
C1036 C 0.81835 0.67912 0.54888 0.0
C1037 C 0.84046 0.65798 0.55689 0.0
C1038 C 0.81964 0.68578 0.5296 0.0
C1039 C 0.84366 0.67212 0.51797 0.0
C1040 C 0.86799 0.65355 0.52616 0.0
C1041 C 0.8662 0.64632 0.54535 0.0
C1042 C 0.87261 0.68 0.46653 0.0
C1043 C 0.82963 0.66026 0.45834 0.0
C1044 C 0.87759 0.68582 0.48585 0.0
C1045 C 0.8398 0.67268 0.49735 0.0
C1046 C 0.79725 0.65563 0.489 0.0
C1047 C 0.79219 0.64926 0.46976 0.0
H1048 H 0.11415 0.79011 0.88907 0.0
H1049 H 0.25729 0.88126 0.88339 0.0
H1050 H 0.10527 0.79244 0.8554 0.0
H1051 H 0.24838 0.88355 0.84987 0.0
H1052 H 0.21738 0.89647 0.79002 0.0
H1053 H 0.21461 0.90528 0.82369 0.0
H1054 H 0.13011 0.761 0.82948 0.0
H1055 H 0.13288 0.75218 0.796 0.0
C1056 C 0.14354 0.81149 0.88072 0.0
C1057 C 0.18647 0.83527 0.88892 0.0
C1058 C 0.13849 0.81257 0.86141 0.0
C1059 C 0.17615 0.83795 0.84993 0.0
C1060 C 0.21861 0.86395 0.85829 0.0
C1061 C 0.22374 0.86244 0.87753 0.0
C1062 C 0.19735 0.86676 0.79843 0.0
C1063 C 0.17556 0.8236 0.79032 0.0
C1064 C 0.19603 0.87178 0.81774 0.0
C1065 C 0.17233 0.83382 0.82929 0.0
C1066 C 0.14833 0.79098 0.82101 0.0
C1067 C 0.15013 0.78592 0.80179 0.0
H1068 H 0.59815 0.63327 0.04868 0.0
H1069 H 0.46572 0.59352 0.0702 0.0
H1070 H 0.58135 0.55527 0.05044 0.0
H1071 H 0.44906 0.51531 0.07207 0.0
H1072 H 0.41934 0.37632 0.04885 0.0
H1073 H 0.43587 0.4543 0.05016 0.0
H1074 H 0.56743 0.49492 0.07281 0.0
H1075 H 0.55105 0.41678 0.0714 0.0
C1076 C 0.56551 0.60795 0.0539 0.0
C1077 C 0.5332 0.61973 0.05921 0.0
C1078 C 0.556 0.56321 0.05502 0.0
C1079 C 0.51383 0.52895 0.06137 0.0
C1080 C 0.48171 0.54079 0.06693 0.0
C1081 C 0.49135 0.58567 0.06594 0.0
C1082 C 0.45174 0.40178 0.05421 0.0
C1083 C 0.48396 0.39022 0.05993 0.0
C1084 C 0.46109 0.44651 0.05507 0.0
C1085 C 0.50301 0.48095 0.06155 0.0
C1086 C 0.53499 0.4693 0.06755 0.0
C1087 C 0.5255 0.42445 0.06683 0.0
H1088 H 0.96979 0.59783 0.38212 0.0
H1089 H 0.87928 0.46737 0.40608 0.0
H1090 H 0.03095 0.58094 0.38319 0.0
H1091 H 0.94072 0.45063 0.40722 0.0
H1092 H 0.04632 0.41784 0.3826 0.0
H1093 H 0.98565 0.43525 0.38455 0.0
H1094 H 0.07958 0.56844 0.40504 0.0
H1095 H 0.14059 0.55113 0.40301 0.0
C1096 C 0.96296 0.56563 0.38774 0.0
C1097 C 0.91946 0.53386 0.39393 0.0
C1098 C 0.99817 0.55608 0.38845 0.0
C1099 C 0.99077 0.51438 0.39525 0.0
C1100 C 0.94746 0.48288 0.40172 0.0
C1101 C 0.91228 0.49258 0.40115 0.0
C1102 C 0.05411 0.45081 0.38761 0.0
C1103 C 0.09848 0.48316 0.39257 0.0
C1104 C 0.01919 0.46068 0.38884 0.0
C1105 C 0.0277 0.50326 0.39493 0.0
C1106 C 0.07195 0.53546 0.40011 0.0
C1107 C 0.10688 0.52545 0.39904 0.0
H1108 H 0.60857 0.11058 0.75274 0.0
H1109 H 0.62551 0.06378 0.69923 0.0
H1110 H 0.52988 0.04889 0.75359 0.0
H1111 H 0.54697 1.00318 0.69996 0.0
H1112 H 0.39101 0.94516 0.69945 0.0
H1113 H 0.4698 1.0051 0.70024 0.0
H1114 H 0.4869 0.95639 0.75319 0.0
H1115 H 0.40791 0.89531 0.75226 0.0
C1116 C 0.59552 0.08723 0.74119 0.0
C1117 C 0.62324 0.09209 0.72592 0.0
C1118 C 0.55065 0.05187 0.74173 0.0
C1119 C 0.53244 0.02142 0.72682 0.0
C1120 C 0.56014 0.02632 0.71159 0.0
C1121 C 0.60513 0.06094 0.71122 0.0
C1122 C 0.41146 0.94715 0.71129 0.0
C1123 C 0.39324 0.91539 0.72578 0.0
C1124 C 0.4566 0.9814 0.71169 0.0
C1125 C 0.48436 0.98531 0.72676 0.0
C1126 C 0.4661 0.95415 0.74144 0.0
C1127 C 0.42105 0.91915 0.74085 0.0
H1128 H 0.60828 0.49638 0.59428 0.0
H1129 H 0.62446 0.56184 0.64733 0.0
H1130 H 0.52943 0.47874 0.59315 0.0
H1131 H 0.5458 0.54328 0.64634 0.0
H1132 H 0.39005 0.44681 0.64681 0.0
H1133 H 0.46848 0.46452 0.64628 0.0
H1134 H 0.48675 0.52833 0.59278 0.0
H1135 H 0.40815 0.51155 0.59343 0.0
C1136 C 0.59501 0.50685 0.60569 0.0
C1137 C 0.62258 0.53045 0.62089 0.0
C1138 C 0.55005 0.49697 0.60499 0.0
C1139 C 0.53161 0.50959 0.61968 0.0
C1140 C 0.55913 0.53299 0.63488 0.0
C1141 C 0.60419 0.54372 0.63539 0.0
C1142 C 0.41066 0.46452 0.63489 0.0
C1143 C 0.39291 0.47791 0.62018 0.0
C1144 C 0.45559 0.47476 0.63464 0.0
C1145 C 0.48359 0.49778 0.6195 0.0
C1146 C 0.46574 0.51037 0.60457 0.0
C1147 C 0.42092 0.50098 0.605 0.0
H1148 H 0.11473 0.60529 0.92582 0.0
H1149 H 0.06844 0.6223 0.97943 0.0
H1150 H 0.05261 0.52676 0.92488 0.0
H1151 H 1.00739 0.54394 0.97861 0.0
H1152 H 0.94735 0.38783 0.97911 0.0
H1153 H 1.00781 0.46643 0.97836 0.0
H1154 H 0.96078 0.48411 0.92513 0.0
H1155 H 0.8992 0.40528 0.92599 0.0
C1156 C 0.0914 0.5923 0.93738 0.0
C1157 C 0.09655 0.62 0.9527 0.0
C1158 C 0.05578 0.54751 0.93679 0.0
C1159 C 0.02533 0.52934 0.95169 0.0
C1160 C 0.03051 0.55704 0.96697 0.0
C1161 C 0.06541 0.60195 0.9674 0.0
C1162 C 0.94982 0.40836 0.96721 0.0
C1163 C 0.91837 0.39033 0.95262 0.0
C1164 C 0.98437 0.45341 0.96684 0.0
C1165 C 0.98892 0.4813 0.9517 0.0
C1166 C 0.95808 0.46322 0.93692 0.0
C1167 C 0.92278 0.41826 0.93747 0.0
H1168 H 0.50423 0.9031 0.25966 0.0
H1169 H 0.56583 0.94746 0.31368 0.0
H1170 H 0.48851 0.96571 0.25883 0.0
H1171 H 0.54918 0.00899 0.31296 0.0
H1172 H 0.45352 0.06958 0.31312 0.0
H1173 H 0.47143 0.00896 0.31233 0.0
H1174 H 0.53837 0.05776 0.25961 0.0
H1175 H 0.52134 0.1195 0.26054 0.0
C1176 C 0.51434 0.92611 0.27134 0.0
C1177 C 0.53621 0.92028 0.28675 0.0
C1178 C 0.50557 0.96201 0.27081 0.0
C1179 C 0.51757 0.99206 0.28585 0.0
C1180 C 0.5394 0.98619 0.30122 0.0
C1181 C 0.54903 0.95103 0.30158 0.0
C1182 C 0.47205 0.06749 0.30133 0.0
C1183 C 0.48612 0.09946 0.2869 0.0
C1184 C 0.48241 0.03284 0.30093 0.0
C1185 C 0.50628 0.02871 0.28592 0.0
C1186 C 0.51976 0.06013 0.27131 0.0
C1187 C 0.51023 0.09552 0.27189 0.0
loop_
_geom_bond_atom_site_label_1
_geom_bond_atom_site_label_2
_geom_bond_distance
_geom_bond_site_symmetry_2
_ccdc_geom_bond_type
Co0 O2 2.143 . S
Co0 O8 2.074 . S
Co0 O11 2.093 . S
Co0 O24 2.097 . S
Co0 N41 2.151 . S
Co0 N49 2.214 1_554 S
Co1 O2 2.160 . S
Co1 O7 2.058 . S
Co1 O17 2.057 . S
Co1 O32 2.037 . S
Co1 N36 2.145 . S
Co1 N57 2.257 . S
O2 Co0 2.143 . S
O2 Co1 2.160 . S
C3 O4 1.278 . S
C3 O11 1.224 . S
O4 C3 1.278 . S
C5 O6 1.245 . S
C5 O17 1.232 . S
O6 C5 1.245 . S
O7 Co1 2.058 . S
O7 C33 1.269 . S
O8 Co0 2.074 . S
O8 C33 1.257 . S
H9 C34 0.930 . S
H10 C40 0.930 . S
O11 Co0 2.093 . S
O11 C3 1.224 . S
H12 C44 0.929 . S
H13 C46 0.930 . S
H14 C47 0.930 . S
H15 C45 0.929 . S
H16 C48 0.928 . S
O17 Co1 2.057 . S
O17 C5 1.232 . S
H18 C37 0.929 . S
H19 C38 0.929 . S
H20 C50 0.931 . S
H21 C42 0.929 . S
H22 C51 0.930 . S
H23 C43 0.931 . S
O24 Co0 2.097 . S
O24 C52 1.214 . S
H25 C53 0.929 . S
H26 C54 0.929 . S
H27 C55 0.930 . S
H28 C56 0.929 . S
H29 C58 0.930 . S
H30 C35 0.930 . S
H31 C39 0.930 . S
O32 Co1 2.037 . S
O32 C52 1.234 . S
C33 O7 1.269 . S
C33 O8 1.257 . S
C34 H9 0.930 . S
C34 C37 1.388 . S
C34 C39 1.418 . S
C35 H30 0.930 . S
C35 C38 1.404 . S
C35 C39 1.353 . S
N36 Co1 2.145 . S
N36 C37 1.397 . S
N36 C38 1.334 . S
C37 H18 0.929 . S
C37 C34 1.388 . S
C37 N36 1.397 . S
C38 H19 0.929 . S
C38 C35 1.404 . S
C38 N36 1.334 . S
C39 H31 0.930 . S
C39 C34 1.418 . S
C39 C35 1.353 . S
C40 H10 0.930 . S
C40 N41 1.330 . S
C40 C42 1.446 . S
N41 Co0 2.151 . S
N41 C40 1.330 . S
N41 C45 1.418 . S
C42 H21 0.929 . S
C42 C40 1.446 . S
C42 C43 1.332 . S
C43 H23 0.931 . S
C43 C42 1.332 . S
C43 C44 1.267 . S
C44 H12 0.929 . S
C44 C43 1.267 . S
C44 C45 1.251 . S
C45 H15 0.929 . S
C45 N41 1.418 . S
C45 C44 1.251 . S
C46 H13 0.930 . S
C46 C48 1.406 . S
C46 C51 1.261 . S
C47 H14 0.930 . S
C47 N49 1.325 . S
C47 C50 1.357 . S
C48 H16 0.928 . S
C48 C46 1.406 . S
C48 N49 1.261 . S
N49 Co0 2.214 1_556 S
N49 C47 1.325 . S
N49 C48 1.261 . S
C50 H20 0.931 . S
C50 C47 1.357 . S
C50 C51 1.312 . S
C51 H22 0.930 . S
C51 C46 1.261 . S
C51 C50 1.312 . S
C52 O24 1.214 . S
C52 O32 1.234 . S
C53 H25 0.929 . S
C53 C56 1.391 . S
C53 C58 1.391 . S
C54 H26 0.929 . S
C54 C55 1.390 . S
C54 N57 1.391 . S
C55 H27 0.930 . S
C55 C54 1.390 . S
C55 C56 1.392 . S
C56 H28 0.929 . S
C56 C53 1.391 . S
C56 C55 1.392 . S
N57 Co1 2.257 . S
N57 C54 1.391 . S
N57 C58 1.388 . S
C58 H29 0.930 . S
C58 C53 1.391 . S
C58 N57 1.388 . S
Co59 O61 2.143 . S
Co59 O67 2.074 . S
Co59 O70 2.093 . S
Co59 O83 2.097 . S
Co59 N100 2.151 . S
Co59 N108 2.214 . S
Co60 O61 2.160 . S
Co60 O66 2.058 . S
Co60 O76 2.057 . S
Co60 O91 2.037 . S
Co60 N95 2.145 . S
Co60 N116 2.257 . S
O61 Co59 2.143 . S
O61 Co60 2.160 . S
C62 O63 1.278 . S
C62 O70 1.224 . S
O63 C62 1.278 . S
C64 O65 1.245 . S
C64 O76 1.232 . S
O65 C64 1.245 . S
O66 Co60 2.058 . S
O66 C92 1.269 . S
O67 Co59 2.074 . S
O67 C92 1.257 . S
H68 C93 0.930 . S
H69 C99 0.930 . S
O70 Co59 2.093 . S
O70 C62 1.224 . S
H71 C103 0.929 . S
H72 C105 0.930 . S
H73 C106 0.930 . S
H74 C104 0.929 . S
H75 C107 0.928 . S
O76 Co60 2.057 . S
O76 C64 1.232 . S
H77 C96 0.929 . S
H78 C97 0.929 . S
H79 C109 0.931 . S
H80 C101 0.929 1_655 S
H81 C110 0.930 . S
H82 C102 0.931 1_655 S
O83 Co59 2.097 . S
O83 C111 1.214 . S
H84 C112 0.929 . S
H85 C113 0.929 . S
H86 C114 0.930 . S
H87 C115 0.929 . S
H88 C117 0.930 . S
H89 C94 0.930 . S
H90 C98 0.930 . S
O91 Co60 2.037 . S
O91 C111 1.234 . S
C92 O66 1.269 . S
C92 O67 1.257 . S
C93 H68 0.930 . S
C93 C96 1.388 . S
C93 C98 1.418 . S
C94 H89 0.930 . S
C94 C97 1.404 . S
C94 C98 1.353 . S
N95 Co60 2.145 . S
N95 C96 1.397 . S
N95 C97 1.334 . S
C96 H77 0.929 . S
C96 C93 1.388 . S
C96 N95 1.397 . S
C97 H78 0.929 . S
C97 C94 1.404 . S
C97 N95 1.334 . S
C98 H90 0.930 . S
C98 C93 1.418 . S
C98 C94 1.353 . S
C99 H69 0.930 . S
C99 N100 1.330 . S
C99 C101 1.446 . S
N100 Co59 2.151 . S
N100 C99 1.330 . S
N100 C104 1.418 . S
C101 H80 0.929 1_455 S
C101 C99 1.446 . S
C101 C102 1.332 . S
C102 H82 0.931 1_455 S
C102 C101 1.332 . S
C102 C103 1.267 . S
C103 H71 0.929 . S
C103 C102 1.267 . S
C103 C104 1.251 . S
C104 H74 0.929 . S
C104 N100 1.418 . S
C104 C103 1.251 . S
C105 H72 0.930 . S
C105 C107 1.406 . S
C105 C110 1.261 . S
C106 H73 0.930 . S
C106 N108 1.325 . S
C106 C109 1.357 . S
C107 H75 0.928 . S
C107 C105 1.406 . S
C107 N108 1.261 . S
N108 Co59 2.214 . S
N108 C106 1.325 . S
N108 C107 1.261 . S
C109 H79 0.931 . S
C109 C106 1.357 . S
C109 C110 1.312 . S
C110 H81 0.930 . S
C110 C105 1.261 . S
C110 C109 1.312 . S
C111 O83 1.214 . S
C111 O91 1.234 . S
C112 H84 0.929 . S
C112 C115 1.391 . S
C112 C117 1.391 . S
C113 H85 0.929 . S
C113 C114 1.390 . S
C113 N116 1.391 . S
C114 H86 0.930 . S
C114 C113 1.390 . S
C114 C115 1.392 . S
C115 H87 0.929 . S
C115 C112 1.391 . S
C115 C114 1.392 . S
N116 Co60 2.257 . S
N116 C113 1.391 . S
N116 C117 1.388 . S
C117 H88 0.930 . S
C117 C112 1.391 . S
C117 N116 1.388 . S
Co118 O120 2.143 . S
Co118 O126 2.074 . S
Co118 O129 2.093 . S
Co118 O142 2.097 . S
Co118 N159 2.151 . S
Co118 N167 2.214 . S
Co119 O120 2.160 . S
Co119 O125 2.058 . S
Co119 O135 2.057 . S
Co119 O150 2.037 . S
Co119 N154 2.145 . S
Co119 N175 2.257 . S
O120 Co118 2.143 . S
O120 Co119 2.160 . S
C121 O122 1.278 . S
C121 O129 1.224 . S
O122 C121 1.278 . S
C123 O124 1.245 . S
C123 O135 1.232 . S
O124 C123 1.245 . S
O125 Co119 2.058 . S
O125 C151 1.269 . S
O126 Co118 2.074 . S
O126 C151 1.257 . S
H127 C152 0.930 . S
H128 C158 0.930 . S
O129 Co118 2.093 . S
O129 C121 1.224 . S
H130 C162 0.929 . S
H131 C164 0.930 . S
H132 C165 0.930 . S
H133 C163 0.929 . S
H134 C166 0.928 . S
O135 Co119 2.057 . S
O135 C123 1.232 . S
H136 C155 0.929 . S
H137 C156 0.929 . S
H138 C168 0.931 . S
H139 C160 0.929 1_565 S
H140 C169 0.930 . S
H141 C161 0.931 1_565 S
O142 Co118 2.097 . S
O142 C170 1.214 . S
H143 C171 0.929 . S
H144 C172 0.929 . S
H145 C173 0.930 . S
H146 C174 0.929 . S
H147 C176 0.930 . S
H148 C153 0.930 . S
H149 C157 0.930 . S
O150 Co119 2.037 . S
O150 C170 1.234 . S
C151 O125 1.269 . S
C151 O126 1.257 . S
C152 H127 0.930 . S
C152 C155 1.388 . S
C152 C157 1.418 . S
C153 H148 0.930 . S
C153 C156 1.404 . S
C153 C157 1.353 . S
N154 Co119 2.145 . S
N154 C155 1.397 . S
N154 C156 1.334 . S
C155 H136 0.929 . S
C155 C152 1.388 . S
C155 N154 1.397 . S
C156 H137 0.929 . S
C156 C153 1.404 . S
C156 N154 1.334 . S
C157 H149 0.930 . S
C157 C152 1.418 . S
C157 C153 1.353 . S
C158 H128 0.930 . S
C158 N159 1.330 . S
C158 C160 1.446 . S
N159 Co118 2.151 . S
N159 C158 1.330 . S
N159 C163 1.418 . S
C160 H139 0.929 1_545 S
C160 C158 1.446 . S
C160 C161 1.332 . S
C161 H141 0.931 1_545 S
C161 C160 1.332 . S
C161 C162 1.267 . S
C162 H130 0.929 . S
C162 C161 1.267 . S
C162 C163 1.251 . S
C163 H133 0.929 . S
C163 N159 1.418 . S
C163 C162 1.251 . S
C164 H131 0.930 . S
C164 C166 1.406 . S
C164 C169 1.261 . S
C165 H132 0.930 . S
C165 N167 1.325 . S
C165 C168 1.357 . S
C166 H134 0.928 . S
C166 C164 1.406 . S
C166 N167 1.261 . S
N167 Co118 2.214 . S
N167 C165 1.325 . S
N167 C166 1.261 . S
C168 H138 0.931 . S
C168 C165 1.357 . S
C168 C169 1.312 . S
C169 H140 0.930 . S
C169 C164 1.261 . S
C169 C168 1.312 . S
C170 O142 1.214 . S
C170 O150 1.234 . S
C171 H143 0.929 . S
C171 C174 1.391 . S
C171 C176 1.391 . S
C172 H144 0.929 . S
C172 C173 1.390 . S
C172 N175 1.391 . S
C173 H145 0.930 . S
C173 C172 1.390 . S
C173 C174 1.392 . S
C174 H146 0.929 . S
C174 C171 1.391 . S
C174 C173 1.392 . S
N175 Co119 2.257 . S
N175 C172 1.391 . S
N175 C176 1.388 . S
C176 H147 0.930 . S
C176 C171 1.391 . S
C176 N175 1.388 . S
Co177 O179 2.143 . S
Co177 O185 2.074 . S
Co177 O188 2.093 . S
Co177 O201 2.097 . S
Co177 N218 2.151 . S
Co177 N226 2.214 1_554 S
Co178 O179 2.160 . S
Co178 O184 2.058 . S
Co178 O194 2.057 . S
Co178 O209 2.037 . S
Co178 N213 2.145 . S
Co178 N234 2.257 . S
O179 Co177 2.143 . S
O179 Co178 2.160 . S
C180 O181 1.278 . S
C180 O188 1.224 . S
O181 C180 1.278 . S
C182 O183 1.245 . S
C182 O194 1.232 . S
O183 C182 1.245 . S
O184 Co178 2.058 . S
O184 C210 1.269 . S
O185 Co177 2.074 . S
O185 C210 1.257 . S
H186 C211 0.930 . S
H187 C217 0.930 . S
O188 Co177 2.093 . S
O188 C180 1.224 . S
H189 C221 0.929 . S
H190 C223 0.930 . S
H191 C224 0.930 . S
H192 C222 0.929 . S
H193 C225 0.928 . S
O194 Co178 2.057 . S
O194 C182 1.232 . S
H195 C214 0.929 . S
H196 C215 0.929 . S
H197 C227 0.931 . S
H198 C219 0.929 . S
H199 C228 0.930 . S
H200 C220 0.931 . S
O201 Co177 2.097 . S
O201 C229 1.214 . S
H202 C230 0.929 . S
H203 C231 0.929 . S
H204 C232 0.930 . S
H205 C233 0.929 . S
H206 C235 0.930 . S
H207 C212 0.930 . S
H208 C216 0.930 . S
O209 Co178 2.037 . S
O209 C229 1.234 . S
C210 O184 1.269 . S
C210 O185 1.257 . S
C211 H186 0.930 . S
C211 C214 1.388 . S
C211 C216 1.418 . S
C212 H207 0.930 . S
C212 C215 1.404 . S
C212 C216 1.353 . S
N213 Co178 2.145 . S
N213 C214 1.397 . S
N213 C215 1.334 . S
C214 H195 0.929 . S
C214 C211 1.388 . S
C214 N213 1.397 . S
C215 H196 0.929 . S
C215 C212 1.404 . S
C215 N213 1.334 . S
C216 H208 0.930 . S
C216 C211 1.418 . S
C216 C212 1.353 . S
C217 H187 0.930 . S
C217 N218 1.330 . S
C217 C219 1.446 . S
N218 Co177 2.151 . S
N218 C217 1.330 . S
N218 C222 1.418 . S
C219 H198 0.929 . S
C219 C217 1.446 . S
C219 C220 1.332 . S
C220 H200 0.931 . S
C220 C219 1.332 . S
C220 C221 1.267 . S
C221 H189 0.929 . S
C221 C220 1.267 . S
C221 C222 1.251 . S
C222 H192 0.929 . S
C222 N218 1.418 . S
C222 C221 1.251 . S
C223 H190 0.930 . S
C223 C225 1.406 . S
C223 C228 1.261 . S
C224 H191 0.930 . S
C224 N226 1.325 . S
C224 C227 1.357 . S
C225 H193 0.928 . S
C225 C223 1.406 . S
C225 N226 1.261 . S
N226 Co177 2.214 1_556 S
N226 C224 1.325 . S
N226 C225 1.261 . S
C227 H197 0.931 . S
C227 C224 1.357 . S
C227 C228 1.312 . S
C228 H199 0.930 . S
C228 C223 1.261 . S
C228 C227 1.312 . S
C229 O201 1.214 . S
C229 O209 1.234 . S
C230 H202 0.929 . S
C230 C233 1.391 . S
C230 C235 1.391 . S
C231 H203 0.929 . S
C231 C232 1.390 . S
C231 N234 1.391 . S
C232 H204 0.930 . S
C232 C231 1.390 . S
C232 C233 1.392 . S
C233 H205 0.929 . S
C233 C230 1.391 . S
C233 C232 1.392 . S
N234 Co178 2.257 . S
N234 C231 1.391 . S
N234 C235 1.388 . S
C235 H206 0.930 . S
C235 C230 1.391 . S
C235 N234 1.388 . S
Co236 O238 2.143 . S
Co236 O244 2.074 . S
Co236 O247 2.093 . S
Co236 O260 2.097 . S
Co236 N277 2.151 . S
Co236 N285 2.214 . S
Co237 O238 2.160 . S
Co237 O243 2.058 . S
Co237 O253 2.057 . S
Co237 O268 2.037 . S
Co237 N272 2.145 . S
Co237 N293 2.257 . S
O238 Co236 2.143 . S
O238 Co237 2.160 . S
C239 O240 1.278 . S
C239 O247 1.224 . S
O240 C239 1.278 . S
C241 O242 1.245 . S
C241 O253 1.232 . S
O242 C241 1.245 . S
O243 Co237 2.058 . S
O243 C269 1.269 . S
O244 Co236 2.074 . S
O244 C269 1.257 . S
H245 C270 0.930 . S
H246 C276 0.930 . S
O247 Co236 2.093 . S
O247 C239 1.224 . S
H248 C280 0.929 . S
H249 C282 0.930 . S
H250 C283 0.930 . S
H251 C281 0.929 . S
H252 C284 0.928 . S
O253 Co237 2.057 . S
O253 C241 1.232 . S
H254 C273 0.929 . S
H255 C274 0.929 . S
H256 C286 0.931 . S
H257 C278 0.929 1_455 S
H258 C287 0.930 . S
H259 C279 0.931 1_455 S
O260 Co236 2.097 . S
O260 C288 1.214 . S
H261 C289 0.929 . S
H262 C290 0.929 . S
H263 C291 0.930 . S
H264 C292 0.929 . S
H265 C294 0.930 . S
H266 C271 0.930 . S
H267 C275 0.930 . S
O268 Co237 2.037 . S
O268 C288 1.234 . S
C269 O243 1.269 . S
C269 O244 1.257 . S
C270 H245 0.930 . S
C270 C273 1.388 . S
C270 C275 1.418 . S
C271 H266 0.930 . S
C271 C274 1.404 . S
C271 C275 1.353 . S
N272 Co237 2.145 . S
N272 C273 1.397 . S
N272 C274 1.334 . S
C273 H254 0.929 . S
C273 C270 1.388 . S
C273 N272 1.397 . S
C274 H255 0.929 . S
C274 C271 1.404 . S
C274 N272 1.334 . S
C275 H267 0.930 . S
C275 C270 1.418 . S
C275 C271 1.353 . S
C276 H246 0.930 . S
C276 N277 1.330 . S
C276 C278 1.446 . S
N277 Co236 2.151 . S
N277 C276 1.330 . S
N277 C281 1.418 . S
C278 H257 0.929 1_655 S
C278 C276 1.446 . S
C278 C279 1.332 . S
C279 H259 0.931 1_655 S
C279 C278 1.332 . S
C279 C280 1.267 . S
C280 H248 0.929 . S
C280 C279 1.267 . S
C280 C281 1.251 . S
C281 H251 0.929 . S
C281 N277 1.418 . S
C281 C280 1.251 . S
C282 H249 0.930 . S
C282 C284 1.406 . S
C282 C287 1.261 . S
C283 H250 0.930 . S
C283 N285 1.325 . S
C283 C286 1.357 . S
C284 H252 0.928 . S
C284 C282 1.406 . S
C284 N285 1.261 . S
N285 Co236 2.214 . S
N285 C283 1.325 . S
N285 C284 1.261 . S
C286 H256 0.931 . S
C286 C283 1.357 . S
C286 C287 1.312 . S
C287 H258 0.930 . S
C287 C282 1.261 . S
C287 C286 1.312 . S
C288 O260 1.214 . S
C288 O268 1.234 . S
C289 H261 0.929 . S
C289 C292 1.391 . S
C289 C294 1.391 . S
C290 H262 0.929 . S
C290 C291 1.390 . S
C290 N293 1.391 . S
C291 H263 0.930 . S
C291 C290 1.390 . S
C291 C292 1.392 . S
C292 H264 0.929 . S
C292 C289 1.391 . S
C292 C291 1.392 . S
N293 Co237 2.257 . S
N293 C290 1.391 . S
N293 C294 1.388 . S
C294 H265 0.930 . S
C294 C289 1.391 . S
C294 N293 1.388 . S
Co295 O297 2.143 . S
Co295 O303 2.074 . S
Co295 O306 2.093 . S
Co295 O319 2.097 . S
Co295 N336 2.151 . S
Co295 N344 2.214 . S
Co296 O297 2.160 . S
Co296 O302 2.058 . S
Co296 O312 2.057 . S
Co296 O327 2.037 . S
Co296 N331 2.145 . S
Co296 N352 2.257 . S
O297 Co295 2.143 . S
O297 Co296 2.160 . S
C298 O299 1.278 . S
C298 O306 1.224 . S
O299 C298 1.278 . S
C300 O301 1.245 . S
C300 O312 1.232 . S
O301 C300 1.245 . S
O302 Co296 2.058 . S
O302 C328 1.269 . S
O303 Co295 2.074 . S
O303 C328 1.257 . S
H304 C329 0.930 . S
H305 C335 0.930 . S
O306 Co295 2.093 . S
O306 C298 1.224 . S
H307 C339 0.929 . S
H308 C341 0.930 . S
H309 C342 0.930 . S
H310 C340 0.929 . S
H311 C343 0.928 . S
O312 Co296 2.057 . S
O312 C300 1.232 . S
H313 C332 0.929 . S
H314 C333 0.929 . S
H315 C345 0.931 . S
H316 C337 0.929 1_545 S
H317 C346 0.930 . S
H318 C338 0.931 1_545 S
O319 Co295 2.097 . S
O319 C347 1.214 . S
H320 C348 0.929 . S
H321 C349 0.929 . S
H322 C350 0.930 . S
H323 C351 0.929 . S
H324 C353 0.930 . S
H325 C330 0.930 . S
H326 C334 0.930 . S
O327 Co296 2.037 . S
O327 C347 1.234 . S
C328 O302 1.269 . S
C328 O303 1.257 . S
C329 H304 0.930 . S
C329 C332 1.388 . S
C329 C334 1.418 . S
C330 H325 0.930 . S
C330 C333 1.404 . S
C330 C334 1.353 . S
N331 Co296 2.145 . S
N331 C332 1.397 . S
N331 C333 1.334 . S
C332 H313 0.929 . S
C332 C329 1.388 . S
C332 N331 1.397 . S
C333 H314 0.929 . S
C333 C330 1.404 . S
C333 N331 1.334 . S
C334 H326 0.930 . S
C334 C329 1.418 . S
C334 C330 1.353 . S
C335 H305 0.930 . S
C335 N336 1.330 . S
C335 C337 1.446 . S
N336 Co295 2.151 . S
N336 C335 1.330 . S
N336 C340 1.418 . S
C337 H316 0.929 1_565 S
C337 C335 1.446 . S
C337 C338 1.332 . S
C338 H318 0.931 1_565 S
C338 C337 1.332 . S
C338 C339 1.267 . S
C339 H307 0.929 . S
C339 C338 1.267 . S
C339 C340 1.251 . S
C340 H310 0.929 . S
C340 N336 1.418 . S
C340 C339 1.251 . S
C341 H308 0.930 . S
C341 C343 1.406 . S
C341 C346 1.261 . S
C342 H309 0.930 . S
C342 N344 1.325 . S
C342 C345 1.357 . S
C343 H311 0.928 . S
C343 C341 1.406 . S
C343 N344 1.261 . S
N344 Co295 2.214 . S
N344 C342 1.325 . S
N344 C343 1.261 . S
C345 H315 0.931 . S
C345 C342 1.357 . S
C345 C346 1.312 . S
C346 H317 0.930 . S
C346 C341 1.261 . S
C346 C345 1.312 . S
C347 O319 1.214 . S
C347 O327 1.234 . S
C348 H320 0.929 . S
C348 C351 1.391 . S
C348 C353 1.391 . S
C349 H321 0.929 . S
C349 C350 1.390 . S
C349 N352 1.391 . S
C350 H322 0.930 . S
C350 C349 1.390 . S
C350 C351 1.392 . S
C351 H323 0.929 . S
C351 C348 1.391 . S
C351 C350 1.392 . S
N352 Co296 2.257 . S
N352 C349 1.391 . S
N352 C353 1.388 . S
C353 H324 0.930 . S
C353 C348 1.391 . S
C353 N352 1.388 . S
Co354 O356 2.143 . S
Co354 O362 2.074 . S
Co354 O365 2.093 . S
Co354 O378 2.097 . S
Co354 N395 2.151 . S
Co354 N403 2.214 . S
Co355 O356 2.160 . S
Co355 O361 2.058 . S
Co355 O371 2.057 . S
Co355 O386 2.037 . S
Co355 N390 2.145 . S
Co355 N411 2.257 . S
O356 Co354 2.143 . S
O356 Co355 2.160 . S
C357 O358 1.278 . S
C357 O365 1.224 . S
O358 C357 1.278 . S
C359 O360 1.245 . S
C359 O371 1.232 . S
O360 C359 1.245 . S
O361 Co355 2.058 . S
O361 C387 1.269 . S
O362 Co354 2.074 . S
O362 C387 1.257 . S
H363 C388 0.930 . S
H364 C394 0.930 . S
O365 Co354 2.093 . S
O365 C357 1.224 . S
H366 C398 0.929 . S
H367 C400 0.930 . S
H368 C401 0.930 . S
H369 C399 0.929 . S
H370 C402 0.928 . S
O371 Co355 2.057 . S
O371 C359 1.232 . S
H372 C391 0.929 . S
H373 C392 0.929 . S
H374 C404 0.931 . S
H375 C396 0.929 . S
H376 C405 0.930 . S
H377 C397 0.931 . S
O378 Co354 2.097 . S
O378 C406 1.214 . S
H379 C407 0.929 . S
H380 C408 0.929 . S
H381 C409 0.930 . S
H382 C410 0.929 . S
H383 C412 0.930 . S
H384 C389 0.930 . S
H385 C393 0.930 . S
O386 Co355 2.037 . S
O386 C406 1.234 . S
C387 O361 1.269 . S
C387 O362 1.257 . S
C388 H363 0.930 . S
C388 C391 1.388 . S
C388 C393 1.418 . S
C389 H384 0.930 . S
C389 C392 1.404 . S
C389 C393 1.353 . S
N390 Co355 2.145 . S
N390 C391 1.397 . S
N390 C392 1.334 . S
C391 H372 0.929 . S
C391 C388 1.388 . S
C391 N390 1.397 . S
C392 H373 0.929 . S
C392 C389 1.404 . S
C392 N390 1.334 . S
C393 H385 0.930 . S
C393 C388 1.418 . S
C393 C389 1.353 . S
C394 H364 0.930 . S
C394 N395 1.330 . S
C394 C396 1.446 . S
N395 Co354 2.151 . S
N395 C394 1.330 . S
N395 C399 1.418 . S
C396 H375 0.929 . S
C396 C394 1.446 . S
C396 C397 1.332 . S
C397 H377 0.931 . S
C397 C396 1.332 . S
C397 C398 1.267 . S
C398 H366 0.929 . S
C398 C397 1.267 . S
C398 C399 1.251 . S
C399 H369 0.929 . S
C399 N395 1.418 . S
C399 C398 1.251 . S
C400 H367 0.930 . S
C400 C402 1.406 . S
C400 C405 1.261 . S
C401 H368 0.930 . S
C401 N403 1.325 . S
C401 C404 1.357 . S
C402 H370 0.928 . S
C402 C400 1.406 . S
C402 N403 1.261 . S
N403 Co354 2.214 . S
N403 C401 1.325 . S
N403 C402 1.261 . S
C404 H374 0.931 . S
C404 C401 1.357 . S
C404 C405 1.312 . S
C405 H376 0.930 . S
C405 C400 1.261 . S
C405 C404 1.312 . S
C406 O378 1.214 . S
C406 O386 1.234 . S
C407 H379 0.929 . S
C407 C410 1.391 . S
C407 C412 1.391 . S
C408 H380 0.929 . S
C408 C409 1.390 . S
C408 N411 1.391 . S
C409 H381 0.930 . S
C409 C408 1.390 . S
C409 C410 1.392 . S
C410 H382 0.929 . S
C410 C407 1.391 . S
C410 C409 1.392 . S
N411 Co355 2.257 . S
N411 C408 1.391 . S
N411 C412 1.388 . S
C412 H383 0.930 . S
C412 C407 1.391 . S
C412 N411 1.388 . S
Co413 O415 2.143 . S
Co413 O421 2.074 . S
Co413 O424 2.093 . S
Co413 O437 2.097 . S
Co413 N454 2.151 . S
Co413 N462 2.214 1_556 S
Co414 O415 2.160 . S
Co414 O420 2.058 . S
Co414 O430 2.057 . S
Co414 O445 2.037 . S
Co414 N449 2.145 . S
Co414 N470 2.257 . S
O415 Co413 2.143 . S
O415 Co414 2.160 . S
C416 O417 1.278 . S
C416 O424 1.224 . S
O417 C416 1.278 . S
C418 O419 1.245 . S
C418 O430 1.232 . S
O419 C418 1.245 . S
O420 Co414 2.058 . S
O420 C446 1.269 . S
O421 Co413 2.074 . S
O421 C446 1.257 . S
H422 C447 0.930 . S
H423 C453 0.930 . S
O424 Co413 2.093 . S
O424 C416 1.224 . S
H425 C457 0.929 . S
H426 C459 0.930 . S
H427 C460 0.930 . S
H428 C458 0.929 . S
H429 C461 0.928 . S
O430 Co414 2.057 . S
O430 C418 1.232 . S
H431 C450 0.929 . S
H432 C451 0.929 . S
H433 C463 0.931 . S
H434 C455 0.929 1_655 S
H435 C464 0.930 . S
H436 C456 0.931 1_655 S
O437 Co413 2.097 . S
O437 C465 1.214 . S
H438 C466 0.929 . S
H439 C467 0.929 . S
H440 C468 0.930 . S
H441 C469 0.929 . S
H442 C471 0.930 . S
H443 C448 0.930 . S
H444 C452 0.930 . S
O445 Co414 2.037 . S
O445 C465 1.234 . S
C446 O420 1.269 . S
C446 O421 1.257 . S
C447 H422 0.930 . S
C447 C450 1.388 . S
C447 C452 1.418 . S
C448 H443 0.930 . S
C448 C451 1.404 . S
C448 C452 1.353 . S
N449 Co414 2.145 . S
N449 C450 1.397 . S
N449 C451 1.334 . S
C450 H431 0.929 . S
C450 C447 1.388 . S
C450 N449 1.397 . S
C451 H432 0.929 . S
C451 C448 1.404 . S
C451 N449 1.334 . S
C452 H444 0.930 . S
C452 C447 1.418 . S
C452 C448 1.353 . S
C453 H423 0.930 . S
C453 N454 1.330 . S
C453 C455 1.446 . S
N454 Co413 2.151 . S
N454 C453 1.330 . S
N454 C458 1.418 . S
C455 H434 0.929 1_455 S
C455 C453 1.446 . S
C455 C456 1.332 . S
C456 H436 0.931 1_455 S
C456 C455 1.332 . S
C456 C457 1.267 . S
C457 H425 0.929 . S
C457 C456 1.267 . S
C457 C458 1.251 . S
C458 H428 0.929 . S
C458 N454 1.418 . S
C458 C457 1.251 . S
C459 H426 0.930 . S
C459 C461 1.406 . S
C459 C464 1.261 . S
C460 H427 0.930 . S
C460 N462 1.325 . S
C460 C463 1.357 . S
C461 H429 0.928 . S
C461 C459 1.406 . S
C461 N462 1.261 . S
N462 Co413 2.214 1_554 S
N462 C460 1.325 . S
N462 C461 1.261 . S
C463 H433 0.931 . S
C463 C460 1.357 . S
C463 C464 1.312 . S
C464 H435 0.930 . S
C464 C459 1.261 . S
C464 C463 1.312 . S
C465 O437 1.214 . S
C465 O445 1.234 . S
C466 H438 0.929 . S
C466 C469 1.391 . S
C466 C471 1.391 . S
C467 H439 0.929 . S
C467 C468 1.390 . S
C467 N470 1.391 . S
C468 H440 0.930 . S
C468 C467 1.390 . S
C468 C469 1.392 . S
C469 H441 0.929 . S
C469 C466 1.391 . S
C469 C468 1.392 . S
N470 Co414 2.257 . S
N470 C467 1.391 . S
N470 C471 1.388 . S
C471 H442 0.930 . S
C471 C466 1.391 . S
C471 N470 1.388 . S
Co472 O474 2.143 . S
Co472 O480 2.074 . S
Co472 O483 2.093 . S
Co472 O496 2.097 . S
Co472 N513 2.151 . S
Co472 N521 2.214 . S
Co473 O474 2.160 . S
Co473 O479 2.058 . S
Co473 O489 2.057 . S
Co473 O504 2.037 . S
Co473 N508 2.145 . S
Co473 N529 2.257 . S
O474 Co472 2.143 . S
O474 Co473 2.160 . S
C475 O476 1.278 . S
C475 O483 1.224 . S
O476 C475 1.278 . S
C477 O478 1.245 . S
C477 O489 1.232 . S
O478 C477 1.245 . S
O479 Co473 2.058 . S
O479 C505 1.269 . S
O480 Co472 2.074 . S
O480 C505 1.257 . S
H481 C506 0.930 . S
H482 C512 0.930 . S
O483 Co472 2.093 . S
O483 C475 1.224 . S
H484 C516 0.929 . S
H485 C518 0.930 . S
H486 C519 0.930 . S
H487 C517 0.929 . S
H488 C520 0.928 . S
O489 Co473 2.057 . S
O489 C477 1.232 . S
H490 C509 0.929 . S
H491 C510 0.929 . S
H492 C522 0.931 . S
H493 C514 0.929 1_565 S
H494 C523 0.930 . S
H495 C515 0.931 1_565 S
O496 Co472 2.097 . S
O496 C524 1.214 . S
H497 C525 0.929 . S
H498 C526 0.929 . S
H499 C527 0.930 . S
H500 C528 0.929 . S
H501 C530 0.930 . S
H502 C507 0.930 . S
H503 C511 0.930 . S
O504 Co473 2.037 . S
O504 C524 1.234 . S
C505 O479 1.269 . S
C505 O480 1.257 . S
C506 H481 0.930 . S
C506 C509 1.388 . S
C506 C511 1.418 . S
C507 H502 0.930 . S
C507 C510 1.404 . S
C507 C511 1.353 . S
N508 Co473 2.145 . S
N508 C509 1.397 . S
N508 C510 1.334 . S
C509 H490 0.929 . S
C509 C506 1.388 . S
C509 N508 1.397 . S
C510 H491 0.929 . S
C510 C507 1.404 . S
C510 N508 1.334 . S
C511 H503 0.930 . S
C511 C506 1.418 . S
C511 C507 1.353 . S
C512 H482 0.930 . S
C512 N513 1.330 . S
C512 C514 1.446 . S
N513 Co472 2.151 . S
N513 C512 1.330 . S
N513 C517 1.418 . S
C514 H493 0.929 1_545 S
C514 C512 1.446 . S
C514 C515 1.332 . S
C515 H495 0.931 1_545 S
C515 C514 1.332 . S
C515 C516 1.267 . S
C516 H484 0.929 . S
C516 C515 1.267 . S
C516 C517 1.251 . S
C517 H487 0.929 . S
C517 N513 1.418 . S
C517 C516 1.251 . S
C518 H485 0.930 . S
C518 C520 1.406 . S
C518 C523 1.261 . S
C519 H486 0.930 . S
C519 N521 1.325 . S
C519 C522 1.357 . S
C520 H488 0.928 . S
C520 C518 1.406 . S
C520 N521 1.261 . S
N521 Co472 2.214 . S
N521 C519 1.325 . S
N521 C520 1.261 . S
C522 H492 0.931 . S
C522 C519 1.357 . S
C522 C523 1.312 . S
C523 H494 0.930 . S
C523 C518 1.261 . S
C523 C522 1.312 . S
C524 O496 1.214 . S
C524 O504 1.234 . S
C525 H497 0.929 . S
C525 C528 1.391 . S
C525 C530 1.391 . S
C526 H498 0.929 . S
C526 C527 1.390 . S
C526 N529 1.391 . S
C527 H499 0.930 . S
C527 C526 1.390 . S
C527 C528 1.392 . S
C528 H500 0.929 . S
C528 C525 1.391 . S
C528 C527 1.392 . S
N529 Co473 2.257 . S
N529 C526 1.391 . S
N529 C530 1.388 . S
C530 H501 0.930 . S
C530 C525 1.391 . S
C530 N529 1.388 . S
Co531 O533 2.143 . S
Co531 O539 2.074 . S
Co531 O542 2.093 . S
Co531 O555 2.097 . S
Co531 N572 2.151 . S
Co531 N580 2.214 . S
Co532 O533 2.160 . S
Co532 O538 2.058 . S
Co532 O548 2.057 . S
Co532 O563 2.037 . S
Co532 N567 2.145 . S
Co532 N588 2.257 . S
O533 Co531 2.143 . S
O533 Co532 2.160 . S
C534 O535 1.278 . S
C534 O542 1.224 . S
O535 C534 1.278 . S
C536 O537 1.245 . S
C536 O548 1.232 . S
O537 C536 1.245 . S
O538 Co532 2.058 . S
O538 C564 1.269 . S
O539 Co531 2.074 . S
O539 C564 1.257 . S
H540 C565 0.930 . S
H541 C571 0.930 . S
O542 Co531 2.093 . S
O542 C534 1.224 . S
H543 C575 0.929 . S
H544 C577 0.930 . S
H545 C578 0.930 . S
H546 C576 0.929 . S
H547 C579 0.928 . S
O548 Co532 2.057 . S
O548 C536 1.232 . S
H549 C568 0.929 . S
H550 C569 0.929 . S
H551 C581 0.931 . S
H552 C573 0.929 . S
H553 C582 0.930 . S
H554 C574 0.931 . S
O555 Co531 2.097 . S
O555 C583 1.214 . S
H556 C584 0.929 . S
H557 C585 0.929 . S
H558 C586 0.930 . S
H559 C587 0.929 . S
H560 C589 0.930 . S
H561 C566 0.930 . S
H562 C570 0.930 . S
O563 Co532 2.037 . S
O563 C583 1.234 . S
C564 O538 1.269 . S
C564 O539 1.257 . S
C565 H540 0.930 . S
C565 C568 1.388 . S
C565 C570 1.418 . S
C566 H561 0.930 . S
C566 C569 1.404 . S
C566 C570 1.353 . S
N567 Co532 2.145 . S
N567 C568 1.397 . S
N567 C569 1.334 . S
C568 H549 0.929 . S
C568 C565 1.388 . S
C568 N567 1.397 . S
C569 H550 0.929 . S
C569 C566 1.404 . S
C569 N567 1.334 . S
C570 H562 0.930 . S
C570 C565 1.418 . S
C570 C566 1.353 . S
C571 H541 0.930 . S
C571 N572 1.330 . S
C571 C573 1.446 . S
N572 Co531 2.151 . S
N572 C571 1.330 . S
N572 C576 1.418 . S
C573 H552 0.929 . S
C573 C571 1.446 . S
C573 C574 1.332 . S
C574 H554 0.931 . S
C574 C573 1.332 . S
C574 C575 1.267 . S
C575 H543 0.929 . S
C575 C574 1.267 . S
C575 C576 1.251 . S
C576 H546 0.929 . S
C576 N572 1.418 . S
C576 C575 1.251 . S
C577 H544 0.930 . S
C577 C579 1.406 . S
C577 C582 1.261 . S
C578 H545 0.930 . S
C578 N580 1.325 . S
C578 C581 1.357 . S
C579 H547 0.928 . S
C579 C577 1.406 . S
C579 N580 1.261 . S
N580 Co531 2.214 . S
N580 C578 1.325 . S
N580 C579 1.261 . S
C581 H551 0.931 . S
C581 C578 1.357 . S
C581 C582 1.312 . S
C582 H553 0.930 . S
C582 C577 1.261 . S
C582 C581 1.312 . S
C583 O555 1.214 . S
C583 O563 1.234 . S
C584 H556 0.929 . S
C584 C587 1.391 . S
C584 C589 1.391 . S
C585 H557 0.929 . S
C585 C586 1.390 . S
C585 N588 1.391 . S
C586 H558 0.930 . S
C586 C585 1.390 . S
C586 C587 1.392 . S
C587 H559 0.929 . S
C587 C584 1.391 . S
C587 C586 1.392 . S
N588 Co532 2.257 . S
N588 C585 1.391 . S
N588 C589 1.388 . S
C589 H560 0.930 . S
C589 C584 1.391 . S
C589 N588 1.388 . S
Co590 O592 2.143 . S
Co590 O598 2.074 . S
Co590 O601 2.093 . S
Co590 O614 2.097 . S
Co590 N631 2.151 . S
Co590 N639 2.214 1_556 S
Co591 O592 2.160 . S
Co591 O597 2.058 . S
Co591 O607 2.057 . S
Co591 O622 2.037 . S
Co591 N626 2.145 . S
Co591 N647 2.257 . S
O592 Co590 2.143 . S
O592 Co591 2.160 . S
C593 O594 1.278 . S
C593 O601 1.224 . S
O594 C593 1.278 . S
C595 O596 1.245 . S
C595 O607 1.232 . S
O596 C595 1.245 . S
O597 Co591 2.058 . S
O597 C623 1.269 . S
O598 Co590 2.074 . S
O598 C623 1.257 . S
H599 C624 0.930 . S
H600 C630 0.930 . S
O601 Co590 2.093 . S
O601 C593 1.224 . S
H602 C634 0.929 . S
H603 C636 0.930 . S
H604 C637 0.930 . S
H605 C635 0.929 . S
H606 C638 0.928 . S
O607 Co591 2.057 . S
O607 C595 1.232 . S
H608 C627 0.929 . S
H609 C628 0.929 . S
H610 C640 0.931 . S
H611 C632 0.929 1_455 S
H612 C641 0.930 . S
H613 C633 0.931 1_455 S
O614 Co590 2.097 . S
O614 C642 1.214 . S
H615 C643 0.929 . S
H616 C644 0.929 . S
H617 C645 0.930 . S
H618 C646 0.929 . S
H619 C648 0.930 . S
H620 C625 0.930 . S
H621 C629 0.930 . S
O622 Co591 2.037 . S
O622 C642 1.234 . S
C623 O597 1.269 . S
C623 O598 1.257 . S
C624 H599 0.930 . S
C624 C627 1.388 . S
C624 C629 1.418 . S
C625 H620 0.930 . S
C625 C628 1.404 . S
C625 C629 1.353 . S
N626 Co591 2.145 . S
N626 C627 1.397 . S
N626 C628 1.334 . S
C627 H608 0.929 . S
C627 C624 1.388 . S
C627 N626 1.397 . S
C628 H609 0.929 . S
C628 C625 1.404 . S
C628 N626 1.334 . S
C629 H621 0.930 . S
C629 C624 1.418 . S
C629 C625 1.353 . S
C630 H600 0.930 . S
C630 N631 1.330 . S
C630 C632 1.446 . S
N631 Co590 2.151 . S
N631 C630 1.330 . S
N631 C635 1.418 . S
C632 H611 0.929 1_655 S
C632 C630 1.446 . S
C632 C633 1.332 . S
C633 H613 0.931 1_655 S
C633 C632 1.332 . S
C633 C634 1.267 . S
C634 H602 0.929 . S
C634 C633 1.267 . S
C634 C635 1.251 . S
C635 H605 0.929 . S
C635 N631 1.418 . S
C635 C634 1.251 . S
C636 H603 0.930 . S
C636 C638 1.406 . S
C636 C641 1.261 . S
C637 H604 0.930 . S
C637 N639 1.325 . S
C637 C640 1.357 . S
C638 H606 0.928 . S
C638 C636 1.406 . S
C638 N639 1.261 . S
N639 Co590 2.214 1_554 S
N639 C637 1.325 . S
N639 C638 1.261 . S
C640 H610 0.931 . S
C640 C637 1.357 . S
C640 C641 1.312 . S
C641 H612 0.930 . S
C641 C636 1.261 . S
C641 C640 1.312 . S
C642 O614 1.214 . S
C642 O622 1.234 . S
C643 H615 0.929 . S
C643 C646 1.391 . S
C643 C648 1.391 . S
C644 H616 0.929 . S
C644 C645 1.390 . S
C644 N647 1.391 . S
C645 H617 0.930 . S
C645 C644 1.390 . S
C645 C646 1.392 . S
C646 H618 0.929 . S
C646 C643 1.391 . S
C646 C645 1.392 . S
N647 Co591 2.257 . S
N647 C644 1.391 . S
N647 C648 1.388 . S
C648 H619 0.930 . S
C648 C643 1.391 . S
C648 N647 1.388 . S
Co649 O651 2.143 . S
Co649 O657 2.074 . S
Co649 O660 2.093 . S
Co649 O673 2.097 . S
Co649 N690 2.151 . S
Co649 N698 2.214 . S
Co650 O651 2.160 . S
Co650 O656 2.058 . S
Co650 O666 2.057 . S
Co650 O681 2.037 . S
Co650 N685 2.145 . S
Co650 N706 2.257 . S
O651 Co649 2.143 . S
O651 Co650 2.160 . S
C652 O653 1.278 . S
C652 O660 1.224 . S
O653 C652 1.278 . S
C654 O655 1.245 . S
C654 O666 1.232 . S
O655 C654 1.245 . S
O656 Co650 2.058 . S
O656 C682 1.269 . S
O657 Co649 2.074 . S
O657 C682 1.257 . S
H658 C683 0.930 . S
H659 C689 0.930 . S
O660 Co649 2.093 . S
O660 C652 1.224 . S
H661 C693 0.929 . S
H662 C695 0.930 . S
H663 C696 0.930 . S
H664 C694 0.929 . S
H665 C697 0.928 . S
O666 Co650 2.057 . S
O666 C654 1.232 . S
H667 C686 0.929 . S
H668 C687 0.929 . S
H669 C699 0.931 . S
H670 C691 0.929 1_545 S
H671 C700 0.930 . S
H672 C692 0.931 1_545 S
O673 Co649 2.097 . S
O673 C701 1.214 . S
H674 C702 0.929 . S
H675 C703 0.929 . S
H676 C704 0.930 . S
H677 C705 0.929 . S
H678 C707 0.930 . S
H679 C684 0.930 . S
H680 C688 0.930 . S
O681 Co650 2.037 . S
O681 C701 1.234 . S
C682 O656 1.269 . S
C682 O657 1.257 . S
C683 H658 0.930 . S
C683 C686 1.388 . S
C683 C688 1.418 . S
C684 H679 0.930 . S
C684 C687 1.404 . S
C684 C688 1.353 . S
N685 Co650 2.145 . S
N685 C686 1.397 . S
N685 C687 1.334 . S
C686 H667 0.929 . S
C686 C683 1.388 . S
C686 N685 1.397 . S
C687 H668 0.929 . S
C687 C684 1.404 . S
C687 N685 1.334 . S
C688 H680 0.930 . S
C688 C683 1.418 . S
C688 C684 1.353 . S
C689 H659 0.930 . S
C689 N690 1.330 . S
C689 C691 1.446 . S
N690 Co649 2.151 . S
N690 C689 1.330 . S
N690 C694 1.418 . S
C691 H670 0.929 1_565 S
C691 C689 1.446 . S
C691 C692 1.332 . S
C692 H672 0.931 1_565 S
C692 C691 1.332 . S
C692 C693 1.267 . S
C693 H661 0.929 . S
C693 C692 1.267 . S
C693 C694 1.251 . S
C694 H664 0.929 . S
C694 N690 1.418 . S
C694 C693 1.251 . S
C695 H662 0.930 . S
C695 C697 1.406 . S
C695 C700 1.261 . S
C696 H663 0.930 . S
C696 N698 1.325 . S
C696 C699 1.357 . S
C697 H665 0.928 . S
C697 C695 1.406 . S
C697 N698 1.261 . S
N698 Co649 2.214 . S
N698 C696 1.325 . S
N698 C697 1.261 . S
C699 H669 0.931 . S
C699 C696 1.357 . S
C699 C700 1.312 . S
C700 H671 0.930 . S
C700 C695 1.261 . S
C700 C699 1.312 . S
C701 O673 1.214 . S
C701 O681 1.234 . S
C702 H674 0.929 . S
C702 C705 1.391 . S
C702 C707 1.391 . S
C703 H675 0.929 . S
C703 C704 1.390 . S
C703 N706 1.391 . S
C704 H676 0.930 . S
C704 C703 1.390 . S
C704 C705 1.392 . S
C705 H677 0.929 . S
C705 C702 1.391 . S
C705 C704 1.392 . S
N706 Co650 2.257 . S
N706 C703 1.391 . S
N706 C707 1.388 . S
C707 H678 0.930 . S
C707 C702 1.391 . S
C707 N706 1.388 . S
H708 C716 0.950 . S
H709 C721 0.950 . S
H710 C718 0.964 . S
H711 C720 0.950 . S
H712 C722 0.950 . S
H713 C724 0.964 . S
H714 C726 0.950 . S
H715 C727 0.950 . S
C716 H708 0.950 . S
C716 C717 1.386 . S
C716 C718 1.383 1_556 S
C717 C716 1.386 . S
C717 C721 1.393 . S
C718 H710 0.964 . S
C718 C716 1.383 1_554 S
C718 C719 1.395 1_554 S
C719 C718 1.395 1_556 S
C719 C720 1.398 . S
C719 C725 1.491 1_566 S
C720 H711 0.950 . S
C720 C719 1.398 . S
C720 C721 1.391 . S
C721 H709 0.950 . S
C721 C717 1.393 . S
C721 C720 1.391 . S
C722 H712 0.950 . S
C722 C723 1.386 . S
C722 C724 1.383 1_554 S
C723 C722 1.386 . S
C723 C727 1.393 . S
C724 H713 0.964 . S
C724 C722 1.383 1_556 S
C724 C725 1.395 1_556 S
C725 C719 1.491 1_544 S
C725 C724 1.395 1_554 S
C725 C726 1.398 . S
C726 H714 0.950 . S
C726 C725 1.398 . S
C726 C727 1.391 . S
C727 H715 0.950 . S
C727 C723 1.393 . S
C727 C726 1.391 . S
H728 C736 0.950 . S
H729 C741 0.950 . S
H730 C738 0.950 . S
H731 C740 0.950 . S
H732 C742 0.950 . S
H733 C744 0.950 . S
H734 C746 0.950 . S
H735 C747 0.950 . S
C736 H728 0.950 . S
C736 C737 1.386 . S
C736 C738 1.391 . S
C737 C736 1.386 . S
C737 C741 1.393 . S
C738 H730 0.950 . S
C738 C736 1.391 . S
C738 C739 1.400 . S
C739 C738 1.400 . S
C739 C740 1.398 . S
C739 C745 1.491 . S
C740 H731 0.950 . S
C740 C739 1.398 . S
C740 C741 1.391 . S
C741 H729 0.950 . S
C741 C737 1.393 . S
C741 C740 1.391 . S
C742 H732 0.950 . S
C742 C743 1.386 . S
C742 C744 1.391 . S
C743 C742 1.386 . S
C743 C747 1.393 . S
C744 H733 0.950 . S
C744 C742 1.391 . S
C744 C745 1.400 . S
C745 C739 1.491 . S
C745 C744 1.400 . S
C745 C746 1.398 . S
C746 H734 0.950 . S
C746 C745 1.398 . S
C746 C747 1.391 . S
C747 H735 0.950 . S
C747 C743 1.393 . S
C747 C746 1.391 . S
H748 C756 0.950 . S
H749 C761 0.950 . S
H750 C758 0.950 . S
H751 C760 0.950 . S
H752 C762 0.950 . S
H753 C764 0.950 . S
H754 C766 0.950 . S
H755 C767 0.950 . S
C756 H748 0.950 . S
C756 C757 1.386 . S
C756 C758 1.391 . S
C757 C756 1.386 . S
C757 C761 1.393 . S
C758 H750 0.950 . S
C758 C756 1.391 . S
C758 C759 1.400 . S
C759 C758 1.400 . S
C759 C760 1.398 . S
C759 C765 1.491 1_655 S
C760 H751 0.950 . S
C760 C759 1.398 . S
C760 C761 1.391 . S
C761 H749 0.950 . S
C761 C757 1.393 . S
C761 C760 1.391 . S
C762 H752 0.950 . S
C762 C763 1.386 . S
C762 C764 1.391 . S
C763 C762 1.386 . S
C763 C767 1.393 . S
C764 H753 0.950 . S
C764 C762 1.391 . S
C764 C765 1.400 . S
C765 C759 1.491 1_455 S
C765 C764 1.400 . S
C765 C766 1.398 . S
C766 H754 0.950 . S
C766 C765 1.398 . S
C766 C767 1.391 . S
C767 H755 0.950 . S
C767 C763 1.393 . S
C767 C766 1.391 . S
H768 C776 0.950 . S
H769 C781 0.950 . S
H770 C778 0.950 . S
H771 C780 0.950 . S
H772 C782 0.950 . S
H773 C784 0.950 . S
H774 C786 0.950 . S
H775 C787 0.950 . S
C776 H768 0.950 . S
C776 C777 1.386 . S
C776 C778 1.391 . S
C777 C776 1.386 . S
C777 C781 1.393 . S
C778 H770 0.950 . S
C778 C776 1.391 . S
C778 C779 1.400 . S
C779 C778 1.400 . S
C779 C780 1.398 . S
C779 C785 1.491 1_564 S
C780 H771 0.950 . S
C780 C779 1.398 . S
C780 C781 1.391 . S
C781 H769 0.950 . S
C781 C777 1.393 . S
C781 C780 1.391 . S
C782 H772 0.950 . S
C782 C783 1.386 . S
C782 C784 1.391 . S
C783 C782 1.386 . S
C783 C787 1.393 . S
C784 H773 0.950 . S
C784 C782 1.391 . S
C784 C785 1.400 . S
C785 C779 1.491 1_546 S
C785 C784 1.400 . S
C785 C786 1.398 . S
C786 H774 0.950 . S
C786 C785 1.398 . S
C786 C787 1.391 . S
C787 H775 0.950 . S
C787 C783 1.393 . S
C787 C786 1.391 . S
H788 C796 0.950 . S
H789 C801 0.950 . S
H790 C798 0.950 . S
H791 C800 0.950 . S
H792 C802 0.950 . S
H793 C804 0.950 . S
H794 C806 0.950 . S
H795 C807 0.950 . S
C796 H788 0.950 . S
C796 C797 1.386 . S
C796 C798 1.391 . S
C797 C796 1.386 . S
C797 C801 1.393 . S
C798 H790 0.950 . S
C798 C796 1.391 . S
C798 C799 1.400 . S
C799 C798 1.400 . S
C799 C800 1.398 . S
C799 C805 1.491 . S
C800 H791 0.950 . S
C800 C799 1.398 . S
C800 C801 1.391 . S
C801 H789 0.950 . S
C801 C797 1.393 . S
C801 C800 1.391 . S
C802 H792 0.950 . S
C802 C803 1.386 . S
C802 C804 1.391 . S
C803 C802 1.386 . S
C803 C807 1.393 . S
C804 H793 0.950 . S
C804 C802 1.391 . S
C804 C805 1.400 . S
C805 C799 1.491 . S
C805 C804 1.400 . S
C805 C806 1.398 . S
C806 H794 0.950 . S
C806 C805 1.398 . S
C806 C807 1.391 . S
C807 H795 0.950 . S
C807 C803 1.393 . S
C807 C806 1.391 . S
H808 C816 0.950 . S
H809 C821 0.950 . S
H810 C818 0.950 1_455 S
H811 C820 0.950 . S
H812 C822 0.950 . S
H813 C824 0.950 1_655 S
H814 C826 0.950 . S
H815 C827 0.950 . S
C816 H808 0.950 . S
C816 C817 1.386 . S
C816 C818 1.391 . S
C817 C816 1.386 . S
C817 C821 1.393 . S
C818 H810 0.950 1_655 S
C818 C816 1.391 . S
C818 C819 1.400 . S
C819 C818 1.400 . S
C819 C820 1.398 . S
C819 C825 1.491 1_655 S
C820 H811 0.950 . S
C820 C819 1.398 . S
C820 C821 1.391 . S
C821 H809 0.950 . S
C821 C817 1.393 . S
C821 C820 1.391 . S
C822 H812 0.950 . S
C822 C823 1.386 . S
C822 C824 1.391 . S
C823 C822 1.386 . S
C823 C827 1.393 . S
C824 H813 0.950 1_455 S
C824 C822 1.391 . S
C824 C825 1.400 . S
C825 C819 1.491 1_455 S
C825 C824 1.400 . S
C825 C826 1.398 . S
C826 H814 0.950 . S
C826 C825 1.398 . S
C826 C827 1.391 . S
C827 H815 0.950 . S
C827 C823 1.393 . S
C827 C826 1.391 . S
H828 C836 0.950 . S
H829 C841 0.950 . S
H830 C838 0.950 . S
H831 C840 0.950 . S
H832 C842 0.950 . S
H833 C844 0.950 . S
H834 C846 0.950 . S
H835 C847 0.950 . S
C836 H828 0.950 . S
C836 C837 1.386 1_554 S
C836 C838 1.391 . S
C837 C836 1.386 1_556 S
C837 C841 1.393 . S
C838 H830 0.950 . S
C838 C836 1.391 . S
C838 C839 1.400 1_554 S
C839 C838 1.400 1_556 S
C839 C840 1.398 . S
C839 C845 1.491 1_556 S
C840 H831 0.950 . S
C840 C839 1.398 . S
C840 C841 1.391 . S
C841 H829 0.950 . S
C841 C837 1.393 . S
C841 C840 1.391 . S
C842 H832 0.950 . S
C842 C843 1.386 1_556 S
C842 C844 1.391 . S
C843 C842 1.386 1_554 S
C843 C847 1.393 . S
C844 H833 0.950 . S
C844 C842 1.391 . S
C844 C845 1.400 1_556 S
C845 C839 1.491 1_554 S
C845 C844 1.400 1_554 S
C845 C846 1.398 . S
C846 H834 0.950 . S
C846 C845 1.398 . S
C846 C847 1.391 . S
C847 H835 0.950 . S
C847 C843 1.393 . S
C847 C846 1.391 . S
H848 C856 0.950 . S
H849 C861 0.950 . S
H850 C858 0.950 . S
H851 C860 0.950 . S
H852 C862 0.950 . S
H853 C864 0.950 . S
H854 C866 0.950 . S
H855 C867 0.950 . S
C856 H848 0.950 . S
C856 C857 1.386 . S
C856 C858 1.391 . S
C857 C856 1.386 . S
C857 C861 1.393 . S
C858 H850 0.950 . S
C858 C856 1.391 . S
C858 C859 1.400 . S
C859 C858 1.400 . S
C859 C860 1.398 . S
C859 C865 1.491 . S
C860 H851 0.950 . S
C860 C859 1.398 . S
C860 C861 1.391 . S
C861 H849 0.950 . S
C861 C857 1.393 . S
C861 C860 1.391 . S
C862 H852 0.950 . S
C862 C863 1.386 . S
C862 C864 1.391 . S
C863 C862 1.386 . S
C863 C867 1.393 . S
C864 H853 0.950 . S
C864 C862 1.391 . S
C864 C865 1.400 . S
C865 C859 1.491 . S
C865 C864 1.400 . S
C865 C866 1.398 . S
C866 H854 0.950 . S
C866 C865 1.398 . S
C866 C867 1.391 . S
C867 H855 0.950 . S
C867 C863 1.393 . S
C867 C866 1.391 . S
H868 C876 0.950 . S
H869 C881 0.950 . S
H870 C878 0.950 . S
H871 C880 0.950 . S
H872 C882 0.950 . S
H873 C884 0.950 . S
H874 C886 0.950 . S
H875 C887 0.950 . S
C876 H868 0.950 . S
C876 C877 1.386 . S
C876 C878 1.391 . S
C877 C876 1.386 . S
C877 C881 1.393 . S
C878 H870 0.950 . S
C878 C876 1.391 . S
C878 C879 1.400 . S
C879 C878 1.400 . S
C879 C880 1.398 . S
C879 C885 1.491 . S
C880 H871 0.950 . S
C880 C879 1.398 . S
C880 C881 1.391 . S
C881 H869 0.950 . S
C881 C877 1.393 . S
C881 C880 1.391 . S
C882 H872 0.950 . S
C882 C883 1.386 . S
C882 C884 1.391 . S
C883 C882 1.386 . S
C883 C887 1.393 . S
C884 H873 0.950 . S
C884 C882 1.391 . S
C884 C885 1.400 . S
C885 C879 1.491 . S
C885 C884 1.400 . S
C885 C886 1.398 . S
C886 H874 0.950 . S
C886 C885 1.398 . S
C886 C887 1.391 . S
C887 H875 0.950 . S
C887 C883 1.393 . S
C887 C886 1.391 . S
H888 C896 0.950 . S
H889 C901 0.950 1_554 S
H890 C898 0.950 . S
H891 C900 0.950 . S
H892 C902 0.950 . S
H893 C904 0.950 . S
H894 C906 0.950 . S
H895 C907 0.950 1_556 S
C896 H888 0.950 . S
C896 C897 1.386 . S
C896 C898 1.391 . S
C897 C896 1.386 . S
C897 C901 1.393 . S
C898 H890 0.950 . S
C898 C896 1.391 . S
C898 C899 1.400 . S
C899 C898 1.400 . S
C899 C900 1.398 1_556 S
C899 C905 1.491 1_556 S
C900 H891 0.950 . S
C900 C899 1.398 1_554 S
C900 C901 1.391 1_554 S
C901 H889 0.950 1_556 S
C901 C897 1.393 . S
C901 C900 1.391 1_556 S
C902 H892 0.950 . S
C902 C903 1.386 . S
C902 C904 1.391 . S
C903 C902 1.386 . S
C903 C907 1.393 . S
C904 H893 0.950 . S
C904 C902 1.391 . S
C904 C905 1.400 . S
C905 C899 1.491 1_554 S
C905 C904 1.400 . S
C905 C906 1.398 1_554 S
C906 H894 0.950 . S
C906 C905 1.398 1_556 S
C906 C907 1.391 1_556 S
C907 H895 0.950 1_554 S
C907 C903 1.393 . S
C907 C906 1.391 1_554 S
H908 C916 0.950 . S
H909 C921 0.950 . S
H910 C918 0.950 . S
H911 C920 0.950 . S
H912 C922 0.950 . S
H913 C924 0.950 . S
H914 C926 0.950 . S
H915 C927 0.950 . S
C916 H908 0.950 . S
C916 C917 1.386 . S
C916 C918 1.391 . S
C917 C916 1.386 . S
C917 C921 1.393 . S
C918 H910 0.950 . S
C918 C916 1.391 . S
C918 C919 1.400 . S
C919 C918 1.400 . S
C919 C920 1.398 . S
C919 C925 1.491 . S
C920 H911 0.950 . S
C920 C919 1.398 . S
C920 C921 1.391 . S
C921 H909 0.950 . S
C921 C917 1.393 . S
C921 C920 1.391 . S
C922 H912 0.950 . S
C922 C923 1.386 . S
C922 C924 1.391 . S
C923 C922 1.386 . S
C923 C927 1.393 . S
C924 H913 0.950 . S
C924 C922 1.391 . S
C924 C925 1.400 . S
C925 C919 1.491 . S
C925 C924 1.400 . S
C925 C926 1.398 . S
C926 H914 0.950 . S
C926 C925 1.398 . S
C926 C927 1.391 . S
C927 H915 0.950 . S
C927 C923 1.393 . S
C927 C926 1.391 . S
H928 C936 0.950 . S
H929 C941 0.950 . S
H930 C938 0.950 . S
H931 C940 0.950 . S
H932 C942 0.950 . S
H933 C944 0.950 . S
H934 C946 0.950 . S
H935 C947 0.950 . S
C936 H928 0.950 . S
C936 C937 1.386 . S
C936 C938 1.391 . S
C937 C936 1.386 . S
C937 C941 1.393 . S
C938 H930 0.950 . S
C938 C936 1.391 . S
C938 C939 1.400 . S
C939 C938 1.400 . S
C939 C940 1.398 . S
C939 C945 1.491 . S
C940 H931 0.950 . S
C940 C939 1.398 . S
C940 C941 1.391 . S
C941 H929 0.950 . S
C941 C937 1.393 . S
C941 C940 1.391 . S
C942 H932 0.950 . S
C942 C943 1.386 . S
C942 C944 1.391 . S
C943 C942 1.386 . S
C943 C947 1.393 . S
C944 H933 0.950 . S
C944 C942 1.391 . S
C944 C945 1.400 . S
C945 C939 1.491 . S
C945 C944 1.400 . S
C945 C946 1.398 . S
C946 H934 0.950 . S
C946 C945 1.398 . S
C946 C947 1.391 . S
C947 H935 0.950 . S
C947 C943 1.393 . S
C947 C946 1.391 . S
H948 C956 0.950 . S
H949 C961 0.950 . S
H950 C958 0.950 . S
H951 C960 0.950 . S
H952 C962 0.950 . S
H953 C964 0.950 . S
H954 C966 0.950 . S
H955 C967 0.950 . S
C956 H948 0.950 . S
C956 C957 1.386 . S
C956 C958 1.391 . S
C957 C956 1.386 . S
C957 C961 1.393 . S
C958 H950 0.950 . S
C958 C956 1.391 . S
C958 C959 1.400 . S
C959 C958 1.400 . S
C959 C960 1.398 . S
C959 C965 1.491 . S
C960 H951 0.950 . S
C960 C959 1.398 . S
C960 C961 1.391 . S
C961 H949 0.950 . S
C961 C957 1.393 . S
C961 C960 1.391 . S
C962 H952 0.950 . S
C962 C963 1.386 . S
C962 C964 1.391 . S
C963 C962 1.386 . S
C963 C967 1.393 . S
C964 H953 0.950 . S
C964 C962 1.391 . S
C964 C965 1.400 . S
C965 C959 1.491 . S
C965 C964 1.400 . S
C965 C966 1.398 . S
C966 H954 0.950 . S
C966 C965 1.398 . S
C966 C967 1.391 . S
C967 H955 0.950 . S
C967 C963 1.393 . S
C967 C966 1.391 . S
H968 C976 0.950 . S
H969 C981 0.950 . S
H970 C978 0.950 . S
H971 C980 0.950 . S
H972 C982 0.950 . S
H973 C984 0.950 . S
H974 C986 0.950 . S
H975 C987 0.950 . S
C976 H968 0.950 . S
C976 C977 1.386 . S
C976 C978 1.391 . S
C977 C976 1.386 . S
C977 C981 1.393 . S
C978 H970 0.950 . S
C978 C976 1.391 . S
C978 C979 1.400 . S
C979 C978 1.400 . S
C979 C980 1.398 . S
C979 C985 1.491 . S
C980 H971 0.950 . S
C980 C979 1.398 . S
C980 C981 1.391 . S
C981 H969 0.950 . S
C981 C977 1.393 . S
C981 C980 1.391 . S
C982 H972 0.950 . S
C982 C983 1.386 . S
C982 C984 1.391 . S
C983 C982 1.386 . S
C983 C987 1.393 . S
C984 H973 0.950 . S
C984 C982 1.391 . S
C984 C985 1.400 . S
C985 C979 1.491 . S
C985 C984 1.400 . S
C985 C986 1.398 . S
C986 H974 0.950 . S
C986 C985 1.398 . S
C986 C987 1.391 . S
C987 H975 0.950 . S
C987 C983 1.393 . S
C987 C986 1.391 . S
H988 C996 0.950 . S
H989 C1001 0.950 . S
H990 C998 0.950 . S
H991 C1000 0.950 . S
H992 C1002 0.950 . S
H993 C1004 0.950 . S
H994 C1006 0.950 . S
H995 C1007 0.950 . S
C996 H988 0.950 . S
C996 C997 1.386 . S
C996 C998 1.391 . S
C997 C996 1.386 . S
C997 C1001 1.393 . S
C998 H990 0.950 . S
C998 C996 1.391 . S
C998 C999 1.400 . S
C999 C998 1.400 . S
C999 C1000 1.398 . S
C999 C1005 1.491 . S
C1000 H991 0.950 . S
C1000 C999 1.398 . S
C1000 C1001 1.391 . S
C1001 H989 0.950 . S
C1001 C997 1.393 . S
C1001 C1000 1.391 . S
C1002 H992 0.950 . S
C1002 C1003 1.386 . S
C1002 C1004 1.391 . S
C1003 C1002 1.386 . S
C1003 C1007 1.393 . S
C1004 H993 0.950 . S
C1004 C1002 1.391 . S
C1004 C1005 1.400 . S
C1005 C999 1.491 . S
C1005 C1004 1.400 . S
C1005 C1006 1.398 . S
C1006 H994 0.950 . S
C1006 C1005 1.398 . S
C1006 C1007 1.391 . S
C1007 H995 0.950 . S
C1007 C1003 1.393 . S
C1007 C1006 1.391 . S
H1008 C1016 0.950 . S
H1009 C1021 0.950 . S
H1010 C1018 0.950 . S
H1011 C1020 0.950 . S
H1012 C1022 0.950 . S
H1013 C1024 0.950 . S
H1014 C1026 0.950 . S
H1015 C1027 0.950 . S
C1016 H1008 0.950 . S
C1016 C1017 1.386 . S
C1016 C1018 1.391 . S
C1017 C1016 1.386 . S
C1017 C1021 1.393 . S
C1018 H1010 0.950 . S
C1018 C1016 1.391 . S
C1018 C1019 1.400 . S
C1019 C1018 1.400 . S
C1019 C1020 1.398 . S
C1019 C1025 1.491 . S
C1020 H1011 0.950 . S
C1020 C1019 1.398 . S
C1020 C1021 1.391 . S
C1021 H1009 0.950 . S
C1021 C1017 1.393 . S
C1021 C1020 1.391 . S
C1022 H1012 0.950 . S
C1022 C1023 1.386 . S
C1022 C1024 1.391 . S
C1023 C1022 1.386 . S
C1023 C1027 1.393 . S
C1024 H1013 0.950 . S
C1024 C1022 1.391 . S
C1024 C1025 1.400 . S
C1025 C1019 1.491 . S
C1025 C1024 1.400 . S
C1025 C1026 1.398 . S
C1026 H1014 0.950 . S
C1026 C1025 1.398 . S
C1026 C1027 1.391 . S
C1027 H1015 0.950 . S
C1027 C1023 1.393 . S
C1027 C1026 1.391 . S
H1028 C1036 0.950 . S
H1029 C1041 0.950 . S
H1030 C1038 0.950 . S
H1031 C1040 0.950 . S
H1032 C1042 0.950 . S
H1033 C1044 0.950 . S
H1034 C1046 0.950 . S
H1035 C1047 0.950 . S
C1036 H1028 0.950 . S
C1036 C1037 1.386 . S
C1036 C1038 1.391 . S
C1037 C1036 1.386 . S
C1037 C1041 1.393 . S
C1038 H1030 0.950 . S
C1038 C1036 1.391 . S
C1038 C1039 1.400 . S
C1039 C1038 1.400 . S
C1039 C1040 1.398 . S
C1039 C1045 1.491 . S
C1040 H1031 0.950 . S
C1040 C1039 1.398 . S
C1040 C1041 1.391 . S
C1041 H1029 0.950 . S
C1041 C1037 1.393 . S
C1041 C1040 1.391 . S
C1042 H1032 0.950 . S
C1042 C1043 1.386 . S
C1042 C1044 1.391 . S
C1043 C1042 1.386 . S
C1043 C1047 1.393 . S
C1044 H1033 0.950 . S
C1044 C1042 1.391 . S
C1044 C1045 1.400 . S
C1045 C1039 1.491 . S
C1045 C1044 1.400 . S
C1045 C1046 1.398 . S
C1046 H1034 0.950 . S
C1046 C1045 1.398 . S
C1046 C1047 1.391 . S
C1047 H1035 0.950 . S
C1047 C1043 1.393 . S
C1047 C1046 1.391 . S
H1048 C1056 0.950 . S
H1049 C1061 0.950 . S
H1050 C1058 0.950 . S
H1051 C1060 0.950 . S
H1052 C1062 0.950 . S
H1053 C1064 0.950 . S
H1054 C1066 0.950 . S
H1055 C1067 0.950 . S
C1056 H1048 0.950 . S
C1056 C1057 1.386 . S
C1056 C1058 1.391 . S
C1057 C1056 1.386 . S
C1057 C1061 1.393 . S
C1058 H1050 0.950 . S
C1058 C1056 1.391 . S
C1058 C1059 1.400 . S
C1059 C1058 1.400 . S
C1059 C1060 1.398 . S
C1059 C1065 1.491 . S
C1060 H1051 0.950 . S
C1060 C1059 1.398 . S
C1060 C1061 1.391 . S
C1061 H1049 0.950 . S
C1061 C1057 1.393 . S
C1061 C1060 1.391 . S
C1062 H1052 0.950 . S
C1062 C1063 1.386 . S
C1062 C1064 1.391 . S
C1063 C1062 1.386 . S
C1063 C1067 1.393 . S
C1064 H1053 0.950 . S
C1064 C1062 1.391 . S
C1064 C1065 1.400 . S
C1065 C1059 1.491 . S
C1065 C1064 1.400 . S
C1065 C1066 1.398 . S
C1066 H1054 0.950 . S
C1066 C1065 1.398 . S
C1066 C1067 1.391 . S
C1067 H1055 0.950 . S
C1067 C1063 1.393 . S
C1067 C1066 1.391 . S
H1068 C1076 0.950 . S
H1069 C1081 0.950 . S
H1070 C1078 0.950 . S
H1071 C1080 0.950 . S
H1072 C1082 0.950 . S
H1073 C1084 0.950 . S
H1074 C1086 0.950 . S
H1075 C1087 0.950 . S
C1076 H1068 0.950 . S
C1076 C1077 1.386 . S
C1076 C1078 1.391 . S
C1077 C1076 1.386 . S
C1077 C1081 1.393 . S
C1078 H1070 0.950 . S
C1078 C1076 1.391 . S
C1078 C1079 1.400 . S
C1079 C1078 1.400 . S
C1079 C1080 1.398 . S
C1079 C1085 1.491 . S
C1080 H1071 0.950 . S
C1080 C1079 1.398 . S
C1080 C1081 1.391 . S
C1081 H1069 0.950 . S
C1081 C1077 1.393 . S
C1081 C1080 1.391 . S
C1082 H1072 0.950 . S
C1082 C1083 1.386 . S
C1082 C1084 1.391 . S
C1083 C1082 1.386 . S
C1083 C1087 1.393 . S
C1084 H1073 0.950 . S
C1084 C1082 1.391 . S
C1084 C1085 1.400 . S
C1085 C1079 1.491 . S
C1085 C1084 1.400 . S
C1085 C1086 1.398 . S
C1086 H1074 0.950 . S
C1086 C1085 1.398 . S
C1086 C1087 1.391 . S
C1087 H1075 0.950 . S
C1087 C1083 1.393 . S
C1087 C1086 1.391 . S
H1088 C1096 0.950 . S
H1089 C1101 0.950 . S
H1090 C1098 0.950 . S
H1091 C1100 0.950 . S
H1092 C1102 0.950 . S
H1093 C1104 0.950 . S
H1094 C1106 0.950 . S
H1095 C1107 0.950 . S
C1096 H1088 0.950 . S
C1096 C1097 1.386 . S
C1096 C1098 1.391 1_655 S
C1097 C1096 1.386 . S
C1097 C1101 1.393 . S
C1098 H1090 0.950 . S
C1098 C1096 1.391 1_455 S
C1098 C1099 1.400 1_455 S
C1099 C1098 1.400 1_655 S
C1099 C1100 1.398 . S
C1099 C1105 1.491 1_655 S
C1100 H1091 0.950 . S
C1100 C1099 1.398 . S
C1100 C1101 1.391 . S
C1101 H1089 0.950 . S
C1101 C1097 1.393 . S
C1101 C1100 1.391 . S
C1102 H1092 0.950 . S
C1102 C1103 1.386 . S
C1102 C1104 1.391 1_455 S
C1103 C1102 1.386 . S
C1103 C1107 1.393 . S
C1104 H1093 0.950 . S
C1104 C1102 1.391 1_655 S
C1104 C1105 1.400 1_655 S
C1105 C1099 1.491 1_455 S
C1105 C1104 1.400 1_455 S
C1105 C1106 1.398 . S
C1106 H1094 0.950 . S
C1106 C1105 1.398 . S
C1106 C1107 1.391 . S
C1107 H1095 0.950 . S
C1107 C1103 1.393 . S
C1107 C1106 1.391 . S
H1108 C1116 0.950 . S
H1109 C1121 0.950 . S
H1110 C1118 0.950 . S
H1111 C1120 0.950 . S
H1112 C1122 0.950 . S
H1113 C1124 0.950 . S
H1114 C1126 0.950 . S
H1115 C1127 0.950 . S
C1116 H1108 0.950 . S
C1116 C1117 1.386 . S
C1116 C1118 1.391 . S
C1117 C1116 1.386 . S
C1117 C1121 1.393 . S
C1118 H1110 0.950 . S
C1118 C1116 1.391 . S
C1118 C1119 1.400 . S
C1119 C1118 1.400 . S
C1119 C1120 1.398 . S
C1119 C1125 1.491 1_545 S
C1120 H1111 0.950 . S
C1120 C1119 1.398 . S
C1120 C1121 1.391 . S
C1121 H1109 0.950 . S
C1121 C1117 1.393 . S
C1121 C1120 1.391 . S
C1122 H1112 0.950 . S
C1122 C1123 1.386 . S
C1122 C1124 1.391 . S
C1123 C1122 1.386 . S
C1123 C1127 1.393 . S
C1124 H1113 0.950 . S
C1124 C1122 1.391 . S
C1124 C1125 1.400 . S
C1125 C1119 1.491 1_565 S
C1125 C1124 1.400 . S
C1125 C1126 1.398 . S
C1126 H1114 0.950 . S
C1126 C1125 1.398 . S
C1126 C1127 1.391 . S
C1127 H1115 0.950 . S
C1127 C1123 1.393 . S
C1127 C1126 1.391 . S
H1128 C1136 0.950 . S
H1129 C1141 0.950 . S
H1130 C1138 0.950 . S
H1131 C1140 0.950 . S
H1132 C1142 0.950 . S
H1133 C1144 0.950 . S
H1134 C1146 0.950 . S
H1135 C1147 0.950 . S
C1136 H1128 0.950 . S
C1136 C1137 1.386 . S
C1136 C1138 1.391 . S
C1137 C1136 1.386 . S
C1137 C1141 1.393 . S
C1138 H1130 0.950 . S
C1138 C1136 1.391 . S
C1138 C1139 1.400 . S
C1139 C1138 1.400 . S
C1139 C1140 1.398 . S
C1139 C1145 1.491 . S
C1140 H1131 0.950 . S
C1140 C1139 1.398 . S
C1140 C1141 1.391 . S
C1141 H1129 0.950 . S
C1141 C1137 1.393 . S
C1141 C1140 1.391 . S
C1142 H1132 0.950 . S
C1142 C1143 1.386 . S
C1142 C1144 1.391 . S
C1143 C1142 1.386 . S
C1143 C1147 1.393 . S
C1144 H1133 0.950 . S
C1144 C1142 1.391 . S
C1144 C1145 1.400 . S
C1145 C1139 1.491 . S
C1145 C1144 1.400 . S
C1145 C1146 1.398 . S
C1146 H1134 0.950 . S
C1146 C1145 1.398 . S
C1146 C1147 1.391 . S
C1147 H1135 0.950 . S
C1147 C1143 1.393 . S
C1147 C1146 1.391 . S
H1148 C1156 0.950 . S
H1149 C1161 0.950 . S
H1150 C1158 0.950 . S
H1151 C1160 0.950 . S
H1152 C1162 0.950 . S
H1153 C1164 0.950 . S
H1154 C1166 0.950 . S
H1155 C1167 0.950 . S
C1156 H1148 0.950 . S
C1156 C1157 1.386 . S
C1156 C1158 1.391 . S
C1157 C1156 1.386 . S
C1157 C1161 1.393 . S
C1158 H1150 0.950 . S
C1158 C1156 1.391 . S
C1158 C1159 1.400 . S
C1159 C1158 1.400 . S
C1159 C1160 1.398 . S
C1159 C1165 1.491 1_455 S
C1160 H1151 0.950 . S
C1160 C1159 1.398 . S
C1160 C1161 1.391 . S
C1161 H1149 0.950 . S
C1161 C1157 1.393 . S
C1161 C1160 1.391 . S
C1162 H1152 0.950 . S
C1162 C1163 1.386 . S
C1162 C1164 1.391 . S
C1163 C1162 1.386 . S
C1163 C1167 1.393 . S
C1164 H1153 0.950 . S
C1164 C1162 1.391 . S
C1164 C1165 1.400 . S
C1165 C1159 1.491 1_655 S
C1165 C1164 1.400 . S
C1165 C1166 1.398 . S
C1166 H1154 0.950 . S
C1166 C1165 1.398 . S
C1166 C1167 1.391 . S
C1167 H1155 0.950 . S
C1167 C1163 1.393 . S
C1167 C1166 1.391 . S
H1168 C1176 0.950 . S
H1169 C1181 0.950 . S
H1170 C1178 0.949 . S
H1171 C1180 0.950 . S
H1172 C1182 0.950 . S
H1173 C1184 0.949 . S
H1174 C1186 0.950 . S
H1175 C1187 0.950 . S
C1176 H1168 0.950 . S
C1176 C1177 1.386 . S
C1176 C1178 1.391 . S
C1177 C1176 1.386 . S
C1177 C1181 1.393 . S
C1178 H1170 0.949 . S
C1178 C1176 1.391 . S
C1178 C1179 1.400 . S
C1179 C1178 1.400 . S
C1179 C1180 1.398 . S
C1179 C1185 1.491 1_565 S
C1180 H1171 0.950 . S
C1180 C1179 1.398 . S
C1180 C1181 1.391 . S
C1181 H1169 0.950 . S
C1181 C1177 1.393 . S
C1181 C1180 1.391 . S
C1182 H1172 0.950 . S
C1182 C1183 1.386 . S
C1182 C1184 1.391 . S
C1183 C1182 1.386 . S
C1183 C1187 1.393 . S
C1184 H1173 0.949 . S
C1184 C1182 1.391 . S
C1184 C1185 1.400 . S
C1185 C1179 1.491 1_545 S
C1185 C1184 1.400 . S
C1185 C1186 1.398 . S
C1186 H1174 0.950 . S
C1186 C1185 1.398 . S
C1186 C1187 1.391 . S
C1187 H1175 0.950 . S
C1187 C1183 1.393 . S
C1187 C1186 1.391 . S
C717 C446 1.551 . S
C723 C33 1.559 . S
C737 C92 1.555 . S
C743 C505 1.556 . S
C757 C151 1.552 . S
C763 C564 1.558 . S
C777 C210 1.550 . S
C783 C623 1.551 . S
C797 C682 1.554 . S
C803 C269 1.548 . S
C817 C387 1.559 . S
C823 C328 1.547 . S
C837 C642 1.727 . S
C843 C52 1.727 . S
C857 C111 1.737 . S
C863 C701 1.738 . S
C877 C170 1.738 . S
C883 C406 1.739 . S
C897 C465 1.739 . S
C903 C229 1.739 . S
C917 C524 1.740 . S
C923 C288 1.740 . S
C937 C583 1.731 . S
C943 C347 1.732 . S
C957 C5 1.747 . S
C963 C477 1.750 . S
C977 C64 1.745 . S
C983 C536 1.754 . S
C997 C595 1.755 . S
C1003 C123 1.746 . S
C1017 C182 1.750 . S
C1023 C654 1.747 . S
C1037 C359 1.752 . S
C1043 C241 1.746 . S
C1057 C418 1.754 . S
C1063 C300 1.748 . S
C1077 C180 1.277 . S
C1083 C3 1.271 . S
C1097 C239 1.272 . S
C1103 C62 1.267 . S
C1117 C121 1.263 . S
C1123 C298 1.262 . S
C1137 C357 1.266 . S
C1143 C534 1.263 . S
C1157 C416 1.262 . S
C1163 C593 1.263 . S
C1177 C652 1.263 . S
C1183 C475 1.262 . S
