# Generated by pormake.
# Topology yfm, (5)-cn, num edge types: 1
# Building blocks:
#     Node 0, Type 0, BuildingBlock: XOMCOT_clean_sbu_1, # of connection points: 5
#     Node 1, Type 0, BuildingBlock: XOMCOT_clean_sbu_1, # of connection points: 5
#     Node 2, Type 0, BuildingBlock: XOMCOT_clean_sbu_1, # of connection points: 5
#     Node 3, Type 0, BuildingBlock: XOMCOT_clean_sbu_1, # of connection points: 5
#     Node 4, Type 0, BuildingBlock: XOMCOT_clean_sbu_1, # of connection points: 5
#     Node 5, Type 0, BuildingBlock: XOMCOT_clean_sbu_1, # of connection points: 5
#     Node 6, Type 0, BuildingBlock: XOMCOT_clean_sbu_1, # of connection points: 5
#     Node 7, Type 0, BuildingBlock: XOMCOT_clean_sbu_1, # of connection points: 5
#     Node 8, Type 0, BuildingBlock: XOMCOT_clean_sbu_1, # of connection points: 5
#     Node 9, Type 0, BuildingBlock: XOMCOT_clean_sbu_1, # of connection points: 5
#     Node 10, Type 0, BuildingBlock: XOMCOT_clean_sbu_1, # of connection points: 5
#     Node 11, Type 0, BuildingBlock: XOMCOT_clean_sbu_1, # of connection points: 5
#     Node 12, Type 0, BuildingBlock: XOMCOT_clean_sbu_1, # of connection points: 5
#     Node 13, Type 0, BuildingBlock: XOMCOT_clean_sbu_1, # of connection points: 5
#     Node 14, Type 0, BuildingBlock: XOMCOT_clean_sbu_1, # of connection points: 5
#     Node 15, Type 0, BuildingBlock: XOMCOT_clean_sbu_1, # of connection points: 5
#     Node 16, Type 0, BuildingBlock: XOMCOT_clean_sbu_1, # of connection points: 5
#     Node 17, Type 0, BuildingBlock: XOMCOT_clean_sbu_1, # of connection points: 5
#     Node 18, Type 0, BuildingBlock: XOMCOT_clean_sbu_1, # of connection points: 5
#     Node 19, Type 0, BuildingBlock: XOMCOT_clean_sbu_1, # of connection points: 5
#     Node 20, Type 0, BuildingBlock: XOMCOT_clean_sbu_1, # of connection points: 5
#     Node 21, Type 0, BuildingBlock: XOMCOT_clean_sbu_1, # of connection points: 5
#     Node 22, Type 0, BuildingBlock: XOMCOT_clean_sbu_1, # of connection points: 5
#     Node 23, Type 0, BuildingBlock: XOMCOT_clean_sbu_1, # of connection points: 5
#     Node 24, Type 0, BuildingBlock: XOMCOT_clean_sbu_1, # of connection points: 5
#     Node 25, Type 0, BuildingBlock: XOMCOT_clean_sbu_1, # of connection points: 5
#     Node 26, Type 0, BuildingBlock: XOMCOT_clean_sbu_1, # of connection points: 5
#     Node 27, Type 0, BuildingBlock: XOMCOT_clean_sbu_1, # of connection points: 5
#     Node 28, Type 0, BuildingBlock: XOMCOT_clean_sbu_1, # of connection points: 5
#     Node 29, Type 0, BuildingBlock: XOMCOT_clean_sbu_1, # of connection points: 5
#     Node 30, Type 0, BuildingBlock: XOMCOT_clean_sbu_1, # of connection points: 5
#     Node 31, Type 0, BuildingBlock: XOMCOT_clean_sbu_1, # of connection points: 5
#     Edge 32, Type (0, 0), BuildingBlock: AJUNOK_clean_linker_0, # of connection points: 2
#     Edge 33, Type (0, 0), BuildingBlock: AJUNOK_clean_linker_0, # of connection points: 2
#     Edge 34, Type (0, 0), BuildingBlock: AJUNOK_clean_linker_0, # of connection points: 2
#     Edge 35, Type (0, 0), BuildingBlock: AJUNOK_clean_linker_0, # of connection points: 2
#     Edge 36, Type (0, 0), BuildingBlock: AJUNOK_clean_linker_0, # of connection points: 2
#     Edge 37, Type (0, 0), BuildingBlock: AJUNOK_clean_linker_0, # of connection points: 2
#     Edge 38, Type (0, 0), BuildingBlock: AJUNOK_clean_linker_0, # of connection points: 2
#     Edge 39, Type (0, 0), BuildingBlock: AJUNOK_clean_linker_0, # of connection points: 2
#     Edge 40, Type (0, 0), BuildingBlock: AJUNOK_clean_linker_0, # of connection points: 2
#     Edge 41, Type (0, 0), BuildingBlock: AJUNOK_clean_linker_0, # of connection points: 2
#     Edge 42, Type (0, 0), BuildingBlock: AJUNOK_clean_linker_0, # of connection points: 2
#     Edge 43, Type (0, 0), BuildingBlock: AJUNOK_clean_linker_0, # of connection points: 2
#     Edge 44, Type (0, 0), BuildingBlock: AJUNOK_clean_linker_0, # of connection points: 2
#     Edge 45, Type (0, 0), BuildingBlock: AJUNOK_clean_linker_0, # of connection points: 2
#     Edge 46, Type (0, 0), BuildingBlock: AJUNOK_clean_linker_0, # of connection points: 2
#     Edge 47, Type (0, 0), BuildingBlock: AJUNOK_clean_linker_0, # of connection points: 2
#     Edge 48, Type (0, 0), BuildingBlock: AJUNOK_clean_linker_0, # of connection points: 2
#     Edge 49, Type (0, 0), BuildingBlock: AJUNOK_clean_linker_0, # of connection points: 2
#     Edge 50, Type (0, 0), BuildingBlock: AJUNOK_clean_linker_0, # of connection points: 2
#     Edge 51, Type (0, 0), BuildingBlock: AJUNOK_clean_linker_0, # of connection points: 2
#     Edge 52, Type (0, 0), BuildingBlock: AJUNOK_clean_linker_0, # of connection points: 2
#     Edge 53, Type (0, 0), BuildingBlock: AJUNOK_clean_linker_0, # of connection points: 2
#     Edge 54, Type (0, 0), BuildingBlock: AJUNOK_clean_linker_0, # of connection points: 2
#     Edge 55, Type (0, 0), BuildingBlock: AJUNOK_clean_linker_0, # of connection points: 2
#     Edge 56, Type (0, 0), BuildingBlock: AJUNOK_clean_linker_0, # of connection points: 2
#     Edge 57, Type (0, 0), BuildingBlock: AJUNOK_clean_linker_0, # of connection points: 2
#     Edge 58, Type (0, 0), BuildingBlock: AJUNOK_clean_linker_0, # of connection points: 2
#     Edge 59, Type (0, 0), BuildingBlock: AJUNOK_clean_linker_0, # of connection points: 2
#     Edge 60, Type (0, 0), BuildingBlock: AJUNOK_clean_linker_0, # of connection points: 2
#     Edge 61, Type (0, 0), BuildingBlock: AJUNOK_clean_linker_0, # of connection points: 2
#     Edge 62, Type (0, 0), BuildingBlock: AJUNOK_clean_linker_0, # of connection points: 2
#     Edge 63, Type (0, 0), BuildingBlock: AJUNOK_clean_linker_0, # of connection points: 2
#     Edge 64, Type (0, 0), BuildingBlock: AJUNOK_clean_linker_0, # of connection points: 2
#     Edge 65, Type (0, 0), BuildingBlock: AJUNOK_clean_linker_0, # of connection points: 2
#     Edge 66, Type (0, 0), BuildingBlock: AJUNOK_clean_linker_0, # of connection points: 2
#     Edge 67, Type (0, 0), BuildingBlock: AJUNOK_clean_linker_0, # of connection points: 2
#     Edge 68, Type (0, 0), BuildingBlock: AJUNOK_clean_linker_0, # of connection points: 2
#     Edge 69, Type (0, 0), BuildingBlock: AJUNOK_clean_linker_0, # of connection points: 2
#     Edge 70, Type (0, 0), BuildingBlock: AJUNOK_clean_linker_0, # of connection points: 2
#     Edge 71, Type (0, 0), BuildingBlock: AJUNOK_clean_linker_0, # of connection points: 2
#     Edge 72, Type (0, 0), BuildingBlock: AJUNOK_clean_linker_0, # of connection points: 2
#     Edge 73, Type (0, 0), BuildingBlock: AJUNOK_clean_linker_0, # of connection points: 2
#     Edge 74, Type (0, 0), BuildingBlock: AJUNOK_clean_linker_0, # of connection points: 2
#     Edge 75, Type (0, 0), BuildingBlock: AJUNOK_clean_linker_0, # of connection points: 2
#     Edge 76, Type (0, 0), BuildingBlock: AJUNOK_clean_linker_0, # of connection points: 2
#     Edge 77, Type (0, 0), BuildingBlock: AJUNOK_clean_linker_0, # of connection points: 2
#     Edge 78, Type (0, 0), BuildingBlock: AJUNOK_clean_linker_0, # of connection points: 2
#     Edge 79, Type (0, 0), BuildingBlock: AJUNOK_clean_linker_0, # of connection points: 2
#     Edge 80, Type (0, 0), BuildingBlock: AJUNOK_clean_linker_0, # of connection points: 2
#     Edge 81, Type (0, 0), BuildingBlock: AJUNOK_clean_linker_0, # of connection points: 2
#     Edge 82, Type (0, 0), BuildingBlock: AJUNOK_clean_linker_0, # of connection points: 2
#     Edge 83, Type (0, 0), BuildingBlock: AJUNOK_clean_linker_0, # of connection points: 2
#     Edge 84, Type (0, 0), BuildingBlock: AJUNOK_clean_linker_0, # of connection points: 2
#     Edge 85, Type (0, 0), BuildingBlock: AJUNOK_clean_linker_0, # of connection points: 2
#     Edge 86, Type (0, 0), BuildingBlock: AJUNOK_clean_linker_0, # of connection points: 2
#     Edge 87, Type (0, 0), BuildingBlock: AJUNOK_clean_linker_0, # of connection points: 2
#     Edge 88, Type (0, 0), BuildingBlock: AJUNOK_clean_linker_0, # of connection points: 2
#     Edge 89, Type (0, 0), BuildingBlock: AJUNOK_clean_linker_0, # of connection points: 2
#     Edge 90, Type (0, 0), BuildingBlock: AJUNOK_clean_linker_0, # of connection points: 2
#     Edge 91, Type (0, 0), BuildingBlock: AJUNOK_clean_linker_0, # of connection points: 2
#     Edge 92, Type (0, 0), BuildingBlock: AJUNOK_clean_linker_0, # of connection points: 2
#     Edge 93, Type (0, 0), BuildingBlock: AJUNOK_clean_linker_0, # of connection points: 2
#     Edge 94, Type (0, 0), BuildingBlock: AJUNOK_clean_linker_0, # of connection points: 2
#     Edge 95, Type (0, 0), BuildingBlock: AJUNOK_clean_linker_0, # of connection points: 2
#     Edge 96, Type (0, 0), BuildingBlock: AJUNOK_clean_linker_0, # of connection points: 2
#     Edge 97, Type (0, 0), BuildingBlock: AJUNOK_clean_linker_0, # of connection points: 2
#     Edge 98, Type (0, 0), BuildingBlock: AJUNOK_clean_linker_0, # of connection points: 2
#     Edge 99, Type (0, 0), BuildingBlock: AJUNOK_clean_linker_0, # of connection points: 2
#     Edge 100, Type (0, 0), BuildingBlock: AJUNOK_clean_linker_0, # of connection points: 2
#     Edge 101, Type (0, 0), BuildingBlock: AJUNOK_clean_linker_0, # of connection points: 2
#     Edge 102, Type (0, 0), BuildingBlock: AJUNOK_clean_linker_0, # of connection points: 2
#     Edge 103, Type (0, 0), BuildingBlock: AJUNOK_clean_linker_0, # of connection points: 2
#     Edge 104, Type (0, 0), BuildingBlock: AJUNOK_clean_linker_0, # of connection points: 2
#     Edge 105, Type (0, 0), BuildingBlock: AJUNOK_clean_linker_0, # of connection points: 2
#     Edge 106, Type (0, 0), BuildingBlock: AJUNOK_clean_linker_0, # of connection points: 2
#     Edge 107, Type (0, 0), BuildingBlock: AJUNOK_clean_linker_0, # of connection points: 2
#     Edge 108, Type (0, 0), BuildingBlock: AJUNOK_clean_linker_0, # of connection points: 2
#     Edge 109, Type (0, 0), BuildingBlock: AJUNOK_clean_linker_0, # of connection points: 2
#     Edge 110, Type (0, 0), BuildingBlock: AJUNOK_clean_linker_0, # of connection points: 2
#     Edge 111, Type (0, 0), BuildingBlock: AJUNOK_clean_linker_0, # of connection points: 2
# Relax obj value: 0.630
# Max RMSD: 0.258
# Mean RMSD: 0.257
data_MOF--net-yfm--node1-XOMCOT_clean_sbu_1--edge1-AJUNOK_clean_linker_0
_symmetry_space_group_name_H-M    P1
_symmetry_Int_Tables_number       1
_symmetry_cell_setting            triclinic
loop_
_symmetry_equiv_pos_as_xyz
'x, y, z'
_cell_length_a     50.080349
_cell_length_b     49.829992
_cell_length_c     35.072122
_cell_angle_alpha  89.898268
_cell_angle_beta   90.072861
_cell_angle_gamma 89.926289
loop_
_atom_site_label
_atom_site_type_symbol
_atom_site_fract_x
_atom_site_fract_y
_atom_site_fract_z
_atom_type_partial_charge
C0 C 0.31347 0.1332 0.14256 0.0
C1 C 0.30918 0.13647 0.18086 0.0
N2 N 0.29487 0.15905 0.18589 0.0
N3 N 0.30234 0.15384 0.12337 0.0
C4 C 0.29091 0.16925 0.1506 0.0
H5 H 0.32283 0.11605 0.12928 0.0
Co6 Co 0.29973 0.15294 0.0706 0.0
C7 C 0.27414 0.20635 0.04971 0.0
O8 O 0.25782 0.19519 0.02519 0.0
N9 N 0.29746 0.14976 0.01598 0.0
C10 C 0.2813 0.13589 0.95991 0.0
C11 C 0.27494 0.14547 0.99544 0.0
C12 C 0.31729 0.14283 0.99132 0.0
N13 N 0.30797 0.13404 0.95736 0.0
O14 O 0.3365 0.16422 0.06822 0.0
H15 H 0.25483 0.14661 0.00641 0.0
H16 H 0.33813 0.14174 0.99884 0.0
O17 O 0.29003 0.19155 0.06918 0.0
C18 C 0.35484 0.14653 0.07029 0.0
O19 O 0.34867 0.12163 0.0617 0.0
N20 N 0.26443 0.1405 0.07678 0.0
C21 C 0.22183 0.11364 0.11151 0.0
C22 C 0.22281 0.1418 0.11078 0.0
C23 C 0.24428 0.15487 0.09332 0.0
C24 C 0.26279 0.11324 0.07465 0.0
C25 C 0.24151 0.09941 0.09143 0.0
H26 H 0.24579 0.17629 0.09672 0.0
H27 H 0.27918 0.10202 0.06244 0.0
H28 H 0.27845 0.18651 0.14466 0.0
H29 H 0.31423 0.12218 0.20303 0.0
H30 H 0.26731 0.12859 0.93877 0.0
H31 H 0.20819 0.15364 0.12607 0.0
H32 H 0.24122 0.0777 0.09026 0.0
C33 C 0.14023 0.06479 0.39571 0.0
C34 C 0.13718 0.05847 0.43352 0.0
N35 N 0.11616 0.04184 0.43681 0.0
N36 N 0.12116 0.05231 0.3753 0.0
C37 C 0.10672 0.03838 0.40108 0.0
H38 H 0.15599 0.07688 0.38349 0.0
Co39 Co 0.12199 0.05294 0.32292 0.0
C40 C 0.07367 0.02198 0.29778 0.0
O41 O 0.08816 1.00896 0.27261 0.0
N42 N 0.12446 0.05494 0.26927 0.0
C43 C 0.11642 0.06735 0.20933 0.0
C44 C 0.10509 0.06118 0.24394 0.0
C45 C 0.14742 0.05829 0.24943 0.0
N46 N 0.14319 0.06587 0.2128 0.0
O47 O 0.107 0.0886 0.32483 0.0
H48 H 0.08418 0.06349 0.2508 0.0
H49 H 0.16681 0.05843 0.2629 0.0
O50 O 0.08503 0.03887 0.32 0.0
C51 C 0.12043 0.10975 0.31782 0.0
O52 O 0.13932 0.1084 0.29195 0.0
N53 N 0.13831 0.01838 0.32478 0.0
C54 C 0.16781 0.9769 0.35894 0.0
C55 C 0.14016 0.97478 0.35467 0.0
C56 C 0.12572 0.9958 0.33801 0.0
C57 C 0.16554 0.01988 0.32668 0.0
C58 C 0.1807 0.99932 0.34354 0.0
H59 H 0.10437 0.99483 0.34046 0.0
H60 H 0.17542 0.03844 0.31943 0.0
H61 H 0.09049 0.02503 0.39375 0.0
H62 H 0.15024 0.06445 0.45662 0.0
H63 H 0.10573 0.07418 0.1843 0.0
H64 H 0.12951 0.95797 0.36704 0.0
H65 H 0.20202 1.00193 0.34722 0.0
C66 C 0.2139 0.89459 0.64605 0.0
C67 C 0.22008 0.89113 0.68386 0.0
N68 N 0.23784 0.87092 0.68673 0.0
N69 N 0.2275 0.87652 0.62518 0.0
C70 C 0.24199 0.86231 0.65071 0.0
H71 H 0.20099 0.90992 0.63423 0.0
Co72 Co 0.22674 0.87737 0.57261 0.0
C73 C 0.25311 0.82563 0.54826 0.0
O74 O 0.26609 0.8376 0.52047 0.0
N75 N 0.2246 0.87989 0.51896 0.0
C76 C 0.20991 0.87297 0.45977 0.0
C77 C 0.21574 0.8611 0.49429 0.0
C78 C 0.22332 0.90311 0.49882 0.0
N79 N 0.21449 0.8995 0.46268 0.0
O80 O 0.19079 0.86429 0.57483 0.0
H81 H 0.2112 0.84056 0.50185 0.0
H82 H 0.2264 0.92265 0.51136 0.0
O83 O 0.23843 0.8396 0.5705 0.0
C84 C 0.17072 0.87952 0.56957 0.0
O85 O 0.17405 0.90142 0.54921 0.0
N86 N 0.26182 0.89173 0.57374 0.0
C87 C 0.30512 0.91896 0.60612 0.0
C88 C 0.30643 0.8913 0.59967 0.0
C89 C 0.28444 0.87795 0.58388 0.0
C90 C 0.26108 0.91898 0.57757 0.0
C91 C 0.28249 0.93299 0.59375 0.0
H92 H 0.28493 0.85641 0.58429 0.0
H93 H 0.24261 0.92959 0.57231 0.0
H94 H 0.25599 0.84668 0.643 0.0
H95 H 0.21317 0.90345 0.70727 0.0
H96 H 0.20044 0.86322 0.43575 0.0
H97 H 0.32331 0.87975 0.60997 0.0
H98 H 0.28052 0.95429 0.59924 0.0
C99 C 0.38407 0.97625 0.89034 0.0
C100 C 0.38893 0.98097 0.92817 0.0
N101 N 0.41268 0.99331 0.93126 0.0
N102 N 0.4048 0.98525 0.86951 0.0
C103 C 0.42192 0.99588 0.89527 0.0
H104 H 0.36594 0.96795 0.87852 0.0
Co105 Co 0.40295 0.98509 0.81674 0.0
C106 C 0.45659 1.00929 0.79423 0.0
O107 O 0.44583 0.02716 0.77141 0.0
N108 N 0.3989 0.98434 0.76234 0.0
C109 C 0.38666 0.99736 0.7037 0.0
C110 C 0.39754 1.00541 0.73792 0.0
C111 C 0.38852 0.96377 0.7417 0.0
N112 N 0.38066 0.9712 0.70638 0.0
O113 O 0.41319 0.94767 0.81835 0.0
H114 H 0.40099 0.02609 0.74552 0.0
H115 H 0.38471 0.94403 0.75283 0.0
O116 O 0.44151 0.99338 0.81307 0.0
C117 C 0.39528 0.92992 0.82379 0.0
O118 O 0.37023 0.93664 0.81782 0.0
N119 N 0.39157 0.02127 0.81888 0.0
C120 C 0.36485 0.06545 0.85053 0.0
C121 C 0.39287 0.06381 0.85119 0.0
C122 C 0.40585 0.0415 0.83544 0.0
C123 C 0.36465 0.0238 0.81445 0.0
C124 C 0.35096 0.04582 0.82965 0.0
H125 H 0.42694 0.03933 0.84062 0.0
H126 H 0.35339 1.0074 0.80225 0.0
H127 H 0.43984 1.00679 0.88782 0.0
H128 H 0.37506 0.97771 0.95136 0.0
H129 H 0.38088 1.01036 0.68033 0.0
H130 H 0.40471 0.07811 0.86698 0.0
H131 H 0.3294 0.04638 0.8274 0.0
C132 C 0.31326 0.89631 0.86855 0.0
C133 C 0.30947 0.89258 0.83024 0.0
N134 N 0.29499 0.87013 0.8254 0.0
N135 N 0.3015 0.87619 0.88798 0.0
C136 C 0.2903 0.86056 0.86084 0.0
H137 H 0.32266 0.91354 0.88153 0.0
Co138 Co 0.29848 0.87765 0.94067 0.0
C139 C 0.27515 0.82477 0.96476 0.0
O140 O 0.25997 0.83679 0.98997 0.0
N141 N 0.2959 0.88146 0.9953 0.0
C142 C 0.28171 0.89901 0.05041 0.0
C143 C 0.2741 0.88889 0.01558 0.0
C144 C 0.31638 0.88645 0.01969 0.0
N145 N 0.30848 0.89819 0.05262 0.0
O146 O 0.33571 0.86792 0.94362 0.0
H147 H 0.25387 0.88926 1.00486 0.0
H148 H 0.33706 0.88317 0.01278 0.0
O149 O 0.29007 0.83892 0.94304 0.0
C150 C 0.35248 0.8871 0.94235 0.0
O151 O 0.34388 0.91133 0.95067 0.0
N152 N 0.26278 0.88875 0.93382 0.0
C153 C 0.21874 0.91355 0.89968 0.0
C154 C 0.22078 0.88549 0.90097 0.0
C155 C 0.24292 0.87342 0.91836 0.0
C156 C 0.2604 0.91603 0.93453 0.0
C157 C 0.23838 0.92885 0.91799 0.0
H158 H 0.24507 0.85198 0.91594 0.0
H159 H 0.27673 0.92798 0.94542 0.0
H160 H 0.27755 0.84356 0.86685 0.0
H161 H 0.31509 0.90643 0.80784 0.0
H162 H 0.26871 0.90877 0.07078 0.0
H163 H 0.20611 0.87305 0.88677 0.0
H164 H 0.23776 0.95057 0.917 0.0
C165 C 0.38438 0.06239 0.11733 0.0
C166 C 0.38723 0.05899 0.07881 0.0
N167 N 0.40984 0.045 0.0725 0.0
N168 N 0.40495 0.05047 0.13538 0.0
C169 C 0.42015 0.03984 0.10739 0.0
H170 H 0.36796 0.0723 0.13157 0.0
Co171 Co 0.40585 0.04972 0.18778 0.0
C172 C 0.45792 0.02278 0.20685 0.0
O173 O 0.4465 1.00742 0.23262 0.0
N174 N 0.40501 0.05046 0.24142 0.0
C175 C 0.41344 0.0616 0.30169 0.0
C176 C 0.42456 0.05614 0.26669 0.0
C177 C 0.38223 0.05355 0.26163 0.0
N178 N 0.38665 0.06028 0.29848 0.0
O179 O 0.41792 0.08627 0.18663 0.0
H180 H 0.44538 0.05881 0.25968 0.0
H181 H 0.36283 0.05426 0.24825 0.0
O182 O 0.44361 0.03906 0.18734 0.0
C183 C 0.40265 0.10626 0.19252 0.0
O184 O 0.38137 0.10265 0.21374 0.0
N185 N 0.39271 1.01384 0.18567 0.0
C186 C 0.36636 0.9692 0.15458 0.0
C187 C 0.39428 0.9703 0.1559 0.0
C188 C 0.40701 0.99297 0.17055 0.0
C189 C 0.36551 1.01205 0.1874 0.0
C190 C 0.35193 0.98985 0.17224 0.0
H191 H 0.42805 0.99455 0.16522 0.0
H192 H 0.35396 0.02919 0.19641 0.0
H193 H 0.43793 0.02798 0.11242 0.0
H194 H 0.37302 0.06519 0.05724 0.0
H195 H 0.42428 0.06793 0.32679 0.0
H196 H 0.40621 0.95483 0.14246 0.0
H197 H 0.33031 0.99007 0.17122 0.0
C198 C 0.21507 0.13269 0.36459 0.0
C199 C 0.22021 0.13713 0.32667 0.0
N200 N 0.23653 0.15845 0.32375 0.0
N201 N 0.2276 0.15145 0.38567 0.0
C202 C 0.24058 0.16693 0.35993 0.0
H203 H 0.20415 0.11587 0.37624 0.0
Co204 Co 0.23005 0.14861 0.43852 0.0
C205 C 0.25702 0.20053 0.46258 0.0
O206 O 0.27254 0.18824 0.48712 0.0
N207 N 0.2323 0.14367 0.49295 0.0
C208 C 0.24859 0.12814 0.5482 0.0
C209 C 0.25487 0.1383 0.51299 0.0
C210 C 0.21251 0.13667 0.51761 0.0
N211 N 0.22192 0.12688 0.55104 0.0
O212 O 0.19358 0.16084 0.44159 0.0
H213 H 0.27495 0.13925 0.50189 0.0
H214 H 0.1916 0.13631 0.51039 0.0
O215 O 0.24089 0.18677 0.44213 0.0
C216 C 0.1749 0.14356 0.4394 0.0
O217 O 0.18082 0.1183 0.44626 0.0
N218 N 0.26485 0.13515 0.43193 0.0
C219 C 0.30788 0.10749 0.39986 0.0
C220 C 0.30815 0.1356 0.40266 0.0
C221 C 0.28629 0.14912 0.41838 0.0
C222 C 0.2653 0.10781 0.4326 0.0
C223 C 0.28676 0.09356 0.41716 0.0
H224 H 0.28585 0.17067 0.41635 0.0
H225 H 0.24801 0.09699 0.44285 0.0
H226 H 0.2541 0.18296 0.36757 0.0
H227 H 0.21427 0.12429 0.30327 0.0
H228 H 0.26257 0.12014 0.56888 0.0
H229 H 0.32413 0.14724 0.39013 0.0
H230 H 0.28613 0.07185 0.41719 0.0
C231 C 0.14143 0.96674 0.61927 0.0
C232 C 0.13806 0.97048 0.58084 0.0
N233 N 0.11554 0.98475 0.57543 0.0
N234 N 0.12106 0.9784 0.63802 0.0
C235 C 0.10553 0.98932 0.61055 0.0
H236 H 0.15815 0.95687 0.63297 0.0
Co237 Co 0.12128 0.97901 0.69052 0.0
C238 C 0.07194 1.00919 0.7121 0.0
O239 O 0.08604 0.02413 0.73552 0.0
N240 N 0.12338 0.97782 0.74433 0.0
C241 C 0.11547 0.9661 0.80475 0.0
C242 C 0.10402 0.97314 0.77038 0.0
C243 C 0.1463 0.97263 0.76353 0.0
N244 N 0.14211 0.96554 0.8002 0.0
O245 O 0.10814 0.94274 0.68961 0.0
H246 H 0.08294 0.97191 0.76414 0.0
H247 H 0.16556 0.97099 0.74992 0.0
O248 O 0.08379 0.99129 0.69214 0.0
C249 C 0.1234 0.92251 0.69418 0.0
O250 O 0.14515 0.92554 0.71461 0.0
N251 N 0.13538 0.01463 0.68786 0.0
C252 C 0.16362 0.05786 0.65539 0.0
C253 C 0.13575 0.0563 0.65258 0.0
C254 C 0.12207 0.03478 0.66909 0.0
C255 C 0.16236 0.01658 0.69256 0.0
C256 C 0.17672 0.03821 0.67733 0.0
H257 H 0.10119 0.03306 0.66235 0.0
H258 H 0.17344 1.00004 0.70442 0.0
H259 H 0.08804 1.00147 0.61606 0.0
H260 H 0.15206 0.96485 0.55873 0.0
H261 H 0.10495 0.95912 0.82982 0.0
H262 H 0.12463 0.07012 0.63477 0.0
H263 H 0.19824 0.03839 0.68037 0.0
C264 C 0.70752 0.888 0.85611 0.0
C265 C 0.71158 0.88219 0.81831 0.0
N266 N 0.7291 0.86176 0.81614 0.0
N267 N 0.72213 0.8711 0.87769 0.0
C268 C 0.73532 0.85544 0.85251 0.0
H269 H 0.69553 0.90425 0.86729 0.0
Co270 Co 0.72433 0.87514 0.92994 0.0
C271 C 0.75642 0.82663 0.95503 0.0
O272 O 0.7718 0.84119 0.97722 0.0
N273 N 0.72523 0.88077 0.98345 0.0
C274 C 0.71761 0.87591 0.04578 0.0
C275 C 0.72221 0.8627 0.01192 0.0
C276 C 0.72153 0.9048 1.00086 0.0
N277 N 0.71699 0.90245 0.03876 0.0
O278 O 0.68918 0.85973 0.93383 0.0
H279 H 0.72076 0.84126 0.00805 0.0
H280 H 0.71968 0.92355 0.98562 0.0
O281 O 0.7384 0.83825 0.93507 0.0
C282 C 0.66809 0.8733 0.94028 0.0
O283 O 0.67025 0.89542 0.96035 0.0
N284 N 0.75833 0.89153 0.92265 0.0
C285 C 0.79825 0.92079 0.88464 0.0
C286 C 0.80023 0.89289 0.88875 0.0
C287 C 0.78016 0.87863 0.9079 0.0
C288 C 0.75664 0.91883 0.91989 0.0
C289 C 0.77653 0.93386 0.9016 0.0
H290 H 0.78119 0.85709 0.90699 0.0
H291 H 0.7385 0.9289 0.92829 0.0
H292 H 0.75034 0.84082 0.86039 0.0
H293 H 0.70394 0.89347 0.79423 0.0
H294 H 0.71247 0.86659 0.0727 0.0
H295 H 0.81652 0.882 0.8756 0.0
H296 H 0.7739 0.95532 0.89826 0.0
C297 C 0.88875 0.03048 0.61339 0.0
C298 C 0.89976 0.03563 0.57837 0.0
N299 N 0.9241 0.02416 0.57702 0.0
N300 N 0.9063 0.01631 0.63455 0.0
C301 C 0.92743 1.01217 0.61124 0.0
H302 H 0.86904 0.03636 0.62269 0.0
Co303 Co 0.90113 1.00586 0.68512 0.0
C304 C 0.95569 0.02297 0.71402 0.0
O305 O 0.94565 0.04022 0.73846 0.0
N306 N 0.89516 0.99428 0.73657 0.0
C307 C 0.89984 0.97945 0.79641 0.0
C308 C 0.91281 0.98988 0.76519 0.0
C309 C 0.87164 0.98528 0.75116 0.0
N310 N 0.87392 0.97655 0.7876 0.0
O311 O 0.90587 0.96928 0.66961 0.0
H312 H 0.9341 0.99234 0.76352 0.0
H313 H 0.85317 0.98465 0.73521 0.0
O314 O 0.93995 1.00893 0.69342 0.0
C315 C 0.8836 0.9594 0.65913 0.0
O316 O 0.86193 0.97381 0.66419 0.0
N317 N 0.89376 0.04241 0.69733 0.0
C318 C 0.86812 0.08852 0.66961 0.0
C319 C 0.89603 0.08605 0.66779 0.0
C320 C 0.90854 0.06287 0.68195 0.0
C321 C 0.86726 0.04641 0.70448 0.0
C322 C 0.85403 0.06927 0.69076 0.0
H323 H 0.92907 0.05961 0.67387 0.0
H324 H 0.8552 0.03012 0.71496 0.0
H325 H 0.94439 0.99975 0.61855 0.0
H326 H 0.88981 0.04535 0.55468 0.0
H327 H 0.90904 0.97311 0.8229 0.0
H328 H 0.90774 0.10043 0.65176 0.0
H329 H 0.83246 0.06998 0.69253 0.0
C330 C 0.79843 0.13139 0.37164 0.0
C331 C 0.79557 0.13531 0.33321 0.0
N332 N 0.78521 0.15991 0.32751 0.0
N333 N 0.79036 0.15353 0.39038 0.0
C334 C 0.78235 0.1707 0.36266 0.0
H335 H 0.80477 0.11295 0.38518 0.0
Co336 Co 0.78866 0.15391 0.44342 0.0
C337 C 0.76898 0.20797 0.46454 0.0
O338 O 0.75248 0.19615 0.48825 0.0
N339 N 0.78766 0.15276 0.49881 0.0
C340 C 0.77609 0.14032 0.55785 0.0
C341 C 0.76703 0.1455 0.5215 0.0
C342 C 0.80891 0.15263 0.5231 0.0
N343 N 0.80261 0.14442 0.5588 0.0
O344 O 0.82676 0.15722 0.44351 0.0
H345 H 0.74673 0.14237 0.51211 0.0
H346 H 0.82919 0.1567 0.51444 0.0
O347 O 0.78435 0.19348 0.44383 0.0
C348 C 0.83543 0.1333 0.4475 0.0
O349 O 0.81843 0.11498 0.45932 0.0
N350 N 0.75191 0.14675 0.43915 0.0
C351 C 0.70978 0.1222 0.40046 0.0
C352 C 0.71266 0.1502 0.39996 0.0
C353 C 0.73394 0.16219 0.41951 0.0
C354 C 0.74801 0.11974 0.44237 0.0
C355 C 0.72694 0.10708 0.42354 0.0
H356 H 0.73755 0.18326 0.41479 0.0
H357 H 0.76305 0.10752 0.45617 0.0
H358 H 0.77343 0.1901 0.36812 0.0
H359 H 0.7989 0.12043 0.31125 0.0
H360 H 0.76435 0.13177 0.58072 0.0
H361 H 0.69968 0.16248 0.38242 0.0
H362 H 0.72563 0.08538 0.42421 0.0
C363 C 0.64162 0.06896 0.10626 0.0
C364 C 0.63791 0.06297 0.0684 0.0
N365 N 0.61731 0.04575 0.0657 0.0
N366 N 0.62347 0.05553 0.12717 0.0
C367 C 0.60888 0.04155 0.10167 0.0
H368 H 0.65721 0.08147 0.11805 0.0
Co369 Co 0.62388 0.0555 0.17966 0.0
C370 C 0.5744 0.02534 0.20178 0.0
O371 O 0.58756 1.01129 0.22743 0.0
N372 N 0.62534 0.05698 0.23342 0.0
C373 C 0.61495 0.0702 0.29228 0.0
C374 C 0.60502 0.06345 0.25707 0.0
C375 C 0.64752 0.06086 0.25491 0.0
N376 N 0.64172 0.06884 0.29085 0.0
O377 O 0.60925 0.09111 0.17806 0.0
H378 H 0.58448 0.06613 0.24841 0.0
H379 H 0.66754 0.06058 0.24342 0.0
O380 O 0.587 0.04218 0.18098 0.0
C381 C 0.62294 0.11206 0.18479 0.0
O382 O 0.64376 0.10985 0.20741 0.0
N383 N 0.63969 0.02058 0.17766 0.0
C384 C 0.6686 0.97939 0.14175 0.0
C385 C 0.64082 0.97801 0.14505 0.0
C386 C 0.62676 0.99867 0.16299 0.0
C387 C 0.66698 0.02126 0.17707 0.0
C388 C 0.68186 1.00076 0.15951 0.0
H389 H 0.60542 0.99812 0.16029 0.0
H390 H 0.67724 0.0392 0.18618 0.0
H391 H 0.59326 0.02755 0.10924 0.0
H392 H 0.6504 0.06941 0.04493 0.0
H393 H 0.60351 0.07837 0.31574 0.0
H394 H 0.62982 0.96198 0.13135 0.0
H395 H 0.70332 1.0028 0.15702 0.0
C396 C 0.71026 0.13878 0.14548 0.0
C397 C 0.7145 0.14426 0.18332 0.0
N398 N 0.73327 0.16348 0.18574 0.0
N399 N 0.72596 0.15472 0.1241 0.0
C400 C 0.74007 0.1694 0.14945 0.0
H401 H 0.6972 0.12346 0.13412 0.0
Co402 Co 0.72739 0.15094 0.07181 0.0
C403 C 0.75873 0.19923 0.04476 0.0
O404 O 0.7731 0.18465 0.02127 0.0
N405 N 0.72736 0.14566 0.01836 0.0
C406 C 0.71682 0.15143 0.95708 0.0
C407 C 0.72229 0.16412 0.991 0.0
C408 C 0.72396 0.12183 1.00034 0.0
N409 N 0.71764 0.12477 0.96299 0.0
O410 O 0.6923 0.1666 0.06906 0.0
H411 H 0.71989 0.18538 0.99596 0.0
H412 H 0.72361 0.10274 0.01501 0.0
O413 O 0.74159 0.18772 0.06634 0.0
C414 C 0.67113 0.15325 0.06249 0.0
O415 O 0.67318 0.1308 0.04315 0.0
N416 N 0.76139 0.13426 0.07806 0.0
C417 C 0.80187 0.10541 0.1161 0.0
C418 C 0.80454 0.13297 0.10879 0.0
C419 C 0.78405 0.14706 0.09016 0.0
C420 C 0.75907 0.10721 0.08336 0.0
C421 C 0.77899 0.09244 0.10224 0.0
H422 H 0.78559 0.16856 0.08951 0.0
H423 H 0.74047 0.09738 0.07642 0.0
H424 H 0.75585 0.18317 0.14171 0.0
H425 H 0.70588 0.13363 0.20727 0.0
H426 H 0.71002 0.16106 0.93113 0.0
H427 H 0.82139 0.14404 0.12002 0.0
H428 H 0.77591 0.07124 0.10752 0.0
C429 C 0.64191 0.96048 0.89161 0.0
C430 C 0.63832 0.96681 0.92928 0.0
N431 N 0.61684 0.98297 0.93209 0.0
N432 N 0.62264 0.97235 0.87069 0.0
C433 C 0.60751 0.98583 0.89615 0.0
H434 H 0.6585 0.94934 0.87988 0.0
Co435 Co 0.6245 0.97381 0.81812 0.0
C436 C 0.57353 1.00141 0.79326 0.0
O437 O 0.58597 0.01527 0.76691 0.0
N438 N 0.62834 0.97471 0.76365 0.0
C439 C 0.64308 0.98738 0.7062 0.0
C440 C 0.63578 0.99594 0.74196 0.0
C441 C 0.63124 0.9535 0.73969 0.0
N442 N 0.64052 0.96056 0.70491 0.0
O443 O 0.61112 0.93765 0.81706 0.0
H444 H 0.63771 0.01634 0.75195 0.0
H445 H 0.62826 0.93286 0.74782 0.0
O446 O 0.58694 0.9859 0.81521 0.0
C447 C 0.62838 0.91893 0.81924 0.0
O448 O 0.65321 0.92471 0.81027 0.0
N449 N 0.63919 1.00855 0.82329 0.0
C450 C 0.66746 0.04964 0.85945 0.0
C451 C 0.63972 0.05135 0.8548 0.0
C452 C 0.62585 0.03052 0.83678 0.0
C453 C 0.66642 1.0077 0.82474 0.0
C454 C 0.681 0.0281 0.84265 0.0
H455 H 0.60436 0.03106 0.83741 0.0
H456 H 0.67671 0.98982 0.8152 0.0
H457 H 0.59104 0.99877 0.88828 0.0
H458 H 0.65166 0.9616 0.95248 0.0
H459 H 0.65202 0.99968 0.68418 0.0
H460 H 0.62869 0.06788 0.86715 0.0
H461 H 0.70242 0.02602 0.84584 0.0
C462 C 0.79487 0.89504 0.63159 0.0
C463 C 0.79177 0.8911 0.66997 0.0
N464 N 0.78187 0.86632 0.67554 0.0
N465 N 0.7874 0.87273 0.61276 0.0
C466 C 0.77953 0.85545 0.64037 0.0
H467 H 0.80094 0.91358 0.61815 0.0
Co468 Co 0.78598 0.87197 0.55972 0.0
C469 C 0.76979 0.81632 0.53982 0.0
O470 O 0.75287 0.82627 0.51493 0.0
N471 N 0.78509 0.87278 0.5043 0.0
C472 C 0.77159 0.8836 0.4454 0.0
C473 C 0.76354 0.87734 0.48179 0.0
C474 C 0.80602 0.87561 0.47976 0.0
N475 N 0.79839 0.88283 0.44416 0.0
O476 O 0.82412 0.87 0.56 0.0
H477 H 0.74305 0.8778 0.49132 0.0
H478 H 0.82673 0.87478 0.48823 0.0
O479 O 0.78372 0.83237 0.56019 0.0
C480 C 0.83259 0.89399 0.55671 0.0
O481 O 0.81554 0.91239 0.5451 0.0
N482 N 0.74884 0.87748 0.56343 0.0
C483 C 0.70349 0.89981 0.59757 0.0
C484 C 0.70815 0.872 0.59895 0.0
C485 C 0.73105 0.86117 0.58179 0.0
C486 C 0.74355 0.90419 0.55951 0.0
C487 C 0.72097 0.91573 0.57609 0.0
H488 H 0.73569 0.84035 0.58707 0.0
H489 H 0.75839 0.91713 0.54672 0.0
H490 H 0.77115 0.83585 0.63479 0.0
H491 H 0.79467 0.90605 0.69196 0.0
H492 H 0.75877 0.89007 0.42226 0.0
H493 H 0.69524 0.85903 0.61548 0.0
H494 H 0.71867 0.93733 0.57506 0.0
C495 C 0.88814 0.99802 0.39108 0.0
C496 C 0.89839 0.99317 0.42668 0.0
N497 N 0.92332 1.00326 0.42822 0.0
N498 N 0.90675 1.0105 0.36977 0.0
C499 C 0.92785 1.01391 0.39342 0.0
H500 H 0.86832 0.99288 0.38125 0.0
Co501 Co 0.90207 0.01972 0.31864 0.0
C502 C 0.95828 1.00172 0.29577 0.0
O503 O 0.95006 0.98024 0.27757 0.0
N504 N 0.89643 0.02997 0.2667 0.0
C505 C 0.89921 0.03586 0.20373 0.0
C506 C 0.91086 0.02421 0.23523 0.0
C507 C 0.87588 0.04513 0.25312 0.0
N508 N 0.87723 0.04923 0.21494 0.0
O509 O 0.90602 0.05675 0.33295 0.0
H510 H 0.92861 1.01212 0.23443 0.0
H511 H 0.86012 0.05307 0.27085 0.0
O512 O 0.94119 0.01747 0.3111 0.0
C513 C 0.88406 0.06566 0.34622 0.0
O514 O 0.86287 0.05022 0.34403 0.0
N515 N 0.89535 0.98277 0.30755 0.0
C516 C 0.86611 0.93886 0.33507 0.0
C517 C 0.89364 0.94104 0.34235 0.0
C518 C 0.90808 0.96283 0.32757 0.0
C519 C 0.86985 0.97864 0.29517 0.0
C520 C 0.855 0.95667 0.30822 0.0
H521 H 0.92784 0.96619 0.33897 0.0
H522 H 0.8594 0.99432 0.27994 0.0
H523 H 0.94581 0.02461 0.38572 0.0
H524 H 0.88768 0.98451 0.45047 0.0
H525 H 0.90609 0.03401 0.17462 0.0
H526 H 0.90334 0.92829 0.36316 0.0
H527 H 0.83409 0.95542 0.30056 0.0
C528 C 0.81848 0.63438 0.64999 0.0
C529 C 0.81394 0.64041 0.68759 0.0
N530 N 0.79815 0.66224 0.68905 0.0
N531 N 0.80572 0.65238 0.62774 0.0
C532 C 0.79337 0.66911 0.65243 0.0
H533 H 0.82917 0.61704 0.63951 0.0
Co534 Co 0.80327 0.64819 0.57526 0.0
C535 C 0.77616 0.69886 0.54794 0.0
O536 O 0.76058 0.68546 0.52474 0.0
N537 N 0.80142 0.64212 0.52109 0.0
C538 C 0.7874 0.62594 0.465 0.0
C539 C 0.77967 0.63524 0.50023 0.0
C540 C 0.82207 0.6368 0.49711 0.0
N541 N 0.81413 0.62683 0.4632 0.0
O542 O 0.83972 0.66022 0.57182 0.0
H543 H 0.7594 0.63481 0.51071 0.0
H544 H 0.84284 0.63815 0.50475 0.0
O545 O 0.79244 0.68609 0.56945 0.0
C546 C 0.85784 0.64236 0.57458 0.0
O547 O 0.85097 0.6172 0.56897 0.0
N548 N 0.76822 0.63495 0.58252 0.0
C549 C 0.72564 0.60817 0.6179 0.0
C550 C 0.72596 0.63631 0.61503 0.0
C551 C 0.74738 0.64933 0.59721 0.0
C552 C 0.7674 0.6076 0.58273 0.0
C553 C 0.74613 0.59382 0.59969 0.0
H554 H 0.74812 0.6709 0.59855 0.0
H555 H 0.78427 0.59638 0.57191 0.0
H556 H 0.77981 0.68495 0.64396 0.0
H557 H 0.82003 0.62848 0.71195 0.0
H558 H 0.77457 0.61675 0.44386 0.0
H559 H 0.71072 0.64833 0.62871 0.0
H560 H 0.7464 0.5721 0.5999 0.0
C561 C 0.64074 0.55989 0.90045 0.0
C562 C 0.63684 0.55423 0.9383 0.0
N563 N 0.61484 0.53894 0.94145 0.0
N564 N 0.62139 0.54807 0.8798 0.0
C565 C 0.60588 0.53526 0.90556 0.0
H566 H 0.65731 0.57092 0.88839 0.0
Co567 Co 0.62267 0.5484 0.82736 0.0
C568 C 0.57174 0.5208 0.80382 0.0
O569 O 0.58471 0.50579 0.77923 0.0
N570 N 0.62558 0.55003 0.77347 0.0
C571 C 0.61849 0.5622 0.71311 0.0
C572 C 0.60661 0.55615 0.74744 0.0
C573 C 0.64883 0.55322 0.75418 0.0
N574 N 0.64521 0.56072 0.71737 0.0
O575 O 0.61045 0.58515 0.82899 0.0
H576 H 0.58563 0.55865 0.75358 0.0
H577 H 0.668 0.55355 0.76822 0.0
O578 O 0.58482 0.53733 0.82454 0.0
C579 C 0.62521 0.60526 0.82128 0.0
O580 O 0.6449 0.60195 0.79707 0.0
N581 N 0.63642 0.5127 0.82948 0.0
C582 C 0.66432 0.47008 0.86456 0.0
C583 C 0.63636 0.46966 0.86131 0.0
C584 C 0.62281 0.49117 0.84405 0.0
C585 C 0.66367 0.51238 0.82976 0.0
C586 C 0.67793 0.49124 0.84657 0.0
H587 H 0.60146 0.49161 0.84707 0.0
H588 H 0.67456 0.53003 0.8212 0.0
H589 H 0.58934 0.52231 0.89818 0.0
H590 H 0.65015 0.55937 0.96146 0.0
H591 H 0.60818 0.56901 0.68775 0.0
H592 H 0.62469 0.4543 0.87532 0.0
H593 H 0.69949 0.49254 0.84787 0.0
C594 C 0.7336 0.33111 0.13849 0.0
C595 C 0.73865 0.32984 0.17692 0.0
N596 N 0.74816 0.35381 0.18799 0.0
N597 N 0.7403 0.35569 0.12531 0.0
C598 C 0.74892 0.36916 0.15628 0.0
H599 H 0.72541 0.31512 0.12141 0.0
Co600 Co 0.73873 0.36746 0.07503 0.0
C601 C 0.7622 0.317 0.03888 0.0
O602 O 0.78155 0.3298 0.02148 0.0
N603 N 0.73662 0.37961 0.02278 0.0
C604 C 0.74873 0.39559 0.9657 0.0
C605 C 0.75729 0.38286 0.99832 0.0
C606 C 0.7155 0.39029 1.00341 0.0
N607 N 0.72242 0.40013 0.96884 0.0
O608 O 0.70093 0.36071 0.07684 0.0
H609 H 0.77787 0.37806 1.00447 0.0
H610 H 0.6956 0.39226 0.01486 0.0
O611 O 0.74527 0.33023 0.05862 0.0
C612 C 0.68908 0.38189 0.08831 0.0
O613 O 0.70242 0.40457 0.08706 0.0
N614 N 0.77541 0.37667 0.07833 0.0
C615 C 0.82031 0.39954 0.11332 0.0
C616 C 0.81706 0.37154 0.11207 0.0
C617 C 0.79444 0.36045 0.09439 0.0
C618 C 0.77922 0.40378 0.07722 0.0
C619 C 0.80167 0.41557 0.09397 0.0
H620 H 0.79078 0.33921 0.09774 0.0
H621 H 0.76347 0.41664 0.06653 0.0
H622 H 0.7564 0.38952 0.15528 0.0
H623 H 0.73541 0.31273 0.19539 0.0
H624 H 0.76112 0.40223 0.94223 0.0
H625 H 0.83093 0.35846 0.12684 0.0
H626 H 0.80317 0.43725 0.0947 0.0
C627 C 0.89092 0.47287 0.39883 0.0
C628 C 0.89544 0.47903 0.43631 0.0
N629 N 0.9186 0.49251 0.43868 0.0
N630 N 0.91125 0.48214 0.37739 0.0
C631 C 0.9278 0.49441 0.40252 0.0
H632 H 0.87322 0.46331 0.38764 0.0
Co633 Co 0.90916 0.48035 0.32441 0.0
C634 C 0.96204 0.50113 0.29617 0.0
O635 O 0.95026 0.51553 0.26971 0.0
N636 N 0.90487 0.47792 0.26962 0.0
C637 C 0.88872 0.4879 0.21173 0.0
C638 C 0.89844 0.49815 0.24541 0.0
C639 C 0.89947 0.45553 0.24877 0.0
N640 N 0.88873 0.46099 0.21416 0.0
O641 O 0.91782 0.44291 0.32824 0.0
H642 H 0.89867 0.51924 0.25248 0.0
H643 H 0.90208 0.43534 0.25911 0.0
O644 O 0.94782 0.48787 0.3199 0.0
C645 C 0.89744 0.42778 0.33103 0.0
O646 O 0.87406 0.43782 0.32146 0.0
N647 N 0.89842 0.51645 0.32471 0.0
C648 C 0.87241 0.55996 0.35797 0.0
C649 C 0.90032 0.5597 0.3548 0.0
C650 C 0.91309 0.53756 0.33809 0.0
C651 C 0.87122 0.5177 0.32444 0.0
C652 C 0.85778 0.5393 0.34097 0.0
H653 H 0.93453 0.53618 0.34017 0.0
H654 H 0.85989 0.50039 0.31528 0.0
H655 H 0.9454 0.5056 0.39442 0.0
H656 H 0.88188 0.47545 0.45978 0.0
H657 H 0.88007 0.49945 0.18863 0.0
H658 H 0.91219 0.5752 0.36822 0.0
H659 H 0.83623 0.53866 0.34351 0.0
C660 C 0.80468 0.40452 0.38253 0.0
C661 C 0.79978 0.40441 0.34411 0.0
N662 N 0.78735 0.3813 0.33557 0.0
N663 N 0.79554 0.38154 0.39803 0.0
C664 C 0.78532 0.3675 0.36858 0.0
H665 H 0.81344 0.42079 0.3986 0.0
Co666 Co 0.79518 0.37824 0.45018 0.0
C667 C 0.76803 0.32574 0.46587 0.0
O668 O 0.75232 0.3374 0.49089 0.0
N669 N 0.79661 0.37744 0.50406 0.0
C670 C 0.80971 0.36761 0.56341 0.0
C671 C 0.8016 0.35718 0.52882 0.0
C672 C 0.80254 0.39981 0.52424 0.0
N673 N 0.81056 0.39447 0.56024 0.0
O674 O 0.8313 0.36596 0.44783 0.0
H675 H 0.80258 0.33619 0.52134 0.0
H676 H 0.80413 0.41949 0.51152 0.0
O677 O 0.7847 0.34007 0.44722 0.0
C678 C 0.85019 0.38289 0.44913 0.0
O679 O 0.84487 0.40693 0.46229 0.0
N680 N 0.75938 0.39152 0.44916 0.0
C681 C 0.71769 0.42086 0.41497 0.0
C682 C 0.71846 0.39282 0.4126 0.0
C683 C 0.73949 0.37856 0.4296 0.0
C684 C 0.7575 0.41859 0.45459 0.0
C685 C 0.73671 0.43355 0.43818 0.0
H686 H 0.74125 0.35768 0.4223 0.0
H687 H 0.77378 0.42933 0.46756 0.0
H688 H 0.77515 0.34846 0.37152 0.0
H689 H 0.80436 0.42034 0.32413 0.0
H690 H 0.81735 0.35626 0.58743 0.0
H691 H 0.70444 0.38215 0.39464 0.0
H692 H 0.73673 0.45517 0.44129 0.0
C693 C 0.88786 0.56176 0.62124 0.0
C694 C 0.89272 0.55859 0.58306 0.0
N695 N 0.91585 0.54511 0.57903 0.0
N696 N 0.90793 0.55065 0.64143 0.0
C697 C 0.92457 0.54019 0.61491 0.0
H698 H 0.8703 0.57087 0.63366 0.0
Co699 Co 0.90606 0.549 0.69423 0.0
C700 C 0.95844 0.52365 0.71888 0.0
O701 O 0.94687 0.50925 0.74545 0.0
N702 N 0.90188 0.54785 0.74874 0.0
C703 C 0.88624 0.53388 0.80512 0.0
C704 C 0.89611 0.52604 0.77031 0.0
C705 C 0.89552 0.5687 0.77199 0.0
N706 N 0.88552 0.56083 0.80607 0.0
O707 O 0.91812 0.58576 0.69557 0.0
H708 H 0.89664 0.5055 0.7605 0.0
H709 H 0.89642 0.58946 0.76359 0.0
O710 O 0.94416 0.53855 0.69719 0.0
C711 C 0.90116 0.60472 0.69254 0.0
O712 O 0.87606 0.59939 0.70048 0.0
N713 N 0.89309 0.51368 0.68918 0.0
C714 C 0.86678 0.46941 0.65789 0.0
C715 C 0.89476 0.47006 0.66029 0.0
C716 C 0.90759 0.49255 0.67552 0.0
C717 C 0.86588 0.51244 0.68993 0.0
C718 C 0.85229 0.4904 0.6746 0.0
H719 H 0.92898 0.49373 0.67298 0.0
H720 H 0.85462 0.52968 0.69961 0.0
H721 H 0.94198 0.52819 0.62163 0.0
H722 H 0.87942 0.56425 0.56005 0.0
H723 H 0.87766 0.52067 0.82634 0.0
H724 H 0.90671 0.45412 0.64805 0.0
H725 H 0.83068 0.49081 0.67313 0.0
C726 C 0.72235 0.63653 0.86877 0.0
C727 C 0.72696 0.64035 0.83067 0.0
N728 N 0.74058 0.66342 0.82628 0.0
N729 N 0.73252 0.6573 0.88851 0.0
C730 C 0.74359 0.67347 0.86185 0.0
H731 H 0.71324 0.61905 0.88155 0.0
Co732 Co 0.73341 0.65616 0.94126 0.0
C733 C 0.757 0.70899 0.96559 0.0
O734 O 0.771 0.6971 0.99236 0.0
N735 N 0.73361 0.65274 0.99613 0.0
C736 C 0.74534 0.63613 0.05306 0.0
C737 C 0.75446 0.64532 0.01844 0.0
C738 C 0.71212 0.64862 0.01908 0.0
N739 N 0.71853 0.63752 0.05322 0.0
O740 O 0.69623 0.66626 0.9407 0.0
H741 H 0.77506 0.64448 0.00943 0.0
H742 H 0.69185 0.65248 0.01047 0.0
O743 O 0.74229 0.6948 0.9436 0.0
C744 C 0.67892 0.64756 0.93924 0.0
O745 O 0.68639 0.6232 0.94897 0.0
N746 N 0.76934 0.64461 0.93756 0.0
C747 C 0.81407 0.61917 0.90612 0.0
C748 C 0.81215 0.64725 0.90673 0.0
C749 C 0.78963 0.65963 0.92256 0.0
C750 C 0.77163 0.61734 0.93922 0.0
C751 C 0.79394 0.60421 0.92399 0.0
H752 H 0.78758 0.68101 0.91905 0.0
H753 H 0.755 0.60557 0.94955 0.0
H754 H 0.7548 0.69141 0.86848 0.0
H755 H 0.72246 0.62621 0.80816 0.0
H756 H 0.75745 0.62679 0.07498 0.0
H757 H 0.82718 0.65948 0.89294 0.0
H758 H 0.79435 0.58248 0.92348 0.0
C759 C 0.64829 0.47466 0.12712 0.0
C760 C 0.64413 0.47682 0.08871 0.0
N761 N 0.61983 0.48768 0.08298 0.0
N762 N 0.6267 0.48393 0.14583 0.0
C763 C 0.60969 0.49208 0.11814 0.0
H764 H 0.66652 0.46799 0.14066 0.0
Co765 Co 0.62765 0.48695 0.19834 0.0
C766 C 0.57302 0.50762 0.22055 0.0
O767 O 0.58382 0.52417 0.24515 0.0
N768 N 0.63105 0.48957 0.25312 0.0
C769 C 0.64557 0.50615 0.3087 0.0
C770 C 0.63519 0.51231 0.27345 0.0
C771 C 0.63867 0.46982 0.27781 0.0
N772 N 0.64804 0.47939 0.31128 0.0
O773 O 0.62086 0.44892 0.20094 0.0
H774 H 0.63321 0.53249 0.26248 0.0
H775 H 0.63983 0.44885 0.27063 0.0
O776 O 0.58826 0.4929 0.2 0.0
C777 C 0.64168 0.43421 0.19995 0.0
O778 O 0.66476 0.44539 0.20817 0.0
N779 N 0.63641 0.52357 0.19163 0.0
C780 C 0.65913 0.56886 0.15685 0.0
C781 C 0.63125 0.56558 0.15844 0.0
C782 C 0.62028 0.5426 0.17542 0.0
C783 C 0.66334 0.5275 0.19307 0.0
C784 C 0.67509 0.55 0.17607 0.0
H785 H 0.59915 0.53917 0.17224 0.0
H786 H 0.67601 0.51185 0.20459 0.0
H787 H 0.59096 0.50223 0.12353 0.0
H788 H 0.65866 0.47251 0.06671 0.0
H789 H 0.65301 0.52036 0.32947 0.0
H790 H 0.61806 0.5798 0.14455 0.0
H791 H 0.69666 0.55146 0.17539 0.0
C792 C 0.21485 0.38644 0.36183 0.0
C793 C 0.22205 0.38451 0.32423 0.0
N794 N 0.24103 0.36551 0.32132 0.0
N795 N 0.22905 0.36859 0.38244 0.0
C796 C 0.24496 0.35608 0.35699 0.0
H797 H 0.20089 0.40071 0.37379 0.0
Co798 Co 0.22717 0.36852 0.43483 0.0
C799 C 0.25374 0.31801 0.4609 0.0
O800 O 0.26521 0.33114 0.48896 0.0
N801 N 0.22365 0.37012 0.48832 0.0
C802 C 0.20362 0.36341 0.54416 0.0
C803 C 0.21177 0.35159 0.51069 0.0
C804 C 0.22255 0.39299 0.50909 0.0
N805 N 0.20989 0.38969 0.54292 0.0
O806 O 0.19135 0.35492 0.43039 0.0
H807 H 0.20664 0.3315 0.50164 0.0
H808 H 0.22911 0.41211 0.4983 0.0
O809 O 0.23933 0.33087 0.43688 0.0
C810 C 0.1705 0.36881 0.43685 0.0
O811 O 0.1726 0.38969 0.45949 0.0
N812 N 0.26221 0.38342 0.4357 0.0
C813 C 0.30566 0.4119 0.40465 0.0
C814 C 0.30694 0.38399 0.41008 0.0
C815 C 0.28506 0.37013 0.42544 0.0
C816 C 0.26137 0.41073 0.43304 0.0
C817 C 0.28288 0.42531 0.41823 0.0
H818 H 0.28575 0.34859 0.42431 0.0
H819 H 0.24279 0.42114 0.43826 0.0
H820 H 0.25992 0.34131 0.36453 0.0
H821 H 0.21504 0.39712 0.30111 0.0
H822 H 0.19167 0.35389 0.56603 0.0
H823 H 0.32355 0.37245 0.39914 0.0
H824 H 0.28082 0.44683 0.41494 0.0
C825 C 0.38591 0.46566 0.12082 0.0
C826 C 0.38975 0.47106 0.0829 0.0
N827 N 0.41123 0.48705 0.07958 0.0
N828 N 0.40512 0.47778 0.14152 0.0
C829 C 0.42026 0.49087 0.11553 0.0
H830 H 0.36917 0.45487 0.13271 0.0
Co831 Co 0.40295 0.47929 0.19443 0.0
C832 C 0.45552 0.50432 0.21944 0.0
O833 O 0.44364 0.51904 0.24532 0.0
N834 N 0.39828 0.48034 0.24908 0.0
C835 C 0.38177 0.49534 0.3044 0.0
C836 C 0.3929 0.50251 0.27008 0.0
C837 C 0.3904 0.45989 0.27236 0.0
N838 N 0.38009 0.46849 0.30581 0.0
O839 O 0.41437 0.44237 0.19596 0.0
H840 H 0.39427 0.52294 0.25996 0.0
H841 H 0.38971 0.43911 0.26401 0.0
O842 O 0.44138 0.48933 0.19774 0.0
C843 C 0.39633 0.42456 0.19245 0.0
O844 O 0.37152 0.43154 0.19972 0.0
N845 N 0.39016 0.51471 0.18913 0.0
C846 C 0.3629 0.55742 0.15487 0.0
C847 C 0.39076 0.55823 0.15929 0.0
C848 C 0.40414 0.53641 0.17606 0.0
C849 C 0.36296 0.51494 0.18861 0.0
C850 C 0.34893 0.53613 0.17181 0.0
H851 H 0.42564 0.53605 0.17498 0.0
H852 H 0.35216 0.49741 0.19825 0.0
H853 H 0.43649 0.50421 0.12288 0.0
H854 H 0.37659 0.46537 0.05977 0.0
H855 H 0.37316 0.5089 0.32513 0.0
H856 H 0.40228 0.57442 0.14692 0.0
H857 H 0.32737 0.53499 0.16987 0.0
C858 C 0.31446 0.63735 0.86993 0.0
C859 C 0.31041 0.64208 0.83185 0.0
N860 N 0.29492 0.66402 0.82832 0.0
N861 N 0.30184 0.65636 0.89047 0.0
C862 C 0.28993 0.67231 0.86425 0.0
H863 H 0.32462 0.62015 0.88192 0.0
Co864 Co 0.29871 0.65382 0.94305 0.0
C865 C 0.27469 0.70698 0.9672 0.0
O866 O 0.25935 0.69556 0.99276 0.0
N867 N 0.2961 0.64903 0.99741 0.0
C868 C 0.28021 0.633 0.05252 0.0
C869 C 0.27365 0.64381 0.01764 0.0
C870 C 0.31601 0.64144 0.02161 0.0
N871 N 0.30691 0.6314 0.05492 0.0
O872 O 0.33557 0.66441 0.94677 0.0
H873 H 0.25352 0.64518 0.00669 0.0
H874 H 0.33683 0.64068 0.0141 0.0
O875 O 0.2896 0.69238 0.94613 0.0
C876 C 0.35325 0.64613 0.94433 0.0
O877 O 0.34588 0.62117 0.95051 0.0
N878 N 0.26315 0.64213 0.9357 0.0
C879 C 0.21894 0.61716 0.90205 0.0
C880 C 0.22054 0.64523 0.90417 0.0
C881 C 0.24277 0.65737 0.92125 0.0
C882 C 0.26124 0.61484 0.9357 0.0
C883 C 0.23925 0.60194 0.91928 0.0
H884 H 0.24441 0.67889 0.91965 0.0
H885 H 0.27788 0.60297 0.94595 0.0
H886 H 0.27647 0.68858 0.87119 0.0
H887 H 0.31649 0.62913 0.80865 0.0
H888 H 0.2664 0.62439 0.07286 0.0
H889 H 0.20538 0.65771 0.891 0.0
H890 H 0.23915 0.58024 0.91764 0.0
C891 C 0.14234 0.56119 0.61419 0.0
C892 C 0.13825 0.55503 0.57656 0.0
N893 N 0.11787 0.53752 0.57433 0.0
N894 N 0.12437 0.54802 0.63579 0.0
C895 C 0.10971 0.53361 0.61068 0.0
H896 H 0.1585 0.57323 0.62527 0.0
Co897 Co 0.12761 0.54643 0.68853 0.0
C898 C 0.0756 0.52299 0.71706 0.0
O899 O 0.08734 0.51085 0.74575 0.0
N900 N 0.13313 0.54518 0.74291 0.0
C901 C 0.15047 0.53127 0.79835 0.0
C902 C 0.14069 0.52343 0.7635 0.0
C903 C 0.1383 0.56599 0.76687 0.0
N904 N 0.14929 0.55818 0.8004 0.0
O905 O 0.11577 0.58312 0.69055 0.0
H906 H 0.14102 0.50302 0.75318 0.0
H907 H 0.13565 0.58681 0.75944 0.0
O908 O 0.08971 0.53598 0.69293 0.0
C909 C 0.1337 0.60114 0.6886 0.0
O910 O 0.15855 0.59409 0.69561 0.0
N911 N 0.14067 0.5113 0.6827 0.0
C912 C 0.16614 0.46803 0.64798 0.0
C913 C 0.13889 0.46671 0.6569 0.0
C914 C 0.12633 0.4888 0.67397 0.0
C915 C 0.16759 0.51188 0.67715 0.0
C916 C 0.18073 0.49052 0.65951 0.0
H917 H 0.10491 0.48853 0.67678 0.0
H918 H 0.17849 0.53012 0.68319 0.0
H919 H 0.09449 0.51938 0.61901 0.0
H920 H 0.15058 0.56139 0.55287 0.0
H921 H 0.16009 0.51824 0.81893 0.0
H922 H 0.127 0.44972 0.64786 0.0
H923 H 0.20175 0.49229 0.6527 0.0
C924 C 0.2159 0.6379 0.64906 0.0
C925 C 0.22136 0.64158 0.68702 0.0
N926 N 0.23715 0.66329 0.6905 0.0
N927 N 0.22782 0.6574 0.62869 0.0
C928 C 0.24067 0.67266 0.65468 0.0
H929 H 0.20468 0.6215 0.63678 0.0
Co930 Co 0.22744 0.65673 0.57612 0.0
C931 C 0.25428 0.70806 0.55205 0.0
O932 O 0.26808 0.69547 0.52569 0.0
N933 N 0.22562 0.65446 0.52232 0.0
C934 C 0.21009 0.66217 0.46366 0.0
C935 C 0.21675 0.67364 0.49807 0.0
C936 C 0.22365 0.63144 0.5019 0.0
N937 N 0.21449 0.63563 0.46611 0.0
O938 O 0.19134 0.66974 0.57781 0.0
H939 H 0.21241 0.69413 0.50605 0.0
H940 H 0.22562 0.61167 0.51429 0.0
O941 O 0.23889 0.69457 0.57395 0.0
C942 C 0.17138 0.65447 0.57213 0.0
O943 O 0.17502 0.63268 0.5518 0.0
N944 N 0.26272 0.64251 0.57794 0.0
C945 C 0.3054 0.61527 0.61264 0.0
C946 C 0.30579 0.64321 0.60876 0.0
C947 C 0.28428 0.65649 0.5915 0.0
C948 C 0.26293 0.6151 0.57944 0.0
C949 C 0.28417 0.60106 0.59639 0.0
H950 H 0.28396 0.678 0.59361 0.0
H951 H 0.24517 0.6041 0.57174 0.0
H952 H 0.25327 0.68953 0.64742 0.0
H953 H 0.21562 0.62831 0.71007 0.0
H954 H 0.20016 0.67211 0.4401 0.0
H955 H 0.3217 0.65485 0.62154 0.0
H956 H 0.2829 0.57948 0.59962 0.0
C957 C 0.14507 0.45696 0.39598 0.0
C958 C 0.13975 0.46096 0.43386 0.0
N959 N 0.11958 0.47873 0.43674 0.0
N960 N 0.12802 0.47166 0.37475 0.0
C961 C 0.11294 0.48508 0.40041 0.0
H962 H 0.16139 0.44522 0.38472 0.0
Co963 Co 0.13158 0.47545 0.32227 0.0
C964 C 0.07683 0.48079 0.2939 0.0
O965 O 0.08368 0.46412 0.26665 0.0
N966 N 0.13693 0.47917 0.2688 0.0
C967 C 0.14357 0.4972 0.21117 0.0
C968 C 0.13247 0.50107 0.24682 0.0
C969 C 0.15042 0.46222 0.24545 0.0
N970 N 0.15467 0.47263 0.21049 0.0
O971 O 0.11875 0.43914 0.31672 0.0
H972 H 0.12286 0.51924 0.25654 0.0
H973 H 0.15849 0.44314 0.254 0.0
O974 O 0.09422 0.48811 0.31856 0.0
C975 C 0.13541 0.41988 0.31919 0.0
O976 O 0.16094 0.42551 0.31621 0.0
N977 N 0.14534 0.51006 0.33083 0.0
C978 C 0.16828 0.55437 0.36748 0.0
C979 C 0.1422 0.55569 0.35249 0.0
C980 C 0.13092 0.53316 0.33471 0.0
C981 C 0.17138 0.50918 0.34203 0.0
C982 C 0.18318 0.53097 0.36063 0.0
H983 H 0.11026 0.53401 0.32594 0.0
H984 H 0.1824 0.49059 0.33935 0.0
H985 H 0.09861 0.50045 0.39273 0.0
H986 H 0.15134 0.45308 0.45741 0.0
H987 H 0.14429 0.51162 0.18807 0.0
H988 H 0.1302 0.57363 0.3556 0.0
H989 H 0.2033 0.5288 0.37154 0.0
C990 C 0.31604 0.39797 0.13995 0.0
C991 C 0.31229 0.39496 0.17845 0.0
N992 N 0.29988 0.37138 0.18446 0.0
N993 N 0.30609 0.37639 0.1218 0.0
C994 C 0.2964 0.36043 0.14966 0.0
H995 H 0.32448 0.41528 0.12577 0.0
Co996 Co 0.30465 0.37562 0.06939 0.0
C997 C 0.27473 0.32413 0.05338 0.0
O998 O 0.25759 0.33672 0.03121 0.0
N999 N 0.30479 0.37682 0.01545 0.0
C1000 C 0.31168 0.36794 0.95395 0.0
C1001 C 0.30584 0.35709 0.98911 0.0
C1002 C 0.31089 0.39931 0.99547 0.0
N1003 N 0.31536 0.39454 0.95805 0.0
O1004 O 0.34075 0.36237 0.06958 0.0
H1005 H 0.3047 0.33588 0.995 0.0
H1006 H 0.31455 0.4185 0.00877 0.0
O1007 O 0.29311 0.33761 0.06995 0.0
C1008 C 0.36105 0.37759 0.06664 0.0
O1009 O 0.35858 0.3999 0.04696 0.0
N1010 N 0.26912 0.38981 0.07262 0.0
C1011 C 0.22693 0.4192 0.10573 0.0
C1012 C 0.2287 0.39126 0.11005 0.0
C1013 C 0.24976 0.37703 0.09338 0.0
C1014 C 0.26667 0.41671 0.06587 0.0
C1015 C 0.24552 0.43163 0.08146 0.0
H1016 H 0.25181 0.35627 0.10127 0.0
H1017 H 0.28244 0.42739 0.05155 0.0
H1018 H 0.28564 0.34195 0.14456 0.0
H1019 H 0.31651 0.40985 0.20007 0.0
H1020 H 0.31405 0.35672 0.92779 0.0
H1021 H 0.2152 0.3806 0.1288 0.0
H1022 H 0.24473 0.45303 0.07619 0.0
C1023 C 0.38543 0.56504 0.89788 0.0
C1024 C 0.38852 0.5599 0.93602 0.0
N1025 N 0.41018 0.54419 0.94056 0.0
N1026 N 0.40516 0.5529 0.87836 0.0
C1027 C 0.41987 0.54001 0.9051 0.0
H1028 H 0.36934 0.57631 0.88485 0.0
Co1029 Co 0.4046 0.55382 0.82579 0.0
C1030 C 0.4547 0.52528 0.80126 0.0
O1031 O 0.4413 0.51192 0.77526 0.0
N1032 N 0.40199 0.55631 0.77202 0.0
C1033 C 0.40922 0.56996 0.71228 0.0
C1034 C 0.421 0.56344 0.74662 0.0
C1035 C 0.3788 0.55951 0.75249 0.0
N1036 N 0.38258 0.56767 0.71607 0.0
O1037 O 0.41839 0.58978 0.8282 0.0
H1038 H 0.44185 0.56632 0.75342 0.0
H1039 H 0.35934 0.55834 0.7656 0.0
O1040 O 0.44216 0.54143 0.82327 0.0
C1041 C 0.40424 0.61078 0.82345 0.0
O1042 O 0.38296 0.60911 0.80165 0.0
N1043 N 0.38992 0.51858 0.82691 0.0
C1044 C 0.36242 0.47424 0.85737 0.0
C1045 C 0.39037 0.47449 0.85538 0.0
C1046 C 0.40368 0.49678 0.84043 0.0
C1047 C 0.36265 0.51824 0.82731 0.0
C1048 C 0.34853 0.49626 0.84209 0.0
H1049 H 0.42495 0.4973 0.84429 0.0
H1050 H 0.35167 0.53619 0.82008 0.0
H1051 H 0.43657 0.52698 0.89872 0.0
H1052 H 0.37496 0.56589 0.95848 0.0
H1053 H 0.41931 0.57828 0.68767 0.0
H1054 H 0.40207 0.45865 0.86841 0.0
H1055 H 0.32695 0.49722 0.84363 0.0
C1056 C 0.15589 0.09676 0.16022 0.0
C1057 C 0.16275 0.07603 0.18589 0.0
C1058 C 0.17485 0.10822 0.13567 0.0
C1059 C 0.20159 0.09952 0.13558 0.0
H1060 H 0.13586 0.1049 0.15974 0.0
H1061 H 0.16854 0.1243 0.11687 0.0
S1062 S 0.23003 0.04546 0.19649 0.0
N1063 N 0.19816 0.04653 0.20837 0.0
N1064 N 0.23401 0.06884 0.1636 0.0
C1065 C 0.20871 0.07855 0.16067 0.0
C1066 C 0.18931 0.06669 0.18549 0.0
C1067 C 0.18033 0.96146 0.42436 0.0
C1068 C 0.18211 0.95801 0.38464 0.0
C1069 C 0.19176 0.94281 0.44971 0.0
C1070 C 0.2053 0.9199 0.43627 0.0
H1071 H 0.16953 0.97846 0.4359 0.0
H1072 H 0.18908 0.94585 0.48002 0.0
S1073 S 0.21688 0.90274 0.3347 0.0
N1074 N 0.19937 0.93085 0.33296 0.0
N1075 N 0.22096 0.89575 0.38043 0.0
C1076 C 0.20779 0.91669 0.39653 0.0
C1077 C 0.19622 0.93577 0.37076 0.0
C1078 C 0.34949 0.94131 0.6181 0.0
C1079 C 0.32475 0.93206 0.63176 0.0
C1080 C 0.36788 0.95393 0.64269 0.0
C1081 C 0.36237 0.95701 0.6818 0.0
H1082 H 0.35446 0.93907 0.58823 0.0
H1083 H 0.38655 0.96129 0.6312 0.0
S1084 S 0.30004 0.93685 0.73107 0.0
N1085 N 0.29536 0.92761 0.68635 0.0
N1086 N 0.33013 0.95037 0.73262 0.0
C1087 C 0.33775 0.94765 0.69567 0.0
C1088 C 0.3189 0.9354 0.67061 0.0
C1089 C 0.32721 0.07541 0.89584 0.0
C1090 C 0.34999 0.08458 0.87604 0.0
C1091 C 0.31357 0.09178 0.92182 0.0
C1092 C 0.32227 0.11794 0.92991 0.0
H1093 H 0.32012 0.05507 0.89213 0.0
H1094 H 0.29635 0.08367 0.93649 0.0
S1095 S 0.37989 0.15251 0.88587 0.0
N1096 N 0.37977 0.12257 0.86569 0.0
N1097 N 0.35463 0.15267 0.91613 0.0
C1098 C 0.34491 0.12754 0.91077 0.0
C1099 C 0.35862 0.11106 0.88352 0.0
C1100 C 0.19695 0.92035 0.83619 0.0
C1101 C 0.1983 0.92675 0.87522 0.0
C1102 C 0.17887 0.93338 0.81178 0.0
C1103 C 0.16115 0.95304 0.82556 0.0
H1104 H 0.2103 0.90544 0.82428 0.0
H1105 H 0.17848 0.92774 0.78199 0.0
S1106 S 0.15648 0.97696 0.9253 0.0
N1107 N 0.18044 0.95413 0.92646 0.0
N1108 N 0.14601 0.97821 0.88062 0.0
C1109 C 0.1621 0.95945 0.86453 0.0
C1110 C 0.18083 0.94648 0.88932 0.0
C1111 C 0.31702 0.91672 0.11732 0.0
C1112 C 0.32464 0.91379 0.07882 0.0
C1113 C 0.33077 0.93421 0.14209 0.0
C1114 C 0.35274 0.94935 0.12933 0.0
H1115 H 0.30004 0.90568 0.12818 0.0
H1116 H 0.32404 0.93605 0.17131 0.0
S1117 S 0.3792 0.95103 0.0306 0.0
N1118 N 0.35471 0.92904 0.02899 0.0
N1119 N 0.38045 0.96139 0.07517 0.0
C1120 C 0.36048 0.94665 0.09097 0.0
C1121 C 0.34651 0.929 0.06586 0.0
C1122 C 0.35517 0.10111 0.37726 0.0
C1123 C 0.3282 0.09327 0.37605 0.0
C1124 C 0.37418 0.08978 0.35267 0.0
C1125 C 0.36716 0.06997 0.32579 0.0
H1126 H 0.36164 0.11646 0.39703 0.0
H1127 H 0.39439 0.09736 0.35407 0.0
S1128 S 0.29931 0.04157 0.31183 0.0
N1129 N 0.29542 0.06433 0.34548 0.0
N1130 N 0.33139 0.04191 0.30117 0.0
C1131 C 0.34039 0.0613 0.32512 0.0
C1132 C 0.32092 0.07315 0.34976 0.0
C1133 C 0.20228 0.06804 0.61205 0.0
C1134 C 0.17912 0.07709 0.63097 0.0
C1135 C 0.21623 0.08455 0.58656 0.0
C1136 C 0.20749 0.11073 0.57827 0.0
H1137 H 0.20936 0.04768 0.61596 0.0
H1138 H 0.23366 0.07649 0.57234 0.0
S1139 S 0.14932 0.14515 0.62109 0.0
N1140 N 0.14917 0.11504 0.64091 0.0
N1141 N 0.17499 0.14548 0.59154 0.0
C1142 C 0.18463 0.12027 0.59689 0.0
C1143 C 0.17057 0.10364 0.62354 0.0
C1144 C 0.8384 0.94262 0.79736 0.0
C1145 C 0.85391 0.96399 0.81131 0.0
C1146 C 0.82066 0.9286 0.82134 0.0
C1147 C 0.81737 0.9358 0.85993 0.0
H1148 H 0.84059 0.93624 0.76803 0.0
H1149 H 0.80931 0.91209 0.80954 0.0
S1150 S 0.85241 0.9911 0.90967 0.0
N1151 N 0.86438 0.99203 0.86581 0.0
N1152 N 0.83062 0.96623 0.91048 0.0
C1153 C 0.83228 0.95755 0.87386 0.0
C1154 C 0.85066 0.97146 0.84969 0.0
C1155 C 0.84459 0.12128 0.57724 0.0
C1156 C 0.82084 0.13449 0.5878 0.0
C1157 C 0.8605 0.10788 0.60429 0.0
C1158 C 0.85346 0.10709 0.64321 0.0
H1159 H 0.85023 0.11996 0.54752 0.0
H1160 H 0.87769 0.09677 0.59417 0.0
S1161 S 0.79534 0.14169 0.68658 0.0
N1162 N 0.79261 0.14827 0.64055 0.0
N1163 N 0.82244 0.12305 0.69133 0.0
C1164 C 0.83056 0.12145 0.65446 0.0
C1165 C 0.81433 0.13513 0.62686 0.0
C1166 C 0.69486 0.11293 0.3336 0.0
C1167 C 0.69174 0.10849 0.37302 0.0
C1168 C 0.67913 0.09923 0.30677 0.0
C1169 C 0.65956 0.08072 0.3184 0.0
H1170 H 0.70986 0.12683 0.32341 0.0
H1171 H 0.68186 0.10363 0.27678 0.0
S1172 S 0.64403 0.06134 0.41803 0.0
N1173 N 0.66813 0.08376 0.42222 0.0
N1174 N 0.63834 0.05826 0.37182 0.0
C1175 C 0.65641 0.07595 0.35766 0.0
C1176 C 0.6726 0.0897 0.38495 0.0
C1177 C 0.6871 0.94099 0.05172 0.0
C1178 C 0.70685 0.92288 0.06424 0.0
C1179 C 0.67521 0.95932 0.07695 0.0
C1180 C 0.68279 0.96058 0.11562 0.0
H1181 H 0.68014 0.94039 0.02249 0.0
H1182 H 0.6598 0.97256 0.06615 0.0
S1183 S 0.73467 0.91873 0.16215 0.0
N1184 N 0.73416 0.90806 0.11756 0.0
N1185 N 0.71208 0.94287 0.16478 0.0
C1186 C 0.70309 0.94322 0.12823 0.0
C1187 C 0.71497 0.92425 0.10265 0.0
C1188 C 0.81283 0.07543 0.17219 0.0
C1189 C 0.82162 0.09089 0.14088 0.0
C1190 C 0.83102 0.06237 0.19672 0.0
C1191 C 0.85877 0.06391 0.19068 0.0
H1192 H 0.79167 0.07369 0.17811 0.0
H1193 H 0.8233 0.05057 0.22018 0.0
S1194 S 0.89224 0.10225 0.11346 0.0
N1195 N 0.86007 0.10715 0.10567 0.0
N1196 N 0.89411 0.0829 0.15164 0.0
C1197 C 0.86781 0.07944 0.15966 0.0
C1198 C 0.84932 0.09287 0.13489 0.0
C1199 C 0.67573 0.06802 0.92484 0.0
C1200 C 0.68159 0.06837 0.88558 0.0
C1201 C 0.6883 0.08577 0.95028 0.0
C1202 C 0.70709 0.1047 0.93734 0.0
H1203 H 0.66129 0.05388 0.93596 0.0
H1204 H 0.68266 0.08526 0.98007 0.0
S1205 S 0.73049 0.1127 0.83767 0.0
N1206 N 0.70829 0.08825 0.8353 0.0
N1207 N 0.73171 0.12186 0.88291 0.0
C1208 C 0.71351 0.10482 0.89827 0.0
C1209 C 0.7009 0.08655 0.87247 0.0
C1210 C 0.66822 0.92106 0.68863 0.0
C1211 C 0.65258 0.94309 0.67689 0.0
C1212 C 0.68349 0.90635 0.66241 0.0
C1213 C 0.68358 0.91282 0.62329 0.0
H1214 H 0.66991 0.91611 0.71861 0.0
H1215 H 0.69655 0.8908 0.67323 0.0
S1216 S 0.64338 0.96648 0.57732 0.0
N1217 N 0.63632 0.96919 0.62316 0.0
N1218 N 0.66471 0.94129 0.57376 0.0
C1219 C 0.66692 0.93389 0.61093 0.0
C1220 C 0.65151 0.94903 0.6377 0.0
C1221 C 0.80749 0.91999 0.39936 0.0
C1222 C 0.81493 0.89513 0.41515 0.0
C1223 C 0.82379 0.93331 0.37293 0.0
C1224 C 0.84823 0.92227 0.36036 0.0
H1225 H 0.78929 0.92975 0.40858 0.0
H1226 H 0.81746 0.953 0.36342 0.0
S1227 S 0.87568 0.85627 0.39094 0.0
N1228 N 0.84771 0.85932 0.41552 0.0
N1229 N 0.87805 0.8837 0.36461 0.0
C1230 C 0.85554 0.89693 0.37525 0.0
C1231 C 0.83901 0.88355 0.40283 0.0
C1232 C 0.65879 0.59134 0.66474 0.0
C1233 C 0.66524 0.57085 0.69104 0.0
C1234 C 0.67818 0.60274 0.64073 0.0
C1235 C 0.70501 0.59428 0.64184 0.0
H1236 H 0.63871 0.5993 0.66326 0.0
H1237 H 0.67208 0.61853 0.62133 0.0
S1238 S 0.73251 0.54085 0.7048 0.0
N1239 N 0.70041 0.54177 0.71531 0.0
N1240 N 0.73701 0.56405 0.6718 0.0
C1241 C 0.71173 0.57357 0.66764 0.0
C1242 C 0.69188 0.56173 0.69183 0.0
C1243 C 0.6996 0.46104 0.91438 0.0
C1244 C 0.67894 0.45114 0.89082 0.0
C1245 C 0.71339 0.44434 0.94003 0.0
C1246 C 0.70682 0.41711 0.94398 0.0
H1247 H 0.70507 0.48205 0.91346 0.0
H1248 H 0.72932 0.45277 0.95713 0.0
S1249 S 0.65506 0.38051 0.88969 0.0
N1250 N 0.6533 0.41152 0.87308 0.0
N1251 N 0.67867 0.38067 0.92263 0.0
C1252 C 0.68614 0.40683 0.92135 0.0
C1253 C 0.67232 0.42369 0.89456 0.0
C1254 C 0.87368 0.448 0.14932 0.0
C1255 C 0.8744 0.44296 0.18888 0.0
C1256 C 0.85709 0.43313 0.12475 0.0
C1257 C 0.84061 0.41243 0.13864 0.0
H1258 H 0.88557 0.46408 0.13741 0.0
H1259 H 0.85668 0.43829 0.09474 0.0
S1260 S 0.83385 0.39181 0.23989 0.0
N1261 N 0.85632 0.41602 0.24072 0.0
N1262 N 0.8256 0.38804 0.19464 0.0
C1263 C 0.8415 0.40677 0.17796 0.0
C1264 C 0.85827 0.42198 0.20302 0.0
C1265 C 0.83524 0.61982 0.40016 0.0
C1266 C 0.83025 0.61111 0.43766 0.0
C1267 C 0.84961 0.60359 0.37441 0.0
C1268 C 0.85894 0.57807 0.38539 0.0
H1269 H 0.82779 0.63914 0.39076 0.0
H1270 H 0.85297 0.61076 0.34564 0.0
S1271 S 0.84998 0.54583 0.47983 0.0
N1272 N 0.83548 0.57547 0.48424 0.0
N1273 N 0.86152 0.54467 0.43575 0.0
C1274 C 0.85387 0.56921 0.42272 0.0
C1275 C 0.83976 0.58582 0.44892 0.0
C1276 C 0.65548 0.44377 0.35974 0.0
C1277 C 0.66517 0.46522 0.33767 0.0
C1278 C 0.67232 0.42981 0.38529 0.0
C1279 C 0.69951 0.43672 0.38947 0.0
H1280 H 0.63474 0.43791 0.35732 0.0
H1281 H 0.66402 0.41349 0.40188 0.0
S1282 S 0.73515 0.48915 0.33393 0.0
N1283 N 0.70387 0.49135 0.3193 0.0
N1284 N 0.7356 0.46502 0.36625 0.0
C1285 C 0.70945 0.45773 0.36658 0.0
C1286 C 0.69229 0.47197 0.34096 0.0
C1287 C 0.83057 0.43482 0.64677 0.0
C1288 C 0.85303 0.44913 0.63353 0.0
C1289 C 0.81693 0.41656 0.62299 0.0
C1290 C 0.82496 0.41249 0.58501 0.0
H1291 H 0.82354 0.43775 0.67566 0.0
H1292 H 0.79975 0.40593 0.63403 0.0
S1293 S 0.8823 0.44465 0.53663 0.0
N1294 N 0.88236 0.45783 0.57974 0.0
N1295 N 0.85709 0.42342 0.5359 0.0
C1296 C 0.84741 0.42646 0.57172 0.0
C1297 C 0.86133 0.44481 0.59573 0.0
C1298 C 0.85452 0.59852 0.8192 0.0
C1299 C 0.87027 0.57702 0.8326 0.0
C1300 C 0.83709 0.61242 0.8435 0.0
C1301 C 0.83469 0.60558 0.88229 0.0
H1302 H 0.85468 0.60392 0.78929 0.0
H1303 H 0.82447 0.62788 0.83141 0.0
S1304 S 0.87304 0.55258 0.93259 0.0
N1305 N 0.88353 0.5508 0.88802 0.0
N1306 N 0.85059 0.57689 0.93352 0.0
C1307 C 0.85082 0.5847 0.8964 0.0
C1308 C 0.86866 0.57051 0.87166 0.0
C1309 C 0.6944 0.60401 0.14369 0.0
C1310 C 0.6718 0.58952 0.13152 0.0
C1311 C 0.7087 0.62072 0.11851 0.0
C1312 C 0.70113 0.62365 0.07996 0.0
H1313 H 0.7015 0.60194 0.17273 0.0
H1314 H 0.72628 0.63092 0.12908 0.0
S1315 S 0.64349 0.58996 0.0337 0.0
N1316 N 0.6425 0.5794 0.07823 0.0
N1317 N 0.6692 0.61047 0.03121 0.0
C1318 C 0.67808 0.60986 0.06778 0.0
C1319 C 0.66351 0.59292 0.09342 0.0
C1320 C 0.33472 0.4591 0.32934 0.0
C1321 C 0.36224 0.45372 0.33035 0.0
C1322 C 0.31687 0.44563 0.35352 0.0
C1323 C 0.32577 0.42642 0.38036 0.0
H1324 H 0.32695 0.47374 0.30932 0.0
H1325 H 0.2958 0.45008 0.35059 0.0
S1326 S 0.39648 0.40585 0.39468 0.0
N1327 N 0.39784 0.42815 0.3598 0.0
N1328 N 0.36464 0.40334 0.40652 0.0
C1329 C 0.35346 0.42097 0.3816 0.0
C1330 C 0.37158 0.43451 0.35638 0.0
C1331 C 0.35245 0.60459 0.13204 0.0
C1332 C 0.34879 0.57661 0.12894 0.0
C1333 C 0.33887 0.6226 0.10765 0.0
C1334 C 0.32129 0.61316 0.07942 0.0
H1335 H 0.36559 0.6126 0.15376 0.0
H1336 H 0.34186 0.64398 0.11105 0.0
S1337 S 0.30742 0.54212 0.05601 0.0
N1338 N 0.32814 0.54058 0.09261 0.0
N1339 N 0.30258 0.57439 0.04765 0.0
C1340 C 0.31816 0.58537 0.07524 0.0
C1341 C 0.33191 0.56711 0.09976 0.0
C1342 C 0.19426 0.6121 0.84007 0.0
C1343 C 0.19815 0.60384 0.87811 0.0
C1344 C 0.17733 0.59786 0.81532 0.0
C1345 C 0.16347 0.5748 0.82761 0.0
H1346 H 0.20534 0.62898 0.82876 0.0
H1347 H 0.17615 0.60427 0.78587 0.0
S1348 S 0.16385 0.54714 0.92596 0.0
N1349 N 0.18482 0.57266 0.92783 0.0
N1350 N 0.15273 0.54618 0.88162 0.0
C1351 C 0.16611 0.56723 0.86615 0.0
C1352 C 0.18349 0.58164 0.89127 0.0
C1353 C 0.18479 0.4223 0.63342 0.0
C1354 C 0.17828 0.44838 0.62144 0.0
C1355 C 0.19579 0.40359 0.60782 0.0
C1356 C 0.20032 0.4101 0.56913 0.0
H1357 H 0.1814 0.41636 0.66274 0.0
H1358 H 0.20069 0.38377 0.61842 0.0
S1359 S 0.18474 0.47592 0.52376 0.0
N1360 N 0.17661 0.48 0.56896 0.0
N1361 N 0.19575 0.44478 0.52028 0.0
C1362 C 0.1935 0.43628 0.55695 0.0
C1363 C 0.18283 0.45538 0.58324 0.0
C1364 C 0.34133 0.5938 0.70334 0.0
C1365 C 0.36262 0.57793 0.68989 0.0
C1366 C 0.32285 0.60551 0.67808 0.0
C1367 C 0.32482 0.60172 0.63843 0.0
H1368 H 0.33935 0.59781 0.73354 0.0
H1369 H 0.30691 0.61773 0.68964 0.0
S1370 S 0.37567 0.56072 0.58873 0.0
N1371 N 0.38381 0.55821 0.63428 0.0
N1372 N 0.34891 0.58014 0.58697 0.0
C1373 C 0.34549 0.5854 0.62463 0.0
C1374 C 0.36447 0.57361 0.6503 0.0
C1375 C 0.21815 0.60301 0.41331 0.0
C1376 C 0.20284 0.61574 0.44145 0.0
C1377 C 0.20673 0.58368 0.38899 0.0
C1378 C 0.17956 0.5763 0.39203 0.0
H1379 H 0.23905 0.6081 0.41013 0.0
H1380 H 0.21932 0.57449 0.36759 0.0
S1381 S 0.1314 0.60419 0.46229 0.0
N1382 N 0.15953 0.62024 0.47114 0.0
N1383 N 0.13804 0.58343 0.42688 0.0
C1384 C 0.16416 0.58915 0.42036 0.0
C1385 C 0.17582 0.60893 0.44472 0.0
C1386 C 0.16423 0.43756 0.16268 0.0
C1387 C 0.17159 0.46131 0.18141 0.0
C1388 C 0.18166 0.42484 0.1369 0.0
C1389 C 0.20746 0.43504 0.12945 0.0
H1390 H 0.14494 0.42863 0.16843 0.0
H1391 H 0.175 0.40655 0.12326 0.0
S1392 S 0.23655 0.49618 0.17382 0.0
N1393 N 0.20607 0.49449 0.19158 0.0
N1394 N 0.23946 0.47026 0.14485 0.0
C1395 C 0.21488 0.45899 0.14821 0.0
C1396 C 0.19685 0.47214 0.17382 0.0
C1397 C 0.31829 0.44082 0.9323 0.0
C1398 C 0.32561 0.41356 0.9303 0.0
C1399 C 0.32936 0.46006 0.90757 0.0
C1400 C 0.34837 0.45291 0.87976 0.0
H1401 H 0.30408 0.44743 0.95357 0.0
H1402 H 0.3237 0.48087 0.91129 0.0
S1403 S 0.37388 0.38418 0.86146 0.0
N1404 N 0.35308 0.38048 0.89755 0.0
N1405 N 0.37304 0.41639 0.85046 0.0
C1406 C 0.35531 0.42562 0.87666 0.0
C1407 C 0.34414 0.40603 0.90196 0.0
C1408 C 0.23837 0.16684 0.25458 0.0
C1409 C 0.2515 0.16515 0.29002 0.0
C1410 C 0.25281 0.1673 0.22027 0.0
C1411 C 0.28083 0.16558 0.22036 0.0
H1412 H 0.21677 0.16637 0.25343 0.0
H1413 H 0.24196 0.16693 0.19354 0.0
S1414 S 0.32475 0.16249 0.30516 0.0
N1415 N 0.29421 0.16346 0.32287 0.0
N1416 N 0.3212 0.16389 0.25839 0.0
C1417 C 0.29419 0.16538 0.25551 0.0
C1418 C 0.27956 0.1653 0.29038 0.0
C1419 C 0.10797 0.04076 0.50576 0.0
C1420 C 0.10942 0.0272 0.4707 0.0
C1421 C 0.10745 0.02659 0.54028 0.0
C1422 C 0.10889 0.99844 0.54073 0.0
H1423 H 0.10869 0.06248 0.50642 0.0
H1424 H 0.10805 0.03772 0.56677 0.0
S1425 S 0.11064 0.9535 0.45687 0.0
N1426 N 0.1101 0.98406 0.43853 0.0
N1427 N 0.10972 0.95745 0.50361 0.0
C1428 C 0.10871 0.98464 0.50592 0.0
C1429 C 0.10879 0.99903 0.47079 0.0
C1430 C 0.23904 0.863 0.75593 0.0
C1431 C 0.25246 0.86419 0.72074 0.0
C1432 C 0.25319 0.86238 0.79042 0.0
C1433 C 0.28122 0.86346 0.79079 0.0
H1434 H 0.21744 0.86395 0.75672 0.0
H1435 H 0.24217 0.86318 0.81694 0.0
S1436 S 0.32583 0.86421 0.70667 0.0
N1437 N 0.29539 0.86401 0.68845 0.0
N1438 N 0.32192 0.86359 0.75342 0.0
C1439 C 0.29486 0.86295 0.75588 0.0
C1440 C 0.2805 0.86308 0.72076 0.0
C1441 C 0.42711 0.99423 0.99804 0.0
C1442 C 0.4206 1.00806 0.96438 0.0
C1443 C 0.426 1.0071 0.0336 0.0
C1444 C 0.41798 0.0341 0.03636 0.0
H1445 H 0.43108 0.97288 0.99699 0.0
H1446 H 0.42915 0.99528 0.05914 0.0
S1447 S 0.40325 0.07999 0.95575 0.0
N1448 N 0.40922 0.05071 0.93546 0.0
N1449 N 0.40733 0.07511 1.00195 0.0
C1450 C 0.41402 0.04869 1.00249 0.0
C1451 C 0.41531 0.03561 0.9665 0.0
C1452 C 0.78427 0.86272 0.7453 0.0
C1453 C 0.77065 0.85726 0.71104 0.0
C1454 C 0.77116 0.8615 0.78052 0.0
C1455 C 0.7439 0.85514 0.78249 0.0
H1456 H 0.80471 0.86978 0.7445 0.0
H1457 H 0.78173 0.86776 0.80594 0.0
S1458 S 0.70025 0.83505 0.70238 0.0
N1459 N 0.72926 0.84181 0.68213 0.0
N1460 N 0.70453 0.84021 0.7485 0.0
C1461 C 0.73065 0.84749 0.74904 0.0
C1462 C 0.74408 0.84828 0.71321 0.0
C1463 C 0.93874 0.98659 0.49004 0.0
C1464 C 0.93771 1.00753 0.46315 0.0
C1465 C 0.93955 0.99211 0.52919 0.0
C1466 C 0.93803 0.0187 0.54215 0.0
H1467 H 0.9355 0.96609 0.48094 0.0
H1468 H 0.93726 0.97564 0.54907 0.0
S1469 S 0.94646 0.07987 0.48351 0.0
N1470 N 0.94489 0.05517 0.45218 0.0
N1471 N 0.94388 0.06563 0.52594 0.0
C1472 C 0.94225 0.0394 0.51573 0.0
C1473 C 0.9427 0.03374 0.47594 0.0
C1474 C 0.78797 0.16398 0.25783 0.0
C1475 C 0.77387 0.16868 0.29189 0.0
C1476 C 0.77506 0.16485 0.22235 0.0
C1477 C 0.74756 0.17007 0.21994 0.0
H1478 H 0.80869 0.15779 0.25896 0.0
H1479 H 0.78611 0.15919 0.19707 0.0
S1480 S 0.70239 0.18726 0.29966 0.0
N1481 N 0.73159 0.18183 0.32027 0.0
N1482 N 0.70727 0.18285 0.25353 0.0
C1483 C 0.73374 0.17687 0.2533 0.0
C1484 C 0.74694 0.17641 0.28934 0.0
C1485 C 0.61186 0.98638 1.00157 0.0
C1486 C 0.61025 0.99845 0.96535 0.0
C1487 C 0.61187 1.00192 0.03481 0.0
C1488 C 0.61092 0.03005 0.03275 0.0
H1489 H 0.61453 0.96487 1.00403 0.0
H1490 H 0.61454 0.99204 0.06207 0.0
S1491 S 0.60243 0.07128 0.94584 0.0
N1492 N 0.60416 0.04012 0.93001 0.0
N1493 N 0.60515 0.06923 0.99266 0.0
C1494 C 0.60736 0.04224 0.99713 0.0
C1495 C 0.60673 0.02645 0.96331 0.0
C1496 C 0.75532 0.66719 0.72214 0.0
C1497 C 0.78319 0.67014 0.72202 0.0
C1498 C 0.74103 0.66744 0.75646 0.0
C1499 C 0.75409 0.67094 0.79167 0.0
H1500 H 0.74487 0.66244 0.69596 0.0
H1501 H 0.71985 0.66308 0.75578 0.0
S1502 S 0.82636 0.68411 0.80532 0.0
N1503 N 0.82294 0.67983 0.75889 0.0
N1504 N 0.79613 0.68083 0.82353 0.0
C1505 C 0.78162 0.67647 0.7914 0.0
C1506 C 0.79618 0.67583 0.75649 0.0
C1507 C 0.60094 0.53774 0.00847 0.0
C1508 C 0.60792 0.52406 0.97497 0.0
C1509 C 0.60218 0.52491 0.04409 0.0
C1510 C 0.61066 0.49807 0.04702 0.0
H1511 H 0.59627 0.55894 0.00722 0.0
H1512 H 0.5988 0.53666 0.06958 0.0
S1513 S 0.62698 0.45256 0.96692 0.0
N1514 N 0.62038 0.48167 0.94635 0.0
N1515 N 0.62256 0.45736 0.01304 0.0
C1516 C 0.61512 0.48358 0.01329 0.0
C1517 C 0.61377 0.49663 0.97723 0.0
C1518 C 0.78077 0.34866 0.28405 0.0
C1519 C 0.77625 0.37425 0.29931 0.0
C1520 C 0.77138 0.34206 0.24764 0.0
C1521 C 0.75708 0.36082 0.22556 0.0
H1522 H 0.79223 0.33399 0.29999 0.0
H1523 H 0.77581 0.32235 0.23631 0.0
S1524 S 0.73678 0.42917 0.25531 0.0
N1525 N 0.75452 0.41754 0.29149 0.0
N1526 N 0.73669 0.40505 0.22305 0.0
C1527 C 0.75164 0.38615 0.24115 0.0
C1528 C 0.76124 0.39287 0.27811 0.0
C1529 C 0.9293 0.50543 0.54193 0.0
C1530 C 0.92481 0.53323 0.54394 0.0
C1531 C 0.93027 0.49232 0.50657 0.0
C1532 C 0.92713 0.50659 0.47224 0.0
H1533 H 0.92965 0.49349 0.56776 0.0
H1534 H 0.93152 0.47064 0.50599 0.0
S1535 S 0.92031 0.58023 0.4622 0.0
N1536 N 0.92113 0.57506 0.50873 0.0
N1537 N 0.92341 0.55034 0.44232 0.0
C1538 C 0.92567 0.53466 0.47385 0.0
C1539 C 0.92432 0.54799 0.50976 0.0
C1540 C 0.25918 0.35817 0.2187 0.0
C1541 C 0.28664 0.36399 0.21915 0.0
C1542 C 0.24457 0.35697 0.25268 0.0
C1543 C 0.25705 0.36103 0.28809 0.0
H1544 H 0.24862 0.35648 0.19185 0.0
H1545 H 0.22314 0.35417 0.2513 0.0
S1546 S 0.32886 0.37458 0.3045 0.0
N1547 N 0.32606 0.37206 0.25771 0.0
N1548 N 0.2986 0.36948 0.32172 0.0
C1549 C 0.28477 0.3651 0.28901 0.0
C1550 C 0.29957 0.36669 0.25444 0.0
C1551 C 0.41924 0.50237 0.97581 0.0
C1552 C 0.41711 0.5305 0.97528 0.0
C1553 C 0.41934 0.48822 0.01045 0.0
C1554 C 0.41782 0.50176 0.04557 0.0
H1555 H 0.41873 0.49121 0.94935 0.0
H1556 H 0.41908 0.46649 0.00986 0.0
S1557 S 0.41455 0.57541 0.05918 0.0
N1558 N 0.41553 0.57144 0.01247 0.0
N1559 N 0.41599 0.54489 0.07754 0.0
C1560 C 0.41767 0.52993 0.04533 0.0
C1561 C 0.41722 0.54428 0.01014 0.0
C1562 C 0.23816 0.6696 0.75997 0.0
C1563 C 0.2514 0.67041 0.72462 0.0
C1564 C 0.25246 0.67011 0.79433 0.0
C1565 C 0.28049 0.67096 0.79436 0.0
H1566 H 0.21669 0.66704 0.76092 0.0
H1567 H 0.24171 0.66766 0.82088 0.0
S1568 S 0.32449 0.6763 0.71001 0.0
N1569 N 0.29402 0.67479 0.69204 0.0
N1570 N 0.32084 0.67506 0.75677 0.0
C1571 C 0.29383 0.67359 0.75944 0.0
C1572 C 0.27929 0.67355 0.72448 0.0
C1573 C 0.11092 0.52103 0.47092 0.0
C1574 C 0.1125 0.49287 0.47106 0.0
C1575 C 0.11044 0.53549 0.50516 0.0
C1576 C 0.11134 0.52238 0.54067 0.0
H1577 H 0.11205 0.53202 0.44432 0.0
H1578 H 0.11085 0.55717 0.50406 0.0
S1579 S 0.11143 0.44876 0.55626 0.0
N1580 N 0.11163 0.45227 0.50943 0.0
N1581 N 0.11095 0.4795 0.57379 0.0
C1582 C 0.11058 0.49419 0.54116 0.0
C1583 C 0.11118 0.47944 0.50631 0.0
C1584 C 0.38224 0.14826 0.16687 0.0
C1585 C 0.40167 0.12796 0.16332 0.0
C1586 C 0.37054 0.15985 0.13439 0.0
C1587 C 0.37692 0.15018 0.09784 0.0
H1588 H 0.37364 0.15278 0.19447 0.0
H1589 H 0.35358 0.17303 0.13836 0.0
S1590 S 0.43626 0.10934 0.07366 0.0
N1591 N 0.43486 0.10842 0.12071 0.0
N1592 N 0.41066 0.12791 0.05973 0.0
C1593 C 0.40025 0.13486 0.09407 0.0
C1594 C 0.41317 0.12419 0.12705 0.0
C1595 C 0.14381 0.14954 0.34515 0.0
C1596 C 0.12378 0.12985 0.34888 0.0
C1597 C 0.15739 0.15922 0.37729 0.0
C1598 C 0.15203 0.14855 0.41363 0.0
H1599 H 0.15135 0.15497 0.31725 0.0
H1600 H 0.17474 0.17177 0.37277 0.0
S1601 S 0.09221 0.10917 0.43998 0.0
N1602 N 0.09168 0.10996 0.39286 0.0
N1603 N 0.11905 0.12615 0.45296 0.0
C1604 C 0.12834 0.13396 0.41831 0.0
C1605 C 0.1137 0.12507 0.38577 0.0
C1606 C 0.12801 0.89814 0.59458 0.0
C1607 C 0.14896 0.87947 0.59841 0.0
C1608 C 0.11527 0.90873 0.62682 0.0
C1609 C 0.12411 0.90185 0.66373 0.0
H1610 H 0.1236 0.907 0.56703 0.0
H1611 H 0.10134 0.92511 0.62262 0.0
S1612 S 0.16809 0.84445 0.68794 0.0
N1613 N 0.16974 0.84676 0.641 0.0
N1614 N 0.14756 0.86852 0.70172 0.0
C1615 C 0.14066 0.87923 0.66743 0.0
C1616 C 0.15275 0.86758 0.63454 0.0
C1617 C 0.40826 0.91616 0.88857 0.0
C1618 C 0.39992 0.90833 0.85194 0.0
C1619 C 0.39586 0.90535 0.92099 0.0
C1620 C 0.37626 0.8853 0.91736 0.0
H1621 H 0.42072 0.93371 0.89215 0.0
H1622 H 0.39878 0.91536 0.94809 0.0
S1623 S 0.36145 0.84703 0.82938 0.0
N1624 N 0.37978 0.87264 0.81484 0.0
N1625 N 0.3591 0.84997 0.8762 0.0
C1626 C 0.37422 0.87221 0.88197 0.0
C1627 C 0.38551 0.88433 0.84882 0.0
C1628 C 0.64164 0.87404 0.84237 0.0
C1629 C 0.62422 0.89607 0.84557 0.0
C1630 C 0.65207 0.86164 0.87509 0.0
C1631 C 0.64629 0.87208 0.9115 0.0
H1632 H 0.65036 0.8691 0.81499 0.0
H1633 H 0.66802 0.84719 0.87134 0.0
S1634 S 0.58987 0.91749 0.93398 0.0
N1635 N 0.59208 0.91829 0.88696 0.0
N1636 N 0.61353 0.89675 0.94868 0.0
C1637 C 0.62391 0.88895 0.91469 0.0
C1638 C 0.61238 0.90062 0.88133 0.0
C1639 C 0.8738 0.91205 0.64123 0.0
C1640 C 0.88217 0.9379 0.63049 0.0
C1641 C 0.86145 0.89489 0.61465 0.0
C1642 C 0.85658 0.90357 0.57701 0.0
H1643 H 0.87424 0.90617 0.67098 0.0
H1644 H 0.85259 0.87643 0.62497 0.0
S1645 S 0.87707 0.96811 0.53421 0.0
N1646 N 0.88691 0.97003 0.57904 0.0
N1647 N 0.86434 0.93782 0.52927 0.0
C1648 C 0.86788 0.92788 0.56507 0.0
C1649 C 0.88029 0.94523 0.59194 0.0
C1650 C 0.87587 0.11363 0.36326 0.0
C1651 C 0.88332 0.08755 0.37442 0.0
C1652 C 0.86429 0.13151 0.38965 0.0
C1653 C 0.85943 0.12339 0.42754 0.0
H1654 H 0.8763 0.1192 0.3334 0.0
H1655 H 0.85588 0.15012 0.37904 0.0
S1656 S 0.8779 0.05851 0.47142 0.0
N1657 N 0.88717 0.05578 0.42647 0.0
N1658 N 0.86662 0.08942 0.47594 0.0
C1659 C 0.87017 0.09887 0.43988 0.0
C1660 C 0.88151 0.08072 0.41316 0.0
C1661 C 0.64225 0.15443 0.15922 0.0
C1662 C 0.62348 0.1336 0.15539 0.0
C1663 C 0.6544 0.1657 0.12696 0.0
C1664 C 0.64892 0.15542 0.09037 0.0
H1665 H 0.6502 0.15951 0.18703 0.0
H1666 H 0.67099 0.17926 0.13144 0.0
S1667 S 0.59053 0.11351 0.06503 0.0
N1668 N 0.59133 0.11303 0.11213 0.0
N1669 N 0.61592 0.13244 0.05155 0.0
C1670 C 0.6258 0.13982 0.08606 0.0
C1671 C 0.61261 0.12924 0.11883 0.0
C1672 C 0.90287 0.62858 0.59547 0.0
C1673 C 0.88183 0.6472 0.59824 0.0
C1674 C 0.91548 0.61886 0.62848 0.0
C1675 C 0.90596 0.62645 0.66463 0.0
H1676 H 0.90661 0.61839 0.56872 0.0
H1677 H 0.92882 0.60187 0.62564 0.0
S1678 S 0.86458 0.68637 0.68437 0.0
N1679 N 0.86262 0.68243 0.63766 0.0
N1680 N 0.88405 0.66193 0.70017 0.0
C1681 C 0.89057 0.64993 0.66671 0.0
C1682 C 0.87892 0.66089 0.633 0.0
C1683 C 0.66123 0.65843 0.87522 0.0
C1684 C 0.65612 0.64974 0.91265 0.0
C1685 C 0.6478 0.64673 0.84432 0.0
C1686 C 0.62824 0.62685 0.85028 0.0
H1687 H 0.67818 0.67123 0.86927 0.0
H1688 H 0.65511 0.65087 0.81585 0.0
S1689 S 0.59781 0.60978 0.94367 0.0
N1690 N 0.62409 0.62829 0.95452 0.0
N1691 N 0.59705 0.60815 0.89661 0.0
C1692 C 0.61853 0.62356 0.8877 0.0
C1693 C 0.633 0.63457 0.91906 0.0
C1694 C 0.66321 0.39105 0.18442 0.0
C1695 C 0.64248 0.40934 0.17692 0.0
C1696 C 0.67515 0.37657 0.15479 0.0
C1697 C 0.66739 0.38067 0.11668 0.0
H1698 H 0.6726 0.3906 0.21228 0.0
H1699 H 0.69308 0.36552 0.1613 0.0
S1700 S 0.60695 0.41716 0.08483 0.0
N1701 N 0.60864 0.42322 0.13109 0.0
N1702 N 0.6328 0.39779 0.07476 0.0
C1703 C 0.64362 0.39483 0.11004 0.0
C1704 C 0.63066 0.40871 0.14051 0.0
C1705 C 0.87708 0.38528 0.35179 0.0
C1706 C 0.89737 0.40442 0.35694 0.0
C1707 C 0.86471 0.37326 0.38326 0.0
C1708 C 0.87171 0.38097 0.42055 0.0
H1709 H 0.86817 0.38252 0.32389 0.0
H1710 H 0.84699 0.36136 0.37815 0.0
S1711 S 0.93139 0.42016 0.44805 0.0
N1712 N 0.93042 0.42227 0.40103 0.0
N1713 N 0.90562 0.40142 0.46046 0.0
C1714 C 0.89542 0.39549 0.42558 0.0
C1715 C 0.90875 0.4068 0.39345 0.0
C1716 C 0.12829 0.38817 0.41108 0.0
C1717 C 0.14909 0.36929 0.40739 0.0
C1718 C 0.11765 0.40097 0.37877 0.0
C1719 C 0.12877 0.39616 0.34259 0.0
H1720 H 0.12293 0.39588 0.43892 0.0
H1721 H 0.10454 0.41799 0.38315 0.0
S1722 S 0.17113 0.33815 0.31669 0.0
N1723 N 0.17037 0.33772 0.3638 0.0
N1724 N 0.15247 0.36392 0.30349 0.0
C1725 C 0.14406 0.37282 0.33805 0.0
C1726 C 0.1539 0.35886 0.37069 0.0
C1727 C 0.37262 0.36802 0.1345 0.0
C1728 C 0.3807 0.37753 0.09845 0.0
C1729 C 0.38174 0.38051 0.16785 0.0
C1730 C 0.40016 0.40174 0.16597 0.0
H1731 H 0.35625 0.35396 0.13701 0.0
H1732 H 0.37159 0.37612 0.19441 0.0
S1733 S 0.43883 0.42165 0.08043 0.0
N1734 N 0.41546 0.40133 0.06398 0.0
N1735 N 0.43453 0.42286 0.12712 0.0
C1736 C 0.41363 0.40575 0.13123 0.0
C1737 C 0.40338 0.39406 0.09708 0.0
C1738 C 0.4119 0.62259 0.89156 0.0
C1739 C 0.40375 0.63076 0.85483 0.0
C1740 C 0.39816 0.63167 0.92386 0.0
C1741 C 0.37715 0.65023 0.92026 0.0
H1742 H 0.42569 0.60602 0.89515 0.0
H1743 H 0.40139 0.62132 0.95069 0.0
S1744 S 0.36117 0.68976 0.83358 0.0
N1745 N 0.38182 0.66612 0.81864 0.0
N1746 N 0.358 0.68519 0.88004 0.0
C1747 C 0.37468 0.664 0.88538 0.0
C1748 C 0.3876 0.65375 0.8522 0.0
C1749 C 0.15683 0.66151 0.63906 0.0
C1750 C 0.15023 0.6536 0.60167 0.0
C1751 C 0.14714 0.64697 0.67036 0.0
C1752 C 0.12953 0.62537 0.66496 0.0
H1753 H 0.1728 0.67571 0.64408 0.0
H1754 H 0.15644 0.65009 0.69792 0.0
S1755 S 0.0943 0.60881 0.57506 0.0
N1756 N 0.11739 0.63075 0.56242 0.0
N1757 N 0.09711 0.60533 0.62178 0.0
C1758 C 0.11718 0.62291 0.6291 0.0
C1759 C 0.12805 0.6367 0.59701 0.0
C1760 C 0.25565 0.25161 0.03238 0.0
C1761 C 0.27396 0.23627 0.05386 0.0
C1762 C 0.25571 0.27976 0.03334 0.0
C1763 C 0.27412 0.29413 0.05576 0.0
H1764 H 0.24124 0.24187 0.014 0.0
H1765 H 0.2414 0.29029 0.0156 0.0
S1766 S 0.32535 0.26381 0.11946 0.0
N1767 N 0.31034 0.23776 0.09986 0.0
N1768 N 0.3105 0.29066 0.10161 0.0
C1769 C 0.29213 0.27912 0.07832 0.0
C1770 C 0.29203 0.25028 0.07739 0.0
C1771 C 1.00562 0.99086 0.27814 0.0
C1772 C 0.98756 1.00757 0.29773 0.0
C1773 C 0.03322 0.99557 0.27885 0.0
C1774 C 0.04427 0.01712 0.29942 0.0
H1775 H 0.99845 0.97394 0.26171 0.0
H1776 H 0.04599 0.98209 0.26292 0.0
S1777 S 1.00603 0.06686 0.35627 0.0
N1778 N 0.98296 0.04673 0.33863 0.0
N1779 N 0.03486 0.0553 0.34043 0.0
C1780 C 0.02657 0.03388 0.31963 0.0
C1781 C 0.99829 0.02921 0.31863 0.0
C1782 C 0.26993 0.75255 0.52694 0.0
C1783 C 0.2552 0.73801 0.55421 0.0
C1784 C 0.26961 0.78071 0.52598 0.0
C1785 C 0.25458 0.79578 0.55228 0.0
H1786 H 0.28145 0.74214 0.50542 0.0
H1787 H 0.28092 0.79067 0.5038 0.0
S1788 S 0.21399 0.76771 0.6315 0.0
N1789 N 0.22619 0.74105 0.60969 0.0
N1790 N 0.22563 0.79389 0.60793 0.0
C1791 C 0.24042 0.78158 0.58059 0.0
C1792 C 0.24072 0.75279 0.58154 0.0
C1793 C 0.50213 0.02363 0.77275 0.0
C1794 C 0.48638 1.00751 0.79688 0.0
C1795 C 0.53006 0.02177 0.77254 0.0
C1796 C 0.54382 1.00375 0.79653 0.0
H1797 H 0.49285 0.03765 0.75315 0.0
H1798 H 0.54089 0.03449 0.75284 0.0
S1799 S 0.51235 0.95793 0.86705 0.0
N1800 N 0.48687 0.97351 0.84681 0.0
N1801 N 0.53942 0.97008 0.8465 0.0
C1802 C 0.52845 0.98792 0.82165 0.0
C1803 C 0.49981 0.98977 0.82179 0.0
C1804 C 0.25825 0.78023 0.98748 0.0
C1805 C 0.27482 0.79478 0.96248 0.0
C1806 C 0.25814 0.7521 0.98808 0.0
C1807 C 0.2746 0.73693 0.96371 0.0
H1808 H 0.24534 0.79059 0.00737 0.0
H1809 H 0.24515 0.74225 0.0084 0.0
S1810 S 0.32091 0.76495 0.89115 0.0
N1811 N 0.30757 0.79168 0.91144 0.0
N1812 N 0.30738 0.73875 0.91257 0.0
C1813 C 0.2909 0.75111 0.93782 0.0
C1814 C 0.29101 0.77996 0.9372 0.0
C1815 C 0.53103 1.00675 0.22549 0.0
C1816 C 0.54476 0.02335 0.19959 0.0
C1817 C 0.50307 1.00619 0.22677 0.0
C1818 C 0.48748 0.02221 0.20223 0.0
H1819 H 0.54192 0.99446 0.24573 0.0
H1820 H 0.49367 0.99348 0.24793 0.0
S1821 S 0.51343 0.06759 0.12669 0.0
N1822 N 0.54047 0.05504 0.14697 0.0
N1823 N 0.48795 0.05401 0.14942 0.0
C1824 C 0.50088 0.03819 0.17513 0.0
C1825 C 0.52945 0.03875 0.1738 0.0
C1826 C 0.2385 0.24459 0.43833 0.0
C1827 C 0.25792 0.23047 0.45953 0.0
C1828 C 0.23779 0.27286 0.43779 0.0
C1829 C 0.25642 0.28822 0.45853 0.0
H1830 H 0.22325 0.23375 0.42276 0.0
H1831 H 0.22198 0.2827 0.42193 0.0
S1832 S 0.31328 0.26132 0.515 0.0
N1833 N 0.2977 0.2344 0.49918 0.0
N1834 N 0.29622 0.28712 0.49824 0.0
C1835 C 0.27659 0.27439 0.47851 0.0
C1836 C 0.27739 0.24569 0.47898 0.0
C1837 C 0.03005 0.03278 0.7324 0.0
C1838 C 0.04234 1.01262 0.71042 0.0
C1839 C 1.00221 0.03598 0.73305 0.0
C1840 C 0.98525 0.01916 0.71179 0.0
H1841 H 0.04197 0.04624 0.74963 0.0
H1842 H 0.99399 0.0518 0.75064 0.0
S1843 S 1.00717 0.96332 0.64895 0.0
N1844 N 0.03524 0.97572 0.66622 0.0
N1845 N 0.98299 0.98153 0.66772 0.0
C1846 C 0.99724 0.99902 0.68932 0.0
C1847 C 0.0257 0.99581 0.68856 0.0
C1848 C 0.73955 0.78084 0.93573 0.0
C1849 C 0.75831 0.79661 0.95569 0.0
C1850 C 0.73962 0.75262 0.93829 0.0
C1851 C 0.75839 0.73884 0.96106 0.0
H1852 H 0.72425 0.79035 0.9185 0.0
H1853 H 0.72441 0.74157 0.92296 0.0
S1854 S 0.81338 0.77038 0.01642 0.0
N1855 N 0.79733 0.79594 0.99707 0.0
N1856 N 0.79743 0.74329 1.00196 0.0
C1857 C 0.77781 0.75432 0.98015 0.0
C1858 C 0.77778 0.78302 0.97744 0.0
C1859 C 0.7514 0.25255 0.48594 0.0
C1860 C 0.76878 0.23796 0.46209 0.0
C1861 C 0.75095 0.28067 0.48604 0.0
C1862 C 0.76788 0.29581 0.46234 0.0
H1863 H 0.73807 0.24222 0.5053 0.0
H1864 H 0.73739 0.29056 0.50554 0.0
S1865 S 0.81625 0.26773 0.39264 0.0
N1866 N 0.80271 0.24101 0.41271 0.0
N1867 N 0.80193 0.29395 0.41292 0.0
C1868 C 0.78499 0.2816 0.43755 0.0
C1869 C 0.78543 0.25275 0.43743 0.0
C1870 C 0.74007 0.24498 0.05963 0.0
C1871 C 0.76054 0.22917 0.0437 0.0
C1872 C 0.74053 0.27316 0.05728 0.0
C1873 C 0.76164 0.28693 0.03928 0.0
H1874 H 0.72322 0.23554 0.07356 0.0
H1875 H 0.72405 0.28417 0.06962 0.0
S1876 S 0.82062 0.25496 0.99364 0.0
N1877 N 0.80275 0.2295 0.00952 0.0
N1878 N 0.80383 0.28221 1.00547 0.0
C1879 C 0.78233 0.27133 0.02333 0.0
C1880 C 0.78175 0.2426 0.02551 0.0
C1881 C 0.75645 0.77001 0.52 0.0
C1882 C 0.7718 0.78652 0.5441 0.0
C1883 C 0.75787 0.74197 0.52202 0.0
C1884 C 0.77474 0.72884 0.54824 0.0
H1885 H 0.74321 0.77874 0.4989 0.0
H1886 H 0.74569 0.73055 0.50235 0.0
S1887 S 0.81853 0.76246 0.61914 0.0
N1888 N 0.80404 0.78749 0.59606 0.0
N1889 N 0.80676 0.73467 0.59984 0.0
C1890 C 0.79002 0.74499 0.57303 0.0
C1891 C 0.78854 0.77377 0.57098 0.0
C1892 C 0.52765 0.53943 0.82652 0.0
C1893 C 0.54188 0.52012 0.8053 0.0
C1894 C 0.49955 0.54052 0.82589 0.0
C1895 C 0.48439 0.52239 0.80397 0.0
H1896 H 0.53828 0.55429 0.84315 0.0
H1897 H 0.48971 0.55618 0.84204 0.0
S1898 S 0.51167 0.46624 0.74617 0.0
N1899 N 0.53833 0.4812 0.76381 0.0
N1900 N 0.48586 0.48327 0.76259 0.0
C1901 C 0.49832 0.50237 0.78373 0.0
C1902 C 0.52691 0.50123 0.7844 0.0
C1903 C 0.03355 0.4865 0.3296 0.0
C1904 C 0.04856 0.48977 0.296 0.0
C1905 C 1.00564 0.49063 0.32977 0.0
C1906 C 0.99184 0.49877 0.29657 0.0
H1907 H 0.04321 0.47949 0.35542 0.0
H1908 H 0.99475 0.48702 0.35595 0.0
S1909 S 0.02272 0.51195 0.20202 0.0
N1910 N 0.04795 0.50262 0.22933 0.0
N1911 N 0.99607 0.5112 0.22966 0.0
C1912 C 1.00702 0.50325 0.26332 0.0
C1913 C 0.0352 0.49851 0.26303 0.0
C1914 C 0.03115 0.50685 0.74055 0.0
C1915 C 0.04578 0.52228 0.71418 0.0
C1916 C 1.00315 0.50707 0.74103 0.0
C1917 C 0.98822 0.52278 0.71523 0.0
H1918 H 0.04135 0.49468 0.76164 0.0
H1919 H 0.99321 0.49506 0.7625 0.0
S1920 S 0.01657 0.56575 0.63863 0.0
N1921 N 0.04301 0.55292 0.66017 0.0
N1922 N 0.99037 0.55339 0.66116 0.0
C1923 C 1.00249 0.53779 0.68788 0.0
C1924 C 0.03119 0.53751 0.68732 0.0
C1925 C 0.49971 0.5224 0.24111 0.0
C1926 C 0.48543 0.50516 0.21669 0.0
C1927 C 0.52769 0.52313 0.24144 0.0
C1928 C 0.54313 0.50664 0.21739 0.0
H1929 H 0.48924 0.53544 0.26074 0.0
H1930 H 0.53724 0.53669 0.26131 0.0
S1931 S 0.51591 0.45857 0.14642 0.0
N1932 N 0.48909 0.47165 0.16656 0.0
N1933 N 0.54179 0.473 0.16721 0.0
C1934 C 0.52924 0.4896 0.19211 0.0
C1935 C 0.50047 0.48888 0.19175 0.0
loop_
_geom_bond_atom_site_label_1
_geom_bond_atom_site_label_2
_geom_bond_distance
_geom_bond_site_symmetry_2
_ccdc_geom_bond_type
C0 C1 1.351 . S
C0 N3 1.368 . S
C0 H5 0.931 . S
C1 C0 1.351 . S
C1 N2 1.373 . S
C1 H29 0.930 . S
N2 C1 1.373 . S
N2 C4 1.340 . S
N3 C0 1.368 . S
N3 C4 1.321 . S
N3 Co6 2.135 . S
C4 N2 1.340 . S
C4 N3 1.321 . S
C4 H28 0.930 . S
H5 C0 0.931 . S
Co6 N3 2.135 . S
Co6 N9 2.121 . S
Co6 O14 2.055 . S
Co6 O17 2.039 . S
Co6 N20 2.140 . S
C7 O8 1.227 . S
C7 O17 1.265 . S
O8 C7 1.227 . S
N9 Co6 2.121 . S
N9 C11 1.356 1_554 S
N9 C12 1.313 . S
C10 C11 1.365 . S
C10 N13 1.377 . S
C10 H30 0.930 . S
C11 N9 1.356 1_556 S
C11 C10 1.365 . S
C11 H15 0.924 1_556 S
C12 N9 1.313 . S
C12 N13 1.344 1_554 S
C12 H16 0.930 . S
N13 C10 1.377 . S
N13 C12 1.344 1_556 S
O14 Co6 2.055 . S
O14 C18 1.253 . S
H15 C11 0.924 1_554 S
H16 C12 0.930 . S
O17 Co6 2.039 . S
O17 C7 1.265 . S
C18 O14 1.253 . S
C18 O19 1.227 . S
O19 C18 1.227 . S
N20 Co6 2.140 . S
N20 C23 1.346 . S
N20 C24 1.345 . S
C21 C22 1.387 . S
C21 C25 1.391 . S
C22 C21 1.387 . S
C22 C23 1.369 . S
C22 H31 0.929 . S
C23 N20 1.346 . S
C23 C22 1.369 . S
C23 H26 0.928 . S
C24 N20 1.345 . S
C24 C25 1.371 . S
C24 H27 0.931 . S
C25 C21 1.391 . S
C25 C24 1.371 . S
C25 H32 0.930 . S
H26 C23 0.928 . S
H27 C24 0.931 . S
H28 C4 0.930 . S
H29 C1 0.930 . S
H30 C10 0.930 . S
H31 C22 0.929 . S
H32 C25 0.930 . S
C33 C34 1.351 . S
C33 N36 1.368 . S
C33 H38 0.931 . S
C34 C33 1.351 . S
C34 N35 1.373 . S
C34 H62 0.930 . S
N35 C34 1.373 . S
N35 C37 1.340 . S
N36 C33 1.368 . S
N36 C37 1.321 . S
N36 Co39 2.135 . S
C37 N35 1.340 . S
C37 N36 1.321 . S
C37 H61 0.930 . S
H38 C33 0.931 . S
Co39 N36 2.135 . S
Co39 N42 2.121 . S
Co39 O47 2.055 . S
Co39 O50 2.039 . S
Co39 N53 2.140 1_545 S
C40 O41 1.227 . S
C40 O50 1.265 1_565 S
O41 C40 1.227 . S
N42 Co39 2.121 . S
N42 C44 1.375 1_545 S
N42 C45 1.313 . S
C43 C44 1.338 . S
C43 N46 1.377 1_565 S
C43 H63 0.930 . S
C44 N42 1.375 1_565 S
C44 C43 1.338 . S
C44 H48 0.931 . S
C45 N42 1.313 . S
C45 N46 1.344 . S
C45 H49 0.930 . S
N46 C43 1.377 1_545 S
N46 C45 1.344 . S
O47 Co39 2.055 . S
O47 C51 1.253 . S
H48 C44 0.931 . S
H49 C45 0.930 . S
O50 Co39 2.039 . S
O50 C40 1.265 1_545 S
C51 O47 1.253 . S
C51 O52 1.227 . S
O52 C51 1.227 . S
N53 Co39 2.140 1_565 S
N53 C56 1.346 . S
N53 C57 1.345 . S
C54 C55 1.387 . S
C54 C58 1.391 . S
C55 C54 1.387 . S
C55 C56 1.369 . S
C55 H64 0.929 . S
C56 N53 1.346 . S
C56 C55 1.369 . S
C56 H59 0.928 . S
C57 N53 1.345 . S
C57 C58 1.371 . S
C57 H60 0.931 . S
C58 C54 1.391 . S
C58 C57 1.371 . S
C58 H65 0.930 . S
H59 C56 0.928 . S
H60 C57 0.931 . S
H61 C37 0.930 . S
H62 C34 0.930 . S
H63 C43 0.930 . S
H64 C55 0.929 . S
H65 C58 0.930 . S
C66 C67 1.351 . S
C66 N69 1.368 . S
C66 H71 0.931 . S
C67 C66 1.351 . S
C67 N68 1.373 . S
C67 H95 0.930 . S
N68 C67 1.373 . S
N68 C70 1.340 . S
N69 C66 1.368 . S
N69 C70 1.321 . S
N69 Co72 2.135 . S
C70 N68 1.340 . S
C70 N69 1.321 . S
C70 H94 0.930 . S
H71 C66 0.931 . S
Co72 N69 2.135 . S
Co72 N75 2.121 . S
Co72 O80 2.055 . S
Co72 O83 2.039 . S
Co72 N86 2.140 . S
C73 O74 1.227 . S
C73 O83 1.265 . S
O74 C73 1.227 . S
N75 Co72 2.121 . S
N75 C77 1.375 . S
N75 C78 1.313 . S
C76 C77 1.338 . S
C76 N79 1.377 . S
C76 H96 0.930 . S
C77 N75 1.375 . S
C77 C76 1.338 . S
C77 H81 0.931 . S
C78 N75 1.313 . S
C78 N79 1.344 . S
C78 H82 0.930 . S
N79 C76 1.377 . S
N79 C78 1.344 . S
O80 Co72 2.055 . S
O80 C84 1.253 . S
H81 C77 0.931 . S
H82 C78 0.930 . S
O83 Co72 2.039 . S
O83 C73 1.265 . S
C84 O80 1.253 . S
C84 O85 1.227 . S
O85 C84 1.227 . S
N86 Co72 2.140 . S
N86 C89 1.346 . S
N86 C90 1.345 . S
C87 C88 1.387 . S
C87 C91 1.391 . S
C88 C87 1.387 . S
C88 C89 1.369 . S
C88 H97 0.929 . S
C89 N86 1.346 . S
C89 C88 1.369 . S
C89 H92 0.928 . S
C90 N86 1.345 . S
C90 C91 1.371 . S
C90 H93 0.931 . S
C91 C87 1.391 . S
C91 C90 1.371 . S
C91 H98 0.930 . S
H92 C89 0.928 . S
H93 C90 0.931 . S
H94 C70 0.930 . S
H95 C67 0.930 . S
H96 C76 0.930 . S
H97 C88 0.929 . S
H98 C91 0.930 . S
C99 C100 1.351 . S
C99 N102 1.368 . S
C99 H104 0.931 . S
C100 C99 1.351 . S
C100 N101 1.373 . S
C100 H128 0.930 . S
N101 C100 1.373 . S
N101 C103 1.340 . S
N102 C99 1.368 . S
N102 C103 1.321 . S
N102 Co105 2.135 . S
C103 N101 1.340 . S
C103 N102 1.321 . S
C103 H127 0.930 . S
H104 C99 0.931 . S
Co105 N102 2.135 . S
Co105 N108 2.121 . S
Co105 O113 2.055 . S
Co105 O116 2.039 . S
Co105 N119 2.140 1_565 S
C106 O107 1.227 . S
C106 O116 1.265 1_545 S
O107 C106 1.227 . S
N108 Co105 2.121 . S
N108 C110 1.375 1_565 S
N108 C111 1.313 . S
C109 C110 1.338 . S
C109 N112 1.377 1_545 S
C109 H129 0.930 . S
C110 N108 1.375 1_545 S
C110 C109 1.338 . S
C110 H114 0.931 . S
C111 N108 1.313 . S
C111 N112 1.344 . S
C111 H115 0.930 . S
N112 C109 1.377 1_565 S
N112 C111 1.344 . S
O113 Co105 2.055 . S
O113 C117 1.253 . S
H114 C110 0.931 . S
H115 C111 0.930 . S
O116 Co105 2.039 . S
O116 C106 1.265 1_565 S
C117 O113 1.253 . S
C117 O118 1.227 . S
O118 C117 1.227 . S
N119 Co105 2.140 1_545 S
N119 C122 1.346 . S
N119 C123 1.345 . S
C120 C121 1.387 . S
C120 C124 1.391 . S
C121 C120 1.387 . S
C121 C122 1.369 . S
C121 H130 0.929 . S
C122 N119 1.346 . S
C122 C121 1.369 . S
C122 H125 0.928 . S
C123 N119 1.345 . S
C123 C124 1.371 . S
C123 H126 0.931 . S
C124 C120 1.391 . S
C124 C123 1.371 . S
C124 H131 0.930 . S
H125 C122 0.928 . S
H126 C123 0.931 . S
H127 C103 0.930 . S
H128 C100 0.930 . S
H129 C109 0.930 . S
H130 C121 0.929 . S
H131 C124 0.930 . S
C132 C133 1.351 . S
C132 N135 1.368 . S
C132 H137 0.931 . S
C133 C132 1.351 . S
C133 N134 1.373 . S
C133 H161 0.930 . S
N134 C133 1.373 . S
N134 C136 1.340 . S
N135 C132 1.368 . S
N135 C136 1.321 . S
N135 Co138 2.135 . S
C136 N134 1.340 . S
C136 N135 1.321 . S
C136 H160 0.930 . S
H137 C132 0.931 . S
Co138 N135 2.135 . S
Co138 N141 2.121 . S
Co138 O146 2.055 . S
Co138 O149 2.039 . S
Co138 N152 2.140 . S
C139 O140 1.227 . S
C139 O149 1.265 . S
O140 C139 1.227 . S
N141 Co138 2.121 . S
N141 C143 1.356 1_556 S
N141 C144 1.313 . S
C142 C143 1.365 . S
C142 N145 1.377 . S
C142 H162 0.930 . S
C143 N141 1.356 1_554 S
C143 C142 1.365 . S
C143 H147 0.924 1_554 S
C144 N141 1.313 . S
C144 N145 1.344 1_556 S
C144 H148 0.930 . S
N145 C142 1.377 . S
N145 C144 1.344 1_554 S
O146 Co138 2.055 . S
O146 C150 1.253 . S
H147 C143 0.924 1_556 S
H148 C144 0.930 . S
O149 Co138 2.039 . S
O149 C139 1.265 . S
C150 O146 1.253 . S
C150 O151 1.227 . S
O151 C150 1.227 . S
N152 Co138 2.140 . S
N152 C155 1.346 . S
N152 C156 1.345 . S
C153 C154 1.387 . S
C153 C157 1.391 . S
C154 C153 1.387 . S
C154 C155 1.369 . S
C154 H163 0.929 . S
C155 N152 1.346 . S
C155 C154 1.369 . S
C155 H158 0.928 . S
C156 N152 1.345 . S
C156 C157 1.371 . S
C156 H159 0.931 . S
C157 C153 1.391 . S
C157 C156 1.371 . S
C157 H164 0.930 . S
H158 C155 0.928 . S
H159 C156 0.931 . S
H160 C136 0.930 . S
H161 C133 0.930 . S
H162 C142 0.930 . S
H163 C154 0.929 . S
H164 C157 0.930 . S
C165 C166 1.351 . S
C165 N168 1.368 . S
C165 H170 0.931 . S
C166 C165 1.351 . S
C166 N167 1.373 . S
C166 H194 0.930 . S
N167 C166 1.373 . S
N167 C169 1.340 . S
N168 C165 1.368 . S
N168 C169 1.321 . S
N168 Co171 2.135 . S
C169 N167 1.340 . S
C169 N168 1.321 . S
C169 H193 0.930 . S
H170 C165 0.931 . S
Co171 N168 2.135 . S
Co171 N174 2.121 . S
Co171 O179 2.055 . S
Co171 O182 2.039 . S
Co171 N185 2.140 1_545 S
C172 O173 1.227 . S
C172 O182 1.265 1_565 S
O173 C172 1.227 . S
N174 Co171 2.121 . S
N174 C176 1.375 1_545 S
N174 C177 1.313 . S
C175 C176 1.338 . S
C175 N178 1.377 1_565 S
C175 H195 0.930 . S
C176 N174 1.375 1_565 S
C176 C175 1.338 . S
C176 H180 0.931 . S
C177 N174 1.313 . S
C177 N178 1.344 . S
C177 H181 0.930 . S
N178 C175 1.377 1_545 S
N178 C177 1.344 . S
O179 Co171 2.055 . S
O179 C183 1.253 . S
H180 C176 0.931 . S
H181 C177 0.930 . S
O182 Co171 2.039 . S
O182 C172 1.265 1_545 S
C183 O179 1.253 . S
C183 O184 1.227 . S
O184 C183 1.227 . S
N185 Co171 2.140 1_565 S
N185 C188 1.346 . S
N185 C189 1.345 . S
C186 C187 1.387 . S
C186 C190 1.391 . S
C187 C186 1.387 . S
C187 C188 1.369 . S
C187 H196 0.929 . S
C188 N185 1.346 . S
C188 C187 1.369 . S
C188 H191 0.928 . S
C189 N185 1.345 . S
C189 C190 1.371 . S
C189 H192 0.931 . S
C190 C186 1.391 . S
C190 C189 1.371 . S
C190 H197 0.930 . S
H191 C188 0.928 . S
H192 C189 0.931 . S
H193 C169 0.930 . S
H194 C166 0.930 . S
H195 C175 0.930 . S
H196 C187 0.929 . S
H197 C190 0.930 . S
C198 C199 1.351 . S
C198 N201 1.368 . S
C198 H203 0.931 . S
C199 C198 1.351 . S
C199 N200 1.373 . S
C199 H227 0.930 . S
N200 C199 1.373 . S
N200 C202 1.340 . S
N201 C198 1.368 . S
N201 C202 1.321 . S
N201 Co204 2.135 . S
C202 N200 1.340 . S
C202 N201 1.321 . S
C202 H226 0.930 . S
H203 C198 0.931 . S
Co204 N201 2.135 . S
Co204 N207 2.121 . S
Co204 O212 2.055 . S
Co204 O215 2.039 . S
Co204 N218 2.140 . S
C205 O206 1.227 . S
C205 O215 1.265 . S
O206 C205 1.227 . S
N207 Co204 2.121 . S
N207 C209 1.375 . S
N207 C210 1.313 . S
C208 C209 1.338 . S
C208 N211 1.377 . S
C208 H228 0.930 . S
C209 N207 1.375 . S
C209 C208 1.338 . S
C209 H213 0.931 . S
C210 N207 1.313 . S
C210 N211 1.344 . S
C210 H214 0.930 . S
N211 C208 1.377 . S
N211 C210 1.344 . S
O212 Co204 2.055 . S
O212 C216 1.253 . S
H213 C209 0.931 . S
H214 C210 0.930 . S
O215 Co204 2.039 . S
O215 C205 1.265 . S
C216 O212 1.253 . S
C216 O217 1.227 . S
O217 C216 1.227 . S
N218 Co204 2.140 . S
N218 C221 1.346 . S
N218 C222 1.345 . S
C219 C220 1.387 . S
C219 C223 1.391 . S
C220 C219 1.387 . S
C220 C221 1.369 . S
C220 H229 0.929 . S
C221 N218 1.346 . S
C221 C220 1.369 . S
C221 H224 0.928 . S
C222 N218 1.345 . S
C222 C223 1.371 . S
C222 H225 0.931 . S
C223 C219 1.391 . S
C223 C222 1.371 . S
C223 H230 0.930 . S
H224 C221 0.928 . S
H225 C222 0.931 . S
H226 C202 0.930 . S
H227 C199 0.930 . S
H228 C208 0.930 . S
H229 C220 0.929 . S
H230 C223 0.930 . S
C231 C232 1.351 . S
C231 N234 1.368 . S
C231 H236 0.931 . S
C232 C231 1.351 . S
C232 N233 1.373 . S
C232 H260 0.930 . S
N233 C232 1.373 . S
N233 C235 1.340 . S
N234 C231 1.368 . S
N234 C235 1.321 . S
N234 Co237 2.135 . S
C235 N233 1.340 . S
C235 N234 1.321 . S
C235 H259 0.930 . S
H236 C231 0.931 . S
Co237 N234 2.135 . S
Co237 N240 2.121 . S
Co237 O245 2.055 . S
Co237 O248 2.039 . S
Co237 N251 2.140 1_565 S
C238 O239 1.227 . S
C238 O248 1.265 1_545 S
O239 C238 1.227 . S
N240 Co237 2.121 . S
N240 C242 1.375 1_565 S
N240 C243 1.313 . S
C241 C242 1.338 . S
C241 N244 1.377 1_545 S
C241 H261 0.930 . S
C242 N240 1.375 1_545 S
C242 C241 1.338 . S
C242 H246 0.931 . S
C243 N240 1.313 . S
C243 N244 1.344 . S
C243 H247 0.930 . S
N244 C241 1.377 1_565 S
N244 C243 1.344 . S
O245 Co237 2.055 . S
O245 C249 1.253 . S
H246 C242 0.931 . S
H247 C243 0.930 . S
O248 Co237 2.039 . S
O248 C238 1.265 1_565 S
C249 O245 1.253 . S
C249 O250 1.227 . S
O250 C249 1.227 . S
N251 Co237 2.140 1_545 S
N251 C254 1.346 . S
N251 C255 1.345 . S
C252 C253 1.387 . S
C252 C256 1.391 . S
C253 C252 1.387 . S
C253 C254 1.369 . S
C253 H262 0.929 . S
C254 N251 1.346 . S
C254 C253 1.369 . S
C254 H257 0.928 . S
C255 N251 1.345 . S
C255 C256 1.371 . S
C255 H258 0.931 . S
C256 C252 1.391 . S
C256 C255 1.371 . S
C256 H263 0.930 . S
H257 C254 0.928 . S
H258 C255 0.931 . S
H259 C235 0.930 . S
H260 C232 0.930 . S
H261 C241 0.930 . S
H262 C253 0.929 . S
H263 C256 0.930 . S
C264 C265 1.351 . S
C264 N267 1.368 . S
C264 H269 0.931 . S
C265 C264 1.351 . S
C265 N266 1.373 . S
C265 H293 0.930 . S
N266 C265 1.373 . S
N266 C268 1.340 . S
N267 C264 1.368 . S
N267 C268 1.321 . S
N267 Co270 2.135 . S
C268 N266 1.340 . S
C268 N267 1.321 . S
C268 H292 0.930 . S
H269 C264 0.931 . S
Co270 N267 2.135 . S
Co270 N273 2.121 . S
Co270 O278 2.055 . S
Co270 O281 2.039 . S
Co270 N284 2.140 . S
C271 O272 1.227 . S
C271 O281 1.265 . S
O272 C271 1.227 . S
N273 Co270 2.121 . S
N273 C275 1.356 1_556 S
N273 C276 1.313 . S
C274 C275 1.365 . S
C274 N277 1.377 . S
C274 H294 0.930 . S
C275 N273 1.356 1_554 S
C275 C274 1.365 . S
C275 H279 0.924 1_554 S
C276 N273 1.313 . S
C276 N277 1.344 1_556 S
C276 H280 0.930 . S
N277 C274 1.377 . S
N277 C276 1.344 1_554 S
O278 Co270 2.055 . S
O278 C282 1.253 . S
H279 C275 0.924 1_556 S
H280 C276 0.930 . S
O281 Co270 2.039 . S
O281 C271 1.265 . S
C282 O278 1.253 . S
C282 O283 1.227 . S
O283 C282 1.227 . S
N284 Co270 2.140 . S
N284 C287 1.346 . S
N284 C288 1.345 . S
C285 C286 1.387 . S
C285 C289 1.391 . S
C286 C285 1.387 . S
C286 C287 1.369 . S
C286 H295 0.929 . S
C287 N284 1.346 . S
C287 C286 1.369 . S
C287 H290 0.928 . S
C288 N284 1.345 . S
C288 C289 1.371 . S
C288 H291 0.931 . S
C289 C285 1.391 . S
C289 C288 1.371 . S
C289 H296 0.930 . S
H290 C287 0.928 . S
H291 C288 0.931 . S
H292 C268 0.930 . S
H293 C265 0.930 . S
H294 C274 0.930 . S
H295 C286 0.929 . S
H296 C289 0.930 . S
C297 C298 1.351 . S
C297 N300 1.368 . S
C297 H302 0.931 . S
C298 C297 1.351 . S
C298 N299 1.373 . S
C298 H326 0.930 . S
N299 C298 1.373 . S
N299 C301 1.340 . S
N300 C297 1.368 . S
N300 C301 1.321 . S
N300 Co303 2.135 . S
C301 N299 1.340 . S
C301 N300 1.321 . S
C301 H325 0.930 . S
H302 C297 0.931 . S
Co303 N300 2.135 . S
Co303 N306 2.121 . S
Co303 O311 2.055 . S
Co303 O314 2.039 . S
Co303 N317 2.140 1_565 S
C304 O305 1.227 . S
C304 O314 1.265 1_545 S
O305 C304 1.227 . S
N306 Co303 2.121 . S
N306 C308 1.375 1_565 S
N306 C309 1.313 . S
C307 C308 1.338 . S
C307 N310 1.377 1_545 S
C307 H327 0.930 . S
C308 N306 1.375 1_545 S
C308 C307 1.338 . S
C308 H312 0.931 . S
C309 N306 1.313 . S
C309 N310 1.344 . S
C309 H313 0.930 . S
N310 C307 1.377 1_565 S
N310 C309 1.344 . S
O311 Co303 2.055 . S
O311 C315 1.253 . S
H312 C308 0.931 . S
H313 C309 0.930 . S
O314 Co303 2.039 . S
O314 C304 1.265 1_565 S
C315 O311 1.253 . S
C315 O316 1.227 . S
O316 C315 1.227 . S
N317 Co303 2.140 1_545 S
N317 C320 1.346 . S
N317 C321 1.345 . S
C318 C319 1.387 . S
C318 C322 1.391 . S
C319 C318 1.387 . S
C319 C320 1.369 . S
C319 H328 0.929 . S
C320 N317 1.346 . S
C320 C319 1.369 . S
C320 H323 0.928 . S
C321 N317 1.345 . S
C321 C322 1.371 . S
C321 H324 0.931 . S
C322 C318 1.391 . S
C322 C321 1.371 . S
C322 H329 0.930 . S
H323 C320 0.928 . S
H324 C321 0.931 . S
H325 C301 0.930 . S
H326 C298 0.930 . S
H327 C307 0.930 . S
H328 C319 0.929 . S
H329 C322 0.930 . S
C330 C331 1.351 . S
C330 N333 1.368 . S
C330 H335 0.931 . S
C331 C330 1.351 . S
C331 N332 1.373 . S
C331 H359 0.930 . S
N332 C331 1.373 . S
N332 C334 1.340 . S
N333 C330 1.368 . S
N333 C334 1.321 . S
N333 Co336 2.135 . S
C334 N332 1.340 . S
C334 N333 1.321 . S
C334 H358 0.930 . S
H335 C330 0.931 . S
Co336 N333 2.135 . S
Co336 N339 2.121 . S
Co336 O344 2.055 . S
Co336 O347 2.039 . S
Co336 N350 2.140 . S
C337 O338 1.227 . S
C337 O347 1.265 . S
O338 C337 1.227 . S
N339 Co336 2.121 . S
N339 C341 1.375 . S
N339 C342 1.313 . S
C340 C341 1.338 . S
C340 N343 1.377 . S
C340 H360 0.930 . S
C341 N339 1.375 . S
C341 C340 1.338 . S
C341 H345 0.931 . S
C342 N339 1.313 . S
C342 N343 1.344 . S
C342 H346 0.930 . S
N343 C340 1.377 . S
N343 C342 1.344 . S
O344 Co336 2.055 . S
O344 C348 1.253 . S
H345 C341 0.931 . S
H346 C342 0.930 . S
O347 Co336 2.039 . S
O347 C337 1.265 . S
C348 O344 1.253 . S
C348 O349 1.227 . S
O349 C348 1.227 . S
N350 Co336 2.140 . S
N350 C353 1.346 . S
N350 C354 1.345 . S
C351 C352 1.387 . S
C351 C355 1.391 . S
C352 C351 1.387 . S
C352 C353 1.369 . S
C352 H361 0.929 . S
C353 N350 1.346 . S
C353 C352 1.369 . S
C353 H356 0.928 . S
C354 N350 1.345 . S
C354 C355 1.371 . S
C354 H357 0.931 . S
C355 C351 1.391 . S
C355 C354 1.371 . S
C355 H362 0.930 . S
H356 C353 0.928 . S
H357 C354 0.931 . S
H358 C334 0.930 . S
H359 C331 0.930 . S
H360 C340 0.930 . S
H361 C352 0.929 . S
H362 C355 0.930 . S
C363 C364 1.351 . S
C363 N366 1.368 . S
C363 H368 0.931 . S
C364 C363 1.351 . S
C364 N365 1.373 . S
C364 H392 0.930 . S
N365 C364 1.373 . S
N365 C367 1.340 . S
N366 C363 1.368 . S
N366 C367 1.321 . S
N366 Co369 2.135 . S
C367 N365 1.340 . S
C367 N366 1.321 . S
C367 H391 0.930 . S
H368 C363 0.931 . S
Co369 N366 2.135 . S
Co369 N372 2.121 . S
Co369 O377 2.055 . S
Co369 O380 2.039 . S
Co369 N383 2.140 1_545 S
C370 O371 1.227 . S
C370 O380 1.265 1_565 S
O371 C370 1.227 . S
N372 Co369 2.121 . S
N372 C374 1.375 1_545 S
N372 C375 1.313 . S
C373 C374 1.338 . S
C373 N376 1.377 1_565 S
C373 H393 0.930 . S
C374 N372 1.375 1_565 S
C374 C373 1.338 . S
C374 H378 0.931 . S
C375 N372 1.313 . S
C375 N376 1.344 . S
C375 H379 0.930 . S
N376 C373 1.377 1_545 S
N376 C375 1.344 . S
O377 Co369 2.055 . S
O377 C381 1.253 . S
H378 C374 0.931 . S
H379 C375 0.930 . S
O380 Co369 2.039 . S
O380 C370 1.265 1_545 S
C381 O377 1.253 . S
C381 O382 1.227 . S
O382 C381 1.227 . S
N383 Co369 2.140 1_565 S
N383 C386 1.346 . S
N383 C387 1.345 . S
C384 C385 1.387 . S
C384 C388 1.391 . S
C385 C384 1.387 . S
C385 C386 1.369 . S
C385 H394 0.929 . S
C386 N383 1.346 . S
C386 C385 1.369 . S
C386 H389 0.928 . S
C387 N383 1.345 . S
C387 C388 1.371 . S
C387 H390 0.931 . S
C388 C384 1.391 . S
C388 C387 1.371 . S
C388 H395 0.930 . S
H389 C386 0.928 . S
H390 C387 0.931 . S
H391 C367 0.930 . S
H392 C364 0.930 . S
H393 C373 0.930 . S
H394 C385 0.929 . S
H395 C388 0.930 . S
C396 C397 1.351 . S
C396 N399 1.368 . S
C396 H401 0.931 . S
C397 C396 1.351 . S
C397 N398 1.373 . S
C397 H425 0.930 . S
N398 C397 1.373 . S
N398 C400 1.340 . S
N399 C396 1.368 . S
N399 C400 1.321 . S
N399 Co402 2.135 . S
C400 N398 1.340 . S
C400 N399 1.321 . S
C400 H424 0.930 . S
H401 C396 0.931 . S
Co402 N399 2.135 . S
Co402 N405 2.121 . S
Co402 O410 2.055 . S
Co402 O413 2.039 . S
Co402 N416 2.140 . S
C403 O404 1.227 . S
C403 O413 1.265 . S
O404 C403 1.227 . S
N405 Co402 2.121 . S
N405 C407 1.356 1_554 S
N405 C408 1.313 . S
C406 C407 1.365 . S
C406 N409 1.377 . S
C406 H426 0.930 . S
C407 N405 1.356 1_556 S
C407 C406 1.365 . S
C407 H411 0.924 1_556 S
C408 N405 1.313 . S
C408 N409 1.344 1_554 S
C408 H412 0.930 . S
N409 C406 1.377 . S
N409 C408 1.344 1_556 S
O410 Co402 2.055 . S
O410 C414 1.253 . S
H411 C407 0.924 1_554 S
H412 C408 0.930 . S
O413 Co402 2.039 . S
O413 C403 1.265 . S
C414 O410 1.253 . S
C414 O415 1.227 . S
O415 C414 1.227 . S
N416 Co402 2.140 . S
N416 C419 1.346 . S
N416 C420 1.345 . S
C417 C418 1.387 . S
C417 C421 1.391 . S
C418 C417 1.387 . S
C418 C419 1.369 . S
C418 H427 0.929 . S
C419 N416 1.346 . S
C419 C418 1.369 . S
C419 H422 0.928 . S
C420 N416 1.345 . S
C420 C421 1.371 . S
C420 H423 0.931 . S
C421 C417 1.391 . S
C421 C420 1.371 . S
C421 H428 0.930 . S
H422 C419 0.928 . S
H423 C420 0.931 . S
H424 C400 0.930 . S
H425 C397 0.930 . S
H426 C406 0.930 . S
H427 C418 0.929 . S
H428 C421 0.930 . S
C429 C430 1.351 . S
C429 N432 1.368 . S
C429 H434 0.931 . S
C430 C429 1.351 . S
C430 N431 1.373 . S
C430 H458 0.930 . S
N431 C430 1.373 . S
N431 C433 1.340 . S
N432 C429 1.368 . S
N432 C433 1.321 . S
N432 Co435 2.135 . S
C433 N431 1.340 . S
C433 N432 1.321 . S
C433 H457 0.930 . S
H434 C429 0.931 . S
Co435 N432 2.135 . S
Co435 N438 2.121 . S
Co435 O443 2.055 . S
Co435 O446 2.039 . S
Co435 N449 2.140 1_565 S
C436 O437 1.227 . S
C436 O446 1.265 1_545 S
O437 C436 1.227 . S
N438 Co435 2.121 . S
N438 C440 1.375 1_565 S
N438 C441 1.313 . S
C439 C440 1.338 . S
C439 N442 1.377 1_545 S
C439 H459 0.930 . S
C440 N438 1.375 1_545 S
C440 C439 1.338 . S
C440 H444 0.931 . S
C441 N438 1.313 . S
C441 N442 1.344 . S
C441 H445 0.930 . S
N442 C439 1.377 1_565 S
N442 C441 1.344 . S
O443 Co435 2.055 . S
O443 C447 1.253 . S
H444 C440 0.931 . S
H445 C441 0.930 . S
O446 Co435 2.039 . S
O446 C436 1.265 1_565 S
C447 O443 1.253 . S
C447 O448 1.227 . S
O448 C447 1.227 . S
N449 Co435 2.140 1_545 S
N449 C452 1.346 . S
N449 C453 1.345 . S
C450 C451 1.387 . S
C450 C454 1.391 . S
C451 C450 1.387 . S
C451 C452 1.369 . S
C451 H460 0.929 . S
C452 N449 1.346 . S
C452 C451 1.369 . S
C452 H455 0.928 . S
C453 N449 1.345 . S
C453 C454 1.371 . S
C453 H456 0.931 . S
C454 C450 1.391 . S
C454 C453 1.371 . S
C454 H461 0.930 . S
H455 C452 0.928 . S
H456 C453 0.931 . S
H457 C433 0.930 . S
H458 C430 0.930 . S
H459 C439 0.930 . S
H460 C451 0.929 . S
H461 C454 0.930 . S
C462 C463 1.351 . S
C462 N465 1.368 . S
C462 H467 0.931 . S
C463 C462 1.351 . S
C463 N464 1.373 . S
C463 H491 0.930 . S
N464 C463 1.373 . S
N464 C466 1.340 . S
N465 C462 1.368 . S
N465 C466 1.321 . S
N465 Co468 2.135 . S
C466 N464 1.340 . S
C466 N465 1.321 . S
C466 H490 0.930 . S
H467 C462 0.931 . S
Co468 N465 2.135 . S
Co468 N471 2.121 . S
Co468 O476 2.055 . S
Co468 O479 2.039 . S
Co468 N482 2.140 . S
C469 O470 1.227 . S
C469 O479 1.265 . S
O470 C469 1.227 . S
N471 Co468 2.121 . S
N471 C473 1.375 . S
N471 C474 1.313 . S
C472 C473 1.338 . S
C472 N475 1.377 . S
C472 H492 0.930 . S
C473 N471 1.375 . S
C473 C472 1.338 . S
C473 H477 0.931 . S
C474 N471 1.313 . S
C474 N475 1.344 . S
C474 H478 0.930 . S
N475 C472 1.377 . S
N475 C474 1.344 . S
O476 Co468 2.055 . S
O476 C480 1.253 . S
H477 C473 0.931 . S
H478 C474 0.930 . S
O479 Co468 2.039 . S
O479 C469 1.265 . S
C480 O476 1.253 . S
C480 O481 1.227 . S
O481 C480 1.227 . S
N482 Co468 2.140 . S
N482 C485 1.346 . S
N482 C486 1.345 . S
C483 C484 1.387 . S
C483 C487 1.391 . S
C484 C483 1.387 . S
C484 C485 1.369 . S
C484 H493 0.929 . S
C485 N482 1.346 . S
C485 C484 1.369 . S
C485 H488 0.928 . S
C486 N482 1.345 . S
C486 C487 1.371 . S
C486 H489 0.931 . S
C487 C483 1.391 . S
C487 C486 1.371 . S
C487 H494 0.930 . S
H488 C485 0.928 . S
H489 C486 0.931 . S
H490 C466 0.930 . S
H491 C463 0.930 . S
H492 C472 0.930 . S
H493 C484 0.929 . S
H494 C487 0.930 . S
C495 C496 1.351 . S
C495 N498 1.368 . S
C495 H500 0.931 . S
C496 C495 1.351 . S
C496 N497 1.373 . S
C496 H524 0.930 . S
N497 C496 1.373 . S
N497 C499 1.340 . S
N498 C495 1.368 . S
N498 C499 1.321 . S
N498 Co501 2.135 . S
C499 N497 1.340 . S
C499 N498 1.321 . S
C499 H523 0.930 . S
H500 C495 0.931 . S
Co501 N498 2.135 . S
Co501 N504 2.121 . S
Co501 O509 2.055 . S
Co501 O512 2.039 . S
Co501 N515 2.140 1_545 S
C502 O503 1.227 . S
C502 O512 1.265 1_565 S
O503 C502 1.227 . S
N504 Co501 2.121 . S
N504 C506 1.375 1_545 S
N504 C507 1.313 . S
C505 C506 1.338 . S
C505 N508 1.377 1_565 S
C505 H525 0.930 . S
C506 N504 1.375 1_565 S
C506 C505 1.338 . S
C506 H510 0.931 . S
C507 N504 1.313 . S
C507 N508 1.344 . S
C507 H511 0.930 . S
N508 C505 1.377 1_545 S
N508 C507 1.344 . S
O509 Co501 2.055 . S
O509 C513 1.253 . S
H510 C506 0.931 . S
H511 C507 0.930 . S
O512 Co501 2.039 . S
O512 C502 1.265 1_545 S
C513 O509 1.253 . S
C513 O514 1.227 . S
O514 C513 1.227 . S
N515 Co501 2.140 1_565 S
N515 C518 1.346 . S
N515 C519 1.345 . S
C516 C517 1.387 . S
C516 C520 1.391 . S
C517 C516 1.387 . S
C517 C518 1.369 . S
C517 H526 0.929 . S
C518 N515 1.346 . S
C518 C517 1.369 . S
C518 H521 0.928 . S
C519 N515 1.345 . S
C519 C520 1.371 . S
C519 H522 0.931 . S
C520 C516 1.391 . S
C520 C519 1.371 . S
C520 H527 0.930 . S
H521 C518 0.928 . S
H522 C519 0.931 . S
H523 C499 0.930 . S
H524 C496 0.930 . S
H525 C505 0.930 . S
H526 C517 0.929 . S
H527 C520 0.930 . S
C528 C529 1.351 . S
C528 N531 1.368 . S
C528 H533 0.931 . S
C529 C528 1.351 . S
C529 N530 1.373 . S
C529 H557 0.930 . S
N530 C529 1.373 . S
N530 C532 1.340 . S
N531 C528 1.368 . S
N531 C532 1.321 . S
N531 Co534 2.135 . S
C532 N530 1.340 . S
C532 N531 1.321 . S
C532 H556 0.930 . S
H533 C528 0.931 . S
Co534 N531 2.135 . S
Co534 N537 2.121 . S
Co534 O542 2.055 . S
Co534 O545 2.039 . S
Co534 N548 2.140 . S
C535 O536 1.227 . S
C535 O545 1.265 . S
O536 C535 1.227 . S
N537 Co534 2.121 . S
N537 C539 1.375 . S
N537 C540 1.313 . S
C538 C539 1.338 . S
C538 N541 1.377 . S
C538 H558 0.930 . S
C539 N537 1.375 . S
C539 C538 1.338 . S
C539 H543 0.931 . S
C540 N537 1.313 . S
C540 N541 1.344 . S
C540 H544 0.930 . S
N541 C538 1.377 . S
N541 C540 1.344 . S
O542 Co534 2.055 . S
O542 C546 1.253 . S
H543 C539 0.931 . S
H544 C540 0.930 . S
O545 Co534 2.039 . S
O545 C535 1.265 . S
C546 O542 1.253 . S
C546 O547 1.227 . S
O547 C546 1.227 . S
N548 Co534 2.140 . S
N548 C551 1.346 . S
N548 C552 1.345 . S
C549 C550 1.387 . S
C549 C553 1.391 . S
C550 C549 1.387 . S
C550 C551 1.369 . S
C550 H559 0.929 . S
C551 N548 1.346 . S
C551 C550 1.369 . S
C551 H554 0.928 . S
C552 N548 1.345 . S
C552 C553 1.371 . S
C552 H555 0.931 . S
C553 C549 1.391 . S
C553 C552 1.371 . S
C553 H560 0.930 . S
H554 C551 0.928 . S
H555 C552 0.931 . S
H556 C532 0.930 . S
H557 C529 0.930 . S
H558 C538 0.930 . S
H559 C550 0.929 . S
H560 C553 0.930 . S
C561 C562 1.351 . S
C561 N564 1.368 . S
C561 H566 0.931 . S
C562 C561 1.351 . S
C562 N563 1.373 . S
C562 H590 0.930 . S
N563 C562 1.373 . S
N563 C565 1.340 . S
N564 C561 1.368 . S
N564 C565 1.321 . S
N564 Co567 2.135 . S
C565 N563 1.340 . S
C565 N564 1.321 . S
C565 H589 0.930 . S
H566 C561 0.931 . S
Co567 N564 2.135 . S
Co567 N570 2.121 . S
Co567 O575 2.055 . S
Co567 O578 2.039 . S
Co567 N581 2.140 . S
C568 O569 1.227 . S
C568 O578 1.265 . S
O569 C568 1.227 . S
N570 Co567 2.121 . S
N570 C572 1.375 . S
N570 C573 1.313 . S
C571 C572 1.338 . S
C571 N574 1.377 . S
C571 H591 0.930 . S
C572 N570 1.375 . S
C572 C571 1.338 . S
C572 H576 0.931 . S
C573 N570 1.313 . S
C573 N574 1.344 . S
C573 H577 0.930 . S
N574 C571 1.377 . S
N574 C573 1.344 . S
O575 Co567 2.055 . S
O575 C579 1.253 . S
H576 C572 0.931 . S
H577 C573 0.930 . S
O578 Co567 2.039 . S
O578 C568 1.265 . S
C579 O575 1.253 . S
C579 O580 1.227 . S
O580 C579 1.227 . S
N581 Co567 2.140 . S
N581 C584 1.346 . S
N581 C585 1.345 . S
C582 C583 1.387 . S
C582 C586 1.391 . S
C583 C582 1.387 . S
C583 C584 1.369 . S
C583 H592 0.929 . S
C584 N581 1.346 . S
C584 C583 1.369 . S
C584 H587 0.928 . S
C585 N581 1.345 . S
C585 C586 1.371 . S
C585 H588 0.931 . S
C586 C582 1.391 . S
C586 C585 1.371 . S
C586 H593 0.930 . S
H587 C584 0.928 . S
H588 C585 0.931 . S
H589 C565 0.930 . S
H590 C562 0.930 . S
H591 C571 0.930 . S
H592 C583 0.929 . S
H593 C586 0.930 . S
C594 C595 1.351 . S
C594 N597 1.368 . S
C594 H599 0.931 . S
C595 C594 1.351 . S
C595 N596 1.373 . S
C595 H623 0.930 . S
N596 C595 1.373 . S
N596 C598 1.340 . S
N597 C594 1.368 . S
N597 C598 1.321 . S
N597 Co600 2.135 . S
C598 N596 1.340 . S
C598 N597 1.321 . S
C598 H622 0.930 . S
H599 C594 0.931 . S
Co600 N597 2.135 . S
Co600 N603 2.121 . S
Co600 O608 2.055 . S
Co600 O611 2.039 . S
Co600 N614 2.140 . S
C601 O602 1.227 . S
C601 O611 1.265 . S
O602 C601 1.227 . S
N603 Co600 2.121 . S
N603 C605 1.375 1_554 S
N603 C606 1.313 . S
C604 C605 1.338 . S
C604 N607 1.377 . S
C604 H624 0.930 . S
C605 N603 1.375 1_556 S
C605 C604 1.338 . S
C605 H609 0.931 1_556 S
C606 N603 1.313 . S
C606 N607 1.344 1_554 S
C606 H610 0.930 . S
N607 C604 1.377 . S
N607 C606 1.344 1_556 S
O608 Co600 2.055 . S
O608 C612 1.253 . S
H609 C605 0.931 1_554 S
H610 C606 0.930 . S
O611 Co600 2.039 . S
O611 C601 1.265 . S
C612 O608 1.253 . S
C612 O613 1.227 . S
O613 C612 1.227 . S
N614 Co600 2.140 . S
N614 C617 1.346 . S
N614 C618 1.345 . S
C615 C616 1.387 . S
C615 C619 1.391 . S
C616 C615 1.387 . S
C616 C617 1.369 . S
C616 H625 0.929 . S
C617 N614 1.346 . S
C617 C616 1.369 . S
C617 H620 0.928 . S
C618 N614 1.345 . S
C618 C619 1.371 . S
C618 H621 0.931 . S
C619 C615 1.391 . S
C619 C618 1.371 . S
C619 H626 0.930 . S
H620 C617 0.928 . S
H621 C618 0.931 . S
H622 C598 0.930 . S
H623 C595 0.930 . S
H624 C604 0.930 . S
H625 C616 0.929 . S
H626 C619 0.930 . S
C627 C628 1.351 . S
C627 N630 1.368 . S
C627 H632 0.931 . S
C628 C627 1.351 . S
C628 N629 1.373 . S
C628 H656 0.930 . S
N629 C628 1.373 . S
N629 C631 1.340 . S
N630 C627 1.368 . S
N630 C631 1.321 . S
N630 Co633 2.135 . S
C631 N629 1.340 . S
C631 N630 1.321 . S
C631 H655 0.930 . S
H632 C627 0.931 . S
Co633 N630 2.135 . S
Co633 N636 2.121 . S
Co633 O641 2.055 . S
Co633 O644 2.039 . S
Co633 N647 2.140 . S
C634 O635 1.227 . S
C634 O644 1.265 . S
O635 C634 1.227 . S
N636 Co633 2.121 . S
N636 C638 1.375 . S
N636 C639 1.313 . S
C637 C638 1.338 . S
C637 N640 1.377 . S
C637 H657 0.930 . S
C638 N636 1.375 . S
C638 C637 1.338 . S
C638 H642 0.931 . S
C639 N636 1.313 . S
C639 N640 1.344 . S
C639 H643 0.930 . S
N640 C637 1.377 . S
N640 C639 1.344 . S
O641 Co633 2.055 . S
O641 C645 1.253 . S
H642 C638 0.931 . S
H643 C639 0.930 . S
O644 Co633 2.039 . S
O644 C634 1.265 . S
C645 O641 1.253 . S
C645 O646 1.227 . S
O646 C645 1.227 . S
N647 Co633 2.140 . S
N647 C650 1.346 . S
N647 C651 1.345 . S
C648 C649 1.387 . S
C648 C652 1.391 . S
C649 C648 1.387 . S
C649 C650 1.369 . S
C649 H658 0.929 . S
C650 N647 1.346 . S
C650 C649 1.369 . S
C650 H653 0.928 . S
C651 N647 1.345 . S
C651 C652 1.371 . S
C651 H654 0.931 . S
C652 C648 1.391 . S
C652 C651 1.371 . S
C652 H659 0.930 . S
H653 C650 0.928 . S
H654 C651 0.931 . S
H655 C631 0.930 . S
H656 C628 0.930 . S
H657 C637 0.930 . S
H658 C649 0.929 . S
H659 C652 0.930 . S
C660 C661 1.351 . S
C660 N663 1.368 . S
C660 H665 0.931 . S
C661 C660 1.351 . S
C661 N662 1.373 . S
C661 H689 0.930 . S
N662 C661 1.373 . S
N662 C664 1.340 . S
N663 C660 1.368 . S
N663 C664 1.321 . S
N663 Co666 2.135 . S
C664 N662 1.340 . S
C664 N663 1.321 . S
C664 H688 0.930 . S
H665 C660 0.931 . S
Co666 N663 2.135 . S
Co666 N669 2.121 . S
Co666 O674 2.055 . S
Co666 O677 2.039 . S
Co666 N680 2.140 . S
C667 O668 1.227 . S
C667 O677 1.265 . S
O668 C667 1.227 . S
N669 Co666 2.121 . S
N669 C671 1.375 . S
N669 C672 1.313 . S
C670 C671 1.338 . S
C670 N673 1.377 . S
C670 H690 0.930 . S
C671 N669 1.375 . S
C671 C670 1.338 . S
C671 H675 0.931 . S
C672 N669 1.313 . S
C672 N673 1.344 . S
C672 H676 0.930 . S
N673 C670 1.377 . S
N673 C672 1.344 . S
O674 Co666 2.055 . S
O674 C678 1.253 . S
H675 C671 0.931 . S
H676 C672 0.930 . S
O677 Co666 2.039 . S
O677 C667 1.265 . S
C678 O674 1.253 . S
C678 O679 1.227 . S
O679 C678 1.227 . S
N680 Co666 2.140 . S
N680 C683 1.346 . S
N680 C684 1.345 . S
C681 C682 1.387 . S
C681 C685 1.391 . S
C682 C681 1.387 . S
C682 C683 1.369 . S
C682 H691 0.929 . S
C683 N680 1.346 . S
C683 C682 1.369 . S
C683 H686 0.928 . S
C684 N680 1.345 . S
C684 C685 1.371 . S
C684 H687 0.931 . S
C685 C681 1.391 . S
C685 C684 1.371 . S
C685 H692 0.930 . S
H686 C683 0.928 . S
H687 C684 0.931 . S
H688 C664 0.930 . S
H689 C661 0.930 . S
H690 C670 0.930 . S
H691 C682 0.929 . S
H692 C685 0.930 . S
C693 C694 1.351 . S
C693 N696 1.368 . S
C693 H698 0.931 . S
C694 C693 1.351 . S
C694 N695 1.373 . S
C694 H722 0.930 . S
N695 C694 1.373 . S
N695 C697 1.340 . S
N696 C693 1.368 . S
N696 C697 1.321 . S
N696 Co699 2.135 . S
C697 N695 1.340 . S
C697 N696 1.321 . S
C697 H721 0.930 . S
H698 C693 0.931 . S
Co699 N696 2.135 . S
Co699 N702 2.121 . S
Co699 O707 2.055 . S
Co699 O710 2.039 . S
Co699 N713 2.140 . S
C700 O701 1.227 . S
C700 O710 1.265 . S
O701 C700 1.227 . S
N702 Co699 2.121 . S
N702 C704 1.375 . S
N702 C705 1.313 . S
C703 C704 1.338 . S
C703 N706 1.377 . S
C703 H723 0.930 . S
C704 N702 1.375 . S
C704 C703 1.338 . S
C704 H708 0.931 . S
C705 N702 1.313 . S
C705 N706 1.344 . S
C705 H709 0.930 . S
N706 C703 1.377 . S
N706 C705 1.344 . S
O707 Co699 2.055 . S
O707 C711 1.253 . S
H708 C704 0.931 . S
H709 C705 0.930 . S
O710 Co699 2.039 . S
O710 C700 1.265 . S
C711 O707 1.253 . S
C711 O712 1.227 . S
O712 C711 1.227 . S
N713 Co699 2.140 . S
N713 C716 1.346 . S
N713 C717 1.345 . S
C714 C715 1.387 . S
C714 C718 1.391 . S
C715 C714 1.387 . S
C715 C716 1.369 . S
C715 H724 0.929 . S
C716 N713 1.346 . S
C716 C715 1.369 . S
C716 H719 0.928 . S
C717 N713 1.345 . S
C717 C718 1.371 . S
C717 H720 0.931 . S
C718 C714 1.391 . S
C718 C717 1.371 . S
C718 H725 0.930 . S
H719 C716 0.928 . S
H720 C717 0.931 . S
H721 C697 0.930 . S
H722 C694 0.930 . S
H723 C703 0.930 . S
H724 C715 0.929 . S
H725 C718 0.930 . S
C726 C727 1.351 . S
C726 N729 1.368 . S
C726 H731 0.931 . S
C727 C726 1.351 . S
C727 N728 1.373 . S
C727 H755 0.930 . S
N728 C727 1.373 . S
N728 C730 1.340 . S
N729 C726 1.368 . S
N729 C730 1.321 . S
N729 Co732 2.135 . S
C730 N728 1.340 . S
C730 N729 1.321 . S
C730 H754 0.930 . S
H731 C726 0.931 . S
Co732 N729 2.135 . S
Co732 N735 2.121 . S
Co732 O740 2.055 . S
Co732 O743 2.039 . S
Co732 N746 2.140 . S
C733 O734 1.227 . S
C733 O743 1.265 . S
O734 C733 1.227 . S
N735 Co732 2.121 . S
N735 C737 1.375 1_556 S
N735 C738 1.313 . S
C736 C737 1.338 . S
C736 N739 1.377 . S
C736 H756 0.930 . S
C737 N735 1.375 1_554 S
C737 C736 1.338 . S
C737 H741 0.931 1_554 S
C738 N735 1.313 . S
C738 N739 1.344 1_556 S
C738 H742 0.930 . S
N739 C736 1.377 . S
N739 C738 1.344 1_554 S
O740 Co732 2.055 . S
O740 C744 1.253 . S
H741 C737 0.931 1_556 S
H742 C738 0.930 . S
O743 Co732 2.039 . S
O743 C733 1.265 . S
C744 O740 1.253 . S
C744 O745 1.227 . S
O745 C744 1.227 . S
N746 Co732 2.140 . S
N746 C749 1.346 . S
N746 C750 1.345 . S
C747 C748 1.387 . S
C747 C751 1.391 . S
C748 C747 1.387 . S
C748 C749 1.369 . S
C748 H757 0.929 . S
C749 N746 1.346 . S
C749 C748 1.369 . S
C749 H752 0.928 . S
C750 N746 1.345 . S
C750 C751 1.371 . S
C750 H753 0.931 . S
C751 C747 1.391 . S
C751 C750 1.371 . S
C751 H758 0.930 . S
H752 C749 0.928 . S
H753 C750 0.931 . S
H754 C730 0.930 . S
H755 C727 0.930 . S
H756 C736 0.930 . S
H757 C748 0.929 . S
H758 C751 0.930 . S
C759 C760 1.351 . S
C759 N762 1.368 . S
C759 H764 0.931 . S
C760 C759 1.351 . S
C760 N761 1.373 . S
C760 H788 0.930 . S
N761 C760 1.373 . S
N761 C763 1.340 . S
N762 C759 1.368 . S
N762 C763 1.321 . S
N762 Co765 2.135 . S
C763 N761 1.340 . S
C763 N762 1.321 . S
C763 H787 0.930 . S
H764 C759 0.931 . S
Co765 N762 2.135 . S
Co765 N768 2.121 . S
Co765 O773 2.055 . S
Co765 O776 2.039 . S
Co765 N779 2.140 . S
C766 O767 1.227 . S
C766 O776 1.265 . S
O767 C766 1.227 . S
N768 Co765 2.121 . S
N768 C770 1.375 . S
N768 C771 1.313 . S
C769 C770 1.338 . S
C769 N772 1.377 . S
C769 H789 0.930 . S
C770 N768 1.375 . S
C770 C769 1.338 . S
C770 H774 0.931 . S
C771 N768 1.313 . S
C771 N772 1.344 . S
C771 H775 0.930 . S
N772 C769 1.377 . S
N772 C771 1.344 . S
O773 Co765 2.055 . S
O773 C777 1.253 . S
H774 C770 0.931 . S
H775 C771 0.930 . S
O776 Co765 2.039 . S
O776 C766 1.265 . S
C777 O773 1.253 . S
C777 O778 1.227 . S
O778 C777 1.227 . S
N779 Co765 2.140 . S
N779 C782 1.346 . S
N779 C783 1.345 . S
C780 C781 1.387 . S
C780 C784 1.391 . S
C781 C780 1.387 . S
C781 C782 1.369 . S
C781 H790 0.929 . S
C782 N779 1.346 . S
C782 C781 1.369 . S
C782 H785 0.928 . S
C783 N779 1.345 . S
C783 C784 1.371 . S
C783 H786 0.931 . S
C784 C780 1.391 . S
C784 C783 1.371 . S
C784 H791 0.930 . S
H785 C782 0.928 . S
H786 C783 0.931 . S
H787 C763 0.930 . S
H788 C760 0.930 . S
H789 C769 0.930 . S
H790 C781 0.929 . S
H791 C784 0.930 . S
C792 C793 1.351 . S
C792 N795 1.368 . S
C792 H797 0.931 . S
C793 C792 1.351 . S
C793 N794 1.373 . S
C793 H821 0.930 . S
N794 C793 1.373 . S
N794 C796 1.340 . S
N795 C792 1.368 . S
N795 C796 1.321 . S
N795 Co798 2.135 . S
C796 N794 1.340 . S
C796 N795 1.321 . S
C796 H820 0.930 . S
H797 C792 0.931 . S
Co798 N795 2.135 . S
Co798 N801 2.121 . S
Co798 O806 2.055 . S
Co798 O809 2.039 . S
Co798 N812 2.140 . S
C799 O800 1.227 . S
C799 O809 1.265 . S
O800 C799 1.227 . S
N801 Co798 2.121 . S
N801 C803 1.375 . S
N801 C804 1.313 . S
C802 C803 1.338 . S
C802 N805 1.377 . S
C802 H822 0.930 . S
C803 N801 1.375 . S
C803 C802 1.338 . S
C803 H807 0.931 . S
C804 N801 1.313 . S
C804 N805 1.344 . S
C804 H808 0.930 . S
N805 C802 1.377 . S
N805 C804 1.344 . S
O806 Co798 2.055 . S
O806 C810 1.253 . S
H807 C803 0.931 . S
H808 C804 0.930 . S
O809 Co798 2.039 . S
O809 C799 1.265 . S
C810 O806 1.253 . S
C810 O811 1.227 . S
O811 C810 1.227 . S
N812 Co798 2.140 . S
N812 C815 1.346 . S
N812 C816 1.345 . S
C813 C814 1.387 . S
C813 C817 1.391 . S
C814 C813 1.387 . S
C814 C815 1.369 . S
C814 H823 0.929 . S
C815 N812 1.346 . S
C815 C814 1.369 . S
C815 H818 0.928 . S
C816 N812 1.345 . S
C816 C817 1.371 . S
C816 H819 0.931 . S
C817 C813 1.391 . S
C817 C816 1.371 . S
C817 H824 0.930 . S
H818 C815 0.928 . S
H819 C816 0.931 . S
H820 C796 0.930 . S
H821 C793 0.930 . S
H822 C802 0.930 . S
H823 C814 0.929 . S
H824 C817 0.930 . S
C825 C826 1.351 . S
C825 N828 1.368 . S
C825 H830 0.931 . S
C826 C825 1.351 . S
C826 N827 1.373 . S
C826 H854 0.930 . S
N827 C826 1.373 . S
N827 C829 1.340 . S
N828 C825 1.368 . S
N828 C829 1.321 . S
N828 Co831 2.135 . S
C829 N827 1.340 . S
C829 N828 1.321 . S
C829 H853 0.930 . S
H830 C825 0.931 . S
Co831 N828 2.135 . S
Co831 N834 2.121 . S
Co831 O839 2.055 . S
Co831 O842 2.039 . S
Co831 N845 2.140 . S
C832 O833 1.227 . S
C832 O842 1.265 . S
O833 C832 1.227 . S
N834 Co831 2.121 . S
N834 C836 1.375 . S
N834 C837 1.313 . S
C835 C836 1.338 . S
C835 N838 1.377 . S
C835 H855 0.930 . S
C836 N834 1.375 . S
C836 C835 1.338 . S
C836 H840 0.931 . S
C837 N834 1.313 . S
C837 N838 1.344 . S
C837 H841 0.930 . S
N838 C835 1.377 . S
N838 C837 1.344 . S
O839 Co831 2.055 . S
O839 C843 1.253 . S
H840 C836 0.931 . S
H841 C837 0.930 . S
O842 Co831 2.039 . S
O842 C832 1.265 . S
C843 O839 1.253 . S
C843 O844 1.227 . S
O844 C843 1.227 . S
N845 Co831 2.140 . S
N845 C848 1.346 . S
N845 C849 1.345 . S
C846 C847 1.387 . S
C846 C850 1.391 . S
C847 C846 1.387 . S
C847 C848 1.369 . S
C847 H856 0.929 . S
C848 N845 1.346 . S
C848 C847 1.369 . S
C848 H851 0.928 . S
C849 N845 1.345 . S
C849 C850 1.371 . S
C849 H852 0.931 . S
C850 C846 1.391 . S
C850 C849 1.371 . S
C850 H857 0.930 . S
H851 C848 0.928 . S
H852 C849 0.931 . S
H853 C829 0.930 . S
H854 C826 0.930 . S
H855 C835 0.930 . S
H856 C847 0.929 . S
H857 C850 0.930 . S
C858 C859 1.351 . S
C858 N861 1.368 . S
C858 H863 0.931 . S
C859 C858 1.351 . S
C859 N860 1.373 . S
C859 H887 0.930 . S
N860 C859 1.373 . S
N860 C862 1.340 . S
N861 C858 1.368 . S
N861 C862 1.321 . S
N861 Co864 2.135 . S
C862 N860 1.340 . S
C862 N861 1.321 . S
C862 H886 0.930 . S
H863 C858 0.931 . S
Co864 N861 2.135 . S
Co864 N867 2.121 . S
Co864 O872 2.055 . S
Co864 O875 2.039 . S
Co864 N878 2.140 . S
C865 O866 1.227 . S
C865 O875 1.265 . S
O866 C865 1.227 . S
N867 Co864 2.121 . S
N867 C869 1.375 1_556 S
N867 C870 1.313 . S
C868 C869 1.338 . S
C868 N871 1.377 . S
C868 H888 0.930 . S
C869 N867 1.375 1_554 S
C869 C868 1.338 . S
C869 H873 0.931 1_554 S
C870 N867 1.313 . S
C870 N871 1.344 1_556 S
C870 H874 0.930 . S
N871 C868 1.377 . S
N871 C870 1.344 1_554 S
O872 Co864 2.055 . S
O872 C876 1.253 . S
H873 C869 0.931 1_556 S
H874 C870 0.930 . S
O875 Co864 2.039 . S
O875 C865 1.265 . S
C876 O872 1.253 . S
C876 O877 1.227 . S
O877 C876 1.227 . S
N878 Co864 2.140 . S
N878 C881 1.346 . S
N878 C882 1.345 . S
C879 C880 1.387 . S
C879 C883 1.391 . S
C880 C879 1.387 . S
C880 C881 1.369 . S
C880 H889 0.929 . S
C881 N878 1.346 . S
C881 C880 1.369 . S
C881 H884 0.928 . S
C882 N878 1.345 . S
C882 C883 1.371 . S
C882 H885 0.931 . S
C883 C879 1.391 . S
C883 C882 1.371 . S
C883 H890 0.930 . S
H884 C881 0.928 . S
H885 C882 0.931 . S
H886 C862 0.930 . S
H887 C859 0.930 . S
H888 C868 0.930 . S
H889 C880 0.929 . S
H890 C883 0.930 . S
C891 C892 1.351 . S
C891 N894 1.368 . S
C891 H896 0.931 . S
C892 C891 1.351 . S
C892 N893 1.373 . S
C892 H920 0.930 . S
N893 C892 1.373 . S
N893 C895 1.340 . S
N894 C891 1.368 . S
N894 C895 1.321 . S
N894 Co897 2.135 . S
C895 N893 1.340 . S
C895 N894 1.321 . S
C895 H919 0.930 . S
H896 C891 0.931 . S
Co897 N894 2.135 . S
Co897 N900 2.121 . S
Co897 O905 2.055 . S
Co897 O908 2.039 . S
Co897 N911 2.140 . S
C898 O899 1.227 . S
C898 O908 1.265 . S
O899 C898 1.227 . S
N900 Co897 2.121 . S
N900 C902 1.375 . S
N900 C903 1.313 . S
C901 C902 1.338 . S
C901 N904 1.377 . S
C901 H921 0.930 . S
C902 N900 1.375 . S
C902 C901 1.338 . S
C902 H906 0.931 . S
C903 N900 1.313 . S
C903 N904 1.344 . S
C903 H907 0.930 . S
N904 C901 1.377 . S
N904 C903 1.344 . S
O905 Co897 2.055 . S
O905 C909 1.253 . S
H906 C902 0.931 . S
H907 C903 0.930 . S
O908 Co897 2.039 . S
O908 C898 1.265 . S
C909 O905 1.253 . S
C909 O910 1.227 . S
O910 C909 1.227 . S
N911 Co897 2.140 . S
N911 C914 1.346 . S
N911 C915 1.345 . S
C912 C913 1.387 . S
C912 C916 1.391 . S
C913 C912 1.387 . S
C913 C914 1.369 . S
C913 H922 0.929 . S
C914 N911 1.346 . S
C914 C913 1.369 . S
C914 H917 0.928 . S
C915 N911 1.345 . S
C915 C916 1.371 . S
C915 H918 0.931 . S
C916 C912 1.391 . S
C916 C915 1.371 . S
C916 H923 0.930 . S
H917 C914 0.928 . S
H918 C915 0.931 . S
H919 C895 0.930 . S
H920 C892 0.930 . S
H921 C901 0.930 . S
H922 C913 0.929 . S
H923 C916 0.930 . S
C924 C925 1.351 . S
C924 N927 1.368 . S
C924 H929 0.931 . S
C925 C924 1.351 . S
C925 N926 1.373 . S
C925 H953 0.930 . S
N926 C925 1.373 . S
N926 C928 1.340 . S
N927 C924 1.368 . S
N927 C928 1.321 . S
N927 Co930 2.135 . S
C928 N926 1.340 . S
C928 N927 1.321 . S
C928 H952 0.930 . S
H929 C924 0.931 . S
Co930 N927 2.135 . S
Co930 N933 2.121 . S
Co930 O938 2.055 . S
Co930 O941 2.039 . S
Co930 N944 2.140 . S
C931 O932 1.227 . S
C931 O941 1.265 . S
O932 C931 1.227 . S
N933 Co930 2.121 . S
N933 C935 1.375 . S
N933 C936 1.313 . S
C934 C935 1.338 . S
C934 N937 1.377 . S
C934 H954 0.930 . S
C935 N933 1.375 . S
C935 C934 1.338 . S
C935 H939 0.931 . S
C936 N933 1.313 . S
C936 N937 1.344 . S
C936 H940 0.930 . S
N937 C934 1.377 . S
N937 C936 1.344 . S
O938 Co930 2.055 . S
O938 C942 1.253 . S
H939 C935 0.931 . S
H940 C936 0.930 . S
O941 Co930 2.039 . S
O941 C931 1.265 . S
C942 O938 1.253 . S
C942 O943 1.227 . S
O943 C942 1.227 . S
N944 Co930 2.140 . S
N944 C947 1.346 . S
N944 C948 1.345 . S
C945 C946 1.387 . S
C945 C949 1.391 . S
C946 C945 1.387 . S
C946 C947 1.369 . S
C946 H955 0.929 . S
C947 N944 1.346 . S
C947 C946 1.369 . S
C947 H950 0.928 . S
C948 N944 1.345 . S
C948 C949 1.371 . S
C948 H951 0.931 . S
C949 C945 1.391 . S
C949 C948 1.371 . S
C949 H956 0.930 . S
H950 C947 0.928 . S
H951 C948 0.931 . S
H952 C928 0.930 . S
H953 C925 0.930 . S
H954 C934 0.930 . S
H955 C946 0.929 . S
H956 C949 0.930 . S
C957 C958 1.351 . S
C957 N960 1.368 . S
C957 H962 0.931 . S
C958 C957 1.351 . S
C958 N959 1.373 . S
C958 H986 0.930 . S
N959 C958 1.373 . S
N959 C961 1.340 . S
N960 C957 1.368 . S
N960 C961 1.321 . S
N960 Co963 2.135 . S
C961 N959 1.340 . S
C961 N960 1.321 . S
C961 H985 0.930 . S
H962 C957 0.931 . S
Co963 N960 2.135 . S
Co963 N966 2.121 . S
Co963 O971 2.055 . S
Co963 O974 2.039 . S
Co963 N977 2.140 . S
C964 O965 1.227 . S
C964 O974 1.265 . S
O965 C964 1.227 . S
N966 Co963 2.121 . S
N966 C968 1.375 . S
N966 C969 1.313 . S
C967 C968 1.338 . S
C967 N970 1.377 . S
C967 H987 0.930 . S
C968 N966 1.375 . S
C968 C967 1.338 . S
C968 H972 0.931 . S
C969 N966 1.313 . S
C969 N970 1.344 . S
C969 H973 0.930 . S
N970 C967 1.377 . S
N970 C969 1.344 . S
O971 Co963 2.055 . S
O971 C975 1.253 . S
H972 C968 0.931 . S
H973 C969 0.930 . S
O974 Co963 2.039 . S
O974 C964 1.265 . S
C975 O971 1.253 . S
C975 O976 1.227 . S
O976 C975 1.227 . S
N977 Co963 2.140 . S
N977 C980 1.346 . S
N977 C981 1.345 . S
C978 C979 1.387 . S
C978 C982 1.391 . S
C979 C978 1.387 . S
C979 C980 1.369 . S
C979 H988 0.929 . S
C980 N977 1.346 . S
C980 C979 1.369 . S
C980 H983 0.928 . S
C981 N977 1.345 . S
C981 C982 1.371 . S
C981 H984 0.931 . S
C982 C978 1.391 . S
C982 C981 1.371 . S
C982 H989 0.930 . S
H983 C980 0.928 . S
H984 C981 0.931 . S
H985 C961 0.930 . S
H986 C958 0.930 . S
H987 C967 0.930 . S
H988 C979 0.929 . S
H989 C982 0.930 . S
C990 C991 1.351 . S
C990 N993 1.368 . S
C990 H995 0.931 . S
C991 C990 1.351 . S
C991 N992 1.373 . S
C991 H1019 0.930 . S
N992 C991 1.373 . S
N992 C994 1.340 . S
N993 C990 1.368 . S
N993 C994 1.321 . S
N993 Co996 2.135 . S
C994 N992 1.340 . S
C994 N993 1.321 . S
C994 H1018 0.930 . S
H995 C990 0.931 . S
Co996 N993 2.135 . S
Co996 N999 2.121 . S
Co996 O1004 2.055 . S
Co996 O1007 2.039 . S
Co996 N1010 2.140 . S
C997 O998 1.227 . S
C997 O1007 1.265 . S
O998 C997 1.227 . S
N999 Co996 2.121 . S
N999 C1001 1.375 1_554 S
N999 C1002 1.313 . S
C1000 C1001 1.338 . S
C1000 N1003 1.377 . S
C1000 H1020 0.930 . S
C1001 N999 1.375 1_556 S
C1001 C1000 1.338 . S
C1001 H1005 0.931 1_556 S
C1002 N999 1.313 . S
C1002 N1003 1.344 1_554 S
C1002 H1006 0.930 . S
N1003 C1000 1.377 . S
N1003 C1002 1.344 1_556 S
O1004 Co996 2.055 . S
O1004 C1008 1.253 . S
H1005 C1001 0.931 1_554 S
H1006 C1002 0.930 . S
O1007 Co996 2.039 . S
O1007 C997 1.265 . S
C1008 O1004 1.253 . S
C1008 O1009 1.227 . S
O1009 C1008 1.227 . S
N1010 Co996 2.140 . S
N1010 C1013 1.346 . S
N1010 C1014 1.345 . S
C1011 C1012 1.387 . S
C1011 C1015 1.391 . S
C1012 C1011 1.387 . S
C1012 C1013 1.369 . S
C1012 H1021 0.929 . S
C1013 N1010 1.346 . S
C1013 C1012 1.369 . S
C1013 H1016 0.928 . S
C1014 N1010 1.345 . S
C1014 C1015 1.371 . S
C1014 H1017 0.931 . S
C1015 C1011 1.391 . S
C1015 C1014 1.371 . S
C1015 H1022 0.930 . S
H1016 C1013 0.928 . S
H1017 C1014 0.931 . S
H1018 C994 0.930 . S
H1019 C991 0.930 . S
H1020 C1000 0.930 . S
H1021 C1012 0.929 . S
H1022 C1015 0.930 . S
C1023 C1024 1.351 . S
C1023 N1026 1.368 . S
C1023 H1028 0.931 . S
C1024 C1023 1.351 . S
C1024 N1025 1.373 . S
C1024 H1052 0.930 . S
N1025 C1024 1.373 . S
N1025 C1027 1.340 . S
N1026 C1023 1.368 . S
N1026 C1027 1.321 . S
N1026 Co1029 2.135 . S
C1027 N1025 1.340 . S
C1027 N1026 1.321 . S
C1027 H1051 0.930 . S
H1028 C1023 0.931 . S
Co1029 N1026 2.135 . S
Co1029 N1032 2.121 . S
Co1029 O1037 2.055 . S
Co1029 O1040 2.039 . S
Co1029 N1043 2.140 . S
C1030 O1031 1.227 . S
C1030 O1040 1.265 . S
O1031 C1030 1.227 . S
N1032 Co1029 2.121 . S
N1032 C1034 1.375 . S
N1032 C1035 1.313 . S
C1033 C1034 1.338 . S
C1033 N1036 1.377 . S
C1033 H1053 0.930 . S
C1034 N1032 1.375 . S
C1034 C1033 1.338 . S
C1034 H1038 0.931 . S
C1035 N1032 1.313 . S
C1035 N1036 1.344 . S
C1035 H1039 0.930 . S
N1036 C1033 1.377 . S
N1036 C1035 1.344 . S
O1037 Co1029 2.055 . S
O1037 C1041 1.253 . S
H1038 C1034 0.931 . S
H1039 C1035 0.930 . S
O1040 Co1029 2.039 . S
O1040 C1030 1.265 . S
C1041 O1037 1.253 . S
C1041 O1042 1.227 . S
O1042 C1041 1.227 . S
N1043 Co1029 2.140 . S
N1043 C1046 1.346 . S
N1043 C1047 1.345 . S
C1044 C1045 1.387 . S
C1044 C1048 1.391 . S
C1045 C1044 1.387 . S
C1045 C1046 1.369 . S
C1045 H1054 0.929 . S
C1046 N1043 1.346 . S
C1046 C1045 1.369 . S
C1046 H1049 0.928 . S
C1047 N1043 1.345 . S
C1047 C1048 1.371 . S
C1047 H1050 0.931 . S
C1048 C1044 1.391 . S
C1048 C1047 1.371 . S
C1048 H1055 0.930 . S
H1049 C1046 0.928 . S
H1050 C1047 0.931 . S
H1051 C1027 0.930 . S
H1052 C1024 0.930 . S
H1053 C1033 0.930 . S
H1054 C1045 0.929 . S
H1055 C1048 0.930 . S
C1056 C1057 1.369 . S
C1056 C1058 1.419 . S
C1056 H1060 0.930 . S
C1057 C1056 1.369 . S
C1057 C1066 1.429 . S
C1058 C1056 1.419 . S
C1058 C1059 1.363 . S
C1058 H1061 0.929 . S
C1059 C1058 1.363 . S
C1059 C1065 1.428 . S
H1060 C1056 0.930 . S
H1061 C1058 0.929 . S
S1062 N1063 1.613 . S
S1062 N1064 1.610 . S
N1063 S1062 1.613 . S
N1063 C1066 1.350 . S
N1064 S1062 1.610 . S
N1064 C1065 1.351 . S
C1065 C1059 1.428 . S
C1065 N1064 1.351 . S
C1065 C1066 1.434 . S
C1066 C1057 1.429 . S
C1066 N1063 1.350 . S
C1066 C1065 1.434 . S
C1067 C1068 1.369 . S
C1067 C1069 1.419 . S
C1067 H1071 0.930 . S
C1068 C1067 1.369 . S
C1068 C1077 1.429 . S
C1069 C1067 1.419 . S
C1069 C1070 1.363 . S
C1069 H1072 0.929 . S
C1070 C1069 1.363 . S
C1070 C1076 1.428 . S
H1071 C1067 0.930 . S
H1072 C1069 0.929 . S
S1073 N1074 1.613 . S
S1073 N1075 1.610 . S
N1074 S1073 1.613 . S
N1074 C1077 1.350 . S
N1075 S1073 1.610 . S
N1075 C1076 1.351 . S
C1076 C1070 1.428 . S
C1076 N1075 1.351 . S
C1076 C1077 1.434 . S
C1077 C1068 1.429 . S
C1077 N1074 1.350 . S
C1077 C1076 1.434 . S
C1078 C1079 1.369 . S
C1078 C1080 1.419 . S
C1078 H1082 0.930 . S
C1079 C1078 1.369 . S
C1079 C1088 1.429 . S
C1080 C1078 1.419 . S
C1080 C1081 1.363 . S
C1080 H1083 0.929 . S
C1081 C1080 1.363 . S
C1081 C1087 1.428 . S
H1082 C1078 0.930 . S
H1083 C1080 0.929 . S
S1084 N1085 1.613 . S
S1084 N1086 1.610 . S
N1085 S1084 1.613 . S
N1085 C1088 1.350 . S
N1086 S1084 1.610 . S
N1086 C1087 1.351 . S
C1087 C1081 1.428 . S
C1087 N1086 1.351 . S
C1087 C1088 1.434 . S
C1088 C1079 1.429 . S
C1088 N1085 1.350 . S
C1088 C1087 1.434 . S
C1089 C1090 1.369 . S
C1089 C1091 1.419 . S
C1089 H1093 0.930 . S
C1090 C1089 1.369 . S
C1090 C1099 1.429 . S
C1091 C1089 1.419 . S
C1091 C1092 1.363 . S
C1091 H1094 0.929 . S
C1092 C1091 1.363 . S
C1092 C1098 1.428 . S
H1093 C1089 0.930 . S
H1094 C1091 0.929 . S
S1095 N1096 1.613 . S
S1095 N1097 1.610 . S
N1096 S1095 1.613 . S
N1096 C1099 1.350 . S
N1097 S1095 1.610 . S
N1097 C1098 1.351 . S
C1098 C1092 1.428 . S
C1098 N1097 1.351 . S
C1098 C1099 1.434 . S
C1099 C1090 1.429 . S
C1099 N1096 1.350 . S
C1099 C1098 1.434 . S
C1100 C1101 1.369 . S
C1100 C1102 1.419 . S
C1100 H1104 0.930 . S
C1101 C1100 1.369 . S
C1101 C1110 1.429 . S
C1102 C1100 1.419 . S
C1102 C1103 1.363 . S
C1102 H1105 0.929 . S
C1103 C1102 1.363 . S
C1103 C1109 1.428 . S
H1104 C1100 0.930 . S
H1105 C1102 0.929 . S
S1106 N1107 1.613 . S
S1106 N1108 1.610 . S
N1107 S1106 1.613 . S
N1107 C1110 1.350 . S
N1108 S1106 1.610 . S
N1108 C1109 1.351 . S
C1109 C1103 1.428 . S
C1109 N1108 1.351 . S
C1109 C1110 1.434 . S
C1110 C1101 1.429 . S
C1110 N1107 1.350 . S
C1110 C1109 1.434 . S
C1111 C1112 1.369 . S
C1111 C1113 1.419 . S
C1111 H1115 0.930 . S
C1112 C1111 1.369 . S
C1112 C1121 1.429 . S
C1113 C1111 1.419 . S
C1113 C1114 1.363 . S
C1113 H1116 0.929 . S
C1114 C1113 1.363 . S
C1114 C1120 1.428 . S
H1115 C1111 0.930 . S
H1116 C1113 0.929 . S
S1117 N1118 1.613 . S
S1117 N1119 1.610 . S
N1118 S1117 1.613 . S
N1118 C1121 1.350 . S
N1119 S1117 1.610 . S
N1119 C1120 1.351 . S
C1120 C1114 1.428 . S
C1120 N1119 1.351 . S
C1120 C1121 1.434 . S
C1121 C1112 1.429 . S
C1121 N1118 1.350 . S
C1121 C1120 1.434 . S
C1122 C1123 1.369 . S
C1122 C1124 1.419 . S
C1122 H1126 0.930 . S
C1123 C1122 1.369 . S
C1123 C1132 1.429 . S
C1124 C1122 1.419 . S
C1124 C1125 1.363 . S
C1124 H1127 0.929 . S
C1125 C1124 1.363 . S
C1125 C1131 1.428 . S
H1126 C1122 0.930 . S
H1127 C1124 0.929 . S
S1128 N1129 1.613 . S
S1128 N1130 1.610 . S
N1129 S1128 1.613 . S
N1129 C1132 1.350 . S
N1130 S1128 1.610 . S
N1130 C1131 1.351 . S
C1131 C1125 1.428 . S
C1131 N1130 1.351 . S
C1131 C1132 1.434 . S
C1132 C1123 1.429 . S
C1132 N1129 1.350 . S
C1132 C1131 1.434 . S
C1133 C1134 1.369 . S
C1133 C1135 1.419 . S
C1133 H1137 0.930 . S
C1134 C1133 1.369 . S
C1134 C1143 1.429 . S
C1135 C1133 1.419 . S
C1135 C1136 1.363 . S
C1135 H1138 0.929 . S
C1136 C1135 1.363 . S
C1136 C1142 1.428 . S
H1137 C1133 0.930 . S
H1138 C1135 0.929 . S
S1139 N1140 1.613 . S
S1139 N1141 1.610 . S
N1140 S1139 1.613 . S
N1140 C1143 1.350 . S
N1141 S1139 1.610 . S
N1141 C1142 1.351 . S
C1142 C1136 1.428 . S
C1142 N1141 1.351 . S
C1142 C1143 1.434 . S
C1143 C1134 1.429 . S
C1143 N1140 1.350 . S
C1143 C1142 1.434 . S
C1144 C1145 1.369 . S
C1144 C1146 1.419 . S
C1144 H1148 0.930 . S
C1145 C1144 1.369 . S
C1145 C1154 1.429 . S
C1146 C1144 1.419 . S
C1146 C1147 1.363 . S
C1146 H1149 0.929 . S
C1147 C1146 1.363 . S
C1147 C1153 1.428 . S
H1148 C1144 0.930 . S
H1149 C1146 0.929 . S
S1150 N1151 1.613 . S
S1150 N1152 1.610 . S
N1151 S1150 1.613 . S
N1151 C1154 1.350 . S
N1152 S1150 1.610 . S
N1152 C1153 1.351 . S
C1153 C1147 1.428 . S
C1153 N1152 1.351 . S
C1153 C1154 1.434 . S
C1154 C1145 1.429 . S
C1154 N1151 1.350 . S
C1154 C1153 1.434 . S
C1155 C1156 1.369 . S
C1155 C1157 1.419 . S
C1155 H1159 0.930 . S
C1156 C1155 1.369 . S
C1156 C1165 1.429 . S
C1157 C1155 1.419 . S
C1157 C1158 1.363 . S
C1157 H1160 0.929 . S
C1158 C1157 1.363 . S
C1158 C1164 1.428 . S
H1159 C1155 0.930 . S
H1160 C1157 0.929 . S
S1161 N1162 1.613 . S
S1161 N1163 1.610 . S
N1162 S1161 1.613 . S
N1162 C1165 1.350 . S
N1163 S1161 1.610 . S
N1163 C1164 1.351 . S
C1164 C1158 1.428 . S
C1164 N1163 1.351 . S
C1164 C1165 1.434 . S
C1165 C1156 1.429 . S
C1165 N1162 1.350 . S
C1165 C1164 1.434 . S
C1166 C1167 1.369 . S
C1166 C1168 1.419 . S
C1166 H1170 0.930 . S
C1167 C1166 1.369 . S
C1167 C1176 1.429 . S
C1168 C1166 1.419 . S
C1168 C1169 1.363 . S
C1168 H1171 0.929 . S
C1169 C1168 1.363 . S
C1169 C1175 1.428 . S
H1170 C1166 0.930 . S
H1171 C1168 0.929 . S
S1172 N1173 1.613 . S
S1172 N1174 1.610 . S
N1173 S1172 1.613 . S
N1173 C1176 1.350 . S
N1174 S1172 1.610 . S
N1174 C1175 1.351 . S
C1175 C1169 1.428 . S
C1175 N1174 1.351 . S
C1175 C1176 1.434 . S
C1176 C1167 1.429 . S
C1176 N1173 1.350 . S
C1176 C1175 1.434 . S
C1177 C1178 1.369 . S
C1177 C1179 1.419 . S
C1177 H1181 0.930 . S
C1178 C1177 1.369 . S
C1178 C1187 1.429 . S
C1179 C1177 1.419 . S
C1179 C1180 1.363 . S
C1179 H1182 0.929 . S
C1180 C1179 1.363 . S
C1180 C1186 1.428 . S
H1181 C1177 0.930 . S
H1182 C1179 0.929 . S
S1183 N1184 1.613 . S
S1183 N1185 1.610 . S
N1184 S1183 1.613 . S
N1184 C1187 1.350 . S
N1185 S1183 1.610 . S
N1185 C1186 1.351 . S
C1186 C1180 1.428 . S
C1186 N1185 1.351 . S
C1186 C1187 1.434 . S
C1187 C1178 1.429 . S
C1187 N1184 1.350 . S
C1187 C1186 1.434 . S
C1188 C1189 1.369 . S
C1188 C1190 1.419 . S
C1188 H1192 0.930 . S
C1189 C1188 1.369 . S
C1189 C1198 1.429 . S
C1190 C1188 1.419 . S
C1190 C1191 1.363 . S
C1190 H1193 0.929 . S
C1191 C1190 1.363 . S
C1191 C1197 1.428 . S
H1192 C1188 0.930 . S
H1193 C1190 0.929 . S
S1194 N1195 1.613 . S
S1194 N1196 1.610 . S
N1195 S1194 1.613 . S
N1195 C1198 1.350 . S
N1196 S1194 1.610 . S
N1196 C1197 1.351 . S
C1197 C1191 1.428 . S
C1197 N1196 1.351 . S
C1197 C1198 1.434 . S
C1198 C1189 1.429 . S
C1198 N1195 1.350 . S
C1198 C1197 1.434 . S
C1199 C1200 1.369 . S
C1199 C1201 1.419 . S
C1199 H1203 0.930 . S
C1200 C1199 1.369 . S
C1200 C1209 1.429 . S
C1201 C1199 1.419 . S
C1201 C1202 1.363 . S
C1201 H1204 0.929 . S
C1202 C1201 1.363 . S
C1202 C1208 1.428 . S
H1203 C1199 0.930 . S
H1204 C1201 0.929 . S
S1205 N1206 1.613 . S
S1205 N1207 1.610 . S
N1206 S1205 1.613 . S
N1206 C1209 1.350 . S
N1207 S1205 1.610 . S
N1207 C1208 1.351 . S
C1208 C1202 1.428 . S
C1208 N1207 1.351 . S
C1208 C1209 1.434 . S
C1209 C1200 1.429 . S
C1209 N1206 1.350 . S
C1209 C1208 1.434 . S
C1210 C1211 1.369 . S
C1210 C1212 1.419 . S
C1210 H1214 0.930 . S
C1211 C1210 1.369 . S
C1211 C1220 1.429 . S
C1212 C1210 1.419 . S
C1212 C1213 1.363 . S
C1212 H1215 0.929 . S
C1213 C1212 1.363 . S
C1213 C1219 1.428 . S
H1214 C1210 0.930 . S
H1215 C1212 0.929 . S
S1216 N1217 1.613 . S
S1216 N1218 1.610 . S
N1217 S1216 1.613 . S
N1217 C1220 1.350 . S
N1218 S1216 1.610 . S
N1218 C1219 1.351 . S
C1219 C1213 1.428 . S
C1219 N1218 1.351 . S
C1219 C1220 1.434 . S
C1220 C1211 1.429 . S
C1220 N1217 1.350 . S
C1220 C1219 1.434 . S
C1221 C1222 1.369 . S
C1221 C1223 1.419 . S
C1221 H1225 0.930 . S
C1222 C1221 1.369 . S
C1222 C1231 1.429 . S
C1223 C1221 1.419 . S
C1223 C1224 1.363 . S
C1223 H1226 0.929 . S
C1224 C1223 1.363 . S
C1224 C1230 1.428 . S
H1225 C1221 0.930 . S
H1226 C1223 0.929 . S
S1227 N1228 1.613 . S
S1227 N1229 1.610 . S
N1228 S1227 1.613 . S
N1228 C1231 1.350 . S
N1229 S1227 1.610 . S
N1229 C1230 1.351 . S
C1230 C1224 1.428 . S
C1230 N1229 1.351 . S
C1230 C1231 1.434 . S
C1231 C1222 1.429 . S
C1231 N1228 1.350 . S
C1231 C1230 1.434 . S
C1232 C1233 1.369 . S
C1232 C1234 1.419 . S
C1232 H1236 0.930 . S
C1233 C1232 1.369 . S
C1233 C1242 1.429 . S
C1234 C1232 1.419 . S
C1234 C1235 1.363 . S
C1234 H1237 0.929 . S
C1235 C1234 1.363 . S
C1235 C1241 1.428 . S
H1236 C1232 0.930 . S
H1237 C1234 0.929 . S
S1238 N1239 1.613 . S
S1238 N1240 1.610 . S
N1239 S1238 1.613 . S
N1239 C1242 1.350 . S
N1240 S1238 1.610 . S
N1240 C1241 1.351 . S
C1241 C1235 1.428 . S
C1241 N1240 1.351 . S
C1241 C1242 1.434 . S
C1242 C1233 1.429 . S
C1242 N1239 1.350 . S
C1242 C1241 1.434 . S
C1243 C1244 1.369 . S
C1243 C1245 1.419 . S
C1243 H1247 0.930 . S
C1244 C1243 1.369 . S
C1244 C1253 1.429 . S
C1245 C1243 1.419 . S
C1245 C1246 1.363 . S
C1245 H1248 0.929 . S
C1246 C1245 1.363 . S
C1246 C1252 1.428 . S
H1247 C1243 0.930 . S
H1248 C1245 0.929 . S
S1249 N1250 1.613 . S
S1249 N1251 1.610 . S
N1250 S1249 1.613 . S
N1250 C1253 1.350 . S
N1251 S1249 1.610 . S
N1251 C1252 1.351 . S
C1252 C1246 1.428 . S
C1252 N1251 1.351 . S
C1252 C1253 1.434 . S
C1253 C1244 1.429 . S
C1253 N1250 1.350 . S
C1253 C1252 1.434 . S
C1254 C1255 1.369 . S
C1254 C1256 1.419 . S
C1254 H1258 0.930 . S
C1255 C1254 1.369 . S
C1255 C1264 1.429 . S
C1256 C1254 1.419 . S
C1256 C1257 1.363 . S
C1256 H1259 0.929 . S
C1257 C1256 1.363 . S
C1257 C1263 1.428 . S
H1258 C1254 0.930 . S
H1259 C1256 0.929 . S
S1260 N1261 1.613 . S
S1260 N1262 1.610 . S
N1261 S1260 1.613 . S
N1261 C1264 1.350 . S
N1262 S1260 1.610 . S
N1262 C1263 1.351 . S
C1263 C1257 1.428 . S
C1263 N1262 1.351 . S
C1263 C1264 1.434 . S
C1264 C1255 1.429 . S
C1264 N1261 1.350 . S
C1264 C1263 1.434 . S
C1265 C1266 1.369 . S
C1265 C1267 1.419 . S
C1265 H1269 0.930 . S
C1266 C1265 1.369 . S
C1266 C1275 1.429 . S
C1267 C1265 1.419 . S
C1267 C1268 1.363 . S
C1267 H1270 0.929 . S
C1268 C1267 1.363 . S
C1268 C1274 1.428 . S
H1269 C1265 0.930 . S
H1270 C1267 0.929 . S
S1271 N1272 1.613 . S
S1271 N1273 1.610 . S
N1272 S1271 1.613 . S
N1272 C1275 1.350 . S
N1273 S1271 1.610 . S
N1273 C1274 1.351 . S
C1274 C1268 1.428 . S
C1274 N1273 1.351 . S
C1274 C1275 1.434 . S
C1275 C1266 1.429 . S
C1275 N1272 1.350 . S
C1275 C1274 1.434 . S
C1276 C1277 1.369 . S
C1276 C1278 1.419 . S
C1276 H1280 0.930 . S
C1277 C1276 1.369 . S
C1277 C1286 1.429 . S
C1278 C1276 1.419 . S
C1278 C1279 1.363 . S
C1278 H1281 0.929 . S
C1279 C1278 1.363 . S
C1279 C1285 1.428 . S
H1280 C1276 0.930 . S
H1281 C1278 0.929 . S
S1282 N1283 1.613 . S
S1282 N1284 1.610 . S
N1283 S1282 1.613 . S
N1283 C1286 1.350 . S
N1284 S1282 1.610 . S
N1284 C1285 1.351 . S
C1285 C1279 1.428 . S
C1285 N1284 1.351 . S
C1285 C1286 1.434 . S
C1286 C1277 1.429 . S
C1286 N1283 1.350 . S
C1286 C1285 1.434 . S
C1287 C1288 1.369 . S
C1287 C1289 1.419 . S
C1287 H1291 0.930 . S
C1288 C1287 1.369 . S
C1288 C1297 1.429 . S
C1289 C1287 1.419 . S
C1289 C1290 1.363 . S
C1289 H1292 0.929 . S
C1290 C1289 1.363 . S
C1290 C1296 1.428 . S
H1291 C1287 0.930 . S
H1292 C1289 0.929 . S
S1293 N1294 1.613 . S
S1293 N1295 1.610 . S
N1294 S1293 1.613 . S
N1294 C1297 1.350 . S
N1295 S1293 1.610 . S
N1295 C1296 1.351 . S
C1296 C1290 1.428 . S
C1296 N1295 1.351 . S
C1296 C1297 1.434 . S
C1297 C1288 1.429 . S
C1297 N1294 1.350 . S
C1297 C1296 1.434 . S
C1298 C1299 1.369 . S
C1298 C1300 1.419 . S
C1298 H1302 0.930 . S
C1299 C1298 1.369 . S
C1299 C1308 1.429 . S
C1300 C1298 1.419 . S
C1300 C1301 1.363 . S
C1300 H1303 0.929 . S
C1301 C1300 1.363 . S
C1301 C1307 1.428 . S
H1302 C1298 0.930 . S
H1303 C1300 0.929 . S
S1304 N1305 1.613 . S
S1304 N1306 1.610 . S
N1305 S1304 1.613 . S
N1305 C1308 1.350 . S
N1306 S1304 1.610 . S
N1306 C1307 1.351 . S
C1307 C1301 1.428 . S
C1307 N1306 1.351 . S
C1307 C1308 1.434 . S
C1308 C1299 1.429 . S
C1308 N1305 1.350 . S
C1308 C1307 1.434 . S
C1309 C1310 1.369 . S
C1309 C1311 1.419 . S
C1309 H1313 0.930 . S
C1310 C1309 1.369 . S
C1310 C1319 1.429 . S
C1311 C1309 1.419 . S
C1311 C1312 1.363 . S
C1311 H1314 0.929 . S
C1312 C1311 1.363 . S
C1312 C1318 1.428 . S
H1313 C1309 0.930 . S
H1314 C1311 0.929 . S
S1315 N1316 1.613 . S
S1315 N1317 1.610 . S
N1316 S1315 1.613 . S
N1316 C1319 1.350 . S
N1317 S1315 1.610 . S
N1317 C1318 1.351 . S
C1318 C1312 1.428 . S
C1318 N1317 1.351 . S
C1318 C1319 1.434 . S
C1319 C1310 1.429 . S
C1319 N1316 1.350 . S
C1319 C1318 1.434 . S
C1320 C1321 1.369 . S
C1320 C1322 1.419 . S
C1320 H1324 0.930 . S
C1321 C1320 1.369 . S
C1321 C1330 1.429 . S
C1322 C1320 1.419 . S
C1322 C1323 1.363 . S
C1322 H1325 0.929 . S
C1323 C1322 1.363 . S
C1323 C1329 1.428 . S
H1324 C1320 0.930 . S
H1325 C1322 0.929 . S
S1326 N1327 1.613 . S
S1326 N1328 1.610 . S
N1327 S1326 1.613 . S
N1327 C1330 1.350 . S
N1328 S1326 1.610 . S
N1328 C1329 1.351 . S
C1329 C1323 1.428 . S
C1329 N1328 1.351 . S
C1329 C1330 1.434 . S
C1330 C1321 1.429 . S
C1330 N1327 1.350 . S
C1330 C1329 1.434 . S
C1331 C1332 1.369 . S
C1331 C1333 1.419 . S
C1331 H1335 0.930 . S
C1332 C1331 1.369 . S
C1332 C1341 1.429 . S
C1333 C1331 1.419 . S
C1333 C1334 1.363 . S
C1333 H1336 0.929 . S
C1334 C1333 1.363 . S
C1334 C1340 1.428 . S
H1335 C1331 0.930 . S
H1336 C1333 0.929 . S
S1337 N1338 1.613 . S
S1337 N1339 1.610 . S
N1338 S1337 1.613 . S
N1338 C1341 1.350 . S
N1339 S1337 1.610 . S
N1339 C1340 1.351 . S
C1340 C1334 1.428 . S
C1340 N1339 1.351 . S
C1340 C1341 1.434 . S
C1341 C1332 1.429 . S
C1341 N1338 1.350 . S
C1341 C1340 1.434 . S
C1342 C1343 1.369 . S
C1342 C1344 1.419 . S
C1342 H1346 0.930 . S
C1343 C1342 1.369 . S
C1343 C1352 1.429 . S
C1344 C1342 1.419 . S
C1344 C1345 1.363 . S
C1344 H1347 0.929 . S
C1345 C1344 1.363 . S
C1345 C1351 1.428 . S
H1346 C1342 0.930 . S
H1347 C1344 0.929 . S
S1348 N1349 1.613 . S
S1348 N1350 1.610 . S
N1349 S1348 1.613 . S
N1349 C1352 1.350 . S
N1350 S1348 1.610 . S
N1350 C1351 1.351 . S
C1351 C1345 1.428 . S
C1351 N1350 1.351 . S
C1351 C1352 1.434 . S
C1352 C1343 1.429 . S
C1352 N1349 1.350 . S
C1352 C1351 1.434 . S
C1353 C1354 1.369 . S
C1353 C1355 1.419 . S
C1353 H1357 0.930 . S
C1354 C1353 1.369 . S
C1354 C1363 1.429 . S
C1355 C1353 1.419 . S
C1355 C1356 1.363 . S
C1355 H1358 0.929 . S
C1356 C1355 1.363 . S
C1356 C1362 1.428 . S
H1357 C1353 0.930 . S
H1358 C1355 0.929 . S
S1359 N1360 1.613 . S
S1359 N1361 1.610 . S
N1360 S1359 1.613 . S
N1360 C1363 1.350 . S
N1361 S1359 1.610 . S
N1361 C1362 1.351 . S
C1362 C1356 1.428 . S
C1362 N1361 1.351 . S
C1362 C1363 1.434 . S
C1363 C1354 1.429 . S
C1363 N1360 1.350 . S
C1363 C1362 1.434 . S
C1364 C1365 1.369 . S
C1364 C1366 1.419 . S
C1364 H1368 0.930 . S
C1365 C1364 1.369 . S
C1365 C1374 1.429 . S
C1366 C1364 1.419 . S
C1366 C1367 1.363 . S
C1366 H1369 0.929 . S
C1367 C1366 1.363 . S
C1367 C1373 1.428 . S
H1368 C1364 0.930 . S
H1369 C1366 0.929 . S
S1370 N1371 1.613 . S
S1370 N1372 1.610 . S
N1371 S1370 1.613 . S
N1371 C1374 1.350 . S
N1372 S1370 1.610 . S
N1372 C1373 1.351 . S
C1373 C1367 1.428 . S
C1373 N1372 1.351 . S
C1373 C1374 1.434 . S
C1374 C1365 1.429 . S
C1374 N1371 1.350 . S
C1374 C1373 1.434 . S
C1375 C1376 1.369 . S
C1375 C1377 1.419 . S
C1375 H1379 0.930 . S
C1376 C1375 1.369 . S
C1376 C1385 1.429 . S
C1377 C1375 1.419 . S
C1377 C1378 1.363 . S
C1377 H1380 0.929 . S
C1378 C1377 1.363 . S
C1378 C1384 1.428 . S
H1379 C1375 0.930 . S
H1380 C1377 0.929 . S
S1381 N1382 1.613 . S
S1381 N1383 1.610 . S
N1382 S1381 1.613 . S
N1382 C1385 1.350 . S
N1383 S1381 1.610 . S
N1383 C1384 1.351 . S
C1384 C1378 1.428 . S
C1384 N1383 1.351 . S
C1384 C1385 1.434 . S
C1385 C1376 1.429 . S
C1385 N1382 1.350 . S
C1385 C1384 1.434 . S
C1386 C1387 1.369 . S
C1386 C1388 1.419 . S
C1386 H1390 0.930 . S
C1387 C1386 1.369 . S
C1387 C1396 1.429 . S
C1388 C1386 1.419 . S
C1388 C1389 1.363 . S
C1388 H1391 0.929 . S
C1389 C1388 1.363 . S
C1389 C1395 1.428 . S
H1390 C1386 0.930 . S
H1391 C1388 0.929 . S
S1392 N1393 1.613 . S
S1392 N1394 1.610 . S
N1393 S1392 1.613 . S
N1393 C1396 1.350 . S
N1394 S1392 1.610 . S
N1394 C1395 1.351 . S
C1395 C1389 1.428 . S
C1395 N1394 1.351 . S
C1395 C1396 1.434 . S
C1396 C1387 1.429 . S
C1396 N1393 1.350 . S
C1396 C1395 1.434 . S
C1397 C1398 1.369 . S
C1397 C1399 1.419 . S
C1397 H1401 0.930 . S
C1398 C1397 1.369 . S
C1398 C1407 1.429 . S
C1399 C1397 1.419 . S
C1399 C1400 1.363 . S
C1399 H1402 0.929 . S
C1400 C1399 1.363 . S
C1400 C1406 1.428 . S
H1401 C1397 0.930 . S
H1402 C1399 0.929 . S
S1403 N1404 1.613 . S
S1403 N1405 1.610 . S
N1404 S1403 1.613 . S
N1404 C1407 1.350 . S
N1405 S1403 1.610 . S
N1405 C1406 1.351 . S
C1406 C1400 1.428 . S
C1406 N1405 1.351 . S
C1406 C1407 1.434 . S
C1407 C1398 1.429 . S
C1407 N1404 1.350 . S
C1407 C1406 1.434 . S
C1408 C1409 1.369 . S
C1408 C1410 1.419 . S
C1408 H1412 0.930 . S
C1409 C1408 1.369 . S
C1409 C1418 1.429 . S
C1410 C1408 1.419 . S
C1410 C1411 1.363 . S
C1410 H1413 0.929 . S
C1411 C1410 1.363 . S
C1411 C1417 1.428 . S
H1412 C1408 0.930 . S
H1413 C1410 0.929 . S
S1414 N1415 1.613 . S
S1414 N1416 1.610 . S
N1415 S1414 1.613 . S
N1415 C1418 1.350 . S
N1416 S1414 1.610 . S
N1416 C1417 1.351 . S
C1417 C1411 1.428 . S
C1417 N1416 1.351 . S
C1417 C1418 1.434 . S
C1418 C1409 1.429 . S
C1418 N1415 1.350 . S
C1418 C1417 1.434 . S
C1419 C1420 1.369 . S
C1419 C1421 1.419 . S
C1419 H1423 0.930 . S
C1420 C1419 1.369 . S
C1420 C1429 1.429 1_545 S
C1421 C1419 1.419 . S
C1421 C1422 1.363 1_545 S
C1421 H1424 0.929 . S
C1422 C1421 1.363 1_565 S
C1422 C1428 1.428 . S
H1423 C1419 0.930 . S
H1424 C1421 0.929 . S
S1425 N1426 1.613 . S
S1425 N1427 1.610 . S
N1426 S1425 1.613 . S
N1426 C1429 1.350 . S
N1427 S1425 1.610 . S
N1427 C1428 1.351 . S
C1428 C1422 1.428 . S
C1428 N1427 1.351 . S
C1428 C1429 1.434 . S
C1429 C1420 1.429 1_565 S
C1429 N1426 1.350 . S
C1429 C1428 1.434 . S
C1430 C1431 1.369 . S
C1430 C1432 1.419 . S
C1430 H1434 0.930 . S
C1431 C1430 1.369 . S
C1431 C1440 1.429 . S
C1432 C1430 1.419 . S
C1432 C1433 1.363 . S
C1432 H1435 0.929 . S
C1433 C1432 1.363 . S
C1433 C1439 1.428 . S
H1434 C1430 0.930 . S
H1435 C1432 0.929 . S
S1436 N1437 1.613 . S
S1436 N1438 1.610 . S
N1437 S1436 1.613 . S
N1437 C1440 1.350 . S
N1438 S1436 1.610 . S
N1438 C1439 1.351 . S
C1439 C1433 1.428 . S
C1439 N1438 1.351 . S
C1439 C1440 1.434 . S
C1440 C1431 1.429 . S
C1440 N1437 1.350 . S
C1440 C1439 1.434 . S
C1441 C1442 1.369 . S
C1441 C1443 1.419 1_556 S
C1441 H1445 0.930 . S
C1442 C1441 1.369 . S
C1442 C1451 1.429 1_565 S
C1443 C1441 1.419 1_554 S
C1443 C1444 1.363 1_565 S
C1443 H1446 0.929 . S
C1444 C1443 1.363 1_545 S
C1444 C1450 1.428 . S
H1445 C1441 0.930 . S
H1446 C1443 0.929 . S
S1447 N1448 1.613 . S
S1447 N1449 1.610 1_556 S
N1448 S1447 1.613 . S
N1448 C1451 1.350 . S
N1449 S1447 1.610 1_554 S
N1449 C1450 1.351 . S
C1450 C1444 1.428 . S
C1450 N1449 1.351 . S
C1450 C1451 1.434 1_554 S
C1451 C1442 1.429 1_545 S
C1451 N1448 1.350 . S
C1451 C1450 1.434 1_556 S
C1452 C1453 1.369 . S
C1452 C1454 1.419 . S
C1452 H1456 0.930 . S
C1453 C1452 1.369 . S
C1453 C1462 1.429 . S
C1454 C1452 1.419 . S
C1454 C1455 1.363 . S
C1454 H1457 0.929 . S
C1455 C1454 1.363 . S
C1455 C1461 1.428 . S
H1456 C1452 0.930 . S
H1457 C1454 0.929 . S
S1458 N1459 1.613 . S
S1458 N1460 1.610 . S
N1459 S1458 1.613 . S
N1459 C1462 1.350 . S
N1460 S1458 1.610 . S
N1460 C1461 1.351 . S
C1461 C1455 1.428 . S
C1461 N1460 1.351 . S
C1461 C1462 1.434 . S
C1462 C1453 1.429 . S
C1462 N1459 1.350 . S
C1462 C1461 1.434 . S
C1463 C1464 1.369 1_565 S
C1463 C1465 1.419 . S
C1463 H1467 0.930 . S
C1464 C1463 1.369 1_545 S
C1464 C1473 1.429 . S
C1465 C1463 1.419 . S
C1465 C1466 1.363 . S
C1465 H1468 0.929 . S
C1466 C1465 1.363 . S
C1466 C1472 1.428 1_565 S
H1467 C1463 0.930 . S
H1468 C1465 0.929 . S
S1469 N1470 1.613 . S
S1469 N1471 1.610 . S
N1470 S1469 1.613 . S
N1470 C1473 1.350 . S
N1471 S1469 1.610 . S
N1471 C1472 1.351 . S
C1472 C1466 1.428 1_545 S
C1472 N1471 1.351 . S
C1472 C1473 1.434 . S
C1473 C1464 1.429 . S
C1473 N1470 1.350 . S
C1473 C1472 1.434 . S
C1474 C1475 1.369 . S
C1474 C1476 1.419 . S
C1474 H1478 0.930 . S
C1475 C1474 1.369 . S
C1475 C1484 1.429 . S
C1476 C1474 1.419 . S
C1476 C1477 1.363 . S
C1476 H1479 0.929 . S
C1477 C1476 1.363 . S
C1477 C1483 1.428 . S
H1478 C1474 0.930 . S
H1479 C1476 0.929 . S
S1480 N1481 1.613 . S
S1480 N1482 1.610 . S
N1481 S1480 1.613 . S
N1481 C1484 1.350 . S
N1482 S1480 1.610 . S
N1482 C1483 1.351 . S
C1483 C1477 1.428 . S
C1483 N1482 1.351 . S
C1483 C1484 1.434 . S
C1484 C1475 1.429 . S
C1484 N1481 1.350 . S
C1484 C1483 1.434 . S
C1485 C1486 1.369 . S
C1485 C1487 1.419 1_556 S
C1485 H1489 0.930 . S
C1486 C1485 1.369 . S
C1486 C1495 1.429 1_565 S
C1487 C1485 1.419 1_554 S
C1487 C1488 1.363 1_565 S
C1487 H1490 0.929 . S
C1488 C1487 1.363 1_545 S
C1488 C1494 1.428 . S
H1489 C1485 0.930 . S
H1490 C1487 0.929 . S
S1491 N1492 1.613 . S
S1491 N1493 1.610 1_556 S
N1492 S1491 1.613 . S
N1492 C1495 1.350 . S
N1493 S1491 1.610 1_554 S
N1493 C1494 1.351 . S
C1494 C1488 1.428 . S
C1494 N1493 1.351 . S
C1494 C1495 1.434 1_554 S
C1495 C1486 1.429 1_545 S
C1495 N1492 1.350 . S
C1495 C1494 1.434 1_556 S
C1496 C1497 1.369 . S
C1496 C1498 1.419 . S
C1496 H1500 0.930 . S
C1497 C1496 1.369 . S
C1497 C1506 1.429 . S
C1498 C1496 1.419 . S
C1498 C1499 1.363 . S
C1498 H1501 0.929 . S
C1499 C1498 1.363 . S
C1499 C1505 1.428 . S
H1500 C1496 0.930 . S
H1501 C1498 0.929 . S
S1502 N1503 1.613 . S
S1502 N1504 1.610 . S
N1503 S1502 1.613 . S
N1503 C1506 1.350 . S
N1504 S1502 1.610 . S
N1504 C1505 1.351 . S
C1505 C1499 1.428 . S
C1505 N1504 1.351 . S
C1505 C1506 1.434 . S
C1506 C1497 1.429 . S
C1506 N1503 1.350 . S
C1506 C1505 1.434 . S
C1507 C1508 1.369 . S
C1507 C1509 1.419 1_556 S
C1507 H1511 0.930 . S
C1508 C1507 1.369 . S
C1508 C1517 1.429 . S
C1509 C1507 1.419 1_554 S
C1509 C1510 1.363 . S
C1509 H1512 0.929 . S
C1510 C1509 1.363 . S
C1510 C1516 1.428 . S
H1511 C1507 0.930 . S
H1512 C1509 0.929 . S
S1513 N1514 1.613 . S
S1513 N1515 1.610 1_556 S
N1514 S1513 1.613 . S
N1514 C1517 1.350 . S
N1515 S1513 1.610 1_554 S
N1515 C1516 1.351 . S
C1516 C1510 1.428 . S
C1516 N1515 1.351 . S
C1516 C1517 1.434 1_554 S
C1517 C1508 1.429 . S
C1517 N1514 1.350 . S
C1517 C1516 1.434 1_556 S
C1518 C1519 1.369 . S
C1518 C1520 1.419 . S
C1518 H1522 0.930 . S
C1519 C1518 1.369 . S
C1519 C1528 1.429 . S
C1520 C1518 1.419 . S
C1520 C1521 1.363 . S
C1520 H1523 0.929 . S
C1521 C1520 1.363 . S
C1521 C1527 1.428 . S
H1522 C1518 0.930 . S
H1523 C1520 0.929 . S
S1524 N1525 1.613 . S
S1524 N1526 1.610 . S
N1525 S1524 1.613 . S
N1525 C1528 1.350 . S
N1526 S1524 1.610 . S
N1526 C1527 1.351 . S
C1527 C1521 1.428 . S
C1527 N1526 1.351 . S
C1527 C1528 1.434 . S
C1528 C1519 1.429 . S
C1528 N1525 1.350 . S
C1528 C1527 1.434 . S
C1529 C1530 1.369 . S
C1529 C1531 1.419 . S
C1529 H1533 0.930 . S
C1530 C1529 1.369 . S
C1530 C1539 1.429 . S
C1531 C1529 1.419 . S
C1531 C1532 1.363 . S
C1531 H1534 0.929 . S
C1532 C1531 1.363 . S
C1532 C1538 1.428 . S
H1533 C1529 0.930 . S
H1534 C1531 0.929 . S
S1535 N1536 1.613 . S
S1535 N1537 1.610 . S
N1536 S1535 1.613 . S
N1536 C1539 1.350 . S
N1537 S1535 1.610 . S
N1537 C1538 1.351 . S
C1538 C1532 1.428 . S
C1538 N1537 1.351 . S
C1538 C1539 1.434 . S
C1539 C1530 1.429 . S
C1539 N1536 1.350 . S
C1539 C1538 1.434 . S
C1540 C1541 1.369 . S
C1540 C1542 1.419 . S
C1540 H1544 0.930 . S
C1541 C1540 1.369 . S
C1541 C1550 1.429 . S
C1542 C1540 1.419 . S
C1542 C1543 1.363 . S
C1542 H1545 0.929 . S
C1543 C1542 1.363 . S
C1543 C1549 1.428 . S
H1544 C1540 0.930 . S
H1545 C1542 0.929 . S
S1546 N1547 1.613 . S
S1546 N1548 1.610 . S
N1547 S1546 1.613 . S
N1547 C1550 1.350 . S
N1548 S1546 1.610 . S
N1548 C1549 1.351 . S
C1549 C1543 1.428 . S
C1549 N1548 1.351 . S
C1549 C1550 1.434 . S
C1550 C1541 1.429 . S
C1550 N1547 1.350 . S
C1550 C1549 1.434 . S
C1551 C1552 1.369 . S
C1551 C1553 1.419 1_556 S
C1551 H1555 0.930 . S
C1552 C1551 1.369 . S
C1552 C1561 1.429 . S
C1553 C1551 1.419 1_554 S
C1553 C1554 1.363 . S
C1553 H1556 0.929 . S
C1554 C1553 1.363 . S
C1554 C1560 1.428 . S
H1555 C1551 0.930 . S
H1556 C1553 0.929 . S
S1557 N1558 1.613 1_554 S
S1557 N1559 1.610 . S
N1558 S1557 1.613 1_556 S
N1558 C1561 1.350 . S
N1559 S1557 1.610 . S
N1559 C1560 1.351 . S
C1560 C1554 1.428 . S
C1560 N1559 1.351 . S
C1560 C1561 1.434 1_554 S
C1561 C1552 1.429 . S
C1561 N1558 1.350 . S
C1561 C1560 1.434 1_556 S
C1562 C1563 1.369 . S
C1562 C1564 1.419 . S
C1562 H1566 0.930 . S
C1563 C1562 1.369 . S
C1563 C1572 1.429 . S
C1564 C1562 1.419 . S
C1564 C1565 1.363 . S
C1564 H1567 0.929 . S
C1565 C1564 1.363 . S
C1565 C1571 1.428 . S
H1566 C1562 0.930 . S
H1567 C1564 0.929 . S
S1568 N1569 1.613 . S
S1568 N1570 1.610 . S
N1569 S1568 1.613 . S
N1569 C1572 1.350 . S
N1570 S1568 1.610 . S
N1570 C1571 1.351 . S
C1571 C1565 1.428 . S
C1571 N1570 1.351 . S
C1571 C1572 1.434 . S
C1572 C1563 1.429 . S
C1572 N1569 1.350 . S
C1572 C1571 1.434 . S
C1573 C1574 1.369 . S
C1573 C1575 1.419 . S
C1573 H1577 0.930 . S
C1574 C1573 1.369 . S
C1574 C1583 1.429 . S
C1575 C1573 1.419 . S
C1575 C1576 1.363 . S
C1575 H1578 0.929 . S
C1576 C1575 1.363 . S
C1576 C1582 1.428 . S
H1577 C1573 0.930 . S
H1578 C1575 0.929 . S
S1579 N1580 1.613 . S
S1579 N1581 1.610 . S
N1580 S1579 1.613 . S
N1580 C1583 1.350 . S
N1581 S1579 1.610 . S
N1581 C1582 1.351 . S
C1582 C1576 1.428 . S
C1582 N1581 1.351 . S
C1582 C1583 1.434 . S
C1583 C1574 1.429 . S
C1583 N1580 1.350 . S
C1583 C1582 1.434 . S
C1584 C1585 1.369 . S
C1584 C1586 1.419 . S
C1584 H1588 0.930 . S
C1585 C1584 1.369 . S
C1585 C1594 1.429 . S
C1586 C1584 1.419 . S
C1586 C1587 1.363 . S
C1586 H1589 0.929 . S
C1587 C1586 1.363 . S
C1587 C1593 1.428 . S
H1588 C1584 0.930 . S
H1589 C1586 0.929 . S
S1590 N1591 1.613 . S
S1590 N1592 1.610 . S
N1591 S1590 1.613 . S
N1591 C1594 1.350 . S
N1592 S1590 1.610 . S
N1592 C1593 1.351 . S
C1593 C1587 1.428 . S
C1593 N1592 1.351 . S
C1593 C1594 1.434 . S
C1594 C1585 1.429 . S
C1594 N1591 1.350 . S
C1594 C1593 1.434 . S
C1595 C1596 1.369 . S
C1595 C1597 1.419 . S
C1595 H1599 0.930 . S
C1596 C1595 1.369 . S
C1596 C1605 1.429 . S
C1597 C1595 1.419 . S
C1597 C1598 1.363 . S
C1597 H1600 0.929 . S
C1598 C1597 1.363 . S
C1598 C1604 1.428 . S
H1599 C1595 0.930 . S
H1600 C1597 0.929 . S
S1601 N1602 1.613 . S
S1601 N1603 1.610 . S
N1602 S1601 1.613 . S
N1602 C1605 1.350 . S
N1603 S1601 1.610 . S
N1603 C1604 1.351 . S
C1604 C1598 1.428 . S
C1604 N1603 1.351 . S
C1604 C1605 1.434 . S
C1605 C1596 1.429 . S
C1605 N1602 1.350 . S
C1605 C1604 1.434 . S
C1606 C1607 1.369 . S
C1606 C1608 1.419 . S
C1606 H1610 0.930 . S
C1607 C1606 1.369 . S
C1607 C1616 1.429 . S
C1608 C1606 1.419 . S
C1608 C1609 1.363 . S
C1608 H1611 0.929 . S
C1609 C1608 1.363 . S
C1609 C1615 1.428 . S
H1610 C1606 0.930 . S
H1611 C1608 0.929 . S
S1612 N1613 1.613 . S
S1612 N1614 1.610 . S
N1613 S1612 1.613 . S
N1613 C1616 1.350 . S
N1614 S1612 1.610 . S
N1614 C1615 1.351 . S
C1615 C1609 1.428 . S
C1615 N1614 1.351 . S
C1615 C1616 1.434 . S
C1616 C1607 1.429 . S
C1616 N1613 1.350 . S
C1616 C1615 1.434 . S
C1617 C1618 1.369 . S
C1617 C1619 1.419 . S
C1617 H1621 0.930 . S
C1618 C1617 1.369 . S
C1618 C1627 1.429 . S
C1619 C1617 1.419 . S
C1619 C1620 1.363 . S
C1619 H1622 0.929 . S
C1620 C1619 1.363 . S
C1620 C1626 1.428 . S
H1621 C1617 0.930 . S
H1622 C1619 0.929 . S
S1623 N1624 1.613 . S
S1623 N1625 1.610 . S
N1624 S1623 1.613 . S
N1624 C1627 1.350 . S
N1625 S1623 1.610 . S
N1625 C1626 1.351 . S
C1626 C1620 1.428 . S
C1626 N1625 1.351 . S
C1626 C1627 1.434 . S
C1627 C1618 1.429 . S
C1627 N1624 1.350 . S
C1627 C1626 1.434 . S
C1628 C1629 1.369 . S
C1628 C1630 1.419 . S
C1628 H1632 0.930 . S
C1629 C1628 1.369 . S
C1629 C1638 1.429 . S
C1630 C1628 1.419 . S
C1630 C1631 1.363 . S
C1630 H1633 0.929 . S
C1631 C1630 1.363 . S
C1631 C1637 1.428 . S
H1632 C1628 0.930 . S
H1633 C1630 0.929 . S
S1634 N1635 1.613 . S
S1634 N1636 1.610 . S
N1635 S1634 1.613 . S
N1635 C1638 1.350 . S
N1636 S1634 1.610 . S
N1636 C1637 1.351 . S
C1637 C1631 1.428 . S
C1637 N1636 1.351 . S
C1637 C1638 1.434 . S
C1638 C1629 1.429 . S
C1638 N1635 1.350 . S
C1638 C1637 1.434 . S
C1639 C1640 1.369 . S
C1639 C1641 1.419 . S
C1639 H1643 0.930 . S
C1640 C1639 1.369 . S
C1640 C1649 1.429 . S
C1641 C1639 1.419 . S
C1641 C1642 1.363 . S
C1641 H1644 0.929 . S
C1642 C1641 1.363 . S
C1642 C1648 1.428 . S
H1643 C1639 0.930 . S
H1644 C1641 0.929 . S
S1645 N1646 1.613 . S
S1645 N1647 1.610 . S
N1646 S1645 1.613 . S
N1646 C1649 1.350 . S
N1647 S1645 1.610 . S
N1647 C1648 1.351 . S
C1648 C1642 1.428 . S
C1648 N1647 1.351 . S
C1648 C1649 1.434 . S
C1649 C1640 1.429 . S
C1649 N1646 1.350 . S
C1649 C1648 1.434 . S
C1650 C1651 1.369 . S
C1650 C1652 1.419 . S
C1650 H1654 0.930 . S
C1651 C1650 1.369 . S
C1651 C1660 1.429 . S
C1652 C1650 1.419 . S
C1652 C1653 1.363 . S
C1652 H1655 0.929 . S
C1653 C1652 1.363 . S
C1653 C1659 1.428 . S
H1654 C1650 0.930 . S
H1655 C1652 0.929 . S
S1656 N1657 1.613 . S
S1656 N1658 1.610 . S
N1657 S1656 1.613 . S
N1657 C1660 1.350 . S
N1658 S1656 1.610 . S
N1658 C1659 1.351 . S
C1659 C1653 1.428 . S
C1659 N1658 1.351 . S
C1659 C1660 1.434 . S
C1660 C1651 1.429 . S
C1660 N1657 1.350 . S
C1660 C1659 1.434 . S
C1661 C1662 1.369 . S
C1661 C1663 1.419 . S
C1661 H1665 0.930 . S
C1662 C1661 1.369 . S
C1662 C1671 1.429 . S
C1663 C1661 1.419 . S
C1663 C1664 1.363 . S
C1663 H1666 0.929 . S
C1664 C1663 1.363 . S
C1664 C1670 1.428 . S
H1665 C1661 0.930 . S
H1666 C1663 0.929 . S
S1667 N1668 1.613 . S
S1667 N1669 1.610 . S
N1668 S1667 1.613 . S
N1668 C1671 1.350 . S
N1669 S1667 1.610 . S
N1669 C1670 1.351 . S
C1670 C1664 1.428 . S
C1670 N1669 1.351 . S
C1670 C1671 1.434 . S
C1671 C1662 1.429 . S
C1671 N1668 1.350 . S
C1671 C1670 1.434 . S
C1672 C1673 1.369 . S
C1672 C1674 1.419 . S
C1672 H1676 0.930 . S
C1673 C1672 1.369 . S
C1673 C1682 1.429 . S
C1674 C1672 1.419 . S
C1674 C1675 1.363 . S
C1674 H1677 0.929 . S
C1675 C1674 1.363 . S
C1675 C1681 1.428 . S
H1676 C1672 0.930 . S
H1677 C1674 0.929 . S
S1678 N1679 1.613 . S
S1678 N1680 1.610 . S
N1679 S1678 1.613 . S
N1679 C1682 1.350 . S
N1680 S1678 1.610 . S
N1680 C1681 1.351 . S
C1681 C1675 1.428 . S
C1681 N1680 1.351 . S
C1681 C1682 1.434 . S
C1682 C1673 1.429 . S
C1682 N1679 1.350 . S
C1682 C1681 1.434 . S
C1683 C1684 1.369 . S
C1683 C1685 1.419 . S
C1683 H1687 0.930 . S
C1684 C1683 1.369 . S
C1684 C1693 1.429 . S
C1685 C1683 1.419 . S
C1685 C1686 1.363 . S
C1685 H1688 0.929 . S
C1686 C1685 1.363 . S
C1686 C1692 1.428 . S
H1687 C1683 0.930 . S
H1688 C1685 0.929 . S
S1689 N1690 1.613 . S
S1689 N1691 1.610 . S
N1690 S1689 1.613 . S
N1690 C1693 1.350 . S
N1691 S1689 1.610 . S
N1691 C1692 1.351 . S
C1692 C1686 1.428 . S
C1692 N1691 1.351 . S
C1692 C1693 1.434 . S
C1693 C1684 1.429 . S
C1693 N1690 1.350 . S
C1693 C1692 1.434 . S
C1694 C1695 1.369 . S
C1694 C1696 1.419 . S
C1694 H1698 0.930 . S
C1695 C1694 1.369 . S
C1695 C1704 1.429 . S
C1696 C1694 1.419 . S
C1696 C1697 1.363 . S
C1696 H1699 0.929 . S
C1697 C1696 1.363 . S
C1697 C1703 1.428 . S
H1698 C1694 0.930 . S
H1699 C1696 0.929 . S
S1700 N1701 1.613 . S
S1700 N1702 1.610 . S
N1701 S1700 1.613 . S
N1701 C1704 1.350 . S
N1702 S1700 1.610 . S
N1702 C1703 1.351 . S
C1703 C1697 1.428 . S
C1703 N1702 1.351 . S
C1703 C1704 1.434 . S
C1704 C1695 1.429 . S
C1704 N1701 1.350 . S
C1704 C1703 1.434 . S
C1705 C1706 1.369 . S
C1705 C1707 1.419 . S
C1705 H1709 0.930 . S
C1706 C1705 1.369 . S
C1706 C1715 1.429 . S
C1707 C1705 1.419 . S
C1707 C1708 1.363 . S
C1707 H1710 0.929 . S
C1708 C1707 1.363 . S
C1708 C1714 1.428 . S
H1709 C1705 0.930 . S
H1710 C1707 0.929 . S
S1711 N1712 1.613 . S
S1711 N1713 1.610 . S
N1712 S1711 1.613 . S
N1712 C1715 1.350 . S
N1713 S1711 1.610 . S
N1713 C1714 1.351 . S
C1714 C1708 1.428 . S
C1714 N1713 1.351 . S
C1714 C1715 1.434 . S
C1715 C1706 1.429 . S
C1715 N1712 1.350 . S
C1715 C1714 1.434 . S
C1716 C1717 1.369 . S
C1716 C1718 1.419 . S
C1716 H1720 0.930 . S
C1717 C1716 1.369 . S
C1717 C1726 1.429 . S
C1718 C1716 1.419 . S
C1718 C1719 1.363 . S
C1718 H1721 0.929 . S
C1719 C1718 1.363 . S
C1719 C1725 1.428 . S
H1720 C1716 0.930 . S
H1721 C1718 0.929 . S
S1722 N1723 1.613 . S
S1722 N1724 1.610 . S
N1723 S1722 1.613 . S
N1723 C1726 1.350 . S
N1724 S1722 1.610 . S
N1724 C1725 1.351 . S
C1725 C1719 1.428 . S
C1725 N1724 1.351 . S
C1725 C1726 1.434 . S
C1726 C1717 1.429 . S
C1726 N1723 1.350 . S
C1726 C1725 1.434 . S
C1727 C1728 1.369 . S
C1727 C1729 1.419 . S
C1727 H1731 0.930 . S
C1728 C1727 1.369 . S
C1728 C1737 1.429 . S
C1729 C1727 1.419 . S
C1729 C1730 1.363 . S
C1729 H1732 0.929 . S
C1730 C1729 1.363 . S
C1730 C1736 1.428 . S
H1731 C1727 0.930 . S
H1732 C1729 0.929 . S
S1733 N1734 1.613 . S
S1733 N1735 1.610 . S
N1734 S1733 1.613 . S
N1734 C1737 1.350 . S
N1735 S1733 1.610 . S
N1735 C1736 1.351 . S
C1736 C1730 1.428 . S
C1736 N1735 1.351 . S
C1736 C1737 1.434 . S
C1737 C1728 1.429 . S
C1737 N1734 1.350 . S
C1737 C1736 1.434 . S
C1738 C1739 1.369 . S
C1738 C1740 1.419 . S
C1738 H1742 0.930 . S
C1739 C1738 1.369 . S
C1739 C1748 1.429 . S
C1740 C1738 1.419 . S
C1740 C1741 1.363 . S
C1740 H1743 0.929 . S
C1741 C1740 1.363 . S
C1741 C1747 1.428 . S
H1742 C1738 0.930 . S
H1743 C1740 0.929 . S
S1744 N1745 1.613 . S
S1744 N1746 1.610 . S
N1745 S1744 1.613 . S
N1745 C1748 1.350 . S
N1746 S1744 1.610 . S
N1746 C1747 1.351 . S
C1747 C1741 1.428 . S
C1747 N1746 1.351 . S
C1747 C1748 1.434 . S
C1748 C1739 1.429 . S
C1748 N1745 1.350 . S
C1748 C1747 1.434 . S
C1749 C1750 1.369 . S
C1749 C1751 1.419 . S
C1749 H1753 0.930 . S
C1750 C1749 1.369 . S
C1750 C1759 1.429 . S
C1751 C1749 1.419 . S
C1751 C1752 1.363 . S
C1751 H1754 0.929 . S
C1752 C1751 1.363 . S
C1752 C1758 1.428 . S
H1753 C1749 0.930 . S
H1754 C1751 0.929 . S
S1755 N1756 1.613 . S
S1755 N1757 1.610 . S
N1756 S1755 1.613 . S
N1756 C1759 1.350 . S
N1757 S1755 1.610 . S
N1757 C1758 1.351 . S
C1758 C1752 1.428 . S
C1758 N1757 1.351 . S
C1758 C1759 1.434 . S
C1759 C1750 1.429 . S
C1759 N1756 1.350 . S
C1759 C1758 1.434 . S
C1760 C1761 1.369 . S
C1760 C1762 1.419 . S
C1760 H1764 0.930 . S
C1761 C1760 1.369 . S
C1761 C1770 1.429 . S
C1762 C1760 1.419 . S
C1762 C1763 1.363 . S
C1762 H1765 0.929 . S
C1763 C1762 1.363 . S
C1763 C1769 1.428 . S
H1764 C1760 0.930 . S
H1765 C1762 0.929 . S
S1766 N1767 1.613 . S
S1766 N1768 1.610 . S
N1767 S1766 1.613 . S
N1767 C1770 1.350 . S
N1768 S1766 1.610 . S
N1768 C1769 1.351 . S
C1769 C1763 1.428 . S
C1769 N1768 1.351 . S
C1769 C1770 1.434 . S
C1770 C1761 1.429 . S
C1770 N1767 1.350 . S
C1770 C1769 1.434 . S
C1771 C1772 1.369 . S
C1771 C1773 1.419 1_655 S
C1771 H1775 0.930 . S
C1772 C1771 1.369 . S
C1772 C1781 1.429 . S
C1773 C1771 1.419 1_455 S
C1773 C1774 1.363 . S
C1773 H1776 0.929 . S
C1774 C1773 1.363 . S
C1774 C1780 1.428 . S
H1775 C1771 0.930 . S
H1776 C1773 0.929 . S
S1777 N1778 1.616 1_455 S
S1777 N1779 1.607 . S
N1778 S1777 1.616 1_655 S
N1778 C1781 1.350 . S
N1779 S1777 1.607 . S
N1779 C1780 1.351 . S
C1780 C1774 1.428 . S
C1780 N1779 1.351 . S
C1780 C1781 1.434 1_455 S
C1781 C1772 1.429 . S
C1781 N1778 1.350 . S
C1781 C1780 1.434 1_655 S
C1782 C1783 1.369 . S
C1782 C1784 1.419 . S
C1782 H1786 0.930 . S
C1783 C1782 1.369 . S
C1783 C1792 1.429 . S
C1784 C1782 1.419 . S
C1784 C1785 1.363 . S
C1784 H1787 0.929 . S
C1785 C1784 1.363 . S
C1785 C1791 1.428 . S
H1786 C1782 0.930 . S
H1787 C1784 0.929 . S
S1788 N1789 1.613 . S
S1788 N1790 1.610 . S
N1789 S1788 1.613 . S
N1789 C1792 1.350 . S
N1790 S1788 1.610 . S
N1790 C1791 1.351 . S
C1791 C1785 1.428 . S
C1791 N1790 1.351 . S
C1791 C1792 1.434 . S
C1792 C1783 1.429 . S
C1792 N1789 1.350 . S
C1792 C1791 1.434 . S
C1793 C1794 1.369 1_565 S
C1793 C1795 1.419 . S
C1793 H1797 0.930 . S
C1794 C1793 1.369 1_545 S
C1794 C1803 1.429 . S
C1795 C1793 1.419 . S
C1795 C1796 1.363 1_565 S
C1795 H1798 0.929 . S
C1796 C1795 1.363 1_545 S
C1796 C1802 1.428 . S
H1797 C1793 0.930 . S
H1798 C1795 0.929 . S
S1799 N1800 1.613 . S
S1799 N1801 1.610 . S
N1800 S1799 1.613 . S
N1800 C1803 1.350 . S
N1801 S1799 1.610 . S
N1801 C1802 1.351 . S
C1802 C1796 1.428 . S
C1802 N1801 1.351 . S
C1802 C1803 1.434 . S
C1803 C1794 1.429 . S
C1803 N1800 1.350 . S
C1803 C1802 1.434 . S
C1804 C1805 1.369 . S
C1804 C1806 1.419 . S
C1804 H1808 0.930 . S
C1805 C1804 1.369 . S
C1805 C1814 1.429 . S
C1806 C1804 1.419 . S
C1806 C1807 1.363 . S
C1806 H1809 0.929 . S
C1807 C1806 1.363 . S
C1807 C1813 1.428 . S
H1808 C1804 0.930 . S
H1809 C1806 0.929 . S
S1810 N1811 1.613 . S
S1810 N1812 1.610 . S
N1811 S1810 1.613 . S
N1811 C1814 1.350 . S
N1812 S1810 1.610 . S
N1812 C1813 1.351 . S
C1813 C1807 1.428 . S
C1813 N1812 1.351 . S
C1813 C1814 1.434 . S
C1814 C1805 1.429 . S
C1814 N1811 1.350 . S
C1814 C1813 1.434 . S
C1815 C1816 1.369 . S
C1815 C1817 1.419 . S
C1815 H1819 0.930 . S
C1816 C1815 1.369 . S
C1816 C1825 1.429 1_565 S
C1817 C1815 1.419 . S
C1817 C1818 1.363 . S
C1817 H1820 0.929 . S
C1818 C1817 1.363 . S
C1818 C1824 1.428 1_565 S
H1819 C1815 0.930 . S
H1820 C1817 0.929 . S
S1821 N1822 1.613 . S
S1821 N1823 1.610 . S
N1822 S1821 1.613 . S
N1822 C1825 1.350 . S
N1823 S1821 1.610 . S
N1823 C1824 1.351 . S
C1824 C1818 1.428 1_545 S
C1824 N1823 1.351 . S
C1824 C1825 1.434 . S
C1825 C1816 1.429 1_545 S
C1825 N1822 1.350 . S
C1825 C1824 1.434 . S
C1826 C1827 1.369 . S
C1826 C1828 1.419 . S
C1826 H1830 0.930 . S
C1827 C1826 1.369 . S
C1827 C1836 1.429 . S
C1828 C1826 1.419 . S
C1828 C1829 1.363 . S
C1828 H1831 0.929 . S
C1829 C1828 1.363 . S
C1829 C1835 1.428 . S
H1830 C1826 0.930 . S
H1831 C1828 0.929 . S
S1832 N1833 1.613 . S
S1832 N1834 1.610 . S
N1833 S1832 1.613 . S
N1833 C1836 1.350 . S
N1834 S1832 1.610 . S
N1834 C1835 1.351 . S
C1835 C1829 1.428 . S
C1835 N1834 1.351 . S
C1835 C1836 1.434 . S
C1836 C1827 1.429 . S
C1836 N1833 1.350 . S
C1836 C1835 1.434 . S
C1837 C1838 1.369 . S
C1837 C1839 1.419 1_455 S
C1837 H1841 0.930 . S
C1838 C1837 1.369 . S
C1838 C1847 1.429 1_545 S
C1839 C1837 1.419 1_655 S
C1839 C1840 1.363 . S
C1839 H1842 0.929 . S
C1840 C1839 1.363 . S
C1840 C1846 1.428 1_545 S
H1841 C1837 0.930 . S
H1842 C1839 0.929 . S
S1843 N1844 1.616 1_655 S
S1843 N1845 1.607 . S
N1844 S1843 1.616 1_455 S
N1844 C1847 1.350 . S
N1845 S1843 1.607 . S
N1845 C1846 1.351 . S
C1846 C1840 1.428 1_565 S
C1846 N1845 1.351 . S
C1846 C1847 1.434 1_655 S
C1847 C1838 1.429 1_565 S
C1847 N1844 1.350 . S
C1847 C1846 1.434 1_455 S
C1848 C1849 1.369 . S
C1848 C1850 1.419 . S
C1848 H1852 0.930 . S
C1849 C1848 1.369 . S
C1849 C1858 1.429 . S
C1850 C1848 1.419 . S
C1850 C1851 1.363 . S
C1850 H1853 0.929 . S
C1851 C1850 1.363 . S
C1851 C1857 1.428 . S
H1852 C1848 0.930 . S
H1853 C1850 0.929 . S
S1854 N1855 1.613 . S
S1854 N1856 1.610 . S
N1855 S1854 1.613 . S
N1855 C1858 1.350 . S
N1856 S1854 1.610 . S
N1856 C1857 1.351 . S
C1857 C1851 1.428 . S
C1857 N1856 1.351 . S
C1857 C1858 1.434 . S
C1858 C1849 1.429 . S
C1858 N1855 1.350 . S
C1858 C1857 1.434 . S
C1859 C1860 1.369 . S
C1859 C1861 1.419 . S
C1859 H1863 0.930 . S
C1860 C1859 1.369 . S
C1860 C1869 1.429 . S
C1861 C1859 1.419 . S
C1861 C1862 1.363 . S
C1861 H1864 0.929 . S
C1862 C1861 1.363 . S
C1862 C1868 1.428 . S
H1863 C1859 0.930 . S
H1864 C1861 0.929 . S
S1865 N1866 1.613 . S
S1865 N1867 1.610 . S
N1866 S1865 1.613 . S
N1866 C1869 1.350 . S
N1867 S1865 1.610 . S
N1867 C1868 1.351 . S
C1868 C1862 1.428 . S
C1868 N1867 1.351 . S
C1868 C1869 1.434 . S
C1869 C1860 1.429 . S
C1869 N1866 1.350 . S
C1869 C1868 1.434 . S
C1870 C1871 1.369 . S
C1870 C1872 1.419 . S
C1870 H1874 0.930 . S
C1871 C1870 1.369 . S
C1871 C1880 1.429 . S
C1872 C1870 1.419 . S
C1872 C1873 1.363 . S
C1872 H1875 0.929 . S
C1873 C1872 1.363 . S
C1873 C1879 1.428 . S
H1874 C1870 0.930 . S
H1875 C1872 0.929 . S
S1876 N1877 1.613 . S
S1876 N1878 1.610 . S
N1877 S1876 1.613 . S
N1877 C1880 1.350 . S
N1878 S1876 1.610 . S
N1878 C1879 1.351 . S
C1879 C1873 1.428 . S
C1879 N1878 1.351 . S
C1879 C1880 1.434 . S
C1880 C1871 1.429 . S
C1880 N1877 1.350 . S
C1880 C1879 1.434 . S
C1881 C1882 1.369 . S
C1881 C1883 1.419 . S
C1881 H1885 0.930 . S
C1882 C1881 1.369 . S
C1882 C1891 1.429 . S
C1883 C1881 1.419 . S
C1883 C1884 1.363 . S
C1883 H1886 0.929 . S
C1884 C1883 1.363 . S
C1884 C1890 1.428 . S
H1885 C1881 0.930 . S
H1886 C1883 0.929 . S
S1887 N1888 1.613 . S
S1887 N1889 1.610 . S
N1888 S1887 1.613 . S
N1888 C1891 1.350 . S
N1889 S1887 1.610 . S
N1889 C1890 1.351 . S
C1890 C1884 1.428 . S
C1890 N1889 1.351 . S
C1890 C1891 1.434 . S
C1891 C1882 1.429 . S
C1891 N1888 1.350 . S
C1891 C1890 1.434 . S
C1892 C1893 1.369 . S
C1892 C1894 1.419 . S
C1892 H1896 0.930 . S
C1893 C1892 1.369 . S
C1893 C1902 1.429 . S
C1894 C1892 1.419 . S
C1894 C1895 1.363 . S
C1894 H1897 0.929 . S
C1895 C1894 1.363 . S
C1895 C1901 1.428 . S
H1896 C1892 0.930 . S
H1897 C1894 0.929 . S
S1898 N1899 1.613 . S
S1898 N1900 1.610 . S
N1899 S1898 1.613 . S
N1899 C1902 1.350 . S
N1900 S1898 1.610 . S
N1900 C1901 1.351 . S
C1901 C1895 1.428 . S
C1901 N1900 1.351 . S
C1901 C1902 1.434 . S
C1902 C1893 1.429 . S
C1902 N1899 1.350 . S
C1902 C1901 1.434 . S
C1903 C1904 1.369 . S
C1903 C1905 1.419 1_455 S
C1903 H1907 0.930 . S
C1904 C1903 1.369 . S
C1904 C1913 1.429 . S
C1905 C1903 1.419 1_655 S
C1905 C1906 1.363 . S
C1905 H1908 0.929 . S
C1906 C1905 1.363 . S
C1906 C1912 1.428 . S
H1907 C1903 0.930 . S
H1908 C1905 0.929 . S
S1909 N1910 1.616 1_655 S
S1909 N1911 1.607 . S
N1910 S1909 1.616 1_455 S
N1910 C1913 1.350 . S
N1911 S1909 1.607 . S
N1911 C1912 1.351 . S
C1912 C1906 1.428 . S
C1912 N1911 1.351 . S
C1912 C1913 1.434 1_655 S
C1913 C1904 1.429 . S
C1913 N1910 1.350 . S
C1913 C1912 1.434 1_455 S
C1914 C1915 1.369 . S
C1914 C1916 1.419 1_455 S
C1914 H1918 0.930 . S
C1915 C1914 1.369 . S
C1915 C1924 1.429 . S
C1916 C1914 1.419 1_655 S
C1916 C1917 1.363 . S
C1916 H1919 0.929 . S
C1917 C1916 1.363 . S
C1917 C1923 1.428 . S
H1918 C1914 0.930 . S
H1919 C1916 0.929 . S
S1920 N1921 1.616 1_655 S
S1920 N1922 1.607 . S
N1921 S1920 1.616 1_455 S
N1921 C1924 1.350 . S
N1922 S1920 1.607 . S
N1922 C1923 1.351 . S
C1923 C1917 1.428 . S
C1923 N1922 1.351 . S
C1923 C1924 1.434 1_655 S
C1924 C1915 1.429 . S
C1924 N1921 1.350 . S
C1924 C1923 1.434 1_455 S
C1925 C1926 1.369 . S
C1925 C1927 1.419 . S
C1925 H1929 0.930 . S
C1926 C1925 1.369 . S
C1926 C1935 1.429 . S
C1927 C1925 1.419 . S
C1927 C1928 1.363 . S
C1927 H1930 0.929 . S
C1928 C1927 1.363 . S
C1928 C1934 1.428 . S
H1929 C1925 0.930 . S
H1930 C1927 0.929 . S
S1931 N1932 1.613 . S
S1931 N1933 1.610 . S
N1932 S1931 1.613 . S
N1932 C1935 1.350 . S
N1933 S1931 1.610 . S
N1933 C1934 1.351 . S
C1934 C1928 1.428 . S
C1934 N1933 1.351 . S
C1934 C1935 1.434 . S
C1935 C1926 1.429 . S
C1935 N1932 1.350 . S
C1935 C1934 1.434 . S
C1057 N46 2.129 . S
C1059 C21 2.043 . S
C1068 C54 1.811 . S
C1070 N79 1.911 . S
C1079 C87 2.041 . S
C1081 N112 2.133 . S
C1090 C120 1.809 . S
C1092 N13 1.908 . S
C1101 C153 2.046 . S
C1103 N244 2.132 . S
C1112 N145 1.911 . S
C1114 C186 1.802 . S
C1123 C219 2.039 . S
C1125 N178 2.133 . S
C1134 C252 1.806 . S
C1136 N211 1.909 . S
C1145 N310 2.129 . S
C1147 C285 2.049 . S
C1156 N343 1.912 . S
C1158 C318 1.808 . S
C1167 C351 2.041 . S
C1169 N376 2.133 . S
C1178 N277 1.914 . S
C1180 C384 1.806 . S
C1189 C417 2.044 . S
C1191 N508 2.133 . S
C1200 C450 1.807 . S
C1202 N409 1.912 . S
C1211 N442 2.129 . S
C1213 C483 2.049 . S
C1222 N475 1.910 . S
C1224 C516 1.806 . S
C1233 N574 2.036 . S
C1235 C549 1.936 . S
C1244 C582 1.951 . S
C1246 N607 2.042 . S
C1255 N640 2.033 . S
C1257 C615 1.938 . S
C1266 N541 2.046 . S
C1268 C648 1.946 . S
C1277 N772 2.036 . S
C1279 C681 1.936 . S
C1288 C714 1.946 . S
C1290 N673 2.042 . S
C1299 N706 2.037 . S
C1301 C747 1.940 . S
C1310 C780 1.944 . S
C1312 N739 2.044 . S
C1321 N838 2.032 . S
C1323 C813 1.942 . S
C1332 C846 1.945 . S
C1334 N871 2.045 . S
C1343 C879 1.941 . S
C1345 N904 2.036 . S
C1354 C912 1.947 . S
C1356 N805 2.042 . S
C1365 N1036 2.035 . S
C1367 C945 1.942 . S
C1376 N937 2.042 . S
C1378 C978 1.947 . S
C1387 N970 2.037 . S
C1389 C1011 1.939 . S
C1398 N1003 2.041 . S
C1400 C1044 1.951 . S
C1409 N200 0.739 . S
C1411 N2 0.739 . S
C1420 N35 0.846 . S
C1422 N233 0.838 . S
C1431 N68 0.756 . S
C1433 N134 0.753 . S
C1442 N101 0.846 . S
C1444 N167 0.838 . S
C1453 N464 0.745 . S
C1455 N266 0.744 . S
C1464 N497 0.827 . S
C1466 N299 0.829 . S
C1475 N332 0.736 . S
C1477 N398 0.738 . S
C1486 N431 0.842 . S
C1488 N365 0.832 . S
C1497 N530 0.813 . S
C1499 N728 0.816 . S
C1508 N563 0.838 . S
C1510 N761 0.836 . S
C1519 N662 0.815 . S
C1521 N596 0.816 . S
C1530 N695 0.841 . S
C1532 N629 0.842 . S
C1541 N992 0.816 . S
C1543 N794 0.818 . S
C1552 N1025 0.837 . S
C1554 N827 0.838 . S
C1563 N926 0.828 . S
C1565 N860 0.826 . S
C1574 N959 0.847 . S
C1576 N893 0.845 . S
C1585 C183 1.132 . S
C1587 C18 1.129 . S
C1596 C51 1.125 . S
C1598 C216 1.132 . S
C1607 C84 1.125 . S
C1609 C249 1.137 . S
C1618 C117 1.125 . S
C1620 C150 1.123 . S
C1629 C447 1.126 . S
C1631 C282 1.124 . S
C1640 C315 1.122 . S
C1642 C480 1.128 . S
C1651 C513 1.125 . S
C1653 C348 1.124 . S
C1662 C381 1.127 . S
C1664 C414 1.131 . S
C1673 C546 1.017 . S
C1675 C711 1.026 . S
C1684 C744 1.029 . S
C1686 C579 1.019 . S
C1695 C777 1.026 . S
C1697 C612 1.028 . S
C1706 C645 1.017 . S
C1708 C678 1.023 . S
C1717 C810 1.019 . S
C1719 C975 1.029 . S
C1728 C1008 1.024 . S
C1730 C843 1.019 . S
C1739 C1041 1.030 . S
C1741 C876 1.019 . S
C1750 C942 1.026 . S
C1752 C909 1.027 . S
C1761 C7 1.024 . S
C1763 C997 1.018 . S
C1772 C502 1.015 . S
C1774 C40 1.016 . S
C1783 C931 1.027 . S
C1785 C73 1.032 . S
C1794 C106 1.016 . S
C1796 C436 1.017 . S
C1805 C139 1.030 . S
C1807 C865 1.023 . S
C1816 C370 1.020 . S
C1818 C172 1.020 . S
C1827 C205 1.031 . S
C1829 C799 1.025 . S
C1838 C238 1.015 . S
C1840 C304 1.016 . S
C1849 C271 1.026 . S
C1851 C733 1.020 . S
C1860 C337 1.024 . S
C1862 C667 1.018 . S
C1871 C403 1.024 . S
C1873 C601 1.018 . S
C1882 C469 1.025 . S
C1884 C535 1.019 . S
C1893 C568 1.003 . S
C1895 C1030 1.004 . S
C1904 C964 1.008 . S
C1906 C634 1.008 . S
C1915 C898 1.004 . S
C1917 C700 1.004 . S
C1926 C832 1.010 . S
C1928 C766 1.009 . S
