# Generated by pormake.
# Topology unw, (4)-cn, num edge types: 1
# Building blocks:
#     Node 0, Type 0, BuildingBlock: ICAMEG_clean_sbu_1, # of connection points: 4
#     Node 1, Type 0, BuildingBlock: ICAMEG_clean_sbu_1, # of connection points: 4
#     Node 2, Type 0, BuildingBlock: ICAMEG_clean_sbu_1, # of connection points: 4
#     Node 3, Type 0, BuildingBlock: ICAMEG_clean_sbu_1, # of connection points: 4
#     Node 4, Type 0, BuildingBlock: ICAMEG_clean_sbu_1, # of connection points: 4
#     Node 5, Type 0, BuildingBlock: ICAMEG_clean_sbu_1, # of connection points: 4
#     Node 6, Type 0, BuildingBlock: ICAMEG_clean_sbu_1, # of connection points: 4
#     Node 7, Type 0, BuildingBlock: ICAMEG_clean_sbu_1, # of connection points: 4
#     Node 8, Type 0, BuildingBlock: ICAMEG_clean_sbu_1, # of connection points: 4
#     Node 9, Type 0, BuildingBlock: ICAMEG_clean_sbu_1, # of connection points: 4
#     Node 10, Type 0, BuildingBlock: ICAMEG_clean_sbu_1, # of connection points: 4
#     Node 11, Type 0, BuildingBlock: ICAMEG_clean_sbu_1, # of connection points: 4
#     Node 12, Type 0, BuildingBlock: ICAMEG_clean_sbu_1, # of connection points: 4
#     Node 13, Type 0, BuildingBlock: ICAMEG_clean_sbu_1, # of connection points: 4
#     Node 14, Type 0, BuildingBlock: ICAMEG_clean_sbu_1, # of connection points: 4
#     Node 15, Type 0, BuildingBlock: ICAMEG_clean_sbu_1, # of connection points: 4
#     Node 16, Type 0, BuildingBlock: ICAMEG_clean_sbu_1, # of connection points: 4
#     Node 17, Type 0, BuildingBlock: ICAMEG_clean_sbu_1, # of connection points: 4
#     Node 18, Type 0, BuildingBlock: ICAMEG_clean_sbu_1, # of connection points: 4
#     Node 19, Type 0, BuildingBlock: ICAMEG_clean_sbu_1, # of connection points: 4
#     Node 20, Type 0, BuildingBlock: ICAMEG_clean_sbu_1, # of connection points: 4
#     Node 21, Type 0, BuildingBlock: ICAMEG_clean_sbu_1, # of connection points: 4
#     Node 22, Type 0, BuildingBlock: ICAMEG_clean_sbu_1, # of connection points: 4
#     Node 23, Type 0, BuildingBlock: ICAMEG_clean_sbu_1, # of connection points: 4
#     Edge 24, Type (0, 0), BuildingBlock: XIVTED_clean_linker_0, # of connection points: 2
#     Edge 25, Type (0, 0), BuildingBlock: XIVTED_clean_linker_0, # of connection points: 2
#     Edge 26, Type (0, 0), BuildingBlock: XIVTED_clean_linker_0, # of connection points: 2
#     Edge 27, Type (0, 0), BuildingBlock: XIVTED_clean_linker_0, # of connection points: 2
#     Edge 28, Type (0, 0), BuildingBlock: XIVTED_clean_linker_0, # of connection points: 2
#     Edge 29, Type (0, 0), BuildingBlock: XIVTED_clean_linker_0, # of connection points: 2
#     Edge 30, Type (0, 0), BuildingBlock: XIVTED_clean_linker_0, # of connection points: 2
#     Edge 31, Type (0, 0), BuildingBlock: XIVTED_clean_linker_0, # of connection points: 2
#     Edge 32, Type (0, 0), BuildingBlock: XIVTED_clean_linker_0, # of connection points: 2
#     Edge 33, Type (0, 0), BuildingBlock: XIVTED_clean_linker_0, # of connection points: 2
#     Edge 34, Type (0, 0), BuildingBlock: XIVTED_clean_linker_0, # of connection points: 2
#     Edge 35, Type (0, 0), BuildingBlock: XIVTED_clean_linker_0, # of connection points: 2
#     Edge 36, Type (0, 0), BuildingBlock: XIVTED_clean_linker_0, # of connection points: 2
#     Edge 37, Type (0, 0), BuildingBlock: XIVTED_clean_linker_0, # of connection points: 2
#     Edge 38, Type (0, 0), BuildingBlock: XIVTED_clean_linker_0, # of connection points: 2
#     Edge 39, Type (0, 0), BuildingBlock: XIVTED_clean_linker_0, # of connection points: 2
#     Edge 40, Type (0, 0), BuildingBlock: XIVTED_clean_linker_0, # of connection points: 2
#     Edge 41, Type (0, 0), BuildingBlock: XIVTED_clean_linker_0, # of connection points: 2
#     Edge 42, Type (0, 0), BuildingBlock: XIVTED_clean_linker_0, # of connection points: 2
#     Edge 43, Type (0, 0), BuildingBlock: XIVTED_clean_linker_0, # of connection points: 2
#     Edge 44, Type (0, 0), BuildingBlock: XIVTED_clean_linker_0, # of connection points: 2
#     Edge 45, Type (0, 0), BuildingBlock: XIVTED_clean_linker_0, # of connection points: 2
#     Edge 46, Type (0, 0), BuildingBlock: XIVTED_clean_linker_0, # of connection points: 2
#     Edge 47, Type (0, 0), BuildingBlock: XIVTED_clean_linker_0, # of connection points: 2
#     Edge 48, Type (0, 0), BuildingBlock: XIVTED_clean_linker_0, # of connection points: 2
#     Edge 49, Type (0, 0), BuildingBlock: XIVTED_clean_linker_0, # of connection points: 2
#     Edge 50, Type (0, 0), BuildingBlock: XIVTED_clean_linker_0, # of connection points: 2
#     Edge 51, Type (0, 0), BuildingBlock: XIVTED_clean_linker_0, # of connection points: 2
#     Edge 52, Type (0, 0), BuildingBlock: XIVTED_clean_linker_0, # of connection points: 2
#     Edge 53, Type (0, 0), BuildingBlock: XIVTED_clean_linker_0, # of connection points: 2
#     Edge 54, Type (0, 0), BuildingBlock: XIVTED_clean_linker_0, # of connection points: 2
#     Edge 55, Type (0, 0), BuildingBlock: XIVTED_clean_linker_0, # of connection points: 2
#     Edge 56, Type (0, 0), BuildingBlock: XIVTED_clean_linker_0, # of connection points: 2
#     Edge 57, Type (0, 0), BuildingBlock: XIVTED_clean_linker_0, # of connection points: 2
#     Edge 58, Type (0, 0), BuildingBlock: XIVTED_clean_linker_0, # of connection points: 2
#     Edge 59, Type (0, 0), BuildingBlock: XIVTED_clean_linker_0, # of connection points: 2
#     Edge 60, Type (0, 0), BuildingBlock: XIVTED_clean_linker_0, # of connection points: 2
#     Edge 61, Type (0, 0), BuildingBlock: XIVTED_clean_linker_0, # of connection points: 2
#     Edge 62, Type (0, 0), BuildingBlock: XIVTED_clean_linker_0, # of connection points: 2
#     Edge 63, Type (0, 0), BuildingBlock: XIVTED_clean_linker_0, # of connection points: 2
#     Edge 64, Type (0, 0), BuildingBlock: XIVTED_clean_linker_0, # of connection points: 2
#     Edge 65, Type (0, 0), BuildingBlock: XIVTED_clean_linker_0, # of connection points: 2
#     Edge 66, Type (0, 0), BuildingBlock: XIVTED_clean_linker_0, # of connection points: 2
#     Edge 67, Type (0, 0), BuildingBlock: XIVTED_clean_linker_0, # of connection points: 2
#     Edge 68, Type (0, 0), BuildingBlock: XIVTED_clean_linker_0, # of connection points: 2
#     Edge 69, Type (0, 0), BuildingBlock: XIVTED_clean_linker_0, # of connection points: 2
#     Edge 70, Type (0, 0), BuildingBlock: XIVTED_clean_linker_0, # of connection points: 2
#     Edge 71, Type (0, 0), BuildingBlock: XIVTED_clean_linker_0, # of connection points: 2
# Relax obj value: 0.236
# Max RMSD: 0.173
# Mean RMSD: 0.172
data_MOF--net-unw--node1-ICAMEG_clean_sbu_1--edge1-XIVTED_clean_linker_0
_symmetry_space_group_name_H-M    P1
_symmetry_Int_Tables_number       1
_symmetry_cell_setting            triclinic
loop_
_symmetry_equiv_pos_as_xyz
'x, y, z'
_cell_length_a     52.134645
_cell_length_b     52.161442
_cell_length_c     52.113808
_cell_angle_alpha  89.981888
_cell_angle_beta   89.954035
_cell_angle_gamma 90.136878
loop_
_atom_site_label
_atom_site_type_symbol
_atom_site_fract_x
_atom_site_fract_y
_atom_site_fract_z
_atom_type_partial_charge
Co0 Co 0.15479 0.38443 0.27722 0.0
Co1 Co 0.10964 0.354 0.23944 0.0
O2 O 0.12143 0.38288 0.26022 0.0
C3 C 0.15637 0.4257 0.23888 0.0
O4 O 0.14273 0.41054 0.22415 0.0
C5 C 0.07364 0.35477 0.28288 0.0
O6 O 0.09343 0.35914 0.29777 0.0
O7 O 0.12371 0.32856 0.26434 0.0
O8 O 0.14898 0.34977 0.29215 0.0
H9 H 0.11822 0.2692 0.19453 0.0
H10 H 0.1184 0.42747 0.28369 0.0
O11 O 0.16182 0.41895 0.26175 0.0
H12 H 0.13267 0.39343 0.3708 0.0
H13 H 0.22545 0.42799 0.3266 0.0
H14 H 0.19715 0.34752 0.28571 0.0
H15 H 0.15473 0.37438 0.33352 0.0
H16 H 0.18337 0.42535 0.30512 0.0
O17 O 0.07638 0.35348 0.25863 0.0
H18 H 0.13314 0.30582 0.22052 0.0
H19 H 0.0599 0.34078 0.21452 0.0
H20 H 0.23928 0.34924 0.30716 0.0
H21 H 0.09609 0.44726 0.32045 0.0
H22 H 0.25368 0.38971 0.32779 0.0
H23 H 0.10315 0.43018 0.36438 0.0
O24 O 0.17248 0.36862 0.24739 0.0
H25 H 0.05986 0.43215 0.2135 0.0
H26 H 0.11296 0.36034 0.18265 0.0
H27 H 0.09638 0.39194 0.15162 0.0
H28 H 0.0696 0.42814 0.16701 0.0
H29 H 0.07703 0.40023 0.24389 0.0
H30 H 0.04411 0.30443 0.18864 0.0
H31 H 0.0734 0.26835 0.17841 0.0
O32 O 0.14269 0.3535 0.22021 0.0
C33 C 0.13793 0.32941 0.28426 0.0
C34 C 0.1053 0.28485 0.19878 0.0
C35 C 0.0637 0.30461 0.1955 0.0
N36 N 0.09748 0.32553 0.21881 0.0
C37 C 0.11367 0.30568 0.21341 0.0
C38 C 0.07273 0.32512 0.2102 0.0
C39 C 0.08014 0.28438 0.18977 0.0
C40 C 0.1217 0.42009 0.30278 0.0
N41 N 0.13794 0.39993 0.3065 0.0
C42 C 0.10896 0.4313 0.3235 0.0
C43 C 0.1129 0.42169 0.34814 0.0
C44 C 0.12946 0.40106 0.35176 0.0
C45 C 0.14185 0.39032 0.33058 0.0
C46 C 0.21937 0.41023 0.31773 0.0
C47 C 0.2032 0.36514 0.29481 0.0
C48 C 0.19558 0.40864 0.30551 0.0
N49 N 0.18773 0.38624 0.29438 0.0
C50 C 0.22711 0.36602 0.30685 0.0
C51 C 0.23519 0.38875 0.3184 0.0
C52 C 0.1659 0.35825 0.22626 0.0
C53 C 0.07145 0.41642 0.20655 0.0
C54 C 0.10136 0.37608 0.18949 0.0
C55 C 0.09199 0.39388 0.17183 0.0
C56 C 0.07695 0.41418 0.18047 0.0
N57 N 0.09585 0.3784 0.21503 0.0
C58 C 0.08113 0.39825 0.22366 0.0
Co59 Co 0.60903 0.14053 0.26409 0.0
Co60 Co 0.64408 0.10698 0.21901 0.0
O61 O 0.61475 0.11082 0.24208 0.0
C62 C 0.56537 0.13926 0.22859 0.0
O63 O 0.58136 0.13075 0.21114 0.0
C64 C 0.6488 0.06645 0.25745 0.0
O65 O 0.63958 0.08314 0.27379 0.0
O66 O 0.66822 0.12192 0.24456 0.0
O67 O 0.64506 0.13895 0.27662 0.0
H68 H 0.72342 0.13612 0.17249 0.0
H69 H 0.57316 0.09647 0.267 0.0
O70 O 0.57296 0.14323 0.25147 0.0
H71 H 0.61015 0.10447 0.3537 0.0
H72 H 0.55792 0.19501 0.32518 0.0
H73 H 0.63896 0.18718 0.27697 0.0
H74 H 0.62254 0.13465 0.31937 0.0
H75 H 0.56596 0.15735 0.29772 0.0
O76 O 0.65137 0.07232 0.23384 0.0
H77 H 0.6864 0.1409 0.2016 0.0
H78 H 0.66405 0.06387 0.18735 0.0
H79 H 0.63181 0.22506 0.30437 0.0
H80 H 0.56006 0.066 0.30081 0.0
H81 H 0.59104 0.22914 0.32871 0.0
H82 H 0.57869 0.06985 0.3445 0.0
O83 O 0.61957 0.16449 0.23638 0.0
H84 H 0.57398 0.04779 0.18932 0.0
H85 H 0.63403 0.1163 0.1635 0.0
H86 H 0.60391 0.09848 0.13163 0.0
H87 H 0.57363 0.06395 0.14448 0.0
H88 H 0.60428 0.06632 0.22063 0.0
H89 H 0.70095 0.05817 0.15824 0.0
H90 H 0.73088 0.09451 0.15058 0.0
O91 O 0.63778 0.14179 0.20454 0.0
C92 C 0.66639 0.1327 0.26642 0.0
C93 C 0.71046 0.12018 0.17559 0.0
C94 C 0.69787 0.07642 0.16762 0.0
N95 N 0.67295 0.10277 0.19594 0.0
C96 C 0.68942 0.1228 0.19198 0.0
C97 C 0.67704 0.07974 0.18415 0.0
C98 C 0.71465 0.09682 0.16333 0.0
C99 C 0.58113 0.09842 0.28604 0.0
N100 N 0.59847 0.11738 0.29126 0.0
C101 C 0.57373 0.08105 0.30507 0.0
C102 C 0.58422 0.0832 0.32957 0.0
C103 C 0.60189 0.10261 0.33475 0.0
C104 C 0.60885 0.11962 0.31523 0.0
C105 C 0.57579 0.19342 0.31473 0.0
C106 C 0.62125 0.18874 0.28766 0.0
C107 C 0.58043 0.17216 0.29912 0.0
N108 N 0.60301 0.16997 0.28597 0.0
C109 C 0.61728 0.21026 0.30307 0.0
C110 C 0.59438 0.21256 0.3167 0.0
C111 C 0.62936 0.1627 0.21402 0.0
C112 C 0.58713 0.06278 0.18347 0.0
C113 C 0.62087 0.10131 0.16924 0.0
C114 C 0.6039 0.09126 0.1511 0.0
C115 C 0.58692 0.07188 0.15832 0.0
N116 N 0.62098 0.09225 0.19385 0.0
C117 C 0.6044 0.07326 0.20108 0.0
Co118 Co 0.87689 0.63816 0.23712 0.0
Co119 Co 0.8376 0.60683 0.2803 0.0
O120 O 0.86913 0.60954 0.26006 0.0
C121 C 0.9172 0.64008 0.27671 0.0
O122 O 0.90033 0.63148 0.29332 0.0
C123 C 0.83533 0.56463 0.24323 0.0
O124 O 0.84775 0.57979 0.22746 0.0
O125 O 0.81618 0.62106 0.25201 0.0
O126 O 0.84254 0.63507 0.22097 0.0
H127 H 0.75498 0.63892 0.31805 0.0
H128 H 0.91336 0.59485 0.24057 0.0
O129 O 0.91137 0.64246 0.25312 0.0
H130 H 0.88587 0.59726 0.15009 0.0
H131 H 0.9334 0.69029 0.17849 0.0
H132 H 0.84798 0.68343 0.21867 0.0
H133 H 0.86941 0.62892 0.18113 0.0
H134 H 0.92299 0.65401 0.20708 0.0
O135 O 0.83071 0.57175 0.26616 0.0
H136 H 0.79468 0.64203 0.29244 0.0
H137 H 0.81376 0.56526 0.31154 0.0
H138 H 0.85749 0.7199 0.19003 0.0
H139 H 0.93049 0.56295 0.21013 0.0
H140 H 0.90048 0.72349 0.16973 0.0
H141 H 0.91666 0.56399 0.16454 0.0
O142 O 0.86322 0.66346 0.26222 0.0
H143 H 0.90316 0.54769 0.31857 0.0
H144 H 0.84266 0.61808 0.33614 0.0
H145 H 0.86917 0.60092 0.37134 0.0
H146 H 0.89966 0.56544 0.36265 0.0
H147 H 0.87642 0.56558 0.28388 0.0
H148 H 0.77415 0.56122 0.3372 0.0
H149 H 0.7445 0.59827 0.34064 0.0
O150 O 0.84337 0.642 0.29398 0.0
C151 C 0.82026 0.62995 0.22959 0.0
C152 C 0.76779 0.62267 0.31677 0.0
C153 C 0.77854 0.57905 0.32749 0.0
N154 N 0.80662 0.60393 0.3007 0.0
C155 C 0.79034 0.62435 0.30237 0.0
C156 C 0.80091 0.58143 0.31291 0.0
C157 C 0.76191 0.59985 0.32942 0.0
C158 C 0.90747 0.59556 0.22071 0.0
N159 N 0.89054 0.61379 0.2126 0.0
C160 C 0.91714 0.57739 0.20359 0.0
C161 C 0.90934 0.57797 0.17802 0.0
C162 C 0.89205 0.59662 0.16989 0.0
C163 C 0.88277 0.61447 0.18756 0.0
C164 C 0.91458 0.68889 0.18717 0.0
C165 C 0.86666 0.68476 0.20974 0.0
C166 C 0.90859 0.66842 0.2034 0.0
N167 N 0.88482 0.66648 0.21432 0.0
C168 C 0.87197 0.7055 0.19362 0.0
C169 C 0.8961 0.70752 0.18226 0.0
C170 C 0.85203 0.6626 0.28398 0.0
C171 C 0.8899 0.5631 0.32261 0.0
C172 C 0.85593 0.60268 0.33221 0.0
C173 C 0.87085 0.59301 0.35222 0.0
C174 C 0.88795 0.57309 0.34733 0.0
N175 N 0.85792 0.59273 0.30803 0.0
C176 C 0.87464 0.57323 0.30307 0.0
Co177 Co 0.34586 0.88682 0.21667 0.0
Co178 Co 0.38402 0.85454 0.25987 0.0
O179 O 0.37626 0.88431 0.2385 0.0
C180 C 0.33885 0.92578 0.25662 0.0
O181 O 0.35158 0.91038 0.27183 0.0
C182 C 0.42608 0.85691 0.22212 0.0
O183 O 0.40974 0.86658 0.20564 0.0
O184 O 0.37234 0.83038 0.23268 0.0
O185 O 0.35425 0.8531 0.20085 0.0
H186 H 0.36562 0.76914 0.30065 0.0
H187 H 0.38232 0.93041 0.21848 0.0
O188 O 0.33613 0.92027 0.23294 0.0
H189 H 0.38241 0.90139 0.12843 0.0
H190 H 0.28351 0.93301 0.15938 0.0
H191 H 0.30558 0.85037 0.19961 0.0
H192 H 0.35488 0.8801 0.16059 0.0
H193 H 0.3217 0.92924 0.18706 0.0
O194 O 0.41932 0.85254 0.2452 0.0
H195 H 0.35604 0.80701 0.274 0.0
H196 H 0.42923 0.83861 0.29099 0.0
H197 H 0.26736 0.85322 0.17189 0.0
H198 H 0.41 0.95241 0.18692 0.0
H199 H 0.25611 0.89478 0.15157 0.0
H200 H 0.41019 0.93785 0.14154 0.0
O201 O 0.32375 0.86929 0.24249 0.0
H202 H 0.43365 0.92976 0.2941 0.0
H203 H 0.37359 0.85986 0.31589 0.0
H204 H 0.38747 0.89 0.34964 0.0
H205 H 0.41775 0.92523 0.33882 0.0
H206 H 0.41907 0.89931 0.26089 0.0
H207 H 0.4397 0.80098 0.31765 0.0
H208 H 0.40773 0.76595 0.32269 0.0
O209 O 0.34882 0.85525 0.27451 0.0
C210 C 0.36257 0.83215 0.21031 0.0
C211 C 0.37967 0.78433 0.29869 0.0
C212 C 0.42126 0.80218 0.3082 0.0
N213 N 0.39194 0.82512 0.28118 0.0
C214 C 0.37432 0.80586 0.28371 0.0
C215 C 0.41524 0.82342 0.29306 0.0
C216 C 0.40331 0.78254 0.31103 0.0
C217 C 0.38215 0.92414 0.19872 0.0
N218 N 0.36692 0.90413 0.19134 0.0
C219 C 0.39793 0.93659 0.18096 0.0
C220 C 0.39805 0.92839 0.1555 0.0
C221 C 0.38247 0.90792 0.14814 0.0
C222 C 0.36697 0.89592 0.16643 0.0
C223 C 0.28825 0.91478 0.16808 0.0
C224 C 0.30092 0.86847 0.19067 0.0
C225 C 0.30982 0.91254 0.18379 0.0
N226 N 0.31599 0.88955 0.19471 0.0
C227 C 0.2792 0.86999 0.17507 0.0
C228 C 0.27289 0.89332 0.16369 0.0
C229 C 0.32688 0.85944 0.26465 0.0
C230 C 0.42051 0.91444 0.29906 0.0
C231 C 0.38673 0.87518 0.31103 0.0
C232 C 0.39456 0.89215 0.33023 0.0
C233 C 0.41155 0.91191 0.32415 0.0
N234 N 0.39564 0.87777 0.28649 0.0
C235 C 0.41228 0.89709 0.28037 0.0
Co236 Co 0.10913 0.64535 0.77634 0.0
Co237 Co 0.14663 0.60913 0.73573 0.0
O238 O 0.1169 0.6136 0.75805 0.0
C239 C 0.0668 0.63791 0.73985 0.0
O240 O 0.08374 0.62816 0.72405 0.0
C241 C 0.15459 0.57313 0.77831 0.0
O242 O 0.14329 0.58984 0.79329 0.0
O243 O 0.16929 0.62843 0.75971 0.0
O244 O 0.14467 0.64649 0.79013 0.0
H245 H 0.22444 0.63839 0.68677 0.0
H246 H 0.0749 0.60031 0.78271 0.0
O247 O 0.07347 0.64511 0.76224 0.0
H248 H 0.10805 0.61915 0.86929 0.0
H249 H 0.05347 0.7037 0.82931 0.0
H250 H 0.1368 0.69426 0.7855 0.0
H251 H 0.12072 0.6459 0.83232 0.0
H252 H 0.06407 0.66378 0.80629 0.0
O253 O 0.15622 0.57706 0.75424 0.0
H254 H 0.18678 0.64376 0.71492 0.0
H255 H 0.16994 0.56426 0.70915 0.0
H256 H 0.12709 0.73441 0.80849 0.0
H257 H 0.06154 0.57319 0.81918 0.0
H258 H 0.08515 0.73933 0.83059 0.0
H259 H 0.07822 0.58252 0.86283 0.0
O260 O 0.12001 0.66699 0.74669 0.0
H261 H 0.08117 0.54219 0.71273 0.0
H262 H 0.13678 0.6112 0.67939 0.0
H263 H 0.10843 0.5877 0.64965 0.0
H264 H 0.08038 0.5529 0.66629 0.0
H265 H 0.10967 0.56635 0.74183 0.0
H266 H 0.20757 0.55798 0.68113 0.0
H267 H 0.23505 0.59524 0.66968 0.0
O268 O 0.13826 0.64137 0.71731 0.0
C269 C 0.16647 0.64073 0.78067 0.0
C270 C 0.21256 0.62202 0.69154 0.0
C271 C 0.20311 0.57688 0.6884 0.0
N272 N 0.17605 0.60439 0.71345 0.0
C273 C 0.19116 0.62496 0.7074 0.0
C274 C 0.18186 0.58055 0.7043 0.0
C275 C 0.21852 0.5978 0.68198 0.0
C276 C 0.08203 0.60462 0.8017 0.0
N277 N 0.09842 0.62474 0.80543 0.0
C278 C 0.07449 0.58914 0.82225 0.0
C279 C 0.08388 0.59437 0.84673 0.0
C280 C 0.10063 0.61491 0.85037 0.0
C281 C 0.10777 0.62996 0.82936 0.0
C282 C 0.07183 0.70177 0.81981 0.0
C283 C 0.11859 0.69618 0.79524 0.0
C284 C 0.07792 0.67924 0.8067 0.0
N285 N 0.10111 0.67663 0.79475 0.0
C286 C 0.11316 0.719 0.80815 0.0
C287 C 0.08962 0.72175 0.82052 0.0
C288 C 0.12985 0.66308 0.72462 0.0
C289 C 0.09334 0.55727 0.70524 0.0
C290 C 0.12459 0.59612 0.68678 0.0
C291 C 0.10861 0.58285 0.66984 0.0
C292 C 0.09289 0.56331 0.67919 0.0
N293 N 0.12494 0.59005 0.71229 0.0
C294 C 0.10959 0.57093 0.72161 0.0
Co295 Co 0.38302 0.14526 0.71361 0.0
Co296 Co 0.34571 0.11075 0.75598 0.0
O297 O 0.37643 0.11509 0.73491 0.0
C298 C 0.42311 0.14633 0.75327 0.0
O299 O 0.40648 0.13548 0.76874 0.0
C300 C 0.34276 0.06984 0.71718 0.0
O301 O 0.35411 0.08555 0.7011 0.0
O302 O 0.32335 0.1262 0.72911 0.0
O303 O 0.34853 0.14167 0.6977 0.0
H304 H 0.2636 0.13927 0.79757 0.0
H305 H 0.42115 0.10328 0.71462 0.0
O306 O 0.4175 0.15014 0.72979 0.0
H307 H 0.39259 0.10901 0.62461 0.0
H308 H 0.43721 0.20224 0.65739 0.0
H309 H 0.35226 0.19018 0.69736 0.0
H310 H 0.37526 0.13845 0.65733 0.0
H311 H 0.42834 0.16431 0.6843 0.0
O312 O 0.33906 0.07638 0.74043 0.0
H313 H 0.30247 0.14442 0.77103 0.0
H314 H 0.32357 0.06723 0.78584 0.0
H315 H 0.36022 0.22827 0.67042 0.0
H316 H 0.43916 0.07359 0.68248 0.0
H317 H 0.40297 0.23448 0.65023 0.0
H318 H 0.42481 0.07632 0.63713 0.0
O319 O 0.36864 0.16894 0.73996 0.0
H320 H 0.41345 0.05095 0.78907 0.0
H321 H 0.35216 0.11902 0.81222 0.0
H322 H 0.38001 0.10051 0.84565 0.0
H323 H 0.4109 0.06619 0.83415 0.0
H324 H 0.38539 0.07017 0.7562 0.0
H325 H 0.28481 0.06116 0.81236 0.0
H326 H 0.25456 0.09738 0.81845 0.0
O327 O 0.35121 0.14512 0.77138 0.0
C328 C 0.32657 0.13608 0.70694 0.0
C329 C 0.27668 0.12337 0.79514 0.0
C330 C 0.28857 0.07952 0.80342 0.0
N331 N 0.31539 0.10623 0.7771 0.0
C332 C 0.29876 0.1262 0.78021 0.0
C333 C 0.31046 0.08306 0.78835 0.0
C334 C 0.27161 0.09985 0.80683 0.0
C335 C 0.41501 0.10472 0.69487 0.0
N336 N 0.39731 0.12264 0.68781 0.0
C337 C 0.42519 0.0878 0.67678 0.0
C338 C 0.4171 0.08932 0.65134 0.0
C339 C 0.39901 0.10765 0.64431 0.0
C340 C 0.38923 0.12423 0.66292 0.0
C341 C 0.41849 0.19971 0.66604 0.0
C342 C 0.37084 0.19266 0.68848 0.0
C343 C 0.41337 0.1783 0.68132 0.0
N344 N 0.38973 0.17493 0.69219 0.0
C345 C 0.37527 0.2143 0.67332 0.0
C346 C 0.39927 0.21779 0.66202 0.0
C347 C 0.35839 0.16655 0.76207 0.0
C348 C 0.40002 0.06584 0.79433 0.0
C349 C 0.3656 0.10413 0.80706 0.0
C350 C 0.38128 0.09369 0.82608 0.0
C351 C 0.3986 0.07443 0.81962 0.0
N352 N 0.36707 0.09556 0.78232 0.0
C353 C 0.38402 0.07671 0.77582 0.0
Co354 Co 0.84855 0.38755 0.73103 0.0
Co355 Co 0.88577 0.3571 0.77616 0.0
O356 O 0.87795 0.38644 0.7542 0.0
C357 C 0.83844 0.42719 0.76984 0.0
O358 O 0.8511 0.41289 0.78615 0.0
C359 C 0.92836 0.36042 0.73915 0.0
O360 O 0.91199 0.37021 0.72281 0.0
O361 O 0.87497 0.33206 0.74932 0.0
O362 O 0.85883 0.35405 0.71604 0.0
H363 H 0.86745 0.27264 0.8189 0.0
H364 H 0.88332 0.43244 0.73373 0.0
O365 O 0.83695 0.4208 0.74628 0.0
H366 H 0.88807 0.40244 0.64412 0.0
H367 H 0.78691 0.43055 0.67055 0.0
H368 H 0.81041 0.34938 0.71288 0.0
H369 H 0.86004 0.38054 0.67542 0.0
H370 H 0.82405 0.42861 0.69979 0.0
O371 O 0.92145 0.35527 0.76205 0.0
H372 H 0.85793 0.30975 0.79118 0.0
H373 H 0.93072 0.34228 0.80816 0.0
H374 H 0.77328 0.35038 0.6836 0.0
H375 H 0.91144 0.45508 0.70301 0.0
H376 H 0.76131 0.3912 0.66221 0.0
H377 H 0.91398 0.44002 0.65786 0.0
O378 O 0.82611 0.36956 0.75624 0.0
H379 H 0.93369 0.43367 0.80984 0.0
H380 H 0.87412 0.36342 0.8318 0.0
H381 H 0.88692 0.39439 0.86522 0.0
H382 H 0.91695 0.42979 0.85432 0.0
H383 H 0.92019 0.4024 0.77696 0.0
H384 H 0.94113 0.30541 0.8359 0.0
H385 H 0.90933 0.27031 0.84148 0.0
O386 O 0.85018 0.35778 0.78995 0.0
C387 C 0.86657 0.33331 0.72638 0.0
C388 C 0.88143 0.28786 0.8167 0.0
C389 C 0.9228 0.30624 0.82621 0.0
N390 N 0.89365 0.32826 0.79825 0.0
C391 C 0.87611 0.30896 0.8011 0.0
C392 C 0.91681 0.32704 0.81045 0.0
C393 C 0.90494 0.28655 0.82934 0.0
C394 C 0.88416 0.42596 0.71405 0.0
N395 N 0.86997 0.40532 0.70632 0.0
C396 C 0.90019 0.43877 0.69677 0.0
C397 C 0.90163 0.43029 0.67145 0.0
C398 C 0.8871 0.4092 0.66373 0.0
C399 C 0.87131 0.39685 0.68154 0.0
C400 C 0.79197 0.41263 0.6797 0.0
C401 C 0.80544 0.36716 0.70348 0.0
C402 C 0.81295 0.41143 0.6963 0.0
N403 N 0.81953 0.38884 0.70782 0.0
C404 C 0.78434 0.36763 0.687 0.0
C405 C 0.77762 0.39055 0.67502 0.0
C406 C 0.82855 0.36083 0.77896 0.0
C407 C 0.92065 0.41828 0.81484 0.0
C408 C 0.88715 0.37881 0.82691 0.0
C409 C 0.89437 0.39626 0.84592 0.0
C410 C 0.91123 0.41611 0.83979 0.0
N411 N 0.89654 0.38103 0.80251 0.0
C412 C 0.91304 0.40046 0.79634 0.0
Co413 Co 0.64383 0.87848 0.73601 0.0
Co414 Co 0.60573 0.84458 0.69366 0.0
O415 O 0.61401 0.87527 0.7136 0.0
C416 C 0.65282 0.91803 0.69659 0.0
O417 O 0.64643 0.90096 0.67926 0.0
C418 C 0.56445 0.84903 0.73167 0.0
O419 O 0.58181 0.85894 0.7469 0.0
O420 O 0.61646 0.82122 0.72176 0.0
O421 O 0.63652 0.84448 0.75189 0.0
H422 H 0.62246 0.75741 0.65625 0.0
H423 H 0.60589 0.92069 0.73427 0.0
O424 O 0.65201 0.91257 0.72039 0.0
H425 H 0.60669 0.89142 0.82426 0.0
H426 H 0.7045 0.92644 0.7939 0.0
H427 H 0.68515 0.84338 0.753 0.0
H428 H 0.63498 0.87132 0.79212 0.0
H429 H 0.66655 0.92153 0.76607 0.0
O430 O 0.57012 0.8437 0.70846 0.0
H431 H 0.63275 0.79606 0.68153 0.0
H432 H 0.56034 0.82825 0.66304 0.0
H433 H 0.72319 0.84739 0.78084 0.0
H434 H 0.57747 0.94151 0.76586 0.0
H435 H 0.73306 0.88916 0.80151 0.0
H436 H 0.5777 0.92681 0.81119 0.0
O437 O 0.6663 0.86156 0.71016 0.0
H438 H 0.55797 0.919 0.65577 0.0
H439 H 0.61718 0.84763 0.63772 0.0
H440 H 0.60429 0.87657 0.60257 0.0
H441 H 0.57443 0.91252 0.61151 0.0
H442 H 0.57154 0.8897 0.69038 0.0
H443 H 0.54915 0.78984 0.63773 0.0
H444 H 0.58038 0.75413 0.63414 0.0
O445 O 0.64133 0.84397 0.67959 0.0
C446 C 0.62714 0.82349 0.7436 0.0
C447 C 0.60873 0.77289 0.65758 0.0
C448 C 0.56757 0.79108 0.64721 0.0
N449 N 0.59728 0.81449 0.67351 0.0
C450 C 0.61449 0.79486 0.67178 0.0
C451 C 0.574 0.81276 0.66159 0.0
C452 C 0.58511 0.77105 0.64521 0.0
C453 C 0.60628 0.91438 0.75403 0.0
N454 N 0.62216 0.89491 0.76138 0.0
C455 C 0.59007 0.92615 0.7718 0.0
C456 C 0.59018 0.91787 0.79723 0.0
C457 C 0.60644 0.89801 0.80457 0.0
C458 C 0.62237 0.88666 0.78627 0.0
C459 C 0.70037 0.90813 0.78505 0.0
C460 C 0.68922 0.86157 0.76207 0.0
C461 C 0.67893 0.90524 0.76925 0.0
N462 N 0.67351 0.88212 0.75813 0.0
C463 C 0.71083 0.86375 0.77775 0.0
C464 C 0.71638 0.8872 0.78932 0.0
C465 C 0.66325 0.84962 0.68898 0.0
C466 C 0.57093 0.90336 0.65163 0.0
C467 C 0.60424 0.86329 0.64175 0.0
C468 C 0.59697 0.87957 0.62177 0.0
C469 C 0.5802 0.89973 0.6268 0.0
N470 N 0.59499 0.86694 0.66602 0.0
C471 C 0.5786 0.88668 0.67112 0.0
Co472 Co 0.23638 0.13586 0.3802 0.0
Co473 Co 0.19669 0.10482 0.33722 0.0
O474 O 0.21422 0.10733 0.37036 0.0
C475 C 0.19425 0.13702 0.41808 0.0
O476 O 0.17854 0.12865 0.40028 0.0
C477 C 0.23482 0.06374 0.33766 0.0
O478 O 0.249 0.0796 0.351 0.0
O479 O 0.22612 0.12007 0.31822 0.0
O480 O 0.2549 0.13403 0.34694 0.0
H481 H 0.16549 0.13709 0.25192 0.0
H482 H 0.23103 0.09157 0.41537 0.0
O483 O 0.21818 0.13911 0.41363 0.0
H484 H 0.32308 0.09578 0.39388 0.0
H485 H 0.29069 0.18712 0.4415 0.0
H486 H 0.25596 0.18224 0.35364 0.0
H487 H 0.29287 0.12756 0.37625 0.0
H488 H 0.26328 0.15079 0.42846 0.0
O489 O 0.21213 0.07005 0.33108 0.0
H490 H 0.18778 0.1402 0.29355 0.0
H491 H 0.16803 0.06307 0.31075 0.0
H492 H 0.28346 0.2188 0.36581 0.0
H493 H 0.26061 0.05952 0.43362 0.0
H494 H 0.30102 0.2214 0.41003 0.0
H495 H 0.30698 0.06146 0.4228 0.0
O496 O 0.2119 0.16101 0.36543 0.0
H497 H 0.15437 0.04369 0.39865 0.0
H498 H 0.14054 0.11513 0.33825 0.0
H499 H 0.10363 0.09684 0.36168 0.0
H500 H 0.11044 0.06082 0.39209 0.0
H501 H 0.19075 0.06272 0.37498 0.0
H502 H 0.14571 0.05902 0.2692 0.0
H503 H 0.14426 0.09625 0.23952 0.0
O504 O 0.18213 0.13988 0.34223 0.0
C505 C 0.24788 0.12954 0.324 0.0
C506 C 0.16587 0.12077 0.26475 0.0
C507 C 0.15481 0.07694 0.27443 0.0
N508 N 0.17889 0.10196 0.30469 0.0
C509 C 0.17836 0.12246 0.28839 0.0
C510 C 0.16749 0.07934 0.29791 0.0
C511 C 0.154 0.09784 0.25778 0.0
C512 C 0.25123 0.09268 0.41081 0.0
N513 N 0.26024 0.11147 0.3949 0.0
C514 C 0.26786 0.07442 0.4211 0.0
C515 C 0.29387 0.07551 0.41499 0.0
C516 C 0.30292 0.09475 0.39875 0.0
C517 C 0.28572 0.11266 0.3888 0.0
C518 C 0.28321 0.18617 0.42216 0.0
C519 C 0.26369 0.18314 0.37286 0.0
C520 C 0.26766 0.16566 0.41467 0.0
N521 N 0.25825 0.16427 0.39023 0.0
C522 C 0.27918 0.20393 0.37966 0.0
C523 C 0.289 0.20539 0.40449 0.0
C524 C 0.19123 0.1603 0.35231 0.0
C525 C 0.15115 0.05933 0.3854 0.0
C526 C 0.14364 0.09951 0.35151 0.0
C527 C 0.12267 0.0892 0.36468 0.0
C528 C 0.12651 0.06897 0.38173 0.0
N529 N 0.16772 0.08988 0.35516 0.0
C530 C 0.17165 0.07011 0.37188 0.0
Co531 Co 0.87676 0.22644 0.33086 0.0
Co532 Co 0.83644 0.25616 0.37413 0.0
O533 O 0.86935 0.24193 0.36402 0.0
C534 C 0.91033 0.27135 0.33379 0.0
O535 O 0.8899 0.28385 0.34135 0.0
C536 C 0.84507 0.21413 0.41052 0.0
O537 O 0.8511 0.20004 0.39058 0.0
O538 O 0.81771 0.22642 0.35944 0.0
O539 O 0.84423 0.20602 0.33215 0.0
H540 H 0.74428 0.28126 0.36171 0.0
H541 H 0.91606 0.22528 0.372 0.0
O542 O 0.90905 0.24741 0.32896 0.0
H543 H 0.89768 0.13469 0.35192 0.0
H544 H 0.93536 0.18744 0.26488 0.0
H545 H 0.84666 0.21389 0.28416 0.0
H546 H 0.87568 0.1694 0.32854 0.0
H547 H 0.92455 0.20663 0.30678 0.0
O548 O 0.83914 0.23766 0.40772 0.0
H549 H 0.78621 0.26385 0.34854 0.0
H550 H 0.8163 0.27803 0.42292 0.0
H551 H 0.85657 0.1946 0.24211 0.0
H552 H 0.93865 0.19118 0.3957 0.0
H553 H 0.9012 0.18122 0.23225 0.0
H554 H 0.92946 0.14552 0.38574 0.0
O555 O 0.85812 0.25388 0.3121 0.0
H556 H 0.90537 0.29925 0.42597 0.0
H557 H 0.83045 0.3128 0.3699 0.0
H558 H 0.85394 0.35021 0.38692 0.0
H559 H 0.89167 0.34355 0.4152 0.0
H560 H 0.88143 0.26239 0.40836 0.0
H561 H 0.77461 0.29543 0.43697 0.0
H562 H 0.73828 0.29721 0.40622 0.0
O563 O 0.83299 0.2743 0.34056 0.0
C564 C 0.8226 0.20862 0.34339 0.0
C565 C 0.75999 0.28069 0.37525 0.0
C566 C 0.77701 0.2886 0.4175 0.0
N567 N 0.80374 0.27018 0.38487 0.0
C568 C 0.78381 0.27093 0.36788 0.0
C569 C 0.80055 0.2787 0.40945 0.0
C570 C 0.75663 0.2896 0.40024 0.0
C571 C 0.91213 0.20545 0.36741 0.0
N572 N 0.89471 0.19932 0.34881 0.0
C573 C 0.9249 0.18623 0.38096 0.0
C574 C 0.91971 0.16061 0.37538 0.0
C575 C 0.90187 0.15452 0.35641 0.0
C576 C 0.88944 0.17425 0.34328 0.0
C577 C 0.91583 0.19312 0.26898 0.0
C578 C 0.86609 0.20793 0.28009 0.0
C579 C 0.90961 0.20403 0.29265 0.0
N580 N 0.88496 0.21111 0.29799 0.0
C581 C 0.8716 0.19711 0.25621 0.0
C582 C 0.89665 0.18963 0.25068 0.0
C583 C 0.84165 0.27096 0.31789 0.0
C584 C 0.88891 0.30241 0.41373 0.0
C585 C 0.84687 0.30976 0.38216 0.0
C586 C 0.86007 0.33101 0.39177 0.0
C587 C 0.88124 0.32725 0.40765 0.0
N588 N 0.85449 0.28545 0.38827 0.0
C589 C 0.87523 0.28161 0.40379 0.0
Co590 Co 0.74081 0.84668 0.38199 0.0
Co591 Co 0.77924 0.87997 0.33984 0.0
O592 O 0.76043 0.87702 0.37214 0.0
C593 C 0.78242 0.85016 0.42017 0.0
O594 O 0.79697 0.86068 0.40252 0.0
C595 C 0.7375 0.9174 0.33652 0.0
O596 O 0.72377 0.90124 0.35005 0.0
O597 O 0.75232 0.86092 0.32039 0.0
O598 O 0.72281 0.84689 0.34846 0.0
H599 H 0.81831 0.84707 0.25809 0.0
H600 H 0.74202 0.89152 0.41686 0.0
O601 O 0.75894 0.84516 0.41561 0.0
H602 H 0.65093 0.87953 0.3943 0.0
H603 H 0.69029 0.79156 0.44326 0.0
H604 H 0.72513 0.79878 0.35555 0.0
H605 H 0.68394 0.85029 0.37727 0.0
H606 H 0.71484 0.82988 0.43015 0.0
O607 O 0.76092 0.91259 0.33145 0.0
H608 H 0.79434 0.84362 0.29876 0.0
H609 H 0.80456 0.92327 0.31234 0.0
H610 H 0.70051 0.76023 0.36778 0.0
H611 H 0.70961 0.9211 0.43451 0.0
H612 H 0.68291 0.75644 0.41193 0.0
H613 H 0.66371 0.91522 0.42316 0.0
O614 O 0.76737 0.82327 0.36757 0.0
H615 H 0.81207 0.94765 0.40009 0.0
H616 H 0.83611 0.87579 0.34357 0.0
H617 H 0.86978 0.89885 0.36758 0.0
H618 H 0.85782 0.93511 0.39603 0.0
H619 H 0.77901 0.9239 0.3759 0.0
H620 H 0.82845 0.92764 0.27167 0.0
H621 H 0.83555 0.88933 0.2443 0.0
O622 O 0.79704 0.84713 0.34723 0.0
C623 C 0.73079 0.85051 0.32565 0.0
C624 C 0.81543 0.86389 0.2699 0.0
C625 C 0.82109 0.90912 0.2775 0.0
N626 N 0.79827 0.88317 0.30801 0.0
C627 C 0.80195 0.86203 0.29299 0.0
C628 C 0.80751 0.90653 0.30048 0.0
C629 C 0.82507 0.88761 0.26216 0.0
C630 C 0.72204 0.88871 0.41206 0.0
N631 N 0.71485 0.86913 0.3962 0.0
C632 C 0.7038 0.90557 0.42201 0.0
C633 C 0.67805 0.90229 0.41561 0.0
C634 C 0.67086 0.88227 0.39941 0.0
C635 C 0.68964 0.8658 0.3898 0.0
C636 C 0.69781 0.79301 0.42395 0.0
C637 C 0.71737 0.79736 0.37473 0.0
C638 C 0.71176 0.81464 0.41643 0.0
N639 N 0.72121 0.81666 0.39204 0.0
C640 C 0.70352 0.77544 0.38157 0.0
C641 C 0.69367 0.77332 0.40636 0.0
C642 C 0.78884 0.82582 0.35602 0.0
C643 C 0.81753 0.93194 0.38769 0.0
C644 C 0.83077 0.8915 0.35597 0.0
C645 C 0.84992 0.90452 0.36948 0.0
C646 C 0.84319 0.92487 0.38543 0.0
N647 N 0.80566 0.89861 0.35824 0.0
C648 C 0.7989 0.91849 0.37388 0.0
Co649 Co 0.11734 0.7658 0.33027 0.0
Co650 Co 0.15622 0.72935 0.36957 0.0
O651 O 0.1244 0.74744 0.36216 0.0
C652 C 0.07924 0.72448 0.33294 0.0
O653 O 0.09767 0.71 0.34195 0.0
C654 C 0.15261 0.76931 0.40924 0.0
O655 O 0.1433 0.78458 0.39156 0.0
O656 O 0.17721 0.75785 0.35526 0.0
O657 O 0.15122 0.78334 0.3322 0.0
H658 H 0.24401 0.69522 0.34945 0.0
H659 H 0.07924 0.76713 0.37256 0.0
O660 O 0.0835 0.74793 0.32751 0.0
H661 H 0.1047 0.85717 0.3585 0.0
H662 H 0.06099 0.81436 0.26886 0.0
H663 H 0.14746 0.7793 0.28384 0.0
H664 H 0.12305 0.82263 0.33192 0.0
H665 H 0.07091 0.79128 0.30897 0.0
O666 O 0.15805 0.74612 0.40394 0.0
H667 H 0.20355 0.7178 0.34019 0.0
H668 H 0.17687 0.7027 0.41573 0.0
H669 H 0.13844 0.80242 0.24356 0.0
H670 H 0.06025 0.80109 0.39944 0.0
H671 H 0.09493 0.82013 0.23587 0.0
H672 H 0.07304 0.84647 0.39252 0.0
O673 O 0.13294 0.73822 0.30894 0.0
H674 H 0.08624 0.69134 0.424 0.0
H675 H 0.15567 0.6726 0.36253 0.0
H676 H 0.12917 0.63714 0.37938 0.0
H677 H 0.09416 0.64643 0.41035 0.0
H678 H 0.11308 0.72624 0.4065 0.0
H679 H 0.21714 0.68014 0.4259 0.0
H680 H 0.25101 0.6762 0.39258 0.0
O681 O 0.15546 0.71267 0.33526 0.0
C682 C 0.17308 0.7777 0.34159 0.0
C683 C 0.22936 0.69673 0.3641 0.0
C684 C 0.2143 0.68829 0.40702 0.0
N685 N 0.18778 0.71135 0.37732 0.0
C686 C 0.20638 0.70942 0.35894 0.0
C687 C 0.19155 0.70112 0.40117 0.0
C688 C 0.23329 0.68608 0.38831 0.0
C689 C 0.0847 0.78687 0.36927 0.0
N690 N 0.10211 0.79292 0.35061 0.0
C691 C 0.07397 0.806 0.38462 0.0
C692 C 0.08118 0.83146 0.38076 0.0
C693 C 0.09896 0.83747 0.36168 0.0
C694 C 0.10931 0.81783 0.34672 0.0
C695 C 0.08004 0.80678 0.27202 0.0
C696 C 0.12854 0.78711 0.28071 0.0
C697 C 0.08575 0.79366 0.29466 0.0
N698 N 0.1098 0.78417 0.29882 0.0
C699 C 0.12352 0.80011 0.25783 0.0
C700 C 0.09909 0.81002 0.25352 0.0
C701 C 0.14688 0.71861 0.31316 0.0
C702 C 0.10148 0.68704 0.41057 0.0
C703 C 0.14046 0.67679 0.37598 0.0
C704 C 0.12554 0.65663 0.38548 0.0
C705 C 0.10591 0.66185 0.40287 0.0
N706 N 0.13599 0.70144 0.38364 0.0
C707 C 0.1168 0.70671 0.40069 0.0
Co708 Co 0.21545 0.8724 0.65656 0.0
Co709 Co 0.25392 0.83452 0.61813 0.0
O710 O 0.23459 0.86576 0.62495 0.0
C711 C 0.25595 0.91131 0.65475 0.0
O712 O 0.27076 0.89318 0.64569 0.0
C713 C 0.21497 0.83636 0.57723 0.0
O714 O 0.19875 0.84533 0.59425 0.0
O715 O 0.22567 0.81281 0.63184 0.0
O716 O 0.19883 0.83803 0.65427 0.0
H717 H 0.29008 0.74795 0.63968 0.0
H718 H 0.214 0.91039 0.61427 0.0
O719 O 0.23244 0.90671 0.65971 0.0
H720 H 0.12433 0.88261 0.62647 0.0
H721 H 0.16418 0.92748 0.71693 0.0
H722 H 0.20173 0.84196 0.70269 0.0
H723 H 0.15879 0.86514 0.65372 0.0
H724 H 0.18835 0.91814 0.67731 0.0
O725 O 0.23816 0.8319 0.58338 0.0
H726 H 0.26609 0.78779 0.6481 0.0
H727 H 0.28246 0.81442 0.57281 0.0
H728 H 0.17752 0.85039 0.74248 0.0
H729 H 0.1801 0.92852 0.58672 0.0
H730 H 0.15855 0.89342 0.7498 0.0
H731 H 0.13491 0.91456 0.5927 0.0
O732 O 0.24309 0.85776 0.67855 0.0
H733 H 0.29106 0.90531 0.5642 0.0
H734 H 0.31051 0.83679 0.62638 0.0
H735 H 0.34553 0.86426 0.6102 0.0
H736 H 0.3359 0.89881 0.57887 0.0
H737 H 0.25657 0.87753 0.58106 0.0
H738 H 0.30644 0.77477 0.56349 0.0
H739 H 0.31045 0.74125 0.59711 0.0
O740 O 0.2698 0.83609 0.65271 0.0
C741 C 0.2053 0.81637 0.64494 0.0
C742 C 0.28854 0.76246 0.62491 0.0
C743 C 0.2977 0.7775 0.58213 0.0
N744 N 0.27308 0.80349 0.61105 0.0
C745 C 0.27506 0.78508 0.62959 0.0
C746 C 0.28406 0.79988 0.5875 0.0
C747 C 0.29995 0.7587 0.60101 0.0
C748 C 0.19434 0.90441 0.61713 0.0
N749 N 0.18835 0.88685 0.63565 0.0
C750 C 0.17525 0.91466 0.60141 0.0
C751 C 0.14989 0.9068 0.60476 0.0
C752 C 0.14395 0.88886 0.62369 0.0
C753 C 0.16354 0.879 0.63903 0.0
C754 C 0.1723 0.90864 0.71394 0.0
C755 C 0.19337 0.86068 0.70566 0.0
C756 C 0.18604 0.90326 0.69157 0.0
N757 N 0.19623 0.87947 0.68761 0.0
C758 C 0.17976 0.86536 0.72826 0.0
C759 C 0.16915 0.88952 0.73237 0.0
C760 C 0.26333 0.84467 0.67465 0.0
C761 C 0.29551 0.89028 0.5778 0.0
C762 C 0.30616 0.85181 0.61278 0.0
C763 C 0.32608 0.86727 0.60365 0.0
C764 C 0.32066 0.88665 0.58606 0.0
N765 N 0.28155 0.85549 0.60458 0.0
C766 C 0.27608 0.87442 0.58732 0.0
Co767 Co 0.15057 0.26695 0.61452 0.0
Co768 Co 0.11687 0.23173 0.65952 0.0
O769 O 0.11957 0.24983 0.62684 0.0
C770 C 0.13958 0.22631 0.57699 0.0
O771 O 0.13224 0.21202 0.59637 0.0
C772 C 0.08072 0.27447 0.66313 0.0
O773 O 0.09782 0.28806 0.6506 0.0
O774 O 0.13638 0.25897 0.67766 0.0
O775 O 0.15523 0.28435 0.64827 0.0
H776 H 0.15005 0.19508 0.74223 0.0
H777 H 0.10265 0.27053 0.58414 0.0
O778 O 0.14687 0.24936 0.58066 0.0
H779 H 0.12511 0.35963 0.60657 0.0
H780 H 0.20405 0.31318 0.5486 0.0
H781 H 0.20202 0.2777 0.63631 0.0
H782 H 0.15266 0.32377 0.62029 0.0
H783 H 0.16501 0.29208 0.5652 0.0
O784 O 0.08461 0.25078 0.66763 0.0
H785 H 0.15342 0.21762 0.70073 0.0
H786 H 0.07352 0.20781 0.68817 0.0
H787 H 0.24139 0.29883 0.62058 0.0
H788 H 0.07466 0.30583 0.56985 0.0
H789 H 0.24257 0.31674 0.57642 0.0
H790 H 0.08581 0.35075 0.58114 0.0
O791 O 0.17267 0.23823 0.62625 0.0
H792 H 0.04817 0.19815 0.60086 0.0
H793 H 0.12015 0.17471 0.65748 0.0
H794 H 0.09646 0.14073 0.63457 0.0
H795 H 0.06016 0.15238 0.60604 0.0
H796 H 0.07254 0.23153 0.62398 0.0
H797 H 0.06922 0.18535 0.72965 0.0
H798 H 0.1077 0.17877 0.75693 0.0
O799 O 0.14941 0.21303 0.65245 0.0
C800 C 0.14965 0.27855 0.67139 0.0
C801 C 0.13316 0.19773 0.73046 0.0
C802 C 0.08779 0.1923 0.72342 0.0
N803 N 0.11374 0.21377 0.69194 0.0
C804 C 0.13497 0.21039 0.70691 0.0
C805 C 0.09033 0.20506 0.69998 0.0
C806 C 0.10939 0.18861 0.73871 0.0
C807 C 0.10775 0.29005 0.5889 0.0
N808 N 0.12933 0.29511 0.60289 0.0
C809 C 0.09178 0.30995 0.58086 0.0
C810 C 0.09803 0.33515 0.58723 0.0
C811 C 0.12007 0.34014 0.60151 0.0
C812 C 0.13557 0.31976 0.60926 0.0
C813 C 0.20375 0.30552 0.56791 0.0
C814 C 0.20232 0.28564 0.61715 0.0
C815 C 0.18172 0.29353 0.57739 0.0
N816 N 0.18117 0.28392 0.60179 0.0
C817 C 0.2247 0.2975 0.60832 0.0
C818 C 0.22535 0.30751 0.58353 0.0
C819 C 0.16997 0.21836 0.64025 0.0
C820 C 0.0639 0.19283 0.61329 0.0
C821 C 0.10441 0.17993 0.64505 0.0
C822 C 0.09104 0.1606 0.63217 0.0
C823 C 0.07066 0.16716 0.61618 0.0
N824 N 0.09763 0.20506 0.64214 0.0
C825 C 0.07769 0.21164 0.6265 0.0
Co826 Co 0.78311 0.11927 0.66238 0.0
Co827 Co 0.7518 0.15863 0.61936 0.0
O828 O 0.76768 0.12638 0.62907 0.0
C829 C 0.73991 0.08373 0.65843 0.0
O830 O 0.72673 0.10368 0.65078 0.0
C831 C 0.79427 0.1532 0.58265 0.0
O832 O 0.80903 0.14793 0.60232 0.0
O833 O 0.78061 0.17855 0.63439 0.0
O834 O 0.80193 0.15276 0.66167 0.0
H835 H 0.72208 0.24916 0.63316 0.0
H836 H 0.78668 0.08067 0.62073 0.0
O837 O 0.76372 0.08595 0.66364 0.0
H838 H 0.87607 0.10325 0.64203 0.0
H839 H 0.82432 0.06186 0.728 0.0
H840 H 0.79373 0.14933 0.70955 0.0
H841 H 0.84004 0.12317 0.66532 0.0
H842 H 0.805 0.07223 0.68605 0.0
O843 O 0.77041 0.1574 0.58579 0.0
H844 H 0.74157 0.20798 0.64569 0.0
H845 H 0.72901 0.17838 0.57083 0.0
H846 H 0.8131 0.13987 0.75167 0.0
H847 H 0.82213 0.06013 0.5971 0.0
H848 H 0.82855 0.09586 0.7611 0.0
H849 H 0.8672 0.07144 0.60769 0.0
O850 O 0.75448 0.13613 0.68119 0.0
H851 H 0.71241 0.08835 0.56645 0.0
H852 H 0.69485 0.16177 0.62336 0.0
H853 H 0.65872 0.13665 0.60589 0.0
H854 H 0.66741 0.09967 0.57718 0.0
H855 H 0.74797 0.11387 0.58452 0.0
H856 H 0.70954 0.21932 0.55741 0.0
H857 H 0.70589 0.25502 0.58872 0.0
O858 O 0.73331 0.16062 0.6528 0.0
C859 C 0.79854 0.1743 0.65049 0.0
C860 C 0.72346 0.23371 0.61937 0.0
C861 C 0.71646 0.21697 0.57684 0.0
N862 N 0.73618 0.19073 0.60908 0.0
C863 C 0.73441 0.21033 0.62638 0.0
C864 C 0.72753 0.19386 0.58454 0.0
C865 C 0.71441 0.237 0.59442 0.0
C866 C 0.80625 0.08553 0.62558 0.0
N867 N 0.8113 0.10297 0.64447 0.0
C868 C 0.82624 0.07391 0.61207 0.0
C869 C 0.85152 0.08029 0.618 0.0
C870 C 0.85651 0.09814 0.63726 0.0
C871 C 0.83604 0.1094 0.65034 0.0
C872 C 0.81772 0.08112 0.72409 0.0
C873 C 0.80059 0.13019 0.71345 0.0
C874 C 0.80674 0.08709 0.7004 0.0
N875 N 0.7985 0.11141 0.69529 0.0
C876 C 0.81145 0.12492 0.73736 0.0
C877 C 0.82009 0.10021 0.74266 0.0
C878 C 0.73661 0.15171 0.67535 0.0
C879 C 0.70838 0.10447 0.57888 0.0
C880 C 0.69878 0.14568 0.61091 0.0
C881 C 0.67824 0.13155 0.60105 0.0
C882 C 0.68313 0.11081 0.58493 0.0
N883 N 0.72348 0.13936 0.60484 0.0
C884 C 0.72843 0.11904 0.58908 0.0
Co885 Co 0.84217 0.71489 0.606 0.0
Co886 Co 0.87397 0.75017 0.65204 0.0
O887 O 0.87276 0.73193 0.61939 0.0
C888 C 0.85348 0.75638 0.56943 0.0
O889 O 0.86172 0.76992 0.58895 0.0
C890 C 0.90973 0.70709 0.65794 0.0
O891 O 0.89383 0.69331 0.64415 0.0
O892 O 0.8528 0.72346 0.66928 0.0
O893 O 0.83704 0.69685 0.63925 0.0
H894 H 0.83663 0.78811 0.73239 0.0
H895 H 0.89074 0.71253 0.5765 0.0
O896 O 0.84621 0.73325 0.5726 0.0
H897 H 0.86893 0.6227 0.59666 0.0
H898 H 0.79069 0.66941 0.53812 0.0
H899 H 0.79045 0.70289 0.62661 0.0
H900 H 0.84069 0.65794 0.61063 0.0
H901 H 0.82908 0.69068 0.55589 0.0
O902 O 0.9053 0.73072 0.66216 0.0
H903 H 0.83532 0.76532 0.69094 0.0
H904 H 0.91601 0.77354 0.68301 0.0
H905 H 0.75173 0.68154 0.6097 0.0
H906 H 0.91943 0.67788 0.56197 0.0
H907 H 0.75169 0.66464 0.56514 0.0
H908 H 0.9086 0.63259 0.57211 0.0
O909 O 0.81931 0.74315 0.61781 0.0
H910 H 0.94669 0.78194 0.5972 0.0
H911 H 0.87205 0.80724 0.6495 0.0
H912 H 0.89781 0.84058 0.62785 0.0
H913 H 0.93545 0.82799 0.6015 0.0
H914 H 0.92026 0.74922 0.61901 0.0
H915 H 0.91823 0.79622 0.72449 0.0
H916 H 0.87832 0.80372 0.74942 0.0
O917 O 0.84243 0.76941 0.64295 0.0
C918 C 0.84055 0.70337 0.66255 0.0
C919 C 0.85414 0.78505 0.72166 0.0
C920 C 0.89995 0.78957 0.71724 0.0
N921 N 0.87553 0.76834 0.68446 0.0
C922 C 0.85351 0.77224 0.69814 0.0
C923 C 0.89857 0.77668 0.69379 0.0
C924 C 0.87754 0.79377 0.73122 0.0
C925 C 0.8858 0.69285 0.58077 0.0
N926 N 0.86401 0.68724 0.59425 0.0
C927 C 0.90216 0.67332 0.57259 0.0
C928 C 0.89609 0.64792 0.57832 0.0
C929 C 0.87384 0.64236 0.5921 0.0
C930 C 0.85795 0.66239 0.6 0.0
C931 C 0.79049 0.67663 0.55758 0.0
C932 C 0.79065 0.6954 0.60727 0.0
C933 C 0.81215 0.68873 0.56773 0.0
N934 N 0.81207 0.6978 0.59233 0.0
C935 C 0.76863 0.68341 0.59777 0.0
C936 C 0.76862 0.67396 0.57275 0.0
C937 C 0.82192 0.76359 0.631 0.0
C938 C 0.93037 0.78767 0.60868 0.0
C939 C 0.88837 0.80162 0.63802 0.0
C940 C 0.90291 0.82058 0.62584 0.0
C941 C 0.92404 0.8135 0.61108 0.0
N942 N 0.89475 0.77633 0.63561 0.0
C943 C 0.91541 0.76924 0.62116 0.0
Co944 Co 0.33061 0.22221 0.12025 0.0
Co945 Co 0.36742 0.25933 0.16096 0.0
O946 O 0.36234 0.23983 0.12944 0.0
C947 C 0.3389 0.26108 0.08037 0.0
O948 O 0.34708 0.27629 0.09866 0.0
C949 C 0.40393 0.21684 0.16331 0.0
O950 O 0.3859 0.20267 0.15298 0.0
O951 O 0.34933 0.23298 0.1818 0.0
O952 O 0.32854 0.20639 0.15497 0.0
H953 H 0.34043 0.29984 0.24415 0.0
H954 H 0.37626 0.21726 0.08664 0.0
O955 O 0.33186 0.23823 0.08548 0.0
H956 H 0.35576 0.12926 0.11471 0.0
H957 H 0.27262 0.17308 0.06065 0.0
H958 H 0.28102 0.21218 0.14639 0.0
H959 H 0.32911 0.1657 0.12869 0.0
H960 H 0.31265 0.19502 0.07327 0.0
O961 O 0.40025 0.24064 0.16733 0.0
H962 H 0.33402 0.2754 0.20414 0.0
H963 H 0.41276 0.28442 0.18512 0.0
H964 H 0.24074 0.19025 0.13464 0.0
H965 H 0.40332 0.18136 0.07203 0.0
H966 H 0.23635 0.17052 0.09149 0.0
H967 H 0.39316 0.137 0.08616 0.0
O968 O 0.30929 0.25141 0.13234 0.0
H969 H 0.43123 0.29022 0.09554 0.0
H970 H 0.36386 0.31619 0.15665 0.0
H971 H 0.38555 0.3491 0.13037 0.0
H972 H 0.41951 0.33617 0.09956 0.0
H973 H 0.4089 0.25792 0.12205 0.0
H974 H 0.42008 0.30879 0.22504 0.0
H975 H 0.38372 0.31673 0.25481 0.0
O976 O 0.33442 0.27768 0.15556 0.0
C977 C 0.33563 0.2132 0.17737 0.0
C978 C 0.3564 0.2966 0.23128 0.0
C979 C 0.40111 0.30159 0.22057 0.0
N980 N 0.37294 0.27873 0.19221 0.0
C981 C 0.35287 0.28285 0.20856 0.0
C982 C 0.39687 0.28775 0.19803 0.0
C983 C 0.3807 0.30604 0.23727 0.0
C984 C 0.37157 0.19797 0.09264 0.0
N985 N 0.35105 0.19355 0.10836 0.0
C986 C 0.38702 0.17774 0.0844 0.0
C987 C 0.38134 0.15285 0.09237 0.0
C988 C 0.36036 0.1485 0.1084 0.0
C989 C 0.34536 0.16921 0.11628 0.0
C990 C 0.27432 0.18155 0.07953 0.0
C991 C 0.27932 0.20347 0.12765 0.0
C992 C 0.29692 0.19403 0.08676 0.0
N993 N 0.29923 0.20465 0.11062 0.0
C994 C 0.25644 0.19116 0.12107 0.0
C995 C 0.25398 0.18011 0.09684 0.0
C996 C 0.313 0.27185 0.14524 0.0
C997 C 0.41651 0.2961 0.10895 0.0
C998 C 0.3786 0.31043 0.14326 0.0
C999 C 0.39084 0.32914 0.12846 0.0
C1000 C 0.4099 0.32187 0.11119 0.0
N1001 N 0.38522 0.28519 0.14096 0.0
C1002 C 0.40389 0.27791 0.12409 0.0
Co1003 Co 0.38427 0.72196 0.82931 0.0
Co1004 Co 0.35437 0.755 0.87845 0.0
O1005 O 0.38362 0.73684 0.86365 0.0
C1006 C 0.42388 0.76187 0.82793 0.0
O1007 O 0.40869 0.77531 0.84278 0.0
C1008 C 0.36086 0.70979 0.91137 0.0
O1009 O 0.36407 0.69668 0.89014 0.0
O1010 O 0.32967 0.72932 0.86479 0.0
O1011 O 0.35011 0.70566 0.8351 0.0
H1012 H 0.26601 0.79332 0.87902 0.0
H1013 H 0.42885 0.71435 0.86356 0.0
O1014 O 0.41806 0.73886 0.82207 0.0
H1015 H 0.39629 0.62751 0.84484 0.0
H1016 H 0.42628 0.67856 0.754 0.0
H1017 H 0.34611 0.71577 0.78755 0.0
H1018 H 0.37554 0.66555 0.82594 0.0
H1019 H 0.42468 0.69695 0.79759 0.0
O1020 O 0.35773 0.73401 0.91054 0.0
H1021 H 0.30301 0.77091 0.85993 0.0
H1022 H 0.34371 0.77667 0.93024 0.0
H1023 H 0.34679 0.69739 0.74395 0.0
H1024 H 0.45034 0.67683 0.88273 0.0
H1025 H 0.3871 0.67862 0.72691 0.0
H1026 H 0.434 0.63303 0.87342 0.0
O1027 O 0.36723 0.75242 0.8145 0.0
H1028 H 0.43421 0.78388 0.9241 0.0
H1029 H 0.35688 0.81208 0.87763 0.0
H1030 H 0.3876 0.84439 0.8936 0.0
H1031 H 0.42657 0.83034 0.91705 0.0
H1032 H 0.4031 0.75222 0.9076 0.0
H1033 H 0.30707 0.79896 0.95018 0.0
H1034 H 0.26791 0.80752 0.92447 0.0
O1035 O 0.34992 0.77578 0.84642 0.0
C1036 C 0.33031 0.71122 0.84837 0.0
C1037 C 0.28302 0.78985 0.89037 0.0
C1038 C 0.30606 0.79298 0.93033 0.0
N1039 N 0.32563 0.77286 0.89383 0.0
C1040 C 0.30408 0.77728 0.87963 0.0
C1041 C 0.32673 0.78034 0.91894 0.0
C1042 C 0.28409 0.79777 0.91589 0.0
C1043 C 0.4218 0.69533 0.85928 0.0
N1044 N 0.40109 0.6921 0.84357 0.0
C1045 C 0.43397 0.67417 0.87025 0.0
C1046 C 0.42477 0.6496 0.86505 0.0
C1047 C 0.4036 0.64649 0.84902 0.0
C1048 C 0.3919 0.66809 0.83842 0.0
C1049 C 0.40858 0.6866 0.76125 0.0
C1050 C 0.36366 0.70743 0.78035 0.0
C1051 C 0.40756 0.69706 0.78589 0.0
N1052 N 0.38524 0.70714 0.7952 0.0
C1053 C 0.36395 0.69715 0.75561 0.0
C1054 C 0.38658 0.68664 0.74605 0.0
C1055 C 0.3552 0.77194 0.8228 0.0
C1056 C 0.41726 0.79024 0.91397 0.0
C1057 C 0.37383 0.80583 0.88776 0.0
C1058 C 0.39113 0.82421 0.8968 0.0
C1059 C 0.41298 0.81631 0.90998 0.0
N1060 N 0.37815 0.78031 0.8918 0.0
C1061 C 0.39954 0.77241 0.90468 0.0
Co1062 Co 0.24641 0.34319 0.87462 0.0
Co1063 Co 0.28703 0.38171 0.83905 0.0
O1064 O 0.26791 0.37352 0.87031 0.0
C1065 C 0.28638 0.33828 0.91414 0.0
O1066 O 0.30277 0.34835 0.89787 0.0
C1067 C 0.24877 0.42224 0.84495 0.0
O1068 O 0.23345 0.40427 0.85362 0.0
O1069 O 0.25857 0.36994 0.81634 0.0
O1070 O 0.22986 0.34928 0.84092 0.0
H1071 H 0.32275 0.36474 0.7511 0.0
H1072 H 0.24798 0.38216 0.91593 0.0
O1073 O 0.2628 0.33593 0.90829 0.0
H1074 H 0.15754 0.37819 0.88851 0.0
H1075 H 0.19082 0.282 0.92475 0.0
H1076 H 0.22999 0.30065 0.8406 0.0
H1077 H 0.18996 0.35024 0.86845 0.0
H1078 H 0.21756 0.32061 0.91863 0.0
O1079 O 0.27177 0.41691 0.83864 0.0
H1080 H 0.2986 0.35437 0.79049 0.0
H1081 H 0.31633 0.42757 0.8215 0.0
H1082 H 0.2032 0.26196 0.84581 0.0
H1083 H 0.21615 0.41032 0.93668 0.0
H1084 H 0.1834 0.25243 0.88813 0.0
H1085 H 0.17058 0.40849 0.9229 0.0
O1086 O 0.27258 0.32114 0.85789 0.0
H1087 H 0.32591 0.4307 0.9124 0.0
H1088 H 0.34322 0.37162 0.84061 0.0
H1089 H 0.37883 0.38538 0.8686 0.0
H1090 H 0.37027 0.41516 0.90477 0.0
H1091 H 0.29085 0.41628 0.88405 0.0
H1092 H 0.3405 0.43885 0.78234 0.0
H1093 H 0.3439 0.40726 0.74684 0.0
O1094 O 0.30177 0.34649 0.83852 0.0
C1095 C 0.23724 0.35837 0.81948 0.0
C1096 C 0.3215 0.37863 0.76647 0.0
C1097 C 0.33143 0.42023 0.784 0.0
N1098 N 0.3063 0.39024 0.80836 0.0
C1099 C 0.30793 0.37282 0.78886 0.0
C1100 C 0.31769 0.41376 0.8061 0.0
C1101 C 0.33333 0.4025 0.76409 0.0
C1102 C 0.22813 0.38108 0.91004 0.0
N1103 N 0.22081 0.3645 0.89112 0.0
C1104 C 0.21022 0.39714 0.92177 0.0
C1105 C 0.18466 0.39614 0.914 0.0
C1106 C 0.17734 0.37915 0.8947 0.0
C1107 C 0.19578 0.3634 0.88338 0.0
C1108 C 0.19928 0.28598 0.9062 0.0
C1109 C 0.22129 0.29673 0.85903 0.0
C1110 C 0.21447 0.30779 0.90263 0.0
N1111 N 0.22512 0.313 0.87922 0.0
C1112 C 0.2062 0.27475 0.86188 0.0
C1113 C 0.19512 0.2694 0.88564 0.0
C1114 C 0.29336 0.32452 0.84536 0.0
C1115 C 0.3299 0.41778 0.89666 0.0
C1116 C 0.33935 0.38454 0.85635 0.0
C1117 C 0.35959 0.3923 0.8721 0.0
C1118 C 0.35478 0.40902 0.89239 0.0
N1119 N 0.31502 0.39327 0.86063 0.0
C1120 C 0.31014 0.40964 0.88049 0.0
Co1121 Co 0.61136 0.27908 0.83009 0.0
Co1122 Co 0.64334 0.24385 0.87618 0.0
O1123 O 0.61356 0.26259 0.86358 0.0
C1124 C 0.57204 0.239 0.82988 0.0
O1125 O 0.58872 0.22504 0.84243 0.0
C1126 C 0.63743 0.28726 0.91135 0.0
O1127 O 0.63368 0.30133 0.89085 0.0
O1128 O 0.66726 0.27038 0.86287 0.0
O1129 O 0.64567 0.2954 0.83516 0.0
H1130 H 0.73177 0.20604 0.87115 0.0
H1131 H 0.56835 0.28464 0.86686 0.0
O1132 O 0.57736 0.26213 0.82395 0.0
H1133 H 0.59935 0.37256 0.85057 0.0
H1134 H 0.56544 0.3253 0.75895 0.0
H1135 H 0.64763 0.28812 0.78711 0.0
H1136 H 0.61945 0.33563 0.82894 0.0
H1137 H 0.56922 0.30478 0.80145 0.0
O1138 O 0.64095 0.26316 0.90934 0.0
H1139 H 0.69394 0.22914 0.85473 0.0
H1140 H 0.65617 0.21978 0.92636 0.0
H1141 H 0.64477 0.30865 0.74456 0.0
H1142 H 0.54754 0.32102 0.88877 0.0
H1143 H 0.60344 0.32742 0.73023 0.0
H1144 H 0.56309 0.36535 0.8807 0.0
O1145 O 0.62807 0.24962 0.81297 0.0
H1146 H 0.56539 0.21197 0.92326 0.0
H1147 H 0.64119 0.18687 0.87256 0.0
H1148 H 0.61126 0.15352 0.88794 0.0
H1149 H 0.57305 0.16602 0.9135 0.0
H1150 H 0.59569 0.24471 0.9073 0.0
H1151 H 0.69368 0.19675 0.94364 0.0
H1152 H 0.73178 0.18966 0.91591 0.0
O1153 O 0.64668 0.22483 0.84296 0.0
C1154 C 0.66596 0.2893 0.84742 0.0
C1155 C 0.71523 0.20888 0.88337 0.0
C1156 C 0.69386 0.2037 0.92407 0.0
N1157 N 0.67275 0.22545 0.88945 0.0
C1158 C 0.69371 0.22184 0.87414 0.0
C1159 C 0.6727 0.21676 0.91419 0.0
C1160 C 0.71523 0.19973 0.9085 0.0
C1161 C 0.57506 0.3039 0.8631 0.0
N1162 N 0.59496 0.30805 0.84655 0.0
C1163 C 0.56327 0.32441 0.87563 0.0
C1164 C 0.57203 0.34928 0.87111 0.0
C1165 C 0.59238 0.35334 0.85422 0.0
C1166 C 0.60371 0.33236 0.84207 0.0
C1167 C 0.58357 0.31726 0.76501 0.0
C1168 C 0.62963 0.29643 0.78109 0.0
C1169 C 0.58581 0.30559 0.78902 0.0
N1170 N 0.60869 0.29551 0.79683 0.0
C1171 C 0.62811 0.30794 0.75694 0.0
C1172 C 0.6049 0.31844 0.7489 0.0
C1173 C 0.64067 0.22985 0.81975 0.0
C1174 C 0.58201 0.20629 0.9122 0.0
C1175 C 0.62458 0.19245 0.88364 0.0
C1176 C 0.60773 0.17348 0.89233 0.0
C1177 C 0.5863 0.18051 0.90669 0.0
N1178 N 0.62024 0.21769 0.88914 0.0
C1179 C 0.59928 0.22473 0.90321 0.0
Co1180 Co 0.73248 0.65084 0.86375 0.0
Co1181 Co 0.69306 0.61004 0.82956 0.0
O1182 O 0.71178 0.6198 0.86061 0.0
C1183 C 0.69217 0.6558 0.90324 0.0
O1184 O 0.67604 0.64441 0.88764 0.0
C1185 C 0.73308 0.5713 0.83644 0.0
O1186 O 0.74711 0.5899 0.84583 0.0
O1187 O 0.72098 0.6224 0.80649 0.0
O1188 O 0.74966 0.64356 0.8306 0.0
H1189 H 0.65618 0.62386 0.74159 0.0
H1190 H 0.73132 0.61368 0.90678 0.0
O1191 O 0.71551 0.65916 0.89691 0.0
H1192 H 0.82202 0.61889 0.88031 0.0
H1193 H 0.7858 0.71572 0.91154 0.0
H1194 H 0.74837 0.6921 0.82792 0.0
H1195 H 0.78918 0.64505 0.85862 0.0
H1196 H 0.7601 0.67621 0.90698 0.0
O1197 O 0.70996 0.57546 0.82964 0.0
H1198 H 0.68002 0.63599 0.78063 0.0
H1199 H 0.66584 0.56259 0.81301 0.0
H1200 H 0.77412 0.73166 0.83157 0.0
H1201 H 0.76358 0.58736 0.92917 0.0
H1202 H 0.79304 0.74369 0.87362 0.0
H1203 H 0.80928 0.5898 0.91587 0.0
O1204 O 0.70601 0.67143 0.8457 0.0
H1205 H 0.65647 0.56086 0.90403 0.0
H1206 H 0.6365 0.61779 0.8312 0.0
H1207 H 0.60156 0.60308 0.85963 0.0
H1208 H 0.61148 0.57437 0.89633 0.0
H1209 H 0.69083 0.57621 0.87522 0.0
H1210 H 0.64202 0.54956 0.77423 0.0
H1211 H 0.63699 0.58035 0.73822 0.0
O1212 O 0.67687 0.64464 0.82839 0.0
C1213 C 0.74233 0.63396 0.80938 0.0
C1214 C 0.65816 0.6103 0.75719 0.0
C1215 C 0.65024 0.56859 0.77549 0.0
N1216 N 0.67411 0.60009 0.79915 0.0
C1217 C 0.67156 0.6171 0.77937 0.0
C1218 C 0.66378 0.57605 0.79738 0.0
C1219 C 0.64742 0.58588 0.7553 0.0
C1220 C 0.75122 0.61505 0.90109 0.0
N1221 N 0.75838 0.63098 0.88153 0.0
C1222 C 0.76938 0.60002 0.91375 0.0
C1223 C 0.79501 0.60137 0.90625 0.0
C1224 C 0.80217 0.61768 0.88629 0.0
C1225 C 0.78348 0.63241 0.87406 0.0
C1226 C 0.77771 0.71065 0.8931 0.0
C1227 C 0.7567 0.69711 0.84624 0.0
C1228 C 0.76311 0.68833 0.89041 0.0
N1229 N 0.75295 0.68174 0.86715 0.0
C1230 C 0.77119 0.71958 0.84821 0.0
C1231 C 0.78177 0.72633 0.87181 0.0
C1232 C 0.68506 0.6671 0.8338 0.0
C1233 C 0.6519 0.57331 0.88806 0.0
C1234 C 0.64095 0.60534 0.84716 0.0
C1235 C 0.62109 0.59704 0.86316 0.0
C1236 C 0.62666 0.58092 0.88374 0.0
N1237 N 0.66563 0.59773 0.85149 0.0
C1238 C 0.67126 0.58196 0.87163 0.0
Co1239 Co 0.65633 0.75561 0.11952 0.0
Co1240 Co 0.61462 0.72075 0.15757 0.0
O1241 O 0.62306 0.73998 0.12657 0.0
C1242 C 0.6478 0.71866 0.07786 0.0
O1243 O 0.63886 0.70278 0.09524 0.0
C1244 C 0.58021 0.76501 0.15746 0.0
O1245 O 0.59978 0.77833 0.1489 0.0
O1246 O 0.63228 0.74618 0.17986 0.0
O1247 O 0.65775 0.77028 0.15472 0.0
H1248 H 0.63276 0.67909 0.24258 0.0
H1249 H 0.61292 0.76488 0.08396 0.0
O1250 O 0.65561 0.74091 0.08424 0.0
H1251 H 0.63835 0.85031 0.11562 0.0
H1252 H 0.72073 0.80212 0.06442 0.0
H1253 H 0.70508 0.76115 0.1483 0.0
H1254 H 0.66149 0.81162 0.12976 0.0
H1255 H 0.6786 0.78287 0.07439 0.0
O1256 O 0.58233 0.74099 0.16139 0.0
H1257 H 0.64356 0.70324 0.20331 0.0
H1258 H 0.56636 0.69775 0.1779 0.0
H1259 H 0.74742 0.78034 0.13921 0.0
H1260 H 0.58939 0.80309 0.06915 0.0
H1261 H 0.75545 0.801 0.097 0.0
H1262 H 0.60202 0.84617 0.08508 0.0
O1263 O 0.67477 0.72461 0.13175 0.0
H1264 H 0.55491 0.69297 0.0872 0.0
H1265 H 0.61586 0.66377 0.1533 0.0
H1266 H 0.59487 0.63195 0.12524 0.0
H1267 H 0.56413 0.64651 0.09191 0.0
H1268 H 0.57649 0.72415 0.11555 0.0
H1269 H 0.55466 0.67372 0.21701 0.0
H1270 H 0.58802 0.66416 0.24962 0.0
O1271 O 0.64706 0.70083 0.15481 0.0
C1272 C 0.64821 0.76445 0.17649 0.0
C1273 C 0.61808 0.68305 0.22847 0.0
C1274 C 0.57423 0.68006 0.21413 0.0
N1275 N 0.60567 0.70163 0.18822 0.0
C1276 C 0.6241 0.69663 0.20615 0.0
C1277 C 0.58096 0.6937 0.19205 0.0
C1278 C 0.59297 0.6747 0.23242 0.0
C1279 C 0.61869 0.78359 0.09076 0.0
N1280 N 0.63864 0.78603 0.10759 0.0
C1281 C 0.60523 0.80514 0.0824 0.0
C1282 C 0.61231 0.82931 0.09138 0.0
C1283 C 0.63268 0.83164 0.10853 0.0
C1284 C 0.64568 0.80966 0.1165 0.0
C1285 C 0.71744 0.79322 0.0829 0.0
C1286 C 0.70838 0.77027 0.12996 0.0
C1287 C 0.69365 0.78226 0.08863 0.0
N1288 N 0.68934 0.7711 0.11198 0.0
C1289 C 0.73241 0.78103 0.12489 0.0
C1290 C 0.73692 0.7926 0.10119 0.0
C1291 C 0.66918 0.70487 0.14511 0.0
C1292 C 0.56821 0.68639 0.1017 0.0
C1293 C 0.60253 0.67025 0.13882 0.0
C1294 C 0.59067 0.65214 0.12302 0.0
C1295 C 0.57342 0.66032 0.10433 0.0
N1296 N 0.59729 0.69577 0.13613 0.0
C1297 C 0.58039 0.70394 0.11787 0.0
Co1298 Co 0.2899 0.61182 0.15818 0.0
Co1299 Co 0.25573 0.64406 0.11148 0.0
O1300 O 0.27458 0.6143 0.1241 0.0
C1301 C 0.25011 0.57195 0.1573 0.0
O1302 O 0.23646 0.58808 0.14372 0.0
C1303 C 0.30056 0.64069 0.07735 0.0
O1304 O 0.31433 0.63644 0.09796 0.0
O1305 O 0.28122 0.66825 0.12652 0.0
O1306 O 0.3062 0.64616 0.15383 0.0
H1307 H 0.21511 0.7311 0.11788 0.0
H1308 H 0.29685 0.56916 0.12136 0.0
O1309 O 0.27301 0.57766 0.16374 0.0
H1310 H 0.38411 0.60037 0.14059 0.0
H1311 H 0.33414 0.56571 0.23047 0.0
H1312 H 0.29733 0.6478 0.20163 0.0
H1313 H 0.34639 0.62018 0.16114 0.0
H1314 H 0.31499 0.56965 0.18737 0.0
O1315 O 0.27631 0.64327 0.07898 0.0
H1316 H 0.23851 0.69335 0.134 0.0
H1317 H 0.23354 0.65809 0.06072 0.0
H1318 H 0.31648 0.64478 0.24479 0.0
H1319 H 0.33404 0.54863 0.10051 0.0
H1320 H 0.33505 0.60349 0.25946 0.0
H1321 H 0.37804 0.56428 0.11008 0.0
O1322 O 0.25971 0.62818 0.17457 0.0
H1323 H 0.22772 0.56693 0.06093 0.0
H1324 H 0.19865 0.64056 0.11259 0.0
H1325 H 0.16669 0.61043 0.09491 0.0
H1326 H 0.18119 0.57331 0.06885 0.0
H1327 H 0.25904 0.59742 0.07917 0.0
H1328 H 0.21025 0.69556 0.04374 0.0
H1329 H 0.20081 0.73236 0.07244 0.0
O1330 O 0.23522 0.64579 0.14384 0.0
C1331 C 0.29999 0.66673 0.14213 0.0
C1332 C 0.21901 0.71514 0.10522 0.0
C1333 C 0.21632 0.6952 0.06359 0.0
N1334 N 0.23713 0.67343 0.09839 0.0
C1335 C 0.23217 0.69367 0.11426 0.0
C1336 C 0.22954 0.67406 0.0733 0.0
C1337 C 0.21102 0.71585 0.07971 0.0
C1338 C 0.31596 0.57592 0.12575 0.0
N1339 N 0.31948 0.59572 0.14253 0.0
C1340 C 0.33693 0.56429 0.11383 0.0
C1341 C 0.36161 0.57311 0.11918 0.0
C1342 C 0.36503 0.59336 0.13629 0.0
C1343 C 0.34361 0.60453 0.14782 0.0
C1344 C 0.32617 0.58382 0.22427 0.0
C1345 C 0.30555 0.62983 0.20781 0.0
C1346 C 0.31527 0.58615 0.19991 0.0
N1347 N 0.30528 0.609 0.19192 0.0
C1348 C 0.31629 0.62821 0.2323 0.0
C1349 C 0.32668 0.60503 0.24053 0.0
C1350 C 0.23965 0.63996 0.16719 0.0
C1351 C 0.22117 0.58307 0.0722 0.0
C1352 C 0.2051 0.62442 0.10131 0.0
C1353 C 0.18692 0.60745 0.09131 0.0
C1354 C 0.19506 0.58664 0.07668 0.0
N1355 N 0.23067 0.6208 0.0968 0.0
C1356 C 0.2388 0.60044 0.08248 0.0
Co1357 Co 0.69864 0.38135 0.16124 0.0
Co1358 Co 0.73537 0.34977 0.1161 0.0
O1359 O 0.71599 0.37938 0.12809 0.0
C1360 C 0.73933 0.41992 0.1631 0.0
O1361 O 0.75305 0.40343 0.15005 0.0
C1362 C 0.69278 0.35459 0.07958 0.0
O1363 O 0.67789 0.3588 0.09941 0.0
O1364 O 0.7088 0.32565 0.12918 0.0
O1365 O 0.68198 0.34749 0.15499 0.0
H1366 H 0.77485 0.26228 0.12338 0.0
H1367 H 0.69501 0.42511 0.12517 0.0
O1368 O 0.71601 0.41491 0.16857 0.0
H1369 H 0.60604 0.39547 0.13812 0.0
H1370 H 0.65098 0.42688 0.23172 0.0
H1371 H 0.68754 0.34454 0.20326 0.0
H1372 H 0.64192 0.37424 0.16043 0.0
H1373 H 0.6728 0.42345 0.18983 0.0
O1374 O 0.71682 0.3514 0.08253 0.0
H1375 H 0.75083 0.29996 0.13875 0.0
H1376 H 0.76043 0.33642 0.06648 0.0
H1377 H 0.66569 0.34705 0.24518 0.0
H1378 H 0.6597 0.44705 0.10263 0.0
H1379 H 0.64723 0.38845 0.25966 0.0
H1380 H 0.61484 0.43219 0.10903 0.0
O1381 O 0.72727 0.36382 0.17914 0.0
H1382 H 0.7671 0.4276 0.06881 0.0
H1383 H 0.79231 0.35265 0.12061 0.0
H1384 H 0.82555 0.38282 0.10547 0.0
H1385 H 0.813 0.4206 0.07936 0.0
H1386 H 0.73446 0.39706 0.08453 0.0
H1387 H 0.78439 0.29904 0.05025 0.0
H1388 H 0.79181 0.26167 0.07882 0.0
O1389 O 0.75384 0.34724 0.14957 0.0
C1390 C 0.68892 0.32708 0.14341 0.0
C1391 C 0.77183 0.27849 0.11078 0.0
C1392 C 0.77715 0.29911 0.06972 0.0
N1393 N 0.75448 0.32047 0.10362 0.0
C1394 C 0.75832 0.29991 0.1194 0.0
C1395 C 0.76354 0.3202 0.079 0.0
C1396 C 0.78132 0.27815 0.08577 0.0
C1397 C 0.67551 0.41869 0.12819 0.0
N1398 N 0.67049 0.39855 0.14419 0.0
C1399 C 0.65561 0.43111 0.11532 0.0
C1400 C 0.63045 0.42275 0.11889 0.0
C1401 C 0.6255 0.40214 0.1352 0.0
C1402 C 0.64589 0.39016 0.14774 0.0
C1403 C 0.65888 0.40872 0.2256 0.0
C1404 C 0.67937 0.36257 0.20934 0.0
C1405 C 0.67128 0.40667 0.20192 0.0
N1406 N 0.68119 0.38376 0.19401 0.0
C1407 C 0.66711 0.3639 0.23313 0.0
C1408 C 0.65678 0.38715 0.24126 0.0
C1409 C 0.74775 0.35215 0.17277 0.0
C1410 C 0.77281 0.41117 0.08011 0.0
C1411 C 0.7867 0.36907 0.10928 0.0
C1412 C 0.80561 0.38606 0.10073 0.0
C1413 C 0.79856 0.40725 0.08607 0.0
N1414 N 0.76149 0.37304 0.10333 0.0
C1415 C 0.75443 0.39376 0.08897 0.0
H1416 H 0.26704 0.54119 0.19634 0.0
H1417 H 0.14438 0.4493 0.19371 0.0
H1418 H 0.20436 0.55076 0.14308 0.0
H1419 H 0.19628 0.45394 0.2581 0.0
H1420 H 0.16771 0.48436 0.17305 0.0
H1421 H 0.24353 0.50607 0.2168 0.0
C1422 C 0.24848 0.53571 0.18876 0.0
C1423 C 0.2376 0.54894 0.16801 0.0
C1424 C 0.17387 0.47782 0.19178 0.0
C1425 C 0.21057 0.509 0.19145 0.0
C1426 C 0.16055 0.45785 0.2036 0.0
C1427 C 0.16842 0.4487 0.22765 0.0
C1428 C 0.19541 0.48849 0.20394 0.0
C1429 C 0.18949 0.46048 0.2396 0.0
C1430 C 0.23498 0.51583 0.20059 0.0
C1431 C 0.21341 0.54114 0.1591 0.0
N1432 N 0.20239 0.47965 0.22751 0.0
N1433 N 0.2007 0.52168 0.17088 0.0
H1434 H 0.53318 0.17126 0.2545 0.0
H1435 H 0.42368 0.17084 0.1483 0.0
H1436 H 0.53944 0.12697 0.18476 0.0
H1437 H 0.43769 0.23488 0.19894 0.0
H1438 H 0.462 0.14976 0.16535 0.0
H1439 H 0.49303 0.18939 0.23873 0.0
C1440 C 0.52592 0.16507 0.23604 0.0
C1441 C 0.53968 0.14773 0.2208 0.0
C1442 C 0.45665 0.16845 0.17262 0.0
C1443 C 0.49399 0.16844 0.20273 0.0
C1444 C 0.43487 0.18047 0.16295 0.0
C1445 C 0.42765 0.20463 0.17222 0.0
C1446 C 0.47092 0.18054 0.19195 0.0
C1447 C 0.44274 0.21632 0.19116 0.0
C1448 C 0.50316 0.17559 0.22699 0.0
C1449 C 0.52947 0.14045 0.19699 0.0
N1450 N 0.46363 0.20406 0.20055 0.0
N1451 N 0.50717 0.15089 0.18863 0.0
H1452 H 0.72289 0.45051 0.20253 0.0
H1453 H 0.84742 0.53959 0.1991 0.0
H1454 H 0.78526 0.44023 0.14895 0.0
H1455 H 0.79536 0.53721 0.26356 0.0
H1456 H 0.82356 0.50464 0.17917 0.0
H1457 H 0.74723 0.48495 0.22328 0.0
C1458 C 0.74155 0.45571 0.19496 0.0
C1459 C 0.75214 0.44253 0.17405 0.0
C1460 C 0.81747 0.5116 0.19777 0.0
C1461 C 0.78005 0.48151 0.19775 0.0
C1462 C 0.83112 0.53149 0.20918 0.0
C1463 C 0.8233 0.54129 0.23296 0.0
C1464 C 0.79567 0.50165 0.2101 0.0
C1465 C 0.80208 0.5301 0.24523 0.0
C1466 C 0.75551 0.47516 0.20694 0.0
C1467 C 0.77645 0.44985 0.16511 0.0
N1468 N 0.7888 0.51098 0.23351 0.0
N1469 N 0.78959 0.46886 0.17702 0.0
H1470 H 0.54338 0.74808 0.19048 0.0
H1471 H 0.45064 0.86711 0.1767 0.0
H1472 H 0.56402 0.81251 0.14259 0.0
H1473 H 0.45705 0.8227 0.24639 0.0
H1474 H 0.48865 0.84506 0.15983 0.0
H1475 H 0.50661 0.77224 0.20644 0.0
C1476 C 0.54 0.7672 0.18312 0.0
C1477 C 0.55674 0.77841 0.16529 0.0
C1478 C 0.48177 0.84043 0.17889 0.0
C1479 C 0.51491 0.80603 0.18347 0.0
C1480 C 0.46019 0.85297 0.18853 0.0
C1481 C 0.45069 0.84666 0.21293 0.0
C1482 C 0.49341 0.82117 0.1936 0.0
C1483 C 0.46374 0.82821 0.2275 0.0
C1484 C 0.51919 0.78103 0.1924 0.0
C1485 C 0.55158 0.8033 0.15648 0.0
N1486 N 0.48425 0.81587 0.21746 0.0
N1487 N 0.53098 0.81633 0.16562 0.0
H1488 H 0.26753 0.45811 0.81165 0.0
H1489 H 0.1484 0.55262 0.82619 0.0
H1490 H 0.20526 0.44349 0.86441 0.0
H1491 H 0.1927 0.54491 0.75655 0.0
H1492 H 0.17369 0.51803 0.84547 0.0
H1493 H 0.24538 0.49672 0.79699 0.0
C1494 C 0.24944 0.46329 0.82046 0.0
C1495 C 0.238 0.44752 0.83902 0.0
C1496 C 0.17777 0.52398 0.82597 0.0
C1497 C 0.21269 0.49133 0.82233 0.0
C1498 C 0.16336 0.54359 0.81497 0.0
C1499 C 0.16836 0.55141 0.78971 0.0
C1500 C 0.19752 0.51256 0.81172 0.0
C1501 C 0.18802 0.53923 0.77599 0.0
C1502 C 0.23675 0.48515 0.81195 0.0
C1503 C 0.21453 0.45503 0.84981 0.0
N1504 N 0.20199 0.52046 0.78724 0.0
N1505 N 0.20253 0.4764 0.8412 0.0
H1506 H 0.54103 0.25544 0.79093 0.0
H1507 H 0.44495 0.13675 0.79989 0.0
H1508 H 0.55027 0.1943 0.84602 0.0
H1509 H 0.45393 0.18279 0.73155 0.0
H1510 H 0.48072 0.15995 0.81951 0.0
H1511 H 0.50508 0.232 0.77185 0.0
C1512 C 0.53529 0.23725 0.79919 0.0
C1513 C 0.54864 0.22671 0.82 0.0
C1514 C 0.47495 0.1648 0.80015 0.0
C1515 C 0.50784 0.19984 0.79823 0.0
C1516 C 0.45462 0.15156 0.78893 0.0
C1517 C 0.44651 0.15786 0.76407 0.0
C1518 C 0.48696 0.18471 0.78653 0.0
C1519 C 0.45966 0.17722 0.75072 0.0
C1520 C 0.51497 0.2238 0.78816 0.0
C1521 C 0.54055 0.20301 0.82987 0.0
N1522 N 0.47912 0.19015 0.76223 0.0
N1523 N 0.52063 0.19034 0.81889 0.0
H1524 H 0.77571 0.55134 0.85854 0.0
H1525 H 0.79964 0.45248 0.74532 0.0
H1526 H 0.71978 0.53675 0.79925 0.0
H1527 H 0.84157 0.45017 0.81674 0.0
H1528 H 0.77174 0.48545 0.76343 0.0
H1529 H 0.801 0.51525 0.84295 0.0
C1530 C 0.76858 0.54025 0.84246 0.0
C1531 C 0.74573 0.54701 0.83006 0.0
C1532 C 0.78704 0.47768 0.77511 0.0
C1533 C 0.77478 0.50616 0.81182 0.0
C1534 C 0.80314 0.45909 0.76471 0.0
C1535 C 0.82299 0.44867 0.77955 0.0
C1536 C 0.79104 0.48607 0.80038 0.0
C1537 C 0.82649 0.45772 0.80464 0.0
C1538 C 0.78304 0.51972 0.83355 0.0
C1539 C 0.73728 0.53205 0.80938 0.0
N1540 N 0.8107 0.47599 0.81425 0.0
N1541 N 0.75204 0.51248 0.80063 0.0
H1542 H 0.53217 0.81201 0.71294 0.0
H1543 H 0.44536 0.80824 0.83942 0.0
H1544 H 0.54277 0.8635 0.77693 0.0
H1545 H 0.45027 0.7455 0.7856 0.0
H1546 H 0.47746 0.83158 0.81437 0.0
H1547 H 0.49719 0.79103 0.73632 0.0
C1548 C 0.5268 0.81923 0.73167 0.0
C1549 C 0.54045 0.83941 0.74311 0.0
C1550 C 0.47158 0.81265 0.80813 0.0
C1551 C 0.50084 0.81534 0.76999 0.0
C1552 C 0.45336 0.79929 0.82246 0.0
C1553 C 0.44524 0.77486 0.81464 0.0
C1554 C 0.48153 0.80164 0.78566 0.0
C1555 C 0.45615 0.76421 0.79245 0.0
C1556 C 0.50705 0.80707 0.74511 0.0
C1557 C 0.53284 0.84787 0.7675 0.0
N1558 N 0.47365 0.77774 0.77864 0.0
N1559 N 0.51361 0.83571 0.7802 0.0
H1560 H 0.16588 0.24592 0.53629 0.0
H1561 H 0.14735 0.12889 0.44098 0.0
H1562 H 0.12131 0.18004 0.55987 0.0
H1563 H 0.21782 0.17197 0.44848 0.0
H1564 H 0.13036 0.15154 0.47889 0.0
H1565 H 0.17674 0.22378 0.49659 0.0
C1566 C 0.15804 0.22696 0.53296 0.0
C1567 C 0.14297 0.21462 0.55154 0.0
C1568 C 0.14955 0.1558 0.47211 0.0
C1569 C 0.15536 0.18932 0.50623 0.0
C1570 C 0.15923 0.14294 0.45065 0.0
C1571 C 0.18405 0.14848 0.44174 0.0
C1572 C 0.16462 0.17467 0.48402 0.0
C1573 C 0.19869 0.1669 0.45481 0.0
C1574 C 0.16439 0.21431 0.5104 0.0
C1575 C 0.13327 0.19005 0.54613 0.0
N1576 N 0.18865 0.17949 0.47513 0.0
N1577 N 0.13975 0.17806 0.5239 0.0
H1578 H 0.84081 0.1744 0.57205 0.0
H1579 H 0.82998 0.16525 0.42076 0.0
H1580 H 0.77337 0.14273 0.53595 0.0
H1581 H 0.85319 0.23569 0.45751 0.0
H1582 H 0.82063 0.14681 0.46313 0.0
H1583 H 0.85705 0.18698 0.52955 0.0
C1584 C 0.82973 0.16962 0.55512 0.0
C1585 C 0.80573 0.15764 0.55731 0.0
C1586 C 0.82813 0.16615 0.46179 0.0
C1587 C 0.82428 0.17145 0.50918 0.0
C1588 C 0.83356 0.17662 0.43778 0.0
C1589 C 0.84221 0.20202 0.43581 0.0
C1590 C 0.83212 0.18099 0.48384 0.0
C1591 C 0.84636 0.21608 0.45834 0.0
C1592 C 0.83892 0.1769 0.53105 0.0
C1593 C 0.79192 0.15208 0.53493 0.0
N1594 N 0.84134 0.20532 0.48156 0.0
N1595 N 0.80145 0.15898 0.51167 0.0
H1596 H 0.82995 0.86047 0.44055 0.0
H1597 H 0.82487 0.73801 0.52977 0.0
H1598 H 0.76187 0.81444 0.45211 0.0
H1599 H 0.86865 0.80427 0.55372 0.0
H1600 H 0.80918 0.76226 0.4931 0.0
H1601 H 0.85068 0.83734 0.47611 0.0
C1602 C 0.81931 0.84575 0.4507 0.0
C1603 C 0.79419 0.83932 0.44339 0.0
C1604 C 0.82242 0.77136 0.50629 0.0
C1605 C 0.81789 0.81261 0.48303 0.0
C1606 C 0.83156 0.75751 0.5271 0.0
C1607 C 0.84781 0.76929 0.545 0.0
C1608 C 0.82982 0.79702 0.50318 0.0
C1609 C 0.85589 0.79461 0.54047 0.0
C1610 C 0.83115 0.8326 0.47081 0.0
C1611 C 0.78123 0.8201 0.45709 0.0
N1612 N 0.84668 0.80779 0.51996 0.0
N1613 N 0.79336 0.80721 0.47603 0.0
H1614 H 0.13653 0.8141 0.43163 0.0
H1615 H 0.2396 0.80581 0.54292 0.0
H1616 H 0.18482 0.74812 0.4443 0.0
H1617 H 0.16969 0.84888 0.55344 0.0
H1618 H 0.22327 0.79005 0.50214 0.0
H1619 H 0.15128 0.83196 0.47272 0.0
C1620 C 0.15009 0.80335 0.44309 0.0
C1621 C 0.15951 0.77963 0.43459 0.0
C1622 C 0.21152 0.80299 0.51336 0.0
C1623 C 0.17663 0.80005 0.48094 0.0
C1624 C 0.22089 0.81216 0.53655 0.0
C1625 C 0.20589 0.82859 0.55164 0.0
C1626 C 0.18714 0.81053 0.50497 0.0
C1627 C 0.18176 0.8361 0.54241 0.0
C1628 C 0.15842 0.81351 0.46645 0.0
C1629 C 0.17699 0.76642 0.45014 0.0
N1630 N 0.17308 0.82703 0.51953 0.0
N1631 N 0.18518 0.77694 0.47244 0.0
H1632 H 0.68302 0.9277 0.65503 0.0
H1633 H 0.69038 0.07736 0.67291 0.0
H1634 H 0.64796 0.96406 0.72057 0.0
H1635 H 0.75874 0.03499 0.65367 0.0
H1636 H 0.66794 0.03683 0.68096 0.0
H1637 H 0.70452 0.96841 0.64454 0.0
C1638 C 0.67956 0.94437 0.66692 0.0
C1639 C 0.66374 0.94273 0.68864 0.0
C1640 C 0.68781 0.03651 0.67488 0.0
C1641 C 0.68781 0.98886 0.67664 0.0
C1642 C 0.70058 0.05949 0.6702 0.0
C1643 C 0.72642 0.05936 0.66272 0.0
C1644 C 0.70079 0.01332 0.67133 0.0
C1645 C 0.73884 0.03577 0.6596 0.0
C1646 C 0.69195 0.96737 0.66107 0.0
C1647 C 0.66007 0.96467 0.70368 0.0
N1648 N 0.7258 0.01353 0.66371 0.0
N1649 N 0.67189 0.98699 0.69728 0.0
H1650 H 0.93175 0.661 0.64613 0.0
H1651 H 0.03069 0.66814 0.76264 0.0
H1652 H 0.93753 0.72508 0.6983 0.0
H1653 H 0.04419 0.62159 0.69543 0.0
H1654 H 0.99054 0.68282 0.74371 0.0
H1655 H 0.96805 0.64074 0.66807 0.0
C1656 C 0.94065 0.67077 0.66218 0.0
C1657 C 0.93183 0.69481 0.67033 0.0
C1658 C 0.00222 0.66923 0.73323 0.0
C1659 C 0.97274 0.67166 0.69558 0.0
C1660 C 0.02504 0.66071 0.74407 0.0
C1661 C 0.04093 0.64389 0.7304 0.0
C1662 C -0.00482 0.66069 0.70869 0.0
C1663 C 0.03262 0.63483 0.70645 0.0
C1664 C 0.96127 0.65921 0.67465 0.0
C1665 C 0.94392 0.70665 0.69123 0.0
N1666 N 0.01031 0.64348 0.69624 0.0
N1667 N 0.96374 0.6949 0.7032 0.0
H1668 H 0.35324 0.0449 0.67223 0.0
H1669 H 0.23656 0.94736 0.68735 0.0
H1670 H 0.30585 0.04072 0.74013 0.0
H1671 H 0.30146 0.93138 0.63839 0.0
H1672 H 0.2581 0.98633 0.70215 0.0
H1673 H 0.3313 0.00685 0.65538 0.0
C1674 C 0.33835 0.0359 0.68363 0.0
C1675 C 0.33137 0.04588 0.70761 0.0
C1676 C 0.26753 0.9743 0.68809 0.0
C1677 C 0.30604 0.00295 0.68832 0.0
C1678 C 0.25519 0.95222 0.6795 0.0
C1679 C 0.26736 0.93612 0.66176 0.0
C1680 C 0.292 0.98043 0.67861 0.0
C1681 C 0.29154 0.94323 0.65226 0.0
C1682 C 0.32587 0.01427 0.67401 0.0
C1683 C 0.31194 0.03354 0.72162 0.0
N1684 N 0.30312 0.96492 0.66082 0.0
N1685 N 0.2998 0.01281 0.71166 0.0
H1686 H 0.04935 0.25705 0.70133 0.0
H1687 H 0.95278 0.37405 0.69486 0.0
H1688 H 0.06137 0.32132 0.6504 0.0
H1689 H 0.96023 0.32558 0.76163 0.0
H1690 H 0.9909 0.35388 0.67648 0.0
H1691 H 0.01386 0.2801 0.72138 0.0
C1692 C 0.04438 0.27593 0.69424 0.0
C1693 C 0.05824 0.28733 0.67418 0.0
C1694 C 0.98433 0.34791 0.69528 0.0
C1695 C 0.0179 0.31375 0.69707 0.0
C1696 C 0.96264 0.3594 0.70578 0.0
C1697 C 0.95331 0.35136 0.72972 0.0
C1698 C -0.00357 0.32798 0.70866 0.0
C1699 C 0.9668 0.33237 0.74312 0.0
C1700 C 0.02432 0.28915 0.70585 0.0
C1701 C 0.05117 0.3119 0.66588 0.0
N1702 N 0.98753 0.32106 0.73223 0.0
N1703 N 0.03136 0.32428 0.67731 0.0
H1704 H 0.75471 0.9473 0.29694 0.0
H1705 H 0.6364 0.04282 0.3022 0.0
H1706 H 0.69136 0.93788 0.34961 0.0
H1707 H 0.68507 0.03567 0.23552 0.0
H1708 H 0.65777 0.00592 0.32133 0.0
H1709 H 0.73152 0.98229 0.27607 0.0
C1710 C 0.73604 0.95275 0.30424 0.0
C1711 C 0.7249 0.93976 0.32503 0.0
C1712 C 0.66361 0.01226 0.30241 0.0
C1713 C 0.69836 0.97943 0.30122 0.0
C1714 C 0.65143 0.03327 0.29149 0.0
C1715 C 0.65911 0.04227 0.26734 0.0
C1716 C 0.68385 0.00046 0.28923 0.0
C1717 C 0.67857 0.02922 0.25418 0.0
C1718 C 0.72274 0.97251 0.29218 0.0
C1719 C 0.70059 0.9474 0.3336 0.0
N1720 N 0.69054 0.00907 0.26547 0.0
N1721 N 0.68815 0.96682 0.32168 0.0
H1722 H 0.94124 0.63151 0.32271 0.0
H1723 H 0.04246 0.74334 0.30105 0.0
H1724 H 0.94861 0.67323 0.25145 0.0
H1725 H 0.05934 0.67938 0.35086 0.0
H1726 H 0.00273 0.72209 0.28817 0.0
H1727 H 0.98054 0.65252 0.33821 0.0
C1728 C 0.9512 0.64492 0.31031 0.0
C1729 C 0.94177 0.6506 0.28576 0.0
C1730 C 0.01512 0.71278 0.30198 0.0
C1731 C 0.98595 0.6749 0.30349 0.0
C1732 C 0.03767 0.72495 0.30947 0.0
C1733 C 0.05423 0.71296 0.32687 0.0
C1734 C 0.00897 0.68868 0.31226 0.0
C1735 C 0.04713 0.68911 0.33718 0.0
C1736 C 0.9735 0.65685 0.31915 0.0
C1737 C 0.9553 0.66814 0.27044 0.0
N1738 N 0.02492 0.67769 0.32972 0.0
N1739 N 0.97658 0.67986 0.27966 0.0
H1740 H 0.34518 0.9465 0.30406 0.0
H1741 H 0.22115 0.03595 0.2951 0.0
H1742 H 0.2992 0.95299 0.23548 0.0
H1743 H 0.27668 0.03944 0.35641 0.0
H1744 H 0.24649 0.00192 0.27482 0.0
H1745 H 0.31799 0.97818 0.32486 0.0
C1746 C 0.32948 0.95479 0.29329 0.0
C1747 C 0.32445 0.94717 0.268 0.0
C1748 C 0.25296 0.01004 0.29281 0.0
C1749 C 0.29299 0.98318 0.29183 0.0
C1750 C 0.23839 0.02922 0.3045 0.0
C1751 C 0.24697 0.04054 0.32735 0.0
C1752 C 0.27604 0.00215 0.30424 0.0
C1753 C 0.26952 0.03133 0.33867 0.0
C1754 C 0.3139 0.97281 0.30521 0.0
C1755 C 0.30384 0.9585 0.25496 0.0
N1756 N 0.28332 0.01276 0.32694 0.0
N1757 N 0.28872 0.97588 0.2671 0.0
H1758 H 0.06655 0.32756 0.32684 0.0
H1759 H 0.91514 0.32126 0.31971 0.0
H1760 H 0.02552 0.36244 0.26405 0.0
H1761 H 0.95959 0.25382 0.33732 0.0
H1762 H 0.95496 0.34441 0.30989 0.0
H1763 H 0.0262 0.30834 0.34191 0.0
C1764 C 0.04894 0.33164 0.3166 0.0
C1765 C 0.04918 0.34656 0.29421 0.0
C1766 C 0.95588 0.32461 0.31611 0.0
C1767 C 0.00343 0.32498 0.31138 0.0
C1768 C 0.93331 0.31144 0.32177 0.0
C1769 C 0.93422 0.2856 0.32916 0.0
C1770 C 0.97944 0.31202 0.31858 0.0
C1771 C 0.95818 0.27369 0.33146 0.0
C1772 C 0.02611 0.32052 0.32506 0.0
C1773 C 0.026 0.35099 0.28138 0.0
N1774 N 0.97998 0.28708 0.32631 0.0
N1775 N 0.00393 0.34029 0.29022 0.0
H1776 H 0.71457 0.69335 0.93131 0.0
H1777 H 0.62948 0.67466 0.05546 0.0
H1778 H 0.64995 0.6414 0.93136 0.0
H1779 H 0.67249 0.74371 0.03922 0.0
H1780 H 0.63772 0.66002 0.01147 0.0
H1781 H 0.70097 0.70973 0.97275 0.0
C1782 C 0.69748 0.68537 0.9401 0.0
C1783 C 0.68339 0.66592 0.92802 0.0
C1784 C 0.64506 0.67847 0.01757 0.0
C1785 C 0.66774 0.68459 0.97551 0.0
C1786 C 0.64049 0.68679 0.04262 0.0
C1787 C 0.65058 0.7103 0.05105 0.0
C1788 C 0.66008 0.69366 0.00115 0.0
C1789 C 0.66449 0.72538 0.03362 0.0
C1790 C 0.68963 0.69486 0.96368 0.0
C1791 C 0.66128 0.65645 0.94013 0.0
N1792 N 0.66906 0.71666 0.00959 0.0
N1793 N 0.65421 0.66573 0.96347 0.0
H1794 H 0.34774 0.66201 0.0702 0.0
H1795 H 0.3426 0.66132 0.91798 0.0
H1796 H 0.28227 0.63247 0.02901 0.0
H1797 H 0.36971 0.72732 0.95999 0.0
H1798 H 0.33095 0.64078 0.9587 0.0
H1799 H 0.36643 0.67627 0.02934 0.0
C1800 C 0.33758 0.65807 0.05251 0.0
C1801 C 0.31341 0.64618 0.05284 0.0
C1802 C 0.3398 0.65959 0.9589 0.0
C1803 C 0.33476 0.662 0.00645 0.0
C1804 C 0.34658 0.67126 0.9358 0.0
C1805 C 0.35699 0.69608 0.93574 0.0
C1806 C 0.3441 0.67261 0.98201 0.0
C1807 C 0.36155 0.70822 0.9593 0.0
C1808 C 0.34816 0.66632 0.02934 0.0
C1809 C 0.30089 0.64172 0.02947 0.0
N1810 N 0.35509 0.69632 0.9816 0.0
N1811 N 0.31175 0.64961 0.00712 0.0
H1812 H 0.26201 0.30271 0.94333 0.0
H1813 H 0.35779 0.30575 0.06015 0.0
H1814 H 0.33135 0.34807 0.93971 0.0
H1815 H 0.31108 0.23979 0.04163 0.0
H1816 H 0.34692 0.32444 0.01836 0.0
H1817 H 0.27746 0.28281 0.98256 0.0
C1818 C 0.28045 0.30861 0.9509 0.0
C1819 C 0.29544 0.32711 0.93834 0.0
C1820 C 0.33936 0.30576 0.02344 0.0
C1821 C 0.3132 0.30432 0.98318 0.0
C1822 C 0.34546 0.29512 0.04722 0.0
C1823 C 0.3351 0.27132 0.05439 0.0
C1824 C 0.32247 0.29263 0.00712 0.0
C1825 C 0.31941 0.25823 0.03691 0.0
C1826 C 0.28935 0.29706 0.97315 0.0
C1827 C 0.31928 0.33383 0.94887 0.0
N1828 N 0.31329 0.26924 0.01419 0.0
N1829 N 0.32742 0.32254 0.97092 0.0
H1830 H 0.7138 0.36378 0.03257 0.0
H1831 H 0.62834 0.26727 0.95893 0.0
H1832 H 0.64618 0.33338 0.06956 0.0
H1833 H 0.65487 0.33557 0.92029 0.0
H1834 H 0.63829 0.28753 0.00031 0.0
H1835 H 0.69635 0.35037 0.99092 0.0
C1836 C 0.69516 0.35458 0.03183 0.0
C1837 C 0.68132 0.34965 0.05435 0.0
C1838 C 0.64155 0.29812 0.98271 0.0
C1839 C 0.6618 0.3338 0.00731 0.0
C1840 C 0.63602 0.28659 0.95922 0.0
C1841 C 0.64084 0.29982 0.93632 0.0
C1842 C 0.65267 0.32263 0.98309 0.0
C1843 C 0.65079 0.32481 0.9376 0.0
C1844 C 0.68523 0.34704 0.00818 0.0
C1845 C 0.6573 0.33764 0.05252 0.0
N1846 N 0.65686 0.33528 0.96064 0.0
N1847 N 0.64846 0.32962 0.02937 0.0
H1848 H 0.16888 0.32207 0.326 0.0
H1849 H 0.19537 0.20443 0.38005 0.0
H1850 H 0.11689 0.28186 0.27549 0.0
H1851 H 0.15734 0.17239 0.31384 0.0
H1852 H 0.17889 0.24637 0.36883 0.0
H1853 H 0.17879 0.28203 0.34705 0.0
C1854 C 0.15917 0.30483 0.31961 0.0
C1855 C 0.14213 0.30541 0.2988 0.0
C1856 C 0.17436 0.23043 0.35641 0.0
C1857 C 0.15295 0.25897 0.32344 0.0
C1858 C 0.18357 0.20628 0.36304 0.0
C1859 C 0.17824 0.18496 0.34751 0.0
C1860 C 0.16014 0.23344 0.33369 0.0
C1861 C 0.16226 0.18836 0.32615 0.0
C1862 C 0.16469 0.28177 0.33189 0.0
C1863 C 0.13026 0.28237 0.29137 0.0
N1864 N 0.15408 0.21223 0.31967 0.0
N1865 N 0.13608 0.26009 0.30354 0.0
H1866 H 0.77576 0.20404 0.36664 0.0
H1867 H 0.71594 0.12319 0.25146 0.0
H1868 H 0.82056 0.17387 0.30379 0.0
H1869 H 0.67156 0.15587 0.31337 0.0
H1870 H 0.75516 0.1364 0.2733 0.0
H1871 H 0.73851 0.18088 0.35067 0.0
C1872 C 0.77789 0.1923 0.34963 0.0
C1873 C 0.80128 0.19128 0.33629 0.0
C1874 C 0.73685 0.14047 0.2822 0.0
C1875 C 0.75846 0.16484 0.31774 0.0
C1876 C 0.71439 0.13296 0.26974 0.0
C1877 C 0.69033 0.13869 0.28043 0.0
C1878 C 0.73527 0.15386 0.30551 0.0
C1879 C 0.68963 0.15123 0.30425 0.0
C1880 C 0.75654 0.17909 0.3405 0.0
C1881 C 0.80287 0.17545 0.31456 0.0
N1882 N 0.71175 0.15857 0.31586 0.0
N1883 N 0.78163 0.16312 0.30576 0.0
H1884 H 0.86938 0.71032 0.27054 0.0
H1885 H 0.83585 0.8222 0.33256 0.0
H1886 H 0.8259 0.67066 0.32903 0.0
H1887 H 0.77623 0.77602 0.36718 0.0
H1888 H 0.85716 0.78324 0.31847 0.0
H1889 H 0.8594 0.75074 0.29107 0.0
C1890 C 0.85807 0.71006 0.28799 0.0
C1891 C 0.84829 0.68699 0.29792 0.0
C1892 C 0.83931 0.78154 0.32889 0.0
C1893 C 0.83721 0.73351 0.32212 0.0
C1894 C 0.82725 0.80386 0.33726 0.0
C1895 C 0.80388 0.80245 0.3506 0.0
C1896 C 0.82771 0.75763 0.3336 0.0
C1897 C 0.79399 0.77811 0.35659 0.0
C1898 C 0.85259 0.73328 0.29996 0.0
C1899 C 0.83376 0.68794 0.32059 0.0
N1900 N 0.80581 0.7567 0.34779 0.0
N1901 N 0.82841 0.71085 0.33173 0.0
H1902 H 0.2767 0.86987 0.25335 0.0
H1903 H 0.22245 0.77423 0.35927 0.0
H1904 H 0.3244 0.83195 0.30945 0.0
H1905 H 0.17431 0.81865 0.30859 0.0
H1906 H 0.25968 0.79805 0.3439 0.0
H1907 H 0.23877 0.85408 0.27571 0.0
C1908 C 0.27923 0.85836 0.27047 0.0
C1909 C 0.30381 0.85195 0.27933 0.0
C1910 C 0.24094 0.80277 0.33635 0.0
C1911 C 0.26038 0.83374 0.30499 0.0
C1912 C 0.21963 0.78917 0.34512 0.0
C1913 C 0.19521 0.79417 0.33496 0.0
C1914 C 0.23786 0.82139 0.31715 0.0
C1915 C 0.19276 0.81393 0.31681 0.0
C1916 C 0.25753 0.84941 0.28328 0.0
C1917 C 0.30585 0.83721 0.30179 0.0
N1918 N 0.21387 0.8266 0.30827 0.0
N1919 N 0.28441 0.82838 0.31368 0.0
H1920 H 0.14557 0.66285 0.67441 0.0
H1921 H 0.21102 0.76733 0.62722 0.0
H1922 H 0.1233 0.71404 0.7356 0.0
H1923 H 0.16276 0.81375 0.67597 0.0
H1924 H 0.18797 0.72949 0.64119 0.0
H1925 H 0.15866 0.69967 0.64891 0.0
C1926 C 0.14336 0.68186 0.68247 0.0
C1927 C 0.13389 0.68528 0.70746 0.0
C1928 C 0.18176 0.74791 0.64834 0.0
C1929 C 0.1499 0.72762 0.67872 0.0
C1930 C 0.1952 0.76965 0.64051 0.0
C1931 C 0.18905 0.7938 0.65064 0.0
C1932 C 0.16192 0.75026 0.66647 0.0
C1933 C 0.16832 0.79552 0.66777 0.0
C1934 C 0.15116 0.70294 0.66797 0.0
C1935 C 0.13088 0.71041 0.71661 0.0
N1936 N 0.15576 0.77399 0.67541 0.0
N1937 N 0.13921 0.73058 0.70237 0.0
H1938 H 0.32425 0.15559 0.65806 0.0
H1939 H 0.21748 0.22302 0.61824 0.0
H1940 H 0.27619 0.13183 0.72136 0.0
H1941 H 0.17417 0.17571 0.67087 0.0
H1942 H 0.2559 0.1995 0.62923 0.0
H1943 H 0.28639 0.17107 0.63574 0.0
C1944 C 0.30572 0.15362 0.66728 0.0
C1945 C 0.30353 0.14285 0.69188 0.0
C1946 C 0.238 0.19362 0.63792 0.0
C1947 C 0.25998 0.16146 0.66678 0.0
C1948 C 0.21592 0.2073 0.63175 0.0
C1949 C 0.19252 0.20158 0.64385 0.0
C1950 C 0.23673 0.17395 0.65633 0.0
C1951 C 0.19179 0.18097 0.66117 0.0
C1952 C 0.28403 0.16276 0.6546 0.0
C1953 C 0.27893 0.14033 0.7026 0.0
N1954 N 0.21363 0.16816 0.66713 0.0
N1955 N 0.25819 0.14983 0.6901 0.0
H1956 H 0.80253 0.22063 0.62623 0.0
H1957 H 0.87922 0.28461 0.74167 0.0
H1958 H 0.83283 0.17788 0.69039 0.0
H1959 H 0.84752 0.32675 0.67777 0.0
H1960 H 0.86872 0.24461 0.71979 0.0
H1961 H 0.82523 0.25853 0.64132 0.0
C1962 C 0.81418 0.2191 0.64337 0.0
C1963 C 0.81536 0.1961 0.65733 0.0
C1964 C 0.86436 0.26261 0.71043 0.0
C1965 C 0.84132 0.23965 0.67484 0.0
C1966 C 0.87036 0.28551 0.7229 0.0
C1967 C 0.86385 0.30915 0.71176 0.0
C1968 C 0.85168 0.26333 0.68669 0.0
C1969 C 0.85262 0.30903 0.68728 0.0
C1970 C 0.82717 0.24081 0.65197 0.0
C1971 C 0.83111 0.19526 0.67916 0.0
N1972 N 0.84661 0.28648 0.67573 0.0
N1973 N 0.84318 0.21684 0.68746 0.0
H1974 H 0.81931 0.80906 0.65716 0.0
H1975 H 0.66671 0.81724 0.64753 0.0
H1976 H 0.77325 0.75704 0.61188 0.0
H1977 H 0.71303 0.86308 0.69878 0.0
H1978 H 0.70591 0.79994 0.62855 0.0
H1979 H 0.781 0.83393 0.66661 0.0
C1980 C 0.80121 0.80298 0.64894 0.0
C1981 C 0.7995 0.78066 0.63399 0.0
C1982 C 0.70745 0.81398 0.64378 0.0
C1983 C 0.75543 0.80907 0.64494 0.0
C1984 C 0.68507 0.82392 0.6546 0.0
C1985 C 0.68654 0.84136 0.67508 0.0
C1986 C 0.73142 0.8216 0.65345 0.0
C1987 C 0.71091 0.84941 0.6833 0.0
C1988 C 0.7793 0.81721 0.6544 0.0
C1989 C 0.77549 0.77395 0.62372 0.0
N1990 N 0.73235 0.8393 0.67261 0.0
N1991 N 0.75434 0.78794 0.62962 0.0
H1992 H 0.29668 0.14899 0.32758 0.0
H1993 H 0.34777 0.22009 0.22798 0.0
H1994 H 0.2389 0.12721 0.27226 0.0
H1995 H 0.30403 0.17103 0.17742 0.0
H1996 H 0.3308 0.19685 0.26452 0.0
H1997 H 0.32293 0.16584 0.29283 0.0
C1998 C 0.28949 0.14774 0.30812 0.0
C1999 C 0.26529 0.1371 0.30292 0.0
C2000 C 0.32539 0.19058 0.2455 0.0
C2001 C 0.2949 0.15728 0.26303 0.0
C2002 C 0.33491 0.20412 0.22451 0.0
C2003 C 0.32722 0.19763 0.19953 0.0
C2004 C 0.30807 0.17029 0.24153 0.0
C2005 C 0.31045 0.17679 0.19632 0.0
C2006 C 0.30441 0.15768 0.28825 0.0
C2007 C 0.25726 0.13556 0.27726 0.0
N2008 N 0.30123 0.16405 0.21711 0.0
N2009 N 0.27193 0.14577 0.25831 0.0
H2010 H 0.80602 0.30947 0.32118 0.0
H2011 H 0.79144 0.32294 0.16906 0.0
H2012 H 0.85353 0.26904 0.26664 0.0
H2013 H 0.74333 0.36187 0.22416 0.0
H2014 H 0.81741 0.30647 0.20443 0.0
H2015 H 0.78601 0.33243 0.28574 0.0
C2016 C 0.81245 0.30557 0.30181 0.0
C2017 C 0.83135 0.28707 0.29693 0.0
C2018 C 0.80128 0.31878 0.20873 0.0
C2019 C 0.80832 0.31323 0.25619 0.0
C2020 C 0.78644 0.3282 0.18854 0.0
C2021 C 0.76498 0.34361 0.19361 0.0
C2022 C 0.7946 0.32478 0.23416 0.0
C2023 C 0.75952 0.34986 0.21927 0.0
C2024 C 0.80097 0.31869 0.28154 0.0
C2025 C 0.83893 0.28298 0.27137 0.0
N2026 N 0.77412 0.3403 0.23854 0.0
N2027 N 0.82723 0.29579 0.25195 0.0
H2028 H 0.63429 0.75735 0.22672 0.0
H2029 H 0.68296 0.82861 0.32808 0.0
H2030 H 0.68128 0.80536 0.17801 0.0
H2031 H 0.74199 0.8511 0.27428 0.0
H2032 H 0.6586 0.81006 0.29291 0.0
H2033 H 0.65064 0.77992 0.26399 0.0
C2034 C 0.64774 0.77295 0.22381 0.0
C2035 C 0.65644 0.77939 0.19913 0.0
C2036 C 0.677 0.8187 0.28874 0.0
C2037 C 0.67493 0.80594 0.24191 0.0
C2038 C 0.69084 0.82962 0.30886 0.0
C2039 C 0.71477 0.84114 0.30423 0.0
C2040 C 0.68731 0.81905 0.26382 0.0
C2041 C 0.72377 0.8422 0.27885 0.0
C2042 C 0.65694 0.78608 0.2452 0.0
C2043 C 0.67403 0.79966 0.19663 0.0
N2044 N 0.7101 0.83114 0.25966 0.0
N2045 N 0.68282 0.81205 0.21777 0.0
H2046 H 0.19908 0.67334 0.1628 0.0
H2047 H 0.17364 0.67352 0.31399 0.0
H2048 H 0.23777 0.6243 0.21716 0.0
H2049 H 0.1389 0.72766 0.26182 0.0
H2050 H 0.1918 0.65086 0.27748 0.0
H2051 H 0.17174 0.68912 0.19758 0.0
C2052 C 0.20165 0.66568 0.18194 0.0
C2053 C 0.22103 0.64775 0.18712 0.0
C2054 C 0.18 0.66756 0.27397 0.0
C2055 C 0.18984 0.66569 0.22691 0.0
C2056 C 0.16957 0.68053 0.29485 0.0
C2057 C 0.15497 0.70278 0.29104 0.0
C2058 C 0.176 0.67693 0.24903 0.0
C2059 C 0.15019 0.71072 0.26572 0.0
C2060 C 0.18607 0.67472 0.20179 0.0
C2061 C 0.22337 0.63841 0.21228 0.0
N2062 N 0.16094 0.69797 0.24568 0.0
N2063 N 0.20812 0.64762 0.23122 0.0
H2064 H 0.37967 0.78606 0.77912 0.0
H2065 H 0.30907 0.81927 0.67392 0.0
H2066 H 0.31025 0.79919 0.82214 0.0
H2067 H 0.25605 0.85631 0.72569 0.0
H2068 H 0.33507 0.80681 0.71011 0.0
H2069 H 0.36152 0.80943 0.7431 0.0
C2070 C 0.36055 0.79399 0.78093 0.0
C2071 C 0.34618 0.79025 0.80335 0.0
C2072 C 0.31825 0.81833 0.71374 0.0
C2073 C 0.32453 0.8157 0.76161 0.0
C2074 C 0.3031 0.82522 0.69292 0.0
C2075 C 0.28024 0.83884 0.69668 0.0
C2076 C 0.31066 0.82517 0.73871 0.0
C2077 C 0.27352 0.84579 0.72185 0.0
C2078 C 0.34999 0.80702 0.7602 0.0
C2079 C 0.32182 0.80144 0.80503 0.0
N2080 N 0.28853 0.83864 0.74194 0.0
N2081 N 0.31153 0.8133 0.7842 0.0
H2082 H 0.24805 0.36823 0.76877 0.0
H2083 H 0.13332 0.27961 0.72111 0.0
H2084 H 0.18939 0.33682 0.81837 0.0
H2085 H 0.18721 0.31558 0.6693 0.0
H2086 H 0.15126 0.30438 0.75629 0.0
H2087 H 0.22364 0.35348 0.73156 0.0
C2088 C 0.22987 0.35861 0.77187 0.0
C2089 C 0.22098 0.3534 0.79679 0.0
C2090 C 0.15907 0.30706 0.73722 0.0
C2091 C 0.19311 0.33634 0.7543 0.0
C2092 C 0.14888 0.29282 0.71709 0.0
C2093 C 0.15904 0.29522 0.69226 0.0
C2094 C 0.17981 0.32367 0.73264 0.0
C2095 C 0.17893 0.31296 0.68818 0.0
C2096 C 0.21597 0.35015 0.75059 0.0
C2097 C 0.19723 0.34097 0.79957 0.0
N2098 N 0.18891 0.32629 0.70826 0.0
N2099 N 0.18431 0.33262 0.77861 0.0
H2100 H 0.69611 0.18476 0.67128 0.0
H2101 H 0.62054 0.22442 0.77185 0.0
H2102 H 0.73642 0.13766 0.72618 0.0
H2103 H 0.68149 0.19659 0.82036 0.0
H2104 H 0.63932 0.20183 0.73574 0.0
H2105 H 0.6689 0.20044 0.70544 0.0
C2106 C 0.69897 0.17735 0.69048 0.0
C2107 C 0.71868 0.15986 0.69579 0.0
C2108 C 0.64892 0.20087 0.75409 0.0
C2109 C 0.68682 0.17729 0.73533 0.0
C2110 C 0.63796 0.21354 0.77487 0.0
C2111 C 0.6498 0.21288 0.79903 0.0
C2112 C 0.67226 0.18787 0.75732 0.0
C2113 C 0.67191 0.1979 0.80199 0.0
C2114 C 0.68312 0.18613 0.7101 0.0
C2115 C 0.7215 0.15115 0.72115 0.0
N2116 N 0.68265 0.18627 0.78126 0.0
N2117 N 0.70589 0.16013 0.74 0.0
H2118 H 0.80923 0.6612 0.65736 0.0
H2119 H 0.73203 0.62201 0.75913 0.0
H2120 H 0.84577 0.70899 0.71442 0.0
H2121 H 0.79058 0.65461 0.80794 0.0
H2122 H 0.75751 0.63347 0.72176 0.0
H2123 H 0.78737 0.63794 0.69156 0.0
C2124 C 0.81268 0.66679 0.67708 0.0
C2125 C 0.82902 0.68742 0.68297 0.0
C2126 C 0.76522 0.63754 0.74057 0.0
C2127 C 0.80348 0.66131 0.72227 0.0
C2128 C 0.7505 0.63112 0.76202 0.0
C2129 C 0.75901 0.6376 0.78674 0.0
C2130 C 0.78868 0.65046 0.74392 0.0
C2131 C 0.78307 0.64945 0.78928 0.0
C2132 C 0.79994 0.65363 0.69665 0.0
C2133 C 0.83306 0.69351 0.70888 0.0
N2134 N 0.79687 0.65573 0.76813 0.0
N2135 N 0.82023 0.68064 0.7275 0.0
H2136 H 0.16119 0.33397 0.17966 0.0
H2137 H 0.26315 0.26493 0.12997 0.0
H2138 H 0.21769 0.3644 0.23214 0.0
H2139 H 0.31196 0.31707 0.17206 0.0
H2140 H 0.22599 0.28898 0.14397 0.0
H2141 H 0.19566 0.31687 0.15327 0.0
C2142 C 0.18085 0.33709 0.18563 0.0
C2143 C 0.18648 0.35021 0.20848 0.0
C2144 C 0.24474 0.29575 0.14964 0.0
C2145 C 0.22621 0.32991 0.17872 0.0
C2146 C 0.26612 0.2818 0.14172 0.0
C2147 C 0.29077 0.28874 0.1501 0.0
C2148 C 0.24803 0.31689 0.16605 0.0
C2149 C 0.29335 0.3108 0.1653 0.0
C2150 C 0.20062 0.32704 0.17063 0.0
C2151 C 0.21234 0.35406 0.21494 0.0
N2152 N 0.27222 0.32385 0.17305 0.0
N2153 N 0.23117 0.34374 0.20028 0.0
H2154 H 0.28519 0.71344 0.87529 0.0
H2155 H 0.16992 0.67186 0.82293 0.0
H2156 H 0.32055 0.67643 0.81016 0.0
H2157 H 0.21629 0.62783 0.7703 0.0
H2158 H 0.20859 0.68678 0.84393 0.0
H2159 H 0.24451 0.69408 0.86374 0.0
C2160 C 0.28439 0.70118 0.85853 0.0
C2161 C 0.30629 0.69695 0.84343 0.0
C2162 C 0.21056 0.6735 0.82818 0.0
C2163 C 0.25925 0.67523 0.82938 0.0
C2164 C 0.18828 0.66507 0.81599 0.0
C2165 C 0.1898 0.6487 0.79468 0.0
C2166 C 0.23463 0.66536 0.81908 0.0
C2167 C 0.21413 0.64061 0.78653 0.0
C2168 C 0.26094 0.69026 0.85172 0.0
C2169 C 0.30416 0.68051 0.82223 0.0
N2170 N 0.23553 0.64914 0.79865 0.0
N2171 N 0.28101 0.67051 0.81572 0.0
H2172 H 0.28649 0.27519 0.86177 0.0
H2173 H 0.37264 0.21596 0.75076 0.0
H2174 H 0.33273 0.32121 0.81049 0.0
H2175 H 0.33348 0.17062 0.80818 0.0
H2176 H 0.36114 0.25469 0.7743 0.0
H2177 H 0.30648 0.23676 0.84455 0.0
C2178 C 0.30101 0.27726 0.84703 0.0
C2179 C 0.30766 0.30148 0.83731 0.0
C2180 C 0.35529 0.23624 0.78187 0.0
C2181 C 0.33053 0.25742 0.81735 0.0
C2182 C 0.36181 0.21409 0.76841 0.0
C2183 C 0.35374 0.18997 0.77731 0.0
C2184 C 0.34046 0.23428 0.80429 0.0
C2185 C 0.33994 0.18878 0.80043 0.0
C2186 C 0.31247 0.25526 0.83722 0.0
C2187 C 0.32684 0.30294 0.81842 0.0
N2188 N 0.33353 0.21064 0.81296 0.0
N2189 N 0.33737 0.28116 0.80882 0.0
H2190 H 0.71282 0.28305 0.87019 0.0
H2191 H 0.82421 0.34281 0.82831 0.0
H2192 H 0.67357 0.32877 0.81337 0.0
H2193 H 0.779 0.36316 0.76192 0.0
H2194 H 0.78517 0.32944 0.8502 0.0
H2195 H 0.75298 0.30286 0.85782 0.0
C2196 C 0.71255 0.29767 0.85543 0.0
C2197 C 0.68973 0.30404 0.84264 0.0
C2198 C 0.78372 0.33647 0.83074 0.0
C2199 C 0.73596 0.3274 0.82857 0.0
C2200 C 0.80608 0.34434 0.81828 0.0
C2201 C 0.80499 0.35374 0.79306 0.0
C2202 C 0.76011 0.33771 0.81776 0.0
C2203 C 0.78089 0.35573 0.78123 0.0
C2204 C 0.73564 0.30922 0.84846 0.0
C2205 C 0.69067 0.32313 0.82368 0.0
N2206 N 0.75948 0.34763 0.79362 0.0
N2207 N 0.71346 0.33388 0.81702 0.0
H2208 H 0.64095 0.66766 0.80486 0.0
H2209 H 0.60969 0.77504 0.73308 0.0
H2210 H 0.69589 0.71786 0.84143 0.0
H2211 H 0.65044 0.8187 0.79057 0.0
H2212 H 0.61815 0.7362 0.75709 0.0
H2213 H 0.62058 0.70492 0.78557 0.0
C2214 C 0.64871 0.68652 0.80888 0.0
C2215 C 0.6705 0.68952 0.82441 0.0
C2216 C 0.62471 0.75421 0.76496 0.0
C2217 C 0.64779 0.73238 0.80162 0.0
C2218 C 0.62005 0.77653 0.75103 0.0
C2219 C 0.62958 0.80023 0.75965 0.0
C2220 C 0.63898 0.75555 0.7878 0.0
C2221 C 0.64285 0.80089 0.78305 0.0
C2222 C 0.63722 0.70787 0.79757 0.0
C2223 C 0.6794 0.71448 0.82927 0.0
N2224 N 0.64739 0.77884 0.79613 0.0
N2225 N 0.66816 0.73486 0.81773 0.0
H2226 H 0.66758 0.66376 0.17799 0.0
H2227 H 0.82007 0.65206 0.18185 0.0
H2228 H 0.71889 0.70558 0.12793 0.0
H2229 H 0.76947 0.61999 0.23929 0.0
H2230 H 0.78273 0.66451 0.15667 0.0
H2231 H 0.7042 0.64013 0.19486 0.0
C2232 C 0.68645 0.66772 0.17021 0.0
C2233 C 0.69018 0.6871 0.15185 0.0
C2234 C 0.77982 0.65454 0.17467 0.0
C2235 C 0.73218 0.66016 0.17123 0.0
C2236 C 0.80114 0.6474 0.18909 0.0
C2237 C 0.79793 0.6353 0.21297 0.0
C2238 C 0.75509 0.64955 0.18414 0.0
C2239 C 0.7729 0.62959 0.22118 0.0
C2240 C 0.70737 0.65425 0.17994 0.0
C2241 C 0.71509 0.69112 0.14235 0.0
N2242 N 0.75244 0.63698 0.2069 0.0
N2243 N 0.73517 0.678 0.15239 0.0
H2244 H 0.33752 0.82558 0.16441 0.0
H2245 H 0.33999 0.67302 0.17579 0.0
H2246 H 0.37969 0.78403 0.22235 0.0
H2247 H 0.29351 0.71452 0.12121 0.0
H2248 H 0.36029 0.71327 0.18832 0.0
H2249 H 0.327 0.78494 0.14367 0.0
C2250 C 0.34486 0.80798 0.17261 0.0
C2251 C 0.35916 0.80824 0.19543 0.0
C2252 C 0.34583 0.71353 0.17341 0.0
C2253 C 0.34705 0.76164 0.17182 0.0
C2254 C 0.33422 0.69052 0.16621 0.0
C2255 C 0.3147 0.69038 0.14767 0.0
C2256 C 0.33784 0.73659 0.16206 0.0
C2257 C 0.30824 0.71369 0.13581 0.0
C2258 C 0.33879 0.78476 0.16077 0.0
C2259 C 0.36829 0.78479 0.205 0.0
N2260 N 0.31959 0.73587 0.14341 0.0
N2261 N 0.36185 0.76245 0.19331 0.0
H2262 H 0.69566 0.28018 0.12076 0.0
H2263 H 0.60879 0.20974 0.22449 0.0
H2264 H 0.64841 0.31964 0.17624 0.0
H2265 H 0.65573 0.17 0.16896 0.0
H2266 H 0.61762 0.24991 0.2024 0.0
H2267 H 0.6757 0.23981 0.13331 0.0
C2268 C 0.68085 0.28044 0.13536 0.0
C2269 C 0.67408 0.30332 0.14783 0.0
C2270 C 0.62577 0.23238 0.19486 0.0
C2271 C 0.65128 0.25705 0.16238 0.0
C2272 C 0.62078 0.20939 0.2075 0.0
C2273 C 0.63194 0.18648 0.19886 0.0
C2274 C 0.64221 0.23256 0.17353 0.0
C2275 C 0.64697 0.18722 0.17651 0.0
C2276 C 0.66946 0.25734 0.14251 0.0
C2277 C 0.65452 0.30246 0.16634 0.0
N2278 N 0.65195 0.20997 0.16481 0.0
N2279 N 0.64407 0.27963 0.1733 0.0
loop_
_geom_bond_atom_site_label_1
_geom_bond_atom_site_label_2
_geom_bond_distance
_geom_bond_site_symmetry_2
_ccdc_geom_bond_type
Co0 O2 2.143 . S
Co0 O8 2.074 . S
Co0 O11 2.093 . S
Co0 O24 2.097 . S
Co0 N41 2.151 . S
Co0 N49 2.214 . S
Co1 O2 2.160 . S
Co1 O7 2.058 . S
Co1 O17 2.057 . S
Co1 O32 2.037 . S
Co1 N36 2.145 . S
Co1 N57 2.257 . S
O2 Co0 2.143 . S
O2 Co1 2.160 . S
C3 O4 1.278 . S
C3 O11 1.224 . S
O4 C3 1.278 . S
C5 O6 1.245 . S
C5 O17 1.232 . S
O6 C5 1.245 . S
O7 Co1 2.058 . S
O7 C33 1.269 . S
O8 Co0 2.074 . S
O8 C33 1.257 . S
H9 C34 0.930 . S
H10 C40 0.930 . S
O11 Co0 2.093 . S
O11 C3 1.224 . S
H12 C44 0.929 . S
H13 C46 0.930 . S
H14 C47 0.930 . S
H15 C45 0.929 . S
H16 C48 0.928 . S
O17 Co1 2.057 . S
O17 C5 1.232 . S
H18 C37 0.929 . S
H19 C38 0.929 . S
H20 C50 0.931 . S
H21 C42 0.929 . S
H22 C51 0.930 . S
H23 C43 0.931 . S
O24 Co0 2.097 . S
O24 C52 1.214 . S
H25 C53 0.929 . S
H26 C54 0.929 . S
H27 C55 0.930 . S
H28 C56 0.929 . S
H29 C58 0.930 . S
H30 C35 0.930 . S
H31 C39 0.930 . S
O32 Co1 2.037 . S
O32 C52 1.234 . S
C33 O7 1.269 . S
C33 O8 1.257 . S
C34 H9 0.930 . S
C34 C37 1.388 . S
C34 C39 1.418 . S
C35 H30 0.930 . S
C35 C38 1.404 . S
C35 C39 1.353 . S
N36 Co1 2.145 . S
N36 C37 1.397 . S
N36 C38 1.334 . S
C37 H18 0.929 . S
C37 C34 1.388 . S
C37 N36 1.397 . S
C38 H19 0.929 . S
C38 C35 1.404 . S
C38 N36 1.334 . S
C39 H31 0.930 . S
C39 C34 1.418 . S
C39 C35 1.353 . S
C40 H10 0.930 . S
C40 N41 1.330 . S
C40 C42 1.446 . S
N41 Co0 2.151 . S
N41 C40 1.330 . S
N41 C45 1.418 . S
C42 H21 0.929 . S
C42 C40 1.446 . S
C42 C43 1.332 . S
C43 H23 0.931 . S
C43 C42 1.332 . S
C43 C44 1.267 . S
C44 H12 0.929 . S
C44 C43 1.267 . S
C44 C45 1.251 . S
C45 H15 0.929 . S
C45 N41 1.418 . S
C45 C44 1.251 . S
C46 H13 0.930 . S
C46 C48 1.406 . S
C46 C51 1.261 . S
C47 H14 0.930 . S
C47 N49 1.325 . S
C47 C50 1.357 . S
C48 H16 0.928 . S
C48 C46 1.406 . S
C48 N49 1.261 . S
N49 Co0 2.214 . S
N49 C47 1.325 . S
N49 C48 1.261 . S
C50 H20 0.931 . S
C50 C47 1.357 . S
C50 C51 1.312 . S
C51 H22 0.930 . S
C51 C46 1.261 . S
C51 C50 1.312 . S
C52 O24 1.214 . S
C52 O32 1.234 . S
C53 H25 0.929 . S
C53 C56 1.391 . S
C53 C58 1.391 . S
C54 H26 0.929 . S
C54 C55 1.390 . S
C54 N57 1.391 . S
C55 H27 0.930 . S
C55 C54 1.390 . S
C55 C56 1.392 . S
C56 H28 0.929 . S
C56 C53 1.391 . S
C56 C55 1.392 . S
N57 Co1 2.257 . S
N57 C54 1.391 . S
N57 C58 1.388 . S
C58 H29 0.930 . S
C58 C53 1.391 . S
C58 N57 1.388 . S
Co59 O61 2.143 . S
Co59 O67 2.074 . S
Co59 O70 2.093 . S
Co59 O83 2.097 . S
Co59 N100 2.151 . S
Co59 N108 2.214 . S
Co60 O61 2.160 . S
Co60 O66 2.058 . S
Co60 O76 2.057 . S
Co60 O91 2.037 . S
Co60 N95 2.145 . S
Co60 N116 2.257 . S
O61 Co59 2.143 . S
O61 Co60 2.160 . S
C62 O63 1.278 . S
C62 O70 1.224 . S
O63 C62 1.278 . S
C64 O65 1.245 . S
C64 O76 1.232 . S
O65 C64 1.245 . S
O66 Co60 2.058 . S
O66 C92 1.269 . S
O67 Co59 2.074 . S
O67 C92 1.257 . S
H68 C93 0.930 . S
H69 C99 0.930 . S
O70 Co59 2.093 . S
O70 C62 1.224 . S
H71 C103 0.929 . S
H72 C105 0.930 . S
H73 C106 0.930 . S
H74 C104 0.929 . S
H75 C107 0.928 . S
O76 Co60 2.057 . S
O76 C64 1.232 . S
H77 C96 0.929 . S
H78 C97 0.929 . S
H79 C109 0.931 . S
H80 C101 0.929 . S
H81 C110 0.930 . S
H82 C102 0.931 . S
O83 Co59 2.097 . S
O83 C111 1.214 . S
H84 C112 0.929 . S
H85 C113 0.929 . S
H86 C114 0.930 . S
H87 C115 0.929 . S
H88 C117 0.930 . S
H89 C94 0.930 . S
H90 C98 0.930 . S
O91 Co60 2.037 . S
O91 C111 1.234 . S
C92 O66 1.269 . S
C92 O67 1.257 . S
C93 H68 0.930 . S
C93 C96 1.388 . S
C93 C98 1.418 . S
C94 H89 0.930 . S
C94 C97 1.404 . S
C94 C98 1.353 . S
N95 Co60 2.145 . S
N95 C96 1.397 . S
N95 C97 1.334 . S
C96 H77 0.929 . S
C96 C93 1.388 . S
C96 N95 1.397 . S
C97 H78 0.929 . S
C97 C94 1.404 . S
C97 N95 1.334 . S
C98 H90 0.930 . S
C98 C93 1.418 . S
C98 C94 1.353 . S
C99 H69 0.930 . S
C99 N100 1.330 . S
C99 C101 1.446 . S
N100 Co59 2.151 . S
N100 C99 1.330 . S
N100 C104 1.418 . S
C101 H80 0.929 . S
C101 C99 1.446 . S
C101 C102 1.332 . S
C102 H82 0.931 . S
C102 C101 1.332 . S
C102 C103 1.267 . S
C103 H71 0.929 . S
C103 C102 1.267 . S
C103 C104 1.251 . S
C104 H74 0.929 . S
C104 N100 1.418 . S
C104 C103 1.251 . S
C105 H72 0.930 . S
C105 C107 1.406 . S
C105 C110 1.261 . S
C106 H73 0.930 . S
C106 N108 1.325 . S
C106 C109 1.357 . S
C107 H75 0.928 . S
C107 C105 1.406 . S
C107 N108 1.261 . S
N108 Co59 2.214 . S
N108 C106 1.325 . S
N108 C107 1.261 . S
C109 H79 0.931 . S
C109 C106 1.357 . S
C109 C110 1.312 . S
C110 H81 0.930 . S
C110 C105 1.261 . S
C110 C109 1.312 . S
C111 O83 1.214 . S
C111 O91 1.234 . S
C112 H84 0.929 . S
C112 C115 1.391 . S
C112 C117 1.391 . S
C113 H85 0.929 . S
C113 C114 1.390 . S
C113 N116 1.391 . S
C114 H86 0.930 . S
C114 C113 1.390 . S
C114 C115 1.392 . S
C115 H87 0.929 . S
C115 C112 1.391 . S
C115 C114 1.392 . S
N116 Co60 2.257 . S
N116 C113 1.391 . S
N116 C117 1.388 . S
C117 H88 0.930 . S
C117 C112 1.391 . S
C117 N116 1.388 . S
Co118 O120 2.143 . S
Co118 O126 2.074 . S
Co118 O129 2.093 . S
Co118 O142 2.097 . S
Co118 N159 2.151 . S
Co118 N167 2.214 . S
Co119 O120 2.160 . S
Co119 O125 2.058 . S
Co119 O135 2.057 . S
Co119 O150 2.037 . S
Co119 N154 2.145 . S
Co119 N175 2.257 . S
O120 Co118 2.143 . S
O120 Co119 2.160 . S
C121 O122 1.278 . S
C121 O129 1.224 . S
O122 C121 1.278 . S
C123 O124 1.245 . S
C123 O135 1.232 . S
O124 C123 1.245 . S
O125 Co119 2.058 . S
O125 C151 1.269 . S
O126 Co118 2.074 . S
O126 C151 1.257 . S
H127 C152 0.930 . S
H128 C158 0.930 . S
O129 Co118 2.093 . S
O129 C121 1.224 . S
H130 C162 0.929 . S
H131 C164 0.930 . S
H132 C165 0.930 . S
H133 C163 0.929 . S
H134 C166 0.928 . S
O135 Co119 2.057 . S
O135 C123 1.232 . S
H136 C155 0.929 . S
H137 C156 0.929 . S
H138 C168 0.931 . S
H139 C160 0.929 . S
H140 C169 0.930 . S
H141 C161 0.931 . S
O142 Co118 2.097 . S
O142 C170 1.214 . S
H143 C171 0.929 . S
H144 C172 0.929 . S
H145 C173 0.930 . S
H146 C174 0.929 . S
H147 C176 0.930 . S
H148 C153 0.930 . S
H149 C157 0.930 . S
O150 Co119 2.037 . S
O150 C170 1.234 . S
C151 O125 1.269 . S
C151 O126 1.257 . S
C152 H127 0.930 . S
C152 C155 1.388 . S
C152 C157 1.418 . S
C153 H148 0.930 . S
C153 C156 1.404 . S
C153 C157 1.353 . S
N154 Co119 2.145 . S
N154 C155 1.397 . S
N154 C156 1.334 . S
C155 H136 0.929 . S
C155 C152 1.388 . S
C155 N154 1.397 . S
C156 H137 0.929 . S
C156 C153 1.404 . S
C156 N154 1.334 . S
C157 H149 0.930 . S
C157 C152 1.418 . S
C157 C153 1.353 . S
C158 H128 0.930 . S
C158 N159 1.330 . S
C158 C160 1.446 . S
N159 Co118 2.151 . S
N159 C158 1.330 . S
N159 C163 1.418 . S
C160 H139 0.929 . S
C160 C158 1.446 . S
C160 C161 1.332 . S
C161 H141 0.931 . S
C161 C160 1.332 . S
C161 C162 1.267 . S
C162 H130 0.929 . S
C162 C161 1.267 . S
C162 C163 1.251 . S
C163 H133 0.929 . S
C163 N159 1.418 . S
C163 C162 1.251 . S
C164 H131 0.930 . S
C164 C166 1.406 . S
C164 C169 1.261 . S
C165 H132 0.930 . S
C165 N167 1.325 . S
C165 C168 1.357 . S
C166 H134 0.928 . S
C166 C164 1.406 . S
C166 N167 1.261 . S
N167 Co118 2.214 . S
N167 C165 1.325 . S
N167 C166 1.261 . S
C168 H138 0.931 . S
C168 C165 1.357 . S
C168 C169 1.312 . S
C169 H140 0.930 . S
C169 C164 1.261 . S
C169 C168 1.312 . S
C170 O142 1.214 . S
C170 O150 1.234 . S
C171 H143 0.929 . S
C171 C174 1.391 . S
C171 C176 1.391 . S
C172 H144 0.929 . S
C172 C173 1.390 . S
C172 N175 1.391 . S
C173 H145 0.930 . S
C173 C172 1.390 . S
C173 C174 1.392 . S
C174 H146 0.929 . S
C174 C171 1.391 . S
C174 C173 1.392 . S
N175 Co119 2.257 . S
N175 C172 1.391 . S
N175 C176 1.388 . S
C176 H147 0.930 . S
C176 C171 1.391 . S
C176 N175 1.388 . S
Co177 O179 2.143 . S
Co177 O185 2.074 . S
Co177 O188 2.093 . S
Co177 O201 2.097 . S
Co177 N218 2.151 . S
Co177 N226 2.214 . S
Co178 O179 2.160 . S
Co178 O184 2.058 . S
Co178 O194 2.057 . S
Co178 O209 2.037 . S
Co178 N213 2.145 . S
Co178 N234 2.257 . S
O179 Co177 2.143 . S
O179 Co178 2.160 . S
C180 O181 1.278 . S
C180 O188 1.224 . S
O181 C180 1.278 . S
C182 O183 1.245 . S
C182 O194 1.232 . S
O183 C182 1.245 . S
O184 Co178 2.058 . S
O184 C210 1.269 . S
O185 Co177 2.074 . S
O185 C210 1.257 . S
H186 C211 0.930 . S
H187 C217 0.930 . S
O188 Co177 2.093 . S
O188 C180 1.224 . S
H189 C221 0.929 . S
H190 C223 0.930 . S
H191 C224 0.930 . S
H192 C222 0.929 . S
H193 C225 0.928 . S
O194 Co178 2.057 . S
O194 C182 1.232 . S
H195 C214 0.929 . S
H196 C215 0.929 . S
H197 C227 0.931 . S
H198 C219 0.929 . S
H199 C228 0.930 . S
H200 C220 0.931 . S
O201 Co177 2.097 . S
O201 C229 1.214 . S
H202 C230 0.929 . S
H203 C231 0.929 . S
H204 C232 0.930 . S
H205 C233 0.929 . S
H206 C235 0.930 . S
H207 C212 0.930 . S
H208 C216 0.930 . S
O209 Co178 2.037 . S
O209 C229 1.234 . S
C210 O184 1.269 . S
C210 O185 1.257 . S
C211 H186 0.930 . S
C211 C214 1.388 . S
C211 C216 1.418 . S
C212 H207 0.930 . S
C212 C215 1.404 . S
C212 C216 1.353 . S
N213 Co178 2.145 . S
N213 C214 1.397 . S
N213 C215 1.334 . S
C214 H195 0.929 . S
C214 C211 1.388 . S
C214 N213 1.397 . S
C215 H196 0.929 . S
C215 C212 1.404 . S
C215 N213 1.334 . S
C216 H208 0.930 . S
C216 C211 1.418 . S
C216 C212 1.353 . S
C217 H187 0.930 . S
C217 N218 1.330 . S
C217 C219 1.446 . S
N218 Co177 2.151 . S
N218 C217 1.330 . S
N218 C222 1.418 . S
C219 H198 0.929 . S
C219 C217 1.446 . S
C219 C220 1.332 . S
C220 H200 0.931 . S
C220 C219 1.332 . S
C220 C221 1.267 . S
C221 H189 0.929 . S
C221 C220 1.267 . S
C221 C222 1.251 . S
C222 H192 0.929 . S
C222 N218 1.418 . S
C222 C221 1.251 . S
C223 H190 0.930 . S
C223 C225 1.406 . S
C223 C228 1.261 . S
C224 H191 0.930 . S
C224 N226 1.325 . S
C224 C227 1.357 . S
C225 H193 0.928 . S
C225 C223 1.406 . S
C225 N226 1.261 . S
N226 Co177 2.214 . S
N226 C224 1.325 . S
N226 C225 1.261 . S
C227 H197 0.931 . S
C227 C224 1.357 . S
C227 C228 1.312 . S
C228 H199 0.930 . S
C228 C223 1.261 . S
C228 C227 1.312 . S
C229 O201 1.214 . S
C229 O209 1.234 . S
C230 H202 0.929 . S
C230 C233 1.391 . S
C230 C235 1.391 . S
C231 H203 0.929 . S
C231 C232 1.390 . S
C231 N234 1.391 . S
C232 H204 0.930 . S
C232 C231 1.390 . S
C232 C233 1.392 . S
C233 H205 0.929 . S
C233 C230 1.391 . S
C233 C232 1.392 . S
N234 Co178 2.257 . S
N234 C231 1.391 . S
N234 C235 1.388 . S
C235 H206 0.930 . S
C235 C230 1.391 . S
C235 N234 1.388 . S
Co236 O238 2.143 . S
Co236 O244 2.074 . S
Co236 O247 2.093 . S
Co236 O260 2.097 . S
Co236 N277 2.151 . S
Co236 N285 2.214 . S
Co237 O238 2.160 . S
Co237 O243 2.058 . S
Co237 O253 2.057 . S
Co237 O268 2.037 . S
Co237 N272 2.145 . S
Co237 N293 2.257 . S
O238 Co236 2.143 . S
O238 Co237 2.160 . S
C239 O240 1.278 . S
C239 O247 1.224 . S
O240 C239 1.278 . S
C241 O242 1.245 . S
C241 O253 1.232 . S
O242 C241 1.245 . S
O243 Co237 2.058 . S
O243 C269 1.269 . S
O244 Co236 2.074 . S
O244 C269 1.257 . S
H245 C270 0.930 . S
H246 C276 0.930 . S
O247 Co236 2.093 . S
O247 C239 1.224 . S
H248 C280 0.929 . S
H249 C282 0.930 . S
H250 C283 0.930 . S
H251 C281 0.929 . S
H252 C284 0.928 . S
O253 Co237 2.057 . S
O253 C241 1.232 . S
H254 C273 0.929 . S
H255 C274 0.929 . S
H256 C286 0.931 . S
H257 C278 0.929 . S
H258 C287 0.930 . S
H259 C279 0.931 . S
O260 Co236 2.097 . S
O260 C288 1.214 . S
H261 C289 0.929 . S
H262 C290 0.929 . S
H263 C291 0.930 . S
H264 C292 0.929 . S
H265 C294 0.930 . S
H266 C271 0.930 . S
H267 C275 0.930 . S
O268 Co237 2.037 . S
O268 C288 1.234 . S
C269 O243 1.269 . S
C269 O244 1.257 . S
C270 H245 0.930 . S
C270 C273 1.388 . S
C270 C275 1.418 . S
C271 H266 0.930 . S
C271 C274 1.404 . S
C271 C275 1.353 . S
N272 Co237 2.145 . S
N272 C273 1.397 . S
N272 C274 1.334 . S
C273 H254 0.929 . S
C273 C270 1.388 . S
C273 N272 1.397 . S
C274 H255 0.929 . S
C274 C271 1.404 . S
C274 N272 1.334 . S
C275 H267 0.930 . S
C275 C270 1.418 . S
C275 C271 1.353 . S
C276 H246 0.930 . S
C276 N277 1.330 . S
C276 C278 1.446 . S
N277 Co236 2.151 . S
N277 C276 1.330 . S
N277 C281 1.418 . S
C278 H257 0.929 . S
C278 C276 1.446 . S
C278 C279 1.332 . S
C279 H259 0.931 . S
C279 C278 1.332 . S
C279 C280 1.267 . S
C280 H248 0.929 . S
C280 C279 1.267 . S
C280 C281 1.251 . S
C281 H251 0.929 . S
C281 N277 1.418 . S
C281 C280 1.251 . S
C282 H249 0.930 . S
C282 C284 1.406 . S
C282 C287 1.261 . S
C283 H250 0.930 . S
C283 N285 1.325 . S
C283 C286 1.357 . S
C284 H252 0.928 . S
C284 C282 1.406 . S
C284 N285 1.261 . S
N285 Co236 2.214 . S
N285 C283 1.325 . S
N285 C284 1.261 . S
C286 H256 0.931 . S
C286 C283 1.357 . S
C286 C287 1.312 . S
C287 H258 0.930 . S
C287 C282 1.261 . S
C287 C286 1.312 . S
C288 O260 1.214 . S
C288 O268 1.234 . S
C289 H261 0.929 . S
C289 C292 1.391 . S
C289 C294 1.391 . S
C290 H262 0.929 . S
C290 C291 1.390 . S
C290 N293 1.391 . S
C291 H263 0.930 . S
C291 C290 1.390 . S
C291 C292 1.392 . S
C292 H264 0.929 . S
C292 C289 1.391 . S
C292 C291 1.392 . S
N293 Co237 2.257 . S
N293 C290 1.391 . S
N293 C294 1.388 . S
C294 H265 0.930 . S
C294 C289 1.391 . S
C294 N293 1.388 . S
Co295 O297 2.143 . S
Co295 O303 2.074 . S
Co295 O306 2.093 . S
Co295 O319 2.097 . S
Co295 N336 2.151 . S
Co295 N344 2.214 . S
Co296 O297 2.160 . S
Co296 O302 2.058 . S
Co296 O312 2.057 . S
Co296 O327 2.037 . S
Co296 N331 2.145 . S
Co296 N352 2.257 . S
O297 Co295 2.143 . S
O297 Co296 2.160 . S
C298 O299 1.278 . S
C298 O306 1.224 . S
O299 C298 1.278 . S
C300 O301 1.245 . S
C300 O312 1.232 . S
O301 C300 1.245 . S
O302 Co296 2.058 . S
O302 C328 1.269 . S
O303 Co295 2.074 . S
O303 C328 1.257 . S
H304 C329 0.930 . S
H305 C335 0.930 . S
O306 Co295 2.093 . S
O306 C298 1.224 . S
H307 C339 0.929 . S
H308 C341 0.930 . S
H309 C342 0.930 . S
H310 C340 0.929 . S
H311 C343 0.928 . S
O312 Co296 2.057 . S
O312 C300 1.232 . S
H313 C332 0.929 . S
H314 C333 0.929 . S
H315 C345 0.931 . S
H316 C337 0.929 . S
H317 C346 0.930 . S
H318 C338 0.931 . S
O319 Co295 2.097 . S
O319 C347 1.214 . S
H320 C348 0.929 . S
H321 C349 0.929 . S
H322 C350 0.930 . S
H323 C351 0.929 . S
H324 C353 0.930 . S
H325 C330 0.930 . S
H326 C334 0.930 . S
O327 Co296 2.037 . S
O327 C347 1.234 . S
C328 O302 1.269 . S
C328 O303 1.257 . S
C329 H304 0.930 . S
C329 C332 1.388 . S
C329 C334 1.418 . S
C330 H325 0.930 . S
C330 C333 1.404 . S
C330 C334 1.353 . S
N331 Co296 2.145 . S
N331 C332 1.397 . S
N331 C333 1.334 . S
C332 H313 0.929 . S
C332 C329 1.388 . S
C332 N331 1.397 . S
C333 H314 0.929 . S
C333 C330 1.404 . S
C333 N331 1.334 . S
C334 H326 0.930 . S
C334 C329 1.418 . S
C334 C330 1.353 . S
C335 H305 0.930 . S
C335 N336 1.330 . S
C335 C337 1.446 . S
N336 Co295 2.151 . S
N336 C335 1.330 . S
N336 C340 1.418 . S
C337 H316 0.929 . S
C337 C335 1.446 . S
C337 C338 1.332 . S
C338 H318 0.931 . S
C338 C337 1.332 . S
C338 C339 1.267 . S
C339 H307 0.929 . S
C339 C338 1.267 . S
C339 C340 1.251 . S
C340 H310 0.929 . S
C340 N336 1.418 . S
C340 C339 1.251 . S
C341 H308 0.930 . S
C341 C343 1.406 . S
C341 C346 1.261 . S
C342 H309 0.930 . S
C342 N344 1.325 . S
C342 C345 1.357 . S
C343 H311 0.928 . S
C343 C341 1.406 . S
C343 N344 1.261 . S
N344 Co295 2.214 . S
N344 C342 1.325 . S
N344 C343 1.261 . S
C345 H315 0.931 . S
C345 C342 1.357 . S
C345 C346 1.312 . S
C346 H317 0.930 . S
C346 C341 1.261 . S
C346 C345 1.312 . S
C347 O319 1.214 . S
C347 O327 1.234 . S
C348 H320 0.929 . S
C348 C351 1.391 . S
C348 C353 1.391 . S
C349 H321 0.929 . S
C349 C350 1.390 . S
C349 N352 1.391 . S
C350 H322 0.930 . S
C350 C349 1.390 . S
C350 C351 1.392 . S
C351 H323 0.929 . S
C351 C348 1.391 . S
C351 C350 1.392 . S
N352 Co296 2.257 . S
N352 C349 1.391 . S
N352 C353 1.388 . S
C353 H324 0.930 . S
C353 C348 1.391 . S
C353 N352 1.388 . S
Co354 O356 2.143 . S
Co354 O362 2.074 . S
Co354 O365 2.093 . S
Co354 O378 2.097 . S
Co354 N395 2.151 . S
Co354 N403 2.214 . S
Co355 O356 2.160 . S
Co355 O361 2.058 . S
Co355 O371 2.057 . S
Co355 O386 2.037 . S
Co355 N390 2.145 . S
Co355 N411 2.257 . S
O356 Co354 2.143 . S
O356 Co355 2.160 . S
C357 O358 1.278 . S
C357 O365 1.224 . S
O358 C357 1.278 . S
C359 O360 1.245 . S
C359 O371 1.232 . S
O360 C359 1.245 . S
O361 Co355 2.058 . S
O361 C387 1.269 . S
O362 Co354 2.074 . S
O362 C387 1.257 . S
H363 C388 0.930 . S
H364 C394 0.930 . S
O365 Co354 2.093 . S
O365 C357 1.224 . S
H366 C398 0.929 . S
H367 C400 0.930 . S
H368 C401 0.930 . S
H369 C399 0.929 . S
H370 C402 0.928 . S
O371 Co355 2.057 . S
O371 C359 1.232 . S
H372 C391 0.929 . S
H373 C392 0.929 . S
H374 C404 0.931 . S
H375 C396 0.929 . S
H376 C405 0.930 . S
H377 C397 0.931 . S
O378 Co354 2.097 . S
O378 C406 1.214 . S
H379 C407 0.929 . S
H380 C408 0.929 . S
H381 C409 0.930 . S
H382 C410 0.929 . S
H383 C412 0.930 . S
H384 C389 0.930 . S
H385 C393 0.930 . S
O386 Co355 2.037 . S
O386 C406 1.234 . S
C387 O361 1.269 . S
C387 O362 1.257 . S
C388 H363 0.930 . S
C388 C391 1.388 . S
C388 C393 1.418 . S
C389 H384 0.930 . S
C389 C392 1.404 . S
C389 C393 1.353 . S
N390 Co355 2.145 . S
N390 C391 1.397 . S
N390 C392 1.334 . S
C391 H372 0.929 . S
C391 C388 1.388 . S
C391 N390 1.397 . S
C392 H373 0.929 . S
C392 C389 1.404 . S
C392 N390 1.334 . S
C393 H385 0.930 . S
C393 C388 1.418 . S
C393 C389 1.353 . S
C394 H364 0.930 . S
C394 N395 1.330 . S
C394 C396 1.446 . S
N395 Co354 2.151 . S
N395 C394 1.330 . S
N395 C399 1.418 . S
C396 H375 0.929 . S
C396 C394 1.446 . S
C396 C397 1.332 . S
C397 H377 0.931 . S
C397 C396 1.332 . S
C397 C398 1.267 . S
C398 H366 0.929 . S
C398 C397 1.267 . S
C398 C399 1.251 . S
C399 H369 0.929 . S
C399 N395 1.418 . S
C399 C398 1.251 . S
C400 H367 0.930 . S
C400 C402 1.406 . S
C400 C405 1.261 . S
C401 H368 0.930 . S
C401 N403 1.325 . S
C401 C404 1.357 . S
C402 H370 0.928 . S
C402 C400 1.406 . S
C402 N403 1.261 . S
N403 Co354 2.214 . S
N403 C401 1.325 . S
N403 C402 1.261 . S
C404 H374 0.931 . S
C404 C401 1.357 . S
C404 C405 1.312 . S
C405 H376 0.930 . S
C405 C400 1.261 . S
C405 C404 1.312 . S
C406 O378 1.214 . S
C406 O386 1.234 . S
C407 H379 0.929 . S
C407 C410 1.391 . S
C407 C412 1.391 . S
C408 H380 0.929 . S
C408 C409 1.390 . S
C408 N411 1.391 . S
C409 H381 0.930 . S
C409 C408 1.390 . S
C409 C410 1.392 . S
C410 H382 0.929 . S
C410 C407 1.391 . S
C410 C409 1.392 . S
N411 Co355 2.257 . S
N411 C408 1.391 . S
N411 C412 1.388 . S
C412 H383 0.930 . S
C412 C407 1.391 . S
C412 N411 1.388 . S
Co413 O415 2.143 . S
Co413 O421 2.074 . S
Co413 O424 2.093 . S
Co413 O437 2.097 . S
Co413 N454 2.151 . S
Co413 N462 2.214 . S
Co414 O415 2.160 . S
Co414 O420 2.058 . S
Co414 O430 2.057 . S
Co414 O445 2.037 . S
Co414 N449 2.145 . S
Co414 N470 2.257 . S
O415 Co413 2.143 . S
O415 Co414 2.160 . S
C416 O417 1.278 . S
C416 O424 1.224 . S
O417 C416 1.278 . S
C418 O419 1.245 . S
C418 O430 1.232 . S
O419 C418 1.245 . S
O420 Co414 2.058 . S
O420 C446 1.269 . S
O421 Co413 2.074 . S
O421 C446 1.257 . S
H422 C447 0.930 . S
H423 C453 0.930 . S
O424 Co413 2.093 . S
O424 C416 1.224 . S
H425 C457 0.929 . S
H426 C459 0.930 . S
H427 C460 0.930 . S
H428 C458 0.929 . S
H429 C461 0.928 . S
O430 Co414 2.057 . S
O430 C418 1.232 . S
H431 C450 0.929 . S
H432 C451 0.929 . S
H433 C463 0.931 . S
H434 C455 0.929 . S
H435 C464 0.930 . S
H436 C456 0.931 . S
O437 Co413 2.097 . S
O437 C465 1.214 . S
H438 C466 0.929 . S
H439 C467 0.929 . S
H440 C468 0.930 . S
H441 C469 0.929 . S
H442 C471 0.930 . S
H443 C448 0.930 . S
H444 C452 0.930 . S
O445 Co414 2.037 . S
O445 C465 1.234 . S
C446 O420 1.269 . S
C446 O421 1.257 . S
C447 H422 0.930 . S
C447 C450 1.388 . S
C447 C452 1.418 . S
C448 H443 0.930 . S
C448 C451 1.404 . S
C448 C452 1.353 . S
N449 Co414 2.145 . S
N449 C450 1.397 . S
N449 C451 1.334 . S
C450 H431 0.929 . S
C450 C447 1.388 . S
C450 N449 1.397 . S
C451 H432 0.929 . S
C451 C448 1.404 . S
C451 N449 1.334 . S
C452 H444 0.930 . S
C452 C447 1.418 . S
C452 C448 1.353 . S
C453 H423 0.930 . S
C453 N454 1.330 . S
C453 C455 1.446 . S
N454 Co413 2.151 . S
N454 C453 1.330 . S
N454 C458 1.418 . S
C455 H434 0.929 . S
C455 C453 1.446 . S
C455 C456 1.332 . S
C456 H436 0.931 . S
C456 C455 1.332 . S
C456 C457 1.267 . S
C457 H425 0.929 . S
C457 C456 1.267 . S
C457 C458 1.251 . S
C458 H428 0.929 . S
C458 N454 1.418 . S
C458 C457 1.251 . S
C459 H426 0.930 . S
C459 C461 1.406 . S
C459 C464 1.261 . S
C460 H427 0.930 . S
C460 N462 1.325 . S
C460 C463 1.357 . S
C461 H429 0.928 . S
C461 C459 1.406 . S
C461 N462 1.261 . S
N462 Co413 2.214 . S
N462 C460 1.325 . S
N462 C461 1.261 . S
C463 H433 0.931 . S
C463 C460 1.357 . S
C463 C464 1.312 . S
C464 H435 0.930 . S
C464 C459 1.261 . S
C464 C463 1.312 . S
C465 O437 1.214 . S
C465 O445 1.234 . S
C466 H438 0.929 . S
C466 C469 1.391 . S
C466 C471 1.391 . S
C467 H439 0.929 . S
C467 C468 1.390 . S
C467 N470 1.391 . S
C468 H440 0.930 . S
C468 C467 1.390 . S
C468 C469 1.392 . S
C469 H441 0.929 . S
C469 C466 1.391 . S
C469 C468 1.392 . S
N470 Co414 2.257 . S
N470 C467 1.391 . S
N470 C471 1.388 . S
C471 H442 0.930 . S
C471 C466 1.391 . S
C471 N470 1.388 . S
Co472 O474 2.143 . S
Co472 O480 2.074 . S
Co472 O483 2.093 . S
Co472 O496 2.097 . S
Co472 N513 2.151 . S
Co472 N521 2.214 . S
Co473 O474 2.160 . S
Co473 O479 2.058 . S
Co473 O489 2.057 . S
Co473 O504 2.037 . S
Co473 N508 2.145 . S
Co473 N529 2.257 . S
O474 Co472 2.143 . S
O474 Co473 2.160 . S
C475 O476 1.278 . S
C475 O483 1.224 . S
O476 C475 1.278 . S
C477 O478 1.245 . S
C477 O489 1.232 . S
O478 C477 1.245 . S
O479 Co473 2.058 . S
O479 C505 1.269 . S
O480 Co472 2.074 . S
O480 C505 1.257 . S
H481 C506 0.930 . S
H482 C512 0.930 . S
O483 Co472 2.093 . S
O483 C475 1.224 . S
H484 C516 0.929 . S
H485 C518 0.930 . S
H486 C519 0.930 . S
H487 C517 0.929 . S
H488 C520 0.928 . S
O489 Co473 2.057 . S
O489 C477 1.232 . S
H490 C509 0.929 . S
H491 C510 0.929 . S
H492 C522 0.931 . S
H493 C514 0.929 . S
H494 C523 0.930 . S
H495 C515 0.931 . S
O496 Co472 2.097 . S
O496 C524 1.214 . S
H497 C525 0.929 . S
H498 C526 0.929 . S
H499 C527 0.930 . S
H500 C528 0.929 . S
H501 C530 0.930 . S
H502 C507 0.930 . S
H503 C511 0.930 . S
O504 Co473 2.037 . S
O504 C524 1.234 . S
C505 O479 1.269 . S
C505 O480 1.257 . S
C506 H481 0.930 . S
C506 C509 1.388 . S
C506 C511 1.418 . S
C507 H502 0.930 . S
C507 C510 1.404 . S
C507 C511 1.353 . S
N508 Co473 2.145 . S
N508 C509 1.397 . S
N508 C510 1.334 . S
C509 H490 0.929 . S
C509 C506 1.388 . S
C509 N508 1.397 . S
C510 H491 0.929 . S
C510 C507 1.404 . S
C510 N508 1.334 . S
C511 H503 0.930 . S
C511 C506 1.418 . S
C511 C507 1.353 . S
C512 H482 0.930 . S
C512 N513 1.330 . S
C512 C514 1.446 . S
N513 Co472 2.151 . S
N513 C512 1.330 . S
N513 C517 1.418 . S
C514 H493 0.929 . S
C514 C512 1.446 . S
C514 C515 1.332 . S
C515 H495 0.931 . S
C515 C514 1.332 . S
C515 C516 1.267 . S
C516 H484 0.929 . S
C516 C515 1.267 . S
C516 C517 1.251 . S
C517 H487 0.929 . S
C517 N513 1.418 . S
C517 C516 1.251 . S
C518 H485 0.930 . S
C518 C520 1.406 . S
C518 C523 1.261 . S
C519 H486 0.930 . S
C519 N521 1.325 . S
C519 C522 1.357 . S
C520 H488 0.928 . S
C520 C518 1.406 . S
C520 N521 1.261 . S
N521 Co472 2.214 . S
N521 C519 1.325 . S
N521 C520 1.261 . S
C522 H492 0.931 . S
C522 C519 1.357 . S
C522 C523 1.312 . S
C523 H494 0.930 . S
C523 C518 1.261 . S
C523 C522 1.312 . S
C524 O496 1.214 . S
C524 O504 1.234 . S
C525 H497 0.929 . S
C525 C528 1.391 . S
C525 C530 1.391 . S
C526 H498 0.929 . S
C526 C527 1.390 . S
C526 N529 1.391 . S
C527 H499 0.930 . S
C527 C526 1.390 . S
C527 C528 1.392 . S
C528 H500 0.929 . S
C528 C525 1.391 . S
C528 C527 1.392 . S
N529 Co473 2.257 . S
N529 C526 1.391 . S
N529 C530 1.388 . S
C530 H501 0.930 . S
C530 C525 1.391 . S
C530 N529 1.388 . S
Co531 O533 2.143 . S
Co531 O539 2.074 . S
Co531 O542 2.093 . S
Co531 O555 2.097 . S
Co531 N572 2.151 . S
Co531 N580 2.214 . S
Co532 O533 2.160 . S
Co532 O538 2.058 . S
Co532 O548 2.057 . S
Co532 O563 2.037 . S
Co532 N567 2.145 . S
Co532 N588 2.257 . S
O533 Co531 2.143 . S
O533 Co532 2.160 . S
C534 O535 1.278 . S
C534 O542 1.224 . S
O535 C534 1.278 . S
C536 O537 1.245 . S
C536 O548 1.232 . S
O537 C536 1.245 . S
O538 Co532 2.058 . S
O538 C564 1.269 . S
O539 Co531 2.074 . S
O539 C564 1.257 . S
H540 C565 0.930 . S
H541 C571 0.930 . S
O542 Co531 2.093 . S
O542 C534 1.224 . S
H543 C575 0.929 . S
H544 C577 0.930 . S
H545 C578 0.930 . S
H546 C576 0.929 . S
H547 C579 0.928 . S
O548 Co532 2.057 . S
O548 C536 1.232 . S
H549 C568 0.929 . S
H550 C569 0.929 . S
H551 C581 0.931 . S
H552 C573 0.929 . S
H553 C582 0.930 . S
H554 C574 0.931 . S
O555 Co531 2.097 . S
O555 C583 1.214 . S
H556 C584 0.929 . S
H557 C585 0.929 . S
H558 C586 0.930 . S
H559 C587 0.929 . S
H560 C589 0.930 . S
H561 C566 0.930 . S
H562 C570 0.930 . S
O563 Co532 2.037 . S
O563 C583 1.234 . S
C564 O538 1.269 . S
C564 O539 1.257 . S
C565 H540 0.930 . S
C565 C568 1.388 . S
C565 C570 1.418 . S
C566 H561 0.930 . S
C566 C569 1.404 . S
C566 C570 1.353 . S
N567 Co532 2.145 . S
N567 C568 1.397 . S
N567 C569 1.334 . S
C568 H549 0.929 . S
C568 C565 1.388 . S
C568 N567 1.397 . S
C569 H550 0.929 . S
C569 C566 1.404 . S
C569 N567 1.334 . S
C570 H562 0.930 . S
C570 C565 1.418 . S
C570 C566 1.353 . S
C571 H541 0.930 . S
C571 N572 1.330 . S
C571 C573 1.446 . S
N572 Co531 2.151 . S
N572 C571 1.330 . S
N572 C576 1.418 . S
C573 H552 0.929 . S
C573 C571 1.446 . S
C573 C574 1.332 . S
C574 H554 0.931 . S
C574 C573 1.332 . S
C574 C575 1.267 . S
C575 H543 0.929 . S
C575 C574 1.267 . S
C575 C576 1.251 . S
C576 H546 0.929 . S
C576 N572 1.418 . S
C576 C575 1.251 . S
C577 H544 0.930 . S
C577 C579 1.406 . S
C577 C582 1.261 . S
C578 H545 0.930 . S
C578 N580 1.325 . S
C578 C581 1.357 . S
C579 H547 0.928 . S
C579 C577 1.406 . S
C579 N580 1.261 . S
N580 Co531 2.214 . S
N580 C578 1.325 . S
N580 C579 1.261 . S
C581 H551 0.931 . S
C581 C578 1.357 . S
C581 C582 1.312 . S
C582 H553 0.930 . S
C582 C577 1.261 . S
C582 C581 1.312 . S
C583 O555 1.214 . S
C583 O563 1.234 . S
C584 H556 0.929 . S
C584 C587 1.391 . S
C584 C589 1.391 . S
C585 H557 0.929 . S
C585 C586 1.390 . S
C585 N588 1.391 . S
C586 H558 0.930 . S
C586 C585 1.390 . S
C586 C587 1.392 . S
C587 H559 0.929 . S
C587 C584 1.391 . S
C587 C586 1.392 . S
N588 Co532 2.257 . S
N588 C585 1.391 . S
N588 C589 1.388 . S
C589 H560 0.930 . S
C589 C584 1.391 . S
C589 N588 1.388 . S
Co590 O592 2.143 . S
Co590 O598 2.074 . S
Co590 O601 2.093 . S
Co590 O614 2.097 . S
Co590 N631 2.151 . S
Co590 N639 2.214 . S
Co591 O592 2.160 . S
Co591 O597 2.058 . S
Co591 O607 2.057 . S
Co591 O622 2.037 . S
Co591 N626 2.145 . S
Co591 N647 2.257 . S
O592 Co590 2.143 . S
O592 Co591 2.160 . S
C593 O594 1.278 . S
C593 O601 1.224 . S
O594 C593 1.278 . S
C595 O596 1.245 . S
C595 O607 1.232 . S
O596 C595 1.245 . S
O597 Co591 2.058 . S
O597 C623 1.269 . S
O598 Co590 2.074 . S
O598 C623 1.257 . S
H599 C624 0.930 . S
H600 C630 0.930 . S
O601 Co590 2.093 . S
O601 C593 1.224 . S
H602 C634 0.929 . S
H603 C636 0.930 . S
H604 C637 0.930 . S
H605 C635 0.929 . S
H606 C638 0.928 . S
O607 Co591 2.057 . S
O607 C595 1.232 . S
H608 C627 0.929 . S
H609 C628 0.929 . S
H610 C640 0.931 . S
H611 C632 0.929 . S
H612 C641 0.930 . S
H613 C633 0.931 . S
O614 Co590 2.097 . S
O614 C642 1.214 . S
H615 C643 0.929 . S
H616 C644 0.929 . S
H617 C645 0.930 . S
H618 C646 0.929 . S
H619 C648 0.930 . S
H620 C625 0.930 . S
H621 C629 0.930 . S
O622 Co591 2.037 . S
O622 C642 1.234 . S
C623 O597 1.269 . S
C623 O598 1.257 . S
C624 H599 0.930 . S
C624 C627 1.388 . S
C624 C629 1.418 . S
C625 H620 0.930 . S
C625 C628 1.404 . S
C625 C629 1.353 . S
N626 Co591 2.145 . S
N626 C627 1.397 . S
N626 C628 1.334 . S
C627 H608 0.929 . S
C627 C624 1.388 . S
C627 N626 1.397 . S
C628 H609 0.929 . S
C628 C625 1.404 . S
C628 N626 1.334 . S
C629 H621 0.930 . S
C629 C624 1.418 . S
C629 C625 1.353 . S
C630 H600 0.930 . S
C630 N631 1.330 . S
C630 C632 1.446 . S
N631 Co590 2.151 . S
N631 C630 1.330 . S
N631 C635 1.418 . S
C632 H611 0.929 . S
C632 C630 1.446 . S
C632 C633 1.332 . S
C633 H613 0.931 . S
C633 C632 1.332 . S
C633 C634 1.267 . S
C634 H602 0.929 . S
C634 C633 1.267 . S
C634 C635 1.251 . S
C635 H605 0.929 . S
C635 N631 1.418 . S
C635 C634 1.251 . S
C636 H603 0.930 . S
C636 C638 1.406 . S
C636 C641 1.261 . S
C637 H604 0.930 . S
C637 N639 1.325 . S
C637 C640 1.357 . S
C638 H606 0.928 . S
C638 C636 1.406 . S
C638 N639 1.261 . S
N639 Co590 2.214 . S
N639 C637 1.325 . S
N639 C638 1.261 . S
C640 H610 0.931 . S
C640 C637 1.357 . S
C640 C641 1.312 . S
C641 H612 0.930 . S
C641 C636 1.261 . S
C641 C640 1.312 . S
C642 O614 1.214 . S
C642 O622 1.234 . S
C643 H615 0.929 . S
C643 C646 1.391 . S
C643 C648 1.391 . S
C644 H616 0.929 . S
C644 C645 1.390 . S
C644 N647 1.391 . S
C645 H617 0.930 . S
C645 C644 1.390 . S
C645 C646 1.392 . S
C646 H618 0.929 . S
C646 C643 1.391 . S
C646 C645 1.392 . S
N647 Co591 2.257 . S
N647 C644 1.391 . S
N647 C648 1.388 . S
C648 H619 0.930 . S
C648 C643 1.391 . S
C648 N647 1.388 . S
Co649 O651 2.143 . S
Co649 O657 2.074 . S
Co649 O660 2.093 . S
Co649 O673 2.097 . S
Co649 N690 2.151 . S
Co649 N698 2.214 . S
Co650 O651 2.160 . S
Co650 O656 2.058 . S
Co650 O666 2.057 . S
Co650 O681 2.037 . S
Co650 N685 2.145 . S
Co650 N706 2.257 . S
O651 Co649 2.143 . S
O651 Co650 2.160 . S
C652 O653 1.278 . S
C652 O660 1.224 . S
O653 C652 1.278 . S
C654 O655 1.245 . S
C654 O666 1.232 . S
O655 C654 1.245 . S
O656 Co650 2.058 . S
O656 C682 1.269 . S
O657 Co649 2.074 . S
O657 C682 1.257 . S
H658 C683 0.930 . S
H659 C689 0.930 . S
O660 Co649 2.093 . S
O660 C652 1.224 . S
H661 C693 0.929 . S
H662 C695 0.930 . S
H663 C696 0.930 . S
H664 C694 0.929 . S
H665 C697 0.928 . S
O666 Co650 2.057 . S
O666 C654 1.232 . S
H667 C686 0.929 . S
H668 C687 0.929 . S
H669 C699 0.931 . S
H670 C691 0.929 . S
H671 C700 0.930 . S
H672 C692 0.931 . S
O673 Co649 2.097 . S
O673 C701 1.214 . S
H674 C702 0.929 . S
H675 C703 0.929 . S
H676 C704 0.930 . S
H677 C705 0.929 . S
H678 C707 0.930 . S
H679 C684 0.930 . S
H680 C688 0.930 . S
O681 Co650 2.037 . S
O681 C701 1.234 . S
C682 O656 1.269 . S
C682 O657 1.257 . S
C683 H658 0.930 . S
C683 C686 1.388 . S
C683 C688 1.418 . S
C684 H679 0.930 . S
C684 C687 1.404 . S
C684 C688 1.353 . S
N685 Co650 2.145 . S
N685 C686 1.397 . S
N685 C687 1.334 . S
C686 H667 0.929 . S
C686 C683 1.388 . S
C686 N685 1.397 . S
C687 H668 0.929 . S
C687 C684 1.404 . S
C687 N685 1.334 . S
C688 H680 0.930 . S
C688 C683 1.418 . S
C688 C684 1.353 . S
C689 H659 0.930 . S
C689 N690 1.330 . S
C689 C691 1.446 . S
N690 Co649 2.151 . S
N690 C689 1.330 . S
N690 C694 1.418 . S
C691 H670 0.929 . S
C691 C689 1.446 . S
C691 C692 1.332 . S
C692 H672 0.931 . S
C692 C691 1.332 . S
C692 C693 1.267 . S
C693 H661 0.929 . S
C693 C692 1.267 . S
C693 C694 1.251 . S
C694 H664 0.929 . S
C694 N690 1.418 . S
C694 C693 1.251 . S
C695 H662 0.930 . S
C695 C697 1.406 . S
C695 C700 1.261 . S
C696 H663 0.930 . S
C696 N698 1.325 . S
C696 C699 1.357 . S
C697 H665 0.928 . S
C697 C695 1.406 . S
C697 N698 1.261 . S
N698 Co649 2.214 . S
N698 C696 1.325 . S
N698 C697 1.261 . S
C699 H669 0.931 . S
C699 C696 1.357 . S
C699 C700 1.312 . S
C700 H671 0.930 . S
C700 C695 1.261 . S
C700 C699 1.312 . S
C701 O673 1.214 . S
C701 O681 1.234 . S
C702 H674 0.929 . S
C702 C705 1.391 . S
C702 C707 1.391 . S
C703 H675 0.929 . S
C703 C704 1.390 . S
C703 N706 1.391 . S
C704 H676 0.930 . S
C704 C703 1.390 . S
C704 C705 1.392 . S
C705 H677 0.929 . S
C705 C702 1.391 . S
C705 C704 1.392 . S
N706 Co650 2.257 . S
N706 C703 1.391 . S
N706 C707 1.388 . S
C707 H678 0.930 . S
C707 C702 1.391 . S
C707 N706 1.388 . S
Co708 O710 2.143 . S
Co708 O716 2.074 . S
Co708 O719 2.093 . S
Co708 O732 2.097 . S
Co708 N749 2.151 . S
Co708 N757 2.214 . S
Co709 O710 2.160 . S
Co709 O715 2.058 . S
Co709 O725 2.057 . S
Co709 O740 2.037 . S
Co709 N744 2.145 . S
Co709 N765 2.257 . S
O710 Co708 2.143 . S
O710 Co709 2.160 . S
C711 O712 1.278 . S
C711 O719 1.224 . S
O712 C711 1.278 . S
C713 O714 1.245 . S
C713 O725 1.232 . S
O714 C713 1.245 . S
O715 Co709 2.058 . S
O715 C741 1.269 . S
O716 Co708 2.074 . S
O716 C741 1.257 . S
H717 C742 0.930 . S
H718 C748 0.930 . S
O719 Co708 2.093 . S
O719 C711 1.224 . S
H720 C752 0.929 . S
H721 C754 0.930 . S
H722 C755 0.930 . S
H723 C753 0.929 . S
H724 C756 0.928 . S
O725 Co709 2.057 . S
O725 C713 1.232 . S
H726 C745 0.929 . S
H727 C746 0.929 . S
H728 C758 0.931 . S
H729 C750 0.929 . S
H730 C759 0.930 . S
H731 C751 0.931 . S
O732 Co708 2.097 . S
O732 C760 1.214 . S
H733 C761 0.929 . S
H734 C762 0.929 . S
H735 C763 0.930 . S
H736 C764 0.929 . S
H737 C766 0.930 . S
H738 C743 0.930 . S
H739 C747 0.930 . S
O740 Co709 2.037 . S
O740 C760 1.234 . S
C741 O715 1.269 . S
C741 O716 1.257 . S
C742 H717 0.930 . S
C742 C745 1.388 . S
C742 C747 1.418 . S
C743 H738 0.930 . S
C743 C746 1.404 . S
C743 C747 1.353 . S
N744 Co709 2.145 . S
N744 C745 1.397 . S
N744 C746 1.334 . S
C745 H726 0.929 . S
C745 C742 1.388 . S
C745 N744 1.397 . S
C746 H727 0.929 . S
C746 C743 1.404 . S
C746 N744 1.334 . S
C747 H739 0.930 . S
C747 C742 1.418 . S
C747 C743 1.353 . S
C748 H718 0.930 . S
C748 N749 1.330 . S
C748 C750 1.446 . S
N749 Co708 2.151 . S
N749 C748 1.330 . S
N749 C753 1.418 . S
C750 H729 0.929 . S
C750 C748 1.446 . S
C750 C751 1.332 . S
C751 H731 0.931 . S
C751 C750 1.332 . S
C751 C752 1.267 . S
C752 H720 0.929 . S
C752 C751 1.267 . S
C752 C753 1.251 . S
C753 H723 0.929 . S
C753 N749 1.418 . S
C753 C752 1.251 . S
C754 H721 0.930 . S
C754 C756 1.406 . S
C754 C759 1.261 . S
C755 H722 0.930 . S
C755 N757 1.325 . S
C755 C758 1.357 . S
C756 H724 0.928 . S
C756 C754 1.406 . S
C756 N757 1.261 . S
N757 Co708 2.214 . S
N757 C755 1.325 . S
N757 C756 1.261 . S
C758 H728 0.931 . S
C758 C755 1.357 . S
C758 C759 1.312 . S
C759 H730 0.930 . S
C759 C754 1.261 . S
C759 C758 1.312 . S
C760 O732 1.214 . S
C760 O740 1.234 . S
C761 H733 0.929 . S
C761 C764 1.391 . S
C761 C766 1.391 . S
C762 H734 0.929 . S
C762 C763 1.390 . S
C762 N765 1.391 . S
C763 H735 0.930 . S
C763 C762 1.390 . S
C763 C764 1.392 . S
C764 H736 0.929 . S
C764 C761 1.391 . S
C764 C763 1.392 . S
N765 Co709 2.257 . S
N765 C762 1.391 . S
N765 C766 1.388 . S
C766 H737 0.930 . S
C766 C761 1.391 . S
C766 N765 1.388 . S
Co767 O769 2.143 . S
Co767 O775 2.074 . S
Co767 O778 2.093 . S
Co767 O791 2.097 . S
Co767 N808 2.151 . S
Co767 N816 2.214 . S
Co768 O769 2.160 . S
Co768 O774 2.058 . S
Co768 O784 2.057 . S
Co768 O799 2.037 . S
Co768 N803 2.145 . S
Co768 N824 2.257 . S
O769 Co767 2.143 . S
O769 Co768 2.160 . S
C770 O771 1.278 . S
C770 O778 1.224 . S
O771 C770 1.278 . S
C772 O773 1.245 . S
C772 O784 1.232 . S
O773 C772 1.245 . S
O774 Co768 2.058 . S
O774 C800 1.269 . S
O775 Co767 2.074 . S
O775 C800 1.257 . S
H776 C801 0.930 . S
H777 C807 0.930 . S
O778 Co767 2.093 . S
O778 C770 1.224 . S
H779 C811 0.929 . S
H780 C813 0.930 . S
H781 C814 0.930 . S
H782 C812 0.929 . S
H783 C815 0.928 . S
O784 Co768 2.057 . S
O784 C772 1.232 . S
H785 C804 0.929 . S
H786 C805 0.929 . S
H787 C817 0.931 . S
H788 C809 0.929 . S
H789 C818 0.930 . S
H790 C810 0.931 . S
O791 Co767 2.097 . S
O791 C819 1.214 . S
H792 C820 0.929 . S
H793 C821 0.929 . S
H794 C822 0.930 . S
H795 C823 0.929 . S
H796 C825 0.930 . S
H797 C802 0.930 . S
H798 C806 0.930 . S
O799 Co768 2.037 . S
O799 C819 1.234 . S
C800 O774 1.269 . S
C800 O775 1.257 . S
C801 H776 0.930 . S
C801 C804 1.388 . S
C801 C806 1.418 . S
C802 H797 0.930 . S
C802 C805 1.404 . S
C802 C806 1.353 . S
N803 Co768 2.145 . S
N803 C804 1.397 . S
N803 C805 1.334 . S
C804 H785 0.929 . S
C804 C801 1.388 . S
C804 N803 1.397 . S
C805 H786 0.929 . S
C805 C802 1.404 . S
C805 N803 1.334 . S
C806 H798 0.930 . S
C806 C801 1.418 . S
C806 C802 1.353 . S
C807 H777 0.930 . S
C807 N808 1.330 . S
C807 C809 1.446 . S
N808 Co767 2.151 . S
N808 C807 1.330 . S
N808 C812 1.418 . S
C809 H788 0.929 . S
C809 C807 1.446 . S
C809 C810 1.332 . S
C810 H790 0.931 . S
C810 C809 1.332 . S
C810 C811 1.267 . S
C811 H779 0.929 . S
C811 C810 1.267 . S
C811 C812 1.251 . S
C812 H782 0.929 . S
C812 N808 1.418 . S
C812 C811 1.251 . S
C813 H780 0.930 . S
C813 C815 1.406 . S
C813 C818 1.261 . S
C814 H781 0.930 . S
C814 N816 1.325 . S
C814 C817 1.357 . S
C815 H783 0.928 . S
C815 C813 1.406 . S
C815 N816 1.261 . S
N816 Co767 2.214 . S
N816 C814 1.325 . S
N816 C815 1.261 . S
C817 H787 0.931 . S
C817 C814 1.357 . S
C817 C818 1.312 . S
C818 H789 0.930 . S
C818 C813 1.261 . S
C818 C817 1.312 . S
C819 O791 1.214 . S
C819 O799 1.234 . S
C820 H792 0.929 . S
C820 C823 1.391 . S
C820 C825 1.391 . S
C821 H793 0.929 . S
C821 C822 1.390 . S
C821 N824 1.391 . S
C822 H794 0.930 . S
C822 C821 1.390 . S
C822 C823 1.392 . S
C823 H795 0.929 . S
C823 C820 1.391 . S
C823 C822 1.392 . S
N824 Co768 2.257 . S
N824 C821 1.391 . S
N824 C825 1.388 . S
C825 H796 0.930 . S
C825 C820 1.391 . S
C825 N824 1.388 . S
Co826 O828 2.143 . S
Co826 O834 2.074 . S
Co826 O837 2.093 . S
Co826 O850 2.097 . S
Co826 N867 2.151 . S
Co826 N875 2.214 . S
Co827 O828 2.160 . S
Co827 O833 2.058 . S
Co827 O843 2.057 . S
Co827 O858 2.037 . S
Co827 N862 2.145 . S
Co827 N883 2.257 . S
O828 Co826 2.143 . S
O828 Co827 2.160 . S
C829 O830 1.278 . S
C829 O837 1.224 . S
O830 C829 1.278 . S
C831 O832 1.245 . S
C831 O843 1.232 . S
O832 C831 1.245 . S
O833 Co827 2.058 . S
O833 C859 1.269 . S
O834 Co826 2.074 . S
O834 C859 1.257 . S
H835 C860 0.930 . S
H836 C866 0.930 . S
O837 Co826 2.093 . S
O837 C829 1.224 . S
H838 C870 0.929 . S
H839 C872 0.930 . S
H840 C873 0.930 . S
H841 C871 0.929 . S
H842 C874 0.928 . S
O843 Co827 2.057 . S
O843 C831 1.232 . S
H844 C863 0.929 . S
H845 C864 0.929 . S
H846 C876 0.931 . S
H847 C868 0.929 . S
H848 C877 0.930 . S
H849 C869 0.931 . S
O850 Co826 2.097 . S
O850 C878 1.214 . S
H851 C879 0.929 . S
H852 C880 0.929 . S
H853 C881 0.930 . S
H854 C882 0.929 . S
H855 C884 0.930 . S
H856 C861 0.930 . S
H857 C865 0.930 . S
O858 Co827 2.037 . S
O858 C878 1.234 . S
C859 O833 1.269 . S
C859 O834 1.257 . S
C860 H835 0.930 . S
C860 C863 1.388 . S
C860 C865 1.418 . S
C861 H856 0.930 . S
C861 C864 1.404 . S
C861 C865 1.353 . S
N862 Co827 2.145 . S
N862 C863 1.397 . S
N862 C864 1.334 . S
C863 H844 0.929 . S
C863 C860 1.388 . S
C863 N862 1.397 . S
C864 H845 0.929 . S
C864 C861 1.404 . S
C864 N862 1.334 . S
C865 H857 0.930 . S
C865 C860 1.418 . S
C865 C861 1.353 . S
C866 H836 0.930 . S
C866 N867 1.330 . S
C866 C868 1.446 . S
N867 Co826 2.151 . S
N867 C866 1.330 . S
N867 C871 1.418 . S
C868 H847 0.929 . S
C868 C866 1.446 . S
C868 C869 1.332 . S
C869 H849 0.931 . S
C869 C868 1.332 . S
C869 C870 1.267 . S
C870 H838 0.929 . S
C870 C869 1.267 . S
C870 C871 1.251 . S
C871 H841 0.929 . S
C871 N867 1.418 . S
C871 C870 1.251 . S
C872 H839 0.930 . S
C872 C874 1.406 . S
C872 C877 1.261 . S
C873 H840 0.930 . S
C873 N875 1.325 . S
C873 C876 1.357 . S
C874 H842 0.928 . S
C874 C872 1.406 . S
C874 N875 1.261 . S
N875 Co826 2.214 . S
N875 C873 1.325 . S
N875 C874 1.261 . S
C876 H846 0.931 . S
C876 C873 1.357 . S
C876 C877 1.312 . S
C877 H848 0.930 . S
C877 C872 1.261 . S
C877 C876 1.312 . S
C878 O850 1.214 . S
C878 O858 1.234 . S
C879 H851 0.929 . S
C879 C882 1.391 . S
C879 C884 1.391 . S
C880 H852 0.929 . S
C880 C881 1.390 . S
C880 N883 1.391 . S
C881 H853 0.930 . S
C881 C880 1.390 . S
C881 C882 1.392 . S
C882 H854 0.929 . S
C882 C879 1.391 . S
C882 C881 1.392 . S
N883 Co827 2.257 . S
N883 C880 1.391 . S
N883 C884 1.388 . S
C884 H855 0.930 . S
C884 C879 1.391 . S
C884 N883 1.388 . S
Co885 O887 2.143 . S
Co885 O893 2.074 . S
Co885 O896 2.093 . S
Co885 O909 2.097 . S
Co885 N926 2.151 . S
Co885 N934 2.214 . S
Co886 O887 2.160 . S
Co886 O892 2.058 . S
Co886 O902 2.057 . S
Co886 O917 2.037 . S
Co886 N921 2.145 . S
Co886 N942 2.257 . S
O887 Co885 2.143 . S
O887 Co886 2.160 . S
C888 O889 1.278 . S
C888 O896 1.224 . S
O889 C888 1.278 . S
C890 O891 1.245 . S
C890 O902 1.232 . S
O891 C890 1.245 . S
O892 Co886 2.058 . S
O892 C918 1.269 . S
O893 Co885 2.074 . S
O893 C918 1.257 . S
H894 C919 0.930 . S
H895 C925 0.930 . S
O896 Co885 2.093 . S
O896 C888 1.224 . S
H897 C929 0.929 . S
H898 C931 0.930 . S
H899 C932 0.930 . S
H900 C930 0.929 . S
H901 C933 0.928 . S
O902 Co886 2.057 . S
O902 C890 1.232 . S
H903 C922 0.929 . S
H904 C923 0.929 . S
H905 C935 0.931 . S
H906 C927 0.929 . S
H907 C936 0.930 . S
H908 C928 0.931 . S
O909 Co885 2.097 . S
O909 C937 1.214 . S
H910 C938 0.929 . S
H911 C939 0.929 . S
H912 C940 0.930 . S
H913 C941 0.929 . S
H914 C943 0.930 . S
H915 C920 0.930 . S
H916 C924 0.930 . S
O917 Co886 2.037 . S
O917 C937 1.234 . S
C918 O892 1.269 . S
C918 O893 1.257 . S
C919 H894 0.930 . S
C919 C922 1.388 . S
C919 C924 1.418 . S
C920 H915 0.930 . S
C920 C923 1.404 . S
C920 C924 1.353 . S
N921 Co886 2.145 . S
N921 C922 1.397 . S
N921 C923 1.334 . S
C922 H903 0.929 . S
C922 C919 1.388 . S
C922 N921 1.397 . S
C923 H904 0.929 . S
C923 C920 1.404 . S
C923 N921 1.334 . S
C924 H916 0.930 . S
C924 C919 1.418 . S
C924 C920 1.353 . S
C925 H895 0.930 . S
C925 N926 1.330 . S
C925 C927 1.446 . S
N926 Co885 2.151 . S
N926 C925 1.330 . S
N926 C930 1.418 . S
C927 H906 0.929 . S
C927 C925 1.446 . S
C927 C928 1.332 . S
C928 H908 0.931 . S
C928 C927 1.332 . S
C928 C929 1.267 . S
C929 H897 0.929 . S
C929 C928 1.267 . S
C929 C930 1.251 . S
C930 H900 0.929 . S
C930 N926 1.418 . S
C930 C929 1.251 . S
C931 H898 0.930 . S
C931 C933 1.406 . S
C931 C936 1.261 . S
C932 H899 0.930 . S
C932 N934 1.325 . S
C932 C935 1.357 . S
C933 H901 0.928 . S
C933 C931 1.406 . S
C933 N934 1.261 . S
N934 Co885 2.214 . S
N934 C932 1.325 . S
N934 C933 1.261 . S
C935 H905 0.931 . S
C935 C932 1.357 . S
C935 C936 1.312 . S
C936 H907 0.930 . S
C936 C931 1.261 . S
C936 C935 1.312 . S
C937 O909 1.214 . S
C937 O917 1.234 . S
C938 H910 0.929 . S
C938 C941 1.391 . S
C938 C943 1.391 . S
C939 H911 0.929 . S
C939 C940 1.390 . S
C939 N942 1.391 . S
C940 H912 0.930 . S
C940 C939 1.390 . S
C940 C941 1.392 . S
C941 H913 0.929 . S
C941 C938 1.391 . S
C941 C940 1.392 . S
N942 Co886 2.257 . S
N942 C939 1.391 . S
N942 C943 1.388 . S
C943 H914 0.930 . S
C943 C938 1.391 . S
C943 N942 1.388 . S
Co944 O946 2.143 . S
Co944 O952 2.074 . S
Co944 O955 2.093 . S
Co944 O968 2.097 . S
Co944 N985 2.151 . S
Co944 N993 2.214 . S
Co945 O946 2.160 . S
Co945 O951 2.058 . S
Co945 O961 2.057 . S
Co945 O976 2.037 . S
Co945 N980 2.145 . S
Co945 N1001 2.257 . S
O946 Co944 2.143 . S
O946 Co945 2.160 . S
C947 O948 1.278 . S
C947 O955 1.224 . S
O948 C947 1.278 . S
C949 O950 1.245 . S
C949 O961 1.232 . S
O950 C949 1.245 . S
O951 Co945 2.058 . S
O951 C977 1.269 . S
O952 Co944 2.074 . S
O952 C977 1.257 . S
H953 C978 0.930 . S
H954 C984 0.930 . S
O955 Co944 2.093 . S
O955 C947 1.224 . S
H956 C988 0.929 . S
H957 C990 0.930 . S
H958 C991 0.930 . S
H959 C989 0.929 . S
H960 C992 0.928 . S
O961 Co945 2.057 . S
O961 C949 1.232 . S
H962 C981 0.929 . S
H963 C982 0.929 . S
H964 C994 0.931 . S
H965 C986 0.929 . S
H966 C995 0.930 . S
H967 C987 0.931 . S
O968 Co944 2.097 . S
O968 C996 1.214 . S
H969 C997 0.929 . S
H970 C998 0.929 . S
H971 C999 0.930 . S
H972 C1000 0.929 . S
H973 C1002 0.930 . S
H974 C979 0.930 . S
H975 C983 0.930 . S
O976 Co945 2.037 . S
O976 C996 1.234 . S
C977 O951 1.269 . S
C977 O952 1.257 . S
C978 H953 0.930 . S
C978 C981 1.388 . S
C978 C983 1.418 . S
C979 H974 0.930 . S
C979 C982 1.404 . S
C979 C983 1.353 . S
N980 Co945 2.145 . S
N980 C981 1.397 . S
N980 C982 1.334 . S
C981 H962 0.929 . S
C981 C978 1.388 . S
C981 N980 1.397 . S
C982 H963 0.929 . S
C982 C979 1.404 . S
C982 N980 1.334 . S
C983 H975 0.930 . S
C983 C978 1.418 . S
C983 C979 1.353 . S
C984 H954 0.930 . S
C984 N985 1.330 . S
C984 C986 1.446 . S
N985 Co944 2.151 . S
N985 C984 1.330 . S
N985 C989 1.418 . S
C986 H965 0.929 . S
C986 C984 1.446 . S
C986 C987 1.332 . S
C987 H967 0.931 . S
C987 C986 1.332 . S
C987 C988 1.267 . S
C988 H956 0.929 . S
C988 C987 1.267 . S
C988 C989 1.251 . S
C989 H959 0.929 . S
C989 N985 1.418 . S
C989 C988 1.251 . S
C990 H957 0.930 . S
C990 C992 1.406 . S
C990 C995 1.261 . S
C991 H958 0.930 . S
C991 N993 1.325 . S
C991 C994 1.357 . S
C992 H960 0.928 . S
C992 C990 1.406 . S
C992 N993 1.261 . S
N993 Co944 2.214 . S
N993 C991 1.325 . S
N993 C992 1.261 . S
C994 H964 0.931 . S
C994 C991 1.357 . S
C994 C995 1.312 . S
C995 H966 0.930 . S
C995 C990 1.261 . S
C995 C994 1.312 . S
C996 O968 1.214 . S
C996 O976 1.234 . S
C997 H969 0.929 . S
C997 C1000 1.391 . S
C997 C1002 1.391 . S
C998 H970 0.929 . S
C998 C999 1.390 . S
C998 N1001 1.391 . S
C999 H971 0.930 . S
C999 C998 1.390 . S
C999 C1000 1.392 . S
C1000 H972 0.929 . S
C1000 C997 1.391 . S
C1000 C999 1.392 . S
N1001 Co945 2.257 . S
N1001 C998 1.391 . S
N1001 C1002 1.388 . S
C1002 H973 0.930 . S
C1002 C997 1.391 . S
C1002 N1001 1.388 . S
Co1003 O1005 2.143 . S
Co1003 O1011 2.074 . S
Co1003 O1014 2.093 . S
Co1003 O1027 2.097 . S
Co1003 N1044 2.151 . S
Co1003 N1052 2.214 . S
Co1004 O1005 2.160 . S
Co1004 O1010 2.058 . S
Co1004 O1020 2.057 . S
Co1004 O1035 2.037 . S
Co1004 N1039 2.145 . S
Co1004 N1060 2.257 . S
O1005 Co1003 2.143 . S
O1005 Co1004 2.160 . S
C1006 O1007 1.278 . S
C1006 O1014 1.224 . S
O1007 C1006 1.278 . S
C1008 O1009 1.245 . S
C1008 O1020 1.232 . S
O1009 C1008 1.245 . S
O1010 Co1004 2.058 . S
O1010 C1036 1.269 . S
O1011 Co1003 2.074 . S
O1011 C1036 1.257 . S
H1012 C1037 0.930 . S
H1013 C1043 0.930 . S
O1014 Co1003 2.093 . S
O1014 C1006 1.224 . S
H1015 C1047 0.929 . S
H1016 C1049 0.930 . S
H1017 C1050 0.930 . S
H1018 C1048 0.929 . S
H1019 C1051 0.928 . S
O1020 Co1004 2.057 . S
O1020 C1008 1.232 . S
H1021 C1040 0.929 . S
H1022 C1041 0.929 . S
H1023 C1053 0.931 . S
H1024 C1045 0.929 . S
H1025 C1054 0.930 . S
H1026 C1046 0.931 . S
O1027 Co1003 2.097 . S
O1027 C1055 1.214 . S
H1028 C1056 0.929 . S
H1029 C1057 0.929 . S
H1030 C1058 0.930 . S
H1031 C1059 0.929 . S
H1032 C1061 0.930 . S
H1033 C1038 0.930 . S
H1034 C1042 0.930 . S
O1035 Co1004 2.037 . S
O1035 C1055 1.234 . S
C1036 O1010 1.269 . S
C1036 O1011 1.257 . S
C1037 H1012 0.930 . S
C1037 C1040 1.388 . S
C1037 C1042 1.418 . S
C1038 H1033 0.930 . S
C1038 C1041 1.404 . S
C1038 C1042 1.353 . S
N1039 Co1004 2.145 . S
N1039 C1040 1.397 . S
N1039 C1041 1.334 . S
C1040 H1021 0.929 . S
C1040 C1037 1.388 . S
C1040 N1039 1.397 . S
C1041 H1022 0.929 . S
C1041 C1038 1.404 . S
C1041 N1039 1.334 . S
C1042 H1034 0.930 . S
C1042 C1037 1.418 . S
C1042 C1038 1.353 . S
C1043 H1013 0.930 . S
C1043 N1044 1.330 . S
C1043 C1045 1.446 . S
N1044 Co1003 2.151 . S
N1044 C1043 1.330 . S
N1044 C1048 1.418 . S
C1045 H1024 0.929 . S
C1045 C1043 1.446 . S
C1045 C1046 1.332 . S
C1046 H1026 0.931 . S
C1046 C1045 1.332 . S
C1046 C1047 1.267 . S
C1047 H1015 0.929 . S
C1047 C1046 1.267 . S
C1047 C1048 1.251 . S
C1048 H1018 0.929 . S
C1048 N1044 1.418 . S
C1048 C1047 1.251 . S
C1049 H1016 0.930 . S
C1049 C1051 1.406 . S
C1049 C1054 1.261 . S
C1050 H1017 0.930 . S
C1050 N1052 1.325 . S
C1050 C1053 1.357 . S
C1051 H1019 0.928 . S
C1051 C1049 1.406 . S
C1051 N1052 1.261 . S
N1052 Co1003 2.214 . S
N1052 C1050 1.325 . S
N1052 C1051 1.261 . S
C1053 H1023 0.931 . S
C1053 C1050 1.357 . S
C1053 C1054 1.312 . S
C1054 H1025 0.930 . S
C1054 C1049 1.261 . S
C1054 C1053 1.312 . S
C1055 O1027 1.214 . S
C1055 O1035 1.234 . S
C1056 H1028 0.929 . S
C1056 C1059 1.391 . S
C1056 C1061 1.391 . S
C1057 H1029 0.929 . S
C1057 C1058 1.390 . S
C1057 N1060 1.391 . S
C1058 H1030 0.930 . S
C1058 C1057 1.390 . S
C1058 C1059 1.392 . S
C1059 H1031 0.929 . S
C1059 C1056 1.391 . S
C1059 C1058 1.392 . S
N1060 Co1004 2.257 . S
N1060 C1057 1.391 . S
N1060 C1061 1.388 . S
C1061 H1032 0.930 . S
C1061 C1056 1.391 . S
C1061 N1060 1.388 . S
Co1062 O1064 2.143 . S
Co1062 O1070 2.074 . S
Co1062 O1073 2.093 . S
Co1062 O1086 2.097 . S
Co1062 N1103 2.151 . S
Co1062 N1111 2.214 . S
Co1063 O1064 2.160 . S
Co1063 O1069 2.058 . S
Co1063 O1079 2.057 . S
Co1063 O1094 2.037 . S
Co1063 N1098 2.145 . S
Co1063 N1119 2.257 . S
O1064 Co1062 2.143 . S
O1064 Co1063 2.160 . S
C1065 O1066 1.278 . S
C1065 O1073 1.224 . S
O1066 C1065 1.278 . S
C1067 O1068 1.245 . S
C1067 O1079 1.232 . S
O1068 C1067 1.245 . S
O1069 Co1063 2.058 . S
O1069 C1095 1.269 . S
O1070 Co1062 2.074 . S
O1070 C1095 1.257 . S
H1071 C1096 0.930 . S
H1072 C1102 0.930 . S
O1073 Co1062 2.093 . S
O1073 C1065 1.224 . S
H1074 C1106 0.929 . S
H1075 C1108 0.930 . S
H1076 C1109 0.930 . S
H1077 C1107 0.929 . S
H1078 C1110 0.928 . S
O1079 Co1063 2.057 . S
O1079 C1067 1.232 . S
H1080 C1099 0.929 . S
H1081 C1100 0.929 . S
H1082 C1112 0.931 . S
H1083 C1104 0.929 . S
H1084 C1113 0.930 . S
H1085 C1105 0.931 . S
O1086 Co1062 2.097 . S
O1086 C1114 1.214 . S
H1087 C1115 0.929 . S
H1088 C1116 0.929 . S
H1089 C1117 0.930 . S
H1090 C1118 0.929 . S
H1091 C1120 0.930 . S
H1092 C1097 0.930 . S
H1093 C1101 0.930 . S
O1094 Co1063 2.037 . S
O1094 C1114 1.234 . S
C1095 O1069 1.269 . S
C1095 O1070 1.257 . S
C1096 H1071 0.930 . S
C1096 C1099 1.388 . S
C1096 C1101 1.418 . S
C1097 H1092 0.930 . S
C1097 C1100 1.404 . S
C1097 C1101 1.353 . S
N1098 Co1063 2.145 . S
N1098 C1099 1.397 . S
N1098 C1100 1.334 . S
C1099 H1080 0.929 . S
C1099 C1096 1.388 . S
C1099 N1098 1.397 . S
C1100 H1081 0.929 . S
C1100 C1097 1.404 . S
C1100 N1098 1.334 . S
C1101 H1093 0.930 . S
C1101 C1096 1.418 . S
C1101 C1097 1.353 . S
C1102 H1072 0.930 . S
C1102 N1103 1.330 . S
C1102 C1104 1.446 . S
N1103 Co1062 2.151 . S
N1103 C1102 1.330 . S
N1103 C1107 1.418 . S
C1104 H1083 0.929 . S
C1104 C1102 1.446 . S
C1104 C1105 1.332 . S
C1105 H1085 0.931 . S
C1105 C1104 1.332 . S
C1105 C1106 1.267 . S
C1106 H1074 0.929 . S
C1106 C1105 1.267 . S
C1106 C1107 1.251 . S
C1107 H1077 0.929 . S
C1107 N1103 1.418 . S
C1107 C1106 1.251 . S
C1108 H1075 0.930 . S
C1108 C1110 1.406 . S
C1108 C1113 1.261 . S
C1109 H1076 0.930 . S
C1109 N1111 1.325 . S
C1109 C1112 1.357 . S
C1110 H1078 0.928 . S
C1110 C1108 1.406 . S
C1110 N1111 1.261 . S
N1111 Co1062 2.214 . S
N1111 C1109 1.325 . S
N1111 C1110 1.261 . S
C1112 H1082 0.931 . S
C1112 C1109 1.357 . S
C1112 C1113 1.312 . S
C1113 H1084 0.930 . S
C1113 C1108 1.261 . S
C1113 C1112 1.312 . S
C1114 O1086 1.214 . S
C1114 O1094 1.234 . S
C1115 H1087 0.929 . S
C1115 C1118 1.391 . S
C1115 C1120 1.391 . S
C1116 H1088 0.929 . S
C1116 C1117 1.390 . S
C1116 N1119 1.391 . S
C1117 H1089 0.930 . S
C1117 C1116 1.390 . S
C1117 C1118 1.392 . S
C1118 H1090 0.929 . S
C1118 C1115 1.391 . S
C1118 C1117 1.392 . S
N1119 Co1063 2.257 . S
N1119 C1116 1.391 . S
N1119 C1120 1.388 . S
C1120 H1091 0.930 . S
C1120 C1115 1.391 . S
C1120 N1119 1.388 . S
Co1121 O1123 2.143 . S
Co1121 O1129 2.074 . S
Co1121 O1132 2.093 . S
Co1121 O1145 2.097 . S
Co1121 N1162 2.151 . S
Co1121 N1170 2.214 . S
Co1122 O1123 2.160 . S
Co1122 O1128 2.058 . S
Co1122 O1138 2.057 . S
Co1122 O1153 2.037 . S
Co1122 N1157 2.145 . S
Co1122 N1178 2.257 . S
O1123 Co1121 2.143 . S
O1123 Co1122 2.160 . S
C1124 O1125 1.278 . S
C1124 O1132 1.224 . S
O1125 C1124 1.278 . S
C1126 O1127 1.245 . S
C1126 O1138 1.232 . S
O1127 C1126 1.245 . S
O1128 Co1122 2.058 . S
O1128 C1154 1.269 . S
O1129 Co1121 2.074 . S
O1129 C1154 1.257 . S
H1130 C1155 0.930 . S
H1131 C1161 0.930 . S
O1132 Co1121 2.093 . S
O1132 C1124 1.224 . S
H1133 C1165 0.929 . S
H1134 C1167 0.930 . S
H1135 C1168 0.930 . S
H1136 C1166 0.929 . S
H1137 C1169 0.928 . S
O1138 Co1122 2.057 . S
O1138 C1126 1.232 . S
H1139 C1158 0.929 . S
H1140 C1159 0.929 . S
H1141 C1171 0.931 . S
H1142 C1163 0.929 . S
H1143 C1172 0.930 . S
H1144 C1164 0.931 . S
O1145 Co1121 2.097 . S
O1145 C1173 1.214 . S
H1146 C1174 0.929 . S
H1147 C1175 0.929 . S
H1148 C1176 0.930 . S
H1149 C1177 0.929 . S
H1150 C1179 0.930 . S
H1151 C1156 0.930 . S
H1152 C1160 0.930 . S
O1153 Co1122 2.037 . S
O1153 C1173 1.234 . S
C1154 O1128 1.269 . S
C1154 O1129 1.257 . S
C1155 H1130 0.930 . S
C1155 C1158 1.388 . S
C1155 C1160 1.418 . S
C1156 H1151 0.930 . S
C1156 C1159 1.404 . S
C1156 C1160 1.353 . S
N1157 Co1122 2.145 . S
N1157 C1158 1.397 . S
N1157 C1159 1.334 . S
C1158 H1139 0.929 . S
C1158 C1155 1.388 . S
C1158 N1157 1.397 . S
C1159 H1140 0.929 . S
C1159 C1156 1.404 . S
C1159 N1157 1.334 . S
C1160 H1152 0.930 . S
C1160 C1155 1.418 . S
C1160 C1156 1.353 . S
C1161 H1131 0.930 . S
C1161 N1162 1.330 . S
C1161 C1163 1.446 . S
N1162 Co1121 2.151 . S
N1162 C1161 1.330 . S
N1162 C1166 1.418 . S
C1163 H1142 0.929 . S
C1163 C1161 1.446 . S
C1163 C1164 1.332 . S
C1164 H1144 0.931 . S
C1164 C1163 1.332 . S
C1164 C1165 1.267 . S
C1165 H1133 0.929 . S
C1165 C1164 1.267 . S
C1165 C1166 1.251 . S
C1166 H1136 0.929 . S
C1166 N1162 1.418 . S
C1166 C1165 1.251 . S
C1167 H1134 0.930 . S
C1167 C1169 1.406 . S
C1167 C1172 1.261 . S
C1168 H1135 0.930 . S
C1168 N1170 1.325 . S
C1168 C1171 1.357 . S
C1169 H1137 0.928 . S
C1169 C1167 1.406 . S
C1169 N1170 1.261 . S
N1170 Co1121 2.214 . S
N1170 C1168 1.325 . S
N1170 C1169 1.261 . S
C1171 H1141 0.931 . S
C1171 C1168 1.357 . S
C1171 C1172 1.312 . S
C1172 H1143 0.930 . S
C1172 C1167 1.261 . S
C1172 C1171 1.312 . S
C1173 O1145 1.214 . S
C1173 O1153 1.234 . S
C1174 H1146 0.929 . S
C1174 C1177 1.391 . S
C1174 C1179 1.391 . S
C1175 H1147 0.929 . S
C1175 C1176 1.390 . S
C1175 N1178 1.391 . S
C1176 H1148 0.930 . S
C1176 C1175 1.390 . S
C1176 C1177 1.392 . S
C1177 H1149 0.929 . S
C1177 C1174 1.391 . S
C1177 C1176 1.392 . S
N1178 Co1122 2.257 . S
N1178 C1175 1.391 . S
N1178 C1179 1.388 . S
C1179 H1150 0.930 . S
C1179 C1174 1.391 . S
C1179 N1178 1.388 . S
Co1180 O1182 2.143 . S
Co1180 O1188 2.074 . S
Co1180 O1191 2.093 . S
Co1180 O1204 2.097 . S
Co1180 N1221 2.151 . S
Co1180 N1229 2.214 . S
Co1181 O1182 2.160 . S
Co1181 O1187 2.058 . S
Co1181 O1197 2.057 . S
Co1181 O1212 2.037 . S
Co1181 N1216 2.145 . S
Co1181 N1237 2.257 . S
O1182 Co1180 2.143 . S
O1182 Co1181 2.160 . S
C1183 O1184 1.278 . S
C1183 O1191 1.224 . S
O1184 C1183 1.278 . S
C1185 O1186 1.245 . S
C1185 O1197 1.232 . S
O1186 C1185 1.245 . S
O1187 Co1181 2.058 . S
O1187 C1213 1.269 . S
O1188 Co1180 2.074 . S
O1188 C1213 1.257 . S
H1189 C1214 0.930 . S
H1190 C1220 0.930 . S
O1191 Co1180 2.093 . S
O1191 C1183 1.224 . S
H1192 C1224 0.929 . S
H1193 C1226 0.930 . S
H1194 C1227 0.930 . S
H1195 C1225 0.929 . S
H1196 C1228 0.928 . S
O1197 Co1181 2.057 . S
O1197 C1185 1.232 . S
H1198 C1217 0.929 . S
H1199 C1218 0.929 . S
H1200 C1230 0.931 . S
H1201 C1222 0.929 . S
H1202 C1231 0.930 . S
H1203 C1223 0.931 . S
O1204 Co1180 2.097 . S
O1204 C1232 1.214 . S
H1205 C1233 0.929 . S
H1206 C1234 0.929 . S
H1207 C1235 0.930 . S
H1208 C1236 0.929 . S
H1209 C1238 0.930 . S
H1210 C1215 0.930 . S
H1211 C1219 0.930 . S
O1212 Co1181 2.037 . S
O1212 C1232 1.234 . S
C1213 O1187 1.269 . S
C1213 O1188 1.257 . S
C1214 H1189 0.930 . S
C1214 C1217 1.388 . S
C1214 C1219 1.418 . S
C1215 H1210 0.930 . S
C1215 C1218 1.404 . S
C1215 C1219 1.353 . S
N1216 Co1181 2.145 . S
N1216 C1217 1.397 . S
N1216 C1218 1.334 . S
C1217 H1198 0.929 . S
C1217 C1214 1.388 . S
C1217 N1216 1.397 . S
C1218 H1199 0.929 . S
C1218 C1215 1.404 . S
C1218 N1216 1.334 . S
C1219 H1211 0.930 . S
C1219 C1214 1.418 . S
C1219 C1215 1.353 . S
C1220 H1190 0.930 . S
C1220 N1221 1.330 . S
C1220 C1222 1.446 . S
N1221 Co1180 2.151 . S
N1221 C1220 1.330 . S
N1221 C1225 1.418 . S
C1222 H1201 0.929 . S
C1222 C1220 1.446 . S
C1222 C1223 1.332 . S
C1223 H1203 0.931 . S
C1223 C1222 1.332 . S
C1223 C1224 1.267 . S
C1224 H1192 0.929 . S
C1224 C1223 1.267 . S
C1224 C1225 1.251 . S
C1225 H1195 0.929 . S
C1225 N1221 1.418 . S
C1225 C1224 1.251 . S
C1226 H1193 0.930 . S
C1226 C1228 1.406 . S
C1226 C1231 1.261 . S
C1227 H1194 0.930 . S
C1227 N1229 1.325 . S
C1227 C1230 1.357 . S
C1228 H1196 0.928 . S
C1228 C1226 1.406 . S
C1228 N1229 1.261 . S
N1229 Co1180 2.214 . S
N1229 C1227 1.325 . S
N1229 C1228 1.261 . S
C1230 H1200 0.931 . S
C1230 C1227 1.357 . S
C1230 C1231 1.312 . S
C1231 H1202 0.930 . S
C1231 C1226 1.261 . S
C1231 C1230 1.312 . S
C1232 O1204 1.214 . S
C1232 O1212 1.234 . S
C1233 H1205 0.929 . S
C1233 C1236 1.391 . S
C1233 C1238 1.391 . S
C1234 H1206 0.929 . S
C1234 C1235 1.390 . S
C1234 N1237 1.391 . S
C1235 H1207 0.930 . S
C1235 C1234 1.390 . S
C1235 C1236 1.392 . S
C1236 H1208 0.929 . S
C1236 C1233 1.391 . S
C1236 C1235 1.392 . S
N1237 Co1181 2.257 . S
N1237 C1234 1.391 . S
N1237 C1238 1.388 . S
C1238 H1209 0.930 . S
C1238 C1233 1.391 . S
C1238 N1237 1.388 . S
Co1239 O1241 2.143 . S
Co1239 O1247 2.074 . S
Co1239 O1250 2.093 . S
Co1239 O1263 2.097 . S
Co1239 N1280 2.151 . S
Co1239 N1288 2.214 . S
Co1240 O1241 2.160 . S
Co1240 O1246 2.058 . S
Co1240 O1256 2.057 . S
Co1240 O1271 2.037 . S
Co1240 N1275 2.145 . S
Co1240 N1296 2.257 . S
O1241 Co1239 2.143 . S
O1241 Co1240 2.160 . S
C1242 O1243 1.278 . S
C1242 O1250 1.224 . S
O1243 C1242 1.278 . S
C1244 O1245 1.245 . S
C1244 O1256 1.232 . S
O1245 C1244 1.245 . S
O1246 Co1240 2.058 . S
O1246 C1272 1.269 . S
O1247 Co1239 2.074 . S
O1247 C1272 1.257 . S
H1248 C1273 0.930 . S
H1249 C1279 0.930 . S
O1250 Co1239 2.093 . S
O1250 C1242 1.224 . S
H1251 C1283 0.929 . S
H1252 C1285 0.930 . S
H1253 C1286 0.930 . S
H1254 C1284 0.929 . S
H1255 C1287 0.928 . S
O1256 Co1240 2.057 . S
O1256 C1244 1.232 . S
H1257 C1276 0.929 . S
H1258 C1277 0.929 . S
H1259 C1289 0.931 . S
H1260 C1281 0.929 . S
H1261 C1290 0.930 . S
H1262 C1282 0.931 . S
O1263 Co1239 2.097 . S
O1263 C1291 1.214 . S
H1264 C1292 0.929 . S
H1265 C1293 0.929 . S
H1266 C1294 0.930 . S
H1267 C1295 0.929 . S
H1268 C1297 0.930 . S
H1269 C1274 0.930 . S
H1270 C1278 0.930 . S
O1271 Co1240 2.037 . S
O1271 C1291 1.234 . S
C1272 O1246 1.269 . S
C1272 O1247 1.257 . S
C1273 H1248 0.930 . S
C1273 C1276 1.388 . S
C1273 C1278 1.418 . S
C1274 H1269 0.930 . S
C1274 C1277 1.404 . S
C1274 C1278 1.353 . S
N1275 Co1240 2.145 . S
N1275 C1276 1.397 . S
N1275 C1277 1.334 . S
C1276 H1257 0.929 . S
C1276 C1273 1.388 . S
C1276 N1275 1.397 . S
C1277 H1258 0.929 . S
C1277 C1274 1.404 . S
C1277 N1275 1.334 . S
C1278 H1270 0.930 . S
C1278 C1273 1.418 . S
C1278 C1274 1.353 . S
C1279 H1249 0.930 . S
C1279 N1280 1.330 . S
C1279 C1281 1.446 . S
N1280 Co1239 2.151 . S
N1280 C1279 1.330 . S
N1280 C1284 1.418 . S
C1281 H1260 0.929 . S
C1281 C1279 1.446 . S
C1281 C1282 1.332 . S
C1282 H1262 0.931 . S
C1282 C1281 1.332 . S
C1282 C1283 1.267 . S
C1283 H1251 0.929 . S
C1283 C1282 1.267 . S
C1283 C1284 1.251 . S
C1284 H1254 0.929 . S
C1284 N1280 1.418 . S
C1284 C1283 1.251 . S
C1285 H1252 0.930 . S
C1285 C1287 1.406 . S
C1285 C1290 1.261 . S
C1286 H1253 0.930 . S
C1286 N1288 1.325 . S
C1286 C1289 1.357 . S
C1287 H1255 0.928 . S
C1287 C1285 1.406 . S
C1287 N1288 1.261 . S
N1288 Co1239 2.214 . S
N1288 C1286 1.325 . S
N1288 C1287 1.261 . S
C1289 H1259 0.931 . S
C1289 C1286 1.357 . S
C1289 C1290 1.312 . S
C1290 H1261 0.930 . S
C1290 C1285 1.261 . S
C1290 C1289 1.312 . S
C1291 O1263 1.214 . S
C1291 O1271 1.234 . S
C1292 H1264 0.929 . S
C1292 C1295 1.391 . S
C1292 C1297 1.391 . S
C1293 H1265 0.929 . S
C1293 C1294 1.390 . S
C1293 N1296 1.391 . S
C1294 H1266 0.930 . S
C1294 C1293 1.390 . S
C1294 C1295 1.392 . S
C1295 H1267 0.929 . S
C1295 C1292 1.391 . S
C1295 C1294 1.392 . S
N1296 Co1240 2.257 . S
N1296 C1293 1.391 . S
N1296 C1297 1.388 . S
C1297 H1268 0.930 . S
C1297 C1292 1.391 . S
C1297 N1296 1.388 . S
Co1298 O1300 2.143 . S
Co1298 O1306 2.074 . S
Co1298 O1309 2.093 . S
Co1298 O1322 2.097 . S
Co1298 N1339 2.151 . S
Co1298 N1347 2.214 . S
Co1299 O1300 2.160 . S
Co1299 O1305 2.058 . S
Co1299 O1315 2.057 . S
Co1299 O1330 2.037 . S
Co1299 N1334 2.145 . S
Co1299 N1355 2.257 . S
O1300 Co1298 2.143 . S
O1300 Co1299 2.160 . S
C1301 O1302 1.278 . S
C1301 O1309 1.224 . S
O1302 C1301 1.278 . S
C1303 O1304 1.245 . S
C1303 O1315 1.232 . S
O1304 C1303 1.245 . S
O1305 Co1299 2.058 . S
O1305 C1331 1.269 . S
O1306 Co1298 2.074 . S
O1306 C1331 1.257 . S
H1307 C1332 0.930 . S
H1308 C1338 0.930 . S
O1309 Co1298 2.093 . S
O1309 C1301 1.224 . S
H1310 C1342 0.929 . S
H1311 C1344 0.930 . S
H1312 C1345 0.930 . S
H1313 C1343 0.929 . S
H1314 C1346 0.928 . S
O1315 Co1299 2.057 . S
O1315 C1303 1.232 . S
H1316 C1335 0.929 . S
H1317 C1336 0.929 . S
H1318 C1348 0.931 . S
H1319 C1340 0.929 . S
H1320 C1349 0.930 . S
H1321 C1341 0.931 . S
O1322 Co1298 2.097 . S
O1322 C1350 1.214 . S
H1323 C1351 0.929 . S
H1324 C1352 0.929 . S
H1325 C1353 0.930 . S
H1326 C1354 0.929 . S
H1327 C1356 0.930 . S
H1328 C1333 0.930 . S
H1329 C1337 0.930 . S
O1330 Co1299 2.037 . S
O1330 C1350 1.234 . S
C1331 O1305 1.269 . S
C1331 O1306 1.257 . S
C1332 H1307 0.930 . S
C1332 C1335 1.388 . S
C1332 C1337 1.418 . S
C1333 H1328 0.930 . S
C1333 C1336 1.404 . S
C1333 C1337 1.353 . S
N1334 Co1299 2.145 . S
N1334 C1335 1.397 . S
N1334 C1336 1.334 . S
C1335 H1316 0.929 . S
C1335 C1332 1.388 . S
C1335 N1334 1.397 . S
C1336 H1317 0.929 . S
C1336 C1333 1.404 . S
C1336 N1334 1.334 . S
C1337 H1329 0.930 . S
C1337 C1332 1.418 . S
C1337 C1333 1.353 . S
C1338 H1308 0.930 . S
C1338 N1339 1.330 . S
C1338 C1340 1.446 . S
N1339 Co1298 2.151 . S
N1339 C1338 1.330 . S
N1339 C1343 1.418 . S
C1340 H1319 0.929 . S
C1340 C1338 1.446 . S
C1340 C1341 1.332 . S
C1341 H1321 0.931 . S
C1341 C1340 1.332 . S
C1341 C1342 1.267 . S
C1342 H1310 0.929 . S
C1342 C1341 1.267 . S
C1342 C1343 1.251 . S
C1343 H1313 0.929 . S
C1343 N1339 1.418 . S
C1343 C1342 1.251 . S
C1344 H1311 0.930 . S
C1344 C1346 1.406 . S
C1344 C1349 1.261 . S
C1345 H1312 0.930 . S
C1345 N1347 1.325 . S
C1345 C1348 1.357 . S
C1346 H1314 0.928 . S
C1346 C1344 1.406 . S
C1346 N1347 1.261 . S
N1347 Co1298 2.214 . S
N1347 C1345 1.325 . S
N1347 C1346 1.261 . S
C1348 H1318 0.931 . S
C1348 C1345 1.357 . S
C1348 C1349 1.312 . S
C1349 H1320 0.930 . S
C1349 C1344 1.261 . S
C1349 C1348 1.312 . S
C1350 O1322 1.214 . S
C1350 O1330 1.234 . S
C1351 H1323 0.929 . S
C1351 C1354 1.391 . S
C1351 C1356 1.391 . S
C1352 H1324 0.929 . S
C1352 C1353 1.390 . S
C1352 N1355 1.391 . S
C1353 H1325 0.930 . S
C1353 C1352 1.390 . S
C1353 C1354 1.392 . S
C1354 H1326 0.929 . S
C1354 C1351 1.391 . S
C1354 C1353 1.392 . S
N1355 Co1299 2.257 . S
N1355 C1352 1.391 . S
N1355 C1356 1.388 . S
C1356 H1327 0.930 . S
C1356 C1351 1.391 . S
C1356 N1355 1.388 . S
Co1357 O1359 2.143 . S
Co1357 O1365 2.074 . S
Co1357 O1368 2.093 . S
Co1357 O1381 2.097 . S
Co1357 N1398 2.151 . S
Co1357 N1406 2.214 . S
Co1358 O1359 2.160 . S
Co1358 O1364 2.058 . S
Co1358 O1374 2.057 . S
Co1358 O1389 2.037 . S
Co1358 N1393 2.145 . S
Co1358 N1414 2.257 . S
O1359 Co1357 2.143 . S
O1359 Co1358 2.160 . S
C1360 O1361 1.278 . S
C1360 O1368 1.224 . S
O1361 C1360 1.278 . S
C1362 O1363 1.245 . S
C1362 O1374 1.232 . S
O1363 C1362 1.245 . S
O1364 Co1358 2.058 . S
O1364 C1390 1.269 . S
O1365 Co1357 2.074 . S
O1365 C1390 1.257 . S
H1366 C1391 0.930 . S
H1367 C1397 0.930 . S
O1368 Co1357 2.093 . S
O1368 C1360 1.224 . S
H1369 C1401 0.929 . S
H1370 C1403 0.930 . S
H1371 C1404 0.930 . S
H1372 C1402 0.929 . S
H1373 C1405 0.928 . S
O1374 Co1358 2.057 . S
O1374 C1362 1.232 . S
H1375 C1394 0.929 . S
H1376 C1395 0.929 . S
H1377 C1407 0.931 . S
H1378 C1399 0.929 . S
H1379 C1408 0.930 . S
H1380 C1400 0.931 . S
O1381 Co1357 2.097 . S
O1381 C1409 1.214 . S
H1382 C1410 0.929 . S
H1383 C1411 0.929 . S
H1384 C1412 0.930 . S
H1385 C1413 0.929 . S
H1386 C1415 0.930 . S
H1387 C1392 0.930 . S
H1388 C1396 0.930 . S
O1389 Co1358 2.037 . S
O1389 C1409 1.234 . S
C1390 O1364 1.269 . S
C1390 O1365 1.257 . S
C1391 H1366 0.930 . S
C1391 C1394 1.388 . S
C1391 C1396 1.418 . S
C1392 H1387 0.930 . S
C1392 C1395 1.404 . S
C1392 C1396 1.353 . S
N1393 Co1358 2.145 . S
N1393 C1394 1.397 . S
N1393 C1395 1.334 . S
C1394 H1375 0.929 . S
C1394 C1391 1.388 . S
C1394 N1393 1.397 . S
C1395 H1376 0.929 . S
C1395 C1392 1.404 . S
C1395 N1393 1.334 . S
C1396 H1388 0.930 . S
C1396 C1391 1.418 . S
C1396 C1392 1.353 . S
C1397 H1367 0.930 . S
C1397 N1398 1.330 . S
C1397 C1399 1.446 . S
N1398 Co1357 2.151 . S
N1398 C1397 1.330 . S
N1398 C1402 1.418 . S
C1399 H1378 0.929 . S
C1399 C1397 1.446 . S
C1399 C1400 1.332 . S
C1400 H1380 0.931 . S
C1400 C1399 1.332 . S
C1400 C1401 1.267 . S
C1401 H1369 0.929 . S
C1401 C1400 1.267 . S
C1401 C1402 1.251 . S
C1402 H1372 0.929 . S
C1402 N1398 1.418 . S
C1402 C1401 1.251 . S
C1403 H1370 0.930 . S
C1403 C1405 1.406 . S
C1403 C1408 1.261 . S
C1404 H1371 0.930 . S
C1404 N1406 1.325 . S
C1404 C1407 1.357 . S
C1405 H1373 0.928 . S
C1405 C1403 1.406 . S
C1405 N1406 1.261 . S
N1406 Co1357 2.214 . S
N1406 C1404 1.325 . S
N1406 C1405 1.261 . S
C1407 H1377 0.931 . S
C1407 C1404 1.357 . S
C1407 C1408 1.312 . S
C1408 H1379 0.930 . S
C1408 C1403 1.261 . S
C1408 C1407 1.312 . S
C1409 O1381 1.214 . S
C1409 O1389 1.234 . S
C1410 H1382 0.929 . S
C1410 C1413 1.391 . S
C1410 C1415 1.391 . S
C1411 H1383 0.929 . S
C1411 C1412 1.390 . S
C1411 N1414 1.391 . S
C1412 H1384 0.930 . S
C1412 C1411 1.390 . S
C1412 C1413 1.392 . S
C1413 H1385 0.929 . S
C1413 C1410 1.391 . S
C1413 C1412 1.392 . S
N1414 Co1358 2.257 . S
N1414 C1411 1.391 . S
N1414 C1415 1.388 . S
C1415 H1386 0.930 . S
C1415 C1410 1.391 . S
C1415 N1414 1.388 . S
H1416 C1422 0.930 . S
H1417 C1426 0.930 . S
H1418 C1431 0.929 . S
H1419 C1429 0.929 . S
H1420 C1424 0.929 . S
H1421 C1430 0.929 . S
C1422 H1416 0.930 . S
C1422 C1423 1.367 . S
C1422 C1430 1.378 . S
C1423 C1422 1.367 . S
C1423 C1431 1.433 . S
C1424 H1420 0.929 . S
C1424 C1426 1.378 . S
C1424 C1428 1.350 . S
C1425 C1428 1.463 . S
C1425 C1430 1.350 . S
C1425 N1433 1.427 . S
C1426 H1417 0.930 . S
C1426 C1424 1.378 . S
C1426 C1427 1.367 . S
C1427 C1426 1.367 . S
C1427 C1429 1.433 . S
C1428 C1424 1.350 . S
C1428 C1425 1.463 . S
C1428 N1432 1.427 . S
C1429 H1419 0.929 . S
C1429 C1427 1.433 . S
C1429 N1432 1.384 . S
C1430 H1421 0.929 . S
C1430 C1422 1.378 . S
C1430 C1425 1.350 . S
C1431 H1418 0.929 . S
C1431 C1423 1.433 . S
C1431 N1433 1.384 . S
N1432 C1428 1.427 . S
N1432 C1429 1.384 . S
N1433 C1425 1.427 . S
N1433 C1431 1.384 . S
H1434 C1440 0.930 . S
H1435 C1444 0.930 . S
H1436 C1449 0.929 . S
H1437 C1447 0.929 . S
H1438 C1442 0.929 . S
H1439 C1448 0.929 . S
C1440 H1434 0.930 . S
C1440 C1441 1.367 . S
C1440 C1448 1.378 . S
C1441 C1440 1.367 . S
C1441 C1449 1.433 . S
C1442 H1438 0.929 . S
C1442 C1444 1.378 . S
C1442 C1446 1.350 . S
C1443 C1446 1.463 . S
C1443 C1448 1.350 . S
C1443 N1451 1.427 . S
C1444 H1435 0.930 . S
C1444 C1442 1.378 . S
C1444 C1445 1.367 . S
C1445 C1444 1.367 . S
C1445 C1447 1.433 . S
C1446 C1442 1.350 . S
C1446 C1443 1.463 . S
C1446 N1450 1.427 . S
C1447 H1437 0.929 . S
C1447 C1445 1.433 . S
C1447 N1450 1.384 . S
C1448 H1439 0.929 . S
C1448 C1440 1.378 . S
C1448 C1443 1.350 . S
C1449 H1436 0.929 . S
C1449 C1441 1.433 . S
C1449 N1451 1.384 . S
N1450 C1446 1.427 . S
N1450 C1447 1.384 . S
N1451 C1443 1.427 . S
N1451 C1449 1.384 . S
H1452 C1458 0.930 . S
H1453 C1462 0.930 . S
H1454 C1467 0.929 . S
H1455 C1465 0.929 . S
H1456 C1460 0.929 . S
H1457 C1466 0.929 . S
C1458 H1452 0.930 . S
C1458 C1459 1.367 . S
C1458 C1466 1.378 . S
C1459 C1458 1.367 . S
C1459 C1467 1.433 . S
C1460 H1456 0.929 . S
C1460 C1462 1.378 . S
C1460 C1464 1.350 . S
C1461 C1464 1.463 . S
C1461 C1466 1.350 . S
C1461 N1469 1.427 . S
C1462 H1453 0.930 . S
C1462 C1460 1.378 . S
C1462 C1463 1.367 . S
C1463 C1462 1.367 . S
C1463 C1465 1.433 . S
C1464 C1460 1.350 . S
C1464 C1461 1.463 . S
C1464 N1468 1.427 . S
C1465 H1455 0.929 . S
C1465 C1463 1.433 . S
C1465 N1468 1.384 . S
C1466 H1457 0.929 . S
C1466 C1458 1.378 . S
C1466 C1461 1.350 . S
C1467 H1454 0.929 . S
C1467 C1459 1.433 . S
C1467 N1469 1.384 . S
N1468 C1464 1.427 . S
N1468 C1465 1.384 . S
N1469 C1461 1.427 . S
N1469 C1467 1.384 . S
H1470 C1476 0.930 . S
H1471 C1480 0.930 . S
H1472 C1485 0.929 . S
H1473 C1483 0.929 . S
H1474 C1478 0.929 . S
H1475 C1484 0.929 . S
C1476 H1470 0.930 . S
C1476 C1477 1.367 . S
C1476 C1484 1.378 . S
C1477 C1476 1.367 . S
C1477 C1485 1.433 . S
C1478 H1474 0.929 . S
C1478 C1480 1.378 . S
C1478 C1482 1.350 . S
C1479 C1482 1.463 . S
C1479 C1484 1.350 . S
C1479 N1487 1.427 . S
C1480 H1471 0.930 . S
C1480 C1478 1.378 . S
C1480 C1481 1.367 . S
C1481 C1480 1.367 . S
C1481 C1483 1.433 . S
C1482 C1478 1.350 . S
C1482 C1479 1.463 . S
C1482 N1486 1.427 . S
C1483 H1473 0.929 . S
C1483 C1481 1.433 . S
C1483 N1486 1.384 . S
C1484 H1475 0.929 . S
C1484 C1476 1.378 . S
C1484 C1479 1.350 . S
C1485 H1472 0.929 . S
C1485 C1477 1.433 . S
C1485 N1487 1.384 . S
N1486 C1482 1.427 . S
N1486 C1483 1.384 . S
N1487 C1479 1.427 . S
N1487 C1485 1.384 . S
H1488 C1494 0.930 . S
H1489 C1498 0.930 . S
H1490 C1503 0.929 . S
H1491 C1501 0.929 . S
H1492 C1496 0.929 . S
H1493 C1502 0.929 . S
C1494 H1488 0.930 . S
C1494 C1495 1.367 . S
C1494 C1502 1.378 . S
C1495 C1494 1.367 . S
C1495 C1503 1.433 . S
C1496 H1492 0.929 . S
C1496 C1498 1.378 . S
C1496 C1500 1.350 . S
C1497 C1500 1.463 . S
C1497 C1502 1.350 . S
C1497 N1505 1.427 . S
C1498 H1489 0.930 . S
C1498 C1496 1.378 . S
C1498 C1499 1.367 . S
C1499 C1498 1.367 . S
C1499 C1501 1.433 . S
C1500 C1496 1.350 . S
C1500 C1497 1.463 . S
C1500 N1504 1.427 . S
C1501 H1491 0.929 . S
C1501 C1499 1.433 . S
C1501 N1504 1.384 . S
C1502 H1493 0.929 . S
C1502 C1494 1.378 . S
C1502 C1497 1.350 . S
C1503 H1490 0.929 . S
C1503 C1495 1.433 . S
C1503 N1505 1.384 . S
N1504 C1500 1.427 . S
N1504 C1501 1.384 . S
N1505 C1497 1.427 . S
N1505 C1503 1.384 . S
H1506 C1512 0.930 . S
H1507 C1516 0.930 . S
H1508 C1521 0.929 . S
H1509 C1519 0.929 . S
H1510 C1514 0.929 . S
H1511 C1520 0.929 . S
C1512 H1506 0.930 . S
C1512 C1513 1.367 . S
C1512 C1520 1.378 . S
C1513 C1512 1.367 . S
C1513 C1521 1.433 . S
C1514 H1510 0.929 . S
C1514 C1516 1.378 . S
C1514 C1518 1.350 . S
C1515 C1518 1.463 . S
C1515 C1520 1.350 . S
C1515 N1523 1.427 . S
C1516 H1507 0.930 . S
C1516 C1514 1.378 . S
C1516 C1517 1.367 . S
C1517 C1516 1.367 . S
C1517 C1519 1.433 . S
C1518 C1514 1.350 . S
C1518 C1515 1.463 . S
C1518 N1522 1.427 . S
C1519 H1509 0.929 . S
C1519 C1517 1.433 . S
C1519 N1522 1.384 . S
C1520 H1511 0.929 . S
C1520 C1512 1.378 . S
C1520 C1515 1.350 . S
C1521 H1508 0.929 . S
C1521 C1513 1.433 . S
C1521 N1523 1.384 . S
N1522 C1518 1.427 . S
N1522 C1519 1.384 . S
N1523 C1515 1.427 . S
N1523 C1521 1.384 . S
H1524 C1530 0.930 . S
H1525 C1534 0.930 . S
H1526 C1539 0.929 . S
H1527 C1537 0.929 . S
H1528 C1532 0.929 . S
H1529 C1538 0.929 . S
C1530 H1524 0.930 . S
C1530 C1531 1.367 . S
C1530 C1538 1.378 . S
C1531 C1530 1.367 . S
C1531 C1539 1.433 . S
C1532 H1528 0.929 . S
C1532 C1534 1.378 . S
C1532 C1536 1.350 . S
C1533 C1536 1.463 . S
C1533 C1538 1.350 . S
C1533 N1541 1.427 . S
C1534 H1525 0.930 . S
C1534 C1532 1.378 . S
C1534 C1535 1.367 . S
C1535 C1534 1.367 . S
C1535 C1537 1.433 . S
C1536 C1532 1.350 . S
C1536 C1533 1.463 . S
C1536 N1540 1.427 . S
C1537 H1527 0.929 . S
C1537 C1535 1.433 . S
C1537 N1540 1.384 . S
C1538 H1529 0.929 . S
C1538 C1530 1.378 . S
C1538 C1533 1.350 . S
C1539 H1526 0.929 . S
C1539 C1531 1.433 . S
C1539 N1541 1.384 . S
N1540 C1536 1.427 . S
N1540 C1537 1.384 . S
N1541 C1533 1.427 . S
N1541 C1539 1.384 . S
H1542 C1548 0.930 . S
H1543 C1552 0.930 . S
H1544 C1557 0.929 . S
H1545 C1555 0.929 . S
H1546 C1550 0.929 . S
H1547 C1556 0.929 . S
C1548 H1542 0.930 . S
C1548 C1549 1.367 . S
C1548 C1556 1.378 . S
C1549 C1548 1.367 . S
C1549 C1557 1.433 . S
C1550 H1546 0.929 . S
C1550 C1552 1.378 . S
C1550 C1554 1.350 . S
C1551 C1554 1.463 . S
C1551 C1556 1.350 . S
C1551 N1559 1.427 . S
C1552 H1543 0.930 . S
C1552 C1550 1.378 . S
C1552 C1553 1.367 . S
C1553 C1552 1.367 . S
C1553 C1555 1.433 . S
C1554 C1550 1.350 . S
C1554 C1551 1.463 . S
C1554 N1558 1.427 . S
C1555 H1545 0.929 . S
C1555 C1553 1.433 . S
C1555 N1558 1.384 . S
C1556 H1547 0.929 . S
C1556 C1548 1.378 . S
C1556 C1551 1.350 . S
C1557 H1544 0.929 . S
C1557 C1549 1.433 . S
C1557 N1559 1.384 . S
N1558 C1554 1.427 . S
N1558 C1555 1.384 . S
N1559 C1551 1.427 . S
N1559 C1557 1.384 . S
H1560 C1566 0.930 . S
H1561 C1570 0.930 . S
H1562 C1575 0.929 . S
H1563 C1573 0.929 . S
H1564 C1568 0.929 . S
H1565 C1574 0.929 . S
C1566 H1560 0.930 . S
C1566 C1567 1.367 . S
C1566 C1574 1.378 . S
C1567 C1566 1.367 . S
C1567 C1575 1.433 . S
C1568 H1564 0.929 . S
C1568 C1570 1.378 . S
C1568 C1572 1.350 . S
C1569 C1572 1.463 . S
C1569 C1574 1.350 . S
C1569 N1577 1.427 . S
C1570 H1561 0.930 . S
C1570 C1568 1.378 . S
C1570 C1571 1.367 . S
C1571 C1570 1.367 . S
C1571 C1573 1.433 . S
C1572 C1568 1.350 . S
C1572 C1569 1.463 . S
C1572 N1576 1.427 . S
C1573 H1563 0.929 . S
C1573 C1571 1.433 . S
C1573 N1576 1.384 . S
C1574 H1565 0.929 . S
C1574 C1566 1.378 . S
C1574 C1569 1.350 . S
C1575 H1562 0.929 . S
C1575 C1567 1.433 . S
C1575 N1577 1.384 . S
N1576 C1572 1.427 . S
N1576 C1573 1.384 . S
N1577 C1569 1.427 . S
N1577 C1575 1.384 . S
H1578 C1584 0.930 . S
H1579 C1588 0.930 . S
H1580 C1593 0.929 . S
H1581 C1591 0.929 . S
H1582 C1586 0.929 . S
H1583 C1592 0.929 . S
C1584 H1578 0.930 . S
C1584 C1585 1.367 . S
C1584 C1592 1.378 . S
C1585 C1584 1.367 . S
C1585 C1593 1.433 . S
C1586 H1582 0.929 . S
C1586 C1588 1.378 . S
C1586 C1590 1.350 . S
C1587 C1590 1.463 . S
C1587 C1592 1.350 . S
C1587 N1595 1.427 . S
C1588 H1579 0.930 . S
C1588 C1586 1.378 . S
C1588 C1589 1.367 . S
C1589 C1588 1.367 . S
C1589 C1591 1.433 . S
C1590 C1586 1.350 . S
C1590 C1587 1.463 . S
C1590 N1594 1.427 . S
C1591 H1581 0.929 . S
C1591 C1589 1.433 . S
C1591 N1594 1.384 . S
C1592 H1583 0.929 . S
C1592 C1584 1.378 . S
C1592 C1587 1.350 . S
C1593 H1580 0.929 . S
C1593 C1585 1.433 . S
C1593 N1595 1.384 . S
N1594 C1590 1.427 . S
N1594 C1591 1.384 . S
N1595 C1587 1.427 . S
N1595 C1593 1.384 . S
H1596 C1602 0.930 . S
H1597 C1606 0.930 . S
H1598 C1611 0.929 . S
H1599 C1609 0.929 . S
H1600 C1604 0.929 . S
H1601 C1610 0.929 . S
C1602 H1596 0.930 . S
C1602 C1603 1.367 . S
C1602 C1610 1.378 . S
C1603 C1602 1.367 . S
C1603 C1611 1.433 . S
C1604 H1600 0.929 . S
C1604 C1606 1.378 . S
C1604 C1608 1.350 . S
C1605 C1608 1.463 . S
C1605 C1610 1.350 . S
C1605 N1613 1.427 . S
C1606 H1597 0.930 . S
C1606 C1604 1.378 . S
C1606 C1607 1.367 . S
C1607 C1606 1.367 . S
C1607 C1609 1.433 . S
C1608 C1604 1.350 . S
C1608 C1605 1.463 . S
C1608 N1612 1.427 . S
C1609 H1599 0.929 . S
C1609 C1607 1.433 . S
C1609 N1612 1.384 . S
C1610 H1601 0.929 . S
C1610 C1602 1.378 . S
C1610 C1605 1.350 . S
C1611 H1598 0.929 . S
C1611 C1603 1.433 . S
C1611 N1613 1.384 . S
N1612 C1608 1.427 . S
N1612 C1609 1.384 . S
N1613 C1605 1.427 . S
N1613 C1611 1.384 . S
H1614 C1620 0.930 . S
H1615 C1624 0.930 . S
H1616 C1629 0.929 . S
H1617 C1627 0.929 . S
H1618 C1622 0.929 . S
H1619 C1628 0.929 . S
C1620 H1614 0.930 . S
C1620 C1621 1.367 . S
C1620 C1628 1.378 . S
C1621 C1620 1.367 . S
C1621 C1629 1.433 . S
C1622 H1618 0.929 . S
C1622 C1624 1.378 . S
C1622 C1626 1.350 . S
C1623 C1626 1.463 . S
C1623 C1628 1.350 . S
C1623 N1631 1.427 . S
C1624 H1615 0.930 . S
C1624 C1622 1.378 . S
C1624 C1625 1.367 . S
C1625 C1624 1.367 . S
C1625 C1627 1.433 . S
C1626 C1622 1.350 . S
C1626 C1623 1.463 . S
C1626 N1630 1.427 . S
C1627 H1617 0.929 . S
C1627 C1625 1.433 . S
C1627 N1630 1.384 . S
C1628 H1619 0.929 . S
C1628 C1620 1.378 . S
C1628 C1623 1.350 . S
C1629 H1616 0.929 . S
C1629 C1621 1.433 . S
C1629 N1631 1.384 . S
N1630 C1626 1.427 . S
N1630 C1627 1.384 . S
N1631 C1623 1.427 . S
N1631 C1629 1.384 . S
H1632 C1638 0.930 . S
H1633 C1642 0.930 . S
H1634 C1647 0.929 . S
H1635 C1645 0.929 . S
H1636 C1640 0.929 . S
H1637 C1646 0.929 . S
C1638 H1632 0.930 . S
C1638 C1639 1.367 . S
C1638 C1646 1.378 . S
C1639 C1638 1.367 . S
C1639 C1647 1.433 . S
C1640 H1636 0.929 . S
C1640 C1642 1.378 . S
C1640 C1644 1.350 . S
C1641 C1644 1.463 1_565 S
C1641 C1646 1.350 . S
C1641 N1649 1.427 . S
C1642 H1633 0.930 . S
C1642 C1640 1.378 . S
C1642 C1643 1.367 . S
C1643 C1642 1.367 . S
C1643 C1645 1.433 . S
C1644 C1640 1.350 . S
C1644 C1641 1.463 1_545 S
C1644 N1648 1.427 . S
C1645 H1635 0.929 . S
C1645 C1643 1.433 . S
C1645 N1648 1.384 . S
C1646 H1637 0.929 . S
C1646 C1638 1.378 . S
C1646 C1641 1.350 . S
C1647 H1634 0.929 . S
C1647 C1639 1.433 . S
C1647 N1649 1.384 . S
N1648 C1644 1.427 . S
N1648 C1645 1.384 . S
N1649 C1641 1.427 . S
N1649 C1647 1.384 . S
H1650 C1656 0.930 . S
H1651 C1660 0.930 . S
H1652 C1665 0.929 . S
H1653 C1663 0.929 . S
H1654 C1658 0.929 1_655 S
H1655 C1664 0.929 1_455 S
C1656 H1650 0.930 . S
C1656 C1657 1.367 . S
C1656 C1664 1.378 . S
C1657 C1656 1.367 . S
C1657 C1665 1.433 . S
C1658 H1654 0.929 1_455 S
C1658 C1660 1.378 . S
C1658 C1662 1.350 . S
C1659 C1662 1.463 1_655 S
C1659 C1664 1.350 . S
C1659 N1667 1.427 . S
C1660 H1651 0.930 . S
C1660 C1658 1.378 . S
C1660 C1661 1.367 . S
C1661 C1660 1.367 . S
C1661 C1663 1.433 . S
C1662 C1658 1.350 . S
C1662 C1659 1.463 1_455 S
C1662 N1666 1.427 . S
C1663 H1653 0.929 . S
C1663 C1661 1.433 . S
C1663 N1666 1.384 . S
C1664 H1655 0.929 1_655 S
C1664 C1656 1.378 . S
C1664 C1659 1.350 . S
C1665 H1652 0.929 . S
C1665 C1657 1.433 . S
C1665 N1667 1.384 . S
N1666 C1662 1.427 . S
N1666 C1663 1.384 . S
N1667 C1659 1.427 . S
N1667 C1665 1.384 . S
H1668 C1674 0.930 . S
H1669 C1678 0.930 . S
H1670 C1683 0.929 . S
H1671 C1681 0.929 . S
H1672 C1676 0.929 1_545 S
H1673 C1682 0.929 1_565 S
C1674 H1668 0.930 . S
C1674 C1675 1.367 . S
C1674 C1682 1.378 . S
C1675 C1674 1.367 . S
C1675 C1683 1.433 . S
C1676 H1672 0.929 1_565 S
C1676 C1678 1.378 . S
C1676 C1680 1.350 . S
C1677 C1680 1.463 1_545 S
C1677 C1682 1.350 . S
C1677 N1685 1.427 . S
C1678 H1669 0.930 . S
C1678 C1676 1.378 . S
C1678 C1679 1.367 . S
C1679 C1678 1.367 . S
C1679 C1681 1.433 . S
C1680 C1676 1.350 . S
C1680 C1677 1.463 1_565 S
C1680 N1684 1.427 . S
C1681 H1671 0.929 . S
C1681 C1679 1.433 . S
C1681 N1684 1.384 . S
C1682 H1673 0.929 1_545 S
C1682 C1674 1.378 . S
C1682 C1677 1.350 . S
C1683 H1670 0.929 . S
C1683 C1675 1.433 . S
C1683 N1685 1.384 . S
N1684 C1680 1.427 . S
N1684 C1681 1.384 . S
N1685 C1677 1.427 . S
N1685 C1683 1.384 . S
H1686 C1692 0.930 . S
H1687 C1696 0.930 . S
H1688 C1701 0.929 . S
H1689 C1699 0.929 . S
H1690 C1694 0.929 . S
H1691 C1700 0.929 . S
C1692 H1686 0.930 . S
C1692 C1693 1.367 . S
C1692 C1700 1.378 . S
C1693 C1692 1.367 . S
C1693 C1701 1.433 . S
C1694 H1690 0.929 . S
C1694 C1696 1.378 . S
C1694 C1698 1.350 . S
C1695 C1698 1.463 1_455 S
C1695 C1700 1.350 . S
C1695 N1703 1.427 . S
C1696 H1687 0.930 . S
C1696 C1694 1.378 . S
C1696 C1697 1.367 . S
C1697 C1696 1.367 . S
C1697 C1699 1.433 . S
C1698 C1694 1.350 . S
C1698 C1695 1.463 1_655 S
C1698 N1702 1.427 . S
C1699 H1689 0.929 . S
C1699 C1697 1.433 . S
C1699 N1702 1.384 . S
C1700 H1691 0.929 . S
C1700 C1692 1.378 . S
C1700 C1695 1.350 . S
C1701 H1688 0.929 . S
C1701 C1693 1.433 . S
C1701 N1703 1.384 . S
N1702 C1698 1.427 . S
N1702 C1699 1.384 . S
N1703 C1695 1.427 . S
N1703 C1701 1.384 . S
H1704 C1710 0.930 . S
H1705 C1714 0.930 . S
H1706 C1719 0.929 . S
H1707 C1717 0.929 . S
H1708 C1712 0.929 . S
H1709 C1718 0.929 . S
C1710 H1704 0.930 . S
C1710 C1711 1.367 . S
C1710 C1718 1.378 . S
C1711 C1710 1.367 . S
C1711 C1719 1.433 . S
C1712 H1708 0.929 . S
C1712 C1714 1.378 . S
C1712 C1716 1.350 . S
C1713 C1716 1.463 1_565 S
C1713 C1718 1.350 . S
C1713 N1721 1.427 . S
C1714 H1705 0.930 . S
C1714 C1712 1.378 . S
C1714 C1715 1.367 . S
C1715 C1714 1.367 . S
C1715 C1717 1.433 . S
C1716 C1712 1.350 . S
C1716 C1713 1.463 1_545 S
C1716 N1720 1.427 . S
C1717 H1707 0.929 . S
C1717 C1715 1.433 . S
C1717 N1720 1.384 . S
C1718 H1709 0.929 . S
C1718 C1710 1.378 . S
C1718 C1713 1.350 . S
C1719 H1706 0.929 . S
C1719 C1711 1.433 . S
C1719 N1721 1.384 . S
N1720 C1716 1.427 . S
N1720 C1717 1.384 . S
N1721 C1713 1.427 . S
N1721 C1719 1.384 . S
H1722 C1728 0.930 . S
H1723 C1732 0.930 . S
H1724 C1737 0.929 . S
H1725 C1735 0.929 . S
H1726 C1730 0.929 1_655 S
H1727 C1736 0.929 1_455 S
C1728 H1722 0.930 . S
C1728 C1729 1.367 . S
C1728 C1736 1.378 . S
C1729 C1728 1.367 . S
C1729 C1737 1.433 . S
C1730 H1726 0.929 1_455 S
C1730 C1732 1.378 . S
C1730 C1734 1.350 . S
C1731 C1734 1.463 1_655 S
C1731 C1736 1.350 . S
C1731 N1739 1.427 . S
C1732 H1723 0.930 . S
C1732 C1730 1.378 . S
C1732 C1733 1.367 . S
C1733 C1732 1.367 . S
C1733 C1735 1.433 . S
C1734 C1730 1.350 . S
C1734 C1731 1.463 1_455 S
C1734 N1738 1.427 . S
C1735 H1725 0.929 . S
C1735 C1733 1.433 . S
C1735 N1738 1.384 . S
C1736 H1727 0.929 1_655 S
C1736 C1728 1.378 . S
C1736 C1731 1.350 . S
C1737 H1724 0.929 . S
C1737 C1729 1.433 . S
C1737 N1739 1.384 . S
N1738 C1734 1.427 . S
N1738 C1735 1.384 . S
N1739 C1731 1.427 . S
N1739 C1737 1.384 . S
H1740 C1746 0.930 . S
H1741 C1750 0.930 . S
H1742 C1755 0.929 . S
H1743 C1753 0.929 . S
H1744 C1748 0.929 . S
H1745 C1754 0.929 . S
C1746 H1740 0.930 . S
C1746 C1747 1.367 . S
C1746 C1754 1.378 . S
C1747 C1746 1.367 . S
C1747 C1755 1.433 . S
C1748 H1744 0.929 . S
C1748 C1750 1.378 . S
C1748 C1752 1.350 . S
C1749 C1752 1.463 1_565 S
C1749 C1754 1.350 . S
C1749 N1757 1.427 . S
C1750 H1741 0.930 . S
C1750 C1748 1.378 . S
C1750 C1751 1.367 . S
C1751 C1750 1.367 . S
C1751 C1753 1.433 . S
C1752 C1748 1.350 . S
C1752 C1749 1.463 1_545 S
C1752 N1756 1.427 . S
C1753 H1743 0.929 . S
C1753 C1751 1.433 . S
C1753 N1756 1.384 . S
C1754 H1745 0.929 . S
C1754 C1746 1.378 . S
C1754 C1749 1.350 . S
C1755 H1742 0.929 . S
C1755 C1747 1.433 . S
C1755 N1757 1.384 . S
N1756 C1752 1.427 . S
N1756 C1753 1.384 . S
N1757 C1749 1.427 . S
N1757 C1755 1.384 . S
H1758 C1764 0.930 . S
H1759 C1768 0.930 . S
H1760 C1773 0.929 . S
H1761 C1771 0.929 . S
H1762 C1766 0.929 . S
H1763 C1772 0.929 . S
C1764 H1758 0.930 . S
C1764 C1765 1.367 . S
C1764 C1772 1.378 . S
C1765 C1764 1.367 . S
C1765 C1773 1.433 . S
C1766 H1762 0.929 . S
C1766 C1768 1.378 . S
C1766 C1770 1.350 . S
C1767 C1770 1.463 1_455 S
C1767 C1772 1.350 . S
C1767 N1775 1.427 . S
C1768 H1759 0.930 . S
C1768 C1766 1.378 . S
C1768 C1769 1.367 . S
C1769 C1768 1.367 . S
C1769 C1771 1.433 . S
C1770 C1766 1.350 . S
C1770 C1767 1.463 1_655 S
C1770 N1774 1.427 . S
C1771 H1761 0.929 . S
C1771 C1769 1.433 . S
C1771 N1774 1.384 . S
C1772 H1763 0.929 . S
C1772 C1764 1.378 . S
C1772 C1767 1.350 . S
C1773 H1760 0.929 . S
C1773 C1765 1.433 . S
C1773 N1775 1.384 . S
N1774 C1770 1.427 . S
N1774 C1771 1.384 . S
N1775 C1767 1.427 . S
N1775 C1773 1.384 . S
H1776 C1782 0.930 . S
H1777 C1786 0.930 . S
H1778 C1791 0.929 . S
H1779 C1789 0.929 . S
H1780 C1784 0.929 . S
H1781 C1790 0.929 . S
C1782 H1776 0.930 . S
C1782 C1783 1.367 . S
C1782 C1790 1.378 . S
C1783 C1782 1.367 . S
C1783 C1791 1.433 . S
C1784 H1780 0.929 . S
C1784 C1786 1.378 . S
C1784 C1788 1.350 . S
C1785 C1788 1.463 1_556 S
C1785 C1790 1.350 . S
C1785 N1793 1.427 . S
C1786 H1777 0.930 . S
C1786 C1784 1.378 . S
C1786 C1787 1.367 . S
C1787 C1786 1.367 . S
C1787 C1789 1.433 . S
C1788 C1784 1.350 . S
C1788 C1785 1.463 1_554 S
C1788 N1792 1.427 . S
C1789 H1779 0.929 . S
C1789 C1787 1.433 . S
C1789 N1792 1.384 . S
C1790 H1781 0.929 . S
C1790 C1782 1.378 . S
C1790 C1785 1.350 . S
C1791 H1778 0.929 . S
C1791 C1783 1.433 . S
C1791 N1793 1.384 . S
N1792 C1788 1.427 . S
N1792 C1789 1.384 . S
N1793 C1785 1.427 . S
N1793 C1791 1.384 . S
H1794 C1800 0.930 . S
H1795 C1804 0.930 . S
H1796 C1809 0.929 . S
H1797 C1807 0.929 . S
H1798 C1802 0.929 . S
H1799 C1808 0.929 . S
C1800 H1794 0.930 . S
C1800 C1801 1.367 . S
C1800 C1808 1.378 . S
C1801 C1800 1.367 . S
C1801 C1809 1.433 . S
C1802 H1798 0.929 . S
C1802 C1804 1.378 . S
C1802 C1806 1.350 . S
C1803 C1806 1.463 1_554 S
C1803 C1808 1.350 . S
C1803 N1811 1.427 . S
C1804 H1795 0.930 . S
C1804 C1802 1.378 . S
C1804 C1805 1.367 . S
C1805 C1804 1.367 . S
C1805 C1807 1.433 . S
C1806 C1802 1.350 . S
C1806 C1803 1.463 1_556 S
C1806 N1810 1.427 . S
C1807 H1797 0.929 . S
C1807 C1805 1.433 . S
C1807 N1810 1.384 . S
C1808 H1799 0.929 . S
C1808 C1800 1.378 . S
C1808 C1803 1.350 . S
C1809 H1796 0.929 . S
C1809 C1801 1.433 . S
C1809 N1811 1.384 . S
N1810 C1806 1.427 . S
N1810 C1807 1.384 . S
N1811 C1803 1.427 . S
N1811 C1809 1.384 . S
H1812 C1818 0.930 . S
H1813 C1822 0.930 . S
H1814 C1827 0.929 . S
H1815 C1825 0.929 . S
H1816 C1820 0.929 . S
H1817 C1826 0.929 . S
C1818 H1812 0.930 . S
C1818 C1819 1.367 . S
C1818 C1826 1.378 . S
C1819 C1818 1.367 . S
C1819 C1827 1.433 . S
C1820 H1816 0.929 . S
C1820 C1822 1.378 . S
C1820 C1824 1.350 . S
C1821 C1824 1.463 1_556 S
C1821 C1826 1.350 . S
C1821 N1829 1.427 . S
C1822 H1813 0.930 . S
C1822 C1820 1.378 . S
C1822 C1823 1.367 . S
C1823 C1822 1.367 . S
C1823 C1825 1.433 . S
C1824 C1820 1.350 . S
C1824 C1821 1.463 1_554 S
C1824 N1828 1.427 . S
C1825 H1815 0.929 . S
C1825 C1823 1.433 . S
C1825 N1828 1.384 . S
C1826 H1817 0.929 . S
C1826 C1818 1.378 . S
C1826 C1821 1.350 . S
C1827 H1814 0.929 . S
C1827 C1819 1.433 . S
C1827 N1829 1.384 . S
N1828 C1824 1.427 . S
N1828 C1825 1.384 . S
N1829 C1821 1.427 . S
N1829 C1827 1.384 . S
H1830 C1836 0.930 . S
H1831 C1840 0.930 . S
H1832 C1845 0.929 . S
H1833 C1843 0.929 . S
H1834 C1838 0.929 1_554 S
H1835 C1844 0.929 1_556 S
C1836 H1830 0.930 . S
C1836 C1837 1.367 . S
C1836 C1844 1.378 . S
C1837 C1836 1.367 . S
C1837 C1845 1.433 . S
C1838 H1834 0.929 1_556 S
C1838 C1840 1.378 . S
C1838 C1842 1.350 . S
C1839 C1842 1.463 1_554 S
C1839 C1844 1.350 . S
C1839 N1847 1.427 . S
C1840 H1831 0.930 . S
C1840 C1838 1.378 . S
C1840 C1841 1.367 . S
C1841 C1840 1.367 . S
C1841 C1843 1.433 . S
C1842 C1838 1.350 . S
C1842 C1839 1.463 1_556 S
C1842 N1846 1.427 . S
C1843 H1833 0.929 . S
C1843 C1841 1.433 . S
C1843 N1846 1.384 . S
C1844 H1835 0.929 1_554 S
C1844 C1836 1.378 . S
C1844 C1839 1.350 . S
C1845 H1832 0.929 . S
C1845 C1837 1.433 . S
C1845 N1847 1.384 . S
N1846 C1842 1.427 . S
N1846 C1843 1.384 . S
N1847 C1839 1.427 . S
N1847 C1845 1.384 . S
H1848 C1854 0.930 . S
H1849 C1858 0.930 . S
H1850 C1863 0.929 . S
H1851 C1861 0.929 . S
H1852 C1856 0.929 . S
H1853 C1862 0.929 . S
C1854 H1848 0.930 . S
C1854 C1855 1.367 . S
C1854 C1862 1.378 . S
C1855 C1854 1.367 . S
C1855 C1863 1.433 . S
C1856 H1852 0.929 . S
C1856 C1858 1.378 . S
C1856 C1860 1.350 . S
C1857 C1860 1.463 . S
C1857 C1862 1.350 . S
C1857 N1865 1.427 . S
C1858 H1849 0.930 . S
C1858 C1856 1.378 . S
C1858 C1859 1.367 . S
C1859 C1858 1.367 . S
C1859 C1861 1.433 . S
C1860 C1856 1.350 . S
C1860 C1857 1.463 . S
C1860 N1864 1.427 . S
C1861 H1851 0.929 . S
C1861 C1859 1.433 . S
C1861 N1864 1.384 . S
C1862 H1853 0.929 . S
C1862 C1854 1.378 . S
C1862 C1857 1.350 . S
C1863 H1850 0.929 . S
C1863 C1855 1.433 . S
C1863 N1865 1.384 . S
N1864 C1860 1.427 . S
N1864 C1861 1.384 . S
N1865 C1857 1.427 . S
N1865 C1863 1.384 . S
H1866 C1872 0.930 . S
H1867 C1876 0.930 . S
H1868 C1881 0.929 . S
H1869 C1879 0.929 . S
H1870 C1874 0.929 . S
H1871 C1880 0.929 . S
C1872 H1866 0.930 . S
C1872 C1873 1.367 . S
C1872 C1880 1.378 . S
C1873 C1872 1.367 . S
C1873 C1881 1.433 . S
C1874 H1870 0.929 . S
C1874 C1876 1.378 . S
C1874 C1878 1.350 . S
C1875 C1878 1.463 . S
C1875 C1880 1.350 . S
C1875 N1883 1.427 . S
C1876 H1867 0.930 . S
C1876 C1874 1.378 . S
C1876 C1877 1.367 . S
C1877 C1876 1.367 . S
C1877 C1879 1.433 . S
C1878 C1874 1.350 . S
C1878 C1875 1.463 . S
C1878 N1882 1.427 . S
C1879 H1869 0.929 . S
C1879 C1877 1.433 . S
C1879 N1882 1.384 . S
C1880 H1871 0.929 . S
C1880 C1872 1.378 . S
C1880 C1875 1.350 . S
C1881 H1868 0.929 . S
C1881 C1873 1.433 . S
C1881 N1883 1.384 . S
N1882 C1878 1.427 . S
N1882 C1879 1.384 . S
N1883 C1875 1.427 . S
N1883 C1881 1.384 . S
H1884 C1890 0.930 . S
H1885 C1894 0.930 . S
H1886 C1899 0.929 . S
H1887 C1897 0.929 . S
H1888 C1892 0.929 . S
H1889 C1898 0.929 . S
C1890 H1884 0.930 . S
C1890 C1891 1.367 . S
C1890 C1898 1.378 . S
C1891 C1890 1.367 . S
C1891 C1899 1.433 . S
C1892 H1888 0.929 . S
C1892 C1894 1.378 . S
C1892 C1896 1.350 . S
C1893 C1896 1.463 . S
C1893 C1898 1.350 . S
C1893 N1901 1.427 . S
C1894 H1885 0.930 . S
C1894 C1892 1.378 . S
C1894 C1895 1.367 . S
C1895 C1894 1.367 . S
C1895 C1897 1.433 . S
C1896 C1892 1.350 . S
C1896 C1893 1.463 . S
C1896 N1900 1.427 . S
C1897 H1887 0.929 . S
C1897 C1895 1.433 . S
C1897 N1900 1.384 . S
C1898 H1889 0.929 . S
C1898 C1890 1.378 . S
C1898 C1893 1.350 . S
C1899 H1886 0.929 . S
C1899 C1891 1.433 . S
C1899 N1901 1.384 . S
N1900 C1896 1.427 . S
N1900 C1897 1.384 . S
N1901 C1893 1.427 . S
N1901 C1899 1.384 . S
H1902 C1908 0.930 . S
H1903 C1912 0.930 . S
H1904 C1917 0.929 . S
H1905 C1915 0.929 . S
H1906 C1910 0.929 . S
H1907 C1916 0.929 . S
C1908 H1902 0.930 . S
C1908 C1909 1.367 . S
C1908 C1916 1.378 . S
C1909 C1908 1.367 . S
C1909 C1917 1.433 . S
C1910 H1906 0.929 . S
C1910 C1912 1.378 . S
C1910 C1914 1.350 . S
C1911 C1914 1.463 . S
C1911 C1916 1.350 . S
C1911 N1919 1.427 . S
C1912 H1903 0.930 . S
C1912 C1910 1.378 . S
C1912 C1913 1.367 . S
C1913 C1912 1.367 . S
C1913 C1915 1.433 . S
C1914 C1910 1.350 . S
C1914 C1911 1.463 . S
C1914 N1918 1.427 . S
C1915 H1905 0.929 . S
C1915 C1913 1.433 . S
C1915 N1918 1.384 . S
C1916 H1907 0.929 . S
C1916 C1908 1.378 . S
C1916 C1911 1.350 . S
C1917 H1904 0.929 . S
C1917 C1909 1.433 . S
C1917 N1919 1.384 . S
N1918 C1914 1.427 . S
N1918 C1915 1.384 . S
N1919 C1911 1.427 . S
N1919 C1917 1.384 . S
H1920 C1926 0.930 . S
H1921 C1930 0.930 . S
H1922 C1935 0.929 . S
H1923 C1933 0.929 . S
H1924 C1928 0.929 . S
H1925 C1934 0.929 . S
C1926 H1920 0.930 . S
C1926 C1927 1.367 . S
C1926 C1934 1.378 . S
C1927 C1926 1.367 . S
C1927 C1935 1.433 . S
C1928 H1924 0.929 . S
C1928 C1930 1.378 . S
C1928 C1932 1.350 . S
C1929 C1932 1.463 . S
C1929 C1934 1.350 . S
C1929 N1937 1.427 . S
C1930 H1921 0.930 . S
C1930 C1928 1.378 . S
C1930 C1931 1.367 . S
C1931 C1930 1.367 . S
C1931 C1933 1.433 . S
C1932 C1928 1.350 . S
C1932 C1929 1.463 . S
C1932 N1936 1.427 . S
C1933 H1923 0.929 . S
C1933 C1931 1.433 . S
C1933 N1936 1.384 . S
C1934 H1925 0.929 . S
C1934 C1926 1.378 . S
C1934 C1929 1.350 . S
C1935 H1922 0.929 . S
C1935 C1927 1.433 . S
C1935 N1937 1.384 . S
N1936 C1932 1.427 . S
N1936 C1933 1.384 . S
N1937 C1929 1.427 . S
N1937 C1935 1.384 . S
H1938 C1944 0.930 . S
H1939 C1948 0.930 . S
H1940 C1953 0.929 . S
H1941 C1951 0.929 . S
H1942 C1946 0.929 . S
H1943 C1952 0.929 . S
C1944 H1938 0.930 . S
C1944 C1945 1.367 . S
C1944 C1952 1.378 . S
C1945 C1944 1.367 . S
C1945 C1953 1.433 . S
C1946 H1942 0.929 . S
C1946 C1948 1.378 . S
C1946 C1950 1.350 . S
C1947 C1950 1.463 . S
C1947 C1952 1.350 . S
C1947 N1955 1.427 . S
C1948 H1939 0.930 . S
C1948 C1946 1.378 . S
C1948 C1949 1.367 . S
C1949 C1948 1.367 . S
C1949 C1951 1.433 . S
C1950 C1946 1.350 . S
C1950 C1947 1.463 . S
C1950 N1954 1.427 . S
C1951 H1941 0.929 . S
C1951 C1949 1.433 . S
C1951 N1954 1.384 . S
C1952 H1943 0.929 . S
C1952 C1944 1.378 . S
C1952 C1947 1.350 . S
C1953 H1940 0.929 . S
C1953 C1945 1.433 . S
C1953 N1955 1.384 . S
N1954 C1950 1.427 . S
N1954 C1951 1.384 . S
N1955 C1947 1.427 . S
N1955 C1953 1.384 . S
H1956 C1962 0.930 . S
H1957 C1966 0.930 . S
H1958 C1971 0.929 . S
H1959 C1969 0.929 . S
H1960 C1964 0.929 . S
H1961 C1970 0.929 . S
C1962 H1956 0.930 . S
C1962 C1963 1.367 . S
C1962 C1970 1.378 . S
C1963 C1962 1.367 . S
C1963 C1971 1.433 . S
C1964 H1960 0.929 . S
C1964 C1966 1.378 . S
C1964 C1968 1.350 . S
C1965 C1968 1.463 . S
C1965 C1970 1.350 . S
C1965 N1973 1.427 . S
C1966 H1957 0.930 . S
C1966 C1964 1.378 . S
C1966 C1967 1.367 . S
C1967 C1966 1.367 . S
C1967 C1969 1.433 . S
C1968 C1964 1.350 . S
C1968 C1965 1.463 . S
C1968 N1972 1.427 . S
C1969 H1959 0.929 . S
C1969 C1967 1.433 . S
C1969 N1972 1.384 . S
C1970 H1961 0.929 . S
C1970 C1962 1.378 . S
C1970 C1965 1.350 . S
C1971 H1958 0.929 . S
C1971 C1963 1.433 . S
C1971 N1973 1.384 . S
N1972 C1968 1.427 . S
N1972 C1969 1.384 . S
N1973 C1965 1.427 . S
N1973 C1971 1.384 . S
H1974 C1980 0.930 . S
H1975 C1984 0.930 . S
H1976 C1989 0.929 . S
H1977 C1987 0.929 . S
H1978 C1982 0.929 . S
H1979 C1988 0.929 . S
C1980 H1974 0.930 . S
C1980 C1981 1.367 . S
C1980 C1988 1.378 . S
C1981 C1980 1.367 . S
C1981 C1989 1.433 . S
C1982 H1978 0.929 . S
C1982 C1984 1.378 . S
C1982 C1986 1.350 . S
C1983 C1986 1.463 . S
C1983 C1988 1.350 . S
C1983 N1991 1.427 . S
C1984 H1975 0.930 . S
C1984 C1982 1.378 . S
C1984 C1985 1.367 . S
C1985 C1984 1.367 . S
C1985 C1987 1.433 . S
C1986 C1982 1.350 . S
C1986 C1983 1.463 . S
C1986 N1990 1.427 . S
C1987 H1977 0.929 . S
C1987 C1985 1.433 . S
C1987 N1990 1.384 . S
C1988 H1979 0.929 . S
C1988 C1980 1.378 . S
C1988 C1983 1.350 . S
C1989 H1976 0.929 . S
C1989 C1981 1.433 . S
C1989 N1991 1.384 . S
N1990 C1986 1.427 . S
N1990 C1987 1.384 . S
N1991 C1983 1.427 . S
N1991 C1989 1.384 . S
H1992 C1998 0.930 . S
H1993 C2002 0.930 . S
H1994 C2007 0.929 . S
H1995 C2005 0.929 . S
H1996 C2000 0.929 . S
H1997 C2006 0.929 . S
C1998 H1992 0.930 . S
C1998 C1999 1.367 . S
C1998 C2006 1.378 . S
C1999 C1998 1.367 . S
C1999 C2007 1.433 . S
C2000 H1996 0.929 . S
C2000 C2002 1.378 . S
C2000 C2004 1.350 . S
C2001 C2004 1.463 . S
C2001 C2006 1.350 . S
C2001 N2009 1.427 . S
C2002 H1993 0.930 . S
C2002 C2000 1.378 . S
C2002 C2003 1.367 . S
C2003 C2002 1.367 . S
C2003 C2005 1.433 . S
C2004 C2000 1.350 . S
C2004 C2001 1.463 . S
C2004 N2008 1.427 . S
C2005 H1995 0.929 . S
C2005 C2003 1.433 . S
C2005 N2008 1.384 . S
C2006 H1997 0.929 . S
C2006 C1998 1.378 . S
C2006 C2001 1.350 . S
C2007 H1994 0.929 . S
C2007 C1999 1.433 . S
C2007 N2009 1.384 . S
N2008 C2004 1.427 . S
N2008 C2005 1.384 . S
N2009 C2001 1.427 . S
N2009 C2007 1.384 . S
H2010 C2016 0.930 . S
H2011 C2020 0.930 . S
H2012 C2025 0.929 . S
H2013 C2023 0.929 . S
H2014 C2018 0.929 . S
H2015 C2024 0.929 . S
C2016 H2010 0.930 . S
C2016 C2017 1.367 . S
C2016 C2024 1.378 . S
C2017 C2016 1.367 . S
C2017 C2025 1.433 . S
C2018 H2014 0.929 . S
C2018 C2020 1.378 . S
C2018 C2022 1.350 . S
C2019 C2022 1.463 . S
C2019 C2024 1.350 . S
C2019 N2027 1.427 . S
C2020 H2011 0.930 . S
C2020 C2018 1.378 . S
C2020 C2021 1.367 . S
C2021 C2020 1.367 . S
C2021 C2023 1.433 . S
C2022 C2018 1.350 . S
C2022 C2019 1.463 . S
C2022 N2026 1.427 . S
C2023 H2013 0.929 . S
C2023 C2021 1.433 . S
C2023 N2026 1.384 . S
C2024 H2015 0.929 . S
C2024 C2016 1.378 . S
C2024 C2019 1.350 . S
C2025 H2012 0.929 . S
C2025 C2017 1.433 . S
C2025 N2027 1.384 . S
N2026 C2022 1.427 . S
N2026 C2023 1.384 . S
N2027 C2019 1.427 . S
N2027 C2025 1.384 . S
H2028 C2034 0.930 . S
H2029 C2038 0.930 . S
H2030 C2043 0.929 . S
H2031 C2041 0.929 . S
H2032 C2036 0.929 . S
H2033 C2042 0.929 . S
C2034 H2028 0.930 . S
C2034 C2035 1.367 . S
C2034 C2042 1.378 . S
C2035 C2034 1.367 . S
C2035 C2043 1.433 . S
C2036 H2032 0.929 . S
C2036 C2038 1.378 . S
C2036 C2040 1.350 . S
C2037 C2040 1.463 . S
C2037 C2042 1.350 . S
C2037 N2045 1.427 . S
C2038 H2029 0.930 . S
C2038 C2036 1.378 . S
C2038 C2039 1.367 . S
C2039 C2038 1.367 . S
C2039 C2041 1.433 . S
C2040 C2036 1.350 . S
C2040 C2037 1.463 . S
C2040 N2044 1.427 . S
C2041 H2031 0.929 . S
C2041 C2039 1.433 . S
C2041 N2044 1.384 . S
C2042 H2033 0.929 . S
C2042 C2034 1.378 . S
C2042 C2037 1.350 . S
C2043 H2030 0.929 . S
C2043 C2035 1.433 . S
C2043 N2045 1.384 . S
N2044 C2040 1.427 . S
N2044 C2041 1.384 . S
N2045 C2037 1.427 . S
N2045 C2043 1.384 . S
H2046 C2052 0.930 . S
H2047 C2056 0.930 . S
H2048 C2061 0.929 . S
H2049 C2059 0.929 . S
H2050 C2054 0.929 . S
H2051 C2060 0.929 . S
C2052 H2046 0.930 . S
C2052 C2053 1.367 . S
C2052 C2060 1.378 . S
C2053 C2052 1.367 . S
C2053 C2061 1.433 . S
C2054 H2050 0.929 . S
C2054 C2056 1.378 . S
C2054 C2058 1.350 . S
C2055 C2058 1.463 . S
C2055 C2060 1.350 . S
C2055 N2063 1.427 . S
C2056 H2047 0.930 . S
C2056 C2054 1.378 . S
C2056 C2057 1.367 . S
C2057 C2056 1.367 . S
C2057 C2059 1.433 . S
C2058 C2054 1.350 . S
C2058 C2055 1.463 . S
C2058 N2062 1.427 . S
C2059 H2049 0.929 . S
C2059 C2057 1.433 . S
C2059 N2062 1.384 . S
C2060 H2051 0.929 . S
C2060 C2052 1.378 . S
C2060 C2055 1.350 . S
C2061 H2048 0.929 . S
C2061 C2053 1.433 . S
C2061 N2063 1.384 . S
N2062 C2058 1.427 . S
N2062 C2059 1.384 . S
N2063 C2055 1.427 . S
N2063 C2061 1.384 . S
H2064 C2070 0.930 . S
H2065 C2074 0.930 . S
H2066 C2079 0.929 . S
H2067 C2077 0.929 . S
H2068 C2072 0.929 . S
H2069 C2078 0.929 . S
C2070 H2064 0.930 . S
C2070 C2071 1.367 . S
C2070 C2078 1.378 . S
C2071 C2070 1.367 . S
C2071 C2079 1.433 . S
C2072 H2068 0.929 . S
C2072 C2074 1.378 . S
C2072 C2076 1.350 . S
C2073 C2076 1.463 . S
C2073 C2078 1.350 . S
C2073 N2081 1.427 . S
C2074 H2065 0.930 . S
C2074 C2072 1.378 . S
C2074 C2075 1.367 . S
C2075 C2074 1.367 . S
C2075 C2077 1.433 . S
C2076 C2072 1.350 . S
C2076 C2073 1.463 . S
C2076 N2080 1.427 . S
C2077 H2067 0.929 . S
C2077 C2075 1.433 . S
C2077 N2080 1.384 . S
C2078 H2069 0.929 . S
C2078 C2070 1.378 . S
C2078 C2073 1.350 . S
C2079 H2066 0.929 . S
C2079 C2071 1.433 . S
C2079 N2081 1.384 . S
N2080 C2076 1.427 . S
N2080 C2077 1.384 . S
N2081 C2073 1.427 . S
N2081 C2079 1.384 . S
H2082 C2088 0.930 . S
H2083 C2092 0.930 . S
H2084 C2097 0.929 . S
H2085 C2095 0.929 . S
H2086 C2090 0.929 . S
H2087 C2096 0.929 . S
C2088 H2082 0.930 . S
C2088 C2089 1.367 . S
C2088 C2096 1.378 . S
C2089 C2088 1.367 . S
C2089 C2097 1.433 . S
C2090 H2086 0.929 . S
C2090 C2092 1.378 . S
C2090 C2094 1.350 . S
C2091 C2094 1.463 . S
C2091 C2096 1.350 . S
C2091 N2099 1.427 . S
C2092 H2083 0.930 . S
C2092 C2090 1.378 . S
C2092 C2093 1.367 . S
C2093 C2092 1.367 . S
C2093 C2095 1.433 . S
C2094 C2090 1.350 . S
C2094 C2091 1.463 . S
C2094 N2098 1.427 . S
C2095 H2085 0.929 . S
C2095 C2093 1.433 . S
C2095 N2098 1.384 . S
C2096 H2087 0.929 . S
C2096 C2088 1.378 . S
C2096 C2091 1.350 . S
C2097 H2084 0.929 . S
C2097 C2089 1.433 . S
C2097 N2099 1.384 . S
N2098 C2094 1.427 . S
N2098 C2095 1.384 . S
N2099 C2091 1.427 . S
N2099 C2097 1.384 . S
H2100 C2106 0.930 . S
H2101 C2110 0.930 . S
H2102 C2115 0.929 . S
H2103 C2113 0.929 . S
H2104 C2108 0.929 . S
H2105 C2114 0.929 . S
C2106 H2100 0.930 . S
C2106 C2107 1.367 . S
C2106 C2114 1.378 . S
C2107 C2106 1.367 . S
C2107 C2115 1.433 . S
C2108 H2104 0.929 . S
C2108 C2110 1.378 . S
C2108 C2112 1.350 . S
C2109 C2112 1.463 . S
C2109 C2114 1.350 . S
C2109 N2117 1.427 . S
C2110 H2101 0.930 . S
C2110 C2108 1.378 . S
C2110 C2111 1.367 . S
C2111 C2110 1.367 . S
C2111 C2113 1.433 . S
C2112 C2108 1.350 . S
C2112 C2109 1.463 . S
C2112 N2116 1.427 . S
C2113 H2103 0.929 . S
C2113 C2111 1.433 . S
C2113 N2116 1.384 . S
C2114 H2105 0.929 . S
C2114 C2106 1.378 . S
C2114 C2109 1.350 . S
C2115 H2102 0.929 . S
C2115 C2107 1.433 . S
C2115 N2117 1.384 . S
N2116 C2112 1.427 . S
N2116 C2113 1.384 . S
N2117 C2109 1.427 . S
N2117 C2115 1.384 . S
H2118 C2124 0.930 . S
H2119 C2128 0.930 . S
H2120 C2133 0.929 . S
H2121 C2131 0.929 . S
H2122 C2126 0.929 . S
H2123 C2132 0.929 . S
C2124 H2118 0.930 . S
C2124 C2125 1.367 . S
C2124 C2132 1.378 . S
C2125 C2124 1.367 . S
C2125 C2133 1.433 . S
C2126 H2122 0.929 . S
C2126 C2128 1.378 . S
C2126 C2130 1.350 . S
C2127 C2130 1.463 . S
C2127 C2132 1.350 . S
C2127 N2135 1.427 . S
C2128 H2119 0.930 . S
C2128 C2126 1.378 . S
C2128 C2129 1.367 . S
C2129 C2128 1.367 . S
C2129 C2131 1.433 . S
C2130 C2126 1.350 . S
C2130 C2127 1.463 . S
C2130 N2134 1.427 . S
C2131 H2121 0.929 . S
C2131 C2129 1.433 . S
C2131 N2134 1.384 . S
C2132 H2123 0.929 . S
C2132 C2124 1.378 . S
C2132 C2127 1.350 . S
C2133 H2120 0.929 . S
C2133 C2125 1.433 . S
C2133 N2135 1.384 . S
N2134 C2130 1.427 . S
N2134 C2131 1.384 . S
N2135 C2127 1.427 . S
N2135 C2133 1.384 . S
H2136 C2142 0.930 . S
H2137 C2146 0.930 . S
H2138 C2151 0.929 . S
H2139 C2149 0.929 . S
H2140 C2144 0.929 . S
H2141 C2150 0.929 . S
C2142 H2136 0.930 . S
C2142 C2143 1.367 . S
C2142 C2150 1.378 . S
C2143 C2142 1.367 . S
C2143 C2151 1.433 . S
C2144 H2140 0.929 . S
C2144 C2146 1.378 . S
C2144 C2148 1.350 . S
C2145 C2148 1.463 . S
C2145 C2150 1.350 . S
C2145 N2153 1.427 . S
C2146 H2137 0.930 . S
C2146 C2144 1.378 . S
C2146 C2147 1.367 . S
C2147 C2146 1.367 . S
C2147 C2149 1.433 . S
C2148 C2144 1.350 . S
C2148 C2145 1.463 . S
C2148 N2152 1.427 . S
C2149 H2139 0.929 . S
C2149 C2147 1.433 . S
C2149 N2152 1.384 . S
C2150 H2141 0.929 . S
C2150 C2142 1.378 . S
C2150 C2145 1.350 . S
C2151 H2138 0.929 . S
C2151 C2143 1.433 . S
C2151 N2153 1.384 . S
N2152 C2148 1.427 . S
N2152 C2149 1.384 . S
N2153 C2145 1.427 . S
N2153 C2151 1.384 . S
H2154 C2160 0.930 . S
H2155 C2164 0.930 . S
H2156 C2169 0.929 . S
H2157 C2167 0.929 . S
H2158 C2162 0.929 . S
H2159 C2168 0.929 . S
C2160 H2154 0.930 . S
C2160 C2161 1.367 . S
C2160 C2168 1.378 . S
C2161 C2160 1.367 . S
C2161 C2169 1.433 . S
C2162 H2158 0.929 . S
C2162 C2164 1.378 . S
C2162 C2166 1.350 . S
C2163 C2166 1.463 . S
C2163 C2168 1.350 . S
C2163 N2171 1.427 . S
C2164 H2155 0.930 . S
C2164 C2162 1.378 . S
C2164 C2165 1.367 . S
C2165 C2164 1.367 . S
C2165 C2167 1.433 . S
C2166 C2162 1.350 . S
C2166 C2163 1.463 . S
C2166 N2170 1.427 . S
C2167 H2157 0.929 . S
C2167 C2165 1.433 . S
C2167 N2170 1.384 . S
C2168 H2159 0.929 . S
C2168 C2160 1.378 . S
C2168 C2163 1.350 . S
C2169 H2156 0.929 . S
C2169 C2161 1.433 . S
C2169 N2171 1.384 . S
N2170 C2166 1.427 . S
N2170 C2167 1.384 . S
N2171 C2163 1.427 . S
N2171 C2169 1.384 . S
H2172 C2178 0.930 . S
H2173 C2182 0.930 . S
H2174 C2187 0.929 . S
H2175 C2185 0.929 . S
H2176 C2180 0.929 . S
H2177 C2186 0.929 . S
C2178 H2172 0.930 . S
C2178 C2179 1.367 . S
C2178 C2186 1.378 . S
C2179 C2178 1.367 . S
C2179 C2187 1.433 . S
C2180 H2176 0.929 . S
C2180 C2182 1.378 . S
C2180 C2184 1.350 . S
C2181 C2184 1.463 . S
C2181 C2186 1.350 . S
C2181 N2189 1.427 . S
C2182 H2173 0.930 . S
C2182 C2180 1.378 . S
C2182 C2183 1.367 . S
C2183 C2182 1.367 . S
C2183 C2185 1.433 . S
C2184 C2180 1.350 . S
C2184 C2181 1.463 . S
C2184 N2188 1.427 . S
C2185 H2175 0.929 . S
C2185 C2183 1.433 . S
C2185 N2188 1.384 . S
C2186 H2177 0.929 . S
C2186 C2178 1.378 . S
C2186 C2181 1.350 . S
C2187 H2174 0.929 . S
C2187 C2179 1.433 . S
C2187 N2189 1.384 . S
N2188 C2184 1.427 . S
N2188 C2185 1.384 . S
N2189 C2181 1.427 . S
N2189 C2187 1.384 . S
H2190 C2196 0.930 . S
H2191 C2200 0.930 . S
H2192 C2205 0.929 . S
H2193 C2203 0.929 . S
H2194 C2198 0.929 . S
H2195 C2204 0.929 . S
C2196 H2190 0.930 . S
C2196 C2197 1.367 . S
C2196 C2204 1.378 . S
C2197 C2196 1.367 . S
C2197 C2205 1.433 . S
C2198 H2194 0.929 . S
C2198 C2200 1.378 . S
C2198 C2202 1.350 . S
C2199 C2202 1.463 . S
C2199 C2204 1.350 . S
C2199 N2207 1.427 . S
C2200 H2191 0.930 . S
C2200 C2198 1.378 . S
C2200 C2201 1.367 . S
C2201 C2200 1.367 . S
C2201 C2203 1.433 . S
C2202 C2198 1.350 . S
C2202 C2199 1.463 . S
C2202 N2206 1.427 . S
C2203 H2193 0.929 . S
C2203 C2201 1.433 . S
C2203 N2206 1.384 . S
C2204 H2195 0.929 . S
C2204 C2196 1.378 . S
C2204 C2199 1.350 . S
C2205 H2192 0.929 . S
C2205 C2197 1.433 . S
C2205 N2207 1.384 . S
N2206 C2202 1.427 . S
N2206 C2203 1.384 . S
N2207 C2199 1.427 . S
N2207 C2205 1.384 . S
H2208 C2214 0.930 . S
H2209 C2218 0.930 . S
H2210 C2223 0.929 . S
H2211 C2221 0.929 . S
H2212 C2216 0.929 . S
H2213 C2222 0.929 . S
C2214 H2208 0.930 . S
C2214 C2215 1.367 . S
C2214 C2222 1.378 . S
C2215 C2214 1.367 . S
C2215 C2223 1.433 . S
C2216 H2212 0.929 . S
C2216 C2218 1.378 . S
C2216 C2220 1.350 . S
C2217 C2220 1.463 . S
C2217 C2222 1.350 . S
C2217 N2225 1.427 . S
C2218 H2209 0.930 . S
C2218 C2216 1.378 . S
C2218 C2219 1.367 . S
C2219 C2218 1.367 . S
C2219 C2221 1.433 . S
C2220 C2216 1.350 . S
C2220 C2217 1.463 . S
C2220 N2224 1.427 . S
C2221 H2211 0.929 . S
C2221 C2219 1.433 . S
C2221 N2224 1.384 . S
C2222 H2213 0.929 . S
C2222 C2214 1.378 . S
C2222 C2217 1.350 . S
C2223 H2210 0.929 . S
C2223 C2215 1.433 . S
C2223 N2225 1.384 . S
N2224 C2220 1.427 . S
N2224 C2221 1.384 . S
N2225 C2217 1.427 . S
N2225 C2223 1.384 . S
H2226 C2232 0.930 . S
H2227 C2236 0.930 . S
H2228 C2241 0.929 . S
H2229 C2239 0.929 . S
H2230 C2234 0.929 . S
H2231 C2240 0.929 . S
C2232 H2226 0.930 . S
C2232 C2233 1.367 . S
C2232 C2240 1.378 . S
C2233 C2232 1.367 . S
C2233 C2241 1.433 . S
C2234 H2230 0.929 . S
C2234 C2236 1.378 . S
C2234 C2238 1.350 . S
C2235 C2238 1.463 . S
C2235 C2240 1.350 . S
C2235 N2243 1.427 . S
C2236 H2227 0.930 . S
C2236 C2234 1.378 . S
C2236 C2237 1.367 . S
C2237 C2236 1.367 . S
C2237 C2239 1.433 . S
C2238 C2234 1.350 . S
C2238 C2235 1.463 . S
C2238 N2242 1.427 . S
C2239 H2229 0.929 . S
C2239 C2237 1.433 . S
C2239 N2242 1.384 . S
C2240 H2231 0.929 . S
C2240 C2232 1.378 . S
C2240 C2235 1.350 . S
C2241 H2228 0.929 . S
C2241 C2233 1.433 . S
C2241 N2243 1.384 . S
N2242 C2238 1.427 . S
N2242 C2239 1.384 . S
N2243 C2235 1.427 . S
N2243 C2241 1.384 . S
H2244 C2250 0.930 . S
H2245 C2254 0.930 . S
H2246 C2259 0.929 . S
H2247 C2257 0.929 . S
H2248 C2252 0.929 . S
H2249 C2258 0.929 . S
C2250 H2244 0.930 . S
C2250 C2251 1.367 . S
C2250 C2258 1.378 . S
C2251 C2250 1.367 . S
C2251 C2259 1.433 . S
C2252 H2248 0.929 . S
C2252 C2254 1.378 . S
C2252 C2256 1.350 . S
C2253 C2256 1.463 . S
C2253 C2258 1.350 . S
C2253 N2261 1.427 . S
C2254 H2245 0.930 . S
C2254 C2252 1.378 . S
C2254 C2255 1.367 . S
C2255 C2254 1.367 . S
C2255 C2257 1.433 . S
C2256 C2252 1.350 . S
C2256 C2253 1.463 . S
C2256 N2260 1.427 . S
C2257 H2247 0.929 . S
C2257 C2255 1.433 . S
C2257 N2260 1.384 . S
C2258 H2249 0.929 . S
C2258 C2250 1.378 . S
C2258 C2253 1.350 . S
C2259 H2246 0.929 . S
C2259 C2251 1.433 . S
C2259 N2261 1.384 . S
N2260 C2256 1.427 . S
N2260 C2257 1.384 . S
N2261 C2253 1.427 . S
N2261 C2259 1.384 . S
H2262 C2268 0.930 . S
H2263 C2272 0.930 . S
H2264 C2277 0.929 . S
H2265 C2275 0.929 . S
H2266 C2270 0.929 . S
H2267 C2276 0.929 . S
C2268 H2262 0.930 . S
C2268 C2269 1.367 . S
C2268 C2276 1.378 . S
C2269 C2268 1.367 . S
C2269 C2277 1.433 . S
C2270 H2266 0.929 . S
C2270 C2272 1.378 . S
C2270 C2274 1.350 . S
C2271 C2274 1.463 . S
C2271 C2276 1.350 . S
C2271 N2279 1.427 . S
C2272 H2263 0.930 . S
C2272 C2270 1.378 . S
C2272 C2273 1.367 . S
C2273 C2272 1.367 . S
C2273 C2275 1.433 . S
C2274 C2270 1.350 . S
C2274 C2271 1.463 . S
C2274 N2278 1.427 . S
C2275 H2265 0.929 . S
C2275 C2273 1.433 . S
C2275 N2278 1.384 . S
C2276 H2267 0.929 . S
C2276 C2268 1.378 . S
C2276 C2271 1.350 . S
C2277 H2264 0.929 . S
C2277 C2269 1.433 . S
C2277 N2279 1.384 . S
N2278 C2274 1.427 . S
N2278 C2275 1.384 . S
N2279 C2271 1.427 . S
N2279 C2277 1.384 . S
C1423 C1301 1.660 . S
C1427 C3 1.663 . S
C1441 C62 1.663 . S
C1445 C949 1.710 . S
C1459 C1360 1.655 . S
C1463 C123 1.702 . S
C1477 C1244 1.708 . S
C1481 C182 1.710 . S
C1495 C1067 1.702 . S
C1499 C241 1.703 . S
C1513 C1124 1.657 . S
C1517 C298 1.660 . S
C1531 C1185 1.714 . S
C1535 C357 1.667 . S
C1549 C418 1.710 . S
C1553 C1006 1.668 . S
C1567 C770 1.667 . S
C1571 C475 1.669 . S
C1585 C831 1.699 . S
C1589 C536 1.699 . S
C1603 C593 1.666 . S
C1607 C888 1.663 . S
C1621 C654 1.711 . S
C1625 C713 1.710 . S
C1639 C416 1.656 . S
C1643 C829 1.656 . S
C1657 C890 1.716 . S
C1661 C239 1.671 . S
C1675 C300 1.712 . S
C1679 C711 1.667 . S
C1693 C772 1.706 . S
C1697 C359 1.707 . S
C1711 C595 1.707 . S
C1715 C64 1.708 . S
C1729 C121 1.669 . S
C1733 C652 1.668 . S
C1747 C180 1.667 . S
C1751 C477 1.710 . S
C1765 C5 1.701 . S
C1769 C534 1.655 . S
C1783 C1183 1.663 . S
C1787 C1242 1.666 . S
C1801 C1303 1.700 . S
C1805 C1008 1.699 . S
C1819 C1065 1.658 . S
C1823 C947 1.659 . S
C1837 C1362 1.712 . S
C1841 C1126 1.712 . S
C1855 C33 0.726 . S
C1859 C524 0.736 . S
C1873 C564 0.713 . S
C1877 C92 0.725 . S
C1891 C170 0.733 . S
C1895 C642 0.724 . S
C1909 C229 0.727 . S
C1913 C682 0.717 . S
C1927 C288 0.715 . S
C1931 C741 0.725 . S
C1945 C328 0.726 . S
C1949 C819 0.735 . S
C1963 C859 0.719 . S
C1967 C387 0.717 . S
C1981 C937 0.738 . S
C1985 C465 0.742 . S
C1999 C505 0.726 . S
C2003 C977 0.740 . S
C2017 C583 0.727 . S
C2021 C1409 0.734 . S
C2035 C1272 0.740 . S
C2039 C623 0.725 . S
C2053 C1350 0.733 . S
C2057 C701 0.735 . S
C2071 C1055 0.732 . S
C2075 C760 0.723 . S
C2089 C1095 0.723 . S
C2093 C800 0.719 . S
C2107 C878 0.718 . S
C2111 C1173 0.727 . S
C2125 C918 0.720 . S
C2129 C1213 0.733 . S
C2143 C52 0.730 . S
C2147 C996 0.739 . S
C2161 C1036 0.733 . S
C2165 C269 0.718 . S
C2179 C1114 0.722 . S
C2183 C347 0.718 . S
C2197 C1154 0.737 . S
C2201 C406 0.725 . S
C2215 C1232 0.722 . S
C2219 C446 0.732 . S
C2233 C1291 0.738 . S
C2237 C151 0.736 . S
C2251 C210 0.737 . S
C2255 C1331 0.738 . S
C2269 C1390 0.715 . S
C2273 C111 0.715 . S
