# Generated by pormake.
# Topology unj, (4)-cn, num edge types: 1
# Building blocks:
#     Node 0, Type 0, BuildingBlock: ICAMEG_clean_sbu_1, # of connection points: 4
#     Node 1, Type 0, BuildingBlock: ICAMEG_clean_sbu_1, # of connection points: 4
#     Node 2, Type 0, BuildingBlock: ICAMEG_clean_sbu_1, # of connection points: 4
#     Node 3, Type 0, BuildingBlock: ICAMEG_clean_sbu_1, # of connection points: 4
#     Node 4, Type 0, BuildingBlock: ICAMEG_clean_sbu_1, # of connection points: 4
#     Node 5, Type 0, BuildingBlock: ICAMEG_clean_sbu_1, # of connection points: 4
#     Edge 6, Type (0, 0), BuildingBlock: TEMPAE_clean_linker_10, # of connection points: 2
#     Edge 7, Type (0, 0), BuildingBlock: TEMPAE_clean_linker_10, # of connection points: 2
#     Edge 8, Type (0, 0), BuildingBlock: TEMPAE_clean_linker_10, # of connection points: 2
#     Edge 9, Type (0, 0), BuildingBlock: TEMPAE_clean_linker_10, # of connection points: 2
#     Edge 10, Type (0, 0), BuildingBlock: TEMPAE_clean_linker_10, # of connection points: 2
#     Edge 11, Type (0, 0), BuildingBlock: TEMPAE_clean_linker_10, # of connection points: 2
#     Edge 12, Type (0, 0), BuildingBlock: TEMPAE_clean_linker_10, # of connection points: 2
#     Edge 13, Type (0, 0), BuildingBlock: TEMPAE_clean_linker_10, # of connection points: 2
#     Edge 14, Type (0, 0), BuildingBlock: TEMPAE_clean_linker_10, # of connection points: 2
#     Edge 15, Type (0, 0), BuildingBlock: TEMPAE_clean_linker_10, # of connection points: 2
#     Edge 16, Type (0, 0), BuildingBlock: TEMPAE_clean_linker_10, # of connection points: 2
#     Edge 17, Type (0, 0), BuildingBlock: TEMPAE_clean_linker_10, # of connection points: 2
# Relax obj value: 0.088
# Max RMSD: 0.190
# Mean RMSD: 0.155
data_MOF--net-unj--node1-ICAMEG_clean_sbu_1--edge1-TEMPAE_clean_linker_10
_symmetry_space_group_name_H-M    P1
_symmetry_Int_Tables_number       1
_symmetry_cell_setting            triclinic
loop_
_symmetry_equiv_pos_as_xyz
'x, y, z'
_cell_length_a     31.899142
_cell_length_b     35.54022
_cell_length_c     40.265426
_cell_angle_alpha  90.148467
_cell_angle_beta   89.897737
_cell_angle_gamma 120.0705
loop_
_atom_site_label
_atom_site_type_symbol
_atom_site_fract_x
_atom_site_fract_y
_atom_site_fract_z
_atom_type_partial_charge
Co0 Co 0.59284 0.31853 0.59776 0.0
Co1 Co 0.48277 0.22352 0.60245 0.0
O2 O 0.53969 0.26616 0.57765 0.0
C3 C 0.56786 0.35221 0.53743 0.0
O4 O 0.52158 0.32654 0.54356 0.0
C5 C 0.48328 0.14209 0.58462 0.0
O6 O 0.48825 0.13656 0.6163 0.0
O7 O 0.52493 0.21845 0.63671 0.0
O8 O 0.58892 0.2861 0.63922 0.0
H9 H 0.38283 0.15682 0.70493 0.0
H10 H 0.60393 0.28714 0.53196 0.0
O11 O 0.59968 0.35263 0.55667 0.0
H12 H 0.73551 0.2942 0.60065 0.0
H13 H 0.75394 0.45767 0.59799 0.0
H14 H 0.61044 0.35907 0.66443 0.0
H15 H 0.67923 0.31605 0.62368 0.0
H16 H 0.68774 0.39067 0.57322 0.0
O17 O 0.48262 0.17596 0.57491 0.0
H18 H 0.45371 0.211 0.67329 0.0
H19 H 0.39046 0.14368 0.5834 0.0
H20 H 0.67607 0.4255 0.6903 0.0
H21 H 0.65981 0.26555 0.50767 0.0
H22 H 0.74845 0.47535 0.65699 0.0
H23 H 0.72609 0.26886 0.54214 0.0
O24 O 0.54621 0.33489 0.61651 0.0
H25 H 0.42979 0.23025 0.48617 0.0
H26 H 0.39787 0.23736 0.60523 0.0
H27 H 0.34696 0.24605 0.56347 0.0
H28 H 0.36268 0.24237 0.50345 0.0
H29 H 0.48026 0.22231 0.52875 0.0
H30 H 0.31897 0.08865 0.61408 0.0
H31 H 0.31482 0.09508 0.67529 0.0
O32 O 0.48146 0.27045 0.6295 0.0
C33 C 0.56399 0.24744 0.65035 0.0
C34 C 0.38419 0.15368 0.67826 0.0
C35 C 0.34836 0.11541 0.62727 0.0
N36 N 0.42621 0.18054 0.62655 0.0
C37 C 0.42421 0.18428 0.66021 0.0
C38 C 0.38896 0.14663 0.61004 0.0
C39 C 0.34605 0.11904 0.66162 0.0
C40 C 0.63273 0.28874 0.5471 0.0
N41 N 0.63804 0.3025 0.57934 0.0
C42 C 0.66424 0.27644 0.53322 0.0
C43 C 0.70139 0.27828 0.55257 0.0
C44 C 0.70665 0.29242 0.58541 0.0
C45 C 0.67445 0.30446 0.59843 0.0
C46 C 0.72262 0.43617 0.61278 0.0
C47 C 0.64197 0.38045 0.64985 0.0
C48 C 0.68494 0.39825 0.59885 0.0
N49 N 0.64539 0.37082 0.61743 0.0
C50 C 0.67895 0.41808 0.6646 0.0
C51 C 0.71953 0.44606 0.64589 0.0
C52 C 0.5052 0.31198 0.63066 0.0
C53 C 0.42247 0.23177 0.51225 0.0
C54 C 0.40516 0.23597 0.57918 0.0
C55 C 0.37608 0.24076 0.55563 0.0
C56 C 0.38488 0.23865 0.52196 0.0
N57 N 0.44193 0.22916 0.56947 0.0
C58 C 0.45079 0.22708 0.53649 0.0
Co59 Co 0.25096 0.44741 0.77518 0.0
Co60 Co 0.25704 0.54573 0.76797 0.0
O61 O 0.26556 0.49915 0.74939 0.0
C62 C 0.33978 0.4417 0.76458 0.0
O63 O 0.3439 0.44243 0.79707 0.0
C64 C 0.20622 0.53081 0.70284 0.0
O65 O 0.17965 0.48924 0.70976 0.0
O66 O 0.18815 0.50312 0.77833 0.0
O67 O 0.19554 0.44803 0.79873 0.0
H68 H 0.20005 0.61382 0.85306 0.0
H69 H 0.25698 0.44542 0.70178 0.0
O70 O 0.30555 0.44533 0.75143 0.0
H71 H 0.09173 0.32911 0.72986 0.0
H72 H 0.22682 0.29715 0.79124 0.0
H73 H 0.22938 0.4226 0.84595 0.0
H74 H 0.14903 0.3731 0.77398 0.0
H75 H 0.24361 0.36212 0.75891 0.0
O76 O 0.23821 0.5566 0.72326 0.0
H77 H 0.21273 0.55614 0.82953 0.0
H78 H 0.28082 0.63399 0.74469 0.0
H79 H 0.21229 0.35825 0.87919 0.0
H80 H 0.20098 0.40183 0.65689 0.0
H81 H 0.21096 0.29494 0.85183 0.0
H82 H 0.11764 0.34327 0.67082 0.0
O83 O 0.29632 0.48498 0.81072 0.0
H84 H 0.40512 0.6133 0.6954 0.0
H85 H 0.33932 0.61749 0.80535 0.0
H86 H 0.42521 0.66879 0.79296 0.0
H87 H 0.45862 0.66702 0.73758 0.0
H88 H 0.3195 0.5622 0.70901 0.0
H89 H 0.26843 0.69232 0.76715 0.0
H90 H 0.22799 0.6825 0.82179 0.0
O91 O 0.27698 0.5374 0.81318 0.0
C92 C 0.17139 0.46744 0.79425 0.0
C93 C 0.21783 0.61853 0.82927 0.0
C94 C 0.25614 0.66256 0.78103 0.0
N95 N 0.24776 0.59178 0.78587 0.0
C96 C 0.22521 0.58602 0.81585 0.0
C97 C 0.26292 0.62935 0.76839 0.0
C98 C 0.23347 0.65704 0.81169 0.0
C99 C 0.22095 0.41969 0.70807 0.0
N100 N 0.20647 0.41165 0.74049 0.0
C101 C 0.18932 0.39524 0.68253 0.0
C102 C 0.14254 0.36244 0.69036 0.0
C103 C 0.12798 0.35449 0.72348 0.0
C104 C 0.16057 0.3796 0.74835 0.0
C105 C 0.22724 0.32451 0.80344 0.0
C106 C 0.22874 0.39513 0.83385 0.0
C107 C 0.23672 0.36137 0.78527 0.0
N108 N 0.23733 0.39606 0.80053 0.0
C109 C 0.21909 0.3588 0.85281 0.0
C110 C 0.21836 0.32329 0.83744 0.0
C111 C 0.29762 0.51758 0.8251 0.0
C112 C 0.39098 0.61442 0.71961 0.0
C113 C 0.35363 0.61626 0.7813 0.0
C114 C 0.40228 0.64553 0.77438 0.0
C115 C 0.42099 0.64453 0.74329 0.0
N116 N 0.32439 0.58686 0.75793 0.0
C117 C 0.34251 0.58563 0.72743 0.0
Co118 Co 0.75018 0.30514 0.92796 0.0
Co119 Co 0.76303 0.21605 0.91391 0.0
O120 O 0.74999 0.253 0.94309 0.0
C121 C 0.816 0.37022 0.97732 0.0
O122 O 0.84422 0.39287 0.95261 0.0
C123 C 0.67586 0.13028 0.93008 0.0
O124 O 0.66216 0.12668 0.89894 0.0
O125 O 0.71233 0.21071 0.88221 0.0
O126 O 0.72037 0.27722 0.88433 0.0
H127 H 0.79219 0.16476 0.80448 0.0
H128 H 0.70404 0.26312 0.99164 0.0
O129 O 0.77844 0.33331 0.97189 0.0
H130 H 0.57557 0.26834 0.92745 0.0
H131 H 0.72732 0.43498 0.94067 0.0
H132 H 0.77772 0.35525 0.86532 0.0
H133 H 0.65788 0.29871 0.90444 0.0
H134 H 0.72523 0.36799 0.95925 0.0
O135 O 0.71398 0.16434 0.94001 0.0
H136 H 0.7777 0.21246 0.84151 0.0
H137 H 0.77381 0.13829 0.92521 0.0
H138 H 0.78004 0.42195 0.84563 0.0
H139 H 0.62245 0.23299 0.01592 0.0
H140 H 0.75475 0.46231 0.88345 0.0
H141 H 0.55747 0.23534 0.98371 0.0
O142 O 0.81644 0.32764 0.90906 0.0
H143 H 0.83157 0.21768 0.0266 0.0
H144 H 0.8656 0.23689 0.90642 0.0
H145 H 0.92989 0.24608 0.9451 0.0
H146 H 0.91299 0.23626 1.00566 0.0
H147 H 0.76847 0.20934 0.98709 0.0
H148 H 0.78803 0.08964 0.88907 0.0
H149 H 0.79742 0.10279 0.82824 0.0
O150 O 0.81316 0.26746 0.88835 0.0
C151 C 0.70371 0.23972 0.87098 0.0
C152 C 0.78819 0.15869 0.83094 0.0
C153 C 0.78582 0.11652 0.87842 0.0
N154 N 0.77489 0.17817 0.88546 0.0
C155 C 0.78001 0.18562 0.85204 0.0
C156 C 0.77767 0.14412 0.89874 0.0
C157 C 0.7911 0.12393 0.84429 0.0
C158 C 0.67601 0.26436 0.97748 0.0
N159 N 0.68567 0.28238 0.94648 0.0
C160 C 0.62985 0.2472 0.99136 0.0
C161 C 0.5934 0.2485 0.97326 0.0
C162 C 0.60351 0.26694 0.94168 0.0
C163 C 0.65009 0.28379 0.92863 0.0
C164 C 0.73839 0.41767 0.92395 0.0
C165 C 0.7665 0.37256 0.88187 0.0
C166 C 0.73736 0.37976 0.93434 0.0
N167 N 0.75122 0.35766 0.91334 0.0
C168 C 0.76795 0.41034 0.87061 0.0
C169 C 0.75378 0.43297 0.89184 0.0
C170 C 0.8339 0.30873 0.89154 0.0
C171 C 0.83932 0.22192 1.00026 0.0
C172 C 0.85799 0.23278 0.93275 0.0
C173 C 0.89453 0.23791 0.95453 0.0
C174 C 0.88502 0.23238 0.9885 0.0
N175 N 0.81317 0.22231 0.94445 0.0
C176 C 0.80368 0.21709 0.97775 0.0
Co177 Co 0.42857 0.69526 0.09818 0.0
Co178 Co 0.54229 0.78791 0.0969 0.0
O179 O 0.48181 0.74494 0.07553 0.0
C180 C 0.4524 0.65554 0.04124 0.0
O181 O 0.49864 0.6818 0.04708 0.0
C182 C 0.54154 0.86966 0.08122 0.0
O183 O 0.54095 0.87641 0.11326 0.0
O184 O 0.50581 0.79531 0.13455 0.0
O185 O 0.43439 0.73277 0.13677 0.0
H186 H 0.65659 0.8569 0.19272 0.0
H187 H 0.41649 0.71948 0.02995 0.0
O188 O 0.42048 0.65662 0.05957 0.0
H189 H 0.28815 0.72261 0.09627 0.0
H190 H 0.26632 0.5578 0.10482 0.0
H191 H 0.41117 0.66274 0.16734 0.0
H192 H 0.34421 0.70245 0.12205 0.0
H193 H 0.3329 0.62123 0.0767 0.0
O194 O 0.53972 0.83495 0.07071 0.0
H195 H 0.58121 0.80228 0.16533 0.0
H196 H 0.6323 0.86641 0.07278 0.0
H197 H 0.34519 0.59999 0.19653 0.0
H198 H 0.36081 0.73922 1.00299 0.0
H199 H 0.27212 0.54697 0.1652 0.0
H200 H 0.29617 0.74102 0.03625 0.0
O201 O 0.47426 0.6795 0.11929 0.0
H202 H 0.57529 0.77352 0.97679 0.0
H203 H 0.62781 0.77515 0.0921 0.0
H204 H 0.67111 0.76325 0.04617 0.0
H205 H 0.64493 0.76248 0.98798 0.0
H206 H 0.53265 0.7847 0.02352 0.0
H207 H 0.70811 0.92184 0.09918 0.0
H208 H 0.72066 0.91724 0.15957 0.0
O209 O 0.54625 0.74133 0.12226 0.0
C210 C 0.46442 0.77061 0.14765 0.0
C211 C 0.65157 0.85923 0.16638 0.0
C212 C 0.68047 0.8957 0.11389 0.0
N213 N 0.60238 0.83112 0.11752 0.0
C214 C 0.609 0.82838 0.15074 0.0
C215 C 0.63744 0.86426 0.09909 0.0
C216 C 0.68749 0.89309 0.14777 0.0
C217 C 0.38839 0.7201 0.04457 0.0
N218 N 0.38382 0.71014 0.07761 0.0
C219 C 0.357 0.73134 0.02918 0.0
C220 C 0.32075 0.73237 0.04785 0.0
C221 C 0.31628 0.7221 0.08153 0.0
C222 C 0.34831 0.71099 0.09607 0.0
C223 C 0.29794 0.58071 0.11875 0.0
C224 C 0.37933 0.63996 0.1536 0.0
C225 C 0.33583 0.61662 0.10294 0.0
N226 N 0.37575 0.64581 0.12042 0.0
C227 C 0.34216 0.60442 0.17023 0.0
C228 C 0.30121 0.57466 0.15263 0.0
C229 C 0.51861 0.70086 0.12818 0.0
C230 C 0.58707 0.77381 1.00203 0.0
C231 C 0.6159 0.77439 0.06692 0.0
C232 C 0.64073 0.76791 0.04097 0.0
C233 C 0.62608 0.76755 1.00833 0.0
N234 N 0.57758 0.78039 0.06057 0.0
C235 C 0.56316 0.78027 0.02861 0.0
Co236 Co 0.77321 0.57616 0.27941 0.0
Co237 Co 0.76963 0.47966 0.26295 0.0
O238 O 0.76163 0.52864 0.24865 0.0
C239 C 0.68225 0.55589 0.24222 0.0
O240 O 0.67302 0.51612 0.23655 0.0
C241 C 0.82024 0.50523 0.19726 0.0
O242 O 0.83459 0.54619 0.20341 0.0
O243 O 0.83708 0.5209 0.27706 0.0
O244 O 0.82795 0.57299 0.30156 0.0
H245 H 0.82036 0.40105 0.34233 0.0
H246 H 0.7712 0.59032 0.20701 0.0
O247 O 0.71966 0.58247 0.25863 0.0
H248 H 0.93334 0.7033 0.24427 0.0
H249 H 0.78946 0.72005 0.31134 0.0
H250 H 0.79206 0.59034 0.35168 0.0
H251 H 0.87435 0.65118 0.28424 0.0
H252 H 0.77676 0.66142 0.27259 0.0
O253 O 0.79436 0.4758 0.21811 0.0
H254 H 0.80838 0.46103 0.32364 0.0
H255 H 0.75028 0.39582 0.23217 0.0
H256 H 0.80535 0.64839 0.39124 0.0
H257 H 0.82879 0.64228 0.16631 0.0
H258 H 0.80408 0.71383 0.37112 0.0
H259 H 0.91063 0.69918 0.18484 0.0
O260 O 0.72587 0.53347 0.31144 0.0
H261 H 0.63118 0.41823 0.18201 0.0
H262 H 0.68386 0.40348 0.29386 0.0
H263 H 0.60027 0.35261 0.27591 0.0
H264 H 0.57347 0.35967 0.21954 0.0
H265 H 0.71422 0.46898 0.20126 0.0
H266 H 0.76209 0.33536 0.24975 0.0
H267 H 0.79716 0.33764 0.30526 0.0
O268 O 0.74458 0.48066 0.30848 0.0
C269 C 0.85268 0.55454 0.29536 0.0
C270 C 0.8049 0.39961 0.31814 0.0
C271 C 0.77224 0.36276 0.26616 0.0
N272 N 0.77828 0.43179 0.27698 0.0
C273 C 0.7979 0.43342 0.30745 0.0
C274 C 0.76573 0.39715 0.25632 0.0
C275 C 0.79191 0.36406 0.29731 0.0
C276 C 0.80648 0.61532 0.21536 0.0
N277 N 0.81924 0.61776 0.248 0.0
C278 C 0.83906 0.64451 0.19216 0.0
C279 C 0.885 0.67637 0.20256 0.0
C280 C 0.89778 0.67867 0.23589 0.0
C281 C 0.86426 0.64893 0.25839 0.0
C282 C 0.7902 0.69175 0.3204 0.0
C283 C 0.79176 0.61884 0.3427 0.0
C284 C 0.78294 0.65839 0.29858 0.0
N285 N 0.78404 0.62263 0.30982 0.0
C286 C 0.79918 0.65155 0.36523 0.0
C287 C 0.79841 0.68824 0.35393 0.0
C288 C 0.72342 0.49887 0.32254 0.0
C289 C 0.64242 0.41481 0.20663 0.0
C290 C 0.67235 0.4072 0.26949 0.0
C291 C 0.62502 0.37808 0.25936 0.0
C292 C 0.61004 0.38201 0.22771 0.0
N293 N 0.70387 0.4394 0.24871 0.0
C294 C 0.68947 0.44333 0.21761 0.0
Co295 Co 0.27573 0.70593 0.42189 0.0
Co296 Co 0.26628 0.797 0.41366 0.0
O297 O 0.27944 0.75827 0.44051 0.0
C298 C 0.2173 0.67108 0.48389 0.0
O299 O 0.19161 0.68919 0.47567 0.0
C300 C 0.3528 0.88254 0.43102 0.0
O301 O 0.36501 0.88784 0.39949 0.0
O302 O 0.3167 0.80369 0.38087 0.0
O303 O 0.30081 0.73483 0.378 0.0
H304 H 0.23803 0.85498 0.30754 0.0
H305 H 0.32941 0.74401 0.48431 0.0
O306 O 0.25177 0.67543 0.46534 0.0
H307 H 0.44849 0.74028 0.40813 0.0
H308 H 0.29325 0.57273 0.42411 0.0
H309 H 0.24098 0.65859 0.35809 0.0
H310 H 0.36414 0.71254 0.39027 0.0
H311 H 0.29986 0.63997 0.44691 0.0
O312 O 0.31589 0.84738 0.4408 0.0
H313 H 0.25259 0.80527 0.34185 0.0
H314 H 0.25474 0.87363 0.4291 0.0
H315 H 0.23424 0.59182 0.33418 0.0
H316 H 0.41331 0.77165 0.50339 0.0
H317 H 0.26048 0.54837 0.36728 0.0
H318 H 0.47353 0.76998 0.46514 0.0
O319 O 0.20801 0.68528 0.40742 0.0
H320 H 0.19949 0.78892 0.52824 0.0
H321 H 0.1637 0.77707 0.40834 0.0
H322 H 0.09996 0.76534 0.44856 0.0
H323 H 0.11771 0.77139 0.50901 0.0
H324 H 0.26204 0.79987 0.48719 0.0
H325 H 0.24043 0.92422 0.39572 0.0
H326 H 0.23188 0.91499 0.33448 0.0
O327 O 0.21521 0.74696 0.387 0.0
C328 C 0.32095 0.77356 0.36676 0.0
C329 C 0.24163 0.8593 0.3342 0.0
C330 C 0.243 0.89818 0.38369 0.0
N331 N 0.25437 0.83646 0.38743 0.0
C332 C 0.24981 0.83123 0.35376 0.0
C333 C 0.25115 0.86947 0.40246 0.0
C334 C 0.2382 0.89298 0.34933 0.0
C335 C 0.35537 0.74302 0.46757 0.0
N336 N 0.34188 0.72672 0.43618 0.0
C337 C 0.40284 0.75878 0.47849 0.0
C338 C 0.43662 0.75787 0.45701 0.0
C339 C 0.42261 0.74125 0.42502 0.0
C340 C 0.37483 0.72577 0.41497 0.0
C341 C 0.28174 0.5914 0.40943 0.0
C342 C 0.25269 0.63998 0.37258 0.0
C343 C 0.28524 0.62942 0.42225 0.0
N344 N 0.27105 0.65331 0.40378 0.0
C345 C 0.24869 0.60215 0.35894 0.0
C346 C 0.26338 0.57777 0.37754 0.0
C347 C 0.19173 0.70566 0.39069 0.0
C348 C 0.19137 0.78635 0.50197 0.0
C349 C 0.17171 0.77961 0.43459 0.0
C350 C 0.13548 0.77303 0.45726 0.0
C351 C 0.14547 0.77645 0.49116 0.0
N352 N 0.2167 0.7894 0.44538 0.0
C353 C 0.22671 0.7927 0.47859 0.0
C354 C 0.4462 0.10314 0.53133 0.0
C355 C 0.47131 0.10616 0.56072 0.0
C356 C 0.43001 0.06708 0.51005 0.0
C357 C 0.44004 0.03353 0.51788 0.0
C358 C 0.46715 0.03728 0.54681 0.0
C359 C 0.48192 0.07326 0.56808 0.0
C360 C 0.40046 0.06409 0.47985 0.0
C361 C 0.47959 1.00279 0.55568 0.0
C362 C 0.35332 0.92083 0.48344 0.0
C363 C 0.37731 0.91967 0.45452 0.0
C364 C 0.37364 0.95738 0.50443 0.0
C365 C 0.41965 0.99347 0.49681 0.0
C366 C 0.44488 0.99187 0.46832 0.0
C367 C 0.42317 0.95522 0.4473 0.0
C368 C 0.34502 0.95794 0.53416 0.0
C369 C 0.49444 0.02919 0.45971 0.0
H370 H 0.43744 0.12819 0.52554 0.0
H371 H 0.50151 0.07546 0.59066 0.0
H372 H 0.4172 0.05963 0.45713 0.0
H373 H 0.36361 0.03528 0.48203 0.0
H374 H 0.39702 0.09347 0.4767 0.0
H375 H 0.50454 0.01237 0.57727 0.0
H376 H 0.44603 0.97201 0.56177 0.0
H377 H 0.49671 0.99612 0.53417 0.0
H378 H 0.31769 0.89372 0.48911 0.0
H379 H 0.44202 0.95452 0.42509 0.0
H380 H 0.33721 0.98493 0.53168 0.0
H381 H 0.36649 0.9639 0.55718 0.0
H382 H 0.31015 0.92699 0.53698 0.0
H383 H 0.49185 0.05835 0.4535 0.0
H384 H 0.5109 0.02153 0.4383 0.0
H385 H 0.519 0.03774 0.48141 0.0
C386 C 0.43934 0.30986 0.6663 0.0
C387 C 0.48366 0.33432 0.64958 0.0
C388 C 0.41827 0.33008 0.68429 0.0
C389 C 0.44186 0.37604 0.68571 0.0
C390 C 0.48653 0.40103 0.6689 0.0
C391 C 0.50692 0.37992 0.65111 0.0
C392 C 0.3707 0.30213 0.70191 0.0
C393 C 0.51279 0.45008 0.66976 0.0
C394 C 0.36129 0.42275 0.70934 0.0
C395 C 0.36992 0.42985 0.7436 0.0
C396 C 0.38573 0.40676 0.68995 0.0
C397 C 0.41969 0.39761 0.7051 0.0
C398 C 0.42996 0.40634 0.73938 0.0
C399 C 0.40502 0.42233 0.75818 0.0
C400 C 0.37381 0.39807 0.65347 0.0
C401 C 0.46592 0.39713 0.75654 0.0
H402 H 0.42092 0.27466 0.66547 0.0
H403 H 0.54112 0.39924 0.63835 0.0
H404 H 0.37506 0.30929 0.72893 0.0
H405 H 0.34304 0.30975 0.6927 0.0
H406 H 0.3569 0.26684 0.6983 0.0
H407 H 0.54701 0.46484 0.65524 0.0
H408 H 0.48914 0.4619 0.65964 0.0
H409 H 0.52138 0.46171 0.6958 0.0
H410 H 0.33432 0.42844 0.69776 0.0
H411 H 0.41214 0.42779 0.78457 0.0
H412 H 0.35585 0.36259 0.64862 0.0
H413 H 0.40747 0.41385 0.63842 0.0
H414 H 0.34944 0.40999 0.64491 0.0
H415 H 0.45221 0.36162 0.75636 0.0
H416 H 0.47251 0.40867 0.7827 0.0
H417 H 0.50095 0.41295 0.74304 0.0
C418 C 0.91485 0.37704 0.88693 0.0
C419 C 0.88157 0.33543 0.875 0.0
C420 C 0.96177 0.40078 0.87348 0.0
C421 C 0.97552 0.38287 0.84702 0.0
C422 C 0.94144 0.34162 0.83401 0.0
C423 C 0.89514 0.31826 0.84834 0.0
C424 C 0.99722 0.44428 0.88847 0.0
C425 C 0.95425 0.32166 0.80542 0.0
C426 C 0.0875 0.45715 0.79565 0.0
C427 C 0.1218 0.44734 0.80846 0.0
C428 C 0.03977 0.43653 0.80796 0.0
C429 C 0.02627 0.40604 0.83414 0.0
C430 C 0.06109 0.3968 0.84765 0.0
C431 C 0.10818 0.41718 0.83445 0.0
C432 C 1.0035 0.44666 0.79245 0.0
C433 C 0.04854 0.36511 0.87596 0.0
H434 H 0.90491 0.39046 0.90764 0.0
H435 H 0.86961 0.28627 0.83877 0.0
H436 H 0.02791 0.44252 0.89974 0.0
H437 H 1.01249 0.4696 0.86892 0.0
H438 H 0.98028 0.4546 0.90791 0.0
H439 H 0.92258 0.29094 0.79653 0.0
H440 H 0.96886 0.34484 0.78437 0.0
H441 H 0.98298 0.31464 0.81319 0.0
H442 H 0.0976 0.48016 0.77541 0.0
H443 H 0.13449 0.40959 0.84467 0.0
H444 H 0.98789 0.45848 0.81167 0.0
H445 H 0.97313 0.4166 0.78163 0.0
H446 H 0.01985 0.47157 0.7726 0.0
H447 H 0.03394 0.37497 0.89719 0.0
H448 H 0.08032 0.36298 0.88465 0.0
H449 H 0.01988 0.33224 0.86806 0.0
C450 C 0.57449 0.90682 0.02684 0.0
C451 C 0.5527 0.90539 0.05749 0.0
C452 C 0.59092 0.94292 1.00573 0.0
C453 C 0.58445 0.97814 0.01505 0.0
C454 C 0.56028 0.97592 0.04519 0.0
C455 C 0.54526 0.93984 0.06625 0.0
C456 C 0.61732 0.94423 0.97419 0.0
C457 C 0.55157 0.01225 0.05565 0.0
C458 C 0.67528 0.08934 0.98066 0.0
C459 C 0.65073 0.09269 0.95294 0.0
C460 C 0.65386 0.05253 1.00122 0.0
C461 C 0.6062 0.01848 0.99444 0.0
C462 C 0.58055 0.02231 0.96716 0.0
C463 C 0.60335 0.05912 0.94649 0.0
C464 C 0.68293 0.04951 0.02961 0.0
C465 C 0.52931 0.98722 0.95955 0.0
H466 H 0.58076 0.88054 0.01995 0.0
H467 H 0.52822 0.93885 0.0898 0.0
H468 H 0.60032 0.95051 0.95252 0.0
H469 H 0.65536 0.97132 0.97558 0.0
H470 H 0.61756 0.91346 0.96979 0.0
H471 H 0.52778 1.00355 0.07785 0.0
H472 H 0.58663 0.04174 0.06153 0.0
H473 H 0.53477 0.02075 0.03505 0.0
H474 H 0.71206 0.11493 0.98571 0.0
H475 H 0.58407 0.06158 0.92522 0.0
H476 H 0.68761 0.02086 0.026 0.0
H477 H 0.66331 0.04479 0.05338 0.0
H478 H 0.71931 0.079 0.03179 0.0
H479 H 0.52879 0.95685 0.95234 0.0
H480 H 0.51303 0.9966 0.93911 0.0
H481 H 0.50631 0.97988 0.98202 0.0
C482 C 0.63233 0.55842 0.19531 0.0
C483 C 0.65183 0.57191 0.22718 0.0
C484 C 0.60819 0.57732 0.17931 0.0
C485 C 0.60203 0.60939 0.19604 0.0
C486 C 0.61967 0.62148 0.22889 0.0
C487 C 0.64512 0.6032 0.2438 0.0
C488 C 0.59133 0.56447 0.14394 0.0
C489 C 0.61267 0.65452 0.24802 0.0
C490 C 0.58992 0.69432 0.14627 0.0
C491 C 0.5396 0.67733 0.14578 0.0
C492 C 0.61046 0.67212 0.16194 0.0
C493 C 0.58015 0.63243 0.17851 0.0
C494 C 0.52936 0.61537 0.17864 0.0
C495 C 0.50965 0.6377 0.16192 0.0
C496 C 0.66471 0.69111 0.16056 0.0
C497 C 0.4959 0.5738 0.19678 0.0
H498 H 0.63798 0.5346 0.18227 0.0
H499 H 0.66001 0.61354 0.26852 0.0
H500 H 0.55228 0.5538 0.14178 0.0
H501 H 0.61129 0.59305 0.12746 0.0
H502 H 0.59714 0.53789 0.13486 0.0
H503 H 0.62404 0.657 0.27438 0.0
H504 H 0.63415 0.68698 0.23637 0.0
H505 H 0.57407 0.64585 0.24729 0.0
H506 H 0.61347 0.7248 0.13395 0.0
H507 H 0.47076 0.62442 0.16195 0.0
H508 H 0.67337 0.6669 0.15007 0.0
H509 H 0.68004 0.69906 0.186 0.0
H510 H 0.68294 0.7211 0.14527 0.0
H511 H 0.49934 0.54654 0.18641 0.0
H512 H 0.45737 0.56529 0.19511 0.0
H513 H 0.5063 0.57702 0.22337 0.0
C514 C 0.12935 0.69921 0.34972 0.0
C515 C 0.14296 0.68076 0.37532 0.0
C516 C 0.0825 0.67714 0.33613 0.0
C517 C 0.04798 0.63589 0.3488 0.0
C518 C 0.06159 0.61688 0.37441 0.0
C519 C 0.10901 0.63935 0.38715 0.0
C520 C 0.06978 0.69827 0.30847 0.0
C521 C 0.02566 0.57332 0.389 0.0
C522 C 0.91557 0.60288 0.33672 0.0
C523 C 0.90196 0.57364 0.30998 0.0
C524 C 0.96256 0.62253 0.35004 0.0
C525 C 0.99723 0.6134 0.33595 0.0
C526 C 0.98369 0.58373 0.3091 0.0
C527 C 0.93614 0.56393 0.29663 0.0
C528 C 0.97522 0.65341 0.37903 0.0
C529 C 0.01977 0.57368 0.29302 0.0
H530 H 0.15536 0.73109 0.34029 0.0
H531 H 0.11905 0.62498 0.40709 0.0
H532 H 0.05532 0.67596 0.28684 0.0
H533 H 0.04095 0.70488 0.31687 0.0
H534 H 0.10145 0.72936 0.3002 0.0
H535 H 0.04221 0.5625 0.40826 0.0
H536 H 0.99504 0.57522 0.40034 0.0
H537 H 1.01035 0.54829 0.36916 0.0
H538 H 0.88941 0.61045 0.34735 0.0
H539 H 0.92611 0.54163 0.27584 0.0
H540 H 1.00407 0.68643 0.37167 0.0
H541 H 0.98964 0.64281 0.39983 0.0
H542 H 0.94353 0.65548 0.38812 0.0
H543 H 0.05038 0.60391 0.28265 0.0
H544 H 1.00336 0.54936 0.27271 0.0
H545 H 0.03506 0.56113 0.3118 0.0
C546 C 0.55477 0.36742 0.47858 0.0
C547 C 0.58454 0.37858 0.50671 0.0
C548 C 0.57322 0.38884 0.44812 0.0
C549 C 0.62234 0.42236 0.44595 0.0
C550 C 0.65156 0.43537 0.47481 0.0
C551 C 0.63238 0.41326 0.50473 0.0
C552 C 0.54095 0.37398 0.41788 0.0
C553 C 0.70396 0.47112 0.47375 0.0
C554 C 0.69252 0.44052 0.3658 0.0
C555 C 0.69568 0.47882 0.3535 0.0
C556 C 0.66742 0.42121 0.3952 0.0
C557 C 0.64498 0.44067 0.41311 0.0
C558 C 0.64727 0.47893 0.40072 0.0
C559 C 0.67257 0.49756 0.37104 0.0
C560 C 0.66599 0.38045 0.40751 0.0
C561 C 0.62396 0.5007 0.4192 0.0
H562 H 0.5178 0.34062 0.47993 0.0
H563 H 0.65545 0.42247 0.52648 0.0
H564 H 0.5434 0.40228 0.40453 0.0
H565 H 0.55325 0.3572 0.4005 0.0
H566 H 0.50246 0.35127 0.42437 0.0
H567 H 0.72028 0.48024 0.49892 0.0
H568 H 0.72523 0.46025 0.45881 0.0
H569 H 0.70736 0.50048 0.46157 0.0
H570 H 0.71018 0.42564 0.35265 0.0
H571 H 0.67469 0.5271 0.36183 0.0
H572 H 0.62799 0.35451 0.4119 0.0
H573 H 0.68538 0.38713 0.43157 0.0
H574 H 0.68292 0.36804 0.38973 0.0
H575 H 0.58531 0.47696 0.42425 0.0
H576 H 0.62621 0.52856 0.40521 0.0
H577 H 0.64205 0.51271 0.44357 0.0
C578 C 0.1742 0.64418 0.53866 0.0
C579 C 0.20769 0.646 0.51516 0.0
C580 C 0.16757 0.62239 0.56907 0.0
C581 C 0.19509 0.60206 0.57606 0.0
C582 C 0.22761 0.60252 0.55192 0.0
C583 C 0.23348 0.62441 0.52188 0.0
C584 C 0.13244 0.62246 0.59419 0.0
C585 C 0.2578 0.58139 0.55832 0.0
C586 C 0.23006 0.59328 0.66432 0.0
C587 C 0.20046 0.54873 0.671 0.0
C588 C 0.22723 0.61117 0.63404 0.0
C589 C 0.19388 0.58399 0.60963 0.0
C590 C 0.16279 0.53923 0.61646 0.0
C591 C 0.16651 0.52207 0.64709 0.0
C592 C 0.26129 0.659 0.62777 0.0
C593 C 0.12664 0.5093 0.59106 0.0
H594 H 0.15398 0.66058 0.53365 0.0
H595 H 0.25916 0.6252 0.50385 0.0
H596 H 0.10788 0.589 0.60333 0.0
H597 H 0.15272 0.64254 0.61594 0.0
H598 H 0.11026 0.63569 0.58375 0.0
H599 H 0.27875 0.58192 0.53608 0.0
H600 H 0.28362 0.59865 0.57884 0.0
H601 H 0.23434 0.54714 0.56618 0.0
H602 H 0.25633 0.61433 0.68259 0.0
H603 H 0.14333 0.48769 0.65206 0.0
H604 H 0.24065 0.67491 0.61982 0.0
H605 H 0.28659 0.66301 0.60733 0.0
H606 H 0.28294 0.67619 0.65008 0.0
H607 H 0.10446 0.52316 0.58187 0.0
H608 H 0.10209 0.47637 0.60126 0.0
H609 H 0.14612 0.50606 0.56938 0.0
C610 C 0.67283 0.20064 0.81648 0.0
C611 C 0.67495 0.23079 0.84 0.0
C612 C 0.65091 0.19634 0.7853 0.0
C613 C 0.62936 0.22184 0.7779 0.0
C614 C 0.62854 0.25006 0.80243 0.0
C615 C 0.65203 0.25472 0.83282 0.0
C616 C 0.65357 0.16664 0.7596 0.0
C617 C 0.60505 0.27717 0.79598 0.0
C618 C 0.62948 0.26338 0.69145 0.0
C619 C 0.58119 0.23694 0.68138 0.0
C620 C 0.64612 0.25686 0.72185 0.0
C621 C 0.61339 0.22378 0.74346 0.0
C622 C 0.56486 0.19602 0.73319 0.0
C623 C 0.54944 0.2026 0.70206 0.0
C624 C 0.69841 0.28679 0.73141 0.0
C625 C 0.52862 0.16093 0.75577 0.0
H626 H 0.6904 0.18196 0.82174 0.0
H627 H 0.65321 0.27798 0.85068 0.0
H628 H 0.61771 0.14606 0.74782 0.0
H629 H 0.67918 0.18652 0.73968 0.0
H630 H 0.66615 0.14525 0.77037 0.0
H631 H 0.60159 0.29272 0.81899 0.0
H632 H 0.62712 0.30315 0.77785 0.0
H633 H 0.56851 0.25688 0.78504 0.0
H634 H 0.65441 0.28999 0.67587 0.0
H635 H 0.51203 0.18206 0.6946 0.0
H636 H 0.71494 0.26771 0.74045 0.0
H637 H 0.70033 0.30846 0.75196 0.0
H638 H 0.72039 0.3074 0.71034 0.0
H639 H 0.54362 0.14112 0.76586 0.0
H640 H 0.494 0.13908 0.74283 0.0
H641 H 0.52083 0.17617 0.7772 0.0
C642 C 0.3261 0.57049 0.87228 0.0
C643 C 0.32384 0.53385 0.85714 0.0
C644 C 0.35098 0.58732 0.90215 0.0
C645 C 0.37392 0.56684 0.91782 0.0
C646 C 0.37195 0.52985 0.90285 0.0
C647 C 0.34701 0.51381 0.87261 0.0
C648 C 0.35214 0.62688 0.91715 0.0
C649 C 0.39565 0.50697 0.91901 0.0
C650 C 0.46533 0.63937 0.98268 0.0
C651 C 0.43609 0.62789 0.01112 0.0
C652 C 0.44659 0.6177 0.95233 0.0
C653 C 0.39775 0.58353 0.95062 0.0
C654 C 0.36942 0.56972 0.97991 0.0
C655 C 0.38882 0.59225 1.00972 0.0
C656 C 0.4779 0.63359 0.92165 0.0
C657 C 0.31742 0.53317 0.97936 0.0
H658 H 0.30826 0.58628 0.86084 0.0
H659 H 0.34547 0.48547 0.86123 0.0
H660 H 0.33362 0.61845 0.94161 0.0
H661 H 0.39014 0.6529 0.92143 0.0
H662 H 0.33423 0.64006 0.90108 0.0
H663 H 0.39239 0.47962 0.90365 0.0
H664 H 0.4346 0.53029 0.92345 0.0
H665 H 0.37874 0.49408 0.94356 0.0
H666 H 0.50188 0.66694 0.98362 0.0
H667 H 0.36623 0.58289 0.03175 0.0
H668 H 0.46528 0.65127 0.90558 0.0
H669 H 0.47484 0.60582 0.90703 0.0
H670 H 0.51662 0.65589 0.92781 0.0
H671 H 0.29472 0.54422 0.96657 0.0
H672 H 0.30271 0.52235 1.00477 0.0
H673 H 0.31407 0.50489 0.96533 0.0
C674 C 0.86784 0.42453 0.02059 0.0
C675 C 0.82243 0.39077 0.01035 0.0
C676 C 0.87329 0.44594 0.05109 0.0
C677 C 0.83207 0.43411 0.07124 0.0
C678 C 0.78615 0.4001 0.06088 0.0
C679 C 0.78203 0.37848 0.03084 0.0
C680 C 0.92304 0.48111 0.06177 0.0
C681 C 0.74109 0.387 0.08127 0.0
C682 C 0.83723 0.45549 0.16381 0.0
C683 C 0.83064 0.49162 0.16509 0.0
C684 C 0.841 0.43821 0.13334 0.0
C685 C 0.83648 0.45665 0.1034 0.0
C686 C 0.83153 0.49414 0.10456 0.0
C687 C 0.82937 0.5116 0.13549 0.0
C688 C 0.84765 0.39903 0.13326 0.0
C689 C 0.82547 0.51416 0.07323 0.0
H690 H 0.89915 0.43409 1.00481 0.0
H691 H 0.74668 0.35281 0.02287 0.0
H692 H 0.9237 0.51248 0.06438 0.0
H693 H 0.93191 0.47312 0.08645 0.0
H694 H 0.95161 0.48544 0.04382 0.0
H695 H 0.70788 0.361 0.0691 0.0
H696 H 0.74465 0.3752 0.10599 0.0
H697 H 0.73648 0.4156 0.08546 0.0
H698 H 0.83854 0.44019 0.18676 0.0
H699 H 0.82384 0.5393 0.1365 0.0
H700 H 0.8768 0.40393 0.1157 0.0
H701 H 0.81378 0.37001 0.12477 0.0
H702 H 0.85676 0.39215 0.15831 0.0
H703 H 0.8547 0.52062 0.05526 0.0
H704 H 0.82573 0.54504 0.07819 0.0
H705 H 0.79056 0.49099 0.06124 0.0
C706 C 0.35739 0.75027 0.32192 0.0
C707 C 0.34896 0.78244 0.3353 0.0
C708 C 0.38154 0.75625 0.29165 0.0
C709 C 0.39723 0.79519 0.27364 0.0
C710 C 0.38992 0.82835 0.28715 0.0
C711 C 0.36602 0.82168 0.31793 0.0
C712 C 0.38863 0.71998 0.27838 0.0
C713 C 0.40573 0.87014 0.26854 0.0
C714 C 0.483 0.80713 0.20346 0.0
C715 C 0.44995 0.78533 0.17775 0.0
C716 C 0.467 0.81369 0.23444 0.0
C717 C 0.41702 0.7986 0.23948 0.0
C718 C 0.38443 0.78002 0.21257 0.0
C719 C 0.40125 0.77338 0.18218 0.0
C720 C 0.50294 0.83359 0.26246 0.0
C721 C 0.331 0.76401 0.21652 0.0
H722 H 0.34434 0.71969 0.3348 0.0
H723 H 0.35963 0.84672 0.32791 0.0
H724 H 0.36677 0.70622 0.25551 0.0
H725 H 0.42715 0.73269 0.27162 0.0
H726 H 0.37776 0.69324 0.29661 0.0
H727 H 0.40247 0.89456 0.28392 0.0
H728 H 0.44381 0.88434 0.26012 0.0
H729 H 0.38299 0.86333 0.24604 0.0
H730 H 0.52073 0.81654 0.20011 0.0
H731 H 0.37581 0.75748 0.16214 0.0
H732 H 0.49789 0.80766 0.28006 0.0
H733 H 0.49689 0.85737 0.27646 0.0
H734 H 0.54093 0.8501 0.25335 0.0
H735 H 0.31419 0.73415 0.23196 0.0
H736 H 0.31192 0.75622 0.19224 0.0
H737 H 0.32528 0.78867 0.22945 0.0
loop_
_geom_bond_atom_site_label_1
_geom_bond_atom_site_label_2
_geom_bond_distance
_geom_bond_site_symmetry_2
_ccdc_geom_bond_type
Co0 O2 2.143 . S
Co0 O8 2.074 . S
Co0 O11 2.093 . S
Co0 O24 2.097 . S
Co0 N41 2.151 . S
Co0 N49 2.214 . S
Co1 O2 2.160 . S
Co1 O7 2.058 . S
Co1 O17 2.057 . S
Co1 O32 2.037 . S
Co1 N36 2.145 . S
Co1 N57 2.257 . S
O2 Co0 2.143 . S
O2 Co1 2.160 . S
C3 O4 1.278 . S
C3 O11 1.224 . S
O4 C3 1.278 . S
C5 O6 1.245 . S
C5 O17 1.232 . S
O6 C5 1.245 . S
O7 Co1 2.058 . S
O7 C33 1.269 . S
O8 Co0 2.074 . S
O8 C33 1.257 . S
H9 C34 0.930 . S
H10 C40 0.930 . S
O11 Co0 2.093 . S
O11 C3 1.224 . S
H12 C44 0.929 . S
H13 C46 0.930 . S
H14 C47 0.930 . S
H15 C45 0.929 . S
H16 C48 0.928 . S
O17 Co1 2.057 . S
O17 C5 1.232 . S
H18 C37 0.929 . S
H19 C38 0.929 . S
H20 C50 0.931 . S
H21 C42 0.929 . S
H22 C51 0.930 . S
H23 C43 0.931 . S
O24 Co0 2.097 . S
O24 C52 1.214 . S
H25 C53 0.929 . S
H26 C54 0.929 . S
H27 C55 0.930 . S
H28 C56 0.929 . S
H29 C58 0.930 . S
H30 C35 0.930 . S
H31 C39 0.930 . S
O32 Co1 2.037 . S
O32 C52 1.234 . S
C33 O7 1.269 . S
C33 O8 1.257 . S
C34 H9 0.930 . S
C34 C37 1.388 . S
C34 C39 1.418 . S
C35 H30 0.930 . S
C35 C38 1.404 . S
C35 C39 1.353 . S
N36 Co1 2.145 . S
N36 C37 1.397 . S
N36 C38 1.334 . S
C37 H18 0.929 . S
C37 C34 1.388 . S
C37 N36 1.397 . S
C38 H19 0.929 . S
C38 C35 1.404 . S
C38 N36 1.334 . S
C39 H31 0.930 . S
C39 C34 1.418 . S
C39 C35 1.353 . S
C40 H10 0.930 . S
C40 N41 1.330 . S
C40 C42 1.446 . S
N41 Co0 2.151 . S
N41 C40 1.330 . S
N41 C45 1.418 . S
C42 H21 0.929 . S
C42 C40 1.446 . S
C42 C43 1.332 . S
C43 H23 0.931 . S
C43 C42 1.332 . S
C43 C44 1.267 . S
C44 H12 0.929 . S
C44 C43 1.267 . S
C44 C45 1.251 . S
C45 H15 0.929 . S
C45 N41 1.418 . S
C45 C44 1.251 . S
C46 H13 0.930 . S
C46 C48 1.406 . S
C46 C51 1.261 . S
C47 H14 0.930 . S
C47 N49 1.325 . S
C47 C50 1.357 . S
C48 H16 0.928 . S
C48 C46 1.406 . S
C48 N49 1.261 . S
N49 Co0 2.214 . S
N49 C47 1.325 . S
N49 C48 1.261 . S
C50 H20 0.931 . S
C50 C47 1.357 . S
C50 C51 1.312 . S
C51 H22 0.930 . S
C51 C46 1.261 . S
C51 C50 1.312 . S
C52 O24 1.214 . S
C52 O32 1.234 . S
C53 H25 0.929 . S
C53 C56 1.391 . S
C53 C58 1.391 . S
C54 H26 0.929 . S
C54 C55 1.390 . S
C54 N57 1.391 . S
C55 H27 0.930 . S
C55 C54 1.390 . S
C55 C56 1.392 . S
C56 H28 0.929 . S
C56 C53 1.391 . S
C56 C55 1.392 . S
N57 Co1 2.257 . S
N57 C54 1.391 . S
N57 C58 1.388 . S
C58 H29 0.930 . S
C58 C53 1.391 . S
C58 N57 1.388 . S
Co59 O61 2.143 . S
Co59 O67 2.074 . S
Co59 O70 2.093 . S
Co59 O83 2.097 . S
Co59 N100 2.151 . S
Co59 N108 2.214 . S
Co60 O61 2.160 . S
Co60 O66 2.058 . S
Co60 O76 2.057 . S
Co60 O91 2.037 . S
Co60 N95 2.145 . S
Co60 N116 2.257 . S
O61 Co59 2.143 . S
O61 Co60 2.160 . S
C62 O63 1.278 . S
C62 O70 1.224 . S
O63 C62 1.278 . S
C64 O65 1.245 . S
C64 O76 1.232 . S
O65 C64 1.245 . S
O66 Co60 2.058 . S
O66 C92 1.269 . S
O67 Co59 2.074 . S
O67 C92 1.257 . S
H68 C93 0.930 . S
H69 C99 0.930 . S
O70 Co59 2.093 . S
O70 C62 1.224 . S
H71 C103 0.929 . S
H72 C105 0.930 . S
H73 C106 0.930 . S
H74 C104 0.929 . S
H75 C107 0.928 . S
O76 Co60 2.057 . S
O76 C64 1.232 . S
H77 C96 0.929 . S
H78 C97 0.929 . S
H79 C109 0.931 . S
H80 C101 0.929 . S
H81 C110 0.930 . S
H82 C102 0.931 . S
O83 Co59 2.097 . S
O83 C111 1.214 . S
H84 C112 0.929 . S
H85 C113 0.929 . S
H86 C114 0.930 . S
H87 C115 0.929 . S
H88 C117 0.930 . S
H89 C94 0.930 . S
H90 C98 0.930 . S
O91 Co60 2.037 . S
O91 C111 1.234 . S
C92 O66 1.269 . S
C92 O67 1.257 . S
C93 H68 0.930 . S
C93 C96 1.388 . S
C93 C98 1.418 . S
C94 H89 0.930 . S
C94 C97 1.404 . S
C94 C98 1.353 . S
N95 Co60 2.145 . S
N95 C96 1.397 . S
N95 C97 1.334 . S
C96 H77 0.929 . S
C96 C93 1.388 . S
C96 N95 1.397 . S
C97 H78 0.929 . S
C97 C94 1.404 . S
C97 N95 1.334 . S
C98 H90 0.930 . S
C98 C93 1.418 . S
C98 C94 1.353 . S
C99 H69 0.930 . S
C99 N100 1.330 . S
C99 C101 1.446 . S
N100 Co59 2.151 . S
N100 C99 1.330 . S
N100 C104 1.418 . S
C101 H80 0.929 . S
C101 C99 1.446 . S
C101 C102 1.332 . S
C102 H82 0.931 . S
C102 C101 1.332 . S
C102 C103 1.267 . S
C103 H71 0.929 . S
C103 C102 1.267 . S
C103 C104 1.251 . S
C104 H74 0.929 . S
C104 N100 1.418 . S
C104 C103 1.251 . S
C105 H72 0.930 . S
C105 C107 1.406 . S
C105 C110 1.261 . S
C106 H73 0.930 . S
C106 N108 1.325 . S
C106 C109 1.357 . S
C107 H75 0.928 . S
C107 C105 1.406 . S
C107 N108 1.261 . S
N108 Co59 2.214 . S
N108 C106 1.325 . S
N108 C107 1.261 . S
C109 H79 0.931 . S
C109 C106 1.357 . S
C109 C110 1.312 . S
C110 H81 0.930 . S
C110 C105 1.261 . S
C110 C109 1.312 . S
C111 O83 1.214 . S
C111 O91 1.234 . S
C112 H84 0.929 . S
C112 C115 1.391 . S
C112 C117 1.391 . S
C113 H85 0.929 . S
C113 C114 1.390 . S
C113 N116 1.391 . S
C114 H86 0.930 . S
C114 C113 1.390 . S
C114 C115 1.392 . S
C115 H87 0.929 . S
C115 C112 1.391 . S
C115 C114 1.392 . S
N116 Co60 2.257 . S
N116 C113 1.391 . S
N116 C117 1.388 . S
C117 H88 0.930 . S
C117 C112 1.391 . S
C117 N116 1.388 . S
Co118 O120 2.143 . S
Co118 O126 2.074 . S
Co118 O129 2.093 . S
Co118 O142 2.097 . S
Co118 N159 2.151 . S
Co118 N167 2.214 . S
Co119 O120 2.160 . S
Co119 O125 2.058 . S
Co119 O135 2.057 . S
Co119 O150 2.037 . S
Co119 N154 2.145 . S
Co119 N175 2.257 . S
O120 Co118 2.143 . S
O120 Co119 2.160 . S
C121 O122 1.278 . S
C121 O129 1.224 . S
O122 C121 1.278 . S
C123 O124 1.245 . S
C123 O135 1.232 . S
O124 C123 1.245 . S
O125 Co119 2.058 . S
O125 C151 1.269 . S
O126 Co118 2.074 . S
O126 C151 1.257 . S
H127 C152 0.930 . S
H128 C158 0.930 . S
O129 Co118 2.093 . S
O129 C121 1.224 . S
H130 C162 0.929 . S
H131 C164 0.930 . S
H132 C165 0.930 . S
H133 C163 0.929 . S
H134 C166 0.928 . S
O135 Co119 2.057 . S
O135 C123 1.232 . S
H136 C155 0.929 . S
H137 C156 0.929 . S
H138 C168 0.931 . S
H139 C160 0.929 . S
H140 C169 0.930 . S
H141 C161 0.931 . S
O142 Co118 2.097 . S
O142 C170 1.214 . S
H143 C171 0.935 . S
H144 C172 0.929 . S
H145 C173 0.930 . S
H146 C174 0.929 1_554 S
H147 C176 0.930 . S
H148 C153 0.930 . S
H149 C157 0.930 . S
O150 Co119 2.037 . S
O150 C170 1.234 . S
C151 O125 1.269 . S
C151 O126 1.257 . S
C152 H127 0.930 . S
C152 C155 1.388 . S
C152 C157 1.418 . S
C153 H148 0.930 . S
C153 C156 1.404 . S
C153 C157 1.353 . S
N154 Co119 2.145 . S
N154 C155 1.397 . S
N154 C156 1.334 . S
C155 H136 0.929 . S
C155 C152 1.388 . S
C155 N154 1.397 . S
C156 H137 0.929 . S
C156 C153 1.404 . S
C156 N154 1.334 . S
C157 H149 0.930 . S
C157 C152 1.418 . S
C157 C153 1.353 . S
C158 H128 0.930 . S
C158 N159 1.330 . S
C158 C160 1.446 . S
N159 Co118 2.151 . S
N159 C158 1.330 . S
N159 C163 1.418 . S
C160 H139 0.929 . S
C160 C158 1.446 . S
C160 C161 1.332 . S
C161 H141 0.931 . S
C161 C160 1.332 . S
C161 C162 1.267 . S
C162 H130 0.929 . S
C162 C161 1.267 . S
C162 C163 1.251 . S
C163 H133 0.929 . S
C163 N159 1.418 . S
C163 C162 1.251 . S
C164 H131 0.930 . S
C164 C166 1.406 . S
C164 C169 1.261 . S
C165 H132 0.930 . S
C165 N167 1.325 . S
C165 C168 1.357 . S
C166 H134 0.928 . S
C166 C164 1.406 . S
C166 N167 1.261 . S
N167 Co118 2.214 . S
N167 C165 1.325 . S
N167 C166 1.261 . S
C168 H138 0.931 . S
C168 C165 1.357 . S
C168 C169 1.312 . S
C169 H140 0.930 . S
C169 C164 1.261 . S
C169 C168 1.312 . S
C170 O142 1.214 . S
C170 O150 1.234 . S
C171 H143 0.935 . S
C171 C174 1.389 1_554 S
C171 C176 1.386 1_554 S
C172 H144 0.929 . S
C172 C173 1.390 . S
C172 N175 1.391 . S
C173 H145 0.930 . S
C173 C172 1.390 . S
C173 C174 1.392 . S
C174 H146 0.929 1_556 S
C174 C171 1.389 1_556 S
C174 C173 1.392 . S
N175 Co119 2.257 . S
N175 C172 1.391 . S
N175 C176 1.388 . S
C176 H147 0.930 . S
C176 C171 1.386 1_556 S
C176 N175 1.388 . S
Co177 O179 2.143 . S
Co177 O185 2.074 . S
Co177 O188 2.093 . S
Co177 O201 2.097 . S
Co177 N218 2.151 . S
Co177 N226 2.214 . S
Co178 O179 2.160 . S
Co178 O184 2.058 . S
Co178 O194 2.057 . S
Co178 O209 2.037 . S
Co178 N213 2.145 . S
Co178 N234 2.257 . S
O179 Co177 2.143 . S
O179 Co178 2.160 . S
C180 O181 1.278 . S
C180 O188 1.224 . S
O181 C180 1.278 . S
C182 O183 1.245 . S
C182 O194 1.232 . S
O183 C182 1.245 . S
O184 Co178 2.058 . S
O184 C210 1.269 . S
O185 Co177 2.074 . S
O185 C210 1.257 . S
H186 C211 0.930 . S
H187 C217 0.930 . S
O188 Co177 2.093 . S
O188 C180 1.224 . S
H189 C221 0.929 . S
H190 C223 0.930 . S
H191 C224 0.930 . S
H192 C222 0.929 . S
H193 C225 0.928 . S
O194 Co178 2.057 . S
O194 C182 1.232 . S
H195 C214 0.929 . S
H196 C215 0.929 . S
H197 C227 0.931 . S
H198 C219 0.929 . S
H199 C228 0.930 . S
H200 C220 0.931 . S
O201 Co177 2.097 . S
O201 C229 1.214 . S
H202 C230 0.929 1_556 S
H203 C231 0.929 . S
H204 C232 0.930 . S
H205 C233 0.929 1_556 S
H206 C235 0.930 . S
H207 C212 0.930 . S
H208 C216 0.930 . S
O209 Co178 2.037 . S
O209 C229 1.234 . S
C210 O184 1.269 . S
C210 O185 1.257 . S
C211 H186 0.930 . S
C211 C214 1.388 . S
C211 C216 1.418 . S
C212 H207 0.930 . S
C212 C215 1.404 . S
C212 C216 1.353 . S
N213 Co178 2.145 . S
N213 C214 1.397 . S
N213 C215 1.334 . S
C214 H195 0.929 . S
C214 C211 1.388 . S
C214 N213 1.397 . S
C215 H196 0.929 . S
C215 C212 1.404 . S
C215 N213 1.334 . S
C216 H208 0.930 . S
C216 C211 1.418 . S
C216 C212 1.353 . S
C217 H187 0.930 . S
C217 N218 1.330 . S
C217 C219 1.446 . S
N218 Co177 2.151 . S
N218 C217 1.330 . S
N218 C222 1.418 . S
C219 H198 0.929 . S
C219 C217 1.446 . S
C219 C220 1.332 . S
C220 H200 0.931 . S
C220 C219 1.332 . S
C220 C221 1.267 . S
C221 H189 0.929 . S
C221 C220 1.267 . S
C221 C222 1.251 . S
C222 H192 0.929 . S
C222 N218 1.418 . S
C222 C221 1.251 . S
C223 H190 0.930 . S
C223 C225 1.406 . S
C223 C228 1.261 . S
C224 H191 0.930 . S
C224 N226 1.325 . S
C224 C227 1.357 . S
C225 H193 0.928 . S
C225 C223 1.406 . S
C225 N226 1.261 . S
N226 Co177 2.214 . S
N226 C224 1.325 . S
N226 C225 1.261 . S
C227 H197 0.931 . S
C227 C224 1.357 . S
C227 C228 1.312 . S
C228 H199 0.930 . S
C228 C223 1.261 . S
C228 C227 1.312 . S
C229 O201 1.214 . S
C229 O209 1.234 . S
C230 H202 0.929 1_554 S
C230 C233 1.391 . S
C230 C235 1.391 . S
C231 H203 0.929 . S
C231 C232 1.390 . S
C231 N234 1.391 . S
C232 H204 0.930 . S
C232 C231 1.390 . S
C232 C233 1.392 . S
C233 H205 0.929 1_554 S
C233 C230 1.391 . S
C233 C232 1.392 . S
N234 Co178 2.257 . S
N234 C231 1.391 . S
N234 C235 1.388 . S
C235 H206 0.930 . S
C235 C230 1.391 . S
C235 N234 1.388 . S
Co236 O238 2.143 . S
Co236 O244 2.074 . S
Co236 O247 2.093 . S
Co236 O260 2.097 . S
Co236 N277 2.151 . S
Co236 N285 2.214 . S
Co237 O238 2.160 . S
Co237 O243 2.058 . S
Co237 O253 2.057 . S
Co237 O268 2.037 . S
Co237 N272 2.145 . S
Co237 N293 2.257 . S
O238 Co236 2.143 . S
O238 Co237 2.160 . S
C239 O240 1.278 . S
C239 O247 1.224 . S
O240 C239 1.278 . S
C241 O242 1.245 . S
C241 O253 1.232 . S
O242 C241 1.245 . S
O243 Co237 2.058 . S
O243 C269 1.269 . S
O244 Co236 2.074 . S
O244 C269 1.257 . S
H245 C270 0.930 . S
H246 C276 0.930 . S
O247 Co236 2.093 . S
O247 C239 1.224 . S
H248 C280 0.929 . S
H249 C282 0.930 . S
H250 C283 0.930 . S
H251 C281 0.929 . S
H252 C284 0.928 . S
O253 Co237 2.057 . S
O253 C241 1.232 . S
H254 C273 0.929 . S
H255 C274 0.929 . S
H256 C286 0.931 . S
H257 C278 0.929 . S
H258 C287 0.930 . S
H259 C279 0.931 . S
O260 Co236 2.097 . S
O260 C288 1.214 . S
H261 C289 0.929 . S
H262 C290 0.929 . S
H263 C291 0.930 . S
H264 C292 0.929 . S
H265 C294 0.930 . S
H266 C271 0.930 . S
H267 C275 0.930 . S
O268 Co237 2.037 . S
O268 C288 1.234 . S
C269 O243 1.269 . S
C269 O244 1.257 . S
C270 H245 0.930 . S
C270 C273 1.388 . S
C270 C275 1.418 . S
C271 H266 0.930 . S
C271 C274 1.404 . S
C271 C275 1.353 . S
N272 Co237 2.145 . S
N272 C273 1.397 . S
N272 C274 1.334 . S
C273 H254 0.929 . S
C273 C270 1.388 . S
C273 N272 1.397 . S
C274 H255 0.929 . S
C274 C271 1.404 . S
C274 N272 1.334 . S
C275 H267 0.930 . S
C275 C270 1.418 . S
C275 C271 1.353 . S
C276 H246 0.930 . S
C276 N277 1.330 . S
C276 C278 1.446 . S
N277 Co236 2.151 . S
N277 C276 1.330 . S
N277 C281 1.418 . S
C278 H257 0.929 . S
C278 C276 1.446 . S
C278 C279 1.332 . S
C279 H259 0.931 . S
C279 C278 1.332 . S
C279 C280 1.267 . S
C280 H248 0.929 . S
C280 C279 1.267 . S
C280 C281 1.251 . S
C281 H251 0.929 . S
C281 N277 1.418 . S
C281 C280 1.251 . S
C282 H249 0.930 . S
C282 C284 1.406 . S
C282 C287 1.261 . S
C283 H250 0.930 . S
C283 N285 1.325 . S
C283 C286 1.357 . S
C284 H252 0.928 . S
C284 C282 1.406 . S
C284 N285 1.261 . S
N285 Co236 2.214 . S
N285 C283 1.325 . S
N285 C284 1.261 . S
C286 H256 0.931 . S
C286 C283 1.357 . S
C286 C287 1.312 . S
C287 H258 0.930 . S
C287 C282 1.261 . S
C287 C286 1.312 . S
C288 O260 1.214 . S
C288 O268 1.234 . S
C289 H261 0.929 . S
C289 C292 1.391 . S
C289 C294 1.391 . S
C290 H262 0.929 . S
C290 C291 1.390 . S
C290 N293 1.391 . S
C291 H263 0.930 . S
C291 C290 1.390 . S
C291 C292 1.392 . S
C292 H264 0.929 . S
C292 C289 1.391 . S
C292 C291 1.392 . S
N293 Co237 2.257 . S
N293 C290 1.391 . S
N293 C294 1.388 . S
C294 H265 0.930 . S
C294 C289 1.391 . S
C294 N293 1.388 . S
Co295 O297 2.143 . S
Co295 O303 2.074 . S
Co295 O306 2.093 . S
Co295 O319 2.097 . S
Co295 N336 2.151 . S
Co295 N344 2.214 . S
Co296 O297 2.160 . S
Co296 O302 2.058 . S
Co296 O312 2.057 . S
Co296 O327 2.037 . S
Co296 N331 2.145 . S
Co296 N352 2.257 . S
O297 Co295 2.143 . S
O297 Co296 2.160 . S
C298 O299 1.278 . S
C298 O306 1.224 . S
O299 C298 1.278 . S
C300 O301 1.245 . S
C300 O312 1.232 . S
O301 C300 1.245 . S
O302 Co296 2.058 . S
O302 C328 1.269 . S
O303 Co295 2.074 . S
O303 C328 1.257 . S
H304 C329 0.930 . S
H305 C335 0.930 . S
O306 Co295 2.093 . S
O306 C298 1.224 . S
H307 C339 0.929 . S
H308 C341 0.930 . S
H309 C342 0.930 . S
H310 C340 0.929 . S
H311 C343 0.928 . S
O312 Co296 2.057 . S
O312 C300 1.232 . S
H313 C332 0.929 . S
H314 C333 0.929 . S
H315 C345 0.931 . S
H316 C337 0.929 . S
H317 C346 0.930 . S
H318 C338 0.931 . S
O319 Co295 2.097 . S
O319 C347 1.214 . S
H320 C348 0.929 . S
H321 C349 0.929 . S
H322 C350 0.930 . S
H323 C351 0.929 . S
H324 C353 0.930 . S
H325 C330 0.930 . S
H326 C334 0.930 . S
O327 Co296 2.037 . S
O327 C347 1.234 . S
C328 O302 1.269 . S
C328 O303 1.257 . S
C329 H304 0.930 . S
C329 C332 1.388 . S
C329 C334 1.418 . S
C330 H325 0.930 . S
C330 C333 1.404 . S
C330 C334 1.353 . S
N331 Co296 2.145 . S
N331 C332 1.397 . S
N331 C333 1.334 . S
C332 H313 0.929 . S
C332 C329 1.388 . S
C332 N331 1.397 . S
C333 H314 0.929 . S
C333 C330 1.404 . S
C333 N331 1.334 . S
C334 H326 0.930 . S
C334 C329 1.418 . S
C334 C330 1.353 . S
C335 H305 0.930 . S
C335 N336 1.330 . S
C335 C337 1.446 . S
N336 Co295 2.151 . S
N336 C335 1.330 . S
N336 C340 1.418 . S
C337 H316 0.929 . S
C337 C335 1.446 . S
C337 C338 1.332 . S
C338 H318 0.931 . S
C338 C337 1.332 . S
C338 C339 1.267 . S
C339 H307 0.929 . S
C339 C338 1.267 . S
C339 C340 1.251 . S
C340 H310 0.929 . S
C340 N336 1.418 . S
C340 C339 1.251 . S
C341 H308 0.930 . S
C341 C343 1.406 . S
C341 C346 1.261 . S
C342 H309 0.930 . S
C342 N344 1.325 . S
C342 C345 1.357 . S
C343 H311 0.928 . S
C343 C341 1.406 . S
C343 N344 1.261 . S
N344 Co295 2.214 . S
N344 C342 1.325 . S
N344 C343 1.261 . S
C345 H315 0.931 . S
C345 C342 1.357 . S
C345 C346 1.312 . S
C346 H317 0.930 . S
C346 C341 1.261 . S
C346 C345 1.312 . S
C347 O319 1.214 . S
C347 O327 1.234 . S
C348 H320 0.929 . S
C348 C351 1.391 . S
C348 C353 1.391 . S
C349 H321 0.929 . S
C349 C350 1.390 . S
C349 N352 1.391 . S
C350 H322 0.930 . S
C350 C349 1.390 . S
C350 C351 1.392 . S
C351 H323 0.929 . S
C351 C348 1.391 . S
C351 C350 1.392 . S
N352 Co296 2.257 . S
N352 C349 1.391 . S
N352 C353 1.388 . S
C353 H324 0.930 . S
C353 C348 1.391 . S
C353 N352 1.388 . S
C354 C355 1.391 . S
C354 C356 1.394 . S
C354 H370 0.931 . S
C355 C354 1.391 . S
C355 C359 1.376 . S
C356 C354 1.394 . S
C356 C357 1.369 . S
C356 C360 1.531 . S
C357 C356 1.369 . S
C357 C358 1.410 . S
C357 C365 1.503 1_545 S
C358 C357 1.410 . S
C358 C359 1.392 . S
C358 C361 1.511 . S
C359 C355 1.376 . S
C359 C358 1.392 . S
C359 H371 0.929 . S
C360 C356 1.531 . S
C360 H372 0.960 . S
C360 H373 0.962 . S
C360 H374 0.960 . S
C361 C358 1.511 . S
C361 H375 0.961 . S
C361 H376 0.961 1_545 S
C361 H377 0.961 . S
C362 C363 1.370 . S
C362 C364 1.363 . S
C362 H378 0.931 . S
C363 C362 1.370 . S
C363 C367 1.408 . S
C364 C362 1.363 . S
C364 C365 1.370 . S
C364 C368 1.524 . S
C365 C357 1.503 1_565 S
C365 C364 1.370 . S
C365 C366 1.403 . S
C366 C365 1.403 . S
C366 C367 1.404 . S
C366 C369 1.539 1_565 S
C367 C363 1.408 . S
C367 C366 1.404 . S
C367 H379 0.930 . S
C368 C364 1.524 . S
C368 H380 0.956 . S
C368 H381 0.961 . S
C368 H382 0.961 . S
C369 C366 1.539 1_545 S
C369 H383 0.958 . S
C369 H384 0.961 1_545 S
C369 H385 0.960 . S
H370 C354 0.931 . S
H371 C359 0.929 . S
H372 C360 0.960 . S
H373 C360 0.962 . S
H374 C360 0.960 . S
H375 C361 0.961 . S
H376 C361 0.961 1_565 S
H377 C361 0.961 . S
H378 C362 0.931 . S
H379 C367 0.930 . S
H380 C368 0.956 . S
H381 C368 0.961 . S
H382 C368 0.961 . S
H383 C369 0.958 . S
H384 C369 0.961 1_565 S
H385 C369 0.960 . S
C386 C387 1.391 . S
C386 C388 1.394 . S
C386 H402 0.931 . S
C387 C386 1.391 . S
C387 C391 1.376 . S
C388 C386 1.394 . S
C388 C389 1.369 . S
C388 C392 1.531 . S
C389 C388 1.369 . S
C389 C390 1.410 . S
C389 C397 1.503 . S
C390 C389 1.410 . S
C390 C391 1.392 . S
C390 C393 1.511 . S
C391 C387 1.376 . S
C391 C390 1.392 . S
C391 H403 0.929 . S
C392 C388 1.531 . S
C392 H404 0.960 . S
C392 H405 0.962 . S
C392 H406 0.960 . S
C393 C390 1.511 . S
C393 H407 0.961 . S
C393 H408 0.961 . S
C393 H409 0.961 . S
C394 C395 1.370 . S
C394 C396 1.363 . S
C394 H410 0.931 . S
C395 C394 1.370 . S
C395 C399 1.408 . S
C396 C394 1.363 . S
C396 C397 1.370 . S
C396 C400 1.524 . S
C397 C389 1.503 . S
C397 C396 1.370 . S
C397 C398 1.403 . S
C398 C397 1.403 . S
C398 C399 1.404 . S
C398 C401 1.539 . S
C399 C395 1.408 . S
C399 C398 1.404 . S
C399 H411 0.930 . S
C400 C396 1.524 . S
C400 H412 0.956 . S
C400 H413 0.961 . S
C400 H414 0.961 . S
C401 C398 1.539 . S
C401 H415 0.958 . S
C401 H416 0.961 . S
C401 H417 0.960 . S
H402 C386 0.931 . S
H403 C391 0.929 . S
H404 C392 0.960 . S
H405 C392 0.962 . S
H406 C392 0.960 . S
H407 C393 0.961 . S
H408 C393 0.961 . S
H409 C393 0.961 . S
H410 C394 0.931 . S
H411 C399 0.930 . S
H412 C400 0.956 . S
H413 C400 0.961 . S
H414 C400 0.961 . S
H415 C401 0.958 . S
H416 C401 0.961 . S
H417 C401 0.960 . S
C418 C419 1.391 . S
C418 C420 1.394 . S
C418 H434 0.931 . S
C419 C418 1.391 . S
C419 C423 1.376 . S
C420 C418 1.394 . S
C420 C421 1.369 . S
C420 C424 1.531 1_655 S
C421 C420 1.369 . S
C421 C422 1.410 . S
C421 C429 1.503 1_655 S
C422 C421 1.410 . S
C422 C423 1.392 . S
C422 C425 1.511 . S
C423 C419 1.376 . S
C423 C422 1.392 . S
C423 H435 0.929 . S
C424 C420 1.531 1_455 S
C424 H436 0.960 . S
C424 H437 0.962 . S
C424 H438 0.960 . S
C425 C422 1.511 . S
C425 H439 0.961 . S
C425 H440 0.961 . S
C425 H441 0.961 . S
C426 C427 1.370 . S
C426 C428 1.363 . S
C426 H442 0.931 . S
C427 C426 1.370 . S
C427 C431 1.408 . S
C428 C426 1.363 . S
C428 C429 1.370 . S
C428 C432 1.524 . S
C429 C421 1.503 1_455 S
C429 C428 1.370 . S
C429 C430 1.403 . S
C430 C429 1.403 . S
C430 C431 1.404 . S
C430 C433 1.539 . S
C431 C427 1.408 . S
C431 C430 1.404 . S
C431 H443 0.930 . S
C432 C428 1.524 . S
C432 H444 0.956 . S
C432 H445 0.961 1_455 S
C432 H446 0.961 . S
C433 C430 1.539 . S
C433 H447 0.958 . S
C433 H448 0.961 . S
C433 H449 0.960 1_455 S
H434 C418 0.931 . S
H435 C423 0.929 . S
H436 C424 0.960 . S
H437 C424 0.962 . S
H438 C424 0.960 . S
H439 C425 0.961 . S
H440 C425 0.961 . S
H441 C425 0.961 . S
H442 C426 0.931 . S
H443 C431 0.930 . S
H444 C432 0.956 . S
H445 C432 0.961 1_655 S
H446 C432 0.961 . S
H447 C433 0.958 . S
H448 C433 0.961 . S
H449 C433 0.960 1_655 S
C450 C451 1.391 . S
C450 C452 1.394 1_554 S
C450 H466 0.931 . S
C451 C450 1.391 . S
C451 C455 1.376 . S
C452 C450 1.394 1_556 S
C452 C453 1.369 1_556 S
C452 C456 1.531 . S
C453 C452 1.369 1_554 S
C453 C454 1.410 . S
C453 C461 1.503 1_564 S
C454 C453 1.410 . S
C454 C455 1.392 . S
C454 C457 1.511 . S
C455 C451 1.376 . S
C455 C454 1.392 . S
C455 H467 0.929 . S
C456 C452 1.531 . S
C456 H468 0.960 . S
C456 H469 0.962 . S
C456 H470 0.960 . S
C457 C454 1.511 . S
C457 H471 0.961 . S
C457 H472 0.961 1_565 S
C457 H473 0.961 . S
C458 C459 1.370 . S
C458 C460 1.363 1_556 S
C458 H474 0.931 . S
C459 C458 1.370 . S
C459 C463 1.408 . S
C460 C458 1.363 1_554 S
C460 C461 1.370 1_554 S
C460 C464 1.524 . S
C461 C453 1.503 1_546 S
C461 C460 1.370 1_556 S
C461 C462 1.403 . S
C462 C461 1.403 . S
C462 C463 1.404 . S
C462 C465 1.539 1_545 S
C463 C459 1.408 . S
C463 C462 1.404 . S
C463 H475 0.930 . S
C464 C460 1.524 . S
C464 H476 0.956 . S
C464 H477 0.961 . S
C464 H478 0.961 . S
C465 C462 1.539 1_565 S
C465 H479 0.958 . S
C465 H480 0.961 1_565 S
C465 H481 0.960 . S
H466 C450 0.931 . S
H467 C455 0.929 . S
H468 C456 0.960 . S
H469 C456 0.962 . S
H470 C456 0.960 . S
H471 C457 0.961 . S
H472 C457 0.961 1_545 S
H473 C457 0.961 . S
H474 C458 0.931 . S
H475 C463 0.930 . S
H476 C464 0.956 . S
H477 C464 0.961 . S
H478 C464 0.961 . S
H479 C465 0.958 . S
H480 C465 0.961 1_545 S
H481 C465 0.960 . S
C482 C483 1.391 . S
C482 C484 1.394 . S
C482 H498 0.931 . S
C483 C482 1.391 . S
C483 C487 1.376 . S
C484 C482 1.394 . S
C484 C485 1.369 . S
C484 C488 1.531 . S
C485 C484 1.369 . S
C485 C486 1.410 . S
C485 C493 1.503 . S
C486 C485 1.410 . S
C486 C487 1.392 . S
C486 C489 1.511 . S
C487 C483 1.376 . S
C487 C486 1.392 . S
C487 H499 0.929 . S
C488 C484 1.531 . S
C488 H500 0.960 . S
C488 H501 0.962 . S
C488 H502 0.960 . S
C489 C486 1.511 . S
C489 H503 0.961 . S
C489 H504 0.961 . S
C489 H505 0.961 . S
C490 C491 1.370 . S
C490 C492 1.363 . S
C490 H506 0.931 . S
C491 C490 1.370 . S
C491 C495 1.408 . S
C492 C490 1.363 . S
C492 C493 1.370 . S
C492 C496 1.524 . S
C493 C485 1.503 . S
C493 C492 1.370 . S
C493 C494 1.403 . S
C494 C493 1.403 . S
C494 C495 1.404 . S
C494 C497 1.539 . S
C495 C491 1.408 . S
C495 C494 1.404 . S
C495 H507 0.930 . S
C496 C492 1.524 . S
C496 H508 0.956 . S
C496 H509 0.961 . S
C496 H510 0.961 . S
C497 C494 1.539 . S
C497 H511 0.958 . S
C497 H512 0.961 . S
C497 H513 0.960 . S
H498 C482 0.931 . S
H499 C487 0.929 . S
H500 C488 0.960 . S
H501 C488 0.962 . S
H502 C488 0.960 . S
H503 C489 0.961 . S
H504 C489 0.961 . S
H505 C489 0.961 . S
H506 C490 0.931 . S
H507 C495 0.930 . S
H508 C496 0.956 . S
H509 C496 0.961 . S
H510 C496 0.961 . S
H511 C497 0.958 . S
H512 C497 0.961 . S
H513 C497 0.960 . S
C514 C515 1.391 . S
C514 C516 1.394 . S
C514 H530 0.931 . S
C515 C514 1.391 . S
C515 C519 1.376 . S
C516 C514 1.394 . S
C516 C517 1.369 . S
C516 C520 1.531 . S
C517 C516 1.369 . S
C517 C518 1.410 . S
C517 C525 1.503 1_455 S
C518 C517 1.410 . S
C518 C519 1.392 . S
C518 C521 1.511 1_455 S
C519 C515 1.376 . S
C519 C518 1.392 . S
C519 H531 0.929 . S
C520 C516 1.531 . S
C520 H532 0.960 . S
C520 H533 0.962 . S
C520 H534 0.960 . S
C521 C518 1.511 1_655 S
C521 H535 0.961 . S
C521 H536 0.961 . S
C521 H537 0.961 . S
C522 C523 1.370 . S
C522 C524 1.363 . S
C522 H538 0.931 . S
C523 C522 1.370 . S
C523 C527 1.408 . S
C524 C522 1.363 . S
C524 C525 1.370 . S
C524 C528 1.524 . S
C525 C517 1.503 1_655 S
C525 C524 1.370 . S
C525 C526 1.403 . S
C526 C525 1.403 . S
C526 C527 1.404 . S
C526 C529 1.539 . S
C527 C523 1.408 . S
C527 C526 1.404 . S
C527 H539 0.930 . S
C528 C524 1.524 . S
C528 H540 0.951 1_655 S
C528 H541 0.961 . S
C528 H542 0.961 . S
C529 C526 1.539 . S
C529 H543 0.958 1_655 S
C529 H544 0.961 . S
C529 H545 0.960 1_655 S
H530 C514 0.931 . S
H531 C519 0.929 . S
H532 C520 0.960 . S
H533 C520 0.962 . S
H534 C520 0.960 . S
H535 C521 0.961 . S
H536 C521 0.961 . S
H537 C521 0.961 . S
H538 C522 0.931 . S
H539 C527 0.930 . S
H540 C528 0.951 1_455 S
H541 C528 0.961 . S
H542 C528 0.961 . S
H543 C529 0.958 1_455 S
H544 C529 0.961 . S
H545 C529 0.960 1_455 S
C546 C547 1.391 . S
C546 C548 1.394 . S
C546 H562 0.931 . S
C547 C546 1.391 . S
C547 C551 1.376 . S
C548 C546 1.394 . S
C548 C549 1.369 . S
C548 C552 1.531 . S
C549 C548 1.369 . S
C549 C550 1.410 . S
C549 C557 1.503 . S
C550 C549 1.410 . S
C550 C551 1.392 . S
C550 C553 1.511 . S
C551 C547 1.376 . S
C551 C550 1.392 . S
C551 H563 0.929 . S
C552 C548 1.531 . S
C552 H564 0.960 . S
C552 H565 0.962 . S
C552 H566 0.960 . S
C553 C550 1.511 . S
C553 H567 0.961 . S
C553 H568 0.961 . S
C553 H569 0.961 . S
C554 C555 1.370 . S
C554 C556 1.363 . S
C554 H570 0.931 . S
C555 C554 1.370 . S
C555 C559 1.408 . S
C556 C554 1.363 . S
C556 C557 1.370 . S
C556 C560 1.524 . S
C557 C549 1.503 . S
C557 C556 1.370 . S
C557 C558 1.403 . S
C558 C557 1.403 . S
C558 C559 1.404 . S
C558 C561 1.539 . S
C559 C555 1.408 . S
C559 C558 1.404 . S
C559 H571 0.930 . S
C560 C556 1.524 . S
C560 H572 0.956 . S
C560 H573 0.961 . S
C560 H574 0.961 . S
C561 C558 1.539 . S
C561 H575 0.958 . S
C561 H576 0.961 . S
C561 H577 0.960 . S
H562 C546 0.931 . S
H563 C551 0.929 . S
H564 C552 0.960 . S
H565 C552 0.962 . S
H566 C552 0.960 . S
H567 C553 0.961 . S
H568 C553 0.961 . S
H569 C553 0.961 . S
H570 C554 0.931 . S
H571 C559 0.930 . S
H572 C560 0.956 . S
H573 C560 0.961 . S
H574 C560 0.961 . S
H575 C561 0.958 . S
H576 C561 0.961 . S
H577 C561 0.960 . S
C578 C579 1.391 . S
C578 C580 1.394 . S
C578 H594 0.931 . S
C579 C578 1.391 . S
C579 C583 1.376 . S
C580 C578 1.394 . S
C580 C581 1.369 . S
C580 C584 1.531 . S
C581 C580 1.369 . S
C581 C582 1.410 . S
C581 C589 1.503 . S
C582 C581 1.410 . S
C582 C583 1.392 . S
C582 C585 1.511 . S
C583 C579 1.376 . S
C583 C582 1.392 . S
C583 H595 0.929 . S
C584 C580 1.531 . S
C584 H596 0.960 . S
C584 H597 0.962 . S
C584 H598 0.960 . S
C585 C582 1.511 . S
C585 H599 0.961 . S
C585 H600 0.961 . S
C585 H601 0.961 . S
C586 C587 1.370 . S
C586 C588 1.363 . S
C586 H602 0.931 . S
C587 C586 1.370 . S
C587 C591 1.408 . S
C588 C586 1.363 . S
C588 C589 1.370 . S
C588 C592 1.524 . S
C589 C581 1.503 . S
C589 C588 1.370 . S
C589 C590 1.403 . S
C590 C589 1.403 . S
C590 C591 1.404 . S
C590 C593 1.539 . S
C591 C587 1.408 . S
C591 C590 1.404 . S
C591 H603 0.930 . S
C592 C588 1.524 . S
C592 H604 0.956 . S
C592 H605 0.961 . S
C592 H606 0.961 . S
C593 C590 1.539 . S
C593 H607 0.958 . S
C593 H608 0.961 . S
C593 H609 0.960 . S
H594 C578 0.931 . S
H595 C583 0.929 . S
H596 C584 0.960 . S
H597 C584 0.962 . S
H598 C584 0.960 . S
H599 C585 0.961 . S
H600 C585 0.961 . S
H601 C585 0.961 . S
H602 C586 0.931 . S
H603 C591 0.930 . S
H604 C592 0.956 . S
H605 C592 0.961 . S
H606 C592 0.961 . S
H607 C593 0.958 . S
H608 C593 0.961 . S
H609 C593 0.960 . S
C610 C611 1.391 . S
C610 C612 1.394 . S
C610 H626 0.931 . S
C611 C610 1.391 . S
C611 C615 1.376 . S
C612 C610 1.394 . S
C612 C613 1.369 . S
C612 C616 1.531 . S
C613 C612 1.369 . S
C613 C614 1.410 . S
C613 C621 1.503 . S
C614 C613 1.410 . S
C614 C615 1.392 . S
C614 C617 1.511 . S
C615 C611 1.376 . S
C615 C614 1.392 . S
C615 H627 0.929 . S
C616 C612 1.531 . S
C616 H628 0.960 . S
C616 H629 0.962 . S
C616 H630 0.960 . S
C617 C614 1.511 . S
C617 H631 0.961 . S
C617 H632 0.961 . S
C617 H633 0.961 . S
C618 C619 1.370 . S
C618 C620 1.363 . S
C618 H634 0.931 . S
C619 C618 1.370 . S
C619 C623 1.408 . S
C620 C618 1.363 . S
C620 C621 1.370 . S
C620 C624 1.524 . S
C621 C613 1.503 . S
C621 C620 1.370 . S
C621 C622 1.403 . S
C622 C621 1.403 . S
C622 C623 1.404 . S
C622 C625 1.539 . S
C623 C619 1.408 . S
C623 C622 1.404 . S
C623 H635 0.930 . S
C624 C620 1.524 . S
C624 H636 0.956 . S
C624 H637 0.961 . S
C624 H638 0.961 . S
C625 C622 1.539 . S
C625 H639 0.958 . S
C625 H640 0.961 . S
C625 H641 0.960 . S
H626 C610 0.931 . S
H627 C615 0.929 . S
H628 C616 0.960 . S
H629 C616 0.962 . S
H630 C616 0.960 . S
H631 C617 0.961 . S
H632 C617 0.961 . S
H633 C617 0.961 . S
H634 C618 0.931 . S
H635 C623 0.930 . S
H636 C624 0.956 . S
H637 C624 0.961 . S
H638 C624 0.961 . S
H639 C625 0.958 . S
H640 C625 0.961 . S
H641 C625 0.960 . S
C642 C643 1.391 . S
C642 C644 1.394 . S
C642 H658 0.931 . S
C643 C642 1.391 . S
C643 C647 1.376 . S
C644 C642 1.394 . S
C644 C645 1.369 . S
C644 C648 1.531 . S
C645 C644 1.369 . S
C645 C646 1.410 . S
C645 C653 1.503 . S
C646 C645 1.410 . S
C646 C647 1.392 . S
C646 C649 1.511 . S
C647 C643 1.376 . S
C647 C646 1.392 . S
C647 H659 0.929 . S
C648 C644 1.531 . S
C648 H660 0.960 . S
C648 H661 0.962 . S
C648 H662 0.960 . S
C649 C646 1.511 . S
C649 H663 0.961 . S
C649 H664 0.961 . S
C649 H665 0.961 . S
C650 C651 1.370 . S
C650 C652 1.363 . S
C650 H666 0.931 . S
C651 C650 1.370 . S
C651 C655 1.408 . S
C652 C650 1.363 . S
C652 C653 1.370 . S
C652 C656 1.524 . S
C653 C645 1.503 . S
C653 C652 1.370 . S
C653 C654 1.403 . S
C654 C653 1.403 . S
C654 C655 1.404 . S
C654 C657 1.539 . S
C655 C651 1.408 . S
C655 C654 1.404 . S
C655 H667 0.930 . S
C656 C652 1.524 . S
C656 H668 0.956 . S
C656 H669 0.961 . S
C656 H670 0.961 . S
C657 C654 1.539 . S
C657 H671 0.958 . S
C657 H672 0.961 . S
C657 H673 0.960 . S
H658 C642 0.931 . S
H659 C647 0.929 . S
H660 C648 0.960 . S
H661 C648 0.962 . S
H662 C648 0.960 . S
H663 C649 0.961 . S
H664 C649 0.961 . S
H665 C649 0.961 . S
H666 C650 0.931 . S
H667 C655 0.930 . S
H668 C656 0.956 . S
H669 C656 0.961 . S
H670 C656 0.961 . S
H671 C657 0.958 . S
H672 C657 0.961 . S
H673 C657 0.960 . S
C674 C675 1.391 . S
C674 C676 1.394 . S
C674 H690 0.931 . S
C675 C674 1.391 . S
C675 C679 1.376 . S
C676 C674 1.394 . S
C676 C677 1.369 . S
C676 C680 1.531 . S
C677 C676 1.369 . S
C677 C678 1.410 . S
C677 C685 1.503 . S
C678 C677 1.410 . S
C678 C679 1.392 . S
C678 C681 1.511 . S
C679 C675 1.376 . S
C679 C678 1.392 . S
C679 H691 0.929 . S
C680 C676 1.531 . S
C680 H692 0.960 . S
C680 H693 0.962 . S
C680 H694 0.960 . S
C681 C678 1.511 . S
C681 H695 0.961 . S
C681 H696 0.961 . S
C681 H697 0.961 . S
C682 C683 1.370 . S
C682 C684 1.363 . S
C682 H698 0.931 . S
C683 C682 1.370 . S
C683 C687 1.408 . S
C684 C682 1.363 . S
C684 C685 1.370 . S
C684 C688 1.524 . S
C685 C677 1.503 . S
C685 C684 1.370 . S
C685 C686 1.403 . S
C686 C685 1.403 . S
C686 C687 1.404 . S
C686 C689 1.539 . S
C687 C683 1.408 . S
C687 C686 1.404 . S
C687 H699 0.930 . S
C688 C684 1.524 . S
C688 H700 0.956 . S
C688 H701 0.961 . S
C688 H702 0.961 . S
C689 C686 1.539 . S
C689 H703 0.958 . S
C689 H704 0.961 . S
C689 H705 0.960 . S
H690 C674 0.931 . S
H691 C679 0.929 . S
H692 C680 0.960 . S
H693 C680 0.962 . S
H694 C680 0.960 . S
H695 C681 0.961 . S
H696 C681 0.961 . S
H697 C681 0.961 . S
H698 C682 0.931 . S
H699 C687 0.930 . S
H700 C688 0.956 . S
H701 C688 0.961 . S
H702 C688 0.961 . S
H703 C689 0.958 . S
H704 C689 0.961 . S
H705 C689 0.960 . S
C706 C707 1.391 . S
C706 C708 1.394 . S
C706 H722 0.931 . S
C707 C706 1.391 . S
C707 C711 1.376 . S
C708 C706 1.394 . S
C708 C709 1.369 . S
C708 C712 1.531 . S
C709 C708 1.369 . S
C709 C710 1.410 . S
C709 C717 1.503 . S
C710 C709 1.410 . S
C710 C711 1.392 . S
C710 C713 1.511 . S
C711 C707 1.376 . S
C711 C710 1.392 . S
C711 H723 0.929 . S
C712 C708 1.531 . S
C712 H724 0.960 . S
C712 H725 0.962 . S
C712 H726 0.960 . S
C713 C710 1.511 . S
C713 H727 0.961 . S
C713 H728 0.961 . S
C713 H729 0.961 . S
C714 C715 1.370 . S
C714 C716 1.363 . S
C714 H730 0.931 . S
C715 C714 1.370 . S
C715 C719 1.408 . S
C716 C714 1.363 . S
C716 C717 1.370 . S
C716 C720 1.524 . S
C717 C709 1.503 . S
C717 C716 1.370 . S
C717 C718 1.403 . S
C718 C717 1.403 . S
C718 C719 1.404 . S
C718 C721 1.539 . S
C719 C715 1.408 . S
C719 C718 1.404 . S
C719 H731 0.930 . S
C720 C716 1.524 . S
C720 H732 0.956 . S
C720 H733 0.961 . S
C720 H734 0.961 . S
C721 C718 1.539 . S
C721 H735 0.958 . S
C721 H736 0.961 . S
C721 H737 0.960 . S
H722 C706 0.931 . S
H723 C711 0.929 . S
H724 C712 0.960 . S
H725 C712 0.962 . S
H726 C712 0.960 . S
H727 C713 0.961 . S
H728 C713 0.961 . S
H729 C713 0.961 . S
H730 C714 0.931 . S
H731 C719 0.930 . S
H732 C720 0.956 . S
H733 C720 0.961 . S
H734 C720 0.961 . S
H735 C721 0.958 . S
H736 C721 0.961 . S
H737 C721 0.960 . S
C355 C5 1.791 . S
C363 C300 1.798 . S
C387 C52 1.737 . S
C395 C62 1.737 . S
C419 C170 1.662 . S
C427 C92 1.674 . S
C451 C182 1.791 . S
C459 C123 1.798 . S
C483 C239 1.735 . S
C491 C229 1.737 . S
C515 C347 1.678 . S
C523 C269 1.679 . S
C547 C3 1.464 . S
C555 C288 1.472 . S
C579 C298 1.309 . S
C587 C64 1.330 . S
C611 C151 1.579 . S
C619 C33 1.583 . S
C643 C111 1.480 . S
C651 C180 1.468 1_556 S
C675 C121 1.305 1_554 S
C683 C241 1.329 . S
C707 C328 1.571 . S
C715 C210 1.580 . S
