# Generated by pormake.
# Topology umy, (4)-cn, num edge types: 1
# Building blocks:
#     Node 0, Type 0, BuildingBlock: CEKHIL_clean_sbu_0, # of connection points: 4
#     Node 1, Type 0, BuildingBlock: CEKHIL_clean_sbu_0, # of connection points: 4
#     Node 2, Type 0, BuildingBlock: CEKHIL_clean_sbu_0, # of connection points: 4
#     Node 3, Type 0, BuildingBlock: CEKHIL_clean_sbu_0, # of connection points: 4
#     Node 4, Type 0, BuildingBlock: CEKHIL_clean_sbu_0, # of connection points: 4
#     Node 5, Type 0, BuildingBlock: CEKHIL_clean_sbu_0, # of connection points: 4
#     Node 6, Type 0, BuildingBlock: CEKHIL_clean_sbu_0, # of connection points: 4
#     Node 7, Type 0, BuildingBlock: CEKHIL_clean_sbu_0, # of connection points: 4
#     Node 8, Type 0, BuildingBlock: CEKHIL_clean_sbu_0, # of connection points: 4
#     Node 9, Type 0, BuildingBlock: CEKHIL_clean_sbu_0, # of connection points: 4
#     Node 10, Type 0, BuildingBlock: CEKHIL_clean_sbu_0, # of connection points: 4
#     Node 11, Type 0, BuildingBlock: CEKHIL_clean_sbu_0, # of connection points: 4
#     Edge 12, Type (0, 0), BuildingBlock: OJICUG_clean_linker_0, # of connection points: 2
#     Edge 13, Type (0, 0), BuildingBlock: OJICUG_clean_linker_0, # of connection points: 2
#     Edge 14, Type (0, 0), BuildingBlock: OJICUG_clean_linker_0, # of connection points: 2
#     Edge 15, Type (0, 0), BuildingBlock: OJICUG_clean_linker_0, # of connection points: 2
#     Edge 16, Type (0, 0), BuildingBlock: OJICUG_clean_linker_0, # of connection points: 2
#     Edge 17, Type (0, 0), BuildingBlock: OJICUG_clean_linker_0, # of connection points: 2
#     Edge 18, Type (0, 0), BuildingBlock: OJICUG_clean_linker_0, # of connection points: 2
#     Edge 19, Type (0, 0), BuildingBlock: OJICUG_clean_linker_0, # of connection points: 2
#     Edge 20, Type (0, 0), BuildingBlock: OJICUG_clean_linker_0, # of connection points: 2
#     Edge 21, Type (0, 0), BuildingBlock: OJICUG_clean_linker_0, # of connection points: 2
#     Edge 22, Type (0, 0), BuildingBlock: OJICUG_clean_linker_0, # of connection points: 2
#     Edge 23, Type (0, 0), BuildingBlock: OJICUG_clean_linker_0, # of connection points: 2
#     Edge 24, Type (0, 0), BuildingBlock: OJICUG_clean_linker_0, # of connection points: 2
#     Edge 25, Type (0, 0), BuildingBlock: OJICUG_clean_linker_0, # of connection points: 2
#     Edge 26, Type (0, 0), BuildingBlock: OJICUG_clean_linker_0, # of connection points: 2
#     Edge 27, Type (0, 0), BuildingBlock: OJICUG_clean_linker_0, # of connection points: 2
#     Edge 28, Type (0, 0), BuildingBlock: OJICUG_clean_linker_0, # of connection points: 2
#     Edge 29, Type (0, 0), BuildingBlock: OJICUG_clean_linker_0, # of connection points: 2
#     Edge 30, Type (0, 0), BuildingBlock: OJICUG_clean_linker_0, # of connection points: 2
#     Edge 31, Type (0, 0), BuildingBlock: OJICUG_clean_linker_0, # of connection points: 2
#     Edge 32, Type (0, 0), BuildingBlock: OJICUG_clean_linker_0, # of connection points: 2
#     Edge 33, Type (0, 0), BuildingBlock: OJICUG_clean_linker_0, # of connection points: 2
#     Edge 34, Type (0, 0), BuildingBlock: OJICUG_clean_linker_0, # of connection points: 2
#     Edge 35, Type (0, 0), BuildingBlock: OJICUG_clean_linker_0, # of connection points: 2
# Relax obj value: 0.119
# Max RMSD: 0.083
# Mean RMSD: 0.083
data_MOF--net-umy--node1-CEKHIL_clean_sbu_0--edge1-OJICUG_clean_linker_0
_symmetry_space_group_name_H-M    P1
_symmetry_Int_Tables_number       1
_symmetry_cell_setting            triclinic
loop_
_symmetry_equiv_pos_as_xyz
'x, y, z'
_cell_length_a     27.108308
_cell_length_b     27.113797
_cell_length_c     37.289019
_cell_angle_alpha  90.005732
_cell_angle_beta   90.000803
_cell_angle_gamma 119.99413
loop_
_atom_site_label
_atom_site_type_symbol
_atom_site_fract_x
_atom_site_fract_y
_atom_site_fract_z
_atom_type_partial_charge
Co0 Co 0.0713 0.35908 0.13276 0.0
O1 O 0.04907 0.39663 0.09755 0.0
O2 O 0.11841 0.44106 0.13717 0.0
C3 C 0.98275 0.2958 0.15323 0.0
O4 O 0.10515 0.33535 0.17376 0.0
Co5 Co 0.03272 0.23053 0.12435 0.0
O6 O 0.06493 0.23992 0.17332 0.0
C7 C 0.12384 0.31475 0.07799 0.0
C8 C 0.0884 0.44435 0.11106 0.0
C9 C 0.0971 0.28836 0.1877 0.0
O10 O 0.12647 0.35567 0.09715 0.0
O11 O 0.08547 0.26255 0.0823 0.0
O12 O 1.00889 0.34805 0.16464 0.0
O13 O 1.00781 0.28582 0.12709 0.0
Co14 Co 0.72121 0.06662 0.29891 0.0
O15 O 0.65987 0.03953 0.2648 0.0
O16 O 0.68591 0.11392 0.30033 0.0
C17 C 0.69676 0.98008 0.32258 0.0
O18 O 0.77998 0.1043 0.33899 0.0
Co19 Co 0.81104 0.02754 0.29214 0.0
O20 O 0.8323 0.06095 0.34092 0.0
C21 C 0.81776 0.11604 0.24341 0.0
C22 C 0.65104 0.0797 0.27609 0.0
C23 C 0.81743 0.09503 0.35406 0.0
O24 O 0.77857 0.11867 0.26157 0.0
O25 O 0.83254 0.07869 0.24923 0.0
O26 O 0.67113 1.00723 0.33302 0.0
O27 O 0.73104 1.003 0.29584 0.0
Co28 Co 0.66245 0.71515 0.46661 0.0
O29 O 0.62508 0.65653 0.43064 0.0
O30 O 0.5804 0.68018 0.47082 0.0
C31 C 0.72537 0.68889 0.48631 0.0
O32 O 0.68584 0.77118 0.50853 0.0
Co33 Co 0.79144 0.80489 0.45961 0.0
O34 O 0.78143 0.8247 0.50928 0.0
C35 C 0.70832 0.81378 0.41319 0.0
C36 C 0.57726 0.64759 0.44431 0.0
C37 C 0.73282 0.80854 0.52337 0.0
O38 O 0.66673 0.77516 0.43181 0.0
O39 O 0.76029 0.82699 0.4178 0.0
O40 O 0.67305 0.66255 0.49764 0.0
O41 O 0.73559 0.72485 0.46075 0.0
Co42 Co 0.95756 0.66167 0.63188 0.0
O43 O 0.98455 0.62677 0.59812 0.0
O44 O 0.91089 0.57908 0.63426 0.0
C45 C 0.04433 0.72524 0.65466 0.0
O46 O 0.91995 0.6833 0.67173 0.0
Co47 Co 0.99493 0.79002 0.62388 0.0
O48 O 0.96121 0.77886 0.67251 0.0
C49 C 0.9064 0.70616 0.57599 0.0
C50 C 0.94473 0.57798 0.60992 0.0
C51 C 0.92802 0.73005 0.68613 0.0
O52 O 0.90446 0.6651 0.59462 0.0
O53 O 0.94341 0.75858 0.58123 0.0
O54 O 0.0179 0.67278 0.66573 0.0
O55 O 0.02055 0.73543 0.62789 0.0
Co56 Co 0.3079 0.95385 0.79935 0.0
O57 O 0.36978 0.98094 0.76558 0.0
O58 O 0.34288 0.90621 0.80087 0.0
C59 C 0.33236 0.04029 0.82321 0.0
O60 O 0.2484 0.91595 0.83901 0.0
Co61 Co 0.21865 0.99381 0.79234 0.0
O62 O 0.19554 0.95878 0.84059 0.0
C63 C 0.21163 0.90501 0.74371 0.0
C64 C 0.3782 0.9405 0.77684 0.0
C65 C 0.21018 0.9245 0.85367 0.0
O66 O 0.25081 0.90222 0.76179 0.0
O67 O 0.1971 0.94255 0.74951 0.0
O68 O 0.35769 0.01291 0.83377 0.0
O69 O 0.29843 0.01768 0.79629 0.0
Co70 Co 0.36631 0.30467 0.96746 0.0
O71 O 0.404 0.3634 0.93167 0.0
O72 O 0.44823 0.3388 0.97165 0.0
C73 C 0.30406 0.33148 0.98757 0.0
O74 O 0.34247 0.24828 0.0091 0.0
Co75 Co 0.23715 0.21582 0.96018 0.0
O76 O 0.24682 0.19535 0.00974 0.0
C77 C 0.31992 0.20615 0.91388 0.0
C78 C 0.45164 0.37168 0.94525 0.0
C79 C 0.29535 0.21104 0.02382 0.0
O80 O 0.36156 0.24471 0.93249 0.0
O81 O 0.268 0.19315 0.91845 0.0
O82 O 0.35643 0.35737 0.99879 0.0
O83 O 0.29345 0.29573 0.96179 0.0
Co84 Co 0.66593 0.95247 0.71 0.0
O85 O 0.63134 0.97988 0.74372 0.0
O86 O 0.58326 0.90567 0.70807 0.0
C87 C 0.72903 0.03896 0.68665 0.0
O88 O 0.68721 0.91435 0.67027 0.0
Co89 Co 0.79452 0.99041 0.71754 0.0
O90 O 0.7828 0.95579 0.66917 0.0
C91 C 0.71147 0.90238 0.76602 0.0
C92 C 0.5824 0.93989 0.73221 0.0
C93 C 0.73387 0.92228 0.65579 0.0
O94 O 0.67007 0.90006 0.74753 0.0
O95 O 0.76378 0.93945 0.76047 0.0
O96 O 0.67644 0.01222 0.67582 0.0
O97 O 0.73965 0.01566 0.7135 0.0
Co98 Co 0.72133 0.65849 0.87524 0.0
O99 O 0.66247 0.621 0.911 0.0
O100 O 0.68627 0.57655 0.87069 0.0
C101 C 0.69561 0.72182 0.85562 0.0
O102 O 0.77766 0.68207 0.83352 0.0
Co103 Co 0.81161 0.78701 0.88304 0.0
O104 O 0.83188 0.77758 0.83336 0.0
C105 C 0.8193 0.70294 0.92914 0.0
C106 C 0.65362 0.57329 0.8972 0.0
C107 C 0.81543 0.7291 0.81899 0.0
O108 O 0.7808 0.66192 0.91014 0.0
O109 O 0.833 0.75511 0.92485 0.0
O110 O 0.66916 0.66958 0.84416 0.0
O111 O 0.73135 0.73174 0.88131 0.0
Co112 Co 0.07154 0.71407 0.04094 0.0
O113 O 0.05005 0.65499 0.07657 0.0
O114 O 0.11966 0.68025 0.0371 0.0
C115 C 0.98274 0.68701 0.02016 0.0
O116 O 0.10466 0.77089 0.99952 0.0
Co117 Co 0.03042 0.80232 0.04797 0.0
O118 O 0.06169 0.82358 0.9987 0.0
C119 C 0.12241 0.81233 0.09484 0.0
C120 C 0.08974 0.647 0.06325 0.0
C121 C 0.09494 0.80825 0.98482 0.0
O122 O 0.12593 0.77392 0.07633 0.0
O123 O 0.08336 0.82509 0.08999 0.0
O124 O 1.00965 0.66146 0.00913 0.0
O125 O 1.00726 0.72254 0.04613 0.0
Co126 Co 0.36275 0.06573 0.2091 0.0
O127 O 0.3976 0.03837 0.24258 0.0
O128 O 0.4453 0.11316 0.20727 0.0
C129 C 0.30029 0.97947 0.18524 0.0
O130 O 0.34105 0.1039 0.16973 0.0
Co131 Co 0.23399 0.02675 0.2169 0.0
O132 O 0.24541 0.06193 0.16873 0.0
C133 C 0.31673 0.11511 0.26534 0.0
C134 C 0.44639 0.07882 0.23122 0.0
C135 C 0.29426 0.09584 0.1554 0.0
O136 O 0.35817 0.11751 0.24688 0.0
O137 O 0.26446 0.07793 0.25979 0.0
O138 O 0.35294 1.00673 0.17455 0.0
O139 O 0.28927 1.00207 0.21233 0.0
Co140 Co 0.30773 0.35941 0.37475 0.0
O141 O 0.36707 0.39724 0.41024 0.0
O142 O 0.34262 0.44139 0.37014 0.0
C143 C 0.33342 0.29612 0.35492 0.0
O144 O 0.25071 0.33547 0.33339 0.0
Co145 Co 0.2179 0.23062 0.38276 0.0
O146 O 0.19596 0.23998 0.33354 0.0
C147 C 0.21003 0.31468 0.4288 0.0
C148 C 0.37565 0.44487 0.39648 0.0
C149 C 0.21221 0.28844 0.31921 0.0
O150 O 0.24851 0.35585 0.40988 0.0
O151 O 0.19655 0.26258 0.4245 0.0
O152 O 0.35962 0.34831 0.34337 0.0
O153 O 0.29799 0.28626 0.38077 0.0
Co154 Co 0.95767 0.3035 0.54217 0.0
O155 O 0.98419 0.3645 0.57653 0.0
O156 O 0.91027 0.33873 0.54065 0.0
C157 C 0.0446 0.32835 0.51898 0.0
O158 O 0.9206 0.24513 0.5018 0.0
Co159 Co 0.99726 0.21393 0.54867 0.0
O160 O 0.9643 0.19312 0.49977 0.0
C161 C 0.90796 0.20627 0.59709 0.0
C162 C 0.94416 0.37341 0.56508 0.0
C163 C 0.93017 0.20794 0.48663 0.0
O164 O 0.90522 0.24557 0.57913 0.0
O165 O 0.94562 0.1919 0.59131 0.0
O166 O 0.01755 0.35403 0.50843 0.0
O167 O 0.02129 0.29379 0.54552 0.0
C168 C 0.09489 0.5594 0.05032 0.0
C169 C 0.09667 0.59896 0.07534 0.0
H170 H 0.0894 0.47833 0.04223 0.0
C171 C 0.09964 0.5892 0.11205 0.0
H172 H 0.0919 0.56575 0.02189 0.0
C173 C 0.10038 0.54036 0.12358 0.0
C174 C 0.0957 0.49938 0.09865 0.0
H175 H 0.10067 0.61901 0.1318 0.0
H176 H 0.10175 0.53325 0.15207 0.0
C177 C 0.09325 0.50944 0.06192 0.0
C178 C 0.54925 0.03012 0.25827 0.0
C179 C 0.59988 0.08162 0.2644 0.0
H180 H 0.46114 0.98933 0.24394 0.0
C181 C 0.60016 0.13321 0.25959 0.0
H182 H 0.54769 0.98973 0.262 0.0
C183 C 0.5506 0.13299 0.24806 0.0
C184 C 0.49976 0.08116 0.24266 0.0
H185 H 0.63875 0.17347 0.26414 0.0
H186 H 0.5517 0.17309 0.24405 0.0
C187 C 0.49961 0.02989 0.24812 0.0
C188 C 0.48281 0.5616 0.457 0.0
C189 C 0.52238 0.59947 0.432 0.0
H190 H 0.40571 0.4818 0.46522 0.0
C191 C 0.51128 0.58803 0.39523 0.0
H192 H 0.49078 0.56921 0.4855 0.0
C193 C 0.46163 0.53926 0.38366 0.0
C194 C 0.42353 0.49997 0.40868 0.0
H195 H 0.54134 0.61648 0.37547 0.0
H196 H 0.45445 0.53085 0.35517 0.0
C197 C 0.43438 0.51164 0.44545 0.0
C198 C 0.99382 0.525 0.59265 0.0
C199 C 0.9425 0.52465 0.59847 0.0
H200 H 0.03408 0.4771 0.57852 0.0
C201 C 0.8907 0.47362 0.59341 0.0
H202 H 0.03435 0.56361 0.59655 0.0
C203 C 0.89054 0.42409 0.58188 0.0
C204 C 0.94218 0.42457 0.57674 0.0
H205 H 0.85057 0.47236 0.5977 0.0
H206 H 0.85029 0.38536 0.5776 0.0
C207 C 0.99366 0.47539 0.58252 0.0
C208 C 0.47794 0.88633 0.74866 0.0
C209 C 0.52918 0.93796 0.74369 0.0
H210 H 0.38962 0.84633 0.76429 0.0
C211 C 0.52984 0.98941 0.74958 0.0
H212 H 0.47641 0.84609 0.74431 0.0
C213 C 0.48034 0.98956 0.75966 0.0
C214 C 0.4293 0.93824 0.76532 0.0
H215 H 0.56861 0.02983 0.74575 0.0
H216 H 0.4823 0.03008 0.76368 0.0
C217 C 0.42852 0.88647 0.76012 0.0
C218 C 0.54612 0.45742 0.95792 0.0
C219 C 0.50668 0.41938 0.93294 0.0
H220 H 0.62327 0.5372 0.96602 0.0
C221 C 0.51801 0.43031 0.89616 0.0
H222 H 0.53794 0.45017 0.98642 0.0
C223 C 0.56778 0.47883 0.88454 0.0
C224 C 0.60574 0.51836 0.90951 0.0
H225 H 0.48801 0.40167 0.87643 0.0
H226 H 0.57514 0.48691 0.85603 0.0
C227 C 0.59469 0.50715 0.94629 0.0
C228 C 0.15699 0.29068 0.02162 0.0
C229 C 0.16932 0.32649 0.05156 0.0
H230 H 0.18949 0.26524 0.9775 0.0
C231 C 0.22623 0.36834 0.05809 0.0
H232 H 0.11352 0.25823 0.01575 0.0
C233 C 0.27019 0.3716 0.03647 0.0
C234 C 0.25788 0.33373 0.0076 0.0
H235 H 0.23708 0.3963 0.08109 0.0
H236 H 0.31388 0.40244 0.04312 0.0
C237 C 0.20064 0.29464 0.99971 0.0
C238 C 0.87739 0.14864 0.18786 0.0
C239 C 0.85188 0.16095 0.2167 0.0
H240 H 0.93736 0.18114 0.14473 0.0
C241 C 0.86558 0.2177 0.22225 0.0
H242 H 0.86757 0.10531 0.1828 0.0
C243 C 0.90676 0.26156 0.20083 0.0
C244 C 0.93421 0.24936 0.17305 0.0
H245 H 0.84699 0.2286 0.24442 0.0
H246 H 0.91839 0.30516 0.20675 0.0
C247 C 0.91757 0.1922 0.16607 0.0
C248 C 0.6572 0.8652 0.39341 0.0
C249 C 0.69786 0.84855 0.38687 0.0
H250 H 0.62538 0.92068 0.37841 0.0
C251 C 0.73421 0.87166 0.35712 0.0
H252 H 0.62896 0.84849 0.41631 0.0
C253 C 0.73185 0.91233 0.33534 0.0
C254 C 0.69376 0.93177 0.34312 0.0
H255 H 0.76585 0.85951 0.35129 0.0
H256 H 0.76155 0.93015 0.31324 0.0
C257 C 0.65549 0.90683 0.37188 0.0
C258 C 0.76006 0.64829 0.53441 0.0
C259 C 0.7719 0.68676 0.50598 0.0
H260 H 0.79376 0.62322 0.5785 0.0
C261 C 0.82901 0.72652 0.49819 0.0
H262 H 0.71651 0.61692 0.54096 0.0
C263 C 0.87294 0.73058 0.51987 0.0
C264 C 0.86103 0.69415 0.54942 0.0
H265 H 0.83982 0.75639 0.47629 0.0
H266 H 0.91625 0.76361 0.5142 0.0
C267 C 0.8043 0.65162 0.55576 0.0
C268 C 0.12015 0.75905 0.70235 0.0
C269 C 0.09296 0.77143 0.67451 0.0
H270 H 0.18055 0.79201 0.74562 0.0
C271 C 0.11052 0.82866 0.66707 0.0
H272 H 0.10781 0.71536 0.70858 0.0
C273 C 0.15154 0.87228 0.68843 0.0
C274 C 0.17692 0.85989 0.7173 0.0
H275 H 0.09091 0.83981 0.64566 0.0
H276 H 0.1621 0.91574 0.68303 0.0
C277 C 0.16214 0.80295 0.72337 0.0
C278 C 0.29685 0.1077 0.83602 0.0
C279 C 0.33504 0.08839 0.84385 0.0
H280 H 0.26251 0.16026 0.85194 0.0
C281 C 0.37308 0.11325 0.87272 0.0
H282 H 0.26733 0.08996 0.81382 0.0
C283 C 0.37111 0.15473 0.89427 0.0
C284 C 0.33038 0.17127 0.88765 0.0
H285 H 0.40326 0.0995 0.87929 0.0
H286 H 0.39925 0.17146 0.91721 0.0
C287 C 0.29419 0.14818 0.85783 0.0
C288 C 0.73369 0.8255 0.84343 0.0
C289 C 0.69341 0.7684 0.83607 0.0
H290 H 0.77074 0.91258 0.82711 0.0
C291 C 0.65412 0.75649 0.80811 0.0
H292 H 0.76423 0.83634 0.86494 0.0
C293 C 0.65707 0.80058 0.7868 0.0
C294 C 0.70001 0.85727 0.79269 0.0
H295 H 0.62234 0.71294 0.80189 0.0
H296 H 0.62798 0.78992 0.76443 0.0
C297 C 0.73733 0.8693 0.82179 0.0
C298 C 0.8688 0.64997 0.94902 0.0
C299 C 0.85317 0.69139 0.95558 0.0
H300 H 0.92275 0.6164 0.96415 0.0
C301 C 0.8761 0.72699 0.98566 0.0
H302 H 0.85211 0.62219 0.92592 0.0
C303 C 0.91576 0.72324 0.00771 0.0
C304 C 0.93444 0.68456 0.99985 0.0
H305 H 0.86463 0.75911 0.99156 0.0
H306 H 0.93352 0.75245 0.03006 0.0
C307 C 0.90948 0.64692 0.97079 0.0
C308 C 0.19732 0.91222 0.17227 0.0
C309 C 0.25483 0.93116 0.16476 0.0
H310 H 0.11052 0.85955 0.15615 0.0
C311 C 0.26813 0.90564 0.13633 0.0
H312 H 0.18548 0.93054 0.1941 0.0
C313 C 0.2248 0.86382 0.11489 0.0
C314 C 0.16751 0.84756 0.12115 0.0
H315 H 0.31207 0.91909 0.13002 0.0
H316 H 0.23635 0.84659 0.09227 0.0
C317 C 0.15428 0.87135 0.15054 0.0
C318 C 0.37121 0.21697 0.28595 0.0
C319 C 0.32822 0.16033 0.29194 0.0
H320 H 0.40622 0.30469 0.30096 0.0
C321 C 0.29107 0.14846 0.32109 0.0
H322 H 0.40018 0.22751 0.26352 0.0
C323 C 0.29499 0.19238 0.34275 0.0
C324 C 0.33533 0.24943 0.3353 0.0
H325 H 0.25764 0.10522 0.32649 0.0
H326 H 0.26463 0.18163 0.36435 0.0
C327 C 0.3744 0.26119 0.30724 0.0
C328 C 0.15281 0.29021 0.48507 0.0
C329 C 0.17565 0.32584 0.45501 0.0
H330 H 0.09476 0.26398 0.52913 0.0
C331 C 0.15905 0.36644 0.44806 0.0
H332 H 0.16495 0.25866 0.49121 0.0
C333 C 0.11764 0.36872 0.46951 0.0
C334 C 0.0929 0.33108 0.49858 0.0
H335 H 0.17559 0.39414 0.42491 0.0
H336 H 0.10375 0.39868 0.46266 0.0
C337 C 0.11238 0.29316 0.50676 0.0
C338 C 0.80582 0.15614 0.61741 0.0
C339 C 0.86291 0.17145 0.62351 0.0
H340 H 0.71834 0.1014 0.63233 0.0
C341 C 0.87565 0.14658 0.65251 0.0
H342 H 0.79463 0.17416 0.59506 0.0
C343 C 0.83227 0.10557 0.67398 0.0
C344 C 0.7749 0.0875 0.66656 0.0
H345 H 0.91924 0.15757 0.65793 0.0
H346 H 0.84372 0.08639 0.6955 0.0
C347 C 0.76214 0.11414 0.63856 0.0
C348 C 0.14436 0.23835 0.2688 0.0
C349 C 0.184 0.28976 0.28529 0.0
H350 H 0.08618 0.19763 0.2258 0.0
C351 C 0.19498 0.34137 0.26937 0.0
H352 H 0.13465 0.19768 0.28011 0.0
C353 C 0.1667 0.34134 0.2378 0.0
C354 C 0.127 0.2897 0.22146 0.0
H355 H 0.22514 0.38177 0.28136 0.0
H356 H 0.17608 0.38173 0.2262 0.0
C357 C 0.11636 0.23832 0.23745 0.0
C358 C 0.86074 0.19191 0.43634 0.0
C359 C 0.90053 0.18005 0.45266 0.0
H360 H 0.80298 0.17446 0.39236 0.0
C361 C 0.91228 0.14042 0.43615 0.0
H362 H 0.85063 0.22219 0.44829 0.0
C363 C 0.88526 0.11335 0.40443 0.0
C364 C 0.84545 0.12488 0.38795 0.0
H365 H 0.9426 0.12999 0.44769 0.0
H366 H 0.89582 0.08313 0.39288 0.0
C367 C 0.83341 0.16453 0.40429 0.0
C368 C 0.6802 0.85365 0.60523 0.0
C369 C 0.73192 0.89148 0.62228 0.0
H370 H 0.63955 0.79743 0.56066 0.0
C371 C 0.78306 0.90035 0.60683 0.0
H372 H 0.63999 0.8457 0.61638 0.0
C373 C 0.78281 0.8729 0.5752 0.0
C374 C 0.73141 0.83555 0.55781 0.0
H375 H 0.82384 0.92892 0.61904 0.0
H376 H 0.82337 0.88138 0.56433 0.0
C377 C 0.67995 0.8259 0.57333 0.0
C378 C 0.85948 0.67654 0.73668 0.0
C379 C 0.89775 0.72826 0.71982 0.0
H380 H 0.80313 0.6359 0.78116 0.0
C381 C 0.90746 0.77947 0.73562 0.0
H382 H 0.85089 0.63628 0.72527 0.0
C383 C 0.88029 0.77926 0.76738 0.0
C384 C 0.84241 0.72782 0.78452 0.0
H385 H 0.93644 0.82024 0.72356 0.0
H386 H 0.88936 0.81984 0.77853 0.0
C387 C 0.83202 0.67633 0.76869 0.0
C388 C 0.19367 0.85438 0.90349 0.0
C389 C 0.18091 0.89337 0.88696 0.0
H390 H 0.17655 0.79658 0.94733 0.0
C391 C 0.13922 0.90291 0.90264 0.0
H392 H 0.22547 0.8459 0.89215 0.0
C393 C 0.11137 0.87483 0.93397 0.0
C394 C 0.1242 0.8362 0.95079 0.0
H395 H 0.12793 0.93242 0.89083 0.0
H396 H 0.07975 0.88382 0.94503 0.0
C397 C 0.16555 0.82603 0.93509 0.0
C398 C 0.24493 0.11839 0.10687 0.0
C399 C 0.29608 0.12697 0.12213 0.0
H400 H 0.20466 0.13797 0.06463 0.0
C401 C 0.34779 0.16488 0.10514 0.0
H402 H 0.20417 0.08977 0.11909 0.0
C403 C 0.34805 0.19298 0.07343 0.0
C404 C 0.2966 0.18362 0.05807 0.0
H405 H 0.388 0.17261 0.11616 0.0
H406 H 0.38845 0.22149 0.0608 0.0
C407 C 0.24519 0.14621 0.07541 0.0
loop_
_geom_bond_atom_site_label_1
_geom_bond_atom_site_label_2
_geom_bond_distance
_geom_bond_site_symmetry_2
_ccdc_geom_bond_type
Co0 O1 2.216 . S
Co0 O2 2.091 . S
Co0 O4 2.004 . S
Co0 O10 2.021 . S
Co0 O12 2.137 1_455 S
Co0 O13 2.244 1_455 S
O1 Co0 2.216 . S
O1 C8 1.247 . S
O2 Co0 2.091 . S
O2 C8 1.261 . S
C3 O12 1.247 . S
C3 O13 1.272 . S
O4 Co0 2.004 . S
O4 C9 1.259 . S
Co5 O6 2.061 . S
Co5 O11 2.052 . S
Co5 O13 2.135 1_455 S
O6 Co5 2.061 . S
O6 C9 1.235 . S
C7 O10 1.238 . S
C7 O11 1.241 . S
C8 O1 1.247 . S
C8 O2 1.261 . S
C9 O4 1.259 . S
C9 O6 1.235 . S
O10 Co0 2.021 . S
O10 C7 1.238 . S
O11 Co5 2.052 . S
O11 C7 1.241 . S
O12 Co0 2.137 1_655 S
O12 C3 1.247 . S
O13 Co0 2.244 1_655 S
O13 C3 1.272 . S
O13 Co5 2.135 1_655 S
Co14 O15 2.216 . S
Co14 O16 2.091 . S
Co14 O18 2.004 . S
Co14 O24 2.021 . S
Co14 O26 2.137 1_545 S
Co14 O27 2.244 1_545 S
O15 Co14 2.216 . S
O15 C22 1.247 . S
O16 Co14 2.091 . S
O16 C22 1.261 . S
C17 O26 1.247 . S
C17 O27 1.272 . S
O18 Co14 2.004 . S
O18 C23 1.259 . S
Co19 O20 2.061 . S
Co19 O25 2.052 . S
Co19 O27 2.135 1_545 S
O20 Co19 2.061 . S
O20 C23 1.235 . S
C21 O24 1.238 . S
C21 O25 1.241 . S
C22 O15 1.247 . S
C22 O16 1.261 . S
C23 O18 1.259 . S
C23 O20 1.235 . S
O24 Co14 2.021 . S
O24 C21 1.238 . S
O25 Co19 2.052 . S
O25 C21 1.241 . S
O26 Co14 2.137 1_565 S
O26 C17 1.247 . S
O27 Co14 2.244 1_565 S
O27 C17 1.272 . S
O27 Co19 2.135 1_565 S
Co28 O29 2.216 . S
Co28 O30 2.091 . S
Co28 O32 2.004 . S
Co28 O38 2.021 . S
Co28 O40 2.137 . S
Co28 O41 2.244 . S
O29 Co28 2.216 . S
O29 C36 1.247 . S
O30 Co28 2.091 . S
O30 C36 1.261 . S
C31 O40 1.247 . S
C31 O41 1.272 . S
O32 Co28 2.004 . S
O32 C37 1.259 . S
Co33 O34 2.061 . S
Co33 O39 2.052 . S
Co33 O41 2.135 . S
O34 Co33 2.061 . S
O34 C37 1.235 . S
C35 O38 1.238 . S
C35 O39 1.241 . S
C36 O29 1.247 . S
C36 O30 1.261 . S
C37 O32 1.259 . S
C37 O34 1.235 . S
O38 Co28 2.021 . S
O38 C35 1.238 . S
O39 Co33 2.052 . S
O39 C35 1.241 . S
O40 Co28 2.137 . S
O40 C31 1.247 . S
O41 Co28 2.244 . S
O41 C31 1.272 . S
O41 Co33 2.135 . S
Co42 O43 2.216 . S
Co42 O44 2.091 . S
Co42 O46 2.004 . S
Co42 O52 2.021 . S
Co42 O54 2.137 1_655 S
Co42 O55 2.244 1_655 S
O43 Co42 2.216 . S
O43 C50 1.247 . S
O44 Co42 2.091 . S
O44 C50 1.261 . S
C45 O54 1.247 . S
C45 O55 1.272 . S
O46 Co42 2.004 . S
O46 C51 1.259 . S
Co47 O48 2.061 . S
Co47 O53 2.052 . S
Co47 O55 2.135 1_655 S
O48 Co47 2.061 . S
O48 C51 1.235 . S
C49 O52 1.238 . S
C49 O53 1.241 . S
C50 O43 1.247 . S
C50 O44 1.261 . S
C51 O46 1.259 . S
C51 O48 1.235 . S
O52 Co42 2.021 . S
O52 C49 1.238 . S
O53 Co47 2.052 . S
O53 C49 1.241 . S
O54 Co42 2.137 1_455 S
O54 C45 1.247 . S
O55 Co42 2.244 1_455 S
O55 C45 1.272 . S
O55 Co47 2.135 1_455 S
Co56 O57 2.216 . S
Co56 O58 2.091 . S
Co56 O60 2.004 . S
Co56 O66 2.021 . S
Co56 O68 2.137 1_565 S
Co56 O69 2.244 1_565 S
O57 Co56 2.216 . S
O57 C64 1.247 . S
O58 Co56 2.091 . S
O58 C64 1.261 . S
C59 O68 1.247 . S
C59 O69 1.272 . S
O60 Co56 2.004 . S
O60 C65 1.259 . S
Co61 O62 2.061 . S
Co61 O67 2.052 . S
Co61 O69 2.135 1_565 S
O62 Co61 2.061 . S
O62 C65 1.235 . S
C63 O66 1.238 . S
C63 O67 1.241 . S
C64 O57 1.247 . S
C64 O58 1.261 . S
C65 O60 1.259 . S
C65 O62 1.235 . S
O66 Co56 2.021 . S
O66 C63 1.238 . S
O67 Co61 2.052 . S
O67 C63 1.241 . S
O68 Co56 2.137 1_545 S
O68 C59 1.247 . S
O69 Co56 2.244 1_545 S
O69 C59 1.272 . S
O69 Co61 2.135 1_545 S
Co70 O71 2.216 . S
Co70 O72 2.091 . S
Co70 O74 2.004 1_556 S
Co70 O80 2.021 . S
Co70 O82 2.137 . S
Co70 O83 2.244 . S
O71 Co70 2.216 . S
O71 C78 1.247 . S
O72 Co70 2.091 . S
O72 C78 1.261 . S
C73 O82 1.247 . S
C73 O83 1.272 . S
O74 Co70 2.004 1_554 S
O74 C79 1.259 . S
Co75 O76 2.061 1_556 S
Co75 O81 2.052 . S
Co75 O83 2.135 . S
O76 Co75 2.061 1_554 S
O76 C79 1.235 . S
C77 O80 1.238 . S
C77 O81 1.241 . S
C78 O71 1.247 . S
C78 O72 1.261 . S
C79 O74 1.259 . S
C79 O76 1.235 . S
O80 Co70 2.021 . S
O80 C77 1.238 . S
O81 Co75 2.052 . S
O81 C77 1.241 . S
O82 Co70 2.137 . S
O82 C73 1.247 . S
O83 Co70 2.244 . S
O83 C73 1.272 . S
O83 Co75 2.135 . S
Co84 O85 2.216 . S
Co84 O86 2.091 . S
Co84 O88 2.004 . S
Co84 O94 2.021 . S
Co84 O96 2.137 1_565 S
Co84 O97 2.244 1_565 S
O85 Co84 2.216 . S
O85 C92 1.247 . S
O86 Co84 2.091 . S
O86 C92 1.261 . S
C87 O96 1.247 . S
C87 O97 1.272 . S
O88 Co84 2.004 . S
O88 C93 1.259 . S
Co89 O90 2.061 . S
Co89 O95 2.052 . S
Co89 O97 2.135 1_565 S
O90 Co89 2.061 . S
O90 C93 1.235 . S
C91 O94 1.238 . S
C91 O95 1.241 . S
C92 O85 1.247 . S
C92 O86 1.261 . S
C93 O88 1.259 . S
C93 O90 1.235 . S
O94 Co84 2.021 . S
O94 C91 1.238 . S
O95 Co89 2.052 . S
O95 C91 1.241 . S
O96 Co84 2.137 1_545 S
O96 C87 1.247 . S
O97 Co84 2.244 1_545 S
O97 C87 1.272 . S
O97 Co89 2.135 1_545 S
Co98 O99 2.216 . S
Co98 O100 2.091 . S
Co98 O102 2.004 . S
Co98 O108 2.021 . S
Co98 O110 2.137 . S
Co98 O111 2.244 . S
O99 Co98 2.216 . S
O99 C106 1.247 . S
O100 Co98 2.091 . S
O100 C106 1.261 . S
C101 O110 1.247 . S
C101 O111 1.272 . S
O102 Co98 2.004 . S
O102 C107 1.259 . S
Co103 O104 2.061 . S
Co103 O109 2.052 . S
Co103 O111 2.135 . S
O104 Co103 2.061 . S
O104 C107 1.235 . S
C105 O108 1.238 . S
C105 O109 1.241 . S
C106 O99 1.247 . S
C106 O100 1.261 . S
C107 O102 1.259 . S
C107 O104 1.235 . S
O108 Co98 2.021 . S
O108 C105 1.238 . S
O109 Co103 2.052 . S
O109 C105 1.241 . S
O110 Co98 2.137 . S
O110 C101 1.247 . S
O111 Co98 2.244 . S
O111 C101 1.272 . S
O111 Co103 2.135 . S
Co112 O113 2.216 . S
Co112 O114 2.091 . S
Co112 O116 2.004 1_554 S
Co112 O122 2.021 . S
Co112 O124 2.137 1_455 S
Co112 O125 2.244 1_455 S
O113 Co112 2.216 . S
O113 C120 1.247 . S
O114 Co112 2.091 . S
O114 C120 1.261 . S
C115 O124 1.247 . S
C115 O125 1.272 . S
O116 Co112 2.004 1_556 S
O116 C121 1.259 . S
Co117 O118 2.061 1_554 S
Co117 O123 2.052 . S
Co117 O125 2.135 1_455 S
O118 Co117 2.061 1_556 S
O118 C121 1.235 . S
C119 O122 1.238 . S
C119 O123 1.241 . S
C120 O113 1.247 . S
C120 O114 1.261 . S
C121 O116 1.259 . S
C121 O118 1.235 . S
O122 Co112 2.021 . S
O122 C119 1.238 . S
O123 Co117 2.052 . S
O123 C119 1.241 . S
O124 Co112 2.137 1_655 S
O124 C115 1.247 . S
O125 Co112 2.244 1_655 S
O125 C115 1.272 . S
O125 Co117 2.135 1_655 S
Co126 O127 2.216 . S
Co126 O128 2.091 . S
Co126 O130 2.004 . S
Co126 O136 2.021 . S
Co126 O138 2.137 1_545 S
Co126 O139 2.244 1_545 S
O127 Co126 2.216 . S
O127 C134 1.247 . S
O128 Co126 2.091 . S
O128 C134 1.261 . S
C129 O138 1.247 . S
C129 O139 1.272 . S
O130 Co126 2.004 . S
O130 C135 1.259 . S
Co131 O132 2.061 . S
Co131 O137 2.052 . S
Co131 O139 2.135 1_545 S
O132 Co131 2.061 . S
O132 C135 1.235 . S
C133 O136 1.238 . S
C133 O137 1.241 . S
C134 O127 1.247 . S
C134 O128 1.261 . S
C135 O130 1.259 . S
C135 O132 1.235 . S
O136 Co126 2.021 . S
O136 C133 1.238 . S
O137 Co131 2.052 . S
O137 C133 1.241 . S
O138 Co126 2.137 1_565 S
O138 C129 1.247 . S
O139 Co126 2.244 1_565 S
O139 C129 1.272 . S
O139 Co131 2.135 1_565 S
Co140 O141 2.216 . S
Co140 O142 2.091 . S
Co140 O144 2.004 . S
Co140 O150 2.021 . S
Co140 O152 2.137 . S
Co140 O153 2.244 . S
O141 Co140 2.216 . S
O141 C148 1.247 . S
O142 Co140 2.091 . S
O142 C148 1.261 . S
C143 O152 1.247 . S
C143 O153 1.272 . S
O144 Co140 2.004 . S
O144 C149 1.259 . S
Co145 O146 2.061 . S
Co145 O151 2.052 . S
Co145 O153 2.135 . S
O146 Co145 2.061 . S
O146 C149 1.235 . S
C147 O150 1.238 . S
C147 O151 1.241 . S
C148 O141 1.247 . S
C148 O142 1.261 . S
C149 O144 1.259 . S
C149 O146 1.235 . S
O150 Co140 2.021 . S
O150 C147 1.238 . S
O151 Co145 2.052 . S
O151 C147 1.241 . S
O152 Co140 2.137 . S
O152 C143 1.247 . S
O153 Co140 2.244 . S
O153 C143 1.272 . S
O153 Co145 2.135 . S
Co154 O155 2.216 . S
Co154 O156 2.091 . S
Co154 O158 2.004 . S
Co154 O164 2.021 . S
Co154 O166 2.137 1_655 S
Co154 O167 2.244 1_655 S
O155 Co154 2.216 . S
O155 C162 1.247 . S
O156 Co154 2.091 . S
O156 C162 1.261 . S
C157 O166 1.247 . S
C157 O167 1.272 . S
O158 Co154 2.004 . S
O158 C163 1.259 . S
Co159 O160 2.061 . S
Co159 O165 2.052 . S
Co159 O167 2.135 1_655 S
O160 Co159 2.061 . S
O160 C163 1.235 . S
C161 O164 1.238 . S
C161 O165 1.241 . S
C162 O155 1.247 . S
C162 O156 1.261 . S
C163 O158 1.259 . S
C163 O160 1.235 . S
O164 Co154 2.021 . S
O164 C161 1.238 . S
O165 Co159 2.052 . S
O165 C161 1.241 . S
O166 Co154 2.137 1_455 S
O166 C157 1.247 . S
O167 Co154 2.244 1_455 S
O167 C157 1.272 . S
O167 Co159 2.135 1_455 S
C168 C169 1.387 . S
C168 H172 0.950 1_455 S
C168 C177 1.390 . S
C169 C168 1.387 . S
C169 C171 1.387 . S
H170 C177 0.950 1_655 S
C171 C169 1.387 . S
C171 C173 1.390 . S
C171 H175 0.950 . S
H172 C168 0.950 1_655 S
C173 C171 1.390 . S
C173 C174 1.387 . S
C173 H176 0.950 . S
C174 C173 1.387 . S
C174 C177 1.387 . S
H175 C171 0.950 . S
H176 C173 0.950 . S
C177 C168 1.390 . S
C177 H170 0.950 1_455 S
C177 C174 1.387 . S
C178 C179 1.387 1_565 S
C178 H182 0.950 . S
C178 C187 1.390 . S
C179 C178 1.387 1_545 S
C179 C181 1.387 . S
H180 C187 0.950 . S
C181 C179 1.387 . S
C181 C183 1.390 . S
C181 H185 0.950 . S
H182 C178 0.950 . S
C183 C181 1.390 . S
C183 C184 1.387 . S
C183 H186 0.950 . S
C184 C183 1.387 . S
C184 C187 1.387 1_545 S
H185 C181 0.950 . S
H186 C183 0.950 . S
C187 C178 1.390 . S
C187 H180 0.950 . S
C187 C184 1.387 1_565 S
C188 C189 1.387 . S
C188 H192 0.950 . S
C188 C197 1.390 . S
C189 C188 1.387 . S
C189 C191 1.387 . S
H190 C197 0.950 . S
C191 C189 1.387 . S
C191 C193 1.390 . S
C191 H195 0.950 . S
H192 C188 0.950 . S
C193 C191 1.390 . S
C193 C194 1.387 . S
C193 H196 0.950 . S
C194 C193 1.387 . S
C194 C197 1.387 . S
H195 C191 0.950 . S
H196 C193 0.950 . S
C197 C188 1.390 . S
C197 H190 0.950 . S
C197 C194 1.387 . S
C198 C199 1.387 . S
C198 H202 0.950 1_655 S
C198 C207 1.390 . S
C199 C198 1.387 . S
C199 C201 1.387 . S
H200 C207 0.950 1_455 S
C201 C199 1.387 . S
C201 C203 1.390 . S
C201 H205 0.950 . S
H202 C198 0.950 1_455 S
C203 C201 1.390 . S
C203 C204 1.387 . S
C203 H206 0.950 . S
C204 C203 1.387 . S
C204 C207 1.387 . S
H205 C201 0.950 . S
H206 C203 0.950 . S
C207 C198 1.390 . S
C207 H200 0.950 1_655 S
C207 C204 1.387 . S
C208 C209 1.387 . S
C208 H212 0.950 . S
C208 C217 1.390 . S
C209 C208 1.387 . S
C209 C211 1.387 1_565 S
H210 C217 0.950 . S
C211 C209 1.387 1_545 S
C211 C213 1.390 . S
C211 H215 0.950 . S
H212 C208 0.950 . S
C213 C211 1.390 . S
C213 C214 1.387 1_545 S
C213 H216 0.950 . S
C214 C213 1.387 1_565 S
C214 C217 1.387 . S
H215 C211 0.950 . S
H216 C213 0.950 . S
C217 C208 1.390 . S
C217 H210 0.950 . S
C217 C214 1.387 . S
C218 C219 1.387 . S
C218 H222 0.950 . S
C218 C227 1.390 . S
C219 C218 1.387 . S
C219 C221 1.387 . S
H220 C227 0.950 . S
C221 C219 1.387 . S
C221 C223 1.390 . S
C221 H225 0.950 . S
H222 C218 0.950 . S
C223 C221 1.390 . S
C223 C224 1.387 . S
C223 H226 0.950 . S
C224 C223 1.387 . S
C224 C227 1.387 . S
H225 C221 0.950 . S
H226 C223 0.950 . S
C227 C218 1.390 . S
C227 H220 0.950 . S
C227 C224 1.387 . S
C228 C229 1.387 . S
C228 H232 0.950 . S
C228 C237 1.390 . S
C229 C228 1.387 . S
C229 C231 1.387 . S
H230 C237 0.950 . S
C231 C229 1.387 . S
C231 C233 1.390 . S
C231 H235 0.950 . S
H232 C228 0.950 . S
C233 C231 1.390 . S
C233 C234 1.387 . S
C233 H236 0.950 . S
C234 C233 1.387 . S
C234 C237 1.387 . S
H235 C231 0.950 . S
H236 C233 0.950 . S
C237 C228 1.390 . S
C237 H230 0.950 . S
C237 C234 1.387 . S
C238 C239 1.387 . S
C238 H242 0.950 . S
C238 C247 1.390 . S
C239 C238 1.387 . S
C239 C241 1.387 . S
H240 C247 0.950 . S
C241 C239 1.387 . S
C241 C243 1.390 . S
C241 H245 0.950 . S
H242 C238 0.950 . S
C243 C241 1.390 . S
C243 C244 1.387 . S
C243 H246 0.950 . S
C244 C243 1.387 . S
C244 C247 1.387 . S
H245 C241 0.950 . S
H246 C243 0.950 . S
C247 C238 1.390 . S
C247 H240 0.950 . S
C247 C244 1.387 . S
C248 C249 1.387 . S
C248 H252 0.950 . S
C248 C257 1.390 . S
C249 C248 1.387 . S
C249 C251 1.387 . S
H250 C257 0.950 . S
C251 C249 1.387 . S
C251 C253 1.390 . S
C251 H255 0.950 . S
H252 C248 0.950 . S
C253 C251 1.390 . S
C253 C254 1.387 . S
C253 H256 0.950 . S
C254 C253 1.387 . S
C254 C257 1.387 . S
H255 C251 0.950 . S
H256 C253 0.950 . S
C257 C248 1.390 . S
C257 H250 0.950 . S
C257 C254 1.387 . S
C258 C259 1.387 . S
C258 H262 0.950 . S
C258 C267 1.390 . S
C259 C258 1.387 . S
C259 C261 1.387 . S
H260 C267 0.950 . S
C261 C259 1.387 . S
C261 C263 1.390 . S
C261 H265 0.950 . S
H262 C258 0.950 . S
C263 C261 1.390 . S
C263 C264 1.387 . S
C263 H266 0.950 . S
C264 C263 1.387 . S
C264 C267 1.387 . S
H265 C261 0.950 . S
H266 C263 0.950 . S
C267 C258 1.390 . S
C267 H260 0.950 . S
C267 C264 1.387 . S
C268 C269 1.387 . S
C268 H272 0.950 . S
C268 C277 1.390 . S
C269 C268 1.387 . S
C269 C271 1.387 . S
H270 C277 0.950 . S
C271 C269 1.387 . S
C271 C273 1.390 . S
C271 H275 0.950 . S
H272 C268 0.950 . S
C273 C271 1.390 . S
C273 C274 1.387 . S
C273 H276 0.950 . S
C274 C273 1.387 . S
C274 C277 1.387 . S
H275 C271 0.950 . S
H276 C273 0.950 . S
C277 C268 1.390 . S
C277 H270 0.950 . S
C277 C274 1.387 . S
C278 C279 1.387 . S
C278 H282 0.950 . S
C278 C287 1.390 . S
C279 C278 1.387 . S
C279 C281 1.387 . S
H280 C287 0.950 . S
C281 C279 1.387 . S
C281 C283 1.390 . S
C281 H285 0.950 . S
H282 C278 0.950 . S
C283 C281 1.390 . S
C283 C284 1.387 . S
C283 H286 0.950 . S
C284 C283 1.387 . S
C284 C287 1.387 . S
H285 C281 0.950 . S
H286 C283 0.950 . S
C287 C278 1.390 . S
C287 H280 0.950 . S
C287 C284 1.387 . S
C288 C289 1.387 . S
C288 H292 0.950 . S
C288 C297 1.390 . S
C289 C288 1.387 . S
C289 C291 1.387 . S
H290 C297 0.950 . S
C291 C289 1.387 . S
C291 C293 1.390 . S
C291 H295 0.950 . S
H292 C288 0.950 . S
C293 C291 1.390 . S
C293 C294 1.387 . S
C293 H296 0.950 . S
C294 C293 1.387 . S
C294 C297 1.387 . S
H295 C291 0.950 . S
H296 C293 0.950 . S
C297 C288 1.390 . S
C297 H290 0.950 . S
C297 C294 1.387 . S
C298 C299 1.387 . S
C298 H302 0.950 . S
C298 C307 1.390 . S
C299 C298 1.387 . S
C299 C301 1.387 . S
H300 C307 0.950 . S
C301 C299 1.387 . S
C301 C303 1.390 . S
C301 H305 0.950 . S
H302 C298 0.950 . S
C303 C301 1.390 . S
C303 C304 1.387 . S
C303 H306 0.950 . S
C304 C303 1.387 . S
C304 C307 1.387 . S
H305 C301 0.950 . S
H306 C303 0.950 . S
C307 C298 1.390 . S
C307 H300 0.950 . S
C307 C304 1.387 . S
C308 C309 1.387 . S
C308 H312 0.950 . S
C308 C317 1.390 . S
C309 C308 1.387 . S
C309 C311 1.387 . S
H310 C317 0.950 . S
C311 C309 1.387 . S
C311 C313 1.390 . S
C311 H315 0.950 . S
H312 C308 0.950 . S
C313 C311 1.390 . S
C313 C314 1.387 . S
C313 H316 0.950 . S
C314 C313 1.387 . S
C314 C317 1.387 . S
H315 C311 0.950 . S
H316 C313 0.950 . S
C317 C308 1.390 . S
C317 H310 0.950 . S
C317 C314 1.387 . S
C318 C319 1.387 . S
C318 H322 0.950 . S
C318 C327 1.390 . S
C319 C318 1.387 . S
C319 C321 1.387 . S
H320 C327 0.950 . S
C321 C319 1.387 . S
C321 C323 1.390 . S
C321 H325 0.950 . S
H322 C318 0.950 . S
C323 C321 1.390 . S
C323 C324 1.387 . S
C323 H326 0.950 . S
C324 C323 1.387 . S
C324 C327 1.387 . S
H325 C321 0.950 . S
H326 C323 0.950 . S
C327 C318 1.390 . S
C327 H320 0.950 . S
C327 C324 1.387 . S
C328 C329 1.387 . S
C328 H332 0.950 . S
C328 C337 1.390 . S
C329 C328 1.387 . S
C329 C331 1.387 . S
H330 C337 0.950 . S
C331 C329 1.387 . S
C331 C333 1.390 . S
C331 H335 0.950 . S
H332 C328 0.950 . S
C333 C331 1.390 . S
C333 C334 1.387 . S
C333 H336 0.950 . S
C334 C333 1.387 . S
C334 C337 1.387 . S
H335 C331 0.950 . S
H336 C333 0.950 . S
C337 C328 1.390 . S
C337 H330 0.950 . S
C337 C334 1.387 . S
C338 C339 1.387 . S
C338 H342 0.950 . S
C338 C347 1.390 . S
C339 C338 1.387 . S
C339 C341 1.387 . S
H340 C347 0.950 . S
C341 C339 1.387 . S
C341 C343 1.390 . S
C341 H345 0.950 . S
H342 C338 0.950 . S
C343 C341 1.390 . S
C343 C344 1.387 . S
C343 H346 0.950 . S
C344 C343 1.387 . S
C344 C347 1.387 . S
H345 C341 0.950 . S
H346 C343 0.950 . S
C347 C338 1.390 . S
C347 H340 0.950 . S
C347 C344 1.387 . S
C348 C349 1.387 . S
C348 H352 0.950 . S
C348 C357 1.390 . S
C349 C348 1.387 . S
C349 C351 1.387 . S
H350 C357 0.950 . S
C351 C349 1.387 . S
C351 C353 1.390 . S
C351 H355 0.950 . S
H352 C348 0.950 . S
C353 C351 1.390 . S
C353 C354 1.387 . S
C353 H356 0.950 . S
C354 C353 1.387 . S
C354 C357 1.387 . S
H355 C351 0.950 . S
H356 C353 0.950 . S
C357 C348 1.390 . S
C357 H350 0.950 . S
C357 C354 1.387 . S
C358 C359 1.387 . S
C358 H362 0.950 . S
C358 C367 1.390 . S
C359 C358 1.387 . S
C359 C361 1.387 . S
H360 C367 0.950 . S
C361 C359 1.387 . S
C361 C363 1.390 . S
C361 H365 0.950 . S
H362 C358 0.950 . S
C363 C361 1.390 . S
C363 C364 1.387 . S
C363 H366 0.950 . S
C364 C363 1.387 . S
C364 C367 1.387 . S
H365 C361 0.950 . S
H366 C363 0.950 . S
C367 C358 1.390 . S
C367 H360 0.950 . S
C367 C364 1.387 . S
C368 C369 1.387 . S
C368 H372 0.950 . S
C368 C377 1.390 . S
C369 C368 1.387 . S
C369 C371 1.387 . S
H370 C377 0.950 . S
C371 C369 1.387 . S
C371 C373 1.390 . S
C371 H375 0.950 . S
H372 C368 0.950 . S
C373 C371 1.390 . S
C373 C374 1.387 . S
C373 H376 0.950 . S
C374 C373 1.387 . S
C374 C377 1.387 . S
H375 C371 0.950 . S
H376 C373 0.950 . S
C377 C368 1.390 . S
C377 H370 0.950 . S
C377 C374 1.387 . S
C378 C379 1.387 . S
C378 H382 0.950 . S
C378 C387 1.390 . S
C379 C378 1.387 . S
C379 C381 1.387 . S
H380 C387 0.950 . S
C381 C379 1.387 . S
C381 C383 1.390 . S
C381 H385 0.950 . S
H382 C378 0.950 . S
C383 C381 1.390 . S
C383 C384 1.387 . S
C383 H386 0.950 . S
C384 C383 1.387 . S
C384 C387 1.387 . S
H385 C381 0.950 . S
H386 C383 0.950 . S
C387 C378 1.390 . S
C387 H380 0.950 . S
C387 C384 1.387 . S
C388 C389 1.387 . S
C388 H392 0.950 . S
C388 C397 1.390 . S
C389 C388 1.387 . S
C389 C391 1.387 . S
H390 C397 0.950 . S
C391 C389 1.387 . S
C391 C393 1.390 . S
C391 H395 0.950 . S
H392 C388 0.950 . S
C393 C391 1.390 . S
C393 C394 1.387 . S
C393 H396 0.950 . S
C394 C393 1.387 . S
C394 C397 1.387 . S
H395 C391 0.950 . S
H396 C393 0.950 . S
C397 C388 1.390 . S
C397 H390 0.950 . S
C397 C394 1.387 . S
C398 C399 1.387 . S
C398 H402 0.950 . S
C398 C407 1.390 . S
C399 C398 1.387 . S
C399 C401 1.387 . S
H400 C407 0.950 . S
C401 C399 1.387 . S
C401 C403 1.390 . S
C401 H405 0.950 . S
H402 C398 0.950 . S
C403 C401 1.390 . S
C403 C404 1.387 . S
C403 H406 0.950 . S
C404 C403 1.387 . S
C404 C407 1.387 . S
H405 C401 0.950 . S
H406 C403 0.950 . S
C407 C398 1.390 . S
C407 H400 0.950 . S
C407 C404 1.387 . S
C169 C120 1.459 . S
C174 C8 1.459 . S
C179 C22 1.460 . S
C184 C134 1.460 . S
C189 C36 1.459 . S
C194 C148 1.458 . S
C199 C50 1.459 . S
C204 C162 1.459 . S
C209 C92 1.457 . S
C214 C64 1.457 . S
C219 C78 1.459 . S
C224 C106 1.458 . S
C229 C7 1.546 . S
C234 C73 1.550 1_554 S
C239 C21 1.546 . S
C244 C3 1.550 . S
C249 C35 1.548 . S
C254 C17 1.548 . S
C259 C31 1.548 . S
C264 C49 1.548 . S
C269 C45 1.548 . S
C274 C63 1.548 . S
C279 C59 1.549 . S
C284 C77 1.547 . S
C289 C101 1.549 . S
C294 C91 1.548 . S
C299 C105 1.548 . S
C304 C115 1.548 1_556 S
C309 C129 1.549 . S
C314 C119 1.548 . S
C319 C133 1.548 . S
C324 C143 1.548 . S
C329 C147 1.546 . S
C334 C157 1.550 . S
C339 C161 1.548 . S
C344 C87 1.548 . S
C349 C149 1.326 . S
C354 C9 1.326 . S
C359 C163 1.327 . S
C364 C23 1.325 . S
C369 C93 1.326 . S
C374 C37 1.327 . S
C379 C51 1.326 . S
C384 C107 1.326 . S
C389 C65 1.325 . S
C394 C121 1.327 . S
C399 C135 1.325 . S
C404 C79 1.327 . S
