# Generated by pormake.
# Topology sqp, (5)-cn, num edge types: 1
# Building blocks:
#     Node 0, Type 0, BuildingBlock: BEQFEK_clean_sbu_0, # of connection points: 5
#     Node 1, Type 0, BuildingBlock: BEQFEK_clean_sbu_0, # of connection points: 5
#     Node 2, Type 0, BuildingBlock: BEQFEK_clean_sbu_0, # of connection points: 5
#     Node 3, Type 0, BuildingBlock: BEQFEK_clean_sbu_0, # of connection points: 5
#     Edge 4, Type (0, 0), BuildingBlock: MIFKUJ_clean_linker_0, # of connection points: 2
#     Edge 5, Type (0, 0), BuildingBlock: MIFKUJ_clean_linker_0, # of connection points: 2
#     Edge 6, Type (0, 0), BuildingBlock: MIFKUJ_clean_linker_0, # of connection points: 2
#     Edge 7, Type (0, 0), BuildingBlock: MIFKUJ_clean_linker_0, # of connection points: 2
#     Edge 8, Type (0, 0), BuildingBlock: MIFKUJ_clean_linker_0, # of connection points: 2
#     Edge 9, Type (0, 0), BuildingBlock: MIFKUJ_clean_linker_0, # of connection points: 2
#     Edge 10, Type (0, 0), BuildingBlock: MIFKUJ_clean_linker_0, # of connection points: 2
#     Edge 11, Type (0, 0), BuildingBlock: MIFKUJ_clean_linker_0, # of connection points: 2
#     Edge 12, Type (0, 0), BuildingBlock: MIFKUJ_clean_linker_0, # of connection points: 2
#     Edge 13, Type (0, 0), BuildingBlock: MIFKUJ_clean_linker_0, # of connection points: 2
# Relax obj value: 0.030
# Max RMSD: 0.085
# Mean RMSD: 0.085
data_MOF--net-sqp--node1-BEQFEK_clean_sbu_0--edge1-MIFKUJ_clean_linker_0
_symmetry_space_group_name_H-M    P1
_symmetry_Int_Tables_number       1
_symmetry_cell_setting            triclinic
loop_
_symmetry_equiv_pos_as_xyz
'x, y, z'
_cell_length_a     30.843161
_cell_length_b     30.81534
_cell_length_c     49.200883
_cell_angle_alpha  98.162419
_cell_angle_beta   98.310839
_cell_angle_gamma 99.738139
loop_
_atom_site_label
_atom_site_type_symbol
_atom_site_fract_x
_atom_site_fract_y
_atom_site_fract_z
_atom_type_partial_charge
Co0 Co 0.04603 0.96461 0.30177 0.0
Co1 Co 0.98277 0.03487 0.30362 0.0
C2 C 0.9468 0.94021 0.27835 0.0
O3 O 0.9855 0.93089 0.28388 0.0
O4 O 0.9404 0.97999 0.28425 0.0
C5 C 0.08894 0.90474 0.271 0.0
O6 O 0.06052 0.91172 0.25023 0.0
C7 C 0.91752 0.09199 0.28925 0.0
C8 C 0.94794 0.15477 0.31838 0.0
C9 C 0.91261 0.13567 0.29706 0.0
N10 N 0.9544 0.08557 0.3052 0.0
N11 N 0.97201 0.12308 0.32281 0.0
C12 C 0.88959 0.05792 0.26584 0.0
H13 H 0.91147 0.04058 0.25394 0.0
H14 H 0.86778 0.07341 0.2517 0.0
H15 H 0.86837 0.03257 0.27464 0.0
C16 C 0.09926 0.03512 0.27843 0.0
N17 N 0.06178 0.01763 0.28725 0.0
N18 N 0.03405 0.04569 0.28632 0.0
C19 C 0.05239 0.08121 0.27586 0.0
C20 C 0.09454 0.07601 0.27081 0.0
C21 C 0.14077 0.01577 0.28074 0.0
H22 H 0.14337 0.99806 0.29883 0.0
H23 H 0.13924 0.9915 0.26151 0.0
H24 H 0.1711 0.04211 0.28324 0.0
O25 O 0.04633 0.97892 0.34203 0.0
O26 O 1.00053 0.02733 0.34301 0.0
H27 H 0.03408 0.14323 0.29021 0.0
H28 H 0.04466 0.13721 0.25495 0.0
C29 C 0.02991 0.11932 0.2705 0.0
H30 H 0.99379 0.10683 0.26263 0.0
H31 H 1.00125 0.12739 0.33735 0.0
O32 O 0.0889 0.92439 0.29552 0.0
C33 C 0.02546 0.00456 0.35545 0.0
Co34 Co 0.04554 0.97093 0.69914 0.0
Co35 Co 0.97615 0.0351 0.6942 0.0
C36 C 0.07175 0.06968 0.72082 0.0
O37 O 0.08101 0.03076 0.71679 0.0
O38 O 0.03226 0.07599 0.71356 0.0
C39 C 0.12414 0.93288 0.70631 0.0
O40 O 0.14326 0.97146 0.70098 0.0
C41 C 0.91729 0.09813 0.71022 0.0
C42 C 0.86835 0.08698 0.67121 0.0
C43 C 0.87938 0.11173 0.69791 0.0
N44 N 0.9277 0.06671 0.69161 0.0
N45 N 0.89822 0.06028 0.6684 0.0
C46 C 0.94427 0.11568 0.73866 0.0
H47 H 0.97835 0.10842 0.73989 0.0
H48 H 0.92804 0.09902 0.75416 0.0
H49 H 0.94618 0.15224 0.74412 0.0
C50 C 0.97395 0.92123 0.723 0.0
N51 N 0.99184 0.9578 0.71341 0.0
N52 N 0.96254 0.98415 0.7112 0.0
C53 C 0.9248 0.9648 0.71901 0.0
C54 C 0.93088 0.92443 0.72683 0.0
C55 C 0.99582 0.88175 0.72515 0.0
H56 H 0.00344 0.86897 0.70448 0.0
H57 H 0.02791 0.89238 0.73995 0.0
H58 H 0.97434 0.85454 0.73233 0.0
O59 O 0.03248 0.96987 0.65829 0.0
O60 O 0.98436 0.01585 0.65558 0.0
H61 H 0.8708 0.98548 0.6951 0.0
H62 H 0.85608 0.96164 0.72488 0.0
C63 C 0.88267 0.983 0.71711 0.0
H64 H 0.88956 0.01703 0.72962 0.0
H65 H 0.89868 0.03778 0.65051 0.0
O66 O 0.08236 0.92537 0.70636 0.0
C67 C 0.00735 0.99035 0.64402 0.0
Co68 Co 0.53965 0.46421 0.80085 0.0
Co69 Co 0.47691 0.53488 0.80188 0.0
C70 C 0.44068 0.43999 0.77686 0.0
O71 O 0.47924 0.43051 0.78273 0.0
O72 O 0.43446 0.4799 0.78248 0.0
C73 C 0.58383 0.40449 0.77093 0.0
O74 O 0.55631 0.41152 0.74972 0.0
C75 C 0.4148 0.59404 0.78547 0.0
C76 C 0.43977 0.65308 0.81865 0.0
C77 C 0.40851 0.63691 0.79462 0.0
N78 N 0.44851 0.58548 0.80326 0.0
N79 N 0.46281 0.62071 0.82321 0.0
C80 C 0.39186 0.56315 0.7592 0.0
H81 H 0.41506 0.54268 0.75111 0.0
H82 H 0.37934 0.58208 0.74315 0.0
H83 H 0.36303 0.54025 0.76382 0.0
C84 C 0.59432 0.53451 0.77814 0.0
N85 N 0.55609 0.51699 0.78615 0.0
N86 N 0.52887 0.54559 0.78519 0.0
C87 C 0.54854 0.58161 0.77566 0.0
C88 C 0.59057 0.57574 0.77099 0.0
C89 C 0.63503 0.5139 0.77953 0.0
H90 H 0.6397 0.49894 0.7987 0.0
H91 H 0.63047 0.48703 0.76122 0.0
H92 H 0.66542 0.53874 0.77915 0.0
O93 O 0.53964 0.4794 0.8411 0.0
O94 O 0.49392 0.52788 0.84132 0.0
H95 H 0.53127 0.64121 0.79517 0.0
H96 H 0.54867 0.64539 0.76208 0.0
C97 C 0.52967 0.62293 0.77383 0.0
H98 H 0.49429 0.61373 0.76339 0.0
H99 H 0.48917 0.62306 0.83958 0.0
O100 O 0.58266 0.42396 0.7953 0.0
C101 C 0.5187 0.50543 0.85414 0.0
Co102 Co 0.55469 0.47257 0.19789 0.0
Co103 Co 0.48432 0.53609 0.19738 0.0
C104 C 0.57856 0.57071 0.22414 0.0
O105 O 0.5881 0.53225 0.21792 0.0
O106 O 0.53893 0.5772 0.21788 0.0
C107 C 0.60577 0.41971 0.22762 0.0
O108 O 0.58931 0.43794 0.24865 0.0
C109 C 0.42316 0.59877 0.21154 0.0
C110 C 0.36744 0.57353 0.1762 0.0
C111 C 0.3812 0.60539 0.20014 0.0
N112 N 0.4332 0.56422 0.19513 0.0
N113 N 0.3997 0.54953 0.17407 0.0
C114 C 0.45394 0.62586 0.23681 0.0
H115 H 0.48914 0.62533 0.23501 0.0
H116 H 0.44675 0.61132 0.25543 0.0
H117 H 0.4492 0.66102 0.23977 0.0
C118 C 0.48057 0.41519 0.21616 0.0
N119 N 0.50004 0.45463 0.21041 0.0
N120 N 0.4727 0.48291 0.21267 0.0
C121 C 0.436 0.46315 0.22135 0.0
C122 C 0.43942 0.41931 0.22357 0.0
C123 C 0.49758 0.37268 0.21019 0.0
H124 H 0.51926 0.37484 0.19414 0.0
H125 H 0.51716 0.36674 0.2296 0.0
H126 H 0.4695 0.34379 0.20272 0.0
O127 O 0.54235 0.4758 0.15797 0.0
O128 O 0.49326 0.52091 0.15811 0.0
H129 H 0.37582 0.48554 0.20783 0.0
H130 H 0.37936 0.46935 0.24183 0.0
C131 C 0.39861 0.48609 0.22756 0.0
H132 H 0.41215 0.52136 0.23737 0.0
H133 H 0.39888 0.52294 0.15817 0.0
O134 O 0.59516 0.42955 0.20363 0.0
C135 C 0.51659 0.49737 0.1452 0.0
H136 H 0.98159 0.0509 0.39062 0.0
H137 H 0.98092 0.04766 0.43982 0.0
H138 H 0.07375 0.95753 0.43838 0.0
H139 H 0.07414 0.95994 0.389 0.0
H140 H 0.00545 0.92769 0.46324 0.0
H141 H 0.10759 0.06609 0.47036 0.0
H142 H 0.13331 0.14146 0.46036 0.0
H143 H 0.02479 0.18714 0.4939 0.0
H144 H 0.99804 0.11184 0.50375 0.0
H145 H 0.05486 0.94319 0.61161 0.0
H146 H 0.05878 0.94412 0.56237 0.0
H147 H 0.96343 0.03154 0.55865 0.0
H148 H 0.9594 0.0311 0.60771 0.0
H149 H 0.03599 0.06231 0.53675 0.0
H150 H 0.93279 0.92372 0.52845 0.0
H151 H 0.90659 0.84834 0.53827 0.0
H152 H 0.0171 0.80316 0.50699 0.0
H153 H 0.04432 0.8785 0.49734 0.0
C154 C 0.00223 0.0307 0.40078 0.0
C155 C 0.02793 0.00567 0.38582 0.0
C156 C 1.00188 0.02898 0.42896 0.0
C157 C 0.02752 0.00258 0.4428 0.0
C158 C 0.05369 0.97808 0.42807 0.0
C159 C 0.054 0.97968 0.39987 0.0
C160 C 0.02582 0.99939 0.47241 0.0
C161 C 0.01285 0.95706 0.47942 0.0
C162 C 0.03447 0.03781 0.49335 0.0
C163 C 0.05059 0.0832 0.48756 0.0
C164 C 0.08901 0.09211 0.47541 0.0
C165 C 0.10381 0.13484 0.4698 0.0
C166 C 0.08064 0.16904 0.47643 0.0
C167 C 0.04268 0.16061 0.48875 0.0
C168 C 0.02771 0.11792 0.49438 0.0
C169 C 0.03434 0.96222 0.60025 0.0
C170 C 0.00693 0.98718 0.61367 0.0
C171 C 0.03659 0.96266 0.5721 0.0
C172 C 0.01137 0.9879 0.5569 0.0
C173 C 0.9833 0.01201 0.57006 0.0
C174 C 0.98095 0.01154 0.59811 0.0
C175 C 0.01538 0.99066 0.52753 0.0
C176 C 0.02881 0.03293 0.52059 0.0
C177 C 0.00717 0.95221 0.50668 0.0
C178 C 0.99087 0.90688 0.51246 0.0
C179 C 0.95173 0.89782 0.5239 0.0
C180 C 0.93665 0.85508 0.52939 0.0
C181 C 0.96024 0.82101 0.52334 0.0
C182 C 0.9989 0.8296 0.51171 0.0
C183 C 0.01416 0.87231 0.50621 0.0
H184 H 0.9485 0.78794 0.52759 0.0
H185 H 0.09215 0.2021 0.47207 0.0
H186 H 0.46342 0.53642 0.1105 0.0
H187 H 0.4632 0.53769 0.06095 0.0
H188 H 0.56672 0.4594 0.06202 0.0
H189 H 0.56671 0.45725 0.1114 0.0
H190 H 0.52825 0.57212 0.03509 0.0
H191 H 0.5542 0.39243 -0.00063 0.0
H192 H 0.53588 0.31728 0.01152 0.0
H193 H 0.42232 0.35218 0.04428 0.0
H194 H 0.43959 0.42729 0.03199 0.0
H195 H 0.57219 0.46743 0.88934 0.0
H196 H 0.57305 0.46806 0.93912 0.0
H197 H 0.47089 0.54803 0.93744 0.0
H198 H 0.4705 0.54849 0.88788 0.0
H199 H 0.50812 0.43477 0.96473 0.0
H200 H 0.48139 0.61386 0.00033 0.0
H201 H 0.49886 0.68903 0.98809 0.0
H202 H 0.61295 0.65544 0.9554 0.0
H203 H 0.59651 0.5803 0.96778 0.0
C204 C 0.48594 0.51917 0.10018 0.0
C205 C 0.51501 0.49661 0.11493 0.0
C206 C 0.48586 0.52009 0.07188 0.0
C207 C 0.51468 0.49837 0.05777 0.0
C208 C 0.54369 0.47579 0.0724 0.0
C209 C 0.5437 0.4747 0.10067 0.0
C210 C 0.51513 0.50013 0.02788 0.0
C211 C 0.52324 0.54209 0.01961 0.0
C212 C 0.50958 0.46095 0.00786 0.0
C213 C 0.4985 0.41564 0.01501 0.0
C214 C 0.52522 0.384 0.00907 0.0
C215 C 0.51504 0.34142 0.01599 0.0
C216 C 0.47805 0.33002 0.02875 0.0
C217 C 0.45106 0.36112 0.0345 0.0
C218 C 0.46108 0.40372 0.0276 0.0
C219 C 0.55021 0.48555 0.8996 0.0
C220 C 0.52131 0.50796 0.88461 0.0
C221 C 0.55066 0.48574 0.92804 0.0
C222 C 0.52228 0.50834 0.94203 0.0
C223 C 0.49364 0.53102 0.92718 0.0
C224 C 0.49337 0.5311 0.8988 0.0
C225 C 0.52148 0.50677 0.97192 0.0
C226 C 0.5132 0.46482 0.98019 0.0
C227 C 0.52679 0.54597 0.99192 0.0
C228 C 0.53742 0.5913 0.98474 0.0
C229 C 0.5103 0.62259 0.99064 0.0
C230 C 0.52001 0.66518 0.98366 0.0
C231 C 0.55691 0.67695 0.9709 0.0
C232 C 0.58428 0.64622 0.96519 0.0
C233 C 0.57475 0.6036 0.97215 0.0
H234 H 0.56433 0.70992 0.96549 0.0
H235 H 0.47025 0.29705 0.03412 0.0
H236 H 0.14945 0.06357 0.23274 0.0
H237 H 0.21092 0.11862 0.22384 0.0
H238 H 0.17846 0.2194 0.28371 0.0
H239 H 0.11882 0.16417 0.29359 0.0
H240 H 0.21643 0.19429 0.20454 0.0
H241 H 0.27109 0.28856 0.31914 0.0
H242 H 0.2728 0.27165 0.36677 0.0
H243 H 0.27454 0.13432 0.33655 0.0
H244 H 0.27355 0.15051 0.28885 0.0
H245 H 0.34974 0.40183 0.20324 0.0
H246 H 0.29312 0.34188 0.21125 0.0
H247 H 0.39489 0.2921 0.26088 0.0
H248 H 0.45102 0.35478 0.25509 0.0
H249 H 0.3276 0.2843 0.28421 0.0
H250 H 0.34616 0.24324 0.19024 0.0
H251 H 0.35061 0.25302 0.14177 0.0
H252 H 0.21436 0.27044 0.12901 0.0
H253 H 0.20927 0.26137 0.17754 0.0
C254 C 0.15565 0.0975 0.24398 0.0
C255 C 0.12945 0.1097 0.2638 0.0
C256 C 0.1905 0.12893 0.23879 0.0
C257 C 0.19966 0.17298 0.25338 0.0
C258 C 0.17252 0.18544 0.27254 0.0
C259 C 0.13804 0.154 0.27789 0.0
C260 C 0.23793 0.20594 0.24902 0.0
C261 C 0.24084 0.21392 0.22192 0.0
C262 C 0.27056 0.2306 0.27162 0.0
C263 C 0.27183 0.22072 0.30036 0.0
C264 C 0.27206 0.25481 0.32268 0.0
C265 C 0.27287 0.24533 0.34969 0.0
C266 C 0.27364 0.20192 0.35467 0.0
C267 C 0.27378 0.1679 0.33266 0.0
C268 C 0.27306 0.17721 0.30563 0.0
C269 C 0.35992 0.37881 0.21645 0.0
C270 C 0.40482 0.38321 0.22872 0.0
C271 C 0.3276 0.34391 0.22054 0.0
C272 C 0.33975 0.3117 0.23614 0.0
C273 C 0.3846 0.31631 0.24863 0.0
C274 C 0.41676 0.3519 0.2451 0.0
C275 C 0.30562 0.27361 0.23973 0.0
C276 C 0.30344 0.2646 0.26674 0.0
C277 C 0.27468 0.24691 0.2169 0.0
C278 C 0.27745 0.25193 0.1876 0.0
C279 C 0.31722 0.24939 0.17715 0.0
C280 C 0.31985 0.25479 0.14966 0.0
C281 C 0.28282 0.26242 0.13234 0.0
C282 C 0.24303 0.26454 0.14245 0.0
C283 C 0.24023 0.25922 0.16994 0.0
H284 H 0.28493 0.26662 0.11107 0.0
H285 H 0.27422 0.19465 0.37559 0.0
H286 H 0.92734 0.20693 0.27097 0.0
H287 H 0.87309 0.25081 0.25422 0.0
H288 H 0.7688 0.16326 0.281 0.0
H289 H 0.82285 0.1176 0.29596 0.0
H290 H 0.73403 0.18696 0.23684 0.0
H291 H 0.82669 0.26908 0.32099 0.0
H292 H 0.89711 0.30467 0.35271 0.0
H293 H 0.93026 0.39171 0.29481 0.0
H294 H 0.86028 0.35624 0.26257 0.0
H295 H 0.61166 0.36933 0.26884 0.0
H296 H 0.66148 0.31629 0.27604 0.0
H297 H 0.71706 0.34454 0.20353 0.0
H298 H 0.66639 0.39666 0.19562 0.0
H299 H 0.77451 0.35088 0.26942 0.0
H300 H 0.67645 0.26124 0.18482 0.0
H301 H 0.6017 0.22628 0.15814 0.0
H302 H 0.57435 0.15438 0.22435 0.0
H303 H 0.64875 0.18958 0.25161 0.0
C304 C 0.89264 0.19685 0.27284 0.0
C305 C 0.87902 0.15926 0.28478 0.0
C306 C 0.86172 0.22207 0.26351 0.0
C307 C 0.81697 0.21126 0.26708 0.0
C308 C 0.8031 0.17253 0.27812 0.0
C309 C 0.83388 0.14652 0.28672 0.0
C310 C 0.78524 0.24127 0.26036 0.0
C311 C 0.74301 0.22273 0.24414 0.0
C312 C 0.79648 0.28813 0.26985 0.0
C313 C 0.83847 0.30971 0.28926 0.0
C314 C 0.84914 0.29563 0.31495 0.0
C315 C 0.88895 0.3158 0.33303 0.0
C316 C 0.91819 0.35035 0.32575 0.0
C317 C 0.90761 0.3649 0.3004 0.0
C318 C 0.86786 0.3448 0.28223 0.0
C319 C 0.63432 0.36407 0.25434 0.0
C320 C 0.63523 0.38716 0.23169 0.0
C321 C 0.66255 0.33367 0.25842 0.0
C322 C 0.69252 0.3264 0.24017 0.0
C323 C 0.69372 0.34948 0.21762 0.0
C324 C 0.66484 0.3792 0.21317 0.0
C325 C 0.72428 0.29649 0.24567 0.0
C326 C 0.76615 0.31511 0.26195 0.0
C327 C 0.71235 0.2498 0.23682 0.0
C328 C 0.66785 0.2285 0.22039 0.0
C329 C 0.65428 0.23842 0.19382 0.0
C330 C 0.61204 0.21845 0.17856 0.0
C331 C 0.58322 0.18825 0.18959 0.0
C332 C 0.59666 0.17786 0.21586 0.0
C333 C 0.63885 0.19779 0.23121 0.0
H334 H 0.55053 0.17281 0.17774 0.0
H335 H 0.94901 0.36592 0.33976 0.0
H336 H 0.57285 0.65913 0.23419 0.0
H337 H 0.63453 0.7234 0.24478 0.0
H338 H 0.72901 0.63518 0.24939 0.0
H339 H 0.6676 0.5706 0.23907 0.0
H340 H 0.75575 0.71059 0.2891 0.0
H341 H 0.70304 0.67317 0.19033 0.0
H342 H 0.64631 0.65729 0.14758 0.0
H343 H 0.61732 0.78876 0.16574 0.0
H344 H 0.67346 0.80519 0.20887 0.0
H345 H 0.94712 0.85078 0.26725 0.0
H346 H 0.88281 0.78938 0.25803 0.0
H347 H 0.79407 0.8835 0.25743 0.0
H348 H 0.85828 0.94543 0.26662 0.0
H349 H 0.76323 0.80694 0.21646 0.0
H350 H 0.81846 0.84456 0.31498 0.0
H351 H 0.87641 0.8597 0.3571 0.0
H352 H 0.90177 0.7268 0.33873 0.0
H353 H 0.84442 0.71109 0.29622 0.0
C354 C 0.60668 0.65331 0.23798 0.0
C355 C 0.61524 0.6096 0.23543 0.0
C356 C 0.64191 0.69013 0.24389 0.0
C357 C 0.68629 0.68395 0.24729 0.0
C358 C 0.69497 0.64062 0.24665 0.0
C359 C 0.65977 0.60374 0.24071 0.0
C360 C 0.72358 0.72232 0.24971 0.0
C361 C 0.7576 0.7314 0.27312 0.0
C362 C 0.72559 0.74986 0.22901 0.0
C363 C 0.6921 0.74023 0.20297 0.0
C364 C 0.68433 0.69857 0.18532 0.0
C365 C 0.65231 0.68948 0.16101 0.0
C366 C 0.62813 0.72195 0.15399 0.0
C367 C 0.63602 0.76362 0.17124 0.0
C368 C 0.66795 0.77284 0.19561 0.0
C369 C 0.91397 0.85857 0.26472 0.0
C370 C 0.90792 0.90316 0.26805 0.0
C371 C 0.87726 0.82337 0.25956 0.0
C372 C 0.83381 0.83202 0.25762 0.0
C373 C 0.82741 0.87622 0.25906 0.0
C374 C 0.86417 0.91156 0.26433 0.0
C375 C 0.7954 0.79507 0.2558 0.0
C376 C 0.76122 0.78625 0.2325 0.0
C377 C 0.79333 0.76765 0.27654 0.0
C378 C 0.82743 0.77679 0.30228 0.0
C379 C 0.83662 0.81867 0.31981 0.0
C380 C 0.86932 0.82734 0.34377 0.0
C381 C 0.89283 0.79427 0.35055 0.0
C382 C 0.88357 0.7524 0.33343 0.0
C383 C 0.85094 0.74358 0.30941 0.0
H384 H 0.91815 0.80105 0.36911 0.0
H385 H 0.60336 0.71485 0.13516 0.0
H386 H 0.09947 0.86058 0.22095 0.0
H387 H 0.15133 0.81063 0.21231 0.0
H388 H 0.20238 0.83081 0.30047 0.0
H389 H 0.15098 0.88161 0.30929 0.0
H390 H 0.26936 0.83249 0.27108 0.0
H391 H 0.13121 0.73506 0.26891 0.0
H392 H 0.05047 0.70485 0.2551 0.0
H393 H 0.0668 0.67381 0.16975 0.0
H394 H 0.1476 0.70445 0.18299 0.0
H395 H 0.37647 0.64114 0.25425 0.0
H396 H 0.33018 0.69404 0.26918 0.0
H397 H 0.27705 0.69487 0.18328 0.0
H398 H 0.32419 0.64323 0.16817 0.0
H399 H 0.21166 0.68059 0.21591 0.0
H400 H 0.35106 0.78214 0.21946 0.0
H401 H 0.43176 0.81127 0.23484 0.0
H402 H 0.41262 0.83218 0.3201 0.0
H403 H 0.33184 0.80253 0.30524 0.0
C404 C 0.12169 0.85446 0.23854 0.0
C405 C 0.12084 0.87485 0.26583 0.0
C406 C 0.15125 0.82574 0.23356 0.0
C407 C 0.18029 0.81643 0.25578 0.0
C408 C 0.18017 0.83739 0.28302 0.0
C409 C 0.15065 0.86628 0.28802 0.0
C410 C 0.21048 0.78459 0.2504 0.0
C411 C 0.25669 0.79902 0.2594 0.0
C412 C 0.19401 0.74101 0.235 0.0
C413 C 0.14543 0.72242 0.22692 0.0
C414 C 0.11755 0.72211 0.24716 0.0
C415 C 0.07177 0.70486 0.23944 0.0
C416 C 0.0535 0.68751 0.21156 0.0
C417 C 0.081 0.6873 0.19134 0.0
C418 C 0.1268 0.70456 0.19894 0.0
C419 C 0.35608 0.65361 0.2385 0.0
C420 C 0.35495 0.6388 0.20996 0.0
C421 C 0.32923 0.68349 0.2471 0.0
C422 C 0.30045 0.69861 0.22732 0.0
C423 C 0.29908 0.68365 0.19888 0.0
C424 C 0.32607 0.65415 0.1903 0.0
C425 C 0.27049 0.72885 0.23603 0.0
C426 C 0.22426 0.71398 0.22773 0.0
C427 C 0.28696 0.77174 0.25232 0.0
C428 C 0.33549 0.78962 0.26126 0.0
C429 C 0.36412 0.79255 0.24151 0.0
C430 C 0.40986 0.80923 0.25013 0.0
C431 C 0.42733 0.82343 0.27844 0.0
C432 C 0.39905 0.82108 0.29818 0.0
C433 C 0.35329 0.80436 0.28967 0.0
H434 H 0.46275 0.83636 0.28507 0.0
H435 H 0.01805 0.67416 0.20562 0.0
H436 H 0.42871 0.72171 0.78531 0.0
H437 H 0.37749 0.76755 0.76755 0.0
H438 H 0.26682 0.65707 0.75852 0.0
H439 H 0.31875 0.61033 0.77506 0.0
H440 H 0.25315 0.70012 0.71736 0.0
H441 H 0.29205 0.74508 0.81582 0.0
H442 H 0.34205 0.76933 0.86129 0.0
H443 H 0.40079 0.88875 0.83419 0.0
H444 H 0.35155 0.86491 0.7884 0.0
H445 H 0.09466 0.84761 0.71482 0.0
H446 H 0.13998 0.79317 0.72755 0.0
H447 H 0.25977 0.88743 0.7261 0.0
H448 H 0.21489 0.94198 0.71339 0.0
H449 H 0.26362 0.84952 0.77383 0.0
H450 H 0.22185 0.80016 0.67393 0.0
H451 H 0.16794 0.7742 0.63008 0.0
H452 H 0.10863 0.66087 0.66288 0.0
H453 H 0.16183 0.6865 0.70708 0.0
C454 C 0.39349 0.70713 0.77924 0.0
C455 C 0.37754 0.66265 0.78158 0.0
C456 C 0.36417 0.73339 0.76927 0.0
C457 C 0.31803 0.71624 0.76241 0.0
C458 C 0.3022 0.67118 0.76381 0.0
C459 C 0.33181 0.64449 0.77322 0.0
C460 C 0.28656 0.74593 0.75465 0.0
C461 C 0.25505 0.7325 0.72994 0.0
C462 C 0.28892 0.78834 0.77097 0.0
C463 C 0.31833 0.80302 0.7986 0.0
C464 C 0.31581 0.77639 0.8195 0.0
C465 C 0.344 0.79007 0.84534 0.0
C466 C 0.37464 0.83051 0.85061 0.0
C467 C 0.37706 0.85742 0.83007 0.0
C468 C 0.34898 0.84386 0.80418 0.0
C469 C 0.13065 0.85668 0.71706 0.0
C470 C 0.15118 0.89918 0.7131 0.0
C471 C 0.15646 0.82545 0.72424 0.0
C472 C 0.20322 0.83619 0.72761 0.0
C473 C 0.22373 0.87848 0.72357 0.0
C474 C 0.19799 0.90958 0.71625 0.0
C475 C 0.23111 0.80411 0.7363 0.0
C476 C 0.26174 0.81705 0.76133 0.0
C477 C 0.22726 0.76105 0.72056 0.0
C478 C 0.19553 0.74549 0.69391 0.0
C479 C 0.19709 0.76989 0.67187 0.0
C480 C 0.16671 0.7552 0.64693 0.0
C481 C 0.1348 0.71598 0.64372 0.0
C482 C 0.13331 0.69128 0.66541 0.0
C483 C 0.1636 0.70585 0.69039 0.0
H484 H 0.1113 0.70466 0.6244 0.0
H485 H 0.39645 0.84104 0.87062 0.0
H486 H 0.16127 0.07018 0.73302 0.0
H487 H 0.22223 0.1349 0.74341 0.0
H488 H 0.12715 0.22274 0.74226 0.0
H489 H 0.06573 0.15805 0.73132 0.0
H490 H 0.18813 0.24573 0.71104 0.0
H491 H 0.19166 0.21312 0.8035 0.0
H492 H 0.19425 0.16625 0.84014 0.0
H493 H 0.32068 0.13882 0.82345 0.0
H494 H 0.31857 0.18506 0.78644 0.0
H495 H 0.35201 0.44518 0.76644 0.0
H496 H 0.28794 0.38312 0.75633 0.0
H497 H 0.37683 0.28913 0.75398 0.0
H498 H 0.44103 0.35074 0.76426 0.0
H499 H 0.31741 0.27123 0.78803 0.0
H500 H 0.31294 0.30206 0.69487 0.0
H501 H 0.31047 0.34868 0.6581 0.0
H502 H 0.18592 0.37949 0.67623 0.0
H503 H 0.18795 0.33351 0.7134 0.0
C504 C 0.15319 0.10322 0.73541 0.0
C505 C 0.10851 0.10884 0.73122 0.0
C506 C 0.18818 0.14027 0.74143 0.0
C507 C 0.17928 0.18372 0.74371 0.0
C508 C 0.13477 0.18951 0.7405 0.0
C509 C 0.09971 0.15245 0.73439 0.0
C510 C 0.21641 0.22287 0.74783 0.0
C511 C 0.21604 0.25177 0.72817 0.0
C512 C 0.25337 0.23008 0.76974 0.0
C513 C 0.25476 0.20226 0.79202 0.0
C514 C 0.21985 0.19682 0.80748 0.0
C515 C 0.22126 0.17041 0.82835 0.0
C516 C 0.25755 0.14949 0.83408 0.0
C517 C 0.29256 0.15502 0.81898 0.0
C518 C 0.2913 0.18136 0.79807 0.0
C519 C 0.35796 0.41132 0.76329 0.0
C520 C 0.40174 0.40301 0.76638 0.0
C521 C 0.32125 0.37587 0.75749 0.0
C522 C 0.32764 0.3315 0.7545 0.0
C523 C 0.37118 0.32312 0.75639 0.0
C524 C 0.40785 0.35846 0.76215 0.0
C525 C 0.28924 0.29386 0.75115 0.0
C526 C 0.28939 0.26528 0.77098 0.0
C527 C 0.2521 0.28698 0.72942 0.0
C528 C 0.25086 0.31473 0.70713 0.0
C529 C 0.28523 0.31911 0.6912 0.0
C530 C 0.28386 0.34535 0.67024 0.0
C531 C 0.24813 0.36715 0.66489 0.0
C532 C 0.21362 0.36265 0.68043 0.0
C533 C 0.21485 0.33648 0.70143 0.0
H534 H 0.24712 0.38743 0.64864 0.0
H535 H 0.25859 0.12907 0.85024 0.0
H536 H 0.86629 0.13558 0.75212 0.0
H537 H 0.82339 0.19023 0.769 0.0
H538 H 0.79018 0.2166 0.68547 0.0
H539 H 0.83508 0.16392 0.66874 0.0
H540 H 0.80749 0.2921 0.72098 0.0
H541 H 0.71786 0.1453 0.7153 0.0
H542 H 0.70205 0.069 0.72603 0.0
H543 H 0.71888 0.12243 0.8132 0.0
H544 H 0.73537 0.19908 0.80301 0.0
H545 H 0.60587 0.37169 0.72134 0.0
H546 H 0.66199 0.32612 0.71367 0.0
H547 H 0.69377 0.32773 0.80213 0.0
H548 H 0.63771 0.37365 0.81007 0.0
H549 H 0.68299 0.24255 0.76996 0.0
H550 H 0.76387 0.39055 0.77386 0.0
H551 H 0.77711 0.46607 0.76176 0.0
H552 H 0.77453 0.40968 0.67644 0.0
H553 H 0.76048 0.33375 0.68792 0.0
C554 C 0.85115 0.15393 0.73746 0.0
C555 C 0.85496 0.1459 0.70912 0.0
C556 C 0.82589 0.18471 0.74709 0.0
C557 C 0.80317 0.2073 0.72847 0.0
C558 C 0.80746 0.19973 0.70027 0.0
C559 C 0.83293 0.16933 0.69071 0.0
C560 C 0.77366 0.23773 0.73789 0.0
C561 C 0.7801 0.28113 0.73152 0.0
C562 C 0.73854 0.22389 0.75229 0.0
C563 C 0.72835 0.17787 0.75842 0.0
C564 C 0.7185 0.14075 0.73677 0.0
C565 C 0.70937 0.09745 0.74275 0.0
C566 C 0.70961 0.09086 0.77029 0.0
C567 C 0.71881 0.12758 0.79189 0.0
C568 C 0.72803 0.17095 0.78602 0.0
C569 C 0.62472 0.36235 0.73919 0.0
C570 C 0.61736 0.37631 0.76632 0.0
C571 C 0.65693 0.33648 0.73477 0.0
C572 C 0.68227 0.32392 0.75736 0.0
C573 C 0.67462 0.33722 0.78445 0.0
C574 C 0.64267 0.3635 0.78892 0.0
C575 C 0.71632 0.29639 0.75246 0.0
C576 C 0.71073 0.25364 0.75972 0.0
C577 C 0.75199 0.3107 0.73868 0.0
C578 C 0.76075 0.35639 0.73173 0.0
C579 C 0.76575 0.39421 0.75247 0.0
C580 C 0.77346 0.43711 0.74573 0.0
C581 C 0.77658 0.44266 0.71834 0.0
C582 C 0.77207 0.40532 0.69764 0.0
C583 C 0.76427 0.36234 0.70426 0.0
H584 H 0.78261 0.47588 0.71315 0.0
H585 H 0.70255 0.05732 0.77488 0.0
H586 H 0.60225 0.60435 0.72237 0.0
H587 H 0.66214 0.66309 0.7152 0.0
H588 H 0.71888 0.68358 0.8026 0.0
H589 H 0.65913 0.62471 0.80962 0.0
H590 H 0.71294 0.7627 0.78345 0.0
H591 H 0.768 0.62991 0.75808 0.0
H592 H 0.76529 0.55383 0.73344 0.0
H593 H 0.74906 0.59976 0.65485 0.0
H594 H 0.75086 0.67608 0.67903 0.0
H595 H 0.92567 0.89105 0.77472 0.0
H596 H 0.86798 0.83067 0.78257 0.0
H597 H 0.80216 0.8163 0.69732 0.0
H598 H 0.85933 0.87714 0.68968 0.0
H599 H 0.81414 0.73366 0.71605 0.0
H600 H 0.75788 0.86709 0.7428 0.0
H601 H 0.76196 0.94275 0.76862 0.0
H602 H 0.78289 0.89443 0.84622 0.0
H603 H 0.77967 0.81856 0.82085 0.0
C604 C 0.62776 0.62139 0.73989 0.0
C605 C 0.62673 0.61022 0.76643 0.0
C606 C 0.66184 0.65475 0.73584 0.0
C607 C 0.69505 0.67743 0.75836 0.0
C608 C 0.69359 0.66644 0.78498 0.0
C609 C 0.65975 0.63287 0.78895 0.0
C610 C 0.73112 0.71288 0.75419 0.0
C611 C 0.73545 0.75624 0.769 0.0
C612 C 0.76001 0.70445 0.73502 0.0
C613 C 0.75907 0.65865 0.72036 0.0
C614 C 0.76342 0.62373 0.73553 0.0
C615 C 0.76213 0.58056 0.72165 0.0
C616 C 0.7569 0.57193 0.69259 0.0
C617 C 0.75304 0.60649 0.67736 0.0
C618 C 0.75421 0.64972 0.69115 0.0
C619 C 0.8987 0.87495 0.75781 0.0
C620 C 0.89635 0.88856 0.73173 0.0
C621 C 0.86594 0.84063 0.76224 0.0
C622 C 0.83087 0.81922 0.74051 0.0
C623 C 0.82901 0.83243 0.7143 0.0
C624 C 0.86137 0.86716 0.71 0.0
C625 C 0.79571 0.78341 0.7452 0.0
C626 C 0.79161 0.74002 0.73051 0.0
C627 C 0.76725 0.7917 0.76463 0.0
C628 C 0.76905 0.83725 0.77993 0.0
C629 C 0.7638 0.87268 0.76538 0.0
C630 C 0.76587 0.91559 0.77993 0.0
C631 C 0.77281 0.92342 0.80904 0.0
C632 C 0.77759 0.88833 0.82367 0.0
C633 C 0.77563 0.84536 0.80921 0.0
H634 H 0.77437 0.95666 0.82027 0.0
H635 H 0.75593 0.53848 0.68188 0.0
loop_
_geom_bond_atom_site_label_1
_geom_bond_atom_site_label_2
_geom_bond_distance
_geom_bond_site_symmetry_2
_ccdc_geom_bond_type
Co0 O3 1.970 1_455 S
Co0 N17 1.989 1_565 S
Co0 O25 1.967 . S
Co0 O32 1.920 . S
Co1 O4 1.966 1_545 S
Co1 N10 2.022 . S
Co1 N18 1.993 1_655 S
Co1 O26 1.941 . S
C2 O3 1.258 . S
C2 O4 1.263 . S
O3 Co0 1.970 1_655 S
O3 C2 1.258 . S
O4 Co1 1.966 1_565 S
O4 C2 1.263 . S
C5 O6 1.235 . S
C5 O32 1.289 . S
O6 C5 1.235 . S
C7 C9 1.400 . S
C7 N10 1.351 . S
C7 C12 1.501 . S
C8 C9 1.387 . S
C8 N11 1.341 . S
C9 C7 1.400 . S
C9 C8 1.387 . S
N10 Co1 2.022 . S
N10 C7 1.351 . S
N10 N11 1.365 . S
N11 C8 1.341 . S
N11 N10 1.365 . S
N11 H31 0.862 . S
C12 C7 1.501 . S
C12 H13 0.961 . S
C12 H14 0.961 . S
C12 H15 0.960 . S
H13 C12 0.961 . S
H14 C12 0.961 . S
H15 C12 0.960 . S
C16 N17 1.342 . S
C16 C20 1.401 . S
C16 C21 1.499 . S
N17 Co0 1.989 1_545 S
N17 C16 1.342 . S
N17 N18 1.388 . S
N18 Co1 1.993 1_455 S
N18 N17 1.388 . S
N18 C19 1.346 . S
C19 N18 1.346 . S
C19 C20 1.396 . S
C19 C29 1.510 . S
C20 C16 1.401 . S
C20 C19 1.396 . S
C21 C16 1.499 . S
C21 H22 0.959 1_545 S
C21 H23 0.960 . S
C21 H24 0.961 . S
H22 C21 0.959 1_565 S
H23 C21 0.960 . S
H24 C21 0.961 . S
O25 Co0 1.967 . S
O25 C33 1.258 1_565 S
O26 Co1 1.941 . S
O26 C33 1.266 1_655 S
H27 C29 0.959 . S
H28 C29 0.961 . S
C29 C19 1.510 . S
C29 H27 0.959 . S
C29 H28 0.961 . S
C29 H30 0.960 1_455 S
H30 C29 0.960 1_655 S
H31 N11 0.862 . S
O32 Co0 1.920 . S
O32 C5 1.289 . S
C33 O25 1.258 1_545 S
C33 O26 1.266 1_455 S
Co34 O37 1.970 1_565 S
Co34 N51 1.989 1_455 S
Co34 O59 1.967 . S
Co34 O66 1.920 . S
Co35 O38 1.966 1_655 S
Co35 N44 2.022 . S
Co35 N52 1.993 1_545 S
Co35 O60 1.941 . S
C36 O37 1.258 . S
C36 O38 1.263 . S
O37 Co34 1.970 1_545 S
O37 C36 1.258 . S
O38 Co35 1.966 1_455 S
O38 C36 1.263 . S
C39 O40 1.235 . S
C39 O66 1.289 . S
O40 C39 1.235 . S
C41 C43 1.400 . S
C41 N44 1.351 . S
C41 C46 1.501 . S
C42 C43 1.387 . S
C42 N45 1.341 . S
C43 C41 1.400 . S
C43 C42 1.387 . S
N44 Co35 2.022 . S
N44 C41 1.351 . S
N44 N45 1.365 . S
N45 C42 1.341 . S
N45 N44 1.365 . S
N45 H65 0.862 . S
C46 C41 1.501 . S
C46 H47 0.961 . S
C46 H48 0.961 . S
C46 H49 0.960 . S
H47 C46 0.961 . S
H48 C46 0.961 . S
H49 C46 0.960 . S
C50 N51 1.342 . S
C50 C54 1.401 . S
C50 C55 1.499 . S
N51 Co34 1.989 1_655 S
N51 C50 1.342 . S
N51 N52 1.388 . S
N52 Co35 1.993 1_565 S
N52 N51 1.388 . S
N52 C53 1.346 . S
C53 N52 1.346 . S
C53 C54 1.396 . S
C53 C63 1.510 . S
C54 C50 1.401 . S
C54 C53 1.396 . S
C55 C50 1.499 . S
C55 H56 0.959 1_655 S
C55 H57 0.960 . S
C55 H58 0.961 . S
H56 C55 0.959 1_455 S
H57 C55 0.960 . S
H58 C55 0.961 . S
O59 Co34 1.967 . S
O59 C67 1.258 . S
O60 Co35 1.941 . S
O60 C67 1.266 1_645 S
H61 C63 0.959 . S
H62 C63 0.961 . S
C63 C53 1.510 . S
C63 H61 0.959 . S
C63 H62 0.961 . S
C63 H64 0.960 1_565 S
H64 C63 0.960 1_545 S
H65 N45 0.862 . S
O66 Co34 1.920 . S
O66 C39 1.289 . S
C67 O59 1.258 . S
C67 O60 1.266 1_465 S
Co68 O71 1.970 . S
Co68 N85 1.989 . S
Co68 O93 1.967 . S
Co68 O100 1.920 . S
Co69 O72 1.966 . S
Co69 N78 2.022 . S
Co69 N86 1.993 . S
Co69 O94 1.941 . S
C70 O71 1.258 . S
C70 O72 1.263 . S
O71 Co68 1.970 . S
O71 C70 1.258 . S
O72 Co69 1.966 . S
O72 C70 1.263 . S
C73 O74 1.235 . S
C73 O100 1.289 . S
O74 C73 1.235 . S
C75 C77 1.400 . S
C75 N78 1.351 . S
C75 C80 1.501 . S
C76 C77 1.387 . S
C76 N79 1.341 . S
C77 C75 1.400 . S
C77 C76 1.387 . S
N78 Co69 2.022 . S
N78 C75 1.351 . S
N78 N79 1.365 . S
N79 C76 1.341 . S
N79 N78 1.365 . S
N79 H99 0.862 . S
C80 C75 1.501 . S
C80 H81 0.961 . S
C80 H82 0.961 . S
C80 H83 0.960 . S
H81 C80 0.961 . S
H82 C80 0.961 . S
H83 C80 0.960 . S
C84 N85 1.342 . S
C84 C88 1.401 . S
C84 C89 1.499 . S
N85 Co68 1.989 . S
N85 C84 1.342 . S
N85 N86 1.388 . S
N86 Co69 1.993 . S
N86 N85 1.388 . S
N86 C87 1.346 . S
C87 N86 1.346 . S
C87 C88 1.396 . S
C87 C97 1.510 . S
C88 C84 1.401 . S
C88 C87 1.396 . S
C89 C84 1.499 . S
C89 H90 0.959 . S
C89 H91 0.960 . S
C89 H92 0.961 . S
H90 C89 0.959 . S
H91 C89 0.960 . S
H92 C89 0.961 . S
O93 Co68 1.967 . S
O93 C101 1.258 . S
O94 Co69 1.941 . S
O94 C101 1.266 . S
H95 C97 0.959 . S
H96 C97 0.961 . S
C97 C87 1.510 . S
C97 H95 0.959 . S
C97 H96 0.961 . S
C97 H98 0.960 . S
H98 C97 0.960 . S
H99 N79 0.862 . S
O100 Co68 1.920 . S
O100 C73 1.289 . S
C101 O93 1.258 . S
C101 O94 1.266 . S
Co102 O105 1.970 . S
Co102 N119 1.989 . S
Co102 O127 1.967 . S
Co102 O134 1.920 . S
Co103 O106 1.966 . S
Co103 N112 2.022 . S
Co103 N120 1.993 . S
Co103 O128 1.941 . S
C104 O105 1.258 . S
C104 O106 1.263 . S
O105 Co102 1.970 . S
O105 C104 1.258 . S
O106 Co103 1.966 . S
O106 C104 1.263 . S
C107 O108 1.235 . S
C107 O134 1.289 . S
O108 C107 1.235 . S
C109 C111 1.400 . S
C109 N112 1.351 . S
C109 C114 1.501 . S
C110 C111 1.387 . S
C110 N113 1.341 . S
C111 C109 1.400 . S
C111 C110 1.387 . S
N112 Co103 2.022 . S
N112 C109 1.351 . S
N112 N113 1.365 . S
N113 C110 1.341 . S
N113 N112 1.365 . S
N113 H133 0.862 . S
C114 C109 1.501 . S
C114 H115 0.961 . S
C114 H116 0.961 . S
C114 H117 0.960 . S
H115 C114 0.961 . S
H116 C114 0.961 . S
H117 C114 0.960 . S
C118 N119 1.342 . S
C118 C122 1.401 . S
C118 C123 1.499 . S
N119 Co102 1.989 . S
N119 C118 1.342 . S
N119 N120 1.388 . S
N120 Co103 1.993 . S
N120 N119 1.388 . S
N120 C121 1.346 . S
C121 N120 1.346 . S
C121 C122 1.396 . S
C121 C131 1.510 . S
C122 C118 1.401 . S
C122 C121 1.396 . S
C123 C118 1.499 . S
C123 H124 0.959 . S
C123 H125 0.960 . S
C123 H126 0.961 . S
H124 C123 0.959 . S
H125 C123 0.960 . S
H126 C123 0.961 . S
O127 Co102 1.967 . S
O127 C135 1.258 . S
O128 Co103 1.941 . S
O128 C135 1.266 . S
H129 C131 0.959 . S
H130 C131 0.961 . S
C131 C121 1.510 . S
C131 H129 0.959 . S
C131 H130 0.961 . S
C131 H132 0.960 . S
H132 C131 0.960 . S
H133 N113 0.862 . S
O134 Co102 1.920 . S
O134 C107 1.289 . S
C135 O127 1.258 . S
C135 O128 1.266 . S
H136 C154 0.951 . S
H137 C156 0.951 . S
H138 C158 0.950 . S
H139 C159 0.950 . S
H140 C161 0.948 . S
H141 C164 0.950 . S
H142 C165 0.950 . S
H143 C167 0.950 . S
H144 C168 0.950 1_655 S
H145 C169 0.951 . S
H146 C171 0.951 . S
H147 C173 0.950 . S
H148 C174 0.950 . S
H149 C176 0.950 . S
H150 C179 0.950 . S
H151 C180 0.950 . S
H152 C182 0.950 1_455 S
H153 C183 0.950 . S
C154 H136 0.951 . S
C154 C155 1.366 1_655 S
C154 C156 1.388 . S
C155 C154 1.366 1_455 S
C155 C159 1.385 1_545 S
C156 H137 0.951 . S
C156 C154 1.388 . S
C156 C157 1.366 1_655 S
C157 C156 1.366 1_455 S
C157 C158 1.414 1_545 S
C157 C160 1.499 1_545 S
C158 H138 0.950 . S
C158 C157 1.414 1_565 S
C158 C159 1.374 . S
C159 H139 0.950 . S
C159 C155 1.385 1_565 S
C159 C158 1.374 . S
C160 C157 1.499 1_565 S
C160 C161 1.373 . S
C160 C162 1.390 1_565 S
C161 H140 0.948 . S
C161 C160 1.373 . S
C161 C177 1.377 . S
C162 C160 1.390 1_545 S
C162 C163 1.524 . S
C162 C176 1.377 . S
C163 C162 1.524 . S
C163 C164 1.397 . S
C163 C168 1.363 . S
C164 H141 0.950 . S
C164 C163 1.397 . S
C164 C165 1.334 . S
C165 H142 0.950 . S
C165 C164 1.334 . S
C165 C166 1.287 . S
C166 C165 1.287 . S
C166 C167 1.524 . S
C166 H185 0.913 . S
C167 H143 0.950 . S
C167 C166 1.524 . S
C167 C168 1.415 . S
C168 H144 0.950 1_455 S
C168 C163 1.363 . S
C168 C167 1.415 . S
C169 H145 0.951 . S
C169 C170 1.366 . S
C169 C171 1.388 . S
C170 C169 1.366 . S
C170 C174 1.385 1_465 S
C171 H146 0.951 . S
C171 C169 1.388 . S
C171 C172 1.366 . S
C172 C171 1.366 . S
C172 C173 1.414 1_465 S
C172 C175 1.499 . S
C173 H147 0.950 . S
C173 C172 1.414 1_645 S
C173 C174 1.374 . S
C174 H148 0.950 . S
C174 C170 1.385 1_645 S
C174 C173 1.374 . S
C175 C172 1.499 . S
C175 C176 1.373 1_565 S
C175 C177 1.389 . S
C176 H149 0.950 . S
C176 C162 1.377 . S
C176 C175 1.373 1_545 S
C177 C161 1.377 . S
C177 C175 1.389 . S
C177 C178 1.524 1_455 S
C178 C177 1.524 1_655 S
C178 C179 1.397 . S
C178 C183 1.363 1_655 S
C179 H150 0.950 . S
C179 C178 1.397 . S
C179 C180 1.334 . S
C180 H151 0.950 . S
C180 C179 1.334 . S
C180 C181 1.287 . S
C181 C180 1.287 . S
C181 C182 1.524 . S
C181 H184 0.999 . S
C182 H152 0.950 1_655 S
C182 C181 1.524 . S
C182 C183 1.415 1_655 S
C183 H153 0.950 . S
C183 C178 1.363 1_455 S
C183 C182 1.415 1_455 S
H184 C181 0.999 . S
H185 C166 0.913 . S
H186 C204 0.951 . S
H187 C206 0.951 . S
H188 C208 0.950 . S
H189 C209 0.950 . S
H190 C211 0.950 . S
H191 C214 0.950 . S
H192 C215 0.950 . S
H193 C217 0.950 . S
H194 C218 0.950 1_556 S
H195 C219 0.951 . S
H196 C221 0.951 . S
H197 C223 0.950 . S
H198 C224 0.950 . S
H199 C226 0.950 . S
H200 C229 0.950 . S
H201 C230 0.950 . S
H202 C232 0.950 . S
H203 C233 0.950 1_554 S
C204 H186 0.951 . S
C204 C205 1.366 . S
C204 C206 1.388 . S
C205 C204 1.366 . S
C205 C209 1.385 . S
C206 H187 0.951 . S
C206 C204 1.388 . S
C206 C207 1.366 . S
C207 C206 1.366 . S
C207 C208 1.414 . S
C207 C210 1.499 . S
C208 H188 0.950 . S
C208 C207 1.414 . S
C208 C209 1.374 . S
C209 H189 0.950 . S
C209 C205 1.385 . S
C209 C208 1.374 . S
C210 C207 1.499 . S
C210 C211 1.373 . S
C210 C212 1.389 . S
C211 H190 0.950 . S
C211 C210 1.373 . S
C211 C227 1.377 1_554 S
C212 C210 1.389 . S
C212 C213 1.524 . S
C212 C226 1.377 1_554 S
C213 C212 1.524 . S
C213 C214 1.397 . S
C213 C218 1.363 . S
C214 H191 0.950 . S
C214 C213 1.397 . S
C214 C215 1.334 . S
C215 H192 0.950 . S
C215 C214 1.334 . S
C215 C216 1.287 . S
C216 C215 1.287 . S
C216 C217 1.524 . S
C216 H235 0.913 . S
C217 H193 0.950 . S
C217 C216 1.524 . S
C217 C218 1.415 . S
C218 H194 0.950 1_554 S
C218 C213 1.363 . S
C218 C217 1.415 . S
C219 H195 0.951 . S
C219 C220 1.366 . S
C219 C221 1.388 . S
C220 C219 1.366 . S
C220 C224 1.385 . S
C221 H196 0.951 . S
C221 C219 1.388 . S
C221 C222 1.366 . S
C222 C221 1.366 . S
C222 C223 1.414 . S
C222 C225 1.499 . S
C223 H197 0.950 . S
C223 C222 1.414 . S
C223 C224 1.374 . S
C224 H198 0.950 . S
C224 C220 1.385 . S
C224 C223 1.374 . S
C225 C222 1.499 . S
C225 C226 1.373 . S
C225 C227 1.389 . S
C226 H199 0.950 . S
C226 C212 1.377 1_556 S
C226 C225 1.373 . S
C227 C211 1.377 1_556 S
C227 C225 1.389 . S
C227 C228 1.524 . S
C228 C227 1.524 . S
C228 C229 1.397 . S
C228 C233 1.363 . S
C229 H200 0.950 . S
C229 C228 1.397 . S
C229 C230 1.334 . S
C230 H201 0.950 . S
C230 C229 1.334 . S
C230 C231 1.287 . S
C231 C230 1.287 . S
C231 C232 1.524 . S
C231 H234 0.999 . S
C232 H202 0.950 . S
C232 C231 1.524 . S
C232 C233 1.415 . S
C233 H203 0.950 1_556 S
C233 C228 1.363 . S
C233 C232 1.415 . S
H234 C231 0.999 . S
H235 C216 0.913 . S
H236 C254 0.951 . S
H237 C256 0.951 . S
H238 C258 0.950 . S
H239 C259 0.950 . S
H240 C261 0.950 . S
H241 C264 0.950 . S
H242 C265 0.950 . S
H243 C267 0.950 . S
H244 C268 0.950 . S
H245 C269 0.951 . S
H246 C271 0.951 . S
H247 C273 0.950 . S
H248 C274 0.950 . S
H249 C276 0.950 . S
H250 C279 0.950 . S
H251 C280 0.950 . S
H252 C282 0.950 . S
H253 C283 0.950 . S
C254 H236 0.951 . S
C254 C255 1.366 . S
C254 C256 1.388 . S
C255 C254 1.366 . S
C255 C259 1.385 . S
C256 H237 0.951 . S
C256 C254 1.388 . S
C256 C257 1.366 . S
C257 C256 1.366 . S
C257 C258 1.414 . S
C257 C260 1.499 . S
C258 H238 0.950 . S
C258 C257 1.414 . S
C258 C259 1.374 . S
C259 H239 0.950 . S
C259 C255 1.385 . S
C259 C258 1.374 . S
C260 C257 1.499 . S
C260 C261 1.373 . S
C260 C262 1.389 . S
C261 H240 0.950 . S
C261 C260 1.373 . S
C261 C277 1.377 . S
C262 C260 1.389 . S
C262 C263 1.524 . S
C262 C276 1.377 . S
C263 C262 1.524 . S
C263 C264 1.397 . S
C263 C268 1.363 . S
C264 H241 0.950 . S
C264 C263 1.397 . S
C264 C265 1.334 . S
C265 H242 0.950 . S
C265 C264 1.334 . S
C265 C266 1.287 . S
C266 C265 1.287 . S
C266 C267 1.524 . S
C266 H285 0.913 . S
C267 H243 0.950 . S
C267 C266 1.524 . S
C267 C268 1.415 . S
C268 H244 0.950 . S
C268 C263 1.363 . S
C268 C267 1.415 . S
C269 H245 0.951 . S
C269 C270 1.366 . S
C269 C271 1.388 . S
C270 C269 1.366 . S
C270 C274 1.385 . S
C271 H246 0.951 . S
C271 C269 1.388 . S
C271 C272 1.366 . S
C272 C271 1.366 . S
C272 C273 1.414 . S
C272 C275 1.499 . S
C273 H247 0.950 . S
C273 C272 1.414 . S
C273 C274 1.374 . S
C274 H248 0.950 . S
C274 C270 1.385 . S
C274 C273 1.374 . S
C275 C272 1.499 . S
C275 C276 1.373 . S
C275 C277 1.389 . S
C276 H249 0.950 . S
C276 C262 1.377 . S
C276 C275 1.373 . S
C277 C261 1.377 . S
C277 C275 1.389 . S
C277 C278 1.524 . S
C278 C277 1.524 . S
C278 C279 1.397 . S
C278 C283 1.363 . S
C279 H250 0.950 . S
C279 C278 1.397 . S
C279 C280 1.334 . S
C280 H251 0.950 . S
C280 C279 1.334 . S
C280 C281 1.287 . S
C281 C280 1.287 . S
C281 C282 1.524 . S
C281 H284 0.999 . S
C282 H252 0.950 . S
C282 C281 1.524 . S
C282 C283 1.415 . S
C283 H253 0.950 . S
C283 C278 1.363 . S
C283 C282 1.415 . S
H284 C281 0.999 . S
H285 C266 0.913 . S
H286 C304 0.951 . S
H287 C306 0.951 . S
H288 C308 0.950 . S
H289 C309 0.950 . S
H290 C311 0.950 . S
H291 C314 0.950 . S
H292 C315 0.950 . S
H293 C317 0.950 . S
H294 C318 0.950 . S
H295 C319 0.951 . S
H296 C321 0.951 . S
H297 C323 0.950 . S
H298 C324 0.950 . S
H299 C326 0.950 . S
H300 C329 0.950 . S
H301 C330 0.950 . S
H302 C332 0.950 . S
H303 C333 0.950 . S
C304 H286 0.951 . S
C304 C305 1.366 . S
C304 C306 1.388 . S
C305 C304 1.366 . S
C305 C309 1.385 . S
C306 H287 0.951 . S
C306 C304 1.388 . S
C306 C307 1.366 . S
C307 C306 1.366 . S
C307 C308 1.414 . S
C307 C310 1.499 . S
C308 H288 0.950 . S
C308 C307 1.414 . S
C308 C309 1.374 . S
C309 H289 0.950 . S
C309 C305 1.385 . S
C309 C308 1.374 . S
C310 C307 1.499 . S
C310 C311 1.373 . S
C310 C312 1.389 . S
C311 H290 0.950 . S
C311 C310 1.373 . S
C311 C327 1.377 . S
C312 C310 1.389 . S
C312 C313 1.524 . S
C312 C326 1.377 . S
C313 C312 1.524 . S
C313 C314 1.397 . S
C313 C318 1.363 . S
C314 H291 0.950 . S
C314 C313 1.397 . S
C314 C315 1.334 . S
C315 H292 0.950 . S
C315 C314 1.334 . S
C315 C316 1.287 . S
C316 C315 1.287 . S
C316 C317 1.524 . S
C316 H335 0.913 . S
C317 H293 0.950 . S
C317 C316 1.524 . S
C317 C318 1.415 . S
C318 H294 0.950 . S
C318 C313 1.363 . S
C318 C317 1.415 . S
C319 H295 0.951 . S
C319 C320 1.366 . S
C319 C321 1.388 . S
C320 C319 1.366 . S
C320 C324 1.385 . S
C321 H296 0.951 . S
C321 C319 1.388 . S
C321 C322 1.366 . S
C322 C321 1.366 . S
C322 C323 1.414 . S
C322 C325 1.499 . S
C323 H297 0.950 . S
C323 C322 1.414 . S
C323 C324 1.374 . S
C324 H298 0.950 . S
C324 C320 1.385 . S
C324 C323 1.374 . S
C325 C322 1.499 . S
C325 C326 1.373 . S
C325 C327 1.389 . S
C326 H299 0.950 . S
C326 C312 1.377 . S
C326 C325 1.373 . S
C327 C311 1.377 . S
C327 C325 1.389 . S
C327 C328 1.524 . S
C328 C327 1.524 . S
C328 C329 1.397 . S
C328 C333 1.363 . S
C329 H300 0.950 . S
C329 C328 1.397 . S
C329 C330 1.334 . S
C330 H301 0.950 . S
C330 C329 1.334 . S
C330 C331 1.287 . S
C331 C330 1.287 . S
C331 C332 1.524 . S
C331 H334 0.999 . S
C332 H302 0.950 . S
C332 C331 1.524 . S
C332 C333 1.415 . S
C333 H303 0.950 . S
C333 C328 1.363 . S
C333 C332 1.415 . S
H334 C331 0.999 . S
H335 C316 0.913 . S
H336 C354 0.951 . S
H337 C356 0.951 . S
H338 C358 0.950 . S
H339 C359 0.950 . S
H340 C361 0.950 . S
H341 C364 0.950 . S
H342 C365 0.950 . S
H343 C367 0.950 . S
H344 C368 0.950 . S
H345 C369 0.951 . S
H346 C371 0.951 . S
H347 C373 0.950 . S
H348 C374 0.950 . S
H349 C376 0.950 . S
H350 C379 0.950 . S
H351 C380 0.950 . S
H352 C382 0.950 . S
H353 C383 0.950 . S
C354 H336 0.951 . S
C354 C355 1.366 . S
C354 C356 1.388 . S
C355 C354 1.366 . S
C355 C359 1.385 . S
C356 H337 0.951 . S
C356 C354 1.388 . S
C356 C357 1.366 . S
C357 C356 1.366 . S
C357 C358 1.414 . S
C357 C360 1.499 . S
C358 H338 0.950 . S
C358 C357 1.414 . S
C358 C359 1.374 . S
C359 H339 0.950 . S
C359 C355 1.385 . S
C359 C358 1.374 . S
C360 C357 1.499 . S
C360 C361 1.373 . S
C360 C362 1.389 . S
C361 H340 0.950 . S
C361 C360 1.373 . S
C361 C377 1.377 . S
C362 C360 1.389 . S
C362 C363 1.524 . S
C362 C376 1.377 . S
C363 C362 1.524 . S
C363 C364 1.397 . S
C363 C368 1.363 . S
C364 H341 0.950 . S
C364 C363 1.397 . S
C364 C365 1.334 . S
C365 H342 0.950 . S
C365 C364 1.334 . S
C365 C366 1.287 . S
C366 C365 1.287 . S
C366 C367 1.524 . S
C366 H385 0.913 . S
C367 H343 0.950 . S
C367 C366 1.524 . S
C367 C368 1.415 . S
C368 H344 0.950 . S
C368 C363 1.363 . S
C368 C367 1.415 . S
C369 H345 0.951 . S
C369 C370 1.366 . S
C369 C371 1.388 . S
C370 C369 1.366 . S
C370 C374 1.385 . S
C371 H346 0.951 . S
C371 C369 1.388 . S
C371 C372 1.366 . S
C372 C371 1.366 . S
C372 C373 1.414 . S
C372 C375 1.499 . S
C373 H347 0.950 . S
C373 C372 1.414 . S
C373 C374 1.374 . S
C374 H348 0.950 . S
C374 C370 1.385 . S
C374 C373 1.374 . S
C375 C372 1.499 . S
C375 C376 1.373 . S
C375 C377 1.389 . S
C376 H349 0.950 . S
C376 C362 1.377 . S
C376 C375 1.373 . S
C377 C361 1.377 . S
C377 C375 1.389 . S
C377 C378 1.524 . S
C378 C377 1.524 . S
C378 C379 1.397 . S
C378 C383 1.363 . S
C379 H350 0.950 . S
C379 C378 1.397 . S
C379 C380 1.334 . S
C380 H351 0.950 . S
C380 C379 1.334 . S
C380 C381 1.287 . S
C381 C380 1.287 . S
C381 C382 1.524 . S
C381 H384 0.999 . S
C382 H352 0.950 . S
C382 C381 1.524 . S
C382 C383 1.415 . S
C383 H353 0.950 . S
C383 C378 1.363 . S
C383 C382 1.415 . S
H384 C381 0.999 . S
H385 C366 0.913 . S
H386 C404 0.951 . S
H387 C406 0.951 . S
H388 C408 0.950 . S
H389 C409 0.950 . S
H390 C411 0.950 . S
H391 C414 0.950 . S
H392 C415 0.950 . S
H393 C417 0.950 . S
H394 C418 0.950 . S
H395 C419 0.951 . S
H396 C421 0.951 . S
H397 C423 0.950 . S
H398 C424 0.950 . S
H399 C426 0.950 . S
H400 C429 0.950 . S
H401 C430 0.950 . S
H402 C432 0.950 . S
H403 C433 0.950 . S
C404 H386 0.951 . S
C404 C405 1.366 . S
C404 C406 1.388 . S
C405 C404 1.366 . S
C405 C409 1.385 . S
C406 H387 0.951 . S
C406 C404 1.388 . S
C406 C407 1.366 . S
C407 C406 1.366 . S
C407 C408 1.414 . S
C407 C410 1.499 . S
C408 H388 0.950 . S
C408 C407 1.414 . S
C408 C409 1.374 . S
C409 H389 0.950 . S
C409 C405 1.385 . S
C409 C408 1.374 . S
C410 C407 1.499 . S
C410 C411 1.373 . S
C410 C412 1.389 . S
C411 H390 0.950 . S
C411 C410 1.373 . S
C411 C427 1.377 . S
C412 C410 1.389 . S
C412 C413 1.524 . S
C412 C426 1.377 . S
C413 C412 1.524 . S
C413 C414 1.397 . S
C413 C418 1.363 . S
C414 H391 0.950 . S
C414 C413 1.397 . S
C414 C415 1.334 . S
C415 H392 0.950 . S
C415 C414 1.334 . S
C415 C416 1.287 . S
C416 C415 1.287 . S
C416 C417 1.524 . S
C416 H435 0.913 . S
C417 H393 0.950 . S
C417 C416 1.524 . S
C417 C418 1.415 . S
C418 H394 0.950 . S
C418 C413 1.363 . S
C418 C417 1.415 . S
C419 H395 0.951 . S
C419 C420 1.366 . S
C419 C421 1.388 . S
C420 C419 1.366 . S
C420 C424 1.385 . S
C421 H396 0.951 . S
C421 C419 1.388 . S
C421 C422 1.366 . S
C422 C421 1.366 . S
C422 C423 1.414 . S
C422 C425 1.499 . S
C423 H397 0.950 . S
C423 C422 1.414 . S
C423 C424 1.374 . S
C424 H398 0.950 . S
C424 C420 1.385 . S
C424 C423 1.374 . S
C425 C422 1.499 . S
C425 C426 1.373 . S
C425 C427 1.389 . S
C426 H399 0.950 . S
C426 C412 1.377 . S
C426 C425 1.373 . S
C427 C411 1.377 . S
C427 C425 1.389 . S
C427 C428 1.524 . S
C428 C427 1.524 . S
C428 C429 1.397 . S
C428 C433 1.363 . S
C429 H400 0.950 . S
C429 C428 1.397 . S
C429 C430 1.334 . S
C430 H401 0.950 . S
C430 C429 1.334 . S
C430 C431 1.287 . S
C431 C430 1.287 . S
C431 C432 1.524 . S
C431 H434 0.999 . S
C432 H402 0.950 . S
C432 C431 1.524 . S
C432 C433 1.415 . S
C433 H403 0.950 . S
C433 C428 1.363 . S
C433 C432 1.415 . S
H434 C431 0.999 . S
H435 C416 0.913 . S
H436 C454 0.951 . S
H437 C456 0.951 . S
H438 C458 0.950 . S
H439 C459 0.950 . S
H440 C461 0.950 . S
H441 C464 0.950 . S
H442 C465 0.950 . S
H443 C467 0.950 . S
H444 C468 0.950 . S
H445 C469 0.951 . S
H446 C471 0.951 . S
H447 C473 0.950 . S
H448 C474 0.950 . S
H449 C476 0.950 . S
H450 C479 0.950 . S
H451 C480 0.950 . S
H452 C482 0.950 . S
H453 C483 0.950 . S
C454 H436 0.951 . S
C454 C455 1.366 . S
C454 C456 1.388 . S
C455 C454 1.366 . S
C455 C459 1.385 . S
C456 H437 0.951 . S
C456 C454 1.388 . S
C456 C457 1.366 . S
C457 C456 1.366 . S
C457 C458 1.414 . S
C457 C460 1.499 . S
C458 H438 0.950 . S
C458 C457 1.414 . S
C458 C459 1.374 . S
C459 H439 0.950 . S
C459 C455 1.385 . S
C459 C458 1.374 . S
C460 C457 1.499 . S
C460 C461 1.373 . S
C460 C462 1.389 . S
C461 H440 0.950 . S
C461 C460 1.373 . S
C461 C477 1.377 . S
C462 C460 1.389 . S
C462 C463 1.524 . S
C462 C476 1.377 . S
C463 C462 1.524 . S
C463 C464 1.397 . S
C463 C468 1.363 . S
C464 H441 0.950 . S
C464 C463 1.397 . S
C464 C465 1.334 . S
C465 H442 0.950 . S
C465 C464 1.334 . S
C465 C466 1.287 . S
C466 C465 1.287 . S
C466 C467 1.524 . S
C466 H485 0.913 . S
C467 H443 0.950 . S
C467 C466 1.524 . S
C467 C468 1.415 . S
C468 H444 0.950 . S
C468 C463 1.363 . S
C468 C467 1.415 . S
C469 H445 0.951 . S
C469 C470 1.366 . S
C469 C471 1.388 . S
C470 C469 1.366 . S
C470 C474 1.385 . S
C471 H446 0.951 . S
C471 C469 1.388 . S
C471 C472 1.366 . S
C472 C471 1.366 . S
C472 C473 1.414 . S
C472 C475 1.499 . S
C473 H447 0.950 . S
C473 C472 1.414 . S
C473 C474 1.374 . S
C474 H448 0.950 . S
C474 C470 1.385 . S
C474 C473 1.374 . S
C475 C472 1.499 . S
C475 C476 1.373 . S
C475 C477 1.389 . S
C476 H449 0.950 . S
C476 C462 1.377 . S
C476 C475 1.373 . S
C477 C461 1.377 . S
C477 C475 1.389 . S
C477 C478 1.524 . S
C478 C477 1.524 . S
C478 C479 1.397 . S
C478 C483 1.363 . S
C479 H450 0.950 . S
C479 C478 1.397 . S
C479 C480 1.334 . S
C480 H451 0.950 . S
C480 C479 1.334 . S
C480 C481 1.287 . S
C481 C480 1.287 . S
C481 C482 1.524 . S
C481 H484 0.999 . S
C482 H452 0.950 . S
C482 C481 1.524 . S
C482 C483 1.415 . S
C483 H453 0.950 . S
C483 C478 1.363 . S
C483 C482 1.415 . S
H484 C481 0.999 . S
H485 C466 0.913 . S
H486 C504 0.951 . S
H487 C506 0.951 . S
H488 C508 0.950 . S
H489 C509 0.950 . S
H490 C511 0.950 . S
H491 C514 0.950 . S
H492 C515 0.950 . S
H493 C517 0.950 . S
H494 C518 0.950 . S
H495 C519 0.951 . S
H496 C521 0.951 . S
H497 C523 0.950 . S
H498 C524 0.950 . S
H499 C526 0.950 . S
H500 C529 0.950 . S
H501 C530 0.950 . S
H502 C532 0.950 . S
H503 C533 0.950 . S
C504 H486 0.951 . S
C504 C505 1.366 . S
C504 C506 1.388 . S
C505 C504 1.366 . S
C505 C509 1.385 . S
C506 H487 0.951 . S
C506 C504 1.388 . S
C506 C507 1.366 . S
C507 C506 1.366 . S
C507 C508 1.414 . S
C507 C510 1.499 . S
C508 H488 0.950 . S
C508 C507 1.414 . S
C508 C509 1.374 . S
C509 H489 0.950 . S
C509 C505 1.385 . S
C509 C508 1.374 . S
C510 C507 1.499 . S
C510 C511 1.373 . S
C510 C512 1.389 . S
C511 H490 0.950 . S
C511 C510 1.373 . S
C511 C527 1.377 . S
C512 C510 1.389 . S
C512 C513 1.524 . S
C512 C526 1.377 . S
C513 C512 1.524 . S
C513 C514 1.397 . S
C513 C518 1.363 . S
C514 H491 0.950 . S
C514 C513 1.397 . S
C514 C515 1.334 . S
C515 H492 0.950 . S
C515 C514 1.334 . S
C515 C516 1.287 . S
C516 C515 1.287 . S
C516 C517 1.524 . S
C516 H535 0.913 . S
C517 H493 0.950 . S
C517 C516 1.524 . S
C517 C518 1.415 . S
C518 H494 0.950 . S
C518 C513 1.363 . S
C518 C517 1.415 . S
C519 H495 0.951 . S
C519 C520 1.366 . S
C519 C521 1.388 . S
C520 C519 1.366 . S
C520 C524 1.385 . S
C521 H496 0.951 . S
C521 C519 1.388 . S
C521 C522 1.366 . S
C522 C521 1.366 . S
C522 C523 1.414 . S
C522 C525 1.499 . S
C523 H497 0.950 . S
C523 C522 1.414 . S
C523 C524 1.374 . S
C524 H498 0.950 . S
C524 C520 1.385 . S
C524 C523 1.374 . S
C525 C522 1.499 . S
C525 C526 1.373 . S
C525 C527 1.389 . S
C526 H499 0.950 . S
C526 C512 1.377 . S
C526 C525 1.373 . S
C527 C511 1.377 . S
C527 C525 1.389 . S
C527 C528 1.524 . S
C528 C527 1.524 . S
C528 C529 1.397 . S
C528 C533 1.363 . S
C529 H500 0.950 . S
C529 C528 1.397 . S
C529 C530 1.334 . S
C530 H501 0.950 . S
C530 C529 1.334 . S
C530 C531 1.287 . S
C531 C530 1.287 . S
C531 C532 1.524 . S
C531 H534 0.999 . S
C532 H502 0.950 . S
C532 C531 1.524 . S
C532 C533 1.415 . S
C533 H503 0.950 . S
C533 C528 1.363 . S
C533 C532 1.415 . S
H534 C531 0.999 . S
H535 C516 0.913 . S
H536 C554 0.951 . S
H537 C556 0.951 . S
H538 C558 0.950 . S
H539 C559 0.950 . S
H540 C561 0.950 . S
H541 C564 0.950 . S
H542 C565 0.950 . S
H543 C567 0.950 . S
H544 C568 0.950 . S
H545 C569 0.951 . S
H546 C571 0.951 . S
H547 C573 0.950 . S
H548 C574 0.950 . S
H549 C576 0.950 . S
H550 C579 0.950 . S
H551 C580 0.950 . S
H552 C582 0.950 . S
H553 C583 0.950 . S
C554 H536 0.951 . S
C554 C555 1.366 . S
C554 C556 1.388 . S
C555 C554 1.366 . S
C555 C559 1.385 . S
C556 H537 0.951 . S
C556 C554 1.388 . S
C556 C557 1.366 . S
C557 C556 1.366 . S
C557 C558 1.414 . S
C557 C560 1.499 . S
C558 H538 0.950 . S
C558 C557 1.414 . S
C558 C559 1.374 . S
C559 H539 0.950 . S
C559 C555 1.385 . S
C559 C558 1.374 . S
C560 C557 1.499 . S
C560 C561 1.373 . S
C560 C562 1.389 . S
C561 H540 0.950 . S
C561 C560 1.373 . S
C561 C577 1.377 . S
C562 C560 1.389 . S
C562 C563 1.524 . S
C562 C576 1.377 . S
C563 C562 1.524 . S
C563 C564 1.397 . S
C563 C568 1.363 . S
C564 H541 0.950 . S
C564 C563 1.397 . S
C564 C565 1.334 . S
C565 H542 0.950 . S
C565 C564 1.334 . S
C565 C566 1.287 . S
C566 C565 1.287 . S
C566 C567 1.524 . S
C566 H585 0.913 . S
C567 H543 0.950 . S
C567 C566 1.524 . S
C567 C568 1.415 . S
C568 H544 0.950 . S
C568 C563 1.363 . S
C568 C567 1.415 . S
C569 H545 0.951 . S
C569 C570 1.366 . S
C569 C571 1.388 . S
C570 C569 1.366 . S
C570 C574 1.385 . S
C571 H546 0.951 . S
C571 C569 1.388 . S
C571 C572 1.366 . S
C572 C571 1.366 . S
C572 C573 1.414 . S
C572 C575 1.499 . S
C573 H547 0.950 . S
C573 C572 1.414 . S
C573 C574 1.374 . S
C574 H548 0.950 . S
C574 C570 1.385 . S
C574 C573 1.374 . S
C575 C572 1.499 . S
C575 C576 1.373 . S
C575 C577 1.389 . S
C576 H549 0.950 . S
C576 C562 1.377 . S
C576 C575 1.373 . S
C577 C561 1.377 . S
C577 C575 1.389 . S
C577 C578 1.524 . S
C578 C577 1.524 . S
C578 C579 1.397 . S
C578 C583 1.363 . S
C579 H550 0.950 . S
C579 C578 1.397 . S
C579 C580 1.334 . S
C580 H551 0.950 . S
C580 C579 1.334 . S
C580 C581 1.287 . S
C581 C580 1.287 . S
C581 C582 1.524 . S
C581 H584 0.999 . S
C582 H552 0.950 . S
C582 C581 1.524 . S
C582 C583 1.415 . S
C583 H553 0.950 . S
C583 C578 1.363 . S
C583 C582 1.415 . S
H584 C581 0.999 . S
H585 C566 0.913 . S
H586 C604 0.951 . S
H587 C606 0.951 . S
H588 C608 0.950 . S
H589 C609 0.950 . S
H590 C611 0.950 . S
H591 C614 0.950 . S
H592 C615 0.950 . S
H593 C617 0.950 . S
H594 C618 0.950 . S
H595 C619 0.951 . S
H596 C621 0.951 . S
H597 C623 0.950 . S
H598 C624 0.950 . S
H599 C626 0.950 . S
H600 C629 0.950 . S
H601 C630 0.950 . S
H602 C632 0.950 . S
H603 C633 0.950 . S
C604 H586 0.951 . S
C604 C605 1.366 . S
C604 C606 1.388 . S
C605 C604 1.366 . S
C605 C609 1.385 . S
C606 H587 0.951 . S
C606 C604 1.388 . S
C606 C607 1.366 . S
C607 C606 1.366 . S
C607 C608 1.414 . S
C607 C610 1.499 . S
C608 H588 0.950 . S
C608 C607 1.414 . S
C608 C609 1.374 . S
C609 H589 0.950 . S
C609 C605 1.385 . S
C609 C608 1.374 . S
C610 C607 1.499 . S
C610 C611 1.373 . S
C610 C612 1.389 . S
C611 H590 0.950 . S
C611 C610 1.373 . S
C611 C627 1.377 . S
C612 C610 1.389 . S
C612 C613 1.524 . S
C612 C626 1.377 . S
C613 C612 1.524 . S
C613 C614 1.397 . S
C613 C618 1.363 . S
C614 H591 0.950 . S
C614 C613 1.397 . S
C614 C615 1.334 . S
C615 H592 0.950 . S
C615 C614 1.334 . S
C615 C616 1.287 . S
C616 C615 1.287 . S
C616 C617 1.524 . S
C616 H635 0.913 . S
C617 H593 0.950 . S
C617 C616 1.524 . S
C617 C618 1.415 . S
C618 H594 0.950 . S
C618 C613 1.363 . S
C618 C617 1.415 . S
C619 H595 0.951 . S
C619 C620 1.366 . S
C619 C621 1.388 . S
C620 C619 1.366 . S
C620 C624 1.385 . S
C621 H596 0.951 . S
C621 C619 1.388 . S
C621 C622 1.366 . S
C622 C621 1.366 . S
C622 C623 1.414 . S
C622 C625 1.499 . S
C623 H597 0.950 . S
C623 C622 1.414 . S
C623 C624 1.374 . S
C624 H598 0.950 . S
C624 C620 1.385 . S
C624 C623 1.374 . S
C625 C622 1.499 . S
C625 C626 1.373 . S
C625 C627 1.389 . S
C626 H599 0.950 . S
C626 C612 1.377 . S
C626 C625 1.373 . S
C627 C611 1.377 . S
C627 C625 1.389 . S
C627 C628 1.524 . S
C628 C627 1.524 . S
C628 C629 1.397 . S
C628 C633 1.363 . S
C629 H600 0.950 . S
C629 C628 1.397 . S
C629 C630 1.334 . S
C630 H601 0.950 . S
C630 C629 1.334 . S
C630 C631 1.287 . S
C631 C630 1.287 . S
C631 C632 1.524 . S
C631 H634 0.999 . S
C632 H602 0.950 . S
C632 C631 1.524 . S
C632 C633 1.415 . S
C633 H603 0.950 . S
C633 C628 1.363 . S
C633 C632 1.415 . S
H634 C631 0.999 . S
H635 C616 0.913 . S
C155 C33 1.510 . S
C170 C67 1.510 . S
C205 C135 1.510 . S
C220 C101 1.510 . S
C255 C20 1.249 . S
C270 C122 1.249 . S
C305 C9 1.533 . S
C320 C107 1.553 . S
C355 C104 1.550 . S
C370 C2 1.550 . S
C405 C5 1.553 . S
C420 C111 1.532 . S
C455 C77 1.533 . S
C470 C39 1.553 . S
C505 C36 1.550 . S
C520 C70 1.550 . S
C555 C43 1.533 . S
C570 C73 1.553 . S
C605 C88 1.249 . S
C620 C54 1.249 . S
