# Generated by pormake.
# Topology why, (6)-cn, num edge types: 1
# Building blocks:
#     Node 0, Type 0, BuildingBlock: CUKXOW_clean_sbu_0, # of connection points: 6
#     Node 1, Type 0, BuildingBlock: CUKXOW_clean_sbu_0, # of connection points: 6
#     Node 2, Type 0, BuildingBlock: CUKXOW_clean_sbu_0, # of connection points: 6
#     Node 3, Type 0, BuildingBlock: CUKXOW_clean_sbu_0, # of connection points: 6
#     Node 4, Type 0, BuildingBlock: CUKXOW_clean_sbu_0, # of connection points: 6
#     Node 5, Type 0, BuildingBlock: CUKXOW_clean_sbu_0, # of connection points: 6
#     Node 6, Type 0, BuildingBlock: CUKXOW_clean_sbu_0, # of connection points: 6
#     Node 7, Type 0, BuildingBlock: CUKXOW_clean_sbu_0, # of connection points: 6
#     Node 8, Type 0, BuildingBlock: CUKXOW_clean_sbu_0, # of connection points: 6
#     Node 9, Type 0, BuildingBlock: CUKXOW_clean_sbu_0, # of connection points: 6
#     Node 10, Type 0, BuildingBlock: CUKXOW_clean_sbu_0, # of connection points: 6
#     Node 11, Type 0, BuildingBlock: CUKXOW_clean_sbu_0, # of connection points: 6
#     Node 12, Type 0, BuildingBlock: CUKXOW_clean_sbu_0, # of connection points: 6
#     Node 13, Type 0, BuildingBlock: CUKXOW_clean_sbu_0, # of connection points: 6
#     Node 14, Type 0, BuildingBlock: CUKXOW_clean_sbu_0, # of connection points: 6
#     Node 15, Type 0, BuildingBlock: CUKXOW_clean_sbu_0, # of connection points: 6
#     Edge 16, Type (0, 0), BuildingBlock: ZUJKAS_clean_linker_0, # of connection points: 2
#     Edge 17, Type (0, 0), BuildingBlock: ZUJKAS_clean_linker_0, # of connection points: 2
#     Edge 18, Type (0, 0), BuildingBlock: ZUJKAS_clean_linker_0, # of connection points: 2
#     Edge 19, Type (0, 0), BuildingBlock: ZUJKAS_clean_linker_0, # of connection points: 2
#     Edge 20, Type (0, 0), BuildingBlock: ZUJKAS_clean_linker_0, # of connection points: 2
#     Edge 21, Type (0, 0), BuildingBlock: ZUJKAS_clean_linker_0, # of connection points: 2
#     Edge 22, Type (0, 0), BuildingBlock: ZUJKAS_clean_linker_0, # of connection points: 2
#     Edge 23, Type (0, 0), BuildingBlock: ZUJKAS_clean_linker_0, # of connection points: 2
#     Edge 24, Type (0, 0), BuildingBlock: ZUJKAS_clean_linker_0, # of connection points: 2
#     Edge 25, Type (0, 0), BuildingBlock: ZUJKAS_clean_linker_0, # of connection points: 2
#     Edge 26, Type (0, 0), BuildingBlock: ZUJKAS_clean_linker_0, # of connection points: 2
#     Edge 27, Type (0, 0), BuildingBlock: ZUJKAS_clean_linker_0, # of connection points: 2
#     Edge 28, Type (0, 0), BuildingBlock: ZUJKAS_clean_linker_0, # of connection points: 2
#     Edge 29, Type (0, 0), BuildingBlock: ZUJKAS_clean_linker_0, # of connection points: 2
#     Edge 30, Type (0, 0), BuildingBlock: ZUJKAS_clean_linker_0, # of connection points: 2
#     Edge 31, Type (0, 0), BuildingBlock: ZUJKAS_clean_linker_0, # of connection points: 2
#     Edge 32, Type (0, 0), BuildingBlock: ZUJKAS_clean_linker_0, # of connection points: 2
#     Edge 33, Type (0, 0), BuildingBlock: ZUJKAS_clean_linker_0, # of connection points: 2
#     Edge 34, Type (0, 0), BuildingBlock: ZUJKAS_clean_linker_0, # of connection points: 2
#     Edge 35, Type (0, 0), BuildingBlock: ZUJKAS_clean_linker_0, # of connection points: 2
#     Edge 36, Type (0, 0), BuildingBlock: ZUJKAS_clean_linker_0, # of connection points: 2
#     Edge 37, Type (0, 0), BuildingBlock: ZUJKAS_clean_linker_0, # of connection points: 2
#     Edge 38, Type (0, 0), BuildingBlock: ZUJKAS_clean_linker_0, # of connection points: 2
#     Edge 39, Type (0, 0), BuildingBlock: ZUJKAS_clean_linker_0, # of connection points: 2
#     Edge 40, Type (0, 0), BuildingBlock: ZUJKAS_clean_linker_0, # of connection points: 2
#     Edge 41, Type (0, 0), BuildingBlock: ZUJKAS_clean_linker_0, # of connection points: 2
#     Edge 42, Type (0, 0), BuildingBlock: ZUJKAS_clean_linker_0, # of connection points: 2
#     Edge 43, Type (0, 0), BuildingBlock: ZUJKAS_clean_linker_0, # of connection points: 2
#     Edge 44, Type (0, 0), BuildingBlock: ZUJKAS_clean_linker_0, # of connection points: 2
#     Edge 45, Type (0, 0), BuildingBlock: ZUJKAS_clean_linker_0, # of connection points: 2
#     Edge 46, Type (0, 0), BuildingBlock: ZUJKAS_clean_linker_0, # of connection points: 2
#     Edge 47, Type (0, 0), BuildingBlock: ZUJKAS_clean_linker_0, # of connection points: 2
#     Edge 48, Type (0, 0), BuildingBlock: ZUJKAS_clean_linker_0, # of connection points: 2
#     Edge 49, Type (0, 0), BuildingBlock: ZUJKAS_clean_linker_0, # of connection points: 2
#     Edge 50, Type (0, 0), BuildingBlock: ZUJKAS_clean_linker_0, # of connection points: 2
#     Edge 51, Type (0, 0), BuildingBlock: ZUJKAS_clean_linker_0, # of connection points: 2
#     Edge 52, Type (0, 0), BuildingBlock: ZUJKAS_clean_linker_0, # of connection points: 2
#     Edge 53, Type (0, 0), BuildingBlock: ZUJKAS_clean_linker_0, # of connection points: 2
#     Edge 54, Type (0, 0), BuildingBlock: ZUJKAS_clean_linker_0, # of connection points: 2
#     Edge 55, Type (0, 0), BuildingBlock: ZUJKAS_clean_linker_0, # of connection points: 2
#     Edge 56, Type (0, 0), BuildingBlock: ZUJKAS_clean_linker_0, # of connection points: 2
#     Edge 57, Type (0, 0), BuildingBlock: ZUJKAS_clean_linker_0, # of connection points: 2
#     Edge 58, Type (0, 0), BuildingBlock: ZUJKAS_clean_linker_0, # of connection points: 2
#     Edge 59, Type (0, 0), BuildingBlock: ZUJKAS_clean_linker_0, # of connection points: 2
#     Edge 60, Type (0, 0), BuildingBlock: ZUJKAS_clean_linker_0, # of connection points: 2
#     Edge 61, Type (0, 0), BuildingBlock: ZUJKAS_clean_linker_0, # of connection points: 2
#     Edge 62, Type (0, 0), BuildingBlock: ZUJKAS_clean_linker_0, # of connection points: 2
#     Edge 63, Type (0, 0), BuildingBlock: ZUJKAS_clean_linker_0, # of connection points: 2
# Relax obj value: 0.197
# Max RMSD: 0.188
# Mean RMSD: 0.188
data_MOF--net-why--node1-CUKXOW_clean_sbu_0--edge1-ZUJKAS_clean_linker_0
_symmetry_space_group_name_H-M    P1
_symmetry_Int_Tables_number       1
_symmetry_cell_setting            triclinic
loop_
_symmetry_equiv_pos_as_xyz
'x, y, z'
_cell_length_a     65.190218
_cell_length_b     65.030338
_cell_length_c     31.946393
_cell_angle_alpha  89.987015
_cell_angle_beta   89.983214
_cell_angle_gamma 89.92096
loop_
_atom_site_label
_atom_site_type_symbol
_atom_site_fract_x
_atom_site_fract_y
_atom_site_fract_z
_atom_type_partial_charge
Tb0 Tb 0.36664 0.20541 0.09268 0.0
C1 C 0.34922 0.1626 0.12143 0.0
Tb2 Tb 0.32759 0.18891 0.05079 0.0
O3 O 0.35338 0.22161 0.14613 0.0
O4 O 0.33457 0.20698 0.10386 0.0
O5 O 0.36535 0.17491 0.11951 0.0
C6 C 0.28992 0.18 0.02348 0.0
O7 O 0.33179 0.16628 0.10103 0.0
C8 C 0.36221 0.1722 0.02506 0.0
C9 C 0.34755 0.23064 0.01792 0.0
O10 O 0.30624 0.18126 1.00037 0.0
O11 O 0.29471 0.18429 0.06198 0.0
O12 O 0.34468 0.16277 0.02542 0.0
O13 O 0.35935 0.19076 0.03522 0.0
O14 O 0.33085 0.21881 0.01842 0.0
O15 O 0.3639 0.22678 0.04118 0.0
C16 C 0.40483 0.2155 0.11116 0.0
O17 O 0.38997 0.22834 0.10469 0.0
O18 O 0.39833 0.19674 0.10679 0.0
C19 C 0.33447 0.21779 0.13678 0.0
Tb20 Tb 0.55526 0.61857 0.33735 0.0
C21 C 0.59858 0.6029 0.36647 0.0
Tb22 Tb 0.57304 0.57927 0.29723 0.0
O23 O 0.54042 0.60525 0.3925 0.0
O24 O 0.55516 0.58664 0.35015 0.0
O25 O 0.58599 0.61876 0.36252 0.0
C26 C 0.58311 0.5415 0.27119 0.0
O27 O 0.59526 0.58486 0.34783 0.0
C28 C 0.58822 0.61415 0.26899 0.0
C29 C 0.53051 0.5976 0.26416 0.0
O30 O 0.5822 0.55782 0.24792 0.0
O31 O 0.57783 0.54632 0.30919 0.0
O32 O 0.59822 0.59689 0.26991 0.0
O33 O 0.5699 0.61085 0.28008 0.0
O34 O 0.543 0.58132 0.26511 0.0
O35 O 0.53372 0.61436 0.2867 0.0
C36 C 0.54401 0.65662 0.35512 0.0
O37 O 0.53165 0.64129 0.34947 0.0
O38 O 0.5629 0.65067 0.35014 0.0
C39 C 0.54493 0.58636 0.38373 0.0
Tb40 Tb 0.14462 0.80799 0.58846 0.0
C41 C 0.15914 0.85151 0.61293 0.0
Tb42 Tb 0.18064 0.8245 0.54379 0.0
O43 O 0.16117 0.80819 0.64739 0.0
O44 O 0.17709 0.80211 0.59225 0.0
O45 O 0.14299 0.83949 0.60891 0.0
C46 C 0.21782 0.83393 0.51364 0.0
O47 O 0.17696 0.84703 0.59481 0.0
C48 C 0.14566 0.841 0.51982 0.0
C49 C 0.1617 0.78204 0.51264 0.0
O50 O 0.20099 0.83311 0.49207 0.0
O51 O 0.21382 0.82893 0.55215 0.0
O52 O 0.16299 0.85073 0.52064 0.0
O53 O 0.14877 0.82242 0.52946 0.0
O54 O 0.17646 0.79596 0.50711 0.0
O55 O 0.14775 0.78377 0.54251 0.0
C56 C 0.10858 0.7933 0.61301 0.0
O57 O 0.12604 0.78397 0.61741 0.0
O58 O 0.11138 0.81087 0.59463 0.0
C59 C 0.17907 0.80465 0.63141 0.0
Tb60 Tb 0.947 0.39075 0.84549 0.0
C61 C 0.90607 0.41234 0.87184 0.0
Tb62 Tb 0.93438 0.42992 0.79807 0.0
O63 O 0.96725 0.40365 0.89318 0.0
O64 O 0.95314 0.42269 0.85011 0.0
O65 O 0.91716 0.3953 0.87301 0.0
C66 C 0.92115 0.46692 0.77306 0.0
O67 O 0.91073 0.42834 0.84752 0.0
C68 C 0.92459 0.39471 0.76226 0.0
C69 C 0.9747 0.40687 0.77036 0.0
O70 O 0.91177 0.4496 0.76748 0.0
O71 O 0.93829 0.46351 0.79278 0.0
O72 O 0.92905 0.41137 0.74176 0.0
O73 O 0.92447 0.39883 0.8008 0.0
O74 O 0.96481 0.42483 0.76995 0.0
O75 O 0.96903 0.39137 0.79465 0.0
C76 C 0.95197 0.35123 0.86244 0.0
O77 O 0.95339 0.35943 0.82553 0.0
O78 O 0.94768 0.36528 0.88997 0.0
C79 C 0.96486 0.42263 0.88174 0.0
Tb80 Tb 0.67999 0.82278 0.9817 0.0
C81 C 0.65916 0.78153 1.01339 0.0
Tb82 Tb 0.64044 0.80737 0.93845 0.0
O83 O 0.66277 0.82952 0.039 0.0
O84 O 0.64845 0.83108 0.98107 0.0
O85 O 0.67615 0.79293 1.01333 0.0
C86 C 0.60093 0.80205 0.92314 0.0
O87 O 0.64315 0.78534 0.98905 0.0
C88 C 0.67286 0.79074 0.90117 0.0
C89 C 0.66007 0.84848 0.9066 0.0
O90 O 0.60905 0.80326 0.96015 0.0
O91 O 0.61506 0.8036 0.8947 0.0
O92 O 0.65393 0.78701 0.89104 0.0
O93 O 0.67246 0.80298 0.9319 0.0
O94 O 0.64334 0.83701 0.90879 0.0
O95 O 0.67693 0.84442 0.92876 0.0
C96 C 0.71714 0.83707 1.00166 0.0
O97 O 0.70059 0.84798 0.99808 0.0
O98 O 0.71288 0.8179 0.99399 0.0
C99 C 0.64534 0.83198 0.01999 0.0
Tb100 Tb 0.43872 0.42954 0.73824 0.0
C101 C 0.47965 0.40817 0.76673 0.0
Tb102 Tb 0.45407 0.39146 0.68965 0.0
O103 O 0.43471 0.41104 0.79491 0.0
O104 O 0.43157 0.39766 0.73621 0.0
O105 O 0.46946 0.42595 0.76576 0.0
C106 C 0.46467 0.35425 0.66356 0.0
O107 O 0.47416 0.39212 0.74382 0.0
C108 C 0.46669 0.42524 0.65091 0.0
C109 C 0.41209 0.41017 0.66242 0.0
O110 O 0.44681 0.35893 0.67891 0.0
O111 O 0.47642 0.37024 0.66395 0.0
O112 O 0.46972 0.40668 0.63775 0.0
O113 O 0.45644 0.42384 0.68439 0.0
O114 O 0.42522 0.39477 0.65784 0.0
O115 O 0.41481 0.42553 0.68968 0.0
C116 C 0.42371 0.46601 0.76207 0.0
O117 O 0.41496 0.44835 0.76762 0.0
O118 O 0.44116 0.46323 0.74311 0.0
C119 C 0.43188 0.39386 0.77494 0.0
Tb120 Tb 0.82567 0.18422 0.49203 0.0
C121 C 0.84458 0.22635 0.527 0.0
Tb122 Tb 0.86704 0.2022 0.45342 0.0
O123 O 0.84027 0.16662 0.54372 0.0
O124 O 0.85719 0.18313 0.50203 0.0
O125 O 0.8286 0.21342 0.52717 0.0
C126 C 0.90585 0.21182 0.44099 0.0
O127 O 0.86092 0.22419 0.5026 0.0
C128 C 0.83468 0.21492 0.40986 0.0
C129 C 0.85165 0.159 0.42547 0.0
O130 O 0.89452 0.20175 0.41464 0.0
O131 O 0.8954 0.21627 0.47436 0.0
O132 O 0.85355 0.21993 0.40198 0.0
O133 O 0.83506 0.20329 0.44154 0.0
O134 O 0.86788 0.1705 0.4338 0.0
O135 O 0.83287 0.16362 0.43918 0.0
C136 C 0.78731 0.17106 0.50427 0.0
O137 O 0.80302 0.15969 0.4953 0.0
O138 O 0.79307 0.19023 0.50596 0.0
C139 C 0.85889 0.17144 0.53302 0.0
Tb140 Tb 0.07226 0.58149 0.23216 0.0
C141 C 0.03231 0.60548 0.25677 0.0
Tb142 Tb 0.0597 0.61926 0.17925 0.0
O143 O 0.07583 0.60075 0.28779 0.0
O144 O 0.08085 0.61293 0.22833 0.0
O145 O 0.04133 0.58706 0.25741 0.0
C146 C 0.05101 0.65685 0.15166 0.0
O147 O 0.03882 0.62057 0.23225 0.0
C148 C 0.04557 0.58543 0.14291 0.0
C149 C 0.10158 0.5986 0.15806 0.0
O150 O 0.03924 0.64094 0.14871 0.0
O151 O 0.06787 0.65177 0.17072 0.0
O152 O 0.04361 0.60386 0.1282 0.0
O153 O 0.05569 0.58689 0.17659 0.0
O154 O 0.08891 0.61399 0.14954 0.0
O155 O 0.09785 0.58427 0.18705 0.0
C156 C 0.08547 0.54476 0.25899 0.0
O157 O 0.09434 0.56227 0.26562 0.0
O158 O 0.06883 0.54785 0.23735 0.0
C159 C 0.07985 0.61739 0.26677 0.0
Tb160 Tb 0.86901 0.70491 0.58833 0.0
C161 C 0.85294 0.66149 0.61445 0.0
Tb162 Tb 0.82753 0.68736 0.54803 0.0
O163 O 0.85477 0.72258 0.63948 0.0
O164 O 0.83701 0.7058 0.59916 0.0
O165 O 0.86931 0.67304 0.60734 0.0
C166 C 0.78945 0.67396 0.53364 0.0
O167 O 0.83431 0.66628 0.6002 0.0
C168 C 0.86088 0.67503 0.50691 0.0
C169 C 0.84704 0.72945 0.51435 0.0
O170 O 0.8057 0.66264 0.53744 0.0
O171 O 0.7945 0.69322 0.53848 0.0
O172 O 0.84225 0.67075 0.49549 0.0
O173 O 0.85924 0.68608 0.539 0.0
O174 O 0.83102 0.71657 0.51323 0.0
O175 O 0.86309 0.72728 0.5396 0.0
C176 C 0.90812 0.71361 0.60207 0.0
O177 O 0.89825 0.71752 0.56768 0.0
O178 O 0.89599 0.70475 0.62878 0.0
C179 C 0.83602 0.71733 0.63086 0.0
Tb180 Tb 0.05531 0.12019 0.84138 0.0
C181 C 0.09792 0.10434 0.87209 0.0
Tb182 Tb 0.07422 0.07972 0.7998 0.0
O183 O 0.03965 0.10492 0.89381 0.0
O184 O 0.05528 0.08784 0.85092 0.0
O185 O 0.08547 0.12039 0.86862 0.0
C186 C 0.0871 0.04148 0.78409 0.0
O187 O 0.09458 0.08628 0.85333 0.0
C188 C 0.08652 0.1139 0.7613 0.0
C189 C 0.03507 0.10101 0.75976 0.0
O190 O 0.09862 0.05702 0.79347 0.0
O191 O 0.06798 0.04735 0.78395 0.0
O192 O 0.09198 0.09547 0.75007 0.0
O193 O 0.07439 0.11157 0.79149 0.0
O194 O 0.04534 0.08334 0.76437 0.0
O195 O 0.03853 0.11761 0.78288 0.0
C196 C 0.04071 0.15666 0.86204 0.0
O197 O 0.02979 0.1404 0.85484 0.0
O198 O 0.06011 0.15269 0.85645 0.0
C199 C 0.04461 0.08631 0.88371 0.0
Tb200 Tb 0.64198 0.30576 0.09719 0.0
C201 C 0.65955 0.34856 0.12446 0.0
Tb202 Tb 0.68024 0.32215 0.0525 0.0
O203 O 0.65622 0.28982 0.1499 0.0
O204 O 0.67424 0.30427 0.10617 0.0
O205 O 0.64333 0.33634 0.12336 0.0
C206 C 0.71743 0.33142 0.02276 0.0
O207 O 0.67674 0.34466 0.10332 0.0
C208 C 0.64525 0.33887 0.02897 0.0
C209 C 0.65946 0.2807 0.02035 0.0
O210 O 0.71343 0.32599 0.06104 0.0
O211 O 0.70059 0.33105 1.00113 0.0
O212 O 0.66278 0.34828 0.0286 0.0
O213 O 0.64821 0.32028 0.03889 0.0
O214 O 0.67637 0.29226 0.02013 0.0
O215 O 0.64357 0.28486 0.04471 0.0
C216 C 0.605 0.29355 0.1201 0.0
O217 O 0.62074 0.28173 0.11451 0.0
O218 O 0.60982 0.31255 0.11195 0.0
C219 C 0.67494 0.29356 0.13916 0.0
Tb220 Tb 0.4539 0.89458 0.34065 0.0
C221 C 0.41006 0.91116 0.36409 0.0
Tb222 Tb 0.43749 0.93279 0.2949 0.0
O223 O 0.46833 0.90899 0.39482 0.0
O224 O 0.45434 0.92693 0.35014 0.0
O225 O 0.42287 0.89533 0.36456 0.0
C226 C 0.42854 0.97051 0.26692 0.0
O227 O 0.41375 0.92842 0.34292 0.0
C228 C 0.4223 0.89747 0.26922 0.0
C229 C 0.47986 0.91277 0.26546 0.0
O230 O 0.43378 0.96596 0.30504 0.0
O231 O 0.42886 0.9539 0.24444 0.0
O232 O 0.4126 0.9149 0.26735 0.0
O233 O 0.44045 0.90079 0.28145 0.0
O234 O 0.46759 0.9292 0.26357 0.0
O235 O 0.47622 0.89698 0.29058 0.0
C236 C 0.46553 0.85734 0.36374 0.0
O237 O 0.47744 0.87313 0.36004 0.0
O238 O 0.44683 0.86229 0.35368 0.0
C239 C 0.46432 0.92772 0.38409 0.0
Tb240 Tb 0.18198 0.32672 0.48823 0.0
C241 C 0.15946 0.28843 0.52971 0.0
Tb242 Tb 0.14084 0.30905 0.44774 0.0
O243 O 0.16708 0.345 0.5383 0.0
O244 O 0.15036 0.3279 0.49711 0.0
O245 O 0.17742 0.29813 0.5248 0.0
C246 C 0.10372 0.29639 0.4283 0.0
O247 O 0.14303 0.29232 0.50643 0.0
C248 C 0.17397 0.29687 0.40514 0.0
C249 C 0.15759 0.35126 0.41624 0.0
O250 O 0.11933 0.28455 0.4355 0.0
O251 O 0.10872 0.31561 0.43324 0.0
O252 O 0.15522 0.29242 0.39558 0.0
O253 O 0.17301 0.30792 0.43751 0.0
O254 O 0.14136 0.33913 0.41984 0.0
O255 O 0.17554 0.34756 0.43507 0.0
C256 C 0.22041 0.33899 0.50259 0.0
O257 O 0.2049 0.35079 0.49447 0.0
O258 O 0.21441 0.31987 0.50228 0.0
C259 C 0.14853 0.34008 0.52732 0.0
Tb260 Tb 0.9369 0.93017 0.23377 0.0
C261 C 0.97741 0.90771 0.26131 0.0
Tb262 Tb 0.94984 0.8911 0.18615 0.0
O263 O 0.93219 0.91171 0.29032 0.0
O264 O 0.92743 0.89889 0.23144 0.0
O265 O 0.96741 0.92559 0.26158 0.0
C266 C 0.95657 0.85159 0.17097 0.0
O267 O 0.97194 0.89218 0.23692 0.0
C268 C 0.9672 0.92329 0.14975 0.0
C269 C 0.90828 0.91185 0.16116 0.0
O270 O 0.95728 0.86023 0.20752 0.0
O271 O 0.95179 0.86517 0.14277 0.0
O272 O 0.9697 0.90436 0.13806 0.0
O273 O 0.95556 0.92311 0.1815 0.0
O274 O 0.91971 0.89503 0.15914 0.0
O275 O 0.91281 0.92787 0.18546 0.0
C276 C 0.92335 0.96708 0.2587 0.0
O277 O 0.91439 0.94963 0.2653 0.0
O278 O 0.94024 0.96385 0.23796 0.0
C279 C 0.92781 0.89496 0.2701 0.0
Tb280 Tb 0.33151 0.68781 0.98431 0.0
C281 C 0.3518 0.72833 1.01699 0.0
Tb282 Tb 0.36625 0.70378 0.93683 0.0
O283 O 0.34961 0.68315 0.04114 0.0
O284 O 0.36334 0.6804 0.98279 0.0
O285 O 0.33494 0.71691 0.0185 0.0
C286 C 0.401 0.71986 0.9081 0.0
O287 O 0.36674 0.72446 0.99022 0.0
C288 C 0.331 0.70864 0.89749 0.0
C289 C 0.35164 0.66058 0.91182 0.0
O290 O 0.38361 0.72942 0.91053 0.0
O291 O 0.39889 0.70128 0.92206 0.0
O292 O 0.34844 0.70495 0.87969 0.0
O293 O 0.33392 0.71078 0.93654 0.0
O294 O 0.36754 0.6731 0.91219 0.0
O295 O 0.33473 0.6647 0.93366 0.0
C296 C 0.29517 0.67256 1.0084 0.0
O297 O 0.31199 0.66219 1.00413 0.0
O298 O 0.29873 0.69166 0.99926 0.0
C299 C 0.36689 0.68066 0.02161 0.0
Tb300 Tb 0.57095 0.07931 0.7413 0.0
C301 C 0.53154 0.10178 0.77569 0.0
Tb302 Tb 0.55635 0.11885 0.69757 0.0
O303 O 0.57761 0.09703 0.79795 0.0
O304 O 0.58023 0.11066 0.73927 0.0
O305 O 0.5412 0.0837 0.77301 0.0
C306 C 0.55019 0.15809 0.67977 0.0
O307 O 0.53644 0.11771 0.75185 0.0
C308 C 0.53824 0.08695 0.6617 0.0
C309 C 0.59715 0.09859 0.66611 0.0
O310 O 0.54905 0.1501 0.71693 0.0
O311 O 0.55488 0.14401 0.65264 0.0
O312 O 0.53502 0.10599 0.6517 0.0
O313 O 0.55075 0.08688 0.69195 0.0
O314 O 0.58584 0.11548 0.66772 0.0
O315 O 0.59318 0.08203 0.68933 0.0
C316 C 0.58578 0.04238 0.76277 0.0
O317 O 0.59451 0.05993 0.7695 0.0
O318 O 0.56834 0.04549 0.74392 0.0
C319 C 0.58118 0.11408 0.77808 0.0
H320 H 0.41906 0.25429 0.11648 0.0
H321 H 0.45407 0.26521 0.13125 0.0
H322 H 0.47248 0.20185 0.1463 0.0
H323 H 0.43732 0.19073 0.13042 0.0
H324 H 0.47989 0.25888 0.19963 0.0
H325 H 0.50985 0.2233 0.05317 0.0
H326 H 0.48278 0.22625 0.06315 0.0
H327 H 0.49702 0.20613 0.08856 0.0
C328 C 0.43056 0.24269 0.12304 0.0
C329 C 0.42571 0.22169 0.12189 0.0
C330 C 0.45047 0.24895 0.13173 0.0
C331 C 0.46577 0.23431 0.13945 0.0
C332 C 0.46083 0.21331 0.13981 0.0
H333 H 0.59632 0.25525 0.14652 0.0
H334 H 0.56257 0.24064 0.16018 0.0
C335 C 0.44086 0.207 0.13079 0.0
C336 C 0.48706 0.24128 0.14434 0.0
H337 H 0.53324 0.24157 0.09461 0.0
C338 C 0.49167 0.25496 0.177 0.0
C339 C 0.5022 0.2362 0.11441 0.0
C340 C 0.49777 0.22231 0.07762 0.0
C341 C 0.51109 0.264 0.18013 0.0
C342 C 0.52602 0.25921 0.14972 0.0
C343 C 0.52161 0.24509 0.11785 0.0
C344 C 0.54624 0.26908 0.14903 0.0
C345 C 0.5155 0.27867 0.21554 0.0
C346 C 0.54809 0.29002 0.13899 0.0
C347 C 0.56741 0.29844 0.13107 0.0
C348 C 0.58487 0.28588 0.13279 0.0
C349 C 0.583 0.26519 0.14468 0.0
C350 C 0.56381 0.25685 0.15271 0.0
H351 H 0.5041 0.2772 0.24122 0.0
H352 H 0.53109 0.27598 0.22842 0.0
H353 H 0.51489 0.29468 0.20356 0.0
H354 H 0.53457 0.29955 0.13531 0.0
H355 H 0.56858 0.31444 0.12193 0.0
H356 H 0.5679 0.69027 0.36908 0.0
H357 H 0.55598 0.72518 0.38559 0.0
H358 H 0.49324 0.70411 0.38204 0.0
H359 H 0.505 0.66938 0.3663 0.0
H360 H 0.53112 0.74737 0.333 0.0
H361 H 0.49392 0.73886 0.48792 0.0
H362 H 0.51168 0.72007 0.46725 0.0
H363 H 0.48527 0.72008 0.4508 0.0
C364 C 0.55161 0.69314 0.3724 0.0
C365 C 0.53732 0.67733 0.36637 0.0
C366 C 0.54485 0.71295 0.38199 0.0
C367 C 0.52378 0.71701 0.38585 0.0
C368 C 0.50957 0.70111 0.38038 0.0
H369 H 0.44474 0.82098 0.35975 0.0
H370 H 0.45925 0.78653 0.37173 0.0
C371 C 0.5163 0.68137 0.3709 0.0
C372 C 0.51637 0.73823 0.3904 0.0
H373 H 0.4841 0.7686 0.44745 0.0
C374 C 0.52114 0.75215 0.35839 0.0
C375 C 0.50324 0.74423 0.42346 0.0
C376 C 0.49838 0.73007 0.45952 0.0
C377 C 0.51245 0.77177 0.35765 0.0
C378 C 0.49888 0.77755 0.39003 0.0
C379 C 0.49445 0.76389 0.42264 0.0
C380 C 0.48916 0.79786 0.38981 0.0
C381 C 0.51732 0.78599 0.32161 0.0
C382 C 0.50115 0.81529 0.39728 0.0
C383 C 0.49303 0.83474 0.39018 0.0
C384 C 0.47281 0.83694 0.37578 0.0
C385 C 0.4604 0.81953 0.37074 0.0
C386 C 0.4686 0.79998 0.37769 0.0
H387 H 0.52539 0.77793 0.29574 0.0
H388 H 0.50304 0.793 0.30904 0.0
H389 H 0.52731 0.79864 0.33286 0.0
H390 H 0.51703 0.81378 0.40681 0.0
H391 H 0.50281 0.84801 0.39467 0.0
H392 H 0.07114 0.81061 0.60081 0.0
H393 H 0.03771 0.79467 0.61281 0.0
H394 H 0.06752 0.74056 0.66217 0.0
H395 H 0.10107 0.75636 0.64966 0.0
H396 H 0.04032 0.73219 0.599 0.0
H397 H 1.00396 0.78256 0.7175 0.0
H398 H 0.01423 0.79675 0.67414 0.0
H399 H 0.03127 0.78255 0.70779 0.0
C400 C 0.07052 0.79546 0.61488 0.0
C401 C 0.08857 0.78463 0.62421 0.0
C402 C 0.05145 0.78645 0.62204 0.0
C403 C 0.05019 0.76658 0.63895 0.0
C404 C 0.06823 0.75599 0.64943 0.0
H405 H 0.92927 0.70987 0.67517 0.0
H406 H 0.9648 0.72051 0.68857 0.0
C407 C 0.08732 0.76499 0.64222 0.0
C408 C 0.03019 0.75607 0.64102 0.0
H409 H 0.98109 0.76171 0.67598 0.0
C410 C 0.02745 0.73841 0.61646 0.0
C411 C 0.01353 0.76413 0.66413 0.0
C412 C 0.01592 0.78243 0.69272 0.0
C413 C 0.00815 0.72924 0.6125 0.0
C414 C 0.99122 0.73815 0.63329 0.0
C415 C 0.99415 0.75509 0.65978 0.0
C416 C 0.97015 0.73108 0.6253 0.0
C417 C 0.00588 0.71043 0.58528 0.0
C418 C 0.96156 0.7337 0.58543 0.0
C419 C 0.94139 0.72776 0.57779 0.0
C420 C 0.92955 0.71915 0.60997 0.0
C421 C 0.93818 0.71642 0.64986 0.0
C422 C 0.95837 0.72249 0.65755 0.0
H423 H 0.02077 0.70238 0.58091 0.0
H424 H 0.99466 0.69949 0.59896 0.0
H425 H 1.00018 0.71514 0.55398 0.0
H426 H 0.97039 0.74063 0.56038 0.0
H427 H 0.93501 0.73007 0.54682 0.0
H428 H 0.9619 0.32155 0.80692 0.0
H429 H 0.97375 0.28681 0.82244 0.0
H430 H 0.96517 0.29781 0.95453 0.0
H431 H 0.95351 0.33294 0.93911 0.0
H432 H 1.00354 0.28198 0.9348 0.0
H433 H 0.94239 0.23611 0.86014 0.0
H434 H 0.95206 0.25535 0.82515 0.0
H435 H 0.9392 0.26302 0.87258 0.0
C436 C 0.96223 0.31645 0.83921 0.0
C437 C 0.95682 0.32977 0.87187 0.0
C438 C 0.96888 0.2966 0.84801 0.0
C439 C 0.97002 0.28974 0.88956 0.0
C440 C 0.96421 0.30288 0.92228 0.0
H441 H 0.00498 0.16146 0.90283 0.0
H442 H 0.98818 0.19364 0.92192 0.0
C443 C 0.95755 0.32282 0.91345 0.0
C444 C 0.97877 0.26933 0.89829 0.0
H445 H 0.97547 0.21957 0.86664 0.0
C446 C 0.99722 0.26818 0.92079 0.0
C447 C 0.97028 0.25139 0.88058 0.0
C448 C 0.94977 0.25149 0.85866 0.0
C449 C 0.00817 0.24966 0.92356 0.0
C450 C 1.00058 0.23216 0.90246 0.0
C451 C 0.98144 0.23308 0.88239 0.0
C452 C 0.01256 0.21301 0.89826 0.0
C453 C 0.02783 0.24917 0.9484 0.0
C454 C 0.0321 0.21325 0.8796 0.0
C455 C 0.04191 0.1948 0.86936 0.0
C456 C 0.03197 0.17607 0.87663 0.0
C457 C 0.0128 0.17583 0.89653 0.0
C458 C 1.00324 0.19415 0.9076 0.0
H459 H 0.02758 0.26076 0.97394 0.0
H460 H 0.03061 0.23375 0.96226 0.0
H461 H 0.04086 0.25298 0.92743 0.0
H462 H 0.03933 0.22763 0.8711 0.0
H463 H 0.0567 0.19522 0.85389 0.0
H464 H 0.58401 0.7883 0.85079 0.0
H465 H 0.54851 0.77734 0.84018 0.0
H466 H 0.53359 0.7964 0.96606 0.0
H467 H 0.56929 0.8065 0.97732 0.0
H468 H 0.52252 0.75825 0.95263 0.0
H469 H 0.49484 0.80596 0.82053 0.0
H470 H 0.51812 0.79251 0.80828 0.0
H471 H 0.5181 0.81177 0.84875 0.0
C472 C 0.57302 0.79044 0.87586 0.0
C473 C 0.57924 0.79802 0.91494 0.0
C474 C 0.55274 0.78437 0.86966 0.0
C475 C 0.53838 0.78629 0.90217 0.0
C476 C 0.54446 0.79483 0.94057 0.0
H477 H 0.40881 0.76059 0.89962 0.0
H478 H 0.44256 0.77673 0.89321 0.0
C479 C 0.56479 0.80054 0.94701 0.0
C480 C 0.51777 0.77717 0.89808 0.0
H481 H 0.47461 0.77638 0.83775 0.0
C482 C 0.51199 0.76235 0.92769 0.0
C483 C 0.50407 0.78261 0.86559 0.0
C484 C 0.50901 0.79924 0.83424 0.0
C485 C 0.49286 0.75276 0.9258 0.0
C486 C 0.47947 0.75755 0.89235 0.0
C487 C 0.48513 0.7725 0.86286 0.0
C488 C 0.4591 0.7479 0.88913 0.0
C489 C 0.48703 0.73798 0.96031 0.0
C490 C 0.45726 0.72643 0.8871 0.0
C491 C 0.4381 0.71721 0.89158 0.0
C492 C 0.42056 0.72941 0.89707 0.0
C493 C 0.4222 0.75091 0.89559 0.0
C494 C 0.44141 0.76012 0.89184 0.0
H495 H 0.49651 0.74031 0.98882 0.0
H496 H 0.47063 0.73972 0.96903 0.0
H497 H 0.48954 0.72198 0.94939 0.0
H498 H 0.47074 0.7168 0.88395 0.0
H499 H 0.43709 0.70059 0.89212 0.0
H500 H 0.49713 0.34616 0.61419 0.0
H501 H 0.51203 0.31256 0.59894 0.0
H502 H 0.46302 0.28326 0.66748 0.0
H503 H 0.44765 0.317 0.68169 0.0
H504 H 0.52595 0.2896 0.66213 0.0
H505 H 0.47035 0.24452 0.56888 0.0
H506 H 0.46888 0.27217 0.57353 0.0
H507 H 0.45879 0.25594 0.61426 0.0
C508 C 0.48927 0.33249 0.62509 0.0
C509 C 0.47142 0.33398 0.64942 0.0
C510 C 0.49774 0.31336 0.61622 0.0
C511 C 0.48857 0.29548 0.63189 0.0
C512 C 0.47008 0.29688 0.65434 0.0
H513 H 0.5397 0.18829 0.73398 0.0
H514 H 0.52699 0.22261 0.71655 0.0
C515 C 0.46141 0.31609 0.66275 0.0
C516 C 0.50003 0.27597 0.63063 0.0
H517 H 0.49566 0.22504 0.60752 0.0
C518 C 0.51949 0.27556 0.64943 0.0
C519 C 0.49165 0.25777 0.6137 0.0
C520 C 0.47135 0.25763 0.59107 0.0
C521 C 0.53036 0.25716 0.65375 0.0
C522 C 0.52132 0.23875 0.63958 0.0
C523 C 0.5024 0.23927 0.61867 0.0
C524 C 0.53037 0.21866 0.6496 0.0
C525 C 0.55118 0.25751 0.67438 0.0
C526 C 0.53635 0.20521 0.61758 0.0
C527 C 0.54358 0.18561 0.62748 0.0
C528 C 0.54467 0.17928 0.66944 0.0
C529 C 0.53906 0.19292 0.70142 0.0
C530 C 0.53189 0.21248 0.69153 0.0
H531 H 0.55845 0.27291 0.67178 0.0
H532 H 0.54943 0.25391 0.70815 0.0
H533 H 0.56159 0.24589 0.66029 0.0
H534 H 0.53514 0.20978 0.58506 0.0
H535 H 0.54777 0.17524 0.60234 0.0
H536 H 0.9296 0.2342 0.49293 0.0
H537 H 0.96375 0.24783 0.47856 0.0
H538 H 0.96329 0.21893 0.35696 0.0
H539 H 0.92881 0.2054 0.37098 0.0
H540 H 0.99897 0.22433 0.45872 0.0
H541 H 0.97792 0.28038 0.33387 0.0
H542 H 0.95917 0.26945 0.36903 0.0
H543 H 0.96951 0.25423 0.3272 0.0
C544 C 0.9368 0.23073 0.46318 0.0
C545 C 0.92673 0.21884 0.43297 0.0
C546 C 0.95621 0.23853 0.45501 0.0
C547 C 0.96575 0.23455 0.41656 0.0
C548 C 0.95589 0.22239 0.3865 0.0
H549 H 0.09557 0.25929 0.3951 0.0
H550 H 0.06185 0.24416 0.38286 0.0
C551 C 0.93638 0.21458 0.39466 0.0
C552 C 0.98635 0.24277 0.40907 0.0
H553 H 0.01271 0.27914 0.35424 0.0
C554 C 1.00209 0.23616 0.43563 0.0
C555 C 0.99005 0.2583 0.3791 0.0
C556 C 0.9733 0.26618 0.35075 0.0
C557 C 0.02149 0.24512 0.43391 0.0
C558 C 0.02525 0.26072 0.40405 0.0
C559 C 0.00964 0.26706 0.3768 0.0
C560 C 0.04512 0.27121 0.40265 0.0
C561 C 0.03754 0.2384 0.46522 0.0
C562 C 0.04664 0.29178 0.41554 0.0
C563 C 0.0659 0.30056 0.42207 0.0
C564 C 0.0836 0.28867 0.41614 0.0
C565 C 0.08201 0.26858 0.40057 0.0
C566 C 0.06286 0.25996 0.39343 0.0
H567 H 0.03074 0.22963 0.49164 0.0
H568 H 0.04888 0.2283 0.44941 0.0
H569 H 0.04585 0.25187 0.47814 0.0
H570 H 0.03299 0.30063 0.4227 0.0
H571 H 0.06691 0.31615 0.43383 0.0
H572 H 0.06698 0.69334 0.17844 0.0
H573 H 0.05091 0.72732 0.17046 0.0
H574 H 1.00432 0.70082 0.09129 0.0
H575 H 0.02 0.66693 0.09979 0.0
H576 H 0.03741 0.75282 0.10002 0.0
H577 H 0.97375 0.72178 0.19725 0.0
H578 H 0.99814 0.70887 0.19221 0.0
H579 H 0.97954 0.70729 0.15085 0.0
C580 C 0.05362 0.69494 0.15853 0.0
C581 C 0.04447 0.67764 0.14022 0.0
C582 C 0.04449 0.71427 0.15399 0.0
C583 C 0.02627 0.71635 0.13094 0.0
C584 C 0.01821 0.69936 0.1097 0.0
H585 H 0.96057 0.83283 0.09505 0.0
H586 H 0.97641 0.79921 0.08131 0.0
C587 C 0.02717 0.68009 0.11456 0.0
C588 C 0.01439 0.73558 0.13306 0.0
H589 H 0.97004 0.75565 0.17231 0.0
C590 C 0.02263 0.75351 0.11557 0.0
C591 C 0.99525 0.73628 0.15388 0.0
C592 C 0.98616 0.7176 0.17497 0.0
C593 C 0.01219 0.77233 0.11859 0.0
C594 C 0.99297 0.77296 0.13911 0.0
C595 C 0.98468 0.75497 0.1562 0.0
C596 C 0.98205 0.79246 0.14666 0.0
C597 C 0.02211 0.79146 0.1012 0.0
C598 C 0.97923 0.79921 0.18794 0.0
C599 C 0.97005 0.81814 0.1958 0.0
C600 C 0.96354 0.83058 0.16248 0.0
C601 C 0.96554 0.82346 0.1212 0.0
C602 C 0.97472 0.80443 0.11332 0.0
H603 H 0.03858 0.78899 0.09374 0.0
H604 H 0.01413 0.79604 0.07196 0.0
H605 H 0.02082 0.80439 0.12375 0.0
H606 H 0.98469 0.79007 0.21404 0.0
H607 H 0.96865 0.82332 0.22792 0.0
H608 H 0.10568 0.13426 0.92945 0.0
H609 H 0.1389 0.1443 0.95769 0.0
H610 H 0.16743 0.09276 0.89588 0.0
H611 H 0.13401 0.08247 0.86714 0.0
H612 H 0.18165 0.1032 0.98416 0.0
H613 H 0.1821 0.16837 0.8716 0.0
H614 H 0.15912 0.16586 0.90231 0.0
H615 H 0.16575 0.14619 0.86521 0.0
C616 C 0.11892 0.1248 0.92231 0.0
C617 C 0.11723 0.10769 0.89556 0.0
C618 C 0.1379 0.13061 0.9385 0.0
C619 C 0.15561 0.11949 0.92824 0.0
C620 C 0.15388 0.10158 0.90394 0.0
H621 H 0.2794 0.16857 0.94451 0.0
H622 H 0.2472 0.15288 0.92147 0.0
C623 C 0.13479 0.09569 0.88769 0.0
C624 C 0.17594 0.12766 0.94034 0.0
H625 H 0.20787 0.16843 0.92387 0.0
C626 C 0.18749 0.11738 0.97089 0.0
C627 C 0.18357 0.14604 0.92252 0.0
C628 C 0.17212 0.15723 0.88832 0.0
C629 C 0.20631 0.12536 0.98496 0.0
C630 C 0.21354 0.1442 0.96833 0.0
C631 C 0.20221 0.15413 0.93692 0.0
C632 C 0.23293 0.15383 0.98262 0.0
C633 C 0.21839 0.11347 1.01718 0.0
C634 C 0.23541 0.16002 0.02443 0.0
C635 C 0.25378 0.16905 0.03763 0.0
C636 C 0.2699 0.17213 1.00913 0.0
C637 C 0.26721 0.16639 0.96711 0.0
C638 C 0.24886 0.15738 0.95395 0.0
H639 H 0.21356 0.0971 0.01857 0.0
H640 H 0.23508 0.11409 1.01035 0.0
H641 H 0.21579 0.12037 0.0485 0.0
H642 H 0.22314 0.15786 0.04686 0.0
H643 H 0.25547 0.17336 0.0702 0.0
H644 H 0.63341 0.35677 0.18862 0.0
H645 H 0.62399 0.39048 0.21632 0.0
H646 H 0.6697 0.41903 0.1382 0.0
H647 H 0.67936 0.38515 0.1101 0.0
H648 H 0.65793 0.43024 0.24426 0.0
H649 H 0.60103 0.43599 0.11443 0.0
H650 H 0.60646 0.41133 0.13791 0.0
H651 H 0.62564 0.42376 0.10679 0.0
C652 C 0.64181 0.37014 0.17793 0.0
C653 C 0.65708 0.36831 0.14699 0.0
C654 C 0.6364 0.38937 0.19387 0.0
C655 C 0.64609 0.40715 0.17912 0.0
C656 C 0.66213 0.40539 0.15001 0.0
H657 H 0.59916 0.53206 0.19511 0.0
H658 H 0.61543 0.49986 0.17353 0.0
C659 C 0.66768 0.38605 0.13416 0.0
C660 C 0.63786 0.42751 0.19118 0.0
H661 H 0.60032 0.4619 0.16563 0.0
C662 C 0.64545 0.43731 0.22702 0.0
C663 C 0.62161 0.43658 0.16848 0.0
C664 C 0.6131 0.42651 0.12965 0.0
C665 C 0.63705 0.45604 0.24096 0.0
C666 C 0.62032 0.46486 0.21896 0.0
C667 C 0.61302 0.45511 0.18267 0.0
C668 C 0.61029 0.48431 0.23252 0.0
C669 C 0.6464 0.46634 0.27871 0.0
C670 C 0.60157 0.4862 0.27261 0.0
C671 C 0.59234 0.50468 0.2851 0.0
C672 C 0.59143 0.52146 0.25748 0.0
C673 C 0.59962 0.51935 0.21703 0.0
C674 C 0.60896 0.50097 0.20469 0.0
H675 H 0.66236 0.46098 0.28429 0.0
H676 H 0.64654 0.48332 0.27508 0.0
H677 H 0.6372 0.46248 0.30685 0.0
H678 H 0.60187 0.47338 0.29423 0.0
H679 H 0.58606 0.50588 0.3164 0.0
H680 H 0.37277 0.9278 0.34313 0.0
H681 H 0.33904 0.91748 0.37051 0.0
H682 H 0.36852 0.87708 0.459 0.0
H683 H 0.4021 0.88703 0.43161 0.0
H684 H 0.32876 0.86979 0.3741 0.0
H685 H 0.32182 0.91293 0.52394 0.0
H686 H 0.33641 0.92263 0.48002 0.0
H687 H 0.34637 0.90187 0.51085 0.0
C688 C 0.37206 0.91714 0.36915 0.0
C689 C 0.39007 0.90823 0.38524 0.0
C690 C 0.35281 0.91117 0.38456 0.0
C691 C 0.35135 0.89656 0.4168 0.0
C692 C 0.36934 0.88847 0.4343 0.0
H693 H 0.2549 0.83386 0.55356 0.0
H694 H 0.28724 0.84873 0.52855 0.0
C695 C 0.3885 0.89417 0.41857 0.0
C696 C 0.3312 0.88819 0.42977 0.0
H697 H 0.29693 0.8874 0.51054 0.0
C698 C 0.32163 0.87376 0.40371 0.0
C699 C 0.32225 0.89314 0.46873 0.0
C700 C 0.3321 0.90856 0.49764 0.0
C701 C 0.30349 0.86377 0.41597 0.0
C702 C 0.29431 0.86886 0.45487 0.0
C703 C 0.30389 0.88348 0.48075 0.0
C704 C 0.27483 0.8592 0.46935 0.0
C705 C 0.29484 0.84731 0.38775 0.0
C706 C 0.25706 0.86012 0.44456 0.0
C707 C 0.23872 0.85131 0.45849 0.0
C708 C 0.23765 0.84179 0.49791 0.0
C709 C 0.25534 0.84099 0.52293 0.0
C710 C 0.27378 0.84957 0.50872 0.0
H711 H 0.3068 0.84082 0.36677 0.0
H712 H 0.288 0.83456 0.40614 0.0
H713 H 0.28271 0.85412 0.36769 0.0
H714 H 0.25724 0.86796 0.41466 0.0
H715 H 0.22523 0.85241 0.43881 0.0
H716 H 0.82882 0.62674 0.6157 0.0
H717 H 0.83734 0.59339 0.64768 0.0
H718 H 0.89354 0.61892 0.6961 0.0
H719 H 0.88518 0.652 0.66485 0.0
H720 H 0.87321 0.57044 0.62837 0.0
H721 H 0.87001 0.58859 0.79771 0.0
H722 H 0.85794 0.60454 0.75849 0.0
H723 H 0.88506 0.6065 0.76797 0.0
C724 C 0.84276 0.62532 0.63391 0.0
C725 C 0.85632 0.64202 0.63764 0.0
C726 C 0.84765 0.60627 0.65201 0.0
C727 C 0.86597 0.60374 0.67467 0.0
C728 C 0.87915 0.62058 0.67945 0.0
H729 H 0.93887 0.50497 0.78128 0.0
H730 H 0.9249 0.53809 0.75719 0.0
C731 C 0.87439 0.63948 0.66123 0.0
C732 C 0.87237 0.58324 0.69046 0.0
H733 H 0.88776 0.55777 0.77864 0.0
C734 C 0.87613 0.56755 0.66128 0.0
C735 C 0.8764 0.5796 0.73335 0.0
C736 C 0.87197 0.59563 0.76627 0.0
C737 C 0.8844 0.54853 0.67366 0.0
C738 C 0.88865 0.54497 0.71653 0.0
C739 C 0.88461 0.56056 0.74579 0.0
C740 C 0.89706 0.52505 0.73158 0.0
C741 C 0.88915 0.53269 0.64052 0.0
C742 C 0.88592 0.50684 0.72575 0.0
C743 C 0.89388 0.48803 0.73927 0.0
C744 C 0.91307 0.48705 0.75925 0.0
C745 C 0.9241 0.5053 0.76579 0.0
C746 C 0.91611 0.52419 0.75214 0.0
H747 H 0.89023 0.5397 0.60888 0.0
H748 H 0.90378 0.52461 0.64741 0.0
H749 H 0.87669 0.52109 0.63981 0.0
H750 H 0.87101 0.50718 0.71082 0.0
H751 H 0.88495 0.47423 0.73411 0.0
H752 H 0.74819 0.81724 0.04255 0.0
H753 H 0.7801 0.83238 0.06896 0.0
H754 H 0.76369 0.89047 1.01257 0.0
H755 H 0.7312 0.87575 0.98912 0.0
H756 H 0.81201 0.84726 0.03696 0.0
H757 H 0.77642 0.91114 0.12466 0.0
H758 H 0.76138 0.89092 0.10147 0.0
H759 H 0.76964 0.91259 0.07045 0.0
C760 C 0.75145 0.83324 0.03599 0.0
C761 C 0.73722 0.84541 1.01428 0.0
C762 C 0.76967 0.84192 0.05107 0.0
C763 C 0.77416 0.86282 0.04392 0.0
C764 C 0.76031 0.87462 0.02021 0.0
H765 H 0.90044 0.90515 0.0788 0.0
H766 H 0.86737 0.89562 0.04797 0.0
C767 C 0.74184 0.86612 1.00632 0.0
C768 C 0.79344 0.8721 0.06055 0.0
H769 H 0.81253 0.9137 0.11306 0.0
C770 C 0.81206 0.86172 0.05389 0.0
C771 C 0.79362 0.89079 0.08346 0.0
C772 C 0.77415 0.90185 0.09583 0.0
C773 C 0.83073 0.86943 0.06915 0.0
C774 C 0.83107 0.88879 0.08967 0.0
C775 C 0.81244 0.89911 0.09661 0.0
C776 C 0.85041 0.89801 0.10616 0.0
C777 C 0.84967 0.85624 0.06446 0.0
C778 C 0.85159 0.90449 0.14812 0.0
C779 C 0.87028 0.91099 0.16511 0.0
C780 C 0.88814 0.9108 0.14061 0.0
C781 C 0.88679 0.90548 0.09816 0.0
C782 C 0.86798 0.89965 0.08081 0.0
H783 H 0.84567 0.83972 0.06102 0.0
H784 H 0.85809 0.8609 0.03582 0.0
H785 H 0.86004 0.85784 0.09182 0.0
H786 H 0.8383 0.90355 0.16838 0.0
H787 H 0.87106 0.91469 0.19814 0.0
H788 H 0.33078 0.62424 0.92415 0.0
H789 H 0.34018 0.59029 0.89586 0.0
H790 H 0.38786 0.61831 0.8219 0.0
H791 H 0.3787 0.65198 0.84969 0.0
H792 H 0.34635 0.57488 0.80654 0.0
H793 H 0.417 0.57651 0.90374 0.0
H794 H 0.39514 0.59281 0.91422 0.0
H795 H 0.41254 0.59909 0.87256 0.0
C796 C 0.34293 0.62318 0.90113 0.0
C797 C 0.35415 0.64075 0.88955 0.0
C798 C 0.34834 0.6038 0.88514 0.0
C799 C 0.36497 0.60181 0.85743 0.0
C800 C 0.3752 0.6195 0.84376 0.0
H801 H 0.43959 0.50459 0.75087 0.0
H802 H 0.42434 0.53742 0.77295 0.0
C803 C 0.3699 0.63874 0.85968 0.0
C804 C 0.37274 0.58131 0.84469 0.0
H805 H 0.41462 0.54996 0.85328 0.0
C806 C 0.36118 0.56929 0.81697 0.0
C807 C 0.39214 0.57416 0.85827 0.0
C808 C 0.40491 0.58619 0.88911 0.0
C809 C 0.3688 0.55052 0.80149 0.0
C810 C 0.38833 0.54347 0.81475 0.0
C811 C 0.39973 0.55542 0.84292 0.0
C812 C 0.39722 0.52366 0.8002 0.0
C813 C 0.35615 0.53871 0.77012 0.0
C814 C 0.38717 0.50504 0.80862 0.0
C815 C 0.39584 0.48637 0.79603 0.0
C816 C 0.4148 0.48592 0.7751 0.0
C817 C 0.42495 0.50451 0.76691 0.0
C818 C 0.41625 0.52324 0.77948 0.0
H819 H 0.34451 0.54866 0.75478 0.0
H820 H 0.36603 0.53176 0.74557 0.0
H821 H 0.34793 0.52611 0.78645 0.0
H822 H 0.37275 0.50492 0.82545 0.0
H823 H 0.38772 0.47225 0.80296 0.0
H824 H 0.60356 0.12178 0.59687 0.0
H825 H 0.63634 0.13007 0.56437 0.0
H826 H 0.66696 0.08753 0.64702 0.0
H827 H 0.63395 0.07916 0.68011 0.0
H828 H 0.68305 0.12783 0.64825 0.0
H829 H 0.6755 0.09967 0.48531 0.0
H830 H 0.65399 0.11476 0.50241 0.0
H831 H 0.65938 0.09057 0.52741 0.0
C832 C 0.61719 0.11376 0.60747 0.0
C833 C 0.61619 0.09982 0.64107 0.0
C834 C 0.63592 0.11847 0.5887 0.0
C835 C 0.65409 0.10934 0.60306 0.0
C836 C 0.65307 0.09466 0.63532 0.0
H837 H 0.77489 0.1315 0.49767 0.0
H838 H 0.74255 0.11651 0.52123 0.0
C839 C 0.63421 0.08978 0.65397 0.0
C840 C 0.67412 0.1169 0.58731 0.0
H841 H 0.70183 0.12456 0.49789 0.0
C842 C 0.68728 0.12692 0.61546 0.0
C843 C 0.6796 0.1157 0.54453 0.0
C844 C 0.66647 0.10443 0.51319 0.0
C845 C 0.70552 0.13623 0.6018 0.0
C846 C 0.7106 0.13574 0.55875 0.0
C847 C 0.69774 0.12521 0.53078 0.0
C848 C 0.72965 0.14533 0.54246 0.0
C849 C 0.7193 0.14637 0.63362 0.0
C850 C 0.73294 0.16665 0.5456 0.0
C851 C 0.75147 0.17531 0.532 0.0
C852 C 0.76691 0.16275 0.51505 0.0
C853 C 0.76328 0.14155 0.51073 0.0
C854 C 0.7448 0.13295 0.52416 0.0
H855 H 0.71568 0.14132 0.66602 0.0
H856 H 0.73567 0.14292 0.62702 0.0
H857 H 0.71718 0.16329 0.63202 0.0
H858 H 0.72128 0.17654 0.55899 0.0
H859 H 0.75389 0.19169 0.53561 0.0
H860 H 0.17846 0.38789 0.42319 0.0
H861 H 0.1683 0.42114 0.39275 0.0
H862 H 0.11943 0.39133 0.32526 0.0
H863 H 0.12929 0.35834 0.35542 0.0
H864 H 0.16152 0.43557 0.30654 0.0
H865 H 0.09018 0.43397 0.40148 0.0
H866 H 0.11179 0.41738 0.41215 0.0
H867 H 0.09439 0.41137 0.37029 0.0
C868 C 0.16586 0.38838 0.40113 0.0
C869 C 0.15453 0.37052 0.39214 0.0
C870 C 0.16001 0.40738 0.38393 0.0
C871 C 0.1428 0.40873 0.35754 0.0
C872 C 0.13246 0.39069 0.34627 0.0
H873 H 0.06939 0.50634 0.24599 0.0
H874 H 0.08399 0.47326 0.26855 0.0
C875 C 0.13819 0.37183 0.36347 0.0
C876 C 0.13476 0.42897 0.34355 0.0
H877 H 0.09261 0.46012 0.35007 0.0
C878 C 0.14652 0.44103 0.3162 0.0
C879 C 0.11516 0.43603 0.3562 0.0
C880 C 0.10218 0.42414 0.38694 0.0
C881 C 0.13897 0.45976 0.30034 0.0
C882 C 0.11928 0.46673 0.31275 0.0
C883 C 0.10762 0.45471 0.34034 0.0
C884 C 0.11064 0.48668 0.2983 0.0
C885 C 0.15193 0.47168 0.26964 0.0
C886 C 0.12058 0.50518 0.3081 0.0
C887 C 0.11226 0.52399 0.29536 0.0
C888 C 0.09377 0.5247 0.27279 0.0
C889 C 0.08367 0.50622 0.26332 0.0
C890 C 0.09201 0.48735 0.27613 0.0
H891 H 0.16378 0.46179 0.25478 0.0
H892 H 0.1423 0.47863 0.24469 0.0
H893 H 0.1599 0.48428 0.28643 0.0
H894 H 0.13468 0.5051 0.32601 0.0
H895 H 0.12034 0.53801 0.30328 0.0
H896 H 0.63402 0.57957 0.36872 0.0
H897 H 0.66647 0.58856 0.40343 0.0
H898 H 0.63868 0.64383 0.45206 0.0
H899 H 0.60648 0.63487 0.41882 0.0
H900 H 0.68967 0.6228 0.38827 0.0
H901 H 0.66697 0.6223 0.55502 0.0
H902 H 0.65144 0.61067 0.5147 0.0
H903 H 0.65008 0.63794 0.52418 0.0
C904 C 0.63473 0.59338 0.3876 0.0
C905 C 0.61762 0.60647 0.39091 0.0
C906 C 0.6533 0.59855 0.40726 0.0
C907 C 0.65495 0.61674 0.43089 0.0
C908 C 0.63772 0.62949 0.43493 0.0
H909 H 0.75328 0.69505 0.52177 0.0
H910 H 0.72033 0.68066 0.49781 0.0
C911 C 0.61929 0.62438 0.41546 0.0
C912 C 0.67493 0.62349 0.4486 0.0
H913 H 0.69757 0.64127 0.53814 0.0
C914 C 0.69147 0.62656 0.42114 0.0
C915 C 0.67728 0.62849 0.49152 0.0
C916 C 0.66055 0.62448 0.5231 0.0
C917 C 0.71003 0.63508 0.43517 0.0
C918 C 0.7121 0.64066 0.4777 0.0
C919 C 0.69577 0.63725 0.50539 0.0
C920 C 0.73148 0.64936 0.4941 0.0
C921 C 0.72724 0.63847 0.40439 0.0
C922 C 0.74839 0.63645 0.50053 0.0
C923 C 0.76701 0.64455 0.51435 0.0
C924 C 0.76912 0.66575 0.52186 0.0
C925 C 0.75205 0.67867 0.51621 0.0
C926 C 0.7333 0.67048 0.50255 0.0
H927 H 0.72235 0.63573 0.37155 0.0
H928 H 0.73316 0.65442 0.40709 0.0
H929 H 0.74008 0.62784 0.41176 0.0
H930 H 0.74723 0.6201 0.49438 0.0
H931 H 0.77988 0.6342 0.51845 0.0
H932 H 0.06588 0.00862 0.75229 0.0
H933 H 0.08035 0.97591 0.72713 0.0
H934 H 0.14091 0.99621 0.76213 0.0
H935 H 0.12662 0.02867 0.78733 0.0
H936 H 0.1111 0.97159 0.66332 0.0
H937 H 0.13647 0.93841 0.81501 0.0
H938 H 0.11797 0.95905 0.81163 0.0
H939 H 0.14485 0.9643 0.80535 0.0
C940 C 0.08222 0.00593 0.75506 0.0
C941 C 0.09512 0.0211 0.77185 0.0
C942 C 0.09048 0.98733 0.74058 0.0
C943 C 0.11168 0.98358 0.74315 0.0
C944 C 0.12449 0.99863 0.76046 0.0
H945 H 0.179 0.8885 0.60278 0.0
H946 H 0.16963 0.92149 0.63557 0.0
C947 C 0.11629 0.0172 0.77471 0.0
C948 C 0.12063 0.96434 0.7261 0.0
H949 H 0.14729 0.9211 0.7535 0.0
C950 C 0.11902 0.96054 0.68298 0.0
C951 C 0.13095 0.94998 0.7519 0.0
C952 C 0.13257 0.95297 0.79861 0.0
C953 C 0.12747 0.94275 0.66493 0.0
C954 C 0.13796 0.92849 0.69066 0.0
C955 C 0.13954 0.93225 0.73379 0.0
C956 C 0.14549 0.9086 0.67396 0.0
C957 C 0.12464 0.939 0.61868 0.0
C958 C 0.13553 0.89045 0.68585 0.0
C959 C 0.14079 0.87178 0.66727 0.0
C960 C 0.15627 0.87081 0.63667 0.0
C961 C 0.16708 0.8888 0.6264 0.0
C962 C 0.16164 0.90763 0.64482 0.0
H963 H 0.11353 0.94993 0.60446 0.0
H964 H 0.1396 0.94081 0.60251 0.0
H965 H 0.11919 0.92307 0.61302 0.0
H966 H 0.12311 0.89085 0.70838 0.0
H967 H 0.13228 0.85814 0.67606 0.0
H968 H 0.7254 0.34872 0.94693 0.0
H969 H 0.75726 0.36526 0.92399 0.0
H970 H 0.78563 0.34993 0.04186 0.0
H971 H 0.75372 0.33346 0.06514 0.0
H972 H 0.77901 0.39918 0.9699 0.0
H973 H 0.82524 0.32809 0.94675 0.0
H974 H 0.79753 0.32795 0.94696 0.0
H975 H 0.81137 0.33014 0.99528 0.0
C976 C 0.7385 0.3487 0.96778 0.0
C977 C 0.73717 0.33974 1.00773 0.0
C978 C 0.75662 0.35824 0.95473 0.0
C979 C 0.77376 0.35877 0.98121 0.0
C980 C 0.77258 0.34956 0.02089 0.0
H981 H 0.89935 0.39637 0.94871 0.0
H982 H 0.8663 0.38648 0.97844 0.0
C983 C 0.7544 0.34014 0.0341 0.0
C984 C 0.79283 0.36913 0.96748 0.0
H985 H 0.84239 0.35971 0.93928 0.0
C986 C 0.79291 0.39062 0.96314 0.0
C987 C 0.81085 0.35787 0.95875 0.0
C988 C 0.81136 0.33472 0.96181 0.0
C989 C 0.81077 0.40122 0.95107 0.0
C990 C 0.82884 0.38994 0.94225 0.0
C991 C 0.8286 0.3684 0.94633 0.0
C992 C 0.84826 0.39983 0.92845 0.0
C993 C 0.81022 0.42438 0.94888 0.0
C994 C 0.84913 0.41151 0.8914 0.0
C995 C 0.8681 0.4176 0.87481 0.0
C996 C 0.88641 0.41171 0.89463 0.0
C997 C 0.88543 0.40117 0.93294 0.0
C998 C 0.86655 0.3954 0.9498 0.0
H999 H 0.79759 0.43083 0.96822 0.0
H1000 H 0.82495 0.43115 0.95953 0.0
H1001 H 0.80757 0.42917 0.91598 0.0
H1002 H 0.8353 0.41477 0.87387 0.0
H1003 H 0.86848 0.42536 0.8448 0.0
H1004 H 0.41191 0.97989 0.19112 0.0
H1005 H 0.39642 0.01262 0.16941 0.0
H1006 H 0.41171 0.03917 0.28898 0.0
H1007 H 0.42708 0.0064 0.31113 0.0
H1008 H 0.36282 0.03695 0.22844 0.0
H1009 H 0.43513 0.07651 0.18192 0.0
H1010 H 0.43242 0.04891 0.17828 0.0
H1011 H 0.43482 0.06086 0.22855 0.0
C1012 C 0.41211 0.99276 0.21265 0.0
C1013 C 0.42073 0.99067 0.25275 0.0
C1014 C 0.40318 0.01136 0.20029 0.0
C1015 C 0.40289 0.02819 0.22769 0.0
C1016 C 0.41179 0.02628 0.26749 0.0
H1017 H 0.37259 0.15601 0.19033 0.0
H1018 H 0.38323 0.12294 0.21928 0.0
C1019 C 0.42061 0.00763 0.28 0.0
C1020 C 0.39325 0.04778 0.21469 0.0
H1021 H 0.4045 0.09536 0.17642 0.0
C1022 C 0.37185 0.04978 0.21706 0.0
C1023 C 0.40515 0.06438 0.20008 0.0
C1024 C 0.42818 0.06273 0.19679 0.0
C1025 C 0.362 0.06821 0.2056 0.0
C1026 C 0.3739 0.08484 0.1905 0.0
C1027 C 0.39535 0.08268 0.1881 0.0
C1028 C 0.3647 0.10473 0.17707 0.0
C1029 C 0.33906 0.06983 0.21074 0.0
C1030 C 0.35016 0.1056 0.14457 0.0
C1031 C 0.34373 0.12461 0.12846 0.0
C1032 C 0.35207 0.14298 0.14405 0.0
C1033 C 0.3659 0.14208 0.17772 0.0
C1034 C 0.37206 0.12318 0.19417 0.0
H1035 H 0.3332 0.05848 0.23381 0.0
H1036 H 0.33447 0.08549 0.22102 0.0
H1037 H 0.33157 0.06662 0.18025 0.0
H1038 H 0.34458 0.09162 0.13018 0.0
H1039 H 0.33334 0.12485 0.102 0.0
H1040 H 0.25394 0.31721 0.53019 0.0
H1041 H 0.28693 0.33144 0.55388 0.0
H1042 H 0.26561 0.39263 0.52497 0.0
H1043 H 0.23297 0.37858 0.50099 0.0
H1044 H 0.30549 0.38561 0.49843 0.0
H1045 H 0.29472 0.36276 0.66455 0.0
H1046 H 0.29292 0.34201 0.62761 0.0
H1047 H 0.2741 0.36223 0.62687 0.0
C1048 C 0.25643 0.33366 0.52864 0.0
C1049 C 0.24091 0.3468 0.51398 0.0
C1050 C 0.27517 0.34178 0.54243 0.0
C1051 C 0.27858 0.36314 0.54181 0.0
C1052 C 0.26329 0.37614 0.52592 0.0
H1053 H 0.37457 0.42677 0.68225 0.0
H1054 H 0.34143 0.41792 0.65049 0.0
C1055 C 0.24464 0.36807 0.51225 0.0
C1056 C 0.2979 0.37217 0.55807 0.0
H1057 H 0.3268 0.37743 0.64656 0.0
C1058 C 0.31015 0.38385 0.53083 0.0
C1059 C 0.30372 0.37022 0.60055 0.0
C1060 C 0.29062 0.3588 0.63178 0.0
C1061 C 0.32831 0.39323 0.5447 0.0
C1062 C 0.3345 0.39066 0.58681 0.0
C1063 C 0.32203 0.37937 0.61427 0.0
C1064 C 0.35448 0.39841 0.60247 0.0
C1065 C 0.34064 0.40593 0.51424 0.0
C1066 C 0.37277 0.39073 0.58545 0.0
C1067 C 0.39161 0.39576 0.60341 0.0
C1068 C 0.39259 0.40852 0.63892 0.0
C1069 C 0.37434 0.41707 0.65469 0.0
C1070 C 0.3554 0.41191 0.63678 0.0
H1071 H 0.33104 0.41143 0.48776 0.0
H1072 H 0.34765 0.41943 0.52997 0.0
H1073 H 0.35317 0.39633 0.5011 0.0
H1074 H 0.37244 0.38005 0.55946 0.0
H1075 H 0.40538 0.38891 0.59047 0.0
H1076 H 0.88328 0.15146 0.37251 0.0
H1077 H 0.89289 0.11893 0.34033 0.0
H1078 H 0.839 0.09032 0.39253 0.0
H1079 H 0.82902 0.12322 0.42464 0.0
H1080 H 0.90182 0.08412 0.38511 0.0
H1081 H 0.83893 0.06898 0.27192 0.0
H1082 H 0.84319 0.09402 0.2947 0.0
H1083 H 0.8308 0.07421 0.32461 0.0
C1084 C 0.87324 0.13836 0.37671 0.0
C1085 C 0.85541 0.1399 0.40135 0.0
C1086 C 0.87879 0.11975 0.35824 0.0
C1087 C 0.86669 0.10217 0.36389 0.0
C1088 C 0.84842 0.10376 0.38717 0.0
H1089 H 0.88794 0.974 0.30098 0.0
H1090 H 0.87428 0.00683 0.32587 0.0
C1091 C 0.84274 0.12255 0.40556 0.0
C1092 C 0.87429 0.08205 0.3481 0.0
H1093 H 0.86351 0.04247 0.28135 0.0
C1094 C 0.89346 0.07505 0.36231 0.0
C1095 C 0.86334 0.07019 0.31852 0.0
C1096 C 0.843 0.07725 0.30119 0.0
C1097 C 0.90195 0.05649 0.34795 0.0
C1098 C 0.89113 0.04473 0.31801 0.0
C1099 C 0.87184 0.05159 0.3041 0.0
C1100 C 0.89938 0.025 0.30164 0.0
C1101 C 0.92224 0.04944 0.36563 0.0
C1102 C 0.91795 0.02432 0.27926 0.0
C1103 C 0.92585 1.00551 0.26503 0.0
C1104 C 0.91523 0.98713 0.27285 0.0
C1105 C 0.89651 0.98792 0.29464 0.0
C1106 C 0.88864 0.00667 0.30878 0.0
H1107 H 0.92604 0.05749 0.39531 0.0
H1108 H 0.92215 0.03261 0.37156 0.0
H1109 H 0.93459 0.05279 0.34271 0.0
H1110 H 0.92633 0.03833 0.27278 0.0
H1111 H 0.94024 1.00534 0.24807 0.0
H1112 H 0.13822 0.59586 0.19761 0.0
H1113 H 0.17152 0.60656 0.16994 0.0
H1114 H 0.14462 0.61407 0.04738 0.0
H1115 H 0.11096 0.605 0.07603 0.0
H1116 H 0.19816 0.59597 0.11703 0.0
H1117 H 0.16658 0.66981 0.06025 0.0
H1118 H 0.15149 0.65202 0.09043 0.0
H1119 H 0.1545 0.64853 0.03472 0.0
C1120 C 0.13955 0.59941 0.16458 0.0
C1121 C 0.1221 0.59968 0.1389 0.0
C1122 C 0.15858 0.60565 0.14877 0.0
C1123 C 0.16055 0.61189 0.10678 0.0
C1124 C 0.1434 0.61026 0.08026 0.0
H1125 H 0.28212 0.63329 0.99839 0.0
H1126 H 0.24947 0.61843 0.02065 0.0
C1127 C 0.12424 0.60472 0.09642 0.0
C1128 C 0.18025 0.62084 0.09149 0.0
H1129 H 0.2006 0.66188 0.03922 0.0
C1130 C 0.19868 0.61045 0.10021 0.0
C1131 C 0.18113 0.64005 0.07047 0.0
C1132 C 0.16239 0.65334 0.06387 0.0
C1133 C 0.2178 0.61858 0.08845 0.0
C1134 C 0.21856 0.63713 0.06512 0.0
C1135 C 0.20014 0.64755 0.05655 0.0
C1136 C 0.23821 0.6463 0.05002 0.0
C1137 C 0.23693 0.6075 0.10276 0.0
C1138 C 0.24242 0.66729 0.05666 0.0
C1139 C 0.26074 0.67601 0.04224 0.0
C1140 C 0.27537 0.66381 0.02176 0.0
C1141 C 0.27116 0.64294 1.0147 0.0
C1142 C 0.25259 0.63438 0.02789 0.0
H1143 H 0.23402 0.59842 0.13162 0.0
H1144 H 0.24189 0.59658 0.07807 0.0
H1145 H 0.24964 0.6184 0.10916 0.0
H1146 H 0.23161 0.67692 0.07339 0.0
H1147 H 0.26367 0.69215 0.04803 0.0
H1148 H 0.62125 0.03603 0.80494 0.0
H1149 H 0.63714 1.00328 0.82387 0.0
H1150 H 0.5871 0.97069 0.76581 0.0
H1151 H 0.57107 1.00363 0.7465 0.0
H1152 H 0.62005 0.9719 0.87392 0.0
H1153 H 0.63909 0.94395 0.71427 0.0
H1154 H 0.63289 0.97051 0.72512 0.0
H1155 H 0.61285 0.95165 0.72184 0.0
C1156 C 0.61363 0.02189 0.79608 0.0
C1157 C 0.59493 0.02234 0.77421 0.0
C1158 C 0.62275 1.0032 0.80692 0.0
C1159 C 0.61347 0.98455 0.79579 0.0
C1160 C 0.59471 0.98492 0.77405 0.0
H1161 H 0.6328 0.85709 0.84469 0.0
H1162 H 0.62434 0.8907 0.81593 0.0
C1163 C 0.5855 1.0037 0.7633 0.0
C1164 C 0.62315 0.96483 0.80845 0.0
H1165 H 0.64407 0.92044 0.77024 0.0
C1166 C 0.62546 0.96069 0.8513 0.0
C1167 C 0.63023 0.95031 0.77883 0.0
C1168 C 0.62884 0.95431 0.73241 0.0
C1169 C 0.63401 0.94211 0.86542 0.0
C1170 C 0.64094 0.92745 0.83581 0.0
C1171 C 0.63893 0.93175 0.7929 0.0
C1172 C 0.64843 0.90681 0.84884 0.0
C1173 C 0.63474 0.93799 0.91191 0.0
C1174 C 0.66548 0.90447 0.87543 0.0
C1175 C 0.67039 0.88512 0.89218 0.0
C1176 C 0.65832 0.86787 0.88244 0.0
C1177 C 0.64229 0.87009 0.85327 0.0
C1178 C 0.63742 0.88932 0.83667 0.0
H1179 H 0.62482 0.94879 0.92976 0.0
H1180 H 0.6298 0.92203 0.91897 0.0
H1181 H 0.65072 0.93989 0.92322 0.0
H1182 H 0.6745 0.91771 0.88449 0.0
H1183 H 0.68284 0.88393 0.9145 0.0
H1184 H 0.36947 0.13212 1.00682 0.0
H1185 H 0.39946 0.11708 0.97249 0.0
H1186 H 0.4276 0.17701 0.96642 0.0
H1187 H 0.39774 0.19203 1.00206 0.0
H1188 H 0.4135 0.12377 0.89641 0.0
H1189 H 0.47509 0.14378 1.00816 0.0
H1190 H 0.44827 0.14634 0.02118 0.0
H1191 H 0.46105 0.16601 0.99128 0.0
C1192 C 0.38217 0.14206 0.99866 0.0
C1193 C 0.38124 0.16327 1.0071 0.0
C1194 C 0.39933 0.13344 0.97894 0.0
C1195 C 0.41602 0.14578 0.9671 0.0
C1196 C 0.41522 0.16699 0.97604 0.0
H1197 H 0.51911 0.13877 0.80558 0.0
H1198 H 0.49164 0.14647 0.85437 0.0
C1199 C 0.39808 0.17563 0.99618 0.0
C1200 C 0.43355 0.1366 0.9432 0.0
H1201 H 0.48591 0.13318 0.93964 0.0
C1202 C 0.42931 0.12558 0.90627 0.0
C1203 C 0.45425 0.13878 0.95598 0.0
C1204 C 0.45995 0.14918 0.99654 0.0
C1205 C 0.44512 0.11754 0.88102 0.0
C1206 C 0.4658 0.1204 0.89302 0.0
C1207 C 0.47005 0.13091 0.93046 0.0
C1208 C 0.48318 0.11477 0.86481 0.0
C1209 C 0.43964 0.10683 0.84066 0.0
C1210 C 0.48793 0.09421 0.85466 0.0
C1211 C 0.50393 0.08962 0.82642 0.0
C1212 C 0.51525 0.10556 0.80761 0.0
C1213 C 0.51061 0.12602 0.81879 0.0
C1214 C 0.49491 0.13053 0.84702 0.0
H1215 H 0.42306 0.10824 0.83313 0.0
H1216 H 0.44868 0.11329 0.81429 0.0
H1217 H 0.44349 0.09026 0.84326 0.0
H1218 H 0.47921 0.08176 0.86838 0.0
H1219 H 0.50713 0.07373 0.81867 0.0
H1220 H 0.62446 0.6187 0.2285 0.0
H1221 H 0.63746 0.6488 0.19182 0.0
H1222 H 0.5836 0.68306 0.22814 0.0
H1223 H 0.56994 0.65232 0.26322 0.0
H1224 H 0.5912 0.69072 0.15106 0.0
H1225 H 0.66525 0.69872 0.23217 0.0
H1226 H 0.66332 0.67347 0.21025 0.0
H1227 H 0.64562 0.68143 0.25058 0.0
C1228 C 0.61542 0.63269 0.22901 0.0
C1229 C 0.5962 0.63314 0.24897 0.0
C1230 C 0.62302 0.65004 0.20834 0.0
C1231 C 0.61189 0.66856 0.20797 0.0
C1232 C 0.59265 0.66909 0.22818 0.0
H1233 H 0.6675 0.78036 0.09764 0.0
H1234 H 0.6561 0.75388 0.14758 0.0
C1235 C 0.58485 0.65153 0.24836 0.0
C1236 C 0.61976 0.68674 0.18401 0.0
H1237 H 0.66308 0.71482 0.16394 0.0
C1238 C 0.60685 0.69612 0.15439 0.0
C1239 C 0.64005 0.69432 0.18866 0.0
C1240 C 0.65423 0.6866 0.22251 0.0
C1241 C 0.61384 0.71207 0.12827 0.0
C1242 C 0.63466 0.71838 0.13038 0.0
C1243 C 0.6473 0.70972 0.16136 0.0
C1244 C 0.64352 0.73363 0.10026 0.0
C1245 C 0.59865 0.72212 0.09903 0.0
C1246 C 0.64127 0.73071 0.05693 0.0
C1247 C 0.64751 0.74588 0.02865 0.0
C1248 C 0.65683 0.76406 0.0428 0.0
C1249 C 0.66058 0.76638 0.08586 0.0
C1250 C 0.65391 0.75131 0.11439 0.0
H1251 H 0.58275 0.72093 0.11134 0.0
H1252 H 0.60225 0.73862 0.09406 0.0
H1253 H 0.59904 0.71415 0.06834 0.0
H1254 H 0.63409 0.71692 0.04491 0.0
H1255 H 0.64448 0.74365 0.99561 0.0
H1256 H 0.99602 0.87097 0.2763 0.0
H1257 H 0.0236 0.86305 0.32426 0.0
H1258 H 0.02658 0.92669 0.36162 0.0
H1259 H 0.99811 0.93486 0.31366 0.0
H1260 H 0.06219 0.87605 0.32423 0.0
H1261 H 0.02523 0.89818 0.47448 0.0
H1262 H 0.01099 0.89594 0.42626 0.0
H1263 H 0.02653 0.91825 0.43592 0.0
C1264 C 1.00239 0.88346 0.29453 0.0
C1265 C 0.99474 0.90367 0.29077 0.0
C1266 C 0.01827 0.87881 0.32217 0.0
C1267 C 0.02716 0.89415 0.34702 0.0
C1268 C 0.01974 0.91445 0.34343 0.0
H1269 H 0.13773 0.88083 0.49986 0.0
H1270 H 0.10847 0.89458 0.46055 0.0
C1271 C 1.00356 0.91915 0.31573 0.0
C1272 C 0.04452 0.88848 0.37534 0.0
H1273 H 0.05944 0.88599 0.47807 0.0
C1274 C 0.06154 0.87831 0.35785 0.0
C1275 C 0.04375 0.89131 0.41933 0.0
C1276 C 0.02559 0.90135 0.44031 0.0
C1277 C 0.07756 0.87073 0.38292 0.0
C1278 C 0.07668 0.87336 0.42675 0.0
C1279 C 0.05998 0.88391 0.4444 0.0
C1280 C 0.0932 0.86527 0.45431 0.0
C1281 C 0.09538 0.85979 0.36253 0.0
C1282 C 0.09412 0.84426 0.46452 0.0
C1283 C 0.1108 0.83635 0.48721 0.0
C1284 C 0.12691 0.84932 0.49964 0.0
C1285 C 0.12559 0.87044 0.49049 0.0
C1286 C 0.10887 0.87835 0.46815 0.0
H1287 H 0.09472 0.8606 0.32782 0.0
H1288 H 0.11008 0.86659 0.37326 0.0
H1289 H 0.09533 0.84337 0.37205 0.0
H1290 H 0.08216 0.83391 0.45406 0.0
H1291 H 0.11139 0.82002 0.49387 0.0
H1292 H 0.85777 0.26452 0.50806 0.0
H1293 H 0.86685 0.2921 0.55627 0.0
H1294 H 0.84366 0.2564 0.65967 0.0
H1295 H 0.8345 0.22842 0.61093 0.0
H1296 H 0.84441 0.31563 0.61509 0.0
H1297 H 0.90444 0.26747 0.69129 0.0
H1298 H 0.89262 0.26024 0.64236 0.0
H1299 H 0.87872 0.25746 0.69051 0.0
C1300 C 0.85416 0.26268 0.54097 0.0
C1301 C 0.84537 0.2443 0.55568 0.0
C1302 C 0.85943 0.27847 0.56855 0.0
C1303 C 0.85632 0.27625 0.61175 0.0
C1304 C 0.84651 0.25836 0.62652 0.0
H1305 H 0.9078 0.36108 0.80152 0.0
H1306 H 0.88997 0.33192 0.76873 0.0
C1307 C 0.84101 0.2425 0.59863 0.0
C1308 C 0.86438 0.29243 0.64058 0.0
H1309 H 0.90279 0.30223 0.71092 0.0
C1310 C 0.857 0.31263 0.63644 0.0
C1311 C 0.88085 0.28859 0.66847 0.0
C1312 C 0.8898 0.26733 0.67346 0.0
C1313 C 0.86587 0.32909 0.65857 0.0
C1314 C 0.88295 0.32542 0.68499 0.0
C1315 C 0.8898 0.3051 0.69052 0.0
C1316 C 0.89448 0.34261 0.70523 0.0
C1317 C 0.85688 0.35032 0.65322 0.0
C1318 C 0.90354 0.35803 0.68056 0.0
C1319 C 0.91373 0.37462 0.69918 0.0
C1320 C 0.91523 0.37616 0.74296 0.0
C1321 C 0.90682 0.36037 0.7677 0.0
C1322 C 0.89661 0.34371 0.74899 0.0
H1323 H 0.8406 0.34963 0.64304 0.0
H1324 H 0.85777 0.35926 0.68277 0.0
H1325 H 0.86563 0.35867 0.62876 0.0
H1326 H 0.90262 0.3573 0.64675 0.0
H1327 H 0.92018 0.38643 0.67923 0.0
H1328 H 0.63789 0.83537 0.10335 0.0
H1329 H 0.60884 0.852 0.138 0.0
H1330 H 0.58215 0.86588 0.01771 0.0
H1331 H 0.61109 0.84874 0.98286 0.0
H1332 H 0.59716 0.89163 0.13388 0.0
H1333 H 0.53309 0.84253 0.07807 0.0
H1334 H 0.55963 0.8352 0.07197 0.0
H1335 H 0.54831 0.85374 0.03718 0.0
C1336 C 0.62571 0.84174 0.08426 0.0
C1337 C 0.62678 0.84071 0.04038 0.0
C1338 C 0.6091 0.85132 0.10412 0.0
C1339 C 0.59311 0.86013 0.08066 0.0
C1340 C 0.59401 0.85889 0.03669 0.0
H1341 H 0.48376 0.925 0.18299 0.0
H1342 H 0.51134 0.91504 0.13399 0.0
C1343 C 0.61062 0.84915 1.01675 0.0
C1344 C 0.5761 0.87125 0.10266 0.0
H1345 H 0.52422 0.87123 0.11974 0.0
C1346 C 0.58121 0.88719 0.13051 0.0
C1347 C 0.55519 0.86566 0.09824 0.0
C1348 C 0.54866 0.84824 0.07005 0.0
C1349 C 0.56619 0.89728 0.15462 0.0
C1350 C 0.54542 0.8913 0.15114 0.0
C1351 C 0.54013 0.87591 0.12221 0.0
C1352 C 0.52945 0.89911 0.18063 0.0
C1353 C 0.5727 0.91411 0.18423 0.0
C1354 C 0.53058 0.89372 0.22308 0.0
C1355 C 0.51492 0.89925 0.25077 0.0
C1356 C 0.49775 0.91049 0.23692 0.0
C1357 C 0.49694 0.91664 0.19473 0.0
C1358 C 0.51258 0.91079 0.16668 0.0
H1359 H 0.58786 0.92061 0.17546 0.0
H1360 H 0.5612 0.92672 0.18488 0.0
H1361 H 0.57397 0.9077 0.21633 0.0
H1362 H 0.54328 0.88456 0.23456 0.0
H1363 H 0.51598 0.89418 0.28301 0.0
H1364 H 0.42967 0.38515 0.85801 0.0
H1365 H 0.41181 0.35656 0.89184 0.0
H1366 H 0.39485 0.33258 0.77086 0.0
H1367 H 0.41303 0.36109 0.7368 0.0
H1368 H 0.37076 0.34769 0.88695 0.0
H1369 H 0.41643 0.2813 0.82893 0.0
H1370 H 0.42536 0.30748 0.82478 0.0
H1371 H 0.40634 0.29795 0.78905 0.0
C1372 C 0.42239 0.37362 0.83858 0.0
C1373 C 0.42282 0.37534 0.79475 0.0
C1374 C 0.41211 0.35731 0.85796 0.0
C1375 C 0.40205 0.34227 0.83401 0.0
C1376 C 0.40278 0.34373 0.7901 0.0
H1377 H 0.33542 0.23402 0.93542 0.0
H1378 H 0.3453 0.26154 0.88612 0.0
C1379 C 0.41315 0.36006 0.77064 0.0
C1380 C 0.39013 0.32574 0.85546 0.0
H1381 H 0.38783 0.27374 0.87145 0.0
C1382 C 0.37443 0.33152 0.88328 0.0
C1383 C 0.3947 0.30457 0.85047 0.0
C1384 C 0.41172 0.29737 0.82198 0.0
C1385 C 0.36365 0.31686 0.90698 0.0
C1386 C 0.36876 0.2958 0.90323 0.0
C1387 C 0.38383 0.28988 0.87416 0.0
C1388 C 0.36057 0.28012 0.93287 0.0
C1389 C 0.34705 0.32409 0.93644 0.0
C1390 C 0.36559 0.28155 0.97544 0.0
C1391 C 0.3601 0.26595 1.00326 0.0
C1392 C 0.3493 0.24854 0.98938 0.0
C1393 C 0.34342 0.24743 0.9471 0.0
C1394 C 0.34922 0.26303 0.91892 0.0
H1395 H 0.34075 0.33924 0.92673 0.0
H1396 H 0.33431 0.3128 0.93812 0.0
H1397 H 0.35361 0.32584 0.9683 0.0
H1398 H 0.37459 0.29437 0.98691 0.0
H1399 H 0.36498 0.26717 0.03559 0.0
H1400 H 1.00244 0.07582 0.74067 0.0
H1401 H 0.97293 0.0848 0.69577 0.0
H1402 H 1.00277 0.14132 0.66062 0.0
H1403 H 0.03184 0.13268 0.70572 0.0
H1404 H 0.95213 0.1289 0.7106 0.0
H1405 H 0.97805 0.11219 0.5481 0.0
H1406 H 0.98721 0.09767 0.59265 0.0
H1407 H 0.99614 0.12338 0.58415 0.0
C1408 C 1.0029 0.08982 0.72233 0.0
C1409 C 0.01944 0.1035 0.72647 0.0
C1410 C 0.98603 0.09501 0.69694 0.0
C1411 C 0.98572 0.1137 0.67471 0.0
C1412 C 1.00275 0.12676 0.67713 0.0
H1413 H 0.89921 0.18197 0.51779 0.0
H1414 H 0.92997 0.16795 0.55222 0.0
C1415 C 0.01935 0.12179 0.70291 0.0
C1416 C 0.96691 0.12088 0.6527 0.0
H1417 H 0.94684 0.13038 0.55571 0.0
C1418 C 0.95082 0.12901 0.67674 0.0
C1419 C 0.96552 0.12153 0.60858 0.0
C1420 C 0.98256 0.11318 0.58157 0.0
C1421 C 0.9335 0.13802 0.6579 0.0
C1422 C 0.93181 0.13831 0.6136 0.0
C1423 C 0.94798 0.13014 0.58956 0.0
C1424 C 0.91328 0.14673 0.59188 0.0
C1425 C 0.91759 0.14785 0.68584 0.0
C1426 C 0.89365 0.13932 0.60193 0.0
C1427 C 0.87617 0.1476 0.58292 0.0
C1428 C 0.87783 0.16318 0.55263 0.0
C1429 C 0.89745 0.17018 0.54138 0.0
C1430 C 0.91502 0.16207 0.56092 0.0
H1431 H 0.92422 0.15239 0.71651 0.0
H1432 H 0.91076 0.1617 0.67101 0.0
H1433 H 0.90516 0.13662 0.69209 0.0
H1434 H 0.89181 0.12706 0.62453 0.0
H1435 H 0.86129 0.14162 0.59179 0.0
H1436 H 0.1442 0.74521 0.5296 0.0
H1437 H 0.1329 0.71911 0.48014 0.0
H1438 H 0.16027 0.75318 0.37877 0.0
H1439 H 0.17189 0.77959 0.42872 0.0
H1440 H 0.10555 0.72833 0.4146 0.0
H1441 H 0.17748 0.69282 0.3544 0.0
H1442 H 0.17672 0.70726 0.40268 0.0
H1443 H 0.17584 0.72044 0.35339 0.0
C1444 C 0.14825 0.74702 0.49691 0.0
C1445 C 0.15893 0.76456 0.48314 0.0
C1446 C 0.14169 0.73205 0.4686 0.0
C1447 C 0.14564 0.73413 0.42566 0.0
C1448 C 0.15723 0.75109 0.41182 0.0
H1449 H 0.10041 0.64938 0.22911 0.0
H1450 H 0.11597 0.67941 0.26352 0.0
C1451 C 0.16392 0.76615 0.4404 0.0
C1452 C 0.13599 0.71932 0.39589 0.0
H1453 H 0.14627 0.67994 0.32796 0.0
C1454 C 0.11449 0.71786 0.39543 0.0
C1455 C 0.14758 0.70576 0.37051 0.0
C1456 C 0.1707 0.70644 0.37021 0.0
C1457 C 0.1043 0.70296 0.37131 0.0
C1458 C 0.11589 0.68878 0.3474 0.0
C1459 C 0.13737 0.69074 0.34641 0.0
C1460 C 0.10601 0.671 0.32582 0.0
C1461 C 0.08116 0.70246 0.37191 0.0
C1462 C 0.09526 0.65626 0.34927 0.0
C1463 C 0.08635 0.6392 0.32974 0.0
C1464 C 0.08803 0.63642 0.28626 0.0
C1465 C 0.09866 0.65123 0.2626 0.0
C1466 C 0.10767 0.66832 0.28227 0.0
H1467 H 0.07462 0.71764 0.38075 0.0
H1468 H 0.07491 0.69794 0.34092 0.0
H1469 H 0.07597 0.69104 0.39543 0.0
H1470 H 0.09404 0.65774 0.38295 0.0
H1471 H 0.07838 0.62801 0.34886 0.0
H1472 H 0.90178 0.68366 0.52325 0.0
H1473 H 0.93188 0.67078 0.4844 0.0
H1474 H 0.89196 0.635 0.40533 0.0
H1475 H 0.8622 0.64828 0.44264 0.0
H1476 H 0.94734 0.63133 0.4687 0.0
H1477 H 0.92353 0.66789 0.31994 0.0
H1478 H 0.9117 0.67419 0.36933 0.0
H1479 H 0.90401 0.65151 0.3411 0.0
C1480 C 0.89951 0.67322 0.49735 0.0
C1481 C 0.8796 0.66734 0.48548 0.0
C1482 C 0.9167 0.66573 0.47533 0.0
C1483 C 0.91421 0.65222 0.44123 0.0
C1484 C 0.89434 0.64581 0.43064 0.0
H1485 H 0.00948 0.57979 0.30867 0.0
H1486 H 0.98117 0.58986 0.3556 0.0
C1487 C 0.87729 0.6534 0.45218 0.0
C1488 C 0.93208 0.64501 0.41581 0.0
H1489 H 0.95002 0.64288 0.31535 0.0
C1490 C 0.94801 0.63395 0.4352 0.0
C1491 C 0.93311 0.64853 0.37208 0.0
C1492 C 0.91728 0.66135 0.34944 0.0
C1493 C 0.96474 0.62613 0.41198 0.0
C1494 C 0.96538 0.62911 0.36805 0.0
C1495 C 0.94949 0.6403 0.34889 0.0
C1496 C 0.98305 0.62239 0.34141 0.0
C1497 C 0.9818 0.6152 0.43483 0.0
C1498 C 0.99335 0.63713 0.3173 0.0
C1499 C 0.00915 0.63141 0.29023 0.0
C1500 C 0.0153 0.6107 0.2863 0.0
C1501 C 0.00519 0.59585 0.31084 0.0
C1502 C 0.9891 0.60163 0.33797 0.0
H1503 H 0.98144 0.61841 0.46898 0.0
H1504 H 0.98012 0.59837 0.43036 0.0
H1505 H 0.99701 0.61983 0.42232 0.0
H1506 H 0.9891 0.65321 0.31928 0.0
H1507 H 0.01656 0.64346 0.27239 0.0
H1508 H 0.11883 0.11719 0.70902 0.0
H1509 H 0.13339 0.14796 0.67738 0.0
H1510 H 0.08751 0.18512 0.73883 0.0
H1511 H 0.07326 0.15406 0.77204 0.0
H1512 H 0.11783 0.17333 0.6235 0.0
H1513 H 0.13735 0.21846 0.76506 0.0
H1514 H 0.12991 0.19178 0.76769 0.0
H1515 H 0.11074 0.21157 0.76254 0.0
C1516 C 0.1119 0.13193 0.71616 0.0
C1517 C 0.09494 0.13319 0.74321 0.0
C1518 C 0.12027 0.14958 0.69794 0.0
C1519 C 0.11185 0.16908 0.70592 0.0
C1520 C 0.09474 0.17041 0.73289 0.0
H1521 H 0.12677 0.28561 0.58119 0.0
H1522 H 0.11736 0.25706 0.62707 0.0
C1523 C 0.08647 0.15264 0.75167 0.0
C1524 C 0.12056 0.18756 0.68414 0.0
H1525 H 0.14016 0.23587 0.69953 0.0
C1526 C 0.12288 0.18688 0.64034 0.0
C1527 C 0.12726 0.20538 0.7058 0.0
C1528 C 0.1264 0.20683 0.75289 0.0
C1529 C 0.1313 0.20344 0.61777 0.0
C1530 C 0.1377 0.2213 0.63933 0.0
C1531 C 0.13542 0.22211 0.68304 0.0
C1532 C 0.1452 0.2398 0.61628 0.0
C1533 C 0.13284 0.20198 0.57074 0.0
C1534 C 0.16439 0.24001 0.59593 0.0
C1535 C 0.17 0.25659 0.56994 0.0
C1536 C 0.15635 0.27304 0.56352 0.0
C1537 C 0.13763 0.27315 0.58553 0.0
C1538 C 0.1322 0.25683 0.6118 0.0
H1539 H 0.1251 0.18807 0.55824 0.0
H1540 H 0.12592 0.2158 0.55594 0.0
H1541 H 0.14924 0.20142 0.56147 0.0
H1542 H 0.17469 0.22702 0.599 0.0
H1543 H 0.18439 0.25596 0.55303 0.0
H1544 H 0.50952 0.37928 0.75986 0.0
H1545 H 0.53638 0.37062 0.80955 0.0
H1546 H 0.51717 0.42047 0.88946 0.0
H1547 H 0.4897 0.42922 0.83943 0.0
H1548 H 0.56895 0.39371 0.83903 0.0
H1549 H 0.51717 0.36995 0.96867 0.0
H1550 H 0.50819 0.37339 0.91565 0.0
H1551 H 0.51329 0.39538 0.94794 0.0
C1552 C 0.51093 0.38854 0.78789 0.0
C1553 C 0.49729 0.40492 0.79568 0.0
C1554 C 0.5264 0.38353 0.81634 0.0
C1555 C 0.52867 0.39463 0.85365 0.0
C1556 C 0.51551 0.41143 0.86122 0.0
H1557 H 0.63842 0.37862 1.0077 0.0
H1558 H 0.60952 0.39299 0.96869 0.0
C1559 C 0.49996 0.41657 0.8324 0.0
C1560 C 0.54495 0.38828 0.88391 0.0
H1561 H 0.55278 0.36699 0.9807 0.0
C1562 C 0.56542 0.38806 0.87015 0.0
C1563 C 0.54034 0.38053 0.92427 0.0
C1564 C 0.51856 0.37961 0.94013 0.0
C1565 C 0.58131 0.38022 0.89532 0.0
C1566 C 0.57675 0.37263 0.93585 0.0
C1567 C 0.5563 0.3729 0.94977 0.0
C1568 C 0.59312 0.36421 0.9637 0.0
C1569 C 0.60279 0.37955 0.87771 0.0
C1570 C 0.59316 0.34337 0.97569 0.0
C1571 C 0.60971 0.33509 0.99838 0.0
C1572 C 0.62647 0.34754 1.00943 0.0
C1573 C 0.62586 0.36857 0.99918 0.0
C1574 C 0.60937 0.37681 0.97674 0.0
H1575 H 0.60287 0.38112 0.84307 0.0
H1576 H 0.61181 0.39247 0.89093 0.0
H1577 H 0.6106 0.36495 0.8862 0.0
H1578 H 0.58073 0.33336 0.96622 0.0
H1579 H 0.60971 0.31886 1.00602 0.0
H1580 H 0.36961 0.76492 1.00007 0.0
H1581 H 0.38024 0.79151 0.04928 0.0
H1582 H 0.35404 0.75677 0.1511 0.0
H1583 H 0.34241 0.7304 0.10109 0.0
H1584 H 0.34814 0.79605 0.16492 0.0
H1585 H 0.42945 0.78718 0.1214 0.0
H1586 H 0.41465 0.79386 0.0762 0.0
H1587 H 0.40996 0.76983 0.10275 0.0
C1588 C 0.36584 0.76307 0.0329 0.0
C1589 C 0.35522 0.74554 0.04673 0.0
C1590 C 0.37219 0.77818 0.06117 0.0
C1591 C 0.36872 0.77589 0.10432 0.0
C1592 C 0.3572 0.75884 0.11808 0.0
H1593 H 0.44016 0.85896 0.26789 0.0
H1594 H 0.42681 0.82775 0.23412 0.0
C1595 C 0.35043 0.74382 0.0895 0.0
C1596 C 0.37725 0.79131 0.13455 0.0
H1597 H 0.42074 0.81848 0.15753 0.0
C1598 C 0.36407 0.80076 0.16359 0.0
C1599 C 0.39823 0.79716 0.13414 0.0
C1600 C 0.4139 0.78628 0.10728 0.0
C1601 C 0.37099 0.81651 0.19044 0.0
C1602 C 0.39151 0.82365 0.18723 0.0
C1603 C 0.40492 0.81345 0.15971 0.0
C1604 C 0.39915 0.84219 0.21045 0.0
C1605 C 0.35617 0.82509 0.22226 0.0
C1606 C 0.38828 0.86084 0.20846 0.0
C1607 C 0.39568 0.87848 0.22844 0.0
C1608 C 0.41447 0.87818 0.25004 0.0
C1609 C 0.42557 0.85965 0.25177 0.0
C1610 C 0.41794 0.84182 0.23231 0.0
H1611 H 0.34477 0.8133 0.23186 0.0
H1612 H 0.36421 0.83069 0.25068 0.0
H1613 H 0.34755 0.83806 0.2081 0.0
H1614 H 0.37421 0.86196 0.19063 0.0
H1615 H 0.38684 0.89254 0.22609 0.0
H1616 H 0.10849 0.32663 0.51958 0.0
H1617 H 0.07812 0.34066 0.5556 0.0
H1618 H 0.11591 0.3873 0.61267 0.0
H1619 H 0.14604 0.37299 0.5782 0.0
H1620 H 0.09324 0.37006 0.66945 0.0
H1621 H 0.04285 0.39063 0.53621 0.0
H1622 H 0.05063 0.36414 0.5358 0.0
H1623 H 0.06955 0.38401 0.52938 0.0
C1624 C 0.11016 0.34 0.53949 0.0
C1625 C 0.12961 0.3487 0.54617 0.0
C1626 C 0.09279 0.34813 0.55985 0.0
C1627 C 0.09458 0.36529 0.58659 0.0
C1628 C 0.11401 0.37412 0.59232 0.0
H1629 H 0.99295 0.43266 0.71159 0.0
H1630 H 0.02217 0.42442 0.66535 0.0
C1631 C 0.13127 0.36589 0.57256 0.0
C1632 C 0.07678 0.37328 0.61133 0.0
H1633 H 0.02754 0.39145 0.60434 0.0
C1634 C 0.07897 0.37488 0.65498 0.0
C1635 C 0.05816 0.37992 0.59272 0.0
C1636 C 0.05517 0.37981 0.54592 0.0
C1637 C 0.06309 0.38239 0.68046 0.0
C1638 C 0.04414 0.38806 0.66216 0.0
C1639 C 0.04202 0.38703 0.61843 0.0
C1640 C 0.02602 0.39338 0.68857 0.0
C1641 C 0.06679 0.38417 0.72697 0.0
C1642 C 0.01832 0.37867 0.71641 0.0
C1643 C 1.00192 0.38332 0.74276 0.0
C1644 C 0.99246 0.40284 0.74194 0.0
C1645 C 0.99991 0.41756 0.71339 0.0
C1646 C 0.01654 0.41283 0.68681 0.0
H1647 H 0.08341 0.38543 0.73421 0.0
H1648 H 0.05876 0.39775 0.74027 0.0
H1649 H 0.06088 0.37018 0.74276 0.0
H1650 H 0.02508 0.36345 0.71787 0.0
H1651 H 0.99666 0.37138 0.7638 0.0
H1652 H 0.90975 0.86166 0.23209 0.0
H1653 H 0.8935 0.83196 0.2663 0.0
H1654 H 0.90978 0.85655 0.3871 0.0
H1655 H 0.92605 0.88608 0.35321 0.0
H1656 H 0.91851 0.8142 0.37764 0.0
H1657 H 0.83829 0.83222 0.33059 0.0
H1658 H 0.85699 0.83084 0.28928 0.0
H1659 H 0.85865 0.85097 0.32753 0.0
C1660 C 0.90991 0.86066 0.26594 0.0
C1661 C 0.9191 0.87626 0.28999 0.0
C1662 C 0.90047 0.84377 0.28546 0.0
C1663 C 0.90008 0.84216 0.32937 0.0
C1664 C 0.90973 0.85749 0.35324 0.0
H1665 H 0.85984 0.76782 0.53294 0.0
H1666 H 0.87086 0.79448 0.48414 0.0
C1667 C 0.91906 0.87437 0.33381 0.0
C1668 C 0.88999 0.82448 0.35093 0.0
H1669 H 0.8433 0.80274 0.37247 0.0
C1670 C 0.90208 0.81163 0.37622 0.0
C1671 C 0.86855 0.82097 0.34891 0.0
C1672 C 0.85475 0.83451 0.32289 0.0
C1673 C 0.89335 0.79572 0.40007 0.0
C1674 C 0.87183 0.79274 0.39949 0.0
C1675 C 0.85976 0.80507 0.37305 0.0
C1676 C 0.86177 0.77788 0.42856 0.0
C1677 C 0.9073 0.78229 0.42608 0.0
C1678 C 0.85172 0.76015 0.41375 0.0
C1679 C 0.84505 0.74487 0.44192 0.0
C1680 C 0.8484 0.74716 0.48516 0.0
C1681 C 0.85709 0.76559 0.49979 0.0
C1682 C 0.86355 0.7808 0.4719 0.0
H1683 H 0.92334 0.7826 0.41428 0.0
H1684 H 0.90741 0.788 0.45881 0.0
H1685 H 0.90188 0.7661 0.42636 0.0
H1686 H 0.85006 0.75763 0.38042 0.0
H1687 H 0.83866 0.73072 0.42972 0.0
H1688 H 0.37456 0.67676 0.10491 0.0
H1689 H 0.4031 0.6588 0.13869 0.0
H1690 H 0.42871 0.64447 0.01765 0.0
H1691 H 0.40028 0.66281 0.98366 0.0
H1692 H 0.41342 0.61803 0.13167 0.0
H1693 H 0.47851 0.66676 0.07908 0.0
H1694 H 0.45214 0.67492 0.07443 0.0
H1695 H 0.46266 0.65673 0.03791 0.0
C1696 C 0.3864 0.66999 0.08548 0.0
C1697 C 0.38517 0.67123 0.04163 0.0
C1698 C 0.40269 0.65966 0.10483 0.0
C1699 C 0.41821 0.65035 0.08085 0.0
C1700 C 0.41718 0.65181 0.03695 0.0
H1701 H 0.52814 0.58641 0.18107 0.0
H1702 H 0.50047 0.59575 0.13184 0.0
C1703 C 0.40087 0.66224 0.01753 0.0
C1704 C 0.43491 0.63858 0.10218 0.0
H1705 H 0.48668 0.63766 0.11989 0.0
C1706 C 0.42945 0.62227 0.12881 0.0
C1707 C 0.45589 0.64391 0.09827 0.0
C1708 C 0.46273 0.66163 0.07117 0.0
C1709 C 0.44424 0.61155 0.15235 0.0
C1710 C 0.4651 0.61738 0.14968 0.0
C1711 C 0.47071 0.63311 0.12178 0.0
C1712 C 0.48083 0.60917 0.17921 0.0
C1713 C 0.43736 0.59423 0.18043 0.0
C1714 C 0.47886 0.61326 0.22213 0.0
C1715 C 0.49455 0.60805 0.24993 0.0
C1716 C 0.51259 0.59846 0.23568 0.0
C1717 C 0.51424 0.59341 0.19302 0.0
C1718 C 0.49854 0.59893 0.16489 0.0
H1719 H 0.42262 0.58752 0.16958 0.0
H1720 H 0.44908 0.58184 0.18188 0.0
H1721 H 0.43498 0.60025 0.21256 0.0
H1722 H 0.46556 0.62143 0.23393 0.0
H1723 H 0.49294 0.61234 0.28255 0.0
H1724 H 0.67943 0.27241 0.94525 0.0
H1725 H 0.67049 0.24524 0.89432 0.0
H1726 H 0.62409 0.22255 0.97844 0.0
H1727 H 0.63286 0.24902 0.02898 0.0
H1728 H 0.66332 0.19513 0.91749 0.0
H1729 H 0.5983 0.24101 0.854 0.0
H1730 H 0.62113 0.25281 0.8753 0.0
H1731 H 0.6024 0.24181 0.90976 0.0
C1732 C 0.6676 0.26139 0.9531 0.0
C1733 C 0.65678 0.26306 0.99111 0.0
C1734 C 0.66244 0.24596 0.92393 0.0
C1735 C 0.64645 0.23206 0.93251 0.0
C1736 C 0.63633 0.23321 0.97105 0.0
H1737 H 0.58998 0.11999 0.86043 0.0
H1738 H 0.60752 0.14918 0.89268 0.0
C1739 C 0.64142 0.24844 0.99992 0.0
C1740 C 0.63942 0.21656 0.90146 0.0
H1741 H 0.59847 0.20527 0.83867 0.0
C1742 C 0.64939 0.19746 0.89953 0.0
C1743 C 0.62123 0.2196 0.87814 0.0
C1744 C 0.6101 0.23993 0.87899 0.0
C1745 C 0.64111 0.18103 0.87632 0.0
C1746 C 0.62221 0.18369 0.85502 0.0
C1747 C 0.61286 0.20315 0.85517 0.0
C1748 C 0.61129 0.16613 0.8349 0.0
C1749 C 0.65248 0.16082 0.87544 0.0
C1750 C 0.60687 0.16619 0.79181 0.0
C1751 C 0.59676 0.14946 0.77324 0.0
C1752 C 0.59067 0.13248 0.79754 0.0
C1753 C 0.59457 0.13277 0.84081 0.0
C1754 C 0.60475 0.14939 0.85925 0.0
H1755 H 0.66904 0.16291 0.88241 0.0
H1756 H 0.64596 0.15046 0.89962 0.0
H1757 H 0.65092 0.1532 0.8445 0.0
H1758 H 0.61154 0.17904 0.77245 0.0
H1759 H 0.59392 0.14969 0.73983 0.0
H1760 H 0.29229 0.21159 0.12722 0.0
H1761 H 0.26481 0.22547 0.17262 0.0
H1762 H 0.31031 0.25489 0.24991 0.0
H1763 H 0.33733 0.2414 0.20545 0.0
H1764 H 0.2593 0.2202 0.26216 0.0
H1765 H 0.2711 0.30231 0.2224 0.0
H1766 H 0.28102 0.28164 0.19049 0.0
H1767 H 0.29419 0.28919 0.23749 0.0
C1768 C 0.29633 0.22106 0.1538 0.0
C1769 C 0.317 0.22543 0.16251 0.0
C1770 C 0.28066 0.229 0.17974 0.0
C1771 C 0.28547 0.2416 0.21433 0.0
C1772 C 0.30611 0.24566 0.22302 0.0
H1773 H 0.21594 0.30423 0.4159 0.0
H1774 H 0.24409 0.29067 0.37161 0.0
C1775 C 0.32159 0.23776 0.19751 0.0
C1776 C 0.2693 0.25019 0.24253 0.0
H1777 H 0.25059 0.29539 0.28248 0.0
C1778 C 0.25727 0.23663 0.26629 0.0
C1779 C 0.26684 0.27167 0.24858 0.0
C1780 C 0.27883 0.28707 0.22315 0.0
C1781 C 0.24311 0.24392 0.29616 0.0
C1782 C 0.24057 0.2654 0.30206 0.0
C1783 C 0.25265 0.27896 0.27841 0.0
C1784 C 0.22407 0.27394 0.32955 0.0
C1785 C 0.23117 0.22849 0.32165 0.0
C1786 C 0.20358 0.26947 0.32024 0.0
C1787 C 0.18776 0.27712 0.34513 0.0
C1788 C 0.19183 0.28965 0.3801 0.0
C1789 C 0.21233 0.29454 0.38935 0.0
C1790 C 0.22836 0.2868 0.36405 0.0
H1791 H 0.23918 0.21341 0.32307 0.0
H1792 H 0.22862 0.23409 0.35407 0.0
H1793 H 0.21599 0.22597 0.30681 0.0
H1794 H 0.19976 0.26006 0.29337 0.0
H1795 H 0.17217 0.27312 0.33675 0.0
H1796 H 0.53048 0.58926 0.46215 0.0
H1797 H 0.51801 0.56227 0.50807 0.0
H1798 H 0.53273 0.51682 0.41445 0.0
H1799 H 0.54572 0.5442 0.36788 0.0
H1800 H 0.48616 0.53649 0.49543 0.0
H1801 H 0.55772 0.49168 0.51971 0.0
H1802 H 0.55772 0.51709 0.49695 0.0
H1803 H 0.55061 0.4952 0.46586 0.0
C1804 C 0.53131 0.5735 0.45126 0.0
C1805 C 0.53918 0.56888 0.4113 0.0
C1806 C 0.52408 0.55805 0.47768 0.0
C1807 C 0.52445 0.53743 0.46508 0.0
C1808 C 0.53257 0.53259 0.42529 0.0
H1809 H 0.48155 0.42471 0.57276 0.0
H1810 H 0.4947 0.45277 0.53079 0.0
C1811 C 0.53998 0.54821 0.39862 0.0
C1812 C 0.51561 0.52146 0.49354 0.0
H1813 H 0.52723 0.47786 0.5485 0.0
C1814 C 0.49517 0.5237 0.50712 0.0
C1815 C 0.52736 0.50485 0.50922 0.0
C1816 C 0.54962 0.50208 0.49758 0.0
C1817 C 0.48607 0.50958 0.53497 0.0
C1818 C 0.49777 0.49287 0.55031 0.0
C1819 C 0.51825 0.49073 0.53701 0.0
C1820 C 0.48865 0.47631 0.57691 0.0
C1821 C 0.46383 0.51232 0.54673 0.0
C1822 C 0.4805 0.48007 0.61717 0.0
C1823 C 0.47271 0.46378 0.6417 0.0
C1824 C 0.47311 0.44354 0.62627 0.0
C1825 C 0.48101 0.44007 0.58585 0.0
C1826 C 0.48864 0.45615 0.56164 0.0
H1827 H 0.45591 0.52354 0.52604 0.0
H1828 H 0.45556 0.49742 0.54517 0.0
H1829 H 0.46283 0.51807 0.57937 0.0
H1830 H 0.48056 0.49549 0.62995 0.0
H1831 H 0.46689 0.46691 0.67278 0.0
H1832 H 0.21409 0.78369 0.60706 0.0
H1833 H 0.23975 0.76751 0.65327 0.0
H1834 H 0.20815 0.79161 0.76121 0.0
H1835 H 0.18263 0.80755 0.71565 0.0
H1836 H 0.26625 0.78394 0.71584 0.0
H1837 H 0.21027 0.72982 0.78602 0.0
H1838 H 0.20496 0.74406 0.73873 0.0
H1839 H 0.20264 0.75632 0.78896 0.0
C1840 C 0.21276 0.78566 0.64062 0.0
C1841 C 0.19619 0.79672 0.65768 0.0
C1842 C 0.22738 0.77637 0.66703 0.0
C1843 C 0.22562 0.77789 0.71089 0.0
C1844 C 0.20959 0.78971 0.72766 0.0
H1845 H 0.29714 0.73079 0.92492 0.0
H1846 H 0.27111 0.74784 0.88074 0.0
C1847 C 0.19507 0.79896 0.70145 0.0
C1848 C 0.24033 0.76711 0.73938 0.0
H1849 H 0.24308 0.73142 0.81816 0.0
C1850 C 0.26119 0.77239 0.73802 0.0
C1851 C 0.23376 0.75208 0.76866 0.0
C1852 C 0.21173 0.74506 0.77056 0.0
C1853 C 0.27554 0.76332 0.76539 0.0
C1854 C 0.26899 0.74826 0.79458 0.0
C1855 C 0.24812 0.74303 0.79607 0.0
C1856 C 0.28381 0.73705 0.82207 0.0
C1857 C 0.29762 0.77018 0.76329 0.0
C1858 C 0.29911 0.72474 0.80403 0.0
C1859 C 0.31377 0.71498 0.82905 0.0
C1860 C 0.31358 0.7172 0.87288 0.0
C1861 C 0.29773 0.72881 0.89128 0.0
C1862 C 0.28292 0.7386 0.86604 0.0
H1863 H 0.29915 0.78541 0.74782 0.0
H1864 H 0.30445 0.77112 0.79507 0.0
H1865 H 0.30658 0.75884 0.74484 0.0
H1866 H 0.29988 0.72287 0.77037 0.0
H1867 H 0.32562 0.70599 0.81381 0.0
H1868 H 0.05311 0.54342 0.15582 0.0
H1869 H 0.04046 0.51474 0.11179 0.0
H1870 H 0.0073 0.55799 0.03505 0.0
H1871 H 0.0197 0.58612 0.07785 0.0
H1872 H 0.99895 0.50248 0.08993 0.0
H1873 H 0.04193 0.52686 0.94893 0.0
H1874 H 0.04797 0.53624 1.00066 0.0
H1875 H 0.02699 0.5472 0.97161 0.0
C1876 C 0.04304 0.54668 0.1297 0.0
C1877 C 0.03758 0.56709 0.12021 0.0
C1878 C 0.03586 0.53034 0.10446 0.0
C1879 C 0.02328 0.53424 0.06935 0.0
C1880 C 0.01738 0.55454 0.06109 0.0
H1881 H 0.95832 0.46486 0.87293 0.0
H1882 H 0.97231 0.49233 0.91823 0.0
C1883 C 0.02446 0.57066 0.08594 0.0
C1884 C 0.01591 0.51749 0.04097 0.0
H1885 H 0.01481 0.5028 0.93792 0.0
C1886 C 1.00262 0.50241 0.05682 0.0
C1887 C 0.02046 0.51747 0.99751 0.0
C1888 C 0.03527 0.53269 0.97867 0.0
C1889 C 0.99342 0.4877 0.03037 0.0
C1890 C 0.9978 0.48782 0.98685 0.0
C1891 C 0.01122 0.5028 0.97107 0.0
C1892 C 0.98968 0.47166 0.95794 0.0
C1893 C 0.97868 0.47239 0.04914 0.0
C1894 C 0.99522 0.45108 0.96427 0.0
C1895 C 0.98742 0.4356 0.93855 0.0
C1896 C 0.97387 0.44016 0.90546 0.0
C1897 C 0.96872 0.46085 0.89806 0.0
C1898 C 0.97666 0.47651 0.92403 0.0
H1899 H 0.97262 0.47774 0.07978 0.0
H1900 H 0.96557 0.46949 0.02777 0.0
H1901 H 0.98679 0.4576 0.05436 0.0
H1902 H 0.00557 0.44693 0.98942 0.0
H1903 H 0.99187 0.41987 0.94509 0.0
H1904 H 0.67172 0.76131 0.84191 0.0
H1905 H 0.6993 0.74857 0.79757 0.0
H1906 H 0.74202 0.78875 0.86004 0.0
H1907 H 0.71413 0.80149 0.9055 0.0
H1908 H 0.72224 0.76942 0.74146 0.0
H1909 H 0.77301 0.73441 0.86133 0.0
H1910 H 0.74696 0.74204 0.87262 0.0
H1911 H 0.76698 0.761 0.87038 0.0
C1912 C 0.68703 0.76735 0.8467 0.0
C1913 C 0.69071 0.78239 0.87746 0.0
C1914 C 0.70282 0.76004 0.82107 0.0
C1915 C 0.72288 0.7675 0.82533 0.0
C1916 C 0.72678 0.78242 0.85646 0.0
H1917 H 0.83626 0.74572 0.69206 0.0
H1918 H 0.80832 0.75719 0.73675 0.0
C1919 C 0.71084 0.78975 0.88243 0.0
C1920 C 0.73924 0.75998 0.79599 0.0
H1921 H 0.78567 0.73543 0.79188 0.0
C1922 C 0.73609 0.76194 0.75255 0.0
C1923 C 0.7573 0.75007 0.81016 0.0
C1924 C 0.76127 0.74654 0.85613 0.0
C1925 C 0.75059 0.75473 0.72316 0.0
C1926 C 0.7687 0.74491 0.73734 0.0
C1927 C 0.7718 0.74287 0.78079 0.0
C1928 C 0.7853 0.73788 0.70807 0.0
C1929 C 0.74663 0.75826 0.6772 0.0
C1930 C 0.78187 0.72314 0.67638 0.0
C1931 C 0.79805 0.71652 0.65017 0.0
C1932 C 0.81793 0.72446 0.65548 0.0
C1933 C 0.82116 0.73925 0.68698 0.0
C1934 C 0.80515 0.74582 0.71281 0.0
H1935 H 0.73461 0.77012 0.67196 0.0
H1936 H 0.76086 0.76313 0.66089 0.0
H1937 H 0.74131 0.7437 0.66276 0.0
H1938 H 0.76681 0.71644 0.6724 0.0
H1939 H 0.79511 0.70498 0.62651 0.0
H1940 H 0.67318 0.26764 0.20431 0.0
H1941 H 0.70065 0.25476 0.24829 0.0
H1942 H 0.74481 0.28852 0.17506 0.0
H1943 H 0.71684 0.30185 0.13032 0.0
H1944 H 0.73439 0.23117 0.22817 0.0
H1945 H 0.75764 0.30628 0.29619 0.0
H1946 H 0.73395 0.303 0.26773 0.0
H1947 H 0.75784 0.30477 0.23999 0.0
C1948 C 0.68872 0.27244 0.19729 0.0
C1949 C 0.69277 0.2859 0.16376 0.0
C1950 C 0.70446 0.26495 0.22259 0.0
C1951 C 0.72483 0.27074 0.21546 0.0
C1952 C 0.72915 0.28404 0.18163 0.0
H1953 H 0.83686 0.24152 0.34584 0.0
H1954 H 0.80975 0.2542 0.30068 0.0
C1955 C 0.71321 0.29157 0.15589 0.0
C1956 C 0.74113 0.26263 0.24397 0.0
H1957 H 0.77604 0.27699 0.31825 0.0
C1958 C 0.74354 0.2412 0.2478 0.0
C1959 C 0.75292 0.27565 0.26999 0.0
C1960 C 0.75044 0.29871 0.26872 0.0
C1961 C 0.75759 0.23249 0.27629 0.0
C1962 C 0.76934 0.24551 0.30244 0.0
C1963 C 0.76694 0.26695 0.29855 0.0
C1964 C 0.78545 0.23741 0.33145 0.0
C1965 C 0.76011 0.20943 0.27736 0.0
C1966 C 0.78096 0.22371 0.36453 0.0
C1967 C 0.7967 0.21625 0.39086 0.0
C1968 C 0.8171 0.22247 0.38446 0.0
C1969 C 0.82134 0.23634 0.35173 0.0
C1970 C 0.8058 0.2437 0.32575 0.0
H1971 H 0.75338 0.20198 0.24925 0.0
H1972 H 0.77656 0.20513 0.27944 0.0
H1973 H 0.75218 0.20324 0.30539 0.0
H1974 H 0.76532 0.21887 0.3701 0.0
H1975 H 0.79296 0.20564 0.41584 0.0
H1976 H 0.02201 0.08712 0.95378 0.0
H1977 H 0.01039 0.05895 0.99739 0.0
H1978 H 0.04074 0.01566 0.91597 0.0
H1979 H 0.05284 0.0444 0.87153 0.0
H1980 H 0.9853 0.02673 0.97682 0.0
H1981 H 0.06089 0.99829 0.03297 0.0
H1982 H 0.0579 0.02291 1.00757 0.0
H1983 H 0.05774 0.99971 0.97713 0.0
C1984 C 0.02639 0.07164 0.94492 0.0
C1985 C 0.03843 0.06807 0.90903 0.0
C1986 C 0.01963 0.05547 0.97007 0.0
C1987 C 0.02471 0.03509 0.96043 0.0
C1988 C 0.03681 0.03128 0.92454 0.0
H1989 H 0.99403 0.92099 0.08594 0.0
H1990 H 0.00751 0.94831 0.04202 0.0
C1991 C 0.04366 0.04767 0.89899 0.0
C1992 C 0.01675 0.01827 0.98812 0.0
H1993 H 0.03152 0.98073 0.05696 0.0
C1994 C 0.99543 0.01663 0.99425 0.0
C1995 C 0.02988 1.00515 1.01123 0.0
C1996 C 0.05289 0.0066 1.00733 0.0
C1997 C 0.98692 1.0022 0.02225 0.0
C1998 C 1.00005 0.98921 0.04575 0.0
C1999 C 0.02138 0.99076 0.0394 0.0
C2000 C 0.99199 0.97292 0.07471 0.0
C2001 C 0.96388 1.00067 0.02553 0.0
C2002 C 0.97889 0.97746 0.10875 0.0
C2003 C 0.97097 0.96162 0.13428 0.0
C2004 C 0.97612 0.94099 0.12631 0.0
C2005 C 0.98964 0.93668 0.09304 0.0
C2006 C 0.99746 0.95235 0.06775 0.0
H2007 H 0.9561 0.00794 0.99834 0.0
H2008 H 0.95891 0.98438 0.02761 0.0
H2009 H 0.9587 0.00874 0.05426 0.0
H2010 H 0.97474 0.99324 0.1155 0.0
H2011 H 0.96063 0.96545 0.15963 0.0
H2012 H 0.54803 0.0452 0.66432 0.0
H2013 H 0.53484 0.01817 0.617 0.0
H2014 H 0.49577 0.06279 0.55686 0.0
H2015 H 0.50865 0.08943 0.60331 0.0
H2016 H 0.4922 1.00503 0.59998 0.0
H2017 H 0.5295 0.03809 0.45908 0.0
H2018 H 0.53723 0.04476 0.51163 0.0
H2019 H 0.51462 0.05607 0.48912 0.0
C2020 C 0.53647 0.0491 0.64131 0.0
C2021 C 0.52948 0.06948 0.63751 0.0
C2022 C 0.529 0.03371 0.61416 0.0
C2023 C 0.5146 0.03854 0.58268 0.0
C2024 C 0.50717 0.05872 0.58012 0.0
H2025 H 0.45402 0.9695 0.37778 0.0
H2026 H 0.46514 0.99729 0.42557 0.0
C2027 C 0.51451 0.07393 0.60702 0.0
C2028 C 0.50714 0.02281 0.55216 0.0
H2029 H 0.50521 0.01155 0.44742 0.0
C2030 C 0.49517 0.00638 0.56669 0.0
C2031 C 0.51069 0.02472 0.50852 0.0
C2032 C 0.52385 0.04175 0.49104 0.0
C2033 C 0.48654 0.99196 0.53887 0.0
C2034 C 0.4903 0.9937 0.49523 0.0
C2035 C 0.50215 0.01024 0.48069 0.0
C2036 C 0.48362 0.97746 0.46499 0.0
C2037 C 0.47317 0.97514 0.55652 0.0
C2038 C 0.49071 0.9573 0.47035 0.0
C2039 C 0.48444 0.94167 0.44341 0.0
C2040 C 0.47101 0.94562 0.4098 0.0
C2041 C 0.46431 0.96593 0.40332 0.0
C2042 C 0.47064 0.98177 0.4307 0.0
H2043 H 0.46646 0.97963 0.58716 0.0
H2044 H 0.4605 0.97121 0.53472 0.0
H2045 H 0.48261 0.96115 0.56159 0.0
H2046 H 0.50115 0.95359 0.49562 0.0
H2047 H 0.49016 0.92628 0.44922 0.0
loop_
_geom_bond_atom_site_label_1
_geom_bond_atom_site_label_2
_geom_bond_distance
_geom_bond_site_symmetry_2
_ccdc_geom_bond_type
Tb0 O3 2.453 . S
Tb0 O4 2.596 . S
Tb0 O5 2.374 . S
Tb0 O13 2.343 . S
Tb0 O15 2.353 . S
Tb0 O17 2.427 . S
Tb0 O18 2.513 . S
C1 O5 1.251 . S
C1 O7 1.263 . S
Tb2 O4 2.343 . S
Tb2 O7 2.353 . S
Tb2 O10 2.427 . S
Tb2 O11 2.513 . S
Tb2 O12 2.453 1_554 S
Tb2 O13 2.596 . S
Tb2 O14 2.374 . S
O3 Tb0 2.453 . S
O3 C19 1.245 . S
O4 Tb0 2.596 . S
O4 Tb2 2.343 . S
O4 C19 1.259 . S
O5 Tb0 2.374 . S
O5 C1 1.251 . S
C6 O10 1.275 . S
C6 O11 1.246 . S
O7 C1 1.263 . S
O7 Tb2 2.353 . S
C8 O12 1.245 1_554 S
C8 O13 1.259 . S
C9 O14 1.250 . S
C9 O15 1.263 . S
O10 Tb2 2.427 . S
O10 C6 1.275 . S
O11 Tb2 2.513 . S
O11 C6 1.246 . S
O12 Tb2 2.453 1_556 S
O12 C8 1.245 1_556 S
O13 Tb0 2.343 . S
O13 Tb2 2.596 . S
O13 C8 1.259 . S
O14 Tb2 2.374 . S
O14 C9 1.250 . S
O15 Tb0 2.353 . S
O15 C9 1.263 . S
C16 O17 1.275 . S
C16 O18 1.246 . S
O17 Tb0 2.427 . S
O17 C16 1.275 . S
O18 Tb0 2.513 . S
O18 C16 1.246 . S
C19 O3 1.245 . S
C19 O4 1.259 . S
Tb20 O23 2.453 . S
Tb20 O24 2.596 . S
Tb20 O25 2.374 . S
Tb20 O33 2.343 . S
Tb20 O35 2.353 . S
Tb20 O37 2.427 . S
Tb20 O38 2.513 . S
C21 O25 1.251 . S
C21 O27 1.263 . S
Tb22 O24 2.343 . S
Tb22 O27 2.353 . S
Tb22 O30 2.427 . S
Tb22 O31 2.513 . S
Tb22 O32 2.453 . S
Tb22 O33 2.596 . S
Tb22 O34 2.374 . S
O23 Tb20 2.453 . S
O23 C39 1.245 . S
O24 Tb20 2.596 . S
O24 Tb22 2.343 . S
O24 C39 1.259 . S
O25 Tb20 2.374 . S
O25 C21 1.251 . S
C26 O30 1.275 . S
C26 O31 1.246 . S
O27 C21 1.263 . S
O27 Tb22 2.353 . S
C28 O32 1.245 . S
C28 O33 1.259 . S
C29 O34 1.250 . S
C29 O35 1.263 . S
O30 Tb22 2.427 . S
O30 C26 1.275 . S
O31 Tb22 2.513 . S
O31 C26 1.246 . S
O32 Tb22 2.453 . S
O32 C28 1.245 . S
O33 Tb20 2.343 . S
O33 Tb22 2.596 . S
O33 C28 1.259 . S
O34 Tb22 2.374 . S
O34 C29 1.250 . S
O35 Tb20 2.353 . S
O35 C29 1.263 . S
C36 O37 1.275 . S
C36 O38 1.246 . S
O37 Tb20 2.427 . S
O37 C36 1.275 . S
O38 Tb20 2.513 . S
O38 C36 1.246 . S
C39 O23 1.245 . S
C39 O24 1.259 . S
Tb40 O43 2.453 . S
Tb40 O44 2.596 . S
Tb40 O45 2.374 . S
Tb40 O53 2.343 . S
Tb40 O55 2.353 . S
Tb40 O57 2.427 . S
Tb40 O58 2.513 . S
C41 O45 1.251 . S
C41 O47 1.263 . S
Tb42 O44 2.343 . S
Tb42 O47 2.353 . S
Tb42 O50 2.427 . S
Tb42 O51 2.513 . S
Tb42 O52 2.453 . S
Tb42 O53 2.596 . S
Tb42 O54 2.374 . S
O43 Tb40 2.453 . S
O43 C59 1.245 . S
O44 Tb40 2.596 . S
O44 Tb42 2.343 . S
O44 C59 1.259 . S
O45 Tb40 2.374 . S
O45 C41 1.251 . S
C46 O50 1.275 . S
C46 O51 1.246 . S
O47 C41 1.263 . S
O47 Tb42 2.353 . S
C48 O52 1.245 . S
C48 O53 1.259 . S
C49 O54 1.250 . S
C49 O55 1.263 . S
O50 Tb42 2.427 . S
O50 C46 1.275 . S
O51 Tb42 2.513 . S
O51 C46 1.246 . S
O52 Tb42 2.453 . S
O52 C48 1.245 . S
O53 Tb40 2.343 . S
O53 Tb42 2.596 . S
O53 C48 1.259 . S
O54 Tb42 2.374 . S
O54 C49 1.250 . S
O55 Tb40 2.353 . S
O55 C49 1.263 . S
C56 O57 1.275 . S
C56 O58 1.246 . S
O57 Tb40 2.427 . S
O57 C56 1.275 . S
O58 Tb40 2.513 . S
O58 C56 1.246 . S
C59 O43 1.245 . S
C59 O44 1.259 . S
Tb60 O63 2.453 . S
Tb60 O64 2.596 . S
Tb60 O65 2.374 . S
Tb60 O73 2.343 . S
Tb60 O75 2.353 . S
Tb60 O77 2.427 . S
Tb60 O78 2.513 . S
C61 O65 1.251 . S
C61 O67 1.263 . S
Tb62 O64 2.343 . S
Tb62 O67 2.353 . S
Tb62 O70 2.427 . S
Tb62 O71 2.513 . S
Tb62 O72 2.453 . S
Tb62 O73 2.596 . S
Tb62 O74 2.374 . S
O63 Tb60 2.453 . S
O63 C79 1.245 . S
O64 Tb60 2.596 . S
O64 Tb62 2.343 . S
O64 C79 1.259 . S
O65 Tb60 2.374 . S
O65 C61 1.251 . S
C66 O70 1.275 . S
C66 O71 1.246 . S
O67 C61 1.263 . S
O67 Tb62 2.353 . S
C68 O72 1.245 . S
C68 O73 1.259 . S
C69 O74 1.250 . S
C69 O75 1.263 . S
O70 Tb62 2.427 . S
O70 C66 1.275 . S
O71 Tb62 2.513 . S
O71 C66 1.246 . S
O72 Tb62 2.453 . S
O72 C68 1.245 . S
O73 Tb60 2.343 . S
O73 Tb62 2.596 . S
O73 C68 1.259 . S
O74 Tb62 2.374 . S
O74 C69 1.250 . S
O75 Tb60 2.353 . S
O75 C69 1.263 . S
C76 O77 1.275 . S
C76 O78 1.246 . S
O77 Tb60 2.427 . S
O77 C76 1.275 . S
O78 Tb60 2.513 . S
O78 C76 1.246 . S
C79 O63 1.245 . S
C79 O64 1.259 . S
Tb80 O83 2.453 1_556 S
Tb80 O84 2.596 . S
Tb80 O85 2.374 . S
Tb80 O93 2.343 . S
Tb80 O95 2.353 . S
Tb80 O97 2.427 . S
Tb80 O98 2.513 . S
C81 O85 1.251 . S
C81 O87 1.263 . S
Tb82 O84 2.343 . S
Tb82 O87 2.353 . S
Tb82 O90 2.427 . S
Tb82 O91 2.513 . S
Tb82 O92 2.453 . S
Tb82 O93 2.596 . S
Tb82 O94 2.374 . S
O83 Tb80 2.453 1_554 S
O83 C99 1.245 1_554 S
O84 Tb80 2.596 . S
O84 Tb82 2.343 . S
O84 C99 1.259 . S
O85 Tb80 2.374 . S
O85 C81 1.251 . S
C86 O90 1.275 . S
C86 O91 1.246 . S
O87 C81 1.263 . S
O87 Tb82 2.353 . S
C88 O92 1.245 . S
C88 O93 1.259 . S
C89 O94 1.250 . S
C89 O95 1.263 . S
O90 Tb82 2.427 . S
O90 C86 1.275 . S
O91 Tb82 2.513 . S
O91 C86 1.246 . S
O92 Tb82 2.453 . S
O92 C88 1.245 . S
O93 Tb80 2.343 . S
O93 Tb82 2.596 . S
O93 C88 1.259 . S
O94 Tb82 2.374 . S
O94 C89 1.250 . S
O95 Tb80 2.353 . S
O95 C89 1.263 . S
C96 O97 1.275 . S
C96 O98 1.246 . S
O97 Tb80 2.427 . S
O97 C96 1.275 . S
O98 Tb80 2.513 . S
O98 C96 1.246 . S
C99 O83 1.245 1_556 S
C99 O84 1.259 . S
Tb100 O103 2.453 . S
Tb100 O104 2.596 . S
Tb100 O105 2.374 . S
Tb100 O113 2.343 . S
Tb100 O115 2.353 . S
Tb100 O117 2.427 . S
Tb100 O118 2.513 . S
C101 O105 1.251 . S
C101 O107 1.263 . S
Tb102 O104 2.343 . S
Tb102 O107 2.353 . S
Tb102 O110 2.427 . S
Tb102 O111 2.513 . S
Tb102 O112 2.453 . S
Tb102 O113 2.596 . S
Tb102 O114 2.374 . S
O103 Tb100 2.453 . S
O103 C119 1.245 . S
O104 Tb100 2.596 . S
O104 Tb102 2.343 . S
O104 C119 1.259 . S
O105 Tb100 2.374 . S
O105 C101 1.251 . S
C106 O110 1.275 . S
C106 O111 1.246 . S
O107 C101 1.263 . S
O107 Tb102 2.353 . S
C108 O112 1.245 . S
C108 O113 1.259 . S
C109 O114 1.250 . S
C109 O115 1.263 . S
O110 Tb102 2.427 . S
O110 C106 1.275 . S
O111 Tb102 2.513 . S
O111 C106 1.246 . S
O112 Tb102 2.453 . S
O112 C108 1.245 . S
O113 Tb100 2.343 . S
O113 Tb102 2.596 . S
O113 C108 1.259 . S
O114 Tb102 2.374 . S
O114 C109 1.250 . S
O115 Tb100 2.353 . S
O115 C109 1.263 . S
C116 O117 1.275 . S
C116 O118 1.246 . S
O117 Tb100 2.427 . S
O117 C116 1.275 . S
O118 Tb100 2.513 . S
O118 C116 1.246 . S
C119 O103 1.245 . S
C119 O104 1.259 . S
Tb120 O123 2.453 . S
Tb120 O124 2.596 . S
Tb120 O125 2.374 . S
Tb120 O133 2.343 . S
Tb120 O135 2.353 . S
Tb120 O137 2.427 . S
Tb120 O138 2.513 . S
C121 O125 1.251 . S
C121 O127 1.263 . S
Tb122 O124 2.343 . S
Tb122 O127 2.353 . S
Tb122 O130 2.427 . S
Tb122 O131 2.513 . S
Tb122 O132 2.453 . S
Tb122 O133 2.596 . S
Tb122 O134 2.374 . S
O123 Tb120 2.453 . S
O123 C139 1.245 . S
O124 Tb120 2.596 . S
O124 Tb122 2.343 . S
O124 C139 1.259 . S
O125 Tb120 2.374 . S
O125 C121 1.251 . S
C126 O130 1.275 . S
C126 O131 1.246 . S
O127 C121 1.263 . S
O127 Tb122 2.353 . S
C128 O132 1.245 . S
C128 O133 1.259 . S
C129 O134 1.250 . S
C129 O135 1.263 . S
O130 Tb122 2.427 . S
O130 C126 1.275 . S
O131 Tb122 2.513 . S
O131 C126 1.246 . S
O132 Tb122 2.453 . S
O132 C128 1.245 . S
O133 Tb120 2.343 . S
O133 Tb122 2.596 . S
O133 C128 1.259 . S
O134 Tb122 2.374 . S
O134 C129 1.250 . S
O135 Tb120 2.353 . S
O135 C129 1.263 . S
C136 O137 1.275 . S
C136 O138 1.246 . S
O137 Tb120 2.427 . S
O137 C136 1.275 . S
O138 Tb120 2.513 . S
O138 C136 1.246 . S
C139 O123 1.245 . S
C139 O124 1.259 . S
Tb140 O143 2.453 . S
Tb140 O144 2.596 . S
Tb140 O145 2.374 . S
Tb140 O153 2.343 . S
Tb140 O155 2.353 . S
Tb140 O157 2.427 . S
Tb140 O158 2.513 . S
C141 O145 1.251 . S
C141 O147 1.263 . S
Tb142 O144 2.343 . S
Tb142 O147 2.353 . S
Tb142 O150 2.427 . S
Tb142 O151 2.513 . S
Tb142 O152 2.453 . S
Tb142 O153 2.596 . S
Tb142 O154 2.374 . S
O143 Tb140 2.453 . S
O143 C159 1.245 . S
O144 Tb140 2.596 . S
O144 Tb142 2.343 . S
O144 C159 1.259 . S
O145 Tb140 2.374 . S
O145 C141 1.251 . S
C146 O150 1.275 . S
C146 O151 1.246 . S
O147 C141 1.263 . S
O147 Tb142 2.353 . S
C148 O152 1.245 . S
C148 O153 1.259 . S
C149 O154 1.250 . S
C149 O155 1.263 . S
O150 Tb142 2.427 . S
O150 C146 1.275 . S
O151 Tb142 2.513 . S
O151 C146 1.246 . S
O152 Tb142 2.453 . S
O152 C148 1.245 . S
O153 Tb140 2.343 . S
O153 Tb142 2.596 . S
O153 C148 1.259 . S
O154 Tb142 2.374 . S
O154 C149 1.250 . S
O155 Tb140 2.353 . S
O155 C149 1.263 . S
C156 O157 1.275 . S
C156 O158 1.246 . S
O157 Tb140 2.427 . S
O157 C156 1.275 . S
O158 Tb140 2.513 . S
O158 C156 1.246 . S
C159 O143 1.245 . S
C159 O144 1.259 . S
Tb160 O163 2.453 . S
Tb160 O164 2.596 . S
Tb160 O165 2.374 . S
Tb160 O173 2.343 . S
Tb160 O175 2.353 . S
Tb160 O177 2.427 . S
Tb160 O178 2.513 . S
C161 O165 1.251 . S
C161 O167 1.263 . S
Tb162 O164 2.343 . S
Tb162 O167 2.353 . S
Tb162 O170 2.427 . S
Tb162 O171 2.513 . S
Tb162 O172 2.453 . S
Tb162 O173 2.596 . S
Tb162 O174 2.374 . S
O163 Tb160 2.453 . S
O163 C179 1.245 . S
O164 Tb160 2.596 . S
O164 Tb162 2.343 . S
O164 C179 1.259 . S
O165 Tb160 2.374 . S
O165 C161 1.251 . S
C166 O170 1.275 . S
C166 O171 1.246 . S
O167 C161 1.263 . S
O167 Tb162 2.353 . S
C168 O172 1.245 . S
C168 O173 1.259 . S
C169 O174 1.250 . S
C169 O175 1.263 . S
O170 Tb162 2.427 . S
O170 C166 1.275 . S
O171 Tb162 2.513 . S
O171 C166 1.246 . S
O172 Tb162 2.453 . S
O172 C168 1.245 . S
O173 Tb160 2.343 . S
O173 Tb162 2.596 . S
O173 C168 1.259 . S
O174 Tb162 2.374 . S
O174 C169 1.250 . S
O175 Tb160 2.353 . S
O175 C169 1.263 . S
C176 O177 1.275 . S
C176 O178 1.246 . S
O177 Tb160 2.427 . S
O177 C176 1.275 . S
O178 Tb160 2.513 . S
O178 C176 1.246 . S
C179 O163 1.245 . S
C179 O164 1.259 . S
Tb180 O183 2.453 . S
Tb180 O184 2.596 . S
Tb180 O185 2.374 . S
Tb180 O193 2.343 . S
Tb180 O195 2.353 . S
Tb180 O197 2.427 . S
Tb180 O198 2.513 . S
C181 O185 1.251 . S
C181 O187 1.263 . S
Tb182 O184 2.343 . S
Tb182 O187 2.353 . S
Tb182 O190 2.427 . S
Tb182 O191 2.513 . S
Tb182 O192 2.453 . S
Tb182 O193 2.596 . S
Tb182 O194 2.374 . S
O183 Tb180 2.453 . S
O183 C199 1.245 . S
O184 Tb180 2.596 . S
O184 Tb182 2.343 . S
O184 C199 1.259 . S
O185 Tb180 2.374 . S
O185 C181 1.251 . S
C186 O190 1.275 . S
C186 O191 1.246 . S
O187 C181 1.263 . S
O187 Tb182 2.353 . S
C188 O192 1.245 . S
C188 O193 1.259 . S
C189 O194 1.250 . S
C189 O195 1.263 . S
O190 Tb182 2.427 . S
O190 C186 1.275 . S
O191 Tb182 2.513 . S
O191 C186 1.246 . S
O192 Tb182 2.453 . S
O192 C188 1.245 . S
O193 Tb180 2.343 . S
O193 Tb182 2.596 . S
O193 C188 1.259 . S
O194 Tb182 2.374 . S
O194 C189 1.250 . S
O195 Tb180 2.353 . S
O195 C189 1.263 . S
C196 O197 1.275 . S
C196 O198 1.246 . S
O197 Tb180 2.427 . S
O197 C196 1.275 . S
O198 Tb180 2.513 . S
O198 C196 1.246 . S
C199 O183 1.245 . S
C199 O184 1.259 . S
Tb200 O203 2.453 . S
Tb200 O204 2.596 . S
Tb200 O205 2.374 . S
Tb200 O213 2.343 . S
Tb200 O215 2.353 . S
Tb200 O217 2.427 . S
Tb200 O218 2.513 . S
C201 O205 1.251 . S
C201 O207 1.263 . S
Tb202 O204 2.343 . S
Tb202 O207 2.353 . S
Tb202 O210 2.427 . S
Tb202 O211 2.513 . S
Tb202 O212 2.453 1_554 S
Tb202 O213 2.596 . S
Tb202 O214 2.374 . S
O203 Tb200 2.453 . S
O203 C219 1.245 . S
O204 Tb200 2.596 . S
O204 Tb202 2.343 . S
O204 C219 1.259 . S
O205 Tb200 2.374 . S
O205 C201 1.251 . S
C206 O210 1.275 . S
C206 O211 1.246 . S
O207 C201 1.263 . S
O207 Tb202 2.353 . S
C208 O212 1.245 1_554 S
C208 O213 1.259 . S
C209 O214 1.250 . S
C209 O215 1.263 . S
O210 Tb202 2.427 . S
O210 C206 1.275 . S
O211 Tb202 2.513 . S
O211 C206 1.246 . S
O212 Tb202 2.453 1_556 S
O212 C208 1.245 1_556 S
O213 Tb200 2.343 . S
O213 Tb202 2.596 . S
O213 C208 1.259 . S
O214 Tb202 2.374 . S
O214 C209 1.250 . S
O215 Tb200 2.353 . S
O215 C209 1.263 . S
C216 O217 1.275 . S
C216 O218 1.246 . S
O217 Tb200 2.427 . S
O217 C216 1.275 . S
O218 Tb200 2.513 . S
O218 C216 1.246 . S
C219 O203 1.245 . S
C219 O204 1.259 . S
Tb220 O223 2.453 . S
Tb220 O224 2.596 . S
Tb220 O225 2.374 . S
Tb220 O233 2.343 . S
Tb220 O235 2.353 . S
Tb220 O237 2.427 . S
Tb220 O238 2.513 . S
C221 O225 1.251 . S
C221 O227 1.263 . S
Tb222 O224 2.343 . S
Tb222 O227 2.353 . S
Tb222 O230 2.427 . S
Tb222 O231 2.513 . S
Tb222 O232 2.453 . S
Tb222 O233 2.596 . S
Tb222 O234 2.374 . S
O223 Tb220 2.453 . S
O223 C239 1.245 . S
O224 Tb220 2.596 . S
O224 Tb222 2.343 . S
O224 C239 1.259 . S
O225 Tb220 2.374 . S
O225 C221 1.251 . S
C226 O230 1.275 . S
C226 O231 1.246 . S
O227 C221 1.263 . S
O227 Tb222 2.353 . S
C228 O232 1.245 . S
C228 O233 1.259 . S
C229 O234 1.250 . S
C229 O235 1.263 . S
O230 Tb222 2.427 . S
O230 C226 1.275 . S
O231 Tb222 2.513 . S
O231 C226 1.246 . S
O232 Tb222 2.453 . S
O232 C228 1.245 . S
O233 Tb220 2.343 . S
O233 Tb222 2.596 . S
O233 C228 1.259 . S
O234 Tb222 2.374 . S
O234 C229 1.250 . S
O235 Tb220 2.353 . S
O235 C229 1.263 . S
C236 O237 1.275 . S
C236 O238 1.246 . S
O237 Tb220 2.427 . S
O237 C236 1.275 . S
O238 Tb220 2.513 . S
O238 C236 1.246 . S
C239 O223 1.245 . S
C239 O224 1.259 . S
Tb240 O243 2.453 . S
Tb240 O244 2.596 . S
Tb240 O245 2.374 . S
Tb240 O253 2.343 . S
Tb240 O255 2.353 . S
Tb240 O257 2.427 . S
Tb240 O258 2.513 . S
C241 O245 1.251 . S
C241 O247 1.263 . S
Tb242 O244 2.343 . S
Tb242 O247 2.353 . S
Tb242 O250 2.427 . S
Tb242 O251 2.513 . S
Tb242 O252 2.453 . S
Tb242 O253 2.596 . S
Tb242 O254 2.374 . S
O243 Tb240 2.453 . S
O243 C259 1.245 . S
O244 Tb240 2.596 . S
O244 Tb242 2.343 . S
O244 C259 1.259 . S
O245 Tb240 2.374 . S
O245 C241 1.251 . S
C246 O250 1.275 . S
C246 O251 1.246 . S
O247 C241 1.263 . S
O247 Tb242 2.353 . S
C248 O252 1.245 . S
C248 O253 1.259 . S
C249 O254 1.250 . S
C249 O255 1.263 . S
O250 Tb242 2.427 . S
O250 C246 1.275 . S
O251 Tb242 2.513 . S
O251 C246 1.246 . S
O252 Tb242 2.453 . S
O252 C248 1.245 . S
O253 Tb240 2.343 . S
O253 Tb242 2.596 . S
O253 C248 1.259 . S
O254 Tb242 2.374 . S
O254 C249 1.250 . S
O255 Tb240 2.353 . S
O255 C249 1.263 . S
C256 O257 1.275 . S
C256 O258 1.246 . S
O257 Tb240 2.427 . S
O257 C256 1.275 . S
O258 Tb240 2.513 . S
O258 C256 1.246 . S
C259 O243 1.245 . S
C259 O244 1.259 . S
Tb260 O263 2.453 . S
Tb260 O264 2.596 . S
Tb260 O265 2.374 . S
Tb260 O273 2.343 . S
Tb260 O275 2.353 . S
Tb260 O277 2.427 . S
Tb260 O278 2.513 . S
C261 O265 1.251 . S
C261 O267 1.263 . S
Tb262 O264 2.343 . S
Tb262 O267 2.353 . S
Tb262 O270 2.427 . S
Tb262 O271 2.513 . S
Tb262 O272 2.453 . S
Tb262 O273 2.596 . S
Tb262 O274 2.374 . S
O263 Tb260 2.453 . S
O263 C279 1.245 . S
O264 Tb260 2.596 . S
O264 Tb262 2.343 . S
O264 C279 1.259 . S
O265 Tb260 2.374 . S
O265 C261 1.251 . S
C266 O270 1.275 . S
C266 O271 1.246 . S
O267 C261 1.263 . S
O267 Tb262 2.353 . S
C268 O272 1.245 . S
C268 O273 1.259 . S
C269 O274 1.250 . S
C269 O275 1.263 . S
O270 Tb262 2.427 . S
O270 C266 1.275 . S
O271 Tb262 2.513 . S
O271 C266 1.246 . S
O272 Tb262 2.453 . S
O272 C268 1.245 . S
O273 Tb260 2.343 . S
O273 Tb262 2.596 . S
O273 C268 1.259 . S
O274 Tb262 2.374 . S
O274 C269 1.250 . S
O275 Tb260 2.353 . S
O275 C269 1.263 . S
C276 O277 1.275 . S
C276 O278 1.246 . S
O277 Tb260 2.427 . S
O277 C276 1.275 . S
O278 Tb260 2.513 . S
O278 C276 1.246 . S
C279 O263 1.245 . S
C279 O264 1.259 . S
Tb280 O283 2.453 1_556 S
Tb280 O284 2.596 . S
Tb280 O285 2.374 . S
Tb280 O293 2.343 . S
Tb280 O295 2.353 . S
Tb280 O297 2.427 . S
Tb280 O298 2.513 . S
C281 O285 1.251 . S
C281 O287 1.263 . S
Tb282 O284 2.343 . S
Tb282 O287 2.353 . S
Tb282 O290 2.427 . S
Tb282 O291 2.513 . S
Tb282 O292 2.453 . S
Tb282 O293 2.596 . S
Tb282 O294 2.374 . S
O283 Tb280 2.453 1_554 S
O283 C299 1.245 1_554 S
O284 Tb280 2.596 . S
O284 Tb282 2.343 . S
O284 C299 1.259 . S
O285 Tb280 2.374 . S
O285 C281 1.251 . S
C286 O290 1.275 . S
C286 O291 1.246 . S
O287 C281 1.263 . S
O287 Tb282 2.353 . S
C288 O292 1.245 . S
C288 O293 1.259 . S
C289 O294 1.250 . S
C289 O295 1.263 . S
O290 Tb282 2.427 . S
O290 C286 1.275 . S
O291 Tb282 2.513 . S
O291 C286 1.246 . S
O292 Tb282 2.453 . S
O292 C288 1.245 . S
O293 Tb280 2.343 . S
O293 Tb282 2.596 . S
O293 C288 1.259 . S
O294 Tb282 2.374 . S
O294 C289 1.250 . S
O295 Tb280 2.353 . S
O295 C289 1.263 . S
C296 O297 1.275 . S
C296 O298 1.246 . S
O297 Tb280 2.427 . S
O297 C296 1.275 . S
O298 Tb280 2.513 . S
O298 C296 1.246 . S
C299 O283 1.245 1_556 S
C299 O284 1.259 . S
Tb300 O303 2.453 . S
Tb300 O304 2.596 . S
Tb300 O305 2.374 . S
Tb300 O313 2.343 . S
Tb300 O315 2.353 . S
Tb300 O317 2.427 . S
Tb300 O318 2.513 . S
C301 O305 1.251 . S
C301 O307 1.263 . S
Tb302 O304 2.343 . S
Tb302 O307 2.353 . S
Tb302 O310 2.427 . S
Tb302 O311 2.513 . S
Tb302 O312 2.453 . S
Tb302 O313 2.596 . S
Tb302 O314 2.374 . S
O303 Tb300 2.453 . S
O303 C319 1.245 . S
O304 Tb300 2.596 . S
O304 Tb302 2.343 . S
O304 C319 1.259 . S
O305 Tb300 2.374 . S
O305 C301 1.251 . S
C306 O310 1.275 . S
C306 O311 1.246 . S
O307 C301 1.263 . S
O307 Tb302 2.353 . S
C308 O312 1.245 . S
C308 O313 1.259 . S
C309 O314 1.250 . S
C309 O315 1.263 . S
O310 Tb302 2.427 . S
O310 C306 1.275 . S
O311 Tb302 2.513 . S
O311 C306 1.246 . S
O312 Tb302 2.453 . S
O312 C308 1.245 . S
O313 Tb300 2.343 . S
O313 Tb302 2.596 . S
O313 C308 1.259 . S
O314 Tb302 2.374 . S
O314 C309 1.250 . S
O315 Tb300 2.353 . S
O315 C309 1.263 . S
C316 O317 1.275 . S
C316 O318 1.246 . S
O317 Tb300 2.427 . S
O317 C316 1.275 . S
O318 Tb300 2.513 . S
O318 C316 1.246 . S
C319 O303 1.245 . S
C319 O304 1.259 . S
H320 C328 0.929 . S
H321 C330 0.930 . S
H322 C332 0.930 . S
H323 C335 0.929 . S
H324 C338 0.930 . S
H325 C340 0.960 . S
H326 C340 0.960 . S
H327 C340 0.960 . S
C328 H320 0.929 . S
C328 C329 1.377 . S
C328 C330 1.384 . S
C329 C328 1.377 . S
C329 C335 1.390 . S
C330 H321 0.930 . S
C330 C328 1.384 . S
C330 C331 1.372 . S
C331 C330 1.372 . S
C331 C332 1.400 . S
C331 C336 1.490 . S
C332 H322 0.930 . S
C332 C331 1.400 . S
C332 C335 1.386 . S
H333 C349 0.930 . S
H334 C350 0.931 . S
C335 H323 0.929 . S
C335 C329 1.390 . S
C335 C332 1.386 . S
C336 C331 1.490 . S
C336 C338 1.395 . S
C336 C339 1.403 . S
H337 C343 0.930 . S
C338 H324 0.930 . S
C338 C336 1.395 . S
C338 C341 1.403 . S
C339 C336 1.403 . S
C339 C340 1.524 . S
C339 C343 1.400 . S
C340 H325 0.960 . S
C340 H326 0.960 . S
C340 H327 0.960 . S
C340 C339 1.524 . S
C341 C338 1.403 . S
C341 C342 1.392 . S
C341 C345 1.495 . S
C342 C341 1.392 . S
C342 C343 1.385 . S
C342 C344 1.478 . S
C343 H337 0.930 . S
C343 C339 1.400 . S
C343 C342 1.385 . S
C344 C342 1.478 . S
C344 C346 1.381 . S
C344 C350 1.383 . S
C345 C341 1.495 . S
C345 H351 0.959 . S
C345 H352 0.961 . S
C345 H353 0.960 . S
C346 C344 1.381 . S
C346 C347 1.394 . S
C346 H354 0.930 . S
C347 C346 1.394 . S
C347 C348 1.383 . S
C347 H355 0.929 . S
C348 C347 1.383 . S
C348 C349 1.377 . S
C349 H333 0.930 . S
C349 C348 1.377 . S
C349 C350 1.379 . S
C350 H334 0.931 . S
C350 C344 1.383 . S
C350 C349 1.379 . S
H351 C345 0.959 . S
H352 C345 0.961 . S
H353 C345 0.960 . S
H354 C346 0.930 . S
H355 C347 0.929 . S
H356 C364 0.929 . S
H357 C366 0.930 . S
H358 C368 0.930 . S
H359 C371 0.929 . S
H360 C374 0.930 . S
H361 C376 0.960 . S
H362 C376 0.960 . S
H363 C376 0.960 . S
C364 H356 0.929 . S
C364 C365 1.377 . S
C364 C366 1.384 . S
C365 C364 1.377 . S
C365 C371 1.390 . S
C366 H357 0.930 . S
C366 C364 1.384 . S
C366 C367 1.372 . S
C367 C366 1.372 . S
C367 C368 1.400 . S
C367 C372 1.490 . S
C368 H358 0.930 . S
C368 C367 1.400 . S
C368 C371 1.386 . S
H369 C385 0.930 . S
H370 C386 0.931 . S
C371 H359 0.929 . S
C371 C365 1.390 . S
C371 C368 1.386 . S
C372 C367 1.490 . S
C372 C374 1.395 . S
C372 C375 1.403 . S
H373 C379 0.930 . S
C374 H360 0.930 . S
C374 C372 1.395 . S
C374 C377 1.403 . S
C375 C372 1.403 . S
C375 C376 1.524 . S
C375 C379 1.400 . S
C376 H361 0.960 . S
C376 H362 0.960 . S
C376 H363 0.960 . S
C376 C375 1.524 . S
C377 C374 1.403 . S
C377 C378 1.392 . S
C377 C381 1.495 . S
C378 C377 1.392 . S
C378 C379 1.385 . S
C378 C380 1.478 . S
C379 H373 0.930 . S
C379 C375 1.400 . S
C379 C378 1.385 . S
C380 C378 1.478 . S
C380 C382 1.381 . S
C380 C386 1.383 . S
C381 C377 1.495 . S
C381 H387 0.959 . S
C381 H388 0.961 . S
C381 H389 0.960 . S
C382 C380 1.381 . S
C382 C383 1.394 . S
C382 H390 0.930 . S
C383 C382 1.394 . S
C383 C384 1.383 . S
C383 H391 0.929 . S
C384 C383 1.383 . S
C384 C385 1.377 . S
C385 H369 0.930 . S
C385 C384 1.377 . S
C385 C386 1.379 . S
C386 H370 0.931 . S
C386 C380 1.383 . S
C386 C385 1.379 . S
H387 C381 0.959 . S
H388 C381 0.961 . S
H389 C381 0.960 . S
H390 C382 0.930 . S
H391 C383 0.929 . S
H392 C400 0.929 . S
H393 C402 0.930 . S
H394 C404 0.930 . S
H395 C407 0.929 . S
H396 C410 0.930 . S
H397 C412 0.960 . S
H398 C412 0.960 . S
H399 C412 0.960 1_455 S
C400 H392 0.929 . S
C400 C401 1.377 . S
C400 C402 1.384 . S
C401 C400 1.377 . S
C401 C407 1.390 . S
C402 H393 0.930 . S
C402 C400 1.384 . S
C402 C403 1.372 . S
C403 C402 1.372 . S
C403 C404 1.400 . S
C403 C408 1.490 . S
C404 H394 0.930 . S
C404 C403 1.400 . S
C404 C407 1.386 . S
H405 C421 0.930 . S
H406 C422 0.931 . S
C407 H395 0.929 . S
C407 C401 1.390 . S
C407 C404 1.386 . S
C408 C403 1.490 . S
C408 C410 1.395 . S
C408 C411 1.403 1_455 S
H409 C415 0.930 . S
C410 H396 0.930 . S
C410 C408 1.395 . S
C410 C413 1.403 . S
C411 C408 1.403 1_655 S
C411 C412 1.524 . S
C411 C415 1.400 . S
C412 H397 0.960 . S
C412 H398 0.960 . S
C412 H399 0.960 1_655 S
C412 C411 1.524 . S
C413 C410 1.403 . S
C413 C414 1.392 1_455 S
C413 C417 1.495 . S
C414 C413 1.392 1_655 S
C414 C415 1.385 . S
C414 C416 1.478 . S
C415 H409 0.930 . S
C415 C411 1.400 . S
C415 C414 1.385 . S
C416 C414 1.478 . S
C416 C418 1.381 . S
C416 C422 1.383 . S
C417 C413 1.495 . S
C417 H423 0.959 . S
C417 H424 0.961 . S
C417 H425 0.960 1_455 S
C418 C416 1.381 . S
C418 C419 1.394 . S
C418 H426 0.930 . S
C419 C418 1.394 . S
C419 C420 1.383 . S
C419 H427 0.929 . S
C420 C419 1.383 . S
C420 C421 1.377 . S
C421 H405 0.930 . S
C421 C420 1.377 . S
C421 C422 1.379 . S
C422 H406 0.931 . S
C422 C416 1.383 . S
C422 C421 1.379 . S
H423 C417 0.959 . S
H424 C417 0.961 . S
H425 C417 0.960 1_655 S
H426 C418 0.930 . S
H427 C419 0.929 . S
H428 C436 0.929 . S
H429 C438 0.930 . S
H430 C440 0.930 . S
H431 C443 0.929 . S
H432 C446 0.930 . S
H433 C448 0.960 . S
H434 C448 0.960 . S
H435 C448 0.960 . S
C436 H428 0.929 . S
C436 C437 1.377 . S
C436 C438 1.384 . S
C437 C436 1.377 . S
C437 C443 1.390 . S
C438 H429 0.930 . S
C438 C436 1.384 . S
C438 C439 1.372 . S
C439 C438 1.372 . S
C439 C440 1.400 . S
C439 C444 1.490 . S
C440 H430 0.930 . S
C440 C439 1.400 . S
C440 C443 1.386 . S
H441 C457 0.930 . S
H442 C458 0.931 . S
C443 H431 0.929 . S
C443 C437 1.390 . S
C443 C440 1.386 . S
C444 C439 1.490 . S
C444 C446 1.395 1_655 S
C444 C447 1.403 . S
H445 C451 0.930 . S
C446 H432 0.930 . S
C446 C444 1.395 1_455 S
C446 C449 1.403 . S
C447 C444 1.403 . S
C447 C448 1.524 . S
C447 C451 1.400 . S
C448 H433 0.960 . S
C448 H434 0.960 . S
C448 H435 0.960 . S
C448 C447 1.524 . S
C449 C446 1.403 . S
C449 C450 1.392 . S
C449 C453 1.495 . S
C450 C449 1.392 . S
C450 C451 1.385 1_455 S
C450 C452 1.478 . S
C451 H445 0.930 . S
C451 C447 1.400 . S
C451 C450 1.385 1_655 S
C452 C450 1.478 . S
C452 C454 1.381 . S
C452 C458 1.383 . S
C453 C449 1.495 . S
C453 H459 0.959 . S
C453 H460 0.961 . S
C453 H461 0.960 . S
C454 C452 1.381 . S
C454 C455 1.394 . S
C454 H462 0.930 . S
C455 C454 1.394 . S
C455 C456 1.383 . S
C455 H463 0.929 . S
C456 C455 1.383 . S
C456 C457 1.377 . S
C457 H441 0.930 . S
C457 C456 1.377 . S
C457 C458 1.379 . S
C458 H442 0.931 . S
C458 C452 1.383 . S
C458 C457 1.379 . S
H459 C453 0.959 . S
H460 C453 0.961 . S
H461 C453 0.960 . S
H462 C454 0.930 . S
H463 C455 0.929 . S
H464 C472 0.929 . S
H465 C474 0.930 . S
H466 C476 0.930 . S
H467 C479 0.929 . S
H468 C482 0.930 . S
H469 C484 0.960 . S
H470 C484 0.960 . S
H471 C484 0.960 . S
C472 H464 0.929 . S
C472 C473 1.377 . S
C472 C474 1.384 . S
C473 C472 1.377 . S
C473 C479 1.390 . S
C474 H465 0.930 . S
C474 C472 1.384 . S
C474 C475 1.372 . S
C475 C474 1.372 . S
C475 C476 1.400 . S
C475 C480 1.490 . S
C476 H466 0.930 . S
C476 C475 1.400 . S
C476 C479 1.386 . S
H477 C493 0.930 . S
H478 C494 0.931 . S
C479 H467 0.929 . S
C479 C473 1.390 . S
C479 C476 1.386 . S
C480 C475 1.490 . S
C480 C482 1.395 . S
C480 C483 1.403 . S
H481 C487 0.930 . S
C482 H468 0.930 . S
C482 C480 1.395 . S
C482 C485 1.403 . S
C483 C480 1.403 . S
C483 C484 1.524 . S
C483 C487 1.400 . S
C484 H469 0.960 . S
C484 H470 0.960 . S
C484 H471 0.960 . S
C484 C483 1.524 . S
C485 C482 1.403 . S
C485 C486 1.392 . S
C485 C489 1.495 . S
C486 C485 1.392 . S
C486 C487 1.385 . S
C486 C488 1.478 . S
C487 H481 0.930 . S
C487 C483 1.400 . S
C487 C486 1.385 . S
C488 C486 1.478 . S
C488 C490 1.381 . S
C488 C494 1.383 . S
C489 C485 1.495 . S
C489 H495 0.959 . S
C489 H496 0.961 . S
C489 H497 0.960 . S
C490 C488 1.381 . S
C490 C491 1.394 . S
C490 H498 0.930 . S
C491 C490 1.394 . S
C491 C492 1.383 . S
C491 H499 0.929 . S
C492 C491 1.383 . S
C492 C493 1.377 . S
C493 H477 0.930 . S
C493 C492 1.377 . S
C493 C494 1.379 . S
C494 H478 0.931 . S
C494 C488 1.383 . S
C494 C493 1.379 . S
H495 C489 0.959 . S
H496 C489 0.961 . S
H497 C489 0.960 . S
H498 C490 0.930 . S
H499 C491 0.929 . S
H500 C508 0.929 . S
H501 C510 0.930 . S
H502 C512 0.930 . S
H503 C515 0.929 . S
H504 C518 0.930 . S
H505 C520 0.960 . S
H506 C520 0.960 . S
H507 C520 0.960 . S
C508 H500 0.929 . S
C508 C509 1.377 . S
C508 C510 1.384 . S
C509 C508 1.377 . S
C509 C515 1.390 . S
C510 H501 0.930 . S
C510 C508 1.384 . S
C510 C511 1.372 . S
C511 C510 1.372 . S
C511 C512 1.400 . S
C511 C516 1.490 . S
C512 H502 0.930 . S
C512 C511 1.400 . S
C512 C515 1.386 . S
H513 C529 0.930 . S
H514 C530 0.931 . S
C515 H503 0.929 . S
C515 C509 1.390 . S
C515 C512 1.386 . S
C516 C511 1.490 . S
C516 C518 1.395 . S
C516 C519 1.403 . S
H517 C523 0.930 . S
C518 H504 0.930 . S
C518 C516 1.395 . S
C518 C521 1.403 . S
C519 C516 1.403 . S
C519 C520 1.524 . S
C519 C523 1.400 . S
C520 H505 0.960 . S
C520 H506 0.960 . S
C520 H507 0.960 . S
C520 C519 1.524 . S
C521 C518 1.403 . S
C521 C522 1.392 . S
C521 C525 1.495 . S
C522 C521 1.392 . S
C522 C523 1.385 . S
C522 C524 1.478 . S
C523 H517 0.930 . S
C523 C519 1.400 . S
C523 C522 1.385 . S
C524 C522 1.478 . S
C524 C526 1.381 . S
C524 C530 1.383 . S
C525 C521 1.495 . S
C525 H531 0.959 . S
C525 H532 0.961 . S
C525 H533 0.960 . S
C526 C524 1.381 . S
C526 C527 1.394 . S
C526 H534 0.930 . S
C527 C526 1.394 . S
C527 C528 1.383 . S
C527 H535 0.929 . S
C528 C527 1.383 . S
C528 C529 1.377 . S
C529 H513 0.930 . S
C529 C528 1.377 . S
C529 C530 1.379 . S
C530 H514 0.931 . S
C530 C524 1.383 . S
C530 C529 1.379 . S
H531 C525 0.959 . S
H532 C525 0.961 . S
H533 C525 0.960 . S
H534 C526 0.930 . S
H535 C527 0.929 . S
H536 C544 0.929 . S
H537 C546 0.930 . S
H538 C548 0.930 . S
H539 C551 0.929 . S
H540 C554 0.933 . S
H541 C556 0.960 . S
H542 C556 0.960 . S
H543 C556 0.960 . S
C544 H536 0.929 . S
C544 C545 1.377 . S
C544 C546 1.384 . S
C545 C544 1.377 . S
C545 C551 1.390 . S
C546 H537 0.930 . S
C546 C544 1.384 . S
C546 C547 1.372 . S
C547 C546 1.372 . S
C547 C548 1.400 . S
C547 C552 1.490 . S
C548 H538 0.930 . S
C548 C547 1.400 . S
C548 C551 1.386 . S
H549 C565 0.930 . S
H550 C566 0.931 . S
C551 H539 0.929 . S
C551 C545 1.390 . S
C551 C548 1.386 . S
C552 C547 1.490 . S
C552 C554 1.419 . S
C552 C555 1.403 . S
H553 C559 0.930 . S
C554 H540 0.933 . S
C554 C552 1.419 . S
C554 C557 1.377 1_655 S
C555 C552 1.403 . S
C555 C556 1.524 . S
C555 C559 1.400 1_655 S
C556 H541 0.960 . S
C556 H542 0.960 . S
C556 H543 0.960 . S
C556 C555 1.524 . S
C557 C554 1.377 1_455 S
C557 C558 1.392 . S
C557 C561 1.495 . S
C558 C557 1.392 . S
C558 C559 1.385 . S
C558 C560 1.478 . S
C559 H553 0.930 . S
C559 C555 1.400 1_455 S
C559 C558 1.385 . S
C560 C558 1.478 . S
C560 C562 1.381 . S
C560 C566 1.383 . S
C561 C557 1.495 . S
C561 H567 0.959 . S
C561 H568 0.961 . S
C561 H569 0.960 . S
C562 C560 1.381 . S
C562 C563 1.394 . S
C562 H570 0.930 . S
C563 C562 1.394 . S
C563 C564 1.383 . S
C563 H571 0.929 . S
C564 C563 1.383 . S
C564 C565 1.377 . S
C565 H549 0.930 . S
C565 C564 1.377 . S
C565 C566 1.379 . S
C566 H550 0.931 . S
C566 C560 1.383 . S
C566 C565 1.379 . S
H567 C561 0.959 . S
H568 C561 0.961 . S
H569 C561 0.960 . S
H570 C562 0.930 . S
H571 C563 0.929 . S
H572 C580 0.929 . S
H573 C582 0.930 . S
H574 C584 0.930 . S
H575 C587 0.929 . S
H576 C590 0.930 . S
H577 C592 0.960 . S
H578 C592 0.960 . S
H579 C592 0.960 . S
C580 H572 0.929 . S
C580 C581 1.377 . S
C580 C582 1.384 . S
C581 C580 1.377 . S
C581 C587 1.390 . S
C582 H573 0.930 . S
C582 C580 1.384 . S
C582 C583 1.372 . S
C583 C582 1.372 . S
C583 C584 1.400 . S
C583 C588 1.490 . S
C584 H574 0.930 . S
C584 C583 1.400 . S
C584 C587 1.386 . S
H585 C601 0.930 . S
H586 C602 0.931 . S
C587 H575 0.929 . S
C587 C581 1.390 . S
C587 C584 1.386 . S
C588 C583 1.490 . S
C588 C590 1.395 . S
C588 C591 1.403 1_455 S
H589 C595 0.930 . S
C590 H576 0.930 . S
C590 C588 1.395 . S
C590 C593 1.403 . S
C591 C588 1.403 1_655 S
C591 C592 1.524 . S
C591 C595 1.400 . S
C592 H577 0.960 . S
C592 H578 0.960 . S
C592 H579 0.960 . S
C592 C591 1.524 . S
C593 C590 1.403 . S
C593 C594 1.392 1_455 S
C593 C597 1.495 . S
C594 C593 1.392 1_655 S
C594 C595 1.385 . S
C594 C596 1.478 . S
C595 H589 0.930 . S
C595 C591 1.400 . S
C595 C594 1.385 . S
C596 C594 1.478 . S
C596 C598 1.381 . S
C596 C602 1.383 . S
C597 C593 1.495 . S
C597 H603 0.959 . S
C597 H604 0.961 . S
C597 H605 0.960 . S
C598 C596 1.381 . S
C598 C599 1.394 . S
C598 H606 0.930 . S
C599 C598 1.394 . S
C599 C600 1.383 . S
C599 H607 0.929 . S
C600 C599 1.383 . S
C600 C601 1.377 . S
C601 H585 0.930 . S
C601 C600 1.377 . S
C601 C602 1.379 . S
C602 H586 0.931 . S
C602 C596 1.383 . S
C602 C601 1.379 . S
H603 C597 0.959 . S
H604 C597 0.961 . S
H605 C597 0.960 . S
H606 C598 0.930 . S
H607 C599 0.929 . S
H608 C616 0.929 . S
H609 C618 0.930 . S
H610 C620 0.930 . S
H611 C623 0.929 . S
H612 C626 0.930 1_554 S
H613 C628 0.960 . S
H614 C628 0.960 . S
H615 C628 0.960 . S
C616 H608 0.929 . S
C616 C617 1.377 . S
C616 C618 1.384 . S
C617 C616 1.377 . S
C617 C623 1.390 . S
C618 H609 0.930 . S
C618 C616 1.384 . S
C618 C619 1.372 . S
C619 C618 1.372 . S
C619 C620 1.400 . S
C619 C624 1.490 . S
C620 H610 0.930 . S
C620 C619 1.400 . S
C620 C623 1.386 . S
H621 C637 0.928 1_556 S
H622 C638 0.931 . S
C623 H611 0.929 . S
C623 C617 1.390 . S
C623 C620 1.386 . S
C624 C619 1.490 . S
C624 C626 1.395 . S
C624 C627 1.403 . S
H625 C631 0.930 . S
C626 H612 0.930 1_556 S
C626 C624 1.395 . S
C626 C629 1.403 1_556 S
C627 C624 1.403 . S
C627 C628 1.524 . S
C627 C631 1.400 . S
C628 H613 0.960 . S
C628 H614 0.960 . S
C628 H615 0.960 . S
C628 C627 1.524 . S
C629 C626 1.403 1_554 S
C629 C630 1.392 1_554 S
C629 C633 1.495 . S
C630 C629 1.392 1_556 S
C630 C631 1.385 . S
C630 C632 1.478 1_556 S
C631 H625 0.930 . S
C631 C627 1.400 . S
C631 C630 1.385 . S
C632 C630 1.478 1_554 S
C632 C634 1.381 . S
C632 C638 1.383 1_554 S
C633 C629 1.495 . S
C633 H639 0.959 . S
C633 H640 0.961 . S
C633 H641 0.960 . S
C634 C632 1.381 . S
C634 C635 1.394 . S
C634 H642 0.930 . S
C635 C634 1.394 . S
C635 C636 1.383 . S
C635 H643 0.929 . S
C636 C635 1.383 . S
C636 C637 1.377 . S
C637 H621 0.928 1_554 S
C637 C636 1.377 . S
C637 C638 1.379 1_554 S
C638 H622 0.931 . S
C638 C632 1.383 1_556 S
C638 C637 1.379 1_556 S
H639 C633 0.959 . S
H640 C633 0.961 . S
H641 C633 0.960 . S
H642 C634 0.930 . S
H643 C635 0.929 . S
H644 C652 0.929 . S
H645 C654 0.930 . S
H646 C656 0.930 . S
H647 C659 0.929 . S
H648 C662 0.930 . S
H649 C664 0.960 . S
H650 C664 0.960 . S
H651 C664 0.960 . S
C652 H644 0.929 . S
C652 C653 1.377 . S
C652 C654 1.384 . S
C653 C652 1.377 . S
C653 C659 1.390 . S
C654 H645 0.930 . S
C654 C652 1.384 . S
C654 C655 1.372 . S
C655 C654 1.372 . S
C655 C656 1.400 . S
C655 C660 1.490 . S
C656 H646 0.930 . S
C656 C655 1.400 . S
C656 C659 1.386 . S
H657 C673 0.930 . S
H658 C674 0.931 . S
C659 H647 0.929 . S
C659 C653 1.390 . S
C659 C656 1.386 . S
C660 C655 1.490 . S
C660 C662 1.395 . S
C660 C663 1.403 . S
H661 C667 0.930 . S
C662 H648 0.930 . S
C662 C660 1.395 . S
C662 C665 1.403 . S
C663 C660 1.403 . S
C663 C664 1.524 . S
C663 C667 1.400 . S
C664 H649 0.960 . S
C664 H650 0.960 . S
C664 H651 0.960 . S
C664 C663 1.524 . S
C665 C662 1.403 . S
C665 C666 1.392 . S
C665 C669 1.495 . S
C666 C665 1.392 . S
C666 C667 1.385 . S
C666 C668 1.478 . S
C667 H661 0.930 . S
C667 C663 1.400 . S
C667 C666 1.385 . S
C668 C666 1.478 . S
C668 C670 1.381 . S
C668 C674 1.383 . S
C669 C665 1.495 . S
C669 H675 0.959 . S
C669 H676 0.961 . S
C669 H677 0.960 . S
C670 C668 1.381 . S
C670 C671 1.394 . S
C670 H678 0.930 . S
C671 C670 1.394 . S
C671 C672 1.383 . S
C671 H679 0.929 . S
C672 C671 1.383 . S
C672 C673 1.377 . S
C673 H657 0.930 . S
C673 C672 1.377 . S
C673 C674 1.379 . S
C674 H658 0.931 . S
C674 C668 1.383 . S
C674 C673 1.379 . S
H675 C669 0.959 . S
H676 C669 0.961 . S
H677 C669 0.960 . S
H678 C670 0.930 . S
H679 C671 0.929 . S
H680 C688 0.929 . S
H681 C690 0.930 . S
H682 C692 0.930 . S
H683 C695 0.929 . S
H684 C698 0.930 . S
H685 C700 0.960 . S
H686 C700 0.960 . S
H687 C700 0.960 . S
C688 H680 0.929 . S
C688 C689 1.377 . S
C688 C690 1.384 . S
C689 C688 1.377 . S
C689 C695 1.390 . S
C690 H681 0.930 . S
C690 C688 1.384 . S
C690 C691 1.372 . S
C691 C690 1.372 . S
C691 C692 1.400 . S
C691 C696 1.490 . S
C692 H682 0.930 . S
C692 C691 1.400 . S
C692 C695 1.386 . S
H693 C709 0.930 . S
H694 C710 0.931 . S
C695 H683 0.929 . S
C695 C689 1.390 . S
C695 C692 1.386 . S
C696 C691 1.490 . S
C696 C698 1.395 . S
C696 C699 1.403 . S
H697 C703 0.930 . S
C698 H684 0.930 . S
C698 C696 1.395 . S
C698 C701 1.403 . S
C699 C696 1.403 . S
C699 C700 1.524 . S
C699 C703 1.400 . S
C700 H685 0.960 . S
C700 H686 0.960 . S
C700 H687 0.960 . S
C700 C699 1.524 . S
C701 C698 1.403 . S
C701 C702 1.392 . S
C701 C705 1.495 . S
C702 C701 1.392 . S
C702 C703 1.385 . S
C702 C704 1.478 . S
C703 H697 0.930 . S
C703 C699 1.400 . S
C703 C702 1.385 . S
C704 C702 1.478 . S
C704 C706 1.381 . S
C704 C710 1.383 . S
C705 C701 1.495 . S
C705 H711 0.959 . S
C705 H712 0.961 . S
C705 H713 0.960 . S
C706 C704 1.381 . S
C706 C707 1.394 . S
C706 H714 0.930 . S
C707 C706 1.394 . S
C707 C708 1.383 . S
C707 H715 0.929 . S
C708 C707 1.383 . S
C708 C709 1.377 . S
C709 H693 0.930 . S
C709 C708 1.377 . S
C709 C710 1.379 . S
C710 H694 0.931 . S
C710 C704 1.383 . S
C710 C709 1.379 . S
H711 C705 0.959 . S
H712 C705 0.961 . S
H713 C705 0.960 . S
H714 C706 0.930 . S
H715 C707 0.929 . S
H716 C724 0.929 . S
H717 C726 0.930 . S
H718 C728 0.930 . S
H719 C731 0.929 . S
H720 C734 0.930 . S
H721 C736 0.960 . S
H722 C736 0.960 . S
H723 C736 0.960 . S
C724 H716 0.929 . S
C724 C725 1.377 . S
C724 C726 1.384 . S
C725 C724 1.377 . S
C725 C731 1.390 . S
C726 H717 0.930 . S
C726 C724 1.384 . S
C726 C727 1.372 . S
C727 C726 1.372 . S
C727 C728 1.400 . S
C727 C732 1.490 . S
C728 H718 0.930 . S
C728 C727 1.400 . S
C728 C731 1.386 . S
H729 C745 0.930 . S
H730 C746 0.931 . S
C731 H719 0.929 . S
C731 C725 1.390 . S
C731 C728 1.386 . S
C732 C727 1.490 . S
C732 C734 1.395 . S
C732 C735 1.403 . S
H733 C739 0.930 . S
C734 H720 0.930 . S
C734 C732 1.395 . S
C734 C737 1.403 . S
C735 C732 1.403 . S
C735 C736 1.524 . S
C735 C739 1.400 . S
C736 H721 0.960 . S
C736 H722 0.960 . S
C736 H723 0.960 . S
C736 C735 1.524 . S
C737 C734 1.403 . S
C737 C738 1.392 . S
C737 C741 1.495 . S
C738 C737 1.392 . S
C738 C739 1.385 . S
C738 C740 1.478 . S
C739 H733 0.930 . S
C739 C735 1.400 . S
C739 C738 1.385 . S
C740 C738 1.478 . S
C740 C742 1.381 . S
C740 C746 1.383 . S
C741 C737 1.495 . S
C741 H747 0.959 . S
C741 H748 0.961 . S
C741 H749 0.960 . S
C742 C740 1.381 . S
C742 C743 1.394 . S
C742 H750 0.930 . S
C743 C742 1.394 . S
C743 C744 1.383 . S
C743 H751 0.929 . S
C744 C743 1.383 . S
C744 C745 1.377 . S
C745 H729 0.930 . S
C745 C744 1.377 . S
C745 C746 1.379 . S
C746 H730 0.931 . S
C746 C740 1.383 . S
C746 C745 1.379 . S
H747 C741 0.959 . S
H748 C741 0.961 . S
H749 C741 0.960 . S
H750 C742 0.930 . S
H751 C743 0.929 . S
H752 C760 0.929 . S
H753 C762 0.930 . S
H754 C764 0.930 . S
H755 C767 0.929 . S
H756 C770 0.930 . S
H757 C772 0.960 . S
H758 C772 0.960 . S
H759 C772 0.960 1_556 S
C760 H752 0.929 . S
C760 C761 1.377 1_554 S
C760 C762 1.384 . S
C761 C760 1.377 1_556 S
C761 C767 1.390 . S
C762 H753 0.930 . S
C762 C760 1.384 . S
C762 C763 1.372 . S
C763 C762 1.372 . S
C763 C764 1.400 1_554 S
C763 C768 1.490 . S
C764 H754 0.930 . S
C764 C763 1.400 1_556 S
C764 C767 1.386 . S
H765 C781 0.930 . S
H766 C782 0.931 . S
C767 H755 0.929 . S
C767 C761 1.390 . S
C767 C764 1.386 . S
C768 C763 1.490 . S
C768 C770 1.395 . S
C768 C771 1.403 . S
H769 C775 0.930 . S
C770 H756 0.930 . S
C770 C768 1.395 . S
C770 C773 1.403 . S
C771 C768 1.403 . S
C771 C772 1.524 . S
C771 C775 1.400 . S
C772 H757 0.960 . S
C772 H758 0.960 . S
C772 H759 0.960 1_554 S
C772 C771 1.524 . S
C773 C770 1.403 . S
C773 C774 1.392 . S
C773 C777 1.495 . S
C774 C773 1.392 . S
C774 C775 1.385 . S
C774 C776 1.478 . S
C775 H769 0.930 . S
C775 C771 1.400 . S
C775 C774 1.385 . S
C776 C774 1.478 . S
C776 C778 1.381 . S
C776 C782 1.383 . S
C777 C773 1.495 . S
C777 H783 0.959 . S
C777 H784 0.961 . S
C777 H785 0.960 . S
C778 C776 1.381 . S
C778 C779 1.394 . S
C778 H786 0.930 . S
C779 C778 1.394 . S
C779 C780 1.383 . S
C779 H787 0.929 . S
C780 C779 1.383 . S
C780 C781 1.377 . S
C781 H765 0.930 . S
C781 C780 1.377 . S
C781 C782 1.379 . S
C782 H766 0.931 . S
C782 C776 1.383 . S
C782 C781 1.379 . S
H783 C777 0.959 . S
H784 C777 0.961 . S
H785 C777 0.960 . S
H786 C778 0.930 . S
H787 C779 0.929 . S
H788 C796 0.929 . S
H789 C798 0.930 . S
H790 C800 0.930 . S
H791 C803 0.929 . S
H792 C806 0.930 . S
H793 C808 0.960 . S
H794 C808 0.960 . S
H795 C808 0.960 . S
C796 H788 0.929 . S
C796 C797 1.377 . S
C796 C798 1.384 . S
C797 C796 1.377 . S
C797 C803 1.390 . S
C798 H789 0.930 . S
C798 C796 1.384 . S
C798 C799 1.372 . S
C799 C798 1.372 . S
C799 C800 1.400 . S
C799 C804 1.490 . S
C800 H790 0.930 . S
C800 C799 1.400 . S
C800 C803 1.386 . S
H801 C817 0.930 . S
H802 C818 0.931 . S
C803 H791 0.929 . S
C803 C797 1.390 . S
C803 C800 1.386 . S
C804 C799 1.490 . S
C804 C806 1.395 . S
C804 C807 1.403 . S
H805 C811 0.930 . S
C806 H792 0.930 . S
C806 C804 1.395 . S
C806 C809 1.403 . S
C807 C804 1.403 . S
C807 C808 1.524 . S
C807 C811 1.400 . S
C808 H793 0.960 . S
C808 H794 0.960 . S
C808 H795 0.960 . S
C808 C807 1.524 . S
C809 C806 1.403 . S
C809 C810 1.392 . S
C809 C813 1.495 . S
C810 C809 1.392 . S
C810 C811 1.385 . S
C810 C812 1.478 . S
C811 H805 0.930 . S
C811 C807 1.400 . S
C811 C810 1.385 . S
C812 C810 1.478 . S
C812 C814 1.381 . S
C812 C818 1.383 . S
C813 C809 1.495 . S
C813 H819 0.959 . S
C813 H820 0.961 . S
C813 H821 0.960 . S
C814 C812 1.381 . S
C814 C815 1.394 . S
C814 H822 0.930 . S
C815 C814 1.394 . S
C815 C816 1.383 . S
C815 H823 0.929 . S
C816 C815 1.383 . S
C816 C817 1.377 . S
C817 H801 0.930 . S
C817 C816 1.377 . S
C817 C818 1.379 . S
C818 H802 0.931 . S
C818 C812 1.383 . S
C818 C817 1.379 . S
H819 C813 0.959 . S
H820 C813 0.961 . S
H821 C813 0.960 . S
H822 C814 0.930 . S
H823 C815 0.929 . S
H824 C832 0.929 . S
H825 C834 0.930 . S
H826 C836 0.930 . S
H827 C839 0.929 . S
H828 C842 0.930 . S
H829 C844 0.960 . S
H830 C844 0.960 . S
H831 C844 0.960 . S
C832 H824 0.929 . S
C832 C833 1.377 . S
C832 C834 1.384 . S
C833 C832 1.377 . S
C833 C839 1.390 . S
C834 H825 0.930 . S
C834 C832 1.384 . S
C834 C835 1.372 . S
C835 C834 1.372 . S
C835 C836 1.400 . S
C835 C840 1.490 . S
C836 H826 0.930 . S
C836 C835 1.400 . S
C836 C839 1.386 . S
H837 C853 0.930 . S
H838 C854 0.931 . S
C839 H827 0.929 . S
C839 C833 1.390 . S
C839 C836 1.386 . S
C840 C835 1.490 . S
C840 C842 1.395 . S
C840 C843 1.403 . S
H841 C847 0.930 . S
C842 H828 0.930 . S
C842 C840 1.395 . S
C842 C845 1.403 . S
C843 C840 1.403 . S
C843 C844 1.524 . S
C843 C847 1.400 . S
C844 H829 0.960 . S
C844 H830 0.960 . S
C844 H831 0.960 . S
C844 C843 1.524 . S
C845 C842 1.403 . S
C845 C846 1.392 . S
C845 C849 1.495 . S
C846 C845 1.392 . S
C846 C847 1.385 . S
C846 C848 1.478 . S
C847 H841 0.930 . S
C847 C843 1.400 . S
C847 C846 1.385 . S
C848 C846 1.478 . S
C848 C850 1.381 . S
C848 C854 1.383 . S
C849 C845 1.495 . S
C849 H855 0.959 . S
C849 H856 0.961 . S
C849 H857 0.960 . S
C850 C848 1.381 . S
C850 C851 1.394 . S
C850 H858 0.930 . S
C851 C850 1.394 . S
C851 C852 1.383 . S
C851 H859 0.929 . S
C852 C851 1.383 . S
C852 C853 1.377 . S
C853 H837 0.930 . S
C853 C852 1.377 . S
C853 C854 1.379 . S
C854 H838 0.931 . S
C854 C848 1.383 . S
C854 C853 1.379 . S
H855 C849 0.959 . S
H856 C849 0.961 . S
H857 C849 0.960 . S
H858 C850 0.930 . S
H859 C851 0.929 . S
H860 C868 0.929 . S
H861 C870 0.930 . S
H862 C872 0.930 . S
H863 C875 0.929 . S
H864 C878 0.930 . S
H865 C880 0.960 . S
H866 C880 0.960 . S
H867 C880 0.960 . S
C868 H860 0.929 . S
C868 C869 1.377 . S
C868 C870 1.384 . S
C869 C868 1.377 . S
C869 C875 1.390 . S
C870 H861 0.930 . S
C870 C868 1.384 . S
C870 C871 1.372 . S
C871 C870 1.372 . S
C871 C872 1.400 . S
C871 C876 1.490 . S
C872 H862 0.930 . S
C872 C871 1.400 . S
C872 C875 1.386 . S
H873 C889 0.930 . S
H874 C890 0.931 . S
C875 H863 0.929 . S
C875 C869 1.390 . S
C875 C872 1.386 . S
C876 C871 1.490 . S
C876 C878 1.395 . S
C876 C879 1.403 . S
H877 C883 0.930 . S
C878 H864 0.930 . S
C878 C876 1.395 . S
C878 C881 1.403 . S
C879 C876 1.403 . S
C879 C880 1.524 . S
C879 C883 1.400 . S
C880 H865 0.960 . S
C880 H866 0.960 . S
C880 H867 0.960 . S
C880 C879 1.524 . S
C881 C878 1.403 . S
C881 C882 1.392 . S
C881 C885 1.495 . S
C882 C881 1.392 . S
C882 C883 1.385 . S
C882 C884 1.478 . S
C883 H877 0.930 . S
C883 C879 1.400 . S
C883 C882 1.385 . S
C884 C882 1.478 . S
C884 C886 1.381 . S
C884 C890 1.383 . S
C885 C881 1.495 . S
C885 H891 0.959 . S
C885 H892 0.961 . S
C885 H893 0.960 . S
C886 C884 1.381 . S
C886 C887 1.394 . S
C886 H894 0.930 . S
C887 C886 1.394 . S
C887 C888 1.383 . S
C887 H895 0.929 . S
C888 C887 1.383 . S
C888 C889 1.377 . S
C889 H873 0.930 . S
C889 C888 1.377 . S
C889 C890 1.379 . S
C890 H874 0.931 . S
C890 C884 1.383 . S
C890 C889 1.379 . S
H891 C885 0.959 . S
H892 C885 0.961 . S
H893 C885 0.960 . S
H894 C886 0.930 . S
H895 C887 0.929 . S
H896 C904 0.929 . S
H897 C906 0.930 . S
H898 C908 0.930 . S
H899 C911 0.929 . S
H900 C914 0.930 . S
H901 C916 0.960 . S
H902 C916 0.960 . S
H903 C916 0.960 . S
C904 H896 0.929 . S
C904 C905 1.377 . S
C904 C906 1.384 . S
C905 C904 1.377 . S
C905 C911 1.390 . S
C906 H897 0.930 . S
C906 C904 1.384 . S
C906 C907 1.372 . S
C907 C906 1.372 . S
C907 C908 1.400 . S
C907 C912 1.490 . S
C908 H898 0.930 . S
C908 C907 1.400 . S
C908 C911 1.386 . S
H909 C925 0.930 . S
H910 C926 0.931 . S
C911 H899 0.929 . S
C911 C905 1.390 . S
C911 C908 1.386 . S
C912 C907 1.490 . S
C912 C914 1.395 . S
C912 C915 1.403 . S
H913 C919 0.930 . S
C914 H900 0.930 . S
C914 C912 1.395 . S
C914 C917 1.403 . S
C915 C912 1.403 . S
C915 C916 1.524 . S
C915 C919 1.400 . S
C916 H901 0.960 . S
C916 H902 0.960 . S
C916 H903 0.960 . S
C916 C915 1.524 . S
C917 C914 1.403 . S
C917 C918 1.392 . S
C917 C921 1.495 . S
C918 C917 1.392 . S
C918 C919 1.385 . S
C918 C920 1.478 . S
C919 H913 0.930 . S
C919 C915 1.400 . S
C919 C918 1.385 . S
C920 C918 1.478 . S
C920 C922 1.381 . S
C920 C926 1.383 . S
C921 C917 1.495 . S
C921 H927 0.959 . S
C921 H928 0.961 . S
C921 H929 0.960 . S
C922 C920 1.381 . S
C922 C923 1.394 . S
C922 H930 0.930 . S
C923 C922 1.394 . S
C923 C924 1.383 . S
C923 H931 0.929 . S
C924 C923 1.383 . S
C924 C925 1.377 . S
C925 H909 0.930 . S
C925 C924 1.377 . S
C925 C926 1.379 . S
C926 H910 0.931 . S
C926 C920 1.383 . S
C926 C925 1.379 . S
H927 C921 0.959 . S
H928 C921 0.961 . S
H929 C921 0.960 . S
H930 C922 0.930 . S
H931 C923 0.929 . S
H932 C940 0.929 . S
H933 C942 0.930 . S
H934 C944 0.930 . S
H935 C947 0.929 . S
H936 C950 0.930 . S
H937 C952 0.960 . S
H938 C952 0.960 . S
H939 C952 0.960 . S
C940 H932 0.929 . S
C940 C941 1.377 . S
C940 C942 1.384 1_545 S
C941 C940 1.377 . S
C941 C947 1.390 . S
C942 H933 0.930 . S
C942 C940 1.384 1_565 S
C942 C943 1.372 . S
C943 C942 1.372 . S
C943 C944 1.400 . S
C943 C948 1.490 . S
C944 H934 0.930 . S
C944 C943 1.400 . S
C944 C947 1.386 1_565 S
H945 C961 0.930 . S
H946 C962 0.931 . S
C947 H935 0.929 . S
C947 C941 1.390 . S
C947 C944 1.386 1_545 S
C948 C943 1.490 . S
C948 C950 1.395 . S
C948 C951 1.403 . S
H949 C955 0.930 . S
C950 H936 0.930 . S
C950 C948 1.395 . S
C950 C953 1.403 . S
C951 C948 1.403 . S
C951 C952 1.524 . S
C951 C955 1.400 . S
C952 H937 0.960 . S
C952 H938 0.960 . S
C952 H939 0.960 . S
C952 C951 1.524 . S
C953 C950 1.403 . S
C953 C954 1.392 . S
C953 C957 1.495 . S
C954 C953 1.392 . S
C954 C955 1.385 . S
C954 C956 1.478 . S
C955 H949 0.930 . S
C955 C951 1.400 . S
C955 C954 1.385 . S
C956 C954 1.478 . S
C956 C958 1.381 . S
C956 C962 1.383 . S
C957 C953 1.495 . S
C957 H963 0.959 . S
C957 H964 0.961 . S
C957 H965 0.960 . S
C958 C956 1.381 . S
C958 C959 1.394 . S
C958 H966 0.930 . S
C959 C958 1.394 . S
C959 C960 1.383 . S
C959 H967 0.929 . S
C960 C959 1.383 . S
C960 C961 1.377 . S
C961 H945 0.930 . S
C961 C960 1.377 . S
C961 C962 1.379 . S
C962 H946 0.931 . S
C962 C956 1.383 . S
C962 C961 1.379 . S
H963 C957 0.959 . S
H964 C957 0.961 . S
H965 C957 0.960 . S
H966 C958 0.930 . S
H967 C959 0.929 . S
H968 C976 0.929 . S
H969 C978 0.930 . S
H970 C980 0.930 . S
H971 C983 0.929 . S
H972 C986 0.930 . S
H973 C988 0.960 . S
H974 C988 0.960 . S
H975 C988 0.960 . S
C976 H968 0.929 . S
C976 C977 1.377 1_556 S
C976 C978 1.384 . S
C977 C976 1.377 1_554 S
C977 C983 1.390 . S
C978 H969 0.930 . S
C978 C976 1.384 . S
C978 C979 1.372 . S
C979 C978 1.372 . S
C979 C980 1.400 1_556 S
C979 C984 1.490 . S
C980 H970 0.930 . S
C980 C979 1.400 1_554 S
C980 C983 1.386 . S
H981 C997 0.930 . S
H982 C998 0.931 . S
C983 H971 0.929 . S
C983 C977 1.390 . S
C983 C980 1.386 . S
C984 C979 1.490 . S
C984 C986 1.395 . S
C984 C987 1.403 . S
H985 C991 0.930 . S
C986 H972 0.930 . S
C986 C984 1.395 . S
C986 C989 1.403 . S
C987 C984 1.403 . S
C987 C988 1.524 1_556 S
C987 C991 1.400 . S
C988 H973 0.960 . S
C988 H974 0.960 . S
C988 H975 0.960 . S
C988 C987 1.524 1_554 S
C989 C986 1.403 . S
C989 C990 1.392 . S
C989 C993 1.495 . S
C990 C989 1.392 . S
C990 C991 1.385 . S
C990 C992 1.478 . S
C991 H985 0.930 . S
C991 C987 1.400 . S
C991 C990 1.385 . S
C992 C990 1.478 . S
C992 C994 1.381 . S
C992 C998 1.383 . S
C993 C989 1.495 . S
C993 H999 0.959 . S
C993 H1000 0.961 . S
C993 H1001 0.960 . S
C994 C992 1.381 . S
C994 C995 1.394 . S
C994 H1002 0.930 . S
C995 C994 1.394 . S
C995 C996 1.383 . S
C995 H1003 0.929 . S
C996 C995 1.383 . S
C996 C997 1.377 . S
C997 H981 0.930 . S
C997 C996 1.377 . S
C997 C998 1.379 . S
C998 H982 0.931 . S
C998 C992 1.383 . S
C998 C997 1.379 . S
H999 C993 0.959 . S
H1000 C993 0.961 . S
H1001 C993 0.960 . S
H1002 C994 0.930 . S
H1003 C995 0.929 . S
H1004 C1012 0.929 . S
H1005 C1014 0.924 1_545 S
H1006 C1016 0.930 . S
H1007 C1019 0.929 . S
H1008 C1022 0.930 . S
H1009 C1024 0.960 . S
H1010 C1024 0.960 . S
H1011 C1024 0.960 . S
C1012 H1004 0.929 . S
C1012 C1013 1.377 . S
C1012 C1014 1.413 . S
C1013 C1012 1.377 . S
C1013 C1019 1.390 . S
C1014 H1005 0.924 1_565 S
C1014 C1012 1.413 . S
C1014 C1015 1.349 1_565 S
C1015 C1014 1.349 1_545 S
C1015 C1016 1.400 . S
C1015 C1020 1.490 . S
C1016 H1006 0.930 . S
C1016 C1015 1.400 . S
C1016 C1019 1.386 1_545 S
H1017 C1033 0.930 . S
H1018 C1034 0.931 . S
C1019 H1007 0.929 . S
C1019 C1013 1.390 . S
C1019 C1016 1.386 1_565 S
C1020 C1015 1.490 . S
C1020 C1022 1.395 . S
C1020 C1023 1.403 . S
H1021 C1027 0.930 . S
C1022 H1008 0.930 . S
C1022 C1020 1.395 . S
C1022 C1025 1.403 . S
C1023 C1020 1.403 . S
C1023 C1024 1.524 . S
C1023 C1027 1.400 . S
C1024 H1009 0.960 . S
C1024 H1010 0.960 . S
C1024 H1011 0.960 . S
C1024 C1023 1.524 . S
C1025 C1022 1.403 . S
C1025 C1026 1.392 . S
C1025 C1029 1.495 . S
C1026 C1025 1.392 . S
C1026 C1027 1.385 . S
C1026 C1028 1.478 . S
C1027 H1021 0.930 . S
C1027 C1023 1.400 . S
C1027 C1026 1.385 . S
C1028 C1026 1.478 . S
C1028 C1030 1.381 . S
C1028 C1034 1.383 . S
C1029 C1025 1.495 . S
C1029 H1035 0.959 . S
C1029 H1036 0.961 . S
C1029 H1037 0.960 . S
C1030 C1028 1.381 . S
C1030 C1031 1.394 . S
C1030 H1038 0.930 . S
C1031 C1030 1.394 . S
C1031 C1032 1.383 . S
C1031 H1039 0.929 . S
C1032 C1031 1.383 . S
C1032 C1033 1.377 . S
C1033 H1017 0.930 . S
C1033 C1032 1.377 . S
C1033 C1034 1.379 . S
C1034 H1018 0.931 . S
C1034 C1028 1.383 . S
C1034 C1033 1.379 . S
H1035 C1029 0.959 . S
H1036 C1029 0.961 . S
H1037 C1029 0.960 . S
H1038 C1030 0.930 . S
H1039 C1031 0.929 . S
H1040 C1048 0.929 . S
H1041 C1050 0.930 . S
H1042 C1052 0.930 . S
H1043 C1055 0.929 . S
H1044 C1058 0.930 . S
H1045 C1060 0.960 . S
H1046 C1060 0.960 . S
H1047 C1060 0.960 . S
C1048 H1040 0.929 . S
C1048 C1049 1.377 . S
C1048 C1050 1.384 . S
C1049 C1048 1.377 . S
C1049 C1055 1.390 . S
C1050 H1041 0.930 . S
C1050 C1048 1.384 . S
C1050 C1051 1.372 . S
C1051 C1050 1.372 . S
C1051 C1052 1.400 . S
C1051 C1056 1.490 . S
C1052 H1042 0.930 . S
C1052 C1051 1.400 . S
C1052 C1055 1.386 . S
H1053 C1069 0.930 . S
H1054 C1070 0.931 . S
C1055 H1043 0.929 . S
C1055 C1049 1.390 . S
C1055 C1052 1.386 . S
C1056 C1051 1.490 . S
C1056 C1058 1.395 . S
C1056 C1059 1.403 . S
H1057 C1063 0.930 . S
C1058 H1044 0.930 . S
C1058 C1056 1.395 . S
C1058 C1061 1.403 . S
C1059 C1056 1.403 . S
C1059 C1060 1.524 . S
C1059 C1063 1.400 . S
C1060 H1045 0.960 . S
C1060 H1046 0.960 . S
C1060 H1047 0.960 . S
C1060 C1059 1.524 . S
C1061 C1058 1.403 . S
C1061 C1062 1.392 . S
C1061 C1065 1.495 . S
C1062 C1061 1.392 . S
C1062 C1063 1.385 . S
C1062 C1064 1.478 . S
C1063 H1057 0.930 . S
C1063 C1059 1.400 . S
C1063 C1062 1.385 . S
C1064 C1062 1.478 . S
C1064 C1066 1.381 . S
C1064 C1070 1.383 . S
C1065 C1061 1.495 . S
C1065 H1071 0.959 . S
C1065 H1072 0.961 . S
C1065 H1073 0.960 . S
C1066 C1064 1.381 . S
C1066 C1067 1.394 . S
C1066 H1074 0.930 . S
C1067 C1066 1.394 . S
C1067 C1068 1.383 . S
C1067 H1075 0.929 . S
C1068 C1067 1.383 . S
C1068 C1069 1.377 . S
C1069 H1053 0.930 . S
C1069 C1068 1.377 . S
C1069 C1070 1.379 . S
C1070 H1054 0.931 . S
C1070 C1064 1.383 . S
C1070 C1069 1.379 . S
H1071 C1065 0.959 . S
H1072 C1065 0.961 . S
H1073 C1065 0.960 . S
H1074 C1066 0.930 . S
H1075 C1067 0.929 . S
H1076 C1084 0.929 . S
H1077 C1086 0.930 . S
H1078 C1088 0.930 . S
H1079 C1091 0.929 . S
H1080 C1094 0.930 . S
H1081 C1096 0.960 . S
H1082 C1096 0.960 . S
H1083 C1096 0.960 . S
C1084 H1076 0.929 . S
C1084 C1085 1.377 . S
C1084 C1086 1.384 . S
C1085 C1084 1.377 . S
C1085 C1091 1.390 . S
C1086 H1077 0.930 . S
C1086 C1084 1.384 . S
C1086 C1087 1.372 . S
C1087 C1086 1.372 . S
C1087 C1088 1.400 . S
C1087 C1092 1.490 . S
C1088 H1078 0.930 . S
C1088 C1087 1.400 . S
C1088 C1091 1.386 . S
H1089 C1105 0.930 . S
H1090 C1106 0.931 . S
C1091 H1079 0.929 . S
C1091 C1085 1.390 . S
C1091 C1088 1.386 . S
C1092 C1087 1.490 . S
C1092 C1094 1.395 . S
C1092 C1095 1.403 . S
H1093 C1099 0.930 . S
C1094 H1080 0.930 . S
C1094 C1092 1.395 . S
C1094 C1097 1.403 . S
C1095 C1092 1.403 . S
C1095 C1096 1.524 . S
C1095 C1099 1.400 . S
C1096 H1081 0.960 . S
C1096 H1082 0.960 . S
C1096 H1083 0.960 . S
C1096 C1095 1.524 . S
C1097 C1094 1.403 . S
C1097 C1098 1.392 . S
C1097 C1101 1.495 . S
C1098 C1097 1.392 . S
C1098 C1099 1.385 . S
C1098 C1100 1.478 . S
C1099 H1093 0.930 . S
C1099 C1095 1.400 . S
C1099 C1098 1.385 . S
C1100 C1098 1.478 . S
C1100 C1102 1.381 . S
C1100 C1106 1.383 1_545 S
C1101 C1097 1.495 . S
C1101 H1107 0.959 . S
C1101 H1108 0.961 . S
C1101 H1109 0.960 . S
C1102 C1100 1.381 . S
C1102 C1103 1.394 1_545 S
C1102 H1110 0.930 . S
C1103 C1102 1.394 1_565 S
C1103 C1104 1.383 . S
C1103 H1111 0.929 . S
C1104 C1103 1.383 . S
C1104 C1105 1.377 . S
C1105 H1089 0.930 . S
C1105 C1104 1.377 . S
C1105 C1106 1.379 . S
C1106 H1090 0.931 . S
C1106 C1100 1.383 1_565 S
C1106 C1105 1.379 . S
H1107 C1101 0.959 . S
H1108 C1101 0.961 . S
H1109 C1101 0.960 . S
H1110 C1102 0.930 . S
H1111 C1103 0.929 . S
H1112 C1120 0.929 . S
H1113 C1122 0.930 . S
H1114 C1124 0.930 . S
H1115 C1127 0.929 . S
H1116 C1130 0.930 . S
H1117 C1132 0.960 . S
H1118 C1132 0.960 1_554 S
H1119 C1132 0.960 . S
C1120 H1112 0.929 . S
C1120 C1121 1.377 . S
C1120 C1122 1.384 . S
C1121 C1120 1.377 . S
C1121 C1127 1.390 . S
C1122 H1113 0.930 . S
C1122 C1120 1.384 . S
C1122 C1123 1.372 . S
C1123 C1122 1.372 . S
C1123 C1124 1.400 . S
C1123 C1128 1.490 . S
C1124 H1114 0.930 . S
C1124 C1123 1.400 . S
C1124 C1127 1.386 . S
H1125 C1141 0.930 . S
H1126 C1142 0.931 . S
C1127 H1115 0.929 . S
C1127 C1121 1.390 . S
C1127 C1124 1.386 . S
C1128 C1123 1.490 . S
C1128 C1130 1.395 . S
C1128 C1131 1.403 . S
H1129 C1135 0.930 1_556 S
C1130 H1116 0.930 . S
C1130 C1128 1.395 . S
C1130 C1133 1.403 . S
C1131 C1128 1.403 . S
C1131 C1132 1.524 1_554 S
C1131 C1135 1.400 . S
C1132 H1117 0.960 . S
C1132 H1118 0.960 1_556 S
C1132 H1119 0.960 . S
C1132 C1131 1.524 1_556 S
C1133 C1130 1.403 . S
C1133 C1134 1.392 . S
C1133 C1137 1.495 . S
C1134 C1133 1.392 . S
C1134 C1135 1.385 . S
C1134 C1136 1.478 . S
C1135 H1129 0.930 1_554 S
C1135 C1131 1.400 . S
C1135 C1134 1.385 . S
C1136 C1134 1.478 . S
C1136 C1138 1.381 . S
C1136 C1142 1.383 1_554 S
C1137 C1133 1.495 . S
C1137 H1143 0.959 . S
C1137 H1144 0.961 . S
C1137 H1145 0.960 . S
C1138 C1136 1.381 . S
C1138 C1139 1.394 . S
C1138 H1146 0.930 . S
C1139 C1138 1.394 . S
C1139 C1140 1.383 1_554 S
C1139 H1147 0.929 . S
C1140 C1139 1.383 1_556 S
C1140 C1141 1.377 . S
C1141 H1125 0.930 . S
C1141 C1140 1.377 . S
C1141 C1142 1.379 . S
C1142 H1126 0.931 . S
C1142 C1136 1.383 1_556 S
C1142 C1141 1.379 . S
H1143 C1137 0.959 . S
H1144 C1137 0.961 . S
H1145 C1137 0.960 . S
H1146 C1138 0.930 . S
H1147 C1139 0.929 . S
H1148 C1156 0.929 . S
H1149 C1158 0.930 . S
H1150 C1160 0.930 . S
H1151 C1163 0.929 . S
H1152 C1166 0.930 . S
H1153 C1168 0.960 . S
H1154 C1168 0.960 . S
H1155 C1168 0.960 . S
C1156 H1148 0.929 . S
C1156 C1157 1.377 . S
C1156 C1158 1.384 . S
C1157 C1156 1.377 . S
C1157 C1163 1.390 . S
C1158 H1149 0.930 . S
C1158 C1156 1.384 . S
C1158 C1159 1.372 1_545 S
C1159 C1158 1.372 1_565 S
C1159 C1160 1.400 . S
C1159 C1164 1.490 . S
C1160 H1150 0.930 . S
C1160 C1159 1.400 . S
C1160 C1163 1.386 1_565 S
H1161 C1177 0.930 . S
H1162 C1178 0.931 . S
C1163 H1151 0.929 . S
C1163 C1157 1.390 . S
C1163 C1160 1.386 1_545 S
C1164 C1159 1.490 . S
C1164 C1166 1.395 . S
C1164 C1167 1.403 . S
H1165 C1171 0.930 . S
C1166 H1152 0.930 . S
C1166 C1164 1.395 . S
C1166 C1169 1.403 . S
C1167 C1164 1.403 . S
C1167 C1168 1.524 . S
C1167 C1171 1.400 . S
C1168 H1153 0.960 . S
C1168 H1154 0.960 . S
C1168 H1155 0.960 . S
C1168 C1167 1.524 . S
C1169 C1166 1.403 . S
C1169 C1170 1.392 . S
C1169 C1173 1.495 . S
C1170 C1169 1.392 . S
C1170 C1171 1.385 . S
C1170 C1172 1.478 . S
C1171 H1165 0.930 . S
C1171 C1167 1.400 . S
C1171 C1170 1.385 . S
C1172 C1170 1.478 . S
C1172 C1174 1.381 . S
C1172 C1178 1.383 . S
C1173 C1169 1.495 . S
C1173 H1179 0.959 . S
C1173 H1180 0.961 . S
C1173 H1181 0.960 . S
C1174 C1172 1.381 . S
C1174 C1175 1.394 . S
C1174 H1182 0.930 . S
C1175 C1174 1.394 . S
C1175 C1176 1.383 . S
C1175 H1183 0.929 . S
C1176 C1175 1.383 . S
C1176 C1177 1.377 . S
C1177 H1161 0.930 . S
C1177 C1176 1.377 . S
C1177 C1178 1.379 . S
C1178 H1162 0.931 . S
C1178 C1172 1.383 . S
C1178 C1177 1.379 . S
H1179 C1173 0.959 . S
H1180 C1173 0.961 . S
H1181 C1173 0.960 . S
H1182 C1174 0.930 . S
H1183 C1175 0.929 . S
H1184 C1192 0.929 . S
H1185 C1194 0.930 . S
H1186 C1196 0.930 . S
H1187 C1199 0.929 1_554 S
H1188 C1202 0.930 . S
H1189 C1204 0.960 . S
H1190 C1204 0.960 . S
H1191 C1204 0.960 . S
C1192 H1184 0.929 . S
C1192 C1193 1.377 . S
C1192 C1194 1.384 . S
C1193 C1192 1.377 . S
C1193 C1199 1.390 . S
C1194 H1185 0.930 . S
C1194 C1192 1.384 . S
C1194 C1195 1.372 . S
C1195 C1194 1.372 . S
C1195 C1196 1.400 . S
C1195 C1200 1.490 . S
C1196 H1186 0.930 . S
C1196 C1195 1.400 . S
C1196 C1199 1.386 . S
H1197 C1213 0.930 . S
H1198 C1214 0.931 . S
C1199 H1187 0.929 1_556 S
C1199 C1193 1.390 . S
C1199 C1196 1.386 . S
C1200 C1195 1.490 . S
C1200 C1202 1.395 . S
C1200 C1203 1.403 . S
H1201 C1207 0.930 . S
C1202 H1188 0.930 . S
C1202 C1200 1.395 . S
C1202 C1205 1.403 . S
C1203 C1200 1.403 . S
C1203 C1204 1.524 . S
C1203 C1207 1.400 . S
C1204 H1189 0.960 . S
C1204 H1190 0.960 . S
C1204 H1191 0.960 . S
C1204 C1203 1.524 . S
C1205 C1202 1.403 . S
C1205 C1206 1.392 . S
C1205 C1209 1.495 . S
C1206 C1205 1.392 . S
C1206 C1207 1.385 . S
C1206 C1208 1.478 . S
C1207 H1201 0.930 . S
C1207 C1203 1.400 . S
C1207 C1206 1.385 . S
C1208 C1206 1.478 . S
C1208 C1210 1.381 . S
C1208 C1214 1.383 . S
C1209 C1205 1.495 . S
C1209 H1215 0.959 . S
C1209 H1216 0.961 . S
C1209 H1217 0.960 . S
C1210 C1208 1.381 . S
C1210 C1211 1.394 . S
C1210 H1218 0.930 . S
C1211 C1210 1.394 . S
C1211 C1212 1.383 . S
C1211 H1219 0.929 . S
C1212 C1211 1.383 . S
C1212 C1213 1.377 . S
C1213 H1197 0.930 . S
C1213 C1212 1.377 . S
C1213 C1214 1.379 . S
C1214 H1198 0.931 . S
C1214 C1208 1.383 . S
C1214 C1213 1.379 . S
H1215 C1209 0.959 . S
H1216 C1209 0.961 . S
H1217 C1209 0.960 . S
H1218 C1210 0.930 . S
H1219 C1211 0.929 . S
H1220 C1228 0.929 . S
H1221 C1230 0.930 . S
H1222 C1232 0.930 . S
H1223 C1235 0.929 . S
H1224 C1238 0.930 . S
H1225 C1240 0.960 . S
H1226 C1240 0.960 . S
H1227 C1240 0.960 . S
C1228 H1220 0.929 . S
C1228 C1229 1.377 . S
C1228 C1230 1.384 . S
C1229 C1228 1.377 . S
C1229 C1235 1.390 . S
C1230 H1221 0.930 . S
C1230 C1228 1.384 . S
C1230 C1231 1.372 . S
C1231 C1230 1.372 . S
C1231 C1232 1.400 . S
C1231 C1236 1.490 . S
C1232 H1222 0.930 . S
C1232 C1231 1.400 . S
C1232 C1235 1.386 . S
H1233 C1249 0.930 . S
H1234 C1250 0.931 . S
C1235 H1223 0.929 . S
C1235 C1229 1.390 . S
C1235 C1232 1.386 . S
C1236 C1231 1.490 . S
C1236 C1238 1.395 . S
C1236 C1239 1.403 . S
H1237 C1243 0.930 . S
C1238 H1224 0.930 . S
C1238 C1236 1.395 . S
C1238 C1241 1.403 . S
C1239 C1236 1.403 . S
C1239 C1240 1.524 . S
C1239 C1243 1.400 . S
C1240 H1225 0.960 . S
C1240 H1226 0.960 . S
C1240 H1227 0.960 . S
C1240 C1239 1.524 . S
C1241 C1238 1.403 . S
C1241 C1242 1.392 . S
C1241 C1245 1.495 . S
C1242 C1241 1.392 . S
C1242 C1243 1.385 . S
C1242 C1244 1.478 . S
C1243 H1237 0.930 . S
C1243 C1239 1.400 . S
C1243 C1242 1.385 . S
C1244 C1242 1.478 . S
C1244 C1246 1.381 . S
C1244 C1250 1.383 . S
C1245 C1241 1.495 . S
C1245 H1251 0.959 . S
C1245 H1252 0.961 . S
C1245 H1253 0.960 . S
C1246 C1244 1.381 . S
C1246 C1247 1.376 1_554 S
C1246 H1254 0.930 . S
C1247 C1246 1.376 1_556 S
C1247 C1248 1.376 1_556 S
C1247 H1255 0.955 . S
C1248 C1247 1.376 1_554 S
C1248 C1249 1.377 . S
C1249 H1233 0.930 . S
C1249 C1248 1.377 . S
C1249 C1250 1.379 . S
C1250 H1234 0.931 . S
C1250 C1244 1.383 . S
C1250 C1249 1.379 . S
H1251 C1245 0.959 . S
H1252 C1245 0.961 . S
H1253 C1245 0.960 . S
H1254 C1246 0.930 . S
H1255 C1247 0.955 . S
H1256 C1264 0.929 . S
H1257 C1266 0.932 . S
H1258 C1268 0.930 . S
H1259 C1271 0.929 . S
H1260 C1274 0.930 . S
H1261 C1276 0.960 . S
H1262 C1276 0.960 1_655 S
H1263 C1276 0.960 . S
C1264 H1256 0.929 . S
C1264 C1265 1.377 . S
C1264 C1266 1.376 1_655 S
C1265 C1264 1.377 . S
C1265 C1271 1.390 . S
C1266 H1257 0.932 . S
C1266 C1264 1.376 1_455 S
C1266 C1267 1.377 . S
C1267 C1266 1.377 . S
C1267 C1268 1.400 . S
C1267 C1272 1.490 . S
C1268 H1258 0.930 . S
C1268 C1267 1.400 . S
C1268 C1271 1.386 1_455 S
H1269 C1285 0.930 . S
H1270 C1286 0.931 . S
C1271 H1259 0.929 . S
C1271 C1265 1.390 . S
C1271 C1268 1.386 1_655 S
C1272 C1267 1.490 . S
C1272 C1274 1.395 . S
C1272 C1275 1.403 . S
H1273 C1279 0.930 . S
C1274 H1260 0.930 . S
C1274 C1272 1.395 . S
C1274 C1277 1.403 . S
C1275 C1272 1.403 . S
C1275 C1276 1.524 . S
C1275 C1279 1.400 . S
C1276 H1261 0.960 . S
C1276 H1262 0.960 1_455 S
C1276 H1263 0.960 . S
C1276 C1275 1.524 . S
C1277 C1274 1.403 . S
C1277 C1278 1.392 . S
C1277 C1281 1.495 . S
C1278 C1277 1.392 . S
C1278 C1279 1.385 . S
C1278 C1280 1.478 . S
C1279 H1273 0.930 . S
C1279 C1275 1.400 . S
C1279 C1278 1.385 . S
C1280 C1278 1.478 . S
C1280 C1282 1.381 . S
C1280 C1286 1.383 . S
C1281 C1277 1.495 . S
C1281 H1287 0.959 . S
C1281 H1288 0.961 . S
C1281 H1289 0.960 . S
C1282 C1280 1.381 . S
C1282 C1283 1.394 . S
C1282 H1290 0.930 . S
C1283 C1282 1.394 . S
C1283 C1284 1.383 . S
C1283 H1291 0.929 . S
C1284 C1283 1.383 . S
C1284 C1285 1.377 . S
C1285 H1269 0.930 . S
C1285 C1284 1.377 . S
C1285 C1286 1.379 . S
C1286 H1270 0.931 . S
C1286 C1280 1.383 . S
C1286 C1285 1.379 . S
H1287 C1281 0.959 . S
H1288 C1281 0.961 . S
H1289 C1281 0.960 . S
H1290 C1282 0.930 . S
H1291 C1283 0.929 . S
H1292 C1300 0.929 . S
H1293 C1302 0.930 . S
H1294 C1304 0.930 . S
H1295 C1307 0.929 . S
H1296 C1310 0.930 . S
H1297 C1312 0.960 . S
H1298 C1312 0.960 . S
H1299 C1312 0.960 . S
C1300 H1292 0.929 . S
C1300 C1301 1.377 . S
C1300 C1302 1.384 . S
C1301 C1300 1.377 . S
C1301 C1307 1.390 . S
C1302 H1293 0.930 . S
C1302 C1300 1.384 . S
C1302 C1303 1.372 . S
C1303 C1302 1.372 . S
C1303 C1304 1.400 . S
C1303 C1308 1.490 . S
C1304 H1294 0.930 . S
C1304 C1303 1.400 . S
C1304 C1307 1.386 . S
H1305 C1321 0.930 . S
H1306 C1322 0.931 . S
C1307 H1295 0.929 . S
C1307 C1301 1.390 . S
C1307 C1304 1.386 . S
C1308 C1303 1.490 . S
C1308 C1310 1.395 . S
C1308 C1311 1.403 . S
H1309 C1315 0.930 . S
C1310 H1296 0.930 . S
C1310 C1308 1.395 . S
C1310 C1313 1.403 . S
C1311 C1308 1.403 . S
C1311 C1312 1.524 . S
C1311 C1315 1.400 . S
C1312 H1297 0.960 . S
C1312 H1298 0.960 . S
C1312 H1299 0.960 . S
C1312 C1311 1.524 . S
C1313 C1310 1.403 . S
C1313 C1314 1.392 . S
C1313 C1317 1.495 . S
C1314 C1313 1.392 . S
C1314 C1315 1.385 . S
C1314 C1316 1.478 . S
C1315 H1309 0.930 . S
C1315 C1311 1.400 . S
C1315 C1314 1.385 . S
C1316 C1314 1.478 . S
C1316 C1318 1.381 . S
C1316 C1322 1.383 . S
C1317 C1313 1.495 . S
C1317 H1323 0.959 . S
C1317 H1324 0.961 . S
C1317 H1325 0.960 . S
C1318 C1316 1.381 . S
C1318 C1319 1.394 . S
C1318 H1326 0.930 . S
C1319 C1318 1.394 . S
C1319 C1320 1.383 . S
C1319 H1327 0.929 . S
C1320 C1319 1.383 . S
C1320 C1321 1.377 . S
C1321 H1305 0.930 . S
C1321 C1320 1.377 . S
C1321 C1322 1.379 . S
C1322 H1306 0.931 . S
C1322 C1316 1.383 . S
C1322 C1321 1.379 . S
H1323 C1317 0.959 . S
H1324 C1317 0.961 . S
H1325 C1317 0.960 . S
H1326 C1318 0.930 . S
H1327 C1319 0.929 . S
H1328 C1336 0.929 . S
H1329 C1338 0.930 . S
H1330 C1340 0.930 . S
H1331 C1343 0.929 1_556 S
H1332 C1346 0.930 . S
H1333 C1348 0.960 . S
H1334 C1348 0.960 . S
H1335 C1348 0.960 . S
C1336 H1328 0.929 . S
C1336 C1337 1.377 . S
C1336 C1338 1.384 . S
C1337 C1336 1.377 . S
C1337 C1343 1.390 . S
C1338 H1329 0.930 . S
C1338 C1336 1.384 . S
C1338 C1339 1.372 . S
C1339 C1338 1.372 . S
C1339 C1340 1.400 . S
C1339 C1344 1.490 . S
C1340 H1330 0.930 . S
C1340 C1339 1.400 . S
C1340 C1343 1.386 . S
H1341 C1357 0.930 . S
H1342 C1358 0.931 . S
C1343 H1331 0.929 1_554 S
C1343 C1337 1.390 . S
C1343 C1340 1.386 . S
C1344 C1339 1.490 . S
C1344 C1346 1.395 . S
C1344 C1347 1.403 . S
H1345 C1351 0.930 . S
C1346 H1332 0.930 . S
C1346 C1344 1.395 . S
C1346 C1349 1.403 . S
C1347 C1344 1.403 . S
C1347 C1348 1.524 . S
C1347 C1351 1.400 . S
C1348 H1333 0.960 . S
C1348 H1334 0.960 . S
C1348 H1335 0.960 . S
C1348 C1347 1.524 . S
C1349 C1346 1.403 . S
C1349 C1350 1.392 . S
C1349 C1353 1.495 . S
C1350 C1349 1.392 . S
C1350 C1351 1.385 . S
C1350 C1352 1.478 . S
C1351 H1345 0.930 . S
C1351 C1347 1.400 . S
C1351 C1350 1.385 . S
C1352 C1350 1.478 . S
C1352 C1354 1.381 . S
C1352 C1358 1.383 . S
C1353 C1349 1.495 . S
C1353 H1359 0.959 . S
C1353 H1360 0.961 . S
C1353 H1361 0.960 . S
C1354 C1352 1.381 . S
C1354 C1355 1.394 . S
C1354 H1362 0.930 . S
C1355 C1354 1.394 . S
C1355 C1356 1.383 . S
C1355 H1363 0.929 . S
C1356 C1355 1.383 . S
C1356 C1357 1.377 . S
C1357 H1341 0.930 . S
C1357 C1356 1.377 . S
C1357 C1358 1.379 . S
C1358 H1342 0.931 . S
C1358 C1352 1.383 . S
C1358 C1357 1.379 . S
H1359 C1353 0.959 . S
H1360 C1353 0.961 . S
H1361 C1353 0.960 . S
H1362 C1354 0.930 . S
H1363 C1355 0.929 . S
H1364 C1372 0.929 . S
H1365 C1374 0.930 . S
H1366 C1376 0.930 . S
H1367 C1379 0.929 . S
H1368 C1382 0.930 . S
H1369 C1384 0.960 . S
H1370 C1384 0.960 . S
H1371 C1384 0.960 . S
C1372 H1364 0.929 . S
C1372 C1373 1.377 . S
C1372 C1374 1.384 . S
C1373 C1372 1.377 . S
C1373 C1379 1.390 . S
C1374 H1365 0.930 . S
C1374 C1372 1.384 . S
C1374 C1375 1.372 . S
C1375 C1374 1.372 . S
C1375 C1376 1.400 . S
C1375 C1380 1.490 . S
C1376 H1366 0.930 . S
C1376 C1375 1.400 . S
C1376 C1379 1.386 . S
H1377 C1393 0.930 . S
H1378 C1394 0.931 . S
C1379 H1367 0.929 . S
C1379 C1373 1.390 . S
C1379 C1376 1.386 . S
C1380 C1375 1.490 . S
C1380 C1382 1.395 . S
C1380 C1383 1.403 . S
H1381 C1387 0.930 . S
C1382 H1368 0.930 . S
C1382 C1380 1.395 . S
C1382 C1385 1.403 . S
C1383 C1380 1.403 . S
C1383 C1384 1.524 . S
C1383 C1387 1.400 . S
C1384 H1369 0.960 . S
C1384 H1370 0.960 . S
C1384 H1371 0.960 . S
C1384 C1383 1.524 . S
C1385 C1382 1.403 . S
C1385 C1386 1.392 . S
C1385 C1389 1.495 . S
C1386 C1385 1.392 . S
C1386 C1387 1.385 . S
C1386 C1388 1.478 . S
C1387 H1381 0.930 . S
C1387 C1383 1.400 . S
C1387 C1386 1.385 . S
C1388 C1386 1.478 . S
C1388 C1390 1.381 . S
C1388 C1394 1.383 . S
C1389 C1385 1.495 . S
C1389 H1395 0.959 . S
C1389 H1396 0.961 . S
C1389 H1397 0.960 . S
C1390 C1388 1.381 . S
C1390 C1391 1.412 . S
C1390 H1398 0.930 . S
C1391 C1390 1.412 . S
C1391 C1392 1.389 . S
C1391 H1399 0.906 1_556 S
C1392 C1391 1.389 . S
C1392 C1393 1.377 . S
C1393 H1377 0.930 . S
C1393 C1392 1.377 . S
C1393 C1394 1.379 . S
C1394 H1378 0.931 . S
C1394 C1388 1.383 . S
C1394 C1393 1.379 . S
H1395 C1389 0.959 . S
H1396 C1389 0.961 . S
H1397 C1389 0.960 . S
H1398 C1390 0.930 . S
H1399 C1391 0.906 1_554 S
H1400 C1408 0.929 . S
H1401 C1410 0.930 . S
H1402 C1412 0.930 . S
H1403 C1415 0.929 . S
H1404 C1418 0.930 . S
H1405 C1420 0.960 . S
H1406 C1420 0.960 . S
H1407 C1420 0.960 . S
C1408 H1400 0.929 . S
C1408 C1409 1.377 . S
C1408 C1410 1.384 1_455 S
C1409 C1408 1.377 . S
C1409 C1415 1.390 . S
C1410 H1401 0.930 . S
C1410 C1408 1.384 1_655 S
C1410 C1411 1.372 . S
C1411 C1410 1.372 . S
C1411 C1412 1.400 1_655 S
C1411 C1416 1.490 . S
C1412 H1402 0.930 . S
C1412 C1411 1.400 1_455 S
C1412 C1415 1.386 . S
H1413 C1429 0.930 . S
H1414 C1430 0.931 . S
C1415 H1403 0.929 . S
C1415 C1409 1.390 . S
C1415 C1412 1.386 . S
C1416 C1411 1.490 . S
C1416 C1418 1.395 . S
C1416 C1419 1.403 . S
H1417 C1423 0.930 . S
C1418 H1404 0.930 . S
C1418 C1416 1.395 . S
C1418 C1421 1.403 . S
C1419 C1416 1.403 . S
C1419 C1420 1.524 1_655 S
C1419 C1423 1.400 . S
C1420 H1405 0.960 . S
C1420 H1406 0.960 . S
C1420 H1407 0.960 . S
C1420 C1419 1.524 1_455 S
C1421 C1418 1.403 . S
C1421 C1422 1.392 . S
C1421 C1425 1.495 . S
C1422 C1421 1.392 . S
C1422 C1423 1.385 . S
C1422 C1424 1.478 . S
C1423 H1417 0.930 . S
C1423 C1419 1.400 . S
C1423 C1422 1.385 . S
C1424 C1422 1.478 . S
C1424 C1426 1.381 . S
C1424 C1430 1.383 . S
C1425 C1421 1.495 . S
C1425 H1431 0.959 . S
C1425 H1432 0.961 . S
C1425 H1433 0.960 . S
C1426 C1424 1.381 . S
C1426 C1427 1.394 . S
C1426 H1434 0.930 . S
C1427 C1426 1.394 . S
C1427 C1428 1.383 . S
C1427 H1435 0.929 . S
C1428 C1427 1.383 . S
C1428 C1429 1.377 . S
C1429 H1413 0.930 . S
C1429 C1428 1.377 . S
C1429 C1430 1.379 . S
C1430 H1414 0.931 . S
C1430 C1424 1.383 . S
C1430 C1429 1.379 . S
H1431 C1425 0.959 . S
H1432 C1425 0.961 . S
H1433 C1425 0.960 . S
H1434 C1426 0.930 . S
H1435 C1427 0.929 . S
H1436 C1444 0.929 . S
H1437 C1446 0.930 . S
H1438 C1448 0.930 . S
H1439 C1451 0.929 . S
H1440 C1454 0.930 . S
H1441 C1456 0.960 . S
H1442 C1456 0.960 . S
H1443 C1456 0.960 . S
C1444 H1436 0.929 . S
C1444 C1445 1.377 . S
C1444 C1446 1.384 . S
C1445 C1444 1.377 . S
C1445 C1451 1.390 . S
C1446 H1437 0.930 . S
C1446 C1444 1.384 . S
C1446 C1447 1.372 . S
C1447 C1446 1.372 . S
C1447 C1448 1.400 . S
C1447 C1452 1.490 . S
C1448 H1438 0.930 . S
C1448 C1447 1.400 . S
C1448 C1451 1.386 . S
H1449 C1465 0.930 . S
H1450 C1466 0.931 . S
C1451 H1439 0.929 . S
C1451 C1445 1.390 . S
C1451 C1448 1.386 . S
C1452 C1447 1.490 . S
C1452 C1454 1.395 . S
C1452 C1455 1.403 . S
H1453 C1459 0.930 . S
C1454 H1440 0.930 . S
C1454 C1452 1.395 . S
C1454 C1457 1.403 . S
C1455 C1452 1.403 . S
C1455 C1456 1.524 . S
C1455 C1459 1.400 . S
C1456 H1441 0.960 . S
C1456 H1442 0.960 . S
C1456 H1443 0.960 . S
C1456 C1455 1.524 . S
C1457 C1454 1.403 . S
C1457 C1458 1.392 . S
C1457 C1461 1.495 . S
C1458 C1457 1.392 . S
C1458 C1459 1.385 . S
C1458 C1460 1.478 . S
C1459 H1453 0.930 . S
C1459 C1455 1.400 . S
C1459 C1458 1.385 . S
C1460 C1458 1.478 . S
C1460 C1462 1.381 . S
C1460 C1466 1.383 . S
C1461 C1457 1.495 . S
C1461 H1467 0.959 . S
C1461 H1468 0.961 . S
C1461 H1469 0.960 . S
C1462 C1460 1.381 . S
C1462 C1463 1.394 . S
C1462 H1470 0.930 . S
C1463 C1462 1.394 . S
C1463 C1464 1.383 . S
C1463 H1471 0.929 . S
C1464 C1463 1.383 . S
C1464 C1465 1.377 . S
C1465 H1449 0.930 . S
C1465 C1464 1.377 . S
C1465 C1466 1.379 . S
C1466 H1450 0.931 . S
C1466 C1460 1.383 . S
C1466 C1465 1.379 . S
H1467 C1461 0.959 . S
H1468 C1461 0.961 . S
H1469 C1461 0.960 . S
H1470 C1462 0.930 . S
H1471 C1463 0.929 . S
H1472 C1480 0.929 . S
H1473 C1482 0.930 . S
H1474 C1484 0.930 . S
H1475 C1487 0.929 . S
H1476 C1490 0.930 . S
H1477 C1492 0.960 . S
H1478 C1492 0.960 . S
H1479 C1492 0.960 . S
C1480 H1472 0.929 . S
C1480 C1481 1.377 . S
C1480 C1482 1.384 . S
C1481 C1480 1.377 . S
C1481 C1487 1.390 . S
C1482 H1473 0.930 . S
C1482 C1480 1.384 . S
C1482 C1483 1.372 . S
C1483 C1482 1.372 . S
C1483 C1484 1.400 . S
C1483 C1488 1.490 . S
C1484 H1474 0.930 . S
C1484 C1483 1.400 . S
C1484 C1487 1.386 . S
H1485 C1501 0.930 . S
H1486 C1502 0.931 . S
C1487 H1475 0.929 . S
C1487 C1481 1.390 . S
C1487 C1484 1.386 . S
C1488 C1483 1.490 . S
C1488 C1490 1.395 . S
C1488 C1491 1.403 . S
H1489 C1495 0.930 . S
C1490 H1476 0.930 . S
C1490 C1488 1.395 . S
C1490 C1493 1.403 . S
C1491 C1488 1.403 . S
C1491 C1492 1.524 . S
C1491 C1495 1.400 . S
C1492 H1477 0.960 . S
C1492 H1478 0.960 . S
C1492 H1479 0.960 . S
C1492 C1491 1.524 . S
C1493 C1490 1.403 . S
C1493 C1494 1.392 . S
C1493 C1497 1.495 1_655 S
C1494 C1493 1.392 . S
C1494 C1495 1.385 . S
C1494 C1496 1.478 . S
C1495 H1489 0.930 . S
C1495 C1491 1.400 . S
C1495 C1494 1.385 . S
C1496 C1494 1.478 . S
C1496 C1498 1.381 1_655 S
C1496 C1502 1.383 . S
C1497 C1493 1.495 1_455 S
C1497 H1503 0.959 . S
C1497 H1504 0.961 . S
C1497 H1505 0.960 . S
C1498 C1496 1.381 1_455 S
C1498 C1499 1.394 . S
C1498 H1506 0.937 . S
C1499 C1498 1.394 . S
C1499 C1500 1.383 . S
C1499 H1507 0.929 . S
C1500 C1499 1.383 . S
C1500 C1501 1.377 . S
C1501 H1485 0.930 . S
C1501 C1500 1.377 . S
C1501 C1502 1.379 1_455 S
C1502 H1486 0.931 . S
C1502 C1496 1.383 . S
C1502 C1501 1.379 1_655 S
H1503 C1497 0.959 . S
H1504 C1497 0.961 . S
H1505 C1497 0.960 . S
H1506 C1498 0.937 . S
H1507 C1499 0.929 . S
H1508 C1516 0.929 . S
H1509 C1518 0.930 . S
H1510 C1520 0.930 . S
H1511 C1523 0.929 . S
H1512 C1526 0.930 . S
H1513 C1528 0.960 . S
H1514 C1528 0.960 . S
H1515 C1528 0.960 . S
C1516 H1508 0.929 . S
C1516 C1517 1.377 . S
C1516 C1518 1.384 . S
C1517 C1516 1.377 . S
C1517 C1523 1.390 . S
C1518 H1509 0.930 . S
C1518 C1516 1.384 . S
C1518 C1519 1.372 . S
C1519 C1518 1.372 . S
C1519 C1520 1.400 . S
C1519 C1524 1.490 . S
C1520 H1510 0.930 . S
C1520 C1519 1.400 . S
C1520 C1523 1.386 . S
H1521 C1537 0.930 . S
H1522 C1538 0.931 . S
C1523 H1511 0.929 . S
C1523 C1517 1.390 . S
C1523 C1520 1.386 . S
C1524 C1519 1.490 . S
C1524 C1526 1.395 . S
C1524 C1527 1.403 . S
H1525 C1531 0.930 . S
C1526 H1512 0.930 . S
C1526 C1524 1.395 . S
C1526 C1529 1.403 . S
C1527 C1524 1.403 . S
C1527 C1528 1.524 . S
C1527 C1531 1.400 . S
C1528 H1513 0.960 . S
C1528 H1514 0.960 . S
C1528 H1515 0.960 . S
C1528 C1527 1.524 . S
C1529 C1526 1.403 . S
C1529 C1530 1.392 . S
C1529 C1533 1.495 . S
C1530 C1529 1.392 . S
C1530 C1531 1.385 . S
C1530 C1532 1.478 . S
C1531 H1525 0.930 . S
C1531 C1527 1.400 . S
C1531 C1530 1.385 . S
C1532 C1530 1.478 . S
C1532 C1534 1.381 . S
C1532 C1538 1.383 . S
C1533 C1529 1.495 . S
C1533 H1539 0.959 . S
C1533 H1540 0.961 . S
C1533 H1541 0.960 . S
C1534 C1532 1.381 . S
C1534 C1535 1.394 . S
C1534 H1542 0.930 . S
C1535 C1534 1.394 . S
C1535 C1536 1.383 . S
C1535 H1543 0.929 . S
C1536 C1535 1.383 . S
C1536 C1537 1.377 . S
C1537 H1521 0.930 . S
C1537 C1536 1.377 . S
C1537 C1538 1.379 . S
C1538 H1522 0.931 . S
C1538 C1532 1.383 . S
C1538 C1537 1.379 . S
H1539 C1533 0.959 . S
H1540 C1533 0.961 . S
H1541 C1533 0.960 . S
H1542 C1534 0.930 . S
H1543 C1535 0.929 . S
H1544 C1552 0.929 . S
H1545 C1554 0.930 . S
H1546 C1556 0.930 . S
H1547 C1559 0.929 . S
H1548 C1562 0.930 . S
H1549 C1564 0.960 . S
H1550 C1564 0.960 . S
H1551 C1564 0.960 . S
C1552 H1544 0.929 . S
C1552 C1553 1.377 . S
C1552 C1554 1.384 . S
C1553 C1552 1.377 . S
C1553 C1559 1.390 . S
C1554 H1545 0.930 . S
C1554 C1552 1.384 . S
C1554 C1555 1.372 . S
C1555 C1554 1.372 . S
C1555 C1556 1.400 . S
C1555 C1560 1.490 . S
C1556 H1546 0.930 . S
C1556 C1555 1.400 . S
C1556 C1559 1.386 . S
H1557 C1573 0.930 1_554 S
H1558 C1574 0.931 . S
C1559 H1547 0.929 . S
C1559 C1553 1.390 . S
C1559 C1556 1.386 . S
C1560 C1555 1.490 . S
C1560 C1562 1.395 . S
C1560 C1563 1.403 . S
H1561 C1567 0.930 . S
C1562 H1548 0.930 . S
C1562 C1560 1.395 . S
C1562 C1565 1.403 . S
C1563 C1560 1.403 . S
C1563 C1564 1.524 . S
C1563 C1567 1.400 . S
C1564 H1549 0.960 . S
C1564 H1550 0.960 . S
C1564 H1551 0.960 . S
C1564 C1563 1.524 . S
C1565 C1562 1.403 . S
C1565 C1566 1.392 . S
C1565 C1569 1.495 . S
C1566 C1565 1.392 . S
C1566 C1567 1.385 . S
C1566 C1568 1.478 . S
C1567 H1561 0.930 . S
C1567 C1563 1.400 . S
C1567 C1566 1.385 . S
C1568 C1566 1.478 . S
C1568 C1570 1.381 . S
C1568 C1574 1.383 . S
C1569 C1565 1.495 . S
C1569 H1575 0.959 . S
C1569 H1576 0.961 . S
C1569 H1577 0.960 . S
C1570 C1568 1.381 . S
C1570 C1571 1.394 . S
C1570 H1578 0.930 . S
C1571 C1570 1.394 . S
C1571 C1572 1.383 . S
C1571 H1579 0.929 . S
C1572 C1571 1.383 . S
C1572 C1573 1.377 . S
C1573 H1557 0.930 1_556 S
C1573 C1572 1.377 . S
C1573 C1574 1.379 . S
C1574 H1558 0.931 . S
C1574 C1568 1.383 . S
C1574 C1573 1.379 . S
H1575 C1569 0.959 . S
H1576 C1569 0.961 . S
H1577 C1569 0.960 . S
H1578 C1570 0.930 . S
H1579 C1571 0.929 . S
H1580 C1588 0.929 1_556 S
H1581 C1590 0.930 . S
H1582 C1592 0.930 . S
H1583 C1595 0.929 . S
H1584 C1598 0.930 . S
H1585 C1600 0.960 . S
H1586 C1600 0.960 . S
H1587 C1600 0.960 . S
C1588 H1580 0.929 1_554 S
C1588 C1589 1.377 . S
C1588 C1590 1.384 . S
C1589 C1588 1.377 . S
C1589 C1595 1.390 . S
C1590 H1581 0.930 . S
C1590 C1588 1.384 . S
C1590 C1591 1.372 . S
C1591 C1590 1.372 . S
C1591 C1592 1.400 . S
C1591 C1596 1.490 . S
C1592 H1582 0.930 . S
C1592 C1591 1.400 . S
C1592 C1595 1.386 . S
H1593 C1609 0.930 . S
H1594 C1610 0.931 . S
C1595 H1583 0.929 . S
C1595 C1589 1.390 . S
C1595 C1592 1.386 . S
C1596 C1591 1.490 . S
C1596 C1598 1.395 . S
C1596 C1599 1.403 . S
H1597 C1603 0.930 . S
C1598 H1584 0.930 . S
C1598 C1596 1.395 . S
C1598 C1601 1.403 . S
C1599 C1596 1.403 . S
C1599 C1600 1.524 . S
C1599 C1603 1.400 . S
C1600 H1585 0.960 . S
C1600 H1586 0.960 . S
C1600 H1587 0.960 . S
C1600 C1599 1.524 . S
C1601 C1598 1.403 . S
C1601 C1602 1.392 . S
C1601 C1605 1.495 . S
C1602 C1601 1.392 . S
C1602 C1603 1.385 . S
C1602 C1604 1.478 . S
C1603 H1597 0.930 . S
C1603 C1599 1.400 . S
C1603 C1602 1.385 . S
C1604 C1602 1.478 . S
C1604 C1606 1.381 . S
C1604 C1610 1.383 . S
C1605 C1601 1.495 . S
C1605 H1611 0.959 . S
C1605 H1612 0.961 . S
C1605 H1613 0.960 . S
C1606 C1604 1.381 . S
C1606 C1607 1.394 . S
C1606 H1614 0.930 . S
C1607 C1606 1.394 . S
C1607 C1608 1.383 . S
C1607 H1615 0.929 . S
C1608 C1607 1.383 . S
C1608 C1609 1.377 . S
C1609 H1593 0.930 . S
C1609 C1608 1.377 . S
C1609 C1610 1.379 . S
C1610 H1594 0.931 . S
C1610 C1604 1.383 . S
C1610 C1609 1.379 . S
H1611 C1605 0.959 . S
H1612 C1605 0.961 . S
H1613 C1605 0.960 . S
H1614 C1606 0.930 . S
H1615 C1607 0.929 . S
H1616 C1624 0.929 . S
H1617 C1626 0.930 . S
H1618 C1628 0.930 . S
H1619 C1631 0.929 . S
H1620 C1634 0.930 . S
H1621 C1636 0.960 . S
H1622 C1636 0.960 . S
H1623 C1636 0.960 . S
C1624 H1616 0.929 . S
C1624 C1625 1.377 . S
C1624 C1626 1.384 . S
C1625 C1624 1.377 . S
C1625 C1631 1.390 . S
C1626 H1617 0.930 . S
C1626 C1624 1.384 . S
C1626 C1627 1.372 . S
C1627 C1626 1.372 . S
C1627 C1628 1.400 . S
C1627 C1632 1.490 . S
C1628 H1618 0.930 . S
C1628 C1627 1.400 . S
C1628 C1631 1.386 . S
H1629 C1645 0.930 . S
H1630 C1646 0.931 . S
C1631 H1619 0.929 . S
C1631 C1625 1.390 . S
C1631 C1628 1.386 . S
C1632 C1627 1.490 . S
C1632 C1634 1.395 . S
C1632 C1635 1.403 . S
H1633 C1639 0.930 . S
C1634 H1620 0.930 . S
C1634 C1632 1.395 . S
C1634 C1637 1.403 . S
C1635 C1632 1.403 . S
C1635 C1636 1.524 . S
C1635 C1639 1.400 . S
C1636 H1621 0.960 . S
C1636 H1622 0.960 . S
C1636 H1623 0.960 . S
C1636 C1635 1.524 . S
C1637 C1634 1.403 . S
C1637 C1638 1.392 . S
C1637 C1641 1.495 . S
C1638 C1637 1.392 . S
C1638 C1639 1.385 . S
C1638 C1640 1.478 . S
C1639 H1633 0.930 . S
C1639 C1635 1.400 . S
C1639 C1638 1.385 . S
C1640 C1638 1.478 . S
C1640 C1642 1.373 1_455 S
C1640 C1646 1.383 . S
C1641 C1637 1.495 . S
C1641 H1647 0.959 . S
C1641 H1648 0.961 . S
C1641 H1649 0.960 . S
C1642 C1640 1.373 1_655 S
C1642 C1643 1.403 . S
C1642 H1650 0.929 1_655 S
C1643 C1642 1.403 . S
C1643 C1644 1.383 . S
C1643 H1651 0.929 . S
C1644 C1643 1.383 . S
C1644 C1645 1.377 . S
C1645 H1629 0.930 . S
C1645 C1644 1.377 . S
C1645 C1646 1.379 1_655 S
C1646 H1630 0.931 . S
C1646 C1640 1.383 . S
C1646 C1645 1.379 1_455 S
H1647 C1641 0.959 . S
H1648 C1641 0.961 . S
H1649 C1641 0.960 . S
H1650 C1642 0.929 1_455 S
H1651 C1643 0.929 . S
H1652 C1660 0.929 . S
H1653 C1662 0.930 . S
H1654 C1664 0.930 . S
H1655 C1667 0.929 . S
H1656 C1670 0.930 . S
H1657 C1672 0.960 . S
H1658 C1672 0.960 . S
H1659 C1672 0.960 . S
C1660 H1652 0.929 . S
C1660 C1661 1.377 . S
C1660 C1662 1.384 . S
C1661 C1660 1.377 . S
C1661 C1667 1.390 . S
C1662 H1653 0.930 . S
C1662 C1660 1.384 . S
C1662 C1663 1.372 . S
C1663 C1662 1.372 . S
C1663 C1664 1.400 . S
C1663 C1668 1.490 . S
C1664 H1654 0.930 . S
C1664 C1663 1.400 . S
C1664 C1667 1.386 . S
H1665 C1681 0.930 . S
H1666 C1682 0.931 . S
C1667 H1655 0.929 . S
C1667 C1661 1.390 . S
C1667 C1664 1.386 . S
C1668 C1663 1.490 . S
C1668 C1670 1.395 . S
C1668 C1671 1.403 . S
H1669 C1675 0.930 . S
C1670 H1656 0.930 . S
C1670 C1668 1.395 . S
C1670 C1673 1.403 . S
C1671 C1668 1.403 . S
C1671 C1672 1.524 . S
C1671 C1675 1.400 . S
C1672 H1657 0.960 . S
C1672 H1658 0.960 . S
C1672 H1659 0.960 . S
C1672 C1671 1.524 . S
C1673 C1670 1.403 . S
C1673 C1674 1.392 . S
C1673 C1677 1.495 . S
C1674 C1673 1.392 . S
C1674 C1675 1.385 . S
C1674 C1676 1.478 . S
C1675 H1669 0.930 . S
C1675 C1671 1.400 . S
C1675 C1674 1.385 . S
C1676 C1674 1.478 . S
C1676 C1678 1.381 . S
C1676 C1682 1.383 . S
C1677 C1673 1.495 . S
C1677 H1683 0.959 . S
C1677 H1684 0.961 . S
C1677 H1685 0.960 . S
C1678 C1676 1.381 . S
C1678 C1679 1.394 . S
C1678 H1686 0.930 . S
C1679 C1678 1.394 . S
C1679 C1680 1.383 . S
C1679 H1687 0.929 . S
C1680 C1679 1.383 . S
C1680 C1681 1.377 . S
C1681 H1665 0.930 . S
C1681 C1680 1.377 . S
C1681 C1682 1.379 . S
C1682 H1666 0.931 . S
C1682 C1676 1.383 . S
C1682 C1681 1.379 . S
H1683 C1677 0.959 . S
H1684 C1677 0.961 . S
H1685 C1677 0.960 . S
H1686 C1678 0.930 . S
H1687 C1679 0.929 . S
H1688 C1696 0.929 . S
H1689 C1698 0.930 . S
H1690 C1700 0.930 . S
H1691 C1703 0.929 . S
H1692 C1706 0.930 . S
H1693 C1708 0.960 . S
H1694 C1708 0.960 . S
H1695 C1708 0.960 . S
C1696 H1688 0.929 . S
C1696 C1697 1.377 . S
C1696 C1698 1.384 . S
C1697 C1696 1.377 . S
C1697 C1703 1.390 1_554 S
C1698 H1689 0.930 . S
C1698 C1696 1.384 . S
C1698 C1699 1.372 . S
C1699 C1698 1.372 . S
C1699 C1700 1.400 . S
C1699 C1704 1.490 . S
C1700 H1690 0.930 . S
C1700 C1699 1.400 . S
C1700 C1703 1.386 1_554 S
H1701 C1717 0.930 . S
H1702 C1718 0.931 . S
C1703 H1691 0.929 . S
C1703 C1697 1.390 1_556 S
C1703 C1700 1.386 1_556 S
C1704 C1699 1.490 . S
C1704 C1706 1.395 . S
C1704 C1707 1.403 . S
H1705 C1711 0.930 . S
C1706 H1692 0.930 . S
C1706 C1704 1.395 . S
C1706 C1709 1.403 . S
C1707 C1704 1.403 . S
C1707 C1708 1.524 . S
C1707 C1711 1.400 . S
C1708 H1693 0.960 . S
C1708 H1694 0.960 . S
C1708 H1695 0.960 . S
C1708 C1707 1.524 . S
C1709 C1706 1.403 . S
C1709 C1710 1.392 . S
C1709 C1713 1.495 . S
C1710 C1709 1.392 . S
C1710 C1711 1.385 . S
C1710 C1712 1.478 . S
C1711 H1705 0.930 . S
C1711 C1707 1.400 . S
C1711 C1710 1.385 . S
C1712 C1710 1.478 . S
C1712 C1714 1.381 . S
C1712 C1718 1.383 . S
C1713 C1709 1.495 . S
C1713 H1719 0.959 . S
C1713 H1720 0.961 . S
C1713 H1721 0.960 . S
C1714 C1712 1.381 . S
C1714 C1715 1.394 . S
C1714 H1722 0.930 . S
C1715 C1714 1.394 . S
C1715 C1716 1.383 . S
C1715 H1723 0.929 . S
C1716 C1715 1.383 . S
C1716 C1717 1.377 . S
C1717 H1701 0.930 . S
C1717 C1716 1.377 . S
C1717 C1718 1.379 . S
C1718 H1702 0.931 . S
C1718 C1712 1.383 . S
C1718 C1717 1.379 . S
H1719 C1713 0.959 . S
H1720 C1713 0.961 . S
H1721 C1713 0.960 . S
H1722 C1714 0.930 . S
H1723 C1715 0.929 . S
H1724 C1732 0.929 . S
H1725 C1734 0.930 . S
H1726 C1736 0.930 . S
H1727 C1739 0.929 1_554 S
H1728 C1742 0.930 . S
H1729 C1744 0.960 . S
H1730 C1744 0.960 . S
H1731 C1744 0.960 . S
C1732 H1724 0.929 . S
C1732 C1733 1.377 . S
C1732 C1734 1.384 . S
C1733 C1732 1.377 . S
C1733 C1739 1.390 . S
C1734 H1725 0.930 . S
C1734 C1732 1.384 . S
C1734 C1735 1.372 . S
C1735 C1734 1.372 . S
C1735 C1736 1.400 . S
C1735 C1740 1.490 . S
C1736 H1726 0.930 . S
C1736 C1735 1.400 . S
C1736 C1739 1.386 . S
H1737 C1753 0.930 . S
H1738 C1754 0.931 . S
C1739 H1727 0.929 1_556 S
C1739 C1733 1.390 . S
C1739 C1736 1.386 . S
C1740 C1735 1.490 . S
C1740 C1742 1.395 . S
C1740 C1743 1.403 . S
H1741 C1747 0.930 . S
C1742 H1728 0.930 . S
C1742 C1740 1.395 . S
C1742 C1745 1.403 . S
C1743 C1740 1.403 . S
C1743 C1744 1.524 . S
C1743 C1747 1.400 . S
C1744 H1729 0.960 . S
C1744 H1730 0.960 . S
C1744 H1731 0.960 . S
C1744 C1743 1.524 . S
C1745 C1742 1.403 . S
C1745 C1746 1.392 . S
C1745 C1749 1.495 . S
C1746 C1745 1.392 . S
C1746 C1747 1.385 . S
C1746 C1748 1.478 . S
C1747 H1741 0.930 . S
C1747 C1743 1.400 . S
C1747 C1746 1.385 . S
C1748 C1746 1.478 . S
C1748 C1750 1.381 . S
C1748 C1754 1.383 . S
C1749 C1745 1.495 . S
C1749 H1755 0.959 . S
C1749 H1756 0.961 . S
C1749 H1757 0.960 . S
C1750 C1748 1.381 . S
C1750 C1751 1.394 . S
C1750 H1758 0.930 . S
C1751 C1750 1.394 . S
C1751 C1752 1.383 . S
C1751 H1759 0.929 . S
C1752 C1751 1.383 . S
C1752 C1753 1.377 . S
C1753 H1737 0.930 . S
C1753 C1752 1.377 . S
C1753 C1754 1.379 . S
C1754 H1738 0.931 . S
C1754 C1748 1.383 . S
C1754 C1753 1.379 . S
H1755 C1749 0.959 . S
H1756 C1749 0.961 . S
H1757 C1749 0.960 . S
H1758 C1750 0.930 . S
H1759 C1751 0.929 . S
H1760 C1768 0.929 . S
H1761 C1770 0.930 . S
H1762 C1772 0.930 . S
H1763 C1775 0.929 . S
H1764 C1778 0.930 . S
H1765 C1780 0.960 . S
H1766 C1780 0.960 . S
H1767 C1780 0.960 . S
C1768 H1760 0.929 . S
C1768 C1769 1.377 . S
C1768 C1770 1.384 . S
C1769 C1768 1.377 . S
C1769 C1775 1.390 . S
C1770 H1761 0.930 . S
C1770 C1768 1.384 . S
C1770 C1771 1.372 . S
C1771 C1770 1.372 . S
C1771 C1772 1.400 . S
C1771 C1776 1.490 . S
C1772 H1762 0.930 . S
C1772 C1771 1.400 . S
C1772 C1775 1.386 . S
H1773 C1789 0.930 . S
H1774 C1790 0.931 . S
C1775 H1763 0.929 . S
C1775 C1769 1.390 . S
C1775 C1772 1.386 . S
C1776 C1771 1.490 . S
C1776 C1778 1.395 . S
C1776 C1779 1.403 . S
H1777 C1783 0.930 . S
C1778 H1764 0.930 . S
C1778 C1776 1.395 . S
C1778 C1781 1.403 . S
C1779 C1776 1.403 . S
C1779 C1780 1.524 . S
C1779 C1783 1.400 . S
C1780 H1765 0.960 . S
C1780 H1766 0.960 . S
C1780 H1767 0.960 . S
C1780 C1779 1.524 . S
C1781 C1778 1.403 . S
C1781 C1782 1.392 . S
C1781 C1785 1.495 . S
C1782 C1781 1.392 . S
C1782 C1783 1.385 . S
C1782 C1784 1.478 . S
C1783 H1777 0.930 . S
C1783 C1779 1.400 . S
C1783 C1782 1.385 . S
C1784 C1782 1.478 . S
C1784 C1786 1.381 . S
C1784 C1790 1.383 . S
C1785 C1781 1.495 . S
C1785 H1791 0.959 . S
C1785 H1792 0.961 . S
C1785 H1793 0.960 . S
C1786 C1784 1.381 . S
C1786 C1787 1.394 . S
C1786 H1794 0.930 . S
C1787 C1786 1.394 . S
C1787 C1788 1.383 . S
C1787 H1795 0.929 . S
C1788 C1787 1.383 . S
C1788 C1789 1.377 . S
C1789 H1773 0.930 . S
C1789 C1788 1.377 . S
C1789 C1790 1.379 . S
C1790 H1774 0.931 . S
C1790 C1784 1.383 . S
C1790 C1789 1.379 . S
H1791 C1785 0.959 . S
H1792 C1785 0.961 . S
H1793 C1785 0.960 . S
H1794 C1786 0.930 . S
H1795 C1787 0.929 . S
H1796 C1804 0.929 . S
H1797 C1806 0.930 . S
H1798 C1808 0.930 . S
H1799 C1811 0.929 . S
H1800 C1814 0.930 . S
H1801 C1816 0.960 . S
H1802 C1816 0.960 . S
H1803 C1816 0.960 . S
C1804 H1796 0.929 . S
C1804 C1805 1.377 . S
C1804 C1806 1.384 . S
C1805 C1804 1.377 . S
C1805 C1811 1.390 . S
C1806 H1797 0.930 . S
C1806 C1804 1.384 . S
C1806 C1807 1.372 . S
C1807 C1806 1.372 . S
C1807 C1808 1.400 . S
C1807 C1812 1.490 . S
C1808 H1798 0.930 . S
C1808 C1807 1.400 . S
C1808 C1811 1.386 . S
H1809 C1825 0.930 . S
H1810 C1826 0.931 . S
C1811 H1799 0.929 . S
C1811 C1805 1.390 . S
C1811 C1808 1.386 . S
C1812 C1807 1.490 . S
C1812 C1814 1.395 . S
C1812 C1815 1.403 . S
H1813 C1819 0.930 . S
C1814 H1800 0.930 . S
C1814 C1812 1.395 . S
C1814 C1817 1.403 . S
C1815 C1812 1.403 . S
C1815 C1816 1.524 . S
C1815 C1819 1.400 . S
C1816 H1801 0.960 . S
C1816 H1802 0.960 . S
C1816 H1803 0.960 . S
C1816 C1815 1.524 . S
C1817 C1814 1.403 . S
C1817 C1818 1.392 . S
C1817 C1821 1.495 . S
C1818 C1817 1.392 . S
C1818 C1819 1.385 . S
C1818 C1820 1.478 . S
C1819 H1813 0.930 . S
C1819 C1815 1.400 . S
C1819 C1818 1.385 . S
C1820 C1818 1.478 . S
C1820 C1822 1.381 . S
C1820 C1826 1.383 . S
C1821 C1817 1.495 . S
C1821 H1827 0.959 . S
C1821 H1828 0.961 . S
C1821 H1829 0.960 . S
C1822 C1820 1.381 . S
C1822 C1823 1.394 . S
C1822 H1830 0.930 . S
C1823 C1822 1.394 . S
C1823 C1824 1.383 . S
C1823 H1831 0.929 . S
C1824 C1823 1.383 . S
C1824 C1825 1.377 . S
C1825 H1809 0.930 . S
C1825 C1824 1.377 . S
C1825 C1826 1.379 . S
C1826 H1810 0.931 . S
C1826 C1820 1.383 . S
C1826 C1825 1.379 . S
H1827 C1821 0.959 . S
H1828 C1821 0.961 . S
H1829 C1821 0.960 . S
H1830 C1822 0.930 . S
H1831 C1823 0.929 . S
H1832 C1840 0.929 . S
H1833 C1842 0.930 . S
H1834 C1844 0.930 . S
H1835 C1847 0.929 . S
H1836 C1850 0.930 . S
H1837 C1852 0.960 . S
H1838 C1852 0.960 . S
H1839 C1852 0.960 . S
C1840 H1832 0.929 . S
C1840 C1841 1.377 . S
C1840 C1842 1.384 . S
C1841 C1840 1.377 . S
C1841 C1847 1.390 . S
C1842 H1833 0.930 . S
C1842 C1840 1.384 . S
C1842 C1843 1.372 . S
C1843 C1842 1.372 . S
C1843 C1844 1.400 . S
C1843 C1848 1.490 . S
C1844 H1834 0.930 . S
C1844 C1843 1.400 . S
C1844 C1847 1.386 . S
H1845 C1861 0.930 . S
H1846 C1862 0.931 . S
C1847 H1835 0.929 . S
C1847 C1841 1.390 . S
C1847 C1844 1.386 . S
C1848 C1843 1.490 . S
C1848 C1850 1.395 . S
C1848 C1851 1.403 . S
H1849 C1855 0.930 . S
C1850 H1836 0.930 . S
C1850 C1848 1.395 . S
C1850 C1853 1.403 . S
C1851 C1848 1.403 . S
C1851 C1852 1.524 . S
C1851 C1855 1.400 . S
C1852 H1837 0.960 . S
C1852 H1838 0.960 . S
C1852 H1839 0.960 . S
C1852 C1851 1.524 . S
C1853 C1850 1.403 . S
C1853 C1854 1.392 . S
C1853 C1857 1.495 . S
C1854 C1853 1.392 . S
C1854 C1855 1.385 . S
C1854 C1856 1.478 . S
C1855 H1849 0.930 . S
C1855 C1851 1.400 . S
C1855 C1854 1.385 . S
C1856 C1854 1.478 . S
C1856 C1858 1.381 . S
C1856 C1862 1.383 . S
C1857 C1853 1.495 . S
C1857 H1863 0.959 . S
C1857 H1864 0.961 . S
C1857 H1865 0.960 . S
C1858 C1856 1.381 . S
C1858 C1859 1.394 . S
C1858 H1866 0.930 . S
C1859 C1858 1.394 . S
C1859 C1860 1.383 . S
C1859 H1867 0.929 . S
C1860 C1859 1.383 . S
C1860 C1861 1.377 . S
C1861 H1845 0.930 . S
C1861 C1860 1.377 . S
C1861 C1862 1.379 . S
C1862 H1846 0.931 . S
C1862 C1856 1.383 . S
C1862 C1861 1.379 . S
H1863 C1857 0.959 . S
H1864 C1857 0.961 . S
H1865 C1857 0.960 . S
H1866 C1858 0.930 . S
H1867 C1859 0.929 . S
H1868 C1876 0.929 . S
H1869 C1878 0.930 . S
H1870 C1880 0.930 . S
H1871 C1883 0.929 . S
H1872 C1886 0.930 . S
H1873 C1888 0.960 . S
H1874 C1888 0.960 . S
H1875 C1888 0.960 . S
C1876 H1868 0.929 . S
C1876 C1877 1.377 . S
C1876 C1878 1.384 . S
C1877 C1876 1.377 . S
C1877 C1883 1.390 . S
C1878 H1869 0.930 . S
C1878 C1876 1.384 . S
C1878 C1879 1.372 . S
C1879 C1878 1.372 . S
C1879 C1880 1.400 . S
C1879 C1884 1.490 . S
C1880 H1870 0.930 . S
C1880 C1879 1.400 . S
C1880 C1883 1.386 . S
H1881 C1897 0.930 . S
H1882 C1898 0.931 . S
C1883 H1871 0.929 . S
C1883 C1877 1.390 . S
C1883 C1880 1.386 . S
C1884 C1879 1.490 . S
C1884 C1886 1.395 1_455 S
C1884 C1887 1.403 1_554 S
H1885 C1891 0.930 . S
C1886 H1872 0.930 . S
C1886 C1884 1.395 1_655 S
C1886 C1889 1.403 . S
C1887 C1884 1.403 1_556 S
C1887 C1888 1.524 . S
C1887 C1891 1.400 . S
C1888 H1873 0.960 . S
C1888 H1874 0.960 . S
C1888 H1875 0.960 . S
C1888 C1887 1.524 . S
C1889 C1886 1.403 . S
C1889 C1890 1.392 1_554 S
C1889 C1893 1.495 . S
C1890 C1889 1.392 1_556 S
C1890 C1891 1.385 1_655 S
C1890 C1892 1.478 . S
C1891 H1885 0.930 . S
C1891 C1887 1.400 . S
C1891 C1890 1.385 1_455 S
C1892 C1890 1.478 . S
C1892 C1894 1.381 . S
C1892 C1898 1.383 . S
C1893 C1889 1.495 . S
C1893 H1899 0.959 . S
C1893 H1900 0.961 . S
C1893 H1901 0.960 . S
C1894 C1892 1.381 . S
C1894 C1895 1.394 . S
C1894 H1902 0.930 . S
C1895 C1894 1.394 . S
C1895 C1896 1.383 . S
C1895 H1903 0.929 . S
C1896 C1895 1.383 . S
C1896 C1897 1.377 . S
C1897 H1881 0.930 . S
C1897 C1896 1.377 . S
C1897 C1898 1.379 . S
C1898 H1882 0.931 . S
C1898 C1892 1.383 . S
C1898 C1897 1.379 . S
H1899 C1893 0.959 . S
H1900 C1893 0.961 . S
H1901 C1893 0.960 . S
H1902 C1894 0.930 . S
H1903 C1895 0.929 . S
H1904 C1912 0.929 . S
H1905 C1914 0.930 . S
H1906 C1916 0.930 . S
H1907 C1919 0.929 . S
H1908 C1922 0.930 . S
H1909 C1924 0.960 . S
H1910 C1924 0.960 . S
H1911 C1924 0.960 . S
C1912 H1904 0.929 . S
C1912 C1913 1.377 . S
C1912 C1914 1.384 . S
C1913 C1912 1.377 . S
C1913 C1919 1.390 . S
C1914 H1905 0.930 . S
C1914 C1912 1.384 . S
C1914 C1915 1.372 . S
C1915 C1914 1.372 . S
C1915 C1916 1.400 . S
C1915 C1920 1.490 . S
C1916 H1906 0.930 . S
C1916 C1915 1.400 . S
C1916 C1919 1.386 . S
H1917 C1933 0.930 . S
H1918 C1934 0.931 . S
C1919 H1907 0.929 . S
C1919 C1913 1.390 . S
C1919 C1916 1.386 . S
C1920 C1915 1.490 . S
C1920 C1922 1.395 . S
C1920 C1923 1.403 . S
H1921 C1927 0.930 . S
C1922 H1908 0.930 . S
C1922 C1920 1.395 . S
C1922 C1925 1.403 . S
C1923 C1920 1.403 . S
C1923 C1924 1.524 . S
C1923 C1927 1.400 . S
C1924 H1909 0.960 . S
C1924 H1910 0.960 . S
C1924 H1911 0.960 . S
C1924 C1923 1.524 . S
C1925 C1922 1.403 . S
C1925 C1926 1.392 . S
C1925 C1929 1.495 . S
C1926 C1925 1.392 . S
C1926 C1927 1.385 . S
C1926 C1928 1.478 . S
C1927 H1921 0.930 . S
C1927 C1923 1.400 . S
C1927 C1926 1.385 . S
C1928 C1926 1.478 . S
C1928 C1930 1.381 . S
C1928 C1934 1.383 . S
C1929 C1925 1.495 . S
C1929 H1935 0.959 . S
C1929 H1936 0.961 . S
C1929 H1937 0.960 . S
C1930 C1928 1.381 . S
C1930 C1931 1.394 . S
C1930 H1938 0.930 . S
C1931 C1930 1.394 . S
C1931 C1932 1.383 . S
C1931 H1939 0.929 . S
C1932 C1931 1.383 . S
C1932 C1933 1.377 . S
C1933 H1917 0.930 . S
C1933 C1932 1.377 . S
C1933 C1934 1.379 . S
C1934 H1918 0.931 . S
C1934 C1928 1.383 . S
C1934 C1933 1.379 . S
H1935 C1929 0.959 . S
H1936 C1929 0.961 . S
H1937 C1929 0.960 . S
H1938 C1930 0.930 . S
H1939 C1931 0.929 . S
H1940 C1948 0.929 . S
H1941 C1950 0.930 . S
H1942 C1952 0.930 . S
H1943 C1955 0.929 . S
H1944 C1958 0.930 . S
H1945 C1960 0.960 . S
H1946 C1960 0.960 . S
H1947 C1960 0.960 . S
C1948 H1940 0.929 . S
C1948 C1949 1.377 . S
C1948 C1950 1.384 . S
C1949 C1948 1.377 . S
C1949 C1955 1.390 . S
C1950 H1941 0.930 . S
C1950 C1948 1.384 . S
C1950 C1951 1.372 . S
C1951 C1950 1.372 . S
C1951 C1952 1.400 . S
C1951 C1956 1.490 . S
C1952 H1942 0.930 . S
C1952 C1951 1.400 . S
C1952 C1955 1.386 . S
H1953 C1969 0.930 . S
H1954 C1970 0.931 . S
C1955 H1943 0.929 . S
C1955 C1949 1.390 . S
C1955 C1952 1.386 . S
C1956 C1951 1.490 . S
C1956 C1958 1.395 . S
C1956 C1959 1.403 . S
H1957 C1963 0.930 . S
C1958 H1944 0.930 . S
C1958 C1956 1.395 . S
C1958 C1961 1.403 . S
C1959 C1956 1.403 . S
C1959 C1960 1.524 . S
C1959 C1963 1.400 . S
C1960 H1945 0.960 . S
C1960 H1946 0.960 . S
C1960 H1947 0.960 . S
C1960 C1959 1.524 . S
C1961 C1958 1.403 . S
C1961 C1962 1.392 . S
C1961 C1965 1.495 . S
C1962 C1961 1.392 . S
C1962 C1963 1.385 . S
C1962 C1964 1.478 . S
C1963 H1957 0.930 . S
C1963 C1959 1.400 . S
C1963 C1962 1.385 . S
C1964 C1962 1.478 . S
C1964 C1966 1.381 . S
C1964 C1970 1.383 . S
C1965 C1961 1.495 . S
C1965 H1971 0.959 . S
C1965 H1972 0.961 . S
C1965 H1973 0.960 . S
C1966 C1964 1.381 . S
C1966 C1967 1.394 . S
C1966 H1974 0.930 . S
C1967 C1966 1.394 . S
C1967 C1968 1.383 . S
C1967 H1975 0.929 . S
C1968 C1967 1.383 . S
C1968 C1969 1.377 . S
C1969 H1953 0.930 . S
C1969 C1968 1.377 . S
C1969 C1970 1.379 . S
C1970 H1954 0.931 . S
C1970 C1964 1.383 . S
C1970 C1969 1.379 . S
H1971 C1965 0.959 . S
H1972 C1965 0.961 . S
H1973 C1965 0.960 . S
H1974 C1966 0.930 . S
H1975 C1967 0.929 . S
H1976 C1984 0.929 . S
H1977 C1986 0.930 . S
H1978 C1988 0.930 . S
H1979 C1991 0.929 . S
H1980 C1994 0.930 . S
H1981 C1996 0.960 . S
H1982 C1996 0.960 . S
H1983 C1996 0.960 . S
C1984 H1976 0.929 . S
C1984 C1985 1.377 . S
C1984 C1986 1.384 . S
C1985 C1984 1.377 . S
C1985 C1991 1.390 . S
C1986 H1977 0.930 . S
C1986 C1984 1.384 . S
C1986 C1987 1.372 . S
C1987 C1986 1.372 . S
C1987 C1988 1.400 . S
C1987 C1992 1.490 . S
C1988 H1978 0.930 . S
C1988 C1987 1.400 . S
C1988 C1991 1.386 . S
H1989 C2005 0.930 . S
H1990 C2006 0.931 . S
C1991 H1979 0.929 . S
C1991 C1985 1.390 . S
C1991 C1988 1.386 . S
C1992 C1987 1.490 . S
C1992 C1994 1.395 1_455 S
C1992 C1995 1.403 1_545 S
H1993 C1999 0.930 . S
C1994 H1980 0.930 . S
C1994 C1992 1.395 1_655 S
C1994 C1997 1.403 1_556 S
C1995 C1992 1.403 1_565 S
C1995 C1996 1.524 . S
C1995 C1999 1.400 1_556 S
C1996 H1981 0.960 . S
C1996 H1982 0.960 . S
C1996 H1983 0.960 . S
C1996 C1995 1.524 . S
C1997 C1994 1.403 1_554 S
C1997 C1998 1.392 1_545 S
C1997 C2001 1.495 . S
C1998 C1997 1.392 1_565 S
C1998 C1999 1.385 1_655 S
C1998 C2000 1.478 . S
C1999 H1993 0.930 . S
C1999 C1995 1.400 1_554 S
C1999 C1998 1.385 1_455 S
C2000 C1998 1.478 . S
C2000 C2002 1.381 . S
C2000 C2006 1.383 . S
C2001 C1997 1.495 . S
C2001 H2007 0.959 . S
C2001 H2008 0.961 . S
C2001 H2009 0.960 . S
C2002 C2000 1.381 . S
C2002 C2003 1.394 . S
C2002 H2010 0.930 . S
C2003 C2002 1.394 . S
C2003 C2004 1.383 . S
C2003 H2011 0.929 . S
C2004 C2003 1.383 . S
C2004 C2005 1.377 . S
C2005 H1989 0.930 . S
C2005 C2004 1.377 . S
C2005 C2006 1.379 . S
C2006 H1990 0.931 . S
C2006 C2000 1.383 . S
C2006 C2005 1.379 . S
H2007 C2001 0.959 . S
H2008 C2001 0.961 . S
H2009 C2001 0.960 . S
H2010 C2002 0.930 . S
H2011 C2003 0.929 . S
H2012 C2020 0.929 . S
H2013 C2022 0.930 . S
H2014 C2024 0.930 . S
H2015 C2027 0.929 . S
H2016 C2030 0.930 . S
H2017 C2032 0.960 . S
H2018 C2032 0.960 . S
H2019 C2032 0.960 . S
C2020 H2012 0.929 . S
C2020 C2021 1.377 . S
C2020 C2022 1.384 . S
C2021 C2020 1.377 . S
C2021 C2027 1.390 . S
C2022 H2013 0.930 . S
C2022 C2020 1.384 . S
C2022 C2023 1.372 . S
C2023 C2022 1.372 . S
C2023 C2024 1.400 . S
C2023 C2028 1.490 . S
C2024 H2014 0.930 . S
C2024 C2023 1.400 . S
C2024 C2027 1.386 . S
H2025 C2041 0.930 . S
H2026 C2042 0.931 . S
C2027 H2015 0.929 . S
C2027 C2021 1.390 . S
C2027 C2024 1.386 . S
C2028 C2023 1.490 . S
C2028 C2030 1.395 1_545 S
C2028 C2031 1.403 . S
H2029 C2035 0.931 . S
C2030 H2016 0.930 . S
C2030 C2028 1.395 1_565 S
C2030 C2033 1.403 . S
C2031 C2028 1.403 . S
C2031 C2032 1.524 . S
C2031 C2035 1.403 . S
C2032 H2017 0.960 . S
C2032 H2018 0.960 . S
C2032 H2019 0.960 . S
C2032 C2031 1.524 . S
C2033 C2030 1.403 . S
C2033 C2034 1.392 . S
C2033 C2037 1.495 . S
C2034 C2033 1.392 . S
C2034 C2035 1.381 1_565 S
C2034 C2036 1.478 . S
C2035 H2029 0.931 . S
C2035 C2031 1.403 . S
C2035 C2034 1.381 1_545 S
C2036 C2034 1.478 . S
C2036 C2038 1.381 . S
C2036 C2042 1.383 . S
C2037 C2033 1.495 . S
C2037 H2043 0.959 . S
C2037 H2044 0.961 . S
C2037 H2045 0.960 . S
C2038 C2036 1.381 . S
C2038 C2039 1.394 . S
C2038 H2046 0.930 . S
C2039 C2038 1.394 . S
C2039 C2040 1.383 . S
C2039 H2047 0.929 . S
C2040 C2039 1.383 . S
C2040 C2041 1.377 . S
C2041 H2025 0.930 . S
C2041 C2040 1.377 . S
C2041 C2042 1.379 . S
C2042 H2026 0.931 . S
C2042 C2036 1.383 . S
C2042 C2041 1.379 . S
H2043 C2037 0.959 . S
H2044 C2037 0.961 . S
H2045 C2037 0.960 . S
H2046 C2038 0.930 . S
H2047 C2039 0.929 . S
C329 C16 0.637 . S
C348 C216 0.687 . S
C365 C36 0.625 . S
C384 C236 0.581 . S
C401 C56 0.642 . S
C420 C176 0.692 . S
C437 C76 0.638 . S
C456 C196 0.688 . S
C473 C86 0.619 . S
C492 C286 0.672 . S
C509 C106 0.619 . S
C528 C306 0.672 . S
C545 C126 0.620 . S
C564 C246 0.590 . S
C581 C146 0.625 . S
C600 C266 0.573 . S
C617 C181 1.819 . S
C636 C6 1.862 . S
C653 C201 1.819 . S
C672 C26 1.863 . S
C689 C221 1.826 . S
C708 C46 1.837 . S
C725 C161 1.829 . S
C744 C66 1.823 . S
C761 C96 1.844 . S
C780 C269 1.802 . S
C797 C289 1.820 . S
C816 C116 1.848 . S
C833 C309 1.823 . S
C852 C136 1.826 . S
C869 C249 1.820 . S
C888 C156 1.850 . S
C905 C21 1.829 . S
C924 C166 1.823 . S
C941 C186 1.851 . S
C960 C41 1.808 . S
C977 C206 1.848 . S
C996 C61 1.826 . S
C1013 C226 1.849 . S
C1032 C1 1.821 . S
C1049 C256 1.850 . S
C1068 C109 1.844 . S
C1085 C129 1.829 . S
C1104 C276 1.853 . S
C1121 C149 1.819 . S
C1140 C296 1.823 . S
C1157 C316 1.846 . S
C1176 C89 1.795 . S
C1193 C8 1.380 1_556 S
C1212 C301 1.473 . S
C1229 C28 1.379 . S
C1248 C81 1.472 1_554 S
C1265 C261 1.479 . S
C1284 C48 1.369 . S
C1301 C121 1.478 . S
C1320 C68 1.354 . S
C1337 C99 1.394 1_554 S
C1356 C229 1.475 . S
C1373 C119 1.393 . S
C1392 C9 1.477 1_556 S
C1409 C189 1.480 . S
C1428 C139 1.357 . S
C1445 C49 1.480 . S
C1464 C159 1.380 . S
C1481 C168 1.386 . S
C1500 C141 1.475 . S
C1517 C188 1.382 . S
C1536 C241 1.475 . S
C1553 C101 1.479 . S
C1572 C208 1.362 1_556 S
C1589 C281 1.479 1_554 S
C1608 C228 1.357 . S
C1625 C259 1.394 . S
C1644 C69 1.474 . S
C1661 C279 1.390 . S
C1680 C169 1.472 . S
C1697 C299 1.393 1_554 S
C1716 C29 1.477 . S
C1733 C209 1.479 1_556 S
C1752 C319 1.349 . S
C1769 C19 2.184 . S
C1788 C248 2.160 . S
C1805 C39 2.186 . S
C1824 C108 2.202 . S
C1841 C59 2.177 . S
C1860 C288 2.161 . S
C1877 C148 2.188 . S
C1896 C79 2.185 . S
C1913 C88 2.182 . S
C1932 C179 2.201 . S
C1949 C219 2.177 . S
C1968 C128 2.170 . S
C1985 C199 2.185 . S
C2004 C268 2.204 . S
C2021 C308 2.186 . S
C2040 C239 2.173 . S
