# Generated by pormake.
# Topology fnl, (5)-cn, num edge types: 1
# Building blocks:
#     Node 0, Type 0, BuildingBlock: XOMCOT_clean_sbu_1, # of connection points: 5
#     Node 1, Type 0, BuildingBlock: XOMCOT_clean_sbu_1, # of connection points: 5
#     Node 2, Type 0, BuildingBlock: XOMCOT_clean_sbu_1, # of connection points: 5
#     Node 3, Type 0, BuildingBlock: XOMCOT_clean_sbu_1, # of connection points: 5
#     Node 4, Type 0, BuildingBlock: XOMCOT_clean_sbu_1, # of connection points: 5
#     Node 5, Type 0, BuildingBlock: XOMCOT_clean_sbu_1, # of connection points: 5
#     Node 6, Type 0, BuildingBlock: XOMCOT_clean_sbu_1, # of connection points: 5
#     Node 7, Type 0, BuildingBlock: XOMCOT_clean_sbu_1, # of connection points: 5
#     Node 8, Type 0, BuildingBlock: XOMCOT_clean_sbu_1, # of connection points: 5
#     Node 9, Type 0, BuildingBlock: XOMCOT_clean_sbu_1, # of connection points: 5
#     Node 10, Type 0, BuildingBlock: XOMCOT_clean_sbu_1, # of connection points: 5
#     Node 11, Type 0, BuildingBlock: XOMCOT_clean_sbu_1, # of connection points: 5
#     Node 12, Type 0, BuildingBlock: XOMCOT_clean_sbu_1, # of connection points: 5
#     Node 13, Type 0, BuildingBlock: XOMCOT_clean_sbu_1, # of connection points: 5
#     Node 14, Type 0, BuildingBlock: XOMCOT_clean_sbu_1, # of connection points: 5
#     Node 15, Type 0, BuildingBlock: XOMCOT_clean_sbu_1, # of connection points: 5
#     Edge 16, Type (0, 0), BuildingBlock: ZUJKAS_clean_linker_0, # of connection points: 2
#     Edge 17, Type (0, 0), BuildingBlock: ZUJKAS_clean_linker_0, # of connection points: 2
#     Edge 18, Type (0, 0), BuildingBlock: ZUJKAS_clean_linker_0, # of connection points: 2
#     Edge 19, Type (0, 0), BuildingBlock: ZUJKAS_clean_linker_0, # of connection points: 2
#     Edge 20, Type (0, 0), BuildingBlock: ZUJKAS_clean_linker_0, # of connection points: 2
#     Edge 21, Type (0, 0), BuildingBlock: ZUJKAS_clean_linker_0, # of connection points: 2
#     Edge 22, Type (0, 0), BuildingBlock: ZUJKAS_clean_linker_0, # of connection points: 2
#     Edge 23, Type (0, 0), BuildingBlock: ZUJKAS_clean_linker_0, # of connection points: 2
#     Edge 24, Type (0, 0), BuildingBlock: ZUJKAS_clean_linker_0, # of connection points: 2
#     Edge 25, Type (0, 0), BuildingBlock: ZUJKAS_clean_linker_0, # of connection points: 2
#     Edge 26, Type (0, 0), BuildingBlock: ZUJKAS_clean_linker_0, # of connection points: 2
#     Edge 27, Type (0, 0), BuildingBlock: ZUJKAS_clean_linker_0, # of connection points: 2
#     Edge 28, Type (0, 0), BuildingBlock: ZUJKAS_clean_linker_0, # of connection points: 2
#     Edge 29, Type (0, 0), BuildingBlock: ZUJKAS_clean_linker_0, # of connection points: 2
#     Edge 30, Type (0, 0), BuildingBlock: ZUJKAS_clean_linker_0, # of connection points: 2
#     Edge 31, Type (0, 0), BuildingBlock: ZUJKAS_clean_linker_0, # of connection points: 2
#     Edge 32, Type (0, 0), BuildingBlock: ZUJKAS_clean_linker_0, # of connection points: 2
#     Edge 33, Type (0, 0), BuildingBlock: ZUJKAS_clean_linker_0, # of connection points: 2
#     Edge 34, Type (0, 0), BuildingBlock: ZUJKAS_clean_linker_0, # of connection points: 2
#     Edge 35, Type (0, 0), BuildingBlock: ZUJKAS_clean_linker_0, # of connection points: 2
#     Edge 36, Type (0, 0), BuildingBlock: ZUJKAS_clean_linker_0, # of connection points: 2
#     Edge 37, Type (0, 0), BuildingBlock: ZUJKAS_clean_linker_0, # of connection points: 2
#     Edge 38, Type (0, 0), BuildingBlock: ZUJKAS_clean_linker_0, # of connection points: 2
#     Edge 39, Type (0, 0), BuildingBlock: ZUJKAS_clean_linker_0, # of connection points: 2
#     Edge 40, Type (0, 0), BuildingBlock: ZUJKAS_clean_linker_0, # of connection points: 2
#     Edge 41, Type (0, 0), BuildingBlock: ZUJKAS_clean_linker_0, # of connection points: 2
#     Edge 42, Type (0, 0), BuildingBlock: ZUJKAS_clean_linker_0, # of connection points: 2
#     Edge 43, Type (0, 0), BuildingBlock: ZUJKAS_clean_linker_0, # of connection points: 2
#     Edge 44, Type (0, 0), BuildingBlock: ZUJKAS_clean_linker_0, # of connection points: 2
#     Edge 45, Type (0, 0), BuildingBlock: ZUJKAS_clean_linker_0, # of connection points: 2
#     Edge 46, Type (0, 0), BuildingBlock: ZUJKAS_clean_linker_0, # of connection points: 2
#     Edge 47, Type (0, 0), BuildingBlock: ZUJKAS_clean_linker_0, # of connection points: 2
#     Edge 48, Type (0, 0), BuildingBlock: ZUJKAS_clean_linker_0, # of connection points: 2
#     Edge 49, Type (0, 0), BuildingBlock: ZUJKAS_clean_linker_0, # of connection points: 2
#     Edge 50, Type (0, 0), BuildingBlock: ZUJKAS_clean_linker_0, # of connection points: 2
#     Edge 51, Type (0, 0), BuildingBlock: ZUJKAS_clean_linker_0, # of connection points: 2
#     Edge 52, Type (0, 0), BuildingBlock: ZUJKAS_clean_linker_0, # of connection points: 2
#     Edge 53, Type (0, 0), BuildingBlock: ZUJKAS_clean_linker_0, # of connection points: 2
#     Edge 54, Type (0, 0), BuildingBlock: ZUJKAS_clean_linker_0, # of connection points: 2
#     Edge 55, Type (0, 0), BuildingBlock: ZUJKAS_clean_linker_0, # of connection points: 2
# Relax obj value: 0.490
# Max RMSD: 0.265
# Mean RMSD: 0.265
data_MOF--net-fnl--node1-XOMCOT_clean_sbu_1--edge1-ZUJKAS_clean_linker_0
_symmetry_space_group_name_H-M    P1
_symmetry_Int_Tables_number       1
_symmetry_cell_setting            triclinic
loop_
_symmetry_equiv_pos_as_xyz
'x, y, z'
_cell_length_a     42.617333
_cell_length_b     42.694578
_cell_length_c     124.21708
_cell_angle_alpha  89.968361
_cell_angle_beta   90.013582
_cell_angle_gamma 90.017793
loop_
_atom_site_label
_atom_site_type_symbol
_atom_site_fract_x
_atom_site_fract_y
_atom_site_fract_z
_atom_type_partial_charge
C0 C 0.98304 0.04229 0.06004 0.0
C1 C 0.97933 0.01144 0.05719 0.0
N2 N 0.00124 0.99442 0.06239 0.0
N3 N 0.007 0.04469 0.06706 0.0
C4 C 0.01784 0.01521 0.0683 0.0
H5 H 0.96931 0.06187 0.05716 0.0
Co6 Co 0.01993 0.08245 0.07265 0.0
C7 C 0.0532 0.06842 0.09293 0.0
O8 O 0.03889 0.0924 0.0974 0.0
N9 N 0.03318 0.12166 0.07782 0.0
C10 C 0.06451 0.16188 0.08169 0.0
C11 C 0.06326 0.13028 0.07962 0.0
C12 C 0.01679 0.1486 0.07861 0.0
N13 N 0.03519 0.17337 0.08097 0.0
O14 O 0.05338 0.08288 0.0625 0.0
H15 H 0.08325 0.11477 0.07901 0.0
H16 H 0.99206 0.15058 0.07706 0.0
O17 O 0.04743 0.06139 0.0831 0.0
C18 C 0.05002 0.10116 0.0545 0.0
O19 O 0.02567 0.12004 0.0543 0.0
N20 N 0.98497 0.08136 0.08198 0.0
C21 C 0.92773 0.0764 0.09281 0.0
C22 C 0.95332 0.05764 0.09573 0.0
C23 C 0.98132 0.05976 0.09001 0.0
C24 C 0.95971 0.09845 0.07863 0.0
C25 C 0.93101 0.09679 0.08405 0.0
H26 H -0.00084 0.04258 0.09169 0.0
H27 H 0.96135 0.11234 0.07138 0.0
H28 H 0.03728 0.00905 0.07348 0.0
H29 H 0.96219 0.00235 0.05157 0.0
H30 H 0.08555 0.17557 0.08298 0.0
H31 H 0.95115 0.0401 0.10199 0.0
H32 H 0.91139 0.11069 0.08124 0.0
C33 C 0.30573 0.79607 0.3074 0.0
C34 C 0.33625 0.79211 0.30409 0.0
N35 N 0.3536 0.81562 0.30821 0.0
N36 N 0.30396 0.82174 0.31366 0.0
C37 C 0.33339 0.83335 0.31395 0.0
H38 H 0.28601 0.78123 0.30539 0.0
Co39 Co 0.26747 0.83631 0.31986 0.0
C40 C 0.28544 0.86436 0.34055 0.0
O41 O 0.2616 0.84942 0.34489 0.0
N42 N 0.22973 0.8518 0.32577 0.0
C43 C 0.19405 0.88598 0.33163 0.0
C44 C 0.22446 0.88225 0.32819 0.0
C45 C 0.20176 0.83778 0.3275 0.0
N46 N 0.17985 0.85792 0.33114 0.0
O47 O 0.26826 0.87069 0.31011 0.0
H48 H 0.2416 0.90078 0.32733 0.0
H49 H 0.19689 0.8135 0.32597 0.0
O50 O 0.29122 0.8611 0.33049 0.0
C51 C 0.24909 0.86917 0.30227 0.0
O52 O 0.2284 0.84634 0.30213 0.0
N53 N 0.26734 0.80037 0.32879 0.0
C54 C 0.26966 0.74304 0.33956 0.0
C55 C 0.2926 0.76589 0.34136 0.0
C56 C 0.29147 0.79402 0.33572 0.0
C57 C 0.24639 0.77728 0.3263 0.0
C58 C 0.24635 0.74881 0.33188 0.0
H59 H 0.31087 0.81003 0.33663 0.0
H60 H 0.23051 0.78032 0.3196 0.0
H61 H 0.33995 0.85416 0.31838 0.0
H62 H 0.3449 0.77359 0.29894 0.0
H63 H 0.18296 0.90779 0.33392 0.0
H64 H 0.31168 0.76183 0.34696 0.0
H65 H 0.22924 0.73099 0.32987 0.0
C66 C 0.54189 0.10779 0.56246 0.0
C67 C 0.54891 0.13847 0.56013 0.0
N68 N 0.52604 0.1567 0.56423 0.0
N69 N 0.51487 0.10672 0.56807 0.0
C70 C 0.50558 0.13682 0.56896 0.0
H71 H 0.55566 0.08748 0.56029 0.0
Co72 Co 0.49725 0.07007 0.57313 0.0
C73 C 0.46033 0.08649 0.59229 0.0
O74 O 0.47173 0.06129 0.59695 0.0
N75 N 0.47905 0.03224 0.57784 0.0
C76 C 0.44244 0.9962 0.58118 0.0
C77 C 0.4478 0.0266 0.57805 0.0
C78 C 0.49207 0.00463 0.58072 0.0
N79 N 0.4704 0.9825 0.58288 0.0
O80 O 0.46717 0.07186 0.56181 0.0
H81 H 0.42996 0.04353 0.57594 0.0
H82 H 0.51687 -3e-05 0.58078 0.0
O83 O 0.46877 0.09343 0.58268 0.0
C84 C 0.47606 0.05597 0.55372 0.0
O85 O 0.50256 0.04035 0.55443 0.0
N86 N 0.52924 0.06853 0.58362 0.0
C87 C 0.5839 0.07011 0.5961 0.0
C88 C 0.55967 0.09183 0.59777 0.0
C89 C 0.53296 0.09108 0.59132 0.0
C90 C 0.55332 0.04846 0.58146 0.0
C91 C 0.58046 0.04818 0.58779 0.0
H92 H 0.51642 0.11002 0.59213 0.0
H93 H 0.55211 0.03345 0.57447 0.0
H94 H 0.48461 0.14412 0.57316 0.0
H95 H 0.56915 0.14668 0.55568 0.0
H96 H 0.41979 0.98498 0.582 0.0
H97 H 0.56202 0.11058 0.60358 0.0
H98 H 0.59888 0.03159 0.58594 0.0
C99 C 0.22511 0.34722 0.81125 0.0
C100 C 0.19413 0.3539 0.8092 0.0
N101 N 0.1764 0.3313 0.81371 0.0
N102 N 0.22686 0.3207 0.8171 0.0
C103 C 0.19685 0.31137 0.81841 0.0
H104 H 0.24516 0.3608 0.80866 0.0
Co105 Co 0.26408 0.30324 0.8218 0.0
C106 C 0.24948 0.26732 0.84144 0.0
O107 O 0.27566 0.27795 0.84568 0.0
N108 N 0.30248 0.28524 0.8262 0.0
C109 C 0.33938 0.24946 0.82946 0.0
C110 C 0.30894 0.25423 0.82617 0.0
C111 C 0.32958 0.29872 0.82943 0.0
N112 N 0.35231 0.2776 0.83148 0.0
O113 O 0.26076 0.27251 0.81074 0.0
H114 H 0.29249 0.23612 0.82388 0.0
H115 H 0.33294 0.32351 0.83035 0.0
O116 O 0.24153 0.27587 0.83194 0.0
C117 C 0.27692 0.28149 0.8027 0.0
O118 O 0.29331 0.30744 0.80364 0.0
N119 N 0.26736 0.33604 0.83182 0.0
C120 C 0.27082 0.39176 0.84352 0.0
C121 C 0.24954 0.36811 0.84643 0.0
C122 C 0.24766 0.34075 0.84033 0.0
C123 C 0.28661 0.35963 0.82847 0.0
C124 C 0.28939 0.38731 0.83434 0.0
H125 H 0.22918 0.32438 0.84218 0.0
H126 H 0.29973 0.357 0.82107 0.0
H127 H 0.19005 0.29064 0.82283 0.0
H128 H 0.18538 0.37363 0.80462 0.0
H129 H 0.35122 0.22711 0.83007 0.0
H130 H 0.23333 0.37131 0.85305 0.0
H131 H 0.30558 0.40518 0.83162 0.0
C132 C 0.97598 0.11879 0.94414 0.0
C133 C 0.97372 0.14953 0.94732 0.0
N134 N 0.99726 0.16571 0.94266 0.0
N135 N 0.00067 0.11569 0.93747 0.0
C136 C 0.01332 0.14456 0.93675 0.0
H137 H 0.96063 0.09983 0.94651 0.0
Co138 Co 0.01304 0.07819 0.93159 0.0
C139 C 0.04407 0.09283 0.91098 0.0
O140 O 0.02843 0.06943 0.90667 0.0
N141 N 0.02592 0.03922 0.92604 0.0
C142 C 0.05696 -0.00015 0.92101 0.0
C143 C 0.05578 0.03112 0.92359 0.0
C144 C 0.0097 0.01217 0.9252 0.0
N145 N 0.0279 0.98803 0.9221 0.0
O146 O 0.04731 0.07723 0.94151 0.0
H147 H 0.0757 0.04678 0.92401 0.0
H148 H 0.98533 0.00949 0.92722 0.0
O149 O 0.03987 0.09968 0.92092 0.0
C150 C 0.04751 0.05616 0.94876 0.0
O151 O 0.02551 0.03459 0.94874 0.0
N152 N 0.9775 0.07979 0.92251 0.0
C153 C 0.92196 0.08189 0.9106 0.0
C154 C 0.94621 0.10336 0.90865 0.0
C155 C 0.97336 0.10248 0.91488 0.0
C156 C 0.95281 0.06113 0.9253 0.0
C157 C 0.92512 0.0611 0.91927 0.0
H158 H 0.99051 0.12074 0.91372 0.0
H159 H 0.95424 0.04673 0.93244 0.0
H160 H 0.0342 0.14985 0.93215 0.0
H161 H 0.95587 0.15923 0.95253 0.0
H162 H 0.07779 0.98654 0.91903 0.0
H163 H 0.94389 0.1214 0.90257 0.0
H164 H 0.90641 0.04512 0.92142 0.0
C165 C 0.23356 0.80427 0.19189 0.0
C166 C 0.20309 0.79941 0.19509 0.0
N167 N 0.18451 0.81988 0.18982 0.0
N168 N 0.23427 0.82757 0.1846 0.0
C169 C 0.20412 0.83677 0.18352 0.0
H170 H 0.25397 0.79141 0.19458 0.0
Co171 Co 0.27082 0.84105 0.17811 0.0
C172 C 0.25204 0.87409 0.15826 0.0
O173 O 0.27493 0.85961 0.1532 0.0
N174 N 0.30879 0.85493 0.17189 0.0
C175 C 0.34674 0.88701 0.16634 0.0
C176 C 0.31617 0.88513 0.16979 0.0
C177 C 0.33564 0.83911 0.1699 0.0
N178 N 0.35897 0.85796 0.16643 0.0
O179 O 0.27309 0.87421 0.18839 0.0
H180 H 0.30046 0.90474 0.17095 0.0
H181 H 0.33892 0.81461 0.17158 0.0
O182 O 0.24726 0.86859 0.16827 0.0
C183 C 0.29496 0.87342 0.19537 0.0
O184 O 0.31663 0.85164 0.19465 0.0
N185 N 0.26804 0.80643 0.16872 0.0
C186 C 0.26228 0.7504 0.15732 0.0
C187 C 0.24177 0.77538 0.15538 0.0
C188 C 0.24436 0.80272 0.1614 0.0
C189 C 0.28669 0.7815 0.17125 0.0
C190 C 0.28463 0.75338 0.16552 0.0
H191 H 0.22626 0.82012 0.16047 0.0
H192 H 0.30244 0.78297 0.17805 0.0
H193 H 0.19673 0.85556 0.17826 0.0
H194 H 0.19525 0.78165 0.2007 0.0
H195 H 0.35908 0.90823 0.16415 0.0
H196 H 0.22282 0.77324 0.14961 0.0
H197 H 0.29995 0.73406 0.16759 0.0
C198 C 0.54043 0.0404 0.44221 0.0
C199 C 0.54525 0.00959 0.44498 0.0
N200 N 0.52246 0.99224 0.44039 0.0
N201 N 0.51492 0.04236 0.43584 0.0
C202 C 0.50429 0.01272 0.43494 0.0
H203 H 0.55471 0.06017 0.44459 0.0
Co204 Co 0.50025 0.07922 0.42997 0.0
C205 C 0.46807 0.06237 0.40984 0.0
O206 O 0.4823 0.08633 0.40532 0.0
N207 N 0.48485 0.11729 0.42438 0.0
C208 C 0.45069 0.15325 0.4187 0.0
C209 C 0.45408 0.12339 0.42266 0.0
C210 C 0.49948 0.14435 0.4218 0.0
N211 N 0.47932 0.16629 0.41821 0.0
O212 O 0.46758 0.07965 0.44041 0.0
H213 H 0.43521 0.10701 0.42415 0.0
H214 H 0.5243 0.14844 0.42254 0.0
O215 O 0.47312 0.0562 0.4198 0.0
C216 C 0.47501 0.09677 0.44839 0.0
O217 O 0.50161 0.11232 0.44797 0.0
N218 N 0.53469 0.07856 0.42041 0.0
C219 C 0.59012 0.07646 0.40846 0.0
C220 C 0.56624 0.05445 0.40674 0.0
C221 C 0.5392 0.05531 0.41301 0.0
C222 C 0.55882 0.09833 0.42284 0.0
C223 C 0.58652 0.09822 0.4168 0.0
H224 H 0.52258 0.03643 0.41214 0.0
H225 H 0.55694 0.11374 0.42971 0.0
H226 H 0.48407 0.00613 0.43019 0.0
H227 H 0.56396 0.0007 0.45002 0.0
H228 H 0.42889 0.16476 0.41662 0.0
H229 H 0.56895 0.03586 0.40088 0.0
H230 H 0.60497 0.11474 0.41872 0.0
C231 C 0.30342 0.36987 0.68866 0.0
C232 C 0.3342 0.37255 0.69184 0.0
N233 N 0.34997 0.3472 0.6883 0.0
N234 N 0.29982 0.34306 0.6831 0.0
C235 C 0.32849 0.32964 0.68304 0.0
H236 H 0.28476 0.38636 0.6903 0.0
Co237 Co 0.26197 0.3293 0.6776 0.0
C238 C 0.27677 0.29397 0.65792 0.0
O239 O 0.25327 0.30849 0.65322 0.0
N240 N 0.22291 0.31487 0.67246 0.0
C241 C 0.18518 0.28141 0.66771 0.0
C242 C 0.21576 0.28425 0.67105 0.0
C243 C 0.19573 0.33001 0.67034 0.0
N244 N 0.17269 0.31026 0.66731 0.0
O245 O 0.26062 0.29781 0.68843 0.0
H246 H 0.23179 0.26505 0.67245 0.0
H247 H 0.19225 0.35486 0.67115 0.0
O248 O 0.28353 0.30023 0.66775 0.0
C249 C 0.2459 0.30736 0.6967 0.0
O250 O 0.23345 0.33553 0.69645 0.0
N251 N 0.26356 0.36244 0.66755 0.0
C252 C 0.26742 0.41612 0.65475 0.0
C253 C 0.28862 0.39135 0.65339 0.0
C254 C 0.28685 0.36518 0.66005 0.0
C255 C 0.24453 0.38742 0.66959 0.0
C256 C 0.24549 0.41423 0.66313 0.0
H257 H 0.30513 0.34781 0.6594 0.0
H258 H 0.22925 0.38706 0.67653 0.0
H259 H 0.33337 0.30716 0.6794 0.0
H260 H 0.34421 0.3919 0.6963 0.0
H261 H 0.17275 0.2598 0.66608 0.0
H262 H 0.30734 0.39269 0.64751 0.0
H263 H 0.22954 0.43338 0.66478 0.0
C264 C 0.72985 0.28981 0.69331 0.0
C265 C 0.70018 0.28445 0.69727 0.0
N266 N 0.68196 0.30889 0.69455 0.0
N267 N 0.73018 0.31691 0.68768 0.0
C268 C 0.70099 0.32864 0.68914 0.0
H269 H 0.7499 0.27515 0.69488 0.0
Co270 Co 0.76423 0.33716 0.68084 0.0
C271 C 0.71163 0.35313 0.66597 0.0
O272 O 0.70128 0.32413 0.66627 0.0
N273 N 0.79791 0.35747 0.67455 0.0
C274 C 0.82971 0.39128 0.66647 0.0
C275 C 0.79968 0.3864 0.67022 0.0
C276 C 0.82692 0.34541 0.67352 0.0
N277 N 0.84672 0.36546 0.66862 0.0
O278 O 0.76153 0.36889 0.69163 0.0
H279 H 0.78057 0.40302 0.66994 0.0
H280 H 0.83329 0.32222 0.67629 0.0
O281 O 0.73566 0.36109 0.67152 0.0
C282 C 0.78385 0.37174 0.69837 0.0
O283 O 0.80916 0.35451 0.69721 0.0
N284 N 0.7682 0.30506 0.67037 0.0
C285 C 0.7696 0.25588 0.65566 0.0
C286 C 0.76624 0.28686 0.65212 0.0
C287 C 0.76641 0.31119 0.65958 0.0
C288 C 0.77642 0.27577 0.67372 0.0
C289 C 0.77644 0.25057 0.66655 0.0
H290 H 0.76443 0.33493 0.65666 0.0
H291 H 0.78302 0.27176 0.68197 0.0
H292 H 0.6936 0.35128 0.6862 0.0
H293 H 0.69277 0.26433 0.70193 0.0
H294 H 0.83855 0.41241 0.66272 0.0
H295 H 0.76277 0.29219 0.64367 0.0
H296 H 0.78056 0.22714 0.66957 0.0
C297 C 0.80137 0.8584 0.19142 0.0
C298 C 0.83135 0.86402 0.19502 0.0
N299 N 0.84956 0.83985 0.19203 0.0
N300 N 0.80068 0.83131 0.18579 0.0
C301 C 0.83022 0.81995 0.18681 0.0
H302 H 0.78142 0.87291 0.19325 0.0
Co303 Co 0.76598 0.81085 0.1794 0.0
C304 C 0.81651 0.7976 0.16344 0.0
O305 O 0.82614 0.82683 0.16397 0.0
N306 N 0.73174 0.79033 0.17349 0.0
C307 C 0.69943 0.75604 0.16593 0.0
C308 C 0.72962 0.76106 0.1695 0.0
C309 C 0.70277 0.80251 0.17239 0.0
N310 N 0.68261 0.78227 0.16773 0.0
O311 O 0.77116 0.77817 0.1898 0.0
H312 H 0.7487 0.74439 0.16926 0.0
H313 H 0.69661 0.82573 0.17515 0.0
O314 O 0.79349 0.78853 0.16928 0.0
C315 C 0.74959 0.77434 0.19677 0.0
O316 O 0.72375 0.79096 0.196 0.0
N317 N 0.75936 0.84398 0.16949 0.0
C318 C 0.75045 0.89539 0.15599 0.0
C319 C 0.75656 0.86568 0.15168 0.0
C320 C 0.76016 0.84011 0.15857 0.0
C321 C 0.74909 0.87168 0.17365 0.0
C322 C 0.74544 0.898 0.1671 0.0
H323 H 0.76374 0.81726 0.15506 0.0
H324 H 0.74317 0.87336 0.18206 0.0
H325 H 0.83758 0.79751 0.18368 0.0
H326 H 0.83899 0.88408 0.19965 0.0
H327 H 0.69069 0.73482 0.16223 0.0
H328 H 0.75958 0.86234 0.1431 0.0
H329 H 0.7389 0.92018 0.17069 0.0
C330 C 0.79224 0.30098 0.81068 0.0
C331 C 0.82292 0.29475 0.80799 0.0
N332 N 0.84147 0.31484 0.81343 0.0
N333 N 0.79152 0.32468 0.81782 0.0
C334 C 0.82181 0.33283 0.81928 0.0
H335 H 0.7717 0.28882 0.80772 0.0
Co336 Co 0.75522 0.33989 0.82399 0.0
C337 C 0.77347 0.37028 0.84434 0.0
O338 O 0.74891 0.35719 0.8489 0.0
N339 N 0.71768 0.3558 0.82994 0.0
C340 C 0.68138 0.39002 0.83533 0.0
C341 C 0.71123 0.38659 0.8313 0.0
C342 C 0.69118 0.34113 0.83315 0.0
N343 N 0.66899 0.36129 0.83655 0.0
O344 O 0.75609 0.37374 0.81399 0.0
H345 H 0.72723 0.40547 0.8294 0.0
H346 H 0.68723 0.3163 0.83266 0.0
O347 O 0.77931 0.365 0.83439 0.0
C348 C 0.73641 0.37193 0.80631 0.0
O349 O 0.7154 0.34939 0.8065 0.0
N350 N 0.75487 0.30443 0.83302 0.0
C351 C 0.75667 0.24649 0.8433 0.0
C352 C 0.77882 0.26959 0.84575 0.0
C353 C 0.77789 0.29821 0.84039 0.0
C354 C 0.73471 0.28121 0.82998 0.0
C355 C 0.73439 0.25236 0.8353 0.0
H356 H 0.79675 0.31452 0.84181 0.0
H357 H 0.71923 0.28484 0.8232 0.0
H358 H 0.82945 0.35103 0.82474 0.0
H359 H 0.83093 0.27693 0.80244 0.0
H360 H 0.66965 0.41186 0.83716 0.0
H361 H 0.79718 0.26525 0.85161 0.0
H362 H 0.71784 0.23442 0.83289 0.0
C363 C 0.73629 0.85594 0.3067 0.0
C364 C 0.70645 0.86119 0.30284 0.0
N365 N 0.68725 0.83906 0.30693 0.0
N366 N 0.73581 0.83076 0.31323 0.0
C367 C 0.70584 0.82063 0.31305 0.0
H368 H 0.75679 0.87024 0.30522 0.0
Co369 Co 0.76942 0.8163 0.32127 0.0
C370 C 0.73857 0.79339 0.34112 0.0
O371 O 0.75754 0.81075 0.34695 0.0
N372 N 0.8043 0.80091 0.32899 0.0
C373 C 0.83713 0.77101 0.33849 0.0
C374 C 0.80662 0.77487 0.33517 0.0
C375 C 0.83422 0.81098 0.32808 0.0
N376 N 0.85441 0.79383 0.33399 0.0
O377 O 0.77195 0.78102 0.31195 0.0
H378 H 0.78782 0.75861 0.3368 0.0
H379 H 0.84149 0.82969 0.32281 0.0
O380 O 0.74097 0.79295 0.33085 0.0
C381 C 0.79233 0.78298 0.3045 0.0
O382 O 0.81164 0.80697 0.30449 0.0
N383 N 0.76666 0.85315 0.32992 0.0
C384 C 0.76119 0.9098 0.34104 0.0
C385 C 0.73532 0.88989 0.3399 0.0
C386 C 0.73839 0.86205 0.33418 0.0
C387 C 0.79139 0.87347 0.33034 0.0
C388 C 0.78949 0.90146 0.33613 0.0
H389 H 0.71775 0.8477 0.33314 0.0
H390 H 0.81232 0.86909 0.3258 0.0
H391 H 0.69765 0.80055 0.31754 0.0
H392 H 0.69927 0.88069 0.29785 0.0
H393 H 0.84614 0.75215 0.34343 0.0
H394 H 0.71283 0.89573 0.34343 0.0
H395 H 0.80961 0.91695 0.33645 0.0
C396 C 0.49959 0.54004 0.55574 0.0
C397 C 0.49387 0.50912 0.55331 0.0
N398 N 0.51452 0.49128 0.55881 0.0
N399 N 0.52362 0.54166 0.56275 0.0
C400 C 0.53246 0.5117 0.56438 0.0
H401 H 0.48661 0.56008 0.55281 0.0
Co402 Co 0.53843 0.57813 0.56891 0.0
C403 C 0.56598 0.56028 0.58967 0.0
O404 O 0.55159 0.58459 0.59389 0.0
N405 N 0.55416 0.61569 0.57492 0.0
C406 C 0.58866 0.65119 0.58073 0.0
C407 C 0.58492 0.62124 0.57688 0.0
C408 C 0.53987 0.64289 0.57753 0.0
N409 N 0.56019 0.66462 0.58118 0.0
O410 O 0.57293 0.57709 0.55909 0.0
H411 H 0.60357 0.60455 0.57551 0.0
H412 H 0.51532 0.64764 0.5764 0.0
O413 O 0.56287 0.55438 0.57962 0.0
C414 C 0.57343 0.59824 0.55186 0.0
O415 O 0.55269 0.62097 0.55227 0.0
N416 N 0.50227 0.57858 0.57771 0.0
C417 C 0.44404 0.57687 0.5879 0.0
C418 C 0.46665 0.55401 0.59008 0.0
C419 C 0.49536 0.55489 0.58474 0.0
C420 C 0.47941 0.5994 0.57487 0.0
C421 C 0.45047 0.59977 0.58017 0.0
H422 H 0.51128 0.53558 0.58595 0.0
H423 H 0.48322 0.61515 0.56818 0.0
H424 H 0.55157 0.50497 0.56962 0.0
H425 H 0.47528 0.5005 0.54817 0.0
H426 H 0.61058 0.66225 0.58296 0.0
H427 H 0.46188 0.53517 0.59569 0.0
H428 H 0.43283 0.61683 0.57792 0.0
C429 C 0.03961 0.61259 0.05709 0.0
C430 C 0.04818 0.64215 0.05375 0.0
N431 N 0.02431 0.66186 0.05592 0.0
N432 N 0.01063 0.61381 0.0614 0.0
C433 C 0.00178 0.64401 0.06045 0.0
H434 H 0.05406 0.59178 0.05684 0.0
Co435 Co 0.99087 0.58107 0.06848 0.0
C436 C 0.93278 0.61187 0.07588 0.0
O437 O 0.91542 0.59134 0.07073 0.0
N438 N 0.97168 0.54796 0.0756 0.0
C439 C 0.95193 0.51729 0.08834 0.0
C440 C 0.95862 0.54765 0.0855 0.0
C441 C 0.97297 0.51764 0.07264 0.0
N442 N 0.96121 0.49839 0.08026 0.0
O443 O 0.9629 0.57661 0.05657 0.0
H444 H 0.95588 0.56791 0.09063 0.0
H445 H 0.98462 0.50971 0.06541 0.0
O446 O 0.96259 0.61003 0.07545 0.0
C447 C 0.97453 0.56105 0.0488 0.0
O448 O 0.00259 0.54879 0.05003 0.0
N449 N 0.01974 0.5847 0.0797 0.0
C450 C 0.06946 0.58939 0.09413 0.0
C451 C 0.04801 0.61407 0.09294 0.0
C452 C 0.02334 0.61134 0.08564 0.0
C453 C 0.04001 0.56024 0.08087 0.0
C454 C 0.06492 0.56195 0.08815 0.0
H455 H 0.00807 0.63119 0.08446 0.0
H456 H 0.03742 0.53969 0.07587 0.0
H457 H 0.98001 0.65322 0.0636 0.0
H458 H 0.07055 0.64876 0.0503 0.0
H459 H 0.94226 0.50969 0.09596 0.0
H460 H 0.05069 0.63563 0.09745 0.0
H461 H 0.08124 0.54258 0.08874 0.0
C462 C 0.47928 0.60972 0.44069 0.0
C463 C 0.47426 0.64021 0.44384 0.0
N464 N 0.49666 0.65834 0.43935 0.0
N465 N 0.50459 0.6087 0.43422 0.0
C466 C 0.51488 0.63851 0.43364 0.0
H467 H 0.46507 0.58963 0.44278 0.0
Co468 Co 0.51968 0.57313 0.42757 0.0
C469 C 0.54805 0.59497 0.40724 0.0
O470 O 0.53336 0.57236 0.40212 0.0
N471 N 0.53559 0.5365 0.42114 0.0
C472 C 0.56949 0.50217 0.41422 0.0
C473 C 0.56575 0.53212 0.41807 0.0
C474 C 0.52191 0.50837 0.41951 0.0
N475 N 0.54183 0.48736 0.41519 0.0
O476 O 0.55403 0.57301 0.43736 0.0
H477 H 0.58411 0.54951 0.41875 0.0
H478 H 0.4981 0.50273 0.42163 0.0
O479 O 0.5445 0.5984 0.41741 0.0
C480 C 0.55252 0.55314 0.44498 0.0
O481 O 0.52944 0.53271 0.44497 0.0
N482 N 0.48382 0.5736 0.41858 0.0
C483 C 0.42815 0.57378 0.40677 0.0
C484 C 0.4504 0.59759 0.40541 0.0
C485 C 0.47749 0.59769 0.41166 0.0
C486 C 0.46089 0.55225 0.42083 0.0
C487 C 0.43306 0.55145 0.41485 0.0
H488 H 0.49291 0.61765 0.41106 0.0
H489 H 0.46373 0.53631 0.42751 0.0
H490 H 0.53536 0.64553 0.4291 0.0
H491 H 0.45506 0.64839 0.44879 0.0
H492 H 0.59105 0.49172 0.41134 0.0
H493 H 0.44645 0.61655 0.39976 0.0
H494 H 0.41562 0.53366 0.41655 0.0
C495 C 0.05872 0.54371 0.94029 0.0
C496 C 0.06137 0.51399 0.94449 0.0
N497 N 0.03768 0.49644 0.94057 0.0
N498 N 0.03359 0.54476 0.93372 0.0
C499 C 0.02098 0.51584 0.93418 0.0
H500 H 0.07456 0.5631 0.94167 0.0
Co501 Co 0.02093 0.57893 0.92559 0.0
C502 C -0.00123 0.54406 0.90578 0.0
O503 O 0.02153 0.55512 0.89979 0.0
N504 N 0.00767 0.61425 0.91754 0.0
C505 C 0.00206 0.65118 0.90501 0.0
C506 C 0.01359 0.62191 0.90717 0.0
C507 C 0.99252 0.63963 0.92146 0.0
N508 N 0.98891 0.66247 0.91404 0.0
O509 O 0.98484 0.58218 0.9347 0.0
H510 H 0.02818 0.60894 0.90171 0.0
H511 H 0.98548 0.64207 0.92975 0.0
O512 O 0.99692 0.55149 0.91575 0.0
C513 C 0.99233 0.5959 0.94344 0.0
O514 O 0.02066 0.60793 0.9442 0.0
N515 N 0.05846 0.57607 0.91762 0.0
C516 C 0.11777 0.57313 0.90824 0.0
C517 C 0.09931 0.54613 0.90927 0.0
C518 C 0.06996 0.548 0.91412 0.0
C519 C 0.07688 0.60224 0.91723 0.0
C520 C 0.10634 0.60149 0.9123 0.0
H521 H 0.05634 0.52681 0.91503 0.0
H522 H 0.06874 0.62386 0.9208 0.0
H523 H 0.00012 0.50905 0.92981 0.0
H524 H 0.07999 0.5057 0.94969 0.0
H525 H 0.00577 0.66418 0.89764 0.0
H526 H 0.10735 0.52372 0.90625 0.0
H527 H 0.12027 0.62267 0.91186 0.0
H528 H 0.96236 0.45945 0.06307 0.0
H529 H 0.97146 0.40288 0.06334 0.0
H530 H 0.9741 0.40445 0.09803 0.0
H531 H 0.96549 0.46088 0.09786 0.0
H532 H 0.02514 0.37445 0.07268 0.0
H533 H 0.91439 0.33095 0.09095 0.0
H534 H 0.91783 0.36941 0.08498 0.0
H535 H 0.9332 0.36213 0.09822 0.0
C536 C 0.96471 0.44774 0.07075 0.0
C537 C 0.96327 0.46474 0.08043 0.0
C538 C 0.96976 0.41544 0.07089 0.0
C539 C 0.97316 0.39957 0.0807 0.0
C540 C 0.97093 0.41624 0.09038 0.0
H541 H 0.06367 0.2203 0.09193 0.0
H542 H 0.04866 0.27569 0.09205 0.0
C543 C 0.96594 0.44853 0.09026 0.0
C544 C 0.98132 0.36599 0.08081 0.0
H545 H 0.9561 0.29428 0.0893 0.0
C546 C 0.01002 0.35686 0.07627 0.0
C547 C 0.96142 0.34325 0.08547 0.0
C548 C 0.92985 0.35178 0.09011 0.0
C549 C 0.01958 0.32547 0.07637 0.0
C550 C 4e-05 0.30283 0.08126 0.0
C551 C 0.97113 0.31187 0.08567 0.0
C552 C 0.00873 0.26941 0.08151 0.0
C553 C 0.05027 0.31668 0.07112 0.0
C554 C 0.99087 0.24767 0.07571 0.0
C555 C -0.00058 0.21617 0.0756 0.0
C556 C 0.02589 0.20577 0.08136 0.0
C557 C 0.04345 0.22763 0.08731 0.0
C558 C 0.03489 0.25921 0.0874 0.0
H559 H 0.05924 0.33561 0.06581 0.0
H560 H 0.06808 0.31219 0.07745 0.0
H561 H 0.04763 0.29495 0.06629 0.0
H562 H 0.97065 0.25521 0.0711 0.0
H563 H 0.98565 0.20018 0.07077 0.0
H564 H 0.14255 0.88608 0.34587 0.0
H565 H 0.08714 0.87449 0.34945 0.0
H566 H 0.08866 0.80318 0.32486 0.0
H567 H 0.14373 0.81449 0.32132 0.0
H568 H 0.03813 0.87949 0.33583 0.0
H569 H 0.04808 0.7568 0.34958 0.0
H570 H 0.0816 0.78254 0.34863 0.0
H571 H 0.06723 0.76242 0.33687 0.0
C572 C 0.13101 0.86789 0.34127 0.0
C573 C 0.1475 0.85101 0.33338 0.0
C574 C 0.0995 0.86117 0.34336 0.0
C575 C 0.08406 0.83748 0.3376 0.0
C576 C 0.10042 0.82083 0.32966 0.0
H577 H 0.89397 0.81715 0.319 0.0
H578 H 0.94966 0.8287 0.3213 0.0
C579 C 0.13188 0.82738 0.32761 0.0
C580 C 0.05025 0.83151 0.33925 0.0
H581 H 0.99718 0.77264 0.34293 0.0
C582 C 0.02916 0.85624 0.33756 0.0
C583 C 0.03861 0.80131 0.34172 0.0
C584 C 0.06012 0.77435 0.34442 0.0
C585 C 0.99669 0.85118 0.33764 0.0
C586 C 0.98516 0.82044 0.33919 0.0
C587 C 0.00615 0.79608 0.34154 0.0
C588 C 0.95157 0.81285 0.33784 0.0
C589 C 0.97509 0.87873 0.33592 0.0
C590 C 0.93457 0.79888 0.34624 0.0
C591 C 0.90275 0.792 0.3449 0.0
C592 C 0.88754 0.79899 0.33515 0.0
C593 C 0.9049 0.81218 0.32667 0.0
C594 C 0.93667 0.81886 0.32799 0.0
H595 H 0.98647 0.90105 0.33836 0.0
H596 H 0.9692 0.88053 0.32724 0.0
H597 H 0.95294 0.87599 0.34053 0.0
H598 H 0.94578 0.7938 0.35387 0.0
H599 H 0.88985 0.78199 0.35157 0.0
H600 H 0.43462 0.93246 0.57754 0.0
H601 H 0.4481 0.87727 0.58006 0.0
H602 H 0.53384 0.90409 0.59604 0.0
H603 H 0.52014 0.95932 0.59379 0.0
H604 H 0.5033 0.8522 0.57104 0.0
H605 H 0.49861 0.83319 0.61527 0.0
H606 H 0.47901 0.86552 0.6087 0.0
H607 H 0.52057 0.86701 0.61106 0.0
C608 C 0.45591 0.92662 0.58184 0.0
C609 C 0.47645 0.95019 0.5854 0.0
C610 C 0.46364 0.89512 0.58323 0.0
C611 C 0.49182 0.88672 0.5883 0.0
C612 C 0.51176 0.91014 0.59225 0.0
H613 H 0.59678 0.71581 0.57838 0.0
H614 H 0.5813 0.77044 0.58124 0.0
C615 C 0.5041 0.94164 0.59084 0.0
C616 C 0.50201 0.85371 0.58837 0.0
H617 H 0.52242 0.79291 0.60479 0.0
C618 C 0.50734 0.83917 0.57842 0.0
C619 C 0.50718 0.83692 0.59801 0.0
C620 C 0.50082 0.85129 0.60888 0.0
C621 C 0.51811 0.80827 0.57784 0.0
C622 C 0.524 0.7917 0.58747 0.0
C623 C 0.51823 0.80599 0.59744 0.0
C624 C 0.53502 0.75902 0.58722 0.0
C625 C 0.52281 0.79341 0.56693 0.0
C626 C 0.51443 0.73477 0.59 0.0
C627 C 0.5232 0.70366 0.58839 0.0
C628 C 0.55273 0.69638 0.58401 0.0
C629 C 0.57395 0.72074 0.58179 0.0
C630 C 0.5651 0.75188 0.58337 0.0
H631 H 0.51181 0.80735 0.56039 0.0
H632 H 0.54832 0.79159 0.56524 0.0
H633 H 0.51283 0.76939 0.56679 0.0
H634 H 0.49115 0.73996 0.59302 0.0
H635 H 0.50663 0.6853 0.59035 0.0
H636 H 0.39213 0.2392 0.84235 0.0
H637 H 0.44658 0.25057 0.84741 0.0
H638 H 0.43871 0.34225 0.8331 0.0
H639 H 0.38501 0.33101 0.82782 0.0
H640 H 0.49479 0.26666 0.83268 0.0
H641 H 0.47727 0.36029 0.8629 0.0
H642 H 0.44649 0.3334 0.85905 0.0
H643 H 0.45548 0.36671 0.85072 0.0
C644 C 0.40201 0.26176 0.84029 0.0
C645 C 0.38407 0.28424 0.83474 0.0
C646 C 0.43297 0.2683 0.84327 0.0
C647 C 0.4463 0.2975 0.84084 0.0
C648 C 0.42849 0.31993 0.83533 0.0
H649 H 0.61614 0.3946 0.83286 0.0
H650 H 0.56225 0.37715 0.83608 0.0
C651 C 0.39772 0.31341 0.83231 0.0
C652 C 0.47967 0.30391 0.84311 0.0
H653 H 0.52819 0.35811 0.85451 0.0
C654 C 0.50227 0.28619 0.83764 0.0
C655 C 0.48912 0.32947 0.84957 0.0
C656 C 0.46582 0.34839 0.85598 0.0
C657 C 0.53403 0.29463 0.83787 0.0
C658 C 0.54334 0.32111 0.84395 0.0
C659 C 0.52091 0.33789 0.84985 0.0
C660 C 0.57576 0.33322 0.84346 0.0
C661 C 0.55701 0.27631 0.8311 0.0
C662 C 0.60105 0.3148 0.84691 0.0
C663 C 0.63177 0.32465 0.84502 0.0
C664 C 0.63764 0.35322 0.83975 0.0
C665 C 0.61227 0.37256 0.83695 0.0
C666 C 0.58154 0.36258 0.83877 0.0
H667 H 0.54498 0.26065 0.82527 0.0
H668 H 0.5727 0.29235 0.82656 0.0
H669 H 0.5718 0.26156 0.83642 0.0
H670 H 0.59702 0.29239 0.85076 0.0
H671 H 0.65097 0.30964 0.84745 0.0
H672 H 0.96857 0.70435 0.89922 0.0
H673 H 0.96659 0.76113 0.90149 0.0
H674 H 0.98601 0.75047 0.93536 0.0
H675 H 0.98952 0.69399 0.93311 0.0
H676 H 0.93546 0.80564 0.91486 0.0
H677 H 0.06342 0.79634 0.92317 0.0
H678 H 0.04069 0.76398 0.91804 0.0
H679 H 0.03874 0.77414 0.93207 0.0
C680 C 0.97211 0.71404 0.90717 0.0
C681 C 0.9802 0.69461 0.91589 0.0
C682 C 0.97064 0.74645 0.90847 0.0
C683 C 0.97696 0.75984 0.91853 0.0
C684 C 0.98167 0.74044 0.92749 0.0
H685 H 0.98292 0.95831 0.93362 0.0
H686 H 0.96814 0.90322 0.93238 0.0
C687 C 0.98344 0.70805 0.92618 0.0
C688 C 0.98281 0.79379 0.91931 0.0
H689 H 0.04123 0.84672 0.92386 0.0
C690 C 0.95849 0.81474 0.91688 0.0
C691 C 0.01313 0.80536 0.92172 0.0
C692 C 0.04061 0.78385 0.92381 0.0
C693 C 0.9637 0.8472 0.91685 0.0
C694 C 0.99388 0.85872 0.91947 0.0
C695 C 0.01812 0.83772 0.92189 0.0
C696 C 0.00117 0.89248 0.91969 0.0
C697 C 0.93715 0.86881 0.91379 0.0
C698 C 0.02504 0.90449 0.91309 0.0
C699 C 0.0337 0.93593 0.91383 0.0
C700 C 0.01858 0.95582 0.92117 0.0
C701 C 0.99454 0.94372 0.92772 0.0
C702 C 0.986 0.91227 0.92702 0.0
H703 H 0.91831 0.85622 0.90937 0.0
H704 H 0.92674 0.8789 0.9212 0.0
H705 H 0.94572 0.88843 0.9087 0.0
H706 H 0.03714 0.88944 0.90743 0.0
H707 H 0.05211 0.94472 0.90864 0.0
H708 H 0.3801 0.80077 0.16027 0.0
H709 H 0.43481 0.78451 0.15828 0.0
H710 H 0.46535 0.87838 0.16555 0.0
H711 H 0.41085 0.89477 0.16782 0.0
H712 H 0.49609 0.8451 0.14681 0.0
H713 H 0.49468 0.77894 0.18551 0.0
H714 H 0.46347 0.77144 0.17609 0.0
H715 H 0.46623 0.80902 0.18246 0.0
C716 C 0.39841 0.81796 0.16149 0.0
C717 C 0.39102 0.84901 0.16434 0.0
C718 C 0.42962 0.80865 0.16029 0.0
C719 C 0.45395 0.83022 0.16187 0.0
C720 C 0.44676 0.86145 0.1643 0.0
H721 H 0.65407 0.83831 0.1646 0.0
H722 H 0.59824 0.84774 0.16207 0.0
C723 C 0.41557 0.87078 0.16555 0.0
C724 C 0.48701 0.82 0.16152 0.0
H725 H 0.54197 0.77958 0.17583 0.0
C726 C 0.50618 0.83061 0.1531 0.0
C727 C 0.49984 0.80096 0.16971 0.0
C728 C 0.48017 0.78947 0.17901 0.0
C729 C 0.53816 0.82284 0.15272 0.0
C730 C 0.55129 0.8047 0.16113 0.0
C731 C 0.53184 0.79346 0.16939 0.0
C732 C 0.58543 0.79867 0.16193 0.0
C733 C 0.55747 0.83404 0.14329 0.0
C734 C 0.59678 0.76795 0.16292 0.0
C735 C 0.62874 0.76247 0.16462 0.0
C736 C 0.64991 0.78766 0.16541 0.0
C737 C 0.63845 0.81836 0.1642 0.0
C738 C 0.60653 0.82381 0.16257 0.0
H739 H 0.5426 0.83804 0.13607 0.0
H740 H 0.56874 0.85665 0.1454 0.0
H741 H 0.57615 0.81697 0.14121 0.0
H742 H 0.58082 0.74823 0.16256 0.0
H743 H 0.63665 0.73858 0.16562 0.0
H744 H 0.45329 0.19909 0.40193 0.0
H745 H 0.46563 0.25316 0.39671 0.0
H746 H 0.53344 0.25841 0.42248 0.0
H747 H 0.522 0.20427 0.42737 0.0
H748 H 0.45718 0.30403 0.40728 0.0
H749 H 0.58376 0.2965 0.39908 0.0
H750 H 0.55966 0.26198 0.40052 0.0
H751 H 0.57626 0.28086 0.41221 0.0
C752 C 0.47104 0.21185 0.40637 0.0
C753 C 0.48687 0.19765 0.415 0.0
C754 C 0.47818 0.24258 0.40337 0.0
C755 C 0.50104 0.25962 0.40903 0.0
C756 C 0.51665 0.24541 0.41771 0.0
H757 H 0.50526 0.44843 0.42671 0.0
H758 H 0.49428 0.3935 0.42291 0.0
C759 C 0.50992 0.21457 0.42057 0.0
C760 C 0.50658 0.29315 0.40663 0.0
H761 H 0.56488 0.34766 0.40517 0.0
C762 C 0.48072 0.31349 0.40657 0.0
C763 C 0.53715 0.30558 0.40536 0.0
C764 C 0.56568 0.28495 0.40416 0.0
C765 C 0.48479 0.34602 0.40616 0.0
C766 C 0.51555 0.35848 0.40624 0.0
C767 C 0.54129 0.33814 0.40539 0.0
C768 C 0.52158 0.39213 0.4082 0.0
C769 C 0.45602 0.36661 0.40585 0.0
C770 C 0.54168 0.4093 0.40146 0.0
C771 C 0.54853 0.4406 0.40378 0.0
C772 C 0.53519 0.45516 0.41282 0.0
C773 C 0.51526 0.4379 0.41957 0.0
C774 C 0.50882 0.40659 0.41735 0.0
H775 H 0.43639 0.35472 0.40162 0.0
H776 H 0.44816 0.3714 0.41421 0.0
H777 H 0.46081 0.38926 0.40177 0.0
H778 H 0.55207 0.39848 0.39442 0.0
H779 H 0.56391 0.45356 0.39846 0.0
H780 H 0.8799 0.38613 0.65147 0.0
H781 H 0.93569 0.37652 0.64782 0.0
H782 H 0.94316 0.32511 0.67763 0.0
H783 H 0.88753 0.33393 0.68112 0.0
H784 H 0.98676 0.39325 0.65841 0.0
H785 H 0.98243 0.26422 0.65728 0.0
H786 H 0.94739 0.28792 0.65704 0.0
H787 H 0.96605 0.27826 0.66965 0.0
C788 C 0.89355 0.37272 0.6572 0.0
C789 C 0.87945 0.36044 0.66651 0.0
C790 C 0.9253 0.36715 0.6551 0.0
C791 C 0.94338 0.3494 0.66232 0.0
C792 C 0.92942 0.33788 0.67175 0.0
H793 H 0.13733 0.35401 0.67715 0.0
H794 H 0.08187 0.3649 0.67395 0.0
C795 C 0.89769 0.34304 0.67377 0.0
C796 C 0.9772 0.34398 0.66033 0.0
H797 H 0.03314 0.28703 0.66123 0.0
C798 C 0.99689 0.36997 0.65883 0.0
C799 C 0.99036 0.31357 0.66057 0.0
C800 C 0.97035 0.28443 0.66109 0.0
C801 C 0.02957 0.36652 0.65827 0.0
C802 C 0.04288 0.33639 0.6596 0.0
C803 C 0.02304 0.31023 0.66041 0.0
C804 C 0.0771 0.33152 0.66091 0.0
C805 C 0.0494 0.39524 0.6563 0.0
C806 C 0.09273 0.30851 0.65487 0.0
C807 C 0.12425 0.30175 0.6569 0.0
C808 C 0.14071 0.3181 0.66491 0.0
C809 C 0.12526 0.3415 0.6708 0.0
C810 C 0.09364 0.34787 0.66891 0.0
H811 H 0.03638 0.41289 0.65147 0.0
H812 H 0.05535 0.40622 0.66413 0.0
H813 H 0.07151 0.38937 0.65203 0.0
H814 H 0.08041 0.29544 0.6487 0.0
H815 H 0.1358 0.28372 0.65222 0.0
H816 H 0.05343 0.14078 0.0374 0.0
H817 H 0.07499 0.1291 0.01966 0.0
H818 H 0.11167 0.04163 0.03159 0.0
H819 H 0.08996 0.05305 0.04944 0.0
H820 H 0.13654 0.10743 0.01023 0.0
H821 H 0.03891 0.02025 0.00986 0.0
H822 H 0.04092 0.05091 0.01981 0.0
H823 H 0.06715 0.01812 0.0206 0.0
C824 C 0.0668 0.11943 0.03634 0.0
C825 C 0.06947 0.09754 0.04474 0.0
C826 C 0.07931 0.11291 0.02622 0.0
C827 C 0.09456 0.08437 0.02432 0.0
C828 C 0.09983 0.06373 0.03293 0.0
H829 H 0.07263 0.00837 0.96028 0.0
H830 H 0.09652 0.01191 0.97814 0.0
C831 C 0.08741 0.0703 0.0431 0.0
C832 C 0.0994 0.07425 0.01307 0.0
H833 H 0.06336 0.0312 0.99361 0.0
C834 C 0.12109 0.09025 0.00659 0.0
C835 C 0.07923 0.05179 0.00838 0.0
C836 C 0.05508 0.03429 0.01495 0.0
C837 C 0.12228 0.0852 0.99541 0.0
C838 C 0.10053 0.06436 0.99061 0.0
C839 C 0.08014 0.04712 0.99723 0.0
C840 C 0.09533 0.0626 0.97879 0.0
C841 C 0.14647 0.10262 0.98888 0.0
C842 C 0.08825 0.08992 0.97293 0.0
C843 C 0.07537 0.08789 0.9626 0.0
C844 C 0.06853 0.05852 0.95812 0.0
C845 C 0.0776 0.03128 0.96362 0.0
C846 C 0.09125 0.03332 0.97382 0.0
H847 H 0.16824 0.10631 0.99364 0.0
H848 H 0.15254 0.08993 0.98136 0.0
H849 H 0.13714 0.12607 0.98673 0.0
H850 H 0.09025 0.11277 0.97664 0.0
H851 H 0.06822 0.10922 0.95856 0.0
H852 H 0.20886 0.87601 0.28543 0.0
H853 H 0.22132 0.89685 0.26764 0.0
H854 H 0.31218 0.92628 0.27906 0.0
H855 H 0.3 0.90527 0.29695 0.0
H856 H 0.247 0.95671 0.25828 0.0
H857 H 0.32686 0.85326 0.25686 0.0
H858 H 0.29691 0.85714 0.26702 0.0
H859 H 0.33179 0.88059 0.26774 0.0
C860 C 0.23119 0.88766 0.28425 0.0
C861 C 0.25368 0.88848 0.29253 0.0
C862 C 0.23818 0.89974 0.27409 0.0
C863 C 0.26778 0.91271 0.27203 0.0
C864 C 0.28925 0.91618 0.28052 0.0
H865 H 0.34351 0.89386 0.20766 0.0
H866 H 0.34036 0.91455 0.22598 0.0
C867 C 0.28223 0.90419 0.29072 0.0
C868 C 0.27764 0.91727 0.26073 0.0
H869 H 0.31813 0.88009 0.24087 0.0
C870 C 0.26304 0.94043 0.25447 0.0
C871 C 0.29857 0.89596 0.25581 0.0
C872 C 0.3144 0.87018 0.26214 0.0
C873 C 0.26813 0.9422 0.24329 0.0
C874 C 0.28758 0.91964 0.23827 0.0
C875 C 0.30331 0.89751 0.24468 0.0
C876 C 0.28957 0.91583 0.22639 0.0
C877 C 0.25233 0.96798 0.23701 0.0
C878 C 0.26214 0.9111 0.22031 0.0
C879 C 0.26397 0.89997 0.20974 0.0
C880 C 0.29322 0.89258 0.20521 0.0
C881 C 0.32067 0.89927 0.21101 0.0
C882 C 0.31887 0.91109 0.22147 0.0
H883 H 0.24954 0.98933 0.24203 0.0
H884 H 0.26574 0.97419 0.22965 0.0
H885 H 0.2285 0.96016 0.23461 0.0
H886 H 0.23923 0.91367 0.22396 0.0
H887 H 0.24243 0.89466 0.20548 0.0
H888 H 0.41962 0.08448 0.5491 0.0
H889 H 0.39451 0.08902 0.53136 0.0
H890 H 0.47003 0.03549 0.51733 0.0
H891 H 0.49416 0.02986 0.53484 0.0
H892 H 0.41432 0.11795 0.51465 0.0
H893 H 0.39987 0.99661 0.50166 0.0
H894 H 0.40743 0.00625 0.51557 0.0
H895 H 0.43946 0.0 0.50628 0.0
C896 C 0.43038 0.07312 0.54224 0.0
C897 C 0.45886 0.05679 0.54338 0.0
C898 C 0.41601 0.07568 0.53212 0.0
C899 C 0.42989 0.06193 0.523 0.0
C900 C 0.45804 0.04525 0.52424 0.0
H901 H 0.48853 0.12804 0.46679 0.0
H902 H 0.46436 0.12191 0.48426 0.0
C903 C 0.47214 0.04241 0.5343 0.0
C904 C 0.41798 0.06814 0.51196 0.0
H905 H 0.41783 0.03364 0.48724 0.0
C906 C 0.414 0.09938 0.5087 0.0
C907 C 0.41597 0.0441 0.50414 0.0
C908 C 0.41552 0.00988 0.50717 0.0
C909 C 0.41255 0.10734 0.49775 0.0
C910 C 0.41653 0.0836 0.48991 0.0
C911 C 0.41593 0.05213 0.49319 0.0
C912 C 0.42738 0.09084 0.4788 0.0
C913 C 0.40838 0.14131 0.49474 0.0
C914 C 0.41518 0.07502 0.46979 0.0
C915 C 0.42969 0.07788 0.4597 0.0
C916 C 0.45663 0.0966 0.45849 0.0
C917 C 0.46779 0.11348 0.4674 0.0
C918 C 0.4536 0.11035 0.47743 0.0
H919 H 0.39147 0.15278 0.50028 0.0
H920 H 0.43112 0.15373 0.49561 0.0
H921 H 0.39983 0.14409 0.48634 0.0
H922 H 0.39516 0.05957 0.47064 0.0
H923 H 0.42054 0.06458 0.45297 0.0
H924 H 0.2264 0.32731 0.71627 0.0
H925 H 0.22855 0.29957 0.73327 0.0
H926 H 0.26368 0.21725 0.71711 0.0
H927 H 0.26289 0.24575 0.69991 0.0
H928 H 0.20149 0.24808 0.74106 0.0
H929 H 0.33101 0.23021 0.73917 0.0
H930 H 0.31089 0.25444 0.72951 0.0
H931 H 0.30743 0.21254 0.72884 0.0
C932 C 0.23447 0.30325 0.71626 0.0
C933 C 0.24484 0.28885 0.70675 0.0
C934 C 0.23553 0.2873 0.72602 0.0
C935 C 0.24665 0.2564 0.72653 0.0
C936 C 0.25568 0.2413 0.71697 0.0
H937 H 0.24288 0.22901 0.79695 0.0
H938 H 0.23586 0.20817 0.77864 0.0
C939 C 0.25507 0.25754 0.70714 0.0
C940 C 0.25034 0.24176 0.73731 0.0
H941 H 0.30701 0.22558 0.75589 0.0
C942 C 0.22443 0.24238 0.7443 0.0
C943 C 0.28023 0.23378 0.74146 0.0
C944 C 0.30908 0.23277 0.73441 0.0
C945 C 0.22821 0.23957 0.75548 0.0
C946 C 0.25866 0.23468 0.75973 0.0
C947 C 0.28378 0.22968 0.75261 0.0
C948 C 0.26625 0.24243 0.77109 0.0
C949 C 0.20014 0.24523 0.76264 0.0
C950 C 0.28702 0.2673 0.77302 0.0
C951 C 0.2915 0.27871 0.78338 0.0
C952 C 0.27507 0.26578 0.79212 0.0
C953 C 0.25558 0.23967 0.79034 0.0
C954 C 0.2514 0.22789 0.77989 0.0
H955 H 0.17901 0.2523 0.758 0.0
H956 H 0.19442 0.22344 0.76709 0.0
H957 H 0.20537 0.26386 0.76861 0.0
H958 H 0.29879 0.27899 0.76641 0.0
H959 H 0.30694 0.29863 0.78444 0.0
H960 H 0.78836 0.40463 0.79982 0.0
H961 H 0.79879 0.42423 0.78164 0.0
H962 H 0.70457 0.39984 0.77213 0.0
H963 H 0.69397 0.38036 0.79022 0.0
H964 H 0.79472 0.38011 0.76521 0.0
H965 H 0.7194 0.48195 0.75566 0.0
H966 H 0.72902 0.47073 0.76931 0.0
H967 H 0.6985 0.45058 0.76209 0.0
C968 C 0.76952 0.40451 0.79397 0.0
C969 C 0.74045 0.39063 0.7964 0.0
C970 C 0.77552 0.41573 0.78358 0.0
C971 C 0.75239 0.4137 0.77555 0.0
C972 C 0.72256 0.40221 0.77824 0.0
H973 H 0.72913 0.38307 0.70906 0.0
H974 H 0.72406 0.40079 0.72772 0.0
C975 C 0.71664 0.39079 0.78857 0.0
C976 C 0.76091 0.41736 0.76407 0.0
H977 H 0.73766 0.45151 0.74052 0.0
C978 C 0.78285 0.39625 0.75983 0.0
C979 C 0.74499 0.4381 0.75708 0.0
C980 C 0.72185 0.46183 0.76128 0.0
C981 C 0.78794 0.3939 0.74872 0.0
C982 C 0.7714 0.41408 0.74165 0.0
C983 C 0.75041 0.43618 0.74593 0.0
C984 C 0.77361 0.4103 0.72981 0.0
C985 C 0.80938 0.36829 0.74467 0.0
C986 C 0.80282 0.41147 0.7246 0.0
C987 C 0.80586 0.40069 0.71404 0.0
C988 C 0.77955 0.38955 0.70842 0.0
C989 C 0.74979 0.39156 0.71322 0.0
C990 C 0.74688 0.40169 0.72388 0.0
H991 H 0.81414 0.35035 0.75094 0.0
H992 H 0.79908 0.35634 0.73756 0.0
H993 H 0.83219 0.37867 0.74226 0.0
H994 H 0.8236 0.4189 0.72893 0.0
H995 H 0.829 0.39973 0.71045 0.0
H996 H 0.7068 0.74248 0.20868 0.0
H997 H 0.71334 0.7242 0.22722 0.0
H998 H 0.81115 0.7501 0.22618 0.0
H999 H 0.80504 0.76695 0.20744 0.0
H1000 H 0.80087 0.69897 0.23943 0.0
H1001 H 0.71701 0.79516 0.2486 0.0
H1002 H 0.70138 0.7651 0.24007 0.0
H1003 H 0.73309 0.78935 0.23535 0.0
C1004 C 0.7299 0.74332 0.21231 0.0
C1005 C 0.75533 0.75644 0.20671 0.0
C1006 C 0.73357 0.73305 0.22291 0.0
C1007 C 0.76247 0.73676 0.22819 0.0
C1008 C 0.78857 0.74723 0.22229 0.0
H1009 H 0.83661 0.77547 0.28896 0.0
H1010 H 0.82863 0.75401 0.27099 0.0
C1011 C 0.78508 0.75683 0.21158 0.0
C1012 C 0.76452 0.73398 0.24007 0.0
H1013 H 0.73763 0.76765 0.26321 0.0
C1014 C 0.7868 0.7137 0.24465 0.0
C1015 C 0.74627 0.7534 0.24689 0.0
C1016 C 0.7233 0.77719 0.24251 0.0
C1017 C 0.7917 0.71279 0.25585 0.0
C1018 C 0.77397 0.73276 0.26258 0.0
C1019 C 0.7509 0.75206 0.25804 0.0
C1020 C 0.78145 0.73758 0.27411 0.0
C1021 C 0.81616 0.69094 0.26036 0.0
C1022 C 0.75788 0.73475 0.28196 0.0
C1023 C 0.76236 0.74713 0.29227 0.0
C1024 C 0.79033 0.76296 0.29482 0.0
C1025 C 0.81475 0.76354 0.28722 0.0
C1026 C 0.81034 0.75099 0.27695 0.0
H1027 H 0.82018 0.67065 0.25494 0.0
H1028 H 0.83869 0.70375 0.26119 0.0
H1029 H 0.80925 0.68213 0.26844 0.0
H1030 H 0.73531 0.72474 0.27989 0.0
H1031 H 0.74308 0.74639 0.29795 0.0
H1032 H 0.55775 0.51216 0.46169 0.0
H1033 H 0.58117 0.52234 0.47927 0.0
H1034 H 0.61577 0.61128 0.46789 0.0
H1035 H 0.59214 0.60143 0.45022 0.0
H1036 H 0.64356 0.54238 0.48784 0.0
H1037 H 0.54766 0.63067 0.49133 0.0
H1038 H 0.54778 0.60123 0.48092 0.0
H1039 H 0.57387 0.63413 0.48005 0.0
C1040 C 0.57097 0.53358 0.46282 0.0
C1041 C 0.57258 0.55627 0.45463 0.0
C1042 C 0.58452 0.53925 0.47287 0.0
C1043 C 0.59982 0.5677 0.4749 0.0
C1044 C 0.60385 0.58925 0.46647 0.0
H1045 H 0.59818 0.64411 0.53936 0.0
H1046 H 0.61618 0.63867 0.52078 0.0
C1047 C 0.59034 0.58357 0.45639 0.0
C1048 C 0.60672 0.57652 0.48616 0.0
H1049 H 0.57659 0.61974 0.50673 0.0
C1050 C 0.62939 0.5597 0.49197 0.0
C1051 C 0.58813 0.59909 0.4915 0.0
C1052 C 0.56283 0.61728 0.4857 0.0
C1053 C 0.63341 0.56435 0.5031 0.0
C1054 C 0.61362 0.58575 0.50855 0.0
C1055 C 0.59193 0.60347 0.50259 0.0
C1056 C 0.61214 0.58811 0.52048 0.0
C1057 C 0.65855 0.54607 0.50889 0.0
C1058 C 0.60554 0.56141 0.52672 0.0
C1059 C 0.596 0.56448 0.53744 0.0
C1060 C 0.5921 0.59433 0.54198 0.0
C1061 C 0.60096 0.62083 0.53602 0.0
C1062 C 0.6112 0.61773 0.5254 0.0
H1063 H 0.67864 0.54109 0.50345 0.0
H1064 H 0.66735 0.55881 0.51607 0.0
H1065 H 0.64876 0.52323 0.51152 0.0
H1066 H 0.60524 0.53837 0.52309 0.0
H1067 H 0.5889 0.5437 0.54183 0.0
H1068 H 0.93734 0.56319 0.9468 0.0
H1069 H 0.90899 0.55789 0.96395 0.0
H1070 H 0.9741 0.62219 0.97879 0.0
H1071 H 0.00122 0.62848 0.96185 0.0
H1072 H 0.93025 0.53279 0.98116 0.0
H1073 H 0.89746 0.65134 0.99316 0.0
H1074 H 0.90835 0.64247 0.97945 0.0
H1075 H 0.93777 0.65338 0.98925 0.0
C1076 C 0.94485 0.57693 0.95366 0.0
C1077 C 0.9716 0.59614 0.95299 0.0
C1078 C 0.9287 0.57385 0.96346 0.0
C1079 C 0.93896 0.59007 0.97267 0.0
C1080 C 0.96485 0.61023 0.97179 0.0
H1081 H 0.99696 0.53359 0.03069 0.0
H1082 H 0.97627 0.53716 0.0126 0.0
C1083 C 0.98074 0.61346 0.96207 0.0
C1084 C 0.92652 0.58271 0.98358 0.0
H1085 H 0.91854 0.61763 0.00809 0.0
C1086 C 0.92658 0.55133 0.98698 0.0
C1087 C 0.92033 0.6065 0.99123 0.0
C1088 C 0.9156 0.64023 0.988 0.0
C1089 C 0.92494 0.54361 0.99795 0.0
C1090 C 0.9245 0.56791 0.00571 0.0
C1091 C 0.92003 0.5989 0.00222 0.0
C1092 C 0.93415 0.56246 0.01707 0.0
C1093 C 0.92526 0.50949 0.0011 0.0
C1094 C 0.91787 0.5761 0.02573 0.0
C1095 C 0.93021 0.57472 0.03619 0.0
C1096 C 0.95906 0.55973 0.03814 0.0
C1097 C 0.97462 0.5452 0.02952 0.0
C1098 C 0.96252 0.54685 0.01912 0.0
H1099 H 0.91131 0.49543 0.99529 0.0
H1100 H 0.94971 0.50057 0.00081 0.0
H1101 H 0.91565 0.50574 0.00931 0.0
H1102 H 0.89612 0.58858 0.02435 0.0
H1103 H 0.91769 0.58619 0.04267 0.0
H1104 H 0.25139 0.88312 0.13656 0.0
H1105 H 0.21587 0.91598 0.12609 0.0
H1106 H 0.16836 0.94391 0.15517 0.0
H1107 H 0.20382 0.91072 0.16582 0.0
H1108 H 0.14312 0.91265 0.12726 0.0
H1109 H 0.19887 0.02674 0.13777 0.0
H1110 H 0.22029 0.99026 0.13833 0.0
H1111 H 0.19137 -0.00112 0.14837 0.0
C1112 C 0.23346 0.89624 0.14078 0.0
C1113 C 0.2305 0.89439 0.15205 0.0
C1114 C 0.21314 0.91492 0.13476 0.0
C1115 C 0.18969 0.93235 0.13988 0.0
C1116 C 0.18651 0.93065 0.15111 0.0
H1117 H 0.06179 0.07164 0.11463 0.0
H1118 H 0.09374 0.0376 0.12594 0.0
C1119 C 0.20674 0.91171 0.15716 0.0
C1120 C 0.16869 0.95229 0.13337 0.0
H1121 H 0.15579 0.0281 0.12595 0.0
C1122 C 0.1457 0.93791 0.12698 0.0
C1123 C 0.17229 0.98513 0.13307 0.0
C1124 C 0.19708 0.00139 0.1397 0.0
C1125 C 0.12591 0.95567 0.12031 0.0
C1126 C 0.12992 0.98857 0.11982 0.0
C1127 C 0.15283 0.00289 0.1263 0.0
C1128 C 0.11027 0.00873 0.11281 0.0
C1129 C 0.10053 0.93908 0.11405 0.0
C1130 C 0.10917 0.00405 0.10161 0.0
C1131 C 0.09063 0.02338 0.0951 0.0
C1132 C 0.07328 0.04802 0.09966 0.0
C1133 C 0.07488 0.05291 0.11084 0.0
C1134 C 0.09314 0.03346 0.11734 0.0
H1135 H 0.09483 0.91591 0.11763 0.0
H1136 H 0.07875 0.95331 0.1137 0.0
H1137 H 0.10877 0.93505 0.10569 0.0
H1138 H 0.12283 0.9856 0.0979 0.0
H1139 H 0.09005 0.01914 0.0865 0.0
H1140 H 0.33199 0.90528 0.33451 0.0
H1141 H 0.36451 0.93788 0.34641 0.0
H1142 H 0.31782 0.89896 0.37414 0.0
H1143 H 0.28525 0.86665 0.36243 0.0
H1144 H 0.33691 0.98206 0.3633 0.0
H1145 H 0.41598 0.88977 0.37961 0.0
H1146 H 0.39616 0.88586 0.36681 0.0
H1147 H 0.37471 0.88087 0.37912 0.0
C1148 C 0.32881 0.90357 0.34315 0.0
C1149 C 0.30601 0.88346 0.34753 0.0
C1150 C 0.34736 0.92216 0.34991 0.0
C1151 C 0.34366 0.9205 0.36113 0.0
C1152 C 0.32121 0.90025 0.36551 0.0
H1153 H 0.43233 0.01185 0.41609 0.0
H1154 H 0.40092 0.97752 0.40444 0.0
C1155 C 0.30252 0.88194 0.35878 0.0
C1156 C 0.36213 0.94094 0.36832 0.0
H1157 H 0.41919 0.93993 0.3876 0.0
C1158 C 0.35506 0.97298 0.36857 0.0
C1159 C 0.38531 0.92876 0.37529 0.0
C1160 C 0.39377 0.89446 0.37521 0.0
C1161 C 0.37044 0.99325 0.37572 0.0
C1162 C 0.39412 0.98123 0.38257 0.0
C1163 C 0.40104 0.94908 0.38235 0.0
C1164 C 0.41282 0.00188 0.3897 0.0
C1165 C 0.36064 0.02722 0.37602 0.0
C1166 C 0.43022 0.02654 0.38526 0.0
C1167 C 0.44781 0.04622 0.39186 0.0
C1168 C 0.44882 0.04139 0.40305 0.0
C1169 C 0.43187 0.01628 0.4075 0.0
C1170 C 0.41399 0.99665 0.40086 0.0
H1171 H 0.33634 0.03039 0.37296 0.0
H1172 H 0.36197 0.03681 0.38431 0.0
H1173 H 0.37654 0.04108 0.37079 0.0
H1174 H 0.43039 0.03048 0.37664 0.0
H1175 H 0.46089 0.06508 0.38812 0.0
H1176 H 0.43852 0.1449 0.58667 0.0
H1177 H 0.40771 0.18081 0.59789 0.0
H1178 H 0.40717 0.11273 0.62355 0.0
H1179 H 0.43746 0.07676 0.61245 0.0
H1180 H 0.34846 0.13891 0.61939 0.0
H1181 H 0.44051 0.23012 0.62422 0.0
H1182 H 0.43152 0.21958 0.61056 0.0
H1183 H 0.44906 0.19119 0.61937 0.0
C1184 C 0.43176 0.13758 0.59469 0.0
C1185 C 0.44057 0.10803 0.59868 0.0
C1186 C 0.41438 0.15819 0.60111 0.0
C1187 C 0.40562 0.14956 0.6116 0.0
C1188 C 0.41387 0.11989 0.6155 0.0
H1189 H 0.33191 0.26509 0.66373 0.0
H1190 H 0.36368 0.22939 0.65271 0.0
C1191 C 0.43121 0.09937 0.60912 0.0
C1192 C 0.38736 0.17101 0.61854 0.0
H1193 H 0.39037 0.24143 0.63153 0.0
C1194 C 0.3576 0.16132 0.62205 0.0
C1195 C 0.39962 0.19998 0.62212 0.0
C1196 C 0.43204 0.21084 0.61897 0.0
C1197 C 0.33952 0.18007 0.62892 0.0
C1198 C 0.35141 0.20941 0.63226 0.0
C1199 C 0.38136 0.21893 0.62891 0.0
C1200 C 0.33253 0.23094 0.63896 0.0
C1201 C 0.30797 0.16822 0.63264 0.0
C1202 C 0.30479 0.24374 0.63481 0.0
C1203 C 0.28671 0.264 0.64104 0.0
C1204 C 0.29606 0.27198 0.65155 0.0
C1205 C 0.32401 0.25925 0.65569 0.0
C1206 C 0.3422 0.23898 0.6494 0.0
H1207 H 0.30577 0.14246 0.6316 0.0
H1208 H 0.30394 0.17405 0.64124 0.0
H1209 H 0.28925 0.17958 0.62781 0.0
H1210 H 0.2972 0.23817 0.62671 0.0
H1211 H 0.26539 0.27344 0.63758 0.0
H1212 H 0.07492 0.14762 0.91594 0.0
H1213 H 0.10939 0.17826 0.90409 0.0
H1214 H 0.09509 0.11117 0.87862 0.0
H1215 H 0.06103 0.08048 0.89032 0.0
H1216 H 0.1586 0.12709 0.88232 0.0
H1217 H 0.08232 0.23192 0.87766 0.0
H1218 H 0.09016 0.21979 0.89127 0.0
H1219 H 0.06769 0.19484 0.88255 0.0
C1220 C 0.07913 0.13944 0.90781 0.0
C1221 C 0.06517 0.11165 0.90407 0.0
C1222 C 0.09864 0.15706 0.90104 0.0
C1223 C 0.10445 0.14711 0.89045 0.0
C1224 C 0.09077 0.1193 0.88675 0.0
H1225 H 0.18989 0.2468 0.83665 0.0
H1226 H 0.15441 0.21708 0.8484 0.0
C1227 C 0.07127 0.10181 0.89346 0.0
C1228 C 0.12543 0.16502 0.88321 0.0
H1229 H 0.13262 0.23418 0.8696 0.0
C1230 C 0.15297 0.15052 0.87954 0.0
C1231 C 0.11771 0.19537 0.87949 0.0
C1232 C 0.08776 0.21143 0.88285 0.0
C1233 C 0.17324 0.16571 0.87234 0.0
C1234 C 0.16592 0.19634 0.86881 0.0
C1235 C 0.13818 0.21072 0.87236 0.0
C1236 C 0.18726 0.21407 0.86164 0.0
C1237 C 0.20213 0.1487 0.86845 0.0
C1238 C 0.2173 0.22231 0.86524 0.0
C1239 C 0.23754 0.23918 0.85859 0.0
C1240 C 0.22809 0.24832 0.84819 0.0
C1241 C 0.19792 0.24004 0.84459 0.0
C1242 C 0.1776 0.22316 0.8513 0.0
H1243 H 0.20022 0.123 0.8697 0.0
H1244 H 0.20635 0.1533 0.85977 0.0
H1245 H 0.22285 0.15716 0.87302 0.0
H1246 H 0.22501 0.21592 0.87326 0.0
H1247 H 0.26054 0.24524 0.86165 0.0
H1248 H 0.9181 0.08976 0.88891 0.0
H1249 H 0.87134 0.10061 0.87832 0.0
H1250 H 0.81338 0.0852 0.9063 0.0
H1251 H 0.8605 0.07598 0.91716 0.0
H1252 H 0.81591 0.07142 0.87312 0.0
H1253 H 0.79452 0.1756 0.89929 0.0
H1254 H 0.83007 0.153 0.90036 0.0
H1255 H 0.7938 0.13764 0.90551 0.0
C1256 C 0.89542 0.08858 0.89283 0.0
C1257 C 0.89308 0.08286 0.90394 0.0
C1258 C 0.86865 0.09439 0.88673 0.0
C1259 C 0.83891 0.09435 0.89157 0.0
C1260 C 0.83617 0.086 0.90246 0.0
H1261 H 0.7132 0.21937 0.85643 0.0
H1262 H 0.72125 0.17317 0.86799 0.0
C1263 C 0.86311 0.08047 0.90863 0.0
C1264 C 0.81206 0.10698 0.88536 0.0
H1265 H 0.77072 0.17485 0.88251 0.0
C1266 C 0.80524 0.0936 0.8753 0.0
C1267 C 0.79782 0.13575 0.88826 0.0
C1268 C 0.8044 0.15155 0.8989 0.0
C1269 C 0.78728 0.1098 0.86765 0.0
C1270 C 0.77602 0.14002 0.87015 0.0
C1271 C 0.77958 0.15167 0.88062 0.0
C1272 C 0.76736 0.16266 0.86164 0.0
C1273 C 0.78236 0.0954 0.8567 0.0
C1274 C 0.7904 0.17167 0.85418 0.0
C1275 C 0.78607 0.1981 0.84778 0.0
C1276 C 0.75853 0.21582 0.84867 0.0
C1277 C 0.73453 0.20578 0.85561 0.0
C1278 C 0.73907 0.17947 0.86215 0.0
H1279 H 0.78143 0.06944 0.85725 0.0
H1280 H 0.7604 0.10402 0.8529 0.0
H1281 H 0.80239 0.10167 0.85141 0.0
H1282 H 0.81273 0.15958 0.85385 0.0
H1283 H 0.80484 0.20557 0.84248 0.0
H1284 H 0.591 0.08551 0.61732 0.0
H1285 H 0.63884 0.10282 0.62615 0.0
H1286 H 0.69278 0.07621 0.59823 0.0
H1287 H 0.64452 0.06135 0.58894 0.0
H1288 H 0.69468 0.08214 0.63212 0.0
H1289 H 0.70979 0.16781 0.59859 0.0
H1290 H 0.67552 0.14338 0.59959 0.0
H1291 H 0.71218 0.12715 0.59507 0.0
C1292 C 0.61301 0.08328 0.61303 0.0
C1293 C 0.61368 0.07308 0.60228 0.0
C1294 C 0.64048 0.0928 0.61816 0.0
C1295 C 0.66933 0.0918 0.61272 0.0
C1296 C 0.67064 0.0782 0.60245 0.0
H1297 H 0.80185 0.20019 0.65347 0.0
H1298 H 0.7873 0.15542 0.64205 0.0
C1299 C 0.64299 0.06928 0.5972 0.0
C1300 C 0.6965 0.10876 0.61741 0.0
H1301 H 0.73831 0.17631 0.61419 0.0
C1302 C 0.70483 0.10237 0.62814 0.0
C1303 C 0.70985 0.13507 0.61216 0.0
C1304 C 0.70134 0.144 0.60075 0.0
C1305 C 0.72344 0.12328 0.63409 0.0
C1306 C 0.73479 0.15074 0.62904 0.0
C1307 C 0.72937 0.15527 0.61801 0.0
C1308 C 0.74617 0.1779 0.63535 0.0
C1309 C 0.72837 0.11725 0.64594 0.0
C1310 C 0.72851 0.20561 0.63509 0.0
C1311 C 0.7369 0.23108 0.64144 0.0
C1312 C 0.76314 0.22946 0.64825 0.0
C1313 C 0.78135 0.20196 0.64836 0.0
C1314 C 0.77304 0.17639 0.64188 0.0
H1315 H 0.71478 0.09672 0.64886 0.0
H1316 H 0.7536 0.11272 0.64748 0.0
H1317 H 0.72138 0.13808 0.65073 0.0
H1318 H 0.70755 0.20725 0.63018 0.0
H1319 H 0.72204 0.25166 0.64131 0.0
H1320 H 0.71512 0.9535 0.33932 0.0
H1321 H 0.70509 -0.00263 0.35137 0.0
H1322 H 0.79005 0.97651 0.36886 0.0
H1323 H 0.80003 0.93205 0.3568 0.0
H1324 H 0.73793 0.97668 0.3815 0.0
H1325 H 0.73846 0.08465 0.35727 0.0
H1326 H 0.71654 0.05465 0.35054 0.0
H1327 H 0.75791 0.0492 0.35292 0.0
C1328 C 0.73199 0.95866 0.3456 0.0
C1329 C 0.75814 0.93925 0.34722 0.0
C1330 C 0.7265 0.98402 0.35239 0.0
C1331 C 0.74709 0.99054 0.36092 0.0
C1332 C 0.77412 0.97213 0.36224 0.0
H1333 H 0.65115 0.08056 0.41545 0.0
H1334 H 0.69855 0.06878 0.405 0.0
C1335 C 0.77976 0.94678 0.35536 0.0
C1336 C 0.73698 0.01272 0.36939 0.0
H1337 H 0.7004 0.08323 0.37219 0.0
C1338 C 0.73071 0.00044 0.37964 0.0
C1339 C 0.72784 0.04373 0.36695 0.0
C1340 C 0.73588 0.05889 0.35634 0.0
C1341 C 0.71218 0.01689 0.38705 0.0
C1342 C 0.70024 0.04668 0.38416 0.0
C1343 C 0.70938 0.0603 0.37436 0.0
C1344 C 0.67359 0.06067 0.39008 0.0
C1345 C 0.70298 0.0009 0.39743 0.0
C1346 C 0.64424 0.06185 0.385 0.0
C1347 C 0.61734 0.06887 0.39088 0.0
C1348 C 0.61925 0.07478 0.40198 0.0
C1349 C 0.64896 0.07603 0.40691 0.0
C1350 C 0.67601 0.06909 0.40098 0.0
H1351 H 0.71147 0.97633 0.39784 0.0
H1352 H 0.71313 0.01388 0.40433 0.0
H1353 H 0.67706 0.00081 0.39836 0.0
H1354 H 0.64185 0.05555 0.37659 0.0
H1355 H 0.59483 0.06836 0.38683 0.0
H1356 H 0.78014 0.95019 0.16033 0.0
H1357 H 0.79182 0.99238 0.14781 0.0
H1358 H 0.7362 0.94678 0.12337 0.0
H1359 H 0.72496 0.90386 0.1359 0.0
H1360 H 0.79264 0.95649 0.11647 0.0
H1361 H 0.75341 0.06754 0.13432 0.0
H1362 H 0.77546 0.04615 0.14414 0.0
H1363 H 0.73915 0.03014 0.13906 0.0
C1364 C 0.76946 0.94966 0.15242 0.0
C1365 C 0.75183 0.92363 0.14907 0.0
C1366 C 0.77597 0.97399 0.14527 0.0
C1367 C 0.76454 0.97308 0.13467 0.0
C1368 C 0.74514 0.94808 0.13153 0.0
H1369 H 0.86998 0.06925 0.08348 0.0
H1370 H 0.82193 0.05076 0.09229 0.0
C1371 C 0.73888 0.92351 0.13866 0.0
C1372 C 0.77774 0.99482 0.12652 0.0
H1373 H 0.8014 0.07064 0.1232 0.0
C1374 C 0.79363 0.9816 0.11773 0.0
C1375 C 0.77904 0.02762 0.12813 0.0
C1376 C 0.76051 0.04363 0.13687 0.0
C1377 C 0.81313 -0.00025 0.11113 0.0
C1378 C 0.81655 0.03207 0.11333 0.0
C1379 C 0.79883 0.0458 0.12159 0.0
C1380 C 0.84207 0.05032 0.10828 0.0
C1381 C 0.83193 0.98372 0.10242 0.0
C1382 C 0.8686 0.05771 0.11445 0.0
C1383 C 0.89593 0.0683 0.10947 0.0
C1384 C 0.89713 0.07176 0.09823 0.0
C1385 C 0.86969 0.06688 0.09216 0.0
C1386 C 0.8423 0.0562 0.09716 0.0
H1387 H 0.82905 0.95786 0.10256 0.0
H1388 H 0.82419 0.99237 0.09443 0.0
H1389 H 0.85726 0.98928 0.10331 0.0
H1390 H 0.86884 0.05332 0.12304 0.0
H1391 H 0.91663 0.07228 0.11434 0.0
H1392 H 0.74004 0.40208 0.65581 0.0
H1393 H 0.71738 0.43676 0.64224 0.0
H1394 H 0.62833 0.38947 0.64544 0.0
H1395 H 0.65139 0.35381 0.6587 0.0
H1396 H 0.64143 0.39842 0.625 0.0
H1397 H 0.66129 0.51007 0.64664 0.0
H1398 H 0.69701 0.48887 0.64446 0.0
H1399 H 0.66698 0.47251 0.65297 0.0
C1400 C 0.71553 0.3994 0.65373 0.0
C1401 C 0.69735 0.37553 0.65839 0.0
C1402 C 0.70256 0.41927 0.64598 0.0
C1403 C 0.67096 0.41618 0.64296 0.0
C1404 C 0.65275 0.39238 0.64766 0.0
H1405 H 0.55984 0.55586 0.61134 0.0
H1406 H 0.58592 0.51967 0.62351 0.0
C1407 C 0.66588 0.37211 0.65525 0.0
C1408 C 0.65701 0.43719 0.63472 0.0
H1409 H 0.64499 0.51404 0.62842 0.0
C1410 C 0.64208 0.42372 0.62576 0.0
C1411 C 0.65764 0.47019 0.63577 0.0
C1412 C 0.6713 0.48626 0.64553 0.0
C1413 C 0.62754 0.44229 0.61787 0.0
C1414 C 0.62894 0.4753 0.61877 0.0
C1415 C 0.64418 0.48874 0.62767 0.0
C1416 C 0.61285 0.4965 0.61107 0.0
C1417 C 0.60991 0.42628 0.60888 0.0
C1418 C 0.61923 0.49559 0.59996 0.0
C1419 C 0.60381 0.51606 0.5929 0.0
C1420 C 0.58239 0.53822 0.59689 0.0
C1421 C 0.57639 0.53924 0.60801 0.0
C1422 C 0.59131 0.51853 0.615 0.0
H1423 H 0.6039 0.40169 0.61097 0.0
H1424 H 0.5879 0.43898 0.60692 0.0
H1425 H 0.62484 0.4258 0.60156 0.0
H1426 H 0.63633 0.47933 0.59677 0.0
H1427 H 0.60898 0.51489 0.58437 0.0
H1428 H 0.94525 0.51873 0.91472 0.0
H1429 H 0.90578 0.48614 0.90559 0.0
H1430 H 0.95966 0.49065 0.87626 0.0
H1431 H -0.00106 0.52258 0.8852 0.0
H1432 H 0.8707 0.50269 0.88697 0.0
H1433 H 0.94269 0.39687 0.87958 0.0
H1434 H 0.95356 0.42638 0.8893 0.0
H1435 H 0.96147 0.4323 0.87522 0.0
C1436 C 0.94878 0.51248 0.90636 0.0
C1437 C 0.97527 0.52324 0.9007 0.0
C1438 C 0.92624 0.49392 0.90116 0.0
C1439 C 0.9301 0.48561 0.8903 0.0
C1440 C 0.95656 0.49621 0.8847 0.0
H1441 H 0.82963 0.39675 0.83841 0.0
H1442 H 0.86661 0.42507 0.84998 0.0
C1443 C 0.97893 0.51469 0.88984 0.0
C1444 C 0.90592 0.4673 0.8845 0.0
H1445 H 0.896 0.40204 0.869 0.0
C1446 C 0.87601 0.48046 0.88316 0.0
C1447 C 0.91306 0.4384 0.8795 0.0
C1448 C 0.94435 0.42249 0.88105 0.0
C1449 C 0.8534 0.46605 0.8766 0.0
C1450 C 0.86084 0.43756 0.87138 0.0
C1451 C 0.8905 0.42405 0.87293 0.0
C1452 C 0.83809 0.42123 0.86434 0.0
C1453 C 0.82213 0.48198 0.875 0.0
C1454 C 0.80999 0.40959 0.8686 0.0
C1455 C 0.78888 0.39348 0.86204 0.0
C1456 C 0.79555 0.38849 0.85108 0.0
C1457 C 0.82375 0.40024 0.8468 0.0
C1458 C 0.84491 0.41637 0.8534 0.0
H1459 H 0.82292 0.50704 0.87739 0.0
H1460 H 0.81451 0.48044 0.86647 0.0
H1461 H 0.8042 0.47013 0.88004 0.0
H1462 H 0.80456 0.41258 0.87706 0.0
H1463 H 0.76746 0.38465 0.86561 0.0
H1464 H 0.95904 0.66415 0.08469 0.0
H1465 H 0.93837 0.69596 0.09941 0.0
H1466 H 0.85404 0.64009 0.09983 0.0
H1467 H 0.87432 0.60848 0.08493 0.0
H1468 H 0.84194 0.70273 0.10246 0.0
H1469 H 0.93655 0.66509 0.13027 0.0
H1470 H 0.95102 0.68286 0.11816 0.0
H1471 H 0.92986 0.64644 0.11744 0.0
C1472 C 0.93599 0.65876 0.08786 0.0
C1473 C 0.91846 0.63356 0.08374 0.0
C1474 C 0.9243 0.67684 0.09632 0.0
C1475 C 0.89508 0.6698 0.10092 0.0
C1476 C 0.87681 0.6457 0.09647 0.0
H1477 H 0.79347 0.74106 0.15664 0.0
H1478 H 0.81236 0.70922 0.1416 0.0
C1479 C 0.88838 0.62773 0.08793 0.0
C1480 C 0.88389 0.68718 0.11051 0.0
H1481 H 0.90338 0.70623 0.13639 0.0
C1482 C 0.85526 0.70334 0.10989 0.0
C1483 C 0.90124 0.68777 0.12024 0.0
C1484 C 0.93121 0.66937 0.12164 0.0
C1485 C 0.84391 0.7207 0.11866 0.0
C1486 C 0.86156 0.72171 0.12829 0.0
C1487 C 0.89003 0.70542 0.12896 0.0
C1488 C 0.85102 0.74004 0.13771 0.0
C1489 C 0.81345 0.7384 0.11754 0.0
C1490 C 0.86706 0.76739 0.14065 0.0
C1491 C 0.85632 0.78566 0.14922 0.0
C1492 C 0.82951 0.7767 0.15506 0.0
C1493 C 0.81417 0.74863 0.15232 0.0
C1494 C 0.8248 0.7305 0.14369 0.0
H1495 H 0.80527 0.73937 0.10905 0.0
H1496 H 0.79509 0.72667 0.12242 0.0
H1497 H 0.81609 0.76269 0.1206 0.0
H1498 H 0.88747 0.77497 0.13615 0.0
H1499 H 0.86875 0.80707 0.15115 0.0
H1500 H 0.73058 0.73042 0.33982 0.0
H1501 H 0.69579 0.69813 0.35093 0.0
H1502 H 0.65783 0.78174 0.36555 0.0
H1503 H 0.69455 0.81363 0.35507 0.0
H1504 H 0.66795 0.74354 0.3803 0.0
H1505 H 0.60702 0.67622 0.34869 0.0
H1506 H 0.64847 0.67011 0.34773 0.0
H1507 H 0.63238 0.70869 0.34551 0.0
C1508 C 0.71441 0.74174 0.34531 0.0
C1509 C 0.71488 0.77432 0.34661 0.0
C1510 C 0.69435 0.72335 0.3516 0.0
C1511 C 0.67358 0.73742 0.35896 0.0
C1512 C 0.67355 0.77023 0.35996 0.0
H1513 H 0.52798 0.62529 0.38948 0.0
H1514 H 0.55727 0.66248 0.37838 0.0
C1515 C 0.69434 0.78846 0.35395 0.0
C1516 C 0.65346 0.71804 0.36616 0.0
H1517 H 0.60394 0.65528 0.36659 0.0
C1518 C 0.6536 0.72452 0.37726 0.0
C1519 C 0.63426 0.69347 0.36225 0.0
C1520 C 0.63025 0.68699 0.35038 0.0
C1521 C 0.63547 0.70705 0.38453 0.0
C1522 C 0.61802 0.68111 0.38071 0.0
C1523 C 0.61759 0.67485 0.3696 0.0
C1524 C 0.59968 0.66031 0.388 0.0
C1525 C 0.63466 0.71733 0.39616 0.0
C1526 C 0.61347 0.64686 0.39721 0.0
C1527 C 0.59625 0.62651 0.40378 0.0
C1528 C 0.56549 0.61828 0.40097 0.0
C1529 C 0.55177 0.63135 0.39175 0.0
C1530 C 0.56855 0.65249 0.3854 0.0
H1531 H 0.63941 0.74283 0.39692 0.0
H1532 H 0.61161 0.71229 0.39994 0.0
H1533 H 0.65324 0.70481 0.4007 0.0
H1534 H 0.63774 0.65151 0.39921 0.0
H1535 H 0.60733 0.61625 0.41079 0.0
H1536 H 0.36691 0.56898 0.41335 0.0
H1537 H 0.31996 0.57859 0.40234 0.0
H1538 H 0.37854 0.58956 0.37425 0.0
H1539 H 0.42497 0.57946 0.3851 0.0
H1540 H 0.31125 0.63383 0.39293 0.0
H1541 H 0.30525 0.54499 0.36111 0.0
H1542 H 0.32715 0.5387 0.37339 0.0
H1543 H 0.34491 0.55853 0.36208 0.0
C1544 C 0.36951 0.57236 0.40475 0.0
C1545 C 0.39949 0.57376 0.40006 0.0
C1546 C 0.34274 0.57784 0.39848 0.0
C1547 C 0.34563 0.58431 0.38743 0.0
C1548 C 0.37551 0.58376 0.38268 0.0
H1549 H 0.32025 0.70494 0.34107 0.0
H1550 H 0.32657 0.65937 0.35273 0.0
C1551 C 0.40213 0.57845 0.38891 0.0
C1552 C 0.31909 0.59753 0.3812 0.0
H1553 H 0.29208 0.59949 0.35537 0.0
C1554 C 0.30588 0.62568 0.38487 0.0
C1555 C 0.31172 0.58672 0.37074 0.0
C1556 C 0.3228 0.55535 0.36668 0.0
C1557 C 0.28918 0.64535 0.37786 0.0
C1558 C 0.28549 0.63636 0.36698 0.0
C1559 C 0.29529 0.60649 0.36369 0.0
C1560 C 0.27879 0.66007 0.35863 0.0
C1561 C 0.27869 0.67707 0.38183 0.0
C1562 C 0.24949 0.67493 0.35784 0.0
C1563 C 0.24585 0.70113 0.35116 0.0
C1564 C 0.27156 0.71277 0.3453 0.0
C1565 C 0.30022 0.69665 0.34563 0.0
C1566 C 0.30376 0.6705 0.35221 0.0
H1567 H 0.2843 0.6808 0.39047 0.0
H1568 H 0.29017 0.69584 0.37705 0.0
H1569 H 0.25295 0.67945 0.38076 0.0
H1570 H 0.22994 0.66708 0.36271 0.0
H1571 H 0.22351 0.71322 0.35099 0.0
H1572 H 0.25836 0.69094 0.16548 0.0
H1573 H 0.24032 0.64404 0.15588 0.0
H1574 H 0.23682 0.69698 0.1263 0.0
H1575 H 0.25542 0.74331 0.13575 0.0
H1576 H 0.18343 0.64298 0.14722 0.0
H1577 H 0.26696 0.61452 0.11502 0.0
H1578 H 0.27797 0.63816 0.12649 0.0
H1579 H 0.25976 0.65583 0.11485 0.0
C1580 C 0.2549 0.69213 0.15685 0.0
C1581 C 0.25802 0.72074 0.15134 0.0
C1582 C 0.24454 0.66537 0.15139 0.0
C1583 C 0.23756 0.66683 0.14034 0.0
C1584 C 0.24279 0.69493 0.13474 0.0
H1585 H 0.10853 0.63953 0.09491 0.0
H1586 H 0.15321 0.64778 0.10685 0.0
C1587 C 0.25303 0.72157 0.14018 0.0
C1588 C 0.21935 0.64165 0.13502 0.0
H1589 H 0.21064 0.60761 0.11037 0.0
C1590 C 0.18984 0.63413 0.13934 0.0
C1591 C 0.22778 0.62985 0.12478 0.0
C1592 C 0.26004 0.63479 0.1201 0.0
C1593 C 0.16721 0.61845 0.13316 0.0
C1594 C 0.17449 0.61 0.12246 0.0
C1595 C 0.20505 0.61448 0.11856 0.0
C1596 C 0.14935 0.60267 0.11468 0.0
C1597 C 0.13473 0.61378 0.13773 0.0
C1598 C 0.13267 0.57436 0.11508 0.0
C1599 C 0.10691 0.56962 0.10826 0.0
C1600 C 0.09746 0.59328 0.10106 0.0
C1601 C 0.11488 0.62116 0.10052 0.0
C1602 C 0.1406 0.62576 0.10725 0.0
H1603 H 0.13268 0.62252 0.14612 0.0
H1604 H 0.11721 0.62614 0.13265 0.0
H1605 H 0.12875 0.58848 0.13765 0.0
H1606 H 0.13919 0.55628 0.12077 0.0
H1607 H 0.09388 0.54789 0.10881 0.0
H1608 H 0.16394 0.53028 0.91147 0.0
H1609 H 0.20827 0.51966 0.8997 0.0
H1610 H 0.18531 0.60104 0.88064 0.0
H1611 H 0.14017 0.61137 0.89236 0.0
H1612 H 0.18378 0.5489 0.86913 0.0
H1613 H 0.29476 0.54828 0.89158 0.0
H1614 H 0.26571 0.52763 0.89921 0.0
H1615 H 0.26041 0.56878 0.89641 0.0
C1616 C 0.16886 0.5464 0.90495 0.0
C1617 C 0.14841 0.57131 0.9027 0.0
C1618 C 0.19455 0.54062 0.89831 0.0
C1619 C 0.2004 0.55976 0.88934 0.0
C1620 C 0.18142 0.58619 0.88759 0.0
H1621 H 0.27648 0.45144 0.83543 0.0
H1622 H 0.2697 0.50064 0.84521 0.0
C1623 C 0.15567 0.59204 0.89427 0.0
C1624 C 0.22126 0.54782 0.88075 0.0
H1625 H 0.28925 0.50672 0.8777 0.0
C1626 C 0.20736 0.54068 0.87081 0.0
C1627 C 0.25206 0.53731 0.88292 0.0
C1628 C 0.26914 0.54626 0.89309 0.0
C1629 C 0.2217 0.51998 0.86358 0.0
C1630 C 0.2511 0.50671 0.86631 0.0
C1631 C 0.26656 0.51665 0.87568 0.0
C1632 C 0.26277 0.47848 0.8607 0.0
C1633 C 0.20374 0.51006 0.85366 0.0
C1634 C 0.26315 0.44992 0.86629 0.0
C1635 C 0.26756 0.42185 0.86078 0.0
C1636 C 0.27149 0.42177 0.84955 0.0
C1637 C 0.2735 0.45061 0.84408 0.0
C1638 C 0.26939 0.47878 0.84964 0.0
H1639 H 0.17952 0.51967 0.85351 0.0
H1640 H 0.21614 0.51855 0.84637 0.0
H1641 H 0.20227 0.48413 0.8532 0.0
H1642 H 0.25823 0.44918 0.87484 0.0
H1643 H 0.26668 0.4001 0.86526 0.0
H1644 H 0.27755 0.4183 0.63314 0.0
H1645 H 0.29188 0.46384 0.6224 0.0
H1646 H 0.27649 0.52387 0.64982 0.0
H1647 H 0.26353 0.47796 0.66082 0.0
H1648 H 0.26569 0.52072 0.61663 0.0
H1649 H 0.36897 0.53714 0.64372 0.0
H1650 H 0.34438 0.5029 0.64462 0.0
H1651 H 0.33059 0.5399 0.64961 0.0
C1652 C 0.27701 0.44121 0.63688 0.0
C1653 C 0.27015 0.44444 0.64788 0.0
C1654 C 0.28487 0.46728 0.6307 0.0
C1655 C 0.28587 0.49717 0.63537 0.0
C1656 C 0.27646 0.50091 0.64613 0.0
H1657 H 0.41743 0.61978 0.60135 0.0
H1658 H 0.3708 0.61179 0.61274 0.0
C1659 C 0.26879 0.47468 0.65237 0.0
C1660 C 0.30049 0.52302 0.6292 0.0
H1661 H 0.37043 0.56136 0.627 0.0
C1662 C 0.2882 0.53037 0.61901 0.0
C1663 C 0.32973 0.53587 0.63235 0.0
C1664 C 0.34442 0.52856 0.64314 0.0
C1665 C 0.30571 0.54774 0.61154 0.0
C1666 C 0.33621 0.55779 0.61433 0.0
C1667 C 0.34702 0.55347 0.62489 0.0
C1668 C 0.35963 0.56633 0.60605 0.0
C1669 C 0.29224 0.55349 0.60049 0.0
C1670 C 0.36846 0.54361 0.59847 0.0
C1671 C 0.3951 0.54792 0.59215 0.0
C1672 C 0.41326 0.5751 0.59325 0.0
C1673 C 0.4035 0.59875 0.60035 0.0
C1674 C 0.37697 0.59423 0.60681 0.0
H1675 H 0.26624 0.55513 0.6008 0.0
H1676 H 0.30178 0.57532 0.59688 0.0
H1677 H 0.29838 0.53355 0.59516 0.0
H1678 H 0.35594 0.52157 0.59794 0.0
H1679 H 0.40233 0.5294 0.58673 0.0
H1680 H 0.05571 0.96234 0.06503 0.0
H1681 H 0.06299 0.90553 0.06365 0.0
H1682 H 0.96452 0.89424 0.05669 0.0
H1683 H 0.95692 0.95074 0.05827 0.0
H1684 H 0.98944 0.85334 0.07301 0.0
H1685 H 0.06028 0.85289 0.03536 0.0
H1686 H 0.07348 0.87836 0.04597 0.0
H1687 H 0.03681 0.8861 0.03939 0.0
C1688 C 0.03559 0.94774 0.06327 0.0
C1689 C 0.00575 0.96106 0.0617 0.0
C1690 C 0.03986 0.91536 0.06238 0.0
C1691 C 0.01436 0.89585 0.05992 0.0
C1692 C 0.98452 0.909 0.0585 0.0
H1693 H 0.97397 0.69925 0.05282 0.0
H1694 H 0.97289 0.75647 0.05358 0.0
C1695 C 0.98027 0.94129 0.05934 0.0
C1696 C 0.01834 0.86155 0.05909 0.0
H1697 H 0.05094 0.80398 0.04365 0.0
C1698 C 0.00292 0.84251 0.06661 0.0
C1699 C 0.03609 0.84764 0.05075 0.0
C1700 C 0.05249 0.86718 0.04234 0.0
C1701 C 0.00468 0.80978 0.06601 0.0
C1702 C 0.02176 0.7958 0.05751 0.0
C1703 C 0.03773 0.81484 0.05011 0.0
C1704 C 0.02287 0.7614 0.05615 0.0
C1705 C 0.98852 0.79047 0.07455 0.0
C1706 C 0.05152 0.74536 0.05685 0.0
C1707 C 0.05221 0.71266 0.05636 0.0
C1708 C 0.02423 0.69551 0.05516 0.0
C1709 C 0.99579 0.7118 0.05396 0.0
C1710 C 0.99514 0.74445 0.05441 0.0
H1711 H 0.98397 0.80437 0.08195 0.0
H1712 H 0.96559 0.78219 0.07142 0.0
H1713 H 0.00276 0.76964 0.07675 0.0
H1714 H 0.07319 0.75809 0.05813 0.0
H1715 H 0.07445 0.7008 0.05739 0.0
H1716 H 0.38492 0.87088 0.30834 0.0
H1717 H 0.44164 0.87849 0.30652 0.0
H1718 H 0.45428 0.7786 0.30366 0.0
H1719 H 0.39775 0.77091 0.30538 0.0
H1720 H 0.48792 0.85754 0.31939 0.0
H1721 H 0.50495 0.80998 0.27838 0.0
H1722 H 0.46665 0.81931 0.2837 0.0
H1723 H 0.48525 0.78271 0.28704 0.0
C1724 C 0.39981 0.85057 0.30731 0.0
C1725 C 0.38686 0.8203 0.30695 0.0
C1726 C 0.43217 0.85495 0.30621 0.0
C1727 C 0.45212 0.82916 0.30474 0.0
C1728 C 0.43925 0.79892 0.30446 0.0
H1729 H 0.64653 0.81194 0.32096 0.0
H1730 H 0.58958 0.81118 0.3198 0.0
C1731 C 0.40693 0.79454 0.30548 0.0
C1732 C 0.48657 0.83359 0.30413 0.0
H1733 H 0.5513 0.81494 0.28927 0.0
C1734 C 0.50175 0.84854 0.31274 0.0
C1735 C 0.50455 0.82232 0.29538 0.0
C1736 C 0.48948 0.80799 0.28555 0.0
C1737 C 0.53451 0.85141 0.31304 0.0
C1738 C 0.55261 0.83831 0.30462 0.0
C1739 C 0.5374 0.82453 0.29579 0.0
C1740 C 0.58734 0.83785 0.30501 0.0
C1741 C 0.54941 0.86847 0.32237 0.0
C1742 C 0.60509 0.85198 0.29683 0.0
C1743 C 0.63788 0.85195 0.29735 0.0
C1744 C 0.65351 0.83766 0.30604 0.0
C1745 C 0.63551 0.8229 0.31408 0.0
C1746 C 0.60282 0.82284 0.31353 0.0
H1747 H 0.5327 0.88508 0.32618 0.0
H1748 H 0.55658 0.8512 0.32858 0.0
H1749 H 0.57055 0.88167 0.31978 0.0
H1750 H 0.59357 0.86339 0.29011 0.0
H1751 H 0.65096 0.86312 0.29095 0.0
H1752 H 0.57471 0.19732 0.56352 0.0
H1753 H 0.5719 0.25442 0.5627 0.0
H1754 H 0.4708 0.24962 0.56309 0.0
H1755 H 0.47348 0.19241 0.56399 0.0
H1756 H 0.54559 0.29177 0.54745 0.0
H1757 H 0.4886 0.31186 0.58701 0.0
H1758 H 0.50529 0.27458 0.58327 0.0
H1759 H 0.46719 0.28578 0.57838 0.0
C1760 C 0.55188 0.2084 0.56339 0.0
C1761 C 0.52431 0.19036 0.56384 0.0
C1762 C 0.55031 0.24103 0.56297 0.0
C1763 C 0.52116 0.25628 0.56299 0.0
C1764 C 0.49355 0.23836 0.56333 0.0
H1765 H 0.49265 0.45043 0.5438 0.0
H1766 H 0.49373 0.39332 0.54472 0.0
C1767 C 0.49511 0.20569 0.56383 0.0
C1768 C 0.51983 0.29091 0.56236 0.0
H1769 H 0.49341 0.35599 0.57548 0.0
C1770 C 0.53423 0.30584 0.55359 0.0
C1771 C 0.50534 0.3092 0.57045 0.0
C1772 C 0.49099 0.29461 0.58036 0.0
C1773 C 0.53437 0.33858 0.55263 0.0
C1774 C 0.51907 0.35682 0.56055 0.0
C1775 C 0.50487 0.34191 0.56937 0.0
C1776 C 0.51814 0.39147 0.55998 0.0
C1777 C 0.55155 0.35332 0.54329 0.0
C1778 C 0.53074 0.40939 0.56839 0.0
C1779 C 0.5297 0.44205 0.56799 0.0
C1780 C 0.51599 0.45752 0.55915 0.0
C1781 C 0.50323 0.43941 0.55075 0.0
C1782 C 0.50415 0.40671 0.5512 0.0
H1783 H 0.56893 0.33697 0.5397 0.0
H1784 H 0.53439 0.35962 0.53693 0.0
H1785 H 0.56395 0.37498 0.54581 0.0
H1786 H 0.54144 0.39807 0.57529 0.0
H1787 H 0.5392 0.45507 0.57471 0.0
H1788 H 0.14121 0.27843 0.81427 0.0
H1789 H 0.08387 0.27502 0.81385 0.0
H1790 H 0.0779 0.37582 0.81271 0.0
H1791 H 0.1351 0.37934 0.81303 0.0
H1792 H 0.04038 0.29802 0.82786 0.0
H1793 H 0.02308 0.35104 0.78754 0.0
H1794 H 0.06104 0.33842 0.7923 0.0
H1795 H 0.04522 0.37555 0.79648 0.0
C1796 C 0.12766 0.29985 0.81396 0.0
C1797 C 0.14268 0.32915 0.81359 0.0
C1798 C 0.09493 0.29787 0.81368 0.0
C1799 C 0.07664 0.32515 0.81303 0.0
C1800 C 0.09156 0.35444 0.81289 0.0
H1801 H 0.87799 0.36601 0.81642 0.0
H1802 H 0.93548 0.36788 0.81645 0.0
C1803 C 0.12425 0.35642 0.81309 0.0
C1804 C 0.04194 0.32303 0.8128 0.0
H1805 H 0.97726 0.34459 0.79833 0.0
C1806 C 0.02659 0.30798 0.82136 0.0
C1807 C 0.02401 0.33601 0.8043 0.0
C1808 C 0.03917 0.35089 0.79458 0.0
C1809 C 0.99373 0.30617 0.82177 0.0
C1810 C 0.97589 0.31963 0.81337 0.0
C1811 C 0.99115 0.33449 0.80478 0.0
C1812 C 0.94127 0.31838 0.81336 0.0
C1813 C 0.9782 0.29041 0.83124 0.0
C1814 C 0.92569 0.28997 0.81152 0.0
C1815 C 0.89294 0.28884 0.81147 0.0
C1816 C 0.87523 0.31611 0.81331 0.0
C1817 C 0.89099 0.34457 0.81511 0.0
C1818 C 0.92376 0.34572 0.81507 0.0
H1819 H 0.99503 0.28571 0.83788 0.0
H1820 H 0.95876 0.30512 0.83438 0.0
H1821 H 0.96801 0.26775 0.82861 0.0
H1822 H 0.93891 0.26869 0.81011 0.0
H1823 H 0.88149 0.26654 0.81016 0.0
H1824 H 0.0266 0.20311 0.92816 0.0
H1825 H 0.03526 0.25951 0.9296 0.0
H1826 H 0.99035 0.2599 0.9607 0.0
H1827 H 0.98186 0.20343 0.95939 0.0
H1828 H 0.96739 0.30529 0.94657 0.0
H1829 H 0.09742 0.30813 0.9486 0.0
H1830 H 0.08227 0.2859 0.93748 0.0
H1831 H 0.07497 0.27293 0.95102 0.0
C1832 C 0.01906 0.21505 0.93539 0.0
C1833 C 0.00352 0.19873 0.94366 0.0
C1834 C 0.02404 0.24729 0.9362 0.0
C1835 C 0.01378 0.26374 0.94531 0.0
C1836 C -0.0015 0.24755 0.95362 0.0
H1837 H 0.0567 0.46087 0.95747 0.0
H1838 H 0.05018 0.4042 0.95955 0.0
C1839 C 0.99351 0.21532 0.95282 0.0
C1840 C 0.01739 0.29812 0.9459 0.0
H1841 H 0.0717 0.35682 0.94517 0.0
C1842 C 0.99019 0.31659 0.94636 0.0
C1843 C 0.04718 0.31269 0.94576 0.0
C1844 C 0.07716 0.29392 0.94579 0.0
C1845 C 0.99197 0.34937 0.94632 0.0
C1846 C 0.02169 0.36393 0.94566 0.0
C1847 C 0.04894 0.3455 0.94559 0.0
C1848 C 0.02492 0.39823 0.94459 0.0
C1849 C 0.96204 0.36815 0.94693 0.0
C1850 C 0.0131 0.41343 0.93545 0.0
C1851 C 0.01694 0.44566 0.93421 0.0
C1852 C 0.0328 0.46333 0.94207 0.0
C1853 C 0.04461 0.44795 0.95123 0.0
C1854 C 0.0408 0.41563 0.95246 0.0
H1855 H 0.94238 0.35409 0.95028 0.0
H1856 H 0.96524 0.38938 0.95197 0.0
H1857 H 0.9553 0.3758 0.93871 0.0
H1858 H 0.00137 0.40025 0.92918 0.0
H1859 H 0.00816 0.45651 0.92693 0.0
H1860 H 0.14752 0.80103 0.20641 0.0
H1861 H 0.0904 0.8029 0.20732 0.0
H1862 H 0.08741 0.84759 0.1762 0.0
H1863 H 0.1445 0.84457 0.17499 0.0
H1864 H 0.05045 0.85238 0.20709 0.0
H1865 H 0.02706 0.77506 0.17215 0.0
H1866 H 0.06547 0.77873 0.17814 0.0
H1867 H 0.05143 0.80803 0.1689 0.0
C1868 C 0.1348 0.81089 0.19968 0.0
C1869 C 0.15077 0.82234 0.19057 0.0
C1870 C 0.1021 0.81216 0.20026 0.0
C1871 C 0.0846 0.82486 0.19175 0.0
C1872 C 0.1004 0.83704 0.18276 0.0
H1873 H 0.89168 0.88716 0.19318 0.0
H1874 H 0.94871 0.88268 0.19387 0.0
C1875 C 0.13314 0.83566 0.18215 0.0
C1876 C 0.04984 0.82568 0.19238 0.0
H1877 H 0.98321 0.80236 0.17939 0.0
C1878 C 0.03573 0.84132 0.20106 0.0
C1879 C 0.03067 0.81076 0.18462 0.0
C1880 C 0.04438 0.79192 0.17548 0.0
C1881 C 0.00296 0.84306 0.20206 0.0
C1882 C 0.98381 0.82934 0.19404 0.0
C1883 C 0.99792 0.8131 0.18549 0.0
C1884 C 0.9491 0.832 0.19422 0.0
C1885 C 0.98921 0.8592 0.21178 0.0
C1886 C 0.93028 0.805 0.19402 0.0
C1887 C 0.89759 0.80751 0.19356 0.0
C1888 C 0.88309 0.83708 0.19327 0.0
C1889 C 0.90202 0.86405 0.19361 0.0
C1890 C 0.93468 0.86153 0.19401 0.0
H1891 H 0.00613 0.85979 0.21858 0.0
H1892 H 0.98337 0.88376 0.20965 0.0
H1893 H 0.96741 0.84738 0.21452 0.0
H1894 H 0.94093 0.78196 0.19415 0.0
H1895 H 0.88369 0.7863 0.1934 0.0
H1896 H 0.52636 0.69696 0.42525 0.0
H1897 H 0.53074 0.75373 0.4263 0.0
H1898 H 0.47632 0.75358 0.45556 0.0
H1899 H 0.47308 0.69653 0.45488 0.0
H1900 H 0.4842 0.79692 0.42584 0.0
H1901 H 0.55124 0.80668 0.464 0.0
H1902 H 0.54672 0.77008 0.4569 0.0
H1903 H 0.51548 0.78474 0.46523 0.0
C1904 C 0.51583 0.70878 0.43204 0.0
C1905 C 0.49955 0.69196 0.44003 0.0
C1906 C 0.51813 0.74135 0.43257 0.0
C1907 C 0.50422 0.75784 0.44108 0.0
C1908 C 0.48777 0.74127 0.44903 0.0
H1909 H 0.46835 0.95911 0.43937 0.0
H1910 H 0.4628 0.90205 0.43977 0.0
C1911 C 0.48561 0.70863 0.44855 0.0
C1912 C 0.50617 0.79246 0.44138 0.0
H1913 H 0.53163 0.85403 0.45657 0.0
C1914 C 0.4946 0.80944 0.43255 0.0
C1915 C 0.52005 0.80866 0.4501 0.0
C1916 C 0.53436 0.79164 0.45955 0.0
C1917 C 0.49649 0.84222 0.4322 0.0
C1918 C 0.50964 0.85847 0.44104 0.0
C1919 C 0.52128 0.8415 0.44986 0.0
C1920 C 0.51263 0.89302 0.44111 0.0
C1921 C 0.48517 0.85903 0.42223 0.0
C1922 C 0.54236 0.90686 0.44208 0.0
C1923 C 0.54554 0.9394 0.44195 0.0
C1924 C 0.51903 0.95872 0.44084 0.0
C1925 C 0.48922 0.94481 0.44004 0.0
C1926 C 0.48604 0.91224 0.44025 0.0
H1927 H 0.48361 0.84301 0.4152 0.0
H1928 H 0.46139 0.86864 0.42374 0.0
H1929 H 0.50098 0.87878 0.42013 0.0
H1930 H 0.56318 0.89244 0.44276 0.0
H1931 H 0.56882 0.9494 0.44247 0.0
H1932 H 0.6395 0.26183 0.69615 0.0
H1933 H 0.58236 0.26683 0.69611 0.0
H1934 H 0.59105 0.36744 0.69572 0.0
H1935 H 0.64821 0.36267 0.69584 0.0
H1936 H 0.53968 0.29792 0.70989 0.0
H1937 H 0.53918 0.3476 0.66856 0.0
H1938 H 0.57324 0.32885 0.67432 0.0
H1939 H 0.56352 0.36842 0.67795 0.0
C1940 C 0.62931 0.28503 0.69627 0.0
C1941 C 0.64848 0.31186 0.69588 0.0
C1942 C 0.59664 0.28784 0.69618 0.0
C1943 C 0.58255 0.31748 0.69569 0.0
C1944 C 0.60152 0.34432 0.69585 0.0
H1945 H 0.38761 0.36783 0.70441 0.0
H1946 H 0.4439 0.35892 0.70636 0.0
C1947 C 0.63418 0.34155 0.69592 0.0
C1948 C 0.54806 0.32027 0.69462 0.0
H1949 H 0.49059 0.34714 0.67785 0.0
C1950 C 0.52889 0.30862 0.70289 0.0
C1951 C 0.53411 0.33373 0.68537 0.0
C1952 C 0.5535 0.34512 0.67598 0.0
C1953 C 0.49605 0.31073 0.70226 0.0
C1954 C 0.48216 0.32521 0.69319 0.0
C1955 C 0.50133 0.33625 0.68483 0.0
C1956 C 0.44778 0.32955 0.69223 0.0
C1957 C 0.47651 0.2971 0.71124 0.0
C1958 C 0.43136 0.31645 0.68354 0.0
C1959 C 0.39919 0.32181 0.68233 0.0
C1960 C 0.38289 0.3406 0.68975 0.0
C1961 C 0.39945 0.35352 0.69849 0.0
C1962 C 0.43158 0.34812 0.69969 0.0
H1963 H 0.48992 0.27963 0.71602 0.0
H1964 H 0.46922 0.31619 0.71676 0.0
H1965 H 0.45501 0.28572 0.70804 0.0
H1966 H 0.44352 0.30224 0.67764 0.0
H1967 H 0.38729 0.31184 0.67544 0.0
loop_
_geom_bond_atom_site_label_1
_geom_bond_atom_site_label_2
_geom_bond_distance
_geom_bond_site_symmetry_2
_ccdc_geom_bond_type
C0 C1 1.351 1_545 S
C0 N3 1.368 1_655 S
C0 H5 0.931 . S
C1 C0 1.351 1_565 S
C1 N2 1.373 1_655 S
C1 H29 0.930 . S
N2 C1 1.373 1_455 S
N2 C4 1.340 . S
N3 C0 1.368 1_455 S
N3 C4 1.321 1_545 S
N3 Co6 2.135 . S
C4 N2 1.340 . S
C4 N3 1.321 1_565 S
C4 H28 0.930 . S
H5 C0 0.931 . S
Co6 N3 2.135 . S
Co6 N9 2.121 . S
Co6 O14 2.055 . S
Co6 O17 2.039 . S
Co6 N20 2.140 1_455 S
C7 O8 1.227 . S
C7 O17 1.265 . S
O8 C7 1.227 . S
N9 Co6 2.121 . S
N9 C11 1.375 . S
N9 C12 1.313 . S
C10 C11 1.338 . S
C10 N13 1.377 . S
C10 H30 0.930 . S
C11 N9 1.375 . S
C11 C10 1.338 . S
C11 H15 0.931 . S
C12 N9 1.313 . S
C12 N13 1.344 . S
C12 H16 0.930 . S
N13 C10 1.377 . S
N13 C12 1.344 . S
O14 Co6 2.055 . S
O14 C18 1.253 . S
H15 C11 0.931 . S
H16 C12 0.930 . S
O17 Co6 2.039 . S
O17 C7 1.265 . S
C18 O14 1.253 . S
C18 O19 1.227 1_455 S
O19 C18 1.227 1_655 S
N20 Co6 2.140 1_655 S
N20 C23 1.346 . S
N20 C24 1.345 . S
C21 C22 1.387 . S
C21 C25 1.391 . S
C22 C21 1.387 . S
C22 C23 1.369 . S
C22 H31 0.929 . S
C23 N20 1.346 . S
C23 C22 1.369 . S
C23 H26 0.928 . S
C24 N20 1.345 . S
C24 C25 1.371 . S
C24 H27 0.931 . S
C25 C21 1.391 . S
C25 C24 1.371 . S
C25 H32 0.930 . S
H26 C23 0.928 . S
H27 C24 0.931 . S
H28 C4 0.930 . S
H29 C1 0.930 . S
H30 C10 0.930 . S
H31 C22 0.929 . S
H32 C25 0.930 . S
C33 C34 1.351 . S
C33 N36 1.368 . S
C33 H38 0.931 . S
C34 C33 1.351 . S
C34 N35 1.373 . S
C34 H62 0.930 . S
N35 C34 1.373 . S
N35 C37 1.340 . S
N36 C33 1.368 . S
N36 C37 1.321 . S
N36 Co39 2.135 . S
C37 N35 1.340 . S
C37 N36 1.321 . S
C37 H61 0.930 . S
H38 C33 0.931 . S
Co39 N36 2.135 . S
Co39 N42 2.121 . S
Co39 O47 2.055 . S
Co39 O50 2.039 . S
Co39 N53 2.140 . S
C40 O41 1.227 . S
C40 O50 1.265 . S
O41 C40 1.227 . S
N42 Co39 2.121 . S
N42 C44 1.375 . S
N42 C45 1.313 . S
C43 C44 1.338 . S
C43 N46 1.377 . S
C43 H63 0.930 . S
C44 N42 1.375 . S
C44 C43 1.338 . S
C44 H48 0.931 . S
C45 N42 1.313 . S
C45 N46 1.344 . S
C45 H49 0.930 . S
N46 C43 1.377 . S
N46 C45 1.344 . S
O47 Co39 2.055 . S
O47 C51 1.253 . S
H48 C44 0.931 . S
H49 C45 0.930 . S
O50 Co39 2.039 . S
O50 C40 1.265 . S
C51 O47 1.253 . S
C51 O52 1.227 . S
O52 C51 1.227 . S
N53 Co39 2.140 . S
N53 C56 1.346 . S
N53 C57 1.345 . S
C54 C55 1.387 . S
C54 C58 1.391 . S
C55 C54 1.387 . S
C55 C56 1.369 . S
C55 H64 0.929 . S
C56 N53 1.346 . S
C56 C55 1.369 . S
C56 H59 0.928 . S
C57 N53 1.345 . S
C57 C58 1.371 . S
C57 H60 0.931 . S
C58 C54 1.391 . S
C58 C57 1.371 . S
C58 H65 0.930 . S
H59 C56 0.928 . S
H60 C57 0.931 . S
H61 C37 0.930 . S
H62 C34 0.930 . S
H63 C43 0.930 . S
H64 C55 0.929 . S
H65 C58 0.930 . S
C66 C67 1.351 . S
C66 N69 1.368 . S
C66 H71 0.931 . S
C67 C66 1.351 . S
C67 N68 1.373 . S
C67 H95 0.930 . S
N68 C67 1.373 . S
N68 C70 1.340 . S
N69 C66 1.368 . S
N69 C70 1.321 . S
N69 Co72 2.135 . S
C70 N68 1.340 . S
C70 N69 1.321 . S
C70 H94 0.930 . S
H71 C66 0.931 . S
Co72 N69 2.135 . S
Co72 N75 2.121 . S
Co72 O80 2.055 . S
Co72 O83 2.039 . S
Co72 N86 2.140 . S
C73 O74 1.227 . S
C73 O83 1.265 . S
O74 C73 1.227 . S
N75 Co72 2.121 . S
N75 C77 1.375 . S
N75 C78 1.313 . S
C76 C77 1.338 . S
C76 N79 1.377 1_545 S
C76 H96 0.930 1_545 S
C77 N75 1.375 . S
C77 C76 1.338 . S
C77 H81 0.931 . S
C78 N75 1.313 . S
C78 N79 1.344 1_545 S
C78 H82 0.930 . S
N79 C76 1.377 1_565 S
N79 C78 1.344 1_565 S
O80 Co72 2.055 . S
O80 C84 1.253 . S
H81 C77 0.931 . S
H82 C78 0.930 . S
O83 Co72 2.039 . S
O83 C73 1.265 . S
C84 O80 1.253 . S
C84 O85 1.227 . S
O85 C84 1.227 . S
N86 Co72 2.140 . S
N86 C89 1.346 . S
N86 C90 1.345 . S
C87 C88 1.387 . S
C87 C91 1.391 . S
C88 C87 1.387 . S
C88 C89 1.369 . S
C88 H97 0.929 . S
C89 N86 1.346 . S
C89 C88 1.369 . S
C89 H92 0.928 . S
C90 N86 1.345 . S
C90 C91 1.371 . S
C90 H93 0.931 . S
C91 C87 1.391 . S
C91 C90 1.371 . S
C91 H98 0.930 . S
H92 C89 0.928 . S
H93 C90 0.931 . S
H94 C70 0.930 . S
H95 C67 0.930 . S
H96 C76 0.930 1_565 S
H97 C88 0.929 . S
H98 C91 0.930 . S
C99 C100 1.351 . S
C99 N102 1.368 . S
C99 H104 0.931 . S
C100 C99 1.351 . S
C100 N101 1.373 . S
C100 H128 0.930 . S
N101 C100 1.373 . S
N101 C103 1.340 . S
N102 C99 1.368 . S
N102 C103 1.321 . S
N102 Co105 2.135 . S
C103 N101 1.340 . S
C103 N102 1.321 . S
C103 H127 0.930 . S
H104 C99 0.931 . S
Co105 N102 2.135 . S
Co105 N108 2.121 . S
Co105 O113 2.055 . S
Co105 O116 2.039 . S
Co105 N119 2.140 . S
C106 O107 1.227 . S
C106 O116 1.265 . S
O107 C106 1.227 . S
N108 Co105 2.121 . S
N108 C110 1.375 . S
N108 C111 1.313 . S
C109 C110 1.338 . S
C109 N112 1.377 . S
C109 H129 0.930 . S
C110 N108 1.375 . S
C110 C109 1.338 . S
C110 H114 0.931 . S
C111 N108 1.313 . S
C111 N112 1.344 . S
C111 H115 0.930 . S
N112 C109 1.377 . S
N112 C111 1.344 . S
O113 Co105 2.055 . S
O113 C117 1.253 . S
H114 C110 0.931 . S
H115 C111 0.930 . S
O116 Co105 2.039 . S
O116 C106 1.265 . S
C117 O113 1.253 . S
C117 O118 1.227 . S
O118 C117 1.227 . S
N119 Co105 2.140 . S
N119 C122 1.346 . S
N119 C123 1.345 . S
C120 C121 1.387 . S
C120 C124 1.391 . S
C121 C120 1.387 . S
C121 C122 1.369 . S
C121 H130 0.929 . S
C122 N119 1.346 . S
C122 C121 1.369 . S
C122 H125 0.928 . S
C123 N119 1.345 . S
C123 C124 1.371 . S
C123 H126 0.931 . S
C124 C120 1.391 . S
C124 C123 1.371 . S
C124 H131 0.930 . S
H125 C122 0.928 . S
H126 C123 0.931 . S
H127 C103 0.930 . S
H128 C100 0.930 . S
H129 C109 0.930 . S
H130 C121 0.929 . S
H131 C124 0.930 . S
C132 C133 1.351 . S
C132 N135 1.368 1_655 S
C132 H137 0.931 . S
C133 C132 1.351 . S
C133 N134 1.373 1_655 S
C133 H161 0.930 . S
N134 C133 1.373 1_455 S
N134 C136 1.340 . S
N135 C132 1.368 1_455 S
N135 C136 1.321 . S
N135 Co138 2.135 . S
C136 N134 1.340 . S
C136 N135 1.321 . S
C136 H160 0.930 . S
H137 C132 0.931 . S
Co138 N135 2.135 . S
Co138 N141 2.121 . S
Co138 O146 2.055 . S
Co138 O149 2.039 . S
Co138 N152 2.140 1_455 S
C139 O140 1.227 . S
C139 O149 1.265 . S
O140 C139 1.227 . S
N141 Co138 2.121 . S
N141 C143 1.375 . S
N141 C144 1.313 . S
C142 C143 1.338 . S
C142 N145 1.377 1_545 S
C142 H162 0.930 1_545 S
C143 N141 1.375 . S
C143 C142 1.338 . S
C143 H147 0.931 . S
C144 N141 1.313 . S
C144 N145 1.344 1_545 S
C144 H148 0.930 . S
N145 C142 1.377 1_565 S
N145 C144 1.344 1_565 S
O146 Co138 2.055 . S
O146 C150 1.253 . S
H147 C143 0.931 . S
H148 C144 0.930 . S
O149 Co138 2.039 . S
O149 C139 1.265 . S
C150 O146 1.253 . S
C150 O151 1.227 1_455 S
O151 C150 1.227 1_655 S
N152 Co138 2.140 1_655 S
N152 C155 1.346 . S
N152 C156 1.345 . S
C153 C154 1.387 . S
C153 C157 1.391 . S
C154 C153 1.387 . S
C154 C155 1.369 . S
C154 H163 0.929 . S
C155 N152 1.346 . S
C155 C154 1.369 . S
C155 H158 0.928 . S
C156 N152 1.345 . S
C156 C157 1.371 . S
C156 H159 0.931 . S
C157 C153 1.391 . S
C157 C156 1.371 . S
C157 H164 0.930 . S
H158 C155 0.928 . S
H159 C156 0.931 . S
H160 C136 0.930 . S
H161 C133 0.930 . S
H162 C142 0.930 1_565 S
H163 C154 0.929 . S
H164 C157 0.930 . S
C165 C166 1.351 . S
C165 N168 1.368 . S
C165 H170 0.931 . S
C166 C165 1.351 . S
C166 N167 1.373 . S
C166 H194 0.930 . S
N167 C166 1.373 . S
N167 C169 1.340 . S
N168 C165 1.368 . S
N168 C169 1.321 . S
N168 Co171 2.135 . S
C169 N167 1.340 . S
C169 N168 1.321 . S
C169 H193 0.930 . S
H170 C165 0.931 . S
Co171 N168 2.135 . S
Co171 N174 2.121 . S
Co171 O179 2.055 . S
Co171 O182 2.039 . S
Co171 N185 2.140 . S
C172 O173 1.227 . S
C172 O182 1.265 . S
O173 C172 1.227 . S
N174 Co171 2.121 . S
N174 C176 1.375 . S
N174 C177 1.313 . S
C175 C176 1.338 . S
C175 N178 1.377 . S
C175 H195 0.930 . S
C176 N174 1.375 . S
C176 C175 1.338 . S
C176 H180 0.931 . S
C177 N174 1.313 . S
C177 N178 1.344 . S
C177 H181 0.930 . S
N178 C175 1.377 . S
N178 C177 1.344 . S
O179 Co171 2.055 . S
O179 C183 1.253 . S
H180 C176 0.931 . S
H181 C177 0.930 . S
O182 Co171 2.039 . S
O182 C172 1.265 . S
C183 O179 1.253 . S
C183 O184 1.227 . S
O184 C183 1.227 . S
N185 Co171 2.140 . S
N185 C188 1.346 . S
N185 C189 1.345 . S
C186 C187 1.387 . S
C186 C190 1.391 . S
C187 C186 1.387 . S
C187 C188 1.369 . S
C187 H196 0.929 . S
C188 N185 1.346 . S
C188 C187 1.369 . S
C188 H191 0.928 . S
C189 N185 1.345 . S
C189 C190 1.371 . S
C189 H192 0.931 . S
C190 C186 1.391 . S
C190 C189 1.371 . S
C190 H197 0.930 . S
H191 C188 0.928 . S
H192 C189 0.931 . S
H193 C169 0.930 . S
H194 C166 0.930 . S
H195 C175 0.930 . S
H196 C187 0.929 . S
H197 C190 0.930 . S
C198 C199 1.351 1_545 S
C198 N201 1.368 . S
C198 H203 0.931 . S
C199 C198 1.351 1_565 S
C199 N200 1.373 . S
C199 H227 0.930 . S
N200 C199 1.373 . S
N200 C202 1.340 . S
N201 C198 1.368 . S
N201 C202 1.321 1_545 S
N201 Co204 2.135 . S
C202 N200 1.340 . S
C202 N201 1.321 1_565 S
C202 H226 0.930 . S
H203 C198 0.931 . S
Co204 N201 2.135 . S
Co204 N207 2.121 . S
Co204 O212 2.055 . S
Co204 O215 2.039 . S
Co204 N218 2.140 . S
C205 O206 1.227 . S
C205 O215 1.265 . S
O206 C205 1.227 . S
N207 Co204 2.121 . S
N207 C209 1.375 . S
N207 C210 1.313 . S
C208 C209 1.338 . S
C208 N211 1.377 . S
C208 H228 0.930 . S
C209 N207 1.375 . S
C209 C208 1.338 . S
C209 H213 0.931 . S
C210 N207 1.313 . S
C210 N211 1.344 . S
C210 H214 0.930 . S
N211 C208 1.377 . S
N211 C210 1.344 . S
O212 Co204 2.055 . S
O212 C216 1.253 . S
H213 C209 0.931 . S
H214 C210 0.930 . S
O215 Co204 2.039 . S
O215 C205 1.265 . S
C216 O212 1.253 . S
C216 O217 1.227 . S
O217 C216 1.227 . S
N218 Co204 2.140 . S
N218 C221 1.346 . S
N218 C222 1.345 . S
C219 C220 1.387 . S
C219 C223 1.391 . S
C220 C219 1.387 . S
C220 C221 1.369 . S
C220 H229 0.929 . S
C221 N218 1.346 . S
C221 C220 1.369 . S
C221 H224 0.928 . S
C222 N218 1.345 . S
C222 C223 1.371 . S
C222 H225 0.931 . S
C223 C219 1.391 . S
C223 C222 1.371 . S
C223 H230 0.930 . S
H224 C221 0.928 . S
H225 C222 0.931 . S
H226 C202 0.930 . S
H227 C199 0.930 . S
H228 C208 0.930 . S
H229 C220 0.929 . S
H230 C223 0.930 . S
C231 C232 1.351 . S
C231 N234 1.368 . S
C231 H236 0.931 . S
C232 C231 1.351 . S
C232 N233 1.373 . S
C232 H260 0.930 . S
N233 C232 1.373 . S
N233 C235 1.340 . S
N234 C231 1.368 . S
N234 C235 1.321 . S
N234 Co237 2.135 . S
C235 N233 1.340 . S
C235 N234 1.321 . S
C235 H259 0.930 . S
H236 C231 0.931 . S
Co237 N234 2.135 . S
Co237 N240 2.121 . S
Co237 O245 2.055 . S
Co237 O248 2.039 . S
Co237 N251 2.140 . S
C238 O239 1.227 . S
C238 O248 1.265 . S
O239 C238 1.227 . S
N240 Co237 2.121 . S
N240 C242 1.375 . S
N240 C243 1.313 . S
C241 C242 1.338 . S
C241 N244 1.377 . S
C241 H261 0.930 . S
C242 N240 1.375 . S
C242 C241 1.338 . S
C242 H246 0.931 . S
C243 N240 1.313 . S
C243 N244 1.344 . S
C243 H247 0.930 . S
N244 C241 1.377 . S
N244 C243 1.344 . S
O245 Co237 2.055 . S
O245 C249 1.253 . S
H246 C242 0.931 . S
H247 C243 0.930 . S
O248 Co237 2.039 . S
O248 C238 1.265 . S
C249 O245 1.253 . S
C249 O250 1.227 . S
O250 C249 1.227 . S
N251 Co237 2.140 . S
N251 C254 1.346 . S
N251 C255 1.345 . S
C252 C253 1.387 . S
C252 C256 1.391 . S
C253 C252 1.387 . S
C253 C254 1.369 . S
C253 H262 0.929 . S
C254 N251 1.346 . S
C254 C253 1.369 . S
C254 H257 0.928 . S
C255 N251 1.345 . S
C255 C256 1.371 . S
C255 H258 0.931 . S
C256 C252 1.391 . S
C256 C255 1.371 . S
C256 H263 0.930 . S
H257 C254 0.928 . S
H258 C255 0.931 . S
H259 C235 0.930 . S
H260 C232 0.930 . S
H261 C241 0.930 . S
H262 C253 0.929 . S
H263 C256 0.930 . S
C264 C265 1.351 . S
C264 N267 1.368 . S
C264 H269 0.931 . S
C265 C264 1.351 . S
C265 N266 1.373 . S
C265 H293 0.930 . S
N266 C265 1.373 . S
N266 C268 1.340 . S
N267 C264 1.368 . S
N267 C268 1.321 . S
N267 Co270 2.135 . S
C268 N266 1.340 . S
C268 N267 1.321 . S
C268 H292 0.930 . S
H269 C264 0.931 . S
Co270 N267 2.135 . S
Co270 N273 2.121 . S
Co270 O278 2.055 . S
Co270 O281 2.039 . S
Co270 N284 2.140 . S
C271 O272 1.227 . S
C271 O281 1.265 . S
O272 C271 1.227 . S
N273 Co270 2.121 . S
N273 C275 1.375 . S
N273 C276 1.313 . S
C274 C275 1.338 . S
C274 N277 1.377 . S
C274 H294 0.930 . S
C275 N273 1.375 . S
C275 C274 1.338 . S
C275 H279 0.931 . S
C276 N273 1.313 . S
C276 N277 1.344 . S
C276 H280 0.930 . S
N277 C274 1.377 . S
N277 C276 1.344 . S
O278 Co270 2.055 . S
O278 C282 1.253 . S
H279 C275 0.931 . S
H280 C276 0.930 . S
O281 Co270 2.039 . S
O281 C271 1.265 . S
C282 O278 1.253 . S
C282 O283 1.227 . S
O283 C282 1.227 . S
N284 Co270 2.140 . S
N284 C287 1.346 . S
N284 C288 1.345 . S
C285 C286 1.387 . S
C285 C289 1.391 . S
C286 C285 1.387 . S
C286 C287 1.369 . S
C286 H295 0.929 . S
C287 N284 1.346 . S
C287 C286 1.369 . S
C287 H290 0.928 . S
C288 N284 1.345 . S
C288 C289 1.371 . S
C288 H291 0.931 . S
C289 C285 1.391 . S
C289 C288 1.371 . S
C289 H296 0.930 . S
H290 C287 0.928 . S
H291 C288 0.931 . S
H292 C268 0.930 . S
H293 C265 0.930 . S
H294 C274 0.930 . S
H295 C286 0.929 . S
H296 C289 0.930 . S
C297 C298 1.351 . S
C297 N300 1.368 . S
C297 H302 0.931 . S
C298 C297 1.351 . S
C298 N299 1.373 . S
C298 H326 0.930 . S
N299 C298 1.373 . S
N299 C301 1.340 . S
N300 C297 1.368 . S
N300 C301 1.321 . S
N300 Co303 2.135 . S
C301 N299 1.340 . S
C301 N300 1.321 . S
C301 H325 0.930 . S
H302 C297 0.931 . S
Co303 N300 2.135 . S
Co303 N306 2.121 . S
Co303 O311 2.055 . S
Co303 O314 2.039 . S
Co303 N317 2.140 . S
C304 O305 1.227 . S
C304 O314 1.265 . S
O305 C304 1.227 . S
N306 Co303 2.121 . S
N306 C308 1.375 . S
N306 C309 1.313 . S
C307 C308 1.338 . S
C307 N310 1.377 . S
C307 H327 0.930 . S
C308 N306 1.375 . S
C308 C307 1.338 . S
C308 H312 0.931 . S
C309 N306 1.313 . S
C309 N310 1.344 . S
C309 H313 0.930 . S
N310 C307 1.377 . S
N310 C309 1.344 . S
O311 Co303 2.055 . S
O311 C315 1.253 . S
H312 C308 0.931 . S
H313 C309 0.930 . S
O314 Co303 2.039 . S
O314 C304 1.265 . S
C315 O311 1.253 . S
C315 O316 1.227 . S
O316 C315 1.227 . S
N317 Co303 2.140 . S
N317 C320 1.346 . S
N317 C321 1.345 . S
C318 C319 1.387 . S
C318 C322 1.391 . S
C319 C318 1.387 . S
C319 C320 1.369 . S
C319 H328 0.929 . S
C320 N317 1.346 . S
C320 C319 1.369 . S
C320 H323 0.928 . S
C321 N317 1.345 . S
C321 C322 1.371 . S
C321 H324 0.931 . S
C322 C318 1.391 . S
C322 C321 1.371 . S
C322 H329 0.930 . S
H323 C320 0.928 . S
H324 C321 0.931 . S
H325 C301 0.930 . S
H326 C298 0.930 . S
H327 C307 0.930 . S
H328 C319 0.929 . S
H329 C322 0.930 . S
C330 C331 1.351 . S
C330 N333 1.368 . S
C330 H335 0.931 . S
C331 C330 1.351 . S
C331 N332 1.373 . S
C331 H359 0.930 . S
N332 C331 1.373 . S
N332 C334 1.340 . S
N333 C330 1.368 . S
N333 C334 1.321 . S
N333 Co336 2.135 . S
C334 N332 1.340 . S
C334 N333 1.321 . S
C334 H358 0.930 . S
H335 C330 0.931 . S
Co336 N333 2.135 . S
Co336 N339 2.121 . S
Co336 O344 2.055 . S
Co336 O347 2.039 . S
Co336 N350 2.140 . S
C337 O338 1.227 . S
C337 O347 1.265 . S
O338 C337 1.227 . S
N339 Co336 2.121 . S
N339 C341 1.375 . S
N339 C342 1.313 . S
C340 C341 1.338 . S
C340 N343 1.377 . S
C340 H360 0.930 . S
C341 N339 1.375 . S
C341 C340 1.338 . S
C341 H345 0.931 . S
C342 N339 1.313 . S
C342 N343 1.344 . S
C342 H346 0.930 . S
N343 C340 1.377 . S
N343 C342 1.344 . S
O344 Co336 2.055 . S
O344 C348 1.253 . S
H345 C341 0.931 . S
H346 C342 0.930 . S
O347 Co336 2.039 . S
O347 C337 1.265 . S
C348 O344 1.253 . S
C348 O349 1.227 . S
O349 C348 1.227 . S
N350 Co336 2.140 . S
N350 C353 1.346 . S
N350 C354 1.345 . S
C351 C352 1.387 . S
C351 C355 1.391 . S
C352 C351 1.387 . S
C352 C353 1.369 . S
C352 H361 0.929 . S
C353 N350 1.346 . S
C353 C352 1.369 . S
C353 H356 0.928 . S
C354 N350 1.345 . S
C354 C355 1.371 . S
C354 H357 0.931 . S
C355 C351 1.391 . S
C355 C354 1.371 . S
C355 H362 0.930 . S
H356 C353 0.928 . S
H357 C354 0.931 . S
H358 C334 0.930 . S
H359 C331 0.930 . S
H360 C340 0.930 . S
H361 C352 0.929 . S
H362 C355 0.930 . S
C363 C364 1.351 . S
C363 N366 1.368 . S
C363 H368 0.931 . S
C364 C363 1.351 . S
C364 N365 1.373 . S
C364 H392 0.930 . S
N365 C364 1.373 . S
N365 C367 1.340 . S
N366 C363 1.368 . S
N366 C367 1.321 . S
N366 Co369 2.135 . S
C367 N365 1.340 . S
C367 N366 1.321 . S
C367 H391 0.930 . S
H368 C363 0.931 . S
Co369 N366 2.135 . S
Co369 N372 2.121 . S
Co369 O377 2.055 . S
Co369 O380 2.039 . S
Co369 N383 2.140 . S
C370 O371 1.227 . S
C370 O380 1.265 . S
O371 C370 1.227 . S
N372 Co369 2.121 . S
N372 C374 1.375 . S
N372 C375 1.313 . S
C373 C374 1.338 . S
C373 N376 1.377 . S
C373 H393 0.930 . S
C374 N372 1.375 . S
C374 C373 1.338 . S
C374 H378 0.931 . S
C375 N372 1.313 . S
C375 N376 1.344 . S
C375 H379 0.930 . S
N376 C373 1.377 . S
N376 C375 1.344 . S
O377 Co369 2.055 . S
O377 C381 1.253 . S
H378 C374 0.931 . S
H379 C375 0.930 . S
O380 Co369 2.039 . S
O380 C370 1.265 . S
C381 O377 1.253 . S
C381 O382 1.227 . S
O382 C381 1.227 . S
N383 Co369 2.140 . S
N383 C386 1.346 . S
N383 C387 1.345 . S
C384 C385 1.387 . S
C384 C388 1.391 . S
C385 C384 1.387 . S
C385 C386 1.369 . S
C385 H394 0.929 . S
C386 N383 1.346 . S
C386 C385 1.369 . S
C386 H389 0.928 . S
C387 N383 1.345 . S
C387 C388 1.371 . S
C387 H390 0.931 . S
C388 C384 1.391 . S
C388 C387 1.371 . S
C388 H395 0.930 . S
H389 C386 0.928 . S
H390 C387 0.931 . S
H391 C367 0.930 . S
H392 C364 0.930 . S
H393 C373 0.930 . S
H394 C385 0.929 . S
H395 C388 0.930 . S
C396 C397 1.351 . S
C396 N399 1.368 . S
C396 H401 0.931 . S
C397 C396 1.351 . S
C397 N398 1.373 . S
C397 H425 0.930 . S
N398 C397 1.373 . S
N398 C400 1.340 . S
N399 C396 1.368 . S
N399 C400 1.321 . S
N399 Co402 2.135 . S
C400 N398 1.340 . S
C400 N399 1.321 . S
C400 H424 0.930 . S
H401 C396 0.931 . S
Co402 N399 2.135 . S
Co402 N405 2.121 . S
Co402 O410 2.055 . S
Co402 O413 2.039 . S
Co402 N416 2.140 . S
C403 O404 1.227 . S
C403 O413 1.265 . S
O404 C403 1.227 . S
N405 Co402 2.121 . S
N405 C407 1.375 . S
N405 C408 1.313 . S
C406 C407 1.338 . S
C406 N409 1.377 . S
C406 H426 0.930 . S
C407 N405 1.375 . S
C407 C406 1.338 . S
C407 H411 0.931 . S
C408 N405 1.313 . S
C408 N409 1.344 . S
C408 H412 0.930 . S
N409 C406 1.377 . S
N409 C408 1.344 . S
O410 Co402 2.055 . S
O410 C414 1.253 . S
H411 C407 0.931 . S
H412 C408 0.930 . S
O413 Co402 2.039 . S
O413 C403 1.265 . S
C414 O410 1.253 . S
C414 O415 1.227 . S
O415 C414 1.227 . S
N416 Co402 2.140 . S
N416 C419 1.346 . S
N416 C420 1.345 . S
C417 C418 1.387 . S
C417 C421 1.391 . S
C418 C417 1.387 . S
C418 C419 1.369 . S
C418 H427 0.929 . S
C419 N416 1.346 . S
C419 C418 1.369 . S
C419 H422 0.928 . S
C420 N416 1.345 . S
C420 C421 1.371 . S
C420 H423 0.931 . S
C421 C417 1.391 . S
C421 C420 1.371 . S
C421 H428 0.930 . S
H422 C419 0.928 . S
H423 C420 0.931 . S
H424 C400 0.930 . S
H425 C397 0.930 . S
H426 C406 0.930 . S
H427 C418 0.929 . S
H428 C421 0.930 . S
C429 C430 1.351 . S
C429 N432 1.368 . S
C429 H434 0.931 . S
C430 C429 1.351 . S
C430 N431 1.373 . S
C430 H458 0.930 . S
N431 C430 1.373 . S
N431 C433 1.340 1_455 S
N432 C429 1.368 . S
N432 C433 1.321 1_455 S
N432 Co435 2.135 . S
C433 N431 1.340 1_655 S
C433 N432 1.321 1_655 S
C433 H457 0.930 . S
H434 C429 0.931 . S
Co435 N432 2.135 . S
Co435 N438 2.121 . S
Co435 O443 2.055 1_455 S
Co435 O446 2.039 1_455 S
Co435 N449 2.140 . S
C436 O437 1.227 . S
C436 O446 1.265 . S
O437 C436 1.227 . S
N438 Co435 2.121 . S
N438 C440 1.375 1_455 S
N438 C441 1.313 . S
C439 C440 1.338 . S
C439 N442 1.377 1_655 S
C439 H459 0.930 . S
C440 N438 1.375 1_655 S
C440 C439 1.338 . S
C440 H444 0.931 . S
C441 N438 1.313 . S
C441 N442 1.344 . S
C441 H445 0.930 . S
N442 C439 1.377 1_455 S
N442 C441 1.344 . S
O443 Co435 2.055 1_655 S
O443 C447 1.253 1_655 S
H444 C440 0.931 . S
H445 C441 0.930 . S
O446 Co435 2.039 1_655 S
O446 C436 1.265 . S
C447 O443 1.253 1_455 S
C447 O448 1.227 . S
O448 C447 1.227 . S
N449 Co435 2.140 . S
N449 C452 1.346 . S
N449 C453 1.345 . S
C450 C451 1.387 . S
C450 C454 1.391 . S
C451 C450 1.387 . S
C451 C452 1.369 . S
C451 H460 0.929 . S
C452 N449 1.346 . S
C452 C451 1.369 . S
C452 H455 0.928 . S
C453 N449 1.345 . S
C453 C454 1.371 . S
C453 H456 0.931 . S
C454 C450 1.391 . S
C454 C453 1.371 . S
C454 H461 0.930 . S
H455 C452 0.928 . S
H456 C453 0.931 . S
H457 C433 0.930 . S
H458 C430 0.930 . S
H459 C439 0.930 . S
H460 C451 0.929 . S
H461 C454 0.930 . S
C462 C463 1.351 . S
C462 N465 1.368 . S
C462 H467 0.931 . S
C463 C462 1.351 . S
C463 N464 1.373 . S
C463 H491 0.930 . S
N464 C463 1.373 . S
N464 C466 1.340 . S
N465 C462 1.368 . S
N465 C466 1.321 . S
N465 Co468 2.135 . S
C466 N464 1.340 . S
C466 N465 1.321 . S
C466 H490 0.930 . S
H467 C462 0.931 . S
Co468 N465 2.135 . S
Co468 N471 2.121 . S
Co468 O476 2.055 . S
Co468 O479 2.039 . S
Co468 N482 2.140 . S
C469 O470 1.227 . S
C469 O479 1.265 . S
O470 C469 1.227 . S
N471 Co468 2.121 . S
N471 C473 1.375 . S
N471 C474 1.313 . S
C472 C473 1.338 . S
C472 N475 1.377 . S
C472 H492 0.930 . S
C473 N471 1.375 . S
C473 C472 1.338 . S
C473 H477 0.931 . S
C474 N471 1.313 . S
C474 N475 1.344 . S
C474 H478 0.930 . S
N475 C472 1.377 . S
N475 C474 1.344 . S
O476 Co468 2.055 . S
O476 C480 1.253 . S
H477 C473 0.931 . S
H478 C474 0.930 . S
O479 Co468 2.039 . S
O479 C469 1.265 . S
C480 O476 1.253 . S
C480 O481 1.227 . S
O481 C480 1.227 . S
N482 Co468 2.140 . S
N482 C485 1.346 . S
N482 C486 1.345 . S
C483 C484 1.387 . S
C483 C487 1.391 . S
C484 C483 1.387 . S
C484 C485 1.369 . S
C484 H493 0.929 . S
C485 N482 1.346 . S
C485 C484 1.369 . S
C485 H488 0.928 . S
C486 N482 1.345 . S
C486 C487 1.371 . S
C486 H489 0.931 . S
C487 C483 1.391 . S
C487 C486 1.371 . S
C487 H494 0.930 . S
H488 C485 0.928 . S
H489 C486 0.931 . S
H490 C466 0.930 . S
H491 C463 0.930 . S
H492 C472 0.930 . S
H493 C484 0.929 . S
H494 C487 0.930 . S
C495 C496 1.351 . S
C495 N498 1.368 . S
C495 H500 0.931 . S
C496 C495 1.351 . S
C496 N497 1.373 . S
C496 H524 0.930 . S
N497 C496 1.373 . S
N497 C499 1.340 1_455 S
N498 C495 1.368 . S
N498 C499 1.321 1_455 S
N498 Co501 2.135 . S
C499 N497 1.340 1_655 S
C499 N498 1.321 1_655 S
C499 H523 0.930 . S
H500 C495 0.931 . S
Co501 N498 2.135 . S
Co501 N504 2.121 . S
Co501 O509 2.055 1_455 S
Co501 O512 2.039 1_455 S
Co501 N515 2.140 . S
C502 O503 1.227 . S
C502 O512 1.265 . S
O503 C502 1.227 . S
N504 Co501 2.121 . S
N504 C506 1.375 1_455 S
N504 C507 1.313 . S
C505 C506 1.341 . S
C505 N508 1.370 1_655 S
C505 H525 0.934 . S
C506 N504 1.375 1_655 S
C506 C505 1.341 . S
C506 H510 0.931 . S
C507 N504 1.313 . S
C507 N508 1.344 . S
C507 H511 0.930 . S
N508 C505 1.370 1_455 S
N508 C507 1.344 . S
O509 Co501 2.055 1_655 S
O509 C513 1.253 1_655 S
H510 C506 0.931 . S
H511 C507 0.930 . S
O512 Co501 2.039 1_655 S
O512 C502 1.265 . S
C513 O509 1.253 1_455 S
C513 O514 1.227 . S
O514 C513 1.227 . S
N515 Co501 2.140 . S
N515 C518 1.346 . S
N515 C519 1.345 . S
C516 C517 1.387 . S
C516 C520 1.391 . S
C517 C516 1.387 . S
C517 C518 1.369 . S
C517 H526 0.929 . S
C518 N515 1.346 . S
C518 C517 1.369 . S
C518 H521 0.928 . S
C519 N515 1.345 . S
C519 C520 1.371 . S
C519 H522 0.931 . S
C520 C516 1.391 . S
C520 C519 1.371 . S
C520 H527 0.930 . S
H521 C518 0.928 . S
H522 C519 0.931 . S
H523 C499 0.930 . S
H524 C496 0.930 . S
H525 C505 0.934 . S
H526 C517 0.929 . S
H527 C520 0.930 . S
H528 C536 0.929 . S
H529 C538 0.930 . S
H530 C540 0.930 . S
H531 C543 0.929 . S
H532 C546 0.930 . S
H533 C548 0.960 . S
H534 C548 0.960 . S
H535 C548 0.960 . S
C536 H528 0.929 . S
C536 C537 1.377 . S
C536 C538 1.384 . S
C537 C536 1.377 . S
C537 C543 1.390 1_455 S
C538 H529 0.930 . S
C538 C536 1.384 . S
C538 C539 1.372 . S
C539 C538 1.372 . S
C539 C540 1.400 1_455 S
C539 C544 1.490 . S
C540 H530 0.930 . S
C540 C539 1.400 1_655 S
C540 C543 1.386 . S
H541 C557 0.930 . S
H542 C558 0.931 . S
C543 H531 0.929 . S
C543 C537 1.390 1_655 S
C543 C540 1.386 . S
C544 C539 1.490 . S
C544 C546 1.395 . S
C544 C547 1.403 1_455 S
H545 C551 0.930 . S
C546 H532 0.930 . S
C546 C544 1.395 . S
C546 C549 1.403 . S
C547 C544 1.403 1_655 S
C547 C548 1.524 . S
C547 C551 1.400 . S
C548 H533 0.960 . S
C548 H534 0.960 . S
C548 H535 0.960 . S
C548 C547 1.524 . S
C549 C546 1.403 . S
C549 C550 1.392 . S
C549 C553 1.495 . S
C550 C549 1.392 . S
C550 C551 1.385 1_455 S
C550 C552 1.478 . S
C551 H545 0.930 . S
C551 C547 1.400 . S
C551 C550 1.385 1_655 S
C552 C550 1.478 . S
C552 C554 1.381 . S
C552 C558 1.383 . S
C553 C549 1.495 . S
C553 H559 0.959 . S
C553 H560 0.961 . S
C553 H561 0.960 . S
C554 C552 1.381 . S
C554 C555 1.394 . S
C554 H562 0.930 . S
C555 C554 1.394 . S
C555 C556 1.383 . S
C555 H563 0.929 . S
C556 C555 1.383 . S
C556 C557 1.377 . S
C557 H541 0.930 . S
C557 C556 1.377 . S
C557 C558 1.379 . S
C558 H542 0.931 . S
C558 C552 1.383 . S
C558 C557 1.379 . S
H559 C553 0.959 . S
H560 C553 0.961 . S
H561 C553 0.960 . S
H562 C554 0.930 . S
H563 C555 0.929 . S
H564 C572 0.929 . S
H565 C574 0.930 . S
H566 C576 0.930 . S
H567 C579 0.929 . S
H568 C582 0.930 . S
H569 C584 0.960 . S
H570 C584 0.960 . S
H571 C584 0.960 . S
C572 H564 0.929 . S
C572 C573 1.377 . S
C572 C574 1.384 . S
C573 C572 1.377 . S
C573 C579 1.390 . S
C574 H565 0.930 . S
C574 C572 1.384 . S
C574 C575 1.372 . S
C575 C574 1.372 . S
C575 C576 1.400 . S
C575 C580 1.490 . S
C576 H566 0.930 . S
C576 C575 1.400 . S
C576 C579 1.386 . S
H577 C593 0.930 . S
H578 C594 0.931 . S
C579 H567 0.929 . S
C579 C573 1.390 . S
C579 C576 1.386 . S
C580 C575 1.490 . S
C580 C582 1.395 . S
C580 C583 1.403 . S
H581 C587 0.930 . S
C582 H568 0.930 . S
C582 C580 1.395 . S
C582 C585 1.403 1_455 S
C583 C580 1.403 . S
C583 C584 1.524 . S
C583 C587 1.400 1_455 S
C584 H569 0.960 . S
C584 H570 0.960 . S
C584 H571 0.960 . S
C584 C583 1.524 . S
C585 C582 1.403 1_655 S
C585 C586 1.392 . S
C585 C589 1.495 . S
C586 C585 1.392 . S
C586 C587 1.385 . S
C586 C588 1.478 . S
C587 H581 0.930 . S
C587 C583 1.400 1_655 S
C587 C586 1.385 . S
C588 C586 1.478 . S
C588 C590 1.381 . S
C588 C594 1.383 . S
C589 C585 1.495 . S
C589 H595 0.959 . S
C589 H596 0.961 . S
C589 H597 0.960 . S
C590 C588 1.381 . S
C590 C591 1.394 . S
C590 H598 0.930 . S
C591 C590 1.394 . S
C591 C592 1.383 . S
C591 H599 0.929 . S
C592 C591 1.383 . S
C592 C593 1.377 . S
C593 H577 0.930 . S
C593 C592 1.377 . S
C593 C594 1.379 . S
C594 H578 0.931 . S
C594 C588 1.383 . S
C594 C593 1.379 . S
H595 C589 0.959 . S
H596 C589 0.961 . S
H597 C589 0.960 . S
H598 C590 0.930 . S
H599 C591 0.929 . S
H600 C608 0.929 . S
H601 C610 0.930 . S
H602 C612 0.930 . S
H603 C615 0.929 . S
H604 C618 0.930 . S
H605 C620 0.960 . S
H606 C620 0.960 . S
H607 C620 0.960 . S
C608 H600 0.929 . S
C608 C609 1.377 . S
C608 C610 1.384 . S
C609 C608 1.377 . S
C609 C615 1.390 . S
C610 H601 0.930 . S
C610 C608 1.384 . S
C610 C611 1.372 . S
C611 C610 1.372 . S
C611 C612 1.400 . S
C611 C616 1.490 . S
C612 H602 0.930 . S
C612 C611 1.400 . S
C612 C615 1.386 . S
H613 C629 0.930 . S
H614 C630 0.931 . S
C615 H603 0.929 . S
C615 C609 1.390 . S
C615 C612 1.386 . S
C616 C611 1.490 . S
C616 C618 1.395 . S
C616 C619 1.403 . S
H617 C623 0.930 . S
C618 H604 0.930 . S
C618 C616 1.395 . S
C618 C621 1.403 . S
C619 C616 1.403 . S
C619 C620 1.524 . S
C619 C623 1.400 . S
C620 H605 0.960 . S
C620 H606 0.960 . S
C620 H607 0.960 . S
C620 C619 1.524 . S
C621 C618 1.403 . S
C621 C622 1.392 . S
C621 C625 1.495 . S
C622 C621 1.392 . S
C622 C623 1.385 . S
C622 C624 1.478 . S
C623 H617 0.930 . S
C623 C619 1.400 . S
C623 C622 1.385 . S
C624 C622 1.478 . S
C624 C626 1.381 . S
C624 C630 1.383 . S
C625 C621 1.495 . S
C625 H631 0.959 . S
C625 H632 0.961 . S
C625 H633 0.960 . S
C626 C624 1.381 . S
C626 C627 1.394 . S
C626 H634 0.930 . S
C627 C626 1.394 . S
C627 C628 1.383 . S
C627 H635 0.929 . S
C628 C627 1.383 . S
C628 C629 1.377 . S
C629 H613 0.930 . S
C629 C628 1.377 . S
C629 C630 1.379 . S
C630 H614 0.931 . S
C630 C624 1.383 . S
C630 C629 1.379 . S
H631 C625 0.959 . S
H632 C625 0.961 . S
H633 C625 0.960 . S
H634 C626 0.930 . S
H635 C627 0.929 . S
H636 C644 0.929 . S
H637 C646 0.930 . S
H638 C648 0.930 . S
H639 C651 0.929 . S
H640 C654 0.930 . S
H641 C656 0.960 . S
H642 C656 0.960 . S
H643 C656 0.960 . S
C644 H636 0.929 . S
C644 C645 1.377 . S
C644 C646 1.384 . S
C645 C644 1.377 . S
C645 C651 1.390 . S
C646 H637 0.930 . S
C646 C644 1.384 . S
C646 C647 1.372 . S
C647 C646 1.372 . S
C647 C648 1.400 . S
C647 C652 1.490 . S
C648 H638 0.930 . S
C648 C647 1.400 . S
C648 C651 1.386 . S
H649 C665 0.930 . S
H650 C666 0.931 . S
C651 H639 0.929 . S
C651 C645 1.390 . S
C651 C648 1.386 . S
C652 C647 1.490 . S
C652 C654 1.395 . S
C652 C655 1.403 . S
H653 C659 0.930 . S
C654 H640 0.930 . S
C654 C652 1.395 . S
C654 C657 1.403 . S
C655 C652 1.403 . S
C655 C656 1.524 . S
C655 C659 1.400 . S
C656 H641 0.960 . S
C656 H642 0.960 . S
C656 H643 0.960 . S
C656 C655 1.524 . S
C657 C654 1.403 . S
C657 C658 1.392 . S
C657 C661 1.495 . S
C658 C657 1.392 . S
C658 C659 1.385 . S
C658 C660 1.478 . S
C659 H653 0.930 . S
C659 C655 1.400 . S
C659 C658 1.385 . S
C660 C658 1.478 . S
C660 C662 1.381 . S
C660 C666 1.383 . S
C661 C657 1.495 . S
C661 H667 0.959 . S
C661 H668 0.961 . S
C661 H669 0.960 . S
C662 C660 1.381 . S
C662 C663 1.394 . S
C662 H670 0.930 . S
C663 C662 1.394 . S
C663 C664 1.383 . S
C663 H671 0.929 . S
C664 C663 1.383 . S
C664 C665 1.377 . S
C665 H649 0.930 . S
C665 C664 1.377 . S
C665 C666 1.379 . S
C666 H650 0.931 . S
C666 C660 1.383 . S
C666 C665 1.379 . S
H667 C661 0.959 . S
H668 C661 0.961 . S
H669 C661 0.960 . S
H670 C662 0.930 . S
H671 C663 0.929 . S
H672 C680 0.929 . S
H673 C682 0.930 . S
H674 C684 0.930 . S
H675 C687 0.929 . S
H676 C690 0.930 . S
H677 C692 0.960 . S
H678 C692 0.960 . S
H679 C692 0.960 . S
C680 H672 0.929 . S
C680 C681 1.377 1_655 S
C680 C682 1.384 . S
C681 C680 1.377 1_455 S
C681 C687 1.390 . S
C682 H673 0.930 . S
C682 C680 1.384 . S
C682 C683 1.372 1_655 S
C683 C682 1.372 1_455 S
C683 C684 1.400 . S
C683 C688 1.490 . S
C684 H674 0.930 . S
C684 C683 1.400 . S
C684 C687 1.386 . S
H685 C701 0.930 . S
H686 C702 0.931 . S
C687 H675 0.929 . S
C687 C681 1.390 . S
C687 C684 1.386 . S
C688 C683 1.490 . S
C688 C690 1.395 1_455 S
C688 C691 1.403 . S
H689 C695 0.930 . S
C690 H676 0.930 . S
C690 C688 1.395 1_655 S
C690 C693 1.403 . S
C691 C688 1.403 . S
C691 C692 1.524 . S
C691 C695 1.400 . S
C692 H677 0.960 . S
C692 H678 0.960 . S
C692 H679 0.960 . S
C692 C691 1.524 . S
C693 C690 1.403 . S
C693 C694 1.392 1_655 S
C693 C697 1.495 . S
C694 C693 1.392 1_455 S
C694 C695 1.385 . S
C694 C696 1.478 . S
C695 H689 0.930 . S
C695 C691 1.400 . S
C695 C694 1.385 . S
C696 C694 1.478 . S
C696 C698 1.381 1_455 S
C696 C702 1.383 . S
C697 C693 1.495 . S
C697 H703 0.959 . S
C697 H704 0.961 . S
C697 H705 0.960 . S
C698 C696 1.381 1_655 S
C698 C699 1.394 . S
C698 H706 0.930 . S
C699 C698 1.394 . S
C699 C700 1.383 1_655 S
C699 H707 0.929 . S
C700 C699 1.383 1_455 S
C700 C701 1.377 . S
C701 H685 0.930 . S
C701 C700 1.377 . S
C701 C702 1.379 . S
C702 H686 0.931 . S
C702 C696 1.383 . S
C702 C701 1.379 . S
H703 C697 0.959 . S
H704 C697 0.961 . S
H705 C697 0.960 . S
H706 C698 0.930 . S
H707 C699 0.929 . S
H708 C716 0.929 . S
H709 C718 0.930 . S
H710 C720 0.930 . S
H711 C723 0.929 . S
H712 C726 0.930 . S
H713 C728 0.960 . S
H714 C728 0.960 . S
H715 C728 0.960 . S
C716 H708 0.929 . S
C716 C717 1.377 . S
C716 C718 1.384 . S
C717 C716 1.377 . S
C717 C723 1.390 . S
C718 H709 0.930 . S
C718 C716 1.384 . S
C718 C719 1.372 . S
C719 C718 1.372 . S
C719 C720 1.400 . S
C719 C724 1.490 . S
C720 H710 0.930 . S
C720 C719 1.400 . S
C720 C723 1.386 . S
H721 C737 0.930 . S
H722 C738 0.931 . S
C723 H711 0.929 . S
C723 C717 1.390 . S
C723 C720 1.386 . S
C724 C719 1.490 . S
C724 C726 1.395 . S
C724 C727 1.403 . S
H725 C731 0.930 . S
C726 H712 0.930 . S
C726 C724 1.395 . S
C726 C729 1.403 . S
C727 C724 1.403 . S
C727 C728 1.524 . S
C727 C731 1.400 . S
C728 H713 0.960 . S
C728 H714 0.960 . S
C728 H715 0.960 . S
C728 C727 1.524 . S
C729 C726 1.403 . S
C729 C730 1.392 . S
C729 C733 1.495 . S
C730 C729 1.392 . S
C730 C731 1.385 . S
C730 C732 1.478 . S
C731 H725 0.930 . S
C731 C727 1.400 . S
C731 C730 1.385 . S
C732 C730 1.478 . S
C732 C734 1.381 . S
C732 C738 1.383 . S
C733 C729 1.495 . S
C733 H739 0.959 . S
C733 H740 0.961 . S
C733 H741 0.960 . S
C734 C732 1.381 . S
C734 C735 1.394 . S
C734 H742 0.930 . S
C735 C734 1.394 . S
C735 C736 1.383 . S
C735 H743 0.929 . S
C736 C735 1.383 . S
C736 C737 1.377 . S
C737 H721 0.930 . S
C737 C736 1.377 . S
C737 C738 1.379 . S
C738 H722 0.931 . S
C738 C732 1.383 . S
C738 C737 1.379 . S
H739 C733 0.959 . S
H740 C733 0.961 . S
H741 C733 0.960 . S
H742 C734 0.930 . S
H743 C735 0.929 . S
H744 C752 0.929 . S
H745 C754 0.930 . S
H746 C756 0.930 . S
H747 C759 0.929 . S
H748 C762 0.930 . S
H749 C764 0.960 . S
H750 C764 0.960 . S
H751 C764 0.960 . S
C752 H744 0.929 . S
C752 C753 1.377 . S
C752 C754 1.384 . S
C753 C752 1.377 . S
C753 C759 1.390 . S
C754 H745 0.930 . S
C754 C752 1.384 . S
C754 C755 1.372 . S
C755 C754 1.372 . S
C755 C756 1.400 . S
C755 C760 1.490 . S
C756 H746 0.930 . S
C756 C755 1.400 . S
C756 C759 1.386 . S
H757 C773 0.930 . S
H758 C774 0.931 . S
C759 H747 0.929 . S
C759 C753 1.390 . S
C759 C756 1.386 . S
C760 C755 1.490 . S
C760 C762 1.395 . S
C760 C763 1.403 . S
H761 C767 0.930 . S
C762 H748 0.930 . S
C762 C760 1.395 . S
C762 C765 1.403 . S
C763 C760 1.403 . S
C763 C764 1.524 . S
C763 C767 1.400 . S
C764 H749 0.960 . S
C764 H750 0.960 . S
C764 H751 0.960 . S
C764 C763 1.524 . S
C765 C762 1.403 . S
C765 C766 1.392 . S
C765 C769 1.495 . S
C766 C765 1.392 . S
C766 C767 1.385 . S
C766 C768 1.478 . S
C767 H761 0.930 . S
C767 C763 1.400 . S
C767 C766 1.385 . S
C768 C766 1.478 . S
C768 C770 1.381 . S
C768 C774 1.383 . S
C769 C765 1.495 . S
C769 H775 0.959 . S
C769 H776 0.961 . S
C769 H777 0.960 . S
C770 C768 1.381 . S
C770 C771 1.394 . S
C770 H778 0.930 . S
C771 C770 1.394 . S
C771 C772 1.383 . S
C771 H779 0.929 . S
C772 C771 1.383 . S
C772 C773 1.377 . S
C773 H757 0.930 . S
C773 C772 1.377 . S
C773 C774 1.379 . S
C774 H758 0.931 . S
C774 C768 1.383 . S
C774 C773 1.379 . S
H775 C769 0.959 . S
H776 C769 0.961 . S
H777 C769 0.960 . S
H778 C770 0.930 . S
H779 C771 0.929 . S
H780 C788 0.929 . S
H781 C790 0.930 . S
H782 C792 0.930 . S
H783 C795 0.929 . S
H784 C798 0.930 . S
H785 C800 0.973 . S
H786 C800 0.960 . S
H787 C800 0.960 . S
C788 H780 0.929 . S
C788 C789 1.377 . S
C788 C790 1.384 . S
C789 C788 1.377 . S
C789 C795 1.390 . S
C790 H781 0.930 . S
C790 C788 1.384 . S
C790 C791 1.372 . S
C791 C790 1.372 . S
C791 C792 1.400 . S
C791 C796 1.490 . S
C792 H782 0.930 . S
C792 C791 1.400 . S
C792 C795 1.386 . S
H793 C809 0.930 . S
H794 C810 0.931 . S
C795 H783 0.929 . S
C795 C789 1.390 . S
C795 C792 1.386 . S
C796 C791 1.490 . S
C796 C798 1.395 . S
C796 C799 1.419 . S
H797 C803 0.930 . S
C798 H784 0.930 . S
C798 C796 1.395 . S
C798 C801 1.403 1_655 S
C799 C796 1.419 . S
C799 C800 1.538 . S
C799 C803 1.368 1_655 S
C800 H785 0.973 . S
C800 H786 0.960 . S
C800 H787 0.960 . S
C800 C799 1.538 . S
C801 C798 1.403 1_455 S
C801 C802 1.392 . S
C801 C805 1.495 . S
C802 C801 1.392 . S
C802 C803 1.385 . S
C802 C804 1.478 . S
C803 H797 0.930 . S
C803 C799 1.368 1_455 S
C803 C802 1.385 . S
C804 C802 1.478 . S
C804 C806 1.381 . S
C804 C810 1.383 . S
C805 C801 1.495 . S
C805 H811 0.959 . S
C805 H812 0.961 . S
C805 H813 0.960 . S
C806 C804 1.381 . S
C806 C807 1.394 . S
C806 H814 0.930 . S
C807 C806 1.394 . S
C807 C808 1.383 . S
C807 H815 0.929 . S
C808 C807 1.383 . S
C808 C809 1.377 . S
C809 H793 0.930 . S
C809 C808 1.377 . S
C809 C810 1.379 . S
C810 H794 0.931 . S
C810 C804 1.383 . S
C810 C809 1.379 . S
H811 C805 0.959 . S
H812 C805 0.961 . S
H813 C805 0.960 . S
H814 C806 0.930 . S
H815 C807 0.929 . S
H816 C824 0.929 1_655 S
H817 C826 0.925 1_655 S
H818 C828 0.930 . S
H819 C831 0.929 . S
H820 C834 0.930 . S
H821 C836 0.960 . S
H822 C836 0.960 . S
H823 C836 0.960 . S
C824 H816 0.929 1_455 S
C824 C825 1.377 . S
C824 C826 1.384 . S
C825 C824 1.377 . S
C825 C831 1.390 . S
C826 H817 0.925 1_455 S
C826 C824 1.384 . S
C826 C827 1.372 . S
C827 C826 1.372 . S
C827 C828 1.400 . S
C827 C832 1.490 . S
C828 H818 0.930 . S
C828 C827 1.400 . S
C828 C831 1.386 . S
H829 C845 0.930 . S
H830 C846 0.931 . S
C831 H819 0.929 . S
C831 C825 1.390 . S
C831 C828 1.386 . S
C832 C827 1.490 . S
C832 C834 1.395 . S
C832 C835 1.403 1_455 S
H833 C839 0.930 . S
C834 H820 0.930 . S
C834 C832 1.395 . S
C834 C837 1.403 1_554 S
C835 C832 1.403 1_655 S
C835 C836 1.524 . S
C835 C839 1.400 1_554 S
C836 H821 0.960 . S
C836 H822 0.960 . S
C836 H823 0.960 . S
C836 C835 1.524 . S
C837 C834 1.403 1_556 S
C837 C838 1.392 . S
C837 C841 1.495 . S
C838 C837 1.392 . S
C838 C839 1.385 1_455 S
C838 C840 1.478 . S
C839 H833 0.930 . S
C839 C835 1.400 1_556 S
C839 C838 1.385 1_655 S
C840 C838 1.478 . S
C840 C842 1.381 . S
C840 C846 1.383 . S
C841 C837 1.495 . S
C841 H847 0.959 . S
C841 H848 0.961 . S
C841 H849 0.960 . S
C842 C840 1.381 . S
C842 C843 1.394 . S
C842 H850 0.926 1_455 S
C843 C842 1.394 . S
C843 C844 1.383 . S
C843 H851 0.929 1_455 S
C844 C843 1.383 . S
C844 C845 1.377 . S
C845 H829 0.930 . S
C845 C844 1.377 . S
C845 C846 1.379 . S
C846 H830 0.931 . S
C846 C840 1.383 . S
C846 C845 1.379 . S
H847 C841 0.959 . S
H848 C841 0.961 . S
H849 C841 0.960 . S
H850 C842 0.926 1_655 S
H851 C843 0.929 1_655 S
H852 C860 0.929 . S
H853 C862 0.930 . S
H854 C864 0.930 . S
H855 C867 0.929 . S
H856 C870 0.930 . S
H857 C872 0.960 . S
H858 C872 0.960 . S
H859 C872 0.960 . S
C860 H852 0.929 . S
C860 C861 1.377 . S
C860 C862 1.384 . S
C861 C860 1.377 . S
C861 C867 1.390 . S
C862 H853 0.930 . S
C862 C860 1.384 . S
C862 C863 1.372 . S
C863 C862 1.372 . S
C863 C864 1.400 . S
C863 C868 1.490 . S
C864 H854 0.930 . S
C864 C863 1.400 . S
C864 C867 1.386 . S
H865 C881 0.930 . S
H866 C882 0.931 . S
C867 H855 0.929 . S
C867 C861 1.390 . S
C867 C864 1.386 . S
C868 C863 1.490 . S
C868 C870 1.395 . S
C868 C871 1.403 . S
H869 C875 0.930 . S
C870 H856 0.930 . S
C870 C868 1.395 . S
C870 C873 1.403 . S
C871 C868 1.403 . S
C871 C872 1.524 . S
C871 C875 1.400 . S
C872 H857 0.960 . S
C872 H858 0.960 . S
C872 H859 0.960 . S
C872 C871 1.524 . S
C873 C870 1.403 . S
C873 C874 1.392 . S
C873 C877 1.495 . S
C874 C873 1.392 . S
C874 C875 1.385 . S
C874 C876 1.478 . S
C875 H869 0.930 . S
C875 C871 1.400 . S
C875 C874 1.385 . S
C876 C874 1.478 . S
C876 C878 1.381 . S
C876 C882 1.383 . S
C877 C873 1.495 . S
C877 H883 0.959 . S
C877 H884 0.961 . S
C877 H885 0.960 . S
C878 C876 1.381 . S
C878 C879 1.394 . S
C878 H886 0.930 . S
C879 C878 1.394 . S
C879 C880 1.383 . S
C879 H887 0.929 . S
C880 C879 1.383 . S
C880 C881 1.377 . S
C881 H865 0.930 . S
C881 C880 1.377 . S
C881 C882 1.379 . S
C882 H866 0.931 . S
C882 C876 1.383 . S
C882 C881 1.379 . S
H883 C877 0.959 . S
H884 C877 0.961 . S
H885 C877 0.960 . S
H886 C878 0.930 . S
H887 C879 0.929 . S
H888 C896 0.929 . S
H889 C898 0.930 . S
H890 C900 0.930 . S
H891 C903 0.929 . S
H892 C906 0.930 . S
H893 C908 0.960 . S
H894 C908 0.960 . S
H895 C908 0.960 . S
C896 H888 0.929 . S
C896 C897 1.377 . S
C896 C898 1.384 . S
C897 C896 1.377 . S
C897 C903 1.390 . S
C898 H889 0.930 . S
C898 C896 1.384 . S
C898 C899 1.372 . S
C899 C898 1.372 . S
C899 C900 1.400 . S
C899 C904 1.490 . S
C900 H890 0.930 . S
C900 C899 1.400 . S
C900 C903 1.386 . S
H901 C917 0.930 . S
H902 C918 0.931 . S
C903 H891 0.929 . S
C903 C897 1.390 . S
C903 C900 1.386 . S
C904 C899 1.490 . S
C904 C906 1.395 . S
C904 C907 1.403 . S
H905 C911 0.930 . S
C906 H892 0.930 . S
C906 C904 1.395 . S
C906 C909 1.403 . S
C907 C904 1.403 . S
C907 C908 1.524 . S
C907 C911 1.400 . S
C908 H893 0.960 . S
C908 H894 0.960 . S
C908 H895 0.960 . S
C908 C907 1.524 . S
C909 C906 1.403 . S
C909 C910 1.392 . S
C909 C913 1.495 . S
C910 C909 1.392 . S
C910 C911 1.385 . S
C910 C912 1.478 . S
C911 H905 0.930 . S
C911 C907 1.400 . S
C911 C910 1.385 . S
C912 C910 1.478 . S
C912 C914 1.381 . S
C912 C918 1.383 . S
C913 C909 1.495 . S
C913 H919 0.959 . S
C913 H920 0.961 . S
C913 H921 0.960 . S
C914 C912 1.381 . S
C914 C915 1.394 . S
C914 H922 0.930 . S
C915 C914 1.394 . S
C915 C916 1.383 . S
C915 H923 0.929 . S
C916 C915 1.383 . S
C916 C917 1.377 . S
C917 H901 0.930 . S
C917 C916 1.377 . S
C917 C918 1.379 . S
C918 H902 0.931 . S
C918 C912 1.383 . S
C918 C917 1.379 . S
H919 C913 0.959 . S
H920 C913 0.961 . S
H921 C913 0.960 . S
H922 C914 0.930 . S
H923 C915 0.929 . S
H924 C932 0.929 . S
H925 C934 0.930 . S
H926 C936 0.930 . S
H927 C939 0.929 . S
H928 C942 0.930 . S
H929 C944 0.960 . S
H930 C944 0.960 . S
H931 C944 0.960 . S
C932 H924 0.929 . S
C932 C933 1.377 . S
C932 C934 1.384 . S
C933 C932 1.377 . S
C933 C939 1.390 . S
C934 H925 0.930 . S
C934 C932 1.384 . S
C934 C935 1.372 . S
C935 C934 1.372 . S
C935 C936 1.400 . S
C935 C940 1.490 . S
C936 H926 0.930 . S
C936 C935 1.400 . S
C936 C939 1.386 . S
H937 C953 0.930 . S
H938 C954 0.931 . S
C939 H927 0.929 . S
C939 C933 1.390 . S
C939 C936 1.386 . S
C940 C935 1.490 . S
C940 C942 1.395 . S
C940 C943 1.403 . S
H941 C947 0.930 . S
C942 H928 0.930 . S
C942 C940 1.395 . S
C942 C945 1.403 . S
C943 C940 1.403 . S
C943 C944 1.524 . S
C943 C947 1.400 . S
C944 H929 0.960 . S
C944 H930 0.960 . S
C944 H931 0.960 . S
C944 C943 1.524 . S
C945 C942 1.403 . S
C945 C946 1.392 . S
C945 C949 1.495 . S
C946 C945 1.392 . S
C946 C947 1.385 . S
C946 C948 1.478 . S
C947 H941 0.930 . S
C947 C943 1.400 . S
C947 C946 1.385 . S
C948 C946 1.478 . S
C948 C950 1.381 . S
C948 C954 1.383 . S
C949 C945 1.495 . S
C949 H955 0.959 . S
C949 H956 0.961 . S
C949 H957 0.960 . S
C950 C948 1.381 . S
C950 C951 1.394 . S
C950 H958 0.930 . S
C951 C950 1.394 . S
C951 C952 1.383 . S
C951 H959 0.929 . S
C952 C951 1.383 . S
C952 C953 1.377 . S
C953 H937 0.930 . S
C953 C952 1.377 . S
C953 C954 1.379 . S
C954 H938 0.931 . S
C954 C948 1.383 . S
C954 C953 1.379 . S
H955 C949 0.959 . S
H956 C949 0.961 . S
H957 C949 0.960 . S
H958 C950 0.930 . S
H959 C951 0.929 . S
H960 C968 0.929 . S
H961 C970 0.930 . S
H962 C972 0.930 . S
H963 C975 0.929 . S
H964 C978 0.930 . S
H965 C980 0.960 . S
H966 C980 0.960 . S
H967 C980 0.960 . S
C968 H960 0.929 . S
C968 C969 1.377 . S
C968 C970 1.384 . S
C969 C968 1.377 . S
C969 C975 1.390 . S
C970 H961 0.930 . S
C970 C968 1.384 . S
C970 C971 1.372 . S
C971 C970 1.372 . S
C971 C972 1.400 . S
C971 C976 1.490 . S
C972 H962 0.930 . S
C972 C971 1.400 . S
C972 C975 1.386 . S
H973 C989 0.930 . S
H974 C990 0.931 . S
C975 H963 0.929 . S
C975 C969 1.390 . S
C975 C972 1.386 . S
C976 C971 1.490 . S
C976 C978 1.395 . S
C976 C979 1.403 . S
H977 C983 0.930 . S
C978 H964 0.930 . S
C978 C976 1.395 . S
C978 C981 1.403 . S
C979 C976 1.403 . S
C979 C980 1.524 . S
C979 C983 1.400 . S
C980 H965 0.960 . S
C980 H966 0.960 . S
C980 H967 0.960 . S
C980 C979 1.524 . S
C981 C978 1.403 . S
C981 C982 1.392 . S
C981 C985 1.495 . S
C982 C981 1.392 . S
C982 C983 1.385 . S
C982 C984 1.478 . S
C983 H977 0.930 . S
C983 C979 1.400 . S
C983 C982 1.385 . S
C984 C982 1.478 . S
C984 C986 1.381 . S
C984 C990 1.383 . S
C985 C981 1.495 . S
C985 H991 0.959 . S
C985 H992 0.961 . S
C985 H993 0.960 . S
C986 C984 1.381 . S
C986 C987 1.394 . S
C986 H994 0.930 . S
C987 C986 1.394 . S
C987 C988 1.383 . S
C987 H995 0.929 . S
C988 C987 1.383 . S
C988 C989 1.377 . S
C989 H973 0.930 . S
C989 C988 1.377 . S
C989 C990 1.379 . S
C990 H974 0.931 . S
C990 C984 1.383 . S
C990 C989 1.379 . S
H991 C985 0.959 . S
H992 C985 0.961 . S
H993 C985 0.960 . S
H994 C986 0.930 . S
H995 C987 0.929 . S
H996 C1004 0.929 . S
H997 C1006 0.930 . S
H998 C1008 0.930 . S
H999 C1011 0.929 . S
H1000 C1014 0.930 . S
H1001 C1016 0.960 . S
H1002 C1016 0.960 . S
H1003 C1016 0.960 . S
C1004 H996 0.929 . S
C1004 C1005 1.377 . S
C1004 C1006 1.384 . S
C1005 C1004 1.377 . S
C1005 C1011 1.390 . S
C1006 H997 0.930 . S
C1006 C1004 1.384 . S
C1006 C1007 1.372 . S
C1007 C1006 1.372 . S
C1007 C1008 1.400 . S
C1007 C1012 1.490 . S
C1008 H998 0.930 . S
C1008 C1007 1.400 . S
C1008 C1011 1.386 . S
H1009 C1025 0.930 . S
H1010 C1026 0.931 . S
C1011 H999 0.929 . S
C1011 C1005 1.390 . S
C1011 C1008 1.386 . S
C1012 C1007 1.490 . S
C1012 C1014 1.395 . S
C1012 C1015 1.403 . S
H1013 C1019 0.930 . S
C1014 H1000 0.930 . S
C1014 C1012 1.395 . S
C1014 C1017 1.403 . S
C1015 C1012 1.403 . S
C1015 C1016 1.524 . S
C1015 C1019 1.400 . S
C1016 H1001 0.960 . S
C1016 H1002 0.960 . S
C1016 H1003 0.960 . S
C1016 C1015 1.524 . S
C1017 C1014 1.403 . S
C1017 C1018 1.392 . S
C1017 C1021 1.495 . S
C1018 C1017 1.392 . S
C1018 C1019 1.385 . S
C1018 C1020 1.478 . S
C1019 H1013 0.930 . S
C1019 C1015 1.400 . S
C1019 C1018 1.385 . S
C1020 C1018 1.478 . S
C1020 C1022 1.381 . S
C1020 C1026 1.383 . S
C1021 C1017 1.495 . S
C1021 H1027 0.959 . S
C1021 H1028 0.961 . S
C1021 H1029 0.960 . S
C1022 C1020 1.381 . S
C1022 C1023 1.394 . S
C1022 H1030 0.930 . S
C1023 C1022 1.394 . S
C1023 C1024 1.383 . S
C1023 H1031 0.929 . S
C1024 C1023 1.383 . S
C1024 C1025 1.377 . S
C1025 H1009 0.930 . S
C1025 C1024 1.377 . S
C1025 C1026 1.379 . S
C1026 H1010 0.931 . S
C1026 C1020 1.383 . S
C1026 C1025 1.379 . S
H1027 C1021 0.959 . S
H1028 C1021 0.961 . S
H1029 C1021 0.960 . S
H1030 C1022 0.930 . S
H1031 C1023 0.929 . S
H1032 C1040 0.929 . S
H1033 C1042 0.930 . S
H1034 C1044 0.930 . S
H1035 C1047 0.929 . S
H1036 C1050 0.930 . S
H1037 C1052 0.960 . S
H1038 C1052 0.960 . S
H1039 C1052 0.960 . S
C1040 H1032 0.929 . S
C1040 C1041 1.377 . S
C1040 C1042 1.384 . S
C1041 C1040 1.377 . S
C1041 C1047 1.390 . S
C1042 H1033 0.930 . S
C1042 C1040 1.384 . S
C1042 C1043 1.372 . S
C1043 C1042 1.372 . S
C1043 C1044 1.400 . S
C1043 C1048 1.490 . S
C1044 H1034 0.930 . S
C1044 C1043 1.400 . S
C1044 C1047 1.386 . S
H1045 C1061 0.930 . S
H1046 C1062 0.931 . S
C1047 H1035 0.929 . S
C1047 C1041 1.390 . S
C1047 C1044 1.386 . S
C1048 C1043 1.490 . S
C1048 C1050 1.395 . S
C1048 C1051 1.403 . S
H1049 C1055 0.930 . S
C1050 H1036 0.930 . S
C1050 C1048 1.395 . S
C1050 C1053 1.403 . S
C1051 C1048 1.403 . S
C1051 C1052 1.524 . S
C1051 C1055 1.400 . S
C1052 H1037 0.960 . S
C1052 H1038 0.960 . S
C1052 H1039 0.960 . S
C1052 C1051 1.524 . S
C1053 C1050 1.403 . S
C1053 C1054 1.392 . S
C1053 C1057 1.495 . S
C1054 C1053 1.392 . S
C1054 C1055 1.385 . S
C1054 C1056 1.478 . S
C1055 H1049 0.930 . S
C1055 C1051 1.400 . S
C1055 C1054 1.385 . S
C1056 C1054 1.478 . S
C1056 C1058 1.381 . S
C1056 C1062 1.383 . S
C1057 C1053 1.495 . S
C1057 H1063 0.959 . S
C1057 H1064 0.961 . S
C1057 H1065 0.960 . S
C1058 C1056 1.381 . S
C1058 C1059 1.394 . S
C1058 H1066 0.930 . S
C1059 C1058 1.394 . S
C1059 C1060 1.383 . S
C1059 H1067 0.929 . S
C1060 C1059 1.383 . S
C1060 C1061 1.377 . S
C1061 H1045 0.930 . S
C1061 C1060 1.377 . S
C1061 C1062 1.379 . S
C1062 H1046 0.931 . S
C1062 C1056 1.383 . S
C1062 C1061 1.379 . S
H1063 C1057 0.959 . S
H1064 C1057 0.961 . S
H1065 C1057 0.960 . S
H1066 C1058 0.930 . S
H1067 C1059 0.929 . S
H1068 C1076 0.929 . S
H1069 C1078 0.930 . S
H1070 C1080 0.930 . S
H1071 C1083 0.929 . S
H1072 C1086 0.930 . S
H1073 C1088 0.960 . S
H1074 C1088 0.960 . S
H1075 C1088 0.960 . S
C1076 H1068 0.929 . S
C1076 C1077 1.377 1_655 S
C1076 C1078 1.384 . S
C1077 C1076 1.377 1_455 S
C1077 C1083 1.390 . S
C1078 H1069 0.930 . S
C1078 C1076 1.384 . S
C1078 C1079 1.372 1_655 S
C1079 C1078 1.372 1_455 S
C1079 C1080 1.400 . S
C1079 C1084 1.490 . S
C1080 H1070 0.930 . S
C1080 C1079 1.400 . S
C1080 C1083 1.386 . S
H1081 C1097 0.930 . S
H1082 C1098 0.931 . S
C1083 H1071 0.929 . S
C1083 C1077 1.390 . S
C1083 C1080 1.386 . S
C1084 C1079 1.490 . S
C1084 C1086 1.395 . S
C1084 C1087 1.403 . S
H1085 C1091 0.930 . S
C1086 H1072 0.930 . S
C1086 C1084 1.395 . S
C1086 C1089 1.403 1_556 S
C1087 C1084 1.403 . S
C1087 C1088 1.524 . S
C1087 C1091 1.400 1_556 S
C1088 H1073 0.960 . S
C1088 H1074 0.960 . S
C1088 H1075 0.960 . S
C1088 C1087 1.524 . S
C1089 C1086 1.403 1_554 S
C1089 C1090 1.392 . S
C1089 C1093 1.495 . S
C1090 C1089 1.392 . S
C1090 C1091 1.385 . S
C1090 C1092 1.478 . S
C1091 H1085 0.930 . S
C1091 C1087 1.400 1_554 S
C1091 C1090 1.385 . S
C1092 C1090 1.478 . S
C1092 C1094 1.381 1_455 S
C1092 C1098 1.383 . S
C1093 C1089 1.495 . S
C1093 H1099 0.959 1_455 S
C1093 H1100 0.961 . S
C1093 H1101 0.960 1_455 S
C1094 C1092 1.381 1_655 S
C1094 C1095 1.394 . S
C1094 H1102 0.930 . S
C1095 C1094 1.394 . S
C1095 C1096 1.383 1_655 S
C1095 H1103 0.929 . S
C1096 C1095 1.383 1_455 S
C1096 C1097 1.377 . S
C1097 H1081 0.930 . S
C1097 C1096 1.377 . S
C1097 C1098 1.379 . S
C1098 H1082 0.931 . S
C1098 C1092 1.383 . S
C1098 C1097 1.379 . S
H1099 C1093 0.959 1_655 S
H1100 C1093 0.961 . S
H1101 C1093 0.960 1_655 S
H1102 C1094 0.930 . S
H1103 C1095 0.929 . S
H1104 C1112 0.929 . S
H1105 C1114 0.930 . S
H1106 C1116 0.930 . S
H1107 C1119 0.929 . S
H1108 C1122 0.930 . S
H1109 C1124 0.960 . S
H1110 C1124 0.960 . S
H1111 C1124 0.960 1_565 S
C1112 H1104 0.929 . S
C1112 C1113 1.377 . S
C1112 C1114 1.384 . S
C1113 C1112 1.377 . S
C1113 C1119 1.390 . S
C1114 H1105 0.930 . S
C1114 C1112 1.384 . S
C1114 C1115 1.372 . S
C1115 C1114 1.372 . S
C1115 C1116 1.400 . S
C1115 C1120 1.490 . S
C1116 H1106 0.930 . S
C1116 C1115 1.400 . S
C1116 C1119 1.386 . S
H1117 C1133 0.930 . S
H1118 C1134 0.931 . S
C1119 H1107 0.929 . S
C1119 C1113 1.390 . S
C1119 C1116 1.386 . S
C1120 C1115 1.490 . S
C1120 C1122 1.395 . S
C1120 C1123 1.403 . S
H1121 C1127 0.930 . S
C1122 H1108 0.930 . S
C1122 C1120 1.395 . S
C1122 C1125 1.403 . S
C1123 C1120 1.403 . S
C1123 C1124 1.524 1_565 S
C1123 C1127 1.400 1_565 S
C1124 H1109 0.960 . S
C1124 H1110 0.960 . S
C1124 H1111 0.960 1_545 S
C1124 C1123 1.524 1_545 S
C1125 C1122 1.403 . S
C1125 C1126 1.392 . S
C1125 C1129 1.495 . S
C1126 C1125 1.392 . S
C1126 C1127 1.385 1_565 S
C1126 C1128 1.478 1_565 S
C1127 H1121 0.930 . S
C1127 C1123 1.400 1_545 S
C1127 C1126 1.385 1_545 S
C1128 C1126 1.478 1_545 S
C1128 C1130 1.381 . S
C1128 C1134 1.383 . S
C1129 C1125 1.495 . S
C1129 H1135 0.959 . S
C1129 H1136 0.961 . S
C1129 H1137 0.960 . S
C1130 C1128 1.381 . S
C1130 C1131 1.394 . S
C1130 H1138 0.930 . S
C1131 C1130 1.394 . S
C1131 C1132 1.383 . S
C1131 H1139 0.929 . S
C1132 C1131 1.383 . S
C1132 C1133 1.377 . S
C1133 H1117 0.930 . S
C1133 C1132 1.377 . S
C1133 C1134 1.379 . S
C1134 H1118 0.931 . S
C1134 C1128 1.383 . S
C1134 C1133 1.379 . S
H1135 C1129 0.959 . S
H1136 C1129 0.961 . S
H1137 C1129 0.960 . S
H1138 C1130 0.930 . S
H1139 C1131 0.929 . S
H1140 C1148 0.929 . S
H1141 C1150 0.930 . S
H1142 C1152 0.930 . S
H1143 C1155 0.929 . S
H1144 C1158 0.930 . S
H1145 C1160 0.960 . S
H1146 C1160 0.960 . S
H1147 C1160 0.960 . S
C1148 H1140 0.929 . S
C1148 C1149 1.377 . S
C1148 C1150 1.384 . S
C1149 C1148 1.377 . S
C1149 C1155 1.390 . S
C1150 H1141 0.930 . S
C1150 C1148 1.384 . S
C1150 C1151 1.372 . S
C1151 C1150 1.372 . S
C1151 C1152 1.400 . S
C1151 C1156 1.490 . S
C1152 H1142 0.930 . S
C1152 C1151 1.400 . S
C1152 C1155 1.386 . S
H1153 C1169 0.930 . S
H1154 C1170 0.931 . S
C1155 H1143 0.929 . S
C1155 C1149 1.390 . S
C1155 C1152 1.386 . S
C1156 C1151 1.490 . S
C1156 C1158 1.395 . S
C1156 C1159 1.403 . S
H1157 C1163 0.930 . S
C1158 H1144 0.930 . S
C1158 C1156 1.395 . S
C1158 C1161 1.403 . S
C1159 C1156 1.403 . S
C1159 C1160 1.524 . S
C1159 C1163 1.400 . S
C1160 H1145 0.960 . S
C1160 H1146 0.960 . S
C1160 H1147 0.960 . S
C1160 C1159 1.524 . S
C1161 C1158 1.403 . S
C1161 C1162 1.392 . S
C1161 C1165 1.495 . S
C1162 C1161 1.392 . S
C1162 C1163 1.385 . S
C1162 C1164 1.478 1_565 S
C1163 H1157 0.930 . S
C1163 C1159 1.400 . S
C1163 C1162 1.385 . S
C1164 C1162 1.478 1_545 S
C1164 C1166 1.373 1_545 S
C1164 C1170 1.383 . S
C1165 C1161 1.495 . S
C1165 H1171 0.959 . S
C1165 H1172 0.961 1_565 S
C1165 H1173 0.960 . S
C1166 C1164 1.373 1_565 S
C1166 C1167 1.381 1_565 S
C1166 H1174 0.953 . S
C1167 C1166 1.381 1_545 S
C1167 C1168 1.383 . S
C1167 H1175 0.929 . S
C1168 C1167 1.383 . S
C1168 C1169 1.377 . S
C1169 H1153 0.930 . S
C1169 C1168 1.377 . S
C1169 C1170 1.379 . S
C1170 H1154 0.931 . S
C1170 C1164 1.383 . S
C1170 C1169 1.379 . S
H1171 C1165 0.959 . S
H1172 C1165 0.961 1_545 S
H1173 C1165 0.960 . S
H1174 C1166 0.953 . S
H1175 C1167 0.929 . S
H1176 C1184 0.929 . S
H1177 C1186 0.930 . S
H1178 C1188 0.930 . S
H1179 C1191 0.929 . S
H1180 C1194 0.930 . S
H1181 C1196 0.960 . S
H1182 C1196 0.960 . S
H1183 C1196 0.960 . S
C1184 H1176 0.929 . S
C1184 C1185 1.377 . S
C1184 C1186 1.384 . S
C1185 C1184 1.377 . S
C1185 C1191 1.390 . S
C1186 H1177 0.930 . S
C1186 C1184 1.384 . S
C1186 C1187 1.372 . S
C1187 C1186 1.372 . S
C1187 C1188 1.400 . S
C1187 C1192 1.490 . S
C1188 H1178 0.930 . S
C1188 C1187 1.400 . S
C1188 C1191 1.386 . S
H1189 C1205 0.930 . S
H1190 C1206 0.931 . S
C1191 H1179 0.929 . S
C1191 C1185 1.390 . S
C1191 C1188 1.386 . S
C1192 C1187 1.490 . S
C1192 C1194 1.395 . S
C1192 C1195 1.403 . S
H1193 C1199 0.930 . S
C1194 H1180 0.930 . S
C1194 C1192 1.395 . S
C1194 C1197 1.403 . S
C1195 C1192 1.403 . S
C1195 C1196 1.524 . S
C1195 C1199 1.400 . S
C1196 H1181 0.960 . S
C1196 H1182 0.960 . S
C1196 H1183 0.960 . S
C1196 C1195 1.524 . S
C1197 C1194 1.403 . S
C1197 C1198 1.392 . S
C1197 C1201 1.495 . S
C1198 C1197 1.392 . S
C1198 C1199 1.385 . S
C1198 C1200 1.478 . S
C1199 H1193 0.930 . S
C1199 C1195 1.400 . S
C1199 C1198 1.385 . S
C1200 C1198 1.478 . S
C1200 C1202 1.381 . S
C1200 C1206 1.383 . S
C1201 C1197 1.495 . S
C1201 H1207 0.959 . S
C1201 H1208 0.961 . S
C1201 H1209 0.960 . S
C1202 C1200 1.381 . S
C1202 C1203 1.394 . S
C1202 H1210 0.930 . S
C1203 C1202 1.394 . S
C1203 C1204 1.383 . S
C1203 H1211 0.929 . S
C1204 C1203 1.383 . S
C1204 C1205 1.377 . S
C1205 H1189 0.930 . S
C1205 C1204 1.377 . S
C1205 C1206 1.379 . S
C1206 H1190 0.931 . S
C1206 C1200 1.383 . S
C1206 C1205 1.379 . S
H1207 C1201 0.959 . S
H1208 C1201 0.961 . S
H1209 C1201 0.960 . S
H1210 C1202 0.930 . S
H1211 C1203 0.929 . S
H1212 C1220 0.929 . S
H1213 C1222 0.930 . S
H1214 C1224 0.930 . S
H1215 C1227 0.929 . S
H1216 C1230 0.930 . S
H1217 C1232 0.960 . S
H1218 C1232 0.960 . S
H1219 C1232 0.960 . S
C1220 H1212 0.929 . S
C1220 C1221 1.377 . S
C1220 C1222 1.384 . S
C1221 C1220 1.377 . S
C1221 C1227 1.390 . S
C1222 H1213 0.930 . S
C1222 C1220 1.384 . S
C1222 C1223 1.372 . S
C1223 C1222 1.372 . S
C1223 C1224 1.400 . S
C1223 C1228 1.490 . S
C1224 H1214 0.930 . S
C1224 C1223 1.400 . S
C1224 C1227 1.386 . S
H1225 C1241 0.930 . S
H1226 C1242 0.931 . S
C1227 H1215 0.929 . S
C1227 C1221 1.390 . S
C1227 C1224 1.386 . S
C1228 C1223 1.490 . S
C1228 C1230 1.395 . S
C1228 C1231 1.403 . S
H1229 C1235 0.930 . S
C1230 H1216 0.930 . S
C1230 C1228 1.395 . S
C1230 C1233 1.403 . S
C1231 C1228 1.403 . S
C1231 C1232 1.524 . S
C1231 C1235 1.400 . S
C1232 H1217 0.960 . S
C1232 H1218 0.960 . S
C1232 H1219 0.960 . S
C1232 C1231 1.524 . S
C1233 C1230 1.403 . S
C1233 C1234 1.392 . S
C1233 C1237 1.495 . S
C1234 C1233 1.392 . S
C1234 C1235 1.385 . S
C1234 C1236 1.478 . S
C1235 H1229 0.930 . S
C1235 C1231 1.400 . S
C1235 C1234 1.385 . S
C1236 C1234 1.478 . S
C1236 C1238 1.381 . S
C1236 C1242 1.383 . S
C1237 C1233 1.495 . S
C1237 H1243 0.959 . S
C1237 H1244 0.961 . S
C1237 H1245 0.960 . S
C1238 C1236 1.381 . S
C1238 C1239 1.394 . S
C1238 H1246 0.930 . S
C1239 C1238 1.394 . S
C1239 C1240 1.383 . S
C1239 H1247 0.929 . S
C1240 C1239 1.383 . S
C1240 C1241 1.377 . S
C1241 H1225 0.930 . S
C1241 C1240 1.377 . S
C1241 C1242 1.379 . S
C1242 H1226 0.931 . S
C1242 C1236 1.383 . S
C1242 C1241 1.379 . S
H1243 C1237 0.959 . S
H1244 C1237 0.961 . S
H1245 C1237 0.960 . S
H1246 C1238 0.930 . S
H1247 C1239 0.929 . S
H1248 C1256 0.929 . S
H1249 C1258 0.930 . S
H1250 C1260 0.930 . S
H1251 C1263 0.929 . S
H1252 C1266 0.930 . S
H1253 C1268 0.960 . S
H1254 C1268 0.960 . S
H1255 C1268 0.960 . S
C1256 H1248 0.929 . S
C1256 C1257 1.377 . S
C1256 C1258 1.384 . S
C1257 C1256 1.377 . S
C1257 C1263 1.390 . S
C1258 H1249 0.930 . S
C1258 C1256 1.384 . S
C1258 C1259 1.372 . S
C1259 C1258 1.372 . S
C1259 C1260 1.400 . S
C1259 C1264 1.490 . S
C1260 H1250 0.930 . S
C1260 C1259 1.400 . S
C1260 C1263 1.386 . S
H1261 C1277 0.930 . S
H1262 C1278 0.931 . S
C1263 H1251 0.929 . S
C1263 C1257 1.390 . S
C1263 C1260 1.386 . S
C1264 C1259 1.490 . S
C1264 C1266 1.395 . S
C1264 C1267 1.403 . S
H1265 C1271 0.930 . S
C1266 H1252 0.930 . S
C1266 C1264 1.395 . S
C1266 C1269 1.403 . S
C1267 C1264 1.403 . S
C1267 C1268 1.524 . S
C1267 C1271 1.400 . S
C1268 H1253 0.960 . S
C1268 H1254 0.960 . S
C1268 H1255 0.960 . S
C1268 C1267 1.524 . S
C1269 C1266 1.403 . S
C1269 C1270 1.392 . S
C1269 C1273 1.495 . S
C1270 C1269 1.392 . S
C1270 C1271 1.385 . S
C1270 C1272 1.478 . S
C1271 H1265 0.930 . S
C1271 C1267 1.400 . S
C1271 C1270 1.385 . S
C1272 C1270 1.478 . S
C1272 C1274 1.381 . S
C1272 C1278 1.383 . S
C1273 C1269 1.495 . S
C1273 H1279 0.959 . S
C1273 H1280 0.961 . S
C1273 H1281 0.960 . S
C1274 C1272 1.381 . S
C1274 C1275 1.394 . S
C1274 H1282 0.930 . S
C1275 C1274 1.394 . S
C1275 C1276 1.383 . S
C1275 H1283 0.929 . S
C1276 C1275 1.383 . S
C1276 C1277 1.377 . S
C1277 H1261 0.930 . S
C1277 C1276 1.377 . S
C1277 C1278 1.379 . S
C1278 H1262 0.931 . S
C1278 C1272 1.383 . S
C1278 C1277 1.379 . S
H1279 C1273 0.959 . S
H1280 C1273 0.961 . S
H1281 C1273 0.960 . S
H1282 C1274 0.930 . S
H1283 C1275 0.929 . S
H1284 C1292 0.929 . S
H1285 C1294 0.930 . S
H1286 C1296 0.930 . S
H1287 C1299 0.929 . S
H1288 C1302 0.930 . S
H1289 C1304 0.960 . S
H1290 C1304 0.960 . S
H1291 C1304 0.960 . S
C1292 H1284 0.929 . S
C1292 C1293 1.377 . S
C1292 C1294 1.384 . S
C1293 C1292 1.377 . S
C1293 C1299 1.390 . S
C1294 H1285 0.930 . S
C1294 C1292 1.384 . S
C1294 C1295 1.372 . S
C1295 C1294 1.372 . S
C1295 C1296 1.400 . S
C1295 C1300 1.490 . S
C1296 H1286 0.930 . S
C1296 C1295 1.400 . S
C1296 C1299 1.386 . S
H1297 C1313 0.930 . S
H1298 C1314 0.931 . S
C1299 H1287 0.929 . S
C1299 C1293 1.390 . S
C1299 C1296 1.386 . S
C1300 C1295 1.490 . S
C1300 C1302 1.395 . S
C1300 C1303 1.403 . S
H1301 C1307 0.930 . S
C1302 H1288 0.930 . S
C1302 C1300 1.395 . S
C1302 C1305 1.403 . S
C1303 C1300 1.403 . S
C1303 C1304 1.524 . S
C1303 C1307 1.400 . S
C1304 H1289 0.960 . S
C1304 H1290 0.960 . S
C1304 H1291 0.960 . S
C1304 C1303 1.524 . S
C1305 C1302 1.403 . S
C1305 C1306 1.392 . S
C1305 C1309 1.495 . S
C1306 C1305 1.392 . S
C1306 C1307 1.385 . S
C1306 C1308 1.478 . S
C1307 H1301 0.930 . S
C1307 C1303 1.400 . S
C1307 C1306 1.385 . S
C1308 C1306 1.478 . S
C1308 C1310 1.381 . S
C1308 C1314 1.383 . S
C1309 C1305 1.495 . S
C1309 H1315 0.959 . S
C1309 H1316 0.961 . S
C1309 H1317 0.960 . S
C1310 C1308 1.381 . S
C1310 C1311 1.394 . S
C1310 H1318 0.930 . S
C1311 C1310 1.394 . S
C1311 C1312 1.383 . S
C1311 H1319 0.929 . S
C1312 C1311 1.383 . S
C1312 C1313 1.377 . S
C1313 H1297 0.930 . S
C1313 C1312 1.377 . S
C1313 C1314 1.379 . S
C1314 H1298 0.931 . S
C1314 C1308 1.383 . S
C1314 C1313 1.379 . S
H1315 C1309 0.959 . S
H1316 C1309 0.961 . S
H1317 C1309 0.960 . S
H1318 C1310 0.930 . S
H1319 C1311 0.929 . S
H1320 C1328 0.929 . S
H1321 C1330 0.930 . S
H1322 C1332 0.930 . S
H1323 C1335 0.929 . S
H1324 C1338 0.930 . S
H1325 C1340 0.960 . S
H1326 C1340 0.960 . S
H1327 C1340 0.960 . S
C1328 H1320 0.929 . S
C1328 C1329 1.377 . S
C1328 C1330 1.384 . S
C1329 C1328 1.377 . S
C1329 C1335 1.390 . S
C1330 H1321 0.930 . S
C1330 C1328 1.384 . S
C1330 C1331 1.372 . S
C1331 C1330 1.372 . S
C1331 C1332 1.400 . S
C1331 C1336 1.490 . S
C1332 H1322 0.930 . S
C1332 C1331 1.400 . S
C1332 C1335 1.386 . S
H1333 C1349 0.930 . S
H1334 C1350 0.931 . S
C1335 H1323 0.929 . S
C1335 C1329 1.390 . S
C1335 C1332 1.386 . S
C1336 C1331 1.490 . S
C1336 C1338 1.395 . S
C1336 C1339 1.403 1_565 S
H1337 C1343 0.930 . S
C1338 H1324 0.930 . S
C1338 C1336 1.395 . S
C1338 C1341 1.403 . S
C1339 C1336 1.403 1_545 S
C1339 C1340 1.524 . S
C1339 C1343 1.400 . S
C1340 H1325 0.960 . S
C1340 H1326 0.960 . S
C1340 H1327 0.960 . S
C1340 C1339 1.524 . S
C1341 C1338 1.403 . S
C1341 C1342 1.392 1_565 S
C1341 C1345 1.495 . S
C1342 C1341 1.392 1_545 S
C1342 C1343 1.385 . S
C1342 C1344 1.478 . S
C1343 H1337 0.930 . S
C1343 C1339 1.400 . S
C1343 C1342 1.385 . S
C1344 C1342 1.478 . S
C1344 C1346 1.381 . S
C1344 C1350 1.383 . S
C1345 C1341 1.495 . S
C1345 H1351 0.959 . S
C1345 H1352 0.961 . S
C1345 H1353 0.960 . S
C1346 C1344 1.381 . S
C1346 C1347 1.394 . S
C1346 H1354 0.930 . S
C1347 C1346 1.394 . S
C1347 C1348 1.383 . S
C1347 H1355 0.929 . S
C1348 C1347 1.383 . S
C1348 C1349 1.377 . S
C1349 H1333 0.930 . S
C1349 C1348 1.377 . S
C1349 C1350 1.379 . S
C1350 H1334 0.931 . S
C1350 C1344 1.383 . S
C1350 C1349 1.379 . S
H1351 C1345 0.959 . S
H1352 C1345 0.961 . S
H1353 C1345 0.960 . S
H1354 C1346 0.930 . S
H1355 C1347 0.929 . S
H1356 C1364 0.929 . S
H1357 C1366 0.930 . S
H1358 C1368 0.930 . S
H1359 C1371 0.929 . S
H1360 C1374 0.930 . S
H1361 C1376 0.960 . S
H1362 C1376 0.960 . S
H1363 C1376 0.960 . S
C1364 H1356 0.929 . S
C1364 C1365 1.377 . S
C1364 C1366 1.384 . S
C1365 C1364 1.377 . S
C1365 C1371 1.390 . S
C1366 H1357 0.930 . S
C1366 C1364 1.384 . S
C1366 C1367 1.372 . S
C1367 C1366 1.372 . S
C1367 C1368 1.400 . S
C1367 C1372 1.490 . S
C1368 H1358 0.930 . S
C1368 C1367 1.400 . S
C1368 C1371 1.386 . S
H1369 C1385 0.930 . S
H1370 C1386 0.931 . S
C1371 H1359 0.929 . S
C1371 C1365 1.390 . S
C1371 C1368 1.386 . S
C1372 C1367 1.490 . S
C1372 C1374 1.395 . S
C1372 C1375 1.403 1_565 S
H1373 C1379 0.930 . S
C1374 H1360 0.930 . S
C1374 C1372 1.395 . S
C1374 C1377 1.403 . S
C1375 C1372 1.403 1_545 S
C1375 C1376 1.524 . S
C1375 C1379 1.400 . S
C1376 H1361 0.960 . S
C1376 H1362 0.960 . S
C1376 H1363 0.960 . S
C1376 C1375 1.524 . S
C1377 C1374 1.403 . S
C1377 C1378 1.392 1_565 S
C1377 C1381 1.495 . S
C1378 C1377 1.392 1_545 S
C1378 C1379 1.385 . S
C1378 C1380 1.478 . S
C1379 H1373 0.930 . S
C1379 C1375 1.400 . S
C1379 C1378 1.385 . S
C1380 C1378 1.478 . S
C1380 C1382 1.381 . S
C1380 C1386 1.383 . S
C1381 C1377 1.495 . S
C1381 H1387 0.959 . S
C1381 H1388 0.961 . S
C1381 H1389 0.960 . S
C1382 C1380 1.381 . S
C1382 C1383 1.394 . S
C1382 H1390 0.930 . S
C1383 C1382 1.394 . S
C1383 C1384 1.383 . S
C1383 H1391 0.929 . S
C1384 C1383 1.383 . S
C1384 C1385 1.377 . S
C1385 H1369 0.930 . S
C1385 C1384 1.377 . S
C1385 C1386 1.379 . S
C1386 H1370 0.931 . S
C1386 C1380 1.383 . S
C1386 C1385 1.379 . S
H1387 C1381 0.959 . S
H1388 C1381 0.961 . S
H1389 C1381 0.960 . S
H1390 C1382 0.930 . S
H1391 C1383 0.929 . S
H1392 C1400 0.929 . S
H1393 C1402 0.930 . S
H1394 C1404 0.930 . S
H1395 C1407 0.929 . S
H1396 C1410 0.930 . S
H1397 C1412 0.960 . S
H1398 C1412 0.960 . S
H1399 C1412 0.960 . S
C1400 H1392 0.929 . S
C1400 C1401 1.377 . S
C1400 C1402 1.384 . S
C1401 C1400 1.377 . S
C1401 C1407 1.390 . S
C1402 H1393 0.930 . S
C1402 C1400 1.384 . S
C1402 C1403 1.372 . S
C1403 C1402 1.372 . S
C1403 C1404 1.400 . S
C1403 C1408 1.490 . S
C1404 H1394 0.930 . S
C1404 C1403 1.400 . S
C1404 C1407 1.386 . S
H1405 C1421 0.930 . S
H1406 C1422 0.931 . S
C1407 H1395 0.929 . S
C1407 C1401 1.390 . S
C1407 C1404 1.386 . S
C1408 C1403 1.490 . S
C1408 C1410 1.395 . S
C1408 C1411 1.403 . S
H1409 C1415 0.930 . S
C1410 H1396 0.930 . S
C1410 C1408 1.395 . S
C1410 C1413 1.403 . S
C1411 C1408 1.403 . S
C1411 C1412 1.524 . S
C1411 C1415 1.400 . S
C1412 H1397 0.960 . S
C1412 H1398 0.960 . S
C1412 H1399 0.960 . S
C1412 C1411 1.524 . S
C1413 C1410 1.403 . S
C1413 C1414 1.392 . S
C1413 C1417 1.495 . S
C1414 C1413 1.392 . S
C1414 C1415 1.385 . S
C1414 C1416 1.478 . S
C1415 H1409 0.930 . S
C1415 C1411 1.400 . S
C1415 C1414 1.385 . S
C1416 C1414 1.478 . S
C1416 C1418 1.381 . S
C1416 C1422 1.383 . S
C1417 C1413 1.495 . S
C1417 H1423 0.959 . S
C1417 H1424 0.961 . S
C1417 H1425 0.960 . S
C1418 C1416 1.381 . S
C1418 C1419 1.394 . S
C1418 H1426 0.930 . S
C1419 C1418 1.394 . S
C1419 C1420 1.383 . S
C1419 H1427 0.929 . S
C1420 C1419 1.383 . S
C1420 C1421 1.377 . S
C1421 H1405 0.930 . S
C1421 C1420 1.377 . S
C1421 C1422 1.379 . S
C1422 H1406 0.931 . S
C1422 C1416 1.383 . S
C1422 C1421 1.379 . S
H1423 C1417 0.959 . S
H1424 C1417 0.961 . S
H1425 C1417 0.960 . S
H1426 C1418 0.930 . S
H1427 C1419 0.929 . S
H1428 C1436 0.929 . S
H1429 C1438 0.930 . S
H1430 C1440 0.930 . S
H1431 C1443 0.929 . S
H1432 C1446 0.930 . S
H1433 C1448 0.960 . S
H1434 C1448 0.960 . S
H1435 C1448 0.960 . S
C1436 H1428 0.929 . S
C1436 C1437 1.377 . S
C1436 C1438 1.384 . S
C1437 C1436 1.377 . S
C1437 C1443 1.390 . S
C1438 H1429 0.930 . S
C1438 C1436 1.384 . S
C1438 C1439 1.372 . S
C1439 C1438 1.372 . S
C1439 C1440 1.400 . S
C1439 C1444 1.490 . S
C1440 H1430 0.930 . S
C1440 C1439 1.400 . S
C1440 C1443 1.386 . S
H1441 C1457 0.930 . S
H1442 C1458 0.931 . S
C1443 H1431 0.929 . S
C1443 C1437 1.390 . S
C1443 C1440 1.386 . S
C1444 C1439 1.490 . S
C1444 C1446 1.395 . S
C1444 C1447 1.403 . S
H1445 C1451 0.930 . S
C1446 H1432 0.930 . S
C1446 C1444 1.395 . S
C1446 C1449 1.403 . S
C1447 C1444 1.403 . S
C1447 C1448 1.524 . S
C1447 C1451 1.400 . S
C1448 H1433 0.960 . S
C1448 H1434 0.960 . S
C1448 H1435 0.960 . S
C1448 C1447 1.524 . S
C1449 C1446 1.403 . S
C1449 C1450 1.392 . S
C1449 C1453 1.495 . S
C1450 C1449 1.392 . S
C1450 C1451 1.385 . S
C1450 C1452 1.478 . S
C1451 H1445 0.930 . S
C1451 C1447 1.400 . S
C1451 C1450 1.385 . S
C1452 C1450 1.478 . S
C1452 C1454 1.381 . S
C1452 C1458 1.383 . S
C1453 C1449 1.495 . S
C1453 H1459 0.959 . S
C1453 H1460 0.961 . S
C1453 H1461 0.960 . S
C1454 C1452 1.381 . S
C1454 C1455 1.394 . S
C1454 H1462 0.930 . S
C1455 C1454 1.394 . S
C1455 C1456 1.383 . S
C1455 H1463 0.929 . S
C1456 C1455 1.383 . S
C1456 C1457 1.377 . S
C1457 H1441 0.930 . S
C1457 C1456 1.377 . S
C1457 C1458 1.379 . S
C1458 H1442 0.931 . S
C1458 C1452 1.383 . S
C1458 C1457 1.379 . S
H1459 C1453 0.959 . S
H1460 C1453 0.961 . S
H1461 C1453 0.960 . S
H1462 C1454 0.930 . S
H1463 C1455 0.929 . S
H1464 C1472 0.929 . S
H1465 C1474 0.930 . S
H1466 C1476 0.930 . S
H1467 C1479 0.929 . S
H1468 C1482 0.930 . S
H1469 C1484 0.960 . S
H1470 C1484 0.960 . S
H1471 C1484 0.960 . S
C1472 H1464 0.929 . S
C1472 C1473 1.377 . S
C1472 C1474 1.384 . S
C1473 C1472 1.377 . S
C1473 C1479 1.390 . S
C1474 H1465 0.930 . S
C1474 C1472 1.384 . S
C1474 C1475 1.372 . S
C1475 C1474 1.372 . S
C1475 C1476 1.400 . S
C1475 C1480 1.490 . S
C1476 H1466 0.930 . S
C1476 C1475 1.400 . S
C1476 C1479 1.386 . S
H1477 C1493 0.930 . S
H1478 C1494 0.931 . S
C1479 H1467 0.929 . S
C1479 C1473 1.390 . S
C1479 C1476 1.386 . S
C1480 C1475 1.490 . S
C1480 C1482 1.395 . S
C1480 C1483 1.403 . S
H1481 C1487 0.930 . S
C1482 H1468 0.930 . S
C1482 C1480 1.395 . S
C1482 C1485 1.403 . S
C1483 C1480 1.403 . S
C1483 C1484 1.524 . S
C1483 C1487 1.400 . S
C1484 H1469 0.960 . S
C1484 H1470 0.960 . S
C1484 H1471 0.960 . S
C1484 C1483 1.524 . S
C1485 C1482 1.403 . S
C1485 C1486 1.392 . S
C1485 C1489 1.495 . S
C1486 C1485 1.392 . S
C1486 C1487 1.385 . S
C1486 C1488 1.478 . S
C1487 H1481 0.930 . S
C1487 C1483 1.400 . S
C1487 C1486 1.385 . S
C1488 C1486 1.478 . S
C1488 C1490 1.381 . S
C1488 C1494 1.383 . S
C1489 C1485 1.495 . S
C1489 H1495 0.959 . S
C1489 H1496 0.961 . S
C1489 H1497 0.960 . S
C1490 C1488 1.381 . S
C1490 C1491 1.394 . S
C1490 H1498 0.930 . S
C1491 C1490 1.394 . S
C1491 C1492 1.383 . S
C1491 H1499 0.929 . S
C1492 C1491 1.383 . S
C1492 C1493 1.377 . S
C1493 H1477 0.930 . S
C1493 C1492 1.377 . S
C1493 C1494 1.379 . S
C1494 H1478 0.931 . S
C1494 C1488 1.383 . S
C1494 C1493 1.379 . S
H1495 C1489 0.959 . S
H1496 C1489 0.961 . S
H1497 C1489 0.960 . S
H1498 C1490 0.930 . S
H1499 C1491 0.929 . S
H1500 C1508 0.929 . S
H1501 C1510 0.930 . S
H1502 C1512 0.930 . S
H1503 C1515 0.929 . S
H1504 C1518 0.930 . S
H1505 C1520 0.960 . S
H1506 C1520 0.960 . S
H1507 C1520 0.960 . S
C1508 H1500 0.929 . S
C1508 C1509 1.377 . S
C1508 C1510 1.384 . S
C1509 C1508 1.377 . S
C1509 C1515 1.390 . S
C1510 H1501 0.930 . S
C1510 C1508 1.384 . S
C1510 C1511 1.372 . S
C1511 C1510 1.372 . S
C1511 C1512 1.400 . S
C1511 C1516 1.490 . S
C1512 H1502 0.930 . S
C1512 C1511 1.400 . S
C1512 C1515 1.386 . S
H1513 C1529 0.930 . S
H1514 C1530 0.931 . S
C1515 H1503 0.929 . S
C1515 C1509 1.390 . S
C1515 C1512 1.386 . S
C1516 C1511 1.490 . S
C1516 C1518 1.395 . S
C1516 C1519 1.403 . S
H1517 C1523 0.930 . S
C1518 H1504 0.930 . S
C1518 C1516 1.395 . S
C1518 C1521 1.403 . S
C1519 C1516 1.403 . S
C1519 C1520 1.524 . S
C1519 C1523 1.400 . S
C1520 H1505 0.960 . S
C1520 H1506 0.960 . S
C1520 H1507 0.960 . S
C1520 C1519 1.524 . S
C1521 C1518 1.403 . S
C1521 C1522 1.392 . S
C1521 C1525 1.495 . S
C1522 C1521 1.392 . S
C1522 C1523 1.385 . S
C1522 C1524 1.478 . S
C1523 H1517 0.930 . S
C1523 C1519 1.400 . S
C1523 C1522 1.385 . S
C1524 C1522 1.478 . S
C1524 C1526 1.381 . S
C1524 C1530 1.383 . S
C1525 C1521 1.495 . S
C1525 H1531 0.959 . S
C1525 H1532 0.961 . S
C1525 H1533 0.960 . S
C1526 C1524 1.381 . S
C1526 C1527 1.394 . S
C1526 H1534 0.930 . S
C1527 C1526 1.394 . S
C1527 C1528 1.383 . S
C1527 H1535 0.929 . S
C1528 C1527 1.383 . S
C1528 C1529 1.377 . S
C1529 H1513 0.930 . S
C1529 C1528 1.377 . S
C1529 C1530 1.379 . S
C1530 H1514 0.931 . S
C1530 C1524 1.383 . S
C1530 C1529 1.379 . S
H1531 C1525 0.959 . S
H1532 C1525 0.961 . S
H1533 C1525 0.960 . S
H1534 C1526 0.930 . S
H1535 C1527 0.929 . S
H1536 C1544 0.929 . S
H1537 C1546 0.930 . S
H1538 C1548 0.930 . S
H1539 C1551 0.929 . S
H1540 C1554 0.930 . S
H1541 C1556 0.960 . S
H1542 C1556 0.960 . S
H1543 C1556 0.960 . S
C1544 H1536 0.929 . S
C1544 C1545 1.377 . S
C1544 C1546 1.384 . S
C1545 C1544 1.377 . S
C1545 C1551 1.390 . S
C1546 H1537 0.930 . S
C1546 C1544 1.384 . S
C1546 C1547 1.372 . S
C1547 C1546 1.372 . S
C1547 C1548 1.400 . S
C1547 C1552 1.490 . S
C1548 H1538 0.930 . S
C1548 C1547 1.400 . S
C1548 C1551 1.386 . S
H1549 C1565 0.930 . S
H1550 C1566 0.931 . S
C1551 H1539 0.929 . S
C1551 C1545 1.390 . S
C1551 C1548 1.386 . S
C1552 C1547 1.490 . S
C1552 C1554 1.395 . S
C1552 C1555 1.403 . S
H1553 C1559 0.930 . S
C1554 H1540 0.930 . S
C1554 C1552 1.395 . S
C1554 C1557 1.403 . S
C1555 C1552 1.403 . S
C1555 C1556 1.524 . S
C1555 C1559 1.400 . S
C1556 H1541 0.960 . S
C1556 H1542 0.960 . S
C1556 H1543 0.960 . S
C1556 C1555 1.524 . S
C1557 C1554 1.403 . S
C1557 C1558 1.392 . S
C1557 C1561 1.495 . S
C1558 C1557 1.392 . S
C1558 C1559 1.385 . S
C1558 C1560 1.478 . S
C1559 H1553 0.930 . S
C1559 C1555 1.400 . S
C1559 C1558 1.385 . S
C1560 C1558 1.478 . S
C1560 C1562 1.381 . S
C1560 C1566 1.383 . S
C1561 C1557 1.495 . S
C1561 H1567 0.959 . S
C1561 H1568 0.961 . S
C1561 H1569 0.960 . S
C1562 C1560 1.381 . S
C1562 C1563 1.394 . S
C1562 H1570 0.930 . S
C1563 C1562 1.394 . S
C1563 C1564 1.383 . S
C1563 H1571 0.929 . S
C1564 C1563 1.383 . S
C1564 C1565 1.377 . S
C1565 H1549 0.930 . S
C1565 C1564 1.377 . S
C1565 C1566 1.379 . S
C1566 H1550 0.931 . S
C1566 C1560 1.383 . S
C1566 C1565 1.379 . S
H1567 C1561 0.959 . S
H1568 C1561 0.961 . S
H1569 C1561 0.960 . S
H1570 C1562 0.930 . S
H1571 C1563 0.929 . S
H1572 C1580 0.929 . S
H1573 C1582 0.930 . S
H1574 C1584 0.930 . S
H1575 C1587 0.929 . S
H1576 C1590 0.930 . S
H1577 C1592 0.960 . S
H1578 C1592 0.960 . S
H1579 C1592 0.960 . S
C1580 H1572 0.929 . S
C1580 C1581 1.377 . S
C1580 C1582 1.384 . S
C1581 C1580 1.377 . S
C1581 C1587 1.390 . S
C1582 H1573 0.930 . S
C1582 C1580 1.384 . S
C1582 C1583 1.372 . S
C1583 C1582 1.372 . S
C1583 C1584 1.400 . S
C1583 C1588 1.490 . S
C1584 H1574 0.930 . S
C1584 C1583 1.400 . S
C1584 C1587 1.386 . S
H1585 C1601 0.930 . S
H1586 C1602 0.931 . S
C1587 H1575 0.929 . S
C1587 C1581 1.390 . S
C1587 C1584 1.386 . S
C1588 C1583 1.490 . S
C1588 C1590 1.395 . S
C1588 C1591 1.403 . S
H1589 C1595 0.930 . S
C1590 H1576 0.930 . S
C1590 C1588 1.395 . S
C1590 C1593 1.403 . S
C1591 C1588 1.403 . S
C1591 C1592 1.524 . S
C1591 C1595 1.400 . S
C1592 H1577 0.960 . S
C1592 H1578 0.960 . S
C1592 H1579 0.960 . S
C1592 C1591 1.524 . S
C1593 C1590 1.403 . S
C1593 C1594 1.392 . S
C1593 C1597 1.495 . S
C1594 C1593 1.392 . S
C1594 C1595 1.385 . S
C1594 C1596 1.478 . S
C1595 H1589 0.930 . S
C1595 C1591 1.400 . S
C1595 C1594 1.385 . S
C1596 C1594 1.478 . S
C1596 C1598 1.381 . S
C1596 C1602 1.383 . S
C1597 C1593 1.495 . S
C1597 H1603 0.959 . S
C1597 H1604 0.961 . S
C1597 H1605 0.960 . S
C1598 C1596 1.381 . S
C1598 C1599 1.394 . S
C1598 H1606 0.930 . S
C1599 C1598 1.394 . S
C1599 C1600 1.383 . S
C1599 H1607 0.929 . S
C1600 C1599 1.383 . S
C1600 C1601 1.377 . S
C1601 H1585 0.930 . S
C1601 C1600 1.377 . S
C1601 C1602 1.379 . S
C1602 H1586 0.931 . S
C1602 C1596 1.383 . S
C1602 C1601 1.379 . S
H1603 C1597 0.959 . S
H1604 C1597 0.961 . S
H1605 C1597 0.960 . S
H1606 C1598 0.930 . S
H1607 C1599 0.929 . S
H1608 C1616 0.929 . S
H1609 C1618 0.930 . S
H1610 C1620 0.930 . S
H1611 C1623 0.929 . S
H1612 C1626 0.930 . S
H1613 C1628 0.960 . S
H1614 C1628 0.960 . S
H1615 C1628 0.960 . S
C1616 H1608 0.929 . S
C1616 C1617 1.377 . S
C1616 C1618 1.384 . S
C1617 C1616 1.377 . S
C1617 C1623 1.390 . S
C1618 H1609 0.930 . S
C1618 C1616 1.384 . S
C1618 C1619 1.372 . S
C1619 C1618 1.372 . S
C1619 C1620 1.400 . S
C1619 C1624 1.490 . S
C1620 H1610 0.930 . S
C1620 C1619 1.400 . S
C1620 C1623 1.386 . S
H1621 C1637 0.930 . S
H1622 C1638 0.931 . S
C1623 H1611 0.929 . S
C1623 C1617 1.390 . S
C1623 C1620 1.386 . S
C1624 C1619 1.490 . S
C1624 C1626 1.395 . S
C1624 C1627 1.403 . S
H1625 C1631 0.930 . S
C1626 H1612 0.930 . S
C1626 C1624 1.395 . S
C1626 C1629 1.403 . S
C1627 C1624 1.403 . S
C1627 C1628 1.524 . S
C1627 C1631 1.400 . S
C1628 H1613 0.960 . S
C1628 H1614 0.960 . S
C1628 H1615 0.960 . S
C1628 C1627 1.524 . S
C1629 C1626 1.403 . S
C1629 C1630 1.392 . S
C1629 C1633 1.495 . S
C1630 C1629 1.392 . S
C1630 C1631 1.385 . S
C1630 C1632 1.478 . S
C1631 H1625 0.930 . S
C1631 C1627 1.400 . S
C1631 C1630 1.385 . S
C1632 C1630 1.478 . S
C1632 C1634 1.381 . S
C1632 C1638 1.383 . S
C1633 C1629 1.495 . S
C1633 H1639 0.959 . S
C1633 H1640 0.961 . S
C1633 H1641 0.960 . S
C1634 C1632 1.381 . S
C1634 C1635 1.394 . S
C1634 H1642 0.930 . S
C1635 C1634 1.394 . S
C1635 C1636 1.383 . S
C1635 H1643 0.929 . S
C1636 C1635 1.383 . S
C1636 C1637 1.377 . S
C1637 H1621 0.930 . S
C1637 C1636 1.377 . S
C1637 C1638 1.379 . S
C1638 H1622 0.931 . S
C1638 C1632 1.383 . S
C1638 C1637 1.379 . S
H1639 C1633 0.959 . S
H1640 C1633 0.961 . S
H1641 C1633 0.960 . S
H1642 C1634 0.930 . S
H1643 C1635 0.929 . S
H1644 C1652 0.929 . S
H1645 C1654 0.930 . S
H1646 C1656 0.930 . S
H1647 C1659 0.929 . S
H1648 C1662 0.930 . S
H1649 C1664 0.960 . S
H1650 C1664 0.960 . S
H1651 C1664 0.960 . S
C1652 H1644 0.929 . S
C1652 C1653 1.377 . S
C1652 C1654 1.384 . S
C1653 C1652 1.377 . S
C1653 C1659 1.390 . S
C1654 H1645 0.930 . S
C1654 C1652 1.384 . S
C1654 C1655 1.372 . S
C1655 C1654 1.372 . S
C1655 C1656 1.400 . S
C1655 C1660 1.490 . S
C1656 H1646 0.930 . S
C1656 C1655 1.400 . S
C1656 C1659 1.386 . S
H1657 C1673 0.930 . S
H1658 C1674 0.931 . S
C1659 H1647 0.929 . S
C1659 C1653 1.390 . S
C1659 C1656 1.386 . S
C1660 C1655 1.490 . S
C1660 C1662 1.395 . S
C1660 C1663 1.403 . S
H1661 C1667 0.930 . S
C1662 H1648 0.930 . S
C1662 C1660 1.395 . S
C1662 C1665 1.403 . S
C1663 C1660 1.403 . S
C1663 C1664 1.524 . S
C1663 C1667 1.400 . S
C1664 H1649 0.960 . S
C1664 H1650 0.960 . S
C1664 H1651 0.960 . S
C1664 C1663 1.524 . S
C1665 C1662 1.403 . S
C1665 C1666 1.392 . S
C1665 C1669 1.495 . S
C1666 C1665 1.392 . S
C1666 C1667 1.385 . S
C1666 C1668 1.478 . S
C1667 H1661 0.930 . S
C1667 C1663 1.400 . S
C1667 C1666 1.385 . S
C1668 C1666 1.478 . S
C1668 C1670 1.381 . S
C1668 C1674 1.383 . S
C1669 C1665 1.495 . S
C1669 H1675 0.959 . S
C1669 H1676 0.961 . S
C1669 H1677 0.960 . S
C1670 C1668 1.381 . S
C1670 C1671 1.394 . S
C1670 H1678 0.930 . S
C1671 C1670 1.394 . S
C1671 C1672 1.383 . S
C1671 H1679 0.929 . S
C1672 C1671 1.383 . S
C1672 C1673 1.377 . S
C1673 H1657 0.930 . S
C1673 C1672 1.377 . S
C1673 C1674 1.379 . S
C1674 H1658 0.931 . S
C1674 C1668 1.383 . S
C1674 C1673 1.379 . S
H1675 C1669 0.959 . S
H1676 C1669 0.961 . S
H1677 C1669 0.960 . S
H1678 C1670 0.930 . S
H1679 C1671 0.929 . S
H1680 C1688 0.929 . S
H1681 C1690 0.930 . S
H1682 C1692 0.955 . S
H1683 C1695 0.908 1_655 S
H1684 C1698 0.930 . S
H1685 C1700 0.960 . S
H1686 C1700 0.960 . S
H1687 C1700 0.960 . S
C1688 H1680 0.929 . S
C1688 C1689 1.377 . S
C1688 C1690 1.384 . S
C1689 C1688 1.377 . S
C1689 C1695 1.413 . S
C1690 H1681 0.930 . S
C1690 C1688 1.384 . S
C1690 C1691 1.372 . S
C1691 C1690 1.372 . S
C1691 C1692 1.377 1_455 S
C1691 C1696 1.490 . S
C1692 H1682 0.955 . S
C1692 C1691 1.377 1_655 S
C1692 C1695 1.384 1_655 S
H1693 C1709 0.930 . S
H1694 C1710 0.931 . S
C1695 H1683 0.908 1_455 S
C1695 C1689 1.413 . S
C1695 C1692 1.384 1_455 S
C1696 C1691 1.490 . S
C1696 C1698 1.395 . S
C1696 C1699 1.403 . S
H1697 C1703 0.930 . S
C1698 H1684 0.930 . S
C1698 C1696 1.395 . S
C1698 C1701 1.403 . S
C1699 C1696 1.403 . S
C1699 C1700 1.524 . S
C1699 C1703 1.400 . S
C1700 H1685 0.960 . S
C1700 H1686 0.960 . S
C1700 H1687 0.960 . S
C1700 C1699 1.524 . S
C1701 C1698 1.403 . S
C1701 C1702 1.392 . S
C1701 C1705 1.495 . S
C1702 C1701 1.392 . S
C1702 C1703 1.385 . S
C1702 C1704 1.478 . S
C1703 H1697 0.930 . S
C1703 C1699 1.400 . S
C1703 C1702 1.385 . S
C1704 C1702 1.478 . S
C1704 C1706 1.381 . S
C1704 C1710 1.383 1_455 S
C1705 C1701 1.495 . S
C1705 H1711 0.959 . S
C1705 H1712 0.961 1_455 S
C1705 H1713 0.960 . S
C1706 C1704 1.381 . S
C1706 C1707 1.394 . S
C1706 H1714 0.930 . S
C1707 C1706 1.394 . S
C1707 C1708 1.383 . S
C1707 H1715 0.929 . S
C1708 C1707 1.383 . S
C1708 C1709 1.377 1_455 S
C1709 H1693 0.930 . S
C1709 C1708 1.377 1_655 S
C1709 C1710 1.379 . S
C1710 H1694 0.931 . S
C1710 C1704 1.383 1_655 S
C1710 C1709 1.379 . S
H1711 C1705 0.959 . S
H1712 C1705 0.961 1_655 S
H1713 C1705 0.960 . S
H1714 C1706 0.930 . S
H1715 C1707 0.929 . S
H1716 C1724 0.929 . S
H1717 C1726 0.930 . S
H1718 C1728 0.930 . S
H1719 C1731 0.929 . S
H1720 C1734 0.930 . S
H1721 C1736 0.960 . S
H1722 C1736 0.960 . S
H1723 C1736 0.960 . S
C1724 H1716 0.929 . S
C1724 C1725 1.377 . S
C1724 C1726 1.384 . S
C1725 C1724 1.377 . S
C1725 C1731 1.390 . S
C1726 H1717 0.930 . S
C1726 C1724 1.384 . S
C1726 C1727 1.372 . S
C1727 C1726 1.372 . S
C1727 C1728 1.400 . S
C1727 C1732 1.490 . S
C1728 H1718 0.930 . S
C1728 C1727 1.400 . S
C1728 C1731 1.386 . S
H1729 C1745 0.930 . S
H1730 C1746 0.931 . S
C1731 H1719 0.929 . S
C1731 C1725 1.390 . S
C1731 C1728 1.386 . S
C1732 C1727 1.490 . S
C1732 C1734 1.395 . S
C1732 C1735 1.403 . S
H1733 C1739 0.930 . S
C1734 H1720 0.930 . S
C1734 C1732 1.395 . S
C1734 C1737 1.403 . S
C1735 C1732 1.403 . S
C1735 C1736 1.524 . S
C1735 C1739 1.400 . S
C1736 H1721 0.960 . S
C1736 H1722 0.960 . S
C1736 H1723 0.960 . S
C1736 C1735 1.524 . S
C1737 C1734 1.403 . S
C1737 C1738 1.392 . S
C1737 C1741 1.495 . S
C1738 C1737 1.392 . S
C1738 C1739 1.385 . S
C1738 C1740 1.478 . S
C1739 H1733 0.930 . S
C1739 C1735 1.400 . S
C1739 C1738 1.385 . S
C1740 C1738 1.478 . S
C1740 C1742 1.381 . S
C1740 C1746 1.383 . S
C1741 C1737 1.495 . S
C1741 H1747 0.959 . S
C1741 H1748 0.961 . S
C1741 H1749 0.960 . S
C1742 C1740 1.381 . S
C1742 C1743 1.394 . S
C1742 H1750 0.930 . S
C1743 C1742 1.394 . S
C1743 C1744 1.383 . S
C1743 H1751 0.929 . S
C1744 C1743 1.383 . S
C1744 C1745 1.377 . S
C1745 H1729 0.930 . S
C1745 C1744 1.377 . S
C1745 C1746 1.379 . S
C1746 H1730 0.931 . S
C1746 C1740 1.383 . S
C1746 C1745 1.379 . S
H1747 C1741 0.959 . S
H1748 C1741 0.961 . S
H1749 C1741 0.960 . S
H1750 C1742 0.930 . S
H1751 C1743 0.929 . S
H1752 C1760 0.929 . S
H1753 C1762 0.930 . S
H1754 C1764 0.930 . S
H1755 C1767 0.929 . S
H1756 C1770 0.930 . S
H1757 C1772 0.960 . S
H1758 C1772 0.960 . S
H1759 C1772 0.960 . S
C1760 H1752 0.929 . S
C1760 C1761 1.377 . S
C1760 C1762 1.384 . S
C1761 C1760 1.377 . S
C1761 C1767 1.390 . S
C1762 H1753 0.930 . S
C1762 C1760 1.384 . S
C1762 C1763 1.372 . S
C1763 C1762 1.372 . S
C1763 C1764 1.400 . S
C1763 C1768 1.490 . S
C1764 H1754 0.930 . S
C1764 C1763 1.400 . S
C1764 C1767 1.386 . S
H1765 C1781 0.930 . S
H1766 C1782 0.931 . S
C1767 H1755 0.929 . S
C1767 C1761 1.390 . S
C1767 C1764 1.386 . S
C1768 C1763 1.490 . S
C1768 C1770 1.395 . S
C1768 C1771 1.403 . S
H1769 C1775 0.930 . S
C1770 H1756 0.930 . S
C1770 C1768 1.395 . S
C1770 C1773 1.403 . S
C1771 C1768 1.403 . S
C1771 C1772 1.524 . S
C1771 C1775 1.400 . S
C1772 H1757 0.960 . S
C1772 H1758 0.960 . S
C1772 H1759 0.960 . S
C1772 C1771 1.524 . S
C1773 C1770 1.403 . S
C1773 C1774 1.392 . S
C1773 C1777 1.495 . S
C1774 C1773 1.392 . S
C1774 C1775 1.385 . S
C1774 C1776 1.478 . S
C1775 H1769 0.930 . S
C1775 C1771 1.400 . S
C1775 C1774 1.385 . S
C1776 C1774 1.478 . S
C1776 C1778 1.381 . S
C1776 C1782 1.383 . S
C1777 C1773 1.495 . S
C1777 H1783 0.959 . S
C1777 H1784 0.961 . S
C1777 H1785 0.960 . S
C1778 C1776 1.381 . S
C1778 C1779 1.394 . S
C1778 H1786 0.930 . S
C1779 C1778 1.394 . S
C1779 C1780 1.383 . S
C1779 H1787 0.929 . S
C1780 C1779 1.383 . S
C1780 C1781 1.377 . S
C1781 H1765 0.930 . S
C1781 C1780 1.377 . S
C1781 C1782 1.379 . S
C1782 H1766 0.931 . S
C1782 C1776 1.383 . S
C1782 C1781 1.379 . S
H1783 C1777 0.959 . S
H1784 C1777 0.961 . S
H1785 C1777 0.960 . S
H1786 C1778 0.930 . S
H1787 C1779 0.929 . S
H1788 C1796 0.929 . S
H1789 C1798 0.930 . S
H1790 C1800 0.930 . S
H1791 C1803 0.929 . S
H1792 C1806 0.930 . S
H1793 C1808 0.960 . S
H1794 C1808 0.960 . S
H1795 C1808 0.960 . S
C1796 H1788 0.929 . S
C1796 C1797 1.377 . S
C1796 C1798 1.384 . S
C1797 C1796 1.377 . S
C1797 C1803 1.390 . S
C1798 H1789 0.930 . S
C1798 C1796 1.384 . S
C1798 C1799 1.372 . S
C1799 C1798 1.372 . S
C1799 C1800 1.400 . S
C1799 C1804 1.490 . S
C1800 H1790 0.930 . S
C1800 C1799 1.400 . S
C1800 C1803 1.386 . S
H1801 C1817 0.930 . S
H1802 C1818 0.931 . S
C1803 H1791 0.929 . S
C1803 C1797 1.390 . S
C1803 C1800 1.386 . S
C1804 C1799 1.490 . S
C1804 C1806 1.395 . S
C1804 C1807 1.403 . S
H1805 C1811 0.930 . S
C1806 H1792 0.930 . S
C1806 C1804 1.395 . S
C1806 C1809 1.403 1_455 S
C1807 C1804 1.403 . S
C1807 C1808 1.524 . S
C1807 C1811 1.400 1_455 S
C1808 H1793 0.960 . S
C1808 H1794 0.960 . S
C1808 H1795 0.960 . S
C1808 C1807 1.524 . S
C1809 C1806 1.403 1_655 S
C1809 C1810 1.392 . S
C1809 C1813 1.495 . S
C1810 C1809 1.392 . S
C1810 C1811 1.385 . S
C1810 C1812 1.478 . S
C1811 H1805 0.930 . S
C1811 C1807 1.400 1_655 S
C1811 C1810 1.385 . S
C1812 C1810 1.478 . S
C1812 C1814 1.381 . S
C1812 C1818 1.383 . S
C1813 C1809 1.495 . S
C1813 H1819 0.959 . S
C1813 H1820 0.961 . S
C1813 H1821 0.960 . S
C1814 C1812 1.381 . S
C1814 C1815 1.394 . S
C1814 H1822 0.930 . S
C1815 C1814 1.394 . S
C1815 C1816 1.383 . S
C1815 H1823 0.929 . S
C1816 C1815 1.383 . S
C1816 C1817 1.377 . S
C1817 H1801 0.930 . S
C1817 C1816 1.377 . S
C1817 C1818 1.379 . S
C1818 H1802 0.931 . S
C1818 C1812 1.383 . S
C1818 C1817 1.379 . S
H1819 C1813 0.959 . S
H1820 C1813 0.961 . S
H1821 C1813 0.960 . S
H1822 C1814 0.930 . S
H1823 C1815 0.929 . S
H1824 C1832 0.929 . S
H1825 C1834 0.930 . S
H1826 C1836 0.930 . S
H1827 C1839 0.929 . S
H1828 C1842 0.930 . S
H1829 C1844 0.960 . S
H1830 C1844 0.960 . S
H1831 C1844 0.960 . S
C1832 H1824 0.929 . S
C1832 C1833 1.377 . S
C1832 C1834 1.384 . S
C1833 C1832 1.377 . S
C1833 C1839 1.390 . S
C1834 H1825 0.930 . S
C1834 C1832 1.384 . S
C1834 C1835 1.372 . S
C1835 C1834 1.372 . S
C1835 C1836 1.400 . S
C1835 C1840 1.490 . S
C1836 H1826 0.930 . S
C1836 C1835 1.400 . S
C1836 C1839 1.386 . S
H1837 C1853 0.930 . S
H1838 C1854 0.931 . S
C1839 H1827 0.929 . S
C1839 C1833 1.390 . S
C1839 C1836 1.386 . S
C1840 C1835 1.490 . S
C1840 C1842 1.395 1_455 S
C1840 C1843 1.403 . S
H1841 C1847 0.930 . S
C1842 H1828 0.930 . S
C1842 C1840 1.395 1_655 S
C1842 C1845 1.403 . S
C1843 C1840 1.403 . S
C1843 C1844 1.524 . S
C1843 C1847 1.400 . S
C1844 H1829 0.960 . S
C1844 H1830 0.960 . S
C1844 H1831 0.960 . S
C1844 C1843 1.524 . S
C1845 C1842 1.403 . S
C1845 C1846 1.392 1_655 S
C1845 C1849 1.495 . S
C1846 C1845 1.392 1_455 S
C1846 C1847 1.385 . S
C1846 C1848 1.478 . S
C1847 H1841 0.930 . S
C1847 C1843 1.400 . S
C1847 C1846 1.385 . S
C1848 C1846 1.478 . S
C1848 C1850 1.381 . S
C1848 C1854 1.383 1_455 S
C1849 C1845 1.495 . S
C1849 H1855 0.959 . S
C1849 H1856 0.961 . S
C1849 H1857 0.960 . S
C1850 C1848 1.381 . S
C1850 C1851 1.394 . S
C1850 H1858 0.930 . S
C1851 C1850 1.394 . S
C1851 C1852 1.383 . S
C1851 H1859 0.929 . S
C1852 C1851 1.383 . S
C1852 C1853 1.377 1_455 S
C1853 H1837 0.930 . S
C1853 C1852 1.377 1_655 S
C1853 C1854 1.379 . S
C1854 H1838 0.931 . S
C1854 C1848 1.383 1_655 S
C1854 C1853 1.379 . S
H1855 C1849 0.959 . S
H1856 C1849 0.961 . S
H1857 C1849 0.960 . S
H1858 C1850 0.930 . S
H1859 C1851 0.929 . S
H1860 C1868 0.929 . S
H1861 C1870 0.930 . S
H1862 C1872 0.930 . S
H1863 C1875 0.929 . S
H1864 C1878 0.930 . S
H1865 C1880 0.960 . S
H1866 C1880 0.960 . S
H1867 C1880 0.960 . S
C1868 H1860 0.929 . S
C1868 C1869 1.377 . S
C1868 C1870 1.384 . S
C1869 C1868 1.377 . S
C1869 C1875 1.390 . S
C1870 H1861 0.930 . S
C1870 C1868 1.384 . S
C1870 C1871 1.372 . S
C1871 C1870 1.372 . S
C1871 C1872 1.400 . S
C1871 C1876 1.490 . S
C1872 H1862 0.930 . S
C1872 C1871 1.400 . S
C1872 C1875 1.386 . S
H1873 C1889 0.930 . S
H1874 C1890 0.931 . S
C1875 H1863 0.929 . S
C1875 C1869 1.390 . S
C1875 C1872 1.386 . S
C1876 C1871 1.490 . S
C1876 C1878 1.395 . S
C1876 C1879 1.403 . S
H1877 C1883 0.930 . S
C1878 H1864 0.930 . S
C1878 C1876 1.395 . S
C1878 C1881 1.403 1_455 S
C1879 C1876 1.403 . S
C1879 C1880 1.524 . S
C1879 C1883 1.400 1_455 S
C1880 H1865 0.960 . S
C1880 H1866 0.960 . S
C1880 H1867 0.960 . S
C1880 C1879 1.524 . S
C1881 C1878 1.403 1_655 S
C1881 C1882 1.392 . S
C1881 C1885 1.495 . S
C1882 C1881 1.392 . S
C1882 C1883 1.385 . S
C1882 C1884 1.478 . S
C1883 H1877 0.930 . S
C1883 C1879 1.400 1_655 S
C1883 C1882 1.385 . S
C1884 C1882 1.478 . S
C1884 C1886 1.381 . S
C1884 C1890 1.383 . S
C1885 C1881 1.495 . S
C1885 H1891 0.959 . S
C1885 H1892 0.961 . S
C1885 H1893 0.960 . S
C1886 C1884 1.381 . S
C1886 C1887 1.394 . S
C1886 H1894 0.930 . S
C1887 C1886 1.394 . S
C1887 C1888 1.383 . S
C1887 H1895 0.929 . S
C1888 C1887 1.383 . S
C1888 C1889 1.377 . S
C1889 H1873 0.930 . S
C1889 C1888 1.377 . S
C1889 C1890 1.379 . S
C1890 H1874 0.931 . S
C1890 C1884 1.383 . S
C1890 C1889 1.379 . S
H1891 C1885 0.959 . S
H1892 C1885 0.961 . S
H1893 C1885 0.960 . S
H1894 C1886 0.930 . S
H1895 C1887 0.929 . S
H1896 C1904 0.929 . S
H1897 C1906 0.930 . S
H1898 C1908 0.930 . S
H1899 C1911 0.929 . S
H1900 C1914 0.930 . S
H1901 C1916 0.960 . S
H1902 C1916 0.960 . S
H1903 C1916 0.960 . S
C1904 H1896 0.929 . S
C1904 C1905 1.377 . S
C1904 C1906 1.384 . S
C1905 C1904 1.377 . S
C1905 C1911 1.390 . S
C1906 H1897 0.930 . S
C1906 C1904 1.384 . S
C1906 C1907 1.372 . S
C1907 C1906 1.372 . S
C1907 C1908 1.400 . S
C1907 C1912 1.490 . S
C1908 H1898 0.930 . S
C1908 C1907 1.400 . S
C1908 C1911 1.386 . S
H1909 C1925 0.930 . S
H1910 C1926 0.931 . S
C1911 H1899 0.929 . S
C1911 C1905 1.390 . S
C1911 C1908 1.386 . S
C1912 C1907 1.490 . S
C1912 C1914 1.395 . S
C1912 C1915 1.403 . S
H1913 C1919 0.930 . S
C1914 H1900 0.930 . S
C1914 C1912 1.395 . S
C1914 C1917 1.403 . S
C1915 C1912 1.403 . S
C1915 C1916 1.524 . S
C1915 C1919 1.400 . S
C1916 H1901 0.960 . S
C1916 H1902 0.960 . S
C1916 H1903 0.960 . S
C1916 C1915 1.524 . S
C1917 C1914 1.403 . S
C1917 C1918 1.392 . S
C1917 C1921 1.495 . S
C1918 C1917 1.392 . S
C1918 C1919 1.385 . S
C1918 C1920 1.478 . S
C1919 H1913 0.930 . S
C1919 C1915 1.400 . S
C1919 C1918 1.385 . S
C1920 C1918 1.478 . S
C1920 C1922 1.381 . S
C1920 C1926 1.383 . S
C1921 C1917 1.495 . S
C1921 H1927 0.959 . S
C1921 H1928 0.961 . S
C1921 H1929 0.960 . S
C1922 C1920 1.381 . S
C1922 C1923 1.394 . S
C1922 H1930 0.930 . S
C1923 C1922 1.394 . S
C1923 C1924 1.383 . S
C1923 H1931 0.929 . S
C1924 C1923 1.383 . S
C1924 C1925 1.377 . S
C1925 H1909 0.930 . S
C1925 C1924 1.377 . S
C1925 C1926 1.379 . S
C1926 H1910 0.931 . S
C1926 C1920 1.383 . S
C1926 C1925 1.379 . S
H1927 C1921 0.959 . S
H1928 C1921 0.961 . S
H1929 C1921 0.960 . S
H1930 C1922 0.930 . S
H1931 C1923 0.929 . S
H1932 C1940 0.929 . S
H1933 C1942 0.930 . S
H1934 C1944 0.930 . S
H1935 C1947 0.929 . S
H1936 C1950 0.930 . S
H1937 C1952 0.960 . S
H1938 C1952 0.960 . S
H1939 C1952 0.960 . S
C1940 H1932 0.929 . S
C1940 C1941 1.377 . S
C1940 C1942 1.384 . S
C1941 C1940 1.377 . S
C1941 C1947 1.390 . S
C1942 H1933 0.930 . S
C1942 C1940 1.384 . S
C1942 C1943 1.372 . S
C1943 C1942 1.372 . S
C1943 C1944 1.400 . S
C1943 C1948 1.490 . S
C1944 H1934 0.930 . S
C1944 C1943 1.400 . S
C1944 C1947 1.386 . S
H1945 C1961 0.930 . S
H1946 C1962 0.931 . S
C1947 H1935 0.929 . S
C1947 C1941 1.390 . S
C1947 C1944 1.386 . S
C1948 C1943 1.490 . S
C1948 C1950 1.395 . S
C1948 C1951 1.403 . S
H1949 C1955 0.930 . S
C1950 H1936 0.930 . S
C1950 C1948 1.395 . S
C1950 C1953 1.403 . S
C1951 C1948 1.403 . S
C1951 C1952 1.524 . S
C1951 C1955 1.400 . S
C1952 H1937 0.960 . S
C1952 H1938 0.960 . S
C1952 H1939 0.960 . S
C1952 C1951 1.524 . S
C1953 C1950 1.403 . S
C1953 C1954 1.392 . S
C1953 C1957 1.495 . S
C1954 C1953 1.392 . S
C1954 C1955 1.385 . S
C1954 C1956 1.478 . S
C1955 H1949 0.930 . S
C1955 C1951 1.400 . S
C1955 C1954 1.385 . S
C1956 C1954 1.478 . S
C1956 C1958 1.381 . S
C1956 C1962 1.383 . S
C1957 C1953 1.495 . S
C1957 H1963 0.959 . S
C1957 H1964 0.961 . S
C1957 H1965 0.960 . S
C1958 C1956 1.381 . S
C1958 C1959 1.394 . S
C1958 H1966 0.930 . S
C1959 C1958 1.394 . S
C1959 C1960 1.383 . S
C1959 H1967 0.929 . S
C1960 C1959 1.383 . S
C1960 C1961 1.377 . S
C1961 H1945 0.930 . S
C1961 C1960 1.377 . S
C1961 C1962 1.379 . S
C1962 H1946 0.931 . S
C1962 C1956 1.383 . S
C1962 C1961 1.379 . S
H1963 C1957 0.959 . S
H1964 C1957 0.961 . S
H1965 C1957 0.960 . S
H1966 C1958 0.930 . S
H1967 C1959 0.929 . S
C537 N442 1.309 . S
C556 N13 1.295 . S
C573 N46 1.305 . S
C592 N376 1.308 . S
C609 N79 1.303 . S
C628 N409 1.322 . S
C645 N112 1.303 . S
C664 N343 1.317 . S
C681 N508 1.303 . S
C700 N145 1.318 . S
C717 N178 1.308 . S
C736 N310 1.295 . S
C753 N211 1.307 . S
C772 N475 1.299 . S
C789 N277 1.304 . S
C808 N244 1.314 . S
C825 C18 1.647 . S
C844 C150 1.635 . S
C861 C51 1.648 . S
C880 C183 1.635 . S
C897 C84 1.649 . S
C916 C216 1.653 . S
C933 C249 1.644 . S
C952 C117 1.634 . S
C969 C348 1.645 . S
C988 C282 1.649 . S
C1005 C315 1.649 . S
C1024 C381 1.647 . S
C1041 C480 1.648 . S
C1060 C414 1.638 . S
C1077 C513 1.648 . S
C1096 C447 1.656 . S
C1113 C172 0.778 . S
C1132 C7 0.722 . S
C1149 C40 0.760 . S
C1168 C205 0.732 . S
C1185 C73 0.753 . S
C1204 C238 0.772 . S
C1221 C139 0.754 . S
C1240 C106 0.812 . S
C1257 C153 0.646 . S
C1276 C351 0.699 . S
C1293 C87 0.649 . S
C1312 C285 0.656 . S
C1329 C384 0.662 . S
C1348 C219 0.611 . S
C1365 C318 0.652 . S
C1384 C21 0.641 . S
C1401 C271 0.774 . S
C1420 C403 0.704 . S
C1437 C502 0.753 . S
C1456 C337 0.789 . S
C1473 C436 0.754 . S
C1492 C304 0.814 . S
C1509 C370 0.778 . S
C1528 C469 0.761 . S
C1545 C483 0.672 . S
C1564 C54 0.645 . S
C1581 C186 0.671 . S
C1600 C450 0.664 . S
C1617 C516 0.657 . S
C1636 C120 0.622 . S
C1653 C252 0.650 . S
C1672 C417 0.725 . S
C1689 N2 0.333 . S
C1708 N431 0.407 . S
C1725 N35 0.308 . S
C1744 N365 0.282 . S
C1761 N68 0.341 . S
C1780 N398 0.352 . S
C1797 N101 0.318 . S
C1816 N332 0.358 . S
C1833 N134 0.343 . S
C1852 N497 0.411 . S
C1869 N167 0.309 . S
C1888 N299 0.252 . S
C1905 N464 0.336 . S
C1924 N200 0.412 . S
C1941 N266 0.345 . S
C1960 N233 0.405 . S
