# Generated by pormake.
# Topology ure, (4)-cn, num edge types: 1
# Building blocks:
#     Node 0, Type 0, BuildingBlock: NAHDIM_clean_sbu_0, # of connection points: 4
#     Node 1, Type 0, BuildingBlock: NAHDIM_clean_sbu_0, # of connection points: 4
#     Node 2, Type 0, BuildingBlock: NAHDIM_clean_sbu_0, # of connection points: 4
#     Node 3, Type 0, BuildingBlock: NAHDIM_clean_sbu_0, # of connection points: 4
#     Node 4, Type 0, BuildingBlock: NAHDIM_clean_sbu_0, # of connection points: 4
#     Node 5, Type 0, BuildingBlock: NAHDIM_clean_sbu_0, # of connection points: 4
#     Node 6, Type 0, BuildingBlock: NAHDIM_clean_sbu_0, # of connection points: 4
#     Node 7, Type 0, BuildingBlock: NAHDIM_clean_sbu_0, # of connection points: 4
#     Node 8, Type 0, BuildingBlock: NAHDIM_clean_sbu_0, # of connection points: 4
#     Node 9, Type 0, BuildingBlock: NAHDIM_clean_sbu_0, # of connection points: 4
#     Node 10, Type 0, BuildingBlock: NAHDIM_clean_sbu_0, # of connection points: 4
#     Node 11, Type 0, BuildingBlock: NAHDIM_clean_sbu_0, # of connection points: 4
#     Node 12, Type 0, BuildingBlock: NAHDIM_clean_sbu_0, # of connection points: 4
#     Node 13, Type 0, BuildingBlock: NAHDIM_clean_sbu_0, # of connection points: 4
#     Node 14, Type 0, BuildingBlock: NAHDIM_clean_sbu_0, # of connection points: 4
#     Node 15, Type 0, BuildingBlock: NAHDIM_clean_sbu_0, # of connection points: 4
#     Edge 16, Type (0, 0), BuildingBlock: ZUJKAS_clean_linker_0, # of connection points: 2
#     Edge 17, Type (0, 0), BuildingBlock: ZUJKAS_clean_linker_0, # of connection points: 2
#     Edge 18, Type (0, 0), BuildingBlock: ZUJKAS_clean_linker_0, # of connection points: 2
#     Edge 19, Type (0, 0), BuildingBlock: ZUJKAS_clean_linker_0, # of connection points: 2
#     Edge 20, Type (0, 0), BuildingBlock: ZUJKAS_clean_linker_0, # of connection points: 2
#     Edge 21, Type (0, 0), BuildingBlock: ZUJKAS_clean_linker_0, # of connection points: 2
#     Edge 22, Type (0, 0), BuildingBlock: ZUJKAS_clean_linker_0, # of connection points: 2
#     Edge 23, Type (0, 0), BuildingBlock: ZUJKAS_clean_linker_0, # of connection points: 2
#     Edge 24, Type (0, 0), BuildingBlock: ZUJKAS_clean_linker_0, # of connection points: 2
#     Edge 25, Type (0, 0), BuildingBlock: ZUJKAS_clean_linker_0, # of connection points: 2
#     Edge 26, Type (0, 0), BuildingBlock: ZUJKAS_clean_linker_0, # of connection points: 2
#     Edge 27, Type (0, 0), BuildingBlock: ZUJKAS_clean_linker_0, # of connection points: 2
#     Edge 28, Type (0, 0), BuildingBlock: ZUJKAS_clean_linker_0, # of connection points: 2
#     Edge 29, Type (0, 0), BuildingBlock: ZUJKAS_clean_linker_0, # of connection points: 2
#     Edge 30, Type (0, 0), BuildingBlock: ZUJKAS_clean_linker_0, # of connection points: 2
#     Edge 31, Type (0, 0), BuildingBlock: ZUJKAS_clean_linker_0, # of connection points: 2
#     Edge 32, Type (0, 0), BuildingBlock: ZUJKAS_clean_linker_0, # of connection points: 2
#     Edge 33, Type (0, 0), BuildingBlock: ZUJKAS_clean_linker_0, # of connection points: 2
#     Edge 34, Type (0, 0), BuildingBlock: ZUJKAS_clean_linker_0, # of connection points: 2
#     Edge 35, Type (0, 0), BuildingBlock: ZUJKAS_clean_linker_0, # of connection points: 2
#     Edge 36, Type (0, 0), BuildingBlock: ZUJKAS_clean_linker_0, # of connection points: 2
#     Edge 37, Type (0, 0), BuildingBlock: ZUJKAS_clean_linker_0, # of connection points: 2
#     Edge 38, Type (0, 0), BuildingBlock: ZUJKAS_clean_linker_0, # of connection points: 2
#     Edge 39, Type (0, 0), BuildingBlock: ZUJKAS_clean_linker_0, # of connection points: 2
#     Edge 40, Type (0, 0), BuildingBlock: ZUJKAS_clean_linker_0, # of connection points: 2
#     Edge 41, Type (0, 0), BuildingBlock: ZUJKAS_clean_linker_0, # of connection points: 2
#     Edge 42, Type (0, 0), BuildingBlock: ZUJKAS_clean_linker_0, # of connection points: 2
#     Edge 43, Type (0, 0), BuildingBlock: ZUJKAS_clean_linker_0, # of connection points: 2
#     Edge 44, Type (0, 0), BuildingBlock: ZUJKAS_clean_linker_0, # of connection points: 2
#     Edge 45, Type (0, 0), BuildingBlock: ZUJKAS_clean_linker_0, # of connection points: 2
#     Edge 46, Type (0, 0), BuildingBlock: ZUJKAS_clean_linker_0, # of connection points: 2
#     Edge 47, Type (0, 0), BuildingBlock: ZUJKAS_clean_linker_0, # of connection points: 2
# Relax obj value: 0.113
# Max RMSD: 0.077
# Mean RMSD: 0.068
data_MOF--net-ure--node1-NAHDIM_clean_sbu_0--edge1-ZUJKAS_clean_linker_0
_symmetry_space_group_name_H-M    P1
_symmetry_Int_Tables_number       1
_symmetry_cell_setting            triclinic
loop_
_symmetry_equiv_pos_as_xyz
'x, y, z'
_cell_length_a     39.613697
_cell_length_b     41.199618
_cell_length_c     42.236244
_cell_angle_alpha  90.528016
_cell_angle_beta   91.340812
_cell_angle_gamma 93.382948
loop_
_atom_site_label
_atom_site_type_symbol
_atom_site_fract_x
_atom_site_fract_y
_atom_site_fract_z
_atom_type_partial_charge
C0 C 0.22406 0.23323 0.22566 0.0
O1 O 0.24408 0.2564 0.21386 0.0
O2 O 0.29882 0.25949 0.27693 0.0
Zn3 Zn 0.24894 0.26295 0.28368 0.0
O4 O 0.23667 0.30861 0.27467 0.0
C5 C 0.25862 0.23832 0.34703 0.0
O6 O 0.28434 0.22468 0.33441 0.0
O7 O 0.22179 0.23109 0.25553 0.0
C8 C 0.25032 0.33067 0.2928 0.0
O9 O 0.27107 0.32236 0.31566 0.0
C10 C 0.31614 0.2783 0.25901 0.0
O11 O 0.30106 0.30071 0.24297 0.0
O12 O 0.23944 0.2546 0.32955 0.0
C13 C 0.01086 0.94158 0.48478 0.0
O14 O -0.00205 0.93265 0.51194 0.0
O15 O 0.9238 0.98737 0.47833 0.0
Zn16 Zn 0.97144 0.99727 0.49411 0.0
O17 O 0.97389 0.99175 0.54131 0.0
C18 C 0.96437 0.06471 0.4952 0.0
O19 O 0.93892 0.05459 0.51269 0.0
O20 O 0.00299 0.9683 0.47266 0.0
C21 C -0.00098 0.00391 0.55752 0.0
O22 O 0.02374 0.01985 0.54299 0.0
C23 C 0.9043 0.96528 0.49002 0.0
O24 O 0.91592 0.94698 0.51264 0.0
O25 O 0.98348 0.04393 0.48405 0.0
C26 C 0.27039 0.78484 0.72515 0.0
O27 O 0.24851 0.76205 0.71413 0.0
O28 O 0.19328 0.7687 0.76676 0.0
Zn29 Zn 0.24125 0.76248 0.78145 0.0
O30 O 0.25217 0.71555 0.77614 0.0
C31 C 0.22056 0.77278 0.8451 0.0
O32 O 0.19081 0.76496 0.83188 0.0
O33 O 0.27255 0.7901 0.75484 0.0
C34 C 0.24002 0.69414 0.79486 0.0
O35 O 0.22022 0.70296 0.8175 0.0
C36 C 0.17442 0.74696 0.75246 0.0
O37 O 0.18657 0.71885 0.74553 0.0
O38 O 0.24652 0.7746 0.82788 0.0
C39 C 0.48009 0.03683 0.96714 0.0
O40 O 0.49924 0.05082 0.98978 0.0
O41 O 0.55965 0.99523 0.98269 0.0
Zn42 Zn 0.51105 0.98143 0.9909 0.0
O43 O 0.50096 0.99088 0.03634 0.0
C44 C 0.51251 0.91334 0.00284 0.0
O45 O 0.52601 0.92448 0.02979 0.0
O46 O 0.48075 0.00633 0.96279 0.0
C47 C 0.47271 0.98222 0.0482 0.0
O48 O 0.44916 0.9671 0.03018 0.0
C49 C 0.58209 0.9926 0.00437 0.0
O50 O 0.57302 0.98129 0.03207 0.0
O51 O 0.50353 0.93341 0.98204 0.0
C52 C 0.23154 0.75381 0.30308 0.0
O53 O 0.24634 0.72813 0.31349 0.0
O54 O 0.31373 0.75032 0.25571 0.0
Zn55 Zn 0.26475 0.73722 0.24647 0.0
O56 O 0.25626 0.68949 0.25471 0.0
C57 C 0.26178 0.72691 0.17929 0.0
O58 O 0.27471 0.69946 0.18739 0.0
O59 O 0.23577 0.7626 0.27462 0.0
C60 C 0.2302 0.67253 0.24497 0.0
O61 O 0.20651 0.68644 0.22863 0.0
C62 C 0.33589 0.72927 0.25735 0.0
O63 O 0.32647 0.69835 0.2536 0.0
O64 O 0.25482 0.74707 0.20077 0.0
C65 C 0.46334 0.97987 0.50605 0.0
O66 O 0.49 -0.00187 0.51561 0.0
O67 O 0.48129 0.05438 0.46098 0.0
Zn68 Zn 0.48304 0.00739 0.44772 0.0
O69 O 0.53089 0.99381 0.45072 0.0
C70 C 0.46534 0.02556 0.384 0.0
O71 O 0.47362 0.05486 0.39525 0.0
O72 O 0.4547 0.97959 0.47687 0.0
C73 C 0.55322 0.00584 0.4324 0.0
O74 O 0.54471 0.02747 0.41147 0.0
C75 C 0.50399 0.06928 0.47831 0.0
O76 O 0.52986 0.05359 0.48875 0.0
O77 O 0.46651 0.00137 0.40239 0.0
C78 C 0.27171 0.23015 0.77065 0.0
O79 O 0.25123 0.21662 0.74875 0.0
O80 O 0.25072 0.27837 0.70157 0.0
Zn81 Zn 0.24263 0.28705 0.74756 0.0
O82 O 0.19403 0.27451 0.75585 0.0
C83 C 0.27181 0.35333 0.7437 0.0
O84 O 0.29033 0.34147 0.72146 0.0
O85 O 0.27259 0.26077 0.77467 0.0
C86 C 0.1802 0.28301 0.78121 0.0
O87 O 0.19852 0.29934 0.80301 0.0
C88 C 0.22991 0.28856 0.68116 0.0
O89 O 0.20464 0.3051 0.69082 0.0
O90 O 0.25067 0.33451 0.75782 0.0
C91 C 0.02968 0.01206 0.01775 0.0
O92 O 0.00712 0.99111 0.02947 0.0
O93 O 0.00643 0.93796 0.97205 0.0
Zn94 Zn 0.00026 0.98489 0.96121 0.0
O95 O 0.95248 0.99594 0.96987 0.0
C96 C 0.9893 0.974 0.89563 0.0
O97 O 0.96526 0.95449 0.90711 0.0
O98 O 0.0321 0.01397 0.98787 0.0
C99 C 0.93709 0.01669 0.95381 0.0
O100 O 0.95302 0.03245 0.93117 0.0
C101 C 0.98127 0.91811 0.97672 0.0
O102 O 0.9506 0.92859 0.97531 0.0
O103 O 0.00884 0.99056 0.91476 0.0
C104 C 0.72787 0.26009 0.79712 0.0
O105 O 0.75277 0.2477 0.81313 0.0
O106 O 0.80425 0.2399 0.75536 0.0
Zn107 Zn 0.75571 0.22682 0.74397 0.0
O108 O 0.74656 0.17974 0.75427 0.0
C109 C 0.76999 0.22594 0.67768 0.0
O110 O 0.79674 0.21136 0.68786 0.0
O111 O 0.72439 0.2542 0.76763 0.0
C112 C 0.7222 0.1621 0.74206 0.0
O113 O 0.70143 0.17491 0.72164 0.0
C114 C 0.82034 0.22584 0.77717 0.0
O115 O 0.80462 0.20282 0.79351 0.0
O116 O 0.74838 0.23422 0.69751 0.0
C117 C 0.97408 0.48658 0.01578 0.0
O118 O 0.9961 0.50867 0.02788 0.0
O119 O 0.00189 0.55574 0.96958 0.0
Zn120 Zn 0.00636 0.50815 0.96037 0.0
O121 O 0.0533 0.49524 0.97138 0.0
C122 C 0.0211 0.51153 0.89567 0.0
O123 O 0.04769 0.52776 0.90834 0.0
O124 O 0.97319 0.48164 0.98603 0.0
C125 C 0.06316 0.46854 0.96075 0.0
O126 O 0.04194 0.44939 0.94377 0.0
C127 C 0.02736 0.5757 0.97374 0.0
O128 O 0.05793 0.56507 0.97261 0.0
O129 O -0.00184 0.50018 0.91372 0.0
C130 C 0.78115 0.73487 0.27673 0.0
O131 O 0.75547 0.7228 0.25924 0.0
O132 O 0.76714 0.78372 0.20301 0.0
Zn133 Zn 0.76124 0.79412 0.24923 0.0
O134 O 0.7121 0.78684 0.2595 0.0
C135 C 0.78977 0.85962 0.23849 0.0
O136 O 0.79731 0.8477 0.21076 0.0
O137 O 0.78868 0.76526 0.27623 0.0
C138 C 0.69189 0.80913 0.25431 0.0
O139 O 0.70367 0.83696 0.2428 0.0
C140 C 0.74627 0.76443 0.1878 0.0
O141 O 0.72061 0.75047 0.20266 0.0
O142 O 0.77538 0.84103 0.25859 0.0
C143 C 0.97896 0.53049 0.47171 0.0
O144 O 0.00029 0.54351 0.49317 0.0
O145 O 0.05638 0.48338 0.48284 0.0
Zn146 Zn 0.00768 0.4724 0.49311 0.0
O147 O 0.00132 0.47945 0.53963 0.0
C148 C 0.01349 0.40912 0.46418 0.0
O149 O 0.0378 0.4243 0.44846 0.0
O150 O 0.97733 0.49987 0.46748 0.0
C151 C 0.01909 0.46324 0.55849 0.0
O152 O 0.04028 0.44321 0.5467 0.0
C153 C 0.07529 0.50397 0.4986 0.0
O154 O 0.06266 0.51982 0.52226 0.0
O155 O 0.99674 0.42504 0.48366 0.0
C156 C 0.50628 0.47074 0.95213 0.0
O157 O 0.47892 0.48049 0.93783 0.0
O158 O 0.43221 0.49173 0.99225 0.0
Zn159 Zn 0.48021 0.5036 0.00615 0.0
O160 O 0.48687 0.4934 0.05227 0.0
C161 C 0.47808 0.56655 0.97692 0.0
O162 O 0.45932 0.55027 0.9554 0.0
O163 O 0.51203 0.47816 0.98109 0.0
C164 C 0.46253 0.49273 0.07136 0.0
O165 O 0.43213 0.49884 0.0608 0.0
C166 C 0.4192 0.46292 0.99421 0.0
O167 O 0.43775 0.43994 0.00522 0.0
O168 O 0.49008 0.55148 0.00034 0.0
C169 C 0.72408 0.72946 0.7297 0.0
O170 O 0.74424 0.75255 0.71792 0.0
O171 O 0.80061 0.75554 0.77214 0.0
Zn172 Zn 0.75241 0.75781 0.78608 0.0
O173 O 0.73735 0.80319 0.77935 0.0
C174 C 0.77367 0.7581 0.85094 0.0
O175 O 0.79834 0.77672 0.8393 0.0
O176 O 0.72285 0.72656 0.75958 0.0
C177 C 0.72489 0.82038 0.80079 0.0
O178 O 0.72001 0.80803 0.82899 0.0
C179 C 0.81894 0.78099 0.76605 0.0
O180 O 0.8061 0.80956 0.76845 0.0
O181 O 0.75028 0.74638 0.83232 0.0
C182 C 0.77013 0.29009 0.22532 0.0
O183 O 0.74948 0.26617 0.21452 0.0
O184 O 0.69623 0.26888 0.27281 0.0
Zn185 Zn 0.74575 0.26485 0.2829 0.0
O186 O 0.75793 0.2188 0.2742 0.0
C187 C 0.7367 0.29063 0.3465 0.0
O188 O 0.70973 0.30302 0.33394 0.0
O189 O 0.77308 0.29486 0.25504 0.0
C190 C 0.75888 0.19823 0.29642 0.0
O191 O 0.75169 0.2072 0.32529 0.0
C192 C 0.67413 0.24988 0.2855 0.0
O193 O 0.68406 0.22767 0.30519 0.0
O194 O 0.7559 0.27509 0.32893 0.0
C195 C 0.52652 0.50752 0.52527 0.0
O196 O 0.50351 0.48736 0.53747 0.0
O197 O 0.50646 0.43035 0.48487 0.0
Zn198 Zn 0.49992 0.47585 0.46988 0.0
O199 O 0.45159 0.48725 0.47524 0.0
C200 C 0.50763 0.4526 0.40628 0.0
O201 O 0.50039 0.42451 0.41974 0.0
O202 O 0.53027 0.50731 0.49548 0.0
C203 C 0.42831 0.47418 0.45731 0.0
O204 O 0.43614 0.45288 0.43578 0.0
C205 C 0.48505 0.41355 0.50077 0.0
O206 O 0.45726 0.42656 0.50967 0.0
O207 O 0.5101 0.47832 0.4233 0.0
H208 H 0.22407 0.23061 0.16096 0.0
H209 H 0.19129 0.19239 0.12591 0.0
H210 H 0.14742 0.14483 0.207 0.0
H211 H 0.17982 0.18309 0.24229 0.0
H212 H 0.19171 0.12348 0.12421 0.0
H213 H 0.06479 0.16569 0.15133 0.0
H214 H 0.10346 0.18937 0.16126 0.0
H215 H 0.08997 0.15552 0.18534 0.0
C216 C 0.20737 0.2121 0.17138 0.0
C217 C 0.20441 0.21 0.20443 0.0
C218 C 0.18872 0.19027 0.1513 0.0
C219 C 0.16664 0.16612 0.16388 0.0
C220 C 0.16388 0.1637 0.19683 0.0
H221 H 0.03055 0.01379 0.08242 0.0
H222 H 0.06513 0.05033 0.11764 0.0
C223 C 0.18254 0.18549 0.21695 0.0
C224 C 0.14684 0.14316 0.14249 0.0
H225 H 0.06623 0.11812 0.11959 0.0
C226 C 0.16428 0.12234 0.12307 0.0
C227 C 0.11109 0.14178 0.14117 0.0
C228 C 0.09114 0.16445 0.16066 0.0
C229 C 0.14684 0.09972 0.10266 0.0
C230 C 0.11107 0.09837 0.10131 0.0
C231 C 0.09366 0.1192 0.12075 0.0
C232 C 0.09113 0.07562 0.07981 0.0
C233 C 0.16679 0.07701 0.08324 0.0
C234 C 0.0942 0.07788 0.04687 0.0
C235 C 0.07451 0.057 0.02665 0.0
C236 C 0.05124 0.03363 0.03905 0.0
C237 C 0.04826 0.03146 0.07209 0.0
C238 C 0.06797 0.05233 0.09227 0.0
H239 H 0.19295 0.07538 0.09295 0.0
H240 H 0.15419 0.05221 0.08221 0.0
H241 H 0.16853 0.08622 0.0587 0.0
H242 H 0.11145 0.09613 0.03677 0.0
H243 H 0.07729 0.05942 0.00132 0.0
H244 H 0.0389 0.95155 0.427 0.0
H245 H 0.07762 0.91739 0.39982 0.0
H246 H 0.07548 0.85118 0.47836 0.0
H247 H 0.0362 0.88497 0.5056 0.0
H248 H 0.14148 0.90021 0.42006 0.0
H249 H 0.05335 0.79108 0.40203 0.0
H250 H 0.03899 0.83024 0.41327 0.0
H251 H 0.05862 0.80536 0.44226 0.0
C252 C 0.04653 0.92967 0.43849 0.0
C253 C 0.03434 0.92088 0.46841 0.0
C254 C 0.06869 0.9102 0.42293 0.0
C255 C 0.07903 0.88158 0.43691 0.0
C256 C 0.06725 0.87286 0.46691 0.0
H257 H 0.21355 0.73921 0.36369 0.0
H258 H 0.17806 0.76999 0.39835 0.0
C259 C 0.04495 0.89228 0.48249 0.0
C260 C 0.10266 0.86134 0.42012 0.0
H261 H 0.10941 0.787 0.38524 0.0
C262 C 0.13452 0.87543 0.41251 0.0
C263 C 0.0935 0.82898 0.41047 0.0
C264 C 0.05917 0.81301 0.41715 0.0
C265 C 0.1574 0.85811 0.39518 0.0
C266 C 0.14793 0.82606 0.38491 0.0
C267 C 0.11647 0.81162 0.3932 0.0
C268 C 0.16972 0.80769 0.36424 0.0
C269 C 0.19152 0.87421 0.38798 0.0
C270 C 0.17634 0.81859 0.33353 0.0
C271 C 0.19645 0.80108 0.31366 0.0
C272 C 0.21025 0.7723 0.32417 0.0
C273 C 0.2034 0.76135 0.35494 0.0
C274 C 0.18313 0.77884 0.37476 0.0
H275 H 0.19818 0.89516 0.40414 0.0
H276 H 0.21164 0.85662 0.38993 0.0
H277 H 0.19101 0.88338 0.36336 0.0
H278 H 0.1657 0.84053 0.32484 0.0
H279 H 0.20113 0.81012 0.29007 0.0
H280 H 0.41011 0.9358 0.49373 0.0
H281 H 0.37825 0.90273 0.53202 0.0
H282 H 0.44072 0.94546 0.60821 0.0
H283 H 0.47268 0.97866 0.57025 0.0
H284 H 0.40632 0.85756 0.57744 0.0
H285 H 0.34116 0.95807 0.63435 0.0
H286 H 0.35975 0.96185 0.59581 0.0
H287 H 0.38624 0.9643 0.63093 0.0
C288 C 0.417 0.93826 0.51864 0.0
C289 C 0.44385 0.95992 0.52898 0.0
C290 C 0.39882 0.91932 0.54043 0.0
C291 C 0.40697 0.92199 0.57287 0.0
C292 C 0.4338 0.94345 0.58327 0.0
H293 H 0.32013 0.83188 0.73999 0.0
H294 H 0.35481 0.86422 0.70323 0.0
C295 C 0.4521 0.96227 0.56152 0.0
C296 C 0.38779 0.90186 0.59583 0.0
H297 H 0.33367 0.90607 0.65717 0.0
C298 C 0.39035 0.86807 0.59485 0.0
C299 C 0.36726 0.91583 0.61856 0.0
C300 C 0.36311 0.95198 0.61999 0.0
C301 C 0.37306 0.84777 0.61633 0.0
C302 C 0.35211 0.86167 0.63883 0.0
C303 C 0.34978 0.89552 0.6399 0.0
C304 C 0.33177 0.84148 0.66101 0.0
C305 C 0.37788 0.81172 0.61511 0.0
C306 C 0.30714 0.81826 0.64939 0.0
C307 C 0.28742 0.79969 0.67028 0.0
C308 C 0.29172 0.80426 0.70319 0.0
C309 C 0.31625 0.82774 0.71477 0.0
C310 C 0.33607 0.84623 0.69383 0.0
H311 H 0.40168 0.80632 0.60323 0.0
H312 H 0.37839 0.80129 0.63926 0.0
H313 H 0.35653 0.79935 0.60141 0.0
H314 H 0.30287 0.81476 0.62414 0.0
H315 H 0.26858 0.78198 0.66057 0.0
H316 H 0.47321 0.10239 0.97 0.0
H317 H 0.43706 0.13454 0.9364 0.0
H318 H 0.40184 0.04781 0.88476 0.0
H319 H 0.4376 0.01536 0.91841 0.0
H320 H 0.43831 0.14038 0.86971 0.0
H321 H 0.31398 0.0889 0.91002 0.0
H322 H 0.353 0.08384 0.93188 0.0
H323 H 0.34247 0.05933 0.89724 0.0
C324 C 0.45767 0.0901 0.95159 0.0
C325 C 0.45818 0.0563 0.94694 0.0
C326 C 0.43708 0.10852 0.93242 0.0
C327 C 0.4165 0.09345 0.90843 0.0
C328 C 0.41709 0.05977 0.90356 0.0
H329 H 0.27691 0.16433 0.76738 0.0
H330 H 0.31294 0.13123 0.80018 0.0
C331 C 0.43767 0.04132 0.92271 0.0
C332 C 0.3951 0.11314 0.88796 0.0
H333 H 0.31314 0.12438 0.86621 0.0
C334 C 0.41094 0.13701 0.86899 0.0
C335 C 0.35944 0.10851 0.88707 0.0
C336 C 0.3411 0.08396 0.90782 0.0
C337 C 0.39203 0.15617 0.84876 0.0
C338 C 0.35635 0.15166 0.84799 0.0
C339 C 0.34052 0.1277 0.86687 0.0
C340 C 0.33493 0.17183 0.828 0.0
C341 C 0.41042 0.18063 0.82797 0.0
C342 C 0.33514 0.20552 0.83308 0.0
C343 C 0.31467 0.2245 0.81438 0.0
C344 C 0.29342 0.21005 0.7904 0.0
C345 C 0.29304 0.17621 0.78559 0.0
C346 C 0.31357 0.15726 0.8043 0.0
H347 H 0.43733 0.17515 0.8252 0.0
H348 H 0.39808 0.18131 0.80412 0.0
H349 H 0.40987 0.20518 0.83892 0.0
H350 H 0.35094 0.21712 0.8517 0.0
H351 H 0.3154 0.25047 0.81883 0.0
H352 H 0.73039 0.28103 0.85883 0.0
H353 H 0.69198 0.3169 0.88458 0.0
H354 H 0.63447 0.32314 0.79712 0.0
H355 H 0.67249 0.28722 0.77121 0.0
H356 H 0.67774 0.38155 0.86539 0.0
H357 H 0.56276 0.29732 0.86363 0.0
H358 H 0.60469 0.28346 0.85826 0.0
H359 H 0.58302 0.30248 0.82622 0.0
C360 C 0.70946 0.28987 0.84512 0.0
C361 C 0.70443 0.28121 0.813 0.0
C362 C 0.6876 0.31037 0.85985 0.0
C363 C 0.66025 0.32228 0.8428 0.0
C364 C 0.65515 0.31373 0.81078 0.0
H365 H 0.50122 0.44935 0.89056 0.0
H366 H 0.53946 0.41455 0.86318 0.0
C367 C 0.67701 0.29333 0.796 0.0
C368 C 0.6376 0.34449 0.85823 0.0
H369 H 0.55596 0.35162 0.88002 0.0
C370 C 0.65113 0.37503 0.86873 0.0
C371 C 0.60292 0.33584 0.86229 0.0
C372 C 0.58742 0.3029 0.85227 0.0
C373 C 0.63073 0.39743 0.88294 0.0
C374 C 0.59609 0.38871 0.88724 0.0
C375 C 0.58253 0.35821 0.87659 0.0
C376 C 0.57363 0.41055 0.90349 0.0
C377 C 0.64628 0.43044 0.89272 0.0
C378 C 0.58013 0.41956 0.93523 0.0
C379 C 0.55844 0.43943 0.9509 0.0
C380 C 0.52968 0.45046 0.93515 0.0
C381 C 0.5232 0.44134 0.90333 0.0
C382 C 0.54497 0.42145 0.88766 0.0
H383 H 0.67013 0.43647 0.88013 0.0
H384 H 0.62848 0.44976 0.88798 0.0
H385 H 0.65233 0.43051 0.9185 0.0
H386 H 0.60175 0.41083 0.94804 0.0
H387 H 0.56406 0.44585 0.97547 0.0
H388 H 0.9276 0.43732 -0.0012 0.0
H389 H 0.89075 0.40493 0.0337 0.0
H390 H 0.9324 0.45947 0.11457 0.0
H391 H 0.96908 0.49216 0.07995 0.0
H392 H 0.91132 0.36636 0.08477 0.0
H393 H 0.82962 0.46312 0.12445 0.0
H394 H 0.85583 0.46736 0.09015 0.0
H395 H 0.87419 0.4732 0.12925 0.0
C396 C 0.92876 0.44259 0.02398 0.0
C397 C 0.9512 0.46738 0.0366 0.0
C398 C 0.90771 0.42405 0.04386 0.0
C399 C 0.90856 0.43015 0.0766 0.0
C400 C 0.93091 0.45483 0.08927 0.0
H401 H 0.81465 0.3417 0.23977 0.0
H402 H 0.84801 0.37521 0.20298 0.0
C403 C 0.952 0.47335 0.06945 0.0
C404 C 0.88708 0.40981 0.09771 0.0
H405 H 0.82472 0.41299 0.15187 0.0
C406 C 0.8922 0.37646 0.09928 0.0
C407 C 0.86228 0.42317 0.11663 0.0
C408 C 0.85485 0.45862 0.11493 0.0
C409 C 0.87365 0.35615 0.11988 0.0
C410 C 0.84899 0.36955 0.13895 0.0
C411 C 0.84372 0.40287 0.13724 0.0
C412 C 0.82852 0.34937 0.16099 0.0
C413 C 0.88119 0.32072 0.12167 0.0
C414 C 0.80621 0.32408 0.14944 0.0
C415 C 0.78714 0.30488 0.17036 0.0
C416 C 0.78994 0.31077 0.2032 0.0
C417 C 0.81199 0.33646 0.21463 0.0
C418 C 0.83103 0.35566 0.19367 0.0
H419 H 0.90604 0.31607 0.11138 0.0
H420 H 0.88114 0.31231 0.14657 0.0
H421 H 0.86134 0.30596 0.10813 0.0
H422 H 0.80348 0.31925 0.12423 0.0
H423 H 0.77027 0.28541 0.16076 0.0
H424 H 0.92997 0.51114 0.42767 0.0
H425 H 0.8959 0.54577 0.39454 0.0
H426 H 0.94559 0.63117 0.43848 0.0
H427 H 0.97987 0.59685 0.47165 0.0
H428 H 0.85186 0.59554 0.41529 0.0
H429 H 0.95737 0.64395 0.34143 0.0
H430 H 0.96006 0.60765 0.3648 0.0
H431 H 0.96478 0.64701 0.38354 0.0
C432 C 0.93368 0.53729 0.43029 0.0
C433 C 0.95775 0.55126 0.45218 0.0
C434 C 0.91417 0.55699 0.41139 0.0
C435 C 0.91861 0.59093 0.41386 0.0
C436 C 0.94222 0.60498 0.43594 0.0
H437 H 0.83288 0.75261 0.31846 0.0
H438 H 0.86512 0.71711 0.35219 0.0
C439 C 0.96165 0.58532 0.45495 0.0
C440 C 0.89835 0.6117 0.39346 0.0
H441 H 0.90465 0.66738 0.3343 0.0
C442 C 0.86329 0.61118 0.39747 0.0
C443 C 0.9135 0.63203 0.37036 0.0
C444 C 0.95096 0.63264 0.36447 0.0
C445 C 0.84293 0.63105 0.37933 0.0
C446 C 0.85808 0.65139 0.35617 0.0
C447 C 0.89316 0.65177 0.35211 0.0
C448 C 0.83806 0.67267 0.33598 0.0
C449 C 0.80558 0.63071 0.38567 0.0
C450 C 0.81242 0.65936 0.31545 0.0
C451 C 0.79385 0.67957 0.29623 0.0
C452 C 0.80084 0.71343 0.29699 0.0
C453 C 0.82683 0.72663 0.31733 0.0
C454 C 0.84528 0.70641 0.33661 0.0
H455 H 0.79967 0.62066 0.40936 0.0
H456 H 0.79626 0.65556 0.38421 0.0
H457 H 0.79153 0.61516 0.3676 0.0
H458 H 0.80698 0.6333 0.31409 0.0
H459 H 0.77415 0.66863 0.28066 0.0
H460 H 0.57393 0.55456 0.50766 0.0
H461 H 0.60818 0.59216 0.5423 0.0
H462 H 0.56045 0.54971 0.62409 0.0
H463 H 0.52627 0.51195 0.58979 0.0
H464 H 0.58405 0.63777 0.58714 0.0
H465 H 0.66305 0.54666 0.64414 0.0
H466 H 0.63923 0.5384 0.60768 0.0
H467 H 0.61822 0.53719 0.64491 0.0
C468 C 0.57083 0.55312 0.53303 0.0
C469 C 0.54748 0.53018 0.54599 0.0
C470 C 0.59037 0.57463 0.55274 0.0
C471 C 0.5871 0.57336 0.58571 0.0
C472 C 0.56372 0.55066 0.59871 0.0
H473 H 0.67882 0.68013 0.74625 0.0
H474 H 0.64498 0.64309 0.71082 0.0
C475 C 0.54411 0.52922 0.57905 0.0
C476 C 0.60755 0.59631 0.60653 0.0
H477 H 0.66772 0.60007 0.6658 0.0
C478 C 0.6025 0.62962 0.60424 0.0
C479 C 0.63143 0.58546 0.62883 0.0
C480 C 0.63862 0.55001 0.63147 0.0
C481 C 0.6203 0.65243 0.62418 0.0
C482 C 0.6442 0.64159 0.6465 0.0
C483 C 0.64931 0.60826 0.6487 0.0
C484 C 0.66431 0.66443 0.66776 0.0
C485 C 0.61276 0.68781 0.6217 0.0
C486 C 0.6866 0.68845 0.65524 0.0
C487 C 0.70589 0.70969 0.67539 0.0
C488 C 0.70342 0.7071 0.70844 0.0
C489 C 0.68125 0.68281 0.72091 0.0
C490 C 0.66193 0.66162 0.70072 0.0
H491 H 0.58794 0.69092 0.60965 0.0
H492 H 0.61271 0.69952 0.64549 0.0
H493 H 0.63261 0.70072 0.60766 0.0
H494 H 0.68934 0.69056 0.62988 0.0
H495 H 0.72288 0.72798 0.66502 0.0
H496 H 0.20964 0.26621 0.38071 0.0
H497 H 0.20556 0.26997 0.43824 0.0
H498 H 0.29296 0.21316 0.44948 0.0
H499 H 0.29755 0.20952 0.39188 0.0
H500 H 0.1991 0.22113 0.48496 0.0
H501 H 0.31909 0.29757 0.49966 0.0
H502 H 0.29805 0.29058 0.46163 0.0
H503 H 0.32236 0.25959 0.47902 0.0
C504 C 0.22789 0.25429 0.39537 0.0
C505 C 0.25413 0.23781 0.38171 0.0
C506 C 0.22548 0.25646 0.42824 0.0
C507 C 0.2493 0.24233 0.44804 0.0
C508 C 0.27472 0.22476 0.43455 0.0
H509 H 0.27836 0.25392 0.65336 0.0
H510 H 0.28294 0.24047 0.59711 0.0
C511 C 0.27717 0.22256 0.40164 0.0
C512 C 0.2479 0.24682 0.48276 0.0
H513 H 0.29048 0.28292 0.5462 0.0
C514 C 0.2191 0.23455 0.49841 0.0
C515 C 0.27408 0.26433 0.50016 0.0
C516 C 0.30506 0.27905 0.48433 0.0
C517 C 0.21574 0.23932 0.53109 0.0
C518 C 0.24163 0.25735 0.54838 0.0
C519 C 0.2707 0.26911 0.53284 0.0
C520 C 0.23858 0.26517 0.58242 0.0
C521 C 0.18465 0.22482 0.54687 0.0
C522 C 0.21246 0.28399 0.59266 0.0
C523 C 0.20977 0.29174 0.62472 0.0
C524 C 0.23332 0.28098 0.64712 0.0
C525 C 0.25977 0.26252 0.63672 0.0
C526 C 0.26242 0.25478 0.60461 0.0
H527 H 0.17224 0.20449 0.5326 0.0
H528 H 0.19099 0.21571 0.57082 0.0
H529 H 0.16614 0.24381 0.54946 0.0
H530 H 0.19426 0.29288 0.57579 0.0
H531 H 0.18921 0.30614 0.63191 0.0
H532 H 0.94852 0.94531 0.84919 0.0
H533 H 0.95324 0.95134 0.79195 0.0
H534 H 0.04198 0.01603 0.80621 0.0
H535 H 0.03757 0.01012 0.86367 0.0
H536 H 0.95336 0.01226 0.75821 0.0
H537 H 0.07025 0.94617 0.74112 0.0
H538 H 0.04487 0.94115 0.77591 0.0
H539 H 0.07219 0.97707 0.77159 0.0
C540 C 0.96918 0.9607 0.84022 0.0
C541 C 0.99272 0.97721 0.86099 0.0
C542 C 0.97179 0.96412 0.80751 0.0
C543 C -0.00188 0.98385 0.79494 0.0
C544 C 0.02175 0.00031 0.81551 0.0
H545 H 0.04724 0.02955 0.5996 0.0
H546 H 0.04745 0.02581 0.65743 0.0
C547 C 0.0191 0.99702 0.8483 0.0
C548 C -2e-05 0.98796 0.76029 0.0
H549 H 0.04684 0.97086 0.69608 0.0
C550 C 0.97378 0.00324 0.74458 0.0
C551 C 0.02679 0.97631 0.74274 0.0
C552 C 0.05508 0.95903 0.75854 0.0
C553 C 0.97366 0.00724 0.71165 0.0
C554 C 8e-05 0.99498 0.69396 0.0
C555 C 0.02659 0.98014 0.70974 0.0
C556 C 0.00024 0.99674 0.65898 0.0
C557 C 0.94546 0.02492 0.69614 0.0
C558 C 0.97393 0.98112 0.64074 0.0
C559 C 0.97367 0.98326 0.60776 0.0
C560 C -0.00012 0.00088 0.5924 0.0
C561 C 0.02661 0.0159 0.61072 0.0
C562 C 0.02681 0.01378 0.64374 0.0
H563 H 0.9329 0.04046 0.7134 0.0
H564 H 0.95502 0.04041 0.67652 0.0
H565 H 0.92608 0.00687 0.68618 0.0
H566 H 0.95357 0.96724 0.65203 0.0
H567 H 0.95284 0.97118 0.59436 0.0
H568 H 0.27464 0.79831 0.8807 0.0
H569 H 0.28196 0.79682 0.93843 0.0
H570 H 0.18282 0.74848 0.94553 0.0
H571 H 0.17476 0.75126 0.88829 0.0
H572 H 0.19313 0.79111 0.99175 0.0
H573 H 0.30516 0.71682 0.9848 0.0
H574 H 0.31098 0.75551 0.96599 0.0
H575 H 0.27971 0.72571 0.9504 0.0
C576 C 0.25432 0.78767 0.89466 0.0
C577 C 0.22425 0.77467 0.87996 0.0
C578 C 0.25863 0.78659 0.9276 0.0
C579 C 0.2333 0.77175 0.94625 0.0
C580 C 0.2028 0.75989 0.93165 0.0
H581 H 0.25893 0.68479 0.12905 0.0
H582 H 0.25105 0.69749 0.07308 0.0
C583 C 0.19823 0.76149 0.89887 0.0
C584 C 0.23861 0.76753 0.98084 0.0
H585 H 0.28978 0.73347 0.03583 0.0
C586 C 0.21429 0.77854 0.00142 0.0
C587 C 0.26596 0.75066 0.99337 0.0
C588 C 0.29175 0.7362 0.9725 0.0
C589 C 0.21629 0.77282 0.0341 0.0
C590 C 0.24406 0.75664 0.0467 0.0
C591 C 0.26861 0.74604 0.02617 0.0
C592 C 0.24761 0.74921 0.08088 0.0
C593 C 0.18792 0.78308 0.05452 0.0
C594 C 0.24833 0.77404 0.10392 0.0
C595 C 0.25225 0.76674 0.136 0.0
C596 C 0.25631 0.73457 0.14553 0.0
C597 C 0.25592 0.70981 0.12243 0.0
C598 C 0.25146 0.71705 0.09043 0.0
H599 H 0.1644 0.7862 0.04029 0.0
H600 H 0.18222 0.76501 0.07329 0.0
H601 H 0.19548 0.80678 0.06606 0.0
H602 H 0.24635 0.79914 0.09709 0.0
H603 H 0.25284 0.78638 0.15327 0.0
H604 H 0.44839 0.96827 0.35252 0.0
H605 H 0.44271 0.95965 0.29519 0.0
H606 H 0.46145 0.06253 0.28058 0.0
H607 H 0.46661 0.07151 0.33778 0.0
H608 H 0.41006 0.03376 0.24042 0.0
H609 H 0.52692 0.96529 0.24016 0.0
H610 H 0.4945 0.9494 0.26578 0.0
H611 H 0.51501 0.98876 0.27396 0.0
C612 C 0.45095 0.98912 0.33713 0.0
C613 C 0.45836 0.02054 0.34969 0.0
C614 C 0.44781 0.98412 0.3044 0.0
C615 C 0.45228 0.01039 0.2837 0.0
C616 C 0.45807 0.04193 0.29619 0.0
H617 H 0.51616 0.01313 0.09126 0.0
H618 H 0.50839 0.02011 0.14801 0.0
C619 C 0.46109 0.04698 0.3289 0.0
C620 C 0.4529 0.00497 0.24904 0.0
H621 H 0.49791 0.97011 0.19125 0.0
C622 C 0.42912 0.01972 0.2296 0.0
C623 C 0.47812 0.987 0.23509 0.0
C624 C 0.5053 0.97191 0.25473 0.0
C625 C 0.42998 0.01702 0.19645 0.0
C626 C 0.45504 -0.00119 0.18257 0.0
C627 C 0.47864 0.98391 0.20204 0.0
C628 C 0.45838 0.99598 0.14785 0.0
C629 C 0.40479 0.03447 0.17655 0.0
C630 C 0.43275 0.98014 0.12894 0.0
C631 C 0.43707 0.97614 0.09639 0.0
C632 C 0.46721 0.98774 0.0823 0.0
C633 C 0.49265 0.00388 0.10133 0.0
C634 C 0.48828 0.00789 0.13378 0.0
H635 H 0.39215 0.05303 0.19052 0.0
H636 H 0.4173 0.04655 0.15616 0.0
H637 H 0.38502 0.01655 0.16703 0.0
H638 H 0.40972 0.97029 0.13946 0.0
H639 H 0.41705 0.96349 0.08241 0.0
H640 H 0.35505 0.23601 0.29062 0.0
H641 H 0.41643 0.23346 0.28988 0.0
H642 H 0.42265 0.31215 0.22325 0.0
H643 H 0.36113 0.31523 0.22411 0.0
H644 H 0.45778 0.22234 0.23835 0.0
H645 H 0.48956 0.34346 0.29438 0.0
H646 H 0.44745 0.32418 0.29467 0.0
H647 H 0.46285 0.34346 0.25942 0.0
C648 C 0.3694 0.2528 0.27577 0.0
C649 C 0.35319 0.27594 0.25753 0.0
C650 C 0.40449 0.25129 0.27538 0.0
C651 C 0.42408 0.27291 0.25687 0.0
C652 C 0.40801 0.29566 0.23816 0.0
H653 H 0.6449 0.29356 0.24648 0.0
H654 H 0.58443 0.29925 0.23626 0.0
C655 C 0.37284 0.29723 0.23855 0.0
C656 C 0.4613 0.27121 0.25716 0.0
H657 H 0.53519 0.31276 0.27971 0.0
C658 C 0.47475 0.24214 0.24727 0.0
C659 C 0.48332 0.29723 0.26856 0.0
C660 C 0.47018 0.32879 0.28011 0.0
C661 C 0.50965 0.23817 0.24891 0.0
C662 C 0.53156 0.26372 0.26136 0.0
C663 C 0.51826 0.29319 0.2703 0.0
C664 C 0.56813 0.25977 0.2668 0.0
C665 C 0.52273 0.20664 0.23725 0.0
C666 C 0.57892 0.23593 0.28761 0.0
C667 C 0.61336 0.23258 0.29348 0.0
C668 C 0.63769 0.25321 0.27881 0.0
C669 C 0.6268 0.27722 0.25809 0.0
C670 C 0.59229 0.28054 0.25222 0.0
H671 H 0.50469 0.19398 0.22007 0.0
H672 H 0.54754 0.21082 0.22581 0.0
H673 H 0.5261 0.19027 0.25766 0.0
H674 H 0.56065 0.22014 0.29966 0.0
H675 H 0.62085 0.21397 0.30971 0.0
H676 H 0.96539 0.37066 0.49342 0.0
H677 H 0.95848 0.31137 0.49227 0.0
H678 H 0.04078 0.30734 0.42758 0.0
H679 H 0.04818 0.36677 0.42876 0.0
H680 H 0.94627 0.26723 0.43998 0.0
H681 H 0.069 0.25054 0.50299 0.0
H682 H 0.04975 0.28916 0.50205 0.0
H683 H 0.07082 0.27487 0.4679 0.0
C684 C 0.98194 0.35723 0.47879 0.0
C685 C 0.00753 0.37343 0.46138 0.0
C686 C 0.97791 0.32336 0.47814 0.0
C687 C -0.00055 0.30506 0.46022 0.0
C688 C 0.02429 0.32109 0.44197 0.0
H689 H 0.01344 0.09375 0.45853 0.0
H690 H 0.0221 0.15168 0.44663 0.0
C691 C 0.02834 0.35503 0.44256 0.0
C692 C 0.9962 0.26917 0.46143 0.0
H693 H 0.03573 0.20322 0.4888 0.0
C694 C 0.96588 0.25316 0.45046 0.0
C695 C 0.02194 0.25099 0.47501 0.0
C696 C 0.05466 0.26715 0.48791 0.0
C697 C 0.96041 0.21936 0.45308 0.0
C698 C 0.98568 0.20131 0.46762 0.0
C699 C 0.01641 0.21719 0.47772 0.0
C700 C 0.98004 0.16621 0.47415 0.0
C701 C 0.92762 0.20331 0.44025 0.0
C702 C 0.95388 0.15535 0.49396 0.0
C703 C 0.94886 0.12238 0.50079 0.0
C704 C 0.97011 0.09965 0.48814 0.0
C705 C 0.99659 0.11064 0.46858 0.0
C706 C 0.00157 0.14369 0.46173 0.0
H707 H 0.91587 0.21836 0.42179 0.0
H708 H 0.93155 0.17895 0.42999 0.0
H709 H 0.90953 0.20022 0.45982 0.0
H710 H 0.93752 0.17246 0.50442 0.0
H711 H 0.92837 0.11476 0.51609 0.0
H712 H 0.85305 0.72589 0.75718 0.0
H713 H 0.91367 0.72233 0.74872 0.0
H714 H 0.92697 0.82693 0.74967 0.0
H715 H 0.86647 0.83086 0.7581 0.0
H716 H 0.95758 0.75414 0.69852 0.0
H717 H 0.99002 0.79234 0.8229 0.0
H718 H 0.94817 0.77656 0.81075 0.0
H719 H 0.96226 0.81733 0.80089 0.0
C720 C 0.8688 0.74815 0.75535 0.0
C721 C 0.855 0.77867 0.75859 0.0
C722 C 0.90336 0.74605 0.75042 0.0
C723 C 0.92464 0.77436 0.74886 0.0
C724 C 0.91086 0.80484 0.75106 0.0
H725 H 0.14304 0.80394 0.75772 0.0
H726 H 0.08253 0.8118 0.75263 0.0
C727 C 0.8763 0.80699 0.75585 0.0
C728 C 0.96154 0.77201 0.74657 0.0
H729 H 0.03528 0.78345 0.78949 0.0
C730 C 0.97469 0.76058 0.71831 0.0
C731 C 0.98357 0.78053 0.77248 0.0
C732 C 0.97045 0.79219 0.80361 0.0
C733 C 0.00961 0.75769 0.71517 0.0
C734 C 0.03165 0.76576 0.74129 0.0
C735 C 0.01836 0.77739 0.76946 0.0
C736 C 0.06851 0.76157 0.74053 0.0
C737 C 0.02257 0.74655 0.68382 0.0
C738 C 0.08075 0.73078 0.73504 0.0
C739 C 0.11539 0.72625 0.73769 0.0
C740 C 0.1383 0.75235 0.74637 0.0
C741 C 0.12603 0.78331 0.7511 0.0
C742 C 0.09147 0.78786 0.74819 0.0
H743 H 0.0045 0.75107 0.66406 0.0
H744 H 0.04742 0.75902 0.67867 0.0
H745 H 0.02578 0.71999 0.68463 0.0
H746 H 0.06345 0.70997 0.72987 0.0
H747 H 0.12402 0.70206 0.73409 0.0
H748 H 0.45506 0.60672 0.93089 0.0
H749 H 0.46247 0.66612 0.92923 0.0
H750 H 0.52031 0.66647 0.01703 0.0
H751 H 0.51353 0.6073 0.01869 0.0
H752 H 0.44121 0.70982 0.97352 0.0
H753 H 0.58015 0.72452 0.96144 0.0
H754 H 0.55656 0.68621 0.95421 0.0
H755 H 0.56799 0.69916 0.99405 0.0
C756 C 0.46968 0.61942 0.94967 0.0
C757 C 0.48378 0.60227 0.97489 0.0
C758 C 0.47385 0.65334 0.94867 0.0
C759 C 0.49237 0.67062 0.97274 0.0
C760 C 0.5066 0.65355 -0.00217 0.0
H761 H 0.53182 0.86468 0.04141 0.0
H762 H 0.52588 0.80616 0.03118 0.0
C763 C 0.50249 0.61971 -0.00117 0.0
C764 C 0.49525 0.70661 0.9728 0.0
H765 H 0.55253 0.77173 0.97829 0.0
C766 C 0.4655 0.72343 0.97409 0.0
C767 C 0.527 0.72424 0.97347 0.0
C768 C 0.55973 0.70762 0.97039 0.0
C769 C 0.46672 0.7574 0.9775 0.0
C770 C 0.49851 0.77488 0.97932 0.0
C771 C 0.52821 0.75816 0.97706 0.0
C772 C 0.5016 0.81037 0.98513 0.0
C773 C 0.4341 0.77424 0.98044 0.0
C774 C 0.49004 0.83206 0.96247 0.0
C775 C 0.4934 0.86559 0.96822 0.0
C776 C 0.50845 0.87791 0.9967 0.0
C777 C 0.52004 0.85602 0.01927 0.0
C778 C 0.51675 0.82258 0.01346 0.0
H779 H 0.41217 0.75676 0.98429 0.0
H780 H 0.43601 0.79211 0.00034 0.0
H781 H 0.42911 0.7877 0.95834 0.0
H782 H 0.47869 0.82306 0.94027 0.0
H783 H 0.48433 0.88182 0.95031 0.0
H784 H 0.64273 0.85277 0.24966 0.0
H785 H 0.58185 0.84229 0.25582 0.0
H786 H 0.59732 0.74172 0.27596 0.0
H787 H 0.65823 0.75209 0.27051 0.0
H788 H 0.54055 0.80076 0.22021 0.0
H789 H 0.53509 0.76522 0.34627 0.0
H790 H 0.5723 0.78514 0.32957 0.0
H791 H 0.56354 0.74207 0.32407 0.0
C792 C 0.63322 0.8285 0.25577 0.0
C793 C 0.6553 0.80326 0.25964 0.0
C794 C 0.59844 0.82257 0.25929 0.0
C795 C 0.58512 0.79136 0.26682 0.0
C796 C 0.60713 0.76618 0.27094 0.0
H797 H 0.38913 0.69051 0.26437 0.0
H798 H 0.4493 0.70753 0.26833 0.0
C799 C 0.64193 0.77211 0.26759 0.0
C800 C 0.54806 0.78457 0.26807 0.0
H801 H 0.48516 0.75258 0.3144 0.0
C802 C 0.52837 0.7906 0.24093 0.0
C803 C 0.53228 0.77128 0.29514 0.0
C804 C 0.55184 0.76584 0.32552 0.0
C805 C 0.49345 0.78276 0.23977 0.0
C806 C 0.47784 0.76882 0.26658 0.0
C807 C 0.49735 0.76321 0.29389 0.0
C808 C 0.44139 0.75896 0.26619 0.0
C809 C 0.47363 0.78849 0.20958 0.0
C810 C 0.41715 0.78236 0.2643 0.0
C811 C 0.38275 0.77276 0.26208 0.0
C812 C 0.3721 0.73957 0.26169 0.0
C813 C 0.3965 0.71625 0.26444 0.0
C814 C 0.43086 0.72589 0.26679 0.0
H815 H 0.4904 0.79381 0.18932 0.0
H816 H 0.45646 0.76696 0.20343 0.0
H817 H 0.45784 0.80954 0.21304 0.0
H818 H 0.42488 0.80802 0.26418 0.0
H819 H 0.36459 0.79133 0.26012 0.0
H820 H 0.45519 0.10915 0.45844 0.0
H821 H 0.45355 0.16767 0.46764 0.0
H822 H 0.54636 0.16742 0.523 0.0
H823 H 0.54819 0.10872 0.51415 0.0
H824 H 0.49393 0.20529 0.54955 0.0
H825 H 0.52021 0.23385 0.42386 0.0
H826 H 0.48531 0.20477 0.42954 0.0
H827 H 0.5274 0.19474 0.44088 0.0
C828 C 0.47519 0.12145 0.47273 0.0
C829 C 0.50199 0.10432 0.48535 0.0
C830 C 0.47423 0.15489 0.47788 0.0
C831 C 0.50006 0.17181 0.49563 0.0
C832 C 0.52627 0.15471 0.50914 0.0
H833 H 0.54068 0.38023 0.48769 0.0
H834 H 0.54624 0.32163 0.4905 0.0
C835 C 0.5273 0.12122 0.50397 0.0
C836 C 0.50026 0.20753 0.49911 0.0
H837 H 0.50517 0.27747 0.45653 0.0
C838 C 0.49653 0.22117 0.5293 0.0
C839 C 0.50414 0.22805 0.47266 0.0
C840 C 0.5098 0.21473 0.43992 0.0
C841 C 0.49577 0.25497 0.53361 0.0
C842 C 0.49849 0.2754 0.50696 0.0
C843 C 0.50293 0.26171 0.4769 0.0
C844 C 0.4965 0.31109 0.50931 0.0
C845 C 0.4924 0.26854 0.5666 0.0
C846 C 0.46685 0.32462 0.51943 0.0
C847 C 0.46361 0.35818 0.51796 0.0
C848 C 0.48985 0.37868 0.50601 0.0
C849 C 0.51994 0.36511 0.4969 0.0
C850 C 0.52319 0.33163 0.4985 0.0
H851 H 0.49974 0.25094 0.58494 0.0
H852 H 0.50826 0.29149 0.57005 0.0
H853 H 0.46565 0.27391 0.57027 0.0
H854 H 0.44569 0.30913 0.52726 0.0
H855 H 0.44006 0.36786 0.52503 0.0
H856 H 0.13498 0.25361 0.73877 0.0
H857 H 0.0739 0.245 0.74388 0.0
H858 H 0.08096 0.288 0.83747 0.0
H859 H 0.14223 0.29728 0.83238 0.0
H860 H 0.03716 0.20959 0.78773 0.0
H861 H 0.00955 0.34029 0.79263 0.0
H862 H 0.04989 0.32675 0.7807 0.0
H863 H 0.03968 0.32789 0.8219 0.0
C864 C 0.12362 0.26122 0.7605 0.0
C865 C 0.14345 0.27631 0.78511 0.0
C866 C 0.0887 0.25626 0.76337 0.0
C867 C 0.07289 0.2663 0.79085 0.0
C868 C 0.09263 0.28068 0.81581 0.0
H869 H 0.86136 0.20387 0.82434 0.0
H870 H 0.92253 0.2146 0.83119 0.0
C871 C 0.12764 0.28576 0.81293 0.0
C872 C 0.0357 0.26149 0.79309 0.0
H873 H 0.96329 0.30206 0.79801 0.0
C874 C 0.02097 0.22976 0.79017 0.0
C875 C 0.01474 0.28795 0.79592 0.0
C876 C 0.02913 0.32269 0.7977 0.0
C877 C 0.98575 0.22374 0.78952 0.0
C878 C 0.96475 0.25016 0.7926 0.0
C879 C 0.9795 0.28187 0.79595 0.0
C880 C 0.92743 0.24557 0.79024 0.0
C881 C 0.97137 0.1893 0.78428 0.0
C882 C 0.90977 0.26047 0.76572 0.0
C883 C 0.87482 0.25471 0.76195 0.0
C884 C 0.85689 0.23385 0.78264 0.0
C885 C 0.87449 0.21979 0.80782 0.0
C886 C 0.90945 0.22576 0.81169 0.0
H887 H 0.9905 0.17327 0.77492 0.0
H888 H 0.96268 0.17921 0.80716 0.0
H889 H 0.94936 0.18856 0.76746 0.0
H890 H 0.92317 0.27595 0.74898 0.0
H891 H 0.86202 0.26599 0.74235 0.0
H892 H 0.93265 0.8689 0.98295 0.0
H893 H 0.9407 0.81072 0.98718 0.0
H894 H 0.04881 0.82985 0.98483 0.0
H895 H 0.04109 0.88815 0.9808 0.0
H896 H 0.97354 0.77394 0.94166 0.0
H897 H 0.03605 0.76787 0.06041 0.0
H898 H 0.01291 0.80222 0.04796 0.0
H899 H 0.055 0.79759 0.03435 0.0
C900 C 0.95818 0.86082 0.98371 0.0
C901 C 0.98624 0.88317 0.9815 0.0
C902 C 0.96271 0.82756 0.98612 0.0
C903 C 0.99534 0.81607 0.98665 0.0
C904 C 0.02344 0.83831 0.98502 0.0
H905 H 0.07611 0.62547 0.97895 0.0
H906 H 0.0678 0.68374 0.98299 0.0
C907 C 0.01895 0.87159 0.98254 0.0
C908 C -0.00018 0.78068 0.98664 0.0
H909 H 0.03468 0.71999 0.02848 0.0
C910 C 0.9867 0.76207 0.96073 0.0
C911 C 0.0172 0.76542 0.01147 0.0
C912 C 0.03089 0.78419 0.04029 0.0
C913 C 0.99099 0.72859 0.95867 0.0
C914 C 0.00826 0.71325 0.98354 0.0
C915 C 0.02139 0.73186 0.00949 0.0
C916 C 0.01316 0.67792 0.9828 0.0
C917 C 0.97775 0.71011 0.92948 0.0
C918 C 0.98519 0.65538 0.98209 0.0
C919 C 0.98982 0.62212 0.97965 0.0
C920 C 0.02255 0.61078 0.97813 0.0
C921 C 0.05057 0.6334 0.97992 0.0
C922 C 0.04589 0.66669 0.98228 0.0
H923 H 0.9731 0.72663 0.9094 0.0
H924 H 0.99577 0.69206 0.92191 0.0
H925 H 0.95342 0.69683 0.93488 0.0
H926 H 0.95975 0.66356 0.98313 0.0
H927 H 0.9677 0.60534 0.97863 0.0
H928 H 0.28057 0.38341 0.32373 0.0
H929 H 0.27192 0.44075 0.31413 0.0
H930 H 0.19762 0.41387 0.2409 0.0
H931 H 0.20612 0.35622 0.25021 0.0
H932 H 0.27974 0.4709 0.24986 0.0
H933 H 0.15311 0.48119 0.30265 0.0
H934 H 0.18098 0.45004 0.31444 0.0
H935 H 0.1592 0.44712 0.27676 0.0
C936 C 0.2622 0.3896 0.30571 0.0
C937 C 0.24406 0.36527 0.28769 0.0
C938 C 0.25731 0.42236 0.30029 0.0
C939 C 0.23398 0.43137 0.27702 0.0
C940 C 0.21547 0.40725 0.25921 0.0
H941 H 0.18373 0.62682 0.21983 0.0
H942 H 0.18313 0.56768 0.22622 0.0
C943 C 0.22048 0.3744 0.26448 0.0
C944 C 0.23053 0.46614 0.2704 0.0
H945 H 0.17871 0.52855 0.28045 0.0
C946 C 0.25763 0.48354 0.2564 0.0
C947 C 0.20148 0.48227 0.27873 0.0
C948 C 0.17197 0.4644 0.29413 0.0
C949 C 0.25665 0.51693 0.2508 0.0
C950 C 0.22813 0.53342 0.2602 0.0
C951 C 0.20059 0.51582 0.27343 0.0
C952 C 0.2272 0.56914 0.25757 0.0
C953 C 0.28613 0.5342 0.23472 0.0
C954 C 0.25158 0.58945 0.27377 0.0
C955 C 0.25211 0.62307 0.27008 0.0
C956 C 0.22798 0.63707 0.25036 0.0
C957 C 0.20272 0.61676 0.2351 0.0
C958 C 0.20233 0.583 0.23871 0.0
H959 H 0.3007 0.517 0.22086 0.0
H960 H 0.27749 0.55335 0.21861 0.0
H961 H 0.30352 0.54593 0.25297 0.0
H962 H 0.27049 0.57925 0.28906 0.0
H963 H 0.27168 0.63804 0.28246 0.0
H964 H 0.6764 0.11583 0.71697 0.0
H965 H 0.6724 0.05761 0.72844 0.0
H966 H 0.75476 0.07142 0.79675 0.0
H967 H 0.75931 0.1294 0.78516 0.0
H968 H 0.76366 0.02212 0.75433 0.0
H969 H 0.63595 0.00886 0.80574 0.0
H970 H 0.63701 0.02812 0.76775 0.0
H971 H 0.65854 0.04786 0.80125 0.0
C972 C 0.69344 0.10652 0.73465 0.0
C973 C 0.71823 0.12723 0.75009 0.0
C974 C 0.69097 0.07328 0.74132 0.0
C975 C 0.71302 0.0603 0.76372 0.0
C976 C 0.73742 0.081 0.77947 0.0
H977 H 0.7088 0.86693 0.84362 0.0
H978 H 0.70437 0.92507 0.83418 0.0
C979 C 0.73998 0.11414 0.77278 0.0
C980 C 0.71232 0.02485 0.76933 0.0
H981 H 0.66256 0.95996 0.79421 0.0
C982 C 0.74158 0.00853 0.76311 0.0
C983 C 0.6836 0.00731 0.78112 0.0
C984 C 0.65207 0.02392 0.78966 0.0
C985 C 0.74286 0.97505 0.76808 0.0
C986 C 0.7138 0.95728 0.77889 0.0
C987 C 0.68464 0.97363 0.78554 0.0
C988 C 0.71362 0.92179 0.784 0.0
C989 C 0.77557 0.95914 0.76228 0.0
C990 C 0.71933 0.90063 0.75873 0.0
C991 C 0.72213 0.8675 0.76406 0.0
C992 C 0.71886 0.85487 0.79473 0.0
C993 C 0.71154 0.8759 0.81974 0.0
C994 C 0.70896 0.90911 0.8144 0.0
H995 H 0.79751 0.97723 0.76219 0.0
H996 H 0.78039 0.94069 0.78059 0.0
H997 H 0.77391 0.94673 0.73882 0.0
H998 H 0.72227 0.90986 0.73496 0.0
H999 H 0.72742 0.8519 0.74422 0.0
H1000 H 0.38061 0.40668 0.00401 0.0
H1001 H 0.31943 0.39745 0.99507 0.0
H1002 H 0.31457 0.49463 0.95885 0.0
H1003 H 0.37547 0.50402 0.96744 0.0
H1004 H 0.27077 0.43365 0.02354 0.0
H1005 H 0.25896 0.4394 0.89286 0.0
H1006 H 0.29854 0.43285 0.91328 0.0
H1007 H 0.28401 0.47325 0.90971 0.0
C1008 C 0.36658 0.42591 0.9937 0.0
C1009 C 0.38286 0.45611 0.98649 0.0
C1010 C 0.33167 0.42059 0.98863 0.0
C1011 C 0.31261 0.44521 0.97592 0.0
C1012 C 0.32893 0.47508 0.96807 0.0
H1013 H 0.11262 0.50171 0.9962 0.0
H1014 H 0.17236 0.49047 0.00069 0.0
C1015 C 0.36372 0.48048 0.97323 0.0
C1016 C 0.27531 0.44101 0.97334 0.0
H1017 H 0.20869 0.4486 0.92182 0.0
C1018 C 0.25715 0.43634 0.00123 0.0
C1019 C 0.25762 0.44412 0.94417 0.0
C1020 C 0.27578 0.44735 0.91325 0.0
C1021 C 0.22176 0.43661 0.00097 0.0
C1022 C 0.20426 0.44206 0.97214 0.0
C1023 C 0.22225 0.4448 0.94397 0.0
C1024 C 0.16764 0.44726 0.97101 0.0
C1025 C 0.20345 0.43165 0.03162 0.0
C1026 C 0.14528 0.42685 0.95256 0.0
C1027 C 0.11107 0.43324 0.94989 0.0
C1028 C 0.09878 0.46038 0.96535 0.0
C1029 C 0.12124 0.48055 0.98409 0.0
C1030 C 0.15536 0.47406 0.98683 0.0
H1031 H 0.21876 0.41846 0.04912 0.0
H1032 H 0.1986 0.45571 0.04205 0.0
H1033 H 0.17875 0.41787 0.02762 0.0
H1034 H 0.15439 0.40619 0.93999 0.0
H1035 H 0.09445 0.4173 0.93518 0.0
H1036 H 0.78218 0.17308 0.2414 0.0
H1037 H 0.79453 0.11663 0.23047 0.0
H1038 H 0.76607 0.09032 0.32521 0.0
H1039 H 0.75449 0.14676 0.33662 0.0
H1040 H 0.82403 0.06247 0.30722 0.0
H1041 H 0.72297 0.04353 0.2143 0.0
H1042 H 0.75302 0.07675 0.2069 0.0
H1043 H 0.72584 0.0786 0.2403 0.0
C1044 C 0.77857 0.15528 0.25991 0.0
C1045 C 0.7671 0.16433 0.2898 0.0
C1046 C 0.7855 0.12302 0.25358 0.0
C1047 C 0.78062 0.09921 0.27685 0.0
C1048 C 0.76988 0.10832 0.30689 0.0
H1049 H 0.77693 0.89189 0.29334 0.0
H1050 H 0.77942 0.95062 0.30238 0.0
C1051 C 0.7632 0.14058 0.31333 0.0
C1052 C 0.78621 0.06466 0.26992 0.0
H1053 H 0.75837 0.00023 0.22299 0.0
C1054 C 0.80975 0.04885 0.28875 0.0
C1055 C 0.7675 0.04698 0.24583 0.0
C1056 C 0.74069 0.06219 0.22584 0.0
C1057 C 0.81503 0.01577 0.28417 0.0
C1058 C 0.79605 -0.00192 0.26033 0.0
C1059 C 0.77301 0.014 0.24112 0.0
C1060 C 0.79813 0.96261 0.25595 0.0
C1061 C 0.84084 1e-05 0.30483 0.0
C1062 C 0.80777 0.94993 0.2268 0.0
C1063 C 0.80628 0.91635 0.22149 0.0
C1064 C 0.79476 0.8949 0.24516 0.0
C1065 C 0.78597 0.90772 0.27463 0.0
C1066 C 0.78758 0.94128 0.27993 0.0
H1067 H 0.85942 0.01831 0.31574 0.0
H1068 H 0.82772 0.9868 0.32422 0.0
H1069 H 0.85471 0.9822 0.29105 0.0
H1070 H 0.81578 0.96608 0.20795 0.0
H1071 H 0.8132 0.90728 0.19854 0.0
H1072 H 0.8933 0.05012 0.9172 0.0
H1073 H 0.83247 0.05413 0.92444 0.0
H1074 H 0.83836 0.99734 0.00941 0.0
H1075 H 0.89898 0.99309 0.00241 0.0
H1076 H 0.78476 -0.00208 0.92831 0.0
H1077 H 0.78516 0.07764 0.03497 0.0
H1078 H 0.82121 0.07583 0.0097 0.0
H1079 H 0.81242 0.04439 0.03805 0.0
C1080 C 0.88173 0.03883 0.93764 0.0
C1081 C 0.90094 0.02127 0.95923 0.0
C1082 C 0.84701 0.04113 0.9417 0.0
C1083 C 0.83112 0.02634 0.96763 0.0
C1084 C 0.85033 0.00936 0.98952 0.0
H1085 H 0.63664 0.98045 0.04202 0.0
H1086 H 0.69634 0.99167 0.03089 0.0
C1087 C 0.88492 0.00681 0.98537 0.0
C1088 C 0.79407 0.02655 0.97081 0.0
H1089 H 0.73304 0.04853 0.02104 0.0
C1090 C 0.77328 0.00935 0.9483 0.0
C1091 C 0.77941 0.04145 0.99697 0.0
C1092 C 0.80063 0.06113 0.0212 0.0
C1093 C 0.7382 0.00523 0.95209 0.0
C1094 C 0.72356 0.01942 0.97876 0.0
C1095 C 0.74431 0.03761 0.00067 0.0
C1096 C 0.68714 0.01393 0.98552 0.0
C1097 C 0.71745 0.98439 0.92836 0.0
C1098 C 0.66211 0.0232 0.96392 0.0
C1099 C 0.62788 0.01649 0.97007 0.0
C1100 C 0.61814 0.00084 -0.00183 0.0
C1101 C 0.64328 0.9925 0.02015 0.0
C1102 C 0.67743 -0.00107 0.01385 0.0
H1103 H 0.73349 0.96909 0.91386 0.0
H1104 H 0.69844 0.96824 0.94039 0.0
H1105 H 0.70378 0.00031 0.91203 0.0
H1106 H 0.66902 0.03551 0.94227 0.0
H1107 H 0.60909 0.02353 0.95282 0.0
H1108 H 0.28015 0.66738 0.75083 0.0
H1109 H 0.28926 0.60961 0.74259 0.0
H1110 H 0.22474 0.58507 0.82069 0.0
H1111 H 0.21534 0.64254 0.82908 0.0
H1112 H 0.3145 0.56237 0.78748 0.0
H1113 H 0.18303 0.53168 0.74357 0.0
H1114 H 0.2013 0.57288 0.74535 0.0
H1115 H 0.18641 0.55342 0.7807 0.0
C1116 C 0.26796 0.64969 0.7663 0.0
C1117 C 0.2468 0.65951 0.79046 0.0
C1118 C 0.27326 0.61676 0.76159 0.0
C1119 C 0.25732 0.5932 0.7808 0.0
C1120 C 0.23686 0.60295 0.80536 0.0
H1121 H 0.23811 0.38469 0.78933 0.0
H1122 H 0.23777 0.44317 0.79892 0.0
C1123 C 0.23161 0.6358 0.81015 0.0
C1124 C 0.26144 0.55828 0.77488 0.0
H1125 H 0.21732 0.48756 0.75363 0.0
C1126 C 0.29338 0.54595 0.77989 0.0
C1127 C 0.23377 0.53712 0.76494 0.0
C1128 C 0.19922 0.54938 0.75803 0.0
C1129 C 0.29815 0.51264 0.77608 0.0
C1130 C 0.27034 0.49143 0.76653 0.0
C1131 C 0.23854 0.50391 0.76111 0.0
C1132 C 0.27328 0.45605 0.76232 0.0
C1133 C 0.33258 0.50026 0.78315 0.0
C1134 C 0.29362 0.44394 0.73869 0.0
C1135 C 0.29393 0.41044 0.73314 0.0
C1136 C 0.27369 0.38858 0.75099 0.0
C1137 C 0.25393 0.40085 0.77508 0.0
C1138 C 0.25369 0.43425 0.78062 0.0
H1139 H 0.34901 0.51819 0.79712 0.0
H1140 H 0.33035 0.47711 0.79641 0.0
H1141 H 0.3452 0.4955 0.76053 0.0
H1142 H 0.30847 0.46043 0.72395 0.0
H1143 H 0.30935 0.40177 0.71436 0.0
H1144 H 0.1239 0.5423 0.53041 0.0
H1145 H 0.18489 0.5453 0.52185 0.0
H1146 H 0.17017 0.47729 0.44382 0.0
H1147 H 0.10929 0.47437 0.45191 0.0
H1148 H 0.22512 0.49255 0.52603 0.0
H1149 H 0.23415 0.54803 0.40729 0.0
H1150 H 0.19692 0.54975 0.43099 0.0
H1151 H 0.20419 0.51367 0.40845 0.0
C1152 C 0.13358 0.52836 0.51112 0.0
C1153 C 0.11175 0.50805 0.49188 0.0
C1154 C 0.16842 0.53012 0.50627 0.0
C1155 C 0.18196 0.51185 0.48196 0.0
C1156 C 0.16017 0.49213 0.46228 0.0
H1157 H 0.37284 0.44926 0.42379 0.0
H1158 H 0.31387 0.46155 0.43065 0.0
C1159 C 0.12537 0.49032 0.46711 0.0
C1160 C 0.21902 0.51103 0.47886 0.0
H1161 H 0.28269 0.52127 0.42618 0.0
C1162 C 0.23786 0.49929 0.50439 0.0
C1163 C 0.23543 0.51973 0.45054 0.0
C1164 C 0.2167 0.5338 0.42285 0.0
C1165 C 0.27249 0.49468 0.50191 0.0
C1166 C 0.28874 0.50262 0.47331 0.0
C1167 C 0.27009 0.51517 0.44805 0.0
C1168 C 0.3247 0.49648 0.46862 0.0
C1169 C 0.29105 0.48005 0.52942 0.0
C1170 C 0.35033 0.51242 0.48744 0.0
C1171 C 0.38409 0.50534 0.48371 0.0
C1172 C 0.39275 0.48234 0.46092 0.0
C1173 C 0.36703 0.46698 0.44165 0.0
C1174 C 0.33333 0.47404 0.44545 0.0
H1175 H 0.27338 0.46881 0.5468 0.0
H1176 H 0.30784 0.46127 0.52105 0.0
H1177 H 0.30702 0.49941 0.54189 0.0
H1178 H 0.34421 0.53025 0.50509 0.0
H1179 H 0.40334 0.51778 0.49875 0.0
H1180 H 0.81868 0.78142 0.89673 0.0
H1181 H 0.81431 0.77584 0.95396 0.0
H1182 H 0.7211 0.71722 0.9408 0.0
H1183 H 0.72496 0.72309 0.88334 0.0
H1184 H 0.71638 0.76717 0.98375 0.0
H1185 H 0.82985 0.69931 0.01151 0.0
H1186 H 0.83918 0.73522 0.98884 0.0
H1187 H 0.81264 0.70236 0.97174 0.0
C1188 C 0.79741 0.76703 0.90593 0.0
C1189 C 0.77213 0.75273 0.88546 0.0
C1190 C 0.79511 0.76366 0.93868 0.0
C1191 C 0.76767 0.74569 0.9516 0.0
C1192 C 0.74261 0.73099 0.93125 0.0
H1193 H 0.70546 0.72571 0.14819 0.0
H1194 H 0.71021 0.7185 0.09096 0.0
C1195 C 0.74487 0.73438 0.89845 0.0
C1196 C 0.7639 0.74441 0.98637 0.0
H1197 H 0.80442 0.72508 0.0553 0.0
C1198 C 0.73538 0.75757 -0.0006 0.0
C1199 C 0.78881 0.73196 0.00669 0.0
C1200 C 0.81918 0.71612 0.99399 0.0
C1201 C 0.73167 0.75972 0.03228 0.0
C1202 C 0.75695 0.74793 0.0526 0.0
C1203 C 0.78515 0.73417 0.0396 0.0
C1204 C 0.75506 0.75073 0.08744 0.0
C1205 C 0.70137 0.77565 0.04503 0.0
C1206 C 0.77929 0.7705 0.10447 0.0
C1207 C 0.77674 0.77461 0.13718 0.0
C1208 C 0.74997 0.75885 0.15344 0.0
C1209 C 0.72625 0.73835 0.13637 0.0
C1210 C 0.72883 0.73428 0.10366 0.0
H1211 H 0.68824 0.78958 0.02654 0.0
H1212 H 0.68307 0.75663 0.05391 0.0
H1213 H 0.70896 0.79235 0.06507 0.0
H1214 H 0.79979 0.7833 0.09233 0.0
H1215 H 0.79549 0.79047 0.14962 0.0
H1216 H 0.52855 0.50472 0.3705 0.0
H1217 H 0.52417 0.5094 0.31286 0.0
H1218 H 0.48245 0.4104 0.30575 0.0
H1219 H 0.48784 0.40515 0.36314 0.0
H1220 H 0.5256 0.4236 0.25916 0.0
H1221 H 0.4355 0.52115 0.26715 0.0
H1222 H 0.47514 0.53158 0.28715 0.0
H1223 H 0.44823 0.49826 0.30113 0.0
C1224 C 0.51874 0.48386 0.35662 0.0
C1225 C 0.50821 0.45469 0.37138 0.0
C1226 C 0.51602 0.48664 0.32372 0.0
C1227 C 0.50212 0.46053 0.30512 0.0
C1228 C 0.49299 0.43094 0.31968 0.0
H1229 H 0.4153 0.48068 0.11649 0.0
H1230 H 0.42524 0.47035 0.17273 0.0
C1231 C 0.4961 0.428 0.35251 0.0
C1232 C 0.49615 0.46424 0.27061 0.0
H1233 H 0.45592 0.50988 0.21608 0.0
C1234 C 0.51032 0.44242 0.2497 0.0
C1235 C 0.47555 0.48834 0.25838 0.0
C1236 C 0.45743 0.51094 0.27962 0.0
C1237 C 0.50493 0.4444 0.21683 0.0
C1238 C 0.48559 0.46943 0.20456 0.0
C1239 C 0.47104 0.49092 0.22551 0.0
C1240 C 0.47985 0.47382 0.17011 0.0
C1241 C 0.51936 0.41923 0.19567 0.0
C1242 C 0.50724 0.47928 0.14998 0.0
C1243 C 0.50163 0.4849 0.11777 0.0
C1244 C 0.4685 0.48571 0.10522 0.0
C1245 C 0.44111 0.48029 0.12544 0.0
C1246 C 0.44675 0.47436 0.15757 0.0
H1247 H 0.52425 0.39668 0.20883 0.0
H1248 H 0.50203 0.4128 0.17524 0.0
H1249 H 0.5438 0.42914 0.18642 0.0
H1250 H 0.53298 0.47981 0.15927 0.0
H1251 H 0.52327 0.48924 0.10285 0.0
H1252 H 0.69627 0.3143 0.39196 0.0
H1253 H 0.70265 0.30872 0.44942 0.0
H1254 H 0.79551 0.26102 0.43695 0.0
H1255 H 0.7896 0.26672 0.37968 0.0
H1256 H 0.70481 0.24884 0.47984 0.0
H1257 H 0.82067 0.32691 0.50799 0.0
H1258 H 0.79669 0.33009 0.47136 0.0
H1259 H 0.82561 0.29837 0.47629 0.0
C1260 C 0.71838 0.30317 0.40147 0.0
C1261 C 0.74241 0.29091 0.38124 0.0
C1262 C 0.72194 0.29996 0.43428 0.0
C1263 C 0.74971 0.28476 0.44741 0.0
C1264 C 0.77423 0.27339 0.42734 0.0
H1265 H 0.81164 0.21231 0.62918 0.0
H1266 H 0.80538 0.22713 0.57348 0.0
C1267 C 0.77069 0.27652 0.39457 0.0
C1268 C 0.75164 0.27819 0.48176 0.0
H1269 H 0.80221 0.28969 0.54792 0.0
C1270 C 0.72589 0.25806 0.49485 0.0
C1271 C 0.7793 0.2901 0.50115 0.0
C1272 C 0.807 0.31281 0.48859 0.0
C1273 C 0.72754 0.24868 0.52667 0.0
C1274 C 0.75542 0.26026 0.54596 0.0
C1275 C 0.78094 0.28077 0.53299 0.0
C1276 C 0.75877 0.25105 0.57962 0.0
C1277 C 0.70002 0.22563 0.53905 0.0
C1278 C 0.7347 0.25976 0.6015 0.0
C1279 C 0.73811 0.25122 0.63329 0.0
C1280 C 0.76582 0.23403 0.64382 0.0
C1281 C 0.78996 0.22545 0.62183 0.0
C1282 C 0.78649 0.23397 0.59003 0.0
H1283 H 0.68522 0.21281 0.51954 0.0
H1284 H 0.71079 0.20721 0.55478 0.0
H1285 H 0.68233 0.23958 0.55304 0.0
H1286 H 0.71346 0.27347 0.59404 0.0
H1287 H 0.71918 0.25839 0.64964 0.0
H1288 H 0.97388 0.49787 0.59087 0.0
H1289 H 0.97081 0.50517 0.64827 0.0
H1290 H 0.0561 0.44593 0.66173 0.0
H1291 H 0.05886 0.43785 0.60451 0.0
H1292 H 0.00552 0.43059 0.70292 0.0
H1293 H 0.03539 0.56396 0.70214 0.0
H1294 H -0.00067 0.55079 0.67779 0.0
H1295 H 0.04059 0.53838 0.66792 0.0
C1296 C 0.99198 0.4864 0.60605 0.0
C1297 C 0.01674 0.46744 0.59314 0.0
C1298 C 0.99029 0.49073 0.63883 0.0
C1299 C 0.01359 0.47654 0.6592 0.0
C1300 C 0.03795 0.45718 0.6464 0.0
H1301 H 0.06854 0.52809 0.85205 0.0
H1302 H 0.06511 0.51844 0.79496 0.0
C1303 C 0.03952 0.45264 0.61368 0.0
C1304 C 0.01279 0.48186 0.69389 0.0
H1305 H 0.02043 0.54082 0.75131 0.0
C1306 C 0.00873 0.45468 0.71355 0.0
C1307 C 0.01742 0.51329 0.70764 0.0
C1308 C 0.02375 0.54327 0.68785 0.0
C1309 C 0.00921 0.45807 0.74666 0.0
C1310 C 0.01313 0.48957 0.76035 0.0
C1311 C 0.01712 0.51673 0.74069 0.0
C1312 C 0.01481 0.49491 0.79508 0.0
C1313 C 0.00655 0.42788 0.76664 0.0
C1314 C 0.98751 0.48511 0.81406 0.0
C1315 C 0.98945 0.49045 0.84682 0.0
C1316 C 0.01861 0.50597 0.86105 0.0
C1317 C 0.04571 0.51608 0.84186 0.0
C1318 C 0.0438 0.5106 0.80921 0.0
H1319 H 0.01216 0.40578 0.75291 0.0
H1320 H 0.02416 0.4302 0.7875 0.0
H1321 H 0.98041 0.42435 0.77538 0.0
H1322 H 0.96462 0.47357 0.80352 0.0
H1323 H 0.96808 0.48255 0.86094 0.0
H1324 H 0.87251 0.00043 0.44497 0.0
H1325 H 0.8119 0.00018 0.43299 0.0
H1326 H 0.79343 0.92392 0.50076 0.0
H1327 H 0.85412 0.92419 0.51326 0.0
H1328 H 0.76335 0.95014 0.41224 0.0
H1329 H 0.73724 -0.00139 0.53205 0.0
H1330 H 0.77939 -0.00125 0.51674 0.0
H1331 H 0.75936 0.96178 0.53131 0.0
C1332 C 0.85564 0.98338 0.45717 0.0
C1333 C 0.8681 0.96259 0.48037 0.0
C1334 C 0.82102 0.98324 0.45022 0.0
C1335 C 0.79823 0.96242 0.46637 0.0
C1336 C 0.81064 0.94056 0.48845 0.0
H1337 H 0.57857 0.96053 0.47188 0.0
H1338 H 0.63742 0.94651 0.47825 0.0
C1339 C 0.84532 0.94067 0.49546 0.0
C1340 C 0.76144 0.96494 0.46116 0.0
H1341 H 0.69049 0.98804 0.49739 0.0
C1342 C 0.74732 0.95825 0.43085 0.0
C1343 C 0.74072 0.97563 0.48552 0.0
C1344 C 0.75487 0.98439 0.51819 0.0
C1345 C 0.71286 0.96195 0.42425 0.0
C1346 C 0.69228 0.97319 0.44848 0.0
C1347 C 0.70634 0.97934 0.4789 0.0
C1348 C 0.65637 0.97994 0.44271 0.0
C1349 C 0.6988 0.95359 0.39148 0.0
C1350 C 0.64755 0.00346 0.42067 0.0
C1351 C 0.61392 0.0115 0.41692 0.0
C1352 C 0.58857 0.99638 0.43539 0.0
C1353 C 0.59748 0.97264 0.45728 0.0
C1354 C 0.63108 0.96456 0.46094 0.0
H1355 H 0.71479 0.93659 0.37891 0.0
H1356 H 0.67264 0.94244 0.39243 0.0
H1357 H 0.69818 0.97615 0.37738 0.0
H1358 H 0.66679 0.0162 0.40692 0.0
H1359 H 0.60794 0.02999 0.39996 0.0
loop_
_geom_bond_atom_site_label_1
_geom_bond_atom_site_label_2
_geom_bond_distance
_geom_bond_site_symmetry_2
_ccdc_geom_bond_type
C0 O1 1.160 . S
C0 O7 1.185 . S
O1 C0 1.160 . S
O2 Zn3 1.899 . S
O2 C10 1.284 . S
Zn3 O2 1.899 . S
Zn3 O4 2.032 . S
Zn3 O7 2.086 . S
Zn3 O12 1.977 . S
O4 Zn3 2.032 . S
O4 C8 1.278 . S
C5 O6 1.203 . S
C5 O12 1.267 . S
O6 C5 1.203 . S
O7 C0 1.185 . S
O7 Zn3 2.086 . S
C8 O4 1.278 . S
C8 O9 1.211 . S
O9 C8 1.211 . S
C10 O2 1.284 . S
C10 O11 1.273 . S
O11 C10 1.273 . S
O12 Zn3 1.977 . S
O12 C5 1.267 . S
C13 O14 1.160 1_455 S
C13 O20 1.185 . S
O14 C13 1.160 1_655 S
O15 Zn16 1.899 . S
O15 C23 1.284 . S
Zn16 O15 1.899 . S
Zn16 O17 2.032 1_545 S
Zn16 O20 2.086 1_645 S
Zn16 O25 1.977 1_655 S
O17 Zn16 2.032 1_565 S
O17 C21 1.278 1_565 S
C18 O19 1.203 . S
C18 O25 1.267 1_655 S
O19 C18 1.203 . S
O20 C13 1.185 . S
O20 Zn16 2.086 1_465 S
C21 O17 1.278 1_545 S
C21 O22 1.211 . S
O22 C21 1.211 . S
C23 O15 1.284 . S
C23 O24 1.273 . S
O24 C23 1.273 . S
O25 Zn16 1.977 1_455 S
O25 C18 1.267 1_455 S
C26 O27 1.160 . S
C26 O33 1.185 . S
O27 C26 1.160 . S
O28 Zn29 1.899 . S
O28 C36 1.284 . S
Zn29 O28 1.899 . S
Zn29 O30 2.032 . S
Zn29 O33 2.086 . S
Zn29 O38 1.977 . S
O30 Zn29 2.032 . S
O30 C34 1.278 . S
C31 O32 1.203 . S
C31 O38 1.267 . S
O32 C31 1.203 . S
O33 C26 1.185 . S
O33 Zn29 2.086 . S
C34 O30 1.278 . S
C34 O35 1.211 . S
O35 C34 1.211 . S
C36 O28 1.284 . S
C36 O37 1.273 . S
O37 C36 1.273 . S
O38 Zn29 1.977 . S
O38 C31 1.267 . S
C39 O40 1.160 . S
C39 O46 1.156 1_545 S
O40 C39 1.160 . S
O41 Zn42 1.899 1_556 S
O41 C49 1.284 1_556 S
Zn42 O41 1.899 1_554 S
Zn42 O43 2.032 1_565 S
Zn42 O46 2.101 1_554 S
Zn42 O51 1.977 . S
O43 Zn42 2.032 1_545 S
O43 C47 1.278 1_545 S
C44 O45 1.203 . S
C44 O51 1.267 . S
O45 C44 1.203 . S
O46 C39 1.156 1_565 S
O46 Zn42 2.101 1_556 S
C47 O43 1.278 1_565 S
C47 O48 1.211 . S
O48 C47 1.211 . S
C49 O41 1.284 1_554 S
C49 O50 1.273 . S
O50 C49 1.273 . S
O51 Zn42 1.977 . S
O51 C44 1.267 . S
C52 O53 1.160 . S
C52 O59 1.185 . S
O53 C52 1.160 . S
O54 Zn55 1.899 . S
O54 C62 1.284 . S
Zn55 O54 1.899 . S
Zn55 O56 2.032 . S
Zn55 O59 2.086 . S
Zn55 O64 1.977 . S
O56 Zn55 2.032 . S
O56 C60 1.278 . S
C57 O58 1.203 . S
C57 O64 1.267 . S
O58 C57 1.203 . S
O59 C52 1.185 . S
O59 Zn55 2.086 . S
C60 O56 1.278 . S
C60 O61 1.211 . S
O61 C60 1.211 . S
C62 O54 1.284 . S
C62 O63 1.273 . S
O63 C62 1.273 . S
O64 Zn55 1.977 . S
O64 C57 1.267 . S
C65 O66 1.160 1_565 S
C65 O72 1.185 . S
O66 C65 1.160 1_545 S
O67 Zn68 1.899 . S
O67 C75 1.284 . S
Zn68 O67 1.899 . S
Zn68 O69 2.032 . S
Zn68 O72 2.086 1_545 S
Zn68 O77 1.974 1_545 S
O69 Zn68 2.032 . S
O69 C73 1.278 . S
C70 O71 1.203 . S
C70 O77 1.262 1_545 S
O71 C70 1.203 . S
O72 C65 1.185 . S
O72 Zn68 2.086 1_565 S
C73 O69 1.278 . S
C73 O74 1.211 . S
O74 C73 1.211 . S
C75 O67 1.284 . S
C75 O76 1.273 . S
O76 C75 1.273 . S
O77 Zn68 1.974 1_565 S
O77 C70 1.262 1_565 S
C78 O79 1.160 . S
C78 O85 1.185 . S
O79 C78 1.160 . S
O80 Zn81 1.899 . S
O80 C88 1.284 . S
Zn81 O80 1.899 . S
Zn81 O82 2.032 . S
Zn81 O85 2.086 . S
Zn81 O90 1.977 . S
O82 Zn81 2.032 . S
O82 C86 1.278 . S
C83 O84 1.203 . S
C83 O90 1.267 . S
O84 C83 1.203 . S
O85 C78 1.185 . S
O85 Zn81 2.086 . S
C86 O82 1.278 . S
C86 O87 1.211 . S
O87 C86 1.211 . S
C88 O80 1.284 . S
C88 O89 1.273 . S
O89 C88 1.273 . S
O90 Zn81 1.977 . S
O90 C83 1.267 . S
C91 O92 1.160 1_545 S
C91 O98 1.185 1_554 S
O92 C91 1.160 1_565 S
O93 Zn94 1.899 1_455 S
O93 C101 1.284 1_455 S
Zn94 O93 1.899 1_655 S
Zn94 O95 2.032 . S
Zn94 O98 2.086 1_665 S
Zn94 O103 1.979 . S
O95 Zn94 2.032 . S
O95 C99 1.278 . S
C96 O97 1.203 . S
C96 O103 1.269 . S
O97 C96 1.203 . S
O98 C91 1.185 1_556 S
O98 Zn94 2.086 1_445 S
C99 O95 1.278 . S
C99 O100 1.211 . S
O100 C99 1.211 . S
C101 O93 1.284 1_655 S
C101 O102 1.273 . S
O102 C101 1.273 . S
O103 Zn94 1.979 . S
O103 C96 1.269 . S
C104 O105 1.160 . S
C104 O111 1.185 . S
O105 C104 1.160 . S
O106 Zn107 1.899 . S
O106 C114 1.284 . S
Zn107 O106 1.899 . S
Zn107 O108 2.032 . S
Zn107 O111 2.086 . S
Zn107 O116 1.977 . S
O108 Zn107 2.032 . S
O108 C112 1.278 . S
C109 O110 1.203 . S
C109 O116 1.267 . S
O110 C109 1.203 . S
O111 C104 1.185 . S
O111 Zn107 2.086 . S
C112 O108 1.278 . S
C112 O113 1.211 . S
O113 C112 1.211 . S
C114 O106 1.284 . S
C114 O115 1.273 . S
O115 C114 1.273 . S
O116 Zn107 1.977 . S
O116 C109 1.267 . S
C117 O118 1.160 . S
C117 O124 1.185 1_554 S
O118 C117 1.160 . S
O119 Zn120 1.899 1_655 S
O119 C127 1.284 1_655 S
Zn120 O119 1.899 1_455 S
Zn120 O121 2.032 . S
Zn120 O124 2.086 1_455 S
Zn120 O129 1.978 . S
O121 Zn120 2.032 . S
O121 C125 1.278 . S
C122 O123 1.203 . S
C122 O129 1.270 . S
O123 C122 1.203 . S
O124 C117 1.185 1_556 S
O124 Zn120 2.086 1_655 S
C125 O121 1.278 . S
C125 O126 1.211 . S
O126 C125 1.211 . S
C127 O119 1.284 1_455 S
C127 O128 1.273 . S
O128 C127 1.273 . S
O129 Zn120 1.978 . S
O129 C122 1.270 . S
C130 O131 1.160 . S
C130 O137 1.185 . S
O131 C130 1.160 . S
O132 Zn133 1.899 . S
O132 C140 1.284 . S
Zn133 O132 1.899 . S
Zn133 O134 2.032 . S
Zn133 O137 2.086 . S
Zn133 O142 1.977 . S
O134 Zn133 2.032 . S
O134 C138 1.278 . S
C135 O136 1.203 . S
C135 O142 1.267 . S
O136 C135 1.203 . S
O137 C130 1.185 . S
O137 Zn133 2.086 . S
C138 O134 1.278 . S
C138 O139 1.211 . S
O139 C138 1.211 . S
C140 O132 1.284 . S
C140 O141 1.273 . S
O141 C140 1.273 . S
O142 Zn133 1.977 . S
O142 C135 1.267 . S
C143 O144 1.160 1_655 S
C143 O150 1.185 . S
O144 C143 1.160 1_455 S
O145 Zn146 1.899 . S
O145 C153 1.284 . S
Zn146 O145 1.899 . S
Zn146 O147 2.032 . S
Zn146 O150 2.086 1_455 S
Zn146 O155 1.977 1_455 S
O147 Zn146 2.032 . S
O147 C151 1.278 . S
C148 O149 1.203 . S
C148 O155 1.267 1_455 S
O149 C148 1.203 . S
O150 C143 1.185 . S
O150 Zn146 2.086 1_655 S
C151 O147 1.278 . S
C151 O152 1.211 . S
O152 C151 1.211 . S
C153 O145 1.284 . S
C153 O154 1.273 . S
O154 C153 1.273 . S
O155 Zn146 1.977 1_655 S
O155 C148 1.267 1_655 S
C156 O157 1.160 . S
C156 O163 1.185 . S
O157 C156 1.160 . S
O158 Zn159 1.899 1_556 S
O158 C166 1.284 1_556 S
Zn159 O158 1.899 1_554 S
Zn159 O160 2.032 . S
Zn159 O163 2.086 1_554 S
Zn159 O168 1.977 . S
O160 Zn159 2.032 . S
O160 C164 1.278 . S
C161 O162 1.203 . S
C161 O168 1.267 . S
O162 C161 1.203 . S
O163 C156 1.185 . S
O163 Zn159 2.086 1_556 S
C164 O160 1.278 . S
C164 O165 1.211 . S
O165 C164 1.211 . S
C166 O158 1.284 1_554 S
C166 O167 1.273 . S
O167 C166 1.273 . S
O168 Zn159 1.977 . S
O168 C161 1.267 . S
C169 O170 1.160 . S
C169 O176 1.185 . S
O170 C169 1.160 . S
O171 Zn172 1.899 . S
O171 C179 1.284 . S
Zn172 O171 1.899 . S
Zn172 O173 2.032 . S
Zn172 O176 2.086 . S
Zn172 O181 1.977 . S
O173 Zn172 2.032 . S
O173 C177 1.278 . S
C174 O175 1.203 . S
C174 O181 1.267 . S
O175 C174 1.203 . S
O176 C169 1.185 . S
O176 Zn172 2.086 . S
C177 O173 1.278 . S
C177 O178 1.211 . S
O178 C177 1.211 . S
C179 O171 1.284 . S
C179 O180 1.273 . S
O180 C179 1.273 . S
O181 Zn172 1.977 . S
O181 C174 1.267 . S
C182 O183 1.160 . S
C182 O189 1.185 . S
O183 C182 1.160 . S
O184 Zn185 1.899 . S
O184 C192 1.284 . S
Zn185 O184 1.899 . S
Zn185 O186 2.032 . S
Zn185 O189 2.086 . S
Zn185 O194 1.977 . S
O186 Zn185 2.032 . S
O186 C190 1.278 . S
C187 O188 1.203 . S
C187 O194 1.267 . S
O188 C187 1.203 . S
O189 C182 1.185 . S
O189 Zn185 2.086 . S
C190 O186 1.278 . S
C190 O191 1.211 . S
O191 C190 1.211 . S
C192 O184 1.284 . S
C192 O193 1.273 . S
O193 C192 1.273 . S
O194 Zn185 1.977 . S
O194 C187 1.267 . S
C195 O196 1.160 . S
C195 O202 1.185 . S
O196 C195 1.160 . S
O197 Zn198 1.899 . S
O197 C205 1.284 . S
Zn198 O197 1.899 . S
Zn198 O199 2.032 . S
Zn198 O202 2.086 . S
Zn198 O207 1.977 . S
O199 Zn198 2.032 . S
O199 C203 1.278 . S
C200 O201 1.203 . S
C200 O207 1.267 . S
O201 C200 1.203 . S
O202 C195 1.185 . S
O202 Zn198 2.086 . S
C203 O199 1.278 . S
C203 O204 1.211 . S
O204 C203 1.211 . S
C205 O197 1.284 . S
C205 O206 1.273 . S
O206 C205 1.273 . S
O207 Zn198 1.977 . S
O207 C200 1.267 . S
H208 C216 0.929 . S
H209 C218 0.930 . S
H210 C220 0.930 . S
H211 C223 0.929 . S
H212 C226 0.930 . S
H213 C228 0.960 . S
H214 C228 0.960 . S
H215 C228 0.960 . S
C216 H208 0.929 . S
C216 C217 1.377 . S
C216 C218 1.384 . S
C217 C216 1.377 . S
C217 C223 1.390 . S
C218 H209 0.930 . S
C218 C216 1.384 . S
C218 C219 1.372 . S
C219 C218 1.372 . S
C219 C220 1.400 . S
C219 C224 1.490 . S
C220 H210 0.930 . S
C220 C219 1.400 . S
C220 C223 1.386 . S
H221 C237 0.930 . S
H222 C238 0.931 . S
C223 H211 0.929 . S
C223 C217 1.390 . S
C223 C220 1.386 . S
C224 C219 1.490 . S
C224 C226 1.395 . S
C224 C227 1.403 . S
H225 C231 0.930 . S
C226 H212 0.930 . S
C226 C224 1.395 . S
C226 C229 1.403 . S
C227 C224 1.403 . S
C227 C228 1.524 . S
C227 C231 1.400 . S
C228 H213 0.960 . S
C228 H214 0.960 . S
C228 H215 0.960 . S
C228 C227 1.524 . S
C229 C226 1.403 . S
C229 C230 1.392 . S
C229 C233 1.495 . S
C230 C229 1.392 . S
C230 C231 1.385 . S
C230 C232 1.478 . S
C231 H225 0.930 . S
C231 C227 1.400 . S
C231 C230 1.385 . S
C232 C230 1.478 . S
C232 C234 1.381 . S
C232 C238 1.383 . S
C233 C229 1.495 . S
C233 H239 0.959 . S
C233 H240 0.961 . S
C233 H241 0.960 . S
C234 C232 1.381 . S
C234 C235 1.394 . S
C234 H242 0.930 . S
C235 C234 1.394 . S
C235 C236 1.383 . S
C235 H243 0.929 . S
C236 C235 1.383 . S
C236 C237 1.377 . S
C237 H221 0.930 . S
C237 C236 1.377 . S
C237 C238 1.379 . S
C238 H222 0.931 . S
C238 C232 1.383 . S
C238 C237 1.379 . S
H239 C233 0.959 . S
H240 C233 0.961 . S
H241 C233 0.960 . S
H242 C234 0.930 . S
H243 C235 0.929 . S
H244 C252 0.929 . S
H245 C254 0.930 . S
H246 C256 0.930 . S
H247 C259 0.929 . S
H248 C262 0.930 . S
H249 C264 0.960 . S
H250 C264 0.960 . S
H251 C264 0.960 . S
C252 H244 0.929 . S
C252 C253 1.377 . S
C252 C254 1.384 . S
C253 C252 1.377 . S
C253 C259 1.390 . S
C254 H245 0.930 . S
C254 C252 1.384 . S
C254 C255 1.372 . S
C255 C254 1.372 . S
C255 C256 1.400 . S
C255 C260 1.490 . S
C256 H246 0.930 . S
C256 C255 1.400 . S
C256 C259 1.386 . S
H257 C273 0.930 . S
H258 C274 0.931 . S
C259 H247 0.929 . S
C259 C253 1.390 . S
C259 C256 1.386 . S
C260 C255 1.490 . S
C260 C262 1.395 . S
C260 C263 1.403 . S
H261 C267 0.930 . S
C262 H248 0.930 . S
C262 C260 1.395 . S
C262 C265 1.403 . S
C263 C260 1.403 . S
C263 C264 1.524 . S
C263 C267 1.400 . S
C264 H249 0.960 . S
C264 H250 0.960 . S
C264 H251 0.960 . S
C264 C263 1.524 . S
C265 C262 1.403 . S
C265 C266 1.392 . S
C265 C269 1.495 . S
C266 C265 1.392 . S
C266 C267 1.385 . S
C266 C268 1.478 . S
C267 H261 0.930 . S
C267 C263 1.400 . S
C267 C266 1.385 . S
C268 C266 1.478 . S
C268 C270 1.381 . S
C268 C274 1.383 . S
C269 C265 1.495 . S
C269 H275 0.959 . S
C269 H276 0.961 . S
C269 H277 0.960 . S
C270 C268 1.381 . S
C270 C271 1.394 . S
C270 H278 0.930 . S
C271 C270 1.394 . S
C271 C272 1.383 . S
C271 H279 0.929 . S
C272 C271 1.383 . S
C272 C273 1.377 . S
C273 H257 0.930 . S
C273 C272 1.377 . S
C273 C274 1.379 . S
C274 H258 0.931 . S
C274 C268 1.383 . S
C274 C273 1.379 . S
H275 C269 0.959 . S
H276 C269 0.961 . S
H277 C269 0.960 . S
H278 C270 0.930 . S
H279 C271 0.929 . S
H280 C288 0.929 . S
H281 C290 0.930 . S
H282 C292 0.930 . S
H283 C295 0.929 . S
H284 C298 0.930 . S
H285 C300 0.960 . S
H286 C300 0.960 . S
H287 C300 0.960 . S
C288 H280 0.929 . S
C288 C289 1.377 . S
C288 C290 1.384 . S
C289 C288 1.377 . S
C289 C295 1.390 . S
C290 H281 0.930 . S
C290 C288 1.384 . S
C290 C291 1.372 . S
C291 C290 1.372 . S
C291 C292 1.400 . S
C291 C296 1.490 . S
C292 H282 0.930 . S
C292 C291 1.400 . S
C292 C295 1.386 . S
H293 C309 0.930 . S
H294 C310 0.931 . S
C295 H283 0.929 . S
C295 C289 1.390 . S
C295 C292 1.386 . S
C296 C291 1.490 . S
C296 C298 1.395 . S
C296 C299 1.403 . S
H297 C303 0.930 . S
C298 H284 0.930 . S
C298 C296 1.395 . S
C298 C301 1.403 . S
C299 C296 1.403 . S
C299 C300 1.524 . S
C299 C303 1.400 . S
C300 H285 0.960 . S
C300 H286 0.960 . S
C300 H287 0.960 . S
C300 C299 1.524 . S
C301 C298 1.403 . S
C301 C302 1.392 . S
C301 C305 1.495 . S
C302 C301 1.392 . S
C302 C303 1.385 . S
C302 C304 1.478 . S
C303 H297 0.930 . S
C303 C299 1.400 . S
C303 C302 1.385 . S
C304 C302 1.478 . S
C304 C306 1.381 . S
C304 C310 1.383 . S
C305 C301 1.495 . S
C305 H311 0.959 . S
C305 H312 0.961 . S
C305 H313 0.960 . S
C306 C304 1.381 . S
C306 C307 1.394 . S
C306 H314 0.930 . S
C307 C306 1.394 . S
C307 C308 1.383 . S
C307 H315 0.929 . S
C308 C307 1.383 . S
C308 C309 1.377 . S
C309 H293 0.930 . S
C309 C308 1.377 . S
C309 C310 1.379 . S
C310 H294 0.931 . S
C310 C304 1.383 . S
C310 C309 1.379 . S
H311 C305 0.959 . S
H312 C305 0.961 . S
H313 C305 0.960 . S
H314 C306 0.930 . S
H315 C307 0.929 . S
H316 C324 0.929 . S
H317 C326 0.930 . S
H318 C328 0.930 . S
H319 C331 0.929 . S
H320 C334 0.930 . S
H321 C336 0.960 . S
H322 C336 0.960 . S
H323 C336 0.960 . S
C324 H316 0.929 . S
C324 C325 1.377 . S
C324 C326 1.384 . S
C325 C324 1.377 . S
C325 C331 1.390 . S
C326 H317 0.930 . S
C326 C324 1.384 . S
C326 C327 1.372 . S
C327 C326 1.372 . S
C327 C328 1.400 . S
C327 C332 1.490 . S
C328 H318 0.930 . S
C328 C327 1.400 . S
C328 C331 1.386 . S
H329 C345 0.930 . S
H330 C346 0.931 . S
C331 H319 0.929 . S
C331 C325 1.390 . S
C331 C328 1.386 . S
C332 C327 1.490 . S
C332 C334 1.395 . S
C332 C335 1.403 . S
H333 C339 0.930 . S
C334 H320 0.930 . S
C334 C332 1.395 . S
C334 C337 1.403 . S
C335 C332 1.403 . S
C335 C336 1.524 . S
C335 C339 1.400 . S
C336 H321 0.960 . S
C336 H322 0.960 . S
C336 H323 0.960 . S
C336 C335 1.524 . S
C337 C334 1.403 . S
C337 C338 1.392 . S
C337 C341 1.495 . S
C338 C337 1.392 . S
C338 C339 1.385 . S
C338 C340 1.478 . S
C339 H333 0.930 . S
C339 C335 1.400 . S
C339 C338 1.385 . S
C340 C338 1.478 . S
C340 C342 1.381 . S
C340 C346 1.383 . S
C341 C337 1.495 . S
C341 H347 0.959 . S
C341 H348 0.961 . S
C341 H349 0.960 . S
C342 C340 1.381 . S
C342 C343 1.394 . S
C342 H350 0.930 . S
C343 C342 1.394 . S
C343 C344 1.383 . S
C343 H351 0.929 . S
C344 C343 1.383 . S
C344 C345 1.377 . S
C345 H329 0.930 . S
C345 C344 1.377 . S
C345 C346 1.379 . S
C346 H330 0.931 . S
C346 C340 1.383 . S
C346 C345 1.379 . S
H347 C341 0.959 . S
H348 C341 0.961 . S
H349 C341 0.960 . S
H350 C342 0.930 . S
H351 C343 0.929 . S
H352 C360 0.929 . S
H353 C362 0.930 . S
H354 C364 0.930 . S
H355 C367 0.929 . S
H356 C370 0.930 . S
H357 C372 0.960 . S
H358 C372 0.960 . S
H359 C372 0.960 . S
C360 H352 0.929 . S
C360 C361 1.377 . S
C360 C362 1.384 . S
C361 C360 1.377 . S
C361 C367 1.390 . S
C362 H353 0.930 . S
C362 C360 1.384 . S
C362 C363 1.372 . S
C363 C362 1.372 . S
C363 C364 1.400 . S
C363 C368 1.490 . S
C364 H354 0.930 . S
C364 C363 1.400 . S
C364 C367 1.386 . S
H365 C381 0.930 . S
H366 C382 0.931 . S
C367 H355 0.929 . S
C367 C361 1.390 . S
C367 C364 1.386 . S
C368 C363 1.490 . S
C368 C370 1.395 . S
C368 C371 1.403 . S
H369 C375 0.930 . S
C370 H356 0.930 . S
C370 C368 1.395 . S
C370 C373 1.403 . S
C371 C368 1.403 . S
C371 C372 1.524 . S
C371 C375 1.400 . S
C372 H357 0.960 . S
C372 H358 0.960 . S
C372 H359 0.960 . S
C372 C371 1.524 . S
C373 C370 1.403 . S
C373 C374 1.392 . S
C373 C377 1.495 . S
C374 C373 1.392 . S
C374 C375 1.385 . S
C374 C376 1.478 . S
C375 H369 0.930 . S
C375 C371 1.400 . S
C375 C374 1.385 . S
C376 C374 1.478 . S
C376 C378 1.381 . S
C376 C382 1.383 . S
C377 C373 1.495 . S
C377 H383 0.959 . S
C377 H384 0.961 . S
C377 H385 0.960 . S
C378 C376 1.381 . S
C378 C379 1.394 . S
C378 H386 0.930 . S
C379 C378 1.394 . S
C379 C380 1.383 . S
C379 H387 0.929 . S
C380 C379 1.383 . S
C380 C381 1.377 . S
C381 H365 0.930 . S
C381 C380 1.377 . S
C381 C382 1.379 . S
C382 H366 0.931 . S
C382 C376 1.383 . S
C382 C381 1.379 . S
H383 C377 0.959 . S
H384 C377 0.961 . S
H385 C377 0.960 . S
H386 C378 0.930 . S
H387 C379 0.929 . S
H388 C396 0.929 . S
H389 C398 0.930 . S
H390 C400 0.930 . S
H391 C403 0.929 . S
H392 C406 0.930 . S
H393 C408 0.960 . S
H394 C408 0.960 . S
H395 C408 0.960 . S
C396 H388 0.929 . S
C396 C397 1.377 . S
C396 C398 1.384 . S
C397 C396 1.377 . S
C397 C403 1.390 . S
C398 H389 0.930 . S
C398 C396 1.384 . S
C398 C399 1.372 . S
C399 C398 1.372 . S
C399 C400 1.400 . S
C399 C404 1.490 . S
C400 H390 0.930 . S
C400 C399 1.400 . S
C400 C403 1.386 . S
H401 C417 0.930 . S
H402 C418 0.931 . S
C403 H391 0.929 . S
C403 C397 1.390 . S
C403 C400 1.386 . S
C404 C399 1.490 . S
C404 C406 1.395 . S
C404 C407 1.403 . S
H405 C411 0.930 . S
C406 H392 0.930 . S
C406 C404 1.395 . S
C406 C409 1.403 . S
C407 C404 1.403 . S
C407 C408 1.524 . S
C407 C411 1.400 . S
C408 H393 0.960 . S
C408 H394 0.960 . S
C408 H395 0.960 . S
C408 C407 1.524 . S
C409 C406 1.403 . S
C409 C410 1.392 . S
C409 C413 1.495 . S
C410 C409 1.392 . S
C410 C411 1.385 . S
C410 C412 1.478 . S
C411 H405 0.930 . S
C411 C407 1.400 . S
C411 C410 1.385 . S
C412 C410 1.478 . S
C412 C414 1.381 . S
C412 C418 1.383 . S
C413 C409 1.495 . S
C413 H419 0.959 . S
C413 H420 0.961 . S
C413 H421 0.960 . S
C414 C412 1.381 . S
C414 C415 1.394 . S
C414 H422 0.930 . S
C415 C414 1.394 . S
C415 C416 1.383 . S
C415 H423 0.929 . S
C416 C415 1.383 . S
C416 C417 1.377 . S
C417 H401 0.930 . S
C417 C416 1.377 . S
C417 C418 1.379 . S
C418 H402 0.931 . S
C418 C412 1.383 . S
C418 C417 1.379 . S
H419 C413 0.959 . S
H420 C413 0.961 . S
H421 C413 0.960 . S
H422 C414 0.930 . S
H423 C415 0.929 . S
H424 C432 0.929 . S
H425 C434 0.930 . S
H426 C436 0.930 . S
H427 C439 0.929 . S
H428 C442 0.930 . S
H429 C444 0.960 . S
H430 C444 0.960 . S
H431 C444 0.960 . S
C432 H424 0.929 . S
C432 C433 1.377 . S
C432 C434 1.384 . S
C433 C432 1.377 . S
C433 C439 1.390 . S
C434 H425 0.930 . S
C434 C432 1.384 . S
C434 C435 1.372 . S
C435 C434 1.372 . S
C435 C436 1.400 . S
C435 C440 1.490 . S
C436 H426 0.930 . S
C436 C435 1.400 . S
C436 C439 1.386 . S
H437 C453 0.930 . S
H438 C454 0.931 . S
C439 H427 0.929 . S
C439 C433 1.390 . S
C439 C436 1.386 . S
C440 C435 1.490 . S
C440 C442 1.395 . S
C440 C443 1.403 . S
H441 C447 0.930 . S
C442 H428 0.930 . S
C442 C440 1.395 . S
C442 C445 1.403 . S
C443 C440 1.403 . S
C443 C444 1.524 . S
C443 C447 1.400 . S
C444 H429 0.960 . S
C444 H430 0.960 . S
C444 H431 0.960 . S
C444 C443 1.524 . S
C445 C442 1.403 . S
C445 C446 1.392 . S
C445 C449 1.495 . S
C446 C445 1.392 . S
C446 C447 1.385 . S
C446 C448 1.478 . S
C447 H441 0.930 . S
C447 C443 1.400 . S
C447 C446 1.385 . S
C448 C446 1.478 . S
C448 C450 1.381 . S
C448 C454 1.383 . S
C449 C445 1.495 . S
C449 H455 0.959 . S
C449 H456 0.961 . S
C449 H457 0.960 . S
C450 C448 1.381 . S
C450 C451 1.394 . S
C450 H458 0.930 . S
C451 C450 1.394 . S
C451 C452 1.383 . S
C451 H459 0.929 . S
C452 C451 1.383 . S
C452 C453 1.377 . S
C453 H437 0.930 . S
C453 C452 1.377 . S
C453 C454 1.379 . S
C454 H438 0.931 . S
C454 C448 1.383 . S
C454 C453 1.379 . S
H455 C449 0.959 . S
H456 C449 0.961 . S
H457 C449 0.960 . S
H458 C450 0.930 . S
H459 C451 0.929 . S
H460 C468 0.929 . S
H461 C470 0.930 . S
H462 C472 0.930 . S
H463 C475 0.929 . S
H464 C478 0.930 . S
H465 C480 0.960 . S
H466 C480 0.960 . S
H467 C480 0.960 . S
C468 H460 0.929 . S
C468 C469 1.377 . S
C468 C470 1.384 . S
C469 C468 1.377 . S
C469 C475 1.390 . S
C470 H461 0.930 . S
C470 C468 1.384 . S
C470 C471 1.372 . S
C471 C470 1.372 . S
C471 C472 1.400 . S
C471 C476 1.490 . S
C472 H462 0.930 . S
C472 C471 1.400 . S
C472 C475 1.386 . S
H473 C489 0.930 . S
H474 C490 0.931 . S
C475 H463 0.929 . S
C475 C469 1.390 . S
C475 C472 1.386 . S
C476 C471 1.490 . S
C476 C478 1.395 . S
C476 C479 1.403 . S
H477 C483 0.930 . S
C478 H464 0.930 . S
C478 C476 1.395 . S
C478 C481 1.403 . S
C479 C476 1.403 . S
C479 C480 1.524 . S
C479 C483 1.400 . S
C480 H465 0.960 . S
C480 H466 0.960 . S
C480 H467 0.960 . S
C480 C479 1.524 . S
C481 C478 1.403 . S
C481 C482 1.392 . S
C481 C485 1.495 . S
C482 C481 1.392 . S
C482 C483 1.385 . S
C482 C484 1.478 . S
C483 H477 0.930 . S
C483 C479 1.400 . S
C483 C482 1.385 . S
C484 C482 1.478 . S
C484 C486 1.381 . S
C484 C490 1.383 . S
C485 C481 1.495 . S
C485 H491 0.959 . S
C485 H492 0.961 . S
C485 H493 0.960 . S
C486 C484 1.381 . S
C486 C487 1.394 . S
C486 H494 0.930 . S
C487 C486 1.394 . S
C487 C488 1.383 . S
C487 H495 0.929 . S
C488 C487 1.383 . S
C488 C489 1.377 . S
C489 H473 0.930 . S
C489 C488 1.377 . S
C489 C490 1.379 . S
C490 H474 0.931 . S
C490 C484 1.383 . S
C490 C489 1.379 . S
H491 C485 0.959 . S
H492 C485 0.961 . S
H493 C485 0.960 . S
H494 C486 0.930 . S
H495 C487 0.929 . S
H496 C504 0.929 . S
H497 C506 0.930 . S
H498 C508 0.930 . S
H499 C511 0.929 . S
H500 C514 0.930 . S
H501 C516 0.960 . S
H502 C516 0.960 . S
H503 C516 0.960 . S
C504 H496 0.929 . S
C504 C505 1.377 . S
C504 C506 1.384 . S
C505 C504 1.377 . S
C505 C511 1.390 . S
C506 H497 0.930 . S
C506 C504 1.384 . S
C506 C507 1.372 . S
C507 C506 1.372 . S
C507 C508 1.400 . S
C507 C512 1.490 . S
C508 H498 0.930 . S
C508 C507 1.400 . S
C508 C511 1.386 . S
H509 C525 0.930 . S
H510 C526 0.931 . S
C511 H499 0.929 . S
C511 C505 1.390 . S
C511 C508 1.386 . S
C512 C507 1.490 . S
C512 C514 1.395 . S
C512 C515 1.403 . S
H513 C519 0.930 . S
C514 H500 0.930 . S
C514 C512 1.395 . S
C514 C517 1.403 . S
C515 C512 1.403 . S
C515 C516 1.524 . S
C515 C519 1.400 . S
C516 H501 0.960 . S
C516 H502 0.960 . S
C516 H503 0.960 . S
C516 C515 1.524 . S
C517 C514 1.403 . S
C517 C518 1.392 . S
C517 C521 1.495 . S
C518 C517 1.392 . S
C518 C519 1.385 . S
C518 C520 1.478 . S
C519 H513 0.930 . S
C519 C515 1.400 . S
C519 C518 1.385 . S
C520 C518 1.478 . S
C520 C522 1.381 . S
C520 C526 1.383 . S
C521 C517 1.495 . S
C521 H527 0.959 . S
C521 H528 0.961 . S
C521 H529 0.960 . S
C522 C520 1.381 . S
C522 C523 1.394 . S
C522 H530 0.930 . S
C523 C522 1.394 . S
C523 C524 1.383 . S
C523 H531 0.929 . S
C524 C523 1.383 . S
C524 C525 1.377 . S
C525 H509 0.930 . S
C525 C524 1.377 . S
C525 C526 1.379 . S
C526 H510 0.931 . S
C526 C520 1.383 . S
C526 C525 1.379 . S
H527 C521 0.959 . S
H528 C521 0.961 . S
H529 C521 0.960 . S
H530 C522 0.930 . S
H531 C523 0.929 . S
H532 C540 0.929 . S
H533 C542 0.930 . S
H534 C544 0.930 . S
H535 C547 0.929 . S
H536 C550 0.927 1_545 S
H537 C552 0.960 . S
H538 C552 0.960 . S
H539 C552 0.960 . S
C540 H532 0.929 . S
C540 C541 1.377 . S
C540 C542 1.384 . S
C541 C540 1.377 . S
C541 C547 1.390 1_665 S
C542 H533 0.930 . S
C542 C540 1.384 . S
C542 C543 1.372 . S
C543 C542 1.372 . S
C543 C544 1.400 1_665 S
C543 C548 1.490 . S
C544 H534 0.930 . S
C544 C543 1.400 1_445 S
C544 C547 1.386 . S
H545 C561 0.930 . S
H546 C562 0.931 . S
C547 H535 0.929 . S
C547 C541 1.390 1_445 S
C547 C544 1.386 . S
C548 C543 1.490 . S
C548 C550 1.399 . S
C548 C551 1.403 1_655 S
H549 C555 0.930 . S
C550 H536 0.927 1_565 S
C550 C548 1.399 . S
C550 C553 1.402 1_565 S
C551 C548 1.403 1_455 S
C551 C552 1.524 . S
C551 C555 1.400 . S
C552 H537 0.960 . S
C552 H538 0.960 . S
C552 H539 0.960 . S
C552 C551 1.524 . S
C553 C550 1.402 1_545 S
C553 C554 1.383 1_545 S
C553 C557 1.508 . S
C554 C553 1.383 1_565 S
C554 C555 1.385 1_655 S
C554 C556 1.478 . S
C555 H549 0.930 . S
C555 C551 1.400 . S
C555 C554 1.385 1_455 S
C556 C554 1.478 . S
C556 C558 1.381 . S
C556 C562 1.383 1_665 S
C557 C553 1.508 . S
C557 H563 0.959 . S
C557 H564 0.961 . S
C557 H565 0.960 1_545 S
C558 C556 1.381 . S
C558 C559 1.394 . S
C558 H566 0.930 . S
C559 C558 1.394 . S
C559 C560 1.383 . S
C559 H567 0.929 . S
C560 C559 1.383 . S
C560 C561 1.377 1_665 S
C561 H545 0.930 . S
C561 C560 1.377 1_445 S
C561 C562 1.379 . S
C562 H546 0.931 . S
C562 C556 1.383 1_445 S
C562 C561 1.379 . S
H563 C557 0.959 . S
H564 C557 0.961 . S
H565 C557 0.960 1_565 S
H566 C558 0.930 . S
H567 C559 0.929 . S
H568 C576 0.929 . S
H569 C578 0.930 . S
H570 C580 0.930 . S
H571 C583 0.929 . S
H572 C586 0.930 . S
H573 C588 0.960 . S
H574 C588 0.960 . S
H575 C588 0.960 . S
C576 H568 0.929 . S
C576 C577 1.377 . S
C576 C578 1.384 . S
C577 C576 1.377 . S
C577 C583 1.390 . S
C578 H569 0.930 . S
C578 C576 1.384 . S
C578 C579 1.372 . S
C579 C578 1.372 . S
C579 C580 1.400 . S
C579 C584 1.490 . S
C580 H570 0.930 . S
C580 C579 1.400 . S
C580 C583 1.386 . S
H581 C597 0.930 . S
H582 C598 0.931 . S
C583 H571 0.929 . S
C583 C577 1.390 . S
C583 C580 1.386 . S
C584 C579 1.490 . S
C584 C586 1.395 . S
C584 C587 1.403 . S
H585 C591 0.930 . S
C586 H572 0.930 . S
C586 C584 1.395 . S
C586 C589 1.403 1_556 S
C587 C584 1.403 . S
C587 C588 1.524 . S
C587 C591 1.400 1_556 S
C588 H573 0.960 . S
C588 H574 0.960 . S
C588 H575 0.960 . S
C588 C587 1.524 . S
C589 C586 1.403 1_554 S
C589 C590 1.392 . S
C589 C593 1.495 . S
C590 C589 1.392 . S
C590 C591 1.385 . S
C590 C592 1.478 . S
C591 H585 0.930 . S
C591 C587 1.400 1_554 S
C591 C590 1.385 . S
C592 C590 1.478 . S
C592 C594 1.381 . S
C592 C598 1.383 . S
C593 C589 1.495 . S
C593 H599 0.959 . S
C593 H600 0.961 . S
C593 H601 0.960 . S
C594 C592 1.381 . S
C594 C595 1.394 . S
C594 H602 0.930 . S
C595 C594 1.394 . S
C595 C596 1.383 . S
C595 H603 0.929 . S
C596 C595 1.383 . S
C596 C597 1.377 . S
C597 H581 0.930 . S
C597 C596 1.377 . S
C597 C598 1.379 . S
C598 H582 0.931 . S
C598 C592 1.383 . S
C598 C597 1.379 . S
H599 C593 0.959 . S
H600 C593 0.961 . S
H601 C593 0.960 . S
H602 C594 0.930 . S
H603 C595 0.929 . S
H604 C612 0.929 . S
H605 C614 0.930 . S
H606 C616 0.930 . S
H607 C619 0.929 . S
H608 C622 0.930 . S
H609 C624 0.960 . S
H610 C624 0.960 . S
H611 C624 0.960 . S
C612 H604 0.929 . S
C612 C613 1.377 1_565 S
C612 C614 1.384 . S
C613 C612 1.377 1_545 S
C613 C619 1.390 . S
C614 H605 0.930 . S
C614 C612 1.384 . S
C614 C615 1.372 1_565 S
C615 C614 1.372 1_545 S
C615 C616 1.400 . S
C615 C620 1.490 . S
C616 H606 0.930 . S
C616 C615 1.400 . S
C616 C619 1.386 . S
H617 C633 0.930 . S
H618 C634 0.931 . S
C619 H607 0.929 . S
C619 C613 1.390 . S
C619 C616 1.386 . S
C620 C615 1.490 . S
C620 C622 1.395 . S
C620 C623 1.403 1_545 S
H621 C627 0.930 . S
C622 H608 0.930 . S
C622 C620 1.395 . S
C622 C625 1.403 . S
C623 C620 1.403 1_565 S
C623 C624 1.524 . S
C623 C627 1.400 . S
C624 H609 0.960 . S
C624 H610 0.960 . S
C624 H611 0.960 . S
C624 C623 1.524 . S
C625 C622 1.403 . S
C625 C626 1.392 . S
C625 C629 1.495 . S
C626 C625 1.392 . S
C626 C627 1.385 1_545 S
C626 C628 1.478 . S
C627 H621 0.930 . S
C627 C623 1.400 . S
C627 C626 1.385 1_565 S
C628 C626 1.478 . S
C628 C630 1.381 1_545 S
C628 C634 1.383 . S
C629 C625 1.495 . S
C629 H635 0.959 . S
C629 H636 0.961 . S
C629 H637 0.960 . S
C630 C628 1.381 1_565 S
C630 C631 1.394 . S
C630 H638 0.930 . S
C631 C630 1.394 . S
C631 C632 1.383 . S
C631 H639 0.929 . S
C632 C631 1.383 . S
C632 C633 1.377 1_565 S
C633 H617 0.930 . S
C633 C632 1.377 1_545 S
C633 C634 1.379 . S
C634 H618 0.931 . S
C634 C628 1.383 . S
C634 C633 1.379 . S
H635 C629 0.959 . S
H636 C629 0.961 . S
H637 C629 0.960 . S
H638 C630 0.930 . S
H639 C631 0.929 . S
H640 C648 0.929 . S
H641 C650 0.930 . S
H642 C652 0.930 . S
H643 C655 0.929 . S
H644 C658 0.930 . S
H645 C660 0.960 . S
H646 C660 0.960 . S
H647 C660 0.960 . S
C648 H640 0.929 . S
C648 C649 1.377 . S
C648 C650 1.384 . S
C649 C648 1.377 . S
C649 C655 1.390 . S
C650 H641 0.930 . S
C650 C648 1.384 . S
C650 C651 1.372 . S
C651 C650 1.372 . S
C651 C652 1.400 . S
C651 C656 1.490 . S
C652 H642 0.930 . S
C652 C651 1.400 . S
C652 C655 1.386 . S
H653 C669 0.930 . S
H654 C670 0.931 . S
C655 H643 0.929 . S
C655 C649 1.390 . S
C655 C652 1.386 . S
C656 C651 1.490 . S
C656 C658 1.395 . S
C656 C659 1.403 . S
H657 C663 0.930 . S
C658 H644 0.930 . S
C658 C656 1.395 . S
C658 C661 1.403 . S
C659 C656 1.403 . S
C659 C660 1.524 . S
C659 C663 1.400 . S
C660 H645 0.960 . S
C660 H646 0.960 . S
C660 H647 0.960 . S
C660 C659 1.524 . S
C661 C658 1.403 . S
C661 C662 1.392 . S
C661 C665 1.495 . S
C662 C661 1.392 . S
C662 C663 1.385 . S
C662 C664 1.478 . S
C663 H657 0.930 . S
C663 C659 1.400 . S
C663 C662 1.385 . S
C664 C662 1.478 . S
C664 C666 1.381 . S
C664 C670 1.383 . S
C665 C661 1.495 . S
C665 H671 0.959 . S
C665 H672 0.961 . S
C665 H673 0.960 . S
C666 C664 1.381 . S
C666 C667 1.394 . S
C666 H674 0.930 . S
C667 C666 1.394 . S
C667 C668 1.383 . S
C667 H675 0.929 . S
C668 C667 1.383 . S
C668 C669 1.377 . S
C669 H653 0.930 . S
C669 C668 1.377 . S
C669 C670 1.379 . S
C670 H654 0.931 . S
C670 C664 1.383 . S
C670 C669 1.379 . S
H671 C665 0.959 . S
H672 C665 0.961 . S
H673 C665 0.960 . S
H674 C666 0.930 . S
H675 C667 0.929 . S
H676 C684 0.929 . S
H677 C686 0.930 . S
H678 C688 0.930 . S
H679 C691 0.929 . S
H680 C694 0.930 . S
H681 C696 0.960 . S
H682 C696 0.960 . S
H683 C696 0.960 . S
C684 H676 0.929 . S
C684 C685 1.377 . S
C684 C686 1.384 . S
C685 C684 1.377 . S
C685 C691 1.390 1_655 S
C686 H677 0.930 . S
C686 C684 1.384 . S
C686 C687 1.372 . S
C687 C686 1.372 . S
C687 C688 1.400 1_655 S
C687 C692 1.490 . S
C688 H678 0.930 . S
C688 C687 1.400 1_455 S
C688 C691 1.386 . S
H689 C705 0.930 . S
H690 C706 0.931 . S
C691 H679 0.929 . S
C691 C685 1.390 1_455 S
C691 C688 1.386 . S
C692 C687 1.490 . S
C692 C694 1.395 . S
C692 C695 1.403 1_655 S
H693 C699 0.930 . S
C694 H680 0.930 . S
C694 C692 1.395 . S
C694 C697 1.403 . S
C695 C692 1.403 1_455 S
C695 C696 1.524 . S
C695 C699 1.400 . S
C696 H681 0.960 . S
C696 H682 0.960 . S
C696 H683 0.960 . S
C696 C695 1.524 . S
C697 C694 1.403 . S
C697 C698 1.392 . S
C697 C701 1.495 . S
C698 C697 1.392 . S
C698 C699 1.385 1_655 S
C698 C700 1.478 . S
C699 H693 0.930 . S
C699 C695 1.400 . S
C699 C698 1.385 1_455 S
C700 C698 1.478 . S
C700 C702 1.381 . S
C700 C706 1.383 1_655 S
C701 C697 1.495 . S
C701 H707 0.959 . S
C701 H708 0.961 . S
C701 H709 0.960 . S
C702 C700 1.381 . S
C702 C703 1.394 . S
C702 H710 0.930 . S
C703 C702 1.394 . S
C703 C704 1.383 . S
C703 H711 0.929 . S
C704 C703 1.383 . S
C704 C705 1.377 1_655 S
C705 H689 0.930 . S
C705 C704 1.377 1_455 S
C705 C706 1.379 . S
C706 H690 0.931 . S
C706 C700 1.383 1_455 S
C706 C705 1.379 . S
H707 C701 0.959 . S
H708 C701 0.961 . S
H709 C701 0.960 . S
H710 C702 0.930 . S
H711 C703 0.929 . S
H712 C720 0.929 . S
H713 C722 0.930 . S
H714 C724 0.930 . S
H715 C727 0.929 . S
H716 C730 0.930 . S
H717 C732 0.960 . S
H718 C732 0.960 . S
H719 C732 0.960 . S
C720 H712 0.929 . S
C720 C721 1.377 . S
C720 C722 1.384 . S
C721 C720 1.377 . S
C721 C727 1.390 . S
C722 H713 0.930 . S
C722 C720 1.384 . S
C722 C723 1.372 . S
C723 C722 1.372 . S
C723 C724 1.400 . S
C723 C728 1.490 . S
C724 H714 0.930 . S
C724 C723 1.400 . S
C724 C727 1.386 . S
H725 C741 0.930 . S
H726 C742 0.931 . S
C727 H715 0.929 . S
C727 C721 1.390 . S
C727 C724 1.386 . S
C728 C723 1.490 . S
C728 C730 1.395 . S
C728 C731 1.403 . S
H729 C735 0.930 . S
C730 H716 0.930 . S
C730 C728 1.395 . S
C730 C733 1.403 1_655 S
C731 C728 1.403 . S
C731 C732 1.524 . S
C731 C735 1.400 1_655 S
C732 H717 0.960 . S
C732 H718 0.960 . S
C732 H719 0.960 . S
C732 C731 1.524 . S
C733 C730 1.403 1_455 S
C733 C734 1.392 . S
C733 C737 1.495 . S
C734 C733 1.392 . S
C734 C735 1.385 . S
C734 C736 1.478 . S
C735 H729 0.930 . S
C735 C731 1.400 1_455 S
C735 C734 1.385 . S
C736 C734 1.478 . S
C736 C738 1.381 . S
C736 C742 1.383 . S
C737 C733 1.495 . S
C737 H743 0.959 . S
C737 H744 0.961 . S
C737 H745 0.960 . S
C738 C736 1.381 . S
C738 C739 1.394 . S
C738 H746 0.930 . S
C739 C738 1.394 . S
C739 C740 1.383 . S
C739 H747 0.929 . S
C740 C739 1.383 . S
C740 C741 1.377 . S
C741 H725 0.930 . S
C741 C740 1.377 . S
C741 C742 1.379 . S
C742 H726 0.931 . S
C742 C736 1.383 . S
C742 C741 1.379 . S
H743 C737 0.959 . S
H744 C737 0.961 . S
H745 C737 0.960 . S
H746 C738 0.930 . S
H747 C739 0.929 . S
H748 C756 0.929 . S
H749 C758 0.930 . S
H750 C760 0.930 . S
H751 C763 0.929 . S
H752 C766 0.930 . S
H753 C768 0.960 . S
H754 C768 0.960 . S
H755 C768 0.960 1_554 S
C756 H748 0.929 . S
C756 C757 1.377 1_556 S
C756 C758 1.384 . S
C757 C756 1.377 1_554 S
C757 C763 1.390 . S
C758 H749 0.930 . S
C758 C756 1.384 . S
C758 C759 1.372 1_556 S
C759 C758 1.372 1_554 S
C759 C760 1.400 . S
C759 C764 1.490 . S
C760 H750 0.930 . S
C760 C759 1.400 . S
C760 C763 1.386 . S
H761 C777 0.930 . S
H762 C778 0.931 . S
C763 H751 0.929 . S
C763 C757 1.390 . S
C763 C760 1.386 . S
C764 C759 1.490 . S
C764 C766 1.395 . S
C764 C767 1.403 . S
H765 C771 0.930 . S
C766 H752 0.930 . S
C766 C764 1.395 . S
C766 C769 1.403 . S
C767 C764 1.403 . S
C767 C768 1.524 1_554 S
C767 C771 1.400 . S
C768 H753 0.960 . S
C768 H754 0.960 . S
C768 H755 0.960 1_556 S
C768 C767 1.524 1_556 S
C769 C766 1.403 . S
C769 C770 1.392 . S
C769 C773 1.495 . S
C770 C769 1.392 . S
C770 C771 1.385 . S
C770 C772 1.478 . S
C771 H765 0.930 . S
C771 C767 1.400 . S
C771 C770 1.385 . S
C772 C770 1.478 . S
C772 C774 1.381 1_554 S
C772 C778 1.383 . S
C773 C769 1.495 . S
C773 H779 0.959 . S
C773 H780 0.961 . S
C773 H781 0.960 . S
C774 C772 1.381 1_556 S
C774 C775 1.394 . S
C774 H782 0.930 . S
C775 C774 1.394 . S
C775 C776 1.383 1_556 S
C775 H783 0.929 . S
C776 C775 1.383 1_554 S
C776 C777 1.377 . S
C777 H761 0.930 . S
C777 C776 1.377 . S
C777 C778 1.379 . S
C778 H762 0.931 . S
C778 C772 1.383 . S
C778 C777 1.379 . S
H779 C773 0.959 . S
H780 C773 0.961 . S
H781 C773 0.960 . S
H782 C774 0.930 . S
H783 C775 0.929 . S
H784 C792 0.929 . S
H785 C794 0.930 . S
H786 C796 0.930 . S
H787 C799 0.929 . S
H788 C802 0.930 . S
H789 C804 0.960 . S
H790 C804 0.960 . S
H791 C804 0.960 . S
C792 H784 0.929 . S
C792 C793 1.377 . S
C792 C794 1.384 . S
C793 C792 1.377 . S
C793 C799 1.390 . S
C794 H785 0.930 . S
C794 C792 1.384 . S
C794 C795 1.372 . S
C795 C794 1.372 . S
C795 C796 1.400 . S
C795 C800 1.490 . S
C796 H786 0.930 . S
C796 C795 1.400 . S
C796 C799 1.386 . S
H797 C813 0.930 . S
H798 C814 0.931 . S
C799 H787 0.929 . S
C799 C793 1.390 . S
C799 C796 1.386 . S
C800 C795 1.490 . S
C800 C802 1.395 . S
C800 C803 1.403 . S
H801 C807 0.930 . S
C802 H788 0.930 . S
C802 C800 1.395 . S
C802 C805 1.403 . S
C803 C800 1.403 . S
C803 C804 1.524 . S
C803 C807 1.400 . S
C804 H789 0.960 . S
C804 H790 0.960 . S
C804 H791 0.960 . S
C804 C803 1.524 . S
C805 C802 1.403 . S
C805 C806 1.392 . S
C805 C809 1.495 . S
C806 C805 1.392 . S
C806 C807 1.385 . S
C806 C808 1.478 . S
C807 H801 0.930 . S
C807 C803 1.400 . S
C807 C806 1.385 . S
C808 C806 1.478 . S
C808 C810 1.381 . S
C808 C814 1.383 . S
C809 C805 1.495 . S
C809 H815 0.959 . S
C809 H816 0.961 . S
C809 H817 0.960 . S
C810 C808 1.381 . S
C810 C811 1.394 . S
C810 H818 0.930 . S
C811 C810 1.394 . S
C811 C812 1.383 . S
C811 H819 0.929 . S
C812 C811 1.383 . S
C812 C813 1.377 . S
C813 H797 0.930 . S
C813 C812 1.377 . S
C813 C814 1.379 . S
C814 H798 0.931 . S
C814 C808 1.383 . S
C814 C813 1.379 . S
H815 C809 0.959 . S
H816 C809 0.961 . S
H817 C809 0.960 . S
H818 C810 0.930 . S
H819 C811 0.929 . S
H820 C828 0.929 . S
H821 C830 0.930 . S
H822 C832 0.930 . S
H823 C835 0.929 . S
H824 C838 0.930 . S
H825 C840 0.960 . S
H826 C840 0.960 . S
H827 C840 0.960 . S
C828 H820 0.929 . S
C828 C829 1.377 . S
C828 C830 1.384 . S
C829 C828 1.377 . S
C829 C835 1.390 . S
C830 H821 0.930 . S
C830 C828 1.384 . S
C830 C831 1.372 . S
C831 C830 1.372 . S
C831 C832 1.400 . S
C831 C836 1.490 . S
C832 H822 0.930 . S
C832 C831 1.400 . S
C832 C835 1.386 . S
H833 C849 0.930 . S
H834 C850 0.931 . S
C835 H823 0.929 . S
C835 C829 1.390 . S
C835 C832 1.386 . S
C836 C831 1.490 . S
C836 C838 1.395 . S
C836 C839 1.403 . S
H837 C843 0.930 . S
C838 H824 0.930 . S
C838 C836 1.395 . S
C838 C841 1.403 . S
C839 C836 1.403 . S
C839 C840 1.524 . S
C839 C843 1.400 . S
C840 H825 0.960 . S
C840 H826 0.960 . S
C840 H827 0.960 . S
C840 C839 1.524 . S
C841 C838 1.403 . S
C841 C842 1.392 . S
C841 C845 1.495 . S
C842 C841 1.392 . S
C842 C843 1.385 . S
C842 C844 1.478 . S
C843 H837 0.930 . S
C843 C839 1.400 . S
C843 C842 1.385 . S
C844 C842 1.478 . S
C844 C846 1.381 . S
C844 C850 1.383 . S
C845 C841 1.495 . S
C845 H851 0.959 . S
C845 H852 0.961 . S
C845 H853 0.960 . S
C846 C844 1.381 . S
C846 C847 1.394 . S
C846 H854 0.930 . S
C847 C846 1.394 . S
C847 C848 1.383 . S
C847 H855 0.929 . S
C848 C847 1.383 . S
C848 C849 1.377 . S
C849 H833 0.930 . S
C849 C848 1.377 . S
C849 C850 1.379 . S
C850 H834 0.931 . S
C850 C844 1.383 . S
C850 C849 1.379 . S
H851 C845 0.959 . S
H852 C845 0.961 . S
H853 C845 0.960 . S
H854 C846 0.930 . S
H855 C847 0.929 . S
H856 C864 0.929 . S
H857 C866 0.930 . S
H858 C868 0.930 . S
H859 C871 0.929 . S
H860 C874 0.930 . S
H861 C876 0.960 . S
H862 C876 0.960 . S
H863 C876 0.960 . S
C864 H856 0.929 . S
C864 C865 1.377 . S
C864 C866 1.384 . S
C865 C864 1.377 . S
C865 C871 1.390 . S
C866 H857 0.930 . S
C866 C864 1.384 . S
C866 C867 1.372 . S
C867 C866 1.372 . S
C867 C868 1.400 . S
C867 C872 1.490 . S
C868 H858 0.930 . S
C868 C867 1.400 . S
C868 C871 1.386 . S
H869 C885 0.930 . S
H870 C886 0.931 . S
C871 H859 0.929 . S
C871 C865 1.390 . S
C871 C868 1.386 . S
C872 C867 1.490 . S
C872 C874 1.395 . S
C872 C875 1.403 . S
H873 C879 0.930 . S
C874 H860 0.930 . S
C874 C872 1.395 . S
C874 C877 1.403 1_455 S
C875 C872 1.403 . S
C875 C876 1.524 . S
C875 C879 1.400 1_455 S
C876 H861 0.960 . S
C876 H862 0.960 . S
C876 H863 0.960 . S
C876 C875 1.524 . S
C877 C874 1.403 1_655 S
C877 C878 1.392 . S
C877 C881 1.495 . S
C878 C877 1.392 . S
C878 C879 1.385 . S
C878 C880 1.478 . S
C879 H873 0.930 . S
C879 C875 1.400 1_655 S
C879 C878 1.385 . S
C880 C878 1.478 . S
C880 C882 1.381 . S
C880 C886 1.383 . S
C881 C877 1.495 . S
C881 H887 0.959 . S
C881 H888 0.961 . S
C881 H889 0.960 . S
C882 C880 1.381 . S
C882 C883 1.394 . S
C882 H890 0.930 . S
C883 C882 1.394 . S
C883 C884 1.383 . S
C883 H891 0.929 . S
C884 C883 1.383 . S
C884 C885 1.377 . S
C885 H869 0.930 . S
C885 C884 1.377 . S
C885 C886 1.379 . S
C886 H870 0.931 . S
C886 C880 1.383 . S
C886 C885 1.379 . S
H887 C881 0.959 . S
H888 C881 0.961 . S
H889 C881 0.960 . S
H890 C882 0.930 . S
H891 C883 0.929 . S
H892 C900 0.929 . S
H893 C902 0.930 . S
H894 C904 0.930 . S
H895 C907 0.929 . S
H896 C910 0.930 . S
H897 C912 0.960 . S
H898 C912 0.960 . S
H899 C912 0.960 1_455 S
C900 H892 0.929 . S
C900 C901 1.377 1_655 S
C900 C902 1.384 . S
C901 C900 1.377 1_455 S
C901 C907 1.390 . S
C902 H893 0.930 . S
C902 C900 1.384 . S
C902 C903 1.395 . S
C903 C902 1.395 . S
C903 C904 1.379 1_655 S
C903 C908 1.489 . S
C904 H894 0.930 . S
C904 C903 1.379 1_455 S
C904 C907 1.386 . S
H905 C921 0.930 . S
H906 C922 0.931 . S
C907 H895 0.929 . S
C907 C901 1.390 . S
C907 C904 1.386 . S
C908 C903 1.489 . S
C908 C910 1.395 1_655 S
C908 C911 1.403 . S
H909 C915 0.930 1_554 S
C910 H896 0.930 . S
C910 C908 1.395 1_455 S
C910 C913 1.403 . S
C911 C908 1.403 . S
C911 C912 1.524 1_556 S
C911 C915 1.400 . S
C912 H897 0.960 . S
C912 H898 0.960 . S
C912 H899 0.960 1_655 S
C912 C911 1.524 1_554 S
C913 C910 1.403 . S
C913 C914 1.392 1_455 S
C913 C917 1.495 . S
C914 C913 1.392 1_655 S
C914 C915 1.385 . S
C914 C916 1.479 . S
C915 H909 0.930 1_556 S
C915 C911 1.400 . S
C915 C914 1.385 . S
C916 C914 1.479 . S
C916 C918 1.398 . S
C916 C922 1.365 1_655 S
C917 C913 1.495 . S
C917 H923 0.959 . S
C917 H924 0.961 . S
C917 H925 0.960 1_455 S
C918 C916 1.398 . S
C918 C919 1.394 . S
C918 H926 0.930 . S
C919 C918 1.394 . S
C919 C920 1.383 . S
C919 H927 0.929 . S
C920 C919 1.383 . S
C920 C921 1.377 1_655 S
C921 H905 0.930 . S
C921 C920 1.377 1_455 S
C921 C922 1.379 . S
C922 H906 0.931 . S
C922 C916 1.365 1_455 S
C922 C921 1.379 . S
H923 C917 0.959 . S
H924 C917 0.961 . S
H925 C917 0.960 1_655 S
H926 C918 0.930 . S
H927 C919 0.929 . S
H928 C936 0.929 . S
H929 C938 0.930 . S
H930 C940 0.930 . S
H931 C943 0.929 . S
H932 C946 0.930 . S
H933 C948 0.960 . S
H934 C948 0.960 . S
H935 C948 0.960 . S
C936 H928 0.929 . S
C936 C937 1.377 . S
C936 C938 1.384 . S
C937 C936 1.377 . S
C937 C943 1.390 . S
C938 H929 0.930 . S
C938 C936 1.384 . S
C938 C939 1.372 . S
C939 C938 1.372 . S
C939 C940 1.400 . S
C939 C944 1.490 . S
C940 H930 0.930 . S
C940 C939 1.400 . S
C940 C943 1.386 . S
H941 C957 0.930 . S
H942 C958 0.931 . S
C943 H931 0.929 . S
C943 C937 1.390 . S
C943 C940 1.386 . S
C944 C939 1.490 . S
C944 C946 1.395 . S
C944 C947 1.403 . S
H945 C951 0.930 . S
C946 H932 0.930 . S
C946 C944 1.395 . S
C946 C949 1.403 . S
C947 C944 1.403 . S
C947 C948 1.524 . S
C947 C951 1.400 . S
C948 H933 0.960 . S
C948 H934 0.960 . S
C948 H935 0.960 . S
C948 C947 1.524 . S
C949 C946 1.403 . S
C949 C950 1.392 . S
C949 C953 1.495 . S
C950 C949 1.392 . S
C950 C951 1.385 . S
C950 C952 1.478 . S
C951 H945 0.930 . S
C951 C947 1.400 . S
C951 C950 1.385 . S
C952 C950 1.478 . S
C952 C954 1.381 . S
C952 C958 1.383 . S
C953 C949 1.495 . S
C953 H959 0.959 . S
C953 H960 0.961 . S
C953 H961 0.960 . S
C954 C952 1.381 . S
C954 C955 1.394 . S
C954 H962 0.930 . S
C955 C954 1.394 . S
C955 C956 1.383 . S
C955 H963 0.929 . S
C956 C955 1.383 . S
C956 C957 1.377 . S
C957 H941 0.930 . S
C957 C956 1.377 . S
C957 C958 1.379 . S
C958 H942 0.931 . S
C958 C952 1.383 . S
C958 C957 1.379 . S
H959 C953 0.959 . S
H960 C953 0.961 . S
H961 C953 0.960 . S
H962 C954 0.930 . S
H963 C955 0.929 . S
H964 C972 0.929 . S
H965 C974 0.930 . S
H966 C976 0.930 . S
H967 C979 0.929 . S
H968 C982 0.930 . S
H969 C984 0.960 . S
H970 C984 0.960 . S
H971 C984 0.960 . S
C972 H964 0.929 . S
C972 C973 1.377 . S
C972 C974 1.384 . S
C973 C972 1.377 . S
C973 C979 1.390 . S
C974 H965 0.930 . S
C974 C972 1.384 . S
C974 C975 1.372 . S
C975 C974 1.372 . S
C975 C976 1.400 . S
C975 C980 1.490 . S
C976 H966 0.930 . S
C976 C975 1.400 . S
C976 C979 1.386 . S
H977 C993 0.930 . S
H978 C994 0.931 . S
C979 H967 0.929 . S
C979 C973 1.390 . S
C979 C976 1.386 . S
C980 C975 1.490 . S
C980 C982 1.395 . S
C980 C983 1.403 . S
H981 C987 0.930 . S
C982 H968 0.930 . S
C982 C980 1.395 . S
C982 C985 1.403 1_545 S
C983 C980 1.403 . S
C983 C984 1.524 . S
C983 C987 1.400 1_545 S
C984 H969 0.960 . S
C984 H970 0.960 . S
C984 H971 0.960 . S
C984 C983 1.524 . S
C985 C982 1.403 1_565 S
C985 C986 1.392 . S
C985 C989 1.495 . S
C986 C985 1.392 . S
C986 C987 1.385 . S
C986 C988 1.478 . S
C987 H981 0.930 . S
C987 C983 1.400 1_565 S
C987 C986 1.385 . S
C988 C986 1.478 . S
C988 C990 1.381 . S
C988 C994 1.383 . S
C989 C985 1.495 . S
C989 H995 0.959 . S
C989 H996 0.961 . S
C989 H997 0.960 . S
C990 C988 1.381 . S
C990 C991 1.394 . S
C990 H998 0.930 . S
C991 C990 1.394 . S
C991 C992 1.383 . S
C991 H999 0.929 . S
C992 C991 1.383 . S
C992 C993 1.377 . S
C993 H977 0.930 . S
C993 C992 1.377 . S
C993 C994 1.379 . S
C994 H978 0.931 . S
C994 C988 1.383 . S
C994 C993 1.379 . S
H995 C989 0.959 . S
H996 C989 0.961 . S
H997 C989 0.960 . S
H998 C990 0.930 . S
H999 C991 0.929 . S
H1000 C1008 0.929 . S
H1001 C1010 0.930 . S
H1002 C1012 0.928 1_554 S
H1003 C1015 0.929 . S
H1004 C1018 0.930 . S
H1005 C1020 0.960 . S
H1006 C1020 0.960 . S
H1007 C1020 0.960 . S
C1008 H1000 0.929 . S
C1008 C1009 1.379 . S
C1008 C1010 1.384 . S
C1009 C1008 1.379 . S
C1009 C1015 1.389 1_556 S
C1010 H1001 0.930 . S
C1010 C1008 1.384 . S
C1010 C1011 1.372 . S
C1011 C1010 1.372 . S
C1011 C1012 1.405 . S
C1011 C1016 1.490 . S
C1012 H1002 0.928 1_556 S
C1012 C1011 1.405 . S
C1012 C1015 1.384 1_556 S
H1013 C1029 0.930 . S
H1014 C1030 0.929 1_554 S
C1015 H1003 0.929 . S
C1015 C1009 1.389 1_554 S
C1015 C1012 1.384 1_554 S
C1016 C1011 1.490 . S
C1016 C1018 1.395 1_556 S
C1016 C1019 1.403 . S
H1017 C1023 0.930 . S
C1018 H1004 0.930 . S
C1018 C1016 1.395 1_554 S
C1018 C1021 1.403 . S
C1019 C1016 1.403 . S
C1019 C1020 1.524 . S
C1019 C1023 1.400 . S
C1020 H1005 0.960 . S
C1020 H1006 0.960 . S
C1020 H1007 0.960 . S
C1020 C1019 1.524 . S
C1021 C1018 1.403 . S
C1021 C1022 1.392 1_554 S
C1021 C1025 1.495 . S
C1022 C1021 1.392 1_556 S
C1022 C1023 1.385 . S
C1022 C1024 1.478 . S
C1023 H1017 0.930 . S
C1023 C1019 1.400 . S
C1023 C1022 1.385 . S
C1024 C1022 1.478 . S
C1024 C1026 1.381 . S
C1024 C1030 1.383 . S
C1025 C1021 1.495 . S
C1025 H1031 0.959 . S
C1025 H1032 0.961 . S
C1025 H1033 0.960 . S
C1026 C1024 1.381 . S
C1026 C1027 1.394 . S
C1026 H1034 0.930 . S
C1027 C1026 1.394 . S
C1027 C1028 1.383 . S
C1027 H1035 0.929 . S
C1028 C1027 1.383 . S
C1028 C1029 1.377 . S
C1029 H1013 0.930 . S
C1029 C1028 1.377 . S
C1029 C1030 1.379 . S
C1030 H1014 0.929 1_556 S
C1030 C1024 1.383 . S
C1030 C1029 1.379 . S
H1031 C1025 0.959 . S
H1032 C1025 0.961 . S
H1033 C1025 0.960 . S
H1034 C1026 0.930 . S
H1035 C1027 0.929 . S
H1036 C1044 0.929 . S
H1037 C1046 0.930 . S
H1038 C1048 0.930 . S
H1039 C1051 0.929 . S
H1040 C1054 0.930 . S
H1041 C1056 0.960 . S
H1042 C1056 0.960 . S
H1043 C1056 0.960 . S
C1044 H1036 0.929 . S
C1044 C1045 1.377 . S
C1044 C1046 1.384 . S
C1045 C1044 1.377 . S
C1045 C1051 1.390 . S
C1046 H1037 0.930 . S
C1046 C1044 1.384 . S
C1046 C1047 1.372 . S
C1047 C1046 1.372 . S
C1047 C1048 1.400 . S
C1047 C1052 1.490 . S
C1048 H1038 0.930 . S
C1048 C1047 1.400 . S
C1048 C1051 1.386 . S
H1049 C1065 0.930 . S
H1050 C1066 0.931 . S
C1051 H1039 0.929 . S
C1051 C1045 1.390 . S
C1051 C1048 1.386 . S
C1052 C1047 1.490 . S
C1052 C1054 1.395 . S
C1052 C1055 1.403 . S
H1053 C1059 0.942 . S
C1054 H1040 0.930 . S
C1054 C1052 1.395 . S
C1054 C1057 1.403 . S
C1055 C1052 1.403 . S
C1055 C1056 1.524 . S
C1055 C1059 1.379 1_545 S
C1056 H1041 0.960 . S
C1056 H1042 0.960 . S
C1056 H1043 0.960 . S
C1056 C1055 1.524 . S
C1057 C1054 1.403 . S
C1057 C1058 1.392 1_545 S
C1057 C1061 1.495 1_545 S
C1058 C1057 1.392 1_565 S
C1058 C1059 1.396 . S
C1058 C1060 1.478 . S
C1059 H1053 0.942 . S
C1059 C1055 1.379 1_565 S
C1059 C1058 1.396 . S
C1060 C1058 1.478 . S
C1060 C1062 1.381 . S
C1060 C1066 1.383 . S
C1061 C1057 1.495 1_565 S
C1061 H1067 0.959 1_565 S
C1061 H1068 0.961 . S
C1061 H1069 0.960 . S
C1062 C1060 1.381 . S
C1062 C1063 1.394 . S
C1062 H1070 0.930 . S
C1063 C1062 1.394 . S
C1063 C1064 1.383 . S
C1063 H1071 0.929 . S
C1064 C1063 1.383 . S
C1064 C1065 1.377 . S
C1065 H1049 0.930 . S
C1065 C1064 1.377 . S
C1065 C1066 1.379 . S
C1066 H1050 0.931 . S
C1066 C1060 1.383 . S
C1066 C1065 1.379 . S
H1067 C1061 0.959 1_545 S
H1068 C1061 0.961 . S
H1069 C1061 0.960 . S
H1070 C1062 0.930 . S
H1071 C1063 0.929 . S
H1072 C1080 0.929 . S
H1073 C1082 0.930 . S
H1074 C1084 0.924 1_554 S
H1075 C1087 0.929 . S
H1076 C1090 0.930 . S
H1077 C1092 0.960 . S
H1078 C1092 0.947 1_545 S
H1079 C1092 0.960 . S
C1080 H1072 0.929 . S
C1080 C1081 1.377 1_545 S
C1080 C1082 1.384 . S
C1081 C1080 1.377 1_565 S
C1081 C1087 1.390 . S
C1082 H1073 0.930 . S
C1082 C1080 1.384 . S
C1082 C1083 1.372 1_545 S
C1083 C1082 1.372 1_565 S
C1083 C1084 1.400 . S
C1083 C1088 1.490 . S
C1084 H1074 0.924 1_556 S
C1084 C1083 1.400 . S
C1084 C1087 1.386 . S
H1085 C1101 0.921 1_554 S
H1086 C1102 0.931 . S
C1087 H1075 0.929 . S
C1087 C1081 1.390 . S
C1087 C1084 1.386 . S
C1088 C1083 1.490 . S
C1088 C1090 1.395 . S
C1088 C1091 1.403 1_556 S
H1089 C1095 0.930 . S
C1090 H1076 0.930 . S
C1090 C1088 1.395 . S
C1090 C1093 1.403 . S
C1091 C1088 1.403 1_554 S
C1091 C1092 1.524 . S
C1091 C1095 1.400 . S
C1092 H1077 0.960 . S
C1092 H1078 0.947 1_565 S
C1092 H1079 0.960 . S
C1092 C1091 1.524 . S
C1093 C1090 1.403 . S
C1093 C1094 1.392 . S
C1093 C1097 1.495 . S
C1094 C1093 1.392 . S
C1094 C1095 1.385 1_556 S
C1094 C1096 1.478 . S
C1095 H1089 0.930 . S
C1095 C1091 1.400 . S
C1095 C1094 1.385 1_554 S
C1096 C1094 1.478 . S
C1096 C1098 1.381 1_565 S
C1096 C1102 1.383 . S
C1097 C1093 1.495 . S
C1097 H1103 0.959 1_565 S
C1097 H1104 0.961 . S
C1097 H1105 0.960 1_565 S
C1098 C1096 1.381 1_545 S
C1098 C1099 1.394 . S
C1098 H1106 0.930 . S
C1099 C1098 1.394 . S
C1099 C1100 1.383 1_545 S
C1099 H1107 0.929 . S
C1100 C1099 1.383 1_565 S
C1100 C1101 1.381 . S
C1101 H1085 0.921 1_556 S
C1101 C1100 1.381 . S
C1101 C1102 1.384 . S
C1102 H1086 0.931 . S
C1102 C1096 1.383 . S
C1102 C1101 1.384 . S
H1103 C1097 0.959 1_545 S
H1104 C1097 0.961 . S
H1105 C1097 0.960 1_545 S
H1106 C1098 0.930 . S
H1107 C1099 0.929 . S
H1108 C1116 0.929 . S
H1109 C1118 0.930 . S
H1110 C1120 0.930 . S
H1111 C1123 0.929 . S
H1112 C1126 0.930 . S
H1113 C1128 0.960 . S
H1114 C1128 0.960 . S
H1115 C1128 0.960 . S
C1116 H1108 0.929 . S
C1116 C1117 1.377 . S
C1116 C1118 1.384 . S
C1117 C1116 1.377 . S
C1117 C1123 1.390 . S
C1118 H1109 0.930 . S
C1118 C1116 1.384 . S
C1118 C1119 1.372 . S
C1119 C1118 1.372 . S
C1119 C1120 1.400 . S
C1119 C1124 1.490 . S
C1120 H1110 0.930 . S
C1120 C1119 1.400 . S
C1120 C1123 1.386 . S
H1121 C1137 0.930 . S
H1122 C1138 0.931 . S
C1123 H1111 0.929 . S
C1123 C1117 1.390 . S
C1123 C1120 1.386 . S
C1124 C1119 1.490 . S
C1124 C1126 1.395 . S
C1124 C1127 1.403 . S
H1125 C1131 0.930 . S
C1126 H1112 0.930 . S
C1126 C1124 1.395 . S
C1126 C1129 1.403 . S
C1127 C1124 1.403 . S
C1127 C1128 1.524 . S
C1127 C1131 1.400 . S
C1128 H1113 0.960 . S
C1128 H1114 0.960 . S
C1128 H1115 0.960 . S
C1128 C1127 1.524 . S
C1129 C1126 1.403 . S
C1129 C1130 1.392 . S
C1129 C1133 1.495 . S
C1130 C1129 1.392 . S
C1130 C1131 1.385 . S
C1130 C1132 1.478 . S
C1131 H1125 0.930 . S
C1131 C1127 1.400 . S
C1131 C1130 1.385 . S
C1132 C1130 1.478 . S
C1132 C1134 1.381 . S
C1132 C1138 1.383 . S
C1133 C1129 1.495 . S
C1133 H1139 0.959 . S
C1133 H1140 0.961 . S
C1133 H1141 0.960 . S
C1134 C1132 1.381 . S
C1134 C1135 1.394 . S
C1134 H1142 0.930 . S
C1135 C1134 1.394 . S
C1135 C1136 1.383 . S
C1135 H1143 0.929 . S
C1136 C1135 1.383 . S
C1136 C1137 1.377 . S
C1137 H1121 0.930 . S
C1137 C1136 1.377 . S
C1137 C1138 1.379 . S
C1138 H1122 0.931 . S
C1138 C1132 1.383 . S
C1138 C1137 1.379 . S
H1139 C1133 0.959 . S
H1140 C1133 0.961 . S
H1141 C1133 0.960 . S
H1142 C1134 0.930 . S
H1143 C1135 0.929 . S
H1144 C1152 0.929 . S
H1145 C1154 0.930 . S
H1146 C1156 0.930 . S
H1147 C1159 0.929 . S
H1148 C1162 0.930 . S
H1149 C1164 0.960 . S
H1150 C1164 0.960 . S
H1151 C1164 0.960 . S
C1152 H1144 0.929 . S
C1152 C1153 1.377 . S
C1152 C1154 1.384 . S
C1153 C1152 1.377 . S
C1153 C1159 1.390 . S
C1154 H1145 0.930 . S
C1154 C1152 1.384 . S
C1154 C1155 1.372 . S
C1155 C1154 1.372 . S
C1155 C1156 1.400 . S
C1155 C1160 1.490 . S
C1156 H1146 0.930 . S
C1156 C1155 1.400 . S
C1156 C1159 1.386 . S
H1157 C1173 0.930 . S
H1158 C1174 0.931 . S
C1159 H1147 0.929 . S
C1159 C1153 1.390 . S
C1159 C1156 1.386 . S
C1160 C1155 1.490 . S
C1160 C1162 1.395 . S
C1160 C1163 1.403 . S
H1161 C1167 0.930 . S
C1162 H1148 0.930 . S
C1162 C1160 1.395 . S
C1162 C1165 1.403 . S
C1163 C1160 1.403 . S
C1163 C1164 1.524 . S
C1163 C1167 1.400 . S
C1164 H1149 0.960 . S
C1164 H1150 0.960 . S
C1164 H1151 0.960 . S
C1164 C1163 1.524 . S
C1165 C1162 1.403 . S
C1165 C1166 1.392 . S
C1165 C1169 1.495 . S
C1166 C1165 1.392 . S
C1166 C1167 1.385 . S
C1166 C1168 1.478 . S
C1167 H1161 0.930 . S
C1167 C1163 1.400 . S
C1167 C1166 1.385 . S
C1168 C1166 1.478 . S
C1168 C1170 1.381 . S
C1168 C1174 1.383 . S
C1169 C1165 1.495 . S
C1169 H1175 0.959 . S
C1169 H1176 0.961 . S
C1169 H1177 0.960 . S
C1170 C1168 1.381 . S
C1170 C1171 1.394 . S
C1170 H1178 0.930 . S
C1171 C1170 1.394 . S
C1171 C1172 1.383 . S
C1171 H1179 0.929 . S
C1172 C1171 1.383 . S
C1172 C1173 1.377 . S
C1173 H1157 0.930 . S
C1173 C1172 1.377 . S
C1173 C1174 1.379 . S
C1174 H1158 0.931 . S
C1174 C1168 1.383 . S
C1174 C1173 1.379 . S
H1175 C1169 0.959 . S
H1176 C1169 0.961 . S
H1177 C1169 0.960 . S
H1178 C1170 0.930 . S
H1179 C1171 0.929 . S
H1180 C1188 0.929 . S
H1181 C1190 0.930 . S
H1182 C1192 0.930 . S
H1183 C1195 0.929 . S
H1184 C1198 0.930 . S
H1185 C1200 0.960 1_554 S
H1186 C1200 0.960 . S
H1187 C1200 0.960 . S
C1188 H1180 0.929 . S
C1188 C1189 1.377 . S
C1188 C1190 1.384 . S
C1189 C1188 1.377 . S
C1189 C1195 1.390 . S
C1190 H1181 0.930 . S
C1190 C1188 1.384 . S
C1190 C1191 1.372 . S
C1191 C1190 1.372 . S
C1191 C1192 1.400 . S
C1191 C1196 1.490 . S
C1192 H1182 0.930 . S
C1192 C1191 1.400 . S
C1192 C1195 1.386 . S
H1193 C1209 0.930 . S
H1194 C1210 0.931 . S
C1195 H1183 0.929 . S
C1195 C1189 1.390 . S
C1195 C1192 1.386 . S
C1196 C1191 1.490 . S
C1196 C1198 1.395 . S
C1196 C1199 1.403 1_556 S
H1197 C1203 0.930 . S
C1198 H1184 0.930 . S
C1198 C1196 1.395 . S
C1198 C1201 1.403 1_556 S
C1199 C1196 1.403 1_554 S
C1199 C1200 1.524 1_554 S
C1199 C1203 1.400 . S
C1200 H1185 0.960 1_556 S
C1200 H1186 0.960 . S
C1200 H1187 0.960 . S
C1200 C1199 1.524 1_556 S
C1201 C1198 1.403 1_554 S
C1201 C1202 1.392 . S
C1201 C1205 1.495 . S
C1202 C1201 1.392 . S
C1202 C1203 1.385 . S
C1202 C1204 1.478 . S
C1203 H1197 0.930 . S
C1203 C1199 1.400 . S
C1203 C1202 1.385 . S
C1204 C1202 1.478 . S
C1204 C1206 1.381 . S
C1204 C1210 1.383 . S
C1205 C1201 1.495 . S
C1205 H1211 0.959 . S
C1205 H1212 0.961 . S
C1205 H1213 0.960 . S
C1206 C1204 1.381 . S
C1206 C1207 1.394 . S
C1206 H1214 0.930 . S
C1207 C1206 1.394 . S
C1207 C1208 1.383 . S
C1207 H1215 0.929 . S
C1208 C1207 1.383 . S
C1208 C1209 1.377 . S
C1209 H1193 0.930 . S
C1209 C1208 1.377 . S
C1209 C1210 1.379 . S
C1210 H1194 0.931 . S
C1210 C1204 1.383 . S
C1210 C1209 1.379 . S
H1211 C1205 0.959 . S
H1212 C1205 0.961 . S
H1213 C1205 0.960 . S
H1214 C1206 0.930 . S
H1215 C1207 0.929 . S
H1216 C1224 0.929 . S
H1217 C1226 0.930 . S
H1218 C1228 0.930 . S
H1219 C1231 0.929 . S
H1220 C1234 0.930 . S
H1221 C1236 0.960 . S
H1222 C1236 0.960 . S
H1223 C1236 0.960 . S
C1224 H1216 0.929 . S
C1224 C1225 1.377 . S
C1224 C1226 1.384 . S
C1225 C1224 1.377 . S
C1225 C1231 1.390 . S
C1226 H1217 0.930 . S
C1226 C1224 1.384 . S
C1226 C1227 1.372 . S
C1227 C1226 1.372 . S
C1227 C1228 1.400 . S
C1227 C1232 1.490 . S
C1228 H1218 0.930 . S
C1228 C1227 1.400 . S
C1228 C1231 1.386 . S
H1229 C1245 0.930 . S
H1230 C1246 0.931 . S
C1231 H1219 0.929 . S
C1231 C1225 1.390 . S
C1231 C1228 1.386 . S
C1232 C1227 1.490 . S
C1232 C1234 1.395 . S
C1232 C1235 1.403 . S
H1233 C1239 0.930 . S
C1234 H1220 0.930 . S
C1234 C1232 1.395 . S
C1234 C1237 1.403 . S
C1235 C1232 1.403 . S
C1235 C1236 1.524 . S
C1235 C1239 1.400 . S
C1236 H1221 0.960 . S
C1236 H1222 0.960 . S
C1236 H1223 0.960 . S
C1236 C1235 1.524 . S
C1237 C1234 1.403 . S
C1237 C1238 1.392 . S
C1237 C1241 1.495 . S
C1238 C1237 1.392 . S
C1238 C1239 1.385 . S
C1238 C1240 1.478 . S
C1239 H1233 0.930 . S
C1239 C1235 1.400 . S
C1239 C1238 1.385 . S
C1240 C1238 1.478 . S
C1240 C1242 1.381 . S
C1240 C1246 1.383 . S
C1241 C1237 1.495 . S
C1241 H1247 0.959 . S
C1241 H1248 0.961 . S
C1241 H1249 0.960 . S
C1242 C1240 1.381 . S
C1242 C1243 1.394 . S
C1242 H1250 0.930 . S
C1243 C1242 1.394 . S
C1243 C1244 1.383 . S
C1243 H1251 0.929 . S
C1244 C1243 1.383 . S
C1244 C1245 1.377 . S
C1245 H1229 0.930 . S
C1245 C1244 1.377 . S
C1245 C1246 1.379 . S
C1246 H1230 0.931 . S
C1246 C1240 1.383 . S
C1246 C1245 1.379 . S
H1247 C1241 0.959 . S
H1248 C1241 0.961 . S
H1249 C1241 0.960 . S
H1250 C1242 0.930 . S
H1251 C1243 0.929 . S
H1252 C1260 0.929 . S
H1253 C1262 0.930 . S
H1254 C1264 0.930 . S
H1255 C1267 0.929 . S
H1256 C1270 0.930 . S
H1257 C1272 0.960 . S
H1258 C1272 0.960 . S
H1259 C1272 0.960 . S
C1260 H1252 0.929 . S
C1260 C1261 1.377 . S
C1260 C1262 1.384 . S
C1261 C1260 1.377 . S
C1261 C1267 1.390 . S
C1262 H1253 0.930 . S
C1262 C1260 1.384 . S
C1262 C1263 1.372 . S
C1263 C1262 1.372 . S
C1263 C1264 1.400 . S
C1263 C1268 1.490 . S
C1264 H1254 0.930 . S
C1264 C1263 1.400 . S
C1264 C1267 1.386 . S
H1265 C1281 0.930 . S
H1266 C1282 0.931 . S
C1267 H1255 0.929 . S
C1267 C1261 1.390 . S
C1267 C1264 1.386 . S
C1268 C1263 1.490 . S
C1268 C1270 1.395 . S
C1268 C1271 1.403 . S
H1269 C1275 0.930 . S
C1270 H1256 0.930 . S
C1270 C1268 1.395 . S
C1270 C1273 1.403 . S
C1271 C1268 1.403 . S
C1271 C1272 1.524 . S
C1271 C1275 1.400 . S
C1272 H1257 0.960 . S
C1272 H1258 0.960 . S
C1272 H1259 0.960 . S
C1272 C1271 1.524 . S
C1273 C1270 1.403 . S
C1273 C1274 1.392 . S
C1273 C1277 1.495 . S
C1274 C1273 1.392 . S
C1274 C1275 1.385 . S
C1274 C1276 1.478 . S
C1275 H1269 0.930 . S
C1275 C1271 1.400 . S
C1275 C1274 1.385 . S
C1276 C1274 1.478 . S
C1276 C1278 1.381 . S
C1276 C1282 1.383 . S
C1277 C1273 1.495 . S
C1277 H1283 0.959 . S
C1277 H1284 0.961 . S
C1277 H1285 0.960 . S
C1278 C1276 1.381 . S
C1278 C1279 1.394 . S
C1278 H1286 0.930 . S
C1279 C1278 1.394 . S
C1279 C1280 1.383 . S
C1279 H1287 0.929 . S
C1280 C1279 1.383 . S
C1280 C1281 1.377 . S
C1281 H1265 0.930 . S
C1281 C1280 1.377 . S
C1281 C1282 1.379 . S
C1282 H1266 0.931 . S
C1282 C1276 1.383 . S
C1282 C1281 1.379 . S
H1283 C1277 0.959 . S
H1284 C1277 0.961 . S
H1285 C1277 0.960 . S
H1286 C1278 0.930 . S
H1287 C1279 0.929 . S
H1288 C1296 0.929 . S
H1289 C1298 0.930 . S
H1290 C1300 0.930 . S
H1291 C1303 0.929 . S
H1292 C1306 0.930 . S
H1293 C1308 0.960 . S
H1294 C1308 0.960 . S
H1295 C1308 0.960 . S
C1296 H1288 0.929 . S
C1296 C1297 1.377 1_655 S
C1296 C1298 1.384 . S
C1297 C1296 1.377 1_455 S
C1297 C1303 1.390 . S
C1298 H1289 0.930 . S
C1298 C1296 1.384 . S
C1298 C1299 1.372 1_655 S
C1299 C1298 1.372 1_455 S
C1299 C1300 1.400 . S
C1299 C1304 1.490 . S
C1300 H1290 0.930 . S
C1300 C1299 1.400 . S
C1300 C1303 1.386 . S
H1301 C1317 0.930 . S
H1302 C1318 0.931 . S
C1303 H1291 0.929 . S
C1303 C1297 1.390 . S
C1303 C1300 1.386 . S
C1304 C1299 1.490 . S
C1304 C1306 1.395 1_455 S
C1304 C1307 1.403 . S
H1305 C1311 0.930 . S
C1306 H1292 0.930 . S
C1306 C1304 1.395 1_655 S
C1306 C1309 1.403 . S
C1307 C1304 1.403 . S
C1307 C1308 1.524 . S
C1307 C1311 1.400 . S
C1308 H1293 0.960 . S
C1308 H1294 0.960 . S
C1308 H1295 0.960 . S
C1308 C1307 1.524 . S
C1309 C1306 1.403 . S
C1309 C1310 1.393 . S
C1309 C1313 1.495 . S
C1310 C1309 1.393 . S
C1310 C1311 1.385 1_655 S
C1310 C1312 1.478 1_655 S
C1311 H1305 0.930 . S
C1311 C1307 1.400 . S
C1311 C1310 1.385 1_455 S
C1312 C1310 1.478 1_455 S
C1312 C1314 1.378 1_455 S
C1312 C1318 1.386 . S
C1313 C1309 1.495 . S
C1313 H1319 0.959 . S
C1313 H1320 0.961 . S
C1313 H1321 0.960 . S
C1314 C1312 1.378 1_655 S
C1314 C1315 1.394 . S
C1314 H1322 0.930 . S
C1315 C1314 1.394 . S
C1315 C1316 1.383 1_655 S
C1315 H1323 0.929 . S
C1316 C1315 1.383 1_455 S
C1316 C1317 1.377 . S
C1317 H1301 0.930 . S
C1317 C1316 1.377 . S
C1317 C1318 1.379 . S
C1318 H1302 0.931 . S
C1318 C1312 1.386 . S
C1318 C1317 1.379 . S
H1319 C1313 0.959 . S
H1320 C1313 0.961 . S
H1321 C1313 0.960 . S
H1322 C1314 0.930 . S
H1323 C1315 0.929 . S
H1324 C1332 0.929 . S
H1325 C1334 0.930 . S
H1326 C1336 0.930 . S
H1327 C1339 0.929 . S
H1328 C1342 0.930 . S
H1329 C1344 0.960 . S
H1330 C1344 0.960 1_545 S
H1331 C1344 0.960 . S
C1332 H1324 0.929 . S
C1332 C1333 1.377 . S
C1332 C1334 1.384 . S
C1333 C1332 1.377 . S
C1333 C1339 1.390 1_545 S
C1334 H1325 0.930 . S
C1334 C1332 1.384 . S
C1334 C1335 1.372 . S
C1335 C1334 1.372 . S
C1335 C1336 1.400 1_545 S
C1335 C1340 1.490 . S
C1336 H1326 0.930 . S
C1336 C1335 1.400 1_565 S
C1336 C1339 1.386 . S
H1337 C1353 0.930 . S
H1338 C1354 0.931 . S
C1339 H1327 0.929 . S
C1339 C1333 1.390 1_565 S
C1339 C1336 1.386 . S
C1340 C1335 1.490 . S
C1340 C1342 1.395 . S
C1340 C1343 1.410 . S
H1341 C1347 0.930 1_565 S
C1342 H1328 0.930 . S
C1342 C1340 1.395 . S
C1342 C1345 1.403 . S
C1343 C1340 1.410 . S
C1343 C1344 1.514 1_545 S
C1343 C1347 1.404 . S
C1344 H1329 0.960 . S
C1344 H1330 0.960 1_565 S
C1344 H1331 0.960 . S
C1344 C1343 1.514 1_565 S
C1345 C1342 1.403 . S
C1345 C1346 1.392 . S
C1345 C1349 1.495 . S
C1346 C1345 1.392 . S
C1346 C1347 1.385 . S
C1346 C1348 1.478 . S
C1347 H1341 0.930 1_545 S
C1347 C1343 1.404 . S
C1347 C1346 1.385 . S
C1348 C1346 1.478 . S
C1348 C1350 1.381 . S
C1348 C1354 1.383 1_545 S
C1349 C1345 1.495 . S
C1349 H1355 0.959 . S
C1349 H1356 0.961 . S
C1349 H1357 0.960 . S
C1350 C1348 1.381 . S
C1350 C1351 1.394 . S
C1350 H1358 0.930 . S
C1351 C1350 1.394 . S
C1351 C1352 1.383 . S
C1351 H1359 0.929 . S
C1352 C1351 1.383 . S
C1352 C1353 1.377 1_545 S
C1353 H1337 0.930 . S
C1353 C1352 1.377 1_565 S
C1353 C1354 1.379 . S
C1354 H1338 0.931 . S
C1354 C1348 1.383 1_565 S
C1354 C1353 1.379 . S
H1355 C1349 0.959 . S
H1356 C1349 0.961 . S
H1357 C1349 0.960 . S
H1358 C1350 0.930 . S
H1359 C1351 0.929 . S
C217 C0 1.791 . S
C236 C91 1.794 . S
C253 C13 1.748 . S
C272 C52 1.731 . S
C289 C65 1.778 . S
C308 C26 1.778 . S
C325 C39 1.750 . S
C344 C78 1.749 . S
C361 C104 1.751 . S
C380 C156 1.756 . S
C397 C117 1.779 . S
C416 C182 1.782 . S
C433 C143 1.746 . S
C452 C130 1.766 . S
C469 C195 1.810 . S
C488 C169 1.803 . S
C505 C5 1.060 . S
C524 C88 1.052 . S
C541 C96 1.002 . S
C560 C21 0.974 1_565 S
C577 C31 1.105 . S
C596 C57 1.140 . S
C613 C70 1.077 . S
C632 C47 1.085 . S
C649 C10 1.167 . S
C668 C192 1.139 . S
C685 C148 1.082 1_655 S
C704 C18 1.059 . S
C721 C179 1.172 . S
C740 C36 1.154 . S
C757 C161 1.093 . S
C776 C44 1.114 . S
C793 C138 1.110 . S
C812 C62 1.141 . S
C829 C75 1.143 . S
C848 C205 1.129 . S
C865 C86 1.107 . S
C884 C114 1.102 . S
C901 C101 1.130 1_455 S
C920 C127 1.129 1_655 S
C937 C8 1.036 . S
C956 C60 1.018 . S
C973 C112 1.045 . S
C992 C177 1.073 . S
C1009 C166 1.051 1_556 S
C1028 C125 1.070 . S
C1045 C190 0.980 . S
C1064 C135 1.015 . S
C1081 C99 1.130 . S
C1100 C49 1.167 1_556 S
C1117 C34 0.980 . S
C1136 C83 1.014 . S
C1153 C153 1.142 . S
C1172 C203 1.150 . S
C1189 C174 1.050 . S
C1208 C140 1.037 . S
C1225 C200 1.018 . S
C1244 C164 1.042 . S
C1261 C187 1.097 . S
C1280 C109 1.121 . S
C1297 C151 1.069 . S
C1316 C122 1.105 . S
C1333 C23 1.044 . S
C1352 C73 0.995 . S
