# Generated by pormake.
# Topology wji, (4)-cn, num edge types: 1
# Building blocks:
#     Node 0, Type 0, BuildingBlock: ICAMEG_clean_sbu_1, # of connection points: 4
#     Node 1, Type 0, BuildingBlock: ICAMEG_clean_sbu_1, # of connection points: 4
#     Node 2, Type 0, BuildingBlock: ICAMEG_clean_sbu_1, # of connection points: 4
#     Node 3, Type 0, BuildingBlock: ICAMEG_clean_sbu_1, # of connection points: 4
#     Node 4, Type 0, BuildingBlock: ICAMEG_clean_sbu_1, # of connection points: 4
#     Node 5, Type 0, BuildingBlock: ICAMEG_clean_sbu_1, # of connection points: 4
#     Node 6, Type 0, BuildingBlock: ICAMEG_clean_sbu_1, # of connection points: 4
#     Node 7, Type 0, BuildingBlock: ICAMEG_clean_sbu_1, # of connection points: 4
#     Node 8, Type 0, BuildingBlock: ICAMEG_clean_sbu_1, # of connection points: 4
#     Node 9, Type 0, BuildingBlock: ICAMEG_clean_sbu_1, # of connection points: 4
#     Node 10, Type 0, BuildingBlock: ICAMEG_clean_sbu_1, # of connection points: 4
#     Node 11, Type 0, BuildingBlock: ICAMEG_clean_sbu_1, # of connection points: 4
#     Edge 12, Type (0, 0), BuildingBlock: MIFKUJ_clean_linker_0, # of connection points: 2
#     Edge 13, Type (0, 0), BuildingBlock: MIFKUJ_clean_linker_0, # of connection points: 2
#     Edge 14, Type (0, 0), BuildingBlock: MIFKUJ_clean_linker_0, # of connection points: 2
#     Edge 15, Type (0, 0), BuildingBlock: MIFKUJ_clean_linker_0, # of connection points: 2
#     Edge 16, Type (0, 0), BuildingBlock: MIFKUJ_clean_linker_0, # of connection points: 2
#     Edge 17, Type (0, 0), BuildingBlock: MIFKUJ_clean_linker_0, # of connection points: 2
#     Edge 18, Type (0, 0), BuildingBlock: MIFKUJ_clean_linker_0, # of connection points: 2
#     Edge 19, Type (0, 0), BuildingBlock: MIFKUJ_clean_linker_0, # of connection points: 2
#     Edge 20, Type (0, 0), BuildingBlock: MIFKUJ_clean_linker_0, # of connection points: 2
#     Edge 21, Type (0, 0), BuildingBlock: MIFKUJ_clean_linker_0, # of connection points: 2
#     Edge 22, Type (0, 0), BuildingBlock: MIFKUJ_clean_linker_0, # of connection points: 2
#     Edge 23, Type (0, 0), BuildingBlock: MIFKUJ_clean_linker_0, # of connection points: 2
#     Edge 24, Type (0, 0), BuildingBlock: MIFKUJ_clean_linker_0, # of connection points: 2
#     Edge 25, Type (0, 0), BuildingBlock: MIFKUJ_clean_linker_0, # of connection points: 2
#     Edge 26, Type (0, 0), BuildingBlock: MIFKUJ_clean_linker_0, # of connection points: 2
#     Edge 27, Type (0, 0), BuildingBlock: MIFKUJ_clean_linker_0, # of connection points: 2
#     Edge 28, Type (0, 0), BuildingBlock: MIFKUJ_clean_linker_0, # of connection points: 2
#     Edge 29, Type (0, 0), BuildingBlock: MIFKUJ_clean_linker_0, # of connection points: 2
#     Edge 30, Type (0, 0), BuildingBlock: MIFKUJ_clean_linker_0, # of connection points: 2
#     Edge 31, Type (0, 0), BuildingBlock: MIFKUJ_clean_linker_0, # of connection points: 2
#     Edge 32, Type (0, 0), BuildingBlock: MIFKUJ_clean_linker_0, # of connection points: 2
#     Edge 33, Type (0, 0), BuildingBlock: MIFKUJ_clean_linker_0, # of connection points: 2
#     Edge 34, Type (0, 0), BuildingBlock: MIFKUJ_clean_linker_0, # of connection points: 2
#     Edge 35, Type (0, 0), BuildingBlock: MIFKUJ_clean_linker_0, # of connection points: 2
# Relax obj value: 0.316
# Max RMSD: 0.212
# Mean RMSD: 0.212
data_MOF--net-wji--node1-ICAMEG_clean_sbu_1--edge1-MIFKUJ_clean_linker_0
_symmetry_space_group_name_H-M    P1
_symmetry_Int_Tables_number       1
_symmetry_cell_setting            triclinic
loop_
_symmetry_equiv_pos_as_xyz
'x, y, z'
_cell_length_a     77.734405
_cell_length_b     77.792424
_cell_length_c     30.171119
_cell_angle_alpha  89.897406
_cell_angle_beta   90.018355
_cell_angle_gamma 119.96674
loop_
_atom_site_label
_atom_site_type_symbol
_atom_site_fract_x
_atom_site_fract_y
_atom_site_fract_z
_atom_type_partial_charge
Co0 Co 0.4268 0.3502 0.45697 0.0
Co1 Co 0.43928 0.32245 0.39063 0.0
O2 O 0.42601 0.32542 0.44262 0.0
C3 C 0.38422 0.33617 0.47345 0.0
O4 O 0.38506 0.34787 0.44108 0.0
C5 C 0.45205 0.30717 0.46696 0.0
O6 O 0.45605 0.32363 0.48739 0.0
O7 O 0.46494 0.34616 0.40856 0.0
O8 O 0.45443 0.3665 0.43328 0.0
H9 H 0.48364 0.34624 0.25684 0.0
H10 H 0.41594 0.31991 0.52764 0.0
O11 O 0.39928 0.33431 0.48189 0.0
H12 H 0.47538 0.3796 0.58325 0.0
H13 H 0.41414 0.39579 0.55284 0.0
H14 H 0.43941 0.38788 0.40889 0.0
H15 H 0.46115 0.38 0.51051 0.0
H16 H 0.4144 0.36496 0.5354 0.0
O17 O 0.44606 0.30456 0.42677 0.0
H18 H 0.46611 0.34966 0.32141 0.0
H19 H 0.44149 0.28845 0.35139 0.0
H20 H 0.43943 0.41896 0.42495 0.0
H21 H 0.42947 0.319 0.60097 0.0
H22 H 0.42673 0.42306 0.4974 0.0
H23 H 0.45947 0.34896 0.62912 0.0
O24 O 0.41594 0.35022 0.39756 0.0
H25 H 0.3765 0.25768 0.41698 0.0
H26 H 0.41647 0.30888 0.30605 0.0
H27 H 0.38456 0.28004 0.28388 0.0
H28 H 0.36437 0.25414 0.33952 0.0
H29 H 0.40842 0.28686 0.43784 0.0
H30 H 0.45885 0.28438 0.28732 0.0
H31 H 0.48005 0.3134 0.23945 0.0
O32 O 0.43211 0.33985 0.35319 0.0
C33 C 0.46823 0.36324 0.42078 0.0
C34 C 0.47439 0.33346 0.27735 0.0
C35 C 0.4605 0.29875 0.2945 0.0
N36 N 0.45268 0.31924 0.33987 0.0
C37 C 0.46439 0.3353 0.31386 0.0
C38 C 0.45075 0.30115 0.33078 0.0
C39 C 0.47239 0.31504 0.26764 0.0
C40 C 0.42882 0.33311 0.53992 0.0
N41 N 0.43768 0.35 0.51483 0.0
C42 C 0.43649 0.33246 0.58137 0.0
C43 C 0.45335 0.34926 0.5971 0.0
C44 C 0.4623 0.36644 0.57135 0.0
C45 C 0.45422 0.36655 0.53007 0.0
C46 C 0.41975 0.3942 0.5212 0.0
C47 C 0.43392 0.38958 0.44054 0.0
C48 C 0.41995 0.37678 0.51114 0.0
N49 N 0.42699 0.37465 0.47121 0.0
C50 C 0.43395 0.4072 0.44943 0.0
C51 C 0.42681 0.40949 0.49007 0.0
C52 C 0.42124 0.34778 0.35918 0.0
C53 C 0.38519 0.26883 0.39242 0.0
C54 C 0.40774 0.29772 0.33051 0.0
C55 C 0.3897 0.2814 0.31773 0.0
C56 C 0.37838 0.26687 0.34896 0.0
N57 N 0.41436 0.29951 0.37317 0.0
C58 C 0.40331 0.28537 0.404 0.0
Co59 Co 0.08406 0.4298 0.6202 0.0
Co60 Co 0.12262 0.43466 0.55806 0.0
O61 O 0.10685 0.42606 0.61233 0.0
C62 C 0.06529 0.38733 0.65102 0.0
O63 O 0.06635 0.38109 0.61125 0.0
C64 C 0.15235 0.44965 0.63168 0.0
O65 O 0.14187 0.45679 0.64971 0.0
O66 O 0.12755 0.46224 0.56745 0.0
O67 O 0.09646 0.45463 0.58364 0.0
H68 H 0.14437 0.47016 0.41196 0.0
H69 H 0.10418 0.42509 0.69916 0.0
O70 O 0.07142 0.40559 0.65831 0.0
H71 H 0.1061 0.48887 0.72028 0.0
H72 H 0.02771 0.428 0.70651 0.0
H73 H 0.06059 0.4407 0.56076 0.0
H74 H 0.09035 0.46855 0.65413 0.0
H75 H 0.05744 0.42474 0.69648 0.0
O76 O 0.1472 0.44105 0.59402 0.0
H77 H 0.12405 0.45842 0.47994 0.0
H78 H 0.15608 0.43035 0.52253 0.0
H79 H 0.031 0.44427 0.56943 0.0
H80 H 0.12011 0.44498 0.76597 0.0
H81 H 0.01435 0.43791 0.64274 0.0
H82 H 0.12124 0.47719 0.77674 0.0
O83 O 0.07178 0.41393 0.56601 0.0
H84 H 0.11716 0.37043 0.60764 0.0
H85 H 0.11012 0.40676 0.48131 0.0
H86 H 0.10294 0.37237 0.47086 0.0
H87 H 0.10649 0.35398 0.5343 0.0
H88 H 0.12405 0.4048 0.6167 0.0
H89 H 0.17687 0.44194 0.45523 0.0
H90 H 0.17101 0.46192 0.39929 0.0
O91 O 0.09811 0.42764 0.52046 0.0
C92 C 0.11436 0.46721 0.57343 0.0
C93 C 0.14703 0.46142 0.43602 0.0
C94 C 0.1653 0.4456 0.46034 0.0
N95 N 0.13879 0.44361 0.50495 0.0
C96 C 0.13555 0.45469 0.4745 0.0
C97 C 0.15352 0.43913 0.49844 0.0
C98 C 0.16199 0.4568 0.42896 0.0
C99 C 0.10448 0.43902 0.70379 0.0
N100 N 0.09637 0.44565 0.6727 0.0
C101 C 0.11358 0.45025 0.74161 0.0
C102 C 0.11425 0.46834 0.74759 0.0
C103 C 0.10583 0.47494 0.71588 0.0
C104 C 0.09695 0.46337 0.67839 0.0
C105 C 0.03486 0.43085 0.67443 0.0
C106 C 0.05351 0.43801 0.59283 0.0
C107 C 0.05167 0.42898 0.66851 0.0
N108 N 0.06085 0.43268 0.62814 0.0
C109 C 0.03672 0.44001 0.59751 0.0
C110 C 0.02737 0.43642 0.63864 0.0
C111 C 0.07928 0.41729 0.52717 0.0
C112 C 0.11561 0.37831 0.57971 0.0
C113 C 0.11166 0.39885 0.5091 0.0
C114 C 0.10761 0.37939 0.50296 0.0
C115 C 0.10961 0.36908 0.53857 0.0
N116 N 0.11761 0.40783 0.54953 0.0
C117 C 0.11955 0.3978 0.58461 0.0
Co118 Co 0.65974 0.08284 0.77707 0.0
Co119 Co 0.69642 0.12045 0.71855 0.0
O120 O 0.68705 0.10454 0.77238 0.0
C121 C 0.68196 0.06349 0.81196 0.0
O122 O 0.6914 0.06654 0.77411 0.0
C123 C 0.71091 0.15054 0.79156 0.0
O124 O 0.69256 0.14176 0.80626 0.0
O125 O 0.67491 0.12725 0.72513 0.0
O126 O 0.64954 0.09661 0.73758 0.0
H127 H 0.68831 0.14483 0.57013 0.0
H128 H 0.68279 0.10164 0.8587 0.0
O129 O 0.66908 0.06884 0.8174 0.0
H130 H 0.6232 0.10856 0.86835 0.0
H131 H 0.60163 0.02745 0.85719 0.0
H132 H 0.62685 0.06081 0.71329 0.0
H133 H 0.62802 0.09155 0.80483 0.0
H134 H 0.63512 0.05677 0.85131 0.0
O135 O 0.71492 0.14428 0.75609 0.0
H136 H 0.67695 0.12412 0.63764 0.0
H137 H 0.736 0.15229 0.68682 0.0
H138 H 0.59337 0.03141 0.71765 0.0
H139 H 0.67842 0.11855 0.92318 0.0
H140 H 0.58062 0.01441 0.78993 0.0
H141 H 0.6485 0.12218 0.92818 0.0
O142 O 0.66396 0.07017 0.72458 0.0
H143 H 0.75124 0.11008 0.77589 0.0
H144 H 0.71189 0.10655 0.64441 0.0
H145 H 0.73768 0.09706 0.63782 0.0
H146 H 0.75759 0.09884 0.70386 0.0
H147 H 0.72519 0.11927 0.78109 0.0
H148 H 0.74799 0.17343 0.62005 0.0
H149 H 0.72407 0.16969 0.56104 0.0
O150 O 0.6786 0.09657 0.67946 0.0
C151 C 0.65637 0.11491 0.72859 0.0
C152 C 0.69888 0.14655 0.59554 0.0
C153 C 0.73237 0.16262 0.6236 0.0
N154 N 0.70582 0.1369 0.6659 0.0
C155 C 0.69254 0.13484 0.63376 0.0
C156 C 0.72549 0.15065 0.66137 0.0
C157 C 0.71895 0.16051 0.59049 0.0
C158 C 0.66963 0.10298 0.86088 0.0
N159 N 0.65568 0.09559 0.82806 0.0
C160 C 0.66727 0.11264 0.89738 0.0
C161 C 0.65049 0.1147 0.90014 0.0
C162 C 0.63629 0.10707 0.86659 0.0
C163 C 0.63914 0.09748 0.83063 0.0
C164 C 0.60706 0.03466 0.82547 0.0
C165 C 0.62136 0.0536 0.74494 0.0
C166 C 0.626 0.05131 0.82195 0.0
N167 N 0.63291 0.06057 0.78202 0.0
C168 C 0.60242 0.03689 0.74715 0.0
C169 C 0.59528 0.02736 0.78772 0.0
C170 C 0.66924 0.0777 0.68599 0.0
C171 C 0.7427 0.10929 0.74684 0.0
C172 C 0.72046 0.10732 0.67333 0.0
C173 C 0.73507 0.10196 0.66937 0.0
C174 C 0.74624 0.10297 0.70643 0.0
N175 N 0.71712 0.11357 0.71305 0.0
C176 C 0.72797 0.11454 0.74955 0.0
Co177 Co 0.59025 0.66078 0.95618 0.0
Co178 Co 0.58111 0.69103 0.89012 0.0
O179 O 0.59253 0.68637 0.94324 0.0
C180 C 0.63224 0.67373 0.97786 0.0
O181 O 0.63247 0.66318 0.94416 0.0
C182 C 0.56777 0.70639 0.96525 0.0
O183 O 0.56233 0.68939 0.98499 0.0
O184 O 0.55453 0.6679 0.90515 0.0
O185 O 0.56334 0.64593 0.92807 0.0
H186 H 0.54001 0.67135 0.7513 0.0
H187 H 0.59971 0.6895 0.02964 0.0
O188 O 0.61692 0.67524 0.98542 0.0
H189 H 0.53759 0.62969 0.07424 0.0
H190 H 0.59856 0.61206 0.05115 0.0
H191 H 0.57767 0.62382 0.90523 0.0
H192 H 0.55384 0.63052 1.00354 0.0
H193 H 0.59976 0.64372 0.03502 0.0
O194 O 0.57481 0.70931 0.92591 0.0
H195 H 0.55514 0.66574 0.81765 0.0
H196 H 0.58189 0.72672 0.85152 0.0
H197 H 0.57615 0.5919 0.92001 0.0
H198 H 0.58408 0.68918 0.10096 0.0
H199 H 0.5867 0.58588 0.99339 0.0
H200 H 0.55272 0.65915 0.12356 0.0
O201 O 0.60267 0.66165 0.89818 0.0
H202 H 0.64524 0.75336 0.92382 0.0
H203 H 0.60589 0.70478 0.80814 0.0
H204 H 0.63908 0.73266 0.78975 0.0
H205 H 0.65898 0.75725 0.84779 0.0
H206 H 0.61206 0.7251 0.94093 0.0
H207 H 0.56692 0.73298 0.78577 0.0
H208 H 0.54588 0.70518 0.73503 0.0
O209 O 0.58783 0.67326 0.85302 0.0
C210 C 0.55031 0.65027 0.91526 0.0
C211 C 0.5492 0.6836 0.77308 0.0
C212 C 0.56428 0.71818 0.79246 0.0
N213 N 0.56949 0.69591 0.83818 0.0
C214 C 0.55784 0.68051 0.81061 0.0
C215 C 0.57267 0.71454 0.82969 0.0
C216 C 0.55248 0.70258 0.764 0.0
C217 C 0.58621 0.67627 0.0395 0.0
N218 N 0.57776 0.66003 0.01246 0.0
C219 C 0.57737 0.67622 0.07982 0.0
C220 C 0.55975 0.65939 0.09243 0.0
C221 C 0.55123 0.64287 0.06474 0.0
C222 C 0.56048 0.64346 0.02464 0.0
C223 C 0.5939 0.61449 0.01906 0.0
C224 C 0.58217 0.62127 0.93732 0.0
C225 C 0.59455 0.63239 0.00973 0.0
N226 N 0.58871 0.63559 0.96926 0.0
C227 C 0.58132 0.60318 0.94547 0.0
C228 C 0.58725 0.59981 0.98664 0.0
C229 C 0.59814 0.66473 0.85951 0.0
C230 C 0.63669 0.74278 0.89822 0.0
C231 C 0.61447 0.71536 0.83364 0.0
C232 C 0.63325 0.73115 0.82299 0.0
C233 C 0.6444 0.74494 0.85556 0.0
N234 N 0.60699 0.71336 0.87554 0.0
C235 C 0.61787 0.72678 0.90768 0.0
Co236 Co 0.93507 0.5816 0.11655 0.0
Co237 Co 0.89591 0.57692 0.05601 0.0
O238 O 0.91261 0.58612 0.1092 0.0
C239 C 0.94835 0.62188 0.15744 0.0
O240 O 0.93362 0.62303 0.13939 0.0
C241 C 0.86711 0.56329 0.13157 0.0
O242 O 0.87776 0.55639 0.14992 0.0
O243 O 0.89037 0.54922 0.06696 0.0
O244 O 0.92127 0.55615 0.08267 0.0
H245 H 0.87182 0.53976 0.91261 0.0
H246 H 0.91776 0.58943 0.1965 0.0
O247 O 0.95044 0.60685 0.15093 0.0
H248 H 0.90899 0.52284 0.21997 0.0
H249 H 0.99091 0.58078 0.19963 0.0
H250 H 0.95647 0.56864 0.05604 0.0
H251 H 0.92614 0.54221 0.15317 0.0
H252 H 0.96211 0.58574 0.19129 0.0
O253 O 0.8719 0.57136 0.09324 0.0
H254 H 0.89299 0.55199 0.97918 0.0
H255 H 0.86245 0.58155 0.02163 0.0
H256 H 0.98513 0.56342 0.063 0.0
H257 H 0.90145 0.571 0.26452 0.0
H258 H 1.0026 0.56955 0.13517 0.0
H259 H 0.8968 0.53734 0.27644 0.0
O260 O 0.94678 0.59634 0.06088 0.0
H261 H 0.90079 0.64151 0.09994 0.0
H262 H 0.90885 0.60413 0.97771 0.0
H263 H 0.91591 0.63832 0.96453 0.0
H264 H 0.91184 0.65725 0.02588 0.0
H265 H 0.89416 0.60737 0.11186 0.0
H266 H 0.84083 0.56952 0.95575 0.0
H267 H 0.84551 0.54853 0.90058 0.0
O268 O 0.91986 0.58299 0.01703 0.0
C269 C 0.90334 0.54396 0.07242 0.0
C270 C 0.86966 0.54894 0.93635 0.0
C271 C 0.85225 0.56561 0.96059 0.0
N272 N 0.87904 0.56756 1.00406 0.0
C273 C 0.88164 0.55594 0.97403 0.0
C274 C 0.86451 0.57234 0.99789 0.0
C275 C 0.85489 0.55385 0.92964 0.0
C276 C 0.91637 0.57508 0.2019 0.0
N277 N 0.92316 0.56707 0.17099 0.0
C278 C 0.9069 0.5646 0.24036 0.0
C279 C 0.90426 0.54571 0.24697 0.0
C280 C 0.91115 0.53759 0.2153 0.0
C281 C 0.92074 0.54859 0.17743 0.0
C282 C 0.98343 0.57808 0.168 0.0
C283 C 0.96391 0.57124 0.08764 0.0
C284 C 0.96711 0.58086 0.16307 0.0
N285 N 0.95753 0.57738 0.12328 0.0
C286 C 0.98017 0.5683 0.09133 0.0
C287 C 0.98998 0.57178 0.13181 0.0
C288 C 0.9388 0.59294 0.02258 0.0
C289 C 0.90262 0.63342 0.07294 0.0
C290 C 0.90724 0.61231 1.00473 0.0
C291 C 0.91116 0.63165 0.99699 0.0
C292 C 0.90884 0.64225 0.0314 0.0
N293 N 0.9012 0.60377 0.04562 0.0
C294 C 0.89883 0.61405 0.07945 0.0
Co295 Co 0.35563 0.93357 0.28772 0.0
Co296 Co 0.32418 0.89416 0.2236 0.0
O297 O 0.32966 0.91026 0.27714 0.0
C298 C 0.32582 0.94341 0.32911 0.0
O299 O 0.31039 0.92652 0.31726 0.0
C300 C 0.3096 0.86409 0.29683 0.0
O301 O 0.32755 0.87374 0.31369 0.0
O302 O 0.34726 0.89019 0.23647 0.0
O303 O 0.36943 0.92099 0.25755 0.0
H304 H 0.34172 0.87222 0.0826 0.0
H305 H 0.32757 0.91133 0.36161 0.0
O306 O 0.3434 0.94757 0.31894 0.0
H307 H 0.39001 0.91303 0.39976 0.0
H308 H 0.40708 0.99203 0.3746 0.0
H309 H 0.39143 0.9565 0.23203 0.0
H310 H 0.38784 0.92996 0.3328 0.0
H311 H 0.37487 0.96146 0.36352 0.0
O312 O 0.30595 0.8698 0.26003 0.0
H313 H 0.34841 0.89303 0.14911 0.0
H314 H 0.28773 0.85966 0.18664 0.0
H315 H 0.42388 0.98682 0.24195 0.0
H316 H 0.32908 0.89425 0.42874 0.0
H317 H 0.43187 1.00481 0.31369 0.0
H318 H 0.36044 0.89492 0.44827 0.0
O319 O 0.35341 0.94503 0.23078 0.0
H320 H 0.26181 0.89542 0.26113 0.0
H321 H 0.31021 0.9062 0.14345 0.0
H322 H 0.28219 0.9116 0.12714 0.0
H323 H 0.25771 0.90615 0.18618 0.0
H324 H 0.29017 0.8904 0.27616 0.0
H325 H 0.28039 0.83837 0.12074 0.0
H326 H 0.30749 0.84465 0.06809 0.0
O327 O 0.34188 0.91856 0.18596 0.0
C328 C 0.365 0.90354 0.24569 0.0
C329 C 0.32977 0.86937 0.10522 0.0
C330 C 0.29536 0.85035 0.12666 0.0
N331 N 0.31845 0.87765 0.17149 0.0
C332 C 0.33347 0.88114 0.14285 0.0
C333 C 0.29961 0.86242 0.16396 0.0
C334 C 0.31057 0.85389 0.09712 0.0
C335 C 0.3414 0.91211 0.37006 0.0
N336 N 0.35766 0.92194 0.3433 0.0
C337 C 0.3421 0.90219 0.40803 0.0
C338 C 0.35968 0.90252 0.4189 0.0
C339 C 0.37626 0.91268 0.39172 0.0
C340 C 0.37496 0.92231 0.35385 0.0
C341 C 0.40379 0.98424 0.34333 0.0
C342 C 0.39486 0.96412 0.2635 0.0
C343 C 0.38557 0.96696 0.33679 0.0
N344 N 0.38133 0.95708 0.29729 0.0
C345 C 0.41324 0.98133 0.26887 0.0
C346 C 0.4177 0.99142 0.3091 0.0
C347 C 0.35008 0.93737 0.19217 0.0
C348 C 0.27238 0.89785 0.23512 0.0
C349 C 0.29974 0.90398 0.16947 0.0
C350 C 0.28384 0.90697 0.15996 0.0
C351 C 0.2701 0.90389 0.19308 0.0
N352 N 0.30191 0.89809 0.21083 0.0
C353 C 0.28846 0.895 0.24342 0.0
Co354 Co 0.66093 0.58685 0.39193 0.0
Co355 Co 0.69241 0.57814 0.45539 0.0
O356 O 0.68692 0.58925 0.40233 0.0
C357 C 0.69121 0.62767 0.35839 0.0
O358 O 0.70595 0.62659 0.37656 0.0
C359 C 0.70729 0.56476 0.37909 0.0
O360 O 0.69044 0.55987 0.35927 0.0
O361 O 0.66915 0.55141 0.44223 0.0
O362 O 0.64698 0.56006 0.42058 0.0
H363 H 0.67447 0.5381 0.59583 0.0
H364 H 0.68854 0.59569 0.31578 0.0
O365 O 0.67338 0.61353 0.36238 0.0
H366 H 0.62757 0.53394 0.27556 0.0
H367 H 0.6096 0.59397 0.30445 0.0
H368 H 0.62484 0.57342 0.44698 0.0
H369 H 0.62978 0.55048 0.34662 0.0
H370 H 0.64204 0.59621 0.31646 0.0
O371 O 0.71022 0.57147 0.41867 0.0
H372 H 0.66803 0.55271 0.52966 0.0
H373 H 0.72863 0.57923 0.49183 0.0
H374 H 0.59217 0.57079 0.43624 0.0
H375 H 0.68682 0.57986 0.24412 0.0
H376 H 0.58436 0.5811 0.36454 0.0
H377 H 0.6562 0.54868 0.22362 0.0
O378 O 0.66279 0.59968 0.44965 0.0
H379 H 0.75579 0.64085 0.41845 0.0
H380 H 0.70681 0.60392 0.53569 0.0
H381 H 0.73536 0.63689 0.55227 0.0
H382 H 0.76014 0.65558 0.49345 0.0
H383 H 0.72684 0.60797 0.40307 0.0
H384 H 0.7357 0.56477 0.55738 0.0
H385 H 0.70852 0.54411 0.61001 0.0
O386 O 0.67512 0.58515 0.49371 0.0
C387 C 0.65141 0.54711 0.43318 0.0
C388 C 0.68645 0.54712 0.57321 0.0
C389 C 0.72081 0.56208 0.5516 0.0
N390 N 0.69796 0.56692 0.50714 0.0
C391 C 0.6829 0.55548 0.53577 0.0
C392 C 0.71671 0.57018 0.51449 0.0
C393 C 0.70556 0.55049 0.58112 0.0
C394 C 0.67502 0.58237 0.30689 0.0
N395 N 0.65921 0.5742 0.33529 0.0
C396 C 0.67419 0.57336 0.26633 0.0
C397 C 0.65703 0.55584 0.25491 0.0
C398 C 0.64098 0.54755 0.28405 0.0
C399 C 0.64235 0.55697 0.32433 0.0
C400 C 0.6128 0.58938 0.3358 0.0
C401 C 0.62152 0.57782 0.41558 0.0
C402 C 0.63116 0.59065 0.34283 0.0
N403 N 0.63527 0.58477 0.38226 0.0
C404 C 0.60301 0.57635 0.40974 0.0
C405 C 0.59865 0.58215 0.36952 0.0
C406 C 0.66651 0.59544 0.48799 0.0
C407 C 0.74509 0.63286 0.44436 0.0
C408 C 0.71738 0.61203 0.50972 0.0
C409 C 0.73359 0.63066 0.51941 0.0
C410 C 0.74751 0.64113 0.48642 0.0
N411 N 0.71505 0.60405 0.46832 0.0
C412 C 0.72869 0.61419 0.43589 0.0
Co413 Co 0.08455 0.65134 0.55986 0.0
Co414 Co 0.12002 0.68851 0.62222 0.0
O415 O 0.10461 0.67909 0.56795 0.0
C416 C 0.06289 0.67181 0.52806 0.0
O417 O 0.06535 0.6805 0.56667 0.0
C418 C 0.15093 0.70446 0.55104 0.0
O419 O 0.1432 0.68614 0.53678 0.0
O420 O 0.12851 0.66818 0.61594 0.0
O421 O 0.09936 0.64179 0.59746 0.0
H422 H 0.14399 0.68089 0.77155 0.0
H423 H 0.10175 0.6771 0.48089 0.0
O424 O 0.0693 0.65985 0.52128 0.0
H425 H 0.11987 0.62509 0.46583 0.0
H426 H 0.03423 0.59312 0.47102 0.0
H427 H 0.0639 0.61623 0.61883 0.0
H428 H 0.09886 0.62425 0.52801 0.0
H429 H 0.06105 0.62767 0.4821 0.0
O430 O 0.14378 0.70805 0.58567 0.0
H431 H 0.12399 0.66921 0.70315 0.0
H432 H 0.15025 0.72841 0.65547 0.0
H433 H 0.03715 0.58156 0.60921 0.0
H434 H 0.12174 0.67778 0.41687 0.0
H435 H 0.02206 0.56983 0.53491 0.0
H436 H 0.1311 0.65172 0.40928 0.0
O437 O 0.07035 0.65252 0.6135 0.0
H438 H 0.10664 0.74151 0.56575 0.0
H439 H 0.10397 0.7019 0.69608 0.0
H440 H 0.09243 0.7261 0.70287 0.0
H441 H 0.09376 0.74614 0.6374 0.0
H442 H 0.11786 0.717 0.56032 0.0
H443 H 0.17067 0.74073 0.72312 0.0
H444 H 0.16753 0.71689 0.78182 0.0
O445 O 0.09609 0.6695 0.65971 0.0
C446 C 0.11734 0.64958 0.61003 0.0
C447 C 0.14545 0.69143 0.74627 0.0
C448 C 0.16045 0.72501 0.71906 0.0
N449 N 0.13587 0.69813 0.67558 0.0
C450 C 0.13413 0.68491 0.70756 0.0
C451 C 0.14889 0.71795 0.68079 0.0
C452 C 0.15867 0.71163 0.75199 0.0
C453 C 0.10525 0.66537 0.47719 0.0
N454 N 0.09899 0.65056 0.50807 0.0
C455 C 0.11674 0.66594 0.44103 0.0
C456 C 0.122 0.65133 0.43682 0.0
C457 C 0.11559 0.6363 0.46844 0.0
C458 C 0.10384 0.63601 0.50376 0.0
C459 C 0.04067 0.59807 0.50357 0.0
C460 C 0.05751 0.6112 0.58633 0.0
C461 C 0.05587 0.6176 0.51004 0.0
N462 N 0.06409 0.62393 0.55104 0.0
C463 C 0.04232 0.59157 0.58112 0.0
C464 C 0.03383 0.58501 0.53944 0.0
C465 C 0.07738 0.65842 0.65234 0.0
C466 C 0.10603 0.7329 0.59454 0.0
C467 C 0.10455 0.71052 0.66741 0.0
C468 C 0.09803 0.72424 0.67148 0.0
C469 C 0.09879 0.73548 0.63474 0.0
N470 N 0.11167 0.7081 0.62788 0.0
C471 C 0.11243 0.71905 0.59171 0.0
Co472 Co 0.44153 0.08273 0.73218 0.0
Co473 Co 0.44045 0.11924 0.79162 0.0
O474 O 0.43459 0.10351 0.73767 0.0
C475 C 0.39987 0.06237 0.69783 0.0
O476 O 0.39348 0.06585 0.73517 0.0
C477 C 0.45498 0.14903 0.7181 0.0
O478 O 0.464 0.13992 0.70216 0.0
O479 O 0.46911 0.12713 0.786 0.0
O480 O 0.46552 0.09732 0.77088 0.0
H481 H 0.47161 0.14356 0.94102 0.0
H482 H 0.4352 0.10029 0.65072 0.0
O483 O 0.41813 0.0678 0.69261 0.0
H484 H 0.50356 0.11214 0.6388 0.0
H485 H 0.44859 0.03035 0.64977 0.0
H486 H 0.45474 0.06215 0.79468 0.0
H487 H 0.48263 0.09418 0.703 0.0
H488 H 0.44114 0.05753 0.65731 0.0
O489 O 0.44535 0.14306 0.7545 0.0
H490 H 0.46332 0.12326 0.87318 0.0
H491 H 0.43115 0.15 0.82327 0.0
H492 H 0.46247 0.03512 0.78854 0.0
H493 H 0.45551 0.118 0.58551 0.0
H494 H 0.45942 0.01903 0.71567 0.0
H495 H 0.49 0.12414 0.57938 0.0
O496 O 0.42522 0.06929 0.78515 0.0
H497 H 0.37482 0.10679 0.73236 0.0
H498 H 0.41055 0.10409 0.86486 0.0
H499 H 0.37491 0.09322 0.87033 0.0
H500 H 0.3568 0.09457 0.80376 0.0
H501 H 0.41044 0.11734 0.72827 0.0
H502 H 0.43923 0.17072 0.89035 0.0
H503 H 0.45953 0.1675 0.94988 0.0
O504 O 0.4349 0.09541 0.83033 0.0
C505 C 0.47611 0.11548 0.78186 0.0
C506 C 0.46271 0.14506 0.91537 0.0
C507 C 0.44455 0.16032 0.8869 0.0
N508 N 0.44666 0.13535 0.84453 0.0
C509 C 0.45793 0.13357 0.87696 0.0
C510 C 0.44007 0.14859 0.84895 0.0
C511 C 0.45594 0.1585 0.9203 0.0
C512 C 0.4501 0.10267 0.64802 0.0
N513 N 0.4577 0.0962 0.68068 0.0
C514 C 0.46157 0.1128 0.61112 0.0
C515 C 0.48093 0.11627 0.60774 0.0
C516 C 0.48855 0.10956 0.64108 0.0
C517 C 0.47665 0.09946 0.67746 0.0
C518 C 0.45002 0.03727 0.68168 0.0
C519 C 0.45348 0.0553 0.7628 0.0
C520 C 0.44578 0.05264 0.68618 0.0
N521 N 0.44766 0.06153 0.72633 0.0
C522 C 0.45783 0.03996 0.75955 0.0
C523 C 0.4561 0.03093 0.71867 0.0
C524 C 0.42657 0.07661 0.82365 0.0
C525 C 0.38255 0.10619 0.76162 0.0
C526 C 0.40278 0.10468 0.83572 0.0
C527 C 0.3826 0.09854 0.83904 0.0
C528 C 0.37245 0.09931 0.80168 0.0
N529 N 0.41259 0.11144 0.79632 0.0
C530 C 0.40274 0.11221 0.75955 0.0
Co531 Co 0.35863 0.42676 0.89235 0.0
Co532 Co 0.32746 0.43569 0.95641 0.0
O533 O 0.33266 0.42418 0.90371 0.0
C534 C 0.32844 0.38581 0.85841 0.0
O535 O 0.31328 0.38733 0.8724 0.0
C536 C 0.3122 0.4487 0.88011 0.0
O537 O 0.32923 0.45406 0.86055 0.0
O538 O 0.35051 0.46246 0.94179 0.0
O539 O 0.37257 0.45398 0.9184 0.0
H540 H 0.34593 0.47697 0.09472 0.0
H541 H 0.32955 0.41756 0.81885 0.0
O542 O 0.3462 0.39967 0.86513 0.0
H543 H 0.39075 0.47716 0.77028 0.0
H544 H 0.40929 0.41787 0.8064 0.0
H545 H 0.39547 0.44201 0.94529 0.0
H546 H 0.3895 0.46173 0.8424 0.0
H547 H 0.37689 0.41586 0.81809 0.0
O548 O 0.30926 0.44181 0.91959 0.0
H549 H 0.35217 0.46191 0.0292 0.0
H550 H 0.29129 0.43451 0.99331 0.0
H551 H 0.42813 0.44466 0.93447 0.0
H552 H 0.33014 0.43267 0.74687 0.0
H553 H 0.43519 0.43252 0.86457 0.0
H554 H 0.36092 0.4628 0.7221 0.0
O555 O 0.35767 0.41488 0.9509 0.0
H556 H 0.26452 0.3721 0.92273 0.0
H557 H 0.3137 0.41067 0.03813 0.0
H558 H 0.28561 0.3776 0.05638 0.0
H559 H 0.26073 0.35809 0.99849 0.0
H560 H 0.293 0.40512 0.90573 0.0
H561 H 0.28442 0.44938 0.05823 0.0
H562 H 0.31185 0.47072 0.10956 0.0
O563 O 0.34517 0.42924 0.99483 0.0
C564 C 0.36813 0.4669 0.93106 0.0
C565 C 0.33385 0.46765 0.07268 0.0
C566 C 0.29933 0.45219 0.05216 0.0
N567 N 0.32209 0.44724 0.0077 0.0
C568 C 0.33728 0.45905 0.03561 0.0
C569 C 0.30332 0.44384 0.01541 0.0
C570 C 0.31472 0.46415 0.08096 0.0
C571 C 0.3431 0.43042 0.80824 0.0
N572 N 0.35955 0.43849 0.83476 0.0
C573 C 0.34328 0.43906 0.7675 0.0
C574 C 0.36052 0.45599 0.75368 0.0
C575 C 0.37727 0.46409 0.78074 0.0
C576 C 0.37647 0.4552 0.82151 0.0
C577 C 0.40639 0.42333 0.83678 0.0
C578 C 0.39849 0.4369 0.91454 0.0
C579 C 0.38807 0.42218 0.84368 0.0
N580 N 0.38435 0.42901 0.88214 0.0
C581 C 0.417 0.43837 0.9087 0.0
C582 C 0.42094 0.43153 0.8695 0.0
C583 C 0.35412 0.41928 0.98918 0.0
C584 C 0.27527 0.38045 0.94824 0.0
C585 C 0.30308 0.4022 0.01259 0.0
C586 C 0.28713 0.38352 0.02321 0.0
C587 C 0.27316 0.37259 0.99073 0.0
N588 N 0.30509 0.40979 0.97078 0.0
C589 C 0.29141 0.39919 0.93884 0.0
Co590 Co 0.93861 0.35314 0.05653 0.0
Co591 Co 0.8991 0.32278 0.12283 0.0
O592 O 0.91535 0.32743 0.06971 0.0
C593 C 0.94884 0.32251 0.022 0.0
O594 O 0.93203 0.30738 0.03546 0.0
C595 C 0.86975 0.3078 0.04855 0.0
O596 O 0.88042 0.32535 0.03023 0.0
O597 O 0.89549 0.34593 0.10821 0.0
O598 O 0.92577 0.3675 0.08262 0.0
H599 H 0.87748 0.34225 0.26162 0.0
H600 H 0.91688 0.32303 0.98587 0.0
O601 O 0.95287 0.34028 0.02917 0.0
H602 H 0.91788 0.38381 0.9358 0.0
H603 H 0.99677 0.40232 0.96492 0.0
H604 H 0.96119 0.39058 0.10693 0.0
H605 H 0.93453 0.38369 1.00509 0.0
H606 H 0.96654 0.37027 0.97985 0.0
O607 O 0.87462 0.30447 0.08676 0.0
H608 H 0.89829 0.34798 0.19538 0.0
H609 H 0.86422 0.28702 0.1612 0.0
H610 H 0.99113 0.42296 0.09296 0.0
H611 H 0.89999 0.32248 0.91666 0.0
H612 H 1.00914 0.42898 0.02151 0.0
H613 H 0.90035 0.35301 0.89107 0.0
O614 O 0.95015 0.35277 0.11502 0.0
H615 H 0.8993 0.25948 0.09058 0.0
H616 H 0.91091 0.30952 0.20445 0.0
H617 H 0.91604 0.28155 0.22317 0.0
H618 H 0.91016 0.25623 0.16606 0.0
H619 H 0.89466 0.28786 0.07305 0.0
H620 H 0.84293 0.28065 0.22688 0.0
H621 H 0.84957 0.30838 0.2777 0.0
O622 O 0.92354 0.34059 0.15993 0.0
C623 C 0.90864 0.36339 0.09636 0.0
C624 C 0.87448 0.33004 0.2398 0.0
C625 C 0.85507 0.29547 0.22026 0.0
N626 N 0.88255 0.31783 0.17468 0.0
C627 C 0.88624 0.33318 0.20232 0.0
C628 C 0.86714 0.29917 0.18308 0.0
C629 C 0.85881 0.31103 0.24878 0.0
C630 C 0.91751 0.3365 0.97484 0.0
N631 N 0.927 0.35344 0.99952 0.0
C632 C 0.90769 0.33604 0.93569 0.0
C633 C 0.90785 0.35314 0.92142 0.0
C634 C 0.91768 0.37042 0.94648 0.0
C635 C 0.92715 0.37027 0.98569 0.0
C636 C 0.98897 0.3999 0.99604 0.0
C637 C 0.96883 0.39315 0.07558 0.0
C638 C 0.97189 0.38176 1.00478 0.0
N639 N 0.962 0.37861 0.04411 0.0
C640 C 0.98582 0.41149 0.06792 0.0
C641 C 0.99593 0.41485 0.02785 0.0
C642 C 0.94241 0.3494 0.15363 0.0
C643 C 0.90192 0.27041 0.11575 0.0
C644 C 0.90853 0.2987 0.17924 0.0
C645 C 0.91135 0.28282 0.19013 0.0
C646 C 0.90803 0.26861 0.15809 0.0
N647 N 0.90261 0.30041 0.13757 0.0
C648 C 0.89926 0.2865 0.10605 0.0
Co649 Co 0.58236 0.93229 0.22594 0.0
Co650 Co 0.58045 0.89475 0.2883 0.0
O651 O 0.5884 0.91092 0.2343 0.0
C652 C 0.62344 0.94827 0.18695 0.0
O653 O 0.62704 0.93638 0.2111 0.0
C654 C 0.5662 0.86531 0.21442 0.0
O655 O 0.55834 0.87529 0.19709 0.0
O656 O 0.55217 0.88805 0.27979 0.0
O657 O 0.55744 0.9181 0.26135 0.0
H658 H 0.54603 0.87139 0.43515 0.0
H659 H 0.59129 0.91577 0.14652 0.0
O660 O 0.60696 0.94797 0.18996 0.0
H661 H 0.52215 0.90041 0.12665 0.0
H662 H 0.57745 0.98491 0.13859 0.0
H663 H 0.56845 0.95332 0.28509 0.0
H664 H 0.54166 0.91991 0.19114 0.0
H665 H 0.5842 0.95738 0.14909 0.0
O666 O 0.57504 0.87064 0.25182 0.0
H667 H 0.55656 0.89188 0.36727 0.0
H668 H 0.58691 0.86243 0.32267 0.0
H669 H 0.5613 0.98062 0.27589 0.0
H670 H 0.57273 0.89741 0.08035 0.0
H671 H 0.5659 0.9967 0.20228 0.0
H672 H 0.53779 0.88941 0.07037 0.0
O673 O 0.59732 0.94526 0.28063 0.0
H674 H 0.6453 0.90154 0.23884 0.0
H675 H 0.60897 0.90921 0.3641 0.0
H676 H 0.64375 0.91754 0.37429 0.0
H677 H 0.66214 0.91365 0.31142 0.0
H678 H 0.61061 0.89374 0.22985 0.0
H679 H 0.57657 0.8415 0.38985 0.0
H680 H 0.55606 0.84598 0.44674 0.0
O681 O 0.58642 0.91893 0.32617 0.0
C682 C 0.54605 0.9003 0.27363 0.0
C683 C 0.55501 0.86933 0.41066 0.0
C684 C 0.57213 0.85254 0.3852 0.0
N685 N 0.57242 0.87843 0.34124 0.0
C686 C 0.56105 0.88092 0.37223 0.0
C687 C 0.57789 0.86439 0.34718 0.0
C688 C 0.56063 0.85506 0.41712 0.0
C689 C 0.57634 0.91296 0.14179 0.0
N690 N 0.56768 0.91909 0.17263 0.0
C691 C 0.56582 0.90235 0.10442 0.0
C692 C 0.54621 0.89783 0.09889 0.0
C693 C 0.53745 0.90408 0.13044 0.0
C694 C 0.54853 0.91496 0.16707 0.0
C695 C 0.57543 0.97805 0.17085 0.0
C696 C 0.57035 0.96012 0.25286 0.0
C697 C 0.57923 0.96246 0.17701 0.0
N698 N 0.57665 0.95369 0.21763 0.0
C699 C 0.56634 0.97563 0.2479 0.0
C700 C 0.56896 0.98466 0.20661 0.0
C701 C 0.59517 0.93778 0.31934 0.0
C702 C 0.63744 0.90329 0.2665 0.0
C703 C 0.61692 0.90767 0.33643 0.0
C704 C 0.63659 0.91232 0.34248 0.0
C705 C 0.64689 0.9101 0.30721 0.0
N706 N 0.60776 0.90104 0.29636 0.0
C707 C 0.61776 0.8988 0.26167 0.0
H708 H 0.37734 0.40201 0.98881 0.0
H709 H 0.38871 0.39056 0.05125 0.0
H710 H 0.35863 0.40968 0.14151 0.0
H711 H 0.34741 0.42171 0.07864 0.0
H712 H 0.39438 0.41876 0.17401 0.0
H713 H 0.33938 0.35999 0.11449 0.0
H714 H 0.31962 0.33609 0.05607 0.0
H715 H 0.36764 0.3252 0.02995 0.0
H716 H 0.38781 0.34926 0.08782 0.0
H717 H 0.39868 0.36583 0.36003 0.0
H718 H 0.38764 0.37773 0.29789 0.0
H719 H 0.41777 0.35882 0.20727 0.0
H720 H 0.42858 0.34625 0.26982 0.0
H721 H 0.38198 0.34969 0.17514 0.0
H722 H 0.43687 0.40845 0.23568 0.0
H723 H 0.45608 0.43177 0.29548 0.0
H724 H 0.40781 0.44239 0.32061 0.0
H725 H 0.38818 0.41888 0.26139 0.0
C726 C 0.37302 0.40381 0.02183 0.0
C727 C 0.36119 0.41266 0.02834 0.0
C728 C 0.37953 0.39714 0.0577 0.0
C729 C 0.37426 0.39882 0.10132 0.0
C730 C 0.36284 0.40806 0.10822 0.0
C731 C 0.35636 0.41488 0.07217 0.0
C732 C 0.38071 0.39088 0.13931 0.0
C733 C 0.39139 0.40357 0.1745 0.0
C734 C 0.37732 0.37118 0.13979 0.0
C735 C 0.36517 0.35656 0.10524 0.0
C736 C 0.34578 0.3526 0.09609 0.0
C737 C 0.3345 0.33901 0.0631 0.0
C738 C 0.34239 0.32917 0.03925 0.0
C739 C 0.36156 0.33285 0.04843 0.0
C740 C 0.37291 0.34645 0.08135 0.0
C741 C 0.40299 0.36406 0.327 0.0
C742 C 0.41462 0.35501 0.32028 0.0
C743 C 0.39673 0.37107 0.2913 0.0
C744 C 0.40209 0.36956 0.24766 0.0
C745 C 0.41347 0.36029 0.24057 0.0
C746 C 0.41971 0.35314 0.27645 0.0
C747 C 0.39568 0.37757 0.20977 0.0
C748 C 0.38499 0.36489 0.17461 0.0
C749 C 0.39904 0.39727 0.20939 0.0
C750 C 0.41099 0.41177 0.24431 0.0
C751 C 0.43031 0.41568 0.2541 0.0
C752 C 0.44128 0.42893 0.28789 0.0
C753 C 0.43316 0.43852 0.3119 0.0
C754 C 0.41408 0.43494 0.30201 0.0
C755 C 0.40303 0.42166 0.2683 0.0
H756 H 0.44165 0.44875 0.3381 0.0
H757 H 0.33364 0.31866 0.01371 0.0
H758 H 0.08827 0.42094 0.43782 0.0
H759 H 0.06518 0.4092 0.37511 0.0
H760 H 0.01562 0.38509 0.46565 0.0
H761 H 0.0385 0.39645 0.52831 0.0
H762 H 1.00789 0.35964 0.40046 0.0
H763 H 0.03118 0.42941 0.40873 0.0
H764 H 0.0563 0.46499 0.41122 0.0
H765 H 0.078 0.46069 0.28324 0.0
H766 H 0.05318 0.42499 0.28028 0.0
H767 H 0.93304 0.34522 0.24289 0.0
H768 H 0.95589 0.35663 0.30606 0.0
H769 H 1.00579 0.38068 0.2165 0.0
H770 H 0.98318 0.36968 0.15341 0.0
H771 H 0.01316 0.40612 0.28152 0.0
H772 H 0.98951 0.33613 0.27349 0.0
H773 H 0.96389 0.30071 0.27099 0.0
H774 H 0.94249 0.30555 0.3989 0.0
H775 H 0.96779 0.3411 0.40184 0.0
C776 C 0.07247 0.41309 0.44448 0.0
C777 C 0.06537 0.40975 0.48842 0.0
C778 C 0.05922 0.40644 0.40846 0.0
C779 C 0.03852 0.3964 0.41534 0.0
C780 C 0.03144 0.39276 0.45916 0.0
C781 C 0.04464 0.39935 0.49512 0.0
C782 C 0.02421 0.38983 0.37714 0.0
C783 C 1.00894 0.3699 0.37478 0.0
C784 C 0.02561 0.40301 0.34293 0.0
C785 C 0.04046 0.42449 0.34449 0.0
C786 C 0.04141 0.43602 0.38126 0.0
C787 C 0.05558 0.45621 0.38274 0.0
C788 C 0.06877 0.46508 0.34746 0.0
C789 C 0.06779 0.45379 0.31058 0.0
C790 C 0.05367 0.43358 0.30897 0.0
C791 C 0.94886 0.35292 0.23655 0.0
C792 C 0.95613 0.35635 0.19274 0.0
C793 C 0.96197 0.3594 0.27284 0.0
C794 C 0.98269 0.36936 0.26636 0.0
C795 C 0.98994 0.37304 0.22268 0.0
C796 C 0.9769 0.36661 0.18646 0.0
C797 C 0.99688 0.37592 0.30477 0.0
C798 C 0.01212 0.39586 0.30719 0.0
C799 C 0.99543 0.36276 0.33906 0.0
C800 C 0.98042 0.34132 0.33769 0.0
C801 C 0.97926 0.32967 0.30096 0.0
C802 C 0.9648 0.30957 0.29947 0.0
C803 C 0.95154 0.3009 0.33472 0.0
C804 C 0.95276 0.3123 0.3716 0.0
C805 C 0.96716 0.33242 0.3732 0.0
H806 H 0.94035 0.28534 0.33349 0.0
H807 H 0.07973 0.48072 0.34867 0.0
H808 H 0.61353 0.97841 0.31757 0.0
H809 H 0.62615 1.00156 0.37937 0.0
H810 H 0.60699 0.95273 0.47084 0.0
H811 H 0.59401 0.92923 0.4088 0.0
H812 H 0.5983 0.98019 0.50252 0.0
H813 H 0.65613 0.98175 0.44273 0.0
H814 H 0.67966 0.98504 0.38403 0.0
H815 H 0.6924 0.04451 0.35736 0.0
H816 H 0.66872 0.04147 0.41549 0.0
H817 H 0.6514 0.03717 0.68818 0.0
H818 H 0.63964 0.01395 0.62651 0.0
H819 H 0.66039 0.0627 0.53426 0.0
H820 H 0.67271 0.08628 0.59624 0.0
H821 H 0.66823 0.0352 0.503 0.0
H822 H 0.61051 0.03377 0.56292 0.0
H823 H 0.58734 0.0307 0.62229 0.0
H824 H 0.57431 0.97113 0.64871 0.0
H825 H 0.59768 0.97396 0.58999 0.0
C826 C 0.61197 0.97245 0.35073 0.0
C827 C 0.6028 0.9518 0.35785 0.0
C828 C 0.61931 0.98582 0.38621 0.0
C829 C 0.61785 0.97904 0.43 0.0
C830 C 0.6084 0.95843 0.43745 0.0
C831 C 0.60103 0.94497 0.40183 0.0
C832 C 0.62619 0.99352 0.46767 0.0
C833 C 0.61367 0.99203 0.50288 0.0
C834 C 0.64613 0.00938 0.46793 0.0
C835 C 0.66051 0.01132 0.4332 0.0
C836 C 0.66384 0.99548 0.42414 0.0
C837 C 0.67722 0.99731 0.391 0.0
C838 C 0.68749 0.01496 0.36691 0.0
C839 C 0.68443 0.03084 0.37601 0.0
C840 C 0.67104 0.02908 0.40908 0.0
C841 C 0.65358 0.04309 0.65484 0.0
C842 C 0.66295 0.06373 0.64748 0.0
C843 C 0.6467 0.02968 0.61943 0.0
C844 C 0.64869 0.03641 0.57546 0.0
C845 C 0.65852 0.05704 0.56778 0.0
C846 C 0.66555 0.07054 0.60334 0.0
C847 C 0.64034 0.02188 0.53787 0.0
C848 C 0.65285 0.02337 0.50265 0.0
C849 C 0.62037 1.00604 0.53757 0.0
C850 C 0.60598 1.00414 0.57227 0.0
C851 C 0.60279 0.02005 0.58154 0.0
C852 C 0.58961 0.01836 0.61507 0.0
C853 C 0.57938 1.00074 0.63929 0.0
C854 C 0.58226 0.98477 0.62993 0.0
C855 C 0.59546 0.98641 0.59651 0.0
H856 H 0.56921 0.99947 0.66527 0.0
H857 H 0.69784 0.01634 0.34126 0.0
H858 H 0.67208 0.59151 0.57733 0.0
H859 H 0.66084 0.60319 0.64051 0.0
H860 H 0.6343 0.6265 0.55077 0.0
H861 H 0.64571 0.61532 0.48789 0.0
H862 H 0.65263 0.65243 0.61401 0.0
H863 H 0.60661 0.58208 0.60996 0.0
H864 H 0.59703 0.54669 0.60991 0.0
H865 H 0.62432 0.55349 0.73732 0.0
H866 H 0.63431 0.58899 0.73785 0.0
H867 H 0.59278 0.66826 0.76998 0.0
H868 H 0.60402 0.65623 0.70754 0.0
H869 H 0.63008 0.63296 0.79873 0.0
H870 H 0.61861 0.64447 0.86095 0.0
H871 H 0.61224 0.60704 0.73522 0.0
H872 H 0.6582 0.67709 0.73977 0.0
H873 H 0.66795 0.71251 0.74046 0.0
H874 H 0.64121 0.70639 0.61261 0.0
H875 H 0.63101 0.67083 0.61148 0.0
C876 C 0.66388 0.59915 0.57101 0.0
C877 C 0.65987 0.60242 0.52722 0.0
C878 C 0.65736 0.60576 0.60727 0.0
C879 C 0.6465 0.61563 0.60069 0.0
C880 C 0.64265 0.61901 0.55703 0.0
C881 C 0.64919 0.6125 0.52092 0.0
C882 C 0.63907 0.62248 0.63889 0.0
C883 C 0.6436 0.6424 0.6402 0.0
C884 C 0.6276 0.60963 0.67381 0.0
C885 C 0.62138 0.58824 0.67374 0.0
C886 C 0.61068 0.57605 0.63784 0.0
C887 C 0.60517 0.55597 0.63773 0.0
C888 C 0.61012 0.54786 0.67353 0.0
C889 C 0.62053 0.5598 0.70958 0.0
C890 C 0.62611 0.5799 0.70982 0.0
C891 C 0.60091 0.66059 0.7768 0.0
C892 C 0.60487 0.65755 0.8208 0.0
C893 C 0.60741 0.65376 0.74095 0.0
C894 C 0.61818 0.64383 0.74813 0.0
C895 C 0.62186 0.64055 0.79201 0.0
C896 C 0.61535 0.6473 0.82774 0.0
C897 C 0.62575 0.63696 0.71026 0.0
C898 C 0.62127 0.61706 0.70902 0.0
C899 C 0.6373 0.64982 0.67543 0.0
C900 C 0.64367 0.67126 0.67574 0.0
C901 C 0.65429 0.68327 0.71193 0.0
C902 C 0.6599 0.70337 0.71239 0.0
C903 C 0.65516 0.71168 0.67665 0.0
C904 C 0.64485 0.69992 0.6403 0.0
C905 C 0.63915 0.67979 0.63973 0.0
H906 H 0.65951 0.72725 0.67708 0.0
H907 H 0.60587 0.53233 0.67341 0.0
H908 H 0.03681 0.63458 0.65021 0.0
H909 H 0.0134 0.62359 0.71189 0.0
H910 H 0.06171 0.6557 0.80319 0.0
H911 H 0.0854 0.66668 0.74147 0.0
H912 H 0.03557 0.61951 0.83631 0.0
H913 H 0.03094 0.67349 0.77201 0.0
H914 H 0.02637 0.69212 0.71136 0.0
H915 H 0.96779 0.6432 0.68737 0.0
H916 H 0.97212 0.62415 0.7475 0.0
H917 H 0.97927 0.6167 0.02205 0.0
H918 H 1.00183 0.62769 0.95905 0.0
H919 H 0.95229 0.5965 0.8702 0.0
H920 H 0.92934 0.58573 0.9335 0.0
H921 H 0.97863 0.63159 0.83503 0.0
H922 H 0.9829 0.57777 0.90031 0.0
H923 H 0.98719 0.55938 0.96192 0.0
H924 H 0.04629 0.6077 0.98399 0.0
H925 H 0.04223 0.62656 0.92303 0.0
C926 C 0.04257 0.6394 0.68333 0.0
C927 C 0.06313 0.65168 0.69052 0.0
C928 C 0.02906 0.6331 0.71872 0.0
C929 C 0.03564 0.63897 0.76242 0.0
C930 C 0.05617 0.65097 0.76989 0.0
C931 C 0.06974 0.65731 0.73442 0.0
C932 C 0.02109 0.63258 0.8001 0.0
C933 C 0.02328 0.6224 0.83623 0.0
C934 C 1.00466 0.63582 0.79982 0.0
C935 C 1.00192 0.64732 0.76399 0.0
C936 C 0.01713 0.66665 0.75361 0.0
C937 C 0.01458 0.67729 0.71935 0.0
C938 C 0.99682 0.66883 0.69545 0.0
C939 C 0.98155 0.64973 0.70587 0.0
C940 C 0.98403 0.63901 0.74007 0.0
C941 C 0.97303 0.61214 0.98919 0.0
C942 C 0.95235 0.60013 0.98319 0.0
C943 C 0.98606 0.61841 0.95301 0.0
C944 C 0.97893 0.61266 0.90962 0.0
C945 C 0.95826 0.6011 0.90325 0.0
C946 C 0.94512 0.59489 0.93958 0.0
C947 C 0.99315 0.61857 0.87133 0.0
C948 C 0.99088 0.62865 0.83508 0.0
C949 C 1.00949 0.61519 0.87144 0.0
C950 C 0.0122 0.60365 0.9073 0.0
C951 C 0.99678 0.58452 0.91843 0.0
C952 C 0.99916 0.57401 0.95326 0.0
C953 C 0.01698 0.58238 0.97691 0.0
C954 C 0.03248 0.60125 0.96566 0.0
C955 C 0.03015 0.61185 0.93096 0.0
H956 H 0.01878 0.57424 1.00392 0.0
H957 H 0.99487 0.67709 0.66892 0.0
H958 H 0.40964 0.0361 0.82249 0.0
H959 H 0.39668 0.01291 0.8844 0.0
H960 H 0.4123 0.06148 0.97447 0.0
H961 H 0.42566 0.085 0.91239 0.0
H962 H 0.42181 0.03537 0.00953 0.0
H963 H 0.36385 0.0306 0.9418 0.0
H964 H 0.34112 0.02603 0.88016 0.0
H965 H 0.33173 0.96748 0.85734 0.0
H966 H 0.35465 0.97182 0.91845 0.0
H967 H 0.36633 0.97778 0.19275 0.0
H968 H 0.37853 1.00076 0.13048 0.0
H969 H 0.36213 0.95196 0.04061 0.0
H970 H 0.34936 0.9286 0.1031 0.0
H971 H 0.35307 0.97813 1.00534 0.0
H972 H 0.41088 0.98284 0.07369 0.0
H973 H 0.433 0.98719 0.13651 0.0
H974 H 0.44255 0.04584 0.15855 0.0
H975 H 0.42019 0.0417 0.09633 0.0
C976 C 0.41033 0.04197 0.85537 0.0
C977 C 0.41865 0.06255 0.86211 0.0
C978 C 0.4028 0.02859 0.8909 0.0
C979 C 0.40318 0.03529 0.9343 0.0
C980 C 0.41174 0.05584 0.94137 0.0
C981 C 0.41933 0.06931 0.90573 0.0
C982 C 0.39465 0.02081 0.97202 0.0
C983 C 0.40668 0.02303 0.00882 0.0
C984 C 0.37505 1.00433 0.97096 0.0
C985 C 0.36112 1.00161 0.93445 0.0
C986 C 0.35705 0.0168 0.92344 0.0
C987 C 0.34412 0.01425 0.88862 0.0
C988 C 0.33503 0.9965 0.86478 0.0
C989 C 0.3388 0.98124 0.8758 0.0
C990 C 0.35175 0.98373 0.91055 0.0
C991 C 0.36521 0.97179 0.15981 0.0
C992 C 0.35691 0.95121 0.15327 0.0
C993 C 0.37233 0.98507 0.12407 0.0
C994 C 0.37166 0.97826 0.08065 0.0
C995 C 0.36295 0.95768 0.07372 0.0
C996 C 0.35568 0.94431 0.10959 0.0
C997 C 0.38021 0.99269 0.04284 0.0
C998 C 0.3682 0.99046 0.00602 0.0
C999 C 0.39984 0.00915 0.04389 0.0
C1000 C 0.41372 0.01189 0.08055 0.0
C1001 C 0.41762 0.99663 0.09206 0.0
C1002 C 0.43019 0.99905 0.12757 0.0
C1003 C 0.43913 0.01676 0.15157 0.0
C1004 C 0.43559 0.03212 0.13996 0.0
C1005 C 0.42298 0.02975 0.10455 0.0
H1006 H 0.44883 0.0186 0.1791 0.0
H1007 H 0.32502 0.99455 0.83782 0.0
H1008 H 0.61188 0.53449 0.43599 0.0
H1009 H 0.5842 0.5007 0.43834 0.0
H1010 H 0.62492 0.47827 0.44066 0.0
H1011 H 0.65314 0.51251 0.43835 0.0
H1012 H 0.59247 0.45856 0.37857 0.0
H1013 H 0.60212 0.47524 0.53223 0.0
H1014 H 0.60775 0.49643 0.59751 0.0
H1015 H 0.55236 0.49455 0.574 0.0
H1016 H 0.54654 0.47361 0.50815 0.0
H1017 H 0.50347 0.36302 0.41113 0.0
H1018 H 0.53732 0.39141 0.4174 0.0
H1019 H 0.51348 0.43033 0.43818 0.0
H1020 H 0.47996 0.40231 0.43292 0.0
H1021 H 0.54141 0.43829 0.49636 0.0
H1022 H 0.53439 0.4272 0.33772 0.0
H1023 H 0.52848 0.4075 0.26967 0.0
H1024 H 0.57827 0.39996 0.30029 0.0
H1025 H 0.58431 0.41941 0.36889 0.0
C1026 C 0.61511 0.52248 0.43719 0.0
C1027 C 0.63483 0.52629 0.43706 0.0
C1028 C 0.59919 0.5031 0.43864 0.0
C1029 C 0.60246 0.48694 0.43997 0.0
C1030 C 0.62208 0.49055 0.43974 0.0
C1031 C 0.63816 0.5101 0.4387 0.0
C1032 C 0.58509 0.46647 0.44119 0.0
C1033 C 0.58149 0.45387 0.40483 0.0
C1034 C 0.57063 0.46051 0.47507 0.0
C1035 C 0.57393 0.47289 0.5151 0.0
C1036 C 0.59119 0.47943 0.54081 0.0
C1037 C 0.59441 0.4914 0.57794 0.0
C1038 C 0.58042 0.49684 0.58987 0.0
C1039 C 0.56317 0.49031 0.56473 0.0
C1040 C 0.55989 0.47836 0.52754 0.0
C1041 C 0.50547 0.37766 0.41677 0.0
C1042 C 0.48892 0.3803 0.42162 0.0
C1043 C 0.52484 0.39389 0.42031 0.0
C1044 C 0.52802 0.41308 0.42826 0.0
C1045 C 0.51149 0.4157 0.43243 0.0
C1046 C 0.49225 0.39958 0.4292 0.0
C1047 C 0.54836 0.43063 0.43289 0.0
C1048 C 0.55253 0.4427 0.4705 0.0
C1049 C 0.56322 0.43614 0.39995 0.0
C1050 C 0.55964 0.42453 0.35869 0.0
C1051 C 0.54397 0.4212 0.33012 0.0
C1052 C 0.54062 0.4101 0.29143 0.0
C1053 C 0.55294 0.40242 0.28075 0.0
C1054 C 0.5687 0.40588 0.30867 0.0
C1055 C 0.5721 0.41694 0.34745 0.0
H1056 H 0.55032 0.39384 0.25077 0.0
H1057 H 0.58292 0.50608 0.61863 0.0
H1058 H 0.15145 0.50102 0.5731 0.0
H1059 H 0.15873 0.53563 0.57649 0.0
H1060 H 0.09598 0.51534 0.57178 0.0
H1061 H 0.08871 0.48128 0.56717 0.0
H1062 H 0.11444 0.54629 0.52203 0.0
H1063 H 0.12404 0.52812 0.67094 0.0
H1064 H 0.14031 0.5178 0.72686 0.0
H1065 H 0.19665 0.56889 0.69656 0.0
H1066 H 0.18079 0.57946 0.64024 0.0
H1067 H 0.10618 0.61898 0.66748 0.0
H1068 H 0.11272 0.59133 0.65993 0.0
H1069 H 0.1507 0.6205 0.54788 0.0
H1070 H 0.14491 0.64862 0.55677 0.0
H1071 H 0.15001 0.58818 0.6517 0.0
H1072 H 0.12748 0.57951 0.46739 0.0
H1073 H 0.10606 0.58509 0.41583 0.0
H1074 H 0.06955 0.58309 0.52462 0.0
H1075 H 0.09048 0.5772 0.57657 0.0
C1076 C 0.13927 0.50403 0.57199 0.0
C1077 C 0.1195 0.48832 0.57004 0.0
C1078 C 0.14343 0.5238 0.57436 0.0
C1079 C 0.12789 0.52814 0.57496 0.0
C1080 C 0.10827 0.51248 0.57136 0.0
C1081 C 0.10413 0.4929 0.56886 0.0
C1082 C 0.13149 0.54874 0.58036 0.0
C1083 C 0.12253 0.55556 0.55003 0.0
C1084 C 0.14183 0.56084 0.61715 0.0
C1085 C 0.15128 0.55446 0.65105 0.0
C1086 C 0.13992 0.53708 0.676 0.0
C1087 C 0.14905 0.53119 0.70777 0.0
C1088 C 0.16949 0.54262 0.71509 0.0
C1089 C 0.18083 0.56002 0.69078 0.0
C1090 C 0.17178 0.56598 0.65897 0.0
C1091 C 0.11665 0.61987 0.64262 0.0
C1092 C 0.12543 0.63607 0.61337 0.0
C1093 C 0.12029 0.60405 0.63814 0.0
C1094 C 0.13216 0.60386 0.6033 0.0
C1095 C 0.14161 0.62043 0.57515 0.0
C1096 C 0.13844 0.63654 0.58049 0.0
C1097 C 0.13274 0.58543 0.59361 0.0
C1098 C 0.14246 0.57912 0.62306 0.0
C1099 C 0.12272 0.5735 0.55653 0.0
C1100 C 0.11083 0.57837 0.52595 0.0
C1101 C 0.11496 0.58043 0.48029 0.0
C1102 C 0.10281 0.58349 0.45096 0.0
C1103 C 0.08646 0.58448 0.46695 0.0
C1104 C 0.08224 0.58241 0.51228 0.0
C1105 C 0.09431 0.57932 0.54172 0.0
H1106 H 0.07708 0.5869 0.44426 0.0
H1107 H 0.17652 0.53803 0.7397 0.0
H1108 H 0.49386 0.10245 0.83917 0.0
H1109 H 0.52783 0.10844 0.8347 0.0
H1110 H 0.53968 0.1489 0.72562 0.0
H1111 H 0.50601 0.14376 0.73224 0.0
H1112 H 0.54131 0.09758 0.77362 0.0
H1113 H 0.58912 0.17812 0.70642 0.0
H1114 H 0.59227 0.21103 0.71664 0.0
H1115 H 0.56663 0.194 0.84653 0.0
H1116 H 0.56356 0.1611 0.83735 0.0
H1117 H 0.62325 0.0999 0.67764 0.0
H1118 H 0.59529 0.10574 0.68634 0.0
H1119 H 0.62756 0.14916 0.7878 0.0
H1120 H 0.65608 0.14426 0.77668 0.0
H1121 H 0.60506 0.15981 0.74873 0.0
H1122 H 0.59337 0.09814 0.81069 0.0
H1123 H 0.59005 0.0649 0.81283 0.0
H1124 H 0.54431 0.04445 0.71392 0.0
H1125 H 0.5475 0.0776 0.71082 0.0
C1126 C 0.50406 0.11328 0.81562 0.0
C1127 C 0.49755 0.12297 0.7867 0.0
C1128 C 0.52341 0.11654 0.81263 0.0
C1129 C 0.5365 0.12912 0.77972 0.0
C1130 C 0.53018 0.13948 0.75196 0.0
C1131 C 0.51093 0.13659 0.75579 0.0
C1132 C 0.55566 0.1295 0.77143 0.0
C1133 C 0.55522 0.11126 0.76844 0.0
C1134 C 0.57401 0.14726 0.765 0.0
C1135 C 0.57594 0.16707 0.77098 0.0
C1136 C 0.58422 0.18143 0.73722 0.0
C1137 C 0.58598 0.20008 0.74282 0.0
C1138 C 0.57959 0.20458 0.78215 0.0
C1139 C 0.57149 0.19047 0.81602 0.0
C1140 C 0.56972 0.1718 0.8106 0.0
C1141 C 0.62459 0.1112 0.70059 0.0
C1142 C 0.64182 0.12177 0.72619 0.0
C1143 C 0.60852 0.11435 0.70606 0.0
C1144 C 0.60898 0.12744 0.7388 0.0
C1145 C 0.62672 0.13893 0.76245 0.0
C1146 C 0.64307 0.13621 0.75595 0.0
C1147 C 0.59054 0.12789 0.75072 0.0
C1148 C 0.59111 0.1462 0.75416 0.0
C1149 C 0.57236 0.11022 0.7592 0.0
C1150 C 0.57077 0.09039 0.76032 0.0
C1151 C 0.58272 0.0866 0.78915 0.0
C1152 C 0.58085 0.06777 0.79056 0.0
C1153 C 0.56696 0.05259 0.76354 0.0
C1154 C 0.55503 0.05622 0.73485 0.0
C1155 C 0.55686 0.07502 0.73326 0.0
H1156 H 0.56533 0.03796 0.76494 0.0
H1157 H 0.58096 0.21903 0.78641 0.0
H1158 H 0.51583 0.65219 0.91662 0.0
H1159 H 0.48151 0.62414 0.91675 0.0
H1160 H 0.50359 0.58325 0.90765 0.0
H1161 H 0.53757 0.61087 0.90799 0.0
H1162 H 0.47236 0.57483 0.8486 0.0
H1163 H 0.48942 0.59102 1.00442 0.0
H1164 H 0.49953 0.6135 0.06875 0.0
H1165 H 0.4484 0.62028 0.05149 0.0
H1166 H 0.43811 0.59801 0.98665 0.0
H1167 H 0.40766 0.48037 0.9211 0.0
H1168 H 0.43462 0.51432 0.91552 0.0
H1169 H 0.39366 0.53569 0.93628 0.0
H1170 H 0.36609 0.50121 0.94226 0.0
H1171 H 0.42975 0.55797 0.98239 0.0
H1172 H 0.40972 0.53753 0.83417 0.0
H1173 H 0.39977 0.51583 0.76853 0.0
H1174 H 0.45602 0.51791 0.76918 0.0
H1175 H 0.46624 0.53946 0.83513 0.0
C1176 C 0.51332 0.63721 0.91428 0.0
C1177 C 0.52945 0.63378 0.91237 0.0
C1178 C 0.49373 0.62122 0.91457 0.0
C1179 C 0.49001 0.60161 0.91236 0.0
C1180 C 0.50609 0.59825 0.90934 0.0
C1181 C 0.52555 0.6141 0.90967 0.0
C1182 C 0.46952 0.58428 0.91378 0.0
C1183 C 0.46303 0.57115 0.87781 0.0
C1184 C 0.45703 0.57984 0.95125 0.0
C1185 C 0.46314 0.59307 0.99038 0.0
C1186 C 0.48043 0.59745 0.01411 0.0
C1187 C 0.48618 0.61012 0.05069 0.0
C1188 C 0.47467 0.61838 0.06408 0.0
C1189 C 0.45733 0.61391 0.04101 0.0
C1190 C 0.45153 0.60126 1.00436 0.0
C1191 C 0.40419 0.49216 0.92469 0.0
C1192 C 0.38454 0.48793 0.93168 0.0
C1193 C 0.41972 0.51166 0.92133 0.0
C1194 C 0.41615 0.52758 0.92453 0.0
C1195 C 0.39673 0.52361 0.93334 0.0
C1196 C 0.38101 0.50391 0.93676 0.0
C1197 C 0.43296 0.54813 0.9178 0.0
C1198 C 0.4388 0.56186 0.95268 0.0
C1199 C 0.44487 0.55325 0.87912 0.0
C1200 C 0.43872 0.54008 0.83971 0.0
C1201 C 0.41992 0.53326 0.82051 0.0
C1202 C 0.41425 0.52102 0.78318 0.0
C1203 C 0.42728 0.51553 0.76465 0.0
C1204 C 0.44597 0.52222 0.7835 0.0
C1205 C 0.45172 0.53448 0.82081 0.0
H1206 H 0.42288 0.50609 0.73569 0.0
H1207 H 0.47915 0.6282 0.09242 0.0
H1208 H 0.87486 0.36352 0.12601 0.0
H1209 H 0.86891 0.39178 0.12616 0.0
H1210 H 0.92658 0.42875 0.06738 0.0
H1211 H 0.93293 0.40143 0.06907 0.0
H1212 H 0.92227 0.4482 0.1292 0.0
H1213 H 0.88053 0.40795 0.00865 0.0
H1214 H 0.85327 0.37759 0.97538 0.0
H1215 H 0.81138 0.38126 0.06192 0.0
H1216 H 0.83845 0.41153 0.09611 0.0
H1217 H 0.92523 0.5301 0.03344 0.0
H1218 H 0.92097 0.49695 0.04012 0.0
H1219 H 0.8663 0.4774 0.11194 0.0
H1220 H 0.87028 0.51075 0.10401 0.0
H1221 H 0.86486 0.44777 0.05632 0.0
H1222 H 0.90939 0.49136 0.17134 0.0
H1223 H 0.93855 0.5216 0.20041 0.0
H1224 H 0.97697 0.51206 0.11475 0.0
H1225 H 0.94823 0.48162 0.08572 0.0
C1226 C 0.88626 0.37771 0.11327 0.0
C1227 C 0.90434 0.38004 0.09736 0.0
C1228 C 0.88279 0.39384 0.1131 0.0
C1229 C 0.89725 0.41247 0.09647 0.0
C1230 C 0.91519 0.41466 0.08062 0.0
C1231 C 0.91874 0.39882 0.08136 0.0
C1232 C 0.8944 0.4301 0.09586 0.0
C1233 C 0.9097 0.44802 0.11308 0.0
C1234 C 0.8778 0.42996 0.07595 0.0
C1235 C 0.86153 0.41184 0.05531 0.0
C1236 C 0.86552 0.40219 0.02081 0.0
C1237 C 0.85011 0.38502 1.00175 0.0
C1238 C 0.83061 0.37746 0.01664 0.0
C1239 C 0.82649 0.3871 0.05051 0.0
C1240 C 0.84186 0.40427 0.06973 0.0
C1241 C 0.91203 0.5186 0.04966 0.0
C1242 C 0.89808 0.52296 0.06821 0.0
C1243 C 0.90969 0.4997 0.05381 0.0
C1244 C 0.89361 0.48481 0.07763 0.0
C1245 C 0.8789 0.4887 0.09371 0.0
C1246 C 0.8811 0.50768 0.08894 0.0
C1247 C 0.89317 0.46585 0.08786 0.0
C1248 C 0.87723 0.44777 0.07294 0.0
C1249 C 0.90942 0.46582 0.10903 0.0
C1250 C 0.92665 0.48425 0.1263 0.0
C1251 C 0.92405 0.49576 0.1586 0.0
C1252 C 0.94048 0.5129 0.17509 0.0
C1253 C 0.95951 0.51877 0.15926 0.0
C1254 C 0.96221 0.50749 0.127 0.0
C1255 C 0.94589 0.49023 0.11072 0.0
H1256 H 0.97218 0.532 0.17223 0.0
H1257 H 0.8187 0.36415 1.00185 0.0
H1258 H 0.36419 0.86858 0.22248 0.0
H1259 H 0.3923 0.86237 0.22277 0.0
H1260 H 0.431 0.92231 0.26762 0.0
H1261 H 0.40386 0.92886 0.2649 0.0
H1262 H 0.44912 0.91529 0.20861 0.0
H1263 H 0.4108 0.87857 0.33655 0.0
H1264 H 0.381 0.85291 0.37516 0.0
H1265 H 0.38283 0.80756 0.29783 0.0
H1266 H 0.41252 0.83301 0.25832 0.0
H1267 H 0.53123 0.92156 0.31129 0.0
H1268 H 0.49779 0.91645 0.30311 0.0
H1269 H 0.47962 0.86127 0.23515 0.0
H1270 H 0.51335 0.86624 0.24409 0.0
H1271 H 0.44955 0.86075 0.29307 0.0
H1272 H 0.49094 0.90157 0.16807 0.0
H1273 H 0.52019 0.93001 0.13332 0.0
H1274 H 0.51329 0.97035 0.21794 0.0
H1275 H 0.48367 0.94236 0.25215 0.0
C1276 C 0.37875 0.88043 0.23205 0.0
C1277 C 0.3816 0.89918 0.2439 0.0
C1278 C 0.39479 0.87682 0.23257 0.0
C1279 C 0.41386 0.89181 0.24563 0.0
C1280 C 0.41658 0.91046 0.25719 0.0
C1281 C 0.40083 0.91415 0.2559 0.0
C1282 C 0.43139 0.88879 0.24703 0.0
C1283 C 0.44909 0.90333 0.22724 0.0
C1284 C 0.43149 0.87298 0.27034 0.0
C1285 C 0.4137 0.8577 0.2941 0.0
C1286 C 0.40475 0.86314 0.32754 0.0
C1287 C 0.3879 0.84863 0.34963 0.0
C1288 C 0.37998 0.82862 0.33885 0.0
C1289 C 0.38895 0.82307 0.30605 0.0
C1290 C 0.40579 0.83753 0.28381 0.0
C1291 C 0.51997 0.90804 0.29574 0.0
C1292 C 0.52485 0.89426 0.27845 0.0
C1293 C 0.5009 0.90522 0.29071 0.0
C1294 C 0.48633 0.88873 0.26756 0.0
C1295 C 0.49069 0.87417 0.25291 0.0
C1296 C 0.50988 0.87691 0.25835 0.0
C1297 C 0.46721 0.88776 0.2564 0.0
C1298 C 0.44933 0.87245 0.27392 0.0
C1299 C 0.46694 0.90321 0.23215 0.0
C1300 C 0.48517 0.91989 0.2127 0.0
C1301 C 0.49574 0.9165 0.1794 0.0
C1302 C 0.51232 0.93251 0.15973 0.0
C1303 C 0.51863 0.95188 0.17363 0.0
C1304 C 0.50837 0.95534 0.20718 0.0
C1305 C 0.49161 0.93944 0.22647 0.0
H1306 H 0.53136 0.96421 0.1581 0.0
H1307 H 0.36694 0.81741 0.35599 0.0
H1308 H 0.35274 0.37081 0.84401 0.0
H1309 H 0.35377 0.35341 0.77781 0.0
H1310 H 0.29981 0.35009 0.73062 0.0
H1311 H 0.29851 0.36731 0.79759 0.0
H1312 H 0.30371 0.31711 0.70351 0.0
H1313 H 0.34017 0.3877 0.69871 0.0
H1314 H 0.36358 0.42196 0.7219 0.0
H1315 H 0.41151 0.40957 0.71945 0.0
H1316 H 0.38834 0.37509 0.69674 0.0
H1317 H 0.35246 0.34238 0.47468 0.0
H1318 H 0.33308 0.34079 0.54005 0.0
H1319 H 0.36185 0.31532 0.61577 0.0
H1320 H 0.38096 0.31643 0.5508 0.0
H1321 H 0.36651 0.3616 0.62413 0.0
H1322 H 0.32616 0.28837 0.63152 0.0
H1323 H 0.30156 0.25618 0.59955 0.0
H1324 H 0.2595 0.27645 0.58819 0.0
H1325 H 0.28401 0.30889 0.61948 0.0
C1326 C 0.34071 0.36577 0.82029 0.0
C1327 C 0.32566 0.37058 0.82566 0.0
C1328 C 0.34133 0.35587 0.78244 0.0
C1329 C 0.3271 0.35087 0.74894 0.0
C1330 C 0.31095 0.35388 0.7561 0.0
C1331 C 0.31021 0.36368 0.79438 0.0
C1332 C 0.3309 0.34532 0.70456 0.0
C1333 C 0.31738 0.32686 0.68602 0.0
C1334 C 0.34857 0.3582 0.68131 0.0
C1335 C 0.36246 0.37873 0.69649 0.0
C1336 C 0.35565 0.39219 0.70368 0.0
C1337 C 0.36889 0.41167 0.71661 0.0
C1338 C 0.389 0.41794 0.72224 0.0
C1339 C 0.39592 0.4047 0.71505 0.0
C1340 C 0.38275 0.38517 0.70217 0.0
C1341 C 0.35407 0.33566 0.50468 0.0
C1342 C 0.36854 0.32987 0.50768 0.0
C1343 C 0.34289 0.33467 0.54194 0.0
C1344 C 0.34594 0.32777 0.58249 0.0
C1345 C 0.35902 0.32033 0.5845 0.0
C1346 C 0.37006 0.32113 0.54729 0.0
C1347 C 0.33981 0.33311 0.62411 0.0
C1348 C 0.35289 0.35179 0.6418 0.0
C1349 C 0.32167 0.32059 0.64584 0.0
C1350 C 0.30701 0.30113 0.62717 0.0
C1351 C 0.31177 0.28606 0.62163 0.0
C1352 C 0.29781 0.26774 0.60381 0.0
C1353 C 0.279 0.2643 0.59166 0.0
C1354 C 0.27409 0.27915 0.59749 0.0
C1355 C 0.288 0.29749 0.6153 0.0
H1356 H 0.26822 0.25011 0.57788 0.0
H1357 H 0.39921 0.43305 0.73224 0.0
H1358 H 0.98815 0.3471 0.0087 0.0
H1359 H 1.00719 0.34825 0.9435 0.0
H1360 H 0.9576 0.29377 0.89601 0.0
H1361 H 0.93828 0.29243 0.96178 0.0
H1362 H 1.004 0.30489 0.87773 0.0
H1363 H 0.9535 0.32344 0.84941 0.0
H1364 H 0.93393 0.33943 0.86773 0.0
H1365 H 0.98755 0.39536 0.88401 0.0
H1366 H 1.00748 0.37963 0.86562 0.0
H1367 H 0.03774 0.34731 0.64793 0.0
H1368 H 0.0174 0.32674 0.71045 0.0
H1369 H 0.05049 0.3756 0.79968 0.0
H1370 H 0.07069 0.39599 0.7384 0.0
H1371 H 1.00683 0.35992 0.78846 0.0
H1372 H 0.05724 0.34149 0.81628 0.0
H1373 H 0.07717 0.32604 0.79619 0.0
H1374 H 0.02391 0.26982 0.77942 0.0
H1375 H 1.00364 0.28504 0.79879 0.0
C1376 C 0.98151 0.33495 0.98525 0.0
C1377 C 0.96167 0.31978 0.99007 0.0
C1378 C 0.99244 0.3356 0.9481 0.0
C1379 C 0.98374 0.32115 0.91497 0.0
C1380 C 0.96459 0.30494 0.92152 0.0
C1381 C 0.95359 0.30421 0.95906 0.0
C1382 C 0.9933 0.32551 0.87086 0.0
C1383 C 1.00428 0.31656 0.85749 0.0
C1384 C 0.99376 0.34085 0.84481 0.0
C1385 C 0.98194 0.35033 0.85658 0.0
C1386 C 0.96111 0.3391 0.8574 0.0
C1387 C 0.94996 0.34812 0.86779 0.0
C1388 C 0.95948 0.36837 0.87762 0.0
C1389 C 0.9802 0.37965 0.87672 0.0
C1390 C 0.99142 0.37071 0.86616 0.0
C1391 C 0.041 0.35341 0.68111 0.0
C1392 C 0.05557 0.37335 0.68818 0.0
C1393 C 0.02941 0.34166 0.71669 0.0
C1394 C 0.03245 0.34975 0.75948 0.0
C1395 C 0.04793 0.36913 0.76686 0.0
C1396 C 0.0594 0.38078 0.73169 0.0
C1397 C 0.01795 0.33966 0.79553 0.0
C1398 C 1.0061 0.34776 0.80766 0.0
C1399 C 0.01673 0.32355 0.81995 0.0
C1400 C 0.02892 0.31446 0.80831 0.0
C1401 C 0.04976 0.32589 0.80777 0.0
C1402 C 0.06113 0.31716 0.79666 0.0
C1403 C 0.05181 0.29698 0.78635 0.0
C1404 C 0.03111 0.28546 0.78729 0.0
C1405 C 0.01968 0.29413 0.79835 0.0
H1406 H 0.06064 0.29024 0.77778 0.0
H1407 H 0.95083 0.37535 0.88561 0.0
H1408 H 0.65184 0.94344 0.14279 0.0
H1409 H 0.66966 0.96107 0.07492 0.0
H1410 H 0.64329 0.9983 0.0837 0.0
H1411 H 0.62575 0.98109 0.15064 0.0
H1412 H 0.63598 0.97721 1.00313 0.0
H1413 H 0.69 0.01751 0.10575 0.0
H1414 H 0.71537 0.02241 0.16122 0.0
H1415 H 0.74184 1.00032 0.06924 0.0
H1416 H 0.71644 0.99504 0.01341 0.0
H1417 H 0.67477 0.0655 0.89885 0.0
H1418 H 0.67349 0.04367 0.95809 0.0
H1419 H 0.69427 0.01488 0.86844 0.0
H1420 H 0.69567 0.03697 0.80811 0.0
H1421 H 0.70761 0.02419 0.97731 0.0
H1422 H 0.65442 0.9878 0.87049 0.0
H1423 H 0.62961 0.98591 0.81674 0.0
H1424 H 0.60159 1.00174 0.91879 0.0
H1425 H 0.62646 1.00405 0.97295 0.0
C1426 C 0.65028 0.95571 0.1307 0.0
C1427 C 0.63721 0.96073 0.15163 0.0
C1428 C 0.66038 0.96568 0.09195 0.0
C1429 C 0.65752 0.98076 0.07409 0.0
C1430 C 0.64549 0.98654 0.09668 0.0
C1431 C 0.63549 0.97668 0.13499 0.0
C1432 C 0.66548 0.98975 0.0302 0.0
C1433 C 0.65168 0.98718 0.99719 0.0
C1434 C 0.68597 1.00244 0.02212 0.0
C1435 C 0.70117 1.00561 0.05568 0.0
C1436 C 0.7011 0.0135 0.09754 0.0
C1437 C 0.71552 0.01639 0.12899 0.0
C1438 C 0.73016 0.0116 0.11883 0.0
C1439 C 0.73046 1.00397 0.07712 0.0
C1440 C 0.71606 1.00103 0.04556 0.0
C1441 C 0.67951 0.05484 0.89177 0.0
C1442 C 0.68501 0.05271 0.84866 0.0
C1443 C 0.67892 0.04249 0.9258 0.0
C1444 C 0.68372 0.02769 0.91749 0.0
C1445 C 0.69066 0.02637 0.87539 0.0
C1446 C 0.69137 0.03891 0.84104 0.0
C1447 C 0.67801 0.01194 0.95111 0.0
C1448 C 0.69205 0.01338 0.98235 0.0
C1449 C 0.65769 0.99811 0.9578 0.0
C1450 C 0.64234 0.99616 0.92568 0.0
C1451 C 0.64303 0.99098 0.88138 0.0
C1452 C 0.62896 0.98983 0.85086 0.0
C1453 C 0.61404 0.99371 0.86434 0.0
C1454 C 0.61314 0.99872 0.9084 0.0
C1455 C 0.62721 0.99992 0.93904 0.0
H1456 H 0.60316 0.99281 0.84065 0.0
H1457 H 0.74131 0.01386 0.14322 0.0
H1458 H 0.66855 0.67591 0.97336 0.0
H1459 H 0.69012 0.67924 0.03583 0.0
H1460 H 0.65099 0.68701 0.12455 0.0
H1461 H 0.63011 0.68475 0.06247 0.0
H1462 H 0.68624 0.70673 0.156 0.0
H1463 H 0.64564 0.64005 0.09923 0.0
H1464 H 0.63377 0.61393 0.04211 0.0
H1465 H 0.69278 0.62328 0.02727 0.0
H1466 H 0.70505 0.64965 0.08396 0.0
H1467 H 0.66799 0.64359 0.33986 0.0
H1468 H 0.66977 0.66279 0.27415 0.0
H1469 H 0.72383 0.66444 0.23408 0.0
H1470 H 0.72235 0.64552 0.30065 0.0
H1471 H 0.69132 0.646 0.17341 0.0
H1472 H 0.72721 0.70704 0.252 0.0
H1473 H 0.73429 0.72991 0.31469 0.0
H1474 H 0.67837 0.72741 0.29508 0.0
H1475 H 0.67081 0.7043 0.23268 0.0
C1476 C 0.66487 0.67887 0.00603 0.0
C1477 C 0.64744 0.67973 0.01303 0.0
C1478 C 0.67717 0.68069 0.04176 0.0
C1479 C 0.67189 0.68281 0.08515 0.0
C1480 C 0.65538 0.6853 0.09152 0.0
C1481 C 0.64336 0.68391 0.05583 0.0
C1482 C 0.68179 0.67998 0.12443 0.0
C1483 C 0.68745 0.6935 0.15974 0.0
C1484 C 0.68366 0.66285 0.12924 0.0
C1485 C 0.67631 0.64698 0.09532 0.0
C1486 C 0.6561 0.63661 0.08356 0.0
C1487 C 0.6493 0.62177 0.0513 0.0
C1488 C 0.66252 0.61701 0.03096 0.0
C1489 C 0.68257 0.62703 0.04296 0.0
C1490 C 0.68946 0.64193 0.07513 0.0
C1491 C 0.68064 0.64867 0.31787 0.0
C1492 C 0.69504 0.64311 0.32524 0.0
C1493 C 0.68168 0.65968 0.28042 0.0
C1494 C 0.69697 0.66507 0.24937 0.0
C1495 C 0.71202 0.66054 0.25791 0.0
C1496 C 0.7112 0.64983 0.29598 0.0
C1497 C 0.69515 0.67241 0.20531 0.0
C1498 C 0.69085 0.65962 0.16913 0.0
C1499 C 0.69386 0.68981 0.20037 0.0
C1500 C 0.69843 0.70387 0.23766 0.0
C1501 C 0.71636 0.71127 0.2612 0.0
C1502 C 0.72047 0.72429 0.29667 0.0
C1503 C 0.70678 0.7301 0.30887 0.0
C1504 C 0.68897 0.72292 0.28556 0.0
C1505 C 0.68479 0.70988 0.25007 0.0
H1506 H 0.70999 0.74017 0.33637 0.0
H1507 H 0.65723 0.6055 0.00601 0.0
H1508 H 0.03724 0.68663 0.53162 0.0
H1509 H 0.01801 0.6892 0.46961 0.0
H1510 H 0.04621 0.66765 0.38 0.0
H1511 H 0.06523 0.66512 0.44086 0.0
H1512 H 0.04244 0.69744 0.34256 0.0
H1513 H 1.00159 0.63621 0.42718 0.0
H1514 H 0.98453 0.61799 0.49516 0.0
H1515 H 0.95151 0.64871 0.49932 0.0
H1516 H 0.96858 0.66728 0.43158 0.0
H1517 H 0.98557 0.63074 0.18026 0.0
H1518 H 1.00513 0.65046 0.24293 0.0
H1519 H 0.95998 0.66532 0.27435 0.0
H1520 H 0.94017 0.64547 0.21089 0.0
H1521 H 0.97002 0.64971 0.34566 0.0
H1522 H 1.0046 0.70228 0.24404 0.0
H1523 H 0.0215 0.71837 0.17424 0.0
H1524 H 0.06646 0.70298 0.20007 0.0
H1525 H 0.0497 0.68653 0.26969 0.0
C1526 C 0.03949 0.68275 0.49853 0.0
C1527 C 0.05257 0.67547 0.49121 0.0
C1528 C 0.02851 0.68419 0.46321 0.0
C1529 C 0.03063 0.67854 0.42021 0.0
C1530 C 0.04438 0.67219 0.41278 0.0
C1531 C 0.05514 0.67059 0.4478 0.0
C1532 C 0.01762 0.6774 0.383 0.0
C1533 C 0.02656 0.68718 0.34323 0.0
C1534 C 0.99681 0.66451 0.3843 0.0
C1535 C 0.98653 0.6533 0.42478 0.0
C1536 C 0.99079 0.63917 0.44281 0.0
C1537 C 0.98111 0.62877 0.48124 0.0
C1538 C 0.967 0.63224 0.50165 0.0
C1539 C 0.96249 0.64608 0.48356 0.0
C1540 C 0.97216 0.65654 0.44517 0.0
C1541 C 0.97996 0.63855 0.19987 0.0
C1542 C 0.96133 0.63655 0.19073 0.0
C1543 C 0.99122 0.64992 0.23558 0.0
C1544 C 0.98411 0.65952 0.26313 0.0
C1545 C 0.9658 0.65815 0.25327 0.0
C1546 C 0.95456 0.6469 0.21696 0.0
C1547 C 0.99503 0.66895 0.30456 0.0
C1548 C 0.98572 0.66068 0.34517 0.0
C1549 C 0.01554 0.68311 0.30391 0.0
C1550 C 0.02585 0.69315 0.26218 0.0
C1551 C 0.01804 0.70223 0.23476 0.0
C1552 C 0.0276 0.71143 0.19521 0.0
C1553 C 0.04504 0.7117 0.18274 0.0
C1554 C 0.05297 0.70279 0.20982 0.0
C1555 C 0.04346 0.69357 0.2494 0.0
H1556 H 0.05242 0.71881 0.15209 0.0
H1557 H 0.95952 0.62417 0.53139 0.0
H1558 H 0.35037 0.98284 0.3399 0.0
H1559 H 0.35346 1.00211 0.40602 0.0
H1560 H 0.30095 0.95244 0.46102 0.0
H1561 H 0.29768 0.93288 0.39438 0.0
H1562 H 0.31342 1.00002 0.47952 0.0
H1563 H 0.33097 0.94802 0.5015 0.0
H1564 H 0.3458 0.9279 0.47852 0.0
H1565 H 0.40157 0.98087 0.45474 0.0
H1566 H 0.38699 1.00133 0.47753 0.0
H1567 H 0.35913 0.03799 0.70023 0.0
H1568 H 0.33789 0.01695 0.63942 0.0
H1569 H 0.38864 0.04175 0.55216 0.0
H1570 H 0.40969 0.06243 0.61186 0.0
H1571 H 0.36984 1.00102 0.55898 0.0
H1572 H 0.35345 0.05307 0.53789 0.0
H1573 H 0.33985 0.0743 0.56108 0.0
H1574 H 0.28277 0.02266 0.58286 0.0
H1575 H 0.29613 1.00111 0.56037 0.0
C1576 C 0.33903 0.97623 0.36528 0.0
C1577 C 0.3239 0.9563 0.36224 0.0
C1578 C 0.34077 0.9873 0.40295 0.0
C1579 C 0.32748 0.97865 0.43833 0.0
C1580 C 0.31122 0.95939 0.43377 0.0
C1581 C 0.30939 0.94825 0.39573 0.0
C1582 C 0.33333 0.98832 0.48216 0.0
C1583 C 0.32541 0.99992 0.4977 0.0
C1584 C 0.34913 0.98835 0.50533 0.0
C1585 C 0.35785 0.97616 0.49079 0.0
C1586 C 0.34632 0.95537 0.49085 0.0
C1587 C 0.35469 0.94391 0.47787 0.0
C1588 C 0.37458 0.9531 0.46469 0.0
C1589 C 0.38615 0.97378 0.46467 0.0
C1590 C 0.37786 0.98531 0.47772 0.0
C1591 C 0.3656 0.03915 0.66782 0.0
C1592 C 0.38612 0.05159 0.66102 0.0
C1593 C 0.35348 0.02717 0.63318 0.0
C1594 C 0.36177 0.0277 0.59147 0.0
C1595 C 0.38199 0.04099 0.5842 0.0
C1596 C 0.39402 0.05277 0.61849 0.0
C1597 C 0.35035 0.01324 0.55618 0.0
C1598 C 0.3574 1.00075 0.54194 0.0
C1599 C 0.33383 0.01251 0.53457 0.0
C1600 C 0.32585 0.02547 0.54805 0.0
C1601 C 0.33805 0.04623 0.54808 0.0
C1602 C 0.33038 0.05833 0.56099 0.0
C1603 C 0.31048 0.04983 0.5736 0.0
C1604 C 0.2982 0.02922 0.57319 0.0
C1605 C 0.30581 0.01706 0.56035 0.0
H1606 H 0.30456 0.05922 0.58356 0.0
H1607 H 0.38108 0.94423 0.45482 0.0
H1608 H 0.45045 0.30173 0.55657 0.0
H1609 H 0.45082 0.27504 0.59816 0.0
H1610 H 0.45696 0.24973 0.47612 0.0
H1611 H 0.45534 0.27592 0.43409 0.0
H1612 H 0.43384 0.22106 0.52465 0.0
H1613 H 0.4971 0.27766 0.55591 0.0
H1614 H 0.52059 0.3119 0.57952 0.0
H1615 H 0.49397 0.29933 0.70886 0.0
H1616 H 0.47015 0.26507 0.68586 0.0
H1617 H 0.46617 0.15971 0.6317 0.0
H1618 H 0.46581 0.18634 0.58909 0.0
H1619 H 0.44419 0.2028 0.70363 0.0
H1620 H 0.44426 0.17597 0.74644 0.0
H1621 H 0.47579 0.23566 0.65876 0.0
H1622 H 0.41277 0.17805 0.62427 0.0
H1623 H 0.39108 0.1437 0.59878 0.0
H1624 H 0.42015 0.1585 0.47207 0.0
H1625 H 0.44223 0.19289 0.49706 0.0
C1626 C 0.45199 0.29055 0.53851 0.0
C1627 C 0.45308 0.29113 0.49193 0.0
C1628 C 0.45234 0.27527 0.56246 0.0
C1629 C 0.45446 0.26043 0.54073 0.0
C1630 C 0.4554 0.26093 0.49404 0.0
C1631 C 0.45457 0.27599 0.46994 0.0
C1632 C 0.45532 0.2443 0.56662 0.0
C1633 C 0.4433 0.2244 0.55351 0.0
C1634 C 0.46735 0.24831 0.60499 0.0
C1635 C 0.48173 0.26885 0.61902 0.0
C1636 C 0.49618 0.28223 0.58931 0.0
C1637 C 0.50957 0.30164 0.60259 0.0
C1638 C 0.50874 0.3078 0.64562 0.0
C1639 C 0.49457 0.29454 0.67552 0.0
C1640 C 0.48115 0.27512 0.66239 0.0
C1641 C 0.46139 0.16901 0.64798 0.0
C1642 C 0.45525 0.16565 0.69263 0.0
C1643 C 0.46111 0.18422 0.62344 0.0
C1644 C 0.45487 0.19658 0.64297 0.0
C1645 C 0.44906 0.19349 0.68775 0.0
C1646 C 0.44906 0.17809 0.71218 0.0
C1647 C 0.45436 0.21265 0.61665 0.0
C1648 C 0.46643 0.23247 0.62975 0.0
C1649 C 0.44268 0.20861 0.57789 0.0
C1650 C 0.42929 0.18799 0.5627 0.0
C1651 C 0.41465 0.17394 0.5911 0.0
C1652 C 0.40226 0.15447 0.57672 0.0
C1653 C 0.40427 0.14891 0.53387 0.0
C1654 C 0.41863 0.16283 0.50527 0.0
C1655 C 0.43107 0.18231 0.51951 0.0
H1656 H 0.39466 0.13383 0.5228 0.0
H1657 H 0.51911 0.32283 0.65583 0.0
H1658 H 0.30897 0.45138 0.79039 0.0
H1659 H 0.28217 0.45156 0.74876 0.0
H1660 H 0.25205 0.44857 0.8711 0.0
H1661 H 0.27847 0.44734 0.91286 0.0
H1662 H 0.22559 0.42636 0.81632 0.0
H1663 H 0.27909 0.49306 0.80332 0.0
H1664 H 0.31312 0.51986 0.78676 0.0
H1665 H 0.30616 0.50114 0.65095 0.0
H1666 H 0.27216 0.47405 0.66682 0.0
H1667 H 0.16117 0.45741 0.7199 0.0
H1668 H 0.18823 0.45742 0.76152 0.0
H1669 H 0.20934 0.44387 0.64193 0.0
H1670 H 0.18205 0.44349 0.60005 0.0
H1671 H 0.24004 0.47488 0.69509 0.0
H1672 H 0.18531 0.40814 0.71131 0.0
H1673 H 0.15092 0.38295 0.73027 0.0
H1674 H 0.16014 0.40426 0.86425 0.0
H1675 H 0.19451 0.4298 0.84589 0.0
C1676 C 0.29671 0.45087 0.80855 0.0
C1677 C 0.29603 0.44953 0.85512 0.0
C1678 C 0.28135 0.45109 0.7846 0.0
C1679 C 0.26509 0.45056 0.80649 0.0
C1680 C 0.26434 0.44908 0.85309 0.0
C1681 C 0.27955 0.44846 0.87707 0.0
C1682 C 0.2488 0.45121 0.7808 0.0
C1683 C 0.22886 0.43721 0.79033 0.0
C1684 C 0.25275 0.46509 0.7461 0.0
C1685 C 0.27315 0.48142 0.73637 0.0
C1686 C 0.28487 0.49458 0.76999 0.0
C1687 C 0.30414 0.50983 0.76072 0.0
C1688 C 0.31182 0.51217 0.71786 0.0
C1689 C 0.30021 0.49929 0.68414 0.0
C1690 C 0.28092 0.484 0.69325 0.0
C1691 C 0.1716 0.45452 0.70229 0.0
C1692 C 0.16939 0.45047 0.65649 0.0
C1693 C 0.18705 0.45446 0.72625 0.0
C1694 C 0.20083 0.45057 0.705 0.0
C1695 C 0.19893 0.44692 0.65912 0.0
C1696 C 0.18327 0.44666 0.63522 0.0
C1697 C 0.21706 0.4501 0.73079 0.0
C1698 C 0.23691 0.46411 0.72122 0.0
C1699 C 0.21303 0.43649 0.7659 0.0
C1700 C 0.19243 0.42102 0.7771 0.0
C1701 C 0.17996 0.40757 0.74472 0.0
C1702 C 0.16047 0.3932 0.75537 0.0
C1703 C 0.15333 0.39204 0.79841 0.0
C1704 C 0.16568 0.4052 0.83091 0.0
C1705 C 0.18517 0.41961 0.82041 0.0
H1706 H 0.13824 0.3809 0.8066 0.0
H1707 H 0.32675 0.52398 0.71075 0.0
H1708 H 0.85541 0.30997 0.96686 0.0
H1709 H 0.82839 0.28339 0.92475 0.0
H1710 H 0.81854 0.24215 0.03059 0.0
H1711 H 0.84574 0.26871 0.07291 0.0
H1712 H 0.81707 0.22535 0.95192 0.0
H1713 H 0.78711 0.26067 0.01441 0.0
H1714 H 0.78428 0.29017 0.03124 0.0
H1715 H 0.78135 0.30027 0.89218 0.0
H1716 H 0.78443 0.27097 0.8745 0.0
H1717 H 0.7074 0.16836 0.86679 0.0
H1718 H 0.73383 0.19468 0.9108 0.0
H1719 H 0.77756 0.19692 0.81949 0.0
H1720 H 0.75117 0.17047 0.77539 0.0
H1721 H 0.76111 0.23242 0.8945 0.0
H1722 H 0.82011 0.20834 0.87695 0.0
H1723 H 0.82165 0.17777 0.86483 0.0
H1724 H 0.76386 0.14308 0.92316 0.0
H1725 H 0.7621 0.17345 0.93621 0.0
C1726 C 0.84746 0.29529 0.98144 0.0
C1727 C 0.85275 0.29161 0.0236 0.0
C1728 C 0.83192 0.28005 0.95722 0.0
C1729 C 0.82117 0.26068 0.97446 0.0
C1730 C 0.82652 0.25691 0.01641 0.0
C1731 C 0.84205 0.27218 0.04074 0.0
C1732 C 0.80442 0.24443 0.94871 0.0
C1733 C 0.80488 0.22695 0.93934 0.0
C1734 C 0.78824 0.24622 0.93261 0.0
C1735 C 0.78618 0.26372 0.94313 0.0
C1736 C 0.786 0.26926 0.98741 0.0
C1737 C 0.78433 0.28593 0.99711 0.0
C1738 C 0.78269 0.29711 0.9628 0.0
C1739 C 0.78264 0.2916 0.91872 0.0
C1740 C 0.78433 0.27495 0.90885 0.0
C1741 C 0.72262 0.17446 0.85587 0.0
C1742 C 0.72707 0.16718 0.81741 0.0
C1743 C 0.73777 0.18961 0.88113 0.0
C1744 C 0.75782 0.19779 0.86892 0.0
C1745 C 0.76229 0.19075 0.83014 0.0
C1746 C 0.74713 0.17564 0.80475 0.0
C1747 C 0.77395 0.2135 0.897 0.0
C1748 C 0.77336 0.23086 0.90687 0.0
C1749 C 0.78986 0.21148 0.91407 0.0
C1750 C 0.79091 0.19316 0.90711 0.0
C1751 C 0.80778 0.19419 0.88736 0.0
C1752 C 0.80868 0.1769 0.8803 0.0
C1753 C 0.79284 0.15849 0.89308 0.0
C1754 C 0.77609 0.15734 0.91313 0.0
C1755 C 0.77513 0.17459 0.92032 0.0
H1756 H 0.79356 0.14512 0.88752 0.0
H1757 H 0.78141 0.31003 0.97037 0.0
H1758 H 0.57479 0.83701 0.24441 0.0
H1759 H 0.57456 0.81003 0.20235 0.0
H1760 H 0.55723 0.82919 0.08472 0.0
H1761 H 0.55661 0.85562 0.12709 0.0
H1762 H 0.53801 0.79157 0.0845 0.0
H1763 H 0.60662 0.83838 0.10575 0.0
H1764 H 0.63701 0.86058 0.14751 0.0
H1765 H 0.6322 0.81071 0.21958 0.0
H1766 H 0.60159 0.78824 0.17871 0.0
H1767 H 0.56829 0.73966 0.93207 0.0
H1768 H 0.56756 0.76638 0.97398 0.0
H1769 H 0.56575 0.73697 0.09649 0.0
H1770 H 0.56592 0.71002 0.055 0.0
H1771 H 0.59505 0.77981 0.09249 0.0
H1772 H 0.52541 0.73345 0.06759 0.0
H1773 H 0.49615 0.71258 0.02126 0.0
H1774 H 0.50513 0.76411 0.94932 0.0
H1775 H 0.53464 0.78526 0.99484 0.0
C1776 C 0.57086 0.83545 0.20962 0.0
C1777 C 0.56574 0.84856 0.18924 0.0
C1778 C 0.57088 0.82005 0.18538 0.0
C1779 C 0.56624 0.81762 0.13983 0.0
C1780 C 0.56088 0.83059 0.11966 0.0
C1781 C 0.56057 0.84579 0.14402 0.0
C1782 C 0.5669 0.8016 0.11324 0.0
C1783 C 0.55066 0.78927 0.08596 0.0
C1784 C 0.58323 0.79821 0.11499 0.0
C1785 C 0.60169 0.81165 0.13948 0.0
C1786 C 0.61196 0.83216 0.13073 0.0
C1787 C 0.62923 0.84479 0.15421 0.0
C1788 C 0.6365 0.83707 0.18626 0.0
C1789 C 0.62653 0.81668 0.19479 0.0
C1790 C 0.60923 0.80399 0.17146 0.0
C1791 C 0.56764 0.73884 0.96793 0.0
C1792 C 0.56704 0.7226 0.99009 0.0
C1793 C 0.56723 0.75413 0.99185 0.0
C1794 C 0.5666 0.75372 0.03846 0.0
C1795 C 0.56625 0.73766 0.06062 0.0
C1796 C 0.56624 0.72219 0.03676 0.0
C1797 C 0.56622 0.76994 0.06421 0.0
C1798 C 0.58249 0.78226 0.09119 0.0
C1799 C 0.55013 0.77357 0.06152 0.0
C1800 C 0.53236 0.7609 0.03428 0.0
C1801 C 0.52126 0.74031 0.04161 0.0
C1802 C 0.5046 0.72843 0.01556 0.0
C1803 C 0.49882 0.73701 0.98227 0.0
C1804 C 0.50965 0.75748 0.97506 0.0
C1805 C 0.52633 0.76942 1.001 0.0
H1806 H 0.48592 0.72779 0.96215 0.0
H1807 H 0.64988 0.84687 0.2044 0.0
H1808 H 0.71149 0.56393 0.28928 0.0
H1809 H 0.73833 0.56372 0.24787 0.0
H1810 H 0.76631 0.56266 0.3706 0.0
H1811 H 0.73993 0.56403 0.41222 0.0
H1812 H 0.79381 0.58536 0.3189 0.0
H1813 H 0.7388 0.51999 0.29685 0.0
H1814 H 0.70466 0.49468 0.27637 0.0
H1815 H 0.71463 0.51744 0.14338 0.0
H1816 H 0.74876 0.54304 0.16322 0.0
H1817 H 0.85782 0.55477 0.21955 0.0
H1818 H 0.83079 0.55477 0.26113 0.0
H1819 H 0.81085 0.57029 0.14225 0.0
H1820 H 0.83803 0.57052 0.10039 0.0
H1821 H 0.77957 0.53983 0.19181 0.0
H1822 H 0.83562 0.60502 0.21673 0.0
H1823 H 0.87 0.62872 0.23911 0.0
H1824 H 0.85796 0.60384 0.37023 0.0
H1825 H 0.82357 0.57977 0.34842 0.0
C1826 C 0.72329 0.56352 0.30754 0.0
C1827 C 0.7234 0.56379 0.35419 0.0
C1828 C 0.73866 0.56328 0.28371 0.0
C1829 C 0.75432 0.56267 0.30574 0.0
C1830 C 0.75448 0.56305 0.35245 0.0
C1831 C 0.73931 0.56374 0.37635 0.0
C1832 C 0.77063 0.562 0.28015 0.0
C1833 C 0.79056 0.57514 0.2916 0.0
C1834 C 0.76674 0.54898 0.24374 0.0
C1835 C 0.74627 0.53354 0.23164 0.0
C1836 C 0.73367 0.51967 0.26331 0.0
C1837 C 0.71433 0.50526 0.25181 0.0
C1838 C 0.70747 0.50448 0.20863 0.0
C1839 C 0.71996 0.51807 0.17683 0.0
C1840 C 0.73931 0.53252 0.18816 0.0
C1841 C 0.84766 0.55811 0.20209 0.0
C1842 C 0.85017 0.56264 0.15647 0.0
C1843 C 0.83222 0.55819 0.22604 0.0
C1844 C 0.81877 0.56265 0.20501 0.0
C1845 C 0.821 0.56681 0.15931 0.0
C1846 C 0.8366 0.56698 0.13541 0.0
C1847 C 0.80252 0.5631 0.23076 0.0
C1848 C 0.78267 0.54996 0.21926 0.0
C1849 C 0.80647 0.57586 0.26751 0.0
C1850 C 0.82707 0.59046 0.28081 0.0
C1851 C 0.84034 0.6045 0.25024 0.0
C1852 C 0.85983 0.61802 0.26283 0.0
C1853 C 0.86618 0.61775 0.30603 0.0
C1854 C 0.85303 0.60401 0.33676 0.0
C1855 C 0.83354 0.59043 0.32431 0.0
H1856 H 0.88127 0.62823 0.31572 0.0
H1857 H 0.69248 0.49333 0.1998 0.0
H1858 H 0.1729 0.70163 0.48338 0.0
H1859 H 0.19988 0.72843 0.44151 0.0
H1860 H 0.19309 0.77152 0.5178 0.0
H1861 H 0.16654 0.74473 0.56095 0.0
H1862 H 0.20265 0.75482 0.38769 0.0
H1863 H 0.23616 0.8152 0.52392 0.0
H1864 H 0.24021 0.81756 0.6052 0.0
H1865 H 0.23727 0.76097 0.60845 0.0
H1866 H 0.23346 0.75839 0.52717 0.0
H1867 H 0.26932 0.84658 0.28393 0.0
H1868 H 0.24272 0.81998 0.32722 0.0
H1869 H 0.28631 0.8164 0.40925 0.0
H1870 H 0.31292 0.8436 0.36729 0.0
H1871 H 0.25891 0.81277 0.46029 0.0
H1872 H 0.25772 0.78107 0.32363 0.0
H1873 H 0.25601 0.77653 0.24254 0.0
H1874 H 0.19851 0.77169 0.24059 0.0
H1875 H 0.19999 0.77645 0.32163 0.0
C1876 C 0.17722 0.71682 0.49154 0.0
C1877 C 0.16758 0.72096 0.52592 0.0
C1878 C 0.19265 0.73219 0.46732 0.0
C1879 C 0.19887 0.75219 0.4765 0.0
C1880 C 0.18903 0.75634 0.51045 0.0
C1881 C 0.17373 0.74095 0.5351 0.0
C1882 C 0.21545 0.76853 0.45029 0.0
C1883 C 0.21492 0.76748 0.40371 0.0
C1884 C 0.23181 0.78502 0.4707 0.0
C1885 C 0.23431 0.78653 0.51953 0.0
C1886 C 0.23645 0.8033 0.54198 0.0
C1887 C 0.23869 0.80467 0.58804 0.0
C1888 C 0.23893 0.78939 0.61199 0.0
C1889 C 0.237 0.77275 0.58989 0.0
C1890 C 0.23479 0.77132 0.54383 0.0
C1891 C 0.27326 0.84006 0.31103 0.0
C1892 C 0.29333 0.8472 0.32183 0.0
C1893 C 0.25798 0.82472 0.33578 0.0
C1894 C 0.26232 0.81576 0.37138 0.0
C1895 C 0.28239 0.82293 0.38214 0.0
C1896 C 0.29766 0.83848 0.35787 0.0
C1897 C 0.24606 0.79912 0.39766 0.0
C1898 C 0.24663 0.80013 0.44425 0.0
C1899 C 0.23004 0.78229 0.3773 0.0
C1900 C 0.22905 0.7793 0.32862 0.0
C1901 C 0.24476 0.77916 0.30586 0.0
C1902 C 0.24383 0.77653 0.25992 0.0
C1903 C 0.22718 0.77387 0.23642 0.0
C1904 C 0.21141 0.77377 0.25883 0.0
C1905 C 0.21228 0.77642 0.30477 0.0
H1906 H 0.22649 0.77184 0.20085 0.0
H1907 H 0.24064 0.79047 0.64765 0.0
loop_
_geom_bond_atom_site_label_1
_geom_bond_atom_site_label_2
_geom_bond_distance
_geom_bond_site_symmetry_2
_ccdc_geom_bond_type
Co0 O2 2.143 . S
Co0 O8 2.074 . S
Co0 O11 2.093 . S
Co0 O24 2.097 . S
Co0 N41 2.151 . S
Co0 N49 2.214 . S
Co1 O2 2.160 . S
Co1 O7 2.058 . S
Co1 O17 2.057 . S
Co1 O32 2.037 . S
Co1 N36 2.145 . S
Co1 N57 2.257 . S
O2 Co0 2.143 . S
O2 Co1 2.160 . S
C3 O4 1.278 . S
C3 O11 1.224 . S
O4 C3 1.278 . S
C5 O6 1.245 . S
C5 O17 1.232 . S
O6 C5 1.245 . S
O7 Co1 2.058 . S
O7 C33 1.269 . S
O8 Co0 2.074 . S
O8 C33 1.257 . S
H9 C34 0.930 . S
H10 C40 0.930 . S
O11 Co0 2.093 . S
O11 C3 1.224 . S
H12 C44 0.929 . S
H13 C46 0.930 . S
H14 C47 0.930 . S
H15 C45 0.929 . S
H16 C48 0.928 . S
O17 Co1 2.057 . S
O17 C5 1.232 . S
H18 C37 0.929 . S
H19 C38 0.929 . S
H20 C50 0.931 . S
H21 C42 0.929 . S
H22 C51 0.930 . S
H23 C43 0.931 . S
O24 Co0 2.097 . S
O24 C52 1.214 . S
H25 C53 0.929 . S
H26 C54 0.929 . S
H27 C55 0.930 . S
H28 C56 0.929 . S
H29 C58 0.930 . S
H30 C35 0.930 . S
H31 C39 0.930 . S
O32 Co1 2.037 . S
O32 C52 1.234 . S
C33 O7 1.269 . S
C33 O8 1.257 . S
C34 H9 0.930 . S
C34 C37 1.388 . S
C34 C39 1.418 . S
C35 H30 0.930 . S
C35 C38 1.404 . S
C35 C39 1.353 . S
N36 Co1 2.145 . S
N36 C37 1.397 . S
N36 C38 1.334 . S
C37 H18 0.929 . S
C37 C34 1.388 . S
C37 N36 1.397 . S
C38 H19 0.929 . S
C38 C35 1.404 . S
C38 N36 1.334 . S
C39 H31 0.930 . S
C39 C34 1.418 . S
C39 C35 1.353 . S
C40 H10 0.930 . S
C40 N41 1.330 . S
C40 C42 1.446 . S
N41 Co0 2.151 . S
N41 C40 1.330 . S
N41 C45 1.418 . S
C42 H21 0.929 . S
C42 C40 1.446 . S
C42 C43 1.332 . S
C43 H23 0.931 . S
C43 C42 1.332 . S
C43 C44 1.267 . S
C44 H12 0.929 . S
C44 C43 1.267 . S
C44 C45 1.251 . S
C45 H15 0.929 . S
C45 N41 1.418 . S
C45 C44 1.251 . S
C46 H13 0.930 . S
C46 C48 1.406 . S
C46 C51 1.261 . S
C47 H14 0.930 . S
C47 N49 1.325 . S
C47 C50 1.357 . S
C48 H16 0.928 . S
C48 C46 1.406 . S
C48 N49 1.261 . S
N49 Co0 2.214 . S
N49 C47 1.325 . S
N49 C48 1.261 . S
C50 H20 0.931 . S
C50 C47 1.357 . S
C50 C51 1.312 . S
C51 H22 0.930 . S
C51 C46 1.261 . S
C51 C50 1.312 . S
C52 O24 1.214 . S
C52 O32 1.234 . S
C53 H25 0.929 . S
C53 C56 1.391 . S
C53 C58 1.391 . S
C54 H26 0.929 . S
C54 C55 1.390 . S
C54 N57 1.391 . S
C55 H27 0.930 . S
C55 C54 1.390 . S
C55 C56 1.392 . S
C56 H28 0.929 . S
C56 C53 1.391 . S
C56 C55 1.392 . S
N57 Co1 2.257 . S
N57 C54 1.391 . S
N57 C58 1.388 . S
C58 H29 0.930 . S
C58 C53 1.391 . S
C58 N57 1.388 . S
Co59 O61 2.143 . S
Co59 O67 2.074 . S
Co59 O70 2.093 . S
Co59 O83 2.097 . S
Co59 N100 2.151 . S
Co59 N108 2.214 . S
Co60 O61 2.160 . S
Co60 O66 2.058 . S
Co60 O76 2.057 . S
Co60 O91 2.037 . S
Co60 N95 2.145 . S
Co60 N116 2.257 . S
O61 Co59 2.143 . S
O61 Co60 2.160 . S
C62 O63 1.278 . S
C62 O70 1.224 . S
O63 C62 1.278 . S
C64 O65 1.245 . S
C64 O76 1.232 . S
O65 C64 1.245 . S
O66 Co60 2.058 . S
O66 C92 1.269 . S
O67 Co59 2.074 . S
O67 C92 1.257 . S
H68 C93 0.930 . S
H69 C99 0.930 . S
O70 Co59 2.093 . S
O70 C62 1.224 . S
H71 C103 0.929 . S
H72 C105 0.930 . S
H73 C106 0.930 . S
H74 C104 0.929 . S
H75 C107 0.928 . S
O76 Co60 2.057 . S
O76 C64 1.232 . S
H77 C96 0.929 . S
H78 C97 0.929 . S
H79 C109 0.931 . S
H80 C101 0.929 . S
H81 C110 0.930 . S
H82 C102 0.931 . S
O83 Co59 2.097 . S
O83 C111 1.214 . S
H84 C112 0.929 . S
H85 C113 0.929 . S
H86 C114 0.930 . S
H87 C115 0.929 . S
H88 C117 0.930 . S
H89 C94 0.930 . S
H90 C98 0.930 . S
O91 Co60 2.037 . S
O91 C111 1.234 . S
C92 O66 1.269 . S
C92 O67 1.257 . S
C93 H68 0.930 . S
C93 C96 1.388 . S
C93 C98 1.418 . S
C94 H89 0.930 . S
C94 C97 1.404 . S
C94 C98 1.353 . S
N95 Co60 2.145 . S
N95 C96 1.397 . S
N95 C97 1.334 . S
C96 H77 0.929 . S
C96 C93 1.388 . S
C96 N95 1.397 . S
C97 H78 0.929 . S
C97 C94 1.404 . S
C97 N95 1.334 . S
C98 H90 0.930 . S
C98 C93 1.418 . S
C98 C94 1.353 . S
C99 H69 0.930 . S
C99 N100 1.330 . S
C99 C101 1.446 . S
N100 Co59 2.151 . S
N100 C99 1.330 . S
N100 C104 1.418 . S
C101 H80 0.929 . S
C101 C99 1.446 . S
C101 C102 1.332 . S
C102 H82 0.931 . S
C102 C101 1.332 . S
C102 C103 1.267 . S
C103 H71 0.929 . S
C103 C102 1.267 . S
C103 C104 1.251 . S
C104 H74 0.929 . S
C104 N100 1.418 . S
C104 C103 1.251 . S
C105 H72 0.930 . S
C105 C107 1.406 . S
C105 C110 1.261 . S
C106 H73 0.930 . S
C106 N108 1.325 . S
C106 C109 1.357 . S
C107 H75 0.928 . S
C107 C105 1.406 . S
C107 N108 1.261 . S
N108 Co59 2.214 . S
N108 C106 1.325 . S
N108 C107 1.261 . S
C109 H79 0.931 . S
C109 C106 1.357 . S
C109 C110 1.312 . S
C110 H81 0.930 . S
C110 C105 1.261 . S
C110 C109 1.312 . S
C111 O83 1.214 . S
C111 O91 1.234 . S
C112 H84 0.929 . S
C112 C115 1.391 . S
C112 C117 1.391 . S
C113 H85 0.929 . S
C113 C114 1.390 . S
C113 N116 1.391 . S
C114 H86 0.930 . S
C114 C113 1.390 . S
C114 C115 1.392 . S
C115 H87 0.929 . S
C115 C112 1.391 . S
C115 C114 1.392 . S
N116 Co60 2.257 . S
N116 C113 1.391 . S
N116 C117 1.388 . S
C117 H88 0.930 . S
C117 C112 1.391 . S
C117 N116 1.388 . S
Co118 O120 2.143 . S
Co118 O126 2.074 . S
Co118 O129 2.093 . S
Co118 O142 2.097 . S
Co118 N159 2.151 . S
Co118 N167 2.214 . S
Co119 O120 2.160 . S
Co119 O125 2.058 . S
Co119 O135 2.057 . S
Co119 O150 2.037 . S
Co119 N154 2.145 . S
Co119 N175 2.257 . S
O120 Co118 2.143 . S
O120 Co119 2.160 . S
C121 O122 1.278 . S
C121 O129 1.224 . S
O122 C121 1.278 . S
C123 O124 1.245 . S
C123 O135 1.232 . S
O124 C123 1.245 . S
O125 Co119 2.058 . S
O125 C151 1.269 . S
O126 Co118 2.074 . S
O126 C151 1.257 . S
H127 C152 0.930 . S
H128 C158 0.930 . S
O129 Co118 2.093 . S
O129 C121 1.224 . S
H130 C162 0.929 . S
H131 C164 0.930 . S
H132 C165 0.930 . S
H133 C163 0.929 . S
H134 C166 0.928 . S
O135 Co119 2.057 . S
O135 C123 1.232 . S
H136 C155 0.929 . S
H137 C156 0.929 . S
H138 C168 0.931 . S
H139 C160 0.929 . S
H140 C169 0.930 . S
H141 C161 0.931 . S
O142 Co118 2.097 . S
O142 C170 1.214 . S
H143 C171 0.929 . S
H144 C172 0.929 . S
H145 C173 0.930 . S
H146 C174 0.929 . S
H147 C176 0.930 . S
H148 C153 0.930 . S
H149 C157 0.930 . S
O150 Co119 2.037 . S
O150 C170 1.234 . S
C151 O125 1.269 . S
C151 O126 1.257 . S
C152 H127 0.930 . S
C152 C155 1.388 . S
C152 C157 1.418 . S
C153 H148 0.930 . S
C153 C156 1.404 . S
C153 C157 1.353 . S
N154 Co119 2.145 . S
N154 C155 1.397 . S
N154 C156 1.334 . S
C155 H136 0.929 . S
C155 C152 1.388 . S
C155 N154 1.397 . S
C156 H137 0.929 . S
C156 C153 1.404 . S
C156 N154 1.334 . S
C157 H149 0.930 . S
C157 C152 1.418 . S
C157 C153 1.353 . S
C158 H128 0.930 . S
C158 N159 1.330 . S
C158 C160 1.446 . S
N159 Co118 2.151 . S
N159 C158 1.330 . S
N159 C163 1.418 . S
C160 H139 0.929 . S
C160 C158 1.446 . S
C160 C161 1.332 . S
C161 H141 0.931 . S
C161 C160 1.332 . S
C161 C162 1.267 . S
C162 H130 0.929 . S
C162 C161 1.267 . S
C162 C163 1.251 . S
C163 H133 0.929 . S
C163 N159 1.418 . S
C163 C162 1.251 . S
C164 H131 0.930 . S
C164 C166 1.406 . S
C164 C169 1.261 . S
C165 H132 0.930 . S
C165 N167 1.325 . S
C165 C168 1.357 . S
C166 H134 0.928 . S
C166 C164 1.406 . S
C166 N167 1.261 . S
N167 Co118 2.214 . S
N167 C165 1.325 . S
N167 C166 1.261 . S
C168 H138 0.931 . S
C168 C165 1.357 . S
C168 C169 1.312 . S
C169 H140 0.930 . S
C169 C164 1.261 . S
C169 C168 1.312 . S
C170 O142 1.214 . S
C170 O150 1.234 . S
C171 H143 0.929 . S
C171 C174 1.391 . S
C171 C176 1.391 . S
C172 H144 0.929 . S
C172 C173 1.390 . S
C172 N175 1.391 . S
C173 H145 0.930 . S
C173 C172 1.390 . S
C173 C174 1.392 . S
C174 H146 0.929 . S
C174 C171 1.391 . S
C174 C173 1.392 . S
N175 Co119 2.257 . S
N175 C172 1.391 . S
N175 C176 1.388 . S
C176 H147 0.930 . S
C176 C171 1.391 . S
C176 N175 1.388 . S
Co177 O179 2.143 . S
Co177 O185 2.074 . S
Co177 O188 2.093 . S
Co177 O201 2.097 . S
Co177 N218 2.151 1_556 S
Co177 N226 2.214 . S
Co178 O179 2.160 . S
Co178 O184 2.058 . S
Co178 O194 2.057 . S
Co178 O209 2.037 . S
Co178 N213 2.145 . S
Co178 N234 2.257 . S
O179 Co177 2.143 . S
O179 Co178 2.160 . S
C180 O181 1.278 1_554 S
C180 O188 1.224 1_554 S
O181 C180 1.278 1_556 S
C182 O183 1.245 . S
C182 O194 1.232 . S
O183 C182 1.245 . S
O184 Co178 2.058 . S
O184 C210 1.269 . S
O185 Co177 2.074 . S
O185 C210 1.257 . S
H186 C211 0.930 . S
H187 C217 0.930 . S
O188 Co177 2.093 . S
O188 C180 1.224 1_556 S
H189 C221 0.929 . S
H190 C223 0.930 . S
H191 C224 0.930 . S
H192 C222 0.929 1_556 S
H193 C225 0.918 1_554 S
O194 Co178 2.057 . S
O194 C182 1.232 . S
H195 C214 0.929 . S
H196 C215 0.929 . S
H197 C227 0.931 . S
H198 C219 0.929 . S
H199 C228 0.930 . S
H200 C220 0.931 . S
O201 Co177 2.097 . S
O201 C229 1.214 . S
H202 C230 0.929 . S
H203 C231 0.929 . S
H204 C232 0.930 . S
H205 C233 0.929 . S
H206 C235 0.930 . S
H207 C212 0.930 . S
H208 C216 0.930 . S
O209 Co178 2.037 . S
O209 C229 1.234 . S
C210 O184 1.269 . S
C210 O185 1.257 . S
C211 H186 0.930 . S
C211 C214 1.388 . S
C211 C216 1.418 . S
C212 H207 0.930 . S
C212 C215 1.404 . S
C212 C216 1.353 . S
N213 Co178 2.145 . S
N213 C214 1.397 . S
N213 C215 1.334 . S
C214 H195 0.929 . S
C214 C211 1.388 . S
C214 N213 1.397 . S
C215 H196 0.929 . S
C215 C212 1.404 . S
C215 N213 1.334 . S
C216 H208 0.930 . S
C216 C211 1.418 . S
C216 C212 1.353 . S
C217 H187 0.930 . S
C217 N218 1.330 . S
C217 C219 1.446 . S
N218 Co177 2.151 1_554 S
N218 C217 1.330 . S
N218 C222 1.418 . S
C219 H198 0.929 . S
C219 C217 1.446 . S
C219 C220 1.332 . S
C220 H200 0.931 . S
C220 C219 1.332 . S
C220 C221 1.267 . S
C221 H189 0.929 . S
C221 C220 1.267 . S
C221 C222 1.251 . S
C222 H192 0.929 1_554 S
C222 N218 1.418 . S
C222 C221 1.251 . S
C223 H190 0.930 . S
C223 C225 1.406 . S
C223 C228 1.261 . S
C224 H191 0.930 . S
C224 N226 1.325 . S
C224 C227 1.357 . S
C225 H193 0.918 1_556 S
C225 C223 1.406 . S
C225 N226 1.261 . S
N226 Co177 2.214 . S
N226 C224 1.325 . S
N226 C225 1.261 . S
C227 H197 0.931 . S
C227 C224 1.357 . S
C227 C228 1.312 . S
C228 H199 0.930 . S
C228 C223 1.261 . S
C228 C227 1.312 . S
C229 O201 1.214 . S
C229 O209 1.234 . S
C230 H202 0.929 . S
C230 C233 1.391 . S
C230 C235 1.391 . S
C231 H203 0.929 . S
C231 C232 1.390 . S
C231 N234 1.391 . S
C232 H204 0.930 . S
C232 C231 1.390 . S
C232 C233 1.392 . S
C233 H205 0.929 . S
C233 C230 1.391 . S
C233 C232 1.392 . S
N234 Co178 2.257 . S
N234 C231 1.391 . S
N234 C235 1.388 . S
C235 H206 0.930 . S
C235 C230 1.391 . S
C235 N234 1.388 . S
Co236 O238 2.143 . S
Co236 O244 2.074 . S
Co236 O247 2.093 . S
Co236 O260 2.097 . S
Co236 N277 2.151 . S
Co236 N285 2.214 . S
Co237 O238 2.160 . S
Co237 O243 2.058 . S
Co237 O253 2.057 . S
Co237 O268 2.037 . S
Co237 N272 2.145 . S
Co237 N293 2.257 . S
O238 Co236 2.143 . S
O238 Co237 2.160 . S
C239 O240 1.278 . S
C239 O247 1.224 . S
O240 C239 1.278 . S
C241 O242 1.245 . S
C241 O253 1.232 . S
O242 C241 1.245 . S
O243 Co237 2.058 . S
O243 C269 1.269 . S
O244 Co236 2.074 . S
O244 C269 1.257 . S
H245 C270 0.930 . S
H246 C276 0.930 . S
O247 Co236 2.093 . S
O247 C239 1.224 . S
H248 C280 0.929 . S
H249 C282 0.930 . S
H250 C283 0.930 . S
H251 C281 0.929 . S
H252 C284 0.928 . S
O253 Co237 2.057 . S
O253 C241 1.232 . S
H254 C273 0.929 . S
H255 C274 0.929 . S
H256 C286 0.931 . S
H257 C278 0.929 . S
H258 C287 0.930 . S
H259 C279 0.931 . S
O260 Co236 2.097 . S
O260 C288 1.214 . S
H261 C289 0.929 . S
H262 C290 0.929 1_556 S
H263 C291 0.930 1_556 S
H264 C292 0.929 . S
H265 C294 0.930 . S
H266 C271 0.930 . S
H267 C275 0.930 . S
O268 Co237 2.037 . S
O268 C288 1.234 . S
C269 O243 1.269 . S
C269 O244 1.257 . S
C270 H245 0.930 . S
C270 C273 1.388 . S
C270 C275 1.418 . S
C271 H266 0.930 . S
C271 C274 1.404 1_556 S
C271 C275 1.353 . S
N272 Co237 2.145 . S
N272 C273 1.397 1_554 S
N272 C274 1.334 . S
C273 H254 0.929 . S
C273 C270 1.388 . S
C273 N272 1.397 1_556 S
C274 H255 0.929 . S
C274 C271 1.404 1_554 S
C274 N272 1.334 . S
C275 H267 0.930 . S
C275 C270 1.418 . S
C275 C271 1.353 . S
C276 H246 0.930 . S
C276 N277 1.330 . S
C276 C278 1.446 . S
N277 Co236 2.151 . S
N277 C276 1.330 . S
N277 C281 1.418 . S
C278 H257 0.929 . S
C278 C276 1.446 . S
C278 C279 1.332 . S
C279 H259 0.931 . S
C279 C278 1.332 . S
C279 C280 1.267 . S
C280 H248 0.929 . S
C280 C279 1.267 . S
C280 C281 1.251 . S
C281 H251 0.929 . S
C281 N277 1.418 . S
C281 C280 1.251 . S
C282 H249 0.930 . S
C282 C284 1.406 . S
C282 C287 1.261 . S
C283 H250 0.930 . S
C283 N285 1.325 . S
C283 C286 1.357 . S
C284 H252 0.928 . S
C284 C282 1.406 . S
C284 N285 1.261 . S
N285 Co236 2.214 . S
N285 C283 1.325 . S
N285 C284 1.261 . S
C286 H256 0.931 . S
C286 C283 1.357 . S
C286 C287 1.312 . S
C287 H258 0.930 . S
C287 C282 1.261 . S
C287 C286 1.312 . S
C288 O260 1.214 . S
C288 O268 1.234 . S
C289 H261 0.929 . S
C289 C292 1.391 . S
C289 C294 1.391 . S
C290 H262 0.929 1_554 S
C290 C291 1.390 . S
C290 N293 1.391 . S
C291 H263 0.930 1_554 S
C291 C290 1.390 . S
C291 C292 1.392 . S
C292 H264 0.929 . S
C292 C289 1.391 . S
C292 C291 1.392 . S
N293 Co237 2.257 . S
N293 C290 1.391 . S
N293 C294 1.388 . S
C294 H265 0.930 . S
C294 C289 1.391 . S
C294 N293 1.388 . S
Co295 O297 2.143 . S
Co295 O303 2.074 . S
Co295 O306 2.093 . S
Co295 O319 2.097 . S
Co295 N336 2.151 . S
Co295 N344 2.214 . S
Co296 O297 2.160 . S
Co296 O302 2.058 . S
Co296 O312 2.057 . S
Co296 O327 2.037 . S
Co296 N331 2.145 . S
Co296 N352 2.257 . S
O297 Co295 2.143 . S
O297 Co296 2.160 . S
C298 O299 1.278 . S
C298 O306 1.224 . S
O299 C298 1.278 . S
C300 O301 1.245 . S
C300 O312 1.232 . S
O301 C300 1.245 . S
O302 Co296 2.058 . S
O302 C328 1.269 . S
O303 Co295 2.074 . S
O303 C328 1.257 . S
H304 C329 0.930 . S
H305 C335 0.930 . S
O306 Co295 2.093 . S
O306 C298 1.224 . S
H307 C339 0.929 . S
H308 C341 0.930 . S
H309 C342 0.930 . S
H310 C340 0.929 . S
H311 C343 0.928 . S
O312 Co296 2.057 . S
O312 C300 1.232 . S
H313 C332 0.929 . S
H314 C333 0.929 . S
H315 C345 0.931 . S
H316 C337 0.929 . S
H317 C346 0.930 . S
H318 C338 0.931 . S
O319 Co295 2.097 . S
O319 C347 1.214 . S
H320 C348 0.929 . S
H321 C349 0.929 . S
H322 C350 0.930 . S
H323 C351 0.929 . S
H324 C353 0.930 . S
H325 C330 0.930 . S
H326 C334 0.930 . S
O327 Co296 2.037 . S
O327 C347 1.234 . S
C328 O302 1.269 . S
C328 O303 1.257 . S
C329 H304 0.930 . S
C329 C332 1.388 . S
C329 C334 1.418 . S
C330 H325 0.930 . S
C330 C333 1.404 . S
C330 C334 1.353 . S
N331 Co296 2.145 . S
N331 C332 1.397 . S
N331 C333 1.334 . S
C332 H313 0.929 . S
C332 C329 1.388 . S
C332 N331 1.397 . S
C333 H314 0.929 . S
C333 C330 1.404 . S
C333 N331 1.334 . S
C334 H326 0.930 . S
C334 C329 1.418 . S
C334 C330 1.353 . S
C335 H305 0.930 . S
C335 N336 1.330 . S
C335 C337 1.446 . S
N336 Co295 2.151 . S
N336 C335 1.330 . S
N336 C340 1.418 . S
C337 H316 0.929 . S
C337 C335 1.446 . S
C337 C338 1.332 . S
C338 H318 0.931 . S
C338 C337 1.332 . S
C338 C339 1.267 . S
C339 H307 0.929 . S
C339 C338 1.267 . S
C339 C340 1.251 . S
C340 H310 0.929 . S
C340 N336 1.418 . S
C340 C339 1.251 . S
C341 H308 0.930 . S
C341 C343 1.406 . S
C341 C346 1.261 . S
C342 H309 0.930 . S
C342 N344 1.325 . S
C342 C345 1.357 . S
C343 H311 0.928 . S
C343 C341 1.406 . S
C343 N344 1.261 . S
N344 Co295 2.214 . S
N344 C342 1.325 . S
N344 C343 1.261 . S
C345 H315 0.931 . S
C345 C342 1.357 . S
C345 C346 1.312 . S
C346 H317 0.930 . S
C346 C341 1.261 . S
C346 C345 1.312 . S
C347 O319 1.214 . S
C347 O327 1.234 . S
C348 H320 0.929 . S
C348 C351 1.391 . S
C348 C353 1.391 . S
C349 H321 0.929 . S
C349 C350 1.390 . S
C349 N352 1.391 . S
C350 H322 0.930 . S
C350 C349 1.390 . S
C350 C351 1.392 . S
C351 H323 0.929 . S
C351 C348 1.391 . S
C351 C350 1.392 . S
N352 Co296 2.257 . S
N352 C349 1.391 . S
N352 C353 1.388 . S
C353 H324 0.930 . S
C353 C348 1.391 . S
C353 N352 1.388 . S
Co354 O356 2.143 . S
Co354 O362 2.074 . S
Co354 O365 2.093 . S
Co354 O378 2.097 . S
Co354 N395 2.151 . S
Co354 N403 2.214 . S
Co355 O356 2.160 . S
Co355 O361 2.058 . S
Co355 O371 2.057 . S
Co355 O386 2.037 . S
Co355 N390 2.145 . S
Co355 N411 2.257 . S
O356 Co354 2.143 . S
O356 Co355 2.160 . S
C357 O358 1.278 . S
C357 O365 1.224 . S
O358 C357 1.278 . S
C359 O360 1.245 . S
C359 O371 1.232 . S
O360 C359 1.245 . S
O361 Co355 2.058 . S
O361 C387 1.269 . S
O362 Co354 2.074 . S
O362 C387 1.257 . S
H363 C388 0.930 . S
H364 C394 0.930 . S
O365 Co354 2.093 . S
O365 C357 1.224 . S
H366 C398 0.929 . S
H367 C400 0.930 . S
H368 C401 0.930 . S
H369 C399 0.929 . S
H370 C402 0.928 . S
O371 Co355 2.057 . S
O371 C359 1.232 . S
H372 C391 0.929 . S
H373 C392 0.929 . S
H374 C404 0.931 . S
H375 C396 0.929 . S
H376 C405 0.930 . S
H377 C397 0.931 . S
O378 Co354 2.097 . S
O378 C406 1.214 . S
H379 C407 0.929 . S
H380 C408 0.929 . S
H381 C409 0.930 . S
H382 C410 0.929 . S
H383 C412 0.930 . S
H384 C389 0.930 . S
H385 C393 0.930 . S
O386 Co355 2.037 . S
O386 C406 1.234 . S
C387 O361 1.269 . S
C387 O362 1.257 . S
C388 H363 0.930 . S
C388 C391 1.388 . S
C388 C393 1.418 . S
C389 H384 0.930 . S
C389 C392 1.404 . S
C389 C393 1.353 . S
N390 Co355 2.145 . S
N390 C391 1.397 . S
N390 C392 1.334 . S
C391 H372 0.929 . S
C391 C388 1.388 . S
C391 N390 1.397 . S
C392 H373 0.929 . S
C392 C389 1.404 . S
C392 N390 1.334 . S
C393 H385 0.930 . S
C393 C388 1.418 . S
C393 C389 1.353 . S
C394 H364 0.930 . S
C394 N395 1.330 . S
C394 C396 1.446 . S
N395 Co354 2.151 . S
N395 C394 1.330 . S
N395 C399 1.418 . S
C396 H375 0.929 . S
C396 C394 1.446 . S
C396 C397 1.332 . S
C397 H377 0.931 . S
C397 C396 1.332 . S
C397 C398 1.267 . S
C398 H366 0.929 . S
C398 C397 1.267 . S
C398 C399 1.251 . S
C399 H369 0.929 . S
C399 N395 1.418 . S
C399 C398 1.251 . S
C400 H367 0.930 . S
C400 C402 1.406 . S
C400 C405 1.261 . S
C401 H368 0.930 . S
C401 N403 1.325 . S
C401 C404 1.357 . S
C402 H370 0.928 . S
C402 C400 1.406 . S
C402 N403 1.261 . S
N403 Co354 2.214 . S
N403 C401 1.325 . S
N403 C402 1.261 . S
C404 H374 0.931 . S
C404 C401 1.357 . S
C404 C405 1.312 . S
C405 H376 0.930 . S
C405 C400 1.261 . S
C405 C404 1.312 . S
C406 O378 1.214 . S
C406 O386 1.234 . S
C407 H379 0.929 . S
C407 C410 1.391 . S
C407 C412 1.391 . S
C408 H380 0.929 . S
C408 C409 1.390 . S
C408 N411 1.391 . S
C409 H381 0.930 . S
C409 C408 1.390 . S
C409 C410 1.392 . S
C410 H382 0.929 . S
C410 C407 1.391 . S
C410 C409 1.392 . S
N411 Co355 2.257 . S
N411 C408 1.391 . S
N411 C412 1.388 . S
C412 H383 0.930 . S
C412 C407 1.391 . S
C412 N411 1.388 . S
Co413 O415 2.143 . S
Co413 O421 2.074 . S
Co413 O424 2.093 . S
Co413 O437 2.097 . S
Co413 N454 2.151 . S
Co413 N462 2.214 . S
Co414 O415 2.160 . S
Co414 O420 2.058 . S
Co414 O430 2.057 . S
Co414 O445 2.037 . S
Co414 N449 2.145 . S
Co414 N470 2.257 . S
O415 Co413 2.143 . S
O415 Co414 2.160 . S
C416 O417 1.278 . S
C416 O424 1.224 . S
O417 C416 1.278 . S
C418 O419 1.245 . S
C418 O430 1.232 . S
O419 C418 1.245 . S
O420 Co414 2.058 . S
O420 C446 1.269 . S
O421 Co413 2.074 . S
O421 C446 1.257 . S
H422 C447 0.930 . S
H423 C453 0.930 . S
O424 Co413 2.093 . S
O424 C416 1.224 . S
H425 C457 0.929 . S
H426 C459 0.930 . S
H427 C460 0.930 . S
H428 C458 0.929 . S
H429 C461 0.928 . S
O430 Co414 2.057 . S
O430 C418 1.232 . S
H431 C450 0.929 . S
H432 C451 0.929 . S
H433 C463 0.931 . S
H434 C455 0.929 . S
H435 C464 0.930 . S
H436 C456 0.931 . S
O437 Co413 2.097 . S
O437 C465 1.214 . S
H438 C466 0.929 . S
H439 C467 0.929 . S
H440 C468 0.930 . S
H441 C469 0.929 . S
H442 C471 0.930 . S
H443 C448 0.930 . S
H444 C452 0.930 . S
O445 Co414 2.037 . S
O445 C465 1.234 . S
C446 O420 1.269 . S
C446 O421 1.257 . S
C447 H422 0.930 . S
C447 C450 1.388 . S
C447 C452 1.418 . S
C448 H443 0.930 . S
C448 C451 1.404 . S
C448 C452 1.353 . S
N449 Co414 2.145 . S
N449 C450 1.397 . S
N449 C451 1.334 . S
C450 H431 0.929 . S
C450 C447 1.388 . S
C450 N449 1.397 . S
C451 H432 0.929 . S
C451 C448 1.404 . S
C451 N449 1.334 . S
C452 H444 0.930 . S
C452 C447 1.418 . S
C452 C448 1.353 . S
C453 H423 0.930 . S
C453 N454 1.330 . S
C453 C455 1.446 . S
N454 Co413 2.151 . S
N454 C453 1.330 . S
N454 C458 1.418 . S
C455 H434 0.929 . S
C455 C453 1.446 . S
C455 C456 1.332 . S
C456 H436 0.931 . S
C456 C455 1.332 . S
C456 C457 1.267 . S
C457 H425 0.929 . S
C457 C456 1.267 . S
C457 C458 1.251 . S
C458 H428 0.929 . S
C458 N454 1.418 . S
C458 C457 1.251 . S
C459 H426 0.930 . S
C459 C461 1.406 . S
C459 C464 1.261 . S
C460 H427 0.930 . S
C460 N462 1.325 . S
C460 C463 1.357 . S
C461 H429 0.928 . S
C461 C459 1.406 . S
C461 N462 1.261 . S
N462 Co413 2.214 . S
N462 C460 1.325 . S
N462 C461 1.261 . S
C463 H433 0.931 . S
C463 C460 1.357 . S
C463 C464 1.312 . S
C464 H435 0.930 . S
C464 C459 1.261 . S
C464 C463 1.312 . S
C465 O437 1.214 . S
C465 O445 1.234 . S
C466 H438 0.929 . S
C466 C469 1.391 . S
C466 C471 1.391 . S
C467 H439 0.929 . S
C467 C468 1.390 . S
C467 N470 1.391 . S
C468 H440 0.930 . S
C468 C467 1.390 . S
C468 C469 1.392 . S
C469 H441 0.929 . S
C469 C466 1.391 . S
C469 C468 1.392 . S
N470 Co414 2.257 . S
N470 C467 1.391 . S
N470 C471 1.388 . S
C471 H442 0.930 . S
C471 C466 1.391 . S
C471 N470 1.388 . S
Co472 O474 2.143 . S
Co472 O480 2.074 . S
Co472 O483 2.093 . S
Co472 O496 2.097 . S
Co472 N513 2.151 . S
Co472 N521 2.214 . S
Co473 O474 2.160 . S
Co473 O479 2.058 . S
Co473 O489 2.057 . S
Co473 O504 2.037 . S
Co473 N508 2.145 . S
Co473 N529 2.257 . S
O474 Co472 2.143 . S
O474 Co473 2.160 . S
C475 O476 1.278 . S
C475 O483 1.224 . S
O476 C475 1.278 . S
C477 O478 1.245 . S
C477 O489 1.232 . S
O478 C477 1.245 . S
O479 Co473 2.058 . S
O479 C505 1.269 . S
O480 Co472 2.074 . S
O480 C505 1.257 . S
H481 C506 0.930 . S
H482 C512 0.930 . S
O483 Co472 2.093 . S
O483 C475 1.224 . S
H484 C516 0.929 . S
H485 C518 0.930 . S
H486 C519 0.930 . S
H487 C517 0.929 . S
H488 C520 0.928 . S
O489 Co473 2.057 . S
O489 C477 1.232 . S
H490 C509 0.929 . S
H491 C510 0.929 . S
H492 C522 0.931 . S
H493 C514 0.929 . S
H494 C523 0.930 . S
H495 C515 0.931 . S
O496 Co472 2.097 . S
O496 C524 1.214 . S
H497 C525 0.929 . S
H498 C526 0.929 . S
H499 C527 0.930 . S
H500 C528 0.929 . S
H501 C530 0.930 . S
H502 C507 0.930 . S
H503 C511 0.930 . S
O504 Co473 2.037 . S
O504 C524 1.234 . S
C505 O479 1.269 . S
C505 O480 1.257 . S
C506 H481 0.930 . S
C506 C509 1.388 . S
C506 C511 1.418 . S
C507 H502 0.930 . S
C507 C510 1.404 . S
C507 C511 1.353 . S
N508 Co473 2.145 . S
N508 C509 1.397 . S
N508 C510 1.334 . S
C509 H490 0.929 . S
C509 C506 1.388 . S
C509 N508 1.397 . S
C510 H491 0.929 . S
C510 C507 1.404 . S
C510 N508 1.334 . S
C511 H503 0.930 . S
C511 C506 1.418 . S
C511 C507 1.353 . S
C512 H482 0.930 . S
C512 N513 1.330 . S
C512 C514 1.446 . S
N513 Co472 2.151 . S
N513 C512 1.330 . S
N513 C517 1.418 . S
C514 H493 0.929 . S
C514 C512 1.446 . S
C514 C515 1.332 . S
C515 H495 0.931 . S
C515 C514 1.332 . S
C515 C516 1.267 . S
C516 H484 0.929 . S
C516 C515 1.267 . S
C516 C517 1.251 . S
C517 H487 0.929 . S
C517 N513 1.418 . S
C517 C516 1.251 . S
C518 H485 0.930 . S
C518 C520 1.406 . S
C518 C523 1.261 . S
C519 H486 0.930 . S
C519 N521 1.325 . S
C519 C522 1.357 . S
C520 H488 0.928 . S
C520 C518 1.406 . S
C520 N521 1.261 . S
N521 Co472 2.214 . S
N521 C519 1.325 . S
N521 C520 1.261 . S
C522 H492 0.931 . S
C522 C519 1.357 . S
C522 C523 1.312 . S
C523 H494 0.930 . S
C523 C518 1.261 . S
C523 C522 1.312 . S
C524 O496 1.214 . S
C524 O504 1.234 . S
C525 H497 0.929 . S
C525 C528 1.391 . S
C525 C530 1.391 . S
C526 H498 0.929 . S
C526 C527 1.390 . S
C526 N529 1.391 . S
C527 H499 0.930 . S
C527 C526 1.390 . S
C527 C528 1.392 . S
C528 H500 0.929 . S
C528 C525 1.391 . S
C528 C527 1.392 . S
N529 Co473 2.257 . S
N529 C526 1.391 . S
N529 C530 1.388 . S
C530 H501 0.930 . S
C530 C525 1.391 . S
C530 N529 1.388 . S
Co531 O533 2.143 . S
Co531 O539 2.074 . S
Co531 O542 2.093 . S
Co531 O555 2.097 . S
Co531 N572 2.151 . S
Co531 N580 2.214 . S
Co532 O533 2.160 . S
Co532 O538 2.058 . S
Co532 O548 2.057 . S
Co532 O563 2.037 . S
Co532 N567 2.145 . S
Co532 N588 2.257 . S
O533 Co531 2.143 . S
O533 Co532 2.160 . S
C534 O535 1.278 . S
C534 O542 1.224 . S
O535 C534 1.278 . S
C536 O537 1.245 . S
C536 O548 1.232 . S
O537 C536 1.245 . S
O538 Co532 2.058 . S
O538 C564 1.269 . S
O539 Co531 2.074 . S
O539 C564 1.257 . S
H540 C565 0.930 . S
H541 C571 0.930 . S
O542 Co531 2.093 . S
O542 C534 1.224 . S
H543 C575 0.929 . S
H544 C577 0.930 . S
H545 C578 0.930 . S
H546 C576 0.929 . S
H547 C579 0.928 . S
O548 Co532 2.057 . S
O548 C536 1.232 . S
H549 C568 0.929 . S
H550 C569 0.929 . S
H551 C581 0.931 . S
H552 C573 0.929 . S
H553 C582 0.930 . S
H554 C574 0.931 . S
O555 Co531 2.097 . S
O555 C583 1.214 . S
H556 C584 0.929 . S
H557 C585 0.929 1_554 S
H558 C586 0.930 1_554 S
H559 C587 0.929 . S
H560 C589 0.930 . S
H561 C566 0.930 . S
H562 C570 0.930 . S
O563 Co532 2.037 . S
O563 C583 1.234 . S
C564 O538 1.269 . S
C564 O539 1.257 . S
C565 H540 0.930 . S
C565 C568 1.388 . S
C565 C570 1.418 . S
C566 H561 0.930 . S
C566 C569 1.404 1_554 S
C566 C570 1.353 . S
N567 Co532 2.145 . S
N567 C568 1.397 1_556 S
N567 C569 1.334 . S
C568 H549 0.929 . S
C568 C565 1.388 . S
C568 N567 1.397 1_554 S
C569 H550 0.929 . S
C569 C566 1.404 1_556 S
C569 N567 1.334 . S
C570 H562 0.930 . S
C570 C565 1.418 . S
C570 C566 1.353 . S
C571 H541 0.930 . S
C571 N572 1.330 . S
C571 C573 1.446 . S
N572 Co531 2.151 . S
N572 C571 1.330 . S
N572 C576 1.418 . S
C573 H552 0.929 . S
C573 C571 1.446 . S
C573 C574 1.332 . S
C574 H554 0.931 . S
C574 C573 1.332 . S
C574 C575 1.267 . S
C575 H543 0.929 . S
C575 C574 1.267 . S
C575 C576 1.251 . S
C576 H546 0.929 . S
C576 N572 1.418 . S
C576 C575 1.251 . S
C577 H544 0.930 . S
C577 C579 1.406 . S
C577 C582 1.261 . S
C578 H545 0.930 . S
C578 N580 1.325 . S
C578 C581 1.357 . S
C579 H547 0.928 . S
C579 C577 1.406 . S
C579 N580 1.261 . S
N580 Co531 2.214 . S
N580 C578 1.325 . S
N580 C579 1.261 . S
C581 H551 0.931 . S
C581 C578 1.357 . S
C581 C582 1.312 . S
C582 H553 0.930 . S
C582 C577 1.261 . S
C582 C581 1.312 . S
C583 O555 1.214 . S
C583 O563 1.234 . S
C584 H556 0.929 . S
C584 C587 1.391 . S
C584 C589 1.391 . S
C585 H557 0.929 1_556 S
C585 C586 1.390 . S
C585 N588 1.391 . S
C586 H558 0.930 1_556 S
C586 C585 1.390 . S
C586 C587 1.392 . S
C587 H559 0.929 . S
C587 C584 1.391 . S
C587 C586 1.392 . S
N588 Co532 2.257 . S
N588 C585 1.391 . S
N588 C589 1.388 . S
C589 H560 0.930 . S
C589 C584 1.391 . S
C589 N588 1.388 . S
Co590 O592 2.143 . S
Co590 O598 2.074 . S
Co590 O601 2.093 . S
Co590 O614 2.097 . S
Co590 N631 2.151 1_554 S
Co590 N639 2.214 . S
Co591 O592 2.160 . S
Co591 O597 2.058 . S
Co591 O607 2.057 . S
Co591 O622 2.037 . S
Co591 N626 2.145 . S
Co591 N647 2.257 . S
O592 Co590 2.143 . S
O592 Co591 2.160 . S
C593 O594 1.278 1_556 S
C593 O601 1.224 1_556 S
O594 C593 1.278 1_554 S
C595 O596 1.245 . S
C595 O607 1.232 . S
O596 C595 1.245 . S
O597 Co591 2.058 . S
O597 C623 1.269 . S
O598 Co590 2.074 . S
O598 C623 1.257 . S
H599 C624 0.930 . S
H600 C630 0.930 . S
O601 Co590 2.093 . S
O601 C593 1.224 1_554 S
H602 C634 0.929 . S
H603 C636 0.930 . S
H604 C637 0.930 . S
H605 C635 0.929 1_554 S
H606 C638 0.918 1_556 S
O607 Co591 2.057 . S
O607 C595 1.232 . S
H608 C627 0.929 . S
H609 C628 0.929 . S
H610 C640 0.931 . S
H611 C632 0.929 . S
H612 C641 0.930 . S
H613 C633 0.931 . S
O614 Co590 2.097 . S
O614 C642 1.214 . S
H615 C643 0.929 . S
H616 C644 0.929 . S
H617 C645 0.930 . S
H618 C646 0.929 . S
H619 C648 0.930 . S
H620 C625 0.930 . S
H621 C629 0.930 . S
O622 Co591 2.037 . S
O622 C642 1.234 . S
C623 O597 1.269 . S
C623 O598 1.257 . S
C624 H599 0.930 . S
C624 C627 1.388 . S
C624 C629 1.418 . S
C625 H620 0.930 . S
C625 C628 1.404 . S
C625 C629 1.353 . S
N626 Co591 2.145 . S
N626 C627 1.397 . S
N626 C628 1.334 . S
C627 H608 0.929 . S
C627 C624 1.388 . S
C627 N626 1.397 . S
C628 H609 0.929 . S
C628 C625 1.404 . S
C628 N626 1.334 . S
C629 H621 0.930 . S
C629 C624 1.418 . S
C629 C625 1.353 . S
C630 H600 0.930 . S
C630 N631 1.330 . S
C630 C632 1.446 . S
N631 Co590 2.151 1_556 S
N631 C630 1.330 . S
N631 C635 1.418 . S
C632 H611 0.929 . S
C632 C630 1.446 . S
C632 C633 1.332 . S
C633 H613 0.931 . S
C633 C632 1.332 . S
C633 C634 1.267 . S
C634 H602 0.929 . S
C634 C633 1.267 . S
C634 C635 1.251 . S
C635 H605 0.929 1_556 S
C635 N631 1.418 . S
C635 C634 1.251 . S
C636 H603 0.930 . S
C636 C638 1.406 . S
C636 C641 1.261 . S
C637 H604 0.930 . S
C637 N639 1.325 . S
C637 C640 1.357 . S
C638 H606 0.918 1_554 S
C638 C636 1.406 . S
C638 N639 1.261 . S
N639 Co590 2.214 . S
N639 C637 1.325 . S
N639 C638 1.261 . S
C640 H610 0.931 . S
C640 C637 1.357 . S
C640 C641 1.312 . S
C641 H612 0.930 . S
C641 C636 1.261 . S
C641 C640 1.312 . S
C642 O614 1.214 . S
C642 O622 1.234 . S
C643 H615 0.929 . S
C643 C646 1.391 . S
C643 C648 1.391 . S
C644 H616 0.929 . S
C644 C645 1.390 . S
C644 N647 1.391 . S
C645 H617 0.930 . S
C645 C644 1.390 . S
C645 C646 1.392 . S
C646 H618 0.929 . S
C646 C643 1.391 . S
C646 C645 1.392 . S
N647 Co591 2.257 . S
N647 C644 1.391 . S
N647 C648 1.388 . S
C648 H619 0.930 . S
C648 C643 1.391 . S
C648 N647 1.388 . S
Co649 O651 2.143 . S
Co649 O657 2.074 . S
Co649 O660 2.093 . S
Co649 O673 2.097 . S
Co649 N690 2.151 . S
Co649 N698 2.214 . S
Co650 O651 2.160 . S
Co650 O656 2.058 . S
Co650 O666 2.057 . S
Co650 O681 2.037 . S
Co650 N685 2.145 . S
Co650 N706 2.257 . S
O651 Co649 2.143 . S
O651 Co650 2.160 . S
C652 O653 1.278 . S
C652 O660 1.224 . S
O653 C652 1.278 . S
C654 O655 1.245 . S
C654 O666 1.232 . S
O655 C654 1.245 . S
O656 Co650 2.058 . S
O656 C682 1.269 . S
O657 Co649 2.074 . S
O657 C682 1.257 . S
H658 C683 0.930 . S
H659 C689 0.930 . S
O660 Co649 2.093 . S
O660 C652 1.224 . S
H661 C693 0.929 . S
H662 C695 0.930 . S
H663 C696 0.930 . S
H664 C694 0.929 . S
H665 C697 0.928 . S
O666 Co650 2.057 . S
O666 C654 1.232 . S
H667 C686 0.929 . S
H668 C687 0.929 . S
H669 C699 0.931 . S
H670 C691 0.929 . S
H671 C700 0.930 . S
H672 C692 0.931 . S
O673 Co649 2.097 . S
O673 C701 1.214 . S
H674 C702 0.929 . S
H675 C703 0.929 . S
H676 C704 0.930 . S
H677 C705 0.929 . S
H678 C707 0.930 . S
H679 C684 0.930 . S
H680 C688 0.930 . S
O681 Co650 2.037 . S
O681 C701 1.234 . S
C682 O656 1.269 . S
C682 O657 1.257 . S
C683 H658 0.930 . S
C683 C686 1.388 . S
C683 C688 1.418 . S
C684 H679 0.930 . S
C684 C687 1.404 . S
C684 C688 1.353 . S
N685 Co650 2.145 . S
N685 C686 1.397 . S
N685 C687 1.334 . S
C686 H667 0.929 . S
C686 C683 1.388 . S
C686 N685 1.397 . S
C687 H668 0.929 . S
C687 C684 1.404 . S
C687 N685 1.334 . S
C688 H680 0.930 . S
C688 C683 1.418 . S
C688 C684 1.353 . S
C689 H659 0.930 . S
C689 N690 1.330 . S
C689 C691 1.446 . S
N690 Co649 2.151 . S
N690 C689 1.330 . S
N690 C694 1.418 . S
C691 H670 0.929 . S
C691 C689 1.446 . S
C691 C692 1.332 . S
C692 H672 0.931 . S
C692 C691 1.332 . S
C692 C693 1.267 . S
C693 H661 0.929 . S
C693 C692 1.267 . S
C693 C694 1.251 . S
C694 H664 0.929 . S
C694 N690 1.418 . S
C694 C693 1.251 . S
C695 H662 0.930 . S
C695 C697 1.406 . S
C695 C700 1.261 . S
C696 H663 0.930 . S
C696 N698 1.325 . S
C696 C699 1.357 . S
C697 H665 0.928 . S
C697 C695 1.406 . S
C697 N698 1.261 . S
N698 Co649 2.214 . S
N698 C696 1.325 . S
N698 C697 1.261 . S
C699 H669 0.931 . S
C699 C696 1.357 . S
C699 C700 1.312 . S
C700 H671 0.930 . S
C700 C695 1.261 . S
C700 C699 1.312 . S
C701 O673 1.214 . S
C701 O681 1.234 . S
C702 H674 0.929 . S
C702 C705 1.391 . S
C702 C707 1.391 . S
C703 H675 0.929 . S
C703 C704 1.390 . S
C703 N706 1.391 . S
C704 H676 0.930 . S
C704 C703 1.390 . S
C704 C705 1.392 . S
C705 H677 0.929 . S
C705 C702 1.391 . S
C705 C704 1.392 . S
N706 Co650 2.257 . S
N706 C703 1.391 . S
N706 C707 1.388 . S
C707 H678 0.930 . S
C707 C702 1.391 . S
C707 N706 1.388 . S
H708 C726 0.951 1_556 S
H709 C728 0.951 . S
H710 C730 0.950 . S
H711 C731 0.950 . S
H712 C733 0.950 . S
H713 C736 0.950 . S
H714 C737 0.950 . S
H715 C739 0.950 . S
H716 C740 0.950 . S
H717 C741 0.951 . S
H718 C743 0.951 . S
H719 C745 0.950 . S
H720 C746 0.950 . S
H721 C748 0.950 . S
H722 C751 0.950 . S
H723 C752 0.950 . S
H724 C754 0.950 . S
H725 C755 0.950 . S
C726 H708 0.951 1_554 S
C726 C727 1.366 . S
C726 C728 1.388 . S
C727 C726 1.366 . S
C727 C731 1.385 . S
C728 H709 0.951 . S
C728 C726 1.388 . S
C728 C729 1.366 . S
C729 C728 1.366 . S
C729 C730 1.414 . S
C729 C732 1.499 . S
C730 H710 0.950 . S
C730 C729 1.414 . S
C730 C731 1.374 . S
C731 H711 0.950 . S
C731 C727 1.385 . S
C731 C730 1.374 . S
C732 C729 1.499 . S
C732 C733 1.373 . S
C732 C734 1.389 . S
C733 H712 0.950 . S
C733 C732 1.373 . S
C733 C749 1.377 . S
C734 C732 1.389 . S
C734 C735 1.524 . S
C734 C748 1.377 . S
C735 C734 1.524 . S
C735 C736 1.397 . S
C735 C740 1.363 . S
C736 H713 0.950 . S
C736 C735 1.397 . S
C736 C737 1.334 . S
C737 H714 0.950 . S
C737 C736 1.334 . S
C737 C738 1.287 . S
C738 C737 1.287 . S
C738 C739 1.524 . S
C738 H757 0.913 . S
C739 H715 0.950 . S
C739 C738 1.524 . S
C739 C740 1.415 . S
C740 H716 0.950 . S
C740 C735 1.363 . S
C740 C739 1.415 . S
C741 H717 0.951 . S
C741 C742 1.366 . S
C741 C743 1.388 . S
C742 C741 1.366 . S
C742 C746 1.385 . S
C743 H718 0.951 . S
C743 C741 1.388 . S
C743 C744 1.366 . S
C744 C743 1.366 . S
C744 C745 1.414 . S
C744 C747 1.499 . S
C745 H719 0.950 . S
C745 C744 1.414 . S
C745 C746 1.374 . S
C746 H720 0.950 . S
C746 C742 1.385 . S
C746 C745 1.374 . S
C747 C744 1.499 . S
C747 C748 1.373 . S
C747 C749 1.389 . S
C748 H721 0.950 . S
C748 C734 1.377 . S
C748 C747 1.373 . S
C749 C733 1.377 . S
C749 C747 1.389 . S
C749 C750 1.524 . S
C750 C749 1.524 . S
C750 C751 1.397 . S
C750 C755 1.363 . S
C751 H722 0.950 . S
C751 C750 1.397 . S
C751 C752 1.334 . S
C752 H723 0.950 . S
C752 C751 1.334 . S
C752 C753 1.287 . S
C753 C752 1.287 . S
C753 C754 1.524 . S
C753 H756 0.999 . S
C754 H724 0.950 . S
C754 C753 1.524 . S
C754 C755 1.415 . S
C755 H725 0.950 . S
C755 C750 1.363 . S
C755 C754 1.415 . S
H756 C753 0.999 . S
H757 C738 0.913 . S
H758 C776 0.951 . S
H759 C778 0.951 . S
H760 C780 0.950 . S
H761 C781 0.950 . S
H762 C783 0.950 . S
H763 C786 0.950 . S
H764 C787 0.950 . S
H765 C789 0.950 . S
H766 C790 0.950 . S
H767 C791 0.951 . S
H768 C793 0.951 . S
H769 C795 0.950 . S
H770 C796 0.950 . S
H771 C798 0.950 . S
H772 C801 0.950 . S
H773 C802 0.950 . S
H774 C804 0.950 . S
H775 C805 0.950 . S
C776 H758 0.951 . S
C776 C777 1.366 . S
C776 C778 1.388 . S
C777 C776 1.366 . S
C777 C781 1.385 . S
C778 H759 0.951 . S
C778 C776 1.388 . S
C778 C779 1.366 . S
C779 C778 1.366 . S
C779 C780 1.414 . S
C779 C782 1.499 . S
C780 H760 0.950 . S
C780 C779 1.414 . S
C780 C781 1.374 . S
C781 H761 0.950 . S
C781 C777 1.385 . S
C781 C780 1.374 . S
C782 C779 1.499 . S
C782 C783 1.373 1_455 S
C782 C784 1.389 . S
C783 H762 0.950 . S
C783 C782 1.373 1_655 S
C783 C799 1.377 . S
C784 C782 1.389 . S
C784 C785 1.524 . S
C784 C798 1.377 . S
C785 C784 1.524 . S
C785 C786 1.397 . S
C785 C790 1.363 . S
C786 H763 0.950 . S
C786 C785 1.397 . S
C786 C787 1.334 . S
C787 H764 0.950 . S
C787 C786 1.334 . S
C787 C788 1.287 . S
C788 C787 1.287 . S
C788 C789 1.524 . S
C788 H807 0.913 . S
C789 H765 0.950 . S
C789 C788 1.524 . S
C789 C790 1.415 . S
C790 H766 0.950 . S
C790 C785 1.363 . S
C790 C789 1.415 . S
C791 H767 0.951 . S
C791 C792 1.366 . S
C791 C793 1.388 . S
C792 C791 1.366 . S
C792 C796 1.385 . S
C793 H768 0.951 . S
C793 C791 1.388 . S
C793 C794 1.366 . S
C794 C793 1.366 . S
C794 C795 1.414 . S
C794 C797 1.499 . S
C795 H769 0.950 . S
C795 C794 1.414 . S
C795 C796 1.374 . S
C796 H770 0.950 . S
C796 C792 1.385 . S
C796 C795 1.374 . S
C797 C794 1.499 . S
C797 C798 1.373 1_655 S
C797 C799 1.389 . S
C798 H771 0.950 . S
C798 C784 1.377 . S
C798 C797 1.373 1_455 S
C799 C783 1.377 . S
C799 C797 1.389 . S
C799 C800 1.524 . S
C800 C799 1.524 . S
C800 C801 1.397 . S
C800 C805 1.363 . S
C801 H772 0.950 . S
C801 C800 1.397 . S
C801 C802 1.334 . S
C802 H773 0.950 . S
C802 C801 1.334 . S
C802 C803 1.287 . S
C803 C802 1.287 . S
C803 C804 1.524 . S
C803 H806 0.999 . S
C804 H774 0.950 . S
C804 C803 1.524 . S
C804 C805 1.415 . S
C805 H775 0.950 . S
C805 C800 1.363 . S
C805 C804 1.415 . S
H806 C803 0.999 . S
H807 C788 0.913 . S
H808 C826 0.951 . S
H809 C828 0.951 . S
H810 C830 0.950 . S
H811 C831 0.950 . S
H812 C833 0.950 . S
H813 C836 0.950 . S
H814 C837 0.950 1_565 S
H815 C839 0.950 . S
H816 C840 0.950 . S
H817 C841 0.951 . S
H818 C843 0.951 . S
H819 C845 0.950 . S
H820 C846 0.950 . S
H821 C848 0.950 . S
H822 C851 0.950 . S
H823 C852 0.950 1_545 S
H824 C854 0.950 . S
H825 C855 0.950 . S
C826 H808 0.951 . S
C826 C827 1.366 . S
C826 C828 1.388 . S
C827 C826 1.366 . S
C827 C831 1.385 . S
C828 H809 0.951 . S
C828 C826 1.388 . S
C828 C829 1.366 . S
C829 C828 1.366 . S
C829 C830 1.414 . S
C829 C832 1.499 . S
C830 H810 0.950 . S
C830 C829 1.414 . S
C830 C831 1.374 . S
C831 H811 0.950 . S
C831 C827 1.385 . S
C831 C830 1.374 . S
C832 C829 1.499 . S
C832 C833 1.373 . S
C832 C834 1.389 1_565 S
C833 H812 0.950 . S
C833 C832 1.373 . S
C833 C849 1.377 . S
C834 C832 1.389 1_545 S
C834 C835 1.524 . S
C834 C848 1.377 . S
C835 C834 1.524 . S
C835 C836 1.397 1_545 S
C835 C840 1.363 . S
C836 H813 0.950 . S
C836 C835 1.397 1_565 S
C836 C837 1.334 1_565 S
C837 H814 0.950 1_545 S
C837 C836 1.334 1_545 S
C837 C838 1.287 . S
C838 C837 1.287 . S
C838 C839 1.524 . S
C838 H857 0.913 . S
C839 H815 0.950 . S
C839 C838 1.524 . S
C839 C840 1.415 . S
C840 H816 0.950 . S
C840 C835 1.363 . S
C840 C839 1.415 . S
C841 H817 0.951 . S
C841 C842 1.366 . S
C841 C843 1.388 . S
C842 C841 1.366 . S
C842 C846 1.385 . S
C843 H818 0.951 . S
C843 C841 1.388 . S
C843 C844 1.366 . S
C844 C843 1.366 . S
C844 C845 1.414 . S
C844 C847 1.499 . S
C845 H819 0.950 . S
C845 C844 1.414 . S
C845 C846 1.374 . S
C846 H820 0.950 . S
C846 C842 1.385 . S
C846 C845 1.374 . S
C847 C844 1.499 . S
C847 C848 1.373 . S
C847 C849 1.389 1_545 S
C848 H821 0.950 . S
C848 C834 1.377 . S
C848 C847 1.373 . S
C849 C833 1.377 . S
C849 C847 1.389 1_565 S
C849 C850 1.524 . S
C850 C849 1.524 . S
C850 C851 1.397 1_565 S
C850 C855 1.363 . S
C851 H822 0.950 . S
C851 C850 1.397 1_545 S
C851 C852 1.334 1_545 S
C852 H823 0.950 1_565 S
C852 C851 1.334 1_565 S
C852 C853 1.287 . S
C853 C852 1.287 . S
C853 C854 1.524 . S
C853 H856 0.999 . S
C854 H824 0.950 . S
C854 C853 1.524 . S
C854 C855 1.415 . S
C855 H825 0.950 . S
C855 C850 1.363 . S
C855 C854 1.415 . S
H856 C853 0.999 . S
H857 C838 0.913 . S
H858 C876 0.951 . S
H859 C878 0.951 . S
H860 C880 0.950 . S
H861 C881 0.950 . S
H862 C883 0.950 . S
H863 C886 0.950 . S
H864 C887 0.950 . S
H865 C889 0.950 . S
H866 C890 0.950 . S
H867 C891 0.951 . S
H868 C893 0.951 . S
H869 C895 0.950 . S
H870 C896 0.950 . S
H871 C898 0.950 . S
H872 C901 0.950 . S
H873 C902 0.950 . S
H874 C904 0.950 . S
H875 C905 0.950 . S
C876 H858 0.951 . S
C876 C877 1.366 . S
C876 C878 1.388 . S
C877 C876 1.366 . S
C877 C881 1.385 . S
C878 H859 0.951 . S
C878 C876 1.388 . S
C878 C879 1.366 . S
C879 C878 1.366 . S
C879 C880 1.414 . S
C879 C882 1.499 . S
C880 H860 0.950 . S
C880 C879 1.414 . S
C880 C881 1.374 . S
C881 H861 0.950 . S
C881 C877 1.385 . S
C881 C880 1.374 . S
C882 C879 1.499 . S
C882 C883 1.373 . S
C882 C884 1.389 . S
C883 H862 0.950 . S
C883 C882 1.373 . S
C883 C899 1.377 . S
C884 C882 1.389 . S
C884 C885 1.524 . S
C884 C898 1.377 . S
C885 C884 1.524 . S
C885 C886 1.397 . S
C885 C890 1.363 . S
C886 H863 0.950 . S
C886 C885 1.397 . S
C886 C887 1.334 . S
C887 H864 0.950 . S
C887 C886 1.334 . S
C887 C888 1.287 . S
C888 C887 1.287 . S
C888 C889 1.524 . S
C888 H907 0.913 . S
C889 H865 0.950 . S
C889 C888 1.524 . S
C889 C890 1.415 . S
C890 H866 0.950 . S
C890 C885 1.363 . S
C890 C889 1.415 . S
C891 H867 0.951 . S
C891 C892 1.366 . S
C891 C893 1.388 . S
C892 C891 1.366 . S
C892 C896 1.385 . S
C893 H868 0.951 . S
C893 C891 1.388 . S
C893 C894 1.366 . S
C894 C893 1.366 . S
C894 C895 1.414 . S
C894 C897 1.499 . S
C895 H869 0.950 . S
C895 C894 1.414 . S
C895 C896 1.374 . S
C896 H870 0.950 . S
C896 C892 1.385 . S
C896 C895 1.374 . S
C897 C894 1.499 . S
C897 C898 1.373 . S
C897 C899 1.389 . S
C898 H871 0.950 . S
C898 C884 1.377 . S
C898 C897 1.373 . S
C899 C883 1.377 . S
C899 C897 1.389 . S
C899 C900 1.524 . S
C900 C899 1.524 . S
C900 C901 1.397 . S
C900 C905 1.363 . S
C901 H872 0.950 . S
C901 C900 1.397 . S
C901 C902 1.334 . S
C902 H873 0.950 . S
C902 C901 1.334 . S
C902 C903 1.287 . S
C903 C902 1.287 . S
C903 C904 1.524 . S
C903 H906 0.999 . S
C904 H874 0.950 . S
C904 C903 1.524 . S
C904 C905 1.415 . S
C905 H875 0.950 . S
C905 C900 1.363 . S
C905 C904 1.415 . S
H906 C903 0.999 . S
H907 C888 0.913 . S
H908 C926 0.951 . S
H909 C928 0.951 . S
H910 C930 0.950 . S
H911 C931 0.950 . S
H912 C933 0.950 . S
H913 C936 0.950 . S
H914 C937 0.950 . S
H915 C939 0.950 . S
H916 C940 0.950 . S
H917 C941 0.951 1_554 S
H918 C943 0.951 . S
H919 C945 0.950 . S
H920 C946 0.950 . S
H921 C948 0.950 . S
H922 C951 0.950 . S
H923 C952 0.950 . S
H924 C954 0.950 . S
H925 C955 0.950 . S
C926 H908 0.951 . S
C926 C927 1.366 . S
C926 C928 1.388 . S
C927 C926 1.366 . S
C927 C931 1.385 . S
C928 H909 0.951 . S
C928 C926 1.388 . S
C928 C929 1.366 . S
C929 C928 1.366 . S
C929 C930 1.414 . S
C929 C932 1.499 . S
C930 H910 0.950 . S
C930 C929 1.414 . S
C930 C931 1.374 . S
C931 H911 0.950 . S
C931 C927 1.385 . S
C931 C930 1.374 . S
C932 C929 1.499 . S
C932 C933 1.373 . S
C932 C934 1.389 1_455 S
C933 H912 0.950 . S
C933 C932 1.373 . S
C933 C949 1.377 . S
C934 C932 1.389 1_655 S
C934 C935 1.512 . S
C934 C948 1.377 . S
C935 C934 1.512 . S
C935 C936 1.384 1_655 S
C935 C940 1.389 . S
C936 H913 0.950 . S
C936 C935 1.384 1_455 S
C936 C937 1.334 . S
C937 H914 0.950 . S
C937 C936 1.334 . S
C937 C938 1.287 . S
C938 C937 1.287 . S
C938 C939 1.524 1_455 S
C938 H957 0.913 . S
C939 H915 0.950 . S
C939 C938 1.524 1_655 S
C939 C940 1.415 . S
C940 H916 0.950 . S
C940 C935 1.389 . S
C940 C939 1.415 . S
C941 H917 0.951 1_556 S
C941 C942 1.366 . S
C941 C943 1.388 . S
C942 C941 1.366 . S
C942 C946 1.385 . S
C943 H918 0.951 . S
C943 C941 1.388 . S
C943 C944 1.366 . S
C944 C943 1.366 . S
C944 C945 1.414 . S
C944 C947 1.499 . S
C945 H919 0.950 . S
C945 C944 1.414 . S
C945 C946 1.374 . S
C946 H920 0.950 . S
C946 C942 1.385 . S
C946 C945 1.374 . S
C947 C944 1.499 . S
C947 C948 1.373 . S
C947 C949 1.389 1_655 S
C948 H921 0.950 . S
C948 C934 1.377 . S
C948 C947 1.373 . S
C949 C933 1.377 . S
C949 C947 1.389 1_455 S
C949 C950 1.512 . S
C950 C949 1.512 . S
C950 C951 1.383 1_455 S
C950 C955 1.389 . S
C951 H922 0.950 . S
C951 C950 1.383 1_655 S
C951 C952 1.334 . S
C952 H923 0.950 . S
C952 C951 1.334 . S
C952 C953 1.287 . S
C953 C952 1.287 . S
C953 C954 1.524 1_655 S
C953 H956 0.999 . S
C954 H924 0.950 . S
C954 C953 1.524 1_455 S
C954 C955 1.415 . S
C955 H925 0.950 . S
C955 C950 1.389 . S
C955 C954 1.415 . S
H956 C953 0.999 . S
H957 C938 0.913 . S
H958 C976 0.951 . S
H959 C978 0.951 . S
H960 C980 0.950 . S
H961 C981 0.950 . S
H962 C983 0.950 . S
H963 C986 0.950 . S
H964 C987 0.950 . S
H965 C989 0.950 . S
H966 C990 0.950 . S
H967 C991 0.951 . S
H968 C993 0.951 . S
H969 C995 0.950 . S
H970 C996 0.950 . S
H971 C998 0.950 . S
H972 C1001 0.950 . S
H973 C1002 0.950 . S
H974 C1004 0.950 . S
H975 C1005 0.950 . S
C976 H958 0.951 . S
C976 C977 1.366 . S
C976 C978 1.388 . S
C977 C976 1.366 . S
C977 C981 1.385 . S
C978 H959 0.951 . S
C978 C976 1.388 . S
C978 C979 1.366 . S
C979 C978 1.366 . S
C979 C980 1.414 . S
C979 C982 1.499 . S
C980 H960 0.950 . S
C980 C979 1.414 . S
C980 C981 1.374 . S
C981 H961 0.950 . S
C981 C977 1.385 . S
C981 C980 1.374 . S
C982 C979 1.499 . S
C982 C983 1.373 1_556 S
C982 C984 1.389 1_545 S
C983 H962 0.950 . S
C983 C982 1.373 1_554 S
C983 C999 1.377 . S
C984 C982 1.389 1_565 S
C984 C985 1.524 . S
C984 C998 1.377 . S
C985 C984 1.524 . S
C985 C986 1.397 1_565 S
C985 C990 1.363 . S
C986 H963 0.950 . S
C986 C985 1.397 1_545 S
C986 C987 1.334 . S
C987 H964 0.950 . S
C987 C986 1.334 . S
C987 C988 1.287 1_545 S
C988 C987 1.287 1_565 S
C988 C989 1.524 . S
C988 H1007 0.913 . S
C989 H965 0.950 . S
C989 C988 1.524 . S
C989 C990 1.415 . S
C990 H966 0.950 . S
C990 C985 1.363 . S
C990 C989 1.415 . S
C991 H967 0.951 . S
C991 C992 1.366 . S
C991 C993 1.388 . S
C992 C991 1.366 . S
C992 C996 1.385 . S
C993 H968 0.951 . S
C993 C991 1.388 . S
C993 C994 1.366 . S
C994 C993 1.366 . S
C994 C995 1.414 . S
C994 C997 1.499 . S
C995 H969 0.950 . S
C995 C994 1.414 . S
C995 C996 1.374 . S
C996 H970 0.950 . S
C996 C992 1.385 . S
C996 C995 1.374 . S
C997 C994 1.499 . S
C997 C998 1.373 1_554 S
C997 C999 1.389 1_565 S
C998 H971 0.950 . S
C998 C984 1.377 . S
C998 C997 1.373 1_556 S
C999 C983 1.377 . S
C999 C997 1.389 1_545 S
C999 C1000 1.524 . S
C1000 C999 1.524 . S
C1000 C1001 1.397 1_545 S
C1000 C1005 1.363 . S
C1001 H972 0.950 . S
C1001 C1000 1.397 1_565 S
C1001 C1002 1.334 . S
C1002 H973 0.950 . S
C1002 C1001 1.334 . S
C1002 C1003 1.287 1_565 S
C1003 C1002 1.287 1_545 S
C1003 C1004 1.524 . S
C1003 H1006 0.999 . S
C1004 H974 0.950 . S
C1004 C1003 1.524 . S
C1004 C1005 1.415 . S
C1005 H975 0.950 . S
C1005 C1000 1.363 . S
C1005 C1004 1.415 . S
H1006 C1003 0.999 . S
H1007 C988 0.913 . S
H1008 C1026 0.951 . S
H1009 C1028 0.951 . S
H1010 C1030 0.950 . S
H1011 C1031 0.950 . S
H1012 C1033 0.950 . S
H1013 C1036 0.950 . S
H1014 C1037 0.950 . S
H1015 C1039 0.950 . S
H1016 C1040 0.950 . S
H1017 C1041 0.951 . S
H1018 C1043 0.951 . S
H1019 C1045 0.950 . S
H1020 C1046 0.950 . S
H1021 C1048 0.950 . S
H1022 C1051 0.950 . S
H1023 C1052 0.950 . S
H1024 C1054 0.950 . S
H1025 C1055 0.950 . S
C1026 H1008 0.951 . S
C1026 C1027 1.366 . S
C1026 C1028 1.388 . S
C1027 C1026 1.366 . S
C1027 C1031 1.385 . S
C1028 H1009 0.951 . S
C1028 C1026 1.388 . S
C1028 C1029 1.366 . S
C1029 C1028 1.366 . S
C1029 C1030 1.414 . S
C1029 C1032 1.499 . S
C1030 H1010 0.950 . S
C1030 C1029 1.414 . S
C1030 C1031 1.374 . S
C1031 H1011 0.950 . S
C1031 C1027 1.385 . S
C1031 C1030 1.374 . S
C1032 C1029 1.499 . S
C1032 C1033 1.373 . S
C1032 C1034 1.389 . S
C1033 H1012 0.950 . S
C1033 C1032 1.373 . S
C1033 C1049 1.377 . S
C1034 C1032 1.389 . S
C1034 C1035 1.524 . S
C1034 C1048 1.377 . S
C1035 C1034 1.524 . S
C1035 C1036 1.397 . S
C1035 C1040 1.363 . S
C1036 H1013 0.950 . S
C1036 C1035 1.397 . S
C1036 C1037 1.334 . S
C1037 H1014 0.950 . S
C1037 C1036 1.334 . S
C1037 C1038 1.287 . S
C1038 C1037 1.287 . S
C1038 C1039 1.524 . S
C1038 H1057 0.913 . S
C1039 H1015 0.950 . S
C1039 C1038 1.524 . S
C1039 C1040 1.415 . S
C1040 H1016 0.950 . S
C1040 C1035 1.363 . S
C1040 C1039 1.415 . S
C1041 H1017 0.951 . S
C1041 C1042 1.366 . S
C1041 C1043 1.388 . S
C1042 C1041 1.366 . S
C1042 C1046 1.385 . S
C1043 H1018 0.951 . S
C1043 C1041 1.388 . S
C1043 C1044 1.366 . S
C1044 C1043 1.366 . S
C1044 C1045 1.414 . S
C1044 C1047 1.499 . S
C1045 H1019 0.950 . S
C1045 C1044 1.414 . S
C1045 C1046 1.374 . S
C1046 H1020 0.950 . S
C1046 C1042 1.385 . S
C1046 C1045 1.374 . S
C1047 C1044 1.499 . S
C1047 C1048 1.373 . S
C1047 C1049 1.389 . S
C1048 H1021 0.950 . S
C1048 C1034 1.377 . S
C1048 C1047 1.373 . S
C1049 C1033 1.377 . S
C1049 C1047 1.389 . S
C1049 C1050 1.524 . S
C1050 C1049 1.524 . S
C1050 C1051 1.397 . S
C1050 C1055 1.363 . S
C1051 H1022 0.950 . S
C1051 C1050 1.397 . S
C1051 C1052 1.334 . S
C1052 H1023 0.950 . S
C1052 C1051 1.334 . S
C1052 C1053 1.287 . S
C1053 C1052 1.287 . S
C1053 C1054 1.524 . S
C1053 H1056 0.999 . S
C1054 H1024 0.950 . S
C1054 C1053 1.524 . S
C1054 C1055 1.415 . S
C1055 H1025 0.950 . S
C1055 C1050 1.363 . S
C1055 C1054 1.415 . S
H1056 C1053 0.999 . S
H1057 C1038 0.913 . S
H1058 C1076 0.951 . S
H1059 C1078 0.951 . S
H1060 C1080 0.950 . S
H1061 C1081 0.950 . S
H1062 C1083 0.950 . S
H1063 C1086 0.950 . S
H1064 C1087 0.950 . S
H1065 C1089 0.950 . S
H1066 C1090 0.950 . S
H1067 C1091 0.951 . S
H1068 C1093 0.951 . S
H1069 C1095 0.950 . S
H1070 C1096 0.950 . S
H1071 C1098 0.950 . S
H1072 C1101 0.950 . S
H1073 C1102 0.950 . S
H1074 C1104 0.950 . S
H1075 C1105 0.950 . S
C1076 H1058 0.951 . S
C1076 C1077 1.366 . S
C1076 C1078 1.388 . S
C1077 C1076 1.366 . S
C1077 C1081 1.385 . S
C1078 H1059 0.951 . S
C1078 C1076 1.388 . S
C1078 C1079 1.366 . S
C1079 C1078 1.366 . S
C1079 C1080 1.414 . S
C1079 C1082 1.499 . S
C1080 H1060 0.950 . S
C1080 C1079 1.414 . S
C1080 C1081 1.374 . S
C1081 H1061 0.950 . S
C1081 C1077 1.385 . S
C1081 C1080 1.374 . S
C1082 C1079 1.499 . S
C1082 C1083 1.373 . S
C1082 C1084 1.389 . S
C1083 H1062 0.950 . S
C1083 C1082 1.373 . S
C1083 C1099 1.377 . S
C1084 C1082 1.389 . S
C1084 C1085 1.524 . S
C1084 C1098 1.377 . S
C1085 C1084 1.524 . S
C1085 C1086 1.397 . S
C1085 C1090 1.363 . S
C1086 H1063 0.950 . S
C1086 C1085 1.397 . S
C1086 C1087 1.334 . S
C1087 H1064 0.950 . S
C1087 C1086 1.334 . S
C1087 C1088 1.287 . S
C1088 C1087 1.287 . S
C1088 C1089 1.524 . S
C1088 H1107 0.913 . S
C1089 H1065 0.950 . S
C1089 C1088 1.524 . S
C1089 C1090 1.415 . S
C1090 H1066 0.950 . S
C1090 C1085 1.363 . S
C1090 C1089 1.415 . S
C1091 H1067 0.951 . S
C1091 C1092 1.366 . S
C1091 C1093 1.388 . S
C1092 C1091 1.366 . S
C1092 C1096 1.385 . S
C1093 H1068 0.951 . S
C1093 C1091 1.388 . S
C1093 C1094 1.366 . S
C1094 C1093 1.366 . S
C1094 C1095 1.414 . S
C1094 C1097 1.499 . S
C1095 H1069 0.950 . S
C1095 C1094 1.414 . S
C1095 C1096 1.374 . S
C1096 H1070 0.950 . S
C1096 C1092 1.385 . S
C1096 C1095 1.374 . S
C1097 C1094 1.499 . S
C1097 C1098 1.373 . S
C1097 C1099 1.389 . S
C1098 H1071 0.950 . S
C1098 C1084 1.377 . S
C1098 C1097 1.373 . S
C1099 C1083 1.377 . S
C1099 C1097 1.389 . S
C1099 C1100 1.524 . S
C1100 C1099 1.524 . S
C1100 C1101 1.397 . S
C1100 C1105 1.363 . S
C1101 H1072 0.950 . S
C1101 C1100 1.397 . S
C1101 C1102 1.334 . S
C1102 H1073 0.950 . S
C1102 C1101 1.334 . S
C1102 C1103 1.287 . S
C1103 C1102 1.287 . S
C1103 C1104 1.524 . S
C1103 H1106 0.999 . S
C1104 H1074 0.950 . S
C1104 C1103 1.524 . S
C1104 C1105 1.415 . S
C1105 H1075 0.950 . S
C1105 C1100 1.363 . S
C1105 C1104 1.415 . S
H1106 C1103 0.999 . S
H1107 C1088 0.913 . S
H1108 C1126 0.951 . S
H1109 C1128 0.951 . S
H1110 C1130 0.950 . S
H1111 C1131 0.950 . S
H1112 C1133 0.950 . S
H1113 C1136 0.950 . S
H1114 C1137 0.950 . S
H1115 C1139 0.950 . S
H1116 C1140 0.950 . S
H1117 C1141 0.951 . S
H1118 C1143 0.951 . S
H1119 C1145 0.950 . S
H1120 C1146 0.950 . S
H1121 C1148 0.950 . S
H1122 C1151 0.950 . S
H1123 C1152 0.950 . S
H1124 C1154 0.950 . S
H1125 C1155 0.950 . S
C1126 H1108 0.951 . S
C1126 C1127 1.366 . S
C1126 C1128 1.388 . S
C1127 C1126 1.366 . S
C1127 C1131 1.385 . S
C1128 H1109 0.951 . S
C1128 C1126 1.388 . S
C1128 C1129 1.366 . S
C1129 C1128 1.366 . S
C1129 C1130 1.414 . S
C1129 C1132 1.499 . S
C1130 H1110 0.950 . S
C1130 C1129 1.414 . S
C1130 C1131 1.374 . S
C1131 H1111 0.950 . S
C1131 C1127 1.385 . S
C1131 C1130 1.374 . S
C1132 C1129 1.499 . S
C1132 C1133 1.373 . S
C1132 C1134 1.389 . S
C1133 H1112 0.950 . S
C1133 C1132 1.373 . S
C1133 C1149 1.377 . S
C1134 C1132 1.389 . S
C1134 C1135 1.524 . S
C1134 C1148 1.377 . S
C1135 C1134 1.524 . S
C1135 C1136 1.397 . S
C1135 C1140 1.363 . S
C1136 H1113 0.950 . S
C1136 C1135 1.397 . S
C1136 C1137 1.334 . S
C1137 H1114 0.950 . S
C1137 C1136 1.334 . S
C1137 C1138 1.287 . S
C1138 C1137 1.287 . S
C1138 C1139 1.524 . S
C1138 H1157 0.913 . S
C1139 H1115 0.950 . S
C1139 C1138 1.524 . S
C1139 C1140 1.415 . S
C1140 H1116 0.950 . S
C1140 C1135 1.363 . S
C1140 C1139 1.415 . S
C1141 H1117 0.951 . S
C1141 C1142 1.366 . S
C1141 C1143 1.388 . S
C1142 C1141 1.366 . S
C1142 C1146 1.385 . S
C1143 H1118 0.951 . S
C1143 C1141 1.388 . S
C1143 C1144 1.366 . S
C1144 C1143 1.366 . S
C1144 C1145 1.414 . S
C1144 C1147 1.499 . S
C1145 H1119 0.950 . S
C1145 C1144 1.414 . S
C1145 C1146 1.374 . S
C1146 H1120 0.950 . S
C1146 C1142 1.385 . S
C1146 C1145 1.374 . S
C1147 C1144 1.499 . S
C1147 C1148 1.373 . S
C1147 C1149 1.389 . S
C1148 H1121 0.950 . S
C1148 C1134 1.377 . S
C1148 C1147 1.373 . S
C1149 C1133 1.377 . S
C1149 C1147 1.389 . S
C1149 C1150 1.524 . S
C1150 C1149 1.524 . S
C1150 C1151 1.397 . S
C1150 C1155 1.363 . S
C1151 H1122 0.950 . S
C1151 C1150 1.397 . S
C1151 C1152 1.334 . S
C1152 H1123 0.950 . S
C1152 C1151 1.334 . S
C1152 C1153 1.287 . S
C1153 C1152 1.287 . S
C1153 C1154 1.524 . S
C1153 H1156 0.999 . S
C1154 H1124 0.950 . S
C1154 C1153 1.524 . S
C1154 C1155 1.415 . S
C1155 H1125 0.950 . S
C1155 C1150 1.363 . S
C1155 C1154 1.415 . S
H1156 C1153 0.999 . S
H1157 C1138 0.913 . S
H1158 C1176 0.951 . S
H1159 C1178 0.951 . S
H1160 C1180 0.950 . S
H1161 C1181 0.950 . S
H1162 C1183 0.950 . S
H1163 C1186 0.950 1_556 S
H1164 C1187 0.950 . S
H1165 C1189 0.950 . S
H1166 C1190 0.960 . S
H1167 C1191 0.951 . S
H1168 C1193 0.951 . S
H1169 C1195 0.950 . S
H1170 C1196 0.950 . S
H1171 C1198 0.950 . S
H1172 C1201 0.950 . S
H1173 C1202 0.950 . S
H1174 C1204 0.950 . S
H1175 C1205 0.950 . S
C1176 H1158 0.951 . S
C1176 C1177 1.366 . S
C1176 C1178 1.388 . S
C1177 C1176 1.366 . S
C1177 C1181 1.385 . S
C1178 H1159 0.951 . S
C1178 C1176 1.388 . S
C1178 C1179 1.366 . S
C1179 C1178 1.366 . S
C1179 C1180 1.414 . S
C1179 C1182 1.499 . S
C1180 H1160 0.950 . S
C1180 C1179 1.414 . S
C1180 C1181 1.374 . S
C1181 H1161 0.950 . S
C1181 C1177 1.385 . S
C1181 C1180 1.374 . S
C1182 C1179 1.499 . S
C1182 C1183 1.373 . S
C1182 C1184 1.389 . S
C1183 H1162 0.950 . S
C1183 C1182 1.373 . S
C1183 C1199 1.377 . S
C1184 C1182 1.389 . S
C1184 C1185 1.524 . S
C1184 C1198 1.377 . S
C1185 C1184 1.524 . S
C1185 C1186 1.397 1_556 S
C1185 C1190 1.363 1_556 S
C1186 H1163 0.950 1_554 S
C1186 C1185 1.397 1_554 S
C1186 C1187 1.334 . S
C1187 H1164 0.950 . S
C1187 C1186 1.334 . S
C1187 C1188 1.287 . S
C1188 C1187 1.287 . S
C1188 C1189 1.524 . S
C1188 H1207 0.913 . S
C1189 H1165 0.950 . S
C1189 C1188 1.524 . S
C1189 C1190 1.415 . S
C1190 H1166 0.960 . S
C1190 C1185 1.363 1_554 S
C1190 C1189 1.415 . S
C1191 H1167 0.951 . S
C1191 C1192 1.366 . S
C1191 C1193 1.388 . S
C1192 C1191 1.366 . S
C1192 C1196 1.385 . S
C1193 H1168 0.951 . S
C1193 C1191 1.388 . S
C1193 C1194 1.366 . S
C1194 C1193 1.366 . S
C1194 C1195 1.414 . S
C1194 C1197 1.499 . S
C1195 H1169 0.950 . S
C1195 C1194 1.414 . S
C1195 C1196 1.374 . S
C1196 H1170 0.950 . S
C1196 C1192 1.385 . S
C1196 C1195 1.374 . S
C1197 C1194 1.499 . S
C1197 C1198 1.373 . S
C1197 C1199 1.389 . S
C1198 H1171 0.950 . S
C1198 C1184 1.377 . S
C1198 C1197 1.373 . S
C1199 C1183 1.377 . S
C1199 C1197 1.389 . S
C1199 C1200 1.524 . S
C1200 C1199 1.524 . S
C1200 C1201 1.397 . S
C1200 C1205 1.363 . S
C1201 H1172 0.950 . S
C1201 C1200 1.397 . S
C1201 C1202 1.334 . S
C1202 H1173 0.950 . S
C1202 C1201 1.334 . S
C1202 C1203 1.287 . S
C1203 C1202 1.287 . S
C1203 C1204 1.524 . S
C1203 H1206 0.999 . S
C1204 H1174 0.950 . S
C1204 C1203 1.524 . S
C1204 C1205 1.415 . S
C1205 H1175 0.950 . S
C1205 C1200 1.363 . S
C1205 C1204 1.415 . S
H1206 C1203 0.999 . S
H1207 C1188 0.913 . S
H1208 C1226 0.951 . S
H1209 C1228 0.951 . S
H1210 C1230 0.950 . S
H1211 C1231 0.950 . S
H1212 C1233 0.950 . S
H1213 C1236 0.950 . S
H1214 C1237 0.950 . S
H1215 C1239 0.950 . S
H1216 C1240 0.950 . S
H1217 C1241 0.951 . S
H1218 C1243 0.951 . S
H1219 C1245 0.950 . S
H1220 C1246 0.950 . S
H1221 C1248 0.950 . S
H1222 C1251 0.950 . S
H1223 C1252 0.950 . S
H1224 C1254 0.950 . S
H1225 C1255 0.950 . S
C1226 H1208 0.951 . S
C1226 C1227 1.366 . S
C1226 C1228 1.388 . S
C1227 C1226 1.366 . S
C1227 C1231 1.385 . S
C1228 H1209 0.951 . S
C1228 C1226 1.388 . S
C1228 C1229 1.366 . S
C1229 C1228 1.366 . S
C1229 C1230 1.414 . S
C1229 C1232 1.499 . S
C1230 H1210 0.950 . S
C1230 C1229 1.414 . S
C1230 C1231 1.374 . S
C1231 H1211 0.950 . S
C1231 C1227 1.385 . S
C1231 C1230 1.374 . S
C1232 C1229 1.499 . S
C1232 C1233 1.373 . S
C1232 C1234 1.389 . S
C1233 H1212 0.950 . S
C1233 C1232 1.373 . S
C1233 C1249 1.377 . S
C1234 C1232 1.389 . S
C1234 C1235 1.524 . S
C1234 C1248 1.377 . S
C1235 C1234 1.524 . S
C1235 C1236 1.397 . S
C1235 C1240 1.363 . S
C1236 H1213 0.950 . S
C1236 C1235 1.397 . S
C1236 C1237 1.334 . S
C1237 H1214 0.950 . S
C1237 C1236 1.334 . S
C1237 C1238 1.287 . S
C1238 C1237 1.287 . S
C1238 C1239 1.524 . S
C1238 H1257 0.913 . S
C1239 H1215 0.950 . S
C1239 C1238 1.524 . S
C1239 C1240 1.415 . S
C1240 H1216 0.950 . S
C1240 C1235 1.363 . S
C1240 C1239 1.415 . S
C1241 H1217 0.951 . S
C1241 C1242 1.366 . S
C1241 C1243 1.388 . S
C1242 C1241 1.366 . S
C1242 C1246 1.385 . S
C1243 H1218 0.951 . S
C1243 C1241 1.388 . S
C1243 C1244 1.366 . S
C1244 C1243 1.366 . S
C1244 C1245 1.414 . S
C1244 C1247 1.499 . S
C1245 H1219 0.950 . S
C1245 C1244 1.414 . S
C1245 C1246 1.374 . S
C1246 H1220 0.950 . S
C1246 C1242 1.385 . S
C1246 C1245 1.374 . S
C1247 C1244 1.499 . S
C1247 C1248 1.373 . S
C1247 C1249 1.389 . S
C1248 H1221 0.950 . S
C1248 C1234 1.377 . S
C1248 C1247 1.373 . S
C1249 C1233 1.377 . S
C1249 C1247 1.389 . S
C1249 C1250 1.524 . S
C1250 C1249 1.524 . S
C1250 C1251 1.397 . S
C1250 C1255 1.363 . S
C1251 H1222 0.950 . S
C1251 C1250 1.397 . S
C1251 C1252 1.334 . S
C1252 H1223 0.950 . S
C1252 C1251 1.334 . S
C1252 C1253 1.287 . S
C1253 C1252 1.287 . S
C1253 C1254 1.524 . S
C1253 H1256 0.999 . S
C1254 H1224 0.950 . S
C1254 C1253 1.524 . S
C1254 C1255 1.415 . S
C1255 H1225 0.950 . S
C1255 C1250 1.363 . S
C1255 C1254 1.415 . S
H1256 C1253 0.999 . S
H1257 C1238 0.913 . S
H1258 C1276 0.951 . S
H1259 C1278 0.951 . S
H1260 C1280 0.950 . S
H1261 C1281 0.950 . S
H1262 C1283 0.950 . S
H1263 C1286 0.950 . S
H1264 C1287 0.950 . S
H1265 C1289 0.950 . S
H1266 C1290 0.950 . S
H1267 C1291 0.951 . S
H1268 C1293 0.951 . S
H1269 C1295 0.950 . S
H1270 C1296 0.950 . S
H1271 C1298 0.950 . S
H1272 C1301 0.950 . S
H1273 C1302 0.950 . S
H1274 C1304 0.950 . S
H1275 C1305 0.950 . S
C1276 H1258 0.951 . S
C1276 C1277 1.366 . S
C1276 C1278 1.388 . S
C1277 C1276 1.366 . S
C1277 C1281 1.385 . S
C1278 H1259 0.951 . S
C1278 C1276 1.388 . S
C1278 C1279 1.366 . S
C1279 C1278 1.366 . S
C1279 C1280 1.414 . S
C1279 C1282 1.499 . S
C1280 H1260 0.950 . S
C1280 C1279 1.414 . S
C1280 C1281 1.374 . S
C1281 H1261 0.950 . S
C1281 C1277 1.385 . S
C1281 C1280 1.374 . S
C1282 C1279 1.499 . S
C1282 C1283 1.373 . S
C1282 C1284 1.389 . S
C1283 H1262 0.950 . S
C1283 C1282 1.373 . S
C1283 C1299 1.377 . S
C1284 C1282 1.389 . S
C1284 C1285 1.524 . S
C1284 C1298 1.377 . S
C1285 C1284 1.524 . S
C1285 C1286 1.397 . S
C1285 C1290 1.363 . S
C1286 H1263 0.950 . S
C1286 C1285 1.397 . S
C1286 C1287 1.334 . S
C1287 H1264 0.950 . S
C1287 C1286 1.334 . S
C1287 C1288 1.287 . S
C1288 C1287 1.287 . S
C1288 C1289 1.524 . S
C1288 H1307 0.913 . S
C1289 H1265 0.950 . S
C1289 C1288 1.524 . S
C1289 C1290 1.415 . S
C1290 H1266 0.950 . S
C1290 C1285 1.363 . S
C1290 C1289 1.415 . S
C1291 H1267 0.951 . S
C1291 C1292 1.366 . S
C1291 C1293 1.388 . S
C1292 C1291 1.366 . S
C1292 C1296 1.385 . S
C1293 H1268 0.951 . S
C1293 C1291 1.388 . S
C1293 C1294 1.366 . S
C1294 C1293 1.366 . S
C1294 C1295 1.414 . S
C1294 C1297 1.499 . S
C1295 H1269 0.950 . S
C1295 C1294 1.414 . S
C1295 C1296 1.374 . S
C1296 H1270 0.950 . S
C1296 C1292 1.385 . S
C1296 C1295 1.374 . S
C1297 C1294 1.499 . S
C1297 C1298 1.373 . S
C1297 C1299 1.389 . S
C1298 H1271 0.950 . S
C1298 C1284 1.377 . S
C1298 C1297 1.373 . S
C1299 C1283 1.377 . S
C1299 C1297 1.389 . S
C1299 C1300 1.524 . S
C1300 C1299 1.524 . S
C1300 C1301 1.397 . S
C1300 C1305 1.363 . S
C1301 H1272 0.950 . S
C1301 C1300 1.397 . S
C1301 C1302 1.334 . S
C1302 H1273 0.950 . S
C1302 C1301 1.334 . S
C1302 C1303 1.287 . S
C1303 C1302 1.287 . S
C1303 C1304 1.524 . S
C1303 H1306 0.999 . S
C1304 H1274 0.950 . S
C1304 C1303 1.524 . S
C1304 C1305 1.415 . S
C1305 H1275 0.950 . S
C1305 C1300 1.363 . S
C1305 C1304 1.415 . S
H1306 C1303 0.999 . S
H1307 C1288 0.913 . S
H1308 C1326 0.951 . S
H1309 C1328 0.951 . S
H1310 C1330 0.950 . S
H1311 C1331 0.950 . S
H1312 C1333 0.950 . S
H1313 C1336 0.950 . S
H1314 C1337 0.950 . S
H1315 C1339 0.950 . S
H1316 C1340 0.950 . S
H1317 C1341 0.951 . S
H1318 C1343 0.951 . S
H1319 C1345 0.950 . S
H1320 C1346 0.950 . S
H1321 C1348 0.950 . S
H1322 C1351 0.950 . S
H1323 C1352 0.950 . S
H1324 C1354 0.950 . S
H1325 C1355 0.950 . S
C1326 H1308 0.951 . S
C1326 C1327 1.366 . S
C1326 C1328 1.388 . S
C1327 C1326 1.366 . S
C1327 C1331 1.385 . S
C1328 H1309 0.951 . S
C1328 C1326 1.388 . S
C1328 C1329 1.366 . S
C1329 C1328 1.366 . S
C1329 C1330 1.414 . S
C1329 C1332 1.499 . S
C1330 H1310 0.950 . S
C1330 C1329 1.414 . S
C1330 C1331 1.374 . S
C1331 H1311 0.950 . S
C1331 C1327 1.385 . S
C1331 C1330 1.374 . S
C1332 C1329 1.499 . S
C1332 C1333 1.373 . S
C1332 C1334 1.389 . S
C1333 H1312 0.950 . S
C1333 C1332 1.373 . S
C1333 C1349 1.377 . S
C1334 C1332 1.389 . S
C1334 C1335 1.524 . S
C1334 C1348 1.377 . S
C1335 C1334 1.524 . S
C1335 C1336 1.397 . S
C1335 C1340 1.363 . S
C1336 H1313 0.950 . S
C1336 C1335 1.397 . S
C1336 C1337 1.334 . S
C1337 H1314 0.950 . S
C1337 C1336 1.334 . S
C1337 C1338 1.287 . S
C1338 C1337 1.287 . S
C1338 C1339 1.524 . S
C1338 H1357 0.913 . S
C1339 H1315 0.950 . S
C1339 C1338 1.524 . S
C1339 C1340 1.415 . S
C1340 H1316 0.950 . S
C1340 C1335 1.363 . S
C1340 C1339 1.415 . S
C1341 H1317 0.951 . S
C1341 C1342 1.366 . S
C1341 C1343 1.388 . S
C1342 C1341 1.366 . S
C1342 C1346 1.385 . S
C1343 H1318 0.951 . S
C1343 C1341 1.388 . S
C1343 C1344 1.366 . S
C1344 C1343 1.366 . S
C1344 C1345 1.414 . S
C1344 C1347 1.499 . S
C1345 H1319 0.950 . S
C1345 C1344 1.414 . S
C1345 C1346 1.374 . S
C1346 H1320 0.950 . S
C1346 C1342 1.385 . S
C1346 C1345 1.374 . S
C1347 C1344 1.499 . S
C1347 C1348 1.373 . S
C1347 C1349 1.389 . S
C1348 H1321 0.950 . S
C1348 C1334 1.377 . S
C1348 C1347 1.373 . S
C1349 C1333 1.377 . S
C1349 C1347 1.389 . S
C1349 C1350 1.524 . S
C1350 C1349 1.524 . S
C1350 C1351 1.397 . S
C1350 C1355 1.363 . S
C1351 H1322 0.950 . S
C1351 C1350 1.397 . S
C1351 C1352 1.334 . S
C1352 H1323 0.950 . S
C1352 C1351 1.334 . S
C1352 C1353 1.287 . S
C1353 C1352 1.287 . S
C1353 C1354 1.524 . S
C1353 H1356 0.999 . S
C1354 H1324 0.950 . S
C1354 C1353 1.524 . S
C1354 C1355 1.415 . S
C1355 H1325 0.950 . S
C1355 C1350 1.363 . S
C1355 C1354 1.415 . S
H1356 C1353 0.999 . S
H1357 C1338 0.913 . S
H1358 C1376 0.951 . S
H1359 C1378 0.951 . S
H1360 C1380 0.950 . S
H1361 C1381 0.950 . S
H1362 C1383 0.946 . S
H1363 C1386 0.950 . S
H1364 C1387 0.950 . S
H1365 C1389 0.950 . S
H1366 C1390 0.950 . S
H1367 C1391 0.951 . S
H1368 C1393 0.951 . S
H1369 C1395 0.950 . S
H1370 C1396 0.950 . S
H1371 C1398 0.946 . S
H1372 C1401 0.950 . S
H1373 C1402 0.950 . S
H1374 C1404 0.950 . S
H1375 C1405 0.950 . S
C1376 H1358 0.951 . S
C1376 C1377 1.366 . S
C1376 C1378 1.388 . S
C1377 C1376 1.366 . S
C1377 C1381 1.385 . S
C1378 H1359 0.951 . S
C1378 C1376 1.388 . S
C1378 C1379 1.366 . S
C1379 C1378 1.366 . S
C1379 C1380 1.414 . S
C1379 C1382 1.499 . S
C1380 H1360 0.950 . S
C1380 C1379 1.414 . S
C1380 C1381 1.374 . S
C1381 H1361 0.950 . S
C1381 C1377 1.385 . S
C1381 C1380 1.374 . S
C1382 C1379 1.499 . S
C1382 C1383 1.381 1_655 S
C1382 C1384 1.389 . S
C1383 H1362 0.946 . S
C1383 C1382 1.381 1_455 S
C1383 C1399 1.372 . S
C1384 C1382 1.389 . S
C1384 C1385 1.524 . S
C1384 C1398 1.372 . S
C1385 C1384 1.524 . S
C1385 C1386 1.397 . S
C1385 C1390 1.363 . S
C1386 H1363 0.950 . S
C1386 C1385 1.397 . S
C1386 C1387 1.334 . S
C1387 H1364 0.950 . S
C1387 C1386 1.334 . S
C1387 C1388 1.287 . S
C1388 C1387 1.287 . S
C1388 C1389 1.524 . S
C1388 H1407 0.913 . S
C1389 H1365 0.950 . S
C1389 C1388 1.524 . S
C1389 C1390 1.415 . S
C1390 H1366 0.950 . S
C1390 C1385 1.363 . S
C1390 C1389 1.415 . S
C1391 H1367 0.951 . S
C1391 C1392 1.366 . S
C1391 C1393 1.388 . S
C1392 C1391 1.366 . S
C1392 C1396 1.385 . S
C1393 H1368 0.951 . S
C1393 C1391 1.388 . S
C1393 C1394 1.366 . S
C1394 C1393 1.366 . S
C1394 C1395 1.414 . S
C1394 C1397 1.499 . S
C1395 H1369 0.950 . S
C1395 C1394 1.414 . S
C1395 C1396 1.374 . S
C1396 H1370 0.950 . S
C1396 C1392 1.385 . S
C1396 C1395 1.374 . S
C1397 C1394 1.499 . S
C1397 C1398 1.380 1_455 S
C1397 C1399 1.389 . S
C1398 H1371 0.946 . S
C1398 C1384 1.372 . S
C1398 C1397 1.380 1_655 S
C1399 C1383 1.372 . S
C1399 C1397 1.389 . S
C1399 C1400 1.524 . S
C1400 C1399 1.524 . S
C1400 C1401 1.397 . S
C1400 C1405 1.363 . S
C1401 H1372 0.950 . S
C1401 C1400 1.397 . S
C1401 C1402 1.334 . S
C1402 H1373 0.950 . S
C1402 C1401 1.334 . S
C1402 C1403 1.287 . S
C1403 C1402 1.287 . S
C1403 C1404 1.524 . S
C1403 H1406 0.999 . S
C1404 H1374 0.950 . S
C1404 C1403 1.524 . S
C1404 C1405 1.415 . S
C1405 H1375 0.950 . S
C1405 C1400 1.363 . S
C1405 C1404 1.415 . S
H1406 C1403 0.999 . S
H1407 C1388 0.913 . S
H1408 C1426 0.951 . S
H1409 C1428 0.951 . S
H1410 C1430 0.950 . S
H1411 C1431 0.950 . S
H1412 C1433 0.950 . S
H1413 C1436 0.950 . S
H1414 C1437 0.950 . S
H1415 C1439 0.950 . S
H1416 C1440 0.950 . S
H1417 C1441 0.951 . S
H1418 C1443 0.951 . S
H1419 C1445 0.950 . S
H1420 C1446 0.950 . S
H1421 C1448 0.950 . S
H1422 C1451 0.950 . S
H1423 C1452 0.950 . S
H1424 C1454 0.950 . S
H1425 C1455 0.950 . S
C1426 H1408 0.951 . S
C1426 C1427 1.366 . S
C1426 C1428 1.388 . S
C1427 C1426 1.366 . S
C1427 C1431 1.385 . S
C1428 H1409 0.951 . S
C1428 C1426 1.388 . S
C1428 C1429 1.366 . S
C1429 C1428 1.366 . S
C1429 C1430 1.414 . S
C1429 C1432 1.499 . S
C1430 H1410 0.950 . S
C1430 C1429 1.414 . S
C1430 C1431 1.374 . S
C1431 H1411 0.950 . S
C1431 C1427 1.385 . S
C1431 C1430 1.374 . S
C1432 C1429 1.499 . S
C1432 C1433 1.373 . S
C1432 C1434 1.389 . S
C1433 H1412 0.950 . S
C1433 C1432 1.373 . S
C1433 C1449 1.377 1_564 S
C1434 C1432 1.389 . S
C1434 C1435 1.524 . S
C1434 C1448 1.377 1_564 S
C1435 C1434 1.524 . S
C1435 C1436 1.397 1_565 S
C1435 C1440 1.363 . S
C1436 H1413 0.950 . S
C1436 C1435 1.397 1_545 S
C1436 C1437 1.334 . S
C1437 H1414 0.950 . S
C1437 C1436 1.334 . S
C1437 C1438 1.287 . S
C1438 C1437 1.287 . S
C1438 C1439 1.524 1_545 S
C1438 H1457 0.913 . S
C1439 H1415 0.950 . S
C1439 C1438 1.524 1_565 S
C1439 C1440 1.415 . S
C1440 H1416 0.950 . S
C1440 C1435 1.363 . S
C1440 C1439 1.415 . S
C1441 H1417 0.951 . S
C1441 C1442 1.366 . S
C1441 C1443 1.388 . S
C1442 C1441 1.366 . S
C1442 C1446 1.385 . S
C1443 H1418 0.951 . S
C1443 C1441 1.388 . S
C1443 C1444 1.366 . S
C1444 C1443 1.366 . S
C1444 C1445 1.414 . S
C1444 C1447 1.499 . S
C1445 H1419 0.950 . S
C1445 C1444 1.414 . S
C1445 C1446 1.374 . S
C1446 H1420 0.950 . S
C1446 C1442 1.385 . S
C1446 C1445 1.374 . S
C1447 C1444 1.499 . S
C1447 C1448 1.373 . S
C1447 C1449 1.389 . S
C1448 H1421 0.950 . S
C1448 C1434 1.377 1_546 S
C1448 C1447 1.373 . S
C1449 C1433 1.377 1_546 S
C1449 C1447 1.389 . S
C1449 C1450 1.524 . S
C1450 C1449 1.524 . S
C1450 C1451 1.397 1_545 S
C1450 C1455 1.363 . S
C1451 H1422 0.950 . S
C1451 C1450 1.397 1_565 S
C1451 C1452 1.334 . S
C1452 H1423 0.950 . S
C1452 C1451 1.334 . S
C1452 C1453 1.287 . S
C1453 C1452 1.287 . S
C1453 C1454 1.524 1_565 S
C1453 H1456 0.999 . S
C1454 H1424 0.950 . S
C1454 C1453 1.524 1_545 S
C1454 C1455 1.415 . S
C1455 H1425 0.950 . S
C1455 C1450 1.363 . S
C1455 C1454 1.415 . S
H1456 C1453 0.999 . S
H1457 C1438 0.913 . S
H1458 C1476 0.966 . S
H1459 C1478 0.951 . S
H1460 C1480 0.950 . S
H1461 C1481 0.950 . S
H1462 C1483 0.950 . S
H1463 C1486 0.950 . S
H1464 C1487 0.950 . S
H1465 C1489 0.950 . S
H1466 C1490 0.950 . S
H1467 C1491 0.951 . S
H1468 C1493 0.951 . S
H1469 C1495 0.950 . S
H1470 C1496 0.950 . S
H1471 C1498 0.950 . S
H1472 C1501 0.950 . S
H1473 C1502 0.950 . S
H1474 C1504 0.950 . S
H1475 C1505 0.950 . S
C1476 H1458 0.966 . S
C1476 C1477 1.366 . S
C1476 C1478 1.388 . S
C1477 C1476 1.366 . S
C1477 C1481 1.385 . S
C1478 H1459 0.951 . S
C1478 C1476 1.388 . S
C1478 C1479 1.366 . S
C1479 C1478 1.366 . S
C1479 C1480 1.414 . S
C1479 C1482 1.499 . S
C1480 H1460 0.950 . S
C1480 C1479 1.414 . S
C1480 C1481 1.374 . S
C1481 H1461 0.950 . S
C1481 C1477 1.385 . S
C1481 C1480 1.374 . S
C1482 C1479 1.499 . S
C1482 C1483 1.373 . S
C1482 C1484 1.389 . S
C1483 H1462 0.950 . S
C1483 C1482 1.373 . S
C1483 C1499 1.377 . S
C1484 C1482 1.389 . S
C1484 C1485 1.524 . S
C1484 C1498 1.377 . S
C1485 C1484 1.524 . S
C1485 C1486 1.397 . S
C1485 C1490 1.363 . S
C1486 H1463 0.950 . S
C1486 C1485 1.397 . S
C1486 C1487 1.334 . S
C1487 H1464 0.950 . S
C1487 C1486 1.334 . S
C1487 C1488 1.287 . S
C1488 C1487 1.287 . S
C1488 C1489 1.524 . S
C1488 H1507 0.913 1_554 S
C1489 H1465 0.950 . S
C1489 C1488 1.524 . S
C1489 C1490 1.415 . S
C1490 H1466 0.950 . S
C1490 C1485 1.363 . S
C1490 C1489 1.415 . S
C1491 H1467 0.951 . S
C1491 C1492 1.366 . S
C1491 C1493 1.388 . S
C1492 C1491 1.366 . S
C1492 C1496 1.385 . S
C1493 H1468 0.951 . S
C1493 C1491 1.388 . S
C1493 C1494 1.366 . S
C1494 C1493 1.366 . S
C1494 C1495 1.414 . S
C1494 C1497 1.499 . S
C1495 H1469 0.950 . S
C1495 C1494 1.414 . S
C1495 C1496 1.374 . S
C1496 H1470 0.950 . S
C1496 C1492 1.385 . S
C1496 C1495 1.374 . S
C1497 C1494 1.499 . S
C1497 C1498 1.373 . S
C1497 C1499 1.389 . S
C1498 H1471 0.950 . S
C1498 C1484 1.377 . S
C1498 C1497 1.373 . S
C1499 C1483 1.377 . S
C1499 C1497 1.389 . S
C1499 C1500 1.524 . S
C1500 C1499 1.524 . S
C1500 C1501 1.397 . S
C1500 C1505 1.363 . S
C1501 H1472 0.950 . S
C1501 C1500 1.397 . S
C1501 C1502 1.334 . S
C1502 H1473 0.950 . S
C1502 C1501 1.334 . S
C1502 C1503 1.287 . S
C1503 C1502 1.287 . S
C1503 C1504 1.524 . S
C1503 H1506 0.999 . S
C1504 H1474 0.950 . S
C1504 C1503 1.524 . S
C1504 C1505 1.415 . S
C1505 H1475 0.950 . S
C1505 C1500 1.363 . S
C1505 C1504 1.415 . S
H1506 C1503 0.999 . S
H1507 C1488 0.913 1_556 S
H1508 C1526 0.951 . S
H1509 C1528 0.951 . S
H1510 C1530 0.950 . S
H1511 C1531 0.950 . S
H1512 C1533 0.950 . S
H1513 C1536 0.950 . S
H1514 C1537 0.950 . S
H1515 C1539 0.950 . S
H1516 C1540 0.950 . S
H1517 C1541 0.951 . S
H1518 C1543 0.951 . S
H1519 C1545 0.950 . S
H1520 C1546 0.950 . S
H1521 C1548 0.950 . S
H1522 C1551 0.950 . S
H1523 C1552 0.950 . S
H1524 C1554 0.950 . S
H1525 C1555 0.950 . S
C1526 H1508 0.951 . S
C1526 C1527 1.366 . S
C1526 C1528 1.388 . S
C1527 C1526 1.366 . S
C1527 C1531 1.385 . S
C1528 H1509 0.951 . S
C1528 C1526 1.388 . S
C1528 C1529 1.366 . S
C1529 C1528 1.366 . S
C1529 C1530 1.414 . S
C1529 C1532 1.499 . S
C1530 H1510 0.950 . S
C1530 C1529 1.414 . S
C1530 C1531 1.374 . S
C1531 H1511 0.950 . S
C1531 C1527 1.385 . S
C1531 C1530 1.374 . S
C1532 C1529 1.499 . S
C1532 C1533 1.373 . S
C1532 C1534 1.389 1_455 S
C1533 H1512 0.950 . S
C1533 C1532 1.373 . S
C1533 C1549 1.377 . S
C1534 C1532 1.389 1_655 S
C1534 C1535 1.524 . S
C1534 C1548 1.377 . S
C1535 C1534 1.524 . S
C1535 C1536 1.397 . S
C1535 C1540 1.363 . S
C1536 H1513 0.950 . S
C1536 C1535 1.397 . S
C1536 C1537 1.334 . S
C1537 H1514 0.950 . S
C1537 C1536 1.334 . S
C1537 C1538 1.287 . S
C1538 C1537 1.287 . S
C1538 C1539 1.524 . S
C1538 H1557 0.913 . S
C1539 H1515 0.950 . S
C1539 C1538 1.524 . S
C1539 C1540 1.415 . S
C1540 H1516 0.950 . S
C1540 C1535 1.363 . S
C1540 C1539 1.415 . S
C1541 H1517 0.951 . S
C1541 C1542 1.366 . S
C1541 C1543 1.388 . S
C1542 C1541 1.366 . S
C1542 C1546 1.385 . S
C1543 H1518 0.951 . S
C1543 C1541 1.388 . S
C1543 C1544 1.366 . S
C1544 C1543 1.366 . S
C1544 C1545 1.414 . S
C1544 C1547 1.499 . S
C1545 H1519 0.950 . S
C1545 C1544 1.414 . S
C1545 C1546 1.374 . S
C1546 H1520 0.950 . S
C1546 C1542 1.385 . S
C1546 C1545 1.374 . S
C1547 C1544 1.499 . S
C1547 C1548 1.373 . S
C1547 C1549 1.389 1_655 S
C1548 H1521 0.950 . S
C1548 C1534 1.377 . S
C1548 C1547 1.373 . S
C1549 C1533 1.377 . S
C1549 C1547 1.389 1_455 S
C1549 C1550 1.524 . S
C1550 C1549 1.524 . S
C1550 C1551 1.397 . S
C1550 C1555 1.363 . S
C1551 H1522 0.950 . S
C1551 C1550 1.397 . S
C1551 C1552 1.334 . S
C1552 H1523 0.950 . S
C1552 C1551 1.334 . S
C1552 C1553 1.287 . S
C1553 C1552 1.287 . S
C1553 C1554 1.524 . S
C1553 H1556 0.999 . S
C1554 H1524 0.950 . S
C1554 C1553 1.524 . S
C1554 C1555 1.415 . S
C1555 H1525 0.950 . S
C1555 C1550 1.363 . S
C1555 C1554 1.415 . S
H1556 C1553 0.999 . S
H1557 C1538 0.913 . S
H1558 C1576 0.951 . S
H1559 C1578 0.951 . S
H1560 C1580 0.950 . S
H1561 C1581 0.950 . S
H1562 C1583 0.950 . S
H1563 C1586 0.950 . S
H1564 C1587 0.950 . S
H1565 C1589 0.950 . S
H1566 C1590 0.950 1_545 S
H1567 C1591 0.951 . S
H1568 C1593 0.951 . S
H1569 C1595 0.950 . S
H1570 C1596 0.950 . S
H1571 C1598 0.950 . S
H1572 C1601 0.950 . S
H1573 C1602 0.950 . S
H1574 C1604 0.950 . S
H1575 C1605 0.950 1_565 S
C1576 H1558 0.951 . S
C1576 C1577 1.366 . S
C1576 C1578 1.388 . S
C1577 C1576 1.366 . S
C1577 C1581 1.385 . S
C1578 H1559 0.951 . S
C1578 C1576 1.388 . S
C1578 C1579 1.366 . S
C1579 C1578 1.366 . S
C1579 C1580 1.414 . S
C1579 C1582 1.499 . S
C1580 H1560 0.950 . S
C1580 C1579 1.414 . S
C1580 C1581 1.374 . S
C1581 H1561 0.950 . S
C1581 C1577 1.385 . S
C1581 C1580 1.374 . S
C1582 C1579 1.499 . S
C1582 C1583 1.373 . S
C1582 C1584 1.389 . S
C1583 H1562 0.950 . S
C1583 C1582 1.373 . S
C1583 C1599 1.377 1_565 S
C1584 C1582 1.389 . S
C1584 C1585 1.524 . S
C1584 C1598 1.377 1_565 S
C1585 C1584 1.524 . S
C1585 C1586 1.397 . S
C1585 C1590 1.363 . S
C1586 H1563 0.950 . S
C1586 C1585 1.397 . S
C1586 C1587 1.334 . S
C1587 H1564 0.950 . S
C1587 C1586 1.334 . S
C1587 C1588 1.287 . S
C1588 C1587 1.287 . S
C1588 C1589 1.524 . S
C1588 H1607 0.913 . S
C1589 H1565 0.950 . S
C1589 C1588 1.524 . S
C1589 C1590 1.415 . S
C1590 H1566 0.950 1_565 S
C1590 C1585 1.363 . S
C1590 C1589 1.415 . S
C1591 H1567 0.951 . S
C1591 C1592 1.366 . S
C1591 C1593 1.388 . S
C1592 C1591 1.366 . S
C1592 C1596 1.385 . S
C1593 H1568 0.951 . S
C1593 C1591 1.388 . S
C1593 C1594 1.366 . S
C1594 C1593 1.366 . S
C1594 C1595 1.414 . S
C1594 C1597 1.499 . S
C1595 H1569 0.950 . S
C1595 C1594 1.414 . S
C1595 C1596 1.374 . S
C1596 H1570 0.950 . S
C1596 C1592 1.385 . S
C1596 C1595 1.374 . S
C1597 C1594 1.499 . S
C1597 C1598 1.373 . S
C1597 C1599 1.389 . S
C1598 H1571 0.950 . S
C1598 C1584 1.377 1_545 S
C1598 C1597 1.373 . S
C1599 C1583 1.377 1_545 S
C1599 C1597 1.389 . S
C1599 C1600 1.524 . S
C1600 C1599 1.524 . S
C1600 C1601 1.397 . S
C1600 C1605 1.363 . S
C1601 H1572 0.950 . S
C1601 C1600 1.397 . S
C1601 C1602 1.334 . S
C1602 H1573 0.950 . S
C1602 C1601 1.334 . S
C1602 C1603 1.287 . S
C1603 C1602 1.287 . S
C1603 C1604 1.524 . S
C1603 H1606 0.999 . S
C1604 H1574 0.950 . S
C1604 C1603 1.524 . S
C1604 C1605 1.415 . S
C1605 H1575 0.950 1_545 S
C1605 C1600 1.363 . S
C1605 C1604 1.415 . S
H1606 C1603 0.999 . S
H1607 C1588 0.913 . S
H1608 C1626 0.951 . S
H1609 C1628 0.951 . S
H1610 C1630 0.950 . S
H1611 C1631 0.950 . S
H1612 C1633 0.950 . S
H1613 C1636 0.950 . S
H1614 C1637 0.950 . S
H1615 C1639 0.950 . S
H1616 C1640 0.950 . S
H1617 C1641 0.951 . S
H1618 C1643 0.951 . S
H1619 C1645 0.950 . S
H1620 C1646 0.950 . S
H1621 C1648 0.950 . S
H1622 C1651 0.950 . S
H1623 C1652 0.950 . S
H1624 C1654 0.950 . S
H1625 C1655 0.950 . S
C1626 H1608 0.951 . S
C1626 C1627 1.366 . S
C1626 C1628 1.388 . S
C1627 C1626 1.366 . S
C1627 C1631 1.385 . S
C1628 H1609 0.951 . S
C1628 C1626 1.388 . S
C1628 C1629 1.366 . S
C1629 C1628 1.366 . S
C1629 C1630 1.414 . S
C1629 C1632 1.499 . S
C1630 H1610 0.950 . S
C1630 C1629 1.414 . S
C1630 C1631 1.374 . S
C1631 H1611 0.950 . S
C1631 C1627 1.385 . S
C1631 C1630 1.374 . S
C1632 C1629 1.499 . S
C1632 C1633 1.373 . S
C1632 C1634 1.389 . S
C1633 H1612 0.950 . S
C1633 C1632 1.373 . S
C1633 C1649 1.377 . S
C1634 C1632 1.389 . S
C1634 C1635 1.524 . S
C1634 C1648 1.377 . S
C1635 C1634 1.524 . S
C1635 C1636 1.397 . S
C1635 C1640 1.363 . S
C1636 H1613 0.950 . S
C1636 C1635 1.397 . S
C1636 C1637 1.334 . S
C1637 H1614 0.950 . S
C1637 C1636 1.334 . S
C1637 C1638 1.287 . S
C1638 C1637 1.287 . S
C1638 C1639 1.524 . S
C1638 H1657 0.913 . S
C1639 H1615 0.950 . S
C1639 C1638 1.524 . S
C1639 C1640 1.415 . S
C1640 H1616 0.950 . S
C1640 C1635 1.363 . S
C1640 C1639 1.415 . S
C1641 H1617 0.951 . S
C1641 C1642 1.366 . S
C1641 C1643 1.388 . S
C1642 C1641 1.366 . S
C1642 C1646 1.385 . S
C1643 H1618 0.951 . S
C1643 C1641 1.388 . S
C1643 C1644 1.366 . S
C1644 C1643 1.366 . S
C1644 C1645 1.414 . S
C1644 C1647 1.499 . S
C1645 H1619 0.950 . S
C1645 C1644 1.414 . S
C1645 C1646 1.374 . S
C1646 H1620 0.950 . S
C1646 C1642 1.385 . S
C1646 C1645 1.374 . S
C1647 C1644 1.499 . S
C1647 C1648 1.373 . S
C1647 C1649 1.389 . S
C1648 H1621 0.950 . S
C1648 C1634 1.377 . S
C1648 C1647 1.373 . S
C1649 C1633 1.377 . S
C1649 C1647 1.389 . S
C1649 C1650 1.524 . S
C1650 C1649 1.524 . S
C1650 C1651 1.397 . S
C1650 C1655 1.363 . S
C1651 H1622 0.950 . S
C1651 C1650 1.397 . S
C1651 C1652 1.334 . S
C1652 H1623 0.950 . S
C1652 C1651 1.334 . S
C1652 C1653 1.287 . S
C1653 C1652 1.287 . S
C1653 C1654 1.524 . S
C1653 H1656 0.999 . S
C1654 H1624 0.950 . S
C1654 C1653 1.524 . S
C1654 C1655 1.415 . S
C1655 H1625 0.950 . S
C1655 C1650 1.363 . S
C1655 C1654 1.415 . S
H1656 C1653 0.999 . S
H1657 C1638 0.913 . S
H1658 C1676 0.951 . S
H1659 C1678 0.951 . S
H1660 C1680 0.950 . S
H1661 C1681 0.950 . S
H1662 C1683 0.950 . S
H1663 C1686 0.950 . S
H1664 C1687 0.950 . S
H1665 C1689 0.950 . S
H1666 C1690 0.950 . S
H1667 C1691 0.951 . S
H1668 C1693 0.951 . S
H1669 C1695 0.950 . S
H1670 C1696 0.950 . S
H1671 C1698 0.950 . S
H1672 C1701 0.950 . S
H1673 C1702 0.950 . S
H1674 C1704 0.950 . S
H1675 C1705 0.950 . S
C1676 H1658 0.951 . S
C1676 C1677 1.366 . S
C1676 C1678 1.388 . S
C1677 C1676 1.366 . S
C1677 C1681 1.385 . S
C1678 H1659 0.951 . S
C1678 C1676 1.388 . S
C1678 C1679 1.366 . S
C1679 C1678 1.366 . S
C1679 C1680 1.414 . S
C1679 C1682 1.499 . S
C1680 H1660 0.950 . S
C1680 C1679 1.414 . S
C1680 C1681 1.374 . S
C1681 H1661 0.950 . S
C1681 C1677 1.385 . S
C1681 C1680 1.374 . S
C1682 C1679 1.499 . S
C1682 C1683 1.373 . S
C1682 C1684 1.389 . S
C1683 H1662 0.950 . S
C1683 C1682 1.373 . S
C1683 C1699 1.377 . S
C1684 C1682 1.389 . S
C1684 C1685 1.524 . S
C1684 C1698 1.377 . S
C1685 C1684 1.524 . S
C1685 C1686 1.397 . S
C1685 C1690 1.363 . S
C1686 H1663 0.950 . S
C1686 C1685 1.397 . S
C1686 C1687 1.334 . S
C1687 H1664 0.950 . S
C1687 C1686 1.334 . S
C1687 C1688 1.287 . S
C1688 C1687 1.287 . S
C1688 C1689 1.524 . S
C1688 H1707 0.913 . S
C1689 H1665 0.950 . S
C1689 C1688 1.524 . S
C1689 C1690 1.415 . S
C1690 H1666 0.950 . S
C1690 C1685 1.363 . S
C1690 C1689 1.415 . S
C1691 H1667 0.951 . S
C1691 C1692 1.366 . S
C1691 C1693 1.388 . S
C1692 C1691 1.366 . S
C1692 C1696 1.385 . S
C1693 H1668 0.951 . S
C1693 C1691 1.388 . S
C1693 C1694 1.366 . S
C1694 C1693 1.366 . S
C1694 C1695 1.414 . S
C1694 C1697 1.499 . S
C1695 H1669 0.950 . S
C1695 C1694 1.414 . S
C1695 C1696 1.374 . S
C1696 H1670 0.950 . S
C1696 C1692 1.385 . S
C1696 C1695 1.374 . S
C1697 C1694 1.499 . S
C1697 C1698 1.373 . S
C1697 C1699 1.389 . S
C1698 H1671 0.950 . S
C1698 C1684 1.377 . S
C1698 C1697 1.373 . S
C1699 C1683 1.377 . S
C1699 C1697 1.389 . S
C1699 C1700 1.524 . S
C1700 C1699 1.524 . S
C1700 C1701 1.397 . S
C1700 C1705 1.363 . S
C1701 H1672 0.950 . S
C1701 C1700 1.397 . S
C1701 C1702 1.334 . S
C1702 H1673 0.950 . S
C1702 C1701 1.334 . S
C1702 C1703 1.287 . S
C1703 C1702 1.287 . S
C1703 C1704 1.524 . S
C1703 H1706 0.999 . S
C1704 H1674 0.950 . S
C1704 C1703 1.524 . S
C1704 C1705 1.415 . S
C1705 H1675 0.950 . S
C1705 C1700 1.363 . S
C1705 C1704 1.415 . S
H1706 C1703 0.999 . S
H1707 C1688 0.913 . S
H1708 C1726 0.951 . S
H1709 C1728 0.951 . S
H1710 C1730 0.950 . S
H1711 C1731 0.950 . S
H1712 C1733 0.950 . S
H1713 C1736 0.950 1_554 S
H1714 C1737 0.950 . S
H1715 C1739 0.950 . S
H1716 C1740 0.950 . S
H1717 C1741 0.951 . S
H1718 C1743 0.951 . S
H1719 C1745 0.950 . S
H1720 C1746 0.950 . S
H1721 C1748 0.950 . S
H1722 C1751 0.950 . S
H1723 C1752 0.950 . S
H1724 C1754 0.950 . S
H1725 C1755 0.950 . S
C1726 H1708 0.951 . S
C1726 C1727 1.366 1_556 S
C1726 C1728 1.388 . S
C1727 C1726 1.366 1_554 S
C1727 C1731 1.385 . S
C1728 H1709 0.951 . S
C1728 C1726 1.388 . S
C1728 C1729 1.366 . S
C1729 C1728 1.366 . S
C1729 C1730 1.414 1_556 S
C1729 C1732 1.499 . S
C1730 H1710 0.950 . S
C1730 C1729 1.414 1_554 S
C1730 C1731 1.374 . S
C1731 H1711 0.950 . S
C1731 C1727 1.385 . S
C1731 C1730 1.374 . S
C1732 C1729 1.499 . S
C1732 C1733 1.373 . S
C1732 C1734 1.389 . S
C1733 H1712 0.950 . S
C1733 C1732 1.373 . S
C1733 C1749 1.377 . S
C1734 C1732 1.389 . S
C1734 C1735 1.524 . S
C1734 C1748 1.377 . S
C1735 C1734 1.524 . S
C1735 C1736 1.397 . S
C1735 C1740 1.363 . S
C1736 H1713 0.950 1_556 S
C1736 C1735 1.397 . S
C1736 C1737 1.334 1_556 S
C1737 H1714 0.950 . S
C1737 C1736 1.334 1_554 S
C1737 C1738 1.287 1_554 S
C1738 C1737 1.287 1_556 S
C1738 C1739 1.524 . S
C1738 H1757 0.913 . S
C1739 H1715 0.950 . S
C1739 C1738 1.524 . S
C1739 C1740 1.415 . S
C1740 H1716 0.950 . S
C1740 C1735 1.363 . S
C1740 C1739 1.415 . S
C1741 H1717 0.951 . S
C1741 C1742 1.366 . S
C1741 C1743 1.388 . S
C1742 C1741 1.366 . S
C1742 C1746 1.385 . S
C1743 H1718 0.951 . S
C1743 C1741 1.388 . S
C1743 C1744 1.366 . S
C1744 C1743 1.366 . S
C1744 C1745 1.414 . S
C1744 C1747 1.499 . S
C1745 H1719 0.950 . S
C1745 C1744 1.414 . S
C1745 C1746 1.374 . S
C1746 H1720 0.950 . S
C1746 C1742 1.385 . S
C1746 C1745 1.374 . S
C1747 C1744 1.499 . S
C1747 C1748 1.373 . S
C1747 C1749 1.389 . S
C1748 H1721 0.950 . S
C1748 C1734 1.377 . S
C1748 C1747 1.373 . S
C1749 C1733 1.377 . S
C1749 C1747 1.389 . S
C1749 C1750 1.524 . S
C1750 C1749 1.524 . S
C1750 C1751 1.397 . S
C1750 C1755 1.363 . S
C1751 H1722 0.950 . S
C1751 C1750 1.397 . S
C1751 C1752 1.334 . S
C1752 H1723 0.950 . S
C1752 C1751 1.334 . S
C1752 C1753 1.287 . S
C1753 C1752 1.287 . S
C1753 C1754 1.524 . S
C1753 H1756 0.999 . S
C1754 H1724 0.950 . S
C1754 C1753 1.524 . S
C1754 C1755 1.415 . S
C1755 H1725 0.950 . S
C1755 C1750 1.363 . S
C1755 C1754 1.415 . S
H1756 C1753 0.999 . S
H1757 C1738 0.913 . S
H1758 C1776 0.951 . S
H1759 C1778 0.951 . S
H1760 C1780 0.950 . S
H1761 C1781 0.950 . S
H1762 C1783 0.950 . S
H1763 C1786 0.950 . S
H1764 C1787 0.950 . S
H1765 C1789 0.950 . S
H1766 C1790 0.950 . S
H1767 C1791 0.951 . S
H1768 C1793 0.951 1_556 S
H1769 C1795 0.950 . S
H1770 C1796 0.950 . S
H1771 C1798 0.950 . S
H1772 C1801 0.950 . S
H1773 C1802 0.950 . S
H1774 C1804 0.950 . S
H1775 C1805 0.950 . S
C1776 H1758 0.951 . S
C1776 C1777 1.366 . S
C1776 C1778 1.388 . S
C1777 C1776 1.366 . S
C1777 C1781 1.385 . S
C1778 H1759 0.951 . S
C1778 C1776 1.388 . S
C1778 C1779 1.366 . S
C1779 C1778 1.366 . S
C1779 C1780 1.414 . S
C1779 C1782 1.499 . S
C1780 H1760 0.950 . S
C1780 C1779 1.414 . S
C1780 C1781 1.374 . S
C1781 H1761 0.950 . S
C1781 C1777 1.385 . S
C1781 C1780 1.374 . S
C1782 C1779 1.499 . S
C1782 C1783 1.373 . S
C1782 C1784 1.389 . S
C1783 H1762 0.950 . S
C1783 C1782 1.373 . S
C1783 C1799 1.377 . S
C1784 C1782 1.389 . S
C1784 C1785 1.524 . S
C1784 C1798 1.377 . S
C1785 C1784 1.524 . S
C1785 C1786 1.397 . S
C1785 C1790 1.363 . S
C1786 H1763 0.950 . S
C1786 C1785 1.397 . S
C1786 C1787 1.334 . S
C1787 H1764 0.950 . S
C1787 C1786 1.334 . S
C1787 C1788 1.287 . S
C1788 C1787 1.287 . S
C1788 C1789 1.524 . S
C1788 H1807 0.913 . S
C1789 H1765 0.950 . S
C1789 C1788 1.524 . S
C1789 C1790 1.415 . S
C1790 H1766 0.950 . S
C1790 C1785 1.363 . S
C1790 C1789 1.415 . S
C1791 H1767 0.951 . S
C1791 C1792 1.366 . S
C1791 C1793 1.388 1_556 S
C1792 C1791 1.366 . S
C1792 C1796 1.385 1_556 S
C1793 H1768 0.951 1_554 S
C1793 C1791 1.388 1_554 S
C1793 C1794 1.366 . S
C1794 C1793 1.366 . S
C1794 C1795 1.414 . S
C1794 C1797 1.499 . S
C1795 H1769 0.950 . S
C1795 C1794 1.414 . S
C1795 C1796 1.374 . S
C1796 H1770 0.950 . S
C1796 C1792 1.385 1_554 S
C1796 C1795 1.374 . S
C1797 C1794 1.499 . S
C1797 C1798 1.373 . S
C1797 C1799 1.389 . S
C1798 H1771 0.950 . S
C1798 C1784 1.377 . S
C1798 C1797 1.373 . S
C1799 C1783 1.377 . S
C1799 C1797 1.389 . S
C1799 C1800 1.524 . S
C1800 C1799 1.524 . S
C1800 C1801 1.397 . S
C1800 C1805 1.363 . S
C1801 H1772 0.950 . S
C1801 C1800 1.397 . S
C1801 C1802 1.334 . S
C1802 H1773 0.950 . S
C1802 C1801 1.334 . S
C1802 C1803 1.287 . S
C1803 C1802 1.287 . S
C1803 C1804 1.524 . S
C1803 H1806 0.999 . S
C1804 H1774 0.950 . S
C1804 C1803 1.524 . S
C1804 C1805 1.415 . S
C1805 H1775 0.950 . S
C1805 C1800 1.363 . S
C1805 C1804 1.415 . S
H1806 C1803 0.999 . S
H1807 C1788 0.913 . S
H1808 C1826 0.951 . S
H1809 C1828 0.951 . S
H1810 C1830 0.950 . S
H1811 C1831 0.950 . S
H1812 C1833 0.950 . S
H1813 C1836 0.950 . S
H1814 C1837 0.950 . S
H1815 C1839 0.950 . S
H1816 C1840 0.950 . S
H1817 C1841 0.951 . S
H1818 C1843 0.951 . S
H1819 C1845 0.950 . S
H1820 C1846 0.950 . S
H1821 C1848 0.950 . S
H1822 C1851 0.950 . S
H1823 C1852 0.950 . S
H1824 C1854 0.950 . S
H1825 C1855 0.950 . S
C1826 H1808 0.951 . S
C1826 C1827 1.366 . S
C1826 C1828 1.388 . S
C1827 C1826 1.366 . S
C1827 C1831 1.385 . S
C1828 H1809 0.951 . S
C1828 C1826 1.388 . S
C1828 C1829 1.366 . S
C1829 C1828 1.366 . S
C1829 C1830 1.414 . S
C1829 C1832 1.499 . S
C1830 H1810 0.950 . S
C1830 C1829 1.414 . S
C1830 C1831 1.374 . S
C1831 H1811 0.950 . S
C1831 C1827 1.385 . S
C1831 C1830 1.374 . S
C1832 C1829 1.499 . S
C1832 C1833 1.373 . S
C1832 C1834 1.389 . S
C1833 H1812 0.950 . S
C1833 C1832 1.373 . S
C1833 C1849 1.377 . S
C1834 C1832 1.389 . S
C1834 C1835 1.524 . S
C1834 C1848 1.377 . S
C1835 C1834 1.524 . S
C1835 C1836 1.397 . S
C1835 C1840 1.363 . S
C1836 H1813 0.950 . S
C1836 C1835 1.397 . S
C1836 C1837 1.334 . S
C1837 H1814 0.950 . S
C1837 C1836 1.334 . S
C1837 C1838 1.287 . S
C1838 C1837 1.287 . S
C1838 C1839 1.524 . S
C1838 H1857 0.913 . S
C1839 H1815 0.950 . S
C1839 C1838 1.524 . S
C1839 C1840 1.415 . S
C1840 H1816 0.950 . S
C1840 C1835 1.363 . S
C1840 C1839 1.415 . S
C1841 H1817 0.951 . S
C1841 C1842 1.366 . S
C1841 C1843 1.388 . S
C1842 C1841 1.366 . S
C1842 C1846 1.385 . S
C1843 H1818 0.951 . S
C1843 C1841 1.388 . S
C1843 C1844 1.366 . S
C1844 C1843 1.366 . S
C1844 C1845 1.414 . S
C1844 C1847 1.499 . S
C1845 H1819 0.950 . S
C1845 C1844 1.414 . S
C1845 C1846 1.374 . S
C1846 H1820 0.950 . S
C1846 C1842 1.385 . S
C1846 C1845 1.374 . S
C1847 C1844 1.499 . S
C1847 C1848 1.373 . S
C1847 C1849 1.389 . S
C1848 H1821 0.950 . S
C1848 C1834 1.377 . S
C1848 C1847 1.373 . S
C1849 C1833 1.377 . S
C1849 C1847 1.389 . S
C1849 C1850 1.524 . S
C1850 C1849 1.524 . S
C1850 C1851 1.397 . S
C1850 C1855 1.363 . S
C1851 H1822 0.950 . S
C1851 C1850 1.397 . S
C1851 C1852 1.334 . S
C1852 H1823 0.950 . S
C1852 C1851 1.334 . S
C1852 C1853 1.287 . S
C1853 C1852 1.287 . S
C1853 C1854 1.524 . S
C1853 H1856 0.999 . S
C1854 H1824 0.950 . S
C1854 C1853 1.524 . S
C1854 C1855 1.415 . S
C1855 H1825 0.950 . S
C1855 C1850 1.363 . S
C1855 C1854 1.415 . S
H1856 C1853 0.999 . S
H1857 C1838 0.913 . S
H1858 C1876 0.951 . S
H1859 C1878 0.951 . S
H1860 C1880 0.950 . S
H1861 C1881 0.950 . S
H1862 C1883 0.950 . S
H1863 C1886 0.950 . S
H1864 C1887 0.950 . S
H1865 C1889 0.950 . S
H1866 C1890 0.950 . S
H1867 C1891 0.951 . S
H1868 C1893 0.951 . S
H1869 C1895 0.950 . S
H1870 C1896 0.950 . S
H1871 C1898 0.950 . S
H1872 C1901 0.950 . S
H1873 C1902 0.950 . S
H1874 C1904 0.950 . S
H1875 C1905 0.950 . S
C1876 H1858 0.951 . S
C1876 C1877 1.366 . S
C1876 C1878 1.388 . S
C1877 C1876 1.366 . S
C1877 C1881 1.385 . S
C1878 H1859 0.951 . S
C1878 C1876 1.388 . S
C1878 C1879 1.366 . S
C1879 C1878 1.366 . S
C1879 C1880 1.414 . S
C1879 C1882 1.499 . S
C1880 H1860 0.950 . S
C1880 C1879 1.414 . S
C1880 C1881 1.374 . S
C1881 H1861 0.950 . S
C1881 C1877 1.385 . S
C1881 C1880 1.374 . S
C1882 C1879 1.499 . S
C1882 C1883 1.373 . S
C1882 C1884 1.389 . S
C1883 H1862 0.950 . S
C1883 C1882 1.373 . S
C1883 C1899 1.377 . S
C1884 C1882 1.389 . S
C1884 C1885 1.524 . S
C1884 C1898 1.377 . S
C1885 C1884 1.524 . S
C1885 C1886 1.397 . S
C1885 C1890 1.363 . S
C1886 H1863 0.950 . S
C1886 C1885 1.397 . S
C1886 C1887 1.334 . S
C1887 H1864 0.950 . S
C1887 C1886 1.334 . S
C1887 C1888 1.287 . S
C1888 C1887 1.287 . S
C1888 C1889 1.524 . S
C1888 H1907 0.913 . S
C1889 H1865 0.950 . S
C1889 C1888 1.524 . S
C1889 C1890 1.415 . S
C1890 H1866 0.950 . S
C1890 C1885 1.363 . S
C1890 C1889 1.415 . S
C1891 H1867 0.951 . S
C1891 C1892 1.366 . S
C1891 C1893 1.388 . S
C1892 C1891 1.366 . S
C1892 C1896 1.385 . S
C1893 H1868 0.951 . S
C1893 C1891 1.388 . S
C1893 C1894 1.366 . S
C1894 C1893 1.366 . S
C1894 C1895 1.414 . S
C1894 C1897 1.499 . S
C1895 H1869 0.950 . S
C1895 C1894 1.414 . S
C1895 C1896 1.374 . S
C1896 H1870 0.950 . S
C1896 C1892 1.385 . S
C1896 C1895 1.374 . S
C1897 C1894 1.499 . S
C1897 C1898 1.373 . S
C1897 C1899 1.389 . S
C1898 H1871 0.950 . S
C1898 C1884 1.377 . S
C1898 C1897 1.373 . S
C1899 C1883 1.377 . S
C1899 C1897 1.389 . S
C1899 C1900 1.524 . S
C1900 C1899 1.524 . S
C1900 C1901 1.397 . S
C1900 C1905 1.363 . S
C1901 H1872 0.950 . S
C1901 C1900 1.397 . S
C1901 C1902 1.334 . S
C1902 H1873 0.950 . S
C1902 C1901 1.334 . S
C1902 C1903 1.287 . S
C1903 C1902 1.287 . S
C1903 C1904 1.524 . S
C1903 H1906 0.999 . S
C1904 H1874 0.950 . S
C1904 C1903 1.524 . S
C1904 C1905 1.415 . S
C1905 H1875 0.950 . S
C1905 C1900 1.363 . S
C1905 C1904 1.415 . S
H1906 C1903 0.999 . S
H1907 C1888 0.913 . S
C727 C583 2.138 1_554 S
C742 C52 2.137 . S
C777 C111 2.137 . S
C792 C642 2.137 . S
C827 C701 2.137 . S
C842 C170 2.137 . S
C877 C406 2.137 . S
C892 C229 2.137 . S
C927 C465 2.137 . S
C942 C288 2.137 1_556 S
C977 C524 2.137 . S
C992 C347 2.137 . S
C1027 C387 1.550 . S
C1042 C33 1.550 . S
C1077 C92 1.551 . S
C1092 C446 1.551 . S
C1127 C505 1.550 . S
C1142 C151 1.550 . S
C1177 C210 1.551 . S
C1192 C564 1.551 . S
C1227 C623 1.550 . S
C1242 C269 1.551 . S
C1277 C328 1.551 . S
C1292 C682 1.551 . S
C1327 C534 0.940 . S
C1342 C3 0.939 . S
C1377 C593 0.939 . S
C1392 C62 0.939 . S
C1427 C652 0.939 . S
C1442 C121 0.940 . S
C1477 C180 0.940 . S
C1492 C357 0.939 . S
C1527 C416 0.940 . S
C1542 C239 0.939 . S
C1577 C298 0.940 . S
C1592 C475 0.939 . S
C1627 C5 1.141 . S
C1642 C477 1.141 . S
C1677 C536 1.141 . S
C1692 C64 1.141 . S
C1727 C595 1.140 . S
C1742 C123 1.140 . S
C1777 C654 1.141 . S
C1792 C182 1.141 . S
C1827 C359 1.141 . S
C1842 C241 1.141 . S
C1877 C418 1.140 . S
C1892 C300 1.140 . S
