# Generated by pormake.
# Topology vby, (6)-cn, num edge types: 1
# Building blocks:
#     Node 0, Type 0, BuildingBlock: CUKXOW_clean_sbu_0, # of connection points: 6
#     Node 1, Type 0, BuildingBlock: CUKXOW_clean_sbu_0, # of connection points: 6
#     Node 2, Type 0, BuildingBlock: CUKXOW_clean_sbu_0, # of connection points: 6
#     Node 3, Type 0, BuildingBlock: CUKXOW_clean_sbu_0, # of connection points: 6
#     Node 4, Type 0, BuildingBlock: CUKXOW_clean_sbu_0, # of connection points: 6
#     Node 5, Type 0, BuildingBlock: CUKXOW_clean_sbu_0, # of connection points: 6
#     Node 6, Type 0, BuildingBlock: CUKXOW_clean_sbu_0, # of connection points: 6
#     Node 7, Type 0, BuildingBlock: CUKXOW_clean_sbu_0, # of connection points: 6
#     Edge 8, Type (0, 0), BuildingBlock: AJUNOK_clean_linker_0, # of connection points: 2
#     Edge 9, Type (0, 0), BuildingBlock: AJUNOK_clean_linker_0, # of connection points: 2
#     Edge 10, Type (0, 0), BuildingBlock: AJUNOK_clean_linker_0, # of connection points: 2
#     Edge 11, Type (0, 0), BuildingBlock: AJUNOK_clean_linker_0, # of connection points: 2
#     Edge 12, Type (0, 0), BuildingBlock: AJUNOK_clean_linker_0, # of connection points: 2
#     Edge 13, Type (0, 0), BuildingBlock: AJUNOK_clean_linker_0, # of connection points: 2
#     Edge 14, Type (0, 0), BuildingBlock: AJUNOK_clean_linker_0, # of connection points: 2
#     Edge 15, Type (0, 0), BuildingBlock: AJUNOK_clean_linker_0, # of connection points: 2
#     Edge 16, Type (0, 0), BuildingBlock: AJUNOK_clean_linker_0, # of connection points: 2
#     Edge 17, Type (0, 0), BuildingBlock: AJUNOK_clean_linker_0, # of connection points: 2
#     Edge 18, Type (0, 0), BuildingBlock: AJUNOK_clean_linker_0, # of connection points: 2
#     Edge 19, Type (0, 0), BuildingBlock: AJUNOK_clean_linker_0, # of connection points: 2
#     Edge 20, Type (0, 0), BuildingBlock: AJUNOK_clean_linker_0, # of connection points: 2
#     Edge 21, Type (0, 0), BuildingBlock: AJUNOK_clean_linker_0, # of connection points: 2
#     Edge 22, Type (0, 0), BuildingBlock: AJUNOK_clean_linker_0, # of connection points: 2
#     Edge 23, Type (0, 0), BuildingBlock: AJUNOK_clean_linker_0, # of connection points: 2
#     Edge 24, Type (0, 0), BuildingBlock: AJUNOK_clean_linker_0, # of connection points: 2
#     Edge 25, Type (0, 0), BuildingBlock: AJUNOK_clean_linker_0, # of connection points: 2
#     Edge 26, Type (0, 0), BuildingBlock: AJUNOK_clean_linker_0, # of connection points: 2
#     Edge 27, Type (0, 0), BuildingBlock: AJUNOK_clean_linker_0, # of connection points: 2
#     Edge 28, Type (0, 0), BuildingBlock: AJUNOK_clean_linker_0, # of connection points: 2
#     Edge 29, Type (0, 0), BuildingBlock: AJUNOK_clean_linker_0, # of connection points: 2
#     Edge 30, Type (0, 0), BuildingBlock: AJUNOK_clean_linker_0, # of connection points: 2
#     Edge 31, Type (0, 0), BuildingBlock: AJUNOK_clean_linker_0, # of connection points: 2
# Relax obj value: 0.104
# Max RMSD: 0.176
# Mean RMSD: 0.176
data_MOF--net-vby--node1-CUKXOW_clean_sbu_0--edge1-AJUNOK_clean_linker_0
_symmetry_space_group_name_H-M    P1
_symmetry_Int_Tables_number       1
_symmetry_cell_setting            triclinic
loop_
_symmetry_equiv_pos_as_xyz
'x, y, z'
_cell_length_a     13.931144
_cell_length_b     37.246547
_cell_length_c     22.241346
_cell_angle_alpha  102.0752
_cell_angle_beta   91.333678
_cell_angle_gamma 89.847218
loop_
_atom_site_label
_atom_site_type_symbol
_atom_site_fract_x
_atom_site_fract_y
_atom_site_fract_z
_atom_type_partial_charge
Tb0 Tb 0.95516 0.38954 0.01544 0.0
C1 C 0.02777 0.41415 0.15087 0.0
Tb2 Tb 0.15866 0.41241 0.03437 0.0
O3 O 1.00706 0.33202 0.98384 0.0
O4 O 0.08062 0.36849 0.05082 0.0
O5 O 0.95289 0.40806 0.1132 0.0
C6 C 0.34907 0.40446 0.02785 0.0
O7 O 0.11766 0.41316 0.13061 0.0
C8 C 0.04798 0.4692 0.03954 0.0
C9 C 0.05576 0.39613 0.89735 0.0
O10 O 0.30483 0.43346 0.05696 0.0
O11 O 0.28604 0.38019 0.00243 0.0
O12 O 0.12818 0.46912 0.07063 0.0
O13 O 0.03527 0.43769 0.00453 0.0
O14 O 0.13729 0.40277 0.9313 0.0
O15 O 0.97289 0.39291 0.9226 0.0
C16 C 0.76366 0.39069 0.01812 0.0
O17 O 0.8151 0.36182 -0.0031 0.0
O18 O 0.82015 0.41841 0.03768 0.0
C19 C 0.08359 0.33674 0.01919 0.0
Tb20 Tb 0.86727 0.66781 0.98447 0.0
C21 C 0.98172 0.6783 0.11711 0.0
Tb22 Tb 0.07177 0.68746 -0.00172 0.0
O23 O 0.89047 0.61117 0.9433 0.0
O24 O 0.9902 0.63945 0.00811 0.0
O25 O 0.89643 0.67803 0.08737 0.0
C26 C 0.2628 0.6894 0.99165 0.0
O27 O 0.06242 0.67702 0.08771 0.0
C28 C 0.94575 0.7422 8e-05 0.0
C29 C 0.99049 0.66686 0.86568 0.0
O30 O 0.21035 0.71566 0.02183 0.0
O31 O 0.20751 0.66264 0.96507 0.0
O32 O 0.02289 0.74532 0.03462 0.0
O33 O 0.94671 0.711 0.96712 0.0
O34 O 0.06681 0.66643 0.90111 0.0
O35 O 0.9028 0.67194 0.88914 0.0
C36 C 0.67714 0.67574 0.99158 0.0
O37 O 0.72137 0.64714 0.96131 0.0
O38 O 0.74003 0.69961 0.01867 0.0
C39 C 0.97234 0.60894 0.97136 0.0
Tb40 Tb 0.97641 0.69528 0.49909 0.0
C41 C 0.05952 0.67632 0.37395 0.0
Tb42 Tb 0.18781 0.67727 0.49567 0.0
O43 O 0.02018 0.74953 0.48039 0.0
O44 O 0.10645 0.72315 0.53194 0.0
O45 O 0.98518 0.66986 0.40491 0.0
C46 C 0.37524 0.69157 0.50187 0.0
O47 O 0.14573 0.68402 0.40118 0.0
C48 C 0.10102 0.61412 0.47439 0.0
C49 C 0.06564 0.67455 0.61402 0.0
O50 O 0.31482 0.7006 0.46231 0.0
O51 O 0.33029 0.67402 0.5373 0.0
O52 O 0.19333 0.61825 0.47236 0.0
O53 O 0.06065 0.64556 0.48295 0.0
O54 O 0.15167 0.68126 0.59325 0.0
O55 O 0.9864 0.67373 0.58047 0.0
C56 C 0.78725 0.70518 0.50625 0.0
O57 O 0.84616 0.70811 0.55312 0.0
O58 O 0.83466 0.69645 0.456 0.0
C59 C 0.1021 0.75093 0.50931 0.0
Tb60 Tb 0.84317 0.42208 0.53347 0.0
C61 C 0.94918 0.42185 0.40648 0.0
Tb62 Tb 0.05273 0.40008 0.51425 0.0
O63 O 0.84497 0.48105 0.54284 0.0
O64 O 0.97198 0.4503 0.52753 0.0
O65 O 0.86716 0.41461 0.43208 0.0
C66 C 0.24318 0.39514 0.52036 0.0
O67 O 0.03168 0.42395 0.43659 0.0
C68 C 0.91993 0.34695 0.49966 0.0
C69 C 0.98088 0.41622 0.64915 0.0
O70 O 0.1886 0.37547 0.47785 0.0
O71 O 0.19041 0.41712 0.55871 0.0
O72 O 0.99611 0.34469 0.46654 0.0
O73 O 0.92584 0.37636 0.53815 0.0
O74 O 0.05537 0.4104 0.613 0.0
O75 O 0.89085 0.41865 0.62797 0.0
C76 C 0.65613 0.40884 0.53059 0.0
O77 O 0.70141 0.43286 0.5724 0.0
O78 O 0.71614 0.39256 0.49001 0.0
C79 C 0.93646 0.48241 0.53328 0.0
Tb80 Tb 0.47274 0.88763 0.00297 0.0
C81 C 0.55368 0.91668 0.13519 0.0
Tb82 Tb 0.68212 0.90988 0.0148 0.0
O83 O 0.52725 0.8302 0.96994 0.0
O84 O 0.60189 0.86732 0.03415 0.0
O85 O 0.47676 0.90772 0.09998 0.0
C86 C 0.86953 0.89658 0.01505 0.0
O87 O 0.64222 0.91618 0.11271 0.0
C88 C 0.59173 0.96894 0.0064 0.0
C89 C 0.56081 0.90033 0.88618 0.0
O90 O 0.82675 0.92322 0.05182 0.0
O91 O 0.80669 0.87755 0.97748 0.0
O92 O 0.68421 0.96714 0.01403 0.0
O93 O 0.55237 0.93779 0.00552 0.0
O94 O 0.64699 0.89719 0.91306 0.0
O95 O 0.48196 0.90345 0.91765 0.0
C96 C 0.28275 0.88217 0.0116 0.0
O97 O 0.33497 0.86031 0.97224 0.0
O98 O 0.33765 0.90656 0.04561 0.0
C99 C 0.60507 0.83545 0.00385 0.0
Tb100 Tb 0.34296 0.16936 0.97838 0.0
C101 C 0.46496 0.1702 0.1042 0.0
Tb102 Tb 0.55246 0.1881 0.99197 0.0
O103 O 0.33433 0.11112 0.96828 0.0
O104 O 0.4695 0.13793 0.98108 0.0
O105 O 0.3803 0.17808 0.07977 0.0
C106 C 0.74253 0.19481 0.98673 0.0
O107 O 0.54144 0.16479 0.07046 0.0
C108 C 0.42477 0.24302 0.00409 0.0
C109 C 0.4684 0.17121 0.8589 0.0
O110 O 0.68982 0.21258 0.03043 0.0
O111 O 0.68813 0.17357 0.94656 0.0
O112 O 0.5024 0.24452 0.0378 0.0
O113 O 0.42585 0.21314 0.96736 0.0
O114 O 0.54712 0.17431 0.89345 0.0
O115 O 0.38061 0.17203 0.88256 0.0
C116 C 0.1558 0.18296 0.98096 0.0
O117 O 0.19889 0.15958 0.93862 0.0
O118 O 0.21821 0.1986 0.02249 0.0
C119 C 0.42605 0.10709 0.97511 0.0
Tb120 Tb 0.46575 0.19401 0.48429 0.0
C121 C 0.54807 0.16615 0.36256 0.0
Tb122 Tb 0.67314 0.17671 0.48804 0.0
O123 O 0.50937 0.24442 0.45223 0.0
O124 O 0.59328 0.22428 0.51478 0.0
O125 O 0.47644 0.15977 0.39575 0.0
C126 C 0.86168 0.18961 0.4956 0.0
O127 O 0.6328 0.17723 0.38978 0.0
C128 C 0.59132 0.1134 0.47503 0.0
C129 C 0.55069 0.18937 0.61204 0.0
O130 O 0.80347 0.1982 0.45445 0.0
O131 O 0.81368 0.17361 0.53174 0.0
O132 O 0.68322 0.11807 0.4728 0.0
O133 O 0.54714 0.14389 0.47826 0.0
O134 O 0.63747 0.18425 0.58713 0.0
O135 O 0.47346 0.19422 0.57987 0.0
C136 C 0.2756 0.20035 0.49501 0.0
O137 O 0.33327 0.18645 0.53033 0.0
O138 O 0.32506 0.21098 0.45319 0.0
C139 C 0.58917 0.24854 0.48385 0.0
Tb140 Tb 0.35824 0.91352 0.50824 0.0
C141 C 0.47724 0.91042 0.38688 0.0
Tb142 Tb 0.56178 0.89868 0.50839 0.0
O143 O 0.35899 0.96813 0.49417 0.0
O144 O 0.47943 0.94893 0.53806 0.0
O145 O 0.3919 0.90375 0.40862 0.0
C146 C 0.75254 0.89269 0.49847 0.0
O147 O 0.55487 0.91367 0.42167 0.0
C148 C 0.44204 0.84038 0.49064 0.0
C149 C 0.48268 0.91662 0.63359 0.0
O150 O 0.69563 0.90873 0.46563 0.0
O151 O 0.70179 0.87943 0.53685 0.0
O152 O 0.51911 0.84368 0.52495 0.0
O153 O 0.43809 0.86827 0.46831 0.0
O154 O 0.55486 0.92461 0.60235 0.0
O155 O 0.39712 0.90849 0.60519 0.0
C156 C 0.1671 0.90599 0.50829 0.0
O157 O 0.22798 0.88749 0.53465 0.0
O158 O 0.21389 0.92896 0.48393 0.0
C159 C 0.44725 0.97434 0.51213 0.0
C160 C 0.51458 0.42849 0.05435 0.0
C161 C 0.45421 0.39979 0.0246 0.0
C162 C 0.61456 0.42505 0.05197 0.0
C163 C 0.65793 0.39268 0.02011 0.0
H164 H 0.48449 0.45392 0.07955 0.0
H165 H 0.65816 0.448 0.07544 0.0
S166 S 0.53188 0.30969 0.93331 0.0
N167 N 0.44478 0.33807 0.9612 0.0
N168 N 0.63315 0.33149 0.95755 0.0
C169 C 0.59857 0.36368 0.99025 0.0
C170 C 0.49651 0.36727 0.99227 0.0
C171 C 0.41324 0.65603 0.95888 0.0
C172 C 0.36854 0.68797 0.99109 0.0
C173 C 0.51311 0.65244 0.95954 0.0
C174 C 0.57212 0.68066 0.99241 0.0
H175 H 0.37075 0.63333 0.93332 0.0
H176 H 0.54417 0.62724 0.93421 0.0
S177 S 0.49094 0.77033 0.08321 0.0
N178 N 0.39067 0.74873 0.05591 0.0
N179 N 0.57917 0.74199 0.05728 0.0
C180 C 0.52866 0.713 0.02435 0.0
C181 C 0.42657 0.71667 0.02362 0.0
C182 C 0.63473 0.69555 0.55664 0.0
C183 C 0.68206 0.70668 0.50856 0.0
C184 C 0.53469 0.69147 0.55474 0.0
C185 C 0.47908 0.69904 0.50527 0.0
H186 H 0.67547 0.68832 0.59446 0.0
H187 H 0.50099 0.68158 0.5916 0.0
S188 S 0.56863 0.7338 0.3724 0.0
N189 N 0.66626 0.72816 0.41294 0.0
N190 N 0.47786 0.72156 0.41019 0.0
C191 C 0.52527 0.71233 0.45886 0.0
C192 C 0.6271 0.71584 0.46028 0.0
C193 C 0.49502 0.42461 0.57271 0.0
C194 C 0.55194 0.40247 0.52856 0.0
C195 C 0.39525 0.42117 0.57017 0.0
C196 C 0.34872 0.39544 0.52341 0.0
H197 H 0.5275 0.44534 0.60891 0.0
H198 H 0.35426 0.43943 0.60457 0.0
S199 S 0.4659 0.32868 0.39968 0.0
N200 N 0.55568 0.35228 0.43879 0.0
N201 N 0.36698 0.34586 0.43399 0.0
C202 C 0.40479 0.37217 0.48009 0.0
C203 C 0.50687 0.37568 0.48269 0.0
C204 C 0.0331 0.91525 0.0554 0.0
C205 C 0.97385 0.89011 0.01544 0.0
C206 C 0.13285 0.91158 0.05479 0.0
C207 C 0.17717 0.88261 0.0142 0.0
H208 H 1.00246 0.93847 0.08665 0.0
H209 H 0.17554 0.93219 0.08553 0.0
S210 S 0.05366 0.80723 0.9046 0.0
N211 N 0.96578 0.83369 0.93714 0.0
N212 N 0.15431 0.82675 0.93604 0.0
C213 C 0.11882 0.85637 0.97559 0.0
C214 C 0.01674 0.86013 0.97621 0.0
C215 C 0.99316 0.16756 0.93613 0.0
C216 C 0.05147 0.18913 0.98205 0.0
C217 C 0.89335 0.17058 0.93742 0.0
C218 C 0.84805 0.19525 0.98473 0.0
H219 H 0.02461 0.14756 0.89943 0.0
H220 H 0.85141 0.15274 0.90169 0.0
S221 S 0.96887 0.26068 0.11258 0.0
N222 N 0.0577 0.23798 0.07378 0.0
N223 N 0.8689 0.24358 0.07637 0.0
C224 C 0.90544 0.21808 0.02976 0.0
C225 C 1.00761 0.21503 0.02838 0.0
C226 C 0.11315 0.21196 0.4533 0.0
C227 C 0.17022 0.20058 0.4988 0.0
C228 C 0.01275 0.20928 0.45343 0.0
C229 C 0.96655 0.19501 0.49892 0.0
H230 H 0.14624 0.22219 0.41658 0.0
H231 H 0.97129 0.21765 0.4169 0.0
S232 S 0.08367 0.16409 0.63087 0.0
N233 N 0.1733 0.1766 0.59253 0.0
N234 N 0.98509 0.17137 0.59258 0.0
C235 C 0.02279 0.18474 0.54582 0.0
C236 C 0.12467 0.18756 0.54579 0.0
C237 C 0.91435 0.87622 0.53606 0.0
C238 C 0.85832 0.89371 0.49721 0.0
C239 C 0.01489 0.87959 0.53874 0.0
C240 C 0.06204 0.90098 0.50333 0.0
H241 H 0.8803 0.86032 0.56523 0.0
H242 H 0.05563 0.86602 0.56959 0.0
S243 S 0.94837 0.95013 0.3912 0.0
N244 N 0.85786 0.93132 0.42001 0.0
N245 N 0.04574 0.93812 0.42573 0.0
C246 C 1.00688 0.91771 0.46312 0.0
C247 C 0.90516 0.91395 0.45989 0.0
C248 C 0.03672 0.57123 0.0439 0.0
C249 C 0.99829 0.57306 0.9857 0.0
C250 C 0.04725 0.53748 0.06173 0.0
C251 C 0.02019 0.50415 0.02209 0.0
H252 H 0.05677 0.59606 0.07657 0.0
H253 H 0.07817 0.53746 0.10689 0.0
S254 S 0.91814 0.49404 0.86382 0.0
N255 N 0.93466 0.53869 0.88778 0.0
N256 N 0.95405 0.47531 0.92149 0.0
C257 C 0.98163 0.50561 0.9637 0.0
C258 C 0.97131 0.54 0.9454 0.0
C259 C 0.92371 0.54603 0.51466 0.0
C260 C 0.98188 0.51546 0.51889 0.0
C261 C 0.96145 0.57743 0.49818 0.0
C262 C 0.05886 0.57943 0.4849 0.0
H263 H 0.84781 0.5458 0.52407 0.0
H264 H 0.9143 0.60043 0.4967 0.0
S265 S 0.24253 0.50716 0.49085 0.0
N266 N 0.14194 0.48962 0.51007 0.0
N267 N 0.21357 0.54789 0.47764 0.0
C268 C 0.11791 0.5489 0.48872 0.0
C269 C 0.07938 0.51715 0.50623 0.0
C270 C 0.60246 1.0355 0.00672 0.0
C271 C 0.54547 1.00343 -0.0012 0.0
C272 C 0.56443 0.06885 -0.00226 0.0
C273 C 0.46794 0.07136 0.98036 0.0
H274 H 0.67761 1.03498 0.02014 0.0
H275 H 0.61062 0.0928 0.00511 0.0
S276 S 0.28862 0.99523 0.95227 0.0
N277 N 0.38839 0.97623 0.97205 0.0
N278 N 0.31579 1.03862 0.95433 0.0
C279 C 0.4101 1.03938 0.97176 0.0
C280 C 0.44905 1.00548 0.98129 0.0
C281 C 0.61262 0.0474 0.47922 0.0
C282 C 0.55194 0.07845 0.4859 0.0
C283 C 0.58172 1.01424 0.49308 0.0
C284 C 0.48898 1.01098 0.51421 0.0
H285 H 0.68465 0.04851 0.46236 0.0
H286 H 0.62883 0.99062 0.48423 0.0
S287 S 0.3051 0.08477 0.54518 0.0
N288 N 0.39725 0.10424 0.51911 0.0
N289 N 0.33836 1.04214 0.54496 0.0
C290 C 0.42874 1.04216 0.52316 0.0
C291 C 0.46024 0.07582 0.50894 0.0
C292 C 0.18434 0.28356 0.96675 0.0
C293 C 0.1688 0.31211 0.01768 0.0
C294 C 0.26844 0.26226 0.96277 0.0
C295 C 0.34023 0.26814 0.00987 0.0
H296 H 0.13206 0.27802 0.92913 0.0
H297 H 0.2769 0.24068 0.92226 0.0
S298 S 0.33399 0.33922 0.15351 0.0
N299 N 0.23235 0.34492 0.11695 0.0
N300 N 0.38966 0.30478 0.10895 0.0
C301 C 0.32558 0.29649 0.06111 0.0
C302 C 0.2399 0.31828 0.06527 0.0
C303 C 0.70763 0.78162 0.95501 0.0
C304 C 0.69059 0.81114 0.00413 0.0
C305 C 0.79174 0.76039 0.95377 0.0
C306 C 0.86204 0.76751 0.00179 0.0
H307 H 0.65638 0.77513 0.91692 0.0
H308 H 0.8013 0.73788 0.91481 0.0
S309 S 0.85072 0.84117 0.14181 0.0
N310 N 0.75068 0.84594 0.10296 0.0
N311 N 0.90801 0.80618 0.09984 0.0
C312 C 0.84589 0.79691 0.05109 0.0
C313 C 0.76023 0.81849 0.05257 0.0
C314 C 0.2669 0.77522 0.54438 0.0
C315 C 0.18683 0.77449 0.50395 0.0
C316 C 0.35047 0.79551 0.53894 0.0
C317 C 0.35734 0.81609 0.49293 0.0
H318 H 0.26513 0.75981 0.5806 0.0
H319 H 0.40935 0.79551 0.57161 0.0
S320 S 0.16922 0.82266 0.37425 0.0
N321 N 0.12087 0.79584 0.41585 0.0
N322 N 0.27719 0.83345 0.40484 0.0
C323 C 0.27819 0.81515 0.45168 0.0
C324 C 0.19301 0.79473 0.45758 0.0
C325 C 0.80997 0.29702 0.43854 0.0
C326 C 0.83527 0.3216 0.49392 0.0
C327 C 0.7265 0.27479 0.43376 0.0
C328 C 0.66654 0.27605 0.48444 0.0
H329 H 0.85442 0.2951 0.3987 0.0
H330 H 0.71064 0.25563 0.3909 0.0
S331 S 0.69978 0.33545 0.63912 0.0
N332 N 0.79133 0.34571 0.6 0.0
N333 N 0.63786 0.30374 0.59088 0.0
C334 C 0.69103 0.30042 0.53952 0.0
C335 C 0.77443 0.32319 0.5443 0.0
C336 C 0.92946 0.39797 0.23351 0.0
C337 C 1.00668 0.41803 0.21648 0.0
C338 C 0.90476 0.40141 0.29523 0.0
C339 C 0.9559 0.42533 0.34183 0.0
H340 H 0.88938 0.3786 0.19891 0.0
H341 H 0.84909 0.38387 0.30663 0.0
S342 S 0.15379 0.48812 0.32046 0.0
N343 N 0.12728 0.46504 0.25028 0.0
N344 N 0.08013 0.47249 0.3662 0.0
C345 C 0.02939 0.44716 0.32486 0.0
C346 C 0.05537 0.44315 0.26224 0.0
C347 C 0.07788 0.65954 0.20107 0.0
C348 C 0.99335 0.67601 0.18259 0.0
C349 C 0.10105 0.66071 0.26304 0.0
C350 C 0.03995 0.67796 0.30906 0.0
H351 H 0.12781 0.64578 0.16724 0.0
H352 H 0.16606 0.64745 0.27484 0.0
S353 S 0.81257 0.72661 0.28645 0.0
N354 N 0.85041 0.711 0.21599 0.0
N355 N 0.89243 0.71291 0.3329 0.0
C356 C 0.95492 0.69441 0.29158 0.0
C357 C 0.93171 0.69337 0.22826 0.0
C358 C 0.94837 0.65183 0.75339 0.0
C359 C 1.00946 0.66886 0.80165 0.0
C360 C 0.96997 0.65247 0.69242 0.0
C361 C 0.05288 0.67045 0.67783 0.0
H362 H 0.88442 0.6376 0.76268 0.0
H363 H 0.92056 0.63903 0.65641 0.0
S364 S 0.23217 0.72148 0.78863 0.0
N365 N 0.15422 0.70569 0.83154 0.0
N366 N 0.19403 0.70668 0.71694 0.0
C367 C 0.11433 0.68761 0.72579 0.0
C368 C 0.09252 0.68701 0.78776 0.0
C369 C 0.94081 0.39139 0.74058 0.0
C370 C 1.0001 0.41346 0.71354 0.0
C371 C 0.96479 0.38376 0.79793 0.0
C372 C 0.04789 0.39866 0.83172 0.0
H373 H 0.87662 0.37907 0.7166 0.0
H374 H 0.91588 0.36658 0.81665 0.0
S375 S 0.22659 0.45878 0.78075 0.0
N376 N 0.14683 0.44974 0.72341 0.0
N377 N 0.18934 0.43685 0.83328 0.0
C378 C 0.10843 0.42064 0.80494 0.0
C379 C 0.08485 0.42783 0.74556 0.0
C380 C 0.60594 0.90688 0.23805 0.0
C381 C 0.53771 0.92053 0.20153 0.0
C382 C 0.5837 0.90285 0.29721 0.0
C383 C 0.49247 0.91237 0.32228 0.0
H384 H 0.67541 0.89771 0.21996 0.0
H385 H 0.63863 0.89167 0.3233 0.0
S386 S 0.29167 0.95273 0.24733 0.0
N387 N 0.37702 0.94607 0.19586 0.0
N388 N 0.33598 0.93822 0.30753 0.0
C389 C 0.42444 0.92699 0.287 0.0
C390 C 0.44712 0.93131 0.22667 0.0
C391 C 0.5757 0.16248 0.19144 0.0
C392 C 0.48118 0.16857 0.17034 0.0
C393 C 0.59723 0.16187 0.25319 0.0
C394 C 0.52517 0.16669 0.29684 0.0
H395 H 0.635 0.15839 0.16013 0.0
H396 H 0.67075 0.15728 0.26663 0.0
S397 S 0.2666 0.185 0.26734 0.0
N398 N 0.31577 0.18058 0.19938 0.0
N399 N 0.35469 0.17902 0.31518 0.0
C400 C 0.43012 0.17286 0.2767 0.0
C401 C 0.40853 0.17387 0.2137 0.0
C402 C 0.56606 0.1581 0.76403 0.0
C403 C 0.48278 0.17351 0.79412 0.0
C404 C 0.59082 0.16462 0.70633 0.0
C405 C 0.53377 0.18719 0.6769 0.0
H406 H 0.61296 0.14096 0.78554 0.0
H407 H 0.65367 0.15123 0.68413 0.0
S408 S 0.31344 0.23705 0.73918 0.0
N409 N 0.34661 0.21388 0.7918 0.0
N410 N 0.39298 0.22692 0.68437 0.0
C411 C 0.45136 0.20346 0.70736 0.0
C412 C 0.4257 0.19635 0.76556 0.0
C413 C 0.43137 0.90463 0.73511 0.0
C414 C 0.50432 0.91304 0.69814 0.0
C415 C 0.4519 0.8995 0.79473 0.0
C416 C 0.54649 0.90247 0.82041 0.0
H417 H 0.35773 0.90193 0.71801 0.0
H418 H 0.39192 0.89332 0.82102 0.0
S419 S 0.7653 0.92206 0.74176 0.0
N420 N 0.67733 0.92269 0.691 0.0
N421 N 0.71394 0.91313 0.80313 0.0
C422 C 0.62056 0.91009 0.78366 0.0
C423 C 0.59996 0.91545 0.72275 0.0
loop_
_geom_bond_atom_site_label_1
_geom_bond_atom_site_label_2
_geom_bond_distance
_geom_bond_site_symmetry_2
_ccdc_geom_bond_type
Tb0 O3 2.453 1_655 S
Tb0 O4 2.596 1_655 S
Tb0 O5 2.374 1_556 S
Tb0 O13 2.343 1_556 S
Tb0 O15 2.353 1_655 S
Tb0 O17 2.427 . S
Tb0 O18 2.513 1_556 S
C1 O5 1.251 1_455 S
C1 O7 1.263 . S
Tb2 O4 2.343 1_554 S
Tb2 O7 2.353 . S
Tb2 O10 2.427 . S
Tb2 O11 2.513 1_554 S
Tb2 O12 2.453 . S
Tb2 O13 2.596 1_455 S
Tb2 O14 2.374 1_554 S
O3 Tb0 2.453 1_455 S
O3 C19 1.245 . S
O4 Tb0 2.596 1_455 S
O4 Tb2 2.343 1_556 S
O4 C19 1.259 . S
O5 Tb0 2.374 1_554 S
O5 C1 1.251 1_655 S
C6 O10 1.275 . S
C6 O11 1.246 1_554 S
O7 C1 1.263 . S
O7 Tb2 2.353 . S
C8 O12 1.245 . S
C8 O13 1.259 1_455 S
C9 O14 1.250 . S
C9 O15 1.263 . S
O10 Tb2 2.427 . S
O10 C6 1.275 . S
O11 Tb2 2.513 1_556 S
O11 C6 1.246 1_556 S
O12 Tb2 2.453 . S
O12 C8 1.245 . S
O13 Tb0 2.343 1_554 S
O13 Tb2 2.596 1_655 S
O13 C8 1.259 1_655 S
O14 Tb2 2.374 1_556 S
O14 C9 1.250 . S
O15 Tb0 2.353 1_455 S
O15 C9 1.263 . S
C16 O17 1.275 . S
C16 O18 1.246 1_556 S
O17 Tb0 2.427 . S
O17 C16 1.275 . S
O18 Tb0 2.513 1_554 S
O18 C16 1.246 1_554 S
C19 O3 1.245 . S
C19 O4 1.259 . S
Tb20 O23 2.453 . S
Tb20 O24 2.596 1_656 S
Tb20 O25 2.374 1_556 S
Tb20 O33 2.343 1_556 S
Tb20 O35 2.353 . S
Tb20 O37 2.427 . S
Tb20 O38 2.513 1_556 S
C21 O25 1.251 . S
C21 O27 1.263 . S
Tb22 O24 2.343 . S
Tb22 O27 2.353 1_455 S
Tb22 O30 2.427 . S
Tb22 O31 2.513 1_554 S
Tb22 O32 2.453 1_455 S
Tb22 O33 2.596 1_455 S
Tb22 O34 2.374 1_554 S
O23 Tb20 2.453 . S
O23 C39 1.245 1_556 S
O24 Tb20 2.596 1_454 S
O24 Tb22 2.343 . S
O24 C39 1.259 1_455 S
O25 Tb20 2.374 1_554 S
O25 C21 1.251 . S
C26 O30 1.275 . S
C26 O31 1.246 1_554 S
O27 C21 1.263 . S
O27 Tb22 2.353 1_655 S
C28 O32 1.245 . S
C28 O33 1.259 . S
C29 O34 1.250 1_655 S
C29 O35 1.263 . S
O30 Tb22 2.427 . S
O30 C26 1.275 . S
O31 Tb22 2.513 1_556 S
O31 C26 1.246 1_556 S
O32 Tb22 2.453 1_655 S
O32 C28 1.245 . S
O33 Tb20 2.343 1_554 S
O33 Tb22 2.596 1_655 S
O33 C28 1.259 . S
O34 Tb22 2.374 1_556 S
O34 C29 1.250 1_455 S
O35 Tb20 2.353 . S
O35 C29 1.263 . S
C36 O37 1.275 1_554 S
C36 O38 1.246 . S
O37 Tb20 2.427 . S
O37 C36 1.275 1_556 S
O38 Tb20 2.513 1_554 S
O38 C36 1.246 . S
C39 O23 1.245 1_554 S
C39 O24 1.259 1_655 S
Tb40 O43 2.453 1_655 S
Tb40 O44 2.596 1_655 S
Tb40 O45 2.374 . S
Tb40 O53 2.343 . S
Tb40 O55 2.353 1_655 S
Tb40 O57 2.427 . S
Tb40 O58 2.513 . S
C41 O45 1.251 1_455 S
C41 O47 1.263 . S
Tb42 O44 2.343 . S
Tb42 O47 2.353 . S
Tb42 O50 2.427 . S
Tb42 O51 2.513 . S
Tb42 O52 2.453 . S
Tb42 O53 2.596 1_455 S
Tb42 O54 2.374 . S
O43 Tb40 2.453 1_455 S
O43 C59 1.245 . S
O44 Tb40 2.596 1_455 S
O44 Tb42 2.343 . S
O44 C59 1.259 . S
O45 Tb40 2.374 . S
O45 C41 1.251 1_655 S
C46 O50 1.275 . S
C46 O51 1.246 . S
O47 C41 1.263 . S
O47 Tb42 2.353 . S
C48 O52 1.245 . S
C48 O53 1.259 1_455 S
C49 O54 1.250 . S
C49 O55 1.263 . S
O50 Tb42 2.427 . S
O50 C46 1.275 . S
O51 Tb42 2.513 . S
O51 C46 1.246 . S
O52 Tb42 2.453 . S
O52 C48 1.245 . S
O53 Tb40 2.343 . S
O53 Tb42 2.596 1_655 S
O53 C48 1.259 1_655 S
O54 Tb42 2.374 . S
O54 C49 1.250 . S
O55 Tb40 2.353 1_455 S
O55 C49 1.263 . S
C56 O57 1.275 . S
C56 O58 1.246 . S
O57 Tb40 2.427 . S
O57 C56 1.275 . S
O58 Tb40 2.513 . S
O58 C56 1.246 . S
C59 O43 1.245 . S
C59 O44 1.259 . S
Tb60 O63 2.453 . S
Tb60 O64 2.596 1_655 S
Tb60 O65 2.374 . S
Tb60 O73 2.343 . S
Tb60 O75 2.353 . S
Tb60 O77 2.427 . S
Tb60 O78 2.513 . S
C61 O65 1.251 . S
C61 O67 1.263 . S
Tb62 O64 2.343 . S
Tb62 O67 2.353 1_455 S
Tb62 O70 2.427 . S
Tb62 O71 2.513 . S
Tb62 O72 2.453 1_455 S
Tb62 O73 2.596 1_455 S
Tb62 O74 2.374 . S
O63 Tb60 2.453 . S
O63 C79 1.245 . S
O64 Tb60 2.596 1_455 S
O64 Tb62 2.343 . S
O64 C79 1.259 1_455 S
O65 Tb60 2.374 . S
O65 C61 1.251 . S
C66 O70 1.275 . S
C66 O71 1.246 . S
O67 C61 1.263 . S
O67 Tb62 2.353 1_655 S
C68 O72 1.245 . S
C68 O73 1.259 . S
C69 O74 1.250 1_655 S
C69 O75 1.263 . S
O70 Tb62 2.427 . S
O70 C66 1.275 . S
O71 Tb62 2.513 . S
O71 C66 1.246 . S
O72 Tb62 2.453 1_655 S
O72 C68 1.245 . S
O73 Tb60 2.343 . S
O73 Tb62 2.596 1_655 S
O73 C68 1.259 . S
O74 Tb62 2.374 . S
O74 C69 1.250 1_455 S
O75 Tb60 2.353 . S
O75 C69 1.263 . S
C76 O77 1.275 . S
C76 O78 1.246 . S
O77 Tb60 2.427 . S
O77 C76 1.275 . S
O78 Tb60 2.513 . S
O78 C76 1.246 . S
C79 O63 1.245 . S
C79 O64 1.259 1_655 S
Tb80 O83 2.453 . S
Tb80 O84 2.596 . S
Tb80 O85 2.374 1_556 S
Tb80 O93 2.343 1_556 S
Tb80 O95 2.353 . S
Tb80 O97 2.427 . S
Tb80 O98 2.513 1_556 S
C81 O85 1.251 . S
C81 O87 1.263 . S
Tb82 O84 2.343 1_554 S
Tb82 O87 2.353 . S
Tb82 O90 2.427 . S
Tb82 O91 2.513 1_554 S
Tb82 O92 2.453 . S
Tb82 O93 2.596 . S
Tb82 O94 2.374 1_554 S
O83 Tb80 2.453 . S
O83 C99 1.245 . S
O84 Tb80 2.596 . S
O84 Tb82 2.343 1_556 S
O84 C99 1.259 . S
O85 Tb80 2.374 1_554 S
O85 C81 1.251 . S
C86 O90 1.275 . S
C86 O91 1.246 1_554 S
O87 C81 1.263 . S
O87 Tb82 2.353 . S
C88 O92 1.245 . S
C88 O93 1.259 . S
C89 O94 1.250 . S
C89 O95 1.263 . S
O90 Tb82 2.427 . S
O90 C86 1.275 . S
O91 Tb82 2.513 1_556 S
O91 C86 1.246 1_556 S
O92 Tb82 2.453 . S
O92 C88 1.245 . S
O93 Tb80 2.343 1_554 S
O93 Tb82 2.596 . S
O93 C88 1.259 . S
O94 Tb82 2.374 1_556 S
O94 C89 1.250 . S
O95 Tb80 2.353 . S
O95 C89 1.263 . S
C96 O97 1.275 . S
C96 O98 1.246 1_556 S
O97 Tb80 2.427 . S
O97 C96 1.275 . S
O98 Tb80 2.513 1_554 S
O98 C96 1.246 1_554 S
C99 O83 1.245 . S
C99 O84 1.259 . S
Tb100 O103 2.453 . S
Tb100 O104 2.596 1_556 S
Tb100 O105 2.374 1_556 S
Tb100 O113 2.343 1_556 S
Tb100 O115 2.353 . S
Tb100 O117 2.427 . S
Tb100 O118 2.513 1_556 S
C101 O105 1.251 . S
C101 O107 1.263 . S
Tb102 O104 2.343 . S
Tb102 O107 2.353 . S
Tb102 O110 2.427 . S
Tb102 O111 2.513 1_554 S
Tb102 O112 2.453 . S
Tb102 O113 2.596 . S
Tb102 O114 2.374 1_554 S
O103 Tb100 2.453 . S
O103 C119 1.245 1_556 S
O104 Tb100 2.596 1_554 S
O104 Tb102 2.343 . S
O104 C119 1.259 . S
O105 Tb100 2.374 1_554 S
O105 C101 1.251 . S
C106 O110 1.275 . S
C106 O111 1.246 1_554 S
O107 C101 1.263 . S
O107 Tb102 2.353 . S
C108 O112 1.245 . S
C108 O113 1.259 . S
C109 O114 1.250 . S
C109 O115 1.263 . S
O110 Tb102 2.427 . S
O110 C106 1.275 . S
O111 Tb102 2.513 1_556 S
O111 C106 1.246 1_556 S
O112 Tb102 2.453 . S
O112 C108 1.245 . S
O113 Tb100 2.343 1_554 S
O113 Tb102 2.596 . S
O113 C108 1.259 . S
O114 Tb102 2.374 1_556 S
O114 C109 1.250 . S
O115 Tb100 2.353 . S
O115 C109 1.263 . S
C116 O117 1.275 1_554 S
C116 O118 1.246 . S
O117 Tb100 2.427 . S
O117 C116 1.275 1_556 S
O118 Tb100 2.513 1_554 S
O118 C116 1.246 . S
C119 O103 1.245 1_554 S
C119 O104 1.259 . S
Tb120 O123 2.453 . S
Tb120 O124 2.596 . S
Tb120 O125 2.374 . S
Tb120 O133 2.343 . S
Tb120 O135 2.353 . S
Tb120 O137 2.427 . S
Tb120 O138 2.513 . S
C121 O125 1.251 . S
C121 O127 1.263 . S
Tb122 O124 2.343 . S
Tb122 O127 2.353 . S
Tb122 O130 2.427 . S
Tb122 O131 2.513 . S
Tb122 O132 2.453 . S
Tb122 O133 2.596 . S
Tb122 O134 2.374 . S
O123 Tb120 2.453 . S
O123 C139 1.245 . S
O124 Tb120 2.596 . S
O124 Tb122 2.343 . S
O124 C139 1.259 . S
O125 Tb120 2.374 . S
O125 C121 1.251 . S
C126 O130 1.275 . S
C126 O131 1.246 . S
O127 C121 1.263 . S
O127 Tb122 2.353 . S
C128 O132 1.245 . S
C128 O133 1.259 . S
C129 O134 1.250 . S
C129 O135 1.263 . S
O130 Tb122 2.427 . S
O130 C126 1.275 . S
O131 Tb122 2.513 . S
O131 C126 1.246 . S
O132 Tb122 2.453 . S
O132 C128 1.245 . S
O133 Tb120 2.343 . S
O133 Tb122 2.596 . S
O133 C128 1.259 . S
O134 Tb122 2.374 . S
O134 C129 1.250 . S
O135 Tb120 2.353 . S
O135 C129 1.263 . S
C136 O137 1.275 . S
C136 O138 1.246 . S
O137 Tb120 2.427 . S
O137 C136 1.275 . S
O138 Tb120 2.513 . S
O138 C136 1.246 . S
C139 O123 1.245 . S
C139 O124 1.259 . S
Tb140 O143 2.453 . S
Tb140 O144 2.596 . S
Tb140 O145 2.374 . S
Tb140 O153 2.343 . S
Tb140 O155 2.353 . S
Tb140 O157 2.427 . S
Tb140 O158 2.513 . S
C141 O145 1.251 . S
C141 O147 1.263 . S
Tb142 O144 2.343 . S
Tb142 O147 2.353 . S
Tb142 O150 2.427 . S
Tb142 O151 2.513 . S
Tb142 O152 2.453 . S
Tb142 O153 2.596 . S
Tb142 O154 2.374 . S
O143 Tb140 2.453 . S
O143 C159 1.245 . S
O144 Tb140 2.596 . S
O144 Tb142 2.343 . S
O144 C159 1.259 . S
O145 Tb140 2.374 . S
O145 C141 1.251 . S
C146 O150 1.275 . S
C146 O151 1.246 . S
O147 C141 1.263 . S
O147 Tb142 2.353 . S
C148 O152 1.245 . S
C148 O153 1.259 . S
C149 O154 1.250 . S
C149 O155 1.263 . S
O150 Tb142 2.427 . S
O150 C146 1.275 . S
O151 Tb142 2.513 . S
O151 C146 1.246 . S
O152 Tb142 2.453 . S
O152 C148 1.245 . S
O153 Tb140 2.343 . S
O153 Tb142 2.596 . S
O153 C148 1.259 . S
O154 Tb142 2.374 . S
O154 C149 1.250 . S
O155 Tb140 2.353 . S
O155 C149 1.263 . S
C156 O157 1.275 . S
C156 O158 1.246 . S
O157 Tb140 2.427 . S
O157 C156 1.275 . S
O158 Tb140 2.513 . S
O158 C156 1.246 . S
C159 O143 1.245 . S
C159 O144 1.259 . S
C160 C161 1.369 . S
C160 C162 1.421 . S
C160 H164 0.930 . S
C161 C160 1.369 . S
C161 C170 1.429 . S
C162 C160 1.421 . S
C162 C163 1.365 1_554 S
C162 H165 0.930 . S
C163 C162 1.365 1_556 S
C163 C169 1.432 . S
H164 C160 0.930 . S
H165 C162 0.930 . S
S166 N167 1.613 . S
S166 N168 1.610 . S
N167 S166 1.613 . S
N167 C170 1.350 . S
N168 S166 1.610 . S
N168 C169 1.348 1_554 S
C169 C163 1.432 . S
C169 N168 1.348 1_556 S
C169 C170 1.432 1_556 S
C170 C161 1.429 . S
C170 N167 1.350 . S
C170 C169 1.432 1_554 S
C171 C172 1.369 . S
C171 C173 1.419 . S
C171 H175 0.930 . S
C172 C171 1.369 . S
C172 C181 1.429 . S
C173 C171 1.419 . S
C173 C174 1.363 . S
C173 H176 0.929 . S
C174 C173 1.363 . S
C174 C180 1.428 . S
H175 C171 0.930 . S
H176 C173 0.929 . S
S177 N178 1.613 1_556 S
S177 N179 1.609 1_556 S
N178 S177 1.613 1_554 S
N178 C181 1.350 . S
N179 S177 1.609 1_554 S
N179 C180 1.353 . S
C180 C174 1.428 . S
C180 N179 1.353 . S
C180 C181 1.434 . S
C181 C172 1.429 . S
C181 N178 1.350 . S
C181 C180 1.434 . S
C182 C183 1.369 . S
C182 C184 1.419 . S
C182 H186 0.930 . S
C183 C182 1.369 . S
C183 C192 1.429 . S
C184 C182 1.419 . S
C184 C185 1.363 . S
C184 H187 0.929 . S
C185 C184 1.363 . S
C185 C191 1.428 . S
H186 C182 0.930 . S
H187 C184 0.929 . S
S188 N189 1.613 . S
S188 N190 1.610 . S
N189 S188 1.613 . S
N189 C192 1.350 . S
N190 S188 1.610 . S
N190 C191 1.351 . S
C191 C185 1.428 . S
C191 N190 1.351 . S
C191 C192 1.434 . S
C192 C183 1.429 . S
C192 N189 1.350 . S
C192 C191 1.434 . S
C193 C194 1.369 . S
C193 C195 1.419 . S
C193 H197 0.930 . S
C194 C193 1.369 . S
C194 C203 1.429 . S
C195 C193 1.419 . S
C195 C196 1.363 . S
C195 H198 0.929 . S
C196 C195 1.363 . S
C196 C202 1.428 . S
H197 C193 0.930 . S
H198 C195 0.929 . S
S199 N200 1.613 . S
S199 N201 1.610 . S
N200 S199 1.613 . S
N200 C203 1.350 . S
N201 S199 1.610 . S
N201 C202 1.351 . S
C202 C196 1.428 . S
C202 N201 1.351 . S
C202 C203 1.434 . S
C203 C194 1.429 . S
C203 N200 1.350 . S
C203 C202 1.434 . S
C204 C205 1.369 1_556 S
C204 C206 1.419 1_655 S
C204 H208 0.930 . S
C205 C204 1.369 1_554 S
C205 C214 1.429 1_655 S
C206 C204 1.419 1_455 S
C206 C207 1.363 . S
C206 H209 0.929 . S
C207 C206 1.363 . S
C207 C213 1.428 1_556 S
H208 C204 0.930 . S
H209 C206 0.929 . S
S210 N211 1.613 . S
S210 N212 1.610 . S
N211 S210 1.613 . S
N211 C214 1.350 . S
N212 S210 1.610 . S
N212 C213 1.351 . S
C213 C207 1.428 1_554 S
C213 N212 1.351 . S
C213 C214 1.434 . S
C214 C205 1.429 1_455 S
C214 N211 1.350 . S
C214 C213 1.434 . S
C215 C216 1.369 1_656 S
C215 C217 1.419 . S
C215 H219 0.930 1_655 S
C216 C215 1.369 1_454 S
C216 C225 1.429 1_455 S
C217 C215 1.419 . S
C217 C218 1.363 1_556 S
C217 H220 0.929 . S
C218 C217 1.363 1_554 S
C218 C224 1.428 . S
H219 C215 0.930 1_455 S
H220 C217 0.929 . S
S221 N222 1.613 1_655 S
S221 N223 1.610 . S
N222 S221 1.613 1_455 S
N222 C225 1.350 1_455 S
N223 S221 1.610 . S
N223 C224 1.351 . S
C224 C218 1.428 . S
C224 N223 1.351 . S
C224 C225 1.434 . S
C225 C216 1.429 1_655 S
C225 N222 1.350 1_655 S
C225 C224 1.434 . S
C226 C227 1.369 . S
C226 C228 1.419 . S
C226 H230 0.930 . S
C227 C226 1.369 . S
C227 C236 1.429 . S
C228 C226 1.419 . S
C228 C229 1.363 1_455 S
C228 H231 0.929 . S
C229 C228 1.363 1_655 S
C229 C235 1.428 . S
H230 C226 0.930 . S
H231 C228 0.929 . S
S232 N233 1.613 1_655 S
S232 N234 1.610 . S
N233 S232 1.613 1_455 S
N233 C236 1.350 . S
N234 S232 1.610 . S
N234 C235 1.351 . S
C235 C229 1.428 . S
C235 N234 1.351 . S
C235 C236 1.434 1_655 S
C236 C227 1.429 . S
C236 N233 1.350 . S
C236 C235 1.434 1_455 S
C237 C238 1.369 . S
C237 C239 1.419 . S
C237 H241 0.930 . S
C238 C237 1.369 . S
C238 C247 1.429 . S
C239 C237 1.419 . S
C239 C240 1.363 1_655 S
C239 H242 0.929 . S
C240 C239 1.363 1_455 S
C240 C246 1.428 . S
H241 C237 0.930 . S
H242 C239 0.929 . S
S243 N244 1.613 1_455 S
S243 N245 1.610 . S
N244 S243 1.613 1_655 S
N244 C247 1.350 . S
N245 S243 1.610 . S
N245 C246 1.351 . S
C246 C240 1.428 . S
C246 N245 1.351 . S
C246 C247 1.434 1_455 S
C247 C238 1.429 . S
C247 N244 1.350 . S
C247 C246 1.434 1_655 S
C248 C249 1.369 1_655 S
C248 C250 1.419 . S
C248 H252 0.930 . S
C249 C248 1.369 1_455 S
C249 C258 1.429 1_554 S
C250 C248 1.419 . S
C250 C251 1.363 . S
C250 H253 0.929 . S
C251 C250 1.363 . S
C251 C257 1.428 1_654 S
H252 C248 0.930 . S
H253 C250 0.929 . S
S254 N255 1.613 . S
S254 N256 1.610 . S
N255 S254 1.613 . S
N255 C258 1.350 . S
N256 S254 1.610 . S
N256 C257 1.351 . S
C257 C251 1.428 1_456 S
C257 N256 1.351 . S
C257 C258 1.434 . S
C258 C249 1.429 1_556 S
C258 N255 1.350 . S
C258 C257 1.434 . S
C259 C260 1.369 1_655 S
C259 C261 1.419 . S
C259 H263 0.930 . S
C260 C259 1.369 1_455 S
C260 C269 1.429 . S
C261 C259 1.419 . S
C261 C262 1.363 . S
C261 H264 0.929 . S
C262 C261 1.363 . S
C262 C268 1.428 1_655 S
H263 C259 0.930 . S
H264 C261 0.929 . S
S265 N266 1.613 . S
S265 N267 1.610 . S
N266 S265 1.613 . S
N266 C269 1.350 . S
N267 S265 1.610 . S
N267 C268 1.351 . S
C268 C262 1.428 1_455 S
C268 N267 1.351 . S
C268 C269 1.434 . S
C269 C260 1.429 . S
C269 N266 1.350 . S
C269 C268 1.434 . S
C270 C271 1.369 . S
C270 C272 1.419 1_565 S
C270 H274 0.930 . S
C271 C270 1.369 . S
C271 C280 1.429 1_554 S
C272 C270 1.419 1_545 S
C272 C273 1.363 . S
C272 H275 0.929 . S
C273 C272 1.363 . S
C273 C279 1.428 1_554 S
H274 C270 0.930 . S
H275 C272 0.929 . S
S276 N277 1.613 . S
S276 N278 1.610 1_565 S
N277 S276 1.613 . S
N277 C280 1.350 . S
N278 S276 1.610 1_545 S
N278 C279 1.351 . S
C279 C273 1.428 1_556 S
C279 N278 1.351 . S
C279 C280 1.434 1_545 S
C280 C271 1.429 1_556 S
C280 N277 1.350 . S
C280 C279 1.434 1_565 S
C281 C282 1.369 . S
C281 C283 1.419 1_545 S
C281 H285 0.930 . S
C282 C281 1.369 . S
C282 C291 1.429 . S
C283 C281 1.419 1_565 S
C283 C284 1.363 . S
C283 H286 0.929 . S
C284 C283 1.363 . S
C284 C290 1.428 . S
H285 C281 0.930 . S
H286 C283 0.929 . S
S287 N288 1.634 . S
S287 N289 1.595 1_545 S
N288 S287 1.634 . S
N288 C291 1.350 . S
N289 S287 1.595 1_565 S
N289 C290 1.351 . S
C290 C284 1.428 . S
C290 N289 1.351 . S
C290 C291 1.434 1_565 S
C291 C282 1.429 . S
C291 N288 1.350 . S
C291 C290 1.434 1_545 S
C292 C293 1.369 1_556 S
C292 C294 1.419 . S
C292 H296 0.930 . S
C293 C292 1.369 1_554 S
C293 C302 1.429 . S
C294 C292 1.419 . S
C294 C295 1.363 1_556 S
C294 H297 0.929 . S
C295 C294 1.363 1_554 S
C295 C301 1.428 . S
H296 C292 0.930 . S
H297 C294 0.929 . S
S298 N299 1.613 . S
S298 N300 1.610 . S
N299 S298 1.613 . S
N299 C302 1.350 . S
N300 S298 1.610 . S
N300 C301 1.351 . S
C301 C295 1.428 . S
C301 N300 1.351 . S
C301 C302 1.434 . S
C302 C293 1.429 . S
C302 N299 1.350 . S
C302 C301 1.434 . S
C303 C304 1.369 1_556 S
C303 C305 1.419 . S
C303 H307 0.930 . S
C304 C303 1.369 1_554 S
C304 C313 1.429 . S
C305 C303 1.419 . S
C305 C306 1.363 1_556 S
C305 H308 0.929 . S
C306 C305 1.363 1_554 S
C306 C312 1.428 . S
H307 C303 0.930 . S
H308 C305 0.929 . S
S309 N310 1.613 . S
S309 N311 1.610 . S
N310 S309 1.613 . S
N310 C313 1.350 . S
N311 S309 1.610 . S
N311 C312 1.351 . S
C312 C306 1.428 . S
C312 N311 1.351 . S
C312 C313 1.434 . S
C313 C304 1.429 . S
C313 N310 1.350 . S
C313 C312 1.434 . S
C314 C315 1.369 . S
C314 C316 1.419 . S
C314 H318 0.930 . S
C315 C314 1.369 . S
C315 C324 1.429 . S
C316 C314 1.419 . S
C316 C317 1.363 . S
C316 H319 0.929 . S
C317 C316 1.363 . S
C317 C323 1.428 . S
H318 C314 0.930 . S
H319 C316 0.929 . S
S320 N321 1.613 . S
S320 N322 1.610 . S
N321 S320 1.613 . S
N321 C324 1.350 . S
N322 S320 1.610 . S
N322 C323 1.351 . S
C323 C317 1.428 . S
C323 N322 1.351 . S
C323 C324 1.434 . S
C324 C315 1.429 . S
C324 N321 1.350 . S
C324 C323 1.434 . S
C325 C326 1.369 . S
C325 C327 1.419 . S
C325 H329 0.930 . S
C326 C325 1.369 . S
C326 C335 1.429 . S
C327 C325 1.419 . S
C327 C328 1.363 . S
C327 H330 0.929 . S
C328 C327 1.363 . S
C328 C334 1.428 . S
H329 C325 0.930 . S
H330 C327 0.929 . S
S331 N332 1.613 . S
S331 N333 1.610 . S
N332 S331 1.613 . S
N332 C335 1.350 . S
N333 S331 1.610 . S
N333 C334 1.351 . S
C334 C328 1.428 . S
C334 N333 1.351 . S
C334 C335 1.434 . S
C335 C326 1.429 . S
C335 N332 1.350 . S
C335 C334 1.434 . S
C336 C337 1.369 1_655 S
C336 C338 1.419 . S
C336 H340 0.930 . S
C337 C336 1.369 1_455 S
C337 C346 1.429 . S
C338 C336 1.419 . S
C338 C339 1.363 . S
C338 H341 0.929 . S
C339 C338 1.363 . S
C339 C345 1.428 1_655 S
H340 C336 0.930 . S
H341 C338 0.929 . S
S342 N343 1.613 . S
S342 N344 1.610 . S
N343 S342 1.613 . S
N343 C346 1.350 . S
N344 S342 1.610 . S
N344 C345 1.351 . S
C345 C339 1.428 1_455 S
C345 N344 1.351 . S
C345 C346 1.434 . S
C346 C337 1.429 . S
C346 N343 1.350 . S
C346 C345 1.434 . S
C347 C348 1.369 1_455 S
C347 C349 1.419 . S
C347 H351 0.930 . S
C348 C347 1.369 1_655 S
C348 C357 1.429 . S
C349 C347 1.419 . S
C349 C350 1.363 . S
C349 H352 0.929 . S
C350 C349 1.363 . S
C350 C356 1.428 1_455 S
H351 C347 0.930 . S
H352 C349 0.929 . S
S353 N354 1.613 . S
S353 N355 1.610 . S
N354 S353 1.613 . S
N354 C357 1.350 . S
N355 S353 1.610 . S
N355 C356 1.351 . S
C356 C350 1.428 1_655 S
C356 N355 1.351 . S
C356 C357 1.434 . S
C357 C348 1.429 . S
C357 N354 1.350 . S
C357 C356 1.434 . S
C358 C359 1.369 . S
C358 C360 1.419 . S
C358 H362 0.930 . S
C359 C358 1.369 . S
C359 C368 1.429 1_655 S
C360 C358 1.419 . S
C360 C361 1.363 1_655 S
C360 H363 0.929 . S
C361 C360 1.363 1_455 S
C361 C367 1.428 . S
H362 C358 0.930 . S
H363 C360 0.929 . S
S364 N365 1.613 . S
S364 N366 1.610 . S
N365 S364 1.613 . S
N365 C368 1.350 . S
N366 S364 1.610 . S
N366 C367 1.351 . S
C367 C361 1.428 . S
C367 N366 1.351 . S
C367 C368 1.434 . S
C368 C359 1.429 1_455 S
C368 N365 1.350 . S
C368 C367 1.434 . S
C369 C370 1.369 . S
C369 C371 1.419 . S
C369 H373 0.930 . S
C370 C369 1.369 . S
C370 C379 1.429 1_655 S
C371 C369 1.419 . S
C371 C372 1.363 1_655 S
C371 H374 0.929 . S
C372 C371 1.363 1_455 S
C372 C378 1.428 . S
H373 C369 0.930 . S
H374 C371 0.929 . S
S375 N376 1.613 . S
S375 N377 1.610 . S
N376 S375 1.613 . S
N376 C379 1.350 . S
N377 S375 1.610 . S
N377 C378 1.351 . S
C378 C372 1.428 . S
C378 N377 1.351 . S
C378 C379 1.434 . S
C379 C370 1.429 1_455 S
C379 N376 1.350 . S
C379 C378 1.434 . S
C380 C381 1.369 . S
C380 C382 1.419 . S
C380 H384 0.930 . S
C381 C380 1.369 . S
C381 C390 1.429 . S
C382 C380 1.419 . S
C382 C383 1.363 . S
C382 H385 0.929 . S
C383 C382 1.363 . S
C383 C389 1.428 . S
H384 C380 0.930 . S
H385 C382 0.929 . S
S386 N387 1.613 . S
S386 N388 1.610 . S
N387 S386 1.613 . S
N387 C390 1.350 . S
N388 S386 1.610 . S
N388 C389 1.351 . S
C389 C383 1.428 . S
C389 N388 1.351 . S
C389 C390 1.434 . S
C390 C381 1.429 . S
C390 N387 1.350 . S
C390 C389 1.434 . S
C391 C392 1.369 . S
C391 C393 1.419 . S
C391 H395 0.930 . S
C392 C391 1.369 . S
C392 C401 1.429 . S
C393 C391 1.419 . S
C393 C394 1.363 . S
C393 H396 0.929 . S
C394 C393 1.363 . S
C394 C400 1.428 . S
H395 C391 0.930 . S
H396 C393 0.929 . S
S397 N398 1.613 . S
S397 N399 1.610 . S
N398 S397 1.613 . S
N398 C401 1.350 . S
N399 S397 1.610 . S
N399 C400 1.351 . S
C400 C394 1.428 . S
C400 N399 1.351 . S
C400 C401 1.434 . S
C401 C392 1.429 . S
C401 N398 1.350 . S
C401 C400 1.434 . S
C402 C403 1.369 . S
C402 C404 1.419 . S
C402 H406 0.930 . S
C403 C402 1.369 . S
C403 C412 1.429 . S
C404 C402 1.419 . S
C404 C405 1.363 . S
C404 H407 0.929 . S
C405 C404 1.363 . S
C405 C411 1.428 . S
H406 C402 0.930 . S
H407 C404 0.929 . S
S408 N409 1.613 . S
S408 N410 1.610 . S
N409 S408 1.613 . S
N409 C412 1.350 . S
N410 S408 1.610 . S
N410 C411 1.351 . S
C411 C405 1.428 . S
C411 N410 1.351 . S
C411 C412 1.434 . S
C412 C403 1.429 . S
C412 N409 1.350 . S
C412 C411 1.434 . S
C413 C414 1.369 . S
C413 C415 1.419 . S
C413 H417 0.930 . S
C414 C413 1.369 . S
C414 C423 1.429 . S
C415 C413 1.419 . S
C415 C416 1.363 . S
C415 H418 0.929 . S
C416 C415 1.363 . S
C416 C422 1.428 . S
H417 C413 0.930 . S
H418 C415 0.929 . S
S419 N420 1.613 . S
S419 N421 1.610 . S
N420 S419 1.613 . S
N420 C423 1.350 . S
N421 S419 1.610 . S
N421 C422 1.351 . S
C422 C416 1.428 . S
C422 N421 1.351 . S
C422 C423 1.434 . S
C423 C414 1.429 . S
C423 N420 1.350 . S
C423 C422 1.434 . S
C161 C6 1.590 . S
C163 C16 1.580 . S
C172 C26 1.578 . S
C174 C36 1.588 . S
C183 C56 1.578 . S
C185 C46 1.588 . S
C194 C76 1.584 . S
C196 C66 1.583 . S
C205 C86 1.589 . S
C207 C96 1.580 . S
C216 C116 1.585 . S
C218 C106 1.583 . S
C227 C136 1.590 . S
C229 C126 1.579 . S
C238 C146 1.589 . S
C240 C156 1.580 . S
C249 C39 1.576 1_455 S
C251 C8 1.573 1_655 S
C260 C79 1.571 1_455 S
C262 C48 1.577 1_655 S
C271 C88 1.577 . S
C273 C119 1.572 . S
C282 C128 1.580 . S
C284 C159 1.570 . S
C293 C19 1.544 1_554 S
C295 C108 1.539 . S
C304 C99 1.544 1_554 S
C306 C28 1.539 . S
C315 C59 1.539 . S
C317 C148 1.543 . S
C326 C68 1.544 . S
C328 C139 1.539 . S
C337 C1 1.575 . S
C339 C61 1.630 . S
C348 C21 1.630 . S
C350 C41 1.571 . S
C359 C29 1.574 . S
C361 C49 1.630 . S
C370 C69 1.569 . S
C372 C9 1.631 . S
C381 C81 1.569 . S
C383 C141 1.632 . S
C392 C101 1.629 . S
C394 C121 1.573 . S
C403 C109 1.576 . S
C405 C129 1.629 . S
C414 C149 1.573 . S
C416 C89 1.630 . S
