# Generated by pormake.
# Topology qtz-x, (6)-cn, num edge types: 1
# Building blocks:
#     Node 0, Type 0, BuildingBlock: VOLQOD_clean_sbu_1, # of connection points: 6
#     Node 1, Type 0, BuildingBlock: VOLQOD_clean_sbu_1, # of connection points: 6
#     Node 2, Type 0, BuildingBlock: VOLQOD_clean_sbu_1, # of connection points: 6
#     Edge 3, Type (0, 0), BuildingBlock: UVAHIK_clean_linker_0, # of connection points: 2
#     Edge 4, Type (0, 0), BuildingBlock: UVAHIK_clean_linker_0, # of connection points: 2
#     Edge 5, Type (0, 0), BuildingBlock: UVAHIK_clean_linker_0, # of connection points: 2
#     Edge 6, Type (0, 0), BuildingBlock: UVAHIK_clean_linker_0, # of connection points: 2
#     Edge 7, Type (0, 0), BuildingBlock: UVAHIK_clean_linker_0, # of connection points: 2
#     Edge 8, Type (0, 0), BuildingBlock: UVAHIK_clean_linker_0, # of connection points: 2
#     Edge 9, Type (0, 0), BuildingBlock: UVAHIK_clean_linker_0, # of connection points: 2
#     Edge 10, Type (0, 0), BuildingBlock: UVAHIK_clean_linker_0, # of connection points: 2
#     Edge 11, Type (0, 0), BuildingBlock: UVAHIK_clean_linker_0, # of connection points: 2
# Relax obj value: 0.240
# Max RMSD: 0.198
# Mean RMSD: 0.198
data_MOF--net-qtz-x--node1-VOLQOD_clean_sbu_1--edge1-UVAHIK_clean_linker_0
_symmetry_space_group_name_H-M    P1
_symmetry_Int_Tables_number       1
_symmetry_cell_setting            triclinic
loop_
_symmetry_equiv_pos_as_xyz
'x, y, z'
_cell_length_a     21.804371
_cell_length_b     21.788203
_cell_length_c     49.982142
_cell_angle_alpha  90.479911
_cell_angle_beta   90.123808
_cell_angle_gamma 120.16221
loop_
_atom_site_label
_atom_site_type_symbol
_atom_site_fract_x
_atom_site_fract_y
_atom_site_fract_z
_atom_type_partial_charge
O0 O 0.06085 0.67261 0.1375 0.0
Zn1 Zn 0.08957 0.59864 0.13389 0.0
O2 O 1.00789 0.50344 0.135 0.0
Zn3 Zn 1.00762 0.44949 0.10407 0.0
Zn4 Zn 0.92155 0.50919 0.13653 0.0
Zn5 Zn 1.01387 0.45415 0.16587 0.0
O6 O 0.02423 0.36924 0.11364 0.0
O7 O 0.99549 0.35618 0.15663 0.0
O8 O 0.13646 0.61665 0.09835 0.0
O9 O 0.07834 0.51315 0.07686 0.0
O10 O 0.91214 0.40396 0.08683 0.0
O11 O 0.85209 0.44733 0.10787 0.0
O12 O 0.87613 0.4793 0.17254 0.0
O13 O 0.16163 0.61237 0.16195 0.0
O14 O 0.94604 0.44867 0.1939 0.0
O15 O 0.1113 0.5074 0.18177 0.0
C16 C 1.00121 0.66957 0.13516 0.0
C17 C 1.00929 0.33378 0.13516 0.0
C18 C 0.85613 0.40752 0.08996 0.0
C19 C 0.12592 0.57858 0.07754 0.0
C20 C 0.89371 0.45928 0.1936 0.0
C21 C 0.1636 0.56986 0.17881 0.0
O22 O 0.9435 0.61043 0.13289 0.0
O23 O 0.62352 0.94676 0.47122 0.0
Zn24 Zn 0.52195 0.92403 0.4678 0.0
O25 O 0.5156 1.01017 0.46939 0.0
Zn26 Zn 0.4649 0.01472 0.43849 0.0
Zn27 Zn 0.61068 0.0924 0.47076 0.0
Zn28 Zn 0.46255 1.01043 0.50027 0.0
O29 O 0.36741 0.99707 0.4476 0.0
O30 O 0.38165 0.02626 0.49074 0.0
O31 O 0.49012 0.87673 0.43182 0.0
O32 O 0.45806 0.94539 0.4105 0.0
O33 O 0.51761 0.11141 0.42255 0.0
O34 O 0.62304 0.16322 0.44271 0.0
O35 O 0.62971 0.14065 0.50641 0.0
O36 O 0.46229 0.8557 0.49655 0.0
O37 O 0.52694 0.08226 0.52758 0.0
O38 O 0.41853 0.91568 0.51746 0.0
C39 C 0.68237 1.00464 0.46919 0.0
C40 C 0.34563 0.01116 0.46913 0.0
C41 C 0.57999 0.16411 0.42566 0.0
C42 C 0.46886 0.89315 0.41079 0.0
C43 C 0.59215 0.13026 0.52713 0.0
C44 C 0.42294 0.86001 0.51441 0.0
O45 O 0.68498 0.06413 0.46716 0.0
O46 O 0.70403 0.64256 0.81004 0.0
Zn47 Zn 0.62805 0.53963 0.80744 0.0
O48 O 0.53527 0.53136 0.80334 0.0
Zn49 Zn 0.48707 0.47238 0.77281 0.0
Zn50 Zn 0.54439 0.62458 0.79984 0.0
Zn51 Zn 0.47635 0.48362 0.83339 0.0
O52 O 0.4061 0.37659 0.78292 0.0
O53 O 0.38008 0.40386 0.82253 0.0
O54 O 0.65253 0.50195 0.77482 0.0
O55 O 0.55538 0.46153 0.74967 0.0
O56 O 0.44503 0.51798 0.75099 0.0
O57 O 0.49102 0.62774 0.76727 0.0
O58 O 0.50582 0.64904 0.8322 0.0
O59 O 0.63001 0.48425 0.83935 0.0
O60 O 0.46675 0.55236 0.85696 0.0
O61 O 0.52043 0.43952 0.85485 0.0
C62 C 0.70436 0.69971 0.80445 0.0
C63 C 0.36425 0.36161 0.80264 0.0
C64 C 0.45169 0.57937 0.75046 0.0
C65 C 0.61868 0.47465 0.75314 0.0
C66 C 0.47924 0.61546 0.85372 0.0
C67 C 0.58116 0.44475 0.85556 0.0
O68 O 0.64756 0.69991 0.79851 0.0
C69 C 0.93887 0.73795 0.14353 0.0
C70 C 0.99926 0.7363 0.1348 0.0
C71 C 0.9379 0.80164 0.14361 0.0
C72 C 1.00601 0.96864 0.11047 0.0
H73 H 0.98389 0.04614 0.17747 0.0
C74 C 0.0472 0.25109 0.1167 0.0
C75 C 1.00701 0.26489 0.13511 0.0
C76 C 0.04512 0.18595 0.11671 0.0
C77 C 0.98872 0.02484 0.15846 0.0
H78 H 0.10526 0.79936 0.11879 0.0
H79 H 0.10239 0.9102 0.1181 0.0
H80 H 0.97927 0.93196 0.17695 0.0
H81 H 0.93193 0.22102 0.16759 0.0
H82 H 0.92531 0.1062 0.16679 0.0
H83 H 1.01275 0.0593 0.0916 0.0
C84 C 0.05649 0.86239 0.12524 0.0
C85 C 0.98652 0.95963 0.15828 0.0
C86 C 0.05816 0.79918 0.12576 0.0
C87 C 0.9641 0.21207 0.15335 0.0
C88 C 0.96073 0.14632 0.15297 0.0
C89 C 1.00662 0.03305 0.11051 0.0
C90 C 0.99659 0.86416 0.13434 0.0
C91 C 0.99584 0.93148 0.13433 0.0
C92 C 1.00149 0.13237 0.13473 0.0
C93 C 0.99874 0.06254 0.13456 0.0
H94 H 0.89286 0.69029 0.15069 0.0
H95 H 0.89114 0.80201 0.15066 0.0
H96 H 1.01276 0.9474 0.09174 0.0
H97 H 0.08124 0.29113 0.10255 0.0
H98 H 0.07859 0.17818 0.10276 0.0
C99 C 0.2639 0.04984 0.48774 0.0
C100 C 0.27694 1.00924 0.46912 0.0
C101 C 0.19901 0.04821 0.48767 0.0
C102 C 0.03693 0.99205 0.44555 0.0
H103 H 0.96186 0.01759 0.51235 0.0
C104 C 0.75075 0.94251 0.46036 0.0
C105 C 0.74925 1.003 0.46941 0.0
C106 C 0.81448 0.94172 0.46019 0.0
C107 C 0.98244 1.01046 0.49359 0.0
H108 H 0.23195 0.93391 0.4362 0.0
H109 H 0.11757 0.92803 0.43689 0.0
H110 H 0.07343 0.01709 0.51253 0.0
H111 H 0.8127 0.1094 0.48586 0.0
H112 H 0.92368 0.10684 0.48639 0.0
H113 H 0.94367 0.98261 0.42699 0.0
C114 C 0.15809 0.96344 0.45093 0.0
C115 C 0.04667 1.01078 0.49358 0.0
C116 C 0.2236 0.96637 0.45061 0.0
C117 C 0.81239 0.06222 0.47865 0.0
C118 C 0.87568 0.06072 0.47907 0.0
C119 C 0.97189 0.99013 0.4457 0.0
C120 C 0.1449 1.00461 0.46938 0.0
C121 C 0.0753 1.0023 0.46951 0.0
C122 C 0.87726 1.00069 0.46969 0.0
C123 C 0.94457 0.99998 0.46968 0.0
H124 H 0.30435 0.08389 0.5021 0.0
H125 H 0.19187 0.082 0.5018 0.0
H126 H 0.05753 0.98677 0.42653 0.0
H127 H 0.7029 0.89626 0.45303 0.0
H128 H 0.81468 0.89484 0.45291 0.0
C129 C 0.77392 0.83177 0.80955 0.0
C130 C 0.77234 0.76738 0.80465 0.0
C131 C 0.83831 0.89584 0.80975 0.0
C132 C 1.01203 0.98472 0.78124 0.0
H133 H 0.07284 0.10563 0.84451 0.0
C134 C 0.28899 0.23518 0.78794 0.0
C135 C 0.29643 0.29383 0.80257 0.0
C136 C 0.22526 0.17051 0.7884 0.0
C137 C 0.05626 0.07333 0.82646 0.0
H138 H 0.83646 0.71944 0.79577 0.0
H139 H 0.94902 0.83217 0.79528 0.0
H140 H 0.96009 0.99412 0.84466 0.0
H141 H 0.24281 0.33166 0.82859 0.0
H142 H 0.13053 0.22023 0.82833 0.0
H143 H 0.10596 0.06446 0.76245 0.0
C144 C 0.90041 0.83253 0.79933 0.0
C145 C 0.99193 1.00926 0.8267 0.0
C146 C 0.83622 0.76828 0.79973 0.0
C147 C 0.2387 0.28701 0.81733 0.0
C148 C 0.17447 0.22284 0.81732 0.0
C149 C 0.07563 0.04949 0.78076 0.0
C150 C 0.90186 0.89665 0.80445 0.0
C151 C 0.9696 0.96443 0.80414 0.0
C152 C 0.16698 0.16347 0.80302 0.0
C153 C 0.09883 0.09462 0.80341 0.0
H154 H 0.72548 0.83255 0.8135 0.0
H155 H 0.83844 0.94489 0.81367 0.0
H156 H 0.99526 0.95099 0.76353 0.0
H157 H 0.33294 0.23882 0.77659 0.0
H158 H 0.22227 0.12583 0.77758 0.0
C159 C 0.44185 0.70003 0.87075 0.0
C160 C 0.46305 0.65001 0.87574 0.0
C161 C 0.41909 0.72621 0.89182 0.0
C162 C 0.41327 0.7362 0.96564 0.0
H163 H 0.21429 0.67524 0.95541 0.0
C164 C 0.15036 0.57501 0.02893 0.0
C165 C 0.16857 0.61185 0.05349 0.0
C166 C 0.19088 0.6062 0.00626 0.0
C167 C 0.27013 0.69372 0.95848 0.0
H168 H 0.4827 0.59239 0.90654 0.0
H169 H 0.44399 0.63839 0.94315 0.0
H170 H 0.28773 0.68876 0.91665 0.0
H171 H 0.24254 0.71114 0.07339 0.0
H172 H 0.31419 0.76498 0.0337 0.0
H173 H 0.39435 0.73541 0.0076 0.0
C174 C 0.4445 0.65734 0.92314 0.0
C175 C 0.31232 0.70221 0.93631 0.0
C176 C 0.46574 0.63024 0.90214 0.0
C177 C 0.22735 0.68117 0.05477 0.0
C178 C 0.26827 0.71216 0.03209 0.0
C179 C 0.37119 0.72804 -0.0122 0.0
C180 C 0.41911 0.70398 0.91812 0.0
C181 C 0.38308 0.71937 0.93988 0.0
C182 C 0.25068 0.6747 0.00769 0.0
C183 C 0.29834 0.70269 -0.01555 0.0
H184 H 0.43958 0.71615 0.8505 0.0
H185 H 0.39936 0.76188 0.88751 0.0
H186 H 0.46794 0.75005 0.96881 0.0
H187 H 0.10514 0.52178 0.02722 0.0
H188 H 0.17689 0.57551 -0.01219 0.0
C189 C 0.67696 0.27255 0.40425 0.0
C190 C 0.60423 0.22498 0.40756 0.0
C191 C 0.7003 0.32229 0.38381 0.0
C192 C 0.64065 0.33369 0.31701 0.0
H193 H 0.82638 0.50325 0.31536 0.0
C194 C 0.88512 0.44994 0.24324 0.0
C195 C 0.85491 0.45162 0.21862 0.0
C196 C 0.84924 0.44318 0.26702 0.0
C197 C 0.77394 0.45654 0.31559 0.0
H198 H 0.4986 0.19735 0.39413 0.0
H199 H 0.53943 0.28525 0.35877 0.0
H200 H 0.76958 0.45637 0.35834 0.0
H201 H 0.76404 0.44904 0.19959 0.0
H202 H 0.70015 0.43499 0.24141 0.0
H203 H 0.64651 0.33206 0.27435 0.0
C204 C 0.57847 0.28269 0.37141 0.0
C205 C 0.74155 0.42958 0.34012 0.0
C206 C 0.55512 0.23238 0.39167 0.0
C207 C 0.78846 0.44755 0.21829 0.0
C208 C 0.75205 0.4398 0.24214 0.0
C209 C 0.67273 0.36105 0.2925 0.0
C210 C 0.65132 0.32594 0.36647 0.0
C211 C 0.67631 0.36568 0.34112 0.0
C212 C 0.7821 0.43726 0.26667 0.0
C213 C 0.74118 0.4205 0.29168 0.0
H214 H 0.71609 0.26845 0.41629 0.0
H215 H 0.75684 0.35417 0.38048 0.0
H216 H 0.59067 0.28407 0.31694 0.0
H217 H 0.93652 0.45365 0.2442 0.0
H218 H 0.873 0.44001 0.28563 0.0
C219 C 0.43735 0.66492 0.72181 0.0
C220 C 0.41505 0.59472 0.72899 0.0
C221 C 0.40862 0.67868 0.69923 0.0
C222 C 0.33057 0.59552 0.63476 0.0
H223 H 0.32437 0.76882 0.62607 0.0
C224 C 0.33164 0.79918 0.54957 0.0
C225 C 0.38664 0.80253 0.53389 0.0
C226 C 0.30684 0.75469 0.57164 0.0
C227 C 0.32392 0.71915 0.62809 0.0
H228 H 0.34095 0.48391 0.71964 0.0
H229 H 0.29002 0.50807 0.68056 0.0
H230 H 0.33101 0.72951 0.67072 0.0
H231 H 0.45424 0.75739 0.52743 0.0
H232 H 0.4128 0.68149 0.56636 0.0
H233 H 0.32483 0.5859 0.59208 0.0
C234 C 0.33099 0.55241 0.69188 0.0
C235 C 0.32879 0.69723 0.65373 0.0
C236 C 0.36016 0.53866 0.71428 0.0
C237 C 0.41201 0.7561 0.53923 0.0
C238 C 0.3878 0.71219 0.56151 0.0
C239 C 0.32511 0.61714 0.60911 0.0
C240 C 0.35653 0.62248 0.6836 0.0
C241 C 0.33548 0.63702 0.65726 0.0
C242 C 0.3372 0.71341 0.57862 0.0
C243 C 0.32507 0.68094 0.60544 0.0
H244 H 0.47946 0.70917 0.7328 0.0
H245 H 0.43019 0.73333 0.69324 0.0
H246 H 0.33578 0.54889 0.63672 0.0
H247 H 0.31008 0.83346 0.54556 0.0
H248 H 0.26659 0.75551 0.58406 0.0
C249 C 0.66448 0.42619 0.8842 0.0
C250 C 0.5949 0.40563 0.87639 0.0
C251 C 0.67665 0.39476 0.90624 0.0
C252 C 0.69203 0.31049 0.95049 0.0
H253 H 0.57944 0.30445 0.01147 0.0
C254 C 0.79438 0.31412 0.05486 0.0
C255 C 0.79777 0.3696 0.07054 0.0
C256 C 0.74911 0.28802 0.03271 0.0
C257 C 0.61096 0.3052 -0.00538 0.0
H258 H 0.48351 0.33179 0.88392 0.0
H259 H 0.50489 0.27616 0.92205 0.0
H260 H 0.54382 0.31759 0.96677 0.0
H261 H 0.75173 0.43644 0.07703 0.0
H262 H 0.67455 0.39284 0.03797 0.0
H263 H 0.76271 0.30468 -0.02152 0.0
C264 C 0.54998 0.31784 0.91167 0.0
C265 C 0.59016 0.31193 0.96892 0.0
C266 C 0.53782 0.34973 0.88983 0.0
C267 C 0.75047 0.39392 0.0652 0.0
C268 C 0.7058 0.36843 0.04286 0.0
C269 C 0.71318 0.30439 -0.02381 0.0
C270 C 0.61943 0.34163 0.92068 0.0
C271 C 0.63233 0.31797 0.94672 0.0
C272 C 0.70712 0.31758 0.02567 0.0
C273 C 0.67464 0.30506 -0.00136 0.0
H274 H 0.70946 0.46899 0.87418 0.0
H275 H 0.73087 0.41505 0.91284 0.0
H276 H 0.72474 0.31343 0.93372 0.0
H277 H 0.8293 0.29331 0.05888 0.0
H278 H 0.75004 0.2476 0.02024 0.0
C279 C 0.27304 0.66775 0.20026 0.0
C280 C 0.22542 0.59484 0.19684 0.0
C281 C 0.32392 0.69189 0.22063 0.0
C282 C 0.33894 0.63458 0.2872 0.0
H283 H 0.50799 0.82086 0.28905 0.0
C284 C 0.45651 0.78691 0.38606 0.0
C285 C 0.46013 0.85319 0.38576 0.0
C286 C 0.44795 0.74948 0.3622 0.0
C287 C 0.46146 0.76828 0.28877 0.0
H288 H 0.19879 0.48962 0.20996 0.0
H289 H 0.28863 0.53182 0.24521 0.0
H290 H 0.4593 0.76227 0.24601 0.0
H291 H 0.46045 0.93345 0.36021 0.0
H292 H 0.44539 0.86817 0.31875 0.0
H293 H 0.33924 0.64211 0.32986 0.0
C294 C 0.28528 0.57042 0.23271 0.0
C295 C 0.43347 0.73486 0.26419 0.0
C296 C 0.23384 0.54629 0.21252 0.0
C297 C 0.45711 0.88219 0.36115 0.0
C298 C 0.44956 0.84532 0.33735 0.0
C299 C 0.36733 0.66769 0.31174 0.0
C300 C 0.32865 0.64351 0.23778 0.0
C301 C 0.36967 0.66943 0.26312 0.0
C302 C 0.44415 0.77836 0.33767 0.0
C303 C 0.42657 0.73636 0.31263 0.0
H304 H 0.26818 0.70646 0.18838 0.0
H305 H 0.35587 0.74859 0.22408 0.0
H306 H 0.28945 0.58448 0.2872 0.0
H307 H 0.45902 0.7634 0.40475 0.0
H308 H 0.44353 0.69773 0.3629 0.0
C309 C 0.70631 0.44161 0.73607 0.0
C310 C 0.65358 0.45923 0.7311 0.0
C311 C 0.7342 0.42098 0.71493 0.0
C312 C 0.71605 0.31662 0.66957 0.0
H313 H 0.74378 0.39894 0.59901 0.0
C314 C 0.59018 0.15389 0.57596 0.0
C315 C 0.62573 0.17334 0.5514 0.0
C316 C 0.62153 0.19464 0.59889 0.0
C317 C 0.7381 0.37586 0.6186 0.0
H318 H 0.59241 0.47437 0.70028 0.0
H319 H 0.64124 0.43923 0.66357 0.0
H320 H 0.75508 0.47064 0.63843 0.0
H321 H 0.72293 0.24976 0.53175 0.0
H322 H 0.77699 0.322 0.57193 0.0
H323 H 0.69382 0.22023 0.64961 0.0
C324 C 0.66107 0.44101 0.68363 0.0
C325 C 0.74431 0.41683 0.64112 0.0
C326 C 0.63234 0.46013 0.70468 0.0
C327 C 0.694 0.23362 0.55037 0.0
C328 C 0.72512 0.27484 0.57332 0.0
C329 C 0.70951 0.27553 0.64703 0.0
C330 C 0.71091 0.41959 0.68859 0.0
C331 C 0.72912 0.38617 0.6666 0.0
C332 C 0.68887 0.25594 0.59774 0.0
C333 C 0.71636 0.30368 0.62131 0.0
H334 H 0.72365 0.44081 0.75632 0.0
H335 H 0.77228 0.40423 0.71919 0.0
H336 H 0.704 0.29172 0.68901 0.0
H337 H 0.53782 0.10748 0.57747 0.0
H338 H 0.59173 0.17961 0.61734 0.0
loop_
_geom_bond_atom_site_label_1
_geom_bond_atom_site_label_2
_geom_bond_distance
_geom_bond_site_symmetry_2
_ccdc_geom_bond_type
O0 Zn1 1.953 . S
O0 C16 1.225 . S
Zn1 O0 1.953 . S
Zn1 O2 1.949 . S
Zn1 O8 1.919 . S
Zn1 O13 1.924 . S
O2 Zn1 1.949 . S
O2 Zn3 1.923 1_455 S
O2 Zn4 1.950 1_455 S
O2 Zn5 1.945 . S
Zn3 O2 1.923 1_655 S
Zn3 O6 1.933 . S
Zn3 O9 1.941 1_655 S
Zn3 O10 1.965 . S
Zn4 O2 1.950 1_655 S
Zn4 O11 1.938 . S
Zn4 O12 1.906 . S
Zn4 O22 1.953 . S
Zn5 O2 1.945 . S
Zn5 O7 1.932 . S
Zn5 O14 1.977 1_455 S
Zn5 O15 1.910 . S
O6 Zn3 1.933 . S
O6 C17 1.226 1_655 S
O7 Zn5 1.932 . S
O7 C17 1.307 . S
O8 Zn1 1.919 . S
O8 C19 1.253 . S
O9 Zn3 1.941 1_455 S
O9 C19 1.283 . S
O10 Zn3 1.965 . S
O10 C18 1.303 . S
O11 Zn4 1.938 . S
O11 C18 1.247 . S
O12 Zn4 1.906 . S
O12 C20 1.304 . S
O13 Zn1 1.924 . S
O13 C21 1.311 . S
O14 Zn5 1.977 1_655 S
O14 C20 1.272 . S
O15 Zn5 1.910 . S
O15 C21 1.231 . S
C16 O0 1.225 . S
C16 O22 1.298 1_455 S
C17 O6 1.226 1_455 S
C17 O7 1.307 . S
C18 O10 1.303 . S
C18 O11 1.247 . S
C19 O8 1.253 . S
C19 O9 1.283 . S
C20 O12 1.304 . S
C20 O14 1.272 . S
C21 O13 1.311 . S
C21 O15 1.231 . S
O22 Zn4 1.953 . S
O22 C16 1.298 1_655 S
O23 Zn24 1.953 . S
O23 C39 1.216 1_565 S
Zn24 O23 1.953 . S
Zn24 O25 1.949 1_565 S
Zn24 O31 1.919 . S
Zn24 O36 1.924 . S
O25 Zn24 1.949 1_545 S
O25 Zn26 1.923 . S
O25 Zn27 1.950 . S
O25 Zn28 1.945 1_545 S
Zn26 O25 1.923 . S
Zn26 O29 1.933 . S
Zn26 O32 1.941 1_545 S
Zn26 O33 1.965 . S
Zn27 O25 1.950 . S
Zn27 O34 1.938 . S
Zn27 O35 1.906 . S
Zn27 O45 1.953 . S
Zn28 O25 1.945 1_565 S
Zn28 O30 1.932 . S
Zn28 O37 1.977 1_565 S
Zn28 O38 1.910 . S
O29 Zn26 1.933 . S
O29 C40 1.226 . S
O30 Zn28 1.932 . S
O30 C40 1.307 1_565 S
O31 Zn24 1.919 . S
O31 C42 1.253 . S
O32 Zn26 1.941 1_565 S
O32 C42 1.283 . S
O33 Zn26 1.965 . S
O33 C41 1.303 . S
O34 Zn27 1.938 . S
O34 C41 1.247 . S
O35 Zn27 1.906 . S
O35 C43 1.304 . S
O36 Zn24 1.924 . S
O36 C44 1.311 . S
O37 Zn28 1.977 1_545 S
O37 C43 1.272 . S
O38 Zn28 1.910 . S
O38 C44 1.231 . S
C39 O23 1.216 1_545 S
C39 O45 1.317 . S
C40 O29 1.226 . S
C40 O30 1.307 1_545 S
C41 O33 1.303 . S
C41 O34 1.247 . S
C42 O31 1.253 . S
C42 O32 1.283 . S
C43 O35 1.304 . S
C43 O37 1.272 . S
C44 O36 1.311 . S
C44 O38 1.231 . S
O45 Zn27 1.953 . S
O45 C39 1.317 . S
O46 Zn47 1.953 . S
O46 C62 1.225 . S
Zn47 O46 1.953 . S
Zn47 O48 1.949 . S
Zn47 O54 1.919 . S
Zn47 O59 1.924 . S
O48 Zn47 1.949 . S
O48 Zn49 1.923 . S
O48 Zn50 1.950 . S
O48 Zn51 1.945 . S
Zn49 O48 1.923 . S
Zn49 O52 1.933 . S
Zn49 O55 1.941 . S
Zn49 O56 1.965 . S
Zn50 O48 1.950 . S
Zn50 O57 1.938 . S
Zn50 O58 1.906 . S
Zn50 O68 1.953 . S
Zn51 O48 1.945 . S
Zn51 O53 1.932 . S
Zn51 O60 1.977 . S
Zn51 O61 1.910 . S
O52 Zn49 1.933 . S
O52 C63 1.226 . S
O53 Zn51 1.932 . S
O53 C63 1.307 . S
O54 Zn47 1.919 . S
O54 C65 1.253 . S
O55 Zn49 1.941 . S
O55 C65 1.283 . S
O56 Zn49 1.965 . S
O56 C64 1.303 . S
O57 Zn50 1.938 . S
O57 C64 1.247 . S
O58 Zn50 1.906 . S
O58 C66 1.304 . S
O59 Zn47 1.924 . S
O59 C67 1.311 . S
O60 Zn51 1.977 . S
O60 C66 1.272 . S
O61 Zn51 1.910 . S
O61 C67 1.231 . S
C62 O46 1.225 . S
C62 O68 1.298 . S
C63 O52 1.226 . S
C63 O53 1.307 . S
C64 O56 1.303 . S
C64 O57 1.247 . S
C65 O54 1.253 . S
C65 O55 1.283 . S
C66 O58 1.304 . S
C66 O60 1.272 . S
C67 O59 1.311 . S
C67 O61 1.231 . S
O68 Zn50 1.953 . S
O68 C62 1.298 . S
C69 C70 1.349 . S
C69 C71 1.327 . S
C69 H94 0.950 . S
C70 C69 1.349 . S
C70 C86 1.349 1_455 S
C71 C69 1.327 . S
C71 C90 1.429 . S
C71 H95 0.950 . S
C72 C89 1.574 1_565 S
C72 C91 1.368 1_655 S
C72 H96 0.949 . S
H73 C77 0.949 . S
C74 C75 1.349 1_655 S
C74 C76 1.327 . S
C74 H97 0.950 . S
C75 C74 1.349 1_455 S
C75 C87 1.349 . S
C76 C74 1.327 . S
C76 C92 1.429 1_655 S
C76 H98 0.950 . S
C77 H73 0.949 . S
C77 C85 1.574 1_545 S
C77 C93 1.368 . S
H78 C86 0.950 . S
H79 C84 0.950 . S
H80 C85 0.949 . S
H81 C87 0.950 . S
H82 C88 0.950 . S
H83 C89 0.949 . S
C84 H79 0.950 . S
C84 C86 1.327 . S
C84 C90 1.429 1_655 S
C85 C77 1.574 1_565 S
C85 H80 0.949 . S
C85 C91 1.368 . S
C86 C70 1.349 1_655 S
C86 H78 0.950 . S
C86 C84 1.327 . S
C87 C75 1.349 . S
C87 H81 0.950 . S
C87 C88 1.327 . S
C88 H82 0.950 . S
C88 C87 1.327 . S
C88 C92 1.429 . S
C89 C72 1.574 1_545 S
C89 H83 0.949 . S
C89 C93 1.368 1_655 S
C90 C71 1.429 . S
C90 C84 1.429 1_455 S
C90 C91 1.523 . S
C91 C72 1.368 1_455 S
C91 C85 1.368 . S
C91 C90 1.523 . S
C92 C76 1.429 1_455 S
C92 C88 1.429 . S
C92 C93 1.523 . S
C93 C77 1.368 . S
C93 C89 1.368 1_455 S
C93 C92 1.523 . S
H94 C69 0.950 . S
H95 C71 0.950 . S
H96 C72 0.949 . S
H97 C74 0.950 . S
H98 C76 0.950 . S
C99 C100 1.348 1_545 S
C99 C101 1.327 . S
C99 H124 0.950 . S
C100 C99 1.348 1_565 S
C100 C116 1.348 . S
C101 C99 1.327 . S
C101 C120 1.427 . S
C101 H125 0.950 . S
C102 C119 1.574 1_455 S
C102 C121 1.371 1_565 S
C102 H126 0.949 . S
H103 C107 0.949 . S
C104 C105 1.349 1_565 S
C104 C106 1.323 . S
C104 H127 0.950 . S
C105 C104 1.349 1_545 S
C105 C117 1.349 . S
C106 C104 1.323 . S
C106 C122 1.430 1_565 S
C106 H128 0.951 . S
C107 H103 0.949 . S
C107 C115 1.574 1_655 S
C107 C123 1.368 . S
H108 C116 0.950 . S
H109 C114 0.950 . S
H110 C115 0.949 . S
H111 C117 0.950 . S
H112 C118 0.950 . S
H113 C119 0.949 . S
C114 H109 0.950 . S
C114 C116 1.327 . S
C114 C120 1.427 1_565 S
C115 C107 1.574 1_455 S
C115 H110 0.949 . S
C115 C121 1.372 . S
C116 C100 1.348 . S
C116 H108 0.950 . S
C116 C114 1.327 . S
C117 C105 1.349 . S
C117 H111 0.950 . S
C117 C118 1.327 . S
C118 H112 0.950 . S
C118 C117 1.327 . S
C118 C122 1.429 . S
C119 C102 1.574 1_655 S
C119 H113 0.949 . S
C119 C123 1.368 1_565 S
C120 C101 1.427 . S
C120 C114 1.427 1_545 S
C120 C121 1.519 . S
C121 C102 1.371 1_545 S
C121 C115 1.372 . S
C121 C120 1.519 . S
C122 C106 1.430 1_545 S
C122 C118 1.429 . S
C122 C123 1.523 . S
C123 C107 1.368 . S
C123 C119 1.368 1_545 S
C123 C122 1.523 . S
H124 C99 0.950 . S
H125 C101 0.950 . S
H126 C102 0.949 . S
H127 C104 0.950 . S
H128 C106 0.951 . S
C129 C130 1.349 . S
C129 C131 1.327 . S
C129 H154 0.950 . S
C130 C129 1.349 . S
C130 C146 1.349 . S
C131 C129 1.327 . S
C131 C150 1.429 . S
C131 H155 0.950 . S
C132 C149 1.574 1_665 S
C132 C151 1.368 . S
C132 H156 0.949 . S
H133 C137 0.949 . S
C134 C135 1.349 . S
C134 C136 1.327 . S
C134 H157 0.950 . S
C135 C134 1.349 . S
C135 C147 1.349 . S
C136 C134 1.327 . S
C136 C152 1.429 . S
C136 H158 0.950 . S
C137 H133 0.949 . S
C137 C145 1.574 1_445 S
C137 C153 1.368 . S
H138 C146 0.950 . S
H139 C144 0.950 . S
H140 C145 0.949 . S
H141 C147 0.950 . S
H142 C148 0.950 . S
H143 C149 0.949 . S
C144 H139 0.950 . S
C144 C146 1.327 . S
C144 C150 1.429 . S
C145 C137 1.574 1_665 S
C145 H140 0.949 . S
C145 C151 1.368 . S
C146 C130 1.349 . S
C146 H138 0.950 . S
C146 C144 1.327 . S
C147 C135 1.349 . S
C147 H141 0.950 . S
C147 C148 1.327 . S
C148 H142 0.950 . S
C148 C147 1.327 . S
C148 C152 1.429 . S
C149 C132 1.574 1_445 S
C149 H143 0.949 . S
C149 C153 1.368 . S
C150 C131 1.429 . S
C150 C144 1.429 . S
C150 C151 1.523 . S
C151 C132 1.368 . S
C151 C145 1.368 . S
C151 C150 1.523 . S
C152 C136 1.429 . S
C152 C148 1.429 . S
C152 C153 1.523 . S
C153 C137 1.368 . S
C153 C149 1.368 . S
C153 C152 1.523 . S
H154 C129 0.950 . S
H155 C131 0.950 . S
H156 C132 0.949 . S
H157 C134 0.950 . S
H158 C136 0.950 . S
C159 C160 1.349 . S
C159 C161 1.327 . S
C159 H184 0.950 . S
C160 C159 1.349 . S
C160 C176 1.349 . S
C161 C159 1.327 . S
C161 C180 1.429 . S
C161 H185 0.950 . S
C162 C179 1.574 1_556 S
C162 C181 1.368 . S
C162 H186 0.949 . S
H163 C167 0.949 . S
C164 C165 1.349 . S
C164 C166 1.327 . S
C164 H187 0.950 . S
C165 C164 1.349 . S
C165 C177 1.349 . S
C166 C164 1.327 . S
C166 C182 1.429 . S
C166 H188 0.950 . S
C167 H163 0.949 . S
C167 C175 1.574 1_554 S
C167 C183 1.368 . S
H168 C176 0.950 . S
H169 C174 0.950 . S
H170 C175 0.949 . S
H171 C177 0.950 . S
H172 C178 0.950 . S
H173 C179 0.949 . S
C174 H169 0.950 . S
C174 C176 1.327 . S
C174 C180 1.429 . S
C175 C167 1.574 1_556 S
C175 H170 0.949 . S
C175 C181 1.368 . S
C176 C160 1.349 . S
C176 H168 0.950 . S
C176 C174 1.327 . S
C177 C165 1.349 . S
C177 H171 0.950 . S
C177 C178 1.327 . S
C178 H172 0.950 . S
C178 C177 1.327 . S
C178 C182 1.429 . S
C179 C162 1.574 1_554 S
C179 H173 0.949 . S
C179 C183 1.368 . S
C180 C161 1.429 . S
C180 C174 1.429 . S
C180 C181 1.523 . S
C181 C162 1.368 . S
C181 C175 1.368 . S
C181 C180 1.523 . S
C182 C166 1.429 . S
C182 C178 1.429 . S
C182 C183 1.523 . S
C183 C167 1.368 . S
C183 C179 1.368 . S
C183 C182 1.523 . S
H184 C159 0.950 . S
H185 C161 0.950 . S
H186 C162 0.949 . S
H187 C164 0.950 . S
H188 C166 0.950 . S
C189 C190 1.349 . S
C189 C191 1.327 . S
C189 H214 0.950 . S
C190 C189 1.349 . S
C190 C206 1.349 . S
C191 C189 1.327 . S
C191 C210 1.429 . S
C191 H215 0.950 . S
C192 C209 1.574 . S
C192 C211 1.368 . S
C192 H216 0.949 . S
H193 C197 0.949 . S
C194 C195 1.349 . S
C194 C196 1.327 . S
C194 H217 0.950 . S
C195 C194 1.349 . S
C195 C207 1.349 . S
C196 C194 1.327 . S
C196 C212 1.429 . S
C196 H218 0.950 . S
C197 H193 0.949 . S
C197 C205 1.574 . S
C197 C213 1.368 . S
H198 C206 0.950 . S
H199 C204 0.950 . S
H200 C205 0.949 . S
H201 C207 0.950 . S
H202 C208 0.950 . S
H203 C209 0.949 . S
C204 H199 0.950 . S
C204 C206 1.327 . S
C204 C210 1.429 . S
C205 C197 1.574 . S
C205 H200 0.949 . S
C205 C211 1.368 . S
C206 C190 1.349 . S
C206 H198 0.950 . S
C206 C204 1.327 . S
C207 C195 1.349 . S
C207 H201 0.950 . S
C207 C208 1.327 . S
C208 H202 0.950 . S
C208 C207 1.327 . S
C208 C212 1.429 . S
C209 C192 1.574 . S
C209 H203 0.949 . S
C209 C213 1.368 . S
C210 C191 1.429 . S
C210 C204 1.429 . S
C210 C211 1.523 . S
C211 C192 1.368 . S
C211 C205 1.368 . S
C211 C210 1.523 . S
C212 C196 1.429 . S
C212 C208 1.429 . S
C212 C213 1.523 . S
C213 C197 1.368 . S
C213 C209 1.368 . S
C213 C212 1.523 . S
H214 C189 0.950 . S
H215 C191 0.950 . S
H216 C192 0.949 . S
H217 C194 0.950 . S
H218 C196 0.950 . S
C219 C220 1.349 . S
C219 C221 1.327 . S
C219 H244 0.950 . S
C220 C219 1.349 . S
C220 C236 1.349 . S
C221 C219 1.327 . S
C221 C240 1.429 . S
C221 H245 0.950 . S
C222 C239 1.574 . S
C222 C241 1.368 . S
C222 H246 0.949 . S
H223 C227 0.949 . S
C224 C225 1.349 . S
C224 C226 1.327 . S
C224 H247 0.950 . S
C225 C224 1.349 . S
C225 C237 1.349 . S
C226 C224 1.327 . S
C226 C242 1.429 . S
C226 H248 0.950 . S
C227 H223 0.949 . S
C227 C235 1.574 . S
C227 C243 1.368 . S
H228 C236 0.950 . S
H229 C234 0.950 . S
H230 C235 0.949 . S
H231 C237 0.950 . S
H232 C238 0.950 . S
H233 C239 0.949 . S
C234 H229 0.950 . S
C234 C236 1.327 . S
C234 C240 1.429 . S
C235 C227 1.574 . S
C235 H230 0.949 . S
C235 C241 1.368 . S
C236 C220 1.349 . S
C236 H228 0.950 . S
C236 C234 1.327 . S
C237 C225 1.349 . S
C237 H231 0.950 . S
C237 C238 1.327 . S
C238 H232 0.950 . S
C238 C237 1.327 . S
C238 C242 1.429 . S
C239 C222 1.574 . S
C239 H233 0.949 . S
C239 C243 1.368 . S
C240 C221 1.429 . S
C240 C234 1.429 . S
C240 C241 1.523 . S
C241 C222 1.368 . S
C241 C235 1.368 . S
C241 C240 1.523 . S
C242 C226 1.429 . S
C242 C238 1.429 . S
C242 C243 1.523 . S
C243 C227 1.368 . S
C243 C239 1.368 . S
C243 C242 1.523 . S
H244 C219 0.950 . S
H245 C221 0.950 . S
H246 C222 0.949 . S
H247 C224 0.950 . S
H248 C226 0.950 . S
C249 C250 1.349 . S
C249 C251 1.327 . S
C249 H274 0.950 . S
C250 C249 1.349 . S
C250 C266 1.349 . S
C251 C249 1.327 . S
C251 C270 1.429 . S
C251 H275 0.950 . S
C252 C269 1.574 1_556 S
C252 C271 1.368 . S
C252 H276 0.949 . S
H253 C257 0.949 . S
C254 C255 1.349 . S
C254 C256 1.327 . S
C254 H277 0.950 . S
C255 C254 1.349 . S
C255 C267 1.349 . S
C256 C254 1.327 . S
C256 C272 1.429 . S
C256 H278 0.950 . S
C257 H253 0.949 . S
C257 C265 1.574 1_554 S
C257 C273 1.368 . S
H258 C266 0.950 . S
H259 C264 0.950 . S
H260 C265 0.949 . S
H261 C267 0.950 . S
H262 C268 0.950 . S
H263 C269 0.949 . S
C264 H259 0.950 . S
C264 C266 1.327 . S
C264 C270 1.429 . S
C265 C257 1.574 1_556 S
C265 H260 0.949 . S
C265 C271 1.368 . S
C266 C250 1.349 . S
C266 H258 0.950 . S
C266 C264 1.327 . S
C267 C255 1.349 . S
C267 H261 0.950 . S
C267 C268 1.327 . S
C268 H262 0.950 . S
C268 C267 1.327 . S
C268 C272 1.429 . S
C269 C252 1.574 1_554 S
C269 H263 0.949 . S
C269 C273 1.368 . S
C270 C251 1.429 . S
C270 C264 1.429 . S
C270 C271 1.523 . S
C271 C252 1.368 . S
C271 C265 1.368 . S
C271 C270 1.523 . S
C272 C256 1.429 . S
C272 C268 1.429 . S
C272 C273 1.523 . S
C273 C257 1.368 . S
C273 C269 1.368 . S
C273 C272 1.523 . S
H274 C249 0.950 . S
H275 C251 0.950 . S
H276 C252 0.949 . S
H277 C254 0.950 . S
H278 C256 0.950 . S
C279 C280 1.349 . S
C279 C281 1.327 . S
C279 H304 0.950 . S
C280 C279 1.349 . S
C280 C296 1.349 . S
C281 C279 1.327 . S
C281 C300 1.429 . S
C281 H305 0.950 . S
C282 C299 1.574 . S
C282 C301 1.368 . S
C282 H306 0.949 . S
H283 C287 0.949 . S
C284 C285 1.349 . S
C284 C286 1.327 . S
C284 H307 0.950 . S
C285 C284 1.349 . S
C285 C297 1.349 . S
C286 C284 1.327 . S
C286 C302 1.429 . S
C286 H308 0.950 . S
C287 H283 0.949 . S
C287 C295 1.574 . S
C287 C303 1.368 . S
H288 C296 0.950 . S
H289 C294 0.950 . S
H290 C295 0.949 . S
H291 C297 0.950 . S
H292 C298 0.950 . S
H293 C299 0.949 . S
C294 H289 0.950 . S
C294 C296 1.327 . S
C294 C300 1.429 . S
C295 C287 1.574 . S
C295 H290 0.949 . S
C295 C301 1.368 . S
C296 C280 1.349 . S
C296 H288 0.950 . S
C296 C294 1.327 . S
C297 C285 1.349 . S
C297 H291 0.950 . S
C297 C298 1.327 . S
C298 H292 0.950 . S
C298 C297 1.327 . S
C298 C302 1.429 . S
C299 C282 1.574 . S
C299 H293 0.949 . S
C299 C303 1.368 . S
C300 C281 1.429 . S
C300 C294 1.429 . S
C300 C301 1.523 . S
C301 C282 1.368 . S
C301 C295 1.368 . S
C301 C300 1.523 . S
C302 C286 1.429 . S
C302 C298 1.429 . S
C302 C303 1.523 . S
C303 C287 1.368 . S
C303 C299 1.368 . S
C303 C302 1.523 . S
H304 C279 0.950 . S
H305 C281 0.950 . S
H306 C282 0.949 . S
H307 C284 0.950 . S
H308 C286 0.950 . S
C309 C310 1.349 . S
C309 C311 1.327 . S
C309 H334 0.950 . S
C310 C309 1.349 . S
C310 C326 1.349 . S
C311 C309 1.327 . S
C311 C330 1.429 . S
C311 H335 0.950 . S
C312 C329 1.574 . S
C312 C331 1.368 . S
C312 H336 0.949 . S
H313 C317 0.949 . S
C314 C315 1.349 . S
C314 C316 1.327 . S
C314 H337 0.950 . S
C315 C314 1.349 . S
C315 C327 1.349 . S
C316 C314 1.327 . S
C316 C332 1.429 . S
C316 H338 0.950 . S
C317 H313 0.949 . S
C317 C325 1.574 . S
C317 C333 1.368 . S
H318 C326 0.950 . S
H319 C324 0.950 . S
H320 C325 0.949 . S
H321 C327 0.950 . S
H322 C328 0.950 . S
H323 C329 0.949 . S
C324 H319 0.950 . S
C324 C326 1.327 . S
C324 C330 1.429 . S
C325 C317 1.574 . S
C325 H320 0.949 . S
C325 C331 1.368 . S
C326 C310 1.349 . S
C326 H318 0.950 . S
C326 C324 1.327 . S
C327 C315 1.349 . S
C327 H321 0.950 . S
C327 C328 1.327 . S
C328 H322 0.950 . S
C328 C327 1.327 . S
C328 C332 1.429 . S
C329 C312 1.574 . S
C329 H323 0.949 . S
C329 C333 1.368 . S
C330 C311 1.429 . S
C330 C324 1.429 . S
C330 C331 1.523 . S
C331 C312 1.368 . S
C331 C325 1.368 . S
C331 C330 1.523 . S
C332 C316 1.429 . S
C332 C328 1.429 . S
C332 C333 1.523 . S
C333 C317 1.368 . S
C333 C329 1.368 . S
C333 C332 1.523 . S
H334 C309 0.950 . S
H335 C311 0.950 . S
H336 C312 0.949 . S
H337 C314 0.950 . S
H338 C316 0.950 . S
C70 C16 1.944 . S
C75 C17 1.943 . S
C100 C40 1.945 1_565 S
C105 C39 1.934 . S
C130 C62 1.944 . S
C135 C63 1.943 . S
C160 C66 0.672 . S
C165 C19 0.671 . S
C190 C41 0.701 . S
C195 C20 0.708 . S
C220 C64 0.681 . S
C225 C44 0.683 . S
C250 C67 0.678 . S
C255 C18 0.677 . S
C280 C21 0.637 . S
C285 C42 0.649 . S
C310 C65 0.666 . S
C315 C43 0.667 . S
