# Generated by pormake.
# Topology dia-a, (4)-cn, num edge types: 1
# Building blocks:
#     Node 0, Type 0, BuildingBlock: TATPOV_clean_sbu_0, # of connection points: 4
#     Node 1, Type 0, BuildingBlock: TATPOV_clean_sbu_0, # of connection points: 4
#     Node 2, Type 0, BuildingBlock: TATPOV_clean_sbu_0, # of connection points: 4
#     Node 3, Type 0, BuildingBlock: TATPOV_clean_sbu_0, # of connection points: 4
#     Node 4, Type 0, BuildingBlock: TATPOV_clean_sbu_0, # of connection points: 4
#     Node 5, Type 0, BuildingBlock: TATPOV_clean_sbu_0, # of connection points: 4
#     Node 6, Type 0, BuildingBlock: TATPOV_clean_sbu_0, # of connection points: 4
#     Node 7, Type 0, BuildingBlock: TATPOV_clean_sbu_0, # of connection points: 4
#     Node 8, Type 0, BuildingBlock: TATPOV_clean_sbu_0, # of connection points: 4
#     Node 9, Type 0, BuildingBlock: TATPOV_clean_sbu_0, # of connection points: 4
#     Node 10, Type 0, BuildingBlock: TATPOV_clean_sbu_0, # of connection points: 4
#     Node 11, Type 0, BuildingBlock: TATPOV_clean_sbu_0, # of connection points: 4
#     Node 12, Type 0, BuildingBlock: TATPOV_clean_sbu_0, # of connection points: 4
#     Node 13, Type 0, BuildingBlock: TATPOV_clean_sbu_0, # of connection points: 4
#     Node 14, Type 0, BuildingBlock: TATPOV_clean_sbu_0, # of connection points: 4
#     Node 15, Type 0, BuildingBlock: TATPOV_clean_sbu_0, # of connection points: 4
#     Node 16, Type 0, BuildingBlock: TATPOV_clean_sbu_0, # of connection points: 4
#     Node 17, Type 0, BuildingBlock: TATPOV_clean_sbu_0, # of connection points: 4
#     Node 18, Type 0, BuildingBlock: TATPOV_clean_sbu_0, # of connection points: 4
#     Node 19, Type 0, BuildingBlock: TATPOV_clean_sbu_0, # of connection points: 4
#     Node 20, Type 0, BuildingBlock: TATPOV_clean_sbu_0, # of connection points: 4
#     Node 21, Type 0, BuildingBlock: TATPOV_clean_sbu_0, # of connection points: 4
#     Node 22, Type 0, BuildingBlock: TATPOV_clean_sbu_0, # of connection points: 4
#     Node 23, Type 0, BuildingBlock: TATPOV_clean_sbu_0, # of connection points: 4
#     Node 24, Type 0, BuildingBlock: TATPOV_clean_sbu_0, # of connection points: 4
#     Node 25, Type 0, BuildingBlock: TATPOV_clean_sbu_0, # of connection points: 4
#     Node 26, Type 0, BuildingBlock: TATPOV_clean_sbu_0, # of connection points: 4
#     Node 27, Type 0, BuildingBlock: TATPOV_clean_sbu_0, # of connection points: 4
#     Node 28, Type 0, BuildingBlock: TATPOV_clean_sbu_0, # of connection points: 4
#     Node 29, Type 0, BuildingBlock: TATPOV_clean_sbu_0, # of connection points: 4
#     Node 30, Type 0, BuildingBlock: TATPOV_clean_sbu_0, # of connection points: 4
#     Node 31, Type 0, BuildingBlock: TATPOV_clean_sbu_0, # of connection points: 4
#     Edge 32, Type (0, 0), None
#     Edge 33, Type (0, 0), None
#     Edge 34, Type (0, 0), None
#     Edge 35, Type (0, 0), None
#     Edge 36, Type (0, 0), None
#     Edge 37, Type (0, 0), None
#     Edge 38, Type (0, 0), None
#     Edge 39, Type (0, 0), None
#     Edge 40, Type (0, 0), None
#     Edge 41, Type (0, 0), None
#     Edge 42, Type (0, 0), None
#     Edge 43, Type (0, 0), None
#     Edge 44, Type (0, 0), None
#     Edge 45, Type (0, 0), None
#     Edge 46, Type (0, 0), None
#     Edge 47, Type (0, 0), None
#     Edge 48, Type (0, 0), None
#     Edge 49, Type (0, 0), None
#     Edge 50, Type (0, 0), None
#     Edge 51, Type (0, 0), None
#     Edge 52, Type (0, 0), None
#     Edge 53, Type (0, 0), None
#     Edge 54, Type (0, 0), None
#     Edge 55, Type (0, 0), None
#     Edge 56, Type (0, 0), None
#     Edge 57, Type (0, 0), None
#     Edge 58, Type (0, 0), None
#     Edge 59, Type (0, 0), None
#     Edge 60, Type (0, 0), None
#     Edge 61, Type (0, 0), None
#     Edge 62, Type (0, 0), None
#     Edge 63, Type (0, 0), None
#     Edge 64, Type (0, 0), None
#     Edge 65, Type (0, 0), None
#     Edge 66, Type (0, 0), None
#     Edge 67, Type (0, 0), None
#     Edge 68, Type (0, 0), None
#     Edge 69, Type (0, 0), None
#     Edge 70, Type (0, 0), None
#     Edge 71, Type (0, 0), None
#     Edge 72, Type (0, 0), None
#     Edge 73, Type (0, 0), None
#     Edge 74, Type (0, 0), None
#     Edge 75, Type (0, 0), None
#     Edge 76, Type (0, 0), None
#     Edge 77, Type (0, 0), None
#     Edge 78, Type (0, 0), None
#     Edge 79, Type (0, 0), None
#     Edge 80, Type (0, 0), None
#     Edge 81, Type (0, 0), None
#     Edge 82, Type (0, 0), None
#     Edge 83, Type (0, 0), None
#     Edge 84, Type (0, 0), None
#     Edge 85, Type (0, 0), None
#     Edge 86, Type (0, 0), None
#     Edge 87, Type (0, 0), None
#     Edge 88, Type (0, 0), None
#     Edge 89, Type (0, 0), None
#     Edge 90, Type (0, 0), None
#     Edge 91, Type (0, 0), None
#     Edge 92, Type (0, 0), None
#     Edge 93, Type (0, 0), None
#     Edge 94, Type (0, 0), None
#     Edge 95, Type (0, 0), None
# Relax obj value: 0.752
# Max RMSD: 0.323
# Mean RMSD: 0.301
data_MOF--net-dia-a--node1-TATPOV_clean_sbu_0--edge1-none
_symmetry_space_group_name_H-M    P1
_symmetry_Int_Tables_number       1
_symmetry_cell_setting            triclinic
loop_
_symmetry_equiv_pos_as_xyz
'x, y, z'
_cell_length_a     33.190458
_cell_length_b     26.616461
_cell_length_c     26.620342
_cell_angle_alpha  70.6177
_cell_angle_beta   74.075983
_cell_angle_gamma 74.071482
loop_
_atom_site_label
_atom_site_type_symbol
_atom_site_fract_x
_atom_site_fract_y
_atom_site_fract_z
_atom_type_partial_charge
Zn0 Zn 0.08125 0.12107 0.507 0.0
Zn1 Zn 0.02064 0.09749 0.52402 0.0
O2 O 0.07126 0.03384 0.55251 0.0
O3 O 0.12816 0.05692 0.49483 0.0
O4 O -0.00649 0.07249 0.48072 0.0
O5 O 0.04632 0.11991 0.58934 0.0
O6 O -0.0144 0.09532 0.59776 0.0
C7 C 0.11193 0.02431 0.53738 0.0
C8 C 0.04465 0.21607 0.47737 0.0
O9 O 0.01788 0.18428 0.50005 0.0
O10 O 0.08235 0.19595 0.45697 0.0
C11 C -0.00986 0.09521 0.43151 0.0
O12 O 0.00297 0.1412 0.40516 0.0
C13 C 0.00998 0.10942 0.6179 0.0
Zn14 Zn 0.89946 0.30583 0.87645 0.0
Zn15 Zn 0.94713 0.22336 0.89802 0.0
O16 O 0.88486 0.21282 0.94216 0.0
O17 O 0.88761 0.2823 0.96239 0.0
O18 O -0.00543 0.15674 0.91153 0.0
O19 O 0.87867 0.27095 0.83216 0.0
O20 O 0.94733 0.24558 0.81536 0.0
C21 C 0.86594 0.24811 0.96821 0.0
C22 C 0.96586 0.33077 0.87711 0.0
O23 O 0.96469 0.28641 0.91498 0.0
O24 O 0.95446 0.33324 0.83506 0.0
C25 C -0.00145 0.1124 0.90059 0.0
O26 O 0.03399 0.07562 0.90494 0.0
C27 C 0.91298 0.26671 0.79698 0.0
Zn28 Zn 0.54107 0.25471 0.09616 0.0
Zn29 Zn 0.59705 0.28974 0.06545 0.0
O30 O 0.58112 0.25895 0.15231 0.0
O31 O 0.51205 0.26827 0.1689 0.0
O32 O 0.59734 0.36941 0.04577 0.0
O33 O 0.60012 0.19364 0.09073 0.0
O34 O 0.65304 0.23901 0.05864 0.0
C35 C 0.54626 0.25233 0.18678 0.0
C36 C 0.5403 0.26012 0.00243 0.0
O37 O 0.57502 0.26991 0.00608 0.0
O38 O 0.50765 0.26628 0.03956 0.0
C39 C 0.62757 0.39537 0.02531 0.0
O40 O 0.61911 0.44752 0.02156 0.0
C41 C 0.6403 0.19416 0.07532 0.0
Zn42 Zn 0.92063 0.90464 0.24581 0.0
Zn43 Zn 0.86468 0.9355 0.21069 0.0
O44 O 0.88059 0.8486 0.24133 0.0
O45 O 0.94965 0.83192 0.23216 0.0
O46 O 0.86436 0.95534 0.13102 0.0
O47 O 0.86155 0.91004 0.3068 0.0
O48 O 0.80867 0.94229 0.26136 0.0
C49 C 0.91542 0.81408 0.24797 0.0
C50 C 0.92142 0.9983 0.24065 0.0
O51 O 0.88671 0.99475 0.23072 0.0
O52 O 0.95406 0.96116 0.23447 0.0
C53 C 0.83409 0.97564 0.10511 0.0
O54 O 0.84256 0.97949 0.05294 0.0
C55 C 0.82137 0.92551 0.30623 0.0
Zn56 Zn 0.06218 0.124 0.69454 0.0
Zn57 Zn 0.01449 0.10234 0.77696 0.0
O58 O 0.07675 0.05818 0.78753 0.0
O59 O 0.07405 0.03805 0.71798 0.0
O60 O 0.96703 0.08879 0.84354 0.0
O61 O 0.08294 0.16822 0.72954 0.0
O62 O 0.01426 0.18501 0.75483 0.0
C63 C 0.0957 0.03218 0.7522 0.0
C64 C -0.00419 0.1234 0.66954 0.0
O65 O -0.00303 0.08546 0.71385 0.0
O66 O 0.0072 0.16545 0.66707 0.0
C67 C 0.96304 0.09972 0.88788 0.0
O68 O 0.9276 0.09537 0.92464 0.0
C69 C 0.04861 0.2034 0.73377 0.0
Zn70 Zn 0.83493 0.37201 0.92704 0.0
Zn71 Zn 0.76408 0.37601 0.97106 0.0
O72 O 0.78787 0.43086 0.98954 0.0
O73 O 0.84652 0.37194 -0.00066 0.0
O74 O 0.70167 0.39068 0.00525 0.0
O75 O 0.80998 0.4486 0.884 0.0
O76 O 0.77041 0.39648 0.88541 0.0
C77 C 0.82514 0.41915 -2e-05 0.0
C78 C 0.82143 0.27476 0.96368 0.0
O79 O 0.79852 0.29639 0.00113 0.0
O80 O 0.81944 0.30476 0.9164 0.0
C81 C 0.67166 0.36885 0.00697 0.0
O82 O 0.67975 0.32864 0.98524 0.0
C83 C 0.79307 0.43189 0.85753 0.0
Zn84 Zn 0.62673 0.0735 0.12826 0.0
Zn85 Zn 0.69756 0.02943 0.12446 0.0
O86 O 0.67389 0.01115 0.06936 0.0
O87 O 0.61516 1.00128 0.12807 0.0
O88 O 0.75999 0.99525 0.10991 0.0
O89 O 0.65177 0.11669 0.05179 0.0
O90 O 0.69126 0.11508 0.10417 0.0
C91 C 0.63662 1.00075 0.08087 0.0
C92 C 0.63997 0.03663 0.22563 0.0
O93 O 0.66297 0.99926 0.20394 0.0
O94 O 0.64209 0.08391 0.19569 0.0
C95 C 0.78997 0.99376 0.13168 0.0
O96 O 0.7818 0.01569 0.17176 0.0
C97 C 0.66868 0.14302 0.06868 0.0
Zn98 Zn 0.88015 0.99371 0.37942 0.0
Zn99 Zn 0.94073 0.97669 0.40309 0.0
O100 O 0.89011 0.94808 0.46663 0.0
O101 O 0.8332 0.00574 0.44356 0.0
O102 O 0.96774 0.01997 0.42832 0.0
O103 O 0.91517 0.91141 0.38048 0.0
O104 O 0.97583 0.90298 0.40519 0.0
C105 C 0.84943 0.96317 0.47615 0.0
C106 C 0.91679 0.0235 0.2845 0.0
O107 O 0.94355 1.00081 0.3163 0.0
O108 O 0.87905 0.04384 0.30458 0.0
C109 C 0.97287 0.06841 0.40458 0.0
O110 O 0.96212 0.094 0.35723 0.0
C111 C 0.95151 0.88286 0.39099 0.0
Zn112 Zn 0.5814 0.12141 0.00669 0.0
Zn113 Zn 0.52075 0.09791 0.02356 0.0
O114 O 0.57131 0.03418 0.05208 0.0
O115 O 0.6283 0.05724 0.99454 0.0
O116 O 0.49361 0.07296 0.98021 0.0
O117 O 0.54638 0.12022 0.08901 0.0
O118 O 0.48566 0.09573 0.09727 0.0
C119 C 0.61199 0.02462 0.037 0.0
C120 C 0.54486 0.21641 0.97706 0.0
O121 O 0.51805 0.18467 -0.00036 0.0
O122 O 0.58259 0.1963 0.95671 0.0
C123 C 0.49005 0.09578 0.93107 0.0
O124 O 0.50269 0.1419 0.90477 0.0
C125 C 0.51001 0.10977 0.11749 0.0
Zn126 Zn 0.89939 0.80615 0.37627 0.0
Zn127 Zn 0.94716 0.72376 0.3979 0.0
O128 O 0.8849 0.7131 0.442 0.0
O129 O 0.88751 0.78264 0.46221 0.0
O130 O -0.00535 0.6572 0.41143 0.0
O131 O 0.8787 0.77114 0.33199 0.0
O132 O 0.94742 0.74593 0.31523 0.0
C133 C 0.8659 0.74839 0.46803 0.0
C134 C 0.96572 0.83123 0.37697 0.0
O135 O 0.96459 0.78689 0.41487 0.0
O136 O 0.95434 0.83371 0.3349 0.0
C137 C -0.00133 0.61285 0.40048 0.0
O138 O 0.03412 0.57611 0.40483 0.0
C139 C 0.91306 0.76693 0.29687 0.0
Zn140 Zn 0.04092 0.25459 0.59618 0.0
Zn141 Zn 0.09689 0.2897 0.5653 0.0
O142 O 0.08105 0.259 0.65218 0.0
O143 O 0.01197 0.26817 0.66893 0.0
O144 O 0.09715 0.3694 0.54549 0.0
O145 O 0.1 0.19358 0.59069 0.0
O146 O 0.15289 0.23899 0.55845 0.0
C147 C 0.04622 0.25238 0.6867 0.0
C148 C 0.04006 0.25994 0.50254 0.0
O149 O 0.0748 0.26978 0.50607 0.0
O150 O 0.00742 0.2661 0.53969 0.0
C151 C 0.12735 0.39541 0.52497 0.0
O152 O 0.11884 0.44758 0.52113 0.0
C153 C 0.14018 0.19413 0.57519 0.0
Zn154 Zn 0.92073 0.40426 0.746 0.0
Zn155 Zn 0.86479 0.43529 0.71086 0.0
O156 O 0.88057 0.34838 0.74144 0.0
O157 O 0.94966 0.33155 0.73228 0.0
O158 O 0.86457 0.45527 0.63115 0.0
O159 O 0.86164 0.40973 0.80698 0.0
O160 O 0.80878 0.44215 0.76152 0.0
C161 C 0.91539 0.31382 0.74804 0.0
C162 C 0.92166 0.49788 0.74082 0.0
O163 O 0.88691 0.49441 0.73094 0.0
O164 O 0.95426 0.4607 0.73462 0.0
C165 C 0.83437 0.47584 0.60514 0.0
O166 O 0.84289 0.47978 0.55295 0.0
C167 C 0.82147 0.4253 0.8064 0.0
Zn168 Zn 0.56215 0.12408 0.19439 0.0
Zn169 Zn 0.51429 0.10243 0.27673 0.0
O170 O 0.5765 0.05813 0.28743 0.0
O171 O 0.57389 0.03812 0.2177 0.0
O172 O 0.46675 0.0889 0.3432 0.0
O173 O 0.58288 0.16814 0.2296 0.0
O174 O 0.51416 0.18506 0.25475 0.0
C175 C 0.59543 0.03215 0.25208 0.0
C176 C 0.49581 0.1237 0.16916 0.0
O177 O 0.49686 0.08573 0.21345 0.0
O178 O 0.50725 0.16568 0.16679 0.0
C179 C 0.46272 0.0998 0.38757 0.0
O180 O 0.42725 0.09548 0.42427 0.0
C181 C 0.54857 0.20333 0.23384 0.0
Zn182 Zn 0.83478 0.87222 0.42693 0.0
Zn183 Zn 0.76387 0.8761 0.47082 0.0
O184 O 0.78751 0.93102 0.4894 0.0
O185 O 0.84621 0.87215 0.49932 0.0
O186 O 0.70142 0.89071 0.50481 0.0
O187 O 0.80986 0.9488 0.38383 0.0
O188 O 0.77031 0.8966 0.38514 0.0
C189 C 0.82475 0.91934 0.49992 0.0
C190 C 0.82138 0.77494 0.46345 0.0
O191 O 0.79839 0.79652 0.5009 0.0
O192 O 0.8194 0.80496 0.41617 0.0
C193 C 0.67145 0.86894 0.50624 0.0
O194 O 0.67967 0.82882 0.48436 0.0
C195 C 0.79295 0.93206 0.35736 0.0
Zn196 Zn 0.12673 0.07342 0.62837 0.0
Zn197 Zn 0.19762 0.02946 0.62439 0.0
O198 O 0.1739 0.011 0.56948 0.0
O199 O 0.11521 1.00109 0.62837 0.0
O200 O 0.26005 0.99535 0.60975 0.0
O201 O 0.15163 0.11657 0.55182 0.0
O202 O 0.19124 0.11513 0.60398 0.0
C203 C 0.13665 1.0005 0.58118 0.0
C204 C 0.14021 0.03674 0.7256 0.0
O205 O 0.16315 0.99932 0.70396 0.0
O206 O 0.14219 0.08405 0.69563 0.0
C207 C 0.29004 0.99375 0.63157 0.0
O208 O 0.28188 0.01555 0.67174 0.0
C209 C 0.16857 0.14298 0.56857 0.0
Zn210 Zn 0.8805 0.49337 0.87955 0.0
Zn211 Zn 0.94115 0.47622 0.90316 0.0
O212 O 0.89052 0.44775 0.96676 0.0
O213 O 0.83362 0.50552 0.94372 0.0
O214 O 0.96828 0.51946 0.92824 0.0
O215 O 0.91541 0.41102 0.88063 0.0
O216 O 0.97614 0.40246 0.90526 0.0
C217 C 0.84986 0.46294 0.97629 0.0
C218 C 0.91712 0.5231 0.78463 0.0
O219 O 0.9439 0.50033 0.8164 0.0
O220 O 0.87942 0.54352 0.80472 0.0
C221 C 0.97166 0.56867 0.90553 0.0
O222 O 0.9589 0.59502 0.8595 0.0
C223 C 0.95174 0.38241 0.89111 0.0
Zn224 Zn 0.08142 0.62084 0.00704 0.0
Zn225 Zn 0.02086 0.59716 0.02415 0.0
O226 O 0.07149 0.53363 0.05276 0.0
O227 O 0.12836 0.55667 0.995 0.0
O228 O -0.00612 0.5719 0.98087 0.0
O229 O 0.04645 0.61982 0.08935 0.0
O230 O -0.01423 0.5951 0.09784 0.0
C231 C 0.11216 0.52411 0.03762 0.0
C232 C 0.04476 0.7158 0.97722 0.0
O233 O 0.01803 0.68397 -2e-05 0.0
O234 O 0.08249 0.69568 0.95688 0.0
C235 C -0.01112 0.59559 0.93238 0.0
O236 O -0.00025 0.64288 0.90677 0.0
C237 C 0.01012 0.60932 0.11792 0.0
Zn238 Zn 0.38042 0.49329 0.37969 0.0
Zn239 Zn 0.44101 0.47603 0.40339 0.0
O240 O 0.39033 0.44755 0.4669 0.0
O241 O 0.3335 0.50542 0.44383 0.0
O242 O 0.46813 0.5192 0.42859 0.0
O243 O 0.41528 0.41093 0.38071 0.0
O244 O 0.47599 0.40227 0.40545 0.0
C245 C 0.34966 0.46277 0.4764 0.0
C246 C 0.41711 0.52307 0.28477 0.0
O247 O 0.44384 0.50023 0.3166 0.0
O248 O 0.37941 0.54351 0.30487 0.0
C249 C 0.47162 0.56837 0.40583 0.0
O250 O 0.45898 0.59469 0.35973 0.0
C251 C 0.4516 0.38227 0.39121 0.0
Zn252 Zn 0.04093 0.75473 0.09578 0.0
Zn253 Zn 0.09688 0.78988 0.06483 0.0
O254 O 0.08101 0.7593 0.15173 0.0
O255 O 0.01195 0.76839 0.16849 0.0
O256 O 0.0972 0.86957 0.04491 0.0
O257 O 0.10002 0.69374 0.09037 0.0
O258 O 0.15289 0.73919 0.05806 0.0
C259 C 0.0462 0.75265 0.18628 0.0
C260 C 0.0401 0.75984 0.0022 0.0
O261 O 0.07482 0.76979 0.00567 0.0
O262 O 0.00745 0.76604 0.03931 0.0
C263 C 0.12746 0.89547 0.02457 0.0
O264 O 0.119 0.94766 0.02066 0.0
C265 C 0.14019 0.69431 0.07487 0.0
Zn266 Zn 0.06228 0.62428 0.1944 0.0
Zn267 Zn 0.01458 0.60269 0.27686 0.0
O268 O 0.07688 0.55867 0.28745 0.0
O269 O 0.07422 0.53832 0.21802 0.0
O270 O 0.96715 0.58917 0.34348 0.0
O271 O 0.08298 0.66868 0.22926 0.0
O272 O 0.01427 0.6854 0.25456 0.0
C273 C 0.09586 0.53259 0.2522 0.0
C274 C -0.00408 0.62343 0.1695 0.0
O275 O -0.00289 0.58557 0.21386 0.0
O276 O 0.00727 0.66555 0.16693 0.0
C277 C 0.96316 0.60012 0.38781 0.0
O278 O 0.92773 0.59576 0.42458 0.0
C279 C 0.04862 0.70379 0.23347 0.0
Zn280 Zn 0.33484 0.87233 0.92691 0.0
Zn281 Zn 0.26401 0.87611 0.9709 0.0
O282 O 0.28762 0.93117 0.9893 0.0
O283 O 0.34636 0.87245 -0.00083 0.0
O284 O 0.20157 0.89065 0.00501 0.0
O285 O 0.30978 0.94882 0.88378 0.0
O286 O 0.27036 0.89647 0.88524 0.0
C287 C 0.32488 0.91964 -0.00026 0.0
C288 C 0.32164 0.77494 0.96364 0.0
O289 O 0.29861 0.7966 0.00102 0.0
O290 O 0.31953 0.80492 0.91638 0.0
C291 C 0.17159 0.86887 0.0065 0.0
O292 O 0.17976 0.82876 0.9846 0.0
C293 C 0.29294 0.93198 0.85734 0.0
Zn294 Zn 0.42062 0.90467 0.74576 0.0
Zn295 Zn 0.36466 0.9354 0.71067 0.0
O296 O 0.38063 0.84852 0.74137 0.0
O297 O 0.44969 0.83194 0.73215 0.0
O298 O 0.36439 0.95516 0.63099 0.0
O299 O 0.36154 0.91002 0.80677 0.0
O300 O 0.30865 0.94214 0.76134 0.0
C301 C 0.41549 0.81405 0.74801 0.0
C302 C 0.42132 0.99839 0.74049 0.0
O303 O 0.38662 0.99475 0.73063 0.0
O304 O 0.45399 0.96128 0.73432 0.0
C305 C 0.33416 0.97554 0.60504 0.0
O306 O 0.34264 0.97935 0.55288 0.0
C307 C 0.32136 0.92542 0.8062 0.0
Zn308 Zn 0.38011 0.99395 0.87923 0.0
Zn309 Zn 0.44073 0.97709 0.9028 0.0
O310 O 0.39017 0.94848 0.96644 0.0
O311 O 0.33318 0.00604 0.94337 0.0
O312 O 0.46777 0.02045 0.92789 0.0
O313 O 0.41518 0.91165 0.88036 0.0
O314 O 0.47587 0.90339 0.90494 0.0
C315 C 0.34949 0.96354 0.97598 0.0
C316 C 0.41669 0.02369 0.78427 0.0
O317 O 0.44348 1.00109 0.81604 0.0
O318 O 0.37894 0.044 0.80436 0.0
C319 C 0.47275 0.06896 0.9042 0.0
O320 O 0.4618 0.09461 0.85697 0.0
C321 C 0.45155 0.88317 0.89084 0.0
Zn322 Zn 0.12686 0.57356 0.12836 0.0
Zn323 Zn 0.19779 0.52973 0.12442 0.0
O324 O 0.17412 0.51101 0.06963 0.0
O325 O 0.11546 0.50108 0.12858 0.0
O326 O 0.26024 0.49575 0.10977 0.0
O327 O 0.1517 0.61661 0.05174 0.0
O328 O 0.1913 0.61544 0.10379 0.0
C329 C 0.13689 0.50043 0.0814 0.0
C330 C 0.14036 0.53719 0.22558 0.0
O331 O 0.16335 0.49971 0.20404 0.0
O332 O 0.1423 0.58446 0.1955 0.0
C333 C 0.29021 0.49422 0.13158 0.0
O334 O 0.28202 0.51601 0.17176 0.0
C335 C 0.16861 0.64315 0.06837 0.0
Zn336 Zn 0.3995 0.8063 0.87631 0.0
Zn337 Zn 0.44736 0.72395 0.89793 0.0
O338 O 0.38515 0.7132 0.94213 0.0
O339 O 0.38769 0.78289 0.96226 0.0
O340 O 0.4949 0.65745 0.91143 0.0
O341 O 0.37883 0.77117 0.83212 0.0
O342 O 0.44755 0.74602 0.81529 0.0
C343 C 0.36618 0.74851 0.96815 0.0
C344 C 0.4658 0.83152 0.87685 0.0
O345 O 0.46474 0.78719 0.91478 0.0
O346 O 0.4544 0.83393 0.83483 0.0
C347 C 0.49892 0.61309 0.90052 0.0
O348 O 0.53439 0.57637 0.90482 0.0
C349 C 0.41317 0.76695 0.79697 0.0
Zn350 Zn 0.58135 0.62069 0.50718 0.0
Zn351 Zn 0.52079 0.59694 0.52441 0.0
O352 O 0.57148 0.53347 0.55298 0.0
O353 O 0.6283 0.55654 0.49512 0.0
O354 O 0.49378 0.57162 0.48122 0.0
O355 O 0.54643 0.61973 0.5895 0.0
O356 O 0.48576 0.59492 0.59813 0.0
C357 C 0.61215 0.52399 0.53778 0.0
C358 C 0.54463 0.71562 0.47731 0.0
O359 O 0.51792 0.68376 0.50016 0.0
O360 O 0.58235 0.69551 0.45693 0.0
C361 C 0.48886 0.59527 0.43269 0.0
O362 O 0.49983 0.64249 0.40703 0.0
C363 C 0.51012 0.60921 0.61813 0.0
Zn364 Zn 0.5409 0.7547 0.59575 0.0
Zn365 Zn 0.59682 0.7899 0.56466 0.0
O366 O 0.58104 0.75941 0.65156 0.0
O367 O 0.51198 0.76845 0.66844 0.0
O368 O 0.59706 0.86962 0.54461 0.0
O369 O 0.60001 0.69375 0.59032 0.0
O370 O 0.65284 0.73926 0.55785 0.0
C371 C 0.54625 0.75276 0.68617 0.0
C372 C 0.53999 0.75969 0.50223 0.0
O373 O 0.57471 0.76969 0.50562 0.0
O374 O 0.50737 0.7659 0.53938 0.0
C375 C 0.62732 0.89555 0.52424 0.0
O376 O 0.61883 0.94776 0.52023 0.0
C377 C 0.64017 0.69435 0.57475 0.0
Zn378 Zn 0.6269 0.57356 0.62838 0.0
Zn379 Zn 0.69784 0.52982 0.62439 0.0
O380 O 0.67413 0.511 0.56969 0.0
O381 O 0.61552 0.50104 0.62871 0.0
O382 O 0.76028 0.49582 0.60972 0.0
O383 O 0.65168 0.61659 0.55172 0.0
O384 O 0.69133 0.61553 0.60368 0.0
C385 C 0.63692 0.50037 0.58152 0.0
C386 C 0.64042 0.53729 0.7256 0.0
O387 O 0.66344 0.49983 0.70406 0.0
O388 O 0.64239 0.58453 0.69545 0.0
C389 C 0.79026 0.49406 0.63165 0.0
O390 O 0.78209 0.51565 0.67197 0.0
C391 C 0.66861 0.64319 0.56827 0.0
Zn392 Zn 0.56234 0.62432 0.69441 0.0
Zn393 Zn 0.51471 0.6028 0.77696 0.0
O394 O 0.57702 0.55883 0.7875 0.0
O395 O 0.57431 0.53835 0.71809 0.0
O396 O 0.46734 0.58931 0.84365 0.0
O397 O 0.58309 0.66881 0.72913 0.0
O398 O 0.51439 0.68552 0.75455 0.0
C399 C 0.59593 0.53269 0.75228 0.0
C400 C 0.49595 0.62338 0.66968 0.0
O401 O 0.49718 0.58557 0.71407 0.0
O402 O 0.50729 0.66554 0.66702 0.0
C403 C 0.46339 0.6003 0.88795 0.0
O404 O 0.42799 0.59595 0.92477 0.0
C405 C 0.54872 0.70392 0.73337 0.0
Zn406 Zn 0.33478 0.37209 0.427 0.0
Zn407 Zn 0.26388 0.37616 0.47081 0.0
O408 O 0.28764 0.43089 0.48951 0.0
O409 O 0.34625 0.37183 0.49944 0.0
O410 O 0.20144 0.39085 0.50486 0.0
O411 O 0.30997 0.44873 0.38396 0.0
O412 O 0.27032 0.39679 0.38512 0.0
C413 C 0.32487 0.41905 0.50008 0.0
C414 C 0.32125 0.27487 0.4634 0.0
O415 O 0.29827 0.29648 0.50083 0.0
O416 O 0.31924 0.30498 0.41616 0.0
C417 C 0.17146 0.36891 0.50667 0.0
O418 O 0.17961 0.32858 0.48509 0.0
C419 C 0.29305 0.43217 0.35737 0.0
Zn420 Zn 0.42073 0.40455 0.24586 0.0
Zn421 Zn 0.3648 0.43566 0.21069 0.0
O422 O 0.38053 0.34874 0.24125 0.0
O423 O 0.44959 0.33181 0.23218 0.0
O424 O 0.36457 0.45566 0.13098 0.0
O425 O 0.36163 0.41006 0.30682 0.0
O426 O 0.30877 0.44254 0.26133 0.0
C427 C 0.41531 0.31411 0.2479 0.0
C428 C 0.4217 0.49809 0.24076 0.0
O429 O 0.38695 0.49471 0.23082 0.0
O430 O 0.4543 0.46091 0.23456 0.0
C431 C 0.33434 0.47612 0.10502 0.0
O432 O 0.34284 0.4801 0.05282 0.0
C433 C 0.32146 0.42566 0.30621 0.0
Zn434 Zn 0.39929 0.30598 0.37628 0.0
Zn435 Zn 0.44691 0.22339 0.39782 0.0
O436 O 0.38461 0.21291 0.44186 0.0
O437 O 0.38738 0.28237 0.46223 0.0
O438 O 0.49428 0.1567 0.41135 0.0
O439 O 0.37848 0.27122 0.33188 0.0
O440 O 0.44718 0.24573 0.31514 0.0
C441 C 0.36574 0.24818 0.46796 0.0
C442 C 0.46572 0.33069 0.3771 0.0
O443 O 0.4645 0.28632 0.41494 0.0
O444 O 0.45434 0.33332 0.33498 0.0
C445 C 0.49824 0.11238 0.40037 0.0
O446 O 0.53364 0.07555 0.40475 0.0
C447 C 0.41283 0.26692 0.29677 0.0
loop_
_geom_bond_atom_site_label_1
_geom_bond_atom_site_label_2
_geom_bond_distance
_geom_bond_site_symmetry_2
_ccdc_geom_bond_type
Zn0 O3 2.031 . S
Zn0 O5 2.049 . S
Zn0 O10 2.067 . S
Zn1 O2 1.962 1_545 S
Zn1 O4 1.986 . S
Zn1 O6 1.996 . S
Zn1 O9 1.943 . S
O2 Zn1 1.962 1_565 S
O2 C7 1.254 . S
O3 Zn0 2.031 . S
O3 C7 1.269 1_545 S
O4 Zn1 1.986 . S
O4 C11 1.262 . S
O5 Zn0 2.049 . S
O5 C13 1.260 . S
O6 Zn1 1.996 . S
O6 C13 1.257 . S
C7 O2 1.254 . S
C7 O3 1.269 1_565 S
C8 O9 1.249 . S
C8 O10 1.270 . S
O9 Zn1 1.943 . S
O9 C8 1.249 . S
O10 Zn0 2.067 . S
O10 C8 1.270 . S
C11 O4 1.262 . S
C11 O12 1.232 1_545 S
O12 C11 1.232 1_565 S
C13 O5 1.260 . S
C13 O6 1.257 . S
Zn14 O17 2.031 . S
Zn14 O19 2.049 . S
Zn14 O24 2.067 . S
Zn15 O16 1.962 . S
Zn15 O18 1.986 1_655 S
Zn15 O20 1.996 . S
Zn15 O23 1.943 1_655 S
O16 Zn15 1.962 . S
O16 C21 1.254 . S
O17 Zn14 2.031 . S
O17 C21 1.269 . S
O18 Zn15 1.986 1_455 S
O18 C25 1.262 . S
O19 Zn14 2.049 . S
O19 C27 1.260 . S
O20 Zn15 1.996 . S
O20 C27 1.257 . S
C21 O16 1.254 . S
C21 O17 1.269 . S
C22 O23 1.249 . S
C22 O24 1.270 1_455 S
O23 Zn15 1.943 1_455 S
O23 C22 1.249 . S
O24 Zn14 2.067 . S
O24 C22 1.270 1_655 S
C25 O18 1.262 . S
C25 O26 1.232 . S
O26 C25 1.232 . S
C27 O19 1.260 . S
C27 O20 1.257 . S
Zn28 O31 2.031 . S
Zn28 O33 2.049 . S
Zn28 O38 2.067 1_554 S
Zn29 O30 1.962 . S
Zn29 O32 1.986 1_554 S
Zn29 O34 1.996 . S
Zn29 O37 1.943 1_554 S
O30 Zn29 1.962 . S
O30 C35 1.254 . S
O31 Zn28 2.031 . S
O31 C35 1.269 . S
O32 Zn29 1.986 1_556 S
O32 C39 1.262 . S
O33 Zn28 2.049 . S
O33 C41 1.260 . S
O34 Zn29 1.996 . S
O34 C41 1.257 . S
C35 O30 1.254 . S
C35 O31 1.269 . S
C36 O37 1.249 . S
C36 O38 1.270 . S
O37 Zn29 1.943 1_556 S
O37 C36 1.249 . S
O38 Zn28 2.067 1_556 S
O38 C36 1.270 . S
C39 O32 1.262 . S
C39 O40 1.232 . S
O40 C39 1.232 . S
C41 O33 1.260 . S
C41 O34 1.257 . S
Zn42 O45 2.031 . S
Zn42 O47 2.049 . S
Zn42 O52 2.067 1_565 S
Zn43 O44 1.962 . S
Zn43 O46 1.986 1_565 S
Zn43 O48 1.996 . S
Zn43 O51 1.943 1_565 S
O44 Zn43 1.962 . S
O44 C49 1.254 . S
O45 Zn42 2.031 . S
O45 C49 1.269 . S
O46 Zn43 1.986 1_545 S
O46 C53 1.262 . S
O47 Zn42 2.049 . S
O47 C55 1.260 . S
O48 Zn43 1.996 . S
O48 C55 1.257 . S
C49 O44 1.254 . S
C49 O45 1.269 . S
C50 O51 1.249 . S
C50 O52 1.270 . S
O51 Zn43 1.943 1_545 S
O51 C50 1.249 . S
O52 Zn42 2.067 1_545 S
O52 C50 1.270 . S
C53 O46 1.262 . S
C53 O54 1.232 . S
O54 C53 1.232 . S
C55 O47 1.260 . S
C55 O48 1.257 . S
Zn56 O59 2.031 . S
Zn56 O61 2.049 . S
Zn56 O66 2.067 . S
Zn57 O58 1.962 . S
Zn57 O60 1.986 1_455 S
Zn57 O62 1.996 . S
Zn57 O65 1.943 1_455 S
O58 Zn57 1.962 . S
O58 C63 1.254 . S
O59 Zn56 2.031 . S
O59 C63 1.269 . S
O60 Zn57 1.986 1_655 S
O60 C67 1.262 . S
O61 Zn56 2.049 . S
O61 C69 1.260 . S
O62 Zn57 1.996 . S
O62 C69 1.257 . S
C63 O58 1.254 . S
C63 O59 1.269 . S
C64 O65 1.249 . S
C64 O66 1.270 1_655 S
O65 Zn57 1.943 1_655 S
O65 C64 1.249 . S
O66 Zn56 2.067 . S
O66 C64 1.270 1_455 S
C67 O60 1.262 . S
C67 O68 1.232 . S
O68 C67 1.232 . S
C69 O61 1.260 . S
C69 O62 1.257 . S
Zn70 O73 2.031 1_556 S
Zn70 O75 2.049 . S
Zn70 O80 2.067 . S
Zn71 O72 1.962 . S
Zn71 O74 1.986 . S
Zn71 O76 1.996 1_554 S
Zn71 O79 1.943 1_554 S
O72 Zn71 1.962 . S
O72 C77 1.254 . S
O73 Zn70 2.031 1_554 S
O73 C77 1.269 . S
O74 Zn71 1.986 . S
O74 C81 1.262 . S
O75 Zn70 2.049 . S
O75 C83 1.260 . S
O76 Zn71 1.996 1_556 S
O76 C83 1.257 . S
C77 O72 1.254 . S
C77 O73 1.269 . S
C78 O79 1.249 . S
C78 O80 1.270 . S
O79 Zn71 1.943 1_556 S
O79 C78 1.249 . S
O80 Zn70 2.067 . S
O80 C78 1.270 . S
C81 O74 1.262 . S
C81 O82 1.232 . S
O82 C81 1.232 . S
C83 O75 1.260 . S
C83 O76 1.257 . S
Zn84 O87 2.031 1_545 S
Zn84 O89 2.049 . S
Zn84 O94 2.067 . S
Zn85 O86 1.962 . S
Zn85 O88 1.986 . S
Zn85 O90 1.996 1_565 S
Zn85 O93 1.943 1_565 S
O86 Zn85 1.962 . S
O86 C91 1.254 . S
O87 Zn84 2.031 1_565 S
O87 C91 1.269 . S
O88 Zn85 1.986 . S
O88 C95 1.262 . S
O89 Zn84 2.049 . S
O89 C97 1.260 . S
O90 Zn85 1.996 1_545 S
O90 C97 1.257 . S
C91 O86 1.254 . S
C91 O87 1.269 . S
C92 O93 1.249 . S
C92 O94 1.270 . S
O93 Zn85 1.943 1_545 S
O93 C92 1.249 . S
O94 Zn84 2.067 . S
O94 C92 1.270 . S
C95 O88 1.262 . S
C95 O96 1.232 . S
O96 C95 1.232 . S
C97 O89 1.260 . S
C97 O90 1.257 . S
Zn98 O101 2.031 . S
Zn98 O103 2.049 . S
Zn98 O108 2.067 . S
Zn99 O100 1.962 . S
Zn99 O102 1.986 . S
Zn99 O104 1.996 . S
Zn99 O107 1.943 1_565 S
O100 Zn99 1.962 . S
O100 C105 1.254 . S
O101 Zn98 2.031 . S
O101 C105 1.269 . S
O102 Zn99 1.986 . S
O102 C109 1.262 1_565 S
O103 Zn98 2.049 . S
O103 C111 1.260 . S
O104 Zn99 1.996 . S
O104 C111 1.257 . S
C105 O100 1.254 . S
C105 O101 1.269 . S
C106 O107 1.249 . S
C106 O108 1.270 1_545 S
O107 Zn99 1.943 1_545 S
O107 C106 1.249 . S
O108 Zn98 2.067 . S
O108 C106 1.270 1_565 S
C109 O102 1.262 1_545 S
C109 O110 1.232 . S
O110 C109 1.232 . S
C111 O103 1.260 . S
C111 O104 1.257 . S
Zn112 O115 2.031 . S
Zn112 O117 2.049 . S
Zn112 O122 2.067 . S
Zn113 O114 1.962 1_545 S
Zn113 O116 1.986 . S
Zn113 O118 1.996 . S
Zn113 O121 1.943 1_554 S
O114 Zn113 1.962 1_565 S
O114 C119 1.254 . S
O115 Zn112 2.031 . S
O115 C119 1.269 1_545 S
O116 Zn113 1.986 . S
O116 C123 1.262 1_554 S
O117 Zn112 2.049 . S
O117 C125 1.260 . S
O118 Zn113 1.996 . S
O118 C125 1.257 . S
C119 O114 1.254 . S
C119 O115 1.269 1_565 S
C120 O121 1.249 . S
C120 O122 1.270 1_556 S
O121 Zn113 1.943 1_556 S
O121 C120 1.249 . S
O122 Zn112 2.067 . S
O122 C120 1.270 1_554 S
C123 O116 1.262 1_556 S
C123 O124 1.232 1_545 S
O124 C123 1.232 1_565 S
C125 O117 1.260 . S
C125 O118 1.257 . S
Zn126 O129 2.031 . S
Zn126 O131 2.049 . S
Zn126 O136 2.067 . S
Zn127 O128 1.962 . S
Zn127 O130 1.986 1_655 S
Zn127 O132 1.996 . S
Zn127 O135 1.943 1_655 S
O128 Zn127 1.962 . S
O128 C133 1.254 . S
O129 Zn126 2.031 . S
O129 C133 1.269 . S
O130 Zn127 1.986 1_455 S
O130 C137 1.262 . S
O131 Zn126 2.049 . S
O131 C139 1.260 . S
O132 Zn127 1.996 . S
O132 C139 1.257 . S
C133 O128 1.254 . S
C133 O129 1.269 . S
C134 O135 1.249 . S
C134 O136 1.270 1_455 S
O135 Zn127 1.943 1_455 S
O135 C134 1.249 . S
O136 Zn126 2.067 . S
O136 C134 1.270 1_655 S
C137 O130 1.262 . S
C137 O138 1.232 . S
O138 C137 1.232 . S
C139 O131 1.260 . S
C139 O132 1.257 . S
Zn140 O143 2.031 . S
Zn140 O145 2.049 . S
Zn140 O150 2.067 . S
Zn141 O142 1.962 . S
Zn141 O144 1.986 . S
Zn141 O146 1.996 . S
Zn141 O149 1.943 . S
O142 Zn141 1.962 . S
O142 C147 1.254 . S
O143 Zn140 2.031 . S
O143 C147 1.269 . S
O144 Zn141 1.986 . S
O144 C151 1.262 . S
O145 Zn140 2.049 . S
O145 C153 1.260 . S
O146 Zn141 1.996 . S
O146 C153 1.257 . S
C147 O142 1.254 . S
C147 O143 1.269 . S
C148 O149 1.249 . S
C148 O150 1.270 . S
O149 Zn141 1.943 . S
O149 C148 1.249 . S
O150 Zn140 2.067 . S
O150 C148 1.270 . S
C151 O144 1.262 . S
C151 O152 1.232 . S
O152 C151 1.232 . S
C153 O145 1.260 . S
C153 O146 1.257 . S
Zn154 O157 2.031 . S
Zn154 O159 2.049 . S
Zn154 O164 2.067 . S
Zn155 O156 1.962 . S
Zn155 O158 1.986 . S
Zn155 O160 1.996 . S
Zn155 O163 1.943 . S
O156 Zn155 1.962 . S
O156 C161 1.254 . S
O157 Zn154 2.031 . S
O157 C161 1.269 . S
O158 Zn155 1.986 . S
O158 C165 1.262 . S
O159 Zn154 2.049 . S
O159 C167 1.260 . S
O160 Zn155 1.996 . S
O160 C167 1.257 . S
C161 O156 1.254 . S
C161 O157 1.269 . S
C162 O163 1.249 . S
C162 O164 1.270 . S
O163 Zn155 1.943 . S
O163 C162 1.249 . S
O164 Zn154 2.067 . S
O164 C162 1.270 . S
C165 O158 1.262 . S
C165 O166 1.232 . S
O166 C165 1.232 . S
C167 O159 1.260 . S
C167 O160 1.257 . S
Zn168 O171 2.031 . S
Zn168 O173 2.049 . S
Zn168 O178 2.067 . S
Zn169 O170 1.962 . S
Zn169 O172 1.986 . S
Zn169 O174 1.996 . S
Zn169 O177 1.943 . S
O170 Zn169 1.962 . S
O170 C175 1.254 . S
O171 Zn168 2.031 . S
O171 C175 1.269 . S
O172 Zn169 1.986 . S
O172 C179 1.262 . S
O173 Zn168 2.049 . S
O173 C181 1.260 . S
O174 Zn169 1.996 . S
O174 C181 1.257 . S
C175 O170 1.254 . S
C175 O171 1.269 . S
C176 O177 1.249 . S
C176 O178 1.270 . S
O177 Zn169 1.943 . S
O177 C176 1.249 . S
O178 Zn168 2.067 . S
O178 C176 1.270 . S
C179 O172 1.262 . S
C179 O180 1.232 . S
O180 C179 1.232 . S
C181 O173 1.260 . S
C181 O174 1.257 . S
Zn182 O185 2.031 . S
Zn182 O187 2.049 . S
Zn182 O192 2.067 . S
Zn183 O184 1.962 . S
Zn183 O186 1.986 . S
Zn183 O188 1.996 . S
Zn183 O191 1.943 . S
O184 Zn183 1.962 . S
O184 C189 1.254 . S
O185 Zn182 2.031 . S
O185 C189 1.269 . S
O186 Zn183 1.986 . S
O186 C193 1.262 . S
O187 Zn182 2.049 . S
O187 C195 1.260 . S
O188 Zn183 1.996 . S
O188 C195 1.257 . S
C189 O184 1.254 . S
C189 O185 1.269 . S
C190 O191 1.249 . S
C190 O192 1.270 . S
O191 Zn183 1.943 . S
O191 C190 1.249 . S
O192 Zn182 2.067 . S
O192 C190 1.270 . S
C193 O186 1.262 . S
C193 O194 1.232 . S
O194 C193 1.232 . S
C195 O187 1.260 . S
C195 O188 1.257 . S
Zn196 O199 2.031 1_545 S
Zn196 O201 2.049 . S
Zn196 O206 2.067 . S
Zn197 O198 1.962 . S
Zn197 O200 1.986 . S
Zn197 O202 1.996 1_565 S
Zn197 O205 1.943 1_565 S
O198 Zn197 1.962 . S
O198 C203 1.254 . S
O199 Zn196 2.031 1_565 S
O199 C203 1.269 . S
O200 Zn197 1.986 . S
O200 C207 1.262 . S
O201 Zn196 2.049 . S
O201 C209 1.260 . S
O202 Zn197 1.996 1_545 S
O202 C209 1.257 . S
C203 O198 1.254 . S
C203 O199 1.269 . S
C204 O205 1.249 . S
C204 O206 1.270 . S
O205 Zn197 1.943 1_545 S
O205 C204 1.249 . S
O206 Zn196 2.067 . S
O206 C204 1.270 . S
C207 O200 1.262 . S
C207 O208 1.232 . S
O208 C207 1.232 . S
C209 O201 1.260 . S
C209 O202 1.257 . S
Zn210 O213 2.031 . S
Zn210 O215 2.049 . S
Zn210 O220 2.067 . S
Zn211 O212 1.962 1_556 S
Zn211 O214 1.986 . S
Zn211 O216 1.996 . S
Zn211 O219 1.943 . S
O212 Zn211 1.962 1_554 S
O212 C217 1.254 . S
O213 Zn210 2.031 . S
O213 C217 1.269 1_556 S
O214 Zn211 1.986 . S
O214 C221 1.262 . S
O215 Zn210 2.049 . S
O215 C223 1.260 . S
O216 Zn211 1.996 . S
O216 C223 1.257 . S
C217 O212 1.254 . S
C217 O213 1.269 1_554 S
C218 O219 1.249 . S
C218 O220 1.270 . S
O219 Zn211 1.943 . S
O219 C218 1.249 . S
O220 Zn210 2.067 . S
O220 C218 1.270 . S
C221 O214 1.262 . S
C221 O222 1.232 1_556 S
O222 C221 1.232 1_554 S
C223 O215 1.260 . S
C223 O216 1.257 . S
Zn224 O227 2.031 . S
Zn224 O229 2.049 . S
Zn224 O234 2.067 . S
Zn225 O226 1.962 . S
Zn225 O228 1.986 . S
Zn225 O230 1.996 . S
Zn225 O233 1.943 1_554 S
O226 Zn225 1.962 . S
O226 C231 1.254 . S
O227 Zn224 2.031 . S
O227 C231 1.269 . S
O228 Zn225 1.986 . S
O228 C235 1.262 1_554 S
O229 Zn224 2.049 . S
O229 C237 1.260 . S
O230 Zn225 1.996 . S
O230 C237 1.257 . S
C231 O226 1.254 . S
C231 O227 1.269 . S
C232 O233 1.249 . S
C232 O234 1.270 1_556 S
O233 Zn225 1.943 1_556 S
O233 C232 1.249 . S
O234 Zn224 2.067 . S
O234 C232 1.270 1_554 S
C235 O228 1.262 1_556 S
C235 O236 1.232 . S
O236 C235 1.232 . S
C237 O229 1.260 . S
C237 O230 1.257 . S
Zn238 O241 2.031 . S
Zn238 O243 2.049 . S
Zn238 O248 2.067 . S
Zn239 O240 1.962 . S
Zn239 O242 1.986 . S
Zn239 O244 1.996 . S
Zn239 O247 1.943 . S
O240 Zn239 1.962 . S
O240 C245 1.254 . S
O241 Zn238 2.031 . S
O241 C245 1.269 . S
O242 Zn239 1.986 . S
O242 C249 1.262 . S
O243 Zn238 2.049 . S
O243 C251 1.260 . S
O244 Zn239 1.996 . S
O244 C251 1.257 . S
C245 O240 1.254 . S
C245 O241 1.269 . S
C246 O247 1.249 . S
C246 O248 1.270 . S
O247 Zn239 1.943 . S
O247 C246 1.249 . S
O248 Zn238 2.067 . S
O248 C246 1.270 . S
C249 O242 1.262 . S
C249 O250 1.232 . S
O250 C249 1.232 . S
C251 O243 1.260 . S
C251 O244 1.257 . S
Zn252 O255 2.031 . S
Zn252 O257 2.049 . S
Zn252 O262 2.067 1_554 S
Zn253 O254 1.962 . S
Zn253 O256 1.986 1_554 S
Zn253 O258 1.996 . S
Zn253 O261 1.943 1_554 S
O254 Zn253 1.962 . S
O254 C259 1.254 . S
O255 Zn252 2.031 . S
O255 C259 1.269 . S
O256 Zn253 1.986 1_556 S
O256 C263 1.262 . S
O257 Zn252 2.049 . S
O257 C265 1.260 . S
O258 Zn253 1.996 . S
O258 C265 1.257 . S
C259 O254 1.254 . S
C259 O255 1.269 . S
C260 O261 1.249 . S
C260 O262 1.270 . S
O261 Zn253 1.943 1_556 S
O261 C260 1.249 . S
O262 Zn252 2.067 1_556 S
O262 C260 1.270 . S
C263 O256 1.262 . S
C263 O264 1.232 . S
O264 C263 1.232 . S
C265 O257 1.260 . S
C265 O258 1.257 . S
Zn266 O269 2.031 . S
Zn266 O271 2.049 . S
Zn266 O276 2.067 . S
Zn267 O268 1.962 . S
Zn267 O270 1.986 1_455 S
Zn267 O272 1.996 . S
Zn267 O275 1.943 1_455 S
O268 Zn267 1.962 . S
O268 C273 1.254 . S
O269 Zn266 2.031 . S
O269 C273 1.269 . S
O270 Zn267 1.986 1_655 S
O270 C277 1.262 . S
O271 Zn266 2.049 . S
O271 C279 1.260 . S
O272 Zn267 1.996 . S
O272 C279 1.257 . S
C273 O268 1.254 . S
C273 O269 1.269 . S
C274 O275 1.249 . S
C274 O276 1.270 1_655 S
O275 Zn267 1.943 1_655 S
O275 C274 1.249 . S
O276 Zn266 2.067 . S
O276 C274 1.270 1_455 S
C277 O270 1.262 . S
C277 O278 1.232 . S
O278 C277 1.232 . S
C279 O271 1.260 . S
C279 O272 1.257 . S
Zn280 O283 2.031 1_556 S
Zn280 O285 2.049 . S
Zn280 O290 2.067 . S
Zn281 O282 1.962 . S
Zn281 O284 1.986 . S
Zn281 O286 1.996 1_554 S
Zn281 O289 1.943 1_554 S
O282 Zn281 1.962 . S
O282 C287 1.254 . S
O283 Zn280 2.031 1_554 S
O283 C287 1.269 . S
O284 Zn281 1.986 . S
O284 C291 1.262 . S
O285 Zn280 2.049 . S
O285 C293 1.260 . S
O286 Zn281 1.996 1_556 S
O286 C293 1.257 . S
C287 O282 1.254 . S
C287 O283 1.269 . S
C288 O289 1.249 . S
C288 O290 1.270 . S
O289 Zn281 1.943 1_556 S
O289 C288 1.249 . S
O290 Zn280 2.067 . S
O290 C288 1.270 . S
C291 O284 1.262 . S
C291 O292 1.232 . S
O292 C291 1.232 . S
C293 O285 1.260 . S
C293 O286 1.257 . S
Zn294 O297 2.031 . S
Zn294 O299 2.049 . S
Zn294 O304 2.067 1_565 S
Zn295 O296 1.962 . S
Zn295 O298 1.986 1_565 S
Zn295 O300 1.996 . S
Zn295 O303 1.943 1_565 S
O296 Zn295 1.962 . S
O296 C301 1.254 . S
O297 Zn294 2.031 . S
O297 C301 1.269 . S
O298 Zn295 1.986 1_545 S
O298 C305 1.262 . S
O299 Zn294 2.049 . S
O299 C307 1.260 . S
O300 Zn295 1.996 . S
O300 C307 1.257 . S
C301 O296 1.254 . S
C301 O297 1.269 . S
C302 O303 1.249 . S
C302 O304 1.270 . S
O303 Zn295 1.943 1_545 S
O303 C302 1.249 . S
O304 Zn294 2.067 1_545 S
O304 C302 1.270 . S
C305 O298 1.262 . S
C305 O306 1.232 . S
O306 C305 1.232 . S
C307 O299 1.260 . S
C307 O300 1.257 . S
Zn308 O311 2.031 . S
Zn308 O313 2.049 . S
Zn308 O318 2.067 . S
Zn309 O310 1.962 1_556 S
Zn309 O312 1.986 . S
Zn309 O314 1.996 . S
Zn309 O317 1.943 1_565 S
O310 Zn309 1.962 1_554 S
O310 C315 1.254 . S
O311 Zn308 2.031 . S
O311 C315 1.269 1_556 S
O312 Zn309 1.986 . S
O312 C319 1.262 1_565 S
O313 Zn308 2.049 . S
O313 C321 1.260 . S
O314 Zn309 1.996 . S
O314 C321 1.257 . S
C315 O310 1.254 . S
C315 O311 1.269 1_554 S
C316 O317 1.249 . S
C316 O318 1.270 1_545 S
O317 Zn309 1.943 1_545 S
O317 C316 1.249 . S
O318 Zn308 2.067 . S
O318 C316 1.270 1_565 S
C319 O312 1.262 1_545 S
C319 O320 1.232 1_556 S
O320 C319 1.232 1_554 S
C321 O313 1.260 . S
C321 O314 1.257 . S
Zn322 O325 2.031 . S
Zn322 O327 2.049 . S
Zn322 O332 2.067 . S
Zn323 O324 1.962 . S
Zn323 O326 1.986 . S
Zn323 O328 1.996 . S
Zn323 O331 1.943 . S
O324 Zn323 1.962 . S
O324 C329 1.254 . S
O325 Zn322 2.031 . S
O325 C329 1.269 . S
O326 Zn323 1.986 . S
O326 C333 1.262 . S
O327 Zn322 2.049 . S
O327 C335 1.260 . S
O328 Zn323 1.996 . S
O328 C335 1.257 . S
C329 O324 1.254 . S
C329 O325 1.269 . S
C330 O331 1.249 . S
C330 O332 1.270 . S
O331 Zn323 1.943 . S
O331 C330 1.249 . S
O332 Zn322 2.067 . S
O332 C330 1.270 . S
C333 O326 1.262 . S
C333 O334 1.232 . S
O334 C333 1.232 . S
C335 O327 1.260 . S
C335 O328 1.257 . S
Zn336 O339 2.031 . S
Zn336 O341 2.049 . S
Zn336 O346 2.067 . S
Zn337 O338 1.962 . S
Zn337 O340 1.986 . S
Zn337 O342 1.996 . S
Zn337 O345 1.943 . S
O338 Zn337 1.962 . S
O338 C343 1.254 . S
O339 Zn336 2.031 . S
O339 C343 1.269 . S
O340 Zn337 1.986 . S
O340 C347 1.262 . S
O341 Zn336 2.049 . S
O341 C349 1.260 . S
O342 Zn337 1.996 . S
O342 C349 1.257 . S
C343 O338 1.254 . S
C343 O339 1.269 . S
C344 O345 1.249 . S
C344 O346 1.270 . S
O345 Zn337 1.943 . S
O345 C344 1.249 . S
O346 Zn336 2.067 . S
O346 C344 1.270 . S
C347 O340 1.262 . S
C347 O348 1.232 . S
O348 C347 1.232 . S
C349 O341 1.260 . S
C349 O342 1.257 . S
Zn350 O353 2.031 . S
Zn350 O355 2.049 . S
Zn350 O360 2.067 . S
Zn351 O352 1.962 . S
Zn351 O354 1.986 . S
Zn351 O356 1.996 . S
Zn351 O359 1.943 . S
O352 Zn351 1.962 . S
O352 C357 1.254 . S
O353 Zn350 2.031 . S
O353 C357 1.269 . S
O354 Zn351 1.986 . S
O354 C361 1.262 . S
O355 Zn350 2.049 . S
O355 C363 1.260 . S
O356 Zn351 1.996 . S
O356 C363 1.257 . S
C357 O352 1.254 . S
C357 O353 1.269 . S
C358 O359 1.249 . S
C358 O360 1.270 . S
O359 Zn351 1.943 . S
O359 C358 1.249 . S
O360 Zn350 2.067 . S
O360 C358 1.270 . S
C361 O354 1.262 . S
C361 O362 1.232 . S
O362 C361 1.232 . S
C363 O355 1.260 . S
C363 O356 1.257 . S
Zn364 O367 2.031 . S
Zn364 O369 2.049 . S
Zn364 O374 2.067 . S
Zn365 O366 1.962 . S
Zn365 O368 1.986 . S
Zn365 O370 1.996 . S
Zn365 O373 1.943 . S
O366 Zn365 1.962 . S
O366 C371 1.254 . S
O367 Zn364 2.031 . S
O367 C371 1.269 . S
O368 Zn365 1.986 . S
O368 C375 1.262 . S
O369 Zn364 2.049 . S
O369 C377 1.260 . S
O370 Zn365 1.996 . S
O370 C377 1.257 . S
C371 O366 1.254 . S
C371 O367 1.269 . S
C372 O373 1.249 . S
C372 O374 1.270 . S
O373 Zn365 1.943 . S
O373 C372 1.249 . S
O374 Zn364 2.067 . S
O374 C372 1.270 . S
C375 O368 1.262 . S
C375 O376 1.232 . S
O376 C375 1.232 . S
C377 O369 1.260 . S
C377 O370 1.257 . S
Zn378 O381 2.031 . S
Zn378 O383 2.049 . S
Zn378 O388 2.067 . S
Zn379 O380 1.962 . S
Zn379 O382 1.986 . S
Zn379 O384 1.996 . S
Zn379 O387 1.943 . S
O380 Zn379 1.962 . S
O380 C385 1.254 . S
O381 Zn378 2.031 . S
O381 C385 1.269 . S
O382 Zn379 1.986 . S
O382 C389 1.262 . S
O383 Zn378 2.049 . S
O383 C391 1.260 . S
O384 Zn379 1.996 . S
O384 C391 1.257 . S
C385 O380 1.254 . S
C385 O381 1.269 . S
C386 O387 1.249 . S
C386 O388 1.270 . S
O387 Zn379 1.943 . S
O387 C386 1.249 . S
O388 Zn378 2.067 . S
O388 C386 1.270 . S
C389 O382 1.262 . S
C389 O390 1.232 . S
O390 C389 1.232 . S
C391 O383 1.260 . S
C391 O384 1.257 . S
Zn392 O395 2.031 . S
Zn392 O397 2.049 . S
Zn392 O402 2.067 . S
Zn393 O394 1.962 . S
Zn393 O396 1.986 . S
Zn393 O398 1.996 . S
Zn393 O401 1.943 . S
O394 Zn393 1.962 . S
O394 C399 1.254 . S
O395 Zn392 2.031 . S
O395 C399 1.269 . S
O396 Zn393 1.986 . S
O396 C403 1.262 . S
O397 Zn392 2.049 . S
O397 C405 1.260 . S
O398 Zn393 1.996 . S
O398 C405 1.257 . S
C399 O394 1.254 . S
C399 O395 1.269 . S
C400 O401 1.249 . S
C400 O402 1.270 . S
O401 Zn393 1.943 . S
O401 C400 1.249 . S
O402 Zn392 2.067 . S
O402 C400 1.270 . S
C403 O396 1.262 . S
C403 O404 1.232 . S
O404 C403 1.232 . S
C405 O397 1.260 . S
C405 O398 1.257 . S
Zn406 O409 2.031 . S
Zn406 O411 2.049 . S
Zn406 O416 2.067 . S
Zn407 O408 1.962 . S
Zn407 O410 1.986 . S
Zn407 O412 1.996 . S
Zn407 O415 1.943 . S
O408 Zn407 1.962 . S
O408 C413 1.254 . S
O409 Zn406 2.031 . S
O409 C413 1.269 . S
O410 Zn407 1.986 . S
O410 C417 1.262 . S
O411 Zn406 2.049 . S
O411 C419 1.260 . S
O412 Zn407 1.996 . S
O412 C419 1.257 . S
C413 O408 1.254 . S
C413 O409 1.269 . S
C414 O415 1.249 . S
C414 O416 1.270 . S
O415 Zn407 1.943 . S
O415 C414 1.249 . S
O416 Zn406 2.067 . S
O416 C414 1.270 . S
C417 O410 1.262 . S
C417 O418 1.232 . S
O418 C417 1.232 . S
C419 O411 1.260 . S
C419 O412 1.257 . S
Zn420 O423 2.031 . S
Zn420 O425 2.049 . S
Zn420 O430 2.067 . S
Zn421 O422 1.962 . S
Zn421 O424 1.986 . S
Zn421 O426 1.996 . S
Zn421 O429 1.943 . S
O422 Zn421 1.962 . S
O422 C427 1.254 . S
O423 Zn420 2.031 . S
O423 C427 1.269 . S
O424 Zn421 1.986 . S
O424 C431 1.262 . S
O425 Zn420 2.049 . S
O425 C433 1.260 . S
O426 Zn421 1.996 . S
O426 C433 1.257 . S
C427 O422 1.254 . S
C427 O423 1.269 . S
C428 O429 1.249 . S
C428 O430 1.270 . S
O429 Zn421 1.943 . S
O429 C428 1.249 . S
O430 Zn420 2.067 . S
O430 C428 1.270 . S
C431 O424 1.262 . S
C431 O432 1.232 . S
O432 C431 1.232 . S
C433 O425 1.260 . S
C433 O426 1.257 . S
Zn434 O437 2.031 . S
Zn434 O439 2.049 . S
Zn434 O444 2.067 . S
Zn435 O436 1.962 . S
Zn435 O438 1.986 . S
Zn435 O440 1.996 . S
Zn435 O443 1.943 . S
O436 Zn435 1.962 . S
O436 C441 1.254 . S
O437 Zn434 2.031 . S
O437 C441 1.269 . S
O438 Zn435 1.986 . S
O438 C445 1.262 . S
O439 Zn434 2.049 . S
O439 C447 1.260 . S
O440 Zn435 1.996 . S
O440 C447 1.257 . S
C441 O436 1.254 . S
C441 O437 1.269 . S
C442 O443 1.249 . S
C442 O444 1.270 . S
O443 Zn435 1.943 . S
O443 C442 1.249 . S
O444 Zn434 2.067 . S
O444 C442 1.270 . S
C445 O438 1.262 . S
C445 O446 1.232 . S
O446 C445 1.232 . S
C447 O439 1.260 . S
C447 O440 1.257 . S
C109 C11 2.296 1_655 S
C25 C67 3.089 1_455 S
C81 C39 2.894 1_554 S
C95 C53 2.894 1_565 S
C123 C319 2.296 . S
C137 C277 3.090 1_455 S
C417 C151 2.894 . S
C389 C165 2.894 . S
C179 C445 3.089 . S
C193 C375 2.894 . S
C207 C305 2.894 1_565 S
C221 C235 2.296 1_655 S
C249 C361 2.296 . S
C263 C291 2.894 1_556 S
C431 C333 2.894 . S
C403 C347 3.089 . S
C148 C8 1.148 . S
C161 C27 0.798 . S
C120 C36 1.148 . S
C139 C49 0.798 . S
C204 C63 0.944 . S
C77 C217 1.654 . S
C92 C175 0.945 . S
C105 C189 1.653 . S
C176 C125 1.587 . S
C133 C190 0.944 . S
C209 C153 0.117 . S
C162 C218 1.147 . S
C329 C231 1.654 . S
C35 C181 0.798 . S
C55 C195 0.117 . S
C7 C203 1.654 . S
C251 C442 1.587 . S
C279 C259 0.798 . S
C22 C223 1.587 1_455 S
C330 C273 0.944 . S
C287 C315 1.654 . S
C232 C260 1.148 . S
C301 C349 0.798 . S
C344 C321 1.587 . S
C147 C69 0.799 . S
C288 C343 0.945 . S
C106 C50 1.148 . S
C400 C363 1.587 . S
C78 C21 0.945 . S
C237 C274 1.588 1_455 S
C358 C372 1.147 . S
C386 C399 0.945 . S
C335 C265 0.117 . S
C371 C405 0.797 . S
C167 C83 0.117 . S
C111 C134 1.588 1_655 S
C245 C413 1.653 . S
C427 C447 0.798 . S
C441 C414 0.944 . S
C64 C13 1.587 1_655 S
C41 C97 0.117 . S
C428 C246 1.148 . S
C357 C385 1.654 . S
C293 C307 0.117 . S
C91 C119 1.653 . S
C316 C302 1.147 . S
C377 C391 0.117 . S
C433 C419 0.117 . S
