# Generated by pormake.
# Topology wkf, (6)-cn, num edge types: 1
# Building blocks:
#     Node 0, Type 0, BuildingBlock: KUMBUR_clean_sbu_1, # of connection points: 6
#     Node 1, Type 0, BuildingBlock: KUMBUR_clean_sbu_1, # of connection points: 6
#     Node 2, Type 0, BuildingBlock: KUMBUR_clean_sbu_1, # of connection points: 6
#     Node 3, Type 0, BuildingBlock: KUMBUR_clean_sbu_1, # of connection points: 6
#     Node 4, Type 0, BuildingBlock: KUMBUR_clean_sbu_1, # of connection points: 6
#     Node 5, Type 0, BuildingBlock: KUMBUR_clean_sbu_1, # of connection points: 6
#     Node 6, Type 0, BuildingBlock: KUMBUR_clean_sbu_1, # of connection points: 6
#     Node 7, Type 0, BuildingBlock: KUMBUR_clean_sbu_1, # of connection points: 6
#     Node 8, Type 0, BuildingBlock: KUMBUR_clean_sbu_1, # of connection points: 6
#     Node 9, Type 0, BuildingBlock: KUMBUR_clean_sbu_1, # of connection points: 6
#     Node 10, Type 0, BuildingBlock: KUMBUR_clean_sbu_1, # of connection points: 6
#     Node 11, Type 0, BuildingBlock: KUMBUR_clean_sbu_1, # of connection points: 6
#     Edge 12, Type (0, 0), BuildingBlock: AJUNOK_clean_linker_0, # of connection points: 2
#     Edge 13, Type (0, 0), BuildingBlock: AJUNOK_clean_linker_0, # of connection points: 2
#     Edge 14, Type (0, 0), BuildingBlock: AJUNOK_clean_linker_0, # of connection points: 2
#     Edge 15, Type (0, 0), BuildingBlock: AJUNOK_clean_linker_0, # of connection points: 2
#     Edge 16, Type (0, 0), BuildingBlock: AJUNOK_clean_linker_0, # of connection points: 2
#     Edge 17, Type (0, 0), BuildingBlock: AJUNOK_clean_linker_0, # of connection points: 2
#     Edge 18, Type (0, 0), BuildingBlock: AJUNOK_clean_linker_0, # of connection points: 2
#     Edge 19, Type (0, 0), BuildingBlock: AJUNOK_clean_linker_0, # of connection points: 2
#     Edge 20, Type (0, 0), BuildingBlock: AJUNOK_clean_linker_0, # of connection points: 2
#     Edge 21, Type (0, 0), BuildingBlock: AJUNOK_clean_linker_0, # of connection points: 2
#     Edge 22, Type (0, 0), BuildingBlock: AJUNOK_clean_linker_0, # of connection points: 2
#     Edge 23, Type (0, 0), BuildingBlock: AJUNOK_clean_linker_0, # of connection points: 2
#     Edge 24, Type (0, 0), BuildingBlock: AJUNOK_clean_linker_0, # of connection points: 2
#     Edge 25, Type (0, 0), BuildingBlock: AJUNOK_clean_linker_0, # of connection points: 2
#     Edge 26, Type (0, 0), BuildingBlock: AJUNOK_clean_linker_0, # of connection points: 2
#     Edge 27, Type (0, 0), BuildingBlock: AJUNOK_clean_linker_0, # of connection points: 2
#     Edge 28, Type (0, 0), BuildingBlock: AJUNOK_clean_linker_0, # of connection points: 2
#     Edge 29, Type (0, 0), BuildingBlock: AJUNOK_clean_linker_0, # of connection points: 2
#     Edge 30, Type (0, 0), BuildingBlock: AJUNOK_clean_linker_0, # of connection points: 2
#     Edge 31, Type (0, 0), BuildingBlock: AJUNOK_clean_linker_0, # of connection points: 2
#     Edge 32, Type (0, 0), BuildingBlock: AJUNOK_clean_linker_0, # of connection points: 2
#     Edge 33, Type (0, 0), BuildingBlock: AJUNOK_clean_linker_0, # of connection points: 2
#     Edge 34, Type (0, 0), BuildingBlock: AJUNOK_clean_linker_0, # of connection points: 2
#     Edge 35, Type (0, 0), BuildingBlock: AJUNOK_clean_linker_0, # of connection points: 2
#     Edge 36, Type (0, 0), BuildingBlock: AJUNOK_clean_linker_0, # of connection points: 2
#     Edge 37, Type (0, 0), BuildingBlock: AJUNOK_clean_linker_0, # of connection points: 2
#     Edge 38, Type (0, 0), BuildingBlock: AJUNOK_clean_linker_0, # of connection points: 2
#     Edge 39, Type (0, 0), BuildingBlock: AJUNOK_clean_linker_0, # of connection points: 2
#     Edge 40, Type (0, 0), BuildingBlock: AJUNOK_clean_linker_0, # of connection points: 2
#     Edge 41, Type (0, 0), BuildingBlock: AJUNOK_clean_linker_0, # of connection points: 2
#     Edge 42, Type (0, 0), BuildingBlock: AJUNOK_clean_linker_0, # of connection points: 2
#     Edge 43, Type (0, 0), BuildingBlock: AJUNOK_clean_linker_0, # of connection points: 2
#     Edge 44, Type (0, 0), BuildingBlock: AJUNOK_clean_linker_0, # of connection points: 2
#     Edge 45, Type (0, 0), BuildingBlock: AJUNOK_clean_linker_0, # of connection points: 2
#     Edge 46, Type (0, 0), BuildingBlock: AJUNOK_clean_linker_0, # of connection points: 2
#     Edge 47, Type (0, 0), BuildingBlock: AJUNOK_clean_linker_0, # of connection points: 2
# Relax obj value: 0.326
# Max RMSD: 0.290
# Mean RMSD: 0.279
data_MOF--net-wkf--node1-KUMBUR_clean_sbu_1--edge1-AJUNOK_clean_linker_0
_symmetry_space_group_name_H-M    P1
_symmetry_Int_Tables_number       1
_symmetry_cell_setting            triclinic
loop_
_symmetry_equiv_pos_as_xyz
'x, y, z'
_cell_length_a     22.922933
_cell_length_b     23.039733
_cell_length_c     69.908419
_cell_angle_alpha  89.800128
_cell_angle_beta   90.160181
_cell_angle_gamma 119.4583
loop_
_atom_site_label
_atom_site_type_symbol
_atom_site_fract_x
_atom_site_fract_y
_atom_site_fract_z
_atom_type_partial_charge
Tb0 Tb 0.42877 0.91264 0.35865 0.0
C1 C 0.7081 0.97014 0.35842 0.0
N2 N 0.68046 0.95462 0.37606 0.0
C3 C 0.76493 0.9284 0.38629 0.0
C4 C 0.76697 0.96784 0.35414 0.0
C5 C 0.70596 0.93061 0.38972 0.0
C6 C 0.79656 0.94882 0.36855 0.0
C7 C 0.69661 0.99166 0.32522 0.0
C8 C 0.67363 0.98238 0.34433 0.0
C9 C 0.7575 0.99375 0.321 0.0
C10 C 0.79279 0.98198 0.33547 0.0
Tb11 Tb 0.5924 0.97256 0.38169 0.0
N12 N 0.61396 0.97768 0.34903 0.0
C13 C 0.65589 0.99461 0.31082 0.0
C14 C 0.57184 0.97402 0.33464 0.0
C15 C 0.5924 0.9839 0.31551 0.0
H16 H 0.68176 0.91469 0.40348 0.0
H17 H 0.55855 0.98153 0.30433 0.0
H18 H 0.45656 0.98354 0.31489 0.0
H19 H 0.23138 0.86608 0.40958 0.0
H20 H 0.52115 0.95991 0.33753 0.0
H21 H 0.67131 1.00113 0.29596 0.0
H22 H 0.31207 0.84159 0.39364 0.0
H23 H 0.78606 0.91124 0.39734 0.0
H24 H 0.77626 1.00164 0.30646 0.0
H25 H 0.83836 0.98116 0.33193 0.0
H26 H 0.42081 0.05322 0.29712 0.0
H27 H 0.84254 0.94784 0.36588 0.0
H28 H 0.21471 0.95818 0.3979 0.0
N29 N 0.40822 0.9846 0.34086 0.0
C30 C 0.36562 1.00219 0.34938 0.0
C31 C 0.40579 1.03998 0.31187 0.0
C32 C 0.34539 1.04335 0.33976 0.0
C33 C 0.42595 1.0005 0.32201 0.0
C34 C 0.3665 0.06258 0.32089 0.0
N35 N 0.34574 0.92273 0.37388 0.0
C36 C 0.30667 0.88285 0.38856 0.0
C37 C 0.28722 0.98558 0.37504 0.0
C38 C 0.3352 0.97191 0.36669 0.0
C39 C 0.25165 0.9488 0.39108 0.0
C40 C 0.26057 0.89647 0.39764 0.0
H41 H 0.35064 0.09267 0.31288 0.0
H42 H 0.2851 0.09182 0.34165 0.0
H43 H 0.23636 1.04346 0.37271 0.0
O44 O 0.33001 0.83448 0.35361 0.0
O45 O 0.43837 0.9614 0.38771 0.0
O46 O 0.55049 1.03316 0.39114 0.0
O47 O 0.39836 0.87075 0.33047 0.0
O48 O 0.4126 0.84254 0.38264 0.0
O49 O 0.50852 0.89924 0.4007 0.0
O50 O 0.68586 1.04276 0.39288 0.0
O51 O 0.5592 0.86613 0.37536 0.0
O52 O 0.48486 0.85041 0.35123 0.0
O53 O 0.60995 0.96796 0.41096 0.0
O54 O 0.60048 0.06818 0.36799 0.0
O55 O 0.49728 1.02967 0.35346 0.0
C56 C 0.4891 1.01432 0.39594 0.0
C57 C 0.27904 0.8272 0.32277 0.0
C58 C 0.19335 0.78077 0.29627 0.0
C59 C 0.16931 0.82303 0.30249 0.0
C60 C 0.24667 0.86188 0.329 0.0
C61 C 0.19483 0.862 0.31872 0.0
C62 C 0.25106 0.78516 0.30613 0.0
C63 C 0.44488 0.85139 0.39905 0.0
C64 C 0.33599 0.83082 0.3352 0.0
C65 C 0.30086 0.06 0.3487 0.0
C66 C 0.27267 1.03203 0.36641 0.0
C67 C 0.52588 0.83105 0.36026 0.0
C68 C 0.66667 0.0766 0.42313 0.0
C69 C 0.70965 0.19418 0.42979 0.0
C70 C 0.6748 0.17766 0.44723 0.0
C71 C 0.63223 0.06035 0.44067 0.0
C72 C 0.70171 0.14315 0.41744 0.0
C73 C 0.63504 0.11071 0.45242 0.0
C74 C 0.55847 0.08209 0.35784 0.0
C75 C 0.66498 1.0249 0.4104 0.0
H76 H 0.12875 0.82478 0.295 0.0
H77 H 0.25965 0.88776 0.34231 0.0
H78 H 0.17281 0.89133 0.32375 0.0
H79 H 0.27227 0.75485 0.30138 0.0
H80 H 0.68071 0.21599 0.45722 0.0
H81 H 0.60346 1.00901 0.4453 0.0
H82 H 0.72681 0.15604 0.4037 0.0
H83 H 0.60848 0.09793 0.46591 0.0
Tb84 Tb 0.56209 0.3998 0.52487 0.0
C85 C 0.76524 0.69201 0.52691 0.0
N86 N 0.75786 0.66254 0.54416 0.0
C87 C 0.86242 0.7547 0.55457 0.0
C88 C 0.81995 0.75574 0.52303 0.0
C89 C 0.80749 0.6912 0.55762 0.0
C90 C 0.86781 0.78793 0.53737 0.0
C91 C 0.73369 0.67896 0.4936 0.0
C92 C 0.7229 0.65411 0.51251 0.0
C93 C 0.78432 0.74462 0.48988 0.0
C94 C 0.82755 0.78302 0.50461 0.0
Tb95 Tb 0.66077 0.56389 0.54899 0.0
N96 N 0.67701 0.58996 0.51666 0.0
C97 C 0.69638 0.63578 0.47885 0.0
C98 C 0.64596 0.54651 0.50198 0.0
C99 C 0.6536 0.56876 0.48302 0.0
H100 H 0.80452 0.66569 0.57087 0.0
H101 H 0.62734 0.5339 0.4716 0.0
H102 H 0.52314 0.42444 0.48032 0.0
H103 H 0.40432 0.20458 0.57496 0.0
H104 H 0.61589 0.4944 0.50458 0.0
H105 H 0.70316 0.6527 0.46412 0.0
H106 H 0.51068 0.27996 0.55906 0.0
H107 H 0.90076 0.77774 0.56544 0.0
H108 H 0.79272 0.76483 0.4755 0.0
H109 H 0.86871 0.83224 0.50138 0.0
H110 H 0.4198 0.39299 0.46198 0.0
H111 H 0.91089 0.83666 0.53493 0.0
H112 H 0.29849 0.19607 0.56333 0.0
N113 N 0.47191 0.3833 0.5066 0.0
C114 C 0.41115 0.34469 0.51506 0.0
C115 C 0.41682 0.3805 0.47701 0.0
C116 C 0.35116 0.32866 0.50529 0.0
C117 C 0.47526 0.39789 0.48743 0.0
C118 C 0.3548 0.34849 0.48619 0.0
N119 N 0.46688 0.31873 0.5394 0.0
C120 C 0.46517 0.27754 0.55391 0.0
C121 C 0.34645 0.26783 0.54051 0.0
C122 C 0.4088 0.31262 0.53223 0.0
C123 C 0.34533 0.23052 0.55649 0.0
C124 C 0.40483 0.23463 0.56299 0.0
H125 H 0.30979 0.33591 0.47808 0.0
H126 H 0.24292 0.27606 0.50704 0.0
H127 H 0.23874 0.22483 0.53819 0.0
O128 O 0.53891 0.3004 0.51934 0.0
O129 O 0.52625 0.40764 0.5547 0.0
O130 O 0.55667 0.51718 0.55713 0.0
O131 O 0.58113 0.37197 0.49718 0.0
O132 O 0.61342 0.38118 0.54909 0.0
O133 O 0.66154 0.48007 0.56601 0.0
O134 O 0.66951 0.64764 0.56367 0.0
O135 O 0.74062 0.5425 0.53916 0.0
O136 O 0.68045 0.45168 0.51935 0.0
O137 O 0.68687 0.57429 0.57795 0.0
O138 O 0.57104 0.56916 0.53576 0.0
O139 O 0.5171 0.4718 0.51816 0.0
C140 C 0.51943 0.45621 0.56274 0.0
C141 C 0.50516 0.25597 0.48754 0.0
C142 C 0.47131 0.17227 0.46081 0.0
C143 C 0.40436 0.15456 0.46452 0.0
C144 C 0.43672 0.23016 0.49124 0.0
C145 C 0.38744 0.18232 0.47962 0.0
C146 C 0.52265 0.22559 0.4721 0.0
C147 C 0.64434 0.41578 0.56454 0.0
C148 C 0.5551 0.3087 0.50133 0.0
C149 C 0.28935 0.28808 0.51422 0.0
C150 C 0.28702 0.25844 0.53192 0.0
C151 C 0.74087 0.50038 0.52633 0.0
C152 C 0.62685 0.61512 0.59532 0.0
C153 C 0.55619 0.65233 0.61075 0.0
C154 C 0.54217 0.60642 0.62559 0.0
C155 C 0.61233 0.56903 0.6103 0.0
C156 C 0.5971 0.65538 0.59548 0.0
C157 C 0.57005 0.5646 0.62527 0.0
C158 C 0.52095 0.53023 0.52369 0.0
C159 C 0.67524 0.62374 0.58011 0.0
H160 H 0.36402 0.11725 0.45592 0.0
H161 H 0.42042 0.24533 0.50359 0.0
H162 H 0.33519 0.16523 0.48269 0.0
H163 H 0.57483 0.24137 0.46939 0.0
H164 H 0.51311 0.60574 0.63787 0.0
H165 H 0.63429 0.5371 0.61067 0.0
H166 H 0.61034 0.6934 0.58455 0.0
H167 H 0.5606 0.53014 0.63694 0.0
Tb168 Tb 0.22205 0.54778 0.69207 0.0
C169 C 0.15861 0.76992 0.69424 0.0
N170 N 0.17673 0.75656 0.71138 0.0
C171 C 0.19906 0.8634 0.72306 0.0
C172 C 0.15732 0.8296 0.69094 0.0
C173 C 0.20089 0.80399 0.72541 0.0
C174 C 0.17501 0.87521 0.70594 0.0
C175 C 0.13541 0.741 0.66092 0.0
C176 C 0.14684 0.72579 0.67966 0.0
C177 C 0.13008 0.79844 0.65763 0.0
C178 C 0.14067 0.84261 0.67268 0.0
Tb179 Tb 0.16065 0.65125 0.71568 0.0
N180 N 0.15396 0.6718 0.68353 0.0
C181 C 0.13345 0.70012 0.64597 0.0
C182 C 0.15841 0.63596 0.6687 0.0
C183 C 0.14693 0.64851 0.64981 0.0
H184 H 0.21907 0.79484 0.73874 0.0
H185 H 0.14973 0.61942 0.63812 0.0
H186 H 0.16298 0.53099 0.64696 0.0
H187 H 0.23618 0.36621 0.73887 0.0
H188 H 0.17343 0.59968 0.67128 0.0
H189 H 0.12537 0.71022 0.63134 0.0
H190 H 0.27 0.47975 0.72726 0.0
H191 H 0.21545 0.89962 0.7345 0.0
H192 H 0.1204 0.81043 0.64338 0.0
H193 H 0.13875 0.88792 0.66988 0.0
H194 H 0.09509 0.43905 0.62502 0.0
H195 H 0.17175 0.92017 0.70429 0.0
H196 H 0.1521 0.26838 0.72111 0.0
N197 N 0.15339 0.46786 0.67052 0.0
C198 C 0.1333 0.40393 0.67614 0.0
C199 C 0.10458 0.42847 0.63943 0.0
C200 C 0.09549 0.34985 0.66376 0.0
C201 C 0.14217 0.48062 0.65206 0.0
C202 C 0.0805 0.36279 0.64536 0.0
N203 N 0.20039 0.44635 0.70407 0.0
C204 C 0.23206 0.4373 0.71955 0.0
C205 C 0.13725 0.3273 0.69946 0.0
C206 C 0.15507 0.39287 0.69376 0.0
C207 C 0.16513 0.31796 0.71621 0.0
C208 C 0.21324 0.37318 0.72617 0.0
H209 H 1.05187 0.3225 0.63545 0.0
H210 H 1.04878 0.24329 0.66015 0.0
H211 H 0.08219 0.22281 0.69174 0.0
O212 O 0.30103 0.52592 0.68887 0.0
O213 O 0.17193 0.5082 0.72129 0.0
O214 O 0.10036 0.54971 0.72428 0.0
O215 O 0.27153 0.56177 0.66489 0.0
O216 O 0.28853 0.59305 0.71721 0.0
O217 O 0.23762 0.64242 0.73403 0.0
O218 O 0.09023 0.67452 0.7272 0.0
O219 O 0.26679 0.72405 0.7087 0.0
O220 O 0.28534 0.6655 0.68516 0.0
O221 O 0.1632 0.66785 0.74526 0.0
O222 O 1.06544 0.56383 0.70162 0.0
O223 O 0.10531 0.50123 0.68642 0.0
C224 C 0.11966 0.50809 0.72977 0.0
C225 C 0.31443 0.48424 0.65835 0.0
C226 C 0.35949 0.44486 0.6314 0.0
C227 C 0.3223 0.38004 0.63884 0.0
C228 C 0.2851 0.41901 0.66564 0.0
C229 C 0.28667 0.36762 0.65577 0.0
C230 C 0.35336 0.49739 0.64095 0.0
C231 C 0.28277 0.62187 0.73289 0.0
C232 C 0.30909 0.53695 0.67052 0.0
C233 C 1.0764 0.28481 0.6697 0.0
C234 C 0.09605 0.27335 0.68763 0.0
C235 C 0.30351 0.72542 0.69397 0.0
C236 C 1.05511 0.62569 0.75791 0.0
C237 C 0.93615 0.55731 0.76437 0.0
C238 C 0.95077 0.55384 0.78377 0.0
C239 C 1.06931 0.6226 0.7773 0.0
C240 C 0.98919 0.58819 0.7514 0.0
C241 C 1.0173 0.58492 0.79006 0.0
C242 C 1.05217 0.50927 0.69107 0.0
C243 C 0.10804 0.67074 0.74471 0.0
H244 H 0.32242 0.33828 0.63178 0.0
H245 H 0.26232 0.4072 0.67949 0.0
H246 H 0.2615 0.31765 0.66166 0.0
H247 H 0.38032 0.54776 0.6354 0.0
H248 H 0.91113 0.53017 0.79424 0.0
H249 H 0.12025 0.65003 0.7826 0.0
H250 H 0.97862 0.58679 0.73627 0.0
H251 H 1.0283 0.58284 0.80503 0.0
Tb252 Tb 0.72468 0.1767 0.85687 0.0
C253 C 0.43306 0.12208 0.87755 0.0
N254 N 0.47733 0.13917 0.89214 0.0
C255 C 0.41211 0.17291 0.91093 0.0
C256 C 0.37582 0.12933 0.87901 0.0
C257 C 0.46846 0.16502 0.90866 0.0
C258 C 0.36504 0.15413 0.89612 0.0
C259 C 0.40725 0.08874 0.84451 0.0
C260 C 0.44784 0.10075 0.86082 0.0
C261 C 0.34831 0.09299 0.84595 0.0
C262 C 0.33223 0.11261 0.86325 0.0
Tb263 Tb 0.55997 0.1132 0.88866 0.0
N264 N 0.50534 0.0977 0.86012 0.0
C265 C 0.42891 0.07573 0.82716 0.0
C266 C 0.52955 0.09133 0.843 0.0
C267 C 0.49123 0.07868 0.82632 0.0
H268 H 0.5044 0.17832 0.92019 0.0
H269 H 0.51028 0.07236 0.81279 0.0
H270 H 0.63707 0.09834 0.81697 0.0
H271 H 0.96301 0.21385 0.88369 0.0
H272 H 0.57889 0.09807 0.84218 0.0
H273 H 0.3995 0.06655 0.81422 0.0
H274 H 0.86958 0.2386 0.88133 0.0
H275 H 0.40464 0.19284 0.92411 0.0
H276 H 0.31575 0.08287 0.83367 0.0
H277 H 0.28703 0.1163 0.8641 0.0
H278 H 0.6352 1.01513 0.79448 0.0
H279 H 0.32121 0.15967 0.89801 0.0
H280 H 0.96176 0.12451 0.86395 0.0
N281 N 0.71287 0.09825 0.83485 0.0
C282 C 0.76238 0.08134 0.83611 0.0
C283 C 0.67022 1.0324 0.80631 0.0
C284 C 0.7646 1.03593 0.82299 0.0
C285 C 0.67056 0.07864 0.81926 0.0
C286 C 0.71658 1.01009 0.80837 0.0
N287 N 0.81575 0.16268 0.86072 0.0
C288 C 0.86895 0.19945 0.87267 0.0
C289 C 0.86734 0.09907 0.85022 0.0
C290 C 0.81459 0.11402 0.84939 0.0
C291 C 0.92051 0.13477 0.86292 0.0
C292 C 0.92156 0.18545 0.87407 0.0
H293 H 0.71666 0.97497 0.79811 0.0
H294 H 0.81752 0.98393 0.81461 0.0
H295 H 0.90646 1.03804 0.83859 0.0
O296 O 0.82046 0.25478 0.84749 0.0
O297 O 0.74289 0.12854 0.88305 0.0
O298 O 0.64901 0.11654 0.88413 0.0
O299 O 0.73661 0.22056 0.82915 0.0
O300 O 0.74557 0.24008 0.88395 0.0
O301 O 0.6463 0.20283 0.90217 0.0
O302 O 0.47968 1.03911 0.90402 0.0
O303 O 0.58298 0.21443 0.87828 0.0
O304 O 0.66345 0.23657 0.85451 0.0
O305 O 0.5718 0.10509 0.91835 0.0
O306 O 0.55281 1.0188 0.87436 0.0
O307 O 0.64906 0.05851 0.85513 0.0
C308 C 0.68847 0.1001 0.89293 0.0
C309 C 0.84553 0.26345 0.81322 0.0
C310 C 0.93839 0.32178 0.78905 0.0
C311 C 0.92392 0.25911 0.78216 0.0
C312 C 0.8317 0.20392 0.80415 0.0
C313 C 0.87086 0.20126 0.78943 0.0
C314 C 0.89904 0.32409 0.80495 0.0
C315 C 0.71239 0.24324 0.89956 0.0
C316 C 0.80146 0.25999 0.83034 0.0
C317 C 0.81574 1.01937 0.8244 0.0
C318 C 0.86662 1.05046 0.83802 0.0
C319 C 0.61944 0.25224 0.86362 0.0
C320 C 0.50956 0.99526 0.93046 0.0
C321 C 0.44825 0.87495 0.93354 0.0
C322 C 0.46482 0.88096 0.95311 0.0
C323 C 0.52525 1.00118 0.95 0.0
C324 C 0.47803 0.93209 0.92205 0.0
C325 C 0.50535 0.94392 0.96111 0.0
C326 C 0.59146 1.00585 0.86227 0.0
C327 C 0.51348 0.05233 0.9199 0.0
H328 H 0.9518 0.2549 0.77025 0.0
H329 H 0.78896 0.15856 0.80787 0.0
H330 H 0.85854 0.15363 0.78317 0.0
H331 H 0.90934 0.37191 0.81059 0.0
H332 H 0.4432 0.83783 0.96245 0.0
H333 H 0.55059 1.04971 0.95676 0.0
H334 H 0.46863 0.92753 0.90679 0.0
H335 H 0.51702 0.94846 0.97623 0.0
Tb336 Tb 0.58776 0.70441 0.0245 0.0
C337 C 0.3677 0.42313 0.03078 0.0
N338 N 0.38489 0.45508 0.04777 0.0
C339 C 0.27908 0.37455 0.06104 0.0
C340 C 0.30615 0.36396 0.02834 0.0
C341 C 0.34028 0.43363 0.0626 0.0
C342 C 0.26266 0.33864 0.04397 0.0
C343 C 0.39071 0.42547 0.99703 0.0
C344 C 0.40961 0.45327 1.01549 0.0
C345 C 0.33139 0.36438 0.99461 0.0
C346 C 0.28916 0.33356 1.01028 0.0
Tb347 Tb 0.49057 0.544 0.05018 0.0
N348 N 0.46534 0.51321 1.01845 0.0
C349 C 0.43006 0.46156 0.98147 0.0
C350 C 0.49986 0.55081 1.00304 0.0
C351 C 0.48394 0.52529 0.98445 0.0
H352 H 0.35233 0.46131 0.07582 0.0
H353 H 0.51236 0.55532 0.97238 0.0
H354 H 0.61533 0.65806 0.9811 0.0
H355 H 0.75484 0.91335 0.06918 0.0
H356 H 0.53787 0.60134 1.00487 0.0
H357 H 0.41724 0.44224 0.96704 0.0
H358 H 0.64478 0.82837 0.05706 0.0
H359 H 0.24471 0.35669 0.073 0.0
H360 H 0.31649 0.34191 0.98058 0.0
H361 H 0.24241 0.28769 1.00812 0.0
H362 H 0.7136 0.6783 0.96193 0.0
H363 H 0.21561 0.29259 0.04289 0.0
H364 H 0.85848 0.92578 0.05464 0.0
N365 N 0.67311 0.71573 1.0049 0.0
C366 C 0.73568 0.76051 1.01132 0.0
C367 C 0.72044 0.7011 0.97587 0.0
C368 C 0.79309 0.77477 1.00047 0.0
C369 C 0.66483 0.68953 0.98682 0.0
C370 C 0.78482 0.74293 0.98286 0.0
N371 N 0.68537 0.7895 0.03653 0.0
C372 C 0.68953 0.83241 0.05073 0.0
C373 C 0.80587 0.84661 0.03409 0.0
C374 C 0.74195 0.7968 0.02794 0.0
C375 C 0.81026 0.88725 0.04949 0.0
C376 C 0.75187 0.88069 0.05766 0.0
H377 H 0.82778 0.75233 0.97421 0.0
H378 H 0.90132 0.83297 0.99908 0.0
H379 H 0.91261 0.89497 0.02861 0.0
O380 O 0.60565 0.80197 1.01818 0.0
O381 O 0.63113 0.70091 0.05366 0.0
O382 O 0.59484 0.59006 0.05781 0.0
O383 O 0.56958 0.72949 0.99623 0.0
O384 O 0.54014 0.72567 0.04937 0.0
O385 O 0.49945 0.62998 0.06773 0.0
O386 O 0.47459 0.45501 0.0632 0.0
O387 O 0.41452 0.57416 0.04301 0.0
O388 O 0.46946 0.64717 1.01837 0.0
O389 O 0.4771 0.53481 0.07989 0.0
O390 O 0.57346 0.53182 0.03478 0.0
O391 O 0.63675 0.63505 0.0206 0.0
C392 C 0.63548 0.65159 0.06235 0.0
C393 C 0.63989 0.84663 0.98618 0.0
C394 C 0.67023 0.92875 0.95894 0.0
C395 C 0.73788 0.95206 0.96338 0.0
C396 C 0.70852 0.87748 0.99037 0.0
C397 C 0.75657 0.92729 0.97891 0.0
C398 C 0.62045 0.87375 0.97019 0.0
C399 C 0.51601 0.69378 0.0658 0.0
C400 C 0.59133 0.79236 1.00003 0.0
C401 C 0.85676 0.82207 1.00713 0.0
C402 C 0.86318 0.8573 0.02399 0.0
C403 C 0.41068 0.60626 0.02776 0.0
C404 C 0.53313 0.48187 0.09288 0.0
C405 C 0.60427 0.43532 0.10119 0.0
C406 C 0.62252 0.47126 0.11835 0.0
C407 C 0.54993 0.51658 0.11033 0.0
C408 C 0.5652 0.44623 0.08783 0.0
C409 C 0.59655 0.51334 0.12265 0.0
C410 C 0.62829 0.57349 0.02454 0.0
C411 C 0.48066 0.48029 0.08028 0.0
H412 H 0.77711 0.99211 0.95512 0.0
H413 H 0.72585 0.86528 1.00306 0.0
H414 H 0.8091 0.94863 0.98253 0.0
H415 H 0.56788 0.85405 0.96703 0.0
H416 H 0.65301 0.46362 0.12883 0.0
H417 H 0.52609 0.54489 0.11459 0.0
H418 H 0.55344 0.4198 0.07431 0.0
H419 H 0.60932 0.54024 0.13605 0.0
Tb420 Tb 0.94204 0.56988 0.19196 0.0
C421 C 1.0219 0.36036 0.19249 0.0
N422 N 1.00599 0.37125 0.21023 0.0
C423 C 0.98917 0.26431 0.22043 0.0
C424 C 1.02492 0.30213 0.18816 0.0
C425 C 0.98672 0.3228 0.22397 0.0
C426 C 1.00971 0.25449 0.20255 0.0
C427 C 1.03717 0.39136 0.15912 0.0
C428 C 1.02757 0.40415 0.17828 0.0
C429 C 1.04584 0.33652 0.15488 0.0
C430 C 1.03947 0.29174 0.1694 0.0
Tb431 Tb 1.01068 0.47163 0.21548 0.0
N432 N 1.01548 0.45446 0.18294 0.0
C433 C 1.03342 0.43142 0.14468 0.0
C434 C 1.00452 0.4883 0.16857 0.0
C435 C 1.01519 0.47897 0.14941 0.0
H436 H 0.96941 0.32884 0.23777 0.0
H437 H 1.00769 0.50738 0.13826 0.0
H438 H 1.00871 0.61695 0.14791 0.0
H439 H 0.89128 0.71648 0.24334 0.0
H440 H 0.98525 0.52086 0.17155 0.0
H441 H 1.04034 0.42328 0.1298 0.0
H442 H 0.8665 0.61353 0.22633 0.0
H443 H 0.97478 0.22665 0.23146 0.0
H444 H 1.05407 0.32645 0.1403 0.0
H445 H 1.04298 0.24783 0.16582 0.0
H446 H 0.07877 0.72309 0.13105 0.0
H447 H 1.01093 0.20886 0.19977 0.0
H448 H 0.98702 0.82419 0.23331 0.0
N449 N 1.01364 0.66307 0.17477 0.0
C450 C 1.03269 0.72186 0.18399 0.0
C451 C 1.06746 0.72329 0.14606 0.0
C452 C 1.07584 0.78337 0.17509 0.0
C453 C 1.02722 0.66326 0.15563 0.0
C454 C 0.0944 0.78332 0.15605 0.0
N455 N 0.9505 0.66138 0.20756 0.0
C456 C 0.90883 0.65994 0.22188 0.0
C457 C 1.01556 0.78112 0.21015 0.0
C458 C 1.00117 0.72078 0.20114 0.0
C459 C 0.97717 0.77893 0.22596 0.0
C460 C 0.92277 0.71828 0.23158 0.0
H461 H 0.12634 0.82958 0.14861 0.0
H462 H 0.12845 0.8907 0.17836 0.0
H463 H 1.07709 0.8887 0.20931 0.0
O464 O 0.86319 0.59049 0.18662 0.0
O465 O 0.98672 0.60666 0.22152 0.0
O466 O 1.06596 0.57504 0.22385 0.0
O467 O 0.89851 0.55588 0.16383 0.0
O468 O 0.87237 0.51471 0.2157 0.0
O469 O 0.93043 0.47515 0.23356 0.0
O470 O 0.08983 0.46373 0.22859 0.0
O471 O 0.90694 0.39315 0.20742 0.0
O472 O 0.87771 0.45171 0.18615 0.0
O473 O 1.00165 0.44507 0.24434 0.0
O474 O 0.10403 0.55986 0.2017 0.0
O475 O 1.05934 0.61676 0.18553 0.0
C476 C 1.042 0.61257 0.22951 0.0
C477 C 0.85527 0.63176 0.15557 0.0
C478 C 0.80811 0.67003 0.12881 0.0
C479 C 0.8504 0.73582 0.13492 0.0
C480 C 0.89137 0.69853 0.16139 0.0
C481 C 0.89062 0.74961 0.15101 0.0
C482 C 0.81207 0.61735 0.13909 0.0
C483 C 0.88041 0.48879 0.23175 0.0
C484 C 0.85875 0.5793 0.16831 0.0
C485 C 0.09429 0.84313 0.18482 0.0
C486 C 1.06472 0.84196 0.20242 0.0
C487 C 0.86501 0.39176 0.19405 0.0
C488 C 0.10425 0.50864 0.26021 0.0
C489 C 0.21215 0.58925 0.27364 0.0
C490 C 0.17982 0.60113 0.28885 0.0
C491 C 1.0728 0.52136 0.27562 0.0
C492 C 0.17427 0.54403 0.25916 0.0
C493 C 0.11017 0.56794 0.28964 0.0
C494 C 0.11434 0.61165 0.19037 0.0
C495 C 1.06365 0.45841 0.24552 0.0
H496 H 0.85184 0.77762 0.12736 0.0
H497 H 0.91905 0.71186 0.17449 0.0
H498 H 0.92056 0.80065 0.15578 0.0
H499 H 0.78047 0.56603 0.13481 0.0
H500 H 0.20842 0.63341 0.30053 0.0
H501 H 1.01931 0.49449 0.27706 0.0
H502 H 0.19959 0.53293 0.24785 0.0
H503 H 0.08508 0.57655 0.30148 0.0
Tb504 Tb 0.20845 0.69579 0.5088 0.0
C505 C 0.14812 0.41325 0.49622 0.0
N506 N 0.16435 0.44979 0.47997 0.0
C507 C 0.19294 0.37338 0.46501 0.0
C508 C 0.15104 0.35362 0.49738 0.0
C509 C 0.18971 0.43247 0.4647 0.0
C510 C 0.17201 0.33291 0.48128 0.0
C511 C 0.12556 0.40756 0.53004 0.0
C512 C 0.13528 0.43964 0.51216 0.0
C513 C 0.12348 0.34564 0.53114 0.0
C514 C 0.136 0.31854 0.51478 0.0
Tb515 Tb 0.14905 0.54082 0.47973 0.0
N516 N 0.13999 0.5005 0.51047 0.0
C517 C 0.1223 0.44051 0.54638 0.0
C518 C 0.14249 0.53473 0.52655 0.0
C519 C 0.13273 0.50521 0.54468 0.0
H520 H 0.20704 0.46378 0.45214 0.0
H521 H 0.13461 0.53262 0.5574 0.0
H522 H 0.11809 0.62021 0.54913 0.0
H523 H 0.25825 0.92579 0.47359 0.0
H524 H 0.15444 0.58546 0.52537 0.0
H525 H 0.11553 0.41803 0.56042 0.0
H526 H 0.27477 0.82902 0.47957 0.0
H527 H 0.21179 0.35924 0.45274 0.0
H528 H 0.11508 0.31978 0.54469 0.0
H529 H 0.13662 0.27196 0.51593 0.0
H530 H 1.04371 0.63615 0.57086 0.0
H531 H 0.1747 0.28728 0.48151 0.0
H532 H 0.17986 0.94341 0.49328 0.0
N533 N 0.13365 0.6995 0.53024 0.0
C534 C 0.1249 0.75361 0.52786 0.0
C535 C 1.06548 0.66903 0.5587 0.0
C536 C 0.08345 0.76528 0.54041 0.0
C537 C 0.10743 0.65971 0.54615 0.0
C538 C 1.05277 0.72151 0.5557 0.0
N539 N 0.2029 0.79006 0.5021 0.0
C540 C 0.23936 0.83546 0.48818 0.0
C541 C 0.15008 0.85487 0.51043 0.0
C542 C 0.159 0.79895 0.51317 0.0
C543 C 0.1858 0.9002 0.49588 0.0
C544 C 0.23055 0.8905 0.48476 0.0
H545 H 1.02043 0.72874 0.56553 0.0
H546 H 1.04176 0.82944 0.54683 0.0
H547 H 0.09931 0.90725 0.52047 0.0
O548 O 0.27855 0.79054 0.52092 0.0
O549 O 0.16863 0.70223 0.47925 0.0
O550 O 0.09448 0.59256 0.47319 0.0
O551 O 0.25779 0.69967 0.5348 0.0
O552 O 0.2774 0.7243 0.48351 0.0
O553 O 0.2318 0.62915 0.46467 0.0
O554 O 1.07609 0.45767 0.46454 0.0
O555 O 0.254 0.56883 0.4876 0.0
O556 O 0.27091 0.63874 0.51299 0.0
O557 O 0.15864 0.53949 0.45005 0.0
O558 O 1.05336 0.52733 0.49511 0.0
O559 O 0.09134 0.62773 0.51086 0.0
C560 C 0.11686 0.65521 0.46942 0.0
C561 C 0.2905 0.79488 0.55597 0.0
C562 C 0.3395 0.88342 0.58149 0.0
C563 C 0.28587 0.84153 0.59334 0.0
C564 C 0.24308 0.75391 0.56963 0.0
C565 C 0.23908 0.77753 0.5876 0.0
C566 C 0.34126 0.86013 0.5624 0.0
C567 C 0.27612 0.69319 0.46734 0.0
C568 C 0.28946 0.76493 0.53626 0.0
C569 C 1.0741 0.82043 0.53748 0.0
C570 C 0.10683 0.86472 0.52246 0.0
C571 C 0.28965 0.59965 0.50295 0.0
C572 C 1.05435 0.49407 0.43469 0.0
C573 C 0.94212 0.45023 0.42176 0.0
C574 C 0.96645 0.49831 0.40724 0.0
C575 C 0.07866 0.5427 0.4201 0.0
C576 C 0.98576 0.44972 0.43572 0.0
C577 C 1.03468 0.54506 0.4066 0.0
C578 C 1.03936 0.56741 0.50599 0.0
C579 C 0.10022 0.48685 0.44812 0.0
H580 H 0.28262 0.85683 0.60777 0.0
H581 H 0.21005 0.70196 0.56684 0.0
H582 H 0.20073 0.74472 0.59753 0.0
H583 H 0.38234 0.89129 0.55298 0.0
H584 H 0.93363 0.49729 0.39593 0.0
H585 H 0.13163 0.57806 0.41888 0.0
H586 H 0.96658 0.41066 0.4465 0.0
H587 H 1.05389 0.58174 0.39522 0.0
Tb588 Tb 0.57355 0.19277 0.67305 0.0
C589 C 0.79588 0.1323 0.67334 0.0
N590 N 0.78527 0.15117 0.65595 0.0
C591 C 0.8951 0.17518 0.64596 0.0
C592 C 0.85552 0.13139 0.67758 0.0
C593 C 0.83538 0.17618 0.6426 0.0
C594 C 0.90426 0.15064 0.66335 0.0
C595 C 0.76136 0.10748 0.70625 0.0
C596 C 0.74905 0.11967 0.68726 0.0
C597 C 0.81848 0.10202 0.71043 0.0
C598 C 0.8655 0.11372 0.69605 0.0
Tb599 Tb 0.6794 0.13325 0.64999 0.0
N600 N 0.69554 0.12714 0.68258 0.0
C601 C 0.71823 0.10529 0.72062 0.0
C602 C 0.65797 0.13195 0.69692 0.0
C603 C 0.66764 0.11977 0.71601 0.0
H604 H 0.82843 0.19484 0.62907 0.0
H605 H 0.63717 0.12297 0.72728 0.0
H606 H 0.54308 0.12537 0.71744 0.0
H607 H 0.40862 0.2324 0.62545 0.0
H608 H 0.62257 0.14788 0.69392 0.0
H609 H 0.72609 0.09666 0.73541 0.0
H610 H 0.51853 0.25545 0.63823 0.0
H611 H 0.93368 0.19275 0.63511 0.0
H612 H 0.82818 0.09167 0.72487 0.0
H613 H 0.91066 0.11193 0.69956 0.0
H614 H 0.44405 0.05627 0.73715 0.0
H615 H 0.94971 0.14848 0.6659 0.0
H616 H 0.30465 0.14582 0.64023 0.0
N617 N 0.48708 0.12219 0.69266 0.0
C618 C 0.42495 0.10452 0.68558 0.0
C619 C 0.43798 0.0687 0.72261 0.0
C620 C 0.36694 0.06526 0.69658 0.0
C621 C 0.49414 0.10739 0.71129 0.0
C622 C 0.37409 1.04657 0.71512 0.0
N623 N 0.47671 0.17935 0.65954 0.0
C624 C 0.47337 0.21688 0.64474 0.0
C625 C 0.35609 0.11924 0.66157 0.0
C626 C 0.41965 0.13224 0.66824 0.0
C627 C 0.35254 0.15461 0.64574 0.0
C628 C 0.41133 0.20433 0.63751 0.0
H629 H 0.33066 1.01695 0.724 0.0
H630 H 0.25923 1.02063 0.69771 0.0
H631 H 0.24919 0.06512 0.66682 0.0
O632 O 0.55217 0.2712 0.67781 0.0
O633 O 0.52949 0.13939 0.64436 0.0
O634 O 0.5785 0.07444 0.63997 0.0
O635 O 0.58656 0.23679 0.70103 0.0
O636 O 0.62397 0.26101 0.64869 0.0
O637 O 0.66722 0.2063 0.63101 0.0
O638 O 0.70526 0.06364 0.63957 0.0
O639 O 0.75184 0.23922 0.65651 0.0
O640 O 0.69219 0.25777 0.67974 0.0
O641 O 0.7029 0.13686 0.62082 0.0
O642 O 0.5913 1.03739 0.66328 0.0
O643 O 0.52747 0.07638 0.6783 0.0
C644 C 0.5322 0.08923 0.63548 0.0
C645 C 0.51062 0.28098 0.70881 0.0
C646 C 0.47179 0.32626 0.73589 0.0
C647 C 0.40589 0.28538 0.72942 0.0
C648 C 0.44408 0.24879 0.70234 0.0
C649 C 0.39254 0.24849 0.71276 0.0
C650 C 0.52478 0.32174 0.72584 0.0
C651 C 0.6496 0.25324 0.63262 0.0
C652 C 0.56308 0.27623 0.69619 0.0
C653 C 0.30384 1.04964 0.68933 0.0
C654 C 0.29827 0.07563 0.67177 0.0
C655 C 0.75274 0.27611 0.67104 0.0
C656 C 0.6672 1.03088 0.6078 0.0
C657 C 0.60057 0.91311 0.60032 0.0
C658 C 0.6036 0.92917 0.58077 0.0
C659 C 0.67065 1.04653 0.58828 0.0
C660 C 0.6285 0.96472 0.61369 0.0
C661 C 0.63737 0.9958 0.57487 0.0
C662 C 0.5359 1.02377 0.67356 0.0
C663 C 0.70688 0.08265 0.62189 0.0
H664 H 0.3638 0.28345 0.737 0.0
H665 H 0.43126 0.22515 0.6887 0.0
H666 H 0.34156 0.22075 0.70753 0.0
H667 H 0.57602 0.35112 0.73071 0.0
H668 H 0.58265 0.89051 0.57001 0.0
H669 H 0.69968 0.09765 0.58341 0.0
H670 H 0.62231 0.95297 0.6288 0.0
H671 H 0.64032 1.00793 0.5598 0.0
Tb672 Tb 0.42583 0.52961 0.84186 0.0
C673 C 0.71789 0.7398 0.83872 0.0
N674 N 0.68695 0.729 0.82158 0.0
C675 C 0.77463 0.83488 0.81033 0.0
C676 C 0.78021 0.79723 0.84217 0.0
C677 C 0.7126 0.77738 0.80774 0.0
C678 C 0.80937 0.84423 0.82749 0.0
C679 C 0.70927 0.7103 0.87212 0.0
C680 C 0.68278 0.69725 0.85338 0.0
C681 C 0.77389 0.76398 0.87541 0.0
C682 C 0.80931 0.80764 0.86042 0.0
Tb683 Tb 0.58977 0.62958 0.81762 0.0
N684 N 0.61927 0.64836 0.84966 0.0
C685 C 0.66837 0.67193 0.88715 0.0
C686 C 0.57745 0.61631 0.86462 0.0
C687 C 0.60155 0.62599 0.88343 0.0
H688 H 0.6857 0.77172 0.79456 0.0
H689 H 0.56832 0.59924 0.89515 0.0
H690 H 0.459 0.51543 0.88767 0.0
H691 H 0.23917 0.34246 0.79466 0.0
H692 H 0.52515 0.58476 0.86228 0.0
H693 H 0.68657 0.68033 0.90176 0.0
H694 H 0.30939 0.45676 0.80693 0.0
H695 H 0.79532 0.87214 0.79913 0.0
H696 H 0.79536 0.77421 0.88965 0.0
H697 H 0.85761 0.85088 0.86331 0.0
H698 H 0.42978 0.42443 0.91079 0.0
H699 H 0.85698 0.88922 0.82957 0.0
H700 H 0.23381 0.24678 0.81204 0.0
N701 N 0.41527 0.45077 0.86381 0.0
C702 C 0.3765 0.38628 0.85801 0.0
C703 C 0.41563 0.41309 0.89592 0.0
C704 C 0.36093 0.33286 0.87068 0.0
C705 C 0.43281 0.46462 0.8827 0.0
C706 C 0.38121 0.34699 0.88978 0.0
N707 N 0.35037 0.42653 0.82986 0.0
C708 C 0.30883 0.41535 0.81444 0.0
C709 C 0.30304 0.30781 0.83412 0.0
C710 C 0.34612 0.37404 0.84005 0.0
C711 C 0.2666 0.29687 0.81717 0.0
C712 C 0.26882 0.35081 0.80745 0.0
H713 H 0.36873 0.3072 0.90003 0.0
H714 H 0.30895 0.22577 0.87388 0.0
H715 H 0.2609 0.20345 0.84159 0.0
O716 O 0.32367 0.50225 0.84512 0.0
O717 O 0.43573 0.4956 0.81194 0.0
O718 O 0.54569 0.52625 0.80977 0.0
O719 O 0.39064 0.5506 0.86803 0.0
O720 O 0.40387 0.57456 0.81674 0.0
O721 O 0.5051 0.63051 0.80081 0.0
O722 O 0.67388 0.63995 0.80242 0.0
O723 O 0.56606 0.70775 0.82739 0.0
O724 O 0.47809 0.64732 0.84813 0.0
O725 O 0.59704 0.65365 0.7886 0.0
O726 O 0.59503 0.53932 0.83103 0.0
O727 O 0.49771 0.48487 0.8489 0.0
C728 C 0.48476 0.48885 0.80402 0.0
C729 C 0.27487 0.46878 0.87657 0.0
C730 C 0.19403 0.43257 0.90417 0.0
C731 C 0.17748 0.3665 0.90011 0.0
C732 C 0.24767 0.401 0.87213 0.0
C733 C 0.20258 0.35099 0.8841 0.0
C734 C 0.24617 0.48472 0.89275 0.0
C735 C 0.43946 0.60948 0.80185 0.0
C736 C 0.32767 0.51972 0.86297 0.0
C737 C 0.32129 0.26715 0.86433 0.0
C738 C 0.29351 0.25456 0.84597 0.0
C739 C 0.52532 0.70788 0.84079 0.0
C740 C 0.63933 0.59617 0.77088 0.0
C741 C 0.67783 0.52757 0.75499 0.0
C742 C 0.62992 0.51188 0.74058 0.0
C743 C 0.59095 0.57983 0.75636 0.0
C744 C 0.68152 0.56854 0.77024 0.0
C745 C 0.5861 0.53753 0.74141 0.0
C746 C 0.55618 0.48873 0.84312 0.0
C747 C 0.6479 0.64408 0.78612 0.0
H748 H 0.14256 0.32566 0.90904 0.0
H749 H 0.25974 0.38575 0.85901 0.0
H750 H 0.18537 0.29931 0.8806 0.0
H751 H 0.26235 0.53637 0.89595 0.0
H752 H 0.62855 0.48253 0.72834 0.0
H753 H 0.5575 0.60039 0.75635 0.0
H754 H 0.72088 0.58287 0.78085 0.0
H755 H 0.54953 0.52618 0.73016 0.0
Tb756 Tb 0.93825 0.40157 1.0068 0.0
C757 C 1.02053 0.6915 1.00415 0.0
N758 N 0.99845 0.66198 0.98696 0.0
C759 C 0.98274 0.75311 0.97676 0.0
C760 C 1.02775 0.75472 1.0081 0.0
C761 C 0.97619 0.69022 0.97362 0.0
C762 C 1.01029 0.78633 0.9939 0.0
C763 C 1.04143 0.67899 0.03734 0.0
C764 C 1.02718 0.65413 1.01846 0.0
C765 C 1.0546 0.74422 0.04108 0.0
C766 C 1.04773 0.78213 0.02644 0.0
Tb767 Tb 1.00125 0.56508 0.98193 0.0
N768 N 1.01089 0.59037 1.01429 0.0
C769 C 1.03758 0.63614 0.05205 0.0
C770 C 1.00064 0.54714 0.02898 0.0
C771 C 1.01524 0.56939 0.0479 0.0
H772 H 0.95398 0.66492 0.96038 0.0
H773 H 1.00815 0.53473 0.05933 0.0
H774 H 1.01142 0.43171 0.05034 0.0
H775 H 0.88943 0.2016 0.95707 0.0
H776 H 0.98023 0.49521 0.02642 0.0
H777 H 1.04782 0.65305 0.06675 0.0
H778 H 0.86466 0.28257 0.97278 0.0
H779 H 0.9663 0.77578 0.96598 0.0
H780 H 1.06655 0.76444 0.05543 0.0
H781 H 1.0544 0.83096 0.02971 0.0
H782 H 0.08374 0.3984 0.06792 0.0
H783 H 1.01476 0.83474 0.99638 0.0
H784 H 0.98391 0.18762 0.96829 0.0
N785 N 1.012 0.38295 0.02447 0.0
C786 C 1.02996 0.34075 1.016 0.0
C787 C 1.06968 0.38263 0.05326 0.0
C788 C 1.07303 0.3224 0.02542 0.0
C789 C 1.0286 0.40129 0.04326 0.0
C790 C 0.09357 0.34469 0.04413 0.0
N791 N 0.94801 0.31826 0.99193 0.0
C792 C 0.90668 0.2777 0.97772 0.0
C793 C 1.01241 0.26132 0.99071 0.0
C794 C 0.99843 0.309 0.99895 0.0
C795 C 0.97427 0.22432 0.97505 0.0
C796 C 0.92044 0.23162 0.96878 0.0
H797 H 0.12567 0.33068 0.05193 0.0
H798 H 0.12373 0.26434 0.02338 0.0
H799 H 1.07257 0.21275 0.99283 0.0
O800 O 0.86012 0.30364 1.01253 0.0
O801 O 0.98535 0.40774 0.97767 0.0
O802 O 1.05895 0.51864 0.97335 0.0
O803 O 0.89793 0.3726 0.03532 0.0
O804 O 0.86707 0.38569 0.98309 0.0
O805 O 0.92491 0.47915 0.96415 0.0
O806 O 1.07648 0.64946 0.9676 0.0
O807 O 0.89887 0.54196 0.99119 0.0
O808 O 0.87242 0.45501 1.0124 0.0
O809 O 0.98542 0.57957 0.95324 0.0
O810 O 0.09644 0.57227 0.99544 0.0
O811 O 1.05571 0.47277 1.01212 0.0
C812 C 1.0385 0.45681 0.96902 0.0
C813 C 0.85454 0.25352 0.04342 0.0
C814 C 0.80883 0.16787 0.0701 0.0
C815 C 0.84811 0.14157 0.06286 0.0
C816 C 0.88767 0.22019 0.03666 0.0
C817 C 0.88623 0.16692 0.04642 0.0
C818 C 0.81382 0.22615 0.06044 0.0
C819 C 0.87569 0.41669 0.96648 0.0
C820 C 0.85763 0.31023 0.03093 0.0
C821 C 0.09028 0.27846 1.0165 0.0
C822 C 1.06075 0.24869 0.99908 0.0
C823 C 0.85847 0.50187 1.00468 0.0
C824 C 0.08561 0.61673 0.93599 0.0
C825 C 0.19278 0.64819 0.92105 0.0
C826 C 0.16143 0.59624 0.90788 0.0
C827 C 1.05435 0.56432 0.92268 0.0
C828 C 0.15497 0.65802 0.93508 0.0
C829 C 0.09222 0.554 0.90883 0.0
C830 C 0.10912 0.53224 1.00679 0.0
C831 C 1.04686 0.62739 0.95112 0.0
H832 H 0.84887 0.09989 0.06984 0.0
H833 H 0.91332 0.23342 0.02327 0.0
H834 H 0.91384 0.14375 0.04085 0.0
H835 H 0.78496 0.24841 0.06563 0.0
H836 H 0.19007 0.58943 0.89669 0.0
H837 H 1.00075 0.53131 0.92294 0.0
H838 H 0.17975 0.69927 0.945 0.0
H839 H 1.06771 0.51367 0.89867 0.0
Tb840 Tb 0.59005 0.92406 0.17635 0.0
C841 C 0.36921 0.98747 0.16479 0.0
N842 N 0.38942 0.97226 0.14835 0.0
C843 C 0.28395 0.9445 0.13368 0.0
C844 C 0.3064 0.98447 0.1662 0.0
C845 C 0.34659 0.94795 0.13309 0.0
C846 C 0.26427 0.96416 0.15019 0.0
C847 C 0.38674 1.0083 0.19868 0.0
C848 C 0.4087 0.99902 0.18068 0.0
C849 C 0.3267 1.0105 0.20001 0.0
C850 C 0.28646 0.9985 0.18376 0.0
Tb851 Tb 0.49485 0.9847 0.14787 0.0
N852 N 0.46467 0.99337 0.17881 0.0
C853 C 0.42353 1.0109 0.21491 0.0
C854 C 0.49661 0.98972 0.19484 0.0
C855 C 0.47772 0.99979 0.21302 0.0
H856 H 0.36072 0.93144 0.12037 0.0
H857 H 0.50377 0.99735 0.22566 0.0
H858 H 0.60327 0.99722 0.219 0.0
H859 H 0.7648 0.86669 0.14023 0.0
H860 H 0.53461 0.9762 0.19372 0.0
H861 H 0.40827 1.01756 0.22902 0.0
H862 H 0.65321 0.85061 0.1476 0.0
H863 H 0.25074 0.92628 0.12145 0.0
H864 H 0.30947 1.01837 0.21366 0.0
H865 H 0.23891 0.99751 0.1851 0.0
H866 H 0.69388 0.06693 0.24137 0.0
H867 H 0.21552 0.96094 0.15069 0.0
H868 H 0.86395 0.95023 0.15795 0.0
N869 N 0.66836 0.99307 0.19809 0.0
C870 C 0.73171 1.00466 0.19448 0.0
C871 C 0.70536 1.05073 0.22809 0.0
C872 C 0.78525 1.04479 0.20686 0.0
C873 C 0.65399 1.01133 0.21534 0.0
C874 C 0.77147 0.06885 0.22363 0.0
N875 N 0.68827 0.92643 0.16899 0.0
C876 C 0.6957 0.88785 0.1554 0.0
C877 C 0.80688 0.98136 0.17563 0.0
C878 C 0.74217 0.97179 0.17923 0.0
C879 C 0.81501 0.94413 0.16115 0.0
C880 C 0.75912 0.89671 0.15116 0.0
H881 H 0.81118 0.09942 0.23355 0.0
H882 H 0.89205 0.08888 0.2118 0.0
H883 H 0.91116 1.03431 0.18429 0.0
O884 O 0.61974 0.85938 0.1906 0.0
O885 O 0.63573 0.96399 0.14687 0.0
O886 O 0.60058 1.03962 0.14183 0.0
O887 O 0.53351 0.86479 0.19953 0.0
O888 O 0.55372 0.85838 0.15047 0.0
O889 O 0.49923 0.90166 0.13236 0.0
O890 O 0.48216 0.05642 0.1325 0.0
O891 O 0.41766 0.88036 0.15514 0.0
O892 O 0.47085 0.86138 0.18026 0.0
O893 O 0.48592 0.97544 0.11813 0.0
O894 O 0.57905 0.0801 0.16266 0.0
O895 O 0.63769 1.0408 0.18044 0.0
C896 C 0.64048 1.01679 0.1375 0.0
C897 C 0.58813 0.83631 0.22479 0.0
C898 C 0.62177 0.78988 0.25308 0.0
C899 C 0.59646 0.82164 0.26497 0.0
C900 C 0.56475 0.8661 0.23799 0.0
C901 C 0.56937 0.85929 0.25759 0.0
C902 C 0.61689 0.79749 0.23257 0.0
C903 C 0.52195 0.85892 0.13454 0.0
C904 C 0.57302 0.84025 0.20354 0.0
C905 C 0.85018 0.05705 0.20265 0.0
C906 C 0.86104 1.02582 0.18701 0.0
C907 C 0.41299 0.84361 0.17025 0.0
C908 C 0.54439 0.07994 0.10348 0.0
C909 C 0.61564 0.19349 0.09285 0.0
C910 C 0.63445 0.17079 0.07673 0.0
C911 C 0.56368 0.05695 0.08736 0.0
C912 C 0.57488 0.14823 0.10681 0.0
C913 C 0.60993 0.10245 0.07432 0.0
C914 C 0.63119 0.0936 0.17454 0.0
C915 C 0.49021 1.03348 0.11621 0.0
H916 H 0.59536 0.81611 0.28036 0.0
H917 H 0.54024 0.89348 0.23326 0.0
H918 H 0.54991 0.88223 0.26727 0.0
H919 H 0.63462 0.77353 0.22273 0.0
H920 H 0.66411 0.20515 0.06553 0.0
H921 H 0.54196 1.00409 0.0846 0.0
H922 H 0.55992 0.16671 0.11905 0.0
H923 H 0.6238 0.08456 0.06178 0.0
Tb924 Tb 0.72259 0.55918 0.34128 0.0
C925 C 0.44553 0.33407 0.33285 0.0
N926 N 0.4823 0.35 0.31661 0.0
C927 C 0.40696 0.24238 0.30351 0.0
C928 C 0.38678 0.27196 0.33493 0.0
C929 C 0.46553 0.30409 0.30228 0.0
C930 C 0.36648 0.22698 0.31969 0.0
C931 C 0.43777 0.36029 0.36584 0.0
C932 C 0.47008 0.37838 0.3479 0.0
C933 C 0.3771 0.30018 0.36775 0.0
C934 C 0.35143 0.25619 0.35227 0.0
Tb935 Tb 0.56315 0.45933 0.314 0.0
N936 N 0.5296 0.43544 0.34552 0.0
C937 C 0.46945 0.40111 0.38154 0.0
C938 C 0.56402 0.46988 0.36127 0.0
C939 C 0.53393 0.45485 0.37938 0.0
H940 H 0.49655 0.31516 0.28971 0.0
H941 H 0.56095 0.48333 0.39179 0.0
H942 H 0.66987 0.56587 0.38617 0.0
H943 H 0.915 0.74835 0.29631 0.0
H944 H 0.61566 0.50557 0.36021 0.0
H945 H 0.44667 0.38895 0.3956 0.0
H946 H 0.8334 0.63298 0.30546 0.0
H947 H 0.39288 0.20693 0.29192 0.0
H948 H 0.35111 0.28606 0.38135 0.0
H949 H 0.30575 0.20903 0.3541 0.0
H950 H 0.68944 0.65409 0.40922 0.0
H951 H 0.32059 0.17971 0.32044 0.0
H952 H 0.93172 0.84211 0.31693 0.0
N953 N 0.73074 0.63317 0.36435 0.0
C954 C 0.7758 0.69787 0.35989 0.0
C955 C 0.71328 0.66704 0.39533 0.0
C956 C 0.7893 0.7496 0.37294 0.0
C957 C 0.70127 0.61714 0.38208 0.0
C958 C 0.75682 0.73353 0.39067 0.0
N959 N 0.80163 0.66145 0.33068 0.0
C960 C 0.83974 0.6735 0.31453 0.0
C961 C 0.85827 0.7789 0.33789 0.0
C962 C 0.81073 0.71243 0.34248 0.0
C963 C 0.89499 0.79167 0.32093 0.0
C964 C 0.88596 0.73879 0.30928 0.0
H965 H 0.76618 0.77203 0.40104 0.0
H966 H 0.84807 0.85535 0.37831 0.0
H967 H 0.90661 0.88151 0.34745 0.0
O968 O 0.82243 0.57795 0.34382 0.0
O969 O 0.70688 0.61911 0.31772 0.0
O970 O 0.63008 0.54407 0.29675 0.0
O971 O 0.76127 0.54997 0.36861 0.0
O972 O 0.74638 0.52044 0.31489 0.0
O973 O 0.64812 0.46343 0.29722 0.0
O974 O 0.47082 0.44953 0.3053 0.0
O975 O 0.59328 0.38439 0.3226 0.0
O976 O 0.66638 0.44098 0.34728 0.0
O977 O 0.53154 0.43108 0.28573 0.0
O978 O 0.5593 0.55119 0.32617 0.0
O979 O 0.65157 0.60446 0.34616 0.0
C980 C 0.6734 0.60512 0.30121 0.0
C981 C 0.88284 0.62564 0.37347 0.0
C982 C 0.96811 0.66967 0.40043 0.0
C983 C 0.99903 0.73135 0.39081 0.0
C984 C 0.92225 0.68697 0.3642 0.0
C985 C 0.97722 0.73936 0.37297 0.0
C986 C 0.90735 0.61667 0.39182 0.0
C987 C 0.71382 0.48801 0.29924 0.0
C988 C 0.82219 0.57156 0.3624 0.0
C989 C 0.83627 0.81553 0.36823 0.0
C990 C 0.86997 0.83029 0.3507 0.0
C991 C 0.62638 0.38195 0.33788 0.0
C992 C 0.46925 0.47629 0.27255 0.0
C993 C 0.43282 0.5552 0.26345 0.0
C994 C 0.43041 0.53632 0.24419 0.0
C995 C 0.466 0.45729 0.25337 0.0
C996 C 0.45737 0.52841 0.27724 0.0
C997 C 0.44836 0.4886 0.23918 0.0
C998 C 0.5959 0.6015 0.33844 0.0
C999 C 0.47894 0.43744 0.28763 0.0
H1000 H 1.04213 0.77422 0.39688 0.0
H1001 H 0.91207 0.69485 0.34971 0.0
H1002 H 1.00455 0.7866 0.36556 0.0
H1003 H 0.88096 0.56867 0.39884 0.0
H1004 H 0.41003 0.5543 0.23316 0.0
H1005 H 0.47572 0.4174 0.24943 0.0
H1006 H 0.46034 0.54325 0.29204 0.0
H1007 H 0.4451 0.47329 0.22442 0.0
C1008 C 0.14994 0.69215 0.2469 0.0
C1009 C 0.07888 0.65892 0.24607 0.0
C1010 C 0.1869 0.72909 0.26315 0.0
C1011 C 0.15472 0.73366 0.27977 0.0
H1012 H 0.17755 0.68969 0.23475 0.0
H1013 H 0.2411 0.75501 0.26255 0.0
S1014 S 0.96918 0.64774 0.28633 0.0
N1015 N 0.97829 0.62932 0.26413 0.0
N1016 N 1.04571 0.6951 0.29473 0.0
C1017 C 0.08332 0.69837 0.27934 0.0
C1018 C 1.04609 0.66218 0.26261 0.0
C1019 C 0.52358 0.16207 0.42924 0.0
C1020 C 0.48205 0.13178 0.44524 0.0
C1021 C 0.52381 0.12401 0.41325 0.0
C1022 C 0.48118 0.05385 0.41207 0.0
H1023 H 0.55507 0.21572 0.42884 0.0
H1024 H 0.55767 0.15008 0.40155 0.0
S1025 S 0.36956 0.94854 0.4508 0.0
N1026 N 0.40249 1.02497 0.4594 0.0
N1027 N 0.40098 0.95591 0.42918 0.0
C1028 C 0.44083 1.02299 0.42805 0.0
C1029 C 0.44186 0.0611 0.44455 0.0
C1030 C 0.4006 0.48166 0.59674 0.0
C1031 C 0.40413 0.45245 0.61416 0.0
C1032 C 0.43511 0.47943 0.58006 0.0
C1033 C 0.47406 0.44691 0.57966 0.0
H1034 H 0.37001 0.50541 0.59584 0.0
H1035 H 0.43124 0.50363 0.56723 0.0
S1036 S 0.50986 0.37281 0.62201 0.0
N1037 N 0.45715 0.3963 0.63017 0.0
N1038 N 0.51953 0.39163 0.59903 0.0
C1039 C 0.47917 0.41892 0.59701 0.0
C1040 C 0.44502 0.42181 0.61406 0.0
C1041 C 1.0098 0.44797 0.74802 0.0
C1042 C 1.07677 0.46081 0.7457 0.0
C1043 C 0.9679 0.4092 0.76325 0.0
C1044 C 0.98995 0.38043 0.77729 0.0
H1045 H 0.98845 0.46716 0.73762 0.0
H1046 H 0.91636 0.39874 0.76341 0.0
S1047 S 0.16142 0.40099 0.77917 0.0
N1048 N 0.16367 0.44392 0.75995 0.0
N1049 N 0.08497 0.36938 0.78804 0.0
C1050 C 1.05715 0.39372 0.77544 0.0
C1051 C 0.10021 0.4339 0.75991 0.0
C1052 C 0.64476 0.98479 0.90869 0.0
C1053 C 0.67432 0.05505 0.91042 0.0
C1054 C 0.63706 0.94257 0.92463 0.0
C1055 C 0.65807 0.96823 0.94326 0.0
H1056 H 0.62983 0.96212 0.89475 0.0
H1057 H 0.61787 0.88992 0.92211 0.0
S1058 S 0.73713 0.14788 0.9559 0.0
N1059 N 0.72416 0.14712 0.93263 0.0
N1060 N 0.70815 0.06937 0.96224 0.0
C1061 C 0.68562 1.03812 0.94517 0.0
C1062 C 0.69427 0.08085 0.92897 0.0
C1063 C 0.73117 0.70245 0.11039 0.0
C1064 C 0.76141 0.66132 0.11197 0.0
C1065 C 0.69457 0.7028 0.09399 0.0
C1066 C 0.6846 0.66096 0.07829 0.0
H1067 H 0.73576 0.73522 0.12206 0.0
H1068 H 0.67199 0.73451 0.09394 0.0
S1069 S 0.7524 0.54389 0.07438 0.0
N1070 N 0.77913 0.57887 0.09553 0.0
N1071 N 0.70806 0.5765 0.06552 0.0
C1072 C 0.71355 0.61892 0.07973 0.0
C1073 C 0.75199 0.61958 0.09626 0.0
C1074 C 0.48584 0.98364 0.61541 0.0
C1075 C 0.48246 1.04185 0.62035 0.0
C1076 C 0.4448 0.93748 0.60134 0.0
C1077 C 0.39542 0.9446 0.59135 0.0
H1078 H 0.51939 0.97148 0.62303 0.0
H1079 H 0.44908 0.89317 0.59917 0.0
S1080 S 0.35935 0.08358 0.59882 0.0
N1081 N 0.42308 0.10221 0.61339 0.0
N1082 N 0.34254 1.01312 0.58816 0.0
C1083 C 0.38981 1.00147 0.59616 0.0
C1084 C 0.43359 1.05016 0.61024 0.0
C1085 C 0.51589 0.37534 0.76948 0.0
C1086 C 0.47973 0.37217 0.75279 0.0
C1087 C 0.51465 0.41063 0.78604 0.0
C1088 C 0.47622 0.44365 0.78714 0.0
H1089 H 0.54451 0.34944 0.76991 0.0
H1090 H 0.54432 0.41201 0.79823 0.0
S1091 S 0.3812 0.46052 0.74669 0.0
N1092 N 0.41038 0.4132 0.73803 0.0
N1093 N 0.4067 0.47591 0.76912 0.0
C1094 C 0.44113 0.44211 0.77051 0.0
C1095 C 0.44331 0.40757 0.75349 0.0
C1096 C 0.14709 0.49096 0.9509 0.0
C1097 C 0.07734 0.44625 0.95311 0.0
C1098 C 0.18437 0.48833 0.93501 0.0
C1099 C 0.15365 0.44197 0.9201 0.0
H1100 H 0.17351 0.52867 0.96167 0.0
H1101 H 0.23781 0.52225 0.93457 0.0
S1102 S 0.97087 0.31857 0.91763 0.0
N1103 N 0.9793 0.35624 0.93831 0.0
N1104 N 1.04652 0.35366 0.90813 0.0
C1105 C 0.08328 0.39856 0.92187 0.0
C1106 C 1.04608 0.39998 0.93834 0.0
C1107 C 0.69589 1.02307 0.10507 0.0
C1108 C 0.69021 0.05504 0.12152 0.0
C1109 C 0.73152 0.05968 0.08856 0.0
C1110 C 0.76422 0.13073 0.08739 0.0
H1111 H 0.67039 0.96911 0.10461 0.0
H1112 H 0.73281 1.03142 0.07639 0.0
S1113 S 0.76589 0.23916 0.12669 0.0
N1114 N 0.72085 0.16298 0.13536 0.0
N1115 N 0.78831 0.23044 0.10494 0.0
C1116 C 0.75889 0.16305 0.10378 0.0
C1117 C 0.72218 0.12581 0.12054 0.0
C1118 C 0.68955 0.72173 0.29379 0.0
C1119 C 0.67577 0.65829 0.28746 0.0
C1120 C 0.67714 0.7652 0.28206 0.0
C1121 C 0.64852 0.74779 0.26333 0.0
H1122 H 0.70707 0.73692 0.30829 0.0
H1123 H 0.68846 0.81267 0.28819 0.0
S1124 S 0.61717 0.59314 0.23826 0.0
N1125 N 0.64291 0.58541 0.2597 0.0
N1126 N 0.61691 0.66463 0.2384 0.0
C1127 C 0.63976 0.68662 0.25633 0.0
C1128 C 0.65353 0.64278 0.26816 0.0
C1129 C 0.11192 0.70287 0.43665 0.0
C1130 C 0.07923 0.66797 0.45337 0.0
C1131 C 1.07571 0.70127 0.41989 0.0
C1132 C 1.00416 0.6653 0.41868 0.0
H1133 H 0.16616 0.72899 0.43613 0.0
H1134 H 0.10496 0.72759 0.40747 0.0
S1135 S 0.89396 0.567 0.45891 0.0
N1136 N 0.97035 0.59594 0.46756 0.0
N1137 N 0.90328 0.59566 0.43679 0.0
C1138 C 0.97108 0.63092 0.43547 0.0
C1139 C 1.00809 0.63175 0.45245 0.0
C1140 C 0.59466 0.69732 0.36083 0.0
C1141 C 0.57528 0.65878 0.34354 0.0
C1142 C 0.57811 0.74946 0.36566 0.0
C1143 C 0.54022 0.77061 0.35384 0.0
H1144 H 0.62335 0.68688 0.37118 0.0
H1145 H 0.59618 0.77409 0.37929 0.0
S1146 S 0.48314 0.69602 0.30535 0.0
N1147 N 0.51883 0.6537 0.31361 0.0
N1148 N 0.48916 0.74812 0.3224 0.0
C1149 C 0.52184 0.7339 0.33622 0.0
C1150 C 0.53858 0.68024 0.33129 0.0
C1151 C 0.83613 0.4655 0.51662 0.0
C1152 C 0.81495 0.51422 0.51954 0.0
C1153 C 0.90559 0.48163 0.51239 0.0
C1154 C 0.96198 0.54823 0.51076 0.0
H1155 H 0.79874 0.41344 0.51799 0.0
H1156 H 0.91513 0.44039 0.51062 0.0
S1157 S 0.93604 0.69594 0.51328 0.0
N1158 N 0.86055 0.63376 0.51804 0.0
N1159 N 0.98435 0.66232 0.51014 0.0
C1160 C 0.94055 0.5967 0.51291 0.0
C1161 C 0.87045 0.58045 0.51721 0.0
C1162 C 0.4223 0.92844 0.69096 0.0
C1163 C 0.47807 0.9462 0.67841 0.0
C1164 C 0.36961 0.86028 0.69541 0.0
C1165 C 0.36425 0.79985 0.68764 0.0
H1166 H 0.41885 0.96841 0.69776 0.0
H1167 H 0.33134 0.85537 0.70535 0.0
S1168 S 0.49338 0.81115 0.65292 0.0
N1169 N 0.52052 0.89056 0.65779 0.0
N1170 N 0.42436 0.76741 0.66553 0.0
C1171 C 0.41902 0.81631 0.67472 0.0
C1172 C 0.4737 0.88634 0.67037 0.0
C1173 C 0.60826 0.40583 0.83579 0.0
C1174 C 0.57565 0.43046 0.84853 0.0
C1175 C 0.62284 0.35136 0.84016 0.0
C1176 C 0.6075 0.31525 0.85801 0.0
H1177 H 0.62284 0.42881 0.82183 0.0
H1178 H 0.64628 0.33719 0.82909 0.0
S1179 S 0.53641 0.36596 0.89871 0.0
N1180 N 0.53913 0.41632 0.88144 0.0
N1181 N 0.56411 0.31854 0.88934 0.0
C1182 C 0.57794 0.34168 0.8711 0.0
C1183 C 0.56309 0.39672 0.8666 0.0
C1184 C 0.20674 0.52066 0.02597 0.0
C1185 C 0.1871 0.55301 1.01185 0.0
C1186 C 0.27589 0.53816 0.03053 0.0
C1187 C 0.33513 0.59002 0.02141 0.0
H1188 H 0.16774 0.4808 0.03402 0.0
H1189 H 0.28261 0.50931 0.04168 0.0
S1190 S 0.31838 0.69278 0.98248 0.0
N1191 N 0.23936 0.64227 0.98838 0.0
N1192 N 0.36443 0.67313 0.99644 0.0
C1193 C 0.31674 0.62276 1.00701 0.0
C1194 C 0.24578 0.60523 1.00249 0.0
C1195 C 0.80038 0.25675 0.19514 0.0
C1196 C 0.80333 0.31728 0.18821 0.0
C1197 C 0.74725 0.18858 0.19092 0.0
C1198 C 0.68877 0.17105 0.17947 0.0
H1199 H 0.8411 0.26164 0.20411 0.0
H1200 H 0.75296 0.1484 0.19682 0.0
S1201 S 0.66647 0.30632 0.15638 0.0
N1202 N 0.73791 0.34993 0.16804 0.0
N1203 N 0.64109 0.22686 0.16077 0.0
C1204 C 0.69066 0.23099 0.17232 0.0
C1205 C 0.74568 0.30097 0.17641 0.0
C1206 C 0.38414 0.59664 0.52679 0.0
C1207 C 0.35115 0.58561 0.50854 0.0
C1208 C 0.43738 0.58038 0.53125 0.0
C1209 C 0.46341 0.5502 0.51818 0.0
H1210 H 0.36839 0.61791 0.53807 0.0
H1211 H 0.45827 0.59161 0.54552 0.0
S1212 S 0.40675 0.52173 0.4672 0.0
N1213 N 0.35815 0.54807 0.47667 0.0
N1214 N 0.45476 0.52083 0.48473 0.0
C1215 C 0.43289 0.54187 0.49975 0.0
C1216 C 0.37888 0.55824 0.49517 0.0
C1217 C 0.8884 0.34249 0.66962 0.0
C1218 C 0.82741 0.33723 0.67722 0.0
C1219 C 0.95683 0.39536 0.67395 0.0
C1220 C 0.97432 0.45145 0.68621 0.0
H1221 H 0.88376 0.30404 0.65991 0.0
H1222 H 0.99722 0.39184 0.66727 0.0
S1223 S 0.83783 0.46828 0.71072 0.0
N1224 N 0.79424 0.39852 0.69856 0.0
N1225 N 0.91776 0.49502 0.70608 0.0
C1226 C 0.9139 0.44745 0.69396 0.0
C1227 C 0.84363 0.39259 0.68974 0.0
C1228 C 0.61599 0.90998 0.848 0.0
C1229 C 0.57131 0.92825 0.85711 0.0
C1230 C 0.60053 0.84193 0.84324 0.0
C1231 C 0.53861 0.78195 0.84744 0.0
H1232 H 0.66555 0.94934 0.84471 0.0
H1233 H 0.63958 0.83658 0.83617 0.0
S1234 S 0.40034 0.79416 0.87212 0.0
N1235 N 0.4588 0.87338 0.87045 0.0
N1236 N 0.43157 0.75009 0.86236 0.0
C1237 C 0.49335 0.79866 0.85703 0.0
C1238 C 0.50891 0.86876 0.86161 0.0
C1239 C 0.67461 0.48802 1.0146 0.0
C1240 C 0.68648 0.55366 1.01974 0.0
C1241 C 0.72727 0.47049 1.01054 0.0
C1242 C 0.79831 0.51628 1.01151 0.0
H1243 H 0.62303 0.44882 1.01333 0.0
H1244 H 0.71138 0.41985 1.00617 0.0
S1245 S 0.86156 0.69143 0.02795 0.0
N1246 N 0.77972 0.66175 0.0278 0.0
N1247 N 0.87397 0.63066 0.02035 0.0
C1248 C 0.81042 0.58105 1.01731 0.0
C1249 C 0.75711 0.59884 0.02135 0.0
C1250 C 0.31642 0.74794 0.19362 0.0
C1251 C 0.33785 0.78218 0.17559 0.0
C1252 C 0.24777 0.69435 0.19793 0.0
C1253 C 0.1913 0.66949 0.18495 0.0
H1254 H 0.3534 0.76335 0.20486 0.0
H1255 H 0.23908 0.67224 0.21202 0.0
S1256 S 0.21772 0.73096 0.13441 0.0
N1257 N 0.29235 0.77813 0.14393 0.0
N1258 N 0.16985 0.68168 0.15171 0.0
C1259 C 0.21283 0.70174 0.16671 0.0
C1260 C 0.2826 0.7558 0.16227 0.0
C1261 C 0.55647 0.24727 0.33645 0.0
C1262 C 0.61182 0.30701 0.34421 0.0
C1263 C 0.54046 0.17872 0.34077 0.0
C1264 C 0.57833 0.15987 0.35315 0.0
H1265 H 0.52335 0.25297 0.3266 0.0
H1266 H 0.49693 0.13941 0.33397 0.0
S1267 S 0.73036 0.29263 0.37826 0.0
N1268 N 0.70504 0.33758 0.36595 0.0
N1269 N 0.67722 0.21357 0.37346 0.0
C1270 C 0.63434 0.21899 0.36114 0.0
C1271 C 0.65015 0.28945 0.35694 0.0
C1272 C 0.30244 0.71382 0.43105 0.0
C1273 C 0.32232 0.73302 0.45032 0.0
C1274 C 0.34202 0.75087 0.41496 0.0
C1275 C 0.40545 0.80936 0.41682 0.0
H1276 H 0.25447 0.67013 0.42825 0.0
H1277 H 0.32203 0.73333 0.4008 0.0
S1278 S 0.48402 0.88114 0.46395 0.0
N1279 N 0.41199 0.8156 0.46994 0.0
N1280 N 0.48623 0.88271 0.44032 0.0
C1281 C 0.42676 0.82819 0.43604 0.0
C1282 C 0.38562 0.7912 0.45245 0.0
C1283 C 0.63541 0.3091 0.58042 0.0
C1284 C 0.653 0.37747 0.58182 0.0
C1285 C 0.6368 0.27061 0.59641 0.0
C1286 C 0.65464 0.29712 0.61514 0.0
H1287 H 0.61936 0.28418 0.56676 0.0
H1288 H 0.62147 0.21857 0.59413 0.0
S1289 S 0.71111 0.47404 0.62719 0.0
N1290 N 0.69493 0.47023 0.60404 0.0
N1291 N 0.69378 0.39824 0.63366 0.0
C1292 C 0.67358 0.36545 0.61674 0.0
C1293 C 0.67393 0.40516 0.60036 0.0
C1294 C 0.42726 0.63039 0.76563 0.0
C1295 C 0.40138 0.61853 0.78457 0.0
C1296 C 0.38983 0.6321 0.74933 0.0
C1297 C 0.32457 0.62451 0.75077 0.0
H1298 H 0.47648 0.63635 0.76321 0.0
H1299 H 0.41255 0.63934 0.73533 0.0
S1300 S 0.23157 0.59219 0.79667 0.0
N1301 N 0.3036 0.59806 0.8032 0.0
N1302 N 0.23624 0.60416 0.77329 0.0
C1303 C 0.29861 0.614 0.76962 0.0
C1304 C 0.33585 0.61036 0.78614 0.0
C1305 C 0.82025 0.34248 0.9146 0.0
C1306 C 0.75223 0.29163 0.9163 0.0
C1307 C 0.85811 0.38421 0.93032 0.0
C1308 C 0.83181 0.37665 0.94913 0.0
H1309 H 0.84512 0.35011 0.90093 0.0
H1310 H 0.90973 0.42136 0.9278 0.0
S1311 S 0.6558 0.25465 0.96196 0.0
N1312 N 0.65975 0.24097 0.93896 0.0
N1313 N 0.73116 0.31472 0.96798 0.0
C1314 C 0.76387 0.32679 0.95101 0.0
C1315 C 0.72448 0.28603 0.93491 0.0
C1316 C 0.5084 0.82988 0.0982 0.0
C1317 C 0.51716 0.81402 0.11732 0.0
C1318 C 0.5077 0.79158 0.08195 0.0
C1319 C 0.51393 0.73338 0.08357 0.0
H1320 H 0.50353 0.87366 0.09561 0.0
H1321 H 0.50208 0.80799 0.06787 0.0
S1322 S 0.54008 0.66956 0.13005 0.0
N1323 N 0.53402 0.73534 0.13636 0.0
N1324 N 0.53104 0.66387 0.10656 0.0
C1325 C 0.52232 0.71681 0.10262 0.0
C1326 C 0.52438 0.75657 0.11911 0.0
C1327 C 0.73912 0.49133 0.26301 0.0
C1328 C 0.75413 0.48317 0.2822 0.0
C1329 C 0.77851 0.49156 0.24711 0.0
C1330 C 0.83492 0.48189 0.24912 0.0
H1331 H 0.69729 0.49954 0.26021 0.0
H1332 H 0.76455 0.50009 0.23301 0.0
S1333 S 0.8913 0.44974 0.29608 0.0
N1334 N 0.82811 0.46136 0.30194 0.0
N1335 N 0.89827 0.45751 0.27257 0.0
C1336 C 0.84816 0.47039 0.26822 0.0
C1337 C 0.80929 0.47227 0.28447 0.0
C1338 C 0.87989 0.33146 0.41552 0.0
C1339 C 0.87754 0.38941 0.4199 0.0
C1340 C 0.82499 0.26932 0.41869 0.0
C1341 C 0.76421 0.26229 0.42563 0.0
H1342 H 0.92637 0.33423 0.41094 0.0
H1343 H 0.83164 0.22644 0.41643 0.0
S1344 S 0.72999 0.40012 0.43649 0.0
N1345 N 0.8096 0.4379 0.42998 0.0
N1346 N 0.70299 0.31924 0.43492 0.0
C1347 C 0.75968 0.32017 0.42886 0.0
C1348 C 0.81703 0.38429 0.42604 0.0
C1349 C 0.52275 0.78981 0.59759 0.0
C1350 C 0.57744 0.8437 0.60665 0.0
C1351 C 0.50915 0.72423 0.60074 0.0
C1352 C 0.54832 0.71087 0.61356 0.0
H1353 H 0.49301 0.79862 0.58713 0.0
H1354 H 0.47151 0.68453 0.59206 0.0
S1355 S 0.69261 0.83182 0.64221 0.0
N1356 N 0.66944 0.87752 0.62955 0.0
N1357 N 0.63868 0.75401 0.63667 0.0
C1358 C 0.59822 0.76306 0.62415 0.0
C1359 C 0.61439 0.82975 0.62035 0.0
C1360 C 0.74641 0.47491 0.76352 0.0
C1361 C 0.73621 0.51905 0.75197 0.0
C1362 C 0.81107 0.48419 0.76628 0.0
C1363 C 0.8673 0.53934 0.75815 0.0
H1364 H 0.70501 0.43609 0.77147 0.0
H1365 H 0.81741 0.45036 0.77574 0.0
S1366 S 0.86379 0.66763 0.72624 0.0
N1367 N 0.78454 0.61546 0.73114 0.0
N1368 N 0.90651 0.63785 0.73763 0.0
C1369 C 0.85638 0.58182 0.74579 0.0
C1370 C 0.79055 0.57023 0.74234 0.0
C1371 C 0.37606 0.75021 0.93214 0.0
C1372 C 0.38898 0.81395 0.9262 0.0
C1373 C 0.31351 0.69373 0.92876 0.0
C1374 C 0.26306 0.69947 0.91897 0.0
H1375 H 0.41293 0.74454 0.94044 0.0
H1376 H 0.30303 0.64646 0.93497 0.0
S1377 S 0.27144 0.85221 0.89915 0.0
N1378 N 0.34486 0.87768 0.90943 0.0
N1379 N 0.23031 0.77066 0.90206 0.0
C1380 C 0.27687 0.7613 0.9116 0.0
C1381 C 0.33915 0.81891 0.91548 0.0
C1382 C 0.67555 0.3178 0.09688 0.0
C1383 C 0.61727 0.2577 0.09259 0.0
C1384 C 0.67206 0.37636 0.09987 0.0
C1385 C 0.61014 0.3751 0.09877 0.0
H1386 H 0.72317 0.31906 0.09841 0.0
H1387 H 0.71744 0.42236 0.10311 0.0
S1388 S 0.4434 0.22803 0.0891 0.0
N1389 N 0.49702 0.20023 0.0872 0.0
N1390 N 0.48923 0.30755 0.09456 0.0
C1391 C 0.5518 0.31455 0.09482 0.0
C1392 C 0.55579 0.2566 0.09111 0.0
C1393 C 0.34966 0.55765 0.28562 0.0
C1394 C 0.39303 0.58633 0.26986 0.0
C1395 C 0.296 0.56862 0.28856 0.0
C1396 C 0.28242 0.60661 0.27552 0.0
H1397 H 0.35232 0.52086 0.29469 0.0
H1398 H 0.26009 0.54005 0.29963 0.0
S1399 S 0.39189 0.70982 0.23612 0.0
N1400 N 0.42926 0.66932 0.24449 0.0
N1401 N 0.32346 0.68518 0.24909 0.0
C1402 C 0.32971 0.64274 0.26135 0.0
C1403 C 0.38626 0.63356 0.25873 0.0
loop_
_geom_bond_atom_site_label_1
_geom_bond_atom_site_label_2
_geom_bond_distance
_geom_bond_site_symmetry_2
_ccdc_geom_bond_type
Tb0 N29 2.617 1_565 S
Tb0 N35 2.572 . S
Tb0 O44 2.465 . S
Tb0 O45 2.387 1_565 S
Tb0 O47 2.428 . S
Tb0 O48 2.308 . S
Tb0 O52 2.349 . S
Tb0 O55 2.393 1_565 S
Tb0 C64 2.802 . S
C1 N2 1.379 . S
C1 C4 1.416 . S
C1 C8 1.424 . S
N2 C1 1.379 . S
N2 C5 1.334 . S
N2 Tb11 2.617 1_565 S
C3 C5 1.390 . S
C3 C6 1.339 . S
C3 H23 0.930 . S
C4 C1 1.416 . S
C4 C6 1.416 . S
C4 C10 1.448 . S
C5 N2 1.334 . S
C5 C3 1.390 . S
C5 H16 0.930 . S
C6 C3 1.339 . S
C6 C4 1.416 . S
C6 H27 0.930 . S
C7 C8 1.413 . S
C7 C9 1.427 . S
C7 C13 1.416 1_565 S
C8 C1 1.424 . S
C8 C7 1.413 . S
C8 N12 1.361 1_565 S
C9 C7 1.427 . S
C9 C10 1.328 . S
C9 H24 0.929 . S
C10 C4 1.448 . S
C10 C9 1.328 . S
C10 H25 0.930 . S
Tb11 N2 2.617 1_545 S
Tb11 N12 2.572 . S
Tb11 O46 2.349 . S
Tb11 O49 2.393 1_545 S
Tb11 O50 2.465 . S
Tb11 O51 2.387 1_545 S
Tb11 O53 2.428 . S
Tb11 O54 2.308 . S
Tb11 C75 2.802 . S
N12 C8 1.361 1_545 S
N12 Tb11 2.572 . S
N12 C14 1.340 . S
C13 C7 1.416 1_545 S
C13 C15 1.332 . S
C13 H21 0.931 . S
C14 N12 1.340 . S
C14 C15 1.407 . S
C14 H20 0.930 . S
C15 C13 1.332 . S
C15 C14 1.407 . S
C15 H17 0.929 . S
H16 C5 0.930 . S
H17 C15 0.929 . S
H18 C33 0.930 . S
H19 C40 0.929 . S
H20 C14 0.930 . S
H21 C13 0.931 . S
H22 C36 0.930 . S
H23 C3 0.930 . S
H24 C9 0.929 . S
H25 C10 0.930 . S
H26 C31 0.930 . S
H27 C6 0.930 . S
H28 C39 0.931 . S
N29 Tb0 2.617 1_545 S
N29 C30 1.379 . S
N29 C33 1.334 . S
C30 N29 1.379 . S
C30 C32 1.416 . S
C30 C38 1.424 . S
C31 H26 0.930 . S
C31 C33 1.390 . S
C31 C34 1.339 . S
C32 C30 1.416 . S
C32 C34 1.416 . S
C32 C65 1.448 . S
C33 H18 0.930 . S
C33 N29 1.334 . S
C33 C31 1.390 . S
C34 C31 1.339 . S
C34 C32 1.416 . S
C34 H41 0.930 . S
N35 Tb0 2.572 . S
N35 C36 1.340 . S
N35 C38 1.361 1_565 S
C36 H22 0.930 . S
C36 N35 1.340 . S
C36 C40 1.407 . S
C37 C38 1.413 . S
C37 C39 1.416 1_545 S
C37 C66 1.427 . S
C38 C30 1.424 . S
C38 N35 1.361 1_545 S
C38 C37 1.413 . S
C39 H28 0.931 . S
C39 C37 1.416 1_565 S
C39 C40 1.332 . S
C40 H19 0.929 . S
C40 C36 1.407 . S
C40 C39 1.332 . S
H41 C34 0.930 . S
H42 C65 0.930 . S
H43 C66 0.929 . S
O44 Tb0 2.465 . S
O44 C64 1.264 . S
O45 Tb0 2.387 1_545 S
O45 C56 1.264 . S
O46 Tb11 2.349 . S
O46 C56 1.243 . S
O47 Tb0 2.428 . S
O47 C64 1.256 . S
O48 Tb0 2.308 . S
O48 C63 1.266 . S
O49 Tb11 2.393 1_565 S
O49 C63 1.248 . S
O50 Tb11 2.465 . S
O50 C75 1.264 . S
O51 Tb11 2.387 1_565 S
O51 C67 1.264 . S
O52 Tb0 2.349 . S
O52 C67 1.243 . S
O53 Tb11 2.428 . S
O53 C75 1.256 . S
O54 Tb11 2.308 . S
O54 C74 1.266 . S
O55 Tb0 2.393 1_545 S
O55 C74 1.248 . S
C56 O45 1.264 . S
C56 O46 1.243 . S
C57 C60 1.399 . S
C57 C62 1.383 . S
C57 C64 1.496 . S
C58 C59 1.399 . S
C58 C62 1.389 . S
C59 C58 1.399 . S
C59 C61 1.380 . S
C59 H76 0.929 . S
C60 C57 1.399 . S
C60 C61 1.392 . S
C60 H77 0.929 . S
C61 C59 1.380 . S
C61 C60 1.392 . S
C61 H78 0.929 . S
C62 C57 1.383 . S
C62 C58 1.389 . S
C62 H79 0.931 . S
C63 O48 1.266 . S
C63 O49 1.248 . S
C64 Tb0 2.802 . S
C64 O44 1.264 . S
C64 O47 1.256 . S
C64 C57 1.496 . S
C65 C32 1.448 . S
C65 H42 0.930 . S
C65 C66 1.328 . S
C66 C37 1.427 . S
C66 H43 0.929 . S
C66 C65 1.328 . S
C67 O51 1.264 . S
C67 O52 1.243 . S
C68 C71 1.399 . S
C68 C72 1.383 . S
C68 C75 1.496 . S
C69 C70 1.399 . S
C69 C72 1.389 . S
C70 C69 1.399 . S
C70 C73 1.380 . S
C70 H80 0.929 . S
C71 C68 1.399 . S
C71 C73 1.392 . S
C71 H81 0.929 . S
C72 C68 1.383 . S
C72 C69 1.389 . S
C72 H82 0.931 . S
C73 C70 1.380 . S
C73 C71 1.392 . S
C73 H83 0.929 . S
C74 O54 1.266 . S
C74 O55 1.248 . S
C75 Tb11 2.802 . S
C75 O50 1.264 . S
C75 O53 1.256 . S
C75 C68 1.496 . S
H76 C59 0.929 . S
H77 C60 0.929 . S
H78 C61 0.929 . S
H79 C62 0.931 . S
H80 C70 0.929 . S
H81 C71 0.929 . S
H82 C72 0.931 . S
H83 C73 0.929 . S
Tb84 N113 2.617 . S
Tb84 N119 2.572 . S
Tb84 O128 2.465 . S
Tb84 O129 2.387 . S
Tb84 O131 2.428 . S
Tb84 O132 2.308 . S
Tb84 O136 2.349 . S
Tb84 O139 2.393 . S
Tb84 C148 2.802 . S
C85 N86 1.379 . S
C85 C88 1.416 . S
C85 C92 1.424 . S
N86 C85 1.379 . S
N86 C89 1.334 . S
N86 Tb95 2.617 . S
C87 C89 1.390 . S
C87 C90 1.339 . S
C87 H107 0.930 . S
C88 C85 1.416 . S
C88 C90 1.416 . S
C88 C94 1.448 . S
C89 N86 1.334 . S
C89 C87 1.390 . S
C89 H100 0.930 . S
C90 C87 1.339 . S
C90 C88 1.416 . S
C90 H111 0.930 . S
C91 C92 1.413 . S
C91 C93 1.427 . S
C91 C97 1.416 . S
C92 C85 1.424 . S
C92 C91 1.413 . S
C92 N96 1.361 . S
C93 C91 1.427 . S
C93 C94 1.328 . S
C93 H108 0.929 . S
C94 C88 1.448 . S
C94 C93 1.328 . S
C94 H109 0.930 . S
Tb95 N86 2.617 . S
Tb95 N96 2.572 . S
Tb95 O130 2.349 . S
Tb95 O133 2.393 . S
Tb95 O134 2.465 . S
Tb95 O135 2.387 . S
Tb95 O137 2.428 . S
Tb95 O138 2.308 . S
Tb95 C159 2.802 . S
N96 C92 1.361 . S
N96 Tb95 2.572 . S
N96 C98 1.340 . S
C97 C91 1.416 . S
C97 C99 1.332 . S
C97 H105 0.931 . S
C98 N96 1.340 . S
C98 C99 1.407 . S
C98 H104 0.930 . S
C99 C97 1.332 . S
C99 C98 1.407 . S
C99 H101 0.929 . S
H100 C89 0.930 . S
H101 C99 0.929 . S
H102 C117 0.930 . S
H103 C124 0.929 . S
H104 C98 0.930 . S
H105 C97 0.931 . S
H106 C120 0.930 . S
H107 C87 0.930 . S
H108 C93 0.929 . S
H109 C94 0.930 . S
H110 C115 0.930 . S
H111 C90 0.930 . S
H112 C123 0.931 . S
N113 Tb84 2.617 . S
N113 C114 1.379 . S
N113 C117 1.334 . S
C114 N113 1.379 . S
C114 C116 1.416 . S
C114 C122 1.424 . S
C115 H110 0.930 . S
C115 C117 1.390 . S
C115 C118 1.339 . S
C116 C114 1.416 . S
C116 C118 1.416 . S
C116 C149 1.448 . S
C117 H102 0.930 . S
C117 N113 1.334 . S
C117 C115 1.390 . S
C118 C115 1.339 . S
C118 C116 1.416 . S
C118 H125 0.930 . S
N119 Tb84 2.572 . S
N119 C120 1.340 . S
N119 C122 1.361 . S
C120 H106 0.930 . S
C120 N119 1.340 . S
C120 C124 1.407 . S
C121 C122 1.413 . S
C121 C123 1.416 . S
C121 C150 1.427 . S
C122 C114 1.424 . S
C122 N119 1.361 . S
C122 C121 1.413 . S
C123 H112 0.931 . S
C123 C121 1.416 . S
C123 C124 1.332 . S
C124 H103 0.929 . S
C124 C120 1.407 . S
C124 C123 1.332 . S
H125 C118 0.930 . S
H126 C149 0.930 . S
H127 C150 0.929 . S
O128 Tb84 2.465 . S
O128 C148 1.264 . S
O129 Tb84 2.387 . S
O129 C140 1.264 . S
O130 Tb95 2.349 . S
O130 C140 1.243 . S
O131 Tb84 2.428 . S
O131 C148 1.256 . S
O132 Tb84 2.308 . S
O132 C147 1.266 . S
O133 Tb95 2.393 . S
O133 C147 1.248 . S
O134 Tb95 2.465 . S
O134 C159 1.264 . S
O135 Tb95 2.387 . S
O135 C151 1.264 . S
O136 Tb84 2.349 . S
O136 C151 1.243 . S
O137 Tb95 2.428 . S
O137 C159 1.256 . S
O138 Tb95 2.308 . S
O138 C158 1.266 . S
O139 Tb84 2.393 . S
O139 C158 1.248 . S
C140 O129 1.264 . S
C140 O130 1.243 . S
C141 C144 1.399 . S
C141 C146 1.383 . S
C141 C148 1.496 . S
C142 C143 1.399 . S
C142 C146 1.389 . S
C143 C142 1.399 . S
C143 C145 1.380 . S
C143 H160 0.929 . S
C144 C141 1.399 . S
C144 C145 1.392 . S
C144 H161 0.929 . S
C145 C143 1.380 . S
C145 C144 1.392 . S
C145 H162 0.929 . S
C146 C141 1.383 . S
C146 C142 1.389 . S
C146 H163 0.931 . S
C147 O132 1.266 . S
C147 O133 1.248 . S
C148 Tb84 2.802 . S
C148 O128 1.264 . S
C148 O131 1.256 . S
C148 C141 1.496 . S
C149 C116 1.448 . S
C149 H126 0.930 . S
C149 C150 1.328 . S
C150 C121 1.427 . S
C150 H127 0.929 . S
C150 C149 1.328 . S
C151 O135 1.264 . S
C151 O136 1.243 . S
C152 C155 1.399 . S
C152 C156 1.383 . S
C152 C159 1.496 . S
C153 C154 1.399 . S
C153 C156 1.389 . S
C154 C153 1.399 . S
C154 C157 1.380 . S
C154 H164 0.929 . S
C155 C152 1.399 . S
C155 C157 1.392 . S
C155 H165 0.929 . S
C156 C152 1.383 . S
C156 C153 1.389 . S
C156 H166 0.931 . S
C157 C154 1.380 . S
C157 C155 1.392 . S
C157 H167 0.929 . S
C158 O138 1.266 . S
C158 O139 1.248 . S
C159 Tb95 2.802 . S
C159 O134 1.264 . S
C159 O137 1.256 . S
C159 C152 1.496 . S
H160 C143 0.929 . S
H161 C144 0.929 . S
H162 C145 0.929 . S
H163 C146 0.931 . S
H164 C154 0.929 . S
H165 C155 0.929 . S
H166 C156 0.931 . S
H167 C157 0.929 . S
Tb168 N197 2.617 1_455 S
Tb168 N203 2.572 . S
Tb168 O212 2.465 . S
Tb168 O213 2.387 1_455 S
Tb168 O215 2.428 . S
Tb168 O216 2.308 . S
Tb168 O220 2.349 . S
Tb168 O223 2.393 1_455 S
Tb168 C232 2.802 . S
C169 N170 1.379 . S
C169 C172 1.416 . S
C169 C176 1.424 . S
N170 C169 1.379 . S
N170 C173 1.334 . S
N170 Tb179 2.617 1_455 S
C171 C173 1.390 . S
C171 C174 1.339 . S
C171 H191 0.930 . S
C172 C169 1.416 . S
C172 C174 1.416 . S
C172 C178 1.448 . S
C173 N170 1.334 . S
C173 C171 1.390 . S
C173 H184 0.930 . S
C174 C171 1.339 . S
C174 C172 1.416 . S
C174 H195 0.930 . S
C175 C176 1.413 . S
C175 C177 1.427 . S
C175 C181 1.416 1_455 S
C176 C169 1.424 . S
C176 C175 1.413 . S
C176 N180 1.361 1_455 S
C177 C175 1.427 . S
C177 C178 1.328 . S
C177 H192 0.929 . S
C178 C172 1.448 . S
C178 C177 1.328 . S
C178 H193 0.930 . S
Tb179 N170 2.617 1_655 S
Tb179 N180 2.572 . S
Tb179 O214 2.349 . S
Tb179 O217 2.393 1_655 S
Tb179 O218 2.465 . S
Tb179 O219 2.387 1_655 S
Tb179 O221 2.428 . S
Tb179 O222 2.308 . S
Tb179 C243 2.802 . S
N180 C176 1.361 1_655 S
N180 Tb179 2.572 . S
N180 C182 1.340 . S
C181 C175 1.416 1_655 S
C181 C183 1.332 . S
C181 H189 0.931 . S
C182 N180 1.340 . S
C182 C183 1.407 . S
C182 H188 0.930 . S
C183 C181 1.332 . S
C183 C182 1.407 . S
C183 H185 0.929 . S
H184 C173 0.930 . S
H185 C183 0.929 . S
H186 C201 0.930 . S
H187 C208 0.929 . S
H188 C182 0.930 . S
H189 C181 0.931 . S
H190 C204 0.930 . S
H191 C171 0.930 . S
H192 C177 0.929 . S
H193 C178 0.930 . S
H194 C199 0.930 . S
H195 C174 0.930 . S
H196 C207 0.931 . S
N197 Tb168 2.617 1_655 S
N197 C198 1.379 . S
N197 C201 1.334 . S
C198 N197 1.379 . S
C198 C200 1.416 . S
C198 C206 1.424 . S
C199 H194 0.930 . S
C199 C201 1.390 . S
C199 C202 1.339 . S
C200 C198 1.416 . S
C200 C202 1.416 . S
C200 C233 1.448 . S
C201 H186 0.930 . S
C201 N197 1.334 . S
C201 C199 1.390 . S
C202 C199 1.339 . S
C202 C200 1.416 . S
C202 H209 0.930 . S
N203 Tb168 2.572 . S
N203 C204 1.340 . S
N203 C206 1.361 1_455 S
C204 H190 0.930 . S
C204 N203 1.340 . S
C204 C208 1.407 . S
C205 C206 1.413 . S
C205 C207 1.416 1_655 S
C205 C234 1.427 . S
C206 C198 1.424 . S
C206 N203 1.361 1_655 S
C206 C205 1.413 . S
C207 H196 0.931 . S
C207 C205 1.416 1_455 S
C207 C208 1.332 . S
C208 H187 0.929 . S
C208 C204 1.407 . S
C208 C207 1.332 . S
H209 C202 0.930 . S
H210 C233 0.930 . S
H211 C234 0.929 . S
O212 Tb168 2.465 . S
O212 C232 1.264 . S
O213 Tb168 2.387 1_655 S
O213 C224 1.264 . S
O214 Tb179 2.349 . S
O214 C224 1.243 . S
O215 Tb168 2.428 . S
O215 C232 1.256 . S
O216 Tb168 2.308 . S
O216 C231 1.266 . S
O217 Tb179 2.393 1_455 S
O217 C231 1.248 . S
O218 Tb179 2.465 . S
O218 C243 1.264 . S
O219 Tb179 2.387 1_455 S
O219 C235 1.264 . S
O220 Tb168 2.349 . S
O220 C235 1.243 . S
O221 Tb179 2.428 . S
O221 C243 1.256 . S
O222 Tb179 2.308 . S
O222 C242 1.266 . S
O223 Tb168 2.393 1_655 S
O223 C242 1.248 . S
C224 O213 1.264 . S
C224 O214 1.243 . S
C225 C228 1.399 . S
C225 C230 1.383 . S
C225 C232 1.496 . S
C226 C227 1.399 . S
C226 C230 1.389 . S
C227 C226 1.399 . S
C227 C229 1.380 . S
C227 H244 0.929 . S
C228 C225 1.399 . S
C228 C229 1.392 . S
C228 H245 0.929 . S
C229 C227 1.380 . S
C229 C228 1.392 . S
C229 H246 0.929 . S
C230 C225 1.383 . S
C230 C226 1.389 . S
C230 H247 0.931 . S
C231 O216 1.266 . S
C231 O217 1.248 . S
C232 Tb168 2.802 . S
C232 O212 1.264 . S
C232 O215 1.256 . S
C232 C225 1.496 . S
C233 C200 1.448 . S
C233 H210 0.930 . S
C233 C234 1.328 . S
C234 C205 1.427 . S
C234 H211 0.929 . S
C234 C233 1.328 . S
C235 O219 1.264 . S
C235 O220 1.243 . S
C236 C239 1.399 . S
C236 C240 1.383 . S
C236 C243 1.496 . S
C237 C238 1.399 . S
C237 C240 1.389 . S
C238 C237 1.399 . S
C238 C241 1.380 . S
C238 H248 0.929 . S
C239 C236 1.399 . S
C239 C241 1.392 . S
C239 H249 0.929 . S
C240 C236 1.383 . S
C240 C237 1.389 . S
C240 H250 0.931 . S
C241 C238 1.380 . S
C241 C239 1.392 . S
C241 H251 0.929 . S
C242 O222 1.266 . S
C242 O223 1.248 . S
C243 Tb179 2.802 . S
C243 O218 1.264 . S
C243 O221 1.256 . S
C243 C236 1.496 . S
H244 C227 0.929 . S
H245 C228 0.929 . S
H246 C229 0.929 . S
H247 C230 0.931 . S
H248 C238 0.929 . S
H249 C239 0.929 . S
H250 C240 0.931 . S
H251 C241 0.929 . S
Tb252 N281 2.617 1_545 S
Tb252 N287 2.572 . S
Tb252 O296 2.465 . S
Tb252 O297 2.387 1_545 S
Tb252 O299 2.428 . S
Tb252 O300 2.308 . S
Tb252 O304 2.349 . S
Tb252 O307 2.393 1_545 S
Tb252 C316 2.802 . S
C253 N254 1.379 . S
C253 C256 1.416 . S
C253 C260 1.424 . S
N254 C253 1.379 . S
N254 C257 1.334 . S
N254 Tb263 2.617 1_545 S
C255 C257 1.390 . S
C255 C258 1.339 . S
C255 H275 0.930 . S
C256 C253 1.416 . S
C256 C258 1.416 . S
C256 C262 1.448 . S
C257 N254 1.334 . S
C257 C255 1.390 . S
C257 H268 0.930 . S
C258 C255 1.339 . S
C258 C256 1.416 . S
C258 H279 0.930 . S
C259 C260 1.413 . S
C259 C261 1.427 . S
C259 C265 1.416 1_545 S
C260 C253 1.424 . S
C260 C259 1.413 . S
C260 N264 1.361 1_545 S
C261 C259 1.427 . S
C261 C262 1.328 . S
C261 H276 0.929 . S
C262 C256 1.448 . S
C262 C261 1.328 . S
C262 H277 0.930 . S
Tb263 N254 2.617 1_565 S
Tb263 N264 2.572 . S
Tb263 O298 2.349 . S
Tb263 O301 2.393 1_565 S
Tb263 O302 2.465 . S
Tb263 O303 2.387 1_565 S
Tb263 O305 2.428 . S
Tb263 O306 2.308 . S
Tb263 C327 2.802 . S
N264 C260 1.361 1_565 S
N264 Tb263 2.572 . S
N264 C266 1.340 . S
C265 C259 1.416 1_565 S
C265 C267 1.332 . S
C265 H273 0.931 . S
C266 N264 1.340 . S
C266 C267 1.407 . S
C266 H272 0.930 . S
C267 C265 1.332 . S
C267 C266 1.407 . S
C267 H269 0.929 . S
H268 C257 0.930 . S
H269 C267 0.929 . S
H270 C285 0.930 . S
H271 C292 0.929 . S
H272 C266 0.930 . S
H273 C265 0.931 . S
H274 C288 0.930 . S
H275 C255 0.930 . S
H276 C261 0.929 . S
H277 C262 0.930 . S
H278 C283 0.930 . S
H279 C258 0.930 . S
H280 C291 0.931 . S
N281 Tb252 2.617 1_565 S
N281 C282 1.379 . S
N281 C285 1.334 . S
C282 N281 1.379 . S
C282 C284 1.416 . S
C282 C290 1.424 . S
C283 H278 0.930 . S
C283 C285 1.390 . S
C283 C286 1.339 . S
C284 C282 1.416 . S
C284 C286 1.416 . S
C284 C317 1.448 . S
C285 H270 0.930 . S
C285 N281 1.334 . S
C285 C283 1.390 . S
C286 C283 1.339 . S
C286 C284 1.416 . S
C286 H293 0.930 . S
N287 Tb252 2.572 . S
N287 C288 1.340 . S
N287 C290 1.361 1_545 S
C288 H274 0.930 . S
C288 N287 1.340 . S
C288 C292 1.407 . S
C289 C290 1.413 . S
C289 C291 1.416 1_565 S
C289 C318 1.427 . S
C290 C282 1.424 . S
C290 N287 1.361 1_565 S
C290 C289 1.413 . S
C291 H280 0.931 . S
C291 C289 1.416 1_545 S
C291 C292 1.332 . S
C292 H271 0.929 . S
C292 C288 1.407 . S
C292 C291 1.332 . S
H293 C286 0.930 . S
H294 C317 0.930 . S
H295 C318 0.929 . S
O296 Tb252 2.465 . S
O296 C316 1.264 . S
O297 Tb252 2.387 1_565 S
O297 C308 1.264 . S
O298 Tb263 2.349 . S
O298 C308 1.243 . S
O299 Tb252 2.428 . S
O299 C316 1.256 . S
O300 Tb252 2.308 . S
O300 C315 1.266 . S
O301 Tb263 2.393 1_545 S
O301 C315 1.248 . S
O302 Tb263 2.465 . S
O302 C327 1.264 . S
O303 Tb263 2.387 1_545 S
O303 C319 1.264 . S
O304 Tb252 2.349 . S
O304 C319 1.243 . S
O305 Tb263 2.428 . S
O305 C327 1.256 . S
O306 Tb263 2.308 . S
O306 C326 1.266 . S
O307 Tb252 2.393 1_565 S
O307 C326 1.248 . S
C308 O297 1.264 . S
C308 O298 1.243 . S
C309 C312 1.399 . S
C309 C314 1.383 . S
C309 C316 1.496 . S
C310 C311 1.399 . S
C310 C314 1.389 . S
C311 C310 1.399 . S
C311 C313 1.380 . S
C311 H328 0.929 . S
C312 C309 1.399 . S
C312 C313 1.392 . S
C312 H329 0.929 . S
C313 C311 1.380 . S
C313 C312 1.392 . S
C313 H330 0.929 . S
C314 C309 1.383 . S
C314 C310 1.389 . S
C314 H331 0.931 . S
C315 O300 1.266 . S
C315 O301 1.248 . S
C316 Tb252 2.802 . S
C316 O296 1.264 . S
C316 O299 1.256 . S
C316 C309 1.496 . S
C317 C284 1.448 . S
C317 H294 0.930 . S
C317 C318 1.328 . S
C318 C289 1.427 . S
C318 H295 0.929 . S
C318 C317 1.328 . S
C319 O303 1.264 . S
C319 O304 1.243 . S
C320 C323 1.399 . S
C320 C324 1.383 . S
C320 C327 1.496 . S
C321 C322 1.399 . S
C321 C324 1.389 . S
C322 C321 1.399 . S
C322 C325 1.380 . S
C322 H332 0.929 . S
C323 C320 1.399 . S
C323 C325 1.392 . S
C323 H333 0.929 . S
C324 C320 1.383 . S
C324 C321 1.389 . S
C324 H334 0.931 . S
C325 C322 1.380 . S
C325 C323 1.392 . S
C325 H335 0.929 . S
C326 O306 1.266 . S
C326 O307 1.248 . S
C327 Tb263 2.802 . S
C327 O302 1.264 . S
C327 O305 1.256 . S
C327 C320 1.496 . S
H328 C311 0.929 . S
H329 C312 0.929 . S
H330 C313 0.929 . S
H331 C314 0.931 . S
H332 C322 0.929 . S
H333 C323 0.929 . S
H334 C324 0.931 . S
H335 C325 0.929 . S
Tb336 N365 2.617 1_554 S
Tb336 N371 2.572 . S
Tb336 O380 2.482 . S
Tb336 O381 2.387 . S
Tb336 O383 2.428 1_554 S
Tb336 O384 2.308 . S
Tb336 O388 2.349 . S
Tb336 O391 2.393 1_554 S
Tb336 C400 2.802 1_554 S
C337 N338 1.379 . S
C337 C340 1.416 . S
C337 C344 1.424 . S
N338 C337 1.379 . S
N338 C341 1.334 . S
N338 Tb347 2.617 . S
C339 C341 1.390 . S
C339 C342 1.339 . S
C339 H359 0.930 . S
C340 C337 1.416 . S
C340 C342 1.416 . S
C340 C346 1.448 . S
C341 N338 1.334 . S
C341 C339 1.390 . S
C341 H352 0.930 . S
C342 C339 1.339 . S
C342 C340 1.416 . S
C342 H363 0.930 . S
C343 C344 1.413 . S
C343 C345 1.427 . S
C343 C349 1.416 . S
C344 C337 1.424 . S
C344 C343 1.413 . S
C344 N348 1.361 . S
C345 C343 1.427 . S
C345 C346 1.328 . S
C345 H360 0.929 . S
C346 C340 1.448 . S
C346 C345 1.328 . S
C346 H361 0.930 . S
Tb347 N338 2.617 . S
Tb347 N348 2.572 . S
Tb347 O382 2.349 . S
Tb347 O385 2.393 . S
Tb347 O386 2.465 . S
Tb347 O387 2.387 . S
Tb347 O389 2.428 . S
Tb347 O390 2.308 . S
Tb347 C411 2.802 . S
N348 C344 1.361 . S
N348 Tb347 2.572 . S
N348 C350 1.340 . S
C349 C343 1.416 . S
C349 C351 1.332 . S
C349 H357 0.931 . S
C350 N348 1.340 . S
C350 C351 1.407 . S
C350 H356 0.930 . S
C351 C349 1.332 . S
C351 C350 1.407 . S
C351 H353 0.929 . S
H352 C341 0.930 . S
H353 C351 0.929 . S
H354 C369 0.930 . S
H355 C376 0.929 . S
H356 C350 0.930 . S
H357 C349 0.931 . S
H358 C372 0.930 . S
H359 C339 0.930 . S
H360 C345 0.929 . S
H361 C346 0.930 . S
H362 C367 0.930 . S
H363 C342 0.930 . S
H364 C375 0.931 . S
N365 Tb336 2.617 1_556 S
N365 C366 1.379 1_556 S
N365 C369 1.334 . S
C366 N365 1.379 1_554 S
C366 C368 1.426 . S
C366 C374 1.424 . S
C367 H362 0.930 . S
C367 C369 1.390 . S
C367 C370 1.339 . S
C368 C366 1.426 . S
C368 C370 1.391 1_554 S
C368 C401 1.467 . S
C369 H354 0.930 . S
C369 N365 1.334 . S
C369 C367 1.390 . S
C370 C367 1.339 . S
C370 C368 1.391 1_556 S
C370 H377 0.930 . S
N371 Tb336 2.572 . S
N371 C372 1.340 . S
N371 C374 1.361 . S
C372 H358 0.930 . S
C372 N371 1.340 . S
C372 C376 1.407 . S
C373 C374 1.413 . S
C373 C375 1.416 . S
C373 C402 1.427 . S
C374 C366 1.424 . S
C374 N371 1.361 . S
C374 C373 1.413 . S
C375 H364 0.931 . S
C375 C373 1.416 . S
C375 C376 1.332 . S
C376 H355 0.929 . S
C376 C372 1.407 . S
C376 C375 1.332 . S
H377 C370 0.930 . S
H378 C401 0.930 . S
H379 C402 0.929 . S
O380 Tb336 2.482 . S
O380 C400 1.210 1_554 S
O381 Tb336 2.387 . S
O381 C392 1.264 . S
O382 Tb347 2.349 . S
O382 C392 1.243 . S
O383 Tb336 2.428 1_556 S
O383 C400 1.256 . S
O384 Tb336 2.308 . S
O384 C399 1.266 . S
O385 Tb347 2.393 . S
O385 C399 1.248 . S
O386 Tb347 2.465 . S
O386 C411 1.264 . S
O387 Tb347 2.387 . S
O387 C403 1.264 . S
O388 Tb336 2.349 . S
O388 C403 1.243 . S
O389 Tb347 2.428 . S
O389 C411 1.256 . S
O390 Tb347 2.308 . S
O390 C410 1.266 . S
O391 Tb336 2.393 1_556 S
O391 C410 1.248 1_556 S
C392 O381 1.264 . S
C392 O382 1.243 . S
C393 C396 1.399 . S
C393 C398 1.383 . S
C393 C400 1.496 . S
C394 C395 1.399 . S
C394 C398 1.389 . S
C395 C394 1.399 . S
C395 C397 1.380 . S
C395 H412 0.929 . S
C396 C393 1.399 . S
C396 C397 1.392 . S
C396 H413 0.929 . S
C397 C395 1.380 . S
C397 C396 1.392 . S
C397 H414 0.929 . S
C398 C393 1.383 . S
C398 C394 1.389 . S
C398 H415 0.931 . S
C399 O384 1.266 . S
C399 O385 1.248 . S
C400 Tb336 2.802 1_556 S
C400 O380 1.210 1_556 S
C400 O383 1.256 . S
C400 C393 1.496 . S
C401 C368 1.467 . S
C401 H378 0.930 . S
C401 C402 1.328 . S
C402 C373 1.427 . S
C402 H379 0.929 . S
C402 C401 1.328 . S
C403 O387 1.264 . S
C403 O388 1.243 . S
C404 C407 1.399 . S
C404 C408 1.383 . S
C404 C411 1.496 . S
C405 C406 1.399 . S
C405 C408 1.389 . S
C406 C405 1.399 . S
C406 C409 1.380 . S
C406 H416 0.929 . S
C407 C404 1.399 . S
C407 C409 1.392 . S
C407 H417 0.929 . S
C408 C404 1.383 . S
C408 C405 1.389 . S
C408 H418 0.931 . S
C409 C406 1.380 . S
C409 C407 1.392 . S
C409 H419 0.929 . S
C410 O390 1.266 . S
C410 O391 1.248 1_554 S
C411 Tb347 2.802 . S
C411 O386 1.264 . S
C411 O389 1.256 . S
C411 C404 1.496 . S
H412 C395 0.929 . S
H413 C396 0.929 . S
H414 C397 0.929 . S
H415 C398 0.931 . S
H416 C406 0.929 . S
H417 C407 0.929 . S
H418 C408 0.931 . S
H419 C409 0.929 . S
Tb420 N449 2.617 1_655 S
Tb420 N455 2.572 . S
Tb420 O464 2.465 . S
Tb420 O465 2.387 1_655 S
Tb420 O467 2.428 . S
Tb420 O468 2.308 . S
Tb420 O472 2.349 . S
Tb420 O475 2.393 1_655 S
Tb420 C484 2.802 . S
C421 N422 1.379 . S
C421 C424 1.416 . S
C421 C428 1.424 . S
N422 C421 1.379 . S
N422 C425 1.334 . S
N422 Tb431 2.617 1_655 S
C423 C425 1.390 . S
C423 C426 1.339 . S
C423 H443 0.930 . S
C424 C421 1.416 . S
C424 C426 1.416 . S
C424 C430 1.448 . S
C425 N422 1.334 . S
C425 C423 1.390 . S
C425 H436 0.930 . S
C426 C423 1.339 . S
C426 C424 1.416 . S
C426 H447 0.930 . S
C427 C428 1.413 . S
C427 C429 1.427 . S
C427 C433 1.416 1_655 S
C428 C421 1.424 . S
C428 C427 1.413 . S
C428 N432 1.361 1_655 S
C429 C427 1.427 . S
C429 C430 1.328 . S
C429 H444 0.929 . S
C430 C424 1.448 . S
C430 C429 1.328 . S
C430 H445 0.930 . S
Tb431 N422 2.617 1_455 S
Tb431 N432 2.572 . S
Tb431 O466 2.349 . S
Tb431 O469 2.393 1_455 S
Tb431 O470 2.465 . S
Tb431 O471 2.387 1_455 S
Tb431 O473 2.428 . S
Tb431 O474 2.308 . S
Tb431 C495 2.802 . S
N432 C428 1.361 1_455 S
N432 Tb431 2.572 . S
N432 C434 1.340 . S
C433 C427 1.416 1_455 S
C433 C435 1.332 . S
C433 H441 0.931 . S
C434 N432 1.340 . S
C434 C435 1.407 . S
C434 H440 0.930 . S
C435 C433 1.332 . S
C435 C434 1.407 . S
C435 H437 0.929 . S
H436 C425 0.930 . S
H437 C435 0.929 . S
H438 C453 0.930 . S
H439 C460 0.929 . S
H440 C434 0.930 . S
H441 C433 0.931 . S
H442 C456 0.930 . S
H443 C423 0.930 . S
H444 C429 0.929 . S
H445 C430 0.930 . S
H446 C451 0.930 . S
H447 C426 0.930 . S
H448 C459 0.931 . S
N449 Tb420 2.617 1_455 S
N449 C450 1.379 . S
N449 C453 1.334 . S
C450 N449 1.379 . S
C450 C452 1.416 . S
C450 C458 1.424 . S
C451 H446 0.930 . S
C451 C453 1.390 . S
C451 C454 1.339 . S
C452 C450 1.416 . S
C452 C454 1.416 . S
C452 C485 1.448 . S
C453 H438 0.930 . S
C453 N449 1.334 . S
C453 C451 1.390 . S
C454 C451 1.339 . S
C454 C452 1.416 . S
C454 H461 0.930 . S
N455 Tb420 2.572 . S
N455 C456 1.340 . S
N455 C458 1.361 1_655 S
C456 H442 0.930 . S
C456 N455 1.340 . S
C456 C460 1.407 . S
C457 C458 1.413 . S
C457 C459 1.416 1_455 S
C457 C486 1.427 . S
C458 C450 1.424 . S
C458 N455 1.361 1_455 S
C458 C457 1.413 . S
C459 H448 0.931 . S
C459 C457 1.416 1_655 S
C459 C460 1.332 . S
C460 H439 0.929 . S
C460 C456 1.407 . S
C460 C459 1.332 . S
H461 C454 0.930 . S
H462 C485 0.930 . S
H463 C486 0.929 . S
O464 Tb420 2.465 . S
O464 C484 1.264 . S
O465 Tb420 2.387 1_455 S
O465 C476 1.264 . S
O466 Tb431 2.349 . S
O466 C476 1.243 . S
O467 Tb420 2.428 . S
O467 C484 1.256 . S
O468 Tb420 2.308 . S
O468 C483 1.266 . S
O469 Tb431 2.393 1_655 S
O469 C483 1.248 . S
O470 Tb431 2.465 . S
O470 C495 1.264 . S
O471 Tb431 2.387 1_655 S
O471 C487 1.264 . S
O472 Tb420 2.349 . S
O472 C487 1.243 . S
O473 Tb431 2.428 . S
O473 C495 1.256 . S
O474 Tb431 2.308 . S
O474 C494 1.266 . S
O475 Tb420 2.393 1_455 S
O475 C494 1.248 . S
C476 O465 1.264 . S
C476 O466 1.243 . S
C477 C480 1.399 . S
C477 C482 1.383 . S
C477 C484 1.496 . S
C478 C479 1.399 . S
C478 C482 1.389 . S
C479 C478 1.399 . S
C479 C481 1.380 . S
C479 H496 0.929 . S
C480 C477 1.399 . S
C480 C481 1.392 . S
C480 H497 0.929 . S
C481 C479 1.380 . S
C481 C480 1.392 . S
C481 H498 0.929 . S
C482 C477 1.383 . S
C482 C478 1.389 . S
C482 H499 0.931 . S
C483 O468 1.266 . S
C483 O469 1.248 . S
C484 Tb420 2.802 . S
C484 O464 1.264 . S
C484 O467 1.256 . S
C484 C477 1.496 . S
C485 C452 1.448 . S
C485 H462 0.930 . S
C485 C486 1.328 . S
C486 C457 1.427 . S
C486 H463 0.929 . S
C486 C485 1.328 . S
C487 O471 1.264 . S
C487 O472 1.243 . S
C488 C491 1.399 . S
C488 C492 1.383 . S
C488 C495 1.496 . S
C489 C490 1.399 . S
C489 C492 1.389 . S
C490 C489 1.399 . S
C490 C493 1.380 . S
C490 H500 0.929 . S
C491 C488 1.399 . S
C491 C493 1.392 . S
C491 H501 0.929 . S
C492 C488 1.383 . S
C492 C489 1.389 . S
C492 H502 0.931 . S
C493 C490 1.380 . S
C493 C491 1.392 . S
C493 H503 0.929 . S
C494 O474 1.266 . S
C494 O475 1.248 . S
C495 Tb431 2.802 . S
C495 O470 1.264 . S
C495 O473 1.256 . S
C495 C488 1.496 . S
H496 C479 0.929 . S
H497 C480 0.929 . S
H498 C481 0.929 . S
H499 C482 0.931 . S
H500 C490 0.929 . S
H501 C491 0.929 . S
H502 C492 0.931 . S
H503 C493 0.929 . S
Tb504 N533 2.617 1_455 S
Tb504 N539 2.572 . S
Tb504 O548 2.465 . S
Tb504 O549 2.387 1_455 S
Tb504 O551 2.428 . S
Tb504 O552 2.308 . S
Tb504 O556 2.349 . S
Tb504 O559 2.393 1_455 S
Tb504 C568 2.802 . S
C505 N506 1.379 . S
C505 C508 1.416 . S
C505 C512 1.424 . S
N506 C505 1.379 . S
N506 C509 1.334 . S
N506 Tb515 2.617 1_455 S
C507 C509 1.390 . S
C507 C510 1.339 . S
C507 H527 0.930 . S
C508 C505 1.416 . S
C508 C510 1.416 . S
C508 C514 1.448 . S
C509 N506 1.334 . S
C509 C507 1.390 . S
C509 H520 0.930 . S
C510 C507 1.339 . S
C510 C508 1.416 . S
C510 H531 0.930 . S
C511 C512 1.413 . S
C511 C513 1.427 . S
C511 C517 1.416 1_455 S
C512 C505 1.424 . S
C512 C511 1.413 . S
C512 N516 1.361 1_455 S
C513 C511 1.427 . S
C513 C514 1.328 . S
C513 H528 0.929 . S
C514 C508 1.448 . S
C514 C513 1.328 . S
C514 H529 0.930 . S
Tb515 N506 2.617 1_655 S
Tb515 N516 2.572 . S
Tb515 O550 2.349 . S
Tb515 O553 2.393 1_655 S
Tb515 O554 2.465 . S
Tb515 O555 2.387 1_655 S
Tb515 O557 2.428 . S
Tb515 O558 2.308 . S
Tb515 C579 2.802 . S
N516 C512 1.361 1_655 S
N516 Tb515 2.572 . S
N516 C518 1.340 . S
C517 C511 1.416 1_655 S
C517 C519 1.332 . S
C517 H525 0.931 . S
C518 N516 1.340 . S
C518 C519 1.407 . S
C518 H524 0.930 . S
C519 C517 1.332 . S
C519 C518 1.407 . S
C519 H521 0.929 . S
H520 C509 0.930 . S
H521 C519 0.929 . S
H522 C537 0.930 . S
H523 C544 0.929 . S
H524 C518 0.930 . S
H525 C517 0.931 . S
H526 C540 0.930 . S
H527 C507 0.930 . S
H528 C513 0.929 . S
H529 C514 0.930 . S
H530 C535 0.930 . S
H531 C510 0.930 . S
H532 C543 0.931 . S
N533 Tb504 2.617 1_655 S
N533 C534 1.379 . S
N533 C537 1.334 . S
C534 N533 1.379 . S
C534 C536 1.416 . S
C534 C542 1.424 . S
C535 H530 0.930 . S
C535 C537 1.390 . S
C535 C538 1.339 . S
C536 C534 1.416 . S
C536 C538 1.416 . S
C536 C569 1.448 . S
C537 H522 0.930 . S
C537 N533 1.334 . S
C537 C535 1.390 . S
C538 C535 1.339 . S
C538 C536 1.416 . S
C538 H545 0.930 . S
N539 Tb504 2.572 . S
N539 C540 1.340 . S
N539 C542 1.361 1_455 S
C540 H526 0.930 . S
C540 N539 1.340 . S
C540 C544 1.407 . S
C541 C542 1.413 . S
C541 C543 1.416 1_655 S
C541 C570 1.427 . S
C542 C534 1.424 . S
C542 N539 1.361 1_655 S
C542 C541 1.413 . S
C543 H532 0.931 . S
C543 C541 1.416 1_455 S
C543 C544 1.332 . S
C544 H523 0.929 . S
C544 C540 1.407 . S
C544 C543 1.332 . S
H545 C538 0.930 . S
H546 C569 0.930 . S
H547 C570 0.929 . S
O548 Tb504 2.465 . S
O548 C568 1.264 . S
O549 Tb504 2.387 1_655 S
O549 C560 1.264 . S
O550 Tb515 2.349 . S
O550 C560 1.243 . S
O551 Tb504 2.428 . S
O551 C568 1.256 . S
O552 Tb504 2.308 . S
O552 C567 1.266 . S
O553 Tb515 2.393 1_455 S
O553 C567 1.248 . S
O554 Tb515 2.465 . S
O554 C579 1.264 . S
O555 Tb515 2.387 1_455 S
O555 C571 1.264 . S
O556 Tb504 2.349 . S
O556 C571 1.243 . S
O557 Tb515 2.428 . S
O557 C579 1.256 . S
O558 Tb515 2.308 . S
O558 C578 1.266 . S
O559 Tb504 2.393 1_655 S
O559 C578 1.248 . S
C560 O549 1.264 . S
C560 O550 1.243 . S
C561 C564 1.399 . S
C561 C566 1.383 . S
C561 C568 1.496 . S
C562 C563 1.399 . S
C562 C566 1.389 . S
C563 C562 1.399 . S
C563 C565 1.380 . S
C563 H580 0.929 . S
C564 C561 1.399 . S
C564 C565 1.392 . S
C564 H581 0.929 . S
C565 C563 1.380 . S
C565 C564 1.392 . S
C565 H582 0.929 . S
C566 C561 1.383 . S
C566 C562 1.389 . S
C566 H583 0.931 . S
C567 O552 1.266 . S
C567 O553 1.248 . S
C568 Tb504 2.802 . S
C568 O548 1.264 . S
C568 O551 1.256 . S
C568 C561 1.496 . S
C569 C536 1.448 . S
C569 H546 0.930 . S
C569 C570 1.328 . S
C570 C541 1.427 . S
C570 H547 0.929 . S
C570 C569 1.328 . S
C571 O555 1.264 . S
C571 O556 1.243 . S
C572 C575 1.399 . S
C572 C576 1.383 . S
C572 C579 1.496 . S
C573 C574 1.399 . S
C573 C576 1.389 . S
C574 C573 1.399 . S
C574 C577 1.380 . S
C574 H584 0.929 . S
C575 C572 1.399 . S
C575 C577 1.392 . S
C575 H585 0.929 . S
C576 C572 1.383 . S
C576 C573 1.389 . S
C576 H586 0.931 . S
C577 C574 1.380 . S
C577 C575 1.392 . S
C577 H587 0.929 . S
C578 O558 1.266 . S
C578 O559 1.248 . S
C579 Tb515 2.802 . S
C579 O554 1.264 . S
C579 O557 1.256 . S
C579 C572 1.496 . S
H580 C563 0.929 . S
H581 C564 0.929 . S
H582 C565 0.929 . S
H583 C566 0.931 . S
H584 C574 0.929 . S
H585 C575 0.929 . S
H586 C576 0.931 . S
H587 C577 0.929 . S
Tb588 N617 2.617 1_545 S
Tb588 N623 2.572 . S
Tb588 O632 2.465 . S
Tb588 O633 2.387 1_545 S
Tb588 O635 2.428 . S
Tb588 O636 2.308 . S
Tb588 O640 2.349 . S
Tb588 O643 2.393 1_545 S
Tb588 C652 2.802 . S
C589 N590 1.379 . S
C589 C592 1.416 . S
C589 C596 1.424 . S
N590 C589 1.379 . S
N590 C593 1.334 . S
N590 Tb599 2.617 1_545 S
C591 C593 1.390 . S
C591 C594 1.339 . S
C591 H611 0.930 . S
C592 C589 1.416 . S
C592 C594 1.416 . S
C592 C598 1.448 . S
C593 N590 1.334 . S
C593 C591 1.390 . S
C593 H604 0.930 . S
C594 C591 1.339 . S
C594 C592 1.416 . S
C594 H615 0.930 . S
C595 C596 1.413 . S
C595 C597 1.427 . S
C595 C601 1.416 1_545 S
C596 C589 1.424 . S
C596 C595 1.413 . S
C596 N600 1.361 1_545 S
C597 C595 1.427 . S
C597 C598 1.328 . S
C597 H612 0.929 . S
C598 C592 1.448 . S
C598 C597 1.328 . S
C598 H613 0.930 . S
Tb599 N590 2.617 1_565 S
Tb599 N600 2.572 . S
Tb599 O634 2.349 . S
Tb599 O637 2.393 1_565 S
Tb599 O638 2.465 . S
Tb599 O639 2.387 1_565 S
Tb599 O641 2.428 . S
Tb599 O642 2.308 . S
Tb599 C663 2.802 . S
N600 C596 1.361 1_565 S
N600 Tb599 2.572 . S
N600 C602 1.340 . S
C601 C595 1.416 1_565 S
C601 C603 1.332 . S
C601 H609 0.931 . S
C602 N600 1.340 . S
C602 C603 1.407 . S
C602 H608 0.930 . S
C603 C601 1.332 . S
C603 C602 1.407 . S
C603 H605 0.929 . S
H604 C593 0.930 . S
H605 C603 0.929 . S
H606 C621 0.930 . S
H607 C628 0.929 . S
H608 C602 0.930 . S
H609 C601 0.931 . S
H610 C624 0.930 . S
H611 C591 0.930 . S
H612 C597 0.929 . S
H613 C598 0.930 . S
H614 C619 0.930 . S
H615 C594 0.930 . S
H616 C627 0.931 . S
N617 Tb588 2.617 1_565 S
N617 C618 1.379 . S
N617 C621 1.334 . S
C618 N617 1.379 . S
C618 C620 1.416 . S
C618 C626 1.424 . S
C619 H614 0.930 . S
C619 C621 1.390 . S
C619 C622 1.339 . S
C620 C618 1.416 . S
C620 C622 1.416 . S
C620 C653 1.448 . S
C621 H606 0.930 . S
C621 N617 1.334 . S
C621 C619 1.390 . S
C622 C619 1.339 . S
C622 C620 1.416 . S
C622 H629 0.930 . S
N623 Tb588 2.572 . S
N623 C624 1.340 . S
N623 C626 1.361 1_545 S
C624 H610 0.930 . S
C624 N623 1.340 . S
C624 C628 1.407 . S
C625 C626 1.413 . S
C625 C627 1.416 1_565 S
C625 C654 1.427 . S
C626 C618 1.424 . S
C626 N623 1.361 1_565 S
C626 C625 1.413 . S
C627 H616 0.931 . S
C627 C625 1.416 1_545 S
C627 C628 1.332 . S
C628 H607 0.929 . S
C628 C624 1.407 . S
C628 C627 1.332 . S
H629 C622 0.930 . S
H630 C653 0.930 . S
H631 C654 0.929 . S
O632 Tb588 2.465 . S
O632 C652 1.264 . S
O633 Tb588 2.387 1_565 S
O633 C644 1.264 . S
O634 Tb599 2.349 . S
O634 C644 1.243 . S
O635 Tb588 2.428 . S
O635 C652 1.256 . S
O636 Tb588 2.308 . S
O636 C651 1.266 . S
O637 Tb599 2.393 1_545 S
O637 C651 1.248 . S
O638 Tb599 2.465 . S
O638 C663 1.264 . S
O639 Tb599 2.387 1_545 S
O639 C655 1.264 . S
O640 Tb588 2.349 . S
O640 C655 1.243 . S
O641 Tb599 2.428 . S
O641 C663 1.256 . S
O642 Tb599 2.308 . S
O642 C662 1.266 . S
O643 Tb588 2.393 1_565 S
O643 C662 1.248 . S
C644 O633 1.264 . S
C644 O634 1.243 . S
C645 C648 1.399 . S
C645 C650 1.383 . S
C645 C652 1.496 . S
C646 C647 1.399 . S
C646 C650 1.389 . S
C647 C646 1.399 . S
C647 C649 1.380 . S
C647 H664 0.929 . S
C648 C645 1.399 . S
C648 C649 1.392 . S
C648 H665 0.929 . S
C649 C647 1.380 . S
C649 C648 1.392 . S
C649 H666 0.929 . S
C650 C645 1.383 . S
C650 C646 1.389 . S
C650 H667 0.931 . S
C651 O636 1.266 . S
C651 O637 1.248 . S
C652 Tb588 2.802 . S
C652 O632 1.264 . S
C652 O635 1.256 . S
C652 C645 1.496 . S
C653 C620 1.448 . S
C653 H630 0.930 . S
C653 C654 1.328 . S
C654 C625 1.427 . S
C654 H631 0.929 . S
C654 C653 1.328 . S
C655 O639 1.264 . S
C655 O640 1.243 . S
C656 C659 1.399 . S
C656 C660 1.383 . S
C656 C663 1.496 . S
C657 C658 1.399 . S
C657 C660 1.389 . S
C658 C657 1.399 . S
C658 C661 1.380 . S
C658 H668 0.929 . S
C659 C656 1.399 . S
C659 C661 1.392 . S
C659 H669 0.929 . S
C660 C656 1.383 . S
C660 C657 1.389 . S
C660 H670 0.931 . S
C661 C658 1.380 . S
C661 C659 1.392 . S
C661 H671 0.929 . S
C662 O642 1.266 . S
C662 O643 1.248 . S
C663 Tb599 2.802 . S
C663 O638 1.264 . S
C663 O641 1.256 . S
C663 C656 1.496 . S
H664 C647 0.929 . S
H665 C648 0.929 . S
H666 C649 0.929 . S
H667 C650 0.931 . S
H668 C658 0.929 . S
H669 C659 0.929 . S
H670 C660 0.931 . S
H671 C661 0.929 . S
Tb672 N701 2.617 . S
Tb672 N707 2.572 . S
Tb672 O716 2.465 . S
Tb672 O717 2.387 . S
Tb672 O719 2.428 . S
Tb672 O720 2.308 . S
Tb672 O724 2.349 . S
Tb672 O727 2.393 . S
Tb672 C736 2.802 . S
C673 N674 1.379 . S
C673 C676 1.416 . S
C673 C680 1.424 . S
N674 C673 1.379 . S
N674 C677 1.334 . S
N674 Tb683 2.617 . S
C675 C677 1.390 . S
C675 C678 1.339 . S
C675 H695 0.930 . S
C676 C673 1.416 . S
C676 C678 1.416 . S
C676 C682 1.448 . S
C677 N674 1.334 . S
C677 C675 1.390 . S
C677 H688 0.930 . S
C678 C675 1.339 . S
C678 C676 1.416 . S
C678 H699 0.930 . S
C679 C680 1.413 . S
C679 C681 1.427 . S
C679 C685 1.416 . S
C680 C673 1.424 . S
C680 C679 1.413 . S
C680 N684 1.361 . S
C681 C679 1.427 . S
C681 C682 1.328 . S
C681 H696 0.929 . S
C682 C676 1.448 . S
C682 C681 1.328 . S
C682 H697 0.930 . S
Tb683 N674 2.617 . S
Tb683 N684 2.572 . S
Tb683 O718 2.349 . S
Tb683 O721 2.393 . S
Tb683 O722 2.465 . S
Tb683 O723 2.387 . S
Tb683 O725 2.428 . S
Tb683 O726 2.308 . S
Tb683 C747 2.802 . S
N684 C680 1.361 . S
N684 Tb683 2.572 . S
N684 C686 1.340 . S
C685 C679 1.416 . S
C685 C687 1.332 . S
C685 H693 0.931 . S
C686 N684 1.340 . S
C686 C687 1.407 . S
C686 H692 0.930 . S
C687 C685 1.332 . S
C687 C686 1.407 . S
C687 H689 0.929 . S
H688 C677 0.930 . S
H689 C687 0.929 . S
H690 C705 0.930 . S
H691 C712 0.929 . S
H692 C686 0.930 . S
H693 C685 0.931 . S
H694 C708 0.930 . S
H695 C675 0.930 . S
H696 C681 0.929 . S
H697 C682 0.930 . S
H698 C703 0.930 . S
H699 C678 0.930 . S
H700 C711 0.931 . S
N701 Tb672 2.617 . S
N701 C702 1.379 . S
N701 C705 1.334 . S
C702 N701 1.379 . S
C702 C704 1.416 . S
C702 C710 1.424 . S
C703 H698 0.930 . S
C703 C705 1.390 . S
C703 C706 1.339 . S
C704 C702 1.416 . S
C704 C706 1.416 . S
C704 C737 1.448 . S
C705 H690 0.930 . S
C705 N701 1.334 . S
C705 C703 1.390 . S
C706 C703 1.339 . S
C706 C704 1.416 . S
C706 H713 0.930 . S
N707 Tb672 2.572 . S
N707 C708 1.340 . S
N707 C710 1.361 . S
C708 H694 0.930 . S
C708 N707 1.340 . S
C708 C712 1.407 . S
C709 C710 1.413 . S
C709 C711 1.416 . S
C709 C738 1.427 . S
C710 C702 1.424 . S
C710 N707 1.361 . S
C710 C709 1.413 . S
C711 H700 0.931 . S
C711 C709 1.416 . S
C711 C712 1.332 . S
C712 H691 0.929 . S
C712 C708 1.407 . S
C712 C711 1.332 . S
H713 C706 0.930 . S
H714 C737 0.930 . S
H715 C738 0.929 . S
O716 Tb672 2.465 . S
O716 C736 1.264 . S
O717 Tb672 2.387 . S
O717 C728 1.264 . S
O718 Tb683 2.349 . S
O718 C728 1.243 . S
O719 Tb672 2.428 . S
O719 C736 1.256 . S
O720 Tb672 2.308 . S
O720 C735 1.266 . S
O721 Tb683 2.393 . S
O721 C735 1.248 . S
O722 Tb683 2.465 . S
O722 C747 1.264 . S
O723 Tb683 2.387 . S
O723 C739 1.264 . S
O724 Tb672 2.349 . S
O724 C739 1.243 . S
O725 Tb683 2.428 . S
O725 C747 1.256 . S
O726 Tb683 2.308 . S
O726 C746 1.266 . S
O727 Tb672 2.393 . S
O727 C746 1.248 . S
C728 O717 1.264 . S
C728 O718 1.243 . S
C729 C732 1.399 . S
C729 C734 1.383 . S
C729 C736 1.496 . S
C730 C731 1.399 . S
C730 C734 1.389 . S
C731 C730 1.399 . S
C731 C733 1.380 . S
C731 H748 0.929 . S
C732 C729 1.399 . S
C732 C733 1.392 . S
C732 H749 0.929 . S
C733 C731 1.380 . S
C733 C732 1.392 . S
C733 H750 0.929 . S
C734 C729 1.383 . S
C734 C730 1.389 . S
C734 H751 0.931 . S
C735 O720 1.266 . S
C735 O721 1.248 . S
C736 Tb672 2.802 . S
C736 O716 1.264 . S
C736 O719 1.256 . S
C736 C729 1.496 . S
C737 C704 1.448 . S
C737 H714 0.930 . S
C737 C738 1.328 . S
C738 C709 1.427 . S
C738 H715 0.929 . S
C738 C737 1.328 . S
C739 O723 1.264 . S
C739 O724 1.243 . S
C740 C743 1.399 . S
C740 C744 1.383 . S
C740 C747 1.496 . S
C741 C742 1.399 . S
C741 C744 1.389 . S
C742 C741 1.399 . S
C742 C745 1.380 . S
C742 H752 0.929 . S
C743 C740 1.399 . S
C743 C745 1.392 . S
C743 H753 0.929 . S
C744 C740 1.383 . S
C744 C741 1.389 . S
C744 H754 0.931 . S
C745 C742 1.380 . S
C745 C743 1.392 . S
C745 H755 0.929 . S
C746 O726 1.266 . S
C746 O727 1.248 . S
C747 Tb683 2.802 . S
C747 O722 1.264 . S
C747 O725 1.256 . S
C747 C740 1.496 . S
H748 C731 0.929 . S
H749 C732 0.929 . S
H750 C733 0.929 . S
H751 C734 0.931 . S
H752 C742 0.929 . S
H753 C743 0.929 . S
H754 C744 0.931 . S
H755 C745 0.929 . S
Tb756 N785 2.617 1_656 S
Tb756 N791 2.572 . S
Tb756 O800 2.464 . S
Tb756 O801 2.387 1_655 S
Tb756 O803 2.428 1_556 S
Tb756 O804 2.308 . S
Tb756 O808 2.349 . S
Tb756 O811 2.393 1_656 S
Tb756 C820 2.802 1_556 S
C757 N758 1.379 . S
C757 C760 1.416 . S
C757 C764 1.424 . S
N758 C757 1.379 . S
N758 C761 1.334 . S
N758 Tb767 2.617 1_655 S
C759 C761 1.390 . S
C759 C762 1.339 . S
C759 H779 0.930 . S
C760 C757 1.416 . S
C760 C762 1.416 . S
C760 C766 1.448 . S
C761 N758 1.334 . S
C761 C759 1.390 . S
C761 H772 0.930 . S
C762 C759 1.339 . S
C762 C760 1.416 . S
C762 H783 0.930 . S
C763 C764 1.413 . S
C763 C765 1.427 . S
C763 C769 1.416 1_655 S
C764 C757 1.424 . S
C764 C763 1.413 . S
C764 N768 1.361 1_655 S
C765 C763 1.427 . S
C765 C766 1.328 . S
C765 H780 0.929 . S
C766 C760 1.448 . S
C766 C765 1.328 . S
C766 H781 0.930 . S
Tb767 N758 2.617 1_455 S
Tb767 N768 2.572 . S
Tb767 O802 2.349 . S
Tb767 O805 2.393 1_455 S
Tb767 O806 2.465 . S
Tb767 O807 2.387 1_455 S
Tb767 O809 2.428 . S
Tb767 O810 2.308 . S
Tb767 C831 2.802 . S
N768 C764 1.361 1_455 S
N768 Tb767 2.572 . S
N768 C770 1.340 . S
C769 C763 1.416 1_455 S
C769 C771 1.332 . S
C769 H777 0.931 . S
C770 N768 1.340 . S
C770 C771 1.407 . S
C770 H776 0.930 . S
C771 C769 1.332 . S
C771 C770 1.407 . S
C771 H773 0.929 . S
H772 C761 0.930 . S
H773 C771 0.929 . S
H774 C789 0.930 . S
H775 C796 0.929 . S
H776 C770 0.930 . S
H777 C769 0.931 . S
H778 C792 0.930 . S
H779 C759 0.930 . S
H780 C765 0.929 . S
H781 C766 0.930 . S
H782 C787 0.930 . S
H783 C762 0.930 . S
H784 C795 0.931 . S
N785 Tb756 2.617 1_454 S
N785 C786 1.379 1_554 S
N785 C789 1.334 . S
C786 N785 1.379 1_556 S
C786 C788 1.428 . S
C786 C794 1.424 . S
C787 H782 0.930 . S
C787 C789 1.390 . S
C787 C790 1.339 . S
C788 C786 1.428 . S
C788 C790 1.385 1_556 S
C788 C821 1.472 . S
C789 H774 0.930 . S
C789 N785 1.334 . S
C789 C787 1.390 . S
C790 C787 1.339 . S
C790 C788 1.385 1_554 S
C790 H797 0.930 . S
N791 Tb756 2.572 . S
N791 C792 1.340 . S
N791 C794 1.361 1_655 S
C792 H778 0.930 . S
C792 N791 1.340 . S
C792 C796 1.407 . S
C793 C794 1.413 . S
C793 C795 1.416 1_455 S
C793 C822 1.427 . S
C794 C786 1.424 . S
C794 N791 1.361 1_455 S
C794 C793 1.413 . S
C795 H784 0.931 . S
C795 C793 1.416 1_655 S
C795 C796 1.332 . S
C796 H775 0.929 . S
C796 C792 1.407 . S
C796 C795 1.332 . S
H797 C790 0.930 . S
H798 C821 0.930 . S
H799 C822 0.929 . S
O800 Tb756 2.464 . S
O800 C820 1.267 1_556 S
O801 Tb756 2.387 1_455 S
O801 C812 1.264 . S
O802 Tb767 2.349 . S
O802 C812 1.243 . S
O803 Tb756 2.428 1_554 S
O803 C820 1.256 . S
O804 Tb756 2.308 . S
O804 C819 1.266 . S
O805 Tb767 2.393 1_655 S
O805 C819 1.248 . S
O806 Tb767 2.465 . S
O806 C831 1.264 . S
O807 Tb767 2.387 1_655 S
O807 C823 1.264 . S
O808 Tb756 2.349 . S
O808 C823 1.243 . S
O809 Tb767 2.428 . S
O809 C831 1.256 . S
O810 Tb767 2.308 . S
O810 C830 1.266 . S
O811 Tb756 2.393 1_454 S
O811 C830 1.248 1_554 S
C812 O801 1.264 . S
C812 O802 1.243 . S
C813 C816 1.399 . S
C813 C818 1.383 . S
C813 C820 1.496 . S
C814 C815 1.399 . S
C814 C818 1.389 . S
C815 C814 1.399 . S
C815 C817 1.380 . S
C815 H832 0.929 . S
C816 C813 1.399 . S
C816 C817 1.392 . S
C816 H833 0.929 . S
C817 C815 1.380 . S
C817 C816 1.392 . S
C817 H834 0.929 . S
C818 C813 1.383 . S
C818 C814 1.389 . S
C818 H835 0.931 . S
C819 O804 1.266 . S
C819 O805 1.248 . S
C820 Tb756 2.802 1_554 S
C820 O800 1.267 1_554 S
C820 O803 1.256 . S
C820 C813 1.496 . S
C821 C788 1.472 . S
C821 H798 0.930 . S
C821 C822 1.328 . S
C822 C793 1.427 . S
C822 H799 0.929 . S
C822 C821 1.328 . S
C823 O807 1.264 . S
C823 O808 1.243 . S
C824 C827 1.399 . S
C824 C828 1.383 . S
C824 C831 1.496 . S
C825 C826 1.399 . S
C825 C828 1.389 . S
C826 C825 1.399 . S
C826 C829 1.380 . S
C826 H836 0.929 . S
C827 C824 1.399 . S
C827 C829 1.392 . S
C827 H837 0.929 . S
C828 C824 1.383 . S
C828 C825 1.389 . S
C828 H838 0.931 . S
C829 C826 1.380 . S
C829 C827 1.392 . S
C829 H839 0.929 . S
C830 O810 1.266 . S
C830 O811 1.248 1_556 S
C831 Tb767 2.802 . S
C831 O806 1.264 . S
C831 O809 1.256 . S
C831 C824 1.496 . S
H832 C815 0.929 . S
H833 C816 0.929 . S
H834 C817 0.929 . S
H835 C818 0.931 . S
H836 C826 0.929 . S
H837 C827 0.929 . S
H838 C828 0.931 . S
H839 C829 0.929 . S
Tb840 N869 2.617 1_565 S
Tb840 N875 2.572 . S
Tb840 O884 2.465 . S
Tb840 O885 2.387 1_565 S
Tb840 O887 2.428 . S
Tb840 O888 2.308 . S
Tb840 O892 2.349 . S
Tb840 O895 2.393 1_565 S
Tb840 C904 2.802 . S
C841 N842 1.379 . S
C841 C844 1.416 . S
C841 C848 1.424 . S
N842 C841 1.379 . S
N842 C845 1.334 . S
N842 Tb851 2.617 1_565 S
C843 C845 1.390 . S
C843 C846 1.339 . S
C843 H863 0.930 . S
C844 C841 1.416 . S
C844 C846 1.416 . S
C844 C850 1.448 . S
C845 N842 1.334 . S
C845 C843 1.390 . S
C845 H856 0.930 . S
C846 C843 1.339 . S
C846 C844 1.416 . S
C846 H867 0.930 . S
C847 C848 1.413 . S
C847 C849 1.427 . S
C847 C853 1.416 1_565 S
C848 C841 1.424 . S
C848 C847 1.413 . S
C848 N852 1.361 1_565 S
C849 C847 1.427 . S
C849 C850 1.328 . S
C849 H864 0.929 . S
C850 C844 1.448 . S
C850 C849 1.328 . S
C850 H865 0.930 . S
Tb851 N842 2.617 1_545 S
Tb851 N852 2.572 . S
Tb851 O886 2.349 . S
Tb851 O889 2.393 1_545 S
Tb851 O890 2.465 . S
Tb851 O891 2.387 1_545 S
Tb851 O893 2.428 . S
Tb851 O894 2.308 . S
Tb851 C915 2.802 . S
N852 C848 1.361 1_545 S
N852 Tb851 2.572 . S
N852 C854 1.340 . S
C853 C847 1.416 1_545 S
C853 C855 1.332 . S
C853 H861 0.931 . S
C854 N852 1.340 . S
C854 C855 1.407 . S
C854 H860 0.930 . S
C855 C853 1.332 . S
C855 C854 1.407 . S
C855 H857 0.929 . S
H856 C845 0.930 . S
H857 C855 0.929 . S
H858 C873 0.930 . S
H859 C880 0.929 . S
H860 C854 0.930 . S
H861 C853 0.931 . S
H862 C876 0.930 . S
H863 C843 0.930 . S
H864 C849 0.929 . S
H865 C850 0.930 . S
H866 C871 0.930 . S
H867 C846 0.930 . S
H868 C879 0.931 . S
N869 Tb840 2.617 1_545 S
N869 C870 1.379 . S
N869 C873 1.334 . S
C870 N869 1.379 . S
C870 C872 1.416 . S
C870 C878 1.424 . S
C871 H866 0.930 . S
C871 C873 1.390 . S
C871 C874 1.339 . S
C872 C870 1.416 . S
C872 C874 1.416 . S
C872 C905 1.448 . S
C873 H858 0.930 . S
C873 N869 1.334 . S
C873 C871 1.390 . S
C874 C871 1.339 . S
C874 C872 1.416 . S
C874 H881 0.930 . S
N875 Tb840 2.572 . S
N875 C876 1.340 . S
N875 C878 1.361 1_565 S
C876 H862 0.930 . S
C876 N875 1.340 . S
C876 C880 1.407 . S
C877 C878 1.413 . S
C877 C879 1.416 1_545 S
C877 C906 1.427 . S
C878 C870 1.424 . S
C878 N875 1.361 1_545 S
C878 C877 1.413 . S
C879 H868 0.931 . S
C879 C877 1.416 1_565 S
C879 C880 1.332 . S
C880 H859 0.929 . S
C880 C876 1.407 . S
C880 C879 1.332 . S
H881 C874 0.930 . S
H882 C905 0.930 . S
H883 C906 0.929 . S
O884 Tb840 2.465 . S
O884 C904 1.264 . S
O885 Tb840 2.387 1_545 S
O885 C896 1.264 . S
O886 Tb851 2.349 . S
O886 C896 1.243 . S
O887 Tb840 2.428 . S
O887 C904 1.256 . S
O888 Tb840 2.308 . S
O888 C903 1.266 . S
O889 Tb851 2.393 1_565 S
O889 C903 1.248 . S
O890 Tb851 2.465 . S
O890 C915 1.264 . S
O891 Tb851 2.387 1_565 S
O891 C907 1.264 . S
O892 Tb840 2.349 . S
O892 C907 1.243 . S
O893 Tb851 2.428 . S
O893 C915 1.256 . S
O894 Tb851 2.308 . S
O894 C914 1.266 . S
O895 Tb840 2.393 1_545 S
O895 C914 1.248 . S
C896 O885 1.264 . S
C896 O886 1.243 . S
C897 C900 1.399 . S
C897 C902 1.383 . S
C897 C904 1.496 . S
C898 C899 1.399 . S
C898 C902 1.389 . S
C899 C898 1.399 . S
C899 C901 1.380 . S
C899 H916 0.929 . S
C900 C897 1.399 . S
C900 C901 1.392 . S
C900 H917 0.929 . S
C901 C899 1.380 . S
C901 C900 1.392 . S
C901 H918 0.929 . S
C902 C897 1.383 . S
C902 C898 1.389 . S
C902 H919 0.931 . S
C903 O888 1.266 . S
C903 O889 1.248 . S
C904 Tb840 2.802 . S
C904 O884 1.264 . S
C904 O887 1.256 . S
C904 C897 1.496 . S
C905 C872 1.448 . S
C905 H882 0.930 . S
C905 C906 1.328 . S
C906 C877 1.427 . S
C906 H883 0.929 . S
C906 C905 1.328 . S
C907 O891 1.264 . S
C907 O892 1.243 . S
C908 C911 1.399 . S
C908 C912 1.383 . S
C908 C915 1.496 . S
C909 C910 1.399 . S
C909 C912 1.389 . S
C910 C909 1.399 . S
C910 C913 1.380 . S
C910 H920 0.929 . S
C911 C908 1.399 . S
C911 C913 1.392 . S
C911 H921 0.929 . S
C912 C908 1.383 . S
C912 C909 1.389 . S
C912 H922 0.931 . S
C913 C910 1.380 . S
C913 C911 1.392 . S
C913 H923 0.929 . S
C914 O894 1.266 . S
C914 O895 1.248 . S
C915 Tb851 2.802 . S
C915 O890 1.264 . S
C915 O893 1.256 . S
C915 C908 1.496 . S
H916 C899 0.929 . S
H917 C900 0.929 . S
H918 C901 0.929 . S
H919 C902 0.931 . S
H920 C910 0.929 . S
H921 C911 0.929 . S
H922 C912 0.931 . S
H923 C913 0.929 . S
Tb924 N953 2.617 . S
Tb924 N959 2.572 . S
Tb924 O968 2.465 . S
Tb924 O969 2.387 . S
Tb924 O971 2.428 . S
Tb924 O972 2.308 . S
Tb924 O976 2.349 . S
Tb924 O979 2.393 . S
Tb924 C988 2.802 . S
C925 N926 1.379 . S
C925 C928 1.416 . S
C925 C932 1.424 . S
N926 C925 1.379 . S
N926 C929 1.334 . S
N926 Tb935 2.617 . S
C927 C929 1.390 . S
C927 C930 1.339 . S
C927 H947 0.930 . S
C928 C925 1.416 . S
C928 C930 1.416 . S
C928 C934 1.448 . S
C929 N926 1.334 . S
C929 C927 1.390 . S
C929 H940 0.930 . S
C930 C927 1.339 . S
C930 C928 1.416 . S
C930 H951 0.930 . S
C931 C932 1.413 . S
C931 C933 1.427 . S
C931 C937 1.416 . S
C932 C925 1.424 . S
C932 C931 1.413 . S
C932 N936 1.361 . S
C933 C931 1.427 . S
C933 C934 1.328 . S
C933 H948 0.929 . S
C934 C928 1.448 . S
C934 C933 1.328 . S
C934 H949 0.930 . S
Tb935 N926 2.617 . S
Tb935 N936 2.572 . S
Tb935 O970 2.349 . S
Tb935 O973 2.393 . S
Tb935 O974 2.465 . S
Tb935 O975 2.387 . S
Tb935 O977 2.428 . S
Tb935 O978 2.308 . S
Tb935 C999 2.802 . S
N936 C932 1.361 . S
N936 Tb935 2.572 . S
N936 C938 1.340 . S
C937 C931 1.416 . S
C937 C939 1.332 . S
C937 H945 0.931 . S
C938 N936 1.340 . S
C938 C939 1.407 . S
C938 H944 0.930 . S
C939 C937 1.332 . S
C939 C938 1.407 . S
C939 H941 0.929 . S
H940 C929 0.930 . S
H941 C939 0.929 . S
H942 C957 0.930 . S
H943 C964 0.929 . S
H944 C938 0.930 . S
H945 C937 0.931 . S
H946 C960 0.930 . S
H947 C927 0.930 . S
H948 C933 0.929 . S
H949 C934 0.930 . S
H950 C955 0.930 . S
H951 C930 0.930 . S
H952 C963 0.931 . S
N953 Tb924 2.617 . S
N953 C954 1.379 . S
N953 C957 1.334 . S
C954 N953 1.379 . S
C954 C956 1.416 . S
C954 C962 1.424 . S
C955 H950 0.930 . S
C955 C957 1.390 . S
C955 C958 1.339 . S
C956 C954 1.416 . S
C956 C958 1.416 . S
C956 C989 1.448 . S
C957 H942 0.930 . S
C957 N953 1.334 . S
C957 C955 1.390 . S
C958 C955 1.339 . S
C958 C956 1.416 . S
C958 H965 0.930 . S
N959 Tb924 2.572 . S
N959 C960 1.340 . S
N959 C962 1.361 . S
C960 H946 0.930 . S
C960 N959 1.340 . S
C960 C964 1.407 . S
C961 C962 1.413 . S
C961 C963 1.416 . S
C961 C990 1.427 . S
C962 C954 1.424 . S
C962 N959 1.361 . S
C962 C961 1.413 . S
C963 H952 0.931 . S
C963 C961 1.416 . S
C963 C964 1.332 . S
C964 H943 0.929 . S
C964 C960 1.407 . S
C964 C963 1.332 . S
H965 C958 0.930 . S
H966 C989 0.930 . S
H967 C990 0.929 . S
O968 Tb924 2.465 . S
O968 C988 1.264 . S
O969 Tb924 2.387 . S
O969 C980 1.264 . S
O970 Tb935 2.349 . S
O970 C980 1.243 . S
O971 Tb924 2.428 . S
O971 C988 1.256 . S
O972 Tb924 2.308 . S
O972 C987 1.266 . S
O973 Tb935 2.393 . S
O973 C987 1.248 . S
O974 Tb935 2.465 . S
O974 C999 1.264 . S
O975 Tb935 2.387 . S
O975 C991 1.264 . S
O976 Tb924 2.349 . S
O976 C991 1.243 . S
O977 Tb935 2.428 . S
O977 C999 1.256 . S
O978 Tb935 2.308 . S
O978 C998 1.266 . S
O979 Tb924 2.393 . S
O979 C998 1.248 . S
C980 O969 1.264 . S
C980 O970 1.243 . S
C981 C984 1.399 . S
C981 C986 1.383 . S
C981 C988 1.496 . S
C982 C983 1.399 . S
C982 C986 1.389 . S
C983 C982 1.399 . S
C983 C985 1.380 . S
C983 H1000 0.929 . S
C984 C981 1.399 . S
C984 C985 1.392 . S
C984 H1001 0.929 . S
C985 C983 1.380 . S
C985 C984 1.392 . S
C985 H1002 0.929 . S
C986 C981 1.383 . S
C986 C982 1.389 . S
C986 H1003 0.931 . S
C987 O972 1.266 . S
C987 O973 1.248 . S
C988 Tb924 2.802 . S
C988 O968 1.264 . S
C988 O971 1.256 . S
C988 C981 1.496 . S
C989 C956 1.448 . S
C989 H966 0.930 . S
C989 C990 1.328 . S
C990 C961 1.427 . S
C990 H967 0.929 . S
C990 C989 1.328 . S
C991 O975 1.264 . S
C991 O976 1.243 . S
C992 C995 1.399 . S
C992 C996 1.383 . S
C992 C999 1.496 . S
C993 C994 1.399 . S
C993 C996 1.389 . S
C994 C993 1.399 . S
C994 C997 1.380 . S
C994 H1004 0.929 . S
C995 C992 1.399 . S
C995 C997 1.392 . S
C995 H1005 0.929 . S
C996 C992 1.383 . S
C996 C993 1.389 . S
C996 H1006 0.931 . S
C997 C994 1.380 . S
C997 C995 1.392 . S
C997 H1007 0.929 . S
C998 O978 1.266 . S
C998 O979 1.248 . S
C999 Tb935 2.802 . S
C999 O974 1.264 . S
C999 O977 1.256 . S
C999 C992 1.496 . S
H1000 C983 0.929 . S
H1001 C984 0.929 . S
H1002 C985 0.929 . S
H1003 C986 0.931 . S
H1004 C994 0.929 . S
H1005 C995 0.929 . S
H1006 C996 0.931 . S
H1007 C997 0.929 . S
C1008 C1009 1.369 . S
C1008 C1010 1.419 . S
C1008 H1012 0.930 . S
C1009 C1008 1.369 . S
C1009 C1018 1.429 . S
C1010 C1008 1.419 . S
C1010 C1011 1.363 . S
C1010 H1013 0.929 . S
C1011 C1010 1.363 . S
C1011 C1017 1.428 . S
H1012 C1008 0.930 . S
H1013 C1010 0.929 . S
S1014 N1015 1.613 . S
S1014 N1016 1.610 . S
N1015 S1014 1.613 . S
N1015 C1018 1.350 . S
N1016 S1014 1.610 . S
N1016 C1017 1.351 . S
C1017 C1011 1.428 . S
C1017 N1016 1.351 . S
C1017 C1018 1.434 . S
C1018 C1009 1.429 . S
C1018 N1015 1.350 . S
C1018 C1017 1.434 . S
C1019 C1020 1.369 . S
C1019 C1021 1.419 . S
C1019 H1023 0.930 . S
C1020 C1019 1.369 . S
C1020 C1029 1.429 . S
C1021 C1019 1.419 . S
C1021 C1022 1.363 . S
C1021 H1024 0.929 . S
C1022 C1021 1.363 . S
C1022 C1028 1.428 . S
H1023 C1019 0.930 . S
H1024 C1021 0.929 . S
S1025 N1026 1.613 . S
S1025 N1027 1.610 . S
N1026 S1025 1.613 . S
N1026 C1029 1.350 1_565 S
N1027 S1025 1.610 . S
N1027 C1028 1.351 1_565 S
C1028 C1022 1.428 . S
C1028 N1027 1.351 1_545 S
C1028 C1029 1.434 . S
C1029 C1020 1.429 . S
C1029 N1026 1.350 1_545 S
C1029 C1028 1.434 . S
C1030 C1031 1.369 . S
C1030 C1032 1.419 . S
C1030 H1034 0.930 . S
C1031 C1030 1.369 . S
C1031 C1040 1.429 . S
C1032 C1030 1.419 . S
C1032 C1033 1.363 . S
C1032 H1035 0.929 . S
C1033 C1032 1.363 . S
C1033 C1039 1.428 . S
H1034 C1030 0.930 . S
H1035 C1032 0.929 . S
S1036 N1037 1.613 . S
S1036 N1038 1.610 . S
N1037 S1036 1.613 . S
N1037 C1040 1.350 . S
N1038 S1036 1.610 . S
N1038 C1039 1.351 . S
C1039 C1033 1.428 . S
C1039 N1038 1.351 . S
C1039 C1040 1.434 . S
C1040 C1031 1.429 . S
C1040 N1037 1.350 . S
C1040 C1039 1.434 . S
C1041 C1042 1.369 . S
C1041 C1043 1.419 . S
C1041 H1045 0.930 . S
C1042 C1041 1.369 . S
C1042 C1051 1.429 . S
C1043 C1041 1.419 . S
C1043 C1044 1.363 . S
C1043 H1046 0.929 . S
C1044 C1043 1.363 . S
C1044 C1050 1.428 . S
H1045 C1041 0.930 . S
H1046 C1043 0.929 . S
S1047 N1048 1.613 . S
S1047 N1049 1.610 . S
N1048 S1047 1.613 . S
N1048 C1051 1.350 . S
N1049 S1047 1.610 . S
N1049 C1050 1.351 . S
C1050 C1044 1.428 . S
C1050 N1049 1.351 . S
C1050 C1051 1.434 . S
C1051 C1042 1.429 . S
C1051 N1048 1.350 . S
C1051 C1050 1.434 . S
C1052 C1053 1.369 . S
C1052 C1054 1.419 . S
C1052 H1056 0.930 . S
C1053 C1052 1.369 . S
C1053 C1062 1.429 . S
C1054 C1052 1.419 . S
C1054 C1055 1.363 . S
C1054 H1057 0.929 . S
C1055 C1054 1.363 . S
C1055 C1061 1.428 . S
H1056 C1052 0.930 . S
H1057 C1054 0.929 . S
S1058 N1059 1.613 . S
S1058 N1060 1.610 . S
N1059 S1058 1.613 . S
N1059 C1062 1.350 . S
N1060 S1058 1.610 . S
N1060 C1061 1.351 . S
C1061 C1055 1.428 . S
C1061 N1060 1.351 . S
C1061 C1062 1.434 . S
C1062 C1053 1.429 . S
C1062 N1059 1.350 . S
C1062 C1061 1.434 . S
C1063 C1064 1.369 . S
C1063 C1065 1.419 . S
C1063 H1067 0.930 . S
C1064 C1063 1.369 . S
C1064 C1073 1.429 . S
C1065 C1063 1.419 . S
C1065 C1066 1.363 . S
C1065 H1068 0.929 . S
C1066 C1065 1.363 . S
C1066 C1072 1.428 . S
H1067 C1063 0.930 . S
H1068 C1065 0.929 . S
S1069 N1070 1.613 . S
S1069 N1071 1.610 . S
N1070 S1069 1.613 . S
N1070 C1073 1.350 . S
N1071 S1069 1.610 . S
N1071 C1072 1.351 . S
C1072 C1066 1.428 . S
C1072 N1071 1.351 . S
C1072 C1073 1.434 . S
C1073 C1064 1.429 . S
C1073 N1070 1.350 . S
C1073 C1072 1.434 . S
C1074 C1075 1.369 . S
C1074 C1076 1.419 . S
C1074 H1078 0.930 . S
C1075 C1074 1.369 . S
C1075 C1084 1.429 . S
C1076 C1074 1.419 . S
C1076 C1077 1.363 . S
C1076 H1079 0.929 . S
C1077 C1076 1.363 . S
C1077 C1083 1.428 . S
H1078 C1074 0.930 . S
H1079 C1076 0.929 . S
S1080 N1081 1.613 . S
S1080 N1082 1.610 . S
N1081 S1080 1.613 . S
N1081 C1084 1.350 . S
N1082 S1080 1.610 . S
N1082 C1083 1.351 . S
C1083 C1077 1.428 . S
C1083 N1082 1.351 . S
C1083 C1084 1.434 . S
C1084 C1075 1.429 . S
C1084 N1081 1.350 . S
C1084 C1083 1.434 . S
C1085 C1086 1.369 . S
C1085 C1087 1.419 . S
C1085 H1089 0.930 . S
C1086 C1085 1.369 . S
C1086 C1095 1.429 . S
C1087 C1085 1.419 . S
C1087 C1088 1.363 . S
C1087 H1090 0.929 . S
C1088 C1087 1.363 . S
C1088 C1094 1.428 . S
H1089 C1085 0.930 . S
H1090 C1087 0.929 . S
S1091 N1092 1.613 . S
S1091 N1093 1.610 . S
N1092 S1091 1.613 . S
N1092 C1095 1.350 . S
N1093 S1091 1.610 . S
N1093 C1094 1.351 . S
C1094 C1088 1.428 . S
C1094 N1093 1.351 . S
C1094 C1095 1.434 . S
C1095 C1086 1.429 . S
C1095 N1092 1.350 . S
C1095 C1094 1.434 . S
C1096 C1097 1.369 . S
C1096 C1098 1.419 . S
C1096 H1100 0.930 . S
C1097 C1096 1.369 . S
C1097 C1106 1.429 . S
C1098 C1096 1.419 . S
C1098 C1099 1.363 . S
C1098 H1101 0.929 . S
C1099 C1098 1.363 . S
C1099 C1105 1.428 . S
H1100 C1096 0.930 . S
H1101 C1098 0.929 . S
S1102 N1103 1.613 . S
S1102 N1104 1.610 . S
N1103 S1102 1.613 . S
N1103 C1106 1.350 1_655 S
N1104 S1102 1.610 . S
N1104 C1105 1.351 1_655 S
C1105 C1099 1.428 . S
C1105 N1104 1.351 1_455 S
C1105 C1106 1.434 . S
C1106 C1097 1.429 . S
C1106 N1103 1.350 1_455 S
C1106 C1105 1.434 . S
C1107 C1108 1.369 . S
C1107 C1109 1.419 . S
C1107 H1111 0.930 . S
C1108 C1107 1.369 . S
C1108 C1117 1.429 . S
C1109 C1107 1.419 . S
C1109 C1110 1.363 . S
C1109 H1112 0.929 . S
C1110 C1109 1.363 . S
C1110 C1116 1.428 . S
H1111 C1107 0.930 . S
H1112 C1109 0.929 . S
S1113 N1114 1.613 . S
S1113 N1115 1.610 . S
N1114 S1113 1.613 . S
N1114 C1117 1.350 . S
N1115 S1113 1.610 . S
N1115 C1116 1.351 . S
C1116 C1110 1.428 . S
C1116 N1115 1.351 . S
C1116 C1117 1.434 . S
C1117 C1108 1.429 . S
C1117 N1114 1.350 . S
C1117 C1116 1.434 . S
C1118 C1119 1.369 . S
C1118 C1120 1.419 . S
C1118 H1122 0.930 . S
C1119 C1118 1.369 . S
C1119 C1128 1.429 . S
C1120 C1118 1.419 . S
C1120 C1121 1.363 . S
C1120 H1123 0.929 . S
C1121 C1120 1.363 . S
C1121 C1127 1.428 . S
H1122 C1118 0.930 . S
H1123 C1120 0.929 . S
S1124 N1125 1.613 . S
S1124 N1126 1.610 . S
N1125 S1124 1.613 . S
N1125 C1128 1.350 . S
N1126 S1124 1.610 . S
N1126 C1127 1.351 . S
C1127 C1121 1.428 . S
C1127 N1126 1.351 . S
C1127 C1128 1.434 . S
C1128 C1119 1.429 . S
C1128 N1125 1.350 . S
C1128 C1127 1.434 . S
C1129 C1130 1.369 . S
C1129 C1131 1.419 . S
C1129 H1133 0.930 1_655 S
C1130 C1129 1.369 . S
C1130 C1139 1.429 . S
C1131 C1129 1.419 . S
C1131 C1132 1.363 . S
C1131 H1134 0.929 1_655 S
C1132 C1131 1.363 . S
C1132 C1138 1.428 . S
H1133 C1129 0.930 1_455 S
H1134 C1131 0.929 1_455 S
S1135 N1136 1.613 . S
S1135 N1137 1.610 . S
N1136 S1135 1.613 . S
N1136 C1139 1.350 . S
N1137 S1135 1.610 . S
N1137 C1138 1.351 . S
C1138 C1132 1.428 . S
C1138 N1137 1.351 . S
C1138 C1139 1.434 . S
C1139 C1130 1.429 . S
C1139 N1136 1.350 . S
C1139 C1138 1.434 . S
C1140 C1141 1.369 . S
C1140 C1142 1.419 . S
C1140 H1144 0.930 . S
C1141 C1140 1.369 . S
C1141 C1150 1.429 . S
C1142 C1140 1.419 . S
C1142 C1143 1.363 . S
C1142 H1145 0.929 . S
C1143 C1142 1.363 . S
C1143 C1149 1.428 . S
H1144 C1140 0.930 . S
H1145 C1142 0.929 . S
S1146 N1147 1.613 . S
S1146 N1148 1.610 . S
N1147 S1146 1.613 . S
N1147 C1150 1.350 . S
N1148 S1146 1.610 . S
N1148 C1149 1.351 . S
C1149 C1143 1.428 . S
C1149 N1148 1.351 . S
C1149 C1150 1.434 . S
C1150 C1141 1.429 . S
C1150 N1147 1.350 . S
C1150 C1149 1.434 . S
C1151 C1152 1.369 . S
C1151 C1153 1.419 . S
C1151 H1155 0.930 . S
C1152 C1151 1.369 . S
C1152 C1161 1.429 . S
C1153 C1151 1.419 . S
C1153 C1154 1.363 . S
C1153 H1156 0.929 . S
C1154 C1153 1.363 . S
C1154 C1160 1.428 . S
H1155 C1151 0.930 . S
H1156 C1153 0.929 . S
S1157 N1158 1.613 . S
S1157 N1159 1.610 . S
N1158 S1157 1.613 . S
N1158 C1161 1.350 . S
N1159 S1157 1.610 . S
N1159 C1160 1.351 . S
C1160 C1154 1.428 . S
C1160 N1159 1.351 . S
C1160 C1161 1.434 . S
C1161 C1152 1.429 . S
C1161 N1158 1.350 . S
C1161 C1160 1.434 . S
C1162 C1163 1.369 . S
C1162 C1164 1.419 . S
C1162 H1166 0.930 . S
C1163 C1162 1.369 . S
C1163 C1172 1.429 . S
C1164 C1162 1.419 . S
C1164 C1165 1.363 . S
C1164 H1167 0.929 . S
C1165 C1164 1.363 . S
C1165 C1171 1.428 . S
H1166 C1162 0.930 . S
H1167 C1164 0.929 . S
S1168 N1169 1.613 . S
S1168 N1170 1.610 . S
N1169 S1168 1.613 . S
N1169 C1172 1.350 . S
N1170 S1168 1.610 . S
N1170 C1171 1.351 . S
C1171 C1165 1.428 . S
C1171 N1170 1.351 . S
C1171 C1172 1.434 . S
C1172 C1163 1.429 . S
C1172 N1169 1.350 . S
C1172 C1171 1.434 . S
C1173 C1174 1.369 . S
C1173 C1175 1.419 . S
C1173 H1177 0.930 . S
C1174 C1173 1.369 . S
C1174 C1183 1.429 . S
C1175 C1173 1.419 . S
C1175 C1176 1.363 . S
C1175 H1178 0.929 . S
C1176 C1175 1.363 . S
C1176 C1182 1.428 . S
H1177 C1173 0.930 . S
H1178 C1175 0.929 . S
S1179 N1180 1.613 . S
S1179 N1181 1.610 . S
N1180 S1179 1.613 . S
N1180 C1183 1.350 . S
N1181 S1179 1.610 . S
N1181 C1182 1.351 . S
C1182 C1176 1.428 . S
C1182 N1181 1.351 . S
C1182 C1183 1.434 . S
C1183 C1174 1.429 . S
C1183 N1180 1.350 . S
C1183 C1182 1.434 . S
C1184 C1185 1.369 . S
C1184 C1186 1.419 . S
C1184 H1188 0.930 . S
C1185 C1184 1.369 . S
C1185 C1194 1.429 . S
C1186 C1184 1.419 . S
C1186 C1187 1.363 . S
C1186 H1189 0.929 . S
C1187 C1186 1.363 . S
C1187 C1193 1.428 . S
H1188 C1184 0.930 . S
H1189 C1186 0.929 . S
S1190 N1191 1.613 . S
S1190 N1192 1.610 . S
N1191 S1190 1.613 . S
N1191 C1194 1.350 . S
N1192 S1190 1.610 . S
N1192 C1193 1.351 . S
C1193 C1187 1.428 . S
C1193 N1192 1.351 . S
C1193 C1194 1.434 . S
C1194 C1185 1.429 . S
C1194 N1191 1.350 . S
C1194 C1193 1.434 . S
C1195 C1196 1.369 . S
C1195 C1197 1.419 . S
C1195 H1199 0.930 . S
C1196 C1195 1.369 . S
C1196 C1205 1.429 . S
C1197 C1195 1.419 . S
C1197 C1198 1.363 . S
C1197 H1200 0.929 . S
C1198 C1197 1.363 . S
C1198 C1204 1.428 . S
H1199 C1195 0.930 . S
H1200 C1197 0.929 . S
S1201 N1202 1.613 . S
S1201 N1203 1.610 . S
N1202 S1201 1.613 . S
N1202 C1205 1.350 . S
N1203 S1201 1.610 . S
N1203 C1204 1.351 . S
C1204 C1198 1.428 . S
C1204 N1203 1.351 . S
C1204 C1205 1.434 . S
C1205 C1196 1.429 . S
C1205 N1202 1.350 . S
C1205 C1204 1.434 . S
C1206 C1207 1.369 . S
C1206 C1208 1.419 . S
C1206 H1210 0.930 . S
C1207 C1206 1.369 . S
C1207 C1216 1.429 . S
C1208 C1206 1.419 . S
C1208 C1209 1.363 . S
C1208 H1211 0.929 . S
C1209 C1208 1.363 . S
C1209 C1215 1.428 . S
H1210 C1206 0.930 . S
H1211 C1208 0.929 . S
S1212 N1213 1.613 . S
S1212 N1214 1.610 . S
N1213 S1212 1.613 . S
N1213 C1216 1.350 . S
N1214 S1212 1.610 . S
N1214 C1215 1.351 . S
C1215 C1209 1.428 . S
C1215 N1214 1.351 . S
C1215 C1216 1.434 . S
C1216 C1207 1.429 . S
C1216 N1213 1.350 . S
C1216 C1215 1.434 . S
C1217 C1218 1.369 . S
C1217 C1219 1.419 . S
C1217 H1221 0.930 . S
C1218 C1217 1.369 . S
C1218 C1227 1.429 . S
C1219 C1217 1.419 . S
C1219 C1220 1.363 . S
C1219 H1222 0.929 . S
C1220 C1219 1.363 . S
C1220 C1226 1.428 . S
H1221 C1217 0.930 . S
H1222 C1219 0.929 . S
S1223 N1224 1.613 . S
S1223 N1225 1.610 . S
N1224 S1223 1.613 . S
N1224 C1227 1.350 . S
N1225 S1223 1.610 . S
N1225 C1226 1.351 . S
C1226 C1220 1.428 . S
C1226 N1225 1.351 . S
C1226 C1227 1.434 . S
C1227 C1218 1.429 . S
C1227 N1224 1.350 . S
C1227 C1226 1.434 . S
C1228 C1229 1.369 . S
C1228 C1230 1.419 . S
C1228 H1232 0.930 . S
C1229 C1228 1.369 . S
C1229 C1238 1.429 . S
C1230 C1228 1.419 . S
C1230 C1231 1.363 . S
C1230 H1233 0.929 . S
C1231 C1230 1.363 . S
C1231 C1237 1.428 . S
H1232 C1228 0.930 . S
H1233 C1230 0.929 . S
S1234 N1235 1.613 . S
S1234 N1236 1.610 . S
N1235 S1234 1.613 . S
N1235 C1238 1.350 . S
N1236 S1234 1.610 . S
N1236 C1237 1.351 . S
C1237 C1231 1.428 . S
C1237 N1236 1.351 . S
C1237 C1238 1.434 . S
C1238 C1229 1.429 . S
C1238 N1235 1.350 . S
C1238 C1237 1.434 . S
C1239 C1240 1.369 . S
C1239 C1241 1.419 . S
C1239 H1243 0.930 . S
C1240 C1239 1.369 . S
C1240 C1249 1.429 1_554 S
C1241 C1239 1.419 . S
C1241 C1242 1.363 . S
C1241 H1244 0.929 . S
C1242 C1241 1.363 . S
C1242 C1248 1.428 1_554 S
H1243 C1239 0.930 . S
H1244 C1241 0.929 . S
S1245 N1246 1.613 . S
S1245 N1247 1.610 . S
N1246 S1245 1.613 . S
N1246 C1249 1.350 . S
N1247 S1245 1.610 . S
N1247 C1248 1.351 . S
C1248 C1242 1.428 1_556 S
C1248 N1247 1.351 . S
C1248 C1249 1.434 . S
C1249 C1240 1.429 1_556 S
C1249 N1246 1.350 . S
C1249 C1248 1.434 . S
C1250 C1251 1.369 . S
C1250 C1252 1.419 . S
C1250 H1254 0.930 . S
C1251 C1250 1.369 . S
C1251 C1260 1.429 . S
C1252 C1250 1.419 . S
C1252 C1253 1.363 . S
C1252 H1255 0.929 . S
C1253 C1252 1.363 . S
C1253 C1259 1.428 . S
H1254 C1250 0.930 . S
H1255 C1252 0.929 . S
S1256 N1257 1.613 . S
S1256 N1258 1.610 . S
N1257 S1256 1.613 . S
N1257 C1260 1.350 . S
N1258 S1256 1.610 . S
N1258 C1259 1.351 . S
C1259 C1253 1.428 . S
C1259 N1258 1.351 . S
C1259 C1260 1.434 . S
C1260 C1251 1.429 . S
C1260 N1257 1.350 . S
C1260 C1259 1.434 . S
C1261 C1262 1.369 . S
C1261 C1263 1.419 . S
C1261 H1265 0.930 . S
C1262 C1261 1.369 . S
C1262 C1271 1.429 . S
C1263 C1261 1.419 . S
C1263 C1264 1.363 . S
C1263 H1266 0.929 . S
C1264 C1263 1.363 . S
C1264 C1270 1.428 . S
H1265 C1261 0.930 . S
H1266 C1263 0.929 . S
S1267 N1268 1.613 . S
S1267 N1269 1.610 . S
N1268 S1267 1.613 . S
N1268 C1271 1.350 . S
N1269 S1267 1.610 . S
N1269 C1270 1.351 . S
C1270 C1264 1.428 . S
C1270 N1269 1.351 . S
C1270 C1271 1.434 . S
C1271 C1262 1.429 . S
C1271 N1268 1.350 . S
C1271 C1270 1.434 . S
C1272 C1273 1.369 . S
C1272 C1274 1.419 . S
C1272 H1276 0.930 . S
C1273 C1272 1.369 . S
C1273 C1282 1.429 . S
C1274 C1272 1.419 . S
C1274 C1275 1.363 . S
C1274 H1277 0.929 . S
C1275 C1274 1.363 . S
C1275 C1281 1.428 . S
H1276 C1272 0.930 . S
H1277 C1274 0.929 . S
S1278 N1279 1.613 . S
S1278 N1280 1.610 . S
N1279 S1278 1.613 . S
N1279 C1282 1.350 . S
N1280 S1278 1.610 . S
N1280 C1281 1.351 . S
C1281 C1275 1.428 . S
C1281 N1280 1.351 . S
C1281 C1282 1.434 . S
C1282 C1273 1.429 . S
C1282 N1279 1.350 . S
C1282 C1281 1.434 . S
C1283 C1284 1.369 . S
C1283 C1285 1.419 . S
C1283 H1287 0.930 . S
C1284 C1283 1.369 . S
C1284 C1293 1.429 . S
C1285 C1283 1.419 . S
C1285 C1286 1.363 . S
C1285 H1288 0.929 . S
C1286 C1285 1.363 . S
C1286 C1292 1.428 . S
H1287 C1283 0.930 . S
H1288 C1285 0.929 . S
S1289 N1290 1.613 . S
S1289 N1291 1.610 . S
N1290 S1289 1.613 . S
N1290 C1293 1.350 . S
N1291 S1289 1.610 . S
N1291 C1292 1.351 . S
C1292 C1286 1.428 . S
C1292 N1291 1.351 . S
C1292 C1293 1.434 . S
C1293 C1284 1.429 . S
C1293 N1290 1.350 . S
C1293 C1292 1.434 . S
C1294 C1295 1.369 . S
C1294 C1296 1.419 . S
C1294 H1298 0.930 . S
C1295 C1294 1.369 . S
C1295 C1304 1.429 . S
C1296 C1294 1.419 . S
C1296 C1297 1.363 . S
C1296 H1299 0.929 . S
C1297 C1296 1.363 . S
C1297 C1303 1.428 . S
H1298 C1294 0.930 . S
H1299 C1296 0.929 . S
S1300 N1301 1.613 . S
S1300 N1302 1.610 . S
N1301 S1300 1.613 . S
N1301 C1304 1.350 . S
N1302 S1300 1.610 . S
N1302 C1303 1.351 . S
C1303 C1297 1.428 . S
C1303 N1302 1.351 . S
C1303 C1304 1.434 . S
C1304 C1295 1.429 . S
C1304 N1301 1.350 . S
C1304 C1303 1.434 . S
C1305 C1306 1.369 . S
C1305 C1307 1.419 . S
C1305 H1309 0.930 . S
C1306 C1305 1.369 . S
C1306 C1315 1.429 . S
C1307 C1305 1.419 . S
C1307 C1308 1.363 . S
C1307 H1310 0.929 . S
C1308 C1307 1.363 . S
C1308 C1314 1.428 . S
H1309 C1305 0.930 . S
H1310 C1307 0.929 . S
S1311 N1312 1.613 . S
S1311 N1313 1.610 . S
N1312 S1311 1.613 . S
N1312 C1315 1.350 . S
N1313 S1311 1.610 . S
N1313 C1314 1.351 . S
C1314 C1308 1.428 . S
C1314 N1313 1.351 . S
C1314 C1315 1.434 . S
C1315 C1306 1.429 . S
C1315 N1312 1.350 . S
C1315 C1314 1.434 . S
C1316 C1317 1.369 . S
C1316 C1318 1.419 . S
C1316 H1320 0.930 . S
C1317 C1316 1.369 . S
C1317 C1326 1.429 . S
C1318 C1316 1.419 . S
C1318 C1319 1.363 . S
C1318 H1321 0.929 . S
C1319 C1318 1.363 . S
C1319 C1325 1.428 . S
H1320 C1316 0.930 . S
H1321 C1318 0.929 . S
S1322 N1323 1.613 . S
S1322 N1324 1.610 . S
N1323 S1322 1.613 . S
N1323 C1326 1.350 . S
N1324 S1322 1.610 . S
N1324 C1325 1.351 . S
C1325 C1319 1.428 . S
C1325 N1324 1.351 . S
C1325 C1326 1.434 . S
C1326 C1317 1.429 . S
C1326 N1323 1.350 . S
C1326 C1325 1.434 . S
C1327 C1328 1.369 . S
C1327 C1329 1.419 . S
C1327 H1331 0.930 . S
C1328 C1327 1.369 . S
C1328 C1337 1.429 . S
C1329 C1327 1.419 . S
C1329 C1330 1.363 . S
C1329 H1332 0.929 . S
C1330 C1329 1.363 . S
C1330 C1336 1.428 . S
H1331 C1327 0.930 . S
H1332 C1329 0.929 . S
S1333 N1334 1.613 . S
S1333 N1335 1.610 . S
N1334 S1333 1.613 . S
N1334 C1337 1.350 . S
N1335 S1333 1.610 . S
N1335 C1336 1.351 . S
C1336 C1330 1.428 . S
C1336 N1335 1.351 . S
C1336 C1337 1.434 . S
C1337 C1328 1.429 . S
C1337 N1334 1.350 . S
C1337 C1336 1.434 . S
C1338 C1339 1.369 . S
C1338 C1340 1.419 . S
C1338 H1342 0.930 . S
C1339 C1338 1.369 . S
C1339 C1348 1.429 . S
C1340 C1338 1.419 . S
C1340 C1341 1.363 . S
C1340 H1343 0.929 . S
C1341 C1340 1.363 . S
C1341 C1347 1.428 . S
H1342 C1338 0.930 . S
H1343 C1340 0.929 . S
S1344 N1345 1.613 . S
S1344 N1346 1.610 . S
N1345 S1344 1.613 . S
N1345 C1348 1.350 . S
N1346 S1344 1.610 . S
N1346 C1347 1.351 . S
C1347 C1341 1.428 . S
C1347 N1346 1.351 . S
C1347 C1348 1.434 . S
C1348 C1339 1.429 . S
C1348 N1345 1.350 . S
C1348 C1347 1.434 . S
C1349 C1350 1.369 . S
C1349 C1351 1.419 . S
C1349 H1353 0.930 . S
C1350 C1349 1.369 . S
C1350 C1359 1.429 . S
C1351 C1349 1.419 . S
C1351 C1352 1.363 . S
C1351 H1354 0.929 . S
C1352 C1351 1.363 . S
C1352 C1358 1.428 . S
H1353 C1349 0.930 . S
H1354 C1351 0.929 . S
S1355 N1356 1.613 . S
S1355 N1357 1.610 . S
N1356 S1355 1.613 . S
N1356 C1359 1.350 . S
N1357 S1355 1.610 . S
N1357 C1358 1.351 . S
C1358 C1352 1.428 . S
C1358 N1357 1.351 . S
C1358 C1359 1.434 . S
C1359 C1350 1.429 . S
C1359 N1356 1.350 . S
C1359 C1358 1.434 . S
C1360 C1361 1.369 . S
C1360 C1362 1.419 . S
C1360 H1364 0.930 . S
C1361 C1360 1.369 . S
C1361 C1370 1.429 . S
C1362 C1360 1.419 . S
C1362 C1363 1.363 . S
C1362 H1365 0.929 . S
C1363 C1362 1.363 . S
C1363 C1369 1.428 . S
H1364 C1360 0.930 . S
H1365 C1362 0.929 . S
S1366 N1367 1.613 . S
S1366 N1368 1.610 . S
N1367 S1366 1.613 . S
N1367 C1370 1.350 . S
N1368 S1366 1.610 . S
N1368 C1369 1.351 . S
C1369 C1363 1.428 . S
C1369 N1368 1.351 . S
C1369 C1370 1.434 . S
C1370 C1361 1.429 . S
C1370 N1367 1.350 . S
C1370 C1369 1.434 . S
C1371 C1372 1.369 . S
C1371 C1373 1.419 . S
C1371 H1375 0.930 . S
C1372 C1371 1.369 . S
C1372 C1381 1.429 . S
C1373 C1371 1.419 . S
C1373 C1374 1.363 . S
C1373 H1376 0.929 . S
C1374 C1373 1.363 . S
C1374 C1380 1.428 . S
H1375 C1371 0.930 . S
H1376 C1373 0.929 . S
S1377 N1378 1.613 . S
S1377 N1379 1.610 . S
N1378 S1377 1.613 . S
N1378 C1381 1.350 . S
N1379 S1377 1.610 . S
N1379 C1380 1.351 . S
C1380 C1374 1.428 . S
C1380 N1379 1.351 . S
C1380 C1381 1.434 . S
C1381 C1372 1.429 . S
C1381 N1378 1.350 . S
C1381 C1380 1.434 . S
C1382 C1383 1.369 . S
C1382 C1384 1.419 . S
C1382 H1386 0.930 . S
C1383 C1382 1.369 . S
C1383 C1392 1.429 . S
C1384 C1382 1.419 . S
C1384 C1385 1.363 . S
C1384 H1387 0.929 . S
C1385 C1384 1.363 . S
C1385 C1391 1.428 . S
H1386 C1382 0.930 . S
H1387 C1384 0.929 . S
S1388 N1389 1.613 . S
S1388 N1390 1.610 . S
N1389 S1388 1.613 . S
N1389 C1392 1.350 . S
N1390 S1388 1.610 . S
N1390 C1391 1.351 . S
C1391 C1385 1.428 . S
C1391 N1390 1.351 . S
C1391 C1392 1.434 . S
C1392 C1383 1.429 . S
C1392 N1389 1.350 . S
C1392 C1391 1.434 . S
C1393 C1394 1.369 . S
C1393 C1395 1.419 . S
C1393 H1397 0.930 . S
C1394 C1393 1.369 . S
C1394 C1403 1.429 . S
C1395 C1393 1.419 . S
C1395 C1396 1.363 . S
C1395 H1398 0.929 . S
C1396 C1395 1.363 . S
C1396 C1402 1.428 . S
H1397 C1393 0.930 . S
H1398 C1395 0.929 . S
S1399 N1400 1.613 . S
S1399 N1401 1.610 . S
N1400 S1399 1.613 . S
N1400 C1403 1.350 . S
N1401 S1399 1.610 . S
N1401 C1402 1.351 . S
C1402 C1396 1.428 . S
C1402 N1401 1.351 . S
C1402 C1403 1.434 . S
C1403 C1394 1.429 . S
C1403 N1400 1.350 . S
C1403 C1402 1.434 . S
C1009 C476 1.733 . S
C1011 C58 1.247 . S
C1020 C142 1.426 . S
C1022 C56 2.028 . S
C1031 C226 1.365 . S
C1033 C140 1.863 . S
C1042 C224 1.732 . S
C1044 C310 1.246 . S
C1053 C308 2.026 . S
C1055 C394 1.424 . S
C1064 C478 1.371 . S
C1066 C392 1.857 . S
C1075 C644 1.733 . S
C1077 C562 1.246 . S
C1086 C646 1.369 . S
C1088 C728 1.862 . S
C1097 C812 2.033 . S
C1099 C730 1.418 . S
C1108 C896 1.729 . S
C1110 C814 1.248 . S
C1119 C980 1.854 . S
C1121 C898 1.379 . S
C1130 C560 2.032 . S
C1132 C982 1.415 . S
C1141 C998 3.686 . S
C1143 C67 3.600 . S
C1152 C151 3.012 . S
C1154 C578 3.093 . S
C1163 C662 3.415 . S
C1165 C235 3.312 . S
C1174 C746 3.684 . S
C1176 C319 3.601 . S
C1185 C830 3.098 . S
C1187 C403 3.010 1_556 S
C1196 C487 3.314 . S
C1198 C914 3.413 . S
C1207 C571 3.598 . S
C1209 C158 3.687 . S
C1218 C655 3.317 . S
C1220 C242 3.410 . S
C1229 C326 3.095 . S
C1231 C739 3.012 . S
C1240 C410 3.684 . S
C1242 C823 3.599 1_554 S
C1251 C907 3.312 . S
C1253 C494 3.412 . S
C1262 C991 3.012 . S
C1264 C74 3.096 . S
C1273 C567 2.813 . S
C1275 C63 2.816 . S
C1284 C147 1.935 . S
C1286 C651 1.973 . S
C1295 C735 1.942 . S
C1297 C231 1.971 . S
C1306 C315 2.810 . S
C1308 C819 2.816 . S
C1317 C903 1.972 . S
C1319 C399 1.938 . S
C1328 C987 1.943 . S
C1330 C483 1.970 . S
C1339 C573 0.525 . S
C1341 C69 0.531 . S
C1350 C657 0.516 . S
C1352 C153 0.519 . S
C1361 C741 0.507 . S
C1363 C237 0.524 . S
C1372 C321 0.524 . S
C1374 C825 0.511 . S
C1383 C909 0.520 . S
C1385 C405 0.509 . S
C1394 C993 0.527 . S
C1396 C489 0.531 . S
