# Generated by pormake.
# Topology umx, (4)-cn, num edge types: 1
# Building blocks:
#     Node 0, Type 0, BuildingBlock: QUQFOY_clean_sbu_1, # of connection points: 4
#     Node 1, Type 0, BuildingBlock: QUQFOY_clean_sbu_1, # of connection points: 4
#     Node 2, Type 0, BuildingBlock: QUQFOY_clean_sbu_1, # of connection points: 4
#     Node 3, Type 0, BuildingBlock: QUQFOY_clean_sbu_1, # of connection points: 4
#     Node 4, Type 0, BuildingBlock: QUQFOY_clean_sbu_1, # of connection points: 4
#     Node 5, Type 0, BuildingBlock: QUQFOY_clean_sbu_1, # of connection points: 4
#     Node 6, Type 0, BuildingBlock: QUQFOY_clean_sbu_1, # of connection points: 4
#     Node 7, Type 0, BuildingBlock: QUQFOY_clean_sbu_1, # of connection points: 4
#     Edge 8, Type (0, 0), BuildingBlock: MIFKUJ_clean_linker_0, # of connection points: 2
#     Edge 9, Type (0, 0), BuildingBlock: MIFKUJ_clean_linker_0, # of connection points: 2
#     Edge 10, Type (0, 0), BuildingBlock: MIFKUJ_clean_linker_0, # of connection points: 2
#     Edge 11, Type (0, 0), BuildingBlock: MIFKUJ_clean_linker_0, # of connection points: 2
#     Edge 12, Type (0, 0), BuildingBlock: MIFKUJ_clean_linker_0, # of connection points: 2
#     Edge 13, Type (0, 0), BuildingBlock: MIFKUJ_clean_linker_0, # of connection points: 2
#     Edge 14, Type (0, 0), BuildingBlock: MIFKUJ_clean_linker_0, # of connection points: 2
#     Edge 15, Type (0, 0), BuildingBlock: MIFKUJ_clean_linker_0, # of connection points: 2
#     Edge 16, Type (0, 0), BuildingBlock: MIFKUJ_clean_linker_0, # of connection points: 2
#     Edge 17, Type (0, 0), BuildingBlock: MIFKUJ_clean_linker_0, # of connection points: 2
#     Edge 18, Type (0, 0), BuildingBlock: MIFKUJ_clean_linker_0, # of connection points: 2
#     Edge 19, Type (0, 0), BuildingBlock: MIFKUJ_clean_linker_0, # of connection points: 2
#     Edge 20, Type (0, 0), BuildingBlock: MIFKUJ_clean_linker_0, # of connection points: 2
#     Edge 21, Type (0, 0), BuildingBlock: MIFKUJ_clean_linker_0, # of connection points: 2
#     Edge 22, Type (0, 0), BuildingBlock: MIFKUJ_clean_linker_0, # of connection points: 2
#     Edge 23, Type (0, 0), BuildingBlock: MIFKUJ_clean_linker_0, # of connection points: 2
# Relax obj value: 0.063
# Max RMSD: 0.141
# Mean RMSD: 0.141
data_MOF--net-umx--node1-QUQFOY_clean_sbu_1--edge1-MIFKUJ_clean_linker_0
_symmetry_space_group_name_H-M    P1
_symmetry_Int_Tables_number       1
_symmetry_cell_setting            triclinic
loop_
_symmetry_equiv_pos_as_xyz
'x, y, z'
_cell_length_a     52.510738
_cell_length_b     52.419074
_cell_length_c     37.543271
_cell_angle_alpha  90.091776
_cell_angle_beta   90.190569
_cell_angle_gamma 89.941194
loop_
_atom_site_label
_atom_site_type_symbol
_atom_site_fract_x
_atom_site_fract_y
_atom_site_fract_z
_atom_type_partial_charge
O0 O 0.19078 0.44656 0.08498 0.0
Cd1 Cd 0.1778 0.43164 0.03747 0.0
Cd2 Cd 0.19069 0.47841 0.01536 0.0
O3 O 0.2083 0.48188 0.06471 0.0
O4 O 0.18091 0.39378 0.04355 0.0
O5 O 0.20416 0.41588 1.00554 0.0
C6 C 0.19929 0.39437 0.02081 0.0
C7 C 0.21013 0.4856 0.96036 0.0
C8 C 0.20383 0.46663 0.0903 0.0
C9 C 0.13478 0.46534 0.01591 0.0
O10 O 0.15172 0.48264 0.01472 0.0
O11 O 0.14116 0.44222 0.0216 0.0
O12 O 0.20421 0.50432 0.98116 0.0
O13 O 0.20646 0.4627 0.97189 0.0
O14 O 0.56593 0.19249 0.58101 0.0
Cd15 Cd 0.58106 0.18068 0.53319 0.0
Cd16 Cd 0.53437 0.19366 0.51076 0.0
O17 O 0.53058 0.21016 0.5608 0.0
O18 O 0.61888 0.18337 0.53943 0.0
O19 O 0.59673 0.20799 0.50291 0.0
C20 C 0.61827 0.20246 0.51775 0.0
C21 C 0.5275 0.21406 0.45629 0.0
C22 C 0.54571 0.20526 0.58648 0.0
C23 C 0.54788 0.13786 0.50926 0.0
O24 O 0.5304 0.15464 0.50841 0.0
O25 O 0.57083 0.14435 0.51572 0.0
O26 O 0.5087 0.2079 0.47661 0.0
O27 O 0.55031 0.21016 0.46812 0.0
O28 O 0.81557 0.56119 0.079 0.0
Cd29 Cd 0.82862 0.57798 0.0329 0.0
Cd30 Cd 0.81633 0.53202 1.007 0.0
O31 O 0.79871 0.52641 0.05563 0.0
O32 O 0.82513 0.61561 0.04116 0.0
O33 O 0.80218 0.59433 1.00158 0.0
C34 C 0.80684 0.61547 0.01808 0.0
C35 C 0.79722 0.52609 0.95131 0.0
C36 C 0.80287 0.5407 0.08246 0.0
C37 C 0.8721 0.54553 0.01013 0.0
O38 O 0.8553 0.52821 1.0071 0.0
O39 O 0.86551 0.56839 0.01722 0.0
O40 O 0.80365 0.5069 0.97089 0.0
O41 O 0.80022 0.54869 0.96442 0.0
O42 O 0.44602 0.82575 0.58184 0.0
Cd43 Cd 0.42995 0.83589 0.53385 0.0
Cd44 Cd 0.47458 0.81949 0.51152 0.0
O45 O 0.47623 0.8009 0.56042 0.0
O46 O 0.39211 0.83365 0.54057 0.0
O47 O 0.41391 0.80763 0.50565 0.0
C48 C 0.39251 0.81378 0.52018 0.0
C49 C 0.47968 0.80067 0.45551 0.0
C50 C 0.46367 0.80952 0.58679 0.0
C51 C 0.46499 0.87606 0.51031 0.0
O52 O 0.48146 0.85829 0.51213 0.0
O53 O 0.44141 0.8709 0.51363 0.0
O54 O 0.49899 0.80438 0.47628 0.0
O55 O 0.45734 0.80609 0.46765 0.0
O56 O 0.19793 0.56055 0.45699 0.0
Cd57 Cd 0.18323 0.57786 0.50187 0.0
Cd58 Cd 0.19496 0.53206 0.52893 0.0
O59 O 0.21353 0.52554 0.48125 0.0
O60 O 0.18575 0.61511 0.4909 0.0
O61 O 0.20765 0.59652 0.53409 0.0
C62 C 0.2029 0.61671 0.51549 0.0
C63 C 0.21305 0.5268 0.58539 0.0
C64 C 0.21035 0.53982 0.45421 0.0
C65 C 0.13928 0.54554 0.52296 0.0
O66 O 0.15601 0.52828 0.5273 0.0
O67 O 0.14599 0.56828 0.51555 0.0
O68 O 0.20694 0.5074 0.56594 0.0
O69 O 0.21028 0.54927 0.57179 0.0
O70 O 0.45093 0.19408 0.95395 0.0
Cd71 Cd 0.43309 0.18081 0.99914 0.0
Cd72 Cd 0.47911 0.19152 0.02721 0.0
O73 O 0.48663 0.20806 0.97822 0.0
O74 O 0.39591 0.1844 0.98828 0.0
O75 O 0.41553 0.20683 0.03004 0.0
C76 C 0.39507 0.2023 0.01189 0.0
C77 C 0.48511 0.21157 0.08226 0.0
C78 C 0.47229 0.20527 0.95108 0.0
C79 C 0.46352 0.13615 0.02437 0.0
O80 O 0.48119 0.15236 0.02914 0.0
O81 O 0.44144 0.1435 0.01456 0.0
O82 O 0.5042 0.20383 0.06353 0.0
O83 O 0.46259 0.20933 0.06861 0.0
O84 O 0.82051 0.44755 0.4514 0.0
Cd85 Cd 0.83369 0.43255 0.49868 0.0
Cd86 Cd 0.82071 0.4792 0.52176 0.0
O87 O 0.80335 0.48297 0.47233 0.0
O88 O 0.83106 0.39464 0.49273 0.0
O89 O 0.80722 0.41675 0.53017 0.0
C90 C 0.81246 0.3952 0.51514 0.0
C91 C 0.80084 0.4858 0.57662 0.0
C92 C 0.8076 0.46779 0.44651 0.0
C93 C 0.87659 0.46625 0.52102 0.0
O94 O 0.85963 0.48353 0.52283 0.0
O95 O 0.87025 0.44322 0.51461 0.0
O96 O 0.80675 0.50473 0.55631 0.0
O97 O 0.80483 0.46302 0.5647 0.0
O98 O 0.55873 0.81764 0.95425 0.0
Cd99 Cd 0.57471 0.83007 1.00146 0.0
Cd100 Cd 0.52934 0.81603 0.02405 0.0
O101 O 0.52586 0.79685 0.97598 0.0
O102 O 0.61222 0.82796 0.99271 0.0
O103 O 0.59226 0.80384 0.032 0.0
C104 C 0.61298 0.80941 0.01526 0.0
C105 C 0.52275 0.79827 0.08025 0.0
C106 C 0.53971 0.80301 0.94961 0.0
C107 C 0.54069 0.8723 0.02213 0.0
O108 O 0.5238 0.85494 0.02216 0.0
O109 O 0.56407 0.8664 0.01833 0.0
O110 O 0.50391 0.80327 0.0592 0.0
O111 O 0.54553 0.80182 0.06835 0.0
H112 H 0.21996 0.51268 0.1171 0.0
H113 H 0.22821 0.52336 0.17958 0.0
H114 H 0.21503 0.44495 0.20906 0.0
H115 H 0.20613 0.43435 0.14702 0.0
H116 H 0.18868 0.47436 0.25013 0.0
H117 H 0.27539 0.47311 0.21258 0.0
H118 H 0.31236 0.48405 0.17532 0.0
H119 H 0.30394 0.56306 0.20328 0.0
H120 H 0.26667 0.55264 0.24034 0.0
H121 H 0.2209 0.49124 0.4316 0.0
H122 H 0.22724 0.47708 0.36999 0.0
H123 H 0.22474 0.5552 0.33438 0.0
H124 H 0.21815 0.56949 0.39569 0.0
H125 H 0.26163 0.52401 0.29786 0.0
H126 H 0.17244 0.52443 0.33112 0.0
H127 H 0.13615 0.51267 0.36926 0.0
H128 H 0.15068 0.4333 0.3494 0.0
H129 H 0.18731 0.4446 0.31153 0.0
C130 C 0.21924 0.49765 0.13683 0.0
C131 C 0.21222 0.47271 0.12709 0.0
C132 C 0.22404 0.50375 0.17257 0.0
C133 C 0.22233 0.48494 0.19914 0.0
C134 C 0.21634 0.45984 0.18916 0.0
C135 C 0.2113 0.45379 0.15361 0.0
C136 C 0.22479 0.49168 0.23754 0.0
C137 C 0.20492 0.48478 0.26056 0.0
C138 C 0.24568 0.50575 0.25124 0.0
C139 C 0.26808 0.51212 0.22898 0.0
C140 C 0.28128 0.49285 0.21056 0.0
C141 C 0.30232 0.49895 0.18952 0.0
C142 C 0.31046 0.52424 0.18687 0.0
C143 C 0.2976 0.54348 0.20533 0.0
C144 C 0.27653 0.53748 0.22639 0.0
C145 C 0.2223 0.50543 0.41077 0.0
C146 C 0.21879 0.53146 0.41845 0.0
C147 C 0.22585 0.49732 0.37559 0.0
C148 C 0.22622 0.51511 0.34765 0.0
C149 C 0.22451 0.54119 0.35556 0.0
C150 C 0.22063 0.54929 0.3906 0.0
C151 C 0.22564 0.50653 0.31001 0.0
C152 C 0.24567 0.51326 0.28725 0.0
C153 C 0.205 0.49214 0.29647 0.0
C154 C 0.18279 0.48535 0.31886 0.0
C155 C 0.16802 0.50447 0.33512 0.0
C156 C 0.14737 0.49789 0.35664 0.0
C157 C 0.14118 0.47225 0.36186 0.0
C158 C 0.15554 0.45315 0.34541 0.0
C159 C 0.17624 0.45963 0.3239 0.0
H160 H 0.12524 0.46718 0.37861 0.0
H161 H 0.32675 0.52893 0.17057 0.0
H162 H 0.57749 0.20647 0.64397 0.0
H163 H 0.56616 0.21293 0.70624 0.0
H164 H 0.48802 0.22636 0.67579 0.0
H165 H 0.49936 0.22043 0.61299 0.0
H166 H 0.50159 0.2571 0.73047 0.0
H167 H 0.50649 0.16807 0.70434 0.0
H168 H 0.52582 0.12835 0.68176 0.0
H169 H 0.5872 0.13596 0.75686 0.0
H170 H 0.56842 0.17596 0.77956 0.0
H171 H 0.44299 0.21507 0.8926 0.0
H172 H 0.45733 0.22212 0.83152 0.0
H173 H 0.53549 0.21914 0.86682 0.0
H174 H 0.52127 0.21243 0.92829 0.0
H175 H 0.52294 0.18486 0.81053 0.0
H176 H 0.51409 0.27363 0.83923 0.0
H177 H 0.4918 0.31182 0.86157 0.0
H178 H 0.43399 0.30253 0.78146 0.0
H179 H 0.45574 0.26404 0.75895 0.0
C180 C 0.55793 0.21111 0.65039 0.0
C181 C 0.53925 0.21262 0.62352 0.0
C182 C 0.55147 0.21474 0.68607 0.0
C183 C 0.52614 0.21956 0.69579 0.0
C184 C 0.50767 0.22253 0.66892 0.0
C185 C 0.51418 0.21911 0.63305 0.0
C186 C 0.5188 0.21986 0.73401 0.0
C187 C 0.50604 0.24122 0.74791 0.0
C188 C 0.52484 0.19924 0.75691 0.0
C189 C 0.53619 0.17517 0.74338 0.0
C190 C 0.52422 0.16139 0.71585 0.0
C191 C 0.53506 0.13881 0.70305 0.0
C192 C 0.55777 0.12968 0.7178 0.0
C193 C 0.56964 0.14308 0.74543 0.0
C194 C 0.5589 0.16571 0.75828 0.0
C195 C 0.46324 0.21637 0.8875 0.0
C196 C 0.48101 0.21311 0.91526 0.0
C197 C 0.47139 0.22049 0.85259 0.0
C198 C 0.49746 0.22117 0.84467 0.0
C199 C 0.51528 0.21873 0.87245 0.0
C200 C 0.50712 0.21502 0.90754 0.0
C201 C 0.50596 0.22216 0.80706 0.0
C202 C 0.51875 0.20088 0.79319 0.0
C203 C 0.49953 0.24263 0.78418 0.0
C204 C 0.48643 0.2658 0.7976 0.0
C205 C 0.4965 0.27959 0.82657 0.0
C206 C 0.48399 0.30132 0.83923 0.0
C207 C 0.46146 0.30956 0.823 0.0
C208 C 0.45143 0.29611 0.79403 0.0
C209 C 0.46386 0.27435 0.78128 0.0
H210 H 0.45181 0.3264 0.83284 0.0
H211 H 0.56612 0.11218 0.70787 0.0
H212 H 0.79515 0.51477 0.41958 0.0
H213 H 0.78727 0.52567 0.35717 0.0
H214 H 0.79287 0.4461 0.32844 0.0
H215 H 0.80164 0.43527 0.39046 0.0
H216 H 0.821 0.47204 0.28634 0.0
H217 H 0.73504 0.48096 0.32575 0.0
H218 H 0.70002 0.49638 0.36372 0.0
H219 H 0.71708 0.57371 0.33482 0.0
H220 H 0.75244 0.55877 0.29703 0.0
H221 H 0.78952 0.49286 0.1051 0.0
H222 H 0.783 0.47899 0.16672 0.0
H223 H 0.79222 0.55651 0.2031 0.0
H224 H 0.79887 0.5705 0.14179 0.0
H225 H 0.7536 0.5295 0.23977 0.0
H226 H 0.84188 0.51977 0.20491 0.0
H227 H 0.87653 0.50389 0.16655 0.0
H228 H 0.8537 0.42668 0.18708 0.0
H229 H 0.81869 0.44213 0.2252 0.0
C230 C 0.79425 0.49957 0.40004 0.0
C231 C 0.79916 0.47418 0.40991 0.0
C232 C 0.78965 0.50581 0.36433 0.0
C233 C 0.78933 0.4867 0.33797 0.0
C234 C 0.79314 0.46122 0.34816 0.0
C235 C 0.7981 0.45504 0.38367 0.0
C236 C 0.78714 0.49337 0.29953 0.0
C237 C 0.8059 0.48417 0.27616 0.0
C238 C 0.76783 0.50968 0.28614 0.0
C239 C 0.74654 0.51874 0.30878 0.0
C240 C 0.73145 0.50126 0.32769 0.0
C241 C 0.71151 0.50992 0.34915 0.0
C242 C 0.70636 0.53601 0.35174 0.0
C243 C 0.72111 0.5535 0.33281 0.0
C244 C 0.74108 0.54495 0.31133 0.0
C245 C 0.78964 0.50702 0.12613 0.0
C246 C 0.79495 0.53274 0.1186 0.0
C247 C 0.786 0.49906 0.16132 0.0
C248 C 0.78739 0.51671 0.18946 0.0
C249 C 0.79108 0.54259 0.18178 0.0
C250 C 0.795 0.55052 0.14672 0.0
C251 C 0.78732 0.50804 0.22703 0.0
C252 C 0.76835 0.51702 0.25012 0.0
C253 C 0.80633 0.4914 0.24023 0.0
C254 C 0.82749 0.48211 0.21754 0.0
C255 C 0.84412 0.49941 0.201 0.0
C256 C 0.86385 0.49049 0.17935 0.0
C257 C 0.86725 0.4643 0.17428 0.0
C258 C 0.851 0.44697 0.19097 0.0
C259 C 0.83123 0.45579 0.21261 0.0
H260 H 0.8825 0.45742 0.15748 0.0
H261 H 0.69092 0.54267 0.36837 0.0
H262 H 0.56303 0.81705 0.88802 0.0
H263 H 0.54916 0.80896 0.82733 0.0
H264 H 0.48754 0.76236 0.86621 0.0
H265 H 0.50086 0.77125 0.92766 0.0
H266 H 0.54374 0.77143 0.78437 0.0
H267 H 0.4359 0.77017 0.81185 0.0
H268 H 0.40513 0.78586 0.85643 0.0
H269 H 0.45572 0.8472 0.88383 0.0
H270 H 0.4866 0.83204 0.83915 0.0
H271 H 0.4865 0.76542 0.61092 0.0
H272 H 0.49754 0.75481 0.6728 0.0
H273 H 0.46847 0.82792 0.70703 0.0
H274 H 0.45616 0.83774 0.64621 0.0
H275 H 0.45543 0.79656 0.75302 0.0
H276 H 0.53563 0.81241 0.693 0.0
H277 H 0.56877 0.80482 0.64774 0.0
H278 H 0.57751 0.72771 0.68432 0.0
H279 H 0.54422 0.73481 0.72957 0.0
C280 C 0.54664 0.80486 0.88385 0.0
C281 C 0.53286 0.79508 0.91284 0.0
C282 C 0.5388 0.80012 0.84895 0.0
C283 C 0.51709 0.78532 0.84203 0.0
C284 C 0.50409 0.77424 0.87084 0.0
C285 C 0.51178 0.77925 0.90596 0.0
C286 C 0.50733 0.78338 0.80483 0.0
C287 C 0.52433 0.77668 0.77754 0.0
C288 C 0.48211 0.79046 0.7957 0.0
C289 C 0.46367 0.79974 0.82257 0.0
C290 C 0.44041 0.787 0.82741 0.0
C291 C 0.42296 0.79581 0.85266 0.0
C292 C 0.42852 0.81744 0.87306 0.0
C293 C 0.45149 0.83038 0.86814 0.0
C294 C 0.46898 0.82168 0.84288 0.0
C295 C 0.48238 0.77907 0.63181 0.0
C296 C 0.47046 0.80239 0.62375 0.0
C297 C 0.48878 0.77307 0.66715 0.0
C298 C 0.48412 0.79066 0.69479 0.0
C299 C 0.4721 0.81385 0.68649 0.0
C300 C 0.46515 0.81953 0.65155 0.0
C301 C 0.49215 0.78573 0.73231 0.0
C302 C 0.47471 0.79083 0.75976 0.0
C303 C 0.51729 0.77831 0.74148 0.0
C304 C 0.53724 0.77403 0.71431 0.0
C305 C 0.54451 0.7938 0.6912 0.0
C306 C 0.56333 0.78959 0.6656 0.0
C307 C 0.57517 0.76577 0.66308 0.0
C308 C 0.56827 0.74613 0.68624 0.0
C309 C 0.54944 0.75023 0.71187 0.0
H310 H 0.58974 0.76255 0.64324 0.0
H311 H 0.41499 0.82422 0.89261 0.0
H312 H 0.79415 0.45036 0.62922 0.0
H313 H 0.78626 0.45834 0.69233 0.0
H314 H 0.7802 0.53903 0.67135 0.0
H315 H 0.78872 0.53123 0.6083 0.0
H316 H 0.81159 0.53117 0.7244 0.0
H317 H 0.72767 0.50169 0.69594 0.0
H318 H 0.6956 0.47223 0.6711 0.0
H319 H 0.72132 0.41317 0.74173 0.0
H320 H 0.75379 0.44217 0.76668 0.0
H321 H 0.78375 0.56259 0.90259 0.0
H322 H 0.77685 0.55675 0.83862 0.0
H323 H 0.78655 0.4755 0.85071 0.0
H324 H 0.79299 0.48112 0.91473 0.0
H325 H 0.7502 0.48574 0.80182 0.0
H326 H 0.83616 0.51314 0.82573 0.0
H327 H 0.86922 0.54159 0.85038 0.0
H328 H 0.84031 0.60362 0.78752 0.0
H329 H 0.80684 0.5756 0.76286 0.0
C330 C 0.79067 0.46977 0.63789 0.0
C331 C 0.79214 0.49017 0.61369 0.0
C332 C 0.78606 0.47431 0.67405 0.0
C333 C 0.78247 0.4993 0.68671 0.0
C334 C 0.78294 0.51959 0.6623 0.0
C335 C 0.78772 0.51508 0.6262 0.0
C336 C 0.7804 0.50449 0.72563 0.0
C337 C 0.79776 0.52162 0.74114 0.0
C338 C 0.7629 0.49151 0.7478 0.0
C339 C 0.7433 0.47406 0.73299 0.0
C340 C 0.72661 0.48237 0.70601 0.0
C341 C 0.70834 0.46576 0.69193 0.0
C342 C 0.70646 0.44083 0.70477 0.0
C343 C 0.72281 0.43248 0.73179 0.0
C344 C 0.74113 0.449 0.74594 0.0
C345 C 0.78395 0.54343 0.89176 0.0
C346 C 0.78916 0.52235 0.91375 0.0
C347 C 0.78012 0.54013 0.85513 0.0
C348 C 0.78167 0.51572 0.83972 0.0
C349 C 0.78536 0.49452 0.86194 0.0
C350 C 0.78909 0.49779 0.89857 0.0
C351 C 0.78132 0.51242 0.80034 0.0
C352 C 0.7637 0.49555 0.78486 0.0
C353 C 0.79866 0.52552 0.7781 0.0
C354 C 0.81883 0.54236 0.79277 0.0
C355 C 0.83674 0.5329 0.81738 0.0
C356 C 0.85556 0.54893 0.83132 0.0
C357 C 0.85681 0.57442 0.8206 0.0
C358 C 0.83928 0.5839 0.79584 0.0
C359 C 0.82039 0.56794 0.78187 0.0
H360 H 0.8714 0.5868 0.83142 0.0
H361 H 0.69231 0.428 0.69384 0.0
H362 H 0.47711 0.79512 0.11457 0.0
H363 H 0.4699 0.79015 0.1784 0.0
H364 H 0.55063 0.78128 0.19566 0.0
H365 H 0.55809 0.78632 0.13161 0.0
H366 H 0.52105 0.74839 0.23822 0.0
H367 H 0.52658 0.8371 0.2098 0.0
H368 H 0.51639 0.87662 0.17718 0.0
H369 H 0.43839 0.87118 0.21026 0.0
H370 H 0.44805 0.83139 0.24268 0.0
H371 H 0.52397 0.78671 0.4223 0.0
H372 H 0.53067 0.7804 0.3584 0.0
H373 H 0.45047 0.79195 0.33922 0.0
H374 H 0.44359 0.79824 0.403 0.0
H375 H 0.48025 0.82251 0.29751 0.0
H376 H 0.47607 0.73387 0.32843 0.0
H377 H 0.48766 0.69506 0.36177 0.0
H378 H 0.56479 0.70127 0.32517 0.0
H379 H 0.55374 0.74036 0.29199 0.0
C380 C 0.49334 0.79168 0.13178 0.0
C381 C 0.51821 0.7913 0.11798 0.0
C382 C 0.48917 0.78894 0.16831 0.0
C383 C 0.50975 0.7857 0.19182 0.0
C384 C 0.53449 0.78382 0.17797 0.0
C385 C 0.53871 0.78674 0.14137 0.0
C386 C 0.50549 0.78604 0.23092 0.0
C387 C 0.51238 0.76468 0.2513 0.0
C388 C 0.4939 0.80719 0.24787 0.0
C389 C 0.48798 0.83109 0.22833 0.0
C390 C 0.5072 0.84419 0.20984 0.0
C391 C 0.50154 0.86667 0.19144 0.0
C392 C 0.47675 0.87637 0.19155 0.0
C393 C 0.45758 0.86362 0.21014 0.0
C394 C 0.46314 0.84111 0.22855 0.0
C395 C 0.50767 0.78743 0.40458 0.0
C396 C 0.48325 0.79304 0.41778 0.0
C397 C 0.51153 0.78378 0.36803 0.0
C398 C 0.49107 0.78572 0.344 0.0
C399 C 0.46654 0.79042 0.35726 0.0
C400 C 0.46263 0.79389 0.39378 0.0
C401 C 0.49549 0.78472 0.30492 0.0
C402 C 0.48876 0.80611 0.28449 0.0
C403 C 0.50742 0.76369 0.28809 0.0
C404 C 0.51412 0.74019 0.30801 0.0
C405 C 0.49556 0.7271 0.32774 0.0
C406 C 0.50202 0.70502 0.34656 0.0
C407 C 0.52696 0.69574 0.34567 0.0
C408 C 0.54548 0.7085 0.32588 0.0
C409 C 0.53912 0.7306 0.30703 0.0
H410 H 0.53193 0.67864 0.36025 0.0
H411 H 0.4724 0.89378 0.17732 0.0
H412 H 0.21772 0.45056 0.90728 0.0
H413 H 0.22508 0.45899 0.84418 0.0
H414 H 0.22843 0.53976 0.86596 0.0
H415 H 0.22052 0.53149 0.92901 0.0
H416 H 0.19706 0.53084 0.81279 0.0
H417 H 0.28211 0.5046 0.84104 0.0
H418 H 0.31534 0.47635 0.86565 0.0
H419 H 0.29205 0.41649 0.7945 0.0
H420 H 0.25844 0.44427 0.76977 0.0
H421 H 0.22433 0.56376 0.63471 0.0
H422 H 0.23084 0.55809 0.69879 0.0
H423 H 0.22451 0.47656 0.68599 0.0
H424 H 0.21842 0.48202 0.62193 0.0
H425 H 0.26032 0.48808 0.73503 0.0
H426 H 0.17339 0.51214 0.71111 0.0
H427 H 0.13915 0.53928 0.68673 0.0
H428 H 0.16524 0.6022 0.75045 0.0
H429 H 0.19988 0.5755 0.77485 0.0
C430 C 0.22049 0.47009 0.89878 0.0
C431 C 0.21846 0.49036 0.92323 0.0
C432 C 0.22479 0.4749 0.86263 0.0
C433 C 0.22746 0.50003 0.85021 0.0
C434 C 0.2264 0.52021 0.87483 0.0
C435 C 0.22197 0.51544 0.91094 0.0
C436 C 0.2293 0.50539 0.81133 0.0
C437 C 0.21127 0.52188 0.79596 0.0
C438 C 0.24733 0.49318 0.78906 0.0
C439 C 0.26762 0.47647 0.80375 0.0
C440 C 0.28395 0.48535 0.83081 0.0
C441 C 0.30288 0.46943 0.84476 0.0
C442 C 0.30577 0.44462 0.8317 0.0
C443 C 0.28978 0.4357 0.8046 0.0
C444 C 0.27081 0.45154 0.79058 0.0
C445 C 0.22476 0.5446 0.64542 0.0
C446 C 0.22064 0.52336 0.6232 0.0
C447 C 0.22836 0.54139 0.68211 0.0
C448 C 0.22771 0.51691 0.69734 0.0
C449 C 0.22501 0.49563 0.67492 0.0
C450 C 0.22147 0.4988 0.63825 0.0
C451 C 0.22812 0.51352 0.7367 0.0
C452 C 0.24641 0.4973 0.75205 0.0
C453 C 0.21024 0.52586 0.75903 0.0
C454 C 0.18939 0.54192 0.74448 0.0
C455 C 0.17195 0.53182 0.7197 0.0
C456 C 0.15245 0.54711 0.70592 0.0
C457 C 0.15007 0.57247 0.71696 0.0
C458 C 0.16714 0.58257 0.74188 0.0
C459 C 0.1867 0.56737 0.7557 0.0
H460 H 0.13496 0.58428 0.70626 0.0
H461 H 0.32043 0.43232 0.84254 0.0
H462 H 0.48216 0.22733 0.42529 0.0
H463 H 0.47382 0.23474 0.36205 0.0
H464 H 0.55391 0.22628 0.33964 0.0
H465 H 0.56247 0.21957 0.40298 0.0
H466 H 0.53393 0.26179 0.29748 0.0
H467 H 0.51195 0.17598 0.33052 0.0
H468 H 0.48998 0.14278 0.36528 0.0
H469 H 0.41751 0.17247 0.33184 0.0
H470 H 0.43907 0.20608 0.29726 0.0
H471 H 0.52999 0.21642 0.11873 0.0
H472 H 0.53574 0.22455 0.18225 0.0
H473 H 0.45463 0.23427 0.19415 0.0
H474 H 0.44867 0.22573 0.13054 0.0
H475 H 0.47275 0.2015 0.24195 0.0
H476 H 0.49648 0.28507 0.20296 0.0
H477 H 0.51996 0.31659 0.16714 0.0
H478 H 0.59077 0.28938 0.21027 0.0
H479 H 0.56774 0.25746 0.24599 0.0
C480 C 0.49807 0.22751 0.40701 0.0
C481 C 0.52296 0.22261 0.41916 0.0
C482 C 0.49325 0.23162 0.37079 0.0
C483 C 0.51315 0.23048 0.34589 0.0
C484 C 0.53821 0.22713 0.35825 0.0
C485 C 0.54308 0.22327 0.39453 0.0
C486 C 0.50772 0.23099 0.30692 0.0
C487 C 0.52067 0.24851 0.28529 0.0
C488 C 0.49011 0.21394 0.29097 0.0
C489 C 0.47711 0.19371 0.31165 0.0
C490 C 0.49133 0.17554 0.3308 0.0
C491 C 0.47895 0.15663 0.35044 0.0
C492 C 0.45237 0.15556 0.35085 0.0
C493 C 0.4381 0.17335 0.33155 0.0
C494 C 0.45039 0.19233 0.31192 0.0
C495 C 0.51338 0.22075 0.13468 0.0
C496 C 0.48885 0.22035 0.11952 0.0
C497 C 0.51673 0.2255 0.17106 0.0
C498 C 0.49565 0.23018 0.19306 0.0
C499 C 0.4712 0.23072 0.17774 0.0
C500 C 0.46783 0.22593 0.14132 0.0
C501 C 0.49896 0.2323 0.23238 0.0
C502 C 0.48571 0.21509 0.25411 0.0
C503 C 0.51648 0.24945 0.24826 0.0
C504 C 0.53038 0.26874 0.22697 0.0
C505 C 0.51707 0.28569 0.20462 0.0
C506 C 0.5303 0.30365 0.18437 0.0
C507 C 0.55684 0.30495 0.18638 0.0
C508 C 0.57021 0.28834 0.20872 0.0
C509 C 0.55708 0.27033 0.22902 0.0
H510 H 0.56705 0.31887 0.17066 0.0
H511 H 0.44282 0.14091 0.36606 0.0
H512 H 0.89171 0.49755 1.00395 0.0
H513 H 0.93627 0.48473 1.00303 0.0
H514 H 0.95929 0.56354 0.00898 0.0
H515 H 0.91437 0.57674 0.01019 0.0
H516 H 0.98709 0.53361 0.95834 0.0
H517 H 0.96269 0.53051 0.08127 0.0
H518 H 0.93556 0.5183 0.13192 0.0
H519 H 0.94935 0.43911 0.10982 0.0
H520 H 0.97625 0.45083 0.05863 0.0
H521 H 0.11563 0.51327 1.00642 0.0
H522 H 0.07127 0.52639 1.00302 0.0
H523 H 0.04752 0.44798 0.01289 0.0
H524 H 0.09222 0.43461 0.01716 0.0
H525 H 0.01972 0.47781 0.05496 0.0
H526 H 0.044 0.48018 0.93248 0.0
H527 H 0.07044 0.4917 0.88081 0.0
H528 H 0.05637 0.57116 0.90064 0.0
H529 H 0.03011 0.56012 0.95275 0.0
C530 C 0.90615 0.51231 1.00486 0.0
C531 C 0.89938 0.53825 1.0073 0.0
C532 C 0.93166 0.50485 1.00445 0.0
C533 C 0.95108 0.52313 1.00631 0.0
C534 C 0.94454 0.54912 0.00762 0.0
C535 C 0.91889 0.55664 0.00838 0.0
C536 C 0.97811 0.51482 0.0076 0.0
C537 C 0.99438 0.52174 0.9797 0.0
C538 C 0.98734 0.49868 0.03497 0.0
C539 C 0.9713 0.49156 0.06589 0.0
C540 C 0.95977 0.51049 0.08701 0.0
C541 C 0.94446 0.50366 0.11585 0.0
C542 C 0.94069 0.47795 0.12404 0.0
C543 C 0.95227 0.45902 0.10342 0.0
C544 C 0.96757 0.46574 0.0745 0.0
C545 C 0.10106 0.49868 0.00765 0.0
C546 C 0.10759 0.4728 0.01198 0.0
C547 C 0.07561 0.50627 1.00552 0.0
C548 C 0.05597 0.48819 1.00719 0.0
C549 C 0.06234 0.4623 0.01142 0.0
C550 C 0.08791 0.45465 0.01373 0.0
C551 C 0.02887 0.49656 1.00562 0.0
C552 C 0.01252 0.48966 0.03351 0.0
C553 C 0.01954 0.5126 0.97811 0.0
C554 C 0.03527 0.51932 0.94673 0.0
C555 C 0.0467 0.50012 0.92599 0.0
C556 C 0.06163 0.50656 0.8966 0.0
C557 C 0.06514 0.53215 0.8875 0.0
C558 C 0.05366 0.55135 0.90774 0.0
C559 C 0.03873 0.54501 0.93719 0.0
H560 H 0.0767 0.5371 0.86473 0.0
H561 H 0.92888 0.47271 0.14642 0.0
H562 H 0.4361 0.91921 0.49929 0.0
H563 H 0.45115 0.9634 0.49535 0.0
H564 H 0.5286 0.93765 0.5087 0.0
H565 H 0.51387 0.89364 0.5125 0.0
H566 H 0.51679 0.97807 0.55286 0.0
H567 H 0.50903 0.95613 0.4289 0.0
H568 H 0.48685 0.94048 0.37517 0.0
H569 H 0.4315 1.00042 0.385 0.0
H570 H 0.45317 0.01622 0.43912 0.0
H571 H 0.57852 0.09544 0.51555 0.0
H572 H 0.56552 0.05062 0.51195 0.0
H573 H 0.48833 0.07388 0.48938 0.0
H574 H 0.50115 0.11848 0.49229 0.0
H575 H 0.50074 0.03425 0.44895 0.0
H576 H 0.50641 0.05552 0.57299 0.0
H577 H 0.5271 0.07147 0.62772 0.0
H578 H 0.58432 0.01322 0.61931 0.0
H579 H 0.56417 0.99714 0.56421 0.0
C580 C 0.45634 0.92294 0.50116 0.0
C581 C 0.47375 0.90283 0.50618 0.0
C582 C 0.46492 0.9482 0.49883 0.0
C583 C 0.49103 0.9538 0.50164 0.0
C584 C 0.50839 0.93378 0.50651 0.0
C585 C 0.49989 0.90859 0.50852 0.0
C586 C 0.50031 0.98056 0.50038 0.0
C587 C 0.5136 0.99026 0.52994 0.0
C588 C 0.4956 0.99663 0.47084 0.0
C589 C 0.48258 0.98719 0.43827 0.0
C590 C 0.492 0.96584 0.41979 0.0
C591 C 0.47955 0.95697 0.38923 0.0
C592 C 0.45774 0.9694 0.37674 0.0
C593 C 0.44838 0.99078 0.39474 0.0
C594 C 0.46075 0.99971 0.42534 0.0
C595 C 0.55884 0.09101 0.50948 0.0
C596 C 0.54087 0.11061 0.50447 0.0
C597 C 0.5514 0.06537 0.50761 0.0
C598 C 0.52584 0.05886 0.5009 0.0
C599 C 0.50812 0.07838 0.49466 0.0
C600 C 0.51551 0.10394 0.49648 0.0
C601 C 0.51727 0.03181 0.50145 0.0
C602 C 0.50405 0.02205 0.47182 0.0
C603 C 0.52182 0.01573 0.53108 0.0
C604 C 0.53394 0.02531 0.56426 0.0
C605 C 0.52352 0.04624 0.58265 0.0
C606 C 0.53513 0.05528 0.61376 0.0
C607 C 0.55705 0.04341 0.62692 0.0
C608 C 0.56737 0.02242 0.60905 0.0
C609 C 0.55585 0.01333 0.57789 0.0
H610 H 0.56601 0.05044 0.65102 0.0
H611 H 0.44813 0.96251 0.35306 0.0
H612 H 0.11942 0.49759 0.52502 0.0
H613 H 0.07477 0.48507 0.52594 0.0
H614 H 0.05224 0.56418 0.52644 0.0
H615 H 0.09724 0.57706 0.52516 0.0
H616 H 0.02565 0.53252 0.57658 0.0
H617 H 0.04656 0.53414 0.45248 0.0
H618 H 0.0719 0.52393 0.39914 0.0
H619 H 0.05824 0.44404 0.41519 0.0
H620 H 0.03316 0.45374 0.46901 0.0
H621 H 0.89574 0.51379 0.53374 0.0
H622 H 0.94012 0.52692 0.53612 0.0
H623 H 0.96386 0.44904 0.51933 0.0
H624 H 0.91915 0.43569 0.51615 0.0
H625 H 0.99012 0.48053 0.47766 0.0
H626 H 0.96959 0.47821 0.60153 0.0
H627 H 0.94475 0.48776 0.65556 0.0
H628 H 0.95816 0.56786 0.64111 0.0
H629 H 0.9828 0.55882 0.58668 0.0
C630 C 0.10506 0.51244 0.52547 0.0
C631 C 0.11196 0.53839 0.52496 0.0
C632 C 0.07951 0.50519 0.52586 0.0
C633 C 0.06021 0.52367 0.52597 0.0
C634 C 0.0669 0.54962 0.52629 0.0
C635 C 0.09258 0.55694 0.52547 0.0
C636 C 0.03313 0.51563 0.52542 0.0
C637 C 0.01771 0.5215 0.55474 0.0
C638 C 0.02309 0.50059 0.49736 0.0
C639 C 0.03817 0.49467 0.465 0.0
C640 C 0.04916 0.51438 0.44485 0.0
C641 C 0.06344 0.50868 0.41449 0.0
C642 C 0.06671 0.48335 0.40382 0.0
C643 C 0.05571 0.46365 0.42351 0.0
C644 C 0.04144 0.46924 0.45393 0.0
C645 C 0.91032 0.49932 0.5308 0.0
C646 C 0.90379 0.47361 0.52479 0.0
C647 C 0.93578 0.5069 0.53234 0.0
C648 C 0.95541 0.48896 0.52833 0.0
C649 C 0.94904 0.46323 0.52258 0.0
C650 C 0.92347 0.4556 0.52091 0.0
C651 C 0.98249 0.49735 0.52893 0.0
C652 C 0.99797 0.49154 0.49958 0.0
C653 C 0.99262 0.51233 0.55707 0.0
C654 C 0.97784 0.51785 0.58983 0.0
C655 C 0.96707 0.49788 0.60971 0.0
C656 C 0.95306 0.5032 0.64044 0.0
C657 C 0.94983 0.5284 0.65171 0.0
C658 C 0.96066 0.54834 0.63232 0.0
C659 C 0.97467 0.54313 0.60155 0.0
H660 H 0.93897 0.53248 0.67551 0.0
H661 H 0.0777 0.47899 0.38024 0.0
H662 H 0.57009 0.91465 0.03611 0.0
H663 H 0.55581 0.95924 0.03959 0.0
H664 H 0.47878 0.93558 0.01727 0.0
H665 H 0.49268 0.89123 0.01422 0.0
H666 H 0.49506 0.97701 0.97555 0.0
H667 H 0.49224 0.9512 0.09812 0.0
H668 H 0.50969 0.93308 0.15364 0.0
H669 H 0.56681 0.99161 0.15681 0.0
H670 H 0.54993 0.00986 0.10095 0.0
H671 H 0.43273 0.09473 0.01061 0.0
H672 H 0.4445 0.0495 0.01336 0.0
H673 H 0.51981 0.07008 0.04943 0.0
H674 H 0.50816 0.11503 0.04741 0.0
H675 H 0.50362 0.02958 0.08494 0.0
H676 H 0.50797 0.05466 0.96207 0.0
H677 H 0.49183 0.07254 0.90562 0.0
H678 H 0.43335 0.01538 0.90196 0.0
H679 H 0.44895 0.99737 0.95869 0.0
C680 C 0.55012 0.91896 0.03207 0.0
C681 C 0.53254 0.89935 0.025 0.0
C682 C 0.54198 0.94441 0.03413 0.0
C683 C 0.51622 0.95068 0.02875 0.0
C684 C 0.49873 0.93117 0.02147 0.0
C685 C 0.50674 0.90579 0.01991 0.0
C686 C 0.50738 0.97757 0.03029 0.0
C687 C 0.49662 0.98843 0.99959 0.0
C688 C 0.50988 0.99256 0.06145 0.0
C689 C 0.51999 0.98173 0.09514 0.0
C690 C 0.50866 0.96008 0.11047 0.0
C691 C 0.51842 0.94981 0.14204 0.0
C692 C 0.53939 0.96115 0.15869 0.0
C693 C 0.5506 0.98283 0.14385 0.0
C694 C 0.54093 0.99315 0.11224 0.0
C695 C 0.4517 0.08961 0.01947 0.0
C696 C 0.46952 0.10858 0.02854 0.0
C697 C 0.45846 0.06375 0.02085 0.0
C698 C 0.48319 0.05637 0.03112 0.0
C699 C 0.50065 0.07524 0.04138 0.0
C700 C 0.49394 0.10101 0.04006 0.0
C701 C 0.49129 0.02915 0.03012 0.0
C702 C 0.50196 0.01819 0.0609 0.0
C703 C 0.48885 0.01408 0.99893 0.0
C704 C 0.47945 0.02486 0.96482 0.0
C705 C 0.49154 0.04604 0.94938 0.0
C706 C 0.48252 0.05617 0.91731 0.0
C707 C 0.46153 0.04515 0.90027 0.0
C708 C 0.44957 0.02393 0.91523 0.0
C709 C 0.4585 0.01374 0.94733 0.0
H710 H 0.45458 0.05302 0.87543 0.0
H711 H 0.54692 0.95318 0.18313 0.0
H712 H 0.23726 0.38824 0.97162 0.0
H713 H 0.26793 0.35319 0.9676 0.0
H714 H 0.23082 0.31532 0.05518 0.0
H715 H 0.19967 0.34979 0.05847 0.0
H716 H 0.30219 0.3388 0.01197 0.0
H717 H 0.24029 0.25181 0.05288 0.0
H718 H 0.19613 0.23653 0.04581 0.0
H719 H 0.18764 0.28146 0.95097 0.0
H720 H 0.23183 0.29674 0.9572 0.0
H721 H 0.38589 0.23975 0.0614 0.0
H722 H 0.35033 0.26996 0.06239 0.0
H723 H 0.31754 0.23307 0.97025 0.0
H724 H 0.35249 0.20236 0.96987 0.0
H725 H 0.28095 0.24662 0.01193 0.0
H726 H 0.35382 0.28894 0.96397 0.0
H727 H 0.39824 0.30416 0.96284 0.0
H728 H 0.38492 0.34868 0.05708 0.0
H729 H 0.34049 0.33345 0.05902 0.0
C730 C 0.23534 0.3722 0.98955 0.0
C731 C 0.21593 0.3718 0.01527 0.0
C732 C 0.253 0.35222 0.98739 0.0
C733 C 0.25174 0.33145 0.01098 0.0
C734 C 0.23202 0.3308 0.03619 0.0
C735 C 0.2142 0.35062 0.0381 0.0
C736 C 0.27178 0.31123 0.0105 0.0
C737 C 0.29747 0.31866 0.0119 0.0
C738 C 0.26584 0.28486 0.00989 0.0
C739 C 0.2393 0.2756 1.00573 0.0
C740 C 0.22903 0.25835 0.03045 0.0
C741 C 0.20399 0.2497 0.0266 0.0
C742 C 0.18907 0.25808 0.99802 0.0
C743 C 0.19919 0.27506 0.97317 0.0
C744 C 0.22422 0.28375 0.97688 0.0
C745 C 0.3709 0.23784 0.04168 0.0
C746 C 0.37213 0.2187 0.01545 0.0
C747 C 0.35065 0.25526 0.0421 0.0
C748 C 0.33145 0.25421 0.01591 0.0
C749 C 0.3321 0.2344 0.99069 0.0
C750 C 0.35216 0.21682 0.99049 0.0
C751 C 0.31128 0.27423 0.01384 0.0
C752 C 0.28561 0.26677 0.01204 0.0
C753 C 0.31724 0.30059 0.01298 0.0
C754 C 0.34391 0.30986 0.01183 0.0
C755 C 0.36042 0.30184 0.98458 0.0
C756 C 0.38558 0.31049 0.98378 0.0
C757 C 0.39441 0.32732 0.00993 0.0
C758 C 0.37806 0.33561 0.03688 0.0
C759 C 0.35288 0.32699 0.03783 0.0
H760 H 0.4139 0.334 0.00926 0.0
H761 H 0.16968 0.25138 0.9951 0.0
H762 H 0.81822 0.34744 0.48661 0.0
H763 H 0.78766 0.3123 0.48795 0.0
H764 H 0.73819 0.35684 0.5553 0.0
H765 H 0.76887 0.39188 0.55465 0.0
H766 H 0.73715 0.30848 0.57538 0.0
H767 H 0.72852 0.35362 0.46513 0.0
H768 H 0.74319 0.37233 0.40858 0.0
H769 H 0.76583 0.29817 0.37156 0.0
H770 H 0.75162 0.27906 0.42814 0.0
H771 H 0.6216 0.24683 0.47969 0.0
H772 H 0.65683 0.27727 0.47944 0.0
H773 H 0.70136 0.22635 0.5449 0.0
H774 H 0.66603 0.19602 0.54585 0.0
H775 H 0.70482 0.27797 0.45847 0.0
H776 H 0.7358 0.26129 0.60474 0.0
H777 H 0.71725 0.24663 0.66144 0.0
H778 H 0.64307 0.27065 0.6265 0.0
H779 H 0.66123 0.28577 0.56984 0.0
C780 C 0.80104 0.34962 0.50222 0.0
C781 C 0.79593 0.37257 0.52034 0.0
C782 C 0.7835 0.32954 0.50277 0.0
C783 C 0.76036 0.33208 0.52114 0.0
C784 C 0.75584 0.35444 0.54081 0.0
C785 C 0.77343 0.37449 0.5404 0.0
C786 C 0.74033 0.31205 0.51843 0.0
C787 C 0.73022 0.3017 0.54981 0.0
C788 C 0.73079 0.30355 0.4851 0.0
C789 C 0.73926 0.31496 0.45101 0.0
C790 C 0.73681 0.34133 0.44504 0.0
C791 C 0.74501 0.352 0.41297 0.0
C792 C 0.7555 0.33646 0.38653 0.0
C793 C 0.75774 0.31019 0.39208 0.0
C794 C 0.74961 0.29943 0.42414 0.0
C795 C 0.63901 0.24192 0.49363 0.0
C796 C 0.6409 0.21905 0.51302 0.0
C797 C 0.65917 0.25937 0.49345 0.0
C798 C 0.68162 0.25435 0.51268 0.0
C799 C 0.68407 0.2309 0.53044 0.0
C800 C 0.66388 0.21349 0.53076 0.0
C801 C 0.7019 0.27412 0.51541 0.0
C802 C 0.71199 0.2845 0.48404 0.0
C803 C 0.71093 0.28313 0.54876 0.0
C804 C 0.69985 0.27438 0.58291 0.0
C805 C 0.71555 0.26351 0.60922 0.0
C806 C 0.7051 0.25512 0.64134 0.0
C807 C 0.67898 0.25762 0.64751 0.0
C808 C 0.66328 0.26863 0.62163 0.0
C809 C 0.67364 0.27708 0.5895 0.0
H810 H 0.67093 0.25109 0.67237 0.0
H811 H 0.76184 0.34475 0.36172 0.0
H812 H 0.76571 0.62058 0.97359 0.0
H813 H 0.73518 0.65583 0.97148 0.0
H814 H 0.77878 0.69624 0.0511 0.0
H815 H 0.80959 0.66132 0.05288 0.0
H816 H 0.70466 0.67237 0.02135 0.0
H817 H 0.77055 0.76029 0.04181 0.0
H818 H 0.81385 0.77427 0.02566 0.0
H819 H 0.81322 0.72373 0.93553 0.0
H820 H 0.76981 0.70972 0.95085 0.0
H821 H 0.62456 0.77498 0.06785 0.0
H822 H 0.6601 0.74471 0.06897 0.0
H823 H 0.68797 0.77584 0.97015 0.0
H824 H 0.65336 0.8069 0.96997 0.0
H825 H 0.72649 0.76382 1.00721 0.0
H826 H 0.64956 0.71929 0.97599 0.0
H827 H 0.60527 0.70483 0.98415 0.0
H828 H 0.6265 0.66734 0.08146 0.0
H829 H 0.67087 0.68185 0.07407 0.0
C830 C 0.76905 0.63716 0.99021 0.0
C831 C 0.79014 0.63811 0.01337 0.0
C832 C 0.75148 0.65725 0.98914 0.0
C833 C 0.75462 0.67877 0.01109 0.0
C834 C 0.77605 0.68005 0.03354 0.0
C835 C 0.79367 0.66 0.03456 0.0
C836 C 0.73488 0.69923 0.01181 0.0
C837 C 0.70947 0.69236 0.01821 0.0
C838 C 0.74097 0.72534 1.00727 0.0
C839 C 0.76703 0.73376 0.99775 0.0
C840 C 0.77963 0.75222 0.0185 0.0
C841 C 0.80419 0.76014 0.00949 0.0
C842 C 0.81631 0.74983 0.97966 0.0
C843 C 0.80386 0.73163 0.95872 0.0
C844 C 0.77929 0.72366 0.96759 0.0
C845 C 0.63853 0.77563 0.04671 0.0
C846 C 0.63607 0.79327 0.01875 0.0
C847 C 0.65875 0.75816 0.04718 0.0
C848 C 0.67646 0.75745 0.01914 0.0
C849 C 0.6746 0.77584 0.99207 0.0
C850 C 0.65474 0.79364 0.99199 0.0
C851 C 0.69624 0.73699 0.017 0.0
C852 C 0.72168 0.74384 0.01043 0.0
C853 C 0.69006 0.71077 0.02031 0.0
C854 C 0.66346 0.70185 0.02464 0.0
C855 C 0.64474 0.70808 0.99922 0.0
C856 C 0.61964 0.69986 1.0037 0.0
C857 C 0.61307 0.68523 0.03335 0.0
C858 C 0.63161 0.67871 0.05853 0.0
C859 C 0.65674 0.6869 0.0542 0.0
H860 H 0.59362 0.6789 0.03678 0.0
H861 H 0.83533 0.75598 0.97274 0.0
H862 H 0.34612 0.81893 0.55264 0.0
H863 H 0.3113 0.78795 0.55352 0.0
H864 H 0.35274 0.73975 0.48069 0.0
H865 H 0.38777 0.77039 0.48011 0.0
H866 H 0.27934 0.76695 0.50676 0.0
H867 H 0.34533 0.67796 0.50444 0.0
H868 H 0.38883 0.66597 0.52308 0.0
H869 H 0.38836 0.7252 0.60222 0.0
H870 H 0.34475 0.73729 0.58443 0.0
H871 H 0.20763 0.6559 0.46838 0.0
H872 H 0.2371 0.6917 0.47127 0.0
H873 H 0.26248 0.66692 0.5751 0.0
H874 H 0.23383 0.63016 0.57141 0.0
H875 H 0.30147 0.678 0.53964 0.0
H876 H 0.22374 0.72287 0.55956 0.0
H877 H 0.17939 0.73611 0.54809 0.0
H878 H 0.20134 0.76727 0.44706 0.0
H879 H 0.24578 0.75392 0.45772 0.0
C880 C 0.34768 0.80191 0.53639 0.0
C881 C 0.36985 0.79706 0.51652 0.0
C882 C 0.32773 0.7842 0.53693 0.0
C883 C 0.32957 0.76128 0.5177 0.0
C884 C 0.35108 0.75706 0.49631 0.0
C885 C 0.37105 0.77469 0.49583 0.0
C886 C 0.30962 0.74126 0.52127 0.0
C887 C 0.28414 0.74749 0.51392 0.0
C888 C 0.31573 0.71602 0.53167 0.0
C889 C 0.34187 0.70869 0.54282 0.0
C890 C 0.35448 0.68836 0.52591 0.0
C891 C 0.37916 0.68155 0.53632 0.0
C892 C 0.39138 0.69487 0.56373 0.0
C893 C 0.37892 0.71496 0.5809 0.0
C894 C 0.35423 0.72181 0.57063 0.0
C895 C 0.21919 0.65827 0.49211 0.0
C896 C 0.21832 0.64021 0.51974 0.0
C897 C 0.23602 0.67889 0.49381 0.0
C898 C 0.25191 0.68238 0.52362 0.0
C899 C 0.2505 0.66472 0.55175 0.0
C900 C 0.23401 0.64377 0.54973 0.0
C901 C 0.27105 0.70345 0.52442 0.0
C902 C 0.2965 0.69744 0.53256 0.0
C903 C 0.26474 0.72903 0.51576 0.0
C904 C 0.23806 0.73722 0.50934 0.0
C905 C 0.21908 0.7324 0.5348 0.0
C906 C 0.19393 0.73995 0.52846 0.0
C907 C 0.18754 0.75247 0.49684 0.0
C908 C 0.20631 0.75755 0.47153 0.0
C909 C 0.23149 0.75003 0.47773 0.0
H910 H 0.16806 0.75829 0.49197 0.0
H911 H 0.41049 0.68959 0.57173 0.0
loop_
_geom_bond_atom_site_label_1
_geom_bond_atom_site_label_2
_geom_bond_distance
_geom_bond_site_symmetry_2
_ccdc_geom_bond_type
O0 Cd1 2.223 . S
O0 C8 1.315 . S
Cd1 O0 2.223 . S
Cd1 O4 2.297 . S
Cd1 O5 2.439 . S
Cd1 O11 2.240 . S
Cd2 O3 2.236 1_556 S
Cd2 O10 2.222 1_556 S
Cd2 O12 2.302 . S
Cd2 O13 2.442 . S
O3 Cd2 2.236 1_554 S
O3 C8 1.279 . S
O4 Cd1 2.297 . S
O4 C6 1.247 . S
O5 Cd1 2.439 . S
O5 C6 1.208 . S
C6 O4 1.247 . S
C6 O5 1.208 . S
C7 O12 1.247 . S
C7 O13 1.208 . S
C8 O0 1.315 . S
C8 O3 1.279 . S
C9 O10 1.315 . S
C9 O11 1.279 . S
O10 Cd2 2.222 1_554 S
O10 C9 1.315 . S
O11 Cd1 2.240 . S
O11 C9 1.279 . S
O12 Cd2 2.302 . S
O12 C7 1.247 . S
O13 Cd2 2.442 . S
O13 C7 1.208 . S
O14 Cd15 2.223 . S
O14 C22 1.315 . S
Cd15 O14 2.223 . S
Cd15 O18 2.297 . S
Cd15 O19 2.439 . S
Cd15 O25 2.240 . S
Cd16 O17 2.240 . S
Cd16 O24 2.223 . S
Cd16 O26 2.297 . S
Cd16 O27 2.439 . S
O17 Cd16 2.240 . S
O17 C22 1.279 . S
O18 Cd15 2.297 . S
O18 C20 1.247 . S
O19 Cd15 2.439 . S
O19 C20 1.208 . S
C20 O18 1.247 . S
C20 O19 1.208 . S
C21 O26 1.247 . S
C21 O27 1.208 . S
C22 O14 1.315 . S
C22 O17 1.279 . S
C23 O24 1.315 . S
C23 O25 1.279 . S
O24 Cd16 2.223 . S
O24 C23 1.315 . S
O25 Cd15 2.240 . S
O25 C23 1.279 . S
O26 Cd16 2.297 . S
O26 C21 1.247 . S
O27 Cd16 2.439 . S
O27 C21 1.208 . S
O28 Cd29 2.223 . S
O28 C36 1.315 . S
Cd29 O28 2.223 . S
Cd29 O32 2.297 . S
Cd29 O33 2.439 . S
Cd29 O39 2.240 . S
Cd30 O31 2.236 1_556 S
Cd30 O38 2.222 1_556 S
Cd30 O40 2.302 . S
Cd30 O41 2.442 . S
O31 Cd30 2.236 1_554 S
O31 C36 1.279 . S
O32 Cd29 2.297 . S
O32 C34 1.247 . S
O33 Cd29 2.439 . S
O33 C34 1.208 . S
C34 O32 1.247 . S
C34 O33 1.208 . S
C35 O40 1.247 . S
C35 O41 1.208 . S
C36 O28 1.315 . S
C36 O31 1.279 . S
C37 O38 1.315 . S
C37 O39 1.279 . S
O38 Cd30 2.222 1_554 S
O38 C37 1.315 . S
O39 Cd29 2.240 . S
O39 C37 1.279 . S
O40 Cd30 2.302 . S
O40 C35 1.247 . S
O41 Cd30 2.442 . S
O41 C35 1.208 . S
O42 Cd43 2.223 . S
O42 C50 1.315 . S
Cd43 O42 2.223 . S
Cd43 O46 2.297 . S
Cd43 O47 2.439 . S
Cd43 O53 2.240 . S
Cd44 O45 2.240 . S
Cd44 O52 2.223 . S
Cd44 O54 2.297 . S
Cd44 O55 2.439 . S
O45 Cd44 2.240 . S
O45 C50 1.279 . S
O46 Cd43 2.297 . S
O46 C48 1.247 . S
O47 Cd43 2.439 . S
O47 C48 1.208 . S
C48 O46 1.247 . S
C48 O47 1.208 . S
C49 O54 1.247 . S
C49 O55 1.208 . S
C50 O42 1.315 . S
C50 O45 1.279 . S
C51 O52 1.315 . S
C51 O53 1.279 . S
O52 Cd44 2.223 . S
O52 C51 1.315 . S
O53 Cd43 2.240 . S
O53 C51 1.279 . S
O54 Cd44 2.297 . S
O54 C49 1.247 . S
O55 Cd44 2.439 . S
O55 C49 1.208 . S
O56 Cd57 2.223 . S
O56 C64 1.315 . S
Cd57 O56 2.223 . S
Cd57 O60 2.297 . S
Cd57 O61 2.439 . S
Cd57 O67 2.240 . S
Cd58 O59 2.240 . S
Cd58 O66 2.223 . S
Cd58 O68 2.297 . S
Cd58 O69 2.439 . S
O59 Cd58 2.240 . S
O59 C64 1.279 . S
O60 Cd57 2.297 . S
O60 C62 1.247 . S
O61 Cd57 2.439 . S
O61 C62 1.208 . S
C62 O60 1.247 . S
C62 O61 1.208 . S
C63 O68 1.247 . S
C63 O69 1.208 . S
C64 O56 1.315 . S
C64 O59 1.279 . S
C65 O66 1.315 . S
C65 O67 1.279 . S
O66 Cd58 2.223 . S
O66 C65 1.315 . S
O67 Cd57 2.240 . S
O67 C65 1.279 . S
O68 Cd58 2.297 . S
O68 C63 1.247 . S
O69 Cd58 2.439 . S
O69 C63 1.208 . S
O70 Cd71 2.223 . S
O70 C78 1.315 . S
Cd71 O70 2.223 . S
Cd71 O74 2.297 . S
Cd71 O75 2.439 1_556 S
Cd71 O81 2.240 1_556 S
Cd72 O73 2.240 1_554 S
Cd72 O80 2.223 . S
Cd72 O82 2.297 . S
Cd72 O83 2.439 . S
O73 Cd72 2.240 1_556 S
O73 C78 1.279 . S
O74 Cd71 2.297 . S
O74 C76 1.247 . S
O75 Cd71 2.439 1_554 S
O75 C76 1.208 1_554 S
C76 O74 1.247 . S
C76 O75 1.208 1_556 S
C77 O82 1.247 . S
C77 O83 1.208 . S
C78 O70 1.315 . S
C78 O73 1.279 . S
C79 O80 1.315 . S
C79 O81 1.279 . S
O80 Cd72 2.223 . S
O80 C79 1.315 . S
O81 Cd71 2.240 1_554 S
O81 C79 1.279 . S
O82 Cd72 2.297 . S
O82 C77 1.247 . S
O83 Cd72 2.439 . S
O83 C77 1.208 . S
O84 Cd85 2.223 . S
O84 C92 1.315 . S
Cd85 O84 2.223 . S
Cd85 O88 2.297 . S
Cd85 O89 2.439 . S
Cd85 O95 2.240 . S
Cd86 O87 2.240 . S
Cd86 O94 2.223 . S
Cd86 O96 2.297 . S
Cd86 O97 2.439 . S
O87 Cd86 2.240 . S
O87 C92 1.279 . S
O88 Cd85 2.297 . S
O88 C90 1.247 . S
O89 Cd85 2.439 . S
O89 C90 1.208 . S
C90 O88 1.247 . S
C90 O89 1.208 . S
C91 O96 1.247 . S
C91 O97 1.208 . S
C92 O84 1.315 . S
C92 O87 1.279 . S
C93 O94 1.315 . S
C93 O95 1.279 . S
O94 Cd86 2.223 . S
O94 C93 1.315 . S
O95 Cd85 2.240 . S
O95 C93 1.279 . S
O96 Cd86 2.297 . S
O96 C91 1.247 . S
O97 Cd86 2.439 . S
O97 C91 1.208 . S
O98 Cd99 2.223 . S
O98 C106 1.315 . S
Cd99 O98 2.223 . S
Cd99 O102 2.297 . S
Cd99 O103 2.439 1_556 S
Cd99 O109 2.240 1_556 S
Cd100 O101 2.240 1_554 S
Cd100 O108 2.223 . S
Cd100 O110 2.297 . S
Cd100 O111 2.439 . S
O101 Cd100 2.240 1_556 S
O101 C106 1.279 . S
O102 Cd99 2.297 . S
O102 C104 1.247 . S
O103 Cd99 2.439 1_554 S
O103 C104 1.208 1_554 S
C104 O102 1.247 . S
C104 O103 1.208 1_556 S
C105 O110 1.247 . S
C105 O111 1.208 . S
C106 O98 1.315 . S
C106 O101 1.279 . S
C107 O108 1.315 . S
C107 O109 1.279 . S
O108 Cd100 2.223 . S
O108 C107 1.315 . S
O109 Cd99 2.240 1_554 S
O109 C107 1.279 . S
O110 Cd100 2.297 . S
O110 C105 1.247 . S
O111 Cd100 2.439 . S
O111 C105 1.208 . S
H112 C130 0.951 . S
H113 C132 0.951 . S
H114 C134 0.950 . S
H115 C135 0.950 . S
H116 C137 0.950 . S
H117 C140 0.950 . S
H118 C141 0.950 . S
H119 C143 0.950 . S
H120 C144 0.950 . S
H121 C145 0.951 . S
H122 C147 0.951 . S
H123 C149 0.950 . S
H124 C150 0.950 . S
H125 C152 0.950 . S
H126 C155 0.950 . S
H127 C156 0.950 . S
H128 C158 0.950 . S
H129 C159 0.950 . S
C130 H112 0.951 . S
C130 C131 1.366 . S
C130 C132 1.388 . S
C131 C130 1.366 . S
C131 C135 1.385 . S
C132 H113 0.951 . S
C132 C130 1.388 . S
C132 C133 1.366 . S
C133 C132 1.366 . S
C133 C134 1.414 . S
C133 C136 1.499 . S
C134 H114 0.950 . S
C134 C133 1.414 . S
C134 C135 1.374 . S
C135 H115 0.950 . S
C135 C131 1.385 . S
C135 C134 1.374 . S
C136 C133 1.499 . S
C136 C137 1.373 . S
C136 C138 1.389 . S
C137 H116 0.950 . S
C137 C136 1.373 . S
C137 C153 1.377 . S
C138 C136 1.389 . S
C138 C139 1.524 . S
C138 C152 1.377 . S
C139 C138 1.524 . S
C139 C140 1.397 . S
C139 C144 1.363 . S
C140 H117 0.950 . S
C140 C139 1.397 . S
C140 C141 1.334 . S
C141 H118 0.950 . S
C141 C140 1.334 . S
C141 C142 1.287 . S
C142 C141 1.287 . S
C142 C143 1.524 . S
C142 H161 0.913 . S
C143 H119 0.950 . S
C143 C142 1.524 . S
C143 C144 1.415 . S
C144 H120 0.950 . S
C144 C139 1.363 . S
C144 C143 1.415 . S
C145 H121 0.951 . S
C145 C146 1.366 . S
C145 C147 1.388 . S
C146 C145 1.366 . S
C146 C150 1.385 . S
C147 H122 0.951 . S
C147 C145 1.388 . S
C147 C148 1.366 . S
C148 C147 1.366 . S
C148 C149 1.414 . S
C148 C151 1.499 . S
C149 H123 0.950 . S
C149 C148 1.414 . S
C149 C150 1.374 . S
C150 H124 0.950 . S
C150 C146 1.385 . S
C150 C149 1.374 . S
C151 C148 1.499 . S
C151 C152 1.373 . S
C151 C153 1.389 . S
C152 H125 0.950 . S
C152 C138 1.377 . S
C152 C151 1.373 . S
C153 C137 1.377 . S
C153 C151 1.389 . S
C153 C154 1.524 . S
C154 C153 1.524 . S
C154 C155 1.397 . S
C154 C159 1.363 . S
C155 H126 0.950 . S
C155 C154 1.397 . S
C155 C156 1.334 . S
C156 H127 0.950 . S
C156 C155 1.334 . S
C156 C157 1.287 . S
C157 C156 1.287 . S
C157 C158 1.524 . S
C157 H160 0.999 . S
C158 H128 0.950 . S
C158 C157 1.524 . S
C158 C159 1.415 . S
C159 H129 0.950 . S
C159 C154 1.363 . S
C159 C158 1.415 . S
H160 C157 0.999 . S
H161 C142 0.913 . S
H162 C180 0.951 . S
H163 C182 0.951 . S
H164 C184 0.950 . S
H165 C185 0.950 . S
H166 C187 0.950 . S
H167 C190 0.950 . S
H168 C191 0.950 . S
H169 C193 0.950 . S
H170 C194 0.950 . S
H171 C195 0.951 . S
H172 C197 0.951 . S
H173 C199 0.950 . S
H174 C200 0.950 . S
H175 C202 0.950 . S
H176 C205 0.950 . S
H177 C206 0.950 . S
H178 C208 0.950 . S
H179 C209 0.950 . S
C180 H162 0.951 . S
C180 C181 1.366 . S
C180 C182 1.388 . S
C181 C180 1.366 . S
C181 C185 1.385 . S
C182 H163 0.951 . S
C182 C180 1.388 . S
C182 C183 1.366 . S
C183 C182 1.366 . S
C183 C184 1.414 . S
C183 C186 1.499 . S
C184 H164 0.950 . S
C184 C183 1.414 . S
C184 C185 1.374 . S
C185 H165 0.950 . S
C185 C181 1.385 . S
C185 C184 1.374 . S
C186 C183 1.499 . S
C186 C187 1.373 . S
C186 C188 1.389 . S
C187 H166 0.950 . S
C187 C186 1.373 . S
C187 C203 1.377 . S
C188 C186 1.389 . S
C188 C189 1.524 . S
C188 C202 1.377 . S
C189 C188 1.524 . S
C189 C190 1.397 . S
C189 C194 1.363 . S
C190 H167 0.950 . S
C190 C189 1.397 . S
C190 C191 1.334 . S
C191 H168 0.950 . S
C191 C190 1.334 . S
C191 C192 1.287 . S
C192 C191 1.287 . S
C192 C193 1.524 . S
C192 H211 0.913 . S
C193 H169 0.950 . S
C193 C192 1.524 . S
C193 C194 1.415 . S
C194 H170 0.950 . S
C194 C189 1.363 . S
C194 C193 1.415 . S
C195 H171 0.951 . S
C195 C196 1.366 . S
C195 C197 1.388 . S
C196 C195 1.366 . S
C196 C200 1.385 . S
C197 H172 0.951 . S
C197 C195 1.388 . S
C197 C198 1.366 . S
C198 C197 1.366 . S
C198 C199 1.414 . S
C198 C201 1.499 . S
C199 H173 0.950 . S
C199 C198 1.414 . S
C199 C200 1.374 . S
C200 H174 0.950 . S
C200 C196 1.385 . S
C200 C199 1.374 . S
C201 C198 1.499 . S
C201 C202 1.373 . S
C201 C203 1.389 . S
C202 H175 0.950 . S
C202 C188 1.377 . S
C202 C201 1.373 . S
C203 C187 1.377 . S
C203 C201 1.389 . S
C203 C204 1.524 . S
C204 C203 1.524 . S
C204 C205 1.397 . S
C204 C209 1.363 . S
C205 H176 0.950 . S
C205 C204 1.397 . S
C205 C206 1.334 . S
C206 H177 0.950 . S
C206 C205 1.334 . S
C206 C207 1.287 . S
C207 C206 1.287 . S
C207 C208 1.524 . S
C207 H210 0.999 . S
C208 H178 0.950 . S
C208 C207 1.524 . S
C208 C209 1.415 . S
C209 H179 0.950 . S
C209 C204 1.363 . S
C209 C208 1.415 . S
H210 C207 0.999 . S
H211 C192 0.913 . S
H212 C230 0.951 . S
H213 C232 0.951 . S
H214 C234 0.950 . S
H215 C235 0.950 . S
H216 C237 0.950 . S
H217 C240 0.950 . S
H218 C241 0.950 . S
H219 C243 0.950 . S
H220 C244 0.950 . S
H221 C245 0.951 . S
H222 C247 0.951 . S
H223 C249 0.950 . S
H224 C250 0.950 . S
H225 C252 0.950 . S
H226 C255 0.950 . S
H227 C256 0.950 . S
H228 C258 0.950 . S
H229 C259 0.950 . S
C230 H212 0.951 . S
C230 C231 1.366 . S
C230 C232 1.388 . S
C231 C230 1.366 . S
C231 C235 1.385 . S
C232 H213 0.951 . S
C232 C230 1.388 . S
C232 C233 1.366 . S
C233 C232 1.366 . S
C233 C234 1.414 . S
C233 C236 1.499 . S
C234 H214 0.950 . S
C234 C233 1.414 . S
C234 C235 1.374 . S
C235 H215 0.950 . S
C235 C231 1.385 . S
C235 C234 1.374 . S
C236 C233 1.499 . S
C236 C237 1.373 . S
C236 C238 1.389 . S
C237 H216 0.950 . S
C237 C236 1.373 . S
C237 C253 1.377 . S
C238 C236 1.389 . S
C238 C239 1.524 . S
C238 C252 1.377 . S
C239 C238 1.524 . S
C239 C240 1.397 . S
C239 C244 1.363 . S
C240 H217 0.950 . S
C240 C239 1.397 . S
C240 C241 1.334 . S
C241 H218 0.950 . S
C241 C240 1.334 . S
C241 C242 1.287 . S
C242 C241 1.287 . S
C242 C243 1.524 . S
C242 H261 0.913 . S
C243 H219 0.950 . S
C243 C242 1.524 . S
C243 C244 1.415 . S
C244 H220 0.950 . S
C244 C239 1.363 . S
C244 C243 1.415 . S
C245 H221 0.951 . S
C245 C246 1.366 . S
C245 C247 1.388 . S
C246 C245 1.366 . S
C246 C250 1.385 . S
C247 H222 0.951 . S
C247 C245 1.388 . S
C247 C248 1.366 . S
C248 C247 1.366 . S
C248 C249 1.414 . S
C248 C251 1.499 . S
C249 H223 0.950 . S
C249 C248 1.414 . S
C249 C250 1.374 . S
C250 H224 0.950 . S
C250 C246 1.385 . S
C250 C249 1.374 . S
C251 C248 1.499 . S
C251 C252 1.373 . S
C251 C253 1.389 . S
C252 H225 0.950 . S
C252 C238 1.377 . S
C252 C251 1.373 . S
C253 C237 1.377 . S
C253 C251 1.389 . S
C253 C254 1.524 . S
C254 C253 1.524 . S
C254 C255 1.397 . S
C254 C259 1.363 . S
C255 H226 0.950 . S
C255 C254 1.397 . S
C255 C256 1.334 . S
C256 H227 0.950 . S
C256 C255 1.334 . S
C256 C257 1.287 . S
C257 C256 1.287 . S
C257 C258 1.524 . S
C257 H260 0.999 . S
C258 H228 0.950 . S
C258 C257 1.524 . S
C258 C259 1.415 . S
C259 H229 0.950 . S
C259 C254 1.363 . S
C259 C258 1.415 . S
H260 C257 0.999 . S
H261 C242 0.913 . S
H262 C280 0.951 . S
H263 C282 0.951 . S
H264 C284 0.950 . S
H265 C285 0.950 . S
H266 C287 0.950 . S
H267 C290 0.950 . S
H268 C291 0.950 . S
H269 C293 0.950 . S
H270 C294 0.950 . S
H271 C295 0.951 . S
H272 C297 0.951 . S
H273 C299 0.950 . S
H274 C300 0.950 . S
H275 C302 0.950 . S
H276 C305 0.950 . S
H277 C306 0.950 . S
H278 C308 0.950 . S
H279 C309 0.950 . S
C280 H262 0.951 . S
C280 C281 1.366 . S
C280 C282 1.388 . S
C281 C280 1.366 . S
C281 C285 1.385 . S
C282 H263 0.951 . S
C282 C280 1.388 . S
C282 C283 1.366 . S
C283 C282 1.366 . S
C283 C284 1.414 . S
C283 C286 1.499 . S
C284 H264 0.950 . S
C284 C283 1.414 . S
C284 C285 1.374 . S
C285 H265 0.950 . S
C285 C281 1.385 . S
C285 C284 1.374 . S
C286 C283 1.499 . S
C286 C287 1.373 . S
C286 C288 1.389 . S
C287 H266 0.950 . S
C287 C286 1.373 . S
C287 C303 1.377 . S
C288 C286 1.389 . S
C288 C289 1.524 . S
C288 C302 1.377 . S
C289 C288 1.524 . S
C289 C290 1.397 . S
C289 C294 1.363 . S
C290 H267 0.950 . S
C290 C289 1.397 . S
C290 C291 1.334 . S
C291 H268 0.950 . S
C291 C290 1.334 . S
C291 C292 1.287 . S
C292 C291 1.287 . S
C292 C293 1.524 . S
C292 H311 0.913 . S
C293 H269 0.950 . S
C293 C292 1.524 . S
C293 C294 1.415 . S
C294 H270 0.950 . S
C294 C289 1.363 . S
C294 C293 1.415 . S
C295 H271 0.951 . S
C295 C296 1.366 . S
C295 C297 1.388 . S
C296 C295 1.366 . S
C296 C300 1.385 . S
C297 H272 0.951 . S
C297 C295 1.388 . S
C297 C298 1.366 . S
C298 C297 1.366 . S
C298 C299 1.414 . S
C298 C301 1.499 . S
C299 H273 0.950 . S
C299 C298 1.414 . S
C299 C300 1.374 . S
C300 H274 0.950 . S
C300 C296 1.385 . S
C300 C299 1.374 . S
C301 C298 1.499 . S
C301 C302 1.373 . S
C301 C303 1.389 . S
C302 H275 0.950 . S
C302 C288 1.377 . S
C302 C301 1.373 . S
C303 C287 1.377 . S
C303 C301 1.389 . S
C303 C304 1.524 . S
C304 C303 1.524 . S
C304 C305 1.397 . S
C304 C309 1.363 . S
C305 H276 0.950 . S
C305 C304 1.397 . S
C305 C306 1.334 . S
C306 H277 0.950 . S
C306 C305 1.334 . S
C306 C307 1.287 . S
C307 C306 1.287 . S
C307 C308 1.524 . S
C307 H310 0.999 . S
C308 H278 0.950 . S
C308 C307 1.524 . S
C308 C309 1.415 . S
C309 H279 0.950 . S
C309 C304 1.363 . S
C309 C308 1.415 . S
H310 C307 0.999 . S
H311 C292 0.913 . S
H312 C330 0.951 . S
H313 C332 0.951 . S
H314 C334 0.950 . S
H315 C335 0.950 . S
H316 C337 0.950 . S
H317 C340 0.950 . S
H318 C341 0.950 . S
H319 C343 0.950 . S
H320 C344 0.950 . S
H321 C345 0.951 . S
H322 C347 0.951 . S
H323 C349 0.950 . S
H324 C350 0.950 . S
H325 C352 0.950 . S
H326 C355 0.950 . S
H327 C356 0.950 . S
H328 C358 0.950 . S
H329 C359 0.950 . S
C330 H312 0.951 . S
C330 C331 1.366 . S
C330 C332 1.388 . S
C331 C330 1.366 . S
C331 C335 1.385 . S
C332 H313 0.951 . S
C332 C330 1.388 . S
C332 C333 1.366 . S
C333 C332 1.366 . S
C333 C334 1.414 . S
C333 C336 1.499 . S
C334 H314 0.950 . S
C334 C333 1.414 . S
C334 C335 1.374 . S
C335 H315 0.950 . S
C335 C331 1.385 . S
C335 C334 1.374 . S
C336 C333 1.499 . S
C336 C337 1.373 . S
C336 C338 1.389 . S
C337 H316 0.950 . S
C337 C336 1.373 . S
C337 C353 1.377 . S
C338 C336 1.389 . S
C338 C339 1.524 . S
C338 C352 1.377 . S
C339 C338 1.524 . S
C339 C340 1.397 . S
C339 C344 1.363 . S
C340 H317 0.950 . S
C340 C339 1.397 . S
C340 C341 1.334 . S
C341 H318 0.950 . S
C341 C340 1.334 . S
C341 C342 1.287 . S
C342 C341 1.287 . S
C342 C343 1.524 . S
C342 H361 0.913 . S
C343 H319 0.950 . S
C343 C342 1.524 . S
C343 C344 1.415 . S
C344 H320 0.950 . S
C344 C339 1.363 . S
C344 C343 1.415 . S
C345 H321 0.951 . S
C345 C346 1.366 . S
C345 C347 1.388 . S
C346 C345 1.366 . S
C346 C350 1.385 . S
C347 H322 0.951 . S
C347 C345 1.388 . S
C347 C348 1.366 . S
C348 C347 1.366 . S
C348 C349 1.414 . S
C348 C351 1.499 . S
C349 H323 0.950 . S
C349 C348 1.414 . S
C349 C350 1.374 . S
C350 H324 0.950 . S
C350 C346 1.385 . S
C350 C349 1.374 . S
C351 C348 1.499 . S
C351 C352 1.373 . S
C351 C353 1.389 . S
C352 H325 0.950 . S
C352 C338 1.377 . S
C352 C351 1.373 . S
C353 C337 1.377 . S
C353 C351 1.389 . S
C353 C354 1.524 . S
C354 C353 1.524 . S
C354 C355 1.397 . S
C354 C359 1.363 . S
C355 H326 0.950 . S
C355 C354 1.397 . S
C355 C356 1.334 . S
C356 H327 0.950 . S
C356 C355 1.334 . S
C356 C357 1.287 . S
C357 C356 1.287 . S
C357 C358 1.524 . S
C357 H360 0.999 . S
C358 H328 0.950 . S
C358 C357 1.524 . S
C358 C359 1.415 . S
C359 H329 0.950 . S
C359 C354 1.363 . S
C359 C358 1.415 . S
H360 C357 0.999 . S
H361 C342 0.913 . S
H362 C380 0.951 . S
H363 C382 0.951 . S
H364 C384 0.950 . S
H365 C385 0.950 . S
H366 C387 0.950 . S
H367 C390 0.950 . S
H368 C391 0.950 . S
H369 C393 0.950 . S
H370 C394 0.950 . S
H371 C395 0.951 . S
H372 C397 0.951 . S
H373 C399 0.950 . S
H374 C400 0.950 . S
H375 C402 0.950 . S
H376 C405 0.950 . S
H377 C406 0.950 . S
H378 C408 0.950 . S
H379 C409 0.950 . S
C380 H362 0.951 . S
C380 C381 1.366 . S
C380 C382 1.388 . S
C381 C380 1.366 . S
C381 C385 1.385 . S
C382 H363 0.951 . S
C382 C380 1.388 . S
C382 C383 1.366 . S
C383 C382 1.366 . S
C383 C384 1.414 . S
C383 C386 1.499 . S
C384 H364 0.950 . S
C384 C383 1.414 . S
C384 C385 1.374 . S
C385 H365 0.950 . S
C385 C381 1.385 . S
C385 C384 1.374 . S
C386 C383 1.499 . S
C386 C387 1.373 . S
C386 C388 1.389 . S
C387 H366 0.950 . S
C387 C386 1.373 . S
C387 C403 1.377 . S
C388 C386 1.389 . S
C388 C389 1.524 . S
C388 C402 1.377 . S
C389 C388 1.524 . S
C389 C390 1.397 . S
C389 C394 1.363 . S
C390 H367 0.950 . S
C390 C389 1.397 . S
C390 C391 1.334 . S
C391 H368 0.950 . S
C391 C390 1.334 . S
C391 C392 1.287 . S
C392 C391 1.287 . S
C392 C393 1.524 . S
C392 H411 0.913 . S
C393 H369 0.950 . S
C393 C392 1.524 . S
C393 C394 1.415 . S
C394 H370 0.950 . S
C394 C389 1.363 . S
C394 C393 1.415 . S
C395 H371 0.951 . S
C395 C396 1.366 . S
C395 C397 1.388 . S
C396 C395 1.366 . S
C396 C400 1.385 . S
C397 H372 0.951 . S
C397 C395 1.388 . S
C397 C398 1.366 . S
C398 C397 1.366 . S
C398 C399 1.414 . S
C398 C401 1.499 . S
C399 H373 0.950 . S
C399 C398 1.414 . S
C399 C400 1.374 . S
C400 H374 0.950 . S
C400 C396 1.385 . S
C400 C399 1.374 . S
C401 C398 1.499 . S
C401 C402 1.373 . S
C401 C403 1.389 . S
C402 H375 0.950 . S
C402 C388 1.377 . S
C402 C401 1.373 . S
C403 C387 1.377 . S
C403 C401 1.389 . S
C403 C404 1.524 . S
C404 C403 1.524 . S
C404 C405 1.397 . S
C404 C409 1.363 . S
C405 H376 0.950 . S
C405 C404 1.397 . S
C405 C406 1.334 . S
C406 H377 0.950 . S
C406 C405 1.334 . S
C406 C407 1.287 . S
C407 C406 1.287 . S
C407 C408 1.524 . S
C407 H410 0.999 . S
C408 H378 0.950 . S
C408 C407 1.524 . S
C408 C409 1.415 . S
C409 H379 0.950 . S
C409 C404 1.363 . S
C409 C408 1.415 . S
H410 C407 0.999 . S
H411 C392 0.913 . S
H412 C430 0.951 . S
H413 C432 0.951 . S
H414 C434 0.950 . S
H415 C435 0.950 . S
H416 C437 0.950 . S
H417 C440 0.950 . S
H418 C441 0.950 . S
H419 C443 0.950 . S
H420 C444 0.950 . S
H421 C445 0.951 . S
H422 C447 0.951 . S
H423 C449 0.950 . S
H424 C450 0.950 . S
H425 C452 0.950 . S
H426 C455 0.950 . S
H427 C456 0.950 . S
H428 C458 0.950 . S
H429 C459 0.950 . S
C430 H412 0.951 . S
C430 C431 1.366 . S
C430 C432 1.388 . S
C431 C430 1.366 . S
C431 C435 1.385 . S
C432 H413 0.951 . S
C432 C430 1.388 . S
C432 C433 1.366 . S
C433 C432 1.366 . S
C433 C434 1.414 . S
C433 C436 1.499 . S
C434 H414 0.950 . S
C434 C433 1.414 . S
C434 C435 1.374 . S
C435 H415 0.950 . S
C435 C431 1.385 . S
C435 C434 1.374 . S
C436 C433 1.499 . S
C436 C437 1.373 . S
C436 C438 1.389 . S
C437 H416 0.950 . S
C437 C436 1.373 . S
C437 C453 1.377 . S
C438 C436 1.389 . S
C438 C439 1.524 . S
C438 C452 1.377 . S
C439 C438 1.524 . S
C439 C440 1.397 . S
C439 C444 1.363 . S
C440 H417 0.950 . S
C440 C439 1.397 . S
C440 C441 1.334 . S
C441 H418 0.950 . S
C441 C440 1.334 . S
C441 C442 1.287 . S
C442 C441 1.287 . S
C442 C443 1.524 . S
C442 H461 0.913 . S
C443 H419 0.950 . S
C443 C442 1.524 . S
C443 C444 1.415 . S
C444 H420 0.950 . S
C444 C439 1.363 . S
C444 C443 1.415 . S
C445 H421 0.951 . S
C445 C446 1.366 . S
C445 C447 1.388 . S
C446 C445 1.366 . S
C446 C450 1.385 . S
C447 H422 0.951 . S
C447 C445 1.388 . S
C447 C448 1.366 . S
C448 C447 1.366 . S
C448 C449 1.414 . S
C448 C451 1.499 . S
C449 H423 0.950 . S
C449 C448 1.414 . S
C449 C450 1.374 . S
C450 H424 0.950 . S
C450 C446 1.385 . S
C450 C449 1.374 . S
C451 C448 1.499 . S
C451 C452 1.373 . S
C451 C453 1.389 . S
C452 H425 0.950 . S
C452 C438 1.377 . S
C452 C451 1.373 . S
C453 C437 1.377 . S
C453 C451 1.389 . S
C453 C454 1.524 . S
C454 C453 1.524 . S
C454 C455 1.397 . S
C454 C459 1.363 . S
C455 H426 0.950 . S
C455 C454 1.397 . S
C455 C456 1.334 . S
C456 H427 0.950 . S
C456 C455 1.334 . S
C456 C457 1.287 . S
C457 C456 1.287 . S
C457 C458 1.524 . S
C457 H460 0.999 . S
C458 H428 0.950 . S
C458 C457 1.524 . S
C458 C459 1.415 . S
C459 H429 0.950 . S
C459 C454 1.363 . S
C459 C458 1.415 . S
H460 C457 0.999 . S
H461 C442 0.913 . S
H462 C480 0.951 . S
H463 C482 0.951 . S
H464 C484 0.950 . S
H465 C485 0.950 . S
H466 C487 0.950 . S
H467 C490 0.950 . S
H468 C491 0.950 . S
H469 C493 0.950 . S
H470 C494 0.950 . S
H471 C495 0.951 . S
H472 C497 0.951 . S
H473 C499 0.950 . S
H474 C500 0.950 . S
H475 C502 0.950 . S
H476 C505 0.950 . S
H477 C506 0.950 . S
H478 C508 0.950 . S
H479 C509 0.950 . S
C480 H462 0.951 . S
C480 C481 1.366 . S
C480 C482 1.388 . S
C481 C480 1.366 . S
C481 C485 1.385 . S
C482 H463 0.951 . S
C482 C480 1.388 . S
C482 C483 1.366 . S
C483 C482 1.366 . S
C483 C484 1.414 . S
C483 C486 1.499 . S
C484 H464 0.950 . S
C484 C483 1.414 . S
C484 C485 1.374 . S
C485 H465 0.950 . S
C485 C481 1.385 . S
C485 C484 1.374 . S
C486 C483 1.499 . S
C486 C487 1.373 . S
C486 C488 1.389 . S
C487 H466 0.950 . S
C487 C486 1.373 . S
C487 C503 1.377 . S
C488 C486 1.389 . S
C488 C489 1.524 . S
C488 C502 1.377 . S
C489 C488 1.524 . S
C489 C490 1.397 . S
C489 C494 1.363 . S
C490 H467 0.950 . S
C490 C489 1.397 . S
C490 C491 1.334 . S
C491 H468 0.950 . S
C491 C490 1.334 . S
C491 C492 1.287 . S
C492 C491 1.287 . S
C492 C493 1.524 . S
C492 H511 0.913 . S
C493 H469 0.950 . S
C493 C492 1.524 . S
C493 C494 1.415 . S
C494 H470 0.950 . S
C494 C489 1.363 . S
C494 C493 1.415 . S
C495 H471 0.951 . S
C495 C496 1.366 . S
C495 C497 1.388 . S
C496 C495 1.366 . S
C496 C500 1.385 . S
C497 H472 0.951 . S
C497 C495 1.388 . S
C497 C498 1.366 . S
C498 C497 1.366 . S
C498 C499 1.414 . S
C498 C501 1.499 . S
C499 H473 0.950 . S
C499 C498 1.414 . S
C499 C500 1.374 . S
C500 H474 0.950 . S
C500 C496 1.385 . S
C500 C499 1.374 . S
C501 C498 1.499 . S
C501 C502 1.373 . S
C501 C503 1.389 . S
C502 H475 0.950 . S
C502 C488 1.377 . S
C502 C501 1.373 . S
C503 C487 1.377 . S
C503 C501 1.389 . S
C503 C504 1.524 . S
C504 C503 1.524 . S
C504 C505 1.397 . S
C504 C509 1.363 . S
C505 H476 0.950 . S
C505 C504 1.397 . S
C505 C506 1.334 . S
C506 H477 0.950 . S
C506 C505 1.334 . S
C506 C507 1.287 . S
C507 C506 1.287 . S
C507 C508 1.524 . S
C507 H510 0.999 . S
C508 H478 0.950 . S
C508 C507 1.524 . S
C508 C509 1.415 . S
C509 H479 0.950 . S
C509 C504 1.363 . S
C509 C508 1.415 . S
H510 C507 0.999 . S
H511 C492 0.913 . S
H512 C530 0.951 . S
H513 C532 0.951 . S
H514 C534 0.950 . S
H515 C535 0.950 . S
H516 C537 0.950 . S
H517 C540 0.950 . S
H518 C541 0.950 . S
H519 C543 0.950 . S
H520 C544 0.950 . S
H521 C545 0.951 . S
H522 C547 0.951 . S
H523 C549 0.950 . S
H524 C550 0.950 . S
H525 C552 0.950 . S
H526 C555 0.950 . S
H527 C556 0.950 . S
H528 C558 0.950 . S
H529 C559 0.950 . S
C530 H512 0.951 . S
C530 C531 1.366 . S
C530 C532 1.388 . S
C531 C530 1.366 . S
C531 C535 1.385 . S
C532 H513 0.951 . S
C532 C530 1.388 . S
C532 C533 1.366 . S
C533 C532 1.366 . S
C533 C534 1.414 . S
C533 C536 1.499 . S
C534 H514 0.950 . S
C534 C533 1.414 . S
C534 C535 1.374 . S
C535 H515 0.950 . S
C535 C531 1.385 . S
C535 C534 1.374 . S
C536 C533 1.499 . S
C536 C537 1.373 1_554 S
C536 C538 1.389 . S
C537 H516 0.950 . S
C537 C536 1.373 1_556 S
C537 C553 1.377 1_655 S
C538 C536 1.389 . S
C538 C539 1.524 . S
C538 C552 1.377 1_655 S
C539 C538 1.524 . S
C539 C540 1.397 . S
C539 C544 1.363 . S
C540 H517 0.950 . S
C540 C539 1.397 . S
C540 C541 1.334 . S
C541 H518 0.950 . S
C541 C540 1.334 . S
C541 C542 1.287 . S
C542 C541 1.287 . S
C542 C543 1.524 . S
C542 H561 0.913 . S
C543 H519 0.950 . S
C543 C542 1.524 . S
C543 C544 1.415 . S
C544 H520 0.950 . S
C544 C539 1.363 . S
C544 C543 1.415 . S
C545 H521 0.951 . S
C545 C546 1.366 . S
C545 C547 1.388 . S
C546 C545 1.366 . S
C546 C550 1.385 . S
C547 H522 0.951 . S
C547 C545 1.388 . S
C547 C548 1.366 . S
C548 C547 1.366 . S
C548 C549 1.414 . S
C548 C551 1.499 . S
C549 H523 0.950 . S
C549 C548 1.414 . S
C549 C550 1.374 . S
C550 H524 0.950 . S
C550 C546 1.385 . S
C550 C549 1.374 . S
C551 C548 1.499 . S
C551 C552 1.373 . S
C551 C553 1.389 1_554 S
C552 H525 0.950 . S
C552 C538 1.377 1_455 S
C552 C551 1.373 . S
C553 C537 1.377 1_455 S
C553 C551 1.389 1_556 S
C553 C554 1.524 . S
C554 C553 1.524 . S
C554 C555 1.397 . S
C554 C559 1.363 . S
C555 H526 0.950 . S
C555 C554 1.397 . S
C555 C556 1.334 . S
C556 H527 0.950 . S
C556 C555 1.334 . S
C556 C557 1.287 . S
C557 C556 1.287 . S
C557 C558 1.524 . S
C557 H560 0.999 . S
C558 H528 0.950 . S
C558 C557 1.524 . S
C558 C559 1.415 . S
C559 H529 0.950 . S
C559 C554 1.363 . S
C559 C558 1.415 . S
H560 C557 0.999 . S
H561 C542 0.913 . S
H562 C580 0.951 . S
H563 C582 0.951 . S
H564 C584 0.950 . S
H565 C585 0.950 . S
H566 C587 0.950 . S
H567 C590 0.950 . S
H568 C591 0.950 . S
H569 C593 0.950 . S
H570 C594 0.950 1_545 S
H571 C595 0.951 . S
H572 C597 0.951 . S
H573 C599 0.950 . S
H574 C600 0.950 . S
H575 C602 0.950 . S
H576 C605 0.950 . S
H577 C606 0.950 . S
H578 C608 0.950 . S
H579 C609 0.950 1_565 S
C580 H562 0.951 . S
C580 C581 1.366 . S
C580 C582 1.388 . S
C581 C580 1.366 . S
C581 C585 1.385 . S
C582 H563 0.951 . S
C582 C580 1.388 . S
C582 C583 1.366 . S
C583 C582 1.366 . S
C583 C584 1.414 . S
C583 C586 1.499 . S
C584 H564 0.950 . S
C584 C583 1.414 . S
C584 C585 1.374 . S
C585 H565 0.950 . S
C585 C581 1.385 . S
C585 C584 1.374 . S
C586 C583 1.499 . S
C586 C587 1.373 . S
C586 C588 1.389 . S
C587 H566 0.950 . S
C587 C586 1.373 . S
C587 C603 1.377 1_565 S
C588 C586 1.389 . S
C588 C589 1.524 . S
C588 C602 1.377 1_565 S
C589 C588 1.524 . S
C589 C590 1.397 . S
C589 C594 1.363 . S
C590 H567 0.950 . S
C590 C589 1.397 . S
C590 C591 1.334 . S
C591 H568 0.950 . S
C591 C590 1.334 . S
C591 C592 1.287 . S
C592 C591 1.287 . S
C592 C593 1.524 . S
C592 H611 0.913 . S
C593 H569 0.950 . S
C593 C592 1.524 . S
C593 C594 1.415 . S
C594 H570 0.950 1_565 S
C594 C589 1.363 . S
C594 C593 1.415 . S
C595 H571 0.951 . S
C595 C596 1.366 . S
C595 C597 1.388 . S
C596 C595 1.366 . S
C596 C600 1.385 . S
C597 H572 0.951 . S
C597 C595 1.388 . S
C597 C598 1.366 . S
C598 C597 1.366 . S
C598 C599 1.414 . S
C598 C601 1.499 . S
C599 H573 0.950 . S
C599 C598 1.414 . S
C599 C600 1.374 . S
C600 H574 0.950 . S
C600 C596 1.385 . S
C600 C599 1.374 . S
C601 C598 1.499 . S
C601 C602 1.373 . S
C601 C603 1.389 . S
C602 H575 0.950 . S
C602 C588 1.377 1_545 S
C602 C601 1.373 . S
C603 C587 1.377 1_545 S
C603 C601 1.389 . S
C603 C604 1.524 . S
C604 C603 1.524 . S
C604 C605 1.397 . S
C604 C609 1.363 . S
C605 H576 0.950 . S
C605 C604 1.397 . S
C605 C606 1.334 . S
C606 H577 0.950 . S
C606 C605 1.334 . S
C606 C607 1.287 . S
C607 C606 1.287 . S
C607 C608 1.524 . S
C607 H610 0.999 . S
C608 H578 0.950 . S
C608 C607 1.524 . S
C608 C609 1.415 . S
C609 H579 0.950 1_545 S
C609 C604 1.363 . S
C609 C608 1.415 . S
H610 C607 0.999 . S
H611 C592 0.913 . S
H612 C630 0.951 . S
H613 C632 0.951 . S
H614 C634 0.950 . S
H615 C635 0.950 . S
H616 C637 0.950 . S
H617 C640 0.950 . S
H618 C641 0.950 . S
H619 C643 0.950 . S
H620 C644 0.950 . S
H621 C645 0.951 . S
H622 C647 0.951 . S
H623 C649 0.950 . S
H624 C650 0.950 . S
H625 C652 0.950 . S
H626 C655 0.950 . S
H627 C656 0.950 . S
H628 C658 0.950 . S
H629 C659 0.950 . S
C630 H612 0.951 . S
C630 C631 1.366 . S
C630 C632 1.388 . S
C631 C630 1.366 . S
C631 C635 1.385 . S
C632 H613 0.951 . S
C632 C630 1.388 . S
C632 C633 1.366 . S
C633 C632 1.366 . S
C633 C634 1.414 . S
C633 C636 1.499 . S
C634 H614 0.950 . S
C634 C633 1.414 . S
C634 C635 1.374 . S
C635 H615 0.950 . S
C635 C631 1.385 . S
C635 C634 1.374 . S
C636 C633 1.499 . S
C636 C637 1.373 . S
C636 C638 1.389 . S
C637 H616 0.950 . S
C637 C636 1.373 . S
C637 C653 1.377 1_455 S
C638 C636 1.389 . S
C638 C639 1.524 . S
C638 C652 1.377 1_455 S
C639 C638 1.524 . S
C639 C640 1.397 . S
C639 C644 1.363 . S
C640 H617 0.950 . S
C640 C639 1.397 . S
C640 C641 1.334 . S
C641 H618 0.950 . S
C641 C640 1.334 . S
C641 C642 1.287 . S
C642 C641 1.287 . S
C642 C643 1.524 . S
C642 H661 0.913 . S
C643 H619 0.950 . S
C643 C642 1.524 . S
C643 C644 1.415 . S
C644 H620 0.950 . S
C644 C639 1.363 . S
C644 C643 1.415 . S
C645 H621 0.951 . S
C645 C646 1.366 . S
C645 C647 1.388 . S
C646 C645 1.366 . S
C646 C650 1.385 . S
C647 H622 0.951 . S
C647 C645 1.388 . S
C647 C648 1.366 . S
C648 C647 1.366 . S
C648 C649 1.414 . S
C648 C651 1.499 . S
C649 H623 0.950 . S
C649 C648 1.414 . S
C649 C650 1.374 . S
C650 H624 0.950 . S
C650 C646 1.385 . S
C650 C649 1.374 . S
C651 C648 1.499 . S
C651 C652 1.373 . S
C651 C653 1.389 . S
C652 H625 0.950 . S
C652 C638 1.377 1_655 S
C652 C651 1.373 . S
C653 C637 1.377 1_655 S
C653 C651 1.389 . S
C653 C654 1.524 . S
C654 C653 1.524 . S
C654 C655 1.397 . S
C654 C659 1.363 . S
C655 H626 0.950 . S
C655 C654 1.397 . S
C655 C656 1.334 . S
C656 H627 0.950 . S
C656 C655 1.334 . S
C656 C657 1.287 . S
C657 C656 1.287 . S
C657 C658 1.524 . S
C657 H660 0.999 . S
C658 H628 0.950 . S
C658 C657 1.524 . S
C658 C659 1.415 . S
C659 H629 0.950 . S
C659 C654 1.363 . S
C659 C658 1.415 . S
H660 C657 0.999 . S
H661 C642 0.913 . S
H662 C680 0.951 . S
H663 C682 0.951 . S
H664 C684 0.950 . S
H665 C685 0.950 . S
H666 C687 0.950 . S
H667 C690 0.950 . S
H668 C691 0.950 . S
H669 C693 0.950 . S
H670 C694 0.950 1_545 S
H671 C695 0.951 . S
H672 C697 0.951 . S
H673 C699 0.950 . S
H674 C700 0.950 . S
H675 C702 0.950 . S
H676 C705 0.950 . S
H677 C706 0.950 . S
H678 C708 0.950 . S
H679 C709 0.950 1_565 S
C680 H662 0.951 . S
C680 C681 1.379 . S
C680 C682 1.388 . S
C681 C680 1.379 . S
C681 C685 1.373 1_554 S
C682 H663 0.951 . S
C682 C680 1.388 . S
C682 C683 1.366 . S
C683 C682 1.366 . S
C683 C684 1.414 1_554 S
C683 C686 1.499 . S
C684 H664 0.950 . S
C684 C683 1.414 1_556 S
C684 C685 1.374 . S
C685 H665 0.950 . S
C685 C681 1.373 1_556 S
C685 C684 1.374 . S
C686 C683 1.499 . S
C686 C687 1.373 1_554 S
C686 C688 1.389 . S
C687 H666 0.950 . S
C687 C686 1.373 1_556 S
C687 C703 1.377 1_565 S
C688 C686 1.389 . S
C688 C689 1.524 . S
C688 C702 1.377 1_565 S
C689 C688 1.524 . S
C689 C690 1.397 . S
C689 C694 1.363 . S
C690 H667 0.950 . S
C690 C689 1.397 . S
C690 C691 1.334 . S
C691 H668 0.950 . S
C691 C690 1.334 . S
C691 C692 1.287 . S
C692 C691 1.287 . S
C692 C693 1.524 . S
C692 H711 0.913 . S
C693 H669 0.950 . S
C693 C692 1.524 . S
C693 C694 1.415 . S
C694 H670 0.950 1_565 S
C694 C689 1.363 . S
C694 C693 1.415 . S
C695 H671 0.951 . S
C695 C696 1.366 1_556 S
C695 C697 1.388 . S
C696 C695 1.366 1_554 S
C696 C700 1.385 . S
C697 H672 0.951 . S
C697 C695 1.388 . S
C697 C698 1.374 . S
C698 C697 1.374 . S
C698 C699 1.405 1_556 S
C698 C701 1.499 . S
C699 H673 0.950 . S
C699 C698 1.405 1_554 S
C699 C700 1.374 . S
C700 H674 0.950 . S
C700 C696 1.385 . S
C700 C699 1.374 . S
C701 C698 1.499 . S
C701 C702 1.367 1_556 S
C701 C703 1.395 . S
C702 H675 0.950 . S
C702 C688 1.377 1_545 S
C702 C701 1.367 1_554 S
C703 C687 1.377 1_545 S
C703 C701 1.395 . S
C703 C704 1.524 . S
C704 C703 1.524 . S
C704 C705 1.397 . S
C704 C709 1.363 . S
C705 H676 0.950 . S
C705 C704 1.397 . S
C705 C706 1.334 . S
C706 H677 0.950 . S
C706 C705 1.334 . S
C706 C707 1.287 . S
C707 C706 1.287 . S
C707 C708 1.524 . S
C707 H710 0.999 . S
C708 H678 0.950 . S
C708 C707 1.524 . S
C708 C709 1.415 . S
C709 H679 0.950 1_545 S
C709 C704 1.363 . S
C709 C708 1.415 . S
H710 C707 0.999 . S
H711 C692 0.913 . S
H712 C730 0.951 . S
H713 C732 0.951 . S
H714 C734 0.950 . S
H715 C735 0.950 . S
H716 C737 0.950 . S
H717 C740 0.950 . S
H718 C741 0.950 . S
H719 C743 0.950 . S
H720 C744 0.950 . S
H721 C745 0.951 . S
H722 C747 0.951 . S
H723 C749 0.950 . S
H724 C750 0.950 . S
H725 C752 0.950 . S
H726 C755 0.950 . S
H727 C756 0.950 1_556 S
H728 C758 0.950 . S
H729 C759 0.950 . S
C730 H712 0.951 . S
C730 C731 1.366 1_556 S
C730 C732 1.388 . S
C731 C730 1.366 1_554 S
C731 C735 1.385 . S
C732 H713 0.951 . S
C732 C730 1.388 . S
C732 C733 1.366 1_556 S
C733 C732 1.366 1_554 S
C733 C734 1.414 . S
C733 C736 1.499 . S
C734 H714 0.950 . S
C734 C733 1.414 . S
C734 C735 1.374 . S
C735 H715 0.950 . S
C735 C731 1.385 . S
C735 C734 1.374 . S
C736 C733 1.499 . S
C736 C737 1.373 . S
C736 C738 1.389 . S
C737 H716 0.950 . S
C737 C736 1.373 . S
C737 C753 1.377 . S
C738 C736 1.389 . S
C738 C739 1.524 1_554 S
C738 C752 1.377 1_554 S
C739 C738 1.524 1_556 S
C739 C740 1.397 1_556 S
C739 C744 1.363 . S
C740 H717 0.950 . S
C740 C739 1.397 1_554 S
C740 C741 1.334 . S
C741 H718 0.950 . S
C741 C740 1.334 . S
C741 C742 1.287 1_554 S
C742 C741 1.287 1_556 S
C742 C743 1.524 . S
C742 H761 0.913 . S
C743 H719 0.950 . S
C743 C742 1.524 . S
C743 C744 1.415 . S
C744 H720 0.950 . S
C744 C739 1.363 . S
C744 C743 1.415 . S
C745 H721 0.951 . S
C745 C746 1.366 1_554 S
C745 C747 1.388 . S
C746 C745 1.366 1_556 S
C746 C750 1.385 . S
C747 H722 0.951 . S
C747 C745 1.388 . S
C747 C748 1.366 . S
C748 C747 1.366 . S
C748 C749 1.414 1_554 S
C748 C751 1.499 . S
C749 H723 0.950 . S
C749 C748 1.414 1_556 S
C749 C750 1.374 . S
C750 H724 0.950 . S
C750 C746 1.385 . S
C750 C749 1.374 . S
C751 C748 1.499 . S
C751 C752 1.373 1_554 S
C751 C753 1.389 . S
C752 H725 0.950 . S
C752 C738 1.377 1_556 S
C752 C751 1.373 1_556 S
C753 C737 1.377 . S
C753 C751 1.389 . S
C753 C754 1.524 . S
C754 C753 1.524 . S
C754 C755 1.397 1_554 S
C754 C759 1.363 . S
C755 H726 0.950 . S
C755 C754 1.397 1_556 S
C755 C756 1.334 1_556 S
C756 H727 0.950 1_554 S
C756 C755 1.334 1_554 S
C756 C757 1.287 . S
C757 C756 1.287 . S
C757 C758 1.524 . S
C757 H760 0.999 . S
C758 H728 0.950 . S
C758 C757 1.524 . S
C758 C759 1.415 . S
C759 H729 0.950 . S
C759 C754 1.363 . S
C759 C758 1.415 . S
H760 C757 0.999 . S
H761 C742 0.913 . S
H762 C780 0.951 . S
H763 C782 0.951 . S
H764 C784 0.950 . S
H765 C785 0.950 . S
H766 C787 0.950 . S
H767 C790 0.950 . S
H768 C791 0.950 . S
H769 C793 0.950 . S
H770 C794 0.950 . S
H771 C795 0.951 . S
H772 C797 0.951 . S
H773 C799 0.950 . S
H774 C800 0.950 . S
H775 C802 0.950 . S
H776 C805 0.950 . S
H777 C806 0.950 . S
H778 C808 0.950 . S
H779 C809 0.950 . S
C780 H762 0.951 . S
C780 C781 1.366 . S
C780 C782 1.388 . S
C781 C780 1.366 . S
C781 C785 1.385 . S
C782 H763 0.951 . S
C782 C780 1.388 . S
C782 C783 1.366 . S
C783 C782 1.366 . S
C783 C784 1.414 . S
C783 C786 1.499 . S
C784 H764 0.950 . S
C784 C783 1.414 . S
C784 C785 1.374 . S
C785 H765 0.950 . S
C785 C781 1.385 . S
C785 C784 1.374 . S
C786 C783 1.499 . S
C786 C787 1.373 . S
C786 C788 1.389 . S
C787 H766 0.950 . S
C787 C786 1.373 . S
C787 C803 1.377 . S
C788 C786 1.389 . S
C788 C789 1.524 . S
C788 C802 1.377 . S
C789 C788 1.524 . S
C789 C790 1.397 . S
C789 C794 1.363 . S
C790 H767 0.950 . S
C790 C789 1.397 . S
C790 C791 1.334 . S
C791 H768 0.950 . S
C791 C790 1.334 . S
C791 C792 1.287 . S
C792 C791 1.287 . S
C792 C793 1.524 . S
C792 H811 0.913 . S
C793 H769 0.950 . S
C793 C792 1.524 . S
C793 C794 1.415 . S
C794 H770 0.950 . S
C794 C789 1.363 . S
C794 C793 1.415 . S
C795 H771 0.951 . S
C795 C796 1.366 . S
C795 C797 1.388 . S
C796 C795 1.366 . S
C796 C800 1.385 . S
C797 H772 0.951 . S
C797 C795 1.388 . S
C797 C798 1.366 . S
C798 C797 1.366 . S
C798 C799 1.414 . S
C798 C801 1.499 . S
C799 H773 0.950 . S
C799 C798 1.414 . S
C799 C800 1.374 . S
C800 H774 0.950 . S
C800 C796 1.385 . S
C800 C799 1.374 . S
C801 C798 1.499 . S
C801 C802 1.373 . S
C801 C803 1.389 . S
C802 H775 0.950 . S
C802 C788 1.377 . S
C802 C801 1.373 . S
C803 C787 1.377 . S
C803 C801 1.389 . S
C803 C804 1.524 . S
C804 C803 1.524 . S
C804 C805 1.397 . S
C804 C809 1.363 . S
C805 H776 0.950 . S
C805 C804 1.397 . S
C805 C806 1.334 . S
C806 H777 0.950 . S
C806 C805 1.334 . S
C806 C807 1.287 . S
C807 C806 1.287 . S
C807 C808 1.524 . S
C807 H810 0.999 . S
C808 H778 0.950 . S
C808 C807 1.524 . S
C808 C809 1.415 . S
C809 H779 0.950 . S
C809 C804 1.363 . S
C809 C808 1.415 . S
H810 C807 0.999 . S
H811 C792 0.913 . S
H812 C830 0.951 . S
H813 C832 0.951 . S
H814 C834 0.950 . S
H815 C835 0.950 . S
H816 C837 0.950 . S
H817 C840 0.950 . S
H818 C841 0.950 . S
H819 C843 0.950 . S
H820 C844 0.950 . S
H821 C845 0.951 . S
H822 C847 0.951 . S
H823 C849 0.950 . S
H824 C850 0.950 . S
H825 C852 0.950 . S
H826 C855 0.950 . S
H827 C856 0.950 . S
H828 C858 0.950 . S
H829 C859 0.950 . S
C830 H812 0.951 . S
C830 C831 1.366 1_556 S
C830 C832 1.388 . S
C831 C830 1.366 1_554 S
C831 C835 1.385 . S
C832 H813 0.951 . S
C832 C830 1.388 . S
C832 C833 1.366 1_556 S
C833 C832 1.366 1_554 S
C833 C834 1.414 . S
C833 C836 1.499 . S
C834 H814 0.950 . S
C834 C833 1.414 . S
C834 C835 1.374 . S
C835 H815 0.950 . S
C835 C831 1.385 . S
C835 C834 1.374 . S
C836 C833 1.499 . S
C836 C837 1.373 . S
C836 C838 1.389 1_554 S
C837 H816 0.950 . S
C837 C836 1.373 . S
C837 C853 1.377 . S
C838 C836 1.389 1_556 S
C838 C839 1.524 . S
C838 C852 1.377 . S
C839 C838 1.524 . S
C839 C840 1.397 . S
C839 C844 1.363 . S
C840 H817 0.950 . S
C840 C839 1.397 . S
C840 C841 1.334 . S
C841 H818 0.950 . S
C841 C840 1.334 . S
C841 C842 1.287 . S
C842 C841 1.287 . S
C842 C843 1.524 . S
C842 H861 0.913 . S
C843 H819 0.950 . S
C843 C842 1.524 . S
C843 C844 1.415 . S
C844 H820 0.950 . S
C844 C839 1.363 . S
C844 C843 1.415 . S
C845 H821 0.951 . S
C845 C846 1.366 1_554 S
C845 C847 1.388 . S
C846 C845 1.366 1_556 S
C846 C850 1.385 . S
C847 H822 0.951 . S
C847 C845 1.388 . S
C847 C848 1.366 . S
C848 C847 1.366 . S
C848 C849 1.414 1_554 S
C848 C851 1.499 . S
C849 H823 0.950 . S
C849 C848 1.414 1_556 S
C849 C850 1.374 . S
C850 H824 0.950 . S
C850 C846 1.385 . S
C850 C849 1.374 . S
C851 C848 1.499 . S
C851 C852 1.373 1_554 S
C851 C853 1.389 . S
C852 H825 0.950 . S
C852 C838 1.377 . S
C852 C851 1.373 1_556 S
C853 C837 1.377 . S
C853 C851 1.389 . S
C853 C854 1.524 . S
C854 C853 1.524 . S
C854 C855 1.397 . S
C854 C859 1.363 . S
C855 H826 0.950 . S
C855 C854 1.397 . S
C855 C856 1.334 . S
C856 H827 0.950 . S
C856 C855 1.334 . S
C856 C857 1.287 . S
C857 C856 1.287 . S
C857 C858 1.524 . S
C857 H860 0.999 . S
C858 H828 0.950 . S
C858 C857 1.524 . S
C858 C859 1.415 . S
C859 H829 0.950 . S
C859 C854 1.363 . S
C859 C858 1.415 . S
H860 C857 0.999 . S
H861 C842 0.913 . S
H862 C880 0.951 . S
H863 C882 0.951 . S
H864 C884 0.950 . S
H865 C885 0.950 . S
H866 C887 0.950 . S
H867 C890 0.950 . S
H868 C891 0.950 . S
H869 C893 0.950 . S
H870 C894 0.950 . S
H871 C895 0.951 . S
H872 C897 0.951 . S
H873 C899 0.950 . S
H874 C900 0.950 . S
H875 C902 0.950 . S
H876 C905 0.950 . S
H877 C906 0.950 . S
H878 C908 0.950 . S
H879 C909 0.950 . S
C880 H862 0.951 . S
C880 C881 1.366 . S
C880 C882 1.388 . S
C881 C880 1.366 . S
C881 C885 1.385 . S
C882 H863 0.951 . S
C882 C880 1.388 . S
C882 C883 1.366 . S
C883 C882 1.366 . S
C883 C884 1.414 . S
C883 C886 1.499 . S
C884 H864 0.950 . S
C884 C883 1.414 . S
C884 C885 1.374 . S
C885 H865 0.950 . S
C885 C881 1.385 . S
C885 C884 1.374 . S
C886 C883 1.499 . S
C886 C887 1.373 . S
C886 C888 1.389 . S
C887 H866 0.950 . S
C887 C886 1.373 . S
C887 C903 1.377 . S
C888 C886 1.389 . S
C888 C889 1.524 . S
C888 C902 1.377 . S
C889 C888 1.524 . S
C889 C890 1.397 . S
C889 C894 1.363 . S
C890 H867 0.950 . S
C890 C889 1.397 . S
C890 C891 1.334 . S
C891 H868 0.950 . S
C891 C890 1.334 . S
C891 C892 1.287 . S
C892 C891 1.287 . S
C892 C893 1.524 . S
C892 H911 0.913 . S
C893 H869 0.950 . S
C893 C892 1.524 . S
C893 C894 1.415 . S
C894 H870 0.950 . S
C894 C889 1.363 . S
C894 C893 1.415 . S
C895 H871 0.951 . S
C895 C896 1.366 . S
C895 C897 1.388 . S
C896 C895 1.366 . S
C896 C900 1.385 . S
C897 H872 0.951 . S
C897 C895 1.388 . S
C897 C898 1.366 . S
C898 C897 1.366 . S
C898 C899 1.414 . S
C898 C901 1.499 . S
C899 H873 0.950 . S
C899 C898 1.414 . S
C899 C900 1.374 . S
C900 H874 0.950 . S
C900 C896 1.385 . S
C900 C899 1.374 . S
C901 C898 1.499 . S
C901 C902 1.373 . S
C901 C903 1.389 . S
C902 H875 0.950 . S
C902 C888 1.377 . S
C902 C901 1.373 . S
C903 C887 1.377 . S
C903 C901 1.389 . S
C903 C904 1.524 . S
C904 C903 1.524 . S
C904 C905 1.397 . S
C904 C909 1.363 . S
C905 H876 0.950 . S
C905 C904 1.397 . S
C905 C906 1.334 . S
C906 H877 0.950 . S
C906 C905 1.334 . S
C906 C907 1.287 . S
C907 C906 1.287 . S
C907 C908 1.524 . S
C907 H910 0.999 . S
C908 H878 0.950 . S
C908 C907 1.524 . S
C908 C909 1.415 . S
C909 H879 0.950 . S
C909 C904 1.363 . S
C909 C908 1.415 . S
H910 C907 0.999 . S
H911 C892 0.913 . S
C131 C8 1.723 . S
C146 C64 1.724 . S
C181 C22 1.723 . S
C196 C78 1.723 . S
C231 C92 1.723 . S
C246 C36 1.723 . S
C281 C106 1.723 . S
C296 C50 1.723 . S
C331 C91 0.922 . S
C346 C35 0.922 . S
C381 C105 0.922 . S
C396 C49 0.922 . S
C431 C7 0.922 . S
C446 C63 0.922 . S
C481 C21 0.923 . S
C496 C77 0.923 . S
C531 C37 1.242 . S
C546 C9 1.243 . S
C581 C51 1.243 . S
C596 C23 1.242 . S
C631 C65 1.242 . S
C646 C93 1.242 . S
C681 C107 1.247 . S
C696 C79 1.242 . S
C731 C6 1.398 . S
C746 C76 1.397 . S
C781 C90 1.397 . S
C796 C20 1.397 . S
C831 C34 1.398 . S
C846 C104 1.397 . S
C881 C48 1.397 . S
C896 C62 1.398 . S
