# Generated by pormake.
# Topology bsn, (6)-cn, num edge types: 1
# Building blocks:
#     Node 0, Type 0, BuildingBlock: BETDEL_clean_sbu_0, # of connection points: 6
#     Node 1, Type 0, BuildingBlock: BETDEL_clean_sbu_0, # of connection points: 6
#     Node 2, Type 0, BuildingBlock: BETDEL_clean_sbu_0, # of connection points: 6
#     Node 3, Type 0, BuildingBlock: BETDEL_clean_sbu_0, # of connection points: 6
#     Edge 4, Type (0, 0), BuildingBlock: UVAHIK_clean_linker_0, # of connection points: 2
#     Edge 5, Type (0, 0), BuildingBlock: UVAHIK_clean_linker_0, # of connection points: 2
#     Edge 6, Type (0, 0), BuildingBlock: UVAHIK_clean_linker_0, # of connection points: 2
#     Edge 7, Type (0, 0), BuildingBlock: UVAHIK_clean_linker_0, # of connection points: 2
#     Edge 8, Type (0, 0), BuildingBlock: UVAHIK_clean_linker_0, # of connection points: 2
#     Edge 9, Type (0, 0), BuildingBlock: UVAHIK_clean_linker_0, # of connection points: 2
#     Edge 10, Type (0, 0), BuildingBlock: UVAHIK_clean_linker_0, # of connection points: 2
#     Edge 11, Type (0, 0), BuildingBlock: UVAHIK_clean_linker_0, # of connection points: 2
#     Edge 12, Type (0, 0), BuildingBlock: UVAHIK_clean_linker_0, # of connection points: 2
#     Edge 13, Type (0, 0), BuildingBlock: UVAHIK_clean_linker_0, # of connection points: 2
#     Edge 14, Type (0, 0), BuildingBlock: UVAHIK_clean_linker_0, # of connection points: 2
#     Edge 15, Type (0, 0), BuildingBlock: UVAHIK_clean_linker_0, # of connection points: 2
# Relax obj value: 0.363
# Max RMSD: 0.270
# Mean RMSD: 0.270
data_MOF--net-bsn--node1-BETDEL_clean_sbu_0--edge1-UVAHIK_clean_linker_0
_symmetry_space_group_name_H-M    P1
_symmetry_Int_Tables_number       1
_symmetry_cell_setting            triclinic
loop_
_symmetry_equiv_pos_as_xyz
'x, y, z'
_cell_length_a     41.328973
_cell_length_b     41.281747
_cell_length_c     18.895687
_cell_angle_alpha  93.475794
_cell_angle_beta   92.47168
_cell_angle_gamma 89.693004
loop_
_atom_site_label
_atom_site_type_symbol
_atom_site_fract_x
_atom_site_fract_y
_atom_site_fract_z
_atom_type_partial_charge
Dy0 Dy 0.0494 0.25256 0.34196 0.0
C1 C 0.91137 0.25273 0.36258 0.0
C2 C 0.11136 0.25924 0.29977 0.0
Dy3 Dy 0.97708 0.2563 0.35067 0.0
O4 O 0.1031 0.24399 0.35425 0.0
O5 O 0.08574 0.27083 0.26798 0.0
O6 O 0.05548 0.22782 0.44353 0.0
O7 O 0.01698 0.2606 0.43027 0.0
C8 C 0.02923 0.2399 0.47007 0.0
C9 C 0.99953 0.26756 0.22278 0.0
O10 O 0.98968 0.30449 0.40401 0.0
O11 O 0.04158 0.30657 0.36351 0.0
O12 O 0.93008 0.22849 0.34522 0.0
O13 O 0.92877 0.27857 0.37588 0.0
O14 O 0.97452 0.28183 0.24913 0.0
O15 O 1.00969 0.24646 0.26339 0.0
O16 O 0.03634 0.2011 0.30992 0.0
O17 O 0.98665 0.20333 0.36225 0.0
C18 C 0.01626 0.32092 0.39325 0.0
C19 C 1.01093 0.18657 0.3344 0.0
Dy20 Dy 0.01149 0.79533 0.57734 0.0
C21 C 0.01845 0.65878 0.61321 0.0
C22 C 1.00995 0.85549 0.524 0.0
Dy23 Dy 1.00824 0.7232 0.59423 0.0
O24 O 0.02847 0.84691 0.57677 0.0
O25 O 0.99182 0.83124 0.50034 0.0
O26 O 0.02827 0.80684 0.68975 0.0
O27 O 0.99891 0.76593 0.66508 0.0
C28 C 0.01632 0.78071 0.7131 0.0
C29 C 1.00183 0.74102 0.46014 0.0
O30 O 0.95614 0.73387 0.60921 0.0
O31 O 0.95722 0.7872 0.5755 0.0
O32 O 0.03685 0.67728 0.57943 0.0
O33 O 0.99436 0.67564 0.63835 0.0
O34 O 0.98679 0.71674 0.4836 0.0
O35 O 0.02124 0.7531 0.50754 0.0
O36 O 0.06367 0.78072 0.57092 0.0
O37 O 0.058 0.73603 0.63648 0.0
C38 C 0.94124 0.76107 0.59273 0.0
C39 C 0.07639 0.75818 0.61079 0.0
Dy40 Dy 0.54728 0.76631 0.83195 0.0
C41 C 0.40982 0.7707 0.85373 0.0
C42 C 0.60857 0.7643 0.78277 0.0
Dy43 Dy 0.47506 0.76179 0.84368 0.0
O44 O 0.59946 0.78173 0.8378 0.0
O45 O 0.58423 0.74759 0.75463 0.0
O46 O 0.55548 0.7863 0.94331 0.0
O47 O 0.51624 0.75479 0.91827 0.0
C48 C 0.5294 0.77374 0.9659 0.0
C49 C 0.49631 0.75295 0.71188 0.0
O50 O 0.48578 0.81276 0.88346 0.0
O51 O 0.53215 0.81805 0.82179 0.0
O52 O 0.42885 0.78804 0.81876 0.0
O53 O 0.42659 0.74856 0.8853 0.0
O54 O 0.47227 0.73732 0.73483 0.0
O55 O 0.50658 0.77381 0.75863 0.0
O56 O 0.54033 0.71189 0.83364 0.0
O57 O 0.48622 0.71027 0.86292 0.0
C58 C 0.50836 0.83106 0.85886 0.0
C59 C 0.51414 0.69567 0.84982 0.0
Dy60 Dy 0.51496 0.30352 0.09408 0.0
C61 C 0.51801 0.16565 0.1104 0.0
C62 C 0.5136 0.36532 0.0494 0.0
Dy63 Dy 0.51011 0.23115 0.10244 0.0
O64 O 0.53054 0.35572 0.10358 0.0
O65 O 0.49694 0.3412 0.01966 0.0
O66 O 0.53621 0.31114 0.20436 0.0
O67 O 0.50447 0.27218 0.17981 0.0
C68 C 0.5239 0.28495 0.22658 0.0
C69 C 0.50021 0.25281 -0.02782 0.0
O70 O 0.46011 0.24373 0.13335 0.0
O71 O 0.46054 0.29674 0.09835 0.0
O72 O 0.53691 0.18467 0.07926 0.0
O73 O 0.49485 0.18256 0.13921 0.0
O74 O 0.48474 0.22873 -0.00476 0.0
O75 O 0.5214 0.26286 0.01789 0.0
O76 O 0.56639 0.28817 0.07871 0.0
O77 O 0.56157 0.24095 0.13677 0.0
C78 C 0.44495 0.2712 0.11993 0.0
C79 C 0.57957 0.26364 0.11181 0.0
C80 C 0.99229 0.36997 0.45576 0.0
C81 C 0.01847 0.35524 0.42092 0.0
C82 C 0.9943 0.40205 0.48352 0.0
C83 C 0.03806 0.47834 0.46603 0.0
H84 H 1.00182 0.50337 0.64743 0.0
C85 C 0.05009 0.60873 0.58491 0.0
C86 C 0.02182 0.62317 0.61096 0.0
C87 C 0.05178 0.57524 0.57054 0.0
C88 C 0.01186 0.49679 0.59652 0.0
H89 H 0.06737 0.36282 0.38811 0.0
H90 H 0.0709 0.4189 0.43685 0.0
H91 H 1.00082 0.44647 0.60346 0.0
H92 H 0.97374 0.61394 0.64606 0.0
H93 H 0.97645 0.55516 0.6202 0.0
H94 H 0.04867 0.52855 0.45833 0.0
C95 C 0.0487 0.40561 0.44212 0.0
C96 C 1.01128 0.46421 0.57128 0.0
C97 C 0.04671 0.37343 0.41436 0.0
C98 C 0.99586 0.60334 0.62625 0.0
C99 C 0.99747 0.56971 0.61145 0.0
C100 C 0.03862 0.51085 0.49119 0.0
C101 C 0.02251 0.42027 0.47712 0.0
C102 C 0.02423 0.45464 0.50552 0.0
C103 C 0.02512 0.55542 0.58137 0.0
C104 C 0.02545 0.52052 0.55663 0.0
H105 H 0.97011 0.35674 0.46175 0.0
H106 H 0.9735 0.41273 0.5091 0.0
H107 H 0.04771 0.47193 0.41464 0.0
H108 H 0.07057 0.62347 0.57316 0.0
H109 H 0.07371 0.56496 0.54905 0.0
C110 C 0.6633 0.78907 0.7792 0.0
C111 C 0.64154 0.76426 0.75591 0.0
C112 C 0.69462 0.78928 0.75418 0.0
C113 C 0.75816 0.73633 0.6907 0.0
H114 H 0.79317 0.81245 0.6111 0.0
C115 C 0.88718 0.73434 0.58857 0.0
C116 C 0.90577 0.76272 0.59908 0.0
C117 C 0.85405 0.73496 0.60029 0.0
C118 C 0.78403 0.79112 0.63412 0.0
H119 H 0.63527 0.7202 0.68856 0.0
H120 H 0.69066 0.71997 0.64647 0.0
H121 H 0.73717 0.81276 0.64737 0.0
H122 H 0.90427 0.81413 0.62909 0.0
H123 H 0.84674 0.81511 0.65288 0.0
H124 H 0.80503 0.71507 0.68143 0.0
C125 C 0.68323 0.73943 0.68337 0.0
C126 C 0.75185 0.79128 0.65438 0.0
C127 C 0.65163 0.73959 0.70728 0.0
C128 C 0.89044 0.79194 0.62004 0.0
C129 C 0.85736 0.79245 0.63336 0.0
C130 C 0.79048 0.73636 0.67183 0.0
C131 C 0.70496 0.76433 0.70652 0.0
C132 C 0.73866 0.76388 0.68281 0.0
C133 C 0.83875 0.76384 0.62458 0.0
C134 C 0.80395 0.76374 0.64316 0.0
H135 H 0.65606 0.80843 0.81656 0.0
H136 H 0.71101 0.80859 0.77321 0.0
H137 H 0.74864 0.71506 0.71341 0.0
H138 H 0.89833 0.71152 0.57157 0.0
H139 H 0.84055 0.71262 0.59075 0.0
C140 C 0.49077 0.40913 -0.02426 0.0
C141 C 0.51449 0.39842 0.02434 0.0
C142 C 0.49178 0.44075 0.95298 0.0
C143 C 0.53023 0.52152 0.00016 0.0
H144 H 0.49837 0.54009 0.81083 0.0
C145 C 0.54593 0.64629 0.88128 0.0
C146 C 0.5165 0.66044 0.85912 0.0
C147 C 0.54713 0.61359 0.89699 0.0
C148 C 0.50737 0.53515 0.8638 0.0
H149 H 0.55831 0.41179 0.08589 0.0
H150 H 0.56109 0.46617 0.04401 0.0
H151 H 0.49787 0.48435 0.8472 0.0
H152 H 0.46564 0.65124 0.83297 0.0
H153 H 0.46805 0.59388 0.85833 0.0
H154 H 0.54047 0.57237 0.01556 0.0
C155 C 0.5409 0.45092 0.0252 0.0
C156 C 0.50685 0.50327 0.88503 0.0
C157 C 0.5395 0.41959 0.04893 0.0
C158 C 0.48864 0.64099 0.85021 0.0
C159 C 0.49001 0.60818 0.86438 0.0
C160 C 0.53133 0.55323 -0.02162 0.0
C161 C 0.51692 0.46213 -0.02265 0.0
C162 C 0.51804 0.49601 0.95379 0.0
C163 C 0.51911 0.59434 0.88917 0.0
C164 C 0.51969 0.56037 0.91026 0.0
H165 H 0.47117 0.39324 0.95619 0.0
H166 H 0.47253 0.44852 0.91715 0.0
H167 H 0.53838 0.51724 0.05401 0.0
H168 H 0.56773 0.66076 0.88899 0.0
H169 H 0.56988 0.60337 0.91586 0.0
C170 C 0.8593 0.22403 0.33033 0.0
C171 C 0.87587 0.25285 0.35109 0.0
C172 C 0.8267 0.22494 0.30736 0.0
C173 C 0.75402 0.27903 0.298 0.0
H174 H 0.72964 0.22068 0.13606 0.0
C175 C 0.63312 0.29128 0.13534 0.0
C176 C 0.61484 0.2626 0.12746 0.0
C177 C 0.6655 0.29044 0.16022 0.0
C178 C 0.73612 0.23706 0.18138 0.0
H179 H 0.87121 0.30504 0.36718 0.0
H180 H 0.81472 0.30683 0.32577 0.0
H181 H 0.78417 0.21796 0.18986 0.0
H182 H 0.61641 0.21045 0.13589 0.0
H183 H 0.67305 0.20894 0.17754 0.0
H184 H 0.70597 0.29852 0.28802 0.0
C185 C 0.82647 0.28339 0.32816 0.0
C186 C 0.76728 0.23533 0.21272 0.0
C187 C 0.85894 0.28242 0.35181 0.0
C188 C 0.62991 0.23295 0.14161 0.0
C189 C 0.66234 0.23205 0.16524 0.0
C190 C 0.72299 0.281 0.26602 0.0
C191 C 0.81013 0.25475 0.30392 0.0
C192 C 0.77662 0.25618 0.27173 0.0
C193 C 0.68025 0.26085 0.1763 0.0
C194 C 0.71371 0.25993 0.20762 0.0
H195 H 0.87181 0.20089 0.32945 0.0
H196 H 0.81471 0.20231 0.29081 0.0
H197 H 0.76013 0.29517 0.34388 0.0
H198 H 0.62204 0.31449 0.1253 0.0
H199 H 0.6789 0.31295 0.16779 0.0
C200 C 0.39684 0.252 0.18051 0.0
C201 C 0.41022 0.27389 0.13573 0.0
C202 C 0.36436 0.25425 0.1972 0.0
C203 C 0.28497 0.28062 0.13421 0.0
H204 H 0.26355 0.27623 0.33122 0.0
C205 C 0.15214 0.28355 0.22432 0.0
C206 C 0.14498 0.26329 0.27859 0.0
C207 C 0.18425 0.28787 0.20596 0.0
C208 C 0.26902 0.27711 0.27584 0.0
H209 H 0.39983 0.31517 0.07273 0.0
H210 H 0.34235 0.31864 0.10102 0.0
H211 H 0.32005 0.27859 0.30047 0.0
H212 H 0.16546 0.23118 0.3553 0.0
H213 H 0.22117 0.23785 0.32223 0.0
H214 H 0.23397 0.27788 0.10916 0.0
C215 C 0.35737 0.29992 0.1234 0.0
C216 C 0.30141 0.27868 0.25836 0.0
C217 C 0.39021 0.29801 0.10748 0.0
C218 C 0.17033 0.24712 0.31356 0.0
C219 C 0.20231 0.2512 0.29492 0.0
C220 C 0.25245 0.27869 0.15163 0.0
C221 C 0.34427 0.27818 0.16893 0.0
C222 C 0.30975 0.27991 0.18733 0.0
C223 C 0.20979 0.27184 0.2413 0.0
C224 C 0.2441 0.27631 0.22262 0.0
H225 H 0.41155 0.23321 0.20356 0.0
H226 H 0.35483 0.23696 0.23181 0.0
H227 H 0.29078 0.28134 0.07898 0.0
H228 H 0.13298 0.29636 0.19665 0.0
H229 H 0.18907 0.30416 0.16489 0.0
C230 C 0.35975 0.79793 0.81004 0.0
C231 C 0.37422 0.77245 0.84603 0.0
C232 C 0.32673 0.79734 0.79124 0.0
C233 C 0.26101 0.73904 0.75021 0.0
H234 H 0.20698 0.81613 0.74901 0.0
C235 C 0.12461 0.73413 0.67258 0.0
C236 C 0.11125 0.75898 0.63264 0.0
C237 C 0.1566 0.73586 0.69923 0.0
C238 C 0.22188 0.79446 0.74819 0.0
H239 H 0.36537 0.72716 0.89386 0.0
H240 H 0.30728 0.7262 0.8616 0.0
H241 H 0.26189 0.81964 0.80177 0.0
H242 H 0.12139 0.80481 0.58792 0.0
H243 H 0.17762 0.80763 0.63385 0.0
H244 H 0.22119 0.71391 0.6961 0.0
C245 C 0.32163 0.74645 0.84711 0.0
C246 C 0.25329 0.79644 0.77875 0.0
C247 C 0.35476 0.74713 0.86621 0.0
C248 C 0.13094 0.78526 0.61843 0.0
C249 C 0.16305 0.78701 0.64531 0.0
C250 C 0.22964 0.73707 0.71964 0.0
C251 C 0.30742 0.77118 0.80785 0.0
C252 C 0.27327 0.76877 0.77989 0.0
C253 C 0.17612 0.76248 0.68667 0.0
C254 C 0.20972 0.76477 0.71806 0.0
H255 H 0.37423 0.81775 0.79373 0.0
H256 H 0.31671 0.81663 0.76057 0.0
H257 H 0.27597 0.71741 0.74886 0.0
H258 H 0.11018 0.71351 0.68465 0.0
H259 H 0.16573 0.71672 0.73145 0.0
C260 C 0.53523 0.88571 0.86819 0.0
C261 C 0.50845 0.8662 0.87988 0.0
C262 C 0.53648 0.91803 0.89531 0.0
C263 C 0.48542 0.98552 0.96623 0.0
H264 H 0.56612 0.01689 0.05716 0.0
C265 C 0.49327 0.11081 0.11786 0.0
C266 C 0.51947 0.12998 0.1011 0.0
C267 C 0.49262 0.07764 0.09734 0.0
C268 C 0.54346 1.00854 0.03165 0.0
H269 H 0.4615 0.8657 0.92717 0.0
H270 H 0.46379 0.9217 -0.02559 0.0
H271 H 0.56323 0.96181 0.00262 0.0
H272 H 0.56625 0.12945 0.05343 0.0
H273 H 0.56517 0.07183 0.01776 0.0
H274 H 0.46569 0.03227 -0.00519 0.0
C275 C 0.48375 0.91222 0.94404 0.0
C276 C 0.54184 0.97704 8e-05 0.0
C277 C 0.48253 0.88 0.91715 0.0
C278 C 0.54575 0.11519 0.0671 0.0
C279 C 0.54518 0.08212 0.04685 0.0
C280 C 0.48703 0.01699 -0.0022 0.0
C281 C 0.51093 0.93149 0.9344 0.0
C282 C 0.51283 0.9652 -0.03321 0.0
C283 C 0.51824 0.06311 0.06003 0.0
C284 C 0.51609 0.02893 0.03066 0.0
H285 H 0.55561 0.87584 0.83975 0.0
H286 H 0.55755 0.93241 0.88606 0.0
H287 H 0.4628 0.97729 0.94028 0.0
H288 H 0.47269 0.12166 0.14397 0.0
H289 H 0.47174 0.06352 0.10922 0.0
C290 C 0.98376 0.8993 0.455 0.0
C291 C 1.0103 0.88788 0.49517 0.0
C292 C 0.98396 0.93074 0.43087 0.0
C293 C 0.02792 1.00977 0.46327 0.0
H294 H 0.98103 0.03151 0.29026 0.0
C295 C 0.04022 0.13359 0.34121 0.0
C296 C 1.01086 0.15084 0.33691 0.0
C297 C 0.04036 0.10049 0.35324 0.0
C298 C 0.99424 0.02564 0.33862 0.0
H299 H 0.05839 0.89948 0.53897 0.0
H300 H 0.05971 0.95325 0.49382 0.0
H301 H 0.98155 0.97541 0.32514 0.0
H302 H 0.95861 0.14667 0.33802 0.0
H303 H 0.95892 0.08845 0.35672 0.0
H304 H 0.04139 0.05992 0.47507 0.0
C305 C 0.03797 0.93893 0.48342 0.0
C306 C 0.99435 0.99358 0.3591 0.0
C307 C 0.0374 0.90791 0.5089 0.0
C308 C 0.9816 0.134 0.34126 0.0
C309 C 0.98173 0.10073 0.35168 0.0
C310 C 0.02838 0.04155 0.44191 0.0
C311 C 1.01104 0.95114 0.44515 0.0
C312 C 1.01112 0.98517 0.42199 0.0
C313 C 1.01114 0.0839 0.35951 0.0
C314 C 0.01145 0.0498 0.37967 0.0
H315 H 0.96253 0.88426 0.44389 0.0
H316 H 0.96255 0.93922 0.40253 0.0
H317 H 0.04036 1.00477 0.51301 0.0
H318 H 0.06315 0.14594 0.33855 0.0
H319 H 0.06333 0.08794 0.359 0.0
C320 C 0.98894 0.28781 0.10268 0.0
C321 C 1.00656 0.26747 0.14717 0.0
C322 C 0.99263 0.28522 0.02956 0.0
C323 C 0.01677 0.22625 0.88837 0.0
H324 H 0.0152 0.30123 0.77419 0.0
C325 C 0.04148 0.2193 0.58937 0.0
C326 C 0.02292 0.23938 0.54598 0.0
C327 C 0.03853 0.22162 0.66278 0.0
C328 C 0.01524 0.28005 0.80533 0.0
H329 H 0.04309 0.22969 0.15119 0.0
H330 H 0.04992 0.2254 0.02303 0.0
H331 H 0.01478 0.30901 0.90306 0.0
H332 H 0.9855 0.27637 0.54432 0.0
H333 H 0.98013 0.28027 0.67282 0.0
H334 H 0.01728 0.1973 0.79052 0.0
C335 C 0.03277 0.24289 0.04455 0.0
C336 C 0.01512 0.28451 0.87911 0.0
C337 C 0.02905 0.24549 0.11782 0.0
C338 C 1.00025 0.26075 0.57673 0.0
C339 C 0.99737 0.26315 0.65021 0.0
C340 C 0.01694 0.22179 0.81456 0.0
C341 C 0.01411 0.26228 -0.00045 0.0
C342 C 0.01579 0.25766 0.92141 0.0
C343 C 0.01697 0.24409 0.69407 0.0
C344 C 0.01607 0.24865 0.7723 0.0
H345 H 0.97148 0.30502 0.12409 0.0
H346 H 0.97773 0.30033 -0.00368 0.0
H347 H 0.0167 0.20506 0.91947 0.0
H348 H 0.05906 0.20253 0.56684 0.0
H349 H 0.05407 0.20673 0.69521 0.0
C350 C 0.99604 0.75101 0.81386 0.0
C351 C 0.01613 0.77475 0.78902 0.0
C352 C 0.99462 0.74723 0.88673 0.0
C353 C 0.03901 0.76541 0.05829 0.0
H354 H 0.95456 0.75734 0.13715 0.0
C355 C 0.02232 0.77132 0.3605 0.0
C356 C 1.0017 0.74785 0.38462 0.0
C357 C 0.02347 0.77589 0.28789 0.0
C358 C 0.97834 0.7593 0.11587 0.0
H359 H 0.05122 0.8124 0.81991 0.0
H360 H 0.04869 0.80589 0.94677 0.0
H361 H 0.95867 0.76067 0.00943 0.0
H362 H 0.96546 0.71147 0.3527 0.0
H363 H 0.96768 0.71913 0.22637 0.0
H364 H 0.05871 0.76388 0.16461 0.0
C365 C 0.03413 0.79012 0.91038 0.0
C366 C 0.98069 0.76111 0.04272 0.0
C367 C 0.03543 0.79397 0.83779 0.0
C368 C 0.98162 0.72971 0.33544 0.0
C369 C 0.98276 0.73424 0.26309 0.0
C370 C 0.03667 0.76354 0.13142 0.0
C371 C 0.01346 0.76698 0.93573 0.0
C372 C 1.01105 0.76416 0.01316 0.0
C373 C 1.00395 0.7571 0.23837 0.0
C374 C 1.00631 0.76041 0.16102 0.0
H375 H 0.98103 0.7358 0.77718 0.0
H376 H 0.97878 0.7289 0.90475 0.0
H377 H 0.06277 0.7674 0.03694 0.0
H378 H 0.03789 0.78576 0.39754 0.0
H379 H 0.0397 0.79403 0.27051 0.0
C380 C 0.50126 0.75136 0.06659 0.0
C381 C 0.52296 0.77362 0.04168 0.0
C382 C 0.49799 0.74934 0.13949 0.0
C383 C 0.51362 0.79372 0.31289 0.0
H384 H 0.51606 0.70773 0.38508 0.0
C385 C 0.52526 0.77517 0.61221 0.0
C386 C 0.50368 0.75263 0.63651 0.0
C387 C 0.52936 0.77684 0.53951 0.0
C388 C 0.51513 0.73188 0.36565 0.0
H389 H 0.55708 0.81218 0.07231 0.0
H390 H 0.55143 0.80864 0.19934 0.0
H391 H 0.51687 0.7136 0.25748 0.0
H392 H 0.47068 0.7132 0.60505 0.0
H393 H 0.47759 0.71627 0.4784 0.0
H394 H 0.51174 0.81202 0.42095 0.0
C395 C 0.53692 0.79279 0.16299 0.0
C396 C 0.51544 0.73523 0.29266 0.0
C397 C 0.54029 0.7947 0.09033 0.0
C398 C 0.48738 0.73089 0.58753 0.0
C399 C 0.49148 0.73253 0.51505 0.0
C400 C 0.51326 0.79037 0.38587 0.0
C401 C 0.51619 0.76972 0.18835 0.0
C402 C 0.51467 0.76618 0.26558 0.0
C403 C 0.51202 0.75592 0.49019 0.0
C404 C 0.51397 0.75942 0.41299 0.0
H405 H 0.48754 0.73494 0.02995 0.0
H406 H 0.48148 0.73164 0.15767 0.0
H407 H 0.51268 0.81787 0.29342 0.0
H408 H 0.53828 0.79203 0.64915 0.0
H409 H 0.54576 0.79476 0.52185 0.0
C410 C 0.5444 0.29619 0.35103 0.0
C411 C 0.52383 0.27847 0.30216 0.0
C412 C 0.54228 0.29279 0.42362 0.0
C413 C 0.48452 0.27006 0.55325 0.0
H414 H 0.56053 0.2682 0.6807 0.0
C415 C 0.47891 0.24287 0.84784 0.0
C416 C 0.50006 0.2598 0.89685 0.0
C417 C 0.48094 0.24662 0.77535 0.0
C418 C 0.53908 0.26919 0.64587 0.0
H419 H 0.4859 0.24225 0.28995 0.0
H420 H 0.48228 0.23609 0.41734 0.0
H421 H 0.56707 0.26925 0.55323 0.0
H422 H 0.53876 0.29516 0.90948 0.0
H423 H 0.54211 0.30207 0.78235 0.0
H424 H 0.45652 0.27008 0.64586 0.0
C425 C 0.49971 0.25297 0.3995 0.0
C426 C 0.54283 0.26962 0.57291 0.0
C427 C 0.50193 0.2563 0.32673 0.0
C428 C 0.52235 0.28165 0.87256 0.0
C429 C 0.52439 0.28541 0.79992 0.0
C430 C 0.48077 0.26968 0.62623 0.0
C431 C 0.51951 0.27159 0.44866 0.0
C432 C 0.51559 0.27004 0.52587 0.0
C433 C 0.50411 0.26745 0.75052 0.0
C434 C 0.50801 0.2692 0.6733 0.0
H435 H 0.56159 0.31336 0.33328 0.0
H436 H 0.55769 0.30762 0.46021 0.0
H437 H 0.46309 0.27098 0.51835 0.0
H438 H 0.46144 0.22593 0.86531 0.0
H439 H 0.46515 0.23226 0.73865 0.0
loop_
_geom_bond_atom_site_label_1
_geom_bond_atom_site_label_2
_geom_bond_distance
_geom_bond_site_symmetry_2
_ccdc_geom_bond_type
Dy0 O4 2.398 . S
Dy0 O5 2.491 . S
Dy0 O6 2.403 . S
Dy0 O7 2.664 1_455 S
Dy0 O11 2.326 . S
Dy0 O15 2.310 . S
Dy0 O16 2.351 . S
C1 O12 1.185 . S
C1 O13 1.355 . S
C2 O4 1.185 . S
C2 O5 1.355 . S
Dy3 O7 2.310 . S
Dy3 O10 2.351 . S
Dy3 O12 2.398 . S
Dy3 O13 2.491 . S
Dy3 O14 2.403 . S
Dy3 O15 2.664 1_655 S
Dy3 O17 2.326 . S
O4 Dy0 2.398 . S
O4 C2 1.185 . S
O5 Dy0 2.491 . S
O5 C2 1.355 . S
O6 Dy0 2.403 . S
O6 C8 1.254 . S
O7 Dy0 2.664 1_655 S
O7 Dy3 2.310 . S
O7 C8 1.268 1_655 S
C8 O6 1.254 . S
C8 O7 1.268 1_455 S
C9 O14 1.254 . S
C9 O15 1.268 1_655 S
O10 Dy3 2.351 . S
O10 C18 1.249 1_655 S
O11 Dy0 2.326 . S
O11 C18 1.267 . S
O12 C1 1.185 . S
O12 Dy3 2.398 . S
O13 C1 1.355 . S
O13 Dy3 2.491 . S
O14 Dy3 2.403 . S
O14 C9 1.254 . S
O15 Dy0 2.310 . S
O15 Dy3 2.664 1_455 S
O15 C9 1.268 1_455 S
O16 Dy0 2.351 . S
O16 C19 1.249 1_455 S
O17 Dy3 2.326 . S
O17 C19 1.267 . S
C18 O10 1.249 1_455 S
C18 O11 1.267 . S
C19 O16 1.249 1_655 S
C19 O17 1.267 . S
Dy20 O24 2.398 1_455 S
Dy20 O25 2.491 1_455 S
Dy20 O26 2.403 . S
Dy20 O27 2.664 . S
Dy20 O31 2.326 1_455 S
Dy20 O35 2.310 1_455 S
Dy20 O36 2.351 . S
C21 O32 1.185 . S
C21 O33 1.355 . S
C22 O24 1.185 . S
C22 O25 1.355 . S
Dy23 O27 2.310 1_655 S
Dy23 O30 2.351 . S
Dy23 O32 2.398 1_655 S
Dy23 O33 2.491 1_655 S
Dy23 O34 2.403 . S
Dy23 O35 2.664 . S
Dy23 O37 2.326 1_655 S
O24 Dy20 2.398 1_655 S
O24 C22 1.185 . S
O25 Dy20 2.491 1_655 S
O25 C22 1.355 . S
O26 Dy20 2.403 . S
O26 C28 1.254 . S
O27 Dy20 2.664 . S
O27 Dy23 2.310 1_455 S
O27 C28 1.268 . S
C28 O26 1.254 . S
C28 O27 1.268 . S
C29 O34 1.254 . S
C29 O35 1.268 . S
O30 Dy23 2.351 . S
O30 C38 1.249 . S
O31 Dy20 2.326 1_655 S
O31 C38 1.267 . S
O32 C21 1.185 . S
O32 Dy23 2.398 1_455 S
O33 C21 1.355 . S
O33 Dy23 2.491 1_455 S
O34 Dy23 2.403 . S
O34 C29 1.254 . S
O35 Dy20 2.310 1_655 S
O35 Dy23 2.664 . S
O35 C29 1.268 . S
O36 Dy20 2.351 . S
O36 C39 1.249 . S
O37 Dy23 2.326 1_455 S
O37 C39 1.267 . S
C38 O30 1.249 . S
C38 O31 1.267 . S
C39 O36 1.249 . S
C39 O37 1.267 . S
Dy40 O44 2.398 . S
Dy40 O45 2.491 . S
Dy40 O46 2.403 1_556 S
Dy40 O47 2.664 . S
Dy40 O51 2.326 . S
Dy40 O55 2.310 . S
Dy40 O56 2.351 . S
C41 O52 1.185 . S
C41 O53 1.355 . S
C42 O44 1.185 . S
C42 O45 1.355 . S
Dy43 O47 2.310 . S
Dy43 O50 2.351 . S
Dy43 O52 2.398 . S
Dy43 O53 2.491 . S
Dy43 O54 2.403 . S
Dy43 O55 2.664 . S
Dy43 O57 2.326 . S
O44 Dy40 2.398 . S
O44 C42 1.185 . S
O45 Dy40 2.491 . S
O45 C42 1.355 . S
O46 Dy40 2.403 1_554 S
O46 C48 1.254 . S
O47 Dy40 2.664 . S
O47 Dy43 2.310 . S
O47 C48 1.268 1_556 S
C48 O46 1.254 . S
C48 O47 1.268 1_554 S
C49 O54 1.254 . S
C49 O55 1.268 . S
O50 Dy43 2.351 . S
O50 C58 1.249 . S
O51 Dy40 2.326 . S
O51 C58 1.267 . S
O52 C41 1.185 . S
O52 Dy43 2.398 . S
O53 C41 1.355 . S
O53 Dy43 2.491 . S
O54 Dy43 2.403 . S
O54 C49 1.254 . S
O55 Dy40 2.310 . S
O55 Dy43 2.664 . S
O55 C49 1.268 . S
O56 Dy40 2.351 . S
O56 C59 1.249 . S
O57 Dy43 2.326 . S
O57 C59 1.267 . S
C58 O50 1.249 . S
C58 O51 1.267 . S
C59 O56 1.249 . S
C59 O57 1.267 . S
Dy60 O64 2.398 . S
Dy60 O65 2.491 . S
Dy60 O66 2.403 . S
Dy60 O67 2.664 . S
Dy60 O71 2.326 . S
Dy60 O75 2.310 . S
Dy60 O76 2.351 . S
C61 O72 1.185 . S
C61 O73 1.355 . S
C62 O64 1.185 . S
C62 O65 1.355 . S
Dy63 O67 2.310 . S
Dy63 O70 2.351 . S
Dy63 O72 2.398 . S
Dy63 O73 2.491 . S
Dy63 O74 2.403 1_554 S
Dy63 O75 2.664 . S
Dy63 O77 2.326 . S
O64 Dy60 2.398 . S
O64 C62 1.185 . S
O65 Dy60 2.491 . S
O65 C62 1.355 . S
O66 Dy60 2.403 . S
O66 C68 1.254 . S
O67 Dy60 2.664 . S
O67 Dy63 2.310 . S
O67 C68 1.268 . S
C68 O66 1.254 . S
C68 O67 1.268 . S
C69 O74 1.254 . S
C69 O75 1.268 1_556 S
O70 Dy63 2.351 . S
O70 C78 1.249 . S
O71 Dy60 2.326 . S
O71 C78 1.267 . S
O72 C61 1.185 . S
O72 Dy63 2.398 . S
O73 C61 1.355 . S
O73 Dy63 2.491 . S
O74 Dy63 2.403 1_556 S
O74 C69 1.254 . S
O75 Dy60 2.310 . S
O75 Dy63 2.664 . S
O75 C69 1.268 1_554 S
O76 Dy60 2.351 . S
O76 C79 1.249 . S
O77 Dy63 2.326 . S
O77 C79 1.267 . S
C78 O70 1.249 . S
C78 O71 1.267 . S
C79 O76 1.249 . S
C79 O77 1.267 . S
C80 C81 1.349 . S
C80 C82 1.327 . S
C80 H105 0.950 . S
C81 C80 1.349 . S
C81 C97 1.349 . S
C82 C80 1.327 . S
C82 C101 1.429 . S
C82 H106 0.950 . S
C83 C100 1.574 . S
C83 C102 1.368 . S
C83 H107 0.949 . S
H84 C88 0.949 . S
C85 C86 1.349 . S
C85 C87 1.327 . S
C85 H108 0.950 . S
C86 C85 1.349 . S
C86 C98 1.349 . S
C87 C85 1.327 . S
C87 C103 1.429 . S
C87 H109 0.950 . S
C88 H84 0.949 . S
C88 C96 1.574 . S
C88 C104 1.368 . S
H89 C97 0.950 . S
H90 C95 0.950 . S
H91 C96 0.949 . S
H92 C98 0.950 . S
H93 C99 0.950 . S
H94 C100 0.949 . S
C95 H90 0.950 . S
C95 C97 1.327 . S
C95 C101 1.429 . S
C96 C88 1.574 . S
C96 H91 0.949 . S
C96 C102 1.368 . S
C97 C81 1.349 . S
C97 H89 0.950 . S
C97 C95 1.327 . S
C98 C86 1.349 . S
C98 H92 0.950 . S
C98 C99 1.327 . S
C99 H93 0.950 . S
C99 C98 1.327 . S
C99 C103 1.429 . S
C100 C83 1.574 . S
C100 H94 0.949 . S
C100 C104 1.368 . S
C101 C82 1.429 . S
C101 C95 1.429 . S
C101 C102 1.523 . S
C102 C83 1.368 . S
C102 C96 1.368 . S
C102 C101 1.523 . S
C103 C87 1.429 . S
C103 C99 1.429 . S
C103 C104 1.523 . S
C104 C88 1.368 . S
C104 C100 1.368 . S
C104 C103 1.523 . S
H105 C80 0.950 . S
H106 C82 0.950 . S
H107 C83 0.949 . S
H108 C85 0.950 . S
H109 C87 0.950 . S
C110 C111 1.349 . S
C110 C112 1.327 . S
C110 H135 0.950 . S
C111 C110 1.349 . S
C111 C127 1.349 . S
C112 C110 1.327 . S
C112 C131 1.429 . S
C112 H136 0.950 . S
C113 C130 1.574 . S
C113 C132 1.368 . S
C113 H137 0.949 . S
H114 C118 0.949 . S
C115 C116 1.349 . S
C115 C117 1.327 . S
C115 H138 0.950 . S
C116 C115 1.349 . S
C116 C128 1.349 . S
C117 C115 1.327 . S
C117 C133 1.429 . S
C117 H139 0.950 . S
C118 H114 0.949 . S
C118 C126 1.574 . S
C118 C134 1.368 . S
H119 C127 0.950 . S
H120 C125 0.950 . S
H121 C126 0.949 . S
H122 C128 0.950 . S
H123 C129 0.950 . S
H124 C130 0.949 . S
C125 H120 0.950 . S
C125 C127 1.327 . S
C125 C131 1.429 . S
C126 C118 1.574 . S
C126 H121 0.949 . S
C126 C132 1.368 . S
C127 C111 1.349 . S
C127 H119 0.950 . S
C127 C125 1.327 . S
C128 C116 1.349 . S
C128 H122 0.950 . S
C128 C129 1.327 . S
C129 H123 0.950 . S
C129 C128 1.327 . S
C129 C133 1.429 . S
C130 C113 1.574 . S
C130 H124 0.949 . S
C130 C134 1.368 . S
C131 C112 1.429 . S
C131 C125 1.429 . S
C131 C132 1.523 . S
C132 C113 1.368 . S
C132 C126 1.368 . S
C132 C131 1.523 . S
C133 C117 1.429 . S
C133 C129 1.429 . S
C133 C134 1.523 . S
C134 C118 1.368 . S
C134 C130 1.368 . S
C134 C133 1.523 . S
H135 C110 0.950 . S
H136 C112 0.950 . S
H137 C113 0.949 . S
H138 C115 0.950 . S
H139 C117 0.950 . S
C140 C141 1.349 . S
C140 C142 1.327 . S
C140 H165 0.950 . S
C141 C140 1.349 . S
C141 C157 1.349 . S
C142 C140 1.327 . S
C142 C161 1.429 . S
C142 H166 0.950 1_554 S
C143 C160 1.574 . S
C143 C162 1.368 . S
C143 H167 0.949 . S
H144 C148 0.949 . S
C145 C146 1.349 . S
C145 C147 1.327 . S
C145 H168 0.950 . S
C146 C145 1.349 . S
C146 C158 1.349 . S
C147 C145 1.327 . S
C147 C163 1.429 . S
C147 H169 0.950 1_556 S
C148 H144 0.949 . S
C148 C156 1.574 . S
C148 C164 1.368 . S
H149 C157 0.950 . S
H150 C155 0.950 . S
H151 C156 0.949 . S
H152 C158 0.950 . S
H153 C159 0.950 . S
H154 C160 0.949 . S
C155 H150 0.950 . S
C155 C157 1.327 . S
C155 C161 1.429 . S
C156 C148 1.574 . S
C156 H151 0.949 . S
C156 C162 1.368 1_556 S
C157 C141 1.349 . S
C157 H149 0.950 . S
C157 C155 1.327 . S
C158 C146 1.349 . S
C158 H152 0.950 . S
C158 C159 1.327 . S
C159 H153 0.950 . S
C159 C158 1.327 . S
C159 C163 1.429 . S
C160 C143 1.574 . S
C160 H154 0.949 . S
C160 C164 1.368 1_554 S
C161 C142 1.429 . S
C161 C155 1.429 . S
C161 C162 1.523 . S
C162 C143 1.368 . S
C162 C156 1.368 1_554 S
C162 C161 1.523 . S
C163 C147 1.429 . S
C163 C159 1.429 . S
C163 C164 1.523 . S
C164 C148 1.368 . S
C164 C160 1.368 1_556 S
C164 C163 1.523 . S
H165 C140 0.950 . S
H166 C142 0.950 1_556 S
H167 C143 0.949 . S
H168 C145 0.950 . S
H169 C147 0.950 1_554 S
C170 C171 1.349 . S
C170 C172 1.327 . S
C170 H195 0.950 . S
C171 C170 1.349 . S
C171 C187 1.349 . S
C172 C170 1.327 . S
C172 C191 1.429 . S
C172 H196 0.950 . S
C173 C190 1.574 . S
C173 C192 1.368 . S
C173 H197 0.949 . S
H174 C178 0.949 . S
C175 C176 1.349 . S
C175 C177 1.327 . S
C175 H198 0.950 . S
C176 C175 1.349 . S
C176 C188 1.349 . S
C177 C175 1.327 . S
C177 C193 1.429 . S
C177 H199 0.950 . S
C178 H174 0.949 . S
C178 C186 1.574 . S
C178 C194 1.368 . S
H179 C187 0.950 . S
H180 C185 0.950 . S
H181 C186 0.949 . S
H182 C188 0.950 . S
H183 C189 0.950 . S
H184 C190 0.949 . S
C185 H180 0.950 . S
C185 C187 1.327 . S
C185 C191 1.429 . S
C186 C178 1.574 . S
C186 H181 0.949 . S
C186 C192 1.368 . S
C187 C171 1.349 . S
C187 H179 0.950 . S
C187 C185 1.327 . S
C188 C176 1.349 . S
C188 H182 0.950 . S
C188 C189 1.327 . S
C189 H183 0.950 . S
C189 C188 1.327 . S
C189 C193 1.429 . S
C190 C173 1.574 . S
C190 H184 0.949 . S
C190 C194 1.368 . S
C191 C172 1.429 . S
C191 C185 1.429 . S
C191 C192 1.523 . S
C192 C173 1.368 . S
C192 C186 1.368 . S
C192 C191 1.523 . S
C193 C177 1.429 . S
C193 C189 1.429 . S
C193 C194 1.523 . S
C194 C178 1.368 . S
C194 C190 1.368 . S
C194 C193 1.523 . S
H195 C170 0.950 . S
H196 C172 0.950 . S
H197 C173 0.949 . S
H198 C175 0.950 . S
H199 C177 0.950 . S
C200 C201 1.349 . S
C200 C202 1.327 . S
C200 H225 0.950 . S
C201 C200 1.349 . S
C201 C217 1.349 . S
C202 C200 1.327 . S
C202 C221 1.429 . S
C202 H226 0.950 . S
C203 C220 1.574 . S
C203 C222 1.368 . S
C203 H227 0.949 . S
H204 C208 0.949 . S
C205 C206 1.349 . S
C205 C207 1.327 . S
C205 H228 0.950 . S
C206 C205 1.349 . S
C206 C218 1.349 . S
C207 C205 1.327 . S
C207 C223 1.429 . S
C207 H229 0.950 . S
C208 H204 0.949 . S
C208 C216 1.574 . S
C208 C224 1.368 . S
H209 C217 0.950 . S
H210 C215 0.950 . S
H211 C216 0.949 . S
H212 C218 0.950 . S
H213 C219 0.950 . S
H214 C220 0.949 . S
C215 H210 0.950 . S
C215 C217 1.327 . S
C215 C221 1.429 . S
C216 C208 1.574 . S
C216 H211 0.949 . S
C216 C222 1.368 . S
C217 C201 1.349 . S
C217 H209 0.950 . S
C217 C215 1.327 . S
C218 C206 1.349 . S
C218 H212 0.950 . S
C218 C219 1.327 . S
C219 H213 0.950 . S
C219 C218 1.327 . S
C219 C223 1.429 . S
C220 C203 1.574 . S
C220 H214 0.949 . S
C220 C224 1.368 . S
C221 C202 1.429 . S
C221 C215 1.429 . S
C221 C222 1.523 . S
C222 C203 1.368 . S
C222 C216 1.368 . S
C222 C221 1.523 . S
C223 C207 1.429 . S
C223 C219 1.429 . S
C223 C224 1.523 . S
C224 C208 1.368 . S
C224 C220 1.368 . S
C224 C223 1.523 . S
H225 C200 0.950 . S
H226 C202 0.950 . S
H227 C203 0.949 . S
H228 C205 0.950 . S
H229 C207 0.950 . S
C230 C231 1.349 . S
C230 C232 1.327 . S
C230 H255 0.950 . S
C231 C230 1.349 . S
C231 C247 1.349 . S
C232 C230 1.327 . S
C232 C251 1.429 . S
C232 H256 0.950 . S
C233 C250 1.574 . S
C233 C252 1.368 . S
C233 H257 0.949 . S
H234 C238 0.949 . S
C235 C236 1.349 . S
C235 C237 1.327 . S
C235 H258 0.950 . S
C236 C235 1.349 . S
C236 C248 1.349 . S
C237 C235 1.327 . S
C237 C253 1.429 . S
C237 H259 0.950 . S
C238 H234 0.949 . S
C238 C246 1.574 . S
C238 C254 1.368 . S
H239 C247 0.950 . S
H240 C245 0.950 . S
H241 C246 0.949 . S
H242 C248 0.950 . S
H243 C249 0.950 . S
H244 C250 0.949 . S
C245 H240 0.950 . S
C245 C247 1.327 . S
C245 C251 1.429 . S
C246 C238 1.574 . S
C246 H241 0.949 . S
C246 C252 1.368 . S
C247 C231 1.349 . S
C247 H239 0.950 . S
C247 C245 1.327 . S
C248 C236 1.349 . S
C248 H242 0.950 . S
C248 C249 1.327 . S
C249 H243 0.950 . S
C249 C248 1.327 . S
C249 C253 1.429 . S
C250 C233 1.574 . S
C250 H244 0.949 . S
C250 C254 1.368 . S
C251 C232 1.429 . S
C251 C245 1.429 . S
C251 C252 1.523 . S
C252 C233 1.368 . S
C252 C246 1.368 . S
C252 C251 1.523 . S
C253 C237 1.429 . S
C253 C249 1.429 . S
C253 C254 1.523 . S
C254 C238 1.368 . S
C254 C250 1.368 . S
C254 C253 1.523 . S
H255 C230 0.950 . S
H256 C232 0.950 . S
H257 C233 0.949 . S
H258 C235 0.950 . S
H259 C237 0.950 . S
C260 C261 1.349 . S
C260 C262 1.327 . S
C260 H285 0.950 . S
C261 C260 1.349 . S
C261 C277 1.349 . S
C262 C260 1.327 . S
C262 C281 1.429 . S
C262 H286 0.950 . S
C263 C280 1.574 1_556 S
C263 C282 1.368 . S
C263 H287 0.949 . S
H264 C268 0.949 1_545 S
C265 C266 1.349 . S
C265 C267 1.327 . S
C265 H288 0.950 . S
C266 C265 1.349 . S
C266 C278 1.349 . S
C267 C265 1.327 . S
C267 C283 1.429 . S
C267 H289 0.950 . S
C268 H264 0.949 1_565 S
C268 C276 1.574 1_554 S
C268 C284 1.368 1_565 S
H269 C277 0.950 . S
H270 C275 0.950 . S
H271 C276 0.949 . S
H272 C278 0.950 . S
H273 C279 0.950 . S
H274 C280 0.949 1_545 S
C275 H270 0.950 . S
C275 C277 1.327 . S
C275 C281 1.429 . S
C276 C268 1.574 1_556 S
C276 H271 0.949 . S
C276 C282 1.368 . S
C277 C261 1.349 . S
C277 H269 0.950 . S
C277 C275 1.327 . S
C278 C266 1.349 . S
C278 H272 0.950 . S
C278 C279 1.327 . S
C279 H273 0.950 . S
C279 C278 1.327 . S
C279 C283 1.429 . S
C280 C263 1.574 1_554 S
C280 H274 0.949 1_565 S
C280 C284 1.368 1_565 S
C281 C262 1.429 . S
C281 C275 1.429 . S
C281 C282 1.523 . S
C282 C263 1.368 . S
C282 C276 1.368 . S
C282 C281 1.523 . S
C283 C267 1.429 . S
C283 C279 1.429 . S
C283 C284 1.523 . S
C284 C268 1.368 1_545 S
C284 C280 1.368 1_545 S
C284 C283 1.523 . S
H285 C260 0.950 . S
H286 C262 0.950 . S
H287 C263 0.949 . S
H288 C265 0.950 . S
H289 C267 0.950 . S
C290 C291 1.349 . S
C290 C292 1.327 . S
C290 H315 0.950 . S
C291 C290 1.349 . S
C291 C307 1.349 . S
C292 C290 1.327 . S
C292 C311 1.429 . S
C292 H316 0.950 . S
C293 C310 1.574 . S
C293 C312 1.368 1_545 S
C293 H317 0.949 . S
H294 C298 0.949 . S
C295 C296 1.349 . S
C295 C297 1.327 . S
C295 H318 0.950 1_655 S
C296 C295 1.349 . S
C296 C308 1.349 . S
C297 C295 1.327 . S
C297 C313 1.429 . S
C297 H319 0.945 1_655 S
C298 H294 0.949 . S
C298 C306 1.574 1_545 S
C298 C314 1.368 . S
H299 C307 0.950 . S
H300 C305 0.950 . S
H301 C306 0.949 . S
H302 C308 0.950 . S
H303 C309 0.950 . S
H304 C310 0.949 . S
C305 H300 0.950 . S
C305 C307 1.327 . S
C305 C311 1.429 . S
C306 C298 1.574 1_565 S
C306 H301 0.949 . S
C306 C312 1.368 . S
C307 C291 1.349 . S
C307 H299 0.950 . S
C307 C305 1.327 . S
C308 C296 1.349 . S
C308 H302 0.950 . S
C308 C309 1.327 . S
C309 H303 0.950 . S
C309 C308 1.327 . S
C309 C313 1.429 . S
C310 C293 1.574 . S
C310 H304 0.949 . S
C310 C314 1.368 . S
C311 C292 1.429 . S
C311 C305 1.429 . S
C311 C312 1.523 . S
C312 C293 1.368 1_565 S
C312 C306 1.368 . S
C312 C311 1.523 . S
C313 C297 1.429 . S
C313 C309 1.429 . S
C313 C314 1.523 . S
C314 C298 1.368 . S
C314 C310 1.368 . S
C314 C313 1.523 . S
H315 C290 0.950 . S
H316 C292 0.950 . S
H317 C293 0.949 . S
H318 C295 0.950 1_455 S
H319 C297 0.945 1_455 S
C320 C321 1.349 . S
C320 C322 1.327 . S
C320 H345 0.950 . S
C321 C320 1.349 . S
C321 C337 1.349 1_455 S
C322 C320 1.327 . S
C322 C341 1.429 . S
C322 H346 0.950 . S
C323 C340 1.574 . S
C323 C342 1.368 1_655 S
C323 H347 0.949 . S
H324 C328 0.949 . S
C325 C326 1.358 . S
C325 C327 1.327 . S
C325 H348 0.950 . S
C326 C325 1.358 . S
C326 C338 1.340 1_655 S
C327 C325 1.327 . S
C327 C343 1.424 1_655 S
C327 H349 0.950 . S
C328 H324 0.949 . S
C328 C336 1.574 . S
C328 C344 1.383 . S
H329 C337 0.950 . S
H330 C335 0.950 . S
H331 C336 0.949 . S
H332 C338 0.950 . S
H333 C339 0.950 . S
H334 C340 0.949 . S
C335 H330 0.950 . S
C335 C337 1.327 . S
C335 C341 1.429 1_655 S
C336 C328 1.574 . S
C336 H331 0.949 . S
C336 C342 1.368 . S
C337 C321 1.349 1_655 S
C337 H329 0.950 . S
C337 C335 1.327 . S
C338 C326 1.340 1_455 S
C338 H332 0.950 . S
C338 C339 1.327 . S
C339 H333 0.950 . S
C339 C338 1.327 . S
C339 C343 1.433 . S
C340 C323 1.574 . S
C340 H334 0.949 . S
C340 C344 1.354 1_655 S
C341 C322 1.429 . S
C341 C335 1.429 1_455 S
C341 C342 1.523 1_554 S
C342 C323 1.368 1_455 S
C342 C336 1.368 . S
C342 C341 1.523 1_556 S
C343 C327 1.424 1_455 S
C343 C339 1.433 . S
C343 C344 1.523 . S
C344 C328 1.383 . S
C344 C340 1.354 1_455 S
C344 C343 1.523 . S
H345 C320 0.950 . S
H346 C322 0.950 . S
H347 C323 0.949 . S
H348 C325 0.950 . S
H349 C327 0.950 . S
C350 C351 1.349 1_655 S
C350 C352 1.327 . S
C350 H375 0.950 . S
C351 C350 1.349 1_455 S
C351 C367 1.349 . S
C352 C350 1.327 . S
C352 C371 1.429 1_655 S
C352 H376 0.950 . S
C353 C370 1.574 . S
C353 C372 1.368 . S
C353 H377 0.949 . S
H354 C358 0.949 . S
C355 C356 1.335 1_455 S
C355 C357 1.327 . S
C355 H378 0.950 . S
C356 C355 1.335 1_655 S
C356 C368 1.362 . S
C357 C355 1.327 . S
C357 C373 1.429 . S
C357 H379 0.950 . S
C358 H354 0.949 . S
C358 C366 1.574 . S
C358 C374 1.357 1_655 S
H359 C367 0.950 . S
H360 C365 0.950 . S
H361 C366 0.949 . S
H362 C368 0.950 . S
H363 C369 0.950 . S
H364 C370 0.949 . S
C365 H360 0.950 . S
C365 C367 1.327 . S
C365 C371 1.429 . S
C366 C358 1.574 . S
C366 H361 0.949 . S
C366 C372 1.368 1_655 S
C367 C351 1.349 . S
C367 H359 0.950 . S
C367 C365 1.327 . S
C368 C356 1.362 . S
C368 H362 0.950 . S
C368 C369 1.327 . S
C369 H363 0.950 . S
C369 C368 1.327 . S
C369 C373 1.428 1_655 S
C370 C353 1.574 . S
C370 H364 0.949 . S
C370 C374 1.380 . S
C371 C352 1.429 1_455 S
C371 C365 1.429 . S
C371 C372 1.523 1_556 S
C372 C353 1.368 . S
C372 C366 1.368 1_455 S
C372 C371 1.523 1_554 S
C373 C357 1.429 . S
C373 C369 1.428 1_455 S
C373 C374 1.523 . S
C374 C358 1.357 1_455 S
C374 C370 1.380 . S
C374 C373 1.523 . S
H375 C350 0.950 . S
H376 C352 0.950 . S
H377 C353 0.949 . S
H378 C355 0.950 . S
H379 C357 0.950 . S
C380 C381 1.349 . S
C380 C382 1.327 . S
C380 H405 0.950 . S
C381 C380 1.349 . S
C381 C397 1.349 . S
C382 C380 1.327 . S
C382 C401 1.429 . S
C382 H406 0.950 . S
C383 C400 1.574 . S
C383 C402 1.368 . S
C383 H407 0.949 . S
H384 C388 0.949 . S
C385 C386 1.349 . S
C385 C387 1.327 . S
C385 H408 0.950 . S
C386 C385 1.349 . S
C386 C398 1.349 . S
C387 C385 1.327 . S
C387 C403 1.429 . S
C387 H409 0.950 . S
C388 H384 0.949 . S
C388 C396 1.574 . S
C388 C404 1.368 . S
H389 C397 0.950 . S
H390 C395 0.950 . S
H391 C396 0.949 . S
H392 C398 0.950 . S
H393 C399 0.950 . S
H394 C400 0.949 . S
C395 H390 0.950 . S
C395 C397 1.327 . S
C395 C401 1.429 . S
C396 C388 1.574 . S
C396 H391 0.949 . S
C396 C402 1.368 . S
C397 C381 1.349 . S
C397 H389 0.950 . S
C397 C395 1.327 . S
C398 C386 1.349 . S
C398 H392 0.950 . S
C398 C399 1.327 . S
C399 H393 0.950 . S
C399 C398 1.327 . S
C399 C403 1.429 . S
C400 C383 1.574 . S
C400 H394 0.949 . S
C400 C404 1.368 . S
C401 C382 1.429 . S
C401 C395 1.429 . S
C401 C402 1.523 . S
C402 C383 1.368 . S
C402 C396 1.368 . S
C402 C401 1.523 . S
C403 C387 1.429 . S
C403 C399 1.429 . S
C403 C404 1.523 . S
C404 C388 1.368 . S
C404 C400 1.368 . S
C404 C403 1.523 . S
H405 C380 0.950 . S
H406 C382 0.950 . S
H407 C383 0.949 . S
H408 C385 0.950 . S
H409 C387 0.950 . S
C410 C411 1.349 . S
C410 C412 1.327 . S
C410 H435 0.950 . S
C411 C410 1.349 . S
C411 C427 1.349 . S
C412 C410 1.327 . S
C412 C431 1.429 . S
C412 H436 0.950 . S
C413 C430 1.574 . S
C413 C432 1.368 . S
C413 H437 0.949 . S
H414 C418 0.949 . S
C415 C416 1.349 . S
C415 C417 1.327 . S
C415 H438 0.950 . S
C416 C415 1.349 . S
C416 C428 1.349 . S
C417 C415 1.327 . S
C417 C433 1.429 . S
C417 H439 0.950 . S
C418 H414 0.949 . S
C418 C426 1.574 . S
C418 C434 1.368 . S
H419 C427 0.950 . S
H420 C425 0.950 . S
H421 C426 0.949 . S
H422 C428 0.950 . S
H423 C429 0.950 . S
H424 C430 0.949 . S
C425 H420 0.950 . S
C425 C427 1.327 . S
C425 C431 1.429 . S
C426 C418 1.574 . S
C426 H421 0.949 . S
C426 C432 1.368 . S
C427 C411 1.349 . S
C427 H419 0.950 . S
C427 C425 1.327 . S
C428 C416 1.349 . S
C428 H422 0.950 . S
C428 C429 1.327 . S
C429 H423 0.950 . S
C429 C428 1.327 . S
C429 C433 1.429 . S
C430 C413 1.574 . S
C430 H424 0.949 . S
C430 C434 1.368 . S
C431 C412 1.429 . S
C431 C425 1.429 . S
C431 C432 1.523 . S
C432 C413 1.368 . S
C432 C426 1.368 . S
C432 C431 1.523 . S
C433 C417 1.429 . S
C433 C429 1.429 . S
C433 C434 1.523 . S
C434 C418 1.368 . S
C434 C430 1.368 . S
C434 C433 1.523 . S
H435 C410 0.950 . S
H436 C412 0.950 . S
H437 C413 0.949 . S
H438 C415 0.950 . S
H439 C417 0.950 . S
C81 C18 1.773 . S
C86 C21 1.741 . S
C111 C42 1.860 . S
C116 C38 1.849 . S
C141 C62 1.931 . S
C146 C59 2.000 . S
C171 C1 1.815 . S
C176 C79 1.924 . S
C201 C78 1.849 . S
C206 C2 1.860 . S
C231 C41 1.815 . S
C236 C39 1.924 . S
C261 C58 1.773 . S
C266 C61 1.741 . S
C291 C22 1.931 . S
C296 C19 2.000 . S
C321 C9 0.747 1_455 S
C326 C8 0.737 1_655 S
C351 C28 0.747 . S
C356 C29 0.751 . S
C381 C48 0.747 . S
C386 C49 0.747 . S
C411 C68 0.747 . S
C416 C69 0.747 . S
