# Generated by pormake.
# Topology lcv-a, (4)-cn, num edge types: 1
# Building blocks:
#     Node 0, Type 0, BuildingBlock: TATPOV_clean_sbu_0, # of connection points: 4
#     Node 1, Type 0, BuildingBlock: TATPOV_clean_sbu_0, # of connection points: 4
#     Node 2, Type 0, BuildingBlock: TATPOV_clean_sbu_0, # of connection points: 4
#     Node 3, Type 0, BuildingBlock: TATPOV_clean_sbu_0, # of connection points: 4
#     Node 4, Type 0, BuildingBlock: TATPOV_clean_sbu_0, # of connection points: 4
#     Node 5, Type 0, BuildingBlock: TATPOV_clean_sbu_0, # of connection points: 4
#     Node 6, Type 0, BuildingBlock: TATPOV_clean_sbu_0, # of connection points: 4
#     Node 7, Type 0, BuildingBlock: TATPOV_clean_sbu_0, # of connection points: 4
#     Node 8, Type 0, BuildingBlock: TATPOV_clean_sbu_0, # of connection points: 4
#     Node 9, Type 0, BuildingBlock: TATPOV_clean_sbu_0, # of connection points: 4
#     Node 10, Type 0, BuildingBlock: TATPOV_clean_sbu_0, # of connection points: 4
#     Node 11, Type 0, BuildingBlock: TATPOV_clean_sbu_0, # of connection points: 4
#     Node 12, Type 0, BuildingBlock: TATPOV_clean_sbu_0, # of connection points: 4
#     Node 13, Type 0, BuildingBlock: TATPOV_clean_sbu_0, # of connection points: 4
#     Node 14, Type 0, BuildingBlock: TATPOV_clean_sbu_0, # of connection points: 4
#     Node 15, Type 0, BuildingBlock: TATPOV_clean_sbu_0, # of connection points: 4
#     Node 16, Type 0, BuildingBlock: TATPOV_clean_sbu_0, # of connection points: 4
#     Node 17, Type 0, BuildingBlock: TATPOV_clean_sbu_0, # of connection points: 4
#     Node 18, Type 0, BuildingBlock: TATPOV_clean_sbu_0, # of connection points: 4
#     Node 19, Type 0, BuildingBlock: TATPOV_clean_sbu_0, # of connection points: 4
#     Node 20, Type 0, BuildingBlock: TATPOV_clean_sbu_0, # of connection points: 4
#     Node 21, Type 0, BuildingBlock: TATPOV_clean_sbu_0, # of connection points: 4
#     Node 22, Type 0, BuildingBlock: TATPOV_clean_sbu_0, # of connection points: 4
#     Node 23, Type 0, BuildingBlock: TATPOV_clean_sbu_0, # of connection points: 4
#     Node 24, Type 0, BuildingBlock: TATPOV_clean_sbu_0, # of connection points: 4
#     Node 25, Type 0, BuildingBlock: TATPOV_clean_sbu_0, # of connection points: 4
#     Node 26, Type 0, BuildingBlock: TATPOV_clean_sbu_0, # of connection points: 4
#     Node 27, Type 0, BuildingBlock: TATPOV_clean_sbu_0, # of connection points: 4
#     Node 28, Type 0, BuildingBlock: TATPOV_clean_sbu_0, # of connection points: 4
#     Node 29, Type 0, BuildingBlock: TATPOV_clean_sbu_0, # of connection points: 4
#     Node 30, Type 0, BuildingBlock: TATPOV_clean_sbu_0, # of connection points: 4
#     Node 31, Type 0, BuildingBlock: TATPOV_clean_sbu_0, # of connection points: 4
#     Node 32, Type 0, BuildingBlock: TATPOV_clean_sbu_0, # of connection points: 4
#     Node 33, Type 0, BuildingBlock: TATPOV_clean_sbu_0, # of connection points: 4
#     Node 34, Type 0, BuildingBlock: TATPOV_clean_sbu_0, # of connection points: 4
#     Node 35, Type 0, BuildingBlock: TATPOV_clean_sbu_0, # of connection points: 4
#     Node 36, Type 0, BuildingBlock: TATPOV_clean_sbu_0, # of connection points: 4
#     Node 37, Type 0, BuildingBlock: TATPOV_clean_sbu_0, # of connection points: 4
#     Node 38, Type 0, BuildingBlock: TATPOV_clean_sbu_0, # of connection points: 4
#     Node 39, Type 0, BuildingBlock: TATPOV_clean_sbu_0, # of connection points: 4
#     Node 40, Type 0, BuildingBlock: TATPOV_clean_sbu_0, # of connection points: 4
#     Node 41, Type 0, BuildingBlock: TATPOV_clean_sbu_0, # of connection points: 4
#     Node 42, Type 0, BuildingBlock: TATPOV_clean_sbu_0, # of connection points: 4
#     Node 43, Type 0, BuildingBlock: TATPOV_clean_sbu_0, # of connection points: 4
#     Node 44, Type 0, BuildingBlock: TATPOV_clean_sbu_0, # of connection points: 4
#     Node 45, Type 0, BuildingBlock: TATPOV_clean_sbu_0, # of connection points: 4
#     Node 46, Type 0, BuildingBlock: TATPOV_clean_sbu_0, # of connection points: 4
#     Node 47, Type 0, BuildingBlock: TATPOV_clean_sbu_0, # of connection points: 4
#     Edge 48, Type (0, 0), BuildingBlock: AJUNOK_clean_linker_0, # of connection points: 2
#     Edge 49, Type (0, 0), BuildingBlock: AJUNOK_clean_linker_0, # of connection points: 2
#     Edge 50, Type (0, 0), BuildingBlock: AJUNOK_clean_linker_0, # of connection points: 2
#     Edge 51, Type (0, 0), BuildingBlock: AJUNOK_clean_linker_0, # of connection points: 2
#     Edge 52, Type (0, 0), BuildingBlock: AJUNOK_clean_linker_0, # of connection points: 2
#     Edge 53, Type (0, 0), BuildingBlock: AJUNOK_clean_linker_0, # of connection points: 2
#     Edge 54, Type (0, 0), BuildingBlock: AJUNOK_clean_linker_0, # of connection points: 2
#     Edge 55, Type (0, 0), BuildingBlock: AJUNOK_clean_linker_0, # of connection points: 2
#     Edge 56, Type (0, 0), BuildingBlock: AJUNOK_clean_linker_0, # of connection points: 2
#     Edge 57, Type (0, 0), BuildingBlock: AJUNOK_clean_linker_0, # of connection points: 2
#     Edge 58, Type (0, 0), BuildingBlock: AJUNOK_clean_linker_0, # of connection points: 2
#     Edge 59, Type (0, 0), BuildingBlock: AJUNOK_clean_linker_0, # of connection points: 2
#     Edge 60, Type (0, 0), BuildingBlock: AJUNOK_clean_linker_0, # of connection points: 2
#     Edge 61, Type (0, 0), BuildingBlock: AJUNOK_clean_linker_0, # of connection points: 2
#     Edge 62, Type (0, 0), BuildingBlock: AJUNOK_clean_linker_0, # of connection points: 2
#     Edge 63, Type (0, 0), BuildingBlock: AJUNOK_clean_linker_0, # of connection points: 2
#     Edge 64, Type (0, 0), BuildingBlock: AJUNOK_clean_linker_0, # of connection points: 2
#     Edge 65, Type (0, 0), BuildingBlock: AJUNOK_clean_linker_0, # of connection points: 2
#     Edge 66, Type (0, 0), BuildingBlock: AJUNOK_clean_linker_0, # of connection points: 2
#     Edge 67, Type (0, 0), BuildingBlock: AJUNOK_clean_linker_0, # of connection points: 2
#     Edge 68, Type (0, 0), BuildingBlock: AJUNOK_clean_linker_0, # of connection points: 2
#     Edge 69, Type (0, 0), BuildingBlock: AJUNOK_clean_linker_0, # of connection points: 2
#     Edge 70, Type (0, 0), BuildingBlock: AJUNOK_clean_linker_0, # of connection points: 2
#     Edge 71, Type (0, 0), BuildingBlock: AJUNOK_clean_linker_0, # of connection points: 2
#     Edge 72, Type (0, 0), BuildingBlock: AJUNOK_clean_linker_0, # of connection points: 2
#     Edge 73, Type (0, 0), BuildingBlock: AJUNOK_clean_linker_0, # of connection points: 2
#     Edge 74, Type (0, 0), BuildingBlock: AJUNOK_clean_linker_0, # of connection points: 2
#     Edge 75, Type (0, 0), BuildingBlock: AJUNOK_clean_linker_0, # of connection points: 2
#     Edge 76, Type (0, 0), BuildingBlock: AJUNOK_clean_linker_0, # of connection points: 2
#     Edge 77, Type (0, 0), BuildingBlock: AJUNOK_clean_linker_0, # of connection points: 2
#     Edge 78, Type (0, 0), BuildingBlock: AJUNOK_clean_linker_0, # of connection points: 2
#     Edge 79, Type (0, 0), BuildingBlock: AJUNOK_clean_linker_0, # of connection points: 2
#     Edge 80, Type (0, 0), BuildingBlock: AJUNOK_clean_linker_0, # of connection points: 2
#     Edge 81, Type (0, 0), BuildingBlock: AJUNOK_clean_linker_0, # of connection points: 2
#     Edge 82, Type (0, 0), BuildingBlock: AJUNOK_clean_linker_0, # of connection points: 2
#     Edge 83, Type (0, 0), BuildingBlock: AJUNOK_clean_linker_0, # of connection points: 2
#     Edge 84, Type (0, 0), BuildingBlock: AJUNOK_clean_linker_0, # of connection points: 2
#     Edge 85, Type (0, 0), BuildingBlock: AJUNOK_clean_linker_0, # of connection points: 2
#     Edge 86, Type (0, 0), BuildingBlock: AJUNOK_clean_linker_0, # of connection points: 2
#     Edge 87, Type (0, 0), BuildingBlock: AJUNOK_clean_linker_0, # of connection points: 2
#     Edge 88, Type (0, 0), BuildingBlock: AJUNOK_clean_linker_0, # of connection points: 2
#     Edge 89, Type (0, 0), BuildingBlock: AJUNOK_clean_linker_0, # of connection points: 2
#     Edge 90, Type (0, 0), BuildingBlock: AJUNOK_clean_linker_0, # of connection points: 2
#     Edge 91, Type (0, 0), BuildingBlock: AJUNOK_clean_linker_0, # of connection points: 2
#     Edge 92, Type (0, 0), BuildingBlock: AJUNOK_clean_linker_0, # of connection points: 2
#     Edge 93, Type (0, 0), BuildingBlock: AJUNOK_clean_linker_0, # of connection points: 2
#     Edge 94, Type (0, 0), BuildingBlock: AJUNOK_clean_linker_0, # of connection points: 2
#     Edge 95, Type (0, 0), BuildingBlock: AJUNOK_clean_linker_0, # of connection points: 2
#     Edge 96, Type (0, 0), BuildingBlock: AJUNOK_clean_linker_0, # of connection points: 2
#     Edge 97, Type (0, 0), BuildingBlock: AJUNOK_clean_linker_0, # of connection points: 2
#     Edge 98, Type (0, 0), BuildingBlock: AJUNOK_clean_linker_0, # of connection points: 2
#     Edge 99, Type (0, 0), BuildingBlock: AJUNOK_clean_linker_0, # of connection points: 2
#     Edge 100, Type (0, 0), BuildingBlock: AJUNOK_clean_linker_0, # of connection points: 2
#     Edge 101, Type (0, 0), BuildingBlock: AJUNOK_clean_linker_0, # of connection points: 2
#     Edge 102, Type (0, 0), BuildingBlock: AJUNOK_clean_linker_0, # of connection points: 2
#     Edge 103, Type (0, 0), BuildingBlock: AJUNOK_clean_linker_0, # of connection points: 2
#     Edge 104, Type (0, 0), BuildingBlock: AJUNOK_clean_linker_0, # of connection points: 2
#     Edge 105, Type (0, 0), BuildingBlock: AJUNOK_clean_linker_0, # of connection points: 2
#     Edge 106, Type (0, 0), BuildingBlock: AJUNOK_clean_linker_0, # of connection points: 2
#     Edge 107, Type (0, 0), BuildingBlock: AJUNOK_clean_linker_0, # of connection points: 2
#     Edge 108, Type (0, 0), BuildingBlock: AJUNOK_clean_linker_0, # of connection points: 2
#     Edge 109, Type (0, 0), BuildingBlock: AJUNOK_clean_linker_0, # of connection points: 2
#     Edge 110, Type (0, 0), BuildingBlock: AJUNOK_clean_linker_0, # of connection points: 2
#     Edge 111, Type (0, 0), BuildingBlock: AJUNOK_clean_linker_0, # of connection points: 2
#     Edge 112, Type (0, 0), BuildingBlock: AJUNOK_clean_linker_0, # of connection points: 2
#     Edge 113, Type (0, 0), BuildingBlock: AJUNOK_clean_linker_0, # of connection points: 2
#     Edge 114, Type (0, 0), BuildingBlock: AJUNOK_clean_linker_0, # of connection points: 2
#     Edge 115, Type (0, 0), BuildingBlock: AJUNOK_clean_linker_0, # of connection points: 2
#     Edge 116, Type (0, 0), BuildingBlock: AJUNOK_clean_linker_0, # of connection points: 2
#     Edge 117, Type (0, 0), BuildingBlock: AJUNOK_clean_linker_0, # of connection points: 2
#     Edge 118, Type (0, 0), BuildingBlock: AJUNOK_clean_linker_0, # of connection points: 2
#     Edge 119, Type (0, 0), BuildingBlock: AJUNOK_clean_linker_0, # of connection points: 2
#     Edge 120, Type (0, 0), BuildingBlock: AJUNOK_clean_linker_0, # of connection points: 2
#     Edge 121, Type (0, 0), BuildingBlock: AJUNOK_clean_linker_0, # of connection points: 2
#     Edge 122, Type (0, 0), BuildingBlock: AJUNOK_clean_linker_0, # of connection points: 2
#     Edge 123, Type (0, 0), BuildingBlock: AJUNOK_clean_linker_0, # of connection points: 2
#     Edge 124, Type (0, 0), BuildingBlock: AJUNOK_clean_linker_0, # of connection points: 2
#     Edge 125, Type (0, 0), BuildingBlock: AJUNOK_clean_linker_0, # of connection points: 2
#     Edge 126, Type (0, 0), BuildingBlock: AJUNOK_clean_linker_0, # of connection points: 2
#     Edge 127, Type (0, 0), BuildingBlock: AJUNOK_clean_linker_0, # of connection points: 2
#     Edge 128, Type (0, 0), BuildingBlock: AJUNOK_clean_linker_0, # of connection points: 2
#     Edge 129, Type (0, 0), BuildingBlock: AJUNOK_clean_linker_0, # of connection points: 2
#     Edge 130, Type (0, 0), BuildingBlock: AJUNOK_clean_linker_0, # of connection points: 2
#     Edge 131, Type (0, 0), BuildingBlock: AJUNOK_clean_linker_0, # of connection points: 2
#     Edge 132, Type (0, 0), BuildingBlock: AJUNOK_clean_linker_0, # of connection points: 2
#     Edge 133, Type (0, 0), BuildingBlock: AJUNOK_clean_linker_0, # of connection points: 2
#     Edge 134, Type (0, 0), BuildingBlock: AJUNOK_clean_linker_0, # of connection points: 2
#     Edge 135, Type (0, 0), BuildingBlock: AJUNOK_clean_linker_0, # of connection points: 2
#     Edge 136, Type (0, 0), BuildingBlock: AJUNOK_clean_linker_0, # of connection points: 2
#     Edge 137, Type (0, 0), BuildingBlock: AJUNOK_clean_linker_0, # of connection points: 2
#     Edge 138, Type (0, 0), BuildingBlock: AJUNOK_clean_linker_0, # of connection points: 2
#     Edge 139, Type (0, 0), BuildingBlock: AJUNOK_clean_linker_0, # of connection points: 2
#     Edge 140, Type (0, 0), BuildingBlock: AJUNOK_clean_linker_0, # of connection points: 2
#     Edge 141, Type (0, 0), BuildingBlock: AJUNOK_clean_linker_0, # of connection points: 2
#     Edge 142, Type (0, 0), BuildingBlock: AJUNOK_clean_linker_0, # of connection points: 2
#     Edge 143, Type (0, 0), BuildingBlock: AJUNOK_clean_linker_0, # of connection points: 2
# Relax obj value: 0.794
# Max RMSD: 0.291
# Mean RMSD: 0.288
data_MOF--net-lcv-a--node1-TATPOV_clean_sbu_0--edge1-AJUNOK_clean_linker_0
_symmetry_space_group_name_H-M    P1
_symmetry_Int_Tables_number       1
_symmetry_cell_setting            triclinic
loop_
_symmetry_equiv_pos_as_xyz
'x, y, z'
_cell_length_a     66.539565
_cell_length_b     66.49101
_cell_length_c     66.539622
_cell_angle_alpha  89.103742
_cell_angle_beta   89.273456
_cell_angle_gamma 89.150609
loop_
_atom_site_label
_atom_site_type_symbol
_atom_site_fract_x
_atom_site_fract_y
_atom_site_fract_z
_atom_type_partial_charge
Zn0 Zn 0.06415 0.32074 0.17205 0.0
Zn1 Zn 0.03913 0.34738 0.17749 0.0
O2 O 0.04433 0.32936 0.20302 0.0
O3 O 0.07092 0.31007 0.19951 0.0
O4 O 0.02686 0.37235 0.18926 0.0
O5 O 0.03935 0.3086 0.15823 0.0
O6 O 0.0172 0.33297 0.16361 0.0
C7 C 0.05636 0.31608 0.2103 0.0
C8 C 0.07506 0.34915 0.14596 0.0
O9 O 0.05831 0.35519 0.15351 0.0
O10 O 0.08426 0.3347 0.15452 0.0
C11 C 0.03636 0.37941 0.20393 0.0
O12 O 0.05413 0.37167 0.20815 0.0
C13 C 0.02172 0.31595 0.15631 0.0
Zn14 Zn 0.98886 0.81247 0.43566 0.0
Zn15 Zn 0.95678 0.79277 0.43916 0.0
O16 O 0.97523 0.78994 0.46401 0.0
O17 O -0.00156 0.81274 0.46418 0.0
O18 O 0.93159 0.78027 0.45018 0.0
O19 O -0.00268 0.7884 0.41778 0.0
O20 O 0.9679 0.77352 0.41849 0.0
C21 C 0.98996 0.79799 0.47275 0.0
C22 C 0.9582 0.83459 0.41744 0.0
O23 O 0.94885 0.8189 0.42338 0.0
O24 O 0.97626 0.83674 0.42263 0.0
C25 C 0.92603 0.78586 0.46758 0.0
O26 O 0.93524 0.80104 0.47568 0.0
C27 C 0.98594 0.77444 0.41211 0.0
Zn28 Zn 0.52506 0.69253 0.63961 0.0
Zn29 Zn 0.52705 0.68616 0.67618 0.0
O30 O 0.5291 0.71582 0.68156 0.0
O31 O 0.52526 0.72205 0.6492 0.0
O32 O 0.53113 0.67183 0.70257 0.0
O33 O 0.55073 0.68043 0.62902 0.0
O34 O 0.55387 0.6792 0.66159 0.0
C35 C 0.52754 0.72829 0.66699 0.0
C36 C 0.48828 0.68021 0.64981 0.0
O37 O 0.49736 0.68204 0.66653 0.0
O38 O 0.49851 0.68076 0.6337 0.0
C39 C 0.51866 0.66452 0.71518 0.0
O40 O 0.49931 0.66628 0.71174 0.0
C41 C 0.56176 0.6775 0.64413 0.0
Zn42 Zn 0.6052 0.25987 0.90251 0.0
Zn43 Zn 0.61057 0.25437 0.93803 0.0
O44 O 0.58145 0.25034 0.94491 0.0
O45 O 0.57574 0.25667 0.91287 0.0
O46 O 0.62629 0.25456 0.96367 0.0
O47 O 0.61436 0.28778 0.89646 0.0
O48 O 0.61074 0.28472 0.92899 0.0
C49 C 0.56926 0.2527 0.93053 0.0
C50 C 0.62072 0.223 0.9037 0.0
O51 O 0.61826 0.2282 0.92202 0.0
O52 O 0.61867 0.23623 0.89004 0.0
C53 C 0.61797 0.2622 0.97913 0.0
O54 O 0.59884 0.26727 0.97835 0.0
C55 C 0.61249 0.29601 0.91337 0.0
Zn56 Zn 0.07112 0.72207 0.33725 0.0
Zn57 Zn 0.04717 0.69568 0.33113 0.0
O58 O 0.04871 0.71624 0.30729 0.0
O59 O 0.07388 0.73648 0.31075 0.0
O60 O 0.03417 0.6719 0.31898 0.0
O61 O 0.04786 0.73105 0.35636 0.0
O62 O 0.02587 0.70801 0.34892 0.0
C63 C 0.05897 0.73105 0.30071 0.0
C64 C 0.08674 0.6912 0.3572 0.0
O65 O 0.06944 0.68564 0.35137 0.0
O66 O 0.09404 0.70704 0.34958 0.0
C67 C 0.03883 0.66682 0.30117 0.0
O68 O 0.05383 0.67584 0.2919 0.0
C69 C 0.0305 0.72355 0.35855 0.0
Zn70 Zn 0.59587 0.77006 0.64612 0.0
Zn71 Zn 0.60631 0.77217 0.60898 0.0
O72 O 0.57658 0.77427 0.60261 0.0
O73 O 0.56728 0.76946 0.63429 0.0
O74 O 0.62176 0.76839 0.58325 0.0
O75 O 0.60936 0.74404 0.65415 0.0
O76 O 0.61159 0.74386 0.62142 0.0
C77 C 0.56286 0.772 0.61589 0.0
C78 C 0.61459 0.80687 0.63839 0.0
O79 O 0.61521 0.7994 0.62082 0.0
O80 O 0.60783 0.79642 0.65294 0.0
C81 C 0.61595 0.76871 0.56513 0.0
O82 O 0.59755 0.77459 0.56086 0.0
C83 C 0.613 0.7345 0.63821 0.0
Zn84 Zn 0.51408 0.33553 0.91161 0.0
Zn85 Zn 0.51651 0.34474 0.8756 0.0
O86 O 0.51706 0.31582 0.8672 0.0
O87 O 0.51755 0.30705 0.8993 0.0
O88 O 0.52229 0.36202 0.85126 0.0
O89 O 0.53839 0.34761 0.92386 0.0
O90 O 0.54316 0.34771 0.89136 0.0
C91 C 0.51794 0.30228 0.88086 0.0
C92 C 0.47693 0.34897 0.90165 0.0
O93 O 0.48679 0.34948 0.88504 0.0
O94 O 0.48642 0.34579 0.91775 0.0
C95 C 0.51387 0.36371 0.83429 0.0
O96 O 0.49749 0.35359 0.83086 0.0
C97 C 0.55029 0.34909 0.90898 0.0
Zn98 Zn 0.97051 0.21402 0.1074 0.0
Zn99 Zn 0.94363 0.23726 0.09435 0.0
O100 O 0.95905 0.22711 0.06921 0.0
O101 O 0.98349 0.20805 0.08075 0.0
O102 O 0.92024 0.25222 0.08247 0.0
O103 O 0.98006 0.23888 0.12269 0.0
O104 O 0.96014 0.25954 0.1058 0.0
C105 C 0.97512 0.21689 0.06605 0.0
C106 C 0.93753 0.20433 0.1282 0.0
O107 O 0.93286 0.2207 0.11899 0.0
O108 O 0.95271 0.19445 0.12204 0.0
C109 C 0.90728 0.2447 0.07104 0.0
O110 O 0.90763 0.22525 0.06788 0.0
C111 C 0.97411 0.25663 0.11837 0.0
Zn112 Zn 0.18173 0.0701 0.31393 0.0
Zn113 Zn 0.18797 0.04585 0.3425 0.0
O114 O 0.21488 0.05453 0.3291 0.0
O115 O 0.20978 0.0787 0.3071 0.0
O116 O 0.19738 0.0322 0.36786 0.0
O117 O 0.1706 0.04469 0.3006 0.0
O118 O 0.17749 0.02343 0.32528 0.0
C119 C 0.22187 0.0668 0.31594 0.0
C120 C 0.15493 0.08026 0.34331 0.0
O121 O 0.16325 0.06417 0.35021 0.0
O122 O 0.1623 0.08853 0.32771 0.0
C123 C 0.21048 0.04057 0.37851 0.0
O124 O 0.21613 0.05888 0.37361 0.0
C125 C 0.17063 0.02687 0.3078 0.0
Zn126 Zn 0.24987 0.88637 0.59558 0.0
Zn127 Zn 0.25398 0.93644 0.61858 0.0
O128 O 0.25286 0.93909 0.58838 0.0
O129 O 0.2507 0.90922 0.57332 0.0
O130 O 0.2576 0.96433 0.62897 0.0
O131 O 0.26395 0.89463 0.62146 0.0
O132 O 0.28102 0.9215 0.62317 0.0
C133 C 0.25171 0.92848 0.57262 0.0
C134 C 0.22531 0.90598 0.6242 0.0
O135 O 0.22625 0.92479 0.62674 0.0
O136 O 0.24205 0.89664 0.6241 0.0
C137 C 0.27134 0.9744 0.62016 0.0
O138 O 0.28103 0.96625 0.60495 0.0
C139 C 0.28064 0.9032 0.61832 0.0
Zn140 Zn 0.35362 0.01231 0.80459 0.0
Zn141 Zn 0.34283 0.02936 0.83503 0.0
O142 O 0.3199 0.02628 0.81419 0.0
O143 O 0.32756 -0.00012 0.79665 0.0
O144 O 0.32728 0.04078 0.85828 0.0
O145 O 0.3605 0.0402 0.79384 0.0
O146 O 0.36043 0.05242 0.82439 0.0
C147 C 0.31516 0.01385 0.8007 0.0
C148 C 0.37328 0.99461 0.83706 0.0
O149 O 0.36027 0.00521 0.84659 0.0
O150 O 0.37453 0.99592 0.81814 0.0
C151 C 0.31068 0.03257 0.86291 0.0
O152 O 0.30573 0.01606 0.85372 0.0
C153 C 0.36397 0.05449 0.80563 0.0
Zn154 Zn 0.29984 0.07503 0.0471 0.0
Zn155 Zn 0.28108 0.07227 0.07815 0.0
O156 O 0.26981 0.05451 0.05506 0.0
O157 O 0.29346 0.04992 0.03252 0.0
O158 O 0.27002 0.06075 0.10383 0.0
O159 O 0.27999 0.09927 0.0437 0.0
O160 O 0.26657 0.09867 0.07407 0.0
C161 C 0.27572 0.04664 0.03855 0.0
C162 C 0.32682 0.08434 0.07473 0.0
O163 O 0.3104 0.08112 0.08432 0.0
O164 O 0.32763 0.08068 0.05616 0.0
C165 C 0.27593 0.04402 0.11126 0.0
O166 O 0.29005 0.03371 0.10182 0.0
C167 C 0.26824 0.10689 0.05681 0.0
Zn168 Zn 0.211 0.00344 0.25906 0.0
Zn169 Zn 0.21981 0.01554 0.22452 0.0
O170 O 0.24041 0.02592 0.24524 0.0
O171 O 0.23823 0.00563 0.27121 0.0
O172 O 0.23105 0.02403 0.19776 0.0
O173 O 0.19115 0.0274 0.25972 0.0
O174 O 0.19436 0.03226 0.22707 0.0
C175 C 0.24657 0.02045 0.26261 0.0
C176 C 0.2019 0.97348 0.23239 0.0
O177 O 0.2106 0.98619 0.22078 0.0
O178 O 0.20025 0.97702 0.25094 0.0
C179 C 0.24404 0.01397 0.18785 0.0
O180 O 0.25092 0.99689 0.19543 0.0
C181 C 0.18555 0.03615 0.24361 0.0
Zn182 Zn 0.30693 0.93706 0.47341 0.0
Zn183 Zn 0.27805 0.95642 0.44922 0.0
O184 O 0.27246 0.96077 0.48003 0.0
O185 O 0.29614 0.94675 0.49883 0.0
O186 O 0.26116 0.9757 0.43302 0.0
O187 O 0.28839 0.91406 0.46181 0.0
O188 O 0.26412 0.93087 0.44629 0.0
C189 C 0.27974 0.95641 0.49731 0.0
C190 C 0.32187 0.95081 0.44241 0.0
O191 O 0.30487 0.95018 0.43412 0.0
O192 O 0.32176 0.95987 0.45878 0.0
C193 C 0.25957 0.9946 0.43505 0.0
O194 O 0.27067 0.00354 0.44833 0.0
C195 C 0.27154 0.91437 0.45273 0.0
Zn196 Zn 0.35686 0.05649 0.72145 0.0
Zn197 Zn 0.3397 0.04381 0.69121 0.0
O198 O 0.31743 0.04344 0.7137 0.0
O199 O 0.33369 0.05331 0.74014 0.0
O200 O 0.32475 0.03586 0.66664 0.0
O201 O 0.37749 0.03342 0.71819 0.0
O202 O 0.3583 0.01946 0.69589 0.0
C203 C 0.31769 0.04733 0.73238 0.0
C204 C 0.36423 0.08365 0.69198 0.0
O205 O 0.35685 0.06894 0.68251 0.0
O206 O 0.36274 0.08377 0.71088 0.0
C207 C 0.30586 0.03824 0.66491 0.0
O208 O 0.29574 0.04814 0.67876 0.0
C209 C 0.37375 0.01875 0.70694 0.0
Zn210 Zn 0.22048 0.11054 0.97268 0.0
Zn211 Zn 0.2452 0.10434 0.94558 0.0
O212 O 0.24055 0.07945 0.96463 0.0
O213 O 0.21367 0.08311 0.98344 0.0
O214 O 0.25923 0.09254 0.92159 0.0
O215 O 0.24527 0.12443 0.98468 0.0
O216 O 0.26639 0.11998 0.95934 0.0
C217 C 0.2285 0.07237 0.97795 0.0
C218 C 0.20887 0.13509 0.94239 0.0
O219 O 0.22524 0.12697 0.93604 0.0
O220 O 0.20062 0.12792 0.9581 0.0
C221 C 0.25484 0.07493 0.9161 0.0
O222 O 0.2396 0.06586 0.92486 0.0
C223 C 0.26243 0.12705 0.97654 0.0
Zn224 Zn 0.31719 0.18374 0.07287 0.0
Zn225 Zn 0.34455 0.19231 0.04811 0.0
O226 O 0.32848 0.2182 0.05524 0.0
O227 O 0.30606 0.21133 0.07849 0.0
O228 O 0.36876 0.20236 0.03272 0.0
O229 O 0.30591 0.16806 0.04893 0.0
O230 O 0.32813 0.17923 0.02679 0.0
C231 C 0.3139 0.22395 0.06646 0.0
C232 C 0.34841 0.16063 0.08383 0.0
O233 O 0.35383 0.16853 0.067 0.0
O234 O 0.33337 0.16811 0.09296 0.0
C235 C 0.37565 0.21994 0.03488 0.0
O236 O 0.3681 0.2313 0.04916 0.0
C237 C 0.31256 0.1691 0.03097 0.0
Zn238 Zn 0.82176 0.36667 0.00753 0.0
Zn239 Zn 0.83771 0.33657 0.01321 0.0
O240 O 0.80819 0.32847 0.02025 0.0
O241 O 0.80157 0.35967 0.02858 0.0
O242 O 0.8559 0.31339 0.02077 0.0
O243 O 0.84475 0.38417 0.01568 0.0
O244 O 0.8454 0.35735 0.03466 0.0
C245 C 0.79709 0.34129 0.02942 0.0
C246 C 0.83085 0.35272 0.9712 0.0
O247 O 0.84384 0.3444 0.98274 0.0
O248 O 0.81552 0.36086 0.97913 0.0
C249 C 0.85037 0.29688 0.02882 0.0
O250 O 0.83113 0.29291 0.03036 0.0
C251 C 0.84833 0.37616 0.03266 0.0
Zn252 Zn 0.93093 0.56906 0.23613 0.0
Zn253 Zn 0.9468 0.59586 0.25388 0.0
O254 O 0.96397 0.56986 0.25879 0.0
O255 O 0.94738 0.5456 0.24478 0.0
O256 O 0.96488 0.61743 0.26327 0.0
O257 O 0.90644 0.57669 0.25394 0.0
O258 O 0.92486 0.59372 0.27475 0.0
C259 C 0.96185 0.55123 0.25526 0.0
C260 C 0.9296 0.59817 0.21028 0.0
O261 O 0.93273 0.60611 0.22732 0.0
O262 O 0.93474 0.58 0.20818 0.0
C263 C 0.98327 0.61713 0.25788 0.0
O264 O 0.98948 0.60381 0.24472 0.0
C265 C 0.90828 0.58569 0.27052 0.0
Zn266 Zn 0.72985 0.67323 0.49608 0.0
Zn267 Zn 0.6985 0.69328 0.50502 0.0
O268 O 0.72101 0.7138 0.51084 0.0
O269 O 0.74763 0.69445 0.50612 0.0
O270 O 0.67413 0.70838 0.51474 0.0
O271 O 0.72297 0.64989 0.51454 0.0
O272 O 0.69906 0.66987 0.52589 0.0
C273 C 0.74 0.71116 0.51106 0.0
C274 C 0.7054 0.67786 0.46209 0.0
O275 O 0.69303 0.68484 0.47518 0.0
O276 O 0.72307 0.67313 0.46725 0.0
C277 C 0.6676 0.72554 0.50894 0.0
O278 O 0.67596 0.73448 0.49327 0.0
C279 C 0.70918 0.6535 0.52731 0.0
Zn280 Zn 0.12104 0.95742 0.21555 0.0
Zn281 Zn 0.1113 0.93773 0.24153 0.0
O282 O 0.08773 0.95749 0.23861 0.0
O283 O 0.09432 0.97211 0.20976 0.0
O284 O 0.09824 0.91556 0.25755 0.0
O285 O 0.13761 0.97325 0.23573 0.0
O286 O 0.1317 0.95095 0.25954 0.0
C287 C 0.08268 0.96994 0.22482 0.0
C288 C 0.14021 0.92038 0.20654 0.0
O289 O 0.12239 0.92394 0.21357 0.0
O290 O 0.12312 0.92449 0.21367 0.0
C291 C 0.08253 0.90886 0.24947 0.0
O292 O 0.0777 0.91568 0.23151 0.0
C293 C 0.13983 0.96723 0.25375 0.0
Zn294 Zn 0.23473 0.8444 0.53465 0.0
Zn295 Zn 0.20282 0.8359 0.52306 0.0
O296 O 0.22221 0.81126 0.52294 0.0
O297 O 0.2409 0.81764 0.5484 0.0
O298 O 0.17723 0.82359 0.51444 0.0
O299 O 0.24341 0.8485 0.50564 0.0
O300 O 0.21165 0.8543 0.49923 0.0
C301 C 0.23642 0.80579 0.53453 0.0
C302 C 0.20702 0.86555 0.55681 0.0
O303 O 0.19655 0.85136 0.54985 0.0
O304 O 0.22474 0.86798 0.55032 0.0
C305 C 0.17155 0.80737 0.52291 0.0
O306 O 0.18137 0.80046 0.53864 0.0
C307 C 0.23005 0.85487 0.49365 0.0
Zn308 Zn 0.95763 0.49411 0.32553 0.0
Zn309 Zn 0.97287 0.45563 0.2857 0.0
O310 O -0.00073 0.469 0.29277 0.0
O311 O 0.9852 0.48163 0.31855 0.0
O312 O 0.98044 0.43809 0.26236 0.0
O313 O 0.9403 0.49872 0.30074 0.0
O314 O 0.94962 0.47635 0.27723 0.0
C315 C 0.99438 0.48477 0.3019 0.0
C316 C 0.95657 0.44969 0.32277 0.0
O317 O 0.9622 0.4382 0.30872 0.0
O318 O 0.96782 0.46466 0.32571 0.0
C319 C 0.99658 0.428 0.26505 0.0
O320 O 0.00523 0.42872 0.28267 0.0
C321 C 0.93855 0.49123 0.28328 0.0
Zn322 Zn 0.5858 0.55316 0.81315 0.0
Zn323 Zn 0.58194 0.58316 0.79031 0.0
O324 O 0.55831 0.56309 0.7882 0.0
O325 O 0.55784 0.54231 0.81389 0.0
O326 O 0.57108 0.60738 0.77526 0.0
O327 O 0.60532 0.5434 0.79071 0.0
O328 O 0.60461 0.57172 0.77303 0.0
C329 C 0.54994 0.54863 0.79777 0.0
C330 C 0.60111 0.58575 0.83277 0.0
O331 O 0.59547 0.59371 0.81613 0.0
O332 O 0.59713 0.56752 0.83644 0.0
C333 C 0.55265 0.61238 0.77744 0.0
O334 O 0.54167 0.60269 0.79085 0.0
C335 C 0.61153 0.55399 0.7759 0.0
Zn336 Zn 0.52932 0.85342 0.64333 0.0
Zn337 Zn 0.53146 0.85595 0.68047 0.0
O338 O 0.53336 0.82581 0.68363 0.0
O339 O 0.52795 0.82303 0.65117 0.0
O340 O 0.52869 0.86789 0.70796 0.0
O341 O 0.50342 0.86769 0.63681 0.0
O342 O 0.50285 0.86137 0.66908 0.0
C343 C 0.53055 0.81493 0.66842 0.0
C344 C 0.56703 0.86637 0.65086 0.0
O345 O 0.55928 0.86393 0.66838 0.0
O346 O 0.55585 0.86504 0.63574 0.0
C347 C 0.51618 0.85975 0.72007 0.0
O348 O 0.50788 0.84281 0.71492 0.0
C349 C 0.49346 0.86605 0.65303 0.0
Zn350 Zn 0.45257 0.25176 0.89153 0.0
Zn351 Zn 0.44041 0.24845 0.92777 0.0
O352 O 0.46972 0.25063 0.93546 0.0
O353 O 0.48077 0.25037 0.90406 0.0
O354 O 0.42546 0.24216 0.95344 0.0
O355 O 0.44131 0.22666 0.88028 0.0
O356 O 0.43735 0.22154 0.91258 0.0
C357 C 0.48418 0.2506 0.92279 0.0
C358 C 0.43171 0.28685 0.90159 0.0
O359 O 0.43056 0.27692 0.91816 0.0
O360 O 0.43966 0.27857 0.8864 0.0
C361 C 0.42514 0.25218 0.96954 0.0
O362 O 0.43498 0.26913 0.97023 0.0
C363 C 0.43762 0.21471 0.89476 0.0
Zn364 Zn 0.98585 0.24831 0.21026 0.0
Zn365 Zn 0.0038 0.21667 0.21451 0.0
O366 O 0.01546 0.24006 0.2314 0.0
O367 O 0.99174 0.26256 0.23581 0.0
O368 O 0.01463 0.19136 0.227 0.0
O369 O 0.00653 0.25094 0.18674 0.0
O370 O 0.01778 0.21968 0.18765 0.0
C371 C 0.00957 0.25667 0.23904 0.0
C372 C 0.95827 0.22001 0.20272 0.0
O373 O 0.97422 0.21015 0.20731 0.0
O374 O 0.9583 0.23895 0.20389 0.0
C375 C 0.00739 0.18464 0.24348 0.0
O376 O 0.99277 0.19474 0.25236 0.0
C377 C 0.01733 0.23696 0.17926 0.0
Zn378 Zn 0.05561 0.72336 0.45035 0.0
Zn379 Zn 0.08448 0.74447 0.45674 0.0
O380 O 0.06226 0.74897 0.47848 0.0
O381 O 0.03835 0.72727 0.47487 0.0
O382 O 0.10888 0.75651 0.46853 0.0
O383 O 0.05238 0.74394 0.42677 0.0
O384 O 0.07665 0.76422 0.43498 0.0
C385 C 0.04524 0.74211 0.48404 0.0
C386 C 0.08595 0.70104 0.43747 0.0
O387 O 0.09313 0.71831 0.44121 0.0
O388 O 0.06862 0.69691 0.44417 0.0
C389 C 0.11187 0.75621 0.48735 0.0
O390 O 0.10003 0.74557 0.49919 0.0
C391 C 0.06218 0.75997 0.42368 0.0
Zn392 Zn 0.53038 0.17694 0.89427 0.0
Zn393 Zn 0.53089 0.17661 0.85715 0.0
O394 O 0.5273 0.20668 0.85548 0.0
O395 O 0.52892 0.20774 0.88848 0.0
O396 O 0.53039 0.16661 0.82893 0.0
O397 O 0.50486 0.16267 0.9012 0.0
O398 O 0.50354 0.16677 0.86866 0.0
C399 C 0.52717 0.2167 0.87155 0.0
C400 C 0.56825 0.16698 0.88492 0.0
O401 O 0.55999 0.17162 0.86819 0.0
O402 O 0.55714 0.16457 0.90029 0.0
C403 C 0.51606 0.17337 0.8182 0.0
O404 O 0.50406 0.18732 0.82567 0.0
C405 C 0.49485 0.16203 0.88522 0.0
Zn406 Zn 0.03718 0.29144 0.0679 0.0
Zn407 Zn 0.06942 0.27227 0.06614 0.0
O408 O 0.04871 0.25966 0.04702 0.0
O409 O 0.02332 0.2806 0.04395 0.0
O410 O 0.09641 0.26216 0.05667 0.0
O411 O 0.0347 0.27556 0.09497 0.0
O412 O 0.06357 0.2589 0.09286 0.0
C413 C 0.03157 0.26395 0.03958 0.0
C414 C 0.06495 0.3193 0.07323 0.0
O415 O 0.07428 0.3024 0.07277 0.0
O416 O 0.04659 0.31992 0.06864 0.0
C417 C 0.10585 0.27267 0.04364 0.0
O418 O 0.09734 0.2893 0.03674 0.0
C419 C 0.04726 0.26289 0.1022 0.0
Zn420 Zn 0.99164 0.80267 0.32946 0.0
Zn421 Zn 0.01544 0.83127 0.32622 0.0
O422 O 0.01975 0.80935 0.30451 0.0
O423 O 0.99374 0.78997 0.30231 0.0
O424 O 0.03157 0.85386 0.31425 0.0
O425 O 0.01194 0.79346 0.35129 0.0
O426 O 0.03016 0.82092 0.35072 0.0
C427 C 0.01097 0.79494 0.29595 0.0
C428 C 0.97111 0.83684 0.34144 0.0
O429 O 0.9885 0.84363 0.33697 0.0
O430 O 0.96743 0.81864 0.33789 0.0
C431 C 0.02802 0.85772 0.29585 0.0
O432 O 0.01319 0.84838 0.28731 0.0
C433 C 0.02619 0.80372 0.35822 0.0
Zn434 Zn 0.44504 0.77345 0.64866 0.0
Zn435 Zn 0.43589 0.7761 0.6141 0.0
O436 O 0.46384 0.77548 0.60264 0.0
O437 O 0.47304 0.77163 0.63417 0.0
O438 O 0.4169 0.78127 0.59144 0.0
O439 O 0.43731 0.79947 0.66123 0.0
O440 O 0.43513 0.80383 0.62877 0.0
C441 C 0.47755 0.77299 0.61556 0.0
C442 C 0.43117 0.7376 0.64273 0.0
O443 O 0.43239 0.74642 0.62552 0.0
O444 O 0.43246 0.74813 0.65826 0.0
C445 C 0.42029 0.77837 0.57287 0.0
O446 O 0.43687 0.769 0.56717 0.0
C447 C 0.43554 0.8113 0.64633 0.0
Zn448 Zn 0.69292 0.55711 0.80764 0.0
Zn449 Zn 0.69649 0.53576 0.839 0.0
O450 O 0.72004 0.53164 0.81855 0.0
O451 O 0.72077 0.55556 0.79575 0.0
O452 O 0.7074 0.52173 0.86359 0.0
O453 O 0.67269 0.53499 0.80031 0.0
O454 O 0.67381 0.51864 0.82939 0.0
C455 C 0.72851 0.53969 0.80319 0.0
C456 C 0.67776 0.57912 0.83938 0.0
O457 O 0.68292 0.56259 0.84803 0.0
O458 O 0.68245 0.58187 0.82107 0.0
C459 C 0.72539 0.52548 0.86837 0.0
O460 O 0.73503 0.53957 0.8583 0.0
C461 C 0.66654 0.52096 0.81193 0.0
Zn462 Zn 0.759 0.42897 0.07014 0.0
Zn463 Zn 0.76822 0.44406 0.09989 0.0
O464 O 0.76952 0.46527 0.07669 0.0
O465 O 0.74539 0.45387 0.05856 0.0
O466 O 0.77598 0.45995 0.1238 0.0
O467 O 0.78825 0.42424 0.06372 0.0
O468 O 0.79259 0.42455 0.09631 0.0
C469 C 0.75782 0.46761 0.06182 0.0
C470 C 0.73382 0.41461 0.09858 0.0
O471 O 0.74002 0.43099 0.10599 0.0
O472 O 0.7429 0.40746 0.08348 0.0
C473 C 0.77104 0.47843 0.125 0.0
O474 O 0.75858 0.48622 0.11174 0.0
C475 C 0.79942 0.42115 0.07871 0.0
Zn476 Zn 0.84768 0.49403 0.29961 0.0
Zn477 Zn 0.84051 0.50265 0.33484 0.0
O478 O 0.81495 0.50256 0.31669 0.0
O479 O 0.82154 0.4814 0.29286 0.0
O480 O 0.82959 0.50917 0.36216 0.0
O481 O 0.85215 0.52445 0.29523 0.0
O482 O 0.8553 0.52814 0.32779 0.0
C483 C 0.80913 0.4932 0.30125 0.0
C484 C 0.87391 0.47229 0.32422 0.0
O485 O 0.86255 0.48008 0.33772 0.0
O486 O 0.87097 0.47639 0.3059 0.0
C487 C 0.81155 0.5058 0.36752 0.0
O488 O 0.80043 0.49455 0.35617 0.0
C489 C 0.85664 0.53526 0.31004 0.0
Zn490 Zn 0.77157 0.62399 0.60184 0.0
Zn491 Zn 0.77643 0.59162 0.60441 0.0
O492 O 0.78213 0.57912 0.57873 0.0
O493 O 0.77813 0.61167 0.57242 0.0
O494 O 0.77242 0.57106 0.62625 0.0
O495 O 0.74274 0.63134 0.60702 0.0
O496 O 0.74702 0.60106 0.59559 0.0
C497 C 0.78136 0.59372 0.56616 0.0
C498 C 0.80734 0.62646 0.61171 0.0
O499 O 0.80359 0.60868 0.60582 0.0
O500 O 0.79275 0.63735 0.61739 0.0
C501 C 0.77506 0.55224 0.62421 0.0
O502 O 0.78424 0.54536 0.60809 0.0
C503 C 0.73584 0.61669 0.59756 0.0
Zn504 Zn 0.69594 0.46964 0.73873 0.0
Zn505 Zn 0.70213 0.49048 0.70914 0.0
O506 O 0.72508 0.49315 0.7299 0.0
O507 O 0.72155 0.47084 0.75402 0.0
O508 O 0.7143 0.50151 0.68371 0.0
O509 O 0.67445 0.49204 0.74361 0.0
O510 O 0.68217 0.51179 0.71793 0.0
C511 C 0.73119 0.48537 0.74642 0.0
C512 C 0.67923 0.44883 0.71032 0.0
O513 O 0.6841 0.46572 0.70228 0.0
O514 O 0.68645 0.44409 0.72723 0.0
C515 C 0.73266 0.49843 0.67906 0.0
O516 O 0.7433 0.48549 0.68977 0.0
C517 C 0.67169 0.50826 0.73361 0.0
Zn518 Zn 0.78694 0.4201 0.98212 0.0
Zn519 Zn 0.7707 0.43855 0.95219 0.0
O520 O 0.77603 0.4607 0.97309 0.0
O521 O 0.79154 0.44482 -0.00235 0.0
O522 O 0.7591 0.45505 0.92942 0.0
O523 O 0.76103 0.40453 0.98681 0.0
O524 O 0.74662 0.42233 0.96263 0.0
C525 C 0.78421 0.46091 0.9903 0.0
C526 C 0.80839 0.41082 0.94703 0.0
O527 O 0.79392 0.42084 0.93908 0.0
O528 O 0.80934 0.40909 0.96592 0.0
C529 C 0.76707 0.47173 0.92458 0.0
O530 O 0.78362 0.47691 0.93358 0.0
C531 C 0.7456 0.40912 0.97665 0.0
Zn532 Zn 0.84084 0.56216 0.23509 0.0
Zn533 Zn 0.84236 0.53752 0.20881 0.0
O534 O 0.81776 0.53296 0.22798 0.0
O535 O 0.81323 0.5589 0.24715 0.0
O536 O 0.83315 0.52239 0.18503 0.0
O537 O 0.86474 0.54456 0.24595 0.0
O538 O 0.86586 0.52258 0.22163 0.0
C539 C 0.80752 0.54191 0.24157 0.0
C540 C 0.85508 0.58284 0.20322 0.0
O541 O 0.85407 0.56463 0.19748 0.0
O542 O 0.84728 0.5874 0.21996 0.0
C543 C 0.81636 0.52875 0.17836 0.0
O544 O 0.80835 0.54515 0.18602 0.0
C545 C 0.87279 0.52901 0.23803 0.0
Zn546 Zn 0.73757 0.60654 0.46082 0.0
Zn547 Zn 0.76311 0.59958 0.43875 0.0
O548 O 0.76845 0.58934 0.46834 0.0
O549 O 0.73983 0.58816 0.48469 0.0
O550 O 0.7757 0.57929 0.42054 0.0
O551 O 0.75642 0.63252 0.46054 0.0
O552 O 0.78107 0.62262 0.44029 0.0
C553 C 0.75855 0.58502 0.48433 0.0
C554 C 0.7191 0.6148 0.42901 0.0
O555 O 0.73803 0.61456 0.42542 0.0
O556 O 0.71294 0.60477 0.44401 0.0
C557 C 0.76977 0.56122 0.42043 0.0
O558 O 0.75383 0.55615 0.43109 0.0
C559 C 0.7735 0.63566 0.45201 0.0
Zn560 Zn 0.79251 0.69214 0.54985 0.0
Zn561 Zn 0.84241 0.7104 0.53048 0.0
O562 O 0.82569 0.73491 0.53946 0.0
O563 O 0.81171 0.71338 0.55899 0.0
O564 O 0.86512 0.7222 0.51408 0.0
O565 O 0.79323 0.68744 0.51959 0.0
O566 O 0.82502 0.69467 0.51011 0.0
C567 C 0.81005 0.72957 0.54891 0.0
C568 C 0.83946 0.68281 0.56286 0.0
O569 O 0.85343 0.69181 0.55339 0.0
O570 O 0.82152 0.68645 0.55781 0.0
C571 C 0.87236 0.73891 0.51923 0.0
O572 O 0.86633 0.74679 0.5363 0.0
C573 C 0.80746 0.68791 0.50649 0.0
Zn574 Zn 0.30024 0.86532 0.50137 0.0
Zn575 Zn 0.3352 0.8504 0.51226 0.0
O576 O 0.31838 0.82484 0.50844 0.0
O577 O 0.28941 0.8376 0.49885 0.0
O578 O 0.36089 0.83822 0.52245 0.0
O579 O 0.29702 0.88017 0.52781 0.0
O580 O 0.32521 0.8654 0.53745 0.0
C581 C 0.30032 0.82243 0.50303 0.0
C582 C 0.33164 0.87843 0.47506 0.0
O583 O 0.34291 0.86899 0.48755 0.0
O584 O 0.3128 0.87849 0.47755 0.0
C585 C 0.36778 0.82115 0.51711 0.0
O586 O 0.3594 0.81191 0.50213 0.0
C587 C 0.31008 0.87676 0.54117 0.0
Zn588 Zn 0.41617 0.06939 0.71247 0.0
Zn589 Zn 0.45415 0.10494 0.73568 0.0
O590 O 0.46948 0.07789 0.74218 0.0
O591 O 0.44399 0.07165 0.7245 0.0
O592 O 0.46804 0.12661 0.75046 0.0
O593 O 0.40063 0.08571 0.73405 0.0
O594 O 0.4259 0.10134 0.74948 0.0
C595 C 0.45668 0.06514 0.73715 0.0
C596 C 0.44097 0.10064 0.69653 0.0
O597 O 0.4493 0.11442 0.70622 0.0
O598 O 0.44276 0.08313 0.70417 0.0
C599 C 0.487 0.12626 0.75253 0.0
O600 O 0.49767 0.11208 0.74369 0.0
C601 C 0.40752 0.09569 0.74874 0.0
Zn602 Zn 0.25105 0.21362 0.99393 0.0
Zn603 Zn 0.21895 0.219 0.0134 0.0
O604 O 0.23996 0.23942 0.02325 0.0
O605 O 0.26561 0.23809 0.00242 0.0
O606 O 0.19256 0.22926 0.02414 0.0
O607 O 0.2532 0.18794 0.01185 0.0
O608 O 0.22484 0.19313 0.02865 0.0
C609 C 0.25741 0.24541 0.01796 0.0
C610 C 0.22145 0.20849 0.96717 0.0
O611 O 0.2124 0.21106 0.98399 0.0
O612 O 0.2402 0.21121 0.96615 0.0
C613 C 0.18519 0.24534 0.01655 0.0
O614 O 0.19533 0.2547 0.00224 0.0
C615 C 0.24059 0.18261 0.02534 0.0
Zn616 Zn 0.58172 0.47533 0.73462 0.0
Zn617 Zn 0.57571 0.44919 0.75991 0.0
O618 O 0.55214 0.47022 0.76022 0.0
O619 O 0.55617 0.49139 0.73513 0.0
O620 O 0.5651 0.42508 0.77504 0.0
O621 O 0.60381 0.48284 0.75485 0.0
O622 O 0.59546 0.46126 0.77881 0.0
C623 C 0.54629 0.48593 0.75056 0.0
C624 C 0.59831 0.444 0.71773 0.0
O625 O 0.59397 0.43891 0.73588 0.0
O626 O 0.59033 0.45984 0.71051 0.0
C627 C 0.5469 0.41956 0.7745 0.0
O628 O 0.53449 0.42895 0.76222 0.0
C629 C 0.60628 0.47563 0.77245 0.0
Zn630 Zn 0.69629 0.39747 0.0484 0.0
Zn631 Zn 0.67133 0.34854 0.04521 0.0
O632 O 0.70148 0.34343 0.04793 0.0
O633 O 0.71675 0.37327 0.05049 0.0
O634 O 0.65735 0.32226 0.04177 0.0
O635 O 0.67081 0.39043 0.03303 0.0
O636 O 0.6691 0.36256 0.01749 0.0
C637 C 0.7172 0.35399 0.05007 0.0
C638 C 0.66526 0.38097 0.07205 0.0
O639 O 0.66233 0.36219 0.07172 0.0
O640 O 0.66683 0.38958 0.05498 0.0
C641 C 0.66623 0.30893 0.03125 0.0
O642 O 0.68485 0.31206 0.02535 0.0
C643 C 0.67369 0.38093 0.01682 0.0
Zn644 Zn 0.41511 0.95083 0.77875 0.0
Zn645 Zn 0.44818 0.94867 0.77545 0.0
O646 O 0.4593 0.97553 0.77552 0.0
O647 O 0.4267 0.98113 0.77878 0.0
O648 O 0.47053 0.92901 0.76949 0.0
O649 O 0.40153 0.94375 0.75334 0.0
O650 O 0.43199 0.95453 0.74834 0.0
C651 C 0.44457 0.98788 0.77651 0.0
C652 C 0.42219 0.94168 0.81466 0.0
O653 O 0.43813 0.94815 0.806 0.0
O654 O 0.40879 0.93477 0.80362 0.0
C655 C 0.46967 0.91028 0.77334 0.0
O656 O 0.45395 0.90333 0.7832 0.0
C657 C 0.41422 0.95208 0.74179 0.0
Zn658 Zn 0.07507 0.04559 0.29294 0.0
Zn659 Zn 0.06903 0.07604 0.27448 0.0
O660 O 0.05625 0.05105 0.2608 0.0
O661 O 0.05364 0.02742 0.2837 0.0
O662 O 0.05402 0.10042 0.26476 0.0
O663 O 0.10157 0.04746 0.27566 0.0
O664 O 0.09566 0.07677 0.26067 0.0
C665 C 0.05076 0.03335 0.26584 0.0
C666 C 0.0795 0.0721 0.321 0.0
O667 O 0.07717 0.08152 0.30428 0.0
O668 O 0.07612 0.05347 0.32167 0.0
C669 C 0.04123 0.10973 0.27562 0.0
O670 O 0.03723 0.10281 0.29381 0.0
C671 C 0.10703 0.06159 0.26373 0.0
C672 C 0.03052 0.3079 0.23651 0.0
C673 C 0.04941 0.30351 0.22769 0.0
C674 C 0.01843 0.29247 0.24433 0.0
C675 C 0.02482 0.27219 0.24337 0.0
H676 H 0.02388 0.32281 0.23495 0.0
H677 H 0.00302 0.29623 0.24835 0.0
S678 S 0.07663 0.25448 0.23121 0.0
N679 N 0.07666 0.27875 0.22554 0.0
N680 N 0.05389 0.24977 0.24014 0.0
C681 C 0.04531 0.26843 0.23912 0.0
C682 C 0.05766 0.28415 0.23119 0.0
C683 C 0.03584 0.77633 0.49556 0.0
C684 C 0.03092 0.75581 0.49465 0.0
C685 C 0.02114 0.79129 0.49217 0.0
C686 C 0.00118 0.78604 0.48812 0.0
H687 H 0.05142 0.78086 0.49551 0.0
H688 H 0.0261 0.80659 0.48969 0.0
S689 S 0.97933 0.73552 0.49612 0.0
N690 N 0.00383 0.73179 0.49814 0.0
N691 N 0.97611 0.75994 0.49224 0.0
C692 C 0.99544 0.7662 0.49283 0.0
C693 C 0.01044 0.75096 0.49606 0.0
C694 C 0.51307 0.76207 0.66039 0.0
C695 C 0.52746 0.75015 0.67031 0.0
C696 C 0.514 0.78305 0.66028 0.0
C697 C 0.52916 0.7929 0.67056 0.0
H698 H 0.50121 0.75491 0.65235 0.0
H699 H 0.50287 0.79168 0.65195 0.0
S700 S 0.56967 0.76857 0.70041 0.0
N701 N 0.55681 0.74957 0.69167 0.0
N702 N 0.55829 0.78928 0.69207 0.0
C703 C 0.54304 0.78123 0.68163 0.0
C704 C 0.54223 0.75973 0.68144 0.0
C705 C 0.51697 0.2329 0.92632 0.0
C706 C 0.50512 0.25022 0.92952 0.0
C707 C 0.5379 0.23328 0.92846 0.0
C708 C 0.5475 0.25103 0.93381 0.0
H709 H 0.51007 0.21927 0.92122 0.0
H710 H 0.54673 0.22001 0.92467 0.0
S711 S 0.52291 0.2996 0.94643 0.0
N712 N 0.50414 0.28493 0.94034 0.0
N713 N 0.54361 0.28573 0.94412 0.0
C714 C 0.53569 0.26802 0.93844 0.0
C715 C 0.51438 0.2676 0.93636 0.0
C716 C 0.02851 0.7437 0.28308 0.0
C717 C 0.04917 0.74585 0.28684 0.0
C718 C 0.01571 0.76061 0.28207 0.0
C719 C 0.02332 0.78006 0.28456 0.0
H720 H 0.02166 0.72903 0.28412 0.0
H721 H -0.00035 0.75816 0.28238 0.0
S722 S 0.0772 0.79356 0.28308 0.0
N723 N 0.07733 0.76874 0.28454 0.0
N724 N 0.0533 0.80056 0.28229 0.0
C725 C 0.04428 0.78235 0.28284 0.0
C726 C 0.0573 0.76513 0.28403 0.0
C727 C 0.53082 0.75404 0.61189 0.0
C728 C 0.54156 0.77202 0.61031 0.0
C729 C 0.50975 0.7542 0.61147 0.0
C730 C 0.49888 0.77239 0.6096 0.0
H731 H 0.53872 0.73992 0.61465 0.0
H732 H 0.5019 0.74023 0.61417 0.0
S733 S 0.52009 0.82324 0.60278 0.0
N734 N 0.53999 0.8082 0.60493 0.0
N735 N 0.50029 0.80855 0.60437 0.0
C736 C 0.50948 0.79027 0.60648 0.0
C737 C 0.53093 0.79009 0.60682 0.0
C738 C 0.53758 0.27057 0.88367 0.0
C739 C 0.52094 0.28101 0.87575 0.0
C740 C 0.53995 0.24982 0.88112 0.0
C741 C 0.52561 0.23878 0.87095 0.0
H742 H 0.54865 0.2785 0.89219 0.0
H743 H 0.55284 0.24213 0.88752 0.0
S744 S 0.47937 0.25912 0.84721 0.0
N745 N 0.4901 0.27903 0.85678 0.0
N746 N 0.49438 0.23973 0.85241 0.0
C747 C 0.50921 0.2491 0.86232 0.0
C748 C 0.50689 0.27035 0.8647 0.0
C749 C 0.98272 0.23931 0.03679 0.0
C750 C 0.98757 0.22172 0.04791 0.0
C751 C -0.00205 0.25202 0.02961 0.0
C752 C 0.01831 0.24736 0.03336 0.0
H753 H 0.96739 0.24501 0.03649 0.0
H754 H 0.99362 0.26688 0.02418 0.0
S755 S 0.03813 0.19781 0.05101 0.0
N756 N 0.01355 0.19641 0.05436 0.0
N757 N 0.04217 0.22018 0.04071 0.0
C758 C 0.02302 0.22741 0.03922 0.0
C759 C 0.00753 0.21452 0.04661 0.0
C760 C 0.25168 0.05604 0.27108 0.0
C761 C 0.25568 0.03563 0.27576 0.0
C762 C 0.24446 0.06902 0.28605 0.0
C763 C 0.24135 0.06175 0.30586 0.0
H764 H 0.25031 0.061 0.25557 0.0
H765 H 0.23797 0.08334 0.28131 0.0
S766 S 0.2627 0.01434 0.32698 0.0
N767 N 0.26575 0.01231 0.30241 0.0
N768 N 0.25244 0.03679 0.33061 0.0
C769 C 0.25152 0.04384 0.31135 0.0
C770 C 0.25877 0.03063 0.29612 0.0
C771 C 0.26478 0.95688 0.55136 0.0
C772 C 0.25403 0.93877 0.55288 0.0
C773 C 0.27118 0.96453 0.53262 0.0
C774 C 0.26636 0.95472 0.51485 0.0
H775 H 0.2698 0.96429 0.56473 0.0
H776 H 0.28129 0.97716 0.53214 0.0
S777 S 0.23663 0.90838 0.5106 0.0
N778 N 0.23743 0.91238 0.53494 0.0
N779 N 0.24885 0.92712 0.49973 0.0
C780 C 0.25397 0.93781 0.51609 0.0
C781 C 0.24797 0.92971 0.53513 0.0
C782 C 0.30111 0.01844 0.74797 0.0
C783 C 0.30223 0.03949 0.74631 0.0
C784 C 0.30054 0.00901 0.767 0.0
C785 C 0.30117 0.02057 0.78457 0.0
H786 H 0.30447 0.00922 0.73503 0.0
H787 H 0.30328 0.99292 0.76779 0.0
S788 S 0.29214 0.07562 0.78703 0.0
N789 N 0.29534 0.07112 0.76283 0.0
N790 N 0.29355 0.05349 0.7986 0.0
C791 C 0.29632 0.0412 0.78264 0.0
C792 C 0.29718 0.05075 0.76333 0.0
C793 C 0.24027 0.04755 0.02694 0.0
C794 C 0.26042 0.04167 0.02329 0.0
C795 C 0.22807 0.05451 0.01118 0.0
C796 C 0.23564 0.05567 0.99132 0.0
H797 H 0.23478 0.0496 0.04218 0.0
H798 H 0.21378 0.06154 0.01506 0.0
S799 S 0.28342 0.03265 0.97307 0.0
N800 N 0.28445 0.03042 -0.00219 0.0
N801 N 0.2615 0.0435 0.96821 0.0
C802 C 0.25384 0.04546 0.98712 0.0
C803 C 0.26626 0.03837 0.00317 0.0
C804 C 0.26633 0.2493 0.05372 0.0
C805 C 0.27081 0.25375 0.03339 0.0
C806 C 0.28167 0.24335 0.06692 0.0
C807 C 0.30175 0.24185 0.06003 0.0
H808 H 0.25093 0.24697 0.05861 0.0
H809 H 0.27731 0.23677 0.0813 0.0
S810 S 0.32156 0.26355 0.01223 0.0
N811 N 0.29687 0.26485 0.00999 0.0
N812 N 0.32573 0.25403 0.0349 0.0
C813 C 0.30658 0.25185 0.04183 0.0
C814 C 0.29097 0.25775 0.02836 0.0
C815 C 0.74227 0.33122 0.03356 0.0
C816 C 0.7371 0.34402 0.04954 0.0
C817 C 0.76254 0.3276 0.02836 0.0
C818 C 0.77794 0.33632 0.03938 0.0
H819 H 0.73072 0.32577 0.02381 0.0
H820 H 0.76604 0.31992 0.01447 0.0
S821 S 0.77195 0.36563 0.08602 0.0
N822 N 0.74875 0.36167 0.07868 0.0
N823 N 0.78672 0.35428 0.06946 0.0
C824 C 0.77281 0.34637 0.05717 0.0
C825 C 0.75234 0.35042 0.06213 0.0
C826 C 0.98333 0.52084 0.29841 0.0
C827 C 0.98862 0.50254 0.28927 0.0
C828 C 0.97617 0.5373 0.28698 0.0
C829 C 0.97382 0.53589 0.26608 0.0
H830 H 0.98416 0.52226 0.31457 0.0
H831 H 0.97128 0.55076 0.29472 0.0
S832 S 0.98731 0.49238 0.23437 0.0
N833 N 0.99292 0.48496 0.25743 0.0
N834 N 0.97848 0.51559 0.23644 0.0
C835 C 0.97993 0.51816 0.2566 0.0
C836 C 0.98768 0.50158 0.26806 0.0
C837 C 0.77272 0.72924 0.55097 0.0
C838 C 0.79019 0.73382 0.53972 0.0
C839 C 0.75462 0.72509 0.54143 0.0
C840 C 0.75342 0.72557 0.52038 0.0
H841 H 0.77365 0.72655 0.56704 0.0
H842 H 0.74236 0.71902 0.55041 0.0
S843 S 0.79282 0.74253 0.4845 0.0
N844 N 0.80369 0.743 0.50666 0.0
N845 N 0.76951 0.73531 0.48892 0.0
C846 C 0.76971 0.73321 0.50926 0.0
C847 C 0.78819 0.73741 0.51891 0.0
C848 C 0.04544 -0.00226 0.25671 0.0
C849 C 0.04883 0.01769 0.25026 0.0
C850 C 0.05411 0.98152 0.2464 0.0
C851 C 0.06628 0.98471 0.2292 0.0
H852 H 0.03842 0.99472 0.27121 0.0
H853 H 0.05323 0.96669 0.25332 0.0
S854 S 0.07168 0.03311 0.20132 0.0
N855 N 0.05917 0.03907 0.22203 0.0
N856 N 0.07546 0.00852 0.20263 0.0
C857 C 0.06604 0.00406 0.22034 0.0
C858 C 0.05719 0.02063 0.23088 0.0
C859 C 0.28934 0.79726 0.52782 0.0
C860 C 0.28986 0.80349 0.50752 0.0
C861 C 0.271 0.79198 0.53699 0.0
C862 C 0.25306 0.79327 0.52594 0.0
H863 H 0.30194 0.80025 0.53745 0.0
H864 H 0.27034 0.79115 0.55326 0.0
S865 S 0.24984 0.79614 0.47044 0.0
N866 N 0.27341 0.80157 0.47533 0.0
N867 N 0.23916 0.79074 0.49238 0.0
C868 C 0.25501 0.79281 0.50483 0.0
C869 C 0.27352 0.79854 0.49556 0.0
C870 C 0.53296 0.51568 0.79495 0.0
C871 C 0.53645 0.53503 0.78682 0.0
C872 C 0.53166 0.49904 0.78237 0.0
C873 C 0.53405 0.50135 0.76138 0.0
H874 H 0.53426 0.51286 0.81096 0.0
H875 H 0.53209 0.4842 0.78933 0.0
S876 S 0.532 0.5498 0.73306 0.0
N877 N 0.53359 0.5563 0.75684 0.0
N878 N 0.53142 0.52496 0.7332 0.0
C879 C 0.53213 0.52096 0.75327 0.0
C880 C 0.53333 0.53792 0.76607 0.0
C881 C 0.7447 0.53284 0.77002 0.0
C882 C 0.74188 0.52705 0.79031 0.0
C883 C 0.74563 0.51834 0.75494 0.0
C884 C 0.74356 0.49776 0.75982 0.0
H885 H 0.7431 0.54848 0.76543 0.0
H886 H 0.74469 0.52355 0.73946 0.0
S887 S 0.74743 0.47517 0.81094 0.0
N888 N 0.74579 0.49964 0.81469 0.0
N889 N 0.74721 0.47239 0.78631 0.0
C890 C 0.74615 0.49192 0.78005 0.0
C891 C 0.74535 0.50668 0.79541 0.0
C892 C 0.79249 0.47954 0.02069 0.0
C893 C 0.77924 0.47698 0.00464 0.0
C894 C 0.78505 0.48128 0.0404 0.0
C895 C 0.76425 0.4801 0.04436 0.0
H896 H 0.80843 0.47663 0.01853 0.0
H897 H 0.79571 0.47981 0.05253 0.0
S898 S 0.72391 0.4835 0.00664 0.0
N899 N 0.74487 0.48135 0.99323 0.0
N900 N 0.73087 0.48397 0.03036 0.0
C901 C 0.75118 0.48281 0.02809 0.0
C902 C 0.75877 0.48145 0.00802 0.0
C903 C 0.78983 0.52361 0.29105 0.0
C904 C 0.79375 0.50296 0.28816 0.0
C905 C 0.79025 0.53707 0.2746 0.0
C906 C 0.79411 0.52999 0.25505 0.0
H907 H 0.79032 0.52986 0.30597 0.0
H908 H 0.79086 0.553 0.27769 0.0
S909 S 0.79179 0.47684 0.23949 0.0
N910 N 0.79159 0.47575 0.26432 0.0
N911 N 0.79218 0.501 0.23333 0.0
C912 C 0.79173 0.50931 0.25186 0.0
C913 C 0.79134 0.49567 0.26861 0.0
C914 C 0.76801 0.56898 0.5173 0.0
C915 C 0.76897 0.58523 0.50365 0.0
C916 C 0.774 0.5712 0.53734 0.0
C917 C 0.78054 0.58992 0.54435 0.0
H918 H 0.76171 0.55485 0.51275 0.0
H919 H 0.77205 0.55863 0.5477 0.0
S920 S 0.78545 0.63692 0.51427 0.0
N921 N 0.77723 0.62032 0.49828 0.0
N922 N 0.78834 0.62456 0.5357 0.0
C923 C 0.78242 0.6059 0.53047 0.0
C924 C 0.77658 0.60355 0.51018 0.0
C925 C 0.46994 0.03467 0.75561 0.0
C926 C 0.45349 0.04644 0.74914 0.0
C927 C 0.46705 0.01627 0.76587 0.0
C928 C 0.44758 0.00924 0.77046 0.0
H929 H 0.48512 0.03927 0.75196 0.0
H930 H 0.48016 0.00711 0.76944 0.0
S931 S 0.39964 0.03641 0.75994 0.0
N932 N 0.41721 0.05078 0.74991 0.0
N933 N 0.41173 0.01703 0.77002 0.0
C934 C 0.43111 0.0218 0.76556 0.0
C935 C 0.43407 0.04015 0.75463 0.0
C936 C -0.00224 0.28803 0.15819 0.0
C937 C 0.00646 0.30368 0.14692 0.0
C938 C 0.98667 0.27315 0.14885 0.0
C939 C 0.98361 0.27377 0.12802 0.0
H940 H 0.00034 0.28689 0.1742 0.0
H941 H 0.98076 0.26085 0.15788 0.0
S942 S 0.0012 0.31323 0.09228 0.0
N943 N 0.01017 0.31993 0.11421 0.0
N944 N 0.98851 0.29239 0.09664 0.0
C945 C 0.99101 0.2902 0.11679 0.0
C946 C 0.00269 0.3051 0.12627 0.0
C947 C 0.02074 0.73376 0.39294 0.0
C948 C 0.01612 0.73317 0.37246 0.0
C949 C 0.01001 0.74647 0.40597 0.0
C950 C 0.99431 0.75883 0.3989 0.0
H951 H 0.03333 0.72501 0.39868 0.0
H952 H 0.01439 0.74716 0.42155 0.0
S953 S 0.97484 0.76104 0.34701 0.0
N954 N 0.99378 0.74469 0.34596 0.0
N955 N 0.97337 0.76845 0.3706 0.0
C956 C 0.98859 0.75735 0.37876 0.0
C957 C -0.0004 0.74448 0.36545 0.0
C958 C 0.59424 0.68672 0.65897 0.0
C959 C 0.58379 0.68051 0.64188 0.0
C960 C 0.60783 0.7026 0.65745 0.0
C961 C 0.61152 0.7122 0.63878 0.0
H962 H 0.58936 0.682 0.67388 0.0
H963 H 0.61278 0.70932 0.67123 0.0
S964 S 0.59789 0.69244 0.58903 0.0
N965 N 0.5852 0.6785 0.60542 0.0
N966 N 0.61117 0.70801 0.60247 0.0
C967 C 0.6059 0.70196 0.62139 0.0
C968 C 0.59188 0.68597 0.62298 0.0
C969 C 0.59464 0.32343 0.93176 0.0
C970 C 0.60486 0.31714 0.91421 0.0
C971 C 0.57847 0.33714 0.93064 0.0
C972 C 0.5721 0.345 0.91194 0.0
H973 H 0.5972 0.31574 0.94599 0.0
H974 H 0.56935 0.33932 0.94405 0.0
S975 S 0.60001 0.34074 0.86356 0.0
N976 N 0.61208 0.32529 0.87908 0.0
N977 N 0.58172 0.35113 0.87701 0.0
C978 C 0.58506 0.34236 0.89528 0.0
C979 C 0.60151 0.32837 0.89641 0.0
C980 C 0.14072 0.00122 0.26798 0.0
C981 C 0.14791 0.98129 0.26848 0.0
C982 C 0.14763 0.01542 0.28138 0.0
C983 C 0.16239 0.01051 0.29558 0.0
H984 H 0.12932 0.00582 0.25732 0.0
H985 H 0.14131 0.03044 0.28066 0.0
S986 S 0.18499 0.95981 0.30422 0.0
N987 N 0.16926 0.95668 0.28552 0.0
N988 N 0.18323 0.98382 0.31018 0.0
C989 C 0.16924 0.99039 0.29682 0.0
C990 C 0.16177 0.97568 0.28337 0.0
C991 C 0.30375 0.90425 0.56584 0.0
C992 C 0.30614 0.88366 0.56182 0.0
C993 C 0.29734 0.91075 0.58492 0.0
C994 C 0.29225 0.89679 0.60028 0.0
H995 H 0.30629 0.91535 0.55402 0.0
H996 H 0.29501 0.92672 0.58714 0.0
S997 S 0.2967 0.84126 0.59728 0.0
N998 N 0.30416 0.84947 0.57488 0.0
N999 N 0.2911 0.86155 0.61035 0.0
C1000 C 0.29535 0.87622 0.59655 0.0
C1001 C 0.30245 0.86968 0.57738 0.0
C1002 C 0.39408 0.07516 0.79922 0.0
C1003 C 0.37333 0.07259 0.79702 0.0
C1004 C 0.40515 0.0861 0.78478 0.0
C1005 C 0.39572 0.09445 0.76765 0.0
H1006 H 0.40213 0.06671 0.81071 0.0
H1007 H 0.4214 0.08558 0.78565 0.0
S1008 S 0.34101 0.09693 0.75856 0.0
N1009 N 0.34325 0.0829 0.77915 0.0
N1010 N 0.36405 0.10351 0.75203 0.0
C1011 C 0.37466 0.09454 0.76709 0.0
C1012 C 0.36344 0.08346 0.78175 0.0
C1013 C 0.24594 0.12691 0.03429 0.0
C1014 C 0.25746 0.12576 0.05183 0.0
C1015 C 0.23915 0.14552 0.02664 0.0
C1016 C 0.24393 0.16346 0.03611 0.0
H1017 H 0.24299 0.11343 0.02594 0.0
H1018 H 0.23088 0.14603 0.01273 0.0
S1019 S 0.27154 0.16839 0.0837 0.0
N1020 N 0.27161 0.14392 0.07959 0.0
N1021 N 0.25916 0.17902 0.06484 0.0
C1022 C 0.25428 0.16247 0.05434 0.0
C1023 C 0.26096 0.1435 0.06232 0.0
C1024 C 0.14342 0.06876 0.26321 0.0
C1025 C 0.12682 0.06015 0.25397 0.0
C1026 C 0.16304 0.06239 0.25827 0.0
C1027 C 0.16645 0.04749 0.24384 0.0
H1028 H 0.14118 0.07903 0.27555 0.0
H1029 H 0.17546 0.06803 0.26681 0.0
S1030 S 0.12799 0.02249 0.21359 0.0
N1031 N 0.11499 0.03766 0.22848 0.0
N1032 N 0.15188 0.02604 0.2188 0.0
C1033 C 0.15006 0.04038 0.23308 0.0
C1034 C 0.13015 0.04661 0.23832 0.0
C1035 C 0.26724 0.8775 0.45801 0.0
C1036 C 0.25848 0.89653 0.45451 0.0
C1037 C 0.25653 0.86243 0.46818 0.0
C1038 C 0.23685 0.86604 0.47543 0.0
H1039 H 0.28293 0.87481 0.45449 0.0
H1040 H 0.26437 0.84859 0.47214 0.0
S1041 S 0.2049 0.9106 0.46349 0.0
N1042 N 0.22719 0.91608 0.45386 0.0
N1043 N 0.20723 0.88772 0.47328 0.0
C1044 C 0.22675 0.88345 0.46859 0.0
C1045 C 0.23761 0.89882 0.45807 0.0
C1046 C 0.37571 0.98162 0.71244 0.0
C1047 C 0.38564 -8e-05 0.70923 0.0
C1048 C 0.38591 0.96476 0.72048 0.0
C1049 C 0.40643 0.96561 0.72548 0.0
H1050 H 0.35959 0.98086 0.71055 0.0
H1051 H 0.37719 0.95167 0.7246 0.0
S1052 S 0.44029 0.00826 0.71359 0.0
N1053 N 0.41772 0.01671 0.70736 0.0
N1054 N 0.43717 0.98494 0.72182 0.0
C1055 C 0.41705 0.98295 0.71942 0.0
C1056 C 0.40654 0.0002 0.71161 0.0
C1057 C 0.28568 0.12749 0.00507 0.0
C1058 C 0.27791 0.13718 0.98797 0.0
C1059 C 0.29747 0.13785 0.01864 0.0
C1060 C 0.30224 0.1581 0.01522 0.0
H1061 H 0.28193 0.11197 0.00822 0.0
H1062 H 0.30263 0.13011 0.03211 0.0
S1063 S 0.28727 0.18963 0.97135 0.0
N1064 N 0.27673 0.16768 0.96747 0.0
N1065 N 0.29967 0.18709 0.99264 0.0
C1066 C 0.29571 0.1676 -0.00259 0.0
C1067 C 0.28333 0.15712 0.9838 0.0
C1068 C 0.83648 0.38064 0.06799 0.0
C1069 C 0.84581 0.389 0.05063 0.0
C1070 C 0.82332 0.39228 0.07987 0.0
C1071 C 0.81953 0.41254 0.07488 0.0
H1072 H 0.83688 0.36454 0.07073 0.0
H1073 H 0.81417 0.38478 0.0912 0.0
S1074 S 0.84626 0.44307 0.03633 0.0
N1075 N 0.8551 0.41997 0.03319 0.0
N1076 N 0.83019 0.44169 0.05541 0.0
C1077 C 0.83181 0.4218 0.06028 0.0
C1078 C 0.84522 0.41005 0.04825 0.0
C1079 C 0.90015 0.56927 0.30285 0.0
C1080 C 0.89358 0.58115 0.28647 0.0
C1081 C 0.88705 0.55586 0.31255 0.0
C1082 C 0.86713 0.55419 0.3061 0.0
H1083 H 0.91601 0.56824 0.30634 0.0
H1084 H 0.89318 0.54513 0.32335 0.0
S1085 S 0.84108 0.58815 0.27007 0.0
N1086 N 0.86489 0.59473 0.26842 0.0
N1087 N 0.84009 0.56951 0.28678 0.0
C1088 C 0.85968 0.56838 0.29219 0.0
C1089 C 0.873 0.58199 0.28236 0.0
C1090 C 0.72257 0.61152 0.56335 0.0
C1091 C 0.72051 0.62116 0.58201 0.0
C1092 C 0.71666 0.62123 0.5455 0.0
C1093 C 0.70796 0.64064 0.54572 0.0
H1094 H 0.73113 0.5976 0.56208 0.0
H1095 H 0.72069 0.61427 0.53136 0.0
S1096 S 0.69297 0.66908 0.59121 0.0
N1097 N 0.70468 0.64879 0.60003 0.0
N1098 N 0.69301 0.66684 0.56653 0.0
C1099 C 0.70258 0.64877 0.56449 0.0
C1100 C 0.70892 0.639 0.58267 0.0
C1101 C 0.91383 0.51888 0.27605 0.0
C1102 C 0.92281 0.50054 0.27015 0.0
C1103 C 0.89796 0.5277 0.26543 0.0
C1104 C 0.89018 0.51889 0.2482 0.0
H1105 H 0.91891 0.52659 0.28924 0.0
H1106 H 0.89161 0.54159 0.27096 0.0
S1107 S 0.90875 0.47128 0.22552 0.0
N1108 N 0.92309 0.47404 0.24535 0.0
N1109 N 0.89319 0.49089 0.22515 0.0
C1110 C 0.89928 0.50079 0.24165 0.0
C1111 C 0.91559 0.49162 0.25263 0.0
C1112 C 0.63602 0.51635 0.74133 0.0
C1113 C 0.65607 0.52255 0.74052 0.0
C1114 C 0.62137 0.52741 0.75192 0.0
C1115 C 0.6263 0.54508 0.76186 0.0
H1116 H 0.63188 0.50233 0.73454 0.0
H1117 H 0.60621 0.52177 0.75299 0.0
S1118 S 0.67633 0.56873 0.76259 0.0
N1119 N 0.67993 0.54817 0.74927 0.0
N1120 N 0.65223 0.5692 0.76898 0.0
C1121 C 0.64601 0.55221 0.76002 0.0
C1122 C 0.66098 0.54085 0.74934 0.0
C1123 C 0.4482 0.84338 0.63152 0.0
C1124 C 0.44111 0.83273 0.64859 0.0
C1125 C 0.46326 0.85776 0.63325 0.0
C1126 C 0.47161 0.86185 0.65209 0.0
H1127 H 0.44433 0.83866 0.61657 0.0
H1128 H 0.47026 0.86339 0.61953 0.0
S1129 S 0.45093 0.84551 0.70162 0.0
N1130 N 0.43811 0.83277 0.6851 0.0
N1131 N 0.46634 0.85988 0.68832 0.0
C1132 C 0.46121 0.85491 0.66934 0.0
C1133 C 0.44592 0.84023 0.66759 0.0
C1134 C 0.44837 0.18131 0.90832 0.0
C1135 C 0.44146 0.19286 0.89179 0.0
C1136 C 0.46378 0.16692 0.90576 0.0
C1137 C 0.47256 0.16386 0.88664 0.0
H1138 H 0.44441 0.18558 0.92352 0.0
H1139 H 0.47096 0.16086 0.91912 0.0
S1140 S 0.45111 0.18136 0.83817 0.0
N1141 N 0.43809 0.19376 0.85542 0.0
N1142 N 0.46691 0.16653 0.85061 0.0
C1143 C 0.46172 0.17098 0.86987 0.0
C1144 C 0.44611 0.1857 0.87247 0.0
C1145 C 0.04633 0.26531 0.13919 0.0
C1146 C 0.04311 0.25389 0.12205 0.0
C1147 C 0.03897 0.25902 0.15805 0.0
C1148 C 0.02835 0.241 0.16031 0.0
H1149 H 0.05389 0.27957 0.13779 0.0
H1150 H 0.0409 0.26869 0.17082 0.0
S1151 S 0.01774 0.20481 0.12012 0.0
N1152 N 0.02987 0.22321 0.10847 0.0
N1153 N 0.01633 0.21105 0.14406 0.0
C1154 C 0.02622 0.22878 0.14345 0.0
C1155 C 0.03351 0.23535 0.1242 0.0
C1156 C 0.05705 0.7657 0.38729 0.0
C1157 C 0.05652 0.77331 0.40681 0.0
C1158 C 0.04804 0.7763 0.37135 0.0
C1159 C 0.03844 0.79492 0.37443 0.0
H1160 H 0.06381 0.75107 0.38458 0.0
H1161 H 0.04802 0.76968 0.35659 0.0
S1162 S 0.03474 0.8223 0.42241 0.0
N1163 N 0.04695 0.80121 0.42822 0.0
N1164 N 0.03024 0.82138 0.39806 0.0
C1165 C 0.03899 0.80338 0.39361 0.0
C1166 C 0.04804 0.79249 0.4099 0.0
C1167 C 0.65648 0.49536 0.78761 0.0
C1168 C 0.65162 0.50691 0.80448 0.0
C1169 C 0.64184 0.48408 0.77812 0.0
C1170 C 0.62188 0.48414 0.78512 0.0
H1171 H 0.67163 0.49552 0.7815 0.0
H1172 H 0.64592 0.47581 0.76474 0.0
S1173 S 0.60191 0.51055 0.82991 0.0
N1174 N 0.62592 0.5166 0.82883 0.0
N1175 N 0.59822 0.49552 0.81078 0.0
C1176 C 0.61706 0.49468 0.8027 0.0
C1177 C 0.63202 0.5061 0.81245 0.0
C1178 C 0.69402 0.40809 0.00071 0.0
C1179 C 0.6905 0.38738 0.00339 0.0
C1180 C 0.71133 0.415 0.99072 0.0
C1181 C 0.72594 0.40144 0.98337 0.0
H1182 H 0.68362 0.41907 0.00701 0.0
H1183 H 0.71384 0.43105 0.98974 0.0
S1184 S 0.72329 0.3459 0.98438 0.0
N1185 N 0.70247 0.35338 0.996 0.0
N1186 N 0.73535 0.3666 0.97797 0.0
C1187 C 0.72234 0.38078 0.98512 0.0
C1188 C 0.70449 0.37368 0.99488 0.0
C1189 C 0.78498 0.68369 0.4776 0.0
C1190 C 0.80326 0.67885 0.48694 0.0
C1191 C 0.77628 0.67056 0.46412 0.0
C1192 C 0.78578 0.65228 0.45928 0.0
H1193 H 0.77657 0.69691 0.48199 0.0
H1194 H 0.76135 0.67399 0.45867 0.0
S1195 S 0.83578 0.63445 0.47672 0.0
N1196 N 0.83206 0.65606 0.48822 0.0
N1197 N 0.81596 0.63141 0.46243 0.0
C1198 C 0.80538 0.64857 0.46636 0.0
C1199 C 0.81414 0.66192 0.48031 0.0
C1200 C 0.06259 0.35879 0.11205 0.0
C1201 C 0.07887 0.35238 0.12403 0.0
C1202 C 0.05971 0.35052 0.09304 0.0
C1203 C 0.07314 0.33581 0.08546 0.0
H1204 H 0.05039 0.36765 0.11847 0.0
H1205 H 0.04549 0.35354 0.08575 0.0
S1206 S 0.12315 0.3228 0.10632 0.0
N1207 N 0.1123 0.33707 0.12356 0.0
N1208 N 0.10694 0.32159 0.0878 0.0
C1209 C 0.09176 0.33341 0.09505 0.0
C1210 C 0.09467 0.34182 0.11441 0.0
C1211 C 0.96823 0.86064 0.36972 0.0
C1212 C 0.95866 0.84701 0.35712 0.0
C1213 C 0.96459 0.86008 0.39054 0.0
C1214 C 0.95143 0.84578 0.39911 0.0
H1215 H 0.98093 0.86921 0.36419 0.0
H1216 H 0.97465 0.86827 0.40001 0.0
S1217 S 0.91436 0.81646 0.37109 0.0
N1218 N 0.92924 0.82616 0.35353 0.0
N1219 N 0.92249 0.82497 0.39267 0.0
C1220 C 0.93784 0.83673 0.38611 0.0
C1221 C 0.94149 0.83737 0.36492 0.0
C1222 C 0.45659 0.69306 0.66576 0.0
C1223 C 0.46639 0.68522 0.64865 0.0
C1224 C 0.44159 0.708 0.66382 0.0
C1225 C 0.43615 0.71571 0.64472 0.0
H1226 H 0.46238 0.68983 0.68063 0.0
H1227 H 0.4365 0.71547 0.67735 0.0
S1228 S 0.44994 0.6928 0.59592 0.0
N1229 N 0.46392 0.68053 0.61253 0.0
N1230 N 0.43614 0.70899 0.6089 0.0
C1231 C 0.44236 0.70461 0.62787 0.0
C1232 C 0.45745 0.6892 0.62986 0.0
C1233 C 0.61045 0.18819 0.91301 0.0
C1234 C 0.61798 0.20157 0.89823 0.0
C1235 C 0.59656 0.17347 0.908 0.0
C1236 C 0.58977 0.17182 0.88809 0.0
H1237 H 0.61282 0.19097 0.9288 0.0
H1238 H 0.58901 0.16555 0.92021 0.0
S1239 S 0.61325 0.19579 0.84312 0.0
N1240 N 0.624 0.20658 0.86234 0.0
N1241 N 0.59765 0.17913 0.85296 0.0
C1242 C 0.601 0.18156 0.87287 0.0
C1243 C 0.61527 0.19644 0.87797 0.0
C1244 C 0.08098 0.67568 0.41077 0.0
C1245 C 0.09368 0.68973 0.4197 0.0
C1246 C 0.08113 0.67309 0.38987 0.0
C1247 C 0.09409 0.68435 0.37731 0.0
H1248 H 0.06895 0.6688 0.41943 0.0
H1249 H 0.06918 0.66444 0.38348 0.0
S1250 S 0.13674 0.7148 0.39445 0.0
N1251 N 0.12424 0.70899 0.41528 0.0
N1252 N 0.12479 0.70384 0.37608 0.0
C1253 C 0.10988 0.69448 0.38658 0.0
C1254 C 0.10961 0.69727 0.40785 0.0
C1255 C 0.60841 0.84127 0.62471 0.0
C1256 C 0.61487 0.82902 0.64089 0.0
C1257 C 0.5957 0.85793 0.62817 0.0
C1258 C 0.58894 0.8623 0.64784 0.0
H1259 H 0.61022 0.83619 0.60939 0.0
H1260 H 0.58838 0.86488 0.61531 0.0
S1261 S 0.61157 0.84217 0.69474 0.0
N1262 N 0.62118 0.82792 0.6768 0.0
N1263 N 0.59715 0.85911 0.6833 0.0
C1264 C 0.60007 0.85388 0.6638 0.0
C1265 C 0.61307 0.83701 0.6603 0.0
C1266 C 0.43467 0.31901 0.91971 0.0
C1267 C 0.43072 0.3092 0.90162 0.0
C1268 C 0.44667 0.3362 0.91967 0.0
C1269 C 0.45525 0.34362 0.90156 0.0
H1270 H 0.43145 0.3117 0.93404 0.0
H1271 H 0.45205 0.3413 0.934 0.0
S1272 S 0.43927 0.33026 0.85037 0.0
N1273 N 0.42855 0.31339 0.86533 0.0
N1274 N 0.45133 0.34551 0.86526 0.0
C1275 C 0.44658 0.3374 0.88355 0.0
C1276 C 0.43424 0.32002 0.88359 0.0
C1277 C 0.94221 0.18742 0.1615 0.0
C1278 C 0.93165 0.20186 0.14981 0.0
C1279 C 0.94799 0.19173 0.18116 0.0
C1280 C 0.94318 0.21049 0.18968 0.0
H1281 H 0.94879 0.17422 0.15451 0.0
H1282 H 0.9587 0.18162 0.18836 0.0
S1283 S 0.90641 0.24778 0.16939 0.0
N1284 N 0.9097 0.23143 0.15116 0.0
N1285 N 0.92046 0.23947 0.18814 0.0
C1286 C 0.92832 0.22236 0.18011 0.0
C1287 C 0.92248 0.21799 0.16008 0.0
C1288 C 0.10163 0.06716 0.35063 0.0
C1289 C 0.09303 0.0805 0.33633 0.0
C1290 C 0.12166 0.06926 0.35651 0.0
C1291 C 0.1335 0.08483 0.34834 0.0
H1292 H 0.09409 0.05338 0.35488 0.0
H1293 H 0.12857 0.05698 0.36493 0.0
S1294 S 0.11444 0.12919 0.31955 0.0
N1295 N 0.09515 0.11385 0.32097 0.0
N1296 N 0.13275 0.11787 0.33211 0.0
C1297 C 0.12341 0.10082 0.33843 0.0
C1298 C 0.10305 0.09864 0.33239 0.0
C1299 C 0.20701 0.90852 0.59186 0.0
C1300 C 0.21037 0.89816 0.61014 0.0
C1301 C 0.2027 0.89793 0.57436 0.0
C1302 C 0.20096 0.87685 0.57482 0.0
H1303 H 0.21051 0.92433 0.59038 0.0
H1304 H 0.20299 0.90597 0.56007 0.0
S1305 S 0.20281 0.84382 0.62001 0.0
N1306 N 0.20762 0.86647 0.62844 0.0
N1307 N 0.19878 0.84674 0.59569 0.0
C1308 C 0.20087 0.86696 0.59357 0.0
C1309 C 0.20568 0.87763 0.61127 0.0
C1310 C 0.38188 0.96004 0.84712 0.0
C1311 C 0.38726 0.98039 0.84695 0.0
C1312 C 0.3958 0.94518 0.84103 0.0
C1313 C 0.41512 0.95057 0.83396 0.0
H1314 H 0.36619 0.95603 0.84848 0.0
H1315 H 0.39017 0.9303 0.83817 0.0
S1316 S 0.43862 0.00018 0.84046 0.0
N1317 N 0.41478 0.00382 0.84684 0.0
N1318 N 0.44095 0.97605 0.83525 0.0
C1319 C 0.4219 0.96978 0.83903 0.0
C1320 C 0.40778 0.98481 0.84541 0.0
C1321 C 0.36154 0.12749 0.07218 0.0
C1322 C 0.3535 0.13906 0.088 0.0
C1323 C 0.35567 0.10749 0.06972 0.0
C1324 C 0.34163 0.09854 0.08302 0.0
H1325 H 0.3699 0.13461 0.06001 0.0
H1326 H 0.3599 0.1002 0.05581 0.0
S1327 S 0.32503 0.11912 0.13208 0.0
N1328 N 0.33748 0.13764 0.12106 0.0
N1329 N 0.32638 0.10012 0.11639 0.0
C1330 C 0.33766 0.10831 0.10129 0.0
C1331 C 0.34369 0.12865 0.10382 0.0
C1332 C 0.18172 0.94236 0.23717 0.0
C1333 C 0.18973 0.95713 0.22404 0.0
C1334 C 0.16582 0.93023 0.23136 0.0
C1335 C 0.1576 0.9323 0.21214 0.0
H1336 H 0.1871 0.94084 0.25241 0.0
H1337 H 0.15955 0.91959 0.24213 0.0
S1338 S 0.17477 0.96622 0.17102 0.0
N1339 N 0.18935 0.97146 0.19009 0.0
N1340 N 0.15979 0.94819 0.17919 0.0
C1341 C 0.16643 0.94567 0.1983 0.0
C1342 C 0.18249 0.95819 0.20422 0.0
C1343 C 0.34806 0.92836 0.45787 0.0
C1344 C 0.33402 0.93168 0.44232 0.0
C1345 C 0.35055 0.90921 0.4668 0.0
C1346 C 0.33955 0.89287 0.45997 0.0
H1347 H 0.35459 0.94102 0.46536 0.0
H1348 H 0.3586 0.90797 0.48083 0.0
S1349 S 0.30907 0.89185 0.41382 0.0
N1350 N 0.3152 0.91568 0.41599 0.0
N1351 N 0.3199 0.87978 0.43278 0.0
C1352 C 0.32953 0.89516 0.44159 0.0
C1353 C 0.32692 0.91461 0.43256 0.0
C1354 C 0.4073 0.11716 0.69546 0.0
C1355 C 0.42191 0.10491 0.68606 0.0
C1356 C 0.38681 0.11282 0.69382 0.0
C1357 C 0.38052 0.09599 0.683 0.0
H1358 H 0.41169 0.128 0.70651 0.0
H1359 H 0.37629 0.12055 0.70371 0.0
S1360 S 0.41263 0.06482 0.64948 0.0
N1361 N 0.42848 0.07961 0.66086 0.0
N1362 N 0.39001 0.07149 0.65771 0.0
C1363 C 0.39464 0.08676 0.67009 0.0
C1364 C 0.41547 0.09115 0.67178 0.0
C1365 C 0.22447 0.18746 0.93655 0.0
C1366 C 0.21202 0.196 0.95156 0.0
C1367 C 0.22085 0.16808 0.92948 0.0
C1368 C 0.20484 0.1567 0.93747 0.0
H1369 H 0.23863 0.19433 0.93243 0.0
H1370 H 0.23249 0.16096 0.92042 0.0
S1371 S 0.16233 0.17682 0.968 0.0
N1372 N 0.17889 0.19509 0.96742 0.0
N1373 N 0.17218 0.15863 0.95422 0.0
C1374 C 0.18968 0.16721 0.94812 0.0
C1375 C 0.19333 0.18695 0.9553 0.0
C1376 C 0.81187 0.37897 0.93005 0.0
C1377 C 0.82134 0.39681 0.93552 0.0
C1378 C 0.81914 0.36032 0.93744 0.0
C1379 C 0.83566 0.35965 0.95053 0.0
H1380 H 0.79676 0.37963 0.92417 0.0
H1381 H 0.80921 0.34757 0.93691 0.0
S1382 S 0.87226 0.40021 0.95659 0.0
N1383 N 0.85308 0.41114 0.945 0.0
N1384 N 0.86663 0.37615 0.95889 0.0
C1385 C 0.84867 0.37604 0.94942 0.0
C1386 C 0.84134 0.39497 0.94192 0.0
C1387 C 0.87701 0.61258 0.20633 0.0
C1388 C 0.87102 0.59613 0.19477 0.0
C1389 C 0.89743 0.61721 0.20799 0.0
C1390 C 0.91218 0.6054 0.19818 0.0
H1391 H 0.8665 0.61966 0.21669 0.0
H1392 H 0.90162 0.62744 0.21969 0.0
S1393 S 0.90287 0.56999 0.15699 0.0
N1394 N 0.88035 0.57483 0.16665 0.0
N1395 N 0.91869 0.58379 0.1696 0.0
C1396 C 0.90574 0.59351 0.18221 0.0
C1397 C 0.88501 0.58863 0.18064 0.0
C1398 C 0.71785 0.65044 0.41777 0.0
C1399 C 0.70708 0.63311 0.42342 0.0
C1400 C 0.71379 0.66874 0.42738 0.0
C1401 C 0.69892 0.66988 0.44262 0.0
H1402 H 0.73176 0.64908 0.40922 0.0
H1403 H 0.72484 0.6805 0.42588 0.0
S1404 S 0.6589 0.63278 0.4519 0.0
N1405 N 0.67502 0.62133 0.43666 0.0
N1406 N 0.66778 0.65556 0.45517 0.0
C1407 C 0.68439 0.65482 0.44312 0.0
C1408 C 0.68838 0.63628 0.43317 0.0
C1409 C 0.92724 0.46596 0.3407 0.0
C1410 C 0.93459 0.45142 0.32716 0.0
C1411 C 0.90668 0.47105 0.34171 0.0
C1412 C 0.89284 0.46171 0.32924 0.0
H1413 H 0.93755 0.47438 0.34967 0.0
H1414 H 0.90195 0.48362 0.35088 0.0
S1415 S 0.90335 0.41961 0.29471 0.0
N1416 N 0.92551 0.42519 0.30379 0.0
N1417 N 0.88714 0.43521 0.30549 0.0
C1418 C 0.8996 0.44569 0.31738 0.0
C1419 C 0.92041 0.44037 0.31642 0.0
C1420 C 0.65184 0.60604 0.83492 0.0
C1421 C 0.66038 0.59099 0.84748 0.0
C1422 C 0.63089 0.60777 0.83299 0.0
C1423 C 0.61814 0.59459 0.84372 0.0
H1424 H 0.66114 0.61401 0.82405 0.0
H1425 H 0.62513 0.61694 0.82069 0.0
S1426 S 0.63297 0.5621 0.88695 0.0
N1427 N 0.65447 0.56974 0.87702 0.0
N1428 N 0.61513 0.57308 0.87346 0.0
C1429 C 0.6264 0.58405 0.86024 0.0
C1430 C 0.6477 0.58224 0.86216 0.0
C1431 C 0.71109 0.38582 0.10345 0.0
C1432 C 0.71354 0.40682 0.10277 0.0
C1433 C 0.69361 0.37704 0.09618 0.0
C1434 C 0.67811 0.38909 0.08795 0.0
H1435 H 0.72368 0.37609 0.10736 0.0
H1436 H 0.69345 0.36084 0.09468 0.0
S1437 S 0.67506 0.44478 0.08793 0.0
N1438 N 0.69737 0.43935 0.09736 0.0
N1439 N 0.6645 0.42295 0.08368 0.0
C1440 C 0.6791 0.41004 0.0903 0.0
C1441 C 0.69684 0.41893 0.09779 0.0
C1442 C 0.83292 0.63215 0.58478 0.0
C1443 C 0.82539 0.63715 0.60399 0.0
C1444 C 0.84128 0.64691 0.57199 0.0
C1445 C 0.84274 0.66696 0.57815 0.0
H1446 H 0.82973 0.61764 0.57844 0.0
H1447 H 0.84407 0.6432 0.55638 0.0
S1448 S 0.83051 0.68637 0.6287 0.0
N1449 N 0.82418 0.66245 0.62997 0.0
N1450 N 0.8397 0.6901 0.60579 0.0
C1451 C 0.8383 0.6713 0.59827 0.0
C1452 C 0.8298 0.65633 0.6113 0.0
C1453 C 0.6264 0.44829 0.69285 0.0
C1454 C 0.61754 0.43667 0.70844 0.0
C1455 C 0.64738 0.4496 0.69089 0.0
C1456 C 0.66014 0.43919 0.70434 0.0
H1457 H 0.61731 0.45859 0.68391 0.0
H1458 H 0.65338 0.46087 0.68063 0.0
S1459 S 0.64437 0.39942 0.74077 0.0
N1460 N 0.62306 0.40929 0.73248 0.0
N1461 N 0.66244 0.41141 0.72854 0.0
C1462 C 0.65145 0.42409 0.71664 0.0
C1463 C 0.63009 0.42291 0.71878 0.0
C1464 C 0.03549 0.39699 0.23673 0.0
C1465 C 0.02637 0.3934 0.2182 0.0
C1466 C 0.02569 0.40819 0.2516 0.0
C1467 C 0.00636 0.41647 0.24861 0.0
H1468 H 0.05019 0.39067 0.24009 0.0
H1469 H 0.0334 0.41021 0.26565 0.0
S1470 S 0.97632 0.41275 0.2022 0.0
N1471 N 0.99716 0.39988 0.19726 0.0
N1472 N 0.97876 0.42115 0.22525 0.0
C1473 C 0.99724 0.41359 0.22991 0.0
C1474 C 0.00723 0.40203 0.21472 0.0
C1475 C 0.90667 0.77999 0.49947 0.0
C1476 C 0.91149 0.77396 0.47979 0.0
C1477 C 0.89424 0.76844 0.51206 0.0
C1478 C 0.88605 0.7503 0.50557 0.0
H1479 H 0.91271 0.7937 0.50539 0.0
H1480 H 0.89109 0.77384 0.52707 0.0
S1481 S 0.89355 0.72791 0.45515 0.0
N1482 N 0.90676 0.74872 0.45422 0.0
N1483 N 0.88336 0.72699 0.47789 0.0
C1484 C 0.89057 0.74411 0.48584 0.0
C1485 C 0.90324 0.75595 0.47295 0.0
C1486 C 0.55561 0.63866 0.75041 0.0
C1487 C 0.5433 0.62722 0.76337 0.0
C1488 C 0.5474 0.65115 0.73544 0.0
C1489 C 0.52646 0.65271 0.73265 0.0
H1490 H 0.57183 0.63767 0.7515 0.0
H1491 H 0.55769 0.65926 0.72565 0.0
S1492 S 0.48743 0.627 0.76356 0.0
N1493 N 0.50893 0.61913 0.77323 0.0
N1494 N 0.49349 0.64259 0.74497 0.0
C1495 C 0.51388 0.642 0.74603 0.0
C1496 C 0.52228 0.62927 0.7614 0.0
C1497 C 0.63324 0.29389 0.02285 0.0
C1498 C 0.65437 0.29304 0.0217 0.0
C1499 C 0.6215 0.28249 0.0101 0.0
C1500 C 0.63041 0.26977 0.99568 0.0
H1501 H 0.62563 0.30444 0.0327 0.0
H1502 H 0.60535 0.28474 0.01073 0.0
S1503 S 0.68496 0.25835 0.99008 0.0
N1504 N 0.68362 0.27565 0.00759 0.0
N1505 N 0.66154 0.25422 0.9836 0.0
C1506 C 0.65143 0.26708 0.99593 0.0
C1507 C 0.66341 0.27872 0.00894 0.0
C1508 C 0.99243 0.63831 0.28686 0.0
C1509 C -0.00219 0.62988 0.26826 0.0
C1510 C 0.00603 0.64967 0.2976 0.0
C1511 C 0.02551 0.65334 0.29009 0.0
H1512 H 0.97763 0.63595 0.29337 0.0
H1513 H 0.00101 0.65594 0.31177 0.0
S1514 S 0.04713 0.63463 0.24205 0.0
N1515 N 0.02406 0.62582 0.2428 0.0
N1516 N 0.0496 0.64746 0.2629 0.0
C1517 C 0.03115 0.64499 0.2715 0.0
C1518 C 0.01731 0.6332 0.26062 0.0
C1519 C 0.65295 0.73144 0.54286 0.0
C1520 C 0.6535 0.73662 0.52229 0.0
C1521 C 0.64095 0.74215 0.55642 0.0
C1522 C 0.62865 0.75832 0.55001 0.0
H1523 H 0.66222 0.71922 0.54874 0.0
H1524 H 0.64117 0.73749 0.5721 0.0
S1525 S 0.62391 0.77758 0.49767 0.0
N1526 N 0.64048 0.75889 0.49603 0.0
N1527 N 0.61727 0.77877 0.52165 0.0
C1528 C 0.62863 0.76347 0.52944 0.0
C1529 C 0.64126 0.75273 0.51557 0.0
C1530 C 0.51143 0.38385 0.80213 0.0
C1531 C 0.52287 0.37701 0.81857 0.0
C1532 C 0.51945 0.39725 0.78771 0.0
C1533 C 0.5393 0.40417 0.78904 0.0
H1534 H 0.49599 0.3792 0.8006 0.0
H1535 H 0.50988 0.40242 0.77558 0.0
S1536 S 0.57607 0.38956 0.82847 0.0
N1537 N 0.55548 0.37734 0.83476 0.0
N1538 N 0.57052 0.40232 0.80777 0.0
C1539 C 0.55111 0.3969 0.80509 0.0
C1540 C 0.54291 0.38341 0.81982 0.0
C1541 C 0.87496 0.25057 0.05272 0.0
C1542 C 0.893 0.25812 0.06017 0.0
C1543 C 0.86128 0.26314 0.04242 0.0
C1544 C 0.86538 0.28359 0.03881 0.0
H1545 H 0.87123 0.2349 0.05511 0.0
H1546 H 0.84742 0.25678 0.03722 0.0
S1547 S 0.91078 0.31067 0.05483 0.0
N1548 N 0.91434 0.28735 0.06301 0.0
N1549 N 0.88887 0.3108 0.04349 0.0
C1550 C 0.88352 0.29124 0.04594 0.0
C1551 C 0.89726 0.27856 0.05667 0.0
C1552 C 0.24859 0.02707 0.41877 0.0
C1553 C 0.24571 0.00636 0.42197 0.0
C1554 C 0.23665 0.03814 0.40521 0.0
C1555 C 0.22123 0.02899 0.39445 0.0
H1556 H 0.26057 0.03469 0.42629 0.0
H1557 H 0.23991 0.05391 0.40282 0.0
S1558 S 0.20601 0.97556 0.39928 0.0
N1559 N 0.22521 0.97743 0.41456 0.0
N1560 N 0.20273 -0.0018 0.38924 0.0
C1561 C 0.21756 0.00847 0.39828 0.0
C1562 C 0.22981 0.99717 0.41197 0.0
C1563 C 0.26823 0.00166 0.64554 0.0
C1564 C 0.27833 0.99348 0.62877 0.0
C1565 C 0.27645 0.01748 0.65623 0.0
C1566 C 0.29517 0.02554 0.65066 0.0
H1567 H 0.25435 0.99518 0.65109 0.0
H1568 H 0.26874 0.02242 0.66975 0.0
S1569 S 0.3258 0.01231 0.60573 0.0
N1570 N 0.30661 0.99685 0.60533 0.0
N1571 N 0.32215 0.02631 0.62576 0.0
C1572 C 0.30457 0.01873 0.63298 0.0
C1573 C 0.29612 0.00277 0.62193 0.0
C1574 C 0.28665 0.07257 0.89584 0.0
C1575 C 0.26832 0.06398 0.90196 0.0
C1576 C 0.30035 0.06215 0.88356 0.0
C1577 C 0.29627 0.04272 0.87676 0.0
H1578 H 0.29065 0.08743 0.90073 0.0
H1579 H 0.31419 0.06953 0.87927 0.0
S1580 S 0.25029 0.01344 0.88827 0.0
N1581 N 0.24673 0.03483 0.90014 0.0
N1582 N 0.27245 0.01526 0.87703 0.0
C1583 C 0.27795 0.03393 0.88268 0.0
C1584 C 0.26399 0.04455 0.89525 0.0
C1585 C 0.26737 0.01158 0.15807 0.0
C1586 C 0.25155 0.02168 0.16812 0.0
C1587 C 0.27504 0.01881 0.13966 0.0
C1588 C 0.26721 0.03644 0.13053 0.0
H1589 H 0.27405 -0.00196 0.16453 0.0
H1590 H 0.28733 0.01056 0.13264 0.0
S1591 S 0.22506 0.06808 0.1502 0.0
N1592 N 0.22786 0.04996 0.16719 0.0
N1593 N 0.24223 0.06351 0.13271 0.0
C1594 C 0.25117 0.04654 0.14028 0.0
C1595 C 0.24336 0.03918 0.15902 0.0
C1596 C 0.39642 0.21618 0.00359 0.0
C1597 C 0.38993 0.22827 0.01966 0.0
C1598 C 0.40802 0.22404 0.98775 0.0
C1599 C 0.41381 0.24432 0.98727 0.0
H1600 H 0.39212 0.20056 0.00292 0.0
H1601 H 0.41231 0.21409 0.97564 0.0
S1602 S 0.40174 0.28223 0.02614 0.0
N1603 N 0.39089 0.2615 0.0345 0.0
N1604 N 0.41286 0.27621 0.00469 0.0
C1605 C 0.40807 0.25647 0.00355 0.0
C1606 C 0.3961 0.24847 0.01973 0.0
C1607 C 0.05841 0.87946 0.29265 0.0
C1608 C 0.04148 0.87096 0.28378 0.0
C1609 C 0.07181 0.89133 0.28139 0.0
C1610 C 0.06882 0.89525 0.26078 0.0
H1611 H 0.06143 0.87689 0.30845 0.0
H1612 H 0.08449 0.89766 0.28899 0.0
S1613 S 0.02707 0.87619 0.23013 0.0
N1614 N 0.02266 0.86711 0.25294 0.0
N1615 N 0.04781 0.88931 0.23184 0.0
C1616 C 0.05203 0.88673 0.25166 0.0
C1617 C 0.03838 0.87465 0.26313 0.0
C1618 C 0.1337 0.76599 0.51581 0.0
C1619 C 0.12718 0.76936 0.496 0.0
C1620 C 0.1478 0.77855 0.5245 0.0
C1621 C 0.15571 0.79514 0.51382 0.0
H1622 H 0.12801 0.75344 0.52464 0.0
H1623 H 0.15255 0.77517 0.53971 0.0
S1624 S 0.1429 0.811 0.46167 0.0
N1625 N 0.12933 0.7908 0.46607 0.0
N1626 N 0.15562 0.81448 0.48242 0.0
C1627 C 0.14905 0.79888 0.49409 0.0
C1628 C 0.13488 0.78596 0.48517 0.0
C1629 C 0.51085 0.89223 0.7379 0.0
C1630 C 0.50754 0.87142 0.73702 0.0
C1631 C 0.49944 0.90448 0.75076 0.0
C1632 C 0.48427 0.89644 0.76334 0.0
H1633 H 0.52146 0.89939 0.72769 0.0
H1634 H 0.50186 0.92055 0.74998 0.0
S1635 S 0.47276 0.84224 0.76994 0.0
N1636 N 0.49028 0.84283 0.75216 0.0
N1637 N 0.46885 0.86586 0.77641 0.0
C1638 C 0.48218 0.8754 0.76404 0.0
C1639 C 0.49379 0.8629 0.75086 0.0
C1640 C 0.03784 0.13633 0.249 0.0
C1641 C 0.0318 0.12862 0.26791 0.0
C1642 C 0.02983 0.15437 0.24135 0.0
C1643 C 0.01534 0.16552 0.25221 0.0
H1644 H 0.04902 0.12847 0.23997 0.0
H1645 H 0.03512 0.15957 0.22674 0.0
S1646 S 0.99408 0.15183 0.30239 0.0
N1647 N 0.01021 0.13345 0.2973 0.0
N1648 N 0.99507 0.16743 0.28287 0.0
C1649 C 0.00898 0.15795 0.2711 0.0
C1650 C 0.01722 0.13951 0.27895 0.0
C1651 C 0.48471 0.15592 0.77498 0.0
C1652 C 0.49629 0.14002 0.76694 0.0
C1653 C 0.49178 0.16737 0.79079 0.0
C1654 C 0.51068 0.16333 0.79933 0.0
H1655 H 0.46972 0.15915 0.76953 0.0
H1656 H 0.48189 0.17888 0.79691 0.0
S1657 S 0.54805 0.12516 0.782 0.0
N1658 N 0.52852 0.12219 0.76734 0.0
N1659 N 0.54177 0.1437 0.79716 0.0
C1660 C 0.52298 0.14835 0.79059 0.0
C1661 C 0.51581 0.13672 0.77437 0.0
C1662 C 0.15348 0.24124 0.0367 0.0
C1663 C 0.16518 0.25294 0.02334 0.0
C1664 C 0.13439 0.24775 0.04314 0.0
C1665 C 0.12616 0.26627 0.03651 0.0
H1666 H 0.15901 0.22679 0.04219 0.0
H1667 H 0.12602 0.23808 0.05336 0.0
S1668 S 0.15089 0.303 0.00193 0.0
N1669 N 0.16729 0.28424 0.004 0.0
N1670 N 0.13144 0.2965 0.01609 0.0
C1671 C 0.13775 0.27825 0.02326 0.0
C1672 C 0.15723 0.27159 0.01668 0.0
C1673 C 0.38434 0.81668 0.55021 0.0
C1674 C 0.38227 0.81036 0.53027 0.0
C1675 C 0.3964 0.80599 0.56378 0.0
C1676 C 0.40722 0.78866 0.55798 0.0
H1677 H 0.3762 0.82979 0.55562 0.0
H1678 H 0.39737 0.81155 0.57895 0.0
S1679 S 0.40753 0.76597 0.50741 0.0
N1680 N 0.39226 0.78569 0.50528 0.0
N1681 N 0.41544 0.76577 0.53085 0.0
C1682 C 0.40566 0.7823 0.53801 0.0
C1683 C 0.39305 0.79307 0.52417 0.0
C1684 C 0.73767 0.48126 0.90313 0.0
C1685 C 0.75693 0.48573 0.9102 0.0
C1686 C 0.72743 0.49442 0.89004 0.0
C1687 C 0.73604 0.51257 0.88333 0.0
H1688 H 0.73033 0.46749 0.90777 0.0
H1689 H 0.71274 0.49013 0.88491 0.0
S1690 S 0.78601 0.53161 0.8976 0.0
N1691 N 0.78413 0.50984 0.90967 0.0
N1692 N 0.76491 0.53451 0.88505 0.0
C1693 C 0.75525 0.51732 0.89036 0.0
C1694 C 0.76567 0.50393 0.90377 0.0
C1695 C 0.81007 0.49621 0.16149 0.0
C1696 C 0.80478 0.51654 0.16428 0.0
C1697 C 0.79871 0.48392 0.14925 0.0
C1698 C 0.78167 0.49148 0.13911 0.0
H1699 H 0.82297 0.4896 0.16901 0.0
H1700 H 0.80356 0.46842 0.14753 0.0
S1701 S 0.76143 0.54376 0.14135 0.0
N1702 N 0.78132 0.54374 0.15593 0.0
N1703 N 0.76001 0.52066 0.13281 0.0
C1704 C 0.77618 0.5118 0.14178 0.0
C1705 C 0.78771 0.52431 0.15437 0.0
C1706 C 0.78136 0.51598 0.38805 0.0
C1707 C 0.80198 0.51811 0.38353 0.0
C1708 C 0.77113 0.52962 0.40055 0.0
C1709 C 0.78107 0.54602 0.40873 0.0
H1710 H 0.77285 0.50411 0.38136 0.0
H1711 H 0.75515 0.52774 0.40315 0.0
S1712 S 0.83547 0.55689 0.40401 0.0
N1713 N 0.83239 0.53679 0.39022 0.0
N1714 N 0.81301 0.5625 0.41331 0.0
C1715 C 0.80185 0.54774 0.40526 0.0
C1716 C 0.81235 0.53373 0.3928 0.0
C1717 C 0.77263 0.51982 0.64371 0.0
C1718 C 0.76409 0.53837 0.63776 0.0
C1719 C 0.76219 0.50672 0.65677 0.0
C1720 C 0.74268 0.51154 0.66386 0.0
H1721 H 0.78761 0.51561 0.63861 0.0
H1722 H 0.76955 0.49281 0.66144 0.0
S1723 S 0.71303 0.55764 0.65083 0.0
N1724 N 0.73465 0.56044 0.63879 0.0
N1725 N 0.71489 0.53583 0.66287 0.0
C1726 C 0.73373 0.52977 0.65729 0.0
C1727 C 0.74449 0.5432 0.64437 0.0
loop_
_geom_bond_atom_site_label_1
_geom_bond_atom_site_label_2
_geom_bond_distance
_geom_bond_site_symmetry_2
_ccdc_geom_bond_type
Zn0 O3 2.031 . S
Zn0 O5 2.049 . S
Zn0 O10 2.067 . S
Zn1 O2 1.962 . S
Zn1 O4 1.986 . S
Zn1 O6 1.996 . S
Zn1 O9 1.943 . S
O2 Zn1 1.962 . S
O2 C7 1.254 . S
O3 Zn0 2.031 . S
O3 C7 1.269 . S
O4 Zn1 1.986 . S
O4 C11 1.262 . S
O5 Zn0 2.049 . S
O5 C13 1.260 1_455 S
O6 Zn1 1.996 . S
O6 C13 1.257 1_455 S
C7 O2 1.254 . S
C7 O3 1.269 . S
C8 O9 1.249 . S
C8 O10 1.270 . S
O9 Zn1 1.943 . S
O9 C8 1.249 . S
O10 Zn0 2.067 . S
O10 C8 1.270 . S
C11 O4 1.262 . S
C11 O12 1.232 . S
O12 C11 1.232 . S
C13 O5 1.260 1_655 S
C13 O6 1.257 1_655 S
Zn14 O17 2.031 . S
Zn14 O19 2.049 . S
Zn14 O24 2.067 . S
Zn15 O16 1.962 . S
Zn15 O18 1.986 . S
Zn15 O20 1.996 . S
Zn15 O23 1.943 . S
O16 Zn15 1.962 . S
O16 C21 1.254 . S
O17 Zn14 2.031 . S
O17 C21 1.269 . S
O18 Zn15 1.986 . S
O18 C25 1.262 . S
O19 Zn14 2.049 . S
O19 C27 1.260 . S
O20 Zn15 1.996 . S
O20 C27 1.257 . S
C21 O16 1.254 . S
C21 O17 1.269 . S
C22 O23 1.249 . S
C22 O24 1.270 . S
O23 Zn15 1.943 . S
O23 C22 1.249 . S
O24 Zn14 2.067 . S
O24 C22 1.270 . S
C25 O18 1.262 . S
C25 O26 1.232 . S
O26 C25 1.232 . S
C27 O19 1.260 . S
C27 O20 1.257 . S
Zn28 O31 2.031 . S
Zn28 O33 2.049 . S
Zn28 O38 2.067 . S
Zn29 O30 1.962 . S
Zn29 O32 1.986 . S
Zn29 O34 1.996 . S
Zn29 O37 1.943 . S
O30 Zn29 1.962 . S
O30 C35 1.254 . S
O31 Zn28 2.031 . S
O31 C35 1.269 . S
O32 Zn29 1.986 . S
O32 C39 1.262 . S
O33 Zn28 2.049 . S
O33 C41 1.260 . S
O34 Zn29 1.996 . S
O34 C41 1.257 . S
C35 O30 1.254 . S
C35 O31 1.269 . S
C36 O37 1.249 . S
C36 O38 1.270 . S
O37 Zn29 1.943 . S
O37 C36 1.249 . S
O38 Zn28 2.067 . S
O38 C36 1.270 . S
C39 O32 1.262 . S
C39 O40 1.232 . S
O40 C39 1.232 . S
C41 O33 1.260 . S
C41 O34 1.257 . S
Zn42 O45 2.031 . S
Zn42 O47 2.049 . S
Zn42 O52 2.067 . S
Zn43 O44 1.962 . S
Zn43 O46 1.986 . S
Zn43 O48 1.996 . S
Zn43 O51 1.943 . S
O44 Zn43 1.962 . S
O44 C49 1.254 . S
O45 Zn42 2.031 . S
O45 C49 1.269 . S
O46 Zn43 1.986 . S
O46 C53 1.262 . S
O47 Zn42 2.049 . S
O47 C55 1.260 . S
O48 Zn43 1.996 . S
O48 C55 1.257 . S
C49 O44 1.254 . S
C49 O45 1.269 . S
C50 O51 1.249 . S
C50 O52 1.270 . S
O51 Zn43 1.943 . S
O51 C50 1.249 . S
O52 Zn42 2.067 . S
O52 C50 1.270 . S
C53 O46 1.262 . S
C53 O54 1.232 . S
O54 C53 1.232 . S
C55 O47 1.260 . S
C55 O48 1.257 . S
Zn56 O59 2.031 . S
Zn56 O61 2.049 . S
Zn56 O66 2.067 . S
Zn57 O58 1.962 . S
Zn57 O60 1.986 . S
Zn57 O62 1.996 . S
Zn57 O65 1.943 . S
O58 Zn57 1.962 . S
O58 C63 1.254 . S
O59 Zn56 2.031 . S
O59 C63 1.269 . S
O60 Zn57 1.986 . S
O60 C67 1.262 . S
O61 Zn56 2.049 . S
O61 C69 1.260 . S
O62 Zn57 1.996 . S
O62 C69 1.257 . S
C63 O58 1.254 . S
C63 O59 1.269 . S
C64 O65 1.249 . S
C64 O66 1.270 . S
O65 Zn57 1.943 . S
O65 C64 1.249 . S
O66 Zn56 2.067 . S
O66 C64 1.270 . S
C67 O60 1.262 . S
C67 O68 1.232 . S
O68 C67 1.232 . S
C69 O61 1.260 . S
C69 O62 1.257 . S
Zn70 O73 2.031 . S
Zn70 O75 2.049 . S
Zn70 O80 2.067 . S
Zn71 O72 1.962 . S
Zn71 O74 1.986 . S
Zn71 O76 1.996 . S
Zn71 O79 1.943 . S
O72 Zn71 1.962 . S
O72 C77 1.254 . S
O73 Zn70 2.031 . S
O73 C77 1.269 . S
O74 Zn71 1.986 . S
O74 C81 1.262 . S
O75 Zn70 2.049 . S
O75 C83 1.260 . S
O76 Zn71 1.996 . S
O76 C83 1.257 . S
C77 O72 1.254 . S
C77 O73 1.269 . S
C78 O79 1.249 . S
C78 O80 1.270 . S
O79 Zn71 1.943 . S
O79 C78 1.249 . S
O80 Zn70 2.067 . S
O80 C78 1.270 . S
C81 O74 1.262 . S
C81 O82 1.232 . S
O82 C81 1.232 . S
C83 O75 1.260 . S
C83 O76 1.257 . S
Zn84 O87 2.031 . S
Zn84 O89 2.049 . S
Zn84 O94 2.067 . S
Zn85 O86 1.962 . S
Zn85 O88 1.986 . S
Zn85 O90 1.996 . S
Zn85 O93 1.943 . S
O86 Zn85 1.962 . S
O86 C91 1.254 . S
O87 Zn84 2.031 . S
O87 C91 1.269 . S
O88 Zn85 1.986 . S
O88 C95 1.262 . S
O89 Zn84 2.049 . S
O89 C97 1.260 . S
O90 Zn85 1.996 . S
O90 C97 1.257 . S
C91 O86 1.254 . S
C91 O87 1.269 . S
C92 O93 1.249 . S
C92 O94 1.270 . S
O93 Zn85 1.943 . S
O93 C92 1.249 . S
O94 Zn84 2.067 . S
O94 C92 1.270 . S
C95 O88 1.262 . S
C95 O96 1.232 . S
O96 C95 1.232 . S
C97 O89 1.260 . S
C97 O90 1.257 . S
Zn98 O101 2.031 . S
Zn98 O103 2.049 . S
Zn98 O108 2.067 . S
Zn99 O100 1.962 . S
Zn99 O102 1.986 . S
Zn99 O104 1.996 . S
Zn99 O107 1.943 . S
O100 Zn99 1.962 . S
O100 C105 1.254 . S
O101 Zn98 2.031 . S
O101 C105 1.269 . S
O102 Zn99 1.986 . S
O102 C109 1.262 . S
O103 Zn98 2.049 . S
O103 C111 1.260 . S
O104 Zn99 1.996 . S
O104 C111 1.257 . S
C105 O100 1.254 . S
C105 O101 1.269 . S
C106 O107 1.249 . S
C106 O108 1.270 . S
O107 Zn99 1.943 . S
O107 C106 1.249 . S
O108 Zn98 2.067 . S
O108 C106 1.270 . S
C109 O102 1.262 . S
C109 O110 1.232 . S
O110 C109 1.232 . S
C111 O103 1.260 . S
C111 O104 1.257 . S
Zn112 O115 2.031 . S
Zn112 O117 2.049 . S
Zn112 O122 2.067 . S
Zn113 O114 1.962 . S
Zn113 O116 1.986 . S
Zn113 O118 1.996 . S
Zn113 O121 1.943 . S
O114 Zn113 1.962 . S
O114 C119 1.254 . S
O115 Zn112 2.031 . S
O115 C119 1.269 . S
O116 Zn113 1.986 . S
O116 C123 1.262 . S
O117 Zn112 2.049 . S
O117 C125 1.260 1_545 S
O118 Zn113 1.996 . S
O118 C125 1.257 1_545 S
C119 O114 1.254 . S
C119 O115 1.269 . S
C120 O121 1.249 . S
C120 O122 1.270 . S
O121 Zn113 1.943 . S
O121 C120 1.249 . S
O122 Zn112 2.067 . S
O122 C120 1.270 . S
C123 O116 1.262 . S
C123 O124 1.232 . S
O124 C123 1.232 . S
C125 O117 1.260 1_565 S
C125 O118 1.257 1_565 S
Zn126 O129 2.031 . S
Zn126 O131 2.049 . S
Zn126 O136 2.067 . S
Zn127 O128 1.962 . S
Zn127 O130 1.986 . S
Zn127 O132 1.996 . S
Zn127 O135 1.943 . S
O128 Zn127 1.962 . S
O128 C133 1.254 . S
O129 Zn126 2.031 . S
O129 C133 1.269 . S
O130 Zn127 1.986 . S
O130 C137 1.262 . S
O131 Zn126 2.049 . S
O131 C139 1.260 . S
O132 Zn127 1.996 . S
O132 C139 1.257 . S
C133 O128 1.254 . S
C133 O129 1.269 . S
C134 O135 1.249 . S
C134 O136 1.270 . S
O135 Zn127 1.943 . S
O135 C134 1.249 . S
O136 Zn126 2.067 . S
O136 C134 1.270 . S
C137 O130 1.262 . S
C137 O138 1.232 . S
O138 C137 1.232 . S
C139 O131 1.260 . S
C139 O132 1.257 . S
Zn140 O143 2.031 . S
Zn140 O145 2.049 . S
Zn140 O150 2.067 . S
Zn141 O142 1.962 . S
Zn141 O144 1.986 . S
Zn141 O146 1.996 . S
Zn141 O149 1.943 . S
O142 Zn141 1.962 . S
O142 C147 1.254 . S
O143 Zn140 2.031 . S
O143 C147 1.269 . S
O144 Zn141 1.986 . S
O144 C151 1.262 . S
O145 Zn140 2.049 . S
O145 C153 1.260 . S
O146 Zn141 1.996 . S
O146 C153 1.257 . S
C147 O142 1.254 . S
C147 O143 1.269 . S
C148 O149 1.249 1_565 S
C148 O150 1.270 1_565 S
O149 Zn141 1.943 . S
O149 C148 1.249 1_545 S
O150 Zn140 2.067 . S
O150 C148 1.270 1_545 S
C151 O144 1.262 . S
C151 O152 1.232 . S
O152 C151 1.232 . S
C153 O145 1.260 . S
C153 O146 1.257 . S
Zn154 O157 2.031 . S
Zn154 O159 2.049 . S
Zn154 O164 2.067 . S
Zn155 O156 1.962 . S
Zn155 O158 1.986 . S
Zn155 O160 1.996 . S
Zn155 O163 1.943 . S
O156 Zn155 1.962 . S
O156 C161 1.254 . S
O157 Zn154 2.031 . S
O157 C161 1.269 . S
O158 Zn155 1.986 . S
O158 C165 1.262 . S
O159 Zn154 2.049 . S
O159 C167 1.260 . S
O160 Zn155 1.996 . S
O160 C167 1.257 . S
C161 O156 1.254 . S
C161 O157 1.269 . S
C162 O163 1.249 . S
C162 O164 1.270 . S
O163 Zn155 1.943 . S
O163 C162 1.249 . S
O164 Zn154 2.067 . S
O164 C162 1.270 . S
C165 O158 1.262 . S
C165 O166 1.232 . S
O166 C165 1.232 . S
C167 O159 1.260 . S
C167 O160 1.257 . S
Zn168 O171 2.031 . S
Zn168 O173 2.049 . S
Zn168 O178 2.067 . S
Zn169 O170 1.962 . S
Zn169 O172 1.986 . S
Zn169 O174 1.996 . S
Zn169 O177 1.943 . S
O170 Zn169 1.962 . S
O170 C175 1.254 . S
O171 Zn168 2.031 . S
O171 C175 1.269 . S
O172 Zn169 1.986 . S
O172 C179 1.262 . S
O173 Zn168 2.049 . S
O173 C181 1.260 . S
O174 Zn169 1.996 . S
O174 C181 1.257 . S
C175 O170 1.254 . S
C175 O171 1.269 . S
C176 O177 1.275 . S
C176 O178 1.286 . S
O177 Zn169 1.943 . S
O177 C176 1.275 . S
O178 Zn168 2.067 . S
O178 C176 1.286 . S
C179 O172 1.262 . S
C179 O180 1.232 . S
O180 C179 1.232 . S
C181 O173 1.260 . S
C181 O174 1.257 . S
Zn182 O185 2.031 . S
Zn182 O187 2.049 . S
Zn182 O192 2.067 . S
Zn183 O184 1.962 . S
Zn183 O186 1.986 . S
Zn183 O188 1.996 . S
Zn183 O191 1.943 . S
O184 Zn183 1.962 . S
O184 C189 1.254 . S
O185 Zn182 2.031 . S
O185 C189 1.269 . S
O186 Zn183 1.986 . S
O186 C193 1.262 . S
O187 Zn182 2.049 . S
O187 C195 1.260 . S
O188 Zn183 1.996 . S
O188 C195 1.257 . S
C189 O184 1.254 . S
C189 O185 1.269 . S
C190 O191 1.249 . S
C190 O192 1.270 . S
O191 Zn183 1.943 . S
O191 C190 1.249 . S
O192 Zn182 2.067 . S
O192 C190 1.270 . S
C193 O186 1.262 . S
C193 O194 1.232 . S
O194 C193 1.232 . S
C195 O187 1.260 . S
C195 O188 1.257 . S
Zn196 O199 2.031 . S
Zn196 O201 2.049 . S
Zn196 O206 2.067 . S
Zn197 O198 1.962 . S
Zn197 O200 1.986 . S
Zn197 O202 1.996 . S
Zn197 O205 1.943 . S
O198 Zn197 1.962 . S
O198 C203 1.254 . S
O199 Zn196 2.031 . S
O199 C203 1.269 . S
O200 Zn197 1.986 . S
O200 C207 1.262 . S
O201 Zn196 2.049 . S
O201 C209 1.260 . S
O202 Zn197 1.996 . S
O202 C209 1.257 . S
C203 O198 1.254 . S
C203 O199 1.269 . S
C204 O205 1.249 . S
C204 O206 1.270 . S
O205 Zn197 1.943 . S
O205 C204 1.249 . S
O206 Zn196 2.067 . S
O206 C204 1.270 . S
C207 O200 1.262 . S
C207 O208 1.232 . S
O208 C207 1.232 . S
C209 O201 1.260 . S
C209 O202 1.257 . S
Zn210 O213 2.031 . S
Zn210 O215 2.049 . S
Zn210 O220 2.067 . S
Zn211 O212 1.962 . S
Zn211 O214 1.986 . S
Zn211 O216 1.996 . S
Zn211 O219 1.943 . S
O212 Zn211 1.962 . S
O212 C217 1.254 . S
O213 Zn210 2.031 . S
O213 C217 1.269 . S
O214 Zn211 1.986 . S
O214 C221 1.262 . S
O215 Zn210 2.049 . S
O215 C223 1.260 . S
O216 Zn211 1.996 . S
O216 C223 1.257 . S
C217 O212 1.254 . S
C217 O213 1.269 . S
C218 O219 1.249 . S
C218 O220 1.270 . S
O219 Zn211 1.943 . S
O219 C218 1.249 . S
O220 Zn210 2.067 . S
O220 C218 1.270 . S
C221 O214 1.262 . S
C221 O222 1.232 . S
O222 C221 1.232 . S
C223 O215 1.260 . S
C223 O216 1.257 . S
Zn224 O227 2.031 . S
Zn224 O229 2.049 . S
Zn224 O234 2.067 . S
Zn225 O226 1.962 . S
Zn225 O228 1.986 . S
Zn225 O230 1.996 . S
Zn225 O233 1.943 . S
O226 Zn225 1.962 . S
O226 C231 1.254 . S
O227 Zn224 2.031 . S
O227 C231 1.269 . S
O228 Zn225 1.986 . S
O228 C235 1.262 . S
O229 Zn224 2.049 . S
O229 C237 1.260 1_554 S
O230 Zn225 1.996 . S
O230 C237 1.257 1_554 S
C231 O226 1.254 . S
C231 O227 1.269 . S
C232 O233 1.249 . S
C232 O234 1.270 . S
O233 Zn225 1.943 . S
O233 C232 1.249 . S
O234 Zn224 2.067 . S
O234 C232 1.270 . S
C235 O228 1.262 . S
C235 O236 1.232 . S
O236 C235 1.232 . S
C237 O229 1.260 1_556 S
C237 O230 1.257 1_556 S
Zn238 O241 2.031 . S
Zn238 O243 2.049 . S
Zn238 O248 2.067 . S
Zn239 O240 1.962 . S
Zn239 O242 1.986 . S
Zn239 O244 1.996 . S
Zn239 O247 1.943 . S
O240 Zn239 1.962 . S
O240 C245 1.254 . S
O241 Zn238 2.031 . S
O241 C245 1.269 . S
O242 Zn239 1.986 . S
O242 C249 1.262 . S
O243 Zn238 2.049 . S
O243 C251 1.260 . S
O244 Zn239 1.996 . S
O244 C251 1.257 . S
C245 O240 1.254 . S
C245 O241 1.269 . S
C246 O247 1.249 1_556 S
C246 O248 1.270 1_556 S
O247 Zn239 1.943 . S
O247 C246 1.249 1_554 S
O248 Zn238 2.067 . S
O248 C246 1.270 1_554 S
C249 O242 1.262 . S
C249 O250 1.232 . S
O250 C249 1.232 . S
C251 O243 1.260 . S
C251 O244 1.257 . S
Zn252 O255 2.031 . S
Zn252 O257 2.049 . S
Zn252 O262 2.067 . S
Zn253 O254 1.962 . S
Zn253 O256 1.986 . S
Zn253 O258 1.996 . S
Zn253 O261 1.943 . S
O254 Zn253 1.962 . S
O254 C259 1.254 . S
O255 Zn252 2.031 . S
O255 C259 1.269 . S
O256 Zn253 1.986 . S
O256 C263 1.262 . S
O257 Zn252 2.049 . S
O257 C265 1.260 . S
O258 Zn253 1.996 . S
O258 C265 1.257 . S
C259 O254 1.254 . S
C259 O255 1.269 . S
C260 O261 1.249 . S
C260 O262 1.270 . S
O261 Zn253 1.943 . S
O261 C260 1.249 . S
O262 Zn252 2.067 . S
O262 C260 1.270 . S
C263 O256 1.262 . S
C263 O264 1.232 . S
O264 C263 1.232 . S
C265 O257 1.260 . S
C265 O258 1.257 . S
Zn266 O269 2.031 . S
Zn266 O271 2.049 . S
Zn266 O276 2.067 . S
Zn267 O268 1.962 . S
Zn267 O270 1.986 . S
Zn267 O272 1.996 . S
Zn267 O275 1.943 . S
O268 Zn267 1.962 . S
O268 C273 1.254 . S
O269 Zn266 2.031 . S
O269 C273 1.269 . S
O270 Zn267 1.986 . S
O270 C277 1.262 . S
O271 Zn266 2.049 . S
O271 C279 1.260 . S
O272 Zn267 1.996 . S
O272 C279 1.257 . S
C273 O268 1.254 . S
C273 O269 1.269 . S
C274 O275 1.249 . S
C274 O276 1.270 . S
O275 Zn267 1.943 . S
O275 C274 1.249 . S
O276 Zn266 2.067 . S
O276 C274 1.270 . S
C277 O270 1.262 . S
C277 O278 1.232 . S
O278 C277 1.232 . S
C279 O271 1.260 . S
C279 O272 1.257 . S
Zn280 O283 2.031 . S
Zn280 O285 2.049 . S
Zn280 O290 2.067 . S
Zn281 O282 1.962 . S
Zn281 O284 1.986 . S
Zn281 O286 1.996 . S
Zn281 O289 1.943 . S
O282 Zn281 1.962 . S
O282 C287 1.254 . S
O283 Zn280 2.031 . S
O283 C287 1.269 . S
O284 Zn281 1.986 . S
O284 C291 1.262 . S
O285 Zn280 2.049 . S
O285 C293 1.260 . S
O286 Zn281 1.996 . S
O286 C293 1.257 . S
C287 O282 1.254 . S
C287 O283 1.269 . S
C288 O289 1.249 . S
C288 O290 1.270 . S
O289 Zn281 1.943 . S
O289 C288 1.249 . S
O290 Zn280 2.067 . S
O290 C288 1.270 . S
C291 O284 1.262 . S
C291 O292 1.232 . S
O292 C291 1.232 . S
C293 O285 1.260 . S
C293 O286 1.257 . S
Zn294 O297 2.031 . S
Zn294 O299 2.049 . S
Zn294 O304 2.067 . S
Zn295 O296 1.962 . S
Zn295 O298 1.986 . S
Zn295 O300 1.996 . S
Zn295 O303 1.943 . S
O296 Zn295 1.962 . S
O296 C301 1.254 . S
O297 Zn294 2.031 . S
O297 C301 1.269 . S
O298 Zn295 1.986 . S
O298 C305 1.262 . S
O299 Zn294 2.049 . S
O299 C307 1.260 . S
O300 Zn295 1.996 . S
O300 C307 1.257 . S
C301 O296 1.254 . S
C301 O297 1.269 . S
C302 O303 1.249 . S
C302 O304 1.270 . S
O303 Zn295 1.943 . S
O303 C302 1.249 . S
O304 Zn294 2.067 . S
O304 C302 1.270 . S
C305 O298 1.262 . S
C305 O306 1.232 . S
O306 C305 1.232 . S
C307 O299 1.260 . S
C307 O300 1.257 . S
Zn308 O311 2.031 . S
Zn308 O313 2.049 . S
Zn308 O318 2.067 . S
Zn309 O310 1.962 . S
Zn309 O312 1.986 . S
Zn309 O314 1.996 . S
Zn309 O317 1.943 . S
O310 Zn309 1.962 . S
O310 C315 1.254 . S
O311 Zn308 2.031 . S
O311 C315 1.269 . S
O312 Zn309 1.986 . S
O312 C319 1.262 . S
O313 Zn308 2.049 . S
O313 C321 1.260 . S
O314 Zn309 1.996 . S
O314 C321 1.257 . S
C315 O310 1.254 . S
C315 O311 1.269 . S
C316 O317 1.249 . S
C316 O318 1.270 . S
O317 Zn309 1.943 . S
O317 C316 1.249 . S
O318 Zn308 2.067 . S
O318 C316 1.270 . S
C319 O312 1.262 . S
C319 O320 1.232 . S
O320 C319 1.232 . S
C321 O313 1.260 . S
C321 O314 1.257 . S
Zn322 O325 2.031 . S
Zn322 O327 2.049 . S
Zn322 O332 2.067 . S
Zn323 O324 1.962 . S
Zn323 O326 1.986 . S
Zn323 O328 1.996 . S
Zn323 O331 1.943 . S
O324 Zn323 1.962 . S
O324 C329 1.254 . S
O325 Zn322 2.031 . S
O325 C329 1.269 . S
O326 Zn323 1.986 . S
O326 C333 1.262 . S
O327 Zn322 2.049 . S
O327 C335 1.260 . S
O328 Zn323 1.996 . S
O328 C335 1.257 . S
C329 O324 1.254 . S
C329 O325 1.269 . S
C330 O331 1.249 . S
C330 O332 1.270 . S
O331 Zn323 1.943 . S
O331 C330 1.249 . S
O332 Zn322 2.067 . S
O332 C330 1.270 . S
C333 O326 1.262 . S
C333 O334 1.232 . S
O334 C333 1.232 . S
C335 O327 1.260 . S
C335 O328 1.257 . S
Zn336 O339 2.031 . S
Zn336 O341 2.049 . S
Zn336 O346 2.067 . S
Zn337 O338 1.962 . S
Zn337 O340 1.986 . S
Zn337 O342 1.996 . S
Zn337 O345 1.943 . S
O338 Zn337 1.962 . S
O338 C343 1.254 . S
O339 Zn336 2.031 . S
O339 C343 1.269 . S
O340 Zn337 1.986 . S
O340 C347 1.262 . S
O341 Zn336 2.049 . S
O341 C349 1.260 . S
O342 Zn337 1.996 . S
O342 C349 1.257 . S
C343 O338 1.254 . S
C343 O339 1.269 . S
C344 O345 1.249 . S
C344 O346 1.270 . S
O345 Zn337 1.943 . S
O345 C344 1.249 . S
O346 Zn336 2.067 . S
O346 C344 1.270 . S
C347 O340 1.262 . S
C347 O348 1.232 . S
O348 C347 1.232 . S
C349 O341 1.260 . S
C349 O342 1.257 . S
Zn350 O353 2.031 . S
Zn350 O355 2.049 . S
Zn350 O360 2.067 . S
Zn351 O352 1.962 . S
Zn351 O354 1.986 . S
Zn351 O356 1.996 . S
Zn351 O359 1.943 . S
O352 Zn351 1.962 . S
O352 C357 1.254 . S
O353 Zn350 2.031 . S
O353 C357 1.269 . S
O354 Zn351 1.986 . S
O354 C361 1.262 . S
O355 Zn350 2.049 . S
O355 C363 1.260 . S
O356 Zn351 1.996 . S
O356 C363 1.257 . S
C357 O352 1.254 . S
C357 O353 1.269 . S
C358 O359 1.249 . S
C358 O360 1.270 . S
O359 Zn351 1.943 . S
O359 C358 1.249 . S
O360 Zn350 2.067 . S
O360 C358 1.270 . S
C361 O354 1.262 . S
C361 O362 1.232 . S
O362 C361 1.232 . S
C363 O355 1.260 . S
C363 O356 1.257 . S
Zn364 O367 2.031 . S
Zn364 O369 2.049 . S
Zn364 O374 2.067 . S
Zn365 O366 1.962 . S
Zn365 O368 1.986 . S
Zn365 O370 1.996 . S
Zn365 O373 1.943 . S
O366 Zn365 1.962 . S
O366 C371 1.254 . S
O367 Zn364 2.031 . S
O367 C371 1.269 . S
O368 Zn365 1.986 . S
O368 C375 1.262 . S
O369 Zn364 2.049 . S
O369 C377 1.260 . S
O370 Zn365 1.996 . S
O370 C377 1.257 . S
C371 O366 1.254 . S
C371 O367 1.269 . S
C372 O373 1.275 . S
C372 O374 1.285 . S
O373 Zn365 1.943 . S
O373 C372 1.275 . S
O374 Zn364 2.067 . S
O374 C372 1.285 . S
C375 O368 1.262 . S
C375 O376 1.232 . S
O376 C375 1.232 . S
C377 O369 1.260 . S
C377 O370 1.257 . S
Zn378 O381 2.031 . S
Zn378 O383 2.049 . S
Zn378 O388 2.067 . S
Zn379 O380 1.962 . S
Zn379 O382 1.986 . S
Zn379 O384 1.996 . S
Zn379 O387 1.943 . S
O380 Zn379 1.962 . S
O380 C385 1.254 . S
O381 Zn378 2.031 . S
O381 C385 1.269 . S
O382 Zn379 1.986 . S
O382 C389 1.262 . S
O383 Zn378 2.049 . S
O383 C391 1.260 . S
O384 Zn379 1.996 . S
O384 C391 1.257 . S
C385 O380 1.254 . S
C385 O381 1.269 . S
C386 O387 1.249 . S
C386 O388 1.270 . S
O387 Zn379 1.943 . S
O387 C386 1.249 . S
O388 Zn378 2.067 . S
O388 C386 1.270 . S
C389 O382 1.262 . S
C389 O390 1.232 . S
O390 C389 1.232 . S
C391 O383 1.260 . S
C391 O384 1.257 . S
Zn392 O395 2.031 . S
Zn392 O397 2.049 . S
Zn392 O402 2.067 . S
Zn393 O394 1.962 . S
Zn393 O396 1.986 . S
Zn393 O398 1.996 . S
Zn393 O401 1.943 . S
O394 Zn393 1.962 . S
O394 C399 1.254 . S
O395 Zn392 2.031 . S
O395 C399 1.269 . S
O396 Zn393 1.986 . S
O396 C403 1.262 . S
O397 Zn392 2.049 . S
O397 C405 1.260 . S
O398 Zn393 1.996 . S
O398 C405 1.257 . S
C399 O394 1.254 . S
C399 O395 1.269 . S
C400 O401 1.249 . S
C400 O402 1.270 . S
O401 Zn393 1.943 . S
O401 C400 1.249 . S
O402 Zn392 2.067 . S
O402 C400 1.270 . S
C403 O396 1.262 . S
C403 O404 1.232 . S
O404 C403 1.232 . S
C405 O397 1.260 . S
C405 O398 1.257 . S
Zn406 O409 2.031 . S
Zn406 O411 2.049 . S
Zn406 O416 2.067 . S
Zn407 O408 1.962 . S
Zn407 O410 1.986 . S
Zn407 O412 1.996 . S
Zn407 O415 1.943 . S
O408 Zn407 1.962 . S
O408 C413 1.254 . S
O409 Zn406 2.031 . S
O409 C413 1.269 . S
O410 Zn407 1.986 . S
O410 C417 1.262 . S
O411 Zn406 2.049 . S
O411 C419 1.260 . S
O412 Zn407 1.996 . S
O412 C419 1.257 . S
C413 O408 1.254 . S
C413 O409 1.269 . S
C414 O415 1.249 . S
C414 O416 1.270 . S
O415 Zn407 1.943 . S
O415 C414 1.249 . S
O416 Zn406 2.067 . S
O416 C414 1.270 . S
C417 O410 1.262 . S
C417 O418 1.232 . S
O418 C417 1.232 . S
C419 O411 1.260 . S
C419 O412 1.257 . S
Zn420 O423 2.031 . S
Zn420 O425 2.049 . S
Zn420 O430 2.067 . S
Zn421 O422 1.962 . S
Zn421 O424 1.986 . S
Zn421 O426 1.996 . S
Zn421 O429 1.943 . S
O422 Zn421 1.962 . S
O422 C427 1.254 . S
O423 Zn420 2.031 . S
O423 C427 1.269 . S
O424 Zn421 1.986 . S
O424 C431 1.262 . S
O425 Zn420 2.049 . S
O425 C433 1.260 . S
O426 Zn421 1.996 . S
O426 C433 1.257 . S
C427 O422 1.254 . S
C427 O423 1.269 . S
C428 O429 1.249 1_655 S
C428 O430 1.270 1_655 S
O429 Zn421 1.943 . S
O429 C428 1.249 1_455 S
O430 Zn420 2.067 . S
O430 C428 1.270 1_455 S
C431 O424 1.262 . S
C431 O432 1.232 . S
O432 C431 1.232 . S
C433 O425 1.260 . S
C433 O426 1.257 . S
Zn434 O437 2.031 . S
Zn434 O439 2.049 . S
Zn434 O444 2.067 . S
Zn435 O436 1.962 . S
Zn435 O438 1.986 . S
Zn435 O440 1.996 . S
Zn435 O443 1.943 . S
O436 Zn435 1.962 . S
O436 C441 1.254 . S
O437 Zn434 2.031 . S
O437 C441 1.269 . S
O438 Zn435 1.986 . S
O438 C445 1.262 . S
O439 Zn434 2.049 . S
O439 C447 1.260 . S
O440 Zn435 1.996 . S
O440 C447 1.257 . S
C441 O436 1.254 . S
C441 O437 1.269 . S
C442 O443 1.249 . S
C442 O444 1.270 . S
O443 Zn435 1.943 . S
O443 C442 1.249 . S
O444 Zn434 2.067 . S
O444 C442 1.270 . S
C445 O438 1.262 . S
C445 O446 1.232 . S
O446 C445 1.232 . S
C447 O439 1.260 . S
C447 O440 1.257 . S
Zn448 O451 2.031 . S
Zn448 O453 2.049 . S
Zn448 O458 2.067 . S
Zn449 O450 1.962 . S
Zn449 O452 1.986 . S
Zn449 O454 1.996 . S
Zn449 O457 1.943 . S
O450 Zn449 1.962 . S
O450 C455 1.254 . S
O451 Zn448 2.031 . S
O451 C455 1.269 . S
O452 Zn449 1.986 . S
O452 C459 1.262 . S
O453 Zn448 2.049 . S
O453 C461 1.260 . S
O454 Zn449 1.996 . S
O454 C461 1.257 . S
C455 O450 1.254 . S
C455 O451 1.269 . S
C456 O457 1.249 . S
C456 O458 1.270 . S
O457 Zn449 1.943 . S
O457 C456 1.249 . S
O458 Zn448 2.067 . S
O458 C456 1.270 . S
C459 O452 1.262 . S
C459 O460 1.232 . S
O460 C459 1.232 . S
C461 O453 1.260 . S
C461 O454 1.257 . S
Zn462 O465 2.031 . S
Zn462 O467 2.049 . S
Zn462 O472 2.067 . S
Zn463 O464 1.962 . S
Zn463 O466 1.986 . S
Zn463 O468 1.996 . S
Zn463 O471 1.943 . S
O464 Zn463 1.962 . S
O464 C469 1.254 . S
O465 Zn462 2.031 . S
O465 C469 1.269 . S
O466 Zn463 1.986 . S
O466 C473 1.262 . S
O467 Zn462 2.049 . S
O467 C475 1.260 . S
O468 Zn463 1.996 . S
O468 C475 1.257 . S
C469 O464 1.254 . S
C469 O465 1.269 . S
C470 O471 1.249 . S
C470 O472 1.270 . S
O471 Zn463 1.943 . S
O471 C470 1.249 . S
O472 Zn462 2.067 . S
O472 C470 1.270 . S
C473 O466 1.262 . S
C473 O474 1.232 . S
O474 C473 1.232 . S
C475 O467 1.260 . S
C475 O468 1.257 . S
Zn476 O479 2.031 . S
Zn476 O481 2.049 . S
Zn476 O486 2.067 . S
Zn477 O478 1.962 . S
Zn477 O480 1.986 . S
Zn477 O482 1.996 . S
Zn477 O485 1.943 . S
O478 Zn477 1.962 . S
O478 C483 1.254 . S
O479 Zn476 2.031 . S
O479 C483 1.269 . S
O480 Zn477 1.986 . S
O480 C487 1.262 . S
O481 Zn476 2.049 . S
O481 C489 1.260 . S
O482 Zn477 1.996 . S
O482 C489 1.257 . S
C483 O478 1.254 . S
C483 O479 1.269 . S
C484 O485 1.249 . S
C484 O486 1.270 . S
O485 Zn477 1.943 . S
O485 C484 1.249 . S
O486 Zn476 2.067 . S
O486 C484 1.270 . S
C487 O480 1.262 . S
C487 O488 1.232 . S
O488 C487 1.232 . S
C489 O481 1.260 . S
C489 O482 1.257 . S
Zn490 O493 2.031 . S
Zn490 O495 2.049 . S
Zn490 O500 2.067 . S
Zn491 O492 1.962 . S
Zn491 O494 1.986 . S
Zn491 O496 1.996 . S
Zn491 O499 1.943 . S
O492 Zn491 1.962 . S
O492 C497 1.254 . S
O493 Zn490 2.031 . S
O493 C497 1.269 . S
O494 Zn491 1.986 . S
O494 C501 1.262 . S
O495 Zn490 2.049 . S
O495 C503 1.260 . S
O496 Zn491 1.996 . S
O496 C503 1.257 . S
C497 O492 1.254 . S
C497 O493 1.269 . S
C498 O499 1.249 . S
C498 O500 1.270 . S
O499 Zn491 1.943 . S
O499 C498 1.249 . S
O500 Zn490 2.067 . S
O500 C498 1.270 . S
C501 O494 1.262 . S
C501 O502 1.232 . S
O502 C501 1.232 . S
C503 O495 1.260 . S
C503 O496 1.257 . S
Zn504 O507 2.031 . S
Zn504 O509 2.049 . S
Zn504 O514 2.067 . S
Zn505 O506 1.962 . S
Zn505 O508 1.986 . S
Zn505 O510 1.996 . S
Zn505 O513 1.943 . S
O506 Zn505 1.962 . S
O506 C511 1.254 . S
O507 Zn504 2.031 . S
O507 C511 1.269 . S
O508 Zn505 1.986 . S
O508 C515 1.262 . S
O509 Zn504 2.049 . S
O509 C517 1.260 . S
O510 Zn505 1.996 . S
O510 C517 1.257 . S
C511 O506 1.254 . S
C511 O507 1.269 . S
C512 O513 1.249 . S
C512 O514 1.270 . S
O513 Zn505 1.943 . S
O513 C512 1.249 . S
O514 Zn504 2.067 . S
O514 C512 1.270 . S
C515 O508 1.262 . S
C515 O516 1.232 . S
O516 C515 1.232 . S
C517 O509 1.260 . S
C517 O510 1.257 . S
Zn518 O521 2.031 . S
Zn518 O523 2.049 . S
Zn518 O528 2.067 . S
Zn519 O520 1.962 . S
Zn519 O522 1.986 . S
Zn519 O524 1.996 . S
Zn519 O527 1.943 . S
O520 Zn519 1.962 . S
O520 C525 1.254 . S
O521 Zn518 2.031 . S
O521 C525 1.269 . S
O522 Zn519 1.986 . S
O522 C529 1.262 . S
O523 Zn518 2.049 . S
O523 C531 1.260 . S
O524 Zn519 1.996 . S
O524 C531 1.257 . S
C525 O520 1.254 . S
C525 O521 1.269 . S
C526 O527 1.249 . S
C526 O528 1.270 . S
O527 Zn519 1.943 . S
O527 C526 1.249 . S
O528 Zn518 2.067 . S
O528 C526 1.270 . S
C529 O522 1.262 . S
C529 O530 1.232 . S
O530 C529 1.232 . S
C531 O523 1.260 . S
C531 O524 1.257 . S
Zn532 O535 2.031 . S
Zn532 O537 2.049 . S
Zn532 O542 2.067 . S
Zn533 O534 1.962 . S
Zn533 O536 1.986 . S
Zn533 O538 1.996 . S
Zn533 O541 1.943 . S
O534 Zn533 1.962 . S
O534 C539 1.254 . S
O535 Zn532 2.031 . S
O535 C539 1.269 . S
O536 Zn533 1.986 . S
O536 C543 1.262 . S
O537 Zn532 2.049 . S
O537 C545 1.260 . S
O538 Zn533 1.996 . S
O538 C545 1.257 . S
C539 O534 1.254 . S
C539 O535 1.269 . S
C540 O541 1.249 . S
C540 O542 1.270 . S
O541 Zn533 1.943 . S
O541 C540 1.249 . S
O542 Zn532 2.067 . S
O542 C540 1.270 . S
C543 O536 1.262 . S
C543 O544 1.232 . S
O544 C543 1.232 . S
C545 O537 1.260 . S
C545 O538 1.257 . S
Zn546 O549 2.031 . S
Zn546 O551 2.049 . S
Zn546 O556 2.067 . S
Zn547 O548 1.962 . S
Zn547 O550 1.986 . S
Zn547 O552 1.996 . S
Zn547 O555 1.943 . S
O548 Zn547 1.962 . S
O548 C553 1.254 . S
O549 Zn546 2.031 . S
O549 C553 1.269 . S
O550 Zn547 1.986 . S
O550 C557 1.262 . S
O551 Zn546 2.049 . S
O551 C559 1.260 . S
O552 Zn547 1.996 . S
O552 C559 1.257 . S
C553 O548 1.254 . S
C553 O549 1.269 . S
C554 O555 1.249 . S
C554 O556 1.270 . S
O555 Zn547 1.943 . S
O555 C554 1.249 . S
O556 Zn546 2.067 . S
O556 C554 1.270 . S
C557 O550 1.262 . S
C557 O558 1.232 . S
O558 C557 1.232 . S
C559 O551 1.260 . S
C559 O552 1.257 . S
Zn560 O563 2.031 . S
Zn560 O565 2.049 . S
Zn560 O570 2.067 . S
Zn561 O562 1.962 . S
Zn561 O564 1.986 . S
Zn561 O566 1.996 . S
Zn561 O569 1.943 . S
O562 Zn561 1.962 . S
O562 C567 1.254 . S
O563 Zn560 2.031 . S
O563 C567 1.269 . S
O564 Zn561 1.986 . S
O564 C571 1.262 . S
O565 Zn560 2.049 . S
O565 C573 1.260 . S
O566 Zn561 1.996 . S
O566 C573 1.257 . S
C567 O562 1.254 . S
C567 O563 1.269 . S
C568 O569 1.249 . S
C568 O570 1.270 . S
O569 Zn561 1.943 . S
O569 C568 1.249 . S
O570 Zn560 2.067 . S
O570 C568 1.270 . S
C571 O564 1.262 . S
C571 O572 1.232 . S
O572 C571 1.232 . S
C573 O565 1.260 . S
C573 O566 1.257 . S
Zn574 O577 2.031 . S
Zn574 O579 2.049 . S
Zn574 O584 2.067 . S
Zn575 O576 1.962 . S
Zn575 O578 1.986 . S
Zn575 O580 1.996 . S
Zn575 O583 1.943 . S
O576 Zn575 1.962 . S
O576 C581 1.254 . S
O577 Zn574 2.031 . S
O577 C581 1.269 . S
O578 Zn575 1.986 . S
O578 C585 1.262 . S
O579 Zn574 2.049 . S
O579 C587 1.260 . S
O580 Zn575 1.996 . S
O580 C587 1.257 . S
C581 O576 1.254 . S
C581 O577 1.269 . S
C582 O583 1.249 . S
C582 O584 1.270 . S
O583 Zn575 1.943 . S
O583 C582 1.249 . S
O584 Zn574 2.067 . S
O584 C582 1.270 . S
C585 O578 1.262 . S
C585 O586 1.232 . S
O586 C585 1.232 . S
C587 O579 1.260 . S
C587 O580 1.257 . S
Zn588 O591 2.031 . S
Zn588 O593 2.049 . S
Zn588 O598 2.067 . S
Zn589 O590 1.962 . S
Zn589 O592 1.986 . S
Zn589 O594 1.996 . S
Zn589 O597 1.943 . S
O590 Zn589 1.962 . S
O590 C595 1.254 . S
O591 Zn588 2.031 . S
O591 C595 1.269 . S
O592 Zn589 1.986 . S
O592 C599 1.262 . S
O593 Zn588 2.049 . S
O593 C601 1.260 . S
O594 Zn589 1.996 . S
O594 C601 1.257 . S
C595 O590 1.254 . S
C595 O591 1.269 . S
C596 O597 1.249 . S
C596 O598 1.270 . S
O597 Zn589 1.943 . S
O597 C596 1.249 . S
O598 Zn588 2.067 . S
O598 C596 1.270 . S
C599 O592 1.262 . S
C599 O600 1.232 . S
O600 C599 1.232 . S
C601 O593 1.260 . S
C601 O594 1.257 . S
Zn602 O605 2.031 . S
Zn602 O607 2.049 . S
Zn602 O612 2.067 . S
Zn603 O604 1.962 . S
Zn603 O606 1.986 . S
Zn603 O608 1.996 . S
Zn603 O611 1.943 . S
O604 Zn603 1.962 . S
O604 C609 1.254 . S
O605 Zn602 2.031 . S
O605 C609 1.269 . S
O606 Zn603 1.986 . S
O606 C613 1.262 . S
O607 Zn602 2.049 . S
O607 C615 1.260 . S
O608 Zn603 1.996 . S
O608 C615 1.257 . S
C609 O604 1.254 . S
C609 O605 1.269 . S
C610 O611 1.276 . S
C610 O612 1.286 . S
O611 Zn603 1.943 . S
O611 C610 1.276 . S
O612 Zn602 2.067 . S
O612 C610 1.286 . S
C613 O606 1.262 . S
C613 O614 1.232 . S
O614 C613 1.232 . S
C615 O607 1.260 . S
C615 O608 1.257 . S
Zn616 O619 2.031 . S
Zn616 O621 2.049 . S
Zn616 O626 2.067 . S
Zn617 O618 1.962 . S
Zn617 O620 1.986 . S
Zn617 O622 1.996 . S
Zn617 O625 1.943 . S
O618 Zn617 1.962 . S
O618 C623 1.254 . S
O619 Zn616 2.031 . S
O619 C623 1.269 . S
O620 Zn617 1.986 . S
O620 C627 1.262 . S
O621 Zn616 2.049 . S
O621 C629 1.260 . S
O622 Zn617 1.996 . S
O622 C629 1.257 . S
C623 O618 1.254 . S
C623 O619 1.269 . S
C624 O625 1.249 . S
C624 O626 1.270 . S
O625 Zn617 1.943 . S
O625 C624 1.249 . S
O626 Zn616 2.067 . S
O626 C624 1.270 . S
C627 O620 1.262 . S
C627 O628 1.232 . S
O628 C627 1.232 . S
C629 O621 1.260 . S
C629 O622 1.257 . S
Zn630 O633 2.031 . S
Zn630 O635 2.049 . S
Zn630 O640 2.067 . S
Zn631 O632 1.962 . S
Zn631 O634 1.986 . S
Zn631 O636 1.996 . S
Zn631 O639 1.943 . S
O632 Zn631 1.962 . S
O632 C637 1.254 . S
O633 Zn630 2.031 . S
O633 C637 1.269 . S
O634 Zn631 1.986 . S
O634 C641 1.262 . S
O635 Zn630 2.049 . S
O635 C643 1.260 . S
O636 Zn631 1.996 . S
O636 C643 1.257 . S
C637 O632 1.254 . S
C637 O633 1.269 . S
C638 O639 1.249 . S
C638 O640 1.270 . S
O639 Zn631 1.943 . S
O639 C638 1.249 . S
O640 Zn630 2.067 . S
O640 C638 1.270 . S
C641 O634 1.262 . S
C641 O642 1.232 . S
O642 C641 1.232 . S
C643 O635 1.260 . S
C643 O636 1.257 . S
Zn644 O647 2.031 . S
Zn644 O649 2.049 . S
Zn644 O654 2.067 . S
Zn645 O646 1.962 . S
Zn645 O648 1.986 . S
Zn645 O650 1.996 . S
Zn645 O653 1.943 . S
O646 Zn645 1.962 . S
O646 C651 1.254 . S
O647 Zn644 2.031 . S
O647 C651 1.269 . S
O648 Zn645 1.986 . S
O648 C655 1.262 . S
O649 Zn644 2.049 . S
O649 C657 1.260 . S
O650 Zn645 1.996 . S
O650 C657 1.257 . S
C651 O646 1.254 . S
C651 O647 1.269 . S
C652 O653 1.249 . S
C652 O654 1.270 . S
O653 Zn645 1.943 . S
O653 C652 1.249 . S
O654 Zn644 2.067 . S
O654 C652 1.270 . S
C655 O648 1.262 . S
C655 O656 1.232 . S
O656 C655 1.232 . S
C657 O649 1.260 . S
C657 O650 1.257 . S
Zn658 O661 2.031 . S
Zn658 O663 2.049 . S
Zn658 O668 2.067 . S
Zn659 O660 1.962 . S
Zn659 O662 1.986 . S
Zn659 O664 1.996 . S
Zn659 O667 1.943 . S
O660 Zn659 1.962 . S
O660 C665 1.254 . S
O661 Zn658 2.031 . S
O661 C665 1.269 . S
O662 Zn659 1.986 . S
O662 C669 1.262 . S
O663 Zn658 2.049 . S
O663 C671 1.260 . S
O664 Zn659 1.996 . S
O664 C671 1.257 . S
C665 O660 1.254 . S
C665 O661 1.269 . S
C666 O667 1.249 . S
C666 O668 1.270 . S
O667 Zn659 1.943 . S
O667 C666 1.249 . S
O668 Zn658 2.067 . S
O668 C666 1.270 . S
C669 O662 1.262 . S
C669 O670 1.232 . S
O670 C669 1.232 . S
C671 O663 1.260 . S
C671 O664 1.257 . S
C672 C673 1.369 . S
C672 C674 1.419 . S
C672 H676 0.930 . S
C673 C672 1.369 . S
C673 C682 1.429 . S
C674 C672 1.419 . S
C674 C675 1.363 . S
C674 H677 0.929 . S
C675 C674 1.363 . S
C675 C681 1.428 . S
H676 C672 0.930 . S
H677 C674 0.929 . S
S678 N679 1.613 . S
S678 N680 1.610 . S
N679 S678 1.613 . S
N679 C682 1.350 . S
N680 S678 1.610 . S
N680 C681 1.351 . S
C681 C675 1.428 . S
C681 N680 1.351 . S
C681 C682 1.434 . S
C682 C673 1.429 . S
C682 N679 1.350 . S
C682 C681 1.434 . S
C683 C684 1.369 . S
C683 C685 1.419 . S
C683 H687 0.930 . S
C684 C683 1.369 . S
C684 C693 1.429 . S
C685 C683 1.419 . S
C685 C686 1.363 . S
C685 H688 0.929 . S
C686 C685 1.363 . S
C686 C692 1.428 . S
H687 C683 0.930 . S
H688 C685 0.929 . S
S689 N690 1.613 . S
S689 N691 1.610 1_455 S
N690 S689 1.613 . S
N690 C693 1.350 . S
N691 S689 1.610 1_655 S
N691 C692 1.351 1_655 S
C692 C686 1.428 . S
C692 N691 1.351 1_455 S
C692 C693 1.434 . S
C693 C684 1.429 . S
C693 N690 1.350 . S
C693 C692 1.434 . S
C694 C695 1.369 . S
C694 C696 1.419 . S
C694 H698 0.930 . S
C695 C694 1.369 . S
C695 C704 1.429 . S
C696 C694 1.419 . S
C696 C697 1.363 . S
C696 H699 0.929 . S
C697 C696 1.363 . S
C697 C703 1.428 . S
H698 C694 0.930 . S
H699 C696 0.929 . S
S700 N701 1.613 . S
S700 N702 1.610 . S
N701 S700 1.613 . S
N701 C704 1.350 . S
N702 S700 1.610 . S
N702 C703 1.351 . S
C703 C697 1.428 . S
C703 N702 1.351 . S
C703 C704 1.434 . S
C704 C695 1.429 . S
C704 N701 1.350 . S
C704 C703 1.434 . S
C705 C706 1.369 . S
C705 C707 1.419 . S
C705 H709 0.930 1_556 S
C706 C705 1.369 . S
C706 C715 1.429 . S
C707 C705 1.419 . S
C707 C708 1.363 . S
C707 H710 0.889 1_556 S
C708 C707 1.363 . S
C708 C714 1.428 . S
H709 C705 0.930 1_554 S
H710 C707 0.889 1_554 S
S711 N712 1.613 . S
S711 N713 1.610 . S
N712 S711 1.613 . S
N712 C715 1.350 . S
N713 S711 1.610 . S
N713 C714 1.351 . S
C714 C708 1.428 . S
C714 N713 1.351 . S
C714 C715 1.434 . S
C715 C706 1.429 . S
C715 N712 1.350 . S
C715 C714 1.434 . S
C716 C717 1.369 . S
C716 C718 1.419 . S
C716 H720 0.930 . S
C717 C716 1.369 . S
C717 C726 1.429 . S
C718 C716 1.419 . S
C718 C719 1.363 . S
C718 H721 0.929 . S
C719 C718 1.363 . S
C719 C725 1.428 . S
H720 C716 0.930 . S
H721 C718 0.929 . S
S722 N723 1.613 . S
S722 N724 1.610 . S
N723 S722 1.613 . S
N723 C726 1.350 . S
N724 S722 1.610 . S
N724 C725 1.351 . S
C725 C719 1.428 . S
C725 N724 1.351 . S
C725 C726 1.434 . S
C726 C717 1.429 . S
C726 N723 1.350 . S
C726 C725 1.434 . S
C727 C728 1.369 . S
C727 C729 1.419 . S
C727 H731 0.930 . S
C728 C727 1.369 . S
C728 C737 1.429 . S
C729 C727 1.419 . S
C729 C730 1.363 . S
C729 H732 0.929 . S
C730 C729 1.363 . S
C730 C736 1.428 . S
H731 C727 0.930 . S
H732 C729 0.929 . S
S733 N734 1.613 . S
S733 N735 1.610 . S
N734 S733 1.613 . S
N734 C737 1.350 . S
N735 S733 1.610 . S
N735 C736 1.351 . S
C736 C730 1.428 . S
C736 N735 1.351 . S
C736 C737 1.434 . S
C737 C728 1.429 . S
C737 N734 1.350 . S
C737 C736 1.434 . S
C738 C739 1.369 . S
C738 C740 1.419 . S
C738 H742 0.930 . S
C739 C738 1.369 . S
C739 C748 1.429 . S
C740 C738 1.419 . S
C740 C741 1.363 . S
C740 H743 0.929 . S
C741 C740 1.363 . S
C741 C747 1.428 . S
H742 C738 0.930 . S
H743 C740 0.929 . S
S744 N745 1.613 . S
S744 N746 1.610 . S
N745 S744 1.613 . S
N745 C748 1.350 . S
N746 S744 1.610 . S
N746 C747 1.351 . S
C747 C741 1.428 . S
C747 N746 1.351 . S
C747 C748 1.434 . S
C748 C739 1.429 . S
C748 N745 1.350 . S
C748 C747 1.434 . S
C749 C750 1.369 . S
C749 C751 1.419 1_655 S
C749 H753 0.930 . S
C750 C749 1.369 . S
C750 C759 1.429 1_655 S
C751 C749 1.419 1_455 S
C751 C752 1.363 . S
C751 H754 0.929 . S
C752 C751 1.363 . S
C752 C758 1.428 . S
H753 C749 0.930 . S
H754 C751 0.929 . S
S755 N756 1.613 . S
S755 N757 1.610 . S
N756 S755 1.613 . S
N756 C759 1.350 . S
N757 S755 1.610 . S
N757 C758 1.351 . S
C758 C752 1.428 . S
C758 N757 1.351 . S
C758 C759 1.434 . S
C759 C750 1.429 1_455 S
C759 N756 1.350 . S
C759 C758 1.434 . S
C760 C761 1.369 . S
C760 C762 1.419 . S
C760 H764 0.930 . S
C761 C760 1.369 . S
C761 C770 1.429 . S
C762 C760 1.419 . S
C762 C763 1.363 . S
C762 H765 0.929 . S
C763 C762 1.363 . S
C763 C769 1.428 . S
H764 C760 0.930 . S
H765 C762 0.929 . S
S766 N767 1.613 . S
S766 N768 1.610 . S
N767 S766 1.613 . S
N767 C770 1.350 . S
N768 S766 1.610 . S
N768 C769 1.351 . S
C769 C763 1.428 . S
C769 N768 1.351 . S
C769 C770 1.434 . S
C770 C761 1.429 . S
C770 N767 1.350 . S
C770 C769 1.434 . S
C771 C772 1.369 . S
C771 C773 1.419 . S
C771 H775 0.895 1_565 S
C772 C771 1.369 . S
C772 C781 1.429 . S
C773 C771 1.419 . S
C773 C774 1.363 . S
C773 H776 0.929 1_565 S
C774 C773 1.363 . S
C774 C780 1.428 . S
H775 C771 0.895 1_545 S
H776 C773 0.929 1_545 S
S777 N778 1.613 . S
S777 N779 1.610 . S
N778 S777 1.613 . S
N778 C781 1.350 . S
N779 S777 1.610 . S
N779 C780 1.351 . S
C780 C774 1.428 . S
C780 N779 1.351 . S
C780 C781 1.434 . S
C781 C772 1.429 . S
C781 N778 1.350 . S
C781 C780 1.434 . S
C782 C783 1.369 . S
C782 C784 1.419 . S
C782 H786 0.930 . S
C783 C782 1.369 . S
C783 C792 1.429 . S
C784 C782 1.419 . S
C784 C785 1.363 . S
C784 H787 0.929 . S
C785 C784 1.363 . S
C785 C791 1.428 . S
H786 C782 0.930 . S
H787 C784 0.929 . S
S788 N789 1.613 . S
S788 N790 1.610 . S
N789 S788 1.613 . S
N789 C792 1.350 . S
N790 S788 1.610 . S
N790 C791 1.351 . S
C791 C785 1.428 . S
C791 N790 1.351 . S
C791 C792 1.434 . S
C792 C783 1.429 . S
C792 N789 1.350 . S
C792 C791 1.434 . S
C793 C794 1.369 . S
C793 C795 1.419 . S
C793 H797 0.930 . S
C794 C793 1.369 . S
C794 C803 1.429 . S
C795 C793 1.419 . S
C795 C796 1.363 1_554 S
C795 H798 0.929 . S
C796 C795 1.363 1_556 S
C796 C802 1.428 . S
H797 C793 0.930 . S
H798 C795 0.929 . S
S799 N800 1.604 1_556 S
S799 N801 1.610 . S
N800 S799 1.604 1_554 S
N800 C803 1.351 . S
N801 S799 1.610 . S
N801 C802 1.351 . S
C802 C796 1.428 . S
C802 N801 1.351 . S
C802 C803 1.434 1_556 S
C803 C794 1.429 . S
C803 N800 1.351 . S
C803 C802 1.434 1_554 S
C804 C805 1.369 . S
C804 C806 1.419 . S
C804 H808 0.930 . S
C805 C804 1.369 . S
C805 C814 1.429 . S
C806 C804 1.419 . S
C806 C807 1.363 . S
C806 H809 0.929 . S
C807 C806 1.363 . S
C807 C813 1.428 . S
H808 C804 0.930 . S
H809 C806 0.929 . S
S810 N811 1.613 . S
S810 N812 1.610 . S
N811 S810 1.613 . S
N811 C814 1.350 . S
N812 S810 1.610 . S
N812 C813 1.351 . S
C813 C807 1.428 . S
C813 N812 1.351 . S
C813 C814 1.434 . S
C814 C805 1.429 . S
C814 N811 1.350 . S
C814 C813 1.434 . S
C815 C816 1.369 . S
C815 C817 1.419 . S
C815 H819 0.930 . S
C816 C815 1.369 . S
C816 C825 1.429 . S
C817 C815 1.419 . S
C817 C818 1.363 . S
C817 H820 0.929 . S
C818 C817 1.363 . S
C818 C824 1.428 . S
H819 C815 0.930 . S
H820 C817 0.929 . S
S821 N822 1.613 . S
S821 N823 1.610 . S
N822 S821 1.613 . S
N822 C825 1.350 . S
N823 S821 1.610 . S
N823 C824 1.351 . S
C824 C818 1.428 . S
C824 N823 1.351 . S
C824 C825 1.434 . S
C825 C816 1.429 . S
C825 N822 1.350 . S
C825 C824 1.434 . S
C826 C827 1.369 . S
C826 C828 1.419 . S
C826 H830 0.930 . S
C827 C826 1.369 . S
C827 C836 1.429 . S
C828 C826 1.419 . S
C828 C829 1.363 . S
C828 H831 0.929 . S
C829 C828 1.363 . S
C829 C835 1.428 . S
H830 C826 0.930 . S
H831 C828 0.929 . S
S832 N833 1.613 . S
S832 N834 1.610 . S
N833 S832 1.613 . S
N833 C836 1.350 1_455 S
N834 S832 1.610 . S
N834 C835 1.351 1_455 S
C835 C829 1.428 . S
C835 N834 1.351 1_655 S
C835 C836 1.434 . S
C836 C827 1.429 . S
C836 N833 1.350 1_655 S
C836 C835 1.434 . S
C837 C838 1.369 . S
C837 C839 1.419 . S
C837 H841 0.930 . S
C838 C837 1.369 . S
C838 C847 1.429 . S
C839 C837 1.419 . S
C839 C840 1.363 . S
C839 H842 0.929 . S
C840 C839 1.363 . S
C840 C846 1.428 . S
H841 C837 0.930 . S
H842 C839 0.929 . S
S843 N844 1.613 . S
S843 N845 1.610 . S
N844 S843 1.613 . S
N844 C847 1.350 . S
N845 S843 1.610 . S
N845 C846 1.351 . S
C846 C840 1.428 . S
C846 N845 1.351 . S
C846 C847 1.434 . S
C847 C838 1.429 . S
C847 N844 1.350 . S
C847 C846 1.434 . S
C848 C849 1.369 . S
C848 C850 1.419 1_545 S
C848 H852 0.930 . S
C849 C848 1.369 . S
C849 C858 1.429 . S
C850 C848 1.419 1_565 S
C850 C851 1.363 . S
C850 H853 0.929 . S
C851 C850 1.363 . S
C851 C857 1.428 1_565 S
H852 C848 0.930 . S
H853 C850 0.929 . S
S854 N855 1.613 . S
S854 N856 1.610 . S
N855 S854 1.613 . S
N855 C858 1.350 . S
N856 S854 1.610 . S
N856 C857 1.351 . S
C857 C851 1.428 1_545 S
C857 N856 1.351 . S
C857 C858 1.434 . S
C858 C849 1.429 . S
C858 N855 1.350 . S
C858 C857 1.434 . S
C859 C860 1.369 . S
C859 C861 1.419 . S
C859 H863 0.930 . S
C860 C859 1.369 . S
C860 C869 1.429 . S
C861 C859 1.419 . S
C861 C862 1.363 . S
C861 H864 0.929 . S
C862 C861 1.363 . S
C862 C868 1.428 . S
H863 C859 0.930 . S
H864 C861 0.929 . S
S865 N866 1.613 . S
S865 N867 1.610 . S
N866 S865 1.613 . S
N866 C869 1.350 . S
N867 S865 1.610 . S
N867 C868 1.351 . S
C868 C862 1.428 . S
C868 N867 1.351 . S
C868 C869 1.434 . S
C869 C860 1.429 . S
C869 N866 1.350 . S
C869 C868 1.434 . S
C870 C871 1.369 . S
C870 C872 1.419 . S
C870 H874 0.930 . S
C871 C870 1.369 . S
C871 C880 1.429 . S
C872 C870 1.419 . S
C872 C873 1.363 . S
C872 H875 0.929 . S
C873 C872 1.363 . S
C873 C879 1.428 . S
H874 C870 0.930 . S
H875 C872 0.929 . S
S876 N877 1.613 . S
S876 N878 1.610 . S
N877 S876 1.613 . S
N877 C880 1.350 . S
N878 S876 1.610 . S
N878 C879 1.351 . S
C879 C873 1.428 . S
C879 N878 1.351 . S
C879 C880 1.434 . S
C880 C871 1.429 . S
C880 N877 1.350 . S
C880 C879 1.434 . S
C881 C882 1.369 . S
C881 C883 1.419 . S
C881 H885 0.930 . S
C882 C881 1.369 . S
C882 C891 1.429 . S
C883 C881 1.419 . S
C883 C884 1.363 . S
C883 H886 0.929 . S
C884 C883 1.363 . S
C884 C890 1.428 . S
H885 C881 0.930 . S
H886 C883 0.929 . S
S887 N888 1.613 . S
S887 N889 1.610 . S
N888 S887 1.613 . S
N888 C891 1.350 . S
N889 S887 1.610 . S
N889 C890 1.351 . S
C890 C884 1.428 . S
C890 N889 1.351 . S
C890 C891 1.434 . S
C891 C882 1.429 . S
C891 N888 1.350 . S
C891 C890 1.434 . S
C892 C893 1.369 . S
C892 C894 1.419 . S
C892 H896 0.930 . S
C893 C892 1.369 . S
C893 C902 1.429 . S
C894 C892 1.419 . S
C894 C895 1.363 . S
C894 H897 0.929 . S
C895 C894 1.363 . S
C895 C901 1.428 . S
H896 C892 0.930 . S
H897 C894 0.929 . S
S898 N899 1.613 . S
S898 N900 1.610 1_556 S
N899 S898 1.613 . S
N899 C902 1.350 1_556 S
N900 S898 1.610 1_554 S
N900 C901 1.351 . S
C901 C895 1.428 . S
C901 N900 1.351 . S
C901 C902 1.434 . S
C902 C893 1.429 . S
C902 N899 1.350 1_554 S
C902 C901 1.434 . S
C903 C904 1.369 . S
C903 C905 1.419 . S
C903 H907 0.930 . S
C904 C903 1.369 . S
C904 C913 1.429 . S
C905 C903 1.419 . S
C905 C906 1.363 . S
C905 H908 0.929 . S
C906 C905 1.363 . S
C906 C912 1.428 . S
H907 C903 0.930 . S
H908 C905 0.929 . S
S909 N910 1.613 . S
S909 N911 1.610 . S
N910 S909 1.613 . S
N910 C913 1.350 . S
N911 S909 1.610 . S
N911 C912 1.351 . S
C912 C906 1.428 . S
C912 N911 1.351 . S
C912 C913 1.434 . S
C913 C904 1.429 . S
C913 N910 1.350 . S
C913 C912 1.434 . S
C914 C915 1.369 . S
C914 C916 1.419 . S
C914 H918 0.930 . S
C915 C914 1.369 . S
C915 C924 1.429 . S
C916 C914 1.419 . S
C916 C917 1.363 . S
C916 H919 0.929 . S
C917 C916 1.363 . S
C917 C923 1.428 . S
H918 C914 0.930 . S
H919 C916 0.929 . S
S920 N921 1.613 . S
S920 N922 1.610 . S
N921 S920 1.613 . S
N921 C924 1.350 . S
N922 S920 1.610 . S
N922 C923 1.351 . S
C923 C917 1.428 . S
C923 N922 1.351 . S
C923 C924 1.434 . S
C924 C915 1.429 . S
C924 N921 1.350 . S
C924 C923 1.434 . S
C925 C926 1.369 . S
C925 C927 1.419 . S
C925 H929 0.930 . S
C926 C925 1.369 . S
C926 C935 1.429 . S
C927 C925 1.419 . S
C927 C928 1.363 . S
C927 H930 0.929 . S
C928 C927 1.363 . S
C928 C934 1.428 . S
H929 C925 0.930 . S
H930 C927 0.929 . S
S931 N932 1.613 . S
S931 N933 1.610 . S
N932 S931 1.613 . S
N932 C935 1.350 . S
N933 S931 1.610 . S
N933 C934 1.351 . S
C934 C928 1.428 . S
C934 N933 1.351 . S
C934 C935 1.434 . S
C935 C926 1.429 . S
C935 N932 1.350 . S
C935 C934 1.434 . S
C936 C937 1.369 . S
C936 C938 1.419 . S
C936 H940 0.930 . S
C937 C936 1.369 . S
C937 C946 1.429 . S
C938 C936 1.419 . S
C938 C939 1.363 . S
C938 H941 0.929 . S
C939 C938 1.363 . S
C939 C945 1.428 . S
H940 C936 0.930 . S
H941 C938 0.929 . S
S942 N943 1.613 . S
S942 N944 1.610 . S
N943 S942 1.613 . S
N943 C946 1.350 . S
N944 S942 1.610 . S
N944 C945 1.351 . S
C945 C939 1.428 . S
C945 N944 1.351 . S
C945 C946 1.434 . S
C946 C937 1.429 . S
C946 N943 1.350 . S
C946 C945 1.434 . S
C947 C948 1.369 . S
C947 C949 1.419 . S
C947 H951 0.930 1_655 S
C948 C947 1.369 . S
C948 C957 1.429 . S
C949 C947 1.419 . S
C949 C950 1.363 . S
C949 H952 0.929 . S
C950 C949 1.363 . S
C950 C956 1.428 . S
H951 C947 0.930 1_455 S
H952 C949 0.929 . S
S953 N954 1.613 . S
S953 N955 1.610 . S
N954 S953 1.613 . S
N954 C957 1.350 . S
N955 S953 1.610 . S
N955 C956 1.351 . S
C956 C950 1.428 . S
C956 N955 1.351 . S
C956 C957 1.434 . S
C957 C948 1.429 . S
C957 N954 1.350 . S
C957 C956 1.434 . S
C958 C959 1.369 . S
C958 C960 1.419 . S
C958 H962 0.930 . S
C959 C958 1.369 . S
C959 C968 1.429 . S
C960 C958 1.419 . S
C960 C961 1.363 . S
C960 H963 0.929 . S
C961 C960 1.363 . S
C961 C967 1.428 . S
H962 C958 0.930 . S
H963 C960 0.929 . S
S964 N965 1.613 . S
S964 N966 1.610 . S
N965 S964 1.613 . S
N965 C968 1.350 . S
N966 S964 1.610 . S
N966 C967 1.351 . S
C967 C961 1.428 . S
C967 N966 1.351 . S
C967 C968 1.434 . S
C968 C959 1.429 . S
C968 N965 1.350 . S
C968 C967 1.434 . S
C969 C970 1.369 . S
C969 C971 1.419 . S
C969 H973 0.930 . S
C970 C969 1.369 . S
C970 C979 1.429 . S
C971 C969 1.419 . S
C971 C972 1.363 . S
C971 H974 0.929 . S
C972 C971 1.363 . S
C972 C978 1.428 . S
H973 C969 0.930 . S
H974 C971 0.929 . S
S975 N976 1.613 . S
S975 N977 1.610 . S
N976 S975 1.613 . S
N976 C979 1.350 . S
N977 S975 1.610 . S
N977 C978 1.351 . S
C978 C972 1.428 . S
C978 N977 1.351 . S
C978 C979 1.434 . S
C979 C970 1.429 . S
C979 N976 1.350 . S
C979 C978 1.434 . S
C980 C981 1.369 . S
C980 C982 1.419 . S
C980 H984 0.930 . S
C981 C980 1.369 . S
C981 C990 1.429 . S
C982 C980 1.419 . S
C982 C983 1.363 . S
C982 H985 0.929 1_565 S
C983 C982 1.363 . S
C983 C989 1.428 . S
H984 C980 0.930 . S
H985 C982 0.929 1_545 S
S986 N987 1.613 . S
S986 N988 1.610 . S
N987 S986 1.613 . S
N987 C990 1.350 . S
N988 S986 1.610 . S
N988 C989 1.351 . S
C989 C983 1.428 . S
C989 N988 1.351 . S
C989 C990 1.434 . S
C990 C981 1.429 . S
C990 N987 1.350 . S
C990 C989 1.434 . S
C991 C992 1.369 . S
C991 C993 1.419 . S
C991 H995 0.930 . S
C992 C991 1.369 . S
C992 C1001 1.429 . S
C993 C991 1.419 . S
C993 C994 1.363 . S
C993 H996 0.929 . S
C994 C993 1.363 . S
C994 C1000 1.428 . S
H995 C991 0.930 . S
H996 C993 0.929 . S
S997 N998 1.613 . S
S997 N999 1.610 . S
N998 S997 1.613 . S
N998 C1001 1.350 . S
N999 S997 1.610 . S
N999 C1000 1.351 . S
C1000 C994 1.428 . S
C1000 N999 1.351 . S
C1000 C1001 1.434 . S
C1001 C992 1.429 . S
C1001 N998 1.350 . S
C1001 C1000 1.434 . S
C1002 C1003 1.369 . S
C1002 C1004 1.419 . S
C1002 H1006 0.930 . S
C1003 C1002 1.369 . S
C1003 C1012 1.429 . S
C1004 C1002 1.419 . S
C1004 C1005 1.363 . S
C1004 H1007 0.929 . S
C1005 C1004 1.363 . S
C1005 C1011 1.428 . S
H1006 C1002 0.930 . S
H1007 C1004 0.929 . S
S1008 N1009 1.613 . S
S1008 N1010 1.610 . S
N1009 S1008 1.613 . S
N1009 C1012 1.350 . S
N1010 S1008 1.610 . S
N1010 C1011 1.351 . S
C1011 C1005 1.428 . S
C1011 N1010 1.351 . S
C1011 C1012 1.434 . S
C1012 C1003 1.429 . S
C1012 N1009 1.350 . S
C1012 C1011 1.434 . S
C1013 C1014 1.369 . S
C1013 C1015 1.419 . S
C1013 H1017 0.930 . S
C1014 C1013 1.369 . S
C1014 C1023 1.429 . S
C1015 C1013 1.419 . S
C1015 C1016 1.363 . S
C1015 H1018 0.929 . S
C1016 C1015 1.363 . S
C1016 C1022 1.428 . S
H1017 C1013 0.930 . S
H1018 C1015 0.929 . S
S1019 N1020 1.613 . S
S1019 N1021 1.610 . S
N1020 S1019 1.613 . S
N1020 C1023 1.350 . S
N1021 S1019 1.610 . S
N1021 C1022 1.351 . S
C1022 C1016 1.428 . S
C1022 N1021 1.351 . S
C1022 C1023 1.434 . S
C1023 C1014 1.429 . S
C1023 N1020 1.350 . S
C1023 C1022 1.434 . S
C1024 C1025 1.369 . S
C1024 C1026 1.419 . S
C1024 H1028 0.930 . S
C1025 C1024 1.369 . S
C1025 C1034 1.429 . S
C1026 C1024 1.419 . S
C1026 C1027 1.363 . S
C1026 H1029 0.929 . S
C1027 C1026 1.363 . S
C1027 C1033 1.428 . S
H1028 C1024 0.930 . S
H1029 C1026 0.929 . S
S1030 N1031 1.613 . S
S1030 N1032 1.610 . S
N1031 S1030 1.613 . S
N1031 C1034 1.350 . S
N1032 S1030 1.610 . S
N1032 C1033 1.351 . S
C1033 C1027 1.428 . S
C1033 N1032 1.351 . S
C1033 C1034 1.434 . S
C1034 C1025 1.429 . S
C1034 N1031 1.350 . S
C1034 C1033 1.434 . S
C1035 C1036 1.369 . S
C1035 C1037 1.419 . S
C1035 H1039 0.930 . S
C1036 C1035 1.369 . S
C1036 C1045 1.429 . S
C1037 C1035 1.419 . S
C1037 C1038 1.363 . S
C1037 H1040 0.929 . S
C1038 C1037 1.363 . S
C1038 C1044 1.428 . S
H1039 C1035 0.930 . S
H1040 C1037 0.929 . S
S1041 N1042 1.613 . S
S1041 N1043 1.610 . S
N1042 S1041 1.613 . S
N1042 C1045 1.350 . S
N1043 S1041 1.610 . S
N1043 C1044 1.351 . S
C1044 C1038 1.428 . S
C1044 N1043 1.351 . S
C1044 C1045 1.434 . S
C1045 C1036 1.429 . S
C1045 N1042 1.350 . S
C1045 C1044 1.434 . S
C1046 C1047 1.369 . S
C1046 C1048 1.419 . S
C1046 H1050 0.930 . S
C1047 C1046 1.369 . S
C1047 C1056 1.429 1_565 S
C1048 C1046 1.419 . S
C1048 C1049 1.363 . S
C1048 H1051 0.929 . S
C1049 C1048 1.363 . S
C1049 C1055 1.428 . S
H1050 C1046 0.930 . S
H1051 C1048 0.929 . S
S1052 N1053 1.613 . S
S1052 N1054 1.610 1_545 S
N1053 S1052 1.613 . S
N1053 C1056 1.350 . S
N1054 S1052 1.610 1_565 S
N1054 C1055 1.351 . S
C1055 C1049 1.428 . S
C1055 N1054 1.351 . S
C1055 C1056 1.434 1_565 S
C1056 C1047 1.429 1_545 S
C1056 N1053 1.350 . S
C1056 C1055 1.434 1_545 S
C1057 C1058 1.369 . S
C1057 C1059 1.419 . S
C1057 H1061 0.930 . S
C1058 C1057 1.369 . S
C1058 C1067 1.429 . S
C1059 C1057 1.419 . S
C1059 C1060 1.363 . S
C1059 H1062 0.929 1_556 S
C1060 C1059 1.363 . S
C1060 C1066 1.428 . S
H1061 C1057 0.930 . S
H1062 C1059 0.929 1_554 S
S1063 N1064 1.613 . S
S1063 N1065 1.610 . S
N1064 S1063 1.613 . S
N1064 C1067 1.350 . S
N1065 S1063 1.610 . S
N1065 C1066 1.351 . S
C1066 C1060 1.428 . S
C1066 N1065 1.351 . S
C1066 C1067 1.434 . S
C1067 C1058 1.429 . S
C1067 N1064 1.350 . S
C1067 C1066 1.434 . S
C1068 C1069 1.369 . S
C1068 C1070 1.419 . S
C1068 H1072 0.930 . S
C1069 C1068 1.369 . S
C1069 C1078 1.429 . S
C1070 C1068 1.419 . S
C1070 C1071 1.363 . S
C1070 H1073 0.929 . S
C1071 C1070 1.363 . S
C1071 C1077 1.428 . S
H1072 C1068 0.930 . S
H1073 C1070 0.929 . S
S1074 N1075 1.613 . S
S1074 N1076 1.610 . S
N1075 S1074 1.613 . S
N1075 C1078 1.350 . S
N1076 S1074 1.610 . S
N1076 C1077 1.351 . S
C1077 C1071 1.428 . S
C1077 N1076 1.351 . S
C1077 C1078 1.434 . S
C1078 C1069 1.429 . S
C1078 N1075 1.350 . S
C1078 C1077 1.434 . S
C1079 C1080 1.369 . S
C1079 C1081 1.419 . S
C1079 H1083 0.930 . S
C1080 C1079 1.369 . S
C1080 C1089 1.429 . S
C1081 C1079 1.419 . S
C1081 C1082 1.363 . S
C1081 H1084 0.929 . S
C1082 C1081 1.363 . S
C1082 C1088 1.428 . S
H1083 C1079 0.930 . S
H1084 C1081 0.929 . S
S1085 N1086 1.613 . S
S1085 N1087 1.610 . S
N1086 S1085 1.613 . S
N1086 C1089 1.350 . S
N1087 S1085 1.610 . S
N1087 C1088 1.351 . S
C1088 C1082 1.428 . S
C1088 N1087 1.351 . S
C1088 C1089 1.434 . S
C1089 C1080 1.429 . S
C1089 N1086 1.350 . S
C1089 C1088 1.434 . S
C1090 C1091 1.369 . S
C1090 C1092 1.419 . S
C1090 H1094 0.930 . S
C1091 C1090 1.369 . S
C1091 C1100 1.429 . S
C1092 C1090 1.419 . S
C1092 C1093 1.363 . S
C1092 H1095 0.929 . S
C1093 C1092 1.363 . S
C1093 C1099 1.428 . S
H1094 C1090 0.930 . S
H1095 C1092 0.929 . S
S1096 N1097 1.613 . S
S1096 N1098 1.610 . S
N1097 S1096 1.613 . S
N1097 C1100 1.350 . S
N1098 S1096 1.610 . S
N1098 C1099 1.351 . S
C1099 C1093 1.428 . S
C1099 N1098 1.351 . S
C1099 C1100 1.434 . S
C1100 C1091 1.429 . S
C1100 N1097 1.350 . S
C1100 C1099 1.434 . S
C1101 C1102 1.369 . S
C1101 C1103 1.419 . S
C1101 H1105 0.930 . S
C1102 C1101 1.369 . S
C1102 C1111 1.429 . S
C1103 C1101 1.419 . S
C1103 C1104 1.363 . S
C1103 H1106 0.929 . S
C1104 C1103 1.363 . S
C1104 C1110 1.428 . S
H1105 C1101 0.930 . S
H1106 C1103 0.929 . S
S1107 N1108 1.613 . S
S1107 N1109 1.610 . S
N1108 S1107 1.613 . S
N1108 C1111 1.350 . S
N1109 S1107 1.610 . S
N1109 C1110 1.351 . S
C1110 C1104 1.428 . S
C1110 N1109 1.351 . S
C1110 C1111 1.434 . S
C1111 C1102 1.429 . S
C1111 N1108 1.350 . S
C1111 C1110 1.434 . S
C1112 C1113 1.369 . S
C1112 C1114 1.419 . S
C1112 H1116 0.930 . S
C1113 C1112 1.369 . S
C1113 C1122 1.429 . S
C1114 C1112 1.419 . S
C1114 C1115 1.363 . S
C1114 H1117 0.929 . S
C1115 C1114 1.363 . S
C1115 C1121 1.428 . S
H1116 C1112 0.930 . S
H1117 C1114 0.929 . S
S1118 N1119 1.613 . S
S1118 N1120 1.610 . S
N1119 S1118 1.613 . S
N1119 C1122 1.350 . S
N1120 S1118 1.610 . S
N1120 C1121 1.351 . S
C1121 C1115 1.428 . S
C1121 N1120 1.351 . S
C1121 C1122 1.434 . S
C1122 C1113 1.429 . S
C1122 N1119 1.350 . S
C1122 C1121 1.434 . S
C1123 C1124 1.369 . S
C1123 C1125 1.419 . S
C1123 H1127 0.930 . S
C1124 C1123 1.369 . S
C1124 C1133 1.429 . S
C1125 C1123 1.419 . S
C1125 C1126 1.363 . S
C1125 H1128 0.929 . S
C1126 C1125 1.363 . S
C1126 C1132 1.428 . S
H1127 C1123 0.930 . S
H1128 C1125 0.929 . S
S1129 N1130 1.613 . S
S1129 N1131 1.610 . S
N1130 S1129 1.613 . S
N1130 C1133 1.350 . S
N1131 S1129 1.610 . S
N1131 C1132 1.351 . S
C1132 C1126 1.428 . S
C1132 N1131 1.351 . S
C1132 C1133 1.434 . S
C1133 C1124 1.429 . S
C1133 N1130 1.350 . S
C1133 C1132 1.434 . S
C1134 C1135 1.369 . S
C1134 C1136 1.419 . S
C1134 H1138 0.930 . S
C1135 C1134 1.369 . S
C1135 C1144 1.429 . S
C1136 C1134 1.419 . S
C1136 C1137 1.363 . S
C1136 H1139 0.929 . S
C1137 C1136 1.363 . S
C1137 C1143 1.428 . S
H1138 C1134 0.930 . S
H1139 C1136 0.929 . S
S1140 N1141 1.613 . S
S1140 N1142 1.610 . S
N1141 S1140 1.613 . S
N1141 C1144 1.350 . S
N1142 S1140 1.610 . S
N1142 C1143 1.351 . S
C1143 C1137 1.428 . S
C1143 N1142 1.351 . S
C1143 C1144 1.434 . S
C1144 C1135 1.429 . S
C1144 N1141 1.350 . S
C1144 C1143 1.434 . S
C1145 C1146 1.369 . S
C1145 C1147 1.419 . S
C1145 H1149 0.930 . S
C1146 C1145 1.369 . S
C1146 C1155 1.429 . S
C1147 C1145 1.419 . S
C1147 C1148 1.363 . S
C1147 H1150 0.929 . S
C1148 C1147 1.363 . S
C1148 C1154 1.428 . S
H1149 C1145 0.930 . S
H1150 C1147 0.929 . S
S1151 N1152 1.613 . S
S1151 N1153 1.610 . S
N1152 S1151 1.613 . S
N1152 C1155 1.350 . S
N1153 S1151 1.610 . S
N1153 C1154 1.351 . S
C1154 C1148 1.428 . S
C1154 N1153 1.351 . S
C1154 C1155 1.434 . S
C1155 C1146 1.429 . S
C1155 N1152 1.350 . S
C1155 C1154 1.434 . S
C1156 C1157 1.369 . S
C1156 C1158 1.419 . S
C1156 H1160 0.930 . S
C1157 C1156 1.369 . S
C1157 C1166 1.429 . S
C1158 C1156 1.419 . S
C1158 C1159 1.363 . S
C1158 H1161 0.929 . S
C1159 C1158 1.363 . S
C1159 C1165 1.428 . S
H1160 C1156 0.930 . S
H1161 C1158 0.929 . S
S1162 N1163 1.613 . S
S1162 N1164 1.610 . S
N1163 S1162 1.613 . S
N1163 C1166 1.350 . S
N1164 S1162 1.610 . S
N1164 C1165 1.351 . S
C1165 C1159 1.428 . S
C1165 N1164 1.351 . S
C1165 C1166 1.434 . S
C1166 C1157 1.429 . S
C1166 N1163 1.350 . S
C1166 C1165 1.434 . S
C1167 C1168 1.369 . S
C1167 C1169 1.419 . S
C1167 H1171 0.930 . S
C1168 C1167 1.369 . S
C1168 C1177 1.429 . S
C1169 C1167 1.419 . S
C1169 C1170 1.363 . S
C1169 H1172 0.929 . S
C1170 C1169 1.363 . S
C1170 C1176 1.428 . S
H1171 C1167 0.930 . S
H1172 C1169 0.929 . S
S1173 N1174 1.613 . S
S1173 N1175 1.610 . S
N1174 S1173 1.613 . S
N1174 C1177 1.350 . S
N1175 S1173 1.610 . S
N1175 C1176 1.351 . S
C1176 C1170 1.428 . S
C1176 N1175 1.351 . S
C1176 C1177 1.434 . S
C1177 C1168 1.429 . S
C1177 N1174 1.350 . S
C1177 C1176 1.434 . S
C1178 C1179 1.369 . S
C1178 C1180 1.419 . S
C1178 H1182 0.930 . S
C1179 C1178 1.369 . S
C1179 C1188 1.429 . S
C1180 C1178 1.419 . S
C1180 C1181 1.363 . S
C1180 H1183 0.929 . S
C1181 C1180 1.363 . S
C1181 C1187 1.428 . S
H1182 C1178 0.930 . S
H1183 C1180 0.929 . S
S1184 N1185 1.613 . S
S1184 N1186 1.610 1_554 S
N1185 S1184 1.613 . S
N1185 C1188 1.350 1_554 S
N1186 S1184 1.610 1_556 S
N1186 C1187 1.351 . S
C1187 C1181 1.428 . S
C1187 N1186 1.351 . S
C1187 C1188 1.434 . S
C1188 C1179 1.429 . S
C1188 N1185 1.350 1_556 S
C1188 C1187 1.434 . S
C1189 C1190 1.369 . S
C1189 C1191 1.419 . S
C1189 H1193 0.930 . S
C1190 C1189 1.369 . S
C1190 C1199 1.429 . S
C1191 C1189 1.419 . S
C1191 C1192 1.363 . S
C1191 H1194 0.929 . S
C1192 C1191 1.363 . S
C1192 C1198 1.428 . S
H1193 C1189 0.930 . S
H1194 C1191 0.929 . S
S1195 N1196 1.613 . S
S1195 N1197 1.610 . S
N1196 S1195 1.613 . S
N1196 C1199 1.350 . S
N1197 S1195 1.610 . S
N1197 C1198 1.351 . S
C1198 C1192 1.428 . S
C1198 N1197 1.351 . S
C1198 C1199 1.434 . S
C1199 C1190 1.429 . S
C1199 N1196 1.350 . S
C1199 C1198 1.434 . S
C1200 C1201 1.369 . S
C1200 C1202 1.419 . S
C1200 H1204 0.930 . S
C1201 C1200 1.369 . S
C1201 C1210 1.429 . S
C1202 C1200 1.419 . S
C1202 C1203 1.363 . S
C1202 H1205 0.929 . S
C1203 C1202 1.363 . S
C1203 C1209 1.428 . S
H1204 C1200 0.930 . S
H1205 C1202 0.929 . S
S1206 N1207 1.613 . S
S1206 N1208 1.610 . S
N1207 S1206 1.613 . S
N1207 C1210 1.350 . S
N1208 S1206 1.610 . S
N1208 C1209 1.351 . S
C1209 C1203 1.428 . S
C1209 N1208 1.351 . S
C1209 C1210 1.434 . S
C1210 C1201 1.429 . S
C1210 N1207 1.350 . S
C1210 C1209 1.434 . S
C1211 C1212 1.369 . S
C1211 C1213 1.419 . S
C1211 H1215 0.930 . S
C1212 C1211 1.369 . S
C1212 C1221 1.429 . S
C1213 C1211 1.419 . S
C1213 C1214 1.363 . S
C1213 H1216 0.929 . S
C1214 C1213 1.363 . S
C1214 C1220 1.428 . S
H1215 C1211 0.930 . S
H1216 C1213 0.929 . S
S1217 N1218 1.613 . S
S1217 N1219 1.610 . S
N1218 S1217 1.613 . S
N1218 C1221 1.350 . S
N1219 S1217 1.610 . S
N1219 C1220 1.351 . S
C1220 C1214 1.428 . S
C1220 N1219 1.351 . S
C1220 C1221 1.434 . S
C1221 C1212 1.429 . S
C1221 N1218 1.350 . S
C1221 C1220 1.434 . S
C1222 C1223 1.369 . S
C1222 C1224 1.419 . S
C1222 H1226 0.930 . S
C1223 C1222 1.369 . S
C1223 C1232 1.429 . S
C1224 C1222 1.419 . S
C1224 C1225 1.363 . S
C1224 H1227 0.929 . S
C1225 C1224 1.363 . S
C1225 C1231 1.428 . S
H1226 C1222 0.930 . S
H1227 C1224 0.929 . S
S1228 N1229 1.613 . S
S1228 N1230 1.610 . S
N1229 S1228 1.613 . S
N1229 C1232 1.350 . S
N1230 S1228 1.610 . S
N1230 C1231 1.351 . S
C1231 C1225 1.428 . S
C1231 N1230 1.351 . S
C1231 C1232 1.434 . S
C1232 C1223 1.429 . S
C1232 N1229 1.350 . S
C1232 C1231 1.434 . S
C1233 C1234 1.369 . S
C1233 C1235 1.419 . S
C1233 H1237 0.930 . S
C1234 C1233 1.369 . S
C1234 C1243 1.429 . S
C1235 C1233 1.419 . S
C1235 C1236 1.363 . S
C1235 H1238 0.929 . S
C1236 C1235 1.363 . S
C1236 C1242 1.428 . S
H1237 C1233 0.930 . S
H1238 C1235 0.929 . S
S1239 N1240 1.613 . S
S1239 N1241 1.610 . S
N1240 S1239 1.613 . S
N1240 C1243 1.350 . S
N1241 S1239 1.610 . S
N1241 C1242 1.351 . S
C1242 C1236 1.428 . S
C1242 N1241 1.351 . S
C1242 C1243 1.434 . S
C1243 C1234 1.429 . S
C1243 N1240 1.350 . S
C1243 C1242 1.434 . S
C1244 C1245 1.369 . S
C1244 C1246 1.419 . S
C1244 H1248 0.930 . S
C1245 C1244 1.369 . S
C1245 C1254 1.429 . S
C1246 C1244 1.419 . S
C1246 C1247 1.363 . S
C1246 H1249 0.929 . S
C1247 C1246 1.363 . S
C1247 C1253 1.428 . S
H1248 C1244 0.930 . S
H1249 C1246 0.929 . S
S1250 N1251 1.613 . S
S1250 N1252 1.610 . S
N1251 S1250 1.613 . S
N1251 C1254 1.350 . S
N1252 S1250 1.610 . S
N1252 C1253 1.351 . S
C1253 C1247 1.428 . S
C1253 N1252 1.351 . S
C1253 C1254 1.434 . S
C1254 C1245 1.429 . S
C1254 N1251 1.350 . S
C1254 C1253 1.434 . S
C1255 C1256 1.369 . S
C1255 C1257 1.419 . S
C1255 H1259 0.930 . S
C1256 C1255 1.369 . S
C1256 C1265 1.429 . S
C1257 C1255 1.419 . S
C1257 C1258 1.363 . S
C1257 H1260 0.929 . S
C1258 C1257 1.363 . S
C1258 C1264 1.428 . S
H1259 C1255 0.930 . S
H1260 C1257 0.929 . S
S1261 N1262 1.613 . S
S1261 N1263 1.610 . S
N1262 S1261 1.613 . S
N1262 C1265 1.350 . S
N1263 S1261 1.610 . S
N1263 C1264 1.351 . S
C1264 C1258 1.428 . S
C1264 N1263 1.351 . S
C1264 C1265 1.434 . S
C1265 C1256 1.429 . S
C1265 N1262 1.350 . S
C1265 C1264 1.434 . S
C1266 C1267 1.369 . S
C1266 C1268 1.419 . S
C1266 H1270 0.930 . S
C1267 C1266 1.369 . S
C1267 C1276 1.429 . S
C1268 C1266 1.419 . S
C1268 C1269 1.363 . S
C1268 H1271 0.929 . S
C1269 C1268 1.363 . S
C1269 C1275 1.428 . S
H1270 C1266 0.930 . S
H1271 C1268 0.929 . S
S1272 N1273 1.613 . S
S1272 N1274 1.610 . S
N1273 S1272 1.613 . S
N1273 C1276 1.350 . S
N1274 S1272 1.610 . S
N1274 C1275 1.351 . S
C1275 C1269 1.428 . S
C1275 N1274 1.351 . S
C1275 C1276 1.434 . S
C1276 C1267 1.429 . S
C1276 N1273 1.350 . S
C1276 C1275 1.434 . S
C1277 C1278 1.369 . S
C1277 C1279 1.419 . S
C1277 H1281 0.930 . S
C1278 C1277 1.369 . S
C1278 C1287 1.429 . S
C1279 C1277 1.419 . S
C1279 C1280 1.363 . S
C1279 H1282 0.929 . S
C1280 C1279 1.363 . S
C1280 C1286 1.428 . S
H1281 C1277 0.930 . S
H1282 C1279 0.929 . S
S1283 N1284 1.613 . S
S1283 N1285 1.610 . S
N1284 S1283 1.613 . S
N1284 C1287 1.350 . S
N1285 S1283 1.610 . S
N1285 C1286 1.351 . S
C1286 C1280 1.428 . S
C1286 N1285 1.351 . S
C1286 C1287 1.434 . S
C1287 C1278 1.429 . S
C1287 N1284 1.350 . S
C1287 C1286 1.434 . S
C1288 C1289 1.369 . S
C1288 C1290 1.419 . S
C1288 H1292 0.930 . S
C1289 C1288 1.369 . S
C1289 C1298 1.429 . S
C1290 C1288 1.419 . S
C1290 C1291 1.363 . S
C1290 H1293 0.929 . S
C1291 C1290 1.363 . S
C1291 C1297 1.428 . S
H1292 C1288 0.930 . S
H1293 C1290 0.929 . S
S1294 N1295 1.613 . S
S1294 N1296 1.610 . S
N1295 S1294 1.613 . S
N1295 C1298 1.350 . S
N1296 S1294 1.610 . S
N1296 C1297 1.351 . S
C1297 C1291 1.428 . S
C1297 N1296 1.351 . S
C1297 C1298 1.434 . S
C1298 C1289 1.429 . S
C1298 N1295 1.350 . S
C1298 C1297 1.434 . S
C1299 C1300 1.369 . S
C1299 C1301 1.419 . S
C1299 H1303 0.930 . S
C1300 C1299 1.369 . S
C1300 C1309 1.429 . S
C1301 C1299 1.419 . S
C1301 C1302 1.363 . S
C1301 H1304 0.929 . S
C1302 C1301 1.363 . S
C1302 C1308 1.428 . S
H1303 C1299 0.930 . S
H1304 C1301 0.929 . S
S1305 N1306 1.613 . S
S1305 N1307 1.610 . S
N1306 S1305 1.613 . S
N1306 C1309 1.350 . S
N1307 S1305 1.610 . S
N1307 C1308 1.351 . S
C1308 C1302 1.428 . S
C1308 N1307 1.351 . S
C1308 C1309 1.434 . S
C1309 C1300 1.429 . S
C1309 N1306 1.350 . S
C1309 C1308 1.434 . S
C1310 C1311 1.369 . S
C1310 C1312 1.419 . S
C1310 H1314 0.930 . S
C1311 C1310 1.369 . S
C1311 C1320 1.429 . S
C1312 C1310 1.419 . S
C1312 C1313 1.363 . S
C1312 H1315 0.929 . S
C1313 C1312 1.363 . S
C1313 C1319 1.428 . S
H1314 C1310 0.930 . S
H1315 C1312 0.929 . S
S1316 N1317 1.613 . S
S1316 N1318 1.610 1_545 S
N1317 S1316 1.613 . S
N1317 C1320 1.350 1_545 S
N1318 S1316 1.610 1_565 S
N1318 C1319 1.351 . S
C1319 C1313 1.428 . S
C1319 N1318 1.351 . S
C1319 C1320 1.434 . S
C1320 C1311 1.429 . S
C1320 N1317 1.350 1_565 S
C1320 C1319 1.434 . S
C1321 C1322 1.369 . S
C1321 C1323 1.419 . S
C1321 H1325 0.930 . S
C1322 C1321 1.369 . S
C1322 C1331 1.429 . S
C1323 C1321 1.419 . S
C1323 C1324 1.363 . S
C1323 H1326 0.929 . S
C1324 C1323 1.363 . S
C1324 C1330 1.428 . S
H1325 C1321 0.930 . S
H1326 C1323 0.929 . S
S1327 N1328 1.613 . S
S1327 N1329 1.610 . S
N1328 S1327 1.613 . S
N1328 C1331 1.350 . S
N1329 S1327 1.610 . S
N1329 C1330 1.351 . S
C1330 C1324 1.428 . S
C1330 N1329 1.351 . S
C1330 C1331 1.434 . S
C1331 C1322 1.429 . S
C1331 N1328 1.350 . S
C1331 C1330 1.434 . S
C1332 C1333 1.369 . S
C1332 C1334 1.419 . S
C1332 H1336 0.930 . S
C1333 C1332 1.369 . S
C1333 C1342 1.429 . S
C1334 C1332 1.419 . S
C1334 C1335 1.363 . S
C1334 H1337 0.929 . S
C1335 C1334 1.363 . S
C1335 C1341 1.428 . S
H1336 C1332 0.930 . S
H1337 C1334 0.929 . S
S1338 N1339 1.613 . S
S1338 N1340 1.610 . S
N1339 S1338 1.613 . S
N1339 C1342 1.350 . S
N1340 S1338 1.610 . S
N1340 C1341 1.351 . S
C1341 C1335 1.428 . S
C1341 N1340 1.351 . S
C1341 C1342 1.434 . S
C1342 C1333 1.429 . S
C1342 N1339 1.350 . S
C1342 C1341 1.434 . S
C1343 C1344 1.369 . S
C1343 C1345 1.419 . S
C1343 H1347 0.930 . S
C1344 C1343 1.369 . S
C1344 C1353 1.429 . S
C1345 C1343 1.419 . S
C1345 C1346 1.363 . S
C1345 H1348 0.929 . S
C1346 C1345 1.363 . S
C1346 C1352 1.428 . S
H1347 C1343 0.930 . S
H1348 C1345 0.929 . S
S1349 N1350 1.613 . S
S1349 N1351 1.610 . S
N1350 S1349 1.613 . S
N1350 C1353 1.350 . S
N1351 S1349 1.610 . S
N1351 C1352 1.351 . S
C1352 C1346 1.428 . S
C1352 N1351 1.351 . S
C1352 C1353 1.434 . S
C1353 C1344 1.429 . S
C1353 N1350 1.350 . S
C1353 C1352 1.434 . S
C1354 C1355 1.369 . S
C1354 C1356 1.419 . S
C1354 H1358 0.930 . S
C1355 C1354 1.369 . S
C1355 C1364 1.429 . S
C1356 C1354 1.419 . S
C1356 C1357 1.363 . S
C1356 H1359 0.929 . S
C1357 C1356 1.363 . S
C1357 C1363 1.428 . S
H1358 C1354 0.930 . S
H1359 C1356 0.929 . S
S1360 N1361 1.613 . S
S1360 N1362 1.610 . S
N1361 S1360 1.613 . S
N1361 C1364 1.350 . S
N1362 S1360 1.610 . S
N1362 C1363 1.351 . S
C1363 C1357 1.428 . S
C1363 N1362 1.351 . S
C1363 C1364 1.434 . S
C1364 C1355 1.429 . S
C1364 N1361 1.350 . S
C1364 C1363 1.434 . S
C1365 C1366 1.369 . S
C1365 C1367 1.419 . S
C1365 H1369 0.930 . S
C1366 C1365 1.369 . S
C1366 C1375 1.429 . S
C1367 C1365 1.419 . S
C1367 C1368 1.363 . S
C1367 H1370 0.929 . S
C1368 C1367 1.363 . S
C1368 C1374 1.428 . S
H1369 C1365 0.930 . S
H1370 C1367 0.929 . S
S1371 N1372 1.613 . S
S1371 N1373 1.610 . S
N1372 S1371 1.613 . S
N1372 C1375 1.350 . S
N1373 S1371 1.610 . S
N1373 C1374 1.351 . S
C1374 C1368 1.428 . S
C1374 N1373 1.351 . S
C1374 C1375 1.434 . S
C1375 C1366 1.429 . S
C1375 N1372 1.350 . S
C1375 C1374 1.434 . S
C1376 C1377 1.369 . S
C1376 C1378 1.419 . S
C1376 H1380 0.930 . S
C1377 C1376 1.369 . S
C1377 C1386 1.429 . S
C1378 C1376 1.419 . S
C1378 C1379 1.363 . S
C1378 H1381 0.929 . S
C1379 C1378 1.363 . S
C1379 C1385 1.428 . S
H1380 C1376 0.930 . S
H1381 C1378 0.929 . S
S1382 N1383 1.613 1_554 S
S1382 N1384 1.610 . S
N1383 S1382 1.613 1_556 S
N1383 C1386 1.350 . S
N1384 S1382 1.610 . S
N1384 C1385 1.351 1_554 S
C1385 C1379 1.428 . S
C1385 N1384 1.351 1_556 S
C1385 C1386 1.434 . S
C1386 C1377 1.429 . S
C1386 N1383 1.350 . S
C1386 C1385 1.434 . S
C1387 C1388 1.369 . S
C1387 C1389 1.419 . S
C1387 H1391 0.930 . S
C1388 C1387 1.369 . S
C1388 C1397 1.429 . S
C1389 C1387 1.419 . S
C1389 C1390 1.363 . S
C1389 H1392 0.929 . S
C1390 C1389 1.363 . S
C1390 C1396 1.428 . S
H1391 C1387 0.930 . S
H1392 C1389 0.929 . S
S1393 N1394 1.613 . S
S1393 N1395 1.610 . S
N1394 S1393 1.613 . S
N1394 C1397 1.350 . S
N1395 S1393 1.610 . S
N1395 C1396 1.351 . S
C1396 C1390 1.428 . S
C1396 N1395 1.351 . S
C1396 C1397 1.434 . S
C1397 C1388 1.429 . S
C1397 N1394 1.350 . S
C1397 C1396 1.434 . S
C1398 C1399 1.369 . S
C1398 C1400 1.419 . S
C1398 H1402 0.930 . S
C1399 C1398 1.369 . S
C1399 C1408 1.429 . S
C1400 C1398 1.419 . S
C1400 C1401 1.363 . S
C1400 H1403 0.929 . S
C1401 C1400 1.363 . S
C1401 C1407 1.428 . S
H1402 C1398 0.930 . S
H1403 C1400 0.929 . S
S1404 N1405 1.613 . S
S1404 N1406 1.610 . S
N1405 S1404 1.613 . S
N1405 C1408 1.350 . S
N1406 S1404 1.610 . S
N1406 C1407 1.351 . S
C1407 C1401 1.428 . S
C1407 N1406 1.351 . S
C1407 C1408 1.434 . S
C1408 C1399 1.429 . S
C1408 N1405 1.350 . S
C1408 C1407 1.434 . S
C1409 C1410 1.369 . S
C1409 C1411 1.419 . S
C1409 H1413 0.930 . S
C1410 C1409 1.369 . S
C1410 C1419 1.429 . S
C1411 C1409 1.419 . S
C1411 C1412 1.363 . S
C1411 H1414 0.929 . S
C1412 C1411 1.363 . S
C1412 C1418 1.428 . S
H1413 C1409 0.930 . S
H1414 C1411 0.929 . S
S1415 N1416 1.613 . S
S1415 N1417 1.610 . S
N1416 S1415 1.613 . S
N1416 C1419 1.350 . S
N1417 S1415 1.610 . S
N1417 C1418 1.351 . S
C1418 C1412 1.428 . S
C1418 N1417 1.351 . S
C1418 C1419 1.434 . S
C1419 C1410 1.429 . S
C1419 N1416 1.350 . S
C1419 C1418 1.434 . S
C1420 C1421 1.369 . S
C1420 C1422 1.419 . S
C1420 H1424 0.930 . S
C1421 C1420 1.369 . S
C1421 C1430 1.429 . S
C1422 C1420 1.419 . S
C1422 C1423 1.363 . S
C1422 H1425 0.929 . S
C1423 C1422 1.363 . S
C1423 C1429 1.428 . S
H1424 C1420 0.930 . S
H1425 C1422 0.929 . S
S1426 N1427 1.613 . S
S1426 N1428 1.610 . S
N1427 S1426 1.613 . S
N1427 C1430 1.350 . S
N1428 S1426 1.610 . S
N1428 C1429 1.351 . S
C1429 C1423 1.428 . S
C1429 N1428 1.351 . S
C1429 C1430 1.434 . S
C1430 C1421 1.429 . S
C1430 N1427 1.350 . S
C1430 C1429 1.434 . S
C1431 C1432 1.369 . S
C1431 C1433 1.419 . S
C1431 H1435 0.930 . S
C1432 C1431 1.369 . S
C1432 C1441 1.429 . S
C1433 C1431 1.419 . S
C1433 C1434 1.363 . S
C1433 H1436 0.929 . S
C1434 C1433 1.363 . S
C1434 C1440 1.428 . S
H1435 C1431 0.930 . S
H1436 C1433 0.929 . S
S1437 N1438 1.613 . S
S1437 N1439 1.610 . S
N1438 S1437 1.613 . S
N1438 C1441 1.350 . S
N1439 S1437 1.610 . S
N1439 C1440 1.351 . S
C1440 C1434 1.428 . S
C1440 N1439 1.351 . S
C1440 C1441 1.434 . S
C1441 C1432 1.429 . S
C1441 N1438 1.350 . S
C1441 C1440 1.434 . S
C1442 C1443 1.369 . S
C1442 C1444 1.419 . S
C1442 H1446 0.930 . S
C1443 C1442 1.369 . S
C1443 C1452 1.429 . S
C1444 C1442 1.419 . S
C1444 C1445 1.363 . S
C1444 H1447 0.929 . S
C1445 C1444 1.363 . S
C1445 C1451 1.428 . S
H1446 C1442 0.930 . S
H1447 C1444 0.929 . S
S1448 N1449 1.613 . S
S1448 N1450 1.610 . S
N1449 S1448 1.613 . S
N1449 C1452 1.350 . S
N1450 S1448 1.610 . S
N1450 C1451 1.351 . S
C1451 C1445 1.428 . S
C1451 N1450 1.351 . S
C1451 C1452 1.434 . S
C1452 C1443 1.429 . S
C1452 N1449 1.350 . S
C1452 C1451 1.434 . S
C1453 C1454 1.369 . S
C1453 C1455 1.419 . S
C1453 H1457 0.930 . S
C1454 C1453 1.369 . S
C1454 C1463 1.429 . S
C1455 C1453 1.419 . S
C1455 C1456 1.363 . S
C1455 H1458 0.929 . S
C1456 C1455 1.363 . S
C1456 C1462 1.428 . S
H1457 C1453 0.930 . S
H1458 C1455 0.929 . S
S1459 N1460 1.613 . S
S1459 N1461 1.610 . S
N1460 S1459 1.613 . S
N1460 C1463 1.350 . S
N1461 S1459 1.610 . S
N1461 C1462 1.351 . S
C1462 C1456 1.428 . S
C1462 N1461 1.351 . S
C1462 C1463 1.434 . S
C1463 C1454 1.429 . S
C1463 N1460 1.350 . S
C1463 C1462 1.434 . S
C1464 C1465 1.369 . S
C1464 C1466 1.419 . S
C1464 H1468 0.930 . S
C1465 C1464 1.369 . S
C1465 C1474 1.429 1_455 S
C1466 C1464 1.419 . S
C1466 C1467 1.363 1_455 S
C1466 H1469 0.929 . S
C1467 C1466 1.363 1_655 S
C1467 C1473 1.428 . S
H1468 C1464 0.930 . S
H1469 C1466 0.929 . S
S1470 N1471 1.613 . S
S1470 N1472 1.610 . S
N1471 S1470 1.613 . S
N1471 C1474 1.350 . S
N1472 S1470 1.610 . S
N1472 C1473 1.351 . S
C1473 C1467 1.428 . S
C1473 N1472 1.351 . S
C1473 C1474 1.434 . S
C1474 C1465 1.429 1_655 S
C1474 N1471 1.350 . S
C1474 C1473 1.434 . S
C1475 C1476 1.369 . S
C1475 C1477 1.419 . S
C1475 H1479 0.930 . S
C1476 C1475 1.369 . S
C1476 C1485 1.429 . S
C1477 C1475 1.419 . S
C1477 C1478 1.363 . S
C1477 H1480 0.929 . S
C1478 C1477 1.363 . S
C1478 C1484 1.428 . S
H1479 C1475 0.930 . S
H1480 C1477 0.929 . S
S1481 N1482 1.613 . S
S1481 N1483 1.610 . S
N1482 S1481 1.613 . S
N1482 C1485 1.350 . S
N1483 S1481 1.610 . S
N1483 C1484 1.351 . S
C1484 C1478 1.428 . S
C1484 N1483 1.351 . S
C1484 C1485 1.434 . S
C1485 C1476 1.429 . S
C1485 N1482 1.350 . S
C1485 C1484 1.434 . S
C1486 C1487 1.369 . S
C1486 C1488 1.419 . S
C1486 H1490 0.930 . S
C1487 C1486 1.369 . S
C1487 C1496 1.429 . S
C1488 C1486 1.419 . S
C1488 C1489 1.363 . S
C1488 H1491 0.929 . S
C1489 C1488 1.363 . S
C1489 C1495 1.428 . S
H1490 C1486 0.930 . S
H1491 C1488 0.929 . S
S1492 N1493 1.613 . S
S1492 N1494 1.610 . S
N1493 S1492 1.613 . S
N1493 C1496 1.350 . S
N1494 S1492 1.610 . S
N1494 C1495 1.351 . S
C1495 C1489 1.428 . S
C1495 N1494 1.351 . S
C1495 C1496 1.434 . S
C1496 C1487 1.429 . S
C1496 N1493 1.350 . S
C1496 C1495 1.434 . S
C1497 C1498 1.369 . S
C1497 C1499 1.419 1_554 S
C1497 H1501 0.930 . S
C1498 C1497 1.369 . S
C1498 C1507 1.429 1_554 S
C1499 C1497 1.419 1_556 S
C1499 C1500 1.363 . S
C1499 H1502 0.929 . S
C1500 C1499 1.363 . S
C1500 C1506 1.428 . S
H1501 C1497 0.930 . S
H1502 C1499 0.929 . S
S1503 N1504 1.613 . S
S1503 N1505 1.610 . S
N1504 S1503 1.613 . S
N1504 C1507 1.350 . S
N1505 S1503 1.610 . S
N1505 C1506 1.351 . S
C1506 C1500 1.428 . S
C1506 N1505 1.351 . S
C1506 C1507 1.434 . S
C1507 C1498 1.429 1_556 S
C1507 N1504 1.350 . S
C1507 C1506 1.434 . S
C1508 C1509 1.369 . S
C1508 C1510 1.419 . S
C1508 H1512 0.930 . S
C1509 C1508 1.369 . S
C1509 C1518 1.429 . S
C1510 C1508 1.419 . S
C1510 C1511 1.363 1_655 S
C1510 H1513 0.929 . S
C1511 C1510 1.363 1_455 S
C1511 C1517 1.428 . S
H1512 C1508 0.930 . S
H1513 C1510 0.929 . S
S1514 N1515 1.613 1_455 S
S1514 N1516 1.610 . S
N1515 S1514 1.613 1_655 S
N1515 C1518 1.350 . S
N1516 S1514 1.610 . S
N1516 C1517 1.351 . S
C1517 C1511 1.428 . S
C1517 N1516 1.351 . S
C1517 C1518 1.434 1_455 S
C1518 C1509 1.429 . S
C1518 N1515 1.350 . S
C1518 C1517 1.434 1_655 S
C1519 C1520 1.369 . S
C1519 C1521 1.419 . S
C1519 H1523 0.930 . S
C1520 C1519 1.369 . S
C1520 C1529 1.429 . S
C1521 C1519 1.419 . S
C1521 C1522 1.363 . S
C1521 H1524 0.929 . S
C1522 C1521 1.363 . S
C1522 C1528 1.428 . S
H1523 C1519 0.930 . S
H1524 C1521 0.929 . S
S1525 N1526 1.613 . S
S1525 N1527 1.610 . S
N1526 S1525 1.613 . S
N1526 C1529 1.350 . S
N1527 S1525 1.610 . S
N1527 C1528 1.351 . S
C1528 C1522 1.428 . S
C1528 N1527 1.351 . S
C1528 C1529 1.434 . S
C1529 C1520 1.429 . S
C1529 N1526 1.350 . S
C1529 C1528 1.434 . S
C1530 C1531 1.369 . S
C1530 C1532 1.419 . S
C1530 H1534 0.930 . S
C1531 C1530 1.369 . S
C1531 C1540 1.429 . S
C1532 C1530 1.419 . S
C1532 C1533 1.363 . S
C1532 H1535 0.929 . S
C1533 C1532 1.363 . S
C1533 C1539 1.428 . S
H1534 C1530 0.930 . S
H1535 C1532 0.929 . S
S1536 N1537 1.613 . S
S1536 N1538 1.610 . S
N1537 S1536 1.613 . S
N1537 C1540 1.350 . S
N1538 S1536 1.610 . S
N1538 C1539 1.351 . S
C1539 C1533 1.428 . S
C1539 N1538 1.351 . S
C1539 C1540 1.434 . S
C1540 C1531 1.429 . S
C1540 N1537 1.350 . S
C1540 C1539 1.434 . S
C1541 C1542 1.369 . S
C1541 C1543 1.419 . S
C1541 H1545 0.930 . S
C1542 C1541 1.369 . S
C1542 C1551 1.429 . S
C1543 C1541 1.419 . S
C1543 C1544 1.363 . S
C1543 H1546 0.929 . S
C1544 C1543 1.363 . S
C1544 C1550 1.428 . S
H1545 C1541 0.930 . S
H1546 C1543 0.929 . S
S1547 N1548 1.613 . S
S1547 N1549 1.610 . S
N1548 S1547 1.613 . S
N1548 C1551 1.350 . S
N1549 S1547 1.610 . S
N1549 C1550 1.351 . S
C1550 C1544 1.428 . S
C1550 N1549 1.351 . S
C1550 C1551 1.434 . S
C1551 C1542 1.429 . S
C1551 N1548 1.350 . S
C1551 C1550 1.434 . S
C1552 C1553 1.369 . S
C1552 C1554 1.419 1_565 S
C1552 H1556 0.930 . S
C1553 C1552 1.369 . S
C1553 C1562 1.429 . S
C1554 C1552 1.419 1_545 S
C1554 C1555 1.363 . S
C1554 H1557 0.929 . S
C1555 C1554 1.363 . S
C1555 C1561 1.428 . S
H1556 C1552 0.930 . S
H1557 C1554 0.929 . S
S1558 N1559 1.613 . S
S1558 N1560 1.610 1_565 S
N1559 S1558 1.613 . S
N1559 C1562 1.350 . S
N1560 S1558 1.610 1_545 S
N1560 C1561 1.351 . S
C1561 C1555 1.428 . S
C1561 N1560 1.351 . S
C1561 C1562 1.434 1_545 S
C1562 C1553 1.429 . S
C1562 N1559 1.350 . S
C1562 C1561 1.434 1_565 S
C1563 C1564 1.369 . S
C1563 C1565 1.419 . S
C1563 H1567 0.930 . S
C1564 C1563 1.369 . S
C1564 C1573 1.474 . S
C1565 C1563 1.419 . S
C1565 C1566 1.363 1_565 S
C1565 H1568 0.929 . S
C1566 C1565 1.363 1_545 S
C1566 C1572 1.428 . S
H1567 C1563 0.930 . S
H1568 C1565 0.929 . S
S1569 N1570 1.613 . S
S1569 N1571 1.610 . S
N1570 S1569 1.613 . S
N1570 C1573 1.338 1_545 S
N1571 S1569 1.610 . S
N1571 C1572 1.351 . S
C1572 C1566 1.428 . S
C1572 N1571 1.351 . S
C1572 C1573 1.398 1_545 S
C1573 C1564 1.474 . S
C1573 N1570 1.338 1_565 S
C1573 C1572 1.398 1_565 S
C1574 C1575 1.369 . S
C1574 C1576 1.419 . S
C1574 H1578 0.930 . S
C1575 C1574 1.369 . S
C1575 C1584 1.429 . S
C1576 C1574 1.419 . S
C1576 C1577 1.363 . S
C1576 H1579 0.929 . S
C1577 C1576 1.363 . S
C1577 C1583 1.428 . S
H1578 C1574 0.930 . S
H1579 C1576 0.929 . S
S1580 N1581 1.613 . S
S1580 N1582 1.610 . S
N1581 S1580 1.613 . S
N1581 C1584 1.350 . S
N1582 S1580 1.610 . S
N1582 C1583 1.351 . S
C1583 C1577 1.428 . S
C1583 N1582 1.351 . S
C1583 C1584 1.434 . S
C1584 C1575 1.429 . S
C1584 N1581 1.350 . S
C1584 C1583 1.434 . S
C1585 C1586 1.369 . S
C1585 C1587 1.419 . S
C1585 H1589 0.930 . S
C1586 C1585 1.369 . S
C1586 C1595 1.429 . S
C1587 C1585 1.419 . S
C1587 C1588 1.363 . S
C1587 H1590 0.929 . S
C1588 C1587 1.363 . S
C1588 C1594 1.428 . S
H1589 C1585 0.930 . S
H1590 C1587 0.929 . S
S1591 N1592 1.613 . S
S1591 N1593 1.610 . S
N1592 S1591 1.613 . S
N1592 C1595 1.350 . S
N1593 S1591 1.610 . S
N1593 C1594 1.351 . S
C1594 C1588 1.428 . S
C1594 N1593 1.351 . S
C1594 C1595 1.434 . S
C1595 C1586 1.429 . S
C1595 N1592 1.350 . S
C1595 C1594 1.434 . S
C1596 C1597 1.361 1_556 S
C1596 C1598 1.425 . S
C1596 H1600 0.932 . S
C1597 C1596 1.361 1_554 S
C1597 C1606 1.429 . S
C1598 C1596 1.425 . S
C1598 C1599 1.363 . S
C1598 H1601 0.929 . S
C1599 C1598 1.363 . S
C1599 C1605 1.428 1_556 S
H1600 C1596 0.932 . S
H1601 C1598 0.929 . S
S1602 N1603 1.613 . S
S1602 N1604 1.610 . S
N1603 S1602 1.613 . S
N1603 C1606 1.350 . S
N1604 S1602 1.610 . S
N1604 C1605 1.351 . S
C1605 C1599 1.428 1_554 S
C1605 N1604 1.351 . S
C1605 C1606 1.434 . S
C1606 C1597 1.429 . S
C1606 N1603 1.350 . S
C1606 C1605 1.434 . S
C1607 C1608 1.369 . S
C1607 C1609 1.419 . S
C1607 H1611 0.930 . S
C1608 C1607 1.369 . S
C1608 C1617 1.429 . S
C1609 C1607 1.419 . S
C1609 C1610 1.363 . S
C1609 H1612 0.929 . S
C1610 C1609 1.363 . S
C1610 C1616 1.428 . S
H1611 C1607 0.930 . S
H1612 C1609 0.929 . S
S1613 N1614 1.613 . S
S1613 N1615 1.610 . S
N1614 S1613 1.613 . S
N1614 C1617 1.350 . S
N1615 S1613 1.610 . S
N1615 C1616 1.351 . S
C1616 C1610 1.428 . S
C1616 N1615 1.351 . S
C1616 C1617 1.434 . S
C1617 C1608 1.429 . S
C1617 N1614 1.350 . S
C1617 C1616 1.434 . S
C1618 C1619 1.369 . S
C1618 C1620 1.419 . S
C1618 H1622 0.930 . S
C1619 C1618 1.369 . S
C1619 C1628 1.429 . S
C1620 C1618 1.419 . S
C1620 C1621 1.363 . S
C1620 H1623 0.929 . S
C1621 C1620 1.363 . S
C1621 C1627 1.428 . S
H1622 C1618 0.930 . S
H1623 C1620 0.929 . S
S1624 N1625 1.613 . S
S1624 N1626 1.610 . S
N1625 S1624 1.613 . S
N1625 C1628 1.350 . S
N1626 S1624 1.610 . S
N1626 C1627 1.351 . S
C1627 C1621 1.428 . S
C1627 N1626 1.351 . S
C1627 C1628 1.434 . S
C1628 C1619 1.429 . S
C1628 N1625 1.350 . S
C1628 C1627 1.434 . S
C1629 C1630 1.369 . S
C1629 C1631 1.419 . S
C1629 H1633 0.930 . S
C1630 C1629 1.369 . S
C1630 C1639 1.429 . S
C1631 C1629 1.419 . S
C1631 C1632 1.363 . S
C1631 H1634 0.929 . S
C1632 C1631 1.363 . S
C1632 C1638 1.428 . S
H1633 C1629 0.930 . S
H1634 C1631 0.929 . S
S1635 N1636 1.613 . S
S1635 N1637 1.610 . S
N1636 S1635 1.613 . S
N1636 C1639 1.350 . S
N1637 S1635 1.610 . S
N1637 C1638 1.351 . S
C1638 C1632 1.428 . S
C1638 N1637 1.351 . S
C1638 C1639 1.434 . S
C1639 C1630 1.429 . S
C1639 N1636 1.350 . S
C1639 C1638 1.434 . S
C1640 C1641 1.369 . S
C1640 C1642 1.419 . S
C1640 H1644 0.930 . S
C1641 C1640 1.369 . S
C1641 C1650 1.429 . S
C1642 C1640 1.419 . S
C1642 C1643 1.363 . S
C1642 H1645 0.929 . S
C1643 C1642 1.363 . S
C1643 C1649 1.428 . S
H1644 C1640 0.930 . S
H1645 C1642 0.929 . S
S1646 N1647 1.613 . S
S1646 N1648 1.610 . S
N1647 S1646 1.613 . S
N1647 C1650 1.350 . S
N1648 S1646 1.610 . S
N1648 C1649 1.351 . S
C1649 C1643 1.428 . S
C1649 N1648 1.351 . S
C1649 C1650 1.434 . S
C1650 C1641 1.429 . S
C1650 N1647 1.350 . S
C1650 C1649 1.434 . S
C1651 C1652 1.369 . S
C1651 C1653 1.419 . S
C1651 H1655 0.930 . S
C1652 C1651 1.369 . S
C1652 C1661 1.429 . S
C1653 C1651 1.419 . S
C1653 C1654 1.363 . S
C1653 H1656 0.929 . S
C1654 C1653 1.363 . S
C1654 C1660 1.428 . S
H1655 C1651 0.930 . S
H1656 C1653 0.929 . S
S1657 N1658 1.613 . S
S1657 N1659 1.610 . S
N1658 S1657 1.613 . S
N1658 C1661 1.350 . S
N1659 S1657 1.610 . S
N1659 C1660 1.351 . S
C1660 C1654 1.428 . S
C1660 N1659 1.351 . S
C1660 C1661 1.434 . S
C1661 C1652 1.429 . S
C1661 N1658 1.350 . S
C1661 C1660 1.434 . S
C1662 C1663 1.369 . S
C1662 C1664 1.419 . S
C1662 H1666 0.930 . S
C1663 C1662 1.369 . S
C1663 C1672 1.429 . S
C1664 C1662 1.419 . S
C1664 C1665 1.363 . S
C1664 H1667 0.929 . S
C1665 C1664 1.363 . S
C1665 C1671 1.428 . S
H1666 C1662 0.930 . S
H1667 C1664 0.929 . S
S1668 N1669 1.613 . S
S1668 N1670 1.610 . S
N1669 S1668 1.613 . S
N1669 C1672 1.350 . S
N1670 S1668 1.610 . S
N1670 C1671 1.351 . S
C1671 C1665 1.428 . S
C1671 N1670 1.351 . S
C1671 C1672 1.434 . S
C1672 C1663 1.429 . S
C1672 N1669 1.350 . S
C1672 C1671 1.434 . S
C1673 C1674 1.369 . S
C1673 C1675 1.419 . S
C1673 H1677 0.930 . S
C1674 C1673 1.369 . S
C1674 C1683 1.429 . S
C1675 C1673 1.419 . S
C1675 C1676 1.363 . S
C1675 H1678 0.929 . S
C1676 C1675 1.363 . S
C1676 C1682 1.428 . S
H1677 C1673 0.930 . S
H1678 C1675 0.929 . S
S1679 N1680 1.613 . S
S1679 N1681 1.610 . S
N1680 S1679 1.613 . S
N1680 C1683 1.350 . S
N1681 S1679 1.610 . S
N1681 C1682 1.351 . S
C1682 C1676 1.428 . S
C1682 N1681 1.351 . S
C1682 C1683 1.434 . S
C1683 C1674 1.429 . S
C1683 N1680 1.350 . S
C1683 C1682 1.434 . S
C1684 C1685 1.369 . S
C1684 C1686 1.419 . S
C1684 H1688 0.930 . S
C1685 C1684 1.369 . S
C1685 C1694 1.429 . S
C1686 C1684 1.419 . S
C1686 C1687 1.363 . S
C1686 H1689 0.929 . S
C1687 C1686 1.363 . S
C1687 C1693 1.428 . S
H1688 C1684 0.930 . S
H1689 C1686 0.929 . S
S1690 N1691 1.613 . S
S1690 N1692 1.610 . S
N1691 S1690 1.613 . S
N1691 C1694 1.350 . S
N1692 S1690 1.610 . S
N1692 C1693 1.351 . S
C1693 C1687 1.428 . S
C1693 N1692 1.351 . S
C1693 C1694 1.434 . S
C1694 C1685 1.429 . S
C1694 N1691 1.350 . S
C1694 C1693 1.434 . S
C1695 C1696 1.369 . S
C1695 C1697 1.419 . S
C1695 H1699 0.930 . S
C1696 C1695 1.369 . S
C1696 C1705 1.429 . S
C1697 C1695 1.419 . S
C1697 C1698 1.363 . S
C1697 H1700 0.929 . S
C1698 C1697 1.363 . S
C1698 C1704 1.428 . S
H1699 C1695 0.930 . S
H1700 C1697 0.929 . S
S1701 N1702 1.613 . S
S1701 N1703 1.610 . S
N1702 S1701 1.613 . S
N1702 C1705 1.350 . S
N1703 S1701 1.610 . S
N1703 C1704 1.351 . S
C1704 C1698 1.428 . S
C1704 N1703 1.351 . S
C1704 C1705 1.434 . S
C1705 C1696 1.429 . S
C1705 N1702 1.350 . S
C1705 C1704 1.434 . S
C1706 C1707 1.369 . S
C1706 C1708 1.419 . S
C1706 H1710 0.930 . S
C1707 C1706 1.369 . S
C1707 C1716 1.429 . S
C1708 C1706 1.419 . S
C1708 C1709 1.363 . S
C1708 H1711 0.929 . S
C1709 C1708 1.363 . S
C1709 C1715 1.428 . S
H1710 C1706 0.930 . S
H1711 C1708 0.929 . S
S1712 N1713 1.613 . S
S1712 N1714 1.610 . S
N1713 S1712 1.613 . S
N1713 C1716 1.350 . S
N1714 S1712 1.610 . S
N1714 C1715 1.351 . S
C1715 C1709 1.428 . S
C1715 N1714 1.351 . S
C1715 C1716 1.434 . S
C1716 C1707 1.429 . S
C1716 N1713 1.350 . S
C1716 C1715 1.434 . S
C1717 C1718 1.369 . S
C1717 C1719 1.419 . S
C1717 H1721 0.930 . S
C1718 C1717 1.369 . S
C1718 C1727 1.429 . S
C1719 C1717 1.419 . S
C1719 C1720 1.363 . S
C1719 H1722 0.929 . S
C1720 C1719 1.363 . S
C1720 C1726 1.428 . S
H1721 C1717 0.930 . S
H1722 C1719 0.929 . S
S1723 N1724 1.613 . S
S1723 N1725 1.610 . S
N1724 S1723 1.613 . S
N1724 C1727 1.350 . S
N1725 S1723 1.610 . S
N1725 C1726 1.351 . S
C1726 C1720 1.428 . S
C1726 N1725 1.351 . S
C1726 C1727 1.434 . S
C1727 C1718 1.429 . S
C1727 N1724 1.350 . S
C1727 C1726 1.434 . S
C673 C7 1.028 . S
C675 C371 0.911 . S
C684 C385 0.973 . S
C686 C21 0.955 1_455 S
C695 C35 0.966 . S
C697 C343 0.976 . S
C706 C357 0.947 . S
C708 C49 0.983 . S
C717 C63 0.980 . S
C719 C427 0.949 . S
C728 C77 0.984 . S
C730 C441 0.967 . S
C739 C91 0.955 . S
C741 C399 0.967 . S
C750 C105 1.021 . S
C752 C413 0.903 . S
C761 C175 0.928 . S
C763 C119 1.025 . S
C772 C133 0.978 . S
C774 C189 0.951 . S
C783 C203 1.001 . S
C785 C147 0.962 . S
C794 C161 0.925 . S
C796 C217 1.022 . S
C805 C609 0.900 . S
C807 C231 1.018 . S
C816 C637 0.987 . S
C818 C245 0.947 . S
C827 C315 0.968 . S
C829 C259 0.996 . S
C838 C567 0.969 . S
C840 C273 0.981 . S
C849 C665 0.903 . S
C851 C287 1.024 . S
C860 C581 0.971 . S
C862 C301 0.970 . S
C871 C329 0.963 . S
C873 C623 0.968 . S
C882 C455 0.971 . S
C884 C511 0.981 . S
C893 C525 0.958 1_554 S
C895 C469 0.982 . S
C904 C483 0.959 . S
C906 C539 0.966 . S
C915 C553 0.957 . S
C917 C497 0.969 . S
C926 C595 0.965 . S
C928 C651 0.962 1_545 S
C937 C13 0.753 . S
C939 C111 0.745 . S
C948 C69 0.744 1_655 S
C950 C27 0.753 . S
C959 C41 0.758 . S
C961 C83 0.755 . S
C970 C55 0.764 . S
C972 C97 0.760 . S
C981 C293 0.754 . S
C983 C125 0.748 . S
C992 C587 0.758 . S
C994 C139 0.761 . S
C1003 C153 0.733 . S
C1005 C601 0.744 . S
C1014 C167 0.685 . S
C1016 C615 0.675 . S
C1025 C671 0.677 . S
C1027 C181 0.682 . S
C1036 C195 0.715 . S
C1038 C307 0.729 . S
C1047 C209 0.742 1_565 S
C1049 C657 0.737 . S
C1058 C223 0.754 . S
C1060 C237 0.747 . S
C1069 C251 0.724 . S
C1071 C475 0.723 . S
C1080 C265 0.740 . S
C1082 C489 0.736 . S
C1091 C503 0.759 . S
C1093 C279 0.753 . S
C1102 C321 0.744 . S
C1104 C545 0.747 . S
C1113 C517 0.726 . S
C1115 C335 0.732 . S
C1124 C447 0.750 . S
C1126 C349 0.750 . S
C1135 C363 0.739 . S
C1137 C405 0.733 . S
C1146 C419 0.664 . S
C1148 C377 0.665 . S
C1157 C391 0.718 . S
C1159 C433 0.723 . S
C1168 C461 0.728 . S
C1170 C629 0.725 . S
C1179 C643 0.732 1_556 S
C1181 C531 0.739 . S
C1190 C573 0.747 . S
C1192 C559 0.736 . S
C1201 C8 1.037 . S
C1203 C414 1.236 . S
C1212 C428 1.087 . S
C1214 C22 1.063 . S
C1223 C36 1.040 . S
C1225 C442 1.053 . S
C1234 C50 1.037 . S
C1236 C400 1.072 . S
C1245 C386 1.073 . S
C1247 C64 1.046 . S
C1256 C78 1.021 . S
C1258 C344 1.036 . S
C1267 C358 1.075 . S
C1269 C92 1.070 . S
C1278 C106 1.027 . S
C1280 C372 1.199 1_655 S
C1289 C666 1.234 . S
C1291 C120 1.034 . S
C1300 C134 1.037 . S
C1302 C302 1.072 . S
C1311 C148 1.071 . S
C1313 C652 1.066 . S
C1322 C232 1.043 . S
C1324 C162 1.241 . S
C1333 C176 1.197 1_565 S
C1335 C288 1.042 . S
C1344 C190 1.068 . S
C1346 C582 1.061 . S
C1355 C596 1.092 . S
C1357 C204 1.050 . S
C1366 C610 1.192 1_556 S
C1368 C218 1.041 . S
C1377 C526 1.062 . S
C1379 C246 1.072 . S
C1388 C540 1.080 . S
C1390 C260 1.052 . S
C1399 C554 1.056 . S
C1401 C274 1.036 . S
C1410 C316 1.068 . S
C1412 C484 1.059 . S
C1421 C456 1.034 . S
C1423 C330 1.033 . S
C1432 C470 1.073 . S
C1434 C638 1.036 . S
C1443 C498 1.038 . S
C1445 C568 1.052 . S
C1454 C624 1.034 . S
C1456 C512 1.025 . S
C1465 C11 1.420 . S
C1467 C319 1.463 . S
C1476 C25 1.345 . S
C1478 C571 1.346 . S
C1487 C333 1.334 . S
C1489 C39 1.344 . S
C1498 C641 1.421 . S
C1500 C53 1.431 . S
C1509 C263 1.430 . S
C1511 C67 1.425 . S
C1520 C277 1.343 . S
C1522 C81 1.338 . S
C1531 C95 1.336 . S
C1533 C627 1.350 . S
C1542 C109 1.418 . S
C1544 C249 1.463 . S
C1553 C193 1.456 . S
C1555 C123 1.428 . S
C1564 C137 1.421 . S
C1566 C207 1.431 . S
C1575 C221 1.416 . S
C1577 C151 1.465 . S
C1586 C179 1.343 . S
C1588 C165 1.344 . S
C1597 C235 1.418 . S
C1599 C361 1.466 . S
C1608 C431 1.459 . S
C1610 C291 1.425 . S
C1619 C389 1.320 . S
C1621 C305 1.313 . S
C1630 C347 1.344 . S
C1632 C655 1.346 . S
C1641 C669 1.346 . S
C1643 C375 1.346 . S
C1652 C599 1.311 . S
C1654 C403 1.321 . S
C1663 C613 1.348 . S
C1665 C417 1.343 . S
C1674 C585 1.337 . S
C1676 C445 1.351 . S
C1685 C529 1.336 . S
C1687 C459 1.353 . S
C1696 C543 1.316 . S
C1698 C473 1.319 . S
C1707 C487 1.343 . S
C1709 C557 1.345 . S
C1718 C501 1.336 . S
C1720 C515 1.342 . S
