# Generated by pormake.
# Topology dmp, (4)-cn, num edge types: 1
# Building blocks:
#     Node 0, Type 0, BuildingBlock: UXUYUI_clean_sbu_0, # of connection points: 4
#     Node 1, Type 0, BuildingBlock: UXUYUI_clean_sbu_0, # of connection points: 4
#     Node 2, Type 0, BuildingBlock: UXUYUI_clean_sbu_0, # of connection points: 4
#     Node 3, Type 0, BuildingBlock: UXUYUI_clean_sbu_0, # of connection points: 4
#     Edge 4, Type (0, 0), BuildingBlock: CIFDUS_clean_linker_0, # of connection points: 2
#     Edge 5, Type (0, 0), BuildingBlock: CIFDUS_clean_linker_0, # of connection points: 2
#     Edge 6, Type (0, 0), BuildingBlock: CIFDUS_clean_linker_0, # of connection points: 2
#     Edge 7, Type (0, 0), BuildingBlock: CIFDUS_clean_linker_0, # of connection points: 2
#     Edge 8, Type (0, 0), BuildingBlock: CIFDUS_clean_linker_0, # of connection points: 2
#     Edge 9, Type (0, 0), BuildingBlock: CIFDUS_clean_linker_0, # of connection points: 2
#     Edge 10, Type (0, 0), BuildingBlock: CIFDUS_clean_linker_0, # of connection points: 2
#     Edge 11, Type (0, 0), BuildingBlock: CIFDUS_clean_linker_0, # of connection points: 2
# Relax obj value: 0.351
# Max RMSD: 0.312
# Mean RMSD: 0.312
data_MOF--net-dmp--node1-UXUYUI_clean_sbu_0--edge1-CIFDUS_clean_linker_0
_symmetry_space_group_name_H-M    P1
_symmetry_Int_Tables_number       1
_symmetry_cell_setting            triclinic
loop_
_symmetry_equiv_pos_as_xyz
'x, y, z'
_cell_length_a     51.51786
_cell_length_b     21.934091
_cell_length_c     26.615577
_cell_angle_alpha  90.060424
_cell_angle_beta   89.888681
_cell_angle_gamma 89.90876
loop_
_atom_site_label
_atom_site_type_symbol
_atom_site_fract_x
_atom_site_fract_y
_atom_site_fract_z
_atom_type_partial_charge
Li0 Li 0.11829 0.29087 0.2112 0.0
Li1 Li 0.11496 0.20912 0.26995 0.0
Li2 Li 0.08385 0.21792 0.20445 0.0
Li3 Li 0.08413 0.29097 0.2742 0.0
C4 C 0.12724 0.19379 0.14761 0.0
N5 N 0.13895 0.17467 0.04745 0.0
C6 C 0.14373 0.1461 0.13352 0.0
C7 C 0.11674 0.23188 0.11073 0.0
C8 C 0.14942 0.13716 0.0827 0.0
C9 C 0.12288 0.22141 0.06032 0.0
C10 C 0.14668 0.31017 0.2986 0.0
C11 C 0.17706 0.37596 0.34103 0.0
N12 N 0.19698 0.34041 0.32445 0.0
C13 C 0.16745 0.27432 0.282 0.0
C14 C 0.1515 0.3614 0.32838 0.0
C15 C 0.19273 0.29032 0.29548 0.0
C16 C 0.13563 0.39996 0.16544 0.0
N17 N 0.14211 0.34143 0.17631 0.0
C18 C 0.18567 0.35789 0.14908 0.0
C19 C 0.16624 0.31933 0.16664 0.0
C20 C 0.18009 0.41972 0.13978 0.0
C21 C 0.15432 0.43988 0.14634 0.0
H22 H 0.1162 0.41616 0.17324 0.0
H23 H 0.17081 0.27234 0.175 0.0
C24 C 0.13953 0.09854 0.28005 0.0
N25 N 0.13484 0.15076 0.30591 0.0
C26 C 0.15906 0.05907 0.29565 0.0
C27 C 0.1669 0.12487 0.36702 0.0
C28 C 0.14707 0.16322 0.35 0.0
C29 C 0.17388 0.07381 0.33814 0.0
H30 H 0.1293 0.08982 0.24533 0.0
H31 H 0.1429 0.20524 0.36976 0.0
C32 C 0.05616 0.32753 0.19088 0.0
N33 N 0.00596 0.36518 0.17144 0.0
C34 C 0.03512 0.29497 0.21039 0.0
C35 C 0.05166 0.37923 0.16152 0.0
C36 C 0.0099 0.31474 0.20013 0.0
C37 C 0.02614 0.39752 0.15209 0.0
C38 C 0.07555 0.16758 0.31912 0.0
C39 C 0.06925 0.10574 0.31621 0.0
C40 C 0.08162 0.19346 0.36565 0.0
C41 C 0.06918 0.0707 0.36003 0.0
C42 C 0.08132 0.15691 0.40858 0.0
N43 N 0.07518 0.09679 0.40491 0.0
C44 C 0.06618 0.10951 0.16388 0.0
C45 C 0.05164 0.1959 0.1184 0.0
C46 C 0.05444 0.07042 0.12944 0.0
N47 N 0.06444 0.17087 0.15799 0.0
C48 C 0.03951 0.15849 0.08311 0.0
C49 C 0.04096 0.09484 0.08829 0.0
H50 H 0.07726 0.09099 0.19475 0.0
H51 H 0.05142 0.24472 0.11329 0.0
C52 C 0.07301 0.3993 0.32483 0.0
N53 N 0.06424 0.34183 0.31647 0.0
C54 C 0.05955 0.4382 0.35721 0.0
C55 C 0.02801 0.35824 0.37078 0.0
C56 C 0.04212 0.32088 0.3382 0.0
C57 C 0.03684 0.41758 0.38102 0.0
H58 H 0.09064 0.41457 0.30669 0.0
H59 H 0.03555 0.27501 0.33049 0.0
O60 O 0.12145 0.2026 0.19731 0.0
O61 O 0.12171 0.29574 0.28575 0.0
O62 O 0.08111 0.30965 0.20063 0.0
O63 O 0.07633 0.20245 0.27657 0.0
H64 H 0.15208 0.11629 0.16159 0.0
H65 H 0.10398 0.26912 0.12076 0.0
H66 H 0.16215 0.10039 0.07127 0.0
H67 H 0.11486 0.25047 0.03141 0.0
H68 H 0.18107 0.41551 0.36404 0.0
H69 H 0.16414 0.23461 0.2588 0.0
H70 H 0.13565 0.38965 0.3416 0.0
H71 H 0.20896 0.26295 0.28282 0.0
H72 H 0.20512 0.33971 0.14566 0.0
H73 H 0.14873 0.48648 0.13848 0.0
H74 H 0.16375 0.01964 0.27279 0.0
H75 H 0.17801 0.1377 0.39987 0.0
H76 H 0.03813 0.2547 0.23297 0.0
H77 H 0.06773 0.40495 0.14616 0.0
H78 H 0.99345 0.28995 0.21495 0.0
H79 H 0.02238 0.43745 0.1294 0.0
H80 H 0.06446 0.08496 0.28058 0.0
H81 H 0.08689 0.24108 0.36847 0.0
H82 H 0.06438 0.02275 0.35834 0.0
H83 H 0.08611 0.17627 0.44479 0.0
H84 H 0.05596 0.02162 0.1349 0.0
H85 H 0.02976 0.17909 0.05135 0.0
H86 H 0.06717 0.48336 0.36439 0.0
H87 H 0.01038 0.34089 0.3877 0.0
Li88 Li 0.40827 0.78643 0.20553 0.0
Li89 Li 0.40967 0.7057 0.27391 0.0
Li90 Li 0.37587 0.70662 0.20982 0.0
Li91 Li 0.37685 0.78321 0.27358 0.0
C92 C 0.41363 0.66036 0.15787 0.0
N93 N 0.41065 0.58616 0.07419 0.0
C94 C 0.41695 0.59741 0.16262 0.0
C95 C 0.40888 0.68567 0.11059 0.0
C96 C 0.41535 0.56064 0.11985 0.0
C97 C 0.40743 0.64736 0.06873 0.0
C98 C 0.41713 0.84626 0.30906 0.0
C99 C 0.41332 0.89465 0.39018 0.0
N100 N 0.42064 0.94858 0.36937 0.0
C101 C 0.42488 0.90202 0.28859 0.0
C102 C 0.41156 0.84237 0.36037 0.0
C103 C 0.42643 0.95327 0.31965 0.0
C104 C 0.41759 0.88832 0.14474 0.0
N105 N 0.42784 0.835 0.16144 0.0
C106 C 0.46554 0.84837 0.11053 0.0
C107 C 0.45137 0.8147 0.14551 0.0
C108 C 0.45529 0.90327 0.09184 0.0
C109 C 0.43107 0.92344 0.10972 0.0
H110 H 0.39887 0.90323 0.15841 0.0
H111 H 0.45893 0.77197 0.15956 0.0
C112 C 0.42755 0.59517 0.31414 0.0
N113 N 0.43122 0.65648 0.31389 0.0
C114 C 0.44258 0.55815 0.34527 0.0
C115 C 0.46462 0.64836 0.37546 0.0
C116 C 0.44935 0.68354 0.3434 0.0
C117 C 0.46122 0.58487 0.37673 0.0
H118 H 0.41263 0.57526 0.2908 0.0
H119 H 0.45167 0.73252 0.34248 0.0
C120 C 0.34491 0.81034 0.19329 0.0
N121 N 0.29351 0.84423 0.18221 0.0
C122 C 0.32525 0.77707 0.21698 0.0
C123 C 0.33837 0.86085 0.16392 0.0
C124 C 0.29941 0.79489 0.21091 0.0
C125 C 0.31229 0.87724 0.15878 0.0
C126 C 0.36124 0.67196 0.325 0.0
C127 C 0.33725 0.64237 0.32269 0.0
C128 C 0.37384 0.67791 0.37117 0.0
C129 C 0.32615 0.61976 0.36681 0.0
C130 C 0.36212 0.65462 0.41443 0.0
N131 N 0.3387 0.62632 0.41139 0.0
C132 C 0.3504 0.59738 0.18841 0.0
C133 C 0.34075 0.67682 0.13091 0.0
C134 C 0.33137 0.56045 0.16707 0.0
N135 N 0.3541 0.65496 0.17111 0.0
C136 C 0.32106 0.642 0.10925 0.0
C137 C 0.31589 0.58374 0.1283 0.0
H138 H 0.36138 0.58135 0.22041 0.0
H139 H 0.34439 0.72247 0.11742 0.0
C140 C 0.35568 0.8956 0.29359 0.0
N141 N 0.35441 0.83702 0.30994 0.0
C142 C 0.33527 0.93569 0.30277 0.0
C143 C 0.31329 0.85599 0.34871 0.0
C144 C 0.33434 0.81741 0.33903 0.0
C145 C 0.31306 0.91484 0.32802 0.0
H146 H 0.3713 0.90947 0.26903 0.0
H147 H 0.3333 0.77049 0.35072 0.0
O148 O 0.41434 0.69699 0.19942 0.0
O149 O 0.4154 0.79569 0.27908 0.0
O150 O 0.37048 0.79535 0.20046 0.0
O151 O 0.37234 0.69406 0.282 0.0
H152 H 0.42054 0.57712 0.19897 0.0
H153 H 0.40599 0.73428 0.10638 0.0
H154 H 0.41778 0.51179 0.12296 0.0
H155 H 0.40363 0.66625 0.03194 0.0
H156 H 0.40888 0.89235 0.42987 0.0
H157 H 0.42957 0.90581 0.24914 0.0
H158 H 0.40578 0.79963 0.37701 0.0
H159 H 0.43226 -0.00323 0.30423 0.0
H160 H 0.4843 0.83162 0.09829 0.0
H161 H 0.42234 0.96513 0.09597 0.0
H162 H 0.43919 0.50942 0.34574 0.0
H163 H 0.47893 0.67051 0.39898 0.0
H164 H 0.32986 0.7382 0.24018 0.0
H165 H 0.35327 0.8874 0.14549 0.0
H166 H 0.28406 0.76964 0.2292 0.0
H167 H 0.30698 0.91637 0.1363 0.0
H168 H 0.32726 0.63714 0.28722 0.0
H169 H 0.39251 0.69994 0.37363 0.0
H170 H 0.30755 0.59697 0.3656 0.0
H171 H 0.37166 0.65896 0.45043 0.0
H172 H 0.32758 0.51587 0.18294 0.0
H173 H 0.3093 0.6612 0.0795 0.0
H174 H 0.33593 0.98096 0.28658 0.0
H175 H 0.29643 0.83803 0.36799 0.0
Li176 Li 0.87454 0.76654 0.73178 0.0
Li177 Li 0.91089 0.77063 0.78861 0.0
Li178 Li 0.91121 0.69688 0.71781 0.0
Li179 Li 0.88297 0.6849 0.79223 0.0
C180 C 0.91315 0.81625 0.66917 0.0
N181 N 0.91748 0.87231 0.57659 0.0
C182 C 0.92182 0.87647 0.66587 0.0
C183 C 0.90676 0.78454 0.62538 0.0
C184 C 0.92382 0.90405 0.61873 0.0
C185 C 0.90909 0.81362 0.57893 0.0
C186 C 0.87183 0.81702 0.83887 0.0
C187 C 0.87795 0.85849 0.92198 0.0
N188 N 0.87016 0.91408 0.90511 0.0
C189 C 0.86381 0.87454 0.82238 0.0
C190 C 0.87886 0.80882 0.88912 0.0
C191 C 0.86309 0.92301 0.85645 0.0
C192 C 0.82367 0.79615 0.72909 0.0
N193 N 0.84582 0.80911 0.70362 0.0
C194 C 0.82315 0.88096 0.65217 0.0
C195 C 0.84602 0.8503 0.66539 0.0
C196 C 0.80006 0.86885 0.6786 0.0
C197 C 0.80048 0.82456 0.71662 0.0
H198 H 0.82419 0.76456 0.76019 0.0
H199 H 0.86387 0.86095 0.64614 0.0
C200 C 0.94629 0.80208 0.86527 0.0
N201 N 0.93137 0.82455 0.82755 0.0
C202 C 0.95932 0.8417 0.89751 0.0
C203 C 0.94201 0.92676 0.85045 0.0
C204 C 0.92932 0.88545 0.81912 0.0
C205 C 0.95701 0.905 0.89066 0.0
H206 H 0.94757 0.75345 0.87106 0.0
H207 H 0.91719 0.90195 0.78895 0.0
C208 C 0.85258 0.6595 0.69479 0.0
N209 N 0.80843 0.6244 0.64341 0.0
C210 C 0.82952 0.64782 0.72086 0.0
C211 C 0.85323 0.65236 0.64259 0.0
C212 C 0.80741 0.6304 0.69422 0.0
C213 C 0.8307 0.63486 0.61729 0.0
C214 C 0.92576 0.63317 0.81845 0.0
C215 C 0.93415 0.57869 0.79646 0.0
C216 C 0.92095 0.63536 0.87013 0.0
C217 C 0.93731 0.52704 0.82652 0.0
C218 C 0.92431 0.5827 0.89889 0.0
N219 N 0.93234 0.53008 0.87667 0.0
C220 C 0.95307 0.67513 0.65017 0.0
C221 C 0.9213 0.59732 0.65656 0.0
C222 C 0.96716 0.64056 0.6154 0.0
N223 N 0.93064 0.65289 0.66982 0.0
C224 C 0.9348 0.56114 0.6223 0.0
C225 C 0.95809 0.58258 0.60141 0.0
H226 H 0.96002 0.71949 0.6617 0.0
H227 H 0.90345 0.58086 0.67312 0.0
C228 C 0.84941 0.64522 0.86915 0.0
N229 N 0.8649 0.6263 0.83082 0.0
C230 C 0.83038 0.60646 0.88833 0.0
C231 C 0.84486 0.52841 0.83039 0.0
C232 C 0.8637 0.56853 0.81257 0.0
C233 C 0.82709 0.54828 0.86712 0.0
H234 H 0.85045 0.69179 0.88218 0.0
H235 H 0.87587 0.55545 0.78118 0.0
O236 O 0.9111 0.78871 0.7151 0.0
O237 O 0.8732 0.76926 0.80584 0.0
O238 O 0.87452 0.67648 0.72025 0.0
O239 O 0.92215 0.68399 0.78951 0.0
H240 H 0.92694 0.90169 0.69935 0.0
H241 H 0.9 0.73813 0.62724 0.0
H242 H 0.93045 0.95068 0.61564 0.0
H243 H 0.90417 0.78957 0.54475 0.0
H244 H 0.88354 0.8529 0.96086 0.0
H245 H 0.85854 0.882 0.78357 0.0
H246 H 0.88531 0.76479 0.90247 0.0
H247 H 0.85705 0.96782 0.84414 0.0
H248 H 0.82379 0.91527 0.62299 0.0
H249 H 0.78313 0.81277 0.73747 0.0
H250 H 0.97045 0.82296 0.92833 0.0
H251 H 0.93995 0.97515 0.84347 0.0
H252 H 0.82854 0.65288 0.76121 0.0
H253 H 0.87095 0.6597 0.62171 0.0
H254 H 0.78942 0.62171 0.71397 0.0
H255 H 0.83094 0.62938 0.5769 0.0
H256 H 0.93817 0.57624 0.75664 0.0
H257 H 0.91428 0.677 0.88773 0.0
H258 H 0.94371 0.48452 0.80996 0.0
H259 H 0.92045 0.58364 0.93885 0.0
H260 H 0.98516 0.65843 0.60038 0.0
H261 H 0.92702 0.51701 0.61205 0.0
H262 H 0.81729 0.62331 0.91705 0.0
H263 H 0.84283 0.48439 0.81239 0.0
Li264 Li 0.61024 0.21217 0.72283 0.0
Li265 Li 0.57852 0.23499 0.78955 0.0
Li266 Li 0.58272 0.29724 0.71303 0.0
Li267 Li 0.61595 0.30308 0.77577 0.0
C268 C 0.5679 0.15713 0.69413 0.0
N269 N 0.56165 0.04694 0.64525 0.0
C270 C 0.55711 0.10744 0.71944 0.0
C271 C 0.57522 0.151 0.64377 0.0
C272 C 0.55418 0.05206 0.69412 0.0
C273 C 0.572 0.09485 0.61978 0.0
C274 C 0.63668 0.20137 0.82438 0.0
C275 C 0.65672 0.17983 0.90433 0.0
N276 N 0.67987 0.17109 0.88073 0.0
C277 C 0.66067 0.19186 0.80097 0.0
C278 C 0.63467 0.19498 0.87652 0.0
C279 C 0.68226 0.1767 0.83006 0.0
C280 C 0.6493 0.15716 0.66298 0.0
N281 N 0.62954 0.14663 0.69573 0.0
C282 C 0.64571 0.04734 0.71393 0.0
C283 C 0.62687 0.09234 0.71961 0.0
C284 C 0.66773 0.05908 0.6843 0.0
C285 C 0.66879 0.11343 0.6565 0.0
H286 H 0.65128 0.2015 0.64571 0.0
H287 H 0.61135 0.0861 0.74652 0.0
C288 C 0.53358 0.22075 0.8515 0.0
N289 N 0.55703 0.19753 0.83783 0.0
C290 C 0.51843 0.19056 0.88727 0.0
C291 C 0.55195 0.11355 0.89371 0.0
C292 C 0.56638 0.14513 0.85803 0.0
C293 C 0.52757 0.13598 0.90859 0.0
H294 H 0.52666 0.2625 0.83452 0.0
H295 H 0.58502 0.12766 0.84602 0.0
C296 C 0.62369 0.33443 0.66409 0.0
N297 N 0.62787 0.41728 0.58642 0.0
C298 C 0.63015 0.39508 0.67416 0.0
C299 C 0.61959 0.31575 0.61453 0.0
C300 C 0.63213 0.4363 0.63436 0.0
C301 C 0.62171 0.35839 0.57579 0.0
C302 C 0.57368 0.35515 0.82841 0.0
C303 C 0.56157 0.4122 0.82872 0.0
C304 C 0.58007 0.32715 0.87387 0.0
C305 C 0.55616 0.44045 0.87465 0.0
C306 C 0.57429 0.35678 0.91901 0.0
N307 N 0.56256 0.41238 0.91846 0.0
C308 C 0.54924 0.31765 0.63062 0.0
C309 C 0.56492 0.40659 0.67107 0.0
C310 C 0.53529 0.35293 0.59642 0.0
N311 N 0.56372 0.34496 0.66677 0.0
C312 C 0.5515 0.44364 0.63739 0.0
C313 C 0.53637 0.41689 0.59943 0.0
H314 H 0.54839 0.26851 0.62855 0.0
H315 H 0.57649 0.42691 0.70051 0.0
C316 C 0.66654 0.33894 0.78473 0.0
N317 N 0.64295 0.35015 0.80573 0.0
C318 C 0.68864 0.368 0.80266 0.0
C319 C 0.66183 0.42195 0.86263 0.0
C320 C 0.64017 0.39121 0.84376 0.0
C321 C 0.68647 0.41004 0.84218 0.0
H322 H 0.66814 0.30752 0.75357 0.0
H323 H 0.62129 0.40084 0.85931 0.0
O324 O 0.57119 0.21156 0.71844 0.0
O325 O 0.6152 0.2158 0.79647 0.0
O326 O 0.62117 0.29368 0.70262 0.0
O327 O 0.57863 0.3266 0.78369 0.0
H328 H 0.55109 0.11149 0.75823 0.0
H329 H 0.58357 0.189 0.6236 0.0
H330 H 0.54596 0.01314 0.71332 0.0
H331 H 0.57776 0.08935 0.58093 0.0
H332 H 0.65542 0.17486 0.94469 0.0
H333 H 0.66276 0.19684 0.76083 0.0
H334 H 0.61627 0.20126 0.89545 0.0
H335 H 0.70094 0.16949 0.81235 0.0
H336 H 0.64409 0.00573 0.73558 0.0
H337 H 0.68558 0.12442 0.63373 0.0
H338 H 0.49964 0.20905 0.89746 0.0
H339 H 0.55988 0.07213 0.90969 0.0
H340 H 0.63326 0.41037 0.71233 0.0
H341 H 0.61465 0.26895 0.60611 0.0
H342 H 0.63696 0.48348 0.6416 0.0
H343 H 0.61842 0.34468 0.53728 0.0
H344 H 0.55637 0.43435 0.79382 0.0
H345 H 0.58957 0.28332 0.87428 0.0
H346 H 0.54681 0.48465 0.87546 0.0
H347 H 0.57918 0.33564 0.95446 0.0
H348 H 0.5235 0.33028 0.56843 0.0
H349 H 0.5532 0.49266 0.6408 0.0
H350 H 0.70717 0.35879 0.78486 0.0
H351 H 0.65936 0.45455 0.89286 0.0
H352 H 0.2768 0.93596 0.40181 0.0
H353 H 0.29377 0.97003 0.24536 0.0
H354 H 0.25242 0.02178 0.23547 0.0
H355 H 0.21117 0.0555 0.26986 0.0
H356 H 0.19285 0.02414 0.42569 0.0
H357 H 0.23496 0.97307 0.4374 0.0
C358 C 0.27141 0.95505 0.36574 0.0
C359 C 0.28851 0.94985 0.3246 0.0
C360 C 0.24734 0.98471 0.36009 0.0
C361 C 0.28129 0.97467 0.27796 0.0
C362 C 0.25752 0.00376 0.27206 0.0
C363 C 0.21628 0.03686 0.3063 0.0
C364 C 0.19887 0.04228 0.34662 0.0
C365 C 0.24037 0.00862 0.31266 0.0
C366 C 0.20597 0.01982 0.39404 0.0
C367 C 0.22999 0.99076 0.40066 0.0
H368 H 0.22577 0.39853 0.08898 0.0
H369 H 0.18332 0.5405 0.16686 0.0
H370 H 0.22065 0.60717 0.16117 0.0
H371 H 0.26722 0.62032 0.14618 0.0
H372 H 0.31171 0.47355 0.08142 0.0
H373 H 0.27202 0.41304 0.07103 0.0
C374 C 0.22458 0.44386 0.10504 0.0
C375 C 0.20156 0.46353 0.12891 0.0
C376 C 0.24674 0.48101 0.10459 0.0
C377 C 0.2004 0.52361 0.14763 0.0
C378 C 0.22196 0.56186 0.14505 0.0
C379 C 0.26801 0.57561 0.12871 0.0
C380 C 0.29204 0.55125 0.11407 0.0
C381 C 0.24544 0.54031 0.12524 0.0
C382 C 0.29322 0.49296 0.09251 0.0
C383 C 0.2706 0.45848 0.08685 0.0
H384 H 0.70058 0.01793 0.61035 0.0
H385 H 0.68794 0.01556 0.7708 0.0
H386 H 0.72761 0.95742 0.7826 0.0
H387 H 0.76642 0.91069 0.74859 0.0
H388 H 0.77981 0.90855 0.5885 0.0
H389 H 0.73976 0.96693 0.57548 0.0
C390 C 0.70652 0.00429 0.64776 0.0
C391 C 0.6911 0.0202 0.68952 0.0
C392 C 0.72961 0.97093 0.65447 0.0
C393 C 0.69905 0.00255 0.73788 0.0
C394 C 0.7219 0.96985 0.74479 0.0
C395 C 0.76043 0.92182 0.71064 0.0
C396 C 0.77598 0.90456 0.66958 0.0
C397 C 0.73732 0.95404 0.70346 0.0
C398 C 0.76827 0.9215 0.62086 0.0
C399 C 0.74529 0.95451 0.61338 0.0
H400 H 0.77812 0.5925 0.87579 0.0
H401 H 0.82183 0.42443 0.87764 0.0
H402 H 0.78144 0.36612 0.87533 0.0
H403 H 0.73415 0.36359 0.86274 0.0
H404 H 0.69092 0.53213 0.85912 0.0
H405 H 0.73074 0.58967 0.87394 0.0
C406 C 0.77889 0.54313 0.87736 0.0
C407 C 0.80302 0.51288 0.87651 0.0
C408 C 0.75567 0.51003 0.87535 0.0
C409 C 0.80353 0.44881 0.8776 0.0
C410 C 0.78046 0.41547 0.87627 0.0
C411 C 0.73347 0.4129 0.86576 0.0
C412 C 0.70974 0.44369 0.85923 0.0
C413 C 0.75648 0.44568 0.87338 0.0
C414 C 0.70895 0.50742 0.86415 0.0
C415 C 0.73173 0.54034 0.87225 0.0
H416 H 0.99346 0.10614 0.04502 0.0
H417 H 0.06178 0.9921 0.04653 0.0
H418 H 0.042 0.92388 0.98506 0.0
H419 H 0.00534 0.89661 0.93097 0.0
H420 H 0.93671 0.00973 0.93031 0.0
H421 H 0.95687 0.07922 0.99034 0.0
C422 C 0.00409 0.06664 0.03154 0.0
C423 C 0.02899 0.05407 0.05044 0.0
C424 C 0.99263 0.02768 0.99613 0.0
C425 C 0.04242 0.0023 0.0331 0.0
C426 C 0.0312 0.96347 -0.00226 0.0
C427 C -0.00527 0.93625 0.94421 0.0
C428 C 0.96959 0.94795 0.92613 0.0
C429 C 0.00628 0.97558 0.97918 0.0
C430 C 0.95625 9e-05 0.94306 0.0
C431 C 0.96767 0.03963 0.97768 0.0
H432 H 0.51997 0.01392 0.91254 0.0
H433 H 0.49985 0.1817 0.988 0.0
H434 H 0.47536 0.12455 0.0511 0.0
H435 H 0.46104 0.02655 0.08628 0.0
H436 H 0.48135 0.85915 0.01019 0.0
H437 H 0.50508 0.91657 0.94661 0.0
C438 C 0.51038 0.03798 0.94301 0.0
C439 C 0.51185 0.10188 0.94578 0.0
C440 C 0.49662 0.0049 0.97927 0.0
C441 C 0.49884 0.13253 0.98483 0.0
C442 C 0.48499 0.09987 0.02107 0.0
C443 C 0.47045 0.00269 0.05552 0.0
C444 C 0.46953 0.93863 0.05318 0.0
C445 C 0.4839 0.03601 0.01882 0.0
C446 C 0.48212 0.90834 0.0134 0.0
C447 C 0.49554 0.94114 0.97681 0.0
H448 H 0.98015 0.61729 0.51308 0.0
H449 H 0.96906 0.46151 0.60958 0.0
H450 H 0.99232 0.39685 0.54983 0.0
H451 H 0.01587 0.38462 0.47053 0.0
H452 H 0.02649 0.53965 0.37297 0.0
H453 H 0.00381 0.60487 0.43328 0.0
C454 C 0.98304 0.5693 0.52115 0.0
C455 C 0.97286 0.54415 0.56555 0.0
C456 C -0.00362 0.53234 0.48657 0.0
C457 C 0.97646 0.48175 0.57533 0.0
C458 C 0.98984 0.44482 0.54131 0.0
C459 C 0.01297 0.43253 0.46216 0.0
C460 C 0.02279 0.45716 0.41725 0.0
C461 C -0.00024 0.46957 0.49674 0.0
C462 C 0.01934 0.51965 0.4075 0.0
C463 C 0.00626 0.55691 0.44184 0.0
H464 H 0.46975 0.60606 0.47549 0.0
H465 H 0.48671 0.4785 0.35643 0.0
H466 H 0.51177 0.41549 0.41473 0.0
H467 H 0.52906 0.39747 0.49927 0.0
H468 H 0.51032 0.52312 0.61906 0.0
H469 H 0.48629 0.58693 0.56036 0.0
C470 C 0.47913 0.56471 0.46229 0.0
C471 C 0.47654 0.54698 0.41182 0.0
C472 C 0.49328 0.52863 0.49601 0.0
C473 C 0.48836 0.49279 0.39527 0.0
C474 C 0.50273 0.45694 0.42849 0.0
C475 C 0.51948 0.43842 0.51273 0.0
C476 C 0.52161 0.45544 0.56356 0.0
C477 C 0.50527 0.47439 0.47897 0.0
C478 C 0.50942 0.50934 0.58003 0.0
C479 C 0.49549 0.54569 0.54656 0.0
loop_
_geom_bond_atom_site_label_1
_geom_bond_atom_site_label_2
_geom_bond_distance
_geom_bond_site_symmetry_2
_ccdc_geom_bond_type
Li0 N17 1.990 . S
Li0 O60 1.956 . S
Li0 O61 1.970 . S
Li0 O62 1.961 . S
Li1 N25 1.990 . S
Li1 O60 1.970 . S
Li1 O61 1.956 . S
Li1 O63 1.961 . S
Li2 N47 1.990 . S
Li2 O60 1.961 . S
Li2 O62 1.956 . S
Li2 O63 1.970 . S
Li3 N53 1.990 . S
Li3 O61 1.961 . S
Li3 O62 1.970 . S
Li3 O63 1.956 . S
C4 C6 1.348 . S
C4 C7 1.356 . S
C4 O60 1.325 . S
N5 C8 1.314 . S
N5 C9 1.279 . S
C6 C4 1.348 . S
C6 C8 1.353 . S
C6 H64 0.929 . S
C7 C4 1.356 . S
C7 C9 1.358 . S
C7 H65 0.930 . S
C8 N5 1.314 . S
C8 C6 1.353 . S
C8 H66 0.930 . S
C9 N5 1.279 . S
C9 C7 1.358 . S
C9 H67 0.930 . S
C10 C13 1.348 . S
C10 C14 1.356 . S
C10 O61 1.325 . S
C11 N12 1.279 . S
C11 C14 1.358 . S
C11 H68 0.930 . S
N12 C11 1.279 . S
N12 C15 1.314 . S
C13 C10 1.348 . S
C13 C15 1.353 . S
C13 H69 0.929 . S
C14 C10 1.356 . S
C14 C11 1.358 . S
C14 H70 0.930 . S
C15 N12 1.314 . S
C15 C13 1.353 . S
C15 H71 0.930 . S
C16 N17 1.314 . S
C16 C21 1.353 . S
C16 H22 0.930 . S
N17 Li0 1.990 . S
N17 C16 1.314 . S
N17 C19 1.279 . S
C18 C19 1.358 . S
C18 C20 1.356 . S
C18 H72 0.930 . S
C19 N17 1.279 . S
C19 C18 1.358 . S
C19 H23 0.930 . S
C20 C18 1.356 . S
C20 C21 1.348 . S
C21 C16 1.353 . S
C21 C20 1.348 . S
C21 H73 0.929 . S
H22 C16 0.930 . S
H23 C19 0.930 . S
C24 N25 1.314 . S
C24 C26 1.353 . S
C24 H30 0.930 . S
N25 Li1 1.990 . S
N25 C24 1.314 . S
N25 C28 1.279 . S
C26 C24 1.353 . S
C26 C29 1.348 . S
C26 H74 0.929 1_545 S
C27 C28 1.358 . S
C27 C29 1.356 . S
C27 H75 0.930 . S
C28 N25 1.279 . S
C28 C27 1.358 . S
C28 H31 0.930 . S
C29 C26 1.348 . S
C29 C27 1.356 . S
H30 C24 0.930 . S
H31 C28 0.930 . S
C32 C34 1.348 . S
C32 C35 1.356 . S
C32 O62 1.325 . S
N33 C36 1.314 . S
N33 C37 1.279 . S
C34 C32 1.348 . S
C34 C36 1.353 . S
C34 H76 0.929 . S
C35 C32 1.356 . S
C35 C37 1.358 . S
C35 H77 0.930 . S
C36 N33 1.314 . S
C36 C34 1.353 . S
C36 H78 0.930 . S
C37 N33 1.279 . S
C37 C35 1.358 . S
C37 H79 0.930 . S
C38 C39 1.348 . S
C38 C40 1.356 . S
C38 O63 1.325 . S
C39 C38 1.348 . S
C39 C41 1.353 . S
C39 H80 0.929 . S
C40 C38 1.356 . S
C40 C42 1.358 . S
C40 H81 0.930 . S
C41 C39 1.353 . S
C41 N43 1.314 . S
C41 H82 0.930 . S
C42 C40 1.358 . S
C42 N43 1.279 . S
C42 H83 0.930 . S
N43 C41 1.314 . S
N43 C42 1.279 . S
C44 C46 1.353 . S
C44 N47 1.314 . S
C44 H50 0.930 . S
C45 N47 1.279 . S
C45 C48 1.358 . S
C45 H51 0.930 . S
C46 C44 1.353 . S
C46 C49 1.348 . S
C46 H84 0.929 . S
N47 Li2 1.990 . S
N47 C44 1.314 . S
N47 C45 1.279 . S
C48 C45 1.358 . S
C48 C49 1.356 . S
C48 H85 0.930 . S
C49 C46 1.348 . S
C49 C48 1.356 . S
H50 C44 0.930 . S
H51 C45 0.930 . S
C52 N53 1.314 . S
C52 C54 1.353 . S
C52 H58 0.930 . S
N53 Li3 1.990 . S
N53 C52 1.314 . S
N53 C56 1.279 . S
C54 C52 1.353 . S
C54 C57 1.348 . S
C54 H86 0.929 . S
C55 C56 1.358 . S
C55 C57 1.356 . S
C55 H87 0.930 . S
C56 N53 1.279 . S
C56 C55 1.358 . S
C56 H59 0.930 . S
C57 C54 1.348 . S
C57 C55 1.356 . S
H58 C52 0.930 . S
H59 C56 0.930 . S
O60 Li0 1.956 . S
O60 Li1 1.970 . S
O60 Li2 1.961 . S
O60 C4 1.325 . S
O61 Li0 1.970 . S
O61 Li1 1.956 . S
O61 Li3 1.961 . S
O61 C10 1.325 . S
O62 Li0 1.961 . S
O62 Li2 1.956 . S
O62 Li3 1.970 . S
O62 C32 1.325 . S
O63 Li1 1.961 . S
O63 Li2 1.970 . S
O63 Li3 1.956 . S
O63 C38 1.325 . S
H64 C6 0.929 . S
H65 C7 0.930 . S
H66 C8 0.930 . S
H67 C9 0.930 . S
H68 C11 0.930 . S
H69 C13 0.929 . S
H70 C14 0.930 . S
H71 C15 0.930 . S
H72 C18 0.930 . S
H73 C21 0.929 . S
H74 C26 0.929 1_565 S
H75 C27 0.930 . S
H76 C34 0.929 . S
H77 C35 0.930 . S
H78 C36 0.930 . S
H79 C37 0.930 . S
H80 C39 0.929 . S
H81 C40 0.930 . S
H82 C41 0.930 . S
H83 C42 0.930 . S
H84 C46 0.929 . S
H85 C48 0.930 . S
H86 C54 0.929 . S
H87 C55 0.930 . S
Li88 N105 1.990 . S
Li88 O148 1.956 . S
Li88 O149 1.970 . S
Li88 O150 1.961 . S
Li89 N113 1.990 . S
Li89 O148 1.970 . S
Li89 O149 1.956 . S
Li89 O151 1.961 . S
Li90 N135 1.990 . S
Li90 O148 1.961 . S
Li90 O150 1.956 . S
Li90 O151 1.970 . S
Li91 N141 1.990 . S
Li91 O149 1.961 . S
Li91 O150 1.970 . S
Li91 O151 1.956 . S
C92 C94 1.348 . S
C92 C95 1.356 . S
C92 O148 1.325 . S
N93 C96 1.314 . S
N93 C97 1.279 . S
C94 C92 1.348 . S
C94 C96 1.353 . S
C94 H152 0.929 . S
C95 C92 1.356 . S
C95 C97 1.358 . S
C95 H153 0.930 . S
C96 N93 1.314 . S
C96 C94 1.353 . S
C96 H154 0.930 . S
C97 N93 1.279 . S
C97 C95 1.358 . S
C97 H155 0.930 . S
C98 C101 1.348 . S
C98 C102 1.356 . S
C98 O149 1.325 . S
C99 N100 1.279 . S
C99 C102 1.358 . S
C99 H156 0.930 . S
N100 C99 1.279 . S
N100 C103 1.314 . S
C101 C98 1.348 . S
C101 C103 1.353 . S
C101 H157 0.929 . S
C102 C98 1.356 . S
C102 C99 1.358 . S
C102 H158 0.930 . S
C103 N100 1.314 . S
C103 C101 1.353 . S
C103 H159 0.930 . S
C104 N105 1.314 . S
C104 C109 1.353 . S
C104 H110 0.930 . S
N105 Li88 1.990 . S
N105 C104 1.314 . S
N105 C107 1.279 . S
C106 C107 1.358 . S
C106 C108 1.356 . S
C106 H160 0.930 . S
C107 N105 1.279 . S
C107 C106 1.358 . S
C107 H111 0.930 . S
C108 C106 1.356 . S
C108 C109 1.348 . S
C109 C104 1.353 . S
C109 C108 1.348 . S
C109 H161 0.929 . S
H110 C104 0.930 . S
H111 C107 0.930 . S
C112 N113 1.314 . S
C112 C114 1.353 . S
C112 H118 0.930 . S
N113 Li89 1.990 . S
N113 C112 1.314 . S
N113 C116 1.279 . S
C114 C112 1.353 . S
C114 C117 1.348 . S
C114 H162 0.929 . S
C115 C116 1.358 . S
C115 C117 1.356 . S
C115 H163 0.930 . S
C116 N113 1.279 . S
C116 C115 1.358 . S
C116 H119 0.930 . S
C117 C114 1.348 . S
C117 C115 1.356 . S
H118 C112 0.930 . S
H119 C116 0.930 . S
C120 C122 1.348 . S
C120 C123 1.356 . S
C120 O150 1.325 . S
N121 C124 1.314 . S
N121 C125 1.279 . S
C122 C120 1.348 . S
C122 C124 1.353 . S
C122 H164 0.929 . S
C123 C120 1.356 . S
C123 C125 1.358 . S
C123 H165 0.930 . S
C124 N121 1.314 . S
C124 C122 1.353 . S
C124 H166 0.930 . S
C125 N121 1.279 . S
C125 C123 1.358 . S
C125 H167 0.930 . S
C126 C127 1.348 . S
C126 C128 1.356 . S
C126 O151 1.325 . S
C127 C126 1.348 . S
C127 C129 1.353 . S
C127 H168 0.929 . S
C128 C126 1.356 . S
C128 C130 1.358 . S
C128 H169 0.930 . S
C129 C127 1.353 . S
C129 N131 1.314 . S
C129 H170 0.930 . S
C130 C128 1.358 . S
C130 N131 1.279 . S
C130 H171 0.930 . S
N131 C129 1.314 . S
N131 C130 1.279 . S
C132 C134 1.353 . S
C132 N135 1.314 . S
C132 H138 0.930 . S
C133 N135 1.279 . S
C133 C136 1.358 . S
C133 H139 0.930 . S
C134 C132 1.353 . S
C134 C137 1.348 . S
C134 H172 0.929 . S
N135 Li90 1.990 . S
N135 C132 1.314 . S
N135 C133 1.279 . S
C136 C133 1.358 . S
C136 C137 1.356 . S
C136 H173 0.930 . S
C137 C134 1.348 . S
C137 C136 1.356 . S
H138 C132 0.930 . S
H139 C133 0.930 . S
C140 N141 1.314 . S
C140 C142 1.353 . S
C140 H146 0.930 . S
N141 Li91 1.990 . S
N141 C140 1.314 . S
N141 C144 1.279 . S
C142 C140 1.353 . S
C142 C145 1.348 . S
C142 H174 0.929 1_565 S
C143 C144 1.358 . S
C143 C145 1.356 . S
C143 H175 0.930 . S
C144 N141 1.279 . S
C144 C143 1.358 . S
C144 H147 0.930 . S
C145 C142 1.348 . S
C145 C143 1.356 . S
H146 C140 0.930 . S
H147 C144 0.930 . S
O148 Li88 1.956 . S
O148 Li89 1.970 . S
O148 Li90 1.961 . S
O148 C92 1.325 . S
O149 Li88 1.970 . S
O149 Li89 1.956 . S
O149 Li91 1.961 . S
O149 C98 1.325 . S
O150 Li88 1.961 . S
O150 Li90 1.956 . S
O150 Li91 1.970 . S
O150 C120 1.325 . S
O151 Li89 1.961 . S
O151 Li90 1.970 . S
O151 Li91 1.956 . S
O151 C126 1.325 . S
H152 C94 0.929 . S
H153 C95 0.930 . S
H154 C96 0.930 . S
H155 C97 0.930 . S
H156 C99 0.930 . S
H157 C101 0.929 . S
H158 C102 0.930 . S
H159 C103 0.930 . S
H160 C106 0.930 . S
H161 C109 0.929 . S
H162 C114 0.929 . S
H163 C115 0.930 . S
H164 C122 0.929 . S
H165 C123 0.930 . S
H166 C124 0.930 . S
H167 C125 0.930 . S
H168 C127 0.929 . S
H169 C128 0.930 . S
H170 C129 0.930 . S
H171 C130 0.930 . S
H172 C134 0.929 . S
H173 C136 0.930 . S
H174 C142 0.929 1_545 S
H175 C143 0.930 . S
Li176 N193 1.990 . S
Li176 O236 1.956 . S
Li176 O237 1.970 . S
Li176 O238 1.961 . S
Li177 N201 1.990 . S
Li177 O236 1.970 . S
Li177 O237 1.956 . S
Li177 O239 1.961 . S
Li178 N223 1.990 . S
Li178 O236 1.961 . S
Li178 O238 1.956 . S
Li178 O239 1.970 . S
Li179 N229 1.990 . S
Li179 O237 1.961 . S
Li179 O238 1.970 . S
Li179 O239 1.956 . S
C180 C182 1.348 . S
C180 C183 1.356 . S
C180 O236 1.325 . S
N181 C184 1.314 . S
N181 C185 1.279 . S
C182 C180 1.348 . S
C182 C184 1.353 . S
C182 H240 0.929 . S
C183 C180 1.356 . S
C183 C185 1.358 . S
C183 H241 0.930 . S
C184 N181 1.314 . S
C184 C182 1.353 . S
C184 H242 0.930 . S
C185 N181 1.279 . S
C185 C183 1.358 . S
C185 H243 0.930 . S
C186 C189 1.348 . S
C186 C190 1.356 . S
C186 O237 1.325 . S
C187 N188 1.279 . S
C187 C190 1.358 . S
C187 H244 0.930 . S
N188 C187 1.279 . S
N188 C191 1.314 . S
C189 C186 1.348 . S
C189 C191 1.353 . S
C189 H245 0.929 . S
C190 C186 1.356 . S
C190 C187 1.358 . S
C190 H246 0.930 . S
C191 N188 1.314 . S
C191 C189 1.353 . S
C191 H247 0.930 . S
C192 N193 1.314 . S
C192 C197 1.353 . S
C192 H198 0.930 . S
N193 Li176 1.990 . S
N193 C192 1.314 . S
N193 C195 1.279 . S
C194 C195 1.358 . S
C194 C196 1.356 . S
C194 H248 0.930 1_565 S
C195 N193 1.279 . S
C195 C194 1.358 . S
C195 H199 0.930 . S
C196 C194 1.356 . S
C196 C197 1.348 . S
C197 C192 1.353 . S
C197 C196 1.348 . S
C197 H249 0.929 . S
H198 C192 0.930 . S
H199 C195 0.930 . S
C200 N201 1.314 . S
C200 C202 1.353 . S
C200 H206 0.930 . S
N201 Li177 1.990 . S
N201 C200 1.314 . S
N201 C204 1.279 . S
C202 C200 1.353 . S
C202 C205 1.348 . S
C202 H250 0.929 . S
C203 C204 1.358 . S
C203 C205 1.356 . S
C203 H251 0.930 . S
C204 N201 1.279 . S
C204 C203 1.358 . S
C204 H207 0.930 . S
C205 C202 1.348 . S
C205 C203 1.356 . S
H206 C200 0.930 . S
H207 C204 0.930 . S
C208 C210 1.348 . S
C208 C211 1.356 . S
C208 O238 1.325 . S
N209 C212 1.314 . S
N209 C213 1.279 . S
C210 C208 1.348 . S
C210 C212 1.353 . S
C210 H252 0.929 . S
C211 C208 1.356 . S
C211 C213 1.358 . S
C211 H253 0.930 . S
C212 N209 1.314 . S
C212 C210 1.353 . S
C212 H254 0.930 . S
C213 N209 1.279 . S
C213 C211 1.358 . S
C213 H255 0.930 . S
C214 C215 1.348 . S
C214 C216 1.356 . S
C214 O239 1.325 . S
C215 C214 1.348 . S
C215 C217 1.353 . S
C215 H256 0.929 . S
C216 C214 1.356 . S
C216 C218 1.358 . S
C216 H257 0.930 . S
C217 C215 1.353 . S
C217 N219 1.314 . S
C217 H258 0.930 . S
C218 C216 1.358 . S
C218 N219 1.279 . S
C218 H259 0.930 . S
N219 C217 1.314 . S
N219 C218 1.279 . S
C220 C222 1.353 . S
C220 N223 1.314 . S
C220 H226 0.930 . S
C221 N223 1.279 . S
C221 C224 1.358 . S
C221 H227 0.930 . S
C222 C220 1.353 . S
C222 C225 1.348 . S
C222 H260 0.929 . S
N223 Li178 1.990 . S
N223 C220 1.314 . S
N223 C221 1.279 . S
C224 C221 1.358 . S
C224 C225 1.356 . S
C224 H261 0.930 . S
C225 C222 1.348 . S
C225 C224 1.356 . S
H226 C220 0.930 . S
H227 C221 0.930 . S
C228 N229 1.314 . S
C228 C230 1.353 . S
C228 H234 0.930 . S
N229 Li179 1.990 . S
N229 C228 1.314 . S
N229 C232 1.279 . S
C230 C228 1.353 . S
C230 C233 1.348 . S
C230 H262 0.929 . S
C231 C232 1.358 . S
C231 C233 1.356 . S
C231 H263 0.930 . S
C232 N229 1.279 . S
C232 C231 1.358 . S
C232 H235 0.930 . S
C233 C230 1.348 . S
C233 C231 1.356 . S
H234 C228 0.930 . S
H235 C232 0.930 . S
O236 Li176 1.956 . S
O236 Li177 1.970 . S
O236 Li178 1.961 . S
O236 C180 1.325 . S
O237 Li176 1.970 . S
O237 Li177 1.956 . S
O237 Li179 1.961 . S
O237 C186 1.325 . S
O238 Li176 1.961 . S
O238 Li178 1.956 . S
O238 Li179 1.970 . S
O238 C208 1.325 . S
O239 Li177 1.961 . S
O239 Li178 1.970 . S
O239 Li179 1.956 . S
O239 C214 1.325 . S
H240 C182 0.929 . S
H241 C183 0.930 . S
H242 C184 0.930 . S
H243 C185 0.930 . S
H244 C187 0.930 . S
H245 C189 0.929 . S
H246 C190 0.930 . S
H247 C191 0.930 . S
H248 C194 0.930 1_545 S
H249 C197 0.929 . S
H250 C202 0.929 . S
H251 C203 0.930 . S
H252 C210 0.929 . S
H253 C211 0.930 . S
H254 C212 0.930 . S
H255 C213 0.930 . S
H256 C215 0.929 . S
H257 C216 0.930 . S
H258 C217 0.930 . S
H259 C218 0.930 . S
H260 C222 0.929 . S
H261 C224 0.930 . S
H262 C230 0.929 . S
H263 C231 0.930 . S
Li264 N281 1.990 . S
Li264 O324 1.956 . S
Li264 O325 1.970 . S
Li264 O326 1.961 . S
Li265 N289 1.990 . S
Li265 O324 1.970 . S
Li265 O325 1.956 . S
Li265 O327 1.961 . S
Li266 N311 1.990 . S
Li266 O324 1.961 . S
Li266 O326 1.956 . S
Li266 O327 1.970 . S
Li267 N317 1.990 . S
Li267 O325 1.961 . S
Li267 O326 1.970 . S
Li267 O327 1.956 . S
C268 C270 1.348 . S
C268 C271 1.356 . S
C268 O324 1.325 . S
N269 C272 1.314 . S
N269 C273 1.279 . S
C270 C268 1.348 . S
C270 C272 1.353 . S
C270 H328 0.929 . S
C271 C268 1.356 . S
C271 C273 1.358 . S
C271 H329 0.930 . S
C272 N269 1.314 . S
C272 C270 1.353 . S
C272 H330 0.930 . S
C273 N269 1.279 . S
C273 C271 1.358 . S
C273 H331 0.930 . S
C274 C277 1.348 . S
C274 C278 1.356 . S
C274 O325 1.325 . S
C275 N276 1.279 . S
C275 C278 1.358 . S
C275 H332 0.930 . S
N276 C275 1.279 . S
N276 C279 1.314 . S
C277 C274 1.348 . S
C277 C279 1.353 . S
C277 H333 0.929 . S
C278 C274 1.356 . S
C278 C275 1.358 . S
C278 H334 0.930 . S
C279 N276 1.314 . S
C279 C277 1.353 . S
C279 H335 0.930 . S
C280 N281 1.314 . S
C280 C285 1.353 . S
C280 H286 0.930 . S
N281 Li264 1.990 . S
N281 C280 1.314 . S
N281 C283 1.279 . S
C282 C283 1.358 . S
C282 C284 1.356 . S
C282 H336 0.930 1_545 S
C283 N281 1.279 . S
C283 C282 1.358 . S
C283 H287 0.930 . S
C284 C282 1.356 . S
C284 C285 1.348 . S
C285 C280 1.353 . S
C285 C284 1.348 . S
C285 H337 0.929 . S
H286 C280 0.930 . S
H287 C283 0.930 . S
C288 N289 1.314 . S
C288 C290 1.353 . S
C288 H294 0.930 . S
N289 Li265 1.990 . S
N289 C288 1.314 . S
N289 C292 1.279 . S
C290 C288 1.353 . S
C290 C293 1.348 . S
C290 H338 0.929 . S
C291 C292 1.358 . S
C291 C293 1.356 . S
C291 H339 0.930 . S
C292 N289 1.279 . S
C292 C291 1.358 . S
C292 H295 0.930 . S
C293 C290 1.348 . S
C293 C291 1.356 . S
H294 C288 0.930 . S
H295 C292 0.930 . S
C296 C298 1.348 . S
C296 C299 1.356 . S
C296 O326 1.325 . S
N297 C300 1.314 . S
N297 C301 1.279 . S
C298 C296 1.348 . S
C298 C300 1.353 . S
C298 H340 0.929 . S
C299 C296 1.356 . S
C299 C301 1.358 . S
C299 H341 0.930 . S
C300 N297 1.314 . S
C300 C298 1.353 . S
C300 H342 0.930 . S
C301 N297 1.279 . S
C301 C299 1.358 . S
C301 H343 0.930 . S
C302 C303 1.348 . S
C302 C304 1.356 . S
C302 O327 1.325 . S
C303 C302 1.348 . S
C303 C305 1.353 . S
C303 H344 0.929 . S
C304 C302 1.356 . S
C304 C306 1.358 . S
C304 H345 0.930 . S
C305 C303 1.353 . S
C305 N307 1.314 . S
C305 H346 0.930 . S
C306 C304 1.358 . S
C306 N307 1.279 . S
C306 H347 0.930 . S
N307 C305 1.314 . S
N307 C306 1.279 . S
C308 C310 1.353 . S
C308 N311 1.314 . S
C308 H314 0.930 . S
C309 N311 1.279 . S
C309 C312 1.358 . S
C309 H315 0.930 . S
C310 C308 1.353 . S
C310 C313 1.348 . S
C310 H348 0.929 . S
N311 Li266 1.990 . S
N311 C308 1.314 . S
N311 C309 1.279 . S
C312 C309 1.358 . S
C312 C313 1.356 . S
C312 H349 0.930 . S
C313 C310 1.348 . S
C313 C312 1.356 . S
H314 C308 0.930 . S
H315 C309 0.930 . S
C316 N317 1.314 . S
C316 C318 1.353 . S
C316 H322 0.930 . S
N317 Li267 1.990 . S
N317 C316 1.314 . S
N317 C320 1.279 . S
C318 C316 1.353 . S
C318 C321 1.348 . S
C318 H350 0.929 . S
C319 C320 1.358 . S
C319 C321 1.356 . S
C319 H351 0.930 . S
C320 N317 1.279 . S
C320 C319 1.358 . S
C320 H323 0.930 . S
C321 C318 1.348 . S
C321 C319 1.356 . S
H322 C316 0.930 . S
H323 C320 0.930 . S
O324 Li264 1.956 . S
O324 Li265 1.970 . S
O324 Li266 1.961 . S
O324 C268 1.325 . S
O325 Li264 1.970 . S
O325 Li265 1.956 . S
O325 Li267 1.961 . S
O325 C274 1.325 . S
O326 Li264 1.961 . S
O326 Li266 1.956 . S
O326 Li267 1.970 . S
O326 C296 1.325 . S
O327 Li265 1.961 . S
O327 Li266 1.970 . S
O327 Li267 1.956 . S
O327 C302 1.325 . S
H328 C270 0.929 . S
H329 C271 0.930 . S
H330 C272 0.930 . S
H331 C273 0.930 . S
H332 C275 0.930 . S
H333 C277 0.929 . S
H334 C278 0.930 . S
H335 C279 0.930 . S
H336 C282 0.930 1_565 S
H337 C285 0.929 . S
H338 C290 0.929 . S
H339 C291 0.930 . S
H340 C298 0.929 . S
H341 C299 0.930 . S
H342 C300 0.930 . S
H343 C301 0.930 . S
H344 C303 0.929 . S
H345 C304 0.930 . S
H346 C305 0.930 . S
H347 C306 0.930 . S
H348 C310 0.929 . S
H349 C312 0.930 . S
H350 C318 0.929 . S
H351 C319 0.930 . S
H352 C358 0.930 . S
H353 C361 0.930 . S
H354 C362 0.930 . S
H355 C363 0.930 . S
H356 C366 0.930 . S
H357 C367 0.930 . S
C358 H352 0.930 . S
C358 C359 1.355 1_565 S
C358 C360 1.415 . S
C359 C358 1.355 1_545 S
C359 C361 1.419 . S
C360 C358 1.415 . S
C360 C365 1.425 1_565 S
C360 C367 1.409 . S
C361 H353 0.930 . S
C361 C359 1.419 . S
C361 C362 1.362 . S
C362 H354 0.930 . S
C362 C361 1.362 . S
C362 C365 1.409 . S
C363 H355 0.930 . S
C363 C364 1.355 1_545 S
C363 C365 1.415 . S
C364 C363 1.355 1_565 S
C364 C366 1.419 . S
C365 C360 1.425 1_545 S
C365 C362 1.409 . S
C365 C363 1.415 . S
C366 H356 0.930 . S
C366 C364 1.419 . S
C366 C367 1.362 . S
C367 H357 0.930 . S
C367 C360 1.409 . S
C367 C366 1.362 . S
H368 C374 0.930 . S
H369 C377 0.930 . S
H370 C378 0.930 . S
H371 C379 0.930 . S
H372 C382 0.930 . S
H373 C383 0.930 . S
C374 H368 0.930 . S
C374 C375 1.355 . S
C374 C376 1.415 . S
C375 C374 1.355 . S
C375 C377 1.419 . S
C376 C374 1.415 . S
C376 C381 1.425 . S
C376 C383 1.409 . S
C377 H369 0.930 . S
C377 C375 1.419 . S
C377 C378 1.362 . S
C378 H370 0.930 . S
C378 C377 1.362 . S
C378 C381 1.409 . S
C379 H371 0.930 . S
C379 C380 1.355 . S
C379 C381 1.415 . S
C380 C379 1.355 . S
C380 C382 1.419 . S
C381 C376 1.425 . S
C381 C378 1.409 . S
C381 C379 1.415 . S
C382 H372 0.930 . S
C382 C380 1.419 . S
C382 C383 1.362 . S
C383 H373 0.930 . S
C383 C376 1.409 . S
C383 C382 1.362 . S
H384 C390 0.930 . S
H385 C393 0.930 . S
H386 C394 0.930 . S
H387 C395 0.930 . S
H388 C398 0.930 . S
H389 C399 0.930 . S
C390 H384 0.930 . S
C390 C391 1.355 1_565 S
C390 C392 1.415 . S
C391 C390 1.355 1_545 S
C391 C393 1.419 . S
C392 C390 1.415 . S
C392 C397 1.425 1_565 S
C392 C399 1.409 . S
C393 H385 0.930 . S
C393 C391 1.419 . S
C393 C394 1.362 . S
C394 H386 0.930 . S
C394 C393 1.362 . S
C394 C397 1.409 . S
C395 H387 0.930 . S
C395 C396 1.355 1_545 S
C395 C397 1.415 . S
C396 C395 1.355 1_565 S
C396 C398 1.419 . S
C397 C392 1.425 1_545 S
C397 C394 1.409 . S
C397 C395 1.415 . S
C398 H388 0.930 . S
C398 C396 1.419 . S
C398 C399 1.362 . S
C399 H389 0.930 . S
C399 C392 1.409 . S
C399 C398 1.362 . S
H400 C406 0.930 . S
H401 C409 0.930 . S
H402 C410 0.930 . S
H403 C411 0.930 . S
H404 C414 0.930 . S
H405 C415 0.930 . S
C406 H400 0.930 . S
C406 C407 1.355 . S
C406 C408 1.415 . S
C407 C406 1.355 . S
C407 C409 1.419 . S
C408 C406 1.415 . S
C408 C413 1.425 . S
C408 C415 1.409 . S
C409 H401 0.930 . S
C409 C407 1.419 . S
C409 C410 1.362 . S
C410 H402 0.930 . S
C410 C409 1.362 . S
C410 C413 1.409 . S
C411 H403 0.930 . S
C411 C412 1.355 . S
C411 C413 1.415 . S
C412 C411 1.355 . S
C412 C414 1.419 . S
C413 C408 1.425 . S
C413 C410 1.409 . S
C413 C411 1.415 . S
C414 H404 0.930 . S
C414 C412 1.419 . S
C414 C415 1.362 . S
C415 H405 0.930 . S
C415 C408 1.409 . S
C415 C414 1.362 . S
H416 C422 0.930 1_655 S
H417 C425 0.930 . S
H418 C426 0.930 . S
H419 C427 0.930 1_455 S
H420 C430 0.930 . S
H421 C431 0.930 . S
C422 H416 0.930 1_455 S
C422 C423 1.355 . S
C422 C424 1.415 1_455 S
C423 C422 1.355 . S
C423 C425 1.419 1_554 S
C424 C422 1.415 1_655 S
C424 C429 1.425 1_644 S
C424 C431 1.409 1_545 S
C425 H417 0.930 . S
C425 C423 1.419 1_556 S
C425 C426 1.362 . S
C426 H418 0.930 . S
C426 C425 1.362 . S
C426 C429 1.409 1_545 S
C427 H419 0.930 1_655 S
C427 C428 1.355 . S
C427 C429 1.415 1_655 S
C428 C427 1.355 . S
C428 C430 1.419 1_556 S
C429 C424 1.425 1_466 S
C429 C426 1.409 1_565 S
C429 C427 1.415 1_455 S
C430 H420 0.930 . S
C430 C428 1.419 1_554 S
C430 C431 1.362 . S
C431 H421 0.930 . S
C431 C424 1.409 1_565 S
C431 C430 1.362 . S
H432 C438 0.930 . S
H433 C441 0.930 . S
H434 C442 0.930 . S
H435 C443 0.930 . S
H436 C446 0.930 . S
H437 C447 0.930 . S
C438 H432 0.930 . S
C438 C439 1.355 . S
C438 C440 1.415 1_545 S
C439 C438 1.355 . S
C439 C441 1.419 . S
C440 C438 1.415 1_565 S
C440 C445 1.425 1_566 S
C440 C447 1.409 . S
C441 H433 0.930 . S
C441 C439 1.419 . S
C441 C442 1.362 1_556 S
C442 H434 0.930 . S
C442 C441 1.362 1_554 S
C442 C445 1.409 . S
C443 H435 0.930 . S
C443 C444 1.355 . S
C443 C445 1.415 1_565 S
C444 C443 1.355 . S
C444 C446 1.419 . S
C445 C440 1.425 1_544 S
C445 C442 1.409 . S
C445 C443 1.415 1_545 S
C446 H436 0.930 . S
C446 C444 1.419 . S
C446 C447 1.362 1_554 S
C447 H437 0.930 . S
C447 C440 1.409 . S
C447 C446 1.362 1_556 S
H448 C454 0.930 . S
H449 C457 0.930 . S
H450 C458 0.930 . S
H451 C459 0.930 . S
H452 C462 0.930 . S
H453 C463 0.930 . S
C454 H448 0.930 . S
C454 C455 1.355 . S
C454 C456 1.415 1_655 S
C455 C454 1.355 . S
C455 C457 1.419 . S
C456 C454 1.415 1_455 S
C456 C461 1.425 1_455 S
C456 C463 1.409 . S
C457 H449 0.930 . S
C457 C455 1.419 . S
C457 C458 1.362 . S
C458 H450 0.930 . S
C458 C457 1.362 . S
C458 C461 1.409 . S
C459 H451 0.930 . S
C459 C460 1.355 . S
C459 C461 1.415 1_455 S
C460 C459 1.355 . S
C460 C462 1.419 . S
C461 C456 1.425 1_655 S
C461 C458 1.409 . S
C461 C459 1.415 1_655 S
C462 H452 0.930 . S
C462 C460 1.419 . S
C462 C463 1.362 . S
C463 H453 0.930 . S
C463 C456 1.409 . S
C463 C462 1.362 . S
H464 C470 0.930 . S
H465 C473 0.930 . S
H466 C474 0.930 . S
H467 C475 0.930 . S
H468 C478 0.930 . S
H469 C479 0.930 . S
C470 H464 0.930 . S
C470 C471 1.355 . S
C470 C472 1.415 . S
C471 C470 1.355 . S
C471 C473 1.419 . S
C472 C470 1.415 . S
C472 C477 1.425 . S
C472 C479 1.409 . S
C473 H465 0.930 . S
C473 C471 1.419 . S
C473 C474 1.362 . S
C474 H466 0.930 . S
C474 C473 1.362 . S
C474 C477 1.409 . S
C475 H467 0.930 . S
C475 C476 1.355 . S
C475 C477 1.415 . S
C476 C475 1.355 . S
C476 C478 1.419 . S
C477 C472 1.425 . S
C477 C474 1.409 . S
C477 C475 1.415 . S
C478 H468 0.930 . S
C478 C476 1.419 . S
C478 C479 1.362 . S
C479 H469 0.930 . S
C479 C472 1.409 . S
C479 C478 1.362 . S
C359 C145 0.966 1_545 S
C364 C29 1.018 1_565 S
C375 C20 0.928 . S
C380 C137 0.983 . S
C391 C284 0.893 . S
C396 C196 0.927 . S
C407 C233 1.046 . S
C412 C321 1.004 . S
C423 C49 1.929 . S
C428 C205 1.923 . S
C439 C293 1.948 . S
C444 C108 1.952 . S
C455 C225 1.895 . S
C460 C57 1.901 . S
C471 C117 1.899 . S
C476 C313 1.894 . S
