# Generated by pormake.
# Topology zfc, (5)-cn, num edge types: 1
# Building blocks:
#     Node 0, Type 0, BuildingBlock: BEQFEK_clean_sbu_0, # of connection points: 5
#     Node 1, Type 0, BuildingBlock: BEQFEK_clean_sbu_0, # of connection points: 5
#     Node 2, Type 0, BuildingBlock: BEQFEK_clean_sbu_0, # of connection points: 5
#     Node 3, Type 0, BuildingBlock: BEQFEK_clean_sbu_0, # of connection points: 5
#     Node 4, Type 0, BuildingBlock: BEQFEK_clean_sbu_0, # of connection points: 5
#     Node 5, Type 0, BuildingBlock: BEQFEK_clean_sbu_0, # of connection points: 5
#     Node 6, Type 0, BuildingBlock: BEQFEK_clean_sbu_0, # of connection points: 5
#     Node 7, Type 0, BuildingBlock: BEQFEK_clean_sbu_0, # of connection points: 5
#     Node 8, Type 0, BuildingBlock: BEQFEK_clean_sbu_0, # of connection points: 5
#     Node 9, Type 0, BuildingBlock: BEQFEK_clean_sbu_0, # of connection points: 5
#     Node 10, Type 0, BuildingBlock: BEQFEK_clean_sbu_0, # of connection points: 5
#     Node 11, Type 0, BuildingBlock: BEQFEK_clean_sbu_0, # of connection points: 5
#     Node 12, Type 0, BuildingBlock: BEQFEK_clean_sbu_0, # of connection points: 5
#     Node 13, Type 0, BuildingBlock: BEQFEK_clean_sbu_0, # of connection points: 5
#     Node 14, Type 0, BuildingBlock: BEQFEK_clean_sbu_0, # of connection points: 5
#     Node 15, Type 0, BuildingBlock: BEQFEK_clean_sbu_0, # of connection points: 5
#     Edge 16, Type (0, 0), BuildingBlock: AJUNOK_clean_linker_0, # of connection points: 2
#     Edge 17, Type (0, 0), BuildingBlock: AJUNOK_clean_linker_0, # of connection points: 2
#     Edge 18, Type (0, 0), BuildingBlock: AJUNOK_clean_linker_0, # of connection points: 2
#     Edge 19, Type (0, 0), BuildingBlock: AJUNOK_clean_linker_0, # of connection points: 2
#     Edge 20, Type (0, 0), BuildingBlock: AJUNOK_clean_linker_0, # of connection points: 2
#     Edge 21, Type (0, 0), BuildingBlock: AJUNOK_clean_linker_0, # of connection points: 2
#     Edge 22, Type (0, 0), BuildingBlock: AJUNOK_clean_linker_0, # of connection points: 2
#     Edge 23, Type (0, 0), BuildingBlock: AJUNOK_clean_linker_0, # of connection points: 2
#     Edge 24, Type (0, 0), BuildingBlock: AJUNOK_clean_linker_0, # of connection points: 2
#     Edge 25, Type (0, 0), BuildingBlock: AJUNOK_clean_linker_0, # of connection points: 2
#     Edge 26, Type (0, 0), BuildingBlock: AJUNOK_clean_linker_0, # of connection points: 2
#     Edge 27, Type (0, 0), BuildingBlock: AJUNOK_clean_linker_0, # of connection points: 2
#     Edge 28, Type (0, 0), BuildingBlock: AJUNOK_clean_linker_0, # of connection points: 2
#     Edge 29, Type (0, 0), BuildingBlock: AJUNOK_clean_linker_0, # of connection points: 2
#     Edge 30, Type (0, 0), BuildingBlock: AJUNOK_clean_linker_0, # of connection points: 2
#     Edge 31, Type (0, 0), BuildingBlock: AJUNOK_clean_linker_0, # of connection points: 2
#     Edge 32, Type (0, 0), BuildingBlock: AJUNOK_clean_linker_0, # of connection points: 2
#     Edge 33, Type (0, 0), BuildingBlock: AJUNOK_clean_linker_0, # of connection points: 2
#     Edge 34, Type (0, 0), BuildingBlock: AJUNOK_clean_linker_0, # of connection points: 2
#     Edge 35, Type (0, 0), BuildingBlock: AJUNOK_clean_linker_0, # of connection points: 2
#     Edge 36, Type (0, 0), BuildingBlock: AJUNOK_clean_linker_0, # of connection points: 2
#     Edge 37, Type (0, 0), BuildingBlock: AJUNOK_clean_linker_0, # of connection points: 2
#     Edge 38, Type (0, 0), BuildingBlock: AJUNOK_clean_linker_0, # of connection points: 2
#     Edge 39, Type (0, 0), BuildingBlock: AJUNOK_clean_linker_0, # of connection points: 2
#     Edge 40, Type (0, 0), BuildingBlock: AJUNOK_clean_linker_0, # of connection points: 2
#     Edge 41, Type (0, 0), BuildingBlock: AJUNOK_clean_linker_0, # of connection points: 2
#     Edge 42, Type (0, 0), BuildingBlock: AJUNOK_clean_linker_0, # of connection points: 2
#     Edge 43, Type (0, 0), BuildingBlock: AJUNOK_clean_linker_0, # of connection points: 2
#     Edge 44, Type (0, 0), BuildingBlock: AJUNOK_clean_linker_0, # of connection points: 2
#     Edge 45, Type (0, 0), BuildingBlock: AJUNOK_clean_linker_0, # of connection points: 2
#     Edge 46, Type (0, 0), BuildingBlock: AJUNOK_clean_linker_0, # of connection points: 2
#     Edge 47, Type (0, 0), BuildingBlock: AJUNOK_clean_linker_0, # of connection points: 2
#     Edge 48, Type (0, 0), BuildingBlock: AJUNOK_clean_linker_0, # of connection points: 2
#     Edge 49, Type (0, 0), BuildingBlock: AJUNOK_clean_linker_0, # of connection points: 2
#     Edge 50, Type (0, 0), BuildingBlock: AJUNOK_clean_linker_0, # of connection points: 2
#     Edge 51, Type (0, 0), BuildingBlock: AJUNOK_clean_linker_0, # of connection points: 2
#     Edge 52, Type (0, 0), BuildingBlock: AJUNOK_clean_linker_0, # of connection points: 2
#     Edge 53, Type (0, 0), BuildingBlock: AJUNOK_clean_linker_0, # of connection points: 2
#     Edge 54, Type (0, 0), BuildingBlock: AJUNOK_clean_linker_0, # of connection points: 2
#     Edge 55, Type (0, 0), BuildingBlock: AJUNOK_clean_linker_0, # of connection points: 2
# Relax obj value: 0.191
# Max RMSD: 0.208
# Mean RMSD: 0.208
data_MOF--net-zfc--node1-BEQFEK_clean_sbu_0--edge1-AJUNOK_clean_linker_0
_symmetry_space_group_name_H-M    P1
_symmetry_Int_Tables_number       1
_symmetry_cell_setting            triclinic
loop_
_symmetry_equiv_pos_as_xyz
'x, y, z'
_cell_length_a     54.91523
_cell_length_b     54.951313
_cell_length_c     14.94011
_cell_angle_alpha  89.996433
_cell_angle_beta   90.047482
_cell_angle_gamma 89.976574
loop_
_atom_site_label
_atom_site_type_symbol
_atom_site_fract_x
_atom_site_fract_y
_atom_site_fract_z
_atom_type_partial_charge
Co0 Co 0.24858 0.1178 0.17401 0.0
Co1 Co 0.27235 0.12774 0.98773 0.0
C2 C 0.2233 0.1494 0.04621 0.0
O3 O 0.22212 0.1384 0.12134 0.0
O4 O 0.24165 0.14659 0.99542 0.0
C5 C 0.23932 0.12513 0.35349 0.0
O6 O 0.23511 0.14703 0.32172 0.0
C7 C 0.26457 0.12461 0.79635 0.0
C8 C 0.30062 0.13236 0.73785 0.0
C9 C 0.27672 0.12679 0.71591 0.0
N10 N 0.28043 0.12866 0.86338 0.0
N11 N 0.30199 0.13338 0.82803 0.0
C12 C 0.23889 0.1161 0.80895 0.0
H13 H 0.23516 0.11183 0.88015 0.0
H14 H 0.23564 0.09964 0.76754 0.0
H15 H 0.22604 0.13021 0.78516 0.0
C16 C 0.25371 0.06651 0.11114 0.0
N17 N 0.25641 0.09071 0.10027 0.0
N18 N 0.26732 0.09486 0.0234 0.0
C19 C 0.27216 0.0734 0.98325 0.0
C20 C 0.26366 0.05468 0.03739 0.0
C21 C 0.24265 0.05514 0.19248 0.0
H22 H 0.22415 0.06274 0.20304 0.0
H23 H 0.24166 0.03504 0.18675 0.0
H24 H 0.25377 0.05998 0.25193 0.0
O25 O 0.27781 0.13812 0.19247 0.0
O26 O 0.29741 0.1441 0.06512 0.0
H27 H 0.28964 0.0522 0.87827 0.0
H28 H 0.26991 0.0758 0.84091 0.0
C29 C 0.28354 0.07099 0.89253 0.0
H30 H 0.2992 0.08362 0.88663 0.0
H31 H 0.3176 0.13719 0.86532 0.0
O32 O 0.24221 0.10767 0.2987 0.0
C33 C 0.2957 0.14701 0.14972 0.0
Co34 Co 0.88914 0.24553 0.18077 0.0
Co35 Co 0.87737 0.26712 0.99183 0.0
C36 C 0.85825 0.21779 0.0564 0.0
O37 O 0.86881 0.2186 0.13232 0.0
O38 O 0.85992 0.23521 0.00046 0.0
C39 C 0.88197 0.23664 0.35824 0.0
O40 O 0.86034 0.2322 0.32427 0.0
C41 C 0.87783 0.26071 0.79946 0.0
C42 C 0.87669 0.29804 0.74554 0.0
C43 C 0.87831 0.27379 0.72068 0.0
N44 N 0.87607 0.27629 0.86837 0.0
N45 N 0.87519 0.29865 0.83576 0.0
C46 C 0.8814 0.23391 0.80936 0.0
H47 H 0.89083 0.22977 0.87324 0.0
H48 H 0.89213 0.22639 0.75281 0.0
H49 H 0.86324 0.22511 0.80933 0.0
C50 C 0.93979 0.25062 0.11331 0.0
N51 N 0.91551 0.25312 0.10416 0.0
N52 N 0.9107 0.26299 0.02583 0.0
C53 C 0.93189 0.26723 0.98279 0.0
C54 C 0.95101 0.25954 0.03674 0.0
C55 C 0.95179 0.24052 0.19519 0.0
H56 H 0.94711 0.25211 0.25352 0.0
H57 H 0.94454 0.22203 0.2087 0.0
H58 H 0.97188 0.23974 0.188 0.0
O59 O 0.86866 0.27444 0.19854 0.0
O60 O 0.86044 0.29209 0.06923 0.0
H61 H 0.92304 0.29406 0.88402 0.0
H62 H 0.95287 0.28069 0.86979 0.0
C63 C 0.93378 0.27705 0.88955 0.0
H64 H 0.92626 0.26353 0.84208 0.0
H65 H 0.8742 0.31433 0.87504 0.0
O66 O 0.89976 0.23966 0.30501 0.0
C67 C 0.85875 0.29149 0.15447 0.0
Co68 Co 0.75968 0.88594 0.17755 0.0
Co69 Co 0.73602 0.87735 0.99062 0.0
C70 C 0.78555 0.85617 0.04725 0.0
O71 O 0.7866 0.8666 0.12337 0.0
O72 O 0.76697 0.85874 0.99736 0.0
C73 C 0.77606 0.90322 0.36902 0.0
O74 O 0.79364 0.91867 0.35137 0.0
C75 C 0.7452 0.88709 0.80369 0.0
C76 C 0.71266 0.87305 0.73405 0.0
C77 C 0.73493 0.88432 0.71978 0.0
N78 N 0.72956 0.87838 0.86515 0.0
N79 N 0.71008 0.87004 0.8232 0.0
C80 C 0.77024 0.8964 0.82468 0.0
H81 H 0.77525 0.89285 0.89513 0.0
H82 H 0.77103 0.91633 0.81448 0.0
H83 H 0.78376 0.88797 0.77896 0.0
C84 C 0.75404 0.93815 0.1197 0.0
N85 N 0.75158 0.91392 0.10803 0.0
N86 N 0.73991 0.90998 0.03235 0.0
C87 C 0.73386 0.93155 0.99523 0.0
C88 C 0.74288 0.95011 0.04866 0.0
C89 C 0.76631 0.94959 0.19838 0.0
H90 H 0.75719 0.94346 0.26061 0.0
H91 H 0.78554 0.94344 0.20078 0.0
H92 H 0.7657 0.96975 0.19495 0.0
O93 O 0.73033 0.86537 0.18933 0.0
O94 O 0.71058 0.85972 0.06192 0.0
H95 H 0.70733 0.91904 0.89962 0.0
H96 H 0.70981 0.95165 0.90684 0.0
C97 C 0.72015 0.93439 0.90905 0.0
H98 H 0.73318 0.93487 0.85263 0.0
H99 H 0.69525 0.86196 0.85516 0.0
O100 O 0.76489 0.89242 0.30619 0.0
C101 C 0.71238 0.85663 0.14639 0.0
Co102 Co 0.11666 0.75839 0.18404 0.0
Co103 Co 0.12746 0.73658 0.9953 0.0
C104 C 0.14825 0.78521 0.05981 0.0
O105 O 0.13737 0.78493 0.13512 0.0
O106 O 0.14579 0.7678 0.00429 0.0
C107 C 0.12461 0.76858 0.36046 0.0
O108 O 0.14605 0.77263 0.32448 0.0
C109 C 0.12448 0.7444 0.80455 0.0
C110 C 0.1332 0.70865 0.74546 0.0
C111 C 0.12728 0.73246 0.724 0.0
N112 N 0.12862 0.72854 0.87126 0.0
N113 N 0.13385 0.70713 0.83566 0.0
C114 C 0.11604 0.77005 0.81763 0.0
H115 H 0.11002 0.77312 0.88756 0.0
H116 H 0.10084 0.77413 0.77091 0.0
H117 H 0.13107 0.78272 0.80163 0.0
C118 C 0.06564 0.75447 0.11671 0.0
N119 N 0.08987 0.75143 0.10788 0.0
N120 N 0.09439 0.74092 0.03048 0.0
C121 C 0.07309 0.73636 0.98865 0.0
C122 C 0.0542 0.74498 0.04143 0.0
C123 C 0.05383 0.76556 0.19707 0.0
H124 H 0.05582 0.75293 0.2546 0.0
H125 H 0.06331 0.78273 0.21478 0.0
H126 H 0.03419 0.76914 0.18539 0.0
O127 O 0.13695 0.72907 0.201 0.0
O128 O 0.14415 0.71137 0.07083 0.0
H129 H 0.08427 0.70951 0.89274 0.0
H130 H 0.05226 0.71711 0.88777 0.0
C131 C 0.07081 0.72445 0.89889 0.0
H132 H 0.07443 0.7381 0.84598 0.0
H133 H 0.13788 0.69155 0.87277 0.0
O134 O 0.10662 0.76466 0.30883 0.0
C135 C 0.14647 0.71196 0.15583 0.0
Co136 Co 0.24669 0.88695 0.82591 0.0
Co137 Co 0.26993 0.87873 0.01308 0.0
C138 C 0.22071 0.85719 0.95616 0.0
O139 O 0.22005 0.86742 0.87969 0.0
O140 O 0.23892 0.86002 0.00771 0.0
C141 C 0.22979 0.90348 0.63293 0.0
O142 O 0.21279 0.91984 0.64695 0.0
C143 C 0.2614 0.88789 0.20025 0.0
C144 C 0.29342 0.87205 0.26792 0.0
C145 C 0.27136 0.88363 0.28371 0.0
N146 N 0.27684 0.87946 0.13774 0.0
N147 N 0.29605 0.87009 0.17845 0.0
C148 C 0.2367 0.89824 0.18045 0.0
H149 H 0.23204 0.89639 0.10867 0.0
H150 H 0.23629 0.91784 0.19772 0.0
H151 H 0.22278 0.88912 0.22248 0.0
C152 C 0.25234 0.93927 0.88195 0.0
N153 N 0.25462 0.91507 0.89491 0.0
N154 N 0.26604 0.91132 0.9712 0.0
C155 C 0.27211 0.93297 0.00758 0.0
C156 C 0.26338 0.95142 0.95283 0.0
C157 C 0.24046 0.95048 0.80199 0.0
H158 H 0.24969 0.94391 0.74057 0.0
H159 H 0.22117 0.94456 0.79916 0.0
H160 H 0.24131 0.97065 0.80407 0.0
O161 O 0.27602 0.8663 0.81358 0.0
O162 O 0.29537 0.86118 0.94199 0.0
H163 H 0.29845 0.92059 0.10418 0.0
H164 H 0.296 0.95321 0.09618 0.0
C165 C 0.28567 0.93595 0.09404 0.0
H166 H 0.27254 0.93651 0.15014 0.0
H167 H 0.3106 0.86182 0.14538 0.0
O168 O 0.24053 0.89334 0.69819 0.0
C169 C 0.29381 0.85763 0.85776 0.0
Co170 Co 0.11793 0.24592 0.81461 0.0
Co171 Co 0.12677 0.26777 0.00425 0.0
C172 C 0.14887 0.21955 0.94174 0.0
O173 O 0.13865 0.2198 0.86519 0.0
O174 O 0.14579 0.23681 0.99738 0.0
C175 C 0.10054 0.22935 0.62388 0.0
O176 O 0.08558 0.21131 0.641 0.0
C177 C 0.11885 0.25898 0.19141 0.0
C178 C 0.12784 0.29374 0.25763 0.0
C179 C 0.11952 0.27032 0.2738 0.0
N180 N 0.12587 0.27501 0.12871 0.0
N181 N 0.13127 0.29581 0.16849 0.0
C182 C 0.11317 0.23282 0.17262 0.0
H183 H 0.12939 0.22171 0.18941 0.0
H184 H 0.10855 0.23014 0.10105 0.0
H185 H 0.09796 0.22619 0.21452 0.0
C186 C 0.06587 0.25002 0.87399 0.0
N187 N 0.09009 0.2527 0.88593 0.0
N188 N 0.09397 0.26342 0.96349 0.0
C189 C 0.07231 0.26845 0.00202 0.0
C190 C 0.05385 0.25992 0.94711 0.0
C191 C 0.05448 0.23877 0.79319 0.0
H192 H 0.06097 0.24837 0.73244 0.0
H193 H 0.06026 0.21948 0.7887 0.0
H194 H 0.0343 0.23969 0.79589 0.0
O195 O 0.13759 0.27562 0.80311 0.0
O196 O 0.14396 0.29371 0.9331 0.0
H197 H 0.08314 0.29487 0.10032 0.0
H198 H 0.05089 0.28868 0.09865 0.0
C199 C 0.06921 0.2805 0.09117 0.0
H200 H 0.07124 0.26666 0.14448 0.0
H201 H 0.13727 0.31135 0.13496 0.0
O202 O 0.11111 0.24063 0.68688 0.0
C203 C 0.14647 0.29306 0.84817 0.0
Co204 Co 0.75869 0.11639 0.82266 0.0
Co205 Co 0.73626 0.1262 0.0104 0.0
C206 C 0.78534 0.1468 0.95109 0.0
O207 O 0.78574 0.13597 0.87567 0.0
O208 O 0.76719 0.1445 0.00312 0.0
C209 C 0.77473 0.09826 0.62822 0.0
O210 O 0.79144 0.08133 0.63727 0.0
C211 C 0.74505 0.12108 0.19872 0.0
C212 C 0.70973 0.12896 0.26292 0.0
C213 C 0.73355 0.12209 0.28087 0.0
N214 N 0.72877 0.12663 0.13477 0.0
N215 N 0.70767 0.1315 0.17334 0.0
C216 C 0.77138 0.11591 0.18042 0.0
H217 H 0.77347 0.10693 0.11438 0.0
H218 H 0.77974 0.10443 0.23297 0.0
H219 H 0.78145 0.13339 0.17863 0.0
C220 C 0.75277 0.06464 0.88371 0.0
N221 N 0.75059 0.08892 0.89475 0.0
N222 N 0.74036 0.09322 0.97285 0.0
C223 C 0.73546 0.07182 0.01342 0.0
C224 C 0.74319 0.05299 0.95843 0.0
C225 C 0.76337 0.05293 0.80234 0.0
H226 H 0.75364 0.05964 0.74212 0.0
H227 H 0.78277 0.05829 0.79634 0.0
H228 H 0.76199 0.0328 0.80521 0.0
O229 O 0.72963 0.13731 0.80609 0.0
O230 O 0.71129 0.14335 0.93608 0.0
H231 H 0.70993 0.08251 0.11486 0.0
H232 H 0.71854 0.05084 0.12016 0.0
C233 C 0.72512 0.06946 0.10581 0.0
H234 H 0.73957 0.07352 0.15529 0.0
H235 H 0.69188 0.13629 0.13865 0.0
O236 O 0.76544 0.10817 0.69681 0.0
C237 C 0.71232 0.14642 0.85146 0.0
Co238 Co 0.88808 0.75691 0.81255 0.0
Co239 Co 0.87797 0.7359 0.00328 0.0
C240 C 0.8584 0.78524 0.93823 0.0
O241 O 0.86862 0.78434 0.86162 0.0
O242 O 0.86065 0.76792 0.99447 0.0
C243 C 0.9066 0.77127 0.61867 0.0
O244 O 0.91667 0.79288 0.62544 0.0
C245 C 0.87733 0.74069 0.19751 0.0
C246 C 0.88966 0.70449 0.24226 0.0
C247 C 0.88545 0.72803 0.27204 0.0
N248 N 0.87803 0.72581 0.12618 0.0
N249 N 0.8846 0.70393 0.15394 0.0
C250 C 0.86855 0.76639 0.19385 0.0
H251 H 0.85108 0.76695 0.15677 0.0
H252 H 0.88215 0.77768 0.15794 0.0
H253 H 0.86521 0.77401 0.26143 0.0
C254 C 0.93943 0.75189 0.87361 0.0
N255 N 0.91523 0.7492 0.88573 0.0
N256 N 0.9112 0.74003 0.96577 0.0
C257 C 0.93287 0.73675 0.00714 0.0
C258 C 0.95141 0.74394 0.95001 0.0
C259 C 0.9507 0.76169 0.79004 0.0
H260 H 0.9453 0.75008 0.73261 0.0
H261 H 0.94366 0.7803 0.77749 0.0
H262 H 0.97086 0.76217 0.79459 0.0
O263 O 0.86643 0.72881 0.79818 0.0
O264 O 0.86012 0.7111 0.92861 0.0
H265 H 0.93032 0.70969 0.10922 0.0
H266 H 0.95518 0.73056 0.12503 0.0
C267 C 0.93602 0.72893 0.10236 0.0
H268 H 0.92469 0.74052 0.14619 0.0
H269 H 0.88739 0.6891 0.11156 0.0
O270 O 0.89748 0.76122 0.68712 0.0
C271 C 0.85681 0.71199 0.84415 0.0
Co272 Co 0.74534 0.61651 0.68321 0.0
Co273 Co 0.76626 0.62675 0.49302 0.0
C274 C 0.71703 0.6462 0.55724 0.0
O275 O 0.71814 0.63638 0.63435 0.0
O276 O 0.73426 0.64397 0.5009 0.0
C277 C 0.73003 0.59799 0.87496 0.0
O278 O 0.71156 0.58324 0.86178 0.0
C279 C 0.7586 0.62167 0.30323 0.0
C280 C 0.79525 0.62474 0.244 0.0
C281 C 0.77112 0.61987 0.22345 0.0
N282 N 0.77454 0.62662 0.36889 0.0
N283 N 0.79646 0.62871 0.33311 0.0
C284 C 0.73174 0.61975 0.31723 0.0
H285 H 0.7279 0.6086 0.37753 0.0
H286 H 0.7221 0.61213 0.25847 0.0
H287 H 0.72463 0.63836 0.32869 0.0
C288 C 0.75117 0.56494 0.62157 0.0
N289 N 0.75303 0.58924 0.61025 0.0
N290 N 0.7631 0.59366 0.53195 0.0
C291 C 0.76832 0.57226 0.49184 0.0
C292 C 0.76085 0.55339 0.54696 0.0
C293 C 0.74085 0.55311 0.70317 0.0
H294 H 0.75077 0.55971 0.76311 0.0
H295 H 0.72146 0.55845 0.71008 0.0
H296 H 0.74223 0.53299 0.6998 0.0
O297 O 0.77435 0.63711 0.69735 0.0
O298 O 0.79124 0.64479 0.56603 0.0
H299 H 0.79486 0.58211 0.39324 0.0
H300 H 0.78462 0.55098 0.38466 0.0
C301 C 0.77896 0.56986 0.4001 0.0
H302 H 0.76498 0.57506 0.35049 0.0
H303 H 0.81228 0.63216 0.36969 0.0
O304 O 0.74026 0.60839 0.80939 0.0
C305 C 0.79107 0.64685 0.65113 0.0
Co306 Co 0.38793 0.74624 0.6866 0.0
Co307 Co 0.37733 0.76857 0.49874 0.0
C308 C 0.35636 0.71992 0.56154 0.0
O309 O 0.36721 0.71988 0.63688 0.0
O310 O 0.35884 0.73757 0.50729 0.0
C311 C 0.40671 0.73025 0.88051 0.0
O312 O 0.42448 0.71447 0.8708 0.0
C313 C 0.38462 0.7599 0.31072 0.0
C314 C 0.37037 0.79278 0.24391 0.0
C315 C 0.3811 0.77035 0.22757 0.0
N316 N 0.37668 0.77546 0.37369 0.0
N317 N 0.36813 0.79512 0.3335 0.0
C318 C 0.39399 0.73481 0.32992 0.0
H319 H 0.39445 0.73113 0.40276 0.0
H320 H 0.41267 0.73263 0.30323 0.0
H321 H 0.38226 0.72121 0.29591 0.0
C322 C 0.43935 0.75043 0.62008 0.0
N323 N 0.41506 0.75337 0.61168 0.0
N324 N 0.41048 0.76451 0.53547 0.0
C325 C 0.43176 0.76977 0.49462 0.0
C326 C 0.45074 0.76061 0.5459 0.0
C327 C 0.45134 0.73893 0.69927 0.0
H328 H 0.44588 0.74888 0.76063 0.0
H329 H 0.44493 0.71987 0.70562 0.0
H330 H 0.47149 0.7392 0.69351 0.0
O331 O 0.36812 0.77594 0.70292 0.0
O332 O 0.36051 0.79392 0.57313 0.0
H333 H 0.41849 0.79575 0.39838 0.0
H334 H 0.45112 0.79365 0.40407 0.0
C335 C 0.43399 0.78309 0.40749 0.0
H336 H 0.43431 0.76978 0.3518 0.0
H337 H 0.36063 0.81 0.367 0.0
O338 O 0.39637 0.73936 0.81236 0.0
C339 C 0.35873 0.79327 0.65836 0.0
Co340 Co 0.25857 0.3876 0.68544 0.0
Co341 Co 0.23674 0.37795 0.4971 0.0
C342 C 0.28533 0.35672 0.55954 0.0
O343 O 0.28519 0.3674 0.63514 0.0
O344 O 0.26776 0.35926 0.50489 0.0
C345 C 0.27506 0.40546 0.87844 0.0
O346 O 0.29167 0.42235 0.86685 0.0
C347 C 0.24529 0.3855 0.30959 0.0
C348 C 0.21182 0.37241 0.24341 0.0
C349 C 0.23452 0.38256 0.22677 0.0
N350 N 0.22967 0.37782 0.37267 0.0
N351 N 0.20964 0.36998 0.33294 0.0
C352 C 0.27068 0.39413 0.32846 0.0
H353 H 0.27433 0.39479 0.4013 0.0
H354 H 0.27348 0.4126 0.30073 0.0
H355 H 0.28391 0.38181 0.29533 0.0
C356 C 0.25387 0.43943 0.62314 0.0
N357 N 0.25132 0.41517 0.61272 0.0
N358 N 0.24064 0.4109 0.5354 0.0
C359 C 0.23537 0.43233 0.49555 0.0
C360 C 0.24396 0.45111 0.54895 0.0
C361 C 0.26474 0.45114 0.70409 0.0
H362 H 0.28419 0.44585 0.70911 0.0
H363 H 0.26324 0.47126 0.70141 0.0
H364 H 0.25525 0.44438 0.76468 0.0
O365 O 0.22908 0.36728 0.7 0.0
O366 O 0.21121 0.36099 0.56938 0.0
H367 H 0.2127 0.45223 0.4018 0.0
H368 H 0.23642 0.43456 0.35275 0.0
C369 C 0.22271 0.43482 0.4071 0.0
H370 H 0.20964 0.41971 0.39727 0.0
H371 H 0.19463 0.36284 0.36671 0.0
O372 O 0.26517 0.39525 0.8116 0.0
C373 C 0.21182 0.35821 0.65417 0.0
Co374 Co 0.61852 0.25938 0.68315 0.0
Co375 Co 0.62768 0.23584 0.49604 0.0
C376 C 0.64858 0.28529 0.55425 0.0
O377 O 0.6379 0.28637 0.62983 0.0
O378 O 0.64609 0.26679 0.50411 0.0
C379 C 0.60092 0.27587 0.87367 0.0
O380 O 0.58467 0.29256 0.85396 0.0
C381 C 0.61808 0.24576 0.30943 0.0
C382 C 0.63343 0.2142 0.23777 0.0
C383 C 0.62149 0.23618 0.22492 0.0
N384 N 0.62707 0.23 0.37005 0.0
N385 N 0.63622 0.21111 0.32684 0.0
C386 C 0.60781 0.27032 0.33175 0.0
H387 H 0.61664 0.28445 0.28979 0.0
H388 H 0.61016 0.27463 0.40359 0.0
H389 H 0.5881 0.27086 0.31638 0.0
C390 C 0.56633 0.2526 0.62446 0.0
N391 N 0.59066 0.2508 0.613 0.0
N392 N 0.59491 0.23938 0.53707 0.0
C393 C 0.57352 0.23297 0.49929 0.0
C394 C 0.55466 0.24135 0.55285 0.0
C395 C 0.55452 0.2642 0.70371 0.0
H396 H 0.5616 0.25563 0.76568 0.0
H397 H 0.55935 0.2838 0.70513 0.0
H398 H 0.53442 0.26224 0.70181 0.0
O399 O 0.63947 0.23033 0.69401 0.0
O400 O 0.64541 0.21035 0.56759 0.0
H401 H 0.58677 0.20729 0.402 0.0
H402 H 0.55414 0.20931 0.40681 0.0
C403 C 0.57121 0.21984 0.41167 0.0
H404 H 0.57077 0.23324 0.35652 0.0
H405 H 0.64471 0.19636 0.35792 0.0
O406 O 0.61227 0.26466 0.81225 0.0
C407 C 0.64855 0.2124 0.65203 0.0
Co408 Co 0.74763 0.38732 0.31804 0.0
Co409 Co 0.76939 0.37764 0.50659 0.0
C410 C 0.72059 0.35692 0.44449 0.0
O411 O 0.72086 0.3674 0.36849 0.0
O412 O 0.73814 0.35939 0.49926 0.0
C413 C 0.73143 0.40541 0.12481 0.0
O414 O 0.71478 0.4223 0.13572 0.0
C415 C 0.76115 0.38515 0.69435 0.0
C416 C 0.7949 0.3724 0.75962 0.0
C417 C 0.77216 0.38238 0.77685 0.0
N418 N 0.77669 0.37755 0.63086 0.0
N419 N 0.79688 0.36991 0.67005 0.0
C420 C 0.73566 0.39361 0.67622 0.0
H421 H 0.73198 0.39465 0.60345 0.0
H422 H 0.73261 0.41188 0.70533 0.0
H423 H 0.7226 0.38096 0.70848 0.0
C424 C 0.75249 0.43909 0.3802 0.0
N425 N 0.75508 0.41483 0.39063 0.0
N426 N 0.76579 0.41058 0.46795 0.0
C427 C 0.77104 0.43202 0.50769 0.0
C428 C 0.76255 0.45077 0.45396 0.0
C429 C 0.741 0.45079 0.30044 0.0
H430 H 0.75091 0.44508 0.23929 0.0
H431 H 0.7219 0.44442 0.29453 0.0
H432 H 0.74129 0.47094 0.30535 0.0
O433 O 0.77688 0.36663 0.30331 0.0
O434 O 0.7946 0.36022 0.43416 0.0
H435 H 0.79687 0.41992 0.60646 0.0
H436 H 0.79254 0.45241 0.60364 0.0
C437 C 0.78331 0.43461 0.59682 0.0
H438 H 0.76944 0.43362 0.65044 0.0
H439 H 0.81188 0.36288 0.63587 0.0
O440 O 0.74112 0.39521 0.19205 0.0
C441 C 0.79398 0.35733 0.34942 0.0
Co442 Co 0.6173 0.74589 0.31652 0.0
Co443 Co 0.6263 0.76894 0.50377 0.0
C444 C 0.64702 0.71942 0.44559 0.0
O445 O 0.63634 0.71865 0.36987 0.0
O446 O 0.64464 0.73784 0.49642 0.0
C447 C 0.59971 0.72999 0.12433 0.0
O448 O 0.58492 0.71169 0.13959 0.0
C449 C 0.61975 0.75962 0.69159 0.0
C450 C 0.62617 0.79503 0.75722 0.0
C451 C 0.61943 0.77113 0.77388 0.0
N452 N 0.62572 0.77603 0.62866 0.0
N453 N 0.6297 0.79719 0.66816 0.0
C454 C 0.61578 0.73314 0.67245 0.0
H455 H 0.60451 0.731 0.61127 0.0
H456 H 0.60726 0.7234 0.72916 0.0
H457 H 0.63367 0.72447 0.65973 0.0
C458 C 0.56525 0.75105 0.37581 0.0
N459 N 0.58948 0.75394 0.38669 0.0
N460 N 0.59349 0.76493 0.46359 0.0
C461 C 0.57193 0.7699 0.50289 0.0
C462 C 0.55332 0.76099 0.44932 0.0
C463 C 0.55381 0.73941 0.2958 0.0
H464 H 0.5603 0.7487 0.23441 0.0
H465 H 0.55959 0.72009 0.29238 0.0
H466 H 0.53364 0.7404 0.29841 0.0
O467 O 0.63857 0.77477 0.30383 0.0
O468 O 0.64384 0.79418 0.43186 0.0
H469 H 0.58295 0.79645 0.6002 0.0
H470 H 0.55083 0.78983 0.60149 0.0
C471 C 0.56918 0.78188 0.59234 0.0
H472 H 0.57185 0.76807 0.64544 0.0
H473 H 0.63452 0.81309 0.63437 0.0
O474 O 0.61012 0.74083 0.18875 0.0
C475 C 0.64746 0.79246 0.34773 0.0
Co476 Co 0.25862 0.6179 0.32262 0.0
Co477 Co 0.23523 0.62649 0.50975 0.0
C478 C 0.28441 0.64815 0.45144 0.0
O479 O 0.28523 0.63786 0.37509 0.0
O480 O 0.26617 0.64527 0.50269 0.0
C481 C 0.27517 0.60045 0.13176 0.0
O482 O 0.29298 0.58526 0.14975 0.0
C483 C 0.24425 0.61607 0.69616 0.0
C484 C 0.21248 0.63154 0.76636 0.0
C485 C 0.23428 0.61933 0.78034 0.0
N486 N 0.22888 0.62547 0.63506 0.0
N487 N 0.20984 0.63463 0.6773 0.0
C488 C 0.26884 0.60574 0.67436 0.0
H489 H 0.27473 0.61109 0.60644 0.0
H490 H 0.26811 0.58562 0.67564 0.0
H491 H 0.28247 0.61168 0.72471 0.0
C492 C 0.25419 0.56575 0.38282 0.0
N493 N 0.25116 0.58996 0.39329 0.0
N494 N 0.23919 0.59388 0.46824 0.0
C495 C 0.2333 0.57231 0.5056 0.0
C496 C 0.24311 0.55377 0.45403 0.0
C497 C 0.26662 0.55433 0.30447 0.0
H498 H 0.25754 0.56041 0.24203 0.0
H499 H 0.28583 0.56054 0.30248 0.0
H500 H 0.26606 0.53416 0.30785 0.0
O501 O 0.22898 0.63815 0.31097 0.0
O502 O 0.20963 0.64397 0.43897 0.0
H503 H 0.20694 0.58567 0.60054 0.0
H504 H 0.20622 0.55338 0.58391 0.0
C505 C 0.21837 0.56938 0.58886 0.0
H506 H 0.23052 0.56632 0.64698 0.0
H507 H 0.19534 0.64338 0.6456 0.0
O508 O 0.26387 0.6112 0.19432 0.0
C509 C 0.21113 0.64691 0.35438 0.0
Co510 Co 0.38823 0.2587 0.32592 0.0
Co511 Co 0.37885 0.23551 0.51301 0.0
C512 C 0.3574 0.28459 0.45309 0.0
O513 O 0.36813 0.28541 0.37756 0.0
O514 O 0.36002 0.26634 0.50449 0.0
C515 C 0.40609 0.2749 0.13489 0.0
O516 O 0.42188 0.2922 0.15236 0.0
C517 C 0.3884 0.24483 0.70005 0.0
C518 C 0.37411 0.21244 0.76968 0.0
C519 C 0.38562 0.23458 0.78393 0.0
N520 N 0.3795 0.22928 0.63861 0.0
N521 N 0.37097 0.2099 0.68057 0.0
C522 C 0.39811 0.2697 0.679 0.0
H523 H 0.39086 0.2832 0.7274 0.0
H524 H 0.39362 0.27517 0.60974 0.0
H525 H 0.41819 0.26988 0.68492 0.0
C526 C 0.44029 0.2528 0.38627 0.0
N527 N 0.41597 0.2508 0.39733 0.0
N528 N 0.41169 0.23933 0.47309 0.0
C529 C 0.4331 0.23296 0.51101 0.0
C530 C 0.45195 0.24154 0.45787 0.0
C531 C 0.45207 0.26447 0.3071 0.0
H532 H 0.4456 0.25539 0.24522 0.0
H533 H 0.44654 0.28387 0.30408 0.0
H534 H 0.47222 0.26322 0.31038 0.0
O535 O 0.36806 0.22918 0.31343 0.0
O536 O 0.36168 0.20981 0.44108 0.0
H537 H 0.41989 0.20669 0.60621 0.0
H538 H 0.45251 0.20877 0.60151 0.0
C539 C 0.43543 0.21931 0.59757 0.0
H540 H 0.43586 0.23236 0.65387 0.0
H541 H 0.36279 0.19513 0.6486 0.0
O542 O 0.39512 0.26399 0.19782 0.0
C543 C 0.35916 0.21132 0.35625 0.0
C544 C 0.24627 0.13898 0.60033 0.0
C545 C 0.26628 0.12452 0.62518 0.0
C546 C 0.23688 0.13821 0.51308 0.0
C547 C 0.24683 0.12257 0.44817 0.0
H548 H 0.2384 0.15166 0.64767 0.0
H549 H 0.22207 0.15038 0.4957 0.0
S550 S 0.29889 0.08037 0.48146 0.0
N551 N 0.29547 0.09382 0.57952 0.0
N552 N 0.27756 0.09185 0.41583 0.0
C553 C 0.26637 0.10741 0.4733 0.0
C554 C 0.27622 0.10859 0.56169 0.0
C555 C 0.86454 0.24548 0.60076 0.0
C556 C 0.88056 0.26382 0.62935 0.0
C557 C 0.86598 0.2359 0.5141 0.0
C558 C 0.88376 0.24401 0.4533 0.0
H559 H 0.85035 0.23894 0.64499 0.0
H560 H 0.85268 0.22241 0.49391 0.0
S561 S 0.93076 0.29107 0.49792 0.0
N562 N 0.91516 0.28931 0.59218 0.0
N563 N 0.91827 0.27109 0.42927 0.0
C564 C 0.90048 0.26179 0.48238 0.0
C565 C 0.8987 0.27184 0.57031 0.0
C566 C 0.75802 0.87574 0.48353 0.0
C567 C 0.76765 0.89873 0.46153 0.0
C568 C 0.74755 0.8713 0.56735 0.0
C569 C 0.74616 0.88972 0.63214 0.0
H570 H 0.75838 0.86105 0.43515 0.0
H571 H 0.74047 0.85331 0.58157 0.0
S572 S 0.76663 0.95364 0.60538 0.0
N573 N 0.77426 0.94038 0.51021 0.0
N574 N 0.75373 0.93227 0.66691 0.0
C575 C 0.75547 0.91286 0.61098 0.0
C576 C 0.76647 0.91731 0.52587 0.0
C577 C 0.10676 0.74424 0.48573 0.0
C578 C 0.1232 0.76226 0.45658 0.0
C579 C 0.10813 0.73465 0.57269 0.0
C580 C 0.12563 0.74312 0.63367 0.0
H581 H 0.09348 0.73666 0.43991 0.0
H582 H 0.09557 0.7204 0.59213 0.0
S583 S 0.17209 0.79069 0.59253 0.0
N584 N 0.157 0.78866 0.49715 0.0
N585 N 0.1593 0.77077 0.66061 0.0
C586 C 0.14161 0.76162 0.60663 0.0
C587 C 0.14044 0.77118 0.51802 0.0
C588 C 0.24954 0.91102 0.39128 0.0
C589 C 0.25998 0.88823 0.37169 0.0
C590 C 0.23876 0.91562 0.47477 0.0
C591 C 0.23835 0.89765 0.54163 0.0
H592 H 0.25031 0.92564 0.34286 0.0
H593 H 0.23156 0.93361 0.48812 0.0
S594 S 0.26126 0.83429 0.52031 0.0
N595 N 0.26785 0.84711 0.42337 0.0
N596 N 0.24784 0.85565 0.58039 0.0
C597 C 0.24822 0.8746 0.52186 0.0
C598 C 0.25908 0.86995 0.43699 0.0
C599 C 0.1279 0.24801 0.5107 0.0
C600 C 0.10503 0.23791 0.53175 0.0
C601 C 0.13237 0.25853 0.42704 0.0
C602 C 0.11409 0.25945 0.36168 0.0
H603 H 0.14249 0.24793 0.55961 0.0
H604 H 0.15027 0.26593 0.41328 0.0
S605 S 0.0505 0.2377 0.38555 0.0
N606 N 0.06361 0.23045 0.48152 0.0
N607 N 0.0718 0.25101 0.32482 0.0
C608 C 0.09103 0.24979 0.38191 0.0
C609 C 0.08656 0.23874 0.46683 0.0
C610 C 0.76589 0.08825 0.46784 0.0
C611 C 0.76508 0.10499 0.53895 0.0
C612 C 0.75537 0.0938 0.38469 0.0
C613 C 0.74406 0.11639 0.36938 0.0
H614 H 0.77418 0.07053 0.47703 0.0
H615 H 0.75585 0.08018 0.33227 0.0
S616 S 0.73816 0.16705 0.53108 0.0
N617 N 0.75254 0.14549 0.58718 0.0
N618 N 0.73305 0.15574 0.43044 0.0
C619 C 0.7432 0.13331 0.43934 0.0
C620 C 0.75376 0.1277 0.52411 0.0
C621 C 0.90793 0.7719 0.45104 0.0
C622 C 0.90362 0.75906 0.53071 0.0
C623 C 0.90271 0.76147 0.36763 0.0
C624 C 0.89233 0.73808 0.36068 0.0
H625 H 0.91497 0.7903 0.45289 0.0
H626 H 0.90682 0.77196 0.30824 0.0
S627 S 0.8822 0.69495 0.54739 0.0
N628 N 0.89209 0.72002 0.59623 0.0
N629 N 0.88131 0.70109 0.43935 0.0
C630 C 0.88954 0.72442 0.43916 0.0
C631 C 0.89525 0.7348 0.52417 0.0
C632 C 0.76385 0.62949 0.06328 0.0
C633 C 0.76109 0.61338 0.1351 0.0
C634 C 0.7534 0.62438 0.97995 0.0
C635 C 0.73979 0.60295 0.96544 0.0
H636 H 0.77381 0.64634 0.07199 0.0
H637 H 0.7559 0.6375 0.92658 0.0
S638 S 0.72933 0.55381 0.13094 0.0
N639 N 0.74543 0.57436 0.18572 0.0
N640 N 0.72532 0.56493 0.02925 0.0
C641 C 0.73726 0.58649 0.03664 0.0
C642 C 0.74811 0.59162 0.12138 0.0
C643 C 0.41067 0.75068 0.12271 0.0
C644 C 0.38715 0.75978 0.13941 0.0
C645 C 0.41671 0.74038 0.03971 0.0
C646 C 0.39952 0.7392 0.97011 0.0
H647 H 0.42472 0.75206 0.17331 0.0
H648 H 0.43516 0.73401 0.02917 0.0
S649 S 0.33498 0.75925 0.98213 0.0
N650 N 0.34635 0.76604 0.08145 0.0
N651 N 0.35763 0.74707 0.92487 0.0
C652 C 0.37585 0.74808 0.98641 0.0
C653 C 0.36971 0.75837 0.07107 0.0
C654 C 0.25546 0.41098 0.12097 0.0
C655 C 0.24523 0.388 0.13846 0.0
C656 C 0.26596 0.41631 0.03766 0.0
C657 C 0.2662 0.39893 0.96871 0.0
H658 H 0.2548 0.42519 0.17107 0.0
H659 H 0.27319 0.43439 0.0263 0.0
S660 S 0.24279 0.3356 0.98295 0.0
N661 N 0.23673 0.34751 0.08191 0.0
N662 N 0.25616 0.3574 0.92496 0.0
C663 C 0.25618 0.37578 0.98591 0.0
C664 C 0.24565 0.37038 0.07075 0.0
C665 C 0.63443 0.25147 0.0758 0.0
C666 C 0.61575 0.24772 0.13815 0.0
C667 C 0.62951 0.26157 0.99165 0.0
C668 C 0.60573 0.26849 0.96712 0.0
H669 H 0.65299 0.24637 0.09197 0.0
H670 H 0.64441 0.26364 0.94476 0.0
S671 S 0.55024 0.26165 0.10574 0.0
N672 N 0.57244 0.25097 0.16931 0.0
N673 N 0.56327 0.27069 0.01178 0.0
C674 C 0.58693 0.26533 0.02966 0.0
C675 C 0.59192 0.25472 0.1151 0.0
C676 C 0.74078 0.41624 0.96581 0.0
C677 C 0.74055 0.39889 0.03488 0.0
C678 C 0.75134 0.41089 0.88265 0.0
C679 C 0.76162 0.3879 0.86536 0.0
H680 H 0.73346 0.43429 0.97691 0.0
H681 H 0.75197 0.42506 0.83241 0.0
S682 S 0.76434 0.33566 0.02152 0.0
N683 N 0.75083 0.35745 0.07922 0.0
N684 N 0.77034 0.34751 0.92242 0.0
C685 C 0.7613 0.37035 0.93329 0.0
C686 C 0.75072 0.37577 0.01804 0.0
C687 C 0.62612 0.75193 0.01547 0.0
C688 C 0.60432 0.7392 0.03277 0.0
C689 C 0.63072 0.76235 0.93169 0.0
C690 C 0.61374 0.76041 0.86201 0.0
H691 H 0.63982 0.7539 0.06718 0.0
H692 H 0.6478 0.77179 0.92112 0.0
S693 S 0.55289 0.73131 0.87455 0.0
N694 N 0.56504 0.72646 0.97418 0.0
N695 N 0.57347 0.74665 0.81707 0.0
C696 C 0.59165 0.74826 0.87856 0.0
C697 C 0.58703 0.73741 0.96377 0.0
C698 C 0.25684 0.62777 0.01741 0.0
C699 C 0.26685 0.60491 0.0391 0.0
C700 C 0.24645 0.63218 0.93343 0.0
C701 C 0.24554 0.61389 0.86803 0.0
H702 H 0.25683 0.64237 0.06615 0.0
H703 H 0.23907 0.65008 0.91958 0.0
S704 S 0.26731 0.55032 0.89358 0.0
N705 N 0.27444 0.56352 0.98943 0.0
N706 N 0.25409 0.57157 0.83225 0.0
C707 C 0.25528 0.59087 0.88881 0.0
C708 C 0.26619 0.58646 0.97419 0.0
C709 C 0.37811 0.25712 0.02134 0.0
C710 C 0.40124 0.26665 0.04241 0.0
C711 C 0.37329 0.24686 0.93745 0.0
C712 C 0.39143 0.24561 0.87159 0.0
H713 H 0.36361 0.2574 0.07048 0.0
H714 H 0.35521 0.23985 0.92403 0.0
S715 S 0.45554 0.26592 0.89543 0.0
N716 N 0.44271 0.27331 0.99163 0.0
N717 N 0.43386 0.25322 0.83467 0.0
C718 C 0.4147 0.25482 0.89176 0.0
C719 C 0.41954 0.26559 0.977 0.0
C720 C 0.31155 0.16374 0.2953 0.0
C721 C 0.31388 0.16162 0.20126 0.0
C722 C 0.32688 0.17895 0.34573 0.0
C723 C 0.34513 0.19285 0.3044 0.0
H724 H 0.29737 0.15398 0.33062 0.0
H725 H 0.32377 0.1805 0.41711 0.0
S726 S 0.361 0.19177 0.06224 0.0
N727 N 0.33745 0.17326 0.07052 0.0
N728 N 0.36622 0.20176 0.16465 0.0
C729 C 0.34846 0.19003 0.21111 0.0
C730 C 0.3329 0.17447 0.15981 0.0
C731 C 0.81247 0.34121 0.20732 0.0
C732 C 0.81249 0.34218 0.30186 0.0
C733 C 0.82797 0.32548 0.15992 0.0
C734 C 0.84427 0.30999 0.20489 0.0
H735 H 0.80002 0.35242 0.16913 0.0
H736 H 0.82663 0.325 0.0876 0.0
S737 S 0.85354 0.30731 0.45179 0.0
N738 N 0.8316 0.32748 0.4382 0.0
N739 N 0.86092 0.2982 0.35011 0.0
C740 C 0.84532 0.31162 0.29941 0.0
C741 C 0.82946 0.32762 0.34755 0.0
C742 C 0.66477 0.80874 0.20379 0.0
C743 C 0.66258 0.81058 0.29793 0.0
C744 C 0.68008 0.82425 0.15467 0.0
C745 C 0.69407 0.84219 0.19745 0.0
H746 H 0.65488 0.79486 0.16729 0.0
H747 H 0.68157 0.82157 0.08304 0.0
S748 S 0.69321 0.85653 0.44093 0.0
N749 N 0.67448 0.83322 0.43065 0.0
N750 N 0.70323 0.8623 0.33899 0.0
C751 C 0.69134 0.84494 0.29104 0.0
C752 C 0.67564 0.8292 0.341 0.0
C753 C 0.17866 0.67915 0.34762 0.0
C754 C 0.19272 0.6614 0.30397 0.0
C755 C 0.16335 0.69485 0.29921 0.0
C756 C 0.16127 0.69344 0.20495 0.0
H757 H 0.18013 0.68154 0.41939 0.0
H758 H 0.15349 0.70861 0.33636 0.0
S759 S 0.19197 0.64805 0.05974 0.0
N760 N 0.20194 0.64186 0.16148 0.0
N761 N 0.17323 0.67133 0.07111 0.0
C762 C 0.17434 0.67498 0.161 0.0
C763 C 0.19002 0.65902 0.21025 0.0
C764 C 0.32484 0.8238 0.66627 0.0
C765 C 0.34435 0.81183 0.70805 0.0
C766 C 0.30913 0.83892 0.71516 0.0
C767 C 0.3122 0.84282 0.80805 0.0
H768 H 0.32109 0.8208 0.59592 0.0
H769 H 0.2941 0.84724 0.67965 0.0
S770 S 0.36296 0.81869 0.94616 0.0
N771 N 0.3676 0.80696 0.84585 0.0
N772 N 0.33802 0.83532 0.93743 0.0
C773 C 0.33245 0.83196 0.84965 0.0
C774 C 0.34848 0.8165 0.79982 0.0
C775 C 0.17828 0.326 0.84389 0.0
C776 C 0.16083 0.31182 0.7991 0.0
C777 C 0.19402 0.34146 0.79648 0.0
C778 C 0.19307 0.34346 0.70217 0.0
H779 H 0.18042 0.32452 0.91578 0.0
H780 H 0.20744 0.35156 0.83437 0.0
S781 S 0.14834 0.31276 0.55413 0.0
N782 N 0.1418 0.30271 0.65539 0.0
N783 N 0.17152 0.33154 0.567 0.0
C784 C 0.17482 0.33038 0.65708 0.0
C785 C 0.15874 0.31464 0.70528 0.0
C786 C 0.69216 0.16047 0.70926 0.0
C787 C 0.69405 0.16172 0.80346 0.0
C788 C 0.67702 0.17637 0.66075 0.0
C789 C 0.66309 0.19427 0.70434 0.0
H790 H 0.70273 0.14723 0.67227 0.0
H791 H 0.67671 0.17495 0.58845 0.0
S792 S 0.65982 0.20372 0.95112 0.0
N793 N 0.67953 0.18134 0.93869 0.0
N794 N 0.65095 0.21102 0.84907 0.0
C795 C 0.66406 0.19502 0.79911 0.0
C796 C 0.67948 0.1788 0.8482 0.0
C797 C 0.81994 0.68214 0.65755 0.0
C798 C 0.80958 0.66173 0.69902 0.0
C799 C 0.83511 0.69805 0.70534 0.0
C800 C 0.84106 0.69404 0.7963 0.0
H801 H 0.81557 0.68641 0.58858 0.0
H802 H 0.84185 0.71397 0.67058 0.0
S803 S 0.82014 0.64189 0.93388 0.0
N804 N 0.80719 0.63755 0.83539 0.0
N805 N 0.83612 0.6672 0.92429 0.0
C806 C 0.83138 0.67323 0.83781 0.0
C807 C 0.81563 0.65715 0.7894 0.0
C808 C 0.24206 0.01528 0.00975 0.0
C809 C 0.26403 0.02823 0.01779 0.0
C810 C 0.24198 0.99049 0.98685 0.0
C811 C 0.26385 0.97791 0.97103 0.0
H812 H 0.22484 0.02444 0.02056 0.0
H813 H 0.22472 0.98101 0.98238 0.0
S814 S 0.32613 0.00364 0.98233 0.0
N815 N 0.30818 0.02657 0.00992 0.0
N816 N 0.30793 0.98037 0.96179 0.0
C817 C 0.28588 0.99073 0.97776 0.0
C818 C 0.28599 0.0158 0.00259 0.0
C819 C 0.01516 0.23817 0.98366 0.0
C820 C 0.02743 0.2601 0.96617 0.0
C821 C 0.99045 0.23812 0.00793 0.0
C822 C 0.9773 0.25999 0.01504 0.0
H823 H 0.02483 0.22101 0.9797 0.0
H824 H 0.98152 0.22088 0.02055 0.0
S825 S 1.00112 0.32212 0.97509 0.0
N826 N 0.02462 0.30409 0.95582 0.0
N827 N 0.97834 0.30405 0.00327 0.0
C828 C 0.98939 0.28198 0.99748 0.0
C829 C 0.01444 0.28202 0.97242 0.0
C830 C 0.76452 0.98873 0.01018 0.0
C831 C 0.74261 0.97651 0.02876 0.0
C832 C 0.76456 0.01342 0.98559 0.0
C833 C 0.74268 0.02659 0.97868 0.0
H834 H 0.78169 0.97907 0.01387 0.0
H835 H 0.7818 0.02233 0.97281 0.0
S836 S 0.68055 0.00289 0.02063 0.0
N837 N 0.69863 0.97951 0.04113 0.0
N838 N 0.69858 0.02548 0.99023 0.0
C839 C 0.72069 0.01448 0.99638 0.0
C840 C 0.72069 0.98954 0.0228 0.0
C841 C 0.99094 0.76586 0.97309 0.0
C842 C 0.97786 0.74389 0.96951 0.0
C843 C 0.01562 0.76618 0.9982 0.0
C844 C 0.02791 0.74452 0.01997 0.0
H845 H 0.98193 0.7829 0.95775 0.0
H846 H 0.0252 0.7834 -2e-05 0.0
S847 S 1.00186 0.68238 0.02034 0.0
N848 N 0.97902 0.70004 0.98916 0.0
N849 N 0.02532 0.70068 0.03655 0.0
C850 C 0.01505 0.7225 0.01636 0.0
C851 C 0.99002 0.72217 0.99101 0.0
C852 C 0.74034 0.48913 0.49184 0.0
C853 C 0.76246 0.47707 0.47533 0.0
C854 C 0.73995 0.51374 0.51724 0.0
C855 C 0.76168 0.52701 0.52675 0.0
H856 H 0.72326 0.47939 0.4858 0.0
H857 H 0.72256 0.52255 0.52839 0.0
S858 S 0.82426 0.50375 0.49094 0.0
N859 N 0.80651 0.48025 0.46854 0.0
N860 N 0.80585 0.52624 0.51933 0.0
C861 C 0.78388 0.51508 0.51099 0.0
C862 C 0.78426 0.49016 0.48431 0.0
C863 C 0.48967 0.78227 0.51048 0.0
C864 C 0.47696 0.76032 0.52246 0.0
C865 C 0.51423 0.78236 0.48455 0.0
C866 C 0.52698 0.76048 0.47085 0.0
H867 H 0.48058 0.79951 0.52152 0.0
H868 H 0.52337 0.79965 0.47573 0.0
S869 S 0.50202 0.69818 0.4943 0.0
N870 N 0.4788 0.71619 0.51786 0.0
N871 N 0.52521 0.71634 0.47199 0.0
C872 C 0.51451 0.73843 0.48284 0.0
C873 C 0.48946 0.73835 0.50847 0.0
C874 C 0.22208 0.48982 0.51177 0.0
C875 C 0.24409 0.47744 0.52723 0.0
C876 C 0.22189 0.51436 0.48582 0.0
C877 C 0.24369 0.52748 0.47619 0.0
H878 H 0.20486 0.48044 0.51951 0.0
H879 H 0.20456 0.5231 0.47297 0.0
S880 S 0.30611 0.50358 0.51066 0.0
N881 N 0.28822 0.48003 0.53055 0.0
N882 N 0.28783 0.52648 0.48557 0.0
C883 C 0.2658 0.51539 0.49229 0.0
C884 C 0.266 0.49032 0.5175 0.0
C885 C 0.51557 0.26284 0.51909 0.0
C886 C 0.52826 0.24088 0.532 0.0
C887 C 0.49098 0.26289 0.49324 0.0
C888 C 0.47835 0.24099 0.47866 0.0
H889 H 0.52481 0.28008 0.52826 0.0
H890 H 0.48169 0.28016 0.48537 0.0
S891 S 0.50337 0.17869 0.50297 0.0
N892 N 0.52609 0.19673 0.53209 0.0
N893 N 0.48061 0.19685 0.47523 0.0
C894 C 0.49095 0.21896 0.49001 0.0
C895 C 0.51571 0.2189 0.51897 0.0
C896 C 0.1847 0.1729 0.076 0.0
C897 C 0.20346 0.16617 0.01667 0.0
C898 C 0.1667 0.18976 0.0507 0.0
C899 C 0.1664 0.20007 0.96449 0.0
H900 H 0.18419 0.16556 0.14326 0.0
H901 H 0.15298 0.19484 0.09911 0.0
S902 S 0.21111 0.18905 0.78358 0.0
N903 N 0.22059 0.17193 0.86738 0.0
N904 N 0.18615 0.20254 0.81981 0.0
C905 C 0.18456 0.19315 0.90383 0.0
C906 C 0.20324 0.17652 0.92995 0.0
C907 C 0.82113 0.19333 0.08668 0.0
C908 C 0.84194 0.1973 0.03456 0.0
C909 C 0.8033 0.1766 0.05979 0.0
C910 C 0.80562 0.16308 0.97975 0.0
H911 H 0.8181 0.20397 0.14672 0.0
H912 H 0.78723 0.17484 0.10127 0.0
S913 S 0.85882 0.16467 0.82661 0.0
N914 N 0.8654 0.1848 0.90503 0.0
N915 N 0.83185 0.15351 0.85318 0.0
C916 C 0.82707 0.16613 0.92937 0.0
C917 C 0.84522 0.18322 0.95707 0.0
C918 C 0.84094 0.81447 0.04984 0.0
C919 C 0.84204 0.80579 0.96128 0.0
C920 C 0.82323 0.83141 0.07656 0.0
C921 C 0.80576 0.84022 0.01576 0.0
H922 H 0.85371 0.80797 0.09933 0.0
H923 H 0.82281 0.83701 0.14605 0.0
S924 S 0.80228 0.82492 0.77336 0.0
N925 N 0.82533 0.80858 0.81118 0.0
N926 N 0.79201 0.84027 0.86044 0.0
C927 C 0.80743 0.83252 0.92569 0.0
C928 C 0.82561 0.81542 0.89861 0.0
C929 C 0.16901 0.81136 0.94579 0.0
C930 C 0.16498 0.80545 0.03633 0.0
C931 C 0.18628 0.82886 0.92059 0.0
C932 C 0.20069 0.84076 0.9849 0.0
H933 H 0.15899 0.80213 0.89361 0.0
H934 H 0.18898 0.83238 0.84994 0.0
S935 S 0.19696 0.83233 0.23146 0.0
N936 N 0.17626 0.81356 0.19078 0.0
N937 N 0.20923 0.84586 0.14378 0.0
C938 C 0.19654 0.83535 0.07595 0.0
C939 C 0.17856 0.81789 0.1016 0.0
C940 C 0.6773 0.70221 0.55432 0.0
C941 C 0.6631 0.69918 0.47617 0.0
C942 C 0.69372 0.68429 0.583 0.0
C943 C 0.69668 0.66264 0.53469 0.0
H944 H 0.67633 0.7189 0.59273 0.0
H945 H 0.70493 0.68786 0.64124 0.0
S946 S 0.66202 0.64388 0.3333 0.0
N947 N 0.65183 0.67151 0.35574 0.0
N948 N 0.68256 0.6378 0.41096 0.0
C949 C 0.68193 0.65871 0.45924 0.0
C950 C 0.66517 0.67697 0.42968 0.0
C951 C 0.33579 0.69446 0.44486 0.0
C952 C 0.33982 0.69971 0.53605 0.0
C953 C 0.31862 0.677 0.418 0.0
C954 C 0.3044 0.66449 0.48124 0.0
H955 H 0.34576 0.70418 0.39354 0.0
H956 H 0.31583 0.67399 0.34707 0.0
S957 S 0.30862 0.67073 0.72859 0.0
N958 N 0.32897 0.69014 0.68969 0.0
N959 N 0.29632 0.65783 0.63963 0.0
C960 C 0.3087 0.66913 0.57279 0.0
C961 C 0.32651 0.68658 0.6001 0.0
C962 C 0.32887 0.31905 0.41808 0.0
C963 C 0.34093 0.3046 0.48192 0.0
C964 C 0.31132 0.33627 0.444 0.0
C965 C 0.30557 0.34012 0.53485 0.0
H966 H 0.3323 0.31642 0.34734 0.0
H967 H 0.30195 0.34642 0.39225 0.0
S968 S 0.33306 0.30813 0.7288 0.0
N969 N 0.34645 0.296 0.64058 0.0
N970 N 0.31408 0.32876 0.68887 0.0
C971 C 0.31821 0.32654 0.59953 0.0
C972 C 0.3357 0.30867 0.57317 0.0
C973 C 0.69355 0.33793 0.55988 0.0
C974 C 0.70026 0.34054 0.46937 0.0
C975 C 0.67602 0.32081 0.58655 0.0
C976 C 0.66494 0.30522 0.52393 0.0
H977 H 0.70219 0.34898 0.61082 0.0
H978 H 0.67183 0.31916 0.65714 0.0
S979 S 0.67579 0.30517 0.27812 0.0
N980 N 0.69386 0.32675 0.31676 0.0
N981 N 0.66152 0.29415 0.36644 0.0
C982 C 0.67116 0.30805 0.43282 0.0
C983 C 0.68863 0.32582 0.40564 0.0
loop_
_geom_bond_atom_site_label_1
_geom_bond_atom_site_label_2
_geom_bond_distance
_geom_bond_site_symmetry_2
_ccdc_geom_bond_type
Co0 O3 1.970 . S
Co0 N17 1.989 . S
Co0 O25 1.967 . S
Co0 O32 1.920 . S
Co1 O4 1.966 . S
Co1 N10 2.022 . S
Co1 N18 1.993 1_556 S
Co1 O26 1.941 1_556 S
C2 O3 1.258 . S
C2 O4 1.263 1_554 S
O3 Co0 1.970 . S
O3 C2 1.258 . S
O4 Co1 1.966 . S
O4 C2 1.263 1_556 S
C5 O6 1.235 . S
C5 O32 1.289 . S
O6 C5 1.235 . S
C7 C9 1.400 . S
C7 N10 1.351 . S
C7 C12 1.501 . S
C8 C9 1.387 . S
C8 N11 1.341 . S
C9 C7 1.400 . S
C9 C8 1.387 . S
N10 Co1 2.022 . S
N10 C7 1.351 . S
N10 N11 1.365 . S
N11 C8 1.341 . S
N11 N10 1.365 . S
N11 H31 0.862 . S
C12 C7 1.501 . S
C12 H13 0.961 . S
C12 H14 0.961 . S
C12 H15 0.960 . S
H13 C12 0.961 . S
H14 C12 0.961 . S
H15 C12 0.960 . S
C16 N17 1.342 . S
C16 C20 1.401 . S
C16 C21 1.499 . S
N17 Co0 1.989 . S
N17 C16 1.342 . S
N17 N18 1.388 . S
N18 Co1 1.993 1_554 S
N18 N17 1.388 . S
N18 C19 1.346 1_554 S
C19 N18 1.346 1_556 S
C19 C20 1.396 1_556 S
C19 C29 1.510 . S
C20 C16 1.401 . S
C20 C19 1.396 1_554 S
C21 C16 1.499 . S
C21 H22 0.959 . S
C21 H23 0.960 . S
C21 H24 0.961 . S
H22 C21 0.959 . S
H23 C21 0.960 . S
H24 C21 0.961 . S
O25 Co0 1.967 . S
O25 C33 1.258 . S
O26 Co1 1.941 1_554 S
O26 C33 1.266 . S
H27 C29 0.959 . S
H28 C29 0.961 . S
C29 C19 1.510 . S
C29 H27 0.959 . S
C29 H28 0.961 . S
C29 H30 0.960 . S
H30 C29 0.960 . S
H31 N11 0.862 . S
O32 Co0 1.920 . S
O32 C5 1.289 . S
C33 O25 1.258 . S
C33 O26 1.266 . S
Co34 O37 1.970 . S
Co34 N51 1.989 . S
Co34 O59 1.967 . S
Co34 O66 1.920 . S
Co35 O38 1.966 . S
Co35 N44 2.022 . S
Co35 N52 1.993 1_556 S
Co35 O60 1.941 1_556 S
C36 O37 1.258 . S
C36 O38 1.263 1_554 S
O37 Co34 1.970 . S
O37 C36 1.258 . S
O38 Co35 1.966 . S
O38 C36 1.263 1_556 S
C39 O40 1.235 . S
C39 O66 1.289 . S
O40 C39 1.235 . S
C41 C43 1.400 . S
C41 N44 1.351 . S
C41 C46 1.501 . S
C42 C43 1.387 . S
C42 N45 1.341 . S
C43 C41 1.400 . S
C43 C42 1.387 . S
N44 Co35 2.022 . S
N44 C41 1.351 . S
N44 N45 1.365 . S
N45 C42 1.341 . S
N45 N44 1.365 . S
N45 H65 0.862 . S
C46 C41 1.501 . S
C46 H47 0.961 . S
C46 H48 0.961 . S
C46 H49 0.960 . S
H47 C46 0.961 . S
H48 C46 0.961 . S
H49 C46 0.960 . S
C50 N51 1.342 . S
C50 C54 1.401 . S
C50 C55 1.499 . S
N51 Co34 1.989 . S
N51 C50 1.342 . S
N51 N52 1.388 . S
N52 Co35 1.993 1_554 S
N52 N51 1.388 . S
N52 C53 1.346 1_554 S
C53 N52 1.346 1_556 S
C53 C54 1.396 1_556 S
C53 C63 1.510 . S
C54 C50 1.401 . S
C54 C53 1.396 1_554 S
C55 C50 1.499 . S
C55 H56 0.959 . S
C55 H57 0.960 . S
C55 H58 0.961 . S
H56 C55 0.959 . S
H57 C55 0.960 . S
H58 C55 0.961 . S
O59 Co34 1.967 . S
O59 C67 1.258 . S
O60 Co35 1.941 1_554 S
O60 C67 1.266 . S
H61 C63 0.959 . S
H62 C63 0.961 . S
C63 C53 1.510 . S
C63 H61 0.959 . S
C63 H62 0.961 . S
C63 H64 0.960 . S
H64 C63 0.960 . S
H65 N45 0.862 . S
O66 Co34 1.920 . S
O66 C39 1.289 . S
C67 O59 1.258 . S
C67 O60 1.266 . S
Co68 O71 1.970 . S
Co68 N85 1.989 . S
Co68 O93 1.967 . S
Co68 O100 1.920 . S
Co69 O72 1.966 . S
Co69 N78 2.022 . S
Co69 N86 1.993 1_556 S
Co69 O94 1.941 1_556 S
C70 O71 1.258 . S
C70 O72 1.263 1_554 S
O71 Co68 1.970 . S
O71 C70 1.258 . S
O72 Co69 1.966 . S
O72 C70 1.263 1_556 S
C73 O74 1.235 . S
C73 O100 1.289 . S
O74 C73 1.235 . S
C75 C77 1.400 . S
C75 N78 1.351 . S
C75 C80 1.501 . S
C76 C77 1.387 . S
C76 N79 1.341 . S
C77 C75 1.400 . S
C77 C76 1.387 . S
N78 Co69 2.022 . S
N78 C75 1.351 . S
N78 N79 1.365 . S
N79 C76 1.341 . S
N79 N78 1.365 . S
N79 H99 0.862 . S
C80 C75 1.501 . S
C80 H81 0.961 . S
C80 H82 0.961 . S
C80 H83 0.960 . S
H81 C80 0.961 . S
H82 C80 0.961 . S
H83 C80 0.960 . S
C84 N85 1.342 . S
C84 C88 1.401 . S
C84 C89 1.499 . S
N85 Co68 1.989 . S
N85 C84 1.342 . S
N85 N86 1.388 . S
N86 Co69 1.993 1_554 S
N86 N85 1.388 . S
N86 C87 1.346 1_554 S
C87 N86 1.346 1_556 S
C87 C88 1.396 1_556 S
C87 C97 1.510 . S
C88 C84 1.401 . S
C88 C87 1.396 1_554 S
C89 C84 1.499 . S
C89 H90 0.959 . S
C89 H91 0.960 . S
C89 H92 0.961 . S
H90 C89 0.959 . S
H91 C89 0.960 . S
H92 C89 0.961 . S
O93 Co68 1.967 . S
O93 C101 1.258 . S
O94 Co69 1.941 1_554 S
O94 C101 1.266 . S
H95 C97 0.959 . S
H96 C97 0.961 . S
C97 C87 1.510 . S
C97 H95 0.959 . S
C97 H96 0.961 . S
C97 H98 0.960 . S
H98 C97 0.960 . S
H99 N79 0.862 . S
O100 Co68 1.920 . S
O100 C73 1.289 . S
C101 O93 1.258 . S
C101 O94 1.266 . S
Co102 O105 1.970 . S
Co102 N119 1.989 . S
Co102 O127 1.967 . S
Co102 O134 1.920 . S
Co103 O106 1.966 . S
Co103 N112 2.022 . S
Co103 N120 1.993 1_556 S
Co103 O128 1.941 1_556 S
C104 O105 1.258 . S
C104 O106 1.263 1_554 S
O105 Co102 1.970 . S
O105 C104 1.258 . S
O106 Co103 1.966 . S
O106 C104 1.263 1_556 S
C107 O108 1.235 . S
C107 O134 1.289 . S
O108 C107 1.235 . S
C109 C111 1.400 . S
C109 N112 1.351 . S
C109 C114 1.501 . S
C110 C111 1.387 . S
C110 N113 1.341 . S
C111 C109 1.400 . S
C111 C110 1.387 . S
N112 Co103 2.022 . S
N112 C109 1.351 . S
N112 N113 1.365 . S
N113 C110 1.341 . S
N113 N112 1.365 . S
N113 H133 0.862 . S
C114 C109 1.501 . S
C114 H115 0.961 . S
C114 H116 0.961 . S
C114 H117 0.960 . S
H115 C114 0.961 . S
H116 C114 0.961 . S
H117 C114 0.960 . S
C118 N119 1.342 . S
C118 C122 1.401 . S
C118 C123 1.499 . S
N119 Co102 1.989 . S
N119 C118 1.342 . S
N119 N120 1.388 . S
N120 Co103 1.993 1_554 S
N120 N119 1.388 . S
N120 C121 1.346 1_554 S
C121 N120 1.346 1_556 S
C121 C122 1.396 1_556 S
C121 C131 1.510 . S
C122 C118 1.401 . S
C122 C121 1.396 1_554 S
C123 C118 1.499 . S
C123 H124 0.959 . S
C123 H125 0.960 . S
C123 H126 0.961 . S
H124 C123 0.959 . S
H125 C123 0.960 . S
H126 C123 0.961 . S
O127 Co102 1.967 . S
O127 C135 1.258 . S
O128 Co103 1.941 1_554 S
O128 C135 1.266 . S
H129 C131 0.959 . S
H130 C131 0.961 . S
C131 C121 1.510 . S
C131 H129 0.959 . S
C131 H130 0.961 . S
C131 H132 0.960 . S
H132 C131 0.960 . S
H133 N113 0.862 . S
O134 Co102 1.920 . S
O134 C107 1.289 . S
C135 O127 1.258 . S
C135 O128 1.266 . S
Co136 O139 1.970 . S
Co136 N153 1.989 . S
Co136 O161 1.967 . S
Co136 O168 1.920 . S
Co137 O140 1.966 . S
Co137 N146 2.022 . S
Co137 N154 1.993 1_554 S
Co137 O162 1.941 1_554 S
C138 O139 1.258 . S
C138 O140 1.263 1_556 S
O139 Co136 1.970 . S
O139 C138 1.258 . S
O140 Co137 1.966 . S
O140 C138 1.263 1_554 S
C141 O142 1.235 . S
C141 O168 1.289 . S
O142 C141 1.235 . S
C143 C145 1.400 . S
C143 N146 1.351 . S
C143 C148 1.501 . S
C144 C145 1.387 . S
C144 N147 1.341 . S
C145 C143 1.400 . S
C145 C144 1.387 . S
N146 Co137 2.022 . S
N146 C143 1.351 . S
N146 N147 1.365 . S
N147 C144 1.341 . S
N147 N146 1.365 . S
N147 H167 0.862 . S
C148 C143 1.501 . S
C148 H149 0.961 . S
C148 H150 0.961 . S
C148 H151 0.960 . S
H149 C148 0.961 . S
H150 C148 0.961 . S
H151 C148 0.960 . S
C152 N153 1.342 . S
C152 C156 1.401 . S
C152 C157 1.499 . S
N153 Co136 1.989 . S
N153 C152 1.342 . S
N153 N154 1.388 . S
N154 Co137 1.993 1_556 S
N154 N153 1.388 . S
N154 C155 1.346 1_556 S
C155 N154 1.346 1_554 S
C155 C156 1.396 1_554 S
C155 C165 1.510 . S
C156 C152 1.401 . S
C156 C155 1.396 1_556 S
C157 C152 1.499 . S
C157 H158 0.959 . S
C157 H159 0.960 . S
C157 H160 0.961 . S
H158 C157 0.959 . S
H159 C157 0.960 . S
H160 C157 0.961 . S
O161 Co136 1.967 . S
O161 C169 1.258 . S
O162 Co137 1.941 1_556 S
O162 C169 1.266 . S
H163 C165 0.959 . S
H164 C165 0.961 . S
C165 C155 1.510 . S
C165 H163 0.959 . S
C165 H164 0.961 . S
C165 H166 0.960 . S
H166 C165 0.960 . S
H167 N147 0.862 . S
O168 Co136 1.920 . S
O168 C141 1.289 . S
C169 O161 1.258 . S
C169 O162 1.266 . S
Co170 O173 1.970 . S
Co170 N187 1.989 . S
Co170 O195 1.967 . S
Co170 O202 1.920 . S
Co171 O174 1.966 . S
Co171 N180 2.022 . S
Co171 N188 1.993 1_554 S
Co171 O196 1.941 1_554 S
C172 O173 1.258 . S
C172 O174 1.263 1_556 S
O173 Co170 1.970 . S
O173 C172 1.258 . S
O174 Co171 1.966 . S
O174 C172 1.263 1_554 S
C175 O176 1.235 . S
C175 O202 1.289 . S
O176 C175 1.235 . S
C177 C179 1.400 . S
C177 N180 1.351 . S
C177 C182 1.501 . S
C178 C179 1.387 . S
C178 N181 1.341 . S
C179 C177 1.400 . S
C179 C178 1.387 . S
N180 Co171 2.022 . S
N180 C177 1.351 . S
N180 N181 1.365 . S
N181 C178 1.341 . S
N181 N180 1.365 . S
N181 H201 0.862 . S
C182 C177 1.501 . S
C182 H183 0.961 . S
C182 H184 0.961 . S
C182 H185 0.960 . S
H183 C182 0.961 . S
H184 C182 0.961 . S
H185 C182 0.960 . S
C186 N187 1.342 . S
C186 C190 1.401 . S
C186 C191 1.499 . S
N187 Co170 1.989 . S
N187 C186 1.342 . S
N187 N188 1.388 . S
N188 Co171 1.993 1_556 S
N188 N187 1.388 . S
N188 C189 1.346 1_556 S
C189 N188 1.346 1_554 S
C189 C190 1.396 1_554 S
C189 C199 1.510 . S
C190 C186 1.401 . S
C190 C189 1.396 1_556 S
C191 C186 1.499 . S
C191 H192 0.959 . S
C191 H193 0.960 . S
C191 H194 0.961 . S
H192 C191 0.959 . S
H193 C191 0.960 . S
H194 C191 0.961 . S
O195 Co170 1.967 . S
O195 C203 1.258 . S
O196 Co171 1.941 1_556 S
O196 C203 1.266 . S
H197 C199 0.959 . S
H198 C199 0.961 . S
C199 C189 1.510 . S
C199 H197 0.959 . S
C199 H198 0.961 . S
C199 H200 0.960 . S
H200 C199 0.960 . S
H201 N181 0.862 . S
O202 Co170 1.920 . S
O202 C175 1.289 . S
C203 O195 1.258 . S
C203 O196 1.266 . S
Co204 O207 1.970 . S
Co204 N221 1.989 . S
Co204 O229 1.967 . S
Co204 O236 1.920 . S
Co205 O208 1.966 . S
Co205 N214 2.022 . S
Co205 N222 1.993 1_554 S
Co205 O230 1.941 1_554 S
C206 O207 1.258 . S
C206 O208 1.263 1_556 S
O207 Co204 1.970 . S
O207 C206 1.258 . S
O208 Co205 1.966 . S
O208 C206 1.263 1_554 S
C209 O210 1.235 . S
C209 O236 1.289 . S
O210 C209 1.235 . S
C211 C213 1.400 . S
C211 N214 1.351 . S
C211 C216 1.501 . S
C212 C213 1.387 . S
C212 N215 1.341 . S
C213 C211 1.400 . S
C213 C212 1.387 . S
N214 Co205 2.022 . S
N214 C211 1.351 . S
N214 N215 1.365 . S
N215 C212 1.341 . S
N215 N214 1.365 . S
N215 H235 0.862 . S
C216 C211 1.501 . S
C216 H217 0.961 . S
C216 H218 0.961 . S
C216 H219 0.960 . S
H217 C216 0.961 . S
H218 C216 0.961 . S
H219 C216 0.960 . S
C220 N221 1.342 . S
C220 C224 1.401 . S
C220 C225 1.499 . S
N221 Co204 1.989 . S
N221 C220 1.342 . S
N221 N222 1.388 . S
N222 Co205 1.993 1_556 S
N222 N221 1.388 . S
N222 C223 1.346 1_556 S
C223 N222 1.346 1_554 S
C223 C224 1.396 1_554 S
C223 C233 1.510 . S
C224 C220 1.401 . S
C224 C223 1.396 1_556 S
C225 C220 1.499 . S
C225 H226 0.959 . S
C225 H227 0.960 . S
C225 H228 0.961 . S
H226 C225 0.959 . S
H227 C225 0.960 . S
H228 C225 0.961 . S
O229 Co204 1.967 . S
O229 C237 1.258 . S
O230 Co205 1.941 1_556 S
O230 C237 1.266 . S
H231 C233 0.959 . S
H232 C233 0.961 . S
C233 C223 1.510 . S
C233 H231 0.959 . S
C233 H232 0.961 . S
C233 H234 0.960 . S
H234 C233 0.960 . S
H235 N215 0.862 . S
O236 Co204 1.920 . S
O236 C209 1.289 . S
C237 O229 1.258 . S
C237 O230 1.266 . S
Co238 O241 1.970 . S
Co238 N255 1.989 . S
Co238 O263 1.967 . S
Co238 O270 1.920 . S
Co239 O242 1.966 . S
Co239 N248 2.022 . S
Co239 N256 1.993 1_554 S
Co239 O264 1.941 1_554 S
C240 O241 1.258 . S
C240 O242 1.263 1_556 S
O241 Co238 1.970 . S
O241 C240 1.258 . S
O242 Co239 1.966 . S
O242 C240 1.263 1_554 S
C243 O244 1.235 . S
C243 O270 1.289 . S
O244 C243 1.235 . S
C245 C247 1.400 . S
C245 N248 1.351 . S
C245 C250 1.501 . S
C246 C247 1.387 . S
C246 N249 1.341 . S
C247 C245 1.400 . S
C247 C246 1.387 . S
N248 Co239 2.022 . S
N248 C245 1.351 . S
N248 N249 1.365 . S
N249 C246 1.341 . S
N249 N248 1.365 . S
N249 H269 0.862 . S
C250 C245 1.501 . S
C250 H251 0.961 . S
C250 H252 0.961 . S
C250 H253 0.960 . S
H251 C250 0.961 . S
H252 C250 0.961 . S
H253 C250 0.960 . S
C254 N255 1.342 . S
C254 C258 1.401 . S
C254 C259 1.499 . S
N255 Co238 1.989 . S
N255 C254 1.342 . S
N255 N256 1.388 . S
N256 Co239 1.993 1_556 S
N256 N255 1.388 . S
N256 C257 1.346 1_556 S
C257 N256 1.346 1_554 S
C257 C258 1.396 1_554 S
C257 C267 1.510 . S
C258 C254 1.401 . S
C258 C257 1.396 1_556 S
C259 C254 1.499 . S
C259 H260 0.959 . S
C259 H261 0.960 . S
C259 H262 0.961 . S
H260 C259 0.959 . S
H261 C259 0.960 . S
H262 C259 0.961 . S
O263 Co238 1.967 . S
O263 C271 1.258 . S
O264 Co239 1.941 1_556 S
O264 C271 1.266 . S
H265 C267 0.959 . S
H266 C267 0.961 . S
C267 C257 1.510 . S
C267 H265 0.959 . S
C267 H266 0.961 . S
C267 H268 0.960 . S
H268 C267 0.960 . S
H269 N249 0.862 . S
O270 Co238 1.920 . S
O270 C243 1.289 . S
C271 O263 1.258 . S
C271 O264 1.266 . S
Co272 O275 1.970 . S
Co272 N289 1.989 . S
Co272 O297 1.967 . S
Co272 O304 1.920 . S
Co273 O276 1.966 . S
Co273 N282 2.022 . S
Co273 N290 1.993 . S
Co273 O298 1.941 . S
C274 O275 1.258 . S
C274 O276 1.263 . S
O275 Co272 1.970 . S
O275 C274 1.258 . S
O276 Co273 1.966 . S
O276 C274 1.263 . S
C277 O278 1.235 . S
C277 O304 1.289 . S
O278 C277 1.235 . S
C279 C281 1.400 . S
C279 N282 1.351 . S
C279 C284 1.501 . S
C280 C281 1.387 . S
C280 N283 1.341 . S
C281 C279 1.400 . S
C281 C280 1.387 . S
N282 Co273 2.022 . S
N282 C279 1.351 . S
N282 N283 1.365 . S
N283 C280 1.341 . S
N283 N282 1.365 . S
N283 H303 0.862 . S
C284 C279 1.501 . S
C284 H285 0.961 . S
C284 H286 0.961 . S
C284 H287 0.960 . S
H285 C284 0.961 . S
H286 C284 0.961 . S
H287 C284 0.960 . S
C288 N289 1.342 . S
C288 C292 1.401 . S
C288 C293 1.499 . S
N289 Co272 1.989 . S
N289 C288 1.342 . S
N289 N290 1.388 . S
N290 Co273 1.993 . S
N290 N289 1.388 . S
N290 C291 1.346 . S
C291 N290 1.346 . S
C291 C292 1.396 . S
C291 C301 1.510 . S
C292 C288 1.401 . S
C292 C291 1.396 . S
C293 C288 1.499 . S
C293 H294 0.959 . S
C293 H295 0.960 . S
C293 H296 0.961 . S
H294 C293 0.959 . S
H295 C293 0.960 . S
H296 C293 0.961 . S
O297 Co272 1.967 . S
O297 C305 1.258 . S
O298 Co273 1.941 . S
O298 C305 1.266 . S
H299 C301 0.959 . S
H300 C301 0.961 . S
C301 C291 1.510 . S
C301 H299 0.959 . S
C301 H300 0.961 . S
C301 H302 0.960 . S
H302 C301 0.960 . S
H303 N283 0.862 . S
O304 Co272 1.920 . S
O304 C277 1.289 . S
C305 O297 1.258 . S
C305 O298 1.266 . S
Co306 O309 1.970 . S
Co306 N323 1.989 . S
Co306 O331 1.967 . S
Co306 O338 1.920 . S
Co307 O310 1.966 . S
Co307 N316 2.022 . S
Co307 N324 1.993 . S
Co307 O332 1.941 . S
C308 O309 1.258 . S
C308 O310 1.263 . S
O309 Co306 1.970 . S
O309 C308 1.258 . S
O310 Co307 1.966 . S
O310 C308 1.263 . S
C311 O312 1.235 . S
C311 O338 1.289 . S
O312 C311 1.235 . S
C313 C315 1.400 . S
C313 N316 1.351 . S
C313 C318 1.501 . S
C314 C315 1.387 . S
C314 N317 1.341 . S
C315 C313 1.400 . S
C315 C314 1.387 . S
N316 Co307 2.022 . S
N316 C313 1.351 . S
N316 N317 1.365 . S
N317 C314 1.341 . S
N317 N316 1.365 . S
N317 H337 0.862 . S
C318 C313 1.501 . S
C318 H319 0.961 . S
C318 H320 0.961 . S
C318 H321 0.960 . S
H319 C318 0.961 . S
H320 C318 0.961 . S
H321 C318 0.960 . S
C322 N323 1.342 . S
C322 C326 1.401 . S
C322 C327 1.499 . S
N323 Co306 1.989 . S
N323 C322 1.342 . S
N323 N324 1.388 . S
N324 Co307 1.993 . S
N324 N323 1.388 . S
N324 C325 1.346 . S
C325 N324 1.346 . S
C325 C326 1.396 . S
C325 C335 1.510 . S
C326 C322 1.401 . S
C326 C325 1.396 . S
C327 C322 1.499 . S
C327 H328 0.959 . S
C327 H329 0.960 . S
C327 H330 0.961 . S
H328 C327 0.959 . S
H329 C327 0.960 . S
H330 C327 0.961 . S
O331 Co306 1.967 . S
O331 C339 1.258 . S
O332 Co307 1.941 . S
O332 C339 1.266 . S
H333 C335 0.959 . S
H334 C335 0.961 . S
C335 C325 1.510 . S
C335 H333 0.959 . S
C335 H334 0.961 . S
C335 H336 0.960 . S
H336 C335 0.960 . S
H337 N317 0.862 . S
O338 Co306 1.920 . S
O338 C311 1.289 . S
C339 O331 1.258 . S
C339 O332 1.266 . S
Co340 O343 1.970 . S
Co340 N357 1.989 . S
Co340 O365 1.967 . S
Co340 O372 1.920 . S
Co341 O344 1.966 . S
Co341 N350 2.022 . S
Co341 N358 1.993 . S
Co341 O366 1.941 . S
C342 O343 1.258 . S
C342 O344 1.263 . S
O343 Co340 1.970 . S
O343 C342 1.258 . S
O344 Co341 1.966 . S
O344 C342 1.263 . S
C345 O346 1.235 . S
C345 O372 1.289 . S
O346 C345 1.235 . S
C347 C349 1.400 . S
C347 N350 1.351 . S
C347 C352 1.501 . S
C348 C349 1.387 . S
C348 N351 1.341 . S
C349 C347 1.400 . S
C349 C348 1.387 . S
N350 Co341 2.022 . S
N350 C347 1.351 . S
N350 N351 1.365 . S
N351 C348 1.341 . S
N351 N350 1.365 . S
N351 H371 0.862 . S
C352 C347 1.501 . S
C352 H353 0.961 . S
C352 H354 0.961 . S
C352 H355 0.960 . S
H353 C352 0.961 . S
H354 C352 0.961 . S
H355 C352 0.960 . S
C356 N357 1.342 . S
C356 C360 1.401 . S
C356 C361 1.499 . S
N357 Co340 1.989 . S
N357 C356 1.342 . S
N357 N358 1.388 . S
N358 Co341 1.993 . S
N358 N357 1.388 . S
N358 C359 1.346 . S
C359 N358 1.346 . S
C359 C360 1.396 . S
C359 C369 1.510 . S
C360 C356 1.401 . S
C360 C359 1.396 . S
C361 C356 1.499 . S
C361 H362 0.959 . S
C361 H363 0.960 . S
C361 H364 0.961 . S
H362 C361 0.959 . S
H363 C361 0.960 . S
H364 C361 0.961 . S
O365 Co340 1.967 . S
O365 C373 1.258 . S
O366 Co341 1.941 . S
O366 C373 1.266 . S
H367 C369 0.959 . S
H368 C369 0.961 . S
C369 C359 1.510 . S
C369 H367 0.959 . S
C369 H368 0.961 . S
C369 H370 0.960 . S
H370 C369 0.960 . S
H371 N351 0.862 . S
O372 Co340 1.920 . S
O372 C345 1.289 . S
C373 O365 1.258 . S
C373 O366 1.266 . S
Co374 O377 1.970 . S
Co374 N391 1.989 . S
Co374 O399 1.967 . S
Co374 O406 1.920 . S
Co375 O378 1.966 . S
Co375 N384 2.022 . S
Co375 N392 1.993 . S
Co375 O400 1.941 . S
C376 O377 1.258 . S
C376 O378 1.263 . S
O377 Co374 1.970 . S
O377 C376 1.258 . S
O378 Co375 1.966 . S
O378 C376 1.263 . S
C379 O380 1.235 . S
C379 O406 1.289 . S
O380 C379 1.235 . S
C381 C383 1.400 . S
C381 N384 1.351 . S
C381 C386 1.501 . S
C382 C383 1.387 . S
C382 N385 1.341 . S
C383 C381 1.400 . S
C383 C382 1.387 . S
N384 Co375 2.022 . S
N384 C381 1.351 . S
N384 N385 1.365 . S
N385 C382 1.341 . S
N385 N384 1.365 . S
N385 H405 0.862 . S
C386 C381 1.501 . S
C386 H387 0.961 . S
C386 H388 0.961 . S
C386 H389 0.960 . S
H387 C386 0.961 . S
H388 C386 0.961 . S
H389 C386 0.960 . S
C390 N391 1.342 . S
C390 C394 1.401 . S
C390 C395 1.499 . S
N391 Co374 1.989 . S
N391 C390 1.342 . S
N391 N392 1.388 . S
N392 Co375 1.993 . S
N392 N391 1.388 . S
N392 C393 1.346 . S
C393 N392 1.346 . S
C393 C394 1.396 . S
C393 C403 1.510 . S
C394 C390 1.401 . S
C394 C393 1.396 . S
C395 C390 1.499 . S
C395 H396 0.959 . S
C395 H397 0.960 . S
C395 H398 0.961 . S
H396 C395 0.959 . S
H397 C395 0.960 . S
H398 C395 0.961 . S
O399 Co374 1.967 . S
O399 C407 1.258 . S
O400 Co375 1.941 . S
O400 C407 1.266 . S
H401 C403 0.959 . S
H402 C403 0.961 . S
C403 C393 1.510 . S
C403 H401 0.959 . S
C403 H402 0.961 . S
C403 H404 0.960 . S
H404 C403 0.960 . S
H405 N385 0.862 . S
O406 Co374 1.920 . S
O406 C379 1.289 . S
C407 O399 1.258 . S
C407 O400 1.266 . S
Co408 O411 1.970 . S
Co408 N425 1.989 . S
Co408 O433 1.967 . S
Co408 O440 1.920 . S
Co409 O412 1.966 . S
Co409 N418 2.022 . S
Co409 N426 1.993 . S
Co409 O434 1.941 . S
C410 O411 1.258 . S
C410 O412 1.263 . S
O411 Co408 1.970 . S
O411 C410 1.258 . S
O412 Co409 1.966 . S
O412 C410 1.263 . S
C413 O414 1.235 . S
C413 O440 1.289 . S
O414 C413 1.235 . S
C415 C417 1.400 . S
C415 N418 1.351 . S
C415 C420 1.501 . S
C416 C417 1.387 . S
C416 N419 1.341 . S
C417 C415 1.400 . S
C417 C416 1.387 . S
N418 Co409 2.022 . S
N418 C415 1.351 . S
N418 N419 1.365 . S
N419 C416 1.341 . S
N419 N418 1.365 . S
N419 H439 0.862 . S
C420 C415 1.501 . S
C420 H421 0.961 . S
C420 H422 0.961 . S
C420 H423 0.960 . S
H421 C420 0.961 . S
H422 C420 0.961 . S
H423 C420 0.960 . S
C424 N425 1.342 . S
C424 C428 1.401 . S
C424 C429 1.499 . S
N425 Co408 1.989 . S
N425 C424 1.342 . S
N425 N426 1.388 . S
N426 Co409 1.993 . S
N426 N425 1.388 . S
N426 C427 1.346 . S
C427 N426 1.346 . S
C427 C428 1.396 . S
C427 C437 1.510 . S
C428 C424 1.401 . S
C428 C427 1.396 . S
C429 C424 1.499 . S
C429 H430 0.959 . S
C429 H431 0.960 . S
C429 H432 0.961 . S
H430 C429 0.959 . S
H431 C429 0.960 . S
H432 C429 0.961 . S
O433 Co408 1.967 . S
O433 C441 1.258 . S
O434 Co409 1.941 . S
O434 C441 1.266 . S
H435 C437 0.959 . S
H436 C437 0.961 . S
C437 C427 1.510 . S
C437 H435 0.959 . S
C437 H436 0.961 . S
C437 H438 0.960 . S
H438 C437 0.960 . S
H439 N419 0.862 . S
O440 Co408 1.920 . S
O440 C413 1.289 . S
C441 O433 1.258 . S
C441 O434 1.266 . S
Co442 O445 1.970 . S
Co442 N459 1.989 . S
Co442 O467 1.967 . S
Co442 O474 1.920 . S
Co443 O446 1.966 . S
Co443 N452 2.022 . S
Co443 N460 1.993 . S
Co443 O468 1.941 . S
C444 O445 1.258 . S
C444 O446 1.263 . S
O445 Co442 1.970 . S
O445 C444 1.258 . S
O446 Co443 1.966 . S
O446 C444 1.263 . S
C447 O448 1.235 . S
C447 O474 1.289 . S
O448 C447 1.235 . S
C449 C451 1.400 . S
C449 N452 1.351 . S
C449 C454 1.501 . S
C450 C451 1.387 . S
C450 N453 1.341 . S
C451 C449 1.400 . S
C451 C450 1.387 . S
N452 Co443 2.022 . S
N452 C449 1.351 . S
N452 N453 1.365 . S
N453 C450 1.341 . S
N453 N452 1.365 . S
N453 H473 0.862 . S
C454 C449 1.501 . S
C454 H455 0.961 . S
C454 H456 0.961 . S
C454 H457 0.960 . S
H455 C454 0.961 . S
H456 C454 0.961 . S
H457 C454 0.960 . S
C458 N459 1.342 . S
C458 C462 1.401 . S
C458 C463 1.499 . S
N459 Co442 1.989 . S
N459 C458 1.342 . S
N459 N460 1.388 . S
N460 Co443 1.993 . S
N460 N459 1.388 . S
N460 C461 1.346 . S
C461 N460 1.346 . S
C461 C462 1.396 . S
C461 C471 1.510 . S
C462 C458 1.401 . S
C462 C461 1.396 . S
C463 C458 1.499 . S
C463 H464 0.959 . S
C463 H465 0.960 . S
C463 H466 0.961 . S
H464 C463 0.959 . S
H465 C463 0.960 . S
H466 C463 0.961 . S
O467 Co442 1.967 . S
O467 C475 1.258 . S
O468 Co443 1.941 . S
O468 C475 1.266 . S
H469 C471 0.959 . S
H470 C471 0.961 . S
C471 C461 1.510 . S
C471 H469 0.959 . S
C471 H470 0.961 . S
C471 H472 0.960 . S
H472 C471 0.960 . S
H473 N453 0.862 . S
O474 Co442 1.920 . S
O474 C447 1.289 . S
C475 O467 1.258 . S
C475 O468 1.266 . S
Co476 O479 1.970 . S
Co476 N493 1.989 . S
Co476 O501 1.967 . S
Co476 O508 1.920 . S
Co477 O480 1.966 . S
Co477 N486 2.022 . S
Co477 N494 1.993 . S
Co477 O502 1.941 . S
C478 O479 1.258 . S
C478 O480 1.263 . S
O479 Co476 1.970 . S
O479 C478 1.258 . S
O480 Co477 1.966 . S
O480 C478 1.263 . S
C481 O482 1.235 . S
C481 O508 1.289 . S
O482 C481 1.235 . S
C483 C485 1.400 . S
C483 N486 1.351 . S
C483 C488 1.501 . S
C484 C485 1.387 . S
C484 N487 1.341 . S
C485 C483 1.400 . S
C485 C484 1.387 . S
N486 Co477 2.022 . S
N486 C483 1.351 . S
N486 N487 1.365 . S
N487 C484 1.341 . S
N487 N486 1.365 . S
N487 H507 0.862 . S
C488 C483 1.501 . S
C488 H489 0.961 . S
C488 H490 0.961 . S
C488 H491 0.960 . S
H489 C488 0.961 . S
H490 C488 0.961 . S
H491 C488 0.960 . S
C492 N493 1.342 . S
C492 C496 1.401 . S
C492 C497 1.499 . S
N493 Co476 1.989 . S
N493 C492 1.342 . S
N493 N494 1.388 . S
N494 Co477 1.993 . S
N494 N493 1.388 . S
N494 C495 1.346 . S
C495 N494 1.346 . S
C495 C496 1.396 . S
C495 C505 1.510 . S
C496 C492 1.401 . S
C496 C495 1.396 . S
C497 C492 1.499 . S
C497 H498 0.959 . S
C497 H499 0.960 . S
C497 H500 0.961 . S
H498 C497 0.959 . S
H499 C497 0.960 . S
H500 C497 0.961 . S
O501 Co476 1.967 . S
O501 C509 1.258 . S
O502 Co477 1.941 . S
O502 C509 1.266 . S
H503 C505 0.959 . S
H504 C505 0.961 . S
C505 C495 1.510 . S
C505 H503 0.959 . S
C505 H504 0.961 . S
C505 H506 0.960 . S
H506 C505 0.960 . S
H507 N487 0.862 . S
O508 Co476 1.920 . S
O508 C481 1.289 . S
C509 O501 1.258 . S
C509 O502 1.266 . S
Co510 O513 1.970 . S
Co510 N527 1.989 . S
Co510 O535 1.967 . S
Co510 O542 1.920 . S
Co511 O514 1.966 . S
Co511 N520 2.022 . S
Co511 N528 1.993 . S
Co511 O536 1.941 . S
C512 O513 1.258 . S
C512 O514 1.263 . S
O513 Co510 1.970 . S
O513 C512 1.258 . S
O514 Co511 1.966 . S
O514 C512 1.263 . S
C515 O516 1.235 . S
C515 O542 1.289 . S
O516 C515 1.235 . S
C517 C519 1.400 . S
C517 N520 1.351 . S
C517 C522 1.501 . S
C518 C519 1.387 . S
C518 N521 1.341 . S
C519 C517 1.400 . S
C519 C518 1.387 . S
N520 Co511 2.022 . S
N520 C517 1.351 . S
N520 N521 1.365 . S
N521 C518 1.341 . S
N521 N520 1.365 . S
N521 H541 0.862 . S
C522 C517 1.501 . S
C522 H523 0.961 . S
C522 H524 0.961 . S
C522 H525 0.960 . S
H523 C522 0.961 . S
H524 C522 0.961 . S
H525 C522 0.960 . S
C526 N527 1.342 . S
C526 C530 1.401 . S
C526 C531 1.499 . S
N527 Co510 1.989 . S
N527 C526 1.342 . S
N527 N528 1.388 . S
N528 Co511 1.993 . S
N528 N527 1.388 . S
N528 C529 1.346 . S
C529 N528 1.346 . S
C529 C530 1.396 . S
C529 C539 1.510 . S
C530 C526 1.401 . S
C530 C529 1.396 . S
C531 C526 1.499 . S
C531 H532 0.959 . S
C531 H533 0.960 . S
C531 H534 0.961 . S
H532 C531 0.959 . S
H533 C531 0.960 . S
H534 C531 0.961 . S
O535 Co510 1.967 . S
O535 C543 1.258 . S
O536 Co511 1.941 . S
O536 C543 1.266 . S
H537 C539 0.959 . S
H538 C539 0.961 . S
C539 C529 1.510 . S
C539 H537 0.959 . S
C539 H538 0.961 . S
C539 H540 0.960 . S
H540 C539 0.960 . S
H541 N521 0.862 . S
O542 Co510 1.920 . S
O542 C515 1.289 . S
C543 O535 1.258 . S
C543 O536 1.266 . S
C544 C545 1.369 . S
C544 C546 1.419 . S
C544 H548 0.930 . S
C545 C544 1.369 . S
C545 C554 1.429 . S
C546 C544 1.419 . S
C546 C547 1.363 . S
C546 H549 0.929 . S
C547 C546 1.363 . S
C547 C553 1.428 . S
H548 C544 0.930 . S
H549 C546 0.929 . S
S550 N551 1.613 . S
S550 N552 1.610 . S
N551 S550 1.613 . S
N551 C554 1.350 . S
N552 S550 1.610 . S
N552 C553 1.351 . S
C553 C547 1.428 . S
C553 N552 1.351 . S
C553 C554 1.434 . S
C554 C545 1.429 . S
C554 N551 1.350 . S
C554 C553 1.434 . S
C555 C556 1.369 . S
C555 C557 1.419 . S
C555 H559 0.930 . S
C556 C555 1.369 . S
C556 C565 1.429 . S
C557 C555 1.419 . S
C557 C558 1.363 . S
C557 H560 0.929 . S
C558 C557 1.363 . S
C558 C564 1.428 . S
H559 C555 0.930 . S
H560 C557 0.929 . S
S561 N562 1.613 . S
S561 N563 1.610 . S
N562 S561 1.613 . S
N562 C565 1.350 . S
N563 S561 1.610 . S
N563 C564 1.351 . S
C564 C558 1.428 . S
C564 N563 1.351 . S
C564 C565 1.434 . S
C565 C556 1.429 . S
C565 N562 1.350 . S
C565 C564 1.434 . S
C566 C567 1.369 . S
C566 C568 1.419 . S
C566 H570 0.930 . S
C567 C566 1.369 . S
C567 C576 1.429 . S
C568 C566 1.419 . S
C568 C569 1.363 . S
C568 H571 0.929 . S
C569 C568 1.363 . S
C569 C575 1.428 . S
H570 C566 0.930 . S
H571 C568 0.929 . S
S572 N573 1.613 . S
S572 N574 1.610 . S
N573 S572 1.613 . S
N573 C576 1.350 . S
N574 S572 1.610 . S
N574 C575 1.351 . S
C575 C569 1.428 . S
C575 N574 1.351 . S
C575 C576 1.434 . S
C576 C567 1.429 . S
C576 N573 1.350 . S
C576 C575 1.434 . S
C577 C578 1.369 . S
C577 C579 1.419 . S
C577 H581 0.930 . S
C578 C577 1.369 . S
C578 C587 1.429 . S
C579 C577 1.419 . S
C579 C580 1.363 . S
C579 H582 0.929 . S
C580 C579 1.363 . S
C580 C586 1.428 . S
H581 C577 0.930 . S
H582 C579 0.929 . S
S583 N584 1.613 . S
S583 N585 1.610 . S
N584 S583 1.613 . S
N584 C587 1.350 . S
N585 S583 1.610 . S
N585 C586 1.351 . S
C586 C580 1.428 . S
C586 N585 1.351 . S
C586 C587 1.434 . S
C587 C578 1.429 . S
C587 N584 1.350 . S
C587 C586 1.434 . S
C588 C589 1.369 . S
C588 C590 1.419 . S
C588 H592 0.930 . S
C589 C588 1.369 . S
C589 C598 1.429 . S
C590 C588 1.419 . S
C590 C591 1.363 . S
C590 H593 0.929 . S
C591 C590 1.363 . S
C591 C597 1.428 . S
H592 C588 0.930 . S
H593 C590 0.929 . S
S594 N595 1.613 . S
S594 N596 1.610 . S
N595 S594 1.613 . S
N595 C598 1.350 . S
N596 S594 1.610 . S
N596 C597 1.351 . S
C597 C591 1.428 . S
C597 N596 1.351 . S
C597 C598 1.434 . S
C598 C589 1.429 . S
C598 N595 1.350 . S
C598 C597 1.434 . S
C599 C600 1.369 . S
C599 C601 1.419 . S
C599 H603 0.930 . S
C600 C599 1.369 . S
C600 C609 1.429 . S
C601 C599 1.419 . S
C601 C602 1.363 . S
C601 H604 0.929 . S
C602 C601 1.363 . S
C602 C608 1.428 . S
H603 C599 0.930 . S
H604 C601 0.929 . S
S605 N606 1.613 . S
S605 N607 1.610 . S
N606 S605 1.613 . S
N606 C609 1.350 . S
N607 S605 1.610 . S
N607 C608 1.351 . S
C608 C602 1.428 . S
C608 N607 1.351 . S
C608 C609 1.434 . S
C609 C600 1.429 . S
C609 N606 1.350 . S
C609 C608 1.434 . S
C610 C611 1.369 . S
C610 C612 1.419 . S
C610 H614 0.930 . S
C611 C610 1.369 . S
C611 C620 1.429 . S
C612 C610 1.419 . S
C612 C613 1.363 . S
C612 H615 0.929 . S
C613 C612 1.363 . S
C613 C619 1.428 . S
H614 C610 0.930 . S
H615 C612 0.929 . S
S616 N617 1.613 . S
S616 N618 1.610 . S
N617 S616 1.613 . S
N617 C620 1.350 . S
N618 S616 1.610 . S
N618 C619 1.351 . S
C619 C613 1.428 . S
C619 N618 1.351 . S
C619 C620 1.434 . S
C620 C611 1.429 . S
C620 N617 1.350 . S
C620 C619 1.434 . S
C621 C622 1.369 . S
C621 C623 1.419 . S
C621 H625 0.930 . S
C622 C621 1.369 . S
C622 C631 1.429 . S
C623 C621 1.419 . S
C623 C624 1.363 . S
C623 H626 0.929 . S
C624 C623 1.363 . S
C624 C630 1.428 . S
H625 C621 0.930 . S
H626 C623 0.929 . S
S627 N628 1.613 . S
S627 N629 1.610 . S
N628 S627 1.613 . S
N628 C631 1.350 . S
N629 S627 1.610 . S
N629 C630 1.351 . S
C630 C624 1.428 . S
C630 N629 1.351 . S
C630 C631 1.434 . S
C631 C622 1.429 . S
C631 N628 1.350 . S
C631 C630 1.434 . S
C632 C633 1.369 . S
C632 C634 1.419 1_554 S
C632 H636 0.930 . S
C633 C632 1.369 . S
C633 C642 1.429 . S
C634 C632 1.419 1_556 S
C634 C635 1.363 . S
C634 H637 0.929 . S
C635 C634 1.363 . S
C635 C641 1.428 . S
H636 C632 0.930 . S
H637 C634 0.929 . S
S638 N639 1.613 . S
S638 N640 1.610 1_554 S
N639 S638 1.613 . S
N639 C642 1.350 . S
N640 S638 1.610 1_556 S
N640 C641 1.351 . S
C641 C635 1.428 . S
C641 N640 1.351 . S
C641 C642 1.434 1_556 S
C642 C633 1.429 . S
C642 N639 1.350 . S
C642 C641 1.434 1_554 S
C643 C644 1.369 . S
C643 C645 1.419 1_554 S
C643 H647 0.930 . S
C644 C643 1.369 . S
C644 C653 1.429 . S
C645 C643 1.419 1_556 S
C645 C646 1.363 . S
C645 H648 0.929 . S
C646 C645 1.363 . S
C646 C652 1.428 . S
H647 C643 0.930 . S
H648 C645 0.929 . S
S649 N650 1.613 1_556 S
S649 N651 1.610 . S
N650 S649 1.613 1_554 S
N650 C653 1.350 . S
N651 S649 1.610 . S
N651 C652 1.351 . S
C652 C646 1.428 . S
C652 N651 1.351 . S
C652 C653 1.434 1_556 S
C653 C644 1.429 . S
C653 N650 1.350 . S
C653 C652 1.434 1_554 S
C654 C655 1.369 . S
C654 C656 1.419 1_554 S
C654 H658 0.930 . S
C655 C654 1.369 . S
C655 C664 1.429 . S
C656 C654 1.419 1_556 S
C656 C657 1.363 . S
C656 H659 0.929 . S
C657 C656 1.363 . S
C657 C663 1.428 . S
H658 C654 0.930 . S
H659 C656 0.929 . S
S660 N661 1.613 1_556 S
S660 N662 1.610 . S
N661 S660 1.613 1_554 S
N661 C664 1.350 . S
N662 S660 1.610 . S
N662 C663 1.351 . S
C663 C657 1.428 . S
C663 N662 1.351 . S
C663 C664 1.434 1_556 S
C664 C655 1.429 . S
C664 N661 1.350 . S
C664 C663 1.434 1_554 S
C665 C666 1.369 . S
C665 C667 1.419 1_554 S
C665 H669 0.930 . S
C666 C665 1.369 . S
C666 C675 1.429 . S
C667 C665 1.419 1_556 S
C667 C668 1.363 . S
C667 H670 0.929 . S
C668 C667 1.363 . S
C668 C674 1.428 1_556 S
H669 C665 0.930 . S
H670 C667 0.929 . S
S671 N672 1.613 . S
S671 N673 1.610 . S
N672 S671 1.613 . S
N672 C675 1.350 . S
N673 S671 1.610 . S
N673 C674 1.351 . S
C674 C668 1.428 1_554 S
C674 N673 1.351 . S
C674 C675 1.434 . S
C675 C666 1.429 . S
C675 N672 1.350 . S
C675 C674 1.434 . S
C676 C677 1.369 . S
C676 C678 1.419 1_554 S
C676 H680 0.930 . S
C677 C676 1.369 . S
C677 C686 1.429 . S
C678 C676 1.419 1_556 S
C678 C679 1.363 . S
C678 H681 0.929 . S
C679 C678 1.363 . S
C679 C685 1.428 . S
H680 C676 0.930 . S
H681 C678 0.929 . S
S682 N683 1.613 . S
S682 N684 1.610 1_554 S
N683 S682 1.613 . S
N683 C686 1.350 . S
N684 S682 1.610 1_556 S
N684 C685 1.351 . S
C685 C679 1.428 . S
C685 N684 1.351 . S
C685 C686 1.434 1_556 S
C686 C677 1.429 . S
C686 N683 1.350 . S
C686 C685 1.434 1_554 S
C687 C688 1.369 . S
C687 C689 1.419 1_554 S
C687 H691 0.930 . S
C688 C687 1.369 . S
C688 C697 1.429 . S
C689 C687 1.419 1_556 S
C689 C690 1.363 . S
C689 H692 0.929 . S
C690 C689 1.363 . S
C690 C696 1.428 . S
H691 C687 0.930 . S
H692 C689 0.929 . S
S693 N694 1.613 1_556 S
S693 N695 1.610 . S
N694 S693 1.613 1_554 S
N694 C697 1.350 . S
N695 S693 1.610 . S
N695 C696 1.351 . S
C696 C690 1.428 . S
C696 N695 1.351 . S
C696 C697 1.434 1_556 S
C697 C688 1.429 . S
C697 N694 1.350 . S
C697 C696 1.434 1_554 S
C698 C699 1.369 . S
C698 C700 1.419 1_554 S
C698 H702 0.930 . S
C699 C698 1.369 . S
C699 C708 1.429 . S
C700 C698 1.419 1_556 S
C700 C701 1.363 . S
C700 H703 0.929 . S
C701 C700 1.363 . S
C701 C707 1.428 . S
H702 C698 0.930 . S
H703 C700 0.929 . S
S704 N705 1.613 1_556 S
S704 N706 1.610 . S
N705 S704 1.613 1_554 S
N705 C708 1.350 . S
N706 S704 1.610 . S
N706 C707 1.351 . S
C707 C701 1.428 . S
C707 N706 1.351 . S
C707 C708 1.434 1_556 S
C708 C699 1.429 . S
C708 N705 1.350 . S
C708 C707 1.434 1_554 S
C709 C710 1.369 . S
C709 C711 1.419 1_554 S
C709 H713 0.930 . S
C710 C709 1.369 . S
C710 C719 1.429 1_554 S
C711 C709 1.419 1_556 S
C711 C712 1.363 . S
C711 H714 0.929 . S
C712 C711 1.363 . S
C712 C718 1.428 . S
H713 C709 0.930 . S
H714 C711 0.929 . S
S715 N716 1.625 . S
S715 N717 1.610 . S
N716 S715 1.625 . S
N716 C719 1.350 . S
N717 S715 1.610 . S
N717 C718 1.351 . S
C718 C712 1.428 . S
C718 N717 1.351 . S
C718 C719 1.434 . S
C719 C710 1.429 1_556 S
C719 N716 1.350 . S
C719 C718 1.434 . S
C720 C721 1.369 . S
C720 C722 1.419 . S
C720 H724 0.930 . S
C721 C720 1.369 . S
C721 C730 1.429 . S
C722 C720 1.419 . S
C722 C723 1.363 . S
C722 H725 0.929 . S
C723 C722 1.363 . S
C723 C729 1.428 . S
H724 C720 0.930 . S
H725 C722 0.929 . S
S726 N727 1.613 . S
S726 N728 1.610 . S
N727 S726 1.613 . S
N727 C730 1.350 . S
N728 S726 1.610 . S
N728 C729 1.351 . S
C729 C723 1.428 . S
C729 N728 1.351 . S
C729 C730 1.434 . S
C730 C721 1.429 . S
C730 N727 1.350 . S
C730 C729 1.434 . S
C731 C732 1.369 . S
C731 C733 1.419 . S
C731 H735 0.930 . S
C732 C731 1.369 . S
C732 C741 1.429 . S
C733 C731 1.419 . S
C733 C734 1.363 . S
C733 H736 0.929 . S
C734 C733 1.363 . S
C734 C740 1.428 . S
H735 C731 0.930 . S
H736 C733 0.929 . S
S737 N738 1.613 . S
S737 N739 1.610 . S
N738 S737 1.613 . S
N738 C741 1.350 . S
N739 S737 1.610 . S
N739 C740 1.351 . S
C740 C734 1.428 . S
C740 N739 1.351 . S
C740 C741 1.434 . S
C741 C732 1.429 . S
C741 N738 1.350 . S
C741 C740 1.434 . S
C742 C743 1.369 . S
C742 C744 1.419 . S
C742 H746 0.930 . S
C743 C742 1.369 . S
C743 C752 1.429 . S
C744 C742 1.419 . S
C744 C745 1.363 . S
C744 H747 0.929 . S
C745 C744 1.363 . S
C745 C751 1.428 . S
H746 C742 0.930 . S
H747 C744 0.929 . S
S748 N749 1.613 . S
S748 N750 1.610 . S
N749 S748 1.613 . S
N749 C752 1.350 . S
N750 S748 1.610 . S
N750 C751 1.351 . S
C751 C745 1.428 . S
C751 N750 1.351 . S
C751 C752 1.434 . S
C752 C743 1.429 . S
C752 N749 1.350 . S
C752 C751 1.434 . S
C753 C754 1.369 . S
C753 C755 1.419 . S
C753 H757 0.930 . S
C754 C753 1.369 . S
C754 C763 1.429 . S
C755 C753 1.419 . S
C755 C756 1.363 . S
C755 H758 0.929 . S
C756 C755 1.363 . S
C756 C762 1.428 . S
H757 C753 0.930 . S
H758 C755 0.929 . S
S759 N760 1.613 . S
S759 N761 1.610 . S
N760 S759 1.613 . S
N760 C763 1.350 . S
N761 S759 1.610 . S
N761 C762 1.351 . S
C762 C756 1.428 . S
C762 N761 1.351 . S
C762 C763 1.434 . S
C763 C754 1.429 . S
C763 N760 1.350 . S
C763 C762 1.434 . S
C764 C765 1.369 . S
C764 C766 1.419 . S
C764 H768 0.930 . S
C765 C764 1.369 . S
C765 C774 1.429 . S
C766 C764 1.419 . S
C766 C767 1.363 . S
C766 H769 0.929 . S
C767 C766 1.363 . S
C767 C773 1.428 . S
H768 C764 0.930 . S
H769 C766 0.929 . S
S770 N771 1.613 . S
S770 N772 1.610 . S
N771 S770 1.613 . S
N771 C774 1.350 . S
N772 S770 1.610 . S
N772 C773 1.351 . S
C773 C767 1.428 . S
C773 N772 1.351 . S
C773 C774 1.434 . S
C774 C765 1.429 . S
C774 N771 1.350 . S
C774 C773 1.434 . S
C775 C776 1.369 . S
C775 C777 1.419 . S
C775 H779 0.930 . S
C776 C775 1.369 . S
C776 C785 1.429 . S
C777 C775 1.419 . S
C777 C778 1.363 . S
C777 H780 0.929 . S
C778 C777 1.363 . S
C778 C784 1.428 . S
H779 C775 0.930 . S
H780 C777 0.929 . S
S781 N782 1.613 . S
S781 N783 1.610 . S
N782 S781 1.613 . S
N782 C785 1.350 . S
N783 S781 1.610 . S
N783 C784 1.351 . S
C784 C778 1.428 . S
C784 N783 1.351 . S
C784 C785 1.434 . S
C785 C776 1.429 . S
C785 N782 1.350 . S
C785 C784 1.434 . S
C786 C787 1.369 . S
C786 C788 1.419 . S
C786 H790 0.930 . S
C787 C786 1.369 . S
C787 C796 1.429 . S
C788 C786 1.419 . S
C788 C789 1.363 . S
C788 H791 0.929 . S
C789 C788 1.363 . S
C789 C795 1.428 . S
H790 C786 0.930 . S
H791 C788 0.929 . S
S792 N793 1.613 . S
S792 N794 1.610 . S
N793 S792 1.613 . S
N793 C796 1.350 . S
N794 S792 1.610 . S
N794 C795 1.351 . S
C795 C789 1.428 . S
C795 N794 1.351 . S
C795 C796 1.434 . S
C796 C787 1.429 . S
C796 N793 1.350 . S
C796 C795 1.434 . S
C797 C798 1.369 . S
C797 C799 1.419 . S
C797 H801 0.930 . S
C798 C797 1.369 . S
C798 C807 1.429 . S
C799 C797 1.419 . S
C799 C800 1.363 . S
C799 H802 0.929 . S
C800 C799 1.363 . S
C800 C806 1.428 . S
H801 C797 0.930 . S
H802 C799 0.929 . S
S803 N804 1.613 . S
S803 N805 1.610 . S
N804 S803 1.613 . S
N804 C807 1.350 . S
N805 S803 1.610 . S
N805 C806 1.351 . S
C806 C800 1.428 . S
C806 N805 1.351 . S
C806 C807 1.434 . S
C807 C798 1.429 . S
C807 N804 1.350 . S
C807 C806 1.434 . S
C808 C809 1.369 1_556 S
C808 C810 1.419 1_545 S
C808 H812 0.930 . S
C809 C808 1.369 1_554 S
C809 C818 1.429 . S
C810 C808 1.419 1_565 S
C810 C811 1.363 . S
C810 H813 0.929 . S
C811 C810 1.363 . S
C811 C817 1.428 1_556 S
H812 C808 0.930 . S
H813 C810 0.929 . S
S814 N815 1.613 1_565 S
S814 N816 1.610 . S
N815 S814 1.613 1_545 S
N815 C818 1.350 . S
N816 S814 1.610 . S
N816 C817 1.351 . S
C817 C811 1.428 1_554 S
C817 N816 1.351 . S
C817 C818 1.434 1_565 S
C818 C809 1.429 . S
C818 N815 1.350 . S
C818 C817 1.434 1_545 S
C819 C820 1.369 1_554 S
C819 C821 1.419 1_455 S
C819 H823 0.930 . S
C820 C819 1.369 1_556 S
C820 C829 1.429 . S
C821 C819 1.419 1_655 S
C821 C822 1.363 . S
C821 H824 0.929 . S
C822 C821 1.363 . S
C822 C828 1.428 1_554 S
H823 C819 0.930 . S
H824 C821 0.929 . S
S825 N826 1.613 1_655 S
S825 N827 1.610 . S
N826 S825 1.613 1_455 S
N826 C829 1.350 . S
N827 S825 1.610 . S
N827 C828 1.351 . S
C828 C822 1.428 1_556 S
C828 N827 1.351 . S
C828 C829 1.434 1_655 S
C829 C820 1.429 . S
C829 N826 1.350 . S
C829 C828 1.434 1_455 S
C830 C831 1.369 . S
C830 C832 1.419 1_565 S
C830 H834 0.930 . S
C831 C830 1.369 . S
C831 C840 1.429 1_554 S
C832 C830 1.419 1_545 S
C832 C833 1.363 1_554 S
C832 H835 0.929 . S
C833 C832 1.363 1_556 S
C833 C839 1.428 . S
H834 C830 0.930 . S
H835 C832 0.929 . S
S836 N837 1.613 . S
S836 N838 1.610 1_565 S
N837 S836 1.613 . S
N837 C840 1.350 . S
N838 S836 1.610 1_545 S
N838 C839 1.351 . S
C839 C833 1.428 . S
C839 N838 1.351 . S
C839 C840 1.434 1_545 S
C840 C831 1.429 1_556 S
C840 N837 1.350 . S
C840 C839 1.434 1_565 S
C841 C842 1.369 1_554 S
C841 C843 1.419 1_655 S
C841 H845 0.930 . S
C842 C841 1.369 1_556 S
C842 C851 1.429 . S
C843 C841 1.419 1_455 S
C843 C844 1.363 . S
C843 H846 0.929 . S
C844 C843 1.363 . S
C844 C850 1.428 1_554 S
H845 C841 0.930 . S
H846 C843 0.929 . S
S847 N848 1.613 1_455 S
S847 N849 1.610 . S
N848 S847 1.613 1_655 S
N848 C851 1.350 . S
N849 S847 1.610 . S
N849 C850 1.351 . S
C850 C844 1.428 1_556 S
C850 N849 1.351 . S
C850 C851 1.434 1_455 S
C851 C842 1.429 . S
C851 N848 1.350 . S
C851 C850 1.434 1_655 S
C852 C853 1.369 . S
C852 C854 1.419 . S
C852 H856 0.930 . S
C853 C852 1.369 . S
C853 C862 1.429 . S
C854 C852 1.419 . S
C854 C855 1.363 . S
C854 H857 0.929 . S
C855 C854 1.363 . S
C855 C861 1.428 . S
H856 C852 0.930 . S
H857 C854 0.929 . S
S858 N859 1.613 . S
S858 N860 1.610 . S
N859 S858 1.613 . S
N859 C862 1.350 . S
N860 S858 1.610 . S
N860 C861 1.351 . S
C861 C855 1.428 . S
C861 N860 1.351 . S
C861 C862 1.434 . S
C862 C853 1.429 . S
C862 N859 1.350 . S
C862 C861 1.434 . S
C863 C864 1.369 . S
C863 C865 1.419 . S
C863 H867 0.930 . S
C864 C863 1.369 . S
C864 C873 1.429 . S
C865 C863 1.419 . S
C865 C866 1.363 . S
C865 H868 0.929 . S
C866 C865 1.363 . S
C866 C872 1.428 . S
H867 C863 0.930 . S
H868 C865 0.929 . S
S869 N870 1.613 . S
S869 N871 1.610 . S
N870 S869 1.613 . S
N870 C873 1.350 . S
N871 S869 1.610 . S
N871 C872 1.351 . S
C872 C866 1.428 . S
C872 N871 1.351 . S
C872 C873 1.434 . S
C873 C864 1.429 . S
C873 N870 1.350 . S
C873 C872 1.434 . S
C874 C875 1.369 . S
C874 C876 1.419 . S
C874 H878 0.930 . S
C875 C874 1.369 . S
C875 C884 1.429 . S
C876 C874 1.419 . S
C876 C877 1.363 . S
C876 H879 0.929 . S
C877 C876 1.363 . S
C877 C883 1.428 . S
H878 C874 0.930 . S
H879 C876 0.929 . S
S880 N881 1.613 . S
S880 N882 1.610 . S
N881 S880 1.613 . S
N881 C884 1.350 . S
N882 S880 1.610 . S
N882 C883 1.351 . S
C883 C877 1.428 . S
C883 N882 1.351 . S
C883 C884 1.434 . S
C884 C875 1.429 . S
C884 N881 1.350 . S
C884 C883 1.434 . S
C885 C886 1.369 . S
C885 C887 1.419 . S
C885 H889 0.930 . S
C886 C885 1.369 . S
C886 C895 1.429 . S
C887 C885 1.419 . S
C887 C888 1.363 . S
C887 H890 0.929 . S
C888 C887 1.363 . S
C888 C894 1.428 . S
H889 C885 0.930 . S
H890 C887 0.929 . S
S891 N892 1.613 . S
S891 N893 1.610 . S
N892 S891 1.613 . S
N892 C895 1.350 . S
N893 S891 1.610 . S
N893 C894 1.351 . S
C894 C888 1.428 . S
C894 N893 1.351 . S
C894 C895 1.434 . S
C895 C886 1.429 . S
C895 N892 1.350 . S
C895 C894 1.434 . S
C896 C897 1.369 . S
C896 C898 1.419 . S
C896 H900 0.930 . S
C897 C896 1.369 . S
C897 C906 1.429 1_554 S
C898 C896 1.419 . S
C898 C899 1.363 1_554 S
C898 H901 0.929 . S
C899 C898 1.363 1_556 S
C899 C905 1.428 . S
H900 C896 0.930 . S
H901 C898 0.929 . S
S902 N903 1.613 . S
S902 N904 1.610 . S
N903 S902 1.613 . S
N903 C906 1.350 . S
N904 S902 1.610 . S
N904 C905 1.351 . S
C905 C899 1.428 . S
C905 N904 1.351 . S
C905 C906 1.434 . S
C906 C897 1.429 1_556 S
C906 N903 1.350 . S
C906 C905 1.434 . S
C907 C908 1.369 . S
C907 C909 1.419 . S
C907 H911 0.930 . S
C908 C907 1.369 . S
C908 C917 1.429 1_554 S
C909 C907 1.419 . S
C909 C910 1.363 1_554 S
C909 H912 0.929 . S
C910 C909 1.363 1_556 S
C910 C916 1.428 . S
H911 C907 0.930 . S
H912 C909 0.929 . S
S913 N914 1.613 . S
S913 N915 1.610 . S
N914 S913 1.613 . S
N914 C917 1.350 . S
N915 S913 1.610 . S
N915 C916 1.351 . S
C916 C910 1.428 . S
C916 N915 1.351 . S
C916 C917 1.434 . S
C917 C908 1.429 1_556 S
C917 N914 1.350 . S
C917 C916 1.434 . S
C918 C919 1.371 . S
C918 C920 1.417 1_556 S
C918 H922 0.930 1_556 S
C919 C918 1.371 . S
C919 C928 1.429 . S
C920 C918 1.417 1_554 S
C920 C921 1.363 . S
C920 H923 0.929 . S
C921 C920 1.363 . S
C921 C927 1.428 1_554 S
H922 C918 0.930 1_554 S
H923 C920 0.929 . S
S924 N925 1.613 . S
S924 N926 1.610 . S
N925 S924 1.613 . S
N925 C928 1.350 . S
N926 S924 1.610 . S
N926 C927 1.351 . S
C927 C921 1.428 1_556 S
C927 N926 1.351 . S
C927 C928 1.434 . S
C928 C919 1.429 . S
C928 N925 1.350 . S
C928 C927 1.434 . S
C929 C930 1.369 1_556 S
C929 C931 1.419 . S
C929 H933 0.930 . S
C930 C929 1.369 1_554 S
C930 C939 1.429 . S
C931 C929 1.419 . S
C931 C932 1.363 . S
C931 H934 0.929 . S
C932 C931 1.363 . S
C932 C938 1.428 1_556 S
H933 C929 0.930 . S
H934 C931 0.929 . S
S935 N936 1.613 . S
S935 N937 1.610 . S
N936 S935 1.613 . S
N936 C939 1.350 . S
N937 S935 1.610 . S
N937 C938 1.351 . S
C938 C932 1.428 1_554 S
C938 N937 1.351 . S
C938 C939 1.434 . S
C939 C930 1.429 . S
C939 N936 1.350 . S
C939 C938 1.434 . S
C940 C941 1.369 . S
C940 C942 1.419 . S
C940 H944 0.930 . S
C941 C940 1.369 . S
C941 C950 1.429 . S
C942 C940 1.419 . S
C942 C943 1.363 . S
C942 H945 0.929 . S
C943 C942 1.363 . S
C943 C949 1.428 . S
H944 C940 0.930 . S
H945 C942 0.929 . S
S946 N947 1.613 . S
S946 N948 1.610 . S
N947 S946 1.613 . S
N947 C950 1.350 . S
N948 S946 1.610 . S
N948 C949 1.351 . S
C949 C943 1.428 . S
C949 N948 1.351 . S
C949 C950 1.434 . S
C950 C941 1.429 . S
C950 N947 1.350 . S
C950 C949 1.434 . S
C951 C952 1.369 . S
C951 C953 1.419 . S
C951 H955 0.930 . S
C952 C951 1.369 . S
C952 C961 1.429 . S
C953 C951 1.419 . S
C953 C954 1.363 . S
C953 H956 0.929 . S
C954 C953 1.363 . S
C954 C960 1.428 . S
H955 C951 0.930 . S
H956 C953 0.929 . S
S957 N958 1.613 . S
S957 N959 1.610 . S
N958 S957 1.613 . S
N958 C961 1.350 . S
N959 S957 1.610 . S
N959 C960 1.351 . S
C960 C954 1.428 . S
C960 N959 1.351 . S
C960 C961 1.434 . S
C961 C952 1.429 . S
C961 N958 1.350 . S
C961 C960 1.434 . S
C962 C963 1.369 . S
C962 C964 1.419 . S
C962 H966 0.930 . S
C963 C962 1.369 . S
C963 C972 1.429 . S
C964 C962 1.419 . S
C964 C965 1.363 . S
C964 H967 0.929 . S
C965 C964 1.363 . S
C965 C971 1.428 . S
H966 C962 0.930 . S
H967 C964 0.929 . S
S968 N969 1.613 . S
S968 N970 1.610 . S
N969 S968 1.613 . S
N969 C972 1.350 . S
N970 S968 1.610 . S
N970 C971 1.351 . S
C971 C965 1.428 . S
C971 N970 1.351 . S
C971 C972 1.434 . S
C972 C963 1.429 . S
C972 N969 1.350 . S
C972 C971 1.434 . S
C973 C974 1.369 . S
C973 C975 1.419 . S
C973 H977 0.930 . S
C974 C973 1.369 . S
C974 C983 1.429 . S
C975 C973 1.419 . S
C975 C976 1.363 . S
C975 H978 0.929 . S
C976 C975 1.363 . S
C976 C982 1.428 . S
H977 C973 0.930 . S
H978 C975 0.929 . S
S979 N980 1.613 . S
S979 N981 1.610 . S
N980 S979 1.613 . S
N980 C983 1.350 . S
N981 S979 1.610 . S
N981 C982 1.351 . S
C982 C976 1.428 . S
C982 N981 1.351 . S
C982 C983 1.434 . S
C983 C974 1.429 . S
C983 N980 1.350 . S
C983 C982 1.434 . S
C545 C9 1.389 . S
C547 C5 1.361 . S
C556 C43 1.389 . S
C558 C39 1.363 . S
C567 C73 1.366 . S
C569 C77 1.390 . S
C578 C107 1.364 . S
C580 C111 1.391 . S
C589 C145 1.390 . S
C591 C141 1.361 . S
C600 C175 1.367 . S
C602 C179 1.391 . S
C611 C209 1.359 . S
C613 C213 1.390 . S
C622 C243 1.360 . S
C624 C247 1.389 . S
C633 C281 1.389 . S
C635 C277 1.365 . S
C644 C315 1.391 . S
C646 C311 1.363 . S
C655 C349 1.390 . S
C657 C345 1.361 . S
C666 C383 1.391 . S
C668 C379 1.366 . S
C677 C413 1.359 . S
C679 C417 1.390 . S
C688 C447 1.367 . S
C690 C451 1.390 . S
C699 C481 1.367 . S
C701 C485 1.390 . S
C710 C515 1.367 . S
C712 C519 1.391 . S
C721 C33 1.553 . S
C723 C543 1.550 . S
C732 C441 1.551 . S
C734 C67 1.551 . S
C743 C475 1.554 . S
C745 C101 1.548 . S
C754 C509 1.546 . S
C756 C135 1.551 . S
C765 C339 1.545 . S
C767 C169 1.554 . S
C776 C203 1.546 . S
C778 C373 1.554 . S
C787 C237 1.555 . S
C789 C407 1.546 . S
C798 C305 1.547 . S
C800 C271 1.553 . S
C809 C20 1.585 . S
C811 C156 1.583 . S
C820 C190 1.584 . S
C822 C54 1.584 . S
C831 C88 1.583 . S
C833 C224 1.584 . S
C842 C258 1.585 . S
C844 C122 1.584 . S
C853 C428 1.582 . S
C855 C292 1.584 . S
C864 C326 1.582 . S
C866 C462 1.581 . S
C875 C360 1.581 . S
C877 C496 1.583 . S
C886 C394 1.584 . S
C888 C530 1.584 . S
C897 C2 1.737 . S
C899 C172 1.739 . S
C908 C36 1.737 . S
C910 C206 1.739 . S
C919 C240 1.739 . S
C921 C70 1.738 . S
C930 C104 1.739 . S
C932 C138 1.737 . S
C941 C444 1.738 . S
C943 C274 1.737 . S
C952 C308 1.739 . S
C954 C478 1.737 . S
C963 C512 1.737 . S
C965 C342 1.739 . S
C974 C410 1.739 . S
C976 C376 1.738 . S
