# Generated by pormake.
# Topology uoc, (4)-cn, num edge types: 1
# Building blocks:
#     Node 0, Type 0, BuildingBlock: ICAMEG_clean_sbu_1, # of connection points: 4
#     Node 1, Type 0, BuildingBlock: ICAMEG_clean_sbu_1, # of connection points: 4
#     Node 2, Type 0, BuildingBlock: ICAMEG_clean_sbu_1, # of connection points: 4
#     Node 3, Type 0, BuildingBlock: ICAMEG_clean_sbu_1, # of connection points: 4
#     Node 4, Type 0, BuildingBlock: ICAMEG_clean_sbu_1, # of connection points: 4
#     Node 5, Type 0, BuildingBlock: ICAMEG_clean_sbu_1, # of connection points: 4
#     Node 6, Type 0, BuildingBlock: ICAMEG_clean_sbu_1, # of connection points: 4
#     Node 7, Type 0, BuildingBlock: ICAMEG_clean_sbu_1, # of connection points: 4
#     Edge 8, Type (0, 0), BuildingBlock: UVAHIK_clean_linker_0, # of connection points: 2
#     Edge 9, Type (0, 0), BuildingBlock: UVAHIK_clean_linker_0, # of connection points: 2
#     Edge 10, Type (0, 0), BuildingBlock: UVAHIK_clean_linker_0, # of connection points: 2
#     Edge 11, Type (0, 0), BuildingBlock: UVAHIK_clean_linker_0, # of connection points: 2
#     Edge 12, Type (0, 0), BuildingBlock: UVAHIK_clean_linker_0, # of connection points: 2
#     Edge 13, Type (0, 0), BuildingBlock: UVAHIK_clean_linker_0, # of connection points: 2
#     Edge 14, Type (0, 0), BuildingBlock: UVAHIK_clean_linker_0, # of connection points: 2
#     Edge 15, Type (0, 0), BuildingBlock: UVAHIK_clean_linker_0, # of connection points: 2
#     Edge 16, Type (0, 0), BuildingBlock: UVAHIK_clean_linker_0, # of connection points: 2
#     Edge 17, Type (0, 0), BuildingBlock: UVAHIK_clean_linker_0, # of connection points: 2
#     Edge 18, Type (0, 0), BuildingBlock: UVAHIK_clean_linker_0, # of connection points: 2
#     Edge 19, Type (0, 0), BuildingBlock: UVAHIK_clean_linker_0, # of connection points: 2
#     Edge 20, Type (0, 0), BuildingBlock: UVAHIK_clean_linker_0, # of connection points: 2
#     Edge 21, Type (0, 0), BuildingBlock: UVAHIK_clean_linker_0, # of connection points: 2
#     Edge 22, Type (0, 0), BuildingBlock: UVAHIK_clean_linker_0, # of connection points: 2
#     Edge 23, Type (0, 0), BuildingBlock: UVAHIK_clean_linker_0, # of connection points: 2
# Relax obj value: 0.092
# Max RMSD: 0.103
# Mean RMSD: 0.103
data_MOF--net-uoc--node1-ICAMEG_clean_sbu_1--edge1-UVAHIK_clean_linker_0
_symmetry_space_group_name_H-M    P1
_symmetry_Int_Tables_number       1
_symmetry_cell_setting            triclinic
loop_
_symmetry_equiv_pos_as_xyz
'x, y, z'
_cell_length_a     36.275962
_cell_length_b     36.272639
_cell_length_c     75.919976
_cell_angle_alpha  89.991016
_cell_angle_beta   89.976491
_cell_angle_gamma 99.607189
loop_
_atom_site_label
_atom_site_type_symbol
_atom_site_fract_x
_atom_site_fract_y
_atom_site_fract_z
_atom_type_partial_charge
Co0 Co 0.14869 0.25666 0.12441 0.0
Co1 Co 0.05845 0.24304 0.10922 0.0
O2 O 0.09936 0.27123 0.12283 0.0
C3 C 0.12835 0.26514 0.16171 0.0
O4 O 0.09688 0.24258 0.15842 0.0
C5 C 0.06172 0.32052 0.09675 0.0
O6 O 0.09784 0.32202 0.09455 0.0
O7 O 0.09056 0.2461 0.08792 0.0
O8 O 0.14625 0.23938 0.09923 0.0
H9 H 7e-05 0.14405 0.06675 0.0
H10 H 0.13916 0.33326 0.13483 0.0
O11 O 0.15236 0.27385 0.14952 0.0
H12 H 0.2321 0.35018 0.08683 0.0
H13 H 0.28314 0.27291 0.14379 0.0
H14 H 0.18159 0.19137 0.11254 0.0
H15 H 0.20517 0.28699 0.09721 0.0
H16 H 0.2208 0.29103 0.14096 0.0
O17 O 0.0417 0.29081 0.10251 0.0
H18 H 0.05124 0.17892 0.08452 0.0
H19 H 0.97813 0.24916 0.10433 0.0
H20 H 0.24358 0.17232 0.11491 0.0
H21 H 0.16563 0.39699 0.12495 0.0
H22 H 0.29488 0.21325 0.13063 0.0
H23 H 0.21237 0.40574 0.10075 0.0
O24 O 0.12598 0.20555 0.13227 0.0
H25 H 0.00425 0.29437 0.16304 0.0
H26 H 0.00832 0.18122 0.12759 0.0
H27 H 0.9704 0.17651 0.1547 0.0
H28 H 0.96813 0.23339 0.17262 0.0
H29 H 0.04219 0.29774 0.13593 0.0
H30 H 0.92622 0.21522 0.08668 0.0
H31 H 0.93702 0.16217 0.06776 0.0
O32 O 0.0739 0.19452 0.11571 0.0
C33 C 0.12401 0.24008 0.08623 0.0
C34 C 0.99499 0.16704 0.07498 0.0
C35 C 0.95355 0.20702 0.08615 0.0
N36 N 0.0176 0.21585 0.09555 0.0
C37 C 0.02383 0.18682 0.08511 0.0
C38 C 0.98306 0.22617 0.09609 0.0
C39 C 0.95963 0.17724 0.07554 0.0
C40 C 0.15975 0.33686 0.1244 0.0
N41 N 0.17071 0.30645 0.11666 0.0
C42 C 0.17453 0.37301 0.11882 0.0
C43 C 0.20071 0.37789 0.10522 0.0
C44 C 0.21177 0.34673 0.0974 0.0
C45 C 0.19635 0.31101 0.1033 0.0
C46 C 0.26104 0.25489 0.13687 0.0
C47 C 0.20385 0.20943 0.11929 0.0
C48 C 0.22567 0.26496 0.13526 0.0
N49 N 0.19771 0.24243 0.12645 0.0
C50 C 0.23885 0.19845 0.12065 0.0
C51 C 0.26761 0.22141 0.12948 0.0
C52 C 0.09772 0.18394 0.12605 0.0
C53 C 0.00492 0.26942 0.15532 0.0
C54 C 0.00757 0.20609 0.13533 0.0
C55 C 0.98597 0.20326 0.15065 0.0
C56 C 0.9847 0.23518 0.16069 0.0
N57 N 0.02732 0.23978 0.13014 0.0
C58 C 0.02621 0.27119 0.13991 0.0
Co59 Co 0.75151 0.65371 0.37296 0.0
Co60 Co 0.75441 0.569 0.39184 0.0
O61 O 0.77476 0.60922 0.37574 0.0
C62 C 0.75996 0.62983 0.33605 0.0
O63 O 0.74127 0.59687 0.34035 0.0
C64 C 0.83505 0.58267 0.40061 0.0
O65 O 0.83397 0.61865 0.40126 0.0
O66 O 0.75814 0.60507 0.41161 0.0
O67 O 0.73694 0.65296 0.39858 0.0
H68 H 0.67122 0.51 0.44066 0.0
H69 H 0.8298 0.65549 0.3613 0.0
O70 O 0.76616 0.65581 0.34749 0.0
H71 H 0.83556 0.75591 0.40548 0.0
H72 H 0.74308 0.78141 0.34893 0.0
H73 H 0.68101 0.67637 0.38525 0.0
H74 H 0.77517 0.71767 0.39747 0.0
H75 H 0.77234 0.7254 0.35334 0.0
O76 O 0.80583 0.55945 0.39688 0.0
H77 H 0.69636 0.55997 0.41976 0.0
H78 H 0.77113 0.49259 0.39895 0.0
H79 H 0.6509 0.73198 0.38132 0.0
H80 H 0.89074 0.69332 0.3688 0.0
H81 H 0.682 0.78501 0.36304 0.0
H82 H 0.89389 0.74388 0.39108 0.0
O83 O 0.70277 0.62191 0.36699 0.0
H84 H 0.80129 0.51142 0.33785 0.0
H85 H 0.69451 0.5091 0.37829 0.0
H86 H 0.68877 0.46605 0.35294 0.0
H87 H 0.74246 0.46698 0.33253 0.0
H88 H 0.80569 0.5543 0.36328 0.0
H89 H 0.74702 0.44199 0.41973 0.0
H90 H 0.69659 0.45048 0.44073 0.0
O91 O 0.70221 0.57688 0.38726 0.0
C92 C 0.74515 0.6356 0.41232 0.0
C93 C 0.69312 0.50592 0.43154 0.0
C94 C 0.7357 0.46777 0.4198 0.0
N95 N 0.73499 0.52911 0.40806 0.0
C96 C 0.7074 0.53408 0.41964 0.0
C97 C 0.7493 0.49655 0.4081 0.0
C98 C 0.70739 0.47255 0.43158 0.0
C99 C 0.8309 0.67767 0.37088 0.0
N100 N 0.79894 0.68444 0.37888 0.0
C101 C 0.8655 0.6989 0.37513 0.0
C102 C 0.86726 0.72723 0.38765 0.0
C103 C 0.83454 0.73397 0.39575 0.0
C104 C 0.80044 0.71215 0.39119 0.0
C105 C 0.72929 0.75852 0.35695 0.0
C106 C 0.6948 0.69943 0.37737 0.0
C107 C 0.74568 0.7267 0.35946 0.0
N108 N 0.72852 0.69779 0.36966 0.0
C109 C 0.67758 0.7308 0.37515 0.0
C110 C 0.69502 0.76052 0.36488 0.0
C111 C 0.68602 0.59408 0.37574 0.0
C112 C 0.77775 0.51067 0.34669 0.0
C113 C 0.71797 0.50977 0.36945 0.0
C114 C 0.71458 0.48526 0.35514 0.0
C115 C 0.74471 0.48578 0.34369 0.0
N116 N 0.75048 0.53408 0.3723 0.0
C117 C 0.78013 0.53477 0.36114 0.0
Co118 Co 0.34524 0.24385 0.62463 0.0
Co119 Co 0.43334 0.24966 0.60762 0.0
O120 O 0.39218 0.22461 0.62215 0.0
C121 C 0.36721 0.23131 0.66136 0.0
O122 O 0.40069 0.24916 0.65736 0.0
C123 C 0.4242 0.17108 0.59592 0.0
O124 O 0.38826 0.1716 0.59423 0.0
O125 O 0.3996 0.24764 0.58696 0.0
O126 O 0.34748 0.26144 0.59945 0.0
H127 H 0.49388 0.34353 0.56326 0.0
H128 H 0.34822 0.16538 0.63451 0.0
O129 O 0.34156 0.22659 0.64974 0.0
H130 H 0.25219 0.15756 0.58809 0.0
H131 H 0.21326 0.23978 0.64605 0.0
H132 H 0.31849 0.31322 0.61364 0.0
H133 H 0.28513 0.21883 0.5983 0.0
H134 H 0.27236 0.21557 0.64212 0.0
O135 O 0.44615 0.2001 0.60108 0.0
H136 H 0.4426 0.31261 0.58218 0.0
H137 H 0.51175 0.2379 0.60143 0.0
H138 H 0.25977 0.33835 0.61712 0.0
H139 H 0.31573 0.10352 0.6248 0.0
H140 H 0.20664 0.30153 0.63343 0.0
H141 H 0.2674 0.09935 0.60139 0.0
O142 O 0.37293 0.29319 0.63238 0.0
H143 H 0.48867 0.19653 0.66065 0.0
H144 H 0.48833 0.30958 0.62459 0.0
H145 H 0.5287 0.31291 0.65086 0.0
H146 H 0.5291 0.25608 0.66907 0.0
H147 H 0.44836 0.19454 0.63439 0.0
H148 H 0.5637 0.26784 0.58262 0.0
H149 H 0.55497 0.32115 0.56341 0.0
O150 O 0.42188 0.30001 0.61384 0.0
C151 C 0.36758 0.25756 0.58595 0.0
C152 C 0.49807 0.3204 0.57162 0.0
C153 C 0.53724 0.27789 0.58246 0.0
N154 N 0.47426 0.27367 0.59299 0.0
C155 C 0.46916 0.30285 0.58239 0.0
C156 C 0.5077 0.261 0.59306 0.0
C157 C 0.53232 0.30781 0.57169 0.0
C158 C 0.32697 0.16379 0.62444 0.0
N159 N 0.31848 0.19567 0.61704 0.0
C160 C 0.30877 0.12869 0.61894 0.0
C161 C 0.2817 0.12637 0.60578 0.0
C162 C 0.27318 0.15902 0.59831 0.0
C163 C 0.29199 0.19363 0.60411 0.0
C164 C 0.23618 0.25605 0.63889 0.0
C165 C 0.2954 0.29694 0.62066 0.0
C166 C 0.26974 0.24253 0.63665 0.0
N167 N 0.29872 0.26284 0.62753 0.0
C168 C 0.26227 0.31136 0.62263 0.0
C169 C 0.23248 0.2907 0.6318 0.0
C170 C 0.40115 0.31283 0.62505 0.0
C171 C 0.48883 0.22145 0.65279 0.0
C172 C 0.48822 0.28475 0.63248 0.0
C173 C 0.51123 0.28679 0.64732 0.0
C174 C 0.51146 0.25489 0.65752 0.0
N175 N 0.46609 0.25185 0.62793 0.0
C176 C 0.4662 0.22045 0.63786 0.0
Co177 Co 0.74203 0.84744 0.87452 0.0
Co178 Co 0.74993 0.93675 0.89042 0.0
O179 O 0.72398 0.89511 0.87646 0.0
C180 C 0.73019 0.86816 0.83758 0.0
O181 O 0.74856 0.90156 0.84133 0.0
C182 C 0.67176 0.92932 0.90256 0.0
O183 O 0.67198 0.89344 0.90475 0.0
O184 O 0.74802 0.90414 0.91149 0.0
O185 O 0.75957 0.85049 0.89968 0.0
H186 H 0.84556 0.9985 0.93366 0.0
H187 H 0.66399 0.85186 0.86445 0.0
O188 O 0.72484 0.84298 0.84943 0.0
H189 H 0.65384 0.75795 0.91195 0.0
H190 H 0.73476 0.71404 0.85459 0.0
H191 H 0.81042 0.81942 0.88596 0.0
H192 H 0.71564 0.789 0.90148 0.0
H193 H 0.71211 0.77415 0.8578 0.0
O194 O 0.70082 0.95066 0.89698 0.0
H195 H 0.81352 0.94652 0.91548 0.0
H196 H 0.73946 0.01582 0.89572 0.0
H197 H 0.83399 0.75969 0.88321 0.0
H198 H 0.60161 0.82125 0.87442 0.0
H199 H 0.79604 0.70648 0.86742 0.0
H200 H 0.59627 0.77399 0.89837 0.0
O201 O 0.79184 0.87362 0.86655 0.0
H202 H 0.6964 0.99004 0.83694 0.0
H203 H 0.81006 0.98998 0.87254 0.0
H204 H 0.81333 0.02887 0.84577 0.0
H205 H 0.75619 0.02912 0.82778 0.0
H206 H 0.69448 0.95119 0.8637 0.0
H207 H 0.77055 0.06849 0.91379 0.0
H208 H 0.82409 0.06002 0.93289 0.0
O209 O 0.79981 0.92417 0.88413 0.0
C210 C 0.75683 0.87168 0.9129 0.0
C211 C 0.82234 0.00257 0.92536 0.0
C212 C 0.7802 0.04183 0.91422 0.0
N213 N 0.77484 0.97821 0.90445 0.0
C214 C 0.80414 0.97327 0.91499 0.0
C215 C 0.76267 0.01189 0.90404 0.0
C216 C 0.81025 0.03707 0.92493 0.0
C217 C 0.66188 0.83106 0.87476 0.0
N218 N 0.69341 0.82211 0.88231 0.0
C219 C 0.62649 0.81393 0.8804 0.0
C220 C 0.62351 0.78747 0.89386 0.0
C221 C 0.6558 0.77847 0.90149 0.0
C222 C 0.69072 0.79621 0.89554 0.0
C223 C 0.75152 0.73699 0.86153 0.0
C224 C 0.79366 0.79631 0.87917 0.0
C225 C 0.73888 0.77112 0.86335 0.0
N226 N 0.7598 0.80014 0.87218 0.0
C227 C 0.80719 0.7626 0.87761 0.0
C228 C 0.7859 0.73277 0.86874 0.0
C229 C 0.81201 0.90216 0.87334 0.0
C230 C 0.72145 0.99026 0.8447 0.0
C231 C 0.7851 0.98981 0.86475 0.0
C232 C 0.7871 0.01198 0.84963 0.0
C233 C 0.75503 0.01213 0.83955 0.0
N234 N 0.75206 0.96842 0.86971 0.0
C235 C 0.72049 0.96846 0.85991 0.0
Co236 Co 0.64971 0.74727 0.62302 0.0
Co237 Co 0.56463 0.75205 0.60489 0.0
O238 O 0.60575 0.77168 0.62068 0.0
C239 C 0.62667 0.75774 0.6598 0.0
O240 O 0.5925 0.74324 0.65509 0.0
C241 C 0.57894 0.83293 0.59626 0.0
O242 O 0.61489 0.83181 0.5955 0.0
O243 O 0.59996 0.75542 0.58483 0.0
O244 O 0.64778 0.73313 0.59734 0.0
H245 H 0.5028 0.67005 0.55633 0.0
H246 H 0.65361 0.82555 0.63502 0.0
O247 O 0.6531 0.76117 0.64856 0.0
H248 H 0.75224 0.82991 0.58998 0.0
H249 H 0.77761 0.73552 0.64575 0.0
H250 H 0.6701 0.67612 0.61025 0.0
H251 H 0.71313 0.77 0.59806 0.0
H252 H 0.72239 0.76629 0.64199 0.0
O253 O 0.5557 0.80374 0.60003 0.0
H254 H 0.55377 0.69433 0.57685 0.0
H255 H 0.48836 0.76995 0.59855 0.0
H256 H 0.7249 0.64453 0.61353 0.0
H257 H 0.69234 0.88602 0.62746 0.0
H258 H 0.77916 0.67427 0.63139 0.0
H259 H 0.74201 0.88846 0.60476 0.0
O260 O 0.61717 0.69912 0.62917 0.0
H261 H 0.50933 0.80016 0.6592 0.0
H262 H 0.50456 0.69281 0.61894 0.0
H263 H 0.46236 0.68778 0.64459 0.0
H264 H 0.46452 0.74175 0.66493 0.0
H265 H 0.5514 0.80382 0.6335 0.0
H266 H 0.43679 0.7467 0.57817 0.0
H267 H 0.44378 0.69628 0.55691 0.0
O268 O 0.57169 0.69948 0.60927 0.0
C269 C 0.63024 0.74208 0.5838 0.0
C270 C 0.49937 0.69195 0.56556 0.0
C271 C 0.46235 0.73501 0.57781 0.0
N272 N 0.52396 0.73334 0.58898 0.0
C273 C 0.52811 0.70576 0.57725 0.0
C274 C 0.49168 0.74812 0.58929 0.0
C275 C 0.46628 0.70671 0.56589 0.0
C276 C 0.6754 0.82634 0.62524 0.0
N277 N 0.68118 0.79427 0.61705 0.0
C278 C 0.69714 0.86068 0.62097 0.0
C279 C 0.72496 0.86204 0.60821 0.0
C280 C 0.7307 0.8292 0.5999 0.0
C281 C 0.70839 0.79538 0.6045 0.0
C282 C 0.75417 0.72231 0.63791 0.0
C283 C 0.6937 0.68932 0.61796 0.0
C284 C 0.72279 0.73955 0.63577 0.0
N285 N 0.69319 0.72312 0.6258 0.0
C286 C 0.7246 0.67126 0.6198 0.0
C287 C 0.75502 0.68795 0.62984 0.0
C288 C 0.58873 0.6829 0.6207 0.0
C289 C 0.50804 0.7765 0.65041 0.0
C290 C 0.50582 0.71637 0.62776 0.0
C291 C 0.48175 0.71339 0.64224 0.0
C292 C 0.48296 0.74369 0.65363 0.0
N293 N 0.5304 0.74863 0.6247 0.0
C294 C 0.53168 0.77847 0.63579 0.0
Co295 Co 0.2453 0.14915 0.87557 0.0
Co296 Co 0.25229 0.06563 0.89478 0.0
O297 O 0.27136 0.10651 0.87873 0.0
C298 C 0.25869 0.12556 0.83913 0.0
O299 O 0.24509 0.09121 0.84392 0.0
C300 C 0.33296 0.08277 0.90389 0.0
O301 O 0.33107 0.1186 0.90387 0.0
O302 O 0.25352 0.10172 0.91444 0.0
O303 O 0.22962 0.14757 0.90106 0.0
H304 H 0.16962 0.00348 0.94308 0.0
H305 H 0.3245 0.15574 0.86456 0.0
O306 O 0.26061 0.1522 0.85019 0.0
H307 H 0.32255 0.25531 0.9086 0.0
H308 H 0.22992 0.27488 0.8513 0.0
H309 H 0.1722 0.16702 0.88707 0.0
H310 H 0.26431 0.21379 0.90017 0.0
H311 H 0.26277 0.22142 0.85611 0.0
O312 O 0.30427 0.05867 0.90038 0.0
H313 H 0.19329 0.05405 0.92223 0.0
H314 H 0.27255 0.99072 0.90227 0.0
H315 H 0.13851 0.22005 0.88272 0.0
H316 H 0.38335 0.19689 0.87248 0.0
H317 H 0.1674 0.27448 0.86472 0.0
H318 H 0.38261 0.24704 0.89469 0.0
O319 O 0.1985 0.11476 0.86913 0.0
H320 H 0.30512 0.01012 0.84172 0.0
H321 H 0.19556 0.00318 0.8808 0.0
H322 H 0.19323 0.95993 0.85563 0.0
H323 H 0.24832 0.96318 0.8359 0.0
H324 H 0.30609 0.05317 0.86693 0.0
H325 H 0.24994 0.93958 0.92301 0.0
H326 H 0.198 0.94572 0.94355 0.0
O327 O 0.19942 0.0706 0.88965 0.0
C328 C 0.23862 0.13114 0.91492 0.0
C329 C 0.19219 0.00042 0.93416 0.0
C330 C 0.2373 0.96458 0.92291 0.0
N331 N 0.23408 0.02525 0.91096 0.0
C332 C 0.20566 0.02893 0.92229 0.0
C333 C 0.25004 0.99368 0.91122 0.0
C334 C 0.20815 0.96804 0.93443 0.0
C335 C 0.32391 0.17772 0.87411 0.0
N336 N 0.29099 0.18243 0.88184 0.0
C337 C 0.35734 0.20084 0.8786 0.0
C338 C 0.35691 0.22893 0.89108 0.0
C339 C 0.32323 0.23356 0.8989 0.0
C340 C 0.29035 0.20989 0.89411 0.0
C341 C 0.21707 0.25136 0.8592 0.0
C342 C 0.18504 0.19071 0.8793 0.0
C343 C 0.2355 0.22097 0.86193 0.0
N344 N 0.21952 0.19127 0.87197 0.0
C345 C 0.16579 0.2206 0.87685 0.0
C346 C 0.182 0.25112 0.86674 0.0
C347 C 0.18274 0.08631 0.87775 0.0
C348 C 0.28098 0.00836 0.85025 0.0
C349 C 0.2196 0.00491 0.87224 0.0
C350 C 0.21815 0.98026 0.85803 0.0
C351 C 0.24908 0.98207 0.84698 0.0
N352 N 0.25098 0.03065 0.87535 0.0
C353 C 0.28143 0.03255 0.86459 0.0
Co354 Co 0.85312 0.75086 0.12258 0.0
Co355 Co 0.93638 0.7409 0.10381 0.0
O356 O 0.8946 0.72333 0.11955 0.0
C357 C 0.87488 0.73842 0.15951 0.0
O358 O 0.90896 0.75487 0.15563 0.0
C359 C 0.91486 0.66117 0.09393 0.0
O360 O 0.87976 0.66587 0.09347 0.0
O361 O 0.9012 0.7423 0.08391 0.0
O362 O 0.85558 0.76685 0.09717 0.0
H363 H 0.00375 0.82252 0.05644 0.0
H364 H 0.84389 0.67128 0.13338 0.0
O365 O 0.84927 0.73491 0.14786 0.0
H366 H 0.7457 0.67697 0.08904 0.0
H367 H 0.72832 0.76991 0.14664 0.0
H368 H 0.83766 0.82495 0.11116 0.0
H369 H 0.78866 0.73408 0.09775 0.0
H370 H 0.78057 0.73536 0.14189 0.0
O371 O 0.94051 0.68823 0.09792 0.0
H372 H 0.95184 0.80072 0.07689 0.0
H373 H 0.00949 0.71655 0.09647 0.0
H374 H 0.78589 0.86035 0.11545 0.0
H375 H 0.80126 0.61357 0.12519 0.0
H376 H 0.73072 0.83281 0.1333 0.0
H377 H 0.75181 0.61617 0.10282 0.0
O378 O 0.88866 0.79691 0.12908 0.0
H379 H 0.98628 0.68348 0.15708 0.0
H380 H 0.00101 0.7941 0.11833 0.0
H381 H 0.0431 0.79346 0.14378 0.0
H382 H 0.03592 0.73783 0.16335 0.0
H383 H 0.94455 0.68544 0.13157 0.0
H384 H 0.06191 0.73723 0.07613 0.0
H385 H 0.0593 0.7907 0.05598 0.0
O386 O 0.93406 0.7942 0.10933 0.0
C387 C 0.87227 0.75797 0.08336 0.0
C388 C 0.00527 0.79927 0.06519 0.0
C389 C 0.03789 0.75137 0.07623 0.0
N390 N 0.97776 0.75759 0.08795 0.0
C391 C 0.976 0.78686 0.07683 0.0
C392 C 0.00809 0.73973 0.08769 0.0
C393 C 0.03641 0.78138 0.06493 0.0
C394 C 0.82221 0.67271 0.12377 0.0
N395 N 0.8187 0.70604 0.11611 0.0
C396 C 0.79825 0.63991 0.11912 0.0
C397 C 0.77055 0.64138 0.10656 0.0
C398 C 0.76713 0.67548 0.09881 0.0
C399 C 0.79161 0.70771 0.10376 0.0
C400 C 0.75218 0.78217 0.1388 0.0
C401 C 0.81365 0.8127 0.11885 0.0
C402 C 0.78188 0.76278 0.1361 0.0
N403 N 0.81198 0.77801 0.12613 0.0
C404 C 0.78447 0.83291 0.12128 0.0
C405 C 0.75353 0.81746 0.13131 0.0
C406 C 0.91815 0.81165 0.12088 0.0
C407 C 0.98976 0.70784 0.14863 0.0
C408 C 0.99763 0.76982 0.12681 0.0
C409 C 0.0216 0.76959 0.14118 0.0
C410 C 0.01757 0.73836 0.15215 0.0
N411 N 0.97044 0.73975 0.12343 0.0
C412 C 0.9663 0.70905 0.13413 0.0
Co413 Co 0.24634 0.35019 0.37579 0.0
Co414 Co 0.25327 0.43848 0.39275 0.0
O415 O 0.22832 0.39773 0.37804 0.0
C416 C 0.23815 0.37297 0.33882 0.0
O417 O 0.25875 0.40515 0.34286 0.0
C418 C 0.17441 0.42987 0.4038 0.0
O419 O 0.17483 0.39392 0.40554 0.0
O420 O 0.25015 0.40462 0.41341 0.0
O421 O 0.26238 0.35158 0.40119 0.0
H422 H 0.34614 0.49786 0.43774 0.0
H423 H 0.16896 0.35547 0.36485 0.0
O424 O 0.23045 0.34761 0.35049 0.0
H425 H 0.15568 0.25865 0.41109 0.0
H426 H 0.23979 0.21819 0.35401 0.0
H427 H 0.31378 0.32101 0.38769 0.0
H428 H 0.21815 0.29017 0.40173 0.0
H429 H 0.21727 0.27825 0.35772 0.0
O430 O 0.20368 0.4518 0.39888 0.0
H431 H 0.31532 0.4469 0.41864 0.0
H432 H 0.24218 0.5171 0.39884 0.0
H433 H 0.3372 0.2613 0.38445 0.0
H434 H 0.10596 0.32441 0.37371 0.0
H435 H 0.30008 0.20937 0.3675 0.0
H436 H 0.09904 0.27569 0.39703 0.0
O437 O 0.29675 0.3767 0.36878 0.0
H438 H 0.20307 0.49428 0.33909 0.0
H439 H 0.31428 0.49307 0.37629 0.0
H440 H 0.31913 0.53346 0.34997 0.0
H441 H 0.26323 0.53429 0.33118 0.0
H442 H 0.19955 0.454 0.36542 0.0
H443 H 0.27202 0.56875 0.41783 0.0
H444 H 0.3245 0.55932 0.43741 0.0
O445 O 0.30354 0.42637 0.3869 0.0
C446 C 0.25882 0.37207 0.41458 0.0
C447 C 0.32338 0.50235 0.42923 0.0
C448 C 0.28175 0.54212 0.41807 0.0
N449 N 0.27718 0.47912 0.40754 0.0
C450 C 0.30589 0.47363 0.41835 0.0
C451 C 0.26491 0.51275 0.40737 0.0
C452 C 0.3112 0.53682 0.42905 0.0
C453 C 0.16618 0.33404 0.37488 0.0
N454 N 0.1972 0.32455 0.3827 0.0
C455 C 0.13043 0.31666 0.3799 0.0
C456 C 0.12657 0.28937 0.393 0.0
C457 C 0.15834 0.27982 0.40091 0.0
C458 C 0.19364 0.29783 0.39558 0.0
C459 C 0.25617 0.24057 0.36146 0.0
C460 C 0.29738 0.29845 0.3804 0.0
C461 C 0.2436 0.27466 0.36357 0.0
N462 N 0.26405 0.30296 0.37304 0.0
C463 C 0.31082 0.26475 0.37856 0.0
C464 C 0.29 0.23564 0.36904 0.0
C465 C 0.31648 0.40494 0.37606 0.0
C466 C 0.22759 0.49425 0.3472 0.0
C467 C 0.28984 0.49319 0.36815 0.0
C468 C 0.29274 0.51618 0.35329 0.0
C469 C 0.26137 0.51665 0.34276 0.0
N470 N 0.2566 0.47132 0.37243 0.0
C471 C 0.22572 0.47163 0.36217 0.0
C472 C 0.16958 0.21577 0.0663 0.0
C473 C 0.13748 0.23234 0.06839 0.0
C474 C 0.18155 0.2071 0.04954 0.0
C475 C 0.14783 0.19262 0.00336 0.0
H476 H 0.25343 0.19768 0.99339 0.0
C477 C 0.20471 0.17175 0.93356 0.0
C478 C 0.22939 0.14577 0.93232 0.0
C479 C 0.19449 0.18418 0.95 0.0
C480 C 0.22385 0.19602 0.99604 0.0
H481 H 0.0934 0.25379 0.05442 0.0
H482 H 0.11499 0.23994 0.02518 0.0
H483 H 0.23381 0.217 0.02222 0.0
H484 H 0.26342 0.11328 0.9474 0.0
H485 H 0.24597 0.13558 0.9761 0.0
H486 H 0.13813 0.17234 0.97698 0.0
C487 C 0.13034 0.23253 0.03651 0.0
C488 C 0.21252 0.2069 0.01258 0.0
C489 C 0.11806 0.24072 0.0533 0.0
C490 C 0.24428 0.13321 0.94788 0.0
C491 C 0.23446 0.14609 0.96431 0.0
C492 C 0.15921 0.18226 0.98675 0.0
C493 C 0.16206 0.21525 0.03439 0.0
C494 C 0.17431 0.20505 0.01653 0.0
C495 C 0.20914 0.17136 0.96553 0.0
C496 C 0.1973 0.18358 0.98297 0.0
H497 H 0.18511 0.2087 0.07765 0.0
H498 H 0.20567 0.19321 0.04853 0.0
H499 H 0.11816 0.19006 0.00596 0.0
H500 H 0.1927 0.18203 0.92186 0.0
H501 H 0.17515 0.2039 0.95057 0.0
C502 C 0.75874 0.61453 0.3038 0.0
C503 C 0.77383 0.63736 0.31786 0.0
C504 C 0.77089 0.62294 0.28654 0.0
C505 C 0.84895 0.67173 0.26038 0.0
H506 H 0.77388 0.68087 0.22507 0.0
C507 C 0.88799 0.73725 0.19194 0.0
C508 C 0.86557 0.72399 0.17746 0.0
C509 C 0.8778 0.72476 0.20899 0.0
C510 C 0.79531 0.67777 0.23461 0.0
H511 H 0.81429 0.68617 0.32495 0.0
H512 H 0.83594 0.70028 0.29486 0.0
H513 H 0.75457 0.66114 0.25479 0.0
H514 H 0.81577 0.68609 0.16938 0.0
H515 H 0.79889 0.66318 0.19885 0.0
H516 H 0.88976 0.68757 0.24024 0.0
C517 C 0.81455 0.67612 0.29718 0.0
C518 C 0.78414 0.66659 0.25168 0.0
C519 C 0.80197 0.66814 0.31438 0.0
C520 C 0.83339 0.69722 0.1803 0.0
C521 C 0.82356 0.68427 0.19727 0.0
C522 C 0.86016 0.68234 0.24322 0.0
C523 C 0.79886 0.65387 0.28308 0.0
C524 C 0.81083 0.66377 0.26476 0.0
C525 C 0.84527 0.69825 0.21191 0.0
C526 C 0.8335 0.68582 0.23011 0.0
H527 H 0.73702 0.59065 0.30608 0.0
H528 H 0.75849 0.60524 0.27588 0.0
H529 H 0.87009 0.66947 0.27021 0.0
H530 H 0.91287 0.75801 0.19016 0.0
H531 H 0.895 0.73664 0.2199 0.0
C532 C 0.36996 0.25526 0.55293 0.0
C533 C 0.35364 0.26658 0.56839 0.0
C534 C 0.35746 0.2648 0.53638 0.0
C535 C 0.31395 0.33548 0.51423 0.0
H536 H 0.2903 0.2618 0.47718 0.0
C537 C 0.25497 0.37461 0.44754 0.0
C538 C 0.26663 0.35792 0.43227 0.0
C539 C 0.26347 0.36206 0.46422 0.0
C540 C 0.2973 0.2829 0.48727 0.0
H541 H 0.31121 0.29668 0.57855 0.0
H542 H 0.29 0.31387 0.54965 0.0
H543 H 0.30991 0.24255 0.50603 0.0
H544 H 0.29634 0.31483 0.42259 0.0
H545 H 0.31235 0.29392 0.45157 0.0
H546 H 0.30282 0.37615 0.4955 0.0
C547 C 0.31233 0.29747 0.55039 0.0
C548 C 0.30835 0.27176 0.50382 0.0
C549 C 0.32439 0.28745 0.56692 0.0
C550 C 0.28672 0.32818 0.43407 0.0
C551 C 0.29571 0.316 0.45076 0.0
C552 C 0.30347 0.34676 0.49762 0.0
C553 C 0.3288 0.28634 0.53496 0.0
C554 C 0.31672 0.29794 0.51745 0.0
C555 C 0.28436 0.33287 0.46609 0.0
C556 C 0.29495 0.32063 0.48389 0.0
H557 H 0.39247 0.23908 0.55359 0.0
H558 H 0.37077 0.25606 0.52468 0.0
H559 H 0.32071 0.35633 0.52446 0.0
H560 H 0.23915 0.39736 0.44661 0.0
H561 H 0.2535 0.37525 0.47567 0.0
C562 C 0.70183 0.82206 0.81484 0.0
C563 C 0.71633 0.85916 0.81948 0.0
C564 C 0.68966 0.81313 0.79769 0.0
C565 C 0.69994 0.84874 0.75198 0.0
H566 H 0.61591 0.76956 0.74349 0.0
C567 C 0.67201 0.78135 0.68366 0.0
C568 C 0.63482 0.77064 0.6781 0.0
C569 C 0.68005 0.79376 0.70086 0.0
C570 C 0.63915 0.79205 0.74559 0.0
H571 H 0.72858 0.91615 0.80982 0.0
H572 H 0.70661 0.90068 0.77991 0.0
H573 H 0.63208 0.78921 0.77356 0.0
H574 H 0.57682 0.76494 0.68622 0.0
H575 H 0.59083 0.7873 0.7162 0.0
H576 H 0.70651 0.85217 0.72401 0.0
C577 C 0.70538 0.87833 0.78946 0.0
C578 C 0.64876 0.803 0.76287 0.0
C579 C 0.71782 0.88725 0.80663 0.0
C580 C 0.60579 0.77275 0.69013 0.0
C581 C 0.61384 0.78544 0.70734 0.0
C582 C 0.69019 0.83796 0.7347 0.0
C583 C 0.69137 0.8411 0.78474 0.0
C584 C 0.6796 0.83113 0.76631 0.0
C585 C 0.65111 0.79611 0.71292 0.0
C586 C 0.66 0.80911 0.73128 0.0
H587 H 0.70042 0.79968 0.8244 0.0
H588 H 0.67969 0.78408 0.79449 0.0
H589 H 0.72405 0.87026 0.75409 0.0
H590 H 0.69509 0.77987 0.67477 0.0
H591 H 0.70907 0.801 0.70475 0.0
C592 C 0.1969 0.33429 0.31696 0.0
C593 C 0.2244 0.36551 0.3206 0.0
C594 C 0.18469 0.32636 0.29971 0.0
C595 C 0.21548 0.3393 0.25409 0.0
H596 H 0.11026 0.31151 0.2428 0.0
C597 C 0.1666 0.30921 0.1826 0.0
C598 C 0.13681 0.27972 0.17972 0.0
C599 C 0.17576 0.32209 0.19964 0.0
C600 C 0.13978 0.31875 0.24574 0.0
H601 H 0.26031 0.41316 0.30903 0.0
H602 H 0.23931 0.3989 0.2788 0.0
H603 H 0.12906 0.32947 0.27288 0.0
H604 H 0.09297 0.24088 0.19245 0.0
H605 H 0.10963 0.2625 0.22224 0.0
H606 H 0.22654 0.32747 0.22723 0.0
C607 C 0.22724 0.38066 0.28935 0.0
C608 C 0.1505 0.3292 0.26297 0.0
C609 C 0.23912 0.38888 0.30665 0.0
C610 C 0.116 0.26375 0.19423 0.0
C611 C 0.12546 0.27634 0.21132 0.0
C612 C 0.20483 0.32844 0.23693 0.0
C613 C 0.20002 0.34922 0.28571 0.0
C614 C 0.18846 0.3395 0.26732 0.0
C615 C 0.15567 0.30551 0.21427 0.0
C616 C 0.16683 0.31793 0.23251 0.0
H617 H 0.18488 0.31579 0.32743 0.0
H618 H 0.1639 0.30178 0.29727 0.0
H619 H 0.24497 0.34658 0.25713 0.0
H620 H 0.18295 0.3224 0.17167 0.0
H621 H 0.19865 0.34514 0.20131 0.0
C622 C 0.62987 0.74896 0.55091 0.0
C623 C 0.64482 0.73493 0.56611 0.0
C624 C 0.64279 0.74117 0.5342 0.0
C625 C 0.65749 0.70191 0.50045 0.0
H626 H 0.76129 0.69307 0.49256 0.0
C627 C 0.7161 0.67963 0.43127 0.0
C628 C 0.73707 0.65044 0.42984 0.0
C629 C 0.70651 0.69214 0.44779 0.0
C630 C 0.73219 0.6953 0.49461 0.0
H631 H 0.68537 0.70186 0.57559 0.0
H632 H 0.70705 0.68736 0.54651 0.0
H633 H 0.74162 0.71169 0.52151 0.0
H634 H 0.76526 0.61229 0.44474 0.0
H635 H 0.7488 0.63452 0.47357 0.0
H636 H 0.6483 0.68596 0.47344 0.0
C637 C 0.68594 0.70513 0.54747 0.0
C638 C 0.72084 0.70582 0.51121 0.0
C639 C 0.6733 0.71326 0.56419 0.0
C640 C 0.74904 0.63476 0.44534 0.0
C641 C 0.73978 0.64759 0.46186 0.0
C642 C 0.66895 0.69182 0.48382 0.0
C643 C 0.67072 0.7188 0.53224 0.0
C644 C 0.68325 0.70899 0.51439 0.0
C645 C 0.71802 0.67607 0.46325 0.0
C646 C 0.70634 0.68815 0.48076 0.0
H647 H 0.60812 0.76601 0.5519 0.0
H648 H 0.6309 0.7528 0.52282 0.0
H649 H 0.6282 0.70332 0.50244 0.0
H650 H 0.70643 0.69242 0.41963 0.0
H651 H 0.69001 0.71439 0.44848 0.0
C652 C 0.38712 0.21854 0.69214 0.0
C653 C 0.35871 0.21717 0.67947 0.0
C654 C 0.37867 0.20577 0.70931 0.0
C655 C 0.3498 0.19966 0.74696 0.0
H656 H 0.27129 0.11503 0.75555 0.0
C657 C 0.28253 0.17101 0.8153 0.0
C658 C 0.27206 0.13378 0.82088 0.0
C659 C 0.2951 0.17914 0.79813 0.0
C660 C 0.29361 0.13843 0.75342 0.0
H661 H 0.29913 0.2011 0.67488 0.0
H662 H 0.28436 0.17975 0.70477 0.0
H663 H 0.29039 0.13168 0.72544 0.0
H664 H 0.26703 0.07581 0.8128 0.0
H665 H 0.2896 0.09 0.78284 0.0
H666 H 0.35352 0.206 0.77494 0.0
C667 C 0.3133 0.18992 0.70144 0.0
C668 C 0.30424 0.14831 0.73612 0.0
C669 C 0.32176 0.20245 0.68429 0.0
C670 C 0.27466 0.1048 0.80889 0.0
C671 C 0.28746 0.11295 0.79169 0.0
C672 C 0.33931 0.18967 0.76426 0.0
C673 C 0.34159 0.19151 0.71421 0.0
C674 C 0.33209 0.17938 0.73265 0.0
C675 C 0.29781 0.15026 0.78609 0.0
C676 C 0.31068 0.15927 0.76771 0.0
H677 H 0.41592 0.22946 0.68882 0.0
H678 H 0.40125 0.20694 0.71873 0.0
H679 H 0.37113 0.22393 0.74483 0.0
H680 H 0.28071 0.19406 0.82416 0.0
H681 H 0.3021 0.20818 0.79422 0.0
C682 C 0.83183 0.79214 0.06476 0.0
C683 C 0.8581 0.76775 0.06595 0.0
C684 C 0.81935 0.80244 0.04836 0.0
C685 C 0.80789 0.77316 0.00228 0.0
H686 H 0.80984 0.87849 0.99274 0.0
C687 C 0.78399 0.8273 0.9324 0.0
C688 C 0.76572 0.85836 0.93061 0.0
C689 C 0.7938 0.81557 0.94903 0.0
C690 C 0.80844 0.8489 0.99524 0.0
H691 H 0.89125 0.73451 0.05077 0.0
H692 H 0.86891 0.75216 0.02212 0.0
H693 H 0.82911 0.85895 0.02153 0.0
H694 H 0.74253 0.90084 0.94499 0.0
H695 H 0.75847 0.87966 0.974 0.0
H696 H 0.78653 0.76284 0.97619 0.0
C697 C 0.85818 0.76334 0.03393 0.0
C698 C 0.81968 0.83776 0.01173 0.0
C699 C 0.87108 0.7534 0.05034 0.0
C700 C 0.75685 0.87698 0.94588 0.0
C701 C 0.76625 0.86495 0.96253 0.0
C702 C 0.79617 0.78423 0.98585 0.0
C703 C 0.83244 0.78821 0.03279 0.0
C704 C 0.81974 0.79982 0.01539 0.0
C705 C 0.78517 0.83428 0.96434 0.0
C706 C 0.79651 0.82229 0.98205 0.0
H707 H 0.82121 0.80374 0.0765 0.0
H708 H 0.79926 0.82141 0.04786 0.0
H709 H 0.80725 0.74367 0.00483 0.0
H710 H 0.79148 0.8124 0.92093 0.0
H711 H 0.8089 0.79227 0.94982 0.0
C712 C 0.0764 0.13359 0.14767 0.0
C713 C 0.09102 0.14447 0.13101 0.0
C714 C 0.06202 0.096 0.15105 0.0
C715 C 0.06004 5e-05 0.1347 0.0
H716 H 0.95523 0.98284 0.14795 0.0
C717 C 0.96317 0.86891 0.11325 0.0
C718 C 0.93626 0.85032 0.12495 0.0
C719 C 0.98359 0.90367 0.11749 0.0
C720 C 0.98466 0.98705 0.14461 0.0
H721 H 0.10333 0.12555 0.105 0.0
H722 H 0.07944 0.0597 0.11099 0.0
H723 H 0.99169 0.04585 0.14997 0.0
H724 H 0.90885 0.85437 0.1501 0.0
H725 H 0.9449 0.91588 0.15755 0.0
H726 H 0.05298 0.9417 0.12885 0.0
C727 C 0.07913 0.07987 0.12149 0.0
C728 C 0.00554 0.02308 0.14579 0.0
C729 C 0.09282 0.11741 0.11805 0.0
C730 C 0.92933 0.86805 0.1408 0.0
C731 C 0.95001 0.90314 0.14508 0.0
C732 C 0.03933 0.96411 0.13365 0.0
C733 C 0.06264 0.06894 0.13785 0.0
C734 C 0.04302 0.03008 0.1402 0.0
C735 C 0.97789 0.9209 0.13358 0.0
C736 C 0.00103 0.9575 0.13788 0.0
H737 H 0.07411 0.15438 0.15768 0.0
H738 H 0.04939 0.08824 0.16373 0.0
H739 H 0.08902 0.00465 0.13055 0.0
H740 H 0.96892 0.8564 0.10081 0.0
H741 H 0.00399 0.91709 0.10808 0.0
C742 C 0.14029 0.48404 0.40597 0.0
C743 C 0.13961 0.44518 0.4066 0.0
C744 C 0.10731 0.49878 0.40749 0.0
C745 C 0.00678 0.47354 0.39995 0.0
H746 H 0.00114 0.56445 0.426 0.0
C747 C 0.86907 0.52962 0.40618 0.0
C748 C 0.87018 0.56822 0.40381 0.0
C749 C 0.90192 0.51498 0.40818 0.0
C750 C 0.00243 0.53925 0.41855 0.0
H751 H 0.1039 0.39135 0.40979 0.0
H752 H 0.04612 0.41722 0.41251 0.0
H753 H 0.05843 0.5373 0.42698 0.0
H754 H 0.90663 0.62193 0.40215 0.0
H755 H 0.96449 0.59614 0.40539 0.0
H756 H 0.95121 0.47566 0.39125 0.0
C757 C 0.07225 0.43619 0.41068 0.0
C758 C 0.03515 0.52365 0.41914 0.0
C759 C 0.10533 0.4214 0.40922 0.0
C760 C 0.90492 0.59207 0.40397 0.0
C761 C 0.93799 0.57731 0.40589 0.0
C762 C 0.97418 0.48913 0.39932 0.0
C763 C 0.07288 0.47501 0.40962 0.0
C764 C 0.03766 0.49068 0.4098 0.0
C765 C 0.9368 0.53851 0.40775 0.0
C766 C 0.97162 0.52216 0.4086 0.0
H767 H 0.16626 0.50317 0.40399 0.0
H768 H 0.10867 0.52875 0.40642 0.0
H769 H 0.00812 0.44856 0.39232 0.0
H770 H 0.84273 0.51048 0.40637 0.0
H771 H 0.89998 0.48509 0.40998 0.0
C772 C 0.41696 0.37845 0.61536 0.0
C773 C 0.41077 0.35268 0.62922 0.0
C774 C 0.43167 0.41572 0.6187 0.0
C775 C 0.49669 0.47286 0.64645 0.0
H776 H 0.45727 0.55383 0.62379 0.0
C777 C 0.57533 0.62781 0.64122 0.0
C778 C 0.57281 0.64354 0.62442 0.0
C779 C 0.5543 0.59272 0.64523 0.0
C780 C 0.46863 0.53154 0.63023 0.0
H781 H 0.41462 0.34498 0.65739 0.0
H782 H 0.4417 0.41079 0.66328 0.0
H783 H 0.41912 0.49187 0.62526 0.0
H784 H 0.54873 0.63387 0.59833 0.0
H785 H 0.51302 0.57301 0.60517 0.0
H786 H 0.54717 0.51221 0.65046 0.0
C787 C 0.43435 0.40209 0.64991 0.0
C788 C 0.44669 0.49624 0.63117 0.0
C789 C 0.41868 0.36475 0.64658 0.0
C790 C 0.55082 0.62276 0.61147 0.0
C791 C 0.53009 0.588 0.61544 0.0
C792 C 0.51887 0.50832 0.6454 0.0
C793 C 0.44127 0.42772 0.63593 0.0
C794 C 0.46102 0.46629 0.63869 0.0
C795 C 0.53057 0.57311 0.63248 0.0
C796 C 0.50553 0.53755 0.63662 0.0
H797 H 0.41138 0.36949 0.60186 0.0
H798 H 0.4372 0.43484 0.60769 0.0
H799 H 0.50837 0.45004 0.65222 0.0
H800 H 0.59195 0.64336 0.65146 0.0
H801 H 0.55538 0.5817 0.65844 0.0
C802 C 0.60346 0.92216 0.90983 0.0
C803 C 0.63744 0.94527 0.90576 0.0
C804 C 0.57078 0.93747 0.91183 0.0
C805 C 0.53565 0.02655 0.91917 0.0
H806 H 0.44724 0.9752 0.89541 0.0
C807 C 0.40314 0.09316 0.90584 0.0
C808 C 0.36854 0.06933 0.90729 0.0
C809 C 0.43652 0.07876 0.90745 0.0
C810 C 0.47151 0.98966 0.90234 0.0
H811 H 0.66398 0.00269 0.90108 0.0
H812 H 0.6071 0.02912 0.90441 0.0
H813 H 0.50403 0.94787 0.89535 0.0
H814 H 0.34173 0.01231 0.91265 0.0
H815 H 0.39949 0.98761 0.91572 0.0
H816 H 0.503 0.0686 0.92597 0.0
C817 C 0.60568 -0.00071 0.90622 0.0
C818 C 0.50405 0.97394 0.90232 0.0
C819 C 0.63825 0.98404 0.90418 0.0
C820 C 0.36793 0.03134 0.91115 0.0
C821 C 0.40106 0.01709 0.91285 0.0
C822 C 0.50299 0.04231 0.91921 0.0
C823 C 0.5715 0.97616 0.90985 0.0
C824 C 0.53651 0.99221 0.91069 0.0
C825 C 0.43572 0.04038 0.91061 0.0
C826 C 0.47057 0.024 0.91078 0.0
H827 H 0.60193 0.89221 0.91117 0.0
H828 H 0.54489 0.91898 0.91483 0.0
H829 H 0.56017 0.04114 0.92587 0.0
H830 H 0.40444 0.12255 0.90285 0.0
H831 H 0.46284 0.09739 0.90559 0.0
C832 C 0.89877 0.5914 0.09053 0.0
C833 C 0.92544 0.62428 0.09039 0.0
C834 C 0.90998 0.55652 0.08846 0.0
C835 C 0.98889 0.51143 0.07331 0.0
H836 H 0.95251 0.43568 0.10803 0.0
C837 C 0.06565 0.38845 0.08934 0.0
C838 C 0.04395 0.35359 0.0932 0.0
C839 C 0.04859 0.4199 0.08685 0.0
C840 C 0.96252 0.45624 0.09804 0.0
H841 H 0.9845 0.64651 0.08728 0.0
H842 H 0.00382 0.58611 0.08375 0.0
H843 H 0.92602 0.49308 0.1069 0.0
H844 H 0.98726 0.32413 0.09694 0.0
H845 H 0.95766 0.37876 0.09238 0.0
H846 H 0.02592 0.47491 0.06468 0.0
C847 C 0.97432 0.58706 0.08536 0.0
C848 C 0.94726 0.48911 0.09738 0.0
C849 C 0.96322 0.62171 0.08755 0.0
C850 C 0.00485 0.35065 0.09412 0.0
C851 C 0.98784 0.38201 0.09158 0.0
C852 C 0.0041 0.47852 0.07395 0.0
C853 C 0.94795 0.55404 0.08602 0.0
C854 C 0.96079 0.51735 0.08523 0.0
C855 C 0.00951 0.41708 0.08811 0.0
C856 C 0.99154 0.45084 0.08652 0.0
H857 H 0.86946 0.59253 0.0927 0.0
H858 H 0.88903 0.53148 0.08892 0.0
H859 H -0.00048 0.53251 0.06364 0.0
H860 H 0.09584 0.39165 0.0886 0.0
H861 H 0.06613 0.44663 0.08441 0.0
C862 C 0.38186 0.42385 0.38572 0.0
C863 C 0.35641 0.41436 0.37193 0.0
C864 C 0.41905 0.43842 0.38213 0.0
C865 C 0.47616 0.49796 0.352 0.0
H866 H 0.55711 0.46496 0.37768 0.0
C867 C 0.63131 0.57774 0.35527 0.0
C868 C 0.64639 0.57903 0.37236 0.0
C869 C 0.59611 0.55628 0.35188 0.0
C870 C 0.53483 0.47449 0.37037 0.0
H871 H 0.34935 0.41211 0.34361 0.0
H872 H 0.41501 0.4389 0.33724 0.0
H873 H 0.49559 0.42584 0.37727 0.0
H874 H 0.63555 0.56172 0.39947 0.0
H875 H 0.57443 0.5253 0.39367 0.0
H876 H 0.51514 0.54774 0.34597 0.0
C877 C 0.40608 0.43428 0.35079 0.0
C878 C 0.49977 0.45199 0.37006 0.0
C879 C 0.36883 0.41876 0.35441 0.0
C880 C 0.62482 0.5608 0.38613 0.0
C881 C 0.58996 0.53966 0.38278 0.0
C882 C 0.5114 0.52072 0.3524 0.0
C883 C 0.43133 0.44455 0.36467 0.0
C884 C 0.4698 0.46414 0.36144 0.0
C885 C 0.57581 0.53598 0.36556 0.0
C886 C 0.54057 0.5098 0.36223 0.0
H887 H 0.3727 0.42094 0.39932 0.0
H888 H 0.43787 0.44653 0.39306 0.0
H889 H 0.45333 0.50796 0.34535 0.0
H890 H 0.64756 0.59139 0.34442 0.0
H891 H 0.58563 0.5541 0.3385 0.0
C892 C 0.47848 0.13729 0.59318 0.0
C893 C 0.43959 0.13646 0.59271 0.0
C894 C 0.49337 0.10449 0.59129 0.0
C895 C 0.46871 0.00365 0.59802 0.0
H896 H 0.55984 -0.00033 0.57182 0.0
C897 C 0.52583 0.86682 0.59069 0.0
C898 C 0.56443 0.86807 0.59316 0.0
C899 C 0.51101 0.8996 0.58888 0.0
C900 C 0.53457 0.0005 0.57931 0.0
H901 H 0.38586 0.10068 0.58939 0.0
H902 H 0.41201 0.04316 0.58602 0.0
H903 H 0.53217 0.05669 0.57131 0.0
H904 H 0.61794 0.90473 0.59513 0.0
H905 H 0.59181 0.96251 0.59222 0.0
H906 H 0.47128 0.94787 0.60628 0.0
C907 C 0.43088 0.06928 0.58801 0.0
C908 C 0.51867 0.03305 0.57898 0.0
C909 C 0.41592 0.10221 0.58985 0.0
C910 C 0.5881 0.90292 0.59324 0.0
C911 C 0.57314 0.93594 0.59151 0.0
C912 C 0.48459 0.97121 0.59838 0.0
C913 C 0.46974 0.07006 0.58892 0.0
C914 C 0.48563 0.03498 0.58838 0.0
C915 C 0.53433 0.93457 0.58961 0.0
C916 C 0.51771 0.96924 0.58904 0.0
H917 H 0.49754 0.16324 0.59532 0.0
H918 H 0.52337 0.10597 0.59225 0.0
H919 H 0.44369 0.00451 0.6057 0.0
H920 H 0.50682 0.84041 0.59029 0.0
H921 H 0.48113 0.89754 0.58702 0.0
C922 C 0.87797 0.91535 0.88268 0.0
C923 C 0.8518 0.91068 0.86898 0.0
C924 C 0.91538 0.92928 0.87921 0.0
C925 C 0.97281 0.99495 0.85184 0.0
H926 H 0.05349 0.95279 0.8732 0.0
C927 C 0.12773 0.0727 0.85716 0.0
C928 C 0.14381 0.0691 0.87379 0.0
C929 C 0.09279 0.05156 0.853 0.0
C930 C 0.03129 0.96492 0.86712 0.0
H931 H 0.84346 0.91647 0.84095 0.0
H932 H 0.90951 0.94217 0.83485 0.0
H933 H 0.991 0.9157 0.87181 0.0
H934 H 0.13491 0.04255 0.89943 0.0
H935 H 0.0744 0.00668 0.89233 0.0
H936 H 0.01273 0.04512 0.84817 0.0
C937 C 0.90104 0.9342 0.84818 0.0
C938 C 0.99567 0.94359 0.86623 0.0
C939 C 0.86356 0.91932 0.85163 0.0
C940 C 0.12361 0.04556 0.8864 0.0
C941 C 0.08901 0.0247 0.88228 0.0
C942 C 0.00856 0.01652 0.85286 0.0
C943 C 0.9271 0.93965 0.86201 0.0
C944 C 0.96585 0.95888 0.85919 0.0
C945 C 0.07363 0.0266 0.86541 0.0
C946 C 0.03773 0.00218 0.86119 0.0
H947 H 0.86922 0.90926 0.89618 0.0
H948 H 0.93485 0.9337 0.89013 0.0
H949 H 0.95011 0.00738 0.84644 0.0
H950 H 0.14276 0.09055 0.84718 0.0
H951 H 0.08141 0.05375 0.83992 0.0
loop_
_geom_bond_atom_site_label_1
_geom_bond_atom_site_label_2
_geom_bond_distance
_geom_bond_site_symmetry_2
_ccdc_geom_bond_type
Co0 O2 2.143 . S
Co0 O8 2.074 . S
Co0 O11 2.093 . S
Co0 O24 2.097 . S
Co0 N41 2.151 . S
Co0 N49 2.214 . S
Co1 O2 2.160 . S
Co1 O7 2.058 . S
Co1 O17 2.057 . S
Co1 O32 2.037 . S
Co1 N36 2.145 . S
Co1 N57 2.257 . S
O2 Co0 2.143 . S
O2 Co1 2.160 . S
C3 O4 1.278 . S
C3 O11 1.224 . S
O4 C3 1.278 . S
C5 O6 1.245 . S
C5 O17 1.232 . S
O6 C5 1.245 . S
O7 Co1 2.058 . S
O7 C33 1.269 . S
O8 Co0 2.074 . S
O8 C33 1.257 . S
H9 C34 0.930 . S
H10 C40 0.930 . S
O11 Co0 2.093 . S
O11 C3 1.224 . S
H12 C44 0.929 . S
H13 C46 0.930 . S
H14 C47 0.930 . S
H15 C45 0.929 . S
H16 C48 0.928 . S
O17 Co1 2.057 . S
O17 C5 1.232 . S
H18 C37 0.929 . S
H19 C38 0.929 . S
H20 C50 0.931 . S
H21 C42 0.929 . S
H22 C51 0.930 . S
H23 C43 0.931 . S
O24 Co0 2.097 . S
O24 C52 1.214 . S
H25 C53 0.929 . S
H26 C54 0.929 . S
H27 C55 0.930 1_655 S
H28 C56 0.929 1_655 S
H29 C58 0.930 . S
H30 C35 0.930 . S
H31 C39 0.930 . S
O32 Co1 2.037 . S
O32 C52 1.234 . S
C33 O7 1.269 . S
C33 O8 1.257 . S
C34 H9 0.930 . S
C34 C37 1.388 . S
C34 C39 1.418 1_455 S
C35 H30 0.930 . S
C35 C38 1.404 1_655 S
C35 C39 1.353 . S
N36 Co1 2.145 . S
N36 C37 1.397 . S
N36 C38 1.334 . S
C37 H18 0.929 . S
C37 C34 1.388 . S
C37 N36 1.397 . S
C38 H19 0.929 . S
C38 C35 1.404 1_455 S
C38 N36 1.334 . S
C39 H31 0.930 . S
C39 C34 1.418 1_655 S
C39 C35 1.353 . S
C40 H10 0.930 . S
C40 N41 1.330 . S
C40 C42 1.446 . S
N41 Co0 2.151 . S
N41 C40 1.330 . S
N41 C45 1.418 . S
C42 H21 0.929 . S
C42 C40 1.446 . S
C42 C43 1.332 . S
C43 H23 0.931 . S
C43 C42 1.332 . S
C43 C44 1.267 . S
C44 H12 0.929 . S
C44 C43 1.267 . S
C44 C45 1.251 . S
C45 H15 0.929 . S
C45 N41 1.418 . S
C45 C44 1.251 . S
C46 H13 0.930 . S
C46 C48 1.406 . S
C46 C51 1.261 . S
C47 H14 0.930 . S
C47 N49 1.325 . S
C47 C50 1.357 . S
C48 H16 0.928 . S
C48 C46 1.406 . S
C48 N49 1.261 . S
N49 Co0 2.214 . S
N49 C47 1.325 . S
N49 C48 1.261 . S
C50 H20 0.931 . S
C50 C47 1.357 . S
C50 C51 1.312 . S
C51 H22 0.930 . S
C51 C46 1.261 . S
C51 C50 1.312 . S
C52 O24 1.214 . S
C52 O32 1.234 . S
C53 H25 0.929 . S
C53 C56 1.391 . S
C53 C58 1.391 . S
C54 H26 0.929 . S
C54 C55 1.390 . S
C54 N57 1.391 . S
C55 H27 0.930 1_455 S
C55 C54 1.390 . S
C55 C56 1.392 . S
C56 H28 0.929 1_455 S
C56 C53 1.391 . S
C56 C55 1.392 . S
N57 Co1 2.257 . S
N57 C54 1.391 . S
N57 C58 1.388 . S
C58 H29 0.930 . S
C58 C53 1.391 . S
C58 N57 1.388 . S
Co59 O61 2.143 . S
Co59 O67 2.074 . S
Co59 O70 2.093 . S
Co59 O83 2.097 . S
Co59 N100 2.151 . S
Co59 N108 2.214 . S
Co60 O61 2.160 . S
Co60 O66 2.058 . S
Co60 O76 2.057 . S
Co60 O91 2.037 . S
Co60 N95 2.145 . S
Co60 N116 2.257 . S
O61 Co59 2.143 . S
O61 Co60 2.160 . S
C62 O63 1.278 . S
C62 O70 1.224 . S
O63 C62 1.278 . S
C64 O65 1.245 . S
C64 O76 1.232 . S
O65 C64 1.245 . S
O66 Co60 2.058 . S
O66 C92 1.269 . S
O67 Co59 2.074 . S
O67 C92 1.257 . S
H68 C93 0.930 . S
H69 C99 0.930 . S
O70 Co59 2.093 . S
O70 C62 1.224 . S
H71 C103 0.929 . S
H72 C105 0.930 . S
H73 C106 0.930 . S
H74 C104 0.929 . S
H75 C107 0.928 . S
O76 Co60 2.057 . S
O76 C64 1.232 . S
H77 C96 0.929 . S
H78 C97 0.929 . S
H79 C109 0.931 . S
H80 C101 0.929 . S
H81 C110 0.930 . S
H82 C102 0.931 . S
O83 Co59 2.097 . S
O83 C111 1.214 . S
H84 C112 0.929 . S
H85 C113 0.929 . S
H86 C114 0.930 . S
H87 C115 0.929 . S
H88 C117 0.930 . S
H89 C94 0.930 . S
H90 C98 0.930 . S
O91 Co60 2.037 . S
O91 C111 1.234 . S
C92 O66 1.269 . S
C92 O67 1.257 . S
C93 H68 0.930 . S
C93 C96 1.388 . S
C93 C98 1.418 . S
C94 H89 0.930 . S
C94 C97 1.404 . S
C94 C98 1.353 . S
N95 Co60 2.145 . S
N95 C96 1.397 . S
N95 C97 1.334 . S
C96 H77 0.929 . S
C96 C93 1.388 . S
C96 N95 1.397 . S
C97 H78 0.929 . S
C97 C94 1.404 . S
C97 N95 1.334 . S
C98 H90 0.930 . S
C98 C93 1.418 . S
C98 C94 1.353 . S
C99 H69 0.930 . S
C99 N100 1.330 . S
C99 C101 1.446 . S
N100 Co59 2.151 . S
N100 C99 1.330 . S
N100 C104 1.418 . S
C101 H80 0.929 . S
C101 C99 1.446 . S
C101 C102 1.332 . S
C102 H82 0.931 . S
C102 C101 1.332 . S
C102 C103 1.267 . S
C103 H71 0.929 . S
C103 C102 1.267 . S
C103 C104 1.251 . S
C104 H74 0.929 . S
C104 N100 1.418 . S
C104 C103 1.251 . S
C105 H72 0.930 . S
C105 C107 1.406 . S
C105 C110 1.261 . S
C106 H73 0.930 . S
C106 N108 1.325 . S
C106 C109 1.357 . S
C107 H75 0.928 . S
C107 C105 1.406 . S
C107 N108 1.261 . S
N108 Co59 2.214 . S
N108 C106 1.325 . S
N108 C107 1.261 . S
C109 H79 0.931 . S
C109 C106 1.357 . S
C109 C110 1.312 . S
C110 H81 0.930 . S
C110 C105 1.261 . S
C110 C109 1.312 . S
C111 O83 1.214 . S
C111 O91 1.234 . S
C112 H84 0.929 . S
C112 C115 1.391 . S
C112 C117 1.391 . S
C113 H85 0.929 . S
C113 C114 1.390 . S
C113 N116 1.391 . S
C114 H86 0.930 . S
C114 C113 1.390 . S
C114 C115 1.392 . S
C115 H87 0.929 . S
C115 C112 1.391 . S
C115 C114 1.392 . S
N116 Co60 2.257 . S
N116 C113 1.391 . S
N116 C117 1.388 . S
C117 H88 0.930 . S
C117 C112 1.391 . S
C117 N116 1.388 . S
Co118 O120 2.143 . S
Co118 O126 2.074 . S
Co118 O129 2.093 . S
Co118 O142 2.097 . S
Co118 N159 2.151 . S
Co118 N167 2.214 . S
Co119 O120 2.160 . S
Co119 O125 2.058 . S
Co119 O135 2.057 . S
Co119 O150 2.037 . S
Co119 N154 2.145 . S
Co119 N175 2.257 . S
O120 Co118 2.143 . S
O120 Co119 2.160 . S
C121 O122 1.278 . S
C121 O129 1.224 . S
O122 C121 1.278 . S
C123 O124 1.245 . S
C123 O135 1.232 . S
O124 C123 1.245 . S
O125 Co119 2.058 . S
O125 C151 1.269 . S
O126 Co118 2.074 . S
O126 C151 1.257 . S
H127 C152 0.930 . S
H128 C158 0.930 . S
O129 Co118 2.093 . S
O129 C121 1.224 . S
H130 C162 0.929 . S
H131 C164 0.930 . S
H132 C165 0.930 . S
H133 C163 0.929 . S
H134 C166 0.928 . S
O135 Co119 2.057 . S
O135 C123 1.232 . S
H136 C155 0.929 . S
H137 C156 0.929 . S
H138 C168 0.931 . S
H139 C160 0.929 . S
H140 C169 0.930 . S
H141 C161 0.931 . S
O142 Co118 2.097 . S
O142 C170 1.214 . S
H143 C171 0.929 . S
H144 C172 0.929 . S
H145 C173 0.930 . S
H146 C174 0.929 . S
H147 C176 0.930 . S
H148 C153 0.930 . S
H149 C157 0.930 . S
O150 Co119 2.037 . S
O150 C170 1.234 . S
C151 O125 1.269 . S
C151 O126 1.257 . S
C152 H127 0.930 . S
C152 C155 1.388 . S
C152 C157 1.418 . S
C153 H148 0.930 . S
C153 C156 1.404 . S
C153 C157 1.353 . S
N154 Co119 2.145 . S
N154 C155 1.397 . S
N154 C156 1.334 . S
C155 H136 0.929 . S
C155 C152 1.388 . S
C155 N154 1.397 . S
C156 H137 0.929 . S
C156 C153 1.404 . S
C156 N154 1.334 . S
C157 H149 0.930 . S
C157 C152 1.418 . S
C157 C153 1.353 . S
C158 H128 0.930 . S
C158 N159 1.330 . S
C158 C160 1.446 . S
N159 Co118 2.151 . S
N159 C158 1.330 . S
N159 C163 1.418 . S
C160 H139 0.929 . S
C160 C158 1.446 . S
C160 C161 1.332 . S
C161 H141 0.931 . S
C161 C160 1.332 . S
C161 C162 1.267 . S
C162 H130 0.929 . S
C162 C161 1.267 . S
C162 C163 1.251 . S
C163 H133 0.929 . S
C163 N159 1.418 . S
C163 C162 1.251 . S
C164 H131 0.930 . S
C164 C166 1.406 . S
C164 C169 1.261 . S
C165 H132 0.930 . S
C165 N167 1.325 . S
C165 C168 1.357 . S
C166 H134 0.928 . S
C166 C164 1.406 . S
C166 N167 1.261 . S
N167 Co118 2.214 . S
N167 C165 1.325 . S
N167 C166 1.261 . S
C168 H138 0.931 . S
C168 C165 1.357 . S
C168 C169 1.312 . S
C169 H140 0.930 . S
C169 C164 1.261 . S
C169 C168 1.312 . S
C170 O142 1.214 . S
C170 O150 1.234 . S
C171 H143 0.929 . S
C171 C174 1.391 . S
C171 C176 1.391 . S
C172 H144 0.929 . S
C172 C173 1.390 . S
C172 N175 1.391 . S
C173 H145 0.930 . S
C173 C172 1.390 . S
C173 C174 1.392 . S
C174 H146 0.929 . S
C174 C171 1.391 . S
C174 C173 1.392 . S
N175 Co119 2.257 . S
N175 C172 1.391 . S
N175 C176 1.388 . S
C176 H147 0.930 . S
C176 C171 1.391 . S
C176 N175 1.388 . S
Co177 O179 2.143 . S
Co177 O185 2.074 . S
Co177 O188 2.093 . S
Co177 O201 2.097 . S
Co177 N218 2.151 . S
Co177 N226 2.214 . S
Co178 O179 2.160 . S
Co178 O184 2.058 . S
Co178 O194 2.057 . S
Co178 O209 2.037 . S
Co178 N213 2.145 . S
Co178 N234 2.257 . S
O179 Co177 2.143 . S
O179 Co178 2.160 . S
C180 O181 1.278 . S
C180 O188 1.224 . S
O181 C180 1.278 . S
C182 O183 1.245 . S
C182 O194 1.232 . S
O183 C182 1.245 . S
O184 Co178 2.058 . S
O184 C210 1.269 . S
O185 Co177 2.074 . S
O185 C210 1.257 . S
H186 C211 0.930 . S
H187 C217 0.930 . S
O188 Co177 2.093 . S
O188 C180 1.224 . S
H189 C221 0.929 . S
H190 C223 0.930 . S
H191 C224 0.930 . S
H192 C222 0.929 . S
H193 C225 0.928 . S
O194 Co178 2.057 . S
O194 C182 1.232 . S
H195 C214 0.929 . S
H196 C215 0.929 . S
H197 C227 0.931 . S
H198 C219 0.929 . S
H199 C228 0.930 . S
H200 C220 0.931 . S
O201 Co177 2.097 . S
O201 C229 1.214 . S
H202 C230 0.929 . S
H203 C231 0.929 . S
H204 C232 0.930 1_545 S
H205 C233 0.929 1_545 S
H206 C235 0.930 . S
H207 C212 0.930 . S
H208 C216 0.930 . S
O209 Co178 2.037 . S
O209 C229 1.234 . S
C210 O184 1.269 . S
C210 O185 1.257 . S
C211 H186 0.930 . S
C211 C214 1.388 . S
C211 C216 1.418 1_565 S
C212 H207 0.930 . S
C212 C215 1.404 1_545 S
C212 C216 1.353 . S
N213 Co178 2.145 . S
N213 C214 1.397 . S
N213 C215 1.334 . S
C214 H195 0.929 . S
C214 C211 1.388 . S
C214 N213 1.397 . S
C215 H196 0.929 . S
C215 C212 1.404 1_565 S
C215 N213 1.334 . S
C216 H208 0.930 . S
C216 C211 1.418 1_545 S
C216 C212 1.353 . S
C217 H187 0.930 . S
C217 N218 1.330 . S
C217 C219 1.446 . S
N218 Co177 2.151 . S
N218 C217 1.330 . S
N218 C222 1.418 . S
C219 H198 0.929 . S
C219 C217 1.446 . S
C219 C220 1.332 . S
C220 H200 0.931 . S
C220 C219 1.332 . S
C220 C221 1.267 . S
C221 H189 0.929 . S
C221 C220 1.267 . S
C221 C222 1.251 . S
C222 H192 0.929 . S
C222 N218 1.418 . S
C222 C221 1.251 . S
C223 H190 0.930 . S
C223 C225 1.406 . S
C223 C228 1.261 . S
C224 H191 0.930 . S
C224 N226 1.325 . S
C224 C227 1.357 . S
C225 H193 0.928 . S
C225 C223 1.406 . S
C225 N226 1.261 . S
N226 Co177 2.214 . S
N226 C224 1.325 . S
N226 C225 1.261 . S
C227 H197 0.931 . S
C227 C224 1.357 . S
C227 C228 1.312 . S
C228 H199 0.930 . S
C228 C223 1.261 . S
C228 C227 1.312 . S
C229 O201 1.214 . S
C229 O209 1.234 . S
C230 H202 0.929 . S
C230 C233 1.391 . S
C230 C235 1.391 . S
C231 H203 0.929 . S
C231 C232 1.390 . S
C231 N234 1.391 . S
C232 H204 0.930 1_565 S
C232 C231 1.390 . S
C232 C233 1.392 . S
C233 H205 0.929 1_565 S
C233 C230 1.391 . S
C233 C232 1.392 . S
N234 Co178 2.257 . S
N234 C231 1.391 . S
N234 C235 1.388 . S
C235 H206 0.930 . S
C235 C230 1.391 . S
C235 N234 1.388 . S
Co236 O238 2.143 . S
Co236 O244 2.074 . S
Co236 O247 2.093 . S
Co236 O260 2.097 . S
Co236 N277 2.151 . S
Co236 N285 2.214 . S
Co237 O238 2.160 . S
Co237 O243 2.058 . S
Co237 O253 2.057 . S
Co237 O268 2.037 . S
Co237 N272 2.145 . S
Co237 N293 2.257 . S
O238 Co236 2.143 . S
O238 Co237 2.160 . S
C239 O240 1.278 . S
C239 O247 1.224 . S
O240 C239 1.278 . S
C241 O242 1.245 . S
C241 O253 1.232 . S
O242 C241 1.245 . S
O243 Co237 2.058 . S
O243 C269 1.269 . S
O244 Co236 2.074 . S
O244 C269 1.257 . S
H245 C270 0.930 . S
H246 C276 0.930 . S
O247 Co236 2.093 . S
O247 C239 1.224 . S
H248 C280 0.929 . S
H249 C282 0.930 . S
H250 C283 0.930 . S
H251 C281 0.929 . S
H252 C284 0.928 . S
O253 Co237 2.057 . S
O253 C241 1.232 . S
H254 C273 0.929 . S
H255 C274 0.929 . S
H256 C286 0.931 . S
H257 C278 0.929 . S
H258 C287 0.930 . S
H259 C279 0.931 . S
O260 Co236 2.097 . S
O260 C288 1.214 . S
H261 C289 0.929 . S
H262 C290 0.929 . S
H263 C291 0.930 . S
H264 C292 0.929 . S
H265 C294 0.930 . S
H266 C271 0.930 . S
H267 C275 0.930 . S
O268 Co237 2.037 . S
O268 C288 1.234 . S
C269 O243 1.269 . S
C269 O244 1.257 . S
C270 H245 0.930 . S
C270 C273 1.388 . S
C270 C275 1.418 . S
C271 H266 0.930 . S
C271 C274 1.404 . S
C271 C275 1.353 . S
N272 Co237 2.145 . S
N272 C273 1.397 . S
N272 C274 1.334 . S
C273 H254 0.929 . S
C273 C270 1.388 . S
C273 N272 1.397 . S
C274 H255 0.929 . S
C274 C271 1.404 . S
C274 N272 1.334 . S
C275 H267 0.930 . S
C275 C270 1.418 . S
C275 C271 1.353 . S
C276 H246 0.930 . S
C276 N277 1.330 . S
C276 C278 1.446 . S
N277 Co236 2.151 . S
N277 C276 1.330 . S
N277 C281 1.418 . S
C278 H257 0.929 . S
C278 C276 1.446 . S
C278 C279 1.332 . S
C279 H259 0.931 . S
C279 C278 1.332 . S
C279 C280 1.267 . S
C280 H248 0.929 . S
C280 C279 1.267 . S
C280 C281 1.251 . S
C281 H251 0.929 . S
C281 N277 1.418 . S
C281 C280 1.251 . S
C282 H249 0.930 . S
C282 C284 1.406 . S
C282 C287 1.261 . S
C283 H250 0.930 . S
C283 N285 1.325 . S
C283 C286 1.357 . S
C284 H252 0.928 . S
C284 C282 1.406 . S
C284 N285 1.261 . S
N285 Co236 2.214 . S
N285 C283 1.325 . S
N285 C284 1.261 . S
C286 H256 0.931 . S
C286 C283 1.357 . S
C286 C287 1.312 . S
C287 H258 0.930 . S
C287 C282 1.261 . S
C287 C286 1.312 . S
C288 O260 1.214 . S
C288 O268 1.234 . S
C289 H261 0.929 . S
C289 C292 1.391 . S
C289 C294 1.391 . S
C290 H262 0.929 . S
C290 C291 1.390 . S
C290 N293 1.391 . S
C291 H263 0.930 . S
C291 C290 1.390 . S
C291 C292 1.392 . S
C292 H264 0.929 . S
C292 C289 1.391 . S
C292 C291 1.392 . S
N293 Co237 2.257 . S
N293 C290 1.391 . S
N293 C294 1.388 . S
C294 H265 0.930 . S
C294 C289 1.391 . S
C294 N293 1.388 . S
Co295 O297 2.143 . S
Co295 O303 2.074 . S
Co295 O306 2.093 . S
Co295 O319 2.097 . S
Co295 N336 2.151 . S
Co295 N344 2.214 . S
Co296 O297 2.160 . S
Co296 O302 2.058 . S
Co296 O312 2.057 . S
Co296 O327 2.037 . S
Co296 N331 2.145 . S
Co296 N352 2.257 . S
O297 Co295 2.143 . S
O297 Co296 2.160 . S
C298 O299 1.278 . S
C298 O306 1.224 . S
O299 C298 1.278 . S
C300 O301 1.245 . S
C300 O312 1.232 . S
O301 C300 1.245 . S
O302 Co296 2.058 . S
O302 C328 1.269 . S
O303 Co295 2.074 . S
O303 C328 1.257 . S
H304 C329 0.930 . S
H305 C335 0.930 . S
O306 Co295 2.093 . S
O306 C298 1.224 . S
H307 C339 0.929 . S
H308 C341 0.930 . S
H309 C342 0.930 . S
H310 C340 0.929 . S
H311 C343 0.928 . S
O312 Co296 2.057 . S
O312 C300 1.232 . S
H313 C332 0.929 . S
H314 C333 0.929 . S
H315 C345 0.931 . S
H316 C337 0.929 . S
H317 C346 0.930 . S
H318 C338 0.931 . S
O319 Co295 2.097 . S
O319 C347 1.214 . S
H320 C348 0.929 . S
H321 C349 0.929 . S
H322 C350 0.930 1_565 S
H323 C351 0.929 1_565 S
H324 C353 0.930 . S
H325 C330 0.930 . S
H326 C334 0.930 . S
O327 Co296 2.037 . S
O327 C347 1.234 . S
C328 O302 1.269 . S
C328 O303 1.257 . S
C329 H304 0.930 . S
C329 C332 1.388 . S
C329 C334 1.418 1_545 S
C330 H325 0.930 . S
C330 C333 1.404 1_565 S
C330 C334 1.353 . S
N331 Co296 2.145 . S
N331 C332 1.397 . S
N331 C333 1.334 . S
C332 H313 0.929 . S
C332 C329 1.388 . S
C332 N331 1.397 . S
C333 H314 0.929 . S
C333 C330 1.404 1_545 S
C333 N331 1.334 . S
C334 H326 0.930 . S
C334 C329 1.418 1_565 S
C334 C330 1.353 . S
C335 H305 0.930 . S
C335 N336 1.330 . S
C335 C337 1.446 . S
N336 Co295 2.151 . S
N336 C335 1.330 . S
N336 C340 1.418 . S
C337 H316 0.929 . S
C337 C335 1.446 . S
C337 C338 1.332 . S
C338 H318 0.931 . S
C338 C337 1.332 . S
C338 C339 1.267 . S
C339 H307 0.929 . S
C339 C338 1.267 . S
C339 C340 1.251 . S
C340 H310 0.929 . S
C340 N336 1.418 . S
C340 C339 1.251 . S
C341 H308 0.930 . S
C341 C343 1.406 . S
C341 C346 1.261 . S
C342 H309 0.930 . S
C342 N344 1.325 . S
C342 C345 1.357 . S
C343 H311 0.928 . S
C343 C341 1.406 . S
C343 N344 1.261 . S
N344 Co295 2.214 . S
N344 C342 1.325 . S
N344 C343 1.261 . S
C345 H315 0.931 . S
C345 C342 1.357 . S
C345 C346 1.312 . S
C346 H317 0.930 . S
C346 C341 1.261 . S
C346 C345 1.312 . S
C347 O319 1.214 . S
C347 O327 1.234 . S
C348 H320 0.929 . S
C348 C351 1.391 . S
C348 C353 1.391 . S
C349 H321 0.929 . S
C349 C350 1.390 . S
C349 N352 1.391 . S
C350 H322 0.930 1_545 S
C350 C349 1.390 . S
C350 C351 1.392 . S
C351 H323 0.929 1_545 S
C351 C348 1.391 . S
C351 C350 1.392 . S
N352 Co296 2.257 . S
N352 C349 1.391 . S
N352 C353 1.388 . S
C353 H324 0.930 . S
C353 C348 1.391 . S
C353 N352 1.388 . S
Co354 O356 2.143 . S
Co354 O362 2.074 . S
Co354 O365 2.093 . S
Co354 O378 2.097 . S
Co354 N395 2.151 . S
Co354 N403 2.214 . S
Co355 O356 2.160 . S
Co355 O361 2.058 . S
Co355 O371 2.057 . S
Co355 O386 2.037 . S
Co355 N390 2.145 . S
Co355 N411 2.257 . S
O356 Co354 2.143 . S
O356 Co355 2.160 . S
C357 O358 1.278 . S
C357 O365 1.224 . S
O358 C357 1.278 . S
C359 O360 1.245 . S
C359 O371 1.232 . S
O360 C359 1.245 . S
O361 Co355 2.058 . S
O361 C387 1.269 . S
O362 Co354 2.074 . S
O362 C387 1.257 . S
H363 C388 0.930 . S
H364 C394 0.930 . S
O365 Co354 2.093 . S
O365 C357 1.224 . S
H366 C398 0.929 . S
H367 C400 0.930 . S
H368 C401 0.930 . S
H369 C399 0.929 . S
H370 C402 0.928 . S
O371 Co355 2.057 . S
O371 C359 1.232 . S
H372 C391 0.929 . S
H373 C392 0.929 . S
H374 C404 0.931 . S
H375 C396 0.929 . S
H376 C405 0.930 . S
H377 C397 0.931 . S
O378 Co354 2.097 . S
O378 C406 1.214 . S
H379 C407 0.929 . S
H380 C408 0.929 . S
H381 C409 0.930 1_455 S
H382 C410 0.929 1_455 S
H383 C412 0.930 . S
H384 C389 0.930 . S
H385 C393 0.930 . S
O386 Co355 2.037 . S
O386 C406 1.234 . S
C387 O361 1.269 . S
C387 O362 1.257 . S
C388 H363 0.930 . S
C388 C391 1.388 . S
C388 C393 1.418 1_655 S
C389 H384 0.930 . S
C389 C392 1.404 1_455 S
C389 C393 1.353 . S
N390 Co355 2.145 . S
N390 C391 1.397 . S
N390 C392 1.334 . S
C391 H372 0.929 . S
C391 C388 1.388 . S
C391 N390 1.397 . S
C392 H373 0.929 . S
C392 C389 1.404 1_655 S
C392 N390 1.334 . S
C393 H385 0.930 . S
C393 C388 1.418 1_455 S
C393 C389 1.353 . S
C394 H364 0.930 . S
C394 N395 1.330 . S
C394 C396 1.446 . S
N395 Co354 2.151 . S
N395 C394 1.330 . S
N395 C399 1.418 . S
C396 H375 0.929 . S
C396 C394 1.446 . S
C396 C397 1.332 . S
C397 H377 0.931 . S
C397 C396 1.332 . S
C397 C398 1.267 . S
C398 H366 0.929 . S
C398 C397 1.267 . S
C398 C399 1.251 . S
C399 H369 0.929 . S
C399 N395 1.418 . S
C399 C398 1.251 . S
C400 H367 0.930 . S
C400 C402 1.406 . S
C400 C405 1.261 . S
C401 H368 0.930 . S
C401 N403 1.325 . S
C401 C404 1.357 . S
C402 H370 0.928 . S
C402 C400 1.406 . S
C402 N403 1.261 . S
N403 Co354 2.214 . S
N403 C401 1.325 . S
N403 C402 1.261 . S
C404 H374 0.931 . S
C404 C401 1.357 . S
C404 C405 1.312 . S
C405 H376 0.930 . S
C405 C400 1.261 . S
C405 C404 1.312 . S
C406 O378 1.214 . S
C406 O386 1.234 . S
C407 H379 0.929 . S
C407 C410 1.391 . S
C407 C412 1.391 . S
C408 H380 0.929 . S
C408 C409 1.390 . S
C408 N411 1.391 . S
C409 H381 0.930 1_655 S
C409 C408 1.390 . S
C409 C410 1.392 . S
C410 H382 0.929 1_655 S
C410 C407 1.391 . S
C410 C409 1.392 . S
N411 Co355 2.257 . S
N411 C408 1.391 . S
N411 C412 1.388 . S
C412 H383 0.930 . S
C412 C407 1.391 . S
C412 N411 1.388 . S
Co413 O415 2.143 . S
Co413 O421 2.074 . S
Co413 O424 2.093 . S
Co413 O437 2.097 . S
Co413 N454 2.151 . S
Co413 N462 2.214 . S
Co414 O415 2.160 . S
Co414 O420 2.058 . S
Co414 O430 2.057 . S
Co414 O445 2.037 . S
Co414 N449 2.145 . S
Co414 N470 2.257 . S
O415 Co413 2.143 . S
O415 Co414 2.160 . S
C416 O417 1.278 . S
C416 O424 1.224 . S
O417 C416 1.278 . S
C418 O419 1.245 . S
C418 O430 1.232 . S
O419 C418 1.245 . S
O420 Co414 2.058 . S
O420 C446 1.269 . S
O421 Co413 2.074 . S
O421 C446 1.257 . S
H422 C447 0.930 . S
H423 C453 0.930 . S
O424 Co413 2.093 . S
O424 C416 1.224 . S
H425 C457 0.929 . S
H426 C459 0.930 . S
H427 C460 0.930 . S
H428 C458 0.929 . S
H429 C461 0.928 . S
O430 Co414 2.057 . S
O430 C418 1.232 . S
H431 C450 0.929 . S
H432 C451 0.929 . S
H433 C463 0.931 . S
H434 C455 0.929 . S
H435 C464 0.930 . S
H436 C456 0.931 . S
O437 Co413 2.097 . S
O437 C465 1.214 . S
H438 C466 0.929 . S
H439 C467 0.929 . S
H440 C468 0.930 . S
H441 C469 0.929 . S
H442 C471 0.930 . S
H443 C448 0.930 . S
H444 C452 0.930 . S
O445 Co414 2.037 . S
O445 C465 1.234 . S
C446 O420 1.269 . S
C446 O421 1.257 . S
C447 H422 0.930 . S
C447 C450 1.388 . S
C447 C452 1.418 . S
C448 H443 0.930 . S
C448 C451 1.404 . S
C448 C452 1.353 . S
N449 Co414 2.145 . S
N449 C450 1.397 . S
N449 C451 1.334 . S
C450 H431 0.929 . S
C450 C447 1.388 . S
C450 N449 1.397 . S
C451 H432 0.929 . S
C451 C448 1.404 . S
C451 N449 1.334 . S
C452 H444 0.930 . S
C452 C447 1.418 . S
C452 C448 1.353 . S
C453 H423 0.930 . S
C453 N454 1.330 . S
C453 C455 1.446 . S
N454 Co413 2.151 . S
N454 C453 1.330 . S
N454 C458 1.418 . S
C455 H434 0.929 . S
C455 C453 1.446 . S
C455 C456 1.332 . S
C456 H436 0.931 . S
C456 C455 1.332 . S
C456 C457 1.267 . S
C457 H425 0.929 . S
C457 C456 1.267 . S
C457 C458 1.251 . S
C458 H428 0.929 . S
C458 N454 1.418 . S
C458 C457 1.251 . S
C459 H426 0.930 . S
C459 C461 1.406 . S
C459 C464 1.261 . S
C460 H427 0.930 . S
C460 N462 1.325 . S
C460 C463 1.357 . S
C461 H429 0.928 . S
C461 C459 1.406 . S
C461 N462 1.261 . S
N462 Co413 2.214 . S
N462 C460 1.325 . S
N462 C461 1.261 . S
C463 H433 0.931 . S
C463 C460 1.357 . S
C463 C464 1.312 . S
C464 H435 0.930 . S
C464 C459 1.261 . S
C464 C463 1.312 . S
C465 O437 1.214 . S
C465 O445 1.234 . S
C466 H438 0.929 . S
C466 C469 1.391 . S
C466 C471 1.391 . S
C467 H439 0.929 . S
C467 C468 1.390 . S
C467 N470 1.391 . S
C468 H440 0.930 . S
C468 C467 1.390 . S
C468 C469 1.392 . S
C469 H441 0.929 . S
C469 C466 1.391 . S
C469 C468 1.392 . S
N470 Co414 2.257 . S
N470 C467 1.391 . S
N470 C471 1.388 . S
C471 H442 0.930 . S
C471 C466 1.391 . S
C471 N470 1.388 . S
C472 C473 1.349 . S
C472 C474 1.327 . S
C472 H497 0.950 . S
C473 C472 1.349 . S
C473 C489 1.349 . S
C474 C472 1.327 . S
C474 C493 1.429 . S
C474 H498 0.950 . S
C475 C492 1.574 1_554 S
C475 C494 1.368 . S
C475 H499 0.949 . S
H476 C480 0.949 . S
C477 C478 1.349 . S
C477 C479 1.327 . S
C477 H500 0.950 . S
C478 C477 1.349 . S
C478 C490 1.349 . S
C479 C477 1.327 . S
C479 C495 1.429 . S
C479 H501 0.950 . S
C480 H476 0.949 . S
C480 C488 1.574 1_556 S
C480 C496 1.368 . S
H481 C489 0.950 . S
H482 C487 0.950 . S
H483 C488 0.949 . S
H484 C490 0.950 . S
H485 C491 0.950 . S
H486 C492 0.949 . S
C487 H482 0.950 . S
C487 C489 1.327 . S
C487 C493 1.429 . S
C488 C480 1.574 1_554 S
C488 H483 0.949 . S
C488 C494 1.368 . S
C489 C473 1.349 . S
C489 H481 0.950 . S
C489 C487 1.327 . S
C490 C478 1.349 . S
C490 H484 0.950 . S
C490 C491 1.327 . S
C491 H485 0.950 . S
C491 C490 1.327 . S
C491 C495 1.429 . S
C492 C475 1.574 1_556 S
C492 H486 0.949 . S
C492 C496 1.368 . S
C493 C474 1.429 . S
C493 C487 1.429 . S
C493 C494 1.523 . S
C494 C475 1.368 . S
C494 C488 1.368 . S
C494 C493 1.523 . S
C495 C479 1.429 . S
C495 C491 1.429 . S
C495 C496 1.523 . S
C496 C480 1.368 . S
C496 C492 1.368 . S
C496 C495 1.523 . S
H497 C472 0.950 . S
H498 C474 0.950 . S
H499 C475 0.949 . S
H500 C477 0.950 . S
H501 C479 0.950 . S
C502 C503 1.349 . S
C502 C504 1.327 . S
C502 H527 0.950 . S
C503 C502 1.349 . S
C503 C519 1.349 . S
C504 C502 1.327 . S
C504 C523 1.429 . S
C504 H528 0.950 . S
C505 C522 1.574 . S
C505 C524 1.368 . S
C505 H529 0.949 . S
H506 C510 0.949 . S
C507 C508 1.349 . S
C507 C509 1.327 . S
C507 H530 0.950 . S
C508 C507 1.349 . S
C508 C520 1.349 . S
C509 C507 1.327 . S
C509 C525 1.429 . S
C509 H531 0.950 . S
C510 H506 0.949 . S
C510 C518 1.574 . S
C510 C526 1.368 . S
H511 C519 0.950 . S
H512 C517 0.950 . S
H513 C518 0.949 . S
H514 C520 0.950 . S
H515 C521 0.950 . S
H516 C522 0.949 . S
C517 H512 0.950 . S
C517 C519 1.327 . S
C517 C523 1.429 . S
C518 C510 1.574 . S
C518 H513 0.949 . S
C518 C524 1.368 . S
C519 C503 1.349 . S
C519 H511 0.950 . S
C519 C517 1.327 . S
C520 C508 1.349 . S
C520 H514 0.950 . S
C520 C521 1.327 . S
C521 H515 0.950 . S
C521 C520 1.327 . S
C521 C525 1.429 . S
C522 C505 1.574 . S
C522 H516 0.949 . S
C522 C526 1.368 . S
C523 C504 1.429 . S
C523 C517 1.429 . S
C523 C524 1.523 . S
C524 C505 1.368 . S
C524 C518 1.368 . S
C524 C523 1.523 . S
C525 C509 1.429 . S
C525 C521 1.429 . S
C525 C526 1.523 . S
C526 C510 1.368 . S
C526 C522 1.368 . S
C526 C525 1.523 . S
H527 C502 0.950 . S
H528 C504 0.950 . S
H529 C505 0.949 . S
H530 C507 0.950 . S
H531 C509 0.950 . S
C532 C533 1.349 . S
C532 C534 1.327 . S
C532 H557 0.950 . S
C533 C532 1.349 . S
C533 C549 1.349 . S
C534 C532 1.327 . S
C534 C553 1.429 . S
C534 H558 0.950 . S
C535 C552 1.574 . S
C535 C554 1.368 . S
C535 H559 0.949 . S
H536 C540 0.949 . S
C537 C538 1.349 . S
C537 C539 1.327 . S
C537 H560 0.950 . S
C538 C537 1.349 . S
C538 C550 1.349 . S
C539 C537 1.327 . S
C539 C555 1.429 . S
C539 H561 0.950 . S
C540 H536 0.949 . S
C540 C548 1.574 . S
C540 C556 1.368 . S
H541 C549 0.950 . S
H542 C547 0.950 . S
H543 C548 0.949 . S
H544 C550 0.950 . S
H545 C551 0.950 . S
H546 C552 0.949 . S
C547 H542 0.950 . S
C547 C549 1.327 . S
C547 C553 1.429 . S
C548 C540 1.574 . S
C548 H543 0.949 . S
C548 C554 1.368 . S
C549 C533 1.349 . S
C549 H541 0.950 . S
C549 C547 1.327 . S
C550 C538 1.349 . S
C550 H544 0.950 . S
C550 C551 1.327 . S
C551 H545 0.950 . S
C551 C550 1.327 . S
C551 C555 1.429 . S
C552 C535 1.574 . S
C552 H546 0.949 . S
C552 C556 1.368 . S
C553 C534 1.429 . S
C553 C547 1.429 . S
C553 C554 1.523 . S
C554 C535 1.368 . S
C554 C548 1.368 . S
C554 C553 1.523 . S
C555 C539 1.429 . S
C555 C551 1.429 . S
C555 C556 1.523 . S
C556 C540 1.368 . S
C556 C552 1.368 . S
C556 C555 1.523 . S
H557 C532 0.950 . S
H558 C534 0.950 . S
H559 C535 0.949 . S
H560 C537 0.950 . S
H561 C539 0.950 . S
C562 C563 1.349 . S
C562 C564 1.327 . S
C562 H587 0.950 . S
C563 C562 1.349 . S
C563 C579 1.349 . S
C564 C562 1.327 . S
C564 C583 1.429 . S
C564 H588 0.950 . S
C565 C582 1.574 . S
C565 C584 1.368 . S
C565 H589 0.949 . S
H566 C570 0.949 . S
C567 C568 1.349 . S
C567 C569 1.327 . S
C567 H590 0.950 . S
C568 C567 1.349 . S
C568 C580 1.349 . S
C569 C567 1.327 . S
C569 C585 1.429 . S
C569 H591 0.950 . S
C570 H566 0.949 . S
C570 C578 1.574 . S
C570 C586 1.368 . S
H571 C579 0.950 . S
H572 C577 0.950 . S
H573 C578 0.949 . S
H574 C580 0.950 . S
H575 C581 0.950 . S
H576 C582 0.949 . S
C577 H572 0.950 . S
C577 C579 1.327 . S
C577 C583 1.429 . S
C578 C570 1.574 . S
C578 H573 0.949 . S
C578 C584 1.368 . S
C579 C563 1.349 . S
C579 H571 0.950 . S
C579 C577 1.327 . S
C580 C568 1.349 . S
C580 H574 0.950 . S
C580 C581 1.327 . S
C581 H575 0.950 . S
C581 C580 1.327 . S
C581 C585 1.429 . S
C582 C565 1.574 . S
C582 H576 0.949 . S
C582 C586 1.368 . S
C583 C564 1.429 . S
C583 C577 1.429 . S
C583 C584 1.523 . S
C584 C565 1.368 . S
C584 C578 1.368 . S
C584 C583 1.523 . S
C585 C569 1.429 . S
C585 C581 1.429 . S
C585 C586 1.523 . S
C586 C570 1.368 . S
C586 C582 1.368 . S
C586 C585 1.523 . S
H587 C562 0.950 . S
H588 C564 0.950 . S
H589 C565 0.949 . S
H590 C567 0.950 . S
H591 C569 0.950 . S
C592 C593 1.349 . S
C592 C594 1.327 . S
C592 H617 0.950 . S
C593 C592 1.349 . S
C593 C609 1.349 . S
C594 C592 1.327 . S
C594 C613 1.429 . S
C594 H618 0.950 . S
C595 C612 1.574 . S
C595 C614 1.368 . S
C595 H619 0.949 . S
H596 C600 0.949 . S
C597 C598 1.349 . S
C597 C599 1.327 . S
C597 H620 0.950 . S
C598 C597 1.349 . S
C598 C610 1.349 . S
C599 C597 1.327 . S
C599 C615 1.429 . S
C599 H621 0.950 . S
C600 H596 0.949 . S
C600 C608 1.574 . S
C600 C616 1.368 . S
H601 C609 0.950 . S
H602 C607 0.950 . S
H603 C608 0.949 . S
H604 C610 0.950 . S
H605 C611 0.950 . S
H606 C612 0.949 . S
C607 H602 0.950 . S
C607 C609 1.327 . S
C607 C613 1.429 . S
C608 C600 1.574 . S
C608 H603 0.949 . S
C608 C614 1.368 . S
C609 C593 1.349 . S
C609 H601 0.950 . S
C609 C607 1.327 . S
C610 C598 1.349 . S
C610 H604 0.950 . S
C610 C611 1.327 . S
C611 H605 0.950 . S
C611 C610 1.327 . S
C611 C615 1.429 . S
C612 C595 1.574 . S
C612 H606 0.949 . S
C612 C616 1.368 . S
C613 C594 1.429 . S
C613 C607 1.429 . S
C613 C614 1.523 . S
C614 C595 1.368 . S
C614 C608 1.368 . S
C614 C613 1.523 . S
C615 C599 1.429 . S
C615 C611 1.429 . S
C615 C616 1.523 . S
C616 C600 1.368 . S
C616 C612 1.368 . S
C616 C615 1.523 . S
H617 C592 0.950 . S
H618 C594 0.950 . S
H619 C595 0.949 . S
H620 C597 0.950 . S
H621 C599 0.950 . S
C622 C623 1.349 . S
C622 C624 1.327 . S
C622 H647 0.950 . S
C623 C622 1.349 . S
C623 C639 1.349 . S
C624 C622 1.327 . S
C624 C643 1.429 . S
C624 H648 0.950 . S
C625 C642 1.574 . S
C625 C644 1.368 . S
C625 H649 0.949 . S
H626 C630 0.949 . S
C627 C628 1.349 . S
C627 C629 1.327 . S
C627 H650 0.950 . S
C628 C627 1.349 . S
C628 C640 1.349 . S
C629 C627 1.327 . S
C629 C645 1.429 . S
C629 H651 0.950 . S
C630 H626 0.949 . S
C630 C638 1.574 . S
C630 C646 1.368 . S
H631 C639 0.950 . S
H632 C637 0.950 . S
H633 C638 0.949 . S
H634 C640 0.950 . S
H635 C641 0.950 . S
H636 C642 0.949 . S
C637 H632 0.950 . S
C637 C639 1.327 . S
C637 C643 1.429 . S
C638 C630 1.574 . S
C638 H633 0.949 . S
C638 C644 1.368 . S
C639 C623 1.349 . S
C639 H631 0.950 . S
C639 C637 1.327 . S
C640 C628 1.349 . S
C640 H634 0.950 . S
C640 C641 1.327 . S
C641 H635 0.950 . S
C641 C640 1.327 . S
C641 C645 1.429 . S
C642 C625 1.574 . S
C642 H636 0.949 . S
C642 C646 1.368 . S
C643 C624 1.429 . S
C643 C637 1.429 . S
C643 C644 1.523 . S
C644 C625 1.368 . S
C644 C638 1.368 . S
C644 C643 1.523 . S
C645 C629 1.429 . S
C645 C641 1.429 . S
C645 C646 1.523 . S
C646 C630 1.368 . S
C646 C642 1.368 . S
C646 C645 1.523 . S
H647 C622 0.950 . S
H648 C624 0.950 . S
H649 C625 0.949 . S
H650 C627 0.950 . S
H651 C629 0.950 . S
C652 C653 1.349 . S
C652 C654 1.327 . S
C652 H677 0.950 . S
C653 C652 1.349 . S
C653 C669 1.349 . S
C654 C652 1.327 . S
C654 C673 1.429 . S
C654 H678 0.950 . S
C655 C672 1.574 . S
C655 C674 1.368 . S
C655 H679 0.949 . S
H656 C660 0.949 . S
C657 C658 1.349 . S
C657 C659 1.327 . S
C657 H680 0.950 . S
C658 C657 1.349 . S
C658 C670 1.349 . S
C659 C657 1.327 . S
C659 C675 1.429 . S
C659 H681 0.950 . S
C660 H656 0.949 . S
C660 C668 1.574 . S
C660 C676 1.368 . S
H661 C669 0.950 . S
H662 C667 0.950 . S
H663 C668 0.949 . S
H664 C670 0.950 . S
H665 C671 0.950 . S
H666 C672 0.949 . S
C667 H662 0.950 . S
C667 C669 1.327 . S
C667 C673 1.429 . S
C668 C660 1.574 . S
C668 H663 0.949 . S
C668 C674 1.368 . S
C669 C653 1.349 . S
C669 H661 0.950 . S
C669 C667 1.327 . S
C670 C658 1.349 . S
C670 H664 0.950 . S
C670 C671 1.327 . S
C671 H665 0.950 . S
C671 C670 1.327 . S
C671 C675 1.429 . S
C672 C655 1.574 . S
C672 H666 0.949 . S
C672 C676 1.368 . S
C673 C654 1.429 . S
C673 C667 1.429 . S
C673 C674 1.523 . S
C674 C655 1.368 . S
C674 C668 1.368 . S
C674 C673 1.523 . S
C675 C659 1.429 . S
C675 C671 1.429 . S
C675 C676 1.523 . S
C676 C660 1.368 . S
C676 C672 1.368 . S
C676 C675 1.523 . S
H677 C652 0.950 . S
H678 C654 0.950 . S
H679 C655 0.949 . S
H680 C657 0.950 . S
H681 C659 0.950 . S
C682 C683 1.349 . S
C682 C684 1.327 . S
C682 H707 0.950 . S
C683 C682 1.349 . S
C683 C699 1.349 . S
C684 C682 1.327 . S
C684 C703 1.429 . S
C684 H708 0.950 . S
C685 C702 1.574 1_554 S
C685 C704 1.368 . S
C685 H709 0.949 . S
H686 C690 0.949 . S
C687 C688 1.349 . S
C687 C689 1.327 . S
C687 H710 0.950 . S
C688 C687 1.349 . S
C688 C700 1.349 . S
C689 C687 1.327 . S
C689 C705 1.429 . S
C689 H711 0.950 . S
C690 H686 0.949 . S
C690 C698 1.574 1_556 S
C690 C706 1.368 . S
H691 C699 0.950 . S
H692 C697 0.950 . S
H693 C698 0.949 . S
H694 C700 0.950 . S
H695 C701 0.950 . S
H696 C702 0.949 . S
C697 H692 0.950 . S
C697 C699 1.327 . S
C697 C703 1.429 . S
C698 C690 1.574 1_554 S
C698 H693 0.949 . S
C698 C704 1.368 . S
C699 C683 1.349 . S
C699 H691 0.950 . S
C699 C697 1.327 . S
C700 C688 1.349 . S
C700 H694 0.950 . S
C700 C701 1.327 . S
C701 H695 0.950 . S
C701 C700 1.327 . S
C701 C705 1.429 . S
C702 C685 1.574 1_556 S
C702 H696 0.949 . S
C702 C706 1.368 . S
C703 C684 1.429 . S
C703 C697 1.429 . S
C703 C704 1.523 . S
C704 C685 1.368 . S
C704 C698 1.368 . S
C704 C703 1.523 . S
C705 C689 1.429 . S
C705 C701 1.429 . S
C705 C706 1.523 . S
C706 C690 1.368 . S
C706 C702 1.368 . S
C706 C705 1.523 . S
H707 C682 0.950 . S
H708 C684 0.950 . S
H709 C685 0.949 . S
H710 C687 0.950 . S
H711 C689 0.950 . S
C712 C713 1.349 . S
C712 C714 1.327 . S
C712 H737 0.950 . S
C713 C712 1.349 . S
C713 C729 1.349 . S
C714 C712 1.327 . S
C714 C733 1.429 . S
C714 H738 0.950 . S
C715 C732 1.574 1_545 S
C715 C734 1.368 . S
C715 H739 0.949 . S
H716 C720 0.949 . S
C717 C718 1.349 . S
C717 C719 1.327 . S
C717 H740 0.950 . S
C718 C717 1.349 . S
C718 C730 1.349 . S
C719 C717 1.327 . S
C719 C735 1.429 . S
C719 H741 0.950 . S
C720 H716 0.949 . S
C720 C728 1.574 1_565 S
C720 C736 1.368 . S
H721 C729 0.950 . S
H722 C727 0.950 . S
H723 C728 0.949 . S
H724 C730 0.950 . S
H725 C731 0.950 . S
H726 C732 0.949 . S
C727 H722 0.950 . S
C727 C729 1.327 . S
C727 C733 1.429 . S
C728 C720 1.574 1_545 S
C728 H723 0.949 . S
C728 C734 1.368 1_655 S
C729 C713 1.349 . S
C729 H721 0.950 . S
C729 C727 1.327 . S
C730 C718 1.349 . S
C730 H724 0.950 . S
C730 C731 1.327 . S
C731 H725 0.950 . S
C731 C730 1.327 . S
C731 C735 1.429 . S
C732 C715 1.574 1_565 S
C732 H726 0.949 . S
C732 C736 1.368 1_455 S
C733 C714 1.429 . S
C733 C727 1.429 . S
C733 C734 1.523 . S
C734 C715 1.368 . S
C734 C728 1.368 1_455 S
C734 C733 1.523 . S
C735 C719 1.429 . S
C735 C731 1.429 . S
C735 C736 1.523 . S
C736 C720 1.368 . S
C736 C732 1.368 1_655 S
C736 C735 1.523 . S
H737 C712 0.950 . S
H738 C714 0.950 . S
H739 C715 0.949 . S
H740 C717 0.950 . S
H741 C719 0.950 . S
C742 C743 1.349 . S
C742 C744 1.327 . S
C742 H767 0.950 . S
C743 C742 1.349 . S
C743 C759 1.349 . S
C744 C742 1.327 . S
C744 C763 1.429 . S
C744 H768 0.950 . S
C745 C762 1.574 1_455 S
C745 C764 1.368 . S
C745 H769 0.949 . S
H746 C750 0.949 . S
C747 C748 1.349 . S
C747 C749 1.327 . S
C747 H770 0.950 . S
C748 C747 1.349 . S
C748 C760 1.349 . S
C749 C747 1.327 . S
C749 C765 1.429 . S
C749 H771 0.950 . S
C750 H746 0.949 . S
C750 C758 1.574 1_655 S
C750 C766 1.368 . S
H751 C759 0.950 . S
H752 C757 0.950 . S
H753 C758 0.949 . S
H754 C760 0.950 . S
H755 C761 0.950 . S
H756 C762 0.949 . S
C757 H752 0.950 . S
C757 C759 1.327 . S
C757 C763 1.429 . S
C758 C750 1.574 1_455 S
C758 H753 0.949 . S
C758 C764 1.368 . S
C759 C743 1.349 . S
C759 H751 0.950 . S
C759 C757 1.327 . S
C760 C748 1.349 . S
C760 H754 0.950 . S
C760 C761 1.327 . S
C761 H755 0.950 . S
C761 C760 1.327 . S
C761 C765 1.429 . S
C762 C745 1.574 1_655 S
C762 H756 0.949 . S
C762 C766 1.368 . S
C763 C744 1.429 . S
C763 C757 1.429 . S
C763 C764 1.523 . S
C764 C745 1.368 . S
C764 C758 1.368 . S
C764 C763 1.523 . S
C765 C749 1.429 . S
C765 C761 1.429 . S
C765 C766 1.523 . S
C766 C750 1.368 . S
C766 C762 1.368 . S
C766 C765 1.523 . S
H767 C742 0.950 . S
H768 C744 0.950 . S
H769 C745 0.949 . S
H770 C747 0.950 . S
H771 C749 0.950 . S
C772 C773 1.349 . S
C772 C774 1.327 . S
C772 H797 0.950 . S
C773 C772 1.349 . S
C773 C789 1.349 . S
C774 C772 1.327 . S
C774 C793 1.429 . S
C774 H798 0.950 . S
C775 C792 1.574 . S
C775 C794 1.368 . S
C775 H799 0.949 . S
H776 C780 0.949 . S
C777 C778 1.349 . S
C777 C779 1.327 . S
C777 H800 0.950 . S
C778 C777 1.349 . S
C778 C790 1.349 . S
C779 C777 1.327 . S
C779 C795 1.429 . S
C779 H801 0.950 . S
C780 H776 0.949 . S
C780 C788 1.574 . S
C780 C796 1.368 . S
H781 C789 0.950 . S
H782 C787 0.950 . S
H783 C788 0.949 . S
H784 C790 0.950 . S
H785 C791 0.950 . S
H786 C792 0.949 . S
C787 H782 0.950 . S
C787 C789 1.327 . S
C787 C793 1.429 . S
C788 C780 1.574 . S
C788 H783 0.949 . S
C788 C794 1.368 . S
C789 C773 1.349 . S
C789 H781 0.950 . S
C789 C787 1.327 . S
C790 C778 1.349 . S
C790 H784 0.950 . S
C790 C791 1.327 . S
C791 H785 0.950 . S
C791 C790 1.327 . S
C791 C795 1.429 . S
C792 C775 1.574 . S
C792 H786 0.949 . S
C792 C796 1.368 . S
C793 C774 1.429 . S
C793 C787 1.429 . S
C793 C794 1.523 . S
C794 C775 1.368 . S
C794 C788 1.368 . S
C794 C793 1.523 . S
C795 C779 1.429 . S
C795 C791 1.429 . S
C795 C796 1.523 . S
C796 C780 1.368 . S
C796 C792 1.368 . S
C796 C795 1.523 . S
H797 C772 0.950 . S
H798 C774 0.950 . S
H799 C775 0.949 . S
H800 C777 0.950 . S
H801 C779 0.950 . S
C802 C803 1.349 . S
C802 C804 1.327 . S
C802 H827 0.950 . S
C803 C802 1.349 . S
C803 C819 1.349 . S
C804 C802 1.327 . S
C804 C823 1.429 . S
C804 H828 0.950 . S
C805 C822 1.574 . S
C805 C824 1.368 1_545 S
C805 H829 0.949 . S
H806 C810 0.949 . S
C807 C808 1.349 . S
C807 C809 1.327 . S
C807 H830 0.950 . S
C808 C807 1.349 . S
C808 C820 1.349 . S
C809 C807 1.327 . S
C809 C825 1.429 . S
C809 H831 0.950 . S
C810 H806 0.949 . S
C810 C818 1.574 . S
C810 C826 1.368 1_565 S
H811 C819 0.950 . S
H812 C817 0.950 . S
H813 C818 0.949 . S
H814 C820 0.950 . S
H815 C821 0.950 . S
H816 C822 0.949 . S
C817 H812 0.950 . S
C817 C819 1.327 . S
C817 C823 1.429 . S
C818 C810 1.574 . S
C818 H813 0.949 . S
C818 C824 1.368 . S
C819 C803 1.349 . S
C819 H811 0.950 . S
C819 C817 1.327 . S
C820 C808 1.349 . S
C820 H814 0.950 . S
C820 C821 1.327 . S
C821 H815 0.950 . S
C821 C820 1.327 . S
C821 C825 1.429 . S
C822 C805 1.574 . S
C822 H816 0.949 . S
C822 C826 1.368 . S
C823 C804 1.429 . S
C823 C817 1.429 . S
C823 C824 1.523 . S
C824 C805 1.368 1_565 S
C824 C818 1.368 . S
C824 C823 1.523 . S
C825 C809 1.429 . S
C825 C821 1.429 . S
C825 C826 1.523 . S
C826 C810 1.368 1_545 S
C826 C822 1.368 . S
C826 C825 1.523 . S
H827 C802 0.950 . S
H828 C804 0.950 . S
H829 C805 0.949 . S
H830 C807 0.950 . S
H831 C809 0.950 . S
C832 C833 1.349 . S
C832 C834 1.327 . S
C832 H857 0.950 . S
C833 C832 1.349 . S
C833 C849 1.349 . S
C834 C832 1.327 . S
C834 C853 1.429 . S
C834 H858 0.950 . S
C835 C852 1.574 . S
C835 C854 1.368 1_455 S
C835 H859 0.949 . S
H836 C840 0.949 . S
C837 C838 1.349 . S
C837 C839 1.327 . S
C837 H860 0.950 . S
C838 C837 1.349 . S
C838 C850 1.349 . S
C839 C837 1.327 . S
C839 C855 1.429 . S
C839 H861 0.950 . S
C840 H836 0.949 . S
C840 C848 1.574 . S
C840 C856 1.368 1_655 S
H841 C849 0.950 . S
H842 C847 0.950 . S
H843 C848 0.949 . S
H844 C850 0.950 . S
H845 C851 0.950 . S
H846 C852 0.949 . S
C847 H842 0.950 . S
C847 C849 1.327 . S
C847 C853 1.429 . S
C848 C840 1.574 . S
C848 H843 0.949 . S
C848 C854 1.368 . S
C849 C833 1.349 . S
C849 H841 0.950 . S
C849 C847 1.327 . S
C850 C838 1.349 . S
C850 H844 0.950 . S
C850 C851 1.327 . S
C851 H845 0.950 . S
C851 C850 1.327 . S
C851 C855 1.429 . S
C852 C835 1.574 . S
C852 H846 0.949 . S
C852 C856 1.368 . S
C853 C834 1.429 . S
C853 C847 1.429 . S
C853 C854 1.523 . S
C854 C835 1.368 1_655 S
C854 C848 1.368 . S
C854 C853 1.523 . S
C855 C839 1.429 . S
C855 C851 1.429 . S
C855 C856 1.523 . S
C856 C840 1.368 1_455 S
C856 C852 1.368 . S
C856 C855 1.523 . S
H857 C832 0.950 . S
H858 C834 0.950 . S
H859 C835 0.949 . S
H860 C837 0.950 . S
H861 C839 0.950 . S
C862 C863 1.349 . S
C862 C864 1.327 . S
C862 H887 0.950 . S
C863 C862 1.349 . S
C863 C879 1.349 . S
C864 C862 1.327 . S
C864 C883 1.429 . S
C864 H888 0.950 . S
C865 C882 1.574 . S
C865 C884 1.368 . S
C865 H889 0.949 . S
H866 C870 0.949 . S
C867 C868 1.349 . S
C867 C869 1.327 . S
C867 H890 0.950 . S
C868 C867 1.349 . S
C868 C880 1.349 . S
C869 C867 1.327 . S
C869 C885 1.429 . S
C869 H891 0.950 . S
C870 H866 0.949 . S
C870 C878 1.574 . S
C870 C886 1.368 . S
H871 C879 0.950 . S
H872 C877 0.950 . S
H873 C878 0.949 . S
H874 C880 0.950 . S
H875 C881 0.950 . S
H876 C882 0.949 . S
C877 H872 0.950 . S
C877 C879 1.327 . S
C877 C883 1.429 . S
C878 C870 1.574 . S
C878 H873 0.949 . S
C878 C884 1.368 . S
C879 C863 1.349 . S
C879 H871 0.950 . S
C879 C877 1.327 . S
C880 C868 1.349 . S
C880 H874 0.950 . S
C880 C881 1.327 . S
C881 H875 0.950 . S
C881 C880 1.327 . S
C881 C885 1.429 . S
C882 C865 1.574 . S
C882 H876 0.949 . S
C882 C886 1.368 . S
C883 C864 1.429 . S
C883 C877 1.429 . S
C883 C884 1.523 . S
C884 C865 1.368 . S
C884 C878 1.368 . S
C884 C883 1.523 . S
C885 C869 1.429 . S
C885 C881 1.429 . S
C885 C886 1.523 . S
C886 C870 1.368 . S
C886 C882 1.368 . S
C886 C885 1.523 . S
H887 C862 0.950 . S
H888 C864 0.950 . S
H889 C865 0.949 . S
H890 C867 0.950 . S
H891 C869 0.950 . S
C892 C893 1.349 . S
C892 C894 1.327 . S
C892 H917 0.950 . S
C893 C892 1.349 . S
C893 C909 1.349 . S
C894 C892 1.327 . S
C894 C913 1.429 . S
C894 H918 0.950 . S
C895 C912 1.574 1_545 S
C895 C914 1.368 . S
C895 H919 0.949 . S
H896 C900 0.949 . S
C897 C898 1.349 . S
C897 C899 1.327 . S
C897 H920 0.950 . S
C898 C897 1.349 . S
C898 C910 1.349 . S
C899 C897 1.327 . S
C899 C915 1.429 . S
C899 H921 0.950 . S
C900 H896 0.949 . S
C900 C908 1.574 1_565 S
C900 C916 1.368 . S
H901 C909 0.950 . S
H902 C907 0.950 . S
H903 C908 0.949 . S
H904 C910 0.950 . S
H905 C911 0.950 . S
H906 C912 0.949 . S
C907 H902 0.950 . S
C907 C909 1.327 . S
C907 C913 1.429 . S
C908 C900 1.574 1_545 S
C908 H903 0.949 . S
C908 C914 1.368 . S
C909 C893 1.349 . S
C909 H901 0.950 . S
C909 C907 1.327 . S
C910 C898 1.349 . S
C910 H904 0.950 . S
C910 C911 1.327 . S
C911 H905 0.950 . S
C911 C910 1.327 . S
C911 C915 1.429 . S
C912 C895 1.574 1_565 S
C912 H906 0.949 . S
C912 C916 1.368 . S
C913 C894 1.429 . S
C913 C907 1.429 . S
C913 C914 1.523 . S
C914 C895 1.368 . S
C914 C908 1.368 . S
C914 C913 1.523 . S
C915 C899 1.429 . S
C915 C911 1.429 . S
C915 C916 1.523 . S
C916 C900 1.368 . S
C916 C912 1.368 . S
C916 C915 1.523 . S
H917 C892 0.950 . S
H918 C894 0.950 . S
H919 C895 0.949 . S
H920 C897 0.950 . S
H921 C899 0.950 . S
C922 C923 1.349 . S
C922 C924 1.327 . S
C922 H947 0.950 . S
C923 C922 1.349 . S
C923 C939 1.349 . S
C924 C922 1.327 . S
C924 C943 1.429 . S
C924 H948 0.950 . S
C925 C942 1.574 1_655 S
C925 C944 1.368 1_545 S
C925 H949 0.949 . S
H926 C930 0.949 . S
C927 C928 1.349 . S
C927 C929 1.327 . S
C927 H950 0.950 . S
C928 C927 1.349 . S
C928 C940 1.349 . S
C929 C927 1.327 . S
C929 C945 1.429 . S
C929 H951 0.950 . S
C930 H926 0.949 . S
C930 C938 1.574 1_455 S
C930 C946 1.368 1_565 S
H931 C939 0.950 . S
H932 C937 0.950 . S
H933 C938 0.949 . S
H934 C940 0.950 . S
H935 C941 0.950 . S
H936 C942 0.949 . S
C937 H932 0.950 . S
C937 C939 1.327 . S
C937 C943 1.429 . S
C938 C930 1.574 1_655 S
C938 H933 0.949 . S
C938 C944 1.368 . S
C939 C923 1.349 . S
C939 H931 0.950 . S
C939 C937 1.327 . S
C940 C928 1.349 . S
C940 H934 0.950 . S
C940 C941 1.327 . S
C941 H935 0.950 . S
C941 C940 1.327 . S
C941 C945 1.429 . S
C942 C925 1.574 1_455 S
C942 H936 0.949 . S
C942 C946 1.368 . S
C943 C924 1.429 . S
C943 C937 1.429 . S
C943 C944 1.523 . S
C944 C925 1.368 1_565 S
C944 C938 1.368 . S
C944 C943 1.523 . S
C945 C929 1.429 . S
C945 C941 1.429 . S
C945 C946 1.523 . S
C946 C930 1.368 1_545 S
C946 C942 1.368 . S
C946 C945 1.523 . S
H947 C922 0.950 . S
H948 C924 0.950 . S
H949 C925 0.949 . S
H950 C927 0.950 . S
H951 C929 0.950 . S
C473 C33 1.239 . S
C478 C328 1.239 . S
C503 C62 1.360 . S
C508 C357 1.360 . S
C533 C151 1.239 . S
C538 C446 1.239 . S
C563 C180 1.360 . S
C568 C239 1.360 . S
C593 C416 1.360 . S
C598 C3 1.360 . S
C623 C269 1.239 . S
C628 C92 1.239 . S
C653 C121 1.360 . S
C658 C298 1.360 . S
C683 C387 1.239 . S
C688 C210 1.239 . S
C713 C52 1.653 . S
C718 C406 1.653 . S
C743 C418 1.621 . S
C748 C64 1.621 . S
C773 C170 1.653 . S
C778 C288 1.653 . S
C803 C182 1.621 . S
C808 C300 1.621 . S
C833 C359 1.621 . S
C838 C5 1.621 . S
C863 C465 1.653 . S
C868 C111 1.653 . S
C893 C123 1.621 . S
C898 C241 1.621 . S
C923 C229 1.653 . S
C928 C347 1.653 . S
