# Generated by pormake.
# Topology sml, (6)-cn, num edge types: 1
# Building blocks:
#     Node 0, Type 0, BuildingBlock: CUWYAW_clean_sbu_0, # of connection points: 6
#     Node 1, Type 0, BuildingBlock: CUWYAW_clean_sbu_0, # of connection points: 6
#     Node 2, Type 0, BuildingBlock: CUWYAW_clean_sbu_0, # of connection points: 6
#     Node 3, Type 0, BuildingBlock: CUWYAW_clean_sbu_0, # of connection points: 6
#     Node 4, Type 0, BuildingBlock: CUWYAW_clean_sbu_0, # of connection points: 6
#     Node 5, Type 0, BuildingBlock: CUWYAW_clean_sbu_0, # of connection points: 6
#     Edge 6, Type (0, 0), BuildingBlock: XIVTED_clean_linker_0, # of connection points: 2
#     Edge 7, Type (0, 0), BuildingBlock: XIVTED_clean_linker_0, # of connection points: 2
#     Edge 8, Type (0, 0), BuildingBlock: XIVTED_clean_linker_0, # of connection points: 2
#     Edge 9, Type (0, 0), BuildingBlock: XIVTED_clean_linker_0, # of connection points: 2
#     Edge 10, Type (0, 0), BuildingBlock: XIVTED_clean_linker_0, # of connection points: 2
#     Edge 11, Type (0, 0), BuildingBlock: XIVTED_clean_linker_0, # of connection points: 2
#     Edge 12, Type (0, 0), BuildingBlock: XIVTED_clean_linker_0, # of connection points: 2
#     Edge 13, Type (0, 0), BuildingBlock: XIVTED_clean_linker_0, # of connection points: 2
#     Edge 14, Type (0, 0), BuildingBlock: XIVTED_clean_linker_0, # of connection points: 2
#     Edge 15, Type (0, 0), BuildingBlock: XIVTED_clean_linker_0, # of connection points: 2
#     Edge 16, Type (0, 0), BuildingBlock: XIVTED_clean_linker_0, # of connection points: 2
#     Edge 17, Type (0, 0), BuildingBlock: XIVTED_clean_linker_0, # of connection points: 2
#     Edge 18, Type (0, 0), BuildingBlock: XIVTED_clean_linker_0, # of connection points: 2
#     Edge 19, Type (0, 0), BuildingBlock: XIVTED_clean_linker_0, # of connection points: 2
#     Edge 20, Type (0, 0), BuildingBlock: XIVTED_clean_linker_0, # of connection points: 2
#     Edge 21, Type (0, 0), BuildingBlock: XIVTED_clean_linker_0, # of connection points: 2
#     Edge 22, Type (0, 0), BuildingBlock: XIVTED_clean_linker_0, # of connection points: 2
#     Edge 23, Type (0, 0), BuildingBlock: XIVTED_clean_linker_0, # of connection points: 2
# Relax obj value: 0.235
# Max RMSD: 0.249
# Mean RMSD: 0.249
data_MOF--net-sml--node1-CUWYAW_clean_sbu_0--edge1-XIVTED_clean_linker_0
_symmetry_space_group_name_H-M    P1
_symmetry_Int_Tables_number       1
_symmetry_cell_setting            triclinic
loop_
_symmetry_equiv_pos_as_xyz
'x, y, z'
_cell_length_a     33.109047
_cell_length_b     32.993349
_cell_length_c     25.231175
_cell_angle_alpha  90.045642
_cell_angle_beta   90.094331
_cell_angle_gamma 120.14509
loop_
_atom_site_label
_atom_site_type_symbol
_atom_site_fract_x
_atom_site_fract_y
_atom_site_fract_z
_atom_type_partial_charge
C0 C 0.22834 0.37447 0.15825 0.0
Eu1 Eu 0.20945 0.39751 0.06645 0.0
C2 C 0.22103 0.37906 0.21541 0.0
C3 C 0.25914 0.41018 0.24693 0.0
C4 C 0.25345 0.41499 0.301 0.0
C5 C 0.20942 0.38877 0.32505 0.0
C6 C 0.17131 0.35725 0.29354 0.0
C7 C 0.17711 0.35221 0.23944 0.0
C8 C 0.27338 0.46069 0.99894 0.0
C9 C 0.17742 0.47579 0.08027 0.0
C10 C 0.15151 0.44818 0.87875 0.0
Eu11 Eu 0.16927 0.42544 0.97126 0.0
C12 C 0.15988 0.44239 0.82246 0.0
C13 C 0.12175 0.42116 0.78753 0.0
C14 C 0.12841 0.41494 0.73412 0.0
C15 C 0.17346 0.43019 0.71436 0.0
C16 C 0.21173 0.4516 0.74936 0.0
C17 C 0.20501 0.45746 0.80298 0.0
C18 C 0.10519 0.36444 0.03925 0.0
C19 C 0.20315 0.34833 0.95688 0.0
O20 O 0.19207 0.34593 0.12942 0.0
O21 O 0.25666 0.41329 0.13333 0.0
O22 O 0.27857 0.42884 0.02292 0.0
O23 O 0.23648 0.45936 0.01378 0.0
O24 O 0.18142 0.44164 0.10254 0.0
O25 O 0.17864 0.48166 0.02839 0.0
O26 O 0.18767 0.47643 0.90773 0.0
O27 O 0.12225 0.40995 0.90396 0.0
O28 O 0.10017 0.39551 0.01325 0.0
O29 O 0.14153 0.36408 0.02513 0.0
O30 O 0.1966 0.38113 0.93534 0.0
O31 O 0.20375 0.34309 1.00871 0.0
H32 H 0.29361 0.43072 0.22977 0.0
H33 H 0.28384 0.43882 0.32408 0.0
H34 H 0.1368 0.33669 0.3105 0.0
H35 H 0.14718 0.32718 0.21666 0.0
H36 H 0.08667 0.40938 0.80161 0.0
H37 H 0.0983 0.39884 0.70808 0.0
H38 H 0.24681 0.4633 0.7354 0.0
H39 H 0.2351 0.47367 0.82905 0.0
C40 C 0.84929 0.23944 0.49732 0.0
Eu41 Eu 0.80782 0.22188 0.4052 0.0
C42 C 0.83635 0.23227 0.5543 0.0
C43 C 0.84084 0.26988 0.58505 0.0
C44 C 0.82962 0.26401 0.63899 0.0
C45 C 0.81362 0.22034 0.66357 0.0
C46 C 0.80931 0.18273 0.6329 0.0
C47 C 0.82088 0.1887 0.57902 0.0
C48 C 0.80763 0.28432 0.33631 0.0
C49 C 0.69706 0.18999 0.41999 0.0
C50 C 0.69739 0.15979 0.21846 0.0
Eu51 Eu 0.73789 0.17881 0.31113 0.0
C52 C 0.7113 0.16811 0.16198 0.0
C53 C 0.6974 0.12959 0.12808 0.0
C54 C 0.7096 0.1362 0.07446 0.0
C55 C 0.73572 0.18161 0.05321 0.0
C56 C 0.74979 0.22025 0.08737 0.0
C57 C 0.73781 0.2136 0.14118 0.0
C58 C 0.73614 0.11667 0.3811 0.0
C59 C 0.84904 0.21353 0.29565 0.0
O60 O 0.83961 0.20243 0.46875 0.0
O61 O 0.84163 0.2694 0.47164 0.0
O62 O 0.84497 0.2907 0.36071 0.0
O63 O 0.77218 0.24725 0.35182 0.0
O64 O 0.73697 0.19848 0.44188 0.0
O65 O 0.68968 0.18541 0.36827 0.0
O66 O 0.7046 0.19589 0.24721 0.0
O67 O 0.70698 0.13115 0.24404 0.0
O68 O 0.69973 0.11021 0.35473 0.0
O69 O 0.77252 0.15295 0.36567 0.0
O70 O 0.80911 0.20554 0.27451 0.0
O71 O 0.85613 0.21623 0.34737 0.0
H72 H 0.85318 0.30403 0.56741 0.0
H73 H 0.833 0.29361 0.66134 0.0
H74 H 0.7978 0.14883 0.65079 0.0
H75 H 0.81802 0.15922 0.55696 0.0
H76 H 0.67706 0.09418 0.14314 0.0
H77 H 0.69885 0.10557 0.0498 0.0
H78 H 0.76944 0.25573 0.07243 0.0
H79 H 0.74912 0.24409 0.16629 0.0
C80 C 0.59847 0.85157 0.82734 0.0
Eu81 Eu 0.57751 0.80959 0.73532 0.0
C82 C 0.59558 0.83972 0.88392 0.0
C83 C 0.59972 0.87274 0.92167 0.0
C84 C 0.59495 0.86179 0.97561 0.0
C85 C 0.5859 0.81748 0.99293 0.0
C86 C 0.58229 0.78454 0.95485 0.0
C87 C 0.58692 0.79552 0.90073 0.0
C88 C 0.51568 0.81173 0.66667 0.0
C89 C 0.50005 0.69912 0.74781 0.0
C90 C 0.52746 0.70191 0.5472 0.0
Eu91 Eu 0.55073 0.7428 0.63983 0.0
C92 C 0.53468 0.71545 0.49092 0.0
C93 C 0.53275 0.68339 0.45316 0.0
C94 C 0.53969 0.69535 0.39948 0.0
C95 C 0.54871 0.73974 0.38245 0.0
C96 C 0.55071 0.77192 0.42059 0.0
C97 C 0.54387 0.75992 0.4744 0.0
C98 C 0.61053 0.73784 0.70844 0.0
C99 C 0.62947 0.85383 0.62767 0.0
O100 O 0.62819 0.84608 0.79848 0.0
O101 O 0.5586 0.83735 0.8032 0.0
O102 O 0.54777 0.84858 0.69086 0.0
O103 O 0.51627 0.77567 0.6816 0.0
O104 O 0.53455 0.73682 0.77051 0.0
O105 O 0.494 0.69546 0.69593 0.0
O106 O 0.50113 0.71337 0.57447 0.0
O107 O 0.56441 0.70883 0.57356 0.0
O108 O 0.57899 0.70229 0.68188 0.0
O109 O 0.61178 0.77531 0.69489 0.0
O110 O 0.59728 0.81466 0.60495 0.0
O111 O 0.63307 0.85925 0.67963 0.0
H112 H 0.60629 0.90699 0.90936 0.0
H113 H 0.59861 0.8882 1.00382 0.0
H114 H 0.57488 0.74995 0.96676 0.0
H115 H 0.5832 0.76939 0.87206 0.0
H116 H 0.52572 0.64893 0.46521 0.0
H117 H 0.53729 0.66951 0.37121 0.0
H118 H 0.55813 0.80658 0.40895 0.0
H119 H 0.54583 0.78534 0.50304 0.0
C120 C 0.74895 0.61649 0.16057 0.0
Eu121 Eu 0.76418 0.58984 0.06891 0.0
C122 C 0.75868 0.61382 0.21705 0.0
C123 C 0.73883 0.6293 0.25527 0.0
C124 C 0.74477 0.62419 0.30927 0.0
C125 C 0.77069 0.60336 0.32617 0.0
C126 C 0.79138 0.58871 0.28755 0.0
C127 C 0.78532 0.5938 0.23345 0.0
C128 C 0.6966 0.52461 1.00598 0.0
C129 C 0.79319 0.5095 0.08427 0.0
C130 C 0.80252 0.52174 0.88104 0.0
Eu131 Eu 0.79682 0.55454 0.97317 0.0
C132 C 0.79883 0.53132 0.82468 0.0
C133 C 0.82318 0.52114 0.78654 0.0
C134 C 0.82023 0.52995 0.73284 0.0
C135 C 0.7929 0.54929 0.71614 0.0
C136 C 0.7686 0.55959 0.75471 0.0
C137 C 0.7715 0.55064 0.80843 0.0
C138 C 0.86625 0.61745 0.0351 0.0
C139 C 0.771 0.63821 0.95846 0.0
O140 O 0.78455 0.64346 0.13031 0.0
O141 O 0.71987 0.57666 0.13784 0.0
O142 O 0.69428 0.55957 0.02608 0.0
O143 O 0.73301 0.52519 0.02098 0.0
O144 O 0.79282 0.54617 0.10512 0.0
O145 O 0.78776 0.50043 0.03294 0.0
O146 O 0.76407 0.50417 0.90896 0.0
O147 O 0.83882 0.55399 0.9068 0.0
O148 O 0.86856 0.58469 1.00907 0.0
O149 O 0.82975 0.61862 0.02336 0.0
O150 O 0.77651 0.60463 0.93713 0.0
O151 O 0.77006 0.64359 0.01024 0.0
H152 H 0.71813 0.64481 0.24334 0.0
H153 H 0.72899 0.63656 0.3378 0.0
H154 H 0.81117 0.57213 0.29906 0.0
H155 H 0.80072 0.58137 0.20453 0.0
H156 H 0.84436 0.50612 0.79828 0.0
H157 H 0.83885 0.52089 0.70433 0.0
H158 H 0.74771 0.57506 0.74351 0.0
H159 H 0.75239 0.55879 0.83723 0.0
C160 C 0.1297 0.75205 0.48937 0.0
Eu161 Eu 0.17147 0.77066 0.39751 0.0
C162 C 0.14188 0.76302 0.54574 0.0
C163 C 0.10712 0.74042 0.58411 0.0
C164 C 0.11826 0.74784 0.63806 0.0
C165 C 0.16454 0.77808 0.65476 0.0
C166 C 0.19925 0.80123 0.61594 0.0
C167 C 0.18802 0.79371 0.5619 0.0
C168 C 0.17005 0.70539 0.33139 0.0
C169 C 0.28168 0.80394 0.41138 0.0
C170 C 0.28005 0.8252 0.20979 0.0
Eu171 Eu 0.23879 0.80934 0.30185 0.0
C172 C 0.26727 0.81891 0.15321 0.0
C173 C 0.30124 0.84587 0.1155 0.0
C174 C 0.29 0.84093 0.06155 0.0
C175 C 0.24441 0.80894 0.04418 0.0
C176 C 0.21031 0.78203 0.08229 0.0
C177 C 0.22168 0.7869 0.13633 0.0
C178 C 0.24288 0.87516 0.36843 0.0
C179 C 0.1278 0.77552 0.28766 0.0
O180 O 0.13472 0.78633 0.45881 0.0
O181 O 0.14414 0.72589 0.46692 0.0
O182 O 0.1332 0.70057 0.35513 0.0
O183 O 0.2058 0.74273 0.3457 0.0
O184 O 0.24407 0.80118 0.43322 0.0
O185 O 0.28554 0.80073 0.35965 0.0
O186 O 0.26713 0.78715 0.23745 0.0
O187 O 0.27404 0.85623 0.23537 0.0
O188 O 0.27855 0.87948 0.34236 0.0
O189 O 0.20585 0.83832 0.35513 0.0
O190 O 0.16728 0.78297 0.26599 0.0
O191 O 0.12193 0.77448 0.33954 0.0
H192 H 0.07138 0.71628 0.57235 0.0
H193 H 0.09075 0.72884 0.66665 0.0
H194 H 0.23512 0.82519 0.62726 0.0
H195 H 0.21542 0.81138 0.53283 0.0
H196 H 0.33654 0.87093 0.12782 0.0
H197 H 0.31693 0.86272 0.03347 0.0
H198 H 0.175 0.75674 0.07031 0.0
H199 H 0.19497 0.76563 0.16489 0.0
C200 C 0.3663 0.12948 0.82834 0.0
Eu201 Eu 0.39195 0.17208 0.73692 0.0
C202 C 0.37117 0.14184 0.88512 0.0
C203 C 0.35803 0.10649 0.92313 0.0
C204 C 0.36382 0.11745 0.97723 0.0
C205 C 0.38297 0.16415 0.99456 0.0
C206 C 0.39593 0.19954 0.95611 0.0
C207 C 0.39011 0.18848 0.90193 0.0
C208 C 0.4553 0.17114 0.67064 0.0
C209 C 0.47174 0.28305 0.75341 0.0
C210 C 0.45417 0.28185 0.55004 0.0
Eu211 Eu 0.42421 0.24208 0.6422 0.0
C212 C 0.44756 0.26848 0.4935 0.0
C213 C 0.45739 0.30282 0.45505 0.0
C214 C 0.4511 0.29113 0.40117 0.0
C215 C 0.43467 0.24468 0.38449 0.0
C216 C 0.42466 0.21021 0.42332 0.0
C217 C 0.43116 0.22203 0.47731 0.0
C218 C 0.36242 0.24625 0.7075 0.0
C219 C 0.34282 0.13143 0.6264 0.0
O220 O 0.33998 0.14021 0.79971 0.0
O221 O 0.40466 0.13826 0.8039 0.0
O222 O 0.42184 0.1334 0.69196 0.0
O223 O 0.45479 0.20689 0.68685 0.0
O224 O 0.4387 0.24338 0.77442 0.0
O225 O 0.47714 0.2899 0.70169 0.0
O226 O 0.47613 0.26613 0.5792 0.0
O227 O 0.41827 0.27974 0.57431 0.0
O228 O 0.39361 0.282 0.68093 0.0
O229 O 0.3617 0.209 0.69412 0.0
O230 O 0.3756 0.17124 0.60553 0.0
O231 O 0.33798 0.12433 0.67811 0.0
H232 H 0.34369 0.07032 0.91093 0.0
H233 H 0.35412 0.08934 1.00543 0.0
H234 H 0.41026 0.2358 0.96784 0.0
H235 H 0.40057 0.21636 0.87324 0.0
H236 H 0.46984 0.33881 0.46675 0.0
H237 H 0.45847 0.31846 0.3726 0.0
H238 H 0.4124 0.1742 0.41197 0.0
H239 H 0.42348 0.19496 0.50636 0.0
H240 H 0.31079 0.28602 0.68343 0.0
H241 H 0.23882 0.29124 0.9821 0.0
H242 H 0.33847 0.21501 0.80894 0.0
H243 H 0.19371 0.34156 0.84951 0.0
H244 H 0.26833 0.25533 0.91964 0.0
H245 H 0.26114 0.29987 0.74336 0.0
C246 C 0.30552 0.27255 0.72351 0.0
C247 C 0.32783 0.24866 0.74134 0.0
C248 C 0.25131 0.27365 0.90436 0.0
C249 C 0.27233 0.26532 0.81065 0.0
C250 C 0.23441 0.29408 0.93997 0.0
C251 C 0.21451 0.32012 0.921 0.0
C252 C 0.24837 0.27957 0.84959 0.0
C253 C 0.20954 0.32253 0.86602 0.0
C254 C 0.27724 0.28038 0.75775 0.0
C255 C 0.32058 0.23226 0.79357 0.0
N256 N 0.22686 0.30304 0.83235 0.0
N257 N 0.29386 0.24144 0.82681 0.0
H258 H 0.11755 0.34974 0.14234 0.0
H259 H 0.84287 0.19494 0.18995 0.0
H260 H 0.01323 0.30775 0.02024 0.0
H261 H 0.94301 0.25515 0.31763 0.0
H262 H 0.90677 0.22189 0.12713 0.0
H263 H 0.05614 0.30196 0.20655 0.0
C264 C 0.08185 0.32898 0.12891 0.0
C265 C 0.07019 0.33147 0.07621 0.0
C266 C 0.91489 0.22888 0.16891 0.0
C267 C -6e-05 0.27836 0.14875 0.0
C268 C 0.87838 0.21347 0.2049 0.0
C269 C 0.88765 0.22356 0.25907 0.0
C270 C 0.96114 0.25493 0.18702 0.0
C271 C 0.93434 0.24698 0.27614 0.0
C272 C 0.04679 0.30234 0.16548 0.0
C273 C 0.02336 0.3062 0.0607 0.0
N274 N 0.96949 0.26251 0.24006 0.0
N275 N -0.01014 0.28072 0.09687 0.0
H276 H 0.76013 0.12703 0.48526 0.0
H277 H 0.64468 0.85091 0.52217 0.0
H278 H 0.70669 0.0262 0.35833 0.0
H279 H 0.68161 0.94731 0.65346 0.0
H280 H 0.6832 0.91699 0.46198 0.0
H281 H 0.74714 0.06428 0.54737 0.0
C282 C 0.7473 0.09191 0.47039 0.0
C283 C 0.73532 0.08152 0.41693 0.0
C284 C 0.68339 0.92384 0.504 0.0
C285 C 0.71887 0.00971 0.48706 0.0
C286 C 0.66137 0.88606 0.53846 0.0
C287 C 0.65923 0.89365 0.59283 0.0
C288 C 0.70305 0.96966 0.52384 0.0
C289 C 0.68215 0.93994 0.61174 0.0
C290 C 0.73927 0.05605 0.50574 0.0
C291 C 0.71659 0.03533 0.39944 0.0
N292 N 0.70255 0.97633 0.57711 0.0
N293 N 0.70875 0.00102 0.43448 0.0
H294 H 0.64931 0.68427 0.69056 0.0
H295 H 0.73628 0.69637 0.98247 0.0
H296 H 0.6491 0.78296 0.80215 0.0
H297 H 0.78297 0.64609 0.85144 0.0
H298 H 0.70693 0.73176 0.91889 0.0
H299 H 0.6999 0.6714 0.74996 0.0
C300 C 0.66056 0.70374 0.72743 0.0
C301 C 0.64539 0.7349 0.74162 0.0
C302 C 0.7244 0.71368 0.90427 0.0
C303 C 0.70237 0.71971 0.81038 0.0
C304 C 0.74117 0.69351 0.94048 0.0
C305 C 0.76113 0.66731 0.9222 0.0
C306 C 0.72734 0.70709 0.84971 0.0
C307 C 0.76676 0.66493 0.86738 0.0
C308 C 0.68955 0.69656 0.76125 0.0
C309 C 0.6607 0.75921 0.78972 0.0
N310 N 0.74928 0.68386 0.83313 0.0
N311 N 0.68783 0.75052 0.82305 0.0
H312 H 0.03462 0.73693 0.31232 0.0
H313 H 0.95847 0.66468 0.01353 0.0
H314 H 0.13072 0.78719 0.18065 0.0
H315 H 0.85932 0.64318 0.1359 0.0
H316 H 0.02211 0.71317 0.07453 0.0
H317 H 0.9694 0.70676 0.24927 0.0
C318 C 0.04205 0.74231 0.2703 0.0
C319 C 0.08816 0.76382 0.2517 0.0
C320 C 0.98643 0.69869 0.08793 0.0
C321 C 0.014 0.72913 0.17965 0.0
C322 C 0.95023 0.67103 0.05312 0.0
C323 C 0.90384 0.65094 0.0697 0.0
C324 C 0.97607 0.70515 0.14019 0.0
C325 C 0.89466 0.65947 0.12139 0.0
C326 C 0.00483 0.72502 0.23435 0.0
C327 C 0.09575 0.76997 0.19684 0.0
N328 N 0.93055 0.68553 0.15523 0.0
N329 N 0.05909 0.75219 0.16282 0.0
H330 H 0.28667 0.03755 0.64859 0.0
H331 H 0.28969 0.96816 0.34994 0.0
H332 H 0.33408 0.13694 0.51971 0.0
H333 H 0.20473 0.86573 0.46676 0.0
H334 H 0.30297 0.0305 0.41194 0.0
H335 H 0.25148 0.97354 0.58373 0.0
C336 C 0.28895 0.04596 0.60682 0.0
C337 C 0.31416 0.09264 0.58951 0.0
C338 C 0.28059 -0.00559 0.42387 0.0
C339 C 0.27457 0.01987 0.51543 0.0
C340 C 0.27314 0.95892 0.38851 0.0
C341 C 0.24554 0.91197 0.4033 0.0
C342 C 0.26137 0.98277 0.475 0.0
C343 C 0.22516 0.90155 0.45368 0.0
C344 C 0.26893 0.00943 0.56985 0.0
C345 C 0.31588 0.1015 0.53492 0.0
N346 N 0.23404 0.93675 0.48824 0.0
N347 N 0.297 0.06548 0.49988 0.0
H348 H 0.24012 0.49368 0.64702 0.0
H349 H 0.15405 0.32054 0.39685 0.0
H350 H 0.12234 0.35285 0.65178 0.0
H351 H 0.25149 0.46916 0.38541 0.0
H352 H 0.14556 0.33022 0.49143 0.0
H353 H 0.24936 0.48351 0.55254 0.0
C354 C 0.21641 0.4605 0.62826 0.0
C355 C 0.18034 0.4241 0.65732 0.0
C356 C 0.16877 0.36071 0.46817 0.0
C357 C 0.19054 0.41228 0.54912 0.0
C358 C 0.17344 0.35528 0.414 0.0
C359 C 0.20355 0.39408 0.38279 0.0
C360 C 0.19456 0.40521 0.49161 0.0
C361 C 0.22843 0.43805 0.40781 0.0
C362 C 0.22149 0.45483 0.57425 0.0
C363 C 0.15029 0.38204 0.63078 0.0
N364 N 0.22344 0.44238 0.46064 0.0
N365 N 0.15611 0.37726 0.57826 0.0
H366 H 0.81695 0.24913 1.00611 0.0
H367 H 0.73868 0.14668 0.71229 0.0
H368 H 0.68225 0.12966 0.96849 0.0
H369 H 0.86156 0.27994 0.74586 0.0
H370 H 0.71987 0.13732 0.80681 0.0
H371 H 0.83583 0.25909 0.91169 0.0
C372 C 0.79116 0.22513 0.97813 0.0
C373 C 0.74787 0.18842 0.99567 0.0
C374 C 0.75092 0.16865 0.79352 0.0
C375 C 0.76974 0.19926 0.88719 0.0
C376 C 0.76184 0.17388 0.73956 0.0
C377 C 0.80176 0.21418 0.72102 0.0
C378 C 0.78029 0.20379 0.82946 0.0
C379 C 0.83015 0.24854 0.75823 0.0
C380 C 0.80213 0.23072 0.92414 0.0
C381 C 0.71635 0.158 0.95724 0.0
N382 N 0.81896 0.2425 0.81061 0.0
N383 N 0.72794 0.16405 0.90501 0.0
H384 H 0.59749 0.71978 0.30909 0.0
H385 H 0.53873 0.83884 0.06685 0.0
H386 H 0.51563 0.78769 0.32482 0.0
H387 H 0.61905 0.76936 0.0503 0.0
H388 H 0.53057 0.82103 0.16146 0.0
H389 H 0.60625 0.73804 0.21452 0.0
C390 C 0.58117 0.73838 0.29266 0.0
C391 C 0.55561 0.75205 0.32509 0.0
C392 C 0.55 0.80967 0.1372 0.0
C393 C 0.56586 0.77344 0.21658 0.0
C394 C 0.5549 0.82004 0.08314 0.0
C395 C 0.57982 0.80578 0.05045 0.0
C396 C 0.57022 0.78485 0.15907 0.0
C397 C 0.59918 0.78069 0.07377 0.0
C398 C 0.58638 0.74898 0.23863 0.0
C399 C 0.53603 0.77686 0.30159 0.0
N400 N 0.59407 0.77116 0.1266 0.0
N401 N 0.54145 0.78662 0.24884 0.0
H402 H 0.71579 0.53639 0.66044 0.0
H403 H 0.8478 0.6146 0.38071 0.0
H404 H 0.86207 0.58241 0.64051 0.0
H405 H 0.7034 0.57507 0.40317 0.0
H406 H 0.85359 0.6019 0.47532 0.0
H407 H 0.71074 0.55031 0.56627 0.0
C408 C 0.74698 0.54975 0.63644 0.0
C409 C 0.78945 0.5582 0.65875 0.0
C410 C 0.82066 0.59608 0.45955 0.0
C411 C 0.7837 0.57366 0.55021 0.0
C412 C 0.81725 0.60308 0.40542 0.0
C413 C 0.77507 0.59603 0.38377 0.0
C414 C 0.78156 0.58171 0.49244 0.0
C415 C 0.73684 0.58165 0.41806 0.0
C416 C 0.74398 0.55742 0.58247 0.0
C417 C 0.82841 0.57472 0.62513 0.0
N418 N 0.74099 0.57493 0.4705 0.0
N419 N 0.82459 0.58186 0.57269 0.0
H420 H 0.11397 0.78446 0.73757 0.0
H421 H 0.29708 0.80785 0.96085 0.0
H422 H 0.24232 0.78561 0.70377 0.0
H423 H 0.16515 0.79857 0.9959 0.0
H424 H 0.2784 0.80169 0.86647 0.0
H425 H 0.13276 0.79129 0.83201 0.0
C426 C 0.14606 0.78601 0.74991 0.0
C427 C 0.17651 0.78432 0.71237 0.0
C428 C 0.25348 0.80097 0.89475 0.0
C429 C 0.19849 0.79262 0.82086 0.0
C430 C 0.26424 0.80473 0.94873 0.0
C431 C 0.23273 0.8039 0.98656 0.0
C432 C 0.21089 0.79644 0.87813 0.0
C433 C 0.19033 0.79891 0.96833 0.0
C434 C 0.15685 0.79012 0.80394 0.0
C435 C 0.218 0.78736 0.73097 0.0
N436 N 0.18073 0.79551 0.91549 0.0
N437 N 0.22767 0.79126 0.78378 0.0
H438 H 0.49083 0.2951 0.30116 0.0
H439 H 0.32542 0.11464 0.07765 0.0
H440 H 0.3633 0.16653 0.33601 0.0
H441 H 0.45624 0.24011 0.04386 0.0
H442 H 0.3383 0.13323 0.17211 0.0
H443 H 0.47817 0.27594 0.20685 0.0
C444 C 0.46002 0.2629 0.28904 0.0
C445 C 0.428 0.23252 0.32686 0.0
C446 C 0.3642 0.15672 0.14405 0.0
C447 C 0.41344 0.2101 0.21837 0.0
C448 C 0.35699 0.14601 0.08998 0.0
C449 C 0.38981 0.17575 0.05237 0.0
C450 C 0.40455 0.19757 0.16103 0.0
C451 C 0.42961 0.21637 0.07106 0.0
C452 C 0.45294 0.25186 0.23507 0.0
C453 C 0.38919 0.19085 0.30854 0.0
N454 N 0.43584 0.226 0.12391 0.0
N455 N 0.38295 0.18098 0.25572 0.0
H456 H 0.1272 0.45573 0.17142 0.0
H457 H 0.24497 0.70997 0.28083 0.0
H458 H 0.21677 0.57018 0.06837 0.0
H459 H 0.09586 0.6224 0.29842 0.0
H460 H 0.24404 0.65469 0.21519 0.0
H461 H 0.12288 0.51199 0.23185 0.0
C462 C 0.14577 0.49269 0.16156 0.0
C463 C 0.17228 0.50862 0.11503 0.0
C464 C 0.21158 0.64795 0.23326 0.0
C465 C 0.16851 0.57247 0.18406 0.0
C466 C 0.212 0.67951 0.27028 0.0
C467 C 0.17025 0.67137 0.29376 0.0
C468 C 0.16942 0.60714 0.2214 0.0
C469 C 0.12873 0.63013 0.28069 0.0
C470 C 0.14315 0.52451 0.19577 0.0
C471 C 0.19572 0.55669 0.10376 0.0
N472 N 0.12937 0.59915 0.24563 0.0
N473 N 0.19395 0.58719 0.1386 0.0
H474 H 0.70917 0.23321 0.51497 0.0
H475 H 0.44551 0.10125 0.60411 0.0
H476 H 0.60193 0.14 0.40585 0.0
H477 H 0.54106 0.24459 0.64886 0.0
H478 H 0.50338 0.10556 0.53964 0.0
H479 H 0.64877 0.22831 0.57443 0.0
C480 C 0.67285 0.21158 0.50361 0.0
C481 C 0.66039 0.18701 0.45544 0.0
C482 C 0.51138 0.13597 0.56358 0.0
C483 C 0.59136 0.18087 0.52356 0.0
C484 C 0.47871 0.13346 0.60042 0.0
C485 C 0.48892 0.17257 0.63177 0.0
C486 C 0.55469 0.17746 0.55944 0.0
C487 C 0.53205 0.2137 0.62536 0.0
C488 C 0.63851 0.20903 0.53741 0.0
C489 C 0.61284 0.15969 0.44255 0.0
N490 N 0.56364 0.21492 0.5903 0.0
N491 N 0.57981 0.15692 0.47678 0.0
H492 H 0.2671 0.52947 0.94633 0.0
H493 H 0.52015 0.66883 0.83896 0.0
H494 H 0.35621 0.47007 0.96608 0.0
H495 H 0.40612 0.64269 0.73469 0.0
H496 H 0.46437 0.60733 0.89861 0.0
H497 H 0.32134 0.58352 0.88001 0.0
C498 C 0.29766 0.52732 0.93609 0.0
C499 C 0.30659 0.49448 0.96049 0.0
C500 C 0.45183 0.61496 0.86241 0.0
C501 C 0.36967 0.5576 0.88731 0.0
C502 C 0.48339 0.64995 0.82863 0.0
C503 C 0.46745 0.66049 0.78201 0.0
C504 C 0.40408 0.59172 0.85017 0.0
C505 C 0.41962 0.6352 0.77018 0.0
C506 C 0.32864 0.55831 0.89866 0.0
C507 C 0.34789 0.49464 0.9477 0.0
N508 N 0.38933 0.60237 0.80461 0.0
N509 N 0.37834 0.52618 0.91228 0.0
H510 H 0.73192 0.27628 0.28383 0.0
H511 H 0.84445 0.53118 0.17531 0.0
H512 H 0.88004 0.36884 0.30449 0.0
H513 H 0.75381 0.41494 0.07423 0.0
H514 H 0.85035 0.47608 0.23603 0.0
H515 H 0.73083 0.33064 0.21858 0.0
C516 C 0.76428 0.30766 0.27405 0.0
C517 C 0.80633 0.31751 0.29836 0.0
C518 C 0.82947 0.46291 0.20033 0.0
C519 C 0.80481 0.38071 0.22637 0.0
C520 C 0.82591 0.49409 0.16596 0.0
C521 C 0.79869 0.47735 0.11984 0.0
C522 C 0.80442 0.41478 0.18914 0.0
C523 C 0.77539 0.42911 0.10927 0.0
C524 C 0.76354 0.33872 0.23724 0.0
C525 C 0.84698 0.35979 0.28613 0.0
N526 N 0.7782 0.39929 0.14416 0.0
N527 N 0.84517 0.39024 0.25124 0.0
H528 H 0.31141 0.85448 0.50287 0.0
H529 H 0.44615 0.7369 0.61404 0.0
H530 H 0.33718 0.76542 0.4 0.0
H531 H 0.50784 0.88632 0.63356 0.0
H532 H 0.39295 0.7381 0.54723 0.0
H533 H 0.37153 0.85917 0.56404 0.0
C534 C 0.32993 0.83615 0.49314 0.0
C535 C 0.31968 0.80965 0.44645 0.0
C536 C 0.41846 0.77057 0.56597 0.0
C537 C 0.38684 0.81385 0.51637 0.0
C538 C 0.44896 0.77001 0.60368 0.0
C539 C 0.48226 0.81176 0.6281 0.0
C540 C 0.42011 0.81288 0.55431 0.0
C541 C 0.48294 0.85345 0.61514 0.0
C542 C 0.36413 0.83899 0.52781 0.0
C543 C 0.34447 0.78649 0.43547 0.0
N544 N 0.45189 0.85294 0.57939 0.0
N545 N 0.37649 0.78846 0.47073 0.0
H546 H 0.67992 0.43642 0.99001 0.0
H547 H 0.52042 0.37804 0.73667 0.0
H548 H 0.63728 0.53376 0.93774 0.0
H549 H 0.49674 0.27238 0.85281 0.0
H550 H 0.57467 0.43864 0.79885 0.0
H551 H 0.62413 0.37801 0.92784 0.0
C552 C 0.65871 0.44539 0.96536 0.0
C553 C 0.66265 0.48959 0.96907 0.0
C554 C 0.55733 0.40213 0.81048 0.0
C555 C 0.59986 0.42363 0.89752 0.0
C556 C 0.52673 0.36766 0.7751 0.0
C557 C 0.50418 0.32025 0.78974 0.0
C558 C 0.56619 0.38875 0.85994 0.0
C559 C 0.51327 0.30856 0.84007 0.0
C560 C 0.62695 0.41213 0.93014 0.0
C561 C 0.63468 0.49973 0.93624 0.0
N562 N 0.544 0.34256 0.87316 0.0
N563 N 0.60457 0.46701 0.90126 0.0
loop_
_geom_bond_atom_site_label_1
_geom_bond_atom_site_label_2
_geom_bond_distance
_geom_bond_site_symmetry_2
_ccdc_geom_bond_type
C0 Eu1 2.835 . S
C0 C2 1.500 . S
C0 O20 1.257 . S
C0 O21 1.260 . S
Eu1 C0 2.835 . S
Eu1 O20 2.473 . S
Eu1 O21 2.480 . S
Eu1 O22 2.430 . S
Eu1 O23 2.670 1_554 S
Eu1 O24 2.394 . S
Eu1 O29 2.355 . S
Eu1 O31 2.386 . S
C2 C0 1.500 . S
C2 C3 1.377 . S
C2 C7 1.377 . S
C3 C2 1.377 . S
C3 C4 1.395 . S
C3 H32 0.931 . S
C4 C3 1.395 . S
C4 C5 1.383 . S
C4 H33 0.931 . S
C5 C4 1.383 . S
C5 C6 1.394 . S
C6 C5 1.394 . S
C6 C7 1.378 . S
C6 H34 0.931 . S
C7 C2 1.377 . S
C7 C6 1.378 . S
C7 H35 0.931 . S
C8 O22 1.259 1_556 S
C8 O23 1.270 . S
C9 O24 1.251 . S
C9 O25 1.251 . S
C10 Eu11 2.835 . S
C10 C12 1.500 . S
C10 O26 1.257 . S
C10 O27 1.260 . S
Eu11 C10 2.835 . S
Eu11 O23 2.355 . S
Eu11 O25 2.374 1_556 S
Eu11 O26 2.473 . S
Eu11 O27 2.480 . S
Eu11 O28 2.430 . S
Eu11 O29 2.670 1_556 S
Eu11 O30 2.394 . S
C12 C10 1.500 . S
C12 C13 1.377 . S
C12 C17 1.377 . S
C13 C12 1.377 . S
C13 C14 1.395 . S
C13 H36 0.931 . S
C14 C13 1.395 . S
C14 C15 1.383 . S
C14 H37 0.931 . S
C15 C14 1.383 . S
C15 C16 1.394 . S
C16 C15 1.394 . S
C16 C17 1.378 . S
C16 H38 0.931 . S
C17 C12 1.377 . S
C17 C16 1.378 . S
C17 H39 0.931 . S
C18 O28 1.259 1_554 S
C18 O29 1.270 . S
C19 O30 1.251 . S
C19 O31 1.237 1_556 S
O20 C0 1.257 . S
O20 Eu1 2.473 . S
O21 C0 1.260 . S
O21 Eu1 2.480 . S
O22 Eu1 2.430 . S
O22 C8 1.259 1_554 S
O23 Eu1 2.670 1_556 S
O23 C8 1.270 . S
O23 Eu11 2.355 . S
O24 Eu1 2.394 . S
O24 C9 1.251 . S
O25 C9 1.251 . S
O25 Eu11 2.374 1_554 S
O26 C10 1.257 . S
O26 Eu11 2.473 . S
O27 C10 1.260 . S
O27 Eu11 2.480 . S
O28 Eu11 2.430 . S
O28 C18 1.259 1_556 S
O29 Eu1 2.355 . S
O29 Eu11 2.670 1_554 S
O29 C18 1.270 . S
O30 Eu11 2.394 . S
O30 C19 1.251 . S
O31 Eu1 2.386 . S
O31 C19 1.237 1_554 S
H32 C3 0.931 . S
H33 C4 0.931 . S
H34 C6 0.931 . S
H35 C7 0.931 . S
H36 C13 0.931 . S
H37 C14 0.931 . S
H38 C16 0.931 . S
H39 C17 0.931 . S
C40 Eu41 2.835 . S
C40 C42 1.500 . S
C40 O60 1.257 . S
C40 O61 1.260 . S
Eu41 C40 2.835 . S
Eu41 O60 2.473 . S
Eu41 O61 2.480 . S
Eu41 O62 2.430 . S
Eu41 O63 2.670 . S
Eu41 O64 2.394 . S
Eu41 O69 2.355 . S
Eu41 O71 2.374 . S
C42 C40 1.500 . S
C42 C43 1.377 . S
C42 C47 1.377 . S
C43 C42 1.377 . S
C43 C44 1.395 . S
C43 H72 0.931 . S
C44 C43 1.395 . S
C44 C45 1.383 . S
C44 H73 0.931 . S
C45 C44 1.383 . S
C45 C46 1.394 . S
C46 C45 1.394 . S
C46 C47 1.378 . S
C46 H74 0.931 . S
C47 C42 1.377 . S
C47 C46 1.378 . S
C47 H75 0.931 . S
C48 O62 1.259 . S
C48 O63 1.270 . S
C49 O64 1.251 . S
C49 O65 1.251 . S
C50 Eu51 2.835 . S
C50 C52 1.500 . S
C50 O66 1.257 . S
C50 O67 1.260 . S
Eu51 C50 2.835 . S
Eu51 O63 2.355 . S
Eu51 O65 2.374 . S
Eu51 O66 2.473 . S
Eu51 O67 2.480 . S
Eu51 O68 2.430 . S
Eu51 O69 2.670 . S
Eu51 O70 2.394 . S
C52 C50 1.500 . S
C52 C53 1.377 . S
C52 C57 1.377 . S
C53 C52 1.377 . S
C53 C54 1.395 . S
C53 H76 0.931 . S
C54 C53 1.395 . S
C54 C55 1.383 . S
C54 H77 0.931 . S
C55 C54 1.383 . S
C55 C56 1.394 . S
C56 C55 1.394 . S
C56 C57 1.378 . S
C56 H78 0.931 . S
C57 C52 1.377 . S
C57 C56 1.378 . S
C57 H79 0.931 . S
C58 O68 1.259 . S
C58 O69 1.270 . S
C59 O70 1.251 . S
C59 O71 1.251 . S
O60 C40 1.257 . S
O60 Eu41 2.473 . S
O61 C40 1.260 . S
O61 Eu41 2.480 . S
O62 Eu41 2.430 . S
O62 C48 1.259 . S
O63 Eu41 2.670 . S
O63 C48 1.270 . S
O63 Eu51 2.355 . S
O64 Eu41 2.394 . S
O64 C49 1.251 . S
O65 C49 1.251 . S
O65 Eu51 2.374 . S
O66 C50 1.257 . S
O66 Eu51 2.473 . S
O67 C50 1.260 . S
O67 Eu51 2.480 . S
O68 Eu51 2.430 . S
O68 C58 1.259 . S
O69 Eu41 2.355 . S
O69 Eu51 2.670 . S
O69 C58 1.270 . S
O70 Eu51 2.394 . S
O70 C59 1.251 . S
O71 Eu41 2.374 . S
O71 C59 1.251 . S
H72 C43 0.931 . S
H73 C44 0.931 . S
H74 C46 0.931 . S
H75 C47 0.931 . S
H76 C53 0.931 . S
H77 C54 0.931 . S
H78 C56 0.931 . S
H79 C57 0.931 . S
C80 Eu81 2.835 . S
C80 C82 1.500 . S
C80 O100 1.257 . S
C80 O101 1.260 . S
Eu81 C80 2.835 . S
Eu81 O100 2.473 . S
Eu81 O101 2.480 . S
Eu81 O102 2.430 . S
Eu81 O103 2.670 . S
Eu81 O104 2.394 . S
Eu81 O109 2.355 . S
Eu81 O111 2.374 . S
C82 C80 1.500 . S
C82 C83 1.377 . S
C82 C87 1.377 . S
C83 C82 1.377 . S
C83 C84 1.395 . S
C83 H112 0.931 . S
C84 C83 1.395 . S
C84 C85 1.383 1_556 S
C84 H113 0.931 . S
C85 C84 1.383 1_554 S
C85 C86 1.394 1_554 S
C86 C85 1.394 1_556 S
C86 C87 1.378 . S
C86 H114 0.931 1_556 S
C87 C82 1.377 . S
C87 C86 1.378 . S
C87 H115 0.931 . S
C88 O102 1.259 . S
C88 O103 1.270 . S
C89 O104 1.251 . S
C89 O105 1.251 . S
C90 Eu91 2.835 . S
C90 C92 1.500 . S
C90 O106 1.257 . S
C90 O107 1.260 . S
Eu91 C90 2.835 . S
Eu91 O103 2.355 . S
Eu91 O105 2.374 . S
Eu91 O106 2.473 . S
Eu91 O107 2.480 . S
Eu91 O108 2.430 . S
Eu91 O109 2.670 . S
Eu91 O110 2.394 . S
C92 C90 1.500 . S
C92 C93 1.377 . S
C92 C97 1.377 . S
C93 C92 1.377 . S
C93 C94 1.395 . S
C93 H116 0.931 . S
C94 C93 1.395 . S
C94 C95 1.383 . S
C94 H117 0.931 . S
C95 C94 1.383 . S
C95 C96 1.394 . S
C96 C95 1.394 . S
C96 C97 1.378 . S
C96 H118 0.931 . S
C97 C92 1.377 . S
C97 C96 1.378 . S
C97 H119 0.931 . S
C98 O108 1.259 . S
C98 O109 1.270 . S
C99 O110 1.251 . S
C99 O111 1.251 . S
O100 C80 1.257 . S
O100 Eu81 2.473 . S
O101 C80 1.260 . S
O101 Eu81 2.480 . S
O102 Eu81 2.430 . S
O102 C88 1.259 . S
O103 Eu81 2.670 . S
O103 C88 1.270 . S
O103 Eu91 2.355 . S
O104 Eu81 2.394 . S
O104 C89 1.251 . S
O105 C89 1.251 . S
O105 Eu91 2.374 . S
O106 C90 1.257 . S
O106 Eu91 2.473 . S
O107 C90 1.260 . S
O107 Eu91 2.480 . S
O108 Eu91 2.430 . S
O108 C98 1.259 . S
O109 Eu81 2.355 . S
O109 Eu91 2.670 . S
O109 C98 1.270 . S
O110 Eu91 2.394 . S
O110 C99 1.251 . S
O111 Eu81 2.374 . S
O111 C99 1.251 . S
H112 C83 0.931 . S
H113 C84 0.931 . S
H114 C86 0.931 1_554 S
H115 C87 0.931 . S
H116 C93 0.931 . S
H117 C94 0.931 . S
H118 C96 0.931 . S
H119 C97 0.931 . S
C120 Eu121 2.835 . S
C120 C122 1.500 . S
C120 O140 1.257 . S
C120 O141 1.260 . S
Eu121 C120 2.835 . S
Eu121 O140 2.473 . S
Eu121 O141 2.480 . S
Eu121 O142 2.430 . S
Eu121 O143 2.670 1_554 S
Eu121 O144 2.394 . S
Eu121 O149 2.355 . S
Eu121 O151 2.386 . S
C122 C120 1.500 . S
C122 C123 1.377 . S
C122 C127 1.377 . S
C123 C122 1.377 . S
C123 C124 1.395 . S
C123 H152 0.931 . S
C124 C123 1.395 . S
C124 C125 1.383 . S
C124 H153 0.931 . S
C125 C124 1.383 . S
C125 C126 1.394 . S
C126 C125 1.394 . S
C126 C127 1.378 . S
C126 H154 0.931 . S
C127 C122 1.377 . S
C127 C126 1.378 . S
C127 H155 0.931 . S
C128 O142 1.259 1_556 S
C128 O143 1.270 . S
C129 O144 1.251 . S
C129 O145 1.251 . S
C130 Eu131 2.835 . S
C130 C132 1.500 . S
C130 O146 1.257 . S
C130 O147 1.260 . S
Eu131 C130 2.835 . S
Eu131 O143 2.355 . S
Eu131 O145 2.374 1_556 S
Eu131 O146 2.473 . S
Eu131 O147 2.480 . S
Eu131 O148 2.430 . S
Eu131 O149 2.670 1_556 S
Eu131 O150 2.394 . S
C132 C130 1.500 . S
C132 C133 1.377 . S
C132 C137 1.377 . S
C133 C132 1.377 . S
C133 C134 1.395 . S
C133 H156 0.931 . S
C134 C133 1.395 . S
C134 C135 1.383 . S
C134 H157 0.931 . S
C135 C134 1.383 . S
C135 C136 1.394 . S
C136 C135 1.394 . S
C136 C137 1.378 . S
C136 H158 0.931 . S
C137 C132 1.377 . S
C137 C136 1.378 . S
C137 H159 0.931 . S
C138 O148 1.259 1_554 S
C138 O149 1.270 . S
C139 O150 1.251 . S
C139 O151 1.237 1_556 S
O140 C120 1.257 . S
O140 Eu121 2.473 . S
O141 C120 1.260 . S
O141 Eu121 2.480 . S
O142 Eu121 2.430 . S
O142 C128 1.259 1_554 S
O143 Eu121 2.670 1_556 S
O143 C128 1.270 . S
O143 Eu131 2.355 . S
O144 Eu121 2.394 . S
O144 C129 1.251 . S
O145 C129 1.251 . S
O145 Eu131 2.374 1_554 S
O146 C130 1.257 . S
O146 Eu131 2.473 . S
O147 C130 1.260 . S
O147 Eu131 2.480 . S
O148 Eu131 2.430 . S
O148 C138 1.259 1_556 S
O149 Eu121 2.355 . S
O149 Eu131 2.670 1_554 S
O149 C138 1.270 . S
O150 Eu131 2.394 . S
O150 C139 1.251 . S
O151 Eu121 2.386 . S
O151 C139 1.237 1_554 S
H152 C123 0.931 . S
H153 C124 0.931 . S
H154 C126 0.931 . S
H155 C127 0.931 . S
H156 C133 0.931 . S
H157 C134 0.931 . S
H158 C136 0.931 . S
H159 C137 0.931 . S
C160 Eu161 2.835 . S
C160 C162 1.500 . S
C160 O180 1.257 . S
C160 O181 1.260 . S
Eu161 C160 2.835 . S
Eu161 O180 2.473 . S
Eu161 O181 2.480 . S
Eu161 O182 2.430 . S
Eu161 O183 2.670 . S
Eu161 O184 2.394 . S
Eu161 O189 2.355 . S
Eu161 O191 2.374 . S
C162 C160 1.500 . S
C162 C163 1.377 . S
C162 C167 1.377 . S
C163 C162 1.377 . S
C163 C164 1.395 . S
C163 H192 0.931 . S
C164 C163 1.395 . S
C164 C165 1.383 . S
C164 H193 0.931 . S
C165 C164 1.383 . S
C165 C166 1.394 . S
C166 C165 1.394 . S
C166 C167 1.378 . S
C166 H194 0.931 . S
C167 C162 1.377 . S
C167 C166 1.378 . S
C167 H195 0.931 . S
C168 O182 1.259 . S
C168 O183 1.270 . S
C169 O184 1.251 . S
C169 O185 1.251 . S
C170 Eu171 2.835 . S
C170 C172 1.500 . S
C170 O186 1.257 . S
C170 O187 1.260 . S
Eu171 C170 2.835 . S
Eu171 O183 2.355 . S
Eu171 O185 2.374 . S
Eu171 O186 2.473 . S
Eu171 O187 2.480 . S
Eu171 O188 2.430 . S
Eu171 O189 2.670 . S
Eu171 O190 2.394 . S
C172 C170 1.500 . S
C172 C173 1.377 . S
C172 C177 1.377 . S
C173 C172 1.377 . S
C173 C174 1.395 . S
C173 H196 0.931 . S
C174 C173 1.395 . S
C174 C175 1.383 . S
C174 H197 0.931 . S
C175 C174 1.383 . S
C175 C176 1.394 . S
C176 C175 1.394 . S
C176 C177 1.378 . S
C176 H198 0.931 . S
C177 C172 1.377 . S
C177 C176 1.378 . S
C177 H199 0.931 . S
C178 O188 1.259 . S
C178 O189 1.270 . S
C179 O190 1.251 . S
C179 O191 1.251 . S
O180 C160 1.257 . S
O180 Eu161 2.473 . S
O181 C160 1.260 . S
O181 Eu161 2.480 . S
O182 Eu161 2.430 . S
O182 C168 1.259 . S
O183 Eu161 2.670 . S
O183 C168 1.270 . S
O183 Eu171 2.355 . S
O184 Eu161 2.394 . S
O184 C169 1.251 . S
O185 C169 1.251 . S
O185 Eu171 2.374 . S
O186 C170 1.257 . S
O186 Eu171 2.473 . S
O187 C170 1.260 . S
O187 Eu171 2.480 . S
O188 Eu171 2.430 . S
O188 C178 1.259 . S
O189 Eu161 2.355 . S
O189 Eu171 2.670 . S
O189 C178 1.270 . S
O190 Eu171 2.394 . S
O190 C179 1.251 . S
O191 Eu161 2.374 . S
O191 C179 1.251 . S
H192 C163 0.931 . S
H193 C164 0.931 . S
H194 C166 0.931 . S
H195 C167 0.931 . S
H196 C173 0.931 . S
H197 C174 0.931 . S
H198 C176 0.931 . S
H199 C177 0.931 . S
C200 Eu201 2.835 . S
C200 C202 1.500 . S
C200 O220 1.257 . S
C200 O221 1.260 . S
Eu201 C200 2.835 . S
Eu201 O220 2.473 . S
Eu201 O221 2.480 . S
Eu201 O222 2.430 . S
Eu201 O223 2.670 . S
Eu201 O224 2.394 . S
Eu201 O229 2.355 . S
Eu201 O231 2.374 . S
C202 C200 1.500 . S
C202 C203 1.377 . S
C202 C207 1.377 . S
C203 C202 1.377 . S
C203 C204 1.395 . S
C203 H232 0.931 . S
C204 C203 1.395 . S
C204 C205 1.383 1_556 S
C204 H233 0.931 . S
C205 C204 1.383 1_554 S
C205 C206 1.394 1_554 S
C206 C205 1.394 1_556 S
C206 C207 1.378 . S
C206 H234 0.931 1_556 S
C207 C202 1.377 . S
C207 C206 1.378 . S
C207 H235 0.931 . S
C208 O222 1.259 . S
C208 O223 1.270 . S
C209 O224 1.251 . S
C209 O225 1.251 . S
C210 Eu211 2.835 . S
C210 C212 1.500 . S
C210 O226 1.257 . S
C210 O227 1.260 . S
Eu211 C210 2.835 . S
Eu211 O223 2.355 . S
Eu211 O225 2.374 . S
Eu211 O226 2.473 . S
Eu211 O227 2.480 . S
Eu211 O228 2.430 . S
Eu211 O229 2.670 . S
Eu211 O230 2.394 . S
C212 C210 1.500 . S
C212 C213 1.377 . S
C212 C217 1.377 . S
C213 C212 1.377 . S
C213 C214 1.395 . S
C213 H236 0.931 . S
C214 C213 1.395 . S
C214 C215 1.383 . S
C214 H237 0.931 . S
C215 C214 1.383 . S
C215 C216 1.394 . S
C216 C215 1.394 . S
C216 C217 1.378 . S
C216 H238 0.931 . S
C217 C212 1.377 . S
C217 C216 1.378 . S
C217 H239 0.931 . S
C218 O228 1.259 . S
C218 O229 1.270 . S
C219 O230 1.251 . S
C219 O231 1.251 . S
O220 C200 1.257 . S
O220 Eu201 2.473 . S
O221 C200 1.260 . S
O221 Eu201 2.480 . S
O222 Eu201 2.430 . S
O222 C208 1.259 . S
O223 Eu201 2.670 . S
O223 C208 1.270 . S
O223 Eu211 2.355 . S
O224 Eu201 2.394 . S
O224 C209 1.251 . S
O225 C209 1.251 . S
O225 Eu211 2.374 . S
O226 C210 1.257 . S
O226 Eu211 2.473 . S
O227 C210 1.260 . S
O227 Eu211 2.480 . S
O228 Eu211 2.430 . S
O228 C218 1.259 . S
O229 Eu201 2.355 . S
O229 Eu211 2.670 . S
O229 C218 1.270 . S
O230 Eu211 2.394 . S
O230 C219 1.251 . S
O231 Eu201 2.374 . S
O231 C219 1.251 . S
H232 C203 0.931 . S
H233 C204 0.931 . S
H234 C206 0.931 1_554 S
H235 C207 0.931 . S
H236 C213 0.931 . S
H237 C214 0.931 . S
H238 C216 0.931 . S
H239 C217 0.931 . S
H240 C246 0.930 . S
H241 C250 0.930 . S
H242 C255 0.929 . S
H243 C253 0.929 . S
H244 C248 0.929 . S
H245 C254 0.929 . S
C246 H240 0.930 . S
C246 C247 1.367 . S
C246 C254 1.378 . S
C247 C246 1.367 . S
C247 C255 1.433 . S
C248 H244 0.929 . S
C248 C250 1.378 . S
C248 C252 1.350 . S
C249 C252 1.463 . S
C249 C254 1.350 . S
C249 N257 1.427 . S
C250 H241 0.930 . S
C250 C248 1.378 . S
C250 C251 1.367 . S
C251 C250 1.367 . S
C251 C253 1.433 . S
C252 C248 1.350 . S
C252 C249 1.463 . S
C252 N256 1.427 . S
C253 H243 0.929 . S
C253 C251 1.433 . S
C253 N256 1.384 . S
C254 H245 0.929 . S
C254 C246 1.378 . S
C254 C249 1.350 . S
C255 H242 0.929 . S
C255 C247 1.433 . S
C255 N257 1.384 . S
N256 C252 1.427 . S
N256 C253 1.384 . S
N257 C249 1.427 . S
N257 C255 1.384 . S
H258 C264 0.930 . S
H259 C268 0.930 . S
H260 C273 0.929 . S
H261 C271 0.929 . S
H262 C266 0.929 . S
H263 C272 0.929 . S
C264 H258 0.930 . S
C264 C265 1.367 . S
C264 C272 1.378 . S
C265 C264 1.367 . S
C265 C273 1.433 . S
C266 H262 0.929 . S
C266 C268 1.378 . S
C266 C270 1.350 . S
C267 C270 1.463 1_455 S
C267 C272 1.350 . S
C267 N275 1.427 . S
C268 H259 0.930 . S
C268 C266 1.378 . S
C268 C269 1.367 . S
C269 C268 1.367 . S
C269 C271 1.433 . S
C270 C266 1.350 . S
C270 C267 1.463 1_655 S
C270 N274 1.427 . S
C271 H261 0.929 . S
C271 C269 1.433 . S
C271 N274 1.384 . S
C272 H263 0.929 . S
C272 C264 1.378 . S
C272 C267 1.350 . S
C273 H260 0.929 . S
C273 C265 1.433 . S
C273 N275 1.384 . S
N274 C270 1.427 . S
N274 C271 1.384 . S
N275 C267 1.427 . S
N275 C273 1.384 . S
H276 C282 0.930 . S
H277 C286 0.930 . S
H278 C291 0.929 . S
H279 C289 0.929 . S
H280 C284 0.929 . S
H281 C290 0.929 . S
C282 H276 0.930 . S
C282 C283 1.367 . S
C282 C290 1.378 . S
C283 C282 1.367 . S
C283 C291 1.433 . S
C284 H280 0.929 . S
C284 C286 1.378 . S
C284 C288 1.350 . S
C285 C288 1.463 1_545 S
C285 C290 1.350 . S
C285 N293 1.427 . S
C286 H277 0.930 . S
C286 C284 1.378 . S
C286 C287 1.367 . S
C287 C286 1.367 . S
C287 C289 1.433 . S
C288 C284 1.350 . S
C288 C285 1.463 1_565 S
C288 N292 1.427 . S
C289 H279 0.929 . S
C289 C287 1.433 . S
C289 N292 1.384 . S
C290 H281 0.929 . S
C290 C282 1.378 . S
C290 C285 1.350 . S
C291 H278 0.929 . S
C291 C283 1.433 . S
C291 N293 1.384 . S
N292 C288 1.427 . S
N292 C289 1.384 . S
N293 C285 1.427 . S
N293 C291 1.384 . S
H294 C300 0.930 . S
H295 C304 0.930 . S
H296 C309 0.929 . S
H297 C307 0.929 . S
H298 C302 0.929 . S
H299 C308 0.929 . S
C300 H294 0.930 . S
C300 C301 1.367 . S
C300 C308 1.378 . S
C301 C300 1.367 . S
C301 C309 1.433 . S
C302 H298 0.929 . S
C302 C304 1.378 . S
C302 C306 1.350 . S
C303 C306 1.463 . S
C303 C308 1.350 . S
C303 N311 1.427 . S
C304 H295 0.930 . S
C304 C302 1.378 . S
C304 C305 1.367 . S
C305 C304 1.367 . S
C305 C307 1.433 . S
C306 C302 1.350 . S
C306 C303 1.463 . S
C306 N310 1.427 . S
C307 H297 0.929 . S
C307 C305 1.433 . S
C307 N310 1.384 . S
C308 H299 0.929 . S
C308 C300 1.378 . S
C308 C303 1.350 . S
C309 H296 0.929 . S
C309 C301 1.433 . S
C309 N311 1.384 . S
N310 C306 1.427 . S
N310 C307 1.384 . S
N311 C303 1.427 . S
N311 C309 1.384 . S
H312 C318 0.930 . S
H313 C322 0.930 . S
H314 C327 0.929 . S
H315 C325 0.929 . S
H316 C320 0.929 1_455 S
H317 C326 0.929 1_655 S
C318 H312 0.930 . S
C318 C319 1.367 . S
C318 C326 1.378 . S
C319 C318 1.367 . S
C319 C327 1.433 . S
C320 H316 0.929 1_655 S
C320 C322 1.378 . S
C320 C324 1.350 . S
C321 C324 1.463 1_455 S
C321 C326 1.350 . S
C321 N329 1.427 . S
C322 H313 0.930 . S
C322 C320 1.378 . S
C322 C323 1.367 . S
C323 C322 1.367 . S
C323 C325 1.433 . S
C324 C320 1.350 . S
C324 C321 1.463 1_655 S
C324 N328 1.427 . S
C325 H315 0.929 . S
C325 C323 1.433 . S
C325 N328 1.384 . S
C326 H317 0.929 1_455 S
C326 C318 1.378 . S
C326 C321 1.350 . S
C327 H314 0.929 . S
C327 C319 1.433 . S
C327 N329 1.384 . S
N328 C324 1.427 . S
N328 C325 1.384 . S
N329 C321 1.427 . S
N329 C327 1.384 . S
H330 C336 0.930 . S
H331 C340 0.930 . S
H332 C345 0.929 . S
H333 C343 0.929 . S
H334 C338 0.929 1_545 S
H335 C344 0.929 1_565 S
C336 H330 0.930 . S
C336 C337 1.367 . S
C336 C344 1.378 . S
C337 C336 1.367 . S
C337 C345 1.433 . S
C338 H334 0.929 1_565 S
C338 C340 1.378 . S
C338 C342 1.350 . S
C339 C342 1.463 1_545 S
C339 C344 1.350 . S
C339 N347 1.427 . S
C340 H331 0.930 . S
C340 C338 1.378 . S
C340 C341 1.367 . S
C341 C340 1.367 . S
C341 C343 1.433 . S
C342 C338 1.350 . S
C342 C339 1.463 1_565 S
C342 N346 1.427 . S
C343 H333 0.929 . S
C343 C341 1.433 . S
C343 N346 1.384 . S
C344 H335 0.929 1_545 S
C344 C336 1.378 . S
C344 C339 1.350 . S
C345 H332 0.929 . S
C345 C337 1.433 . S
C345 N347 1.384 . S
N346 C342 1.427 . S
N346 C343 1.384 . S
N347 C339 1.427 . S
N347 C345 1.384 . S
H348 C354 0.930 . S
H349 C358 0.930 . S
H350 C363 0.929 . S
H351 C361 0.929 . S
H352 C356 0.929 . S
H353 C362 0.929 . S
C354 H348 0.930 . S
C354 C355 1.367 . S
C354 C362 1.378 . S
C355 C354 1.367 . S
C355 C363 1.433 . S
C356 H352 0.929 . S
C356 C358 1.378 . S
C356 C360 1.350 . S
C357 C360 1.463 . S
C357 C362 1.350 . S
C357 N365 1.427 . S
C358 H349 0.930 . S
C358 C356 1.378 . S
C358 C359 1.367 . S
C359 C358 1.367 . S
C359 C361 1.433 . S
C360 C356 1.350 . S
C360 C357 1.463 . S
C360 N364 1.427 . S
C361 H351 0.929 . S
C361 C359 1.433 . S
C361 N364 1.384 . S
C362 H353 0.929 . S
C362 C354 1.378 . S
C362 C357 1.350 . S
C363 H350 0.929 . S
C363 C355 1.433 . S
C363 N365 1.384 . S
N364 C360 1.427 . S
N364 C361 1.384 . S
N365 C357 1.427 . S
N365 C363 1.384 . S
H366 C372 0.930 . S
H367 C376 0.930 . S
H368 C381 0.929 . S
H369 C379 0.929 . S
H370 C374 0.929 . S
H371 C380 0.929 . S
C372 H366 0.930 . S
C372 C373 1.367 . S
C372 C380 1.378 . S
C373 C372 1.367 . S
C373 C381 1.433 . S
C374 H370 0.929 . S
C374 C376 1.378 . S
C374 C378 1.350 . S
C375 C378 1.463 . S
C375 C380 1.350 . S
C375 N383 1.427 . S
C376 H367 0.930 . S
C376 C374 1.378 . S
C376 C377 1.367 . S
C377 C376 1.367 . S
C377 C379 1.433 . S
C378 C374 1.350 . S
C378 C375 1.463 . S
C378 N382 1.427 . S
C379 H369 0.929 . S
C379 C377 1.433 . S
C379 N382 1.384 . S
C380 H371 0.929 . S
C380 C372 1.378 . S
C380 C375 1.350 . S
C381 H368 0.929 . S
C381 C373 1.433 . S
C381 N383 1.384 . S
N382 C378 1.427 . S
N382 C379 1.384 . S
N383 C375 1.427 . S
N383 C381 1.384 . S
H384 C390 0.930 . S
H385 C394 0.930 . S
H386 C399 0.929 . S
H387 C397 0.929 . S
H388 C392 0.929 . S
H389 C398 0.929 . S
C390 H384 0.930 . S
C390 C391 1.367 . S
C390 C398 1.378 . S
C391 C390 1.367 . S
C391 C399 1.433 . S
C392 H388 0.929 . S
C392 C394 1.378 . S
C392 C396 1.350 . S
C393 C396 1.463 . S
C393 C398 1.350 . S
C393 N401 1.427 . S
C394 H385 0.930 . S
C394 C392 1.378 . S
C394 C395 1.367 . S
C395 C394 1.367 . S
C395 C397 1.433 . S
C396 C392 1.350 . S
C396 C393 1.463 . S
C396 N400 1.427 . S
C397 H387 0.929 . S
C397 C395 1.433 . S
C397 N400 1.384 . S
C398 H389 0.929 . S
C398 C390 1.378 . S
C398 C393 1.350 . S
C399 H386 0.929 . S
C399 C391 1.433 . S
C399 N401 1.384 . S
N400 C396 1.427 . S
N400 C397 1.384 . S
N401 C393 1.427 . S
N401 C399 1.384 . S
H402 C408 0.930 . S
H403 C412 0.930 . S
H404 C417 0.929 . S
H405 C415 0.929 . S
H406 C410 0.929 . S
H407 C416 0.929 . S
C408 H402 0.930 . S
C408 C409 1.367 . S
C408 C416 1.378 . S
C409 C408 1.367 . S
C409 C417 1.433 . S
C410 H406 0.929 . S
C410 C412 1.378 . S
C410 C414 1.350 . S
C411 C414 1.463 . S
C411 C416 1.350 . S
C411 N419 1.427 . S
C412 H403 0.930 . S
C412 C410 1.378 . S
C412 C413 1.367 . S
C413 C412 1.367 . S
C413 C415 1.433 . S
C414 C410 1.350 . S
C414 C411 1.463 . S
C414 N418 1.427 . S
C415 H405 0.929 . S
C415 C413 1.433 . S
C415 N418 1.384 . S
C416 H407 0.929 . S
C416 C408 1.378 . S
C416 C411 1.350 . S
C417 H404 0.929 . S
C417 C409 1.433 . S
C417 N419 1.384 . S
N418 C414 1.427 . S
N418 C415 1.384 . S
N419 C411 1.427 . S
N419 C417 1.384 . S
H420 C426 0.930 . S
H421 C430 0.930 . S
H422 C435 0.929 . S
H423 C433 0.929 . S
H424 C428 0.929 . S
H425 C434 0.929 . S
C426 H420 0.930 . S
C426 C427 1.367 . S
C426 C434 1.378 . S
C427 C426 1.367 . S
C427 C435 1.433 . S
C428 H424 0.929 . S
C428 C430 1.378 . S
C428 C432 1.350 . S
C429 C432 1.463 . S
C429 C434 1.350 . S
C429 N437 1.427 . S
C430 H421 0.930 . S
C430 C428 1.378 . S
C430 C431 1.367 . S
C431 C430 1.367 . S
C431 C433 1.433 . S
C432 C428 1.350 . S
C432 C429 1.463 . S
C432 N436 1.427 . S
C433 H423 0.929 . S
C433 C431 1.433 . S
C433 N436 1.384 . S
C434 H425 0.929 . S
C434 C426 1.378 . S
C434 C429 1.350 . S
C435 H422 0.929 . S
C435 C427 1.433 . S
C435 N437 1.384 . S
N436 C432 1.427 . S
N436 C433 1.384 . S
N437 C429 1.427 . S
N437 C435 1.384 . S
H438 C444 0.930 . S
H439 C448 0.930 . S
H440 C453 0.929 . S
H441 C451 0.929 . S
H442 C446 0.929 . S
H443 C452 0.929 . S
C444 H438 0.930 . S
C444 C445 1.367 . S
C444 C452 1.378 . S
C445 C444 1.367 . S
C445 C453 1.433 . S
C446 H442 0.929 . S
C446 C448 1.378 . S
C446 C450 1.350 . S
C447 C450 1.463 . S
C447 C452 1.350 . S
C447 N455 1.427 . S
C448 H439 0.930 . S
C448 C446 1.378 . S
C448 C449 1.367 . S
C449 C448 1.367 . S
C449 C451 1.433 . S
C450 C446 1.350 . S
C450 C447 1.463 . S
C450 N454 1.427 . S
C451 H441 0.929 . S
C451 C449 1.433 . S
C451 N454 1.384 . S
C452 H443 0.929 . S
C452 C444 1.378 . S
C452 C447 1.350 . S
C453 H440 0.929 . S
C453 C445 1.433 . S
C453 N455 1.384 . S
N454 C450 1.427 . S
N454 C451 1.384 . S
N455 C447 1.427 . S
N455 C453 1.384 . S
H456 C462 0.930 . S
H457 C466 0.930 . S
H458 C471 0.929 . S
H459 C469 0.929 . S
H460 C464 0.929 . S
H461 C470 0.929 . S
C462 H456 0.930 . S
C462 C463 1.367 . S
C462 C470 1.378 . S
C463 C462 1.367 . S
C463 C471 1.433 . S
C464 H460 0.929 . S
C464 C466 1.378 . S
C464 C468 1.350 . S
C465 C468 1.463 . S
C465 C470 1.350 . S
C465 N473 1.427 . S
C466 H457 0.930 . S
C466 C464 1.378 . S
C466 C467 1.367 . S
C467 C466 1.367 . S
C467 C469 1.433 . S
C468 C464 1.350 . S
C468 C465 1.463 . S
C468 N472 1.427 . S
C469 H459 0.929 . S
C469 C467 1.433 . S
C469 N472 1.384 . S
C470 H461 0.929 . S
C470 C462 1.378 . S
C470 C465 1.350 . S
C471 H458 0.929 . S
C471 C463 1.433 . S
C471 N473 1.384 . S
N472 C468 1.427 . S
N472 C469 1.384 . S
N473 C465 1.427 . S
N473 C471 1.384 . S
H474 C480 0.930 . S
H475 C484 0.930 . S
H476 C489 0.929 . S
H477 C487 0.929 . S
H478 C482 0.929 . S
H479 C488 0.929 . S
C480 H474 0.930 . S
C480 C481 1.367 . S
C480 C488 1.378 . S
C481 C480 1.367 . S
C481 C489 1.433 . S
C482 H478 0.929 . S
C482 C484 1.378 . S
C482 C486 1.350 . S
C483 C486 1.463 . S
C483 C488 1.350 . S
C483 N491 1.427 . S
C484 H475 0.930 . S
C484 C482 1.378 . S
C484 C485 1.367 . S
C485 C484 1.367 . S
C485 C487 1.433 . S
C486 C482 1.350 . S
C486 C483 1.463 . S
C486 N490 1.427 . S
C487 H477 0.929 . S
C487 C485 1.433 . S
C487 N490 1.384 . S
C488 H479 0.929 . S
C488 C480 1.378 . S
C488 C483 1.350 . S
C489 H476 0.929 . S
C489 C481 1.433 . S
C489 N491 1.384 . S
N490 C486 1.427 . S
N490 C487 1.384 . S
N491 C483 1.427 . S
N491 C489 1.384 . S
H492 C498 0.930 . S
H493 C502 0.930 . S
H494 C507 0.929 . S
H495 C505 0.929 . S
H496 C500 0.929 . S
H497 C506 0.929 . S
C498 H492 0.930 . S
C498 C499 1.367 . S
C498 C506 1.378 . S
C499 C498 1.367 . S
C499 C507 1.433 . S
C500 H496 0.929 . S
C500 C502 1.378 . S
C500 C504 1.350 . S
C501 C504 1.463 . S
C501 C506 1.350 . S
C501 N509 1.427 . S
C502 H493 0.930 . S
C502 C500 1.378 . S
C502 C503 1.367 . S
C503 C502 1.367 . S
C503 C505 1.433 . S
C504 C500 1.350 . S
C504 C501 1.463 . S
C504 N508 1.427 . S
C505 H495 0.929 . S
C505 C503 1.433 . S
C505 N508 1.384 . S
C506 H497 0.929 . S
C506 C498 1.378 . S
C506 C501 1.350 . S
C507 H494 0.929 . S
C507 C499 1.433 . S
C507 N509 1.384 . S
N508 C504 1.427 . S
N508 C505 1.384 . S
N509 C501 1.427 . S
N509 C507 1.384 . S
H510 C516 0.930 . S
H511 C520 0.930 . S
H512 C525 0.929 . S
H513 C523 0.929 . S
H514 C518 0.929 . S
H515 C524 0.929 . S
C516 H510 0.930 . S
C516 C517 1.367 . S
C516 C524 1.378 . S
C517 C516 1.367 . S
C517 C525 1.433 . S
C518 H514 0.929 . S
C518 C520 1.378 . S
C518 C522 1.350 . S
C519 C522 1.463 . S
C519 C524 1.350 . S
C519 N527 1.427 . S
C520 H511 0.930 . S
C520 C518 1.378 . S
C520 C521 1.367 . S
C521 C520 1.367 . S
C521 C523 1.433 . S
C522 C518 1.350 . S
C522 C519 1.463 . S
C522 N526 1.427 . S
C523 H513 0.929 . S
C523 C521 1.433 . S
C523 N526 1.384 . S
C524 H515 0.929 . S
C524 C516 1.378 . S
C524 C519 1.350 . S
C525 H512 0.929 . S
C525 C517 1.433 . S
C525 N527 1.384 . S
N526 C522 1.427 . S
N526 C523 1.384 . S
N527 C519 1.427 . S
N527 C525 1.384 . S
H528 C534 0.930 . S
H529 C538 0.930 . S
H530 C543 0.929 . S
H531 C541 0.929 . S
H532 C536 0.929 . S
H533 C542 0.929 . S
C534 H528 0.930 . S
C534 C535 1.367 . S
C534 C542 1.378 . S
C535 C534 1.367 . S
C535 C543 1.433 . S
C536 H532 0.929 . S
C536 C538 1.378 . S
C536 C540 1.350 . S
C537 C540 1.463 . S
C537 C542 1.350 . S
C537 N545 1.427 . S
C538 H529 0.930 . S
C538 C536 1.378 . S
C538 C539 1.367 . S
C539 C538 1.367 . S
C539 C541 1.433 . S
C540 C536 1.350 . S
C540 C537 1.463 . S
C540 N544 1.427 . S
C541 H531 0.929 . S
C541 C539 1.433 . S
C541 N544 1.384 . S
C542 H533 0.929 . S
C542 C534 1.378 . S
C542 C537 1.350 . S
C543 H530 0.929 . S
C543 C535 1.433 . S
C543 N545 1.384 . S
N544 C540 1.427 . S
N544 C541 1.384 . S
N545 C537 1.427 . S
N545 C543 1.384 . S
H546 C552 0.930 . S
H547 C556 0.930 . S
H548 C561 0.929 . S
H549 C559 0.929 . S
H550 C554 0.929 . S
H551 C560 0.929 . S
C552 H546 0.930 . S
C552 C553 1.367 . S
C552 C560 1.378 . S
C553 C552 1.367 . S
C553 C561 1.433 . S
C554 H550 0.929 . S
C554 C556 1.378 . S
C554 C558 1.350 . S
C555 C558 1.463 . S
C555 C560 1.350 . S
C555 N563 1.427 . S
C556 H547 0.930 . S
C556 C554 1.378 . S
C556 C557 1.367 . S
C557 C556 1.367 . S
C557 C559 1.433 . S
C558 C554 1.350 . S
C558 C555 1.463 . S
C558 N562 1.427 . S
C559 H549 0.929 . S
C559 C557 1.433 . S
C559 N562 1.384 . S
C560 H551 0.929 . S
C560 C552 1.378 . S
C560 C555 1.350 . S
C561 H548 0.929 . S
C561 C553 1.433 . S
C561 N563 1.384 . S
N562 C558 1.427 . S
N562 C559 1.384 . S
N563 C555 1.427 . S
N563 C561 1.384 . S
C247 C218 1.315 . S
C251 C19 1.390 . S
C265 C18 1.320 . S
C269 C59 1.389 . S
C283 C58 1.320 . S
C287 C99 1.389 . S
C301 C98 1.318 . S
C305 C139 1.389 . S
C319 C179 1.388 . S
C323 C138 1.323 . S
C337 C219 1.390 . S
C341 C178 1.315 . S
C355 C15 1.404 . S
C359 C5 1.404 . S
C373 C55 1.403 1_556 S
C377 C45 1.403 . S
C391 C95 1.419 . S
C395 C85 1.419 . S
C409 C135 1.403 . S
C413 C125 1.403 . S
C427 C165 1.414 . S
C431 C175 1.414 1_556 S
C445 C215 1.410 . S
C449 C205 1.410 . S
C463 C9 1.731 . S
C467 C168 1.735 . S
C481 C49 1.725 . S
C485 C208 1.729 . S
C499 C8 1.734 . S
C503 C89 1.731 . S
C517 C48 1.735 . S
C521 C129 1.732 . S
C535 C169 1.732 . S
C539 C88 1.735 . S
C553 C128 1.735 . S
C557 C209 1.731 . S
