# Generated by pormake.
# Topology ske, (6)-cn, num edge types: 1
# Building blocks:
#     Node 0, Type 0, BuildingBlock: BETDIP_clean_sbu_0, # of connection points: 6
#     Node 1, Type 0, BuildingBlock: BETDIP_clean_sbu_0, # of connection points: 6
#     Node 2, Type 0, BuildingBlock: BETDIP_clean_sbu_0, # of connection points: 6
#     Node 3, Type 0, BuildingBlock: BETDIP_clean_sbu_0, # of connection points: 6
#     Node 4, Type 0, BuildingBlock: BETDIP_clean_sbu_0, # of connection points: 6
#     Node 5, Type 0, BuildingBlock: BETDIP_clean_sbu_0, # of connection points: 6
#     Node 6, Type 0, BuildingBlock: BETDIP_clean_sbu_0, # of connection points: 6
#     Node 7, Type 0, BuildingBlock: BETDIP_clean_sbu_0, # of connection points: 6
#     Edge 8, Type (0, 0), BuildingBlock: KIFKEQ_clean_linker_1, # of connection points: 2
#     Edge 9, Type (0, 0), BuildingBlock: KIFKEQ_clean_linker_1, # of connection points: 2
#     Edge 10, Type (0, 0), BuildingBlock: KIFKEQ_clean_linker_1, # of connection points: 2
#     Edge 11, Type (0, 0), BuildingBlock: KIFKEQ_clean_linker_1, # of connection points: 2
#     Edge 12, Type (0, 0), BuildingBlock: KIFKEQ_clean_linker_1, # of connection points: 2
#     Edge 13, Type (0, 0), BuildingBlock: KIFKEQ_clean_linker_1, # of connection points: 2
#     Edge 14, Type (0, 0), BuildingBlock: KIFKEQ_clean_linker_1, # of connection points: 2
#     Edge 15, Type (0, 0), BuildingBlock: KIFKEQ_clean_linker_1, # of connection points: 2
#     Edge 16, Type (0, 0), BuildingBlock: KIFKEQ_clean_linker_1, # of connection points: 2
#     Edge 17, Type (0, 0), BuildingBlock: KIFKEQ_clean_linker_1, # of connection points: 2
#     Edge 18, Type (0, 0), BuildingBlock: KIFKEQ_clean_linker_1, # of connection points: 2
#     Edge 19, Type (0, 0), BuildingBlock: KIFKEQ_clean_linker_1, # of connection points: 2
#     Edge 20, Type (0, 0), BuildingBlock: KIFKEQ_clean_linker_1, # of connection points: 2
#     Edge 21, Type (0, 0), BuildingBlock: KIFKEQ_clean_linker_1, # of connection points: 2
#     Edge 22, Type (0, 0), BuildingBlock: KIFKEQ_clean_linker_1, # of connection points: 2
#     Edge 23, Type (0, 0), BuildingBlock: KIFKEQ_clean_linker_1, # of connection points: 2
#     Edge 24, Type (0, 0), BuildingBlock: KIFKEQ_clean_linker_1, # of connection points: 2
#     Edge 25, Type (0, 0), BuildingBlock: KIFKEQ_clean_linker_1, # of connection points: 2
#     Edge 26, Type (0, 0), BuildingBlock: KIFKEQ_clean_linker_1, # of connection points: 2
#     Edge 27, Type (0, 0), BuildingBlock: KIFKEQ_clean_linker_1, # of connection points: 2
#     Edge 28, Type (0, 0), BuildingBlock: KIFKEQ_clean_linker_1, # of connection points: 2
#     Edge 29, Type (0, 0), BuildingBlock: KIFKEQ_clean_linker_1, # of connection points: 2
#     Edge 30, Type (0, 0), BuildingBlock: KIFKEQ_clean_linker_1, # of connection points: 2
#     Edge 31, Type (0, 0), BuildingBlock: KIFKEQ_clean_linker_1, # of connection points: 2
# Relax obj value: 0.222
# Max RMSD: 0.214
# Mean RMSD: 0.208
data_MOF--net-ske--node1-BETDIP_clean_sbu_0--edge1-KIFKEQ_clean_linker_1
_symmetry_space_group_name_H-M    P1
_symmetry_Int_Tables_number       1
_symmetry_cell_setting            triclinic
loop_
_symmetry_equiv_pos_as_xyz
'x, y, z'
_cell_length_a     102.43903
_cell_length_b     29.347872
_cell_length_c     15.638988
_cell_angle_alpha  90.122902
_cell_angle_beta   89.922365
_cell_angle_gamma 89.983434
loop_
_atom_site_label
_atom_site_type_symbol
_atom_site_fract_x
_atom_site_fract_y
_atom_site_fract_z
_atom_type_partial_charge
Tb0 Tb 0.16323 0.27 0.54521 0.0
Tb1 Tb 0.13508 0.25037 0.55559 0.0
C2 C 0.18617 0.30111 0.5574 0.0
C3 C 0.19859 0.29453 0.60461 0.0
C4 C 0.20452 0.33218 0.6441 0.0
C5 C 0.21702 0.32853 0.67972 0.0
C6 C 0.22394 0.28712 0.67621 0.0
C7 C 0.21782 0.24903 0.63883 0.0
C8 C 0.20528 0.25265 0.60354 0.0
C9 C 0.15727 0.18207 0.52901 0.0
C10 C 0.15024 0.25322 0.72622 0.0
C11 C 0.1121 0.21916 0.54664 0.0
C12 C 0.09868 0.23221 0.52169 0.0
C13 C 0.09027 0.19869 0.48922 0.0
C14 C 0.07699 0.20802 0.47702 0.0
C15 C 0.07181 0.25112 0.49752 0.0
C16 C 0.08039 0.28525 0.52679 0.0
C17 C 0.09369 0.27593 0.53863 0.0
C18 C 0.14079 0.33901 0.56724 0.0
C19 C 0.14848 0.2641 0.37447 0.0
O20 O 0.1762 0.31794 0.59925 0.0
O21 O 0.18268 0.26905 0.50413 0.0
O22 O 0.15202 0.21006 0.5794 0.0
O23 O 0.16695 0.202 0.49185 0.0
O24 O 0.1595 0.27471 0.68348 0.0
O25 O 0.14086 0.23169 0.68484 0.0
O26 O 0.1208 0.2137 0.48628 0.0
O27 O 0.11693 0.23975 0.61345 0.0
O28 O 0.14625 0.3101 0.5198 0.0
O29 O 0.1309 0.31932 0.60238 0.0
O30 O 0.13922 0.24268 0.41787 0.0
O31 O 0.15777 0.28658 0.41501 0.0
H32 H 0.19965 0.36496 0.645 0.0
H33 H 0.22145 0.3587 0.7071 0.0
H34 H 0.22277 0.21646 0.63608 0.0
H35 H 0.201 0.22292 0.57358 0.0
H36 H 0.09387 0.16463 0.47638 0.0
H37 H 0.07069 0.18079 0.45514 0.0
H38 H 0.07678 0.319 0.54196 0.0
H39 H 0.09998 0.30246 0.56364 0.0
Tb40 Tb 0.87991 0.24542 0.54988 0.0
Tb41 Tb 0.90963 0.27044 0.54983 0.0
C42 C 0.85846 0.20328 0.5489 0.0
C43 C 0.84499 0.20977 0.58105 0.0
C44 C 0.8379 0.17175 0.609 0.0
C45 C 0.82502 0.17643 0.63768 0.0
C46 C 0.81887 0.21935 0.63889 0.0
C47 C 0.82608 0.25761 0.61184 0.0
C48 C 0.83901 0.25288 0.5833 0.0
C49 C 0.88335 0.33608 0.55344 0.0
C50 C 0.89341 0.26536 0.72583 0.0
C51 C 0.93228 0.30165 0.57151 0.0
C52 C 0.94597 0.29486 0.54312 0.0
C53 C 0.95321 0.3324 0.51412 0.0
C54 C 0.96661 0.32839 0.49771 0.0
C55 C 0.97315 0.28673 0.51058 0.0
C56 C 0.96577 0.24874 0.53677 0.0
C57 C 0.95235 0.25272 0.55273 0.0
C58 C 0.90409 0.1833 0.5185 0.0
C59 C 0.89517 0.2623 0.37583 0.0
O60 O 0.86752 0.19701 0.60662 0.0
O61 O 0.86236 0.23014 0.48712 0.0
O62 O 0.89165 0.30472 0.55107 0.0
O63 O 0.8721 0.31592 0.55649 0.0
O64 O 0.88327 0.24686 0.68673 0.0
O65 O 0.90372 0.28125 0.68373 0.0
O66 O 0.92397 0.31882 0.51645 0.0
O67 O 0.92709 0.2694 0.61847 0.0
O68 O 0.89805 0.20982 0.56834 0.0
O69 O 0.91431 0.20465 0.49086 0.0
O70 O 0.90456 0.28411 0.41742 0.0
O71 O 0.88609 0.23811 0.41612 0.0
H72 H 0.84234 0.13822 0.60836 0.0
H73 H 0.81991 0.14631 0.65952 0.0
H74 H 0.82167 0.29114 0.61114 0.0
H75 H 0.84429 0.28284 0.5623 0.0
H76 H 0.94855 0.36529 0.50642 0.0
H77 H 0.97187 0.3582 0.47605 0.0
H78 H 0.97042 0.21621 0.54832 0.0
H79 H 0.94708 0.22309 0.57527 0.0
Tb80 Tb 0.1627 0.75049 0.51185 0.0
Tb81 Tb 0.1345 0.77012 0.50176 0.0
C82 C 0.18572 0.71988 0.49912 0.0
C83 C 0.19827 0.72784 0.45362 0.0
C84 C 0.20331 0.69403 0.39902 0.0
C85 C 0.21587 0.69806 0.36424 0.0
C86 C 0.22378 0.73587 0.3839 0.0
C87 C 0.2186 0.77032 0.43666 0.0
C88 C 0.20601 0.7664 0.47106 0.0
C89 C 0.15672 0.83841 0.52768 0.0
C90 C 0.14967 0.76672 0.33103 0.0
C91 C 0.11157 0.80194 0.50977 0.0
C92 C 0.09812 0.79201 0.53925 0.0
C93 C 0.09049 0.82775 0.57192 0.0
C94 C 0.07712 0.82175 0.58688 0.0
C95 C 0.07102 0.77979 0.56916 0.0
C96 C 0.07883 0.74333 0.54016 0.0
C97 C 0.09222 0.74937 0.52529 0.0
C98 C 0.14031 0.68152 0.49 0.0
C99 C 0.14779 0.7553 0.68294 0.0
O100 O 0.17586 0.70395 0.45514 0.0
O101 O 0.18204 0.75044 0.55496 0.0
O102 O 0.15147 0.81035 0.47747 0.0
O103 O 0.1664 0.81853 0.56464 0.0
O104 O 0.15892 0.74521 0.37379 0.0
O105 O 0.14032 0.7885 0.37238 0.0
O106 O 0.12055 0.81057 0.56693 0.0
O107 O 0.11604 0.77725 0.4467 0.0
O108 O 0.14573 0.71049 0.53737 0.0
O109 O 0.13039 0.70108 0.455 0.0
O110 O 0.13841 0.77623 0.63998 0.0
O111 O 0.15721 0.73352 0.64201 0.0
H112 H 0.19767 0.66366 0.38532 0.0
H113 H 0.21958 0.67065 0.32459 0.0
H114 H 0.22433 0.80021 0.45218 0.0
H115 H 0.2025 0.7931 0.51311 0.0
H116 H 0.09479 0.86099 0.5829 0.0
H117 H 0.07151 0.85034 0.6108 0.0
H118 H 0.07449 0.71063 0.5252 0.0
H119 H 0.09785 0.7212 0.4997 0.0
Tb120 Tb 0.88073 0.76898 0.51469 0.0
Tb121 Tb 0.90866 0.74891 0.50305 0.0
C122 C 0.85784 0.80052 0.50205 0.0
C123 C 0.84545 0.79333 0.4549 0.0
C124 C 0.83912 0.83094 0.41822 0.0
C125 C 0.82667 0.82641 0.38227 0.0
C126 C 0.82019 0.78412 0.38257 0.0
C127 C 0.8267 0.74614 0.41717 0.0
C128 C 0.83919 0.75066 0.4528 0.0
C129 C 0.88634 0.68112 0.5352 0.0
C130 C 0.89342 0.74916 0.33305 0.0
C131 C 0.93173 0.71826 0.5123 0.0
C132 C 0.94521 0.72941 0.53964 0.0
C133 C 0.95286 0.69509 0.57671 0.0
C134 C 0.96621 0.70182 0.59089 0.0
C135 C 0.97228 0.74309 0.568 0.0
C136 C 0.96446 0.77823 0.53431 0.0
C137 C 0.95107 0.77146 0.52016 0.0
C138 C 0.90283 0.83739 0.48822 0.0
C139 C 0.89564 0.76444 0.68471 0.0
O140 O 0.86782 0.81671 0.45961 0.0
O141 O 0.86131 0.76904 0.55637 0.0
O142 O 0.89171 0.70769 0.48247 0.0
O143 O 0.87687 0.70259 0.57179 0.0
O144 O 0.88407 0.77048 0.37554 0.0
O145 O 0.90297 0.72879 0.37464 0.0
O146 O 0.92288 0.71132 0.57103 0.0
O147 O 0.92708 0.74067 0.4472 0.0
O148 O 0.89769 0.80933 0.53847 0.0
O149 O 0.91239 0.81711 0.45045 0.0
O150 O 0.90466 0.74201 0.64089 0.0
O151 O 0.88644 0.78733 0.6442 0.0
H152 H 0.84366 0.86427 0.4197 0.0
H153 H 0.82193 0.85651 0.35709 0.0
H154 H 0.8221 0.71293 0.4174 0.0
H155 H 0.84381 0.72094 0.48045 0.0
H156 H 0.94858 0.66232 0.59199 0.0
H157 H 0.97184 0.67429 0.61846 0.0
H158 H 0.96877 0.81035 0.51535 0.0
H159 H 0.94542 0.79851 0.4911 0.0
Tb160 Tb 0.66523 0.76083 0.03049 0.0
Tb161 Tb 0.63634 0.75829 0.03918 0.0
C162 C 0.68915 0.78089 0.04345 0.0
C163 C 0.70109 0.776 0.09683 0.0
C164 C 0.70546 0.81275 0.14697 0.0
C165 C 0.71779 0.81166 0.1857 0.0
C166 C 0.72613 0.77393 0.17476 0.0
C167 C 0.72153 0.73644 0.12727 0.0
C168 C 0.7092 0.73752 0.08862 0.0
C169 C 0.65517 0.67854 1.01015 0.0
C170 C 0.65083 0.75312 0.21248 0.0
C171 C 0.61211 0.74814 1.02511 0.0
C172 C 0.5977 0.7447 1.01677 0.0
C173 C 0.59131 0.70234 1.01647 0.0
C174 C 0.57764 0.69998 1.0101 0.0
C175 C 0.57007 0.73998 1.00408 0.0
C176 C 0.57655 0.78224 1.00467 0.0
C177 C 0.59015 0.78455 1.0107 0.0
C178 C 0.64709 0.83973 0.05946 0.0
C179 C 0.65059 0.7619 0.85929 0.0
O180 O 0.67969 0.80704 0.07133 0.0
O181 O 0.68475 0.74464 1.00425 0.0
O182 O 0.65121 0.70853 0.06196 0.0
O183 O 0.66562 0.69314 0.97286 0.0
O184 O 0.66166 0.76277 0.16948 0.0
O185 O 0.63969 0.7445 0.17323 0.0
O186 O 0.61989 0.71391 0.04236 0.0
O187 O 0.61809 0.78701 1.01448 0.0
O188 O 0.6504 0.80977 1.00598 0.0
O189 O 0.63731 0.82456 0.10335 0.0
O190 O 0.64042 0.74642 0.9027 0.0
O191 O 0.6609 0.77833 0.89923 0.0
H192 H 0.69955 0.84315 0.15381 0.0
H193 H 0.72089 0.84088 0.22289 0.0
H194 H 0.7277 0.707 0.11649 0.0
H195 H 0.70627 0.70884 0.0494 0.0
H196 H 0.59686 0.67103 1.02106 0.0
H197 H 0.57303 0.66679 1.00904 0.0
H198 H 0.5711 0.81384 1.00202 0.0
H199 H 0.59473 0.81781 1.01157 0.0
Tb200 Tb 0.37896 0.75133 0.04544 0.0
Tb201 Tb 0.40731 0.76684 0.05716 0.0
C202 C 0.35569 0.72308 0.05688 0.0
C203 C 0.34327 0.73053 0.10433 0.0
C204 C 0.33827 0.69582 0.15675 0.0
C205 C 0.32575 0.69943 0.19251 0.0
C206 C 0.31786 0.7377 0.17602 0.0
C207 C 0.32304 0.77305 0.12565 0.0
C208 C 0.33557 0.76954 0.09026 0.0
C209 C 0.38591 0.83809 0.02856 0.0
C210 C 0.39194 0.76737 0.22691 0.0
C211 C 0.43081 0.79322 0.04956 0.0
C212 C 0.44417 0.77765 0.02717 0.0
C213 C 0.45213 0.80568 0.97651 0.0
C214 C 0.4654 0.79565 0.96527 0.0
C215 C 0.47105 0.75747 1.00507 0.0
C216 C 0.46294 0.72842 0.05307 0.0
C217 C 0.44965 0.73831 0.06387 0.0
C218 C 0.40026 0.67946 0.06777 0.0
C219 C 0.39393 0.75562 0.87524 0.0
O220 O 0.36549 0.70453 0.09763 0.0
O221 O 0.35953 0.75519 1.00494 0.0
O222 O 0.39082 0.80979 0.07959 0.0
O223 O 0.37603 0.81933 0.99152 0.0
O224 O 0.3825 0.74684 0.18404 0.0
O225 O 0.40156 0.78752 0.18556 0.0
O226 O 0.4224 0.79942 0.98788 0.0
O227 O 0.42541 0.77496 0.11684 0.0
O228 O 0.3955 0.70923 1.01967 0.0
O229 O 0.41016 0.6973 0.10599 0.0
O230 O 0.40338 0.77566 0.91927 0.0
O231 O 0.38438 0.73423 0.91526 0.0
H232 H 0.34387 0.66508 0.1678 0.0
H233 H 0.32205 0.67134 0.23024 0.0
H234 H 0.31732 0.80329 0.11262 0.0
H235 H 0.33905 0.79691 0.04989 0.0
H236 H 0.44819 0.83643 0.94827 0.0
H237 H 0.47135 0.81901 0.92853 0.0
H238 H 0.46692 0.69838 0.08356 0.0
H239 H 0.44378 0.71595 0.10329 0.0
Tb240 Tb 0.66531 0.25685 1.01345 0.0
Tb241 Tb 0.63642 0.26014 1.00695 0.0
C242 C 0.6891 0.23532 0.99846 0.0
C243 C 0.7009 0.23956 0.94342 0.0
C244 C 0.70445 0.20396 0.88772 0.0
C245 C 0.7166 0.20409 0.84638 0.0
C246 C 0.72559 0.23965 0.86011 0.0
C247 C 0.72183 0.27609 0.91342 0.0
C248 C 0.70968 0.27596 0.95476 0.0
C249 C 0.6555 0.33943 0.03442 0.0
C250 C 0.65067 0.26438 0.83209 0.0
C251 C 0.61226 0.27084 1.02366 0.0
C252 C 0.59789 0.27464 0.03394 0.0
C253 C 0.59146 0.3168 0.02767 0.0
C254 C 0.57781 0.31938 0.03478 0.0
C255 C 0.57027 0.27979 0.04796 0.0
C256 C 0.5768 0.23773 0.05426 0.0
C257 C 0.59039 0.23522 0.04761 0.0
C258 C 0.64695 0.17831 0.9863 0.0
C259 C 0.65084 0.25721 0.18516 0.0
O260 O 0.67945 0.2098 0.97148 0.0
O261 O 0.68497 0.27178 0.0384 0.0
O262 O 0.65137 0.30952 0.98309 0.0
O263 O 0.66599 0.32456 0.07095 0.0
O264 O 0.66167 0.25666 0.87453 0.0
O265 O 0.63947 0.27127 0.87189 0.0
O266 O 0.61988 0.30373 0.99675 0.0
O267 O 0.61837 0.23314 0.0427 0.0
O268 O 0.65042 0.20834 0.03911 0.0
O269 O 0.63706 0.19353 0.94374 0.0
O270 O 0.64093 0.27452 0.14179 0.0
O271 O 0.66087 0.23892 0.14469 0.0
H272 H 0.69802 0.17509 0.87825 0.0
H273 H 0.71904 0.17578 0.8048 0.0
H274 H 0.72852 0.30382 0.92643 0.0
H275 H 0.7074 0.30361 0.99827 0.0
H276 H 0.59698 0.34777 1.01714 0.0
H277 H 0.57318 0.35246 0.0305 0.0
H278 H 0.57139 0.20635 0.06254 0.0
H279 H 0.595 0.20209 0.05185 0.0
Tb280 Tb 0.37918 0.26707 1.01104 0.0
Tb281 Tb 0.40754 0.25136 0.99903 0.0
C282 C 0.35598 0.29587 1.00014 0.0
C283 C 0.34368 0.2903 0.95089 0.0
C284 C 0.33856 0.32757 0.9058 0.0
C285 C 0.32609 0.32546 0.86941 0.0
C286 C 0.31833 0.28609 0.87775 0.0
C287 C 0.32367 0.24817 0.92029 0.0
C288 C 0.33617 0.25025 0.95648 0.0
C289 C 0.38611 0.18032 0.02817 0.0
C290 C 0.39216 0.25073 0.8294 0.0
C291 C 0.43104 0.22497 1.00665 0.0
C292 C 0.4444 0.24104 0.02732 0.0
C293 C 0.4523 0.21471 0.08137 0.0
C294 C 0.46556 0.225 0.09173 0.0
C295 C 0.47127 0.26172 0.04759 0.0
C296 C 0.46322 0.28914 0.99603 0.0
C297 C 0.44994 0.27901 0.98613 0.0
C298 C 0.40051 0.33876 0.98874 0.0
C299 C 0.39409 0.26206 0.18108 0.0
O300 O 0.3659 0.3155 0.96241 0.0
O301 O 0.35963 0.26207 0.04876 0.0
O302 O 0.39103 0.20851 0.97691 0.0
O303 O 0.37626 0.19921 0.06558 0.0
O304 O 0.38269 0.27117 0.87233 0.0
O305 O 0.40182 0.23076 0.87062 0.0
O306 O 0.4227 0.21988 0.06921 0.0
O307 O 0.42556 0.24195 0.93858 0.0
O308 O 0.39575 0.30896 0.03678 0.0
O309 O 0.41042 0.32093 0.95037 0.0
O310 O 0.40353 0.24203 0.13677 0.0
O311 O 0.38454 0.28359 0.14143 0.0
H312 H 0.34407 0.35899 0.90092 0.0
H313 H 0.32244 0.35507 0.83584 0.0
H314 H 0.31799 0.21741 0.92886 0.0
H315 H 0.33973 0.22095 0.99136 0.0
H316 H 0.44832 0.18501 0.11314 0.0
H317 H 0.47147 0.20291 0.13133 0.0
H318 H 0.46725 0.31806 0.96211 0.0
H319 H 0.44413 0.30008 0.94403 0.0
H320 H 0.2448 0.24342 0.60233 0.0
H321 H 0.23425 0.32488 0.82203 0.0
H322 H 0.26744 0.24231 0.65008 0.0
H323 H 0.25687 0.32345 0.87034 0.0
H324 H 0.30028 0.35513 0.88321 0.0
H325 H 0.27776 0.35412 0.83448 0.0
H326 H 0.28218 0.21367 0.75645 0.0
H327 H 0.30496 0.21536 0.80157 0.0
C328 C 0.24727 0.26055 0.66154 0.0
C329 C 0.23767 0.28434 0.70815 0.0
C330 C 0.26028 0.25993 0.68899 0.0
C331 C 0.26407 0.28301 0.76396 0.0
C332 C 0.25441 0.30607 0.81138 0.0
C333 C 0.24141 0.30681 0.78378 0.0
C334 C 0.29655 0.32418 0.85445 0.0
C335 C 0.30455 0.28539 0.84613 0.0
C336 C 0.28352 0.32338 0.82763 0.0
C337 C 0.27804 0.28372 0.79188 0.0
C338 C 0.28605 0.24497 0.78298 0.0
C339 C 0.29911 0.24579 0.80976 0.0
H340 H 0.74147 0.16491 0.8442 0.0
H341 H 0.74041 0.30948 0.79344 0.0
H342 H 0.76364 0.1612 0.78872 0.0
H343 H 0.7627 0.30575 0.73802 0.0
H344 H 0.80769 0.28775 0.7353 0.0
H345 H 0.78515 0.29359 0.785 0.0
H346 H 0.77598 0.16698 0.65739 0.0
H347 H 0.79843 0.16125 0.6074 0.0
C348 C 0.74588 0.19586 0.82003 0.0
C349 C 0.73905 0.23747 0.82305 0.0
C350 C 0.75865 0.19373 0.78826 0.0
C351 C 0.76501 0.23315 0.7586 0.0
C352 C 0.75819 0.27479 0.76133 0.0
C353 C 0.74539 0.27692 0.79307 0.0
C354 C 0.80085 0.26139 0.71699 0.0
C355 C 0.80498 0.22385 0.66768 0.0
C356 C 0.78789 0.26475 0.74556 0.0
C357 C 0.77871 0.23063 0.72572 0.0
C358 C 0.78281 0.19348 0.67539 0.0
C359 C 0.79573 0.19016 0.64674 0.0
H360 H 0.29611 0.76699 0.09022 0.0
H361 H 0.30837 0.71261 0.33356 0.0
H362 H 0.27355 0.76858 0.14022 0.0
H363 H 0.28573 0.71314 0.38287 0.0
H364 H 0.24553 0.76323 0.47226 0.0
H365 H 0.26811 0.7657 0.42262 0.0
H366 H 0.25596 0.71521 0.17571 0.0
H367 H 0.23331 0.7138 0.22473 0.0
C368 C 0.29402 0.75567 0.15465 0.0
C369 C 0.3041 0.73977 0.20788 0.0
C370 C 0.28104 0.75608 0.18299 0.0
C371 C 0.27778 0.74087 0.26554 0.0
C372 C 0.28788 0.72547 0.31918 0.0
C373 C 0.30086 0.72477 0.29062 0.0
C374 C 0.24764 0.75318 0.40702 0.0
C375 C 0.23756 0.73842 0.35248 0.0
C376 C 0.26062 0.7541 0.37885 0.0
C377 C 0.2639 0.74056 0.29518 0.0
C378 C 0.2538 0.72627 0.24031 0.0
C379 C 0.24082 0.72505 0.26867 0.0
H380 H 0.74322 0.84588 0.1781 0.0
H381 H 0.74023 0.70372 0.24634 0.0
H382 H 0.76567 0.84715 0.22853 0.0
H383 H 0.76293 0.70448 0.29341 0.0
H384 H 0.79978 0.73613 0.45207 0.0
H385 H 0.77719 0.73297 0.40338 0.0
H386 H 0.78697 0.82017 0.19056 0.0
H387 H 0.80952 0.82358 0.2397 0.0
C388 C 0.7473 0.81489 0.20436 0.0
C389 C 0.73981 0.77474 0.2083 0.0
C390 C 0.76029 0.81545 0.23216 0.0
C391 C 0.76622 0.77584 0.26465 0.0
C392 C 0.7587 0.73576 0.26944 0.0
C393 C 0.74569 0.7352 0.24159 0.0
C394 C 0.79715 0.75418 0.39426 0.0
C395 C 0.80651 0.78022 0.35002 0.0
C396 C 0.78417 0.75239 0.36629 0.0
C397 C 0.78016 0.77652 0.29318 0.0
C398 C 0.78959 0.80189 0.24811 0.0
C399 C 0.80256 0.80377 0.2762 0.0
H400 H 0.1636 0.89751 0.65314 0.0
H401 H 0.14523 0.89228 0.40528 0.0
H402 H 0.16178 0.98068 0.65355 0.0
H403 H 0.14376 0.97596 0.40455 0.0
H404 H 0.16438 0.12273 0.40406 0.0
H405 H 0.16226 0.03962 0.40317 0.0
H406 H 0.14353 0.04498 0.65023 0.0
H407 H 0.14532 0.12854 0.64998 0.0
C408 C 0.15909 0.9142 0.59896 0.0
C409 C 0.15459 0.88844 0.5291 0.0
C410 C 0.158 0.96179 0.59941 0.0
C411 C 0.15264 0.98489 0.52909 0.0
C412 C 0.14796 0.95908 0.45956 0.0
C413 C 0.14876 0.91125 0.46005 0.0
C414 C 0.15966 0.10619 0.45771 0.0
C415 C 0.15506 0.13209 0.5272 0.0
C416 C 0.15839 0.05864 0.45697 0.0
C417 C 0.15274 0.03573 0.52661 0.0
C418 C 0.14795 0.0617 0.59574 0.0
C419 C 0.14895 0.10947 0.59552 0.0
H420 H 0.90618 0.38576 0.53167 0.0
H421 H 0.86474 0.4002 0.57204 0.0
H422 H 0.90839 0.46942 0.52796 0.0
H423 H 0.86684 0.4825 0.56775 0.0
H424 H 0.90136 0.62333 0.43445 0.0
H425 H 0.90198 0.5394 0.44052 0.0
H426 H 0.87577 0.54242 0.65691 0.0
H427 H 0.87503 0.62503 0.64992 0.0
C428 C 0.89759 0.40671 0.54006 0.0
C429 C 0.88531 0.38633 0.55287 0.0
C430 C 0.89882 0.45459 0.53734 0.0
C431 C 0.88781 0.48292 0.54834 0.0
C432 C 0.87558 0.46208 0.56064 0.0
C433 C 0.87436 0.41469 0.56278 0.0
C434 C 0.89584 0.60587 0.48352 0.0
C435 C 0.88798 0.6308 0.54086 0.0
C436 C 0.89623 0.55784 0.4873 0.0
C437 C 0.88875 0.53394 0.5484 0.0
C438 C 0.88141 0.55938 0.60773 0.0
C439 C 0.88102 0.60692 0.60391 0.0
H440 H 0.89135 0.89083 0.6126 0.0
H441 H 0.91047 0.89765 0.36733 0.0
H442 H 0.8907 0.97425 0.61908 0.0
H443 H 0.90918 0.98031 0.37054 0.0
H444 H 0.92036 0.12389 0.43972 0.0
H445 H 0.9191 0.04167 0.43298 0.0
H446 H 0.88267 0.04527 0.57289 0.0
H447 H 0.88444 0.12845 0.58349 0.0
C448 C 0.89522 0.91022 0.55943 0.0
C449 C 0.90112 0.88772 0.48995 0.0
C450 C 0.89479 0.95816 0.56277 0.0
C451 C 0.90009 0.98476 0.49601 0.0
C452 C 0.90539 0.96165 0.42478 0.0
C453 C 0.90603 0.914 0.42234 0.0
C454 C 0.91203 0.10727 0.46894 0.0
C455 C 0.90248 0.13293 0.51196 0.0
C456 C 0.91122 0.05976 0.46439 0.0
C457 C 0.90069 0.03603 0.50144 0.0
C458 C 0.89102 0.06187 0.54412 0.0
C459 C 0.89194 0.10972 0.54962 0.0
H460 H 0.123 0.61712 0.43792 0.0
H461 H 0.16044 0.6322 0.56106 0.0
H462 H 0.12411 0.53477 0.45778 0.0
H463 H 0.16168 0.54888 0.57911 0.0
H464 H 0.16077 0.38888 0.49533 0.0
H465 H 0.16177 0.47222 0.47692 0.0
H466 H 0.12418 0.48527 0.59909 0.0
H467 H 0.12331 0.40294 0.61932 0.0
C468 C 0.13153 0.60281 0.46867 0.0
C469 C 0.14159 0.63126 0.49849 0.0
C470 C 0.13214 0.55559 0.48017 0.0
C471 C 0.14295 0.53535 0.5203 0.0
C472 C 0.15325 0.56354 0.54775 0.0
C473 C 0.15252 0.61114 0.53772 0.0
C474 C 0.15279 0.40971 0.51876 0.0
C475 C 0.14193 0.3893 0.55837 0.0
C476 C 0.15339 0.45733 0.50852 0.0
C477 C 0.14301 0.48522 0.53611 0.0
C478 C 0.13227 0.46468 0.57657 0.0
C479 C 0.1318 0.41747 0.58828 0.0
H480 H 0.64272 0.63064 0.13711 0.0
H481 H 0.65968 0.61638 0.88579 0.0
H482 H 0.63985 0.54758 0.14461 0.0
H483 H 0.6566 0.53393 0.89243 0.0
H484 H 0.66057 0.40169 0.15777 0.0
H485 H 0.6573 0.48409 0.15202 0.0
H486 H 0.63932 0.4702 0.90386 0.0
H487 H 0.64239 0.38722 0.9105 0.0
C488 C 0.64556 0.60986 0.08284 0.0
C489 C 0.6515 0.62979 1.0111 0.0
C490 C 0.64396 0.56239 0.0872 0.0
C491 C 0.64802 0.53423 1.0191 0.0
C492 C 0.65327 0.55466 0.94555 0.0
C493 C 0.6551 0.60184 0.94195 0.0
C494 C 0.65569 0.41617 0.10271 0.0
C495 C 0.65181 0.38818 0.03435 0.0
C496 C 0.65375 0.46331 0.09965 0.0
C497 C 0.64809 0.48367 0.02741 0.0
C498 C 0.64375 0.45545 0.96023 0.0
C499 C 0.64547 0.40803 0.9641 0.0
H500 H 0.39799 0.89088 0.1503 0.0
H501 H 0.37953 0.89727 0.9028 0.0
H502 H 0.40008 0.97435 0.15103 0.0
H503 H 0.38192 0.98021 0.90251 0.0
H504 H 0.39805 0.1273 0.90601 0.0
H505 H 0.40005 0.0438 0.90525 0.0
H506 H 0.38204 0.0383 0.1546 0.0
H507 H 0.37975 0.12128 0.15434 0.0
C508 C 0.39458 0.91006 0.09557 0.0
C509 C 0.38852 0.88772 0.02672 0.0
C510 C 0.39575 0.95774 0.09605 0.0
C511 C 0.39117 0.98379 0.02674 0.0
C512 C 0.38563 0.96109 0.95643 0.0
C513 C 0.3842 0.91366 0.95683 0.0
C514 C 0.39467 0.1082 0.96092 0.0
C515 C 0.38867 0.13065 0.03001 0.0
C516 C 0.39577 0.0605 0.96042 0.0
C517 C 0.39121 0.03454 0.02995 0.0
C518 C 0.38574 0.05735 0.1005 0.0
C519 C 0.38437 0.1048 0.10012 0.0
H520 H 0.38876 0.38444 0.12095 0.0
H521 H 0.40787 0.4053 0.87813 0.0
H522 H 0.38729 0.46725 0.14127 0.0
H523 H 0.40607 0.48798 0.89735 0.0
H524 H 0.3887 0.63365 0.93516 0.0
H525 H 0.38736 0.55082 0.91474 0.0
H526 H 0.40589 0.53031 0.15925 0.0
H527 H 0.40756 0.613 0.17857 0.0
C528 C 0.39247 0.40672 0.07143 0.0
C529 C 0.39849 0.38851 0.99809 0.0
C530 C 0.39167 0.45404 0.0832 0.0
C531 C 0.39657 0.48402 1.02088 0.0
C532 C 0.40214 0.4657 0.94614 0.0
C533 C 0.40321 0.41845 0.93531 0.0
C534 C 0.39238 0.61142 0.98479 0.0
C535 C 0.39829 0.62969 0.05834 0.0
C536 C 0.39166 0.56409 0.97296 0.0
C537 C 0.39652 0.53416 0.03541 0.0
C538 C 0.40198 0.55254 0.11034 0.0
C539 C 0.40298 0.5998 0.12124 0.0
H540 H 0.65923 0.1344 0.1179 0.0
H541 H 0.64143 0.11142 0.87161 0.0
H542 H 0.66164 0.0519 0.13705 0.0
H543 H 0.64402 0.02917 0.89005 0.0
H544 H 0.65902 0.88374 0.92645 0.0
H545 H 0.66135 0.96625 0.90718 0.0
H546 H 0.64443 0.98879 0.15663 0.0
H547 H 0.64191 0.90652 0.17522 0.0
C548 C 0.65606 0.11175 0.06724 0.0
C549 C 0.65007 0.12923 0.99345 0.0
C550 C 0.65738 0.06458 0.07836 0.0
C551 C 0.65299 0.03406 1.01515 0.0
C552 C 0.6476 0.05179 0.93957 0.0
C553 C 0.64606 0.09884 0.92916 0.0
C554 C 0.65599 0.90635 0.97761 0.0
C555 C 0.65021 0.88881 0.05215 0.0
C556 C 0.65727 0.95352 0.96642 0.0
C557 C 0.65303 0.98399 0.03027 0.0
C558 C 0.64787 0.96621 0.10657 0.0
C559 C 0.64638 0.91914 0.11709 0.0
H560 H 0.16883 0.28335 0.26829 0.0
H561 H 0.12847 0.24119 0.26609 0.0
H562 H 0.16954 0.27863 0.11336 0.0
H563 H 0.12891 0.23868 0.11016 0.0
H564 H 0.13678 0.19708 0.83474 0.0
H565 H 0.13647 0.19887 0.9905 0.0
H566 H 0.16305 0.31335 0.9876 0.0
H567 H 0.16383 0.30984 0.83236 0.0
C568 C 0.16003 0.27369 0.23452 0.0
C569 C 0.14858 0.26279 0.27962 0.0
C570 C 0.16041 0.2712 0.14525 0.0
C571 C 0.14927 0.25844 0.09824 0.0
C572 C 0.13777 0.24786 0.14367 0.0
C573 C 0.13746 0.24966 0.23325 0.0
C574 C 0.14263 0.2224 0.86754 0.0
C575 C 0.15038 0.25317 0.82109 0.0
C576 C 0.14237 0.22374 0.95708 0.0
C577 C 0.1497 0.25637 1.00255 0.0
C578 C 0.15745 0.28711 0.95558 0.0
C579 C 0.15787 0.28528 0.86619 0.0
H580 H 0.87433 0.24752 0.27066 0.0
H581 H 0.91529 0.28173 0.26597 0.0
H582 H 0.87361 0.25131 0.11551 0.0
H583 H 0.91484 0.28302 0.11022 0.0
H584 H 0.90828 0.3193 0.83141 0.0
H585 H 0.90843 0.32076 0.98728 0.0
H586 H 0.8792 0.21445 0.991 0.0
H587 H 0.87858 0.21502 0.83591 0.0
C588 C 0.88324 0.25535 0.23631 0.0
C589 C 0.89487 0.26423 0.28085 0.0
C590 C 0.88287 0.25725 0.14687 0.0
C591 C 0.89418 0.2672 0.09902 0.0
C592 C 0.90584 0.27605 0.14403 0.0
C593 C 0.90614 0.27498 0.23368 0.0
C594 C 0.90182 0.29649 0.8657 0.0
C595 C 0.89337 0.26722 0.82095 0.0
C596 C 0.90198 0.297 0.95542 0.0
C597 C 0.89384 0.26767 1.00297 0.0
C598 C 0.88542 0.23835 0.95763 0.0
C599 C 0.88511 0.23844 0.86814 0.0
H600 H 0.16329 0.70989 0.22501 0.0
H601 H 0.13615 0.82245 0.22242 0.0
H602 H 0.16246 0.70598 0.06979 0.0
H603 H 0.13578 0.82022 0.06671 0.0
H604 H 0.12772 0.77736 0.79189 0.0
H605 H 0.12818 0.77981 0.94781 0.0
H606 H 0.16889 0.7407 0.94355 0.0
H607 H 0.16817 0.73609 0.78863 0.0
C608 C 0.15729 0.73431 0.19114 0.0
C609 C 0.1498 0.76649 0.23616 0.0
C610 C 0.15685 0.73224 0.10177 0.0
C611 C 0.14904 0.76278 0.05479 0.0
C612 C 0.1417 0.79548 0.10018 0.0
C613 C 0.14201 0.79708 0.18968 0.0
C614 C 0.13673 0.76903 0.82448 0.0
C615 C 0.14787 0.75623 0.77781 0.0
C616 C 0.13705 0.7708 0.91405 0.0
C617 C 0.14859 0.7605 0.95915 0.0
C618 C 0.15974 0.74795 0.91187 0.0
C619 C 0.15935 0.74552 0.82261 0.0
H620 H 0.90881 0.70527 0.78815 0.0
H621 H 0.88233 0.81965 0.79616 0.0
H622 H 0.90781 0.69945 0.94314 0.0
H623 H 0.88178 0.81541 0.95169 0.0
H624 H 0.87339 0.77143 0.22443 0.0
H625 H 0.87388 0.77423 0.06861 0.0
H626 H 0.91433 0.73207 0.07151 0.0
H627 H 0.91359 0.72721 0.22646 0.0
C628 C 0.90292 0.72966 0.82317 0.0
C629 C 0.89567 0.76296 0.77965 0.0
C630 C 0.90237 0.72647 0.91244 0.0
C631 C 0.8947 0.75692 0.96093 0.0
C632 C 0.8876 0.79069 0.91706 0.0
C633 C 0.888 0.79346 0.82764 0.0
C634 C 0.88234 0.76237 0.19161 0.0
C635 C 0.89342 0.74885 0.23803 0.0
C636 C 0.88268 0.76439 0.10204 0.0
C637 C 0.89417 0.75359 0.05654 0.0
C638 C 0.90522 0.73986 0.10346 0.0
C639 C 0.90482 0.73723 0.19277 0.0
H640 H 0.6682 0.79569 0.31784 0.0
H641 H 0.63405 0.70955 0.32067 0.0
H642 H 0.66793 0.79868 0.47328 0.0
H643 H 0.63415 0.71025 0.47629 0.0
H644 H 0.62956 0.75649 0.75204 0.0
H645 H 0.6297 0.75456 0.5962 0.0
H646 H 0.67192 0.75881 0.59802 0.0
H647 H 0.67165 0.76335 0.7531 0.0
C648 C 0.66076 0.77676 0.35186 0.0
C649 C 0.65114 0.75245 0.30704 0.0
C650 C 0.66062 0.77825 0.44125 0.0
C651 C 0.651 0.75472 0.48818 0.0
C652 C 0.64154 0.72966 0.44287 0.0
C653 C 0.64154 0.72889 0.35345 0.0
C654 C 0.63884 0.75717 0.71887 0.0
C655 C 0.65058 0.76036 0.76475 0.0
C656 C 0.63896 0.7557 0.62939 0.0
C657 C 0.65083 0.75649 0.58371 0.0
C658 C 0.66256 0.75916 0.63025 0.0
C659 C 0.66242 0.76149 0.71949 0.0
H660 H 0.37337 0.73919 0.76948 0.0
H661 H 0.41411 0.77667 0.76635 0.0
H662 H 0.37262 0.74428 0.61478 0.0
H663 H 0.41361 0.77953 0.61036 0.0
H664 H 0.40596 0.82197 0.33532 0.0
H665 H 0.40638 0.82009 0.49105 0.0
H666 H 0.37866 0.70896 0.48846 0.0
H667 H 0.37779 0.71261 0.33329 0.0
C668 C 0.38225 0.7479 0.73555 0.0
C669 C 0.39382 0.75734 0.78038 0.0
C670 C 0.38184 0.7506 0.64635 0.0
C671 C 0.39306 0.76209 0.59901 0.0
C672 C 0.40469 0.77131 0.64413 0.0
C673 C 0.40503 0.76931 0.73373 0.0
C674 C 0.39988 0.7974 0.36819 0.0
C675 C 0.39179 0.76761 0.32183 0.0
C676 C 0.40021 0.79598 0.45772 0.0
C677 C 0.39259 0.76426 0.5033 0.0
C678 C 0.38449 0.73452 0.45642 0.0
C679 C 0.38401 0.73644 0.36704 0.0
H680 H 0.63429 0.30467 0.28988 0.0
H681 H 0.66734 0.21326 0.29468 0.0
H682 H 0.63456 0.30852 0.44546 0.0
H683 H 0.66735 0.21581 0.45028 0.0
H684 H 0.67195 0.26374 0.72539 0.0
H685 H 0.67207 0.26356 0.56947 0.0
H686 H 0.62988 0.26459 0.56869 0.0
H687 H 0.62977 0.26637 0.72395 0.0
C688 C 0.64154 0.28507 0.32417 0.0
C689 C 0.65078 0.25864 0.27983 0.0
C690 C 0.64167 0.28711 0.41353 0.0
C691 C 0.65098 0.26245 0.46081 0.0
C692 C 0.66018 0.23588 0.4162 0.0
C693 C 0.66012 0.23414 0.32684 0.0
C694 C 0.66271 0.26415 0.69189 0.0
C695 C 0.65086 0.26519 0.7373 0.0
C696 C 0.66277 0.26373 0.60238 0.0
C697 C 0.65098 0.26398 0.55614 0.0
C698 C 0.63915 0.26516 0.60183 0.0
C699 C 0.63909 0.26594 0.69115 0.0
H700 H 0.41429 0.24113 0.28953 0.0
H701 H 0.3735 0.27801 0.28721 0.0
H702 H 0.4138 0.23829 0.44554 0.0
H703 H 0.37276 0.27292 0.44192 0.0
H704 H 0.37794 0.30514 0.72306 0.0
H705 H 0.37878 0.30856 0.56786 0.0
H706 H 0.40663 0.19777 0.56521 0.0
H707 H 0.40624 0.19614 0.72097 0.0
C708 C 0.4052 0.24834 0.32233 0.0
C709 C 0.39397 0.26016 0.27592 0.0
C710 C 0.40487 0.24636 0.41194 0.0
C711 C 0.39323 0.25544 0.45728 0.0
C712 C 0.38199 0.26673 0.41017 0.0
C713 C 0.38239 0.26941 0.32097 0.0
C714 C 0.38419 0.28134 0.68929 0.0
C715 C 0.392 0.25033 0.73449 0.0
C716 C 0.38464 0.28311 0.5999 0.0
C717 C 0.39278 0.2534 0.553 0.0
C718 C 0.40044 0.22185 0.59856 0.0
C719 C 0.40012 0.22057 0.68811 0.0
H720 H 0.0545 0.22363 0.37337 0.0
H721 H 0.05648 0.29673 0.61288 0.0
H722 H 0.03085 0.23387 0.37104 0.0
H723 H 0.03289 0.3065 0.61126 0.0
H724 H 0.99163 0.35053 0.55365 0.0
H725 H 1.01525 0.34448 0.54338 0.0
H726 H 1.0114 0.20835 0.44086 0.0
H727 H 0.98772 0.21536 0.44675 0.0
C728 C 0.04989 0.24182 0.42564 0.0
C729 C 0.05744 0.25944 0.4932 0.0
C730 C 0.03631 0.2476 0.42446 0.0
C731 C 0.02988 0.27099 0.49102 0.0
C732 C 0.03747 0.28902 0.55803 0.0
C733 C 0.05104 0.28341 0.559 0.0
C734 C 0.99578 0.31959 0.52731 0.0
C735 C 0.98767 0.28346 0.501 0.0
C736 C 1.00938 0.31585 0.5226 0.0
C737 C 1.01533 0.27579 0.49184 0.0
C738 C 1.00723 0.23992 0.46417 0.0
C739 C 0.9936 0.24372 0.46859 0.0
H740 H 0.98628 0.81865 0.61834 0.0
H741 H 0.99123 0.67977 0.53233 0.0
H742 H 1.00996 0.82766 0.62441 0.0
H743 H 1.01482 0.68876 0.53828 0.0
H744 H 0.05685 0.70639 0.62774 0.0
H745 H 0.03317 0.69773 0.63304 0.0
H746 H 0.02858 0.83335 0.53067 0.0
H747 H 0.05219 0.84198 0.52541 0.0
C748 C 0.9924 0.79006 0.60048 0.0
C749 C 0.98677 0.74844 0.57505 0.0
C750 C 1.006 0.79523 0.60391 0.0
C751 C 1.01437 0.75895 0.58187 0.0
C752 C 1.00873 0.71723 0.55723 0.0
C753 C 0.99515 0.71207 0.55385 0.0
C754 C 0.0508 0.73433 0.60617 0.0
C755 C 0.05651 0.77492 0.57629 0.0
C756 C 0.03719 0.72937 0.60915 0.0
C757 C 0.02889 0.76481 0.58222 0.0
C758 C 0.03461 0.80557 0.55334 0.0
C759 C 0.0482 0.81054 0.55038 0.0
H760 H 0.55381 0.7942 0.90876 0.0
H761 H 0.55314 0.6817 0.08635 0.0
H762 H 0.53011 0.79545 0.90743 0.0
H763 H 0.52934 0.68128 0.08135 0.0
H764 H 0.48749 0.73202 0.13447 0.0
H765 H 0.51116 0.72451 0.13042 0.0
H766 H 0.51097 0.75749 0.86126 0.0
H767 H 0.48728 0.76577 0.86596 0.0
C768 C 0.54862 0.76953 0.94735 0.0
C769 C 0.55548 0.73814 0.99835 0.0
C770 C 0.53496 0.76982 0.9456 0.0
C771 C 0.5277 0.73851 0.99437 0.0
C772 C 0.53455 0.70637 0.04382 0.0
C773 C 0.54825 0.7062 0.04582 0.0
C774 C 0.49248 0.73702 0.07408 0.0
C775 C 0.48545 0.74961 1.00057 0.0
C776 C 0.50609 0.73265 0.07169 0.0
C777 C 0.51309 0.74053 0.99558 0.0
C778 C 0.506 0.75201 0.92151 0.0
C779 C 0.49239 0.75665 0.92406 0.0
H780 H 0.48735 0.25862 0.18791 0.0
H781 H 0.48784 0.28204 0.91555 0.0
H782 H 0.51103 0.26724 0.19216 0.0
H783 H 0.51149 0.28973 0.91916 0.0
H784 H 0.55333 0.33422 0.95721 0.0
H785 H 0.52956 0.33467 0.96203 0.0
H786 H 0.5303 0.22827 0.15249 0.0
H787 H 0.554 0.22976 0.15136 0.0
C788 C 0.49252 0.26553 0.12887 0.0
C789 C 0.48566 0.26963 0.05143 0.0
C790 C 0.50613 0.27034 0.13117 0.0
C791 C 0.51329 0.27901 0.05593 0.0
C792 C 0.50637 0.28386 0.97873 0.0
C793 C 0.49276 0.27937 0.97658 0.0
C794 C 0.54845 0.31151 1.00133 0.0
C795 C 0.55568 0.28178 0.05353 0.0
C796 C 0.53476 0.31131 1.00325 0.0
C797 C 0.5279 0.28127 0.05723 0.0
C798 C 0.53515 0.25225 0.11067 0.0
C799 C 0.54882 0.25263 0.10908 0.0
loop_
_geom_bond_atom_site_label_1
_geom_bond_atom_site_label_2
_geom_bond_distance
_geom_bond_site_symmetry_2
_ccdc_geom_bond_type
Tb0 C2 2.809 . S
Tb0 O20 2.484 . S
Tb0 O21 2.440 . S
Tb0 O22 2.658 . S
Tb0 O23 2.409 . S
Tb0 O24 2.378 . S
Tb0 O28 2.325 . S
Tb0 O31 2.341 . S
Tb1 C11 2.809 . S
Tb1 O22 2.325 . S
Tb1 O25 2.341 . S
Tb1 O26 2.484 . S
Tb1 O27 2.440 . S
Tb1 O28 2.658 . S
Tb1 O29 2.409 . S
Tb1 O30 2.378 . S
C2 Tb0 2.809 . S
C2 C3 1.514 . S
C2 O20 1.248 . S
C2 O21 1.266 . S
C3 C2 1.514 . S
C3 C4 1.359 . S
C3 C8 1.348 . S
C4 C3 1.359 . S
C4 C5 1.380 . S
C4 H32 0.929 . S
C5 C4 1.380 . S
C5 C6 1.347 . S
C5 H33 0.931 . S
C6 C5 1.347 . S
C6 C7 1.369 . S
C7 C6 1.369 . S
C7 C8 1.408 . S
C7 H34 0.930 . S
C8 C3 1.348 . S
C8 C7 1.408 . S
C8 H35 0.930 . S
C9 O22 1.281 . S
C9 O23 1.254 . S
C10 O24 1.236 . S
C10 O25 1.266 . S
C11 Tb1 2.809 . S
C11 C12 1.514 . S
C11 O26 1.248 . S
C11 O27 1.266 . S
C12 C11 1.514 . S
C12 C13 1.359 . S
C12 C17 1.348 . S
C13 C12 1.359 . S
C13 C14 1.380 . S
C13 H36 0.929 . S
C14 C13 1.380 . S
C14 C15 1.347 . S
C14 H37 0.931 . S
C15 C14 1.347 . S
C15 C16 1.369 . S
C16 C15 1.369 . S
C16 C17 1.408 . S
C16 H38 0.930 . S
C17 C12 1.348 . S
C17 C16 1.408 . S
C17 H39 0.930 . S
C18 O28 1.281 . S
C18 O29 1.254 . S
C19 O30 1.236 . S
C19 O31 1.266 . S
O20 Tb0 2.484 . S
O20 C2 1.248 . S
O21 Tb0 2.440 . S
O21 C2 1.266 . S
O22 Tb0 2.658 . S
O22 Tb1 2.325 . S
O22 C9 1.281 . S
O23 Tb0 2.409 . S
O23 C9 1.254 . S
O24 Tb0 2.378 . S
O24 C10 1.236 . S
O25 Tb1 2.341 . S
O25 C10 1.266 . S
O26 Tb1 2.484 . S
O26 C11 1.248 . S
O27 Tb1 2.440 . S
O27 C11 1.266 . S
O28 Tb0 2.325 . S
O28 Tb1 2.658 . S
O28 C18 1.281 . S
O29 Tb1 2.409 . S
O29 C18 1.254 . S
O30 Tb1 2.378 . S
O30 C19 1.236 . S
O31 Tb0 2.341 . S
O31 C19 1.266 . S
H32 C4 0.929 . S
H33 C5 0.931 . S
H34 C7 0.930 . S
H35 C8 0.930 . S
H36 C13 0.929 . S
H37 C14 0.931 . S
H38 C16 0.930 . S
H39 C17 0.930 . S
Tb40 C42 2.809 . S
Tb40 O60 2.484 . S
Tb40 O61 2.440 . S
Tb40 O62 2.658 . S
Tb40 O63 2.409 . S
Tb40 O64 2.378 . S
Tb40 O68 2.325 . S
Tb40 O71 2.341 . S
Tb41 C51 2.809 . S
Tb41 O62 2.325 . S
Tb41 O65 2.341 . S
Tb41 O66 2.484 . S
Tb41 O67 2.440 . S
Tb41 O68 2.658 . S
Tb41 O69 2.409 . S
Tb41 O70 2.378 . S
C42 Tb40 2.809 . S
C42 C43 1.514 . S
C42 O60 1.248 . S
C42 O61 1.266 . S
C43 C42 1.514 . S
C43 C44 1.359 . S
C43 C48 1.348 . S
C44 C43 1.359 . S
C44 C45 1.380 . S
C44 H72 0.929 . S
C45 C44 1.380 . S
C45 C46 1.347 . S
C45 H73 0.931 . S
C46 C45 1.347 . S
C46 C47 1.369 . S
C47 C46 1.369 . S
C47 C48 1.408 . S
C47 H74 0.930 . S
C48 C43 1.348 . S
C48 C47 1.408 . S
C48 H75 0.930 . S
C49 O62 1.281 . S
C49 O63 1.254 . S
C50 O64 1.236 . S
C50 O65 1.266 . S
C51 Tb41 2.809 . S
C51 C52 1.514 . S
C51 O66 1.248 . S
C51 O67 1.266 . S
C52 C51 1.514 . S
C52 C53 1.359 . S
C52 C57 1.348 . S
C53 C52 1.359 . S
C53 C54 1.380 . S
C53 H76 0.929 . S
C54 C53 1.380 . S
C54 C55 1.347 . S
C54 H77 0.931 . S
C55 C54 1.347 . S
C55 C56 1.369 . S
C56 C55 1.369 . S
C56 C57 1.408 . S
C56 H78 0.930 . S
C57 C52 1.348 . S
C57 C56 1.408 . S
C57 H79 0.930 . S
C58 O68 1.281 . S
C58 O69 1.254 . S
C59 O70 1.236 . S
C59 O71 1.266 . S
O60 Tb40 2.484 . S
O60 C42 1.248 . S
O61 Tb40 2.440 . S
O61 C42 1.266 . S
O62 Tb40 2.658 . S
O62 Tb41 2.325 . S
O62 C49 1.281 . S
O63 Tb40 2.409 . S
O63 C49 1.254 . S
O64 Tb40 2.378 . S
O64 C50 1.236 . S
O65 Tb41 2.341 . S
O65 C50 1.266 . S
O66 Tb41 2.484 . S
O66 C51 1.248 . S
O67 Tb41 2.440 . S
O67 C51 1.266 . S
O68 Tb40 2.325 . S
O68 Tb41 2.658 . S
O68 C58 1.281 . S
O69 Tb41 2.409 . S
O69 C58 1.254 . S
O70 Tb41 2.378 . S
O70 C59 1.236 . S
O71 Tb40 2.341 . S
O71 C59 1.266 . S
H72 C44 0.929 . S
H73 C45 0.931 . S
H74 C47 0.930 . S
H75 C48 0.930 . S
H76 C53 0.929 . S
H77 C54 0.931 . S
H78 C56 0.930 . S
H79 C57 0.930 . S
Tb80 C82 2.809 . S
Tb80 O100 2.484 . S
Tb80 O101 2.440 . S
Tb80 O102 2.658 . S
Tb80 O103 2.409 . S
Tb80 O104 2.378 . S
Tb80 O108 2.325 . S
Tb80 O111 2.341 . S
Tb81 C91 2.809 . S
Tb81 O102 2.325 . S
Tb81 O105 2.341 . S
Tb81 O106 2.484 . S
Tb81 O107 2.440 . S
Tb81 O108 2.658 . S
Tb81 O109 2.409 . S
Tb81 O110 2.378 . S
C82 Tb80 2.809 . S
C82 C83 1.514 . S
C82 O100 1.248 . S
C82 O101 1.266 . S
C83 C82 1.514 . S
C83 C84 1.359 . S
C83 C88 1.348 . S
C84 C83 1.359 . S
C84 C85 1.380 . S
C84 H112 0.929 . S
C85 C84 1.380 . S
C85 C86 1.347 . S
C85 H113 0.931 . S
C86 C85 1.347 . S
C86 C87 1.369 . S
C87 C86 1.369 . S
C87 C88 1.408 . S
C87 H114 0.930 . S
C88 C83 1.348 . S
C88 C87 1.408 . S
C88 H115 0.930 . S
C89 O102 1.281 . S
C89 O103 1.254 . S
C90 O104 1.236 . S
C90 O105 1.266 . S
C91 Tb81 2.809 . S
C91 C92 1.514 . S
C91 O106 1.248 . S
C91 O107 1.266 . S
C92 C91 1.514 . S
C92 C93 1.359 . S
C92 C97 1.348 . S
C93 C92 1.359 . S
C93 C94 1.380 . S
C93 H116 0.929 . S
C94 C93 1.380 . S
C94 C95 1.347 . S
C94 H117 0.931 . S
C95 C94 1.347 . S
C95 C96 1.369 . S
C96 C95 1.369 . S
C96 C97 1.408 . S
C96 H118 0.930 . S
C97 C92 1.348 . S
C97 C96 1.408 . S
C97 H119 0.930 . S
C98 O108 1.281 . S
C98 O109 1.254 . S
C99 O110 1.236 . S
C99 O111 1.266 . S
O100 Tb80 2.484 . S
O100 C82 1.248 . S
O101 Tb80 2.440 . S
O101 C82 1.266 . S
O102 Tb80 2.658 . S
O102 Tb81 2.325 . S
O102 C89 1.281 . S
O103 Tb80 2.409 . S
O103 C89 1.254 . S
O104 Tb80 2.378 . S
O104 C90 1.236 . S
O105 Tb81 2.341 . S
O105 C90 1.266 . S
O106 Tb81 2.484 . S
O106 C91 1.248 . S
O107 Tb81 2.440 . S
O107 C91 1.266 . S
O108 Tb80 2.325 . S
O108 Tb81 2.658 . S
O108 C98 1.281 . S
O109 Tb81 2.409 . S
O109 C98 1.254 . S
O110 Tb81 2.378 . S
O110 C99 1.236 . S
O111 Tb80 2.341 . S
O111 C99 1.266 . S
H112 C84 0.929 . S
H113 C85 0.931 . S
H114 C87 0.930 . S
H115 C88 0.930 . S
H116 C93 0.929 . S
H117 C94 0.931 . S
H118 C96 0.930 . S
H119 C97 0.930 . S
Tb120 C122 2.809 . S
Tb120 O140 2.484 . S
Tb120 O141 2.440 . S
Tb120 O142 2.658 . S
Tb120 O143 2.409 . S
Tb120 O144 2.378 . S
Tb120 O148 2.325 . S
Tb120 O151 2.341 . S
Tb121 C131 2.809 . S
Tb121 O142 2.325 . S
Tb121 O145 2.341 . S
Tb121 O146 2.484 . S
Tb121 O147 2.440 . S
Tb121 O148 2.658 . S
Tb121 O149 2.409 . S
Tb121 O150 2.378 . S
C122 Tb120 2.809 . S
C122 C123 1.514 . S
C122 O140 1.248 . S
C122 O141 1.266 . S
C123 C122 1.514 . S
C123 C124 1.359 . S
C123 C128 1.348 . S
C124 C123 1.359 . S
C124 C125 1.380 . S
C124 H152 0.929 . S
C125 C124 1.380 . S
C125 C126 1.347 . S
C125 H153 0.931 . S
C126 C125 1.347 . S
C126 C127 1.369 . S
C127 C126 1.369 . S
C127 C128 1.408 . S
C127 H154 0.930 . S
C128 C123 1.348 . S
C128 C127 1.408 . S
C128 H155 0.930 . S
C129 O142 1.281 . S
C129 O143 1.254 . S
C130 O144 1.236 . S
C130 O145 1.266 . S
C131 Tb121 2.809 . S
C131 C132 1.514 . S
C131 O146 1.248 . S
C131 O147 1.266 . S
C132 C131 1.514 . S
C132 C133 1.359 . S
C132 C137 1.348 . S
C133 C132 1.359 . S
C133 C134 1.380 . S
C133 H156 0.929 . S
C134 C133 1.380 . S
C134 C135 1.347 . S
C134 H157 0.931 . S
C135 C134 1.347 . S
C135 C136 1.369 . S
C136 C135 1.369 . S
C136 C137 1.408 . S
C136 H158 0.930 . S
C137 C132 1.348 . S
C137 C136 1.408 . S
C137 H159 0.930 . S
C138 O148 1.281 . S
C138 O149 1.254 . S
C139 O150 1.236 . S
C139 O151 1.266 . S
O140 Tb120 2.484 . S
O140 C122 1.248 . S
O141 Tb120 2.440 . S
O141 C122 1.266 . S
O142 Tb120 2.658 . S
O142 Tb121 2.325 . S
O142 C129 1.281 . S
O143 Tb120 2.409 . S
O143 C129 1.254 . S
O144 Tb120 2.378 . S
O144 C130 1.236 . S
O145 Tb121 2.341 . S
O145 C130 1.266 . S
O146 Tb121 2.484 . S
O146 C131 1.248 . S
O147 Tb121 2.440 . S
O147 C131 1.266 . S
O148 Tb120 2.325 . S
O148 Tb121 2.658 . S
O148 C138 1.281 . S
O149 Tb121 2.409 . S
O149 C138 1.254 . S
O150 Tb121 2.378 . S
O150 C139 1.236 . S
O151 Tb120 2.341 . S
O151 C139 1.266 . S
H152 C124 0.929 . S
H153 C125 0.931 . S
H154 C127 0.930 . S
H155 C128 0.930 . S
H156 C133 0.929 . S
H157 C134 0.931 . S
H158 C136 0.930 . S
H159 C137 0.930 . S
Tb160 C162 2.809 1_556 S
Tb160 O180 2.484 1_556 S
Tb160 O181 2.440 1_556 S
Tb160 O182 2.658 . S
Tb160 O183 2.409 . S
Tb160 O184 2.378 1_556 S
Tb160 O188 2.325 1_556 S
Tb160 O191 2.341 . S
Tb161 C171 2.809 1_554 S
Tb161 O182 2.325 1_554 S
Tb161 O185 2.341 . S
Tb161 O186 2.484 1_554 S
Tb161 O187 2.440 1_554 S
Tb161 O188 2.658 . S
Tb161 O189 2.409 . S
Tb161 O190 2.378 1_554 S
C162 Tb160 2.809 1_554 S
C162 C163 1.514 . S
C162 O180 1.248 . S
C162 O181 1.266 . S
C163 C162 1.514 . S
C163 C164 1.359 . S
C163 C168 1.348 . S
C164 C163 1.359 . S
C164 C165 1.380 . S
C164 H192 0.929 . S
C165 C164 1.380 . S
C165 C166 1.347 . S
C165 H193 0.931 . S
C166 C165 1.347 . S
C166 C167 1.369 . S
C167 C166 1.369 . S
C167 C168 1.408 . S
C167 H194 0.930 . S
C168 C163 1.348 . S
C168 C167 1.408 . S
C168 H195 0.930 . S
C169 O182 1.281 . S
C169 O183 1.254 . S
C170 O184 1.236 . S
C170 O185 1.266 . S
C171 Tb161 2.809 1_556 S
C171 C172 1.514 . S
C171 O186 1.248 . S
C171 O187 1.266 . S
C172 C171 1.514 . S
C172 C173 1.359 . S
C172 C177 1.348 . S
C173 C172 1.359 . S
C173 C174 1.380 . S
C173 H196 0.929 . S
C174 C173 1.380 . S
C174 C175 1.347 . S
C174 H197 0.931 . S
C175 C174 1.347 . S
C175 C176 1.369 . S
C176 C175 1.369 . S
C176 C177 1.408 . S
C176 H198 0.930 . S
C177 C172 1.348 . S
C177 C176 1.408 . S
C177 H199 0.930 . S
C178 O188 1.281 . S
C178 O189 1.254 . S
C179 O190 1.236 . S
C179 O191 1.266 . S
O180 Tb160 2.484 1_554 S
O180 C162 1.248 . S
O181 Tb160 2.440 1_554 S
O181 C162 1.266 . S
O182 Tb160 2.658 . S
O182 Tb161 2.325 1_556 S
O182 C169 1.281 . S
O183 Tb160 2.409 . S
O183 C169 1.254 . S
O184 Tb160 2.378 1_554 S
O184 C170 1.236 . S
O185 Tb161 2.341 . S
O185 C170 1.266 . S
O186 Tb161 2.484 1_556 S
O186 C171 1.248 . S
O187 Tb161 2.440 1_556 S
O187 C171 1.266 . S
O188 Tb160 2.325 1_554 S
O188 Tb161 2.658 . S
O188 C178 1.281 . S
O189 Tb161 2.409 . S
O189 C178 1.254 . S
O190 Tb161 2.378 1_556 S
O190 C179 1.236 . S
O191 Tb160 2.341 . S
O191 C179 1.266 . S
H192 C164 0.929 . S
H193 C165 0.931 . S
H194 C167 0.930 . S
H195 C168 0.930 . S
H196 C173 0.929 . S
H197 C174 0.931 . S
H198 C176 0.930 . S
H199 C177 0.930 . S
Tb200 C202 2.809 1_556 S
Tb200 O220 2.484 1_556 S
Tb200 O221 2.440 1_556 S
Tb200 O222 2.658 . S
Tb200 O223 2.409 . S
Tb200 O224 2.378 1_556 S
Tb200 O228 2.325 1_556 S
Tb200 O231 2.341 . S
Tb201 C211 2.809 1_554 S
Tb201 O222 2.325 1_554 S
Tb201 O225 2.341 . S
Tb201 O226 2.484 1_554 S
Tb201 O227 2.440 1_554 S
Tb201 O228 2.658 . S
Tb201 O229 2.409 . S
Tb201 O230 2.378 1_554 S
C202 Tb200 2.809 1_554 S
C202 C203 1.514 . S
C202 O220 1.248 . S
C202 O221 1.266 . S
C203 C202 1.514 . S
C203 C204 1.359 . S
C203 C208 1.348 . S
C204 C203 1.359 . S
C204 C205 1.380 . S
C204 H232 0.929 . S
C205 C204 1.380 . S
C205 C206 1.347 . S
C205 H233 0.931 . S
C206 C205 1.347 . S
C206 C207 1.369 . S
C207 C206 1.369 . S
C207 C208 1.408 . S
C207 H234 0.930 . S
C208 C203 1.348 . S
C208 C207 1.408 . S
C208 H235 0.930 . S
C209 O222 1.281 . S
C209 O223 1.254 . S
C210 O224 1.236 . S
C210 O225 1.266 . S
C211 Tb201 2.809 1_556 S
C211 C212 1.514 . S
C211 O226 1.248 . S
C211 O227 1.266 . S
C212 C211 1.514 . S
C212 C213 1.359 . S
C212 C217 1.348 . S
C213 C212 1.359 . S
C213 C214 1.380 . S
C213 H236 0.929 . S
C214 C213 1.380 . S
C214 C215 1.347 . S
C214 H237 0.931 . S
C215 C214 1.347 . S
C215 C216 1.369 . S
C216 C215 1.369 . S
C216 C217 1.408 . S
C216 H238 0.930 . S
C217 C212 1.348 . S
C217 C216 1.408 . S
C217 H239 0.930 . S
C218 O228 1.281 . S
C218 O229 1.254 . S
C219 O230 1.236 . S
C219 O231 1.266 . S
O220 Tb200 2.484 1_554 S
O220 C202 1.248 . S
O221 Tb200 2.440 1_554 S
O221 C202 1.266 . S
O222 Tb200 2.658 . S
O222 Tb201 2.325 1_556 S
O222 C209 1.281 . S
O223 Tb200 2.409 . S
O223 C209 1.254 . S
O224 Tb200 2.378 1_554 S
O224 C210 1.236 . S
O225 Tb201 2.341 . S
O225 C210 1.266 . S
O226 Tb201 2.484 1_556 S
O226 C211 1.248 . S
O227 Tb201 2.440 1_556 S
O227 C211 1.266 . S
O228 Tb200 2.325 1_554 S
O228 Tb201 2.658 . S
O228 C218 1.281 . S
O229 Tb201 2.409 . S
O229 C218 1.254 . S
O230 Tb201 2.378 1_556 S
O230 C219 1.236 . S
O231 Tb200 2.341 . S
O231 C219 1.266 . S
H232 C204 0.929 . S
H233 C205 0.931 . S
H234 C207 0.930 . S
H235 C208 0.930 . S
H236 C213 0.929 . S
H237 C214 0.931 . S
H238 C216 0.930 . S
H239 C217 0.930 . S
Tb240 C242 2.809 1_554 S
Tb240 O260 2.484 1_554 S
Tb240 O261 2.440 1_554 S
Tb240 O262 2.658 . S
Tb240 O263 2.409 . S
Tb240 O264 2.378 1_554 S
Tb240 O268 2.325 1_554 S
Tb240 O271 2.341 . S
Tb241 C251 2.809 1_556 S
Tb241 O262 2.325 1_556 S
Tb241 O265 2.341 . S
Tb241 O266 2.484 1_556 S
Tb241 O267 2.440 1_556 S
Tb241 O268 2.658 . S
Tb241 O269 2.409 . S
Tb241 O270 2.378 1_556 S
C242 Tb240 2.809 1_556 S
C242 C243 1.514 . S
C242 O260 1.248 . S
C242 O261 1.266 . S
C243 C242 1.514 . S
C243 C244 1.359 . S
C243 C248 1.348 . S
C244 C243 1.359 . S
C244 C245 1.380 . S
C244 H272 0.929 . S
C245 C244 1.380 . S
C245 C246 1.347 . S
C245 H273 0.931 . S
C246 C245 1.347 . S
C246 C247 1.369 . S
C247 C246 1.369 . S
C247 C248 1.408 . S
C247 H274 0.930 . S
C248 C243 1.348 . S
C248 C247 1.408 . S
C248 H275 0.930 . S
C249 O262 1.281 . S
C249 O263 1.254 . S
C250 O264 1.236 . S
C250 O265 1.266 . S
C251 Tb241 2.809 1_554 S
C251 C252 1.514 . S
C251 O266 1.248 . S
C251 O267 1.266 . S
C252 C251 1.514 . S
C252 C253 1.359 . S
C252 C257 1.348 . S
C253 C252 1.359 . S
C253 C254 1.380 . S
C253 H276 0.929 . S
C254 C253 1.380 . S
C254 C255 1.347 . S
C254 H277 0.931 . S
C255 C254 1.347 . S
C255 C256 1.369 . S
C256 C255 1.369 . S
C256 C257 1.408 . S
C256 H278 0.930 . S
C257 C252 1.348 . S
C257 C256 1.408 . S
C257 H279 0.930 . S
C258 O268 1.281 . S
C258 O269 1.254 . S
C259 O270 1.236 . S
C259 O271 1.266 . S
O260 Tb240 2.484 1_556 S
O260 C242 1.248 . S
O261 Tb240 2.440 1_556 S
O261 C242 1.266 . S
O262 Tb240 2.658 . S
O262 Tb241 2.325 1_554 S
O262 C249 1.281 . S
O263 Tb240 2.409 . S
O263 C249 1.254 . S
O264 Tb240 2.378 1_556 S
O264 C250 1.236 . S
O265 Tb241 2.341 . S
O265 C250 1.266 . S
O266 Tb241 2.484 1_554 S
O266 C251 1.248 . S
O267 Tb241 2.440 1_554 S
O267 C251 1.266 . S
O268 Tb240 2.325 1_556 S
O268 Tb241 2.658 . S
O268 C258 1.281 . S
O269 Tb241 2.409 . S
O269 C258 1.254 . S
O270 Tb241 2.378 1_554 S
O270 C259 1.236 . S
O271 Tb240 2.341 . S
O271 C259 1.266 . S
H272 C244 0.929 . S
H273 C245 0.931 . S
H274 C247 0.930 . S
H275 C248 0.930 . S
H276 C253 0.929 . S
H277 C254 0.931 . S
H278 C256 0.930 . S
H279 C257 0.930 . S
Tb280 C282 2.809 1_554 S
Tb280 O300 2.484 1_554 S
Tb280 O301 2.440 1_554 S
Tb280 O302 2.658 . S
Tb280 O303 2.409 . S
Tb280 O304 2.378 1_554 S
Tb280 O308 2.325 1_554 S
Tb280 O311 2.341 . S
Tb281 C291 2.809 1_556 S
Tb281 O302 2.325 1_556 S
Tb281 O305 2.341 . S
Tb281 O306 2.484 1_556 S
Tb281 O307 2.440 1_556 S
Tb281 O308 2.658 . S
Tb281 O309 2.409 . S
Tb281 O310 2.378 1_556 S
C282 Tb280 2.809 1_556 S
C282 C283 1.514 . S
C282 O300 1.248 . S
C282 O301 1.266 . S
C283 C282 1.514 . S
C283 C284 1.359 . S
C283 C288 1.348 . S
C284 C283 1.359 . S
C284 C285 1.380 . S
C284 H312 0.929 . S
C285 C284 1.380 . S
C285 C286 1.347 . S
C285 H313 0.931 . S
C286 C285 1.347 . S
C286 C287 1.369 . S
C287 C286 1.369 . S
C287 C288 1.408 . S
C287 H314 0.930 . S
C288 C283 1.348 . S
C288 C287 1.408 . S
C288 H315 0.930 . S
C289 O302 1.281 . S
C289 O303 1.254 . S
C290 O304 1.236 . S
C290 O305 1.266 . S
C291 Tb281 2.809 1_554 S
C291 C292 1.514 . S
C291 O306 1.248 . S
C291 O307 1.266 . S
C292 C291 1.514 . S
C292 C293 1.359 . S
C292 C297 1.348 . S
C293 C292 1.359 . S
C293 C294 1.380 . S
C293 H316 0.929 . S
C294 C293 1.380 . S
C294 C295 1.347 . S
C294 H317 0.931 . S
C295 C294 1.347 . S
C295 C296 1.369 . S
C296 C295 1.369 . S
C296 C297 1.408 . S
C296 H318 0.930 . S
C297 C292 1.348 . S
C297 C296 1.408 . S
C297 H319 0.930 . S
C298 O308 1.281 . S
C298 O309 1.254 . S
C299 O310 1.236 . S
C299 O311 1.266 . S
O300 Tb280 2.484 1_556 S
O300 C282 1.248 . S
O301 Tb280 2.440 1_556 S
O301 C282 1.266 . S
O302 Tb280 2.658 . S
O302 Tb281 2.325 1_554 S
O302 C289 1.281 . S
O303 Tb280 2.409 . S
O303 C289 1.254 . S
O304 Tb280 2.378 1_556 S
O304 C290 1.236 . S
O305 Tb281 2.341 . S
O305 C290 1.266 . S
O306 Tb281 2.484 1_554 S
O306 C291 1.248 . S
O307 Tb281 2.440 1_554 S
O307 C291 1.266 . S
O308 Tb280 2.325 1_556 S
O308 Tb281 2.658 . S
O308 C298 1.281 . S
O309 Tb281 2.409 . S
O309 C298 1.254 . S
O310 Tb281 2.378 1_554 S
O310 C299 1.236 . S
O311 Tb280 2.341 . S
O311 C299 1.266 . S
H312 C284 0.929 . S
H313 C285 0.931 . S
H314 C287 0.930 . S
H315 C288 0.930 . S
H316 C293 0.929 . S
H317 C294 0.931 . S
H318 C296 0.930 . S
H319 C297 0.930 . S
H320 C328 0.950 . S
H321 C333 0.950 . S
H322 C330 0.950 . S
H323 C332 0.950 . S
H324 C334 0.950 . S
H325 C336 0.950 . S
H326 C338 0.950 . S
H327 C339 0.950 . S
C328 H320 0.950 . S
C328 C329 1.386 . S
C328 C330 1.391 . S
C329 C328 1.386 . S
C329 C333 1.393 . S
C330 H322 0.950 . S
C330 C328 1.391 . S
C330 C331 1.400 . S
C331 C330 1.400 . S
C331 C332 1.398 . S
C331 C337 1.491 . S
C332 H323 0.950 . S
C332 C331 1.398 . S
C332 C333 1.391 . S
C333 H321 0.950 . S
C333 C329 1.393 . S
C333 C332 1.391 . S
C334 H324 0.950 . S
C334 C335 1.386 . S
C334 C336 1.391 . S
C335 C334 1.386 . S
C335 C339 1.393 . S
C336 H325 0.950 . S
C336 C334 1.391 . S
C336 C337 1.400 . S
C337 C331 1.491 . S
C337 C336 1.400 . S
C337 C338 1.398 . S
C338 H326 0.950 . S
C338 C337 1.398 . S
C338 C339 1.391 . S
C339 H327 0.950 . S
C339 C335 1.393 . S
C339 C338 1.391 . S
H340 C348 0.950 . S
H341 C353 0.950 . S
H342 C350 0.950 . S
H343 C352 0.950 . S
H344 C354 0.950 . S
H345 C356 0.950 . S
H346 C358 0.950 . S
H347 C359 0.950 . S
C348 H340 0.950 . S
C348 C349 1.386 . S
C348 C350 1.391 . S
C349 C348 1.386 . S
C349 C353 1.393 . S
C350 H342 0.950 . S
C350 C348 1.391 . S
C350 C351 1.400 . S
C351 C350 1.400 . S
C351 C352 1.398 . S
C351 C357 1.491 . S
C352 H343 0.950 . S
C352 C351 1.398 . S
C352 C353 1.391 . S
C353 H341 0.950 . S
C353 C349 1.393 . S
C353 C352 1.391 . S
C354 H344 0.950 . S
C354 C355 1.386 . S
C354 C356 1.391 . S
C355 C354 1.386 . S
C355 C359 1.393 . S
C356 H345 0.950 . S
C356 C354 1.391 . S
C356 C357 1.400 . S
C357 C351 1.491 . S
C357 C356 1.400 . S
C357 C358 1.398 . S
C358 H346 0.950 . S
C358 C357 1.398 . S
C358 C359 1.391 . S
C359 H347 0.950 . S
C359 C355 1.393 . S
C359 C358 1.391 . S
H360 C368 0.950 . S
H361 C373 0.950 . S
H362 C370 0.950 . S
H363 C372 0.950 . S
H364 C374 0.950 . S
H365 C376 0.950 . S
H366 C378 0.950 . S
H367 C379 0.950 . S
C368 H360 0.950 . S
C368 C369 1.386 . S
C368 C370 1.391 . S
C369 C368 1.386 . S
C369 C373 1.393 . S
C370 H362 0.950 . S
C370 C368 1.391 . S
C370 C371 1.400 . S
C371 C370 1.400 . S
C371 C372 1.398 . S
C371 C377 1.491 . S
C372 H363 0.950 . S
C372 C371 1.398 . S
C372 C373 1.391 . S
C373 H361 0.950 . S
C373 C369 1.393 . S
C373 C372 1.391 . S
C374 H364 0.950 . S
C374 C375 1.386 . S
C374 C376 1.391 . S
C375 C374 1.386 . S
C375 C379 1.393 . S
C376 H365 0.950 . S
C376 C374 1.391 . S
C376 C377 1.400 . S
C377 C371 1.491 . S
C377 C376 1.400 . S
C377 C378 1.398 . S
C378 H366 0.950 . S
C378 C377 1.398 . S
C378 C379 1.391 . S
C379 H367 0.950 . S
C379 C375 1.393 . S
C379 C378 1.391 . S
H380 C388 0.950 . S
H381 C393 0.950 . S
H382 C390 0.950 . S
H383 C392 0.950 . S
H384 C394 0.950 . S
H385 C396 0.950 . S
H386 C398 0.950 . S
H387 C399 0.950 . S
C388 H380 0.950 . S
C388 C389 1.386 . S
C388 C390 1.391 . S
C389 C388 1.386 . S
C389 C393 1.393 . S
C390 H382 0.950 . S
C390 C388 1.391 . S
C390 C391 1.400 . S
C391 C390 1.400 . S
C391 C392 1.398 . S
C391 C397 1.491 . S
C392 H383 0.950 . S
C392 C391 1.398 . S
C392 C393 1.391 . S
C393 H381 0.950 . S
C393 C389 1.393 . S
C393 C392 1.391 . S
C394 H384 0.950 . S
C394 C395 1.386 . S
C394 C396 1.391 . S
C395 C394 1.386 . S
C395 C399 1.393 . S
C396 H385 0.950 . S
C396 C394 1.391 . S
C396 C397 1.400 . S
C397 C391 1.491 . S
C397 C396 1.400 . S
C397 C398 1.398 . S
C398 H386 0.950 . S
C398 C397 1.398 . S
C398 C399 1.391 . S
C399 H387 0.950 . S
C399 C395 1.393 . S
C399 C398 1.391 . S
H400 C408 0.950 . S
H401 C413 0.950 . S
H402 C410 0.950 . S
H403 C412 0.950 . S
H404 C414 0.950 . S
H405 C416 0.950 . S
H406 C418 0.950 . S
H407 C419 0.950 . S
C408 H400 0.950 . S
C408 C409 1.386 . S
C408 C410 1.391 . S
C409 C408 1.386 . S
C409 C413 1.393 . S
C410 H402 0.950 . S
C410 C408 1.391 . S
C410 C411 1.400 . S
C411 C410 1.400 . S
C411 C412 1.398 . S
C411 C417 1.491 1_565 S
C412 H403 0.950 . S
C412 C411 1.398 . S
C412 C413 1.391 . S
C413 H401 0.950 . S
C413 C409 1.393 . S
C413 C412 1.391 . S
C414 H404 0.950 . S
C414 C415 1.386 . S
C414 C416 1.391 . S
C415 C414 1.386 . S
C415 C419 1.393 . S
C416 H405 0.950 . S
C416 C414 1.391 . S
C416 C417 1.400 . S
C417 C411 1.491 1_545 S
C417 C416 1.400 . S
C417 C418 1.398 . S
C418 H406 0.950 . S
C418 C417 1.398 . S
C418 C419 1.391 . S
C419 H407 0.950 . S
C419 C415 1.393 . S
C419 C418 1.391 . S
H420 C428 0.950 . S
H421 C433 0.950 . S
H422 C430 0.950 . S
H423 C432 0.950 . S
H424 C434 0.950 . S
H425 C436 0.950 . S
H426 C438 0.950 . S
H427 C439 0.950 . S
C428 H420 0.950 . S
C428 C429 1.386 . S
C428 C430 1.391 . S
C429 C428 1.386 . S
C429 C433 1.393 . S
C430 H422 0.950 . S
C430 C428 1.391 . S
C430 C431 1.400 . S
C431 C430 1.400 . S
C431 C432 1.398 . S
C431 C437 1.491 . S
C432 H423 0.950 . S
C432 C431 1.398 . S
C432 C433 1.391 . S
C433 H421 0.950 . S
C433 C429 1.393 . S
C433 C432 1.391 . S
C434 H424 0.950 . S
C434 C435 1.386 . S
C434 C436 1.391 . S
C435 C434 1.386 . S
C435 C439 1.393 . S
C436 H425 0.950 . S
C436 C434 1.391 . S
C436 C437 1.400 . S
C437 C431 1.491 . S
C437 C436 1.400 . S
C437 C438 1.398 . S
C438 H426 0.950 . S
C438 C437 1.398 . S
C438 C439 1.391 . S
C439 H427 0.950 . S
C439 C435 1.393 . S
C439 C438 1.391 . S
H440 C448 0.950 . S
H441 C453 0.950 . S
H442 C450 0.950 . S
H443 C452 0.950 . S
H444 C454 0.950 . S
H445 C456 0.950 . S
H446 C458 0.950 . S
H447 C459 0.950 . S
C448 H440 0.950 . S
C448 C449 1.386 . S
C448 C450 1.391 . S
C449 C448 1.386 . S
C449 C453 1.393 . S
C450 H442 0.950 . S
C450 C448 1.391 . S
C450 C451 1.400 . S
C451 C450 1.400 . S
C451 C452 1.398 . S
C451 C457 1.491 1_565 S
C452 H443 0.950 . S
C452 C451 1.398 . S
C452 C453 1.391 . S
C453 H441 0.950 . S
C453 C449 1.393 . S
C453 C452 1.391 . S
C454 H444 0.950 . S
C454 C455 1.386 . S
C454 C456 1.391 . S
C455 C454 1.386 . S
C455 C459 1.393 . S
C456 H445 0.950 . S
C456 C454 1.391 . S
C456 C457 1.400 . S
C457 C451 1.491 1_545 S
C457 C456 1.400 . S
C457 C458 1.398 . S
C458 H446 0.950 . S
C458 C457 1.398 . S
C458 C459 1.391 . S
C459 H447 0.950 . S
C459 C455 1.393 . S
C459 C458 1.391 . S
H460 C468 0.950 . S
H461 C473 0.950 . S
H462 C470 0.950 . S
H463 C472 0.950 . S
H464 C474 0.950 . S
H465 C476 0.950 . S
H466 C478 0.950 . S
H467 C479 0.950 . S
C468 H460 0.950 . S
C468 C469 1.386 . S
C468 C470 1.391 . S
C469 C468 1.386 . S
C469 C473 1.393 . S
C470 H462 0.950 . S
C470 C468 1.391 . S
C470 C471 1.400 . S
C471 C470 1.400 . S
C471 C472 1.398 . S
C471 C477 1.491 . S
C472 H463 0.950 . S
C472 C471 1.398 . S
C472 C473 1.391 . S
C473 H461 0.950 . S
C473 C469 1.393 . S
C473 C472 1.391 . S
C474 H464 0.950 . S
C474 C475 1.386 . S
C474 C476 1.391 . S
C475 C474 1.386 . S
C475 C479 1.393 . S
C476 H465 0.950 . S
C476 C474 1.391 . S
C476 C477 1.400 . S
C477 C471 1.491 . S
C477 C476 1.400 . S
C477 C478 1.398 . S
C478 H466 0.950 . S
C478 C477 1.398 . S
C478 C479 1.391 . S
C479 H467 0.950 . S
C479 C475 1.393 . S
C479 C478 1.391 . S
H480 C488 0.950 . S
H481 C493 0.950 . S
H482 C490 0.950 . S
H483 C492 0.950 . S
H484 C494 0.950 . S
H485 C496 0.950 . S
H486 C498 0.950 . S
H487 C499 0.950 . S
C488 H480 0.950 . S
C488 C489 1.386 1_554 S
C488 C490 1.391 . S
C489 C488 1.386 1_556 S
C489 C493 1.393 . S
C490 H482 0.950 . S
C490 C488 1.391 . S
C490 C491 1.400 1_554 S
C491 C490 1.400 1_556 S
C491 C492 1.398 . S
C491 C497 1.491 1_556 S
C492 H483 0.950 . S
C492 C491 1.398 . S
C492 C493 1.391 . S
C493 H481 0.950 . S
C493 C489 1.393 . S
C493 C492 1.391 . S
C494 H484 0.950 . S
C494 C495 1.386 1_556 S
C494 C496 1.391 . S
C495 C494 1.386 1_554 S
C495 C499 1.393 . S
C496 H485 0.950 . S
C496 C494 1.391 . S
C496 C497 1.400 1_556 S
C497 C491 1.491 1_554 S
C497 C496 1.400 1_554 S
C497 C498 1.398 . S
C498 H486 0.950 . S
C498 C497 1.398 . S
C498 C499 1.391 . S
C499 H487 0.950 . S
C499 C495 1.393 . S
C499 C498 1.391 . S
H500 C508 0.950 . S
H501 C513 0.950 . S
H502 C510 0.950 . S
H503 C512 0.950 . S
H504 C514 0.950 . S
H505 C516 0.950 . S
H506 C518 0.950 . S
H507 C519 0.950 . S
C508 H500 0.950 . S
C508 C509 1.380 1_554 S
C508 C510 1.391 . S
C509 C508 1.380 1_556 S
C509 C513 1.399 . S
C510 H502 0.950 . S
C510 C508 1.391 . S
C510 C511 1.396 1_554 S
C511 C510 1.396 1_556 S
C511 C512 1.403 . S
C511 C517 1.490 1_566 S
C512 H503 0.950 . S
C512 C511 1.403 . S
C512 C513 1.391 . S
C513 H501 0.950 . S
C513 C509 1.399 . S
C513 C512 1.391 . S
C514 H504 0.950 . S
C514 C515 1.377 1_556 S
C514 C516 1.391 . S
C515 C514 1.377 1_554 S
C515 C519 1.401 . S
C516 H505 0.950 . S
C516 C514 1.391 . S
C516 C517 1.393 1_556 S
C517 C511 1.490 1_544 S
C517 C516 1.393 1_554 S
C517 C518 1.405 . S
C518 H506 0.950 . S
C518 C517 1.405 . S
C518 C519 1.391 . S
C519 H507 0.950 . S
C519 C515 1.401 . S
C519 C518 1.391 . S
H520 C528 0.950 . S
H521 C533 0.950 . S
H522 C530 0.950 . S
H523 C532 0.950 . S
H524 C534 0.950 . S
H525 C536 0.950 . S
H526 C538 0.950 . S
H527 C539 0.950 . S
C528 H520 0.950 . S
C528 C529 1.376 1_554 S
C528 C530 1.391 . S
C529 C528 1.376 1_556 S
C529 C533 1.403 . S
C530 H522 0.950 . S
C530 C528 1.391 . S
C530 C531 1.392 1_554 S
C531 C530 1.392 1_556 S
C531 C532 1.407 . S
C531 C537 1.490 1_556 S
C532 H523 0.950 . S
C532 C531 1.407 . S
C532 C533 1.391 . S
C533 H521 0.950 . S
C533 C529 1.403 . S
C533 C532 1.391 . S
C534 H524 0.950 . S
C534 C535 1.378 1_556 S
C534 C536 1.391 . S
C535 C534 1.378 1_554 S
C535 C539 1.401 . S
C536 H525 0.950 . S
C536 C534 1.391 . S
C536 C537 1.395 1_556 S
C537 C531 1.490 1_554 S
C537 C536 1.395 1_554 S
C537 C538 1.404 . S
C538 H526 0.950 . S
C538 C537 1.404 . S
C538 C539 1.391 . S
C539 H527 0.950 . S
C539 C535 1.401 . S
C539 C538 1.391 . S
H540 C548 0.950 . S
H541 C553 0.950 . S
H542 C550 0.950 . S
H543 C552 0.950 . S
H544 C554 0.950 . S
H545 C556 0.950 . S
H546 C558 0.950 . S
H547 C559 0.950 . S
C548 H540 0.950 . S
C548 C549 1.380 1_554 S
C548 C550 1.391 . S
C549 C548 1.380 1_556 S
C549 C553 1.398 . S
C550 H542 0.950 . S
C550 C548 1.391 . S
C550 C551 1.394 1_554 S
C551 C550 1.394 1_556 S
C551 C552 1.404 . S
C551 C557 1.491 1_546 S
C552 H543 0.950 . S
C552 C551 1.404 . S
C552 C553 1.391 . S
C553 H541 0.950 . S
C553 C549 1.398 . S
C553 C552 1.391 . S
C554 H544 0.950 . S
C554 C555 1.383 1_556 S
C554 C556 1.391 . S
C555 C554 1.383 1_554 S
C555 C559 1.395 . S
C556 H545 0.950 . S
C556 C554 1.391 . S
C556 C557 1.397 1_556 S
C557 C551 1.491 1_564 S
C557 C556 1.397 1_554 S
C557 C558 1.401 . S
C558 H546 0.950 . S
C558 C557 1.401 . S
C558 C559 1.391 . S
C559 H547 0.950 . S
C559 C555 1.395 . S
C559 C558 1.391 . S
H560 C568 0.950 . S
H561 C573 0.950 . S
H562 C570 0.950 . S
H563 C572 0.950 1_556 S
H564 C574 0.950 . S
H565 C576 0.950 . S
H566 C578 0.950 . S
H567 C579 0.950 . S
C568 H560 0.950 . S
C568 C569 1.386 . S
C568 C570 1.391 . S
C569 C568 1.386 . S
C569 C573 1.393 . S
C570 H562 0.950 . S
C570 C568 1.391 . S
C570 C571 1.400 1_554 S
C571 C570 1.400 1_556 S
C571 C572 1.398 1_556 S
C571 C577 1.491 . S
C572 H563 0.950 1_554 S
C572 C571 1.398 1_554 S
C572 C573 1.391 . S
C573 H561 0.950 . S
C573 C569 1.393 . S
C573 C572 1.391 . S
C574 H564 0.950 . S
C574 C575 1.386 . S
C574 C576 1.391 . S
C575 C574 1.386 . S
C575 C579 1.393 . S
C576 H565 0.950 . S
C576 C574 1.391 . S
C576 C577 1.400 . S
C577 C571 1.491 . S
C577 C576 1.400 . S
C577 C578 1.398 . S
C578 H566 0.950 . S
C578 C577 1.398 . S
C578 C579 1.391 . S
C579 H567 0.950 . S
C579 C575 1.393 . S
C579 C578 1.391 . S
H580 C588 0.950 . S
H581 C593 0.950 . S
H582 C590 0.950 1_556 S
H583 C592 0.950 1_556 S
H584 C594 0.950 . S
H585 C596 0.950 . S
H586 C598 0.950 . S
H587 C599 0.950 . S
C588 H580 0.950 . S
C588 C589 1.386 . S
C588 C590 1.391 . S
C589 C588 1.386 . S
C589 C593 1.393 . S
C590 H582 0.950 1_554 S
C590 C588 1.391 . S
C590 C591 1.400 1_554 S
C591 C590 1.400 1_556 S
C591 C592 1.398 1_556 S
C591 C597 1.491 . S
C592 H583 0.950 1_554 S
C592 C591 1.398 1_554 S
C592 C593 1.391 . S
C593 H581 0.950 . S
C593 C589 1.393 . S
C593 C592 1.391 . S
C594 H584 0.950 . S
C594 C595 1.386 . S
C594 C596 1.391 . S
C595 C594 1.386 . S
C595 C599 1.393 . S
C596 H585 0.950 . S
C596 C594 1.391 . S
C596 C597 1.400 . S
C597 C591 1.491 . S
C597 C596 1.400 . S
C597 C598 1.398 . S
C598 H586 0.950 . S
C598 C597 1.398 . S
C598 C599 1.391 . S
C599 H587 0.950 . S
C599 C595 1.393 . S
C599 C598 1.391 . S
H600 C608 0.950 . S
H601 C613 0.950 . S
H602 C610 0.950 . S
H603 C612 0.950 . S
H604 C614 0.950 . S
H605 C616 0.950 1_554 S
H606 C618 0.950 . S
H607 C619 0.950 . S
C608 H600 0.950 . S
C608 C609 1.386 . S
C608 C610 1.391 . S
C609 C608 1.386 . S
C609 C613 1.393 . S
C610 H602 0.950 . S
C610 C608 1.391 . S
C610 C611 1.400 . S
C611 C610 1.400 . S
C611 C612 1.398 . S
C611 C617 1.491 . S
C612 H603 0.950 . S
C612 C611 1.398 . S
C612 C613 1.391 . S
C613 H601 0.950 . S
C613 C609 1.393 . S
C613 C612 1.391 . S
C614 H604 0.950 . S
C614 C615 1.386 . S
C614 C616 1.391 . S
C615 C614 1.386 . S
C615 C619 1.393 . S
C616 H605 0.950 1_556 S
C616 C614 1.391 . S
C616 C617 1.400 1_556 S
C617 C611 1.491 . S
C617 C616 1.400 1_554 S
C617 C618 1.398 1_554 S
C618 H606 0.950 . S
C618 C617 1.398 1_556 S
C618 C619 1.391 . S
C619 H607 0.950 . S
C619 C615 1.393 . S
C619 C618 1.391 . S
H620 C628 0.950 . S
H621 C633 0.950 . S
H622 C630 0.950 1_554 S
H623 C632 0.950 . S
H624 C634 0.950 . S
H625 C636 0.950 . S
H626 C638 0.950 . S
H627 C639 0.950 . S
C628 H620 0.950 . S
C628 C629 1.386 . S
C628 C630 1.391 . S
C629 C628 1.386 . S
C629 C633 1.393 . S
C630 H622 0.950 1_556 S
C630 C628 1.391 . S
C630 C631 1.400 1_556 S
C631 C630 1.400 1_554 S
C631 C632 1.398 1_554 S
C631 C637 1.491 . S
C632 H623 0.950 . S
C632 C631 1.398 1_556 S
C632 C633 1.391 . S
C633 H621 0.950 . S
C633 C629 1.393 . S
C633 C632 1.391 . S
C634 H624 0.950 . S
C634 C635 1.386 . S
C634 C636 1.391 . S
C635 C634 1.386 . S
C635 C639 1.393 . S
C636 H625 0.950 . S
C636 C634 1.391 . S
C636 C637 1.400 . S
C637 C631 1.491 . S
C637 C636 1.400 . S
C637 C638 1.398 . S
C638 H626 0.950 . S
C638 C637 1.398 . S
C638 C639 1.391 . S
C639 H627 0.950 . S
C639 C635 1.393 . S
C639 C638 1.391 . S
H640 C648 0.950 . S
H641 C653 0.950 . S
H642 C650 0.950 . S
H643 C652 0.950 . S
H644 C654 0.950 . S
H645 C656 0.950 . S
H646 C658 0.950 . S
H647 C659 0.950 . S
C648 H640 0.950 . S
C648 C649 1.386 . S
C648 C650 1.391 . S
C649 C648 1.386 . S
C649 C653 1.393 . S
C650 H642 0.950 . S
C650 C648 1.391 . S
C650 C651 1.400 . S
C651 C650 1.400 . S
C651 C652 1.398 . S
C651 C657 1.491 . S
C652 H643 0.950 . S
C652 C651 1.398 . S
C652 C653 1.391 . S
C653 H641 0.950 . S
C653 C649 1.393 . S
C653 C652 1.391 . S
C654 H644 0.950 . S
C654 C655 1.386 . S
C654 C656 1.391 . S
C655 C654 1.386 . S
C655 C659 1.393 . S
C656 H645 0.950 . S
C656 C654 1.391 . S
C656 C657 1.400 . S
C657 C651 1.491 . S
C657 C656 1.400 . S
C657 C658 1.398 . S
C658 H646 0.950 . S
C658 C657 1.398 . S
C658 C659 1.391 . S
C659 H647 0.950 . S
C659 C655 1.393 . S
C659 C658 1.391 . S
H660 C668 0.950 . S
H661 C673 0.950 . S
H662 C670 0.950 . S
H663 C672 0.950 . S
H664 C674 0.950 . S
H665 C676 0.950 . S
H666 C678 0.950 . S
H667 C679 0.950 . S
C668 H660 0.950 . S
C668 C669 1.386 . S
C668 C670 1.391 . S
C669 C668 1.386 . S
C669 C673 1.393 . S
C670 H662 0.950 . S
C670 C668 1.391 . S
C670 C671 1.400 . S
C671 C670 1.400 . S
C671 C672 1.398 . S
C671 C677 1.491 . S
C672 H663 0.950 . S
C672 C671 1.398 . S
C672 C673 1.391 . S
C673 H661 0.950 . S
C673 C669 1.393 . S
C673 C672 1.391 . S
C674 H664 0.950 . S
C674 C675 1.386 . S
C674 C676 1.391 . S
C675 C674 1.386 . S
C675 C679 1.393 . S
C676 H665 0.950 . S
C676 C674 1.391 . S
C676 C677 1.400 . S
C677 C671 1.491 . S
C677 C676 1.400 . S
C677 C678 1.398 . S
C678 H666 0.950 . S
C678 C677 1.398 . S
C678 C679 1.391 . S
C679 H667 0.950 . S
C679 C675 1.393 . S
C679 C678 1.391 . S
H680 C688 0.950 . S
H681 C693 0.950 . S
H682 C690 0.950 . S
H683 C692 0.950 . S
H684 C694 0.950 . S
H685 C696 0.950 . S
H686 C698 0.950 . S
H687 C699 0.950 . S
C688 H680 0.950 . S
C688 C689 1.386 . S
C688 C690 1.391 . S
C689 C688 1.386 . S
C689 C693 1.393 . S
C690 H682 0.950 . S
C690 C688 1.391 . S
C690 C691 1.400 . S
C691 C690 1.400 . S
C691 C692 1.398 . S
C691 C697 1.491 . S
C692 H683 0.950 . S
C692 C691 1.398 . S
C692 C693 1.391 . S
C693 H681 0.950 . S
C693 C689 1.393 . S
C693 C692 1.391 . S
C694 H684 0.950 . S
C694 C695 1.386 . S
C694 C696 1.391 . S
C695 C694 1.386 . S
C695 C699 1.393 . S
C696 H685 0.950 . S
C696 C694 1.391 . S
C696 C697 1.400 . S
C697 C691 1.491 . S
C697 C696 1.400 . S
C697 C698 1.398 . S
C698 H686 0.950 . S
C698 C697 1.398 . S
C698 C699 1.391 . S
C699 H687 0.950 . S
C699 C695 1.393 . S
C699 C698 1.391 . S
H700 C708 0.950 . S
H701 C713 0.950 . S
H702 C710 0.950 . S
H703 C712 0.950 . S
H704 C714 0.950 . S
H705 C716 0.950 . S
H706 C718 0.950 . S
H707 C719 0.950 . S
C708 H700 0.950 . S
C708 C709 1.386 . S
C708 C710 1.391 . S
C709 C708 1.386 . S
C709 C713 1.393 . S
C710 H702 0.950 . S
C710 C708 1.391 . S
C710 C711 1.400 . S
C711 C710 1.400 . S
C711 C712 1.398 . S
C711 C717 1.491 . S
C712 H703 0.950 . S
C712 C711 1.398 . S
C712 C713 1.391 . S
C713 H701 0.950 . S
C713 C709 1.393 . S
C713 C712 1.391 . S
C714 H704 0.950 . S
C714 C715 1.386 . S
C714 C716 1.391 . S
C715 C714 1.386 . S
C715 C719 1.393 . S
C716 H705 0.950 . S
C716 C714 1.391 . S
C716 C717 1.400 . S
C717 C711 1.491 . S
C717 C716 1.400 . S
C717 C718 1.398 . S
C718 H706 0.950 . S
C718 C717 1.398 . S
C718 C719 1.391 . S
C719 H707 0.950 . S
C719 C715 1.393 . S
C719 C718 1.391 . S
H720 C728 0.950 . S
H721 C733 0.950 . S
H722 C730 0.950 . S
H723 C732 0.950 . S
H724 C734 0.950 . S
H725 C736 0.950 . S
H726 C738 0.950 . S
H727 C739 0.950 . S
C728 H720 0.950 . S
C728 C729 1.386 . S
C728 C730 1.391 . S
C729 C728 1.386 . S
C729 C733 1.393 . S
C730 H722 0.950 . S
C730 C728 1.391 . S
C730 C731 1.400 . S
C731 C730 1.400 . S
C731 C732 1.398 . S
C731 C737 1.491 1_455 S
C732 H723 0.950 . S
C732 C731 1.398 . S
C732 C733 1.391 . S
C733 H721 0.950 . S
C733 C729 1.393 . S
C733 C732 1.391 . S
C734 H724 0.950 . S
C734 C735 1.386 . S
C734 C736 1.391 . S
C735 C734 1.386 . S
C735 C739 1.393 . S
C736 H725 0.950 . S
C736 C734 1.391 . S
C736 C737 1.400 . S
C737 C731 1.491 1_655 S
C737 C736 1.400 . S
C737 C738 1.398 . S
C738 H726 0.950 . S
C738 C737 1.398 . S
C738 C739 1.391 . S
C739 H727 0.950 . S
C739 C735 1.393 . S
C739 C738 1.391 . S
H740 C748 0.950 . S
H741 C753 0.950 . S
H742 C750 0.950 . S
H743 C752 0.950 . S
H744 C754 0.950 . S
H745 C756 0.950 . S
H746 C758 0.950 . S
H747 C759 0.950 . S
C748 H740 0.950 . S
C748 C749 1.386 . S
C748 C750 1.391 . S
C749 C748 1.386 . S
C749 C753 1.393 . S
C750 H742 0.950 . S
C750 C748 1.391 . S
C750 C751 1.400 . S
C751 C750 1.400 . S
C751 C752 1.398 . S
C751 C757 1.491 1_655 S
C752 H743 0.950 . S
C752 C751 1.398 . S
C752 C753 1.391 . S
C753 H741 0.950 . S
C753 C749 1.393 . S
C753 C752 1.391 . S
C754 H744 0.950 . S
C754 C755 1.386 . S
C754 C756 1.391 . S
C755 C754 1.386 . S
C755 C759 1.393 . S
C756 H745 0.950 . S
C756 C754 1.391 . S
C756 C757 1.400 . S
C757 C751 1.491 1_455 S
C757 C756 1.400 . S
C757 C758 1.398 . S
C758 H746 0.950 . S
C758 C757 1.398 . S
C758 C759 1.391 . S
C759 H747 0.950 . S
C759 C755 1.393 . S
C759 C758 1.391 . S
H760 C768 0.950 . S
H761 C773 0.950 . S
H762 C770 0.950 . S
H763 C772 0.950 . S
H764 C774 0.950 . S
H765 C776 0.950 . S
H766 C778 0.950 . S
H767 C779 0.950 . S
C768 H760 0.950 . S
C768 C769 1.386 . S
C768 C770 1.391 . S
C769 C768 1.386 . S
C769 C773 1.393 . S
C770 H762 0.950 . S
C770 C768 1.391 . S
C770 C771 1.400 . S
C771 C770 1.400 . S
C771 C772 1.398 . S
C771 C777 1.491 . S
C772 H763 0.950 . S
C772 C771 1.398 . S
C772 C773 1.391 . S
C773 H761 0.950 . S
C773 C769 1.393 . S
C773 C772 1.391 . S
C774 H764 0.950 . S
C774 C775 1.386 . S
C774 C776 1.391 . S
C775 C774 1.386 . S
C775 C779 1.393 . S
C776 H765 0.950 . S
C776 C774 1.391 . S
C776 C777 1.400 . S
C777 C771 1.491 . S
C777 C776 1.400 . S
C777 C778 1.398 . S
C778 H766 0.950 . S
C778 C777 1.398 . S
C778 C779 1.391 . S
C779 H767 0.950 . S
C779 C775 1.393 . S
C779 C778 1.391 . S
H780 C788 0.950 . S
H781 C793 0.950 . S
H782 C790 0.950 . S
H783 C792 0.950 . S
H784 C794 0.950 . S
H785 C796 0.950 . S
H786 C798 0.950 . S
H787 C799 0.950 . S
C788 H780 0.950 . S
C788 C789 1.386 . S
C788 C790 1.391 . S
C789 C788 1.386 . S
C789 C793 1.393 . S
C790 H782 0.950 . S
C790 C788 1.391 . S
C790 C791 1.400 . S
C791 C790 1.400 . S
C791 C792 1.398 . S
C791 C797 1.491 . S
C792 H783 0.950 . S
C792 C791 1.398 . S
C792 C793 1.391 . S
C793 H781 0.950 . S
C793 C789 1.393 . S
C793 C792 1.391 . S
C794 H784 0.950 . S
C794 C795 1.386 . S
C794 C796 1.391 . S
C795 C794 1.386 . S
C795 C799 1.393 . S
C796 H785 0.950 . S
C796 C794 1.391 . S
C796 C797 1.400 . S
C797 C791 1.491 . S
C797 C796 1.400 . S
C797 C798 1.398 . S
C798 H786 0.950 . S
C798 C797 1.398 . S
C798 C799 1.391 . S
C799 H787 0.950 . S
C799 C795 1.393 . S
C799 C798 1.391 . S
C329 C6 1.699 . S
C335 C286 1.696 . S
C349 C246 1.706 . S
C355 C46 1.706 . S
C369 C206 1.703 . S
C375 C86 1.700 . S
C389 C166 1.706 . S
C395 C126 1.704 . S
C409 C89 1.831 . S
C415 C9 1.851 . S
C429 C49 1.849 . S
C435 C129 1.834 . S
C449 C138 1.261 . S
C455 C58 1.275 . S
C469 C98 1.260 . S
C475 C18 1.285 . S
C489 C169 1.713 . S
C495 C249 1.710 . S
C509 C209 1.723 . S
C515 C289 1.704 . S
C529 C298 1.135 . S
C535 C218 1.162 . S
C549 C258 1.134 . S
C555 C178 1.164 . S
C569 C19 2.083 . S
C575 C10 2.083 . S
C589 C59 2.092 . S
C595 C50 2.092 . S
C609 C90 2.086 . S
C615 C99 2.086 . S
C629 C139 2.076 . S
C635 C130 2.076 . S
C649 C170 2.092 . S
C655 C179 2.092 . S
C669 C219 2.089 . S
C675 C210 2.089 . S
C689 C259 2.078 . S
C695 C250 2.078 . S
C709 C299 2.077 . S
C715 C290 2.077 . S
C729 C15 2.343 . S
C735 C55 2.355 . S
C749 C135 2.355 . S
C755 C95 2.342 . S
C769 C175 2.353 . S
C775 C215 2.349 . S
C789 C295 2.344 . S
C795 C255 2.356 . S
