# Generated by pormake.
# Topology wfu, (7)-cn, num edge types: 1
# Building blocks:
#     Node 0, Type 0, BuildingBlock: NUHQUE_clean_sbu_2, # of connection points: 7
#     Node 1, Type 0, BuildingBlock: NUHQUE_clean_sbu_2, # of connection points: 7
#     Node 2, Type 0, BuildingBlock: NUHQUE_clean_sbu_2, # of connection points: 7
#     Node 3, Type 0, BuildingBlock: NUHQUE_clean_sbu_2, # of connection points: 7
#     Node 4, Type 0, BuildingBlock: NUHQUE_clean_sbu_2, # of connection points: 7
#     Node 5, Type 0, BuildingBlock: NUHQUE_clean_sbu_2, # of connection points: 7
#     Node 6, Type 0, BuildingBlock: NUHQUE_clean_sbu_2, # of connection points: 7
#     Node 7, Type 0, BuildingBlock: NUHQUE_clean_sbu_2, # of connection points: 7
#     Edge 8, Type (0, 0), BuildingBlock: XUDNAN_clean_linker_2, # of connection points: 2
#     Edge 9, Type (0, 0), BuildingBlock: XUDNAN_clean_linker_2, # of connection points: 2
#     Edge 10, Type (0, 0), BuildingBlock: XUDNAN_clean_linker_2, # of connection points: 2
#     Edge 11, Type (0, 0), BuildingBlock: XUDNAN_clean_linker_2, # of connection points: 2
#     Edge 12, Type (0, 0), BuildingBlock: XUDNAN_clean_linker_2, # of connection points: 2
#     Edge 13, Type (0, 0), BuildingBlock: XUDNAN_clean_linker_2, # of connection points: 2
#     Edge 14, Type (0, 0), BuildingBlock: XUDNAN_clean_linker_2, # of connection points: 2
#     Edge 15, Type (0, 0), BuildingBlock: XUDNAN_clean_linker_2, # of connection points: 2
#     Edge 16, Type (0, 0), BuildingBlock: XUDNAN_clean_linker_2, # of connection points: 2
#     Edge 17, Type (0, 0), BuildingBlock: XUDNAN_clean_linker_2, # of connection points: 2
#     Edge 18, Type (0, 0), BuildingBlock: XUDNAN_clean_linker_2, # of connection points: 2
#     Edge 19, Type (0, 0), BuildingBlock: XUDNAN_clean_linker_2, # of connection points: 2
#     Edge 20, Type (0, 0), BuildingBlock: XUDNAN_clean_linker_2, # of connection points: 2
#     Edge 21, Type (0, 0), BuildingBlock: XUDNAN_clean_linker_2, # of connection points: 2
#     Edge 22, Type (0, 0), BuildingBlock: XUDNAN_clean_linker_2, # of connection points: 2
#     Edge 23, Type (0, 0), BuildingBlock: XUDNAN_clean_linker_2, # of connection points: 2
#     Edge 24, Type (0, 0), BuildingBlock: XUDNAN_clean_linker_2, # of connection points: 2
#     Edge 25, Type (0, 0), BuildingBlock: XUDNAN_clean_linker_2, # of connection points: 2
#     Edge 26, Type (0, 0), BuildingBlock: XUDNAN_clean_linker_2, # of connection points: 2
#     Edge 27, Type (0, 0), BuildingBlock: XUDNAN_clean_linker_2, # of connection points: 2
#     Edge 28, Type (0, 0), BuildingBlock: XUDNAN_clean_linker_2, # of connection points: 2
#     Edge 29, Type (0, 0), BuildingBlock: XUDNAN_clean_linker_2, # of connection points: 2
#     Edge 30, Type (0, 0), BuildingBlock: XUDNAN_clean_linker_2, # of connection points: 2
#     Edge 31, Type (0, 0), BuildingBlock: XUDNAN_clean_linker_2, # of connection points: 2
#     Edge 32, Type (0, 0), BuildingBlock: XUDNAN_clean_linker_2, # of connection points: 2
#     Edge 33, Type (0, 0), BuildingBlock: XUDNAN_clean_linker_2, # of connection points: 2
#     Edge 34, Type (0, 0), BuildingBlock: XUDNAN_clean_linker_2, # of connection points: 2
#     Edge 35, Type (0, 0), BuildingBlock: XUDNAN_clean_linker_2, # of connection points: 2
# Relax obj value: 0.203
# Max RMSD: 0.201
# Mean RMSD: 0.201
data_MOF--net-wfu--node1-NUHQUE_clean_sbu_2--edge1-XUDNAN_clean_linker_2
_symmetry_space_group_name_H-M    P1
_symmetry_Int_Tables_number       1
_symmetry_cell_setting            triclinic
loop_
_symmetry_equiv_pos_as_xyz
'x, y, z'
_cell_length_a     36.808719
_cell_length_b     36.725876
_cell_length_c     31.057798
_cell_angle_alpha  90.266302
_cell_angle_beta   89.949912
_cell_angle_gamma 89.466576
loop_
_atom_site_label
_atom_site_type_symbol
_atom_site_fract_x
_atom_site_fract_y
_atom_site_fract_z
_atom_type_partial_charge
O0 O 0.30732 0.49214 0.21073 0.0
Tb1 Tb 0.3259 0.44677 0.17096 0.0
Eu2 Eu 0.35133 0.38106 0.25326 0.0
C3 C 0.32634 0.52231 0.21053 0.0
O4 O 0.35718 0.52257 0.18918 0.0
C5 C 0.39309 0.45197 0.2295 0.0
O6 O 0.40297 0.36317 0.22014 0.0
C7 C 0.33789 0.35298 0.32799 0.0
C8 C 0.40331 0.36752 0.17815 0.0
O9 O 0.3734 0.37843 0.159 0.0
C10 C 0.29086 0.36992 0.1782 0.0
C11 C 0.31667 0.32286 0.3461 0.0
C12 C 0.30505 0.32459 0.38932 0.0
C13 C 0.28344 0.29683 0.40662 0.0
C14 C 0.27423 0.26718 0.38022 0.0
C15 C 0.28545 0.26515 0.33707 0.0
C16 C 0.30686 0.29306 0.32014 0.0
O17 O 0.3829 0.44746 0.1894 0.0
O18 O 0.3736 0.43803 0.26075 0.0
O19 O 0.30872 0.48493 0.12158 0.0
O20 O 0.33885 0.43784 0.1027 0.0
C21 C 0.32279 0.46735 0.08916 0.0
O22 O 0.3155 0.35465 0.20306 0.0
O23 O 0.28475 0.40521 0.17868 0.0
O24 O 0.36648 0.34387 0.30456 0.0
O25 O 0.31873 0.38008 0.31164 0.0
H26 H 0.31222 0.34782 0.40911 0.0
H27 H 0.25876 0.24496 0.39367 0.0
H28 H 0.31543 0.29185 0.28675 0.0
O29 O 0.48566 0.72432 0.81046 0.0
Tb30 Tb 0.44922 0.70208 0.85836 0.0
Eu31 Eu 0.37966 0.68186 0.78145 0.0
C32 C 0.51365 0.70527 0.79625 0.0
O33 O 0.51726 0.67105 0.80753 0.0
C34 C 0.44858 0.63368 0.80013 0.0
O35 O 0.35576 0.63037 0.8079 0.0
C36 C 0.35336 0.70449 0.70858 0.0
C37 C 0.35778 0.62659 0.84988 0.0
O38 O 0.37316 0.65221 0.87291 0.0
C39 C 0.37166 0.73897 0.86198 0.0
C40 C 0.32408 0.72754 0.6906 0.0
C41 C 0.32681 0.74025 0.64791 0.0
C42 C 0.2983 0.76069 0.62945 0.0
C43 C 0.26771 0.76905 0.65462 0.0
C44 C 0.26481 0.75711 0.69735 0.0
C45 C 0.29298 0.73603 0.71515 0.0
O46 O 0.44695 0.64453 0.84047 0.0
O47 O 0.43387 0.654 0.77001 0.0
O48 O 0.49509 0.71872 0.8981 0.0
O49 O 0.45145 0.69097 0.92775 0.0
C50 C 0.48271 0.70631 0.93428 0.0
O51 O 0.35577 0.7149 0.83693 0.0
O52 O 0.40695 0.74393 0.86156 0.0
O53 O 0.34337 0.67399 0.72716 0.0
O54 O 0.37957 0.72139 0.72931 0.0
H55 H 0.35061 0.73347 0.6288 0.0
H56 H 0.24567 0.78477 0.64058 0.0
H57 H 0.29076 0.72628 0.74794 0.0
O58 O 0.72745 0.53461 0.21577 0.0
Tb59 Tb 0.701 0.57478 0.17487 0.0
Eu60 Eu 0.67432 0.65014 0.2479 0.0
C61 C 0.70906 0.50838 0.23425 0.0
O62 O 0.67344 0.51002 0.2347 0.0
C63 C 0.629 0.57815 0.22879 0.0
O64 O 0.63164 0.68923 0.22346 0.0
C65 C 0.70813 0.67221 0.31661 0.0
C66 C 0.59871 0.67823 0.21387 0.0
O67 O 0.58738 0.64716 0.22934 0.0
C68 C 0.72894 0.65278 0.16702 0.0
C69 C 0.73027 0.702 0.33449 0.0
C70 C 0.74191 0.70038 0.3778 0.0
C71 C 0.76134 0.72941 0.39624 0.0
C72 C 0.76979 0.75935 0.37048 0.0
C73 C 0.75908 0.76111 0.32714 0.0
C74 C 0.73884 0.73249 0.30935 0.0
O75 O 0.64298 0.57602 0.18986 0.0
O76 O 0.64486 0.59721 0.25929 0.0
O77 O 0.71335 0.53016 0.13047 0.0
O78 O 0.69622 0.58101 0.10498 0.0
C79 C 0.70646 0.54796 0.0954 0.0
O80 O 0.70083 0.66821 0.18592 0.0
O81 O 0.73913 0.61971 0.17777 0.0
O82 O 0.67378 0.67997 0.30852 0.0
O83 O 0.72342 0.65111 0.28707 0.0
H84 H 0.73507 0.67704 0.39734 0.0
H85 H 0.7847 0.78178 0.38455 0.0
H86 H 0.72985 0.73387 0.27616 0.0
O87 O 0.55993 0.32052 0.82349 0.0
Tb88 Tb 0.59964 0.35083 0.86088 0.0
Eu89 Eu 0.66246 0.35216 0.7703 0.0
C90 C 0.5283 0.33699 0.81803 0.0
O91 O 0.5254 0.37123 0.83013 0.0
C92 C 0.59816 0.40888 0.79091 0.0
O93 O 0.68405 0.3986 0.80973 0.0
C94 C 0.69978 0.34229 0.69993 0.0
C95 C 0.70993 0.39508 0.8385 0.0
O96 O 0.72667 0.36363 0.84322 0.0
C97 C 0.67002 0.30612 0.85518 0.0
C98 C 0.72746 0.31757 0.68008 0.0
C99 C 0.72144 0.30416 0.63815 0.0
C100 C 0.74764 0.28222 0.6173 0.0
C101 C 0.78039 0.27428 0.63846 0.0
C102 C 0.7876 0.28804 0.67984 0.0
C103 C 0.76067 0.30919 0.70088 0.0
O104 O 0.60627 0.40341 0.83152 0.0
O105 O 0.61022 0.38596 0.76081 0.0
O106 O 0.58998 0.32737 0.92411 0.0
O107 O 0.57021 0.3808 0.91121 0.0
C108 C 0.57273 0.35529 0.94002 0.0
O109 O 0.67137 0.30271 0.81306 0.0
O110 O 0.6553 0.33529 0.87222 0.0
O111 O 0.71038 0.36332 0.73185 0.0
O112 O 0.66667 0.32961 0.70513 0.0
H113 H 0.69634 0.31092 0.62163 0.0
H114 H 0.80077 0.25773 0.62217 0.0
H115 H 0.76603 0.31997 0.73276 0.0
O116 O 0.80481 0.03666 0.31518 0.0
Tb117 Tb 0.81255 0.08282 0.35784 0.0
Eu118 Eu 0.84919 0.14601 0.27538 0.0
C119 C 0.82459 1.00715 0.32105 0.0
O120 O 0.84984 1.00751 0.35091 0.0
C121 C 0.88835 0.07772 0.31534 0.0
O122 O 0.89453 0.17042 0.3142 0.0
C123 C 0.84084 0.17147 0.19822 0.0
C124 C 0.89063 0.16985 0.35632 0.0
O125 O 0.85999 0.1582 0.37256 0.0
C126 C 0.78166 0.16036 0.34132 0.0
C127 C 0.82222 0.20281 0.17787 0.0
C128 C 0.81045 0.2003 0.13475 0.0
C129 C 0.79227 0.22982 0.11527 0.0
C130 C 0.78728 0.26216 0.13887 0.0
C131 C 0.7988 0.26515 0.18173 0.0
C132 C 0.81578 0.23515 0.2014 0.0
O133 O 0.87095 0.08722 0.35059 0.0
O134 O 0.87732 0.0905 0.27792 0.0
O135 O 0.78445 0.04956 0.40546 0.0
O136 O 0.82373 0.08741 0.42699 0.0
C137 C 0.8009 0.06266 0.43909 0.0
O138 O 0.80854 0.17438 0.31921 0.0
O139 O 0.7745 0.12547 0.33983 0.0
O140 O 0.86896 0.17914 0.22278 0.0
O141 O 0.81969 0.1462 0.21454 0.0
H142 H 0.81469 0.17523 0.11681 0.0
H143 H 0.7737 0.28519 0.12391 0.0
H144 H 0.82437 0.23713 0.2347 0.0
O145 O 0.06075 0.21349 0.70774 0.0
Tb146 Tb 0.09589 0.17754 0.66983 0.0
Eu147 Eu 0.16245 0.17437 0.75392 0.0
C148 C 0.03393 0.19939 0.73015 0.0
O149 O 0.03378 0.16412 0.73671 0.0
C150 C 0.10122 0.11546 0.7349 0.0
O151 O 0.18707 0.13407 0.707 0.0
C152 C 0.1997 0.18454 0.82419 0.0
C153 C 0.21702 0.14111 0.68566 0.0
O154 O 0.23497 0.17094 0.6947 0.0
C155 C 0.16624 0.22176 0.67038 0.0
C156 C 0.22671 0.20962 0.84381 0.0
C157 C 0.22017 0.2238 0.8855 0.0
C158 C 0.24529 0.24719 0.90539 0.0
C159 C 0.27718 0.25608 0.88326 0.0
C160 C 0.28484 0.2416 0.84229 0.0
C161 C 0.25947 0.21835 0.82261 0.0
O162 O 0.10539 0.12331 0.69408 0.0
O163 O 0.11309 0.13806 0.76502 0.0
O164 O 0.09026 0.19585 0.60364 0.0
O165 O 0.05512 0.15464 0.62654 0.0
C166 C 0.06367 0.17461 0.59365 0.0
O167 O 0.16823 0.22484 0.71251 0.0
O168 O 0.1503 0.19355 0.65325 0.0
O169 O 0.21067 0.16322 0.79245 0.0
O170 O 0.16648 0.19736 0.81871 0.0
H171 H 0.19557 0.21654 0.90252 0.0
H172 H 0.29719 0.273 0.8991 0.0
H173 H 0.26531 0.20712 0.791 0.0
O174 O 0.21741 0.99669 0.30179 0.0
Tb175 Tb 0.20911 0.95647 0.3517 0.0
Eu176 Eu 0.16809 0.88258 0.28562 0.0
C177 C 0.19771 0.02671 0.30379 0.0
O178 O 0.17062 0.02806 0.33134 0.0
C179 C 0.12915 0.95506 0.31663 0.0
O180 O 0.12038 0.85066 0.31032 0.0
C181 C 0.19474 0.85937 0.21255 0.0
C182 C 0.10825 0.86101 0.34832 0.0
O183 O 0.12532 0.88697 0.3689 0.0
C184 C 0.23067 0.87574 0.35753 0.0
C185 C 0.21669 0.82955 0.19295 0.0
C186 C 0.22931 0.83288 0.15012 0.0
C187 C 0.24855 0.80404 0.13002 0.0
C188 C 0.25587 0.77249 0.15378 0.0
C189 C 0.24414 0.76889 0.19655 0.0
C190 C 0.22407 0.79734 0.21592 0.0
O191 O 0.15002 0.95477 0.35104 0.0
O192 O 0.13891 0.93731 0.28148 0.0
O193 O 0.24316 0.99384 0.38864 0.0
O194 O 0.20134 0.96571 0.42102 0.0
C195 C 0.22719 0.98932 0.42552 0.0
O196 O 0.19983 0.86249 0.34337 0.0
O197 O 0.24214 0.90745 0.34404 0.0
O198 O 0.16228 0.8507 0.22688 0.0
O199 O 0.21173 0.88257 0.23786 0.0
H200 H 0.22345 0.85749 0.1322 0.0
H201 H 0.27093 0.75032 0.13874 0.0
H202 H 0.21445 0.79454 0.24873 0.0
O203 O 0.98902 0.8118 0.71403 0.0
Tb204 Tb 0.94274 0.82694 0.67463 0.0
Eu205 Eu 0.86802 0.86258 0.74826 0.0
C206 C 0.01871 0.8312 0.71077 0.0
O207 O 0.01832 0.85985 0.68557 0.0
C208 C 0.94605 0.8979 0.72968 0.0
O209 O 0.83396 0.90897 0.72191 0.0
C210 C 0.84392 0.83312 0.81872 0.0
C211 C 0.84893 0.93938 0.70861 0.0
O212 O 0.88301 0.94563 0.71819 0.0
C213 C 0.86445 0.80258 0.67443 0.0
C214 C 0.81289 0.81323 0.83699 0.0
C215 C 0.81523 0.79838 0.87882 0.0
C216 C 0.78518 0.78068 0.89743 0.0
C217 C 0.75301 0.77816 0.8734 0.0
C218 C 0.75074 0.79215 0.83152 0.0
C219 C 0.78074 0.80947 0.81327 0.0
O220 O 0.94514 0.88499 0.69008 0.0
O221 O 0.92429 0.88525 0.75963 0.0
O222 O 0.97102 0.79654 0.62387 0.0
O223 O 0.93966 0.84317 0.60695 0.0
C224 C 0.96028 0.81697 0.5922 0.0
O225 O 0.84893 0.8325 0.68883 0.0
O226 O 0.89638 0.79318 0.68945 0.0
O227 O 0.83801 0.86744 0.8084 0.0
O228 O 0.86428 0.81547 0.79045 0.0
H229 H 0.84022 0.80098 0.89697 0.0
H230 H 0.72988 0.76393 0.88664 0.0
H231 H 0.77894 0.82034 0.78092 0.0
H232 H 0.27605 0.38929 0.0956 0.0
H233 H 0.26892 0.2988 0.1841 0.0
H234 H 0.24787 0.25909 0.12451 0.0
H235 H 0.20016 0.36491 0.02265 0.0
H236 H 0.22516 0.37832 0.97546 0.0
H237 H 0.23304 0.4009 0.02621 0.0
H238 H 0.30156 0.38528 0.02075 0.0
H239 H 0.29403 0.36285 0.97 0.0
H240 H 0.31576 0.33857 1.01338 0.0
H241 H 0.2323 0.22809 0.05341 0.0
H242 H 0.22971 0.20738 0.97742 0.0
H243 H 0.25181 0.31726 0.93515 0.0
C244 C 0.26875 0.36146 0.10274 0.0
C245 C 0.27307 0.34734 0.14472 0.0
C246 C 0.26506 0.3103 0.15236 0.0
C247 C 0.25307 0.2876 0.11869 0.0
C248 C 0.24984 0.30218 0.07737 0.0
C249 C 0.25777 0.33826 0.06931 0.0
C250 C 0.25691 0.34619 0.02143 0.0
C251 C 0.22702 0.37424 1.01083 0.0
C252 C 0.29428 0.35895 1.00546 0.0
C253 C 0.24773 0.30889 1.00365 0.0
C254 C 0.24299 0.284 0.0364 0.0
C255 C 0.23564 0.24747 0.02759 0.0
C256 C 0.23399 0.23595 0.98434 0.0
C257 C 0.24032 0.26072 0.95039 0.0
C258 C 0.24659 0.29776 0.96042 0.0
H259 H 0.31359 0.71462 0.90845 0.0
H260 H 0.38255 0.80842 0.89135 0.0
H261 H 0.35237 0.83903 0.95308 0.0
H262 H 0.23072 0.76374 0.94799 0.0
H263 H 0.22098 0.72882 0.98682 0.0
H264 H 0.24349 0.7171 0.937 0.0
H265 H 0.2961 0.68733 0.97968 0.0
H266 H 0.27407 0.69902 0.02962 0.0
H267 H 0.31989 0.71369 0.01965 0.0
H268 H 0.31827 0.8572 0.02121 0.0
H269 H 0.28691 0.85911 0.09188 0.0
H270 H 0.24238 0.75232 0.06639 0.0
C271 C 0.32136 0.74215 0.91673 0.0
C272 C 0.34981 0.75953 0.89439 0.0
C273 C 0.36042 0.79486 0.90753 0.0
C274 C 0.34338 0.81247 0.94256 0.0
C275 C 0.31599 0.79426 0.96461 0.0
C276 C 0.30514 0.75978 0.95223 0.0
C277 C 0.27819 0.74436 0.98418 0.0
C278 C 0.24114 0.73815 0.96271 0.0
C279 C 0.29296 0.70903 1.00449 0.0
C280 C 0.27614 0.77516 0.01689 0.0
C281 C 0.29757 0.80403 1.00468 0.0
C282 C 0.30111 0.83489 0.03081 0.0
C283 C 0.28303 0.83588 0.07082 0.0
C284 C 0.26211 0.80598 0.08469 0.0
C285 C 0.25811 0.77567 0.0567 0.0
H286 H 0.73413 0.78357 0.96224 0.0
H287 H 0.83964 0.7373 0.9304 0.0
H288 H 0.83879 0.70204 0.99819 0.0
H289 H 0.74863 0.78978 0.07941 0.0
H290 H 0.70228 0.77804 0.09142 0.0
H291 H 0.71284 0.80167 0.04231 0.0
H292 H 0.68143 0.75083 0.99821 0.0
H293 H 0.67094 0.72711 0.04716 0.0
H294 H 0.69598 0.7042 1.00495 0.0
H295 H 0.82289 0.66654 0.0662 0.0
H296 H 0.79562 0.63783 0.13043 0.0
H297 H 0.70152 0.70907 0.11868 0.0
C298 C 0.75731 0.76638 0.96976 0.0
C299 C 0.78703 0.76328 0.94087 0.0
C300 C 0.81681 0.74054 0.95215 0.0
C301 C 0.81643 0.72021 0.9905 0.0
C302 C 0.78626 0.7232 0.01766 0.0
C303 C 0.75747 0.74617 1.00801 0.0
C304 C 0.7278 0.7438 0.04182 0.0
C305 C 0.7226 0.78051 0.06512 0.0
C306 C 0.69193 0.7307 0.02183 0.0
C307 C 0.74398 0.71537 0.07161 0.0
C308 C 0.77769 0.70372 0.05717 0.0
C309 C 0.79679 0.67595 0.07811 0.0
C310 C 0.78106 0.65973 0.11458 0.0
C311 C 0.74666 0.67146 0.13011 0.0
C312 C 0.72819 0.69991 0.10831 0.0
H313 H 0.72441 0.24953 0.08982 0.0
H314 H 0.82643 0.20697 0.04045 0.0
H315 H 0.80329 0.21389 0.96572 0.0
H316 H 0.6639 0.21184 1.00574 0.0
H317 H 0.63594 0.25241 1.00596 0.0
H318 H 0.65863 0.23816 0.05453 0.0
H319 H 0.6888 0.30147 0.06061 0.0
H320 H 0.66653 0.31587 1.01207 0.0
H321 H 0.7153 0.31816 0.01618 0.0
H322 H 0.77051 0.2341 0.89543 0.0
H323 H 0.73268 0.26505 0.83985 0.0
H324 H 0.65385 0.29387 0.93818 0.0
C325 C 0.74164 0.24088 0.06332 0.0
C326 C 0.77719 0.22769 0.07086 0.0
C327 C 0.79893 0.21675 0.03535 0.0
C328 C 0.78601 0.22072 0.99284 0.0
C329 C 0.75116 0.23523 0.98653 0.0
C330 C 0.72926 0.24475 0.02111 0.0
C331 C 0.69439 0.26288 1.00669 0.0
C332 C 0.66126 0.23994 0.01895 0.0
C333 C 0.69109 0.30189 0.02495 0.0
C334 C 0.70025 0.26303 0.95858 0.0
C335 C 0.73283 0.24669 0.94707 0.0
C336 C 0.74467 0.24634 0.90418 0.0
C337 C 0.723 0.2638 0.87274 0.0
C338 C 0.69023 0.28165 0.88468 0.0
C339 C 0.6786 0.28025 0.92793 0.0
H340 H 0.77195 0.14078 0.42438 0.0
H341 H 0.75798 0.23131 0.33696 0.0
H342 H 0.73986 0.27101 0.39835 0.0
H343 H 0.70151 0.16441 0.50459 0.0
H344 H 0.73016 0.15135 0.54908 0.0
H345 H 0.73514 0.12881 0.49772 0.0
H346 H 0.80328 0.14507 0.49649 0.0
H347 H 0.79875 0.16785 0.54759 0.0
H348 H 0.81659 0.19198 0.50192 0.0
H349 H 0.72757 0.30165 0.47051 0.0
H350 H 0.72829 0.32214 0.54662 0.0
H351 H 0.75648 0.21258 0.58668 0.0
C352 C 0.76376 0.1686 0.41801 0.0
C353 C 0.76511 0.18278 0.37586 0.0
C354 C 0.75614 0.21982 0.36894 0.0
C355 C 0.74589 0.24249 0.40362 0.0
C356 C 0.74565 0.22783 0.44506 0.0
C357 C 0.75478 0.19178 0.45236 0.0
C358 C 0.75755 0.18381 0.50009 0.0
C359 C 0.7294 0.15542 0.51366 0.0
C360 C 0.79634 0.17148 0.51221 0.0
C361 C 0.74858 0.22105 0.51867 0.0
C362 C 0.74113 0.24593 0.48649 0.0
C363 C 0.73312 0.28233 0.49592 0.0
C364 C 0.7334 0.29371 0.53921 0.0
C365 C 0.74228 0.26894 0.57245 0.0
C366 C 0.74946 0.23207 0.56189 0.0
H367 H 0.14773 0.23717 0.58873 0.0
H368 H 0.23096 0.25849 0.68382 0.0
H369 H 0.26848 0.28792 0.62729 0.0
H370 H 0.20526 0.21007 0.50794 0.0
H371 H 0.17866 0.22926 0.46481 0.0
H372 H 0.15685 0.21592 0.51396 0.0
H373 H 0.12989 0.28098 0.52295 0.0
H374 H 0.1516 0.29457 0.47362 0.0
H375 H 0.15974 0.31963 0.52267 0.0
H376 H 0.30002 0.30718 0.55619 0.0
H377 H 0.32109 0.31443 0.48076 0.0
H378 H 0.21547 0.28037 0.43498 0.0
C379 C 0.17343 0.24888 0.59809 0.0
C380 C 0.18636 0.24577 0.64068 0.0
C381 C 0.22029 0.26113 0.65149 0.0
C382 C 0.2418 0.2777 0.61949 0.0
C383 C 0.22863 0.27901 0.57721 0.0
C384 C 0.1949 0.26529 0.56686 0.0
C385 C 0.18769 0.26669 0.519 0.0
C386 C 0.18179 0.22822 0.50036 0.0
C387 C 0.15532 0.29199 0.50899 0.0
C388 C 0.22298 0.28259 0.50346 0.0
C389 C 0.24634 0.28987 0.53724 0.0
C390 C 0.28161 0.30214 0.52972 0.0
C391 C 0.29334 0.30633 0.48677 0.0
C392 C 0.26996 0.29792 0.45193 0.0
C393 C 0.23409 0.2869 0.46082 0.0
H394 H 0.20533 0.82211 0.41046 0.0
H395 H 0.30065 0.8872 0.38506 0.0
H396 H 0.33152 0.85933 0.44769 0.0
H397 H 0.20751 0.83257 0.52201 0.0
H398 H 0.1918 0.78738 0.53388 0.0
H399 H 0.17932 0.8087 0.48395 0.0
H400 H 0.20627 0.75384 0.44151 0.0
H401 H 0.21884 0.73227 0.4914 0.0
H402 H 0.25275 0.74006 0.45065 0.0
H403 H 0.35027 0.82725 0.51713 0.0
H404 H 0.35319 0.79729 0.5885 0.0
H405 H 0.24503 0.75477 0.56858 0.0
C406 C 0.23304 0.82988 0.41734 0.0
C407 C 0.25072 0.85654 0.39239 0.0
C408 C 0.28662 0.86663 0.40342 0.0
C409 C 0.30443 0.85086 0.43892 0.0
C410 C 0.28597 0.82509 0.46327 0.0
C411 C 0.25099 0.81476 0.45291 0.0
C412 C 0.23578 0.78906 0.48626 0.0
C413 C 0.2016 0.80542 0.50779 0.0
C414 C 0.22796 0.75159 0.46625 0.0
C415 C 0.26732 0.78704 0.51748 0.0
C416 C 0.2963 0.8075 0.50346 0.0
C417 C 0.32784 0.81087 0.52813 0.0
C418 C 0.32939 0.79362 0.56853 0.0
C419 C 0.2994 0.7737 0.58407 0.0
C420 C 0.26842 0.76981 0.55756 0.0
H421 H 0.81331 0.82724 0.61692 0.0
H422 H 0.88081 0.73327 0.6466 0.0
H423 H 0.85699 0.70144 0.58225 0.0
H424 H 0.73533 0.77851 0.57273 0.0
H425 H 0.72771 0.81167 0.53101 0.0
H426 H 0.74733 0.82543 0.5816 0.0
H427 H 0.80251 0.85236 0.54129 0.0
H428 H 0.78307 0.8388 0.49064 0.0
H429 H 0.82825 0.82382 0.50479 0.0
H430 H 0.82725 0.68084 0.51193 0.0
H431 H 0.79872 0.67587 0.43978 0.0
H432 H 0.75262 0.78412 0.45563 0.0
C433 C 0.82259 0.79969 0.6104 0.0
C434 C 0.8486 0.78257 0.63723 0.0
C435 C 0.86072 0.74686 0.62676 0.0
C436 C 0.84724 0.72852 0.59031 0.0
C437 C 0.8218 0.7463 0.56433 0.0
C438 C 0.80983 0.78124 0.57383 0.0
C439 C 0.7847 0.79554 0.53905 0.0
C440 C 0.7465 0.80323 0.55719 0.0
C441 C 0.80059 0.82963 0.51768 0.0
C442 C 0.78458 0.76339 0.50827 0.0
C443 C 0.80571 0.73499 0.52358 0.0
C444 C 0.81046 0.70287 0.49983 0.0
C445 C 0.79398 0.70013 0.45901 0.0
C446 C 0.77341 0.72951 0.44211 0.0
C447 C 0.76816 0.76115 0.46768 0.0
H448 H 0.51832 0.40005 0.96765 0.0
H449 H 0.58964 0.31221 1.0084 0.0
H450 H 0.55851 0.31075 0.07908 0.0
H451 H 0.50807 0.4454 0.07171 0.0
H452 H 0.46025 0.45503 0.0653 0.0
H453 H 0.4897 0.45319 0.0189 0.0
H454 H 0.45115 0.40417 0.98207 0.0
H455 H 0.41967 0.4066 0.02626 0.0
H456 H 0.43968 0.36344 1.01104 0.0
H457 H 0.51589 0.31549 0.14289 0.0
H458 H 0.46295 0.32336 0.19187 0.0
H459 H 0.4189 0.406 0.10685 0.0
C460 C 0.5279 0.38118 0.99192 0.0
C461 C 0.55648 0.35654 0.98313 0.0
C462 C 0.56781 0.33145 0.01495 0.0
C463 C 0.55044 0.33055 0.05514 0.0
C464 C 0.52175 0.35479 0.06266 0.0
C465 C 0.51046 0.37951 0.03177 0.0
C466 C 0.47661 0.39987 0.04579 0.0
C467 C 0.48409 0.4408 0.05077 0.0
C468 C 0.44493 0.39308 0.01444 0.0
C469 C 0.47007 0.38212 0.08886 0.0
C470 C 0.49667 0.35668 0.09857 0.0
C471 C 0.49507 0.33558 0.13584 0.0
C472 C 0.46503 0.34015 0.16341 0.0
C473 C 0.43693 0.36495 0.15275 0.0
C474 C 0.43998 0.38661 0.11556 0.0
H475 H 0.29845 0.53304 0.06315 0.0
H476 H 0.34964 0.4338 0.01622 0.0
H477 H 0.35451 0.46097 0.94343 0.0
H478 H 0.24983 0.56003 0.9636 0.0
H479 H 0.25993 0.60743 0.97245 0.0
H480 H 0.25422 0.57746 0.0177 0.0
H481 H 0.31768 0.59573 0.04631 0.0
H482 H 0.32364 0.62552 1.00127 0.0
H483 H 0.35682 0.59032 1.01184 0.0
H484 H 0.35965 0.50231 0.87788 0.0
H485 H 0.36996 0.55484 0.82934 0.0
H486 H 0.31823 0.62661 0.92231 0.0
C487 C 0.30975 0.51661 0.03727 0.0
C488 C 0.32311 0.4812 0.04485 0.0
C489 C 0.33873 0.46086 1.01065 0.0
C490 C 0.34148 0.47603 0.96929 0.0
C491 C 0.32854 0.5115 0.96302 0.0
C492 C 0.31314 0.5315 0.99633 0.0
C493 C 0.30593 0.57051 0.98361 0.0
C494 C 0.26504 0.57935 0.98437 0.0
C495 C 0.3273 0.59705 1.01244 0.0
C496 C 0.32047 0.56978 0.93819 0.0
C497 C 0.33266 0.53543 0.92628 0.0
C498 C 0.34958 0.52912 0.8866 0.0
C499 C 0.35513 0.55893 0.85914 0.0
C500 C 0.34437 0.59433 0.87218 0.0
C501 C 0.32608 0.59955 0.91152 0.0
H502 H 0.46908 0.66988 1.00959 0.0
H503 H 0.538 0.75205 0.953 0.0
H504 H 0.56967 0.75961 0.02245 0.0
H505 H 0.46305 0.7095 0.11868 0.0
H506 H 0.46594 0.66582 0.14473 0.0
H507 H 0.44578 0.66953 0.09205 0.0
H508 H 0.49086 0.62079 0.06265 0.0
H509 H 0.51086 0.61677 0.11525 0.0
H510 H 0.539 0.62733 0.06955 0.0
H511 H 0.59603 0.75611 0.09613 0.0
H512 H 0.61989 0.73713 0.16667 0.0
H513 H 0.53551 0.65559 0.17551 0.0
C514 C 0.49049 0.68981 1.01216 0.0
C515 C 0.50093 0.71069 0.97622 0.0
C516 C 0.52953 0.73594 0.9803 0.0
C517 C 0.5475 0.74059 0.01966 0.0
C518 C 0.53667 0.71962 0.05457 0.0
C519 C 0.5091 0.69443 0.05116 0.0
C520 C 0.50516 0.67298 0.0925 0.0
C521 C 0.46776 0.67989 0.11321 0.0
C522 C 0.51189 0.63206 0.08449 0.0
C523 C 0.53526 0.68959 0.11927 0.0
C524 C 0.55261 0.71691 0.09703 0.0
C525 C 0.58246 0.73501 0.11408 0.0
C526 C 0.59576 0.72408 0.15432 0.0
C527 C 0.57955 0.69494 0.17684 0.0
C528 C 0.54823 0.67829 0.15948 0.0
H529 H 0.73234 0.38969 0.9222 0.0
H530 H 0.69724 0.46727 0.82553 0.0
H531 H 0.69721 0.51628 0.88021 0.0
H532 H 0.67572 0.42295 1.0034 0.0
H533 H 0.70728 0.41526 0.04685 0.0
H534 H 0.70972 0.3875 0.99905 0.0
H535 H 0.77725 0.40499 0.989 0.0
H536 H 0.77489 0.43278 0.03691 0.0
H537 H 0.78945 0.45238 0.98673 0.0
H538 H 0.69551 0.5555 0.94615 0.0
H539 H 0.69244 0.58229 0.01936 0.0
H540 H 0.7268 0.47883 0.07338 0.0
C541 C 0.72587 0.41724 0.91231 0.0
C542 C 0.7154 0.42493 0.86958 0.0
C543 C 0.70572 0.46099 0.85808 0.0
C544 C 0.70564 0.48897 0.88887 0.0
C545 C 0.71512 0.48036 0.93102 0.0
C546 C 0.72516 0.4454 0.94281 0.0
C547 C 0.73084 0.44271 0.99099 0.0
C548 C 0.7043 0.41551 1.01125 0.0
C549 C 0.77048 0.43263 1.00151 0.0
C550 C 0.72195 0.48146 1.00442 0.0
C551 C 0.71326 0.50282 0.96932 0.0
C552 C 0.70265 0.53919 0.97387 0.0
C553 C 0.70088 0.55413 0.01546 0.0
C554 C 0.70945 0.5326 0.05173 0.0
C555 C 0.72031 0.49593 0.04606 0.0
H556 H 0.89368 0.15262 0.44091 0.0
H557 H 0.95699 0.20013 0.33771 0.0
H558 H 1.00908 0.20661 0.38775 0.0
H559 H 0.92823 0.20728 0.52802 0.0
H560 H 0.92787 0.16994 0.56544 0.0
H561 H 0.89555 0.17135 0.52199 0.0
H562 H 0.91718 0.10732 0.49696 0.0
H563 H 0.94988 0.10581 0.53996 0.0
H564 H 0.96457 0.09957 0.485 0.0
H565 H 0.05357 0.20816 0.44986 0.0
H566 H 0.08777 0.20291 0.51821 0.0
H567 H 0.99553 0.15035 0.57763 0.0
C568 C 0.91829 0.16484 0.42874 0.0
C569 C 0.92132 0.17624 0.38555 0.0
C570 C 0.95418 0.19146 0.37082 0.0
C571 C 0.9838 0.19519 0.39894 0.0
C572 C 0.97993 0.18318 0.44126 0.0
C573 C 0.94798 0.16823 0.45597 0.0
C574 C 0.95088 0.1561 0.50226 0.0
C575 C 0.92405 0.17745 0.53111 0.0
C576 C 0.94532 0.11475 0.50624 0.0
C577 C 0.98967 0.16645 0.51146 0.0
C578 C 1.00589 0.1824 0.4761 0.0
C579 C 0.04128 0.19545 0.47759 0.0
C580 C 0.06045 0.1923 0.51637 0.0
C581 C 0.04426 0.17577 0.5526 0.0
C582 C 1.00863 0.16247 0.55001 0.0
H583 H 0.18028 0.08304 0.65124 0.0
H584 H 0.27754 0.14759 0.63498 0.0
H585 H 0.29281 0.11257 0.56928 0.0
H586 H 0.21843 0.99634 0.61157 0.0
H587 H 0.17698 0.98383 0.58464 0.0
H588 H 0.1752 1.0119 0.63235 0.0
H589 H 0.13864 0.0609 0.59085 0.0
H590 H 0.14032 0.03318 0.54295 0.0
H591 H 0.1569 0.07919 0.54168 0.0
H592 H 0.2951 0.074 0.50248 0.0
H593 H 0.28452 0.03404 0.43956 0.0
H594 H 0.18622 0.99396 0.49927 0.0
C595 C 0.20517 0.08939 0.63436 0.0
C596 C 0.22788 0.11793 0.64852 0.0
C597 C 0.25984 0.12573 0.62499 0.0
C598 C 0.26876 0.10597 0.58761 0.0
C599 C 0.24552 0.07839 0.57421 0.0
C600 C 0.21446 0.06996 0.59694 0.0
C601 C 0.19308 0.04037 0.57436 0.0
C602 C 0.19081 1.00608 0.60241 0.0
C603 C 0.15499 0.05426 0.56171 0.0
C604 C 0.21676 0.03381 0.53504 0.0
C605 C 0.24694 0.05595 0.53571 0.0
C606 C 0.27184 0.0562 0.50188 0.0
C607 C 0.26561 0.03345 0.46628 0.0
C608 C 0.23481 1.01071 0.46483 0.0
C609 C 0.21032 1.01065 0.49989 0.0
H610 H 0.05278 0.89638 0.38678 0.0
H611 H 0.09566 0.78846 0.36057 0.0
H612 H 0.05284 0.76281 0.41392 0.0
H613 H 0.04871 0.89014 0.49277 0.0
H614 H 1.00703 0.91531 0.50136 0.0
H615 H 0.03388 0.92372 0.45426 0.0
H616 H 0.97884 0.90994 0.4053 0.0
H617 H 0.95136 0.90193 0.45234 0.0
H618 H 0.9551 0.8675 0.41098 0.0
H619 H 0.01737 0.75214 0.48171 0.0
H620 H 0.98746 0.75604 0.55299 0.0
H621 H 0.96478 0.87055 0.53234 0.0
C622 C 0.05187 0.86715 0.39091 0.0
C623 C 0.07696 0.8442 0.3695 0.0
C624 C 0.07595 0.80623 0.37614 0.0
C625 C 0.05185 0.79156 0.40648 0.0
C626 C 0.02855 0.81527 0.42885 0.0
C627 C 0.0277 0.85222 0.42048 0.0
C628 C 1.00338 0.87258 0.45192 0.0
C629 C 0.02453 0.90214 0.47652 0.0
C630 C 0.97019 0.88894 0.42874 0.0
C631 C 0.99252 0.84173 0.48121 0.0
C632 C 1.00696 0.8088 0.46715 0.0
C633 C 1.00487 0.77746 0.4922 0.0
C634 C 0.98805 0.77994 0.5327 0.0
C635 C 0.97337 0.81343 0.54755 0.0
C636 C 0.97484 0.8444 0.52102 0.0
H637 H 0.84818 0.07064 0.50634 0.0
H638 H 0.74605 0.02126 0.47034 0.0
H639 H 0.7429 0.99133 0.54135 0.0
H640 H 0.88425 0.994 0.55496 0.0
H641 H 0.90777 1.0176 0.59747 0.0
H642 H 0.89883 0.04027 0.54737 0.0
H643 H 0.8658 0.09247 0.58814 0.0
H644 H 0.87459 0.06997 0.6386 0.0
H645 H 0.8287 0.08212 0.62387 0.0
H646 H 0.75419 0.96125 0.61215 0.0
H647 H 0.78042 0.93079 0.67571 0.0
H648 H 0.87631 0.99817 0.66534 0.0
C649 C 0.82467 0.05437 0.51401 0.0
C650 C 0.79709 0.04852 0.48323 0.0
C651 C 0.76726 0.02625 0.49373 0.0
C652 C 0.7652 1.00927 0.53401 0.0
C653 C 0.79326 1.01478 0.56339 0.0
C654 C 0.82249 0.03677 0.5539 0.0
C655 C 0.85101 0.03486 0.58906 0.0
C656 C 0.8876 0.02083 0.57113 0.0
C657 C 0.85526 0.07207 0.61124 0.0
C658 C 0.83381 1.0074 0.61903 0.0
C659 C 0.80019 0.99673 0.60404 0.0
C660 C 0.78023 0.96979 0.62459 0.0
C661 C 0.79536 0.95263 0.66075 0.0
C662 C 0.83035 0.96215 0.67579 0.0
C663 C 0.84928 0.99059 0.65515 0.0
H664 H 0.44739 0.46899 0.17266 0.0
H665 H 0.41681 0.47895 0.3072 0.0
H666 H 0.47382 0.51205 0.32187 0.0
H667 H 0.54431 0.45427 0.19242 0.0
H668 H 0.55639 0.47841 0.14414 0.0
H669 H 0.51358 0.4551 0.14745 0.0
H670 H 0.48181 0.51662 0.12693 0.0
H671 H 0.52475 0.53972 0.12679 0.0
H672 H 0.48838 0.55597 0.16091 0.0
H673 H 0.53418 0.54515 0.32129 0.0
H674 H 0.59309 0.57409 0.30619 0.0
H675 H 0.58462 0.54126 0.17211 0.0
C676 C 0.45254 0.47824 0.20524 0.0
C677 C 0.42743 0.47153 0.23879 0.0
C678 C 0.43557 0.48372 0.281 0.0
C679 C 0.46788 0.50261 0.2896 0.0
C680 C 0.49198 0.50883 0.25574 0.0
C681 C 0.48477 0.49678 0.21445 0.0
C682 C 0.5154 0.50624 0.18389 0.0
C683 C 0.53351 0.47146 0.16588 0.0
C684 C 0.50176 0.53112 0.14749 0.0
C685 C 0.54071 0.52625 0.21418 0.0
C686 C 0.52679 0.52732 0.25553 0.0
C687 C 0.54533 0.54437 0.28904 0.0
C688 C 0.57885 0.56077 0.28011 0.0
C689 C 0.59373 0.56003 0.23796 0.0
C690 C 0.57422 0.54235 0.20471 0.0
H691 H 0.48052 0.58446 0.85507 0.0
H692 H 0.46342 0.60579 0.71931 0.0
H693 H 0.49886 0.55021 0.70085 0.0
H694 H 0.57174 0.55215 0.84622 0.0
H695 H 0.56669 0.51791 0.88712 0.0
H696 H 0.53922 0.55869 0.88907 0.0
H697 H 0.48086 0.51968 0.89029 0.0
H698 H 0.5082 0.47878 0.88843 0.0
H699 H 0.47358 0.48642 0.84838 0.0
H700 H 0.53826 0.49115 0.69784 0.0
H701 H 0.57658 0.4362 0.71126 0.0
H702 H 0.56658 0.4555 0.84876 0.0
C703 C 0.48405 0.57749 0.8214 0.0
C704 C 0.46908 0.59969 0.78869 0.0
C705 C 0.4745 0.58932 0.74506 0.0
C706 C 0.49465 0.55773 0.73423 0.0
C707 C 0.50921 0.53656 0.76735 0.0
C708 C 0.50397 0.54612 0.81008 0.0
C709 C 0.52255 0.51927 0.83983 0.0
C710 C 0.55178 0.53814 0.86715 0.0
C711 C 0.49463 0.49989 0.86841 0.0
C712 C 0.5394 0.49327 0.80732 0.0
C713 C 0.53145 0.50337 0.76561 0.0
C714 C 0.54455 0.48308 0.73048 0.0
C715 C 0.56633 0.45188 0.73833 0.0
C716 C 0.57491 0.44135 0.78098 0.0
C717 C 0.56092 0.46255 0.81562 0.0
H718 H 0.94133 0.05846 0.25368 0.0
H719 H 0.91315 0.04709 0.38896 0.0
H720 H 0.96942 1.01308 0.40148 0.0
H721 H 0.9847 0.96781 0.24244 0.0
H722 H 0.02044 0.98351 0.20762 0.0
H723 H 0.97675 1.00613 0.2075 0.0
H724 H 1.0078 0.06756 0.22415 0.0
H725 H 0.05154 0.04513 0.22437 0.0
H726 H 0.03692 0.0713 0.27058 0.0
H727 H 0.02917 0.98386 0.40227 0.0
H728 H 0.09027 0.95864 0.39046 0.0
H729 H 0.08285 0.98503 0.25453 0.0
C730 C 0.94691 0.04849 0.28577 0.0
C731 C 0.92244 0.0557 0.32024 0.0
C732 C 0.9311 0.04227 0.36183 0.0
C733 C 0.96315 0.02272 0.36944 0.0
C734 C 0.98672 1.01643 0.33523 0.0
C735 C 0.97923 0.02862 0.29413 0.0
C736 C 1.01036 0.0184 0.26377 0.0
C737 C 0.99727 0.99241 0.22822 0.0
C738 C 0.02767 0.05264 0.24458 0.0
C739 C 0.0364 0.99912 0.29454 0.0
C740 C 0.02187 0.99849 0.33555 0.0
C741 C 0.04079 0.9839 0.37025 0.0
C742 C 0.07566 0.96973 0.36316 0.0
C743 C 0.09147 0.96961 0.32154 0.0
C744 C 0.07133 0.98426 0.28659 0.0
H745 H 0.07966 0.06236 0.6788 0.0
H746 H 0.07481 0.09284 0.81391 0.0
H747 H 0.03619 0.03913 0.8281 0.0
H748 H 0.98863 0.0344 0.66882 0.0
H749 H 0.99876 0.99734 0.63239 0.0
H750 H 0.02764 0.03661 0.63381 0.0
H751 H 0.08356 0.99512 0.64888 0.0
H752 H 0.05484 0.95568 0.64728 0.0
H753 H 0.08261 0.96433 0.69391 0.0
H754 H 0.99509 0.98313 0.82598 0.0
H755 H 0.95683 0.93014 0.80867 0.0
H756 H 0.98916 0.93738 0.67457 0.0
C757 C 0.07085 0.05777 0.71159 0.0
C758 C 0.0804 0.082 0.74533 0.0
C759 C 0.06809 0.07468 0.78759 0.0
C760 C 0.04606 0.04425 0.79588 0.0
C761 C 0.03674 0.02133 0.7616 0.0
C762 C 0.049 0.02773 0.72033 0.0
C763 C 0.03453 0.99982 0.6887 0.0
C764 C 1.011 1.01814 0.65389 0.0
C765 C 0.06575 0.97742 0.66851 0.0
C766 C 1.01175 0.97676 0.71843 0.0
C767 C 1.01341 0.98947 0.76038 0.0
C768 C 0.99384 0.97293 0.79327 0.0
C769 C 0.97208 0.94281 0.78305 0.0
C770 C 0.96989 0.92936 0.74021 0.0
C771 C 0.99025 0.94669 0.70767 0.0
H772 H 0.16562 0.09358 0.30864 0.0
H773 H 0.26188 0.03793 0.26045 0.0
H774 H 0.29101 0.09729 0.24827 0.0
H775 H 0.17392 0.17993 0.24064 0.0
H776 H 0.15838 0.20728 0.28547 0.0
H777 H 0.14145 0.16174 0.27812 0.0
H778 H 0.16178 0.14568 0.35567 0.0
H779 H 0.17911 0.19072 0.3631 0.0
H780 H 0.20861 0.15185 0.37083 0.0
H781 H 0.31457 0.16086 0.25757 0.0
H782 H 0.32968 0.2215 0.28736 0.0
H783 H 0.21835 0.23538 0.33008 0.0
C784 C 0.19223 0.09386 0.29375 0.0
C785 C 0.21142 0.06111 0.28543 0.0
C786 C 0.24647 0.06265 0.26674 0.0
C787 C 0.26325 0.09633 0.25967 0.0
C788 C 0.24442 0.12815 0.27091 0.0
C789 C 0.20936 0.12714 0.28696 0.0
C790 C 0.19697 0.16419 0.30303 0.0
C791 C 0.16584 0.17917 0.27513 0.0
C792 C 0.18602 0.163 0.35096 0.0
C793 C 0.23134 0.18567 0.29638 0.0
C794 C 0.25814 0.16483 0.27669 0.0
C795 C 0.29349 0.17773 0.27189 0.0
C796 C 0.30187 0.2122 0.28884 0.0
C797 C 0.27512 0.233 0.31089 0.0
C798 C 0.23921 0.22005 0.31309 0.0
H799 H 0.23029 0.82262 0.70397 0.0
H800 H 0.22212 0.70977 0.74231 0.0
H801 H 0.15868 0.72079 0.76561 0.0
H802 H 0.16361 0.86278 0.78674 0.0
H803 H 0.1464 0.89426 0.74715 0.0
H804 H 0.19352 0.88035 0.74597 0.0
H805 H 0.18602 0.85954 0.66665 0.0
H806 H 0.13906 0.87289 0.66769 0.0
H807 H 0.15153 0.82681 0.65337 0.0
H808 H 0.09319 0.74022 0.7683 0.0
H809 H 0.03276 0.76614 0.75114 0.0
H810 H 0.08363 0.86606 0.70953 0.0
C811 C 0.21552 0.80063 0.71889 0.0
C812 C 0.23097 0.76542 0.72151 0.0
C813 C 0.2109 0.7371 0.74067 0.0
C814 C 0.17482 0.74314 0.75389 0.0
C815 C 0.15955 0.77774 0.74826 0.0
C816 C 0.17956 0.80621 0.73181 0.0
C817 C 0.1558 0.83906 0.72249 0.0
C818 C 0.1654 0.871 0.75239 0.0
C819 C 0.15824 0.85017 0.67474 0.0
C820 C 0.11891 0.82389 0.7334 0.0
C821 C 0.1216 0.78885 0.74932 0.0
C822 C 0.09081 0.76795 0.75696 0.0
C823 C 0.05657 0.78287 0.74701 0.0
C824 C 0.05352 0.81812 0.72902 0.0
C825 C 0.08505 0.83918 0.72364 0.0
H826 H 0.82402 0.79551 0.32354 0.0
H827 H 0.71311 0.80266 0.27776 0.0
H828 H 0.7237 0.86595 0.25442 0.0
H829 H 0.82323 0.87388 0.37461 0.0
H830 H 0.86941 0.88717 0.36404 0.0
H831 H 0.8577 0.83993 0.3634 0.0
H832 H 0.88274 0.83324 0.28575 0.0
H833 H 0.89501 0.88067 0.28628 0.0
H834 H 0.86635 0.86318 0.24409 0.0
H835 H 0.74125 0.93155 0.25296 0.0
H836 H 0.76352 0.99234 0.27367 0.0
H837 H 0.86223 0.943 0.32361 0.0
C838 C 0.80246 0.80998 0.30695 0.0
C839 C 0.7678 0.79432 0.30234 0.0
C840 C 0.74003 0.81401 0.28097 0.0
C841 C 0.74584 0.85001 0.26771 0.0
C842 C 0.77966 0.86564 0.27564 0.0
C843 C 0.80772 0.84596 0.29425 0.0
C844 C 0.83912 0.87024 0.30648 0.0
C845 C 0.84781 0.86766 0.35497 0.0
C846 C 0.8728 0.8613 0.27899 0.0
C847 C 0.82332 0.90703 0.29489 0.0
C848 C 0.78953 0.90382 0.27581 0.0
C849 C 0.76805 0.93434 0.26681 0.0
C850 C 0.7809 0.96881 0.2788 0.0
C851 C 0.81461 0.97235 0.30029 0.0
C852 C 0.83651 0.94116 0.30687 0.0
H853 H 0.99997 0.24427 0.67301 0.0
H854 H 0.98884 0.19737 0.79991 0.0
H855 H 0.92595 0.22175 0.80471 0.0
H856 H 0.94049 0.32615 0.68864 0.0
H857 H 0.92161 0.3219 0.63534 0.0
H858 H 0.96758 0.307 0.6456 0.0
H859 H 0.95216 0.24308 0.61533 0.0
H860 H 0.90616 0.25762 0.60539 0.0
H861 H 0.91491 0.21824 0.63831 0.0
H862 H 0.86188 0.24617 0.79229 0.0
H863 H 0.80226 0.26524 0.76242 0.0
H864 H 0.85472 0.29289 0.64201 0.0
C865 C 0.98481 0.24058 0.70255 0.0
C866 C 0.99962 0.22005 0.73677 0.0
C867 C 0.97825 0.21388 0.77389 0.0
C868 C 0.94249 0.22755 0.77679 0.0
C869 C 0.92824 0.24683 0.74195 0.0
C870 C 0.94878 0.25323 0.70545 0.0
C871 C 0.92587 0.27044 0.67032 0.0
C872 C 0.93971 0.30865 0.65934 0.0
C873 C 0.92472 0.24588 0.62999 0.0
C874 C 0.88918 0.27235 0.69247 0.0
C875 C 0.89111 0.25914 0.73399 0.0
C876 C 0.86019 0.2569 0.75996 0.0
C877 C 0.82643 0.26791 0.74282 0.0
C878 C 0.82374 0.28048 0.69988 0.0
C879 C 0.8558 0.28323 0.67489 0.0
H880 H 0.8155 0.33379 0.15608 0.0
H881 H 0.76411 0.27417 0.25923 0.0
H882 H 0.74198 0.33233 0.29102 0.0
H883 H 0.84083 0.41591 0.2213 0.0
H884 H 0.83122 0.44596 0.17693 0.0
H885 H 0.84758 0.40031 0.16672 0.0
H886 H 0.79172 0.38836 0.11802 0.0
H887 H 0.77512 0.43373 0.12823 0.0
H888 H 0.7467 0.39526 0.13961 0.0
H889 H 0.71571 0.39567 0.30266 0.0
H890 H 0.6922 0.45893 0.29671 0.0
H891 H 0.76431 0.47737 0.18886 0.0
C892 C 0.80049 0.33313 0.18608 0.0
C893 C 0.79159 0.29964 0.2054 0.0
C894 C 0.77159 0.29964 0.24433 0.0
C895 C 0.75883 0.33252 0.26245 0.0
C896 C 0.76695 0.36509 0.24164 0.0
C897 C 0.78794 0.36561 0.20469 0.0
C898 C 0.79055 0.40367 0.18649 0.0
C899 C 0.82989 0.41726 0.18797 0.0
C900 C 0.77509 0.40532 0.1404 0.0
C901 C 0.76668 0.42439 0.21801 0.0
C902 C 0.75327 0.40176 0.24966 0.0
C903 C 0.72698 0.41389 0.27895 0.0
C904 C 0.71376 0.4498 0.27538 0.0
C905 C 0.72727 0.47324 0.24321 0.0
C906 C 0.75463 0.46051 0.21492 0.0
H907 H 0.45887 0.36324 0.81847 0.0
H908 H 0.52144 0.26444 0.79519 0.0
H909 H 0.46412 0.23 0.78761 0.0
H910 H 0.39644 0.32454 0.88573 0.0
H911 H 0.35832 0.35177 0.86815 0.0
H912 H 0.40358 0.36925 0.86373 0.0
H913 H 0.39409 0.37968 0.78199 0.0
H914 H 0.34861 0.36226 0.78618 0.0
H915 H 0.38014 0.3423 0.7482 0.0
H916 H 0.39919 0.20538 0.79121 0.0
H917 H 0.33495 0.1929 0.80972 0.0
H918 H 0.31645 0.308 0.8327 0.0
C919 C 0.46072 0.33454 0.81056 0.0
C920 C 0.49479 0.31663 0.807 0.0
C921 C 0.49572 0.27885 0.79761 0.0
C922 C 0.46325 0.2591 0.79321 0.0
C923 C 0.43009 0.27753 0.79823 0.0
C924 C 0.42877 0.31452 0.80663 0.0
C925 C 0.39032 0.32752 0.8155 0.0
C926 C 0.387 0.34423 0.86096 0.0
C927 C 0.37754 0.35454 0.78089 0.0
C928 C 0.37014 0.29194 0.81211 0.0
C929 C 0.39327 0.26344 0.80129 0.0
C930 C 0.38084 0.22764 0.79905 0.0
C931 C 0.34426 0.22079 0.80936 0.0
C932 C 0.32071 0.24951 0.82238 0.0
C933 C 0.33376 0.28556 0.82251 0.0
H934 H 0.30979 0.73504 0.20284 0.0
H935 H 0.19667 0.72396 0.23832 0.0
H936 H 0.20838 0.65988 0.25923 0.0
H937 H 0.31726 0.65568 0.15036 0.0
H938 H 0.36323 0.64475 0.16598 0.0
H939 H 0.34833 0.69139 0.16475 0.0
H940 H 0.36688 0.69964 0.24468 0.0
H941 H 0.38226 0.6529 0.24606 0.0
H942 H 0.34931 0.66913 0.28477 0.0
H943 H 0.22982 0.5942 0.26142 0.0
H944 H 0.25891 0.53444 0.24663 0.0
H945 H 0.3579 0.58912 0.20915 0.0
C946 C 0.28783 0.71947 0.21661 0.0
C947 C 0.2524 0.73435 0.21926 0.0
C948 C 0.22412 0.71318 0.23675 0.0
C949 C 0.23056 0.67674 0.24853 0.0
C950 C 0.2655 0.66221 0.24316 0.0
C951 C 0.29381 0.68323 0.22824 0.0
C952 C 0.32757 0.66045 0.21982 0.0
C953 C 0.33976 0.66323 0.17244 0.0
C954 C 0.35832 0.67117 0.25069 0.0
C955 C 0.31337 0.62298 0.23005 0.0
C956 C 0.27777 0.62447 0.24427 0.0
C957 C 0.25795 0.59282 0.25135 0.0
C958 C 0.27468 0.55896 0.24279 0.0
C959 C 0.31074 0.55706 0.22689 0.0
C960 C 0.33047 0.58955 0.22179 0.0
H961 H 0.54085 0.76798 0.82704 0.0
H962 H 0.56037 0.68265 0.73311 0.0
H963 H 0.62177 0.70699 0.71943 0.0
H964 H 0.60244 0.84115 0.7798 0.0
H965 H 0.61735 0.8537 0.83307 0.0
H966 H 0.57167 0.83777 0.82478 0.0
H967 H 0.58223 0.78788 0.88234 0.0
H968 H 0.62779 0.80331 0.89048 0.0
H969 H 0.61982 0.75647 0.87604 0.0
H970 H 0.68399 0.73262 0.72631 0.0
H971 H 0.74227 0.75301 0.75763 0.0
H972 H 0.68356 0.81748 0.85216 0.0
C973 C 0.55736 0.7558 0.80182 0.0
C974 C 0.54573 0.7243 0.78 0.0
C975 C 0.56869 0.70744 0.7492 0.0
C976 C 0.6035 0.72116 0.74124 0.0
C977 C 0.615 0.75135 0.76489 0.0
C978 C 0.59253 0.76841 0.79472 0.0
C979 C 0.61337 0.79494 0.82253 0.0
C980 C 0.60044 0.83423 0.81454 0.0
C981 C 0.61064 0.78502 0.87064 0.0
C982 C 0.65136 0.78878 0.80531 0.0
C983 C 0.65162 0.7646 0.771 0.0
C984 C 0.68404 0.75219 0.75247 0.0
C985 C 0.71696 0.76387 0.77034 0.0
C986 C 0.717 0.78696 0.80685 0.0
C987 C 0.68392 0.80032 0.82369 0.0
loop_
_geom_bond_atom_site_label_1
_geom_bond_atom_site_label_2
_geom_bond_distance
_geom_bond_site_symmetry_2
_ccdc_geom_bond_type
O0 Tb1 2.292 . S
O0 C3 1.255 . S
Tb1 O0 2.292 . S
Tb1 O17 2.326 . S
Tb1 O19 2.500 . S
Tb1 O20 2.473 . S
Tb1 O23 2.324 . S
Eu2 O6 2.292 . S
Eu2 C7 2.852 . S
Eu2 O18 2.324 . S
Eu2 O22 2.326 . S
Eu2 O24 2.500 . S
Eu2 O25 2.473 . S
C3 O0 1.255 . S
C3 O4 1.247 . S
O4 C3 1.247 . S
C5 O17 1.242 . S
C5 O18 1.258 . S
O6 Eu2 2.292 . S
O6 C8 1.255 . S
C7 Eu2 2.852 . S
C7 C11 1.503 . S
C7 O24 1.273 . S
C7 O25 1.257 . S
C8 O6 1.255 . S
C8 O9 1.247 . S
O9 C8 1.247 . S
C10 O22 1.242 . S
C10 O23 1.258 . S
C11 C7 1.503 . S
C11 C12 1.379 . S
C11 C16 1.392 . S
C12 C11 1.379 . S
C12 C13 1.404 . S
C12 H26 0.929 . S
C13 C12 1.404 . S
C13 C14 1.389 . S
C14 C13 1.389 . S
C14 C15 1.399 . S
C14 H27 0.931 . S
C15 C14 1.399 . S
C15 C16 1.390 . S
C16 C11 1.392 . S
C16 C15 1.390 . S
C16 H28 0.929 . S
O17 Tb1 2.326 . S
O17 C5 1.242 . S
O18 Eu2 2.324 . S
O18 C5 1.258 . S
O19 Tb1 2.500 . S
O19 C21 1.273 . S
O20 Tb1 2.473 . S
O20 C21 1.257 . S
C21 O19 1.273 . S
C21 O20 1.257 . S
O22 Eu2 2.326 . S
O22 C10 1.242 . S
O23 Tb1 2.324 . S
O23 C10 1.258 . S
O24 Eu2 2.500 . S
O24 C7 1.273 . S
O25 Eu2 2.473 . S
O25 C7 1.257 . S
H26 C12 0.929 . S
H27 C14 0.931 . S
H28 C16 0.929 . S
O29 Tb30 2.292 . S
O29 C32 1.255 . S
Tb30 O29 2.292 . S
Tb30 O46 2.326 . S
Tb30 O48 2.500 . S
Tb30 O49 2.473 . S
Tb30 O52 2.324 . S
Eu31 O35 2.292 . S
Eu31 C36 2.852 . S
Eu31 O47 2.324 . S
Eu31 O51 2.326 . S
Eu31 O53 2.500 . S
Eu31 O54 2.473 . S
C32 O29 1.255 . S
C32 O33 1.247 . S
O33 C32 1.247 . S
C34 O46 1.242 . S
C34 O47 1.258 . S
O35 Eu31 2.292 . S
O35 C37 1.255 . S
C36 Eu31 2.852 . S
C36 C40 1.503 . S
C36 O53 1.273 . S
C36 O54 1.257 . S
C37 O35 1.255 . S
C37 O38 1.247 . S
O38 C37 1.247 . S
C39 O51 1.242 . S
C39 O52 1.258 . S
C40 C36 1.503 . S
C40 C41 1.379 . S
C40 C45 1.392 . S
C41 C40 1.379 . S
C41 C42 1.404 . S
C41 H55 0.929 . S
C42 C41 1.404 . S
C42 C43 1.389 . S
C43 C42 1.389 . S
C43 C44 1.399 . S
C43 H56 0.931 . S
C44 C43 1.399 . S
C44 C45 1.390 . S
C45 C40 1.392 . S
C45 C44 1.390 . S
C45 H57 0.929 . S
O46 Tb30 2.326 . S
O46 C34 1.242 . S
O47 Eu31 2.324 . S
O47 C34 1.258 . S
O48 Tb30 2.500 . S
O48 C50 1.273 . S
O49 Tb30 2.473 . S
O49 C50 1.257 . S
C50 O48 1.273 . S
C50 O49 1.257 . S
O51 Eu31 2.326 . S
O51 C39 1.242 . S
O52 Tb30 2.324 . S
O52 C39 1.258 . S
O53 Eu31 2.500 . S
O53 C36 1.273 . S
O54 Eu31 2.473 . S
O54 C36 1.257 . S
H55 C41 0.929 . S
H56 C43 0.931 . S
H57 C45 0.929 . S
O58 Tb59 2.292 . S
O58 C61 1.255 . S
Tb59 O58 2.292 . S
Tb59 O75 2.326 . S
Tb59 O77 2.500 . S
Tb59 O78 2.473 . S
Tb59 O81 2.324 . S
Eu60 O64 2.292 . S
Eu60 C65 2.852 . S
Eu60 O76 2.324 . S
Eu60 O80 2.326 . S
Eu60 O82 2.500 . S
Eu60 O83 2.473 . S
C61 O58 1.255 . S
C61 O62 1.247 . S
O62 C61 1.247 . S
C63 O75 1.242 . S
C63 O76 1.258 . S
O64 Eu60 2.292 . S
O64 C66 1.255 . S
C65 Eu60 2.852 . S
C65 C69 1.503 . S
C65 O82 1.273 . S
C65 O83 1.257 . S
C66 O64 1.255 . S
C66 O67 1.247 . S
O67 C66 1.247 . S
C68 O80 1.242 . S
C68 O81 1.258 . S
C69 C65 1.503 . S
C69 C70 1.379 . S
C69 C74 1.392 . S
C70 C69 1.379 . S
C70 C71 1.404 . S
C70 H84 0.929 . S
C71 C70 1.404 . S
C71 C72 1.389 . S
C72 C71 1.389 . S
C72 C73 1.399 . S
C72 H85 0.931 . S
C73 C72 1.399 . S
C73 C74 1.390 . S
C74 C69 1.392 . S
C74 C73 1.390 . S
C74 H86 0.929 . S
O75 Tb59 2.326 . S
O75 C63 1.242 . S
O76 Eu60 2.324 . S
O76 C63 1.258 . S
O77 Tb59 2.500 . S
O77 C79 1.273 . S
O78 Tb59 2.473 . S
O78 C79 1.257 . S
C79 O77 1.273 . S
C79 O78 1.257 . S
O80 Eu60 2.326 . S
O80 C68 1.242 . S
O81 Tb59 2.324 . S
O81 C68 1.258 . S
O82 Eu60 2.500 . S
O82 C65 1.273 . S
O83 Eu60 2.473 . S
O83 C65 1.257 . S
H84 C70 0.929 . S
H85 C72 0.931 . S
H86 C74 0.929 . S
O87 Tb88 2.292 . S
O87 C90 1.255 . S
Tb88 O87 2.292 . S
Tb88 O104 2.326 . S
Tb88 O106 2.500 . S
Tb88 O107 2.473 . S
Tb88 O110 2.324 . S
Eu89 O93 2.292 . S
Eu89 C94 2.852 . S
Eu89 O105 2.324 . S
Eu89 O109 2.326 . S
Eu89 O111 2.500 . S
Eu89 O112 2.473 . S
C90 O87 1.255 . S
C90 O91 1.247 . S
O91 C90 1.247 . S
C92 O104 1.242 . S
C92 O105 1.258 . S
O93 Eu89 2.292 . S
O93 C95 1.255 . S
C94 Eu89 2.852 . S
C94 C98 1.503 . S
C94 O111 1.273 . S
C94 O112 1.257 . S
C95 O93 1.255 . S
C95 O96 1.247 . S
O96 C95 1.247 . S
C97 O109 1.242 . S
C97 O110 1.258 . S
C98 C94 1.503 . S
C98 C99 1.379 . S
C98 C103 1.392 . S
C99 C98 1.379 . S
C99 C100 1.404 . S
C99 H113 0.929 . S
C100 C99 1.404 . S
C100 C101 1.389 . S
C101 C100 1.389 . S
C101 C102 1.399 . S
C101 H114 0.931 . S
C102 C101 1.399 . S
C102 C103 1.390 . S
C103 C98 1.392 . S
C103 C102 1.390 . S
C103 H115 0.929 . S
O104 Tb88 2.326 . S
O104 C92 1.242 . S
O105 Eu89 2.324 . S
O105 C92 1.258 . S
O106 Tb88 2.500 . S
O106 C108 1.273 . S
O107 Tb88 2.473 . S
O107 C108 1.257 . S
C108 O106 1.273 . S
C108 O107 1.257 . S
O109 Eu89 2.326 . S
O109 C97 1.242 . S
O110 Tb88 2.324 . S
O110 C97 1.258 . S
O111 Eu89 2.500 . S
O111 C94 1.273 . S
O112 Eu89 2.473 . S
O112 C94 1.257 . S
H113 C99 0.929 . S
H114 C101 0.931 . S
H115 C103 0.929 . S
O116 Tb117 2.292 1_565 S
O116 C119 1.255 . S
Tb117 O116 2.292 1_545 S
Tb117 O133 2.326 . S
Tb117 O135 2.500 1_545 S
Tb117 O136 2.473 . S
Tb117 O139 2.324 . S
Eu118 O122 2.292 . S
Eu118 C123 2.852 . S
Eu118 O134 2.324 . S
Eu118 O138 2.326 . S
Eu118 O140 2.500 . S
Eu118 O141 2.473 . S
C119 O116 1.255 . S
C119 O120 1.247 1_565 S
O120 C119 1.247 1_545 S
C121 O133 1.242 . S
C121 O134 1.258 . S
O122 Eu118 2.292 . S
O122 C124 1.255 . S
C123 Eu118 2.852 . S
C123 C127 1.503 . S
C123 O140 1.273 . S
C123 O141 1.257 . S
C124 O122 1.255 . S
C124 O125 1.247 . S
O125 C124 1.247 . S
C126 O138 1.242 . S
C126 O139 1.258 . S
C127 C123 1.503 . S
C127 C128 1.379 . S
C127 C132 1.392 . S
C128 C127 1.379 . S
C128 C129 1.404 . S
C128 H142 0.929 . S
C129 C128 1.404 . S
C129 C130 1.389 . S
C130 C129 1.389 . S
C130 C131 1.399 . S
C130 H143 0.931 . S
C131 C130 1.399 . S
C131 C132 1.390 . S
C132 C127 1.392 . S
C132 C131 1.390 . S
C132 H144 0.929 . S
O133 Tb117 2.326 . S
O133 C121 1.242 . S
O134 Eu118 2.324 . S
O134 C121 1.258 . S
O135 Tb117 2.500 1_565 S
O135 C137 1.273 1_565 S
O136 Tb117 2.473 . S
O136 C137 1.257 . S
C137 O135 1.273 1_545 S
C137 O136 1.257 . S
O138 Eu118 2.326 . S
O138 C126 1.242 . S
O139 Tb117 2.324 . S
O139 C126 1.258 . S
O140 Eu118 2.500 . S
O140 C123 1.273 . S
O141 Eu118 2.473 . S
O141 C123 1.257 . S
H142 C128 0.929 . S
H143 C130 0.931 . S
H144 C132 0.929 . S
O145 Tb146 2.292 1_655 S
O145 C148 1.255 . S
Tb146 O145 2.292 1_455 S
Tb146 O162 2.326 . S
Tb146 O164 2.500 1_455 S
Tb146 O165 2.473 . S
Tb146 O168 2.324 . S
Eu147 O151 2.292 . S
Eu147 C152 2.852 . S
Eu147 O163 2.324 . S
Eu147 O167 2.326 . S
Eu147 O169 2.500 . S
Eu147 O170 2.473 . S
C148 O145 1.255 . S
C148 O149 1.247 1_655 S
O149 C148 1.247 1_455 S
C150 O162 1.242 . S
C150 O163 1.258 . S
O151 Eu147 2.292 . S
O151 C153 1.255 . S
C152 Eu147 2.852 . S
C152 C156 1.503 . S
C152 O169 1.273 . S
C152 O170 1.257 . S
C153 O151 1.255 . S
C153 O154 1.247 . S
O154 C153 1.247 . S
C155 O167 1.242 . S
C155 O168 1.258 . S
C156 C152 1.503 . S
C156 C157 1.379 . S
C156 C161 1.392 . S
C157 C156 1.379 . S
C157 C158 1.404 . S
C157 H171 0.929 . S
C158 C157 1.404 . S
C158 C159 1.389 . S
C159 C158 1.389 . S
C159 C160 1.399 . S
C159 H172 0.931 . S
C160 C159 1.399 . S
C160 C161 1.390 . S
C161 C156 1.392 . S
C161 C160 1.390 . S
C161 H173 0.929 . S
O162 Tb146 2.326 . S
O162 C150 1.242 . S
O163 Eu147 2.324 . S
O163 C150 1.258 . S
O164 Tb146 2.500 1_655 S
O164 C166 1.273 1_655 S
O165 Tb146 2.473 . S
O165 C166 1.257 . S
C166 O164 1.273 1_455 S
C166 O165 1.257 . S
O167 Eu147 2.326 . S
O167 C155 1.242 . S
O168 Tb146 2.324 . S
O168 C155 1.258 . S
O169 Eu147 2.500 . S
O169 C152 1.273 . S
O170 Eu147 2.473 . S
O170 C152 1.257 . S
H171 C157 0.929 . S
H172 C159 0.931 . S
H173 C161 0.929 . S
O174 Tb175 2.292 1_545 S
O174 C177 1.255 . S
Tb175 O174 2.292 1_565 S
Tb175 O191 2.326 . S
Tb175 O193 2.500 1_565 S
Tb175 O194 2.473 . S
Tb175 O197 2.324 . S
Eu176 O180 2.292 . S
Eu176 C181 2.852 . S
Eu176 O192 2.324 . S
Eu176 O196 2.326 . S
Eu176 O198 2.500 . S
Eu176 O199 2.473 . S
C177 O174 1.255 . S
C177 O178 1.247 1_545 S
O178 C177 1.247 1_565 S
C179 O191 1.242 . S
C179 O192 1.258 . S
O180 Eu176 2.292 . S
O180 C182 1.255 . S
C181 Eu176 2.852 . S
C181 C185 1.503 . S
C181 O198 1.273 . S
C181 O199 1.257 . S
C182 O180 1.255 . S
C182 O183 1.247 . S
O183 C182 1.247 . S
C184 O196 1.242 . S
C184 O197 1.258 . S
C185 C181 1.503 . S
C185 C186 1.379 . S
C185 C190 1.392 . S
C186 C185 1.379 . S
C186 C187 1.404 . S
C186 H200 0.929 . S
C187 C186 1.404 . S
C187 C188 1.389 . S
C188 C187 1.389 . S
C188 C189 1.399 . S
C188 H201 0.931 . S
C189 C188 1.399 . S
C189 C190 1.390 . S
C190 C185 1.392 . S
C190 C189 1.390 . S
C190 H202 0.929 . S
O191 Tb175 2.326 . S
O191 C179 1.242 . S
O192 Eu176 2.324 . S
O192 C179 1.258 . S
O193 Tb175 2.500 1_545 S
O193 C195 1.273 1_545 S
O194 Tb175 2.473 . S
O194 C195 1.257 . S
C195 O193 1.273 1_565 S
C195 O194 1.257 . S
O196 Eu176 2.326 . S
O196 C184 1.242 . S
O197 Tb175 2.324 . S
O197 C184 1.258 . S
O198 Eu176 2.500 . S
O198 C181 1.273 . S
O199 Eu176 2.473 . S
O199 C181 1.257 . S
H200 C186 0.929 . S
H201 C188 0.931 . S
H202 C190 0.929 . S
O203 Tb204 2.292 1_455 S
O203 C206 1.255 . S
Tb204 O203 2.292 1_655 S
Tb204 O220 2.326 . S
Tb204 O222 2.500 1_655 S
Tb204 O223 2.473 . S
Tb204 O226 2.324 . S
Eu205 O209 2.292 . S
Eu205 C210 2.852 . S
Eu205 O221 2.324 . S
Eu205 O225 2.326 . S
Eu205 O227 2.500 . S
Eu205 O228 2.473 . S
C206 O203 1.255 . S
C206 O207 1.247 1_455 S
O207 C206 1.247 1_655 S
C208 O220 1.242 . S
C208 O221 1.258 . S
O209 Eu205 2.292 . S
O209 C211 1.255 . S
C210 Eu205 2.852 . S
C210 C214 1.503 . S
C210 O227 1.273 . S
C210 O228 1.257 . S
C211 O209 1.255 . S
C211 O212 1.247 . S
O212 C211 1.247 . S
C213 O225 1.242 . S
C213 O226 1.258 . S
C214 C210 1.503 . S
C214 C215 1.379 . S
C214 C219 1.392 . S
C215 C214 1.379 . S
C215 C216 1.404 . S
C215 H229 0.929 . S
C216 C215 1.404 . S
C216 C217 1.389 . S
C217 C216 1.389 . S
C217 C218 1.399 . S
C217 H230 0.931 . S
C218 C217 1.399 . S
C218 C219 1.390 . S
C219 C214 1.392 . S
C219 C218 1.390 . S
C219 H231 0.929 . S
O220 Tb204 2.326 . S
O220 C208 1.242 . S
O221 Eu205 2.324 . S
O221 C208 1.258 . S
O222 Tb204 2.500 1_455 S
O222 C224 1.273 1_455 S
O223 Tb204 2.473 . S
O223 C224 1.257 . S
C224 O222 1.273 1_655 S
C224 O223 1.257 . S
O225 Eu205 2.326 . S
O225 C213 1.242 . S
O226 Tb204 2.324 . S
O226 C213 1.258 . S
O227 Eu205 2.500 . S
O227 C210 1.273 . S
O228 Eu205 2.473 . S
O228 C210 1.257 . S
H229 C215 0.929 . S
H230 C217 0.931 . S
H231 C219 0.929 . S
H232 C244 0.930 . S
H233 C246 0.930 . S
H234 C247 0.930 . S
H235 C251 0.959 . S
H236 C251 0.959 . S
H237 C251 0.961 . S
H238 C252 0.960 . S
H239 C252 0.961 . S
H240 C252 0.959 . S
H241 C255 0.929 . S
H242 C256 0.931 . S
H243 C258 0.930 . S
C244 H232 0.930 . S
C244 C245 1.399 . S
C244 C249 1.399 1_554 S
C245 C244 1.399 . S
C245 C246 1.376 . S
C246 H233 0.930 . S
C246 C245 1.376 . S
C246 C247 1.388 . S
C247 H234 0.930 . S
C247 C246 1.388 . S
C247 C248 1.390 1_554 S
C248 C247 1.390 1_556 S
C248 C249 1.394 . S
C248 C254 1.465 . S
C249 C244 1.399 1_556 S
C249 C248 1.394 . S
C249 C250 1.516 . S
C250 C249 1.516 . S
C250 C251 1.502 . S
C250 C252 1.561 . S
C250 C253 1.526 . S
C251 H235 0.959 . S
C251 H236 0.959 . S
C251 H237 0.961 . S
C251 C250 1.502 . S
C252 H238 0.960 . S
C252 H239 0.961 . S
C252 H240 0.959 . S
C252 C250 1.561 . S
C253 C250 1.526 . S
C253 C254 1.396 . S
C253 C258 1.390 . S
C254 C248 1.465 . S
C254 C253 1.396 . S
C254 C255 1.399 . S
C255 H241 0.929 . S
C255 C254 1.399 . S
C255 C256 1.385 . S
C256 H242 0.931 . S
C256 C255 1.385 . S
C256 C257 1.389 . S
C257 C256 1.389 . S
C257 C258 1.387 . S
C258 H243 0.930 . S
C258 C253 1.390 . S
C258 C257 1.387 . S
H259 C271 0.930 . S
H260 C273 0.930 . S
H261 C274 0.930 . S
H262 C278 0.959 . S
H263 C278 0.959 . S
H264 C278 0.961 . S
H265 C279 0.960 . S
H266 C279 0.961 . S
H267 C279 0.959 . S
H268 C282 0.929 . S
H269 C283 0.931 . S
H270 C285 0.930 . S
C271 H259 0.930 . S
C271 C272 1.399 . S
C271 C276 1.399 1_556 S
C272 C271 1.399 . S
C272 C273 1.376 . S
C273 H260 0.930 . S
C273 C272 1.376 . S
C273 C274 1.388 1_556 S
C274 H261 0.930 . S
C274 C273 1.388 1_554 S
C274 C275 1.390 . S
C275 C274 1.390 . S
C275 C276 1.394 . S
C275 C281 1.465 . S
C276 C271 1.399 1_554 S
C276 C275 1.394 . S
C276 C277 1.516 . S
C277 C276 1.516 . S
C277 C278 1.502 . S
C277 C279 1.561 . S
C277 C280 1.526 . S
C278 H262 0.959 . S
C278 H263 0.959 . S
C278 H264 0.961 . S
C278 C277 1.502 . S
C279 H265 0.960 . S
C279 H266 0.961 . S
C279 H267 0.959 . S
C279 C277 1.561 . S
C280 C277 1.526 . S
C280 C281 1.396 . S
C280 C285 1.390 . S
C281 C275 1.465 . S
C281 C280 1.396 . S
C281 C282 1.399 . S
C282 H268 0.929 . S
C282 C281 1.399 . S
C282 C283 1.385 . S
C283 H269 0.931 . S
C283 C282 1.385 . S
C283 C284 1.389 . S
C284 C283 1.389 . S
C284 C285 1.387 . S
C285 H270 0.930 . S
C285 C280 1.390 . S
C285 C284 1.387 . S
H286 C298 0.930 . S
H287 C300 0.930 . S
H288 C301 0.930 . S
H289 C305 0.959 . S
H290 C305 0.959 1_554 S
H291 C305 0.961 . S
H292 C306 0.960 . S
H293 C306 0.961 . S
H294 C306 0.959 . S
H295 C309 0.929 . S
H296 C310 0.931 . S
H297 C312 0.930 . S
C298 H286 0.930 . S
C298 C299 1.399 . S
C298 C303 1.399 . S
C299 C298 1.399 . S
C299 C300 1.376 . S
C300 H287 0.930 . S
C300 C299 1.376 . S
C300 C301 1.388 . S
C301 H288 0.930 . S
C301 C300 1.388 . S
C301 C302 1.390 . S
C302 C301 1.390 . S
C302 C303 1.394 . S
C302 C308 1.465 . S
C303 C298 1.399 . S
C303 C302 1.394 . S
C303 C304 1.516 . S
C304 C303 1.516 . S
C304 C305 1.502 . S
C304 C306 1.561 . S
C304 C307 1.526 . S
C305 H289 0.959 . S
C305 H290 0.959 1_556 S
C305 H291 0.961 . S
C305 C304 1.502 . S
C306 H292 0.960 . S
C306 H293 0.961 . S
C306 H294 0.959 . S
C306 C304 1.561 . S
C307 C304 1.526 . S
C307 C308 1.396 . S
C307 C312 1.390 1_556 S
C308 C302 1.465 . S
C308 C307 1.396 . S
C308 C309 1.399 . S
C309 H295 0.929 . S
C309 C308 1.399 . S
C309 C310 1.385 1_556 S
C310 H296 0.931 . S
C310 C309 1.385 1_554 S
C310 C311 1.389 . S
C311 C310 1.389 . S
C311 C312 1.387 . S
C312 H297 0.930 . S
C312 C307 1.390 1_554 S
C312 C311 1.387 . S
H313 C325 0.930 . S
H314 C327 0.930 . S
H315 C328 0.930 . S
H316 C332 0.959 . S
H317 C332 0.959 . S
H318 C332 0.961 . S
H319 C333 0.960 . S
H320 C333 0.961 . S
H321 C333 0.959 . S
H322 C336 0.929 . S
H323 C337 0.931 . S
H324 C339 0.930 . S
C325 H313 0.930 . S
C325 C326 1.399 . S
C325 C330 1.399 . S
C326 C325 1.399 . S
C326 C327 1.376 . S
C327 H314 0.930 . S
C327 C326 1.376 . S
C327 C328 1.388 . S
C328 H315 0.930 . S
C328 C327 1.388 . S
C328 C329 1.390 . S
C329 C328 1.390 . S
C329 C330 1.394 . S
C329 C335 1.465 . S
C330 C325 1.399 . S
C330 C329 1.394 . S
C330 C331 1.516 . S
C331 C330 1.516 . S
C331 C332 1.502 . S
C331 C333 1.561 . S
C331 C334 1.526 . S
C332 H316 0.959 . S
C332 H317 0.959 . S
C332 H318 0.961 . S
C332 C331 1.502 . S
C333 H319 0.960 . S
C333 H320 0.961 . S
C333 H321 0.959 . S
C333 C331 1.561 . S
C334 C331 1.526 . S
C334 C335 1.396 . S
C334 C339 1.390 1_554 S
C335 C329 1.465 . S
C335 C334 1.396 . S
C335 C336 1.399 . S
C336 H322 0.929 . S
C336 C335 1.399 . S
C336 C337 1.385 1_554 S
C337 H323 0.931 . S
C337 C336 1.385 1_556 S
C337 C338 1.389 . S
C338 C337 1.389 . S
C338 C339 1.387 . S
C339 H324 0.930 . S
C339 C334 1.390 1_556 S
C339 C338 1.387 . S
H340 C352 0.930 . S
H341 C354 0.930 . S
H342 C355 0.930 . S
H343 C359 0.959 . S
H344 C359 0.959 . S
H345 C359 0.961 . S
H346 C360 0.960 . S
H347 C360 0.961 . S
H348 C360 0.959 . S
H349 C363 0.929 . S
H350 C364 0.931 . S
H351 C366 0.930 . S
C352 H340 0.930 . S
C352 C353 1.399 . S
C352 C357 1.399 . S
C353 C352 1.399 . S
C353 C354 1.376 . S
C354 H341 0.930 . S
C354 C353 1.376 . S
C354 C355 1.388 . S
C355 H342 0.930 . S
C355 C354 1.388 . S
C355 C356 1.390 . S
C356 C355 1.390 . S
C356 C357 1.394 . S
C356 C362 1.465 . S
C357 C352 1.399 . S
C357 C356 1.394 . S
C357 C358 1.516 . S
C358 C357 1.516 . S
C358 C359 1.502 . S
C358 C360 1.561 . S
C358 C361 1.526 . S
C359 H343 0.959 . S
C359 H344 0.959 . S
C359 H345 0.961 . S
C359 C358 1.502 . S
C360 H346 0.960 . S
C360 H347 0.961 . S
C360 H348 0.959 . S
C360 C358 1.561 . S
C361 C358 1.526 . S
C361 C362 1.396 . S
C361 C366 1.390 . S
C362 C356 1.465 . S
C362 C361 1.396 . S
C362 C363 1.399 . S
C363 H349 0.929 . S
C363 C362 1.399 . S
C363 C364 1.385 . S
C364 H350 0.931 . S
C364 C363 1.385 . S
C364 C365 1.389 . S
C365 C364 1.389 . S
C365 C366 1.387 . S
C366 H351 0.930 . S
C366 C361 1.390 . S
C366 C365 1.387 . S
H367 C379 0.930 . S
H368 C381 0.930 . S
H369 C382 0.930 . S
H370 C386 0.959 . S
H371 C386 0.959 . S
H372 C386 0.961 . S
H373 C387 0.960 . S
H374 C387 0.961 . S
H375 C387 0.959 . S
H376 C390 0.929 . S
H377 C391 0.931 . S
H378 C393 0.930 . S
C379 H367 0.930 . S
C379 C380 1.399 . S
C379 C384 1.399 . S
C380 C379 1.399 . S
C380 C381 1.376 . S
C381 H368 0.930 . S
C381 C380 1.376 . S
C381 C382 1.388 . S
C382 H369 0.930 . S
C382 C381 1.388 . S
C382 C383 1.390 . S
C383 C382 1.390 . S
C383 C384 1.394 . S
C383 C389 1.465 . S
C384 C379 1.399 . S
C384 C383 1.394 . S
C384 C385 1.516 . S
C385 C384 1.516 . S
C385 C386 1.502 . S
C385 C387 1.561 . S
C385 C388 1.526 . S
C386 H370 0.959 . S
C386 H371 0.959 . S
C386 H372 0.961 . S
C386 C385 1.502 . S
C387 H373 0.960 . S
C387 H374 0.961 . S
C387 H375 0.959 . S
C387 C385 1.561 . S
C388 C385 1.526 . S
C388 C389 1.396 . S
C388 C393 1.390 . S
C389 C383 1.465 . S
C389 C388 1.396 . S
C389 C390 1.399 . S
C390 H376 0.929 . S
C390 C389 1.399 . S
C390 C391 1.385 . S
C391 H377 0.931 . S
C391 C390 1.385 . S
C391 C392 1.389 . S
C392 C391 1.389 . S
C392 C393 1.387 . S
C393 H378 0.930 . S
C393 C388 1.390 . S
C393 C392 1.387 . S
H394 C406 0.930 . S
H395 C408 0.930 . S
H396 C409 0.930 . S
H397 C413 0.959 . S
H398 C413 0.959 . S
H399 C413 0.961 . S
H400 C414 0.960 . S
H401 C414 0.961 . S
H402 C414 0.959 . S
H403 C417 0.929 . S
H404 C418 0.931 . S
H405 C420 0.930 . S
C406 H394 0.930 . S
C406 C407 1.399 . S
C406 C411 1.399 . S
C407 C406 1.399 . S
C407 C408 1.376 . S
C408 H395 0.930 . S
C408 C407 1.376 . S
C408 C409 1.388 . S
C409 H396 0.930 . S
C409 C408 1.388 . S
C409 C410 1.390 . S
C410 C409 1.390 . S
C410 C411 1.394 . S
C410 C416 1.465 . S
C411 C406 1.399 . S
C411 C410 1.394 . S
C411 C412 1.516 . S
C412 C411 1.516 . S
C412 C413 1.502 . S
C412 C414 1.561 . S
C412 C415 1.526 . S
C413 H397 0.959 . S
C413 H398 0.959 . S
C413 H399 0.961 . S
C413 C412 1.502 . S
C414 H400 0.960 . S
C414 H401 0.961 . S
C414 H402 0.959 . S
C414 C412 1.561 . S
C415 C412 1.526 . S
C415 C416 1.396 . S
C415 C420 1.390 . S
C416 C410 1.465 . S
C416 C415 1.396 . S
C416 C417 1.399 . S
C417 H403 0.929 . S
C417 C416 1.399 . S
C417 C418 1.385 . S
C418 H404 0.931 . S
C418 C417 1.385 . S
C418 C419 1.389 . S
C419 C418 1.389 . S
C419 C420 1.387 . S
C420 H405 0.930 . S
C420 C415 1.390 . S
C420 C419 1.387 . S
H421 C433 0.930 . S
H422 C435 0.930 . S
H423 C436 0.930 . S
H424 C440 0.959 . S
H425 C440 0.959 . S
H426 C440 0.961 . S
H427 C441 0.960 . S
H428 C441 0.961 . S
H429 C441 0.959 . S
H430 C444 0.929 . S
H431 C445 0.931 . S
H432 C447 0.930 . S
C433 H421 0.930 . S
C433 C434 1.399 . S
C433 C438 1.399 . S
C434 C433 1.399 . S
C434 C435 1.376 . S
C435 H422 0.930 . S
C435 C434 1.376 . S
C435 C436 1.388 . S
C436 H423 0.930 . S
C436 C435 1.388 . S
C436 C437 1.390 . S
C437 C436 1.390 . S
C437 C438 1.394 . S
C437 C443 1.465 . S
C438 C433 1.399 . S
C438 C437 1.394 . S
C438 C439 1.516 . S
C439 C438 1.516 . S
C439 C440 1.502 . S
C439 C441 1.561 . S
C439 C442 1.526 . S
C440 H424 0.959 . S
C440 H425 0.959 . S
C440 H426 0.961 . S
C440 C439 1.502 . S
C441 H427 0.960 . S
C441 H428 0.961 . S
C441 H429 0.959 . S
C441 C439 1.561 . S
C442 C439 1.526 . S
C442 C443 1.396 . S
C442 C447 1.390 . S
C443 C437 1.465 . S
C443 C442 1.396 . S
C443 C444 1.399 . S
C444 H430 0.929 . S
C444 C443 1.399 . S
C444 C445 1.385 . S
C445 H431 0.931 . S
C445 C444 1.385 . S
C445 C446 1.389 . S
C446 C445 1.389 . S
C446 C447 1.387 . S
C447 H432 0.930 . S
C447 C442 1.390 . S
C447 C446 1.387 . S
H448 C460 0.930 . S
H449 C462 0.930 . S
H450 C463 0.930 . S
H451 C467 0.959 . S
H452 C467 0.959 . S
H453 C467 0.961 . S
H454 C468 0.960 . S
H455 C468 0.961 . S
H456 C468 0.959 . S
H457 C471 0.929 . S
H458 C472 0.931 . S
H459 C474 0.930 . S
C460 H448 0.930 . S
C460 C461 1.399 . S
C460 C465 1.399 . S
C461 C460 1.399 . S
C461 C462 1.376 . S
C462 H449 0.930 . S
C462 C461 1.376 . S
C462 C463 1.388 . S
C463 H450 0.930 . S
C463 C462 1.388 . S
C463 C464 1.390 . S
C464 C463 1.390 . S
C464 C465 1.394 . S
C464 C470 1.465 . S
C465 C460 1.399 . S
C465 C464 1.394 . S
C465 C466 1.516 1_556 S
C466 C465 1.516 1_554 S
C466 C467 1.502 . S
C466 C468 1.561 1_554 S
C466 C469 1.526 . S
C467 H451 0.959 . S
C467 H452 0.959 . S
C467 H453 0.961 . S
C467 C466 1.502 . S
C468 H454 0.960 . S
C468 H455 0.961 . S
C468 H456 0.959 . S
C468 C466 1.561 1_556 S
C469 C466 1.526 . S
C469 C470 1.396 1_554 S
C469 C474 1.390 . S
C470 C464 1.465 . S
C470 C469 1.396 1_556 S
C470 C471 1.399 . S
C471 H457 0.929 . S
C471 C470 1.399 . S
C471 C472 1.385 1_556 S
C472 H458 0.931 . S
C472 C471 1.385 1_554 S
C472 C473 1.389 . S
C473 C472 1.389 . S
C473 C474 1.387 . S
C474 H459 0.930 . S
C474 C469 1.390 . S
C474 C473 1.387 . S
H475 C487 0.930 . S
H476 C489 0.930 . S
H477 C490 0.930 . S
H478 C494 0.959 . S
H479 C494 0.959 . S
H480 C494 0.961 . S
H481 C495 0.960 . S
H482 C495 0.961 . S
H483 C495 0.959 . S
H484 C498 0.929 . S
H485 C499 0.931 . S
H486 C501 0.930 1_554 S
C487 H475 0.930 . S
C487 C488 1.399 . S
C487 C492 1.399 . S
C488 C487 1.399 . S
C488 C489 1.376 . S
C489 H476 0.930 . S
C489 C488 1.376 . S
C489 C490 1.388 1_554 S
C490 H477 0.930 . S
C490 C489 1.388 1_556 S
C490 C491 1.390 1_556 S
C491 C490 1.390 1_554 S
C491 C492 1.394 . S
C491 C497 1.465 1_554 S
C492 C487 1.399 . S
C492 C491 1.394 . S
C492 C493 1.516 . S
C493 C492 1.516 . S
C493 C494 1.502 . S
C493 C495 1.561 . S
C493 C496 1.526 . S
C494 H478 0.959 . S
C494 H479 0.959 . S
C494 H480 0.961 . S
C494 C493 1.502 . S
C495 H481 0.960 . S
C495 H482 0.961 . S
C495 H483 0.959 . S
C495 C493 1.561 . S
C496 C493 1.526 . S
C496 C497 1.396 1_554 S
C496 C501 1.390 1_554 S
C497 C491 1.465 1_556 S
C497 C496 1.396 1_556 S
C497 C498 1.399 . S
C498 H484 0.929 . S
C498 C497 1.399 . S
C498 C499 1.385 . S
C499 H485 0.931 . S
C499 C498 1.385 . S
C499 C500 1.389 . S
C500 C499 1.389 . S
C500 C501 1.387 . S
C501 H486 0.930 1_556 S
C501 C496 1.390 1_556 S
C501 C500 1.387 . S
H502 C514 0.930 . S
H503 C516 0.930 . S
H504 C517 0.930 . S
H505 C521 0.959 . S
H506 C521 0.959 . S
H507 C521 0.961 . S
H508 C522 0.960 1_556 S
H509 C522 0.961 . S
H510 C522 0.959 1_556 S
H511 C525 0.929 . S
H512 C526 0.931 . S
H513 C528 0.930 . S
C514 H502 0.930 . S
C514 C515 1.399 . S
C514 C519 1.399 . S
C515 C514 1.399 . S
C515 C516 1.376 . S
C516 H503 0.930 . S
C516 C515 1.376 . S
C516 C517 1.388 . S
C517 H504 0.930 . S
C517 C516 1.388 . S
C517 C518 1.390 . S
C518 C517 1.390 . S
C518 C519 1.394 . S
C518 C524 1.465 . S
C519 C514 1.399 . S
C519 C518 1.394 . S
C519 C520 1.516 1_556 S
C520 C519 1.516 1_554 S
C520 C521 1.502 . S
C520 C522 1.561 . S
C520 C523 1.526 . S
C521 H505 0.959 . S
C521 H506 0.959 . S
C521 H507 0.961 . S
C521 C520 1.502 . S
C522 H508 0.960 1_554 S
C522 H509 0.961 . S
C522 H510 0.959 1_554 S
C522 C520 1.561 . S
C523 C520 1.526 . S
C523 C524 1.396 1_554 S
C523 C528 1.390 . S
C524 C518 1.465 . S
C524 C523 1.396 1_556 S
C524 C525 1.399 . S
C525 H511 0.929 . S
C525 C524 1.399 . S
C525 C526 1.385 1_556 S
C526 H512 0.931 . S
C526 C525 1.385 1_554 S
C526 C527 1.389 . S
C527 C526 1.389 . S
C527 C528 1.387 . S
C528 H513 0.930 . S
C528 C523 1.390 . S
C528 C527 1.387 . S
H529 C541 0.930 1_554 S
H530 C543 0.930 . S
H531 C544 0.930 . S
H532 C548 0.959 . S
H533 C548 0.959 . S
H534 C548 0.961 . S
H535 C549 0.960 . S
H536 C549 0.961 . S
H537 C549 0.959 . S
H538 C552 0.929 . S
H539 C553 0.931 . S
H540 C555 0.930 . S
C541 H529 0.930 1_556 S
C541 C542 1.399 . S
C541 C546 1.399 1_556 S
C542 C541 1.399 . S
C542 C543 1.376 . S
C543 H530 0.930 . S
C543 C542 1.376 . S
C543 C544 1.388 . S
C544 H531 0.930 . S
C544 C543 1.388 . S
C544 C545 1.390 . S
C545 C544 1.390 . S
C545 C546 1.394 1_556 S
C545 C551 1.465 1_556 S
C546 C541 1.399 1_554 S
C546 C545 1.394 1_554 S
C546 C547 1.516 . S
C547 C546 1.516 . S
C547 C548 1.502 . S
C547 C549 1.561 . S
C547 C550 1.526 . S
C548 H532 0.959 . S
C548 H533 0.959 . S
C548 H534 0.961 . S
C548 C547 1.502 . S
C549 H535 0.960 . S
C549 H536 0.961 . S
C549 H537 0.959 . S
C549 C547 1.561 . S
C550 C547 1.526 . S
C550 C551 1.396 . S
C550 C555 1.390 . S
C551 C545 1.465 1_554 S
C551 C550 1.396 . S
C551 C552 1.399 1_554 S
C552 H538 0.929 . S
C552 C551 1.399 1_556 S
C552 C553 1.385 1_556 S
C553 H539 0.931 . S
C553 C552 1.385 1_554 S
C553 C554 1.389 . S
C554 C553 1.389 . S
C554 C555 1.387 . S
C555 H540 0.930 . S
C555 C550 1.390 . S
C555 C554 1.387 . S
H556 C568 0.930 . S
H557 C570 0.930 . S
H558 C571 0.930 . S
H559 C575 0.959 . S
H560 C575 0.959 . S
H561 C575 0.961 . S
H562 C576 0.960 . S
H563 C576 0.961 . S
H564 C576 0.959 . S
H565 C579 0.929 . S
H566 C580 0.931 . S
H567 C582 0.930 . S
C568 H556 0.930 . S
C568 C569 1.399 . S
C568 C573 1.399 . S
C569 C568 1.399 . S
C569 C570 1.376 . S
C570 H557 0.930 . S
C570 C569 1.376 . S
C570 C571 1.388 . S
C571 H558 0.930 . S
C571 C570 1.388 . S
C571 C572 1.390 . S
C572 C571 1.390 . S
C572 C573 1.394 . S
C572 C578 1.465 . S
C573 C568 1.399 . S
C573 C572 1.394 . S
C573 C574 1.516 . S
C574 C573 1.516 . S
C574 C575 1.502 . S
C574 C576 1.561 . S
C574 C577 1.526 . S
C575 H559 0.959 . S
C575 H560 0.959 . S
C575 H561 0.961 . S
C575 C574 1.502 . S
C576 H562 0.960 . S
C576 H563 0.961 . S
C576 H564 0.959 . S
C576 C574 1.561 . S
C577 C574 1.526 . S
C577 C578 1.396 . S
C577 C582 1.390 . S
C578 C572 1.465 . S
C578 C577 1.396 . S
C578 C579 1.399 . S
C579 H565 0.929 . S
C579 C578 1.399 . S
C579 C580 1.385 1_655 S
C580 H566 0.931 . S
C580 C579 1.385 1_455 S
C580 C581 1.389 . S
C581 C580 1.389 . S
C581 C582 1.387 1_455 S
C582 H567 0.930 . S
C582 C577 1.390 . S
C582 C581 1.387 1_655 S
H583 C595 0.930 . S
H584 C597 0.930 . S
H585 C598 0.930 . S
H586 C602 0.959 . S
H587 C602 0.959 . S
H588 C602 0.961 . S
H589 C603 0.960 . S
H590 C603 0.961 . S
H591 C603 0.959 . S
H592 C606 0.929 . S
H593 C607 0.931 1_565 S
H594 C609 0.930 . S
C595 H583 0.930 . S
C595 C596 1.399 . S
C595 C600 1.399 . S
C596 C595 1.399 . S
C596 C597 1.376 . S
C597 H584 0.930 . S
C597 C596 1.376 . S
C597 C598 1.388 . S
C598 H585 0.930 . S
C598 C597 1.388 . S
C598 C599 1.390 . S
C599 C598 1.390 . S
C599 C600 1.394 . S
C599 C605 1.465 . S
C600 C595 1.399 . S
C600 C599 1.394 . S
C600 C601 1.516 . S
C601 C600 1.516 . S
C601 C602 1.502 . S
C601 C603 1.561 . S
C601 C604 1.526 . S
C602 H586 0.959 . S
C602 H587 0.959 . S
C602 H588 0.961 . S
C602 C601 1.502 . S
C603 H589 0.960 . S
C603 H590 0.961 . S
C603 H591 0.959 . S
C603 C601 1.561 . S
C604 C601 1.526 . S
C604 C605 1.396 . S
C604 C609 1.390 . S
C605 C599 1.465 . S
C605 C604 1.396 . S
C605 C606 1.399 . S
C606 H592 0.929 . S
C606 C605 1.399 . S
C606 C607 1.385 . S
C607 H593 0.931 1_545 S
C607 C606 1.385 . S
C607 C608 1.389 1_545 S
C608 C607 1.389 1_565 S
C608 C609 1.387 1_565 S
C609 H594 0.930 . S
C609 C604 1.390 . S
C609 C608 1.387 1_545 S
H610 C622 0.930 . S
H611 C624 0.930 . S
H612 C625 0.930 . S
H613 C629 0.959 . S
H614 C629 0.959 . S
H615 C629 0.961 . S
H616 C630 0.960 . S
H617 C630 0.961 . S
H618 C630 0.959 . S
H619 C633 0.929 . S
H620 C634 0.949 . S
H621 C636 0.930 . S
C622 H610 0.930 . S
C622 C623 1.399 . S
C622 C627 1.399 . S
C623 C622 1.399 . S
C623 C624 1.376 . S
C624 H611 0.930 . S
C624 C623 1.376 . S
C624 C625 1.388 . S
C625 H612 0.930 . S
C625 C624 1.388 . S
C625 C626 1.390 . S
C626 C625 1.390 . S
C626 C627 1.394 . S
C626 C632 1.465 . S
C627 C622 1.399 . S
C627 C626 1.394 . S
C627 C628 1.516 . S
C628 C627 1.516 . S
C628 C629 1.502 . S
C628 C630 1.561 . S
C628 C631 1.526 . S
C629 H613 0.959 . S
C629 H614 0.959 . S
C629 H615 0.961 . S
C629 C628 1.502 . S
C630 H616 0.960 . S
C630 H617 0.961 . S
C630 H618 0.959 . S
C630 C628 1.561 . S
C631 C628 1.526 . S
C631 C632 1.396 . S
C631 C636 1.390 . S
C632 C626 1.465 . S
C632 C631 1.396 . S
C632 C633 1.399 . S
C633 H619 0.929 . S
C633 C632 1.399 . S
C633 C634 1.365 1_455 S
C634 H620 0.949 . S
C634 C633 1.365 1_655 S
C634 C635 1.392 . S
C635 C634 1.392 . S
C635 C636 1.387 1_655 S
C636 H621 0.930 . S
C636 C631 1.390 . S
C636 C635 1.387 1_455 S
H637 C649 0.930 1_545 S
H638 C651 0.930 . S
H639 C652 0.930 . S
H640 C656 0.959 . S
H641 C656 0.959 . S
H642 C656 0.961 . S
H643 C657 0.960 . S
H644 C657 0.961 . S
H645 C657 0.959 . S
H646 C660 0.929 . S
H647 C661 0.931 . S
H648 C663 0.930 . S
C649 H637 0.930 1_565 S
C649 C650 1.399 1_565 S
C649 C654 1.399 . S
C650 C649 1.399 1_545 S
C650 C651 1.376 1_545 S
C651 H638 0.930 . S
C651 C650 1.376 1_565 S
C651 C652 1.388 . S
C652 H639 0.930 . S
C652 C651 1.388 . S
C652 C653 1.390 . S
C653 C652 1.390 . S
C653 C654 1.394 . S
C653 C659 1.465 . S
C654 C649 1.399 . S
C654 C653 1.394 . S
C654 C655 1.516 . S
C655 C654 1.516 . S
C655 C656 1.502 . S
C655 C657 1.561 . S
C655 C658 1.526 . S
C656 H640 0.959 . S
C656 H641 0.959 . S
C656 H642 0.961 . S
C656 C655 1.502 . S
C657 H643 0.960 . S
C657 H644 0.961 . S
C657 H645 0.959 . S
C657 C655 1.561 . S
C658 C655 1.526 . S
C658 C659 1.396 . S
C658 C663 1.390 . S
C659 C653 1.465 . S
C659 C658 1.396 . S
C659 C660 1.399 . S
C660 H646 0.929 . S
C660 C659 1.399 . S
C660 C661 1.385 . S
C661 H647 0.931 . S
C661 C660 1.385 . S
C661 C662 1.389 . S
C662 C661 1.389 . S
C662 C663 1.387 . S
C663 H648 0.930 . S
C663 C658 1.390 . S
C663 C662 1.387 . S
H664 C676 0.930 . S
H665 C678 0.930 . S
H666 C679 0.930 . S
H667 C683 0.959 . S
H668 C683 0.959 . S
H669 C683 0.961 . S
H670 C684 0.960 . S
H671 C684 0.961 . S
H672 C684 0.959 . S
H673 C687 0.929 . S
H674 C688 0.931 . S
H675 C690 0.930 . S
C676 H664 0.930 . S
C676 C677 1.399 . S
C676 C681 1.399 . S
C677 C676 1.399 . S
C677 C678 1.376 . S
C678 H665 0.930 . S
C678 C677 1.376 . S
C678 C679 1.388 . S
C679 H666 0.930 . S
C679 C678 1.388 . S
C679 C680 1.390 . S
C680 C679 1.390 . S
C680 C681 1.394 . S
C680 C686 1.465 . S
C681 C676 1.399 . S
C681 C680 1.394 . S
C681 C682 1.516 . S
C682 C681 1.516 . S
C682 C683 1.502 . S
C682 C684 1.561 . S
C682 C685 1.526 . S
C683 H667 0.959 . S
C683 H668 0.959 . S
C683 H669 0.961 . S
C683 C682 1.502 . S
C684 H670 0.960 . S
C684 H671 0.961 . S
C684 H672 0.959 . S
C684 C682 1.561 . S
C685 C682 1.526 . S
C685 C686 1.396 . S
C685 C690 1.390 . S
C686 C680 1.465 . S
C686 C685 1.396 . S
C686 C687 1.399 . S
C687 H673 0.929 . S
C687 C686 1.399 . S
C687 C688 1.385 . S
C688 H674 0.931 . S
C688 C687 1.385 . S
C688 C689 1.389 . S
C689 C688 1.389 . S
C689 C690 1.387 . S
C690 H675 0.930 . S
C690 C685 1.390 . S
C690 C689 1.387 . S
H691 C703 0.930 . S
H692 C705 0.930 . S
H693 C706 0.930 . S
H694 C710 0.959 . S
H695 C710 0.959 . S
H696 C710 0.961 . S
H697 C711 0.960 . S
H698 C711 0.961 . S
H699 C711 0.959 . S
H700 C714 0.929 . S
H701 C715 0.931 . S
H702 C717 0.930 . S
C703 H691 0.930 . S
C703 C704 1.399 . S
C703 C708 1.399 . S
C704 C703 1.399 . S
C704 C705 1.376 . S
C705 H692 0.930 . S
C705 C704 1.376 . S
C705 C706 1.388 . S
C706 H693 0.930 . S
C706 C705 1.388 . S
C706 C707 1.390 . S
C707 C706 1.390 . S
C707 C708 1.394 . S
C707 C713 1.465 . S
C708 C703 1.399 . S
C708 C707 1.394 . S
C708 C709 1.516 . S
C709 C708 1.516 . S
C709 C710 1.502 . S
C709 C711 1.561 . S
C709 C712 1.526 . S
C710 H694 0.959 . S
C710 H695 0.959 . S
C710 H696 0.961 . S
C710 C709 1.502 . S
C711 H697 0.960 . S
C711 H698 0.961 . S
C711 H699 0.959 . S
C711 C709 1.561 . S
C712 C709 1.526 . S
C712 C713 1.396 . S
C712 C717 1.390 . S
C713 C707 1.465 . S
C713 C712 1.396 . S
C713 C714 1.399 . S
C714 H700 0.929 . S
C714 C713 1.399 . S
C714 C715 1.385 . S
C715 H701 0.931 . S
C715 C714 1.385 . S
C715 C716 1.389 . S
C716 C715 1.389 . S
C716 C717 1.387 . S
C717 H702 0.930 . S
C717 C712 1.390 . S
C717 C716 1.387 . S
H718 C730 0.930 . S
H719 C732 0.930 . S
H720 C733 0.930 . S
H721 C737 0.959 . S
H722 C737 0.959 1_455 S
H723 C737 0.961 . S
H724 C738 0.960 1_655 S
H725 C738 0.961 . S
H726 C738 0.959 . S
H727 C741 0.929 . S
H728 C742 0.931 . S
H729 C744 0.930 . S
C730 H718 0.930 . S
C730 C731 1.399 . S
C730 C735 1.399 . S
C731 C730 1.399 . S
C731 C732 1.376 . S
C732 H719 0.930 . S
C732 C731 1.376 . S
C732 C733 1.388 . S
C733 H720 0.930 . S
C733 C732 1.388 . S
C733 C734 1.390 . S
C734 C733 1.390 . S
C734 C735 1.394 . S
C734 C740 1.465 1_645 S
C735 C730 1.399 . S
C735 C734 1.394 . S
C735 C736 1.516 1_655 S
C736 C735 1.516 1_455 S
C736 C737 1.502 1_445 S
C736 C738 1.561 . S
C736 C739 1.526 1_545 S
C737 H721 0.959 . S
C737 H722 0.959 1_655 S
C737 H723 0.961 . S
C737 C736 1.502 1_665 S
C738 H724 0.960 1_455 S
C738 H725 0.961 . S
C738 H726 0.959 . S
C738 C736 1.561 . S
C739 C736 1.526 1_565 S
C739 C740 1.396 . S
C739 C744 1.390 . S
C740 C734 1.465 1_465 S
C740 C739 1.396 . S
C740 C741 1.399 . S
C741 H727 0.929 . S
C741 C740 1.399 . S
C741 C742 1.385 . S
C742 H728 0.931 . S
C742 C741 1.385 . S
C742 C743 1.389 . S
C743 C742 1.389 . S
C743 C744 1.387 . S
C744 H729 0.930 . S
C744 C739 1.390 . S
C744 C743 1.387 . S
H745 C757 0.930 . S
H746 C759 0.930 . S
H747 C760 0.930 . S
H748 C764 0.959 . S
H749 C764 0.959 1_565 S
H750 C764 0.961 . S
H751 C765 0.960 . S
H752 C765 0.961 . S
H753 C765 0.959 . S
H754 C768 0.929 . S
H755 C769 0.931 . S
H756 C771 0.930 . S
C757 H745 0.930 . S
C757 C758 1.399 1_655 S
C757 C762 1.399 . S
C758 C757 1.399 1_455 S
C758 C759 1.376 . S
C759 H746 0.930 . S
C759 C758 1.376 . S
C759 C760 1.388 . S
C760 H747 0.930 . S
C760 C759 1.388 . S
C760 C761 1.390 . S
C761 C760 1.390 . S
C761 C762 1.394 1_455 S
C761 C767 1.465 1_545 S
C762 C757 1.399 . S
C762 C761 1.394 1_655 S
C762 C763 1.516 . S
C763 C762 1.516 . S
C763 C764 1.502 . S
C763 C765 1.561 . S
C763 C766 1.526 1_545 S
C764 H748 0.959 . S
C764 H749 0.959 1_545 S
C764 H750 0.961 . S
C764 C763 1.502 . S
C765 H751 0.960 . S
C765 H752 0.961 . S
C765 H753 0.959 . S
C765 C763 1.561 . S
C766 C763 1.526 1_565 S
C766 C767 1.396 1_655 S
C766 C771 1.390 . S
C767 C761 1.465 1_565 S
C767 C766 1.396 1_455 S
C767 C768 1.399 . S
C768 H754 0.929 . S
C768 C767 1.399 . S
C768 C769 1.385 . S
C769 H755 0.931 . S
C769 C768 1.385 . S
C769 C770 1.389 1_455 S
C770 C769 1.389 1_655 S
C770 C771 1.387 . S
C771 H756 0.930 . S
C771 C766 1.390 . S
C771 C770 1.387 . S
H772 C784 0.930 . S
H773 C786 0.930 . S
H774 C787 0.930 . S
H775 C791 0.959 . S
H776 C791 0.959 . S
H777 C791 0.961 . S
H778 C792 0.960 . S
H779 C792 0.961 . S
H780 C792 0.959 . S
H781 C795 0.929 . S
H782 C796 0.931 . S
H783 C798 0.930 . S
C784 H772 0.930 . S
C784 C785 1.399 . S
C784 C789 1.399 . S
C785 C784 1.399 . S
C785 C786 1.376 . S
C786 H773 0.930 . S
C786 C785 1.376 . S
C786 C787 1.388 . S
C787 H774 0.930 . S
C787 C786 1.388 . S
C787 C788 1.390 . S
C788 C787 1.390 . S
C788 C789 1.394 . S
C788 C794 1.465 . S
C789 C784 1.399 . S
C789 C788 1.394 . S
C789 C790 1.516 . S
C790 C789 1.516 . S
C790 C791 1.502 . S
C790 C792 1.561 . S
C790 C793 1.526 . S
C791 H775 0.959 . S
C791 H776 0.959 . S
C791 H777 0.961 . S
C791 C790 1.502 . S
C792 H778 0.960 . S
C792 H779 0.961 . S
C792 H780 0.959 . S
C792 C790 1.561 . S
C793 C790 1.526 . S
C793 C794 1.396 . S
C793 C798 1.390 . S
C794 C788 1.465 . S
C794 C793 1.396 . S
C794 C795 1.399 . S
C795 H781 0.929 . S
C795 C794 1.399 . S
C795 C796 1.385 . S
C796 H782 0.931 . S
C796 C795 1.385 . S
C796 C797 1.389 . S
C797 C796 1.389 . S
C797 C798 1.387 . S
C798 H783 0.930 . S
C798 C793 1.390 . S
C798 C797 1.387 . S
H799 C811 0.930 . S
H800 C813 0.930 . S
H801 C814 0.930 . S
H802 C818 0.959 . S
H803 C818 0.959 . S
H804 C818 0.961 . S
H805 C819 0.960 . S
H806 C819 0.961 . S
H807 C819 0.959 . S
H808 C822 0.929 . S
H809 C823 0.931 . S
H810 C825 0.930 . S
C811 H799 0.930 . S
C811 C812 1.399 . S
C811 C816 1.399 . S
C812 C811 1.399 . S
C812 C813 1.376 . S
C813 H800 0.930 . S
C813 C812 1.376 . S
C813 C814 1.388 . S
C814 H801 0.930 . S
C814 C813 1.388 . S
C814 C815 1.390 . S
C815 C814 1.390 . S
C815 C816 1.394 . S
C815 C821 1.465 . S
C816 C811 1.399 . S
C816 C815 1.394 . S
C816 C817 1.516 . S
C817 C816 1.516 . S
C817 C818 1.502 . S
C817 C819 1.561 . S
C817 C820 1.526 . S
C818 H802 0.959 . S
C818 H803 0.959 . S
C818 H804 0.961 . S
C818 C817 1.502 . S
C819 H805 0.960 . S
C819 H806 0.961 . S
C819 H807 0.959 . S
C819 C817 1.561 . S
C820 C817 1.526 . S
C820 C821 1.396 . S
C820 C825 1.390 . S
C821 C815 1.465 . S
C821 C820 1.396 . S
C821 C822 1.399 . S
C822 H808 0.929 . S
C822 C821 1.399 . S
C822 C823 1.385 . S
C823 H809 0.931 . S
C823 C822 1.385 . S
C823 C824 1.389 . S
C824 C823 1.389 . S
C824 C825 1.387 . S
C825 H810 0.930 . S
C825 C820 1.390 . S
C825 C824 1.387 . S
H826 C838 0.930 . S
H827 C840 0.930 . S
H828 C841 0.930 . S
H829 C845 0.959 . S
H830 C845 0.959 . S
H831 C845 0.961 . S
H832 C846 0.960 . S
H833 C846 0.961 . S
H834 C846 0.959 . S
H835 C849 0.929 . S
H836 C850 0.931 . S
H837 C852 0.930 . S
C838 H826 0.930 . S
C838 C839 1.399 . S
C838 C843 1.399 . S
C839 C838 1.399 . S
C839 C840 1.376 . S
C840 H827 0.930 . S
C840 C839 1.376 . S
C840 C841 1.388 . S
C841 H828 0.930 . S
C841 C840 1.388 . S
C841 C842 1.390 . S
C842 C841 1.390 . S
C842 C843 1.394 . S
C842 C848 1.465 . S
C843 C838 1.399 . S
C843 C842 1.394 . S
C843 C844 1.516 . S
C844 C843 1.516 . S
C844 C845 1.502 . S
C844 C846 1.561 . S
C844 C847 1.526 . S
C845 H829 0.959 . S
C845 H830 0.959 . S
C845 H831 0.961 . S
C845 C844 1.502 . S
C846 H832 0.960 . S
C846 H833 0.961 . S
C846 H834 0.959 . S
C846 C844 1.561 . S
C847 C844 1.526 . S
C847 C848 1.396 . S
C847 C852 1.390 . S
C848 C842 1.465 . S
C848 C847 1.396 . S
C848 C849 1.399 . S
C849 H835 0.929 . S
C849 C848 1.399 . S
C849 C850 1.385 . S
C850 H836 0.931 . S
C850 C849 1.385 . S
C850 C851 1.389 . S
C851 C850 1.389 . S
C851 C852 1.387 . S
C852 H837 0.930 . S
C852 C847 1.390 . S
C852 C851 1.387 . S
H853 C865 0.930 . S
H854 C867 0.930 . S
H855 C868 0.930 . S
H856 C872 0.959 . S
H857 C872 0.959 . S
H858 C872 0.961 . S
H859 C873 0.960 . S
H860 C873 0.961 . S
H861 C873 0.959 . S
H862 C876 0.929 . S
H863 C877 0.931 . S
H864 C879 0.930 . S
C865 H853 0.930 . S
C865 C866 1.399 . S
C865 C870 1.399 . S
C866 C865 1.399 . S
C866 C867 1.376 . S
C867 H854 0.930 . S
C867 C866 1.376 . S
C867 C868 1.388 . S
C868 H855 0.930 . S
C868 C867 1.388 . S
C868 C869 1.390 . S
C869 C868 1.390 . S
C869 C870 1.394 . S
C869 C875 1.465 . S
C870 C865 1.399 . S
C870 C869 1.394 . S
C870 C871 1.516 . S
C871 C870 1.516 . S
C871 C872 1.502 . S
C871 C873 1.561 . S
C871 C874 1.526 . S
C872 H856 0.959 . S
C872 H857 0.959 . S
C872 H858 0.961 . S
C872 C871 1.502 . S
C873 H859 0.960 . S
C873 H860 0.961 . S
C873 H861 0.959 . S
C873 C871 1.561 . S
C874 C871 1.526 . S
C874 C875 1.396 . S
C874 C879 1.390 . S
C875 C869 1.465 . S
C875 C874 1.396 . S
C875 C876 1.399 . S
C876 H862 0.929 . S
C876 C875 1.399 . S
C876 C877 1.385 . S
C877 H863 0.931 . S
C877 C876 1.385 . S
C877 C878 1.389 . S
C878 C877 1.389 . S
C878 C879 1.387 . S
C879 H864 0.930 . S
C879 C874 1.390 . S
C879 C878 1.387 . S
H880 C892 0.930 . S
H881 C894 0.930 . S
H882 C895 0.930 . S
H883 C899 0.959 . S
H884 C899 0.959 . S
H885 C899 0.961 . S
H886 C900 0.960 . S
H887 C900 0.961 . S
H888 C900 0.959 . S
H889 C903 0.929 . S
H890 C904 0.931 . S
H891 C906 0.930 . S
C892 H880 0.930 . S
C892 C893 1.399 . S
C892 C897 1.399 . S
C893 C892 1.399 . S
C893 C894 1.376 . S
C894 H881 0.930 . S
C894 C893 1.376 . S
C894 C895 1.388 . S
C895 H882 0.930 . S
C895 C894 1.388 . S
C895 C896 1.390 . S
C896 C895 1.390 . S
C896 C897 1.394 . S
C896 C902 1.465 . S
C897 C892 1.399 . S
C897 C896 1.394 . S
C897 C898 1.516 . S
C898 C897 1.516 . S
C898 C899 1.502 . S
C898 C900 1.561 . S
C898 C901 1.526 . S
C899 H883 0.959 . S
C899 H884 0.959 . S
C899 H885 0.961 . S
C899 C898 1.502 . S
C900 H886 0.960 . S
C900 H887 0.961 . S
C900 H888 0.959 . S
C900 C898 1.561 . S
C901 C898 1.526 . S
C901 C902 1.396 . S
C901 C906 1.390 . S
C902 C896 1.465 . S
C902 C901 1.396 . S
C902 C903 1.399 . S
C903 H889 0.929 . S
C903 C902 1.399 . S
C903 C904 1.385 . S
C904 H890 0.931 . S
C904 C903 1.385 . S
C904 C905 1.389 . S
C905 C904 1.389 . S
C905 C906 1.387 . S
C906 H891 0.930 . S
C906 C901 1.390 . S
C906 C905 1.387 . S
H907 C919 0.930 . S
H908 C921 0.930 . S
H909 C922 0.930 . S
H910 C926 0.959 . S
H911 C926 0.959 . S
H912 C926 0.961 . S
H913 C927 0.960 . S
H914 C927 0.961 . S
H915 C927 0.959 . S
H916 C930 0.929 . S
H917 C931 0.931 . S
H918 C933 0.930 . S
C919 H907 0.930 . S
C919 C920 1.399 . S
C919 C924 1.399 . S
C920 C919 1.399 . S
C920 C921 1.376 . S
C921 H908 0.930 . S
C921 C920 1.376 . S
C921 C922 1.388 . S
C922 H909 0.930 . S
C922 C921 1.388 . S
C922 C923 1.390 . S
C923 C922 1.390 . S
C923 C924 1.394 . S
C923 C929 1.465 . S
C924 C919 1.399 . S
C924 C923 1.394 . S
C924 C925 1.516 . S
C925 C924 1.516 . S
C925 C926 1.502 . S
C925 C927 1.561 . S
C925 C928 1.526 . S
C926 H910 0.959 . S
C926 H911 0.959 . S
C926 H912 0.961 . S
C926 C925 1.502 . S
C927 H913 0.960 . S
C927 H914 0.961 . S
C927 H915 0.959 . S
C927 C925 1.561 . S
C928 C925 1.526 . S
C928 C929 1.396 . S
C928 C933 1.390 . S
C929 C923 1.465 . S
C929 C928 1.396 . S
C929 C930 1.399 . S
C930 H916 0.929 . S
C930 C929 1.399 . S
C930 C931 1.385 . S
C931 H917 0.931 . S
C931 C930 1.385 . S
C931 C932 1.389 . S
C932 C931 1.389 . S
C932 C933 1.387 . S
C933 H918 0.930 . S
C933 C928 1.390 . S
C933 C932 1.387 . S
H934 C946 0.930 . S
H935 C948 0.930 . S
H936 C949 0.930 . S
H937 C953 0.959 . S
H938 C953 0.959 . S
H939 C953 0.961 . S
H940 C954 0.960 . S
H941 C954 0.961 . S
H942 C954 0.959 . S
H943 C957 0.929 . S
H944 C958 0.931 . S
H945 C960 0.930 . S
C946 H934 0.930 . S
C946 C947 1.399 . S
C946 C951 1.399 . S
C947 C946 1.399 . S
C947 C948 1.376 . S
C948 H935 0.930 . S
C948 C947 1.376 . S
C948 C949 1.388 . S
C949 H936 0.930 . S
C949 C948 1.388 . S
C949 C950 1.390 . S
C950 C949 1.390 . S
C950 C951 1.394 . S
C950 C956 1.465 . S
C951 C946 1.399 . S
C951 C950 1.394 . S
C951 C952 1.516 . S
C952 C951 1.516 . S
C952 C953 1.502 . S
C952 C954 1.561 . S
C952 C955 1.526 . S
C953 H937 0.959 . S
C953 H938 0.959 . S
C953 H939 0.961 . S
C953 C952 1.502 . S
C954 H940 0.960 . S
C954 H941 0.961 . S
C954 H942 0.959 . S
C954 C952 1.561 . S
C955 C952 1.526 . S
C955 C956 1.396 . S
C955 C960 1.390 . S
C956 C950 1.465 . S
C956 C955 1.396 . S
C956 C957 1.399 . S
C957 H943 0.929 . S
C957 C956 1.399 . S
C957 C958 1.385 . S
C958 H944 0.931 . S
C958 C957 1.385 . S
C958 C959 1.389 . S
C959 C958 1.389 . S
C959 C960 1.387 . S
C960 H945 0.930 . S
C960 C955 1.390 . S
C960 C959 1.387 . S
H961 C973 0.930 . S
H962 C975 0.930 . S
H963 C976 0.930 . S
H964 C980 0.959 . S
H965 C980 0.959 . S
H966 C980 0.961 . S
H967 C981 0.960 . S
H968 C981 0.961 . S
H969 C981 0.959 . S
H970 C984 0.929 . S
H971 C985 0.931 . S
H972 C987 0.930 . S
C973 H961 0.930 . S
C973 C974 1.399 . S
C973 C978 1.399 . S
C974 C973 1.399 . S
C974 C975 1.376 . S
C975 H962 0.930 . S
C975 C974 1.376 . S
C975 C976 1.388 . S
C976 H963 0.930 . S
C976 C975 1.388 . S
C976 C977 1.390 . S
C977 C976 1.390 . S
C977 C978 1.394 . S
C977 C983 1.465 . S
C978 C973 1.399 . S
C978 C977 1.394 . S
C978 C979 1.516 . S
C979 C978 1.516 . S
C979 C980 1.502 . S
C979 C981 1.561 . S
C979 C982 1.526 . S
C980 H964 0.959 . S
C980 H965 0.959 . S
C980 H966 0.961 . S
C980 C979 1.502 . S
C981 H967 0.960 . S
C981 H968 0.961 . S
C981 H969 0.959 . S
C981 C979 1.561 . S
C982 C979 1.526 . S
C982 C983 1.396 . S
C982 C987 1.390 . S
C983 C977 1.465 . S
C983 C982 1.396 . S
C983 C984 1.399 . S
C984 H970 0.929 . S
C984 C983 1.399 . S
C984 C985 1.385 . S
C985 H971 0.931 . S
C985 C984 1.385 . S
C985 C986 1.389 . S
C986 C985 1.389 . S
C986 C987 1.387 . S
C987 H972 0.930 . S
C987 C982 1.390 . S
C987 C986 1.387 . S
C245 C10 2.348 . S
C257 C158 2.177 . S
C272 C39 2.317 . S
C284 C187 2.238 . S
C299 C216 2.192 . S
C311 C68 2.305 . S
C326 C129 2.166 . S
C338 C97 2.325 . S
C353 C126 2.347 . S
C365 C100 2.176 . S
C380 C155 2.355 . S
C392 C13 2.197 . S
C407 C184 2.331 . S
C419 C42 2.237 . S
C434 C213 2.317 . S
C446 C71 2.238 . S
C461 C108 0.455 . S
C473 C8 0.892 . S
C488 C21 0.690 . S
C500 C37 0.722 . S
C515 C50 0.487 . S
C527 C66 0.877 . S
C542 C95 0.849 . S
C554 C79 0.569 . S
C569 C124 0.630 . S
C581 C166 0.702 . S
C596 C153 0.898 . S
C608 C195 0.451 . S
C623 C182 0.830 . S
C635 C224 0.508 . S
C650 C137 0.454 . S
C662 C211 0.856 . S
C677 C5 2.851 . S
C689 C63 2.818 . S
C704 C34 2.850 . S
C716 C92 2.874 . S
C731 C121 2.821 . S
C743 C179 2.831 . S
C758 C150 2.817 . S
C770 C208 2.861 . S
C785 C177 1.458 . S
C797 C15 1.479 . S
C812 C44 1.463 . S
C824 C206 1.487 . S
C839 C73 1.482 . S
C851 C119 1.498 . S
C866 C148 1.458 . S
C878 C102 1.492 . S
C893 C131 1.506 . S
C905 C61 1.496 . S
C920 C90 1.465 . S
C932 C160 1.466 . S
C947 C189 1.461 . S
C959 C3 1.464 . S
C974 C32 1.457 . S
C986 C218 1.490 . S
