# Generated by pormake.
# Topology fns, (5)-cn, num edge types: 1
# Building blocks:
#     Node 0, Type 0, BuildingBlock: XOMCOT_clean_sbu_0, # of connection points: 5
#     Node 1, Type 0, BuildingBlock: XOMCOT_clean_sbu_0, # of connection points: 5
#     Node 2, Type 0, BuildingBlock: XOMCOT_clean_sbu_0, # of connection points: 5
#     Node 3, Type 0, BuildingBlock: XOMCOT_clean_sbu_0, # of connection points: 5
#     Node 4, Type 0, BuildingBlock: XOMCOT_clean_sbu_0, # of connection points: 5
#     Node 5, Type 0, BuildingBlock: XOMCOT_clean_sbu_0, # of connection points: 5
#     Edge 6, Type (0, 0), BuildingBlock: AJUNOK_clean_linker_0, # of connection points: 2
#     Edge 7, Type (0, 0), BuildingBlock: AJUNOK_clean_linker_0, # of connection points: 2
#     Edge 8, Type (0, 0), BuildingBlock: AJUNOK_clean_linker_0, # of connection points: 2
#     Edge 9, Type (0, 0), BuildingBlock: AJUNOK_clean_linker_0, # of connection points: 2
#     Edge 10, Type (0, 0), BuildingBlock: AJUNOK_clean_linker_0, # of connection points: 2
#     Edge 11, Type (0, 0), BuildingBlock: AJUNOK_clean_linker_0, # of connection points: 2
#     Edge 12, Type (0, 0), BuildingBlock: AJUNOK_clean_linker_0, # of connection points: 2
#     Edge 13, Type (0, 0), BuildingBlock: AJUNOK_clean_linker_0, # of connection points: 2
#     Edge 14, Type (0, 0), BuildingBlock: AJUNOK_clean_linker_0, # of connection points: 2
#     Edge 15, Type (0, 0), BuildingBlock: AJUNOK_clean_linker_0, # of connection points: 2
#     Edge 16, Type (0, 0), BuildingBlock: AJUNOK_clean_linker_0, # of connection points: 2
#     Edge 17, Type (0, 0), BuildingBlock: AJUNOK_clean_linker_0, # of connection points: 2
#     Edge 18, Type (0, 0), BuildingBlock: AJUNOK_clean_linker_0, # of connection points: 2
#     Edge 19, Type (0, 0), BuildingBlock: AJUNOK_clean_linker_0, # of connection points: 2
#     Edge 20, Type (0, 0), BuildingBlock: AJUNOK_clean_linker_0, # of connection points: 2
# Relax obj value: 0.179
# Max RMSD: 0.300
# Mean RMSD: 0.300
data_MOF--net-fns--node1-XOMCOT_clean_sbu_0--edge1-AJUNOK_clean_linker_0
_symmetry_space_group_name_H-M    P1
_symmetry_Int_Tables_number       1
_symmetry_cell_setting            triclinic
loop_
_symmetry_equiv_pos_as_xyz
'x, y, z'
_cell_length_a     42.913985
_cell_length_b     42.583453
_cell_length_c     13.490717
_cell_angle_alpha  89.824676
_cell_angle_beta   90.080704
_cell_angle_gamma 120.48966
loop_
_atom_site_label
_atom_site_type_symbol
_atom_site_fract_x
_atom_site_fract_y
_atom_site_fract_z
_atom_type_partial_charge
Co0 Co 0.20709 0.63541 0.1795 0.0
C1 C 0.20219 0.6268 0.39756 0.0
C2 C 0.24671 0.62365 0.33813 0.0
C3 C 0.2503 0.6266 0.4397 0.0
N4 N 0.21635 0.62358 0.31146 0.0
N5 N 0.22256 0.62921 0.47679 0.0
H6 H 0.17874 0.62959 0.40221 0.0
H7 H 0.26647 0.62457 0.28668 0.0
C8 C 0.21165 0.56759 0.14999 0.0
O9 O 0.19657 0.55474 0.23665 0.0
N10 N 0.19907 0.64823 0.04888 0.0
C11 C 0.17236 0.65401 0.02037 0.0
C12 C 0.17323 0.65709 0.9187 0.0
C13 C 0.21629 0.64863 0.96507 0.0
N14 N 0.20103 0.65391 0.88368 0.0
C15 C 0.1336 0.60804 0.24615 0.0
C16 C 0.10228 0.5467 0.12792 0.0
C17 C 0.07992 0.55367 0.18787 0.0
C18 C 0.096 0.58475 0.248 0.0
C19 C 0.1395 0.57075 0.12762 0.0
N20 N 0.15518 0.60028 0.18926 0.0
H21 H 0.14505 0.63321 0.28696 0.0
H22 H 0.15511 0.5662 0.07346 0.0
H23 H 0.15243 0.65397 0.06938 0.0
H24 H 0.23879 0.64391 0.9639 0.0
O25 O 0.20915 0.67854 0.2348 0.0
O26 O 0.256 0.6759 0.17605 0.0
O27 O 0.21713 0.5983 0.11829 0.0
C28 C 0.24386 0.69488 0.21863 0.0
H29 H 0.27301 0.62938 0.48209 0.0
H30 H 0.15324 0.65899 0.8744 0.0
H31 H 0.09106 0.52319 0.07958 0.0
H32 H 0.07955 0.59176 0.29309 0.0
Co33 Co 0.58173 0.21265 0.52058 0.0
C34 C 0.58393 0.20913 0.73701 0.0
C35 C 0.63601 0.24827 0.67877 0.0
C36 C 0.63747 0.25022 0.78101 0.0
N37 N 0.60239 0.22245 0.65179 0.0
N38 N 0.60468 0.22551 0.81717 0.0
H39 H 0.55524 0.18949 0.73986 0.0
H40 H 0.65738 0.26559 0.62782 0.0
C41 C 0.63512 0.20377 0.39581 0.0
O42 O 0.60846 0.17365 0.35804 0.0
N43 N 0.56096 0.20383 0.38778 0.0
C44 C 0.52626 0.18173 0.35985 0.0
C45 C 0.52415 0.18217 0.25811 0.0
C46 C 0.57888 0.21913 0.30242 0.0
N47 N 0.55739 0.20525 0.22221 0.0
C48 C 0.52626 0.13839 0.55668 0.0
C49 C 0.57118 0.10993 0.57598 0.0
C50 C 0.53367 0.0862 0.57979 0.0
C51 C 0.51115 0.10101 0.572 0.0
C52 C 0.58514 0.14726 0.56086 0.0
N53 N 0.56266 0.16074 0.54443 0.0
H54 H 0.5085 0.14935 0.55622 0.0
H55 H 0.61407 0.16522 0.56326 0.0
H56 H 0.50364 0.16639 0.40859 0.0
H57 H 0.60746 0.23902 0.29841 0.0
O58 O 0.54192 0.21692 0.57254 0.0
O59 O 0.59277 0.26243 0.5105 0.0
O60 O 0.62891 0.22062 0.46426 0.0
C61 C 0.56171 0.25152 0.55282 0.0
H62 H 0.66056 0.26891 0.82524 0.0
H63 H 0.50004 0.1665 0.21387 0.0
H64 H 0.58958 0.09976 0.58555 0.0
H65 H 0.48203 0.08383 0.57638 0.0
Co66 Co 0.35898 0.5645 0.86152 0.0
C67 C 0.36998 0.56945 0.07931 0.0
C68 C 0.37226 0.61728 0.02039 0.0
C69 C 0.37211 0.61893 0.12248 0.0
N70 N 0.37146 0.58642 0.99298 0.0
N71 N 0.3706 0.58874 0.15944 0.0
H72 H 0.36458 0.54189 0.08405 0.0
H73 H 0.37055 0.63609 0.96976 0.0
C74 C 0.42248 0.64078 0.82213 0.0
O75 O 0.43852 0.64144 0.90574 0.0
N76 N 0.34601 0.54282 0.73105 0.0
C77 C 0.33902 0.50937 0.70484 0.0
C78 C 0.33838 0.50728 0.60268 0.0
C79 C 0.34882 0.56034 0.64489 0.0
N80 N 0.34496 0.53952 0.56528 0.0
C81 C 0.38732 0.5198 0.92679 0.0
C82 C 0.45115 0.55439 0.82092 0.0
C83 C 0.44429 0.52492 0.88229 0.0
C84 C 0.41152 0.50716 0.93415 0.0
C85 C 0.42596 0.5659 0.81479 0.0
N86 N 0.39516 0.54972 0.87082 0.0
H87 H 0.36172 0.50467 0.9644 0.0
H88 H 0.43107 0.58709 0.76236 0.0
H89 H 0.33644 0.48862 0.75615 0.0
H90 H 0.35554 0.58844 0.64016 0.0
O91 O 0.31783 0.52226 0.92118 0.0
O92 O 0.31772 0.57072 0.86128 0.0
O93 O 0.3931 0.61242 0.79625 0.0
C94 C 0.30059 0.53977 0.90789 0.0
H95 H 0.3714 0.63985 0.16603 0.0
H96 H 0.33443 0.48418 0.55937 0.0
H97 H 0.47567 0.56829 0.77719 0.0
H98 H 0.40409 0.48303 0.97806 0.0
Co99 Co 0.79692 0.37224 0.16151 0.0
C100 C 0.80188 0.37901 0.37964 0.0
C101 C 0.76066 0.38833 0.32241 0.0
C102 C 0.75948 0.38875 0.42449 0.0
N103 N 0.78802 0.38332 0.2942 0.0
N104 N 0.78533 0.38269 0.45956 0.0
H105 H 0.82209 0.37119 0.38441 0.0
H106 H 0.74169 0.38977 0.27242 0.0
C107 C 0.7906 0.43982 0.13198 0.0
O108 O 0.80744 0.45478 0.21525 0.0
N109 N 0.80525 0.3605 0.02985 0.0
C110 C 0.82697 0.34757 1.00393 0.0
C111 C 0.82859 0.34702 0.90176 0.0
C112 C 0.79389 0.36749 0.94389 0.0
N113 N 0.80816 0.36005 0.86474 0.0
C114 C 0.87012 0.3993 0.22855 0.0
C115 C 0.90139 0.46249 0.11673 0.0
C116 C 0.92359 0.45536 0.17738 0.0
C117 C 0.90752 0.42323 0.23382 0.0
C118 C 0.86432 0.43774 0.11291 0.0
N119 N 0.84868 0.40732 0.17172 0.0
H120 H 0.85869 0.37369 0.26754 0.0
H121 H 0.84872 0.44276 0.05937 0.0
H122 H 0.84155 0.34026 0.05561 0.0
H123 H 0.77574 0.37803 0.93891 0.0
O124 O 0.79462 0.32855 0.21491 0.0
O125 O 0.74809 0.33212 0.15718 0.0
O126 O 0.78624 0.4093 0.10302 0.0
C127 C 0.75991 0.31263 0.19858 0.0
H128 H 0.73995 0.39125 0.46939 0.0
H129 H 0.84457 0.33903 0.85812 0.0
H130 H 0.91259 0.48682 0.07123 0.0
H131 H 0.92386 0.41608 0.2792 0.0
Co132 Co 0.41809 0.80058 0.55405 0.0
C133 C 0.41591 0.80396 0.77124 0.0
C134 C 0.36287 0.76946 0.71126 0.0
C135 C 0.36102 0.76609 0.81319 0.0
N136 N 0.39734 0.79315 0.68526 0.0
N137 N 0.39455 0.78739 0.85056 0.0
H138 H 0.44495 0.8217 0.77516 0.0
H139 H 0.341 0.75415 0.65972 0.0
C140 C 0.36529 0.80788 0.42118 0.0
O141 O 0.39204 0.8373 0.38046 0.0
N142 N 0.43877 0.80684 0.4214 0.0
C143 C 0.47328 0.82884 0.3919 0.0
C144 C 0.4751 0.82687 0.29044 0.0
C145 C 0.42068 0.79014 0.33739 0.0
N146 N 0.44191 0.8028 0.256 0.0
C147 C 0.47472 0.87471 0.58317 0.0
C148 C 0.43136 0.9053 0.58881 0.0
C149 C 0.46902 0.9283 0.59236 0.0
C150 C 0.4907 0.91245 0.59178 0.0
C151 C 0.41652 0.8676 0.58016 0.0
N152 N 0.43828 0.85295 0.57035 0.0
H153 H 0.49182 0.86303 0.58788 0.0
H154 H 0.38749 0.85033 0.5816 0.0
H155 H 0.49591 0.84552 0.43927 0.0
H156 H 0.39205 0.77046 0.33516 0.0
O157 O 0.45721 0.79586 0.61025 0.0
O158 O 0.4057 0.75038 0.55216 0.0
O159 O 0.37132 0.79264 0.49466 0.0
C160 C 0.43635 0.76097 0.5966 0.0
H161 H 0.33697 0.74869 0.856 0.0
H162 H 0.49893 0.84258 0.24512 0.0
H163 H 0.4135 0.9163 0.59107 0.0
H164 H 0.51981 0.92908 0.5987 0.0
Co165 Co 0.6299 0.43258 0.8653 0.0
C166 C 0.62226 0.43034 0.08166 0.0
C167 C 0.61031 0.37838 0.02485 0.0
C168 C 0.61123 0.37726 0.12703 0.0
N169 N 0.61729 0.41171 0.99681 0.0
N170 N 0.61887 0.41003 0.16247 0.0
H171 H 0.6311 0.45907 0.08359 0.0
H172 H 0.60709 0.35718 0.97464 0.0
C173 C 0.56975 0.37535 0.73832 0.0
O174 O 0.56438 0.40028 0.69749 0.0
N175 N 0.64382 0.45362 0.73225 0.0
C176 C 0.65924 0.48898 0.70509 0.0
C177 C 0.66242 0.49158 0.60346 0.0
C178 C 0.64062 0.43575 0.64648 0.0
N179 N 0.65019 0.45797 0.56682 0.0
C180 C 0.60673 0.48492 0.88094 0.0
C181 C 0.53385 0.43525 0.90349 0.0
C182 C 0.54544 0.4723 0.89441 0.0
C183 C 0.58235 0.4974 0.88546 0.0
C184 C 0.55921 0.42393 0.89729 0.0
N185 N 0.59487 0.44852 0.87931 0.0
H186 H 0.63517 0.50466 0.88066 0.0
H187 H 0.55007 0.39536 0.90672 0.0
H188 H 0.66834 0.51178 0.75456 0.0
H189 H 0.6307 0.40688 0.64141 0.0
O190 O 0.67224 0.47441 0.92175 0.0
O191 O 0.66981 0.42437 0.86462 0.0
O192 O 0.59305 0.38395 0.80755 0.0
C193 C 0.68826 0.4557 0.90863 0.0
H194 H 0.60792 0.35459 0.17162 0.0
H195 H 0.67274 0.51624 0.55973 0.0
H196 H 0.5055 0.41529 0.91411 0.0
H197 H 0.59225 0.5264 0.8828 0.0
C198 C 0.25008 0.53967 0.13213 0.0
C199 C 0.22538 0.54833 0.09027 0.0
C200 C 0.27146 0.5314 0.07134 0.0
C201 C 0.26879 0.53188 0.96739 0.0
H202 H 0.25528 0.54256 0.21118 0.0
H203 H 0.29265 0.52841 0.10558 0.0
S204 S 0.20036 0.54137 0.82493 0.0
N205 N 0.1937 0.54867 0.94117 0.0
N206 N 0.23443 0.5337 0.82709 0.0
C207 C 0.24116 0.53601 0.926 0.0
C208 C 0.21932 0.54422 0.98757 0.0
C209 C 0.70148 0.24845 0.39717 0.0
C210 C 0.67039 0.22365 0.34395 0.0
C211 C 0.73279 0.27469 0.34795 0.0
C212 C 0.73372 0.27758 0.24421 0.0
H213 H 0.70081 0.24913 0.4774 0.0
H214 H 0.75504 0.29501 0.39151 0.0
S215 S 0.66186 0.21625 0.07001 0.0
N216 N 0.64448 0.20072 0.18092 0.0
N217 N 0.70284 0.25133 0.08935 0.0
C218 C 0.70405 0.25129 0.18999 0.0
C219 C 0.67249 0.2239 0.23975 0.0
C220 C 0.42868 0.6992 0.60381 0.0
C221 C 0.44293 0.73389 0.64606 0.0
C222 C 0.42539 0.66986 0.65936 0.0
C223 C 0.43547 0.67388 0.76002 0.0
H224 H 0.41814 0.69421 0.52886 0.0
H225 H 0.41292 0.64334 0.62454 0.0
S226 S 0.47713 0.76001 0.90311 0.0
N227 N 0.47039 0.77158 0.79164 0.0
N228 N 0.463 0.71604 0.89731 0.0
C229 C 0.45227 0.70903 0.8011 0.0
C230 C 0.45622 0.73915 0.74376 0.0
C231 C 0.74443 0.45331 0.91399 0.0
C232 C 0.72241 0.46483 0.95824 0.0
C233 C 0.76939 0.44909 0.97016 0.0
C234 C 0.77311 0.4558 0.07252 0.0
H235 H 0.7403 0.44469 0.83721 0.0
H236 H 0.78391 0.43771 0.93492 0.0
S237 S 0.72527 0.49142 0.22117 0.0
N238 N 0.70891 0.48739 0.10799 0.0
N239 N 0.75568 0.47862 0.2141 0.0
C240 C 0.75391 0.47085 0.11595 0.0
C241 C 0.72853 0.47555 0.05838 0.0
C242 C 0.30015 0.75938 0.4198 0.0
C243 C 0.3305 0.78618 0.36768 0.0
C244 C 0.27013 0.73179 0.36966 0.0
C245 C 0.26951 0.72972 0.26587 0.0
H246 H 0.30055 0.75825 0.50003 0.0
H247 H 0.24878 0.71014 0.41257 0.0
S248 S 0.33897 0.79607 0.09386 0.0
N249 N 0.35566 0.81152 0.20526 0.0
N250 N 0.29951 0.75864 0.11193 0.0
C251 C 0.29824 0.7577 0.21256 0.0
C252 C 0.32861 0.78633 0.26333 0.0
C253 C 0.5508 0.27964 0.69877 0.0
C254 C 0.55355 0.27829 0.59535 0.0
C255 C 0.55298 0.31018 0.74465 0.0
C256 C 0.55714 0.33999 0.68846 0.0
H257 H 0.54994 0.25835 0.74501 0.0
H258 H 0.55361 0.31142 0.82491 0.0
S259 S 0.5592 0.34628 0.41381 0.0
N260 N 0.55667 0.30696 0.43732 0.0
N261 N 0.55914 0.36385 0.52279 0.0
C262 C 0.55637 0.33724 0.58435 0.0
C263 C 0.55514 0.30653 0.53792 0.0
C264 C 0.22528 0.63036 0.75565 0.0
C265 C 0.20899 0.65079 0.78108 0.0
C266 C 0.2296 0.62351 0.65653 0.0
C267 C 0.21824 0.63719 0.57827 0.0
H268 H 0.23409 0.61876 0.81261 0.0
H269 H 0.24129 0.6067 0.64112 0.0
S270 S 0.18147 0.69922 0.60395 0.0
N271 N 0.1868 0.68952 0.71895 0.0
N272 N 0.19449 0.67648 0.53312 0.0
C273 C 0.2039 0.65956 0.60233 0.0
C274 C 0.19955 0.66654 0.70345 0.0
C275 C 0.60562 0.24986 0.98438 0.0
C276 C 0.59302 0.22007 0.91915 0.0
C277 C 0.59379 0.24494 0.08333 0.0
C278 C 0.56873 0.21014 0.12007 0.0
H279 H 0.62441 0.27716 0.95843 0.0
H280 H 0.60399 0.26848 0.13125 0.0
S281 S 0.53067 0.12298 0.98264 0.0
N282 N 0.55632 0.1544 0.90067 0.0
N283 N 0.5339 0.14522 0.08577 0.0
C284 C 0.55649 0.18014 0.05611 0.0
C285 C 0.56865 0.1851 0.95587 0.0
C286 C 0.33805 0.57309 0.42492 0.0
C287 C 0.35128 0.55127 0.46295 0.0
C288 C 0.34457 0.5854 0.3261 0.0
C289 C 0.36492 0.57668 0.2617 0.0
H290 H 0.32215 0.58028 0.47172 0.0
H291 H 0.33306 0.60135 0.2996 0.0
S292 S 0.40901 0.52377 0.32841 0.0
N293 N 0.38771 0.52357 0.43047 0.0
N294 N 0.40036 0.54703 0.24579 0.0
C295 C 0.37897 0.55557 0.29968 0.0
C296 C 0.37209 0.54282 0.39994 0.0
C297 C 0.79686 0.34003 0.69032 0.0
C298 C 0.80391 0.3666 0.76233 0.0
C299 C 0.79107 0.34551 0.59093 0.0
C300 C 0.79166 0.37748 0.56104 0.0
H301 H 0.79526 0.31469 0.71143 0.0
H302 H 0.78556 0.32445 0.53749 0.0
S303 S 0.81482 0.45759 0.71704 0.0
N304 N 0.81614 0.42795 0.79372 0.0
N305 N 0.80307 0.43721 0.60814 0.0
C306 C 0.7997 0.40457 0.63146 0.0
C307 C 0.80638 0.39939 0.73189 0.0
C308 C 0.44599 0.82724 0.08715 0.0
C309 C 0.43044 0.79758 0.15358 0.0
C310 C 0.43417 0.8236 0.9887 0.0
C311 C 0.40625 0.79015 0.95231 0.0
H312 H 0.4669 0.85383 0.11213 0.0
H313 H 0.44651 0.84739 0.94108 0.0
S314 S 0.35854 0.70322 0.09345 0.0
N315 N 0.3869 0.7331 0.17447 0.0
N316 N 0.36493 0.72604 0.989 0.0
C317 C 0.391 0.75995 1.01715 0.0
C318 C 0.40298 0.76374 0.11782 0.0
C319 C 0.64427 0.40994 0.32761 0.0
C320 C 0.6267 0.42238 0.2639 0.0
C321 C 0.6522 0.42187 0.42636 0.0
C322 C 0.64336 0.44706 0.46439 0.0
H323 H 0.65212 0.39101 0.30083 0.0
H324 H 0.66549 0.41151 0.47327 0.0
S325 S 0.59489 0.48586 0.33102 0.0
N326 N 0.599 0.45971 0.24823 0.0
N327 N 0.61455 0.4826 0.43269 0.0
C328 C 0.62572 0.45957 0.40175 0.0
C329 C 0.6173 0.44717 0.30179 0.0
C330 C 0.98222 0.49192 0.26921 0.0
C331 C 0.96344 0.48057 0.17859 0.0
C332 C 0.01978 0.51604 0.27183 0.0
C333 C 0.03997 0.52942 0.1839 0.0
H334 H 0.96772 0.48231 0.33866 0.0
H335 H 0.03319 0.52382 0.34314 0.0
S336 S 0.00374 0.50827 0.92742 0.0
N337 N 0.96807 0.48428 0.99874 0.0
N338 N 0.03822 0.53039 1.00375 0.0
C339 C 0.02146 0.5185 0.09288 0.0
C340 C 0.98335 0.49392 0.0902 0.0
C341 C 0.52986 0.02823 0.52524 0.0
C342 C 0.51805 0.04616 0.58903 0.0
C343 C 0.51409 0.99023 0.52779 0.0
C344 C 0.48589 0.96864 0.59425 0.0
H345 H 0.55084 0.0436 0.4711 0.0
H346 H 0.52353 0.97756 0.47568 0.0
S347 S 0.44789 1.00265 0.78427 0.0
N348 N 0.47834 0.03974 0.7257 0.0
N349 N 0.44869 0.96828 0.73043 0.0
C350 C 0.4745 0.9863 0.66033 0.0
C351 C 0.49058 0.02504 0.65777 0.0
C352 C 0.48619 0.50801 0.80055 0.0
C353 C 0.47024 0.51154 0.88785 0.0
C354 C 0.51041 0.49511 0.80345 0.0
C355 C 0.51926 0.48497 0.89351 0.0
H356 H 0.4796 0.51488 0.72919 0.0
H357 H 0.5222 0.49287 0.73477 0.0
S358 S 0.48687 0.49053 0.14322 0.0
N359 N 0.46666 0.50526 0.0677 0.0
N360 N 0.51149 0.48001 0.07188 0.0
C361 C 0.5038 0.48835 0.98121 0.0
C362 C 0.4794 0.50183 0.97868 0.0
loop_
_geom_bond_atom_site_label_1
_geom_bond_atom_site_label_2
_geom_bond_distance
_geom_bond_site_symmetry_2
_ccdc_geom_bond_type
Co0 N4 2.148 . S
Co0 N10 2.128 . S
Co0 N20 2.194 . S
Co0 O25 2.351 . S
Co0 O26 2.155 . S
Co0 O27 2.096 . S
C1 N4 1.301 . S
C1 N5 1.328 . S
C1 H6 0.930 . S
C2 C3 1.333 . S
C2 N4 1.317 . S
C2 H7 0.930 . S
C3 C2 1.333 . S
C3 N5 1.350 . S
C3 H29 0.931 . S
N4 Co0 2.148 . S
N4 C1 1.301 . S
N4 C2 1.317 . S
N5 C1 1.328 . S
N5 C3 1.350 . S
H6 C1 0.930 . S
H7 C2 0.930 . S
C8 O9 1.224 . S
C8 O27 1.247 . S
O9 C8 1.224 . S
N10 Co0 2.128 . S
N10 C11 1.355 . S
N10 C13 1.311 1_554 S
C11 N10 1.355 . S
C11 C12 1.363 1_554 S
C11 H23 0.929 . S
C12 C11 1.363 1_556 S
C12 N14 1.375 . S
C12 H30 0.931 . S
C13 N10 1.311 1_556 S
C13 N14 1.347 . S
C13 H24 0.929 . S
N14 C12 1.375 . S
N14 C13 1.347 . S
C15 C18 1.365 . S
C15 N20 1.328 . S
C15 H21 0.929 . S
C16 C17 1.362 . S
C16 C19 1.378 . S
C16 H31 0.929 . S
C17 C16 1.362 . S
C17 C18 1.366 . S
C18 C15 1.365 . S
C18 C17 1.366 . S
C18 H32 0.930 . S
C19 C16 1.378 . S
C19 N20 1.315 . S
C19 H22 0.930 . S
N20 Co0 2.194 . S
N20 C15 1.328 . S
N20 C19 1.315 . S
H21 C15 0.929 . S
H22 C19 0.930 . S
H23 C11 0.929 . S
H24 C13 0.929 . S
O25 Co0 2.351 . S
O25 C28 1.244 . S
O26 Co0 2.155 . S
O26 C28 1.240 . S
O27 Co0 2.096 . S
O27 C8 1.247 . S
C28 O25 1.244 . S
C28 O26 1.240 . S
H29 C3 0.931 . S
H30 C12 0.931 . S
H31 C16 0.929 . S
H32 C18 0.930 . S
Co33 N37 2.148 . S
Co33 N43 2.128 . S
Co33 N53 2.194 . S
Co33 O58 2.351 . S
Co33 O59 2.155 . S
Co33 O60 2.096 . S
C34 N37 1.301 . S
C34 N38 1.328 . S
C34 H39 0.930 . S
C35 C36 1.333 . S
C35 N37 1.317 . S
C35 H40 0.930 . S
C36 C35 1.333 . S
C36 N38 1.350 . S
C36 H62 0.931 . S
N37 Co33 2.148 . S
N37 C34 1.301 . S
N37 C35 1.317 . S
N38 C34 1.328 . S
N38 C36 1.350 . S
H39 C34 0.930 . S
H40 C35 0.930 . S
C41 O42 1.224 . S
C41 O60 1.247 . S
O42 C41 1.224 . S
N43 Co33 2.128 . S
N43 C44 1.355 . S
N43 C46 1.311 . S
C44 N43 1.355 . S
C44 C45 1.363 . S
C44 H56 0.929 . S
C45 C44 1.363 . S
C45 N47 1.375 . S
C45 H63 0.931 . S
C46 N43 1.311 . S
C46 N47 1.347 . S
C46 H57 0.929 . S
N47 C45 1.375 . S
N47 C46 1.347 . S
C48 C51 1.365 . S
C48 N53 1.328 . S
C48 H54 0.929 . S
C49 C50 1.362 . S
C49 C52 1.378 . S
C49 H64 0.929 . S
C50 C49 1.362 . S
C50 C51 1.366 . S
C51 C48 1.365 . S
C51 C50 1.366 . S
C51 H65 0.930 . S
C52 C49 1.378 . S
C52 N53 1.315 . S
C52 H55 0.930 . S
N53 Co33 2.194 . S
N53 C48 1.328 . S
N53 C52 1.315 . S
H54 C48 0.929 . S
H55 C52 0.930 . S
H56 C44 0.929 . S
H57 C46 0.929 . S
O58 Co33 2.351 . S
O58 C61 1.244 . S
O59 Co33 2.155 . S
O59 C61 1.240 . S
O60 Co33 2.096 . S
O60 C41 1.247 . S
C61 O58 1.244 . S
C61 O59 1.240 . S
H62 C36 0.931 . S
H63 C45 0.931 . S
H64 C49 0.929 . S
H65 C51 0.930 . S
Co66 N70 2.148 . S
Co66 N76 2.128 . S
Co66 N86 2.194 . S
Co66 O91 2.351 . S
Co66 O92 2.155 . S
Co66 O93 2.096 . S
C67 N70 1.301 1_554 S
C67 N71 1.328 . S
C67 H72 0.930 . S
C68 C69 1.333 1_556 S
C68 N70 1.317 . S
C68 H73 0.930 . S
C69 C68 1.333 1_554 S
C69 N71 1.350 . S
C69 H95 0.931 . S
N70 Co66 2.148 . S
N70 C67 1.301 1_556 S
N70 C68 1.317 . S
N71 C67 1.328 . S
N71 C69 1.350 . S
H72 C67 0.930 . S
H73 C68 0.930 . S
C74 O75 1.224 . S
C74 O93 1.247 . S
O75 C74 1.224 . S
N76 Co66 2.128 . S
N76 C77 1.355 . S
N76 C79 1.311 . S
C77 N76 1.355 . S
C77 C78 1.363 . S
C77 H89 0.929 . S
C78 C77 1.363 . S
C78 N80 1.375 . S
C78 H96 0.931 . S
C79 N76 1.311 . S
C79 N80 1.347 . S
C79 H90 0.929 . S
N80 C78 1.375 . S
N80 C79 1.347 . S
C81 C84 1.365 . S
C81 N86 1.328 . S
C81 H87 0.929 . S
C82 C83 1.362 . S
C82 C85 1.378 . S
C82 H97 0.929 . S
C83 C82 1.362 . S
C83 C84 1.366 . S
C84 C81 1.365 . S
C84 C83 1.366 . S
C84 H98 0.930 . S
C85 C82 1.378 . S
C85 N86 1.315 . S
C85 H88 0.930 . S
N86 Co66 2.194 . S
N86 C81 1.328 . S
N86 C85 1.315 . S
H87 C81 0.929 . S
H88 C85 0.930 . S
H89 C77 0.929 . S
H90 C79 0.929 . S
O91 Co66 2.351 . S
O91 C94 1.244 . S
O92 Co66 2.155 . S
O92 C94 1.240 . S
O93 Co66 2.096 . S
O93 C74 1.247 . S
C94 O91 1.244 . S
C94 O92 1.240 . S
H95 C69 0.931 . S
H96 C78 0.931 . S
H97 C82 0.929 . S
H98 C84 0.930 . S
Co99 N103 2.148 . S
Co99 N109 2.128 . S
Co99 N119 2.194 . S
Co99 O124 2.351 . S
Co99 O125 2.155 . S
Co99 O126 2.096 . S
C100 N103 1.301 . S
C100 N104 1.328 . S
C100 H105 0.930 . S
C101 C102 1.333 . S
C101 N103 1.317 . S
C101 H106 0.930 . S
C102 C101 1.333 . S
C102 N104 1.350 . S
C102 H128 0.931 . S
N103 Co99 2.148 . S
N103 C100 1.301 . S
N103 C101 1.317 . S
N104 C100 1.328 . S
N104 C102 1.350 . S
H105 C100 0.930 . S
H106 C101 0.930 . S
C107 O108 1.224 . S
C107 O126 1.247 . S
O108 C107 1.224 . S
N109 Co99 2.128 . S
N109 C110 1.355 . S
N109 C112 1.311 1_554 S
C110 N109 1.355 . S
C110 C111 1.363 1_554 S
C110 H122 0.929 . S
C111 C110 1.363 1_556 S
C111 N113 1.375 . S
C111 H129 0.931 . S
C112 N109 1.311 1_556 S
C112 N113 1.347 . S
C112 H123 0.929 . S
N113 C111 1.375 . S
N113 C112 1.347 . S
C114 C117 1.365 . S
C114 N119 1.328 . S
C114 H120 0.929 . S
C115 C116 1.362 . S
C115 C118 1.378 . S
C115 H130 0.929 . S
C116 C115 1.362 . S
C116 C117 1.366 . S
C117 C114 1.365 . S
C117 C116 1.366 . S
C117 H131 0.930 . S
C118 C115 1.378 . S
C118 N119 1.315 . S
C118 H121 0.930 . S
N119 Co99 2.194 . S
N119 C114 1.328 . S
N119 C118 1.315 . S
H120 C114 0.929 . S
H121 C118 0.930 . S
H122 C110 0.929 . S
H123 C112 0.929 . S
O124 Co99 2.351 . S
O124 C127 1.244 . S
O125 Co99 2.155 . S
O125 C127 1.240 . S
O126 Co99 2.096 . S
O126 C107 1.247 . S
C127 O124 1.244 . S
C127 O125 1.240 . S
H128 C102 0.931 . S
H129 C111 0.931 . S
H130 C115 0.929 . S
H131 C117 0.930 . S
Co132 N136 2.148 . S
Co132 N142 2.128 . S
Co132 N152 2.194 . S
Co132 O157 2.351 . S
Co132 O158 2.155 . S
Co132 O159 2.096 . S
C133 N136 1.301 . S
C133 N137 1.328 . S
C133 H138 0.930 . S
C134 C135 1.333 . S
C134 N136 1.317 . S
C134 H139 0.930 . S
C135 C134 1.333 . S
C135 N137 1.350 . S
C135 H161 0.931 . S
N136 Co132 2.148 . S
N136 C133 1.301 . S
N136 C134 1.317 . S
N137 C133 1.328 . S
N137 C135 1.350 . S
H138 C133 0.930 . S
H139 C134 0.930 . S
C140 O141 1.224 . S
C140 O159 1.247 . S
O141 C140 1.224 . S
N142 Co132 2.128 . S
N142 C143 1.355 . S
N142 C145 1.311 . S
C143 N142 1.355 . S
C143 C144 1.363 . S
C143 H155 0.929 . S
C144 C143 1.363 . S
C144 N146 1.375 . S
C144 H162 0.931 . S
C145 N142 1.311 . S
C145 N146 1.347 . S
C145 H156 0.929 . S
N146 C144 1.375 . S
N146 C145 1.347 . S
C147 C150 1.365 . S
C147 N152 1.328 . S
C147 H153 0.929 . S
C148 C149 1.362 . S
C148 C151 1.378 . S
C148 H163 0.929 . S
C149 C148 1.362 . S
C149 C150 1.366 . S
C150 C147 1.365 . S
C150 C149 1.366 . S
C150 H164 0.930 . S
C151 C148 1.378 . S
C151 N152 1.315 . S
C151 H154 0.930 . S
N152 Co132 2.194 . S
N152 C147 1.328 . S
N152 C151 1.315 . S
H153 C147 0.929 . S
H154 C151 0.930 . S
H155 C143 0.929 . S
H156 C145 0.929 . S
O157 Co132 2.351 . S
O157 C160 1.244 . S
O158 Co132 2.155 . S
O158 C160 1.240 . S
O159 Co132 2.096 . S
O159 C140 1.247 . S
C160 O157 1.244 . S
C160 O158 1.240 . S
H161 C135 0.931 . S
H162 C144 0.931 . S
H163 C148 0.929 . S
H164 C150 0.930 . S
Co165 N169 2.148 . S
Co165 N175 2.128 . S
Co165 N185 2.194 . S
Co165 O190 2.351 . S
Co165 O191 2.155 . S
Co165 O192 2.096 . S
C166 N169 1.301 1_554 S
C166 N170 1.328 . S
C166 H171 0.930 . S
C167 C168 1.333 1_556 S
C167 N169 1.317 . S
C167 H172 0.930 . S
C168 C167 1.333 1_554 S
C168 N170 1.350 . S
C168 H194 0.931 . S
N169 Co165 2.148 . S
N169 C166 1.301 1_556 S
N169 C167 1.317 . S
N170 C166 1.328 . S
N170 C168 1.350 . S
H171 C166 0.930 . S
H172 C167 0.930 . S
C173 O174 1.224 . S
C173 O192 1.247 . S
O174 C173 1.224 . S
N175 Co165 2.128 . S
N175 C176 1.355 . S
N175 C178 1.311 . S
C176 N175 1.355 . S
C176 C177 1.363 . S
C176 H188 0.929 . S
C177 C176 1.363 . S
C177 N179 1.375 . S
C177 H195 0.931 . S
C178 N175 1.311 . S
C178 N179 1.347 . S
C178 H189 0.929 . S
N179 C177 1.375 . S
N179 C178 1.347 . S
C180 C183 1.365 . S
C180 N185 1.328 . S
C180 H186 0.929 . S
C181 C182 1.362 . S
C181 C184 1.378 . S
C181 H196 0.929 . S
C182 C181 1.362 . S
C182 C183 1.366 . S
C183 C180 1.365 . S
C183 C182 1.366 . S
C183 H197 0.930 . S
C184 C181 1.378 . S
C184 N185 1.315 . S
C184 H187 0.930 . S
N185 Co165 2.194 . S
N185 C180 1.328 . S
N185 C184 1.315 . S
H186 C180 0.929 . S
H187 C184 0.930 . S
H188 C176 0.929 . S
H189 C178 0.929 . S
O190 Co165 2.351 . S
O190 C193 1.244 . S
O191 Co165 2.155 . S
O191 C193 1.240 . S
O192 Co165 2.096 . S
O192 C173 1.247 . S
C193 O190 1.244 . S
C193 O191 1.240 . S
H194 C168 0.931 . S
H195 C177 0.931 . S
H196 C181 0.929 . S
H197 C183 0.930 . S
C198 C199 1.369 . S
C198 C200 1.419 . S
C198 H202 0.930 . S
C199 C198 1.369 . S
C199 C208 1.429 1_554 S
C200 C198 1.419 . S
C200 C201 1.363 1_554 S
C200 H203 0.929 . S
C201 C200 1.363 1_556 S
C201 C207 1.428 . S
H202 C198 0.930 . S
H203 C200 0.929 . S
S204 N205 1.613 . S
S204 N206 1.610 . S
N205 S204 1.613 . S
N205 C208 1.350 . S
N206 S204 1.610 . S
N206 C207 1.351 . S
C207 C201 1.428 . S
C207 N206 1.351 . S
C207 C208 1.434 . S
C208 C199 1.429 1_556 S
C208 N205 1.350 . S
C208 C207 1.434 . S
C209 C210 1.369 . S
C209 C211 1.419 . S
C209 H213 0.930 . S
C210 C209 1.369 . S
C210 C219 1.429 . S
C211 C209 1.419 . S
C211 C212 1.363 . S
C211 H214 0.929 . S
C212 C211 1.363 . S
C212 C218 1.428 . S
H213 C209 0.930 . S
H214 C211 0.929 . S
S215 N216 1.613 . S
S215 N217 1.610 . S
N216 S215 1.613 . S
N216 C219 1.350 . S
N217 S215 1.610 . S
N217 C218 1.351 . S
C218 C212 1.428 . S
C218 N217 1.351 . S
C218 C219 1.434 . S
C219 C210 1.429 . S
C219 N216 1.350 . S
C219 C218 1.434 . S
C220 C221 1.369 . S
C220 C222 1.419 . S
C220 H224 0.930 . S
C221 C220 1.369 . S
C221 C230 1.429 . S
C222 C220 1.419 . S
C222 C223 1.363 . S
C222 H225 0.929 . S
C223 C222 1.363 . S
C223 C229 1.428 . S
H224 C220 0.930 . S
H225 C222 0.929 . S
S226 N227 1.613 . S
S226 N228 1.610 . S
N227 S226 1.613 . S
N227 C230 1.350 . S
N228 S226 1.610 . S
N228 C229 1.351 . S
C229 C223 1.428 . S
C229 N228 1.351 . S
C229 C230 1.434 . S
C230 C221 1.429 . S
C230 N227 1.350 . S
C230 C229 1.434 . S
C231 C232 1.369 . S
C231 C233 1.419 . S
C231 H235 0.930 . S
C232 C231 1.369 . S
C232 C241 1.429 1_556 S
C233 C231 1.419 . S
C233 C234 1.363 1_556 S
C233 H236 0.929 . S
C234 C233 1.363 1_554 S
C234 C240 1.428 . S
H235 C231 0.930 . S
H236 C233 0.929 . S
S237 N238 1.613 . S
S237 N239 1.610 . S
N238 S237 1.613 . S
N238 C241 1.350 . S
N239 S237 1.610 . S
N239 C240 1.351 . S
C240 C234 1.428 . S
C240 N239 1.351 . S
C240 C241 1.434 . S
C241 C232 1.429 1_554 S
C241 N238 1.350 . S
C241 C240 1.434 . S
C242 C243 1.369 . S
C242 C244 1.419 . S
C242 H246 0.930 . S
C243 C242 1.369 . S
C243 C252 1.429 . S
C244 C242 1.419 . S
C244 C245 1.363 . S
C244 H247 0.929 . S
C245 C244 1.363 . S
C245 C251 1.428 . S
H246 C242 0.930 . S
H247 C244 0.929 . S
S248 N249 1.613 . S
S248 N250 1.610 . S
N249 S248 1.613 . S
N249 C252 1.350 . S
N250 S248 1.610 . S
N250 C251 1.351 . S
C251 C245 1.428 . S
C251 N250 1.351 . S
C251 C252 1.434 . S
C252 C243 1.429 . S
C252 N249 1.350 . S
C252 C251 1.434 . S
C253 C254 1.369 . S
C253 C255 1.419 . S
C253 H257 0.930 . S
C254 C253 1.369 . S
C254 C263 1.429 . S
C255 C253 1.419 . S
C255 C256 1.363 . S
C255 H258 0.929 . S
C256 C255 1.363 . S
C256 C262 1.428 . S
H257 C253 0.930 . S
H258 C255 0.929 . S
S259 N260 1.613 . S
S259 N261 1.610 . S
N260 S259 1.613 . S
N260 C263 1.350 . S
N261 S259 1.610 . S
N261 C262 1.351 . S
C262 C256 1.428 . S
C262 N261 1.351 . S
C262 C263 1.434 . S
C263 C254 1.429 . S
C263 N260 1.350 . S
C263 C262 1.434 . S
C264 C265 1.369 . S
C264 C266 1.419 . S
C264 H268 0.930 . S
C265 C264 1.369 . S
C265 C274 1.429 . S
C266 C264 1.419 . S
C266 C267 1.363 . S
C266 H269 0.929 . S
C267 C266 1.363 . S
C267 C273 1.428 . S
H268 C264 0.930 . S
H269 C266 0.929 . S
S270 N271 1.613 . S
S270 N272 1.610 . S
N271 S270 1.613 . S
N271 C274 1.350 . S
N272 S270 1.610 . S
N272 C273 1.351 . S
C273 C267 1.428 . S
C273 N272 1.351 . S
C273 C274 1.434 . S
C274 C265 1.429 . S
C274 N271 1.350 . S
C274 C273 1.434 . S
C275 C276 1.369 . S
C275 C277 1.419 1_556 S
C275 H279 0.930 . S
C276 C275 1.369 . S
C276 C285 1.429 . S
C277 C275 1.419 1_554 S
C277 C278 1.363 . S
C277 H280 0.929 . S
C278 C277 1.363 . S
C278 C284 1.428 . S
H279 C275 0.930 . S
H280 C277 0.929 . S
S281 N282 1.613 . S
S281 N283 1.610 1_556 S
N282 S281 1.613 . S
N282 C285 1.350 . S
N283 S281 1.610 1_554 S
N283 C284 1.351 . S
C284 C278 1.428 . S
C284 N283 1.351 . S
C284 C285 1.434 1_554 S
C285 C276 1.429 . S
C285 N282 1.350 . S
C285 C284 1.434 1_556 S
C286 C287 1.369 . S
C286 C288 1.419 . S
C286 H290 0.930 . S
C287 C286 1.369 . S
C287 C296 1.429 . S
C288 C286 1.419 . S
C288 C289 1.363 . S
C288 H291 0.929 . S
C289 C288 1.363 . S
C289 C295 1.428 . S
H290 C286 0.930 . S
H291 C288 0.929 . S
S292 N293 1.613 . S
S292 N294 1.610 . S
N293 S292 1.613 . S
N293 C296 1.350 . S
N294 S292 1.610 . S
N294 C295 1.351 . S
C295 C289 1.428 . S
C295 N294 1.351 . S
C295 C296 1.434 . S
C296 C287 1.429 . S
C296 N293 1.350 . S
C296 C295 1.434 . S
C297 C298 1.369 . S
C297 C299 1.419 . S
C297 H301 0.930 . S
C298 C297 1.369 . S
C298 C307 1.429 . S
C299 C297 1.419 . S
C299 C300 1.363 . S
C299 H302 0.929 . S
C300 C299 1.363 . S
C300 C306 1.428 . S
H301 C297 0.930 . S
H302 C299 0.929 . S
S303 N304 1.613 . S
S303 N305 1.610 . S
N304 S303 1.613 . S
N304 C307 1.350 . S
N305 S303 1.610 . S
N305 C306 1.351 . S
C306 C300 1.428 . S
C306 N305 1.351 . S
C306 C307 1.434 . S
C307 C298 1.429 . S
C307 N304 1.350 . S
C307 C306 1.434 . S
C308 C309 1.369 . S
C308 C310 1.419 1_554 S
C308 H312 0.930 . S
C309 C308 1.369 . S
C309 C318 1.429 . S
C310 C308 1.419 1_556 S
C310 C311 1.363 . S
C310 H313 0.929 . S
C311 C310 1.363 . S
C311 C317 1.428 . S
H312 C308 0.930 . S
H313 C310 0.929 . S
S314 N315 1.613 . S
S314 N316 1.610 1_554 S
N315 S314 1.613 . S
N315 C318 1.350 . S
N316 S314 1.610 1_556 S
N316 C317 1.351 . S
C317 C311 1.428 . S
C317 N316 1.351 . S
C317 C318 1.434 1_556 S
C318 C309 1.429 . S
C318 N315 1.350 . S
C318 C317 1.434 1_554 S
C319 C320 1.369 . S
C319 C321 1.419 . S
C319 H323 0.930 . S
C320 C319 1.369 . S
C320 C329 1.429 . S
C321 C319 1.419 . S
C321 C322 1.363 . S
C321 H324 0.929 . S
C322 C321 1.363 . S
C322 C328 1.428 . S
H323 C319 0.930 . S
H324 C321 0.929 . S
S325 N326 1.613 . S
S325 N327 1.610 . S
N326 S325 1.613 . S
N326 C329 1.350 . S
N327 S325 1.610 . S
N327 C328 1.351 . S
C328 C322 1.428 . S
C328 N327 1.351 . S
C328 C329 1.434 . S
C329 C320 1.429 . S
C329 N326 1.350 . S
C329 C328 1.434 . S
C330 C331 1.369 . S
C330 C332 1.419 1_655 S
C330 H334 0.930 . S
C331 C330 1.369 . S
C331 C340 1.429 . S
C332 C330 1.419 1_455 S
C332 C333 1.363 . S
C332 H335 0.929 . S
C333 C332 1.363 . S
C333 C339 1.428 . S
H334 C330 0.930 . S
H335 C332 0.929 . S
S336 N337 1.613 1_556 S
S336 N338 1.610 1_656 S
N337 S336 1.613 1_554 S
N337 C340 1.350 . S
N338 S336 1.610 1_454 S
N338 C339 1.351 . S
C339 C333 1.428 . S
C339 N338 1.351 . S
C339 C340 1.434 1_455 S
C340 C331 1.429 . S
C340 N337 1.350 . S
C340 C339 1.434 1_655 S
C341 C342 1.369 . S
C341 C343 1.419 1_545 S
C341 H345 0.930 . S
C342 C341 1.369 . S
C342 C351 1.429 . S
C343 C341 1.419 1_565 S
C343 C344 1.363 . S
C343 H346 0.929 . S
C344 C343 1.363 . S
C344 C350 1.428 . S
H345 C341 0.930 . S
H346 C343 0.929 . S
S347 N348 1.613 1_565 S
S347 N349 1.610 . S
N348 S347 1.613 1_545 S
N348 C351 1.350 . S
N349 S347 1.610 . S
N349 C350 1.351 . S
C350 C344 1.428 . S
C350 N349 1.351 . S
C350 C351 1.434 1_565 S
C351 C342 1.429 . S
C351 N348 1.350 . S
C351 C350 1.434 1_545 S
C352 C353 1.369 . S
C352 C354 1.419 . S
C352 H356 0.930 . S
C353 C352 1.369 . S
C353 C362 1.429 . S
C354 C352 1.419 . S
C354 C355 1.363 . S
C354 H357 0.929 . S
C355 C354 1.363 . S
C355 C361 1.428 . S
H356 C352 0.930 . S
H357 C354 0.929 . S
S358 N359 1.613 1_554 S
S358 N360 1.610 1_554 S
N359 S358 1.613 1_556 S
N359 C362 1.350 . S
N360 S358 1.610 1_556 S
N360 C361 1.351 . S
C361 C355 1.428 . S
C361 N360 1.351 . S
C361 C362 1.434 . S
C362 C353 1.429 . S
C362 N359 1.350 . S
C362 C361 1.434 . S
C199 C8 1.056 . S
C201 C94 1.037 . S
C210 C41 1.056 . S
C212 C127 1.035 . S
C221 C160 1.032 . S
C223 C74 1.054 . S
C232 C193 1.034 . S
C234 C107 1.056 . S
C243 C140 1.055 . S
C245 C28 1.036 . S
C254 C61 1.037 . S
C256 C173 1.053 . S
C265 N14 1.636 . S
C267 N5 1.635 . S
C276 N38 1.636 . S
C278 N47 1.634 . S
C287 N80 1.633 . S
C289 N71 1.638 . S
C298 N113 1.632 . S
C300 N104 1.639 . S
C309 N146 1.635 . S
C311 N137 1.637 . S
C320 N170 1.635 . S
C322 N179 1.635 . S
C331 C116 1.297 . S
C333 C17 1.297 . S
C342 C50 1.295 . S
C344 C149 1.294 . S
C353 C83 1.296 . S
C355 C182 1.296 . S
