# Generated by pormake.
# Topology vby, (6)-cn, num edge types: 1
# Building blocks:
#     Node 0, Type 0, BuildingBlock: GEDQOX_clean_sbu_0, # of connection points: 6
#     Node 1, Type 0, BuildingBlock: GEDQOX_clean_sbu_0, # of connection points: 6
#     Node 2, Type 0, BuildingBlock: GEDQOX_clean_sbu_0, # of connection points: 6
#     Node 3, Type 0, BuildingBlock: GEDQOX_clean_sbu_0, # of connection points: 6
#     Node 4, Type 0, BuildingBlock: GEDQOX_clean_sbu_0, # of connection points: 6
#     Node 5, Type 0, BuildingBlock: GEDQOX_clean_sbu_0, # of connection points: 6
#     Node 6, Type 0, BuildingBlock: GEDQOX_clean_sbu_0, # of connection points: 6
#     Node 7, Type 0, BuildingBlock: GEDQOX_clean_sbu_0, # of connection points: 6
#     Edge 8, Type (0, 0), BuildingBlock: XUDNAN_clean_linker_2, # of connection points: 2
#     Edge 9, Type (0, 0), BuildingBlock: XUDNAN_clean_linker_2, # of connection points: 2
#     Edge 10, Type (0, 0), BuildingBlock: XUDNAN_clean_linker_2, # of connection points: 2
#     Edge 11, Type (0, 0), BuildingBlock: XUDNAN_clean_linker_2, # of connection points: 2
#     Edge 12, Type (0, 0), BuildingBlock: XUDNAN_clean_linker_2, # of connection points: 2
#     Edge 13, Type (0, 0), BuildingBlock: XUDNAN_clean_linker_2, # of connection points: 2
#     Edge 14, Type (0, 0), BuildingBlock: XUDNAN_clean_linker_2, # of connection points: 2
#     Edge 15, Type (0, 0), BuildingBlock: XUDNAN_clean_linker_2, # of connection points: 2
#     Edge 16, Type (0, 0), BuildingBlock: XUDNAN_clean_linker_2, # of connection points: 2
#     Edge 17, Type (0, 0), BuildingBlock: XUDNAN_clean_linker_2, # of connection points: 2
#     Edge 18, Type (0, 0), BuildingBlock: XUDNAN_clean_linker_2, # of connection points: 2
#     Edge 19, Type (0, 0), BuildingBlock: XUDNAN_clean_linker_2, # of connection points: 2
#     Edge 20, Type (0, 0), BuildingBlock: XUDNAN_clean_linker_2, # of connection points: 2
#     Edge 21, Type (0, 0), BuildingBlock: XUDNAN_clean_linker_2, # of connection points: 2
#     Edge 22, Type (0, 0), BuildingBlock: XUDNAN_clean_linker_2, # of connection points: 2
#     Edge 23, Type (0, 0), BuildingBlock: XUDNAN_clean_linker_2, # of connection points: 2
#     Edge 24, Type (0, 0), BuildingBlock: XUDNAN_clean_linker_2, # of connection points: 2
#     Edge 25, Type (0, 0), BuildingBlock: XUDNAN_clean_linker_2, # of connection points: 2
#     Edge 26, Type (0, 0), BuildingBlock: XUDNAN_clean_linker_2, # of connection points: 2
#     Edge 27, Type (0, 0), BuildingBlock: XUDNAN_clean_linker_2, # of connection points: 2
#     Edge 28, Type (0, 0), BuildingBlock: XUDNAN_clean_linker_2, # of connection points: 2
#     Edge 29, Type (0, 0), BuildingBlock: XUDNAN_clean_linker_2, # of connection points: 2
#     Edge 30, Type (0, 0), BuildingBlock: XUDNAN_clean_linker_2, # of connection points: 2
#     Edge 31, Type (0, 0), BuildingBlock: XUDNAN_clean_linker_2, # of connection points: 2
# Relax obj value: 0.127
# Max RMSD: 0.210
# Mean RMSD: 0.205
data_MOF--net-vby--node1-GEDQOX_clean_sbu_0--edge1-XUDNAN_clean_linker_2
_symmetry_space_group_name_H-M    P1
_symmetry_Int_Tables_number       1
_symmetry_cell_setting            triclinic
loop_
_symmetry_equiv_pos_as_xyz
'x, y, z'
_cell_length_a     25.700846
_cell_length_b     53.977953
_cell_length_c     28.932674
_cell_angle_alpha  93.381195
_cell_angle_beta   92.778687
_cell_angle_gamma 89.982698
loop_
_atom_site_label
_atom_site_type_symbol
_atom_site_fract_x
_atom_site_fract_y
_atom_site_fract_z
_atom_type_partial_charge
Nd0 Nd 0.14122 0.37615 0.01729 0.0
Nd1 Nd 0.03473 0.35501 0.01347 0.0
C2 C 0.24059 0.38731 1.01028 0.0
C3 C 0.29319 0.37643 0.01529 0.0
C4 C 0.31619 0.36316 0.97816 0.0
C5 C 0.36896 0.35648 0.98157 0.0
C6 C 0.39962 0.36313 0.02203 0.0
C7 C 0.37543 0.37554 0.05949 0.0
C8 C 0.3231 0.38186 0.05628 0.0
C9 C 0.09713 0.37052 0.10262 0.0
C10 C 0.13368 0.31622 1.01 0.0
C11 C 0.93843 0.34591 0.0346 0.0
C12 C 0.88645 0.35665 0.02277 0.0
C13 C 0.86787 0.37685 0.05005 0.0
C14 C 0.81628 0.38456 0.04455 0.0
C15 C 0.78128 0.37175 0.01273 0.0
C16 C 0.80118 0.35348 0.98172 0.0
C17 C 0.85342 0.346 0.98669 0.0
C18 C 0.05148 0.36271 0.92293 0.0
C19 C 0.05438 0.41569 0.01197 0.0
O20 O 0.21035 0.37925 0.97507 0.0
O21 O 0.21537 0.39188 0.04801 0.0
O22 O 0.11993 0.39073 0.09199 0.0
O23 O 0.09752 0.35482 0.06877 0.0
O24 O 0.16153 0.3357 1.00227 0.0
O25 O 0.08387 0.31848 0.0204 0.0
O26 O 0.97058 0.36009 0.06091 0.0
O27 O 0.96178 0.33278 1.00211 0.0
O28 O 1.00988 0.35342 0.93787 0.0
O29 O 0.08522 0.36773 0.95563 0.0
O30 O 0.02616 0.39796 0.02836 0.0
O31 O 0.10007 0.41073 0.99594 0.0
H32 H 0.294 0.35868 0.94597 0.0
H33 H 0.38585 0.34668 0.95222 0.0
H34 H 0.39733 0.38177 0.09089 0.0
H35 H 0.30679 0.39221 0.08536 0.0
H36 H 0.89232 0.38596 0.0775 0.0
H37 H 0.80277 0.39934 0.06794 0.0
H38 H 0.77556 0.34346 0.95632 0.0
H39 H 0.86691 0.33085 0.96414 0.0
Nd40 Nd 0.90898 0.63454 0.0128 0.0
Nd41 Nd 1.01621 0.6567 0.01283 0.0
C42 C 0.80824 0.62555 0.99922 0.0
C43 C 0.75724 0.63804 1.00445 0.0
C44 C 0.73092 0.64773 0.96571 0.0
C45 C 0.67788 0.65342 0.96672 0.0
C46 C 0.65063 0.6498 1.00661 0.0
C47 C 0.67811 0.64299 0.04693 0.0
C48 C 0.73103 0.63707 0.04587 0.0
C49 C 0.96087 0.6413 0.0984 0.0
C50 C 0.91602 0.69493 0.01237 0.0
C51 C 0.11311 0.66724 0.04251 0.0
C52 C 0.16633 0.6575 0.03441 0.0
C53 C 0.19347 0.64488 0.06935 0.0
C54 C 0.24534 0.63761 0.06443 0.0
C55 C 0.27097 0.64281 0.02446 0.0
C56 C 0.2435 0.65434 0.98857 0.0
C57 C 0.1916 0.6616 0.99341 0.0
C58 C 0.99148 0.64514 0.92102 0.0
C59 C 0.99732 0.59535 1.00636 0.0
O60 O 0.83754 0.63295 0.96695 0.0
O61 O 0.83499 0.61976 0.03671 0.0
O62 O 0.93561 0.62107 0.08501 0.0
O63 O 0.95786 0.65675 0.06731 0.0
O64 O 0.88723 0.67512 0.01469 0.0
O65 O 0.96776 0.69368 0.01156 0.0
O66 O 0.08227 0.65297 0.06398 0.0
O67 O 0.08863 0.67894 1.00947 0.0
O68 O 0.03536 0.6544 0.93717 0.0
O69 O 0.96106 0.64122 0.95334 0.0
O70 O 0.02716 0.61425 0.0225 0.0
O71 O 0.94934 0.59892 0.99081 0.0
H72 H 0.75011 0.649 0.93341 0.0
H73 H 0.65722 0.65855 0.93518 0.0
H74 H 0.65756 0.63987 0.07791 0.0
H75 H 0.7502 0.62992 0.07646 0.0
H76 H 0.17502 0.64128 0.10117 0.0
H77 H 0.26593 0.62865 0.09241 0.0
H78 H 0.26278 0.6584 0.95739 0.0
H79 H 0.17186 0.671 0.96556 0.0
Nd80 Nd 0.03638 0.65511 0.51746 0.0
Nd81 Nd 0.14397 0.63719 0.52084 0.0
C82 C 0.94092 0.66458 0.54288 0.0
C83 C 0.8873 0.65529 0.53136 0.0
C84 C 0.86254 0.64123 0.56329 0.0
C85 C 0.81036 0.63433 0.55579 0.0
C86 C 0.7816 0.64154 0.51635 0.0
C87 C 0.80687 0.65453 0.48317 0.0
C88 C 0.85935 0.66129 0.4905 0.0
C89 C 0.05563 0.64662 0.42554 0.0
C90 C 0.06146 0.5948 0.50634 0.0
C91 C 0.24462 0.62805 0.51856 0.0
C92 C 0.2952 0.64101 0.51979 0.0
C93 C 0.31672 0.64822 0.47878 0.0
C94 C 0.37 0.65343 0.47818 0.0
C95 C 0.40181 0.6514 0.51851 0.0
C96 C 0.37899 0.64766 0.56057 0.0
C97 C 0.32608 0.6424 0.56121 0.0
C98 C 0.09628 0.64258 0.60514 0.0
C99 C 0.13166 0.69624 0.51709 0.0
O100 O 0.9725 0.6494 0.56406 0.0
O101 O 0.96385 0.67735 0.51241 0.0
O102 O 1.01203 0.65405 0.44158 0.0
O103 O 0.08962 0.64309 0.45801 0.0
O104 O 0.02903 0.61184 0.52295 0.0
O105 O 0.10798 0.60101 0.49476 0.0
O106 O 0.21415 0.62896 0.48125 0.0
O107 O 0.21933 0.62901 0.55667 0.0
O108 O 0.11979 0.62245 0.59104 0.0
O109 O 0.09697 0.65809 0.57446 0.0
O110 O 0.1614 0.67712 0.50813 0.0
O111 O 0.08207 0.69321 0.52715 0.0
H112 H 0.88309 0.63625 0.59498 0.0
H113 H 0.79185 0.6244 0.58205 0.0
H114 H 0.78568 0.65994 0.45209 0.0
H115 H 0.87745 0.6718 0.46483 0.0
H116 H 0.29362 0.64771 0.44641 0.0
H117 H 0.38705 0.65632 0.4454 0.0
H118 H 0.40311 0.64609 0.59204 0.0
H119 H 0.31054 0.63719 0.59341 0.0
Nd120 Nd 0.90652 0.37637 0.49999 0.0
Nd121 Nd 1.01423 0.354 0.50236 0.0
C122 C 0.80607 0.38659 0.5015 0.0
C123 C 0.7553 0.37392 0.50285 0.0
C124 C 0.74141 0.36103 0.54126 0.0
C125 C 0.68973 0.35357 0.54522 0.0
C126 C 0.65122 0.35903 0.51102 0.0
C127 C 0.66661 0.36949 0.47047 0.0
C128 C 0.71811 0.3769 0.46654 0.0
C129 C 0.95373 0.37039 0.41573 0.0
C130 C 0.9147 0.31645 0.50452 0.0
C131 C 0.10985 0.34409 0.47752 0.0
C132 C 0.1635 0.35324 0.49017 0.0
C133 C 0.19196 0.3644 0.45669 0.0
C134 C 0.24416 0.37112 0.46592 0.0
C135 C 0.26921 0.36682 0.50895 0.0
C136 C 0.23986 0.35701 0.54349 0.0
C137 C 0.18757 0.35026 0.53423 0.0
C138 C 0.99434 0.36491 0.59336 0.0
C139 C 0.99595 0.4154 0.51396 0.0
O140 O 0.83707 0.38746 0.53879 0.0
O141 O 0.83079 0.38325 0.4633 0.0
O142 O 0.93176 0.39085 0.4303 0.0
O143 O 0.95199 0.35451 0.44592 0.0
O144 O 0.88814 0.33653 0.51535 0.0
O145 O 0.96382 0.31774 0.49221 0.0
O146 O 0.07887 0.35946 0.45617 0.0
O147 O 0.08604 0.3312 0.50733 0.0
O148 O 0.03616 0.35431 0.57929 0.0
O149 O 0.96284 0.36902 0.55967 0.0
O150 O 1.02463 0.39672 0.49757 0.0
O151 O 0.94805 0.41179 0.52576 0.0
H152 H 0.76964 0.35788 0.56933 0.0
H153 H 0.67932 0.34489 0.57632 0.0
H154 H 0.63819 0.37395 0.44339 0.0
H155 H 0.7281 0.38645 0.43626 0.0
H156 H 0.17419 0.36729 0.42271 0.0
H157 H 0.26531 0.37911 0.43892 0.0
H158 H 0.25796 0.35338 0.577 0.0
H159 H 0.16659 0.34207 0.56111 0.0
Nd160 Nd 0.64269 0.87571 0.02017 0.0
Nd161 Nd 0.53643 0.85478 0.01493 0.0
C162 C 0.74213 0.88584 0.0116 0.0
C163 C 0.79397 0.87415 0.01594 0.0
C164 C 0.81361 0.85949 0.97889 0.0
C165 C 0.8659 0.85235 0.98008 0.0
C166 C 0.89928 0.85996 0.01809 0.0
C167 C 0.87887 0.87304 0.05638 0.0
C168 C 0.82663 0.88003 0.05537 0.0
C169 C 0.59742 0.87518 0.10487 0.0
C170 C 0.63358 0.81525 0.01442 0.0
C171 C 0.43981 0.84717 0.03771 0.0
C172 C 0.38736 0.85732 0.02616 0.0
C173 C 0.35917 0.86927 0.06147 0.0
C174 C 0.30617 0.87456 0.05409 0.0
C175 C 0.28061 0.86781 0.01129 0.0
C176 C 0.3102 0.85875 0.97433 0.0
C177 C 0.36317 0.85349 0.98165 0.0
C178 C 0.55485 0.86323 0.9247 0.0
C179 C 0.55534 0.91552 0.01163 0.0
O180 O 0.71085 0.87796 0.97689 0.0
O181 O 0.71792 0.89105 0.04967 0.0
O182 O 0.62254 0.8938 0.09015 0.0
O183 O 0.596 0.85716 0.07457 0.0
O184 O 0.66366 0.83489 0.0172 0.0
O185 O 0.58195 0.81711 0.0139 0.0
O186 O 0.47212 0.86206 0.06207 0.0
O187 O 0.46259 0.83329 1.00594 0.0
O188 O 0.51327 0.85308 0.93818 0.0
O189 O 0.58757 0.86801 0.95823 0.0
O190 O 0.52608 0.89768 0.0262 0.0
O191 O 0.60232 0.9107 0.99807 0.0
H192 H 0.78939 0.85453 0.94805 0.0
H193 H 0.88089 0.84216 0.9502 0.0
H194 H 0.90387 0.87867 0.08639 0.0
H195 H 0.81252 0.89111 0.08457 0.0
H196 H 0.3772 0.87293 0.09582 0.0
H197 H 0.28423 0.88157 0.0831 0.0
H198 H 0.29125 0.85363 0.94084 0.0
H199 H 0.38408 0.84496 0.95327 0.0
Nd200 Nd 0.41054 0.13654 1.00569 0.0
Nd201 Nd 0.51081 0.15639 0.01526 0.0
C202 C 0.31054 0.12677 0.98542 0.0
C203 C 0.25772 0.13596 0.99575 0.0
C204 C 0.2275 0.14842 0.9625 0.0
C205 C 0.17513 0.15417 0.96969 0.0
C206 C 0.15211 0.14756 1.01034 0.0
C207 C 0.18311 0.13585 0.04406 0.0
C208 C 0.23512 0.13022 0.03698 0.0
C209 C 0.44812 0.13929 0.09833 0.0
C210 C 0.41833 0.19595 0.01279 0.0
C211 C 0.6119 0.16567 0.03158 0.0
C212 C 0.66366 0.15396 0.02485 0.0
C213 C 0.68645 0.13919 0.05873 0.0
C214 C 0.73869 0.13208 0.05701 0.0
C215 C 0.76996 0.14004 0.022 0.0
C216 C 0.74583 0.15283 0.9858 0.0
C217 C 0.6933 0.15972 0.98724 0.0
C218 C 0.47711 0.15044 0.92261 0.0
C219 C 0.49362 0.09542 1.00689 0.0
O220 O 0.33896 0.14023 0.96031 0.0
O221 O 0.33788 0.11656 0.01843 0.0
O222 O 0.42188 0.12114 0.07748 0.0
O223 O 0.45271 0.15656 0.07083 0.0
O224 O 0.39455 0.17696 0.99118 0.0
O225 O 0.46455 0.19263 0.03371 0.0
O226 O 0.58217 0.15658 0.06179 0.0
O227 O 0.58537 0.17268 0.9951 0.0
O228 O 0.49576 0.17089 0.94239 0.0
O229 O 0.4729 0.13455 0.95274 0.0
O230 O 0.52112 0.11397 0.0277 0.0
O231 O 0.44949 0.10019 0.98473 0.0
H232 H 0.24391 0.15308 0.93032 0.0
H233 H 0.15258 0.16342 0.94325 0.0
H234 H 0.16668 0.13002 0.07543 0.0
H235 H 0.25696 0.12053 0.06327 0.0
H236 H 0.66476 0.13413 0.08795 0.0
H237 H 0.7553 0.12149 0.08472 0.0
H238 H 0.76831 0.15924 0.95813 0.0
H239 H 0.67685 0.17086 0.96026 0.0
Nd240 Nd 0.53129 0.15819 0.51617 0.0
Nd241 Nd 0.64663 0.1369 0.51893 0.0
C242 C 0.43591 0.16959 0.53925 0.0
C243 C 0.38347 0.15833 0.53036 0.0
C244 C 0.35941 0.14792 0.56707 0.0
C245 C 0.30839 0.13922 0.56166 0.0
C246 C 0.27979 0.14049 0.51911 0.0
C247 C 0.30497 0.14949 0.48128 0.0
C248 C 0.35631 0.15842 0.48687 0.0
C249 C 0.55773 0.14803 0.42589 0.0
C250 C 0.55311 0.09668 0.51006 0.0
C251 C 0.7421 0.12777 0.49453 0.0
C252 C 0.79378 0.13904 0.50343 0.0
C253 C 0.82413 0.14315 0.46571 0.0
C254 C 0.87678 0.14905 0.47294 0.0
C255 C 0.89959 0.15082 0.51812 0.0
C256 C 0.86731 0.1502 0.55597 0.0
C257 C 0.8147 0.14413 0.54871 0.0
C258 C 0.60749 0.14303 0.60619 0.0
C259 C 0.63315 0.19702 0.52258 0.0
O260 O 0.46865 0.15747 0.56573 0.0
O261 O 0.45802 0.17943 0.50475 0.0
O262 O 0.51361 0.1574 0.43752 0.0
O263 O 0.58644 0.14471 0.46209 0.0
O264 O 0.51928 0.1152 0.51468 0.0
O265 O 0.60345 0.10024 0.50715 0.0
O266 O 0.70878 0.1403 0.46957 0.0
O267 O 0.72137 0.11714 0.52887 0.0
O268 O 0.64882 0.1302 0.59656 0.0
O269 O 0.59503 0.1559 0.57185 0.0
O270 O 0.6644 0.1779 0.52578 0.0
O271 O 0.58122 0.19489 0.51873 0.0
H272 H 0.37947 0.14735 0.60081 0.0
H273 H 0.29073 0.13282 0.592 0.0
H274 H 0.28473 0.15021 0.44768 0.0
H275 H 0.37412 0.16589 0.45749 0.0
H276 H 0.80805 0.14004 0.43053 0.0
H277 H 0.90034 0.14975 0.44301 0.0
H278 H 0.8836 0.1524 0.59123 0.0
H279 H 0.79141 0.14198 0.57844 0.0
Nd280 Nd 0.40897 0.87504 0.50221 0.0
Nd281 Nd 0.51055 0.85433 0.50281 0.0
C282 C 0.30942 0.88474 0.51266 0.0
C283 C 0.25802 0.87223 0.50821 0.0
C284 C 0.23985 0.85906 0.54477 0.0
C285 C 0.18717 0.85284 0.54564 0.0
C286 C 0.15173 0.85983 0.51021 0.0
C287 C 0.1711 0.87016 0.47102 0.0
C288 C 0.2238 0.87639 0.47013 0.0
C289 C 0.44853 0.8693 0.41424 0.0
C290 C 0.41438 0.81526 0.50435 0.0
C291 C 0.61046 0.84456 0.48959 0.0
C292 C 0.6635 0.85558 0.49748 0.0
C293 C 0.68905 0.8656 0.46084 0.0
C294 C 0.74168 0.87261 0.46625 0.0
C295 C 0.76987 0.86979 0.50849 0.0
C296 C 0.74361 0.86082 0.54568 0.0
C297 C 0.69123 0.85378 0.54026 0.0
C298 C 0.47823 0.86132 0.59167 0.0
C299 C 0.49291 0.91644 0.51081 0.0
O300 O 0.34155 0.87871 0.54656 0.0
O301 O 0.33285 0.88875 0.47468 0.0
O302 O 0.42555 0.88902 0.43092 0.0
O303 O 0.45087 0.85312 0.44418 0.0
O304 O 0.38811 0.83536 0.51432 0.0
O305 O 0.4638 0.81672 0.49317 0.0
O306 O 0.57894 0.85372 0.45822 0.0
O307 O 0.58622 0.8382 0.52571 0.0
O308 O 0.4984 0.84099 0.5747 0.0
O309 O 0.47251 0.87689 0.56066 0.0
O310 O 0.52276 0.89763 0.49643 0.0
O311 O 0.44569 0.91214 0.52314 0.0
H312 H 0.26537 0.85509 0.5743 0.0
H313 H 0.1735 0.84426 0.57575 0.0
H314 H 0.14489 0.87562 0.44301 0.0
H315 H 0.23684 0.88618 0.44116 0.0
H316 H 0.66887 0.86722 0.42742 0.0
H317 H 0.76057 0.87974 0.4371 0.0
H318 H 0.76417 0.85806 0.57854 0.0
H319 H 0.67314 0.84602 0.56922 0.0
H320 H 0.47121 0.36295 0.95177 0.0
H321 H 0.45987 0.35339 0.09931 0.0
H322 H 0.5538 0.35932 0.1109 0.0
H323 H 0.59599 0.32524 0.95006 0.0
H324 H 0.62153 0.34252 0.90476 0.0
H325 H 0.55223 0.33804 0.90715 0.0
H326 H 0.53965 0.38551 0.90744 0.0
H327 H 0.60895 0.39027 0.9067 0.0
H328 H 0.57248 0.40531 0.95205 0.0
H329 H 0.64336 0.37217 0.10999 0.0
H330 H 0.73522 0.37595 0.09497 0.0
H331 H 0.69753 0.37032 0.94637 0.0
C332 C 0.48848 0.36149 0.98636 0.0
C333 C 0.45718 0.35936 0.0252 0.0
C334 C 0.48206 0.35676 0.06945 0.0
C335 C 0.53563 0.35993 0.07647 0.0
C336 C 0.56458 0.36409 0.03844 0.0
C337 C 0.5429 0.3633 0.99386 0.0
C338 C 0.58527 0.36552 0.95917 0.0
C339 C 0.58897 0.3414 0.92846 0.0
C340 C 0.57602 0.38801 0.92962 0.0
C341 C 0.63333 0.36907 0.99198 0.0
C342 C 0.61948 0.3686 0.0374 0.0
C343 C 0.65525 0.37207 0.07461 0.0
C344 C 0.70754 0.37461 0.06552 0.0
C345 C 0.7242 0.37354 0.01943 0.0
C346 C 0.68623 0.37115 0.98199 0.0
H347 H 0.34947 0.67487 0.05144 0.0
H348 H 0.31867 0.60084 0.99031 0.0
H349 H 0.41308 0.59514 0.97848 0.0
H350 H 0.44608 0.69109 0.97614 0.0
H351 H 0.4867 0.70808 0.01961 0.0
H352 H 0.41758 0.70587 0.02635 0.0
H353 H 0.43341 0.68724 0.10643 0.0
H354 H 0.50253 0.69025 0.10047 0.0
H355 H 0.47506 0.66054 0.11125 0.0
H356 H 0.50849 0.59905 0.96721 0.0
H357 H 0.60196 0.60967 0.96699 0.0
H358 H 0.57241 0.68073 0.03843 0.0
C359 C 0.36298 0.65738 0.03615 0.0
C360 C 0.32737 0.63827 0.02153 0.0
C361 C 0.34573 0.61562 1.00152 0.0
C362 C 0.39906 0.6123 0.99463 0.0
C363 C 0.43314 0.63182 1.00816 0.0
C364 C 0.41606 0.65375 0.02931 0.0
C365 C 0.46075 0.67186 0.04019 0.0
C366 C 0.45227 0.69563 0.014 0.0
C367 C 0.46838 0.67781 0.09271 0.0
C368 C 0.50572 0.65676 0.0216 0.0
C369 C 0.48864 0.63383 1.0028 0.0
C370 C 0.52237 0.6168 0.98224 0.0
C371 C 0.57517 0.62304 0.98198 0.0
C372 C 0.59383 0.64593 1.00258 0.0
C373 C 0.55875 0.66314 0.02239 0.0
H374 H 0.70593 0.67519 0.49519 0.0
H375 H 0.72884 0.59874 0.5302 0.0
H376 H 0.63346 0.59297 0.53016 0.0
H377 H 0.60058 0.68766 0.56705 0.0
H378 H 0.56601 0.70712 0.52744 0.0
H379 H 0.63582 0.70467 0.52677 0.0
H380 H 0.62828 0.69103 0.43917 0.0
H381 H 0.55837 0.69348 0.43986 0.0
H382 H 0.5879 0.66478 0.41976 0.0
H383 H 0.53773 0.59575 0.52939 0.0
H384 H 0.44503 0.6072 0.53103 0.0
H385 H 0.48247 0.68219 0.49747 0.0
C386 C 0.69078 0.65707 0.50172 0.0
C387 C 0.72462 0.63728 0.51209 0.0
C388 C 0.70351 0.61407 0.52198 0.0
C389 C 0.64951 0.61062 0.5219 0.0
C390 C 0.61733 0.63059 0.51198 0.0
C391 C 0.63697 0.65338 0.50215 0.0
C392 C 0.5937 0.67212 0.4952 0.0
C393 C 0.59938 0.69419 0.53128 0.0
C394 C 0.59196 0.68086 0.44554 0.0
C395 C 0.54665 0.65635 0.50329 0.0
C396 C 0.56144 0.6324 0.5125 0.0
C397 C 0.52563 0.61439 0.52223 0.0
C398 C 0.47329 0.62108 0.52326 0.0
C399 C 0.4573 0.64555 0.51487 0.0
C400 C 0.49413 0.66338 0.50401 0.0
H401 H 0.56753 0.34527 0.45108 0.0
H402 H 0.60748 0.37248 0.59266 0.0
H403 H 0.51471 0.37915 0.60609 0.0
H404 H 0.46715 0.38824 0.42898 0.0
H405 H 0.42446 0.3667 0.39571 0.0
H406 H 0.49387 0.36194 0.397 0.0
H407 H 0.483 0.31792 0.42617 0.0
H408 H 0.41342 0.32212 0.42338 0.0
H409 H 0.44626 0.31387 0.47674 0.0
H410 H 0.41872 0.38618 0.60289 0.0
H411 H 0.32339 0.38641 0.58695 0.0
H412 H 0.34498 0.35448 0.44794 0.0
C413 C 0.5567 0.35232 0.48509 0.0
C414 C 0.59501 0.35829 0.52083 0.0
C415 C 0.57906 0.36733 0.56491 0.0
C416 C 0.52639 0.37154 0.57275 0.0
C417 C 0.48995 0.36652 0.53628 0.0
C418 C 0.50414 0.35659 0.49361 0.0
C419 C 0.4569 0.35268 0.4605 0.0
C420 C 0.46085 0.36833 0.41805 0.0
C421 C 0.44947 0.325 0.44585 0.0
C422 C 0.41412 0.36212 0.49128 0.0
C423 C 0.43417 0.37023 0.53467 0.0
C424 C 0.40238 0.37958 0.56923 0.0
C425 C 0.34831 0.37961 0.55989 0.0
C426 C 0.32656 0.37025 0.5164 0.0
C427 C 0.36026 0.362 0.48138 0.0
H428 H 0.9749 0.89531 0.03212 0.0
H429 H 0.95074 0.81665 0.99851 0.0
H430 H 0.04592 0.81096 0.99368 0.0
H431 H 0.0788 0.90266 0.95464 0.0
H432 H 0.11399 0.92495 0.9931 0.0
H433 H 0.04421 0.92257 0.99481 0.0
H434 H 0.0531 0.91547 0.08246 0.0
H435 H 0.12291 0.91779 0.08102 0.0
H436 H 0.09363 0.89064 0.10249 0.0
H437 H 0.14098 0.8136 0.99211 0.0
H438 H 0.23408 0.8239 0.99256 0.0
H439 H 0.19947 0.9013 0.02723 0.0
C440 C 0.98993 0.87687 0.02427 0.0
C441 C 0.95598 0.85629 0.01618 0.0
C442 C 0.97641 0.83253 1.00489 0.0
C443 C 0.03021 0.82917 1.00217 0.0
C444 C 0.06264 0.84984 1.01032 0.0
C445 C 0.04349 0.87325 0.02094 0.0
C446 C 0.08703 0.89236 0.02688 0.0
C447 C 0.08062 0.91178 0.99016 0.0
C448 C 0.08932 0.90478 0.07616 0.0
C449 C 0.13397 0.87586 0.0185 0.0
C450 C 0.11846 0.85147 1.00881 0.0
C451 C 0.15372 0.8326 0.99926 0.0
C452 C 0.20641 0.83867 0.99925 0.0
C453 C 0.22371 0.86339 1.00893 0.0
C454 C 0.18709 0.88229 0.0192 0.0
H455 H 0.06803 0.14157 0.94619 0.0
H456 H 0.10778 0.16241 0.09099 0.0
H457 H 1.01563 0.1596 0.10861 0.0
H458 H 0.9433 0.17844 0.94558 0.0
H459 H 0.91038 0.15636 0.90511 0.0
H460 H 0.97967 0.16095 0.90309 0.0
H461 H 0.99301 0.11388 0.91056 0.0
H462 H 0.92402 0.10922 0.91443 0.0
H463 H 0.96861 0.09928 0.95967 0.0
H464 H 0.92344 0.15002 0.1134 0.0
H465 H 0.82908 0.14525 0.1029 0.0
H466 H 0.84338 0.13324 0.95399 0.0
C467 C 0.05719 0.14612 0.98137 0.0
C468 C 0.09559 0.15133 0.01761 0.0
C469 C 0.07951 0.15742 0.06302 0.0
C470 C 0.02719 0.15593 0.07341 0.0
C471 C 0.99091 0.14913 0.03776 0.0
C472 C 1.00448 0.14535 0.99231 0.0
C473 C 0.95636 0.13951 0.96071 0.0
C474 C 0.94688 0.16004 0.9266 0.0
C475 C 0.96078 0.11394 0.93484 0.0
C476 C 0.91433 0.1397 0.99608 0.0
C477 C 0.93573 0.14505 0.0402 0.0
C478 C 0.90587 0.14614 0.07899 0.0
C479 C 0.85205 0.143 0.07257 0.0
C480 C 0.82806 0.13882 0.02757 0.0
C481 C 0.86012 0.13661 0.98885 0.0
H482 H 0.20121 0.16278 0.46734 0.0
H483 H 0.22843 0.10535 0.56507 0.0
H484 H 0.13456 0.10311 0.57589 0.0
H485 H 0.10247 0.19467 0.51714 0.0
H486 H 0.06215 0.19875 0.46541 0.0
H487 H 0.13137 0.19494 0.46158 0.0
H488 H 0.11678 0.15745 0.40222 0.0
H489 H 0.04738 0.16159 0.40513 0.0
H490 H 0.07628 0.132 0.41641 0.0
H491 H 0.04149 0.11055 0.58432 0.0
H492 H 0.94892 0.12128 0.57886 0.0
H493 H 0.97872 0.17172 0.47134 0.0
C494 C 0.1876 0.1491 0.48984 0.0
C495 C 0.2229 0.13484 0.51652 0.0
C496 C 0.20277 0.11724 0.5456 0.0
C497 C 0.14936 0.11564 0.55175 0.0
C498 C 0.11623 0.13097 0.52711 0.0
C499 C 0.13404 0.14665 0.49535 0.0
C500 C 0.08926 0.16067 0.47281 0.0
C501 C 0.09681 0.18893 0.4797 0.0
C502 C 0.08199 0.15244 0.42108 0.0
C503 C 0.04439 0.15179 0.49975 0.0
C504 C 0.06106 0.13448 0.53048 0.0
C505 C 0.02766 0.12388 0.56008 0.0
C506 C 0.97522 0.13049 0.55726 0.0
C507 C 0.95654 0.14765 0.52517 0.0
C508 C 0.99185 0.15861 0.4963 0.0
H509 H 0.84456 0.85719 0.44569 0.0
H510 H 0.82508 0.89218 0.5828 0.0
H511 H 0.92032 0.89267 0.5974 0.0
H512 H 0.94614 0.81797 0.47398 0.0
H513 H 0.98293 0.82152 0.42329 0.0
H514 H 0.91344 0.82595 0.42035 0.0
H515 H 0.9247 0.87013 0.39173 0.0
H516 H 0.99417 0.86544 0.39307 0.0
H517 H 0.96739 0.89191 0.42447 0.0
H518 H 1.0151 0.88497 0.60128 0.0
H519 H 0.1075 0.87641 0.58946 0.0
H520 H 0.06823 0.8477 0.44868 0.0
C521 C 0.86036 0.8656 0.47827 0.0
C522 C 0.82715 0.8743 0.51344 0.0
C523 C 0.84955 0.88493 0.55575 0.0
C524 C 0.90362 0.88536 0.56432 0.0
C525 C 0.93497 0.87545 0.52999 0.0
C526 C 0.91452 0.86641 0.48729 0.0
C527 C 0.95742 0.85658 0.45683 0.0
C528 C 0.94949 0.82886 0.44281 0.0
C529 C 0.96113 0.87194 0.41399 0.0
C530 C 1.00473 0.86076 0.48982 0.0
C531 C 0.99062 0.87161 0.5318 0.0
C532 C 0.02679 0.87673 0.56841 0.0
C533 C 0.07918 0.87143 0.56152 0.0
C534 C 0.09517 0.8612 0.51826 0.0
C535 C 0.05719 0.85553 0.4821 0.0
H536 H 0.98407 0.5541 0.94677 0.0
H537 H 0.0455 0.57853 0.08406 0.0
H538 H 0.06222 0.53485 0.10187 0.0
H539 H 0.92189 0.49883 0.97397 0.0
H540 H 0.94143 0.48051 0.92365 0.0
H541 H 0.93431 0.51362 0.92129 0.0
H542 H 0.02926 0.51736 0.89609 0.0
H543 H 0.03633 0.4842 0.8975 0.0
H544 H 0.08155 0.5045 0.93083 0.0
H545 H 0.06646 0.48819 0.10633 0.0
H546 H 0.07104 0.44247 0.09306 0.0
H547 H 1.01442 0.44842 0.95073 0.0
C548 C 1.00171 0.55018 0.98031 0.0
C549 C 1.01379 0.5696 0.01403 0.0
C550 C 0.03673 0.5639 0.05757 0.0
C551 C 0.04587 0.53914 0.06811 0.0
C552 C 0.03285 0.52035 0.03435 0.0
C553 C 1.01258 0.52561 0.99089 0.0
C554 C 1.00465 0.50205 0.96004 0.0
C555 C 0.94714 0.49856 0.9438 0.0
C556 C 0.04005 0.50203 0.91867 0.0
C557 C 1.02178 0.48265 0.9934 0.0
C558 C 0.03751 0.4936 0.03623 0.0
C559 C 0.05434 0.47946 0.0729 0.0
C560 C 0.05627 0.45354 0.06526 0.0
C561 C 0.04183 0.44207 0.0213 0.0
C562 C 1.02441 0.4568 0.98496 0.0
H563 H 0.97758 0.45726 0.57124 0.0
H564 H 0.05268 0.43175 0.44594 0.0
H565 H 0.07293 0.47493 0.43053 0.0
H566 H 0.92084 0.51235 0.53292 0.0
H567 H 0.93615 0.53161 0.58484 0.0
H568 H 0.92831 0.49861 0.58817 0.0
H569 H 1.01998 0.49561 0.62823 0.0
H570 H 0.02778 0.52869 0.62583 0.0
H571 H 0.07533 0.50792 0.60117 0.0
H572 H 0.0791 0.51959 0.42428 0.0
H573 H 0.0845 0.56501 0.43324 0.0
H574 H 1.01121 0.56411 0.56522 0.0
C575 C 0.99893 0.46089 0.54097 0.0
C576 C 1.01367 0.44117 0.50966 0.0
C577 C 0.04163 0.4465 0.47056 0.0
C578 C 0.05292 0.47099 0.46132 0.0
C579 C 0.03705 0.49001 0.49208 0.0
C580 C 1.01203 0.4854 0.53186 0.0
C581 C 1.00172 0.50964 0.55977 0.0
C582 C 0.94326 0.51325 0.56681 0.0
C583 C 0.03307 0.51052 0.60652 0.0
C584 C 1.02235 0.52852 0.52795 0.0
C585 C 0.04253 0.51648 0.48929 0.0
C586 C 0.06389 0.52929 0.45451 0.0
C587 C 0.06644 0.55512 0.4598 0.0
C588 C 0.04783 0.56813 0.49955 0.0
C589 C 1.02466 0.55468 0.53395 0.0
H590 H 0.56109 0.95205 0.94995 0.0
H591 H 0.51522 0.93824 0.08828 0.0
H592 H 0.49794 0.9831 0.10321 0.0
H593 H 0.62268 0.01045 0.97421 0.0
H594 H 0.59725 0.02417 0.92251 0.0
H595 H 0.6064 0.99109 0.92262 0.0
H596 H 0.50937 0.98381 0.89678 0.0
H597 H 0.50009 0.01687 0.8958 0.0
H598 H 0.45942 0.99872 0.93003 0.0
H599 H 0.49261 0.03012 0.10479 0.0
H600 H 0.4856 0.0746 0.08884 0.0
H601 H 0.52496 0.0575 0.94677 0.0
C602 C 0.54684 0.95852 0.98315 0.0
C603 C 0.53929 0.94178 0.01799 0.0
C604 C 0.52058 0.95079 0.061 0.0
C605 C 0.51113 0.97624 0.06989 0.0
C606 C 0.51946 0.99237 0.03498 0.0
C607 C 0.53557 0.98378 0.99204 0.0
C608 C 0.53885 1.00483 0.95971 0.0
C609 C 0.59462 0.0078 0.94384 0.0
C610 C 0.4996 1.00082 0.91812 0.0
C611 C 0.52351 0.02672 0.99145 0.0
C612 C 0.51318 0.01916 0.03495 0.0
C613 C 0.50015 0.03615 0.07072 0.0
C614 C 0.49665 0.06138 0.06153 0.0
C615 C 0.50521 0.06939 0.01685 0.0
C616 C 0.5187 0.05182 0.98135 0.0
H617 H 0.56809 0.0602 0.57178 0.0
H618 H 0.49889 0.07443 0.43641 0.0
H619 H 0.48026 0.02958 0.42168 0.0
H620 H 0.62782 1.00269 0.54477 0.0
H621 H 0.61097 0.98796 0.59636 0.0
H622 H 0.61786 0.0212 0.59755 0.0
H623 H 0.52472 0.02667 0.62645 0.0
H624 H 0.51786 0.99343 0.62613 0.0
H625 H 0.47087 0.0114 0.59423 0.0
H626 H 0.47429 0.98357 0.41922 0.0
H627 H 0.4694 0.93906 0.43273 0.0
H628 H 0.53776 0.9532 0.57159 0.0
C629 C 0.54809 0.05379 0.53947 0.0
C630 C 0.53446 0.07069 0.50518 0.0
C631 C 0.50888 0.0618 0.46318 0.0
C632 C 0.49856 0.03636 0.45446 0.0
C633 C 0.51325 0.02008 0.48848 0.0
C634 C 0.53618 0.02842 0.53071 0.0
C635 C 0.54598 0.00687 0.56181 0.0
C636 C 0.60413 1.00455 0.57593 0.0
C637 C 0.51289 0.00977 0.60469 0.0
C638 C 0.52724 0.98502 0.52954 0.0
C639 C 0.50862 0.99324 0.48748 0.0
C640 C 0.48902 0.9769 0.45187 0.0
C641 C 0.48729 0.95154 0.45953 0.0
C642 C 0.50547 0.9425 0.50223 0.0
C643 C 0.52545 0.95951 0.53795 0.0
H644 H 0.17377 0.28139 0.94722 0.0
H645 H 0.17226 0.30399 0.09322 0.0
H646 H 0.25191 0.27951 0.10816 0.0
H647 H 0.21941 0.21646 0.96643 0.0
H648 H 0.25756 0.21533 0.91571 0.0
H649 H 0.1993 0.23385 0.91733 0.0
H650 H 0.25335 0.27207 0.89809 0.0
H651 H 0.31205 0.25383 0.89812 0.0
H652 H 0.30877 0.28167 0.93546 0.0
H653 H 0.33837 0.25661 0.10585 0.0
H654 H 0.41026 0.227 0.09075 0.0
H655 H 0.35187 0.21566 0.94804 0.0
C656 C 0.1887 0.28009 0.98265 0.0
C657 C 0.16552 0.29397 0.01943 0.0
C658 C 0.18791 0.29274 0.06491 0.0
C659 C 0.23392 0.2793 0.07355 0.0
C660 C 0.25694 0.26663 0.03645 0.0
C661 C 0.23392 0.266 0.99216 0.0
C662 C 0.26576 0.25 0.95889 0.0
C663 C 0.2336 0.22758 0.9384 0.0
C664 C 0.28617 0.26532 0.92037 0.0
C665 C 0.31023 0.24198 0.99138 0.0
C666 C 0.30521 0.25235 0.03569 0.0
C667 C 0.34224 0.24808 0.0714 0.0
C668 C 0.38353 0.23153 0.06241 0.0
C669 C 0.38697 0.21907 0.0183 0.0
C670 C 0.35058 0.22506 0.9821 0.0
H671 H 0.69982 0.79524 0.0782 0.0
H672 H 0.63745 0.78398 0.93694 0.0
H673 H 0.70924 0.75463 0.91968 0.0
H674 H 0.83073 0.79544 0.0549 0.0
H675 H 0.85344 0.77873 0.10408 0.0
H676 H 0.79448 0.79669 0.10678 0.0
H677 H 0.74234 0.75798 0.127 0.0
H678 H 0.80152 0.74011 0.12605 0.0
H679 H 0.7453 0.7299 0.09028 0.0
H680 H 0.79534 0.73081 0.91584 0.0
H681 H 0.87537 0.70647 0.92962 0.0
H682 H 0.87931 0.73085 0.07494 0.0
C683 C 0.69982 0.78561 0.04429 0.0
C684 C 0.66187 0.79129 1.00932 0.0
C685 C 0.66471 0.77921 0.96473 0.0
C686 C 0.70607 0.76288 0.95444 0.0
C687 C 0.74425 0.75865 0.98922 0.0
C688 C 0.74042 0.76902 0.0337 0.0
C689 C 0.7865 0.76157 0.06487 0.0
C690 C 0.81813 0.78448 0.08377 0.0
C691 C 0.76782 0.74648 0.10439 0.0
C692 C 0.8175 0.74562 0.03099 0.0
C693 C 0.7929 0.74461 0.98729 0.0
C694 C 0.81463 0.73152 0.94998 0.0
C695 C 0.86092 0.71816 0.95793 0.0
C696 C 0.88514 0.71749 1.00292 0.0
C697 C 0.8633 0.73181 0.03978 0.0
H698 H 0.17217 0.72352 0.45028 0.0
H699 H 0.16376 0.71989 0.5987 0.0
H700 H 0.24176 0.74684 0.61065 0.0
H701 H 0.30474 0.72111 0.44281 0.0
H702 H 0.31091 0.74365 0.39982 0.0
H703 H 0.251 0.7266 0.40233 0.0
H704 H 0.19857 0.76744 0.41141 0.0
H705 H 0.25797 0.78467 0.40691 0.0
H706 H 0.21855 0.79059 0.45621 0.0
H707 H 0.32912 0.76901 0.60551 0.0
H708 H 0.40394 0.7944 0.5856 0.0
H709 H 0.35296 0.7868 0.44072 0.0
C710 C 0.18501 0.72958 0.48533 0.0
C711 C 0.16053 0.72019 0.52365 0.0
C712 C 0.1803 0.72758 0.56891 0.0
C713 C 0.22542 0.74249 0.57594 0.0
C714 C 0.25021 0.75029 0.53735 0.0
C715 C 0.22936 0.74499 0.49295 0.0
C716 C 0.26321 0.75597 0.45743 0.0
C717 C 0.28366 0.73561 0.4236 0.0
C718 C 0.23278 0.77585 0.43146 0.0
C719 C 0.3074 0.7675 0.48852 0.0
C720 C 0.29945 0.76367 0.53449 0.0
C721 C 0.33535 0.77218 0.5696 0.0
C722 C 0.37859 0.78615 0.55785 0.0
C723 C 0.38593 0.79185 0.5114 0.0
C724 C 0.35006 0.7819 0.47626 0.0
H725 H 0.87091 0.29145 0.57279 0.0
H726 H 0.88083 0.29217 0.42398 0.0
H727 H 0.80297 0.26502 0.4132 0.0
H728 H 0.82702 0.22512 0.57304 0.0
H729 H 0.78594 0.23195 0.6209 0.0
H730 H 0.84438 0.24979 0.61575 0.0
H731 H 0.78914 0.28997 0.61918 0.0
H732 H 0.73026 0.27219 0.62246 0.0
H733 H 0.73597 0.29338 0.57708 0.0
H734 H 0.71649 0.24241 0.4191 0.0
H735 H 0.64298 0.21646 0.44009 0.0
H736 H 0.69316 0.22673 0.58491 0.0
C737 C 0.85818 0.28485 0.53799 0.0
C738 C 0.88306 0.29333 0.49915 0.0
C739 C 0.86374 0.28519 0.45417 0.0
C740 C 0.81882 0.27015 0.44778 0.0
C741 C 0.79386 0.26303 0.48677 0.0
C742 C 0.81407 0.26929 0.53104 0.0
C743 C 0.78021 0.25888 0.56709 0.0
C744 C 0.81122 0.24032 0.59588 0.0
C745 C 0.75758 0.27986 0.59829 0.0
C746 C 0.73752 0.24598 0.53628 0.0
C747 C 0.74541 0.24919 0.49008 0.0
C748 C 0.71027 0.23969 0.45517 0.0
C749 C 0.66779 0.22541 0.46748 0.0
C750 C 0.66095 0.22028 0.51422 0.0
C751 C 0.69602 0.23111 0.54907 0.0
H752 H 0.07579 0.40456 0.17536 0.0
H753 H 0.06194 0.32655 0.13135 0.0
H754 H 1.02463 0.31805 0.20595 0.0
H755 H 0.11011 0.39718 0.29524 0.0
H756 H 0.07152 0.42281 0.31694 0.0
H757 H 0.09681 0.42311 0.25997 0.0
H758 H 1.0036 0.42903 0.22408 0.0
H759 H 0.97821 0.42906 0.28107 0.0
H760 H 0.95302 0.40742 0.23563 0.0
H761 H 0.99496 0.31739 0.28863 0.0
H762 H 0.96457 0.32562 0.368 0.0
H763 H 0.99047 0.40436 0.3572 0.0
C764 C 0.06495 0.3857 0.1815 0.0
C765 C 0.07279 0.36615 0.14755 0.0
C766 C 0.05704 0.34181 0.15679 0.0
C767 C 0.03577 0.33678 0.19921 0.0
C768 C 0.02952 0.35631 0.23227 0.0
C769 C 0.04271 0.38038 0.22359 0.0
C770 C 0.03046 0.39806 0.26464 0.0
C771 C 0.08019 0.41106 0.28542 0.0
C772 C 0.98885 0.41701 0.25049 0.0
C773 C 1.00925 0.38018 0.29793 0.0
C774 C 1.00956 0.35612 0.27873 0.0
C775 C 0.99392 0.33623 0.30362 0.0
C776 C 0.97688 0.34105 0.34883 0.0
C777 C 0.97447 0.36563 0.36868 0.0
C778 C 0.99111 0.3854 0.34274 0.0
H779 H 1.01185 0.60943 0.15742 0.0
H780 H 0.96352 0.6859 0.14607 0.0
H781 H 0.99853 0.69615 0.22576 0.0
H782 H 0.98462 0.6004 0.26979 0.0
H783 H 0.04326 0.58406 0.2863 0.0
H784 H 1.02068 0.5833 0.22647 0.0
H785 H 0.11012 0.59991 0.20464 0.0
H786 H 0.13266 0.60095 0.26479 0.0
H787 H 0.13519 0.62844 0.23257 0.0
H788 H 0.03195 0.698 0.30676 0.0
H789 H 0.05072 0.69037 0.38867 0.0
H790 H 0.0766 0.61247 0.35216 0.0
C791 C 1.00929 0.62835 0.17177 0.0
C792 C 0.98481 0.64693 0.14564 0.0
C793 C 0.98244 0.67149 0.16526 0.0
C794 C 1.0025 0.6775 0.21044 0.0
C795 C 0.02649 0.65894 0.23531 0.0
C796 C 0.03048 0.63486 0.2168 0.0
C797 C 0.05677 0.6185 0.2523 0.0
C798 C 1.02431 0.59521 0.25914 0.0
C799 C 0.11193 0.61152 0.23771 0.0
C800 C 0.0598 0.63631 0.2953 0.0
C801 C 0.04526 0.6599 0.28348 0.0
C802 C 0.04395 0.67971 0.31635 0.0
C803 C 0.05507 0.67521 0.36286 0.0
C804 C 0.06578 0.65098 0.37675 0.0
C805 C 0.06993 0.63131 0.34238 0.0
H806 H 1.00795 0.60826 0.85466 0.0
H807 H 0.95418 0.68383 0.87494 0.0
H808 H 0.96817 0.69077 0.79274 0.0
H809 H 0.10758 0.61834 0.78988 0.0
H810 H 0.10082 0.59187 0.749 0.0
H811 H 0.0752 0.59061 0.8055 0.0
H812 H 0.98321 0.57994 0.76938 0.0
H813 H 1.00875 0.58029 0.71243 0.0
H814 H 0.9539 0.59951 0.72701 0.0
H815 H 1.00391 0.69159 0.71235 0.0
H816 H 0.04918 0.68492 0.63908 0.0
H817 H 0.07934 0.60854 0.67034 0.0
C818 C 0.99592 0.6257 0.84088 0.0
C819 C 0.97806 0.64522 0.87073 0.0
C820 C 0.96576 0.66833 0.85221 0.0
C821 C 0.97427 0.67252 0.80561 0.0
C822 C 0.99446 0.65325 0.77756 0.0
C823 C 1.00358 0.63003 0.79413 0.0
C824 C 0.02893 0.61307 0.75797 0.0
C825 C 0.08123 0.6029 0.77674 0.0
C826 C 0.99148 0.59194 0.74068 0.0
C827 C 0.03655 0.63083 0.72007 0.0
C828 C 1.01536 0.65379 0.73154 0.0
C829 C 1.01967 0.67351 0.70279 0.0
C830 C 0.04575 0.66958 0.66127 0.0
C831 C 0.06793 0.6462 0.64888 0.0
C832 C 0.06282 0.6266 0.67875 0.0
H833 H 1.01294 0.40155 0.66219 0.0
H834 H 0.956 0.32636 0.63421 0.0
H835 H 0.97638 0.31741 0.71564 0.0
H836 H 0.11594 0.38976 0.73629 0.0
H837 H 0.109 0.41537 0.77842 0.0
H838 H 0.0846 0.41796 0.71947 0.0
H839 H 0.9918 0.42806 0.74608 0.0
H840 H 1.01674 0.42711 0.80522 0.0
H841 H 0.96178 0.40804 0.78489 0.0
H842 H 1.02139 0.31373 0.79199 0.0
H843 H 0.05058 0.31957 0.87402 0.0
H844 H 0.06629 0.39871 0.85983 0.0
C845 C 1.00191 0.38373 0.67408 0.0
C846 C 0.98229 0.36464 0.6423 0.0
C847 C 0.96998 0.34126 0.65839 0.0
C848 C 0.98243 0.33589 0.70429 0.0
C849 C 1.00572 0.3544 0.73385 0.0
C850 C 1.01235 0.3783 0.72057 0.0
C851 C 0.03683 0.39471 0.76046 0.0
C852 C 0.08973 0.40506 0.74788 0.0
C853 C 0.99955 0.41572 0.77504 0.0
C854 C 0.04371 0.37606 0.79769 0.0
C855 C 0.0274 0.35277 0.78048 0.0
C856 C 0.0327 0.332 0.80643 0.0
C857 C 0.05028 0.33545 0.85274 0.0
C858 C 0.06038 0.35954 0.87316 0.0
C859 C 0.05949 0.38006 0.84488 0.0
H860 H 0.54263 0.83886 0.15179 0.0
H861 H 0.61016 0.91291 0.16851 0.0
H862 H 0.58547 0.91647 0.24879 0.0
H863 H 0.43152 0.85283 0.22281 0.0
H864 H 0.43153 0.82358 0.24981 0.0
H865 H 0.45592 0.82534 0.19275 0.0
H866 H 0.54301 0.80634 0.22151 0.0
H867 H 0.51911 0.80485 0.27887 0.0
H868 H 0.57899 0.82104 0.2707 0.0
H869 H 0.55651 0.91364 0.32602 0.0
H870 H 0.51305 0.90615 0.39738 0.0
H871 H 0.45786 0.83478 0.33778 0.0
C872 C 0.55232 0.8557 0.17259 0.0
C873 C 0.57931 0.87552 0.15342 0.0
C874 C 0.59034 0.89733 0.18184 0.0
C875 C 0.57652 0.89959 0.2279 0.0
C876 C 0.55107 0.87994 0.246 0.0
C877 C 0.53817 0.85846 0.21961 0.0
C878 C 0.50844 0.84093 0.24893 0.0
C879 C 0.45359 0.83535 0.22727 0.0
C880 C 0.53922 0.81686 0.25537 0.0
C881 C 0.50604 0.8564 0.29501 0.0
C882 C 0.53203 0.87859 0.29205 0.0
C883 C 0.53569 0.89641 0.32878 0.0
C884 C 0.5106 0.89204 0.36926 0.0
C885 C 0.48145 0.87015 0.37324 0.0
C886 C 0.48019 0.85166 0.33593 0.0
H887 H 0.50289 0.17508 0.15968 0.0
H888 H 0.44558 0.09914 0.14844 0.0
H889 H 0.48384 0.09217 0.22529 0.0
H890 H 0.62468 0.16224 0.23146 0.0
H891 H 0.62043 0.19013 0.26847 0.0
H892 H 0.59491 0.18963 0.20922 0.0
H893 H 0.50473 0.20368 0.23676 0.0
H894 H 0.53054 0.20478 0.29578 0.0
H895 H 0.47346 0.18635 0.27912 0.0
H896 H 0.52595 0.09201 0.30319 0.0
H897 H 0.55193 0.10204 0.3853 0.0
H898 H 0.57526 0.17875 0.35518 0.0
C899 C 0.49896 0.15696 0.17332 0.0
C900 C 0.47193 0.13745 0.1467 0.0
C901 C 0.46688 0.11428 0.16681 0.0
C902 C 0.48875 0.11001 0.21081 0.0
C903 C 0.51557 0.12913 0.23577 0.0
C904 C 0.51994 0.15241 0.21859 0.0
C905 C 0.54655 0.17011 0.2558 0.0
C906 C 0.59979 0.17853 0.24029 0.0
C907 C 0.51171 0.19255 0.26756 0.0
C908 C 0.55348 0.15334 0.2966 0.0
C909 C 0.53746 0.12951 0.28317 0.0
C910 C 0.53908 0.11057 0.31413 0.0
C911 C 0.55473 0.11632 0.36073 0.0
C912 C 0.56706 0.14093 0.37662 0.0
C913 C 0.56783 0.15956 0.34373 0.0
H914 H 0.46161 0.17812 0.84512 0.0
H915 H 0.52027 0.10757 0.88969 0.0
H916 H 0.55341 0.09805 0.81225 0.0
H917 H 0.42309 0.15201 0.72275 0.0
H918 H 0.43882 0.18057 0.69725 0.0
H919 H 0.41548 0.18123 0.75513 0.0
H920 H 0.49696 0.20609 0.7858 0.0
H921 H 0.52118 0.20535 0.72839 0.0
H922 H 0.56083 0.19373 0.77547 0.0
H923 H 0.58985 0.09816 0.73591 0.0
H924 H 0.62142 0.10497 0.65969 0.0
H925 H 0.53617 0.17447 0.65621 0.0
C926 C 0.48029 0.16042 0.83796 0.0
C927 C 0.48812 0.14348 0.87349 0.0
C928 C 0.51309 0.12063 0.86306 0.0
C929 C 0.53231 0.11512 0.81911 0.0
C930 C 0.52497 0.13228 0.78518 0.0
C931 C 0.49844 0.15419 0.79336 0.0
C932 C 0.49652 0.16918 0.74999 0.0
C933 C 0.44013 0.17086 0.7301 0.0
C934 C 0.52033 0.19513 0.76056 0.0
C935 C 0.52964 0.15309 0.71745 0.0
C936 C 0.54466 0.1318 0.73893 0.0
C937 C 0.57737 0.11444 0.71831 0.0
C938 C 0.59532 0.11864 0.67468 0.0
C939 C 0.58118 0.14011 0.65095 0.0
C940 C 0.54711 0.15761 0.67265 0.0
H941 H 0.47062 0.83132 0.66268 0.0
H942 H 0.51239 0.90622 0.63262 0.0
H943 H 0.54699 0.91398 0.71388 0.0
H944 H 0.42925 0.84642 0.77957 0.0
H945 H 0.45361 0.81748 0.79985 0.0
H946 H 0.43176 0.81935 0.74015 0.0
H947 H 0.52171 0.80242 0.71615 0.0
H948 H 0.54465 0.80184 0.7759 0.0
H949 H 0.58013 0.81905 0.7361 0.0
H950 H 0.58074 0.91228 0.79996 0.0
H951 H 0.59359 0.90391 0.88351 0.0
H952 H 0.52826 0.83043 0.85433 0.0
C953 C 0.48614 0.84952 0.67347 0.0
C954 C 0.48857 0.86821 0.64157 0.0
C955 C 0.50946 0.89175 0.65678 0.0
C956 C 0.52988 0.89618 0.70268 0.0
C957 C 0.52869 0.87694 0.7329 0.0
C958 C 0.50611 0.85428 0.71896 0.0
C959 C 0.50774 0.83678 0.75789 0.0
C960 C 0.45231 0.8296 0.77008 0.0
C961 C 0.54052 0.81366 0.74577 0.0
C962 C 0.53433 0.85309 0.79625 0.0
C963 C 0.54714 0.87607 0.78134 0.0
C964 C 0.57069 0.89433 0.81184 0.0
C965 C 0.57842 0.88939 0.8591 0.0
C966 C 0.56192 0.86654 0.87507 0.0
C967 C 0.54147 0.84801 0.84286 0.0
loop_
_geom_bond_atom_site_label_1
_geom_bond_atom_site_label_2
_geom_bond_distance
_geom_bond_site_symmetry_2
_ccdc_geom_bond_type
Nd0 C2 2.836 . S
Nd0 O20 2.500 1_554 S
Nd0 O21 2.492 . S
Nd0 O22 2.487 . S
Nd0 O23 2.682 . S
Nd0 O24 2.410 . S
Nd0 O29 2.414 1_554 S
Nd0 O31 2.424 . S
Nd1 C11 2.836 . S
Nd1 O23 2.414 1_656 S
Nd1 O25 2.424 1_655 S
Nd1 O26 2.500 1_556 S
Nd1 O27 2.492 . S
Nd1 O28 2.487 1_655 S
Nd1 O29 2.682 1_655 S
Nd1 O30 2.410 . S
C2 Nd0 2.836 . S
C2 C3 1.498 . S
C2 O20 1.258 1_554 S
C2 O21 1.239 . S
C3 C2 1.498 . S
C3 C4 1.366 1_554 S
C3 C8 1.407 . S
C4 C3 1.366 1_556 S
C4 C5 1.392 . S
C4 H32 0.930 . S
C5 C4 1.392 . S
C5 C6 1.398 . S
C5 H33 0.929 . S
C6 C5 1.398 . S
C6 C7 1.352 1_556 S
C7 C6 1.352 1_554 S
C7 C8 1.384 . S
C7 H34 0.930 . S
C8 C3 1.407 . S
C8 C7 1.384 . S
C8 H35 0.929 . S
C9 O22 1.241 . S
C9 O23 1.273 . S
C10 O24 1.251 1_556 S
C10 O25 1.268 . S
C11 Nd1 2.836 . S
C11 C12 1.498 . S
C11 O26 1.258 1_556 S
C11 O27 1.239 . S
C12 C11 1.498 . S
C12 C13 1.366 1_556 S
C12 C17 1.407 . S
C13 C12 1.366 1_554 S
C13 C14 1.392 . S
C13 H36 0.930 . S
C14 C13 1.392 . S
C14 C15 1.398 . S
C14 H37 0.929 . S
C15 C14 1.398 . S
C15 C16 1.352 1_554 S
C16 C15 1.352 1_556 S
C16 C17 1.384 . S
C16 H38 0.930 . S
C17 C12 1.407 . S
C17 C16 1.384 . S
C17 H39 0.929 . S
C18 O28 1.241 . S
C18 O29 1.273 . S
C19 O30 1.251 1_454 S
C19 O31 1.268 . S
O20 Nd0 2.500 1_556 S
O20 C2 1.258 1_556 S
O21 Nd0 2.492 . S
O21 C2 1.239 . S
O22 Nd0 2.487 . S
O22 C9 1.241 . S
O23 Nd0 2.682 . S
O23 Nd1 2.414 1_454 S
O23 C9 1.273 . S
O24 Nd0 2.410 . S
O24 C10 1.251 1_554 S
O25 Nd1 2.424 1_455 S
O25 C10 1.268 . S
O26 Nd1 2.500 1_554 S
O26 C11 1.258 1_554 S
O27 Nd1 2.492 . S
O27 C11 1.239 . S
O28 Nd1 2.487 1_455 S
O28 C18 1.241 . S
O29 Nd0 2.414 1_556 S
O29 Nd1 2.682 1_455 S
O29 C18 1.273 . S
O30 Nd1 2.410 . S
O30 C19 1.251 1_656 S
O31 Nd0 2.424 . S
O31 C19 1.268 . S
H32 C4 0.930 . S
H33 C5 0.929 . S
H34 C7 0.930 . S
H35 C8 0.929 . S
H36 C13 0.930 . S
H37 C14 0.929 . S
H38 C16 0.930 . S
H39 C17 0.929 . S
Nd40 C42 2.836 1_554 S
Nd40 O60 2.500 1_554 S
Nd40 O61 2.492 . S
Nd40 O62 2.487 . S
Nd40 O63 2.682 . S
Nd40 O64 2.410 . S
Nd40 O69 2.414 1_554 S
Nd40 O71 2.424 . S
Nd41 C51 2.836 1_556 S
Nd41 O63 2.414 1_456 S
Nd41 O65 2.424 1_455 S
Nd41 O66 2.500 1_556 S
Nd41 O67 2.492 . S
Nd41 O68 2.487 1_455 S
Nd41 O69 2.682 1_455 S
Nd41 O70 2.410 . S
C42 Nd40 2.836 1_556 S
C42 C43 1.498 . S
C42 O60 1.258 . S
C42 O61 1.239 1_556 S
C43 C42 1.498 . S
C43 C44 1.366 . S
C43 C48 1.407 1_556 S
C44 C43 1.366 . S
C44 C45 1.392 . S
C44 H72 0.930 . S
C45 C44 1.392 . S
C45 C46 1.398 . S
C45 H73 0.929 . S
C46 C45 1.398 . S
C46 C47 1.352 1_556 S
C47 C46 1.352 1_554 S
C47 C48 1.384 . S
C47 H74 0.930 . S
C48 C43 1.407 1_554 S
C48 C47 1.384 . S
C48 H75 0.929 . S
C49 O62 1.241 . S
C49 O63 1.273 . S
C50 O64 1.251 . S
C50 O65 1.268 1_554 S
C51 Nd41 2.836 1_554 S
C51 C52 1.498 . S
C51 O66 1.258 . S
C51 O67 1.239 1_554 S
C52 C51 1.498 . S
C52 C53 1.366 . S
C52 C57 1.407 1_554 S
C53 C52 1.366 . S
C53 C54 1.392 . S
C53 H76 0.930 . S
C54 C53 1.392 . S
C54 C55 1.398 . S
C54 H77 0.929 . S
C55 C54 1.398 . S
C55 C56 1.352 1_554 S
C56 C55 1.352 1_556 S
C56 C57 1.384 . S
C56 H78 0.930 . S
C57 C52 1.407 1_556 S
C57 C56 1.384 . S
C57 H79 0.929 . S
C58 O68 1.241 . S
C58 O69 1.273 . S
C59 O70 1.253 1_655 S
C59 O71 1.267 1_556 S
O60 Nd40 2.500 1_556 S
O60 C42 1.258 . S
O61 Nd40 2.492 . S
O61 C42 1.239 1_554 S
O62 Nd40 2.487 . S
O62 C49 1.241 . S
O63 Nd40 2.682 . S
O63 Nd41 2.414 1_654 S
O63 C49 1.273 . S
O64 Nd40 2.410 . S
O64 C50 1.251 . S
O65 Nd41 2.424 1_655 S
O65 C50 1.268 1_556 S
O66 Nd41 2.500 1_554 S
O66 C51 1.258 . S
O67 Nd41 2.492 . S
O67 C51 1.239 1_556 S
O68 Nd41 2.487 1_655 S
O68 C58 1.241 . S
O69 Nd40 2.414 1_556 S
O69 Nd41 2.682 1_655 S
O69 C58 1.273 . S
O70 Nd41 2.410 . S
O70 C59 1.253 1_455 S
O71 Nd40 2.424 . S
O71 C59 1.267 1_554 S
H72 C44 0.930 . S
H73 C45 0.929 . S
H74 C47 0.930 . S
H75 C48 0.929 . S
H76 C53 0.930 . S
H77 C54 0.929 . S
H78 C56 0.930 . S
H79 C57 0.929 . S
Nd80 C82 2.836 . S
Nd80 O100 2.500 . S
Nd80 O101 2.492 . S
Nd80 O102 2.487 1_655 S
Nd80 O103 2.682 1_655 S
Nd80 O104 2.410 . S
Nd80 O109 2.414 1_655 S
Nd80 O111 2.424 1_655 S
Nd81 C91 2.836 . S
Nd81 O103 2.414 . S
Nd81 O105 2.424 . S
Nd81 O106 2.500 . S
Nd81 O107 2.492 . S
Nd81 O108 2.487 . S
Nd81 O109 2.682 . S
Nd81 O110 2.410 . S
C82 Nd80 2.836 . S
C82 C83 1.498 . S
C82 O100 1.258 . S
C82 O101 1.239 . S
C83 C82 1.498 . S
C83 C84 1.366 . S
C83 C88 1.407 . S
C84 C83 1.366 . S
C84 C85 1.392 . S
C84 H112 0.930 . S
C85 C84 1.392 . S
C85 C86 1.398 . S
C85 H113 0.929 . S
C86 C85 1.398 . S
C86 C87 1.352 . S
C87 C86 1.352 . S
C87 C88 1.384 . S
C87 H114 0.930 . S
C88 C83 1.407 . S
C88 C87 1.384 . S
C88 H115 0.929 . S
C89 O102 1.241 . S
C89 O103 1.273 . S
C90 O104 1.251 1_455 S
C90 O105 1.268 . S
C91 Nd81 2.836 . S
C91 C92 1.498 . S
C91 O106 1.258 . S
C91 O107 1.239 . S
C92 C91 1.498 . S
C92 C93 1.366 . S
C92 C97 1.407 . S
C93 C92 1.366 . S
C93 C94 1.392 . S
C93 H116 0.930 . S
C94 C93 1.392 . S
C94 C95 1.398 . S
C94 H117 0.929 . S
C95 C94 1.398 . S
C95 C96 1.352 . S
C96 C95 1.352 . S
C96 C97 1.384 . S
C96 H118 0.930 . S
C97 C92 1.407 . S
C97 C96 1.384 . S
C97 H119 0.929 . S
C98 O108 1.241 . S
C98 O109 1.273 . S
C99 O110 1.251 . S
C99 O111 1.268 . S
O100 Nd80 2.500 . S
O100 C82 1.258 . S
O101 Nd80 2.492 . S
O101 C82 1.239 . S
O102 Nd80 2.487 1_455 S
O102 C89 1.241 . S
O103 Nd80 2.682 1_455 S
O103 Nd81 2.414 . S
O103 C89 1.273 . S
O104 Nd80 2.410 . S
O104 C90 1.251 1_655 S
O105 Nd81 2.424 . S
O105 C90 1.268 . S
O106 Nd81 2.500 . S
O106 C91 1.258 . S
O107 Nd81 2.492 . S
O107 C91 1.239 . S
O108 Nd81 2.487 . S
O108 C98 1.241 . S
O109 Nd80 2.414 1_455 S
O109 Nd81 2.682 . S
O109 C98 1.273 . S
O110 Nd81 2.410 . S
O110 C99 1.251 . S
O111 Nd80 2.424 1_455 S
O111 C99 1.268 . S
H112 C84 0.930 . S
H113 C85 0.929 . S
H114 C87 0.930 . S
H115 C88 0.929 . S
H116 C93 0.930 . S
H117 C94 0.929 . S
H118 C96 0.930 . S
H119 C97 0.929 . S
Nd120 C122 2.836 . S
Nd120 O140 2.500 . S
Nd120 O141 2.492 . S
Nd120 O142 2.487 . S
Nd120 O143 2.682 . S
Nd120 O144 2.410 . S
Nd120 O149 2.414 . S
Nd120 O151 2.424 . S
Nd121 C131 2.836 . S
Nd121 O143 2.414 1_455 S
Nd121 O145 2.424 1_455 S
Nd121 O146 2.500 . S
Nd121 O147 2.492 . S
Nd121 O148 2.487 1_455 S
Nd121 O149 2.682 1_455 S
Nd121 O150 2.410 . S
C122 Nd120 2.836 . S
C122 C123 1.498 . S
C122 O140 1.258 . S
C122 O141 1.239 . S
C123 C122 1.498 . S
C123 C124 1.366 . S
C123 C128 1.407 . S
C124 C123 1.366 . S
C124 C125 1.392 . S
C124 H152 0.930 . S
C125 C124 1.392 . S
C125 C126 1.398 . S
C125 H153 0.929 . S
C126 C125 1.398 . S
C126 C127 1.352 . S
C127 C126 1.352 . S
C127 C128 1.384 . S
C127 H154 0.930 . S
C128 C123 1.407 . S
C128 C127 1.384 . S
C128 H155 0.929 . S
C129 O142 1.241 . S
C129 O143 1.273 . S
C130 O144 1.251 . S
C130 O145 1.268 . S
C131 Nd121 2.836 . S
C131 C132 1.498 . S
C131 O146 1.258 . S
C131 O147 1.239 . S
C132 C131 1.498 . S
C132 C133 1.366 . S
C132 C137 1.407 . S
C133 C132 1.366 . S
C133 C134 1.392 . S
C133 H156 0.930 . S
C134 C133 1.392 . S
C134 C135 1.398 . S
C134 H157 0.929 . S
C135 C134 1.398 . S
C135 C136 1.352 . S
C136 C135 1.352 . S
C136 C137 1.384 . S
C136 H158 0.930 . S
C137 C132 1.407 . S
C137 C136 1.384 . S
C137 H159 0.929 . S
C138 O148 1.241 . S
C138 O149 1.273 . S
C139 O150 1.251 1_655 S
C139 O151 1.268 . S
O140 Nd120 2.500 . S
O140 C122 1.258 . S
O141 Nd120 2.492 . S
O141 C122 1.239 . S
O142 Nd120 2.487 . S
O142 C129 1.241 . S
O143 Nd120 2.682 . S
O143 Nd121 2.414 1_655 S
O143 C129 1.273 . S
O144 Nd120 2.410 . S
O144 C130 1.251 . S
O145 Nd121 2.424 1_655 S
O145 C130 1.268 . S
O146 Nd121 2.500 . S
O146 C131 1.258 . S
O147 Nd121 2.492 . S
O147 C131 1.239 . S
O148 Nd121 2.487 1_655 S
O148 C138 1.241 . S
O149 Nd120 2.414 . S
O149 Nd121 2.682 1_655 S
O149 C138 1.273 . S
O150 Nd121 2.410 . S
O150 C139 1.251 1_455 S
O151 Nd120 2.424 . S
O151 C139 1.268 . S
H152 C124 0.930 . S
H153 C125 0.929 . S
H154 C127 0.930 . S
H155 C128 0.929 . S
H156 C133 0.930 . S
H157 C134 0.929 . S
H158 C136 0.930 . S
H159 C137 0.929 . S
Nd160 C162 2.836 . S
Nd160 O180 2.500 1_554 S
Nd160 O181 2.492 . S
Nd160 O182 2.487 . S
Nd160 O183 2.682 . S
Nd160 O184 2.410 . S
Nd160 O189 2.414 1_554 S
Nd160 O191 2.424 . S
Nd161 C171 2.836 . S
Nd161 O183 2.414 1_556 S
Nd161 O185 2.424 . S
Nd161 O186 2.500 1_556 S
Nd161 O187 2.492 . S
Nd161 O188 2.487 . S
Nd161 O189 2.682 . S
Nd161 O190 2.410 . S
C162 Nd160 2.836 . S
C162 C163 1.498 . S
C162 O180 1.258 1_554 S
C162 O181 1.239 . S
C163 C162 1.498 . S
C163 C164 1.366 1_554 S
C163 C168 1.407 . S
C164 C163 1.366 1_556 S
C164 C165 1.392 . S
C164 H192 0.930 . S
C165 C164 1.392 . S
C165 C166 1.398 . S
C165 H193 0.929 . S
C166 C165 1.398 . S
C166 C167 1.352 1_556 S
C167 C166 1.352 1_554 S
C167 C168 1.384 . S
C167 H194 0.930 . S
C168 C163 1.407 . S
C168 C167 1.384 . S
C168 H195 0.929 . S
C169 O182 1.241 . S
C169 O183 1.273 . S
C170 O184 1.251 1_556 S
C170 O185 1.268 . S
C171 Nd161 2.836 . S
C171 C172 1.498 . S
C171 O186 1.258 1_556 S
C171 O187 1.239 . S
C172 C171 1.498 . S
C172 C173 1.366 1_556 S
C172 C177 1.407 . S
C173 C172 1.366 1_554 S
C173 C174 1.392 . S
C173 H196 0.930 . S
C174 C173 1.392 . S
C174 C175 1.398 . S
C174 H197 0.929 . S
C175 C174 1.398 . S
C175 C176 1.352 1_554 S
C176 C175 1.352 1_556 S
C176 C177 1.384 . S
C176 H198 0.930 . S
C177 C172 1.407 . S
C177 C176 1.384 . S
C177 H199 0.929 . S
C178 O188 1.241 . S
C178 O189 1.273 . S
C179 O190 1.251 1_554 S
C179 O191 1.268 . S
O180 Nd160 2.500 1_556 S
O180 C162 1.258 1_556 S
O181 Nd160 2.492 . S
O181 C162 1.239 . S
O182 Nd160 2.487 . S
O182 C169 1.241 . S
O183 Nd160 2.682 . S
O183 Nd161 2.414 1_554 S
O183 C169 1.273 . S
O184 Nd160 2.410 . S
O184 C170 1.251 1_554 S
O185 Nd161 2.424 . S
O185 C170 1.268 . S
O186 Nd161 2.500 1_554 S
O186 C171 1.258 1_554 S
O187 Nd161 2.492 . S
O187 C171 1.239 . S
O188 Nd161 2.487 . S
O188 C178 1.241 . S
O189 Nd160 2.414 1_556 S
O189 Nd161 2.682 . S
O189 C178 1.273 . S
O190 Nd161 2.410 . S
O190 C179 1.251 1_556 S
O191 Nd160 2.424 . S
O191 C179 1.268 . S
H192 C164 0.930 . S
H193 C165 0.929 . S
H194 C167 0.930 . S
H195 C168 0.929 . S
H196 C173 0.930 . S
H197 C174 0.929 . S
H198 C176 0.930 . S
H199 C177 0.929 . S
Nd200 C202 2.836 1_554 S
Nd200 O220 2.500 1_554 S
Nd200 O221 2.492 . S
Nd200 O222 2.487 . S
Nd200 O223 2.682 . S
Nd200 O224 2.410 . S
Nd200 O229 2.414 1_554 S
Nd200 O231 2.424 . S
Nd201 C211 2.836 1_556 S
Nd201 O223 2.414 1_556 S
Nd201 O225 2.424 . S
Nd201 O226 2.500 1_556 S
Nd201 O227 2.492 . S
Nd201 O228 2.487 . S
Nd201 O229 2.682 . S
Nd201 O230 2.410 . S
C202 Nd200 2.836 1_556 S
C202 C203 1.498 . S
C202 O220 1.258 . S
C202 O221 1.239 1_556 S
C203 C202 1.498 . S
C203 C204 1.366 . S
C203 C208 1.407 1_556 S
C204 C203 1.366 . S
C204 C205 1.392 . S
C204 H232 0.930 . S
C205 C204 1.392 . S
C205 C206 1.398 . S
C205 H233 0.929 . S
C206 C205 1.398 . S
C206 C207 1.352 1_556 S
C207 C206 1.352 1_554 S
C207 C208 1.384 . S
C207 H234 0.930 . S
C208 C203 1.407 1_554 S
C208 C207 1.384 . S
C208 H235 0.929 . S
C209 O222 1.241 . S
C209 O223 1.273 . S
C210 O224 1.251 . S
C210 O225 1.268 1_554 S
C211 Nd201 2.836 1_554 S
C211 C212 1.498 . S
C211 O226 1.258 . S
C211 O227 1.239 1_554 S
C212 C211 1.498 . S
C212 C213 1.366 . S
C212 C217 1.407 1_554 S
C213 C212 1.366 . S
C213 C214 1.392 . S
C213 H236 0.930 . S
C214 C213 1.392 . S
C214 C215 1.398 . S
C214 H237 0.929 . S
C215 C214 1.398 . S
C215 C216 1.352 1_554 S
C216 C215 1.352 1_556 S
C216 C217 1.384 . S
C216 H238 0.930 . S
C217 C212 1.407 1_556 S
C217 C216 1.384 . S
C217 H239 0.929 . S
C218 O228 1.241 . S
C218 O229 1.273 . S
C219 O230 1.253 . S
C219 O231 1.267 1_556 S
O220 Nd200 2.500 1_556 S
O220 C202 1.258 . S
O221 Nd200 2.492 . S
O221 C202 1.239 1_554 S
O222 Nd200 2.487 . S
O222 C209 1.241 . S
O223 Nd200 2.682 . S
O223 Nd201 2.414 1_554 S
O223 C209 1.273 . S
O224 Nd200 2.410 . S
O224 C210 1.251 . S
O225 Nd201 2.424 . S
O225 C210 1.268 1_556 S
O226 Nd201 2.500 1_554 S
O226 C211 1.258 . S
O227 Nd201 2.492 . S
O227 C211 1.239 1_556 S
O228 Nd201 2.487 . S
O228 C218 1.241 . S
O229 Nd200 2.414 1_556 S
O229 Nd201 2.682 . S
O229 C218 1.273 . S
O230 Nd201 2.410 . S
O230 C219 1.253 . S
O231 Nd200 2.424 . S
O231 C219 1.267 1_554 S
H232 C204 0.930 . S
H233 C205 0.929 . S
H234 C207 0.930 . S
H235 C208 0.929 . S
H236 C213 0.930 . S
H237 C214 0.929 . S
H238 C216 0.930 . S
H239 C217 0.929 . S
Nd240 C242 2.836 . S
Nd240 O260 2.500 . S
Nd240 O261 2.492 . S
Nd240 O262 2.487 . S
Nd240 O263 2.682 . S
Nd240 O264 2.410 . S
Nd240 O269 2.414 . S
Nd240 O271 2.424 . S
Nd241 C251 2.836 . S
Nd241 O263 2.414 . S
Nd241 O265 2.424 . S
Nd241 O266 2.500 . S
Nd241 O267 2.492 . S
Nd241 O268 2.487 . S
Nd241 O269 2.682 . S
Nd241 O270 2.410 . S
C242 Nd240 2.836 . S
C242 C243 1.498 . S
C242 O260 1.258 . S
C242 O261 1.239 . S
C243 C242 1.498 . S
C243 C244 1.366 . S
C243 C248 1.407 . S
C244 C243 1.366 . S
C244 C245 1.392 . S
C244 H272 0.930 . S
C245 C244 1.392 . S
C245 C246 1.398 . S
C245 H273 0.929 . S
C246 C245 1.398 . S
C246 C247 1.352 . S
C247 C246 1.352 . S
C247 C248 1.384 . S
C247 H274 0.930 . S
C248 C243 1.407 . S
C248 C247 1.384 . S
C248 H275 0.929 . S
C249 O262 1.241 . S
C249 O263 1.273 . S
C250 O264 1.251 . S
C250 O265 1.268 . S
C251 Nd241 2.836 . S
C251 C252 1.498 . S
C251 O266 1.258 . S
C251 O267 1.239 . S
C252 C251 1.498 . S
C252 C253 1.366 . S
C252 C257 1.407 . S
C253 C252 1.366 . S
C253 C254 1.392 . S
C253 H276 0.930 . S
C254 C253 1.392 . S
C254 C255 1.398 . S
C254 H277 0.929 . S
C255 C254 1.398 . S
C255 C256 1.352 . S
C256 C255 1.352 . S
C256 C257 1.384 . S
C256 H278 0.930 . S
C257 C252 1.407 . S
C257 C256 1.384 . S
C257 H279 0.929 . S
C258 O268 1.241 . S
C258 O269 1.273 . S
C259 O270 1.251 . S
C259 O271 1.268 . S
O260 Nd240 2.500 . S
O260 C242 1.258 . S
O261 Nd240 2.492 . S
O261 C242 1.239 . S
O262 Nd240 2.487 . S
O262 C249 1.241 . S
O263 Nd240 2.682 . S
O263 Nd241 2.414 . S
O263 C249 1.273 . S
O264 Nd240 2.410 . S
O264 C250 1.251 . S
O265 Nd241 2.424 . S
O265 C250 1.268 . S
O266 Nd241 2.500 . S
O266 C251 1.258 . S
O267 Nd241 2.492 . S
O267 C251 1.239 . S
O268 Nd241 2.487 . S
O268 C258 1.241 . S
O269 Nd240 2.414 . S
O269 Nd241 2.682 . S
O269 C258 1.273 . S
O270 Nd241 2.410 . S
O270 C259 1.251 . S
O271 Nd240 2.424 . S
O271 C259 1.268 . S
H272 C244 0.930 . S
H273 C245 0.929 . S
H274 C247 0.930 . S
H275 C248 0.929 . S
H276 C253 0.930 . S
H277 C254 0.929 . S
H278 C256 0.930 . S
H279 C257 0.929 . S
Nd280 C282 2.836 . S
Nd280 O300 2.500 . S
Nd280 O301 2.492 . S
Nd280 O302 2.487 . S
Nd280 O303 2.682 . S
Nd280 O304 2.410 . S
Nd280 O309 2.414 . S
Nd280 O311 2.424 . S
Nd281 C291 2.836 . S
Nd281 O303 2.414 . S
Nd281 O305 2.424 . S
Nd281 O306 2.500 . S
Nd281 O307 2.492 . S
Nd281 O308 2.487 . S
Nd281 O309 2.682 . S
Nd281 O310 2.410 . S
C282 Nd280 2.836 . S
C282 C283 1.498 . S
C282 O300 1.258 . S
C282 O301 1.239 . S
C283 C282 1.498 . S
C283 C284 1.366 . S
C283 C288 1.407 . S
C284 C283 1.366 . S
C284 C285 1.392 . S
C284 H312 0.930 . S
C285 C284 1.392 . S
C285 C286 1.398 . S
C285 H313 0.929 . S
C286 C285 1.398 . S
C286 C287 1.352 . S
C287 C286 1.352 . S
C287 C288 1.384 . S
C287 H314 0.930 . S
C288 C283 1.407 . S
C288 C287 1.384 . S
C288 H315 0.929 . S
C289 O302 1.241 . S
C289 O303 1.273 . S
C290 O304 1.251 . S
C290 O305 1.268 . S
C291 Nd281 2.836 . S
C291 C292 1.498 . S
C291 O306 1.258 . S
C291 O307 1.239 . S
C292 C291 1.498 . S
C292 C293 1.366 . S
C292 C297 1.407 . S
C293 C292 1.366 . S
C293 C294 1.392 . S
C293 H316 0.930 . S
C294 C293 1.392 . S
C294 C295 1.398 . S
C294 H317 0.929 . S
C295 C294 1.398 . S
C295 C296 1.352 . S
C296 C295 1.352 . S
C296 C297 1.384 . S
C296 H318 0.930 . S
C297 C292 1.407 . S
C297 C296 1.384 . S
C297 H319 0.929 . S
C298 O308 1.241 . S
C298 O309 1.273 . S
C299 O310 1.251 . S
C299 O311 1.268 . S
O300 Nd280 2.500 . S
O300 C282 1.258 . S
O301 Nd280 2.492 . S
O301 C282 1.239 . S
O302 Nd280 2.487 . S
O302 C289 1.241 . S
O303 Nd280 2.682 . S
O303 Nd281 2.414 . S
O303 C289 1.273 . S
O304 Nd280 2.410 . S
O304 C290 1.251 . S
O305 Nd281 2.424 . S
O305 C290 1.268 . S
O306 Nd281 2.500 . S
O306 C291 1.258 . S
O307 Nd281 2.492 . S
O307 C291 1.239 . S
O308 Nd281 2.487 . S
O308 C298 1.241 . S
O309 Nd280 2.414 . S
O309 Nd281 2.682 . S
O309 C298 1.273 . S
O310 Nd281 2.410 . S
O310 C299 1.251 . S
O311 Nd280 2.424 . S
O311 C299 1.268 . S
H312 C284 0.930 . S
H313 C285 0.929 . S
H314 C287 0.930 . S
H315 C288 0.929 . S
H316 C293 0.930 . S
H317 C294 0.929 . S
H318 C296 0.930 . S
H319 C297 0.929 . S
H320 C332 0.930 . S
H321 C334 0.930 . S
H322 C335 0.930 . S
H323 C339 0.959 . S
H324 C339 0.959 . S
H325 C339 0.961 . S
H326 C340 0.960 . S
H327 C340 0.961 . S
H328 C340 0.959 . S
H329 C343 0.929 . S
H330 C344 0.931 . S
H331 C346 0.930 . S
C332 H320 0.930 . S
C332 C333 1.399 1_556 S
C332 C337 1.399 . S
C333 C332 1.399 1_554 S
C333 C334 1.376 . S
C334 H321 0.930 . S
C334 C333 1.376 . S
C334 C335 1.388 . S
C335 H322 0.930 . S
C335 C334 1.388 . S
C335 C336 1.390 . S
C336 C335 1.390 . S
C336 C337 1.394 1_554 S
C336 C342 1.465 . S
C337 C332 1.399 . S
C337 C336 1.394 1_556 S
C337 C338 1.516 . S
C338 C337 1.516 . S
C338 C339 1.502 . S
C338 C340 1.561 . S
C338 C341 1.526 . S
C339 H323 0.959 . S
C339 H324 0.959 . S
C339 H325 0.961 . S
C339 C338 1.502 . S
C340 H326 0.960 . S
C340 H327 0.961 . S
C340 H328 0.959 . S
C340 C338 1.561 . S
C341 C338 1.526 . S
C341 C342 1.396 1_556 S
C341 C346 1.390 . S
C342 C336 1.465 . S
C342 C341 1.396 1_554 S
C342 C343 1.399 . S
C343 H329 0.929 . S
C343 C342 1.399 . S
C343 C344 1.385 . S
C344 H330 0.931 . S
C344 C343 1.385 . S
C344 C345 1.389 . S
C345 C344 1.389 . S
C345 C346 1.387 1_554 S
C346 H331 0.930 . S
C346 C341 1.390 . S
C346 C345 1.387 1_556 S
H347 C359 0.930 . S
H348 C361 0.930 1_556 S
H349 C362 0.930 . S
H350 C366 0.959 1_556 S
H351 C366 0.959 . S
H352 C366 0.961 . S
H353 C367 0.960 . S
H354 C367 0.961 . S
H355 C367 0.959 . S
H356 C370 0.929 . S
H357 C371 0.931 . S
H358 C373 0.930 . S
C359 H347 0.930 . S
C359 C360 1.399 . S
C359 C364 1.399 . S
C360 C359 1.399 . S
C360 C361 1.376 . S
C361 H348 0.930 1_554 S
C361 C360 1.376 . S
C361 C362 1.388 1_554 S
C362 H349 0.930 . S
C362 C361 1.388 1_556 S
C362 C363 1.390 1_556 S
C363 C362 1.390 1_554 S
C363 C364 1.394 . S
C363 C369 1.465 1_554 S
C364 C359 1.399 . S
C364 C363 1.394 . S
C364 C365 1.516 . S
C365 C364 1.516 . S
C365 C366 1.502 . S
C365 C367 1.561 . S
C365 C368 1.526 . S
C366 H350 0.959 1_554 S
C366 H351 0.959 . S
C366 H352 0.961 . S
C366 C365 1.502 . S
C367 H353 0.960 . S
C367 H354 0.961 . S
C367 H355 0.959 . S
C367 C365 1.561 . S
C368 C365 1.526 . S
C368 C369 1.396 1_554 S
C368 C373 1.390 . S
C369 C363 1.465 1_556 S
C369 C368 1.396 1_556 S
C369 C370 1.399 . S
C370 H356 0.929 . S
C370 C369 1.399 . S
C370 C371 1.385 . S
C371 H357 0.931 . S
C371 C370 1.385 . S
C371 C372 1.389 . S
C372 C371 1.389 . S
C372 C373 1.387 1_556 S
C373 H358 0.930 . S
C373 C368 1.390 . S
C373 C372 1.387 1_554 S
H374 C386 0.930 . S
H375 C388 0.930 . S
H376 C389 0.930 . S
H377 C393 0.959 . S
H378 C393 0.959 . S
H379 C393 0.961 . S
H380 C394 0.960 . S
H381 C394 0.961 . S
H382 C394 0.959 . S
H383 C397 0.929 . S
H384 C398 0.931 . S
H385 C400 0.930 . S
C386 H374 0.930 . S
C386 C387 1.399 . S
C386 C391 1.399 . S
C387 C386 1.399 . S
C387 C388 1.376 . S
C388 H375 0.930 . S
C388 C387 1.376 . S
C388 C389 1.388 . S
C389 H376 0.930 . S
C389 C388 1.388 . S
C389 C390 1.390 . S
C390 C389 1.390 . S
C390 C391 1.394 . S
C390 C396 1.465 . S
C391 C386 1.399 . S
C391 C390 1.394 . S
C391 C392 1.516 . S
C392 C391 1.516 . S
C392 C393 1.502 . S
C392 C394 1.561 . S
C392 C395 1.526 . S
C393 H377 0.959 . S
C393 H378 0.959 . S
C393 H379 0.961 . S
C393 C392 1.502 . S
C394 H380 0.960 . S
C394 H381 0.961 . S
C394 H382 0.959 . S
C394 C392 1.561 . S
C395 C392 1.526 . S
C395 C396 1.396 . S
C395 C400 1.390 . S
C396 C390 1.465 . S
C396 C395 1.396 . S
C396 C397 1.399 . S
C397 H383 0.929 . S
C397 C396 1.399 . S
C397 C398 1.385 . S
C398 H384 0.931 . S
C398 C397 1.385 . S
C398 C399 1.389 . S
C399 C398 1.389 . S
C399 C400 1.387 . S
C400 H385 0.930 . S
C400 C395 1.390 . S
C400 C399 1.387 . S
H401 C413 0.930 . S
H402 C415 0.930 . S
H403 C416 0.930 . S
H404 C420 0.959 . S
H405 C420 0.959 . S
H406 C420 0.961 . S
H407 C421 0.960 . S
H408 C421 0.961 . S
H409 C421 0.959 . S
H410 C424 0.929 . S
H411 C425 0.931 . S
H412 C427 0.930 . S
C413 H401 0.930 . S
C413 C414 1.399 . S
C413 C418 1.399 . S
C414 C413 1.399 . S
C414 C415 1.376 . S
C415 H402 0.930 . S
C415 C414 1.376 . S
C415 C416 1.388 . S
C416 H403 0.930 . S
C416 C415 1.388 . S
C416 C417 1.390 . S
C417 C416 1.390 . S
C417 C418 1.394 . S
C417 C423 1.465 . S
C418 C413 1.399 . S
C418 C417 1.394 . S
C418 C419 1.516 . S
C419 C418 1.516 . S
C419 C420 1.502 . S
C419 C421 1.561 . S
C419 C422 1.526 . S
C420 H404 0.959 . S
C420 H405 0.959 . S
C420 H406 0.961 . S
C420 C419 1.502 . S
C421 H407 0.960 . S
C421 H408 0.961 . S
C421 H409 0.959 . S
C421 C419 1.561 . S
C422 C419 1.526 . S
C422 C423 1.396 . S
C422 C427 1.390 . S
C423 C417 1.465 . S
C423 C422 1.396 . S
C423 C424 1.399 . S
C424 H410 0.929 . S
C424 C423 1.399 . S
C424 C425 1.385 . S
C425 H411 0.931 . S
C425 C424 1.385 . S
C425 C426 1.389 . S
C426 C425 1.389 . S
C426 C427 1.387 . S
C427 H412 0.930 . S
C427 C422 1.390 . S
C427 C426 1.387 . S
H428 C440 0.930 . S
H429 C442 0.930 . S
H430 C443 0.930 . S
H431 C447 0.959 . S
H432 C447 0.959 . S
H433 C447 0.961 . S
H434 C448 0.960 . S
H435 C448 0.961 . S
H436 C448 0.959 . S
H437 C451 0.929 . S
H438 C452 0.931 . S
H439 C454 0.930 . S
C440 H428 0.930 . S
C440 C441 1.399 1_554 S
C440 C445 1.399 1_655 S
C441 C440 1.399 1_556 S
C441 C442 1.377 . S
C442 H429 0.930 . S
C442 C441 1.377 . S
C442 C443 1.388 1_655 S
C443 H430 0.930 . S
C443 C442 1.388 1_455 S
C443 C444 1.390 1_556 S
C444 C443 1.390 1_554 S
C444 C445 1.394 . S
C444 C450 1.465 . S
C445 C440 1.399 1_455 S
C445 C444 1.394 . S
C445 C446 1.516 . S
C446 C445 1.516 . S
C446 C447 1.502 1_554 S
C446 C448 1.561 . S
C446 C449 1.526 . S
C447 H431 0.959 . S
C447 H432 0.959 . S
C447 H433 0.961 . S
C447 C446 1.502 1_556 S
C448 H434 0.960 . S
C448 H435 0.961 . S
C448 H436 0.959 . S
C448 C446 1.561 . S
C449 C446 1.526 . S
C449 C450 1.396 . S
C449 C454 1.390 . S
C450 C444 1.465 . S
C450 C449 1.396 . S
C450 C451 1.399 1_554 S
C451 H437 0.929 . S
C451 C450 1.399 1_556 S
C451 C452 1.385 . S
C452 H438 0.931 . S
C452 C451 1.385 . S
C452 C453 1.389 1_556 S
C453 C452 1.389 1_554 S
C453 C454 1.387 . S
C454 H439 0.930 . S
C454 C449 1.390 . S
C454 C453 1.387 . S
H455 C467 0.930 . S
H456 C469 0.930 . S
H457 C470 0.930 . S
H458 C474 0.959 . S
H459 C474 0.959 . S
H460 C474 0.961 . S
H461 C475 0.960 . S
H462 C475 0.961 . S
H463 C475 0.959 . S
H464 C478 0.929 . S
H465 C479 0.931 . S
H466 C481 0.930 . S
C467 H455 0.930 . S
C467 C468 1.399 . S
C467 C472 1.399 1_455 S
C468 C467 1.399 . S
C468 C469 1.376 1_556 S
C469 H456 0.930 . S
C469 C468 1.376 1_554 S
C469 C470 1.388 . S
C470 H457 0.930 . S
C470 C469 1.388 . S
C470 C471 1.390 1_455 S
C471 C470 1.390 1_655 S
C471 C472 1.394 1_554 S
C471 C477 1.465 . S
C472 C467 1.399 1_655 S
C472 C471 1.394 1_556 S
C472 C473 1.516 . S
C473 C472 1.516 . S
C473 C474 1.502 . S
C473 C475 1.561 . S
C473 C476 1.526 . S
C474 H458 0.959 . S
C474 H459 0.959 . S
C474 H460 0.961 . S
C474 C473 1.502 . S
C475 H461 0.960 . S
C475 H462 0.961 . S
C475 H463 0.959 . S
C475 C473 1.561 . S
C476 C473 1.526 . S
C476 C477 1.396 1_556 S
C476 C481 1.390 . S
C477 C471 1.465 . S
C477 C476 1.396 1_554 S
C477 C478 1.399 . S
C478 H464 0.929 . S
C478 C477 1.399 . S
C478 C479 1.385 . S
C479 H465 0.931 . S
C479 C478 1.385 . S
C479 C480 1.389 . S
C480 C479 1.389 . S
C480 C481 1.387 1_554 S
C481 H466 0.930 . S
C481 C476 1.390 . S
C481 C480 1.387 1_556 S
H482 C494 0.930 . S
H483 C496 0.930 . S
H484 C497 0.930 . S
H485 C501 0.959 . S
H486 C501 0.959 . S
H487 C501 0.961 . S
H488 C502 0.960 . S
H489 C502 0.961 . S
H490 C502 0.959 . S
H491 C505 0.929 . S
H492 C506 0.931 . S
H493 C508 0.930 . S
C494 H482 0.930 . S
C494 C495 1.399 . S
C494 C499 1.399 . S
C495 C494 1.399 . S
C495 C496 1.376 . S
C496 H483 0.930 . S
C496 C495 1.376 . S
C496 C497 1.388 . S
C497 H484 0.930 . S
C497 C496 1.388 . S
C497 C498 1.390 . S
C498 C497 1.390 . S
C498 C499 1.394 . S
C498 C504 1.465 . S
C499 C494 1.399 . S
C499 C498 1.394 . S
C499 C500 1.516 . S
C500 C499 1.516 . S
C500 C501 1.502 . S
C500 C502 1.561 . S
C500 C503 1.526 . S
C501 H485 0.959 . S
C501 H486 0.959 . S
C501 H487 0.961 . S
C501 C500 1.502 . S
C502 H488 0.960 . S
C502 H489 0.961 . S
C502 H490 0.959 . S
C502 C500 1.561 . S
C503 C500 1.526 . S
C503 C504 1.396 . S
C503 C508 1.390 1_455 S
C504 C498 1.465 . S
C504 C503 1.396 . S
C504 C505 1.399 1_455 S
C505 H491 0.929 . S
C505 C504 1.399 1_655 S
C505 C506 1.385 . S
C506 H492 0.931 . S
C506 C505 1.385 . S
C506 C507 1.389 . S
C507 C506 1.389 . S
C507 C508 1.387 . S
C508 H493 0.930 . S
C508 C503 1.390 1_655 S
C508 C507 1.387 . S
H509 C521 0.930 . S
H510 C523 0.930 . S
H511 C524 0.930 . S
H512 C528 0.959 . S
H513 C528 0.959 . S
H514 C528 0.961 . S
H515 C529 0.960 . S
H516 C529 0.961 . S
H517 C529 0.959 . S
H518 C532 0.929 1_655 S
H519 C533 0.931 . S
H520 C535 0.930 . S
C521 H509 0.930 . S
C521 C522 1.399 . S
C521 C526 1.399 . S
C522 C521 1.399 . S
C522 C523 1.376 . S
C523 H510 0.930 . S
C523 C522 1.376 . S
C523 C524 1.388 . S
C524 H511 0.930 . S
C524 C523 1.388 . S
C524 C525 1.390 . S
C525 C524 1.390 . S
C525 C526 1.394 . S
C525 C531 1.465 . S
C526 C521 1.399 . S
C526 C525 1.394 . S
C526 C527 1.516 . S
C527 C526 1.516 . S
C527 C528 1.502 . S
C527 C529 1.561 . S
C527 C530 1.526 . S
C528 H512 0.959 . S
C528 H513 0.959 . S
C528 H514 0.961 . S
C528 C527 1.502 . S
C529 H515 0.960 . S
C529 H516 0.961 . S
C529 H517 0.959 . S
C529 C527 1.561 . S
C530 C527 1.526 . S
C530 C531 1.396 . S
C530 C535 1.390 1_655 S
C531 C525 1.465 . S
C531 C530 1.396 . S
C531 C532 1.399 1_655 S
C532 H518 0.929 1_455 S
C532 C531 1.399 1_455 S
C532 C533 1.385 . S
C533 H519 0.931 . S
C533 C532 1.385 . S
C533 C534 1.389 . S
C534 C533 1.389 . S
C534 C535 1.387 . S
C535 H520 0.930 . S
C535 C530 1.390 1_455 S
C535 C534 1.387 . S
H536 C548 0.930 . S
H537 C550 0.930 . S
H538 C551 0.930 . S
H539 C555 0.959 . S
H540 C555 0.959 . S
H541 C555 0.961 . S
H542 C556 0.960 . S
H543 C556 0.961 . S
H544 C556 0.959 . S
H545 C559 0.929 . S
H546 C560 0.931 . S
H547 C562 0.930 . S
C548 H536 0.930 . S
C548 C549 1.399 1_656 S
C548 C553 1.399 . S
C549 C548 1.399 1_454 S
C549 C550 1.376 . S
C550 H537 0.930 . S
C550 C549 1.376 . S
C550 C551 1.388 . S
C551 H538 0.930 . S
C551 C550 1.388 . S
C551 C552 1.390 . S
C552 C551 1.390 . S
C552 C553 1.394 1_454 S
C552 C558 1.465 . S
C553 C548 1.399 . S
C553 C552 1.394 1_656 S
C553 C554 1.516 . S
C554 C553 1.516 . S
C554 C555 1.502 . S
C554 C556 1.561 1_655 S
C554 C557 1.526 . S
C555 H539 0.959 . S
C555 H540 0.959 . S
C555 H541 0.961 . S
C555 C554 1.502 . S
C556 H542 0.960 . S
C556 H543 0.961 . S
C556 H544 0.959 . S
C556 C554 1.561 1_455 S
C557 C554 1.526 . S
C557 C558 1.396 1_656 S
C557 C562 1.390 . S
C558 C552 1.465 . S
C558 C557 1.396 1_454 S
C558 C559 1.399 . S
C559 H545 0.929 . S
C559 C558 1.399 . S
C559 C560 1.385 . S
C560 H546 0.931 . S
C560 C559 1.385 . S
C560 C561 1.389 1_455 S
C561 C560 1.389 1_655 S
C561 C562 1.387 1_554 S
C562 H547 0.930 . S
C562 C557 1.390 . S
C562 C561 1.387 1_556 S
H563 C575 0.930 . S
H564 C577 0.930 . S
H565 C578 0.930 . S
H566 C582 0.959 . S
H567 C582 0.959 . S
H568 C582 0.961 . S
H569 C583 0.960 . S
H570 C583 0.959 1_655 S
H571 C583 0.959 . S
H572 C586 0.929 . S
H573 C587 0.931 . S
H574 C589 0.930 . S
C575 H563 0.930 . S
C575 C576 1.399 1_655 S
C575 C580 1.399 . S
C576 C575 1.399 1_455 S
C576 C577 1.376 . S
C577 H564 0.930 . S
C577 C576 1.376 . S
C577 C578 1.388 . S
C578 H565 0.930 . S
C578 C577 1.388 . S
C578 C579 1.390 . S
C579 C578 1.390 . S
C579 C580 1.394 1_455 S
C579 C585 1.465 . S
C580 C575 1.399 . S
C580 C579 1.394 1_655 S
C580 C581 1.516 . S
C581 C580 1.516 . S
C581 C582 1.502 . S
C581 C583 1.561 1_655 S
C581 C584 1.526 . S
C582 H566 0.959 . S
C582 H567 0.959 . S
C582 H568 0.961 . S
C582 C581 1.502 . S
C583 H569 0.960 . S
C583 H570 0.959 1_455 S
C583 H571 0.959 . S
C583 C581 1.561 1_455 S
C584 C581 1.526 . S
C584 C585 1.396 1_655 S
C584 C589 1.390 . S
C585 C579 1.465 . S
C585 C584 1.396 1_455 S
C585 C586 1.399 . S
C586 H572 0.929 . S
C586 C585 1.399 . S
C586 C587 1.385 . S
C587 H573 0.931 . S
C587 C586 1.385 . S
C587 C588 1.389 1_455 S
C588 C587 1.389 1_655 S
C588 C589 1.387 . S
C589 H574 0.930 . S
C589 C584 1.390 . S
C589 C588 1.387 . S
H590 C602 0.930 . S
H591 C604 0.930 . S
H592 C605 0.930 . S
H593 C609 0.959 . S
H594 C609 0.959 1_545 S
H595 C609 0.961 . S
H596 C610 0.960 . S
H597 C610 0.961 1_545 S
H598 C610 0.965 . S
H599 C613 0.929 . S
H600 C614 0.931 . S
H601 C616 0.930 . S
C602 H590 0.930 . S
C602 C603 1.399 1_556 S
C602 C607 1.399 . S
C603 C602 1.399 1_554 S
C603 C604 1.376 . S
C604 H591 0.930 . S
C604 C603 1.376 . S
C604 C605 1.388 . S
C605 H592 0.930 . S
C605 C604 1.388 . S
C605 C606 1.390 . S
C606 C605 1.390 . S
C606 C607 1.394 1_554 S
C606 C612 1.465 1_565 S
C607 C602 1.399 . S
C607 C606 1.394 1_556 S
C607 C608 1.516 . S
C608 C607 1.516 . S
C608 C609 1.502 . S
C608 C610 1.561 . S
C608 C611 1.526 1_565 S
C609 H593 0.959 . S
C609 H594 0.959 1_565 S
C609 H595 0.961 . S
C609 C608 1.502 . S
C610 H596 0.960 . S
C610 H597 0.961 1_565 S
C610 H598 0.965 . S
C610 C608 1.561 . S
C611 C608 1.526 1_545 S
C611 C612 1.396 1_556 S
C611 C616 1.390 . S
C612 C606 1.465 1_545 S
C612 C611 1.396 1_554 S
C612 C613 1.399 . S
C613 H599 0.929 . S
C613 C612 1.399 . S
C613 C614 1.385 . S
C614 H600 0.931 . S
C614 C613 1.385 . S
C614 C615 1.389 . S
C615 C614 1.389 . S
C615 C616 1.387 1_554 S
C616 H601 0.930 . S
C616 C611 1.390 . S
C616 C615 1.387 1_556 S
H617 C629 0.930 . S
H618 C631 0.930 . S
H619 C632 0.930 . S
H620 C636 0.961 . S
H621 C636 0.959 1_565 S
H622 C636 0.961 . S
H623 C637 0.960 . S
H624 C637 0.961 1_565 S
H625 C637 0.956 1_565 S
H626 C640 0.929 . S
H627 C641 0.931 . S
H628 C643 0.930 . S
C629 H617 0.930 . S
C629 C630 1.399 . S
C629 C634 1.399 . S
C630 C629 1.399 . S
C630 C631 1.376 . S
C631 H618 0.930 . S
C631 C630 1.376 . S
C631 C632 1.388 . S
C632 H619 0.930 . S
C632 C631 1.388 . S
C632 C633 1.390 . S
C633 C632 1.390 . S
C633 C634 1.394 . S
C633 C639 1.465 1_545 S
C634 C629 1.399 . S
C634 C633 1.394 . S
C634 C635 1.516 . S
C635 C634 1.516 . S
C635 C636 1.502 . S
C635 C637 1.561 . S
C635 C638 1.526 1_545 S
C636 H620 0.961 . S
C636 H621 0.959 1_545 S
C636 H622 0.961 . S
C636 C635 1.502 . S
C637 H623 0.960 . S
C637 H624 0.961 1_545 S
C637 H625 0.956 1_545 S
C637 C635 1.561 . S
C638 C635 1.526 1_565 S
C638 C639 1.396 . S
C638 C643 1.390 . S
C639 C633 1.465 1_565 S
C639 C638 1.396 . S
C639 C640 1.399 . S
C640 H626 0.929 . S
C640 C639 1.399 . S
C640 C641 1.385 . S
C641 H627 0.931 . S
C641 C640 1.385 . S
C641 C642 1.389 . S
C642 C641 1.389 . S
C642 C643 1.387 . S
C643 H628 0.930 . S
C643 C638 1.390 . S
C643 C642 1.387 . S
H644 C656 0.930 . S
H645 C658 0.930 . S
H646 C659 0.930 . S
H647 C663 0.959 . S
H648 C663 0.959 . S
H649 C663 0.961 . S
H650 C664 0.960 . S
H651 C664 0.961 . S
H652 C664 0.959 . S
H653 C667 0.929 . S
H654 C668 0.931 . S
H655 C670 0.930 . S
C656 H644 0.930 . S
C656 C657 1.399 . S
C656 C661 1.399 . S
C657 C656 1.399 . S
C657 C658 1.376 1_556 S
C658 H645 0.930 . S
C658 C657 1.376 1_554 S
C658 C659 1.388 . S
C659 H646 0.930 . S
C659 C658 1.388 . S
C659 C660 1.390 . S
C660 C659 1.390 . S
C660 C661 1.394 1_554 S
C660 C666 1.465 . S
C661 C656 1.399 . S
C661 C660 1.394 1_556 S
C661 C662 1.516 . S
C662 C661 1.516 . S
C662 C663 1.502 . S
C662 C664 1.561 . S
C662 C665 1.526 . S
C663 H647 0.959 . S
C663 H648 0.959 . S
C663 H649 0.961 . S
C663 C662 1.502 . S
C664 H650 0.960 . S
C664 H651 0.961 . S
C664 H652 0.959 . S
C664 C662 1.561 . S
C665 C662 1.526 . S
C665 C666 1.396 1_556 S
C665 C670 1.390 . S
C666 C660 1.465 . S
C666 C665 1.396 1_554 S
C666 C667 1.399 . S
C667 H653 0.929 . S
C667 C666 1.399 . S
C667 C668 1.385 . S
C668 H654 0.931 . S
C668 C667 1.385 . S
C668 C669 1.389 . S
C669 C668 1.389 . S
C669 C670 1.387 1_554 S
C670 H655 0.930 . S
C670 C665 1.390 . S
C670 C669 1.387 1_556 S
H671 C683 0.930 . S
H672 C685 0.930 . S
H673 C686 0.930 . S
H674 C690 0.959 . S
H675 C690 0.959 . S
H676 C690 0.961 . S
H677 C691 0.960 . S
H678 C691 0.961 . S
H679 C691 0.959 . S
H680 C694 0.929 . S
H681 C695 0.931 . S
H682 C697 0.930 . S
C683 H671 0.930 . S
C683 C684 1.399 1_554 S
C683 C688 1.399 . S
C684 C683 1.399 1_556 S
C684 C685 1.376 . S
C685 H672 0.930 . S
C685 C684 1.376 . S
C685 C686 1.388 . S
C686 H673 0.930 . S
C686 C685 1.388 . S
C686 C687 1.390 . S
C687 C686 1.390 . S
C687 C688 1.394 1_556 S
C687 C693 1.465 . S
C688 C683 1.399 . S
C688 C687 1.394 1_554 S
C688 C689 1.516 . S
C689 C688 1.516 . S
C689 C690 1.502 . S
C689 C691 1.561 . S
C689 C692 1.526 . S
C690 H674 0.959 . S
C690 H675 0.959 . S
C690 H676 0.961 . S
C690 C689 1.502 . S
C691 H677 0.960 . S
C691 H678 0.961 . S
C691 H679 0.959 . S
C691 C689 1.561 . S
C692 C689 1.526 . S
C692 C693 1.396 1_554 S
C692 C697 1.390 . S
C693 C687 1.465 . S
C693 C692 1.396 1_556 S
C693 C694 1.399 . S
C694 H680 0.929 . S
C694 C693 1.399 . S
C694 C695 1.385 . S
C695 H681 0.931 . S
C695 C694 1.385 . S
C695 C696 1.389 . S
C696 C695 1.389 . S
C696 C697 1.387 1_556 S
C697 H682 0.930 . S
C697 C692 1.390 . S
C697 C696 1.387 1_554 S
H698 C710 0.930 . S
H699 C712 0.930 . S
H700 C713 0.930 . S
H701 C717 0.959 . S
H702 C717 0.959 . S
H703 C717 0.961 . S
H704 C718 0.960 . S
H705 C718 0.961 . S
H706 C718 0.959 . S
H707 C721 0.929 . S
H708 C722 0.931 . S
H709 C724 0.930 . S
C710 H698 0.930 . S
C710 C711 1.399 . S
C710 C715 1.399 . S
C711 C710 1.399 . S
C711 C712 1.376 . S
C712 H699 0.930 . S
C712 C711 1.376 . S
C712 C713 1.388 . S
C713 H700 0.930 . S
C713 C712 1.388 . S
C713 C714 1.390 . S
C714 C713 1.390 . S
C714 C715 1.394 . S
C714 C720 1.465 . S
C715 C710 1.399 . S
C715 C714 1.394 . S
C715 C716 1.516 . S
C716 C715 1.516 . S
C716 C717 1.502 . S
C716 C718 1.561 . S
C716 C719 1.526 . S
C717 H701 0.959 . S
C717 H702 0.959 . S
C717 H703 0.961 . S
C717 C716 1.502 . S
C718 H704 0.960 . S
C718 H705 0.961 . S
C718 H706 0.959 . S
C718 C716 1.561 . S
C719 C716 1.526 . S
C719 C720 1.396 . S
C719 C724 1.390 . S
C720 C714 1.465 . S
C720 C719 1.396 . S
C720 C721 1.399 . S
C721 H707 0.929 . S
C721 C720 1.399 . S
C721 C722 1.385 . S
C722 H708 0.931 . S
C722 C721 1.385 . S
C722 C723 1.389 . S
C723 C722 1.389 . S
C723 C724 1.387 . S
C724 H709 0.930 . S
C724 C719 1.390 . S
C724 C723 1.387 . S
H725 C737 0.930 . S
H726 C739 0.930 . S
H727 C740 0.930 . S
H728 C744 0.959 . S
H729 C744 0.959 . S
H730 C744 0.961 . S
H731 C745 0.960 . S
H732 C745 0.961 . S
H733 C745 0.959 . S
H734 C748 0.929 . S
H735 C749 0.931 . S
H736 C751 0.930 . S
C737 H725 0.930 . S
C737 C738 1.399 . S
C737 C742 1.399 . S
C738 C737 1.399 . S
C738 C739 1.376 . S
C739 H726 0.930 . S
C739 C738 1.376 . S
C739 C740 1.388 . S
C740 H727 0.930 . S
C740 C739 1.388 . S
C740 C741 1.390 . S
C741 C740 1.390 . S
C741 C742 1.394 . S
C741 C747 1.465 . S
C742 C737 1.399 . S
C742 C741 1.394 . S
C742 C743 1.516 . S
C743 C742 1.516 . S
C743 C744 1.502 . S
C743 C745 1.561 . S
C743 C746 1.526 . S
C744 H728 0.959 . S
C744 H729 0.959 . S
C744 H730 0.961 . S
C744 C743 1.502 . S
C745 H731 0.960 . S
C745 H732 0.961 . S
C745 H733 0.959 . S
C745 C743 1.561 . S
C746 C743 1.526 . S
C746 C747 1.396 . S
C746 C751 1.390 . S
C747 C741 1.465 . S
C747 C746 1.396 . S
C747 C748 1.399 . S
C748 H734 0.929 . S
C748 C747 1.399 . S
C748 C749 1.385 . S
C749 H735 0.931 . S
C749 C748 1.385 . S
C749 C750 1.389 . S
C750 C749 1.389 . S
C750 C751 1.387 . S
C751 H736 0.930 . S
C751 C746 1.390 . S
C751 C750 1.387 . S
H752 C764 0.930 . S
H753 C766 0.930 . S
H754 C767 0.930 1_655 S
H755 C771 0.959 . S
H756 C771 0.959 . S
H757 C771 0.961 . S
H758 C772 0.960 . S
H759 C772 0.961 . S
H760 C772 0.959 . S
H761 C775 0.929 . S
H762 C776 0.931 . S
H763 C778 0.930 . S
C764 H752 0.930 . S
C764 C765 1.399 . S
C764 C769 1.399 . S
C765 C764 1.399 . S
C765 C766 1.376 . S
C766 H753 0.930 . S
C766 C765 1.376 . S
C766 C767 1.388 . S
C767 H754 0.930 1_455 S
C767 C766 1.388 . S
C767 C768 1.390 1_455 S
C768 C767 1.390 1_655 S
C768 C769 1.394 1_655 S
C768 C774 1.465 . S
C769 C764 1.399 . S
C769 C768 1.394 1_455 S
C769 C770 1.516 . S
C770 C769 1.516 . S
C770 C771 1.502 . S
C770 C772 1.561 1_455 S
C770 C773 1.526 1_455 S
C771 H755 0.959 . S
C771 H756 0.959 . S
C771 H757 0.961 . S
C771 C770 1.502 . S
C772 H758 0.960 . S
C772 H759 0.961 . S
C772 H760 0.959 . S
C772 C770 1.561 1_655 S
C773 C770 1.526 1_655 S
C773 C774 1.396 . S
C773 C778 1.390 . S
C774 C768 1.465 . S
C774 C773 1.396 . S
C774 C775 1.399 . S
C775 H761 0.929 . S
C775 C774 1.399 . S
C775 C776 1.385 . S
C776 H762 0.931 . S
C776 C775 1.385 . S
C776 C777 1.389 . S
C777 C776 1.389 . S
C777 C778 1.387 . S
C778 H763 0.930 . S
C778 C773 1.390 . S
C778 C777 1.387 . S
H779 C791 0.930 . S
H780 C793 0.930 . S
H781 C794 0.930 . S
H782 C798 0.959 1_655 S
H783 C798 0.959 . S
H784 C798 0.961 . S
H785 C799 0.960 . S
H786 C799 0.961 . S
H787 C799 0.959 . S
H788 C802 0.929 1_655 S
H789 C803 0.931 . S
H790 C805 0.930 . S
C791 H779 0.930 . S
C791 C792 1.399 . S
C791 C796 1.399 1_655 S
C792 C791 1.399 . S
C792 C793 1.376 . S
C793 H780 0.930 . S
C793 C792 1.376 . S
C793 C794 1.388 . S
C794 H781 0.930 . S
C794 C793 1.388 . S
C794 C795 1.390 . S
C795 C794 1.390 . S
C795 C796 1.394 1_655 S
C795 C801 1.465 1_655 S
C796 C791 1.399 1_455 S
C796 C795 1.394 1_455 S
C796 C797 1.516 . S
C797 C796 1.516 . S
C797 C798 1.502 . S
C797 C799 1.561 . S
C797 C800 1.526 . S
C798 H782 0.959 1_455 S
C798 H783 0.959 . S
C798 H784 0.961 . S
C798 C797 1.502 . S
C799 H785 0.960 . S
C799 H786 0.961 . S
C799 H787 0.959 . S
C799 C797 1.561 . S
C800 C797 1.526 . S
C800 C801 1.396 . S
C800 C805 1.390 . S
C801 C795 1.465 1_455 S
C801 C800 1.396 . S
C801 C802 1.399 . S
C802 H788 0.929 1_455 S
C802 C801 1.399 . S
C802 C803 1.385 . S
C803 H789 0.931 . S
C803 C802 1.385 . S
C803 C804 1.389 . S
C804 C803 1.389 . S
C804 C805 1.387 . S
C805 H790 0.930 . S
C805 C800 1.390 . S
C805 C804 1.387 . S
H806 C818 0.930 . S
H807 C820 0.930 . S
H808 C821 0.930 . S
H809 C825 0.959 . S
H810 C825 0.959 . S
H811 C825 0.961 . S
H812 C826 0.960 . S
H813 C826 0.961 . S
H814 C826 0.959 . S
H815 C829 0.938 . S
H816 C830 0.931 . S
H817 C832 0.930 . S
C818 H806 0.930 . S
C818 C819 1.399 . S
C818 C823 1.399 . S
C819 C818 1.399 . S
C819 C820 1.376 . S
C820 H807 0.930 . S
C820 C819 1.376 . S
C820 C821 1.388 . S
C821 H808 0.930 . S
C821 C820 1.388 . S
C821 C822 1.390 . S
C822 C821 1.390 . S
C822 C823 1.394 . S
C822 C828 1.465 . S
C823 C818 1.399 . S
C823 C822 1.394 . S
C823 C824 1.516 1_655 S
C824 C823 1.516 1_455 S
C824 C825 1.502 . S
C824 C826 1.561 1_455 S
C824 C827 1.526 . S
C825 H809 0.959 . S
C825 H810 0.959 . S
C825 H811 0.961 . S
C825 C824 1.502 . S
C826 H812 0.960 . S
C826 H813 0.961 . S
C826 H814 0.959 . S
C826 C824 1.561 1_655 S
C827 C824 1.526 . S
C827 C828 1.396 1_455 S
C827 C832 1.390 . S
C828 C822 1.465 . S
C828 C827 1.396 1_655 S
C828 C829 1.402 . S
C829 H815 0.938 . S
C829 C828 1.402 . S
C829 C830 1.374 1_655 S
C830 H816 0.931 . S
C830 C829 1.374 1_455 S
C830 C831 1.389 . S
C831 C830 1.389 . S
C831 C832 1.387 . S
C832 H817 0.930 . S
C832 C827 1.390 . S
C832 C831 1.387 . S
H833 C845 0.930 . S
H834 C847 0.930 . S
H835 C848 0.930 . S
H836 C852 0.959 . S
H837 C852 0.959 . S
H838 C852 0.961 . S
H839 C853 0.960 . S
H840 C853 0.961 . S
H841 C853 0.959 . S
H842 C856 0.929 1_655 S
H843 C857 0.931 . S
H844 C859 0.930 . S
C845 H833 0.930 . S
C845 C846 1.399 . S
C845 C850 1.399 . S
C846 C845 1.399 . S
C846 C847 1.376 . S
C847 H834 0.930 . S
C847 C846 1.376 . S
C847 C848 1.388 . S
C848 H835 0.930 . S
C848 C847 1.388 . S
C848 C849 1.390 . S
C849 C848 1.390 . S
C849 C850 1.394 . S
C849 C855 1.468 . S
C850 C845 1.399 . S
C850 C849 1.394 . S
C850 C851 1.516 1_655 S
C851 C850 1.516 1_455 S
C851 C852 1.502 . S
C851 C853 1.561 1_455 S
C851 C854 1.526 . S
C852 H836 0.959 . S
C852 H837 0.959 . S
C852 H838 0.961 . S
C852 C851 1.502 . S
C853 H839 0.960 . S
C853 H840 0.961 . S
C853 H841 0.959 . S
C853 C851 1.561 1_655 S
C854 C851 1.526 . S
C854 C855 1.393 1_455 S
C854 C859 1.390 . S
C855 C849 1.468 . S
C855 C854 1.393 1_655 S
C855 C856 1.399 1_655 S
C856 H842 0.929 1_455 S
C856 C855 1.399 1_455 S
C856 C857 1.385 . S
C857 H843 0.931 . S
C857 C856 1.385 . S
C857 C858 1.389 . S
C858 C857 1.389 . S
C858 C859 1.387 . S
C859 H844 0.930 . S
C859 C854 1.390 . S
C859 C858 1.387 . S
H860 C872 0.930 . S
H861 C874 0.930 . S
H862 C875 0.930 . S
H863 C879 0.959 . S
H864 C879 0.959 . S
H865 C879 0.961 . S
H866 C880 0.960 . S
H867 C880 0.961 . S
H868 C880 0.959 . S
H869 C883 0.929 . S
H870 C884 0.931 . S
H871 C886 0.930 . S
C872 H860 0.930 . S
C872 C873 1.399 . S
C872 C877 1.399 . S
C873 C872 1.399 . S
C873 C874 1.376 . S
C874 H861 0.930 . S
C874 C873 1.376 . S
C874 C875 1.388 . S
C875 H862 0.930 . S
C875 C874 1.388 . S
C875 C876 1.390 . S
C876 C875 1.390 . S
C876 C877 1.394 . S
C876 C882 1.465 . S
C877 C872 1.399 . S
C877 C876 1.394 . S
C877 C878 1.516 . S
C878 C877 1.516 . S
C878 C879 1.502 . S
C878 C880 1.561 . S
C878 C881 1.526 . S
C879 H863 0.959 . S
C879 H864 0.959 . S
C879 H865 0.961 . S
C879 C878 1.502 . S
C880 H866 0.960 . S
C880 H867 0.961 . S
C880 H868 0.959 . S
C880 C878 1.561 . S
C881 C878 1.526 . S
C881 C882 1.396 . S
C881 C886 1.390 . S
C882 C876 1.465 . S
C882 C881 1.396 . S
C882 C883 1.399 . S
C883 H869 0.929 . S
C883 C882 1.399 . S
C883 C884 1.385 . S
C884 H870 0.931 . S
C884 C883 1.385 . S
C884 C885 1.389 . S
C885 C884 1.389 . S
C885 C886 1.387 . S
C886 H871 0.930 . S
C886 C881 1.390 . S
C886 C885 1.387 . S
H887 C899 0.930 . S
H888 C901 0.930 . S
H889 C902 0.930 . S
H890 C906 0.959 . S
H891 C906 0.959 . S
H892 C906 0.961 . S
H893 C907 0.960 . S
H894 C907 0.961 . S
H895 C907 0.959 . S
H896 C910 0.929 . S
H897 C911 0.931 . S
H898 C913 0.930 . S
C899 H887 0.930 . S
C899 C900 1.399 . S
C899 C904 1.399 . S
C900 C899 1.399 . S
C900 C901 1.376 . S
C901 H888 0.930 . S
C901 C900 1.376 . S
C901 C902 1.388 . S
C902 H889 0.930 . S
C902 C901 1.388 . S
C902 C903 1.390 . S
C903 C902 1.390 . S
C903 C904 1.394 . S
C903 C909 1.465 . S
C904 C899 1.399 . S
C904 C903 1.394 . S
C904 C905 1.516 . S
C905 C904 1.516 . S
C905 C906 1.502 . S
C905 C907 1.561 . S
C905 C908 1.526 . S
C906 H890 0.959 . S
C906 H891 0.959 . S
C906 H892 0.961 . S
C906 C905 1.502 . S
C907 H893 0.960 . S
C907 H894 0.961 . S
C907 H895 0.959 . S
C907 C905 1.561 . S
C908 C905 1.526 . S
C908 C909 1.396 . S
C908 C913 1.390 . S
C909 C903 1.465 . S
C909 C908 1.396 . S
C909 C910 1.399 . S
C910 H896 0.929 . S
C910 C909 1.399 . S
C910 C911 1.385 . S
C911 H897 0.931 . S
C911 C910 1.385 . S
C911 C912 1.389 . S
C912 C911 1.389 . S
C912 C913 1.387 . S
C913 H898 0.930 . S
C913 C908 1.390 . S
C913 C912 1.387 . S
H914 C926 0.930 . S
H915 C928 0.930 . S
H916 C929 0.930 . S
H917 C933 0.959 . S
H918 C933 0.959 . S
H919 C933 0.961 . S
H920 C934 0.960 . S
H921 C934 0.961 . S
H922 C934 0.959 . S
H923 C937 0.929 . S
H924 C938 0.931 . S
H925 C940 0.930 . S
C926 H914 0.930 . S
C926 C927 1.399 . S
C926 C931 1.399 . S
C927 C926 1.399 . S
C927 C928 1.376 . S
C928 H915 0.930 . S
C928 C927 1.376 . S
C928 C929 1.388 . S
C929 H916 0.930 . S
C929 C928 1.388 . S
C929 C930 1.390 . S
C930 C929 1.390 . S
C930 C931 1.394 . S
C930 C936 1.465 . S
C931 C926 1.399 . S
C931 C930 1.394 . S
C931 C932 1.516 . S
C932 C931 1.516 . S
C932 C933 1.502 . S
C932 C934 1.561 . S
C932 C935 1.526 . S
C933 H917 0.959 . S
C933 H918 0.959 . S
C933 H919 0.961 . S
C933 C932 1.502 . S
C934 H920 0.960 . S
C934 H921 0.961 . S
C934 H922 0.959 . S
C934 C932 1.561 . S
C935 C932 1.526 . S
C935 C936 1.396 . S
C935 C940 1.390 . S
C936 C930 1.465 . S
C936 C935 1.396 . S
C936 C937 1.399 . S
C937 H923 0.929 . S
C937 C936 1.399 . S
C937 C938 1.385 . S
C938 H924 0.931 . S
C938 C937 1.385 . S
C938 C939 1.389 . S
C939 C938 1.389 . S
C939 C940 1.387 . S
C940 H925 0.930 . S
C940 C935 1.390 . S
C940 C939 1.387 . S
H941 C953 0.930 . S
H942 C955 0.930 . S
H943 C956 0.930 . S
H944 C960 0.959 . S
H945 C960 0.959 . S
H946 C960 0.961 . S
H947 C961 0.960 . S
H948 C961 0.961 . S
H949 C961 0.959 . S
H950 C964 0.929 . S
H951 C965 0.931 . S
H952 C967 0.930 . S
C953 H941 0.930 . S
C953 C954 1.399 . S
C953 C958 1.399 . S
C954 C953 1.399 . S
C954 C955 1.376 . S
C955 H942 0.930 . S
C955 C954 1.376 . S
C955 C956 1.388 . S
C956 H943 0.930 . S
C956 C955 1.388 . S
C956 C957 1.390 . S
C957 C956 1.390 . S
C957 C958 1.394 . S
C957 C963 1.465 . S
C958 C953 1.399 . S
C958 C957 1.394 . S
C958 C959 1.516 . S
C959 C958 1.516 . S
C959 C960 1.502 . S
C959 C961 1.561 . S
C959 C962 1.526 . S
C960 H944 0.959 . S
C960 H945 0.959 . S
C960 H946 0.961 . S
C960 C959 1.502 . S
C961 H947 0.960 . S
C961 H948 0.961 . S
C961 H949 0.959 . S
C961 C959 1.561 . S
C962 C959 1.526 . S
C962 C963 1.396 . S
C962 C967 1.390 . S
C963 C957 1.465 . S
C963 C962 1.396 . S
C963 C964 1.399 . S
C964 H950 0.929 . S
C964 C963 1.399 . S
C964 C965 1.385 . S
C965 H951 0.931 . S
C965 C964 1.385 . S
C965 C966 1.389 . S
C966 C965 1.389 . S
C966 C967 1.387 . S
C967 H952 0.930 . S
C967 C962 1.390 . S
C967 C966 1.387 . S
C333 C6 1.482 1_554 S
C345 C15 1.511 . S
C360 C55 1.589 . S
C372 C46 1.539 . S
C387 C86 1.535 . S
C399 C95 1.482 . S
C414 C126 1.520 . S
C426 C135 1.507 . S
C441 C166 1.525 . S
C453 C175 1.473 . S
C468 C206 1.534 . S
C480 C215 1.581 . S
C495 C246 1.537 . S
C507 C255 1.485 . S
C522 C295 1.526 . S
C534 C286 1.501 . S
C549 C59 1.877 1_454 S
C561 C19 1.826 1_655 S
C576 C139 1.871 1_455 S
C588 C90 1.801 1_655 S
C603 C179 1.867 . S
C615 C219 1.836 1_554 S
C630 C250 1.852 . S
C642 C299 1.826 . S
C657 C10 1.731 . S
C669 C210 1.751 . S
C684 C170 1.769 . S
C696 C50 1.763 1_556 S
C711 C99 1.745 . S
C723 C290 1.763 . S
C738 C130 1.736 . S
C750 C259 1.766 . S
C765 C9 1.778 . S
C777 C129 1.770 . S
C792 C49 1.661 . S
C804 C89 1.485 . S
C819 C58 1.675 . S
C831 C98 1.848 . S
C846 C138 1.589 . S
C858 C18 1.532 . S
C873 C169 1.755 . S
C885 C289 1.755 . S
C900 C209 1.634 . S
C912 C249 1.494 . S
C927 C218 1.607 . S
C939 C258 1.826 . S
C954 C298 1.529 . S
C966 C178 1.600 . S
