# Generated by pormake.
# Topology ilc, (8)-cn, num edge types: 1
# Building blocks:
#     Node 0, Type 0, BuildingBlock: NUHRAL_clean_sbu_3, # of connection points: 8
#     Node 1, Type 0, BuildingBlock: NUHRAL_clean_sbu_3, # of connection points: 8
#     Node 2, Type 0, BuildingBlock: NUHRAL_clean_sbu_3, # of connection points: 8
#     Edge 3, Type (0, 0), BuildingBlock: KIFKEQ_clean_linker_1, # of connection points: 2
#     Edge 4, Type (0, 0), BuildingBlock: KIFKEQ_clean_linker_1, # of connection points: 2
#     Edge 5, Type (0, 0), BuildingBlock: KIFKEQ_clean_linker_1, # of connection points: 2
#     Edge 6, Type (0, 0), BuildingBlock: KIFKEQ_clean_linker_1, # of connection points: 2
#     Edge 7, Type (0, 0), BuildingBlock: KIFKEQ_clean_linker_1, # of connection points: 2
#     Edge 8, Type (0, 0), BuildingBlock: KIFKEQ_clean_linker_1, # of connection points: 2
#     Edge 9, Type (0, 0), BuildingBlock: KIFKEQ_clean_linker_1, # of connection points: 2
#     Edge 10, Type (0, 0), BuildingBlock: KIFKEQ_clean_linker_1, # of connection points: 2
#     Edge 11, Type (0, 0), BuildingBlock: KIFKEQ_clean_linker_1, # of connection points: 2
#     Edge 12, Type (0, 0), BuildingBlock: KIFKEQ_clean_linker_1, # of connection points: 2
#     Edge 13, Type (0, 0), BuildingBlock: KIFKEQ_clean_linker_1, # of connection points: 2
#     Edge 14, Type (0, 0), BuildingBlock: KIFKEQ_clean_linker_1, # of connection points: 2
# Relax obj value: 0.162
# Max RMSD: 0.202
# Mean RMSD: 0.202
data_MOF--net-ilc--node1-NUHRAL_clean_sbu_3--edge1-KIFKEQ_clean_linker_1
_symmetry_space_group_name_H-M    P1
_symmetry_Int_Tables_number       1
_symmetry_cell_setting            triclinic
loop_
_symmetry_equiv_pos_as_xyz
'x, y, z'
_cell_length_a     22.654897
_cell_length_b     31.224613
_cell_length_c     19.504015
_cell_angle_alpha  101.44692
_cell_angle_beta   74.671674
_cell_angle_gamma 142.03717
loop_
_atom_site_label
_atom_site_type_symbol
_atom_site_fract_x
_atom_site_fract_y
_atom_site_fract_z
_atom_type_partial_charge
C0 C 0.12199 0.97651 0.18205 0.0
C1 C 0.05413 0.96322 0.23614 0.0
C2 C 1.01155 0.92243 0.29563 0.0
C3 C 0.03665 0.89434 0.30045 0.0
C4 C 0.10495 0.90724 0.24749 0.0
C5 C 0.14874 0.94925 0.18805 0.0
O6 O 1.0152 0.03245 0.07983 0.0
Tb7 Tb 0.15986 0.09111 0.0889 0.0
O8 O 0.17918 0.15496 0.17651 0.0
O9 O 0.88958 0.92676 0.03378 0.0
Eu10 Eu 0.96047 0.97551 0.92368 0.0
O11 O 0.2317 0.08646 0.1298 0.0
C12 C 0.92981 0.0375 0.90891 0.0
O13 O 0.09926 0.99491 0.08576 0.0
O14 O 0.10095 0.04315 0.95789 0.0
O15 O 0.24518 0.14225 0.9845 0.0
C16 C 0.16364 1.01885 0.11997 0.0
C17 C 0.85708 0.8332 0.85576 0.0
O18 O 0.81519 0.81292 0.92258 0.0
C19 C 0.9344 0.96441 0.08864 0.0
C20 C 0.19049 0.10441 0.93536 0.0
O21 O 0.91889 0.89823 0.83859 0.0
C22 C 0.88017 0.03078 0.86378 0.0
C23 C 0.82576 0.06552 0.83037 0.0
C24 C 0.87835 0.07551 0.8715 0.0
C25 C 0.83694 0.98051 0.81076 0.0
C26 C 0.78734 0.97185 0.76748 0.0
C27 C 0.77366 1.00974 0.78347 0.0
C28 C 0.18561 0.1991 0.16647 0.0
O29 O 0.18339 0.2051 0.10265 0.0
O30 O 0.87138 0.98445 0.95266 0.0
O31 O 1.0099 0.05984 0.87739 0.0
H32 H 0.03558 0.98559 0.23218 0.0
H33 H 1.00701 0.86542 0.3481 0.0
H34 H 0.20252 0.96034 0.14699 0.0
H35 H 0.91898 0.11849 0.90802 0.0
H36 H 0.84817 0.9518 0.80102 0.0
H37 H 0.73232 1.00199 0.75288 0.0
C38 C 0.85333 0.39578 0.53942 0.0
C39 C 0.89454 0.45556 0.57771 0.0
C40 C 0.93671 0.47554 0.63655 0.0
C41 C 0.93729 0.43501 0.6563 0.0
C42 C 0.897 0.37538 0.61896 0.0
C43 C 0.85486 0.35596 0.56013 0.0
O44 O 0.60048 0.30535 0.39474 0.0
Tb45 Tb 0.73569 0.39423 0.43505 0.0
O46 O 0.73808 0.45862 0.50676 0.0
O47 O 0.45494 0.21069 0.36728 0.0
Eu48 Eu 0.54639 0.25739 0.25715 0.0
O49 O 0.85703 0.42391 0.43308 0.0
C50 C 0.53439 0.32372 0.21342 0.0
O51 O 0.71338 0.33106 0.49287 0.0
O52 O 0.69619 0.32659 0.27851 0.0
O53 O 0.80617 0.43553 0.3251 0.0
C54 C 0.80721 0.37399 0.47849 0.0
C55 C 0.51617 0.14197 0.18536 0.0
O56 O 0.49908 0.12829 0.25222 0.0
C57 C 0.50656 0.25018 0.41823 0.0
C58 C 0.77122 0.3946 0.26902 0.0
O59 O 0.53645 0.19232 0.17053 0.0
C60 C 0.56442 0.36267 0.15244 0.0
C61 C 0.5234 0.38517 0.07305 0.0
C62 C 0.49457 0.34686 0.12946 0.0
C63 C 0.66306 0.4177 0.11892 0.0
C64 C 0.69219 0.45738 0.06422 0.0
C65 C 0.6218 0.44046 0.0421 0.0
C66 C 0.8199 0.52621 0.50979 0.0
O67 O 0.90057 0.55463 0.46835 0.0
O68 O 0.46852 0.25598 0.20776 0.0
O69 O 0.60303 0.35339 0.24687 0.0
H70 H 0.89187 0.48552 0.56259 0.0
H71 H 0.96307 0.4471 0.70461 0.0
H72 H 0.82276 0.30981 0.53071 0.0
H73 H 0.41856 0.30485 0.15476 0.0
H74 H 0.71712 0.4297 0.13511 0.0
H75 H 0.64311 0.4692 0.99812 0.0
C76 C 0.49437 0.67728 0.81687 0.0
C77 C 0.51877 0.71551 0.88007 0.0
C78 C 0.51373 0.69384 0.93974 0.0
C79 C 0.48449 0.6342 0.93687 0.0
C80 C 0.45831 0.59463 0.87539 0.0
C81 C 0.46463 0.61672 0.81451 0.0
O82 O 0.29868 0.67639 0.78669 0.0
Tb83 Tb 0.44565 0.74098 0.72936 0.0
O84 O 0.49492 0.82454 0.80061 0.0
O85 O 0.21395 0.56959 0.73981 0.0
Eu86 Eu 0.2802 0.60938 0.62659 0.0
O87 O 0.55458 0.76612 0.75299 0.0
C88 C 0.24247 0.66141 0.59142 0.0
O89 O 0.41627 0.65832 0.73262 0.0
O90 O 0.43502 0.67623 0.57705 0.0
O91 O 0.4994 0.77739 0.61991 0.0
C92 C 0.49913 0.70033 0.75408 0.0
C93 C 0.25512 0.49709 0.55975 0.0
O94 O 0.3156 0.52752 0.60288 0.0
C95 C 0.22582 0.60805 0.793 0.0
C96 C 0.50119 0.74344 0.5694 0.0
O97 O 0.22184 0.51754 0.55975 0.0
C98 C 0.28533 0.70734 0.533 0.0
C99 C 0.2863 0.76576 0.46564 0.0
C100 C 0.24379 0.72249 0.52295 0.0
C101 C 0.36694 0.73391 0.48473 0.0
C102 C 0.4085 0.7758 0.42656 0.0
C103 C 0.36883 0.79278 0.41886 0.0
C104 C 0.47069 0.85076 0.79645 0.0
O105 O 0.4235 0.82904 0.74582 0.0
O106 O 0.19621 0.59892 0.57297 0.0
O107 O 0.29987 0.69062 0.63689 0.0
H108 H 0.53879 0.7608 0.88381 0.0
H109 H 0.47961 0.61736 0.98399 0.0
H110 H 0.44495 0.58653 0.76642 0.0
H111 H 0.17854 0.7001 0.55847 0.0
H112 H 0.39488 0.71891 0.49085 0.0
H113 H 0.39659 0.82229 0.37257 0.0
H114 H 0.78962 1.00348 0.64376 0.0
H115 H 0.75347 0.86398 0.72784 0.0
H116 H 0.81317 0.97479 0.52578 0.0
H117 H 0.78581 0.83999 0.60738 0.0
H118 H 0.04185 0.02371 0.35454 0.0
H119 H 0.95622 1.01768 0.46521 0.0
H120 H 0.75784 0.7994 0.48892 0.0
H121 H 0.84368 0.80548 0.37637 0.0
C122 C 0.78324 0.96489 0.63825 0.0
C123 C 0.77199 0.93776 0.69707 0.0
C124 C 0.79898 0.94949 0.56943 0.0
C125 C 0.80533 0.90741 0.55708 0.0
C126 C 0.78263 0.87348 0.61504 0.0
C127 C 0.76552 0.88822 0.68443 0.0
C128 C 0.97814 0.97389 0.38212 0.0
C129 C 0.94931 0.91509 0.35682 0.0
C130 C 0.92875 0.97026 0.44579 0.0
C131 C 0.84944 0.90775 0.4858 0.0
C132 C 0.81903 0.84838 0.45961 0.0
C133 C 0.86789 0.85182 0.3952 0.0
H134 H 0.84509 0.50407 0.67974 0.0
H135 H 0.09149 0.57027 0.7073 0.0
H136 H 0.84581 0.55147 0.79466 0.0
H137 H 0.09106 0.61713 0.82262 0.0
H138 H 0.80548 0.58623 0.01799 0.0
H139 H 0.92413 0.64175 0.90691 0.0
H140 H 0.91953 0.50053 0.90083 0.0
H141 H 0.80026 0.44408 1.00974 0.0
C142 C 0.90317 0.53235 0.70801 0.0
C143 C 0.96574 0.53081 0.68558 0.0
C144 C 0.90387 0.55997 0.77406 0.0
C145 C 0.96658 0.58573 0.81821 0.0
C146 C 0.04114 0.59642 0.78981 0.0
C147 C 0.04087 0.56922 0.72375 0.0
C148 C 0.83389 0.56951 0.99471 0.0
C149 C 0.7919 0.50965 0.02136 0.0
C150 C 0.90193 0.60153 0.93141 0.0
C151 C 0.931 0.57544 0.89569 0.0
C152 C 0.90057 0.52294 0.92857 0.0
C153 C 0.83154 0.49022 0.991 0.0
H154 H 0.68125 0.82169 0.98418 0.0
H155 H 0.37062 0.63661 0.05074 0.0
H156 H 0.69708 0.86196 0.10848 0.0
H157 H 0.38613 0.67529 0.17295 0.0
H158 H 0.41454 0.69075 0.37702 0.0
H159 H 0.47781 0.69055 0.25639 0.0
H160 H 0.61814 0.88824 0.21407 0.0
H161 H 0.56033 0.89159 0.33763 0.0
C162 C 0.61671 0.79054 0.02528 0.0
C163 C 0.52474 0.72611 1.00905 0.0
C164 C 0.6259 0.81294 0.09589 0.0
C165 C 0.54342 0.7701 0.15006 0.0
C166 C 0.45129 0.70799 0.13234 0.0
C167 C 0.44207 0.68625 0.06259 0.0
C168 C 0.46324 0.73634 0.34398 0.0
C169 C 0.47811 0.78962 0.36613 0.0
C170 C 0.49919 0.73591 0.27443 0.0
C171 C 0.54867 0.78782 0.22576 0.0
C172 C 0.57835 0.847 0.25062 0.0
C173 C 0.54396 0.84823 0.32102 0.0
H174 H 0.1295 0.6763 0.4012 0.0
H175 H 0.3501 0.885 0.48017 0.0
H176 H 0.08824 0.7073 0.33623 0.0
H177 H 0.30656 0.91603 0.41835 0.0
H178 H 0.28761 0.97924 0.24732 0.0
H179 H 0.32552 0.94047 0.30221 0.0
H180 H 1.01959 0.73635 0.33937 0.0
H181 H 0.98363 0.7743 0.2813 0.0
C182 C 0.16606 0.72802 0.40704 0.0
C183 C 0.24142 0.77793 0.4467 0.0
C184 C 0.1433 0.74621 0.36926 0.0
C185 C 0.19528 0.81476 0.37067 0.0
C186 C 0.26683 0.86337 0.4141 0.0
C187 C 0.29026 0.84531 0.45108 0.0
C188 C 0.22942 0.92543 0.26475 0.0
C189 C 0.13273 0.87988 0.26035 0.0
C190 C 0.25054 0.90347 0.29773 0.0
C191 C 0.17524 0.83567 0.3273 0.0
C192 C 0.0797 0.78881 0.31753 0.0
C193 C 0.05894 0.81053 0.28406 0.0
H194 H 0.14209 0.42907 0.4567 0.0
H195 H 0.32167 0.45072 0.5428 0.0
H196 H 0.11967 0.35349 0.36444 0.0
H197 H 0.30125 0.37682 0.45005 0.0
H198 H 0.18234 0.19514 0.30697 0.0
H199 H 0.1898 0.26101 0.40482 0.0
H200 H 0.2126 0.36242 0.25848 0.0
H201 H 0.20238 0.29532 0.16142 0.0
C202 C 0.1764 0.41748 0.45621 0.0
C203 C 0.23405 0.44633 0.50708 0.0
C204 C 0.16419 0.37453 0.40294 0.0
C205 C 0.20927 0.35929 0.39918 0.0
C206 C 0.26455 0.38663 0.45142 0.0
C207 C 0.27668 0.42945 0.50459 0.0
C208 C 0.18893 0.23149 0.29571 0.0
C209 C 0.19206 0.23999 0.22619 0.0
C210 C 0.19355 0.26952 0.35184 0.0
C211 C 0.20159 0.31714 0.33988 0.0
C212 C 0.20471 0.32548 0.2702 0.0
C213 C 0.19977 0.28735 0.21424 0.0
H214 H 0.54485 0.69452 0.46738 0.0
H215 H 0.61174 0.86921 0.51618 0.0
H216 H 0.65419 0.74823 0.35386 0.0
H217 H 0.71964 0.92268 0.40135 0.0
H218 H 0.96724 0.03154 0.21519 0.0
H219 H 0.86696 0.97958 0.3321 0.0
H220 H 0.67618 0.77445 0.2415 0.0
H221 H 0.77857 0.82672 0.12556 0.0
C222 C 0.58292 0.74453 0.4537 0.0
C223 C 0.57065 0.77807 0.50125 0.0
C224 C 0.64513 0.77518 0.38797 0.0
C225 C 0.69675 0.84028 0.36773 0.0
C226 C 0.68365 0.87354 0.4154 0.0
C227 C 0.62132 0.84276 0.48132 0.0
C228 C 0.90476 0.97532 0.22058 0.0
C229 C 0.88097 0.93323 0.16107 0.0
C230 C 0.84621 0.94535 0.28764 0.0
C231 C 0.76232 0.87249 0.29692 0.0
C232 C 0.74062 0.83062 0.23739 0.0
C233 C 0.79924 0.8606 0.17047 0.0
H234 H 0.74689 0.23257 0.62841 0.0
H235 H 0.03768 0.41941 0.67401 0.0
H236 H 0.73337 0.16298 0.68795 0.0
H237 H 1.02138 0.3509 0.7385 0.0
H238 H 0.99688 0.19816 0.78462 0.0
H239 H 1.01769 0.2744 0.73159 0.0
H240 H 0.70951 0.13111 0.79986 0.0
H241 H 0.68922 0.05336 0.84878 0.0
C242 C 0.80826 0.25883 0.65061 0.0
C243 C 0.89301 0.33173 0.64672 0.0
C244 C 0.79976 0.21901 0.68633 0.0
C245 C 0.87537 0.25107 0.7198 0.0
C246 C 0.96147 0.32386 0.71354 0.0
C247 C 0.97052 0.36343 0.67692 0.0
C248 C 0.93442 0.18437 0.79048 0.0
C249 C 0.84155 0.12023 0.82161 0.0
C250 C 0.946 0.22787 0.75953 0.0
C251 C 0.86501 0.20869 0.7599 0.0
C252 C 0.77328 0.14692 0.79635 0.0
C253 C 0.76163 0.10291 0.82607 0.0
H254 H 0.66765 0.48432 0.6051 0.0
H255 H 0.97592 0.66729 0.52654 0.0
H256 H 0.67059 0.55646 0.68557 0.0
H257 H 0.97938 0.73909 0.60792 0.0
H258 H 0.94098 0.86025 0.71469 0.0
H259 H 0.92741 0.78492 0.62979 0.0
H260 H 0.72896 0.62326 0.79144 0.0
H261 H 0.74042 0.69776 0.87557 0.0
C262 C 0.73611 0.53991 0.60504 0.0
C263 C 0.82146 0.56992 0.55916 0.0
C264 C 0.73793 0.58131 0.65152 0.0
C265 C 0.82516 0.65384 0.65331 0.0
C266 C 0.91047 0.6837 0.60732 0.0
C267 C 0.90866 0.64234 0.56091 0.0
C268 C 0.89371 0.80839 0.73194 0.0
C269 C 0.84245 0.78539 0.80221 0.0
C270 C 0.88653 0.76532 0.68336 0.0
C271 C 0.82795 0.69811 0.70375 0.0
C272 C 0.77428 0.67439 0.77347 0.0
C273 C 0.78129 0.71739 0.82198 0.0
H274 H 0.31306 0.13908 0.47176 0.0
H275 H 0.59098 0.32258 0.53741 0.0
H276 H 0.23215 0.108 0.59488 0.0
H277 H 0.51207 0.28829 0.66121 0.0
H278 H 0.34501 0.23775 0.88311 0.0
H279 H 0.41784 0.27624 0.75898 0.0
H280 H 0.19812 0.06078 0.69469 0.0
H281 H 0.12285 0.0239 0.81835 0.0
C282 C 0.35745 0.17229 0.51264 0.0
C283 C 0.45932 0.23242 0.49443 0.0
C284 C 0.31087 0.15403 0.58379 0.0
C285 C 0.36487 0.19451 0.63929 0.0
C286 C 0.46696 0.25557 0.62077 0.0
C287 C 0.51318 0.27473 0.54932 0.0
C288 C 0.31176 0.19907 0.84205 0.0
C289 C 0.22818 0.12803 0.86031 0.0
C290 C 0.35409 0.2209 0.77064 0.0
C291 C 0.31526 0.17195 0.71559 0.0
C292 C 0.22991 0.10065 0.73453 0.0
C293 C 0.18644 0.07913 0.80582 0.0
H294 H 0.4839 0.34494 0.93982 0.0
H295 H 0.42004 0.40175 0.138 0.0
H296 H 0.43327 0.36998 0.87703 0.0
H297 H 0.36975 0.42739 0.07568 0.0
H298 H 0.55169 0.57016 0.81042 0.0
H299 H 0.52859 0.48893 0.85431 0.0
H300 H 0.26904 0.39732 0.99946 0.0
H301 H 0.29303 0.47898 0.95532 0.0
C302 C 0.45398 0.35928 0.97042 0.0
C303 C 0.45539 0.37116 0.04373 0.0
C304 C 0.42651 0.3747 0.93432 0.0
C305 C 0.39948 0.40213 0.97094 0.0
C306 C 0.38996 0.40618 0.0457 0.0
C307 C 0.41803 0.39101 0.08177 0.0
C308 C 0.48705 0.53022 0.84889 0.0
C309 C 0.42394 0.5305 0.87921 0.0
C310 C 0.47384 0.48381 0.87457 0.0
C311 C 0.39756 0.43719 0.93134 0.0
C312 C 0.32904 0.43304 0.95645 0.0
C313 C 0.34202 0.47913 0.93051 0.0
H314 H 0.43556 0.91685 0.7977 0.0
H315 H 0.54266 0.89329 0.91966 0.0
H316 H 0.44996 0.98815 0.89042 0.0
H317 H 0.559 0.96621 1.01249 0.0
H318 H 0.46549 0.02977 0.1984 0.0
H319 H 0.46075 0.96326 0.10417 0.0
H320 H 0.56124 0.09813 0.94673 0.0
H321 H 0.56306 0.16331 0.04111 0.0
C322 C 0.46316 0.92743 0.84407 0.0
C323 C 0.48754 0.89894 0.85116 0.0
C324 C 0.47199 0.96885 0.8973 0.0
C325 C 0.5054 0.98309 0.95944 0.0
C326 C 0.53147 0.95554 0.96604 0.0
C327 C 0.52287 0.91413 0.9125 0.0
C328 C 0.48642 0.04522 0.14369 0.0
C329 C 0.51409 0.10177 0.12752 0.0
C330 C 0.48453 1.00734 0.08948 0.0
C331 C 0.51064 0.02506 0.01745 0.0
C332 C 0.53917 0.08209 1.00139 0.0
C333 C 0.54063 0.11978 0.05563 0.0
H334 H 0.25079 0.67016 0.92087 0.0
H335 H 0.04229 0.47112 0.8192 0.0
H336 H 0.13856 0.61779 0.03305 0.0
H337 H 0.92687 0.41861 0.93092 0.0
H338 H 0.77316 0.32898 0.15554 0.0
H339 H 0.88084 0.37894 0.0414 0.0
H340 H 1.00232 0.57514 0.10163 0.0
H341 H 0.89933 0.52582 0.2187 0.0
C342 C 0.18018 0.61511 0.92236 0.0
C343 C 0.1555 0.57484 0.861 0.0
C344 C 0.11495 0.58493 0.98694 0.0
C345 C 1.02218 0.51364 0.99203 0.0
C346 C 0.99792 0.47327 0.9303 0.0
C347 C 0.06385 0.50347 0.86569 0.0
C348 C 0.82263 0.38278 0.14429 0.0
C349 C 0.82852 0.42374 0.19646 0.0
C350 C 0.88445 0.41159 0.0782 0.0
C351 C 0.95228 0.48182 0.06151 0.0
C352 C 0.95416 0.52169 0.1128 0.0
C353 C 0.89413 0.49329 0.17982 0.0
loop_
_geom_bond_atom_site_label_1
_geom_bond_atom_site_label_2
_geom_bond_distance
_geom_bond_site_symmetry_2
_ccdc_geom_bond_type
C0 C1 1.387 . S
C0 C5 1.380 1_545 S
C0 C16 1.494 . S
C1 C0 1.387 . S
C1 C2 1.386 1_545 S
C1 H32 0.930 . S
C2 C1 1.386 1_565 S
C2 C3 1.397 . S
C3 C2 1.397 . S
C3 C4 1.393 . S
C3 H33 0.930 . S
C4 C3 1.393 . S
C4 C5 1.395 . S
C5 C0 1.380 1_565 S
C5 C4 1.395 . S
C5 H34 0.930 . S
O6 Tb7 2.295 1_655 S
O6 C19 1.242 1_545 S
Tb7 O6 2.295 1_455 S
Tb7 O8 2.312 . S
Tb7 O11 2.438 . S
Tb7 O13 2.472 . S
Tb7 O15 2.308 1_554 S
Tb7 C16 2.821 . S
O8 Tb7 2.312 . S
O8 C28 1.264 . S
O9 Eu10 2.308 1_554 S
O9 C19 1.243 . S
Eu10 O9 2.308 1_556 S
Eu10 C12 2.821 . S
Eu10 O14 2.295 1_655 S
Eu10 O21 2.312 . S
Eu10 O30 2.438 . S
Eu10 O31 2.472 . S
O11 Tb7 2.438 . S
O11 C16 1.263 . S
C12 Eu10 2.821 . S
C12 C22 1.494 . S
C12 O30 1.263 . S
C12 O31 1.264 . S
O13 Tb7 2.472 . S
O13 C16 1.264 . S
O14 Eu10 2.295 1_455 S
O14 C20 1.242 1_565 S
O15 Tb7 2.308 1_556 S
O15 C20 1.243 . S
C16 C0 1.494 . S
C16 Tb7 2.821 . S
C16 O11 1.263 . S
C16 O13 1.264 . S
C17 O18 1.260 . S
C17 O21 1.264 . S
O18 C17 1.260 . S
C19 O6 1.242 1_565 S
C19 O9 1.243 . S
C20 O14 1.242 1_545 S
C20 O15 1.243 . S
O21 Eu10 2.312 . S
O21 C17 1.264 . S
C22 C12 1.494 . S
C22 C24 1.380 1_565 S
C22 C25 1.387 . S
C23 C24 1.395 . S
C23 C27 1.393 . S
C24 C22 1.380 1_545 S
C24 C23 1.395 . S
C24 H35 0.930 . S
C25 C22 1.387 . S
C25 C26 1.386 1_565 S
C25 H36 0.930 . S
C26 C25 1.386 1_545 S
C26 C27 1.397 . S
C27 C23 1.393 . S
C27 C26 1.397 . S
C27 H37 0.930 . S
C28 O8 1.264 . S
C28 O29 1.260 . S
O29 C28 1.260 . S
O30 Eu10 2.438 . S
O30 C12 1.263 . S
O31 Eu10 2.472 . S
O31 C12 1.264 . S
H32 C1 0.930 . S
H33 C3 0.930 . S
H34 C5 0.930 . S
H35 C24 0.930 . S
H36 C25 0.930 . S
H37 C27 0.930 . S
C38 C39 1.387 . S
C38 C43 1.380 . S
C38 C54 1.494 . S
C39 C38 1.387 . S
C39 C40 1.386 . S
C39 H70 0.930 . S
C40 C39 1.386 . S
C40 C41 1.397 . S
C41 C40 1.397 . S
C41 C42 1.393 . S
C41 H71 0.930 . S
C42 C41 1.393 . S
C42 C43 1.395 . S
C43 C38 1.380 . S
C43 C42 1.395 . S
C43 H72 0.930 . S
O44 Tb45 2.295 . S
O44 C57 1.242 . S
Tb45 O44 2.295 . S
Tb45 O46 2.312 . S
Tb45 O49 2.438 . S
Tb45 O51 2.472 . S
Tb45 O53 2.308 . S
Tb45 C54 2.821 . S
O46 Tb45 2.312 . S
O46 C66 1.264 . S
O47 Eu48 2.308 . S
O47 C57 1.243 . S
Eu48 O47 2.308 . S
Eu48 C50 2.821 . S
Eu48 O52 2.295 . S
Eu48 O59 2.312 . S
Eu48 O68 2.438 . S
Eu48 O69 2.472 . S
O49 Tb45 2.438 . S
O49 C54 1.263 . S
C50 Eu48 2.821 . S
C50 C60 1.494 . S
C50 O68 1.263 . S
C50 O69 1.264 . S
O51 Tb45 2.472 . S
O51 C54 1.264 . S
O52 Eu48 2.295 . S
O52 C58 1.242 . S
O53 Tb45 2.308 . S
O53 C58 1.243 . S
C54 C38 1.494 . S
C54 Tb45 2.821 . S
C54 O49 1.263 . S
C54 O51 1.264 . S
C55 O56 1.260 . S
C55 O59 1.264 . S
O56 C55 1.260 . S
C57 O44 1.242 . S
C57 O47 1.243 . S
C58 O52 1.242 . S
C58 O53 1.243 . S
O59 Eu48 2.312 . S
O59 C55 1.264 . S
C60 C50 1.494 . S
C60 C62 1.380 . S
C60 C63 1.387 . S
C61 C62 1.395 . S
C61 C65 1.393 . S
C62 C60 1.380 . S
C62 C61 1.395 . S
C62 H73 0.930 . S
C63 C60 1.387 . S
C63 C64 1.386 . S
C63 H74 0.930 . S
C64 C63 1.386 . S
C64 C65 1.397 . S
C65 C61 1.393 . S
C65 C64 1.397 . S
C65 H75 0.930 . S
C66 O46 1.264 . S
C66 O67 1.260 . S
O67 C66 1.260 . S
O68 Eu48 2.438 . S
O68 C50 1.263 . S
O69 Eu48 2.472 . S
O69 C50 1.264 . S
H70 C39 0.930 . S
H71 C41 0.930 . S
H72 C43 0.930 . S
H73 C62 0.930 . S
H74 C63 0.930 . S
H75 C65 0.930 . S
C76 C77 1.387 . S
C76 C81 1.380 . S
C76 C92 1.494 . S
C77 C76 1.387 . S
C77 C78 1.386 . S
C77 H108 0.930 . S
C78 C77 1.386 . S
C78 C79 1.397 . S
C79 C78 1.397 . S
C79 C80 1.393 . S
C79 H109 0.930 . S
C80 C79 1.393 . S
C80 C81 1.395 . S
C81 C76 1.380 . S
C81 C80 1.395 . S
C81 H110 0.930 . S
O82 Tb83 2.295 . S
O82 C95 1.242 . S
Tb83 O82 2.295 . S
Tb83 O84 2.312 . S
Tb83 O87 2.438 . S
Tb83 O89 2.472 . S
Tb83 O91 2.308 . S
Tb83 C92 2.821 . S
O84 Tb83 2.312 . S
O84 C104 1.264 . S
O85 Eu86 2.308 . S
O85 C95 1.243 . S
Eu86 O85 2.308 . S
Eu86 C88 2.821 . S
Eu86 O90 2.295 . S
Eu86 O97 2.312 . S
Eu86 O106 2.438 . S
Eu86 O107 2.472 . S
O87 Tb83 2.438 . S
O87 C92 1.263 . S
C88 Eu86 2.821 . S
C88 C98 1.494 . S
C88 O106 1.263 . S
C88 O107 1.264 . S
O89 Tb83 2.472 . S
O89 C92 1.264 . S
O90 Eu86 2.295 . S
O90 C96 1.242 . S
O91 Tb83 2.308 . S
O91 C96 1.243 . S
C92 C76 1.494 . S
C92 Tb83 2.821 . S
C92 O87 1.263 . S
C92 O89 1.264 . S
C93 O94 1.260 . S
C93 O97 1.264 . S
O94 C93 1.260 . S
C95 O82 1.242 . S
C95 O85 1.243 . S
C96 O90 1.242 . S
C96 O91 1.243 . S
O97 Eu86 2.312 . S
O97 C93 1.264 . S
C98 C88 1.494 . S
C98 C100 1.380 . S
C98 C101 1.387 . S
C99 C100 1.395 . S
C99 C103 1.393 . S
C100 C98 1.380 . S
C100 C99 1.395 . S
C100 H111 0.930 . S
C101 C98 1.387 . S
C101 C102 1.386 . S
C101 H112 0.930 . S
C102 C101 1.386 . S
C102 C103 1.397 . S
C103 C99 1.393 . S
C103 C102 1.397 . S
C103 H113 0.930 . S
C104 O84 1.264 . S
C104 O105 1.260 . S
O105 C104 1.260 . S
O106 Eu86 2.438 . S
O106 C88 1.263 . S
O107 Eu86 2.472 . S
O107 C88 1.264 . S
H108 C77 0.930 . S
H109 C79 0.930 . S
H110 C81 0.930 . S
H111 C100 0.930 . S
H112 C101 0.930 . S
H113 C103 0.930 . S
H114 C122 0.950 . S
H115 C127 0.950 . S
H116 C124 0.950 1_455 S
H117 C126 0.950 . S
H118 C128 0.950 . S
H119 C130 0.950 1_655 S
H120 C132 0.950 . S
H121 C133 0.950 . S
C122 H114 0.950 . S
C122 C123 1.386 . S
C122 C124 1.391 . S
C123 C122 1.386 . S
C123 C127 1.393 1_545 S
C124 H116 0.950 1_655 S
C124 C122 1.391 . S
C124 C125 1.400 . S
C125 C124 1.400 . S
C125 C126 1.398 1_545 S
C125 C131 1.491 1_645 S
C126 H117 0.950 . S
C126 C125 1.398 1_565 S
C126 C127 1.391 . S
C127 H115 0.950 . S
C127 C123 1.393 1_565 S
C127 C126 1.391 . S
C128 H118 0.950 . S
C128 C129 1.386 . S
C128 C130 1.391 . S
C129 C128 1.386 . S
C129 C133 1.393 1_565 S
C130 H119 0.950 1_455 S
C130 C128 1.391 . S
C130 C131 1.400 . S
C131 C125 1.491 1_465 S
C131 C130 1.400 . S
C131 C132 1.398 1_565 S
C132 H120 0.950 . S
C132 C131 1.398 1_545 S
C132 C133 1.391 . S
C133 H121 0.950 . S
C133 C129 1.393 1_545 S
C133 C132 1.391 . S
H134 C142 0.950 . S
H135 C147 0.950 . S
H136 C144 0.950 . S
H137 C146 0.950 . S
H138 C148 0.950 . S
H139 C150 0.950 . S
H140 C152 0.950 . S
H141 C153 0.950 1_554 S
C142 H134 0.950 . S
C142 C143 1.386 . S
C142 C144 1.391 . S
C143 C142 1.386 . S
C143 C147 1.393 . S
C144 H136 0.950 . S
C144 C142 1.391 . S
C144 C145 1.400 . S
C145 C144 1.400 . S
C145 C146 1.398 . S
C145 C151 1.491 . S
C146 H137 0.950 . S
C146 C145 1.398 . S
C146 C147 1.391 . S
C147 H135 0.950 . S
C147 C143 1.393 . S
C147 C146 1.391 . S
C148 H138 0.950 . S
C148 C149 1.383 1_556 S
C148 C150 1.391 . S
C149 C148 1.383 1_554 S
C149 C153 1.391 1_554 S
C150 H139 0.950 . S
C150 C148 1.391 . S
C150 C151 1.400 . S
C151 C145 1.491 . S
C151 C150 1.400 . S
C151 C152 1.398 . S
C152 H140 0.950 . S
C152 C151 1.398 . S
C152 C153 1.391 . S
C153 H141 0.950 1_556 S
C153 C149 1.391 1_556 S
C153 C152 1.391 . S
H154 C162 0.950 . S
H155 C167 0.950 1_556 S
H156 C164 0.950 . S
H157 C166 0.950 . S
H158 C168 0.950 . S
H159 C170 0.950 . S
H160 C172 0.950 . S
H161 C173 0.950 . S
C162 H154 0.950 . S
C162 C163 1.386 1_554 S
C162 C164 1.391 . S
C163 C162 1.386 1_556 S
C163 C167 1.393 1_556 S
C164 H156 0.950 . S
C164 C162 1.391 . S
C164 C165 1.400 . S
C165 C164 1.400 . S
C165 C166 1.398 . S
C165 C171 1.491 . S
C166 H157 0.950 . S
C166 C165 1.398 . S
C166 C167 1.391 . S
C167 H155 0.950 1_554 S
C167 C163 1.393 1_554 S
C167 C166 1.391 . S
C168 H158 0.950 . S
C168 C169 1.386 . S
C168 C170 1.391 . S
C169 C168 1.386 . S
C169 C173 1.393 . S
C170 H159 0.950 . S
C170 C168 1.391 . S
C170 C171 1.400 . S
C171 C165 1.491 . S
C171 C170 1.400 . S
C171 C172 1.398 . S
C172 H160 0.950 . S
C172 C171 1.398 . S
C172 C173 1.391 . S
C173 H161 0.950 . S
C173 C169 1.393 . S
C173 C172 1.391 . S
H174 C182 0.950 . S
H175 C187 0.950 . S
H176 C184 0.950 . S
H177 C186 0.950 . S
H178 C188 0.950 . S
H179 C190 0.950 . S
H180 C192 0.950 . S
H181 C193 0.950 . S
C182 H174 0.950 . S
C182 C183 1.386 . S
C182 C184 1.391 . S
C183 C182 1.386 . S
C183 C187 1.393 . S
C184 H176 0.950 . S
C184 C182 1.391 . S
C184 C185 1.400 . S
C185 C184 1.400 . S
C185 C186 1.398 . S
C185 C191 1.491 . S
C186 H177 0.950 . S
C186 C185 1.398 . S
C186 C187 1.391 . S
C187 H175 0.950 . S
C187 C183 1.393 . S
C187 C186 1.391 . S
C188 H178 0.950 . S
C188 C189 1.386 . S
C188 C190 1.391 . S
C189 C188 1.386 . S
C189 C193 1.393 . S
C190 H179 0.950 . S
C190 C188 1.391 . S
C190 C191 1.400 . S
C191 C185 1.491 . S
C191 C190 1.400 . S
C191 C192 1.398 . S
C192 H180 0.950 . S
C192 C191 1.398 . S
C192 C193 1.391 . S
C193 H181 0.950 . S
C193 C189 1.393 . S
C193 C192 1.391 . S
H194 C202 0.950 . S
H195 C207 0.950 . S
H196 C204 0.950 . S
H197 C206 0.950 . S
H198 C208 0.950 . S
H199 C210 0.950 . S
H200 C212 0.950 . S
H201 C213 0.950 . S
C202 H194 0.950 . S
C202 C203 1.386 . S
C202 C204 1.391 . S
C203 C202 1.386 . S
C203 C207 1.393 . S
C204 H196 0.950 . S
C204 C202 1.391 . S
C204 C205 1.400 . S
C205 C204 1.400 . S
C205 C206 1.398 . S
C205 C211 1.491 . S
C206 H197 0.950 . S
C206 C205 1.398 . S
C206 C207 1.391 . S
C207 H195 0.950 . S
C207 C203 1.393 . S
C207 C206 1.391 . S
C208 H198 0.950 . S
C208 C209 1.386 . S
C208 C210 1.391 . S
C209 C208 1.386 . S
C209 C213 1.393 . S
C210 H199 0.950 . S
C210 C208 1.391 . S
C210 C211 1.400 . S
C211 C205 1.491 . S
C211 C210 1.400 . S
C211 C212 1.398 . S
C212 H200 0.950 . S
C212 C211 1.398 . S
C212 C213 1.391 . S
C213 H201 0.950 . S
C213 C209 1.393 . S
C213 C212 1.391 . S
H214 C222 0.950 . S
H215 C227 0.950 . S
H216 C224 0.950 . S
H217 C226 0.950 . S
H218 C228 0.950 . S
H219 C230 0.950 . S
H220 C232 0.950 . S
H221 C233 0.950 . S
C222 H214 0.950 . S
C222 C223 1.386 . S
C222 C224 1.391 . S
C223 C222 1.386 . S
C223 C227 1.393 . S
C224 H216 0.950 . S
C224 C222 1.391 . S
C224 C225 1.400 . S
C225 C224 1.400 . S
C225 C226 1.398 . S
C225 C231 1.491 . S
C226 H217 0.950 . S
C226 C225 1.398 . S
C226 C227 1.391 . S
C227 H215 0.950 . S
C227 C223 1.393 . S
C227 C226 1.391 . S
C228 H218 0.950 . S
C228 C229 1.386 . S
C228 C230 1.391 . S
C229 C228 1.386 . S
C229 C233 1.393 . S
C230 H219 0.950 . S
C230 C228 1.391 . S
C230 C231 1.400 . S
C231 C225 1.491 . S
C231 C230 1.400 . S
C231 C232 1.398 . S
C232 H220 0.950 . S
C232 C231 1.398 . S
C232 C233 1.391 . S
C233 H221 0.950 . S
C233 C229 1.393 . S
C233 C232 1.391 . S
H234 C242 0.950 . S
H235 C247 0.950 . S
H236 C244 0.950 . S
H237 C246 0.950 . S
H238 C248 0.950 1_455 S
H239 C250 0.950 . S
H240 C252 0.950 . S
H241 C253 0.950 . S
C242 H234 0.950 . S
C242 C243 1.386 . S
C242 C244 1.391 . S
C243 C242 1.386 . S
C243 C247 1.393 . S
C244 H236 0.950 . S
C244 C242 1.391 . S
C244 C245 1.400 . S
C245 C244 1.400 . S
C245 C246 1.398 . S
C245 C251 1.491 . S
C246 H237 0.950 . S
C246 C245 1.398 . S
C246 C247 1.391 . S
C247 H235 0.950 . S
C247 C243 1.393 . S
C247 C246 1.391 . S
C248 H238 0.950 1_655 S
C248 C249 1.386 . S
C248 C250 1.391 . S
C249 C248 1.386 . S
C249 C253 1.393 . S
C250 H239 0.950 . S
C250 C248 1.391 . S
C250 C251 1.400 . S
C251 C245 1.491 . S
C251 C250 1.400 . S
C251 C252 1.398 . S
C252 H240 0.950 . S
C252 C251 1.398 . S
C252 C253 1.391 . S
C253 H241 0.950 . S
C253 C249 1.393 . S
C253 C252 1.391 . S
H254 C262 0.950 . S
H255 C267 0.950 . S
H256 C264 0.950 . S
H257 C266 0.950 . S
H258 C268 0.950 . S
H259 C270 0.950 . S
H260 C272 0.950 . S
H261 C273 0.950 . S
C262 H254 0.950 . S
C262 C263 1.386 . S
C262 C264 1.391 . S
C263 C262 1.386 . S
C263 C267 1.393 . S
C264 H256 0.950 . S
C264 C262 1.391 . S
C264 C265 1.400 . S
C265 C264 1.400 . S
C265 C266 1.398 . S
C265 C271 1.491 . S
C266 H257 0.950 . S
C266 C265 1.398 . S
C266 C267 1.391 . S
C267 H255 0.950 . S
C267 C263 1.393 . S
C267 C266 1.391 . S
C268 H258 0.950 . S
C268 C269 1.386 . S
C268 C270 1.391 . S
C269 C268 1.386 . S
C269 C273 1.393 . S
C270 H259 0.950 . S
C270 C268 1.391 . S
C270 C271 1.400 . S
C271 C265 1.491 . S
C271 C270 1.400 . S
C271 C272 1.398 . S
C272 H260 0.950 . S
C272 C271 1.398 . S
C272 C273 1.391 . S
C273 H261 0.950 . S
C273 C269 1.393 . S
C273 C272 1.391 . S
H274 C282 0.950 . S
H275 C287 0.950 . S
H276 C284 0.950 . S
H277 C286 0.950 . S
H278 C288 0.950 . S
H279 C290 0.950 . S
H280 C292 0.950 . S
H281 C293 0.950 . S
C282 H274 0.950 . S
C282 C283 1.386 . S
C282 C284 1.391 . S
C283 C282 1.386 . S
C283 C287 1.393 . S
C284 H276 0.950 . S
C284 C282 1.391 . S
C284 C285 1.400 . S
C285 C284 1.400 . S
C285 C286 1.398 . S
C285 C291 1.491 . S
C286 H277 0.950 . S
C286 C285 1.398 . S
C286 C287 1.391 . S
C287 H275 0.950 . S
C287 C283 1.393 . S
C287 C286 1.391 . S
C288 H278 0.950 . S
C288 C289 1.386 . S
C288 C290 1.391 . S
C289 C288 1.386 . S
C289 C293 1.393 . S
C290 H279 0.950 . S
C290 C288 1.391 . S
C290 C291 1.400 . S
C291 C285 1.491 . S
C291 C290 1.400 . S
C291 C292 1.398 . S
C292 H280 0.950 . S
C292 C291 1.398 . S
C292 C293 1.391 . S
C293 H281 0.950 . S
C293 C289 1.393 . S
C293 C292 1.391 . S
H294 C302 0.950 . S
H295 C307 0.950 . S
H296 C304 0.950 . S
H297 C306 0.950 . S
H298 C308 0.950 . S
H299 C310 0.950 . S
H300 C312 0.950 . S
H301 C313 0.950 . S
C302 H294 0.950 . S
C302 C303 1.386 . S
C302 C304 1.391 1_554 S
C303 C302 1.386 . S
C303 C307 1.393 . S
C304 H296 0.950 . S
C304 C302 1.391 1_556 S
C304 C305 1.400 1_556 S
C305 C304 1.400 1_554 S
C305 C306 1.398 . S
C305 C311 1.491 1_554 S
C306 H297 0.950 . S
C306 C305 1.398 . S
C306 C307 1.391 . S
C307 H295 0.950 . S
C307 C303 1.393 . S
C307 C306 1.391 . S
C308 H298 0.950 . S
C308 C309 1.386 . S
C308 C310 1.391 1_556 S
C309 C308 1.386 . S
C309 C313 1.393 . S
C310 H299 0.950 . S
C310 C308 1.391 1_554 S
C310 C311 1.400 1_554 S
C311 C305 1.491 1_556 S
C311 C310 1.400 1_556 S
C311 C312 1.398 . S
C312 H300 0.950 . S
C312 C311 1.398 . S
C312 C313 1.391 . S
C313 H301 0.950 . S
C313 C309 1.393 . S
C313 C312 1.391 . S
H314 C322 0.950 . S
H315 C327 0.950 . S
H316 C324 0.950 1_545 S
H317 C326 0.950 1_554 S
H318 C328 0.950 . S
H319 C330 0.950 1_565 S
H320 C332 0.950 1_556 S
H321 C333 0.950 . S
C322 H314 0.950 . S
C322 C323 1.386 . S
C322 C324 1.391 . S
C323 C322 1.386 . S
C323 C327 1.393 . S
C324 H316 0.950 1_565 S
C324 C322 1.391 . S
C324 C325 1.400 . S
C325 C324 1.400 . S
C325 C326 1.398 . S
C325 C331 1.491 1_566 S
C326 H317 0.950 1_556 S
C326 C325 1.398 . S
C326 C327 1.391 . S
C327 H315 0.950 . S
C327 C323 1.393 . S
C327 C326 1.391 . S
C328 H318 0.950 . S
C328 C329 1.386 . S
C328 C330 1.391 . S
C329 C328 1.386 . S
C329 C333 1.393 . S
C330 H319 0.950 1_545 S
C330 C328 1.391 . S
C330 C331 1.400 . S
C331 C325 1.491 1_544 S
C331 C330 1.400 . S
C331 C332 1.398 . S
C332 H320 0.950 1_554 S
C332 C331 1.398 . S
C332 C333 1.391 . S
C333 H321 0.950 . S
C333 C329 1.393 . S
C333 C332 1.391 . S
H334 C342 0.950 . S
H335 C347 0.950 . S
H336 C344 0.950 . S
H337 C346 0.950 . S
H338 C348 0.950 . S
H339 C350 0.950 . S
H340 C352 0.950 . S
H341 C353 0.950 . S
C342 H334 0.950 . S
C342 C343 1.386 . S
C342 C344 1.391 . S
C343 C342 1.386 . S
C343 C347 1.393 . S
C344 H336 0.950 . S
C344 C342 1.391 . S
C344 C345 1.400 . S
C345 C344 1.400 . S
C345 C346 1.398 . S
C345 C351 1.491 1_456 S
C346 H337 0.950 . S
C346 C345 1.398 . S
C346 C347 1.391 . S
C347 H335 0.950 . S
C347 C343 1.393 . S
C347 C346 1.391 . S
C348 H338 0.950 . S
C348 C349 1.386 . S
C348 C350 1.391 . S
C349 C348 1.386 . S
C349 C353 1.393 . S
C350 H339 0.950 . S
C350 C348 1.391 . S
C350 C351 1.400 . S
C351 C345 1.491 1_654 S
C351 C350 1.400 . S
C351 C352 1.398 . S
C352 H340 0.950 . S
C352 C351 1.398 . S
C352 C353 1.391 . S
C353 H341 0.950 . S
C353 C349 1.393 . S
C353 C352 1.391 . S
C123 C26 0.702 . S
C129 C2 0.702 . S
C143 C40 0.744 . S
C149 C64 0.750 . S
C163 C78 0.709 . S
C169 C102 0.709 . S
C183 C99 2.438 . S
C189 C4 2.438 . S
C203 C93 1.321 . S
C209 C28 1.319 . S
C223 C96 1.573 . S
C229 C19 1.572 . S
C243 C42 2.440 . S
C249 C23 2.440 . S
C263 C66 1.284 . S
C269 C17 1.286 . S
C283 C57 1.569 . S
C289 C20 1.570 . S
C303 C61 2.430 . S
C309 C80 2.430 . S
C323 C104 1.313 . S
C329 C55 1.313 . S
C343 C95 1.574 . S
C349 C58 1.574 . S
