# Generated by pormake.
# Topology zfs, (5)-cn, num edge types: 1
# Building blocks:
#     Node 0, Type 0, BuildingBlock: XOMCOT_clean_sbu_0, # of connection points: 5
#     Node 1, Type 0, BuildingBlock: XOMCOT_clean_sbu_0, # of connection points: 5
#     Node 2, Type 0, BuildingBlock: XOMCOT_clean_sbu_0, # of connection points: 5
#     Node 3, Type 0, BuildingBlock: XOMCOT_clean_sbu_0, # of connection points: 5
#     Node 4, Type 0, BuildingBlock: XOMCOT_clean_sbu_0, # of connection points: 5
#     Node 5, Type 0, BuildingBlock: XOMCOT_clean_sbu_0, # of connection points: 5
#     Node 6, Type 0, BuildingBlock: XOMCOT_clean_sbu_0, # of connection points: 5
#     Node 7, Type 0, BuildingBlock: XOMCOT_clean_sbu_0, # of connection points: 5
#     Edge 8, Type (0, 0), BuildingBlock: KIFKEQ_clean_linker_1, # of connection points: 2
#     Edge 9, Type (0, 0), BuildingBlock: KIFKEQ_clean_linker_1, # of connection points: 2
#     Edge 10, Type (0, 0), BuildingBlock: KIFKEQ_clean_linker_1, # of connection points: 2
#     Edge 11, Type (0, 0), BuildingBlock: KIFKEQ_clean_linker_1, # of connection points: 2
#     Edge 12, Type (0, 0), BuildingBlock: KIFKEQ_clean_linker_1, # of connection points: 2
#     Edge 13, Type (0, 0), BuildingBlock: KIFKEQ_clean_linker_1, # of connection points: 2
#     Edge 14, Type (0, 0), BuildingBlock: KIFKEQ_clean_linker_1, # of connection points: 2
#     Edge 15, Type (0, 0), BuildingBlock: KIFKEQ_clean_linker_1, # of connection points: 2
#     Edge 16, Type (0, 0), BuildingBlock: KIFKEQ_clean_linker_1, # of connection points: 2
#     Edge 17, Type (0, 0), BuildingBlock: KIFKEQ_clean_linker_1, # of connection points: 2
#     Edge 18, Type (0, 0), BuildingBlock: KIFKEQ_clean_linker_1, # of connection points: 2
#     Edge 19, Type (0, 0), BuildingBlock: KIFKEQ_clean_linker_1, # of connection points: 2
#     Edge 20, Type (0, 0), BuildingBlock: KIFKEQ_clean_linker_1, # of connection points: 2
#     Edge 21, Type (0, 0), BuildingBlock: KIFKEQ_clean_linker_1, # of connection points: 2
#     Edge 22, Type (0, 0), BuildingBlock: KIFKEQ_clean_linker_1, # of connection points: 2
#     Edge 23, Type (0, 0), BuildingBlock: KIFKEQ_clean_linker_1, # of connection points: 2
#     Edge 24, Type (0, 0), BuildingBlock: KIFKEQ_clean_linker_1, # of connection points: 2
#     Edge 25, Type (0, 0), BuildingBlock: KIFKEQ_clean_linker_1, # of connection points: 2
#     Edge 26, Type (0, 0), BuildingBlock: KIFKEQ_clean_linker_1, # of connection points: 2
#     Edge 27, Type (0, 0), BuildingBlock: KIFKEQ_clean_linker_1, # of connection points: 2
# Relax obj value: 0.132
# Max RMSD: 0.159
# Mean RMSD: 0.159
data_MOF--net-zfs--node1-XOMCOT_clean_sbu_0--edge1-KIFKEQ_clean_linker_1
_symmetry_space_group_name_H-M    P1
_symmetry_Int_Tables_number       1
_symmetry_cell_setting            triclinic
loop_
_symmetry_equiv_pos_as_xyz
'x, y, z'
_cell_length_a     34.474353
_cell_length_b     34.304666
_cell_length_c     41.441153
_cell_angle_alpha  89.811574
_cell_angle_beta   89.995088
_cell_angle_gamma 89.64504
loop_
_atom_site_label
_atom_site_type_symbol
_atom_site_fract_x
_atom_site_fract_y
_atom_site_fract_z
_atom_type_partial_charge
Co0 Co 0.04751 0.24997 0.19734 0.0
C1 C 1.01019 0.26006 0.13479 0.0
C2 C 0.98619 0.21211 0.16076 0.0
C3 C 0.97706 0.20803 0.12859 0.0
N4 N 1.00755 0.24462 0.16467 0.0
N5 N 0.99319 0.23775 0.11217 0.0
H6 H 0.02895 0.28391 0.12886 0.0
H7 H 0.98259 0.18975 0.17895 0.0
C8 C 0.97505 0.23607 0.23575 0.0
O9 O 0.95685 0.26128 0.21712 0.0
N10 N 0.08786 0.2545 0.22892 0.0
C11 C 0.11502 0.28248 0.22989 0.0
C12 C 0.13894 0.27532 0.25578 0.0
C13 C 0.09553 0.23055 0.2539 0.0
N14 N 0.12669 0.24265 0.27081 0.0
C15 C 0.0413 0.33227 0.18368 0.0
C16 C 1.01576 0.35438 0.24413 0.0
C17 C 1.02264 0.38343 0.22097 0.0
C18 C 0.03561 0.3718 0.19038 0.0
C19 C 1.02203 0.31519 0.23645 0.0
N20 N 0.03332 0.30423 0.20614 0.0
H21 H 0.05455 0.3247 0.16106 0.0
H22 H 1.01947 0.29397 0.25557 0.0
H23 H 0.11718 0.30644 0.21298 0.0
H24 H 0.07904 0.20457 0.25916 0.0
O25 O 0.086 0.25738 0.16352 0.0
O26 O 0.06835 0.20034 0.18367 0.0
O27 O 1.0112 0.22927 0.23156 0.0
C28 C 0.08914 0.21953 0.1629 0.0
H29 H 0.96434 0.18243 0.11777 0.0
H30 H 0.16314 0.29314 0.26315 0.0
H31 H 1.00635 0.36178 0.26828 0.0
H32 H 0.04316 0.39314 0.17216 0.0
Co33 Co 0.79889 0.05067 0.4464 0.0
C34 C 0.7815 1.0126 0.38595 0.0
C35 C 0.82735 0.98248 0.4107 0.0
C36 C 0.8262 0.96972 0.37916 0.0
N37 N 0.79961 1.00981 0.41463 0.0
N38 N 0.7978 0.9894 0.36344 0.0
H39 H 0.76049 0.03527 0.38055 0.0
H40 H 0.84962 0.97561 0.42824 0.0
C41 C 0.80436 1.00458 0.50859 0.0
O42 O 0.77342 1.02291 0.51937 0.0
N43 N 0.79901 0.09308 0.47752 0.0
C44 C 0.78486 0.12948 0.47249 0.0
C45 C 0.79592 0.15315 0.49733 0.0
C46 C 0.82003 0.09591 0.50495 0.0
N47 N 0.81798 0.13201 0.51768 0.0
C48 C 0.71733 0.0684 0.45183 0.0
C49 C 0.69354 0.9944 0.46901 0.0
C50 C 0.66647 1.02498 0.46895 0.0
C51 C 0.6785 0.06211 0.45957 0.0
C52 C 0.73242 1.00216 0.46151 0.0
N53 N 0.74431 0.03934 0.45487 0.0
H54 H 0.72535 0.09662 0.44298 0.0
H55 H 0.75313 0.97838 0.46165 0.0
H56 H 0.76983 0.13949 0.45116 0.0
H57 H 0.8386 0.07309 0.51438 0.0
O58 O 0.79304 0.08848 0.41175 0.0
O59 O 0.84923 0.06769 0.43142 0.0
O60 O 0.81758 1.01216 0.4804 0.0
C61 C 0.83076 0.08943 0.41062 0.0
H62 H 0.8471 0.95031 0.36805 0.0
H63 H 0.7892 0.18387 0.49974 0.0
H64 H 0.6849 0.96507 0.47539 0.0
H65 H 0.65794 0.08608 0.45808 0.0
Co66 Co 0.99989 0.80729 0.70003 0.0
C67 C 0.03456 0.79563 0.63632 0.0
C68 C 0.06722 0.83659 0.6637 0.0
C69 C 0.07955 0.83812 0.63208 0.0
N70 N 0.03914 0.80953 0.66648 0.0
N71 N 0.05854 0.81254 0.61483 0.0
H72 H 1.01034 0.77797 0.62912 0.0
H73 H 0.07524 0.85699 0.68233 0.0
C74 C 0.07358 0.81517 0.73897 0.0
O75 O 0.08998 0.78774 0.7215 0.0
N76 N 0.96032 0.80563 0.73251 0.0
C77 C 0.93123 0.77974 0.73401 0.0
C78 C 0.91003 0.78688 0.76143 0.0
C79 C 0.95649 0.82837 0.75871 0.0
N80 N 0.92592 0.81745 0.77696 0.0
C81 C 1.00351 0.72475 0.68597 0.0
C82 C 0.02469 0.70086 0.74727 0.0
C83 C 1.01848 0.67233 0.72367 0.0
C84 C 1.00766 0.68489 0.69265 0.0
C85 C 1.02001 0.74036 0.73961 0.0
N86 N 1.01074 0.75215 0.70898 0.0
H87 H 0.99257 0.73321 0.66269 0.0
H88 H 1.02259 0.76135 0.75882 0.0
H89 H 0.92632 0.75679 0.71668 0.0
H90 H 0.97563 0.85232 0.76416 0.0
O91 O 0.95964 0.8027 0.6672 0.0
O92 O 0.98217 0.85827 0.68639 0.0
O93 O 0.03844 0.82536 0.73356 0.0
C94 C 0.95898 0.84069 0.66653 0.0
H95 H 0.09989 0.85888 0.62219 0.0
H96 H 0.88545 0.7701 0.76965 0.0
H97 H 0.03271 0.69287 0.77168 0.0
H98 H 1.00091 0.6641 0.6739 0.0
Co99 Co 0.24742 1.00398 0.94704 0.0
C100 C 0.25479 0.04081 0.88384 0.0
C101 C 0.20569 0.06271 0.90951 0.0
C102 C 0.20091 0.07119 0.87724 0.0
N103 N 0.23944 0.04314 0.9137 0.0
N104 N 0.23144 0.05636 0.861 0.0
H105 H 0.27965 1.02318 0.87815 0.0
H106 H 0.18335 0.06547 0.92769 0.0
C107 C 0.23063 0.07742 0.98369 0.0
O108 O 0.25256 0.09638 0.96308 0.0
N109 N 0.2543 0.96431 0.97926 0.0
C110 C 0.2823 0.93683 0.97993 0.0
C111 C 0.2763 0.91329 0.00636 0.0
C112 C 0.23157 0.95727 0.00495 0.0
N113 N 0.24439 0.92619 0.02207 0.0
C114 C 0.32905 1.01375 0.93285 0.0
C115 C 0.34993 0.0378 0.99396 0.0
C116 C 0.37902 0.03218 0.97087 0.0
C117 C 0.36818 1.02041 0.93985 0.0
C118 C 0.31118 0.03145 0.98583 0.0
N119 N 0.30078 1.0204 0.95533 0.0
H120 H 0.32216 1.0006 0.9101 0.0
H121 H 0.28994 0.03316 0.00488 0.0
H122 H 0.30519 0.93392 0.96223 0.0
H123 H 0.20631 0.97465 0.0109 0.0
O124 O 0.25613 0.96508 0.91364 0.0
O125 O 0.19891 0.98061 0.93431 0.0
O126 O 0.22612 0.0406 0.98099 0.0
C127 C 0.21869 0.96007 0.91366 0.0
H128 H 0.17462 0.08249 0.86629 0.0
H129 H 0.29365 0.88813 0.01299 0.0
H130 H 0.35717 0.04598 0.01845 0.0
H131 H 0.38995 1.01415 0.92171 0.0
Co132 Co 0.04966 0.80457 0.29482 0.0
C133 C 1.01324 0.79716 0.35835 0.0
C134 C 0.98703 0.84319 0.33106 0.0
C135 C 0.97511 0.8464 0.36269 0.0
N136 N 1.01075 0.81192 0.3282 0.0
N137 N 0.99215 0.81762 0.37991 0.0
H138 H 0.03465 0.77587 0.36552 0.0
H139 H 0.98217 0.86481 0.31245 0.0
C140 C 0.97661 0.81982 0.2572 0.0
O141 O 0.9581 0.79628 0.27689 0.0
N142 N 0.08906 0.79801 0.26259 0.0
C143 C 0.11653 0.77 0.26205 0.0
C144 C 0.13984 0.77607 0.23562 0.0
C145 C 0.09588 0.82083 0.23681 0.0
N146 N 0.12682 0.80803 0.21976 0.0
C147 C 0.04053 0.72302 0.31013 0.0
C148 C 1.01624 0.70037 0.24953 0.0
C149 C 1.02234 0.67159 0.27313 0.0
C150 C 0.03445 0.6835 0.30386 0.0
C151 C 1.02289 0.73951 0.25677 0.0
N152 N 0.03393 0.75075 0.28703 0.0
H153 H 0.05293 0.73076 0.33299 0.0
H154 H 1.02096 0.76044 0.23734 0.0
H155 H 0.11958 0.74704 0.27984 0.0
H156 H 0.07846 0.84612 0.23074 0.0
O157 O 0.08857 0.79621 0.32804 0.0
O158 O 0.0723 0.85364 0.30736 0.0
O159 O 1.01296 0.82556 0.26074 0.0
C160 C 0.09309 0.83387 0.32796 0.0
H161 H 0.95816 0.87016 0.3726 0.0
H162 H 0.16494 0.75872 0.22909 0.0
H163 H 1.00728 0.69275 0.22533 0.0
H164 H 0.04112 0.66234 0.32253 0.0
Co165 Co 0.24777 0.04785 0.54432 0.0
C166 C 0.25332 1.00857 0.60712 0.0
C167 C 0.20915 0.9838 0.57753 0.0
C168 C 0.20354 0.97138 0.60878 0.0
N169 N 0.24048 1.00724 0.57638 0.0
N170 N 0.23127 0.98729 0.62728 0.0
H171 H 0.274 0.02953 0.61579 0.0
H172 H 0.18862 0.98018 0.55807 0.0
C173 C 0.23697 0.97593 0.50433 0.0
O174 O 0.26186 0.95768 0.52315 0.0
N175 N 0.25374 0.08863 0.51302 0.0
C176 C 0.28176 0.11574 0.51215 0.0
C177 C 0.27538 0.13948 0.48583 0.0
C178 C 0.23058 0.09615 0.48765 0.0
N179 N 0.24319 0.12707 0.47047 0.0
C180 C 0.32843 0.03916 0.56123 0.0
C181 C 0.35427 1.01762 0.50066 0.0
C182 C 0.38152 1.02301 0.52527 0.0
C183 C 0.36815 0.03389 0.55588 0.0
C184 C 0.31484 1.02381 0.50691 0.0
N185 N 0.30206 0.03333 0.53717 0.0
H186 H 0.31934 0.05013 0.58429 0.0
H187 H 0.2949 1.02273 0.48687 0.0
H188 H 0.30526 0.1179 0.52933 0.0
H189 H 0.20478 0.07961 0.48226 0.0
O190 O 0.25411 0.08602 0.57842 0.0
O191 O 0.19792 0.06911 0.55686 0.0
O192 O 0.2289 1.01185 0.50921 0.0
C193 C 0.2165 0.08971 0.57808 0.0
H194 H 0.17872 0.95545 0.61773 0.0
H195 H 0.29341 0.16358 0.47837 0.0
H196 H 0.3635 1.01062 0.47636 0.0
H197 H 0.38832 0.03918 0.5754 0.0
Co198 Co 1.00324 0.24754 0.79512 0.0
C199 C 0.04258 0.25344 0.85756 0.0
C200 C 0.06518 0.2066 0.82917 0.0
C201 C 0.07692 0.20117 0.8606 0.0
N202 N 0.04346 0.23944 0.82717 0.0
N203 N 0.06232 0.23056 0.87836 0.0
H204 H 1.02277 0.27582 0.86559 0.0
H205 H 0.06788 0.1852 0.81019 0.0
C206 C 0.07567 0.23475 0.75603 0.0
O207 O 0.09461 0.25689 0.7764 0.0
N208 N 0.96274 0.25412 0.76389 0.0
C209 C 0.93394 0.28075 0.76404 0.0
C210 C 0.91036 0.27397 0.73785 0.0
C211 C 0.95643 0.23147 0.73807 0.0
N212 N 0.92458 0.24293 0.72158 0.0
C213 C 1.0094 0.32903 0.81175 0.0
C214 C 0.03237 0.35452 0.75144 0.0
C215 C 0.02468 0.38245 0.7753 0.0
C216 C 1.01336 0.36906 0.80592 0.0
C217 C 0.02777 0.31486 0.75821 0.0
N218 N 1.01725 0.30222 0.7883 0.0
H219 H 0.99752 0.32002 0.83456 0.0
H220 H 0.03066 0.29467 0.73847 0.0
H221 H 0.93018 0.30317 0.78208 0.0
H222 H 0.97498 0.20722 0.73155 0.0
O223 O 0.96546 0.2533 0.8297 0.0
O224 O 0.98201 0.19734 0.80675 0.0
O225 O 0.03932 0.22901 0.7597 0.0
C226 C 0.96156 0.21562 0.82835 0.0
H227 H 0.09128 0.17549 0.87023 0.0
H228 H 0.88441 0.29026 0.73171 0.0
H229 H 0.04095 0.36315 0.72734 0.0
H230 H 1.00563 0.38935 0.82485 0.0
Co231 Co 0.79809 1.00989 0.04926 0.0
C232 C 0.78073 0.04759 0.10984 0.0
C233 C 0.82524 0.07856 0.08458 0.0
C234 C 0.82408 0.09143 0.1161 0.0
N235 N 0.79832 0.05069 0.08098 0.0
N236 N 0.79647 0.0713 0.1321 0.0
H237 H 0.76061 1.02448 0.11553 0.0
H238 H 0.84702 0.08584 0.0668 0.0
C239 C 0.80951 0.04767 0.98445 0.0
O240 O 0.78453 1.02293 0.97234 0.0
N241 N 0.79828 0.96773 0.01837 0.0
C242 C 0.77178 0.93931 0.0148 0.0
C243 C 0.78454 0.91382 0.99163 0.0
C244 C 0.82744 0.95828 -0.00192 0.0
N245 N 0.81944 0.92585 0.98105 0.0
C246 C 0.71607 0.99743 0.05571 0.0
C247 C 0.69142 0.05917 0.01786 0.0
C248 C 0.66381 0.03323 0.03006 0.0
C249 C 0.67645 1.00275 0.05004 0.0
C250 C 0.73077 0.05323 0.02475 0.0
N251 N 0.74301 1.02097 0.04149 0.0
H252 H 0.72501 0.97367 0.07117 0.0
H253 H 0.75095 0.07504 0.01677 0.0
H254 H 0.74523 0.93636 0.02819 0.0
H255 H 0.85384 0.97497 0.99579 0.0
O256 O 0.79375 0.97123 0.08345 0.0
O257 O 0.84907 0.99341 0.06389 0.0
O258 O 0.81616 0.04819 0.01487 0.0
C259 C 0.83144 0.97083 0.08436 0.0
H260 H 0.84444 0.11133 0.12699 0.0
H261 H 0.76887 0.88876 0.98283 0.0
H262 H 0.68259 0.08414 0.0035 0.0
H263 H 0.65596 0.98255 0.06057 0.0
H264 H 0.04302 0.63468 0.21701 0.0
H265 H 0.99425 0.6125 0.31134 0.0
H266 H 0.03976 0.5655 0.2047 0.0
H267 H 0.99166 0.54299 0.29908 0.0
H268 H 0.04165 0.41955 0.27781 0.0
H269 H 0.03826 0.48878 0.29037 0.0
H270 H 0.99283 0.51256 0.19519 0.0
H271 H 0.99557 0.44314 0.18269 0.0
C272 C 0.03102 0.61521 0.23498 0.0
C273 C 1.01879 0.62937 0.26519 0.0
C274 C 0.02925 0.57544 0.22791 0.0
C275 C 1.01546 0.54871 0.2509 0.0
C276 C 1.00288 0.56279 0.28099 0.0
C277 C 1.00443 0.60264 0.28802 0.0
C278 C 0.03022 0.43935 0.25971 0.0
C279 C 1.01886 0.42559 0.22919 0.0
C280 C 0.02837 0.47912 0.26693 0.0
C281 C 1.01536 0.50621 0.24377 0.0
C282 C 1.0035 0.49249 0.21342 0.0
C283 C 1.00513 0.45268 0.20625 0.0
H284 H 0.63328 0.04803 0.52483 0.0
H285 H 0.60855 0.98968 0.43536 0.0
H286 H 0.56512 0.044 0.54023 0.0
H287 H 0.53968 0.98727 0.44961 0.0
H288 H 0.42089 0.96482 0.49385 0.0
H289 H 0.49031 0.96125 0.48206 0.0
H290 H 0.50604 0.07317 0.52787 0.0
H291 H 0.43728 0.07559 0.54071 0.0
C292 C 0.61302 0.03417 0.50856 0.0
C293 C 0.62587 1.01901 0.47906 0.0
C294 C 0.57387 0.03221 0.51713 0.0
C295 C 0.54646 1.01575 0.49604 0.0
C296 C 0.55978 0.99973 0.46672 0.0
C297 C 0.59916 1.00119 0.45841 0.0
C298 C 0.43939 0.98847 0.50148 0.0
C299 C 0.42377 1.02031 0.51842 0.0
C300 C 0.47917 0.98659 0.4946 0.0
C301 C 0.50415 1.01684 0.50408 0.0
C302 C 0.48818 0.04878 0.52086 0.0
C303 C 0.44862 0.05033 0.52814 0.0
H304 H 0.04605 0.61278 0.68556 0.0
H305 H 0.99745 0.63511 0.77989 0.0
H306 H 0.04901 0.54329 0.69803 0.0
H307 H 1.00113 0.56577 0.79245 0.0
H308 H 0.04839 0.44265 0.81433 0.0
H309 H 0.04827 0.51236 0.80223 0.0
H310 H 1.00386 0.48885 0.70693 0.0
H311 H 1.00321 0.41944 0.71908 0.0
C312 C 0.03585 0.60297 0.70891 0.0
C313 C 1.02149 0.62983 0.73166 0.0
C314 C 0.03763 0.56306 0.71608 0.0
C315 C 0.02532 0.54889 0.74626 0.0
C316 C 1.01141 0.57571 0.76916 0.0
C317 C 1.00939 0.61559 0.76193 0.0
C318 C 0.03836 0.45229 0.79085 0.0
C319 C 0.02597 0.42512 0.7677 0.0
C320 C 0.03834 0.49232 0.78391 0.0
C321 C 0.02615 0.50625 0.75357 0.0
C322 C 1.01406 0.47913 0.73034 0.0
C323 C 1.01383 0.43919 0.73734 0.0
H324 H 0.43647 0.07193 0.93954 0.0
H325 H 0.41524 0.99864 0.02234 0.0
H326 H 0.50487 0.07618 0.95444 0.0
H327 H 0.48361 1.00096 0.03649 0.0
H328 H 0.60193 0.03468 0.07113 0.0
H329 H 0.53326 0.03811 0.05734 0.0
H330 H 0.56325 0.04207 0.95598 0.0
H331 H 0.63186 0.04081 0.97023 0.0
C332 C 0.44659 0.05656 0.96084 0.0
C333 C 0.42056 0.03522 0.97991 0.0
C334 C 0.48586 0.05874 0.96934 0.0
C335 C 0.50015 0.03898 0.9968 0.0
C336 C 0.47384 1.01743 0.01567 0.0
C337 C 0.43456 1.01586 0.00749 0.0
C338 C 0.59367 0.0366 0.04595 0.0
C339 C 0.62213 0.03746 0.02175 0.0
C340 C 0.55428 0.03826 0.03793 0.0
C341 C 0.5423 0.03997 0.00543 0.0
C342 C 0.57105 0.04141 0.98128 0.0
C343 C 0.61046 0.04051 0.98938 0.0
H344 H 0.19735 0.08992 0.42728 0.0
H345 H 0.24994 0.20109 0.44822 0.0
H346 H 0.16851 0.11744 0.37856 0.0
H347 H 0.2215 0.22831 0.39928 0.0
H348 H 0.20098 0.24834 0.29142 0.0
H349 H 0.22889 0.21988 0.34005 0.0
H350 H 0.11871 0.16732 0.36293 0.0
H351 H 0.09049 0.19623 0.31442 0.0
C352 C 0.20252 0.12028 0.4217 0.0
C353 C 0.22602 0.14329 0.44171 0.0
C354 C 0.18603 0.13599 0.39375 0.0
C355 C 0.19287 0.17495 0.38513 0.0
C356 C 0.21624 0.198 0.40511 0.0
C357 C 0.23258 0.18236 0.43312 0.0
C358 C 0.18255 0.23105 0.30692 0.0
C359 C 0.14342 0.22477 0.29908 0.0
C360 C 0.19858 0.2147 0.33475 0.0
C361 C 0.17591 0.19157 0.3553 0.0
C362 C 0.13695 0.18474 0.34732 0.0
C363 C 0.12083 0.20125 0.3195 0.0
H364 H 0.848 0.20346 0.52669 0.0
H365 H 0.83013 0.09227 0.57312 0.0
H366 H 0.8751 0.22933 0.57635 0.0
H367 H 0.85643 0.11832 0.6234 0.0
H368 H 0.93738 0.16939 0.6995 0.0
H369 H 0.91425 0.14158 0.6493 0.0
H370 H 0.8521 0.24849 0.62834 0.0
H371 H 0.87705 0.27714 0.67753 0.0
C372 C 0.84974 0.18465 0.54767 0.0
C373 C 0.83666 0.14604 0.54628 0.0
C374 C 0.86511 0.19946 0.57614 0.0
C375 C 0.86738 0.17609 0.60399 0.0
C376 C 0.85534 0.13702 0.60231 0.0
C377 C 0.84028 0.12207 0.57362 0.0
C378 C 0.9192 0.18722 0.68406 0.0
C379 C 0.90939 0.22574 0.69256 0.0
C380 C 0.90552 0.17102 0.65542 0.0
C381 C 0.8815 0.19286 0.63472 0.0
C382 C 0.87113 0.23108 0.64347 0.0
C383 C 0.88501 0.24737 0.67197 0.0
H384 H 0.86833 0.96353 0.94039 0.0
H385 H 0.82007 0.85055 0.96228 0.0
H386 H 0.89815 0.93683 0.89166 0.0
H387 H 0.84936 0.82416 0.91348 0.0
H388 H 0.8542 0.81305 0.80323 0.0
H389 H 0.83331 0.83833 0.85505 0.0
H390 H 0.94733 0.88578 0.87118 0.0
H391 H 0.96887 0.85956 0.8194 0.0
C392 C 0.86472 0.93288 0.93518 0.0
C393 C 0.84134 0.90926 0.95489 0.0
C394 C 0.88173 0.91765 0.90727 0.0
C395 C 0.87548 0.87864 0.89866 0.0
C396 C 0.85393 0.85456 0.91929 0.0
C397 C 0.83712 0.86968 0.94716 0.0
C398 C 0.87509 0.82838 0.81787 0.0
C399 C 0.91334 0.83391 0.80715 0.0
C400 C 0.86306 0.84291 0.84757 0.0
C401 C 0.88886 0.8636 0.86719 0.0
C402 C 0.92688 0.86997 0.85638 0.0
C403 C 0.9391 0.85509 0.82668 0.0
H404 H 0.27999 0.88102 0.06718 0.0
H405 H 0.16973 0.93388 0.04226 0.0
H406 H 0.25077 0.85222 0.11501 0.0
H407 H 0.1409 0.90563 0.0905 0.0
H408 H 0.11887 0.88296 0.19917 0.0
H409 H 0.14697 0.91189 0.15088 0.0
H410 H 0.20038 0.80153 0.12703 0.0
H411 H 0.17174 0.77222 0.17488 0.0
C412 C 0.24953 0.88635 0.0717 0.0
C413 C 0.22726 0.90974 0.05071 0.0
C414 C 0.23283 0.86989 0.09916 0.0
C415 C 0.1936 0.87668 0.10637 0.0
C416 C 0.17135 0.90031 0.08567 0.0
C417 C 0.18796 0.91656 0.05806 0.0
C418 C 0.13616 0.86465 0.1835 0.0
C419 C 0.14306 0.8252 0.19105 0.0
C420 C 0.15232 0.88131 0.15587 0.0
C421 C 0.17593 0.85895 0.13535 0.0
C422 C 0.18274 0.81955 0.14274 0.0
C423 C 0.16637 0.80282 0.17022 0.0
H424 H 0.9504 0.20758 0.0634 0.0
H425 H 0.05801 0.26696 0.08358 0.0
H426 H 0.96836 0.20467 0.00614 0.0
H427 H 0.07481 0.26509 0.02704 0.0
H428 H 0.06658 0.29238 0.91758 0.0
H429 H 0.04831 0.2947 0.97471 0.0
H430 H 1.02323 0.17154 0.97267 0.0
H431 H 0.04175 0.16939 0.91562 0.0
C432 C 0.97754 0.22029 0.05569 0.0
C433 C 1.0022 0.23818 0.07815 0.0
C434 C 0.98784 0.21853 0.02303 0.0
C435 C 1.02284 0.23492 0.01229 0.0
C436 C 0.04734 0.25289 0.03462 0.0
C437 C 0.03734 0.25427 0.06713 0.0
C438 C 0.05778 0.26582 0.92965 0.0
C439 C 0.05625 0.23064 0.9126 0.0
C440 C 0.04721 0.2671 0.96213 0.0
C441 C 0.03424 0.2333 0.97794 0.0
C442 C 0.03288 0.19802 0.96092 0.0
C443 C 0.04405 0.19665 0.92854 0.0
H444 H 0.85221 0.08259 0.17758 0.0
H445 H 0.73371 0.04546 0.16482 0.0
H446 H 0.85016 0.06141 0.23353 0.0
H447 H 0.73238 1.0221 0.22031 0.0
H448 H 0.73438 1.01515 0.33105 0.0
H449 H 0.73237 0.03899 0.27571 0.0
H450 H 0.85086 1.0007 0.26191 0.0
H451 H 0.85358 0.97908 0.31769 0.0
C452 C 0.82548 0.07049 0.18676 0.0
C453 C 0.7932 0.06544 0.1665 0.0
C454 C 0.82456 0.05759 0.21876 0.0
C455 C 0.79143 0.03913 0.23126 0.0
C456 C 0.75842 0.03609 0.21155 0.0
C457 C 0.75925 0.04929 0.17964 0.0
C458 C 0.75995 1.01167 0.31615 0.0
C459 C 0.79426 0.99564 0.32909 0.0
C460 C 0.75873 1.02516 0.28432 0.0
C461 C 0.79171 1.02251 0.26448 0.0
C462 C 0.82525 1.00423 0.27678 0.0
C463 C 0.82657 0.99106 0.3087 0.0
H464 H 0.07447 0.86951 0.57085 0.0
H465 H 0.03085 0.75223 0.58019 0.0
H466 H 0.05752 0.86953 0.5139 0.0
H467 H 1.01118 0.75328 0.52405 0.0
H468 H 1.01159 0.7537 0.41477 0.0
H469 H 0.03168 0.75174 0.47079 0.0
H470 H 1.00208 0.87382 0.48048 0.0
H471 H 0.98484 0.87642 0.42365 0.0
C472 C 0.06163 0.84357 0.56077 0.0
C473 C 0.05371 0.81097 0.58028 0.0
C474 C 0.05117 0.84386 0.52818 0.0
C475 C 0.03225 0.8117 0.51439 0.0
C476 C 0.02582 0.77855 0.53364 0.0
C477 C 0.03677 0.77807 0.56602 0.0
C478 C 1.00946 0.78018 0.4288 0.0
C479 C 0.99711 0.81531 0.41444 0.0
C480 C 1.02065 0.77898 0.46112 0.0
C481 C 1.01902 0.81275 0.48021 0.0
C482 C 1.0047 0.84746 0.46632 0.0
C483 C 0.99403 0.84878 0.43379 0.0
H484 H 0.29239 0.9866 0.66722 0.0
H485 H 0.16828 1.00246 0.66405 0.0
H486 H 0.29254 1.00455 0.72436 0.0
H487 H 0.16822 1.02051 0.72122 0.0
H488 H 0.19727 0.09641 0.81192 0.0
H489 H 0.19576 0.07779 0.75483 0.0
H490 H 0.26568 0.97624 0.77644 0.0
H491 H 0.26649 0.99373 0.83272 0.0
C492 C 0.26515 0.99331 0.67903 0.0
C493 C 0.23033 0.99258 0.66158 0.0
C494 C 0.26517 1.00368 0.71154 0.0
C495 C 0.23039 1.01408 0.72704 0.0
C496 C 0.19543 1.01291 0.7097 0.0
C497 C 0.19538 1.00199 0.67725 0.0
C498 C 0.21232 0.07019 0.80442 0.0
C499 C 0.23251 0.04712 0.82704 0.0
C500 C 0.21135 0.05948 0.77185 0.0
C501 C 0.23079 1.02568 0.76135 0.0
C502 C 0.25101 1.00278 0.78383 0.0
C503 C 0.25171 1.01319 0.81622 0.0
H504 H 0.14584 0.24921 0.12367 0.0
H505 H 0.08332 0.14365 0.14504 0.0
H506 H 0.18192 0.21521 0.08146 0.0
H507 H 0.11737 0.11022 0.1019 0.0
H508 H 0.20627 0.04785 0.04139 0.0
H509 H 0.17499 0.08241 0.08555 0.0
H510 H 0.17856 0.18927 0.02989 0.0
H511 H 0.21199 0.15485 0.98661 0.0
C512 C 0.1398 0.21873 0.11928 0.0
C513 C 0.11211 0.199 0.13792 0.0
C514 C 0.16019 0.19924 0.09484 0.0
C515 C 0.15283 0.1597 0.08805 0.0
C516 C 0.12478 0.14025 0.10672 0.0
C517 C 0.10499 0.15953 0.13147 0.0
C518 C 0.20045 0.07876 0.03868 0.0
C519 C 0.21157 0.09862 0.01052 0.0
C520 C 0.18221 0.09865 0.06396 0.0
C521 C 0.1738 0.13883 0.06149 0.0
C522 C 0.18505 0.1586 0.03316 0.0
C523 C 0.20402 0.13881 0.00814 0.0
H524 H 1.00062 0.17509 0.27287 0.0
H525 H 0.90159 0.25079 0.25806 0.0
H526 H 0.96561 0.14042 0.31494 0.0
H527 H 0.86699 0.21712 0.30108 0.0
H528 H 0.80098 0.12258 0.35595 0.0
H529 H 0.83569 0.15803 0.31398 0.0
H530 H 0.94221 0.145 0.36815 0.0
H531 H 0.90761 0.10817 0.40938 0.0
C532 C 0.97146 0.18459 0.2788 0.0
C533 C 0.9539 0.2157 0.262 0.0
C534 C 0.9514 0.16483 0.30315 0.0
C535 C 0.91335 0.17588 0.31162 0.0
C536 C 0.89596 0.20727 0.29495 0.0
C537 C 0.91591 0.22681 0.27036 0.0
C538 C 0.83178 0.1275 0.35894 0.0
C539 C 0.85156 0.11264 0.38599 0.0
C540 C 0.85172 0.14801 0.33492 0.0
C541 C 0.8919 0.15454 0.33752 0.0
C542 C 0.91147 0.14003 0.36492 0.0
C543 C 0.89159 0.11913 0.38873 0.0
H544 H 0.88071 0.98293 0.50491 0.0
H545 H 0.77702 0.96528 0.56145 0.0
H546 H 0.91737 0.9418 0.5426 0.0
H547 H 0.81367 0.9233 0.59869 0.0
H548 H 0.89316 0.81746 0.6348 0.0
H549 H 0.85459 0.85529 0.59565 0.0
H550 H 0.93364 0.95153 0.60524 0.0
H551 H 0.97143 0.91442 0.64482 0.0
C552 C 0.86562 0.9699 0.52514 0.0
C553 C 0.82595 0.97749 0.53023 0.0
C554 C 0.88667 0.94649 0.54676 0.0
C555 C 0.86835 0.92941 0.57356 0.0
C556 C 0.82845 0.93596 0.57814 0.0
C557 C 0.80756 0.96011 0.55691 0.0
C558 C 0.90214 0.84675 0.6286 0.0
C559 C 0.93517 0.86307 0.64302 0.0
C560 C 0.88006 0.86837 0.60629 0.0
C561 C 0.89124 0.90628 0.59737 0.0
C562 C 0.9245 0.92232 0.61153 0.0
C563 C 0.94596 0.90114 0.63433 0.0
H564 H 0.1474 0.79888 0.76044 0.0
H565 H 0.04984 0.87597 0.77676 0.0
H566 H 0.18313 0.83123 0.80352 0.0
H567 H 0.08577 0.90892 0.81893 0.0
H568 H 0.24953 0.9266 0.85934 0.0
H569 H 0.21516 0.89082 0.81735 0.0
H570 H 0.10898 0.90067 0.87227 0.0
H571 H 0.14303 0.93755 0.91344 0.0
C572 C 0.1336 0.8228 0.7731 0.0
C573 C 0.09566 0.83469 0.76512 0.0
C574 C 0.1542 0.84154 0.79772 0.0
C575 C 0.1374 0.8727 0.81493 0.0
C576 C 0.0995 0.8846 0.80675 0.0
C577 C 0.0789 0.86581 0.78231 0.0
C578 C 0.21891 0.92081 0.86252 0.0
C579 C 0.19899 0.93503 0.88968 0.0
C580 C 0.19918 0.90016 0.83848 0.0
C581 C 0.15911 0.89298 0.84117 0.0
C582 C 0.1396 0.90628 0.86892 0.0
C583 C 0.15921 0.92719 0.89273 0.0
H584 H 0.11649 0.90968 0.32768 0.0
H585 H 0.12504 0.80294 0.38274 0.0
H586 H 0.15352 0.94357 0.36895 0.0
H587 H 0.16088 0.83703 0.42469 0.0
H588 H 0.25214 0.902 0.48258 0.0
H589 H 0.22034 0.86751 0.43865 0.0
H590 H 0.14595 0.96747 0.42206 0.0
H591 H 0.17862 1.0023 0.46511 0.0
C592 C 0.12638 0.89344 0.3486 0.0
C593 C 0.11795 0.85363 0.35191 0.0
C594 C 0.14736 0.91294 0.37244 0.0
C595 C 0.16006 0.89321 0.40039 0.0
C596 C 0.15213 0.85313 0.40335 0.0
C597 C 0.13145 0.83355 0.37933 0.0
C598 C 0.22909 0.91666 0.46946 0.0
C599 C 0.21797 0.95494 0.4774 0.0
C600 C 0.21066 0.89677 0.44435 0.0
C601 C 0.18048 0.91459 0.42667 0.0
C602 C 0.16949 0.95296 0.43466 0.0
C603 C 0.18808 0.97291 0.45958 0.0
H604 H 0.141 0.08353 0.59652 0.0
H605 H 0.24518 0.14876 0.61509 0.0
H606 H 0.10758 0.11892 0.63906 0.0
H607 H 0.21127 0.18607 0.65652 0.0
H608 H 0.15299 0.21772 0.7517 0.0
H609 H 0.18672 0.18361 0.70847 0.0
H610 H 0.07922 0.17681 0.65497 0.0
H611 H 0.04535 0.20884 0.69918 0.0
C612 C 0.15654 0.10606 0.60933 0.0
C613 C 0.19567 0.11347 0.60238 0.0
C614 C 0.13729 0.12661 0.63371 0.0
C615 C 0.15646 0.1557 0.65147 0.0
C616 C 0.19556 0.16349 0.64397 0.0
C617 C 0.21501 0.14236 0.61996 0.0
C618 C 0.13666 0.20899 0.73063 0.0
C619 C 0.0965 0.21585 0.72891 0.0
C620 C 0.15605 0.18959 0.70563 0.0
C621 C 0.13591 0.1772 0.67793 0.0
C622 C 0.09576 0.18495 0.67607 0.0
C623 C 0.07628 0.20364 0.70135 0.0
H624 H 0.95939 0.22285 0.8937 0.0
H625 H 0.90936 0.15938 0.81462 0.0
H626 H 0.92357 0.18274 0.93206 0.0
H627 H 0.87059 0.12155 0.85223 0.0
H628 H 0.83403 0.03121 0.92397 0.0
H629 H 0.87079 0.07199 0.88744 0.0
H630 H 0.86812 0.16521 0.95767 0.0
H631 H 0.83405 0.12244 0.99524 0.0
C632 C 0.93985 0.20083 0.88461 0.0
C633 C 0.93698 0.19408 0.85133 0.0
C634 C 0.91904 0.17783 0.90657 0.0
C635 C 0.89394 0.14826 0.89567 0.0
C636 C 0.89031 0.14285 0.86203 0.0
C637 C 0.91214 0.16491 0.84025 0.0
C638 C 0.84135 0.06046 0.93154 0.0
C639 C 0.83102 0.07373 0.96235 0.0
C640 C 0.86222 0.08424 0.91039 0.0
C641 C 0.87233 0.12262 0.91898 0.0
C642 C 0.86167 0.13585 0.95001 0.0
C643 C 0.84178 0.11147 0.9716 0.0
H644 H 1.00623 0.85083 0.2017 0.0
H645 H 0.8989 0.83516 0.25364 0.0
H646 H 0.97146 0.88508 0.15894 0.0
H647 H 0.86423 0.8713 0.2119 0.0
H648 H 0.80505 0.90894 0.11942 0.0
H649 H 0.84016 0.87074 0.1597 0.0
H650 H 0.94102 0.94322 0.1454 0.0
H651 H 0.90638 0.97976 0.10389 0.0
C652 C 0.97518 0.85501 0.20408 0.0
C653 C 0.9553 0.84024 0.23102 0.0
C654 C 0.95518 0.87495 0.17964 0.0
C655 C 0.91484 0.88133 0.18177 0.0
C656 C 0.89507 0.86645 0.20888 0.0
C657 C 0.91499 0.84587 0.23301 0.0
C658 C 0.83483 0.91645 0.12479 0.0
C659 C 0.85302 0.9472 0.1084 0.0
C660 C 0.85496 0.89476 0.14814 0.0
C661 C 0.89362 0.90375 0.15613 0.0
C662 C 0.91166 0.93471 0.13962 0.0
C663 C 0.89172 0.95592 0.11588 0.0
loop_
_geom_bond_atom_site_label_1
_geom_bond_atom_site_label_2
_geom_bond_distance
_geom_bond_site_symmetry_2
_ccdc_geom_bond_type
Co0 N4 2.148 . S
Co0 N10 2.128 . S
Co0 N20 2.194 . S
Co0 O25 2.351 . S
Co0 O26 2.155 . S
Co0 O27 2.096 . S
C1 N4 1.301 . S
C1 N5 1.328 . S
C1 H6 0.930 . S
C2 C3 1.333 . S
C2 N4 1.317 1_655 S
C2 H7 0.930 . S
C3 C2 1.333 . S
C3 N5 1.350 1_655 S
C3 H29 0.931 . S
N4 Co0 2.148 . S
N4 C1 1.301 . S
N4 C2 1.317 1_455 S
N5 C1 1.328 . S
N5 C3 1.350 1_455 S
H6 C1 0.930 . S
H7 C2 0.930 . S
C8 O9 1.224 . S
C8 O27 1.247 . S
O9 C8 1.224 . S
N10 Co0 2.128 . S
N10 C11 1.355 . S
N10 C13 1.311 . S
C11 N10 1.355 . S
C11 C12 1.363 . S
C11 H23 0.929 . S
C12 C11 1.363 . S
C12 N14 1.375 . S
C12 H30 0.931 . S
C13 N10 1.311 . S
C13 N14 1.347 . S
C13 H24 0.929 . S
N14 C12 1.375 . S
N14 C13 1.347 . S
C15 C18 1.365 . S
C15 N20 1.328 . S
C15 H21 0.929 . S
C16 C17 1.362 . S
C16 C19 1.378 . S
C16 H31 0.929 . S
C17 C16 1.362 . S
C17 C18 1.366 . S
C18 C15 1.365 . S
C18 C17 1.366 . S
C18 H32 0.930 . S
C19 C16 1.378 . S
C19 N20 1.315 . S
C19 H22 0.930 . S
N20 Co0 2.194 . S
N20 C15 1.328 . S
N20 C19 1.315 . S
H21 C15 0.929 . S
H22 C19 0.930 . S
H23 C11 0.929 . S
H24 C13 0.929 . S
O25 Co0 2.351 . S
O25 C28 1.244 . S
O26 Co0 2.155 . S
O26 C28 1.240 . S
O27 Co0 2.096 . S
O27 C8 1.247 . S
C28 O25 1.244 . S
C28 O26 1.240 . S
H29 C3 0.931 . S
H30 C12 0.931 . S
H31 C16 0.929 . S
H32 C18 0.930 . S
Co33 N37 2.148 . S
Co33 N43 2.128 . S
Co33 N53 2.194 . S
Co33 O58 2.351 . S
Co33 O59 2.155 . S
Co33 O60 2.096 . S
C34 N37 1.301 . S
C34 N38 1.328 . S
C34 H39 0.930 . S
C35 C36 1.333 . S
C35 N37 1.317 1_565 S
C35 H40 0.930 . S
C36 C35 1.333 . S
C36 N38 1.350 1_565 S
C36 H62 0.931 . S
N37 Co33 2.148 . S
N37 C34 1.301 . S
N37 C35 1.317 1_545 S
N38 C34 1.328 . S
N38 C36 1.350 1_545 S
H39 C34 0.930 . S
H40 C35 0.930 . S
C41 O42 1.224 . S
C41 O60 1.247 . S
O42 C41 1.224 . S
N43 Co33 2.128 . S
N43 C44 1.355 . S
N43 C46 1.311 . S
C44 N43 1.355 . S
C44 C45 1.363 . S
C44 H56 0.929 . S
C45 C44 1.363 . S
C45 N47 1.375 . S
C45 H63 0.931 . S
C46 N43 1.311 . S
C46 N47 1.347 . S
C46 H57 0.929 . S
N47 C45 1.375 . S
N47 C46 1.347 . S
C48 C51 1.365 . S
C48 N53 1.328 . S
C48 H54 0.929 . S
C49 C50 1.362 . S
C49 C52 1.378 . S
C49 H64 0.929 . S
C50 C49 1.362 . S
C50 C51 1.366 . S
C51 C48 1.365 . S
C51 C50 1.366 . S
C51 H65 0.930 . S
C52 C49 1.378 . S
C52 N53 1.315 . S
C52 H55 0.930 . S
N53 Co33 2.194 . S
N53 C48 1.328 . S
N53 C52 1.315 . S
H54 C48 0.929 . S
H55 C52 0.930 . S
H56 C44 0.929 . S
H57 C46 0.929 . S
O58 Co33 2.351 . S
O58 C61 1.244 . S
O59 Co33 2.155 . S
O59 C61 1.240 . S
O60 Co33 2.096 . S
O60 C41 1.247 . S
C61 O58 1.244 . S
C61 O59 1.240 . S
H62 C36 0.931 . S
H63 C45 0.931 . S
H64 C49 0.929 . S
H65 C51 0.930 . S
Co66 N70 2.148 . S
Co66 N76 2.128 . S
Co66 N86 2.194 . S
Co66 O91 2.351 . S
Co66 O92 2.155 . S
Co66 O93 2.096 . S
C67 N70 1.301 . S
C67 N71 1.328 . S
C67 H72 0.930 . S
C68 C69 1.333 . S
C68 N70 1.317 1_455 S
C68 H73 0.930 . S
C69 C68 1.333 . S
C69 N71 1.350 1_455 S
C69 H95 0.931 . S
N70 Co66 2.148 . S
N70 C67 1.301 . S
N70 C68 1.317 1_655 S
N71 C67 1.328 . S
N71 C69 1.350 1_655 S
H72 C67 0.930 . S
H73 C68 0.930 . S
C74 O75 1.224 . S
C74 O93 1.247 . S
O75 C74 1.224 . S
N76 Co66 2.128 . S
N76 C77 1.355 . S
N76 C79 1.311 . S
C77 N76 1.355 . S
C77 C78 1.363 . S
C77 H89 0.929 . S
C78 C77 1.363 . S
C78 N80 1.375 . S
C78 H96 0.931 . S
C79 N76 1.311 . S
C79 N80 1.347 . S
C79 H90 0.929 . S
N80 C78 1.375 . S
N80 C79 1.347 . S
C81 C84 1.365 . S
C81 N86 1.328 . S
C81 H87 0.929 . S
C82 C83 1.362 . S
C82 C85 1.378 . S
C82 H97 0.929 . S
C83 C82 1.362 . S
C83 C84 1.366 . S
C84 C81 1.365 . S
C84 C83 1.366 . S
C84 H98 0.930 . S
C85 C82 1.378 . S
C85 N86 1.315 . S
C85 H88 0.930 . S
N86 Co66 2.194 . S
N86 C81 1.328 . S
N86 C85 1.315 . S
H87 C81 0.929 . S
H88 C85 0.930 . S
H89 C77 0.929 . S
H90 C79 0.929 . S
O91 Co66 2.351 . S
O91 C94 1.244 . S
O92 Co66 2.155 . S
O92 C94 1.240 . S
O93 Co66 2.096 . S
O93 C74 1.247 . S
C94 O91 1.244 . S
C94 O92 1.240 . S
H95 C69 0.931 . S
H96 C78 0.931 . S
H97 C82 0.929 . S
H98 C84 0.930 . S
Co99 N103 2.148 . S
Co99 N109 2.128 . S
Co99 N119 2.194 . S
Co99 O124 2.351 . S
Co99 O125 2.155 . S
Co99 O126 2.096 . S
C100 N103 1.301 . S
C100 N104 1.328 . S
C100 H105 0.930 . S
C101 C102 1.333 . S
C101 N103 1.317 1_545 S
C101 H106 0.930 . S
C102 C101 1.333 . S
C102 N104 1.350 1_545 S
C102 H128 0.931 . S
N103 Co99 2.148 . S
N103 C100 1.301 . S
N103 C101 1.317 1_565 S
N104 C100 1.328 . S
N104 C102 1.350 1_565 S
H105 C100 0.930 . S
H106 C101 0.930 . S
C107 O108 1.224 . S
C107 O126 1.247 . S
O108 C107 1.224 . S
N109 Co99 2.128 . S
N109 C110 1.355 . S
N109 C112 1.311 1_556 S
C110 N109 1.355 . S
C110 C111 1.363 1_556 S
C110 H122 0.929 . S
C111 C110 1.363 1_554 S
C111 N113 1.375 . S
C111 H129 0.931 . S
C112 N109 1.311 1_554 S
C112 N113 1.347 . S
C112 H123 0.929 . S
N113 C111 1.375 . S
N113 C112 1.347 . S
C114 C117 1.365 . S
C114 N119 1.328 . S
C114 H120 0.929 . S
C115 C116 1.362 . S
C115 C118 1.378 . S
C115 H130 0.929 . S
C116 C115 1.362 . S
C116 C117 1.366 . S
C117 C114 1.365 . S
C117 C116 1.366 . S
C117 H131 0.930 . S
C118 C115 1.378 . S
C118 N119 1.315 . S
C118 H121 0.930 . S
N119 Co99 2.194 . S
N119 C114 1.328 . S
N119 C118 1.315 . S
H120 C114 0.929 . S
H121 C118 0.930 . S
H122 C110 0.929 . S
H123 C112 0.929 . S
O124 Co99 2.351 . S
O124 C127 1.244 . S
O125 Co99 2.155 . S
O125 C127 1.240 . S
O126 Co99 2.096 . S
O126 C107 1.247 . S
C127 O124 1.244 . S
C127 O125 1.240 . S
H128 C102 0.931 . S
H129 C111 0.931 . S
H130 C115 0.929 . S
H131 C117 0.930 . S
Co132 N136 2.148 . S
Co132 N142 2.128 . S
Co132 N152 2.194 . S
Co132 O157 2.351 . S
Co132 O158 2.155 . S
Co132 O159 2.096 . S
C133 N136 1.301 . S
C133 N137 1.328 . S
C133 H138 0.930 . S
C134 C135 1.333 . S
C134 N136 1.317 1_655 S
C134 H139 0.930 . S
C135 C134 1.333 . S
C135 N137 1.350 1_655 S
C135 H161 0.931 . S
N136 Co132 2.148 . S
N136 C133 1.301 . S
N136 C134 1.317 1_455 S
N137 C133 1.328 . S
N137 C135 1.350 1_455 S
H138 C133 0.930 . S
H139 C134 0.930 . S
C140 O141 1.224 . S
C140 O159 1.247 . S
O141 C140 1.224 . S
N142 Co132 2.128 . S
N142 C143 1.355 . S
N142 C145 1.311 . S
C143 N142 1.355 . S
C143 C144 1.363 . S
C143 H155 0.929 . S
C144 C143 1.363 . S
C144 N146 1.375 . S
C144 H162 0.931 . S
C145 N142 1.311 . S
C145 N146 1.347 . S
C145 H156 0.929 . S
N146 C144 1.375 . S
N146 C145 1.347 . S
C147 C150 1.365 . S
C147 N152 1.328 . S
C147 H153 0.929 . S
C148 C149 1.362 . S
C148 C151 1.378 . S
C148 H163 0.929 . S
C149 C148 1.362 . S
C149 C150 1.366 . S
C150 C147 1.365 . S
C150 C149 1.366 . S
C150 H164 0.930 . S
C151 C148 1.378 . S
C151 N152 1.315 . S
C151 H154 0.930 . S
N152 Co132 2.194 . S
N152 C147 1.328 . S
N152 C151 1.315 . S
H153 C147 0.929 . S
H154 C151 0.930 . S
H155 C143 0.929 . S
H156 C145 0.929 . S
O157 Co132 2.351 . S
O157 C160 1.244 . S
O158 Co132 2.155 . S
O158 C160 1.240 . S
O159 Co132 2.096 . S
O159 C140 1.247 . S
C160 O157 1.244 . S
C160 O158 1.240 . S
H161 C135 0.931 . S
H162 C144 0.931 . S
H163 C148 0.929 . S
H164 C150 0.930 . S
Co165 N169 2.148 . S
Co165 N175 2.128 . S
Co165 N185 2.194 . S
Co165 O190 2.351 . S
Co165 O191 2.155 . S
Co165 O192 2.096 . S
C166 N169 1.301 . S
C166 N170 1.328 . S
C166 H171 0.930 . S
C167 C168 1.333 . S
C167 N169 1.317 1_565 S
C167 H172 0.930 . S
C168 C167 1.333 . S
C168 N170 1.350 1_565 S
C168 H194 0.931 . S
N169 Co165 2.148 . S
N169 C166 1.301 . S
N169 C167 1.317 1_545 S
N170 C166 1.328 . S
N170 C168 1.350 1_545 S
H171 C166 0.930 . S
H172 C167 0.930 . S
C173 O174 1.224 . S
C173 O192 1.247 . S
O174 C173 1.224 . S
N175 Co165 2.128 . S
N175 C176 1.355 . S
N175 C178 1.311 . S
C176 N175 1.355 . S
C176 C177 1.363 . S
C176 H188 0.929 . S
C177 C176 1.363 . S
C177 N179 1.375 . S
C177 H195 0.931 . S
C178 N175 1.311 . S
C178 N179 1.347 . S
C178 H189 0.929 . S
N179 C177 1.375 . S
N179 C178 1.347 . S
C180 C183 1.365 . S
C180 N185 1.328 . S
C180 H186 0.929 . S
C181 C182 1.362 . S
C181 C184 1.378 . S
C181 H196 0.929 . S
C182 C181 1.362 . S
C182 C183 1.366 . S
C183 C180 1.365 . S
C183 C182 1.366 . S
C183 H197 0.930 . S
C184 C181 1.378 . S
C184 N185 1.315 . S
C184 H187 0.930 . S
N185 Co165 2.194 . S
N185 C180 1.328 . S
N185 C184 1.315 . S
H186 C180 0.929 . S
H187 C184 0.930 . S
H188 C176 0.929 . S
H189 C178 0.929 . S
O190 Co165 2.351 . S
O190 C193 1.244 . S
O191 Co165 2.155 . S
O191 C193 1.240 . S
O192 Co165 2.096 . S
O192 C173 1.247 . S
C193 O190 1.244 . S
C193 O191 1.240 . S
H194 C168 0.931 . S
H195 C177 0.931 . S
H196 C181 0.929 . S
H197 C183 0.930 . S
Co198 N202 2.148 . S
Co198 N208 2.128 . S
Co198 N218 2.194 . S
Co198 O223 2.351 . S
Co198 O224 2.155 . S
Co198 O225 2.096 . S
C199 N202 1.301 . S
C199 N203 1.328 . S
C199 H204 0.930 . S
C200 C201 1.333 . S
C200 N202 1.317 1_455 S
C200 H205 0.930 . S
C201 C200 1.333 . S
C201 N203 1.350 1_455 S
C201 H227 0.931 . S
N202 Co198 2.148 . S
N202 C199 1.301 . S
N202 C200 1.317 1_655 S
N203 C199 1.328 . S
N203 C201 1.350 1_655 S
H204 C199 0.930 . S
H205 C200 0.930 . S
C206 O207 1.224 . S
C206 O225 1.247 . S
O207 C206 1.224 . S
N208 Co198 2.128 . S
N208 C209 1.355 . S
N208 C211 1.311 . S
C209 N208 1.355 . S
C209 C210 1.363 . S
C209 H221 0.929 . S
C210 C209 1.363 . S
C210 N212 1.375 . S
C210 H228 0.931 . S
C211 N208 1.311 . S
C211 N212 1.347 . S
C211 H222 0.929 . S
N212 C210 1.375 . S
N212 C211 1.347 . S
C213 C216 1.365 . S
C213 N218 1.328 . S
C213 H219 0.929 . S
C214 C215 1.362 . S
C214 C217 1.378 . S
C214 H229 0.929 . S
C215 C214 1.362 . S
C215 C216 1.366 . S
C216 C213 1.365 . S
C216 C215 1.366 . S
C216 H230 0.930 . S
C217 C214 1.378 . S
C217 N218 1.315 . S
C217 H220 0.930 . S
N218 Co198 2.194 . S
N218 C213 1.328 . S
N218 C217 1.315 . S
H219 C213 0.929 . S
H220 C217 0.930 . S
H221 C209 0.929 . S
H222 C211 0.929 . S
O223 Co198 2.351 . S
O223 C226 1.244 . S
O224 Co198 2.155 . S
O224 C226 1.240 . S
O225 Co198 2.096 . S
O225 C206 1.247 . S
C226 O223 1.244 . S
C226 O224 1.240 . S
H227 C201 0.931 . S
H228 C210 0.931 . S
H229 C214 0.929 . S
H230 C216 0.930 . S
Co231 N235 2.148 . S
Co231 N241 2.128 . S
Co231 N251 2.194 . S
Co231 O256 2.351 . S
Co231 O257 2.155 . S
Co231 O258 2.096 . S
C232 N235 1.301 . S
C232 N236 1.328 . S
C232 H237 0.930 . S
C233 C234 1.333 . S
C233 N235 1.317 1_545 S
C233 H238 0.930 . S
C234 C233 1.333 . S
C234 N236 1.350 1_545 S
C234 H260 0.931 . S
N235 Co231 2.148 . S
N235 C232 1.301 . S
N235 C233 1.317 1_565 S
N236 C232 1.328 . S
N236 C234 1.350 1_565 S
H237 C232 0.930 . S
H238 C233 0.930 . S
C239 O240 1.224 . S
C239 O258 1.247 . S
O240 C239 1.224 . S
N241 Co231 2.128 . S
N241 C242 1.355 . S
N241 C244 1.311 1_554 S
C242 N241 1.355 . S
C242 C243 1.363 1_554 S
C242 H254 0.929 . S
C243 C242 1.363 1_556 S
C243 N245 1.375 . S
C243 H261 0.931 . S
C244 N241 1.311 1_556 S
C244 N245 1.347 . S
C244 H255 0.929 . S
N245 C243 1.375 . S
N245 C244 1.347 . S
C246 C249 1.365 . S
C246 N251 1.328 . S
C246 H252 0.929 . S
C247 C248 1.362 . S
C247 C250 1.378 . S
C247 H262 0.929 . S
C248 C247 1.362 . S
C248 C249 1.366 . S
C249 C246 1.365 . S
C249 C248 1.366 . S
C249 H263 0.930 . S
C250 C247 1.378 . S
C250 N251 1.315 . S
C250 H253 0.930 . S
N251 Co231 2.194 . S
N251 C246 1.328 . S
N251 C250 1.315 . S
H252 C246 0.929 . S
H253 C250 0.930 . S
H254 C242 0.929 . S
H255 C244 0.929 . S
O256 Co231 2.351 . S
O256 C259 1.244 . S
O257 Co231 2.155 . S
O257 C259 1.240 . S
O258 Co231 2.096 . S
O258 C239 1.247 . S
C259 O256 1.244 . S
C259 O257 1.240 . S
H260 C234 0.931 . S
H261 C243 0.931 . S
H262 C247 0.929 . S
H263 C249 0.930 . S
H264 C272 0.950 . S
H265 C277 0.950 . S
H266 C274 0.950 . S
H267 C276 0.950 . S
H268 C278 0.950 . S
H269 C280 0.950 . S
H270 C282 0.950 . S
H271 C283 0.950 . S
C272 H264 0.950 . S
C272 C273 1.386 . S
C272 C274 1.391 . S
C273 C272 1.386 . S
C273 C277 1.393 . S
C274 H266 0.950 . S
C274 C272 1.391 . S
C274 C275 1.400 . S
C275 C274 1.400 . S
C275 C276 1.398 . S
C275 C281 1.491 . S
C276 H267 0.950 . S
C276 C275 1.398 . S
C276 C277 1.391 . S
C277 H265 0.950 . S
C277 C273 1.393 . S
C277 C276 1.391 . S
C278 H268 0.950 . S
C278 C279 1.386 . S
C278 C280 1.391 . S
C279 C278 1.386 . S
C279 C283 1.393 . S
C280 H269 0.950 . S
C280 C278 1.391 . S
C280 C281 1.400 . S
C281 C275 1.491 . S
C281 C280 1.400 . S
C281 C282 1.398 . S
C282 H270 0.950 . S
C282 C281 1.398 . S
C282 C283 1.391 . S
C283 H271 0.950 . S
C283 C279 1.393 . S
C283 C282 1.391 . S
H284 C292 0.950 . S
H285 C297 0.950 . S
H286 C294 0.950 . S
H287 C296 0.950 . S
H288 C298 0.950 . S
H289 C300 0.950 . S
H290 C302 0.950 . S
H291 C303 0.950 . S
C292 H284 0.950 . S
C292 C293 1.386 . S
C292 C294 1.391 . S
C293 C292 1.386 . S
C293 C297 1.393 . S
C294 H286 0.950 . S
C294 C292 1.391 . S
C294 C295 1.400 . S
C295 C294 1.400 . S
C295 C296 1.398 . S
C295 C301 1.491 . S
C296 H287 0.950 . S
C296 C295 1.398 . S
C296 C297 1.391 . S
C297 H285 0.950 . S
C297 C293 1.393 . S
C297 C296 1.391 . S
C298 H288 0.950 . S
C298 C299 1.386 . S
C298 C300 1.391 . S
C299 C298 1.386 . S
C299 C303 1.393 . S
C300 H289 0.950 . S
C300 C298 1.391 . S
C300 C301 1.400 . S
C301 C295 1.491 . S
C301 C300 1.400 . S
C301 C302 1.398 . S
C302 H290 0.950 . S
C302 C301 1.398 . S
C302 C303 1.391 . S
C303 H291 0.950 . S
C303 C299 1.393 . S
C303 C302 1.391 . S
H304 C312 0.950 . S
H305 C317 0.950 . S
H306 C314 0.950 . S
H307 C316 0.950 . S
H308 C318 0.950 . S
H309 C320 0.950 . S
H310 C322 0.950 . S
H311 C323 0.950 . S
C312 H304 0.950 . S
C312 C313 1.386 . S
C312 C314 1.391 . S
C313 C312 1.386 . S
C313 C317 1.393 . S
C314 H306 0.950 . S
C314 C312 1.391 . S
C314 C315 1.400 . S
C315 C314 1.400 . S
C315 C316 1.398 . S
C315 C321 1.491 . S
C316 H307 0.950 . S
C316 C315 1.398 . S
C316 C317 1.391 . S
C317 H305 0.950 . S
C317 C313 1.393 . S
C317 C316 1.391 . S
C318 H308 0.950 . S
C318 C319 1.386 . S
C318 C320 1.391 . S
C319 C318 1.386 . S
C319 C323 1.393 . S
C320 H309 0.950 . S
C320 C318 1.391 . S
C320 C321 1.400 . S
C321 C315 1.491 . S
C321 C320 1.400 . S
C321 C322 1.398 . S
C322 H310 0.950 . S
C322 C321 1.398 . S
C322 C323 1.391 . S
C323 H311 0.950 . S
C323 C319 1.393 . S
C323 C322 1.391 . S
H324 C332 0.950 . S
H325 C337 0.950 . S
H326 C334 0.950 . S
H327 C336 0.950 . S
H328 C338 0.950 . S
H329 C340 0.950 . S
H330 C342 0.950 . S
H331 C343 0.950 . S
C332 H324 0.950 . S
C332 C333 1.386 . S
C332 C334 1.391 . S
C333 C332 1.386 . S
C333 C337 1.393 1_556 S
C334 H326 0.950 . S
C334 C332 1.391 . S
C334 C335 1.400 . S
C335 C334 1.400 . S
C335 C336 1.398 1_556 S
C335 C341 1.491 1_556 S
C336 H327 0.950 . S
C336 C335 1.398 1_554 S
C336 C337 1.391 . S
C337 H325 0.950 . S
C337 C333 1.393 1_554 S
C337 C336 1.391 . S
C338 H328 0.950 . S
C338 C339 1.386 . S
C338 C340 1.391 . S
C339 C338 1.386 . S
C339 C343 1.393 1_554 S
C340 H329 0.950 . S
C340 C338 1.391 . S
C340 C341 1.400 . S
C341 C335 1.491 1_554 S
C341 C340 1.400 . S
C341 C342 1.398 1_554 S
C342 H330 0.950 . S
C342 C341 1.398 1_556 S
C342 C343 1.391 . S
C343 H331 0.950 . S
C343 C339 1.393 1_556 S
C343 C342 1.391 . S
H344 C352 0.950 . S
H345 C357 0.950 . S
H346 C354 0.950 . S
H347 C356 0.950 . S
H348 C358 0.950 . S
H349 C360 0.950 . S
H350 C362 0.950 . S
H351 C363 0.950 . S
C352 H344 0.950 . S
C352 C353 1.386 . S
C352 C354 1.391 . S
C353 C352 1.386 . S
C353 C357 1.393 . S
C354 H346 0.950 . S
C354 C352 1.391 . S
C354 C355 1.400 . S
C355 C354 1.400 . S
C355 C356 1.398 . S
C355 C361 1.491 . S
C356 H347 0.950 . S
C356 C355 1.398 . S
C356 C357 1.391 . S
C357 H345 0.950 . S
C357 C353 1.393 . S
C357 C356 1.391 . S
C358 H348 0.950 . S
C358 C359 1.386 . S
C358 C360 1.391 . S
C359 C358 1.386 . S
C359 C363 1.393 . S
C360 H349 0.950 . S
C360 C358 1.391 . S
C360 C361 1.400 . S
C361 C355 1.491 . S
C361 C360 1.400 . S
C361 C362 1.398 . S
C362 H350 0.950 . S
C362 C361 1.398 . S
C362 C363 1.391 . S
C363 H351 0.950 . S
C363 C359 1.393 . S
C363 C362 1.391 . S
H364 C372 0.950 . S
H365 C377 0.950 . S
H366 C374 0.950 . S
H367 C376 0.950 . S
H368 C378 0.950 . S
H369 C380 0.950 . S
H370 C382 0.950 . S
H371 C383 0.950 . S
C372 H364 0.950 . S
C372 C373 1.386 . S
C372 C374 1.391 . S
C373 C372 1.386 . S
C373 C377 1.393 . S
C374 H366 0.950 . S
C374 C372 1.391 . S
C374 C375 1.400 . S
C375 C374 1.400 . S
C375 C376 1.398 . S
C375 C381 1.491 . S
C376 H367 0.950 . S
C376 C375 1.398 . S
C376 C377 1.391 . S
C377 H365 0.950 . S
C377 C373 1.393 . S
C377 C376 1.391 . S
C378 H368 0.950 . S
C378 C379 1.386 . S
C378 C380 1.391 . S
C379 C378 1.386 . S
C379 C383 1.393 . S
C380 H369 0.950 . S
C380 C378 1.391 . S
C380 C381 1.400 . S
C381 C375 1.491 . S
C381 C380 1.400 . S
C381 C382 1.398 . S
C382 H370 0.950 . S
C382 C381 1.398 . S
C382 C383 1.391 . S
C383 H371 0.950 . S
C383 C379 1.393 . S
C383 C382 1.391 . S
H384 C392 0.950 . S
H385 C397 0.950 . S
H386 C394 0.950 . S
H387 C396 0.950 . S
H388 C398 0.950 . S
H389 C400 0.950 . S
H390 C402 0.950 . S
H391 C403 0.950 . S
C392 H384 0.950 . S
C392 C393 1.386 . S
C392 C394 1.391 . S
C393 C392 1.386 . S
C393 C397 1.393 . S
C394 H386 0.950 . S
C394 C392 1.391 . S
C394 C395 1.400 . S
C395 C394 1.400 . S
C395 C396 1.398 . S
C395 C401 1.491 . S
C396 H387 0.950 . S
C396 C395 1.398 . S
C396 C397 1.391 . S
C397 H385 0.950 . S
C397 C393 1.393 . S
C397 C396 1.391 . S
C398 H388 0.950 . S
C398 C399 1.386 . S
C398 C400 1.391 . S
C399 C398 1.386 . S
C399 C403 1.393 . S
C400 H389 0.950 . S
C400 C398 1.391 . S
C400 C401 1.400 . S
C401 C395 1.491 . S
C401 C400 1.400 . S
C401 C402 1.398 . S
C402 H390 0.950 . S
C402 C401 1.398 . S
C402 C403 1.391 . S
C403 H391 0.950 . S
C403 C399 1.393 . S
C403 C402 1.391 . S
H404 C412 0.950 . S
H405 C417 0.950 . S
H406 C414 0.950 . S
H407 C416 0.950 . S
H408 C418 0.950 . S
H409 C420 0.950 . S
H410 C422 0.950 . S
H411 C423 0.950 . S
C412 H404 0.950 . S
C412 C413 1.386 . S
C412 C414 1.391 . S
C413 C412 1.386 . S
C413 C417 1.393 . S
C414 H406 0.950 . S
C414 C412 1.391 . S
C414 C415 1.400 . S
C415 C414 1.400 . S
C415 C416 1.398 . S
C415 C421 1.491 . S
C416 H407 0.950 . S
C416 C415 1.398 . S
C416 C417 1.391 . S
C417 H405 0.950 . S
C417 C413 1.393 . S
C417 C416 1.391 . S
C418 H408 0.950 . S
C418 C419 1.386 . S
C418 C420 1.391 . S
C419 C418 1.386 . S
C419 C423 1.393 . S
C420 H409 0.950 . S
C420 C418 1.391 . S
C420 C421 1.400 . S
C421 C415 1.491 . S
C421 C420 1.400 . S
C421 C422 1.398 . S
C422 H410 0.950 . S
C422 C421 1.398 . S
C422 C423 1.391 . S
C423 H411 0.950 . S
C423 C419 1.393 . S
C423 C422 1.391 . S
H424 C432 0.950 . S
H425 C437 0.950 . S
H426 C434 0.950 . S
H427 C436 0.950 . S
H428 C438 0.950 . S
H429 C440 0.950 . S
H430 C442 0.950 . S
H431 C443 0.950 . S
C432 H424 0.950 . S
C432 C433 1.386 1_655 S
C432 C434 1.391 . S
C433 C432 1.386 1_455 S
C433 C437 1.393 . S
C434 H426 0.950 . S
C434 C432 1.391 . S
C434 C435 1.378 1_655 S
C435 C434 1.378 1_455 S
C435 C436 1.421 . S
C435 C441 1.489 1_454 S
C436 H427 0.950 . S
C436 C435 1.421 . S
C436 C437 1.391 . S
C437 H425 0.950 . S
C437 C433 1.393 . S
C437 C436 1.391 . S
C438 H428 0.950 . S
C438 C439 1.386 1_455 S
C438 C440 1.391 . S
C439 C438 1.386 1_655 S
C439 C443 1.393 . S
C440 H429 0.950 . S
C440 C438 1.391 . S
C440 C441 1.378 1_455 S
C441 C435 1.489 1_656 S
C441 C440 1.378 1_655 S
C441 C442 1.421 . S
C442 H430 0.950 . S
C442 C441 1.421 . S
C442 C443 1.391 . S
C443 H431 0.950 . S
C443 C439 1.393 . S
C443 C442 1.391 . S
H444 C452 0.950 . S
H445 C457 0.950 . S
H446 C454 0.950 . S
H447 C456 0.950 . S
H448 C458 0.950 . S
H449 C460 0.950 . S
H450 C462 0.950 . S
H451 C463 0.950 . S
C452 H444 0.950 . S
C452 C453 1.386 1_545 S
C452 C454 1.391 . S
C453 C452 1.386 1_565 S
C453 C457 1.393 . S
C454 H446 0.950 . S
C454 C452 1.391 . S
C454 C455 1.398 1_545 S
C455 C454 1.398 1_565 S
C455 C456 1.401 . S
C455 C461 1.491 1_565 S
C456 H447 0.950 . S
C456 C455 1.401 . S
C456 C457 1.391 . S
C457 H445 0.950 . S
C457 C453 1.393 . S
C457 C456 1.391 . S
C458 H448 0.950 . S
C458 C459 1.386 1_565 S
C458 C460 1.391 . S
C459 C458 1.386 1_545 S
C459 C463 1.393 . S
C460 H449 0.950 . S
C460 C458 1.391 . S
C460 C461 1.398 1_565 S
C461 C455 1.491 1_545 S
C461 C460 1.398 1_545 S
C461 C462 1.401 . S
C462 H450 0.950 . S
C462 C461 1.401 . S
C462 C463 1.391 . S
C463 H451 0.950 . S
C463 C459 1.393 . S
C463 C462 1.391 . S
H464 C472 0.950 . S
H465 C477 0.950 . S
H466 C474 0.950 . S
H467 C476 0.950 . S
H468 C478 0.950 . S
H469 C480 0.950 . S
H470 C482 0.950 . S
H471 C483 0.950 . S
C472 H464 0.950 . S
C472 C473 1.386 . S
C472 C474 1.391 . S
C473 C472 1.386 . S
C473 C477 1.393 1_655 S
C474 H466 0.950 . S
C474 C472 1.391 . S
C474 C475 1.406 . S
C475 C474 1.406 . S
C475 C476 1.393 1_655 S
C475 C481 1.490 1_655 S
C476 H467 0.950 . S
C476 C475 1.393 1_455 S
C476 C477 1.391 . S
C477 H465 0.950 . S
C477 C473 1.393 1_455 S
C477 C476 1.391 . S
C478 H468 0.950 . S
C478 C479 1.386 . S
C478 C480 1.391 . S
C479 C478 1.386 . S
C479 C483 1.393 1_455 S
C480 H469 0.950 . S
C480 C478 1.391 . S
C480 C481 1.406 . S
C481 C475 1.490 1_455 S
C481 C480 1.406 . S
C481 C482 1.393 1_455 S
C482 H470 0.950 . S
C482 C481 1.393 1_655 S
C482 C483 1.391 . S
C483 H471 0.950 . S
C483 C479 1.393 1_655 S
C483 C482 1.391 . S
H484 C492 0.950 . S
H485 C497 0.950 . S
H486 C494 0.950 . S
H487 C496 0.950 . S
H488 C498 0.950 . S
H489 C500 0.950 . S
H490 C502 0.950 . S
H491 C503 0.950 . S
C492 H484 0.950 . S
C492 C493 1.386 1_565 S
C492 C494 1.391 . S
C493 C492 1.386 1_545 S
C493 C497 1.393 . S
C494 H486 0.950 . S
C494 C492 1.391 . S
C494 C495 1.382 1_565 S
C495 C494 1.382 1_545 S
C495 C496 1.418 . S
C495 C501 1.490 1_545 S
C496 H487 0.950 . S
C496 C495 1.418 . S
C496 C497 1.391 . S
C497 H485 0.950 . S
C497 C493 1.393 . S
C497 C496 1.391 . S
C498 H488 0.950 . S
C498 C499 1.386 1_545 S
C498 C500 1.391 . S
C499 C498 1.386 1_565 S
C499 C503 1.393 . S
C500 H489 0.950 . S
C500 C498 1.391 . S
C500 C501 1.382 1_545 S
C501 C495 1.490 1_565 S
C501 C500 1.382 1_565 S
C501 C502 1.418 . S
C502 H490 0.950 . S
C502 C501 1.418 . S
C502 C503 1.391 . S
C503 H491 0.950 . S
C503 C499 1.393 . S
C503 C502 1.391 . S
H504 C512 0.950 . S
H505 C517 0.950 . S
H506 C514 0.950 . S
H507 C516 0.950 . S
H508 C518 0.950 1_556 S
H509 C520 0.950 . S
H510 C522 0.950 . S
H511 C523 0.950 . S
C512 H504 0.950 . S
C512 C513 1.386 . S
C512 C514 1.391 . S
C513 C512 1.386 . S
C513 C517 1.393 . S
C514 H506 0.950 . S
C514 C512 1.391 . S
C514 C515 1.400 . S
C515 C514 1.400 . S
C515 C516 1.398 . S
C515 C521 1.491 . S
C516 H507 0.950 . S
C516 C515 1.398 . S
C516 C517 1.391 . S
C517 H505 0.950 . S
C517 C513 1.393 . S
C517 C516 1.391 . S
C518 H508 0.950 1_554 S
C518 C519 1.386 . S
C518 C520 1.391 . S
C519 C518 1.386 . S
C519 C523 1.393 . S
C520 H509 0.950 . S
C520 C518 1.391 . S
C520 C521 1.400 . S
C521 C515 1.491 . S
C521 C520 1.400 . S
C521 C522 1.398 . S
C522 H510 0.950 . S
C522 C521 1.398 . S
C522 C523 1.391 . S
C523 H511 0.950 . S
C523 C519 1.393 . S
C523 C522 1.391 . S
H524 C532 0.950 . S
H525 C537 0.950 . S
H526 C534 0.950 . S
H527 C536 0.950 . S
H528 C538 0.950 . S
H529 C540 0.950 . S
H530 C542 0.950 . S
H531 C543 0.950 . S
C532 H524 0.950 . S
C532 C533 1.386 . S
C532 C534 1.391 . S
C533 C532 1.386 . S
C533 C537 1.393 . S
C534 H526 0.950 . S
C534 C532 1.391 . S
C534 C535 1.400 . S
C535 C534 1.400 . S
C535 C536 1.398 . S
C535 C541 1.491 . S
C536 H527 0.950 . S
C536 C535 1.398 . S
C536 C537 1.391 . S
C537 H525 0.950 . S
C537 C533 1.393 . S
C537 C536 1.391 . S
C538 H528 0.950 . S
C538 C539 1.386 . S
C538 C540 1.391 . S
C539 C538 1.386 . S
C539 C543 1.393 . S
C540 H529 0.950 . S
C540 C538 1.391 . S
C540 C541 1.400 . S
C541 C535 1.491 . S
C541 C540 1.400 . S
C541 C542 1.398 . S
C542 H530 0.950 . S
C542 C541 1.398 . S
C542 C543 1.391 . S
C543 H531 0.950 . S
C543 C539 1.393 . S
C543 C542 1.391 . S
H544 C552 0.950 . S
H545 C557 0.950 . S
H546 C554 0.950 . S
H547 C556 0.950 . S
H548 C558 0.950 . S
H549 C560 0.950 . S
H550 C562 0.950 . S
H551 C563 0.950 . S
C552 H544 0.950 . S
C552 C553 1.386 . S
C552 C554 1.391 . S
C553 C552 1.386 . S
C553 C557 1.393 . S
C554 H546 0.950 . S
C554 C552 1.391 . S
C554 C555 1.400 . S
C555 C554 1.400 . S
C555 C556 1.398 . S
C555 C561 1.491 . S
C556 H547 0.950 . S
C556 C555 1.398 . S
C556 C557 1.391 . S
C557 H545 0.950 . S
C557 C553 1.393 . S
C557 C556 1.391 . S
C558 H548 0.950 . S
C558 C559 1.386 . S
C558 C560 1.391 . S
C559 C558 1.386 . S
C559 C563 1.393 . S
C560 H549 0.950 . S
C560 C558 1.391 . S
C560 C561 1.400 . S
C561 C555 1.491 . S
C561 C560 1.400 . S
C561 C562 1.398 . S
C562 H550 0.950 . S
C562 C561 1.398 . S
C562 C563 1.391 . S
C563 H551 0.950 . S
C563 C559 1.393 . S
C563 C562 1.391 . S
H564 C572 0.950 . S
H565 C577 0.950 . S
H566 C574 0.950 . S
H567 C576 0.950 . S
H568 C578 0.950 . S
H569 C580 0.950 . S
H570 C582 0.950 . S
H571 C583 0.950 . S
C572 H564 0.950 . S
C572 C573 1.386 . S
C572 C574 1.391 . S
C573 C572 1.386 . S
C573 C577 1.393 . S
C574 H566 0.950 . S
C574 C572 1.391 . S
C574 C575 1.400 . S
C575 C574 1.400 . S
C575 C576 1.398 . S
C575 C581 1.491 . S
C576 H567 0.950 . S
C576 C575 1.398 . S
C576 C577 1.391 . S
C577 H565 0.950 . S
C577 C573 1.393 . S
C577 C576 1.391 . S
C578 H568 0.950 . S
C578 C579 1.386 . S
C578 C580 1.391 . S
C579 C578 1.386 . S
C579 C583 1.393 . S
C580 H569 0.950 . S
C580 C578 1.391 . S
C580 C581 1.400 . S
C581 C575 1.491 . S
C581 C580 1.400 . S
C581 C582 1.398 . S
C582 H570 0.950 . S
C582 C581 1.398 . S
C582 C583 1.391 . S
C583 H571 0.950 . S
C583 C579 1.393 . S
C583 C582 1.391 . S
H584 C592 0.950 . S
H585 C597 0.950 . S
H586 C594 0.950 . S
H587 C596 0.950 . S
H588 C598 0.950 . S
H589 C600 0.950 . S
H590 C602 0.950 . S
H591 C603 0.969 . S
C592 H584 0.950 . S
C592 C593 1.386 . S
C592 C594 1.391 . S
C593 C592 1.386 . S
C593 C597 1.393 . S
C594 H586 0.950 . S
C594 C592 1.391 . S
C594 C595 1.400 . S
C595 C594 1.400 . S
C595 C596 1.398 . S
C595 C601 1.491 . S
C596 H587 0.950 . S
C596 C595 1.398 . S
C596 C597 1.391 . S
C597 H585 0.950 . S
C597 C593 1.393 . S
C597 C596 1.391 . S
C598 H588 0.950 . S
C598 C599 1.386 . S
C598 C600 1.391 . S
C599 C598 1.386 . S
C599 C603 1.393 . S
C600 H589 0.950 . S
C600 C598 1.391 . S
C600 C601 1.400 . S
C601 C595 1.491 . S
C601 C600 1.400 . S
C601 C602 1.398 . S
C602 H590 0.950 . S
C602 C601 1.398 . S
C602 C603 1.391 . S
C603 H591 0.969 . S
C603 C599 1.393 . S
C603 C602 1.391 . S
H604 C612 0.950 . S
H605 C617 0.950 . S
H606 C614 0.950 . S
H607 C616 0.950 . S
H608 C618 0.950 . S
H609 C620 0.950 . S
H610 C622 0.950 . S
H611 C623 0.950 . S
C612 H604 0.950 . S
C612 C613 1.386 . S
C612 C614 1.391 . S
C613 C612 1.386 . S
C613 C617 1.393 . S
C614 H606 0.950 . S
C614 C612 1.391 . S
C614 C615 1.400 . S
C615 C614 1.400 . S
C615 C616 1.398 . S
C615 C621 1.491 . S
C616 H607 0.950 . S
C616 C615 1.398 . S
C616 C617 1.391 . S
C617 H605 0.950 . S
C617 C613 1.393 . S
C617 C616 1.391 . S
C618 H608 0.950 . S
C618 C619 1.386 . S
C618 C620 1.391 . S
C619 C618 1.386 . S
C619 C623 1.393 . S
C620 H609 0.950 . S
C620 C618 1.391 . S
C620 C621 1.400 . S
C621 C615 1.491 . S
C621 C620 1.400 . S
C621 C622 1.398 . S
C622 H610 0.950 . S
C622 C621 1.398 . S
C622 C623 1.391 . S
C623 H611 0.950 . S
C623 C619 1.393 . S
C623 C622 1.391 . S
H624 C632 0.950 . S
H625 C637 0.950 . S
H626 C634 0.950 . S
H627 C636 0.950 . S
H628 C638 0.933 1_565 S
H629 C640 0.950 . S
H630 C642 0.950 . S
H631 C643 0.950 . S
C632 H624 0.950 . S
C632 C633 1.386 . S
C632 C634 1.391 . S
C633 C632 1.386 . S
C633 C637 1.393 . S
C634 H626 0.950 . S
C634 C632 1.391 . S
C634 C635 1.400 . S
C635 C634 1.400 . S
C635 C636 1.398 . S
C635 C641 1.491 . S
C636 H627 0.950 . S
C636 C635 1.398 . S
C636 C637 1.391 . S
C637 H625 0.950 . S
C637 C633 1.393 . S
C637 C636 1.391 . S
C638 H628 0.933 1_545 S
C638 C639 1.386 . S
C638 C640 1.391 . S
C639 C638 1.386 . S
C639 C643 1.393 . S
C640 H629 0.950 . S
C640 C638 1.391 . S
C640 C641 1.400 . S
C641 C635 1.491 . S
C641 C640 1.400 . S
C641 C642 1.398 . S
C642 H630 0.950 . S
C642 C641 1.398 . S
C642 C643 1.391 . S
C643 H631 0.950 . S
C643 C639 1.393 . S
C643 C642 1.391 . S
H644 C652 0.950 . S
H645 C657 0.950 . S
H646 C654 0.950 . S
H647 C656 0.950 . S
H648 C658 0.950 . S
H649 C660 0.950 . S
H650 C662 0.950 . S
H651 C663 0.950 . S
C652 H644 0.950 . S
C652 C653 1.386 . S
C652 C654 1.391 . S
C653 C652 1.386 . S
C653 C657 1.393 . S
C654 H646 0.950 . S
C654 C652 1.391 . S
C654 C655 1.400 . S
C655 C654 1.400 . S
C655 C656 1.398 . S
C655 C661 1.491 . S
C656 H647 0.950 . S
C656 C655 1.398 . S
C656 C657 1.391 . S
C657 H645 0.950 . S
C657 C653 1.393 . S
C657 C656 1.391 . S
C658 H648 0.950 . S
C658 C659 1.386 . S
C658 C660 1.391 . S
C659 C658 1.386 . S
C659 C663 1.393 . S
C660 H649 0.950 . S
C660 C658 1.391 . S
C660 C661 1.400 . S
C661 C655 1.491 . S
C661 C660 1.400 . S
C661 C662 1.398 . S
C662 H650 0.950 . S
C662 C661 1.398 . S
C662 C663 1.391 . S
C663 H651 0.950 . S
C663 C659 1.393 . S
C663 C662 1.391 . S
C273 C149 1.412 . S
C279 C17 1.403 . S
C293 C50 1.414 . S
C299 C182 1.413 . S
C313 C83 1.403 . S
C319 C215 1.411 . S
C333 C116 1.403 . S
C339 C248 1.412 . S
C353 N179 0.745 . S
C359 N14 0.766 . S
C373 N47 0.752 . S
C379 N212 0.772 . S
C393 N245 0.745 . S
C399 N80 0.766 . S
C413 N113 0.779 . S
C419 N146 0.774 . S
C433 N5 1.133 . S
C439 N203 1.114 . S
C453 N236 1.131 . S
C459 N38 1.118 . S
C473 N71 1.117 . S
C479 N137 1.132 . S
C493 N170 1.133 . S
C499 N104 1.114 . S
C513 C28 1.919 . S
C519 C107 1.937 1_544 S
C533 C8 1.933 1_655 S
C539 C61 1.927 . S
C553 C41 1.932 1_565 S
C559 C94 1.925 . S
C573 C74 1.937 1_455 S
C579 C127 1.919 . S
C593 C160 1.923 . S
C599 C173 1.932 1_565 S
C613 C193 1.919 . S
C619 C206 1.935 1_455 S
C633 C226 1.927 . S
C639 C239 1.941 1_546 S
C653 C140 1.937 1_655 S
C659 C259 1.919 . S
