# Generated by pormake.
# Topology uol, (4)-cn, num edge types: 1
# Building blocks:
#     Node 0, Type 0, BuildingBlock: QUQFOY_clean_sbu_3, # of connection points: 4
#     Node 1, Type 0, BuildingBlock: QUQFOY_clean_sbu_3, # of connection points: 4
#     Node 2, Type 0, BuildingBlock: QUQFOY_clean_sbu_3, # of connection points: 4
#     Node 3, Type 0, BuildingBlock: QUQFOY_clean_sbu_3, # of connection points: 4
#     Node 4, Type 0, BuildingBlock: QUQFOY_clean_sbu_3, # of connection points: 4
#     Node 5, Type 0, BuildingBlock: QUQFOY_clean_sbu_3, # of connection points: 4
#     Node 6, Type 0, BuildingBlock: QUQFOY_clean_sbu_3, # of connection points: 4
#     Node 7, Type 0, BuildingBlock: QUQFOY_clean_sbu_3, # of connection points: 4
#     Node 8, Type 0, BuildingBlock: QUQFOY_clean_sbu_3, # of connection points: 4
#     Node 9, Type 0, BuildingBlock: QUQFOY_clean_sbu_3, # of connection points: 4
#     Node 10, Type 0, BuildingBlock: QUQFOY_clean_sbu_3, # of connection points: 4
#     Node 11, Type 0, BuildingBlock: QUQFOY_clean_sbu_3, # of connection points: 4
#     Edge 12, Type (0, 0), BuildingBlock: EYOCIG_clean_linker_4, # of connection points: 2
#     Edge 13, Type (0, 0), BuildingBlock: EYOCIG_clean_linker_4, # of connection points: 2
#     Edge 14, Type (0, 0), BuildingBlock: EYOCIG_clean_linker_4, # of connection points: 2
#     Edge 15, Type (0, 0), BuildingBlock: EYOCIG_clean_linker_4, # of connection points: 2
#     Edge 16, Type (0, 0), BuildingBlock: EYOCIG_clean_linker_4, # of connection points: 2
#     Edge 17, Type (0, 0), BuildingBlock: EYOCIG_clean_linker_4, # of connection points: 2
#     Edge 18, Type (0, 0), BuildingBlock: EYOCIG_clean_linker_4, # of connection points: 2
#     Edge 19, Type (0, 0), BuildingBlock: EYOCIG_clean_linker_4, # of connection points: 2
#     Edge 20, Type (0, 0), BuildingBlock: EYOCIG_clean_linker_4, # of connection points: 2
#     Edge 21, Type (0, 0), BuildingBlock: EYOCIG_clean_linker_4, # of connection points: 2
#     Edge 22, Type (0, 0), BuildingBlock: EYOCIG_clean_linker_4, # of connection points: 2
#     Edge 23, Type (0, 0), BuildingBlock: EYOCIG_clean_linker_4, # of connection points: 2
#     Edge 24, Type (0, 0), BuildingBlock: EYOCIG_clean_linker_4, # of connection points: 2
#     Edge 25, Type (0, 0), BuildingBlock: EYOCIG_clean_linker_4, # of connection points: 2
#     Edge 26, Type (0, 0), BuildingBlock: EYOCIG_clean_linker_4, # of connection points: 2
#     Edge 27, Type (0, 0), BuildingBlock: EYOCIG_clean_linker_4, # of connection points: 2
#     Edge 28, Type (0, 0), BuildingBlock: EYOCIG_clean_linker_4, # of connection points: 2
#     Edge 29, Type (0, 0), BuildingBlock: EYOCIG_clean_linker_4, # of connection points: 2
#     Edge 30, Type (0, 0), BuildingBlock: EYOCIG_clean_linker_4, # of connection points: 2
#     Edge 31, Type (0, 0), BuildingBlock: EYOCIG_clean_linker_4, # of connection points: 2
#     Edge 32, Type (0, 0), BuildingBlock: EYOCIG_clean_linker_4, # of connection points: 2
#     Edge 33, Type (0, 0), BuildingBlock: EYOCIG_clean_linker_4, # of connection points: 2
#     Edge 34, Type (0, 0), BuildingBlock: EYOCIG_clean_linker_4, # of connection points: 2
#     Edge 35, Type (0, 0), BuildingBlock: EYOCIG_clean_linker_4, # of connection points: 2
# Relax obj value: 0.116
# Max RMSD: 0.172
# Mean RMSD: 0.172
data_MOF--net-uol--node1-QUQFOY_clean_sbu_3--edge1-EYOCIG_clean_linker_4
_symmetry_space_group_name_H-M    P1
_symmetry_Int_Tables_number       1
_symmetry_cell_setting            triclinic
loop_
_symmetry_equiv_pos_as_xyz
'x, y, z'
_cell_length_a     28.35848
_cell_length_b     28.334569
_cell_length_c     54.621345
_cell_angle_alpha  89.947061
_cell_angle_beta   89.979133
_cell_angle_gamma 119.97292
loop_
_atom_site_label
_atom_site_type_symbol
_atom_site_fract_x
_atom_site_fract_y
_atom_site_fract_z
_atom_type_partial_charge
C0 C 0.09245 0.24622 0.03748 0.0
O1 O 0.05539 0.19964 0.04462 0.0
Cd2 Cd 0.01763 0.18484 0.08526 0.0
O3 O 0.1054 0.28887 0.04996 0.0
Cd4 Cd 0.07449 0.31716 0.0868 0.0
C5 C 0.14259 0.26825 0.11513 0.0
O6 O -0.01964 0.24247 0.09197 0.0
O7 O 0.01846 0.29289 0.12373 0.0
O8 O 0.05808 0.37938 0.06265 0.0
C9 C -0.02338 0.25356 0.11414 0.0
O10 O 0.10186 0.22258 0.10916 0.0
C11 C 0.09025 0.42108 0.07502 0.0
O12 O 0.14602 0.3132 0.10914 0.0
O13 O 0.11587 0.41486 0.0926 0.0
C14 C 0.81195 0.1088 0.2043 0.0
O15 O 0.82117 0.072 0.21211 0.0
Cd16 Cd 0.79752 0.03498 0.25274 0.0
O17 O 0.78223 0.12261 0.21625 0.0
Cd18 Cd 0.72253 0.09242 0.25299 0.0
C19 C 0.83706 0.1591 0.28315 0.0
O20 O 0.70282 -0.00161 0.2587 0.0
O21 O 0.69079 0.03722 0.29023 0.0
O22 O 0.64411 0.07361 0.2284 0.0
C23 C 0.68799 -0.00495 0.28083 0.0
O24 O 0.84205 0.11819 0.27749 0.0
C25 C 0.63266 0.10479 0.24047 0.0
O26 O 0.79692 0.16367 0.27594 0.0
O27 O 0.66377 0.13167 0.25806 0.0
C28 C 0.66807 0.82966 0.37082 0.0
O29 O 0.71391 0.83825 0.3785 0.0
Cd30 Cd 0.72707 0.8138 0.41902 0.0
O31 O 0.62452 0.80012 0.3828 0.0
Cd32 Cd 0.59475 0.74028 0.41958 0.0
C33 C 0.64363 0.85519 0.44921 0.0
O34 O 0.66828 0.71928 0.42544 0.0
O35 O 0.61788 0.70912 0.45698 0.0
O36 O 0.53322 0.66092 0.39592 0.0
C37 C 0.65661 0.70509 0.44766 0.0
O38 O 0.68908 0.85931 0.44348 0.0
C39 C 0.49153 0.65092 0.40841 0.0
O40 O 0.59856 0.81523 0.44228 0.0
O41 O 0.49717 0.68354 0.42555 0.0
C42 C 0.80215 0.68588 0.53784 0.0
O43 O 0.83929 0.73192 0.5454 0.0
Cd44 Cd 0.87649 0.74508 0.58603 0.0
O45 O 0.78859 0.64249 0.54991 0.0
Cd46 Cd 0.81958 0.61307 0.58644 0.0
C47 C 0.75246 0.66054 0.61657 0.0
O48 O 0.91369 0.68741 0.59216 0.0
O49 O 0.87448 0.63639 0.62368 0.0
O50 O 0.83815 0.55336 0.56177 0.0
C51 C 0.91675 0.67573 0.61432 0.0
O52 O 0.79326 0.70651 0.6109 0.0
C53 C 0.80694 0.51078 0.57389 0.0
O54 O 0.74815 0.61591 0.60938 0.0
O55 O 0.78014 0.5151 0.5915 0.0
C56 C 0.08192 0.8212 0.70441 0.0
O57 O 0.07399 0.85906 0.71188 0.0
Cd58 Cd 0.0985 0.89612 0.75251 0.0
O59 O 0.11104 0.80689 0.71656 0.0
Cd60 Cd 0.17142 0.83724 0.7532 0.0
C61 C 0.05595 0.77035 0.78226 0.0
O62 O 0.19311 0.93213 0.75906 0.0
O63 O 0.20305 0.89155 0.79055 0.0
O64 O 0.24928 0.85551 0.72838 0.0
C65 C 0.20763 0.93459 0.78121 0.0
O66 O 0.0521 0.81183 0.77644 0.0
C67 C 0.26056 0.82413 0.7404 0.0
O68 O 0.09636 0.76549 0.77578 0.0
O69 O 0.22957 0.79735 0.75807 0.0
C70 C 0.2273 0.09941 0.87132 0.0
O71 O 0.18103 0.09024 0.87869 0.0
Cd72 Cd 0.16822 0.11456 0.91943 0.0
O73 O 0.27025 0.12939 0.88352 0.0
Cd74 Cd 0.29862 0.18957 0.92005 0.0
C75 C 0.25155 0.07367 0.94962 0.0
O76 O 0.22451 0.2103 0.92545 0.0
O77 O 0.27522 0.22185 0.95702 0.0
O78 O 0.35996 0.26747 0.89536 0.0
C79 C 0.23667 0.22589 0.94748 0.0
O80 O 0.20538 0.06803 0.94406 0.0
C81 C 0.4021 0.2777 0.90754 0.0
O82 O 0.29581 0.11489 0.94279 0.0
O83 O 0.3966 0.24655 0.92534 0.0
C84 C 0.66495 0.81888 0.75684 0.0
O85 O 0.71143 0.85605 0.7497 0.0
Cd86 Cd 0.72598 0.89384 0.70907 0.0
O87 O 0.62233 0.80582 0.74434 0.0
Cd88 Cd 0.59489 0.83745 0.70735 0.0
C89 C 0.64316 0.76892 0.67908 0.0
O90 O 0.66917 0.93228 0.7024 0.0
O91 O 0.61955 0.89355 0.6705 0.0
O92 O 0.53388 0.85521 0.7314 0.0
C93 C 0.65776 0.93598 0.68027 0.0
O94 O 0.68873 0.80968 0.6851 0.0
C95 C 0.49196 0.82411 0.71894 0.0
O96 O 0.59823 0.76549 0.685 0.0
O97 O 0.49722 0.79769 0.70142 0.0
C98 C 0.81211 0.68537 0.92312 0.0
O99 O 0.82039 0.73147 0.91587 0.0
Cd100 Cd 0.79514 0.7446 0.87546 0.0
O101 O 0.78244 0.64224 0.91092 0.0
Cd102 Cd 0.72185 0.61288 0.87446 0.0
C103 C 0.83698 0.66192 0.84492 0.0
O104 O 0.70015 0.68639 0.8692 0.0
O105 O 0.69047 0.63692 0.83739 0.0
O106 O 0.64325 0.54976 0.89841 0.0
C107 C 0.68559 0.67491 0.84702 0.0
O108 O 0.84124 0.70738 0.85082 0.0
C109 C 0.63396 0.50837 0.88584 0.0
O110 O 0.7967 0.6168 0.85163 0.0
O111 O 0.66614 0.51508 0.86832 0.0
C112 C 0.09179 0.82844 0.09052 0.0
O113 O 0.05553 0.83855 0.08282 0.0
Cd114 Cd 0.01912 0.81592 0.04188 0.0
O115 O 0.10505 0.79862 0.07831 0.0
Cd116 Cd 0.07466 0.74035 0.04114 0.0
C117 C 0.14362 0.857 0.012 0.0
O118 O -0.01967 0.72055 0.03528 0.0
O119 O 0.0198 0.70826 0.00401 0.0
O120 O 0.05742 0.66171 0.06529 0.0
C121 C -0.02261 0.70527 0.01322 0.0
O122 O 0.10304 0.86259 0.01754 0.0
C123 C 0.08983 0.652 0.0532 0.0
O124 O 0.14662 0.81563 0.01869 0.0
O125 O 0.116 0.68374 0.03565 0.0
C126 C 0.22578 0.10866 0.25672 0.0
O127 O 0.17974 0.07213 0.2489 0.0
Cd128 Cd 0.1667 0.03516 0.20828 0.0
O129 O 0.26925 0.1222 0.24475 0.0
Cd130 Cd 0.29795 0.09144 0.20782 0.0
C131 C 0.25085 0.15907 0.17767 0.0
O132 O 0.2236 -0.00326 0.20266 0.0
O133 O 0.2736 0.03545 0.17085 0.0
O134 O 0.35903 0.07369 0.23194 0.0
C135 C 0.23514 -0.00697 0.18057 0.0
O136 O 0.20486 0.11832 0.1833 0.0
C137 C 0.40099 0.10478 0.21946 0.0
O138 O 0.29531 0.16314 0.18488 0.0
O139 O 0.39574 0.13123 0.20193 0.0
C140 C 0.08303 0.24664 0.42364 0.0
O141 O 0.07352 0.20007 0.41652 0.0
Cd142 Cd 0.09592 0.18482 0.37589 0.0
O143 O 0.11246 0.28928 0.41107 0.0
Cd144 Cd 0.1714 0.31706 0.3741 0.0
C145 C 0.05471 0.26861 0.34582 0.0
O146 O 0.19057 0.24221 0.36891 0.0
O147 O 0.20317 0.29277 0.33711 0.0
O148 O 0.24971 0.37667 0.39875 0.0
C149 C 0.20542 0.25325 0.34673 0.0
O150 O 0.04993 0.22308 0.352 0.0
C151 C 0.26081 0.41926 0.38671 0.0
O152 O 0.09615 0.3137 0.35165 0.0
O153 O 0.22981 0.41486 0.36903 0.0
C154 C 0.80101 0.10092 0.5903 0.0
O155 O 0.83843 0.09181 0.58333 0.0
Cd156 Cd 0.87686 0.11522 0.54284 0.0
O157 O 0.78786 0.13029 0.57765 0.0
Cd158 Cd 0.81981 0.18948 0.54072 0.0
C159 C 0.75268 0.0737 0.51207 0.0
O160 O 0.91472 0.2102 0.53588 0.0
O161 O 0.87591 0.2206 0.50385 0.0
O162 O 0.83767 0.26791 0.56497 0.0
C163 C 0.91835 0.22492 0.51368 0.0
O164 O 0.79351 0.06925 0.51837 0.0
C165 C 0.8068 0.27914 0.55254 0.0
O166 O 0.74831 0.11464 0.5181 0.0
O167 O 0.78046 0.24782 0.53492 0.0
C168 C 0.09778 0.56492 0.06202 0.0
C169 C 0.09394 0.60463 0.0581 0.0
C170 C 0.09802 0.51603 0.06615 0.0
C171 C 0.09469 0.47279 0.07031 0.0
C172 C 0.54347 0.10868 0.23143 0.0
C173 C 0.58415 0.10671 0.23547 0.0
C174 C 0.49446 0.10877 0.22751 0.0
C175 C 0.45171 0.10687 0.22387 0.0
C176 C 0.39833 0.56094 0.40091 0.0
C177 C 0.44073 0.60216 0.40449 0.0
C178 C 0.34956 0.51197 0.39657 0.0
C179 C 0.30891 0.46982 0.3919 0.0
C180 C 0.80313 0.4177 0.56493 0.0
C181 C 0.80502 0.46033 0.56895 0.0
C182 C 0.80305 0.36863 0.56092 0.0
C183 C 0.80483 0.32777 0.55713 0.0
C184 C 0.39836 0.81976 0.72701 0.0
C185 C 0.44121 0.82188 0.72339 0.0
C186 C 0.34937 0.81979 0.73105 0.0
C187 C 0.30885 0.82192 0.73525 0.0
C188 C 0.49695 0.36473 0.89834 0.0
C189 C 0.4535 0.32505 0.90244 0.0
C190 C 0.54625 0.41344 0.89414 0.0
C191 C 0.58645 0.45658 0.89016 0.0
C192 C 0.24051 0.23089 0.15162 0.0
C193 C 0.25111 0.20153 0.1634 0.0
C194 C 0.21593 0.25595 0.13874 0.0
C195 C 0.18595 0.26753 0.12813 0.0
C196 C 0.91924 0.23022 0.30927 0.0
C197 C 0.87932 0.20117 0.29747 0.0
C198 C -0.03116 0.25539 0.32214 0.0
C199 C 0.01049 0.26746 0.33276 0.0
C200 C 0.68138 -0.01143 0.48753 0.0
C201 C 0.71046 0.02981 0.49854 0.0
C202 C 0.65663 0.93896 0.47467 0.0
C203 C 0.64487 0.89839 0.46318 0.0
C204 C 0.68093 0.6712 0.64263 0.0
C205 C 0.7102 0.66051 0.63085 0.0
C206 C 0.6558 0.69571 0.65549 0.0
C207 C 0.64403 0.72559 0.66609 0.0
C208 C 0.92094 0.67466 0.81963 0.0
C209 C 0.8803 0.66314 0.83103 0.0
C210 C -0.02939 0.69907 0.80678 0.0
C211 C 0.0119 0.72799 0.79574 0.0
C212 C 0.21753 0.94083 -0.01251 0.0
C213 C 0.18728 0.90002 -0.00143 0.0
C214 C 0.24216 -0.00953 0.97456 0.0
C215 C 0.25235 0.03097 0.96328 0.0
C216 C 0.14676 0.25147 -0.00275 0.0
C217 C 0.12272 0.25041 0.01568 0.0
C218 C 0.17636 0.24695 0.97743 0.0
C219 C 0.20194 0.23713 0.96264 0.0
C220 C 0.86229 0.16087 0.16387 0.0
C221 C 0.8387 0.13789 0.18237 0.0
C222 C 0.89656 0.19027 0.14406 0.0
C223 C 0.9314 0.21716 0.12926 0.0
C224 C 0.67136 0.91528 0.31092 0.0
C225 C 0.67923 0.9501 0.29612 0.0
C226 C 0.66657 0.88083 0.33063 0.0
C227 C 0.66597 0.85692 0.34902 0.0
C228 C 0.74861 0.68339 0.49781 0.0
C229 C 0.77235 0.68329 0.51613 0.0
C230 C 0.71882 0.68785 0.47807 0.0
C231 C 0.69226 0.69592 0.46314 0.0
C232 C 0.03064 0.76826 0.66429 0.0
C233 C 0.05457 0.79168 0.68265 0.0
C234 C -0.00372 0.7386 0.64455 0.0
C235 C -0.03841 0.71177 0.6297 0.0
C236 C 0.23148 0.04907 0.83131 0.0
C237 C 0.23079 0.07258 0.84962 0.0
C238 C 0.22713 0.0149 0.81154 0.0
C239 C 0.21806 -0.02009 0.79664 0.0
C240 C 0.66026 0.76502 0.79719 0.0
C241 C 0.66091 0.78877 0.77871 0.0
C242 C 0.66505 0.73565 0.81706 0.0
C243 C 0.67458 0.70989 0.8319 0.0
C244 C 0.86341 0.68212 0.96296 0.0
C245 C 0.83947 0.68236 0.94472 0.0
C246 C 0.89762 0.68664 -0.01726 0.0
C247 C 0.93238 0.6954 -0.00229 0.0
C248 C 0.1442 0.87719 0.13115 0.0
C249 C 0.12106 0.85431 0.11256 0.0
C250 C 0.17359 0.91151 0.15095 0.0
C251 C 0.19975 0.94701 0.1656 0.0
C252 C 0.22749 0.16062 0.29716 0.0
C253 C 0.22821 0.13774 0.27866 0.0
C254 C 0.22243 0.18994 0.31695 0.0
C255 C 0.21436 0.21683 0.33169 0.0
C256 C 0.03444 0.2512 0.46417 0.0
C257 C 0.05732 0.25074 0.4456 0.0
C258 C 0.00022 0.24601 0.48407 0.0
C259 C -0.03529 0.2362 0.4988 0.0
C260 C 0.71823 0.01788 0.6506 0.0
C261 C 0.69268 -0.01765 0.66535 0.0
C262 C 0.74733 0.05207 0.63069 0.0
C263 C 0.77095 0.07504 0.61218 0.0
loop_
_geom_bond_atom_site_label_1
_geom_bond_atom_site_label_2
_geom_bond_distance
_geom_bond_site_symmetry_2
_ccdc_geom_bond_type
C0 O1 1.306 . S
C0 O3 1.160 . S
O1 C0 1.306 . S
O1 Cd2 2.228 . S
Cd2 O1 2.228 . S
Cd2 O6 2.273 . S
Cd2 O10 2.277 . S
O3 C0 1.160 . S
O3 Cd4 2.203 . S
Cd4 O3 2.203 . S
Cd4 O6 2.411 . S
Cd4 O7 2.333 . S
Cd4 O8 2.352 . S
Cd4 O12 2.277 . S
Cd4 O13 2.356 . S
C5 O10 1.209 . S
C5 O12 1.226 . S
O6 Cd2 2.273 . S
O6 Cd4 2.411 . S
O6 C9 1.320 . S
O7 Cd4 2.333 . S
O7 C9 1.214 . S
O8 Cd4 2.352 . S
O8 C11 1.258 . S
C9 O6 1.320 . S
C9 O7 1.214 . S
O10 Cd2 2.277 . S
O10 C5 1.209 . S
C11 O8 1.258 . S
C11 O13 1.282 . S
O12 Cd4 2.277 . S
O12 C5 1.226 . S
O13 Cd4 2.356 . S
O13 C11 1.282 . S
C14 O15 1.306 . S
C14 O17 1.160 . S
O15 C14 1.306 . S
O15 Cd16 2.228 . S
Cd16 O15 2.228 . S
Cd16 O20 2.273 . S
Cd16 O24 2.277 . S
O17 C14 1.160 . S
O17 Cd18 2.203 . S
Cd18 O17 2.203 . S
Cd18 O20 2.411 . S
Cd18 O21 2.333 . S
Cd18 O22 2.352 . S
Cd18 O26 2.277 . S
Cd18 O27 2.356 . S
C19 O24 1.209 . S
C19 O26 1.226 . S
O20 Cd16 2.273 . S
O20 Cd18 2.411 . S
O20 C23 1.320 . S
O21 Cd18 2.333 . S
O21 C23 1.214 . S
O22 Cd18 2.352 . S
O22 C25 1.258 . S
C23 O20 1.320 . S
C23 O21 1.214 . S
O24 Cd16 2.277 . S
O24 C19 1.209 . S
C25 O22 1.258 . S
C25 O27 1.282 . S
O26 Cd18 2.277 . S
O26 C19 1.226 . S
O27 Cd18 2.356 . S
O27 C25 1.282 . S
C28 O29 1.306 . S
C28 O31 1.160 . S
O29 C28 1.306 . S
O29 Cd30 2.228 . S
Cd30 O29 2.228 . S
Cd30 O34 2.273 . S
Cd30 O38 2.277 . S
O31 C28 1.160 . S
O31 Cd32 2.203 . S
Cd32 O31 2.203 . S
Cd32 O34 2.411 . S
Cd32 O35 2.333 . S
Cd32 O36 2.352 . S
Cd32 O40 2.277 . S
Cd32 O41 2.356 . S
C33 O38 1.209 . S
C33 O40 1.226 . S
O34 Cd30 2.273 . S
O34 Cd32 2.411 . S
O34 C37 1.320 . S
O35 Cd32 2.333 . S
O35 C37 1.214 . S
O36 Cd32 2.352 . S
O36 C39 1.258 . S
C37 O34 1.320 . S
C37 O35 1.214 . S
O38 Cd30 2.277 . S
O38 C33 1.209 . S
C39 O36 1.258 . S
C39 O41 1.282 . S
O40 Cd32 2.277 . S
O40 C33 1.226 . S
O41 Cd32 2.356 . S
O41 C39 1.282 . S
C42 O43 1.306 . S
C42 O45 1.160 . S
O43 C42 1.306 . S
O43 Cd44 2.228 . S
Cd44 O43 2.228 . S
Cd44 O48 2.273 . S
Cd44 O52 2.277 . S
O45 C42 1.160 . S
O45 Cd46 2.203 . S
Cd46 O45 2.203 . S
Cd46 O48 2.411 . S
Cd46 O49 2.333 . S
Cd46 O50 2.352 . S
Cd46 O54 2.277 . S
Cd46 O55 2.356 . S
C47 O52 1.209 . S
C47 O54 1.226 . S
O48 Cd44 2.273 . S
O48 Cd46 2.411 . S
O48 C51 1.320 . S
O49 Cd46 2.333 . S
O49 C51 1.214 . S
O50 Cd46 2.352 . S
O50 C53 1.258 . S
C51 O48 1.320 . S
C51 O49 1.214 . S
O52 Cd44 2.277 . S
O52 C47 1.209 . S
C53 O50 1.258 . S
C53 O55 1.282 . S
O54 Cd46 2.277 . S
O54 C47 1.226 . S
O55 Cd46 2.356 . S
O55 C53 1.282 . S
C56 O57 1.306 . S
C56 O59 1.160 . S
O57 C56 1.306 . S
O57 Cd58 2.228 . S
Cd58 O57 2.228 . S
Cd58 O62 2.273 . S
Cd58 O66 2.277 . S
O59 C56 1.160 . S
O59 Cd60 2.203 . S
Cd60 O59 2.203 . S
Cd60 O62 2.411 . S
Cd60 O63 2.333 . S
Cd60 O64 2.352 . S
Cd60 O68 2.277 . S
Cd60 O69 2.356 . S
C61 O66 1.209 . S
C61 O68 1.226 . S
O62 Cd58 2.273 . S
O62 Cd60 2.411 . S
O62 C65 1.320 . S
O63 Cd60 2.333 . S
O63 C65 1.214 . S
O64 Cd60 2.352 . S
O64 C67 1.258 . S
C65 O62 1.320 . S
C65 O63 1.214 . S
O66 Cd58 2.277 . S
O66 C61 1.209 . S
C67 O64 1.258 . S
C67 O69 1.282 . S
O68 Cd60 2.277 . S
O68 C61 1.226 . S
O69 Cd60 2.356 . S
O69 C67 1.282 . S
C70 O71 1.306 . S
C70 O73 1.160 . S
O71 C70 1.306 . S
O71 Cd72 2.228 . S
Cd72 O71 2.228 . S
Cd72 O76 2.273 . S
Cd72 O80 2.277 . S
O73 C70 1.160 . S
O73 Cd74 2.203 . S
Cd74 O73 2.203 . S
Cd74 O76 2.411 . S
Cd74 O77 2.333 . S
Cd74 O78 2.352 . S
Cd74 O82 2.277 . S
Cd74 O83 2.356 . S
C75 O80 1.209 . S
C75 O82 1.226 . S
O76 Cd72 2.273 . S
O76 Cd74 2.411 . S
O76 C79 1.320 . S
O77 Cd74 2.333 . S
O77 C79 1.214 . S
O78 Cd74 2.352 . S
O78 C81 1.258 . S
C79 O76 1.320 . S
C79 O77 1.214 . S
O80 Cd72 2.277 . S
O80 C75 1.209 . S
C81 O78 1.258 . S
C81 O83 1.282 . S
O82 Cd74 2.277 . S
O82 C75 1.226 . S
O83 Cd74 2.356 . S
O83 C81 1.282 . S
C84 O85 1.306 . S
C84 O87 1.160 . S
O85 C84 1.306 . S
O85 Cd86 2.228 . S
Cd86 O85 2.228 . S
Cd86 O90 2.273 . S
Cd86 O94 2.277 . S
O87 C84 1.160 . S
O87 Cd88 2.203 . S
Cd88 O87 2.203 . S
Cd88 O90 2.411 . S
Cd88 O91 2.333 . S
Cd88 O92 2.352 . S
Cd88 O96 2.277 . S
Cd88 O97 2.356 . S
C89 O94 1.209 . S
C89 O96 1.226 . S
O90 Cd86 2.273 . S
O90 Cd88 2.411 . S
O90 C93 1.320 . S
O91 Cd88 2.333 . S
O91 C93 1.214 . S
O92 Cd88 2.352 . S
O92 C95 1.258 . S
C93 O90 1.320 . S
C93 O91 1.214 . S
O94 Cd86 2.277 . S
O94 C89 1.209 . S
C95 O92 1.258 . S
C95 O97 1.282 . S
O96 Cd88 2.277 . S
O96 C89 1.226 . S
O97 Cd88 2.356 . S
O97 C95 1.282 . S
C98 O99 1.306 . S
C98 O101 1.160 . S
O99 C98 1.306 . S
O99 Cd100 2.228 . S
Cd100 O99 2.228 . S
Cd100 O104 2.273 . S
Cd100 O108 2.277 . S
O101 C98 1.160 . S
O101 Cd102 2.203 . S
Cd102 O101 2.203 . S
Cd102 O104 2.411 . S
Cd102 O105 2.333 . S
Cd102 O106 2.352 . S
Cd102 O110 2.277 . S
Cd102 O111 2.356 . S
C103 O108 1.209 . S
C103 O110 1.226 . S
O104 Cd100 2.273 . S
O104 Cd102 2.411 . S
O104 C107 1.320 . S
O105 Cd102 2.333 . S
O105 C107 1.214 . S
O106 Cd102 2.352 . S
O106 C109 1.258 . S
C107 O104 1.320 . S
C107 O105 1.214 . S
O108 Cd100 2.277 . S
O108 C103 1.209 . S
C109 O106 1.258 . S
C109 O111 1.282 . S
O110 Cd102 2.277 . S
O110 C103 1.226 . S
O111 Cd102 2.356 . S
O111 C109 1.282 . S
C112 O113 1.306 . S
C112 O115 1.160 . S
O113 C112 1.306 . S
O113 Cd114 2.228 . S
Cd114 O113 2.228 . S
Cd114 O118 2.273 . S
Cd114 O122 2.277 . S
O115 C112 1.160 . S
O115 Cd116 2.203 . S
Cd116 O115 2.203 . S
Cd116 O118 2.411 . S
Cd116 O119 2.333 . S
Cd116 O120 2.352 . S
Cd116 O124 2.277 . S
Cd116 O125 2.356 . S
C117 O122 1.209 . S
C117 O124 1.226 . S
O118 Cd114 2.273 . S
O118 Cd116 2.411 . S
O118 C121 1.320 . S
O119 Cd116 2.333 . S
O119 C121 1.214 . S
O120 Cd116 2.352 . S
O120 C123 1.258 . S
C121 O118 1.320 . S
C121 O119 1.214 . S
O122 Cd114 2.277 . S
O122 C117 1.209 . S
C123 O120 1.258 . S
C123 O125 1.282 . S
O124 Cd116 2.277 . S
O124 C117 1.226 . S
O125 Cd116 2.356 . S
O125 C123 1.282 . S
C126 O127 1.306 . S
C126 O129 1.160 . S
O127 C126 1.306 . S
O127 Cd128 2.228 . S
Cd128 O127 2.228 . S
Cd128 O132 2.273 . S
Cd128 O136 2.277 . S
O129 C126 1.160 . S
O129 Cd130 2.203 . S
Cd130 O129 2.203 . S
Cd130 O132 2.411 . S
Cd130 O133 2.333 . S
Cd130 O134 2.352 . S
Cd130 O138 2.277 . S
Cd130 O139 2.356 . S
C131 O136 1.209 . S
C131 O138 1.226 . S
O132 Cd128 2.273 . S
O132 Cd130 2.411 . S
O132 C135 1.320 . S
O133 Cd130 2.333 . S
O133 C135 1.214 . S
O134 Cd130 2.352 . S
O134 C137 1.258 . S
C135 O132 1.320 . S
C135 O133 1.214 . S
O136 Cd128 2.277 . S
O136 C131 1.209 . S
C137 O134 1.258 . S
C137 O139 1.282 . S
O138 Cd130 2.277 . S
O138 C131 1.226 . S
O139 Cd130 2.356 . S
O139 C137 1.282 . S
C140 O141 1.306 . S
C140 O143 1.160 . S
O141 C140 1.306 . S
O141 Cd142 2.228 . S
Cd142 O141 2.228 . S
Cd142 O146 2.273 . S
Cd142 O150 2.277 . S
O143 C140 1.160 . S
O143 Cd144 2.203 . S
Cd144 O143 2.203 . S
Cd144 O146 2.411 . S
Cd144 O147 2.333 . S
Cd144 O148 2.352 . S
Cd144 O152 2.277 . S
Cd144 O153 2.356 . S
C145 O150 1.209 . S
C145 O152 1.226 . S
O146 Cd142 2.273 . S
O146 Cd144 2.411 . S
O146 C149 1.320 . S
O147 Cd144 2.333 . S
O147 C149 1.214 . S
O148 Cd144 2.352 . S
O148 C151 1.258 . S
C149 O146 1.320 . S
C149 O147 1.214 . S
O150 Cd142 2.277 . S
O150 C145 1.209 . S
C151 O148 1.258 . S
C151 O153 1.282 . S
O152 Cd144 2.277 . S
O152 C145 1.226 . S
O153 Cd144 2.356 . S
O153 C151 1.282 . S
C154 O155 1.306 . S
C154 O157 1.160 . S
O155 C154 1.306 . S
O155 Cd156 2.228 . S
Cd156 O155 2.228 . S
Cd156 O160 2.273 . S
Cd156 O164 2.277 . S
O157 C154 1.160 . S
O157 Cd158 2.203 . S
Cd158 O157 2.203 . S
Cd158 O160 2.411 . S
Cd158 O161 2.333 . S
Cd158 O162 2.352 . S
Cd158 O166 2.277 . S
Cd158 O167 2.356 . S
C159 O164 1.209 . S
C159 O166 1.226 . S
O160 Cd156 2.273 . S
O160 Cd158 2.411 . S
O160 C163 1.320 . S
O161 Cd158 2.333 . S
O161 C163 1.214 . S
O162 Cd158 2.352 . S
O162 C165 1.258 . S
C163 O160 1.320 . S
C163 O161 1.214 . S
O164 Cd156 2.277 . S
O164 C159 1.209 . S
C165 O162 1.258 . S
C165 O167 1.282 . S
O166 Cd158 2.277 . S
O166 C159 1.226 . S
O167 Cd158 2.356 . S
O167 C165 1.282 . S
C168 C169 1.170 . S
C168 C170 1.380 . S
C169 C168 1.170 . S
C170 C168 1.380 . S
C170 C171 1.170 . S
C171 C170 1.170 . S
C172 C173 1.170 . S
C172 C174 1.380 . S
C173 C172 1.170 . S
C174 C172 1.380 . S
C174 C175 1.170 . S
C175 C174 1.170 . S
C176 C177 1.170 . S
C176 C178 1.380 . S
C177 C176 1.170 . S
C178 C176 1.380 . S
C178 C179 1.170 . S
C179 C178 1.170 . S
C180 C181 1.170 . S
C180 C182 1.380 . S
C181 C180 1.170 . S
C182 C180 1.380 . S
C182 C183 1.170 . S
C183 C182 1.170 . S
C184 C185 1.170 . S
C184 C186 1.380 . S
C185 C184 1.170 . S
C186 C184 1.380 . S
C186 C187 1.170 . S
C187 C186 1.170 . S
C188 C189 1.170 . S
C188 C190 1.380 . S
C189 C188 1.170 . S
C190 C188 1.380 . S
C190 C191 1.170 . S
C191 C190 1.170 . S
C192 C193 1.170 . S
C192 C194 1.380 . S
C193 C192 1.170 . S
C194 C192 1.380 . S
C194 C195 1.170 . S
C195 C194 1.170 . S
C196 C197 1.170 . S
C196 C198 1.380 1_655 S
C197 C196 1.170 . S
C198 C196 1.380 1_455 S
C198 C199 1.170 . S
C199 C198 1.170 . S
C200 C201 1.170 . S
C200 C202 1.380 1_545 S
C201 C200 1.170 . S
C202 C200 1.380 1_565 S
C202 C203 1.170 . S
C203 C202 1.170 . S
C204 C205 1.170 . S
C204 C206 1.380 . S
C205 C204 1.170 . S
C206 C204 1.380 . S
C206 C207 1.170 . S
C207 C206 1.170 . S
C208 C209 1.170 . S
C208 C210 1.380 1_655 S
C209 C208 1.170 . S
C210 C208 1.380 1_455 S
C210 C211 1.170 . S
C211 C210 1.170 . S
C212 C213 1.170 . S
C212 C214 1.380 1_564 S
C213 C212 1.170 . S
C214 C212 1.380 1_546 S
C214 C215 1.170 . S
C215 C214 1.170 . S
C216 C217 1.170 . S
C216 C218 1.394 . S
C217 C216 1.170 . S
C218 C216 1.394 . S
C218 C219 1.156 1_554 S
C219 C218 1.156 1_556 S
C220 C221 1.170 . S
C220 C222 1.380 . S
C221 C220 1.170 . S
C222 C220 1.380 . S
C222 C223 1.170 . S
C223 C222 1.170 . S
C224 C225 1.170 . S
C224 C226 1.380 . S
C225 C224 1.170 . S
C226 C224 1.380 . S
C226 C227 1.170 . S
C227 C226 1.170 . S
C228 C229 1.170 . S
C228 C230 1.380 . S
C229 C228 1.170 . S
C230 C228 1.380 . S
C230 C231 1.170 . S
C231 C230 1.170 . S
C232 C233 1.170 . S
C232 C234 1.380 . S
C233 C232 1.170 . S
C234 C232 1.380 . S
C234 C235 1.170 . S
C235 C234 1.170 . S
C236 C237 1.170 . S
C236 C238 1.380 . S
C237 C236 1.170 . S
C238 C236 1.380 . S
C238 C239 1.170 . S
C239 C238 1.170 . S
C240 C241 1.170 . S
C240 C242 1.380 . S
C241 C240 1.170 . S
C242 C240 1.380 . S
C242 C243 1.170 . S
C243 C242 1.170 . S
C244 C245 1.170 . S
C244 C246 1.380 . S
C245 C244 1.170 . S
C246 C244 1.380 . S
C246 C247 1.170 1_556 S
C247 C246 1.170 1_554 S
C248 C249 1.170 . S
C248 C250 1.380 . S
C249 C248 1.170 . S
C250 C248 1.380 . S
C250 C251 1.170 . S
C251 C250 1.170 . S
C252 C253 1.170 . S
C252 C254 1.380 . S
C253 C252 1.170 . S
C254 C252 1.380 . S
C254 C255 1.170 . S
C255 C254 1.170 . S
C256 C257 1.170 . S
C256 C258 1.380 . S
C257 C256 1.170 . S
C258 C256 1.380 . S
C258 C259 1.170 . S
C259 C258 1.170 . S
C260 C261 1.170 . S
C260 C262 1.380 . S
C261 C260 1.170 . S
C262 C260 1.380 . S
C262 C263 1.170 . S
C263 C262 1.170 . S
C169 C123 1.349 . S
C171 C11 1.346 . S
C173 C25 1.346 . S
C175 C137 1.339 . S
C177 C39 1.338 . S
C179 C151 1.348 . S
C181 C53 1.345 . S
C183 C165 1.339 . S
C185 C95 1.338 . S
C187 C67 1.348 . S
C189 C81 1.350 . S
C191 C109 1.344 . S
C193 C131 1.099 . S
C195 C5 1.101 . S
C197 C19 1.096 . S
C199 C145 1.098 . S
C201 C159 1.089 . S
C203 C33 1.088 . S
C205 C47 1.099 . S
C207 C89 1.101 . S
C209 C103 1.088 . S
C211 C61 1.089 . S
C213 C117 1.112 . S
C215 C75 1.111 . S
C217 C0 1.463 . S
C219 C79 1.473 . S
C221 C14 1.472 . S
C223 C9 1.455 1_655 S
C225 C23 1.454 1_565 S
C227 C28 1.471 . S
C229 C42 1.461 . S
C231 C37 1.450 . S
C233 C56 1.470 . S
C235 C51 1.453 1_455 S
C237 C70 1.456 . S
C239 C65 1.460 1_545 S
C241 C84 1.466 . S
C243 C107 1.475 . S
C245 C98 1.457 . S
C247 C121 1.452 1_655 S
C249 C112 1.478 . S
C251 C135 1.479 1_565 S
C253 C126 1.473 . S
C255 C149 1.456 . S
C257 C140 1.471 . S
C259 C163 1.478 1_455 S
C261 C93 1.476 1_545 S
C263 C154 1.467 . S
