# Generated by pormake.
# Topology cag, (4)-cn, num edge types: 1
# Building blocks:
#     Node 0, Type 0, BuildingBlock: QUQFOY_clean_sbu_1, # of connection points: 4
#     Node 1, Type 0, BuildingBlock: QUQFOY_clean_sbu_1, # of connection points: 4
#     Node 2, Type 0, BuildingBlock: QUQFOY_clean_sbu_1, # of connection points: 4
#     Node 3, Type 0, BuildingBlock: QUQFOY_clean_sbu_1, # of connection points: 4
#     Node 4, Type 0, BuildingBlock: QUQFOY_clean_sbu_1, # of connection points: 4
#     Node 5, Type 0, BuildingBlock: QUQFOY_clean_sbu_1, # of connection points: 4
#     Node 6, Type 0, BuildingBlock: QUQFOY_clean_sbu_1, # of connection points: 4
#     Node 7, Type 0, BuildingBlock: QUQFOY_clean_sbu_1, # of connection points: 4
#     Node 8, Type 0, BuildingBlock: QUQFOY_clean_sbu_1, # of connection points: 4
#     Node 9, Type 0, BuildingBlock: QUQFOY_clean_sbu_1, # of connection points: 4
#     Node 10, Type 0, BuildingBlock: QUQFOY_clean_sbu_1, # of connection points: 4
#     Node 11, Type 0, BuildingBlock: QUQFOY_clean_sbu_1, # of connection points: 4
#     Node 12, Type 0, BuildingBlock: QUQFOY_clean_sbu_1, # of connection points: 4
#     Node 13, Type 0, BuildingBlock: QUQFOY_clean_sbu_1, # of connection points: 4
#     Node 14, Type 0, BuildingBlock: QUQFOY_clean_sbu_1, # of connection points: 4
#     Node 15, Type 0, BuildingBlock: QUQFOY_clean_sbu_1, # of connection points: 4
#     Edge 16, Type (0, 0), BuildingBlock: CIFDUS_clean_linker_0, # of connection points: 2
#     Edge 17, Type (0, 0), BuildingBlock: CIFDUS_clean_linker_0, # of connection points: 2
#     Edge 18, Type (0, 0), BuildingBlock: CIFDUS_clean_linker_0, # of connection points: 2
#     Edge 19, Type (0, 0), BuildingBlock: CIFDUS_clean_linker_0, # of connection points: 2
#     Edge 20, Type (0, 0), BuildingBlock: CIFDUS_clean_linker_0, # of connection points: 2
#     Edge 21, Type (0, 0), BuildingBlock: CIFDUS_clean_linker_0, # of connection points: 2
#     Edge 22, Type (0, 0), BuildingBlock: CIFDUS_clean_linker_0, # of connection points: 2
#     Edge 23, Type (0, 0), BuildingBlock: CIFDUS_clean_linker_0, # of connection points: 2
#     Edge 24, Type (0, 0), BuildingBlock: CIFDUS_clean_linker_0, # of connection points: 2
#     Edge 25, Type (0, 0), BuildingBlock: CIFDUS_clean_linker_0, # of connection points: 2
#     Edge 26, Type (0, 0), BuildingBlock: CIFDUS_clean_linker_0, # of connection points: 2
#     Edge 27, Type (0, 0), BuildingBlock: CIFDUS_clean_linker_0, # of connection points: 2
#     Edge 28, Type (0, 0), BuildingBlock: CIFDUS_clean_linker_0, # of connection points: 2
#     Edge 29, Type (0, 0), BuildingBlock: CIFDUS_clean_linker_0, # of connection points: 2
#     Edge 30, Type (0, 0), BuildingBlock: CIFDUS_clean_linker_0, # of connection points: 2
#     Edge 31, Type (0, 0), BuildingBlock: CIFDUS_clean_linker_0, # of connection points: 2
#     Edge 32, Type (0, 0), BuildingBlock: CIFDUS_clean_linker_0, # of connection points: 2
#     Edge 33, Type (0, 0), BuildingBlock: CIFDUS_clean_linker_0, # of connection points: 2
#     Edge 34, Type (0, 0), BuildingBlock: CIFDUS_clean_linker_0, # of connection points: 2
#     Edge 35, Type (0, 0), BuildingBlock: CIFDUS_clean_linker_0, # of connection points: 2
#     Edge 36, Type (0, 0), BuildingBlock: CIFDUS_clean_linker_0, # of connection points: 2
#     Edge 37, Type (0, 0), BuildingBlock: CIFDUS_clean_linker_0, # of connection points: 2
#     Edge 38, Type (0, 0), BuildingBlock: CIFDUS_clean_linker_0, # of connection points: 2
#     Edge 39, Type (0, 0), BuildingBlock: CIFDUS_clean_linker_0, # of connection points: 2
#     Edge 40, Type (0, 0), BuildingBlock: CIFDUS_clean_linker_0, # of connection points: 2
#     Edge 41, Type (0, 0), BuildingBlock: CIFDUS_clean_linker_0, # of connection points: 2
#     Edge 42, Type (0, 0), BuildingBlock: CIFDUS_clean_linker_0, # of connection points: 2
#     Edge 43, Type (0, 0), BuildingBlock: CIFDUS_clean_linker_0, # of connection points: 2
#     Edge 44, Type (0, 0), BuildingBlock: CIFDUS_clean_linker_0, # of connection points: 2
#     Edge 45, Type (0, 0), BuildingBlock: CIFDUS_clean_linker_0, # of connection points: 2
#     Edge 46, Type (0, 0), BuildingBlock: CIFDUS_clean_linker_0, # of connection points: 2
#     Edge 47, Type (0, 0), BuildingBlock: CIFDUS_clean_linker_0, # of connection points: 2
# Relax obj value: 0.135
# Max RMSD: 0.199
# Mean RMSD: 0.177
data_MOF--net-cag--node1-QUQFOY_clean_sbu_1--edge1-CIFDUS_clean_linker_0
_symmetry_space_group_name_H-M    P1
_symmetry_Int_Tables_number       1
_symmetry_cell_setting            triclinic
loop_
_symmetry_equiv_pos_as_xyz
'x, y, z'
_cell_length_a     36.960444
_cell_length_b     49.577654
_cell_length_c     37.174313
_cell_angle_alpha  89.91252
_cell_angle_beta   90.033449
_cell_angle_gamma 89.819945
loop_
_atom_site_label
_atom_site_type_symbol
_atom_site_fract_x
_atom_site_fract_y
_atom_site_fract_z
_atom_type_partial_charge
O0 O 0.3006 0.16621 0.15106 0.0
Cd1 Cd 0.32481 0.17904 0.10438 0.0
Cd2 Cd 0.32444 0.12147 0.08862 0.0
O3 O 0.30053 0.12269 0.13869 0.0
O4 O 0.31855 0.21881 0.10522 0.0
O5 O 0.29537 0.19296 0.06264 0.0
C6 C 0.30006 0.21676 0.07597 0.0
C7 C 0.30495 0.08579 0.05247 0.0
C8 C 0.29324 0.14208 0.15979 0.0
C9 C 0.39587 0.15209 0.08831 0.0
O10 O 0.37865 0.13036 0.08266 0.0
O11 O 0.37952 0.17336 0.09826 0.0
O12 O 0.32408 0.08181 0.08087 0.0
O13 O 0.29645 0.11031 0.04425 0.0
O14 O 0.20175 0.83553 0.6438 0.0
Cd15 Cd 0.17689 0.82964 0.59513 0.0
Cd16 Cd 0.18441 0.88934 0.59322 0.0
O17 O 0.20802 0.8798 0.64186 0.0
O18 O 0.17587 0.78965 0.59155 0.0
O19 O 0.20511 0.81544 0.55279 0.0
C20 C 0.19598 0.79159 0.56341 0.0
C21 C 0.20635 0.92821 0.56509 0.0
C22 C 0.21225 0.8574 0.658 0.0
C23 C 0.10978 0.86389 0.58613 0.0
O24 O 0.12941 0.88486 0.58648 0.0
O25 O 0.12351 0.84052 0.58968 0.0
O26 O 0.18864 0.92929 0.59479 0.0
O27 O 0.21261 0.90476 0.55136 0.0
O28 O 0.29611 0.85759 0.87152 0.0
Cd29 Cd 0.3143 0.8485 0.92276 0.0
Cd30 Cd 0.31936 0.90799 0.9208 0.0
O31 O 0.29473 0.9021 0.87222 0.0
O32 O 0.31163 0.80843 0.92118 0.0
O33 O 0.28003 0.83287 0.95961 0.0
C34 C 0.28857 0.80944 0.94702 0.0
C35 C 0.30047 0.94479 0.955 0.0
C36 C 0.28899 0.87994 0.85626 0.0
C37 C 0.38694 0.87562 0.93454 0.0
O38 O 0.37324 0.89824 0.9259 0.0
O39 O 0.36763 0.85454 0.93678 0.0
O40 O 0.31838 0.94792 0.92561 0.0
O41 O 0.29252 0.92053 0.96489 0.0
O42 O 0.2002 0.15162 0.37856 0.0
Cd43 Cd 0.17862 0.15005 0.43004 0.0
Cd44 Cd 0.17808 0.09363 0.40998 0.0
O45 O 0.20442 0.10826 0.36584 0.0
O46 O 0.17677 0.18912 0.44151 0.0
O47 O 0.20998 0.16037 0.47262 0.0
C48 C 0.19903 0.18482 0.46747 0.0
C49 C 0.20009 0.05443 0.43686 0.0
C50 C 0.20953 0.13274 0.35737 0.0
C51 C 0.10729 0.11973 0.42757 0.0
O52 O 0.12315 0.09969 0.41328 0.0
O53 O 0.12497 0.14024 0.43784 0.0
O54 O 0.18403 0.05388 0.40611 0.0
O55 O 0.20433 0.07755 0.45229 0.0
O56 O 0.68561 0.82113 0.93358 0.0
Cd57 Cd 0.67281 0.85768 0.9092 0.0
Cd58 Cd 0.6714 0.87373 0.97686 0.0
O59 O 0.69859 0.8384 0.98659 0.0
O60 O 0.67953 0.85178 0.85679 0.0
O61 O 0.71421 0.87912 0.8888 0.0
C62 C 0.7063 0.86829 0.85825 0.0
C63 C 0.69486 0.91608 0.98863 0.0
C64 C 0.6982 0.81842 0.96524 0.0
C65 C 0.60171 0.87466 0.93999 0.0
O66 O 0.61613 0.87207 0.97078 0.0
O67 O 0.62079 0.87275 0.91174 0.0
O68 O 0.68258 0.90109 0.0143 0.0
O69 O 0.69549 0.90627 0.95642 0.0
O70 O 0.80239 0.16728 0.40179 0.0
Cd71 Cd 0.82401 0.13619 0.37145 0.0
Cd72 Cd 0.82046 0.11264 0.4401 0.0
O73 O 0.78798 0.14527 0.45128 0.0
O74 O 0.82591 0.15473 0.3242 0.0
O75 O 0.79272 0.11843 0.33361 0.0
C76 C 0.8031 0.13741 0.31219 0.0
C77 C 0.8024 0.06904 0.45447 0.0
C78 C 0.78697 0.16657 0.43229 0.0
C79 C 0.89319 0.11951 0.40775 0.0
O80 O 0.87577 0.11776 0.43709 0.0
O81 O 0.87684 0.12396 0.37829 0.0
O82 O 0.8127 0.0857 0.47902 0.0
O83 O 0.80086 0.07762 0.42162 0.0
O84 O 0.70477 0.17537 0.03313 0.0
Cd85 Cd 0.67966 0.14782 0.06592 0.0
Cd86 Cd 0.6746 0.11916 0.00449 0.0
O87 O 0.70359 0.15115 0.9835 0.0
O88 O 0.69245 0.16028 0.11485 0.0
O89 O 0.70745 0.11988 0.0942 0.0
C90 C 0.70807 0.13733 0.11996 0.0
C91 C 0.69411 0.07528 0.99337 0.0
C92 C 0.71232 0.17258 6e-05 0.0
C93 C 0.60501 0.13529 0.04076 0.0
O94 O 0.61972 0.12353 0.01412 0.0
O95 O 0.6243 0.14637 0.06478 0.0
O96 O 0.67896 0.08965 0.96862 0.0
O97 O 0.69912 0.08616 0.02455 0.0
O98 O 0.79406 0.82042 0.58093 0.0
Cd99 Cd 0.81959 0.84848 0.61241 0.0
Cd100 Cd 0.82537 0.87746 0.55111 0.0
O101 O 0.79508 0.84554 0.5319 0.0
O102 O 0.8082 0.84041 0.6634 0.0
O103 O 0.78991 0.87769 0.63551 0.0
C104 C 0.79101 0.86306 0.66429 0.0
C105 C 0.80766 0.92129 0.5362 0.0
C106 C 0.78616 0.82391 0.54801 0.0
C107 C 0.89446 0.85938 0.5862 0.0
O108 O 0.88017 0.87176 0.5598 0.0
O109 O 0.87487 0.84899 0.61052 0.0
O110 O 0.82216 0.90547 0.51277 0.0
O111 O 0.80251 0.91201 0.56829 0.0
O112 O 0.78418 0.63871 0.13644 0.0
Cd113 Cd 0.80455 0.64847 0.08683 0.0
Cd114 Cd 0.80534 0.58848 0.08266 0.0
O115 O 0.78436 0.59424 0.13327 0.0
O116 O 0.80361 0.68847 0.08982 0.0
O117 O 0.77309 0.66597 0.04868 0.0
C118 C 0.78204 0.68882 0.06268 0.0
C119 C 0.78416 0.55041 0.05262 0.0
C120 C 0.7781 0.61583 0.15049 0.0
C121 C 0.8753 0.61932 0.07205 0.0
O122 O 0.85908 0.59678 0.0728 0.0
O123 O 0.85836 0.64128 0.07725 0.0
O124 O 0.80464 0.54848 0.08048 0.0
O125 O 0.77504 0.57423 0.04176 0.0
O126 O 0.67853 0.32331 0.61371 0.0
Cd127 Cd 0.65461 0.31984 0.5637 0.0
Cd128 Cd 0.66685 0.37811 0.56574 0.0
O129 O 0.69851 0.36489 0.60713 0.0
O130 O 0.65233 0.28008 0.55757 0.0
O131 O 0.68532 0.30648 0.52268 0.0
C132 C 0.67515 0.28247 0.5316 0.0
C133 C 0.6858 0.41897 0.5403 0.0
C134 C 0.69725 0.34303 0.62483 0.0
C135 C 0.5902 0.35642 0.5639 0.0
O136 O 0.61157 0.37566 0.57111 0.0
O137 O 0.60207 0.333 0.55653 0.0
O138 O 0.67384 0.41756 0.57267 0.0
O139 O 0.68748 0.39694 0.52193 0.0
O140 O 0.80112 0.34497 0.83081 0.0
Cd141 Cd 0.82152 0.3413 0.88249 0.0
Cd142 Cd 0.81518 0.39798 0.8792 0.0
O143 O 0.79118 0.38885 0.83157 0.0
O144 O 0.81856 0.30189 0.89168 0.0
O145 O 0.78805 0.33211 0.92333 0.0
C146 C 0.79588 0.30713 0.91704 0.0
C147 C 0.7898 0.43343 0.91168 0.0
C148 C 0.78947 0.36629 0.8157 0.0
C149 C 0.88925 0.37441 0.88945 0.0
O150 O 0.87047 0.39511 0.88183 0.0
O151 O 0.87472 0.35138 0.89303 0.0
O152 O 0.80633 0.43743 0.88172 0.0
O153 O 0.78717 0.40895 0.92333 0.0
O154 O 0.70551 0.65384 0.37038 0.0
Cd155 Cd 0.68028 0.659 0.41893 0.0
Cd156 Cd 0.67206 0.60001 0.41174 0.0
O157 O 0.69753 0.60997 0.36436 0.0
O158 O 0.68773 0.69809 0.42741 0.0
O159 O 0.70866 0.6667 0.4642 0.0
C160 C 0.70523 0.69194 0.4562 0.0
C161 C 0.68577 0.55673 0.43295 0.0
C162 C 0.70907 0.63232 0.35231 0.0
C163 C 0.60528 0.63509 0.42121 0.0
O164 O 0.61904 0.61162 0.41953 0.0
O165 O 0.62497 0.65601 0.42028 0.0
O166 O 0.66686 0.56048 0.40435 0.0
O167 O 0.69722 0.57773 0.44993 0.0
O168 O 0.19593 0.33508 0.92984 0.0
Cd169 Cd 0.17201 0.36711 0.9027 0.0
Cd170 Cd 0.16917 0.38753 0.97118 0.0
O171 O 0.20188 0.3551 0.98245 0.0
O172 O 0.1757 0.3571 0.85107 0.0
O173 O 0.2032 0.39276 0.87411 0.0
C174 C 0.19592 0.37789 0.84659 0.0
C175 C 0.18563 0.43095 0.98848 0.0
C176 C 0.20738 0.33493 0.96211 0.0
C177 C 0.09888 0.37645 0.93632 0.0
O178 O 0.11453 0.38028 0.96626 0.0
O179 O 0.11714 0.37319 0.90776 0.0
O180 O 0.17462 0.41341 0.01166 0.0
O181 O 0.1883 0.42352 0.95525 0.0
O182 O 0.29909 0.67472 0.41608 0.0
Cd183 Cd 0.32417 0.64339 0.38989 0.0
Cd184 Cd 0.3145 0.61686 0.45286 0.0
O185 O 0.28679 0.65195 0.46563 0.0
O186 O 0.324 0.65234 0.33783 0.0
O187 O 0.29391 0.61776 0.36087 0.0
C188 C 0.30298 0.63196 0.33315 0.0
C189 C 0.28951 0.57448 0.463 0.0
C190 C 0.28499 0.67358 0.44719 0.0
C191 C 0.39085 0.62621 0.42943 0.0
O192 O 0.37033 0.61713 0.45396 0.0
O193 O 0.37767 0.63692 0.40131 0.0
O194 O 0.30079 0.58924 0.48921 0.0
O195 O 0.29071 0.58447 0.43088 0.0
O196 O 0.1846 0.68438 0.08071 0.0
Cd197 Cd 0.16043 0.65181 0.10469 0.0
Cd198 Cd 0.16031 0.63126 0.03716 0.0
O199 O 0.18881 0.6664 0.02659 0.0
O200 O 0.16634 0.65674 0.15731 0.0
O201 O 0.1915 0.62294 0.12722 0.0
C202 C 0.18604 0.63528 0.1573 0.0
C203 C 0.18164 0.58922 0.01871 0.0
C204 C 0.19453 0.68591 0.04807 0.0
C205 C 0.08823 0.64118 0.07125 0.0
O206 O 0.10478 0.63356 0.0431 0.0
O207 O 0.10559 0.64869 0.09888 0.0
O208 O 0.16854 0.60633 0.99596 0.0
O209 O 0.18416 0.59652 0.05199 0.0
O210 O 0.28336 0.32357 0.57576 0.0
Cd211 Cd 0.3101 0.35549 0.60003 0.0
Cd212 Cd 0.30041 0.37754 0.53515 0.0
O213 O 0.26459 0.34649 0.52837 0.0
O214 O 0.31358 0.34602 0.65192 0.0
O215 O 0.28204 0.38097 0.63187 0.0
C216 C 0.29326 0.36654 0.65863 0.0
C217 C 0.28337 0.42234 0.52748 0.0
C218 C 0.26459 0.32505 0.54713 0.0
C219 C 0.37578 0.36508 0.55502 0.0
O220 O 0.35462 0.36884 0.52859 0.0
O221 O 0.36329 0.36222 0.58658 0.0
O222 O 0.28832 0.40665 0.50024 0.0
O223 O 0.2869 0.41219 0.55936 0.0
H224 H 0.26965 0.22125 0.0092 0.0
H225 H 0.29655 0.26722 0.10404 0.0
H226 H 0.27144 0.30779 0.07666 0.0
H227 H 0.24092 0.33015 0.02666 0.0
H228 H 0.21434 0.28503 0.93105 0.0
H229 H 0.24059 0.24432 0.95775 0.0
C230 C 0.26997 0.24015 0.02383 0.0
C231 C 0.2848 0.24114 0.05867 0.0
C232 C 0.25569 0.26359 0.00779 0.0
C233 C 0.28529 0.26585 0.07719 0.0
C234 C 0.27094 0.2891 0.06158 0.0
C235 C 0.24095 0.31146 0.01152 0.0
C236 C 0.22553 0.31066 0.97696 0.0
C237 C 0.25597 0.28819 0.02699 0.0
C238 C 0.22607 0.28626 0.9577 0.0
C239 C 0.24095 0.26292 0.973 0.0
H240 H 0.2454 0.67708 0.50859 0.0
H241 H 0.28666 0.72509 0.42083 0.0
H242 H 0.26231 0.76586 0.44861 0.0
H243 H 0.23118 0.78815 0.49909 0.0
H244 H 0.18926 0.73969 0.58611 0.0
H245 H 0.21198 0.69894 0.5573 0.0
C246 C 0.24895 0.69643 0.49542 0.0
C247 C 0.26802 0.69799 0.46279 0.0
C248 C 0.23488 0.71979 0.51149 0.0
C249 C 0.27209 0.72325 0.44598 0.0
C250 C 0.25827 0.74663 0.4619 0.0
C251 C 0.22696 0.76866 0.51167 0.0
C252 C 0.20874 0.76702 0.54478 0.0
C253 C 0.23995 0.74518 0.49485 0.0
C254 C 0.20323 0.74158 0.56062 0.0
C255 C 0.21624 0.71822 0.54421 0.0
H256 H 0.25393 0.80209 0.01097 0.0
H257 H 0.28765 0.76032 0.91483 0.0
H258 H 0.26178 0.71846 0.93756 0.0
H259 H 0.2294 0.69364 0.98451 0.0
H260 H 0.19752 0.73477 0.0818 0.0
H261 H 0.22302 0.77677 0.05896 0.0
C262 C 0.25549 0.78383 0.99501 0.0
C263 C 0.27254 0.78434 0.96124 0.0
C264 C 0.24103 0.75964 0.00848 0.0
C265 C 0.27472 0.76046 0.94097 0.0
C266 C 0.25991 0.73649 0.95391 0.0
C267 C 0.22807 0.71177 0.00076 0.0
C268 C 0.21148 0.71103 0.03475 0.0
C269 C 0.24302 0.73584 0.98762 0.0
C270 C 0.21024 0.7347 0.05555 0.0
C271 C 0.2247 0.7588 0.04248 0.0
H272 H 0.27704 0.27219 0.56341 0.0
H273 H 0.20842 0.3245 0.50002 0.0
H274 H 0.18049 0.28541 0.47181 0.0
H275 H 0.1787 0.23697 0.46174 0.0
H276 H 0.24872 0.18401 0.5225 0.0
H277 H 0.27289 0.22282 0.55533 0.0
C278 C 0.25557 0.27498 0.54384 0.0
C279 C 0.2449 0.30121 0.53372 0.0
C280 C 0.24017 0.25237 0.52702 0.0
C281 C 0.21727 0.30454 0.50811 0.0
C282 C 0.20132 0.28221 0.49191 0.0
C283 C 0.1991 0.2338 0.48232 0.0
C284 C 0.2121 0.20765 0.48946 0.0
C285 C 0.21312 0.25611 0.50059 0.0
C286 C 0.23836 0.20396 0.51638 0.0
C287 C 0.2522 0.22614 0.53512 0.0
H288 H 0.74554 0.6983 -0.00017 0.0
H289 H 0.78757 0.73783 0.09443 0.0
H290 H 0.76547 0.78109 0.07255 0.0
H291 H 0.73438 0.80784 0.02703 0.0
H292 H 0.69309 0.76942 0.93139 0.0
H293 H 0.71487 0.72568 0.95315 0.0
C294 C 0.74976 0.71639 0.01563 0.0
C295 C 0.76813 0.71479 0.04873 0.0
C296 C 0.73722 0.74143 0.00271 0.0
C297 C 0.7736 0.73844 0.06881 0.0
C298 C 0.76095 0.76325 0.05636 0.0
C299 C 0.73007 0.78993 0.01086 0.0
C300 C 0.71202 0.79193 0.97769 0.0
C301 C 0.74277 0.76498 0.02339 0.0
C302 C 0.70695 0.76848 0.95704 0.0
C303 C 0.71933 0.74344 0.96949 0.0
H304 H 0.73678 0.16908 0.48546 0.0
H305 H 0.79405 0.2185 0.40879 0.0
H306 H 0.76355 0.25873 0.43171 0.0
H307 H 0.72191 0.28008 0.47491 0.0
H308 H 0.66369 0.23013 0.55035 0.0
H309 H 0.69301 0.18999 0.52629 0.0
C310 C 0.74261 0.18865 0.47378 0.0
C311 C 0.76785 0.1908 0.44569 0.0
C312 C 0.72471 0.21165 0.48678 0.0
C313 C 0.77474 0.21628 0.4305 0.0
C314 C 0.75734 0.23931 0.4436 0.0
C315 C 0.71545 0.26039 0.48588 0.0
C316 C 0.69077 0.25817 0.51449 0.0
C317 C 0.73242 0.23727 0.47189 0.0
C318 C 0.68259 0.23248 0.52832 0.0
C319 C 0.69944 0.20947 0.51467 0.0
H320 H 0.79422 0.25432 0.89898 0.0
H321 H 0.75933 0.31024 0.98087 0.0
H322 H 0.73137 0.27325 0.0144 0.0
H323 H 0.71638 0.22515 0.01994 0.0
H324 H 0.74881 0.16979 0.93635 0.0
H325 H 0.77831 0.20654 0.90391 0.0
C326 C 0.78063 0.25842 0.92425 0.0
C327 C 0.779 0.28495 0.93754 0.0
C328 C 0.76418 0.23719 0.943 0.0
C329 C 0.76093 0.28999 0.97008 0.0
C330 C 0.74499 0.26885 0.98926 0.0
C331 C 0.73007 0.2211 0.99471 0.0
C332 C 0.73056 0.19475 0.98065 0.0
C333 C 0.74642 0.24239 0.97592 0.0
C334 C 0.74801 0.18989 0.94772 0.0
C335 C 0.76491 0.21088 0.92919 0.0
H336 H 0.77951 0.77103 0.56676 0.0
H337 H 0.75173 0.82831 0.48348 0.0
H338 H 0.72361 0.79252 0.44842 0.0
H339 H 0.70833 0.7451 0.44061 0.0
H340 H 0.73759 0.68706 0.52233 0.0
H341 H 0.76384 0.72312 0.55887 0.0
C342 C 0.76705 0.77571 0.54107 0.0
C343 C 0.76767 0.80232 0.52778 0.0
C344 C 0.75141 0.75493 0.52072 0.0
C345 C 0.75173 0.808 0.49428 0.0
C346 C 0.73564 0.78756 0.4742 0.0
C347 C 0.72033 0.74027 0.46647 0.0
C348 C 0.72099 0.71344 0.47876 0.0
C349 C 0.73559 0.76096 0.48703 0.0
C350 C 0.73681 0.70756 0.51224 0.0
C351 C 0.75177 0.72816 0.53314 0.0
H352 H 0.29375 0.03438 0.07347 0.0
H353 H 0.29514 0.0857 0.97973 0.0
H354 H 0.29025 0.04609 0.94072 0.0
H355 H 0.29307 0.99674 0.93359 0.0
H356 H 0.2899 0.94559 0.02751 0.0
H357 H 0.28745 0.98534 0.06632 0.0
C358 C 0.2924 0.03688 0.04449 0.0
C359 C 0.29535 0.06277 0.02934 0.0
C360 C 0.28951 0.01409 0.02239 0.0
C361 C 0.29298 0.0659 0.9919 0.0
C362 C 0.29042 0.04327 0.96964 0.0
C363 C 0.29126 0.99434 0.96254 0.0
C364 C 0.29224 0.96835 0.97778 0.0
C365 C 0.28981 0.01725 0.98461 0.0
C366 C 0.28929 0.96541 0.01522 0.0
C367 C 0.2881 0.98812 0.0374 0.0
H368 H 0.21522 0.93555 0.49328 0.0
H369 H 0.21729 0.97749 0.59481 0.0
H370 H 0.22093 0.02074 0.56355 0.0
H371 H 0.21493 0.04673 0.50768 0.0
H372 H 0.2078 0.00487 0.40627 0.0
H373 H 0.21512 0.96164 0.43698 0.0
C374 C 0.21736 0.95414 0.50848 0.0
C375 C 0.21576 0.95341 0.54621 0.0
C376 C 0.21803 0.979 0.49032 0.0
C377 C 0.21821 0.97761 0.56568 0.0
C378 C 0.22018 0.00235 0.54784 0.0
C379 C 0.21571 0.02818 0.49226 0.0
C380 C 0.21046 0.02896 0.45485 0.0
C381 C 0.21877 0.00333 0.5102 0.0
C382 C 0.21142 0.00476 0.43519 0.0
C383 C 0.21556 0.98002 0.45272 0.0
H384 H 0.70428 0.9557 0.93917 0.0
H385 H 0.70503 0.94067 0.05353 0.0
H386 H 0.70962 0.98903 0.06512 0.0
H387 H 0.70587 0.03572 0.04286 0.0
H388 H 0.70086 0.05044 0.92852 0.0
H389 H 0.70585 0.00216 0.91686 0.0
C390 C 0.70618 0.96295 0.96662 0.0
C391 C 0.70405 0.94463 0.99543 0.0
C392 C 0.70766 0.9908 0.97311 0.0
C393 C 0.70639 0.95437 0.03085 0.0
C394 C 0.7089 0.98204 0.03752 0.0
C395 C 0.70657 0.02838 0.0154 0.0
C396 C 0.7027 0.0466 0.98662 0.0
C397 C 0.7084 0.00049 0.00888 0.0
C398 C 0.70347 0.03679 0.95117 0.0
C399 C 0.70629 0.00918 0.94445 0.0
H400 H 0.79334 0.04725 0.52093 0.0
H401 H 0.79761 0.02644 0.4083 0.0
H402 H 0.7968 0.97854 0.42377 0.0
H403 H 0.80102 0.94278 0.4694 0.0
H404 H 0.79616 0.96347 0.582 0.0
H405 H 0.79075 0.01124 0.5664 0.0
C406 C 0.7936 0.03223 0.49973 0.0
C407 C 0.79596 0.04039 0.46353 0.0
C408 C 0.79331 0.00473 0.50883 0.0
C409 C 0.79586 0.02071 0.43638 0.0
C410 C 0.79559 0.9933 0.44521 0.0
C411 C 0.79838 0.95773 0.49052 0.0
C412 C 0.79947 0.94965 0.52681 0.0
C413 C 0.7953 0.98511 0.48136 0.0
C414 C 0.7955 0.96918 0.55387 0.0
C415 C 0.79255 0.99651 0.54497 0.0
H416 H 0.77989 0.43552 0.98386 0.0
H417 H 0.77291 0.48358 0.88729 0.0
H418 H 0.76401 0.52426 0.92317 0.0
H419 H 0.76772 0.54684 0.98175 0.0
H420 H 0.78045 0.49911 0.07804 0.0
H421 H 0.777 0.45771 0.04276 0.0
C422 C 0.77554 0.45481 0.97073 0.0
C423 C 0.77741 0.45666 0.93311 0.0
C424 C 0.77187 0.47826 0.99154 0.0
C425 C 0.77195 0.48177 0.91633 0.0
C426 C 0.76694 0.50504 0.9368 0.0
C427 C 0.76882 0.52735 0.99503 0.0
C428 C 0.77467 0.52596 0.03228 0.0
C429 C 0.76828 0.50366 0.97442 0.0
C430 C 0.7763 0.50063 0.04925 0.0
C431 C 0.77443 0.47696 0.02911 0.0
H432 H 0.6864 0.43291 0.46964 0.0
H433 H 0.70438 0.46455 0.57616 0.0
H434 H 0.71039 0.51002 0.55166 0.0
H435 H 0.70386 0.5414 0.50086 0.0
H436 H 0.68135 0.51005 0.39502 0.0
H437 H 0.68412 0.46401 0.41818 0.0
C438 C 0.69232 0.44971 0.48734 0.0
C439 C 0.69475 0.44546 0.5246 0.0
C440 C 0.69456 0.47594 0.47322 0.0
C441 C 0.70213 0.4674 0.54734 0.0
C442 C 0.70551 0.49341 0.53339 0.0
C443 C 0.70017 0.52446 0.48281 0.0
C444 C 0.69215 0.52909 0.4464 0.0
C445 C 0.70074 0.49804 0.4965 0.0
C446 C 0.68723 0.50698 0.42329 0.0
C447 C 0.68879 0.48064 0.43649 0.0
H448 H 0.19258 0.54532 0.06133 0.0
H449 H 0.18893 0.5704 0.95018 0.0
H450 H 0.19383 0.5235 0.93082 0.0
H451 H 0.19276 0.47514 0.94549 0.0
H452 H 0.19298 0.45011 0.05672 0.0
H453 H 0.19614 0.49708 0.07593 0.0
C454 C 0.19351 0.54056 0.03288 0.0
C455 C 0.19018 0.56132 0.00727 0.0
C456 C 0.19538 0.51348 0.02191 0.0
C457 C 0.19125 0.55479 0.97048 0.0
C458 C 0.19396 0.52795 0.95936 0.0
C459 C 0.19409 0.47995 0.97391 0.0
C460 C 0.19237 0.45915 -0.00039 0.0
C461 C 0.19505 0.50708 0.98483 0.0
C462 C 0.19399 0.46574 0.03636 0.0
C463 C 0.19576 0.49261 0.0474 0.0
H464 H 0.28243 0.54909 0.52739 0.0
H465 H 0.27429 0.53577 0.41294 0.0
H466 H 0.26789 0.48734 0.42323 0.0
H467 H 0.2716 0.44854 0.46423 0.0
H468 H 0.28111 0.46187 0.57858 0.0
H469 H 0.27962 0.51058 0.56879 0.0
C470 C 0.2787 0.53566 0.50469 0.0
C471 C 0.27929 0.54602 0.46941 0.0
C472 C 0.27561 0.50781 0.51076 0.0
C473 C 0.27409 0.52835 0.44036 0.0
C474 C 0.27061 0.50062 0.44621 0.0
C475 C 0.27286 0.46208 0.48708 0.0
C476 C 0.27694 0.45156 0.52205 0.0
C477 C 0.27243 0.49007 0.48122 0.0
C478 C 0.27816 0.46941 0.55136 0.0
C479 C 0.27743 0.49728 0.54578 0.0
H480 H 0.56465 0.16898 0.08183 0.0
H481 H 0.55615 0.10209 0.00815 0.0
H482 H 0.49062 0.10109 0.0169 0.0
H483 H 0.43596 0.11879 0.04628 0.0
H484 H 0.44433 0.18702 0.11773 0.0
H485 H 0.50983 0.18789 0.1091 0.0
C486 C 0.54846 0.15419 0.06765 0.0
C487 C 0.56523 0.13554 0.04454 0.0
C488 C 0.51085 0.15393 0.0725 0.0
C489 C 0.54386 0.11671 0.02603 0.0
C490 C 0.50643 0.11606 0.03112 0.0
C491 C 0.45216 0.13378 0.06004 0.0
C492 C 0.43541 0.15267 0.08283 0.0
C493 C 0.48968 0.13447 0.05446 0.0
C494 C 0.45662 0.17226 0.10005 0.0
C495 C 0.49405 0.17276 0.09516 0.0
H496 H 0.94568 0.89249 0.5581 0.0
H497 H 0.93183 0.81943 0.61978 0.0
H498 H -0.0027 0.81384 0.62394 0.0
H499 H 0.05841 0.8299 0.61073 0.0
H500 H 0.07281 0.90458 0.55286 0.0
H501 H 0.00721 0.90938 0.54649 0.0
C502 C 0.95708 0.87532 0.57232 0.0
C503 C 0.93407 0.85636 0.58849 0.0
C504 C -0.00522 0.87255 0.57532 0.0
C505 C 0.94906 0.83437 0.60723 0.0
C506 C 0.98646 0.83111 0.60955 0.0
C507 C 0.04716 0.84715 0.59657 0.0
C508 C 0.07028 0.86676 0.5821 0.0
C509 C 0.00955 0.85009 0.59378 0.0
C510 C 0.05544 0.88924 0.56429 0.0
C511 C 0.01799 0.89197 0.56058 0.0
H512 H 0.4403 0.90304 0.9012 0.0
H513 H 0.42075 0.84338 0.98336 0.0
H514 H 0.48583 0.83939 0.99449 0.0
H515 H 0.54843 0.85181 0.97921 0.0
H516 H 0.56792 0.90772 0.8925 0.0
H517 H 0.50276 0.91446 0.88477 0.0
C518 C 0.45039 0.88933 0.92168 0.0
C519 C 0.42601 0.87363 0.9416 0.0
C520 C 0.48776 0.88649 0.92702 0.0
C521 C 0.43921 0.85559 0.96768 0.0
C522 C 0.47632 0.85336 0.97408 0.0
C523 C 0.53826 0.86562 0.9589 0.0
C524 C 0.56262 0.87944 0.93663 0.0
C525 C 0.50086 0.86856 0.95372 0.0
C526 C 0.54943 0.89692 0.9099 0.0
C527 C 0.51228 0.90076 0.9055 0.0
H528 H 0.05913 0.09885 0.38081 0.0
H529 H 0.06698 0.14162 0.48137 0.0
H530 H 0.00091 0.14375 0.4855 0.0
H531 H 0.94092 0.13495 0.4591 0.0
H532 H 0.93376 0.0964 0.35543 0.0
H533 H -0.00051 0.09105 0.3538 0.0
C534 C 0.04627 0.10838 0.40376 0.0
C535 C 0.06763 0.11987 0.43088 0.0
C536 C 0.00846 0.1104 0.40524 0.0
C537 C 0.05088 0.13264 0.4602 0.0
C538 C 0.0132 0.13386 0.46255 0.0
C539 C 0.95386 0.12524 0.43633 0.0
C540 C 0.93274 0.11598 0.4075 0.0
C541 C 0.99171 0.12304 0.43504 0.0
C542 C 0.94964 0.10377 0.37785 0.0
C543 C 0.98714 0.10065 0.37694 0.0
H544 H 0.04208 0.60581 0.03984 0.0
H545 H 0.04572 0.6774 0.10553 0.0
H546 H 0.97981 0.67778 0.10971 0.0
H547 H 0.92152 0.65696 0.0966 0.0
H548 H 0.91737 0.58311 0.03558 0.0
H549 H 0.98314 0.5843 0.02764 0.0
C550 C 0.02828 0.62156 0.05477 0.0
C551 C 0.04847 0.64162 0.07222 0.0
C552 C 0.99044 0.62114 0.05804 0.0
C553 C 0.03057 0.66173 0.09199 0.0
C554 C 0.99296 0.66197 0.09436 0.0
C555 C 0.93499 0.64123 0.08132 0.0
C556 C 0.91475 0.62008 0.0665 0.0
C557 C 0.97268 0.64166 0.07778 0.0
C558 C 0.93252 0.59958 0.04728 0.0
C559 C 0.97005 0.60028 0.04269 0.0
H560 H 0.53847 0.33893 0.51777 0.0
H561 H 0.55478 0.38509 0.6146 0.0
H562 H 0.48955 0.39217 0.62024 0.0
H563 H 0.4279 0.38406 0.59861 0.0
H564 H 0.41123 0.34156 0.49895 0.0
H565 H 0.47664 0.33442 0.493 0.0
C566 C 0.52756 0.35054 0.54 0.0
C567 C 0.55103 0.36123 0.56598 0.0
C568 C 0.49015 0.35524 0.54242 0.0
C569 C 0.53699 0.37666 0.59437 0.0
C570 C 0.49979 0.38068 0.59762 0.0
C571 C 0.43871 0.37339 0.5755 0.0
C572 C 0.41507 0.36312 0.54941 0.0
C573 C 0.47615 0.36992 0.57195 0.0
C574 C 0.42915 0.34968 0.51928 0.0
C575 C 0.46643 0.34548 0.516 0.0
H576 H 0.05667 0.39559 0.88305 0.0
H577 H 0.05262 0.35438 0.98514 0.0
H578 H 0.98697 0.34905 0.97907 0.0
H579 H 0.93094 0.3553 0.94363 0.0
H580 H 0.93476 0.40048 0.84457 0.0
H581 H 0.00043 0.40507 0.85028 0.0
C582 C 0.0413 0.38555 0.90399 0.0
C583 C 0.0592 0.37518 0.93431 0.0
C584 C 0.0037 0.38317 0.90068 0.0
C585 C 0.03918 0.36257 0.96161 0.0
C586 C 0.00178 0.3594 0.95805 0.0
C587 C 0.94634 0.36607 0.92338 0.0
C588 C 0.92852 0.37725 0.89351 0.0
C589 C 0.98381 0.36943 0.92753 0.0
C590 C 0.94825 0.39166 0.86768 0.0
C591 C 0.98566 0.39427 0.87093 0.0
H592 H 0.55657 0.60029 0.44979 0.0
H593 H 0.56545 0.67692 0.39534 0.0
H594 H 0.49963 0.68094 0.39335 0.0
H595 H 0.43973 0.66191 0.40499 0.0
H596 H 0.43016 0.58688 0.46297 0.0
H597 H 0.49623 0.58297 0.4659 0.0
C598 C 0.54401 0.61788 0.43763 0.0
C599 C 0.56567 0.63816 0.42245 0.0
C600 C 0.50618 0.62029 0.43716 0.0
C601 C 0.54924 0.66107 0.40724 0.0
C602 C 0.51166 0.66334 0.40597 0.0
C603 C 0.45218 0.64474 0.41832 0.0
C604 C 0.43038 0.62454 0.43337 0.0
C605 C 0.48992 0.64295 0.42049 0.0
C606 C 0.4466 0.60264 0.45118 0.0
C607 C 0.48427 0.60037 0.45274 0.0
H608 H 0.27615 0.17782 0.21293 0.0
H609 H 0.27341 0.09302 0.18642 0.0
H610 H 0.24779 0.08284 0.24518 0.0
H611 H 0.22649 0.09772 0.30398 0.0
H612 H 0.22861 0.18239 0.33105 0.0
H613 H 0.25429 0.19282 0.2721 0.0
C614 C 0.26988 0.15712 0.21994 0.0
C615 C 0.27676 0.13624 0.19522 0.0
C616 C 0.25516 0.15133 0.25389 0.0
C617 C 0.26845 0.10952 0.20485 0.0
C618 C 0.25381 0.10364 0.23849 0.0
C619 C 0.23262 0.11849 0.29712 0.0
C620 C 0.22569 0.13922 0.32198 0.0
C621 C 0.24717 0.12435 0.26323 0.0
C622 C 0.23369 0.16601 0.31246 0.0
C623 C 0.24835 0.172 0.27874 0.0
H624 H 0.27437 0.83673 0.81366 0.0
H625 H 0.27139 0.92385 0.81529 0.0
H626 H 0.24853 0.92446 0.7538 0.0
H627 H 0.22891 0.90042 0.69988 0.0
H628 H 0.23113 0.81332 0.69825 0.0
H629 H 0.25502 0.81265 0.75946 0.0
C630 C 0.2687 0.85587 0.80062 0.0
C631 C 0.27456 0.88019 0.81915 0.0
C632 C 0.25555 0.85612 0.76523 0.0
C633 C 0.26709 0.9048 0.80175 0.0
C634 C 0.25406 0.9052 0.76654 0.0
C635 C 0.23479 0.88126 0.71278 0.0
C636 C 0.22824 0.85698 0.69446 0.0
C637 C 0.24819 0.88099 0.74805 0.0
C638 C 0.23587 0.83234 0.71172 0.0
C639 C 0.24949 0.83192 0.74675 0.0
H640 H 0.68216 0.87928 0.79139 0.0
H641 H 0.77946 0.86726 0.85332 0.0
H642 H 0.81545 0.8664 0.79797 0.0
H643 H 0.81772 0.86384 0.7317 0.0
H644 H 0.72124 0.87948 0.66992 0.0
H645 H 0.68616 0.88455 0.72548 0.0
C646 C 0.71134 0.87702 0.79263 0.0
C647 C 0.72831 0.87304 0.82602 0.0
C648 C 0.73176 0.87703 0.76084 0.0
C649 C 0.76605 0.87041 0.82773 0.0
C650 C 0.78651 0.86973 0.79614 0.0
C651 C 0.78915 0.86888 0.73059 0.0
C652 C 0.77177 0.87101 0.69713 0.0
C653 C 0.76948 0.87224 0.76253 0.0
C654 C 0.73496 0.87781 0.6956 0.0
C655 C 0.71495 0.88053 0.72728 0.0
H656 H 0.77401 0.09874 0.26843 0.0
H657 H 0.79821 0.18375 0.27441 0.0
H658 H 0.77115 0.19098 0.21552 0.0
H659 H 0.73936 0.1737 0.16309 0.0
H660 H 0.7181 0.0886 0.15357 0.0
H661 H 0.74548 0.08071 0.21291 0.0
C662 C 0.77336 0.11877 0.25668 0.0
C663 C 0.78787 0.1407 0.27578 0.0
C664 C 0.75835 0.12276 0.22226 0.0
C665 C 0.78731 0.16653 0.26019 0.0
C666 C 0.77175 0.17073 0.22655 0.0
C667 C 0.74077 0.15341 0.174 0.0
C668 C 0.72647 0.1318 0.15436 0.0
C669 C 0.75702 0.14906 0.2075 0.0
C670 C 0.72899 0.10553 0.16837 0.0
C671 C 0.7445 0.10107 0.20228 0.0
H672 H 0.71808 0.59085 0.3055 0.0
H673 H 0.73557 0.67652 0.31713 0.0
H674 H 0.75824 0.67889 0.25561 0.0
H675 H 0.77175 0.65692 0.19826 0.0
H676 H 0.7544 0.57124 0.18668 0.0
H677 H 0.7328 0.56871 0.24859 0.0
C678 C 0.72701 0.61004 0.29471 0.0
C679 C 0.72502 0.63347 0.31591 0.0
C680 C 0.7398 0.61132 0.25928 0.0
C681 C 0.73677 0.65815 0.30143 0.0
C682 C 0.74965 0.65956 0.26621 0.0
C683 C 0.76315 0.63768 0.2092 0.0
C684 C 0.76453 0.61434 0.18779 0.0
C685 C 0.75097 0.63632 0.24483 0.0
C686 C 0.75357 0.58955 0.20253 0.0
C687 C 0.74125 0.58806 0.23794 0.0
H688 H 0.72724 0.38446 0.66066 0.0
H689 H 0.70871 0.2987 0.66805 0.0
H690 H 0.73703 0.29796 0.72769 0.0
H691 H 0.76522 0.32235 0.77854 0.0
H692 H 0.78042 0.40853 0.77031 0.0
H693 H 0.75511 0.40833 0.71003 0.0
C694 C 0.72957 0.36549 0.67507 0.0
C695 C 0.71594 0.34167 0.6599 0.0
C696 C 0.74511 0.36532 0.7093 0.0
C697 C 0.71899 0.31735 0.67918 0.0
C698 C 0.73512 0.31692 0.71326 0.0
C699 C 0.7631 0.34102 0.76343 0.0
C700 C 0.77456 0.36541 0.77894 0.0
C701 C 0.74798 0.34088 0.72873 0.0
C702 C 0.77153 0.3895 0.75915 0.0
C703 C 0.75716 0.38943 0.7246 0.0
H704 H 0.22961 0.38773 0.68183 0.0
H705 H 0.33284 0.35799 0.71893 0.0
H706 H 0.31338 0.36289 0.7814 0.0
H707 H 0.26477 0.371 0.82529 0.0
H708 H 0.15941 0.39559 0.78809 0.0
H709 H 0.18169 0.3977 0.72602 0.0
C710 C 0.24795 0.3828 0.70368 0.0
C711 C 0.28253 0.37251 0.69596 0.0
C712 C 0.23605 0.38466 0.73951 0.0
C713 C 0.30598 0.3658 0.72436 0.0
C714 C 0.29489 0.36859 0.76004 0.0
C715 C 0.24711 0.37745 0.80356 0.0
C716 C 0.21084 0.38358 0.81088 0.0
C717 C 0.2597 0.37736 0.76793 0.0
C718 C 0.18763 0.39118 0.78276 0.0
C719 C 0.2003 0.3922 0.74737 0.0
H720 H 0.23463 0.61727 0.31679 0.0
H721 H 0.33807 0.63548 0.26936 0.0
H722 H 0.31155 0.63323 0.20912 0.0
H723 H 0.25737 0.63202 0.17066 0.0
H724 H 0.1527 0.62058 0.21895 0.0
H725 H 0.18088 0.61383 0.27799 0.0
C726 C 0.25139 0.62011 0.29314 0.0
C727 C 0.28814 0.62642 0.29722 0.0
C728 C 0.23555 0.62018 0.25879 0.0
C729 C 0.30964 0.63062 0.26662 0.0
C730 C 0.29449 0.6294 0.23226 0.0
C731 C 0.24101 0.62733 0.19407 0.0
C732 C 0.20327 0.6264 0.1908 0.0
C733 C 0.25727 0.62503 0.22808 0.0
C734 C 0.18193 0.62109 0.22115 0.0
C735 C 0.198 0.6174 0.25482 0.0
loop_
_geom_bond_atom_site_label_1
_geom_bond_atom_site_label_2
_geom_bond_distance
_geom_bond_site_symmetry_2
_ccdc_geom_bond_type
O0 Cd1 2.223 . S
O0 C8 1.315 . S
Cd1 O0 2.223 . S
Cd1 O4 2.297 . S
Cd1 O5 2.439 . S
Cd1 O11 2.240 . S
Cd2 O3 2.240 . S
Cd2 O10 2.223 . S
Cd2 O12 2.297 . S
Cd2 O13 2.439 . S
O3 Cd2 2.240 . S
O3 C8 1.279 . S
O4 Cd1 2.297 . S
O4 C6 1.247 . S
O5 Cd1 2.439 . S
O5 C6 1.208 . S
C6 O4 1.247 . S
C6 O5 1.208 . S
C7 O12 1.247 . S
C7 O13 1.208 . S
C8 O0 1.315 . S
C8 O3 1.279 . S
C9 O10 1.315 . S
C9 O11 1.279 . S
O10 Cd2 2.223 . S
O10 C9 1.315 . S
O11 Cd1 2.240 . S
O11 C9 1.279 . S
O12 Cd2 2.297 . S
O12 C7 1.247 . S
O13 Cd2 2.439 . S
O13 C7 1.208 . S
O14 Cd15 2.223 . S
O14 C22 1.315 . S
Cd15 O14 2.223 . S
Cd15 O18 2.297 . S
Cd15 O19 2.439 . S
Cd15 O25 2.240 . S
Cd16 O17 2.240 . S
Cd16 O24 2.223 . S
Cd16 O26 2.297 . S
Cd16 O27 2.439 . S
O17 Cd16 2.240 . S
O17 C22 1.279 . S
O18 Cd15 2.297 . S
O18 C20 1.247 . S
O19 Cd15 2.439 . S
O19 C20 1.208 . S
C20 O18 1.247 . S
C20 O19 1.208 . S
C21 O26 1.247 . S
C21 O27 1.208 . S
C22 O14 1.315 . S
C22 O17 1.279 . S
C23 O24 1.315 . S
C23 O25 1.279 . S
O24 Cd16 2.223 . S
O24 C23 1.315 . S
O25 Cd15 2.240 . S
O25 C23 1.279 . S
O26 Cd16 2.297 . S
O26 C21 1.247 . S
O27 Cd16 2.439 . S
O27 C21 1.208 . S
O28 Cd29 2.223 . S
O28 C36 1.315 . S
Cd29 O28 2.223 . S
Cd29 O32 2.297 . S
Cd29 O33 2.439 . S
Cd29 O39 2.240 . S
Cd30 O31 2.240 . S
Cd30 O38 2.223 . S
Cd30 O40 2.297 . S
Cd30 O41 2.439 . S
O31 Cd30 2.240 . S
O31 C36 1.279 . S
O32 Cd29 2.297 . S
O32 C34 1.247 . S
O33 Cd29 2.439 . S
O33 C34 1.208 . S
C34 O32 1.247 . S
C34 O33 1.208 . S
C35 O40 1.247 . S
C35 O41 1.208 . S
C36 O28 1.315 . S
C36 O31 1.279 . S
C37 O38 1.315 . S
C37 O39 1.279 . S
O38 Cd30 2.223 . S
O38 C37 1.315 . S
O39 Cd29 2.240 . S
O39 C37 1.279 . S
O40 Cd30 2.297 . S
O40 C35 1.247 . S
O41 Cd30 2.439 . S
O41 C35 1.208 . S
O42 Cd43 2.223 . S
O42 C50 1.315 . S
Cd43 O42 2.223 . S
Cd43 O46 2.297 . S
Cd43 O47 2.439 . S
Cd43 O53 2.240 . S
Cd44 O45 2.240 . S
Cd44 O52 2.223 . S
Cd44 O54 2.297 . S
Cd44 O55 2.439 . S
O45 Cd44 2.240 . S
O45 C50 1.279 . S
O46 Cd43 2.297 . S
O46 C48 1.247 . S
O47 Cd43 2.439 . S
O47 C48 1.208 . S
C48 O46 1.247 . S
C48 O47 1.208 . S
C49 O54 1.247 . S
C49 O55 1.208 . S
C50 O42 1.315 . S
C50 O45 1.279 . S
C51 O52 1.315 . S
C51 O53 1.279 . S
O52 Cd44 2.223 . S
O52 C51 1.315 . S
O53 Cd43 2.240 . S
O53 C51 1.279 . S
O54 Cd44 2.297 . S
O54 C49 1.247 . S
O55 Cd44 2.439 . S
O55 C49 1.208 . S
O56 Cd57 2.223 . S
O56 C64 1.315 . S
Cd57 O56 2.223 . S
Cd57 O60 2.297 . S
Cd57 O61 2.439 . S
Cd57 O67 2.240 . S
Cd58 O59 2.240 . S
Cd58 O66 2.223 . S
Cd58 O68 2.297 . S
Cd58 O69 2.439 . S
O59 Cd58 2.240 . S
O59 C64 1.279 . S
O60 Cd57 2.297 . S
O60 C62 1.247 . S
O61 Cd57 2.439 . S
O61 C62 1.208 . S
C62 O60 1.247 . S
C62 O61 1.208 . S
C63 O68 1.247 . S
C63 O69 1.208 . S
C64 O56 1.315 . S
C64 O59 1.279 . S
C65 O66 1.315 . S
C65 O67 1.279 . S
O66 Cd58 2.223 . S
O66 C65 1.315 . S
O67 Cd57 2.240 . S
O67 C65 1.279 . S
O68 Cd58 2.297 . S
O68 C63 1.247 . S
O69 Cd58 2.439 . S
O69 C63 1.208 . S
O70 Cd71 2.223 . S
O70 C78 1.315 . S
Cd71 O70 2.223 . S
Cd71 O74 2.297 . S
Cd71 O75 2.439 . S
Cd71 O81 2.240 . S
Cd72 O73 2.240 . S
Cd72 O80 2.223 . S
Cd72 O82 2.297 . S
Cd72 O83 2.439 . S
O73 Cd72 2.240 . S
O73 C78 1.279 . S
O74 Cd71 2.297 . S
O74 C76 1.247 . S
O75 Cd71 2.439 . S
O75 C76 1.208 . S
C76 O74 1.247 . S
C76 O75 1.208 . S
C77 O82 1.247 . S
C77 O83 1.208 . S
C78 O70 1.315 . S
C78 O73 1.279 . S
C79 O80 1.315 . S
C79 O81 1.279 . S
O80 Cd72 2.223 . S
O80 C79 1.315 . S
O81 Cd71 2.240 . S
O81 C79 1.279 . S
O82 Cd72 2.297 . S
O82 C77 1.247 . S
O83 Cd72 2.439 . S
O83 C77 1.208 . S
O84 Cd85 2.223 . S
O84 C92 1.315 . S
Cd85 O84 2.223 . S
Cd85 O88 2.297 . S
Cd85 O89 2.439 . S
Cd85 O95 2.240 . S
Cd86 O87 2.240 . S
Cd86 O94 2.223 . S
Cd86 O96 2.297 . S
Cd86 O97 2.439 . S
O87 Cd86 2.240 . S
O87 C92 1.279 . S
O88 Cd85 2.297 . S
O88 C90 1.247 . S
O89 Cd85 2.439 . S
O89 C90 1.208 . S
C90 O88 1.247 . S
C90 O89 1.208 . S
C91 O96 1.247 . S
C91 O97 1.208 . S
C92 O84 1.315 . S
C92 O87 1.279 . S
C93 O94 1.315 . S
C93 O95 1.279 . S
O94 Cd86 2.223 . S
O94 C93 1.315 . S
O95 Cd85 2.240 . S
O95 C93 1.279 . S
O96 Cd86 2.297 . S
O96 C91 1.247 . S
O97 Cd86 2.439 . S
O97 C91 1.208 . S
O98 Cd99 2.223 . S
O98 C106 1.315 . S
Cd99 O98 2.223 . S
Cd99 O102 2.297 . S
Cd99 O103 2.439 . S
Cd99 O109 2.240 . S
Cd100 O101 2.240 . S
Cd100 O108 2.223 . S
Cd100 O110 2.297 . S
Cd100 O111 2.439 . S
O101 Cd100 2.240 . S
O101 C106 1.279 . S
O102 Cd99 2.297 . S
O102 C104 1.247 . S
O103 Cd99 2.439 . S
O103 C104 1.208 . S
C104 O102 1.247 . S
C104 O103 1.208 . S
C105 O110 1.247 . S
C105 O111 1.208 . S
C106 O98 1.315 . S
C106 O101 1.279 . S
C107 O108 1.315 . S
C107 O109 1.279 . S
O108 Cd100 2.223 . S
O108 C107 1.315 . S
O109 Cd99 2.240 . S
O109 C107 1.279 . S
O110 Cd100 2.297 . S
O110 C105 1.247 . S
O111 Cd100 2.439 . S
O111 C105 1.208 . S
O112 Cd113 2.223 . S
O112 C120 1.315 . S
Cd113 O112 2.223 . S
Cd113 O116 2.297 . S
Cd113 O117 2.439 . S
Cd113 O123 2.240 . S
Cd114 O115 2.240 . S
Cd114 O122 2.223 . S
Cd114 O124 2.297 . S
Cd114 O125 2.439 . S
O115 Cd114 2.240 . S
O115 C120 1.279 . S
O116 Cd113 2.297 . S
O116 C118 1.247 . S
O117 Cd113 2.439 . S
O117 C118 1.208 . S
C118 O116 1.247 . S
C118 O117 1.208 . S
C119 O124 1.247 . S
C119 O125 1.208 . S
C120 O112 1.315 . S
C120 O115 1.279 . S
C121 O122 1.315 . S
C121 O123 1.279 . S
O122 Cd114 2.223 . S
O122 C121 1.315 . S
O123 Cd113 2.240 . S
O123 C121 1.279 . S
O124 Cd114 2.297 . S
O124 C119 1.247 . S
O125 Cd114 2.439 . S
O125 C119 1.208 . S
O126 Cd127 2.223 . S
O126 C134 1.315 . S
Cd127 O126 2.223 . S
Cd127 O130 2.297 . S
Cd127 O131 2.439 . S
Cd127 O137 2.240 . S
Cd128 O129 2.240 . S
Cd128 O136 2.223 . S
Cd128 O138 2.297 . S
Cd128 O139 2.439 . S
O129 Cd128 2.240 . S
O129 C134 1.279 . S
O130 Cd127 2.297 . S
O130 C132 1.247 . S
O131 Cd127 2.439 . S
O131 C132 1.208 . S
C132 O130 1.247 . S
C132 O131 1.208 . S
C133 O138 1.247 . S
C133 O139 1.208 . S
C134 O126 1.315 . S
C134 O129 1.279 . S
C135 O136 1.315 . S
C135 O137 1.279 . S
O136 Cd128 2.223 . S
O136 C135 1.315 . S
O137 Cd127 2.240 . S
O137 C135 1.279 . S
O138 Cd128 2.297 . S
O138 C133 1.247 . S
O139 Cd128 2.439 . S
O139 C133 1.208 . S
O140 Cd141 2.223 . S
O140 C148 1.315 . S
Cd141 O140 2.223 . S
Cd141 O144 2.297 . S
Cd141 O145 2.439 . S
Cd141 O151 2.240 . S
Cd142 O143 2.240 . S
Cd142 O150 2.223 . S
Cd142 O152 2.297 . S
Cd142 O153 2.439 . S
O143 Cd142 2.240 . S
O143 C148 1.279 . S
O144 Cd141 2.297 . S
O144 C146 1.247 . S
O145 Cd141 2.439 . S
O145 C146 1.208 . S
C146 O144 1.247 . S
C146 O145 1.208 . S
C147 O152 1.247 . S
C147 O153 1.208 . S
C148 O140 1.315 . S
C148 O143 1.279 . S
C149 O150 1.315 . S
C149 O151 1.279 . S
O150 Cd142 2.223 . S
O150 C149 1.315 . S
O151 Cd141 2.240 . S
O151 C149 1.279 . S
O152 Cd142 2.297 . S
O152 C147 1.247 . S
O153 Cd142 2.439 . S
O153 C147 1.208 . S
O154 Cd155 2.223 . S
O154 C162 1.315 . S
Cd155 O154 2.223 . S
Cd155 O158 2.297 . S
Cd155 O159 2.439 . S
Cd155 O165 2.240 . S
Cd156 O157 2.240 . S
Cd156 O164 2.223 . S
Cd156 O166 2.297 . S
Cd156 O167 2.439 . S
O157 Cd156 2.240 . S
O157 C162 1.279 . S
O158 Cd155 2.297 . S
O158 C160 1.247 . S
O159 Cd155 2.439 . S
O159 C160 1.208 . S
C160 O158 1.247 . S
C160 O159 1.208 . S
C161 O166 1.247 . S
C161 O167 1.208 . S
C162 O154 1.315 . S
C162 O157 1.279 . S
C163 O164 1.315 . S
C163 O165 1.279 . S
O164 Cd156 2.223 . S
O164 C163 1.315 . S
O165 Cd155 2.240 . S
O165 C163 1.279 . S
O166 Cd156 2.297 . S
O166 C161 1.247 . S
O167 Cd156 2.439 . S
O167 C161 1.208 . S
O168 Cd169 2.223 . S
O168 C176 1.315 . S
Cd169 O168 2.223 . S
Cd169 O172 2.297 . S
Cd169 O173 2.439 . S
Cd169 O179 2.240 . S
Cd170 O171 2.240 . S
Cd170 O178 2.223 . S
Cd170 O180 2.297 . S
Cd170 O181 2.439 . S
O171 Cd170 2.240 . S
O171 C176 1.279 . S
O172 Cd169 2.297 . S
O172 C174 1.247 . S
O173 Cd169 2.439 . S
O173 C174 1.208 . S
C174 O172 1.247 . S
C174 O173 1.208 . S
C175 O180 1.247 . S
C175 O181 1.208 . S
C176 O168 1.315 . S
C176 O171 1.279 . S
C177 O178 1.315 . S
C177 O179 1.279 . S
O178 Cd170 2.223 . S
O178 C177 1.315 . S
O179 Cd169 2.240 . S
O179 C177 1.279 . S
O180 Cd170 2.297 . S
O180 C175 1.247 . S
O181 Cd170 2.439 . S
O181 C175 1.208 . S
O182 Cd183 2.223 . S
O182 C190 1.315 . S
Cd183 O182 2.223 . S
Cd183 O186 2.297 . S
Cd183 O187 2.439 . S
Cd183 O193 2.240 . S
Cd184 O185 2.240 . S
Cd184 O192 2.223 . S
Cd184 O194 2.297 . S
Cd184 O195 2.439 . S
O185 Cd184 2.240 . S
O185 C190 1.279 . S
O186 Cd183 2.297 . S
O186 C188 1.247 . S
O187 Cd183 2.439 . S
O187 C188 1.208 . S
C188 O186 1.247 . S
C188 O187 1.208 . S
C189 O194 1.247 . S
C189 O195 1.208 . S
C190 O182 1.315 . S
C190 O185 1.279 . S
C191 O192 1.315 . S
C191 O193 1.279 . S
O192 Cd184 2.223 . S
O192 C191 1.315 . S
O193 Cd183 2.240 . S
O193 C191 1.279 . S
O194 Cd184 2.297 . S
O194 C189 1.247 . S
O195 Cd184 2.439 . S
O195 C189 1.208 . S
O196 Cd197 2.223 . S
O196 C204 1.315 . S
Cd197 O196 2.223 . S
Cd197 O200 2.297 . S
Cd197 O201 2.439 . S
Cd197 O207 2.240 . S
Cd198 O199 2.240 . S
Cd198 O206 2.223 . S
Cd198 O208 2.297 . S
Cd198 O209 2.439 . S
O199 Cd198 2.240 . S
O199 C204 1.279 . S
O200 Cd197 2.297 . S
O200 C202 1.247 . S
O201 Cd197 2.439 . S
O201 C202 1.208 . S
C202 O200 1.247 . S
C202 O201 1.208 . S
C203 O208 1.247 . S
C203 O209 1.208 . S
C204 O196 1.315 . S
C204 O199 1.279 . S
C205 O206 1.315 . S
C205 O207 1.279 . S
O206 Cd198 2.223 . S
O206 C205 1.315 . S
O207 Cd197 2.240 . S
O207 C205 1.279 . S
O208 Cd198 2.297 . S
O208 C203 1.247 . S
O209 Cd198 2.439 . S
O209 C203 1.208 . S
O210 Cd211 2.223 . S
O210 C218 1.315 . S
Cd211 O210 2.223 . S
Cd211 O214 2.297 . S
Cd211 O215 2.439 . S
Cd211 O221 2.240 . S
Cd212 O213 2.240 . S
Cd212 O220 2.223 . S
Cd212 O222 2.297 . S
Cd212 O223 2.439 . S
O213 Cd212 2.240 . S
O213 C218 1.279 . S
O214 Cd211 2.297 . S
O214 C216 1.247 . S
O215 Cd211 2.439 . S
O215 C216 1.208 . S
C216 O214 1.247 . S
C216 O215 1.208 . S
C217 O222 1.247 . S
C217 O223 1.208 . S
C218 O210 1.315 . S
C218 O213 1.279 . S
C219 O220 1.315 . S
C219 O221 1.279 . S
O220 Cd212 2.223 . S
O220 C219 1.315 . S
O221 Cd211 2.240 . S
O221 C219 1.279 . S
O222 Cd212 2.297 . S
O222 C217 1.247 . S
O223 Cd212 2.439 . S
O223 C217 1.208 . S
H224 C230 0.930 . S
H225 C233 0.930 . S
H226 C234 0.930 . S
H227 C235 0.930 . S
H228 C238 0.930 . S
H229 C239 0.930 . S
C230 H224 0.930 . S
C230 C231 1.355 1_556 S
C230 C232 1.415 . S
C231 C230 1.355 1_554 S
C231 C233 1.419 . S
C232 C230 1.415 . S
C232 C237 1.425 . S
C232 C239 1.409 . S
C233 H225 0.930 . S
C233 C231 1.419 . S
C233 C234 1.362 . S
C234 H226 0.930 . S
C234 C233 1.362 . S
C234 C237 1.409 1_554 S
C235 H227 0.930 . S
C235 C236 1.355 . S
C235 C237 1.415 . S
C236 C235 1.355 . S
C236 C238 1.419 . S
C237 C232 1.425 . S
C237 C234 1.409 1_556 S
C237 C235 1.415 . S
C238 H228 0.930 . S
C238 C236 1.419 . S
C238 C239 1.362 . S
C239 H229 0.930 . S
C239 C232 1.409 . S
C239 C238 1.362 . S
H240 C246 0.930 . S
H241 C249 0.930 . S
H242 C250 0.930 . S
H243 C251 0.930 . S
H244 C254 0.930 . S
H245 C255 0.930 . S
C246 H240 0.930 . S
C246 C247 1.355 . S
C246 C248 1.415 . S
C247 C246 1.355 . S
C247 C249 1.419 . S
C248 C246 1.415 . S
C248 C253 1.425 . S
C248 C255 1.409 . S
C249 H241 0.930 . S
C249 C247 1.419 . S
C249 C250 1.362 . S
C250 H242 0.930 . S
C250 C249 1.362 . S
C250 C253 1.409 . S
C251 H243 0.930 . S
C251 C252 1.355 . S
C251 C253 1.415 . S
C252 C251 1.355 . S
C252 C254 1.419 . S
C253 C248 1.425 . S
C253 C250 1.409 . S
C253 C251 1.415 . S
C254 H244 0.930 . S
C254 C252 1.419 . S
C254 C255 1.362 . S
C255 H245 0.930 . S
C255 C248 1.409 . S
C255 C254 1.362 . S
H256 C262 0.930 . S
H257 C265 0.930 . S
H258 C266 0.930 . S
H259 C267 0.930 . S
H260 C270 0.930 . S
H261 C271 0.930 . S
C262 H256 0.930 . S
C262 C263 1.355 . S
C262 C264 1.415 1_556 S
C263 C262 1.355 . S
C263 C265 1.419 . S
C264 C262 1.415 1_554 S
C264 C269 1.425 . S
C264 C271 1.409 . S
C265 H257 0.930 . S
C265 C263 1.419 . S
C265 C266 1.362 . S
C266 H258 0.930 . S
C266 C265 1.362 . S
C266 C269 1.409 1_556 S
C267 H259 0.930 . S
C267 C268 1.355 . S
C267 C269 1.415 . S
C268 C267 1.355 . S
C268 C270 1.419 . S
C269 C264 1.425 . S
C269 C266 1.409 1_554 S
C269 C267 1.415 . S
C270 H260 0.930 . S
C270 C268 1.419 . S
C270 C271 1.362 . S
C271 H261 0.930 . S
C271 C264 1.409 . S
C271 C270 1.362 . S
H272 C278 0.930 . S
H273 C281 0.930 . S
H274 C282 0.930 . S
H275 C283 0.930 . S
H276 C286 0.930 . S
H277 C287 0.930 . S
C278 H272 0.930 . S
C278 C279 1.355 . S
C278 C280 1.415 . S
C279 C278 1.355 . S
C279 C281 1.419 . S
C280 C278 1.415 . S
C280 C285 1.425 . S
C280 C287 1.409 . S
C281 H273 0.930 . S
C281 C279 1.419 . S
C281 C282 1.362 . S
C282 H274 0.930 . S
C282 C281 1.362 . S
C282 C285 1.409 . S
C283 H275 0.930 . S
C283 C284 1.355 . S
C283 C285 1.415 . S
C284 C283 1.355 . S
C284 C286 1.419 . S
C285 C280 1.425 . S
C285 C282 1.409 . S
C285 C283 1.415 . S
C286 H276 0.930 . S
C286 C284 1.419 . S
C286 C287 1.362 . S
C287 H277 0.930 . S
C287 C280 1.409 . S
C287 C286 1.362 . S
H288 C294 0.930 . S
H289 C297 0.930 . S
H290 C298 0.930 . S
H291 C299 0.930 . S
H292 C302 0.930 . S
H293 C303 0.930 . S
C294 H288 0.930 . S
C294 C295 1.355 . S
C294 C296 1.415 1_554 S
C295 C294 1.355 . S
C295 C297 1.419 . S
C296 C294 1.415 1_556 S
C296 C301 1.425 . S
C296 C303 1.409 . S
C297 H289 0.930 . S
C297 C295 1.419 . S
C297 C298 1.362 1_554 S
C298 H290 0.930 . S
C298 C297 1.362 1_556 S
C298 C301 1.409 . S
C299 H291 0.930 . S
C299 C300 1.355 . S
C299 C301 1.415 . S
C300 C299 1.355 . S
C300 C302 1.419 . S
C301 C296 1.425 . S
C301 C298 1.409 . S
C301 C299 1.415 . S
C302 H292 0.930 . S
C302 C300 1.419 . S
C302 C303 1.362 . S
C303 H293 0.930 . S
C303 C296 1.409 . S
C303 C302 1.362 . S
H304 C310 0.930 . S
H305 C313 0.930 . S
H306 C314 0.930 . S
H307 C315 0.930 . S
H308 C318 0.930 . S
H309 C319 0.930 . S
C310 H304 0.930 . S
C310 C311 1.355 . S
C310 C312 1.415 . S
C311 C310 1.355 . S
C311 C313 1.419 . S
C312 C310 1.415 . S
C312 C317 1.425 . S
C312 C319 1.409 . S
C313 H305 0.930 . S
C313 C311 1.419 . S
C313 C314 1.362 . S
C314 H306 0.930 . S
C314 C313 1.362 . S
C314 C317 1.409 . S
C315 H307 0.930 . S
C315 C316 1.355 . S
C315 C317 1.415 . S
C316 C315 1.355 . S
C316 C318 1.419 . S
C317 C312 1.425 . S
C317 C314 1.409 . S
C317 C315 1.415 . S
C318 H308 0.930 . S
C318 C316 1.419 . S
C318 C319 1.362 . S
C319 H309 0.930 . S
C319 C312 1.409 . S
C319 C318 1.362 . S
H320 C326 0.930 . S
H321 C329 0.930 . S
H322 C330 0.930 . S
H323 C331 0.930 . S
H324 C334 0.930 . S
H325 C335 0.930 . S
C326 H320 0.930 . S
C326 C327 1.355 . S
C326 C328 1.415 . S
C327 C326 1.355 . S
C327 C329 1.419 1_556 S
C328 C326 1.415 . S
C328 C333 1.425 1_556 S
C328 C335 1.409 . S
C329 H321 0.930 . S
C329 C327 1.419 1_554 S
C329 C330 1.362 . S
C330 H322 0.930 . S
C330 C329 1.362 . S
C330 C333 1.409 . S
C331 H323 0.930 . S
C331 C332 1.355 . S
C331 C333 1.415 . S
C332 C331 1.355 . S
C332 C334 1.419 . S
C333 C328 1.425 1_554 S
C333 C330 1.409 . S
C333 C331 1.415 . S
C334 H324 0.930 . S
C334 C332 1.419 . S
C334 C335 1.362 1_554 S
C335 H325 0.930 . S
C335 C328 1.409 . S
C335 C334 1.362 1_556 S
H336 C342 0.930 . S
H337 C345 0.930 . S
H338 C346 0.930 . S
H339 C347 0.930 . S
H340 C350 0.930 . S
H341 C351 0.930 . S
C342 H336 0.930 . S
C342 C343 1.355 . S
C342 C344 1.415 . S
C343 C342 1.355 . S
C343 C345 1.419 . S
C344 C342 1.415 . S
C344 C349 1.425 . S
C344 C351 1.409 . S
C345 H337 0.930 . S
C345 C343 1.419 . S
C345 C346 1.362 . S
C346 H338 0.930 . S
C346 C345 1.362 . S
C346 C349 1.409 . S
C347 H339 0.930 . S
C347 C348 1.355 . S
C347 C349 1.415 . S
C348 C347 1.355 . S
C348 C350 1.419 . S
C349 C344 1.425 . S
C349 C346 1.409 . S
C349 C347 1.415 . S
C350 H340 0.930 . S
C350 C348 1.419 . S
C350 C351 1.362 . S
C351 H341 0.930 . S
C351 C344 1.409 . S
C351 C350 1.362 . S
H352 C358 0.930 . S
H353 C361 0.930 . S
H354 C362 0.930 . S
H355 C363 0.930 . S
H356 C366 0.930 . S
H357 C367 0.930 . S
C358 H352 0.930 . S
C358 C359 1.355 . S
C358 C360 1.415 . S
C359 C358 1.355 . S
C359 C361 1.419 1_554 S
C360 C358 1.415 . S
C360 C365 1.425 1_544 S
C360 C367 1.409 1_545 S
C361 H353 0.930 . S
C361 C359 1.419 1_556 S
C361 C362 1.362 . S
C362 H354 0.930 . S
C362 C361 1.362 . S
C362 C365 1.409 1_545 S
C363 H355 0.930 . S
C363 C364 1.355 . S
C363 C365 1.415 . S
C364 C363 1.355 . S
C364 C366 1.419 1_556 S
C365 C360 1.425 1_566 S
C365 C362 1.409 1_565 S
C365 C363 1.415 . S
C366 H356 0.930 . S
C366 C364 1.419 1_554 S
C366 C367 1.362 . S
C367 H357 0.930 . S
C367 C360 1.409 1_565 S
C367 C366 1.362 . S
H368 C374 0.930 . S
H369 C377 0.930 . S
H370 C378 0.930 . S
H371 C379 0.930 . S
H372 C382 0.930 . S
H373 C383 0.930 . S
C374 H368 0.930 . S
C374 C375 1.355 . S
C374 C376 1.415 . S
C375 C374 1.355 . S
C375 C377 1.419 . S
C376 C374 1.415 . S
C376 C381 1.425 1_565 S
C376 C383 1.409 1_565 S
C377 H369 0.930 . S
C377 C375 1.419 . S
C377 C378 1.362 . S
C378 H370 0.930 . S
C378 C377 1.362 . S
C378 C381 1.409 1_565 S
C379 H371 0.930 . S
C379 C380 1.355 . S
C379 C381 1.415 . S
C380 C379 1.355 . S
C380 C382 1.419 . S
C381 C376 1.425 1_545 S
C381 C378 1.409 1_545 S
C381 C379 1.415 . S
C382 H372 0.930 . S
C382 C380 1.419 . S
C382 C383 1.362 . S
C383 H373 0.930 . S
C383 C376 1.409 1_545 S
C383 C382 1.362 . S
H384 C390 0.930 . S
H385 C393 0.933 . S
H386 C394 0.930 . S
H387 C395 0.930 . S
H388 C398 0.933 . S
H389 C399 0.930 . S
C390 H384 0.930 . S
C390 C391 1.355 . S
C390 C392 1.415 1_565 S
C391 C390 1.355 . S
C391 C393 1.419 . S
C392 C390 1.415 1_545 S
C392 C397 1.425 1_546 S
C392 C399 1.409 . S
C393 H385 0.933 . S
C393 C391 1.419 . S
C393 C394 1.362 1_556 S
C394 H386 0.930 . S
C394 C393 1.362 1_554 S
C394 C397 1.409 . S
C395 H387 0.930 . S
C395 C396 1.355 . S
C395 C397 1.415 1_545 S
C396 C395 1.355 . S
C396 C398 1.419 . S
C397 C392 1.425 1_564 S
C397 C394 1.409 . S
C397 C395 1.415 1_565 S
C398 H388 0.933 . S
C398 C396 1.419 . S
C398 C399 1.362 1_554 S
C399 H389 0.930 . S
C399 C392 1.409 . S
C399 C398 1.362 1_556 S
H400 C406 0.930 . S
H401 C409 0.930 . S
H402 C410 0.930 . S
H403 C411 0.930 . S
H404 C414 0.930 . S
H405 C415 0.930 . S
C406 H400 0.930 . S
C406 C407 1.355 . S
C406 C408 1.415 . S
C407 C406 1.355 . S
C407 C409 1.419 . S
C408 C406 1.415 . S
C408 C413 1.425 1_545 S
C408 C415 1.409 1_545 S
C409 H401 0.930 . S
C409 C407 1.419 . S
C409 C410 1.362 . S
C410 H402 0.930 . S
C410 C409 1.362 . S
C410 C413 1.409 1_545 S
C411 H403 0.930 . S
C411 C412 1.355 . S
C411 C413 1.415 . S
C412 C411 1.355 . S
C412 C414 1.419 . S
C413 C408 1.425 1_565 S
C413 C410 1.409 1_565 S
C413 C411 1.415 . S
C414 H404 0.930 . S
C414 C412 1.419 . S
C414 C415 1.362 . S
C415 H405 0.930 . S
C415 C408 1.409 1_565 S
C415 C414 1.362 . S
H416 C422 0.930 . S
H417 C425 0.930 . S
H418 C426 0.930 . S
H419 C427 0.930 . S
H420 C430 0.930 . S
H421 C431 0.930 . S
C422 H416 0.930 . S
C422 C423 1.355 1_554 S
C422 C424 1.415 . S
C423 C422 1.355 1_556 S
C423 C425 1.419 . S
C424 C422 1.415 . S
C424 C429 1.425 1_554 S
C424 C431 1.409 . S
C425 H417 0.930 . S
C425 C423 1.419 . S
C425 C426 1.362 . S
C426 H418 0.930 . S
C426 C425 1.362 . S
C426 C429 1.409 . S
C427 H419 0.930 . S
C427 C428 1.355 1_556 S
C427 C429 1.415 . S
C428 C427 1.355 1_554 S
C428 C430 1.419 . S
C429 C424 1.425 1_556 S
C429 C426 1.409 . S
C429 C427 1.415 . S
C430 H420 0.930 . S
C430 C428 1.419 . S
C430 C431 1.362 . S
C431 H421 0.930 . S
C431 C424 1.409 . S
C431 C430 1.362 . S
H432 C438 0.930 . S
H433 C441 0.930 . S
H434 C442 0.930 . S
H435 C443 0.930 . S
H436 C446 0.930 . S
H437 C447 0.930 . S
C438 H432 0.930 . S
C438 C439 1.355 . S
C438 C440 1.415 . S
C439 C438 1.355 . S
C439 C441 1.419 . S
C440 C438 1.415 . S
C440 C445 1.425 . S
C440 C447 1.409 . S
C441 H433 0.930 . S
C441 C439 1.419 . S
C441 C442 1.362 . S
C442 H434 0.930 . S
C442 C441 1.362 . S
C442 C445 1.409 . S
C443 H435 0.930 . S
C443 C444 1.355 . S
C443 C445 1.415 . S
C444 C443 1.355 . S
C444 C446 1.419 . S
C445 C440 1.425 . S
C445 C442 1.409 . S
C445 C443 1.415 . S
C446 H436 0.930 . S
C446 C444 1.419 . S
C446 C447 1.362 . S
C447 H437 0.930 . S
C447 C440 1.409 . S
C447 C446 1.362 . S
H448 C454 0.930 . S
H449 C457 0.930 . S
H450 C458 0.935 . S
H451 C459 0.930 . S
H452 C462 0.930 . S
H453 C463 0.935 . S
C454 H448 0.930 . S
C454 C455 1.355 . S
C454 C456 1.415 . S
C455 C454 1.355 . S
C455 C457 1.419 . S
C456 C454 1.415 . S
C456 C461 1.425 1_554 S
C456 C463 1.411 . S
C457 H449 0.930 . S
C457 C455 1.419 . S
C457 C458 1.356 1_554 S
C458 H450 0.935 . S
C458 C457 1.356 1_556 S
C458 C461 1.411 . S
C459 H451 0.930 . S
C459 C460 1.355 . S
C459 C461 1.415 . S
C460 C459 1.355 . S
C460 C462 1.419 . S
C461 C456 1.425 1_556 S
C461 C458 1.411 . S
C461 C459 1.415 . S
C462 H452 0.930 . S
C462 C460 1.419 . S
C462 C463 1.356 1_556 S
C463 H453 0.935 . S
C463 C456 1.411 . S
C463 C462 1.356 1_554 S
H464 C470 0.930 . S
H465 C473 0.930 . S
H466 C474 0.930 . S
H467 C475 0.930 . S
H468 C478 0.930 . S
H469 C479 0.930 . S
C470 H464 0.930 . S
C470 C471 1.355 . S
C470 C472 1.415 . S
C471 C470 1.355 . S
C471 C473 1.419 . S
C472 C470 1.415 . S
C472 C477 1.425 . S
C472 C479 1.409 . S
C473 H465 0.930 . S
C473 C471 1.419 . S
C473 C474 1.362 . S
C474 H466 0.930 . S
C474 C473 1.362 . S
C474 C477 1.409 . S
C475 H467 0.930 . S
C475 C476 1.355 . S
C475 C477 1.415 . S
C476 C475 1.355 . S
C476 C478 1.419 . S
C477 C472 1.425 . S
C477 C474 1.409 . S
C477 C475 1.415 . S
C478 H468 0.930 . S
C478 C476 1.419 . S
C478 C479 1.362 . S
C479 H469 0.930 . S
C479 C472 1.409 . S
C479 C478 1.362 . S
H480 C486 0.930 . S
H481 C489 0.930 . S
H482 C490 0.930 . S
H483 C491 0.930 . S
H484 C494 0.930 . S
H485 C495 0.930 . S
C486 H480 0.930 . S
C486 C487 1.355 . S
C486 C488 1.415 . S
C487 C486 1.355 . S
C487 C489 1.419 . S
C488 C486 1.415 . S
C488 C493 1.425 . S
C488 C495 1.409 . S
C489 H481 0.930 . S
C489 C487 1.419 . S
C489 C490 1.362 . S
C490 H482 0.930 . S
C490 C489 1.362 . S
C490 C493 1.409 . S
C491 H483 0.930 . S
C491 C492 1.355 . S
C491 C493 1.415 . S
C492 C491 1.355 . S
C492 C494 1.419 . S
C493 C488 1.425 . S
C493 C490 1.409 . S
C493 C491 1.415 . S
C494 H484 0.930 . S
C494 C492 1.419 . S
C494 C495 1.362 . S
C495 H485 0.930 . S
C495 C488 1.409 . S
C495 C494 1.362 . S
H496 C502 0.930 1_655 S
H497 C505 0.930 1_655 S
H498 C506 0.930 . S
H499 C507 0.930 . S
H500 C510 0.930 . S
H501 C511 0.930 . S
C502 H496 0.930 1_455 S
C502 C503 1.355 1_455 S
C502 C504 1.415 . S
C503 C502 1.355 1_655 S
C503 C505 1.419 1_655 S
C504 C502 1.415 . S
C504 C509 1.425 . S
C504 C511 1.409 . S
C505 H497 0.930 1_455 S
C505 C503 1.419 1_455 S
C505 C506 1.362 . S
C506 H498 0.930 . S
C506 C505 1.362 . S
C506 C509 1.409 . S
C507 H499 0.930 . S
C507 C508 1.355 . S
C507 C509 1.415 . S
C508 C507 1.355 . S
C508 C510 1.419 . S
C509 C504 1.425 . S
C509 C506 1.409 . S
C509 C507 1.415 . S
C510 H500 0.930 . S
C510 C508 1.419 . S
C510 C511 1.362 . S
C511 H501 0.930 . S
C511 C504 1.409 . S
C511 C510 1.362 . S
H512 C518 0.930 . S
H513 C521 0.930 . S
H514 C522 0.930 . S
H515 C523 0.930 . S
H516 C526 0.930 . S
H517 C527 0.930 . S
C518 H512 0.930 . S
C518 C519 1.355 . S
C518 C520 1.415 . S
C519 C518 1.355 . S
C519 C521 1.419 . S
C520 C518 1.415 . S
C520 C525 1.425 . S
C520 C527 1.409 . S
C521 H513 0.930 . S
C521 C519 1.419 . S
C521 C522 1.362 . S
C522 H514 0.930 . S
C522 C521 1.362 . S
C522 C525 1.409 . S
C523 H515 0.930 . S
C523 C524 1.355 . S
C523 C525 1.415 . S
C524 C523 1.355 . S
C524 C526 1.419 . S
C525 C520 1.425 . S
C525 C522 1.409 . S
C525 C523 1.415 . S
C526 H516 0.930 . S
C526 C524 1.419 . S
C526 C527 1.362 . S
C527 H517 0.930 . S
C527 C520 1.409 . S
C527 C526 1.362 . S
H528 C534 0.930 . S
H529 C537 0.930 . S
H530 C538 0.930 . S
H531 C539 0.930 . S
H532 C542 0.930 . S
H533 C543 0.930 . S
C534 H528 0.930 . S
C534 C535 1.355 . S
C534 C536 1.415 . S
C535 C534 1.355 . S
C535 C537 1.419 . S
C536 C534 1.415 . S
C536 C541 1.425 . S
C536 C543 1.409 . S
C537 H529 0.930 . S
C537 C535 1.419 . S
C537 C538 1.362 . S
C538 H530 0.930 . S
C538 C537 1.362 . S
C538 C541 1.409 . S
C539 H531 0.930 . S
C539 C540 1.355 1_455 S
C539 C541 1.415 . S
C540 C539 1.355 1_655 S
C540 C542 1.419 . S
C541 C536 1.425 . S
C541 C538 1.409 . S
C541 C539 1.415 . S
C542 H532 0.930 . S
C542 C540 1.419 . S
C542 C543 1.362 1_655 S
C543 H533 0.930 . S
C543 C536 1.409 . S
C543 C542 1.362 1_455 S
H544 C550 0.930 1_455 S
H545 C553 0.930 1_455 S
H546 C554 0.930 . S
H547 C555 0.930 . S
H548 C558 0.930 . S
H549 C559 0.930 . S
C550 H544 0.930 1_655 S
C550 C551 1.355 1_655 S
C550 C552 1.415 . S
C551 C550 1.355 1_455 S
C551 C553 1.419 1_455 S
C552 C550 1.415 . S
C552 C557 1.425 . S
C552 C559 1.409 . S
C553 H545 0.930 1_655 S
C553 C551 1.419 1_655 S
C553 C554 1.362 . S
C554 H546 0.930 . S
C554 C553 1.362 . S
C554 C557 1.409 . S
C555 H547 0.930 . S
C555 C556 1.355 . S
C555 C557 1.415 . S
C556 C555 1.355 . S
C556 C558 1.419 . S
C557 C552 1.425 . S
C557 C554 1.409 . S
C557 C555 1.415 . S
C558 H548 0.930 . S
C558 C556 1.419 . S
C558 C559 1.362 . S
C559 H549 0.930 . S
C559 C552 1.409 . S
C559 C558 1.362 . S
H560 C566 0.930 . S
H561 C569 0.930 . S
H562 C570 0.930 . S
H563 C571 0.930 . S
H564 C574 0.930 . S
H565 C575 0.930 . S
C566 H560 0.930 . S
C566 C567 1.355 . S
C566 C568 1.415 . S
C567 C566 1.355 . S
C567 C569 1.419 . S
C568 C566 1.415 . S
C568 C573 1.425 . S
C568 C575 1.409 . S
C569 H561 0.930 . S
C569 C567 1.419 . S
C569 C570 1.362 . S
C570 H562 0.930 . S
C570 C569 1.362 . S
C570 C573 1.409 . S
C571 H563 0.930 . S
C571 C572 1.355 . S
C571 C573 1.415 . S
C572 C571 1.355 . S
C572 C574 1.419 . S
C573 C568 1.425 . S
C573 C570 1.409 . S
C573 C571 1.415 . S
C574 H564 0.930 . S
C574 C572 1.419 . S
C574 C575 1.362 . S
C575 H565 0.930 . S
C575 C568 1.409 . S
C575 C574 1.362 . S
H576 C582 0.921 1_455 S
H577 C585 0.930 1_455 S
H578 C586 0.930 . S
H579 C587 0.930 . S
H580 C590 0.930 . S
H581 C591 0.930 . S
C582 H576 0.921 1_655 S
C582 C583 1.355 1_655 S
C582 C584 1.415 . S
C583 C582 1.355 1_455 S
C583 C585 1.419 1_455 S
C584 C582 1.415 . S
C584 C589 1.425 . S
C584 C591 1.409 . S
C585 H577 0.930 1_655 S
C585 C583 1.419 1_655 S
C585 C586 1.362 . S
C586 H578 0.930 . S
C586 C585 1.362 . S
C586 C589 1.409 . S
C587 H579 0.930 . S
C587 C588 1.355 . S
C587 C589 1.415 . S
C588 C587 1.355 . S
C588 C590 1.419 . S
C589 C584 1.425 . S
C589 C586 1.409 . S
C589 C587 1.415 . S
C590 H580 0.930 . S
C590 C588 1.419 . S
C590 C591 1.362 . S
C591 H581 0.930 . S
C591 C584 1.409 . S
C591 C590 1.362 . S
H592 C598 0.930 . S
H593 C601 0.930 . S
H594 C602 0.930 . S
H595 C603 0.930 . S
H596 C606 0.930 . S
H597 C607 0.930 . S
C598 H592 0.930 . S
C598 C599 1.355 . S
C598 C600 1.415 . S
C599 C598 1.355 . S
C599 C601 1.419 . S
C600 C598 1.415 . S
C600 C605 1.425 . S
C600 C607 1.409 . S
C601 H593 0.930 . S
C601 C599 1.419 . S
C601 C602 1.362 . S
C602 H594 0.930 . S
C602 C601 1.362 . S
C602 C605 1.409 . S
C603 H595 0.930 . S
C603 C604 1.355 . S
C603 C605 1.415 . S
C604 C603 1.355 . S
C604 C606 1.419 . S
C605 C600 1.425 . S
C605 C602 1.409 . S
C605 C603 1.415 . S
C606 H596 0.930 . S
C606 C604 1.419 . S
C606 C607 1.362 . S
C607 H597 0.930 . S
C607 C600 1.409 . S
C607 C606 1.362 . S
H608 C614 0.930 . S
H609 C617 0.930 . S
H610 C618 0.930 . S
H611 C619 0.930 . S
H612 C622 0.930 . S
H613 C623 0.930 . S
C614 H608 0.930 . S
C614 C615 1.355 . S
C614 C616 1.415 . S
C615 C614 1.355 . S
C615 C617 1.419 . S
C616 C614 1.415 . S
C616 C621 1.425 . S
C616 C623 1.409 . S
C617 H609 0.930 . S
C617 C615 1.419 . S
C617 C618 1.362 . S
C618 H610 0.930 . S
C618 C617 1.362 . S
C618 C621 1.409 . S
C619 H611 0.930 . S
C619 C620 1.355 . S
C619 C621 1.415 . S
C620 C619 1.355 . S
C620 C622 1.419 . S
C621 C616 1.425 . S
C621 C618 1.409 . S
C621 C619 1.415 . S
C622 H612 0.930 . S
C622 C620 1.419 . S
C622 C623 1.362 . S
C623 H613 0.930 . S
C623 C616 1.409 . S
C623 C622 1.362 . S
H624 C630 0.930 . S
H625 C633 0.930 . S
H626 C634 0.930 . S
H627 C635 0.930 . S
H628 C638 0.930 . S
H629 C639 0.930 . S
C630 H624 0.930 . S
C630 C631 1.355 . S
C630 C632 1.415 . S
C631 C630 1.355 . S
C631 C633 1.419 . S
C632 C630 1.415 . S
C632 C637 1.425 . S
C632 C639 1.409 . S
C633 H625 0.930 . S
C633 C631 1.419 . S
C633 C634 1.362 . S
C634 H626 0.930 . S
C634 C633 1.362 . S
C634 C637 1.409 . S
C635 H627 0.930 . S
C635 C636 1.355 . S
C635 C637 1.415 . S
C636 C635 1.355 . S
C636 C638 1.419 . S
C637 C632 1.425 . S
C637 C634 1.409 . S
C637 C635 1.415 . S
C638 H628 0.930 . S
C638 C636 1.419 . S
C638 C639 1.362 . S
C639 H629 0.930 . S
C639 C632 1.409 . S
C639 C638 1.362 . S
H640 C646 0.930 . S
H641 C649 0.930 . S
H642 C650 0.930 . S
H643 C651 0.930 . S
H644 C654 0.930 . S
H645 C655 0.930 . S
C646 H640 0.930 . S
C646 C647 1.355 . S
C646 C648 1.415 . S
C647 C646 1.355 . S
C647 C649 1.419 . S
C648 C646 1.415 . S
C648 C653 1.425 . S
C648 C655 1.409 . S
C649 H641 0.930 . S
C649 C647 1.419 . S
C649 C650 1.362 . S
C650 H642 0.930 . S
C650 C649 1.362 . S
C650 C653 1.409 . S
C651 H643 0.930 . S
C651 C652 1.355 . S
C651 C653 1.415 . S
C652 C651 1.355 . S
C652 C654 1.419 . S
C653 C648 1.425 . S
C653 C650 1.409 . S
C653 C651 1.415 . S
C654 H644 0.930 . S
C654 C652 1.419 . S
C654 C655 1.362 . S
C655 H645 0.930 . S
C655 C648 1.409 . S
C655 C654 1.362 . S
H656 C662 0.930 . S
H657 C665 0.930 . S
H658 C666 0.930 . S
H659 C667 0.930 . S
H660 C670 0.930 . S
H661 C671 0.930 . S
C662 H656 0.930 . S
C662 C663 1.355 . S
C662 C664 1.415 . S
C663 C662 1.355 . S
C663 C665 1.419 . S
C664 C662 1.415 . S
C664 C669 1.425 . S
C664 C671 1.409 . S
C665 H657 0.930 . S
C665 C663 1.419 . S
C665 C666 1.362 . S
C666 H658 0.930 . S
C666 C665 1.362 . S
C666 C669 1.409 . S
C667 H659 0.930 . S
C667 C668 1.355 . S
C667 C669 1.415 . S
C668 C667 1.355 . S
C668 C670 1.419 . S
C669 C664 1.425 . S
C669 C666 1.409 . S
C669 C667 1.415 . S
C670 H660 0.930 . S
C670 C668 1.419 . S
C670 C671 1.362 . S
C671 H661 0.930 . S
C671 C664 1.409 . S
C671 C670 1.362 . S
H672 C678 0.930 . S
H673 C681 0.930 . S
H674 C682 0.930 . S
H675 C683 0.930 . S
H676 C686 0.930 . S
H677 C687 0.930 . S
C678 H672 0.930 . S
C678 C679 1.355 . S
C678 C680 1.415 . S
C679 C678 1.355 . S
C679 C681 1.419 . S
C680 C678 1.415 . S
C680 C685 1.425 . S
C680 C687 1.409 . S
C681 H673 0.930 . S
C681 C679 1.419 . S
C681 C682 1.362 . S
C682 H674 0.930 . S
C682 C681 1.362 . S
C682 C685 1.409 . S
C683 H675 0.930 . S
C683 C684 1.355 . S
C683 C685 1.415 . S
C684 C683 1.355 . S
C684 C686 1.419 . S
C685 C680 1.425 . S
C685 C682 1.409 . S
C685 C683 1.415 . S
C686 H676 0.930 . S
C686 C684 1.419 . S
C686 C687 1.362 . S
C687 H677 0.930 . S
C687 C680 1.409 . S
C687 C686 1.362 . S
H688 C694 0.930 . S
H689 C697 0.930 . S
H690 C698 0.930 . S
H691 C699 0.930 . S
H692 C702 0.930 . S
H693 C703 0.930 . S
C694 H688 0.930 . S
C694 C695 1.355 . S
C694 C696 1.415 . S
C695 C694 1.355 . S
C695 C697 1.419 . S
C696 C694 1.415 . S
C696 C701 1.425 . S
C696 C703 1.409 . S
C697 H689 0.930 . S
C697 C695 1.419 . S
C697 C698 1.362 . S
C698 H690 0.930 . S
C698 C697 1.362 . S
C698 C701 1.409 . S
C699 H691 0.930 . S
C699 C700 1.355 . S
C699 C701 1.415 . S
C700 C699 1.355 . S
C700 C702 1.419 . S
C701 C696 1.425 . S
C701 C698 1.409 . S
C701 C699 1.415 . S
C702 H692 0.930 . S
C702 C700 1.419 . S
C702 C703 1.362 . S
C703 H693 0.930 . S
C703 C696 1.409 . S
C703 C702 1.362 . S
H704 C710 0.930 . S
H705 C713 0.930 . S
H706 C714 0.930 . S
H707 C715 0.930 . S
H708 C718 0.930 . S
H709 C719 0.930 . S
C710 H704 0.930 . S
C710 C711 1.355 . S
C710 C712 1.415 . S
C711 C710 1.355 . S
C711 C713 1.419 . S
C712 C710 1.415 . S
C712 C717 1.425 . S
C712 C719 1.409 . S
C713 H705 0.930 . S
C713 C711 1.419 . S
C713 C714 1.362 . S
C714 H706 0.930 . S
C714 C713 1.362 . S
C714 C717 1.409 . S
C715 H707 0.930 . S
C715 C716 1.355 . S
C715 C717 1.415 . S
C716 C715 1.355 . S
C716 C718 1.419 . S
C717 C712 1.425 . S
C717 C714 1.409 . S
C717 C715 1.415 . S
C718 H708 0.930 . S
C718 C716 1.419 . S
C718 C719 1.362 . S
C719 H709 0.930 . S
C719 C712 1.409 . S
C719 C718 1.362 . S
H720 C726 0.930 . S
H721 C729 0.930 . S
H722 C730 0.930 . S
H723 C731 0.930 . S
H724 C734 0.930 . S
H725 C735 0.930 . S
C726 H720 0.930 . S
C726 C727 1.355 . S
C726 C728 1.415 . S
C727 C726 1.355 . S
C727 C729 1.419 . S
C728 C726 1.415 . S
C728 C733 1.425 . S
C728 C735 1.409 . S
C729 H721 0.930 . S
C729 C727 1.419 . S
C729 C730 1.362 . S
C730 H722 0.930 . S
C730 C729 1.362 . S
C730 C733 1.409 . S
C731 H723 0.930 . S
C731 C732 1.355 . S
C731 C733 1.415 . S
C732 C731 1.355 . S
C732 C734 1.419 . S
C733 C728 1.425 . S
C733 C730 1.409 . S
C733 C731 1.415 . S
C734 H724 0.930 . S
C734 C732 1.419 . S
C734 C735 1.362 . S
C735 H725 0.930 . S
C735 C728 1.409 . S
C735 C734 1.362 . S
C231 C6 1.598 . S
C236 C176 1.660 . S
C247 C190 1.671 . S
C252 C20 1.562 . S
C263 C34 1.556 . S
C268 C204 1.676 . S
C279 C218 1.658 . S
C284 C48 1.629 . S
C295 C118 1.556 . S
C300 C64 1.677 . S
C311 C78 1.664 . S
C316 C132 1.579 . S
C327 C146 1.594 . S
C332 C92 1.676 . S
C343 C106 1.676 . S
C348 C160 1.590 . S
C359 C7 1.665 . S
C364 C35 1.669 . S
C375 C21 1.622 . S
C380 C49 1.611 . S
C391 C63 1.386 . S
C396 C91 1.388 . S
C407 C77 1.425 . S
C412 C105 1.428 . S
C423 C147 1.595 . S
C428 C119 1.588 . S
C439 C133 1.582 . S
C444 C161 1.584 . S
C455 C203 1.390 . S
C460 C175 1.387 . S
C471 C189 1.426 . S
C476 C217 1.429 . S
C487 C93 1.518 . S
C492 C9 1.588 . S
C503 C107 1.556 . S
C508 C23 1.574 . S
C519 C37 1.586 . S
C524 C65 1.516 . S
C535 C51 1.581 . S
C540 C79 1.519 . S
C551 C205 1.556 . S
C556 C121 1.574 . S
C567 C135 1.574 . S
C572 C219 1.554 . S
C583 C177 1.532 . S
C588 C149 1.585 . S
C599 C163 1.587 . S
C604 C191 1.516 . S
C615 C8 1.573 . S
C620 C50 1.560 . S
C631 C36 1.574 . S
C636 C22 1.568 . S
C647 C62 1.547 . S
C652 C104 1.554 . S
C663 C76 1.502 . S
C668 C90 1.515 . S
C679 C162 1.565 . S
C684 C120 1.575 . S
C695 C134 1.561 . S
C700 C148 1.569 . S
C711 C216 1.508 . S
C716 C174 1.504 . S
C727 C188 1.510 . S
C732 C202 1.503 . S
