# Generated by pormake.
# Topology uof, (4)-cn, num edge types: 1
# Building blocks:
#     Node 0, Type 0, BuildingBlock: ICAMEG_clean_sbu_1, # of connection points: 4
#     Node 1, Type 0, BuildingBlock: ICAMEG_clean_sbu_1, # of connection points: 4
#     Node 2, Type 0, BuildingBlock: ICAMEG_clean_sbu_1, # of connection points: 4
#     Node 3, Type 0, BuildingBlock: ICAMEG_clean_sbu_1, # of connection points: 4
#     Node 4, Type 0, BuildingBlock: ICAMEG_clean_sbu_1, # of connection points: 4
#     Node 5, Type 0, BuildingBlock: ICAMEG_clean_sbu_1, # of connection points: 4
#     Node 6, Type 0, BuildingBlock: ICAMEG_clean_sbu_1, # of connection points: 4
#     Node 7, Type 0, BuildingBlock: ICAMEG_clean_sbu_1, # of connection points: 4
#     Node 8, Type 0, BuildingBlock: ICAMEG_clean_sbu_1, # of connection points: 4
#     Node 9, Type 0, BuildingBlock: ICAMEG_clean_sbu_1, # of connection points: 4
#     Node 10, Type 0, BuildingBlock: ICAMEG_clean_sbu_1, # of connection points: 4
#     Node 11, Type 0, BuildingBlock: ICAMEG_clean_sbu_1, # of connection points: 4
#     Edge 12, Type (0, 0), BuildingBlock: EZIPEK_clean_linker_0, # of connection points: 2
#     Edge 13, Type (0, 0), BuildingBlock: EZIPEK_clean_linker_0, # of connection points: 2
#     Edge 14, Type (0, 0), BuildingBlock: EZIPEK_clean_linker_0, # of connection points: 2
#     Edge 15, Type (0, 0), BuildingBlock: EZIPEK_clean_linker_0, # of connection points: 2
#     Edge 16, Type (0, 0), BuildingBlock: EZIPEK_clean_linker_0, # of connection points: 2
#     Edge 17, Type (0, 0), BuildingBlock: EZIPEK_clean_linker_0, # of connection points: 2
#     Edge 18, Type (0, 0), BuildingBlock: EZIPEK_clean_linker_0, # of connection points: 2
#     Edge 19, Type (0, 0), BuildingBlock: EZIPEK_clean_linker_0, # of connection points: 2
#     Edge 20, Type (0, 0), BuildingBlock: EZIPEK_clean_linker_0, # of connection points: 2
#     Edge 21, Type (0, 0), BuildingBlock: EZIPEK_clean_linker_0, # of connection points: 2
#     Edge 22, Type (0, 0), BuildingBlock: EZIPEK_clean_linker_0, # of connection points: 2
#     Edge 23, Type (0, 0), BuildingBlock: EZIPEK_clean_linker_0, # of connection points: 2
#     Edge 24, Type (0, 0), BuildingBlock: EZIPEK_clean_linker_0, # of connection points: 2
#     Edge 25, Type (0, 0), BuildingBlock: EZIPEK_clean_linker_0, # of connection points: 2
#     Edge 26, Type (0, 0), BuildingBlock: EZIPEK_clean_linker_0, # of connection points: 2
#     Edge 27, Type (0, 0), BuildingBlock: EZIPEK_clean_linker_0, # of connection points: 2
#     Edge 28, Type (0, 0), BuildingBlock: EZIPEK_clean_linker_0, # of connection points: 2
#     Edge 29, Type (0, 0), BuildingBlock: EZIPEK_clean_linker_0, # of connection points: 2
#     Edge 30, Type (0, 0), BuildingBlock: EZIPEK_clean_linker_0, # of connection points: 2
#     Edge 31, Type (0, 0), BuildingBlock: EZIPEK_clean_linker_0, # of connection points: 2
#     Edge 32, Type (0, 0), BuildingBlock: EZIPEK_clean_linker_0, # of connection points: 2
#     Edge 33, Type (0, 0), BuildingBlock: EZIPEK_clean_linker_0, # of connection points: 2
#     Edge 34, Type (0, 0), BuildingBlock: EZIPEK_clean_linker_0, # of connection points: 2
#     Edge 35, Type (0, 0), BuildingBlock: EZIPEK_clean_linker_0, # of connection points: 2
# Relax obj value: 0.215
# Max RMSD: 0.165
# Mean RMSD: 0.165
data_MOF--net-uof--node1-ICAMEG_clean_sbu_1--edge1-EZIPEK_clean_linker_0
_symmetry_space_group_name_H-M    P1
_symmetry_Int_Tables_number       1
_symmetry_cell_setting            triclinic
loop_
_symmetry_equiv_pos_as_xyz
'x, y, z'
_cell_length_a     24.675171
_cell_length_b     24.799366
_cell_length_c     54.002532
_cell_angle_alpha  90.005807
_cell_angle_beta   89.884207
_cell_angle_gamma 120.05441
loop_
_atom_site_label
_atom_site_type_symbol
_atom_site_fract_x
_atom_site_fract_y
_atom_site_fract_z
_atom_type_partial_charge
Co0 Co 0.24796 0.32682 0.20997 0.0
Co1 Co 0.17532 0.19744 0.247 0.0
O2 O 0.22879 0.28744 0.24257 0.0
C3 C 0.38714 0.39966 0.21019 0.0
O4 O 0.38503 0.37418 0.18867 0.0
C5 C 0.17884 0.25092 0.29713 0.0
O6 O 0.20864 0.30859 0.28926 0.0
O7 O 0.10535 0.20276 0.2301 0.0
O8 O 0.15786 0.26781 0.19866 0.0
H9 H 0.02174 0.97965 0.21899 0.0
H10 H 0.26809 0.39569 0.25678 0.0
O11 O 0.3364 0.38503 0.22176 0.0
H12 H 0.15196 0.46538 0.20424 0.0
H13 H 0.34659 0.50497 0.14855 0.0
H14 H 0.21482 0.2779 0.15939 0.0
H15 H 0.18418 0.39308 0.18809 0.0
H16 H 0.32203 0.45839 0.19024 0.0
O17 O 0.14867 0.2079 0.28133 0.0
H18 H 0.08103 0.09419 0.21567 0.0
H19 H 0.14808 0.10805 0.28897 0.0
H20 H 0.23711 0.32238 0.11722 0.0
H21 H 0.23774 0.46893 0.27371 0.0
H22 H 0.30377 0.43678 0.11162 0.0
H23 H 0.17868 0.50398 0.24745 0.0
O24 O 0.27541 0.26742 0.1984 0.0
H25 H 0.3807 0.28255 0.29326 0.0
H26 H 0.21943 0.10429 0.24653 0.0
H27 H 0.30886 0.09921 0.26341 0.0
H28 H 0.39022 0.18844 0.2873 0.0
H29 H 0.29134 0.28614 0.27612 0.0
H30 H 0.08594 0.99432 0.29383 0.0
H31 H 0.02515 0.92893 0.25823 0.0
O32 O 0.19866 0.18002 0.21408 0.0
C33 C 0.10616 0.22542 0.20852 0.0
C34 C 0.04916 0.00758 0.23451 0.0
C35 C 0.08495 0.01579 0.27651 0.0
N36 N 0.12001 0.10799 0.25171 0.0
C37 C 0.08287 0.07251 0.23271 0.0
C38 C 0.1192 0.08044 0.27379 0.0
C39 C 0.05091 0.97914 0.25651 0.0
C40 C 0.24074 0.40906 0.24545 0.0
N41 N 0.22391 0.38611 0.22197 0.0
C42 C 0.22442 0.45131 0.25505 0.0
C43 C 0.19144 0.47107 0.2403 0.0
C44 C 0.17619 0.44919 0.21612 0.0
C45 C 0.19333 0.40696 0.20719 0.0
C46 C 0.31776 0.45502 0.15072 0.0
C47 C 0.24371 0.32762 0.15704 0.0
C48 C 0.30409 0.42834 0.17432 0.0
N49 N 0.26753 0.36527 0.17727 0.0
C50 C 0.25626 0.35259 0.13315 0.0
C51 C 0.29365 0.41675 0.13002 0.0
C52 C 0.24586 0.20835 0.19994 0.0
C53 C 0.3448 0.24268 0.28338 0.0
C54 C 0.25359 0.14312 0.25715 0.0
C55 C 0.30463 0.14003 0.26658 0.0
C56 C 0.3503 0.19007 0.27994 0.0
N57 N 0.2467 0.19381 0.26138 0.0
C58 C 0.29298 0.24398 0.27375 0.0
Co59 Co 0.91904 0.24802 0.54765 0.0
Co60 Co 1.00057 0.18144 0.57081 0.0
O61 O 0.96332 0.23473 0.57506 0.0
C62 C 1.00018 0.37969 0.56362 0.0
O63 O 0.04853 0.37128 0.56319 0.0
C64 C 0.9773 0.1839 0.62612 0.0
O65 O 0.95206 0.2187 0.62214 0.0
O66 O 0.91607 0.10968 0.56055 0.0
O67 O 0.89054 0.16184 0.53379 0.0
H68 H 0.04704 0.03727 0.52095 0.0
H69 H 0.89458 0.27309 0.59865 0.0
O70 O 0.94532 0.3344 0.55964 0.0
H71 H 0.69007 0.10825 0.56793 0.0
H72 H 0.78281 0.32398 0.50989 0.0
H73 H 0.91533 0.23163 0.49308 0.0
H74 H 0.78334 0.15189 0.54112 0.0
H75 H 0.83416 0.30102 0.54409 0.0
O76 O 0.98924 0.15822 0.60783 0.0
H77 H 0.99728 0.10007 0.52951 0.0
H78 H 0.077 0.14082 0.60146 0.0
H79 H 0.86495 0.2537 0.45829 0.0
H80 H 0.80235 0.23118 0.62615 0.0
H81 H 0.79784 0.30008 0.46661 0.0
H82 H 0.69915 0.14802 0.61083 0.0
O83 O 0.99647 0.28191 0.52701 0.0
H84 H 0.1554 0.38681 0.6105 0.0
H85 H 0.12865 0.2252 0.55086 0.0
H86 H 0.2332 0.31508 0.55764 0.0
H87 H 0.24755 0.39685 0.58775 0.0
H88 H 0.05179 0.29624 0.60336 0.0
H89 H 0.12578 0.07749 0.59382 0.0
H90 H 0.11248 0.02634 0.55305 0.0
O91 O 0.01676 0.2056 0.53569 0.0
C92 C 0.88574 0.11058 0.54121 0.0
C93 C 0.05446 0.06079 0.53855 0.0
C94 C 0.09817 0.08281 0.5795 0.0
N95 N 0.03551 0.12654 0.56579 0.0
C96 C 0.02628 0.09647 0.5436 0.0
C97 C 0.06995 0.11872 0.58379 0.0
C98 C 0.09086 0.05425 0.55662 0.0
C99 C 0.84984 0.23695 0.59185 0.0
N100 N 0.84458 0.21464 0.56832 0.0
C101 C 0.79778 0.21338 0.60751 0.0
C102 C 0.73992 0.1667 0.59891 0.0
C103 C 0.73482 0.14431 0.57486 0.0
C104 C 0.78795 0.16894 0.55976 0.0
C105 C 0.81144 0.30322 0.50604 0.0
C106 C 0.88591 0.25126 0.49686 0.0
C107 C 0.84046 0.28983 0.52534 0.0
N108 N 0.87645 0.26328 0.52066 0.0
C109 C 0.85758 0.26387 0.47708 0.0
C110 C 0.81998 0.28991 0.48176 0.0
C111 C 0.02679 0.25352 0.52343 0.0
C112 C 0.15004 0.35081 0.59773 0.0
C113 C 0.13414 0.25901 0.56469 0.0
C114 C 0.19372 0.31055 0.56815 0.0
C115 C 0.20169 0.35652 0.58494 0.0
N116 N 0.08364 0.25237 0.57788 0.0
C117 C 0.09109 0.29867 0.59373 0.0
Co118 Co 0.6758 0.93574 0.86683 0.0
Co119 Co 0.77391 0.9783 0.91815 0.0
O120 O 0.69122 0.93631 0.90252 0.0
C121 C 0.60165 0.99206 0.88715 0.0
O122 O 0.6502 0.03049 0.90045 0.0
C123 C 0.74752 0.89587 0.96611 0.0
O124 O 0.72116 0.83742 0.97316 0.0
O125 O 0.80158 0.93128 0.89462 0.0
O126 O 0.74479 0.91728 0.8599 0.0
H127 H 0.00939 0.07368 0.91849 0.0
H128 H 0.57021 0.8579 0.90072 0.0
O129 O 0.60467 0.9526 0.87295 0.0
H130 H 0.58466 0.70986 0.84391 0.0
H131 H 0.53668 0.87417 0.79174 0.0
H132 H 0.75381 0.99117 0.82179 0.0
H133 H 0.65702 0.82288 0.83967 0.0
H134 H 0.55965 0.87786 0.83629 0.0
O135 O 0.74429 0.90677 0.94295 0.0
H136 H 0.90303 0.00307 0.90433 0.0
H137 H 0.83124 0.05577 0.96567 0.0
H138 H 0.73346 0.98749 0.77701 0.0
H139 H 0.49636 0.74529 0.90541 0.0
H140 H 0.624 0.92878 0.7617 0.0
H141 H 0.50341 0.67042 0.8769 0.0
O142 O 0.73775 0.0277 0.86323 0.0
H143 H 0.6111 0.99054 0.9698 0.0
H144 H 0.8145 0.11401 0.92796 0.0
H145 H 0.76715 0.16758 0.94935 0.0
H146 H 0.66505 0.10595 0.97085 0.0
H147 H 0.65961 0.9384 0.94761 0.0
H148 H 0.93645 0.12433 0.98035 0.0
H149 H 0.02738 0.13396 0.95695 0.0
O150 O 0.80479 0.04582 0.89425 0.0
C151 C 0.78781 0.91366 0.87176 0.0
C152 C 0.96988 0.06846 0.9291 0.0
C153 C 0.9293 0.09778 0.96355 0.0
N154 N 0.85797 0.02359 0.93362 0.0
C155 C 0.90856 0.02831 0.92113 0.0
C156 C 0.8688 0.05828 0.95476 0.0
C157 C 0.98018 0.10301 0.95054 0.0
C158 C 0.57318 0.82565 0.8881 0.0
N159 N 0.61754 0.84699 0.86983 0.0
C160 C 0.53141 0.76192 0.8909 0.0
C161 C 0.53545 0.71993 0.87492 0.0
C162 C 0.58104 0.74202 0.85642 0.0
C163 C 0.62201 0.80607 0.85416 0.0
C164 C 0.58463 0.89945 0.79814 0.0
C165 C 0.7065 0.96425 0.81525 0.0
C166 C 0.59798 0.90169 0.82337 0.0
N167 N 0.65847 0.93313 0.83162 0.0
C168 C 0.69504 0.9629 0.78988 0.0
C169 C 0.63362 0.9301 0.78131 0.0
C170 C 0.78923 0.0622 0.87461 0.0
C171 C 0.65633 0.01794 0.96101 0.0
C172 C 0.77033 0.08628 0.93739 0.0
C173 C 0.74373 0.11721 0.9495 0.0
C174 C 0.68644 0.08268 0.9615 0.0
N175 N 0.74217 0.02248 0.93808 0.0
C176 C 0.68465 0.9886 0.94887 0.0
Co177 Co 0.77475 0.66368 0.20849 0.0
Co178 Co 0.81273 0.77342 0.2557 0.0
O179 O 0.7819 0.68905 0.24326 0.0
C180 C 0.64242 0.59868 0.2248 0.0
O181 O 0.6568 0.65102 0.23588 0.0
C182 C 0.86597 0.76549 0.30798 0.0
O183 O 0.90233 0.74733 0.31827 0.0
O184 O 0.89178 0.80271 0.23425 0.0
O185 O 0.86203 0.73327 0.20249 0.0
H186 H 0.94812 0.00931 0.25408 0.0
H187 H 0.74869 0.57557 0.25005 0.0
O188 O 0.68548 0.59377 0.21372 0.0
H189 H 0.91727 0.5738 0.20161 0.0
H190 H 0.716 0.50338 0.14121 0.0
H191 H 0.80019 0.72574 0.15895 0.0
H192 H 0.87412 0.64044 0.18905 0.0
H193 H 0.72705 0.54035 0.18425 0.0
O194 O 0.85581 0.7562 0.28446 0.0
H195 H 0.91907 0.90321 0.2428 0.0
H196 H 0.77608 0.83401 0.29785 0.0
H197 H 0.79139 0.69152 0.11572 0.0
H198 H 0.78944 0.50722 0.26307 0.0
H199 H 0.74891 0.57927 0.10654 0.0
H200 H 0.87442 0.50609 0.23874 0.0
O201 O 0.74391 0.72092 0.19774 0.0
H202 H 0.63319 0.60586 0.30347 0.0
H203 H 0.70794 0.80358 0.2586 0.0
H204 H 0.60094 0.74899 0.27529 0.0
H205 H 0.56261 0.64927 0.29795 0.0
H206 H 0.74049 0.66251 0.28668 0.0
H207 H 0.80474 0.93905 0.30924 0.0
H208 H 0.89169 0.0287 0.28746 0.0
O209 O 0.77397 0.79229 0.22786 0.0
C210 C 0.90225 0.78362 0.21332 0.0
C211 C 0.91019 0.97042 0.26362 0.0
C212 C 0.82936 0.93132 0.29429 0.0
N213 N 0.84277 0.85915 0.26834 0.0
C214 C 0.8926 0.90912 0.2572 0.0
C215 C 0.81256 0.87076 0.2872 0.0
C216 C 0.87826 0.98148 0.28225 0.0
C217 C 0.78446 0.57405 0.23906 0.0
N218 N 0.80734 0.61012 0.21833 0.0
C219 C 0.80791 0.53585 0.24666 0.0
C220 C 0.85573 0.5354 0.23305 0.0
C221 C 0.87978 0.57336 0.21221 0.0
C222 C 0.85516 0.61095 0.20519 0.0
C223 C 0.73548 0.55254 0.14495 0.0
C224 C 0.78385 0.67757 0.15526 0.0
C225 C 0.74209 0.57385 0.16932 0.0
N226 N 0.7673 0.63597 0.17427 0.0
C227 C 0.77795 0.65807 0.13065 0.0
C228 C 0.7539 0.59511 0.12552 0.0
C229 C 0.75045 0.77143 0.20668 0.0
C230 C 0.64985 0.65016 0.29424 0.0
C231 C 0.69283 0.76133 0.26913 0.0
C232 C 0.63171 0.73033 0.27838 0.0
C233 C 0.61015 0.6743 0.291 0.0
N234 N 0.73294 0.73905 0.2734 0.0
C235 C 0.71115 0.68319 0.28518 0.0
Co236 Co 0.09744 0.75711 0.53946 0.0
Co237 Co 0.01349 0.80717 0.57439 0.0
O238 O 0.06073 0.76356 0.57058 0.0
C239 C 0.02742 0.62492 0.55631 0.0
O240 O 0.97701 0.6296 0.55789 0.0
C241 C 0.06391 0.80789 0.62534 0.0
O242 O 0.0917 0.77705 0.61845 0.0
O243 O 0.08526 0.88527 0.55856 0.0
O244 O 0.11607 0.84244 0.52902 0.0
H245 H 0.94473 0.96119 0.55197 0.0
H246 H 0.1432 0.73155 0.58625 0.0
O247 O 0.07917 0.67116 0.54932 0.0
H248 H 0.32849 0.90786 0.54763 0.0
H249 H 0.21407 0.68096 0.48656 0.0
H250 H 0.11499 0.81067 0.48794 0.0
H251 H 0.22579 0.86019 0.527 0.0
H252 H 0.16794 0.69294 0.52495 0.0
O253 O 0.04724 0.83439 0.60918 0.0
H254 H 0.98795 0.89266 0.54353 0.0
H255 H 0.94445 0.82193 0.61681 0.0
H256 H 0.16065 0.79989 0.44929 0.0
H257 H 0.24518 0.7775 0.60747 0.0
H258 H 0.21055 0.73437 0.44824 0.0
H259 H 0.33874 0.86645 0.58817 0.0
O260 O 0.01356 0.72087 0.52325 0.0
H261 H 0.9036 0.59654 0.61712 0.0
H262 H 0.87485 0.75113 0.57091 0.0
H263 H 0.7829 0.65754 0.5869 0.0
H264 H 0.7966 0.57912 0.61036 0.0
H265 H 0.99428 0.69189 0.60171 0.0
H266 H 0.90198 0.89046 0.62607 0.0
H267 H 0.9037 0.96233 0.59378 0.0
O268 O 0.97514 0.77771 0.54097 0.0
C269 C 0.11354 0.88864 0.53802 0.0
C270 C 0.94495 0.93096 0.5663 0.0
C271 C 0.92061 0.89114 0.60784 0.0
N272 N 0.96937 0.85324 0.57947 0.0
C273 C 0.9687 0.89139 0.56146 0.0
C274 C 0.94496 0.85243 0.60241 0.0
C275 C 0.92138 0.93124 0.5897 0.0
C276 C 0.18373 0.77005 0.5777 0.0
N277 N 0.17846 0.79319 0.55545 0.0
C278 C 0.24135 0.79595 0.58981 0.0
C279 C 0.29381 0.84587 0.57898 0.0
C280 C 0.2881 0.86912 0.55624 0.0
C281 C 0.22973 0.84199 0.54466 0.0
C282 C 0.19123 0.70854 0.48663 0.0
C283 C 0.13451 0.78044 0.48776 0.0
C284 C 0.16398 0.71484 0.50832 0.0
N285 N 0.13468 0.74936 0.50865 0.0
C286 C 0.16129 0.77523 0.46573 0.0
C287 C 0.18943 0.73865 0.46516 0.0
C288 C 0.97165 0.73662 0.52561 0.0
C289 C 0.89703 0.6315 0.60781 0.0
C290 C 0.88211 0.71942 0.58224 0.0
C291 C 0.82936 0.66561 0.59087 0.0
C292 C 0.83703 0.62153 0.60388 0.0
N293 N 0.94141 0.73114 0.58748 0.0
C294 C 0.94873 0.68663 0.59939 0.0
Co295 Co 0.31625 0.08724 0.87712 0.0
Co296 Co 0.18688 0.02758 0.91419 0.0
O297 O 0.27807 0.06257 0.91007 0.0
C298 C 0.37425 0.00887 0.89062 0.0
O299 O 0.3186 0.96011 0.89428 0.0
C300 C 0.24329 0.07869 0.96468 0.0
O301 O 0.29991 0.11436 0.95588 0.0
O302 O 0.19548 0.10792 0.90063 0.0
O303 O 0.2563 0.11664 0.86797 0.0
H304 H 0.97151 0.96809 0.88455 0.0
H305 H 0.39783 0.13527 0.92111 0.0
O306 O 0.3802 0.06157 0.8851 0.0
H307 H 0.42681 0.32189 0.87684 0.0
H308 H 0.49397 0.18259 0.81562 0.0
H309 H 0.26487 0.06905 0.82653 0.0
H310 H 0.35639 0.21691 0.86023 0.0
H311 H 0.44726 0.15458 0.85737 0.0
O312 O 0.19659 0.0548 0.95002 0.0
H313 H 0.08688 0.02726 0.8835 0.0
H314 H 0.09393 0.95961 0.95491 0.0
H315 H 0.30935 0.09663 0.78441 0.0
H316 H 0.46933 0.23953 0.93827 0.0
H317 H 0.42485 0.15375 0.77877 0.0
H318 H 0.48405 0.33373 0.91609 0.0
O319 O 0.25669 1.00118 0.86462 0.0
H320 H 0.26066 0.8948 0.95666 0.0
H321 H 0.09215 0.8921 0.9071 0.0
H322 H 0.08403 0.79308 0.91949 0.0
H323 H 0.16837 0.79374 0.94477 0.0
H324 H 0.26739 0.99249 0.94321 0.0
H325 H 0.97901 0.90572 0.95795 0.0
H326 H 0.91678 0.90687 0.92214 0.0
O327 O 0.17033 0.99447 0.8798 0.0
C328 C 0.21846 0.12993 0.87902 0.0
C329 C 0.99803 0.96622 0.90014 0.0
C330 C 1.00228 0.9315 0.94136 0.0
N331 N 0.09722 0.9943 0.91846 0.0
C332 C 0.06339 0.99921 0.89953 0.0
C333 C 0.06754 0.96307 0.93966 0.0
C334 C 0.96737 0.93196 0.92122 0.0
C335 C 0.40437 0.17612 0.9113 0.0
N336 N 0.37314 0.17002 0.88969 0.0
C337 C 0.44475 0.23499 0.92112 0.0
C338 C 0.45294 0.28782 0.90869 0.0
C339 C 0.42082 0.28122 0.88667 0.0
C340 C 0.38084 0.22161 0.8774 0.0
C341 C 0.4436 0.15791 0.81783 0.0
C342 C 0.315 0.09438 0.82419 0.0
C343 C 0.41686 0.14192 0.84143 0.0
N344 N 0.35326 0.11073 0.84436 0.0
C345 C 0.34 0.10968 0.80031 0.0
C346 C 0.40479 0.14168 0.79716 0.0
C347 C 0.19718 0.97308 0.86614 0.0
C348 C 0.22301 0.89377 0.94604 0.0
C349 C 0.12898 0.89324 0.91817 0.0
C350 C 0.1241 0.83675 0.92513 0.0
C351 C 0.1714 0.83714 0.93928 0.0
N352 N 0.17916 0.94888 0.92524 0.0
C353 C 0.22623 0.94927 0.93865 0.0
Co354 Co 0.66729 0.76449 0.47877 0.0
Co355 Co 0.77205 0.81168 0.42905 0.0
O356 O 0.68769 0.77494 0.44326 0.0
C357 C 0.60041 0.63262 0.46258 0.0
O358 O 0.65234 0.64312 0.45171 0.0
C359 C 0.75504 0.86302 0.37793 0.0
O360 O 0.73223 0.89611 0.36831 0.0
O361 O 0.79942 0.88869 0.45129 0.0
O362 O 0.73597 0.85114 0.4849 0.0
H363 H 0.0068 0.96046 0.42656 0.0
H364 H 0.56602 0.73247 0.44226 0.0
O365 O 0.59749 0.67651 0.47352 0.0
H366 H 0.57557 0.90352 0.49222 0.0
H367 H 0.5175 0.69759 0.55085 0.0
H368 H 0.73816 0.78875 0.52598 0.0
H369 H 0.64679 0.86302 0.50089 0.0
H370 H 0.54717 0.7126 0.50674 0.0
O371 O 0.74788 0.85228 0.4015 0.0
H372 H 0.9002 0.92559 0.4395 0.0
H373 H 0.83434 0.78046 0.3857 0.0
H374 H 0.71114 0.77591 0.57027 0.0
H375 H 0.49338 0.77103 0.43314 0.0
H376 H 0.59982 0.72984 0.58302 0.0
H377 H 0.49796 0.8572 0.45821 0.0
O378 O 0.72788 0.73474 0.48608 0.0
H379 H 0.60999 0.63225 0.37956 0.0
H380 H 0.80893 0.712 0.42445 0.0
H381 H 0.75876 0.60696 0.4068 0.0
H382 H 0.65855 0.56617 0.38398 0.0
H383 H 0.66038 0.7366 0.39859 0.0
H384 H 0.94045 0.81505 0.37295 0.0
H385 H 0.02878 0.90644 0.39316 0.0
O386 O 0.79767 0.77537 0.45526 0.0
C387 C 0.78284 0.89488 0.47347 0.0
C388 C 0.96857 0.92096 0.41763 0.0
C389 C 0.93172 0.8388 0.38791 0.0
N390 N 0.85768 0.8474 0.4148 0.0
C391 C 0.90677 0.8998 0.425 0.0
C392 C 0.87059 0.8184 0.39588 0.0
C393 C 0.98109 0.8902 0.39903 0.0
C394 C 0.56791 0.76964 0.45337 0.0
N395 N 0.61021 0.79515 0.47219 0.0
C396 C 0.52684 0.79144 0.44806 0.0
C397 C 0.52949 0.83985 0.46212 0.0
C398 C 0.57306 0.86588 0.48119 0.0
C399 C 0.6134 0.84291 0.48596 0.0
C400 C 0.56625 0.71846 0.54556 0.0
C401 C 0.69017 0.77055 0.53131 0.0
C402 C 0.58341 0.7273 0.52059 0.0
N403 N 0.64494 0.75404 0.51371 0.0
C404 C 0.67487 0.76252 0.55646 0.0
C405 C 0.61243 0.7365 0.56359 0.0
C406 C 0.77958 0.74733 0.4758 0.0
C407 C 0.65404 0.64979 0.3892 0.0
C408 C 0.76571 0.69557 0.41436 0.0
C409 C 0.73745 0.6356 0.40441 0.0
C410 C 0.68121 0.61265 0.39172 0.0
N411 N 0.74023 0.73321 0.41093 0.0
C412 C 0.68366 0.70958 0.39943 0.0
Co413 Co 0.8955 0.66599 0.80168 0.0
Co414 Co 0.99381 0.80867 0.77399 0.0
O415 O 0.94048 0.71839 0.77327 0.0
C416 C 0.97187 0.61321 0.78376 0.0
O417 O 0.01919 0.67032 0.7826 0.0
C418 C 0.94212 0.7776 0.72204 0.0
O419 O 0.9022 0.71986 0.72825 0.0
O420 O 0.92557 0.81772 0.79164 0.0
O421 O 0.87307 0.72962 0.81381 0.0
H422 H 0.18576 0.01501 0.79506 0.0
H423 H 0.8668 0.60907 0.7517 0.0
O424 O 0.91815 0.60265 0.79069 0.0
H425 H 0.66867 0.58873 0.78174 0.0
H426 H 0.75421 0.45841 0.84186 0.0
H427 H 0.88231 0.68452 0.855 0.0
H428 H 0.76304 0.63731 0.8078 0.0
H429 H 0.81005 0.52901 0.80703 0.0
O430 O 0.96521 0.81744 0.73942 0.0
H431 H 0.10628 0.90804 0.80458 0.0
H432 H 0.98496 0.91483 0.75106 0.0
H433 H 0.8279 0.61611 0.89063 0.0
H434 H 0.77337 0.55933 0.72507 0.0
H435 H 0.76293 0.50185 0.88408 0.0
H436 H 0.67335 0.54911 0.74001 0.0
O437 O 0.97272 0.7061 0.82282 0.0
H438 H 0.08004 0.71503 0.71265 0.0
H439 H 0.13444 0.85559 0.7834 0.0
H440 H 0.21677 0.84959 0.76169 0.0
H441 H 0.191 0.77973 0.72539 0.0
H442 H 0.99912 0.72234 0.73526 0.0
H443 H 0.06088 0.02412 0.74249 0.0
H444 H 0.16471 0.07395 0.76292 0.0
O445 O 0.02605 0.80248 0.80659 0.0
C446 C 0.88462 0.7847 0.80835 0.0
C447 C 0.14245 0.99283 0.78475 0.0
C448 C 0.07256 0.99789 0.75528 0.0
N449 N 0.04586 0.90033 0.77481 0.0
C450 C 0.09753 0.93101 0.78956 0.0
C451 C 0.02993 0.9352 0.76003 0.0
C452 C 0.13043 0.02601 0.76694 0.0
C453 C 0.82346 0.60456 0.75842 0.0
N454 N 0.82072 0.62677 0.78126 0.0
C455 C 0.7707 0.57646 0.74321 0.0
C456 C 0.71465 0.57083 0.75158 0.0
C457 C 0.71203 0.59316 0.77497 0.0
C458 C 0.76582 0.62112 0.78962 0.0
C459 C 0.78241 0.50807 0.84499 0.0
C460 C 0.85498 0.63515 0.85224 0.0
C461 C 0.81423 0.54834 0.82534 0.0
N462 N 0.84982 0.61118 0.82912 0.0
C463 C 0.82384 0.59648 0.87237 0.0
C464 C 0.78735 0.53245 0.86867 0.0
C465 C 0.01922 0.76158 0.82244 0.0
C466 C 0.09274 0.74881 0.7274 0.0
C467 C 0.12167 0.82938 0.76669 0.0
C468 C 0.16922 0.82415 0.75483 0.0
C469 C 0.15475 0.7846 0.73466 0.0
N470 N 0.06115 0.79857 0.75822 0.0
C471 C 0.0466 0.75523 0.73983 0.0
Co472 Co 0.25781 0.91289 0.14283 0.0
Co473 Co 0.21184 0.00876 0.11404 0.0
O474 O 0.24691 0.95364 0.11381 0.0
C475 C 0.39691 0.97506 0.13435 0.0
O476 O 0.40542 0.01955 0.14968 0.0
C477 C 0.19961 0.96725 0.06239 0.0
O478 O 0.24954 0.96348 0.06766 0.0
O479 O 0.13642 0.94407 0.13374 0.0
O480 O 0.17429 0.89452 0.15694 0.0
H481 H 0.21518 0.21029 0.12986 0.0
H482 H 0.27335 0.87451 0.09247 0.0
O483 O 0.34193 0.93055 0.12916 0.0
H484 H 0.09806 0.68661 0.13005 0.0
H485 H 0.31896 0.76818 0.18313 0.0
H486 H 0.24279 0.9147 0.1975 0.0
H487 H 0.15285 0.78471 0.15365 0.0
H488 H 0.30224 0.82194 0.14815 0.0
O489 O 0.17066 0.97563 0.08045 0.0
H490 H 0.26014 0.14174 0.12806 0.0
H491 H 0.08739 0.99228 0.10283 0.0
H492 H 0.25833 0.86208 0.23313 0.0
H493 H 0.22019 0.77727 0.06828 0.0
H494 H 0.29681 0.78796 0.22603 0.0
H495 H 0.13182 0.68242 0.08707 0.0
O496 O 0.29843 0.99315 0.16188 0.0
H497 H 0.44173 0.13142 0.09296 0.0
H498 H 0.23273 0.09896 0.07293 0.0
H499 H 0.32445 0.17691 0.04963 0.0
H500 H 0.43007 0.19381 0.05961 0.0
H501 H 0.34875 0.05375 0.11564 0.0
H502 H 0.04013 0.06003 0.10399 0.0
H503 H 0.10406 0.1696 0.11799 0.0
O504 O 0.25526 0.04609 0.14537 0.0
C505 C 0.13114 0.9071 0.15162 0.0
C506 C 0.18638 0.16248 0.1241 0.0
C507 C 0.08832 0.07805 0.10947 0.0
N508 N 0.17631 0.06305 0.11521 0.0
C509 C 0.21166 0.12327 0.12308 0.0
C510 C 0.11527 0.04011 0.10868 0.0
C511 C 0.12422 0.13963 0.11731 0.0
C512 C 0.23523 0.83334 0.10084 0.0
N513 N 0.21645 0.83523 0.12449 0.0
C514 C 0.20518 0.77845 0.08702 0.0
C515 C 0.15554 0.72527 0.09756 0.0
C516 C 0.13655 0.7276 0.12167 0.0
C517 C 0.16763 0.78334 0.13492 0.0
C518 C 0.30178 0.80002 0.18648 0.0
C519 C 0.25864 0.88228 0.19429 0.0
C520 C 0.29206 0.83055 0.16673 0.0
N521 N 0.2703 0.87086 0.17077 0.0
C522 C 0.26777 0.85268 0.21453 0.0
C523 C 0.28942 0.81119 0.21054 0.0
C524 C 0.29196 0.04102 0.16048 0.0
C525 C 0.39604 0.12484 0.08853 0.0
C526 C 0.27845 0.10622 0.07761 0.0
C527 C 0.33028 0.15039 0.06425 0.0
C528 C 0.38947 0.15977 0.06982 0.0
N529 N 0.28511 0.07211 0.09606 0.0
C530 C 0.34309 0.08095 0.10144 0.0
Co531 Co 0.34299 0.24464 0.47819 0.0
Co532 Co 0.23412 0.18975 0.42999 0.0
O533 O 0.32041 0.23462 0.44269 0.0
C534 C 0.39662 0.37665 0.46232 0.0
O535 O 0.34387 0.36089 0.45093 0.0
C536 C 0.26232 0.15197 0.377 0.0
O537 O 0.28717 0.12051 0.36753 0.0
O538 O 0.21784 0.11358 0.45078 0.0
O539 O 0.28279 0.15303 0.48356 0.0
H540 H 1.00276 0.04804 0.44191 0.0
H541 H 0.43441 0.2815 0.43708 0.0
O542 O 0.40426 0.33579 0.47347 0.0
H543 H 0.48283 0.153 0.49225 0.0
H544 H 0.4884 0.33259 0.55139 0.0
H545 H 0.27092 0.19294 0.52452 0.0
H546 H 0.39852 0.17473 0.50276 0.0
H547 H 0.46186 0.31824 0.50702 0.0
O548 O 0.26202 0.15618 0.40089 0.0
H549 H 0.11355 0.09014 0.4507 0.0
H550 H 0.16205 0.201 0.38587 0.0
H551 H 0.2957 0.20523 0.56905 0.0
H552 H 0.51927 0.26108 0.42587 0.0
H553 H 0.40512 0.27558 0.58277 0.0
H554 H 0.54387 0.19614 0.45348 0.0
O555 O 0.2761 0.26456 0.48731 0.0
H556 H 0.37118 0.37954 0.37895 0.0
H557 H 0.17461 0.27053 0.42641 0.0
H558 H 0.20443 0.37109 0.40693 0.0
H559 H 0.30294 0.42604 0.38256 0.0
H560 H 0.34002 0.2789 0.39922 0.0
H561 H 0.05194 0.15547 0.37519 0.0
H562 H 0.97045 0.07826 0.40333 0.0
O563 O 0.20492 0.21904 0.45744 0.0
C564 C 0.2383 0.10684 0.47198 0.0
C565 C 0.03772 0.07962 0.4289 0.0
C566 C 0.06526 0.13988 0.3916 0.0
N567 N 0.14664 0.1463 0.41833 0.0
C568 C 0.10134 0.1037 0.43374 0.0
C569 C 0.12844 0.16468 0.39756 0.0
C570 C 0.01959 0.09697 0.40742 0.0
C571 C 0.44395 0.25227 0.44902 0.0
N572 N 0.40957 0.2272 0.4701 0.0
C573 C 0.49248 0.24129 0.44264 0.0
C574 C 0.50633 0.20496 0.45816 0.0
C575 C 0.47205 0.18066 0.47988 0.0
C576 C 0.42387 0.19266 0.48563 0.0
C577 C 0.44059 0.30168 0.54564 0.0
C578 C 0.31881 0.22304 0.53028 0.0
C579 C 0.42519 0.29354 0.52052 0.0
N580 N 0.36494 0.25423 0.5131 0.0
C581 C 0.33249 0.23007 0.55556 0.0
C582 C 0.39385 0.26964 0.56324 0.0
C583 C 0.22334 0.24868 0.47754 0.0
C584 C 0.32731 0.35524 0.38893 0.0
C585 C 0.21728 0.2934 0.41563 0.0
C586 C 0.23394 0.35065 0.40468 0.0
C587 C 0.28919 0.3815 0.39107 0.0
N588 N 0.25334 0.2661 0.41236 0.0
C589 C 0.30895 0.2977 0.40005 0.0
Co590 Co 0.09848 0.3633 0.80456 0.0
Co591 Co 0.02489 0.21332 0.78505 0.0
O592 O 0.05451 0.30134 0.77818 0.0
C593 C 0.01575 0.4059 0.78336 0.0
O594 O 0.97003 0.34794 0.78296 0.0
C595 C 0.04278 0.22926 0.72923 0.0
O596 O 0.06179 0.28879 0.73135 0.0
O597 O 0.11276 0.23683 0.79388 0.0
O598 O 0.12966 0.31029 0.82118 0.0
H599 H 0.02457 0.04752 0.83857 0.0
H600 H 0.12421 0.40388 0.75233 0.0
O601 O 0.07048 0.41924 0.7899 0.0
H602 H 0.32884 0.4541 0.78709 0.0
H603 H 0.22872 0.58116 0.83781 0.0
H604 H 0.1018 0.35886 0.8594 0.0
H605 H 0.23421 0.40729 0.81329 0.0
H606 H 0.17964 0.50171 0.80517 0.0
O607 O 0.03546 0.19622 0.74862 0.0
H608 H 0.04054 0.15114 0.82925 0.0
H609 H 0.95808 0.08907 0.75837 0.0
H610 H 0.15004 0.43653 0.89271 0.0
H611 H 0.21773 0.45096 0.72542 0.0
H612 H 0.21431 0.54875 0.88197 0.0
H613 H 0.32097 0.4763 0.74279 0.0
O614 O 0.02013 0.32102 0.82465 0.0
H615 H 0.85213 0.23336 0.74358 0.0
H616 H 0.90171 0.12253 0.8072 0.0
H617 H 0.79274 0.09622 0.80114 0.0
H618 H 0.7668 0.15093 0.76894 0.0
H619 H 0.96057 0.25926 0.75045 0.0
H620 H 0.94261 0.98548 0.76677 0.0
H621 H 0.97797 0.96431 0.80691 0.0
O622 O 0.00912 0.22665 0.82004 0.0
C623 C 0.14019 0.26765 0.81349 0.0
C624 C 0.00974 0.05633 0.82091 0.0
C625 C 0.96398 0.02158 0.78065 0.0
N626 N 1.00084 0.12731 0.79306 0.0
C627 C 0.0182 0.11509 0.8155 0.0
C628 C 0.97288 0.08081 0.77593 0.0
C629 C 0.98346 0.00964 0.80316 0.0
C630 C 0.16898 0.41484 0.76 0.0
N631 N 0.17363 0.40252 0.7843 0.0
C632 C 0.22177 0.44148 0.74469 0.0
C633 C 0.27967 0.45564 0.75444 0.0
C634 C 0.2841 0.44314 0.77928 0.0
C635 C 0.23028 0.41637 0.79402 0.0
C636 C 0.2013 0.53238 0.84273 0.0
C637 C 0.13001 0.40735 0.85461 0.0
C638 C 0.17355 0.4871 0.82432 0.0
N639 N 0.13914 0.42532 0.83037 0.0
C640 C 0.15712 0.45125 0.87354 0.0
C641 C 0.19311 0.51418 0.8675 0.0
C642 C 0.99167 0.26287 0.82929 0.0
C643 C 0.86257 0.20809 0.75731 0.0
C644 C 0.8913 0.14574 0.79262 0.0
C645 C 0.82918 0.13081 0.78945 0.0
C646 C 0.81475 0.16192 0.77153 0.0
N647 N 0.93819 0.19042 0.77831 0.0
C648 C 0.92429 0.22224 0.76117 0.0
Co649 Co 0.76704 0.07907 0.13181 0.0
Co650 Co 0.82436 0.99492 0.10117 0.0
O651 O 0.77817 0.0405 0.10193 0.0
C652 C 0.63706 1.0011 0.11385 0.0
O653 O 0.6505 0.9574 0.10895 0.0
C654 C 0.84518 0.05735 0.05145 0.0
O655 O 0.82857 0.09657 0.05973 0.0
O656 O 0.89929 0.06689 0.11807 0.0
O657 O 0.85325 0.10332 0.14366 0.0
H658 H 0.98119 0.93922 0.13264 0.0
H659 H 0.73766 0.1159 0.08375 0.0
O660 O 0.67937 0.05424 0.12147 0.0
H661 H 0.91042 0.30923 0.11886 0.0
H662 H 0.68431 0.19807 0.17899 0.0
H663 H 0.81303 0.09788 0.18426 0.0
H664 H 0.86742 0.21004 0.14167 0.0
H665 H 0.70045 0.14923 0.14225 0.0
O666 O 0.85884 0.0274 0.067 0.0
H667 H 0.90546 0.97568 0.13666 0.0
H668 H 0.84698 0.92275 0.06235 0.0
H669 H 0.79825 0.14638 0.22132 0.0
H670 H 0.7786 0.21432 0.06046 0.0
H671 H 0.73323 0.19682 0.21896 0.0
H672 H 0.86583 0.31188 0.07798 0.0
O673 O 0.73247 0.99848 0.14994 0.0
H674 H 0.63407 0.88919 0.0459 0.0
H675 H 0.76291 0.85729 0.10708 0.0
H676 H 0.67325 0.76639 0.08806 0.0
H677 H 0.60795 0.78198 0.05717 0.0
H678 H 0.72582 0.97889 0.06435 0.0
H679 H 0.9198 0.88297 0.05794 0.0
H680 H 0.98885 0.89261 0.09283 0.0
O681 O 0.78768 0.95636 0.13404 0.0
C682 C 0.90052 0.09926 0.13685 0.0
C683 C 0.95086 0.93412 0.11729 0.0
C684 C 0.91671 0.90293 0.07534 0.0
N685 N 0.87174 0.95164 0.09985 0.0
C686 C 0.90786 0.9548 0.11951 0.0
C687 C 0.87535 0.92539 0.07804 0.0
C688 C 0.95525 0.90812 0.09502 0.0
C689 C 0.77521 0.15827 0.09158 0.0
N690 N 0.8002 0.15716 0.11398 0.0
C691 C 0.79838 0.21381 0.07827 0.0
C692 C 0.84738 0.2685 0.08809 0.0
C693 C 0.87248 0.26703 0.11101 0.0
C694 C 0.84811 0.21063 0.12379 0.0
C695 C 0.71198 0.17542 0.18036 0.0
C696 C 0.78371 0.1185 0.18299 0.0
C697 C 0.72078 0.14696 0.15963 0.0
N698 N 0.75554 0.11803 0.16115 0.0
C699 C 0.77593 0.14647 0.2041 0.0
C700 C 0.73955 0.17485 0.20276 0.0
C701 C 0.74641 0.95543 0.14875 0.0
C702 C 0.66342 0.88191 0.05868 0.0
C703 C 0.7362 0.8648 0.09305 0.0
C704 C 0.68502 0.81294 0.08249 0.0
C705 C 0.6484 0.8217 0.0652 0.0
N706 N 0.75212 0.92395 0.08596 0.0
C707 C 0.71589 0.93269 0.06915 0.0
C708 C 0.95224 0.10159 0.17742 0.0
C709 C 0.95632 0.12912 0.15392 0.0
C710 C 0.04635 0.22568 0.16961 0.0
C711 C 0.04696 0.19609 0.19224 0.0
N712 N 0.97819 0.11139 0.22007 0.0
N713 N 0.01202 0.21672 0.12681 0.0
C714 C 0.99438 0.13586 0.19687 0.0
C715 C 0.00525 0.19084 0.14973 0.0
N716 N 0.90649 0.0418 0.18177 0.0
N717 N 0.07797 0.28892 0.16874 0.0
H718 H 0.98193 0.19272 0.11218 0.0
H719 H 0.05047 0.25936 0.12182 0.0
H720 H 0.09328 0.3138 0.18517 0.0
H721 H 0.07777 0.31499 0.15366 0.0
H722 H 0.90349 0.01967 0.19852 0.0
H723 H 0.87388 0.01429 0.16846 0.0
H724 H 0.99853 0.13537 0.23638 0.0
H725 H 0.99853 0.13537 0.23638 0.0
C726 C 0.83695 0.05828 0.49887 0.0
C727 C 0.85297 0.0533 0.52405 0.0
C728 C 0.83126 0.94702 0.51408 0.0
C729 C 0.81935 0.95376 0.48876 0.0
N730 N 0.82459 0.02243 0.45625 0.0
N731 N 0.83364 0.97962 0.55657 0.0
C732 C 0.8272 0.01166 0.48089 0.0
C733 C 0.84181 0.99396 0.53194 0.0
N734 N 0.82131 0.10209 0.49272 0.0
N735 N 0.8341 0.89556 0.52093 0.0
H736 H 0.83287 0.00968 0.56987 0.0
H737 H 0.81751 0.93484 0.56336 0.0
H738 H 0.83169 0.86307 0.50811 0.0
H739 H 0.84245 0.88651 0.53886 0.0
H740 H 0.80585 0.1059 0.47523 0.0
H741 H 0.81136 0.12613 0.50596 0.0
H742 H 0.83784 0.0664 0.44914 0.0
H743 H 0.81572 0.98933 0.44264 0.0
C744 C 0.82299 0.83285 0.86578 0.0
C745 C 0.82095 0.88588 0.85708 0.0
C746 C 0.84943 0.86603 0.81513 0.0
C747 C 0.85302 0.81377 0.82386 0.0
N748 N 0.80601 0.73184 0.85467 0.0
N749 N 0.83994 0.95633 0.82298 0.0
C750 C 0.83045 0.793 0.84855 0.0
C751 C 0.83665 0.90316 0.8317 0.0
N752 N 0.81581 0.81842 0.89041 0.0
N753 N 0.85255 0.87909 0.79052 0.0
H754 H 0.83843 0.98892 0.83462 0.0
H755 H 0.84748 0.96928 0.80436 0.0
H756 H 0.85438 0.85104 0.77653 0.0
H757 H 0.85438 0.85104 0.77653 0.0
H758 H 0.82514 0.78519 0.89793 0.0
H759 H 0.80671 0.84306 0.90375 0.0
H760 H 0.78563 0.71318 0.87177 0.0
H761 H 0.79359 0.69756 0.84136 0.0
C762 C 0.95886 0.83142 0.17306 0.0
C763 C 0.96249 0.82259 0.19895 0.0
C764 C 0.07724 0.8778 0.19438 0.0
C765 C 0.07269 0.87816 0.16794 0.0
N766 N 1.00414 0.83597 0.13279 0.0
N767 N 0.02733 0.82822 0.23326 0.0
C768 C 0.01199 0.84948 0.15745 0.0
C769 C 0.02237 0.84324 0.20938 0.0
N770 N 0.90488 0.82471 0.16339 0.0
N771 N 0.1338 0.91293 0.20539 0.0
H772 H 0.98864 0.80298 0.24473 0.0
H773 H 0.0694 0.83618 0.24095 0.0
H774 H 0.17291 0.94361 0.19518 0.0
H775 H 0.13972 0.91843 0.2245 0.0
H776 H 0.89895 0.83037 0.1447 0.0
H777 H 0.86804 0.81918 0.17462 0.0
H778 H 0.96008 0.80845 0.12491 0.0
H779 H 0.04137 0.84608 0.12088 0.0
C780 C 0.24065 0.03403 0.50509 0.0
C781 C 0.20718 0.04414 0.48586 0.0
C782 C 0.11136 0.95135 0.50114 0.0
C783 C 0.14354 0.947 0.52225 0.0
N784 N 0.23946 0.9891 0.54522 0.0
N785 N 0.11797 0.98818 0.45918 0.0
C786 C 0.20835 0.99009 0.52451 0.0
C787 C 0.14406 0.99667 0.48212 0.0
N788 N 0.30364 0.05942 0.50252 0.0
N789 N 0.04866 0.912 0.49907 0.0
H790 H 0.14354 0.0121 0.4436 0.0
H791 H 0.07461 0.95016 0.45468 0.0
H792 H 0.02422 0.87317 0.51035 0.0
H793 H 0.02113 0.92127 0.4872 0.0
H794 H 0.33132 0.05078 0.51458 0.0
H795 H 0.32546 0.08004 0.48582 0.0
H796 H 0.28548 0.02318 0.54904 0.0
H797 H 0.21729 0.9573 0.55959 0.0
C798 C 0.20306 0.22438 0.87233 0.0
C799 C 0.19734 0.16747 0.86384 0.0
C800 C 0.18146 0.19454 0.82162 0.0
C801 C 0.17343 0.24364 0.83033 0.0
N802 N 0.19166 0.31451 0.8643 0.0
N803 N 0.16596 0.09358 0.83034 0.0
C804 C 0.18816 0.2611 0.85589 0.0
C805 C 0.18222 0.15145 0.83854 0.0
N806 N 0.22675 0.24559 0.89541 0.0
N807 N 0.19293 0.19092 0.79712 0.0
H808 H 0.16725 0.06009 0.8414 0.0
H809 H 0.14408 0.07785 0.81332 0.0
H810 H 0.20057 0.22593 0.7845 0.0
H811 H 0.2046 0.15858 0.79044 0.0
H812 H 0.23848 0.28951 0.90203 0.0
H813 H 0.23877 0.22065 0.90756 0.0
H814 H 0.18925 0.32368 0.88296 0.0
H815 H 0.20126 0.35138 0.85251 0.0
C816 C 0.52597 0.55991 0.22077 0.0
C817 C 0.57552 0.54675 0.2242 0.0
C818 C 0.49836 0.4346 0.22215 0.0
C819 C 0.44929 0.44836 0.21975 0.0
N820 N 0.41593 0.52391 0.22619 0.0
N821 N 0.6042 0.47032 0.23594 0.0
C822 C 0.46281 0.51079 0.22229 0.0
C823 C 0.56043 0.48364 0.22711 0.0
N824 N 0.53826 0.61829 0.21431 0.0
N825 N 0.48564 0.37447 0.21992 0.0
H826 H 0.64839 0.50471 0.24158 0.0
H827 H 0.59436 0.42551 0.24051 0.0
H828 H 0.44014 0.33667 0.21874 0.0
H829 H 0.52037 0.3625 0.2182 0.0
H830 H 0.50342 0.62786 0.2089 0.0
H831 H 0.58295 0.65582 0.21147 0.0
H832 H 0.42446 0.56851 0.23041 0.0
H833 H 0.36931 0.48983 0.22845 0.0
C834 C 0.0294 0.54106 0.58181 0.0
C835 C 0.02189 0.56282 0.55846 0.0
C836 C 0.00729 0.46764 0.53848 0.0
C837 C 0.01019 0.44376 0.56206 0.0
N838 N 0.01872 0.45391 0.60639 0.0
N839 N 0.99665 0.54529 0.51504 0.0
C840 C 0.02009 0.47956 0.58382 0.0
C841 C 0.00897 0.52569 0.53691 0.0
N842 N 0.04632 0.57967 0.60191 0.0
N843 N 0.00479 0.43553 0.51749 0.0
H844 H 0.99937 0.58839 0.51292 0.0
H845 H 0.97942 0.51732 0.49938 0.0
H846 H 1.00275 0.39253 0.5178 0.0
H847 H 0.00969 0.4534 0.49967 0.0
H848 H 0.05872 0.56954 0.61895 0.0
H849 H 0.05161 0.62411 0.60114 0.0
H850 H 0.01911 0.47452 0.62321 0.0
H851 H 0.01351 0.40968 0.60833 0.0
C852 C 0.46431 0.01242 0.86711 0.0
C853 C 0.43089 0.00169 0.88976 0.0
C854 C 0.5053 0.97707 0.9099 0.0
C855 C 0.54274 0.99519 0.8881 0.0
N856 N 0.56226 0.03821 0.84685 0.0
N857 N 0.42351 0.981 0.9336 0.0
C858 C 0.52338 0.01504 0.86693 0.0
C859 C 0.4524 0.98583 0.91142 0.0
N860 N 0.43825 0.01731 0.84552 0.0
N861 N 0.51865 0.94883 0.92873 0.0
H862 H 0.3845 0.98659 0.93537 0.0
H863 H 0.44109 0.97634 0.95048 0.0
H864 H 0.55564 0.93989 0.92785 0.0
H865 H 0.4898 0.92901 0.9441 0.0
H866 H 0.45724 0.01892 0.82811 0.0
H867 H 0.39421 0.01345 0.84475 0.0
H868 H 0.55395 0.05986 0.832 0.0
H869 H 0.6057 0.04071 0.84593 0.0
C870 C 0.52442 0.53521 0.48566 0.0
C871 C 0.5455 0.56857 0.46301 0.0
C872 C 0.47349 0.47462 0.44012 0.0
C873 C 0.44779 0.44276 0.46268 0.0
N874 N 0.44069 0.44675 0.50719 0.0
N875 N 0.5264 0.57478 0.41972 0.0
C876 C 0.47094 0.47418 0.48559 0.0
C877 C 0.51599 0.53968 0.44051 0.0
N878 N 0.5565 0.56083 0.50708 0.0
N879 N 0.46028 0.44234 0.41841 0.0
H880 H 0.55392 0.62325 0.41998 0.0
H881 H 0.50196 0.5566 0.40327 0.0
H882 H 0.43338 0.3939 0.41779 0.0
H883 H 0.48208 0.46287 0.4017 0.0
H884 H 0.54737 0.536 0.52359 0.0
H885 H 0.59566 0.60539 0.50793 0.0
H886 H 0.45178 0.46989 0.52413 0.0
H887 H 0.40062 0.40278 0.50786 0.0
C888 C 0.97623 0.52767 0.76065 0.0
C889 C 0.98377 0.56065 0.78304 0.0
C890 C 1.00381 0.48708 0.80569 0.0
C891 C 1.00131 0.4569 0.78303 0.0
N892 N 0.99062 0.45005 0.73868 0.0
N893 N 0.0131 0.57817 0.82615 0.0
C894 C 0.98869 0.4774 0.76039 0.0
C895 C 1.00005 0.54223 0.80535 0.0
N896 N 0.9565 0.5441 0.73982 0.0
N897 N 0.00725 0.46154 0.82768 0.0
H898 H 0.00883 0.61788 0.82698 0.0
H899 H 0.03287 0.57159 0.84205 0.0
H900 H 0.00933 0.42069 0.82884 0.0
H901 H 1.00226 0.47738 0.84492 0.0
H902 H 0.94369 0.51823 0.72354 0.0
H903 H 0.94966 0.58233 0.73923 0.0
H904 H 0.98826 0.46665 0.72125 0.0
H905 H 0.99828 0.41233 0.73803 0.0
C906 C 0.4819 0.95254 0.14498 0.0
C907 C 0.45258 0.97112 0.12701 0.0
C908 C 0.54185 0.00347 0.09886 0.0
C909 C 0.57089 0.98459 0.11683 0.0
N910 N 0.56381 0.92925 0.1546 0.0
N911 N 0.44767 0.00356 0.0855 0.0
C912 C 0.53914 0.95495 0.13906 0.0
C913 C 0.48028 0.9929 0.10341 0.0
N914 N 0.45645 0.93529 0.16817 0.0
N915 N 0.57395 0.03292 0.07782 0.0
H916 H 0.40286 0.9967 0.08851 0.0
H917 H 0.46266 0.01471 0.06723 0.0
H918 H 0.61782 0.03869 0.07354 0.0
H919 H 0.55873 0.05405 0.06514 0.0
H920 H 0.47943 0.92906 0.18308 0.0
H921 H 0.41369 0.93113 0.17313 0.0
H922 H 0.5395 0.90067 0.16952 0.0
H923 H 0.60684 0.9321 0.15156 0.0
C924 C 0.35091 0.15244 0.16884 0.0
C925 C 0.32066 0.0914 0.17894 0.0
C926 C 0.243 0.10706 0.19715 0.0
C927 C 0.27057 0.16933 0.18864 0.0
N928 N 0.35279 0.2509 0.16382 0.0
N929 N 0.26853 0.03379 0.21514 0.0
C930 C 0.32666 0.19318 0.17422 0.0
C931 C 0.28004 0.07938 0.19857 0.0
N932 N 0.39783 0.16761 0.15213 0.0
N933 N 0.17997 0.07109 0.19945 0.0
H934 H 0.29582 0.01245 0.21529 0.0
H935 H 0.23592 0.02233 0.2294 0.0
H936 H 0.15044 0.0846 0.19119 0.0
H937 H 0.1586 0.02558 0.206 0.0
H938 H 0.41885 0.20846 0.14175 0.0
H939 H 0.4146 0.1371 0.14867 0.0
H940 H 0.3971 0.27339 0.15577 0.0
H941 H 0.3283 0.27473 0.16202 0.0
C942 C 0.06321 0.21562 0.49041 0.0
C943 C 0.07106 0.26895 0.50279 0.0
C944 C 0.18477 0.31686 0.49706 0.0
C945 C 0.17535 0.25735 0.49033 0.0
N946 N 0.10366 0.14647 0.48822 0.0
N947 N 0.13943 0.37379 0.51651 0.0
C948 C 0.11389 0.20574 0.48937 0.0
C949 C 0.13206 0.32136 0.50526 0.0
N950 N 0.00563 0.16905 0.48352 0.0
N951 N 0.24277 0.36845 0.4953 0.0
H952 H 0.10113 0.3791 0.52074 0.0
H953 H 0.18272 0.41068 0.52189 0.0
H954 H 0.28233 0.36619 0.49027 0.0
H955 H 0.25091 0.41359 0.49767 0.0
H956 H 0.96544 0.17279 0.48485 0.0
H957 H 0.96544 0.17279 0.48485 0.0
H958 H 0.05871 0.10772 0.48701 0.0
H959 H 0.13986 0.13661 0.49042 0.0
C960 C 0.95182 0.19523 0.86462 0.0
C961 C 0.94344 0.23509 0.84878 0.0
C962 C 0.82955 0.16881 0.85408 0.0
C963 C 0.83978 0.12154 0.86398 0.0
N964 N 0.91547 0.08721 0.86988 0.0
N965 N 0.87378 0.26388 0.82956 0.0
C966 C 0.90238 0.13416 0.86709 0.0
C967 C 0.88195 0.22378 0.84417 0.0
N968 N 0.00938 0.213 0.87427 0.0
N969 N 0.77121 0.1621 0.85449 0.0
H970 H 0.91148 0.30636 0.82392 0.0
H971 H 0.83031 0.25428 0.82281 0.0
H972 H 0.73247 0.12309 0.86198 0.0
H973 H 0.76247 0.19744 0.84922 0.0
H974 H 0.01695 0.18536 0.88677 0.0
H975 H 0.04738 0.25753 0.8713 0.0
H976 H 0.96104 0.09477 0.87005 0.0
H977 H 0.88119 0.04051 0.86895 0.0
C978 C 0.75448 0.91904 0.18939 0.0
C979 C 0.72067 0.90521 0.16746 0.0
C980 C 0.68978 0.79506 0.17349 0.0
C981 C 0.73873 0.81449 0.1913 0.0
N982 N 0.8344 0.90538 0.20581 0.0
N983 N 0.64801 0.82786 0.13946 0.0
C984 C 0.7754 0.87908 0.1967 0.0
C985 C 0.68515 0.8421 0.15982 0.0
N986 N 0.77258 0.97323 0.2016 0.0
N987 N 0.6483 0.73343 0.16964 0.0
H988 H 0.64222 0.86167 0.13032 0.0
H989 H 0.62497 0.78386 0.13138 0.0
H990 H 0.65072 0.69781 0.17875 0.0
H991 H 0.60872 0.71759 0.15857 0.0
H992 H 0.79989 0.985 0.21761 0.0
H993 H 0.75302 1.00067 0.19716 0.0
H994 H 0.85948 0.88191 0.20693 0.0
H995 H 0.85948 0.88191 0.20693 0.0
C996 C 0.80888 0.68081 0.50299 0.0
C997 C 0.82583 0.73472 0.48828 0.0
C998 C 0.93294 0.75514 0.48741 0.0
C999 C 0.92065 0.71491 0.50732 0.0
N1000 N 0.84502 0.63382 0.53354 0.0
N1001 N 0.9142 0.83431 0.47443 0.0
C1002 C 0.85768 0.67547 0.5149 0.0
C1003 C 0.89037 0.77479 0.48252 0.0
N1004 N 0.74793 0.63449 0.50498 0.0
N1005 N 0.9882 0.77993 0.47502 0.0
H1006 H 0.88937 0.85809 0.47437 0.0
H1007 H 0.88937 0.85809 0.47437 0.0
H1008 H 0.01727 0.7612 0.47733 0.0
H1009 H 0.99966 0.81245 0.46078 0.0
H1010 H 0.73441 0.59253 0.51403 0.0
H1011 H 0.71155 0.63505 0.49549 0.0
H1012 H 0.80087 0.60763 0.54155 0.0
H1013 H 0.88011 0.62773 0.54143 0.0
C1014 C 0.17496 0.87012 0.84408 0.0
C1015 C 0.15498 0.91138 0.85375 0.0
C1016 C 0.05083 0.82215 0.85885 0.0
C1017 C 0.06432 0.78617 0.84304 0.0
N1018 N 0.1419 0.77215 0.82224 0.0
N1019 N 0.06088 0.92065 0.85546 0.0
C1020 C 0.12793 0.8084 0.83683 0.0
C1021 C 0.08938 0.88616 0.8571 0.0
N1022 N 0.23676 0.88884 0.84091 0.0
N1023 N 0.99516 0.79712 0.87092 0.0
H1024 H 0.08383 0.96671 0.84943 0.0
H1025 H 0.08383 0.96671 0.84943 0.0
H1026 H 0.96781 0.74904 0.87292 0.0
H1027 H 0.98184 0.82463 0.88098 0.0
H1028 H 0.25241 0.85765 0.83724 0.0
H1029 H 0.27264 0.93485 0.84167 0.0
H1030 H 0.1856 0.78771 0.81413 0.0
H1031 H 0.10765 0.72676 0.81763 0.0
C1032 C 0.17631 0.14463 0.34901 0.0
C1033 C 0.23778 0.18042 0.35886 0.0
C1034 C 0.25573 0.26811 0.33209 0.0
C1035 C 0.19469 0.23261 0.32175 0.0
N1036 N 0.09118 0.14387 0.32607 0.0
N1037 N 0.34268 0.26373 0.35044 0.0
C1038 C 0.15342 0.17252 0.33181 0.0
C1039 C 0.27951 0.23838 0.34759 0.0
N1040 N 0.14011 0.0836 0.35584 0.0
N1041 N 0.29042 0.33094 0.32836 0.0
H1042 H 0.36244 0.24324 0.36128 0.0
H1043 H 0.3754 0.30214 0.34031 0.0
H1044 H 0.27134 0.35717 0.32173 0.0
H1045 H 0.33491 0.35868 0.33577 0.0
H1046 H 0.09798 0.0527 0.34732 0.0
H1047 H 0.15418 0.06266 0.36915 0.0
H1048 H 0.05722 0.10222 0.33397 0.0
H1049 H 0.07242 0.1655 0.31532 0.0
C1050 C 0.05903 0.21008 0.65986 0.0
C1051 C 0.99494 0.17882 0.6524 0.0
C1052 C 0.96377 0.16144 0.69645 0.0
C1053 C 0.02727 0.20131 0.70367 0.0
N1054 N 0.13591 0.26167 0.69252 0.0
N1055 N 0.88603 0.1223 0.66352 0.0
C1056 C 0.07502 0.2242 0.68541 0.0
C1057 C 0.94736 0.15305 0.67076 0.0
N1058 N 0.10496 0.2268 0.64254 0.0
N1059 N 0.91886 0.13177 0.71412 0.0
H1060 H 0.87261 0.11114 0.64506 0.0
H1061 H 0.84843 0.10983 0.67546 0.0
H1062 H 0.9286 0.13796 0.73287 0.0
H1063 H 0.87304 0.0973 0.71041 0.0
H1064 H 0.15185 0.24334 0.64666 0.0
H1065 H 0.09551 0.21952 0.62384 0.0
H1066 H 0.17256 0.28779 0.68032 0.0
H1067 H 0.14966 0.2687 0.71106 0.0
C1068 C 0.86483 0.00623 0.01445 0.0
C1069 C 0.82971 0.03155 0.02546 0.0
C1070 C 0.7409 0.96422 0.99891 0.0
C1071 C 0.77728 0.94407 0.98586 0.0
N1072 N 0.87474 0.94491 0.9812 0.0
N1073 N 0.74297 0.05057 0.02001 0.0
C1074 C 0.83947 0.96424 0.99387 0.0
C1075 C 0.77077 0.01606 0.01502 0.0
N1076 N 0.92275 0.02309 0.02361 0.0
N1077 N 0.67716 0.93165 0.99723 0.0
H1078 H 0.76616 0.09392 0.02853 0.0
H1079 H 0.70054 0.04094 0.01212 0.0
H1080 H 0.65299 0.89109 0.98674 0.0
H1081 H 0.64842 0.94223 1.00787 0.0
H1082 H 0.94807 1.00135 0.01891 0.0
H1083 H 0.94536 0.05908 0.03643 0.0
H1084 H 0.92219 0.96202 0.98427 0.0
H1085 H 0.85726 0.91429 0.96624 0.0
C1086 C 0.77884 0.75363 0.33585 0.0
C1087 C 0.83794 0.79282 0.32494 0.0
C1088 C 0.848 0.87825 0.35189 0.0
C1089 C 0.78521 0.83927 0.36026 0.0
N1090 N 0.68494 0.75153 0.34931 0.0
N1091 N 0.93041 0.89432 0.32254 0.0
C1092 C 0.74864 0.7805 0.34894 0.0
C1093 C 0.8734 0.85586 0.33312 0.0
N1094 N 0.7529 0.69054 0.33526 0.0
N1095 N 0.88357 0.93563 0.36239 0.0
H1096 H 0.9497 0.87899 0.30896 0.0
H1097 H 0.95656 0.94201 0.32581 0.0
H1098 H 0.86603 0.95288 0.37593 0.0
H1099 H 0.9312 0.96436 0.35904 0.0
H1100 H 0.71028 0.66059 0.34377 0.0
H1101 H 0.77594 0.66878 0.32768 0.0
H1102 H 0.65701 0.70974 0.34003 0.0
H1103 H 0.66071 0.77156 0.35735 0.0
C1104 C 0.05458 0.85588 0.66554 0.0
C1105 C 0.03995 0.80239 0.65129 0.0
C1106 C 0.95194 0.74188 0.67905 0.0
C1107 C 0.97384 0.79108 0.69665 0.0
N1108 N 0.06595 0.89153 0.70739 0.0
N1109 N 0.98939 0.6896 0.65282 0.0
C1110 C 0.03045 0.84791 0.69018 0.0
C1111 C 0.99349 0.74373 0.66058 0.0
N1112 N 0.09439 0.91398 0.65646 0.0
N1113 N 0.89135 0.69433 0.67897 0.0
H1114 H 0.02297 0.68836 0.64155 0.0
H1115 H 0.95705 0.64665 0.6605 0.0
H1116 H 0.85635 0.69555 0.68938 0.0
H1117 H 0.87477 0.6592 0.66561 0.0
H1118 H 0.10142 0.95431 0.66538 0.0
H1119 H 0.11712 0.9215 0.63943 0.0
H1120 H 0.10794 0.93171 0.70302 0.0
H1121 H 0.06195 0.88263 0.72616 0.0
C1122 C 0.1661 0.01923 0.0287 0.0
C1123 C 0.1935 0.98275 0.03571 0.0
C1124 C 0.25909 0.0172 0.99845 0.0
C1125 C 0.23234 0.05368 0.99077 0.0
N1126 N 0.15458 0.08395 0.99748 0.0
N1127 N 0.23841 0.92329 0.0198 0.0
C1128 C 0.18384 0.05283 1.0056 0.0
C1129 C 0.23094 0.97411 0.01809 0.0
N1130 N 0.12236 0.0208 0.04369 0.0
N1131 N 0.31222 0.0238 0.98769 0.0
H1132 H 0.21456 0.88858 0.03307 0.0
H1133 H 0.26136 0.91206 1.00627 0.0
H1134 H 0.33754 0.05638 0.97406 0.0
H1135 H 0.33513 1.00108 0.9944 0.0
H1136 H 0.09851 0.98718 0.05724 0.0
H1137 H 0.10796 0.05356 0.04214 0.0
H1138 H 0.11431 0.07982 1.00552 0.0
H1139 H 0.16993 0.11319 0.98204 0.0
loop_
_geom_bond_atom_site_label_1
_geom_bond_atom_site_label_2
_geom_bond_distance
_geom_bond_site_symmetry_2
_ccdc_geom_bond_type
Co0 O2 2.143 . S
Co0 O8 2.074 . S
Co0 O11 2.093 . S
Co0 O24 2.097 . S
Co0 N41 2.151 . S
Co0 N49 2.214 . S
Co1 O2 2.160 . S
Co1 O7 2.058 . S
Co1 O17 2.057 . S
Co1 O32 2.037 . S
Co1 N36 2.145 . S
Co1 N57 2.257 . S
O2 Co0 2.143 . S
O2 Co1 2.160 . S
C3 O4 1.278 . S
C3 O11 1.224 . S
O4 C3 1.278 . S
C5 O6 1.245 . S
C5 O17 1.232 . S
O6 C5 1.245 . S
O7 Co1 2.058 . S
O7 C33 1.269 . S
O8 Co0 2.074 . S
O8 C33 1.257 . S
H9 C34 0.930 . S
H10 C40 0.930 . S
O11 Co0 2.093 . S
O11 C3 1.224 . S
H12 C44 0.929 . S
H13 C46 0.930 . S
H14 C47 0.930 . S
H15 C45 0.929 . S
H16 C48 0.928 . S
O17 Co1 2.057 . S
O17 C5 1.232 . S
H18 C37 0.929 . S
H19 C38 0.929 . S
H20 C50 0.931 . S
H21 C42 0.929 . S
H22 C51 0.930 . S
H23 C43 0.931 . S
O24 Co0 2.097 . S
O24 C52 1.214 . S
H25 C53 0.929 . S
H26 C54 0.929 . S
H27 C55 0.930 . S
H28 C56 0.929 . S
H29 C58 0.930 . S
H30 C35 0.930 1_565 S
H31 C39 0.930 . S
O32 Co1 2.037 . S
O32 C52 1.234 . S
C33 O7 1.269 . S
C33 O8 1.257 . S
C34 H9 0.930 . S
C34 C37 1.388 1_565 S
C34 C39 1.418 . S
C35 H30 0.930 1_545 S
C35 C38 1.404 . S
C35 C39 1.353 1_545 S
N36 Co1 2.145 . S
N36 C37 1.397 . S
N36 C38 1.334 . S
C37 H18 0.929 . S
C37 C34 1.388 1_545 S
C37 N36 1.397 . S
C38 H19 0.929 . S
C38 C35 1.404 . S
C38 N36 1.334 . S
C39 H31 0.930 . S
C39 C34 1.418 . S
C39 C35 1.353 1_565 S
C40 H10 0.930 . S
C40 N41 1.330 . S
C40 C42 1.446 . S
N41 Co0 2.151 . S
N41 C40 1.330 . S
N41 C45 1.418 . S
C42 H21 0.929 . S
C42 C40 1.446 . S
C42 C43 1.332 . S
C43 H23 0.931 . S
C43 C42 1.332 . S
C43 C44 1.267 . S
C44 H12 0.929 . S
C44 C43 1.267 . S
C44 C45 1.251 . S
C45 H15 0.929 . S
C45 N41 1.418 . S
C45 C44 1.251 . S
C46 H13 0.930 . S
C46 C48 1.406 . S
C46 C51 1.261 . S
C47 H14 0.930 . S
C47 N49 1.325 . S
C47 C50 1.357 . S
C48 H16 0.928 . S
C48 C46 1.406 . S
C48 N49 1.261 . S
N49 Co0 2.214 . S
N49 C47 1.325 . S
N49 C48 1.261 . S
C50 H20 0.931 . S
C50 C47 1.357 . S
C50 C51 1.312 . S
C51 H22 0.930 . S
C51 C46 1.261 . S
C51 C50 1.312 . S
C52 O24 1.214 . S
C52 O32 1.234 . S
C53 H25 0.929 . S
C53 C56 1.391 . S
C53 C58 1.391 . S
C54 H26 0.929 . S
C54 C55 1.390 . S
C54 N57 1.391 . S
C55 H27 0.930 . S
C55 C54 1.390 . S
C55 C56 1.392 . S
C56 H28 0.929 . S
C56 C53 1.391 . S
C56 C55 1.392 . S
N57 Co1 2.257 . S
N57 C54 1.391 . S
N57 C58 1.388 . S
C58 H29 0.930 . S
C58 C53 1.391 . S
C58 N57 1.388 . S
Co59 O61 2.143 . S
Co59 O67 2.074 . S
Co59 O70 2.093 . S
Co59 O83 2.097 1_655 S
Co59 N100 2.151 . S
Co59 N108 2.214 . S
Co60 O61 2.160 1_455 S
Co60 O66 2.058 1_455 S
Co60 O76 2.057 1_455 S
Co60 O91 2.037 . S
Co60 N95 2.145 . S
Co60 N116 2.257 . S
O61 Co59 2.143 . S
O61 Co60 2.160 1_655 S
C62 O63 1.278 1_655 S
C62 O70 1.224 . S
O63 C62 1.278 1_455 S
C64 O65 1.245 . S
C64 O76 1.232 . S
O65 C64 1.245 . S
O66 Co60 2.058 1_655 S
O66 C92 1.269 . S
O67 Co59 2.074 . S
O67 C92 1.257 . S
H68 C93 0.930 . S
H69 C99 0.930 . S
O70 Co59 2.093 . S
O70 C62 1.224 . S
H71 C103 0.929 . S
H72 C105 0.930 . S
H73 C106 0.930 . S
H74 C104 0.929 . S
H75 C107 0.928 . S
O76 Co60 2.057 1_655 S
O76 C64 1.232 . S
H77 C96 0.929 . S
H78 C97 0.929 . S
H79 C109 0.931 . S
H80 C101 0.929 . S
H81 C110 0.930 . S
H82 C102 0.931 . S
O83 Co59 2.097 1_455 S
O83 C111 1.214 . S
H84 C112 0.929 . S
H85 C113 0.929 . S
H86 C114 0.930 . S
H87 C115 0.929 . S
H88 C117 0.930 . S
H89 C94 0.930 . S
H90 C98 0.930 . S
O91 Co60 2.037 . S
O91 C111 1.234 . S
C92 O66 1.269 . S
C92 O67 1.257 . S
C93 H68 0.930 . S
C93 C96 1.388 . S
C93 C98 1.418 . S
C94 H89 0.930 . S
C94 C97 1.404 . S
C94 C98 1.353 . S
N95 Co60 2.145 . S
N95 C96 1.397 . S
N95 C97 1.334 . S
C96 H77 0.929 . S
C96 C93 1.388 . S
C96 N95 1.397 . S
C97 H78 0.929 . S
C97 C94 1.404 . S
C97 N95 1.334 . S
C98 H90 0.930 . S
C98 C93 1.418 . S
C98 C94 1.353 . S
C99 H69 0.930 . S
C99 N100 1.330 . S
C99 C101 1.446 . S
N100 Co59 2.151 . S
N100 C99 1.330 . S
N100 C104 1.418 . S
C101 H80 0.929 . S
C101 C99 1.446 . S
C101 C102 1.332 . S
C102 H82 0.931 . S
C102 C101 1.332 . S
C102 C103 1.267 . S
C103 H71 0.929 . S
C103 C102 1.267 . S
C103 C104 1.251 . S
C104 H74 0.929 . S
C104 N100 1.418 . S
C104 C103 1.251 . S
C105 H72 0.930 . S
C105 C107 1.406 . S
C105 C110 1.261 . S
C106 H73 0.930 . S
C106 N108 1.325 . S
C106 C109 1.357 . S
C107 H75 0.928 . S
C107 C105 1.406 . S
C107 N108 1.261 . S
N108 Co59 2.214 . S
N108 C106 1.325 . S
N108 C107 1.261 . S
C109 H79 0.931 . S
C109 C106 1.357 . S
C109 C110 1.312 . S
C110 H81 0.930 . S
C110 C105 1.261 . S
C110 C109 1.312 . S
C111 O83 1.214 . S
C111 O91 1.234 . S
C112 H84 0.929 . S
C112 C115 1.391 . S
C112 C117 1.391 . S
C113 H85 0.929 . S
C113 C114 1.390 . S
C113 N116 1.391 . S
C114 H86 0.930 . S
C114 C113 1.390 . S
C114 C115 1.392 . S
C115 H87 0.929 . S
C115 C112 1.391 . S
C115 C114 1.392 . S
N116 Co60 2.257 . S
N116 C113 1.391 . S
N116 C117 1.388 . S
C117 H88 0.930 . S
C117 C112 1.391 . S
C117 N116 1.388 . S
Co118 O120 2.143 . S
Co118 O126 2.074 . S
Co118 O129 2.093 . S
Co118 O142 2.097 1_565 S
Co118 N159 2.151 . S
Co118 N167 2.214 . S
Co119 O120 2.160 1_545 S
Co119 O125 2.058 1_545 S
Co119 O135 2.057 1_545 S
Co119 O150 2.037 . S
Co119 N154 2.145 . S
Co119 N175 2.257 . S
O120 Co118 2.143 . S
O120 Co119 2.160 1_565 S
C121 O122 1.278 1_565 S
C121 O129 1.224 . S
O122 C121 1.278 1_545 S
C123 O124 1.245 . S
C123 O135 1.232 . S
O124 C123 1.245 . S
O125 Co119 2.058 1_565 S
O125 C151 1.269 . S
O126 Co118 2.074 . S
O126 C151 1.257 . S
H127 C152 0.930 . S
H128 C158 0.930 . S
O129 Co118 2.093 . S
O129 C121 1.224 . S
H130 C162 0.929 . S
H131 C164 0.930 . S
H132 C165 0.930 . S
H133 C163 0.929 . S
H134 C166 0.928 . S
O135 Co119 2.057 1_565 S
O135 C123 1.232 . S
H136 C155 0.929 . S
H137 C156 0.929 . S
H138 C168 0.931 . S
H139 C160 0.929 . S
H140 C169 0.930 . S
H141 C161 0.931 . S
O142 Co118 2.097 1_545 S
O142 C170 1.214 . S
H143 C171 0.929 . S
H144 C172 0.929 . S
H145 C173 0.930 . S
H146 C174 0.929 . S
H147 C176 0.930 . S
H148 C153 0.930 1_455 S
H149 C157 0.930 . S
O150 Co119 2.037 . S
O150 C170 1.234 . S
C151 O125 1.269 . S
C151 O126 1.257 . S
C152 H127 0.930 . S
C152 C155 1.388 1_455 S
C152 C157 1.418 . S
C153 H148 0.930 1_655 S
C153 C156 1.404 . S
C153 C157 1.353 1_655 S
N154 Co119 2.145 . S
N154 C155 1.397 . S
N154 C156 1.334 . S
C155 H136 0.929 . S
C155 C152 1.388 1_655 S
C155 N154 1.397 . S
C156 H137 0.929 . S
C156 C153 1.404 . S
C156 N154 1.334 . S
C157 H149 0.930 . S
C157 C152 1.418 . S
C157 C153 1.353 1_455 S
C158 H128 0.930 . S
C158 N159 1.330 . S
C158 C160 1.446 . S
N159 Co118 2.151 . S
N159 C158 1.330 . S
N159 C163 1.418 . S
C160 H139 0.929 . S
C160 C158 1.446 . S
C160 C161 1.332 . S
C161 H141 0.931 . S
C161 C160 1.332 . S
C161 C162 1.267 . S
C162 H130 0.929 . S
C162 C161 1.267 . S
C162 C163 1.251 . S
C163 H133 0.929 . S
C163 N159 1.418 . S
C163 C162 1.251 . S
C164 H131 0.930 . S
C164 C166 1.406 . S
C164 C169 1.261 . S
C165 H132 0.930 . S
C165 N167 1.325 . S
C165 C168 1.357 . S
C166 H134 0.928 . S
C166 C164 1.406 . S
C166 N167 1.261 . S
N167 Co118 2.214 . S
N167 C165 1.325 . S
N167 C166 1.261 . S
C168 H138 0.931 . S
C168 C165 1.357 . S
C168 C169 1.312 . S
C169 H140 0.930 . S
C169 C164 1.261 . S
C169 C168 1.312 . S
C170 O142 1.214 . S
C170 O150 1.234 . S
C171 H143 0.929 . S
C171 C174 1.391 . S
C171 C176 1.391 . S
C172 H144 0.929 . S
C172 C173 1.390 . S
C172 N175 1.391 . S
C173 H145 0.930 . S
C173 C172 1.390 . S
C173 C174 1.392 . S
C174 H146 0.929 . S
C174 C171 1.391 . S
C174 C173 1.392 . S
N175 Co119 2.257 . S
N175 C172 1.391 . S
N175 C176 1.388 . S
C176 H147 0.930 . S
C176 C171 1.391 . S
C176 N175 1.388 . S
Co177 O179 2.143 . S
Co177 O185 2.074 . S
Co177 O188 2.093 . S
Co177 O201 2.097 . S
Co177 N218 2.151 . S
Co177 N226 2.214 . S
Co178 O179 2.160 . S
Co178 O184 2.058 . S
Co178 O194 2.057 . S
Co178 O209 2.037 . S
Co178 N213 2.145 . S
Co178 N234 2.257 . S
O179 Co177 2.143 . S
O179 Co178 2.160 . S
C180 O181 1.278 . S
C180 O188 1.224 . S
O181 C180 1.278 . S
C182 O183 1.245 . S
C182 O194 1.232 . S
O183 C182 1.245 . S
O184 Co178 2.058 . S
O184 C210 1.269 . S
O185 Co177 2.074 . S
O185 C210 1.257 . S
H186 C211 0.930 . S
H187 C217 0.930 . S
O188 Co177 2.093 . S
O188 C180 1.224 . S
H189 C221 0.929 . S
H190 C223 0.930 . S
H191 C224 0.930 . S
H192 C222 0.929 . S
H193 C225 0.928 . S
O194 Co178 2.057 . S
O194 C182 1.232 . S
H195 C214 0.929 . S
H196 C215 0.929 . S
H197 C227 0.931 . S
H198 C219 0.929 . S
H199 C228 0.930 . S
H200 C220 0.931 . S
O201 Co177 2.097 . S
O201 C229 1.214 . S
H202 C230 0.929 . S
H203 C231 0.929 . S
H204 C232 0.930 . S
H205 C233 0.929 . S
H206 C235 0.930 . S
H207 C212 0.930 1_545 S
H208 C216 0.930 . S
O209 Co178 2.037 . S
O209 C229 1.234 . S
C210 O184 1.269 . S
C210 O185 1.257 . S
C211 H186 0.930 . S
C211 C214 1.388 1_545 S
C211 C216 1.418 . S
C212 H207 0.930 1_565 S
C212 C215 1.404 . S
C212 C216 1.353 1_565 S
N213 Co178 2.145 . S
N213 C214 1.397 . S
N213 C215 1.334 . S
C214 H195 0.929 . S
C214 C211 1.388 1_565 S
C214 N213 1.397 . S
C215 H196 0.929 . S
C215 C212 1.404 . S
C215 N213 1.334 . S
C216 H208 0.930 . S
C216 C211 1.418 . S
C216 C212 1.353 1_545 S
C217 H187 0.930 . S
C217 N218 1.330 . S
C217 C219 1.446 . S
N218 Co177 2.151 . S
N218 C217 1.330 . S
N218 C222 1.418 . S
C219 H198 0.929 . S
C219 C217 1.446 . S
C219 C220 1.332 . S
C220 H200 0.931 . S
C220 C219 1.332 . S
C220 C221 1.267 . S
C221 H189 0.929 . S
C221 C220 1.267 . S
C221 C222 1.251 . S
C222 H192 0.929 . S
C222 N218 1.418 . S
C222 C221 1.251 . S
C223 H190 0.930 . S
C223 C225 1.406 . S
C223 C228 1.261 . S
C224 H191 0.930 . S
C224 N226 1.325 . S
C224 C227 1.357 . S
C225 H193 0.928 . S
C225 C223 1.406 . S
C225 N226 1.261 . S
N226 Co177 2.214 . S
N226 C224 1.325 . S
N226 C225 1.261 . S
C227 H197 0.931 . S
C227 C224 1.357 . S
C227 C228 1.312 . S
C228 H199 0.930 . S
C228 C223 1.261 . S
C228 C227 1.312 . S
C229 O201 1.214 . S
C229 O209 1.234 . S
C230 H202 0.929 . S
C230 C233 1.391 . S
C230 C235 1.391 . S
C231 H203 0.929 . S
C231 C232 1.390 . S
C231 N234 1.391 . S
C232 H204 0.930 . S
C232 C231 1.390 . S
C232 C233 1.392 . S
C233 H205 0.929 . S
C233 C230 1.391 . S
C233 C232 1.392 . S
N234 Co178 2.257 . S
N234 C231 1.391 . S
N234 C235 1.388 . S
C235 H206 0.930 . S
C235 C230 1.391 . S
C235 N234 1.388 . S
Co236 O238 2.143 . S
Co236 O244 2.074 . S
Co236 O247 2.093 . S
Co236 O260 2.097 1_455 S
Co236 N277 2.151 . S
Co236 N285 2.214 . S
Co237 O238 2.160 1_655 S
Co237 O243 2.058 1_655 S
Co237 O253 2.057 1_655 S
Co237 O268 2.037 . S
Co237 N272 2.145 . S
Co237 N293 2.257 . S
O238 Co236 2.143 . S
O238 Co237 2.160 1_455 S
C239 O240 1.278 1_455 S
C239 O247 1.224 . S
O240 C239 1.278 1_655 S
C241 O242 1.245 . S
C241 O253 1.232 . S
O242 C241 1.245 . S
O243 Co237 2.058 1_455 S
O243 C269 1.269 . S
O244 Co236 2.074 . S
O244 C269 1.257 . S
H245 C270 0.930 . S
H246 C276 0.930 . S
O247 Co236 2.093 . S
O247 C239 1.224 . S
H248 C280 0.929 . S
H249 C282 0.930 . S
H250 C283 0.930 . S
H251 C281 0.929 . S
H252 C284 0.928 . S
O253 Co237 2.057 1_455 S
O253 C241 1.232 . S
H254 C273 0.929 . S
H255 C274 0.929 . S
H256 C286 0.931 . S
H257 C278 0.929 . S
H258 C287 0.930 . S
H259 C279 0.931 . S
O260 Co236 2.097 1_655 S
O260 C288 1.214 . S
H261 C289 0.929 . S
H262 C290 0.929 . S
H263 C291 0.930 . S
H264 C292 0.929 . S
H265 C294 0.930 . S
H266 C271 0.930 . S
H267 C275 0.930 . S
O268 Co237 2.037 . S
O268 C288 1.234 . S
C269 O243 1.269 . S
C269 O244 1.257 . S
C270 H245 0.930 . S
C270 C273 1.388 . S
C270 C275 1.418 . S
C271 H266 0.930 . S
C271 C274 1.404 . S
C271 C275 1.353 . S
N272 Co237 2.145 . S
N272 C273 1.397 . S
N272 C274 1.334 . S
C273 H254 0.929 . S
C273 C270 1.388 . S
C273 N272 1.397 . S
C274 H255 0.929 . S
C274 C271 1.404 . S
C274 N272 1.334 . S
C275 H267 0.930 . S
C275 C270 1.418 . S
C275 C271 1.353 . S
C276 H246 0.930 . S
C276 N277 1.330 . S
C276 C278 1.446 . S
N277 Co236 2.151 . S
N277 C276 1.330 . S
N277 C281 1.418 . S
C278 H257 0.929 . S
C278 C276 1.446 . S
C278 C279 1.332 . S
C279 H259 0.931 . S
C279 C278 1.332 . S
C279 C280 1.267 . S
C280 H248 0.929 . S
C280 C279 1.267 . S
C280 C281 1.251 . S
C281 H251 0.929 . S
C281 N277 1.418 . S
C281 C280 1.251 . S
C282 H249 0.930 . S
C282 C284 1.406 . S
C282 C287 1.261 . S
C283 H250 0.930 . S
C283 N285 1.325 . S
C283 C286 1.357 . S
C284 H252 0.928 . S
C284 C282 1.406 . S
C284 N285 1.261 . S
N285 Co236 2.214 . S
N285 C283 1.325 . S
N285 C284 1.261 . S
C286 H256 0.931 . S
C286 C283 1.357 . S
C286 C287 1.312 . S
C287 H258 0.930 . S
C287 C282 1.261 . S
C287 C286 1.312 . S
C288 O260 1.214 . S
C288 O268 1.234 . S
C289 H261 0.929 . S
C289 C292 1.391 . S
C289 C294 1.391 . S
C290 H262 0.929 . S
C290 C291 1.390 . S
C290 N293 1.391 . S
C291 H263 0.930 . S
C291 C290 1.390 . S
C291 C292 1.392 . S
C292 H264 0.929 . S
C292 C289 1.391 . S
C292 C291 1.392 . S
N293 Co237 2.257 . S
N293 C290 1.391 . S
N293 C294 1.388 . S
C294 H265 0.930 . S
C294 C289 1.391 . S
C294 N293 1.388 . S
Co295 O297 2.143 . S
Co295 O303 2.074 . S
Co295 O306 2.093 . S
Co295 O319 2.097 1_545 S
Co295 N336 2.151 . S
Co295 N344 2.214 . S
Co296 O297 2.160 1_565 S
Co296 O302 2.058 1_565 S
Co296 O312 2.057 1_565 S
Co296 O327 2.037 . S
Co296 N331 2.145 . S
Co296 N352 2.257 . S
O297 Co295 2.143 . S
O297 Co296 2.160 1_545 S
C298 O299 1.278 1_545 S
C298 O306 1.224 . S
O299 C298 1.278 1_565 S
C300 O301 1.245 . S
C300 O312 1.232 . S
O301 C300 1.245 . S
O302 Co296 2.058 1_545 S
O302 C328 1.269 . S
O303 Co295 2.074 . S
O303 C328 1.257 . S
H304 C329 0.930 . S
H305 C335 0.930 . S
O306 Co295 2.093 . S
O306 C298 1.224 . S
H307 C339 0.929 . S
H308 C341 0.930 . S
H309 C342 0.930 . S
H310 C340 0.929 . S
H311 C343 0.928 . S
O312 Co296 2.057 1_545 S
O312 C300 1.232 . S
H313 C332 0.929 . S
H314 C333 0.929 . S
H315 C345 0.931 . S
H316 C337 0.929 . S
H317 C346 0.930 . S
H318 C338 0.931 . S
O319 Co295 2.097 1_565 S
O319 C347 1.214 . S
H320 C348 0.929 . S
H321 C349 0.929 . S
H322 C350 0.930 . S
H323 C351 0.929 . S
H324 C353 0.930 . S
H325 C330 0.930 1_655 S
H326 C334 0.930 . S
O327 Co296 2.037 . S
O327 C347 1.234 . S
C328 O302 1.269 . S
C328 O303 1.257 . S
C329 H304 0.930 . S
C329 C332 1.388 1_655 S
C329 C334 1.418 . S
C330 H325 0.930 1_455 S
C330 C333 1.404 . S
C330 C334 1.353 1_455 S
N331 Co296 2.145 . S
N331 C332 1.397 . S
N331 C333 1.334 . S
C332 H313 0.929 . S
C332 C329 1.388 1_455 S
C332 N331 1.397 . S
C333 H314 0.929 . S
C333 C330 1.404 . S
C333 N331 1.334 . S
C334 H326 0.930 . S
C334 C329 1.418 . S
C334 C330 1.353 1_655 S
C335 H305 0.930 . S
C335 N336 1.330 . S
C335 C337 1.446 . S
N336 Co295 2.151 . S
N336 C335 1.330 . S
N336 C340 1.418 . S
C337 H316 0.929 . S
C337 C335 1.446 . S
C337 C338 1.332 . S
C338 H318 0.931 . S
C338 C337 1.332 . S
C338 C339 1.267 . S
C339 H307 0.929 . S
C339 C338 1.267 . S
C339 C340 1.251 . S
C340 H310 0.929 . S
C340 N336 1.418 . S
C340 C339 1.251 . S
C341 H308 0.930 . S
C341 C343 1.406 . S
C341 C346 1.261 . S
C342 H309 0.930 . S
C342 N344 1.325 . S
C342 C345 1.357 . S
C343 H311 0.928 . S
C343 C341 1.406 . S
C343 N344 1.261 . S
N344 Co295 2.214 . S
N344 C342 1.325 . S
N344 C343 1.261 . S
C345 H315 0.931 . S
C345 C342 1.357 . S
C345 C346 1.312 . S
C346 H317 0.930 . S
C346 C341 1.261 . S
C346 C345 1.312 . S
C347 O319 1.214 . S
C347 O327 1.234 . S
C348 H320 0.929 . S
C348 C351 1.391 . S
C348 C353 1.391 . S
C349 H321 0.929 . S
C349 C350 1.390 . S
C349 N352 1.391 . S
C350 H322 0.930 . S
C350 C349 1.390 . S
C350 C351 1.392 . S
C351 H323 0.929 . S
C351 C348 1.391 . S
C351 C350 1.392 . S
N352 Co296 2.257 . S
N352 C349 1.391 . S
N352 C353 1.388 . S
C353 H324 0.930 . S
C353 C348 1.391 . S
C353 N352 1.388 . S
Co354 O356 2.143 . S
Co354 O362 2.074 . S
Co354 O365 2.093 . S
Co354 O378 2.097 . S
Co354 N395 2.151 . S
Co354 N403 2.214 . S
Co355 O356 2.160 . S
Co355 O361 2.058 . S
Co355 O371 2.057 . S
Co355 O386 2.037 . S
Co355 N390 2.145 . S
Co355 N411 2.257 . S
O356 Co354 2.143 . S
O356 Co355 2.160 . S
C357 O358 1.278 . S
C357 O365 1.224 . S
O358 C357 1.278 . S
C359 O360 1.245 . S
C359 O371 1.232 . S
O360 C359 1.245 . S
O361 Co355 2.058 . S
O361 C387 1.269 . S
O362 Co354 2.074 . S
O362 C387 1.257 . S
H363 C388 0.930 . S
H364 C394 0.930 . S
O365 Co354 2.093 . S
O365 C357 1.224 . S
H366 C398 0.929 . S
H367 C400 0.930 . S
H368 C401 0.930 . S
H369 C399 0.929 . S
H370 C402 0.928 . S
O371 Co355 2.057 . S
O371 C359 1.232 . S
H372 C391 0.929 . S
H373 C392 0.929 . S
H374 C404 0.931 . S
H375 C396 0.929 . S
H376 C405 0.930 . S
H377 C397 0.931 . S
O378 Co354 2.097 . S
O378 C406 1.214 . S
H379 C407 0.929 . S
H380 C408 0.929 . S
H381 C409 0.930 . S
H382 C410 0.929 . S
H383 C412 0.930 . S
H384 C389 0.930 1_455 S
H385 C393 0.930 . S
O386 Co355 2.037 . S
O386 C406 1.234 . S
C387 O361 1.269 . S
C387 O362 1.257 . S
C388 H363 0.930 . S
C388 C391 1.388 1_455 S
C388 C393 1.418 . S
C389 H384 0.930 1_655 S
C389 C392 1.404 . S
C389 C393 1.353 1_655 S
N390 Co355 2.145 . S
N390 C391 1.397 . S
N390 C392 1.334 . S
C391 H372 0.929 . S
C391 C388 1.388 1_655 S
C391 N390 1.397 . S
C392 H373 0.929 . S
C392 C389 1.404 . S
C392 N390 1.334 . S
C393 H385 0.930 . S
C393 C388 1.418 . S
C393 C389 1.353 1_455 S
C394 H364 0.930 . S
C394 N395 1.330 . S
C394 C396 1.446 . S
N395 Co354 2.151 . S
N395 C394 1.330 . S
N395 C399 1.418 . S
C396 H375 0.929 . S
C396 C394 1.446 . S
C396 C397 1.332 . S
C397 H377 0.931 . S
C397 C396 1.332 . S
C397 C398 1.267 . S
C398 H366 0.929 . S
C398 C397 1.267 . S
C398 C399 1.251 . S
C399 H369 0.929 . S
C399 N395 1.418 . S
C399 C398 1.251 . S
C400 H367 0.930 . S
C400 C402 1.406 . S
C400 C405 1.261 . S
C401 H368 0.930 . S
C401 N403 1.325 . S
C401 C404 1.357 . S
C402 H370 0.928 . S
C402 C400 1.406 . S
C402 N403 1.261 . S
N403 Co354 2.214 . S
N403 C401 1.325 . S
N403 C402 1.261 . S
C404 H374 0.931 . S
C404 C401 1.357 . S
C404 C405 1.312 . S
C405 H376 0.930 . S
C405 C400 1.261 . S
C405 C404 1.312 . S
C406 O378 1.214 . S
C406 O386 1.234 . S
C407 H379 0.929 . S
C407 C410 1.391 . S
C407 C412 1.391 . S
C408 H380 0.929 . S
C408 C409 1.390 . S
C408 N411 1.391 . S
C409 H381 0.930 . S
C409 C408 1.390 . S
C409 C410 1.392 . S
C410 H382 0.929 . S
C410 C407 1.391 . S
C410 C409 1.392 . S
N411 Co355 2.257 . S
N411 C408 1.391 . S
N411 C412 1.388 . S
C412 H383 0.930 . S
C412 C407 1.391 . S
C412 N411 1.388 . S
Co413 O415 2.143 . S
Co413 O421 2.074 . S
Co413 O424 2.093 . S
Co413 O437 2.097 1_655 S
Co413 N454 2.151 . S
Co413 N462 2.214 . S
Co414 O415 2.160 1_455 S
Co414 O420 2.058 1_455 S
Co414 O430 2.057 1_455 S
Co414 O445 2.037 . S
Co414 N449 2.145 . S
Co414 N470 2.257 . S
O415 Co413 2.143 . S
O415 Co414 2.160 1_655 S
C416 O417 1.278 1_655 S
C416 O424 1.224 . S
O417 C416 1.278 1_455 S
C418 O419 1.245 . S
C418 O430 1.232 . S
O419 C418 1.245 . S
O420 Co414 2.058 1_655 S
O420 C446 1.269 . S
O421 Co413 2.074 . S
O421 C446 1.257 . S
H422 C447 0.930 . S
H423 C453 0.930 . S
O424 Co413 2.093 . S
O424 C416 1.224 . S
H425 C457 0.929 . S
H426 C459 0.930 . S
H427 C460 0.930 . S
H428 C458 0.929 . S
H429 C461 0.928 . S
O430 Co414 2.057 1_655 S
O430 C418 1.232 . S
H431 C450 0.929 . S
H432 C451 0.929 . S
H433 C463 0.931 . S
H434 C455 0.929 . S
H435 C464 0.930 . S
H436 C456 0.931 . S
O437 Co413 2.097 1_455 S
O437 C465 1.214 . S
H438 C466 0.929 . S
H439 C467 0.929 . S
H440 C468 0.930 . S
H441 C469 0.929 . S
H442 C471 0.930 . S
H443 C448 0.930 1_545 S
H444 C452 0.930 . S
O445 Co414 2.037 . S
O445 C465 1.234 . S
C446 O420 1.269 . S
C446 O421 1.257 . S
C447 H422 0.930 . S
C447 C450 1.388 1_545 S
C447 C452 1.418 . S
C448 H443 0.930 1_565 S
C448 C451 1.404 . S
C448 C452 1.353 1_565 S
N449 Co414 2.145 . S
N449 C450 1.397 . S
N449 C451 1.334 . S
C450 H431 0.929 . S
C450 C447 1.388 1_565 S
C450 N449 1.397 . S
C451 H432 0.929 . S
C451 C448 1.404 . S
C451 N449 1.334 . S
C452 H444 0.930 . S
C452 C447 1.418 . S
C452 C448 1.353 1_545 S
C453 H423 0.930 . S
C453 N454 1.330 . S
C453 C455 1.446 . S
N454 Co413 2.151 . S
N454 C453 1.330 . S
N454 C458 1.418 . S
C455 H434 0.929 . S
C455 C453 1.446 . S
C455 C456 1.332 . S
C456 H436 0.931 . S
C456 C455 1.332 . S
C456 C457 1.267 . S
C457 H425 0.929 . S
C457 C456 1.267 . S
C457 C458 1.251 . S
C458 H428 0.929 . S
C458 N454 1.418 . S
C458 C457 1.251 . S
C459 H426 0.930 . S
C459 C461 1.406 . S
C459 C464 1.261 . S
C460 H427 0.930 . S
C460 N462 1.325 . S
C460 C463 1.357 . S
C461 H429 0.928 . S
C461 C459 1.406 . S
C461 N462 1.261 . S
N462 Co413 2.214 . S
N462 C460 1.325 . S
N462 C461 1.261 . S
C463 H433 0.931 . S
C463 C460 1.357 . S
C463 C464 1.312 . S
C464 H435 0.930 . S
C464 C459 1.261 . S
C464 C463 1.312 . S
C465 O437 1.214 . S
C465 O445 1.234 . S
C466 H438 0.929 . S
C466 C469 1.391 . S
C466 C471 1.391 . S
C467 H439 0.929 . S
C467 C468 1.390 . S
C467 N470 1.391 . S
C468 H440 0.930 . S
C468 C467 1.390 . S
C468 C469 1.392 . S
C469 H441 0.929 . S
C469 C466 1.391 . S
C469 C468 1.392 . S
N470 Co414 2.257 . S
N470 C467 1.391 . S
N470 C471 1.388 . S
C471 H442 0.930 . S
C471 C466 1.391 . S
C471 N470 1.388 . S
Co472 O474 2.143 . S
Co472 O480 2.074 . S
Co472 O483 2.093 . S
Co472 O496 2.097 1_565 S
Co472 N513 2.151 . S
Co472 N521 2.214 . S
Co473 O474 2.160 1_545 S
Co473 O479 2.058 1_545 S
Co473 O489 2.057 1_545 S
Co473 O504 2.037 . S
Co473 N508 2.145 . S
Co473 N529 2.257 . S
O474 Co472 2.143 . S
O474 Co473 2.160 1_565 S
C475 O476 1.278 1_565 S
C475 O483 1.224 . S
O476 C475 1.278 1_545 S
C477 O478 1.245 . S
C477 O489 1.232 . S
O478 C477 1.245 . S
O479 Co473 2.058 1_565 S
O479 C505 1.269 . S
O480 Co472 2.074 . S
O480 C505 1.257 . S
H481 C506 0.930 . S
H482 C512 0.930 . S
O483 Co472 2.093 . S
O483 C475 1.224 . S
H484 C516 0.929 . S
H485 C518 0.930 . S
H486 C519 0.930 . S
H487 C517 0.929 . S
H488 C520 0.928 . S
O489 Co473 2.057 1_565 S
O489 C477 1.232 . S
H490 C509 0.929 . S
H491 C510 0.929 . S
H492 C522 0.931 . S
H493 C514 0.929 . S
H494 C523 0.930 . S
H495 C515 0.931 . S
O496 Co472 2.097 1_545 S
O496 C524 1.214 . S
H497 C525 0.929 . S
H498 C526 0.929 . S
H499 C527 0.930 . S
H500 C528 0.929 . S
H501 C530 0.930 . S
H502 C507 0.930 . S
H503 C511 0.930 . S
O504 Co473 2.037 . S
O504 C524 1.234 . S
C505 O479 1.269 . S
C505 O480 1.257 . S
C506 H481 0.930 . S
C506 C509 1.388 . S
C506 C511 1.418 . S
C507 H502 0.930 . S
C507 C510 1.404 . S
C507 C511 1.353 . S
N508 Co473 2.145 . S
N508 C509 1.397 . S
N508 C510 1.334 . S
C509 H490 0.929 . S
C509 C506 1.388 . S
C509 N508 1.397 . S
C510 H491 0.929 . S
C510 C507 1.404 . S
C510 N508 1.334 . S
C511 H503 0.930 . S
C511 C506 1.418 . S
C511 C507 1.353 . S
C512 H482 0.930 . S
C512 N513 1.330 . S
C512 C514 1.446 . S
N513 Co472 2.151 . S
N513 C512 1.330 . S
N513 C517 1.418 . S
C514 H493 0.929 . S
C514 C512 1.446 . S
C514 C515 1.332 . S
C515 H495 0.931 . S
C515 C514 1.332 . S
C515 C516 1.267 . S
C516 H484 0.929 . S
C516 C515 1.267 . S
C516 C517 1.251 . S
C517 H487 0.929 . S
C517 N513 1.418 . S
C517 C516 1.251 . S
C518 H485 0.930 . S
C518 C520 1.406 . S
C518 C523 1.261 . S
C519 H486 0.930 . S
C519 N521 1.325 . S
C519 C522 1.357 . S
C520 H488 0.928 . S
C520 C518 1.406 . S
C520 N521 1.261 . S
N521 Co472 2.214 . S
N521 C519 1.325 . S
N521 C520 1.261 . S
C522 H492 0.931 . S
C522 C519 1.357 . S
C522 C523 1.312 . S
C523 H494 0.930 . S
C523 C518 1.261 . S
C523 C522 1.312 . S
C524 O496 1.214 . S
C524 O504 1.234 . S
C525 H497 0.929 . S
C525 C528 1.391 . S
C525 C530 1.391 . S
C526 H498 0.929 . S
C526 C527 1.390 . S
C526 N529 1.391 . S
C527 H499 0.930 . S
C527 C526 1.390 . S
C527 C528 1.392 . S
C528 H500 0.929 . S
C528 C525 1.391 . S
C528 C527 1.392 . S
N529 Co473 2.257 . S
N529 C526 1.391 . S
N529 C530 1.388 . S
C530 H501 0.930 . S
C530 C525 1.391 . S
C530 N529 1.388 . S
Co531 O533 2.143 . S
Co531 O539 2.074 . S
Co531 O542 2.093 . S
Co531 O555 2.097 . S
Co531 N572 2.151 . S
Co531 N580 2.214 . S
Co532 O533 2.160 . S
Co532 O538 2.058 . S
Co532 O548 2.057 . S
Co532 O563 2.037 . S
Co532 N567 2.145 . S
Co532 N588 2.257 . S
O533 Co531 2.143 . S
O533 Co532 2.160 . S
C534 O535 1.278 . S
C534 O542 1.224 . S
O535 C534 1.278 . S
C536 O537 1.245 . S
C536 O548 1.232 . S
O537 C536 1.245 . S
O538 Co532 2.058 . S
O538 C564 1.269 . S
O539 Co531 2.074 . S
O539 C564 1.257 . S
H540 C565 0.930 . S
H541 C571 0.930 . S
O542 Co531 2.093 . S
O542 C534 1.224 . S
H543 C575 0.929 . S
H544 C577 0.930 . S
H545 C578 0.930 . S
H546 C576 0.929 . S
H547 C579 0.928 . S
O548 Co532 2.057 . S
O548 C536 1.232 . S
H549 C568 0.929 . S
H550 C569 0.929 . S
H551 C581 0.931 . S
H552 C573 0.929 . S
H553 C582 0.930 . S
H554 C574 0.931 . S
O555 Co531 2.097 . S
O555 C583 1.214 . S
H556 C584 0.929 . S
H557 C585 0.929 . S
H558 C586 0.930 . S
H559 C587 0.929 . S
H560 C589 0.930 . S
H561 C566 0.930 1_655 S
H562 C570 0.930 . S
O563 Co532 2.037 . S
O563 C583 1.234 . S
C564 O538 1.269 . S
C564 O539 1.257 . S
C565 H540 0.930 . S
C565 C568 1.388 1_655 S
C565 C570 1.418 . S
C566 H561 0.930 1_455 S
C566 C569 1.404 . S
C566 C570 1.353 1_455 S
N567 Co532 2.145 . S
N567 C568 1.397 . S
N567 C569 1.334 . S
C568 H549 0.929 . S
C568 C565 1.388 1_455 S
C568 N567 1.397 . S
C569 H550 0.929 . S
C569 C566 1.404 . S
C569 N567 1.334 . S
C570 H562 0.930 . S
C570 C565 1.418 . S
C570 C566 1.353 1_655 S
C571 H541 0.930 . S
C571 N572 1.330 . S
C571 C573 1.446 . S
N572 Co531 2.151 . S
N572 C571 1.330 . S
N572 C576 1.418 . S
C573 H552 0.929 . S
C573 C571 1.446 . S
C573 C574 1.332 . S
C574 H554 0.931 . S
C574 C573 1.332 . S
C574 C575 1.267 . S
C575 H543 0.929 . S
C575 C574 1.267 . S
C575 C576 1.251 . S
C576 H546 0.929 . S
C576 N572 1.418 . S
C576 C575 1.251 . S
C577 H544 0.930 . S
C577 C579 1.406 . S
C577 C582 1.261 . S
C578 H545 0.930 . S
C578 N580 1.325 . S
C578 C581 1.357 . S
C579 H547 0.928 . S
C579 C577 1.406 . S
C579 N580 1.261 . S
N580 Co531 2.214 . S
N580 C578 1.325 . S
N580 C579 1.261 . S
C581 H551 0.931 . S
C581 C578 1.357 . S
C581 C582 1.312 . S
C582 H553 0.930 . S
C582 C577 1.261 . S
C582 C581 1.312 . S
C583 O555 1.214 . S
C583 O563 1.234 . S
C584 H556 0.929 . S
C584 C587 1.391 . S
C584 C589 1.391 . S
C585 H557 0.929 . S
C585 C586 1.390 . S
C585 N588 1.391 . S
C586 H558 0.930 . S
C586 C585 1.390 . S
C586 C587 1.392 . S
C587 H559 0.929 . S
C587 C584 1.391 . S
C587 C586 1.392 . S
N588 Co532 2.257 . S
N588 C585 1.391 . S
N588 C589 1.388 . S
C589 H560 0.930 . S
C589 C584 1.391 . S
C589 N588 1.388 . S
Co590 O592 2.143 . S
Co590 O598 2.074 . S
Co590 O601 2.093 . S
Co590 O614 2.097 1_455 S
Co590 N631 2.151 . S
Co590 N639 2.214 . S
Co591 O592 2.160 1_655 S
Co591 O597 2.058 1_655 S
Co591 O607 2.057 1_655 S
Co591 O622 2.037 . S
Co591 N626 2.145 . S
Co591 N647 2.257 . S
O592 Co590 2.143 . S
O592 Co591 2.160 1_455 S
C593 O594 1.278 1_455 S
C593 O601 1.224 . S
O594 C593 1.278 1_655 S
C595 O596 1.245 . S
C595 O607 1.232 . S
O596 C595 1.245 . S
O597 Co591 2.058 1_455 S
O597 C623 1.269 . S
O598 Co590 2.074 . S
O598 C623 1.257 . S
H599 C624 0.930 . S
H600 C630 0.930 . S
O601 Co590 2.093 . S
O601 C593 1.224 . S
H602 C634 0.929 . S
H603 C636 0.930 . S
H604 C637 0.930 . S
H605 C635 0.929 . S
H606 C638 0.928 . S
O607 Co591 2.057 1_455 S
O607 C595 1.232 . S
H608 C627 0.929 . S
H609 C628 0.929 . S
H610 C640 0.931 . S
H611 C632 0.929 . S
H612 C641 0.930 . S
H613 C633 0.931 . S
O614 Co590 2.097 1_655 S
O614 C642 1.214 . S
H615 C643 0.929 . S
H616 C644 0.929 . S
H617 C645 0.930 . S
H618 C646 0.929 . S
H619 C648 0.930 . S
H620 C625 0.930 1_565 S
H621 C629 0.930 . S
O622 Co591 2.037 . S
O622 C642 1.234 . S
C623 O597 1.269 . S
C623 O598 1.257 . S
C624 H599 0.930 . S
C624 C627 1.388 1_565 S
C624 C629 1.418 . S
C625 H620 0.930 1_545 S
C625 C628 1.404 . S
C625 C629 1.353 1_545 S
N626 Co591 2.145 . S
N626 C627 1.397 . S
N626 C628 1.334 . S
C627 H608 0.929 . S
C627 C624 1.388 1_545 S
C627 N626 1.397 . S
C628 H609 0.929 . S
C628 C625 1.404 . S
C628 N626 1.334 . S
C629 H621 0.930 . S
C629 C624 1.418 . S
C629 C625 1.353 1_565 S
C630 H600 0.930 . S
C630 N631 1.330 . S
C630 C632 1.446 . S
N631 Co590 2.151 . S
N631 C630 1.330 . S
N631 C635 1.418 . S
C632 H611 0.929 . S
C632 C630 1.446 . S
C632 C633 1.332 . S
C633 H613 0.931 . S
C633 C632 1.332 . S
C633 C634 1.267 . S
C634 H602 0.929 . S
C634 C633 1.267 . S
C634 C635 1.251 . S
C635 H605 0.929 . S
C635 N631 1.418 . S
C635 C634 1.251 . S
C636 H603 0.930 . S
C636 C638 1.406 . S
C636 C641 1.261 . S
C637 H604 0.930 . S
C637 N639 1.325 . S
C637 C640 1.357 . S
C638 H606 0.928 . S
C638 C636 1.406 . S
C638 N639 1.261 . S
N639 Co590 2.214 . S
N639 C637 1.325 . S
N639 C638 1.261 . S
C640 H610 0.931 . S
C640 C637 1.357 . S
C640 C641 1.312 . S
C641 H612 0.930 . S
C641 C636 1.261 . S
C641 C640 1.312 . S
C642 O614 1.214 . S
C642 O622 1.234 . S
C643 H615 0.929 . S
C643 C646 1.391 . S
C643 C648 1.391 . S
C644 H616 0.929 . S
C644 C645 1.390 . S
C644 N647 1.391 . S
C645 H617 0.930 . S
C645 C644 1.390 . S
C645 C646 1.392 . S
C646 H618 0.929 . S
C646 C643 1.391 . S
C646 C645 1.392 . S
N647 Co591 2.257 . S
N647 C644 1.391 . S
N647 C648 1.388 . S
C648 H619 0.930 . S
C648 C643 1.391 . S
C648 N647 1.388 . S
Co649 O651 2.143 . S
Co649 O657 2.074 . S
Co649 O660 2.093 . S
Co649 O673 2.097 1_545 S
Co649 N690 2.151 . S
Co649 N698 2.214 . S
Co650 O651 2.160 1_565 S
Co650 O656 2.058 1_565 S
Co650 O666 2.057 1_565 S
Co650 O681 2.037 . S
Co650 N685 2.145 . S
Co650 N706 2.257 . S
O651 Co649 2.143 . S
O651 Co650 2.160 1_545 S
C652 O653 1.278 1_545 S
C652 O660 1.224 . S
O653 C652 1.278 1_565 S
C654 O655 1.245 . S
C654 O666 1.232 . S
O655 C654 1.245 . S
O656 Co650 2.058 1_545 S
O656 C682 1.269 . S
O657 Co649 2.074 . S
O657 C682 1.257 . S
H658 C683 0.930 . S
H659 C689 0.930 . S
O660 Co649 2.093 . S
O660 C652 1.224 . S
H661 C693 0.929 . S
H662 C695 0.930 . S
H663 C696 0.930 . S
H664 C694 0.929 . S
H665 C697 0.928 . S
O666 Co650 2.057 1_545 S
O666 C654 1.232 . S
H667 C686 0.929 . S
H668 C687 0.929 . S
H669 C699 0.931 . S
H670 C691 0.929 . S
H671 C700 0.930 . S
H672 C692 0.931 . S
O673 Co649 2.097 1_565 S
O673 C701 1.214 . S
H674 C702 0.929 . S
H675 C703 0.929 . S
H676 C704 0.930 . S
H677 C705 0.929 . S
H678 C707 0.930 . S
H679 C684 0.930 . S
H680 C688 0.930 . S
O681 Co650 2.037 . S
O681 C701 1.234 . S
C682 O656 1.269 . S
C682 O657 1.257 . S
C683 H658 0.930 . S
C683 C686 1.388 . S
C683 C688 1.418 . S
C684 H679 0.930 . S
C684 C687 1.404 . S
C684 C688 1.353 . S
N685 Co650 2.145 . S
N685 C686 1.397 . S
N685 C687 1.334 . S
C686 H667 0.929 . S
C686 C683 1.388 . S
C686 N685 1.397 . S
C687 H668 0.929 . S
C687 C684 1.404 . S
C687 N685 1.334 . S
C688 H680 0.930 . S
C688 C683 1.418 . S
C688 C684 1.353 . S
C689 H659 0.930 . S
C689 N690 1.330 . S
C689 C691 1.446 . S
N690 Co649 2.151 . S
N690 C689 1.330 . S
N690 C694 1.418 . S
C691 H670 0.929 . S
C691 C689 1.446 . S
C691 C692 1.332 . S
C692 H672 0.931 . S
C692 C691 1.332 . S
C692 C693 1.267 . S
C693 H661 0.929 . S
C693 C692 1.267 . S
C693 C694 1.251 . S
C694 H664 0.929 . S
C694 N690 1.418 . S
C694 C693 1.251 . S
C695 H662 0.930 . S
C695 C697 1.406 . S
C695 C700 1.261 . S
C696 H663 0.930 . S
C696 N698 1.325 . S
C696 C699 1.357 . S
C697 H665 0.928 . S
C697 C695 1.406 . S
C697 N698 1.261 . S
N698 Co649 2.214 . S
N698 C696 1.325 . S
N698 C697 1.261 . S
C699 H669 0.931 . S
C699 C696 1.357 . S
C699 C700 1.312 . S
C700 H671 0.930 . S
C700 C695 1.261 . S
C700 C699 1.312 . S
C701 O673 1.214 . S
C701 O681 1.234 . S
C702 H674 0.929 . S
C702 C705 1.391 . S
C702 C707 1.391 . S
C703 H675 0.929 . S
C703 C704 1.390 . S
C703 N706 1.391 . S
C704 H676 0.930 . S
C704 C703 1.390 . S
C704 C705 1.392 . S
C705 H677 0.929 . S
C705 C702 1.391 . S
C705 C704 1.392 . S
N706 Co650 2.257 . S
N706 C703 1.391 . S
N706 C707 1.388 . S
C707 H678 0.930 . S
C707 C702 1.391 . S
C707 N706 1.388 . S
C708 C709 1.363 . S
C708 C714 1.379 . S
C708 N716 1.356 . S
C709 C708 1.363 . S
C709 C715 1.363 1_655 S
C710 C711 1.363 . S
C710 C715 1.379 . S
C710 N717 1.356 . S
C711 C710 1.363 . S
C711 C714 1.363 1_455 S
N712 C714 1.356 . S
N712 H724 0.984 . S
N712 H725 0.985 1_655 S
N713 C715 1.356 . S
N713 H718 0.984 1_455 S
N713 H719 0.985 . S
C714 C708 1.379 . S
C714 C711 1.363 1_655 S
C714 N712 1.356 . S
C715 C709 1.363 1_455 S
C715 C710 1.379 . S
C715 N713 1.356 . S
N716 C708 1.356 . S
N716 H722 0.984 . S
N716 H723 0.984 . S
N717 C710 1.356 . S
N717 H720 0.984 . S
N717 H721 0.985 . S
H718 N713 0.984 1_655 S
H719 N713 0.985 . S
H720 N717 0.984 . S
H721 N717 0.985 . S
H722 N716 0.984 . S
H723 N716 0.984 . S
H724 N712 0.984 . S
H725 N712 0.985 1_455 S
C726 C727 1.363 . S
C726 C732 1.379 . S
C726 N734 1.356 . S
C727 C726 1.363 . S
C727 C733 1.363 1_545 S
C728 C729 1.363 . S
C728 C733 1.379 . S
C728 N735 1.356 . S
C729 C728 1.363 . S
C729 C732 1.363 1_565 S
N730 C732 1.356 . S
N730 H742 0.984 . S
N730 H743 0.985 1_545 S
N731 C733 1.356 . S
N731 H736 0.984 1_565 S
N731 H737 0.985 . S
C732 C726 1.379 . S
C732 C729 1.363 1_545 S
C732 N730 1.356 . S
C733 C727 1.363 1_565 S
C733 C728 1.379 . S
C733 N731 1.356 . S
N734 C726 1.356 . S
N734 H740 0.984 . S
N734 H741 0.984 . S
N735 C728 1.356 . S
N735 H738 0.984 . S
N735 H739 0.985 . S
H736 N731 0.984 1_545 S
H737 N731 0.985 . S
H738 N735 0.984 . S
H739 N735 0.985 . S
H740 N734 0.984 . S
H741 N734 0.984 . S
H742 N730 0.984 . S
H743 N730 0.985 1_565 S
C744 C745 1.363 . S
C744 C750 1.379 . S
C744 N752 1.356 . S
C745 C744 1.363 . S
C745 C751 1.363 . S
C746 C747 1.363 . S
C746 C751 1.379 . S
C746 N753 1.356 . S
C747 C746 1.363 . S
C747 C750 1.363 . S
N748 C750 1.356 . S
N748 H760 0.984 . S
N748 H761 0.985 . S
N749 C751 1.356 . S
N749 H754 0.984 . S
N749 H755 0.985 . S
C750 C744 1.379 . S
C750 C747 1.363 . S
C750 N748 1.356 . S
C751 C745 1.363 . S
C751 C746 1.379 . S
C751 N749 1.356 . S
N752 C744 1.356 . S
N752 H758 0.984 . S
N752 H759 0.984 . S
N753 C746 1.356 . S
N753 H756 0.984 . S
N753 H757 0.985 . S
H754 N749 0.984 . S
H755 N749 0.985 . S
H756 N753 0.984 . S
H757 N753 0.985 . S
H758 N752 0.984 . S
H759 N752 0.984 . S
H760 N748 0.984 . S
H761 N748 0.985 . S
C762 C763 1.363 . S
C762 C768 1.379 . S
C762 N770 1.356 . S
C763 C762 1.363 . S
C763 C769 1.363 1_655 S
C764 C765 1.363 . S
C764 C769 1.379 . S
C764 N771 1.356 . S
C765 C764 1.363 . S
C765 C768 1.363 1_455 S
N766 C768 1.356 . S
N766 H778 0.984 . S
N766 H779 0.985 1_655 S
N767 C769 1.356 . S
N767 H772 0.984 1_455 S
N767 H773 0.985 . S
C768 C762 1.379 . S
C768 C765 1.363 1_655 S
C768 N766 1.356 . S
C769 C763 1.363 1_455 S
C769 C764 1.379 . S
C769 N767 1.356 . S
N770 C762 1.356 . S
N770 H776 0.984 . S
N770 H777 0.984 . S
N771 C764 1.356 . S
N771 H774 0.984 . S
N771 H775 0.985 . S
H772 N767 0.984 1_655 S
H773 N767 0.985 . S
H774 N771 0.984 . S
H775 N771 0.985 . S
H776 N770 0.984 . S
H777 N770 0.984 . S
H778 N766 0.984 . S
H779 N766 0.985 1_455 S
C780 C781 1.363 . S
C780 C786 1.379 1_545 S
C780 N788 1.356 . S
C781 C780 1.363 . S
C781 C787 1.363 . S
C782 C783 1.363 . S
C782 C787 1.379 1_565 S
C782 N789 1.356 . S
C783 C782 1.363 . S
C783 C786 1.363 . S
N784 C786 1.356 . S
N784 H796 0.984 . S
N784 H797 0.985 . S
N785 C787 1.356 . S
N785 H790 0.984 . S
N785 H791 0.985 . S
C786 C780 1.379 1_565 S
C786 C783 1.363 . S
C786 N784 1.356 . S
C787 C781 1.363 . S
C787 C782 1.379 1_545 S
C787 N785 1.356 . S
N788 C780 1.356 . S
N788 H794 0.984 . S
N788 H795 0.984 . S
N789 C782 1.356 . S
N789 H792 0.984 . S
N789 H793 0.985 . S
H790 N785 0.984 . S
H791 N785 0.985 . S
H792 N789 0.984 . S
H793 N789 0.985 . S
H794 N788 0.984 . S
H795 N788 0.984 . S
H796 N784 0.984 . S
H797 N784 0.985 . S
C798 C799 1.363 . S
C798 C804 1.379 . S
C798 N806 1.356 . S
C799 C798 1.363 . S
C799 C805 1.363 . S
C800 C801 1.363 . S
C800 C805 1.379 . S
C800 N807 1.356 . S
C801 C800 1.363 . S
C801 C804 1.363 . S
N802 C804 1.356 . S
N802 H814 0.984 . S
N802 H815 0.985 . S
N803 C805 1.356 . S
N803 H808 0.984 . S
N803 H809 0.985 . S
C804 C798 1.379 . S
C804 C801 1.363 . S
C804 N802 1.356 . S
C805 C799 1.363 . S
C805 C800 1.379 . S
C805 N803 1.356 . S
N806 C798 1.356 . S
N806 H812 0.984 . S
N806 H813 0.984 . S
N807 C800 1.356 . S
N807 H810 0.984 . S
N807 H811 0.985 . S
H808 N803 0.984 . S
H809 N803 0.985 . S
H810 N807 0.984 . S
H811 N807 0.985 . S
H812 N806 0.984 . S
H813 N806 0.984 . S
H814 N802 0.984 . S
H815 N802 0.985 . S
C816 C817 1.363 . S
C816 C822 1.379 . S
C816 N824 1.356 . S
C817 C816 1.363 . S
C817 C823 1.363 . S
C818 C819 1.363 . S
C818 C823 1.379 . S
C818 N825 1.356 . S
C819 C818 1.363 . S
C819 C822 1.363 . S
N820 C822 1.356 . S
N820 H832 0.984 . S
N820 H833 0.985 . S
N821 C823 1.356 . S
N821 H826 0.984 . S
N821 H827 0.985 . S
C822 C816 1.379 . S
C822 C819 1.363 . S
C822 N820 1.356 . S
C823 C817 1.363 . S
C823 C818 1.379 . S
C823 N821 1.356 . S
N824 C816 1.356 . S
N824 H830 0.984 . S
N824 H831 0.984 . S
N825 C818 1.356 . S
N825 H828 0.984 . S
N825 H829 0.985 . S
H826 N821 0.984 . S
H827 N821 0.985 . S
H828 N825 0.984 . S
H829 N825 0.985 . S
H830 N824 0.984 . S
H831 N824 0.984 . S
H832 N820 0.984 . S
H833 N820 0.985 . S
C834 C835 1.363 . S
C834 C840 1.379 . S
C834 N842 1.356 . S
C835 C834 1.363 . S
C835 C841 1.363 1_455 S
C836 C837 1.363 . S
C836 C841 1.379 . S
C836 N843 1.356 . S
C837 C836 1.363 . S
C837 C840 1.363 1_655 S
N838 C840 1.356 . S
N838 H850 0.984 . S
N838 H851 0.985 . S
N839 C841 1.356 . S
N839 H844 0.984 . S
N839 H845 0.985 . S
C840 C834 1.379 . S
C840 C837 1.363 1_455 S
C840 N838 1.356 . S
C841 C835 1.363 1_655 S
C841 C836 1.379 . S
C841 N839 1.356 . S
N842 C834 1.356 . S
N842 H848 0.984 . S
N842 H849 0.984 . S
N843 C836 1.356 . S
N843 H846 0.984 . S
N843 H847 0.985 . S
H844 N839 0.984 . S
H845 N839 0.985 . S
H846 N843 0.984 . S
H847 N843 0.985 . S
H848 N842 0.984 . S
H849 N842 0.984 . S
H850 N838 0.984 . S
H851 N838 0.985 . S
C852 C853 1.363 1_565 S
C852 C858 1.379 . S
C852 N860 1.356 . S
C853 C852 1.363 1_545 S
C853 C859 1.363 . S
C854 C855 1.363 1_545 S
C854 C859 1.379 . S
C854 N861 1.356 . S
C855 C854 1.363 1_565 S
C855 C858 1.363 . S
N856 C858 1.356 . S
N856 H868 0.984 . S
N856 H869 0.985 . S
N857 C859 1.356 . S
N857 H862 0.984 . S
N857 H863 0.985 . S
C858 C852 1.379 . S
C858 C855 1.363 . S
C858 N856 1.356 . S
C859 C853 1.363 . S
C859 C854 1.379 . S
C859 N857 1.356 . S
N860 C852 1.356 . S
N860 H866 0.984 . S
N860 H867 0.984 . S
N861 C854 1.356 . S
N861 H864 0.984 . S
N861 H865 0.985 . S
H862 N857 0.984 . S
H863 N857 0.985 . S
H864 N861 0.984 . S
H865 N861 0.985 . S
H866 N860 0.984 . S
H867 N860 0.984 . S
H868 N856 0.984 . S
H869 N856 0.985 . S
C870 C871 1.363 . S
C870 C876 1.379 . S
C870 N878 1.356 . S
C871 C870 1.363 . S
C871 C877 1.363 . S
C872 C873 1.363 . S
C872 C877 1.379 . S
C872 N879 1.356 . S
C873 C872 1.363 . S
C873 C876 1.363 . S
N874 C876 1.356 . S
N874 H886 0.984 . S
N874 H887 0.985 . S
N875 C877 1.356 . S
N875 H880 0.984 . S
N875 H881 0.985 . S
C876 C870 1.379 . S
C876 C873 1.363 . S
C876 N874 1.356 . S
C877 C871 1.363 . S
C877 C872 1.379 . S
C877 N875 1.356 . S
N878 C870 1.356 . S
N878 H884 0.984 . S
N878 H885 0.984 . S
N879 C872 1.356 . S
N879 H882 0.984 . S
N879 H883 0.985 . S
H880 N875 0.984 . S
H881 N875 0.985 . S
H882 N879 0.984 . S
H883 N879 0.985 . S
H884 N878 0.984 . S
H885 N878 0.984 . S
H886 N874 0.984 . S
H887 N874 0.985 . S
C888 C889 1.363 . S
C888 C894 1.379 . S
C888 N896 1.356 . S
C889 C888 1.363 . S
C889 C895 1.363 1_655 S
C890 C891 1.363 . S
C890 C895 1.379 . S
C890 N897 1.356 . S
C891 C890 1.363 . S
C891 C894 1.363 1_455 S
N892 C894 1.356 . S
N892 H904 0.984 . S
N892 H905 0.985 . S
N893 C895 1.356 . S
N893 H898 0.984 . S
N893 H899 0.985 . S
C894 C888 1.379 . S
C894 C891 1.363 1_655 S
C894 N892 1.356 . S
C895 C889 1.363 1_455 S
C895 C890 1.379 . S
C895 N893 1.356 . S
N896 C888 1.356 . S
N896 H902 0.984 . S
N896 H903 0.984 . S
N897 C890 1.356 . S
N897 H900 0.984 . S
N897 H901 0.985 . S
H898 N893 0.984 . S
H899 N893 0.985 . S
H900 N897 0.984 . S
H901 N897 0.985 . S
H902 N896 0.984 . S
H903 N896 0.984 . S
H904 N892 0.984 . S
H905 N892 0.985 . S
C906 C907 1.363 1_545 S
C906 C912 1.379 . S
C906 N914 1.356 . S
C907 C906 1.363 1_565 S
C907 C913 1.363 . S
C908 C909 1.363 1_565 S
C908 C913 1.379 . S
C908 N915 1.356 . S
C909 C908 1.363 1_545 S
C909 C912 1.363 . S
N910 C912 1.356 . S
N910 H922 0.984 . S
N910 H923 0.985 . S
N911 C913 1.356 . S
N911 H916 0.984 . S
N911 H917 0.985 . S
C912 C906 1.379 . S
C912 C909 1.363 . S
C912 N910 1.356 . S
C913 C907 1.363 . S
C913 C908 1.379 . S
C913 N911 1.356 . S
N914 C906 1.356 . S
N914 H920 0.984 . S
N914 H921 0.984 . S
N915 C908 1.356 . S
N915 H918 0.984 . S
N915 H919 0.985 . S
H916 N911 0.984 . S
H917 N911 0.985 . S
H918 N915 0.984 . S
H919 N915 0.985 . S
H920 N914 0.984 . S
H921 N914 0.984 . S
H922 N910 0.984 . S
H923 N910 0.985 . S
C924 C925 1.363 . S
C924 C930 1.379 . S
C924 N932 1.356 . S
C925 C924 1.363 . S
C925 C931 1.363 . S
C926 C927 1.363 . S
C926 C931 1.379 . S
C926 N933 1.356 . S
C927 C926 1.363 . S
C927 C930 1.363 . S
N928 C930 1.356 . S
N928 H940 0.984 . S
N928 H941 0.985 . S
N929 C931 1.356 . S
N929 H934 0.984 1_545 S
N929 H935 0.985 . S
C930 C924 1.379 . S
C930 C927 1.363 . S
C930 N928 1.356 . S
C931 C925 1.363 . S
C931 C926 1.379 . S
C931 N929 1.356 . S
N932 C924 1.356 . S
N932 H938 0.984 . S
N932 H939 0.984 . S
N933 C926 1.356 . S
N933 H936 0.984 . S
N933 H937 0.985 . S
H934 N929 0.984 1_565 S
H935 N929 0.985 . S
H936 N933 0.984 . S
H937 N933 0.985 . S
H938 N932 0.984 . S
H939 N932 0.984 . S
H940 N928 0.984 . S
H941 N928 0.985 . S
C942 C943 1.363 . S
C942 C948 1.379 . S
C942 N950 1.356 . S
C943 C942 1.363 . S
C943 C949 1.363 . S
C944 C945 1.363 . S
C944 C949 1.379 . S
C944 N951 1.356 . S
C945 C944 1.363 . S
C945 C948 1.363 . S
N946 C948 1.356 . S
N946 H958 0.984 . S
N946 H959 0.985 . S
N947 C949 1.356 . S
N947 H952 0.984 . S
N947 H953 0.985 . S
C948 C942 1.379 . S
C948 C945 1.363 . S
C948 N946 1.356 . S
C949 C943 1.363 . S
C949 C944 1.379 . S
C949 N947 1.356 . S
N950 C942 1.356 . S
N950 H956 0.984 . S
N950 H957 0.984 1_455 S
N951 C944 1.356 . S
N951 H954 0.984 . S
N951 H955 0.985 . S
H952 N947 0.984 . S
H953 N947 0.985 . S
H954 N951 0.984 . S
H955 N951 0.985 . S
H956 N950 0.984 . S
H957 N950 0.984 1_655 S
H958 N946 0.984 . S
H959 N946 0.985 . S
C960 C961 1.363 . S
C960 C966 1.379 . S
C960 N968 1.356 . S
C961 C960 1.363 . S
C961 C967 1.363 . S
C962 C963 1.363 . S
C962 C967 1.379 . S
C962 N969 1.356 . S
C963 C962 1.363 . S
C963 C966 1.363 . S
N964 C966 1.356 . S
N964 H976 0.984 . S
N964 H977 0.985 1_545 S
N965 C967 1.356 . S
N965 H970 0.984 . S
N965 H971 0.985 . S
C966 C960 1.379 . S
C966 C963 1.363 . S
C966 N964 1.356 . S
C967 C961 1.363 . S
C967 C962 1.379 . S
C967 N965 1.356 . S
N968 C960 1.356 . S
N968 H974 0.984 1_655 S
N968 H975 0.984 1_655 S
N969 C962 1.356 . S
N969 H972 0.984 . S
N969 H973 0.985 . S
H970 N965 0.984 . S
H971 N965 0.985 . S
H972 N969 0.984 . S
H973 N969 0.985 . S
H974 N968 0.984 1_455 S
H975 N968 0.984 1_455 S
H976 N964 0.984 . S
H977 N964 0.985 1_565 S
C978 C979 1.363 . S
C978 C984 1.379 . S
C978 N986 1.356 . S
C979 C978 1.363 . S
C979 C985 1.363 . S
C980 C981 1.363 . S
C980 C985 1.379 . S
C980 N987 1.356 . S
C981 C980 1.363 . S
C981 C984 1.363 . S
N982 C984 1.356 . S
N982 H994 0.984 . S
N982 H995 0.985 . S
N983 C985 1.356 . S
N983 H988 0.984 . S
N983 H989 0.985 . S
C984 C978 1.379 . S
C984 C981 1.363 . S
C984 N982 1.356 . S
C985 C979 1.363 . S
C985 C980 1.379 . S
C985 N983 1.356 . S
N986 C978 1.356 . S
N986 H992 0.985 . S
N986 H993 0.984 1_565 S
N987 C980 1.356 . S
N987 H990 0.984 . S
N987 H991 0.985 . S
H988 N983 0.984 . S
H989 N983 0.985 . S
H990 N987 0.984 . S
H991 N987 0.985 . S
H992 N986 0.985 . S
H993 N986 0.984 1_545 S
H994 N982 0.984 . S
H995 N982 0.985 . S
C996 C997 1.363 . S
C996 C1002 1.379 . S
C996 N1004 1.356 . S
C997 C996 1.363 . S
C997 C1003 1.363 . S
C998 C999 1.363 . S
C998 C1003 1.379 . S
C998 N1005 1.356 . S
C999 C998 1.363 . S
C999 C1002 1.363 . S
N1000 C1002 1.356 . S
N1000 H1012 0.984 . S
N1000 H1013 0.985 . S
N1001 C1003 1.356 . S
N1001 H1006 0.984 . S
N1001 H1007 0.985 . S
C1002 C996 1.379 . S
C1002 C999 1.363 . S
C1002 N1000 1.356 . S
C1003 C997 1.363 . S
C1003 C998 1.379 . S
C1003 N1001 1.356 . S
N1004 C996 1.356 . S
N1004 H1010 0.984 . S
N1004 H1011 0.984 . S
N1005 C998 1.356 . S
N1005 H1008 0.984 1_655 S
N1005 H1009 0.985 1_655 S
H1006 N1001 0.984 . S
H1007 N1001 0.985 . S
H1008 N1005 0.984 1_455 S
H1009 N1005 0.985 1_455 S
H1010 N1004 0.984 . S
H1011 N1004 0.984 . S
H1012 N1000 0.984 . S
H1013 N1000 0.985 . S
C1014 C1015 1.363 . S
C1014 C1020 1.379 . S
C1014 N1022 1.356 . S
C1015 C1014 1.363 . S
C1015 C1021 1.363 . S
C1016 C1017 1.363 . S
C1016 C1021 1.379 . S
C1016 N1023 1.356 . S
C1017 C1016 1.363 . S
C1017 C1020 1.363 . S
N1018 C1020 1.356 . S
N1018 H1030 0.984 . S
N1018 H1031 0.985 . S
N1019 C1021 1.356 . S
N1019 H1024 0.984 . S
N1019 H1025 0.985 . S
C1020 C1014 1.379 . S
C1020 C1017 1.363 . S
C1020 N1018 1.356 . S
C1021 C1015 1.363 . S
C1021 C1016 1.379 . S
C1021 N1019 1.356 . S
N1022 C1014 1.356 . S
N1022 H1028 0.984 . S
N1022 H1029 0.984 . S
N1023 C1016 1.356 . S
N1023 H1026 0.984 1_455 S
N1023 H1027 0.985 1_455 S
H1024 N1019 0.984 . S
H1025 N1019 0.985 . S
H1026 N1023 0.984 1_655 S
H1027 N1023 0.985 1_655 S
H1028 N1022 0.984 . S
H1029 N1022 0.984 . S
H1030 N1018 0.984 . S
H1031 N1018 0.985 . S
C1032 C1033 1.363 . S
C1032 C1038 1.379 . S
C1032 N1040 1.356 . S
C1033 C1032 1.363 . S
C1033 C1039 1.363 . S
C1034 C1035 1.363 . S
C1034 C1039 1.379 . S
C1034 N1041 1.356 . S
C1035 C1034 1.363 . S
C1035 C1038 1.363 . S
N1036 C1038 1.356 . S
N1036 H1048 0.984 . S
N1036 H1049 0.985 . S
N1037 C1039 1.356 . S
N1037 H1042 0.984 . S
N1037 H1043 0.985 . S
C1038 C1032 1.379 . S
C1038 C1035 1.363 . S
C1038 N1036 1.356 . S
C1039 C1033 1.363 . S
C1039 C1034 1.379 . S
C1039 N1037 1.356 . S
N1040 C1032 1.356 . S
N1040 H1046 0.984 . S
N1040 H1047 0.984 . S
N1041 C1034 1.356 . S
N1041 H1044 0.984 . S
N1041 H1045 0.985 . S
H1042 N1037 0.984 . S
H1043 N1037 0.985 . S
H1044 N1041 0.984 . S
H1045 N1041 0.985 . S
H1046 N1040 0.984 . S
H1047 N1040 0.984 . S
H1048 N1036 0.984 . S
H1049 N1036 0.985 . S
C1050 C1051 1.363 1_455 S
C1050 C1056 1.379 . S
C1050 N1058 1.356 . S
C1051 C1050 1.363 1_655 S
C1051 C1057 1.363 . S
C1052 C1053 1.363 1_655 S
C1052 C1057 1.379 . S
C1052 N1059 1.356 . S
C1053 C1052 1.363 1_455 S
C1053 C1056 1.363 . S
N1054 C1056 1.356 . S
N1054 H1066 0.984 . S
N1054 H1067 0.985 . S
N1055 C1057 1.356 . S
N1055 H1060 0.984 . S
N1055 H1061 0.985 . S
C1056 C1050 1.379 . S
C1056 C1053 1.363 . S
C1056 N1054 1.356 . S
C1057 C1051 1.363 . S
C1057 C1052 1.379 . S
C1057 N1055 1.356 . S
N1058 C1050 1.356 . S
N1058 H1064 0.984 . S
N1058 H1065 0.984 . S
N1059 C1052 1.356 . S
N1059 H1062 0.984 . S
N1059 H1063 0.985 . S
H1060 N1055 0.984 . S
H1061 N1055 0.985 . S
H1062 N1059 0.984 . S
H1063 N1059 0.985 . S
H1064 N1058 0.984 . S
H1065 N1058 0.984 . S
H1066 N1054 0.984 . S
H1067 N1054 0.985 . S
C1068 C1069 1.363 1_565 S
C1068 C1074 1.379 1_554 S
C1068 N1076 1.356 . S
C1069 C1068 1.363 1_545 S
C1069 C1075 1.363 . S
C1070 C1071 1.363 1_545 S
C1070 C1075 1.379 1_556 S
C1070 N1077 1.356 . S
C1071 C1070 1.363 1_565 S
C1071 C1074 1.363 . S
N1072 C1074 1.356 . S
N1072 H1084 0.984 . S
N1072 H1085 0.985 . S
N1073 C1075 1.356 . S
N1073 H1078 0.984 . S
N1073 H1079 0.985 . S
C1074 C1068 1.379 1_556 S
C1074 C1071 1.363 . S
C1074 N1072 1.356 . S
C1075 C1069 1.363 . S
C1075 C1070 1.379 1_554 S
C1075 N1073 1.356 . S
N1076 C1068 1.356 . S
N1076 H1082 0.984 . S
N1076 H1083 0.984 1_565 S
N1077 C1070 1.356 . S
N1077 H1080 0.984 1_545 S
N1077 H1081 0.985 . S
H1078 N1073 0.984 . S
H1079 N1073 0.985 . S
H1080 N1077 0.984 1_565 S
H1081 N1077 0.985 . S
H1082 N1076 0.984 . S
H1083 N1076 0.984 1_545 S
H1084 N1072 0.984 . S
H1085 N1072 0.985 . S
C1086 C1087 1.363 . S
C1086 C1092 1.379 . S
C1086 N1094 1.356 . S
C1087 C1086 1.363 . S
C1087 C1093 1.363 . S
C1088 C1089 1.363 . S
C1088 C1093 1.379 . S
C1088 N1095 1.356 . S
C1089 C1088 1.363 . S
C1089 C1092 1.363 . S
N1090 C1092 1.356 . S
N1090 H1102 0.984 . S
N1090 H1103 0.985 . S
N1091 C1093 1.356 . S
N1091 H1096 0.984 . S
N1091 H1097 0.985 . S
C1092 C1086 1.379 . S
C1092 C1089 1.363 . S
C1092 N1090 1.356 . S
C1093 C1087 1.363 . S
C1093 C1088 1.379 . S
C1093 N1091 1.356 . S
N1094 C1086 1.356 . S
N1094 H1100 0.984 . S
N1094 H1101 0.984 . S
N1095 C1088 1.356 . S
N1095 H1098 0.984 . S
N1095 H1099 0.985 . S
H1096 N1091 0.984 . S
H1097 N1091 0.985 . S
H1098 N1095 0.984 . S
H1099 N1095 0.985 . S
H1100 N1094 0.984 . S
H1101 N1094 0.984 . S
H1102 N1090 0.984 . S
H1103 N1090 0.985 . S
C1104 C1105 1.363 . S
C1104 C1110 1.379 . S
C1104 N1112 1.356 . S
C1105 C1104 1.363 . S
C1105 C1111 1.363 1_455 S
C1106 C1107 1.363 . S
C1106 C1111 1.379 . S
C1106 N1113 1.356 . S
C1107 C1106 1.363 . S
C1107 C1110 1.363 1_655 S
N1108 C1110 1.356 . S
N1108 H1120 0.984 . S
N1108 H1121 0.985 . S
N1109 C1111 1.356 . S
N1109 H1114 0.984 . S
N1109 H1115 0.985 . S
C1110 C1104 1.379 . S
C1110 C1107 1.363 1_455 S
C1110 N1108 1.356 . S
C1111 C1105 1.363 1_655 S
C1111 C1106 1.379 . S
C1111 N1109 1.356 . S
N1112 C1104 1.356 . S
N1112 H1118 0.984 . S
N1112 H1119 0.984 . S
N1113 C1106 1.356 . S
N1113 H1116 0.984 . S
N1113 H1117 0.985 . S
H1114 N1109 0.984 . S
H1115 N1109 0.985 . S
H1116 N1113 0.984 . S
H1117 N1113 0.985 . S
H1118 N1112 0.984 . S
H1119 N1112 0.984 . S
H1120 N1108 0.984 . S
H1121 N1108 0.985 . S
C1122 C1123 1.363 1_545 S
C1122 C1128 1.379 1_554 S
C1122 N1130 1.356 . S
C1123 C1122 1.363 1_565 S
C1123 C1129 1.363 . S
C1124 C1125 1.363 1_565 S
C1124 C1129 1.379 1_556 S
C1124 N1131 1.356 . S
C1125 C1124 1.363 1_545 S
C1125 C1128 1.363 . S
N1126 C1128 1.356 . S
N1126 H1138 0.984 . S
N1126 H1139 0.985 . S
N1127 C1129 1.356 . S
N1127 H1132 0.984 . S
N1127 H1133 0.985 . S
C1128 C1122 1.379 1_556 S
C1128 C1125 1.363 . S
C1128 N1126 1.356 . S
C1129 C1123 1.363 . S
C1129 C1124 1.379 1_554 S
C1129 N1127 1.356 . S
N1130 C1122 1.356 . S
N1130 H1136 0.984 . S
N1130 H1137 0.984 . S
N1131 C1124 1.356 . S
N1131 H1134 0.984 . S
N1131 H1135 0.985 . S
H1132 N1127 0.984 . S
H1133 N1127 0.985 . S
H1134 N1131 0.984 . S
H1135 N1131 0.985 . S
H1136 N1130 0.984 . S
H1137 N1130 0.984 . S
H1138 N1126 0.984 . S
H1139 N1126 0.985 . S
C709 C682 1.816 . S
C711 C33 1.816 . S
C727 C92 1.816 . S
C729 C387 1.816 . S
C745 C151 1.816 . S
C747 C446 1.816 . S
C763 C210 1.816 . S
C765 C505 1.816 . S
C781 C564 1.816 . S
C783 C269 1.816 . S
C799 C328 1.816 . S
C801 C623 1.816 . S
C817 C180 1.429 . S
C819 C3 1.429 . S
C835 C239 1.429 . S
C837 C62 1.429 . S
C853 C298 1.429 . S
C855 C121 1.429 . S
C871 C357 1.429 . S
C873 C534 1.429 . S
C889 C416 1.429 . S
C891 C593 1.429 . S
C907 C475 1.429 . S
C909 C652 1.429 . S
C925 C524 0.639 . S
C927 C52 0.639 . S
C943 C111 0.639 . S
C945 C583 0.639 . S
C961 C642 0.638 . S
C963 C170 0.638 . S
C979 C701 0.639 . S
C981 C229 0.639 . S
C997 C406 0.639 . S
C999 C288 0.639 . S
C1015 C347 0.638 . S
C1017 C465 0.638 . S
C1033 C536 1.689 . S
C1035 C5 1.689 . S
C1051 C64 1.689 . S
C1053 C595 1.689 . S
C1069 C654 1.689 . S
C1071 C123 1.689 . S
C1087 C182 1.689 . S
C1089 C359 1.689 . S
C1105 C241 1.689 . S
C1107 C418 1.689 . S
C1123 C477 1.689 . S
C1125 C300 1.689 . S
