# Generated by pormake.
# Topology lcv-a, (4)-cn, num edge types: 1
# Building blocks:
#     Node 0, Type 0, BuildingBlock: KUFVIS_clean_sbu_0, # of connection points: 4
#     Node 1, Type 0, BuildingBlock: KUFVIS_clean_sbu_0, # of connection points: 4
#     Node 2, Type 0, BuildingBlock: KUFVIS_clean_sbu_0, # of connection points: 4
#     Node 3, Type 0, BuildingBlock: KUFVIS_clean_sbu_0, # of connection points: 4
#     Node 4, Type 0, BuildingBlock: KUFVIS_clean_sbu_0, # of connection points: 4
#     Node 5, Type 0, BuildingBlock: KUFVIS_clean_sbu_0, # of connection points: 4
#     Node 6, Type 0, BuildingBlock: KUFVIS_clean_sbu_0, # of connection points: 4
#     Node 7, Type 0, BuildingBlock: KUFVIS_clean_sbu_0, # of connection points: 4
#     Node 8, Type 0, BuildingBlock: KUFVIS_clean_sbu_0, # of connection points: 4
#     Node 9, Type 0, BuildingBlock: KUFVIS_clean_sbu_0, # of connection points: 4
#     Node 10, Type 0, BuildingBlock: KUFVIS_clean_sbu_0, # of connection points: 4
#     Node 11, Type 0, BuildingBlock: KUFVIS_clean_sbu_0, # of connection points: 4
#     Node 12, Type 0, BuildingBlock: KUFVIS_clean_sbu_0, # of connection points: 4
#     Node 13, Type 0, BuildingBlock: KUFVIS_clean_sbu_0, # of connection points: 4
#     Node 14, Type 0, BuildingBlock: KUFVIS_clean_sbu_0, # of connection points: 4
#     Node 15, Type 0, BuildingBlock: KUFVIS_clean_sbu_0, # of connection points: 4
#     Node 16, Type 0, BuildingBlock: KUFVIS_clean_sbu_0, # of connection points: 4
#     Node 17, Type 0, BuildingBlock: KUFVIS_clean_sbu_0, # of connection points: 4
#     Node 18, Type 0, BuildingBlock: KUFVIS_clean_sbu_0, # of connection points: 4
#     Node 19, Type 0, BuildingBlock: KUFVIS_clean_sbu_0, # of connection points: 4
#     Node 20, Type 0, BuildingBlock: KUFVIS_clean_sbu_0, # of connection points: 4
#     Node 21, Type 0, BuildingBlock: KUFVIS_clean_sbu_0, # of connection points: 4
#     Node 22, Type 0, BuildingBlock: KUFVIS_clean_sbu_0, # of connection points: 4
#     Node 23, Type 0, BuildingBlock: KUFVIS_clean_sbu_0, # of connection points: 4
#     Node 24, Type 0, BuildingBlock: KUFVIS_clean_sbu_0, # of connection points: 4
#     Node 25, Type 0, BuildingBlock: KUFVIS_clean_sbu_0, # of connection points: 4
#     Node 26, Type 0, BuildingBlock: KUFVIS_clean_sbu_0, # of connection points: 4
#     Node 27, Type 0, BuildingBlock: KUFVIS_clean_sbu_0, # of connection points: 4
#     Node 28, Type 0, BuildingBlock: KUFVIS_clean_sbu_0, # of connection points: 4
#     Node 29, Type 0, BuildingBlock: KUFVIS_clean_sbu_0, # of connection points: 4
#     Node 30, Type 0, BuildingBlock: KUFVIS_clean_sbu_0, # of connection points: 4
#     Node 31, Type 0, BuildingBlock: KUFVIS_clean_sbu_0, # of connection points: 4
#     Node 32, Type 0, BuildingBlock: KUFVIS_clean_sbu_0, # of connection points: 4
#     Node 33, Type 0, BuildingBlock: KUFVIS_clean_sbu_0, # of connection points: 4
#     Node 34, Type 0, BuildingBlock: KUFVIS_clean_sbu_0, # of connection points: 4
#     Node 35, Type 0, BuildingBlock: KUFVIS_clean_sbu_0, # of connection points: 4
#     Node 36, Type 0, BuildingBlock: KUFVIS_clean_sbu_0, # of connection points: 4
#     Node 37, Type 0, BuildingBlock: KUFVIS_clean_sbu_0, # of connection points: 4
#     Node 38, Type 0, BuildingBlock: KUFVIS_clean_sbu_0, # of connection points: 4
#     Node 39, Type 0, BuildingBlock: KUFVIS_clean_sbu_0, # of connection points: 4
#     Node 40, Type 0, BuildingBlock: KUFVIS_clean_sbu_0, # of connection points: 4
#     Node 41, Type 0, BuildingBlock: KUFVIS_clean_sbu_0, # of connection points: 4
#     Node 42, Type 0, BuildingBlock: KUFVIS_clean_sbu_0, # of connection points: 4
#     Node 43, Type 0, BuildingBlock: KUFVIS_clean_sbu_0, # of connection points: 4
#     Node 44, Type 0, BuildingBlock: KUFVIS_clean_sbu_0, # of connection points: 4
#     Node 45, Type 0, BuildingBlock: KUFVIS_clean_sbu_0, # of connection points: 4
#     Node 46, Type 0, BuildingBlock: KUFVIS_clean_sbu_0, # of connection points: 4
#     Node 47, Type 0, BuildingBlock: KUFVIS_clean_sbu_0, # of connection points: 4
#     Edge 48, Type (0, 0), BuildingBlock: CIFDUS_clean_linker_0, # of connection points: 2
#     Edge 49, Type (0, 0), BuildingBlock: CIFDUS_clean_linker_0, # of connection points: 2
#     Edge 50, Type (0, 0), BuildingBlock: CIFDUS_clean_linker_0, # of connection points: 2
#     Edge 51, Type (0, 0), BuildingBlock: CIFDUS_clean_linker_0, # of connection points: 2
#     Edge 52, Type (0, 0), BuildingBlock: CIFDUS_clean_linker_0, # of connection points: 2
#     Edge 53, Type (0, 0), BuildingBlock: CIFDUS_clean_linker_0, # of connection points: 2
#     Edge 54, Type (0, 0), BuildingBlock: CIFDUS_clean_linker_0, # of connection points: 2
#     Edge 55, Type (0, 0), BuildingBlock: CIFDUS_clean_linker_0, # of connection points: 2
#     Edge 56, Type (0, 0), BuildingBlock: CIFDUS_clean_linker_0, # of connection points: 2
#     Edge 57, Type (0, 0), BuildingBlock: CIFDUS_clean_linker_0, # of connection points: 2
#     Edge 58, Type (0, 0), BuildingBlock: CIFDUS_clean_linker_0, # of connection points: 2
#     Edge 59, Type (0, 0), BuildingBlock: CIFDUS_clean_linker_0, # of connection points: 2
#     Edge 60, Type (0, 0), BuildingBlock: CIFDUS_clean_linker_0, # of connection points: 2
#     Edge 61, Type (0, 0), BuildingBlock: CIFDUS_clean_linker_0, # of connection points: 2
#     Edge 62, Type (0, 0), BuildingBlock: CIFDUS_clean_linker_0, # of connection points: 2
#     Edge 63, Type (0, 0), BuildingBlock: CIFDUS_clean_linker_0, # of connection points: 2
#     Edge 64, Type (0, 0), BuildingBlock: CIFDUS_clean_linker_0, # of connection points: 2
#     Edge 65, Type (0, 0), BuildingBlock: CIFDUS_clean_linker_0, # of connection points: 2
#     Edge 66, Type (0, 0), BuildingBlock: CIFDUS_clean_linker_0, # of connection points: 2
#     Edge 67, Type (0, 0), BuildingBlock: CIFDUS_clean_linker_0, # of connection points: 2
#     Edge 68, Type (0, 0), BuildingBlock: CIFDUS_clean_linker_0, # of connection points: 2
#     Edge 69, Type (0, 0), BuildingBlock: CIFDUS_clean_linker_0, # of connection points: 2
#     Edge 70, Type (0, 0), BuildingBlock: CIFDUS_clean_linker_0, # of connection points: 2
#     Edge 71, Type (0, 0), BuildingBlock: CIFDUS_clean_linker_0, # of connection points: 2
#     Edge 72, Type (0, 0), BuildingBlock: CIFDUS_clean_linker_0, # of connection points: 2
#     Edge 73, Type (0, 0), BuildingBlock: CIFDUS_clean_linker_0, # of connection points: 2
#     Edge 74, Type (0, 0), BuildingBlock: CIFDUS_clean_linker_0, # of connection points: 2
#     Edge 75, Type (0, 0), BuildingBlock: CIFDUS_clean_linker_0, # of connection points: 2
#     Edge 76, Type (0, 0), BuildingBlock: CIFDUS_clean_linker_0, # of connection points: 2
#     Edge 77, Type (0, 0), BuildingBlock: CIFDUS_clean_linker_0, # of connection points: 2
#     Edge 78, Type (0, 0), BuildingBlock: CIFDUS_clean_linker_0, # of connection points: 2
#     Edge 79, Type (0, 0), BuildingBlock: CIFDUS_clean_linker_0, # of connection points: 2
#     Edge 80, Type (0, 0), BuildingBlock: CIFDUS_clean_linker_0, # of connection points: 2
#     Edge 81, Type (0, 0), BuildingBlock: CIFDUS_clean_linker_0, # of connection points: 2
#     Edge 82, Type (0, 0), BuildingBlock: CIFDUS_clean_linker_0, # of connection points: 2
#     Edge 83, Type (0, 0), BuildingBlock: CIFDUS_clean_linker_0, # of connection points: 2
#     Edge 84, Type (0, 0), BuildingBlock: CIFDUS_clean_linker_0, # of connection points: 2
#     Edge 85, Type (0, 0), BuildingBlock: CIFDUS_clean_linker_0, # of connection points: 2
#     Edge 86, Type (0, 0), BuildingBlock: CIFDUS_clean_linker_0, # of connection points: 2
#     Edge 87, Type (0, 0), BuildingBlock: CIFDUS_clean_linker_0, # of connection points: 2
#     Edge 88, Type (0, 0), BuildingBlock: CIFDUS_clean_linker_0, # of connection points: 2
#     Edge 89, Type (0, 0), BuildingBlock: CIFDUS_clean_linker_0, # of connection points: 2
#     Edge 90, Type (0, 0), BuildingBlock: CIFDUS_clean_linker_0, # of connection points: 2
#     Edge 91, Type (0, 0), BuildingBlock: CIFDUS_clean_linker_0, # of connection points: 2
#     Edge 92, Type (0, 0), BuildingBlock: CIFDUS_clean_linker_0, # of connection points: 2
#     Edge 93, Type (0, 0), BuildingBlock: CIFDUS_clean_linker_0, # of connection points: 2
#     Edge 94, Type (0, 0), BuildingBlock: CIFDUS_clean_linker_0, # of connection points: 2
#     Edge 95, Type (0, 0), BuildingBlock: CIFDUS_clean_linker_0, # of connection points: 2
#     Edge 96, Type (0, 0), BuildingBlock: CIFDUS_clean_linker_0, # of connection points: 2
#     Edge 97, Type (0, 0), BuildingBlock: CIFDUS_clean_linker_0, # of connection points: 2
#     Edge 98, Type (0, 0), BuildingBlock: CIFDUS_clean_linker_0, # of connection points: 2
#     Edge 99, Type (0, 0), BuildingBlock: CIFDUS_clean_linker_0, # of connection points: 2
#     Edge 100, Type (0, 0), BuildingBlock: CIFDUS_clean_linker_0, # of connection points: 2
#     Edge 101, Type (0, 0), BuildingBlock: CIFDUS_clean_linker_0, # of connection points: 2
#     Edge 102, Type (0, 0), BuildingBlock: CIFDUS_clean_linker_0, # of connection points: 2
#     Edge 103, Type (0, 0), BuildingBlock: CIFDUS_clean_linker_0, # of connection points: 2
#     Edge 104, Type (0, 0), BuildingBlock: CIFDUS_clean_linker_0, # of connection points: 2
#     Edge 105, Type (0, 0), BuildingBlock: CIFDUS_clean_linker_0, # of connection points: 2
#     Edge 106, Type (0, 0), BuildingBlock: CIFDUS_clean_linker_0, # of connection points: 2
#     Edge 107, Type (0, 0), BuildingBlock: CIFDUS_clean_linker_0, # of connection points: 2
#     Edge 108, Type (0, 0), BuildingBlock: CIFDUS_clean_linker_0, # of connection points: 2
#     Edge 109, Type (0, 0), BuildingBlock: CIFDUS_clean_linker_0, # of connection points: 2
#     Edge 110, Type (0, 0), BuildingBlock: CIFDUS_clean_linker_0, # of connection points: 2
#     Edge 111, Type (0, 0), BuildingBlock: CIFDUS_clean_linker_0, # of connection points: 2
#     Edge 112, Type (0, 0), BuildingBlock: CIFDUS_clean_linker_0, # of connection points: 2
#     Edge 113, Type (0, 0), BuildingBlock: CIFDUS_clean_linker_0, # of connection points: 2
#     Edge 114, Type (0, 0), BuildingBlock: CIFDUS_clean_linker_0, # of connection points: 2
#     Edge 115, Type (0, 0), BuildingBlock: CIFDUS_clean_linker_0, # of connection points: 2
#     Edge 116, Type (0, 0), BuildingBlock: CIFDUS_clean_linker_0, # of connection points: 2
#     Edge 117, Type (0, 0), BuildingBlock: CIFDUS_clean_linker_0, # of connection points: 2
#     Edge 118, Type (0, 0), BuildingBlock: CIFDUS_clean_linker_0, # of connection points: 2
#     Edge 119, Type (0, 0), BuildingBlock: CIFDUS_clean_linker_0, # of connection points: 2
#     Edge 120, Type (0, 0), BuildingBlock: CIFDUS_clean_linker_0, # of connection points: 2
#     Edge 121, Type (0, 0), BuildingBlock: CIFDUS_clean_linker_0, # of connection points: 2
#     Edge 122, Type (0, 0), BuildingBlock: CIFDUS_clean_linker_0, # of connection points: 2
#     Edge 123, Type (0, 0), BuildingBlock: CIFDUS_clean_linker_0, # of connection points: 2
#     Edge 124, Type (0, 0), BuildingBlock: CIFDUS_clean_linker_0, # of connection points: 2
#     Edge 125, Type (0, 0), BuildingBlock: CIFDUS_clean_linker_0, # of connection points: 2
#     Edge 126, Type (0, 0), BuildingBlock: CIFDUS_clean_linker_0, # of connection points: 2
#     Edge 127, Type (0, 0), BuildingBlock: CIFDUS_clean_linker_0, # of connection points: 2
#     Edge 128, Type (0, 0), BuildingBlock: CIFDUS_clean_linker_0, # of connection points: 2
#     Edge 129, Type (0, 0), BuildingBlock: CIFDUS_clean_linker_0, # of connection points: 2
#     Edge 130, Type (0, 0), BuildingBlock: CIFDUS_clean_linker_0, # of connection points: 2
#     Edge 131, Type (0, 0), BuildingBlock: CIFDUS_clean_linker_0, # of connection points: 2
#     Edge 132, Type (0, 0), BuildingBlock: CIFDUS_clean_linker_0, # of connection points: 2
#     Edge 133, Type (0, 0), BuildingBlock: CIFDUS_clean_linker_0, # of connection points: 2
#     Edge 134, Type (0, 0), BuildingBlock: CIFDUS_clean_linker_0, # of connection points: 2
#     Edge 135, Type (0, 0), BuildingBlock: CIFDUS_clean_linker_0, # of connection points: 2
#     Edge 136, Type (0, 0), BuildingBlock: CIFDUS_clean_linker_0, # of connection points: 2
#     Edge 137, Type (0, 0), BuildingBlock: CIFDUS_clean_linker_0, # of connection points: 2
#     Edge 138, Type (0, 0), BuildingBlock: CIFDUS_clean_linker_0, # of connection points: 2
#     Edge 139, Type (0, 0), BuildingBlock: CIFDUS_clean_linker_0, # of connection points: 2
#     Edge 140, Type (0, 0), BuildingBlock: CIFDUS_clean_linker_0, # of connection points: 2
#     Edge 141, Type (0, 0), BuildingBlock: CIFDUS_clean_linker_0, # of connection points: 2
#     Edge 142, Type (0, 0), BuildingBlock: CIFDUS_clean_linker_0, # of connection points: 2
#     Edge 143, Type (0, 0), BuildingBlock: CIFDUS_clean_linker_0, # of connection points: 2
# Relax obj value: 0.853
# Max RMSD: 0.393
# Mean RMSD: 0.311
data_MOF--net-lcv-a--node1-KUFVIS_clean_sbu_0--edge1-CIFDUS_clean_linker_0
_symmetry_space_group_name_H-M    P1
_symmetry_Int_Tables_number       1
_symmetry_cell_setting            triclinic
loop_
_symmetry_equiv_pos_as_xyz
'x, y, z'
_cell_length_a     73.898593
_cell_length_b     73.899683
_cell_length_c     73.876879
_cell_angle_alpha  90.325651
_cell_angle_beta   90.288567
_cell_angle_gamma 90.296356
loop_
_atom_site_label
_atom_site_type_symbol
_atom_site_fract_x
_atom_site_fract_y
_atom_site_fract_z
_atom_type_partial_charge
Mn0 Mn 0.04391 0.33713 0.22977 0.0
Mn1 Mn 0.01017 0.30837 0.21782 0.0
C2 C 0.02285 0.3466 0.20646 0.0
C3 C 0.01991 0.35245 0.24949 0.0
C4 C 0.04822 0.30442 0.20425 0.0
O5 O 0.04458 0.31675 0.24934 0.0
O6 O 0.01733 0.3043 0.24294 0.0
C7 C 0.97824 0.31388 0.24112 0.0
N8 N 0.98582 0.3141 0.22437 0.0
C9 C 0.95637 0.3133 0.21013 0.0
C10 C 0.94832 0.31418 0.22724 0.0
C11 C 0.95932 0.31435 0.24281 0.0
C12 C 0.97527 0.31285 0.20938 0.0
H13 H 0.98658 0.31357 0.2531 0.0
C14 C 0.03103 0.30654 0.25334 0.0
O15 O 0.03638 0.35668 0.24913 0.0
O16 O 0.01671 0.33927 0.23895 0.0
N17 N 0.00223 0.31085 0.19375 0.0
C18 C 0.01227 0.31096 0.17854 0.0
C19 C 0.00367 0.31103 0.16195 0.0
C20 C 0.98472 0.3118 0.16083 0.0
C21 C 0.97456 0.31147 0.17673 0.0
C22 C 0.98403 0.31127 0.19312 0.0
H23 H 0.02671 0.31117 0.17887 0.0
O24 O 0.03808 0.35465 0.20925 0.0
O25 O 0.01931 0.33408 0.21846 0.0
O26 O 0.05424 0.31982 0.2093 0.0
O27 O 0.03329 0.29851 0.2102 0.0
C28 C 0.95553 0.31191 0.17705 0.0
C29 C 0.94642 0.31265 0.19378 0.0
H30 H 0.93374 0.31446 0.22858 0.0
H31 H 0.95322 0.3146 0.2561 0.0
H32 H 0.0121 0.30953 0.15036 0.0
H33 H 0.97811 0.31275 0.14783 0.0
H34 H 0.94783 0.31187 0.16453 0.0
H35 H 0.93177 0.31294 0.19392 0.0
Mn36 Mn 0.90699 0.80279 0.39986 0.0
Mn37 Mn 0.94511 0.78678 0.41426 0.0
C38 C 0.91151 0.77048 0.39403 0.0
C39 C 0.87686 0.80913 0.40706 0.0
C40 C 0.94323 0.81738 0.39054 0.0
O41 O 0.91629 0.81799 0.42294 0.0
O42 O 0.93162 0.7954 0.43584 0.0
C43 C 0.96932 0.78772 0.44518 0.0
N44 N 0.96778 0.78801 0.42679 0.0
C45 C 0.99554 0.77128 0.42377 0.0
C46 C 0.9962 0.76936 0.44255 0.0
C47 C 0.98333 0.77805 0.45333 0.0
C48 C 0.98071 0.78043 0.41628 0.0
H49 H 0.95879 0.79291 0.45365 0.0
C50 C 0.92391 0.81077 0.43705 0.0
O51 O 0.88558 0.819 0.39553 0.0
O52 O 0.88563 0.79609 0.41459 0.0
N53 N 0.95975 0.78205 0.39288 0.0
C54 C 0.95453 0.78003 0.37523 0.0
C55 C 0.96723 0.77442 0.3623 0.0
C56 C 0.98485 0.7699 0.36778 0.0
C57 C 0.98967 0.77136 0.38609 0.0
C58 C 0.97705 0.77894 0.39803 0.0
H59 H 0.94067 0.7823 0.37119 0.0
O60 O 0.89969 0.77939 0.38468 0.0
O61 O 0.92159 0.78203 0.40291 0.0
O62 O 0.92797 0.81324 0.383 0.0
O63 O 0.94612 0.8122 0.40671 0.0
C64 C 0.0056 0.76377 0.39324 0.0
C65 C 0.00812 0.76294 0.41214 0.0
H66 H 0.00618 0.7607 0.44881 0.0
H67 H 0.9835 0.7763 0.46786 0.0
H68 H 0.96323 0.77285 0.34827 0.0
H69 H 0.99425 0.76444 0.35799 0.0
H70 H 0.01541 0.75753 0.38443 0.0
H71 H 0.01984 0.75607 0.41759 0.0
Mn72 Mn 0.48919 0.63045 0.6832 0.0
Mn73 Mn 0.49356 0.67909 0.6694 0.0
C74 C 0.5139 0.63506 0.66193 0.0
C75 C 0.49741 0.60844 0.70432 0.0
C76 C 0.45864 0.65472 0.66568 0.0
O77 O 0.48043 0.64673 0.70426 0.0
O78 O 0.49041 0.6747 0.69626 0.0
C79 C 0.5034 0.71685 0.69656 0.0
N80 N 0.50243 0.71157 0.67909 0.0
C81 C 0.52837 0.73195 0.67172 0.0
C82 C 0.52769 0.73769 0.68983 0.0
C83 C 0.51484 0.73092 0.70179 0.0
C84 C 0.51395 0.72127 0.66444 0.0
H85 H 0.49713 0.7088 0.70671 0.0
C86 C 0.48618 0.66271 0.70828 0.0
O87 O 0.48169 0.60759 0.69633 0.0
O88 O 0.50793 0.62159 0.69989 0.0
N89 N 0.51016 0.6908 0.63417 0.0
C90 C 0.50934 0.68579 0.61641 0.0
C91 C 0.52012 0.69532 0.60515 0.0
C92 C 0.53278 0.70679 0.61349 0.0
C93 C 0.53581 0.70804 0.63375 0.0
C94 C 0.51902 0.70729 0.63951 0.0
H95 H 0.50071 0.67509 0.61121 0.0
O96 O 0.50594 0.61941 0.66255 0.0
O97 O 0.50298 0.64727 0.67166 0.0
O98 O 0.46686 0.63914 0.66699 0.0
O99 O 0.46619 0.67019 0.67025 0.0
C100 C 0.54961 0.71733 0.6484 0.0
C101 C 0.54567 0.7296 0.6638 0.0
H102 H 0.53872 0.74558 0.69555 0.0
H103 H 0.51554 0.73487 0.71589 0.0
H104 H 0.5195 0.6934 0.59061 0.0
H105 H 0.54003 0.71306 0.60258 0.0
H106 H 0.564 0.71805 0.64864 0.0
H107 H 0.55717 0.73571 0.67081 0.0
Mn108 Mn 0.58755 0.30877 0.01303 0.0
Mn109 Mn 0.55562 0.3005 0.98528 0.0
C110 C 0.59712 0.31106 0.98201 0.0
C111 C 0.59589 0.33503 0.0294 0.0
C112 C 0.57615 0.27149 0.00716 0.0
O113 O 0.56296 0.305 0.02764 0.0
O114 O 0.55257 0.3181 0.00457 0.0
C115 C 0.54524 0.33669 0.9712 0.0
N116 N 0.55091 0.31936 0.96836 0.0
C117 C 0.55244 0.32412 0.93634 0.0
C118 C 0.54699 0.34208 0.93885 0.0
C119 C 0.54309 0.34832 0.95638 0.0
C120 C 0.55368 0.31299 0.95155 0.0
H121 H 0.54237 0.34167 0.98465 0.0
C122 C 0.54943 0.31226 0.01995 0.0
O123 O 0.60057 0.3191 0.03516 0.0
O124 O 0.5858 0.33534 0.01522 0.0
N125 N 0.55869 0.28515 0.96526 0.0
C126 C 0.55939 0.26678 0.96491 0.0
C127 C 0.56108 0.25784 0.94844 0.0
C128 C 0.56187 0.26797 0.93265 0.0
C129 C 0.56107 0.28713 0.93331 0.0
C130 C 0.55799 0.29495 0.94999 0.0
H131 H 0.55793 0.25889 0.97694 0.0
O132 O 0.60847 0.3124 0.99526 0.0
O133 O 0.58082 0.30716 0.98723 0.0
O134 O 0.58988 0.28115 0.01198 0.0
O135 O 0.56106 0.27891 0.002 0.0
C136 C 0.56349 0.29894 0.91844 0.0
C137 C 0.5579 0.31707 0.91958 0.0
H138 H 0.54586 0.35119 0.92747 0.0
H139 H 0.53871 0.36212 0.95848 0.0
H140 H 0.56206 0.24323 0.94789 0.0
H141 H 0.56406 0.26052 0.92034 0.0
H142 H 0.56907 0.29419 0.90581 0.0
H143 H 0.55849 0.32557 0.9077 0.0
Mn144 Mn 0.99774 0.68223 0.4391 0.0
Mn145 Mn 0.99365 0.72478 0.43951 0.0
C146 C 0.9672 0.69474 0.43537 0.0
C147 C 0.00439 0.65611 0.42195 0.0
C148 C 0.01037 0.70732 0.46933 0.0
O149 O 0.02209 0.69355 0.42927 0.0
O150 O 0.01134 0.72057 0.42024 0.0
C151 C 0.97713 0.73248 0.40576 0.0
N152 N 0.97716 0.73432 0.424 0.0
C153 C 0.95021 0.75105 0.42471 0.0
C154 C 0.95048 0.75011 0.40587 0.0
C155 C 0.9634 0.74043 0.39622 0.0
C156 C 0.96403 0.74259 0.43342 0.0
H157 H 0.98737 0.72487 0.39873 0.0
C158 C 0.0229 0.70775 0.4191 0.0
O159 O 0.00816 0.65694 0.43914 0.0
O160 O 0.99607 0.6698 0.41515 0.0
N161 N 0.97567 0.72835 0.45826 0.0
C162 C 0.97063 0.71812 0.47277 0.0
C163 C 0.95684 0.724 0.48435 0.0
C164 C 0.94641 0.73886 0.47942 0.0
C165 C 0.94886 0.74607 0.46219 0.0
C166 C 0.96359 0.7401 0.45182 0.0
H167 H 0.97603 0.70503 0.47522 0.0
O168 O 0.96942 0.67849 0.44163 0.0
O169 O 0.98282 0.70217 0.4329 0.0
O170 O 0.0023 0.69199 0.46666 0.0
O171 O 0.01273 0.71688 0.45574 0.0
C172 C 0.93582 0.75676 0.45392 0.0
C173 C 0.93652 0.75904 0.43517 0.0
H174 H 0.94125 0.7572 0.39808 0.0
H175 H 0.96286 0.73951 0.3816 0.0
H176 H 0.95359 0.71645 0.49642 0.0
H177 H 0.93517 0.74295 0.48782 0.0
H178 H 0.92432 0.76182 0.46142 0.0
H179 H 0.92552 0.76583 0.42913 0.0
Mn180 Mn 0.55771 0.7512 0.60544 0.0
Mn181 Mn 0.52345 0.73146 0.64203 0.0
C182 C 0.5662 0.72184 0.6178 0.0
C183 C 0.56297 0.75057 0.57413 0.0
C184 C 0.55156 0.76281 0.63979 0.0
O185 O 0.53138 0.76081 0.60142 0.0
O186 O 0.51277 0.74583 0.62144 0.0
C187 C 0.47718 0.72576 0.63576 0.0
N188 N 0.49146 0.71892 0.64486 0.0
C189 C 0.47833 0.68865 0.64497 0.0
C190 C 0.46352 0.69609 0.63565 0.0
C191 C 0.4625 0.71458 0.63198 0.0
C192 C 0.49088 0.70022 0.65381 0.0
H193 H 0.47787 0.73921 0.63011 0.0
C194 C 0.51573 0.75505 0.60683 0.0
O195 O 0.5677 0.76443 0.58397 0.0
O196 O 0.55467 0.7376 0.58233 0.0
N197 N 0.53211 0.69867 0.66504 0.0
C198 C 0.54529 0.69331 0.67678 0.0
C199 C 0.54332 0.67644 0.68349 0.0
C200 C 0.52981 0.66584 0.67541 0.0
C201 C 0.51807 0.67171 0.65957 0.0
C202 C 0.51548 0.68887 0.66366 0.0
H203 H 0.55673 0.70164 0.68072 0.0
O204 O 0.57821 0.73184 0.60984 0.0
O205 O 0.55125 0.7329 0.62245 0.0
O206 O 0.56167 0.76931 0.62758 0.0
O207 O 0.5461 0.74683 0.63545 0.0
C208 C 0.5021 0.66357 0.64623 0.0
C209 C 0.48433 0.6707 0.64123 0.0
H210 H 0.45378 0.68746 0.62913 0.0
H211 H 0.45141 0.7197 0.62395 0.0
H212 H 0.5524 0.67124 0.69376 0.0
H213 H 0.53052 0.65294 0.68216 0.0
H214 H 0.50142 0.65119 0.63884 0.0
H215 H 0.47642 0.66294 0.63162 0.0
Mn216 Mn 0.60515 0.27077 0.8552 0.0
Mn217 Mn 0.60205 0.24782 0.89256 0.0
C218 C 0.61205 0.28537 0.88274 0.0
C219 C 0.61764 0.28324 0.82968 0.0
C220 C 0.56961 0.26614 0.87651 0.0
O221 O 0.60743 0.24452 0.84573 0.0
O222 O 0.59421 0.23444 0.87058 0.0
C223 C 0.63627 0.23107 0.87953 0.0
N224 N 0.62507 0.23552 0.89342 0.0
C225 C 0.64777 0.22648 0.91507 0.0
C226 C 0.65809 0.21918 0.90099 0.0
C227 C 0.65262 0.22209 0.88306 0.0
C228 C 0.63145 0.23499 0.91053 0.0
H229 H 0.63318 0.23499 0.86591 0.0
C230 C 0.60024 0.23176 0.85474 0.0
O231 O 0.6006 0.27946 0.83075 0.0
O232 O 0.62802 0.27857 0.84313 0.0
N233 N 0.60904 0.25597 0.91624 0.0
C234 C 0.60044 0.26761 0.92722 0.0
C235 C 0.60438 0.26797 0.94584 0.0
C236 C 0.61905 0.25808 0.95253 0.0
C237 C 0.62866 0.24687 0.94077 0.0
C238 C 0.62265 0.24563 0.92279 0.0
H239 H 0.59166 0.2772 0.92119 0.0
O240 O 0.60561 0.29434 0.86912 0.0
O241 O 0.61392 0.268 0.88006 0.0
O242 O 0.57809 0.26702 0.86157 0.0
O243 O 0.57789 0.2612 0.89124 0.0
C244 C 0.64403 0.23701 0.94613 0.0
C245 C 0.65374 0.22695 0.93319 0.0
H246 H 0.67088 0.2126 0.90373 0.0
H247 H 0.66123 0.21796 0.87198 0.0
H248 H 0.59682 0.27665 0.95481 0.0
H249 H 0.62306 0.25945 0.96659 0.0
H250 H 0.64886 0.23762 0.95999 0.0
H251 H 0.66611 0.22022 0.93718 0.0
Mn252 Mn 0.95937 0.33906 0.09204 0.0
Mn253 Mn 0.00492 0.34112 0.09415 0.0
C254 C 0.97307 0.35477 0.11628 0.0
C255 C 0.9314 0.3488 0.08342 0.0
C256 C 0.98256 0.30888 0.10767 0.0
O257 O 0.96614 0.33064 0.06619 0.0
O258 O 0.9957 0.33258 0.07115 0.0
C259 C 0.00916 0.36999 0.06678 0.0
N260 N 0.01343 0.36295 0.08324 0.0
C261 C 0.03797 0.3841 0.08725 0.0
C262 C 0.03404 0.39144 0.07021 0.0
C263 C 0.01943 0.38448 0.06002 0.0
C264 C 0.02701 0.36996 0.09336 0.0
H265 H 0.99815 0.36445 0.05882 0.0
C266 C 0.98242 0.32921 0.06085 0.0
O267 O 0.93429 0.33213 0.08766 0.0
O268 O 0.94508 0.35992 0.08287 0.0
N269 N 0.01809 0.34908 0.11479 0.0
C270 C 0.01993 0.34029 0.13059 0.0
C271 C 0.03431 0.34469 0.14237 0.0
C272 C 0.04654 0.35851 0.13762 0.0
C273 C 0.04418 0.36769 0.12118 0.0
C274 C 0.0298 0.36225 0.10999 0.0
H275 H 0.00975 0.33074 0.1338 0.0
O276 O 0.95658 0.34887 0.11689 0.0
O277 O 0.98145 0.35219 0.10084 0.0
O278 O 0.96722 0.31465 0.10262 0.0
O279 O 0.99721 0.31812 0.10564 0.0
C280 C 0.05563 0.38175 0.11524 0.0
C281 C 0.05245 0.39004 0.09832 0.0
H282 H 0.04213 0.4024 0.06482 0.0
H283 H 0.01628 0.39007 0.04688 0.0
H284 H 0.0358 0.33771 0.15513 0.0
H285 H 0.05752 0.36208 0.14674 0.0
H286 H 0.0669 0.38628 0.12355 0.0
H287 H 0.06131 0.40084 0.0939 0.0
Mn288 Mn 0.22561 0.04956 0.32928 0.0
Mn289 Mn 0.21293 0.01663 0.29905 0.0
C290 C 0.2025 0.02795 0.33931 0.0
C291 C 0.24491 0.02416 0.34203 0.0
C292 C 0.19518 0.05357 0.29935 0.0
O293 O 0.24493 0.05274 0.30955 0.0
O294 O 0.23559 0.02954 0.29242 0.0
C295 C 0.24425 0.99212 0.30544 0.0
N296 N 0.22611 0.99484 0.30435 0.0
C297 C 0.22039 0.96321 0.30967 0.0
C298 C 0.23905 0.96013 0.31062 0.0
C299 C 0.25106 0.9747 0.30852 0.0
C300 C 0.21452 0.98092 0.30648 0.0
H301 H 0.25332 0.00329 0.30487 0.0
C302 C 0.24667 0.04242 0.29582 0.0
O303 O 0.2452 0.04028 0.34773 0.0
O304 O 0.23414 0.02244 0.32867 0.0
N305 N 0.19199 0.00221 0.30177 0.0
C306 C 0.17548 0.00562 0.29448 0.0
C307 C 0.16156 0.99317 0.29689 0.0
C308 C 0.16549 0.97693 0.30568 0.0
C309 C 0.18343 0.97151 0.30725 0.0
C310 C 0.19651 0.98491 0.30528 0.0
H311 H 0.17324 0.01733 0.2863 0.0
O312 O 0.20594 0.04322 0.34692 0.0
O313 O 0.21364 0.02453 0.32572 0.0
O314 O 0.20487 0.05993 0.31239 0.0
O315 O 0.19803 0.03789 0.29263 0.0
C316 C 0.18883 0.95359 0.31061 0.0
C317 C 0.20737 0.94941 0.31177 0.0
H318 H 0.24428 0.9467 0.3131 0.0
H319 H 0.2655 0.9726 0.30957 0.0
H320 H 0.14793 0.99651 0.29282 0.0
H321 H 0.15491 0.96873 0.31111 0.0
H322 H 0.17888 0.943 0.31255 0.0
H323 H 0.21146 0.93561 0.31435 0.0
Mn324 Mn 0.30225 0.01184 0.59829 0.0
Mn325 Mn 0.30125 0.9833 0.56618 0.0
C326 C 0.30849 0.98115 0.60847 0.0
C327 C 0.32479 0.03085 0.61127 0.0
C328 C 0.26729 0.00329 0.58195 0.0
O329 O 0.30009 0.02586 0.5729 0.0
O330 O 0.31681 0.00439 0.56554 0.0
C331 C 0.33968 0.97276 0.56111 0.0
N332 N 0.32174 0.9685 0.56172 0.0
C333 C 0.32669 0.94025 0.54648 0.0
C334 C 0.34526 0.94401 0.54598 0.0
C335 C 0.35183 0.96025 0.55358 0.0
C336 C 0.31546 0.95264 0.55515 0.0
H337 H 0.34461 0.98565 0.5661 0.0
C338 C 0.30879 0.01807 0.56023 0.0
O339 O 0.30768 0.03458 0.61287 0.0
O340 O 0.3286 0.01753 0.60069 0.0
N341 N 0.2876 0.96153 0.56614 0.0
C342 C 0.2701 0.95822 0.57049 0.0
C343 C 0.26119 0.94287 0.5636 0.0
C344 C 0.27066 0.93103 0.55238 0.0
C345 C 0.28915 0.93404 0.54954 0.0
C346 C 0.29726 0.94923 0.55712 0.0
H347 H 0.26378 0.96628 0.58074 0.0
O348 O 0.3058 0.99438 0.61957 0.0
O349 O 0.30513 0.98557 0.59186 0.0
O350 O 0.27412 0.00838 0.5972 0.0
O351 O 0.27787 0.99786 0.56904 0.0
C352 C 0.29973 0.92281 0.539 0.0
C353 C 0.31865 0.92515 0.53804 0.0
H354 H 0.35454 0.93466 0.53961 0.0
H355 H 0.36614 0.96337 0.5531 0.0
H356 H 0.24748 0.93976 0.56758 0.0
H357 H 0.26402 0.91911 0.54694 0.0
H358 H 0.29277 0.91309 0.5312 0.0
H359 H 0.3268 0.91583 0.53032 0.0
Mn360 Mn 0.37184 0.08553 0.80972 0.0
Mn361 Mn 0.40691 0.07367 0.78493 0.0
C362 C 0.39998 0.08117 0.82377 0.0
C363 C 0.35345 0.10325 0.82671 0.0
C364 C 0.3825 0.0462 0.80153 0.0
O365 O 0.36196 0.09095 0.78415 0.0
O366 O 0.38397 0.07448 0.77238 0.0
C367 C 0.40365 0.11016 0.76802 0.0
N368 N 0.41412 0.09672 0.77503 0.0
C369 C 0.4412 0.11366 0.76849 0.0
C370 C 0.43074 0.12717 0.76044 0.0
C371 C 0.41183 0.12555 0.76049 0.0
C372 C 0.43218 0.09885 0.7762 0.0
H373 H 0.38917 0.10943 0.76837 0.0
C374 C 0.36862 0.08182 0.77117 0.0
O375 O 0.3475 0.08829 0.81959 0.0
O376 O 0.36794 0.11024 0.81955 0.0
N377 N 0.43145 0.07218 0.79273 0.0
C378 C 0.43969 0.05727 0.79917 0.0
C379 C 0.45861 0.05631 0.79897 0.0
C380 C 0.46904 0.07034 0.79188 0.0
C381 C 0.46039 0.08544 0.78491 0.0
C382 C 0.44142 0.08561 0.78512 0.0
H383 H 0.43169 0.04664 0.80495 0.0
O384 O 0.38504 0.08003 0.83264 0.0
O385 O 0.39838 0.08593 0.8068 0.0
O386 O 0.37052 0.05824 0.80433 0.0
O387 O 0.39859 0.04995 0.79563 0.0
C388 C 0.46986 0.09994 0.77703 0.0
C389 C 0.46024 0.11423 0.76905 0.0
H390 H 0.43705 0.13893 0.75442 0.0
H391 H 0.40357 0.13612 0.75473 0.0
H392 H 0.46529 0.0452 0.805 0.0
H393 H 0.48366 0.06942 0.79207 0.0
H394 H 0.48452 0.10013 0.77687 0.0
H395 H 0.46759 0.12539 0.76306 0.0
Mn396 Mn 0.23554 0.07858 0.07127 0.0
Mn397 Mn 0.24392 0.09422 0.03008 0.0
C398 C 0.21065 0.08798 0.05129 0.0
C399 C 0.22213 0.05662 0.09042 0.0
C400 C 0.26574 0.10524 0.06306 0.0
O401 O 0.24515 0.05688 0.05597 0.0
O402 O 0.25911 0.07327 0.03523 0.0
C403 C 0.22337 0.06242 0.01505 0.0
N404 N 0.22811 0.08027 0.01437 0.0
C405 C 0.20634 0.08505 0.99053 0.0
C406 C 0.20331 0.06639 0.98936 0.0
C407 C 0.21151 0.05505 0.00206 0.0
C408 C 0.2189 0.09147 0.00341 0.0
H409 H 0.22782 0.0539 0.02584 0.0
C410 C 0.25661 0.05842 0.04325 0.0
O411 O 0.23807 0.06302 0.0931 0.0
O412 O 0.21315 0.06323 0.07686 0.0
N413 N 0.23062 0.11429 0.02194 0.0
C414 C 0.23072 0.13134 0.02865 0.0
C415 C 0.22038 0.14437 0.0199 0.0
C416 C 0.21058 0.13994 0.00428 0.0
C417 C 0.20958 0.12206 0.99841 0.0
C418 C 0.22026 0.10955 0.00746 0.0
H419 H 0.23805 0.13462 0.0409 0.0
O420 O 0.20807 0.07602 0.06386 0.0
O421 O 0.22749 0.09162 0.05015 0.0
O422 O 0.2605 0.09142 0.07219 0.0
O423 O 0.25974 0.10883 0.04697 0.0
C424 C 0.19777 0.11611 0.98451 0.0
C425 C 0.1962 0.09757 0.98053 0.0
H426 H 0.19371 0.06079 0.97969 0.0
H427 H 0.20817 0.04077 0.00229 0.0
H428 H 0.2187 0.15739 0.02587 0.0
H429 H 0.20297 0.15019 0.99743 0.0
H430 H 0.18916 0.12556 0.97742 0.0
H431 H 0.18646 0.09304 0.97045 0.0
Mn432 Mn 0.21148 0.99251 0.20215 0.0
Mn433 Mn 0.2045 0.01507 0.24063 0.0
C434 C 0.18707 0.01256 0.20232 0.0
C435 C 0.22329 0.99425 0.17314 0.0
C436 C 0.1924 0.97578 0.23491 0.0
O437 O 0.23605 0.98963 0.21515 0.0
O438 O 0.23003 0.00751 0.23885 0.0
C439 C 0.22631 0.04659 0.2295 0.0
N440 N 0.21124 0.03988 0.23752 0.0
C441 C 0.19796 0.06951 0.23832 0.0
C442 C 0.21423 0.07692 0.23207 0.0
C443 C 0.22841 0.06532 0.22733 0.0
C444 C 0.19716 0.05075 0.24119 0.0
H445 H 0.23596 0.03757 0.22377 0.0
C446 C 0.24095 0.99801 0.22951 0.0
O447 O 0.21874 0.97858 0.17971 0.0
O448 O 0.22363 0.00766 0.18428 0.0
N449 N 0.18097 0.02393 0.24482 0.0
C450 C 0.1662 0.01457 0.25042 0.0
C451 C 0.14995 0.02369 0.25263 0.0
C452 C 0.14919 0.04212 0.24826 0.0
C453 C 0.16503 0.05194 0.24565 0.0
C454 C 0.18102 0.04221 0.24465 0.0
H455 H 0.16689 0.00042 0.25348 0.0
O456 O 0.18789 0.99905 0.19134 0.0
O457 O 0.20059 0.01361 0.21399 0.0
O458 O 0.19763 0.97426 0.21842 0.0
O459 O 0.19636 0.98958 0.24477 0.0
C460 C 0.16542 0.07077 0.24292 0.0
C461 C 0.18197 0.07965 0.23971 0.0
H462 H 0.21549 0.0913 0.22957 0.0
H463 H 0.24055 0.07072 0.22119 0.0
H464 H 0.13788 0.0163 0.25646 0.0
H465 H 0.13645 0.04858 0.24623 0.0
H466 H 0.153 0.07847 0.24277 0.0
H467 H 0.18205 0.09407 0.2372 0.0
Mn468 Mn 0.25762 0.94015 0.44667 0.0
Mn469 Mn 0.23758 0.94172 0.49311 0.0
C470 C 0.22427 0.93681 0.44633 0.0
C471 C 0.26672 0.95732 0.42143 0.0
C472 C 0.26744 0.91476 0.47958 0.0
O473 O 0.27491 0.95526 0.46363 0.0
O474 O 0.25832 0.95839 0.48916 0.0
C475 C 0.24006 0.97871 0.52178 0.0
N476 N 0.2314 0.9627 0.52006 0.0
C477 C 0.20287 0.97673 0.53187 0.0
C478 C 0.2129 0.9928 0.53356 0.0
C479 C 0.23101 0.99379 0.52843 0.0
C480 C 0.21211 0.95989 0.52773 0.0
H481 H 0.25369 0.97998 0.5171 0.0
C482 C 0.27161 0.96282 0.47902 0.0
O483 O 0.27502 0.94241 0.42556 0.0
O484 O 0.2537 0.96214 0.43185 0.0
N485 N 0.20181 0.92551 0.50357 0.0
C486 C 0.19277 0.90944 0.50177 0.0
C487 C 0.17657 0.90844 0.51044 0.0
C488 C 0.16956 0.92492 0.51666 0.0
C489 C 0.1783 0.94335 0.51264 0.0
C490 C 0.19573 0.93853 0.51646 0.0
H491 H 0.19813 0.89782 0.4947 0.0
O492 O 0.23357 0.93054 0.4329 0.0
O493 O 0.23687 0.94099 0.46013 0.0
O494 O 0.26492 0.91678 0.46212 0.0
O495 O 0.26071 0.92536 0.49201 0.0
C496 C 0.17356 0.96537 0.51532 0.0
C497 C 0.18454 0.97953 0.52623 0.0
H498 H 0.20614 0.00536 0.53694 0.0
H499 H 0.238 0.00667 0.52922 0.0
H500 H 0.16918 0.89581 0.51157 0.0
H501 H 0.15679 0.92211 0.52306 0.0
H502 H 0.17388 0.95374 0.50612 0.0
H503 H 0.17306 0.97435 0.52018 0.0
Mn504 Mn 0.43496 0.01153 0.69078 0.0
Mn505 Mn 0.44322 0.98829 0.73839 0.0
C506 C 0.43233 0.97796 0.68978 0.0
C507 C 0.41178 0.02546 0.67313 0.0
C508 C 0.46843 0.01582 0.71474 0.0
O509 O 0.42992 0.02796 0.71338 0.0
O510 O 0.42718 0.01087 0.73941 0.0
C511 C 0.41035 0.97765 0.77301 0.0
N512 N 0.42666 0.97181 0.76698 0.0
C513 C 0.42236 0.93574 0.76623 0.0
C514 C 0.40161 0.946 0.76798 0.0
C515 C 0.39724 0.9645 0.7733 0.0
C516 C 0.43575 0.94847 0.7652 0.0
H517 H 0.40671 0.99178 0.77221 0.0
C518 C 0.42297 0.02457 0.72907 0.0
O519 O 0.4284 0.03101 0.67277 0.0
O520 O 0.40841 0.01242 0.68416 0.0
N521 N 0.4601 0.95085 0.74028 0.0
C522 C 0.47413 0.9426 0.73063 0.0
C523 C 0.4815 0.9262 0.73588 0.0
C524 C 0.47415 0.91699 0.75025 0.0
C525 C 0.459 0.92401 0.75882 0.0
C526 C 0.45236 0.94112 0.75478 0.0
H527 H 0.4805 0.94861 0.71897 0.0
O528 O 0.43269 0.98682 0.67478 0.0
O529 O 0.43847 0.99044 0.70267 0.0
O530 O 0.46257 0.01426 0.69805 0.0
O531 O 0.46026 0.00932 0.72883 0.0
C532 C 0.44896 0.91355 0.76982 0.0
C533 C 0.4311 0.91834 0.77214 0.0
H534 H 0.38802 0.94094 0.76585 0.0
H535 H 0.38353 0.96917 0.77228 0.0
H536 H 0.49271 0.92045 0.72847 0.0
H537 H 0.47939 0.90376 0.75368 0.0
H538 H 0.45369 0.9003 0.774 0.0
H539 H 0.42525 0.90655 0.77798 0.0
Mn540 Mn 0.33342 0.0965 0.95629 0.0
Mn541 Mn 0.32819 0.10128 0.00047 0.0
C542 C 0.34805 0.12093 0.97081 0.0
C543 C 0.34641 0.08683 0.93008 0.0
C544 C 0.301 0.11614 0.97343 0.0
O545 O 0.32393 0.0711 0.96316 0.0
O546 O 0.31573 0.07989 0.99077 0.0
C547 C 0.35206 0.06928 0.00625 0.0
N548 N 0.34676 0.08629 0.01103 0.0
C549 C 0.36874 0.0872 0.03524 0.0
C550 C 0.37338 0.06923 0.03141 0.0
C551 C 0.36521 0.06034 0.01663 0.0
C552 C 0.35537 0.09525 0.0245 0.0
H553 H 0.34659 0.06267 0.99442 0.0
C554 C 0.3159 0.06827 0.9781 0.0
O555 O 0.3295 0.09112 0.93081 0.0
O556 O 0.3558 0.08669 0.94501 0.0
N557 N 0.33946 0.11997 0.01419 0.0
C558 C 0.3352 0.13753 0.0144 0.0
C559 C 0.34234 0.14892 0.02771 0.0
C560 C 0.35521 0.14231 0.04012 0.0
C561 C 0.35989 0.124 0.03943 0.0
C562 C 0.35128 0.11316 0.02635 0.0
H563 H 0.32841 0.14263 0.00305 0.0
O564 O 0.34388 0.12133 0.9538 0.0
O565 O 0.34372 0.10584 0.9792 0.0
O566 O 0.30832 0.10736 0.96062 0.0
O567 O 0.30829 0.11703 0.98945 0.0
C568 C 0.37278 0.11609 0.051 0.0
C569 C 0.37727 0.09766 0.04886 0.0
H570 H 0.38364 0.06238 0.0393 0.0
H571 H 0.36921 0.04671 0.01309 0.0
H572 H 0.33827 0.16286 0.02781 0.0
H573 H 0.36126 0.15135 0.05005 0.0
H574 H 0.37957 0.12411 0.06132 0.0
H575 H 0.38753 0.09178 0.0575 0.0
Mn576 Mn 0.33461 0.22876 0.05012 0.0
Mn577 Mn 0.30273 0.21175 0.02211 0.0
C578 C 0.3437 0.20647 0.02716 0.0
C579 C 0.34853 0.2513 0.02753 0.0
C580 C 0.30886 0.19696 0.06026 0.0
O581 O 0.31337 0.24686 0.05443 0.0
O582 O 0.29507 0.23375 0.03416 0.0
C583 C 0.30506 0.24227 0.99599 0.0
N584 N 0.3045 0.22421 0.99942 0.0
C585 C 0.30794 0.21732 0.96775 0.0
C586 C 0.30791 0.23584 0.96386 0.0
C587 C 0.30648 0.2484 0.97809 0.0
C588 C 0.30609 0.21212 0.98587 0.0
H589 H 0.30512 0.25188 0.00686 0.0
C590 C 0.29844 0.24613 0.04558 0.0
O591 O 0.35358 0.24887 0.04336 0.0
O592 O 0.3351 0.24152 0.02427 0.0
N593 N 0.30649 0.19054 0.00871 0.0
C594 C 0.30252 0.17358 0.01441 0.0
C595 C 0.30154 0.15968 0.00177 0.0
C596 C 0.30776 0.16308 0.98424 0.0
C597 C 0.30853 0.18075 0.97793 0.0
C598 C 0.30689 0.19433 0.99083 0.0
H599 H 0.29999 0.17066 0.02841 0.0
O600 O 0.35308 0.20978 0.04144 0.0
O601 O 0.32923 0.21644 0.02632 0.0
O602 O 0.3216 0.20808 0.06419 0.0
O603 O 0.30035 0.19769 0.04514 0.0
C604 C 0.3109 0.18547 0.95963 0.0
C605 C 0.31041 0.2038 0.9545 0.0
H606 H 0.30939 0.24057 0.95009 0.0
H607 H 0.30693 0.26276 0.97532 0.0
H608 H 0.29845 0.14609 0.00618 0.0
H609 H 0.31274 0.15213 0.97619 0.0
H610 H 0.3131 0.17517 0.94942 0.0
H611 H 0.31218 0.20736 0.94041 0.0
Mn612 Mn 0.8109 0.37305 0.08467 0.0
Mn613 Mn 0.78686 0.41099 0.08075 0.0
C614 C 0.82641 0.40112 0.08404 0.0
C615 C 0.8274 0.35183 0.09946 0.0
C616 C 0.79827 0.38873 0.04838 0.0
O617 O 0.78544 0.36299 0.0891 0.0
O618 O 0.77257 0.38901 0.08194 0.0
C619 C 0.77207 0.40772 0.11788 0.0
N620 N 0.7802 0.41785 0.10486 0.0
C621 C 0.77653 0.44507 0.12245 0.0
C622 C 0.76813 0.43495 0.13606 0.0
C623 C 0.76603 0.41615 0.13382 0.0
C624 C 0.78276 0.43579 0.10715 0.0
H625 H 0.77001 0.39336 0.11603 0.0
C626 C 0.77155 0.37229 0.08529 0.0
O627 O 0.8201 0.34829 0.08383 0.0
O628 O 0.82087 0.36551 0.1084 0.0
N629 N 0.79704 0.4345 0.07932 0.0
C630 C 0.80453 0.44216 0.06461 0.0
C631 C 0.80595 0.46101 0.06356 0.0
C632 C 0.80003 0.47182 0.0781 0.0
C633 C 0.79279 0.46358 0.09345 0.0
C634 C 0.7912 0.44472 0.09332 0.0
H635 H 0.8107 0.43357 0.05477 0.0
O636 O 0.83415 0.38591 0.08055 0.0
O637 O 0.80943 0.39971 0.08918 0.0
O638 O 0.80431 0.37555 0.05763 0.0
O639 O 0.79326 0.40387 0.05557 0.0
C640 C 0.78657 0.47331 0.10862 0.0
C641 C 0.77861 0.46403 0.12323 0.0
H642 H 0.76311 0.44147 0.14819 0.0
H643 H 0.75948 0.40824 0.14421 0.0
H644 H 0.81232 0.46702 0.05193 0.0
H645 H 0.80149 0.48639 0.07755 0.0
H646 H 0.7877 0.48793 0.10912 0.0
H647 H 0.77381 0.47163 0.13481 0.0
Mn648 Mn 0.01475 0.59035 0.30731 0.0
Mn649 Mn 0.98786 0.56078 0.2889 0.0
C650 C 0.98396 0.60002 0.30735 0.0
C651 C 0.02758 0.59742 0.33568 0.0
C652 C 0.01445 0.58478 0.26797 0.0
O653 O 0.0296 0.56634 0.30297 0.0
O654 O 0.00391 0.55465 0.30884 0.0
C655 C 0.96854 0.54408 0.31953 0.0
N656 N 0.96807 0.55232 0.30304 0.0
C657 C 0.93824 0.54092 0.29717 0.0
C658 C 0.93853 0.532 0.31385 0.0
C659 C 0.95357 0.53397 0.32528 0.0
C660 C 0.95322 0.55131 0.2924 0.0
H661 H 0.98044 0.5446 0.32804 0.0
C662 C 0.02041 0.55228 0.3065 0.0
O663 O 0.03538 0.60224 0.3207 0.0
O664 O 0.0139 0.58659 0.33402 0.0
N665 N 0.97028 0.56607 0.27061 0.0
C666 C 0.97272 0.57156 0.25324 0.0
C667 C 0.95796 0.57334 0.24147 0.0
C668 C 0.94107 0.56717 0.24688 0.0
C669 C 0.93944 0.55861 0.26359 0.0
C670 C 0.95419 0.55915 0.27556 0.0
H671 H 0.98573 0.57283 0.2478 0.0
O672 O 0.99729 0.61062 0.31139 0.0
O673 O 0.98893 0.58435 0.30096 0.0
O674 O 0.01769 0.59651 0.28043 0.0
O675 O 0.00816 0.5689 0.27192 0.0
C676 C 0.92403 0.54897 0.26854 0.0
C677 C 0.92419 0.53903 0.28452 0.0
H678 H 0.92743 0.52351 0.31803 0.0
H679 H 0.95393 0.5271 0.33818 0.0
H680 H 0.95968 0.57838 0.22795 0.0
H681 H 0.92968 0.56884 0.23795 0.0
H682 H 0.91248 0.54812 0.25969 0.0
H683 H 0.91403 0.52915 0.28614 0.0
Mn684 Mn 0.6295 0.68122 0.4852 0.0
Mn685 Mn 0.67694 0.66362 0.48979 0.0
C686 C 0.63242 0.65839 0.50888 0.0
C687 C 0.60761 0.70213 0.49409 0.0
C688 C 0.65425 0.664 0.45454 0.0
O689 O 0.64737 0.70241 0.47923 0.0
O690 O 0.67414 0.69043 0.48805 0.0
C691 C 0.71488 0.6896 0.49932 0.0
N692 N 0.70923 0.67229 0.49891 0.0
C693 C 0.72773 0.66505 0.52607 0.0
C694 C 0.73233 0.68341 0.52609 0.0
C695 C 0.72716 0.69515 0.51234 0.0
C696 C 0.71807 0.65757 0.51094 0.0
H697 H 0.70779 0.69956 0.49164 0.0
C698 C 0.66382 0.70403 0.4849 0.0
O699 O 0.60754 0.69558 0.47773 0.0
O700 O 0.6203 0.69687 0.50481 0.0
N701 N 0.68677 0.62815 0.50642 0.0
C702 C 0.68145 0.61053 0.50502 0.0
C703 C 0.69076 0.59886 0.51557 0.0
C704 C 0.7019 0.60685 0.52878 0.0
C705 C 0.70329 0.62705 0.53237 0.0
C706 C 0.70325 0.6329 0.5156 0.0
H707 H 0.67097 0.60575 0.4959 0.0
O708 O 0.61691 0.66034 0.50095 0.0
O709 O 0.6452 0.66742 0.49819 0.0
O710 O 0.63836 0.66635 0.46194 0.0
O711 O 0.66972 0.66649 0.46279 0.0
C712 C 0.71327 0.64115 0.54649 0.0
C713 C 0.72573 0.65617 0.5432 0.0
H714 H 0.73662 0.68948 0.5386 0.0
H715 H 0.72997 0.70944 0.51364 0.0
H716 H 0.68893 0.58435 0.51441 0.0
H717 H 0.70845 0.59579 0.53566 0.0
H718 H 0.71221 0.64164 0.56095 0.0
H719 H 0.73124 0.66295 0.55508 0.0
Mn720 Mn 0.09399 0.95293 0.33504 0.0
Mn721 Mn 0.10431 0.99698 0.33255 0.0
C722 C 0.12184 0.96429 0.34889 0.0
C723 C 0.0821 0.92689 0.3469 0.0
C724 C 0.11494 0.96979 0.30339 0.0
O725 O 0.06806 0.96134 0.32545 0.0
O726 O 0.08297 0.98548 0.32593 0.0
C727 C 0.07728 0.0012 0.36206 0.0
N728 N 0.09216 0.00731 0.35304 0.0
C729 C 0.09426 0.03353 0.37225 0.0
C730 C 0.07816 0.02834 0.3808 0.0
C731 C 0.06988 0.01183 0.37598 0.0
C732 C 0.1011 0.02211 0.35879 0.0
H733 H 0.07086 0.98855 0.35831 0.0
C734 C 0.06872 0.9779 0.32149 0.0
O735 O 0.08613 0.92826 0.33 0.0
O736 O 0.0839 0.94115 0.35717 0.0
N737 N 0.12406 0.01187 0.34006 0.0
C738 C 0.1404 0.01366 0.33226 0.0
C739 C 0.15091 0.02909 0.33592 0.0
C740 C 0.14448 0.04279 0.34732 0.0
C741 C 0.12779 0.0405 0.35572 0.0
C742 C 0.11781 0.0249 0.35142 0.0
H743 H 0.14535 0.00297 0.32404 0.0
O744 O 0.11909 0.9476 0.34453 0.0
O745 O 0.10788 0.97462 0.34639 0.0
O746 O 0.10479 0.95762 0.31008 0.0
O747 O 0.11735 0.98549 0.31108 0.0
C748 C 0.12072 0.05295 0.36833 0.0
C749 C 0.10406 0.04931 0.37683 0.0
H750 H 0.07237 0.03661 0.39142 0.0
H751 H 0.05778 0.00737 0.38288 0.0
H752 H 0.16453 0.02986 0.33115 0.0
H753 H 0.15291 0.05449 0.35025 0.0
H754 H 0.1282 0.06511 0.37189 0.0
H755 H 0.099 0.05862 0.38697 0.0
Mn756 Mn 0.13909 0.94598 0.5539 0.0
Mn757 Mn 0.19008 0.94978 0.53766 0.0
C758 C 0.14296 0.95117 0.52095 0.0
C759 C 0.11593 0.92421 0.55832 0.0
C760 C 0.16461 0.97131 0.56148 0.0
O761 O 0.15656 0.93175 0.57113 0.0
O762 O 0.18467 0.93242 0.55791 0.0
C763 C 0.22301 0.91789 0.54574 0.0
N764 N 0.21916 0.93172 0.53454 0.0
C765 C 0.23309 0.91617 0.5086 0.0
C766 C 0.23538 0.90163 0.52041 0.0
C767 C 0.2317 0.90282 0.53888 0.0
C768 C 0.22737 0.93329 0.51562 0.0
H769 H 0.21737 0.91755 0.5592 0.0
C770 C 0.173 0.92609 0.56922 0.0
O771 O 0.1167 0.93894 0.56792 0.0
O772 O 0.12856 0.92206 0.54649 0.0
N773 N 0.20113 0.96385 0.50114 0.0
C774 C 0.19859 0.97912 0.49103 0.0
C775 C 0.20753 0.97964 0.47525 0.0
C776 C 0.21525 0.96336 0.46996 0.0
C777 C 0.21344 0.94556 0.48014 0.0
C778 C 0.21522 0.95146 0.49669 0.0
H779 H 0.19045 0.99053 0.49509 0.0
O780 O 0.12766 0.95433 0.52886 0.0
O781 O 0.1564 0.94969 0.53471 0.0
O782 O 0.14815 0.97073 0.56631 0.0
O783 O 0.16726 0.96089 0.54782 0.0
C784 C 0.21895 0.92431 0.47789 0.0
C785 C 0.22918 0.9124 0.48982 0.0
H786 H 0.23654 0.8884 0.51472 0.0
H787 H 0.23305 0.89102 0.54736 0.0
H788 H 0.20779 0.99165 0.46689 0.0
H789 H 0.22197 0.9664 0.45737 0.0
H790 H 0.21596 0.91536 0.46678 0.0
H791 H 0.23117 0.89871 0.48499 0.0
Mn792 Mn 0.93442 0.45418 0.26623 0.0
Mn793 Mn 0.93162 0.50022 0.24364 0.0
C794 C 0.93177 0.45132 0.23306 0.0
C795 C 0.95458 0.43135 0.27595 0.0
C796 C 0.90763 0.4864 0.27571 0.0
O797 O 0.94819 0.4731 0.28162 0.0
O798 O 0.95017 0.4979 0.26342 0.0
C799 C 0.96813 0.5307 0.2407 0.0
N800 N 0.95143 0.52752 0.23373 0.0
C801 C 0.96275 0.53504 0.20261 0.0
C802 C 0.97974 0.53804 0.21068 0.0
C803 C 0.98207 0.53691 0.22951 0.0
C804 C 0.94705 0.5332 0.21394 0.0
H805 H 0.97106 0.52708 0.25453 0.0
C806 C 0.95544 0.48816 0.27687 0.0
O807 O 0.93949 0.43415 0.2845 0.0
O808 O 0.95776 0.44159 0.26239 0.0
N809 N 0.91256 0.50648 0.20829 0.0
C810 C 0.89611 0.50124 0.20067 0.0
C811 C 0.89234 0.50582 0.18291 0.0
C812 C 0.90623 0.51341 0.17302 0.0
C813 C 0.92237 0.51858 0.18225 0.0
C814 C 0.92419 0.52002 0.19981 0.0
H815 H 0.88629 0.49304 0.20772 0.0
O816 O 0.92637 0.43807 0.24309 0.0
O817 O 0.93399 0.46638 0.24499 0.0
O818 O 0.91018 0.46884 0.27366 0.0
O819 O 0.91693 0.49894 0.26756 0.0
C820 C 0.93989 0.51491 0.1789 0.0
C821 C 0.95996 0.52544 0.18494 0.0
H822 H 0.9917 0.53758 0.20244 0.0
H823 H 0.99552 0.53849 0.23519 0.0
H824 H 0.87995 0.50135 0.17638 0.0
H825 H 0.90554 0.51337 0.15837 0.0
H826 H 0.93578 0.50684 0.16752 0.0
H827 H 0.97261 0.52297 0.178 0.0
Mn828 Mn 0.60622 0.55445 0.7529 0.0
Mn829 Mn 0.63932 0.51677 0.7322 0.0
C830 C 0.61809 0.56143 0.72316 0.0
C831 C 0.57542 0.5616 0.75411 0.0
C832 C 0.64034 0.54732 0.76359 0.0
O833 O 0.60249 0.52891 0.76461 0.0
O834 O 0.62039 0.50782 0.74959 0.0
C835 C 0.62708 0.47196 0.7229 0.0
N836 N 0.63884 0.48501 0.71779 0.0
C837 C 0.63898 0.47335 0.68648 0.0
C838 C 0.62752 0.45948 0.69254 0.0
C839 C 0.62208 0.45851 0.7106 0.0
C840 C 0.64824 0.48456 0.69921 0.0
H841 H 0.62045 0.47285 0.73586 0.0
C842 C 0.60721 0.51255 0.76024 0.0
O843 O 0.58651 0.56644 0.76695 0.0
O844 O 0.58199 0.55174 0.74122 0.0
N845 N 0.66317 0.52484 0.70015 0.0
C846 C 0.67587 0.53746 0.69556 0.0
C847 C 0.68269 0.53594 0.67874 0.0
C848 C 0.67392 0.52361 0.66737 0.0
C849 C 0.65713 0.51282 0.6723 0.0
C850 C 0.66059 0.50901 0.68946 0.0
H851 H 0.68048 0.54823 0.70443 0.0
O852 O 0.61081 0.57404 0.73295 0.0
O853 O 0.62136 0.54598 0.73412 0.0
O854 O 0.62938 0.55939 0.76871 0.0
O855 O 0.63481 0.53893 0.74926 0.0
C856 C 0.64289 0.49834 0.663 0.0
C857 C 0.63683 0.48034 0.66867 0.0
H858 H 0.62048 0.45105 0.68286 0.0
H859 H 0.61202 0.44859 0.71447 0.0
H860 H 0.69369 0.54451 0.67419 0.0
H861 H 0.68111 0.5244 0.65472 0.0
H862 H 0.63612 0.4985 0.65028 0.0
H863 H 0.62808 0.47271 0.65951 0.0
Mn864 Mn 0.45227 0.78043 0.74716 0.0
Mn865 Mn 0.45062 0.7494 0.7112 0.0
C866 C 0.42425 0.78401 0.7293 0.0
C867 C 0.4477 0.79144 0.77661 0.0
C868 C 0.48263 0.77277 0.71914 0.0
O869 O 0.46632 0.75761 0.75483 0.0
O870 O 0.45147 0.73818 0.73646 0.0
C871 C 0.46425 0.7117 0.71442 0.0
N872 N 0.4606 0.7253 0.70282 0.0
C873 C 0.43627 0.7015 0.68978 0.0
C874 C 0.44259 0.68894 0.70152 0.0
C875 C 0.45561 0.69452 0.71391 0.0
C876 C 0.45052 0.72099 0.68905 0.0
H877 H 0.47339 0.71459 0.72498 0.0
C878 C 0.46231 0.74139 0.74994 0.0
O879 O 0.46219 0.79499 0.76753 0.0
O880 O 0.43645 0.77993 0.76931 0.0
N881 N 0.451 0.76009 0.68213 0.0
C882 C 0.43564 0.78046 0.67308 0.0
C883 C 0.41493 0.77834 0.66936 0.0
C884 C 0.40278 0.76041 0.67243 0.0
C885 C 0.41025 0.74275 0.67827 0.0
C886 C 0.44264 0.74102 0.68448 0.0
H887 H 0.44456 0.7706 0.67724 0.0
O888 O 0.4319 0.79745 0.7379 0.0
O889 O 0.43602 0.76976 0.72891 0.0
O890 O 0.47374 0.785 0.72803 0.0
O891 O 0.47563 0.75741 0.71568 0.0
C892 C 0.39916 0.72111 0.67965 0.0
C893 C 0.41211 0.70133 0.68537 0.0
H894 H 0.43508 0.67655 0.70383 0.0
H895 H 0.45692 0.68597 0.72503 0.0
H896 H 0.41516 0.786 0.65734 0.0
H897 H 0.38973 0.75677 0.66755 0.0
H898 H 0.3847 0.72006 0.67754 0.0
H899 H 0.40472 0.68927 0.68903 0.0
Mn900 Mn 0.44932 0.25963 0.9376 0.0
Mn901 Mn 0.49607 0.2394 0.93044 0.0
C902 C 0.44786 0.22648 0.93189 0.0
C903 C 0.42751 0.26736 0.9594 0.0
C904 C 0.47954 0.27208 0.91021 0.0
O905 O 0.46835 0.27441 0.95251 0.0
O906 O 0.49345 0.25695 0.95073 0.0
C907 C 0.52814 0.23654 0.96527 0.0
N908 N 0.52442 0.23004 0.94857 0.0
C909 C 0.53404 0.19906 0.95793 0.0
C910 C 0.53698 0.20643 0.97525 0.0
C911 C 0.53504 0.22505 0.97851 0.0
C912 C 0.53102 0.21096 0.94294 0.0
H913 H 0.5244 0.25017 0.96872 0.0
C914 C 0.48383 0.26917 0.95843 0.0
O915 O 0.4294 0.27704 0.9449 0.0
O916 O 0.43786 0.25352 0.96095 0.0
N917 N 0.50366 0.20587 0.90879 0.0
C918 C 0.49827 0.19891 0.89215 0.0
C919 C 0.50359 0.18159 0.88734 0.0
C920 C 0.51203 0.17137 0.90053 0.0
C921 C 0.5172 0.18001 0.91699 0.0
C922 C 0.51807 0.19749 0.91951 0.0
H923 H 0.48942 0.20608 0.88301 0.0
O924 O 0.43379 0.2363 0.92855 0.0
O925 O 0.46237 0.23898 0.93393 0.0
O926 O 0.46223 0.26971 0.91359 0.0
O927 O 0.49277 0.2638 0.91824 0.0
C928 C 0.51487 0.17505 0.93432 0.0
C929 C 0.52548 0.18111 0.9545 0.0
H930 H 0.53739 0.19755 0.98679 0.0
H931 H 0.53621 0.23021 0.99216 0.0
H932 H 0.49909 0.17548 0.87475 0.0
H933 H 0.51266 0.1568 0.89906 0.0
H934 H 0.50778 0.16303 0.93004 0.0
H935 H 0.52383 0.17363 0.96698 0.0
Mn936 Mn 0.98646 0.20291 0.20975 0.0
Mn937 Mn 0.02566 0.22592 0.20199 0.0
C938 C 0.00759 0.19283 0.18584 0.0
C939 C 0.00293 0.17792 0.22615 0.0
C940 C 0.98861 0.23749 0.18727 0.0
O941 O 0.98819 0.21859 0.23319 0.0
O942 O 0.01511 0.23088 0.22616 0.0
C943 C 0.05015 0.21084 0.23 0.0
N944 N 0.04703 0.21616 0.21275 0.0
C945 C 0.07899 0.21739 0.20654 0.0
C946 C 0.08256 0.21264 0.22454 0.0
C947 C 0.06805 0.20898 0.23624 0.0
C948 C 0.06088 0.21886 0.20121 0.0
H949 H 0.039 0.20772 0.23863 0.0
C950 C 0.002 0.22845 0.23714 0.0
O951 O 0.98634 0.17818 0.22322 0.0
O952 O 0.01023 0.1923 0.22089 0.0
N953 N 0.03839 0.22302 0.17983 0.0
C954 C 0.03238 0.22393 0.16252 0.0
C955 C 0.04506 0.22466 0.14845 0.0
C956 C 0.06363 0.22589 0.15237 0.0
C957 C 0.06948 0.2244 0.1703 0.0
C958 C 0.05627 0.22247 0.18364 0.0
H959 H 0.01812 0.22451 0.15986 0.0
O960 O 0.99067 0.18881 0.18603 0.0
O961 O 0.0125 0.20239 0.19985 0.0
O962 O 0.97901 0.22523 0.19449 0.0
O963 O 0.00567 0.23829 0.18976 0.0
C964 C 0.08784 0.22398 0.17543 0.0
C965 C 0.09262 0.22052 0.1936 0.0
H966 H 0.09634 0.21134 0.22939 0.0
H967 H 0.07065 0.20483 0.25002 0.0
H968 H 0.04057 0.22518 0.13455 0.0
H969 H 0.07325 0.22727 0.14144 0.0
H970 H 0.09837 0.22577 0.16543 0.0
H971 H 0.10678 0.21981 0.19737 0.0
Mn972 Mn 0.02265 0.84042 0.52486 0.0
Mn973 Mn 0.0019 0.83485 0.4875 0.0
C974 C 0.04282 0.84349 0.49904 0.0
C975 C 0.02888 0.86312 0.54618 0.0
C976 C 0.01262 0.80391 0.51383 0.0
O977 O 0.99388 0.83733 0.52943 0.0
O978 O 0.99267 0.8518 0.50514 0.0
C979 C 0.99746 0.87162 0.47167 0.0
N980 N 0.00341 0.85422 0.47047 0.0
C981 C 0.01337 0.85874 0.43994 0.0
C982 C 0.00752 0.87673 0.44081 0.0
C983 C 0.99944 0.88318 0.45675 0.0
C984 C 0.01069 0.84783 0.45509 0.0
H985 H 0.99115 0.87667 0.48383 0.0
C986 C 0.98386 0.8445 0.5173 0.0
O987 O 0.02862 0.84615 0.55072 0.0
O988 O 0.02287 0.86689 0.53017 0.0
N989 N 0.01154 0.82016 0.46968 0.0
C990 C 0.01395 0.80205 0.47025 0.0
C991 C 0.02407 0.79382 0.45715 0.0
C992 C 0.02885 0.8038 0.44222 0.0
C993 C 0.02478 0.82235 0.44075 0.0
C994 C 0.01571 0.82997 0.45507 0.0
H995 H 0.00748 0.79373 0.47995 0.0
O996 O 0.04852 0.84342 0.51556 0.0
O997 O 0.02533 0.84102 0.49803 0.0
O998 O 0.0243 0.81299 0.5229 0.0
O999 O 0.00046 0.81222 0.5042 0.0
C1000 C 0.02945 0.8336 0.42611 0.0
C1001 C 0.02251 0.85132 0.42503 0.0
H1002 H 0.00932 0.88572 0.42942 0.0
H1003 H 0.99482 0.89703 0.45756 0.0
H1004 H 0.02796 0.7798 0.45833 0.0
H1005 H 0.03678 0.79663 0.43267 0.0
H1006 H 0.03799 0.82877 0.41536 0.0
H1007 H 0.02536 0.85948 0.41323 0.0
Mn1008 Mn 0.55462 0.14123 0.94301 0.0
Mn1009 Mn 0.53835 0.18878 0.93193 0.0
C1010 C 0.52177 0.14532 0.95155 0.0
C1011 C 0.5597 0.11185 0.93066 0.0
C1012 C 0.5696 0.17966 0.95855 0.0
O1013 O 0.56888 0.1525 0.92092 0.0
O1014 O 0.55714 0.18051 0.91524 0.0
C1015 C 0.54635 0.22379 0.90031 0.0
N1016 N 0.53712 0.22055 0.91564 0.0
C1017 C 0.50973 0.23749 0.90338 0.0
C1018 C 0.52027 0.23969 0.88781 0.0
C1019 C 0.53811 0.2334 0.88646 0.0
C1020 C 0.51814 0.22942 0.91914 0.0
H1021 H 0.55893 0.21679 0.89778 0.0
C1022 C 0.56744 0.16714 0.91147 0.0
O1023 O 0.5708 0.11882 0.94254 0.0
O1024 O 0.54604 0.12161 0.92638 0.0
N1025 N 0.50383 0.2013 0.94693 0.0
C1026 C 0.49832 0.20286 0.96487 0.0
C1027 C 0.48316 0.21143 0.96805 0.0
C1028 C 0.47509 0.2171 0.95253 0.0
C1029 C 0.48253 0.21564 0.93238 0.0
C1030 C 0.50017 0.21604 0.93667 0.0
H1031 H 0.50458 0.19644 0.97637 0.0
O1032 O 0.53127 0.13284 0.9593 0.0
O1033 O 0.53503 0.15525 0.94169 0.0
O1034 O 0.56626 0.16222 0.96053 0.0
O1035 O 0.56272 0.1898 0.94596 0.0
C1036 C 0.47763 0.22436 0.9121 0.0
C1037 C 0.49009 0.23522 0.90084 0.0
H1038 H 0.51368 0.24358 0.87538 0.0
H1039 H 0.54495 0.23422 0.87357 0.0
H1040 H 0.47753 0.21282 0.98155 0.0
H1041 H 0.46302 0.22286 0.95846 0.0
H1042 H 0.47633 0.21443 0.92092 0.0
H1043 H 0.48406 0.24083 0.88872 0.0
Mn1044 Mn 0.05987 0.23152 0.076 0.0
Mn1045 Mn 0.01661 0.23309 0.08997 0.0
C1046 C 0.0496 0.20915 0.09683 0.0
C1047 C 0.08062 0.22382 0.05335 0.0
C1048 C 0.04644 0.2563 0.10766 0.0
O1049 O 0.04839 0.24861 0.05704 0.0
O1050 O 0.02157 0.24936 0.07009 0.0
C1051 C 0.00844 0.21393 0.0556 0.0
N1052 N 0.0047 0.21691 0.07342 0.0
C1053 C 0.98157 0.19403 0.07293 0.0
C1054 C 0.98407 0.19184 0.05424 0.0
C1055 C 0.99789 0.20156 0.0456 0.0
C1056 C 0.99275 0.20642 0.08213 0.0
H1057 H 0.01951 0.22086 0.04911 0.0
C1058 C 0.03221 0.25416 0.05771 0.0
O1059 O 0.08368 0.23707 0.06458 0.0
O1060 O 0.06605 0.21432 0.05592 0.0
N1061 N 0.00528 0.21898 0.10849 0.0
C1062 C 0.00318 0.2241 0.12605 0.0
C1063 C 0.98993 0.2157 0.13679 0.0
C1064 C 0.9782 0.20276 0.12918 0.0
C1065 C 0.97927 0.19894 0.11068 0.0
C1066 C 0.99258 0.20796 0.10066 0.0
H1067 H 0.01074 0.23539 0.13144 0.0
O1068 O 0.06668 0.21262 0.09471 0.0
O1069 O 0.03887 0.21861 0.08646 0.0
O1070 O 0.05862 0.25159 0.09618 0.0
O1071 O 0.03017 0.24958 0.10737 0.0
C1072 C 0.96732 0.18688 0.10171 0.0
C1073 C 0.96868 0.1842 0.08286 0.0
H1074 H 0.97585 0.18235 0.04651 0.0
H1075 H 0.00047 0.19945 0.03134 0.0
H1076 H 0.98834 0.21951 0.15082 0.0
H1077 H 0.96803 0.19634 0.13751 0.0
H1078 H 0.95707 0.17959 0.10919 0.0
H1079 H 0.95969 0.17466 0.07613 0.0
Mn1080 Mn 0.08366 0.80882 0.37574 0.0
Mn1081 Mn 0.07613 0.7856 0.41264 0.0
C1082 C 0.08391 0.82477 0.40402 0.0
C1083 C 0.09977 0.82438 0.35468 0.0
C1084 C 0.04541 0.80157 0.39026 0.0
O1085 O 0.08705 0.78281 0.36601 0.0
O1086 O 0.07347 0.77202 0.39031 0.0
C1087 C 0.11132 0.76726 0.40531 0.0
N1088 N 0.09933 0.77452 0.41728 0.0
C1089 C 0.11745 0.76452 0.44246 0.0
C1090 C 0.12954 0.75637 0.43042 0.0
C1091 C 0.12662 0.75803 0.41173 0.0
C1092 C 0.10275 0.77398 0.43517 0.0
H1093 H 0.10942 0.76855 0.39095 0.0
C1094 C 0.0791 0.77006 0.37435 0.0
O1095 O 0.08394 0.81772 0.35093 0.0
O1096 O 0.10807 0.81757 0.36864 0.0
N1097 N 0.0784 0.79343 0.43748 0.0
C1098 C 0.06665 0.80296 0.44748 0.0
C1099 C 0.06568 0.80054 0.4663 0.0
C1100 C 0.07882 0.79028 0.47515 0.0
C1101 C 0.09235 0.78209 0.46489 0.0
C1102 C 0.09115 0.78338 0.44597 0.0
H1103 H 0.05935 0.81349 0.44095 0.0
O1104 O 0.0807 0.83245 0.38869 0.0
O1105 O 0.08769 0.80738 0.4026 0.0
O1106 O 0.05592 0.8044 0.37696 0.0
O1107 O 0.05182 0.79693 0.40612 0.0
C1108 C 0.10658 0.77212 0.47265 0.0
C1109 C 0.11937 0.76362 0.46141 0.0
H1110 H 0.1412 0.74903 0.43536 0.0
H1111 H 0.13606 0.7521 0.40228 0.0
H1112 H 0.05548 0.80747 0.47406 0.0
H1113 H 0.07864 0.78916 0.48976 0.0
H1114 H 0.10786 0.771 0.48722 0.0
H1115 H 0.13046 0.75623 0.46747 0.0
Mn1116 Mn 0.38955 0.75742 0.61003 0.0
Mn1117 Mn 0.42941 0.74617 0.62842 0.0
C1118 C 0.3892 0.77064 0.63848 0.0
C1119 C 0.37031 0.77678 0.59501 0.0
C1120 C 0.40063 0.71871 0.6192 0.0
O1121 O 0.40691 0.7542 0.58804 0.0
O1122 O 0.43255 0.75276 0.60357 0.0
C1123 C 0.45664 0.77727 0.62301 0.0
N1124 N 0.44785 0.76497 0.63345 0.0
C1125 C 0.46563 0.78064 0.66165 0.0
C1126 C 0.47367 0.79175 0.64881 0.0
C1127 C 0.46949 0.78982 0.63019 0.0
C1128 C 0.45129 0.76423 0.65059 0.0
H1129 H 0.45339 0.77807 0.60895 0.0
C1130 C 0.42411 0.75468 0.58892 0.0
O1131 O 0.36815 0.75936 0.59381 0.0
O1132 O 0.38538 0.7825 0.60197 0.0
N1133 N 0.42949 0.73674 0.6536 0.0
C1134 C 0.42774 0.72149 0.6667 0.0
C1135 C 0.42174 0.72722 0.70083 0.0
C1136 C 0.4206 0.74705 0.70878 0.0
C1137 C 0.42641 0.76372 0.6961 0.0
C1138 C 0.43253 0.75377 0.65978 0.0
H1139 H 0.42819 0.70856 0.65932 0.0
O1140 O 0.37527 0.76291 0.63146 0.0
O1141 O 0.40597 0.76553 0.63127 0.0
O1142 O 0.38771 0.72969 0.61636 0.0
O1143 O 0.41636 0.72438 0.622 0.0
C1144 C 0.44657 0.78251 0.70198 0.0
C1145 C 0.46415 0.78889 0.68521 0.0
H1146 H 0.4823 0.80281 0.65322 0.0
H1147 H 0.4758 0.79915 0.62088 0.0
H1148 H 0.41901 0.71765 0.71184 0.0
H1149 H 0.41635 0.74802 0.7227 0.0
H1150 H 0.44788 0.79294 0.7119 0.0
H1151 H 0.47275 0.80025 0.68881 0.0
Mn1152 Mn 0.75 0.4603 0.77783 0.0
Mn1153 Mn 0.71433 0.4662 0.74588 0.0
C1154 C 0.7273 0.43857 0.78313 0.0
C1155 C 0.7779 0.44953 0.78846 0.0
C1156 C 0.72206 0.49135 0.77826 0.0
O1157 O 0.76218 0.4728 0.75597 0.0
O1158 O 0.73825 0.47288 0.73769 0.0
C1159 C 0.72648 0.44274 0.71401 0.0
N1160 N 0.71249 0.4498 0.72363 0.0
C1161 C 0.69275 0.42414 0.70688 0.0
C1162 C 0.70744 0.42146 0.69559 0.0
C1163 C 0.72394 0.43041 0.69939 0.0
C1164 C 0.6954 0.4443 0.71939 0.0
H1165 H 0.74007 0.44599 0.718 0.0
C1166 C 0.75486 0.47565 0.74066 0.0
O1167 O 0.77192 0.46544 0.79251 0.0
O1168 O 0.76832 0.44011 0.77695 0.0
N1169 N 0.6881 0.46388 0.74962 0.0
C1170 C 0.67777 0.46735 0.76689 0.0
C1171 C 0.66248 0.44103 0.7821 0.0
C1172 C 0.66085 0.42284 0.77223 0.0
C1173 C 0.6697 0.41985 0.75246 0.0
C1174 C 0.68552 0.4476 0.73897 0.0
H1175 H 0.67955 0.48132 0.77161 0.0
O1176 O 0.73741 0.44548 0.79568 0.0
O1177 O 0.7277 0.44788 0.76662 0.0
O1178 O 0.73549 0.48325 0.7854 0.0
O1179 O 0.71408 0.48548 0.76419 0.0
C1180 C 0.66972 0.40136 0.73552 0.0
C1181 C 0.68094 0.40403 0.71413 0.0
H1182 H 0.70746 0.41005 0.68635 0.0
H1183 H 0.73577 0.42622 0.69191 0.0
H1184 H 0.65566 0.44009 0.79533 0.0
H1185 H 0.65089 0.41626 0.78002 0.0
H1186 H 0.66157 0.38941 0.73591 0.0
H1187 H 0.68158 0.3922 0.70551 0.0
Mn1188 Mn 0.84427 0.52403 0.02679 0.0
Mn1189 Mn 0.83628 0.48744 0.00459 0.0
C1190 C 0.84624 0.49738 0.04569 0.0
C1191 C 0.86831 0.54403 0.03303 0.0
C1192 C 0.80731 0.51422 0.01806 0.0
O1193 O 0.84108 0.52983 0.99838 0.0
O1194 O 0.85431 0.50498 0.99741 0.0
C1195 C 0.87231 0.47042 0.99943 0.0
N1196 N 0.85465 0.46931 0.00463 0.0
C1197 C 0.85703 0.43722 0.00909 0.0
C1198 C 0.87524 0.43801 0.00393 0.0
C1199 C 0.88292 0.45471 0.99909 0.0
C1200 C 0.84716 0.45332 0.00919 0.0
H1201 H 0.87829 0.48313 0.99542 0.0
C1202 C 0.84802 0.51756 0.98845 0.0
O1203 O 0.85161 0.54948 0.03318 0.0
O1204 O 0.87099 0.52788 0.02673 0.0
N1205 N 0.82021 0.46918 0.01189 0.0
C1206 C 0.80182 0.46933 0.01093 0.0
C1207 C 0.79219 0.45467 0.01751 0.0
C1208 C 0.80178 0.43949 0.02293 0.0
C1209 C 0.82032 0.43792 0.01927 0.0
C1210 C 0.82916 0.4535 0.01378 0.0
H1211 H 0.79454 0.48035 0.00501 0.0
O1212 O 0.84728 0.51364 0.05209 0.0
O1213 O 0.84302 0.49688 0.02836 0.0
O1214 O 0.81697 0.52339 0.02914 0.0
O1215 O 0.81486 0.50533 0.0049 0.0
C1216 C 0.83026 0.42176 0.02053 0.0
C1217 C 0.84835 0.42118 0.0146 0.0
H1218 H 0.88346 0.42592 0.00371 0.0
H1219 H 0.89695 0.45545 0.99502 0.0
H1220 H 0.77759 0.45506 0.01852 0.0
H1221 H 0.79462 0.42943 0.03018 0.0
H1222 H 0.82421 0.40965 0.02574 0.0
H1223 H 0.85568 0.40854 0.01512 0.0
Mn1224 Mn 0.85636 0.61585 0.26796 0.0
Mn1225 Mn 0.89557 0.60408 0.2494 0.0
C1226 C 0.88285 0.61837 0.28531 0.0
C1227 C 0.8304 0.59877 0.28008 0.0
C1228 C 0.87602 0.57658 0.27087 0.0
O1229 O 0.84949 0.61135 0.24113 0.0
O1230 O 0.8745 0.59617 0.23477 0.0
C1231 C 0.88483 0.63736 0.22941 0.0
N1232 N 0.89806 0.62656 0.23627 0.0
C1233 C 0.92043 0.64937 0.22955 0.0
C1234 C 0.90743 0.65921 0.22 0.0
C1235 C 0.88935 0.65348 0.22048 0.0
C1236 C 0.91488 0.63336 0.23812 0.0
H1237 H 0.87087 0.63438 0.23165 0.0
C1238 C 0.85891 0.60179 0.23038 0.0
O1239 O 0.84598 0.59184 0.27743 0.0
O1240 O 0.82953 0.61494 0.27468 0.0
N1241 N 0.91871 0.6105 0.25925 0.0
C1242 C 0.92963 0.59964 0.26898 0.0
C1243 C 0.94811 0.60386 0.27052 0.0
C1244 C 0.95527 0.61934 0.26252 0.0
C1245 C 0.94406 0.63006 0.25199 0.0
C1246 C 0.92593 0.62469 0.25007 0.0
H1247 H 0.92414 0.58776 0.27529 0.0
O1248 O 0.8672 0.62003 0.29287 0.0
O1249 O 0.88235 0.6171 0.26775 0.0
O1250 O 0.86185 0.58716 0.2713 0.0
O1251 O 0.89149 0.5816 0.26422 0.0
C1252 C 0.95038 0.64542 0.2427 0.0
C1253 C 0.93845 0.65528 0.23168 0.0
H1254 H 0.91095 0.67174 0.2133 0.0
H1255 H 0.87886 0.66174 0.21453 0.0
H1256 H 0.95693 0.59526 0.27792 0.0
H1257 H 0.96941 0.62271 0.26438 0.0
H1258 H 0.96434 0.6498 0.24404 0.0
H1259 H 0.9432 0.66743 0.22503 0.0
Mn1260 Mn 0.74881 0.60501 0.55568 0.0
Mn1261 Mn 0.72715 0.6351 0.52137 0.0
C1262 C 0.7172 0.61123 0.56248 0.0
C1263 C 0.75273 0.57455 0.56448 0.0
C1264 C 0.76314 0.64305 0.54163 0.0
O1265 O 0.76114 0.60012 0.53123 0.0
O1266 O 0.74219 0.61471 0.51194 0.0
C1267 C 0.72201 0.62668 0.4752 0.0
N1268 N 0.71624 0.63773 0.48855 0.0
C1269 C 0.68559 0.63894 0.47465 0.0
C1270 C 0.69273 0.62849 0.46049 0.0
C1271 C 0.71083 0.62311 0.4604 0.0
C1272 C 0.69757 0.64726 0.4874 0.0
H1273 H 0.73437 0.61922 0.47693 0.0
C1274 C 0.75398 0.60243 0.51557 0.0
O1275 O 0.76474 0.58672 0.56907 0.0
O1276 O 0.73967 0.58009 0.55461 0.0
N1277 N 0.69522 0.65867 0.52888 0.0
C1278 C 0.69001 0.67054 0.54201 0.0
C1279 C 0.67382 0.67841 0.53924 0.0
C1280 C 0.66333 0.67078 0.52539 0.0
C1281 C 0.66857 0.65429 0.51419 0.0
C1282 C 0.68588 0.6577 0.51196 0.0
H1283 H 0.69815 0.67403 0.55373 0.0
O1284 O 0.72812 0.60781 0.57574 0.0
O1285 O 0.72803 0.61499 0.54736 0.0
O1286 O 0.76088 0.63171 0.55514 0.0
O1287 O 0.75346 0.64318 0.52684 0.0
C1288 C 0.66012 0.64121 0.49815 0.0
C1289 C 0.66714 0.63645 0.4802 0.0
H1290 H 0.6838 0.62198 0.45093 0.0
H1291 H 0.71537 0.61388 0.44999 0.0
H1292 H 0.66899 0.68925 0.54786 0.0
H1293 H 0.6512 0.67886 0.52493 0.0
H1294 H 0.64766 0.63371 0.49834 0.0
H1295 H 0.65863 0.62783 0.47184 0.0
Mn1296 Mn 0.68249 0.48527 0.63126 0.0
Mn1297 Mn 0.66466 0.48721 0.67877 0.0
C1298 C 0.66082 0.50965 0.63554 0.0
C1299 C 0.70463 0.49474 0.6109 0.0
C1300 C 0.6641 0.45407 0.65324 0.0
O1301 O 0.70244 0.47544 0.64832 0.0
O1302 O 0.69087 0.48244 0.67577 0.0
C1303 C 0.69152 0.49127 0.71712 0.0
N1304 N 0.67423 0.49296 0.71151 0.0
C1305 C 0.66909 0.51844 0.73303 0.0
C1306 C 0.6871 0.51571 0.73853 0.0
C1307 C 0.6979 0.50215 0.73111 0.0
C1308 C 0.66058 0.50533 0.72159 0.0
H1309 H 0.70084 0.48294 0.7096 0.0
C1310 C 0.7041 0.47835 0.66539 0.0
O1311 O 0.69694 0.47896 0.60907 0.0
O1312 O 0.69965 0.50461 0.62437 0.0
N1313 N 0.6308 0.50602 0.69047 0.0
C1314 C 0.61311 0.50638 0.68537 0.0
C1315 C 0.60243 0.51716 0.69559 0.0
C1316 C 0.6115 0.52875 0.70769 0.0
C1317 C 0.632 0.53035 0.70929 0.0
C1318 C 0.63646 0.51339 0.70775 0.0
H1319 H 0.60758 0.49851 0.67425 0.0
O1320 O 0.66271 0.50271 0.61954 0.0
O1321 O 0.66904 0.4977 0.64775 0.0
O1322 O 0.66638 0.46247 0.63789 0.0
O1323 O 0.66604 0.46112 0.66933 0.0
C1324 C 0.64756 0.5425 0.71949 0.0
C1325 C 0.6628 0.5366 0.73126 0.0
H1326 H 0.69414 0.52613 0.74592 0.0
H1327 H 0.71216 0.5018 0.73445 0.0
H1328 H 0.58789 0.51747 0.69368 0.0
H1329 H 0.60099 0.53639 0.71425 0.0
H1330 H 0.64886 0.55684 0.7206 0.0
H1331 H 0.67167 0.54723 0.73611 0.0
Mn1332 Mn 0.80423 0.40165 0.90697 0.0
Mn1333 Mn 0.77762 0.42343 0.94924 0.0
C1334 C 0.77108 0.39337 0.90901 0.0
C1335 C 0.81171 0.40934 0.87706 0.0
C1336 C 0.80649 0.39231 0.94164 0.0
O1337 O 0.81721 0.42522 0.91934 0.0
O1338 O 0.80126 0.43541 0.94463 0.0
C1339 C 0.77572 0.46855 0.96945 0.0
N1340 N 0.76669 0.45325 0.96486 0.0
C1341 C 0.73659 0.46786 0.97375 0.0
C1342 C 0.74673 0.4837 0.97661 0.0
C1343 C 0.76587 0.48383 0.97519 0.0
C1344 C 0.74613 0.4525 0.96773 0.0
H1345 H 0.79025 0.46921 0.96817 0.0
C1346 C 0.81416 0.43653 0.93286 0.0
O1347 O 0.82183 0.39846 0.88633 0.0
O1348 O 0.79824 0.41648 0.88542 0.0
N1349 N 0.73762 0.4134 0.9514 0.0
C1350 C 0.73186 0.39698 0.95812 0.0
C1351 C 0.72182 0.39748 0.97203 0.0
C1352 C 0.71448 0.414 0.97375 0.0
C1353 C 0.71359 0.43092 0.96032 0.0
C1354 C 0.7301 0.43056 0.95731 0.0
H1355 H 0.73769 0.38389 0.95527 0.0
O1356 O 0.78152 0.38495 0.89775 0.0
O1357 O 0.78302 0.40383 0.92034 0.0
O1358 O 0.81414 0.38516 0.92803 0.0
O1359 O 0.79388 0.40345 0.93693 0.0
C1360 C 0.70687 0.45094 0.96363 0.0
C1361 C 0.71671 0.46631 0.97299 0.0
H1362 H 0.73978 0.49629 0.97885 0.0
H1363 H 0.77315 0.49631 0.97787 0.0
H1364 H 0.7195 0.38564 0.98052 0.0
H1365 H 0.70745 0.40999 0.98565 0.0
H1366 H 0.69306 0.45401 0.95962 0.0
H1367 H 0.70898 0.47834 0.97605 0.0
Mn1368 Mn 0.94954 0.55164 0.14205 0.0
Mn1369 Mn 0.93755 0.53954 0.19076 0.0
C1370 C 0.95763 0.51931 0.14907 0.0
C1371 C 0.93819 0.55515 0.11224 0.0
C1372 C 0.96605 0.56861 0.17909 0.0
O1373 O 0.92773 0.56732 0.1519 0.0
O1374 O 0.9218 0.55831 0.18082 0.0
C1375 C 0.90382 0.54997 0.22274 0.0
N1376 N 0.91934 0.54049 0.2214 0.0
C1377 C 0.90531 0.51445 0.23905 0.0
C1378 C 0.88989 0.52538 0.23956 0.0
C1379 C 0.88932 0.54285 0.23229 0.0
C1380 C 0.92185 0.52202 0.23163 0.0
H1381 H 0.90198 0.56204 0.21474 0.0
C1382 C 0.91825 0.56744 0.16659 0.0
O1383 O 0.95037 0.56617 0.11873 0.0
O1384 O 0.93293 0.54238 0.12276 0.0
N1385 N 0.95092 0.5054 0.20627 0.0
C1386 C 0.96847 0.49926 0.20885 0.0
C1387 C 0.97054 0.48436 0.2183 0.0
C1388 C 0.95442 0.477 0.22338 0.0
C1389 C 0.93478 0.48537 0.22073 0.0
C1390 C 0.93962 0.50289 0.22055 0.0
H1391 H 0.98045 0.50476 0.20258 0.0
O1392 O 0.96532 0.52746 0.13564 0.0
O1393 O 0.94805 0.53348 0.15792 0.0
O1394 O 0.9672 0.56383 0.16197 0.0
O1395 O 0.95329 0.5634 0.19015 0.0
C1396 C 0.91376 0.48153 0.22821 0.0
C1397 C 0.90231 0.49479 0.23763 0.0
H1398 H 0.87711 0.51902 0.24222 0.0
H1399 H 0.87661 0.55004 0.23204 0.0
H1400 H 0.98367 0.47818 0.22051 0.0
H1401 H 0.9593 0.46479 0.22973 0.0
H1402 H 0.92339 0.47945 0.21935 0.0
H1403 H 0.88954 0.48933 0.24209 0.0
Mn1404 Mn 0.75604 0.60998 0.39066 0.0
Mn1405 Mn 0.74073 0.62901 0.42911 0.0
C1406 C 0.76088 0.64083 0.38908 0.0
C1407 C 0.77825 0.59798 0.372 0.0
C1408 C 0.71628 0.61832 0.39922 0.0
O1409 O 0.75974 0.58989 0.40908 0.0
O1410 O 0.74319 0.60234 0.43081 0.0
C1411 C 0.76687 0.61971 0.46174 0.0
N1412 N 0.7575 0.63134 0.45113 0.0
C1413 C 0.76995 0.65782 0.47513 0.0
C1414 C 0.77782 0.64354 0.48438 0.0
C1415 C 0.77649 0.62545 0.47773 0.0
C1416 C 0.75723 0.64835 0.45638 0.0
H1417 H 0.76704 0.60584 0.45793 0.0
C1418 C 0.75235 0.58923 0.42445 0.0
O1419 O 0.76144 0.59307 0.37007 0.0
O1420 O 0.78205 0.60857 0.38543 0.0
N1421 N 0.73583 0.65414 0.43023 0.0
C1422 C 0.72241 0.66799 0.42527 0.0
C1423 C 0.73137 0.70099 0.4216 0.0
C1424 C 0.75084 0.70772 0.42529 0.0
C1425 C 0.76573 0.69402 0.4342 0.0
C1426 C 0.7527 0.65867 0.43674 0.0
H1427 H 0.70928 0.66139 0.42267 0.0
O1428 O 0.75443 0.63162 0.37566 0.0
O1429 O 0.75964 0.63261 0.40604 0.0
O1430 O 0.72739 0.60801 0.39096 0.0
O1431 O 0.72113 0.62803 0.41227 0.0
C1432 C 0.77963 0.69892 0.45771 0.0
C1433 C 0.78019 0.68119 0.47658 0.0
H1434 H 0.78686 0.64641 0.49555 0.0
H1435 H 0.7841 0.6154 0.48499 0.0
H1436 H 0.72336 0.71269 0.41711 0.0
H1437 H 0.75167 0.722 0.42252 0.0
H1438 H 0.79128 0.70767 0.45849 0.0
H1439 H 0.79133 0.6818 0.4857 0.0
Mn1440 Mn 0.78015 0.74629 0.45736 0.0
Mn1441 Mn 0.74819 0.70988 0.45542 0.0
C1442 C 0.78558 0.72569 0.43192 0.0
C1443 C 0.79021 0.7754 0.45006 0.0
C1444 C 0.77122 0.72104 0.48904 0.0
O1445 O 0.75659 0.75489 0.47 0.0
O1446 O 0.73875 0.73557 0.45465 0.0
C1447 C 0.7081 0.71551 0.46077 0.0
N1448 N 0.7216 0.70316 0.45976 0.0
C1449 C 0.70244 0.69213 0.43013 0.0
C1450 C 0.68958 0.70469 0.43424 0.0
C1451 C 0.69264 0.71612 0.44905 0.0
C1452 C 0.71848 0.68988 0.44832 0.0
H1453 H 0.70992 0.72576 0.4703 0.0
C1454 C 0.74083 0.74886 0.46581 0.0
O1455 O 0.79361 0.7681 0.46558 0.0
O1456 O 0.77953 0.76643 0.43922 0.0
N1457 N 0.75589 0.68008 0.457 0.0
C1458 C 0.77894 0.66992 0.44676 0.0
C1459 C 0.78274 0.66685 0.42628 0.0
C1460 C 0.768 0.67133 0.41082 0.0
C1461 C 0.74814 0.67779 0.41325 0.0
C1462 C 0.73935 0.68378 0.44482 0.0
H1463 H 0.76777 0.67442 0.45272 0.0
O1464 O 0.79875 0.73504 0.43901 0.0
O1465 O 0.77123 0.72614 0.44337 0.0
O1466 O 0.7834 0.72956 0.47985 0.0
O1467 O 0.75627 0.7146 0.48183 0.0
C1468 C 0.72938 0.6808 0.39756 0.0
C1469 C 0.70725 0.68773 0.40604 0.0
H1470 H 0.67919 0.70803 0.42447 0.0
H1471 H 0.68361 0.72735 0.44986 0.0
H1472 H 0.79766 0.66408 0.42473 0.0
H1473 H 0.77447 0.65948 0.41539 0.0
H1474 H 0.73121 0.67874 0.38322 0.0
H1475 H 0.6971 0.6913 0.39614 0.0
Mn1476 Mn 0.27309 0.85319 0.60342 0.0
Mn1477 Mn 0.25411 0.89299 0.60102 0.0
C1478 C 0.29051 0.8789 0.6105 0.0
C1479 C 0.28182 0.82623 0.61611 0.0
C1480 C 0.27204 0.8766 0.56885 0.0
O1481 O 0.24583 0.84643 0.60256 0.0
O1482 O 0.23922 0.87337 0.59137 0.0
C1483 C 0.23322 0.87873 0.63263 0.0
N1484 N 0.24148 0.89278 0.62396 0.0
C1485 C 0.23506 0.91251 0.64917 0.0
C1486 C 0.22496 0.89876 0.65729 0.0
C1487 C 0.22444 0.88161 0.64919 0.0
C1488 C 0.24366 0.90866 0.63268 0.0
H1489 H 0.23373 0.8652 0.62749 0.0
C1490 C 0.23495 0.85717 0.59466 0.0
O1491 O 0.27922 0.82791 0.59888 0.0
O1492 O 0.2777 0.83992 0.62642 0.0
N1493 N 0.26419 0.91521 0.60981 0.0
C1494 C 0.2741 0.92723 0.60033 0.0
C1495 C 0.27611 0.94493 0.60702 0.0
C1496 C 0.26762 0.95053 0.62285 0.0
C1497 C 0.25723 0.93816 0.63231 0.0
C1498 C 0.25537 0.92068 0.62501 0.0
H1499 H 0.28053 0.92315 0.58791 0.0
O1500 O 0.29804 0.86392 0.60549 0.0
O1501 O 0.27291 0.87818 0.61215 0.0
O1502 O 0.27193 0.86139 0.57694 0.0
O1503 O 0.26765 0.89164 0.57702 0.0
C1504 C 0.24818 0.94271 0.64841 0.0
C1505 C 0.23729 0.92975 0.65702 0.0
H1506 H 0.21819 0.901 0.67008 0.0
H1507 H 0.21754 0.87054 0.65582 0.0
H1508 H 0.28439 0.95438 0.6001 0.0
H1509 H 0.26933 0.96432 0.62765 0.0
H1510 H 0.24958 0.95611 0.6543 0.0
H1511 H 0.23067 0.93319 0.66962 0.0
Mn1512 Mn 0.52129 0.02059 0.83845 0.0
Mn1513 Mn 0.48639 0.00089 0.81609 0.0
C1514 C 0.4957 0.03846 0.83261 0.0
C1515 C 0.53518 0.02996 0.86601 0.0
C1516 C 0.51966 0.01475 0.79687 0.0
O1517 O 0.52602 0.99272 0.84256 0.0
O1518 O 0.50077 0.98391 0.82868 0.0
C1519 C 0.46878 0.99279 0.85076 0.0
N1520 N 0.46761 0.99714 0.8329 0.0
C1521 C 0.43568 0.00038 0.83461 0.0
C1522 C 0.43617 0.99498 0.85278 0.0
C1523 C 0.45292 0.99153 0.86103 0.0
C1524 C 0.45188 0.00187 0.82532 0.0
H1525 H 0.48177 0.99094 0.85715 0.0
C1526 C 0.51448 0.98045 0.83802 0.0
O1527 O 0.54441 0.02873 0.85113 0.0
O1528 O 0.51872 0.024 0.86514 0.0
N1529 N 0.46921 0.01336 0.80172 0.0
C1530 C 0.47098 0.01792 0.78391 0.0
C1531 C 0.45557 0.02119 0.7733 0.0
C1532 C 0.43836 0.01861 0.78071 0.0
C1533 C 0.43684 0.01269 0.79859 0.0
C1534 C 0.45266 0.00968 0.80847 0.0
H1535 H 0.48396 0.0184 0.7776 0.0
O1536 O 0.51157 0.04541 0.83524 0.0
O1537 O 0.49516 0.02077 0.83243 0.0
O1538 O 0.52803 0.02102 0.81087 0.0
O1539 O 0.50543 0.00509 0.79803 0.0
C1540 C 0.42023 0.01034 0.80728 0.0
C1541 C 0.41988 0.00541 0.82567 0.0
H1542 H 0.42386 0.994 0.86063 0.0
H1543 H 0.45361 0.98806 0.87522 0.0
H1544 H 0.45698 0.02557 0.75946 0.0
H1545 H 0.42639 0.02149 0.77274 0.0
H1546 H 0.40792 0.01302 0.80002 0.0
H1547 H 0.40785 0.00631 0.83336 0.0
Mn1548 Mn 0.18691 0.20365 0.99125 0.0
Mn1549 Mn 0.21523 0.18625 0.02046 0.0
C1550 C 0.17937 0.17663 0.00675 0.0
C1551 C 0.16077 0.22131 0.98945 0.0
C1552 C 0.21994 0.18064 0.97984 0.0
O1553 O 0.20414 0.22565 0.99702 0.0
O1554 O 0.22291 0.21106 0.01581 0.0
C1555 C 0.19148 0.20268 0.04814 0.0
N1556 N 0.2073 0.19446 0.04352 0.0
C1557 C 0.21621 0.19175 0.07447 0.0
C1558 C 0.1999 0.19979 0.07978 0.0
C1559 C 0.18761 0.20563 0.06649 0.0
C1560 C 0.21981 0.19033 0.05598 0.0
H1561 H 0.18178 0.20657 0.03792 0.0
C1562 C 0.21779 0.22538 0.00788 0.0
O1563 O 0.16973 0.21754 0.9748 0.0
O1564 O 0.16785 0.21635 0.00445 0.0
N1565 N 0.23803 0.18246 0.03144 0.0
C1566 C 0.25218 0.1736 0.02377 0.0
C1567 C 0.26351 0.16348 0.03479 0.0
C1568 C 0.2608 0.16366 0.05345 0.0
C1569 C 0.24748 0.17447 0.06133 0.0
C1570 C 0.23579 0.18324 0.04961 0.0
H1571 H 0.25341 0.17235 0.00926 0.0
O1572 O 0.17118 0.18062 0.99183 0.0
O1573 O 0.19156 0.18847 0.01124 0.0
O1574 O 0.20616 0.19017 0.97484 0.0
O1575 O 0.22418 0.17836 0.99647 0.0
C1576 C 0.24396 0.1752 0.08008 0.0
C1577 C 0.22866 0.18433 0.0867 0.0
H1578 H 0.19659 0.20137 0.09396 0.0
H1579 H 0.17501 0.21192 0.07039 0.0
H1580 H 0.27313 0.15423 0.0289 0.0
H1581 H 0.26764 0.15385 0.0611 0.0
H1582 H 0.25269 0.16874 0.08962 0.0
H1583 H 0.2262 0.18482 0.10114 0.0
Mn1584 Mn 0.61118 0.39031 0.7554 0.0
Mn1585 Mn 0.62905 0.43297 0.74422 0.0
C1586 C 0.64231 0.39081 0.76206 0.0
C1587 C 0.59906 0.37078 0.77631 0.0
C1588 C 0.62052 0.40277 0.71699 0.0
O1589 O 0.58857 0.40659 0.75522 0.0
O1590 O 0.60325 0.43166 0.74824 0.0
C1591 C 0.61845 0.45234 0.77906 0.0
N1592 N 0.63013 0.45135 0.76487 0.0
C1593 C 0.65225 0.47064 0.78655 0.0
C1594 C 0.63744 0.47361 0.79754 0.0
C1595 C 0.62128 0.46402 0.79415 0.0
C1596 C 0.64553 0.46144 0.76555 0.0
H1597 H 0.60691 0.44346 0.77941 0.0
C1598 C 0.58883 0.42337 0.752 0.0
O1599 O 0.59575 0.36857 0.75912 0.0
O1600 O 0.60728 0.38549 0.78125 0.0
N1601 N 0.6533 0.44051 0.73635 0.0
C1602 C 0.66623 0.43014 0.72446 0.0
C1603 C 0.69553 0.41926 0.73805 0.0
C1604 C 0.70157 0.42624 0.7568 0.0
C1605 C 0.68876 0.43949 0.76856 0.0
C1606 C 0.65895 0.44872 0.75325 0.0
H1607 H 0.66016 0.42715 0.71117 0.0
O1608 O 0.63369 0.37646 0.75733 0.0
O1609 O 0.63281 0.40694 0.7592 0.0
O1610 O 0.61319 0.39107 0.7274 0.0
O1611 O 0.62706 0.41787 0.72239 0.0
C1612 C 0.69093 0.45174 0.79033 0.0
C1613 C 0.67317 0.46623 0.7983 0.0
H1614 H 0.63936 0.47988 0.81069 0.0
H1615 H 0.61108 0.46426 0.8046 0.0
H1616 H 0.70605 0.41029 0.7325 0.0
H1617 H 0.71551 0.42317 0.75699 0.0
H1618 H 0.70279 0.45288 0.7985 0.0
H1619 H 0.67448 0.4713 0.81199 0.0
Mn1620 Mn 0.68483 0.43443 0.0077 0.0
Mn1621 Mn 0.72836 0.43935 0.98047 0.0
C1622 C 0.68173 0.42303 0.97392 0.0
C1623 C 0.66305 0.41509 0.02187 0.0
C1624 C 0.71955 0.46112 0.01496 0.0
O1625 O 0.7044 0.41639 0.01606 0.0
O1626 O 0.73167 0.42324 0.00314 0.0
C1627 C 0.76486 0.41039 0.97229 0.0
N1628 N 0.75829 0.42617 0.9658 0.0
C1629 C 0.75924 0.42085 0.92997 0.0
C1630 C 0.76257 0.40056 0.94124 0.0
C1631 C 0.76799 0.39719 0.95974 0.0
C1632 C 0.75672 0.43469 0.94219 0.0
H1633 H 0.76184 0.40656 0.98592 0.0
C1634 C 0.72165 0.41469 0.0148 0.0
O1635 O 0.67102 0.42802 0.03057 0.0
O1636 O 0.66699 0.41367 0.00489 0.0
N1637 N 0.72973 0.45715 0.94342 0.0
C1638 C 0.72019 0.47138 0.93566 0.0
C1639 C 0.72527 0.4787 0.91913 0.0
C1640 C 0.73951 0.47124 0.90964 0.0
C1641 C 0.74869 0.45648 0.9168 0.0
C1642 C 0.7451 0.45026 0.93408 0.0
H1643 H 0.70875 0.47772 0.94211 0.0
O1644 O 0.67182 0.41668 0.98696 0.0
O1645 O 0.69363 0.43424 0.98412 0.0
O1646 O 0.70267 0.45597 0.01708 0.0
O1647 O 0.73074 0.45438 0.00347 0.0
C1648 C 0.76008 0.44651 0.9065 0.0
C1649 C 0.76395 0.42906 0.91201 0.0
H1650 H 0.76222 0.38653 0.93699 0.0
H1651 H 0.77067 0.38357 0.96451 0.0
H1652 H 0.71781 0.48992 0.91348 0.0
H1653 H 0.74268 0.47636 0.89629 0.0
H1654 H 0.76375 0.45094 0.893 0.0
H1655 H 0.77026 0.42302 0.90048 0.0
Mn1656 Mn 0.40102 0.90955 0.80835 0.0
Mn1657 Mn 0.42261 0.95433 0.78542 0.0
C1658 C 0.39511 0.91295 0.77518 0.0
C1659 C 0.41011 0.87983 0.81548 0.0
C1660 C 0.38791 0.94346 0.81087 0.0
O1661 O 0.4227 0.9224 0.82336 0.0
O1662 O 0.43275 0.94928 0.81014 0.0
C1663 C 0.46832 0.97131 0.78769 0.0
N1664 N 0.45296 0.97072 0.77774 0.0
C1665 C 0.47041 0.98093 0.74962 0.0
C1666 C 0.48567 0.98136 0.76098 0.0
C1667 C 0.48467 0.97619 0.77936 0.0
C1668 C 0.45396 0.97481 0.75732 0.0
H1669 H 0.46821 0.96689 0.80162 0.0
C1670 C 0.43353 0.93649 0.82216 0.0
O1671 O 0.39777 0.88799 0.82481 0.0
O1672 O 0.41776 0.88913 0.80295 0.0
N1673 N 0.41609 0.95806 0.74478 0.0
C1674 C 0.39988 0.96333 0.73715 0.0
C1675 C 0.40045 0.9769 0.72649 0.0
C1676 C 0.41759 0.98061 0.72193 0.0
C1677 C 0.43542 0.96821 0.72319 0.0
C1678 C 0.43368 0.96521 0.7392 0.0
H1679 H 0.38652 0.95946 0.74163 0.0
O1680 O 0.38694 0.90043 0.78429 0.0
O1681 O 0.40367 0.92462 0.78818 0.0
O1682 O 0.3823 0.92866 0.81752 0.0
O1683 O 0.40106 0.94119 0.79945 0.0
C1684 C 0.4563 0.97236 0.7182 0.0
C1685 C 0.47154 0.97934 0.72995 0.0
H1686 H 0.49886 0.98366 0.75523 0.0
H1687 H 0.49706 0.975 0.78707 0.0
H1688 H 0.38846 0.98446 0.72257 0.0
H1689 H 0.4146 0.99363 0.71591 0.0
H1690 H 0.46095 0.96855 0.70478 0.0
H1691 H 0.48472 0.98018 0.72386 0.0
Mn1692 Mn 0.07145 0.06332 0.22784 0.0
Mn1693 Mn 0.08466 0.02006 0.22934 0.0
C1694 C 0.09359 0.05374 0.20748 0.0
C1695 C 0.05095 0.0847 0.21927 0.0
C1696 C 0.10024 0.04968 0.25455 0.0
O1697 O 0.05226 0.05202 0.24451 0.0
O1698 O 0.06322 0.02413 0.24384 0.0
C1699 C 0.05221 0.00661 0.2095 0.0
N1700 N 0.07051 0.00699 0.21177 0.0
C1701 C 0.07443 0.98377 0.18922 0.0
C1702 C 0.0556 0.98279 0.18695 0.0
C1703 C 0.04445 0.99443 0.197 0.0
C1704 C 0.08131 0.99641 0.20165 0.0
H1705 H 0.04362 0.01555 0.21715 0.0
C1706 C 0.05147 0.03544 0.24881 0.0
O1707 O 0.06146 0.0869 0.23322 0.0
O1708 O 0.05215 0.06978 0.20997 0.0
N1709 N 0.10477 0.01168 0.21603 0.0
C1710 C 0.12232 0.01426 0.22015 0.0
C1711 C 0.1354 0.00324 0.21225 0.0
C1712 C 0.13028 0.98984 0.19959 0.0
C1713 C 0.11195 0.98749 0.19534 0.0
C1714 C 0.09954 0.99857 0.20426 0.0
H1715 H 0.12585 0.02516 0.22885 0.0
O1716 O 0.0907 0.07074 0.21052 0.0
O1717 O 0.08223 0.04254 0.21531 0.0
O1718 O 0.09049 0.06247 0.24839 0.0
O1719 O 0.09964 0.03337 0.24806 0.0
C1720 C 0.10545 0.97442 0.18294 0.0
C1721 C 0.08667 0.97265 0.17976 0.0
H1722 H 0.04958 0.97326 0.17747 0.0
H1723 H 0.02991 0.99391 0.19521 0.0
H1724 H 0.14939 0.00525 0.21594 0.0
H1725 H 0.14049 0.98154 0.19321 0.0
H1726 H 0.11476 0.96566 0.17581 0.0
H1727 H 0.08178 0.96263 0.17015 0.0
H1728 H 0.05185 0.27829 0.26815 0.0
H1729 H 0.0056 0.31081 0.27988 0.0
H1730 H 0.98556 0.28468 0.27572 0.0
H1731 H 0.98327 0.25559 0.25617 0.0
H1732 H 0.02796 0.21921 0.26203 0.0
H1733 H 0.04768 0.24414 0.2717 0.0
C1734 C 0.03757 0.27957 0.27115 0.0
C1735 C 0.02942 0.29672 0.27071 0.0
C1736 C 0.02635 0.26405 0.27067 0.0
C1737 C 0.01171 0.29767 0.27775 0.0
C1738 C 6e-05 0.28281 0.27497 0.0
C1739 C 0.99687 0.25259 0.26079 0.0
C1740 C 0.00521 0.23629 0.25554 0.0
C1741 C 0.00737 0.26621 0.26947 0.0
C1742 C 0.02226 0.23251 0.26322 0.0
C1743 C 0.03345 0.24664 0.26922 0.0
H1744 H 0.96026 0.86148 0.49546 0.0
H1745 H 0.96802 0.81026 0.52196 0.0
H1746 H 0.94679 0.796 0.50044 0.0
H1747 H 0.93077 0.79704 0.47079 0.0
H1748 H 0.92679 0.8477 0.44235 0.0
H1749 H 0.94141 0.86323 0.46796 0.0
C1750 C 0.95685 0.84728 0.497 0.0
C1751 C 0.96604 0.837 0.51042 0.0
C1752 C 0.94553 0.83899 0.48384 0.0
C1753 C 0.9613 0.81864 0.51204 0.0
C1754 C 0.94932 0.81041 0.49945 0.0
C1755 C 0.93277 0.81158 0.4703 0.0
C1756 C 0.92782 0.8211 0.45433 0.0
C1757 C 0.9421 0.82028 0.48477 0.0
C1758 C 0.93032 0.83995 0.45424 0.0
C1759 C 0.9389 0.84881 0.46889 0.0
H1760 H 0.51049 0.686 0.72423 0.0
H1761 H 0.46589 0.65132 0.73813 0.0
H1762 H 0.45668 0.67279 0.76175 0.0
H1763 H 0.45259 0.70716 0.76302 0.0
H1764 H 0.49882 0.74079 0.75093 0.0
H1765 H 0.51588 0.71417 0.74201 0.0
C1766 C 0.49905 0.68286 0.73282 0.0
C1767 C 0.4873 0.66854 0.72785 0.0
C1768 C 0.49373 0.69545 0.74618 0.0
C1769 C 0.47431 0.6631 0.7407 0.0
C1770 C 0.46897 0.67553 0.7543 0.0
C1771 C 0.46681 0.7086 0.75974 0.0
C1772 C 0.47401 0.72616 0.75649 0.0
C1773 C 0.4769 0.69298 0.75482 0.0
C1774 C 0.49267 0.72761 0.75291 0.0
C1775 C 0.50249 0.7123 0.74762 0.0
H1776 H 0.48547 0.30356 0.97437 0.0
H1777 H 0.49569 0.2472 0.98464 0.0
H1778 H 0.51486 0.25503 0.01042 0.0
H1779 H 0.53426 0.2783 0.0251 0.0
H1780 H 0.52066 0.33437 0.01842 0.0
H1781 H 0.49645 0.32628 0.99738 0.0
C1782 C 0.49145 0.29301 0.98256 0.0
C1783 C 0.49036 0.27487 0.97674 0.0
C1784 C 0.50187 0.29756 0.99815 0.0
C1785 C 0.49739 0.26137 0.98814 0.0
C1786 C 0.50823 0.26579 0.00305 0.0
C1787 C 0.52539 0.2887 0.01988 0.0
C1788 C 0.53017 0.30699 0.02232 0.0
C1789 C 0.51147 0.28392 0.00753 0.0
C1790 C 0.51769 0.32013 0.01631 0.0
C1791 C 0.5041 0.31556 0.00376 0.0
H1792 H 0.02021 0.72214 0.3857 0.0
H1793 H 0.05925 0.70069 0.42329 0.0
H1794 H 0.0839 0.71383 0.40538 0.0
H1795 H 0.09301 0.7377 0.384 0.0
H1796 H 0.05318 0.76189 0.34929 0.0
H1797 H 0.03055 0.74017 0.35961 0.0
C1798 C 0.03416 0.71988 0.38969 0.0
C1799 C 0.03789 0.71075 0.40604 0.0
C1800 C 0.04815 0.72789 0.37958 0.0
C1801 C 0.05601 0.7077 0.41087 0.0
C1802 C 0.07009 0.71531 0.40064 0.0
C1803 C 0.07963 0.73751 0.37789 0.0
C1804 C 0.07452 0.75214 0.36668 0.0
C1805 C 0.06622 0.72629 0.38557 0.0
C1806 C 0.05744 0.75119 0.35831 0.0
C1807 C 0.04425 0.73915 0.36478 0.0
H1808 H 0.49398 0.78263 0.59232 0.0
H1809 H 0.50359 0.7252 0.59105 0.0
H1810 H 0.4751 0.71999 0.5754 0.0
H1811 H 0.44446 0.73082 0.57023 0.0
H1812 H 0.43314 0.78751 0.57375 0.0
H1813 H 0.46539 0.79426 0.57737 0.0
C1814 C 0.49008 0.76911 0.58804 0.0
C1815 C 0.50065 0.75418 0.59341 0.0
C1816 C 0.47331 0.76611 0.5789 0.0
C1817 C 0.49547 0.73679 0.58755 0.0
C1818 C 0.47917 0.73379 0.57846 0.0
C1819 C 0.44915 0.74475 0.57077 0.0
C1820 C 0.43627 0.75845 0.57349 0.0
C1821 C 0.46744 0.7482 0.57518 0.0
C1822 C 0.44265 0.77645 0.57267 0.0
C1823 C 0.46119 0.78032 0.57537 0.0
H1824 H 0.57202 0.21013 0.84389 0.0
H1825 H 0.62918 0.20757 0.85283 0.0
H1826 H 0.62494 0.18381 0.87551 0.0
H1827 H 0.60274 0.17083 0.89842 0.0
H1828 H 0.54675 0.16701 0.88208 0.0
H1829 H 0.55271 0.18551 0.85573 0.0
C1830 C 0.58376 0.20355 0.84972 0.0
C1831 C 0.60059 0.21246 0.84914 0.0
C1832 C 0.5812 0.18893 0.86163 0.0
C1833 C 0.61565 0.20267 0.85541 0.0
C1834 C 0.61327 0.18896 0.8683 0.0
C1835 C 0.59211 0.17301 0.88851 0.0
C1836 C 0.57415 0.1681 0.89261 0.0
C1837 C 0.59574 0.18307 0.87264 0.0
C1838 C 0.56063 0.1709 0.8794 0.0
C1839 C 0.56395 0.18168 0.86435 0.0
H1840 H 0.9692 0.29841 0.04409 0.0
H1841 H 0.00881 0.34069 0.03799 0.0
H1842 H 0.03242 0.31849 0.03301 0.0
H1843 H 0.04191 0.28722 0.04268 0.0
H1844 H 0.00144 0.24511 0.03987 0.0
H1845 H 0.97794 0.26707 0.03524 0.0
C1846 C 0.98262 0.30293 0.0402 0.0
C1847 C 0.98776 0.32095 0.04338 0.0
C1848 C 0.99611 0.29004 0.03646 0.0
C1849 C 0.00483 0.3266 0.03689 0.0
C1850 C 0.01856 0.31388 0.0344 0.0
C1851 C 0.02821 0.28269 0.03978 0.0
C1852 C 0.02329 0.26465 0.04312 0.0
C1853 C 0.01453 0.29546 0.03603 0.0
C1854 C 0.00556 0.25903 0.03844 0.0
C1855 C 0.99189 0.27166 0.03587 0.0
H1856 H 0.26527 0.98592 0.25638 0.0
H1857 H 0.262 0.02154 0.21085 0.0
H1858 H 0.26806 0.04755 0.23054 0.0
H1859 H 0.25777 0.0573 0.26259 0.0
H1860 H 0.27665 0.0239 0.306 0.0
H1861 H 0.2813 0.9988 0.28477 0.0
C1862 C 0.26725 0.99911 0.25033 0.0
C1863 C 0.2603 0.00247 0.23283 0.0
C1864 C 0.27232 0.01393 0.26143 0.0
C1865 C 0.26543 0.019 0.22489 0.0
C1866 C 0.26857 0.03407 0.2362 0.0
C1867 C 0.26439 0.04519 0.26744 0.0
C1868 C 0.26417 0.04112 0.28608 0.0
C1869 C 0.2694 0.03157 0.25495 0.0
C1870 C 0.27477 0.02639 0.29167 0.0
C1871 C 0.27733 0.01189 0.27959 0.0
H1872 H 0.32499 0.9997 0.53322 0.0
H1873 H 0.27745 0.03172 0.5436 0.0
H1874 H 0.26397 0.02046 0.51513 0.0
H1875 H 0.26293 0.99637 0.49139 0.0
H1876 H 0.30797 0.96006 0.48581 0.0
H1877 H 0.32517 0.9779 0.50815 0.0
C1878 C 0.31172 0.0045 0.52923 0.0
C1879 C 0.30218 0.01644 0.54093 0.0
C1880 C 0.30343 0.99669 0.51382 0.0
C1881 C 0.28518 0.02263 0.53512 0.0
C1882 C 0.27735 0.0159 0.51895 0.0
C1883 C 0.27671 0.99266 0.49478 0.0
C1884 C 0.28407 0.97672 0.48707 0.0
C1885 C 0.28592 0.00217 0.50877 0.0
C1886 C 0.30199 0.97222 0.49138 0.0
C1887 C 0.3117 0.98231 0.5044 0.0
H1888 H 0.41514 0.06072 0.72352 0.0
H1889 H 0.39202 0.0106 0.74244 0.0
H1890 H 0.36297 0.02534 0.74677 0.0
H1891 H 0.3483 0.05393 0.75615 0.0
H1892 H 0.37129 0.10439 0.74063 0.0
H1893 H 0.39575 0.08887 0.72449 0.0
C1894 C 0.4039 0.05315 0.72911 0.0
C1895 C 0.40615 0.03469 0.73349 0.0
C1896 C 0.38748 0.06205 0.73318 0.0
C1897 C 0.39106 0.02494 0.73978 0.0
C1898 C 0.3744 0.03337 0.74239 0.0
C1899 C 0.35825 0.06154 0.74852 0.0
C1900 C 0.36077 0.08001 0.7528 0.0
C1901 C 0.37291 0.05213 0.74065 0.0
C1902 C 0.37114 0.08974 0.74011 0.0
C1903 C 0.38549 0.08089 0.73124 0.0
H1904 H 0.25009 0.03992 0.01162 0.0
H1905 H 0.28741 0.04307 0.0564 0.0
H1906 H 0.31255 0.0381 0.03566 0.0
H1907 H 0.32347 0.04552 0.00548 0.0
H1908 H 0.28554 0.05392 0.96199 0.0
H1909 H 0.26125 0.04163 0.98072 0.0
C1910 C 0.2636 0.03911 0.01703 0.0
C1911 C 0.26684 0.04301 0.03554 0.0
C1912 C 0.27803 0.03903 0.00473 0.0
C1913 C 0.28443 0.04046 0.04224 0.0
C1914 C 0.2989 0.03811 0.03024 0.0
C1915 C 0.31007 0.04391 0.99976 0.0
C1916 C 0.30625 0.05125 0.98251 0.0
C1917 C 0.29589 0.03929 0.01145 0.0
C1918 C 0.2889 0.04854 0.97519 0.0
C1919 C 0.27491 0.04191 0.98614 0.0
H1920 H 0.24354 0.25085 0.99582 0.0
H1921 H 0.21024 0.23621 0.04126 0.0
H1922 H 0.23375 0.2462 0.06214 0.0
H1923 H 0.2672 0.24998 0.06596 0.0
H1924 H 0.2965 0.27587 0.02343 0.0
H1925 H 0.27085 0.2714 0.00265 0.0
C1926 C 0.24079 0.25102 0.01022 0.0
C1927 C 0.22534 0.24191 0.01689 0.0
C1928 C 0.2539 0.2582 0.02251 0.0
C1929 C 0.22212 0.24274 0.03569 0.0
C1930 C 0.2357 0.24826 0.04777 0.0
C1931 C 0.26768 0.25592 0.05259 0.0
C1932 C 0.28462 0.26067 0.04525 0.0
C1933 C 0.25221 0.25475 0.04123 0.0
C1934 C 0.28413 0.27007 0.02869 0.0
C1935 C 0.2695 0.26734 0.01665 0.0
H1936 H 0.71364 0.40581 0.04959 0.0
H1937 H 0.74623 0.38914 0.00441 0.0
H1938 H 0.76056 0.36596 0.02293 0.0
H1939 H 0.76802 0.35502 0.05342 0.0
H1940 H 0.73707 0.3732 0.09897 0.0
H1941 H 0.71672 0.38965 0.07886 0.0
C1942 C 0.72388 0.39709 0.04381 0.0
C1943 C 0.72978 0.40005 0.02592 0.0
C1944 C 0.73203 0.38369 0.05462 0.0
C1945 C 0.74243 0.38808 0.01843 0.0
C1946 C 0.75031 0.37449 0.02894 0.0
C1947 C 0.75616 0.3617 0.05885 0.0
C1948 C 0.75494 0.36419 0.07774 0.0
C1949 C 0.74582 0.37273 0.04728 0.0
C1950 C 0.73888 0.37179 0.08448 0.0
C1951 C 0.72763 0.38186 0.07301 0.0
H1952 H 0.98646 0.49967 0.26165 0.0
H1953 H 0.96214 0.4891 0.31343 0.0
H1954 H 0.98867 0.50228 0.3288 0.0
H1955 H 0.0148 0.52283 0.32689 0.0
H1956 H 0.03505 0.53868 0.27492 0.0
H1957 H 0.01574 0.51594 0.26022 0.0
C1958 C 0.987 0.5003 0.27631 0.0
C1959 C 0.97209 0.49418 0.28644 0.0
C1960 C 0.00199 0.5084 0.28494 0.0
C1961 C 0.9733 0.4941 0.3054 0.0
C1962 C 0.98852 0.50155 0.31414 0.0
C1963 C 0.0157 0.52057 0.31239 0.0
C1964 C 0.02514 0.53343 0.30183 0.0
C1965 C 0.00253 0.50949 0.30401 0.0
C1966 C 0.02716 0.52967 0.28332 0.0
C1967 C 0.01557 0.51709 0.27485 0.0
H1968 H 0.72921 0.7473 0.50059 0.0
H1969 H 0.71389 0.76735 0.44826 0.0
H1970 H 0.68204 0.76241 0.45517 0.0
H1971 H 0.6625 0.73844 0.46869 0.0
H1972 H 0.68177 0.71116 0.51615 0.0
H1973 H 0.70616 0.733 0.51968 0.0
C1974 C 0.71879 0.75179 0.49126 0.0
C1975 C 0.72403 0.75705 0.47367 0.0
C1976 C 0.70051 0.74676 0.49454 0.0
C1977 C 0.71035 0.76284 0.46172 0.0
C1978 C 0.69197 0.75978 0.46566 0.0
C1979 C 0.67181 0.73766 0.48003 0.0
C1980 C 0.67153 0.72205 0.49094 0.0
C1981 C 0.68722 0.74936 0.48083 0.0
C1982 C 0.68253 0.72221 0.5066 0.0
C1983 C 0.69662 0.7348 0.50866 0.0
H1984 H 0.047 0.04578 0.28359 0.0
H1985 H 0.0277 0.0076 0.24381 0.0
H1986 H 0.02785 0.98351 0.26614 0.0
H1987 H 0.04406 0.9722 0.2936 0.0
H1988 H 0.06118 0.01153 0.3335 0.0
H1989 H 0.05131 0.0359 0.31482 0.0
C1990 C 0.04156 0.03253 0.28011 0.0
C1991 C 0.03839 0.02821 0.26191 0.0
C1992 C 0.04216 0.01858 0.29297 0.0
C1993 C 0.03089 0.0111 0.25771 0.0
C1994 C 0.03135 0.99714 0.27042 0.0
C1995 C 0.04455 0.98598 0.29869 0.0
C1996 C 0.05399 0.9898 0.3148 0.0
C1997 C 0.0386 0.00042 0.28767 0.0
C1998 C 0.05436 0.00791 0.32112 0.0
C1999 C 0.04878 0.02213 0.31029 0.0
H2000 H 0.2047 0.86229 0.61574 0.0
H2001 H 0.22092 0.84492 0.56275 0.0
H2002 H 0.20068 0.86699 0.54905 0.0
H2003 H 0.18563 0.89657 0.55235 0.0
H2004 H 0.17227 0.91671 0.60545 0.0
H2005 H 0.18526 0.88931 0.6191 0.0
C2006 C 0.2035 0.86305 0.60117 0.0
C2007 C 0.21582 0.85326 0.59028 0.0
C2008 C 0.19331 0.87726 0.59355 0.0
C2009 C 0.21234 0.85287 0.57156 0.0
C2010 C 0.20125 0.86604 0.56368 0.0
C2011 C 0.18533 0.89484 0.56693 0.0
C2012 C 0.17837 0.90882 0.57795 0.0
C2013 C 0.19291 0.87921 0.57458 0.0
C2014 C 0.1777 0.90625 0.59674 0.0
C2015 C 0.18509 0.89056 0.60449 0.0
H2016 H 0.58842 0.49454 0.73511 0.0
H2017 H 0.59538 0.4985 0.79289 0.0
H2018 H 0.57905 0.46958 0.79658 0.0
H2019 H 0.57379 0.4394 0.78209 0.0
H2020 H 0.56793 0.43587 0.72439 0.0
H2021 H 0.57199 0.46845 0.72185 0.0
C2022 C 0.58607 0.48921 0.74856 0.0
C2023 C 0.59391 0.49797 0.76367 0.0
C2024 C 0.5772 0.47252 0.75048 0.0
C2025 C 0.59001 0.49158 0.78105 0.0
C2026 C 0.58067 0.47508 0.78312 0.0
C2027 C 0.57222 0.44593 0.76906 0.0
C2028 C 0.5728 0.43516 0.75321 0.0
C2029 C 0.57576 0.46469 0.76779 0.0
C2030 C 0.56886 0.4438 0.73675 0.0
C2031 C 0.5718 0.46245 0.73521 0.0
H2032 H 0.75532 0.50776 0.72305 0.0
H2033 H 0.77675 0.45415 0.71947 0.0
H2034 H 0.76354 0.45031 0.68929 0.0
H2035 H 0.73508 0.45756 0.67155 0.0
H2036 H 0.71324 0.51132 0.6765 0.0
H2037 H 0.73617 0.51934 0.69878 0.0
C2038 C 0.75802 0.49561 0.7152 0.0
C2039 C 0.76513 0.48051 0.72423 0.0
C2040 C 0.7487 0.49296 0.69872 0.0
C2041 C 0.7701 0.46564 0.71334 0.0
C2042 C 0.76199 0.46319 0.6962 0.0
C2043 C 0.73589 0.47122 0.67693 0.0
C2044 C 0.72203 0.48362 0.67296 0.0
C2045 C 0.74936 0.4759 0.68993 0.0
C2046 C 0.72347 0.5014 0.67976 0.0
C2047 C 0.73663 0.50605 0.69252 0.0
H2048 H 0.80101 0.47018 0.93719 0.0
H2049 H 0.85139 0.44118 0.93502 0.0
H2050 H 0.8672 0.46773 0.9478 0.0
H2051 H 0.8655 0.49634 0.96493 0.0
H2052 H 0.81411 0.52267 0.97222 0.0
H2053 H 0.79995 0.50056 0.95156 0.0
C2054 C 0.81555 0.4698 0.93922 0.0
C2055 C 0.82499 0.45356 0.93528 0.0
C2056 C 0.82427 0.48473 0.94759 0.0
C2057 C 0.84381 0.4534 0.93772 0.0
C2058 C 0.85278 0.46857 0.94524 0.0
C2059 C 0.85128 0.49768 0.96149 0.0
C2060 C 0.8409 0.51118 0.97043 0.0
C2061 C 0.843 0.48395 0.95094 0.0
C2062 C 0.82253 0.51266 0.96568 0.0
C2063 C 0.81437 0.4997 0.95411 0.0
H2064 H 0.85129 0.57186 0.20966 0.0
H2065 H 0.85845 0.62924 0.20483 0.0
H2066 H 0.88117 0.62472 0.18124 0.0
H2067 H 0.90459 0.60268 0.16895 0.0
H2068 H 0.88905 0.54646 0.16598 0.0
H2069 H 0.86301 0.55221 0.18501 0.0
C2070 C 0.85669 0.58352 0.2026 0.0
C2071 C 0.85522 0.60074 0.21063 0.0
C2072 C 0.86841 0.58086 0.18783 0.0
C2073 C 0.86131 0.6156 0.20043 0.0
C2074 C 0.87425 0.61306 0.18679 0.0
C2075 C 0.89488 0.59193 0.17136 0.0
C2076 C 0.89928 0.57396 0.16673 0.0
C2077 C 0.87899 0.59548 0.18143 0.0
C2078 C 0.88622 0.56033 0.16976 0.0
C2079 C 0.87135 0.56354 0.18084 0.0
H2080 H 0.72984 0.57021 0.44587 0.0
H2081 H 0.78621 0.57706 0.43369 0.0
H2082 H 0.79384 0.5755 0.46587 0.0
H2083 H 0.78231 0.58666 0.49595 0.0
H2084 H 0.72519 0.58269 0.50647 0.0
H2085 H 0.72001 0.56861 0.4772 0.0
C2086 C 0.7439 0.5702 0.4502 0.0
C2087 C 0.75726 0.57501 0.43768 0.0
C2088 C 0.74791 0.57095 0.46877 0.0
C2089 C 0.77552 0.57399 0.44319 0.0
C2090 C 0.77988 0.57347 0.46176 0.0
C2091 C 0.76889 0.58217 0.49197 0.0
C2092 C 0.75387 0.58708 0.50256 0.0
C2093 C 0.7659 0.5744 0.47462 0.0
C2094 C 0.73676 0.58 0.49797 0.0
C2095 C 0.73378 0.57188 0.48121 0.0
H2096 H 0.49845 0.96596 0.86851 0.0
H2097 H 0.52696 0.95013 0.82062 0.0
H2098 H 0.50104 0.93202 0.81067 0.0
H2099 H 0.46742 0.92907 0.81101 0.0
H2100 H 0.43798 0.94661 0.85804 0.0
H2101 H 0.4666 0.9555 0.87286 0.0
C2102 C 0.49935 0.95786 0.85627 0.0
C2103 C 0.51387 0.96133 0.84418 0.0
C2104 C 0.48356 0.94856 0.85002 0.0
C2105 C 0.51551 0.94899 0.82965 0.0
C2106 C 0.5003 0.93907 0.82354 0.0
C2107 C 0.4673 0.93434 0.82475 0.0
C2108 C 0.45048 0.93718 0.83339 0.0
C2109 C 0.48377 0.94012 0.83287 0.0
C2110 C 0.45062 0.94413 0.85112 0.0
C2111 C 0.46704 0.94938 0.85951 0.0
H2112 H 0.02857 0.36827 0.17679 0.0
H2113 H 0.9861 0.34686 0.20978 0.0
H2114 H 0.96445 0.34974 0.18458 0.0
H2115 H 0.9619 0.34909 0.15073 0.0
H2116 H 0.99989 0.38097 0.12053 0.0
H2117 H 0.01899 0.3845 0.14789 0.0
C2118 C 0.01454 0.36432 0.17851 0.0
C2119 C 0.00928 0.35422 0.19379 0.0
C2120 C 0.00189 0.36756 0.16456 0.0
C2121 C 0.99078 0.35168 0.19686 0.0
C2122 C 0.9784 0.35384 0.18269 0.0
C2123 C 0.97429 0.35699 0.15002 0.0
C2124 C 0.98123 0.36238 0.13312 0.0
C2125 C 0.98448 0.35986 0.16584 0.0
C2126 C 0.9958 0.3746 0.13301 0.0
C2127 C 0.0065 0.37683 0.14866 0.0
H2128 H 0.9335 0.71086 0.44599 0.0
H2129 H 0.96183 0.69188 0.39885 0.0
H2130 H 0.94074 0.70816 0.37929 0.0
H2131 H 0.92256 0.73701 0.37679 0.0
H2132 H 0.8939 0.75572 0.42368 0.0
H2133 H 0.90513 0.72998 0.44102 0.0
C2134 C 0.93486 0.70979 0.43144 0.0
C2135 C 0.95032 0.70066 0.42423 0.0
C2136 C 0.92246 0.71962 0.41987 0.0
C2137 C 0.9508 0.69913 0.40514 0.0
C2138 C 0.93846 0.70846 0.39376 0.0
C2139 C 0.91794 0.73512 0.39055 0.0
C2140 C 0.90916 0.75001 0.39946 0.0
C2141 C 0.92536 0.72029 0.40099 0.0
C2142 C 0.90206 0.74578 0.41669 0.0
C2143 C 0.90875 0.73091 0.42687 0.0
H2144 H 0.55558 0.64577 0.66463 0.0
H2145 H 0.51856 0.63384 0.62152 0.0
H2146 H 0.53459 0.65573 0.60257 0.0
H2147 H 0.55509 0.68464 0.5993 0.0
H2148 H 0.58771 0.70027 0.64475 0.0
H2149 H 0.57851 0.67244 0.66011 0.0
C2150 C 0.54962 0.64858 0.65154 0.0
C2151 C 0.53173 0.64007 0.64724 0.0
C2152 C 0.55812 0.66349 0.64083 0.0
C2153 C 0.52951 0.64139 0.62784 0.0
C2154 C 0.53888 0.65458 0.61655 0.0
C2155 C 0.55945 0.68314 0.61322 0.0
C2156 C 0.56915 0.69875 0.62184 0.0
C2157 C 0.55219 0.66715 0.62327 0.0
C2158 C 0.57793 0.69171 0.63782 0.0
C2159 C 0.57234 0.67524 0.64712 0.0
H2160 H 0.62692 0.29758 0.96442 0.0
H2161 H 0.5835 0.33515 0.95761 0.0
H2162 H 0.58872 0.33553 0.92472 0.0
H2163 H 0.5967 0.31523 0.89851 0.0
H2164 H 0.64092 0.27809 0.90513 0.0
H2165 H 0.64414 0.28725 0.93697 0.0
C2166 C 0.61843 0.3057 0.95567 0.0
C2167 C 0.60294 0.31418 0.96292 0.0
C2168 C 0.62101 0.30517 0.93666 0.0
C2169 C 0.59359 0.32632 0.95186 0.0
C2170 C 0.5967 0.32665 0.93314 0.0
C2171 C 0.60726 0.30935 0.90681 0.0
C2172 C 0.61747 0.29478 0.89996 0.0
C2173 C 0.6087 0.31428 0.9253 0.0
C2174 C 0.63207 0.28845 0.91046 0.0
C2175 C 0.63397 0.29377 0.92869 0.0
H2176 H 0.13281 0.99378 0.37004 0.0
H2177 H 0.15363 0.94699 0.34235 0.0
H2178 H 0.1842 0.9599 0.34414 0.0
H2179 H 0.20057 0.98971 0.33923 0.0
H2180 H 0.18052 0.03604 0.36766 0.0
H2181 H 0.15503 0.01847 0.37886 0.0
C2182 C 0.1439 0.98665 0.36371 0.0
C2183 C 0.14045 0.97059 0.35391 0.0
C2184 C 0.16135 0.99463 0.3631 0.0
C2185 C 0.15545 0.96031 0.3483 0.0
C2186 C 0.17288 0.96779 0.34874 0.0
C2187 C 0.19016 0.99615 0.34695 0.0
C2188 C 0.19072 0.01495 0.34971 0.0
C2189 C 0.17523 0.98599 0.35334 0.0
C2190 C 0.17946 0.02199 0.36352 0.0
C2191 C 0.16479 0.01191 0.37014 0.0
H2192 H 0.29427 0.9045 0.63779 0.0
H2193 H 0.31237 0.89099 0.58404 0.0
H2194 H 0.32601 0.92094 0.58097 0.0
H2195 H 0.32528 0.95292 0.59044 0.0
H2196 H 0.30465 0.96738 0.64267 0.0
H2197 H 0.30136 0.93537 0.65028 0.0
C2198 C 0.30157 0.90804 0.6256 0.0
C2199 C 0.30141 0.89594 0.61073 0.0
C2200 C 0.30926 0.92556 0.6238 0.0
C2201 C 0.31162 0.90035 0.59535 0.0
C2202 C 0.31952 0.9175 0.59361 0.0
C2203 C 0.31997 0.94913 0.60332 0.0
C2204 C 0.31348 0.96259 0.61511 0.0
C2205 C 0.31715 0.93064 0.60715 0.0
C2206 C 0.30886 0.95735 0.63284 0.0
C2207 C 0.30688 0.93893 0.63721 0.0
H2208 H 0.43427 0.0959 0.82624 0.0
H2209 H 0.40225 0.04969 0.84169 0.0
H2210 H 0.42944 0.03375 0.85121 0.0
H2211 H 0.46234 0.0298 0.84671 0.0
H2212 H 0.4944 0.07505 0.82919 0.0
H2213 H 0.46781 0.0945 0.82986 0.0
C2214 C 0.43332 0.08239 0.83183 0.0
C2215 C 0.4165 0.07341 0.832 0.0
C2216 C 0.44917 0.07294 0.83672 0.0
C2217 C 0.41523 0.0564 0.84035 0.0
C2218 C 0.43078 0.04722 0.84574 0.0
C2219 C 0.46338 0.04371 0.84257 0.0
C2220 C 0.47988 0.05039 0.836 0.0
C2221 C 0.44786 0.05469 0.84239 0.0
C2222 C 0.48156 0.0692 0.83319 0.0
C2223 C 0.46635 0.08044 0.83371 0.0
H2224 H 0.18346 0.09466 0.02556 0.0
H2225 H 0.20995 0.11713 0.07275 0.0
H2226 H 0.19828 0.147 0.06566 0.0
H2227 H 0.18737 0.16742 0.04222 0.0
H2228 H 0.16171 0.14607 0.99431 0.0
H2229 H 0.16432 0.11538 0.00637 0.0
C2230 C 0.18599 0.10593 0.03469 0.0
C2231 C 0.19798 0.10366 0.04949 0.0
C2232 C 0.17925 0.12344 0.03042 0.0
C2233 C 0.20097 0.11848 0.0612 0.0
C2234 C 0.1943 0.13566 0.05713 0.0
C2235 C 0.18222 0.15625 0.03439 0.0
C2236 C 0.17573 0.15917 0.01669 0.0
C2237 C 0.18453 0.13852 0.0411 0.0
C2238 C 0.16764 0.14433 0.00761 0.0
C2239 C 0.16923 0.12664 0.0145 0.0
H2240 H 0.12706 0.06851 0.21152 0.0
H2241 H 0.09769 0.02911 0.17959 0.0
H2242 H 0.12644 0.01603 0.1693 0.0
H2243 H 0.1581 0.00955 0.17936 0.0
H2244 H 0.18808 0.05008 0.20783 0.0
H2245 H 0.16115 0.07006 0.20773 0.0
C2246 C 0.1269 0.05719 0.2021 0.0
C2247 C 0.11035 0.0485 0.19773 0.0
C2248 C 0.14339 0.0496 0.19646 0.0
C2249 C 0.11033 0.035 0.18428 0.0
C2250 C 0.12677 0.02769 0.17825 0.0
C2251 C 0.15874 0.02261 0.18608 0.0
C2252 C 0.17354 0.02691 0.19768 0.0
C2253 C 0.14321 0.03365 0.18602 0.0
C2254 C 0.17526 0.04498 0.20307 0.0
C2255 C 0.16012 0.05641 0.20252 0.0
H2256 H 0.18899 0.91217 0.45752 0.0
H2257 H 0.19767 0.965 0.43553 0.0
H2258 H 0.17239 0.97617 0.45381 0.0
H2259 H 0.15302 0.97329 0.48469 0.0
H2260 H 0.1369 0.91901 0.49757 0.0
H2261 H 0.15829 0.90768 0.47501 0.0
C2262 C 0.18665 0.92659 0.457 0.0
C2263 C 0.20029 0.93826 0.44724 0.0
C2264 C 0.1705 0.93325 0.46755 0.0
C2265 C 0.19097 0.95521 0.44409 0.0
C2266 C 0.17598 0.96207 0.45526 0.0
C2267 C 0.15363 0.95875 0.48301 0.0
C2268 C 0.14487 0.94727 0.49748 0.0
C2269 C 0.16659 0.95168 0.46874 0.0
C2270 C 0.1446 0.92906 0.49024 0.0
C2271 C 0.15763 0.92219 0.47697 0.0
H2272 H 0.44223 0.93767 0.70256 0.0
H2273 H 0.39409 0.96624 0.68692 0.0
H2274 H 0.37642 0.9459 0.70622 0.0
H2275 H 0.37592 0.92949 0.739 0.0
H2276 H 0.42061 0.89447 0.74885 0.0
H2277 H 0.43736 0.90927 0.7245 0.0
C2278 C 0.42779 0.94002 0.70284 0.0
C2279 C 0.42109 0.95696 0.69336 0.0
C2280 C 0.41698 0.92842 0.71602 0.0
C2281 C 0.40152 0.95573 0.69383 0.0
C2282 C 0.39086 0.94358 0.70566 0.0
C2283 C 0.38936 0.92443 0.73628 0.0
C2284 C 0.398 0.91308 0.75099 0.0
C2285 C 0.39851 0.93131 0.71893 0.0
C2286 C 0.41387 0.90557 0.74218 0.0
C2287 C 0.42381 0.91406 0.72717 0.0
H2288 H 0.34374 0.15639 0.96148 0.0
H2289 H 0.37534 0.12288 0.99692 0.0
H2290 H 0.38338 0.14969 0.01534 0.0
H2291 H 0.3694 0.17891 0.02766 0.0
H2292 H 0.34133 0.21303 0.99055 0.0
H2293 H 0.34561 0.19045 0.96621 0.0
C2294 C 0.35242 0.15484 0.97323 0.0
C2295 C 0.35706 0.13728 0.9792 0.0
C2296 C 0.35664 0.17017 0.984 0.0
C2297 C 0.37008 0.13597 0.99311 0.0
C2298 C 0.3748 0.15138 0.00354 0.0
C2299 C 0.36388 0.18132 0.01428 0.0
C2300 C 0.3516 0.1958 0.01163 0.0
C2301 C 0.366 0.16799 0.00046 0.0
C2302 C 0.34744 0.20017 0.99367 0.0
C2303 C 0.35006 0.18741 0.97979 0.0
H2304 H 0.82856 0.43549 0.10096 0.0
H2305 H 0.85018 0.40398 0.05685 0.0
H2306 H 0.86468 0.43086 0.04477 0.0
H2307 H 0.86096 0.46381 0.03965 0.0
H2308 H 0.83761 0.49618 0.08165 0.0
H2309 H 0.83426 0.46937 0.1008 0.0
C2310 C 0.83597 0.43458 0.08837 0.0
C2311 C 0.83648 0.41794 0.07882 0.0
C2312 C 0.84306 0.45049 0.08017 0.0
C2313 C 0.84801 0.41677 0.06371 0.0
C2314 C 0.85604 0.43218 0.05642 0.0
C2315 C 0.85426 0.4648 0.05252 0.0
C2316 C 0.84736 0.48151 0.05814 0.0
C2317 C 0.85164 0.44922 0.06317 0.0
C2318 C 0.84184 0.48319 0.07635 0.0
C2319 C 0.84001 0.46782 0.08742 0.0
H2320 H 0.95208 0.58202 0.31645 0.0
H2321 H 0.97392 0.6347 0.30401 0.0
H2322 H 0.94363 0.64675 0.30045 0.0
H2323 H 0.91197 0.64007 0.29208 0.0
H2324 H 0.8892 0.58815 0.30491 0.0
H2325 H 0.91849 0.57793 0.31679 0.0
C2326 C 0.95015 0.59611 0.31311 0.0
C2327 C 0.96525 0.60708 0.3091 0.0
C2328 C 0.93247 0.60306 0.3109 0.0
C2329 C 0.96254 0.62571 0.30629 0.0
C2330 C 0.94516 0.63272 0.30432 0.0
C2331 C 0.91335 0.62673 0.29796 0.0
C2332 C 0.89904 0.6143 0.2964 0.0
C2333 C 0.93012 0.6212 0.30516 0.0
C2334 C 0.90058 0.59739 0.30488 0.0
C2335 C 0.91723 0.59169 0.31195 0.0
H2336 H 0.68719 0.64093 0.5751 0.0
H2337 H 0.68651 0.58577 0.5571 0.0
H2338 H 0.65922 0.59219 0.5392 0.0
H2339 H 0.64051 0.6165 0.52025 0.0
H2340 H 0.63224 0.66675 0.54809 0.0
H2341 H 0.65626 0.65853 0.56954 0.0
C2342 C 0.68217 0.63005 0.56657 0.0
C2343 C 0.69362 0.6134 0.5644 0.0
C2344 C 0.66481 0.63366 0.55655 0.0
C2345 C 0.68148 0.5995 0.55759 0.0
C2346 C 0.66533 0.60333 0.54664 0.0
C2347 C 0.64421 0.62667 0.53021 0.0
C2348 C 0.63644 0.64537 0.52832 0.0
C2349 C 0.65804 0.62111 0.5441 0.0
C2350 C 0.63881 0.65387 0.54587 0.0
C2351 C 0.65335 0.64916 0.55858 0.0
H2352 H 0.96127 0.43632 0.20046 0.0
H2353 H 0.90877 0.45908 0.19926 0.0
H2354 H 0.92044 0.48169 0.17764 0.0
H2355 H 0.97515 0.48857 0.17798 0.0
H2356 H 0.96695 0.47442 0.1347 0.0
H2357 H 0.96811 0.44585 0.15547 0.0
C2358 C 0.95203 0.44705 0.19696 0.0
C2359 C 0.93524 0.45012 0.209 0.0
C2360 C 0.95643 0.45899 0.18038 0.0
C2361 C 0.92312 0.45895 0.19634 0.0
C2362 C 0.92994 0.47293 0.18406 0.0
C2363 C 0.96097 0.48965 0.17384 0.0
C2364 C 0.96098 0.49572 0.15555 0.0
C2365 C 0.94904 0.47525 0.18141 0.0
C2366 C 0.96408 0.47626 0.14893 0.0
C2367 C 0.96388 0.45863 0.16122 0.0
H2368 H 0.66596 0.55069 0.64754 0.0
H2369 H 0.62082 0.51732 0.63288 0.0
H2370 H 0.6025 0.5333 0.65539 0.0
H2371 H 0.60005 0.55234 0.68536 0.0
H2372 H 0.64722 0.58122 0.70331 0.0
H2373 H 0.66244 0.57247 0.67524 0.0
C2374 C 0.65242 0.54552 0.64979 0.0
C2375 C 0.64719 0.5283 0.64048 0.0
C2376 C 0.64202 0.55392 0.66495 0.0
C2377 C 0.62766 0.52743 0.64114 0.0
C2378 C 0.61674 0.53674 0.65468 0.0
C2379 C 0.61423 0.55587 0.68429 0.0
C2380 C 0.6231 0.56448 0.70037 0.0
C2381 C 0.62407 0.54888 0.66807 0.0
C2382 C 0.63985 0.57235 0.69415 0.0
C2383 C 0.64902 0.56705 0.67753 0.0
H2384 H 0.36378 0.77174 0.66859 0.0
H2385 H 0.39701 0.81046 0.64161 0.0
H2386 H 0.40553 0.82375 0.67112 0.0
H2387 H 0.4182 0.81164 0.70187 0.0
H2388 H 0.39036 0.76675 0.72649 0.0
H2389 H 0.36814 0.76686 0.70189 0.0
C2390 C 0.37298 0.78322 0.66894 0.0
C2391 C 0.38335 0.78688 0.65268 0.0
C2392 C 0.38038 0.78856 0.68655 0.0
C2393 C 0.39104 0.80471 0.65364 0.0
C2394 C 0.39631 0.81231 0.67106 0.0
C2395 C 0.40693 0.80224 0.7024 0.0
C2396 C 0.40739 0.78811 0.71609 0.0
C2397 C 0.39372 0.80229 0.68746 0.0
C2398 C 0.39176 0.77689 0.71607 0.0
C2399 C 0.37853 0.77726 0.70192 0.0
H2400 H 0.43661 0.19225 0.96095 0.0
H2401 H 0.45594 0.19451 0.90686 0.0
H2402 H 0.48044 0.17378 0.91595 0.0
H2403 H 0.49011 0.17179 0.96989 0.0
H2404 H 0.47815 0.12855 0.96422 0.0
H2405 H 0.44869 0.14791 0.96726 0.0
C2406 C 0.44661 0.18938 0.9507 0.0
C2407 C 0.448 0.20223 0.93426 0.0
C2408 C 0.45933 0.17301 0.95359 0.0
C2409 C 0.45665 0.19067 0.92097 0.0
C2410 C 0.47156 0.17871 0.92622 0.0
C2411 C 0.49052 0.16794 0.95558 0.0
C2412 C 0.49776 0.15011 0.95552 0.0
C2413 C 0.47488 0.17469 0.94487 0.0
C2414 C 0.47892 0.14266 0.96049 0.0
C2415 C 0.46065 0.15405 0.9615 0.0
H2416 H 0.06639 0.19638 0.12818 0.0
H2417 H 0.02085 0.18565 0.09373 0.0
H2418 H 0.00396 0.17316 0.11954 0.0
H2419 H 0.99852 0.17954 0.15251 0.0
H2420 H 0.04467 0.18595 0.18751 0.0
H2421 H 0.06489 0.18572 0.16105 0.0
C2422 C 0.05271 0.19135 0.12632 0.0
C2423 C 0.04327 0.19508 0.11002 0.0
C2424 C 0.04303 0.18437 0.14136 0.0
C2425 C 0.02695 0.18583 0.10705 0.0
C2426 C 0.01744 0.17853 0.12169 0.0
C2427 C 0.01302 0.18072 0.15443 0.0
C2428 C 0.02 0.18549 0.17157 0.0
C2429 C 0.02447 0.18038 0.13923 0.0
C2430 C 0.03888 0.18442 0.1741 0.0
C2431 C 0.05046 0.18403 0.15897 0.0
H2432 H 0.04159 0.86195 0.46596 0.0
H2433 H 0.0774 0.83073 0.49909 0.0
H2434 H 0.09829 0.82718 0.47371 0.0
H2435 H 0.10009 0.82341 0.43939 0.0
H2436 H 0.06369 0.85517 0.40702 0.0
H2437 H 0.05188 0.86948 0.43426 0.0
C2438 C 0.05345 0.85362 0.46737 0.0
C2439 C 0.05643 0.84435 0.48374 0.0
C2440 C 0.06553 0.85145 0.45257 0.0
C2441 C 0.0738 0.83672 0.48623 0.0
C2442 C 0.086 0.83485 0.47168 0.0
C2443 C 0.08919 0.83309 0.43822 0.0
C2444 C 0.0809 0.83596 0.4211 0.0
C2445 C 0.08094 0.84036 0.45421 0.0
C2446 C 0.0689 0.85076 0.41998 0.0
C2447 C 0.06178 0.85884 0.43561 0.0
H2448 H 0.72577 0.39936 0.77068 0.0
H2449 H 0.70899 0.4304 0.81634 0.0
H2450 H 0.68113 0.41245 0.81834 0.0
H2451 H 0.6567 0.39568 0.80009 0.0
H2452 H 0.67215 0.36754 0.75224 0.0
H2453 H 0.70404 0.37513 0.75803 0.0
C2454 C 0.71579 0.40278 0.78083 0.0
C2455 C 0.71687 0.42027 0.78981 0.0
C2456 C 0.69882 0.39293 0.78082 0.0
C2457 C 0.70646 0.42028 0.80597 0.0
C2458 C 0.69041 0.40965 0.8074 0.0
C2459 C 0.66692 0.3916 0.79043 0.0
C2460 C 0.66132 0.38615 0.77237 0.0
C2461 C 0.68538 0.39746 0.79346 0.0
C2462 C 0.67531 0.37627 0.76365 0.0
C2463 C 0.69388 0.38033 0.76719 0.0
H2464 H 0.6912 0.4315 0.93157 0.0
H2465 H 0.68342 0.38368 0.9635 0.0
H2466 H 0.70431 0.36767 0.94335 0.0
H2467 H 0.73687 0.37056 0.92625 0.0
H2468 H 0.7412 0.41516 0.89005 0.0
H2469 H 0.71473 0.42889 0.90414 0.0
C2470 C 0.69364 0.41747 0.93489 0.0
C2471 C 0.6858 0.41088 0.95289 0.0
C2472 C 0.70845 0.40811 0.92372 0.0
C2473 C 0.68891 0.39144 0.9524 0.0
C2474 C 0.70182 0.38176 0.94031 0.0
C2475 C 0.73249 0.38331 0.92065 0.0
C2476 C 0.74634 0.39336 0.90909 0.0
C2477 C 0.71386 0.39034 0.92726 0.0
C2478 C 0.7355 0.4079 0.90136 0.0
C2479 C 0.71902 0.41593 0.90935 0.0
H2480 H 0.80985 0.6969 0.41849 0.0
H2481 H 0.76757 0.73118 0.39838 0.0
H2482 H 0.76039 0.70894 0.37481 0.0
H2483 H 0.75838 0.67477 0.36891 0.0
H2484 H 0.79991 0.64113 0.39178 0.0
H2485 H 0.81758 0.66821 0.39942 0.0
C2486 C 0.79961 0.7002 0.40853 0.0
C2487 C 0.78755 0.71517 0.41256 0.0
C2488 C 0.79635 0.68743 0.39339 0.0
C2489 C 0.7757 0.71905 0.3978 0.0
C2490 C 0.77186 0.70632 0.38356 0.0
C2491 C 0.77155 0.67309 0.37509 0.0
C2492 C 0.77613 0.65508 0.3819 0.0
C2493 C 0.78075 0.6894 0.38232 0.0
C2494 C 0.79453 0.65409 0.38776 0.0
C2495 C 0.80478 0.6701 0.39249 0.0
H2496 H 0.06869 0.31297 0.17156 0.0
H2497 H 0.04416 0.26903 0.20145 0.0
H2498 H 0.03583 0.25523 0.17395 0.0
H2499 H 0.03415 0.25452 0.14124 0.0
H2500 H 0.0706 0.28647 0.11022 0.0
H2501 H 0.07713 0.30519 0.13763 0.0
C2502 C 0.06305 0.29944 0.17224 0.0
C2503 C 0.05587 0.29291 0.18904 0.0
C2504 C 0.06122 0.28869 0.15593 0.0
C2505 C 0.04923 0.27509 0.18911 0.0
C2506 C 0.04471 0.26652 0.17313 0.0
C2507 C 0.04513 0.26401 0.14057 0.0
C2508 C 0.05208 0.26816 0.12364 0.0
C2509 C 0.05054 0.27296 0.15653 0.0
C2510 C 0.06452 0.28279 0.12299 0.0
C2511 C 0.06842 0.29343 0.1388 0.0
H2512 H 0.02223 0.81065 0.35869 0.0
H2513 H 0.01829 0.79561 0.41286 0.0
H2514 H 0.99341 0.81597 0.41882 0.0
H2515 H 0.97014 0.83431 0.40672 0.0
H2516 H 0.95552 0.81578 0.35335 0.0
H2517 H 0.98832 0.81394 0.34569 0.0
C2518 C 0.01594 0.81203 0.37182 0.0
C2519 C 0.02534 0.80617 0.38782 0.0
C2520 C 0.99745 0.81825 0.37337 0.0
C2521 C 0.01477 0.80497 0.40301 0.0
C2522 C 0.99968 0.81561 0.40558 0.0
C2523 C 0.97378 0.82983 0.39318 0.0
C2524 C 0.96002 0.82447 0.38116 0.0
C2525 C 0.99104 0.82279 0.39071 0.0
C2526 C 0.96553 0.81969 0.3634 0.0
C2527 C 0.98439 0.81801 0.3592 0.0
H2528 H 0.42334 0.66642 0.6739 0.0
H2529 H 0.45398 0.64364 0.63022 0.0
H2530 H 0.4353 0.65995 0.60822 0.0
H2531 H 0.41712 0.68888 0.60387 0.0
H2532 H 0.37992 0.7038 0.64599 0.0
H2533 H 0.39159 0.67918 0.66473 0.0
C2534 C 0.42574 0.66472 0.65958 0.0
C2535 C 0.44179 0.65601 0.65381 0.0
C2536 C 0.41366 0.67258 0.64673 0.0
C2537 C 0.44309 0.65202 0.63518 0.0
C2538 C 0.43214 0.66108 0.62248 0.0
C2539 C 0.41112 0.68653 0.61702 0.0
C2540 C 0.39836 0.69914 0.62389 0.0
C2541 C 0.4186 0.67301 0.62839 0.0
C2542 C 0.39028 0.69505 0.64054 0.0
C2543 C 0.39768 0.68158 0.65173 0.0
H2544 H 0.5988 0.25276 0.98531 0.0
H2545 H 0.55711 0.24438 0.02468 0.0
H2546 H 0.55667 0.21181 0.01748 0.0
H2547 H 0.56383 0.1868 0.99536 0.0
H2548 H 0.60044 0.19829 0.95183 0.0
H2549 H 0.60863 0.22687 0.96609 0.0
C2550 C 0.58996 0.24372 0.9926 0.0
C2551 C 0.5781 0.25117 0.00559 0.0
C2552 C 0.58884 0.22519 0.9874 0.0
C2553 C 0.56647 0.23918 0.01472 0.0
C2554 C 0.56623 0.22046 0.01053 0.0
C2555 C 0.57363 0.19562 0.98902 0.0
C2556 C 0.58079 0.19051 0.97194 0.0
C2557 C 0.57661 0.21344 0.99613 0.0
C2558 C 0.59439 0.2017 0.96473 0.0
C2559 C 0.59869 0.2185 0.97262 0.0
H2560 H 0.99095 0.77221 0.51891 0.0
H2561 H 0.04344 0.79024 0.5009 0.0
H2562 H 0.0493 0.7605 0.48791 0.0
H2563 H 0.03758 0.73093 0.47744 0.0
H2564 H 0.98992 0.7088 0.50223 0.0
H2565 H 0.98436 0.73807 0.5172 0.0
C2566 C 0.00387 0.76951 0.5126 0.0
C2567 C 0.01655 0.78394 0.51052 0.0
C2568 C 0.00788 0.75162 0.5061 0.0
C2569 C 0.03335 0.77971 0.50265 0.0
C2570 C 0.03673 0.76261 0.49511 0.0
C2571 C 0.0263 0.73206 0.48671 0.0
C2572 C 0.01309 0.71799 0.48694 0.0
C2573 C 0.02388 0.74861 0.49623 0.0
C2574 C 0.99942 0.71974 0.5001 0.0
C2575 C 0.99625 0.73662 0.50881 0.0
H2576 H 0.55788 0.77741 0.67594 0.0
H2577 H 0.5191 0.77615 0.6326 0.0
H2578 H 0.49627 0.76628 0.6537 0.0
H2579 H 0.48669 0.76282 0.68483 0.0
H2580 H 0.5174 0.78765 0.72783 0.0
H2581 H 0.54413 0.78823 0.70736 0.0
C2582 C 0.54406 0.77743 0.67101 0.0
C2583 C 0.54032 0.77416 0.65224 0.0
C2584 C 0.52927 0.77934 0.68344 0.0
C2585 C 0.52243 0.77538 0.64668 0.0
C2586 C 0.50892 0.7715 0.65885 0.0
C2587 C 0.49827 0.77049 0.68958 0.0
C2588 C 0.49903 0.77668 0.70761 0.0
C2589 C 0.51202 0.77402 0.67729 0.0
C2590 C 0.51579 0.78369 0.71379 0.0
C2591 C 0.53107 0.78413 0.702 0.0
H2592 H 0.48407 0.27309 0.87129 0.0
H2593 H 0.49319 0.30425 0.91979 0.0
H2594 H 0.52533 0.2999 0.91676 0.0
H2595 H 0.54631 0.2753 0.904 0.0
H2596 H 0.54481 0.26618 0.84748 0.0
H2597 H 0.51175 0.27164 0.84882 0.0
C2598 C 0.493 0.28049 0.88039 0.0
C2599 C 0.48647 0.28625 0.89768 0.0
C2600 C 0.51196 0.28095 0.87677 0.0
C2601 C 0.49798 0.29803 0.90739 0.0
C2602 C 0.51661 0.2953 0.90589 0.0
C2603 C 0.5409 0.27823 0.89139 0.0
C2604 C 0.5497 0.27183 0.87599 0.0
C2605 C 0.52346 0.28543 0.89116 0.0
C2606 C 0.53899 0.27106 0.86 0.0
C2607 C 0.52004 0.2746 0.8606 0.0
H2608 H 0.95504 0.28591 0.12285 0.0
H2609 H 0.0131 0.2928 0.11729 0.0
H2610 H 0.01676 0.27856 0.14545 0.0
H2611 H 0.00711 0.26259 0.17009 0.0
H2612 H 0.95284 0.24162 0.17247 0.0
H2613 H 0.94456 0.26134 0.14645 0.0
C2614 C 0.96878 0.28283 0.12692 0.0
C2615 C 0.98376 0.29181 0.11841 0.0
C2616 C 0.97201 0.27096 0.14187 0.0
C2617 C 0.00123 0.28682 0.12345 0.0
C2618 C 0.00389 0.27742 0.13914 0.0
C2619 C 0.99356 0.26134 0.16478 0.0
C2620 C 0.98101 0.25018 0.17331 0.0
C2621 C 0.98972 0.26982 0.14855 0.0
C2622 C 0.9631 0.25009 0.16635 0.0
C2623 C 0.95846 0.26107 0.15118 0.0
H2624 H 0.12231 0.08028 0.26205 0.0
H2625 H 0.10716 0.02753 0.28213 0.0
H2626 H 0.13423 0.02671 0.30014 0.0
H2627 H 0.16455 0.03715 0.30468 0.0
H2628 H 0.18356 0.08753 0.28451 0.0
H2629 H 0.1525 0.09419 0.27345 0.0
C2630 C 0.12453 0.06908 0.27119 0.0
C2631 C 0.11291 0.0535 0.27011 0.0
C2632 C 0.14092 0.0684 0.28161 0.0
C2633 C 0.11597 0.0393 0.28214 0.0
C2634 C 0.13154 0.03889 0.29268 0.0
C2635 C 0.16193 0.04969 0.29841 0.0
C2636 C 0.1766 0.06126 0.29535 0.0
C2637 C 0.14457 0.05265 0.29152 0.0
C2638 C 0.17275 0.07795 0.28704 0.0
C2639 C 0.15488 0.08169 0.28066 0.0
H2640 H 0.23217 0.01721 0.59759 0.0
H2641 H 0.25366 0.98331 0.55545 0.0
H2642 H 0.22893 0.96301 0.55838 0.0
H2643 H 0.19846 0.95899 0.56431 0.0
H2644 H 0.16719 0.00353 0.58368 0.0
H2645 H 0.19557 0.01773 0.59571 0.0
C2646 C 0.23112 0.00585 0.58834 0.0
C2647 C 0.24698 0.99955 0.57888 0.0
C2648 C 0.21359 0.99752 0.58439 0.0
C2649 C 0.24362 0.98662 0.56547 0.0
C2650 C 0.22895 0.97514 0.56654 0.0
C2651 C 0.19726 0.97174 0.57095 0.0
C2652 C 0.18033 0.97997 0.57216 0.0
C2653 C 0.21337 0.98098 0.57492 0.0
C2654 C 0.17995 0.99665 0.58181 0.0
C2655 C 0.19636 0.00495 0.58854 0.0
H2656 H 0.3823 0.02468 0.83188 0.0
H2657 H 0.36561 0.02601 0.77642 0.0
H2658 H 0.3591 0.9934 0.77674 0.0
H2659 H 0.36368 0.96352 0.79182 0.0
H2660 H 0.39089 0.96231 0.84306 0.0
H2661 H 0.38338 0.9944 0.8479 0.0
C2662 C 0.37739 0.01769 0.81988 0.0
C2663 C 0.37625 0.02715 0.80337 0.0
C2664 C 0.37467 0.99867 0.82012 0.0
C2665 C 0.36831 0.01843 0.78847 0.0
C2666 C 0.36426 -8e-05 0.7889 0.0
C2667 C 0.36943 0.97072 0.80329 0.0
C2668 C 0.38004 0.96128 0.81582 0.0
C2669 C 0.36876 0.98972 0.80421 0.0
C2670 C 0.38394 0.96966 0.83248 0.0
C2671 C 0.37985 0.98806 0.83509 0.0
H2672 H 0.28615 0.18143 0.08779 0.0
H2673 H 0.33301 0.17119 0.05549 0.0
H2674 H 0.32526 0.13812 0.05536 0.0
H2675 H 0.29959 0.11717 0.05398 0.0
H2676 H 0.2585 0.12393 0.09442 0.0
H2677 H 0.27259 0.15274 0.10417 0.0
C2678 C 0.29535 0.1721 0.0813 0.0
C2679 C 0.30889 0.1788 0.06943 0.0
C2680 C 0.29247 0.15296 0.08272 0.0
C2681 C 0.32124 0.16628 0.06252 0.0
C2682 C 0.31714 0.14776 0.06245 0.0
C2683 C 0.29372 0.12481 0.06506 0.0
C2684 C 0.27727 0.11908 0.07248 0.0
C2685 C 0.3015 0.14148 0.07051 0.0
C2686 C 0.27069 0.12853 0.08775 0.0
C2687 C 0.27854 0.14522 0.09313 0.0
H2688 H 0.1859 0.95114 0.26368 0.0
H2689 H 0.16034 0.97719 0.21871 0.0
H2690 H 0.13152 0.9789 0.2361 0.0
H2691 H 0.11858 0.98159 0.26757 0.0
H2692 H 0.13666 0.94027 0.30414 0.0
H2693 H 0.16349 0.93497 0.28536 0.0
C2694 C 0.17397 0.9566 0.25717 0.0
C2695 C 0.1756 0.96593 0.24057 0.0
C2696 C 0.15688 0.95567 0.26592 0.0
C2697 C 0.15956 0.97148 0.23207 0.0
C2698 C 0.14336 0.97274 0.2419 0.0
C2699 C 0.12827 0.97132 0.27143 0.0
C2700 C 0.12709 0.96317 0.28854 0.0
C2701 C 0.14259 0.96655 0.25964 0.0
C2702 C 0.13819 0.94796 0.29178 0.0
C2703 C 0.15369 0.94497 0.28118 0.0
H2704 H 0.25396 0.88051 0.48773 0.0
H2705 H 0.30366 0.91097 0.48837 0.0
H2706 H 0.31404 0.89316 0.51436 0.0
H2707 H 0.30073 0.8853 0.54568 0.0
H2708 H 0.2487 0.85933 0.54655 0.0
H2709 H 0.24772 0.85912 0.51347 0.0
C2710 C 0.26694 0.88371 0.49372 0.0
C2711 C 0.27715 0.89845 0.48695 0.0
C2712 C 0.27166 0.87584 0.51055 0.0
C2713 C 0.29494 0.90043 0.49361 0.0
C2714 C 0.30072 0.89053 0.50886 0.0
C2715 C 0.28886 0.88025 0.53857 0.0
C2716 C 0.27342 0.87508 0.54862 0.0
C2717 C 0.28774 0.88127 0.51928 0.0
C2718 C 0.25974 0.86555 0.53922 0.0
C2719 C 0.25932 0.86517 0.52023 0.0
H2720 H 0.52942 6e-05 0.76356 0.0
H2721 H 0.51171 0.04926 0.78931 0.0
H2722 H 0.49542 0.05773 0.76186 0.0
H2723 H 0.47843 0.04528 0.73521 0.0
H2724 H 0.50089 0.00023 0.70609 0.0
H2725 H 0.52357 0.99624 0.72999 0.0
C2726 C 0.52308 0.01323 0.76282 0.0
C2727 C 0.52144 0.02373 0.77884 0.0
C2728 C 0.51404 0.01842 0.74663 0.0
C2729 C 0.51325 0.04084 0.77736 0.0
C2730 C 0.50356 0.04558 0.76168 0.0
C2731 C 0.48905 0.03538 0.73333 0.0
C2732 C 0.48715 0.02229 0.71937 0.0
C2733 C 0.50265 0.03367 0.74681 0.0
C2734 C 0.50146 0.01003 0.71704 0.0
C2735 C 0.51439 0.00759 0.73089 0.0
H2736 H 0.25331 0.18454 0.96142 0.0
H2737 H 0.20903 0.14753 0.96733 0.0
H2738 H 0.2307 0.12188 0.96943 0.0
H2739 H 0.26327 0.11324 0.97899 0.0
H2740 H 0.30231 0.14347 0.94882 0.0
H2741 H 0.28097 0.16895 0.94609 0.0
C2742 C 0.24804 0.17089 0.96265 0.0
C2743 C 0.22965 0.16808 0.96715 0.0
C2744 C 0.2599 0.15585 0.9612 0.0
C2745 C 0.22338 0.15011 0.96649 0.0
C2746 C 0.23561 0.13558 0.96795 0.0
C2747 C 0.26732 0.12554 0.97216 0.0
C2748 C 0.28568 0.12839 0.96766 0.0
C2749 C 0.25422 0.1388 0.9674 0.0
C2750 C 0.2892 0.14247 0.95526 0.0
C2751 C 0.27709 0.15702 0.95356 0.0
H2752 H 0.80096 0.4142 0.96981 0.0
H2753 H 0.82351 0.36217 0.95754 0.0
H2754 H 0.82478 0.35536 0.99043 0.0
H2755 H 0.81626 0.36495 0.02348 0.0
H2756 H 0.77612 0.4069 0.02678 0.0
H2757 H 0.78612 0.41857 0.9981 0.0
C2758 C 0.80571 0.40108 0.974 0.0
C2759 C 0.81117 0.38853 0.96102 0.0
C2760 C 0.8031 0.39583 0.99189 0.0
C2761 C 0.81861 0.37207 0.96717 0.0
C2762 C 0.81899 0.36801 0.98596 0.0
C2763 C 0.80869 0.37586 0.01739 0.0
C2764 C 0.79733 0.38704 0.02825 0.0
C2765 C 0.81039 0.37959 0.9985 0.0
C2766 C 0.78648 0.39958 0.01948 0.0
C2767 C 0.79157 0.40586 0.0027 0.0
H2768 H 0.96808 0.59886 0.20157 0.0
H2769 H 0.0012 0.5576 0.17752 0.0
H2770 H 0.02275 0.56021 0.20268 0.0
H2771 H 0.02642 0.56819 0.2359 0.0
H2772 H 0.99838 0.61513 0.25588 0.0
H2773 H 0.98088 0.61667 0.22778 0.0
C2774 C 0.98045 0.59104 0.20131 0.0
C2775 C 0.98233 0.57712 0.18823 0.0
C2776 C 0.99348 0.59335 0.21538 0.0
C2777 C 0.99898 0.56797 0.18769 0.0
C2778 C 0.01132 0.56932 0.20228 0.0
C2779 C 0.01733 0.57945 0.23377 0.0
C2780 C 0.01307 0.591 0.24856 0.0
C2781 C 0.0079 0.58099 0.21696 0.0
C2782 C 0.00154 0.60573 0.2451 0.0
C2783 C 0.99136 0.60654 0.22898 0.0
H2784 H 0.69619 0.64586 0.38631 0.0
H2785 H 0.69161 0.59264 0.40907 0.0
H2786 H 0.66554 0.60232 0.42679 0.0
H2787 H 0.65151 0.62835 0.44298 0.0
H2788 H 0.65989 0.68221 0.42304 0.0
H2789 H 0.675 0.6698 0.39622 0.0
C2790 C 0.68874 0.63601 0.39421 0.0
C2791 C 0.69631 0.6186 0.39661 0.0
C2792 C 0.67478 0.64222 0.4057 0.0
C2793 C 0.68632 0.6061 0.40689 0.0
C2794 C 0.67163 0.61185 0.41751 0.0
C2795 C 0.65667 0.63745 0.43284 0.0
C2796 C 0.65564 0.65637 0.43574 0.0
C2797 C 0.66697 0.63031 0.4183 0.0
C2798 C 0.6613 0.66772 0.42168 0.0
C2799 C 0.67024 0.66064 0.4065 0.0
H2800 H 0.87172 0.49389 0.26575 0.0
H2801 H 0.90779 0.49755 0.31139 0.0
H2802 H 0.89615 0.52787 0.31837 0.0
H2803 H 0.89043 0.55675 0.30011 0.0
H2804 H 0.85186 0.55301 0.25635 0.0
H2805 H 0.85053 0.52012 0.25988 0.0
C2806 C 0.87704 0.50112 0.27739 0.0
C2807 C 0.89228 0.49412 0.28673 0.0
C2808 C 0.87138 0.51923 0.28053 0.0
C2809 C 0.89689 0.50285 0.30316 0.0
C2810 C 0.89044 0.52046 0.307 0.0
C2811 C 0.88161 0.54884 0.29137 0.0
C2812 C 0.87287 0.55721 0.27647 0.0
C2813 C 0.8804 0.5297 0.29372 0.0
C2814 C 0.86003 0.5468 0.26681 0.0
C2815 C 0.85906 0.52794 0.26901 0.0
H2816 H 0.72069 0.52816 0.77097 0.0
H2817 H 0.70077 0.48807 0.80766 0.0
H2818 H 0.67078 0.50283 0.8077 0.0
H2819 H 0.64924 0.52081 0.78818 0.0
H2820 H 0.67118 0.56751 0.76139 0.0
H2821 H 0.70203 0.55672 0.76713 0.0
C2822 C 0.71022 0.52315 0.7799 0.0
C2823 C 0.71221 0.50599 0.78797 0.0
C2824 C 0.69348 0.5324 0.781 0.0
C2825 C 0.69883 0.50041 0.80013 0.0
C2826 C 0.68175 0.5087 0.80003 0.0
C2827 C 0.66076 0.52893 0.78408 0.0
C2828 C 0.65807 0.544 0.7728 0.0
C2829 C 0.67852 0.52358 0.78884 0.0
C2830 C 0.67302 0.5552 0.76906 0.0
C2831 C 0.69069 0.54912 0.77247 0.0
H2832 H 0.77217 0.52199 0.00451 0.0
H2833 H 0.80056 0.49482 0.04713 0.0
H2834 H 0.77326 0.47672 0.0539 0.0
H2835 H 0.74453 0.46401 0.04222 0.0
H2836 H 0.71309 0.49603 0.00538 0.0
H2837 H 0.73783 0.51813 0.00342 0.0
C2838 C 0.77231 0.51248 0.01562 0.0
C2839 C 0.78884 0.50861 0.02454 0.0
C2840 C 0.75611 0.50316 0.0206 0.0
C2841 C 0.78828 0.49711 0.03956 0.0
C2842 C 0.77276 0.4869 0.04349 0.0
C2843 C 0.74259 0.47631 0.03452 0.0
C2844 C 0.72706 0.47791 0.0235 0.0
C2845 C 0.75696 0.48899 0.03329 0.0
C2846 C 0.72488 0.49421 0.01393 0.0
C2847 C 0.7393 0.5067 0.01242 0.0
H2848 H 0.75872 0.677 0.55679 0.0
H2849 H 0.79731 0.6448 0.52781 0.0
H2850 H 0.80925 0.67199 0.51328 0.0
H2851 H 0.80171 0.70308 0.5015 0.0
H2852 H 0.75424 0.72898 0.5216 0.0
H2853 H 0.75595 0.71026 0.54903 0.0
C2854 C 0.76996 0.67597 0.54755 0.0
C2855 C 0.77637 0.65857 0.54272 0.0
C2856 C 0.77528 0.69144 0.53751 0.0
C2857 C 0.79177 0.65781 0.53161 0.0
C2858 C 0.79841 0.67343 0.52299 0.0
C2859 C 0.79075 0.70354 0.51114 0.0
C2860 C 0.77606 0.71524 0.50796 0.0
C2861 C 0.78893 0.68983 0.52437 0.0
C2862 C 0.76452 0.71864 0.52259 0.0
C2863 C 0.76534 0.70768 0.53812 0.0
H2864 H 0.64872 0.38985 0.69808 0.0
H2865 H 0.59514 0.41127 0.69192 0.0
H2866 H 0.60391 0.42594 0.66376 0.0
H2867 H 0.62944 0.44214 0.64941 0.0
H2868 H 0.68384 0.42396 0.65894 0.0
H2869 H 0.67241 0.39821 0.67598 0.0
C2870 C 0.63878 0.39692 0.68998 0.0
C2871 C 0.62151 0.39993 0.69727 0.0
C2872 C 0.64443 0.40666 0.67467 0.0
C2873 C 0.60856 0.4088 0.68661 0.0
C2874 C 0.61372 0.41754 0.67065 0.0
C2875 C 0.63871 0.43206 0.65456 0.0
C2876 C 0.65747 0.43519 0.65338 0.0
C2877 C 0.63207 0.41816 0.66578 0.0
C2878 C 0.66934 0.42193 0.65985 0.0
C2879 C 0.6628 0.40744 0.67002 0.0
H2880 H 0.02353 0.38362 0.26973 0.0
H2881 H 0.98375 0.34734 0.24697 0.0
H2882 H 0.95944 0.36637 0.25774 0.0
H2883 H 0.94945 0.39583 0.26929 0.0
H2884 H 0.98903 0.43449 0.28814 0.0
H2885 H 0.01324 0.41245 0.28349 0.0
C2886 C 0.00953 0.37972 0.2675 0.0
C2887 C 0.00549 0.3636 0.25799 0.0
C2888 C 0.99548 0.39144 0.27299 0.0
C2889 C 0.98727 0.35906 0.25489 0.0
C2890 C 0.9733 0.37021 0.26083 0.0
C2891 C 0.96326 0.39907 0.27321 0.0
C2892 C 0.96737 0.41651 0.27966 0.0
C2893 C 0.97721 0.38667 0.26948 0.0
C2894 C 0.98548 0.42091 0.28376 0.0
C2895 C 0.99937 0.4084 0.28079 0.0
H2896 H 0.86087 0.81754 0.43855 0.0
H2897 H 0.84958 0.80315 0.38311 0.0
H2898 H 0.81849 0.79482 0.39109 0.0
H2899 H 0.79755 0.78501 0.41518 0.0
H2900 H 0.80952 0.79912 0.47073 0.0
H2901 H 0.8369 0.81489 0.46134 0.0
C2902 C 0.8513 0.81335 0.42813 0.0
C2903 C 0.85735 0.81088 0.41034 0.0
C2904 C 0.83362 0.80832 0.43291 0.0
C2905 C 0.84505 0.80529 0.39688 0.0
C2906 C 0.82735 0.80034 0.4015 0.0
C2907 C 0.80573 0.79219 0.42514 0.0
C2908 C 0.80178 0.79047 0.44369 0.0
C2909 C 0.82184 0.80082 0.41967 0.0
C2910 C 0.81246 0.79996 0.4564 0.0
C2911 C 0.82822 0.80887 0.45105 0.0
H2912 H 0.54666 0.54861 0.73477 0.0
H2913 H 0.56396 0.59346 0.76837 0.0
H2914 H 0.53806 0.61111 0.75824 0.0
H2915 H 0.51433 0.61571 0.73551 0.0
H2916 H 0.49713 0.5715 0.70123 0.0
H2917 H 0.51864 0.55136 0.71644 0.0
C2918 C 0.5444 0.56203 0.74029 0.0
C2919 C 0.55732 0.56981 0.75212 0.0
C2920 C 0.52952 0.5722 0.73425 0.0
C2921 C 0.55421 0.58715 0.7593 0.0
C2922 C 0.53947 0.59732 0.75339 0.0
C2923 C 0.51482 0.60146 0.73189 0.0
C2924 C 0.50433 0.59504 0.71726 0.0
C2925 C 0.52755 0.59026 0.74028 0.0
C2926 C 0.50499 0.57665 0.71257 0.0
C2927 C 0.51749 0.56524 0.72108 0.0
H2928 H 0.62655 0.41257 0.02274 0.0
H2929 H 0.67528 0.38581 0.03976 0.0
H2930 H 0.65785 0.35867 0.04764 0.0
H2931 H 0.6295 0.34093 0.04417 0.0
H2932 H 0.58091 0.36815 0.02708 0.0
H2933 H 0.59727 0.39674 0.02531 0.0
C2934 C 0.63319 0.40099 0.02876 0.0
C2935 C 0.65206 0.40108 0.03075 0.0
C2936 C 0.62309 0.38543 0.03312 0.0
C2937 C 0.66068 0.38599 0.0383 0.0
C2938 C 0.65073 0.37045 0.04268 0.0
C2939 C 0.62235 0.35327 0.04088 0.0
C2940 C 0.60407 0.35235 0.03557 0.0
C2941 C 0.632 0.36974 0.03946 0.0
C2942 C 0.59502 0.36847 0.03114 0.0
C2943 C 0.60441 0.38484 0.02993 0.0
H2944 H 0.01415 0.58956 0.36924 0.0
H2945 H 0.04583 0.62923 0.3405 0.0
H2946 H 0.04228 0.6506 0.36548 0.0
H2947 H 0.02664 0.65955 0.3935 0.0
H2948 H 0.99596 0.61997 0.42312 0.0
H2949 H 0.0026 0.59703 0.39987 0.0
C2950 C 0.02075 0.60269 0.36867 0.0
C2951 C 0.03016 0.60778 0.35286 0.0
C2952 C 0.01852 0.61505 0.38312 0.0
C2953 C 0.03861 0.62485 0.35243 0.0
C2954 C 0.03639 0.6372 0.36667 0.0
C2955 C 0.02173 0.64577 0.39501 0.0
C2956 C 0.01075 0.6414 0.40989 0.0
C2957 C 0.02582 0.63269 0.38174 0.0
C2958 C 0.00449 0.62357 0.4118 0.0
C2959 C 0.00824 0.61051 0.39846 0.0
H2960 H 0.61036 0.73637 0.50616 0.0
H2961 H 0.57335 0.69149 0.50076 0.0
H2962 H 0.55403 0.70445 0.52426 0.0
H2963 H 0.55119 0.72533 0.55004 0.0
H2964 H 0.58868 0.76994 0.55596 0.0
H2965 H 0.60398 0.76072 0.52815 0.0
C2966 C 0.59757 0.72998 0.50953 0.0
C2967 C 0.59306 0.7132 0.50165 0.0
C2968 C 0.58683 0.73731 0.52335 0.0
C2969 C 0.57677 0.70466 0.50636 0.0
C2970 C 0.56591 0.71193 0.52 0.0
C2971 C 0.56242 0.73332 0.54499 0.0
C2972 C 0.56904 0.74808 0.55523 0.0
C2973 C 0.57131 0.72777 0.52917 0.0
C2974 C 0.58342 0.75845 0.54841 0.0
C2975 C 0.59225 0.75311 0.53256 0.0
H2976 H 0.61774 0.31756 0.83866 0.0
H2977 H 0.62509 0.28116 0.79366 0.0
H2978 H 0.61794 0.30559 0.77244 0.0
H2979 H 0.60619 0.33624 0.76724 0.0
H2980 H 0.59604 0.37147 0.8128 0.0
H2981 H 0.60642 0.34804 0.83357 0.0
C2982 C 0.61853 0.31526 0.82414 0.0
C2983 C 0.62239 0.2979 0.81756 0.0
C2984 C 0.61268 0.32874 0.81234 0.0
C2985 C 0.62272 0.29468 0.79886 0.0
C2986 C 0.61811 0.30846 0.78684 0.0
C2987 C 0.60573 0.33856 0.78175 0.0
C2988 C 0.59994 0.35533 0.78858 0.0
C2989 C 0.61223 0.32526 0.79351 0.0
C2990 C 0.60003 0.35846 0.80734 0.0
C2991 C 0.60632 0.34525 0.81914 0.0
H2992 H 0.91135 0.35701 0.11199 0.0
H2993 H 0.91007 0.35165 0.0539 0.0
H2994 H 0.87702 0.34951 0.05446 0.0
H2995 H 0.84958 0.34609 0.07148 0.0
H2996 H 0.84951 0.35356 0.12954 0.0
H2997 H 0.88266 0.35674 0.12921 0.0
C2998 C 0.90366 0.35609 0.09946 0.0
C2999 C 0.91279 0.3548 0.08287 0.0
C3000 C 0.88483 0.35416 0.10004 0.0
C3001 C 0.90308 0.35312 0.06668 0.0
C3002 C 0.88432 0.35147 0.06708 0.0
C3003 C 0.85668 0.34804 0.08424 0.0
C3004 C 0.84709 0.34901 0.10066 0.0
C3005 C 0.87523 0.35121 0.08373 0.0
C3006 C 0.85665 0.35217 0.11684 0.0
C3007 C 0.87549 0.35439 0.11657 0.0
H3008 H 0.25121 0.95347 0.38873 0.0
H3009 H 0.28871 0.98675 0.41886 0.0
H3010 H 0.28683 0.01032 0.39565 0.0
H3011 H 0.27086 0.02318 0.36894 0.0
H3012 H 0.23189 0.98994 0.34055 0.0
H3013 H 0.23805 0.96479 0.36045 0.0
C3014 C 0.25955 0.96557 0.38977 0.0
C3015 C 0.27046 0.96821 0.40518 0.0
C3016 C 0.25784 0.97928 0.37672 0.0
C3017 C 0.28064 0.98423 0.40681 0.0
C3018 C 0.27933 0.99782 0.39367 0.0
C3019 C 0.26407 0.01028 0.36689 0.0
C3020 C 0.25117 0.00842 0.35288 0.0
C3021 C 0.26743 0.99579 0.37888 0.0
C3022 C 0.24228 0.99168 0.35068 0.0
C3023 C 0.24565 0.97726 0.36229 0.0
H3024 H 0.36091 0.03507 0.60534 0.0
H3025 H 0.32042 0.03936 0.6469 0.0
H3026 H 0.34405 0.03919 0.67022 0.0
H3027 H 0.376 0.03299 0.67885 0.0
H3028 H 0.4166 0.03107 0.63724 0.0
H3029 H 0.39331 0.03517 0.61397 0.0
C3030 C 0.3573 0.03665 0.61948 0.0
C3031 C 0.33887 0.0372 0.62434 0.0
C3032 C 0.37102 0.03654 0.63285 0.0
C3033 C 0.33445 0.03914 0.64273 0.0
C3034 C 0.34799 0.03876 0.65611 0.0
C3035 C 0.37975 0.03389 0.66471 0.0
C3036 C 0.39799 0.03154 0.65976 0.0
C3037 C 0.36627 0.03671 0.65137 0.0
C3038 C 0.40269 0.03288 0.6414 0.0
C3039 C 0.38934 0.03514 0.62807 0.0
H3040 H 0.35574 0.11564 0.91106 0.0
H3041 H 0.35312 0.0574 0.90942 0.0
H3042 H 0.35394 0.05795 0.87631 0.0
H3043 H 0.35111 0.07494 0.84876 0.0
H3044 H 0.35477 0.13329 0.84912 0.0
H3045 H 0.35684 0.13295 0.88244 0.0
C3046 C 0.35615 0.1031 0.90334 0.0
C3047 C 0.35467 0.08645 0.91235 0.0
C3048 C 0.35571 0.10367 0.88443 0.0
C3049 C 0.35471 0.07023 0.90258 0.0
C3050 C 0.35473 0.07063 0.88374 0.0
C3051 C 0.35205 0.08772 0.856 0.0
C3052 C 0.35199 0.10425 0.84655 0.0
C3053 C 0.35431 0.08728 0.87467 0.0
C3054 C 0.35413 0.12051 0.8562 0.0
C3055 C 0.35563 0.12024 0.87512 0.0
H3056 H 0.20057 0.01885 0.16107 0.0
H3057 H 0.24027 0.98049 0.14262 0.0
H3058 H 0.24025 0.99499 0.11263 0.0
H3059 H 0.23362 0.02247 0.09457 0.0
H3060 H 0.19548 0.06155 0.11465 0.0
H3061 H 0.19027 0.04301 0.14149 0.0
C3062 C 0.209 0.01342 0.15035 0.0
C3063 C 0.22076 0.99894 0.154 0.0
C3064 C 0.20935 0.02219 0.1337 0.0
C3065 C 0.2313 0.99174 0.14006 0.0
C3066 C 0.23135 0.00013 0.12305 0.0
C3067 C 0.22365 0.02645 0.10455 0.0
C3068 C 0.21478 0.04314 0.10279 0.0
C3069 C 0.22113 0.01591 0.12009 0.0
C3070 C 0.2021 0.04854 0.11572 0.0
C3071 C 0.19932 0.03806 0.13109 0.0
H3072 H 0.38368 0.2611 0.03066 0.0
H3073 H 0.33909 0.26074 0.99296 0.0
H3074 H 0.35948 0.2694 0.96841 0.0
H3075 H 0.39092 0.27217 0.95691 0.0
H3076 H 0.43537 0.2697 0.99476 0.0
H3077 H 0.4143 0.26733 0.01996 0.0
C3078 C 0.37833 0.26334 0.01716 0.0
C3079 C 0.35989 0.26008 0.01357 0.0
C3080 C 0.39027 0.26769 0.00307 0.0
C3081 C 0.35324 0.26294 0.99599 0.0
C3082 C 0.36493 0.26788 0.98195 0.0
C3083 C 0.39587 0.27181 0.97074 0.0
C3084 C 0.41461 0.27129 0.97405 0.0
C3085 C 0.38361 0.26961 0.98518 0.0
C3086 C 0.42096 0.2703 0.99197 0.0
C3087 C 0.40893 0.26879 0.00637 0.0
H3088 H 0.07559 0.84586 0.33808 0.0
H3089 H 0.12759 0.84728 0.3651 0.0
H3090 H 0.12476 0.88013 0.3691 0.0
H3091 H 0.10678 0.90816 0.36535 0.0
H3092 H 0.05362 0.90493 0.34131 0.0
H3093 H 0.05671 0.87226 0.33769 0.0
C3094 C 0.08651 0.85321 0.34475 0.0
C3095 C 0.10182 0.84398 0.3513 0.0
C3096 C 0.08396 0.87148 0.34866 0.0
C3097 C 0.11578 0.85402 0.35969 0.0
C3098 C 0.11392 0.8727 0.36243 0.0
C3099 C 0.09555 0.90008 0.36021 0.0
C3100 C 0.07986 0.9087 0.35386 0.0
C3101 C 0.09782 0.88144 0.35742 0.0
C3102 C 0.06558 0.89838 0.34668 0.0
C3103 C 0.0676 0.87985 0.3441 0.0
H3104 H 0.06364 0.8568 0.55386 0.0
H3105 H 0.02339 0.89864 0.55555 0.0
H3106 H 0.047 0.92134 0.56207 0.0
H3107 H 0.07965 0.92969 0.56332 0.0
H3108 H 0.11956 0.88789 0.55657 0.0
H3109 H 0.09576 0.86482 0.55594 0.0
C3110 C 0.05999 0.8708 0.55634 0.0
C3111 C 0.04174 0.87598 0.55484 0.0
C3112 C 0.07374 0.88385 0.55875 0.0
C3113 C 0.03728 0.89429 0.55715 0.0
C3114 C 0.05082 0.90727 0.56064 0.0
C3115 C 0.08308 0.91549 0.5621 0.0
C3116 C 0.10135 0.91047 0.56017 0.0
C3117 C 0.06918 0.9023 0.5609 0.0
C3118 C 0.10561 0.89207 0.55814 0.0
C3119 C 0.092 0.87887 0.55777 0.0
H3120 H 0.41379 0.80069 0.78807 0.0
H3121 H 0.47052 0.81009 0.79871 0.0
H3122 H 0.46337 0.8377 0.81531 0.0
H3123 H 0.44177 0.86241 0.82042 0.0
H3124 H 0.38507 0.85346 0.81007 0.0
H3125 H 0.3913 0.82252 0.79987 0.0
C3126 C 0.42451 0.80836 0.79469 0.0
C3127 C 0.44271 0.8035 0.79188 0.0
C3128 C 0.42031 0.82459 0.8039 0.0
C3129 C 0.45643 0.81365 0.80049 0.0
C3130 C 0.45236 0.82955 0.80987 0.0
C3131 C 0.43073 0.85337 0.8167 0.0
C3132 C 0.41302 0.8601 0.81603 0.0
C3133 C 0.43447 0.83568 0.81072 0.0
C3134 C 0.39879 0.84843 0.81095 0.0
C3135 C 0.4024 0.8308 0.8049 0.0
H3136 H 0.0609 0.11847 0.21759 0.0
H3137 H 0.01434 0.08373 0.21148 0.0
H3138 H 0.99422 0.1102 0.21408 0.0
H3139 H 0.99062 0.14317 0.22129 0.0
H3140 H 0.03848 0.17529 0.23223 0.0
H3141 H 0.05753 0.14964 0.22554 0.0
C3142 C 0.04632 0.11677 0.21651 0.0
C3143 C 0.03897 0.09949 0.21447 0.0
C3144 C 0.03518 0.13145 0.21969 0.0
C3145 C 0.02017 0.09716 0.21287 0.0
C3146 C 0.00875 0.11217 0.21478 0.0
C3147 C 0.0052 0.14434 0.22268 0.0
C3148 C 0.01325 0.16113 0.22725 0.0
C3149 C 0.01617 0.12931 0.21898 0.0
C3150 C 0.03207 0.16256 0.22879 0.0
C3151 C 0.04297 0.14798 0.22471 0.0
H3152 H 0.56502 0.05258 0.86973 0.0
H3153 H 0.51864 0.03218 0.89863 0.0
H3154 H 0.52372 0.05431 0.92263 0.0
H3155 H 0.53851 0.08225 0.93339 0.0
H3156 H 0.58499 0.10301 0.90535 0.0
H3157 H 0.58291 0.07803 0.88333 0.0
C3158 C 0.55635 0.05263 0.88153 0.0
C3159 C 0.54134 0.04069 0.88218 0.0
C3160 C 0.55929 0.06564 0.89546 0.0
C3161 C 0.53022 0.04116 0.89759 0.0
C3162 C 0.53306 0.05391 0.91137 0.0
C3163 C 0.54862 0.08086 0.92288 0.0
C3164 C 0.56213 0.09423 0.92125 0.0
C3165 C 0.54716 0.06659 0.91018 0.0
C3166 C 0.5748 0.09261 0.90722 0.0
C3167 C 0.57343 0.07844 0.89446 0.0
H3168 H 0.13405 0.19763 0.99275 0.0
H3169 H 0.14526 0.25475 0.99069 0.0
H3170 H 0.1193 0.26071 0.0103 0.0
H3171 H 0.09824 0.24899 0.03342 0.0
H3172 H 0.08901 0.19152 0.03747 0.0
H3173 H 0.10995 0.18617 0.0124 0.0
C3174 C 0.13015 0.21146 0.99579 0.0
C3175 C 0.14146 0.22577 0.99018 0.0
C3176 C 0.11632 0.21454 0.00841 0.0
C3177 C 0.13659 0.24357 0.99455 0.0
C3178 C 0.12206 0.24689 0.00622 0.0
C3179 C 0.10075 0.23532 0.0287 0.0
C3180 C 0.09246 0.22062 0.03753 0.0
C3181 C 0.11269 0.23239 0.01419 0.0
C3182 C 0.09541 0.203 0.03102 0.0
C3183 C 0.1073 0.19997 0.01663 0.0
H3184 H 0.3158 0.83501 0.62154 0.0
H3185 H 0.27928 0.78952 0.61921 0.0
H3186 H 0.30426 0.76963 0.61041 0.0
H3187 H 0.33534 0.76648 0.59915 0.0
H3188 H 0.37027 0.81346 0.59707 0.0
H3189 H 0.34651 0.832 0.6103 0.0
C3190 C 0.31353 0.82057 0.61984 0.0
C3191 C 0.29592 0.81357 0.62124 0.0
C3192 C 0.3273 0.80989 0.61264 0.0
C3193 C 0.29288 0.79501 0.61861 0.0
C3194 C 0.30701 0.78383 0.613 0.0
C3195 C 0.3376 0.78087 0.6011 0.0
C3196 C 0.35449 0.78862 0.59691 0.0
C3197 C 0.324 0.79138 0.60898 0.0
C3198 C 0.35728 0.80724 0.59988 0.0
C3199 C 0.34387 0.81775 0.60782 0.0
H3200 H 0.82393 0.43743 0.85703 0.0
H3201 H 0.79893 0.38485 0.85315 0.0
H3202 H 0.78879 0.39129 0.82228 0.0
H3203 H 0.78154 0.4145 0.79939 0.0
H3204 H 0.80619 0.46733 0.80384 0.0
H3205 H 0.82263 0.458 0.8309 0.0
C3206 C 0.81706 0.4271 0.84905 0.0
C3207 C 0.81234 0.41065 0.85719 0.0
C3208 C 0.81102 0.43106 0.8314 0.0
C3209 C 0.80302 0.39748 0.84695 0.0
C3210 C 0.79701 0.40126 0.82938 0.0
C3211 C 0.79113 0.42368 0.80582 0.0
C3212 C 0.79245 0.44167 0.79978 0.0
C3213 C 0.80015 0.41837 0.82181 0.0
C3214 C 0.80482 0.45346 0.80835 0.0
C3215 C 0.81412 0.44818 0.82394 0.0
H3216 H 0.91133 0.57676 0.0991 0.0
H3217 H 0.94751 0.53369 0.08438 0.0
H3218 H 0.93053 0.52846 0.05634 0.0
H3219 H 0.90295 0.53299 0.03848 0.0
H3220 H 0.86543 0.57481 0.05383 0.0
H3221 H 0.88554 0.58406 0.07865 0.0
C3222 C 0.91585 0.56674 0.08936 0.0
C3223 C 0.93091 0.55588 0.09356 0.0
C3224 C 0.90563 0.56346 0.07343 0.0
C3225 C 0.93625 0.54248 0.0812 0.0
C3226 C 0.92642 0.53937 0.06525 0.0
C3227 C 0.89937 0.54449 0.0469 0.0
C3228 C 0.88257 0.55308 0.04428 0.0
C3229 C 0.91074 0.54935 0.06152 0.0
C3230 C 0.87824 0.56792 0.05543 0.0
C3231 C 0.88968 0.57312 0.06979 0.0
H3232 H 0.836 0.611 0.31281 0.0
H3233 H 0.80191 0.57455 0.28223 0.0
H3234 H 0.78354 0.56879 0.30945 0.0
H3235 H 0.77559 0.57731 0.34112 0.0
H3236 H 0.81124 0.61362 0.37067 0.0
H3237 H 0.83066 0.61626 0.34462 0.0
C3238 C 0.82463 0.60164 0.31221 0.0
C3239 C 0.81993 0.5934 0.29579 0.0
C3240 C 0.81442 0.59851 0.32764 0.0
C3241 C 0.80543 0.58116 0.29489 0.0
C3242 C 0.79503 0.5779 0.31039 0.0
C3243 C 0.78787 0.58537 0.34194 0.0
C3244 C 0.79181 0.59539 0.35773 0.0
C3245 C 0.79915 0.58691 0.32675 0.0
C3246 C 0.80781 0.60576 0.3587 0.0
C3247 C 0.81893 0.60742 0.34376 0.0
H3248 H 0.72955 0.54888 0.55321 0.0
H3249 H 0.77207 0.55845 0.59242 0.0
H3250 H 0.76278 0.53099 0.60872 0.0
H3251 H 0.73844 0.50846 0.61501 0.0
H3252 H 0.69483 0.50144 0.57665 0.0
H3253 H 0.70822 0.52435 0.55709 0.0
C3254 C 0.73709 0.54489 0.56517 0.0
C3255 C 0.75129 0.55596 0.57183 0.0
C3256 C 0.73111 0.52982 0.57482 0.0
C3257 C 0.76104 0.55029 0.58711 0.0
C3258 C 0.75558 0.5347 0.5965 0.0
C3259 C 0.73243 0.5114 0.60193 0.0
C3260 C 0.71595 0.50304 0.59696 0.0
C3261 C 0.74007 0.52492 0.59095 0.0
C3262 C 0.70784 0.50725 0.58035 0.0
C3263 C 0.71537 0.52054 0.56933 0.0
loop_
_geom_bond_atom_site_label_1
_geom_bond_atom_site_label_2
_geom_bond_distance
_geom_bond_site_symmetry_2
_ccdc_geom_bond_type
Mn0 O5 2.095 . S
Mn0 O15 2.162 . S
Mn0 O16 2.297 . S
Mn0 O24 2.385 . S
Mn0 O25 2.209 . S
Mn0 O26 2.094 . S
Mn1 O6 2.121 . S
Mn1 N8 2.257 . S
Mn1 N17 2.282 . S
Mn1 O25 2.215 . S
Mn1 O27 2.117 . S
C2 O24 1.234 . S
C2 O25 1.283 . S
C3 O15 1.281 . S
C3 O16 1.236 . S
C4 O26 1.240 . S
C4 O27 1.264 . S
O5 Mn0 2.095 . S
O5 C14 1.250 . S
O6 Mn1 2.121 . S
O6 C14 1.258 . S
C7 N8 1.326 1_655 S
C7 C11 1.460 . S
C7 H13 0.929 . S
N8 Mn1 2.257 . S
N8 C7 1.326 1_455 S
N8 C12 1.366 . S
C9 C10 1.258 . S
C9 C12 1.408 1_655 S
C9 C29 1.449 . S
C10 C9 1.258 . S
C10 C11 1.477 . S
C10 H30 0.931 . S
C11 C7 1.460 . S
C11 C10 1.477 . S
C11 H31 0.930 . S
C12 N8 1.366 . S
C12 C9 1.408 1_455 S
C12 C22 1.496 . S
H13 C7 0.929 . S
C14 O5 1.250 . S
C14 O6 1.258 . S
O15 Mn0 2.162 . S
O15 C3 1.281 . S
O16 Mn0 2.297 . S
O16 C3 1.236 . S
N17 Mn1 2.282 . S
N17 C18 1.328 . S
N17 C22 1.318 . S
C18 N17 1.328 . S
C18 C19 1.457 . S
C18 H23 0.929 . S
C19 C18 1.457 . S
C19 C20 1.291 . S
C19 H32 0.931 . S
C20 C19 1.291 . S
C20 C21 1.373 . S
C20 H33 0.929 . S
C21 C20 1.373 . S
C21 C22 1.396 . S
C21 C28 1.403 1_455 S
C22 C12 1.496 . S
C22 N17 1.318 . S
C22 C21 1.396 . S
H23 C18 0.929 . S
O24 Mn0 2.385 . S
O24 C2 1.234 . S
O25 Mn0 2.209 . S
O25 Mn1 2.215 . S
O25 C2 1.283 . S
O26 Mn0 2.094 . S
O26 C4 1.240 . S
O27 Mn1 2.117 . S
O27 C4 1.264 . S
C28 C21 1.403 1_655 S
C28 C29 1.399 . S
C28 H34 0.929 . S
C29 C9 1.449 . S
C29 C28 1.399 . S
C29 H35 0.930 . S
H30 C10 0.931 . S
H31 C11 0.930 . S
H32 C19 0.931 . S
H33 C20 0.929 . S
H34 C28 0.929 . S
H35 C29 0.930 . S
Mn36 O41 2.095 . S
Mn36 O51 2.162 . S
Mn36 O52 2.297 . S
Mn36 O60 2.385 . S
Mn36 O61 2.209 . S
Mn36 O62 2.094 . S
Mn37 O42 2.121 . S
Mn37 N44 2.257 . S
Mn37 N53 2.282 . S
Mn37 O61 2.215 . S
Mn37 O63 2.117 . S
C38 O60 1.234 . S
C38 O61 1.283 . S
C39 O51 1.281 . S
C39 O52 1.236 . S
C40 O62 1.240 . S
C40 O63 1.264 . S
O41 Mn36 2.095 . S
O41 C50 1.250 . S
O42 Mn37 2.121 . S
O42 C50 1.258 . S
C43 N44 1.326 . S
C43 C47 1.460 . S
C43 H49 0.929 . S
N44 Mn37 2.257 . S
N44 C43 1.326 . S
N44 C48 1.362 . S
C45 C46 1.258 . S
C45 C48 1.431 . S
C45 C65 1.449 . S
C46 C45 1.258 . S
C46 C47 1.477 . S
C46 H66 0.931 . S
C47 C43 1.460 . S
C47 C46 1.477 . S
C47 H67 0.930 . S
C48 N44 1.362 . S
C48 C45 1.431 . S
C48 C58 1.476 . S
H49 C43 0.929 . S
C50 O41 1.250 . S
C50 O42 1.258 . S
O51 Mn36 2.162 . S
O51 C39 1.281 . S
O52 Mn36 2.297 . S
O52 C39 1.236 . S
N53 Mn37 2.282 . S
N53 C54 1.328 . S
N53 C58 1.318 . S
C54 N53 1.328 . S
C54 C55 1.457 . S
C54 H59 0.929 . S
C55 C54 1.457 . S
C55 C56 1.291 . S
C55 H68 0.931 . S
C56 C55 1.291 . S
C56 C57 1.373 . S
C56 H69 0.929 . S
C57 C56 1.373 . S
C57 C58 1.396 . S
C57 C64 1.403 . S
C58 C48 1.476 . S
C58 N53 1.318 . S
C58 C57 1.396 . S
H59 C54 0.929 . S
O60 Mn36 2.385 . S
O60 C38 1.234 . S
O61 Mn36 2.209 . S
O61 Mn37 2.215 . S
O61 C38 1.283 . S
O62 Mn36 2.094 . S
O62 C40 1.240 . S
O63 Mn37 2.117 . S
O63 C40 1.264 . S
C64 C57 1.403 . S
C64 C65 1.399 . S
C64 H70 0.929 1_655 S
C65 C45 1.449 . S
C65 C64 1.399 . S
C65 H71 0.930 1_655 S
H66 C46 0.931 . S
H67 C47 0.930 . S
H68 C55 0.931 . S
H69 C56 0.929 . S
H70 C64 0.929 1_455 S
H71 C65 0.930 1_455 S
Mn72 O77 2.095 . S
Mn72 O87 2.162 . S
Mn72 O88 2.297 . S
Mn72 O96 2.385 . S
Mn72 O97 2.209 . S
Mn72 O98 2.094 . S
Mn73 O78 2.121 . S
Mn73 N80 2.257 . S
Mn73 N89 2.282 . S
Mn73 O97 2.215 . S
Mn73 O99 2.117 . S
C74 O96 1.234 . S
C74 O97 1.283 . S
C75 O87 1.281 . S
C75 O88 1.236 . S
C76 O98 1.240 . S
C76 O99 1.264 . S
O77 Mn72 2.095 . S
O77 C86 1.250 . S
O78 Mn73 2.121 . S
O78 C86 1.258 . S
C79 N80 1.326 . S
C79 C83 1.460 . S
C79 H85 0.929 . S
N80 Mn73 2.257 . S
N80 C79 1.326 . S
N80 C84 1.362 . S
C81 C82 1.258 . S
C81 C84 1.431 . S
C81 C101 1.449 . S
C82 C81 1.258 . S
C82 C83 1.477 . S
C82 H102 0.931 . S
C83 C79 1.460 . S
C83 C82 1.477 . S
C83 H103 0.930 . S
C84 N80 1.362 . S
C84 C81 1.431 . S
C84 C94 1.476 . S
H85 C79 0.929 . S
C86 O77 1.250 . S
C86 O78 1.258 . S
O87 Mn72 2.162 . S
O87 C75 1.281 . S
O88 Mn72 2.297 . S
O88 C75 1.236 . S
N89 Mn73 2.282 . S
N89 C90 1.328 . S
N89 C94 1.318 . S
C90 N89 1.328 . S
C90 C91 1.457 . S
C90 H95 0.929 . S
C91 C90 1.457 . S
C91 C92 1.291 . S
C91 H104 0.931 . S
C92 C91 1.291 . S
C92 C93 1.373 . S
C92 H105 0.929 . S
C93 C92 1.373 . S
C93 C94 1.396 . S
C93 C100 1.403 . S
C94 C84 1.476 . S
C94 N89 1.318 . S
C94 C93 1.396 . S
H95 C90 0.929 . S
O96 Mn72 2.385 . S
O96 C74 1.234 . S
O97 Mn72 2.209 . S
O97 Mn73 2.215 . S
O97 C74 1.283 . S
O98 Mn72 2.094 . S
O98 C76 1.240 . S
O99 Mn73 2.117 . S
O99 C76 1.264 . S
C100 C93 1.403 . S
C100 C101 1.399 . S
C100 H106 0.929 . S
C101 C81 1.449 . S
C101 C100 1.399 . S
C101 H107 0.930 . S
H102 C82 0.931 . S
H103 C83 0.930 . S
H104 C91 0.931 . S
H105 C92 0.929 . S
H106 C100 0.929 . S
H107 C101 0.930 . S
Mn108 O113 2.095 . S
Mn108 O123 2.162 . S
Mn108 O124 2.297 . S
Mn108 O132 2.385 1_554 S
Mn108 O133 2.209 1_554 S
Mn108 O134 2.094 . S
Mn109 O114 2.121 . S
Mn109 N116 2.257 . S
Mn109 N125 2.282 . S
Mn109 O133 2.215 . S
Mn109 O135 2.117 . S
C110 O132 1.234 . S
C110 O133 1.283 . S
C111 O123 1.281 . S
C111 O124 1.236 . S
C112 O134 1.240 . S
C112 O135 1.264 1_554 S
O113 Mn108 2.095 . S
O113 C122 1.250 . S
O114 Mn109 2.121 . S
O114 C122 1.258 1_556 S
C115 N116 1.326 . S
C115 C119 1.460 . S
C115 H121 0.929 . S
N116 Mn109 2.257 . S
N116 C115 1.326 . S
N116 C120 1.362 . S
C117 C118 1.258 . S
C117 C120 1.431 . S
C117 C137 1.449 . S
C118 C117 1.258 . S
C118 C119 1.477 . S
C118 H138 0.931 . S
C119 C115 1.460 . S
C119 C118 1.477 . S
C119 H139 0.930 . S
C120 N116 1.362 . S
C120 C117 1.431 . S
C120 C130 1.476 . S
H121 C115 0.929 . S
C122 O113 1.250 . S
C122 O114 1.258 1_554 S
O123 Mn108 2.162 . S
O123 C111 1.281 . S
O124 Mn108 2.297 . S
O124 C111 1.236 . S
N125 Mn109 2.282 . S
N125 C126 1.328 . S
N125 C130 1.318 . S
C126 N125 1.328 . S
C126 C127 1.457 . S
C126 H131 0.929 . S
C127 C126 1.457 . S
C127 C128 1.291 . S
C127 H140 0.931 . S
C128 C127 1.291 . S
C128 C129 1.373 . S
C128 H141 0.929 . S
C129 C128 1.373 . S
C129 C130 1.396 . S
C129 C136 1.403 . S
C130 C120 1.476 . S
C130 N125 1.318 . S
C130 C129 1.396 . S
H131 C126 0.929 . S
O132 Mn108 2.385 1_556 S
O132 C110 1.234 . S
O133 Mn108 2.209 1_556 S
O133 Mn109 2.215 . S
O133 C110 1.283 . S
O134 Mn108 2.094 . S
O134 C112 1.240 . S
O135 Mn109 2.117 . S
O135 C112 1.264 1_556 S
C136 C129 1.403 . S
C136 C137 1.399 . S
C136 H142 0.929 . S
C137 C117 1.449 . S
C137 C136 1.399 . S
C137 H143 0.930 . S
H138 C118 0.931 . S
H139 C119 0.930 . S
H140 C127 0.931 . S
H141 C128 0.929 . S
H142 C136 0.929 . S
H143 C137 0.930 . S
Mn144 O149 2.095 . S
Mn144 O159 2.162 . S
Mn144 O160 2.297 1_455 S
Mn144 O168 2.385 1_455 S
Mn144 O169 2.209 1_455 S
Mn144 O170 2.094 . S
Mn145 O150 2.122 . S
Mn145 N152 2.257 1_455 S
Mn145 N161 2.281 1_455 S
Mn145 O169 2.214 1_455 S
Mn145 O171 2.117 . S
C146 O168 1.234 . S
C146 O169 1.283 . S
C147 O159 1.281 . S
C147 O160 1.235 1_455 S
C148 O170 1.240 . S
C148 O171 1.264 . S
O149 Mn144 2.095 . S
O149 C158 1.250 . S
O150 Mn145 2.122 . S
O150 C158 1.258 . S
C151 N152 1.326 . S
C151 C155 1.460 . S
C151 H157 0.929 1_655 S
N152 Mn145 2.257 1_655 S
N152 C151 1.326 . S
N152 C156 1.362 . S
C153 C154 1.258 . S
C153 C156 1.431 . S
C153 C173 1.449 . S
C154 C153 1.258 . S
C154 C155 1.477 . S
C154 H174 0.931 . S
C155 C151 1.460 . S
C155 C154 1.477 . S
C155 H175 0.930 . S
C156 N152 1.362 . S
C156 C153 1.431 . S
C156 C166 1.476 . S
H157 C151 0.929 1_455 S
C158 O149 1.250 . S
C158 O150 1.258 . S
O159 Mn144 2.162 . S
O159 C147 1.281 . S
O160 Mn144 2.297 1_655 S
O160 C147 1.235 1_655 S
N161 Mn145 2.281 1_655 S
N161 C162 1.328 . S
N161 C166 1.318 . S
C162 N161 1.328 . S
C162 C163 1.457 . S
C162 H167 0.929 . S
C163 C162 1.457 . S
C163 C164 1.291 . S
C163 H176 0.931 . S
C164 C163 1.291 . S
C164 C165 1.373 . S
C164 H177 0.929 . S
C165 C164 1.373 . S
C165 C166 1.396 . S
C165 C172 1.403 . S
C166 C156 1.476 . S
C166 N161 1.318 . S
C166 C165 1.396 . S
H167 C162 0.929 . S
O168 Mn144 2.385 1_655 S
O168 C146 1.234 . S
O169 Mn144 2.209 1_655 S
O169 Mn145 2.214 1_655 S
O169 C146 1.283 . S
O170 Mn144 2.094 . S
O170 C148 1.240 . S
O171 Mn145 2.117 . S
O171 C148 1.264 . S
C172 C165 1.403 . S
C172 C173 1.399 . S
C172 H178 0.929 . S
C173 C153 1.449 . S
C173 C172 1.399 . S
C173 H179 0.930 . S
H174 C154 0.931 . S
H175 C155 0.930 . S
H176 C163 0.931 . S
H177 C164 0.929 . S
H178 C172 0.929 . S
H179 C173 0.930 . S
Mn180 O185 2.095 . S
Mn180 O195 2.162 . S
Mn180 O196 2.297 . S
Mn180 O204 2.385 . S
Mn180 O205 2.209 . S
Mn180 O206 2.094 . S
Mn181 O186 2.121 . S
Mn181 N188 2.257 . S
Mn181 N197 2.282 . S
Mn181 O205 2.215 . S
Mn181 O207 2.117 . S
C182 O204 1.234 . S
C182 O205 1.283 . S
C183 O195 1.281 . S
C183 O196 1.236 . S
C184 O206 1.240 . S
C184 O207 1.264 . S
O185 Mn180 2.095 . S
O185 C194 1.250 . S
O186 Mn181 2.121 . S
O186 C194 1.258 . S
C187 N188 1.326 . S
C187 C191 1.460 . S
C187 H193 0.929 . S
N188 Mn181 2.257 . S
N188 C187 1.326 . S
N188 C192 1.362 . S
C189 C190 1.258 . S
C189 C192 1.431 . S
C189 C209 1.449 . S
C190 C189 1.258 . S
C190 C191 1.477 . S
C190 H210 0.931 . S
C191 C187 1.460 . S
C191 C190 1.477 . S
C191 H211 0.930 . S
C192 N188 1.362 . S
C192 C189 1.431 . S
C192 C202 1.476 . S
H193 C187 0.929 . S
C194 O185 1.250 . S
C194 O186 1.258 . S
O195 Mn180 2.162 . S
O195 C183 1.281 . S
O196 Mn180 2.297 . S
O196 C183 1.236 . S
N197 Mn181 2.282 . S
N197 C198 1.328 . S
N197 C202 1.318 . S
C198 N197 1.328 . S
C198 C199 1.457 . S
C198 H203 0.929 . S
C199 C198 1.457 . S
C199 C200 1.291 . S
C199 H212 0.931 . S
C200 C199 1.291 . S
C200 C201 1.373 . S
C200 H213 0.929 . S
C201 C200 1.373 . S
C201 C202 1.396 . S
C201 C208 1.403 . S
C202 C192 1.476 . S
C202 N197 1.318 . S
C202 C201 1.396 . S
H203 C198 0.929 . S
O204 Mn180 2.385 . S
O204 C182 1.234 . S
O205 Mn180 2.209 . S
O205 Mn181 2.215 . S
O205 C182 1.283 . S
O206 Mn180 2.094 . S
O206 C184 1.240 . S
O207 Mn181 2.117 . S
O207 C184 1.264 . S
C208 C201 1.403 . S
C208 C209 1.399 . S
C208 H214 0.929 . S
C209 C189 1.449 . S
C209 C208 1.399 . S
C209 H215 0.930 . S
H210 C190 0.931 . S
H211 C191 0.930 . S
H212 C199 0.931 . S
H213 C200 0.929 . S
H214 C208 0.929 . S
H215 C209 0.930 . S
Mn216 O221 2.095 . S
Mn216 O231 2.162 . S
Mn216 O232 2.297 . S
Mn216 O240 2.385 . S
Mn216 O241 2.209 . S
Mn216 O242 2.094 . S
Mn217 O222 2.121 . S
Mn217 N224 2.257 . S
Mn217 N233 2.282 . S
Mn217 O241 2.215 . S
Mn217 O243 2.117 . S
C218 O240 1.234 . S
C218 O241 1.283 . S
C219 O231 1.281 . S
C219 O232 1.236 . S
C220 O242 1.240 . S
C220 O243 1.264 . S
O221 Mn216 2.095 . S
O221 C230 1.250 . S
O222 Mn217 2.121 . S
O222 C230 1.258 . S
C223 N224 1.326 . S
C223 C227 1.460 . S
C223 H229 0.929 . S
N224 Mn217 2.257 . S
N224 C223 1.326 . S
N224 C228 1.362 . S
C225 C226 1.258 . S
C225 C228 1.431 . S
C225 C245 1.449 . S
C226 C225 1.258 . S
C226 C227 1.477 . S
C226 H246 0.931 . S
C227 C223 1.460 . S
C227 C226 1.477 . S
C227 H247 0.930 . S
C228 N224 1.362 . S
C228 C225 1.431 . S
C228 C238 1.476 . S
H229 C223 0.929 . S
C230 O221 1.250 . S
C230 O222 1.258 . S
O231 Mn216 2.162 . S
O231 C219 1.281 . S
O232 Mn216 2.297 . S
O232 C219 1.236 . S
N233 Mn217 2.282 . S
N233 C234 1.328 . S
N233 C238 1.318 . S
C234 N233 1.328 . S
C234 C235 1.457 . S
C234 H239 0.929 . S
C235 C234 1.457 . S
C235 C236 1.291 . S
C235 H248 0.931 . S
C236 C235 1.291 . S
C236 C237 1.373 . S
C236 H249 0.929 . S
C237 C236 1.373 . S
C237 C238 1.396 . S
C237 C244 1.403 . S
C238 C228 1.476 . S
C238 N233 1.318 . S
C238 C237 1.396 . S
H239 C234 0.929 . S
O240 Mn216 2.385 . S
O240 C218 1.234 . S
O241 Mn216 2.209 . S
O241 Mn217 2.215 . S
O241 C218 1.283 . S
O242 Mn216 2.094 . S
O242 C220 1.240 . S
O243 Mn217 2.117 . S
O243 C220 1.264 . S
C244 C237 1.403 . S
C244 C245 1.399 . S
C244 H250 0.929 . S
C245 C225 1.449 . S
C245 C244 1.399 . S
C245 H251 0.930 . S
H246 C226 0.931 . S
H247 C227 0.930 . S
H248 C235 0.931 . S
H249 C236 0.929 . S
H250 C244 0.929 . S
H251 C245 0.930 . S
Mn252 O257 2.095 . S
Mn252 O267 2.162 . S
Mn252 O268 2.297 . S
Mn252 O276 2.385 . S
Mn252 O277 2.209 . S
Mn252 O278 2.094 . S
Mn253 O258 2.121 . S
Mn253 N260 2.257 . S
Mn253 N269 2.282 . S
Mn253 O277 2.215 1_455 S
Mn253 O279 2.117 1_455 S
C254 O276 1.234 . S
C254 O277 1.283 . S
C255 O267 1.281 . S
C255 O268 1.236 . S
C256 O278 1.240 . S
C256 O279 1.264 . S
O257 Mn252 2.095 . S
O257 C266 1.250 . S
O258 Mn253 2.121 . S
O258 C266 1.258 1_455 S
C259 N260 1.326 . S
C259 C263 1.460 . S
C259 H265 0.929 . S
N260 Mn253 2.257 . S
N260 C259 1.326 . S
N260 C264 1.362 . S
C261 C262 1.258 . S
C261 C264 1.431 . S
C261 C281 1.449 . S
C262 C261 1.258 . S
C262 C263 1.477 . S
C262 H282 0.931 . S
C263 C259 1.460 . S
C263 C262 1.477 . S
C263 H283 0.930 . S
C264 N260 1.362 . S
C264 C261 1.431 . S
C264 C274 1.476 . S
H265 C259 0.929 . S
C266 O257 1.250 . S
C266 O258 1.258 1_655 S
O267 Mn252 2.162 . S
O267 C255 1.281 . S
O268 Mn252 2.297 . S
O268 C255 1.236 . S
N269 Mn253 2.282 . S
N269 C270 1.328 . S
N269 C274 1.318 . S
C270 N269 1.328 . S
C270 C271 1.457 . S
C270 H275 0.929 . S
C271 C270 1.457 . S
C271 C272 1.291 . S
C271 H284 0.931 . S
C272 C271 1.291 . S
C272 C273 1.373 . S
C272 H285 0.929 . S
C273 C272 1.373 . S
C273 C274 1.396 . S
C273 C280 1.403 . S
C274 C264 1.476 . S
C274 N269 1.318 . S
C274 C273 1.396 . S
H275 C270 0.929 . S
O276 Mn252 2.385 . S
O276 C254 1.234 . S
O277 Mn252 2.209 . S
O277 Mn253 2.215 1_655 S
O277 C254 1.283 . S
O278 Mn252 2.094 . S
O278 C256 1.240 . S
O279 Mn253 2.117 1_655 S
O279 C256 1.264 . S
C280 C273 1.403 . S
C280 C281 1.399 . S
C280 H286 0.929 . S
C281 C261 1.449 . S
C281 C280 1.399 . S
C281 H287 0.930 . S
H282 C262 0.931 . S
H283 C263 0.930 . S
H284 C271 0.931 . S
H285 C272 0.929 . S
H286 C280 0.929 . S
H287 C281 0.930 . S
Mn288 O293 2.095 . S
Mn288 O303 2.162 . S
Mn288 O304 2.297 . S
Mn288 O312 2.385 . S
Mn288 O313 2.209 . S
Mn288 O314 2.094 . S
Mn289 O294 2.121 . S
Mn289 N296 2.257 . S
Mn289 N305 2.282 . S
Mn289 O313 2.215 . S
Mn289 O315 2.117 . S
C290 O312 1.234 . S
C290 O313 1.283 . S
C291 O303 1.281 . S
C291 O304 1.236 . S
C292 O314 1.240 . S
C292 O315 1.264 . S
O293 Mn288 2.095 . S
O293 C302 1.250 . S
O294 Mn289 2.121 . S
O294 C302 1.258 . S
C295 N296 1.326 1_565 S
C295 C299 1.460 . S
C295 H301 0.929 . S
N296 Mn289 2.257 . S
N296 C295 1.326 1_545 S
N296 C300 1.366 . S
C297 C298 1.258 . S
C297 C300 1.408 1_565 S
C297 C317 1.449 . S
C298 C297 1.258 . S
C298 C299 1.477 . S
C298 H318 0.931 . S
C299 C295 1.460 . S
C299 C298 1.477 . S
C299 H319 0.930 . S
C300 N296 1.366 . S
C300 C297 1.408 1_545 S
C300 C310 1.496 . S
H301 C295 0.929 . S
C302 O293 1.250 . S
C302 O294 1.258 . S
O303 Mn288 2.162 . S
O303 C291 1.281 . S
O304 Mn288 2.297 . S
O304 C291 1.236 . S
N305 Mn289 2.282 . S
N305 C306 1.328 . S
N305 C310 1.318 . S
C306 N305 1.328 . S
C306 C307 1.457 . S
C306 H311 0.929 . S
C307 C306 1.457 . S
C307 C308 1.291 . S
C307 H320 0.931 . S
C308 C307 1.291 . S
C308 C309 1.373 . S
C308 H321 0.929 . S
C309 C308 1.373 . S
C309 C310 1.396 . S
C309 C316 1.403 1_545 S
C310 C300 1.496 . S
C310 N305 1.318 . S
C310 C309 1.396 . S
H311 C306 0.929 . S
O312 Mn288 2.385 . S
O312 C290 1.234 . S
O313 Mn288 2.209 . S
O313 Mn289 2.215 . S
O313 C290 1.283 . S
O314 Mn288 2.094 . S
O314 C292 1.240 . S
O315 Mn289 2.117 . S
O315 C292 1.264 . S
C316 C309 1.403 1_565 S
C316 C317 1.399 . S
C316 H322 0.929 . S
C317 C297 1.449 . S
C317 C316 1.399 . S
C317 H323 0.930 . S
H318 C298 0.931 . S
H319 C299 0.930 . S
H320 C307 0.931 . S
H321 C308 0.929 . S
H322 C316 0.929 . S
H323 C317 0.930 . S
Mn324 O329 2.095 . S
Mn324 O339 2.162 . S
Mn324 O340 2.297 . S
Mn324 O348 2.385 1_545 S
Mn324 O349 2.209 1_545 S
Mn324 O350 2.094 . S
Mn325 O330 2.121 . S
Mn325 N332 2.257 . S
Mn325 N341 2.282 . S
Mn325 O349 2.215 . S
Mn325 O351 2.117 . S
C326 O348 1.234 . S
C326 O349 1.283 . S
C327 O339 1.281 . S
C327 O340 1.236 . S
C328 O350 1.240 . S
C328 O351 1.264 1_545 S
O329 Mn324 2.095 . S
O329 C338 1.250 . S
O330 Mn325 2.121 . S
O330 C338 1.258 1_565 S
C331 N332 1.326 . S
C331 C335 1.460 . S
C331 H337 0.929 . S
N332 Mn325 2.257 . S
N332 C331 1.326 . S
N332 C336 1.362 . S
C333 C334 1.258 . S
C333 C336 1.431 . S
C333 C353 1.449 . S
C334 C333 1.258 . S
C334 C335 1.477 . S
C334 H354 0.931 . S
C335 C331 1.460 . S
C335 C334 1.477 . S
C335 H355 0.930 . S
C336 N332 1.362 . S
C336 C333 1.431 . S
C336 C346 1.476 . S
H337 C331 0.929 . S
C338 O329 1.250 . S
C338 O330 1.258 1_545 S
O339 Mn324 2.162 . S
O339 C327 1.281 . S
O340 Mn324 2.297 . S
O340 C327 1.236 . S
N341 Mn325 2.282 . S
N341 C342 1.328 . S
N341 C346 1.318 . S
C342 N341 1.328 . S
C342 C343 1.457 . S
C342 H347 0.929 . S
C343 C342 1.457 . S
C343 C344 1.291 . S
C343 H356 0.931 . S
C344 C343 1.291 . S
C344 C345 1.373 . S
C344 H357 0.929 . S
C345 C344 1.373 . S
C345 C346 1.396 . S
C345 C352 1.403 . S
C346 C336 1.476 . S
C346 N341 1.318 . S
C346 C345 1.396 . S
H347 C342 0.929 . S
O348 Mn324 2.385 1_565 S
O348 C326 1.234 . S
O349 Mn324 2.209 1_565 S
O349 Mn325 2.215 . S
O349 C326 1.283 . S
O350 Mn324 2.094 . S
O350 C328 1.240 . S
O351 Mn325 2.117 . S
O351 C328 1.264 1_565 S
C352 C345 1.403 . S
C352 C353 1.399 . S
C352 H358 0.929 . S
C353 C333 1.449 . S
C353 C352 1.399 . S
C353 H359 0.930 . S
H354 C334 0.931 . S
H355 C335 0.930 . S
H356 C343 0.931 . S
H357 C344 0.929 . S
H358 C352 0.929 . S
H359 C353 0.930 . S
Mn360 O365 2.095 . S
Mn360 O375 2.162 . S
Mn360 O376 2.297 . S
Mn360 O384 2.385 . S
Mn360 O385 2.209 . S
Mn360 O386 2.094 . S
Mn361 O366 2.121 . S
Mn361 N368 2.257 . S
Mn361 N377 2.282 . S
Mn361 O385 2.215 . S
Mn361 O387 2.117 . S
C362 O384 1.234 . S
C362 O385 1.283 . S
C363 O375 1.281 . S
C363 O376 1.236 . S
C364 O386 1.240 . S
C364 O387 1.264 . S
O365 Mn360 2.095 . S
O365 C374 1.250 . S
O366 Mn361 2.121 . S
O366 C374 1.258 . S
C367 N368 1.326 . S
C367 C371 1.460 . S
C367 H373 0.929 . S
N368 Mn361 2.257 . S
N368 C367 1.326 . S
N368 C372 1.362 . S
C369 C370 1.258 . S
C369 C372 1.431 . S
C369 C389 1.449 . S
C370 C369 1.258 . S
C370 C371 1.477 . S
C370 H390 0.931 . S
C371 C367 1.460 . S
C371 C370 1.477 . S
C371 H391 0.930 . S
C372 N368 1.362 . S
C372 C369 1.431 . S
C372 C382 1.476 . S
H373 C367 0.929 . S
C374 O365 1.250 . S
C374 O366 1.258 . S
O375 Mn360 2.162 . S
O375 C363 1.281 . S
O376 Mn360 2.297 . S
O376 C363 1.236 . S
N377 Mn361 2.282 . S
N377 C378 1.328 . S
N377 C382 1.318 . S
C378 N377 1.328 . S
C378 C379 1.457 . S
C378 H383 0.929 . S
C379 C378 1.457 . S
C379 C380 1.291 . S
C379 H392 0.931 . S
C380 C379 1.291 . S
C380 C381 1.373 . S
C380 H393 0.929 . S
C381 C380 1.373 . S
C381 C382 1.396 . S
C381 C388 1.403 . S
C382 C372 1.476 . S
C382 N377 1.318 . S
C382 C381 1.396 . S
H383 C378 0.929 . S
O384 Mn360 2.385 . S
O384 C362 1.234 . S
O385 Mn360 2.209 . S
O385 Mn361 2.215 . S
O385 C362 1.283 . S
O386 Mn360 2.094 . S
O386 C364 1.240 . S
O387 Mn361 2.117 . S
O387 C364 1.264 . S
C388 C381 1.403 . S
C388 C389 1.399 . S
C388 H394 0.929 . S
C389 C369 1.449 . S
C389 C388 1.399 . S
C389 H395 0.930 . S
H390 C370 0.931 . S
H391 C371 0.930 . S
H392 C379 0.931 . S
H393 C380 0.929 . S
H394 C388 0.929 . S
H395 C389 0.930 . S
Mn396 O401 2.095 . S
Mn396 O411 2.162 . S
Mn396 O412 2.297 . S
Mn396 O420 2.385 . S
Mn396 O421 2.209 . S
Mn396 O422 2.094 . S
Mn397 O402 2.121 . S
Mn397 N404 2.257 1_554 S
Mn397 N413 2.282 . S
Mn397 O421 2.215 . S
Mn397 O423 2.117 . S
C398 O420 1.234 . S
C398 O421 1.283 . S
C399 O411 1.281 . S
C399 O412 1.236 . S
C400 O422 1.240 . S
C400 O423 1.264 . S
O401 Mn396 2.095 . S
O401 C410 1.250 . S
O402 Mn397 2.121 . S
O402 C410 1.258 . S
C403 N404 1.326 . S
C403 C407 1.460 . S
C403 H409 0.929 . S
N404 Mn397 2.257 1_556 S
N404 C403 1.326 . S
N404 C408 1.362 . S
C405 C406 1.258 . S
C405 C408 1.431 . S
C405 C425 1.449 . S
C406 C405 1.258 . S
C406 C407 1.477 . S
C406 H426 0.931 . S
C407 C403 1.460 . S
C407 C406 1.477 . S
C407 H427 0.930 . S
C408 N404 1.362 . S
C408 C405 1.431 . S
C408 C418 1.476 . S
H409 C403 0.929 . S
C410 O401 1.250 . S
C410 O402 1.258 . S
O411 Mn396 2.162 . S
O411 C399 1.281 . S
O412 Mn396 2.297 . S
O412 C399 1.236 . S
N413 Mn397 2.282 . S
N413 C414 1.328 . S
N413 C418 1.318 1_554 S
C414 N413 1.328 . S
C414 C415 1.457 . S
C414 H419 0.929 . S
C415 C414 1.457 . S
C415 C416 1.291 . S
C415 H428 0.931 . S
C416 C415 1.291 . S
C416 C417 1.373 1_554 S
C416 H429 0.929 . S
C417 C416 1.373 1_556 S
C417 C418 1.396 . S
C417 C424 1.403 . S
C418 C408 1.476 . S
C418 N413 1.318 1_556 S
C418 C417 1.396 . S
H419 C414 0.929 . S
O420 Mn396 2.385 . S
O420 C398 1.234 . S
O421 Mn396 2.209 . S
O421 Mn397 2.215 . S
O421 C398 1.283 . S
O422 Mn396 2.094 . S
O422 C400 1.240 . S
O423 Mn397 2.117 . S
O423 C400 1.264 . S
C424 C417 1.403 . S
C424 C425 1.399 . S
C424 H430 0.929 . S
C425 C405 1.449 . S
C425 C424 1.399 . S
C425 H431 0.930 . S
H426 C406 0.931 . S
H427 C407 0.930 . S
H428 C415 0.931 . S
H429 C416 0.929 . S
H430 C424 0.929 . S
H431 C425 0.930 . S
Mn432 O437 2.090 1_565 S
Mn432 O447 2.162 . S
Mn432 O448 2.297 1_565 S
Mn432 O456 2.382 1_565 S
Mn432 O457 2.209 1_565 S
Mn432 O458 2.094 . S
Mn433 O438 2.121 . S
Mn433 N440 2.257 . S
Mn433 N449 2.282 . S
Mn433 O457 2.215 . S
Mn433 O459 2.117 1_545 S
C434 O456 1.250 . S
C434 O457 1.283 . S
C435 O447 1.281 1_545 S
C435 O448 1.236 . S
C436 O458 1.240 . S
C436 O459 1.264 . S
O437 Mn432 2.090 1_545 S
O437 C446 1.273 . S
O438 Mn433 2.121 . S
O438 C446 1.258 . S
C439 N440 1.326 . S
C439 C443 1.460 . S
C439 H445 0.929 . S
N440 Mn433 2.257 . S
N440 C439 1.326 . S
N440 C444 1.362 . S
C441 C442 1.258 . S
C441 C444 1.431 . S
C441 C461 1.449 . S
C442 C441 1.258 . S
C442 C443 1.477 . S
C442 H462 0.931 . S
C443 C439 1.460 . S
C443 C442 1.477 . S
C443 H463 0.930 . S
C444 N440 1.362 . S
C444 C441 1.431 . S
C444 C454 1.476 . S
H445 C439 0.929 . S
C446 O437 1.273 . S
C446 O438 1.258 . S
O447 Mn432 2.162 . S
O447 C435 1.281 1_565 S
O448 Mn432 2.297 1_545 S
O448 C435 1.236 . S
N449 Mn433 2.282 . S
N449 C450 1.328 1_545 S
N449 C454 1.318 . S
C450 N449 1.328 1_565 S
C450 C451 1.457 . S
C450 H455 0.929 . S
C451 C450 1.457 . S
C451 C452 1.291 1_565 S
C451 H464 0.931 . S
C452 C451 1.291 1_545 S
C452 C453 1.373 . S
C452 H465 0.929 . S
C453 C452 1.373 . S
C453 C454 1.396 . S
C453 C460 1.403 . S
C454 C444 1.476 . S
C454 N449 1.318 . S
C454 C453 1.396 . S
H455 C450 0.929 . S
O456 Mn432 2.382 1_545 S
O456 C434 1.250 . S
O457 Mn432 2.209 1_545 S
O457 Mn433 2.215 . S
O457 C434 1.283 . S
O458 Mn432 2.094 . S
O458 C436 1.240 . S
O459 Mn433 2.117 1_565 S
O459 C436 1.264 . S
C460 C453 1.403 . S
C460 C461 1.399 . S
C460 H466 0.929 . S
C461 C441 1.449 . S
C461 C460 1.399 . S
C461 H467 0.930 . S
H462 C442 0.931 . S
H463 C443 0.930 . S
H464 C451 0.931 . S
H465 C452 0.929 . S
H466 C460 0.929 . S
H467 C461 0.930 . S
Mn468 O473 2.095 . S
Mn468 O483 2.162 . S
Mn468 O484 2.297 . S
Mn468 O492 2.385 . S
Mn468 O493 2.209 . S
Mn468 O494 2.094 . S
Mn469 O474 2.121 . S
Mn469 N476 2.257 . S
Mn469 N485 2.282 . S
Mn469 O493 2.215 . S
Mn469 O495 2.117 . S
C470 O492 1.234 . S
C470 O493 1.283 . S
C471 O483 1.281 . S
C471 O484 1.236 . S
C472 O494 1.240 . S
C472 O495 1.264 . S
O473 Mn468 2.095 . S
O473 C482 1.250 . S
O474 Mn469 2.121 . S
O474 C482 1.258 . S
C475 N476 1.326 . S
C475 C479 1.460 . S
C475 H481 0.929 . S
N476 Mn469 2.257 . S
N476 C475 1.326 . S
N476 C480 1.362 . S
C477 C478 1.258 . S
C477 C480 1.431 . S
C477 C497 1.449 . S
C478 C477 1.258 . S
C478 C479 1.477 . S
C478 H498 0.931 . S
C479 C475 1.460 . S
C479 C478 1.477 . S
C479 H499 0.930 . S
C480 N476 1.362 . S
C480 C477 1.431 . S
C480 C490 1.476 . S
H481 C475 0.929 . S
C482 O473 1.250 . S
C482 O474 1.258 . S
O483 Mn468 2.162 . S
O483 C471 1.281 . S
O484 Mn468 2.297 . S
O484 C471 1.236 . S
N485 Mn469 2.282 . S
N485 C486 1.328 . S
N485 C490 1.318 . S
C486 N485 1.328 . S
C486 C487 1.457 . S
C486 H491 0.929 . S
C487 C486 1.457 . S
C487 C488 1.291 . S
C487 H500 0.931 . S
C488 C487 1.291 . S
C488 C489 1.373 . S
C488 H501 0.929 . S
C489 C488 1.373 . S
C489 C490 1.396 . S
C489 C496 1.403 . S
C490 C480 1.476 . S
C490 N485 1.318 . S
C490 C489 1.396 . S
H491 C486 0.929 . S
O492 Mn468 2.385 . S
O492 C470 1.234 . S
O493 Mn468 2.209 . S
O493 Mn469 2.215 . S
O493 C470 1.283 . S
O494 Mn468 2.094 . S
O494 C472 1.240 . S
O495 Mn469 2.117 . S
O495 C472 1.264 . S
C496 C489 1.403 . S
C496 C497 1.399 . S
C496 H502 0.929 . S
C497 C477 1.449 . S
C497 C496 1.399 . S
C497 H503 0.930 . S
H498 C478 0.931 . S
H499 C479 0.930 . S
H500 C487 0.931 . S
H501 C488 0.929 . S
H502 C496 0.929 . S
H503 C497 0.930 . S
Mn504 O509 2.095 . S
Mn504 O519 2.162 . S
Mn504 O520 2.297 1_545 S
Mn504 O528 2.385 1_545 S
Mn504 O529 2.209 1_545 S
Mn504 O530 2.094 . S
Mn505 O510 2.122 . S
Mn505 N512 2.257 1_545 S
Mn505 N521 2.281 1_545 S
Mn505 O529 2.214 1_545 S
Mn505 O531 2.117 . S
C506 O528 1.234 . S
C506 O529 1.283 . S
C507 O519 1.281 . S
C507 O520 1.235 1_545 S
C508 O530 1.240 . S
C508 O531 1.264 . S
O509 Mn504 2.095 . S
O509 C518 1.250 . S
O510 Mn505 2.122 . S
O510 C518 1.258 . S
C511 N512 1.326 . S
C511 C515 1.460 . S
C511 H517 0.929 1_565 S
N512 Mn505 2.257 1_565 S
N512 C511 1.326 . S
N512 C516 1.362 . S
C513 C514 1.258 . S
C513 C516 1.431 . S
C513 C533 1.449 . S
C514 C513 1.258 . S
C514 C515 1.477 . S
C514 H534 0.931 . S
C515 C511 1.460 . S
C515 C514 1.477 . S
C515 H535 0.930 . S
C516 N512 1.362 . S
C516 C513 1.431 . S
C516 C526 1.476 . S
H517 C511 0.929 1_545 S
C518 O509 1.250 . S
C518 O510 1.258 . S
O519 Mn504 2.162 . S
O519 C507 1.281 . S
O520 Mn504 2.297 1_565 S
O520 C507 1.235 1_565 S
N521 Mn505 2.281 1_565 S
N521 C522 1.328 . S
N521 C526 1.318 . S
C522 N521 1.328 . S
C522 C523 1.457 . S
C522 H527 0.929 . S
C523 C522 1.457 . S
C523 C524 1.291 . S
C523 H536 0.931 . S
C524 C523 1.291 . S
C524 C525 1.373 . S
C524 H537 0.929 . S
C525 C524 1.373 . S
C525 C526 1.396 . S
C525 C532 1.403 . S
C526 C516 1.476 . S
C526 N521 1.318 . S
C526 C525 1.396 . S
H527 C522 0.929 . S
O528 Mn504 2.385 1_565 S
O528 C506 1.234 . S
O529 Mn504 2.209 1_565 S
O529 Mn505 2.214 1_565 S
O529 C506 1.283 . S
O530 Mn504 2.094 . S
O530 C508 1.240 . S
O531 Mn505 2.117 . S
O531 C508 1.264 . S
C532 C525 1.403 . S
C532 C533 1.399 . S
C532 H538 0.929 . S
C533 C513 1.449 . S
C533 C532 1.399 . S
C533 H539 0.930 . S
H534 C514 0.931 . S
H535 C515 0.930 . S
H536 C523 0.931 . S
H537 C524 0.929 . S
H538 C532 0.929 . S
H539 C533 0.930 . S
Mn540 O545 2.095 . S
Mn540 O555 2.162 . S
Mn540 O556 2.297 . S
Mn540 O564 2.385 . S
Mn540 O565 2.209 . S
Mn540 O566 2.094 . S
Mn541 O546 2.121 . S
Mn541 N548 2.257 . S
Mn541 N557 2.282 . S
Mn541 O565 2.215 1_554 S
Mn541 O567 2.117 1_554 S
C542 O564 1.234 . S
C542 O565 1.283 . S
C543 O555 1.281 . S
C543 O556 1.236 . S
C544 O566 1.240 . S
C544 O567 1.264 . S
O545 Mn540 2.095 . S
O545 C554 1.250 . S
O546 Mn541 2.121 . S
O546 C554 1.258 1_554 S
C547 N548 1.326 . S
C547 C551 1.460 . S
C547 H553 0.929 . S
N548 Mn541 2.257 . S
N548 C547 1.326 . S
N548 C552 1.362 . S
C549 C550 1.258 . S
C549 C552 1.431 . S
C549 C569 1.449 . S
C550 C549 1.258 . S
C550 C551 1.477 . S
C550 H570 0.931 . S
C551 C547 1.460 . S
C551 C550 1.477 . S
C551 H571 0.930 . S
C552 N548 1.362 . S
C552 C549 1.431 . S
C552 C562 1.476 . S
H553 C547 0.929 . S
C554 O545 1.250 . S
C554 O546 1.258 1_556 S
O555 Mn540 2.162 . S
O555 C543 1.281 . S
O556 Mn540 2.297 . S
O556 C543 1.236 . S
N557 Mn541 2.282 . S
N557 C558 1.328 . S
N557 C562 1.318 . S
C558 N557 1.328 . S
C558 C559 1.457 . S
C558 H563 0.929 . S
C559 C558 1.457 . S
C559 C560 1.291 . S
C559 H572 0.931 . S
C560 C559 1.291 . S
C560 C561 1.373 . S
C560 H573 0.929 . S
C561 C560 1.373 . S
C561 C562 1.396 . S
C561 C568 1.403 . S
C562 C552 1.476 . S
C562 N557 1.318 . S
C562 C561 1.396 . S
H563 C558 0.929 . S
O564 Mn540 2.385 . S
O564 C542 1.234 . S
O565 Mn540 2.209 . S
O565 Mn541 2.215 1_556 S
O565 C542 1.283 . S
O566 Mn540 2.094 . S
O566 C544 1.240 . S
O567 Mn541 2.117 1_556 S
O567 C544 1.264 . S
C568 C561 1.403 . S
C568 C569 1.399 . S
C568 H574 0.929 . S
C569 C549 1.449 . S
C569 C568 1.399 . S
C569 H575 0.930 . S
H570 C550 0.931 . S
H571 C551 0.930 . S
H572 C559 0.931 . S
H573 C560 0.929 . S
H574 C568 0.929 . S
H575 C569 0.930 . S
Mn576 O581 2.095 . S
Mn576 O591 2.162 . S
Mn576 O592 2.297 . S
Mn576 O600 2.385 . S
Mn576 O601 2.209 . S
Mn576 O602 2.094 . S
Mn577 O582 2.121 . S
Mn577 N584 2.257 . S
Mn577 N593 2.282 . S
Mn577 O601 2.215 . S
Mn577 O603 2.117 . S
C578 O600 1.234 . S
C578 O601 1.283 . S
C579 O591 1.281 . S
C579 O592 1.236 . S
C580 O602 1.240 . S
C580 O603 1.264 . S
O581 Mn576 2.095 . S
O581 C590 1.250 . S
O582 Mn577 2.121 . S
O582 C590 1.258 . S
C583 N584 1.326 1_556 S
C583 C587 1.460 . S
C583 H589 0.929 . S
N584 Mn577 2.257 . S
N584 C583 1.326 1_554 S
N584 C588 1.366 . S
C585 C586 1.258 . S
C585 C588 1.408 1_556 S
C585 C605 1.449 . S
C586 C585 1.258 . S
C586 C587 1.477 . S
C586 H606 0.931 . S
C587 C583 1.460 . S
C587 C586 1.477 . S
C587 H607 0.930 . S
C588 N584 1.366 . S
C588 C585 1.408 1_554 S
C588 C598 1.496 . S
H589 C583 0.929 . S
C590 O581 1.250 . S
C590 O582 1.258 . S
O591 Mn576 2.162 . S
O591 C579 1.281 . S
O592 Mn576 2.297 . S
O592 C579 1.236 . S
N593 Mn577 2.282 . S
N593 C594 1.328 . S
N593 C598 1.318 . S
C594 N593 1.328 . S
C594 C595 1.457 . S
C594 H599 0.929 . S
C595 C594 1.457 . S
C595 C596 1.291 . S
C595 H608 0.931 . S
C596 C595 1.291 . S
C596 C597 1.373 . S
C596 H609 0.929 . S
C597 C596 1.373 . S
C597 C598 1.396 . S
C597 C604 1.403 1_554 S
C598 C588 1.496 . S
C598 N593 1.318 . S
C598 C597 1.396 . S
H599 C594 0.929 . S
O600 Mn576 2.385 . S
O600 C578 1.234 . S
O601 Mn576 2.209 . S
O601 Mn577 2.215 . S
O601 C578 1.283 . S
O602 Mn576 2.094 . S
O602 C580 1.240 . S
O603 Mn577 2.117 . S
O603 C580 1.264 . S
C604 C597 1.403 1_556 S
C604 C605 1.399 . S
C604 H610 0.929 . S
C605 C585 1.449 . S
C605 C604 1.399 . S
C605 H611 0.930 . S
H606 C586 0.931 . S
H607 C587 0.930 . S
H608 C595 0.931 . S
H609 C596 0.929 . S
H610 C604 0.929 . S
H611 C605 0.930 . S
Mn612 O617 2.095 . S
Mn612 O627 2.162 . S
Mn612 O628 2.297 . S
Mn612 O636 2.385 . S
Mn612 O637 2.209 . S
Mn612 O638 2.094 . S
Mn613 O618 2.121 . S
Mn613 N620 2.257 . S
Mn613 N629 2.282 . S
Mn613 O637 2.215 . S
Mn613 O639 2.117 . S
C614 O636 1.234 . S
C614 O637 1.283 . S
C615 O627 1.281 . S
C615 O628 1.236 . S
C616 O638 1.240 . S
C616 O639 1.264 . S
O617 Mn612 2.095 . S
O617 C626 1.250 . S
O618 Mn613 2.121 . S
O618 C626 1.258 . S
C619 N620 1.326 . S
C619 C623 1.460 . S
C619 H625 0.929 . S
N620 Mn613 2.257 . S
N620 C619 1.326 . S
N620 C624 1.362 . S
C621 C622 1.258 . S
C621 C624 1.431 . S
C621 C641 1.449 . S
C622 C621 1.258 . S
C622 C623 1.477 . S
C622 H642 0.931 . S
C623 C619 1.460 . S
C623 C622 1.477 . S
C623 H643 0.930 . S
C624 N620 1.362 . S
C624 C621 1.431 . S
C624 C634 1.476 . S
H625 C619 0.929 . S
C626 O617 1.250 . S
C626 O618 1.258 . S
O627 Mn612 2.162 . S
O627 C615 1.281 . S
O628 Mn612 2.297 . S
O628 C615 1.236 . S
N629 Mn613 2.282 . S
N629 C630 1.328 . S
N629 C634 1.318 . S
C630 N629 1.328 . S
C630 C631 1.457 . S
C630 H635 0.929 . S
C631 C630 1.457 . S
C631 C632 1.291 . S
C631 H644 0.931 . S
C632 C631 1.291 . S
C632 C633 1.373 . S
C632 H645 0.929 . S
C633 C632 1.373 . S
C633 C634 1.396 . S
C633 C640 1.403 . S
C634 C624 1.476 . S
C634 N629 1.318 . S
C634 C633 1.396 . S
H635 C630 0.929 . S
O636 Mn612 2.385 . S
O636 C614 1.234 . S
O637 Mn612 2.209 . S
O637 Mn613 2.215 . S
O637 C614 1.283 . S
O638 Mn612 2.094 . S
O638 C616 1.240 . S
O639 Mn613 2.117 . S
O639 C616 1.264 . S
C640 C633 1.403 . S
C640 C641 1.399 . S
C640 H646 0.929 . S
C641 C621 1.449 . S
C641 C640 1.399 . S
C641 H647 0.930 . S
H642 C622 0.931 . S
H643 C623 0.930 . S
H644 C631 0.931 . S
H645 C632 0.929 . S
H646 C640 0.929 . S
H647 C641 0.930 . S
Mn648 O653 2.095 . S
Mn648 O663 2.162 . S
Mn648 O664 2.297 . S
Mn648 O672 2.385 1_455 S
Mn648 O673 2.209 1_455 S
Mn648 O674 2.094 . S
Mn649 O654 2.121 . S
Mn649 N656 2.257 . S
Mn649 N665 2.282 . S
Mn649 O673 2.215 . S
Mn649 O675 2.117 . S
C650 O672 1.234 . S
C650 O673 1.283 . S
C651 O663 1.281 . S
C651 O664 1.236 . S
C652 O674 1.240 . S
C652 O675 1.264 1_455 S
O653 Mn648 2.095 . S
O653 C662 1.250 . S
O654 Mn649 2.121 . S
O654 C662 1.258 1_655 S
C655 N656 1.326 . S
C655 C659 1.460 . S
C655 H661 0.929 . S
N656 Mn649 2.257 . S
N656 C655 1.326 . S
N656 C660 1.362 . S
C657 C658 1.258 . S
C657 C660 1.431 . S
C657 C677 1.449 . S
C658 C657 1.258 . S
C658 C659 1.477 . S
C658 H678 0.931 . S
C659 C655 1.460 . S
C659 C658 1.477 . S
C659 H679 0.930 . S
C660 N656 1.362 . S
C660 C657 1.431 . S
C660 C670 1.476 . S
H661 C655 0.929 . S
C662 O653 1.250 . S
C662 O654 1.258 1_455 S
O663 Mn648 2.162 . S
O663 C651 1.281 . S
O664 Mn648 2.297 . S
O664 C651 1.236 . S
N665 Mn649 2.282 . S
N665 C666 1.328 . S
N665 C670 1.318 . S
C666 N665 1.328 . S
C666 C667 1.457 . S
C666 H671 0.929 . S
C667 C666 1.457 . S
C667 C668 1.291 . S
C667 H680 0.931 . S
C668 C667 1.291 . S
C668 C669 1.373 . S
C668 H681 0.929 . S
C669 C668 1.373 . S
C669 C670 1.396 . S
C669 C676 1.403 . S
C670 C660 1.476 . S
C670 N665 1.318 . S
C670 C669 1.396 . S
H671 C666 0.929 . S
O672 Mn648 2.385 1_655 S
O672 C650 1.234 . S
O673 Mn648 2.209 1_655 S
O673 Mn649 2.215 . S
O673 C650 1.283 . S
O674 Mn648 2.094 . S
O674 C652 1.240 . S
O675 Mn649 2.117 . S
O675 C652 1.264 1_655 S
C676 C669 1.403 . S
C676 C677 1.399 . S
C676 H682 0.929 . S
C677 C657 1.449 . S
C677 C676 1.399 . S
C677 H683 0.930 . S
H678 C658 0.931 . S
H679 C659 0.930 . S
H680 C667 0.931 . S
H681 C668 0.929 . S
H682 C676 0.929 . S
H683 C677 0.930 . S
Mn684 O689 2.095 . S
Mn684 O699 2.162 . S
Mn684 O700 2.297 . S
Mn684 O708 2.385 . S
Mn684 O709 2.209 . S
Mn684 O710 2.094 . S
Mn685 O690 2.121 . S
Mn685 N692 2.257 . S
Mn685 N701 2.282 . S
Mn685 O709 2.215 . S
Mn685 O711 2.117 . S
C686 O708 1.234 . S
C686 O709 1.283 . S
C687 O699 1.281 . S
C687 O700 1.236 . S
C688 O710 1.240 . S
C688 O711 1.264 . S
O689 Mn684 2.095 . S
O689 C698 1.250 . S
O690 Mn685 2.121 . S
O690 C698 1.258 . S
C691 N692 1.326 . S
C691 C695 1.460 . S
C691 H697 0.929 . S
N692 Mn685 2.257 . S
N692 C691 1.326 . S
N692 C696 1.362 . S
C693 C694 1.258 . S
C693 C696 1.431 . S
C693 C713 1.449 . S
C694 C693 1.258 . S
C694 C695 1.477 . S
C694 H714 0.931 . S
C695 C691 1.460 . S
C695 C694 1.477 . S
C695 H715 0.930 . S
C696 N692 1.362 . S
C696 C693 1.431 . S
C696 C706 1.476 . S
H697 C691 0.929 . S
C698 O689 1.250 . S
C698 O690 1.258 . S
O699 Mn684 2.162 . S
O699 C687 1.281 . S
O700 Mn684 2.297 . S
O700 C687 1.236 . S
N701 Mn685 2.282 . S
N701 C702 1.328 . S
N701 C706 1.318 . S
C702 N701 1.328 . S
C702 C703 1.457 . S
C702 H707 0.929 . S
C703 C702 1.457 . S
C703 C704 1.291 . S
C703 H716 0.931 . S
C704 C703 1.291 . S
C704 C705 1.373 . S
C704 H717 0.929 . S
C705 C704 1.373 . S
C705 C706 1.396 . S
C705 C712 1.403 . S
C706 C696 1.476 . S
C706 N701 1.318 . S
C706 C705 1.396 . S
H707 C702 0.929 . S
O708 Mn684 2.385 . S
O708 C686 1.234 . S
O709 Mn684 2.209 . S
O709 Mn685 2.215 . S
O709 C686 1.283 . S
O710 Mn684 2.094 . S
O710 C688 1.240 . S
O711 Mn685 2.117 . S
O711 C688 1.264 . S
C712 C705 1.403 . S
C712 C713 1.399 . S
C712 H718 0.929 . S
C713 C693 1.449 . S
C713 C712 1.399 . S
C713 H719 0.930 . S
H714 C694 0.931 . S
H715 C695 0.930 . S
H716 C703 0.931 . S
H717 C704 0.929 . S
H718 C712 0.929 . S
H719 C713 0.930 . S
Mn720 O725 2.095 . S
Mn720 O735 2.162 . S
Mn720 O736 2.297 . S
Mn720 O744 2.385 . S
Mn720 O745 2.209 . S
Mn720 O746 2.094 . S
Mn721 O726 2.121 . S
Mn721 N728 2.257 . S
Mn721 N737 2.282 . S
Mn721 O745 2.215 1_545 S
Mn721 O747 2.117 1_545 S
C722 O744 1.234 . S
C722 O745 1.283 . S
C723 O735 1.281 . S
C723 O736 1.236 . S
C724 O746 1.240 . S
C724 O747 1.264 . S
O725 Mn720 2.095 . S
O725 C734 1.250 . S
O726 Mn721 2.121 . S
O726 C734 1.258 1_545 S
C727 N728 1.326 . S
C727 C731 1.460 . S
C727 H733 0.929 . S
N728 Mn721 2.257 . S
N728 C727 1.326 . S
N728 C732 1.362 . S
C729 C730 1.258 . S
C729 C732 1.431 . S
C729 C749 1.449 . S
C730 C729 1.258 . S
C730 C731 1.477 . S
C730 H750 0.931 . S
C731 C727 1.460 . S
C731 C730 1.477 . S
C731 H751 0.930 . S
C732 N728 1.362 . S
C732 C729 1.431 . S
C732 C742 1.476 . S
H733 C727 0.929 . S
C734 O725 1.250 . S
C734 O726 1.258 1_565 S
O735 Mn720 2.162 . S
O735 C723 1.281 . S
O736 Mn720 2.297 . S
O736 C723 1.236 . S
N737 Mn721 2.282 . S
N737 C738 1.328 . S
N737 C742 1.318 . S
C738 N737 1.328 . S
C738 C739 1.457 . S
C738 H743 0.929 . S
C739 C738 1.457 . S
C739 C740 1.291 . S
C739 H752 0.931 . S
C740 C739 1.291 . S
C740 C741 1.373 . S
C740 H753 0.929 . S
C741 C740 1.373 . S
C741 C742 1.396 . S
C741 C748 1.403 . S
C742 C732 1.476 . S
C742 N737 1.318 . S
C742 C741 1.396 . S
H743 C738 0.929 . S
O744 Mn720 2.385 . S
O744 C722 1.234 . S
O745 Mn720 2.209 . S
O745 Mn721 2.215 1_565 S
O745 C722 1.283 . S
O746 Mn720 2.094 . S
O746 C724 1.240 . S
O747 Mn721 2.117 1_565 S
O747 C724 1.264 . S
C748 C741 1.403 . S
C748 C749 1.399 . S
C748 H754 0.929 . S
C749 C729 1.449 . S
C749 C748 1.399 . S
C749 H755 0.930 . S
H750 C730 0.931 . S
H751 C731 0.930 . S
H752 C739 0.931 . S
H753 C740 0.929 . S
H754 C748 0.929 . S
H755 C749 0.930 . S
Mn756 O761 2.095 . S
Mn756 O771 2.162 . S
Mn756 O772 2.297 . S
Mn756 O780 2.385 . S
Mn756 O781 2.209 . S
Mn756 O782 2.094 . S
Mn757 O762 2.121 . S
Mn757 N764 2.257 . S
Mn757 N773 2.282 . S
Mn757 O781 2.215 . S
Mn757 O783 2.117 . S
C758 O780 1.234 . S
C758 O781 1.283 . S
C759 O771 1.281 . S
C759 O772 1.236 . S
C760 O782 1.240 . S
C760 O783 1.264 . S
O761 Mn756 2.095 . S
O761 C770 1.250 . S
O762 Mn757 2.121 . S
O762 C770 1.258 . S
C763 N764 1.326 . S
C763 C767 1.460 . S
C763 H769 0.929 . S
N764 Mn757 2.257 . S
N764 C763 1.326 . S
N764 C768 1.362 . S
C765 C766 1.258 . S
C765 C768 1.431 . S
C765 C785 1.449 . S
C766 C765 1.258 . S
C766 C767 1.477 . S
C766 H786 0.931 . S
C767 C763 1.460 . S
C767 C766 1.477 . S
C767 H787 0.930 . S
C768 N764 1.362 . S
C768 C765 1.431 . S
C768 C778 1.476 . S
H769 C763 0.929 . S
C770 O761 1.250 . S
C770 O762 1.258 . S
O771 Mn756 2.162 . S
O771 C759 1.281 . S
O772 Mn756 2.297 . S
O772 C759 1.236 . S
N773 Mn757 2.282 . S
N773 C774 1.328 . S
N773 C778 1.318 . S
C774 N773 1.328 . S
C774 C775 1.457 . S
C774 H779 0.929 . S
C775 C774 1.457 . S
C775 C776 1.291 . S
C775 H788 0.931 . S
C776 C775 1.291 . S
C776 C777 1.373 . S
C776 H789 0.929 . S
C777 C776 1.373 . S
C777 C778 1.396 . S
C777 C784 1.403 . S
C778 C768 1.476 . S
C778 N773 1.318 . S
C778 C777 1.396 . S
H779 C774 0.929 . S
O780 Mn756 2.385 . S
O780 C758 1.234 . S
O781 Mn756 2.209 . S
O781 Mn757 2.215 . S
O781 C758 1.283 . S
O782 Mn756 2.094 . S
O782 C760 1.240 . S
O783 Mn757 2.117 . S
O783 C760 1.264 . S
C784 C777 1.403 . S
C784 C785 1.399 . S
C784 H790 0.929 . S
C785 C765 1.449 . S
C785 C784 1.399 . S
C785 H791 0.930 . S
H786 C766 0.931 . S
H787 C767 0.930 . S
H788 C775 0.931 . S
H789 C776 0.929 . S
H790 C784 0.929 . S
H791 C785 0.930 . S
Mn792 O797 2.095 . S
Mn792 O807 2.162 . S
Mn792 O808 2.297 . S
Mn792 O816 2.385 . S
Mn792 O817 2.209 . S
Mn792 O818 2.094 . S
Mn793 O798 2.121 . S
Mn793 N800 2.257 . S
Mn793 N809 2.282 . S
Mn793 O817 2.215 . S
Mn793 O819 2.117 . S
C794 O816 1.234 . S
C794 O817 1.283 . S
C795 O807 1.281 . S
C795 O808 1.236 . S
C796 O818 1.240 . S
C796 O819 1.264 . S
O797 Mn792 2.095 . S
O797 C806 1.250 . S
O798 Mn793 2.121 . S
O798 C806 1.258 . S
C799 N800 1.326 . S
C799 C803 1.460 . S
C799 H805 0.929 . S
N800 Mn793 2.257 . S
N800 C799 1.326 . S
N800 C804 1.362 . S
C801 C802 1.258 . S
C801 C804 1.431 . S
C801 C821 1.449 . S
C802 C801 1.258 . S
C802 C803 1.477 . S
C802 H822 0.931 . S
C803 C799 1.460 . S
C803 C802 1.477 . S
C803 H823 0.930 . S
C804 N800 1.362 . S
C804 C801 1.431 . S
C804 C814 1.476 . S
H805 C799 0.929 . S
C806 O797 1.250 . S
C806 O798 1.258 . S
O807 Mn792 2.162 . S
O807 C795 1.281 . S
O808 Mn792 2.297 . S
O808 C795 1.236 . S
N809 Mn793 2.282 . S
N809 C810 1.328 . S
N809 C814 1.318 . S
C810 N809 1.328 . S
C810 C811 1.457 . S
C810 H815 0.929 . S
C811 C810 1.457 . S
C811 C812 1.291 . S
C811 H824 0.931 . S
C812 C811 1.291 . S
C812 C813 1.373 . S
C812 H825 0.929 . S
C813 C812 1.373 . S
C813 C814 1.396 . S
C813 C820 1.403 . S
C814 C804 1.476 . S
C814 N809 1.318 . S
C814 C813 1.396 . S
H815 C810 0.929 . S
O816 Mn792 2.385 . S
O816 C794 1.234 . S
O817 Mn792 2.209 . S
O817 Mn793 2.215 . S
O817 C794 1.283 . S
O818 Mn792 2.094 . S
O818 C796 1.240 . S
O819 Mn793 2.117 . S
O819 C796 1.264 . S
C820 C813 1.403 . S
C820 C821 1.399 . S
C820 H826 0.929 . S
C821 C801 1.449 . S
C821 C820 1.399 . S
C821 H827 0.930 . S
H822 C802 0.931 . S
H823 C803 0.930 . S
H824 C811 0.931 . S
H825 C812 0.929 . S
H826 C820 0.929 . S
H827 C821 0.930 . S
Mn828 O833 2.095 . S
Mn828 O843 2.162 . S
Mn828 O844 2.297 . S
Mn828 O852 2.385 . S
Mn828 O853 2.209 . S
Mn828 O854 2.094 . S
Mn829 O834 2.121 . S
Mn829 N836 2.257 . S
Mn829 N845 2.282 . S
Mn829 O853 2.215 . S
Mn829 O855 2.117 . S
C830 O852 1.234 . S
C830 O853 1.283 . S
C831 O843 1.281 . S
C831 O844 1.236 . S
C832 O854 1.240 . S
C832 O855 1.264 . S
O833 Mn828 2.095 . S
O833 C842 1.250 . S
O834 Mn829 2.121 . S
O834 C842 1.258 . S
C835 N836 1.326 . S
C835 C839 1.460 . S
C835 H841 0.929 . S
N836 Mn829 2.257 . S
N836 C835 1.326 . S
N836 C840 1.362 . S
C837 C838 1.258 . S
C837 C840 1.431 . S
C837 C857 1.449 . S
C838 C837 1.258 . S
C838 C839 1.477 . S
C838 H858 0.931 . S
C839 C835 1.460 . S
C839 C838 1.477 . S
C839 H859 0.930 . S
C840 N836 1.362 . S
C840 C837 1.431 . S
C840 C850 1.476 . S
H841 C835 0.929 . S
C842 O833 1.250 . S
C842 O834 1.258 . S
O843 Mn828 2.162 . S
O843 C831 1.281 . S
O844 Mn828 2.297 . S
O844 C831 1.236 . S
N845 Mn829 2.282 . S
N845 C846 1.328 . S
N845 C850 1.318 . S
C846 N845 1.328 . S
C846 C847 1.457 . S
C846 H851 0.929 . S
C847 C846 1.457 . S
C847 C848 1.291 . S
C847 H860 0.931 . S
C848 C847 1.291 . S
C848 C849 1.373 . S
C848 H861 0.929 . S
C849 C848 1.373 . S
C849 C850 1.396 . S
C849 C856 1.403 . S
C850 C840 1.476 . S
C850 N845 1.318 . S
C850 C849 1.396 . S
H851 C846 0.929 . S
O852 Mn828 2.385 . S
O852 C830 1.234 . S
O853 Mn828 2.209 . S
O853 Mn829 2.215 . S
O853 C830 1.283 . S
O854 Mn828 2.094 . S
O854 C832 1.240 . S
O855 Mn829 2.117 . S
O855 C832 1.264 . S
C856 C849 1.403 . S
C856 C857 1.399 . S
C856 H862 0.929 . S
C857 C837 1.449 . S
C857 C856 1.399 . S
C857 H863 0.930 . S
H858 C838 0.931 . S
H859 C839 0.930 . S
H860 C847 0.931 . S
H861 C848 0.929 . S
H862 C856 0.929 . S
H863 C857 0.930 . S
Mn864 O869 2.095 . S
Mn864 O879 2.162 . S
Mn864 O880 2.297 . S
Mn864 O888 2.385 . S
Mn864 O889 2.209 . S
Mn864 O890 2.094 . S
Mn865 O870 2.121 . S
Mn865 N872 2.257 . S
Mn865 N881 2.282 . S
Mn865 O889 2.215 . S
Mn865 O891 2.117 . S
C866 O888 1.234 . S
C866 O889 1.283 . S
C867 O879 1.281 . S
C867 O880 1.236 . S
C868 O890 1.240 . S
C868 O891 1.264 . S
O869 Mn864 2.095 . S
O869 C878 1.250 . S
O870 Mn865 2.121 . S
O870 C878 1.258 . S
C871 N872 1.326 . S
C871 C875 1.460 . S
C871 H877 0.929 . S
N872 Mn865 2.257 . S
N872 C871 1.326 . S
N872 C876 1.362 . S
C873 C874 1.258 . S
C873 C876 1.431 . S
C873 C893 1.449 . S
C874 C873 1.258 . S
C874 C875 1.477 . S
C874 H894 0.931 . S
C875 C871 1.460 . S
C875 C874 1.477 . S
C875 H895 0.930 . S
C876 N872 1.362 . S
C876 C873 1.431 . S
C876 C886 1.476 . S
H877 C871 0.929 . S
C878 O869 1.250 . S
C878 O870 1.258 . S
O879 Mn864 2.162 . S
O879 C867 1.281 . S
O880 Mn864 2.297 . S
O880 C867 1.236 . S
N881 Mn865 2.282 . S
N881 C882 1.328 . S
N881 C886 1.318 . S
C882 N881 1.328 . S
C882 C883 1.457 . S
C882 H887 0.929 . S
C883 C882 1.457 . S
C883 C884 1.291 . S
C883 H896 0.931 . S
C884 C883 1.291 . S
C884 C885 1.373 . S
C884 H897 0.929 . S
C885 C884 1.373 . S
C885 C886 1.396 . S
C885 C892 1.403 . S
C886 C876 1.476 . S
C886 N881 1.318 . S
C886 C885 1.396 . S
H887 C882 0.929 . S
O888 Mn864 2.385 . S
O888 C866 1.234 . S
O889 Mn864 2.209 . S
O889 Mn865 2.215 . S
O889 C866 1.283 . S
O890 Mn864 2.094 . S
O890 C868 1.240 . S
O891 Mn865 2.117 . S
O891 C868 1.264 . S
C892 C885 1.403 . S
C892 C893 1.399 . S
C892 H898 0.929 . S
C893 C873 1.449 . S
C893 C892 1.399 . S
C893 H899 0.930 . S
H894 C874 0.931 . S
H895 C875 0.930 . S
H896 C883 0.931 . S
H897 C884 0.929 . S
H898 C892 0.929 . S
H899 C893 0.930 . S
Mn900 O905 2.095 . S
Mn900 O915 2.162 . S
Mn900 O916 2.297 . S
Mn900 O924 2.385 . S
Mn900 O925 2.209 . S
Mn900 O926 2.094 . S
Mn901 O906 2.121 . S
Mn901 N908 2.257 . S
Mn901 N917 2.282 . S
Mn901 O925 2.215 . S
Mn901 O927 2.117 . S
C902 O924 1.234 . S
C902 O925 1.283 . S
C903 O915 1.281 . S
C903 O916 1.236 . S
C904 O926 1.240 . S
C904 O927 1.264 . S
O905 Mn900 2.095 . S
O905 C914 1.250 . S
O906 Mn901 2.121 . S
O906 C914 1.258 . S
C907 N908 1.326 . S
C907 C911 1.460 . S
C907 H913 0.929 . S
N908 Mn901 2.257 . S
N908 C907 1.326 . S
N908 C912 1.362 . S
C909 C910 1.258 . S
C909 C912 1.431 . S
C909 C929 1.449 . S
C910 C909 1.258 . S
C910 C911 1.477 . S
C910 H930 0.931 . S
C911 C907 1.460 . S
C911 C910 1.477 . S
C911 H931 0.930 . S
C912 N908 1.362 . S
C912 C909 1.431 . S
C912 C922 1.476 . S
H913 C907 0.929 . S
C914 O905 1.250 . S
C914 O906 1.258 . S
O915 Mn900 2.162 . S
O915 C903 1.281 . S
O916 Mn900 2.297 . S
O916 C903 1.236 . S
N917 Mn901 2.282 . S
N917 C918 1.328 . S
N917 C922 1.318 . S
C918 N917 1.328 . S
C918 C919 1.457 . S
C918 H923 0.929 . S
C919 C918 1.457 . S
C919 C920 1.291 . S
C919 H932 0.931 . S
C920 C919 1.291 . S
C920 C921 1.373 . S
C920 H933 0.929 . S
C921 C920 1.373 . S
C921 C922 1.396 . S
C921 C928 1.403 . S
C922 C912 1.476 . S
C922 N917 1.318 . S
C922 C921 1.396 . S
H923 C918 0.929 . S
O924 Mn900 2.385 . S
O924 C902 1.234 . S
O925 Mn900 2.209 . S
O925 Mn901 2.215 . S
O925 C902 1.283 . S
O926 Mn900 2.094 . S
O926 C904 1.240 . S
O927 Mn901 2.117 . S
O927 C904 1.264 . S
C928 C921 1.403 . S
C928 C929 1.399 . S
C928 H934 0.929 . S
C929 C909 1.449 . S
C929 C928 1.399 . S
C929 H935 0.930 . S
H930 C910 0.931 . S
H931 C911 0.930 . S
H932 C919 0.931 . S
H933 C920 0.929 . S
H934 C928 0.929 . S
H935 C929 0.930 . S
Mn936 O941 2.090 1_655 S
Mn936 O951 2.162 . S
Mn936 O952 2.297 1_655 S
Mn936 O960 2.382 1_655 S
Mn936 O961 2.209 1_655 S
Mn936 O962 2.094 . S
Mn937 O942 2.121 . S
Mn937 N944 2.257 . S
Mn937 N953 2.282 . S
Mn937 O961 2.215 . S
Mn937 O963 2.117 1_455 S
C938 O960 1.250 . S
C938 O961 1.283 . S
C939 O951 1.281 1_455 S
C939 O952 1.236 . S
C940 O962 1.240 . S
C940 O963 1.264 . S
O941 Mn936 2.090 1_455 S
O941 C950 1.273 . S
O942 Mn937 2.121 . S
O942 C950 1.258 . S
C943 N944 1.326 . S
C943 C947 1.460 . S
C943 H949 0.929 . S
N944 Mn937 2.257 . S
N944 C943 1.326 . S
N944 C948 1.362 . S
C945 C946 1.258 . S
C945 C948 1.431 . S
C945 C965 1.449 . S
C946 C945 1.258 . S
C946 C947 1.477 . S
C946 H966 0.931 . S
C947 C943 1.460 . S
C947 C946 1.477 . S
C947 H967 0.930 . S
C948 N944 1.362 . S
C948 C945 1.431 . S
C948 C958 1.476 . S
H949 C943 0.929 . S
C950 O941 1.273 . S
C950 O942 1.258 . S
O951 Mn936 2.162 . S
O951 C939 1.281 1_655 S
O952 Mn936 2.297 1_455 S
O952 C939 1.236 . S
N953 Mn937 2.282 . S
N953 C954 1.328 1_455 S
N953 C958 1.318 . S
C954 N953 1.328 1_655 S
C954 C955 1.457 . S
C954 H959 0.929 . S
C955 C954 1.457 . S
C955 C956 1.291 1_655 S
C955 H968 0.931 . S
C956 C955 1.291 1_455 S
C956 C957 1.373 . S
C956 H969 0.929 . S
C957 C956 1.373 . S
C957 C958 1.396 . S
C957 C964 1.403 . S
C958 C948 1.476 . S
C958 N953 1.318 . S
C958 C957 1.396 . S
H959 C954 0.929 . S
O960 Mn936 2.382 1_455 S
O960 C938 1.250 . S
O961 Mn936 2.209 1_455 S
O961 Mn937 2.215 . S
O961 C938 1.283 . S
O962 Mn936 2.094 . S
O962 C940 1.240 . S
O963 Mn937 2.117 1_655 S
O963 C940 1.264 . S
C964 C957 1.403 . S
C964 C965 1.399 . S
C964 H970 0.929 . S
C965 C945 1.449 . S
C965 C964 1.399 . S
C965 H971 0.930 . S
H966 C946 0.931 . S
H967 C947 0.930 . S
H968 C955 0.931 . S
H969 C956 0.929 . S
H970 C964 0.929 . S
H971 C965 0.930 . S
Mn972 O977 2.095 1_455 S
Mn972 O987 2.162 . S
Mn972 O988 2.297 . S
Mn972 O996 2.385 . S
Mn972 O997 2.209 . S
Mn972 O998 2.094 . S
Mn973 O978 2.121 1_455 S
Mn973 N980 2.253 1_455 S
Mn973 N989 2.282 . S
Mn973 O997 2.215 . S
Mn973 O999 2.117 . S
C974 O996 1.234 . S
C974 O997 1.283 . S
C975 O987 1.281 . S
C975 O988 1.236 . S
C976 O998 1.240 . S
C976 O999 1.264 . S
O977 Mn972 2.095 1_655 S
O977 C986 1.250 . S
O978 Mn973 2.121 1_655 S
O978 C986 1.258 . S
C979 N980 1.359 . S
C979 C983 1.460 . S
C979 H985 0.929 . S
N980 Mn973 2.253 1_655 S
N980 C979 1.359 . S
N980 C984 1.336 1_655 S
C981 C982 1.258 1_455 S
C981 C984 1.431 . S
C981 C1001 1.449 . S
C982 C981 1.258 1_655 S
C982 C983 1.477 . S
C982 H1002 0.931 . S
C983 C979 1.460 . S
C983 C982 1.477 . S
C983 H1003 0.930 . S
C984 N980 1.336 1_455 S
C984 C981 1.431 . S
C984 C994 1.476 . S
H985 C979 0.929 . S
C986 O977 1.250 . S
C986 O978 1.258 . S
O987 Mn972 2.162 . S
O987 C975 1.281 . S
O988 Mn972 2.297 . S
O988 C975 1.236 . S
N989 Mn973 2.282 . S
N989 C990 1.328 . S
N989 C994 1.318 . S
C990 N989 1.328 . S
C990 C991 1.457 . S
C990 H995 0.929 . S
C991 C990 1.457 . S
C991 C992 1.291 . S
C991 H1004 0.931 . S
C992 C991 1.291 . S
C992 C993 1.373 . S
C992 H1005 0.929 . S
C993 C992 1.373 . S
C993 C994 1.396 . S
C993 C1000 1.403 . S
C994 C984 1.476 . S
C994 N989 1.318 . S
C994 C993 1.396 . S
H995 C990 0.929 . S
O996 Mn972 2.385 . S
O996 C974 1.234 . S
O997 Mn972 2.209 . S
O997 Mn973 2.215 . S
O997 C974 1.283 . S
O998 Mn972 2.094 . S
O998 C976 1.240 . S
O999 Mn973 2.117 . S
O999 C976 1.264 . S
C1000 C993 1.403 . S
C1000 C1001 1.399 . S
C1000 H1006 0.929 . S
C1001 C981 1.449 . S
C1001 C1000 1.399 . S
C1001 H1007 0.930 . S
H1002 C982 0.931 . S
H1003 C983 0.930 . S
H1004 C991 0.931 . S
H1005 C992 0.929 . S
H1006 C1000 0.929 . S
H1007 C1001 0.930 . S
Mn1008 O1013 2.095 . S
Mn1008 O1023 2.162 . S
Mn1008 O1024 2.297 . S
Mn1008 O1032 2.385 . S
Mn1008 O1033 2.209 . S
Mn1008 O1034 2.094 . S
Mn1009 O1014 2.121 . S
Mn1009 N1016 2.257 . S
Mn1009 N1025 2.282 . S
Mn1009 O1033 2.215 . S
Mn1009 O1035 2.117 . S
C1010 O1032 1.234 . S
C1010 O1033 1.283 . S
C1011 O1023 1.281 . S
C1011 O1024 1.236 . S
C1012 O1034 1.240 . S
C1012 O1035 1.264 . S
O1013 Mn1008 2.095 . S
O1013 C1022 1.250 . S
O1014 Mn1009 2.121 . S
O1014 C1022 1.258 . S
C1015 N1016 1.326 . S
C1015 C1019 1.460 . S
C1015 H1021 0.929 . S
N1016 Mn1009 2.257 . S
N1016 C1015 1.326 . S
N1016 C1020 1.362 . S
C1017 C1018 1.258 . S
C1017 C1020 1.431 . S
C1017 C1037 1.449 . S
C1018 C1017 1.258 . S
C1018 C1019 1.477 . S
C1018 H1038 0.931 . S
C1019 C1015 1.460 . S
C1019 C1018 1.477 . S
C1019 H1039 0.930 . S
C1020 N1016 1.362 . S
C1020 C1017 1.431 . S
C1020 C1030 1.476 . S
H1021 C1015 0.929 . S
C1022 O1013 1.250 . S
C1022 O1014 1.258 . S
O1023 Mn1008 2.162 . S
O1023 C1011 1.281 . S
O1024 Mn1008 2.297 . S
O1024 C1011 1.236 . S
N1025 Mn1009 2.282 . S
N1025 C1026 1.328 . S
N1025 C1030 1.318 . S
C1026 N1025 1.328 . S
C1026 C1027 1.457 . S
C1026 H1031 0.929 . S
C1027 C1026 1.457 . S
C1027 C1028 1.291 . S
C1027 H1040 0.931 . S
C1028 C1027 1.291 . S
C1028 C1029 1.373 . S
C1028 H1041 0.929 . S
C1029 C1028 1.373 . S
C1029 C1030 1.396 . S
C1029 C1036 1.403 . S
C1030 C1020 1.476 . S
C1030 N1025 1.318 . S
C1030 C1029 1.396 . S
H1031 C1026 0.929 . S
O1032 Mn1008 2.385 . S
O1032 C1010 1.234 . S
O1033 Mn1008 2.209 . S
O1033 Mn1009 2.215 . S
O1033 C1010 1.283 . S
O1034 Mn1008 2.094 . S
O1034 C1012 1.240 . S
O1035 Mn1009 2.117 . S
O1035 C1012 1.264 . S
C1036 C1029 1.403 . S
C1036 C1037 1.399 . S
C1036 H1042 0.929 . S
C1037 C1017 1.449 . S
C1037 C1036 1.399 . S
C1037 H1043 0.930 . S
H1038 C1018 0.931 . S
H1039 C1019 0.930 . S
H1040 C1027 0.931 . S
H1041 C1028 0.929 . S
H1042 C1036 0.929 . S
H1043 C1037 0.930 . S
Mn1044 O1049 2.095 . S
Mn1044 O1059 2.162 . S
Mn1044 O1060 2.297 . S
Mn1044 O1068 2.385 . S
Mn1044 O1069 2.209 . S
Mn1044 O1070 2.094 . S
Mn1045 O1050 2.121 . S
Mn1045 N1052 2.257 1_455 S
Mn1045 N1061 2.282 . S
Mn1045 O1069 2.215 . S
Mn1045 O1071 2.117 . S
C1046 O1068 1.234 . S
C1046 O1069 1.283 . S
C1047 O1059 1.281 . S
C1047 O1060 1.236 . S
C1048 O1070 1.240 . S
C1048 O1071 1.264 . S
O1049 Mn1044 2.095 . S
O1049 C1058 1.250 . S
O1050 Mn1045 2.121 . S
O1050 C1058 1.258 . S
C1051 N1052 1.326 . S
C1051 C1055 1.460 . S
C1051 H1057 0.929 . S
N1052 Mn1045 2.257 1_655 S
N1052 C1051 1.326 . S
N1052 C1056 1.362 . S
C1053 C1054 1.258 . S
C1053 C1056 1.431 . S
C1053 C1073 1.449 . S
C1054 C1053 1.258 . S
C1054 C1055 1.477 . S
C1054 H1074 0.931 . S
C1055 C1051 1.460 . S
C1055 C1054 1.477 . S
C1055 H1075 0.930 . S
C1056 N1052 1.362 . S
C1056 C1053 1.431 . S
C1056 C1066 1.476 . S
H1057 C1051 0.929 . S
C1058 O1049 1.250 . S
C1058 O1050 1.258 . S
O1059 Mn1044 2.162 . S
O1059 C1047 1.281 . S
O1060 Mn1044 2.297 . S
O1060 C1047 1.236 . S
N1061 Mn1045 2.282 . S
N1061 C1062 1.328 . S
N1061 C1066 1.318 1_455 S
C1062 N1061 1.328 . S
C1062 C1063 1.457 . S
C1062 H1067 0.929 . S
C1063 C1062 1.457 . S
C1063 C1064 1.291 . S
C1063 H1076 0.931 . S
C1064 C1063 1.291 . S
C1064 C1065 1.373 1_455 S
C1064 H1077 0.929 . S
C1065 C1064 1.373 1_655 S
C1065 C1066 1.396 . S
C1065 C1072 1.403 . S
C1066 C1056 1.476 . S
C1066 N1061 1.318 1_655 S
C1066 C1065 1.396 . S
H1067 C1062 0.929 . S
O1068 Mn1044 2.385 . S
O1068 C1046 1.234 . S
O1069 Mn1044 2.209 . S
O1069 Mn1045 2.215 . S
O1069 C1046 1.283 . S
O1070 Mn1044 2.094 . S
O1070 C1048 1.240 . S
O1071 Mn1045 2.117 . S
O1071 C1048 1.264 . S
C1072 C1065 1.403 . S
C1072 C1073 1.399 . S
C1072 H1078 0.929 . S
C1073 C1053 1.449 . S
C1073 C1072 1.399 . S
C1073 H1079 0.930 . S
H1074 C1054 0.931 . S
H1075 C1055 0.930 . S
H1076 C1063 0.931 . S
H1077 C1064 0.929 . S
H1078 C1072 0.929 . S
H1079 C1073 0.930 . S
Mn1080 O1085 2.095 . S
Mn1080 O1095 2.162 . S
Mn1080 O1096 2.297 . S
Mn1080 O1104 2.385 . S
Mn1080 O1105 2.209 . S
Mn1080 O1106 2.094 . S
Mn1081 O1086 2.121 . S
Mn1081 N1088 2.257 . S
Mn1081 N1097 2.282 . S
Mn1081 O1105 2.215 . S
Mn1081 O1107 2.117 . S
C1082 O1104 1.234 . S
C1082 O1105 1.283 . S
C1083 O1095 1.281 . S
C1083 O1096 1.236 . S
C1084 O1106 1.240 . S
C1084 O1107 1.264 . S
O1085 Mn1080 2.095 . S
O1085 C1094 1.250 . S
O1086 Mn1081 2.121 . S
O1086 C1094 1.258 . S
C1087 N1088 1.326 . S
C1087 C1091 1.460 . S
C1087 H1093 0.929 . S
N1088 Mn1081 2.257 . S
N1088 C1087 1.326 . S
N1088 C1092 1.362 . S
C1089 C1090 1.258 . S
C1089 C1092 1.431 . S
C1089 C1109 1.449 . S
C1090 C1089 1.258 . S
C1090 C1091 1.477 . S
C1090 H1110 0.931 . S
C1091 C1087 1.460 . S
C1091 C1090 1.477 . S
C1091 H1111 0.930 . S
C1092 N1088 1.362 . S
C1092 C1089 1.431 . S
C1092 C1102 1.476 . S
H1093 C1087 0.929 . S
C1094 O1085 1.250 . S
C1094 O1086 1.258 . S
O1095 Mn1080 2.162 . S
O1095 C1083 1.281 . S
O1096 Mn1080 2.297 . S
O1096 C1083 1.236 . S
N1097 Mn1081 2.282 . S
N1097 C1098 1.328 . S
N1097 C1102 1.318 . S
C1098 N1097 1.328 . S
C1098 C1099 1.457 . S
C1098 H1103 0.929 . S
C1099 C1098 1.457 . S
C1099 C1100 1.291 . S
C1099 H1112 0.931 . S
C1100 C1099 1.291 . S
C1100 C1101 1.373 . S
C1100 H1113 0.929 . S
C1101 C1100 1.373 . S
C1101 C1102 1.396 . S
C1101 C1108 1.403 . S
C1102 C1092 1.476 . S
C1102 N1097 1.318 . S
C1102 C1101 1.396 . S
H1103 C1098 0.929 . S
O1104 Mn1080 2.385 . S
O1104 C1082 1.234 . S
O1105 Mn1080 2.209 . S
O1105 Mn1081 2.215 . S
O1105 C1082 1.283 . S
O1106 Mn1080 2.094 . S
O1106 C1084 1.240 . S
O1107 Mn1081 2.117 . S
O1107 C1084 1.264 . S
C1108 C1101 1.403 . S
C1108 C1109 1.399 . S
C1108 H1114 0.929 . S
C1109 C1089 1.449 . S
C1109 C1108 1.399 . S
C1109 H1115 0.930 . S
H1110 C1090 0.931 . S
H1111 C1091 0.930 . S
H1112 C1099 0.931 . S
H1113 C1100 0.929 . S
H1114 C1108 0.929 . S
H1115 C1109 0.930 . S
Mn1116 O1121 2.095 . S
Mn1116 O1131 2.162 . S
Mn1116 O1132 2.297 . S
Mn1116 O1140 2.385 . S
Mn1116 O1141 2.209 . S
Mn1116 O1142 2.094 . S
Mn1117 O1122 2.121 . S
Mn1117 N1124 2.257 . S
Mn1117 N1133 2.282 . S
Mn1117 O1141 2.215 . S
Mn1117 O1143 2.117 . S
C1118 O1140 1.234 . S
C1118 O1141 1.283 . S
C1119 O1131 1.281 . S
C1119 O1132 1.236 . S
C1120 O1142 1.240 . S
C1120 O1143 1.264 . S
O1121 Mn1116 2.095 . S
O1121 C1130 1.250 . S
O1122 Mn1117 2.121 . S
O1122 C1130 1.258 . S
C1123 N1124 1.326 . S
C1123 C1127 1.460 . S
C1123 H1129 0.929 . S
N1124 Mn1117 2.257 . S
N1124 C1123 1.326 . S
N1124 C1128 1.362 . S
C1125 C1126 1.258 . S
C1125 C1128 1.431 . S
C1125 C1145 1.449 . S
C1126 C1125 1.258 . S
C1126 C1127 1.477 . S
C1126 H1146 0.931 . S
C1127 C1123 1.460 . S
C1127 C1126 1.477 . S
C1127 H1147 0.930 . S
C1128 N1124 1.362 . S
C1128 C1125 1.431 . S
C1128 C1138 1.476 . S
H1129 C1123 0.929 . S
C1130 O1121 1.250 . S
C1130 O1122 1.258 . S
O1131 Mn1116 2.162 . S
O1131 C1119 1.281 . S
O1132 Mn1116 2.297 . S
O1132 C1119 1.236 . S
N1133 Mn1117 2.282 . S
N1133 C1134 1.328 . S
N1133 C1138 1.318 . S
C1134 N1133 1.328 . S
C1134 C1135 1.457 . S
C1134 H1139 0.929 . S
C1135 C1134 1.457 . S
C1135 C1136 1.291 . S
C1135 H1148 0.931 . S
C1136 C1135 1.291 . S
C1136 C1137 1.373 . S
C1136 H1149 0.929 . S
C1137 C1136 1.373 . S
C1137 C1138 1.396 . S
C1137 C1144 1.403 . S
C1138 C1128 1.476 . S
C1138 N1133 1.318 . S
C1138 C1137 1.396 . S
H1139 C1134 0.929 . S
O1140 Mn1116 2.385 . S
O1140 C1118 1.234 . S
O1141 Mn1116 2.209 . S
O1141 Mn1117 2.215 . S
O1141 C1118 1.283 . S
O1142 Mn1116 2.094 . S
O1142 C1120 1.240 . S
O1143 Mn1117 2.117 . S
O1143 C1120 1.264 . S
C1144 C1137 1.403 . S
C1144 C1145 1.399 . S
C1144 H1150 0.929 . S
C1145 C1125 1.449 . S
C1145 C1144 1.399 . S
C1145 H1151 0.930 . S
H1146 C1126 0.931 . S
H1147 C1127 0.930 . S
H1148 C1135 0.931 . S
H1149 C1136 0.929 . S
H1150 C1144 0.929 . S
H1151 C1145 0.930 . S
Mn1152 O1157 2.095 . S
Mn1152 O1167 2.162 . S
Mn1152 O1168 2.297 . S
Mn1152 O1176 2.385 . S
Mn1152 O1177 2.209 . S
Mn1152 O1178 2.094 . S
Mn1153 O1158 2.121 . S
Mn1153 N1160 2.257 . S
Mn1153 N1169 2.282 . S
Mn1153 O1177 2.215 . S
Mn1153 O1179 2.117 . S
C1154 O1176 1.234 . S
C1154 O1177 1.283 . S
C1155 O1167 1.281 . S
C1155 O1168 1.236 . S
C1156 O1178 1.240 . S
C1156 O1179 1.264 . S
O1157 Mn1152 2.095 . S
O1157 C1166 1.250 . S
O1158 Mn1153 2.121 . S
O1158 C1166 1.258 . S
C1159 N1160 1.326 . S
C1159 C1163 1.460 . S
C1159 H1165 0.929 . S
N1160 Mn1153 2.257 . S
N1160 C1159 1.326 . S
N1160 C1164 1.362 . S
C1161 C1162 1.258 . S
C1161 C1164 1.431 . S
C1161 C1181 1.449 . S
C1162 C1161 1.258 . S
C1162 C1163 1.477 . S
C1162 H1182 0.931 . S
C1163 C1159 1.460 . S
C1163 C1162 1.477 . S
C1163 H1183 0.930 . S
C1164 N1160 1.362 . S
C1164 C1161 1.431 . S
C1164 C1174 1.476 . S
H1165 C1159 0.929 . S
C1166 O1157 1.250 . S
C1166 O1158 1.258 . S
O1167 Mn1152 2.162 . S
O1167 C1155 1.281 . S
O1168 Mn1152 2.297 . S
O1168 C1155 1.236 . S
N1169 Mn1153 2.282 . S
N1169 C1170 1.328 . S
N1169 C1174 1.318 . S
C1170 N1169 1.328 . S
C1170 C1171 1.457 . S
C1170 H1175 0.929 . S
C1171 C1170 1.457 . S
C1171 C1172 1.291 . S
C1171 H1184 0.931 . S
C1172 C1171 1.291 . S
C1172 C1173 1.373 . S
C1172 H1185 0.929 . S
C1173 C1172 1.373 . S
C1173 C1174 1.396 . S
C1173 C1180 1.403 . S
C1174 C1164 1.476 . S
C1174 N1169 1.318 . S
C1174 C1173 1.396 . S
H1175 C1170 0.929 . S
O1176 Mn1152 2.385 . S
O1176 C1154 1.234 . S
O1177 Mn1152 2.209 . S
O1177 Mn1153 2.215 . S
O1177 C1154 1.283 . S
O1178 Mn1152 2.094 . S
O1178 C1156 1.240 . S
O1179 Mn1153 2.117 . S
O1179 C1156 1.264 . S
C1180 C1173 1.403 . S
C1180 C1181 1.399 . S
C1180 H1186 0.929 . S
C1181 C1161 1.449 . S
C1181 C1180 1.399 . S
C1181 H1187 0.930 . S
H1182 C1162 0.931 . S
H1183 C1163 0.930 . S
H1184 C1171 0.931 . S
H1185 C1172 0.929 . S
H1186 C1180 0.929 . S
H1187 C1181 0.930 . S
Mn1188 O1193 2.095 1_554 S
Mn1188 O1203 2.162 . S
Mn1188 O1204 2.297 . S
Mn1188 O1212 2.385 . S
Mn1188 O1213 2.209 . S
Mn1188 O1214 2.094 . S
Mn1189 O1194 2.121 1_554 S
Mn1189 N1196 2.253 1_554 S
Mn1189 N1205 2.282 . S
Mn1189 O1213 2.215 . S
Mn1189 O1215 2.117 . S
C1190 O1212 1.234 . S
C1190 O1213 1.283 . S
C1191 O1203 1.281 . S
C1191 O1204 1.236 . S
C1192 O1214 1.240 . S
C1192 O1215 1.264 . S
O1193 Mn1188 2.095 1_556 S
O1193 C1202 1.250 . S
O1194 Mn1189 2.121 1_556 S
O1194 C1202 1.258 . S
C1195 N1196 1.359 . S
C1195 C1199 1.460 . S
C1195 H1201 0.929 . S
N1196 Mn1189 2.253 1_556 S
N1196 C1195 1.359 . S
N1196 C1200 1.336 1_556 S
C1197 C1198 1.258 1_554 S
C1197 C1200 1.431 . S
C1197 C1217 1.449 . S
C1198 C1197 1.258 1_556 S
C1198 C1199 1.477 . S
C1198 H1218 0.931 . S
C1199 C1195 1.460 . S
C1199 C1198 1.477 . S
C1199 H1219 0.930 . S
C1200 N1196 1.336 1_554 S
C1200 C1197 1.431 . S
C1200 C1210 1.476 . S
H1201 C1195 0.929 . S
C1202 O1193 1.250 . S
C1202 O1194 1.258 . S
O1203 Mn1188 2.162 . S
O1203 C1191 1.281 . S
O1204 Mn1188 2.297 . S
O1204 C1191 1.236 . S
N1205 Mn1189 2.282 . S
N1205 C1206 1.328 . S
N1205 C1210 1.318 . S
C1206 N1205 1.328 . S
C1206 C1207 1.457 . S
C1206 H1211 0.929 . S
C1207 C1206 1.457 . S
C1207 C1208 1.291 . S
C1207 H1220 0.931 . S
C1208 C1207 1.291 . S
C1208 C1209 1.373 . S
C1208 H1221 0.929 . S
C1209 C1208 1.373 . S
C1209 C1210 1.396 . S
C1209 C1216 1.403 . S
C1210 C1200 1.476 . S
C1210 N1205 1.318 . S
C1210 C1209 1.396 . S
H1211 C1206 0.929 . S
O1212 Mn1188 2.385 . S
O1212 C1190 1.234 . S
O1213 Mn1188 2.209 . S
O1213 Mn1189 2.215 . S
O1213 C1190 1.283 . S
O1214 Mn1188 2.094 . S
O1214 C1192 1.240 . S
O1215 Mn1189 2.117 . S
O1215 C1192 1.264 . S
C1216 C1209 1.403 . S
C1216 C1217 1.399 . S
C1216 H1222 0.929 . S
C1217 C1197 1.449 . S
C1217 C1216 1.399 . S
C1217 H1223 0.930 . S
H1218 C1198 0.931 . S
H1219 C1199 0.930 . S
H1220 C1207 0.931 . S
H1221 C1208 0.929 . S
H1222 C1216 0.929 . S
H1223 C1217 0.930 . S
Mn1224 O1229 2.095 . S
Mn1224 O1239 2.162 . S
Mn1224 O1240 2.297 . S
Mn1224 O1248 2.385 . S
Mn1224 O1249 2.209 . S
Mn1224 O1250 2.094 . S
Mn1225 O1230 2.121 . S
Mn1225 N1232 2.257 . S
Mn1225 N1241 2.282 . S
Mn1225 O1249 2.215 . S
Mn1225 O1251 2.117 . S
C1226 O1248 1.234 . S
C1226 O1249 1.283 . S
C1227 O1239 1.281 . S
C1227 O1240 1.236 . S
C1228 O1250 1.240 . S
C1228 O1251 1.264 . S
O1229 Mn1224 2.095 . S
O1229 C1238 1.250 . S
O1230 Mn1225 2.121 . S
O1230 C1238 1.258 . S
C1231 N1232 1.326 . S
C1231 C1235 1.460 . S
C1231 H1237 0.929 . S
N1232 Mn1225 2.257 . S
N1232 C1231 1.326 . S
N1232 C1236 1.362 . S
C1233 C1234 1.258 . S
C1233 C1236 1.431 . S
C1233 C1253 1.449 . S
C1234 C1233 1.258 . S
C1234 C1235 1.477 . S
C1234 H1254 0.931 . S
C1235 C1231 1.460 . S
C1235 C1234 1.477 . S
C1235 H1255 0.930 . S
C1236 N1232 1.362 . S
C1236 C1233 1.431 . S
C1236 C1246 1.476 . S
H1237 C1231 0.929 . S
C1238 O1229 1.250 . S
C1238 O1230 1.258 . S
O1239 Mn1224 2.162 . S
O1239 C1227 1.281 . S
O1240 Mn1224 2.297 . S
O1240 C1227 1.236 . S
N1241 Mn1225 2.282 . S
N1241 C1242 1.328 . S
N1241 C1246 1.318 . S
C1242 N1241 1.328 . S
C1242 C1243 1.457 . S
C1242 H1247 0.929 . S
C1243 C1242 1.457 . S
C1243 C1244 1.291 . S
C1243 H1256 0.931 . S
C1244 C1243 1.291 . S
C1244 C1245 1.373 . S
C1244 H1257 0.929 . S
C1245 C1244 1.373 . S
C1245 C1246 1.396 . S
C1245 C1252 1.403 . S
C1246 C1236 1.476 . S
C1246 N1241 1.318 . S
C1246 C1245 1.396 . S
H1247 C1242 0.929 . S
O1248 Mn1224 2.385 . S
O1248 C1226 1.234 . S
O1249 Mn1224 2.209 . S
O1249 Mn1225 2.215 . S
O1249 C1226 1.283 . S
O1250 Mn1224 2.094 . S
O1250 C1228 1.240 . S
O1251 Mn1225 2.117 . S
O1251 C1228 1.264 . S
C1252 C1245 1.403 . S
C1252 C1253 1.399 . S
C1252 H1258 0.929 . S
C1253 C1233 1.449 . S
C1253 C1252 1.399 . S
C1253 H1259 0.930 . S
H1254 C1234 0.931 . S
H1255 C1235 0.930 . S
H1256 C1243 0.931 . S
H1257 C1244 0.929 . S
H1258 C1252 0.929 . S
H1259 C1253 0.930 . S
Mn1260 O1265 2.095 . S
Mn1260 O1275 2.162 . S
Mn1260 O1276 2.297 . S
Mn1260 O1284 2.385 . S
Mn1260 O1285 2.209 . S
Mn1260 O1286 2.094 . S
Mn1261 O1266 2.121 . S
Mn1261 N1268 2.257 . S
Mn1261 N1277 2.282 . S
Mn1261 O1285 2.215 . S
Mn1261 O1287 2.117 . S
C1262 O1284 1.234 . S
C1262 O1285 1.283 . S
C1263 O1275 1.281 . S
C1263 O1276 1.236 . S
C1264 O1286 1.240 . S
C1264 O1287 1.264 . S
O1265 Mn1260 2.095 . S
O1265 C1274 1.250 . S
O1266 Mn1261 2.121 . S
O1266 C1274 1.258 . S
C1267 N1268 1.326 . S
C1267 C1271 1.460 . S
C1267 H1273 0.929 . S
N1268 Mn1261 2.257 . S
N1268 C1267 1.326 . S
N1268 C1272 1.362 . S
C1269 C1270 1.258 . S
C1269 C1272 1.431 . S
C1269 C1289 1.449 . S
C1270 C1269 1.258 . S
C1270 C1271 1.477 . S
C1270 H1290 0.931 . S
C1271 C1267 1.460 . S
C1271 C1270 1.477 . S
C1271 H1291 0.930 . S
C1272 N1268 1.362 . S
C1272 C1269 1.431 . S
C1272 C1282 1.476 . S
H1273 C1267 0.929 . S
C1274 O1265 1.250 . S
C1274 O1266 1.258 . S
O1275 Mn1260 2.162 . S
O1275 C1263 1.281 . S
O1276 Mn1260 2.297 . S
O1276 C1263 1.236 . S
N1277 Mn1261 2.282 . S
N1277 C1278 1.328 . S
N1277 C1282 1.318 . S
C1278 N1277 1.328 . S
C1278 C1279 1.457 . S
C1278 H1283 0.929 . S
C1279 C1278 1.457 . S
C1279 C1280 1.291 . S
C1279 H1292 0.931 . S
C1280 C1279 1.291 . S
C1280 C1281 1.373 . S
C1280 H1293 0.929 . S
C1281 C1280 1.373 . S
C1281 C1282 1.396 . S
C1281 C1288 1.403 . S
C1282 C1272 1.476 . S
C1282 N1277 1.318 . S
C1282 C1281 1.396 . S
H1283 C1278 0.929 . S
O1284 Mn1260 2.385 . S
O1284 C1262 1.234 . S
O1285 Mn1260 2.209 . S
O1285 Mn1261 2.215 . S
O1285 C1262 1.283 . S
O1286 Mn1260 2.094 . S
O1286 C1264 1.240 . S
O1287 Mn1261 2.117 . S
O1287 C1264 1.264 . S
C1288 C1281 1.403 . S
C1288 C1289 1.399 . S
C1288 H1294 0.929 . S
C1289 C1269 1.449 . S
C1289 C1288 1.399 . S
C1289 H1295 0.930 . S
H1290 C1270 0.931 . S
H1291 C1271 0.930 . S
H1292 C1279 0.931 . S
H1293 C1280 0.929 . S
H1294 C1288 0.929 . S
H1295 C1289 0.930 . S
Mn1296 O1301 2.095 . S
Mn1296 O1311 2.162 . S
Mn1296 O1312 2.297 . S
Mn1296 O1320 2.385 . S
Mn1296 O1321 2.209 . S
Mn1296 O1322 2.094 . S
Mn1297 O1302 2.121 . S
Mn1297 N1304 2.257 . S
Mn1297 N1313 2.282 . S
Mn1297 O1321 2.215 . S
Mn1297 O1323 2.117 . S
C1298 O1320 1.234 . S
C1298 O1321 1.283 . S
C1299 O1311 1.281 . S
C1299 O1312 1.236 . S
C1300 O1322 1.240 . S
C1300 O1323 1.264 . S
O1301 Mn1296 2.095 . S
O1301 C1310 1.250 . S
O1302 Mn1297 2.121 . S
O1302 C1310 1.258 . S
C1303 N1304 1.326 . S
C1303 C1307 1.460 . S
C1303 H1309 0.929 . S
N1304 Mn1297 2.257 . S
N1304 C1303 1.326 . S
N1304 C1308 1.362 . S
C1305 C1306 1.258 . S
C1305 C1308 1.431 . S
C1305 C1325 1.449 . S
C1306 C1305 1.258 . S
C1306 C1307 1.477 . S
C1306 H1326 0.931 . S
C1307 C1303 1.460 . S
C1307 C1306 1.477 . S
C1307 H1327 0.930 . S
C1308 N1304 1.362 . S
C1308 C1305 1.431 . S
C1308 C1318 1.476 . S
H1309 C1303 0.929 . S
C1310 O1301 1.250 . S
C1310 O1302 1.258 . S
O1311 Mn1296 2.162 . S
O1311 C1299 1.281 . S
O1312 Mn1296 2.297 . S
O1312 C1299 1.236 . S
N1313 Mn1297 2.282 . S
N1313 C1314 1.328 . S
N1313 C1318 1.318 . S
C1314 N1313 1.328 . S
C1314 C1315 1.457 . S
C1314 H1319 0.929 . S
C1315 C1314 1.457 . S
C1315 C1316 1.291 . S
C1315 H1328 0.931 . S
C1316 C1315 1.291 . S
C1316 C1317 1.373 . S
C1316 H1329 0.929 . S
C1317 C1316 1.373 . S
C1317 C1318 1.396 . S
C1317 C1324 1.403 . S
C1318 C1308 1.476 . S
C1318 N1313 1.318 . S
C1318 C1317 1.396 . S
H1319 C1314 0.929 . S
O1320 Mn1296 2.385 . S
O1320 C1298 1.234 . S
O1321 Mn1296 2.209 . S
O1321 Mn1297 2.215 . S
O1321 C1298 1.283 . S
O1322 Mn1296 2.094 . S
O1322 C1300 1.240 . S
O1323 Mn1297 2.117 . S
O1323 C1300 1.264 . S
C1324 C1317 1.403 . S
C1324 C1325 1.399 . S
C1324 H1330 0.929 . S
C1325 C1305 1.449 . S
C1325 C1324 1.399 . S
C1325 H1331 0.930 . S
H1326 C1306 0.931 . S
H1327 C1307 0.930 . S
H1328 C1315 0.931 . S
H1329 C1316 0.929 . S
H1330 C1324 0.929 . S
H1331 C1325 0.930 . S
Mn1332 O1337 2.095 . S
Mn1332 O1347 2.162 . S
Mn1332 O1348 2.297 . S
Mn1332 O1356 2.385 . S
Mn1332 O1357 2.209 . S
Mn1332 O1358 2.094 . S
Mn1333 O1338 2.121 . S
Mn1333 N1340 2.257 . S
Mn1333 N1349 2.282 . S
Mn1333 O1357 2.215 . S
Mn1333 O1359 2.117 . S
C1334 O1356 1.234 . S
C1334 O1357 1.283 . S
C1335 O1347 1.281 . S
C1335 O1348 1.236 . S
C1336 O1358 1.240 . S
C1336 O1359 1.264 . S
O1337 Mn1332 2.095 . S
O1337 C1346 1.250 . S
O1338 Mn1333 2.121 . S
O1338 C1346 1.258 . S
C1339 N1340 1.326 . S
C1339 C1343 1.460 . S
C1339 H1345 0.929 . S
N1340 Mn1333 2.257 . S
N1340 C1339 1.326 . S
N1340 C1344 1.362 . S
C1341 C1342 1.258 . S
C1341 C1344 1.431 . S
C1341 C1361 1.449 . S
C1342 C1341 1.258 . S
C1342 C1343 1.477 . S
C1342 H1362 0.931 . S
C1343 C1339 1.460 . S
C1343 C1342 1.477 . S
C1343 H1363 0.930 . S
C1344 N1340 1.362 . S
C1344 C1341 1.431 . S
C1344 C1354 1.476 . S
H1345 C1339 0.929 . S
C1346 O1337 1.250 . S
C1346 O1338 1.258 . S
O1347 Mn1332 2.162 . S
O1347 C1335 1.281 . S
O1348 Mn1332 2.297 . S
O1348 C1335 1.236 . S
N1349 Mn1333 2.282 . S
N1349 C1350 1.328 . S
N1349 C1354 1.318 . S
C1350 N1349 1.328 . S
C1350 C1351 1.457 . S
C1350 H1355 0.929 . S
C1351 C1350 1.457 . S
C1351 C1352 1.291 . S
C1351 H1364 0.931 . S
C1352 C1351 1.291 . S
C1352 C1353 1.373 . S
C1352 H1365 0.929 . S
C1353 C1352 1.373 . S
C1353 C1354 1.396 . S
C1353 C1360 1.403 . S
C1354 C1344 1.476 . S
C1354 N1349 1.318 . S
C1354 C1353 1.396 . S
H1355 C1350 0.929 . S
O1356 Mn1332 2.385 . S
O1356 C1334 1.234 . S
O1357 Mn1332 2.209 . S
O1357 Mn1333 2.215 . S
O1357 C1334 1.283 . S
O1358 Mn1332 2.094 . S
O1358 C1336 1.240 . S
O1359 Mn1333 2.117 . S
O1359 C1336 1.264 . S
C1360 C1353 1.403 . S
C1360 C1361 1.399 . S
C1360 H1366 0.929 1_556 S
C1361 C1341 1.449 . S
C1361 C1360 1.399 . S
C1361 H1367 0.930 1_556 S
H1362 C1342 0.931 . S
H1363 C1343 0.930 . S
H1364 C1351 0.931 . S
H1365 C1352 0.929 . S
H1366 C1360 0.929 1_554 S
H1367 C1361 0.930 1_554 S
Mn1368 O1373 2.095 . S
Mn1368 O1383 2.162 . S
Mn1368 O1384 2.297 . S
Mn1368 O1392 2.385 . S
Mn1368 O1393 2.209 . S
Mn1368 O1394 2.094 . S
Mn1369 O1374 2.121 . S
Mn1369 N1376 2.257 . S
Mn1369 N1385 2.282 . S
Mn1369 O1393 2.215 . S
Mn1369 O1395 2.117 . S
C1370 O1392 1.234 . S
C1370 O1393 1.283 . S
C1371 O1383 1.281 . S
C1371 O1384 1.236 . S
C1372 O1394 1.240 . S
C1372 O1395 1.264 . S
O1373 Mn1368 2.095 . S
O1373 C1382 1.250 . S
O1374 Mn1369 2.121 . S
O1374 C1382 1.258 . S
C1375 N1376 1.326 . S
C1375 C1379 1.460 . S
C1375 H1381 0.929 . S
N1376 Mn1369 2.257 . S
N1376 C1375 1.326 . S
N1376 C1380 1.362 . S
C1377 C1378 1.258 . S
C1377 C1380 1.431 . S
C1377 C1397 1.449 . S
C1378 C1377 1.258 . S
C1378 C1379 1.477 . S
C1378 H1398 0.931 . S
C1379 C1375 1.460 . S
C1379 C1378 1.477 . S
C1379 H1399 0.930 . S
C1380 N1376 1.362 . S
C1380 C1377 1.431 . S
C1380 C1390 1.476 . S
H1381 C1375 0.929 . S
C1382 O1373 1.250 . S
C1382 O1374 1.258 . S
O1383 Mn1368 2.162 . S
O1383 C1371 1.281 . S
O1384 Mn1368 2.297 . S
O1384 C1371 1.236 . S
N1385 Mn1369 2.282 . S
N1385 C1386 1.328 . S
N1385 C1390 1.318 . S
C1386 N1385 1.328 . S
C1386 C1387 1.457 . S
C1386 H1391 0.929 . S
C1387 C1386 1.457 . S
C1387 C1388 1.291 . S
C1387 H1400 0.931 . S
C1388 C1387 1.291 . S
C1388 C1389 1.373 . S
C1388 H1401 0.929 . S
C1389 C1388 1.373 . S
C1389 C1390 1.396 . S
C1389 C1396 1.403 . S
C1390 C1380 1.476 . S
C1390 N1385 1.318 . S
C1390 C1389 1.396 . S
H1391 C1386 0.929 . S
O1392 Mn1368 2.385 . S
O1392 C1370 1.234 . S
O1393 Mn1368 2.209 . S
O1393 Mn1369 2.215 . S
O1393 C1370 1.283 . S
O1394 Mn1368 2.094 . S
O1394 C1372 1.240 . S
O1395 Mn1369 2.117 . S
O1395 C1372 1.264 . S
C1396 C1389 1.403 . S
C1396 C1397 1.399 . S
C1396 H1402 0.929 . S
C1397 C1377 1.449 . S
C1397 C1396 1.399 . S
C1397 H1403 0.930 . S
H1398 C1378 0.931 . S
H1399 C1379 0.930 . S
H1400 C1387 0.931 . S
H1401 C1388 0.929 . S
H1402 C1396 0.929 . S
H1403 C1397 0.930 . S
Mn1404 O1409 2.095 . S
Mn1404 O1419 2.162 . S
Mn1404 O1420 2.297 . S
Mn1404 O1428 2.385 . S
Mn1404 O1429 2.209 . S
Mn1404 O1430 2.094 . S
Mn1405 O1410 2.121 . S
Mn1405 N1412 2.257 . S
Mn1405 N1421 2.282 . S
Mn1405 O1429 2.215 . S
Mn1405 O1431 2.117 . S
C1406 O1428 1.234 . S
C1406 O1429 1.283 . S
C1407 O1419 1.281 . S
C1407 O1420 1.236 . S
C1408 O1430 1.240 . S
C1408 O1431 1.264 . S
O1409 Mn1404 2.095 . S
O1409 C1418 1.250 . S
O1410 Mn1405 2.121 . S
O1410 C1418 1.258 . S
C1411 N1412 1.326 . S
C1411 C1415 1.460 . S
C1411 H1417 0.929 . S
N1412 Mn1405 2.257 . S
N1412 C1411 1.326 . S
N1412 C1416 1.362 . S
C1413 C1414 1.258 . S
C1413 C1416 1.431 . S
C1413 C1433 1.449 . S
C1414 C1413 1.258 . S
C1414 C1415 1.477 . S
C1414 H1434 0.931 . S
C1415 C1411 1.460 . S
C1415 C1414 1.477 . S
C1415 H1435 0.930 . S
C1416 N1412 1.362 . S
C1416 C1413 1.431 . S
C1416 C1426 1.476 . S
H1417 C1411 0.929 . S
C1418 O1409 1.250 . S
C1418 O1410 1.258 . S
O1419 Mn1404 2.162 . S
O1419 C1407 1.281 . S
O1420 Mn1404 2.297 . S
O1420 C1407 1.236 . S
N1421 Mn1405 2.282 . S
N1421 C1422 1.328 . S
N1421 C1426 1.318 . S
C1422 N1421 1.328 . S
C1422 C1423 1.457 . S
C1422 H1427 0.929 . S
C1423 C1422 1.457 . S
C1423 C1424 1.291 . S
C1423 H1436 0.931 . S
C1424 C1423 1.291 . S
C1424 C1425 1.373 . S
C1424 H1437 0.929 . S
C1425 C1424 1.373 . S
C1425 C1426 1.396 . S
C1425 C1432 1.403 . S
C1426 C1416 1.476 . S
C1426 N1421 1.318 . S
C1426 C1425 1.396 . S
H1427 C1422 0.929 . S
O1428 Mn1404 2.385 . S
O1428 C1406 1.234 . S
O1429 Mn1404 2.209 . S
O1429 Mn1405 2.215 . S
O1429 C1406 1.283 . S
O1430 Mn1404 2.094 . S
O1430 C1408 1.240 . S
O1431 Mn1405 2.117 . S
O1431 C1408 1.264 . S
C1432 C1425 1.403 . S
C1432 C1433 1.399 . S
C1432 H1438 0.929 . S
C1433 C1413 1.449 . S
C1433 C1432 1.399 . S
C1433 H1439 0.930 . S
H1434 C1414 0.931 . S
H1435 C1415 0.930 . S
H1436 C1423 0.931 . S
H1437 C1424 0.929 . S
H1438 C1432 0.929 . S
H1439 C1433 0.930 . S
Mn1440 O1445 2.095 . S
Mn1440 O1455 2.162 . S
Mn1440 O1456 2.297 . S
Mn1440 O1464 2.385 . S
Mn1440 O1465 2.209 . S
Mn1440 O1466 2.094 . S
Mn1441 O1446 2.121 . S
Mn1441 N1448 2.257 . S
Mn1441 N1457 2.282 . S
Mn1441 O1465 2.215 . S
Mn1441 O1467 2.117 . S
C1442 O1464 1.234 . S
C1442 O1465 1.283 . S
C1443 O1455 1.281 . S
C1443 O1456 1.236 . S
C1444 O1466 1.240 . S
C1444 O1467 1.264 . S
O1445 Mn1440 2.095 . S
O1445 C1454 1.250 . S
O1446 Mn1441 2.121 . S
O1446 C1454 1.258 . S
C1447 N1448 1.326 . S
C1447 C1451 1.460 . S
C1447 H1453 0.929 . S
N1448 Mn1441 2.257 . S
N1448 C1447 1.326 . S
N1448 C1452 1.362 . S
C1449 C1450 1.258 . S
C1449 C1452 1.431 . S
C1449 C1469 1.449 . S
C1450 C1449 1.258 . S
C1450 C1451 1.477 . S
C1450 H1470 0.931 . S
C1451 C1447 1.460 . S
C1451 C1450 1.477 . S
C1451 H1471 0.930 . S
C1452 N1448 1.362 . S
C1452 C1449 1.431 . S
C1452 C1462 1.476 . S
H1453 C1447 0.929 . S
C1454 O1445 1.250 . S
C1454 O1446 1.258 . S
O1455 Mn1440 2.162 . S
O1455 C1443 1.281 . S
O1456 Mn1440 2.297 . S
O1456 C1443 1.236 . S
N1457 Mn1441 2.282 . S
N1457 C1458 1.328 . S
N1457 C1462 1.318 . S
C1458 N1457 1.328 . S
C1458 C1459 1.457 . S
C1458 H1463 0.929 . S
C1459 C1458 1.457 . S
C1459 C1460 1.291 . S
C1459 H1472 0.931 . S
C1460 C1459 1.291 . S
C1460 C1461 1.373 . S
C1460 H1473 0.929 . S
C1461 C1460 1.373 . S
C1461 C1462 1.396 . S
C1461 C1468 1.403 . S
C1462 C1452 1.476 . S
C1462 N1457 1.318 . S
C1462 C1461 1.396 . S
H1463 C1458 0.929 . S
O1464 Mn1440 2.385 . S
O1464 C1442 1.234 . S
O1465 Mn1440 2.209 . S
O1465 Mn1441 2.215 . S
O1465 C1442 1.283 . S
O1466 Mn1440 2.094 . S
O1466 C1444 1.240 . S
O1467 Mn1441 2.117 . S
O1467 C1444 1.264 . S
C1468 C1461 1.403 . S
C1468 C1469 1.399 . S
C1468 H1474 0.929 . S
C1469 C1449 1.449 . S
C1469 C1468 1.399 . S
C1469 H1475 0.930 . S
H1470 C1450 0.931 . S
H1471 C1451 0.930 . S
H1472 C1459 0.931 . S
H1473 C1460 0.929 . S
H1474 C1468 0.929 . S
H1475 C1469 0.930 . S
Mn1476 O1481 2.095 . S
Mn1476 O1491 2.162 . S
Mn1476 O1492 2.297 . S
Mn1476 O1500 2.385 . S
Mn1476 O1501 2.209 . S
Mn1476 O1502 2.094 . S
Mn1477 O1482 2.121 . S
Mn1477 N1484 2.257 . S
Mn1477 N1493 2.282 . S
Mn1477 O1501 2.215 . S
Mn1477 O1503 2.117 . S
C1478 O1500 1.234 . S
C1478 O1501 1.283 . S
C1479 O1491 1.281 . S
C1479 O1492 1.236 . S
C1480 O1502 1.240 . S
C1480 O1503 1.264 . S
O1481 Mn1476 2.095 . S
O1481 C1490 1.250 . S
O1482 Mn1477 2.121 . S
O1482 C1490 1.258 . S
C1483 N1484 1.326 . S
C1483 C1487 1.460 . S
C1483 H1489 0.929 . S
N1484 Mn1477 2.257 . S
N1484 C1483 1.326 . S
N1484 C1488 1.362 . S
C1485 C1486 1.258 . S
C1485 C1488 1.431 . S
C1485 C1505 1.449 . S
C1486 C1485 1.258 . S
C1486 C1487 1.477 . S
C1486 H1506 0.931 . S
C1487 C1483 1.460 . S
C1487 C1486 1.477 . S
C1487 H1507 0.930 . S
C1488 N1484 1.362 . S
C1488 C1485 1.431 . S
C1488 C1498 1.476 . S
H1489 C1483 0.929 . S
C1490 O1481 1.250 . S
C1490 O1482 1.258 . S
O1491 Mn1476 2.162 . S
O1491 C1479 1.281 . S
O1492 Mn1476 2.297 . S
O1492 C1479 1.236 . S
N1493 Mn1477 2.282 . S
N1493 C1494 1.328 . S
N1493 C1498 1.318 . S
C1494 N1493 1.328 . S
C1494 C1495 1.457 . S
C1494 H1499 0.929 . S
C1495 C1494 1.457 . S
C1495 C1496 1.291 . S
C1495 H1508 0.931 . S
C1496 C1495 1.291 . S
C1496 C1497 1.373 . S
C1496 H1509 0.929 . S
C1497 C1496 1.373 . S
C1497 C1498 1.396 . S
C1497 C1504 1.403 . S
C1498 C1488 1.476 . S
C1498 N1493 1.318 . S
C1498 C1497 1.396 . S
H1499 C1494 0.929 . S
O1500 Mn1476 2.385 . S
O1500 C1478 1.234 . S
O1501 Mn1476 2.209 . S
O1501 Mn1477 2.215 . S
O1501 C1478 1.283 . S
O1502 Mn1476 2.094 . S
O1502 C1480 1.240 . S
O1503 Mn1477 2.117 . S
O1503 C1480 1.264 . S
C1504 C1497 1.403 . S
C1504 C1505 1.399 . S
C1504 H1510 0.929 . S
C1505 C1485 1.449 . S
C1505 C1504 1.399 . S
C1505 H1511 0.930 . S
H1506 C1486 0.931 . S
H1507 C1487 0.930 . S
H1508 C1495 0.931 . S
H1509 C1496 0.929 . S
H1510 C1504 0.929 . S
H1511 C1505 0.930 . S
Mn1512 O1517 2.095 1_545 S
Mn1512 O1527 2.162 . S
Mn1512 O1528 2.297 . S
Mn1512 O1536 2.385 . S
Mn1512 O1537 2.209 . S
Mn1512 O1538 2.094 . S
Mn1513 O1518 2.121 1_545 S
Mn1513 N1520 2.253 1_545 S
Mn1513 N1529 2.282 . S
Mn1513 O1537 2.215 . S
Mn1513 O1539 2.117 . S
C1514 O1536 1.234 . S
C1514 O1537 1.283 . S
C1515 O1527 1.281 . S
C1515 O1528 1.236 . S
C1516 O1538 1.240 . S
C1516 O1539 1.264 . S
O1517 Mn1512 2.095 1_565 S
O1517 C1526 1.250 . S
O1518 Mn1513 2.121 1_565 S
O1518 C1526 1.258 . S
C1519 N1520 1.360 . S
C1519 C1523 1.460 . S
C1519 H1525 0.929 . S
N1520 Mn1513 2.253 1_565 S
N1520 C1519 1.360 . S
N1520 C1524 1.336 1_565 S
C1521 C1522 1.258 1_545 S
C1521 C1524 1.431 . S
C1521 C1541 1.449 . S
C1522 C1521 1.258 1_565 S
C1522 C1523 1.477 . S
C1522 H1542 0.931 . S
C1523 C1519 1.460 . S
C1523 C1522 1.477 . S
C1523 H1543 0.930 . S
C1524 N1520 1.336 1_545 S
C1524 C1521 1.431 . S
C1524 C1534 1.476 . S
H1525 C1519 0.929 . S
C1526 O1517 1.250 . S
C1526 O1518 1.258 . S
O1527 Mn1512 2.162 . S
O1527 C1515 1.281 . S
O1528 Mn1512 2.297 . S
O1528 C1515 1.236 . S
N1529 Mn1513 2.282 . S
N1529 C1530 1.328 . S
N1529 C1534 1.318 . S
C1530 N1529 1.328 . S
C1530 C1531 1.457 . S
C1530 H1535 0.929 . S
C1531 C1530 1.457 . S
C1531 C1532 1.291 . S
C1531 H1544 0.931 . S
C1532 C1531 1.291 . S
C1532 C1533 1.373 . S
C1532 H1545 0.929 . S
C1533 C1532 1.373 . S
C1533 C1534 1.396 . S
C1533 C1540 1.403 . S
C1534 C1524 1.476 . S
C1534 N1529 1.318 . S
C1534 C1533 1.396 . S
H1535 C1530 0.929 . S
O1536 Mn1512 2.385 . S
O1536 C1514 1.234 . S
O1537 Mn1512 2.209 . S
O1537 Mn1513 2.215 . S
O1537 C1514 1.283 . S
O1538 Mn1512 2.094 . S
O1538 C1516 1.240 . S
O1539 Mn1513 2.117 . S
O1539 C1516 1.264 . S
C1540 C1533 1.403 . S
C1540 C1541 1.399 . S
C1540 H1546 0.929 . S
C1541 C1521 1.449 . S
C1541 C1540 1.399 . S
C1541 H1547 0.930 . S
H1542 C1522 0.931 . S
H1543 C1523 0.930 . S
H1544 C1531 0.931 . S
H1545 C1532 0.929 . S
H1546 C1540 0.929 . S
H1547 C1541 0.930 . S
Mn1548 O1553 2.090 1_556 S
Mn1548 O1563 2.162 . S
Mn1548 O1564 2.297 1_556 S
Mn1548 O1572 2.382 1_556 S
Mn1548 O1573 2.209 1_556 S
Mn1548 O1574 2.094 . S
Mn1549 O1554 2.121 . S
Mn1549 N1556 2.257 . S
Mn1549 N1565 2.282 . S
Mn1549 O1573 2.215 . S
Mn1549 O1575 2.117 1_554 S
C1550 O1572 1.250 . S
C1550 O1573 1.283 . S
C1551 O1563 1.281 1_554 S
C1551 O1564 1.236 . S
C1552 O1574 1.240 . S
C1552 O1575 1.264 . S
O1553 Mn1548 2.090 1_554 S
O1553 C1562 1.273 . S
O1554 Mn1549 2.121 . S
O1554 C1562 1.258 . S
C1555 N1556 1.326 . S
C1555 C1559 1.460 . S
C1555 H1561 0.929 . S
N1556 Mn1549 2.257 . S
N1556 C1555 1.326 . S
N1556 C1560 1.362 . S
C1557 C1558 1.258 . S
C1557 C1560 1.431 . S
C1557 C1577 1.449 . S
C1558 C1557 1.258 . S
C1558 C1559 1.477 . S
C1558 H1578 0.931 . S
C1559 C1555 1.460 . S
C1559 C1558 1.477 . S
C1559 H1579 0.930 . S
C1560 N1556 1.362 . S
C1560 C1557 1.431 . S
C1560 C1570 1.476 . S
H1561 C1555 0.929 . S
C1562 O1553 1.273 . S
C1562 O1554 1.258 . S
O1563 Mn1548 2.162 . S
O1563 C1551 1.281 1_556 S
O1564 Mn1548 2.297 1_554 S
O1564 C1551 1.236 . S
N1565 Mn1549 2.282 . S
N1565 C1566 1.328 1_554 S
N1565 C1570 1.318 . S
C1566 N1565 1.328 1_556 S
C1566 C1567 1.457 . S
C1566 H1571 0.929 . S
C1567 C1566 1.457 . S
C1567 C1568 1.291 1_556 S
C1567 H1580 0.931 . S
C1568 C1567 1.291 1_554 S
C1568 C1569 1.373 . S
C1568 H1581 0.929 . S
C1569 C1568 1.373 . S
C1569 C1570 1.396 . S
C1569 C1576 1.403 . S
C1570 C1560 1.476 . S
C1570 N1565 1.318 . S
C1570 C1569 1.396 . S
H1571 C1566 0.929 . S
O1572 Mn1548 2.382 1_554 S
O1572 C1550 1.250 . S
O1573 Mn1548 2.209 1_554 S
O1573 Mn1549 2.215 . S
O1573 C1550 1.283 . S
O1574 Mn1548 2.094 . S
O1574 C1552 1.240 . S
O1575 Mn1549 2.117 1_556 S
O1575 C1552 1.264 . S
C1576 C1569 1.403 . S
C1576 C1577 1.399 . S
C1576 H1582 0.929 . S
C1577 C1557 1.449 . S
C1577 C1576 1.399 . S
C1577 H1583 0.930 . S
H1578 C1558 0.931 . S
H1579 C1559 0.930 . S
H1580 C1567 0.931 . S
H1581 C1568 0.929 . S
H1582 C1576 0.929 . S
H1583 C1577 0.930 . S
Mn1584 O1589 2.095 . S
Mn1584 O1599 2.162 . S
Mn1584 O1600 2.297 . S
Mn1584 O1608 2.385 . S
Mn1584 O1609 2.209 . S
Mn1584 O1610 2.094 . S
Mn1585 O1590 2.121 . S
Mn1585 N1592 2.257 . S
Mn1585 N1601 2.282 . S
Mn1585 O1609 2.215 . S
Mn1585 O1611 2.117 . S
C1586 O1608 1.234 . S
C1586 O1609 1.283 . S
C1587 O1599 1.281 . S
C1587 O1600 1.236 . S
C1588 O1610 1.240 . S
C1588 O1611 1.264 . S
O1589 Mn1584 2.095 . S
O1589 C1598 1.250 . S
O1590 Mn1585 2.121 . S
O1590 C1598 1.258 . S
C1591 N1592 1.326 . S
C1591 C1595 1.460 . S
C1591 H1597 0.929 . S
N1592 Mn1585 2.257 . S
N1592 C1591 1.326 . S
N1592 C1596 1.362 . S
C1593 C1594 1.258 . S
C1593 C1596 1.431 . S
C1593 C1613 1.449 . S
C1594 C1593 1.258 . S
C1594 C1595 1.477 . S
C1594 H1614 0.931 . S
C1595 C1591 1.460 . S
C1595 C1594 1.477 . S
C1595 H1615 0.930 . S
C1596 N1592 1.362 . S
C1596 C1593 1.431 . S
C1596 C1606 1.476 . S
H1597 C1591 0.929 . S
C1598 O1589 1.250 . S
C1598 O1590 1.258 . S
O1599 Mn1584 2.162 . S
O1599 C1587 1.281 . S
O1600 Mn1584 2.297 . S
O1600 C1587 1.236 . S
N1601 Mn1585 2.282 . S
N1601 C1602 1.328 . S
N1601 C1606 1.318 . S
C1602 N1601 1.328 . S
C1602 C1603 1.457 . S
C1602 H1607 0.929 . S
C1603 C1602 1.457 . S
C1603 C1604 1.291 . S
C1603 H1616 0.931 . S
C1604 C1603 1.291 . S
C1604 C1605 1.373 . S
C1604 H1617 0.929 . S
C1605 C1604 1.373 . S
C1605 C1606 1.396 . S
C1605 C1612 1.403 . S
C1606 C1596 1.476 . S
C1606 N1601 1.318 . S
C1606 C1605 1.396 . S
H1607 C1602 0.929 . S
O1608 Mn1584 2.385 . S
O1608 C1586 1.234 . S
O1609 Mn1584 2.209 . S
O1609 Mn1585 2.215 . S
O1609 C1586 1.283 . S
O1610 Mn1584 2.094 . S
O1610 C1588 1.240 . S
O1611 Mn1585 2.117 . S
O1611 C1588 1.264 . S
C1612 C1605 1.403 . S
C1612 C1613 1.399 . S
C1612 H1618 0.929 . S
C1613 C1593 1.449 . S
C1613 C1612 1.399 . S
C1613 H1619 0.930 . S
H1614 C1594 0.931 . S
H1615 C1595 0.930 . S
H1616 C1603 0.931 . S
H1617 C1604 0.929 . S
H1618 C1612 0.929 . S
H1619 C1613 0.930 . S
Mn1620 O1625 2.095 . S
Mn1620 O1635 2.162 . S
Mn1620 O1636 2.297 1_554 S
Mn1620 O1644 2.385 1_554 S
Mn1620 O1645 2.209 1_554 S
Mn1620 O1646 2.094 . S
Mn1621 O1626 2.122 . S
Mn1621 N1628 2.257 1_554 S
Mn1621 N1637 2.281 1_554 S
Mn1621 O1645 2.214 1_554 S
Mn1621 O1647 2.117 . S
C1622 O1644 1.234 . S
C1622 O1645 1.283 . S
C1623 O1635 1.281 . S
C1623 O1636 1.235 1_554 S
C1624 O1646 1.240 . S
C1624 O1647 1.264 . S
O1625 Mn1620 2.095 . S
O1625 C1634 1.250 . S
O1626 Mn1621 2.122 . S
O1626 C1634 1.258 . S
C1627 N1628 1.326 . S
C1627 C1631 1.460 . S
C1627 H1633 0.929 1_556 S
N1628 Mn1621 2.257 1_556 S
N1628 C1627 1.326 . S
N1628 C1632 1.362 . S
C1629 C1630 1.258 . S
C1629 C1632 1.431 . S
C1629 C1649 1.449 . S
C1630 C1629 1.258 . S
C1630 C1631 1.477 . S
C1630 H1650 0.931 . S
C1631 C1627 1.460 . S
C1631 C1630 1.477 . S
C1631 H1651 0.930 . S
C1632 N1628 1.362 . S
C1632 C1629 1.431 . S
C1632 C1642 1.476 . S
H1633 C1627 0.929 1_554 S
C1634 O1625 1.250 . S
C1634 O1626 1.258 . S
O1635 Mn1620 2.162 . S
O1635 C1623 1.281 . S
O1636 Mn1620 2.297 1_556 S
O1636 C1623 1.235 1_556 S
N1637 Mn1621 2.281 1_556 S
N1637 C1638 1.328 . S
N1637 C1642 1.318 . S
C1638 N1637 1.328 . S
C1638 C1639 1.457 . S
C1638 H1643 0.929 . S
C1639 C1638 1.457 . S
C1639 C1640 1.291 . S
C1639 H1652 0.931 . S
C1640 C1639 1.291 . S
C1640 C1641 1.373 . S
C1640 H1653 0.929 . S
C1641 C1640 1.373 . S
C1641 C1642 1.396 . S
C1641 C1648 1.403 . S
C1642 C1632 1.476 . S
C1642 N1637 1.318 . S
C1642 C1641 1.396 . S
H1643 C1638 0.929 . S
O1644 Mn1620 2.385 1_556 S
O1644 C1622 1.234 . S
O1645 Mn1620 2.209 1_556 S
O1645 Mn1621 2.214 1_556 S
O1645 C1622 1.283 . S
O1646 Mn1620 2.094 . S
O1646 C1624 1.240 . S
O1647 Mn1621 2.117 . S
O1647 C1624 1.264 . S
C1648 C1641 1.403 . S
C1648 C1649 1.399 . S
C1648 H1654 0.929 . S
C1649 C1629 1.449 . S
C1649 C1648 1.399 . S
C1649 H1655 0.930 . S
H1650 C1630 0.931 . S
H1651 C1631 0.930 . S
H1652 C1639 0.931 . S
H1653 C1640 0.929 . S
H1654 C1648 0.929 . S
H1655 C1649 0.930 . S
Mn1656 O1661 2.095 . S
Mn1656 O1671 2.162 . S
Mn1656 O1672 2.297 . S
Mn1656 O1680 2.385 . S
Mn1656 O1681 2.209 . S
Mn1656 O1682 2.094 . S
Mn1657 O1662 2.121 . S
Mn1657 N1664 2.257 . S
Mn1657 N1673 2.282 . S
Mn1657 O1681 2.215 . S
Mn1657 O1683 2.117 . S
C1658 O1680 1.234 . S
C1658 O1681 1.283 . S
C1659 O1671 1.281 . S
C1659 O1672 1.236 . S
C1660 O1682 1.240 . S
C1660 O1683 1.264 . S
O1661 Mn1656 2.095 . S
O1661 C1670 1.250 . S
O1662 Mn1657 2.121 . S
O1662 C1670 1.258 . S
C1663 N1664 1.326 . S
C1663 C1667 1.460 . S
C1663 H1669 0.929 . S
N1664 Mn1657 2.257 . S
N1664 C1663 1.326 . S
N1664 C1668 1.362 . S
C1665 C1666 1.258 . S
C1665 C1668 1.431 . S
C1665 C1685 1.449 . S
C1666 C1665 1.258 . S
C1666 C1667 1.477 . S
C1666 H1686 0.931 . S
C1667 C1663 1.460 . S
C1667 C1666 1.477 . S
C1667 H1687 0.930 . S
C1668 N1664 1.362 . S
C1668 C1665 1.431 . S
C1668 C1678 1.476 . S
H1669 C1663 0.929 . S
C1670 O1661 1.250 . S
C1670 O1662 1.258 . S
O1671 Mn1656 2.162 . S
O1671 C1659 1.281 . S
O1672 Mn1656 2.297 . S
O1672 C1659 1.236 . S
N1673 Mn1657 2.282 . S
N1673 C1674 1.328 . S
N1673 C1678 1.318 . S
C1674 N1673 1.328 . S
C1674 C1675 1.457 . S
C1674 H1679 0.929 . S
C1675 C1674 1.457 . S
C1675 C1676 1.291 . S
C1675 H1688 0.931 . S
C1676 C1675 1.291 . S
C1676 C1677 1.373 . S
C1676 H1689 0.929 . S
C1677 C1676 1.373 . S
C1677 C1678 1.396 . S
C1677 C1684 1.403 . S
C1678 C1668 1.476 . S
C1678 N1673 1.318 . S
C1678 C1677 1.396 . S
H1679 C1674 0.929 . S
O1680 Mn1656 2.385 . S
O1680 C1658 1.234 . S
O1681 Mn1656 2.209 . S
O1681 Mn1657 2.215 . S
O1681 C1658 1.283 . S
O1682 Mn1656 2.094 . S
O1682 C1660 1.240 . S
O1683 Mn1657 2.117 . S
O1683 C1660 1.264 . S
C1684 C1677 1.403 . S
C1684 C1685 1.399 . S
C1684 H1690 0.929 1_565 S
C1685 C1665 1.449 . S
C1685 C1684 1.399 . S
C1685 H1691 0.930 1_565 S
H1686 C1666 0.931 . S
H1687 C1667 0.930 . S
H1688 C1675 0.931 . S
H1689 C1676 0.929 . S
H1690 C1684 0.929 1_545 S
H1691 C1685 0.930 1_545 S
Mn1692 O1697 2.095 . S
Mn1692 O1707 2.162 . S
Mn1692 O1708 2.297 . S
Mn1692 O1716 2.385 . S
Mn1692 O1717 2.209 . S
Mn1692 O1718 2.094 . S
Mn1693 O1698 2.121 . S
Mn1693 N1700 2.257 1_545 S
Mn1693 N1709 2.282 . S
Mn1693 O1717 2.215 . S
Mn1693 O1719 2.117 . S
C1694 O1716 1.234 . S
C1694 O1717 1.283 . S
C1695 O1707 1.281 . S
C1695 O1708 1.236 . S
C1696 O1718 1.240 . S
C1696 O1719 1.264 . S
O1697 Mn1692 2.095 . S
O1697 C1706 1.250 . S
O1698 Mn1693 2.121 . S
O1698 C1706 1.258 . S
C1699 N1700 1.326 . S
C1699 C1703 1.460 . S
C1699 H1705 0.929 . S
N1700 Mn1693 2.257 1_565 S
N1700 C1699 1.326 . S
N1700 C1704 1.362 . S
C1701 C1702 1.258 . S
C1701 C1704 1.431 . S
C1701 C1721 1.449 . S
C1702 C1701 1.258 . S
C1702 C1703 1.477 . S
C1702 H1722 0.931 . S
C1703 C1699 1.460 . S
C1703 C1702 1.477 . S
C1703 H1723 0.930 . S
C1704 N1700 1.362 . S
C1704 C1701 1.431 . S
C1704 C1714 1.476 . S
H1705 C1699 0.929 . S
C1706 O1697 1.250 . S
C1706 O1698 1.258 . S
O1707 Mn1692 2.162 . S
O1707 C1695 1.281 . S
O1708 Mn1692 2.297 . S
O1708 C1695 1.236 . S
N1709 Mn1693 2.282 . S
N1709 C1710 1.328 . S
N1709 C1714 1.318 1_545 S
C1710 N1709 1.328 . S
C1710 C1711 1.457 . S
C1710 H1715 0.929 . S
C1711 C1710 1.457 . S
C1711 C1712 1.291 . S
C1711 H1724 0.931 . S
C1712 C1711 1.291 . S
C1712 C1713 1.373 1_545 S
C1712 H1725 0.929 . S
C1713 C1712 1.373 1_565 S
C1713 C1714 1.396 . S
C1713 C1720 1.403 . S
C1714 C1704 1.476 . S
C1714 N1709 1.318 1_565 S
C1714 C1713 1.396 . S
H1715 C1710 0.929 . S
O1716 Mn1692 2.385 . S
O1716 C1694 1.234 . S
O1717 Mn1692 2.209 . S
O1717 Mn1693 2.215 . S
O1717 C1694 1.283 . S
O1718 Mn1692 2.094 . S
O1718 C1696 1.240 . S
O1719 Mn1693 2.117 . S
O1719 C1696 1.264 . S
C1720 C1713 1.403 . S
C1720 C1721 1.399 . S
C1720 H1726 0.929 . S
C1721 C1701 1.449 . S
C1721 C1720 1.399 . S
C1721 H1727 0.930 . S
H1722 C1702 0.931 . S
H1723 C1703 0.930 . S
H1724 C1711 0.931 . S
H1725 C1712 0.929 . S
H1726 C1720 0.929 . S
H1727 C1721 0.930 . S
H1728 C1734 0.930 . S
H1729 C1737 0.930 . S
H1730 C1738 0.930 1_655 S
H1731 C1739 0.898 1_655 S
H1732 C1742 0.930 . S
H1733 C1743 0.930 . S
C1734 H1728 0.930 . S
C1734 C1735 1.355 . S
C1734 C1736 1.415 . S
C1735 C1734 1.355 . S
C1735 C1737 1.419 . S
C1736 C1734 1.415 . S
C1736 C1741 1.425 . S
C1736 C1743 1.409 . S
C1737 H1729 0.930 . S
C1737 C1735 1.419 . S
C1737 C1738 1.362 . S
C1738 H1730 0.930 1_455 S
C1738 C1737 1.362 . S
C1738 C1741 1.409 . S
C1739 H1731 0.898 1_455 S
C1739 C1740 1.355 . S
C1739 C1741 1.415 . S
C1740 C1739 1.355 . S
C1740 C1742 1.419 . S
C1741 C1736 1.425 . S
C1741 C1738 1.409 . S
C1741 C1739 1.415 . S
C1742 H1732 0.930 . S
C1742 C1740 1.419 . S
C1742 C1743 1.362 . S
C1743 H1733 0.930 . S
C1743 C1736 1.409 . S
C1743 C1742 1.362 . S
H1744 C1750 0.930 . S
H1745 C1753 0.930 . S
H1746 C1754 0.930 . S
H1747 C1755 0.930 . S
H1748 C1758 0.930 . S
H1749 C1759 0.930 . S
C1750 H1744 0.930 . S
C1750 C1751 1.355 . S
C1750 C1752 1.415 . S
C1751 C1750 1.355 . S
C1751 C1753 1.419 . S
C1752 C1750 1.415 . S
C1752 C1757 1.425 . S
C1752 C1759 1.409 . S
C1753 H1745 0.930 . S
C1753 C1751 1.419 . S
C1753 C1754 1.362 . S
C1754 H1746 0.930 . S
C1754 C1753 1.362 . S
C1754 C1757 1.409 . S
C1755 H1747 0.930 . S
C1755 C1756 1.355 . S
C1755 C1757 1.415 . S
C1756 C1755 1.355 . S
C1756 C1758 1.419 . S
C1757 C1752 1.425 . S
C1757 C1754 1.409 . S
C1757 C1755 1.415 . S
C1758 H1748 0.930 . S
C1758 C1756 1.419 . S
C1758 C1759 1.362 . S
C1759 H1749 0.930 . S
C1759 C1752 1.409 . S
C1759 C1758 1.362 . S
H1760 C1766 0.930 . S
H1761 C1769 0.930 . S
H1762 C1770 0.930 . S
H1763 C1771 0.930 . S
H1764 C1774 0.930 . S
H1765 C1775 0.930 . S
C1766 H1760 0.930 . S
C1766 C1767 1.355 . S
C1766 C1768 1.415 . S
C1767 C1766 1.355 . S
C1767 C1769 1.419 . S
C1768 C1766 1.415 . S
C1768 C1773 1.425 . S
C1768 C1775 1.409 . S
C1769 H1761 0.930 . S
C1769 C1767 1.419 . S
C1769 C1770 1.362 . S
C1770 H1762 0.930 . S
C1770 C1769 1.362 . S
C1770 C1773 1.409 . S
C1771 H1763 0.930 . S
C1771 C1772 1.355 . S
C1771 C1773 1.415 . S
C1772 C1771 1.355 . S
C1772 C1774 1.419 . S
C1773 C1768 1.425 . S
C1773 C1770 1.409 . S
C1773 C1771 1.415 . S
C1774 H1764 0.930 . S
C1774 C1772 1.419 . S
C1774 C1775 1.362 . S
C1775 H1765 0.930 . S
C1775 C1768 1.409 . S
C1775 C1774 1.362 . S
H1776 C1782 0.930 . S
H1777 C1785 0.930 . S
H1778 C1786 0.930 1_554 S
H1779 C1787 0.930 . S
H1780 C1790 0.930 . S
H1781 C1791 0.930 . S
C1782 H1776 0.930 . S
C1782 C1783 1.355 . S
C1782 C1784 1.415 . S
C1783 C1782 1.355 . S
C1783 C1785 1.419 . S
C1784 C1782 1.415 . S
C1784 C1789 1.425 . S
C1784 C1791 1.409 . S
C1785 H1777 0.930 . S
C1785 C1783 1.419 . S
C1785 C1786 1.362 . S
C1786 H1778 0.930 1_556 S
C1786 C1785 1.362 . S
C1786 C1789 1.409 . S
C1787 H1779 0.930 . S
C1787 C1788 1.355 . S
C1787 C1789 1.415 1_554 S
C1788 C1787 1.355 . S
C1788 C1790 1.419 1_554 S
C1789 C1784 1.425 . S
C1789 C1786 1.409 . S
C1789 C1787 1.415 1_556 S
C1790 H1780 0.930 . S
C1790 C1788 1.419 1_556 S
C1790 C1791 1.362 . S
C1791 H1781 0.930 . S
C1791 C1784 1.409 . S
C1791 C1790 1.362 . S
H1792 C1798 0.930 . S
H1793 C1801 0.930 . S
H1794 C1802 0.930 . S
H1795 C1803 0.930 . S
H1796 C1806 0.930 . S
H1797 C1807 0.930 . S
C1798 H1792 0.930 . S
C1798 C1799 1.355 . S
C1798 C1800 1.415 . S
C1799 C1798 1.355 . S
C1799 C1801 1.419 . S
C1800 C1798 1.415 . S
C1800 C1805 1.425 . S
C1800 C1807 1.409 . S
C1801 H1793 0.930 . S
C1801 C1799 1.419 . S
C1801 C1802 1.362 . S
C1802 H1794 0.930 . S
C1802 C1801 1.362 . S
C1802 C1805 1.409 . S
C1803 H1795 0.930 . S
C1803 C1804 1.355 . S
C1803 C1805 1.415 . S
C1804 C1803 1.355 . S
C1804 C1806 1.419 . S
C1805 C1800 1.425 . S
C1805 C1802 1.409 . S
C1805 C1803 1.415 . S
C1806 H1796 0.930 . S
C1806 C1804 1.419 . S
C1806 C1807 1.362 . S
C1807 H1797 0.930 . S
C1807 C1800 1.409 . S
C1807 C1806 1.362 . S
H1808 C1814 0.930 . S
H1809 C1817 0.930 . S
H1810 C1818 0.930 . S
H1811 C1819 0.930 . S
H1812 C1822 0.930 . S
H1813 C1823 0.930 . S
C1814 H1808 0.930 . S
C1814 C1815 1.355 . S
C1814 C1816 1.415 . S
C1815 C1814 1.355 . S
C1815 C1817 1.419 . S
C1816 C1814 1.415 . S
C1816 C1821 1.425 . S
C1816 C1823 1.409 . S
C1817 H1809 0.930 . S
C1817 C1815 1.419 . S
C1817 C1818 1.362 . S
C1818 H1810 0.930 . S
C1818 C1817 1.362 . S
C1818 C1821 1.409 . S
C1819 H1811 0.930 . S
C1819 C1820 1.355 . S
C1819 C1821 1.415 . S
C1820 C1819 1.355 . S
C1820 C1822 1.419 . S
C1821 C1816 1.425 . S
C1821 C1818 1.409 . S
C1821 C1819 1.415 . S
C1822 H1812 0.930 . S
C1822 C1820 1.419 . S
C1822 C1823 1.362 . S
C1823 H1813 0.930 . S
C1823 C1816 1.409 . S
C1823 C1822 1.362 . S
H1824 C1830 0.930 . S
H1825 C1833 0.930 . S
H1826 C1834 0.930 . S
H1827 C1835 0.930 . S
H1828 C1838 0.930 . S
H1829 C1839 0.930 . S
C1830 H1824 0.930 . S
C1830 C1831 1.355 . S
C1830 C1832 1.415 . S
C1831 C1830 1.355 . S
C1831 C1833 1.419 . S
C1832 C1830 1.415 . S
C1832 C1837 1.425 . S
C1832 C1839 1.409 . S
C1833 H1825 0.930 . S
C1833 C1831 1.419 . S
C1833 C1834 1.362 . S
C1834 H1826 0.930 . S
C1834 C1833 1.362 . S
C1834 C1837 1.409 . S
C1835 H1827 0.930 . S
C1835 C1836 1.355 . S
C1835 C1837 1.415 . S
C1836 C1835 1.355 . S
C1836 C1838 1.419 . S
C1837 C1832 1.425 . S
C1837 C1834 1.409 . S
C1837 C1835 1.415 . S
C1838 H1828 0.930 . S
C1838 C1836 1.419 . S
C1838 C1839 1.362 . S
C1839 H1829 0.930 . S
C1839 C1832 1.409 . S
C1839 C1838 1.362 . S
H1840 C1846 0.930 . S
H1841 C1849 0.930 . S
H1842 C1850 0.930 . S
H1843 C1851 0.930 . S
H1844 C1854 0.955 . S
H1845 C1855 0.930 . S
C1846 H1840 0.930 . S
C1846 C1847 1.355 . S
C1846 C1848 1.415 . S
C1847 C1846 1.355 . S
C1847 C1849 1.419 1_655 S
C1848 C1846 1.415 . S
C1848 C1853 1.425 1_655 S
C1848 C1855 1.409 . S
C1849 H1841 0.930 . S
C1849 C1847 1.419 1_455 S
C1849 C1850 1.362 . S
C1850 H1842 0.930 . S
C1850 C1849 1.362 . S
C1850 C1853 1.409 . S
C1851 H1843 0.930 . S
C1851 C1852 1.355 . S
C1851 C1853 1.415 . S
C1852 C1851 1.355 . S
C1852 C1854 1.369 1_455 S
C1853 C1848 1.425 1_455 S
C1853 C1850 1.409 . S
C1853 C1851 1.415 . S
C1854 H1844 0.955 . S
C1854 C1852 1.369 1_655 S
C1854 C1855 1.388 . S
C1855 H1845 0.930 . S
C1855 C1848 1.409 . S
C1855 C1854 1.388 . S
H1856 C1862 0.930 1_565 S
H1857 C1865 0.930 . S
H1858 C1866 0.930 . S
H1859 C1867 0.930 . S
H1860 C1870 0.930 . S
H1861 C1871 0.930 1_565 S
C1862 H1856 0.930 1_545 S
C1862 C1863 1.355 . S
C1862 C1864 1.415 . S
C1863 C1862 1.355 . S
C1863 C1865 1.419 . S
C1864 C1862 1.415 . S
C1864 C1869 1.425 . S
C1864 C1871 1.409 . S
C1865 H1857 0.930 . S
C1865 C1863 1.419 . S
C1865 C1866 1.362 . S
C1866 H1858 0.930 . S
C1866 C1865 1.362 . S
C1866 C1869 1.409 . S
C1867 H1859 0.930 . S
C1867 C1868 1.355 . S
C1867 C1869 1.415 . S
C1868 C1867 1.355 . S
C1868 C1870 1.419 . S
C1869 C1864 1.425 . S
C1869 C1866 1.409 . S
C1869 C1867 1.415 . S
C1870 H1860 0.930 . S
C1870 C1868 1.419 . S
C1870 C1871 1.362 . S
C1871 H1861 0.930 1_545 S
C1871 C1864 1.409 . S
C1871 C1870 1.362 . S
H1872 C1878 0.930 . S
H1873 C1881 0.930 . S
H1874 C1882 0.930 . S
H1875 C1883 0.930 . S
H1876 C1886 0.930 . S
H1877 C1887 0.930 . S
C1878 H1872 0.930 . S
C1878 C1879 1.355 1_565 S
C1878 C1880 1.415 . S
C1879 C1878 1.355 1_545 S
C1879 C1881 1.419 . S
C1880 C1878 1.415 . S
C1880 C1885 1.425 . S
C1880 C1887 1.409 . S
C1881 H1873 0.930 . S
C1881 C1879 1.419 . S
C1881 C1882 1.362 . S
C1882 H1874 0.930 . S
C1882 C1881 1.362 . S
C1882 C1885 1.409 1_545 S
C1883 H1875 0.930 . S
C1883 C1884 1.355 . S
C1883 C1885 1.415 . S
C1884 C1883 1.355 . S
C1884 C1886 1.419 . S
C1885 C1880 1.425 . S
C1885 C1882 1.409 1_565 S
C1885 C1883 1.415 . S
C1886 H1876 0.930 . S
C1886 C1884 1.419 . S
C1886 C1887 1.362 . S
C1887 H1877 0.930 . S
C1887 C1880 1.409 . S
C1887 C1886 1.362 . S
H1888 C1894 0.930 . S
H1889 C1897 0.930 . S
H1890 C1898 0.930 . S
H1891 C1899 0.930 . S
H1892 C1902 0.930 . S
H1893 C1903 0.930 . S
C1894 H1888 0.930 . S
C1894 C1895 1.355 . S
C1894 C1896 1.415 . S
C1895 C1894 1.355 . S
C1895 C1897 1.419 . S
C1896 C1894 1.415 . S
C1896 C1901 1.425 . S
C1896 C1903 1.409 . S
C1897 H1889 0.930 . S
C1897 C1895 1.419 . S
C1897 C1898 1.362 . S
C1898 H1890 0.930 . S
C1898 C1897 1.362 . S
C1898 C1901 1.409 . S
C1899 H1891 0.930 . S
C1899 C1900 1.355 . S
C1899 C1901 1.415 . S
C1900 C1899 1.355 . S
C1900 C1902 1.419 . S
C1901 C1896 1.425 . S
C1901 C1898 1.409 . S
C1901 C1899 1.415 . S
C1902 H1892 0.930 . S
C1902 C1900 1.419 . S
C1902 C1903 1.362 . S
C1903 H1893 0.930 . S
C1903 C1896 1.409 . S
C1903 C1902 1.362 . S
H1904 C1910 0.930 1_556 S
H1905 C1913 0.930 . S
H1906 C1914 0.930 . S
H1907 C1915 0.930 . S
H1908 C1918 0.930 . S
H1909 C1919 0.930 . S
C1910 H1904 0.930 1_554 S
C1910 C1911 1.355 . S
C1910 C1912 1.415 . S
C1911 C1910 1.355 . S
C1911 C1913 1.419 . S
C1912 C1910 1.415 . S
C1912 C1917 1.425 . S
C1912 C1919 1.409 1_554 S
C1913 H1905 0.930 . S
C1913 C1911 1.419 . S
C1913 C1914 1.362 . S
C1914 H1906 0.930 . S
C1914 C1913 1.362 . S
C1914 C1917 1.409 . S
C1915 H1907 0.930 . S
C1915 C1916 1.355 1_554 S
C1915 C1917 1.415 . S
C1916 C1915 1.355 1_556 S
C1916 C1918 1.419 . S
C1917 C1912 1.425 . S
C1917 C1914 1.409 . S
C1917 C1915 1.415 . S
C1918 H1908 0.930 . S
C1918 C1916 1.419 . S
C1918 C1919 1.362 . S
C1919 H1909 0.930 . S
C1919 C1912 1.409 1_556 S
C1919 C1918 1.362 . S
H1920 C1926 0.930 . S
H1921 C1929 0.930 . S
H1922 C1930 0.930 . S
H1923 C1931 0.930 . S
H1924 C1934 0.930 . S
H1925 C1935 0.930 . S
C1926 H1920 0.930 . S
C1926 C1927 1.355 . S
C1926 C1928 1.415 . S
C1927 C1926 1.355 . S
C1927 C1929 1.419 . S
C1928 C1926 1.415 . S
C1928 C1933 1.425 . S
C1928 C1935 1.409 . S
C1929 H1921 0.930 . S
C1929 C1927 1.419 . S
C1929 C1930 1.362 . S
C1930 H1922 0.930 . S
C1930 C1929 1.362 . S
C1930 C1933 1.409 . S
C1931 H1923 0.930 . S
C1931 C1932 1.355 . S
C1931 C1933 1.415 . S
C1932 C1931 1.355 . S
C1932 C1934 1.419 . S
C1933 C1928 1.425 . S
C1933 C1930 1.409 . S
C1933 C1931 1.415 . S
C1934 H1924 0.930 . S
C1934 C1932 1.419 . S
C1934 C1935 1.362 . S
C1935 H1925 0.930 . S
C1935 C1928 1.409 . S
C1935 C1934 1.362 . S
H1936 C1942 0.930 . S
H1937 C1945 0.930 . S
H1938 C1946 0.930 . S
H1939 C1947 0.930 . S
H1940 C1950 0.930 . S
H1941 C1951 0.930 . S
C1942 H1936 0.930 . S
C1942 C1943 1.355 . S
C1942 C1944 1.415 . S
C1943 C1942 1.355 . S
C1943 C1945 1.419 . S
C1944 C1942 1.415 . S
C1944 C1949 1.425 . S
C1944 C1951 1.409 . S
C1945 H1937 0.930 . S
C1945 C1943 1.419 . S
C1945 C1946 1.362 . S
C1946 H1938 0.930 . S
C1946 C1945 1.362 . S
C1946 C1949 1.409 . S
C1947 H1939 0.930 . S
C1947 C1948 1.355 . S
C1947 C1949 1.415 . S
C1948 C1947 1.355 . S
C1948 C1950 1.419 . S
C1949 C1944 1.425 . S
C1949 C1946 1.409 . S
C1949 C1947 1.415 . S
C1950 H1940 0.930 . S
C1950 C1948 1.419 . S
C1950 C1951 1.362 . S
C1951 H1941 0.930 . S
C1951 C1944 1.409 . S
C1951 C1950 1.362 . S
H1952 C1958 0.930 . S
H1953 C1961 0.930 . S
H1954 C1962 0.930 . S
H1955 C1963 0.930 . S
H1956 C1966 0.930 . S
H1957 C1967 0.930 . S
C1958 H1952 0.930 . S
C1958 C1959 1.355 . S
C1958 C1960 1.415 . S
C1959 C1958 1.355 . S
C1959 C1961 1.419 . S
C1960 C1958 1.415 . S
C1960 C1965 1.425 . S
C1960 C1967 1.409 1_655 S
C1961 H1953 0.930 . S
C1961 C1959 1.419 . S
C1961 C1962 1.362 . S
C1962 H1954 0.930 . S
C1962 C1961 1.362 . S
C1962 C1965 1.409 . S
C1963 H1955 0.930 . S
C1963 C1964 1.355 1_655 S
C1963 C1965 1.415 . S
C1964 C1963 1.355 1_455 S
C1964 C1966 1.419 . S
C1965 C1960 1.425 . S
C1965 C1962 1.409 . S
C1965 C1963 1.415 . S
C1966 H1956 0.930 . S
C1966 C1964 1.419 . S
C1966 C1967 1.362 . S
C1967 H1957 0.930 . S
C1967 C1960 1.409 1_455 S
C1967 C1966 1.362 . S
H1968 C1974 0.930 . S
H1969 C1977 0.930 . S
H1970 C1978 0.930 . S
H1971 C1979 0.930 . S
H1972 C1982 0.930 . S
H1973 C1983 0.930 . S
C1974 H1968 0.930 . S
C1974 C1975 1.355 . S
C1974 C1976 1.415 . S
C1975 C1974 1.355 . S
C1975 C1977 1.419 . S
C1976 C1974 1.415 . S
C1976 C1981 1.425 . S
C1976 C1983 1.409 . S
C1977 H1969 0.930 . S
C1977 C1975 1.419 . S
C1977 C1978 1.362 . S
C1978 H1970 0.930 . S
C1978 C1977 1.362 . S
C1978 C1981 1.409 . S
C1979 H1971 0.930 . S
C1979 C1980 1.355 . S
C1979 C1981 1.415 . S
C1980 C1979 1.355 . S
C1980 C1982 1.419 . S
C1981 C1976 1.425 . S
C1981 C1978 1.409 . S
C1981 C1979 1.415 . S
C1982 H1972 0.930 . S
C1982 C1980 1.419 . S
C1982 C1983 1.362 . S
C1983 H1973 0.930 . S
C1983 C1976 1.409 . S
C1983 C1982 1.362 . S
H1984 C1990 0.930 . S
H1985 C1993 0.930 . S
H1986 C1994 0.930 . S
H1987 C1995 0.930 . S
H1988 C1998 0.930 . S
H1989 C1999 0.930 . S
C1990 H1984 0.930 . S
C1990 C1991 1.355 . S
C1990 C1992 1.415 . S
C1991 C1990 1.355 . S
C1991 C1993 1.419 . S
C1992 C1990 1.415 . S
C1992 C1997 1.425 . S
C1992 C1999 1.409 . S
C1993 H1985 0.930 . S
C1993 C1991 1.419 . S
C1993 C1994 1.362 1_545 S
C1994 H1986 0.930 . S
C1994 C1993 1.362 1_565 S
C1994 C1997 1.409 1_565 S
C1995 H1987 0.930 . S
C1995 C1996 1.355 . S
C1995 C1997 1.415 1_565 S
C1996 C1995 1.355 . S
C1996 C1998 1.419 1_565 S
C1997 C1992 1.425 . S
C1997 C1994 1.409 1_545 S
C1997 C1995 1.415 1_545 S
C1998 H1988 0.930 . S
C1998 C1996 1.419 1_545 S
C1998 C1999 1.362 . S
C1999 H1989 0.930 . S
C1999 C1992 1.409 . S
C1999 C1998 1.362 . S
H2000 C2006 0.930 . S
H2001 C2009 0.930 . S
H2002 C2010 0.930 . S
H2003 C2011 0.930 . S
H2004 C2014 0.930 . S
H2005 C2015 0.930 . S
C2006 H2000 0.930 . S
C2006 C2007 1.355 . S
C2006 C2008 1.415 . S
C2007 C2006 1.355 . S
C2007 C2009 1.419 . S
C2008 C2006 1.415 . S
C2008 C2013 1.425 . S
C2008 C2015 1.409 . S
C2009 H2001 0.930 . S
C2009 C2007 1.419 . S
C2009 C2010 1.362 . S
C2010 H2002 0.930 . S
C2010 C2009 1.362 . S
C2010 C2013 1.409 . S
C2011 H2003 0.930 . S
C2011 C2012 1.355 . S
C2011 C2013 1.415 . S
C2012 C2011 1.355 . S
C2012 C2014 1.419 . S
C2013 C2008 1.425 . S
C2013 C2010 1.409 . S
C2013 C2011 1.415 . S
C2014 H2004 0.930 . S
C2014 C2012 1.419 . S
C2014 C2015 1.362 . S
C2015 H2005 0.930 . S
C2015 C2008 1.409 . S
C2015 C2014 1.362 . S
H2016 C2022 0.930 . S
H2017 C2025 0.930 . S
H2018 C2026 0.930 . S
H2019 C2027 0.930 . S
H2020 C2030 0.930 . S
H2021 C2031 0.930 . S
C2022 H2016 0.930 . S
C2022 C2023 1.355 . S
C2022 C2024 1.415 . S
C2023 C2022 1.355 . S
C2023 C2025 1.419 . S
C2024 C2022 1.415 . S
C2024 C2029 1.425 . S
C2024 C2031 1.409 . S
C2025 H2017 0.930 . S
C2025 C2023 1.419 . S
C2025 C2026 1.362 . S
C2026 H2018 0.930 . S
C2026 C2025 1.362 . S
C2026 C2029 1.409 . S
C2027 H2019 0.930 . S
C2027 C2028 1.355 . S
C2027 C2029 1.415 . S
C2028 C2027 1.355 . S
C2028 C2030 1.419 . S
C2029 C2024 1.425 . S
C2029 C2026 1.409 . S
C2029 C2027 1.415 . S
C2030 H2020 0.930 . S
C2030 C2028 1.419 . S
C2030 C2031 1.362 . S
C2031 H2021 0.930 . S
C2031 C2024 1.409 . S
C2031 C2030 1.362 . S
H2032 C2038 0.930 . S
H2033 C2041 0.930 . S
H2034 C2042 0.930 . S
H2035 C2043 0.930 . S
H2036 C2046 0.930 . S
H2037 C2047 0.930 . S
C2038 H2032 0.930 . S
C2038 C2039 1.355 . S
C2038 C2040 1.415 . S
C2039 C2038 1.355 . S
C2039 C2041 1.419 . S
C2040 C2038 1.415 . S
C2040 C2045 1.425 . S
C2040 C2047 1.409 . S
C2041 H2033 0.930 . S
C2041 C2039 1.419 . S
C2041 C2042 1.362 . S
C2042 H2034 0.930 . S
C2042 C2041 1.362 . S
C2042 C2045 1.409 . S
C2043 H2035 0.930 . S
C2043 C2044 1.355 . S
C2043 C2045 1.415 . S
C2044 C2043 1.355 . S
C2044 C2046 1.419 . S
C2045 C2040 1.425 . S
C2045 C2042 1.409 . S
C2045 C2043 1.415 . S
C2046 H2036 0.930 . S
C2046 C2044 1.419 . S
C2046 C2047 1.362 . S
C2047 H2037 0.930 . S
C2047 C2040 1.409 . S
C2047 C2046 1.362 . S
H2048 C2054 0.930 . S
H2049 C2057 0.930 . S
H2050 C2058 0.930 . S
H2051 C2059 0.930 . S
H2052 C2062 0.930 . S
H2053 C2063 0.930 . S
C2054 H2048 0.930 . S
C2054 C2055 1.355 . S
C2054 C2056 1.415 . S
C2055 C2054 1.355 . S
C2055 C2057 1.419 . S
C2056 C2054 1.415 . S
C2056 C2061 1.425 . S
C2056 C2063 1.409 . S
C2057 H2049 0.930 . S
C2057 C2055 1.419 . S
C2057 C2058 1.362 . S
C2058 H2050 0.930 . S
C2058 C2057 1.362 . S
C2058 C2061 1.409 . S
C2059 H2051 0.930 . S
C2059 C2060 1.355 . S
C2059 C2061 1.415 . S
C2060 C2059 1.355 . S
C2060 C2062 1.419 . S
C2061 C2056 1.425 . S
C2061 C2058 1.409 . S
C2061 C2059 1.415 . S
C2062 H2052 0.930 . S
C2062 C2060 1.419 . S
C2062 C2063 1.362 . S
C2063 H2053 0.930 . S
C2063 C2056 1.409 . S
C2063 C2062 1.362 . S
H2064 C2070 0.930 . S
H2065 C2073 0.930 . S
H2066 C2074 0.930 . S
H2067 C2075 0.930 . S
H2068 C2078 0.930 . S
H2069 C2079 0.930 . S
C2070 H2064 0.930 . S
C2070 C2071 1.355 . S
C2070 C2072 1.415 . S
C2071 C2070 1.355 . S
C2071 C2073 1.419 . S
C2072 C2070 1.415 . S
C2072 C2077 1.425 . S
C2072 C2079 1.409 . S
C2073 H2065 0.930 . S
C2073 C2071 1.419 . S
C2073 C2074 1.362 . S
C2074 H2066 0.930 . S
C2074 C2073 1.362 . S
C2074 C2077 1.409 . S
C2075 H2067 0.930 . S
C2075 C2076 1.355 . S
C2075 C2077 1.415 . S
C2076 C2075 1.355 . S
C2076 C2078 1.419 . S
C2077 C2072 1.425 . S
C2077 C2074 1.409 . S
C2077 C2075 1.415 . S
C2078 H2068 0.930 . S
C2078 C2076 1.419 . S
C2078 C2079 1.362 . S
C2079 H2069 0.930 . S
C2079 C2072 1.409 . S
C2079 C2078 1.362 . S
H2080 C2086 0.930 . S
H2081 C2089 0.930 . S
H2082 C2090 0.930 . S
H2083 C2091 0.930 . S
H2084 C2094 0.930 . S
H2085 C2095 0.930 . S
C2086 H2080 0.930 . S
C2086 C2087 1.355 . S
C2086 C2088 1.415 . S
C2087 C2086 1.355 . S
C2087 C2089 1.419 . S
C2088 C2086 1.415 . S
C2088 C2093 1.425 . S
C2088 C2095 1.409 . S
C2089 H2081 0.930 . S
C2089 C2087 1.419 . S
C2089 C2090 1.362 . S
C2090 H2082 0.930 . S
C2090 C2089 1.362 . S
C2090 C2093 1.409 . S
C2091 H2083 0.930 . S
C2091 C2092 1.355 . S
C2091 C2093 1.415 . S
C2092 C2091 1.355 . S
C2092 C2094 1.419 . S
C2093 C2088 1.425 . S
C2093 C2090 1.409 . S
C2093 C2091 1.415 . S
C2094 H2084 0.930 . S
C2094 C2092 1.419 . S
C2094 C2095 1.362 . S
C2095 H2085 0.930 . S
C2095 C2088 1.409 . S
C2095 C2094 1.362 . S
H2096 C2102 0.930 . S
H2097 C2105 0.930 . S
H2098 C2106 0.930 . S
H2099 C2107 0.930 . S
H2100 C2110 0.930 . S
H2101 C2111 0.930 . S
C2102 H2096 0.930 . S
C2102 C2103 1.355 . S
C2102 C2104 1.415 . S
C2103 C2102 1.355 . S
C2103 C2105 1.419 . S
C2104 C2102 1.415 . S
C2104 C2109 1.425 . S
C2104 C2111 1.409 . S
C2105 H2097 0.930 . S
C2105 C2103 1.419 . S
C2105 C2106 1.362 . S
C2106 H2098 0.930 . S
C2106 C2105 1.362 . S
C2106 C2109 1.409 . S
C2107 H2099 0.930 . S
C2107 C2108 1.355 . S
C2107 C2109 1.415 . S
C2108 C2107 1.355 . S
C2108 C2110 1.419 . S
C2109 C2104 1.425 . S
C2109 C2106 1.409 . S
C2109 C2107 1.415 . S
C2110 H2100 0.930 . S
C2110 C2108 1.419 . S
C2110 C2111 1.362 . S
C2111 H2101 0.930 . S
C2111 C2104 1.409 . S
C2111 C2110 1.362 . S
H2112 C2118 0.930 . S
H2113 C2121 0.930 . S
H2114 C2122 0.930 . S
H2115 C2123 0.930 . S
H2116 C2126 0.930 . S
H2117 C2127 0.930 . S
C2118 H2112 0.930 . S
C2118 C2119 1.355 . S
C2118 C2120 1.415 . S
C2119 C2118 1.355 . S
C2119 C2121 1.419 . S
C2120 C2118 1.415 . S
C2120 C2125 1.425 . S
C2120 C2127 1.409 . S
C2121 H2113 0.930 . S
C2121 C2119 1.419 . S
C2121 C2122 1.362 . S
C2122 H2114 0.930 . S
C2122 C2121 1.362 . S
C2122 C2125 1.409 . S
C2123 H2115 0.930 . S
C2123 C2124 1.355 . S
C2123 C2125 1.415 1_655 S
C2124 C2123 1.355 . S
C2124 C2126 1.419 . S
C2125 C2120 1.425 . S
C2125 C2122 1.409 . S
C2125 C2123 1.415 1_455 S
C2126 H2116 0.930 . S
C2126 C2124 1.419 . S
C2126 C2127 1.362 1_655 S
C2127 H2117 0.930 . S
C2127 C2120 1.409 . S
C2127 C2126 1.362 1_455 S
H2128 C2134 0.930 . S
H2129 C2137 0.930 . S
H2130 C2138 0.930 . S
H2131 C2139 0.930 . S
H2132 C2142 0.930 . S
H2133 C2143 0.930 . S
C2134 H2128 0.930 . S
C2134 C2135 1.355 . S
C2134 C2136 1.415 . S
C2135 C2134 1.355 . S
C2135 C2137 1.419 . S
C2136 C2134 1.415 . S
C2136 C2141 1.425 . S
C2136 C2143 1.409 . S
C2137 H2129 0.930 . S
C2137 C2135 1.419 . S
C2137 C2138 1.362 . S
C2138 H2130 0.930 . S
C2138 C2137 1.362 . S
C2138 C2141 1.409 . S
C2139 H2131 0.930 . S
C2139 C2140 1.355 . S
C2139 C2141 1.415 . S
C2140 C2139 1.355 . S
C2140 C2142 1.419 . S
C2141 C2136 1.425 . S
C2141 C2138 1.409 . S
C2141 C2139 1.415 . S
C2142 H2132 0.930 . S
C2142 C2140 1.419 . S
C2142 C2143 1.362 . S
C2143 H2133 0.930 . S
C2143 C2136 1.409 . S
C2143 C2142 1.362 . S
H2144 C2150 0.930 . S
H2145 C2153 0.930 . S
H2146 C2154 0.930 . S
H2147 C2155 0.930 . S
H2148 C2158 0.930 . S
H2149 C2159 0.930 . S
C2150 H2144 0.930 . S
C2150 C2151 1.355 . S
C2150 C2152 1.415 . S
C2151 C2150 1.355 . S
C2151 C2153 1.419 . S
C2152 C2150 1.415 . S
C2152 C2157 1.425 . S
C2152 C2159 1.409 . S
C2153 H2145 0.930 . S
C2153 C2151 1.419 . S
C2153 C2154 1.362 . S
C2154 H2146 0.930 . S
C2154 C2153 1.362 . S
C2154 C2157 1.409 . S
C2155 H2147 0.930 . S
C2155 C2156 1.355 . S
C2155 C2157 1.415 . S
C2156 C2155 1.355 . S
C2156 C2158 1.419 . S
C2157 C2152 1.425 . S
C2157 C2154 1.409 . S
C2157 C2155 1.415 . S
C2158 H2148 0.930 . S
C2158 C2156 1.419 . S
C2158 C2159 1.362 . S
C2159 H2149 0.930 . S
C2159 C2152 1.409 . S
C2159 C2158 1.362 . S
H2160 C2166 0.930 . S
H2161 C2169 0.930 . S
H2162 C2170 0.930 . S
H2163 C2171 0.930 . S
H2164 C2174 0.930 . S
H2165 C2175 0.930 . S
C2166 H2160 0.930 . S
C2166 C2167 1.355 . S
C2166 C2168 1.415 . S
C2167 C2166 1.355 . S
C2167 C2169 1.419 . S
C2168 C2166 1.415 . S
C2168 C2173 1.425 . S
C2168 C2175 1.409 . S
C2169 H2161 0.930 . S
C2169 C2167 1.419 . S
C2169 C2170 1.362 . S
C2170 H2162 0.930 . S
C2170 C2169 1.362 . S
C2170 C2173 1.409 . S
C2171 H2163 0.930 . S
C2171 C2172 1.355 . S
C2171 C2173 1.415 . S
C2172 C2171 1.355 . S
C2172 C2174 1.419 . S
C2173 C2168 1.425 . S
C2173 C2170 1.409 . S
C2173 C2171 1.415 . S
C2174 H2164 0.930 . S
C2174 C2172 1.419 . S
C2174 C2175 1.362 . S
C2175 H2165 0.930 . S
C2175 C2168 1.409 . S
C2175 C2174 1.362 . S
H2176 C2182 0.930 . S
H2177 C2185 0.930 . S
H2178 C2186 0.930 . S
H2179 C2187 0.930 1_565 S
H2180 C2190 0.930 . S
H2181 C2191 0.930 . S
C2182 H2176 0.930 . S
C2182 C2183 1.355 1_545 S
C2182 C2184 1.415 . S
C2183 C2182 1.355 1_565 S
C2183 C2185 1.419 . S
C2184 C2182 1.415 . S
C2184 C2189 1.392 1_545 S
C2184 C2191 1.409 . S
C2185 H2177 0.930 . S
C2185 C2183 1.419 . S
C2185 C2186 1.362 . S
C2186 H2178 0.930 . S
C2186 C2185 1.362 . S
C2186 C2189 1.455 . S
C2187 H2179 0.930 1_545 S
C2187 C2188 1.355 . S
C2187 C2189 1.402 1_545 S
C2188 C2187 1.355 . S
C2188 C2190 1.419 . S
C2189 C2184 1.392 1_565 S
C2189 C2186 1.455 . S
C2189 C2187 1.402 1_565 S
C2190 H2180 0.930 . S
C2190 C2188 1.419 . S
C2190 C2191 1.362 . S
C2191 H2181 0.930 . S
C2191 C2184 1.409 . S
C2191 C2190 1.362 . S
H2192 C2198 0.930 . S
H2193 C2201 0.930 . S
H2194 C2202 0.930 . S
H2195 C2203 0.930 . S
H2196 C2206 0.930 . S
H2197 C2207 0.930 . S
C2198 H2192 0.930 . S
C2198 C2199 1.355 . S
C2198 C2200 1.415 . S
C2199 C2198 1.355 . S
C2199 C2201 1.419 . S
C2200 C2198 1.415 . S
C2200 C2205 1.425 . S
C2200 C2207 1.409 . S
C2201 H2193 0.930 . S
C2201 C2199 1.419 . S
C2201 C2202 1.362 . S
C2202 H2194 0.930 . S
C2202 C2201 1.362 . S
C2202 C2205 1.409 . S
C2203 H2195 0.930 . S
C2203 C2204 1.355 . S
C2203 C2205 1.415 . S
C2204 C2203 1.355 . S
C2204 C2206 1.419 . S
C2205 C2200 1.425 . S
C2205 C2202 1.409 . S
C2205 C2203 1.415 . S
C2206 H2196 0.930 . S
C2206 C2204 1.419 . S
C2206 C2207 1.362 . S
C2207 H2197 0.930 . S
C2207 C2200 1.409 . S
C2207 C2206 1.362 . S
H2208 C2214 0.930 . S
H2209 C2217 0.930 . S
H2210 C2218 0.930 . S
H2211 C2219 0.930 . S
H2212 C2222 0.930 . S
H2213 C2223 0.930 . S
C2214 H2208 0.930 . S
C2214 C2215 1.355 . S
C2214 C2216 1.415 . S
C2215 C2214 1.355 . S
C2215 C2217 1.419 . S
C2216 C2214 1.415 . S
C2216 C2221 1.425 . S
C2216 C2223 1.409 . S
C2217 H2209 0.930 . S
C2217 C2215 1.419 . S
C2217 C2218 1.362 . S
C2218 H2210 0.930 . S
C2218 C2217 1.362 . S
C2218 C2221 1.409 . S
C2219 H2211 0.930 . S
C2219 C2220 1.355 . S
C2219 C2221 1.415 . S
C2220 C2219 1.355 . S
C2220 C2222 1.419 . S
C2221 C2216 1.425 . S
C2221 C2218 1.409 . S
C2221 C2219 1.415 . S
C2222 H2212 0.930 . S
C2222 C2220 1.419 . S
C2222 C2223 1.362 . S
C2223 H2213 0.930 . S
C2223 C2216 1.409 . S
C2223 C2222 1.362 . S
H2224 C2230 0.930 . S
H2225 C2233 0.930 . S
H2226 C2234 0.930 . S
H2227 C2235 0.930 . S
H2228 C2238 0.930 . S
H2229 C2239 0.930 . S
C2230 H2224 0.930 . S
C2230 C2231 1.355 . S
C2230 C2232 1.415 . S
C2231 C2230 1.355 . S
C2231 C2233 1.419 . S
C2232 C2230 1.415 . S
C2232 C2237 1.425 . S
C2232 C2239 1.409 . S
C2233 H2225 0.930 . S
C2233 C2231 1.419 . S
C2233 C2234 1.362 . S
C2234 H2226 0.930 . S
C2234 C2233 1.362 . S
C2234 C2237 1.409 . S
C2235 H2227 0.930 . S
C2235 C2236 1.355 . S
C2235 C2237 1.415 . S
C2236 C2235 1.355 . S
C2236 C2238 1.419 . S
C2237 C2232 1.425 . S
C2237 C2234 1.409 . S
C2237 C2235 1.415 . S
C2238 H2228 0.930 . S
C2238 C2236 1.419 . S
C2238 C2239 1.362 . S
C2239 H2229 0.930 . S
C2239 C2232 1.409 . S
C2239 C2238 1.362 . S
H2240 C2246 0.930 . S
H2241 C2249 0.930 . S
H2242 C2250 0.930 . S
H2243 C2251 0.930 . S
H2244 C2254 0.930 . S
H2245 C2255 0.930 . S
C2246 H2240 0.930 . S
C2246 C2247 1.355 . S
C2246 C2248 1.415 . S
C2247 C2246 1.355 . S
C2247 C2249 1.419 . S
C2248 C2246 1.415 . S
C2248 C2253 1.425 . S
C2248 C2255 1.409 . S
C2249 H2241 0.930 . S
C2249 C2247 1.419 . S
C2249 C2250 1.362 . S
C2250 H2242 0.930 . S
C2250 C2249 1.362 . S
C2250 C2253 1.409 . S
C2251 H2243 0.930 . S
C2251 C2252 1.355 . S
C2251 C2253 1.415 . S
C2252 C2251 1.355 . S
C2252 C2254 1.419 . S
C2253 C2248 1.425 . S
C2253 C2250 1.409 . S
C2253 C2251 1.415 . S
C2254 H2244 0.930 . S
C2254 C2252 1.419 . S
C2254 C2255 1.362 . S
C2255 H2245 0.930 . S
C2255 C2248 1.409 . S
C2255 C2254 1.362 . S
H2256 C2262 0.930 . S
H2257 C2265 0.930 . S
H2258 C2266 0.930 . S
H2259 C2267 0.930 . S
H2260 C2270 0.930 . S
H2261 C2271 0.930 . S
C2262 H2256 0.930 . S
C2262 C2263 1.355 . S
C2262 C2264 1.415 . S
C2263 C2262 1.355 . S
C2263 C2265 1.419 . S
C2264 C2262 1.415 . S
C2264 C2269 1.425 . S
C2264 C2271 1.409 . S
C2265 H2257 0.930 . S
C2265 C2263 1.419 . S
C2265 C2266 1.362 . S
C2266 H2258 0.930 . S
C2266 C2265 1.362 . S
C2266 C2269 1.409 . S
C2267 H2259 0.930 . S
C2267 C2268 1.355 . S
C2267 C2269 1.415 . S
C2268 C2267 1.355 . S
C2268 C2270 1.419 . S
C2269 C2264 1.425 . S
C2269 C2266 1.409 . S
C2269 C2267 1.415 . S
C2270 H2260 0.930 . S
C2270 C2268 1.419 . S
C2270 C2271 1.362 . S
C2271 H2261 0.930 . S
C2271 C2264 1.409 . S
C2271 C2270 1.362 . S
H2272 C2278 0.930 . S
H2273 C2281 0.930 . S
H2274 C2282 0.930 . S
H2275 C2283 0.930 . S
H2276 C2286 0.930 . S
H2277 C2287 0.930 . S
C2278 H2272 0.930 . S
C2278 C2279 1.355 . S
C2278 C2280 1.415 . S
C2279 C2278 1.355 . S
C2279 C2281 1.419 . S
C2280 C2278 1.415 . S
C2280 C2285 1.425 . S
C2280 C2287 1.409 . S
C2281 H2273 0.930 . S
C2281 C2279 1.419 . S
C2281 C2282 1.362 . S
C2282 H2274 0.930 . S
C2282 C2281 1.362 . S
C2282 C2285 1.409 . S
C2283 H2275 0.930 . S
C2283 C2284 1.355 . S
C2283 C2285 1.415 . S
C2284 C2283 1.355 . S
C2284 C2286 1.419 . S
C2285 C2280 1.425 . S
C2285 C2282 1.409 . S
C2285 C2283 1.415 . S
C2286 H2276 0.930 . S
C2286 C2284 1.419 . S
C2286 C2287 1.362 . S
C2287 H2277 0.930 . S
C2287 C2280 1.409 . S
C2287 C2286 1.362 . S
H2288 C2294 0.930 . S
H2289 C2297 0.930 . S
H2290 C2298 0.930 . S
H2291 C2299 0.930 . S
H2292 C2302 0.916 1_556 S
H2293 C2303 0.930 . S
C2294 H2288 0.930 . S
C2294 C2295 1.355 . S
C2294 C2296 1.415 . S
C2295 C2294 1.355 . S
C2295 C2297 1.419 1_556 S
C2296 C2294 1.415 . S
C2296 C2301 1.425 1_556 S
C2296 C2303 1.409 . S
C2297 H2289 0.930 . S
C2297 C2295 1.419 1_554 S
C2297 C2298 1.362 . S
C2298 H2290 0.930 . S
C2298 C2297 1.362 . S
C2298 C2301 1.409 . S
C2299 H2291 0.930 . S
C2299 C2300 1.355 . S
C2299 C2301 1.415 . S
C2300 C2299 1.355 . S
C2300 C2302 1.419 . S
C2301 C2296 1.425 1_554 S
C2301 C2298 1.409 . S
C2301 C2299 1.415 . S
C2302 H2292 0.916 1_554 S
C2302 C2300 1.419 . S
C2302 C2303 1.362 1_554 S
C2303 H2293 0.930 . S
C2303 C2296 1.409 . S
C2303 C2302 1.362 1_556 S
H2304 C2310 0.930 . S
H2305 C2313 0.930 . S
H2306 C2314 0.930 . S
H2307 C2315 0.930 . S
H2308 C2318 0.930 . S
H2309 C2319 0.930 . S
C2310 H2304 0.930 . S
C2310 C2311 1.355 . S
C2310 C2312 1.415 . S
C2311 C2310 1.355 . S
C2311 C2313 1.419 . S
C2312 C2310 1.415 . S
C2312 C2317 1.425 . S
C2312 C2319 1.409 . S
C2313 H2305 0.930 . S
C2313 C2311 1.419 . S
C2313 C2314 1.362 . S
C2314 H2306 0.930 . S
C2314 C2313 1.362 . S
C2314 C2317 1.409 . S
C2315 H2307 0.930 . S
C2315 C2316 1.355 . S
C2315 C2317 1.415 . S
C2316 C2315 1.355 . S
C2316 C2318 1.419 . S
C2317 C2312 1.425 . S
C2317 C2314 1.409 . S
C2317 C2315 1.415 . S
C2318 H2308 0.930 . S
C2318 C2316 1.419 . S
C2318 C2319 1.362 . S
C2319 H2309 0.930 . S
C2319 C2312 1.409 . S
C2319 C2318 1.362 . S
H2320 C2326 0.930 . S
H2321 C2329 0.930 . S
H2322 C2330 0.930 . S
H2323 C2331 0.930 . S
H2324 C2334 0.930 . S
H2325 C2335 0.930 . S
C2326 H2320 0.930 . S
C2326 C2327 1.355 . S
C2326 C2328 1.415 . S
C2327 C2326 1.355 . S
C2327 C2329 1.419 . S
C2328 C2326 1.415 . S
C2328 C2333 1.425 . S
C2328 C2335 1.409 . S
C2329 H2321 0.930 . S
C2329 C2327 1.419 . S
C2329 C2330 1.362 . S
C2330 H2322 0.930 . S
C2330 C2329 1.362 . S
C2330 C2333 1.409 . S
C2331 H2323 0.930 . S
C2331 C2332 1.355 . S
C2331 C2333 1.415 . S
C2332 C2331 1.355 . S
C2332 C2334 1.419 . S
C2333 C2328 1.425 . S
C2333 C2330 1.409 . S
C2333 C2331 1.415 . S
C2334 H2324 0.930 . S
C2334 C2332 1.419 . S
C2334 C2335 1.362 . S
C2335 H2325 0.930 . S
C2335 C2328 1.409 . S
C2335 C2334 1.362 . S
H2336 C2342 0.930 . S
H2337 C2345 0.930 . S
H2338 C2346 0.930 . S
H2339 C2347 0.930 . S
H2340 C2350 0.930 . S
H2341 C2351 0.930 . S
C2342 H2336 0.930 . S
C2342 C2343 1.355 . S
C2342 C2344 1.415 . S
C2343 C2342 1.355 . S
C2343 C2345 1.419 . S
C2344 C2342 1.415 . S
C2344 C2349 1.425 . S
C2344 C2351 1.409 . S
C2345 H2337 0.930 . S
C2345 C2343 1.419 . S
C2345 C2346 1.362 . S
C2346 H2338 0.930 . S
C2346 C2345 1.362 . S
C2346 C2349 1.409 . S
C2347 H2339 0.930 . S
C2347 C2348 1.355 . S
C2347 C2349 1.415 . S
C2348 C2347 1.355 . S
C2348 C2350 1.419 . S
C2349 C2344 1.425 . S
C2349 C2346 1.409 . S
C2349 C2347 1.415 . S
C2350 H2340 0.930 . S
C2350 C2348 1.419 . S
C2350 C2351 1.362 . S
C2351 H2341 0.930 . S
C2351 C2344 1.409 . S
C2351 C2350 1.362 . S
H2352 C2358 0.930 . S
H2353 C2361 0.930 . S
H2354 C2362 0.930 . S
H2355 C2363 0.930 . S
H2356 C2366 0.930 . S
H2357 C2367 0.930 . S
C2358 H2352 0.930 . S
C2358 C2359 1.355 . S
C2358 C2360 1.415 . S
C2359 C2358 1.355 . S
C2359 C2361 1.419 . S
C2360 C2358 1.415 . S
C2360 C2365 1.425 . S
C2360 C2367 1.409 . S
C2361 H2353 0.930 . S
C2361 C2359 1.419 . S
C2361 C2362 1.362 . S
C2362 H2354 0.930 . S
C2362 C2361 1.362 . S
C2362 C2365 1.409 . S
C2363 H2355 0.930 . S
C2363 C2364 1.355 . S
C2363 C2365 1.415 . S
C2364 C2363 1.355 . S
C2364 C2366 1.419 . S
C2365 C2360 1.425 . S
C2365 C2362 1.409 . S
C2365 C2363 1.415 . S
C2366 H2356 0.930 . S
C2366 C2364 1.419 . S
C2366 C2367 1.362 . S
C2367 H2357 0.930 . S
C2367 C2360 1.409 . S
C2367 C2366 1.362 . S
H2368 C2374 0.930 . S
H2369 C2377 0.930 . S
H2370 C2378 0.930 . S
H2371 C2379 0.930 . S
H2372 C2382 0.930 . S
H2373 C2383 0.930 . S
C2374 H2368 0.930 . S
C2374 C2375 1.355 . S
C2374 C2376 1.415 . S
C2375 C2374 1.355 . S
C2375 C2377 1.419 . S
C2376 C2374 1.415 . S
C2376 C2381 1.425 . S
C2376 C2383 1.409 . S
C2377 H2369 0.930 . S
C2377 C2375 1.419 . S
C2377 C2378 1.362 . S
C2378 H2370 0.930 . S
C2378 C2377 1.362 . S
C2378 C2381 1.409 . S
C2379 H2371 0.930 . S
C2379 C2380 1.355 . S
C2379 C2381 1.415 . S
C2380 C2379 1.355 . S
C2380 C2382 1.419 . S
C2381 C2376 1.425 . S
C2381 C2378 1.409 . S
C2381 C2379 1.415 . S
C2382 H2372 0.930 . S
C2382 C2380 1.419 . S
C2382 C2383 1.362 . S
C2383 H2373 0.930 . S
C2383 C2376 1.409 . S
C2383 C2382 1.362 . S
H2384 C2390 0.930 . S
H2385 C2393 0.930 . S
H2386 C2394 0.930 . S
H2387 C2395 0.930 . S
H2388 C2398 0.930 . S
H2389 C2399 0.930 . S
C2390 H2384 0.930 . S
C2390 C2391 1.355 . S
C2390 C2392 1.415 . S
C2391 C2390 1.355 . S
C2391 C2393 1.419 . S
C2392 C2390 1.415 . S
C2392 C2397 1.425 . S
C2392 C2399 1.409 . S
C2393 H2385 0.930 . S
C2393 C2391 1.419 . S
C2393 C2394 1.362 . S
C2394 H2386 0.930 . S
C2394 C2393 1.362 . S
C2394 C2397 1.409 . S
C2395 H2387 0.930 . S
C2395 C2396 1.355 . S
C2395 C2397 1.415 . S
C2396 C2395 1.355 . S
C2396 C2398 1.419 . S
C2397 C2392 1.425 . S
C2397 C2394 1.409 . S
C2397 C2395 1.415 . S
C2398 H2388 0.930 . S
C2398 C2396 1.419 . S
C2398 C2399 1.362 . S
C2399 H2389 0.930 . S
C2399 C2392 1.409 . S
C2399 C2398 1.362 . S
H2400 C2406 0.930 . S
H2401 C2409 0.930 . S
H2402 C2410 0.930 . S
H2403 C2411 0.930 . S
H2404 C2414 0.930 . S
H2405 C2415 0.930 . S
C2406 H2400 0.930 . S
C2406 C2407 1.355 . S
C2406 C2408 1.415 . S
C2407 C2406 1.355 . S
C2407 C2409 1.419 . S
C2408 C2406 1.415 . S
C2408 C2413 1.425 . S
C2408 C2415 1.409 . S
C2409 H2401 0.930 . S
C2409 C2407 1.419 . S
C2409 C2410 1.362 . S
C2410 H2402 0.930 . S
C2410 C2409 1.362 . S
C2410 C2413 1.409 . S
C2411 H2403 0.930 . S
C2411 C2412 1.355 . S
C2411 C2413 1.415 . S
C2412 C2411 1.355 . S
C2412 C2414 1.419 . S
C2413 C2408 1.425 . S
C2413 C2410 1.409 . S
C2413 C2411 1.415 . S
C2414 H2404 0.930 . S
C2414 C2412 1.419 . S
C2414 C2415 1.362 . S
C2415 H2405 0.930 . S
C2415 C2408 1.409 . S
C2415 C2414 1.362 . S
H2416 C2422 0.930 . S
H2417 C2425 0.930 . S
H2418 C2426 0.930 . S
H2419 C2427 0.930 . S
H2420 C2430 0.930 . S
H2421 C2431 0.930 . S
C2422 H2416 0.930 . S
C2422 C2423 1.355 . S
C2422 C2424 1.415 . S
C2423 C2422 1.355 . S
C2423 C2425 1.419 . S
C2424 C2422 1.415 . S
C2424 C2429 1.425 . S
C2424 C2431 1.409 . S
C2425 H2417 0.930 . S
C2425 C2423 1.419 . S
C2425 C2426 1.362 . S
C2426 H2418 0.930 . S
C2426 C2425 1.362 . S
C2426 C2429 1.409 . S
C2427 H2419 0.930 . S
C2427 C2428 1.355 . S
C2427 C2429 1.415 . S
C2428 C2427 1.355 . S
C2428 C2430 1.419 . S
C2429 C2424 1.425 . S
C2429 C2426 1.409 . S
C2429 C2427 1.415 . S
C2430 H2420 0.930 . S
C2430 C2428 1.419 . S
C2430 C2431 1.362 . S
C2431 H2421 0.930 . S
C2431 C2424 1.409 . S
C2431 C2430 1.362 . S
H2432 C2438 0.930 . S
H2433 C2441 0.930 . S
H2434 C2442 0.930 . S
H2435 C2443 0.930 . S
H2436 C2446 0.930 . S
H2437 C2447 0.930 . S
C2438 H2432 0.930 . S
C2438 C2439 1.355 . S
C2438 C2440 1.415 . S
C2439 C2438 1.355 . S
C2439 C2441 1.419 . S
C2440 C2438 1.415 . S
C2440 C2445 1.425 . S
C2440 C2447 1.409 . S
C2441 H2433 0.930 . S
C2441 C2439 1.419 . S
C2441 C2442 1.362 . S
C2442 H2434 0.930 . S
C2442 C2441 1.362 . S
C2442 C2445 1.409 . S
C2443 H2435 0.930 . S
C2443 C2444 1.355 . S
C2443 C2445 1.415 . S
C2444 C2443 1.355 . S
C2444 C2446 1.419 . S
C2445 C2440 1.425 . S
C2445 C2442 1.409 . S
C2445 C2443 1.415 . S
C2446 H2436 0.930 . S
C2446 C2444 1.419 . S
C2446 C2447 1.362 . S
C2447 H2437 0.930 . S
C2447 C2440 1.409 . S
C2447 C2446 1.362 . S
H2448 C2454 0.930 . S
H2449 C2457 0.930 . S
H2450 C2458 0.930 . S
H2451 C2459 0.930 . S
H2452 C2462 0.930 . S
H2453 C2463 0.930 . S
C2454 H2448 0.930 . S
C2454 C2455 1.355 . S
C2454 C2456 1.415 . S
C2455 C2454 1.355 . S
C2455 C2457 1.419 . S
C2456 C2454 1.415 . S
C2456 C2461 1.425 . S
C2456 C2463 1.409 . S
C2457 H2449 0.930 . S
C2457 C2455 1.419 . S
C2457 C2458 1.362 . S
C2458 H2450 0.930 . S
C2458 C2457 1.362 . S
C2458 C2461 1.409 . S
C2459 H2451 0.930 . S
C2459 C2460 1.355 . S
C2459 C2461 1.415 . S
C2460 C2459 1.355 . S
C2460 C2462 1.419 . S
C2461 C2456 1.425 . S
C2461 C2458 1.409 . S
C2461 C2459 1.415 . S
C2462 H2452 0.930 . S
C2462 C2460 1.419 . S
C2462 C2463 1.362 . S
C2463 H2453 0.930 . S
C2463 C2456 1.409 . S
C2463 C2462 1.362 . S
H2464 C2470 0.930 . S
H2465 C2473 0.930 . S
H2466 C2474 0.930 . S
H2467 C2475 0.930 . S
H2468 C2478 0.930 . S
H2469 C2479 0.930 . S
C2470 H2464 0.930 . S
C2470 C2471 1.355 . S
C2470 C2472 1.415 . S
C2471 C2470 1.355 . S
C2471 C2473 1.419 . S
C2472 C2470 1.415 . S
C2472 C2477 1.425 . S
C2472 C2479 1.409 . S
C2473 H2465 0.930 . S
C2473 C2471 1.419 . S
C2473 C2474 1.362 . S
C2474 H2466 0.930 . S
C2474 C2473 1.362 . S
C2474 C2477 1.409 . S
C2475 H2467 0.930 . S
C2475 C2476 1.355 . S
C2475 C2477 1.415 . S
C2476 C2475 1.355 . S
C2476 C2478 1.419 . S
C2477 C2472 1.425 . S
C2477 C2474 1.409 . S
C2477 C2475 1.415 . S
C2478 H2468 0.930 . S
C2478 C2476 1.419 . S
C2478 C2479 1.362 . S
C2479 H2469 0.930 . S
C2479 C2472 1.409 . S
C2479 C2478 1.362 . S
H2480 C2486 0.930 . S
H2481 C2489 0.930 . S
H2482 C2490 0.930 . S
H2483 C2491 0.930 . S
H2484 C2494 0.930 . S
H2485 C2495 0.930 . S
C2486 H2480 0.930 . S
C2486 C2487 1.355 . S
C2486 C2488 1.415 . S
C2487 C2486 1.355 . S
C2487 C2489 1.419 . S
C2488 C2486 1.415 . S
C2488 C2493 1.425 . S
C2488 C2495 1.409 . S
C2489 H2481 0.930 . S
C2489 C2487 1.419 . S
C2489 C2490 1.362 . S
C2490 H2482 0.930 . S
C2490 C2489 1.362 . S
C2490 C2493 1.409 . S
C2491 H2483 0.930 . S
C2491 C2492 1.355 . S
C2491 C2493 1.415 . S
C2492 C2491 1.355 . S
C2492 C2494 1.419 . S
C2493 C2488 1.425 . S
C2493 C2490 1.409 . S
C2493 C2491 1.415 . S
C2494 H2484 0.930 . S
C2494 C2492 1.419 . S
C2494 C2495 1.362 . S
C2495 H2485 0.930 . S
C2495 C2488 1.409 . S
C2495 C2494 1.362 . S
H2496 C2502 0.930 . S
H2497 C2505 0.930 . S
H2498 C2506 0.930 . S
H2499 C2507 0.930 . S
H2500 C2510 0.930 . S
H2501 C2511 0.930 . S
C2502 H2496 0.930 . S
C2502 C2503 1.355 . S
C2502 C2504 1.415 . S
C2503 C2502 1.355 . S
C2503 C2505 1.419 . S
C2504 C2502 1.415 . S
C2504 C2509 1.425 . S
C2504 C2511 1.409 . S
C2505 H2497 0.930 . S
C2505 C2503 1.419 . S
C2505 C2506 1.362 . S
C2506 H2498 0.930 . S
C2506 C2505 1.362 . S
C2506 C2509 1.409 . S
C2507 H2499 0.930 . S
C2507 C2508 1.355 . S
C2507 C2509 1.415 . S
C2508 C2507 1.355 . S
C2508 C2510 1.419 . S
C2509 C2504 1.425 . S
C2509 C2506 1.409 . S
C2509 C2507 1.415 . S
C2510 H2500 0.930 . S
C2510 C2508 1.419 . S
C2510 C2511 1.362 . S
C2511 H2501 0.930 . S
C2511 C2504 1.409 . S
C2511 C2510 1.362 . S
H2512 C2518 0.930 . S
H2513 C2521 0.930 . S
H2514 C2522 0.930 . S
H2515 C2523 0.930 . S
H2516 C2526 0.930 . S
H2517 C2527 0.930 . S
C2518 H2512 0.930 . S
C2518 C2519 1.355 . S
C2518 C2520 1.415 1_455 S
C2519 C2518 1.355 . S
C2519 C2521 1.419 . S
C2520 C2518 1.415 1_655 S
C2520 C2525 1.425 . S
C2520 C2527 1.409 . S
C2521 H2513 0.930 . S
C2521 C2519 1.419 . S
C2521 C2522 1.362 1_455 S
C2522 H2514 0.930 . S
C2522 C2521 1.362 1_655 S
C2522 C2525 1.409 . S
C2523 H2515 0.930 . S
C2523 C2524 1.355 . S
C2523 C2525 1.415 . S
C2524 C2523 1.355 . S
C2524 C2526 1.419 . S
C2525 C2520 1.425 . S
C2525 C2522 1.409 . S
C2525 C2523 1.415 . S
C2526 H2516 0.930 . S
C2526 C2524 1.419 . S
C2526 C2527 1.362 . S
C2527 H2517 0.930 . S
C2527 C2520 1.409 . S
C2527 C2526 1.362 . S
H2528 C2534 0.930 . S
H2529 C2537 0.930 . S
H2530 C2538 0.930 . S
H2531 C2539 0.930 . S
H2532 C2542 0.930 . S
H2533 C2543 0.930 . S
C2534 H2528 0.930 . S
C2534 C2535 1.355 . S
C2534 C2536 1.415 . S
C2535 C2534 1.355 . S
C2535 C2537 1.419 . S
C2536 C2534 1.415 . S
C2536 C2541 1.425 . S
C2536 C2543 1.409 . S
C2537 H2529 0.930 . S
C2537 C2535 1.419 . S
C2537 C2538 1.362 . S
C2538 H2530 0.930 . S
C2538 C2537 1.362 . S
C2538 C2541 1.409 . S
C2539 H2531 0.930 . S
C2539 C2540 1.355 . S
C2539 C2541 1.415 . S
C2540 C2539 1.355 . S
C2540 C2542 1.419 . S
C2541 C2536 1.425 . S
C2541 C2538 1.409 . S
C2541 C2539 1.415 . S
C2542 H2532 0.930 . S
C2542 C2540 1.419 . S
C2542 C2543 1.362 . S
C2543 H2533 0.930 . S
C2543 C2536 1.409 . S
C2543 C2542 1.362 . S
H2544 C2550 0.933 . S
H2545 C2553 0.930 . S
H2546 C2554 0.930 . S
H2547 C2555 0.930 . S
H2548 C2558 0.930 . S
H2549 C2559 0.930 . S
C2550 H2544 0.933 . S
C2550 C2551 1.355 . S
C2550 C2552 1.415 1_554 S
C2551 C2550 1.355 . S
C2551 C2553 1.419 . S
C2552 C2550 1.415 1_556 S
C2552 C2557 1.425 . S
C2552 C2559 1.409 . S
C2553 H2545 0.930 . S
C2553 C2551 1.419 . S
C2553 C2554 1.362 . S
C2554 H2546 0.930 . S
C2554 C2553 1.362 . S
C2554 C2557 1.409 1_554 S
C2555 H2547 0.930 . S
C2555 C2556 1.355 . S
C2555 C2557 1.415 . S
C2556 C2555 1.355 . S
C2556 C2558 1.419 . S
C2557 C2552 1.425 . S
C2557 C2554 1.409 1_556 S
C2557 C2555 1.415 . S
C2558 H2548 0.930 . S
C2558 C2556 1.419 . S
C2558 C2559 1.362 . S
C2559 H2549 0.930 . S
C2559 C2552 1.409 . S
C2559 C2558 1.362 . S
H2560 C2566 0.930 . S
H2561 C2569 0.930 . S
H2562 C2570 0.930 . S
H2563 C2571 0.930 . S
H2564 C2574 0.913 1_655 S
H2565 C2575 0.930 1_655 S
C2566 H2560 0.930 . S
C2566 C2567 1.355 . S
C2566 C2568 1.415 . S
C2567 C2566 1.355 . S
C2567 C2569 1.419 . S
C2568 C2566 1.415 . S
C2568 C2573 1.425 . S
C2568 C2575 1.409 . S
C2569 H2561 0.930 . S
C2569 C2567 1.419 . S
C2569 C2570 1.362 . S
C2570 H2562 0.930 . S
C2570 C2569 1.362 . S
C2570 C2573 1.409 . S
C2571 H2563 0.930 . S
C2571 C2572 1.355 . S
C2571 C2573 1.415 . S
C2572 C2571 1.355 . S
C2572 C2574 1.419 . S
C2573 C2568 1.425 . S
C2573 C2570 1.409 . S
C2573 C2571 1.415 . S
C2574 H2564 0.913 1_455 S
C2574 C2572 1.419 . S
C2574 C2575 1.362 . S
C2575 H2565 0.930 1_455 S
C2575 C2568 1.409 . S
C2575 C2574 1.362 . S
H2576 C2582 0.930 . S
H2577 C2585 0.930 . S
H2578 C2586 0.930 . S
H2579 C2587 0.930 . S
H2580 C2590 0.930 . S
H2581 C2591 0.930 . S
C2582 H2576 0.930 . S
C2582 C2583 1.355 . S
C2582 C2584 1.415 . S
C2583 C2582 1.355 . S
C2583 C2585 1.419 . S
C2584 C2582 1.415 . S
C2584 C2589 1.425 . S
C2584 C2591 1.409 . S
C2585 H2577 0.930 . S
C2585 C2583 1.419 . S
C2585 C2586 1.362 . S
C2586 H2578 0.930 . S
C2586 C2585 1.362 . S
C2586 C2589 1.409 . S
C2587 H2579 0.930 . S
C2587 C2588 1.355 . S
C2587 C2589 1.415 . S
C2588 C2587 1.355 . S
C2588 C2590 1.419 . S
C2589 C2584 1.425 . S
C2589 C2586 1.409 . S
C2589 C2587 1.415 . S
C2590 H2580 0.930 . S
C2590 C2588 1.419 . S
C2590 C2591 1.362 . S
C2591 H2581 0.930 . S
C2591 C2584 1.409 . S
C2591 C2590 1.362 . S
H2592 C2598 0.930 . S
H2593 C2601 0.930 . S
H2594 C2602 0.930 . S
H2595 C2603 0.930 . S
H2596 C2606 0.930 . S
H2597 C2607 0.930 . S
C2598 H2592 0.930 . S
C2598 C2599 1.355 . S
C2598 C2600 1.415 . S
C2599 C2598 1.355 . S
C2599 C2601 1.419 . S
C2600 C2598 1.415 . S
C2600 C2605 1.425 . S
C2600 C2607 1.409 . S
C2601 H2593 0.930 . S
C2601 C2599 1.419 . S
C2601 C2602 1.362 . S
C2602 H2594 0.930 . S
C2602 C2601 1.362 . S
C2602 C2605 1.409 . S
C2603 H2595 0.930 . S
C2603 C2604 1.355 . S
C2603 C2605 1.415 . S
C2604 C2603 1.355 . S
C2604 C2606 1.419 . S
C2605 C2600 1.425 . S
C2605 C2602 1.409 . S
C2605 C2603 1.415 . S
C2606 H2596 0.930 . S
C2606 C2604 1.419 . S
C2606 C2607 1.362 . S
C2607 H2597 0.930 . S
C2607 C2600 1.409 . S
C2607 C2606 1.362 . S
H2608 C2614 0.930 . S
H2609 C2617 0.930 1_455 S
H2610 C2618 0.889 1_455 S
H2611 C2619 0.930 . S
H2612 C2622 0.930 . S
H2613 C2623 0.930 . S
C2614 H2608 0.930 . S
C2614 C2615 1.355 . S
C2614 C2616 1.415 . S
C2615 C2614 1.355 . S
C2615 C2617 1.419 . S
C2616 C2614 1.415 . S
C2616 C2621 1.425 . S
C2616 C2623 1.409 . S
C2617 H2609 0.930 1_655 S
C2617 C2615 1.419 . S
C2617 C2618 1.362 . S
C2618 H2610 0.889 1_655 S
C2618 C2617 1.362 . S
C2618 C2621 1.409 . S
C2619 H2611 0.930 . S
C2619 C2620 1.355 . S
C2619 C2621 1.415 . S
C2620 C2619 1.355 . S
C2620 C2622 1.419 . S
C2621 C2616 1.425 . S
C2621 C2618 1.409 . S
C2621 C2619 1.415 . S
C2622 H2612 0.930 . S
C2622 C2620 1.419 . S
C2622 C2623 1.362 . S
C2623 H2613 0.930 . S
C2623 C2616 1.409 . S
C2623 C2622 1.362 . S
H2624 C2630 0.930 . S
H2625 C2633 0.930 . S
H2626 C2634 0.930 . S
H2627 C2635 0.930 . S
H2628 C2638 0.930 . S
H2629 C2639 0.930 . S
C2630 H2624 0.930 . S
C2630 C2631 1.355 . S
C2630 C2632 1.415 . S
C2631 C2630 1.355 . S
C2631 C2633 1.419 . S
C2632 C2630 1.415 . S
C2632 C2637 1.425 . S
C2632 C2639 1.409 . S
C2633 H2625 0.930 . S
C2633 C2631 1.419 . S
C2633 C2634 1.362 . S
C2634 H2626 0.930 . S
C2634 C2633 1.362 . S
C2634 C2637 1.409 . S
C2635 H2627 0.930 . S
C2635 C2636 1.355 . S
C2635 C2637 1.415 . S
C2636 C2635 1.355 . S
C2636 C2638 1.419 . S
C2637 C2632 1.425 . S
C2637 C2634 1.409 . S
C2637 C2635 1.415 . S
C2638 H2628 0.930 . S
C2638 C2636 1.419 . S
C2638 C2639 1.362 . S
C2639 H2629 0.930 . S
C2639 C2632 1.409 . S
C2639 C2638 1.362 . S
H2640 C2646 0.930 . S
H2641 C2649 0.930 . S
H2642 C2650 0.930 . S
H2643 C2651 0.930 . S
H2644 C2654 0.930 . S
H2645 C2655 0.930 . S
C2646 H2640 0.930 . S
C2646 C2647 1.355 . S
C2646 C2648 1.415 . S
C2647 C2646 1.355 . S
C2647 C2649 1.419 1_545 S
C2648 C2646 1.415 . S
C2648 C2653 1.425 1_545 S
C2648 C2655 1.409 . S
C2649 H2641 0.930 . S
C2649 C2647 1.419 1_565 S
C2649 C2650 1.362 . S
C2650 H2642 0.930 . S
C2650 C2649 1.362 . S
C2650 C2653 1.409 . S
C2651 H2643 0.930 . S
C2651 C2652 1.355 . S
C2651 C2653 1.415 . S
C2652 C2651 1.355 . S
C2652 C2654 1.419 1_565 S
C2653 C2648 1.425 1_565 S
C2653 C2650 1.409 . S
C2653 C2651 1.415 . S
C2654 H2644 0.930 . S
C2654 C2652 1.419 1_545 S
C2654 C2655 1.362 . S
C2655 H2645 0.930 . S
C2655 C2648 1.409 . S
C2655 C2654 1.362 . S
H2656 C2662 0.930 . S
H2657 C2665 0.930 . S
H2658 C2666 0.930 . S
H2659 C2667 0.930 . S
H2660 C2670 0.930 . S
H2661 C2671 0.930 . S
C2662 H2656 0.930 . S
C2662 C2663 1.355 . S
C2662 C2664 1.415 1_545 S
C2663 C2662 1.355 . S
C2663 C2665 1.419 . S
C2664 C2662 1.415 1_565 S
C2664 C2669 1.425 . S
C2664 C2671 1.409 . S
C2665 H2657 0.930 . S
C2665 C2663 1.419 . S
C2665 C2666 1.362 1_545 S
C2666 H2658 0.930 . S
C2666 C2665 1.362 1_565 S
C2666 C2669 1.409 . S
C2667 H2659 0.930 . S
C2667 C2668 1.355 . S
C2667 C2669 1.415 . S
C2668 C2667 1.355 . S
C2668 C2670 1.419 . S
C2669 C2664 1.425 . S
C2669 C2666 1.409 . S
C2669 C2667 1.415 . S
C2670 H2660 0.930 . S
C2670 C2668 1.419 . S
C2670 C2671 1.362 . S
C2671 H2661 0.930 . S
C2671 C2664 1.409 . S
C2671 C2670 1.362 . S
H2672 C2678 0.930 . S
H2673 C2681 0.930 . S
H2674 C2682 0.930 . S
H2675 C2683 0.930 . S
H2676 C2686 0.930 . S
H2677 C2687 0.930 . S
C2678 H2672 0.930 . S
C2678 C2679 1.355 . S
C2678 C2680 1.415 . S
C2679 C2678 1.355 . S
C2679 C2681 1.419 . S
C2680 C2678 1.415 . S
C2680 C2685 1.425 . S
C2680 C2687 1.409 . S
C2681 H2673 0.930 . S
C2681 C2679 1.419 . S
C2681 C2682 1.362 . S
C2682 H2674 0.930 . S
C2682 C2681 1.362 . S
C2682 C2685 1.409 . S
C2683 H2675 0.930 . S
C2683 C2684 1.355 . S
C2683 C2685 1.415 . S
C2684 C2683 1.355 . S
C2684 C2686 1.419 . S
C2685 C2680 1.425 . S
C2685 C2682 1.409 . S
C2685 C2683 1.415 . S
C2686 H2676 0.930 . S
C2686 C2684 1.419 . S
C2686 C2687 1.362 . S
C2687 H2677 0.930 . S
C2687 C2680 1.409 . S
C2687 C2686 1.362 . S
H2688 C2694 0.930 . S
H2689 C2697 0.930 . S
H2690 C2698 0.930 . S
H2691 C2699 0.930 . S
H2692 C2702 0.930 . S
H2693 C2703 0.930 . S
C2694 H2688 0.930 . S
C2694 C2695 1.355 . S
C2694 C2696 1.415 . S
C2695 C2694 1.355 . S
C2695 C2697 1.419 . S
C2696 C2694 1.415 . S
C2696 C2701 1.425 . S
C2696 C2703 1.409 . S
C2697 H2689 0.930 . S
C2697 C2695 1.419 . S
C2697 C2698 1.362 . S
C2698 H2690 0.930 . S
C2698 C2697 1.362 . S
C2698 C2701 1.409 . S
C2699 H2691 0.930 . S
C2699 C2700 1.355 . S
C2699 C2701 1.415 . S
C2700 C2699 1.355 . S
C2700 C2702 1.419 . S
C2701 C2696 1.425 . S
C2701 C2698 1.409 . S
C2701 C2699 1.415 . S
C2702 H2692 0.930 . S
C2702 C2700 1.419 . S
C2702 C2703 1.362 . S
C2703 H2693 0.930 . S
C2703 C2696 1.409 . S
C2703 C2702 1.362 . S
H2704 C2710 0.930 . S
H2705 C2713 0.930 . S
H2706 C2714 0.930 . S
H2707 C2715 0.930 . S
H2708 C2718 0.930 . S
H2709 C2719 0.930 . S
C2710 H2704 0.930 . S
C2710 C2711 1.355 . S
C2710 C2712 1.415 . S
C2711 C2710 1.355 . S
C2711 C2713 1.419 . S
C2712 C2710 1.415 . S
C2712 C2717 1.425 . S
C2712 C2719 1.409 . S
C2713 H2705 0.930 . S
C2713 C2711 1.419 . S
C2713 C2714 1.362 . S
C2714 H2706 0.930 . S
C2714 C2713 1.362 . S
C2714 C2717 1.409 . S
C2715 H2707 0.930 . S
C2715 C2716 1.355 . S
C2715 C2717 1.415 . S
C2716 C2715 1.355 . S
C2716 C2718 1.419 . S
C2717 C2712 1.425 . S
C2717 C2714 1.409 . S
C2717 C2715 1.415 . S
C2718 H2708 0.930 . S
C2718 C2716 1.419 . S
C2718 C2719 1.362 . S
C2719 H2709 0.930 . S
C2719 C2712 1.409 . S
C2719 C2718 1.362 . S
H2720 C2726 0.930 1_565 S
H2721 C2729 0.930 . S
H2722 C2730 0.930 . S
H2723 C2731 0.930 . S
H2724 C2734 0.930 . S
H2725 C2735 0.930 . S
C2726 H2720 0.930 1_545 S
C2726 C2727 1.355 . S
C2726 C2728 1.415 . S
C2727 C2726 1.355 . S
C2727 C2729 1.419 . S
C2728 C2726 1.415 . S
C2728 C2733 1.425 . S
C2728 C2735 1.409 1_545 S
C2729 H2721 0.930 . S
C2729 C2727 1.419 . S
C2729 C2730 1.362 . S
C2730 H2722 0.930 . S
C2730 C2729 1.362 . S
C2730 C2733 1.409 . S
C2731 H2723 0.930 . S
C2731 C2732 1.355 . S
C2731 C2733 1.415 . S
C2732 C2731 1.355 . S
C2732 C2734 1.419 1_545 S
C2733 C2728 1.425 . S
C2733 C2730 1.409 . S
C2733 C2731 1.415 . S
C2734 H2724 0.930 . S
C2734 C2732 1.419 1_565 S
C2734 C2735 1.362 . S
C2735 H2725 0.930 . S
C2735 C2728 1.409 1_565 S
C2735 C2734 1.362 . S
H2736 C2742 0.930 . S
H2737 C2745 0.930 . S
H2738 C2746 0.930 . S
H2739 C2747 0.930 . S
H2740 C2750 0.930 . S
H2741 C2751 0.930 . S
C2742 H2736 0.930 . S
C2742 C2743 1.355 . S
C2742 C2744 1.415 . S
C2743 C2742 1.355 . S
C2743 C2745 1.419 . S
C2744 C2742 1.415 . S
C2744 C2749 1.425 . S
C2744 C2751 1.409 . S
C2745 H2737 0.930 . S
C2745 C2743 1.419 . S
C2745 C2746 1.362 . S
C2746 H2738 0.930 . S
C2746 C2745 1.362 . S
C2746 C2749 1.409 . S
C2747 H2739 0.930 . S
C2747 C2748 1.355 . S
C2747 C2749 1.415 . S
C2748 C2747 1.355 . S
C2748 C2750 1.419 . S
C2749 C2744 1.425 . S
C2749 C2746 1.409 . S
C2749 C2747 1.415 . S
C2750 H2740 0.930 . S
C2750 C2748 1.419 . S
C2750 C2751 1.362 . S
C2751 H2741 0.930 . S
C2751 C2744 1.409 . S
C2751 C2750 1.362 . S
H2752 C2758 0.930 . S
H2753 C2761 0.930 . S
H2754 C2762 0.930 . S
H2755 C2763 0.930 . S
H2756 C2766 0.930 . S
H2757 C2767 0.930 . S
C2758 H2752 0.930 . S
C2758 C2759 1.355 . S
C2758 C2760 1.415 . S
C2759 C2758 1.355 . S
C2759 C2761 1.419 . S
C2760 C2758 1.415 . S
C2760 C2765 1.425 . S
C2760 C2767 1.409 . S
C2761 H2753 0.930 . S
C2761 C2759 1.419 . S
C2761 C2762 1.362 . S
C2762 H2754 0.930 . S
C2762 C2761 1.362 . S
C2762 C2765 1.409 . S
C2763 H2755 0.930 . S
C2763 C2764 1.355 . S
C2763 C2765 1.415 1_554 S
C2764 C2763 1.355 . S
C2764 C2766 1.419 . S
C2765 C2760 1.425 . S
C2765 C2762 1.409 . S
C2765 C2763 1.415 1_556 S
C2766 H2756 0.930 . S
C2766 C2764 1.419 . S
C2766 C2767 1.362 1_554 S
C2767 H2757 0.930 . S
C2767 C2760 1.409 . S
C2767 C2766 1.362 1_556 S
H2768 C2774 0.930 . S
H2769 C2777 0.930 . S
H2770 C2778 0.930 . S
H2771 C2779 0.930 . S
H2772 C2782 0.930 . S
H2773 C2783 0.930 . S
C2774 H2768 0.930 . S
C2774 C2775 1.355 . S
C2774 C2776 1.415 . S
C2775 C2774 1.355 . S
C2775 C2777 1.419 1_655 S
C2776 C2774 1.415 . S
C2776 C2781 1.425 1_655 S
C2776 C2783 1.409 . S
C2777 H2769 0.930 . S
C2777 C2775 1.419 1_455 S
C2777 C2778 1.362 . S
C2778 H2770 0.930 . S
C2778 C2777 1.362 . S
C2778 C2781 1.409 . S
C2779 H2771 0.930 . S
C2779 C2780 1.355 . S
C2779 C2781 1.415 . S
C2780 C2779 1.355 . S
C2780 C2782 1.419 1_455 S
C2781 C2776 1.425 1_455 S
C2781 C2778 1.409 . S
C2781 C2779 1.415 . S
C2782 H2772 0.930 . S
C2782 C2780 1.419 1_655 S
C2782 C2783 1.362 . S
C2783 H2773 0.930 . S
C2783 C2776 1.409 . S
C2783 C2782 1.362 . S
H2784 C2790 0.930 . S
H2785 C2793 0.930 . S
H2786 C2794 0.930 . S
H2787 C2795 0.930 . S
H2788 C2798 0.930 . S
H2789 C2799 0.930 . S
C2790 H2784 0.930 . S
C2790 C2791 1.355 . S
C2790 C2792 1.415 . S
C2791 C2790 1.355 . S
C2791 C2793 1.419 . S
C2792 C2790 1.415 . S
C2792 C2797 1.425 . S
C2792 C2799 1.409 . S
C2793 H2785 0.930 . S
C2793 C2791 1.419 . S
C2793 C2794 1.362 . S
C2794 H2786 0.930 . S
C2794 C2793 1.362 . S
C2794 C2797 1.409 . S
C2795 H2787 0.930 . S
C2795 C2796 1.355 . S
C2795 C2797 1.415 . S
C2796 C2795 1.355 . S
C2796 C2798 1.419 . S
C2797 C2792 1.425 . S
C2797 C2794 1.409 . S
C2797 C2795 1.415 . S
C2798 H2788 0.930 . S
C2798 C2796 1.419 . S
C2798 C2799 1.362 . S
C2799 H2789 0.930 . S
C2799 C2792 1.409 . S
C2799 C2798 1.362 . S
H2800 C2806 0.930 . S
H2801 C2809 0.930 . S
H2802 C2810 0.930 . S
H2803 C2811 0.930 . S
H2804 C2814 0.930 . S
H2805 C2815 0.930 . S
C2806 H2800 0.930 . S
C2806 C2807 1.355 . S
C2806 C2808 1.415 . S
C2807 C2806 1.355 . S
C2807 C2809 1.419 . S
C2808 C2806 1.415 . S
C2808 C2813 1.425 . S
C2808 C2815 1.409 . S
C2809 H2801 0.930 . S
C2809 C2807 1.419 . S
C2809 C2810 1.362 . S
C2810 H2802 0.930 . S
C2810 C2809 1.362 . S
C2810 C2813 1.409 . S
C2811 H2803 0.930 . S
C2811 C2812 1.355 . S
C2811 C2813 1.415 . S
C2812 C2811 1.355 . S
C2812 C2814 1.419 . S
C2813 C2808 1.425 . S
C2813 C2810 1.409 . S
C2813 C2811 1.415 . S
C2814 H2804 0.930 . S
C2814 C2812 1.419 . S
C2814 C2815 1.362 . S
C2815 H2805 0.930 . S
C2815 C2808 1.409 . S
C2815 C2814 1.362 . S
H2816 C2822 0.930 . S
H2817 C2825 0.930 . S
H2818 C2826 0.930 . S
H2819 C2827 0.930 . S
H2820 C2830 0.930 . S
H2821 C2831 0.930 . S
C2822 H2816 0.930 . S
C2822 C2823 1.355 . S
C2822 C2824 1.415 . S
C2823 C2822 1.355 . S
C2823 C2825 1.419 . S
C2824 C2822 1.415 . S
C2824 C2829 1.425 . S
C2824 C2831 1.409 . S
C2825 H2817 0.930 . S
C2825 C2823 1.419 . S
C2825 C2826 1.362 . S
C2826 H2818 0.930 . S
C2826 C2825 1.362 . S
C2826 C2829 1.409 . S
C2827 H2819 0.930 . S
C2827 C2828 1.355 . S
C2827 C2829 1.415 . S
C2828 C2827 1.355 . S
C2828 C2830 1.419 . S
C2829 C2824 1.425 . S
C2829 C2826 1.409 . S
C2829 C2827 1.415 . S
C2830 H2820 0.930 . S
C2830 C2828 1.419 . S
C2830 C2831 1.362 . S
C2831 H2821 0.930 . S
C2831 C2824 1.409 . S
C2831 C2830 1.362 . S
H2832 C2838 0.930 1_556 S
H2833 C2841 0.930 . S
H2834 C2842 0.930 . S
H2835 C2843 0.930 . S
H2836 C2846 0.930 . S
H2837 C2847 0.930 . S
C2838 H2832 0.930 1_554 S
C2838 C2839 1.355 . S
C2838 C2840 1.415 . S
C2839 C2838 1.355 . S
C2839 C2841 1.419 . S
C2840 C2838 1.415 . S
C2840 C2845 1.425 . S
C2840 C2847 1.409 1_554 S
C2841 H2833 0.930 . S
C2841 C2839 1.419 . S
C2841 C2842 1.362 . S
C2842 H2834 0.930 . S
C2842 C2841 1.362 . S
C2842 C2845 1.409 . S
C2843 H2835 0.930 . S
C2843 C2844 1.355 . S
C2843 C2845 1.415 . S
C2844 C2843 1.355 . S
C2844 C2846 1.419 1_554 S
C2845 C2840 1.425 . S
C2845 C2842 1.409 . S
C2845 C2843 1.415 . S
C2846 H2836 0.930 . S
C2846 C2844 1.419 1_556 S
C2846 C2847 1.362 . S
C2847 H2837 0.930 . S
C2847 C2840 1.409 1_556 S
C2847 C2846 1.362 . S
H2848 C2854 0.930 . S
H2849 C2857 0.930 . S
H2850 C2858 0.930 . S
H2851 C2859 0.930 . S
H2852 C2862 0.930 . S
H2853 C2863 0.930 . S
C2854 H2848 0.930 . S
C2854 C2855 1.355 . S
C2854 C2856 1.415 . S
C2855 C2854 1.355 . S
C2855 C2857 1.419 . S
C2856 C2854 1.415 . S
C2856 C2861 1.425 . S
C2856 C2863 1.409 . S
C2857 H2849 0.930 . S
C2857 C2855 1.419 . S
C2857 C2858 1.362 . S
C2858 H2850 0.930 . S
C2858 C2857 1.362 . S
C2858 C2861 1.409 . S
C2859 H2851 0.930 . S
C2859 C2860 1.355 . S
C2859 C2861 1.415 . S
C2860 C2859 1.355 . S
C2860 C2862 1.419 . S
C2861 C2856 1.425 . S
C2861 C2858 1.409 . S
C2861 C2859 1.415 . S
C2862 H2852 0.930 . S
C2862 C2860 1.419 . S
C2862 C2863 1.362 . S
C2863 H2853 0.930 . S
C2863 C2856 1.409 . S
C2863 C2862 1.362 . S
H2864 C2870 0.930 . S
H2865 C2873 0.930 . S
H2866 C2874 0.930 . S
H2867 C2875 0.930 . S
H2868 C2878 0.930 . S
H2869 C2879 0.930 . S
C2870 H2864 0.930 . S
C2870 C2871 1.355 . S
C2870 C2872 1.415 . S
C2871 C2870 1.355 . S
C2871 C2873 1.419 . S
C2872 C2870 1.415 . S
C2872 C2877 1.425 . S
C2872 C2879 1.409 . S
C2873 H2865 0.930 . S
C2873 C2871 1.419 . S
C2873 C2874 1.362 . S
C2874 H2866 0.930 . S
C2874 C2873 1.362 . S
C2874 C2877 1.409 . S
C2875 H2867 0.930 . S
C2875 C2876 1.355 . S
C2875 C2877 1.415 . S
C2876 C2875 1.355 . S
C2876 C2878 1.419 . S
C2877 C2872 1.425 . S
C2877 C2874 1.409 . S
C2877 C2875 1.415 . S
C2878 H2868 0.930 . S
C2878 C2876 1.419 . S
C2878 C2879 1.362 . S
C2879 H2869 0.930 . S
C2879 C2872 1.409 . S
C2879 C2878 1.362 . S
H2880 C2886 0.930 . S
H2881 C2889 0.930 . S
H2882 C2890 0.930 . S
H2883 C2891 0.930 . S
H2884 C2894 0.930 . S
H2885 C2895 0.930 1_455 S
C2886 H2880 0.930 . S
C2886 C2887 1.355 . S
C2886 C2888 1.413 . S
C2887 C2886 1.355 . S
C2887 C2889 1.419 . S
C2888 C2886 1.413 . S
C2888 C2893 1.426 1_455 S
C2888 C2895 1.409 1_455 S
C2889 H2881 0.930 . S
C2889 C2887 1.419 . S
C2889 C2890 1.362 1_455 S
C2890 H2882 0.930 . S
C2890 C2889 1.362 1_655 S
C2890 C2893 1.409 . S
C2891 H2883 0.930 . S
C2891 C2892 1.355 . S
C2891 C2893 1.415 . S
C2892 C2891 1.355 . S
C2892 C2894 1.419 . S
C2893 C2888 1.426 1_655 S
C2893 C2890 1.409 . S
C2893 C2891 1.415 . S
C2894 H2884 0.930 . S
C2894 C2892 1.419 . S
C2894 C2895 1.362 . S
C2895 H2885 0.930 1_655 S
C2895 C2888 1.409 1_655 S
C2895 C2894 1.362 . S
H2896 C2902 0.930 . S
H2897 C2905 0.930 . S
H2898 C2906 0.930 . S
H2899 C2907 0.930 . S
H2900 C2910 0.930 . S
H2901 C2911 0.930 . S
C2902 H2896 0.930 . S
C2902 C2903 1.355 . S
C2902 C2904 1.415 . S
C2903 C2902 1.355 . S
C2903 C2905 1.419 . S
C2904 C2902 1.415 . S
C2904 C2909 1.425 . S
C2904 C2911 1.409 . S
C2905 H2897 0.930 . S
C2905 C2903 1.419 . S
C2905 C2906 1.362 . S
C2906 H2898 0.930 . S
C2906 C2905 1.362 . S
C2906 C2909 1.409 . S
C2907 H2899 0.930 . S
C2907 C2908 1.355 . S
C2907 C2909 1.415 . S
C2908 C2907 1.355 . S
C2908 C2910 1.419 . S
C2909 C2904 1.425 . S
C2909 C2906 1.409 . S
C2909 C2907 1.415 . S
C2910 H2900 0.930 . S
C2910 C2908 1.419 . S
C2910 C2911 1.362 . S
C2911 H2901 0.930 . S
C2911 C2904 1.409 . S
C2911 C2910 1.362 . S
H2912 C2918 0.930 . S
H2913 C2921 0.930 . S
H2914 C2922 0.930 . S
H2915 C2923 0.930 . S
H2916 C2926 0.930 . S
H2917 C2927 0.930 . S
C2918 H2912 0.930 . S
C2918 C2919 1.355 . S
C2918 C2920 1.415 . S
C2919 C2918 1.355 . S
C2919 C2921 1.419 . S
C2920 C2918 1.415 . S
C2920 C2925 1.425 . S
C2920 C2927 1.409 . S
C2921 H2913 0.930 . S
C2921 C2919 1.419 . S
C2921 C2922 1.362 . S
C2922 H2914 0.930 . S
C2922 C2921 1.362 . S
C2922 C2925 1.409 . S
C2923 H2915 0.930 . S
C2923 C2924 1.355 . S
C2923 C2925 1.415 . S
C2924 C2923 1.355 . S
C2924 C2926 1.419 . S
C2925 C2920 1.425 . S
C2925 C2922 1.409 . S
C2925 C2923 1.415 . S
C2926 H2916 0.930 . S
C2926 C2924 1.419 . S
C2926 C2927 1.362 . S
C2927 H2917 0.930 . S
C2927 C2920 1.409 . S
C2927 C2926 1.362 . S
H2928 C2934 0.976 . S
H2929 C2937 0.930 . S
H2930 C2938 0.930 . S
H2931 C2939 0.930 . S
H2932 C2942 0.930 1_556 S
H2933 C2943 0.930 . S
C2934 H2928 0.976 . S
C2934 C2935 1.331 1_556 S
C2934 C2936 1.396 1_556 S
C2935 C2934 1.331 1_554 S
C2935 C2937 1.419 . S
C2936 C2934 1.396 1_554 S
C2936 C2941 1.425 . S
C2936 C2943 1.409 1_554 S
C2937 H2929 0.930 . S
C2937 C2935 1.419 . S
C2937 C2938 1.362 . S
C2938 H2930 0.930 . S
C2938 C2937 1.362 . S
C2938 C2941 1.409 . S
C2939 H2931 0.930 . S
C2939 C2940 1.355 . S
C2939 C2941 1.415 . S
C2940 C2939 1.355 . S
C2940 C2942 1.419 . S
C2941 C2936 1.425 . S
C2941 C2938 1.409 . S
C2941 C2939 1.415 . S
C2942 H2932 0.930 1_554 S
C2942 C2940 1.419 . S
C2942 C2943 1.362 1_554 S
C2943 H2933 0.930 . S
C2943 C2936 1.409 1_556 S
C2943 C2942 1.362 1_556 S
H2944 C2950 0.930 . S
H2945 C2953 0.930 . S
H2946 C2954 0.930 . S
H2947 C2955 0.930 . S
H2948 C2958 0.930 . S
H2949 C2959 0.930 . S
C2950 H2944 0.930 . S
C2950 C2951 1.355 . S
C2950 C2952 1.415 . S
C2951 C2950 1.355 . S
C2951 C2953 1.419 . S
C2952 C2950 1.415 . S
C2952 C2957 1.425 . S
C2952 C2959 1.409 1_455 S
C2953 H2945 0.930 . S
C2953 C2951 1.419 . S
C2953 C2954 1.362 . S
C2954 H2946 0.930 . S
C2954 C2953 1.362 . S
C2954 C2957 1.409 . S
C2955 H2947 0.930 . S
C2955 C2956 1.355 . S
C2955 C2957 1.415 . S
C2956 C2955 1.355 . S
C2956 C2958 1.419 1_455 S
C2957 C2952 1.425 . S
C2957 C2954 1.409 . S
C2957 C2955 1.415 . S
C2958 H2948 0.930 . S
C2958 C2956 1.419 1_655 S
C2958 C2959 1.362 . S
C2959 H2949 0.930 . S
C2959 C2952 1.409 1_655 S
C2959 C2958 1.362 . S
H2960 C2966 0.930 . S
H2961 C2969 0.930 . S
H2962 C2970 0.930 . S
H2963 C2971 0.930 . S
H2964 C2974 0.930 . S
H2965 C2975 0.930 . S
C2966 H2960 0.930 . S
C2966 C2967 1.355 . S
C2966 C2968 1.415 . S
C2967 C2966 1.355 . S
C2967 C2969 1.419 . S
C2968 C2966 1.415 . S
C2968 C2973 1.425 . S
C2968 C2975 1.409 . S
C2969 H2961 0.930 . S
C2969 C2967 1.419 . S
C2969 C2970 1.362 . S
C2970 H2962 0.930 . S
C2970 C2969 1.362 . S
C2970 C2973 1.409 . S
C2971 H2963 0.930 . S
C2971 C2972 1.355 . S
C2971 C2973 1.415 . S
C2972 C2971 1.355 . S
C2972 C2974 1.419 . S
C2973 C2968 1.425 . S
C2973 C2970 1.409 . S
C2973 C2971 1.415 . S
C2974 H2964 0.930 . S
C2974 C2972 1.419 . S
C2974 C2975 1.362 . S
C2975 H2965 0.930 . S
C2975 C2968 1.409 . S
C2975 C2974 1.362 . S
H2976 C2982 0.930 . S
H2977 C2985 0.930 . S
H2978 C2986 0.930 . S
H2979 C2987 0.930 . S
H2980 C2990 0.930 . S
H2981 C2991 0.930 . S
C2982 H2976 0.930 . S
C2982 C2983 1.355 . S
C2982 C2984 1.415 . S
C2983 C2982 1.355 . S
C2983 C2985 1.419 . S
C2984 C2982 1.415 . S
C2984 C2989 1.425 . S
C2984 C2991 1.409 . S
C2985 H2977 0.930 . S
C2985 C2983 1.419 . S
C2985 C2986 1.362 . S
C2986 H2978 0.930 . S
C2986 C2985 1.362 . S
C2986 C2989 1.409 . S
C2987 H2979 0.930 . S
C2987 C2988 1.355 . S
C2987 C2989 1.415 . S
C2988 C2987 1.355 . S
C2988 C2990 1.419 . S
C2989 C2984 1.425 . S
C2989 C2986 1.409 . S
C2989 C2987 1.415 . S
C2990 H2980 0.930 . S
C2990 C2988 1.419 . S
C2990 C2991 1.362 . S
C2991 H2981 0.930 . S
C2991 C2984 1.409 . S
C2991 C2990 1.362 . S
H2992 C2998 0.930 . S
H2993 C3001 0.930 . S
H2994 C3002 0.930 . S
H2995 C3003 0.930 . S
H2996 C3006 0.930 . S
H2997 C3007 0.930 . S
C2998 H2992 0.930 . S
C2998 C2999 1.355 . S
C2998 C3000 1.415 . S
C2999 C2998 1.355 . S
C2999 C3001 1.419 . S
C3000 C2998 1.415 . S
C3000 C3005 1.425 . S
C3000 C3007 1.409 . S
C3001 H2993 0.930 . S
C3001 C2999 1.419 . S
C3001 C3002 1.362 . S
C3002 H2994 0.930 . S
C3002 C3001 1.362 . S
C3002 C3005 1.409 . S
C3003 H2995 0.930 . S
C3003 C3004 1.355 . S
C3003 C3005 1.415 . S
C3004 C3003 1.355 . S
C3004 C3006 1.419 . S
C3005 C3000 1.425 . S
C3005 C3002 1.409 . S
C3005 C3003 1.415 . S
C3006 H2996 0.930 . S
C3006 C3004 1.419 . S
C3006 C3007 1.362 . S
C3007 H2997 0.930 . S
C3007 C3000 1.409 . S
C3007 C3006 1.362 . S
H3008 C3014 0.930 . S
H3009 C3017 0.930 . S
H3010 C3018 0.923 1_545 S
H3011 C3019 0.930 . S
H3012 C3022 0.930 . S
H3013 C3023 0.930 . S
C3014 H3008 0.930 . S
C3014 C3015 1.355 . S
C3014 C3016 1.415 . S
C3015 C3014 1.355 . S
C3015 C3017 1.419 . S
C3016 C3014 1.415 . S
C3016 C3021 1.425 . S
C3016 C3023 1.409 . S
C3017 H3009 0.930 . S
C3017 C3015 1.419 . S
C3017 C3018 1.362 . S
C3018 H3010 0.923 1_565 S
C3018 C3017 1.362 . S
C3018 C3021 1.409 . S
C3019 H3011 0.930 . S
C3019 C3020 1.355 . S
C3019 C3021 1.415 1_545 S
C3020 C3019 1.355 . S
C3020 C3022 1.419 . S
C3021 C3016 1.425 . S
C3021 C3018 1.409 . S
C3021 C3019 1.415 1_565 S
C3022 H3012 0.930 . S
C3022 C3020 1.419 . S
C3022 C3023 1.362 1_545 S
C3023 H3013 0.930 . S
C3023 C3016 1.409 . S
C3023 C3022 1.362 1_565 S
H3024 C3030 0.930 . S
H3025 C3033 0.930 . S
H3026 C3034 0.930 1_565 S
H3027 C3035 0.930 1_565 S
H3028 C3038 0.930 . S
H3029 C3039 0.930 . S
C3030 H3024 0.930 . S
C3030 C3031 1.355 . S
C3030 C3032 1.415 . S
C3031 C3030 1.355 . S
C3031 C3033 1.419 . S
C3032 C3030 1.415 . S
C3032 C3037 1.425 . S
C3032 C3039 1.409 . S
C3033 H3025 0.930 . S
C3033 C3031 1.419 . S
C3033 C3034 1.362 . S
C3034 H3026 0.930 1_545 S
C3034 C3033 1.362 . S
C3034 C3037 1.409 . S
C3035 H3027 0.930 1_545 S
C3035 C3036 1.355 . S
C3035 C3037 1.415 . S
C3036 C3035 1.355 . S
C3036 C3038 1.419 . S
C3037 C3032 1.425 . S
C3037 C3034 1.409 . S
C3037 C3035 1.415 . S
C3038 H3028 0.930 . S
C3038 C3036 1.419 . S
C3038 C3039 1.362 . S
C3039 H3029 0.930 . S
C3039 C3032 1.409 . S
C3039 C3038 1.362 . S
H3040 C3046 0.930 . S
H3041 C3049 0.930 . S
H3042 C3050 0.930 . S
H3043 C3051 0.930 . S
H3044 C3054 0.930 . S
H3045 C3055 0.930 . S
C3046 H3040 0.930 . S
C3046 C3047 1.355 . S
C3046 C3048 1.415 . S
C3047 C3046 1.355 . S
C3047 C3049 1.419 . S
C3048 C3046 1.415 . S
C3048 C3053 1.425 . S
C3048 C3055 1.409 . S
C3049 H3041 0.930 . S
C3049 C3047 1.419 . S
C3049 C3050 1.362 . S
C3050 H3042 0.930 . S
C3050 C3049 1.362 . S
C3050 C3053 1.409 . S
C3051 H3043 0.930 . S
C3051 C3052 1.355 . S
C3051 C3053 1.415 . S
C3052 C3051 1.355 . S
C3052 C3054 1.419 . S
C3053 C3048 1.425 . S
C3053 C3050 1.409 . S
C3053 C3051 1.415 . S
C3054 H3044 0.930 . S
C3054 C3052 1.419 . S
C3054 C3055 1.362 . S
C3055 H3045 0.930 . S
C3055 C3048 1.409 . S
C3055 C3054 1.362 . S
H3056 C3062 0.930 . S
H3057 C3065 0.905 1_565 S
H3058 C3066 0.952 . S
H3059 C3067 0.930 . S
H3060 C3070 0.930 . S
H3061 C3071 0.930 . S
C3062 H3056 0.930 . S
C3062 C3063 1.355 . S
C3062 C3064 1.415 . S
C3063 C3062 1.355 . S
C3063 C3065 1.434 . S
C3064 C3062 1.415 . S
C3064 C3069 1.425 . S
C3064 C3071 1.409 . S
C3065 H3057 0.905 1_545 S
C3065 C3063 1.434 . S
C3065 C3066 1.373 . S
C3066 H3058 0.952 . S
C3066 C3065 1.373 . S
C3066 C3069 1.409 . S
C3067 H3059 0.930 . S
C3067 C3068 1.355 . S
C3067 C3069 1.415 . S
C3068 C3067 1.355 . S
C3068 C3070 1.419 . S
C3069 C3064 1.425 . S
C3069 C3066 1.409 . S
C3069 C3067 1.415 . S
C3070 H3060 0.930 . S
C3070 C3068 1.419 . S
C3070 C3071 1.362 . S
C3071 H3061 0.930 . S
C3071 C3064 1.409 . S
C3071 C3070 1.362 . S
H3072 C3078 0.930 . S
H3073 C3081 0.930 . S
H3074 C3082 0.930 . S
H3075 C3083 0.930 . S
H3076 C3086 0.930 . S
H3077 C3087 0.930 . S
C3078 H3072 0.930 . S
C3078 C3079 1.355 . S
C3078 C3080 1.415 1_554 S
C3079 C3078 1.355 . S
C3079 C3081 1.419 . S
C3080 C3078 1.415 1_556 S
C3080 C3085 1.425 . S
C3080 C3087 1.409 . S
C3081 H3073 0.930 . S
C3081 C3079 1.419 . S
C3081 C3082 1.362 1_554 S
C3082 H3074 0.930 . S
C3082 C3081 1.362 1_556 S
C3082 C3085 1.409 . S
C3083 H3075 0.930 . S
C3083 C3084 1.355 . S
C3083 C3085 1.415 . S
C3084 C3083 1.355 . S
C3084 C3086 1.419 . S
C3085 C3080 1.425 . S
C3085 C3082 1.409 . S
C3085 C3083 1.415 . S
C3086 H3076 0.930 . S
C3086 C3084 1.419 . S
C3086 C3087 1.362 . S
C3087 H3077 0.930 . S
C3087 C3080 1.409 . S
C3087 C3086 1.362 . S
H3088 C3094 0.930 . S
H3089 C3097 0.930 . S
H3090 C3098 0.930 . S
H3091 C3099 0.930 . S
H3092 C3102 0.930 . S
H3093 C3103 0.930 . S
C3094 H3088 0.930 . S
C3094 C3095 1.355 . S
C3094 C3096 1.415 . S
C3095 C3094 1.355 . S
C3095 C3097 1.419 . S
C3096 C3094 1.415 . S
C3096 C3101 1.425 . S
C3096 C3103 1.409 . S
C3097 H3089 0.930 . S
C3097 C3095 1.419 . S
C3097 C3098 1.362 . S
C3098 H3090 0.930 . S
C3098 C3097 1.362 . S
C3098 C3101 1.409 . S
C3099 H3091 0.930 . S
C3099 C3100 1.355 . S
C3099 C3101 1.415 . S
C3100 C3099 1.355 . S
C3100 C3102 1.419 . S
C3101 C3096 1.425 . S
C3101 C3098 1.409 . S
C3101 C3099 1.415 . S
C3102 H3092 0.930 . S
C3102 C3100 1.419 . S
C3102 C3103 1.362 . S
C3103 H3093 0.930 . S
C3103 C3096 1.409 . S
C3103 C3102 1.362 . S
H3104 C3110 0.930 . S
H3105 C3113 0.930 . S
H3106 C3114 0.930 . S
H3107 C3115 0.930 . S
H3108 C3118 0.930 . S
H3109 C3119 0.930 . S
C3110 H3104 0.930 . S
C3110 C3111 1.355 . S
C3110 C3112 1.415 . S
C3111 C3110 1.355 . S
C3111 C3113 1.419 . S
C3112 C3110 1.415 . S
C3112 C3117 1.425 . S
C3112 C3119 1.409 . S
C3113 H3105 0.930 . S
C3113 C3111 1.419 . S
C3113 C3114 1.362 . S
C3114 H3106 0.930 . S
C3114 C3113 1.362 . S
C3114 C3117 1.409 . S
C3115 H3107 0.930 . S
C3115 C3116 1.355 . S
C3115 C3117 1.415 . S
C3116 C3115 1.355 . S
C3116 C3118 1.419 . S
C3117 C3112 1.425 . S
C3117 C3114 1.409 . S
C3117 C3115 1.415 . S
C3118 H3108 0.930 . S
C3118 C3116 1.419 . S
C3118 C3119 1.362 . S
C3119 H3109 0.930 . S
C3119 C3112 1.409 . S
C3119 C3118 1.362 . S
H3120 C3126 0.930 . S
H3121 C3129 0.930 . S
H3122 C3130 0.930 . S
H3123 C3131 0.930 . S
H3124 C3134 0.930 . S
H3125 C3135 0.930 . S
C3126 H3120 0.930 . S
C3126 C3127 1.355 . S
C3126 C3128 1.415 . S
C3127 C3126 1.355 . S
C3127 C3129 1.419 . S
C3128 C3126 1.415 . S
C3128 C3133 1.425 . S
C3128 C3135 1.409 . S
C3129 H3121 0.930 . S
C3129 C3127 1.419 . S
C3129 C3130 1.362 . S
C3130 H3122 0.930 . S
C3130 C3129 1.362 . S
C3130 C3133 1.409 . S
C3131 H3123 0.930 . S
C3131 C3132 1.355 . S
C3131 C3133 1.415 . S
C3132 C3131 1.355 . S
C3132 C3134 1.419 . S
C3133 C3128 1.425 . S
C3133 C3130 1.409 . S
C3133 C3131 1.415 . S
C3134 H3124 0.930 . S
C3134 C3132 1.419 . S
C3134 C3135 1.362 . S
C3135 H3125 0.930 . S
C3135 C3128 1.409 . S
C3135 C3134 1.362 . S
H3136 C3142 0.930 . S
H3137 C3145 0.930 . S
H3138 C3146 0.930 . S
H3139 C3147 0.930 1_655 S
H3140 C3150 0.930 . S
H3141 C3151 0.930 . S
C3142 H3136 0.930 . S
C3142 C3143 1.355 . S
C3142 C3144 1.415 . S
C3143 C3142 1.355 . S
C3143 C3145 1.419 . S
C3144 C3142 1.415 . S
C3144 C3149 1.425 . S
C3144 C3151 1.409 . S
C3145 H3137 0.930 . S
C3145 C3143 1.419 . S
C3145 C3146 1.362 . S
C3146 H3138 0.930 . S
C3146 C3145 1.362 . S
C3146 C3149 1.409 . S
C3147 H3139 0.930 1_455 S
C3147 C3148 1.355 . S
C3147 C3149 1.415 . S
C3148 C3147 1.355 . S
C3148 C3150 1.419 . S
C3149 C3144 1.425 . S
C3149 C3146 1.409 . S
C3149 C3147 1.415 . S
C3150 H3140 0.930 . S
C3150 C3148 1.419 . S
C3150 C3151 1.362 . S
C3151 H3141 0.930 . S
C3151 C3144 1.409 . S
C3151 C3150 1.362 . S
H3152 C3158 0.930 . S
H3153 C3161 0.930 . S
H3154 C3162 0.930 . S
H3155 C3163 0.930 . S
H3156 C3166 0.930 . S
H3157 C3167 0.930 . S
C3158 H3152 0.930 . S
C3158 C3159 1.355 . S
C3158 C3160 1.415 . S
C3159 C3158 1.355 . S
C3159 C3161 1.419 . S
C3160 C3158 1.415 . S
C3160 C3165 1.425 . S
C3160 C3167 1.409 . S
C3161 H3153 0.930 . S
C3161 C3159 1.419 . S
C3161 C3162 1.362 . S
C3162 H3154 0.930 . S
C3162 C3161 1.362 . S
C3162 C3165 1.409 . S
C3163 H3155 0.930 . S
C3163 C3164 1.355 . S
C3163 C3165 1.415 . S
C3164 C3163 1.355 . S
C3164 C3166 1.419 . S
C3165 C3160 1.425 . S
C3165 C3162 1.409 . S
C3165 C3163 1.415 . S
C3166 H3156 0.930 . S
C3166 C3164 1.419 . S
C3166 C3167 1.362 . S
C3167 H3157 0.930 . S
C3167 C3160 1.409 . S
C3167 C3166 1.362 . S
H3168 C3174 0.930 . S
H3169 C3177 0.930 1_556 S
H3170 C3178 0.930 . S
H3171 C3179 0.930 . S
H3172 C3182 0.930 . S
H3173 C3183 0.930 . S
C3174 H3168 0.930 . S
C3174 C3175 1.355 . S
C3174 C3176 1.415 . S
C3175 C3174 1.355 . S
C3175 C3177 1.419 . S
C3176 C3174 1.415 . S
C3176 C3181 1.425 . S
C3176 C3183 1.409 . S
C3177 H3169 0.930 1_554 S
C3177 C3175 1.419 . S
C3177 C3178 1.362 . S
C3178 H3170 0.930 . S
C3178 C3177 1.362 . S
C3178 C3181 1.409 . S
C3179 H3171 0.930 . S
C3179 C3180 1.355 . S
C3179 C3181 1.415 . S
C3180 C3179 1.355 . S
C3180 C3182 1.419 . S
C3181 C3176 1.425 . S
C3181 C3178 1.409 . S
C3181 C3179 1.415 . S
C3182 H3172 0.930 . S
C3182 C3180 1.419 . S
C3182 C3183 1.362 . S
C3183 H3173 0.930 . S
C3183 C3176 1.409 . S
C3183 C3182 1.362 . S
H3184 C3190 0.930 . S
H3185 C3193 0.930 . S
H3186 C3194 0.930 . S
H3187 C3195 0.930 . S
H3188 C3198 0.930 . S
H3189 C3199 0.930 . S
C3190 H3184 0.930 . S
C3190 C3191 1.355 . S
C3190 C3192 1.415 . S
C3191 C3190 1.355 . S
C3191 C3193 1.419 . S
C3192 C3190 1.415 . S
C3192 C3197 1.425 . S
C3192 C3199 1.409 . S
C3193 H3185 0.930 . S
C3193 C3191 1.419 . S
C3193 C3194 1.362 . S
C3194 H3186 0.930 . S
C3194 C3193 1.362 . S
C3194 C3197 1.409 . S
C3195 H3187 0.930 . S
C3195 C3196 1.355 . S
C3195 C3197 1.415 . S
C3196 C3195 1.355 . S
C3196 C3198 1.419 . S
C3197 C3192 1.425 . S
C3197 C3194 1.409 . S
C3197 C3195 1.415 . S
C3198 H3188 0.930 . S
C3198 C3196 1.419 . S
C3198 C3199 1.362 . S
C3199 H3189 0.930 . S
C3199 C3192 1.409 . S
C3199 C3198 1.362 . S
H3200 C3206 0.930 . S
H3201 C3209 0.930 . S
H3202 C3210 0.930 . S
H3203 C3211 0.930 . S
H3204 C3214 0.930 . S
H3205 C3215 0.930 . S
C3206 H3200 0.930 . S
C3206 C3207 1.355 . S
C3206 C3208 1.415 . S
C3207 C3206 1.355 . S
C3207 C3209 1.419 . S
C3208 C3206 1.415 . S
C3208 C3213 1.425 . S
C3208 C3215 1.409 . S
C3209 H3201 0.930 . S
C3209 C3207 1.419 . S
C3209 C3210 1.362 . S
C3210 H3202 0.930 . S
C3210 C3209 1.362 . S
C3210 C3213 1.409 . S
C3211 H3203 0.930 . S
C3211 C3212 1.355 . S
C3211 C3213 1.415 . S
C3212 C3211 1.355 . S
C3212 C3214 1.419 . S
C3213 C3208 1.425 . S
C3213 C3210 1.409 . S
C3213 C3211 1.415 . S
C3214 H3204 0.930 . S
C3214 C3212 1.419 . S
C3214 C3215 1.362 . S
C3215 H3205 0.930 . S
C3215 C3208 1.409 . S
C3215 C3214 1.362 . S
H3216 C3222 0.930 . S
H3217 C3225 0.930 . S
H3218 C3226 0.930 . S
H3219 C3227 0.930 . S
H3220 C3230 0.930 . S
H3221 C3231 0.930 . S
C3222 H3216 0.930 . S
C3222 C3223 1.355 . S
C3222 C3224 1.415 . S
C3223 C3222 1.355 . S
C3223 C3225 1.419 . S
C3224 C3222 1.415 . S
C3224 C3229 1.425 . S
C3224 C3231 1.409 . S
C3225 H3217 0.930 . S
C3225 C3223 1.419 . S
C3225 C3226 1.362 . S
C3226 H3218 0.930 . S
C3226 C3225 1.362 . S
C3226 C3229 1.409 . S
C3227 H3219 0.930 . S
C3227 C3228 1.355 . S
C3227 C3229 1.415 . S
C3228 C3227 1.355 . S
C3228 C3230 1.419 . S
C3229 C3224 1.425 . S
C3229 C3226 1.409 . S
C3229 C3227 1.415 . S
C3230 H3220 0.930 . S
C3230 C3228 1.419 . S
C3230 C3231 1.362 . S
C3231 H3221 0.930 . S
C3231 C3224 1.409 . S
C3231 C3230 1.362 . S
H3232 C3238 0.930 . S
H3233 C3241 0.930 . S
H3234 C3242 0.930 . S
H3235 C3243 0.930 . S
H3236 C3246 0.930 . S
H3237 C3247 0.930 . S
C3238 H3232 0.930 . S
C3238 C3239 1.355 . S
C3238 C3240 1.415 . S
C3239 C3238 1.355 . S
C3239 C3241 1.419 . S
C3240 C3238 1.415 . S
C3240 C3245 1.425 . S
C3240 C3247 1.409 . S
C3241 H3233 0.930 . S
C3241 C3239 1.419 . S
C3241 C3242 1.362 . S
C3242 H3234 0.930 . S
C3242 C3241 1.362 . S
C3242 C3245 1.409 . S
C3243 H3235 0.930 . S
C3243 C3244 1.355 . S
C3243 C3245 1.415 . S
C3244 C3243 1.355 . S
C3244 C3246 1.419 . S
C3245 C3240 1.425 . S
C3245 C3242 1.409 . S
C3245 C3243 1.415 . S
C3246 H3236 0.930 . S
C3246 C3244 1.419 . S
C3246 C3247 1.362 . S
C3247 H3237 0.930 . S
C3247 C3240 1.409 . S
C3247 C3246 1.362 . S
H3248 C3254 0.930 . S
H3249 C3257 0.930 . S
H3250 C3258 0.930 . S
H3251 C3259 0.930 . S
H3252 C3262 0.930 . S
H3253 C3263 0.930 . S
C3254 H3248 0.930 . S
C3254 C3255 1.355 . S
C3254 C3256 1.415 . S
C3255 C3254 1.355 . S
C3255 C3257 1.419 . S
C3256 C3254 1.415 . S
C3256 C3261 1.425 . S
C3256 C3263 1.409 . S
C3257 H3249 0.930 . S
C3257 C3255 1.419 . S
C3257 C3258 1.362 . S
C3258 H3250 0.930 . S
C3258 C3257 1.362 . S
C3258 C3261 1.409 . S
C3259 H3251 0.930 . S
C3259 C3260 1.355 . S
C3259 C3261 1.415 . S
C3260 C3259 1.355 . S
C3260 C3262 1.419 . S
C3261 C3256 1.425 . S
C3261 C3258 1.409 . S
C3261 C3259 1.415 . S
C3262 H3252 0.930 . S
C3262 C3260 1.419 . S
C3262 C3263 1.362 . S
C3263 H3253 0.930 . S
C3263 C3256 1.409 . S
C3263 C3262 1.362 . S
C1735 C14 0.633 . S
C1740 C950 0.845 . S
C1751 C986 0.965 . S
C1756 C50 0.975 . S
C1767 C86 0.984 . S
C1772 C878 0.738 . S
C1783 C914 0.804 . S
C1788 C122 0.772 . S
C1799 C158 1.151 . S
C1804 C1094 0.641 . S
C1815 C194 0.918 . S
C1820 C1130 0.728 . S
C1831 C230 0.834 . S
C1836 C1022 0.935 . S
C1847 C266 0.697 . S
C1852 C1058 0.783 . S
C1863 C446 0.682 . S
C1868 C302 0.832 . S
C1879 C338 0.892 . S
C1884 C482 0.674 . S
C1895 C518 1.122 . S
C1900 C374 0.706 . S
C1911 C410 0.717 . S
C1916 C554 0.733 . S
C1927 C1562 0.595 . S
C1932 C590 0.847 . S
C1943 C1634 1.035 . S
C1948 C626 0.893 . S
C1959 C806 0.750 . S
C1964 C662 0.810 . S
C1975 C1454 0.882 . S
C1980 C698 0.881 . S
C1991 C1706 0.814 . S
C1996 C734 0.656 . S
C2007 C1490 0.646 . S
C2012 C770 1.042 . S
C2023 C842 0.860 . S
C2028 C1598 0.796 . S
C2039 C1166 0.874 . S
C2044 C1310 0.887 . S
C2055 C1346 1.100 . S
C2060 C1202 0.783 . S
C2071 C1238 0.757 . S
C2076 C1382 0.982 . S
C2087 C1418 0.685 . S
C2092 C1274 0.946 . S
C2103 C1526 0.982 . S
C2108 C1670 0.964 . S
C2119 C2 0.461 . S
C2124 C254 0.792 . S
C2135 C146 0.555 . S
C2140 C38 0.611 . S
C2151 C74 0.716 . S
C2156 C182 0.641 . S
C2167 C110 0.623 . S
C2172 C218 0.708 . S
C2183 C722 0.587 . S
C2188 C290 0.363 . S
C2199 C1478 0.536 . S
C2204 C326 0.576 . S
C2215 C362 0.459 . S
C2220 C1514 0.495 . S
C2231 C398 0.538 . S
C2236 C1550 0.508 . S
C2247 C1694 0.781 . S
C2252 C434 0.482 . S
C2263 C470 0.674 . S
C2268 C758 0.564 . S
C2279 C506 0.629 . S
C2284 C1658 0.563 . S
C2295 C542 0.792 . S
C2300 C578 0.478 . S
C2311 C614 0.525 . S
C2316 C1190 0.539 . S
C2327 C650 0.561 . S
C2332 C1226 0.527 . S
C2343 C1262 0.695 . S
C2348 C686 0.644 . S
C2359 C794 0.581 . S
C2364 C1370 0.707 . S
C2375 C1298 0.666 . S
C2380 C830 0.691 . S
C2391 C1118 0.639 . S
C2396 C866 0.696 . S
C2407 C902 0.581 . S
C2412 C1010 0.707 . S
C2423 C1046 0.803 . S
C2428 C938 0.532 . S
C2439 C974 0.418 . S
C2444 C1082 0.553 . S
C2455 C1154 0.545 . S
C2460 C1586 0.606 . S
C2471 C1622 0.669 . S
C2476 C1334 0.544 . S
C2487 C1442 0.703 . S
C2492 C1406 0.628 . S
C2503 C4 1.164 . S
C2508 C1048 1.623 . S
C2519 C1084 1.038 . S
C2524 C40 0.911 . S
C2535 C76 0.962 . S
C2540 C1120 1.059 . S
C2551 C112 1.127 . S
C2556 C1012 1.152 . S
C2567 C976 1.089 . S
C2572 C148 1.100 . S
C2583 C184 0.795 . S
C2588 C868 1.056 . S
C2599 C904 0.865 . S
C2604 C220 1.224 . S
C2615 C256 1.401 . S
C2620 C940 1.179 . S
C2631 C1696 1.621 . S
C2636 C292 1.260 . S
C2647 C328 1.086 . S
C2652 C760 1.167 . S
C2663 C364 1.080 . S
C2668 C1660 0.965 . S
C2679 C580 1.165 . S
C2684 C400 1.611 . S
C2695 C436 1.042 . S
C2700 C724 1.393 . S
C2711 C472 0.880 . S
C2716 C1480 1.228 . S
C2727 C1516 1.172 . S
C2732 C508 0.984 . S
C2743 C1552 1.148 . S
C2748 C544 1.395 . S
C2759 C1336 0.994 . S
C2764 C616 1.065 . S
C2775 C1372 1.178 . S
C2780 C652 1.084 . S
C2791 C1408 1.042 . S
C2796 C688 1.052 . S
C2807 C796 1.026 . S
C2812 C1228 1.235 . S
C2823 C1156 0.980 . S
C2828 C832 0.939 . S
C2839 C1192 1.113 . S
C2844 C1624 1.063 . S
C2855 C1264 0.891 . S
C2860 C1444 1.062 . S
C2871 C1588 1.010 . S
C2876 C1300 1.078 . S
C2887 C3 1.744 . S
C2892 C795 1.828 . S
C2903 C39 1.459 . S
C2908 C1443 1.445 . S
C2919 C831 1.539 . S
C2924 C75 1.543 . S
C2935 C1623 1.490 . S
C2940 C111 1.481 . S
C2951 C651 1.530 . S
C2956 C147 1.557 . S
C2967 C687 1.507 . S
C2972 C183 1.530 . S
C2983 C219 1.643 . S
C2988 C1587 1.737 . S
C2999 C255 1.820 . S
C3004 C615 1.760 . S
C3015 C471 1.857 . S
C3020 C291 1.750 . S
C3031 C327 1.490 . S
C3036 C507 1.530 . S
C3047 C543 1.833 . S
C3052 C363 1.768 . S
C3063 C435 1.533 . S
C3068 C399 1.512 . S
C3079 C579 1.792 . S
C3084 C903 1.844 . S
C3095 C1083 1.751 . S
C3100 C723 1.810 . S
C3111 C975 1.604 . S
C3116 C759 1.614 . S
C3127 C867 1.442 . S
C3132 C1659 1.461 . S
C3143 C1695 1.547 . S
C3148 C939 1.503 . S
C3159 C1515 1.564 . S
C3164 C1011 1.599 . S
C3175 C1551 1.575 . S
C3180 C1047 1.549 . S
C3191 C1479 1.622 . S
C3196 C1119 1.723 . S
C3207 C1335 1.442 . S
C3212 C1155 1.457 . S
C3223 C1371 1.640 . S
C3228 C1191 1.600 . S
C3239 C1227 1.577 . S
C3244 C1407 1.701 . S
C3255 C1263 1.561 . S
C3260 C1299 1.539 . S
