# Generated by pormake.
# Topology yfc, (5)-cn, num edge types: 1
# Building blocks:
#     Node 0, Type 0, BuildingBlock: XOMCOT_clean_sbu_0, # of connection points: 5
#     Node 1, Type 0, BuildingBlock: XOMCOT_clean_sbu_0, # of connection points: 5
#     Node 2, Type 0, BuildingBlock: XOMCOT_clean_sbu_0, # of connection points: 5
#     Node 3, Type 0, BuildingBlock: XOMCOT_clean_sbu_0, # of connection points: 5
#     Node 4, Type 0, BuildingBlock: XOMCOT_clean_sbu_0, # of connection points: 5
#     Node 5, Type 0, BuildingBlock: XOMCOT_clean_sbu_0, # of connection points: 5
#     Node 6, Type 0, BuildingBlock: XOMCOT_clean_sbu_0, # of connection points: 5
#     Node 7, Type 0, BuildingBlock: XOMCOT_clean_sbu_0, # of connection points: 5
#     Node 8, Type 0, BuildingBlock: XOMCOT_clean_sbu_0, # of connection points: 5
#     Node 9, Type 0, BuildingBlock: XOMCOT_clean_sbu_0, # of connection points: 5
#     Node 10, Type 0, BuildingBlock: XOMCOT_clean_sbu_0, # of connection points: 5
#     Node 11, Type 0, BuildingBlock: XOMCOT_clean_sbu_0, # of connection points: 5
#     Node 12, Type 0, BuildingBlock: XOMCOT_clean_sbu_0, # of connection points: 5
#     Node 13, Type 0, BuildingBlock: XOMCOT_clean_sbu_0, # of connection points: 5
#     Node 14, Type 0, BuildingBlock: XOMCOT_clean_sbu_0, # of connection points: 5
#     Node 15, Type 0, BuildingBlock: XOMCOT_clean_sbu_0, # of connection points: 5
#     Edge 16, Type (0, 0), BuildingBlock: XUDNAN_clean_linker_2, # of connection points: 2
#     Edge 17, Type (0, 0), BuildingBlock: XUDNAN_clean_linker_2, # of connection points: 2
#     Edge 18, Type (0, 0), BuildingBlock: XUDNAN_clean_linker_2, # of connection points: 2
#     Edge 19, Type (0, 0), BuildingBlock: XUDNAN_clean_linker_2, # of connection points: 2
#     Edge 20, Type (0, 0), BuildingBlock: XUDNAN_clean_linker_2, # of connection points: 2
#     Edge 21, Type (0, 0), BuildingBlock: XUDNAN_clean_linker_2, # of connection points: 2
#     Edge 22, Type (0, 0), BuildingBlock: XUDNAN_clean_linker_2, # of connection points: 2
#     Edge 23, Type (0, 0), BuildingBlock: XUDNAN_clean_linker_2, # of connection points: 2
#     Edge 24, Type (0, 0), BuildingBlock: XUDNAN_clean_linker_2, # of connection points: 2
#     Edge 25, Type (0, 0), BuildingBlock: XUDNAN_clean_linker_2, # of connection points: 2
#     Edge 26, Type (0, 0), BuildingBlock: XUDNAN_clean_linker_2, # of connection points: 2
#     Edge 27, Type (0, 0), BuildingBlock: XUDNAN_clean_linker_2, # of connection points: 2
#     Edge 28, Type (0, 0), BuildingBlock: XUDNAN_clean_linker_2, # of connection points: 2
#     Edge 29, Type (0, 0), BuildingBlock: XUDNAN_clean_linker_2, # of connection points: 2
#     Edge 30, Type (0, 0), BuildingBlock: XUDNAN_clean_linker_2, # of connection points: 2
#     Edge 31, Type (0, 0), BuildingBlock: XUDNAN_clean_linker_2, # of connection points: 2
#     Edge 32, Type (0, 0), BuildingBlock: XUDNAN_clean_linker_2, # of connection points: 2
#     Edge 33, Type (0, 0), BuildingBlock: XUDNAN_clean_linker_2, # of connection points: 2
#     Edge 34, Type (0, 0), BuildingBlock: XUDNAN_clean_linker_2, # of connection points: 2
#     Edge 35, Type (0, 0), BuildingBlock: XUDNAN_clean_linker_2, # of connection points: 2
#     Edge 36, Type (0, 0), BuildingBlock: XUDNAN_clean_linker_2, # of connection points: 2
#     Edge 37, Type (0, 0), BuildingBlock: XUDNAN_clean_linker_2, # of connection points: 2
#     Edge 38, Type (0, 0), BuildingBlock: XUDNAN_clean_linker_2, # of connection points: 2
#     Edge 39, Type (0, 0), BuildingBlock: XUDNAN_clean_linker_2, # of connection points: 2
#     Edge 40, Type (0, 0), BuildingBlock: XUDNAN_clean_linker_2, # of connection points: 2
#     Edge 41, Type (0, 0), BuildingBlock: XUDNAN_clean_linker_2, # of connection points: 2
#     Edge 42, Type (0, 0), BuildingBlock: XUDNAN_clean_linker_2, # of connection points: 2
#     Edge 43, Type (0, 0), BuildingBlock: XUDNAN_clean_linker_2, # of connection points: 2
#     Edge 44, Type (0, 0), BuildingBlock: XUDNAN_clean_linker_2, # of connection points: 2
#     Edge 45, Type (0, 0), BuildingBlock: XUDNAN_clean_linker_2, # of connection points: 2
#     Edge 46, Type (0, 0), BuildingBlock: XUDNAN_clean_linker_2, # of connection points: 2
#     Edge 47, Type (0, 0), BuildingBlock: XUDNAN_clean_linker_2, # of connection points: 2
#     Edge 48, Type (0, 0), BuildingBlock: XUDNAN_clean_linker_2, # of connection points: 2
#     Edge 49, Type (0, 0), BuildingBlock: XUDNAN_clean_linker_2, # of connection points: 2
#     Edge 50, Type (0, 0), BuildingBlock: XUDNAN_clean_linker_2, # of connection points: 2
#     Edge 51, Type (0, 0), BuildingBlock: XUDNAN_clean_linker_2, # of connection points: 2
#     Edge 52, Type (0, 0), BuildingBlock: XUDNAN_clean_linker_2, # of connection points: 2
#     Edge 53, Type (0, 0), BuildingBlock: XUDNAN_clean_linker_2, # of connection points: 2
#     Edge 54, Type (0, 0), BuildingBlock: XUDNAN_clean_linker_2, # of connection points: 2
#     Edge 55, Type (0, 0), BuildingBlock: XUDNAN_clean_linker_2, # of connection points: 2
# Relax obj value: 0.558
# Max RMSD: 0.288
# Mean RMSD: 0.268
data_MOF--net-yfc--node1-XOMCOT_clean_sbu_0--edge1-XUDNAN_clean_linker_2
_symmetry_space_group_name_H-M    P1
_symmetry_Int_Tables_number       1
_symmetry_cell_setting            triclinic
loop_
_symmetry_equiv_pos_as_xyz
'x, y, z'
_cell_length_a     40.682257
_cell_length_b     40.715434
_cell_length_c     48.255642
_cell_angle_alpha  89.970229
_cell_angle_beta   89.787314
_cell_angle_gamma 89.881539
loop_
_atom_site_label
_atom_site_type_symbol
_atom_site_fract_x
_atom_site_fract_y
_atom_site_fract_z
_atom_type_partial_charge
Co0 Co 0.72767 0.02709 0.21752 0.0
C1 C 0.74356 0.09558 0.19972 0.0
C2 C 0.7069 0.09278 0.2318 0.0
C3 C 0.71314 0.12513 0.22664 0.0
N4 N 0.72559 0.07422 0.2148 0.0
N5 N 0.73623 0.12695 0.20662 0.0
H6 H 0.76204 0.08836 0.18471 0.0
H7 H 0.69058 0.08347 0.24764 0.0
C8 C 0.65219 0.02554 0.21457 0.0
O9 O 0.65148 0.01549 0.18875 0.0
N10 N 0.72826 0.97962 0.22226 0.0
C11 C 0.7509 0.96042 0.23476 0.0
C12 C 0.73924 0.92865 0.23577 0.0
C13 C 0.70356 0.95912 0.2156 0.0
N14 N 0.7094 0.928 0.2237 0.0
C15 C 0.73974 0.99848 0.16493 0.0
C16 C 0.70435 0.04173 0.1325 0.0
C17 C 0.72246 0.01659 0.11959 0.0
C18 C 0.74027 0.99494 0.13629 0.0
C19 C 0.70405 0.04414 0.16159 0.0
N20 N 0.72103 0.02207 0.17756 0.0
H21 H 0.75567 0.98278 0.17691 0.0
H22 H 0.69026 0.06383 0.17119 0.0
H23 H 0.77391 0.96874 0.24334 0.0
H24 H 0.68106 0.96691 0.206 0.0
O25 O 0.77482 0.02873 0.21582 0.0
O26 O 0.74561 0.03315 0.25453 0.0
O27 O 0.67936 0.02803 0.22763 0.0
C28 C 0.77432 0.03406 0.24236 0.0
H29 H 0.70159 0.14577 0.23695 0.0
H30 H 0.75139 0.90788 0.24531 0.0
H31 H 0.69059 0.05928 0.12027 0.0
H32 H 0.75564 0.97598 0.12723 0.0
Co33 Co 0.47459 0.75681 0.71659 0.0
C34 C 0.40372 0.77556 0.705 0.0
C35 C 0.41328 0.76357 0.7474 0.0
C36 C 0.38037 0.77014 0.74477 0.0
N37 N 0.42816 0.76694 0.72251 0.0
N38 N 0.37429 0.77754 0.71807 0.0
H39 H 0.40667 0.77912 0.68308 0.0
H40 H 0.42529 0.7554 0.76614 0.0
C41 C 0.44039 0.69271 0.71786 0.0
O42 O 0.42071 0.70442 0.69875 0.0
N43 N 0.52051 0.74642 0.71233 0.0
C44 C 0.54081 0.75395 0.69109 0.0
C45 C 0.57133 0.74057 0.69639 0.0
C46 C 0.5389 0.72937 0.73046 0.0
N47 N 0.56991 0.72542 0.72118 0.0
C48 C 0.46268 0.77638 0.66074 0.0
C49 C 0.47493 0.71639 0.63608 0.0
C50 C 0.46666 0.74333 0.61937 0.0
C51 C 0.4609 0.7737 0.63203 0.0
C52 C 0.47668 0.72023 0.66482 0.0
N53 N 0.4689 0.7496 0.67696 0.0
H54 H 0.4585 0.80016 0.67 0.0
H55 H 0.48505 0.69979 0.67721 0.0
H56 H 0.53394 0.76799 0.67298 0.0
H57 H 0.52967 0.71973 0.7499 0.0
O58 O 0.48462 0.8029 0.71512 0.0
O59 O 0.48297 0.77317 0.75353 0.0
O60 O 0.46464 0.70966 0.72662 0.0
C61 C 0.48629 0.80189 0.74196 0.0
H62 H 0.36211 0.76771 0.76101 0.0
H63 H 0.59298 0.74225 0.68336 0.0
H64 H 0.48075 0.69276 0.62698 0.0
H65 H 0.45468 0.7952 0.61989 0.0
Co66 Co 0.79009 0.44973 0.18739 0.0
C67 C 0.78142 0.37688 0.17914 0.0
C68 C 0.82106 0.39792 0.1557 0.0
C69 C 0.81979 0.36514 0.14978 0.0
N70 N 0.79693 0.4055 0.17391 0.0
N71 N 0.79493 0.35197 0.16443 0.0
H72 H 0.76076 0.37417 0.19312 0.0
H73 H 0.83858 0.41522 0.14726 0.0
C74 C 0.86297 0.46908 0.19924 0.0
O75 O 0.85928 0.5011 0.19984 0.0
N76 N 0.78428 0.49433 0.20021 0.0
C77 C 0.76914 0.51872 0.18627 0.0
C78 C 0.77436 0.54778 0.20005 0.0
C79 C 0.79687 0.5085 0.22307 0.0
N80 N 0.79181 0.54125 0.22306 0.0
C81 C 0.77006 0.45129 0.13184 0.0
C82 C 0.81544 0.49536 0.11102 0.0
C83 C 0.79263 0.48088 0.093 0.0
C84 C 0.76969 0.45882 0.10382 0.0
C85 C 0.81534 0.4866 0.13921 0.0
N86 N 0.79286 0.46462 0.14916 0.0
H87 H 0.75229 0.43389 0.13965 0.0
H88 H 0.83296 0.49767 0.1529 0.0
H89 H 0.75678 0.51593 0.16662 0.0
H90 H 0.81194 0.49566 0.23804 0.0
O91 O 0.743 0.44418 0.18942 0.0
O92 O 0.77737 0.43325 0.22371 0.0
O93 O 0.83902 0.45006 0.19357 0.0
C94 C 0.7472 0.4343 0.21478 0.0
H95 H 0.8364 0.35183 0.13625 0.0
H96 H 0.76755 0.57209 0.19295 0.0
H97 H 0.83337 0.51277 0.10332 0.0
H98 H 0.75134 0.44752 0.0907 0.0
Co99 Co 0.04323 0.77225 0.69446 0.0
C100 C 0.11718 0.77548 0.69026 0.0
C101 C 0.09873 0.72758 0.68089 0.0
C102 C 0.13215 0.7271 0.67744 0.0
N103 N 0.08883 0.75827 0.68795 0.0
N104 N 0.14359 0.75716 0.68329 0.0
H105 H 0.11905 0.80061 0.69697 0.0
H106 H 0.08292 0.70655 0.6782 0.0
C107 C 0.07225 0.84123 0.68863 0.0
O108 O 0.08029 0.83677 0.66253 0.0
N109 N 0.99839 0.78545 0.70157 0.0
C110 C 0.97131 0.77455 0.68854 0.0
C111 C 0.94429 0.79048 0.69944 0.0
C112 C 0.9876 0.80739 0.72047 0.0
N113 N 0.95458 0.81107 0.71952 0.0
C114 C 0.04452 0.7546 0.63727 0.0
C115 C 0.01659 0.81095 0.61588 0.0
C116 C 0.02682 0.78601 0.5977 0.0
C117 C 0.04064 0.75754 0.60879 0.0
C118 C 0.02177 0.8073 0.64453 0.0
N119 N 0.03676 0.77975 0.65481 0.0
H120 H 0.05283 0.73141 0.64514 0.0
H121 H 0.01367 0.82652 0.65843 0.0
H122 H 0.97129 0.75648 0.67211 0.0
H123 H 0.00363 0.82074 0.73429 0.0
O124 O 0.0298 0.7268 0.69603 0.0
O125 O 0.04682 0.75612 0.7319 0.0
O126 O 0.05794 0.81859 0.70244 0.0
C127 C 0.03735 0.72785 0.72222 0.0
H128 H 0.14703 0.70623 0.67131 0.0
H129 H 0.919 0.78693 0.69326 0.0
H130 H 0.0049 0.83298 0.60805 0.0
H131 H 0.04739 0.7371 0.59554 0.0
Co132 Co 0.74073 0.47197 0.79715 0.0
C133 C 0.72442 0.40316 0.812 0.0
C134 C 0.75097 0.40512 0.77363 0.0
C135 C 0.743 0.37298 0.77898 0.0
N136 N 0.73979 0.42419 0.79456 0.0
N137 N 0.72639 0.37175 0.80314 0.0
H138 H 0.71173 0.41062 0.83071 0.0
H139 H 0.7639 0.41349 0.75544 0.0
C140 C 0.66588 0.48749 0.79158 0.0
O141 O 0.66664 0.51837 0.79929 0.0
N142 N 0.7418 0.51937 0.79944 0.0
C143 C 0.7586 0.53684 0.81838 0.0
C144 C 0.75208 0.5696 0.81444 0.0
C145 C 0.72702 0.54181 0.78314 0.0
N146 N 0.73172 0.5727 0.79258 0.0
C147 C 0.7617 0.45359 0.85093 0.0
C148 C 0.71757 0.49169 0.88051 0.0
C149 C 0.74393 0.47698 0.89452 0.0
C150 C 0.76546 0.45678 0.87951 0.0
C151 C 0.71436 0.48738 0.85187 0.0
N152 N 0.73695 0.46945 0.83732 0.0
H153 H 0.77972 0.43957 0.8394 0.0
H154 H 0.69524 0.50055 0.84132 0.0
H155 H 0.77369 0.52639 0.83456 0.0
H156 H 0.71144 0.5355 0.76582 0.0
O157 O 0.78788 0.4725 0.79495 0.0
O158 O 0.75464 0.47465 0.75865 0.0
O159 O 0.69171 0.46957 0.79128 0.0
C160 C 0.7846 0.47408 0.76822 0.0
H161 H 0.74986 0.35201 0.76643 0.0
H162 H 0.76071 0.5895 0.82735 0.0
H163 H 0.70026 0.5073 0.89142 0.0
H164 H 0.78626 0.44511 0.88946 0.0
Co165 Co 0.03517 0.73071 0.30107 0.0
C166 C 0.10471 0.71673 0.31261 0.0
C167 C 0.1008 0.75106 0.2791 0.0
C168 C 0.13332 0.74301 0.28241 0.0
N169 N 0.08268 0.73459 0.29806 0.0
N170 N 0.13569 0.72137 0.30339 0.0
H171 H 0.0981 0.70003 0.32918 0.0
H172 H 0.09162 0.76752 0.2635 0.0
C173 C 0.02789 0.65437 0.30133 0.0
O174 O 0.99737 0.6531 0.31012 0.0
N175 N 0.98784 0.7266 0.30378 0.0
C176 C 0.9683 0.74153 0.32257 0.0
C177 C 0.93685 0.72974 0.3197 0.0
C178 C 0.96764 0.70775 0.28847 0.0
N179 N 0.93659 0.7082 0.29849 0.0
C180 C 0.05384 0.75748 0.35312 0.0
C181 C 0.01927 0.71419 0.3863 0.0
C182 C 0.03334 0.7421 0.39835 0.0
C183 C 0.05183 0.76325 0.38163 0.0
C184 C 0.02264 0.70885 0.35778 0.0
N185 N 0.03865 0.73105 0.34139 0.0
H186 H 0.06632 0.7752 0.34015 0.0
H187 H 0.01007 0.68834 0.34879 0.0
H188 H 0.97663 0.75863 0.33817 0.0
H189 H 0.97601 0.69201 0.27179 0.0
O190 O 0.02926 0.7773 0.29552 0.0
O191 O 0.03108 0.74036 0.26184 0.0
O192 O 0.04297 0.68167 0.29834 0.0
C193 C 0.02823 0.7711 0.2691 0.0
H194 H 0.15375 0.75275 0.27056 0.0
H195 H 0.91608 0.73547 0.33294 0.0
H196 H 0.00478 0.69732 0.39865 0.0
H197 H 0.06292 0.78515 0.39022 0.0
Co198 Co 0.77762 0.06168 0.82717 0.0
C199 C 0.75201 0.12548 0.84918 0.0
C200 C 0.80454 0.12558 0.8458 0.0
C201 C 0.79448 0.15608 0.85447 0.0
N202 N 0.77798 0.10602 0.8427 0.0
N203 N 0.76155 0.15593 0.85648 0.0
H204 H 0.72653 0.11839 0.84733 0.0
H205 H 0.82964 0.1189 0.84122 0.0
C206 C 0.85381 0.05739 0.82798 0.0
O207 O 0.8564 0.04161 0.85159 0.0
N208 N 0.77827 0.01778 0.81089 0.0
C209 C 0.75772 0.00463 0.792 0.0
C210 C 0.77035 0.97494 0.78322 0.0
C211 C 0.80269 0.9955 0.81355 0.0
N212 N 0.79883 0.96935 0.79666 0.0
C213 C 0.76141 0.01864 0.87114 0.0
C214 C 0.79657 0.04937 0.91252 0.0
C215 C 0.7737 0.02511 0.91993 0.0
C216 C 0.75663 0.00918 0.89865 0.0
C217 C 0.80068 0.0581 0.88461 0.0
N218 N 0.78285 0.0431 0.86424 0.0
H219 H 0.74601 0.00772 0.85547 0.0
H220 H 0.8174 0.07774 0.87975 0.0
H221 H 0.73562 0.01599 0.78418 0.0
H222 H 0.82362 0.99889 0.82678 0.0
O223 O 0.7302 0.0624 0.82694 0.0
O224 O 0.76204 0.08003 0.79261 0.0
O225 O 0.82585 0.0655 0.81815 0.0
C226 C 0.73254 0.07652 0.80278 0.0
H227 H 0.80991 0.1775 0.85701 0.0
H228 H 0.75972 0.95916 0.76762 0.0
H229 H 0.81062 0.06212 0.92819 0.0
H230 H 0.73819 0.9908 0.90322 0.0
Co231 Co 0.45187 0.75969 0.31939 0.0
C232 C 0.38493 0.73192 0.33058 0.0
C233 C 0.39051 0.78085 0.34631 0.0
C234 C 0.35984 0.76977 0.35353 0.0
N235 N 0.40654 0.75711 0.3321 0.0
N236 N 0.35648 0.73911 0.34366 0.0
H237 H 0.38961 0.70873 0.3204 0.0
H238 H 0.40015 0.80483 0.35112 0.0
C239 C 0.46326 0.83407 0.31426 0.0
O240 O 0.49453 0.83248 0.32077 0.0
N241 N 0.4972 0.76197 0.30694 0.0
C242 C 0.52274 0.74477 0.31725 0.0
C243 C 0.55073 0.7531 0.30303 0.0
C244 C 0.5099 0.77948 0.28566 0.0
N245 N 0.5428 0.77529 0.28343 0.0
C246 C 0.47337 0.73358 0.37072 0.0
C247 C 0.46185 0.78803 0.40335 0.0
C248 C 0.46739 0.75754 0.41604 0.0
C249 C 0.475 0.73065 0.39929 0.0
C250 C 0.46104 0.79011 0.37429 0.0
N251 N 0.46531 0.76265 0.35826 0.0
H252 H 0.47696 0.71148 0.35891 0.0
H253 H 0.45447 0.81332 0.36521 0.0
H254 H 0.52155 0.72721 0.3339 0.0
H255 H 0.49561 0.79608 0.27298 0.0
O256 O 0.45388 0.71271 0.31535 0.0
O257 O 0.43854 0.74688 0.28224 0.0
O258 O 0.44513 0.80851 0.31442 0.0
C259 C 0.44383 0.71676 0.29013 0.0
H260 H 0.34101 0.78353 0.36442 0.0
H261 H 0.57517 0.74376 0.30709 0.0
H262 H 0.45603 0.80952 0.41566 0.0
H263 H 0.48035 0.70682 0.40823 0.0
Co264 Co 0.30592 0.97081 0.85556 0.0
C265 C 0.33387 0.03297 0.83401 0.0
C266 C 0.33046 0.03411 0.87827 0.0
C267 C 0.34808 0.0611 0.86941 0.0
N268 N 0.32118 0.01639 0.85603 0.0
N269 N 0.35045 0.06021 0.84152 0.0
H270 H 0.33409 0.02369 0.81305 0.0
H271 H 0.32744 0.02673 0.8996 0.0
C272 C 0.27395 0.99052 0.91116 0.0
O273 O 0.25589 0.01384 0.90015 0.0
N274 N 0.2918 0.92549 0.85366 0.0
C275 C 0.28101 0.91128 0.83017 0.0
C276 C 0.27644 0.87843 0.83485 0.0
C277 C 0.29357 0.901 0.87256 0.0
N278 N 0.2843 0.87201 0.86137 0.0
C279 C 0.26112 0.99678 0.81585 0.0
C280 C 0.20596 0.96773 0.83854 0.0
C281 C 0.20504 0.97774 0.81068 0.0
C282 C 0.23264 0.99409 0.79995 0.0
C283 C 0.23515 0.97045 0.85359 0.0
N284 N 0.26277 0.98358 0.8418 0.0
H285 H 0.28288 0.00601 0.80586 0.0
H286 H 0.23642 0.9585 0.87354 0.0
H287 H 0.27746 0.92391 0.81068 0.0
H288 H 0.30249 0.90401 0.89351 0.0
O289 O 0.32842 0.96442 0.82055 0.0
O290 O 0.35018 0.95616 0.86216 0.0
O291 O 0.29269 0.97265 0.89604 0.0
C292 C 0.35353 0.95542 0.8354 0.0
H293 H 0.35997 0.07885 0.8827 0.0
H294 H 0.26829 0.86043 0.81987 0.0
H295 H 0.18516 0.95554 0.84806 0.0
H296 H 0.23362 0.00195 0.77854 0.0
Co297 Co 0.54895 0.28184 0.3473 0.0
C298 C 0.50357 0.32623 0.31736 0.0
C299 C 0.48276 0.31276 0.35646 0.0
C300 C 0.46039 0.33219 0.34231 0.0
N301 N 0.51016 0.30934 0.34088 0.0
N302 N 0.47364 0.34071 0.31764 0.0
H303 H 0.51967 0.32653 0.29958 0.0
H304 H 0.47865 0.30123 0.37634 0.0
C305 C 0.53562 0.29232 0.40764 0.0
O306 O 0.5406 0.32382 0.40361 0.0
N307 N 0.58724 0.25412 0.35237 0.0
C308 C 0.5956 0.22851 0.33601 0.0
C309 C 0.62478 0.2156 0.34495 0.0
C310 C 0.61227 0.25723 0.37049 0.0
N311 N 0.63526 0.23363 0.36651 0.0
C312 C 0.51741 0.24206 0.30694 0.0
C313 C 0.51812 0.18539 0.33852 0.0
C314 C 0.51604 0.18275 0.30959 0.0
C315 C 0.51313 0.21169 0.29399 0.0
C316 C 0.5223 0.21624 0.35066 0.0
N317 N 0.52461 0.24374 0.3345 0.0
H318 H 0.51886 0.26381 0.29419 0.0
H319 H 0.52799 0.21714 0.37246 0.0
H320 H 0.58217 0.22043 0.31801 0.0
H321 H 0.6142 0.27684 0.38554 0.0
O322 O 0.56778 0.29607 0.31241 0.0
O323 O 0.5761 0.32068 0.35272 0.0
O324 O 0.53584 0.2726 0.38704 0.0
C325 C 0.58197 0.31941 0.32622 0.0
H326 H 0.43616 0.33911 0.34957 0.0
H327 H 0.63843 0.19584 0.33521 0.0
H328 H 0.51985 0.16364 0.35137 0.0
H329 H 0.5114 0.2109 0.27161 0.0
Co330 Co 0.2004 0.55138 0.85285 0.0
C331 C 0.17488 0.48782 0.8324 0.0
C332 C 0.16104 0.49599 0.87467 0.0
C333 C 0.14545 0.46805 0.86536 0.0
N334 N 0.18027 0.50801 0.85421 0.0
N335 N 0.154 0.46318 0.83867 0.0
H336 H 0.18413 0.49204 0.81178 0.0
H337 H 0.15689 0.50782 0.89444 0.0
C338 C 0.22128 0.52505 0.90836 0.0
O339 O 0.22844 0.49704 0.89622 0.0
N340 N 0.21984 0.59466 0.84993 0.0
C341 C 0.23278 0.60617 0.82612 0.0
C342 C 0.24587 0.63652 0.83073 0.0
C343 C 0.22511 0.6185 0.86894 0.0
N344 N 0.24132 0.6444 0.85762 0.0
C345 C 0.24779 0.52481 0.81501 0.0
C346 C 0.30152 0.54369 0.84589 0.0
C347 C 0.30559 0.53866 0.81738 0.0
C348 C 0.27864 0.527 0.8023 0.0
C349 C 0.27024 0.54173 0.8577 0.0
N350 N 0.24335 0.53387 0.84204 0.0
H351 H 0.22705 0.52053 0.80178 0.0
H352 H 0.26758 0.55111 0.87842 0.0
H353 H 0.23287 0.59322 0.80657 0.0
H354 H 0.2177 0.61681 0.89045 0.0
O355 O 0.18129 0.55753 0.81655 0.0
O356 O 0.1573 0.57111 0.8563 0.0
O357 O 0.21104 0.5494 0.8939 0.0
C358 C 0.15611 0.57012 0.82938 0.0
H359 H 0.1275 0.45376 0.87674 0.0
H360 H 0.25728 0.65192 0.81516 0.0
H361 H 0.32171 0.55235 0.85849 0.0
H362 H 0.2803 0.52322 0.78013 0.0
Co363 Co 0.96631 0.21132 0.34825 0.0
C364 C 0.02171 0.16992 0.32743 0.0
C365 C 0.03603 0.19915 0.36227 0.0
C366 C 0.06292 0.18142 0.35326 0.0
N367 N 0.01001 0.19174 0.34624 0.0
N368 N 0.05391 0.16306 0.3313 0.0
H369 H 0.00717 0.15929 0.31107 0.0
H370 H 0.03592 0.21685 0.37895 0.0
C371 C 0.95873 0.24144 0.40596 0.0
O372 O 0.93203 0.25706 0.3984 0.0
N373 N 0.92247 0.23041 0.34888 0.0
C374 C 0.91074 0.25366 0.33158 0.0
C375 C 0.87767 0.2576 0.33632 0.0
C376 C 0.89585 0.21945 0.36297 0.0
N377 N 0.86835 0.23622 0.35616 0.0
C378 C 0.99332 0.25088 0.30539 0.0
C379 C 0.98373 0.31084 0.33102 0.0
C380 C 0.98873 0.3101 0.30223 0.0
C381 C 0.9956 0.27971 0.28978 0.0
C382 C 0.98169 0.28137 0.34589 0.0
N383 N 0.98406 0.25182 0.3326 0.0
H384 H 0.99627 0.22758 0.29498 0.0
H385 H 0.9752 0.28272 0.36741 0.0
H386 H 0.9247 0.26603 0.31563 0.0
H387 H 0.89676 0.19987 0.37812 0.0
O388 O 0.95379 0.18972 0.31419 0.0
O389 O 0.94711 0.16878 0.3563 0.0
O390 O 0.97581 0.22505 0.3883 0.0
C391 C 0.94292 0.16594 0.32969 0.0
H392 H 0.08746 0.18274 0.36177 0.0
H393 H 0.8615 0.274 0.32511 0.0
H394 H 0.97851 0.3337 0.34163 0.0
H395 H 1.00055 0.278 0.26776 0.0
Co396 Co 0.27495 0.53008 0.1676 0.0
C397 C 0.31579 0.47361 0.18559 0.0
C398 C 0.32061 0.4826 0.14207 0.0
C399 C 0.34436 0.46035 0.14991 0.0
N400 N 0.3022 0.49074 0.16434 0.0
N401 N 0.34154 0.45495 0.17738 0.0
H402 H 0.30993 0.47769 0.20714 0.0
H403 H 0.31925 0.49442 0.12206 0.0
C404 C 0.25441 0.50549 0.11043 0.0
O405 O 0.25304 0.47489 0.11902 0.0
N406 N 0.24889 0.56947 0.17157 0.0
C407 C 0.23027 0.57766 0.1937 0.0
C408 C 0.21465 0.6069 0.18828 0.0
C409 C 0.24517 0.59422 0.1533 0.0
N410 N 0.22407 0.61718 0.16294 0.0
C411 C 0.23657 0.49419 0.20652 0.0
C412 C 0.17759 0.50878 0.18107 0.0
C413 C 0.17799 0.5032 0.20967 0.0
C414 C 0.2075 0.4935 0.22201 0.0
C415 C 0.2073 0.50975 0.16642 0.0
N416 N 0.23662 0.50508 0.17973 0.0
H417 H 0.25925 0.49104 0.21757 0.0
H418 H 0.20656 0.51962 0.14572 0.0
H419 H 0.22837 0.56349 0.21256 0.0
H420 H 0.25768 0.5955 0.1335 0.0
O421 O 0.29453 0.53889 0.20324 0.0
O422 O 0.31362 0.55681 0.16276 0.0
O423 O 0.26209 0.5285 0.12718 0.0
C424 C 0.31635 0.55571 0.18956 0.0
H425 H 0.36379 0.45088 0.13676 0.0
H426 H 0.1985 0.62019 0.20222 0.0
H427 H 0.15524 0.51672 0.1709 0.0
H428 H 0.20869 0.48909 0.24413 0.0
Co429 Co 0.96462 0.29329 0.6636 0.0
C430 C 0.02223 0.31725 0.69361 0.0
C431 C 0.02647 0.32888 0.65047 0.0
C432 C 0.05192 0.34398 0.66461 0.0
N433 N 0.00795 0.31203 0.66881 0.0
N434 N 0.04911 0.33644 0.69176 0.0
H435 H 0.01176 0.30948 0.71308 0.0
H436 H 0.02086 0.33153 0.62869 0.0
C437 C 0.96312 0.25678 0.60907 0.0
O438 O 0.93867 0.23888 0.61835 0.0
N439 N 0.92042 0.2753 0.65985 0.0
C440 C 0.90725 0.24986 0.67403 0.0
C441 C 0.8748 0.24665 0.66695 0.0
C442 C 0.89527 0.28749 0.64463 0.0
N443 N 0.8672 0.27028 0.6485 0.0
C444 C 0.97622 0.25371 0.71148 0.0
C445 C 0.98993 0.19535 0.68473 0.0
C446 C 0.98483 0.19521 0.71346 0.0
C447 C 0.97947 0.22505 0.72693 0.0
C448 C 0.98777 0.22502 0.67002 0.0
N449 N 0.97894 0.2535 0.68319 0.0
H450 H 0.9691 0.27559 0.72247 0.0
H451 H 0.99175 0.22429 0.64803 0.0
H452 H 0.91966 0.23476 0.68906 0.0
H453 H 0.89741 0.30861 0.63115 0.0
O454 O 0.949 0.31853 0.6949 0.0
O455 O 0.94853 0.33581 0.65135 0.0
O456 O 0.97831 0.27655 0.62528 0.0
C457 C 0.94208 0.34156 0.67727 0.0
H458 H 0.07037 0.35999 0.65574 0.0
H459 H 0.85776 0.22911 0.67578 0.0
H460 H 0.99433 0.17261 0.67367 0.0
H461 H 0.97499 0.22589 0.74907 0.0
Co462 Co 0.20712 0.94304 0.15899 0.0
C463 C 0.18413 0.99741 0.19436 0.0
C464 C 0.17696 0.00832 0.15128 0.0
C465 C 0.16319 0.03325 0.1669 0.0
N466 N 0.19005 0.98594 0.16857 0.0
N467 N 0.16766 0.0263 0.194 0.0
H468 H 0.19032 0.984 0.213 0.0
H469 H 0.17636 0.00608 0.12895 0.0
C470 C 0.25655 0.95779 0.11364 0.0
O471 O 0.27922 0.94368 0.12875 0.0
N472 N 0.2243 0.89927 0.14932 0.0
C473 C 0.25478 0.88725 0.15414 0.0
C474 C 0.25653 0.85529 0.14566 0.0
C475 C 0.20809 0.87379 0.13754 0.0
N476 N 0.22716 0.84657 0.13529 0.0
C477 C 0.24821 0.93074 0.20489 0.0
C478 C 0.29535 0.97822 0.19584 0.0
C479 C 0.3004 0.95496 0.21708 0.0
C480 C 0.27567 0.93169 0.2218 0.0
C481 C 0.26699 0.9764 0.1792 0.0
N482 N 0.24512 0.95127 0.18267 0.0
H483 H 0.23067 0.91132 0.20835 0.0
H484 H 0.26327 0.99432 0.16296 0.0
H485 H 0.27489 0.90014 0.16367 0.0
H486 H 0.18275 0.87483 0.13108 0.0
O487 O 0.17939 0.92414 0.18731 0.0
O488 O 0.1642 0.93154 0.14373 0.0
O489 O 0.2275 0.96161 0.12347 0.0
C490 C 0.15674 0.92168 0.16867 0.0
H491 H 0.15046 0.05459 0.15889 0.0
H492 H 0.27748 0.83925 0.14849 0.0
H493 H 0.31329 0.99727 0.19186 0.0
H494 H 0.27814 0.91279 0.23743 0.0
Co495 Co 0.5465 0.23893 0.66574 0.0
C496 C 0.49656 0.2023 0.69778 0.0
C497 C 0.49062 0.19222 0.65471 0.0
C498 C 0.46969 0.17196 0.6698 0.0
N499 N 0.5073 0.21173 0.67237 0.0
N500 N 0.47381 0.17822 0.69702 0.0
H501 H 0.50638 0.21178 0.71687 0.0
H502 H 0.49472 0.19102 0.6326 0.0
C503 C 0.51627 0.24947 0.6088 0.0
O504 O 0.48981 0.26223 0.62018 0.0
N505 N 0.58588 0.26505 0.66084 0.0
C506 C 0.59504 0.2895 0.678 0.0
C507 C 0.62484 0.30147 0.66952 0.0
C508 C 0.61104 0.2615 0.64271 0.0
N509 N 0.63491 0.2839 0.64743 0.0
C510 C 0.50714 0.28459 0.6962 0.0
C511 C 0.52677 0.33824 0.6653 0.0
C512 C 0.51764 0.3427 0.69304 0.0
C513 C 0.50489 0.31592 0.70763 0.0
C514 C 0.52842 0.30634 0.65451 0.0
N515 N 0.52163 0.27972 0.67097 0.0
H516 H 0.50174 0.26436 0.70962 0.0
H517 H 0.54055 0.30304 0.63475 0.0
H518 H 0.58124 0.29758 0.69595 0.0
H519 H 0.61225 0.24258 0.62698 0.0
O520 O 0.5597 0.23195 0.70368 0.0
O521 O 0.57366 0.19991 0.66831 0.0
O522 O 0.5397 0.23866 0.62396 0.0
C523 C 0.57543 0.20621 0.69472 0.0
H524 H 0.45429 0.15277 0.66142 0.0
H525 H 0.63893 0.32048 0.67968 0.0
H526 H 0.53697 0.35839 0.6534 0.0
H527 H 0.49741 0.31852 0.7291 0.0
H528 H 0.70424 0.87865 0.26126 0.0
H529 H 0.66023 0.91833 0.18667 0.0
H530 H 0.61431 0.87914 0.19125 0.0
H531 H 0.67812 0.79157 0.25018 0.0
H532 H 0.67096 0.78568 0.28673 0.0
H533 H 0.70251 0.81356 0.27514 0.0
H534 H 0.67575 0.8602 0.30406 0.0
H535 H 0.64403 0.83265 0.31551 0.0
H536 H 0.63317 0.87052 0.29844 0.0
H537 H 0.56946 0.84086 0.20779 0.0
H538 H 0.53125 0.80468 0.23365 0.0
H539 H 0.60567 0.79021 0.29665 0.0
C540 C 0.68563 0.87834 0.24532 0.0
C541 C 0.68585 0.90161 0.22365 0.0
C542 C 0.66041 0.90094 0.20363 0.0
C543 C 0.63432 0.87863 0.20595 0.0
C544 C 0.63422 0.85685 0.22821 0.0
C545 C 0.65949 0.85623 0.24732 0.0
C546 C 0.65236 0.83237 0.27057 0.0
C547 C 0.67748 0.80411 0.27064 0.0
C548 C 0.65125 0.85 0.29879 0.0
C549 C 0.61869 0.82048 0.26207 0.0
C550 C 0.60867 0.83459 0.23748 0.0
C551 C 0.57732 0.82915 0.22678 0.0
C552 C 0.5557 0.80878 0.24168 0.0
C553 C 0.56556 0.79421 0.26699 0.0
C554 C 0.59762 0.80005 0.27699 0.0
H555 H 0.70548 0.58756 0.74223 0.0
H556 H 0.71366 0.62222 0.82697 0.0
H557 H 0.67591 0.66768 0.81657 0.0
H558 H 0.69894 0.6698 0.70969 0.0
H559 H 0.66949 0.65599 0.68445 0.0
H560 H 0.69987 0.62786 0.69772 0.0
H561 H 0.65359 0.5879 0.71267 0.0
H562 H 0.62307 0.61594 0.69966 0.0
H563 H 0.62124 0.6024 0.7352 0.0
H564 H 0.63197 0.70468 0.79922 0.0
H565 H 0.58809 0.73449 0.77406 0.0
H566 H 0.60965 0.67836 0.70002 0.0
C567 C 0.69973 0.60505 0.75843 0.0
C568 C 0.71282 0.60139 0.78535 0.0
C569 C 0.7046 0.62476 0.80604 0.0
C570 C 0.68293 0.65061 0.8004 0.0
C571 C 0.66992 0.65306 0.77387 0.0
C572 C 0.67832 0.63126 0.75307 0.0
C573 C 0.65971 0.63877 0.72665 0.0
C574 C 0.68342 0.6487 0.70324 0.0
C575 C 0.63813 0.60952 0.71805 0.0
C576 C 0.63901 0.66766 0.73613 0.0
C577 C 0.64523 0.67538 0.7635 0.0
C578 C 0.62733 0.69937 0.77761 0.0
C579 C 0.60246 0.71601 0.76332 0.0
C580 C 0.5961 0.70886 0.73521 0.0
C581 C 0.61476 0.68462 0.72137 0.0
H582 H 0.92048 0.6842 0.24792 0.0
H583 H 0.89574 0.67887 0.33524 0.0
H584 H 0.85495 0.63563 0.32541 0.0
H585 H 0.83704 0.67212 0.22257 0.0
H586 H 0.85018 0.64793 0.19327 0.0
H587 H 0.87694 0.67894 0.20724 0.0
H588 H 0.92277 0.63528 0.21363 0.0
H589 H 0.89611 0.60411 0.19982 0.0
H590 H 0.91428 0.59877 0.23354 0.0
H591 H 0.82007 0.58966 0.30644 0.0
H592 H 0.78948 0.54844 0.27861 0.0
H593 H 0.8343 0.58627 0.20373 0.0
C594 C 0.90623 0.67407 0.26485 0.0
C595 C 0.91106 0.68498 0.29227 0.0
C596 C 0.892 0.67123 0.31401 0.0
C597 C 0.86898 0.64649 0.30866 0.0
C598 C 0.86501 0.63604 0.28142 0.0
C599 C 0.88275 0.64971 0.25981 0.0
C600 C 0.87362 0.63425 0.2324 0.0
C601 C 0.85854 0.65984 0.21271 0.0
C602 C 0.90347 0.61708 0.21907 0.0
C603 C 0.84822 0.60959 0.242 0.0
C604 C 0.84384 0.61069 0.27039 0.0
C605 C 0.82288 0.58892 0.28414 0.0
C606 C 0.80572 0.56565 0.26834 0.0
C607 C 0.80928 0.5649 0.23924 0.0
C608 C 0.83078 0.58707 0.22597 0.0
H609 H 0.89774 0.841 0.70415 0.0
H610 H 0.966 0.83057 0.77241 0.0
H611 H 0.93171 0.86804 0.80071 0.0
H612 H 0.88173 0.9262 0.71392 0.0
H613 H 0.83897 0.92351 0.70454 0.0
H614 H 0.86815 0.89477 0.6903 0.0
H615 H 0.83314 0.84639 0.70895 0.0
H616 H 0.80391 0.87503 0.72337 0.0
H617 H 0.82292 0.84467 0.74531 0.0
H618 H 0.89005 0.90718 0.82133 0.0
H619 H 0.84618 0.94722 0.83182 0.0
H620 H 0.80606 0.93305 0.74945 0.0
C621 C 0.90524 0.84624 0.72517 0.0
C622 C 0.93448 0.83271 0.73613 0.0
C623 C 0.94384 0.84082 0.76353 0.0
C624 C 0.9244 0.86188 0.77981 0.0
C625 C 0.89572 0.87477 0.76835 0.0
C626 C 0.88627 0.8674 0.7416 0.0
C627 C 0.85515 0.88561 0.73375 0.0
C628 C 0.86139 0.90891 0.70918 0.0
C629 C 0.82712 0.86148 0.72748 0.0
C630 C 0.84859 0.90451 0.76024 0.0
C631 C 0.87212 0.89773 0.78002 0.0
C632 C 0.87153 0.91271 0.80596 0.0
C633 C 0.84656 0.93559 0.81168 0.0
C634 C 0.82256 0.94357 0.79148 0.0
C635 C 0.82356 0.92733 0.76556 0.0
H636 H 0.34271 0.07453 0.78639 0.0
H637 H 0.40749 0.08961 0.8565 0.0
H638 H 0.44569 0.12032 0.82661 0.0
H639 H 0.40645 0.06337 0.73491 0.0
H640 H 0.38512 0.08529 0.70793 0.0
H641 H 0.36215 0.06453 0.73468 0.0
H642 H 0.33203 0.11875 0.74676 0.0
H643 H 0.35475 0.13966 0.71994 0.0
H644 H 0.35571 0.15479 0.75503 0.0
H645 H 0.47815 0.14703 0.78949 0.0
H646 H 0.50146 0.17248 0.74808 0.0
H647 H 0.41575 0.14348 0.70063 0.0
C648 C 0.36493 0.08435 0.79542 0.0
C649 C 0.37188 0.0797 0.82399 0.0
C650 C 0.40117 0.09318 0.83495 0.0
C651 C 0.42325 0.11046 0.81803 0.0
C652 C 0.41578 0.11439 0.79007 0.0
C653 C 0.38724 0.10206 0.77878 0.0
C654 C 0.38521 0.11042 0.74803 0.0
C655 C 0.3847 0.07903 0.73035 0.0
C656 C 0.35514 0.1322 0.7421 0.0
C657 C 0.41713 0.12931 0.74389 0.0
C658 C 0.43433 0.13094 0.76849 0.0
C659 C 0.46467 0.14637 0.77021 0.0
C660 C 0.47763 0.16112 0.74638 0.0
C661 C 0.4603 0.16097 0.72087 0.0
C662 C 0.42969 0.14429 0.71967 0.0
H663 H 0.4081 0.35475 0.30886 0.0
H664 H 0.50606 0.37151 0.27559 0.0
H665 H 0.48245 0.40145 0.23647 0.0
H666 H 0.36739 0.34354 0.24386 0.0
H667 H 0.33056 0.36538 0.25366 0.0
H668 H 0.35479 0.34497 0.2797 0.0
H669 H 0.35989 0.3995 0.30692 0.0
H670 H 0.33552 0.42004 0.28103 0.0
H671 H 0.37571 0.43545 0.28964 0.0
H672 H 0.44901 0.428 0.19984 0.0
H673 H 0.40744 0.4529 0.16937 0.0
H674 H 0.33034 0.42216 0.22601 0.0
C675 C 0.42466 0.36493 0.29355 0.0
C676 C 0.45918 0.36001 0.29545 0.0
C677 C 0.47966 0.37391 0.27465 0.0
C678 C 0.46645 0.3913 0.25225 0.0
C679 C 0.43255 0.39513 0.25079 0.0
C680 C 0.41184 0.38273 0.27096 0.0
C681 C 0.3762 0.39082 0.26423 0.0
C682 C 0.35605 0.35929 0.26012 0.0
C683 C 0.36093 0.41276 0.2868 0.0
C684 C 0.38028 0.40946 0.2371 0.0
C685 C 0.41306 0.41142 0.22976 0.0
C686 C 0.42324 0.4267 0.20538 0.0
C687 C 0.39937 0.44055 0.18805 0.0
C688 C 0.36555 0.43932 0.19512 0.0
C689 C 0.35599 0.4236 0.2201 0.0
H690 H 0.07934 0.39619 0.6967 0.0
H691 H 0.06102 0.30446 0.73975 0.0
H692 H 0.08773 0.32649 0.78155 0.0
H693 H 0.16007 0.41269 0.72844 0.0
H694 H 0.15286 0.45632 0.73057 0.0
H695 H 0.13411 0.43268 0.70333 0.0
H696 H 0.07679 0.45416 0.71835 0.0
H697 H 0.09533 0.47767 0.74573 0.0
H698 H 0.06337 0.44851 0.75368 0.0
H699 H 0.1126 0.35954 0.8198 0.0
H700 H 0.13673 0.40085 0.85128 0.0
H701 H 0.14026 0.471 0.78371 0.0
C702 C 0.08161 0.38053 0.71472 0.0
C703 C 0.06797 0.34856 0.71493 0.0
C704 C 0.07093 0.3291 0.73917 0.0
C705 C 0.0862 0.34136 0.763 0.0
C706 C 0.09865 0.37317 0.76237 0.0
C707 C 0.09683 0.39245 0.73882 0.0
C708 C 0.11124 0.42625 0.74412 0.0
C709 C 0.14137 0.43233 0.72551 0.0
C710 C 0.08512 0.45323 0.74024 0.0
C711 C 0.12107 0.42297 0.77433 0.0
C712 C 0.11354 0.39214 0.78443 0.0
C713 C 0.11893 0.38367 0.81205 0.0
C714 C 0.13247 0.4073 0.82983 0.0
C715 C 0.14067 0.43899 0.81996 0.0
C716 C 0.13493 0.44677 0.79175 0.0
H717 H 0.04659 0.14584 0.27688 0.0
H718 H 0.10841 0.13064 0.34887 0.0
H719 H 0.14439 0.09415 0.3214 0.0
H720 H 0.05225 0.06282 0.25044 0.0
H721 H 0.05312 0.07554 0.21466 0.0
H722 H 0.03212 0.10034 0.2401 0.0
H723 H 0.06733 0.15054 0.22576 0.0
H724 H 0.08854 0.12586 0.20038 0.0
H725 H 0.11154 0.14744 0.2265 0.0
H726 H 0.17364 0.05887 0.28611 0.0
H727 H 0.19434 0.02823 0.24545 0.0
H728 H 0.11355 0.0661 0.19637 0.0
C729 C 0.06749 0.13463 0.28699 0.0
C730 C 0.0746 0.14126 0.31515 0.0
C731 C 0.10259 0.12637 0.32732 0.0
C732 C 0.12312 0.10542 0.3119 0.0
C733 C 0.11547 0.09955 0.28422 0.0
C734 C 0.08835 0.11373 0.27184 0.0
C735 C 0.08585 0.10362 0.24166 0.0
C736 C 0.05394 0.08443 0.23642 0.0
C737 C 0.08848 0.13366 0.22245 0.0
C738 C 0.11582 0.08158 0.23899 0.0
C739 C 0.13249 0.07946 0.26382 0.0
C740 C 0.16075 0.06033 0.26657 0.0
C741 C 0.17226 0.04288 0.24337 0.0
C742 C 0.15569 0.0447 0.21763 0.0
C743 C 0.12709 0.06446 0.21557 0.0
H744 H 0.64522 0.0481 0.26762 0.0
H745 H 0.59144 0.03528 0.19091 0.0
H746 H 0.5453 0.06756 0.21033 0.0
H747 H 0.57304 0.04925 0.3159 0.0
H748 H 0.59162 0.08074 0.33687 0.0
H749 H 0.61713 0.05122 0.31905 0.0
H750 H 0.64902 0.0987 0.29537 0.0
H751 H 0.62364 0.12828 0.31293 0.0
H752 H 0.62669 0.12897 0.27566 0.0
H753 H 0.50948 0.10936 0.23514 0.0
H754 H 0.4875 0.15549 0.26314 0.0
H755 H 0.56543 0.14074 0.32292 0.0
C756 C 0.62338 0.05119 0.25512 0.0
C757 C 0.62202 0.03906 0.22771 0.0
C758 C 0.59304 0.04407 0.21203 0.0
C759 C 0.56667 0.06242 0.22291 0.0
C760 C 0.5695 0.0753 0.24959 0.0
C761 C 0.59707 0.06957 0.26556 0.0
C762 C 0.59604 0.0891 0.29221 0.0
C763 C 0.59434 0.0662 0.3175 0.0
C764 C 0.62557 0.11265 0.29413 0.0
C765 C 0.56411 0.10762 0.28839 0.0
C766 C 0.54886 0.09912 0.26388 0.0
C767 C 0.5208 0.11561 0.25469 0.0
C768 C 0.5085 0.14181 0.27067 0.0
C769 C 0.52429 0.15129 0.29553 0.0
C770 C 0.55198 0.13332 0.30464 0.0
H771 H 0.33883 0.59538 0.82868 0.0
H772 H 0.33757 0.513 0.77164 0.0
H773 H 0.37897 0.541 0.74244 0.0
H774 H 0.34142 0.65574 0.78078 0.0
H775 H 0.36845 0.68291 0.79934 0.0
H776 H 0.34329 0.65424 0.81807 0.0
H777 H 0.39485 0.62981 0.84174 0.0
H778 H 0.42034 0.65872 0.82328 0.0
H779 H 0.42867 0.61531 0.82078 0.0
H780 H 0.41206 0.58228 0.71547 0.0
H781 H 0.43703 0.63205 0.69461 0.0
H782 H 0.41998 0.68544 0.77084 0.0
C783 C 0.34829 0.58236 0.81079 0.0
C784 C 0.33509 0.55171 0.80268 0.0
C785 C 0.34724 0.53644 0.77832 0.0
C786 C 0.3709 0.5521 0.76168 0.0
C787 C 0.38251 0.58281 0.76986 0.0
C788 C 0.37198 0.59752 0.79412 0.0
C789 C 0.38581 0.63186 0.79709 0.0
C790 C 0.3581 0.65768 0.7989 0.0
C791 C 0.40879 0.63404 0.82222 0.0
C792 C 0.40482 0.6347 0.77018 0.0
C793 C 0.40276 0.6061 0.75478 0.0
C794 C 0.41484 0.60435 0.72771 0.0
C795 C 0.42896 0.63261 0.71603 0.0
C796 C 0.43133 0.66188 0.73158 0.0
C797 C 0.41968 0.66277 0.75909 0.0
H798 H 0.95395 0.31232 0.25411 0.0
H799 H 0.00537 0.37485 0.31223 0.0
H800 H 0.98548 0.42393 0.28694 0.0
H801 H 0.96485 0.36525 0.19121 0.0
H802 H 0.92418 0.35539 0.17912 0.0
H803 H 0.94723 0.32566 0.19884 0.0
H804 H 0.89913 0.32136 0.23406 0.0
H805 H 0.87609 0.351 0.21452 0.0
H806 H 0.88412 0.35809 0.25073 0.0
H807 H 0.95339 0.46619 0.25873 0.0
H808 H 0.91098 0.49644 0.2322 0.0
H809 H 0.88193 0.40543 0.19266 0.0
C810 C 0.96224 0.33624 0.26091 0.0
C811 C 0.98169 0.33964 0.28494 0.0
C812 C 0.99063 0.37159 0.2938 0.0
C813 C 0.97959 0.3996 0.27945 0.0
C814 C 0.95973 0.3953 0.2562 0.0
C815 C 0.95134 0.3643 0.24695 0.0
C816 C 0.92678 0.36598 0.22351 0.0
C817 C 0.94167 0.35226 0.19657 0.0
C818 C 0.89465 0.34807 0.23119 0.0
C819 C 0.92168 0.4027 0.22162 0.0
C820 C 0.94123 0.4194 0.24024 0.0
C821 C 0.93845 0.45337 0.24372 0.0
C822 C 0.91437 0.47043 0.22847 0.0
C823 C 0.89318 0.45337 0.21026 0.0
C824 C 0.89788 0.4193 0.20621 0.0
H825 H 0.17054 0.91979 0.81285 0.0
H826 H 0.1795 0.00952 0.7647 0.0
H827 H 0.14306 0.98596 0.7291 0.0
H828 H 0.17283 0.86564 0.7589 0.0
H829 H 0.14308 0.83728 0.77278 0.0
H830 H 0.16689 0.86238 0.79583 0.0
H831 H 0.11353 0.88579 0.81787 0.0
H832 H 0.08944 0.86034 0.79517 0.0
H833 H 0.08272 0.90411 0.79596 0.0
H834 H 0.11231 0.94875 0.69547 0.0
H835 H 0.08517 0.90363 0.66966 0.0
H836 H 0.0927 0.84122 0.74217 0.0
C837 C 0.16394 0.93524 0.79549 0.0
C838 C 0.17817 0.96665 0.79179 0.0
C839 C 0.16944 0.98524 0.768 0.0
C840 C 0.14855 0.97213 0.74768 0.0
C841 C 0.13596 0.94064 0.75163 0.0
C842 C 0.1428 0.92278 0.77529 0.0
C843 C 0.12761 0.88891 0.77411 0.0
C844 C 0.15419 0.86197 0.77549 0.0
C845 C 0.10178 0.88454 0.79715 0.0
C846 C 0.11178 0.89016 0.74583 0.0
C847 C 0.11695 0.92008 0.73301 0.0
C848 C 0.10737 0.92556 0.70561 0.0
C849 C 0.09211 0.89982 0.69107 0.0
C850 C 0.08622 0.86925 0.7041 0.0
C851 C 0.09594 0.86467 0.73191 0.0
H852 H 0.56107 0.33955 0.73471 0.0
H853 H 0.50589 0.40905 0.68523 0.0
H854 H 0.53342 0.45517 0.70977 0.0
H855 H 0.56544 0.3866 0.79943 0.0
H856 H 0.60716 0.37371 0.8058 0.0
H857 H 0.57953 0.34712 0.78728 0.0
H858 H 0.62092 0.34415 0.74633 0.0
H859 H 0.64858 0.37061 0.76476 0.0
H860 H 0.63504 0.38166 0.73046 0.0
H861 H 0.57015 0.49333 0.73855 0.0
H862 H 0.61585 0.5193 0.76437 0.0
H863 H 0.64823 0.42322 0.79199 0.0
C864 C 0.55399 0.36451 0.72965 0.0
C865 C 0.53067 0.37096 0.70877 0.0
C866 C 0.5232 0.40381 0.70165 0.0
C867 C 0.53867 0.43001 0.7155 0.0
C868 C 0.5618 0.42271 0.73599 0.0
C869 C 0.56958 0.39063 0.74276 0.0
C870 C 0.59779 0.38878 0.763 0.0
C871 C 0.5868 0.37314 0.79051 0.0
C872 C 0.62731 0.37022 0.75037 0.0
C873 C 0.60507 0.42487 0.76649 0.0
C874 C 0.58378 0.44422 0.75123 0.0
C875 C 0.58676 0.47837 0.75069 0.0
C876 C 0.61264 0.49293 0.76553 0.0
C877 C 0.63545 0.47324 0.78019 0.0
C878 C 0.63107 0.4389 0.78104 0.0
H879 H 0.18144 0.55331 0.24605 0.0
H880 H 0.11311 0.48403 0.21023 0.0
H881 H 0.06705 0.5117 0.23496 0.0
H882 H 0.13943 0.56668 0.31344 0.0
H883 H 0.1488 0.60995 0.31313 0.0
H884 H 0.17635 0.58117 0.2967 0.0
H885 H 0.17216 0.61413 0.25109 0.0
H886 H 0.14422 0.6427 0.26707 0.0
H887 H 0.13239 0.62146 0.23589 0.0
H888 H 0.02826 0.54986 0.26124 0.0
H889 H 0.9998 0.5973 0.28275 0.0
H890 H 0.09404 0.64345 0.29793 0.0
C891 C 0.15691 0.54329 0.24421 0.0
C892 C 0.15076 0.51597 0.22701 0.0
C893 C 0.11822 0.50446 0.22391 0.0
C894 C 0.09205 0.52003 0.23786 0.0
C895 C 0.09891 0.54734 0.25439 0.0
C896 C 0.13061 0.55897 0.25741 0.0
C897 C 0.13125 0.59094 0.27343 0.0
C898 C 0.15006 0.58692 0.30081 0.0
C899 C 0.14584 0.61894 0.2558 0.0
C900 C 0.09489 0.59589 0.27857 0.0
C901 C 0.07662 0.5702 0.26801 0.0
C902 C 0.04237 0.56996 0.26974 0.0
C903 C 0.02642 0.59694 0.28208 0.0
C904 C 0.04471 0.62403 0.29201 0.0
C905 C 0.07938 0.62309 0.29056 0.0
H906 H 0.93723 0.15064 0.70402 0.0
H907 H 0.01699 0.17356 0.75973 0.0
H908 H 0.99696 0.13133 0.79262 0.0
H909 H 0.87938 0.14883 0.75287 0.0
H910 H 0.85469 0.11626 0.73866 0.0
H911 H 0.88016 0.14049 0.71617 0.0
H912 H 0.90939 0.08798 0.69828 0.0
H913 H 0.88357 0.06336 0.7205 0.0
H914 H 0.92766 0.05986 0.72268 0.0
H915 H 0.96239 0.09448 0.82296 0.0
H916 H 0.91616 0.06811 0.84802 0.0
H917 H 0.85776 0.07184 0.7731 0.0
C918 C 0.95148 0.14533 0.72242 0.0
C919 C 0.97916 0.16447 0.72906 0.0
C920 C 0.99622 0.15841 0.75405 0.0
C921 C 0.98496 0.13454 0.77282 0.0
C922 C 0.9565 0.1171 0.76632 0.0
C923 C 0.94013 0.12209 0.74154 0.0
C924 C 0.90732 0.10464 0.74137 0.0
C925 C 0.87874 0.12901 0.73703 0.0
C926 C 0.90698 0.07733 0.7194 0.0
C927 C 0.90701 0.09044 0.77034 0.0
C928 C 0.93589 0.09705 0.78423 0.0
C929 C 0.93995 0.08859 0.81208 0.0
C930 C 0.91359 0.07363 0.82618 0.0
C931 C 0.88342 0.06798 0.81251 0.0
C932 C 0.88059 0.07576 0.78408 0.0
H933 H 0.30866 0.93637 0.27141 0.0
H934 H 0.36372 0.96539 0.19826 0.0
H935 H 0.41508 0.94756 0.22093 0.0
H936 H 0.37437 0.94932 0.32508 0.0
H937 H 0.36242 0.91236 0.34301 0.0
H938 H 0.33202 0.93639 0.32491 0.0
H939 H 0.31521 0.8849 0.29676 0.0
H940 H 0.3455 0.86087 0.31461 0.0
H941 H 0.34612 0.86293 0.2773 0.0
H942 H 0.4591 0.91717 0.24819 0.0
H943 H 0.4893 0.87481 0.27494 0.0
H944 H 0.4037 0.86023 0.32698 0.0
C945 C 0.33155 0.93973 0.26027 0.0
C946 C 0.3319 0.95225 0.23289 0.0
C947 C 0.36262 0.95645 0.21938 0.0
C948 C 0.39201 0.94619 0.2321 0.0
C949 C 0.39037 0.93178 0.25836 0.0
C950 C 0.36077 0.92868 0.27228 0.0
C951 C 0.36423 0.90743 0.29788 0.0
C952 C 0.35789 0.92759 0.32428 0.0
C953 C 0.34144 0.87726 0.29652 0.0
C954 C 0.40002 0.89765 0.29555 0.0
C955 C 0.41511 0.91283 0.27323 0.0
C956 C 0.44764 0.90568 0.26599 0.0
C957 C 0.46469 0.88172 0.28135 0.0
C958 C 0.44885 0.86465 0.30315 0.0
C959 C 0.41647 0.87336 0.31068 0.0
H960 H 0.46685 0.80808 0.79574 0.0
H961 H 0.49622 0.86437 0.72354 0.0
H962 H 0.47314 0.9144 0.7447 0.0
H963 H 0.39288 0.83943 0.80144 0.0
H964 H 0.38965 0.841 0.83868 0.0
H965 H 0.41681 0.81188 0.8226 0.0
H966 H 0.46622 0.83469 0.85023 0.0
H967 H 0.43905 0.86351 0.86713 0.0
H968 H 0.47517 0.87803 0.84919 0.0
H969 H 0.43346 0.9529 0.76626 0.0
H970 H 0.38675 0.97946 0.79066 0.0
H971 H 0.38517 0.89997 0.85027 0.0
C972 C 0.47013 0.83129 0.78513 0.0
C973 C 0.48343 0.83245 0.75811 0.0
C974 C 0.48631 0.86303 0.74438 0.0
C975 C 0.47321 0.8916 0.75623 0.0
C976 C 0.45784 0.88921 0.782 0.0
C977 C 0.45703 0.85999 0.79668 0.0
C978 C 0.43499 0.86273 0.82194 0.0
C979 C 0.40695 0.83728 0.82108 0.0
C980 C 0.45507 0.85957 0.84871 0.0
C981 C 0.42207 0.89731 0.81824 0.0
C982 C 0.43568 0.9123 0.79517 0.0
C983 C 0.42363 0.94209 0.78502 0.0
C984 C 0.39702 0.95686 0.79878 0.0
C985 C 0.38327 0.94199 0.82256 0.0
C986 C 0.39633 0.9123 0.8327 0.0
H987 H 0.74656 0.39059 0.25846 0.0
H988 H 0.68371 0.45377 0.2092 0.0
H989 H 0.6353 0.43475 0.23562 0.0
H990 H 0.69184 0.32426 0.25943 0.0
H991 H 0.69974 0.31059 0.29417 0.0
H992 H 0.73145 0.33149 0.27492 0.0
H993 H 0.73745 0.37483 0.31277 0.0
H994 H 0.70571 0.35627 0.33371 0.0
H995 H 0.70233 0.39866 0.32371 0.0
H996 H 0.59337 0.40683 0.26516 0.0
H997 H 0.56032 0.36975 0.29467 0.0
H998 H 0.64921 0.32312 0.32434 0.0
C999 C 0.72267 0.40087 0.25367 0.0
C1000 C 0.71888 0.42395 0.232 0.0
C1001 C 0.68715 0.43617 0.22578 0.0
C1002 C 0.65952 0.42561 0.24075 0.0
C1003 C 0.66395 0.4026 0.26179 0.0
C1004 C 0.69466 0.3902 0.2682 0.0
C1005 C 0.69212 0.36373 0.29029 0.0
C1006 C 0.70457 0.33057 0.27906 0.0
C1007 C 0.71053 0.37395 0.31666 0.0
C1008 C 0.65524 0.36309 0.29515 0.0
C1009 C 0.63954 0.38595 0.27861 0.0
C1010 C 0.60542 0.38906 0.27837 0.0
C1011 C 0.58681 0.3679 0.29512 0.0
C1012 C 0.60229 0.344 0.31183 0.0
C1013 C 0.63694 0.34177 0.31212 0.0
H1014 H 0.05565 0.72243 0.77653 0.0
H1015 H 0.03105 0.66465 0.70404 0.0
H1016 H 0.05158 0.61483 0.72732 0.0
H1017 H 0.12882 0.68749 0.78907 0.0
H1018 H 0.12665 0.68751 0.82639 0.0
H1019 H 0.10357 0.71721 0.80694 0.0
H1020 H 0.04965 0.69817 0.83067 0.0
H1021 H 0.07266 0.6686 0.8506 0.0
H1022 H 0.03845 0.65537 0.82979 0.0
H1023 H 0.08624 0.57486 0.75339 0.0
H1024 H 0.12698 0.54632 0.7829 0.0
H1025 H 0.12613 0.62838 0.83995 0.0
C1026 C 0.05331 0.69907 0.76602 0.0
C1027 C 0.04163 0.6974 0.73852 0.0
C1028 C 0.0396 0.66649 0.72521 0.0
C1029 C 0.05127 0.63802 0.73827 0.0
C1030 C 0.06426 0.64076 0.76485 0.0
C1031 C 0.06462 0.67037 0.77887 0.0
C1032 C 0.08291 0.66742 0.80607 0.0
C1033 C 0.11221 0.69131 0.80715 0.0
C1034 C 0.05951 0.67269 0.83075 0.0
C1035 C 0.09432 0.63205 0.80443 0.0
C1036 C 0.08314 0.61701 0.78056 0.0
C1037 C 0.09418 0.58592 0.77261 0.0
C1038 C 0.11739 0.56997 0.78935 0.0
C1039 C 0.12887 0.58496 0.81387 0.0
C1040 C 0.11668 0.61601 0.82178 0.0
H1041 H 0.88116 0.14559 0.34316 0.0
H1042 H 0.96278 0.12641 0.28755 0.0
H1043 H 0.93002 0.08395 0.26364 0.0
H1044 H 0.84625 0.06125 0.34602 0.0
H1045 H 0.80447 0.076 0.34479 0.0
H1046 H 0.83594 0.1007 0.36067 0.0
H1047 H 0.8214 0.14915 0.32818 0.0
H1048 H 0.78984 0.12476 0.31231 0.0
H1049 H 0.82166 0.14286 0.29121 0.0
H1050 H 0.88756 0.04777 0.24328 0.0
H1051 H 0.83682 0.02352 0.22473 0.0
H1052 H 0.78063 0.06803 0.29151 0.0
C1053 C 0.89234 0.13158 0.32652 0.0
C1054 C 0.9247 0.13836 0.31756 0.0
C1055 C 0.93822 0.12093 0.29493 0.0
C1056 C 0.91982 0.09677 0.28133 0.0
C1057 C 0.88775 0.09086 0.29034 0.0
C1058 C 0.87392 0.10797 0.31223 0.0
C1059 C 0.83763 0.10001 0.31533 0.0
C1060 C 0.83068 0.0835 0.34337 0.0
C1061 C 0.8164 0.13104 0.31152 0.0
C1062 C 0.83313 0.07609 0.29152 0.0
C1063 C 0.86255 0.07081 0.27774 0.0
C1064 C 0.86446 0.0514 0.25406 0.0
C1065 C 0.83547 0.03773 0.24368 0.0
C1066 C 0.80484 0.04364 0.25681 0.0
C1067 C 0.8038 0.06246 0.28143 0.0
H1068 H 0.40792 0.71566 0.2419 0.0
H1069 H 0.4576 0.6529 0.30131 0.0
H1070 H 0.43421 0.6041 0.27884 0.0
H1071 H 0.33539 0.67312 0.24063 0.0
H1072 H 0.32706 0.67732 0.20414 0.0
H1073 H 0.3515 0.70763 0.22162 0.0
H1074 H 0.39939 0.69864 0.18703 0.0
H1075 H 0.37492 0.66881 0.16882 0.0
H1076 H 0.41514 0.65776 0.18136 0.0
H1077 H 0.3985 0.56336 0.2558 0.0
H1078 H 0.35673 0.5322 0.22948 0.0
H1079 H 0.33264 0.61988 0.18278 0.0
C1080 C 0.41474 0.69159 0.24954 0.0
C1081 C 0.43464 0.68803 0.27327 0.0
C1082 C 0.44245 0.65619 0.2831 0.0
C1083 C 0.42931 0.62828 0.27048 0.0
C1084 C 0.40875 0.63258 0.24781 0.0
C1085 C 0.40194 0.66333 0.23702 0.0
C1086 C 0.37723 0.66112 0.21366 0.0
C1087 C 0.34594 0.68096 0.22042 0.0
C1088 C 0.3926 0.67223 0.18608 0.0
C1089 C 0.37054 0.62451 0.21368 0.0
C1090 C 0.38896 0.60855 0.2336 0.0
C1091 C 0.38459 0.57532 0.23959 0.0
C1092 C 0.36081 0.5579 0.22474 0.0
C1093 C 0.34228 0.57369 0.20394 0.0
C1094 C 0.34739 0.60723 0.19811 0.0
H1095 H 0.78702 0.446 0.71671 0.0
H1096 H 0.84764 0.48969 0.78043 0.0
H1097 H 0.89732 0.46859 0.75718 0.0
H1098 H 0.82599 0.37412 0.71571 0.0
H1099 H 0.82358 0.36579 0.6791 0.0
H1100 H 0.79362 0.39205 0.69521 0.0
H1101 H 0.80762 0.43876 0.66072 0.0
H1102 H 0.83736 0.41233 0.64411 0.0
H1103 H 0.84963 0.45207 0.65685 0.0
H1104 H 0.9377 0.43192 0.73539 0.0
H1105 H 0.96686 0.385 0.71387 0.0
H1106 H 0.88172 0.36465 0.66326 0.0
C1107 C 0.81088 0.45246 0.72491 0.0
C1108 C 0.81362 0.46964 0.75021 0.0
C1109 C 0.84511 0.47675 0.76094 0.0
C1110 C 0.87347 0.46489 0.74784 0.0
C1111 C 0.86994 0.44606 0.72395 0.0
C1112 C 0.83948 0.44025 0.71225 0.0
C1113 C 0.84198 0.41499 0.6892 0.0
C1114 C 0.82001 0.38498 0.69519 0.0
C1115 C 0.83366 0.43048 0.66105 0.0
C1116 C 0.87815 0.40622 0.6909 0.0
C1117 C 0.89391 0.42483 0.71081 0.0
C1118 C 0.92606 0.41805 0.71902 0.0
C1119 C 0.94239 0.39136 0.70686 0.0
C1120 C 0.92666 0.37216 0.68653 0.0
C1121 C 0.8945 0.38002 0.67801 0.0
H1122 H 0.05757 0.7689 0.21824 0.0
H1123 H 0.00877 0.83479 0.27564 0.0
H1124 H 0.02751 0.8823 0.24804 0.0
H1125 H 0.12673 0.81219 0.21681 0.0
H1126 H 0.13812 0.80501 0.18124 0.0
H1127 H 0.11268 0.77589 0.19909 0.0
H1128 H 0.06762 0.78116 0.16173 0.0
H1129 H 0.09322 0.80975 0.14301 0.0
H1130 H 0.05188 0.82116 0.15266 0.0
H1131 H 0.06159 0.92213 0.22152 0.0
H1132 H 0.108 0.95044 0.19838 0.0
H1133 H 0.13647 0.85947 0.15909 0.0
C1134 C 0.04932 0.79324 0.22409 0.0
C1135 C 0.03124 0.79819 0.24878 0.0
C1136 C 0.02223 0.83048 0.25657 0.0
C1137 C 0.03278 0.85761 0.24098 0.0
C1138 C 0.05247 0.85208 0.2177 0.0
C1139 C 0.06051 0.82061 0.20916 0.0
C1140 C 0.08703 0.82125 0.18699 0.0
C1141 C 0.11794 0.8025 0.19662 0.0
C1142 C 0.07415 0.80752 0.15946 0.0
C1143 C 0.09334 0.85785 0.18498 0.0
C1144 C 0.07277 0.87529 0.20251 0.0
C1145 C 0.07699 0.90891 0.20697 0.0
C1146 C 0.1033 0.92485 0.19372 0.0
C1147 C 0.12483 0.90724 0.17612 0.0
C1148 C 0.11932 0.87361 0.17129 0.0
H1149 H 0.72769 0.10102 0.7498 0.0
H1150 H 0.67216 0.0865 0.8258 0.0
H1151 H 0.62558 0.1172 0.80592 0.0
H1152 H 0.70042 0.18197 0.73667 0.0
H1153 H 0.69734 0.17757 0.69965 0.0
H1154 H 0.72652 0.15312 0.71864 0.0
H1155 H 0.70151 0.0996 0.6991 0.0
H1156 H 0.67286 0.12369 0.67919 0.0
H1157 H 0.65796 0.09243 0.70252 0.0
H1158 H 0.58778 0.15464 0.78008 0.0
H1159 H 0.55781 0.1902 0.74718 0.0
H1160 H 0.63483 0.17601 0.68605 0.0
C1161 C 0.70551 0.10383 0.76205 0.0
C1162 C 0.7035 0.0913 0.78932 0.0
C1163 C 0.67416 0.09566 0.80479 0.0
C1164 C 0.64762 0.11322 0.79374 0.0
C1165 C 0.65058 0.12578 0.76702 0.0
C1166 C 0.6785 0.12083 0.75115 0.0
C1167 C 0.6753 0.13717 0.72304 0.0
C1168 C 0.70148 0.16404 0.7193 0.0
C1169 C 0.677 0.11169 0.69958 0.0
C1170 C 0.64122 0.15197 0.7256 0.0
C1171 C 0.62771 0.14564 0.75137 0.0
C1172 C 0.5977 0.15908 0.75959 0.0
C1173 C 0.58087 0.17921 0.74082 0.0
C1174 C 0.59364 0.18494 0.71397 0.0
C1175 C 0.62416 0.17112 0.70623 0.0
H1176 H 0.77353 0.31722 0.20873 0.0
H1177 H 0.79793 0.30965 0.12144 0.0
H1178 H 0.78813 0.24981 0.12307 0.0
H1179 H 0.8118 0.24211 0.22955 0.0
H1180 H 0.78062 0.23192 0.25474 0.0
H1181 H 0.78891 0.27428 0.24661 0.0
H1182 H 0.72776 0.28362 0.23383 0.0
H1183 H 0.71919 0.24155 0.2427 0.0
H1184 H 0.70846 0.25705 0.2089 0.0
H1185 H 0.77575 0.19079 0.13439 0.0
H1186 H 0.75842 0.13737 0.15424 0.0
H1187 H 0.74413 0.18408 0.23416 0.0
C1188 C 0.77632 0.30298 0.18992 0.0
C1189 C 0.78645 0.31784 0.16498 0.0
C1190 C 0.79043 0.29848 0.14081 0.0
C1191 C 0.78494 0.26457 0.14153 0.0
C1192 C 0.77564 0.25051 0.16662 0.0
C1193 C 0.77122 0.26911 0.19034 0.0
C1194 C 0.76121 0.24803 0.21467 0.0
C1195 C 0.78719 0.24915 0.23774 0.0
C1196 C 0.72711 0.25815 0.22566 0.0
C1197 C 0.76034 0.21478 0.20082 0.0
C1198 C 0.76889 0.2166 0.17316 0.0
C1199 C 0.7691 0.18898 0.15607 0.0
C1200 C 0.75949 0.15878 0.1675 0.0
C1201 C 0.74975 0.15674 0.19561 0.0
C1202 C 0.75097 0.185 0.21249 0.0
H1203 H 0.31804 0.79781 0.74367 0.0
H1204 H 0.35741 0.76517 0.66453 0.0
H1205 H 0.30176 0.76522 0.64509 0.0
H1206 H 0.25138 0.74679 0.74415 0.0
H1207 H 0.22291 0.7752 0.75997 0.0
H1208 H 0.26622 0.7791 0.76634 0.0
H1209 H 0.26483 0.83923 0.74908 0.0
H1210 H 0.22136 0.83557 0.74279 0.0
H1211 H 0.24849 0.84834 0.71524 0.0
H1212 H 0.24237 0.75917 0.63646 0.0
H1213 H 0.18251 0.74916 0.63898 0.0
H1214 H 0.18033 0.786 0.72305 0.0
C1215 C 0.31507 0.79125 0.7221 0.0
C1216 C 0.34233 0.78162 0.70568 0.0
C1217 C 0.33725 0.77325 0.67751 0.0
C1218 C 0.30559 0.7731 0.66624 0.0
C1219 C 0.27924 0.78168 0.68327 0.0
C1220 C 0.2836 0.79092 0.71053 0.0
C1221 C 0.25088 0.7958 0.72514 0.0
C1222 C 0.24766 0.77283 0.75037 0.0
C1223 C 0.24613 0.8319 0.73354 0.0
C1224 C 0.22747 0.7862 0.70218 0.0
C1225 C 0.24443 0.77862 0.67809 0.0
C1226 C 0.22871 0.76582 0.65492 0.0
C1227 C 0.19488 0.76009 0.65653 0.0
C1228 C 0.17716 0.7673 0.68102 0.0
C1229 C 0.19344 0.78122 0.70391 0.0
H1230 H 0.72843 0.18178 0.81402 0.0
H1231 H 0.75409 0.19654 0.8998 0.0
H1232 H 0.73284 0.25349 0.89758 0.0
H1233 H 0.76001 0.25068 0.79166 0.0
H1234 H 0.73043 0.26072 0.76523 0.0
H1235 H 0.73588 0.21882 0.77566 0.0
H1236 H 0.67403 0.21419 0.78739 0.0
H1237 H 0.66811 0.25622 0.77665 0.0
H1238 H 0.65531 0.24333 0.81076 0.0
H1239 H 0.72184 0.3106 0.88357 0.0
H1240 H 0.72519 0.36341 0.85883 0.0
H1241 H 0.7089 0.31324 0.78093 0.0
C1242 C 0.72757 0.19663 0.83263 0.0
C1243 C 0.7417 0.18493 0.85734 0.0
C1244 C 0.74236 0.20515 0.88104 0.0
C1245 C 0.73032 0.23739 0.87988 0.0
C1246 C 0.71799 0.249 0.85475 0.0
C1247 C 0.71634 0.22912 0.83149 0.0
C1248 C 0.70863 0.24902 0.80575 0.0
C1249 C 0.73534 0.24455 0.7833 0.0
C1250 C 0.67448 0.24016 0.79449 0.0
C1251 C 0.70889 0.2834 0.81776 0.0
C1252 C 0.71298 0.28276 0.8462 0.0
C1253 C 0.71774 0.31145 0.86144 0.0
C1254 C 0.71958 0.34141 0.8472 0.0
C1255 C 0.71734 0.3424 0.81796 0.0
C1256 C 0.71063 0.31314 0.8033 0.0
H1257 H 0.32531 0.71364 0.29974 0.0
H1258 H 0.31966 0.72589 0.38852 0.0
H1259 H 0.26209 0.70678 0.38825 0.0
H1260 H 0.25673 0.7497 0.28546 0.0
H1261 H 0.24247 0.72436 0.25734 0.0
H1262 H 0.28549 0.72619 0.26491 0.0
H1263 H 0.28774 0.66289 0.27086 0.0
H1264 H 0.24462 0.66095 0.26246 0.0
H1265 H 0.25946 0.64299 0.29419 0.0
H1266 H 0.20348 0.70041 0.37762 0.0
H1267 H 0.14869 0.7104 0.35748 0.0
H1268 H 0.19057 0.70486 0.27502 0.0
C1269 C 0.3123 0.71032 0.31915 0.0
C1270 C 0.3267 0.72044 0.34422 0.0
C1271 C 0.30888 0.71762 0.36926 0.0
C1272 C 0.27631 0.70664 0.36925 0.0
C1273 C 0.26192 0.69865 0.34396 0.0
C1274 C 0.27946 0.70002 0.31929 0.0
C1275 C 0.25679 0.69683 0.29457 0.0
C1276 C 0.26059 0.72602 0.27443 0.0
C1277 C 0.26249 0.66396 0.27964 0.0
C1278 C 0.22373 0.69709 0.30909 0.0
C1279 C 0.22724 0.69641 0.33758 0.0
C1280 C 0.20035 0.70003 0.35536 0.0
C1281 C 0.16931 0.7057 0.34379 0.0
C1282 C 0.16563 0.70849 0.31477 0.0
C1283 C 0.19293 0.70279 0.29729 0.0
H1284 H 0.29184 0.68318 0.84172 0.0
H1285 H 0.2118 0.67616 0.9009 0.0
H1286 H 0.22244 0.73346 0.91567 0.0
H1287 H 0.34537 0.74199 0.88043 0.0
H1288 H 0.35613 0.76312 0.84885 0.0
H1289 H 0.34761 0.71968 0.84821 0.0
H1290 H 0.30335 0.72927 0.81065 0.0
H1291 H 0.31154 0.77253 0.81117 0.0
H1292 H 0.27037 0.75788 0.81735 0.0
H1293 H 0.2358 0.79456 0.91788 0.0
H1294 H 0.24814 0.85251 0.90545 0.0
H1295 H 0.31664 0.81916 0.84287 0.0
C1296 C 0.27691 0.69336 0.8582 0.0
C1297 C 0.25085 0.67517 0.87006 0.0
C1298 C 0.23213 0.68944 0.89173 0.0
C1299 C 0.23802 0.72202 0.9002 0.0
C1300 C 0.2629 0.73981 0.88696 0.0
C1301 C 0.28214 0.72575 0.86646 0.0
C1302 C 0.30394 0.75084 0.8524 0.0
C1303 C 0.34043 0.74346 0.85781 0.0
C1304 C 0.29685 0.75274 0.82107 0.0
C1305 C 0.29301 0.78165 0.86729 0.0
C1306 C 0.26999 0.77485 0.8877 0.0
C1307 C 0.25432 0.80002 0.90241 0.0
C1308 C 0.26154 0.8328 0.8954 0.0
C1309 C 0.28368 0.83992 0.8736 0.0
C1310 C 0.30022 0.81406 0.86005 0.0
H1311 H 0.81976 0.28177 0.35815 0.0
H1312 H 0.84204 0.18005 0.37726 0.0
H1313 H 0.78423 0.17129 0.39108 0.0
H1314 H 0.75557 0.29541 0.41236 0.0
H1315 H 0.73106 0.31995 0.38914 0.0
H1316 H 0.77521 0.31966 0.3858 0.0
H1317 H 0.76956 0.30284 0.33442 0.0
H1318 H 0.7256 0.302 0.33765 0.0
H1319 H 0.74719 0.26607 0.32568 0.0
H1320 H 0.72297 0.17133 0.3953 0.0
H1321 H 0.66334 0.17978 0.38806 0.0
H1322 H 0.68074 0.28139 0.36685 0.0
C1323 C 0.81266 0.25778 0.36569 0.0
C1324 C 0.8355 0.23163 0.3667 0.0
C1325 C 0.82516 0.2006 0.37671 0.0
C1326 C 0.79234 0.19542 0.38463 0.0
C1327 C 0.77031 0.22163 0.38281 0.0
C1328 C 0.78012 0.25226 0.37369 0.0
C1329 C 0.75114 0.27526 0.3704 0.0
C1330 C 0.75339 0.30428 0.39064 0.0
C1331 C 0.74826 0.28721 0.34023 0.0
C1332 C 0.72322 0.25252 0.37812 0.0
C1333 C 0.73483 0.22179 0.38562 0.0
C1334 C 0.71362 0.19551 0.39028 0.0
C1335 C 0.67988 0.20048 0.38624 0.0
C1336 C 0.66771 0.23143 0.37775 0.0
C1337 C 0.68951 0.25799 0.37456 0.0
H1338 H 0.26566 0.65915 0.13781 0.0
H1339 H 0.16413 0.64545 0.16198 0.0
H1340 H 0.15123 0.70218 0.14708 0.0
H1341 H 0.27292 0.73442 0.16592 0.0
H1342 H 0.29991 0.75167 0.14006 0.0
H1343 H 0.29934 0.7081 0.14563 0.0
H1344 H 0.28622 0.69867 0.09371 0.0
H1345 H 0.28685 0.74243 0.08791 0.0
H1346 H 0.25121 0.71881 0.07838 0.0
H1347 H 0.15133 0.76215 0.13663 0.0
H1348 H 0.16524 0.82084 0.13597 0.0
H1349 H 0.26722 0.79626 0.11969 0.0
C1350 C 0.24049 0.66777 0.13873 0.0
C1351 C 0.21569 0.64804 0.15047 0.0
C1352 C 0.18326 0.66034 0.15273 0.0
C1353 C 0.17573 0.69236 0.14414 0.0
C1354 C 0.20098 0.71171 0.1334 0.0
C1355 C 0.23277 0.69987 0.13069 0.0
C1356 C 0.25646 0.72704 0.12306 0.0
C1357 C 0.28373 0.7305 0.14498 0.0
C1358 C 0.27104 0.72139 0.09403 0.0
C1359 C 0.23337 0.75624 0.1233 0.0
C1360 C 0.20134 0.7468 0.12848 0.0
C1361 C 0.17627 0.76978 0.13219 0.0
C1362 C 0.18443 0.80323 0.13187 0.0
C1363 C 0.21749 0.81339 0.12861 0.0
C1364 C 0.2418 0.78945 0.12277 0.0
H1365 H 0.67821 0.23445 0.63949 0.0
H1366 H 0.66466 0.33927 0.63075 0.0
H1367 H 0.724 0.34601 0.6212 0.0
H1368 H 0.74589 0.23826 0.6776 0.0
H1369 H 0.76771 0.20354 0.66332 0.0
H1370 H 0.7237 0.20512 0.66146 0.0
H1371 H 0.72548 0.19845 0.60837 0.0
H1372 H 0.76971 0.19603 0.60975 0.0
H1373 H 0.75014 0.22603 0.58779 0.0
H1374 H 0.7851 0.34283 0.62222 0.0
H1375 H 0.84287 0.32984 0.63309 0.0
H1376 H 0.81746 0.22688 0.64123 0.0
C1377 C 0.68763 0.25846 0.63403 0.0
C1378 C 0.66704 0.2863 0.63522 0.0
C1379 C 0.6802 0.3177 0.62943 0.0
C1380 C 0.7138 0.32169 0.62398 0.0
C1381 C 0.73391 0.29397 0.6243 0.0
C1382 C 0.72129 0.26283 0.62882 0.0
C1383 C 0.74864 0.23784 0.63213 0.0
C1384 C 0.74636 0.2202 0.66032 0.0
C1385 C 0.74848 0.21313 0.60807 0.0
C1386 C 0.77841 0.26006 0.63055 0.0
C1387 C 0.76949 0.29221 0.62533 0.0
C1388 C 0.79249 0.3176 0.62556 0.0
C1389 C 0.82533 0.30999 0.63174 0.0
C1390 C 0.83478 0.27734 0.63802 0.0
C1391 C 0.81104 0.25208 0.63659 0.0
H1392 H 0.76852 0.0683 0.96397 0.0
H1393 H 0.76108 0.96485 0.943 0.0
H1394 H 0.74351 0.9526 0.99081 0.0
H1395 H 0.80145 0.05559 0.03295 0.0
H1396 H 0.77936 0.08979 0.04778 0.0
H1397 H 0.79095 0.09049 0.01173 0.0
H1398 H 0.73012 0.10038 0.99835 0.0
H1399 H 0.71827 0.0992 0.03435 0.0
H1400 H 0.69912 0.07187 0.00991 0.0
H1401 H 0.72631 0.95127 0.04039 0.0
H1402 H 0.71522 0.96016 0.0901 0.0
H1403 H 0.73504 0.06416 0.08009 0.0
C1404 C 0.76365 0.04299 0.96949 0.0
C1405 C 0.766 0.01756 0.94952 0.0
C1406 C 0.75897 0.98486 0.95768 0.0
C1407 C 0.74901 0.97762 0.98484 0.0
C1408 C 0.74629 0.0033 1.00377 0.0
C1409 C 0.75376 0.03528 0.99662 0.0
C1410 C 0.74945 0.05812 0.02126 0.0
C1411 C 0.78225 0.07445 0.02888 0.0
C1412 C 0.72264 0.08392 0.01562 0.0
C1413 C 0.73855 0.03391 0.04339 0.0
C1414 C 0.73668 0.00248 0.03269 0.0
C1415 C 0.72775 0.97574 0.04902 0.0
C1416 C 0.72149 0.98104 0.07722 0.0
C1417 C 0.72427 0.01281 0.08897 0.0
C1418 C 0.73227 0.0397 0.07163 0.0
H1419 H 0.4897 0.7947 0.46016 0.0
H1420 H 0.43262 0.7081 0.43972 0.0
H1421 H 0.42663 0.69517 0.48925 0.0
H1422 H 0.53323 0.75972 0.51692 0.0
H1423 H 0.53203 0.79615 0.53811 0.0
H1424 H 0.53116 0.7997 0.50092 0.0
H1425 H 0.47707 0.83325 0.50395 0.0
H1426 H 0.47792 0.83003 0.54119 0.0
H1427 H 0.44231 0.8164 0.52233 0.0
H1428 H 0.42887 0.68966 0.54031 0.0
H1429 H 0.43596 0.69437 0.59095 0.0
H1430 H 0.4906 0.78481 0.57915 0.0
C1431 C 0.47563 0.77329 0.46621 0.0
C1432 C 0.46207 0.75213 0.44611 0.0
C1433 C 0.44384 0.72427 0.45477 0.0
C1434 C 0.44014 0.71677 0.48285 0.0
C1435 C 0.45453 0.73752 0.50213 0.0
C1436 C 0.47161 0.7654 0.49433 0.0
C1437 C 0.48477 0.78327 0.51949 0.0
C1438 C 0.52254 0.78479 0.51881 0.0
C1439 C 0.4696 0.81778 0.52188 0.0
C1440 C 0.47261 0.76089 0.54246 0.0
C1441 C 0.45532 0.73461 0.53192 0.0
C1442 C 0.44222 0.71021 0.54891 0.0
C1443 C 0.44658 0.71294 0.57758 0.0
C1444 C 0.46375 0.73993 0.58893 0.0
C1445 C 0.47703 0.7641 0.57105 0.0
H1446 H 0.79302 0.4369 0.05067 0.0
H1447 H 0.78835 0.54122 0.06798 0.0
H1448 H 0.77634 0.55213 0.01841 0.0
H1449 H 0.83029 0.44372 0.98096 0.0
H1450 H 0.80682 0.40957 0.96795 0.0
H1451 H 0.81826 0.41094 1.00397 0.0
H1452 H 0.757 0.40469 0.01788 0.0
H1453 H 0.74528 0.40391 0.98197 0.0
H1454 H 0.72728 0.4338 1.00504 0.0
H1455 H 0.75876 0.55048 0.96789 0.0
H1456 H 0.7435 0.53729 0.91956 0.0
H1457 H 0.76031 0.43387 0.93592 0.0
C1458 C 0.79019 0.4621 0.04385 0.0
C1459 C 0.79168 0.48829 0.06297 0.0
C1460 C 0.7877 0.52092 0.05349 0.0
C1461 C 0.78063 0.52726 0.02547 0.0
C1462 C 0.77806 0.50068 1.00733 0.0
C1463 C 0.78335 0.46879 0.01609 0.0
C1464 C 0.77819 0.44441 0.99286 0.0
C1465 C 0.81031 0.42609 0.98603 0.0
C1466 C 0.75028 0.42029 0.99987 0.0
C1467 C 0.76849 0.46742 0.96969 0.0
C1468 C 0.76845 0.49978 0.9784 0.0
C1469 C 0.75905 0.52526 0.96081 0.0
C1470 C 0.75009 0.51751 0.9335 0.0
C1471 C 0.75071 0.48456 0.92403 0.0
C1472 C 0.75989 0.4593 0.94251 0.0
H1473 H 0.07716 0.75214 0.44062 0.0
H1474 H 0.97317 0.75198 0.42155 0.0
H1475 H 0.96038 0.76907 0.46966 0.0
H1476 H 0.06806 0.71714 0.50825 0.0
H1477 H 0.10104 0.7406 0.52324 0.0
H1478 H 0.1018 0.73084 0.48688 0.0
H1479 H 0.10724 0.79277 0.47525 0.0
H1480 H 0.10606 0.80272 0.51163 0.0
H1481 H 0.07695 0.82128 0.48828 0.0
H1482 H 0.95903 0.78612 0.52003 0.0
H1483 H 0.96873 0.79409 0.57029 0.0
H1484 H 0.07319 0.77987 0.5571 0.0
C1485 C 0.05176 0.75587 0.44665 0.0
C1486 C 0.02609 0.7509 0.42752 0.0
C1487 C 0.99309 0.75557 0.43607 0.0
C1488 C 0.98565 0.76552 0.46323 0.0
C1489 C 0.0115 0.77038 0.48165 0.0
C1490 C 0.04386 0.76519 0.47385 0.0
C1491 C 0.06684 0.76969 0.49818 0.0
C1492 C 0.08552 0.73766 0.50451 0.0
C1493 C 0.09068 0.79832 0.49302 0.0
C1494 C 0.04237 0.77794 0.5209 0.0
C1495 C 0.01062 0.77889 0.51085 0.0
C1496 C 0.9838 0.78553 0.52812 0.0
C1497 C 0.9895 0.79029 0.55655 0.0
C1498 C 0.02166 0.78784 0.56738 0.0
C1499 C 0.0484 0.78217 0.54921 0.0
H1500 H 0.2153 0.97948 0.07106 0.0
H1501 H 0.31701 0.95538 0.08961 0.0
H1502 H 0.33171 0.96319 0.04078 0.0
H1503 H 0.21188 0.93926 1.00598 0.0
H1504 H 0.18723 0.96994 0.98884 0.0
H1505 H 0.18413 0.96469 0.02583 0.0
H1506 H 0.19787 0.02611 0.03309 0.0
H1507 H 0.20078 0.03162 0.99609 0.0
H1508 H 0.23479 0.04285 0.01794 0.0
H1509 H 0.33534 0.96777 0.99005 0.0
H1510 H 0.32864 0.97424 0.93972 0.0
H1511 H 0.22572 0.99893 0.95178 0.0
C1512 C 0.24075 0.97645 0.0649 0.0
C1513 C 0.26493 0.96668 0.08443 0.0
C1514 C 0.29789 0.96272 0.07532 0.0
C1515 C 0.3066 0.9671 0.04749 0.0
C1516 C 0.28224 0.97587 0.02874 0.0
C1517 C 0.25007 0.98103 0.03695 0.0
C1518 C 0.22888 0.98982 0.01201 0.0
C1519 C 0.20141 0.96441 1.00793 0.0
C1520 C 0.21474 0.02468 0.01497 0.0
C1521 C 0.25412 0.98807 0.98863 0.0
C1522 C 0.28466 0.97981 0.99897 0.0
C1523 C 0.31168 0.97473 0.98171 0.0
C1524 C 0.30756 0.97829 0.95308 0.0
C1525 C 0.27675 0.98728 0.94176 0.0
C1526 C 0.24968 0.9925 0.95987 0.0
H1527 H 0.49798 0.29724 0.57153 0.0
H1528 H 0.54377 0.20126 0.57688 0.0
H1529 H 0.55086 0.2006 0.52587 0.0
H1530 H 0.45598 0.28638 0.50574 0.0
H1531 H 0.46462 0.32742 0.49378 0.0
H1532 H 0.4608 0.31929 0.53036 0.0
H1533 H 0.51856 0.34399 0.53854 0.0
H1534 H 0.52253 0.35225 0.50202 0.0
H1535 H 0.55327 0.328 0.51948 0.0
H1536 H 0.55185 0.21002 0.47391 0.0
H1537 H 0.55294 0.23127 0.42593 0.0
H1538 H 0.51159 0.32359 0.45446 0.0
C1539 C 0.5091 0.27593 0.56186 0.0
C1540 C 0.51984 0.249 0.5781 0.0
C1541 C 0.53516 0.22199 0.56482 0.0
C1542 C 0.53919 0.22139 0.53585 0.0
C1543 C 0.52841 0.24832 0.5204 0.0
C1544 C 0.51416 0.27534 0.53299 0.0
C1545 C 0.50697 0.30209 0.51184 0.0
C1546 C 0.46989 0.30921 0.51035 0.0
C1547 C 0.5265 0.33343 0.51836 0.0
C1548 C 0.51928 0.28589 0.48538 0.0
C1549 C 0.531 0.25464 0.49074 0.0
C1550 C 0.54291 0.23453 0.46955 0.0
C1551 C 0.54328 0.24677 0.4423 0.0
C1552 C 0.53245 0.27912 0.43636 0.0
C1553 C 0.52022 0.29883 0.45831 0.0
H1554 H 0.25187 0.46444 0.06469 0.0
H1555 H 0.24087 0.56633 0.08962 0.0
H1556 H 0.23099 0.58207 0.04111 0.0
H1557 H 0.29495 0.48092 1.00112 0.0
H1558 H 0.27532 0.44852 0.98191 0.0
H1559 H 0.28043 0.44472 0.01883 0.0
H1560 H 0.21779 0.43561 0.02471 0.0
H1561 H 0.21251 0.43926 0.98779 0.0
H1562 H 0.18947 0.46547 0.01088 0.0
H1563 H 0.2227 0.58727 0.98987 0.0
H1564 H 0.21694 0.58139 0.93922 0.0
H1565 H 0.23433 0.47649 0.94669 0.0
C1566 C 0.2471 0.49 0.05996 0.0
C1567 C 0.24715 0.51411 0.08111 0.0
C1568 C 0.24113 0.54737 0.07391 0.0
C1569 C 0.23541 0.5566 0.04635 0.0
C1570 C 0.23587 0.53238 0.02601 0.0
C1571 C 0.24157 0.49975 0.0324 0.0
C1572 C 0.24142 0.4788 1.00636 0.0
C1573 C 0.27503 0.46227 1.0018 0.0
C1574 C 0.21364 0.45328 1.00751 0.0
C1575 C 0.23479 0.50476 0.98445 0.0
C1576 C 0.23155 0.53547 0.99628 0.0
C1577 C 0.22519 0.56333 0.98035 0.0
C1578 C 0.22195 0.55973 0.95156 0.0
C1579 C 0.22524 0.52852 0.93885 0.0
C1580 C 0.23183 0.50073 0.95567 0.0
H1581 H 0.91727 0.24066 0.44985 0.0
H1582 H 0.02083 0.24449 0.42896 0.0
H1583 H 0.03441 0.2496 0.47904 0.0
H1584 H 0.91739 0.29726 0.50573 0.0
H1585 H 0.88827 0.27433 0.52622 0.0
H1586 H 0.88741 0.27151 0.48901 0.0
H1587 H 0.89329 0.2082 0.49209 0.0
H1588 H 0.89398 0.21081 0.52933 0.0
H1589 H 0.92711 0.19067 0.51111 0.0
H1590 H 0.03518 0.2585 0.53257 0.0
H1591 H 0.02368 0.26284 0.58317 0.0
H1592 H 0.92006 0.24779 0.56727 0.0
C1593 C 0.94285 0.24259 0.4558 0.0
C1594 C 0.96802 0.24257 0.4356 0.0
C1595 C 1.00121 0.2445 0.44418 0.0
C1596 C 0.00906 0.24755 0.47254 0.0
C1597 C 0.98346 0.24788 0.49197 0.0
C1598 C 0.95105 0.2448 0.48383 0.0
C1599 C 0.92793 0.24447 0.50841 0.0
C1600 C 0.90384 0.27363 0.50726 0.0
C1601 C 0.9095 0.21158 0.51034 0.0
C1602 C 0.95218 0.24827 0.53183 0.0
C1603 C 0.98411 0.2507 0.52214 0.0
C1604 C 0.01029 0.25609 0.54029 0.0
C1605 C 0.00359 0.25864 0.56895 0.0
C1606 C 0.9711 0.25509 0.57911 0.0
C1607 C 0.94527 0.24991 0.56017 0.0
loop_
_geom_bond_atom_site_label_1
_geom_bond_atom_site_label_2
_geom_bond_distance
_geom_bond_site_symmetry_2
_ccdc_geom_bond_type
Co0 N4 2.148 . S
Co0 N10 2.128 . S
Co0 N20 2.194 . S
Co0 O25 2.351 . S
Co0 O26 2.155 . S
Co0 O27 2.096 . S
C1 N4 1.301 . S
C1 N5 1.328 . S
C1 H6 0.930 . S
C2 C3 1.333 . S
C2 N4 1.317 . S
C2 H7 0.930 . S
C3 C2 1.333 . S
C3 N5 1.350 . S
C3 H29 0.931 . S
N4 Co0 2.148 . S
N4 C1 1.301 . S
N4 C2 1.317 . S
N5 C1 1.328 . S
N5 C3 1.350 . S
H6 C1 0.930 . S
H7 C2 0.930 . S
C8 O9 1.224 . S
C8 O27 1.247 . S
O9 C8 1.224 . S
N10 Co0 2.128 . S
N10 C11 1.355 1_545 S
N10 C13 1.311 1_545 S
C11 N10 1.355 1_565 S
C11 C12 1.363 . S
C11 H23 0.929 . S
C12 C11 1.363 . S
C12 N14 1.375 . S
C12 H30 0.931 . S
C13 N10 1.311 1_565 S
C13 N14 1.347 . S
C13 H24 0.935 . S
N14 C12 1.375 . S
N14 C13 1.347 . S
C15 C18 1.365 . S
C15 N20 1.328 . S
C15 H21 0.929 . S
C16 C17 1.362 . S
C16 C19 1.378 . S
C16 H31 0.929 . S
C17 C16 1.362 . S
C17 C18 1.366 . S
C18 C15 1.365 . S
C18 C17 1.366 . S
C18 H32 0.930 . S
C19 C16 1.378 . S
C19 N20 1.315 . S
C19 H22 0.930 . S
N20 Co0 2.194 . S
N20 C15 1.328 . S
N20 C19 1.315 . S
H21 C15 0.929 . S
H22 C19 0.930 . S
H23 C11 0.929 . S
H24 C13 0.935 . S
O25 Co0 2.351 . S
O25 C28 1.244 . S
O26 Co0 2.155 . S
O26 C28 1.240 . S
O27 Co0 2.096 . S
O27 C8 1.247 . S
C28 O25 1.244 . S
C28 O26 1.240 . S
H29 C3 0.931 . S
H30 C12 0.931 . S
H31 C16 0.929 . S
H32 C18 0.930 . S
Co33 N37 2.148 . S
Co33 N43 2.128 . S
Co33 N53 2.194 . S
Co33 O58 2.351 . S
Co33 O59 2.155 . S
Co33 O60 2.096 . S
C34 N37 1.301 . S
C34 N38 1.328 . S
C34 H39 0.930 . S
C35 C36 1.333 . S
C35 N37 1.317 . S
C35 H40 0.930 . S
C36 C35 1.333 . S
C36 N38 1.350 . S
C36 H62 0.931 . S
N37 Co33 2.148 . S
N37 C34 1.301 . S
N37 C35 1.317 . S
N38 C34 1.328 . S
N38 C36 1.350 . S
H39 C34 0.930 . S
H40 C35 0.930 . S
C41 O42 1.224 . S
C41 O60 1.247 . S
O42 C41 1.224 . S
N43 Co33 2.128 . S
N43 C44 1.355 . S
N43 C46 1.311 . S
C44 N43 1.355 . S
C44 C45 1.363 . S
C44 H56 0.929 . S
C45 C44 1.363 . S
C45 N47 1.375 . S
C45 H63 0.931 . S
C46 N43 1.311 . S
C46 N47 1.347 . S
C46 H57 0.929 . S
N47 C45 1.375 . S
N47 C46 1.347 . S
C48 C51 1.365 . S
C48 N53 1.328 . S
C48 H54 0.929 . S
C49 C50 1.362 . S
C49 C52 1.378 . S
C49 H64 0.929 . S
C50 C49 1.362 . S
C50 C51 1.366 . S
C51 C48 1.365 . S
C51 C50 1.366 . S
C51 H65 0.930 . S
C52 C49 1.378 . S
C52 N53 1.315 . S
C52 H55 0.930 . S
N53 Co33 2.194 . S
N53 C48 1.328 . S
N53 C52 1.315 . S
H54 C48 0.929 . S
H55 C52 0.930 . S
H56 C44 0.929 . S
H57 C46 0.929 . S
O58 Co33 2.351 . S
O58 C61 1.244 . S
O59 Co33 2.155 . S
O59 C61 1.240 . S
O60 Co33 2.096 . S
O60 C41 1.247 . S
C61 O58 1.244 . S
C61 O59 1.240 . S
H62 C36 0.931 . S
H63 C45 0.931 . S
H64 C49 0.929 . S
H65 C51 0.930 . S
Co66 N70 2.148 . S
Co66 N76 2.128 . S
Co66 N86 2.194 . S
Co66 O91 2.351 . S
Co66 O92 2.155 . S
Co66 O93 2.096 . S
C67 N70 1.301 . S
C67 N71 1.328 . S
C67 H72 0.930 . S
C68 C69 1.333 . S
C68 N70 1.317 . S
C68 H73 0.930 . S
C69 C68 1.333 . S
C69 N71 1.350 . S
C69 H95 0.931 . S
N70 Co66 2.148 . S
N70 C67 1.301 . S
N70 C68 1.317 . S
N71 C67 1.328 . S
N71 C69 1.350 . S
H72 C67 0.930 . S
H73 C68 0.930 . S
C74 O75 1.224 . S
C74 O93 1.247 . S
O75 C74 1.224 . S
N76 Co66 2.128 . S
N76 C77 1.355 . S
N76 C79 1.311 . S
C77 N76 1.355 . S
C77 C78 1.363 . S
C77 H89 0.929 . S
C78 C77 1.363 . S
C78 N80 1.375 . S
C78 H96 0.931 . S
C79 N76 1.311 . S
C79 N80 1.347 . S
C79 H90 0.929 . S
N80 C78 1.375 . S
N80 C79 1.347 . S
C81 C84 1.365 . S
C81 N86 1.328 . S
C81 H87 0.929 . S
C82 C83 1.362 . S
C82 C85 1.378 . S
C82 H97 0.929 . S
C83 C82 1.362 . S
C83 C84 1.366 . S
C84 C81 1.365 . S
C84 C83 1.366 . S
C84 H98 0.930 . S
C85 C82 1.378 . S
C85 N86 1.315 . S
C85 H88 0.930 . S
N86 Co66 2.194 . S
N86 C81 1.328 . S
N86 C85 1.315 . S
H87 C81 0.929 . S
H88 C85 0.930 . S
H89 C77 0.929 . S
H90 C79 0.929 . S
O91 Co66 2.351 . S
O91 C94 1.244 . S
O92 Co66 2.155 . S
O92 C94 1.240 . S
O93 Co66 2.096 . S
O93 C74 1.247 . S
C94 O91 1.244 . S
C94 O92 1.240 . S
H95 C69 0.931 . S
H96 C78 0.931 . S
H97 C82 0.929 . S
H98 C84 0.930 . S
Co99 N103 2.148 . S
Co99 N109 2.128 . S
Co99 N119 2.194 . S
Co99 O124 2.351 . S
Co99 O125 2.155 . S
Co99 O126 2.096 . S
C100 N103 1.301 . S
C100 N104 1.328 . S
C100 H105 0.930 . S
C101 C102 1.333 . S
C101 N103 1.317 . S
C101 H106 0.930 . S
C102 C101 1.333 . S
C102 N104 1.350 . S
C102 H128 0.931 . S
N103 Co99 2.148 . S
N103 C100 1.301 . S
N103 C101 1.317 . S
N104 C100 1.328 . S
N104 C102 1.350 . S
H105 C100 0.930 . S
H106 C101 0.930 . S
C107 O108 1.224 . S
C107 O126 1.247 . S
O108 C107 1.224 . S
N109 Co99 2.128 . S
N109 C110 1.355 1_455 S
N109 C112 1.311 1_455 S
C110 N109 1.355 1_655 S
C110 C111 1.363 . S
C110 H122 0.929 . S
C111 C110 1.363 . S
C111 N113 1.375 . S
C111 H129 0.931 . S
C112 N109 1.311 1_655 S
C112 N113 1.347 . S
C112 H123 0.935 . S
N113 C111 1.375 . S
N113 C112 1.347 . S
C114 C117 1.365 . S
C114 N119 1.328 . S
C114 H120 0.929 . S
C115 C116 1.362 . S
C115 C118 1.378 . S
C115 H130 0.929 . S
C116 C115 1.362 . S
C116 C117 1.366 . S
C117 C114 1.365 . S
C117 C116 1.366 . S
C117 H131 0.930 . S
C118 C115 1.378 . S
C118 N119 1.315 . S
C118 H121 0.930 . S
N119 Co99 2.194 . S
N119 C114 1.328 . S
N119 C118 1.315 . S
H120 C114 0.929 . S
H121 C118 0.930 . S
H122 C110 0.929 . S
H123 C112 0.935 . S
O124 Co99 2.351 . S
O124 C127 1.244 . S
O125 Co99 2.155 . S
O125 C127 1.240 . S
O126 Co99 2.096 . S
O126 C107 1.247 . S
C127 O124 1.244 . S
C127 O125 1.240 . S
H128 C102 0.931 . S
H129 C111 0.931 . S
H130 C115 0.929 . S
H131 C117 0.930 . S
Co132 N136 2.148 . S
Co132 N142 2.128 . S
Co132 N152 2.194 . S
Co132 O157 2.351 . S
Co132 O158 2.155 . S
Co132 O159 2.096 . S
C133 N136 1.301 . S
C133 N137 1.328 . S
C133 H138 0.930 . S
C134 C135 1.333 . S
C134 N136 1.317 . S
C134 H139 0.930 . S
C135 C134 1.333 . S
C135 N137 1.350 . S
C135 H161 0.931 . S
N136 Co132 2.148 . S
N136 C133 1.301 . S
N136 C134 1.317 . S
N137 C133 1.328 . S
N137 C135 1.350 . S
H138 C133 0.930 . S
H139 C134 0.930 . S
C140 O141 1.224 . S
C140 O159 1.247 . S
O141 C140 1.224 . S
N142 Co132 2.128 . S
N142 C143 1.355 . S
N142 C145 1.311 . S
C143 N142 1.355 . S
C143 C144 1.363 . S
C143 H155 0.929 . S
C144 C143 1.363 . S
C144 N146 1.375 . S
C144 H162 0.931 . S
C145 N142 1.311 . S
C145 N146 1.347 . S
C145 H156 0.929 . S
N146 C144 1.375 . S
N146 C145 1.347 . S
C147 C150 1.365 . S
C147 N152 1.328 . S
C147 H153 0.929 . S
C148 C149 1.362 . S
C148 C151 1.378 . S
C148 H163 0.929 . S
C149 C148 1.362 . S
C149 C150 1.366 . S
C150 C147 1.365 . S
C150 C149 1.366 . S
C150 H164 0.930 . S
C151 C148 1.378 . S
C151 N152 1.315 . S
C151 H154 0.930 . S
N152 Co132 2.194 . S
N152 C147 1.328 . S
N152 C151 1.315 . S
H153 C147 0.929 . S
H154 C151 0.930 . S
H155 C143 0.929 . S
H156 C145 0.929 . S
O157 Co132 2.351 . S
O157 C160 1.244 . S
O158 Co132 2.155 . S
O158 C160 1.240 . S
O159 Co132 2.096 . S
O159 C140 1.247 . S
C160 O157 1.244 . S
C160 O158 1.240 . S
H161 C135 0.931 . S
H162 C144 0.931 . S
H163 C148 0.929 . S
H164 C150 0.930 . S
Co165 N169 2.148 . S
Co165 N175 2.128 . S
Co165 N185 2.194 . S
Co165 O190 2.351 . S
Co165 O191 2.155 . S
Co165 O192 2.096 . S
C166 N169 1.301 . S
C166 N170 1.328 . S
C166 H171 0.930 . S
C167 C168 1.333 . S
C167 N169 1.317 . S
C167 H172 0.930 . S
C168 C167 1.333 . S
C168 N170 1.350 . S
C168 H194 0.931 . S
N169 Co165 2.148 . S
N169 C166 1.301 . S
N169 C167 1.317 . S
N170 C166 1.328 . S
N170 C168 1.350 . S
H171 C166 0.930 . S
H172 C167 0.930 . S
C173 O174 1.224 . S
C173 O192 1.247 . S
O174 C173 1.224 . S
N175 Co165 2.128 . S
N175 C176 1.355 1_455 S
N175 C178 1.311 1_455 S
C176 N175 1.355 1_655 S
C176 C177 1.363 . S
C176 H188 0.929 . S
C177 C176 1.363 . S
C177 N179 1.375 . S
C177 H195 0.931 . S
C178 N175 1.311 1_655 S
C178 N179 1.347 . S
C178 H189 0.935 . S
N179 C177 1.375 . S
N179 C178 1.347 . S
C180 C183 1.365 . S
C180 N185 1.328 . S
C180 H186 0.929 . S
C181 C182 1.362 . S
C181 C184 1.378 . S
C181 H196 0.929 . S
C182 C181 1.362 . S
C182 C183 1.366 . S
C183 C180 1.365 . S
C183 C182 1.366 . S
C183 H197 0.930 . S
C184 C181 1.378 . S
C184 N185 1.315 . S
C184 H187 0.930 . S
N185 Co165 2.194 . S
N185 C180 1.328 . S
N185 C184 1.315 . S
H186 C180 0.929 . S
H187 C184 0.930 . S
H188 C176 0.929 . S
H189 C178 0.935 . S
O190 Co165 2.351 . S
O190 C193 1.244 . S
O191 Co165 2.155 . S
O191 C193 1.240 . S
O192 Co165 2.096 . S
O192 C173 1.247 . S
C193 O190 1.244 . S
C193 O191 1.240 . S
H194 C168 0.931 . S
H195 C177 0.931 . S
H196 C181 0.929 . S
H197 C183 0.930 . S
Co198 N202 2.148 . S
Co198 N208 2.128 . S
Co198 N218 2.194 . S
Co198 O223 2.351 . S
Co198 O224 2.155 . S
Co198 O225 2.096 . S
C199 N202 1.301 . S
C199 N203 1.328 . S
C199 H204 0.930 . S
C200 C201 1.333 . S
C200 N202 1.317 . S
C200 H205 0.930 . S
C201 C200 1.333 . S
C201 N203 1.350 . S
C201 H227 0.931 . S
N202 Co198 2.148 . S
N202 C199 1.301 . S
N202 C200 1.317 . S
N203 C199 1.328 . S
N203 C201 1.350 . S
H204 C199 0.930 . S
H205 C200 0.930 . S
C206 O207 1.224 . S
C206 O225 1.247 . S
O207 C206 1.224 . S
N208 Co198 2.128 . S
N208 C209 1.355 1_545 S
N208 C211 1.311 1_545 S
C209 N208 1.355 1_565 S
C209 C210 1.363 . S
C209 H221 0.929 . S
C210 C209 1.363 . S
C210 N212 1.375 . S
C210 H228 0.931 . S
C211 N208 1.311 1_565 S
C211 N212 1.347 . S
C211 H222 0.935 . S
N212 C210 1.375 . S
N212 C211 1.347 . S
C213 C216 1.365 . S
C213 N218 1.328 . S
C213 H219 0.929 . S
C214 C215 1.362 . S
C214 C217 1.378 . S
C214 H229 0.929 . S
C215 C214 1.362 . S
C215 C216 1.366 . S
C216 C213 1.365 . S
C216 C215 1.366 . S
C216 H230 0.930 . S
C217 C214 1.378 . S
C217 N218 1.315 . S
C217 H220 0.930 . S
N218 Co198 2.194 . S
N218 C213 1.328 . S
N218 C217 1.315 . S
H219 C213 0.929 . S
H220 C217 0.930 . S
H221 C209 0.929 . S
H222 C211 0.935 . S
O223 Co198 2.351 . S
O223 C226 1.244 . S
O224 Co198 2.155 . S
O224 C226 1.240 . S
O225 Co198 2.096 . S
O225 C206 1.247 . S
C226 O223 1.244 . S
C226 O224 1.240 . S
H227 C201 0.931 . S
H228 C210 0.931 . S
H229 C214 0.929 . S
H230 C216 0.930 . S
Co231 N235 2.148 . S
Co231 N241 2.128 . S
Co231 N251 2.194 . S
Co231 O256 2.351 . S
Co231 O257 2.155 . S
Co231 O258 2.096 . S
C232 N235 1.301 . S
C232 N236 1.328 . S
C232 H237 0.930 . S
C233 C234 1.333 . S
C233 N235 1.317 . S
C233 H238 0.930 . S
C234 C233 1.333 . S
C234 N236 1.350 . S
C234 H260 0.931 . S
N235 Co231 2.148 . S
N235 C232 1.301 . S
N235 C233 1.317 . S
N236 C232 1.328 . S
N236 C234 1.350 . S
H237 C232 0.930 . S
H238 C233 0.930 . S
C239 O240 1.224 . S
C239 O258 1.247 . S
O240 C239 1.224 . S
N241 Co231 2.128 . S
N241 C242 1.355 . S
N241 C244 1.311 . S
C242 N241 1.355 . S
C242 C243 1.363 . S
C242 H254 0.929 . S
C243 C242 1.363 . S
C243 N245 1.375 . S
C243 H261 0.931 . S
C244 N241 1.311 . S
C244 N245 1.347 . S
C244 H255 0.929 . S
N245 C243 1.375 . S
N245 C244 1.347 . S
C246 C249 1.365 . S
C246 N251 1.328 . S
C246 H252 0.929 . S
C247 C248 1.362 . S
C247 C250 1.378 . S
C247 H262 0.929 . S
C248 C247 1.362 . S
C248 C249 1.366 . S
C249 C246 1.365 . S
C249 C248 1.366 . S
C249 H263 0.930 . S
C250 C247 1.378 . S
C250 N251 1.315 . S
C250 H253 0.930 . S
N251 Co231 2.194 . S
N251 C246 1.328 . S
N251 C250 1.315 . S
H252 C246 0.929 . S
H253 C250 0.930 . S
H254 C242 0.929 . S
H255 C244 0.929 . S
O256 Co231 2.351 . S
O256 C259 1.244 . S
O257 Co231 2.155 . S
O257 C259 1.240 . S
O258 Co231 2.096 . S
O258 C239 1.247 . S
C259 O256 1.244 . S
C259 O257 1.240 . S
H260 C234 0.931 . S
H261 C243 0.931 . S
H262 C247 0.929 . S
H263 C249 0.930 . S
Co264 N268 2.149 . S
Co264 N274 2.128 . S
Co264 N284 2.194 . S
Co264 O289 2.351 . S
Co264 O290 2.155 . S
Co264 O291 2.096 . S
C265 N268 1.301 1_545 S
C265 N269 1.328 . S
C265 H270 0.930 . S
C266 C267 1.333 . S
C266 N268 1.316 1_545 S
C266 H271 0.930 . S
C267 C266 1.333 . S
C267 N269 1.350 . S
C267 H293 0.931 . S
N268 Co264 2.149 . S
N268 C265 1.301 1_565 S
N268 C266 1.316 1_565 S
N269 C265 1.328 . S
N269 C267 1.350 . S
H270 C265 0.930 . S
H271 C266 0.930 . S
C272 O273 1.224 . S
C272 O291 1.247 . S
O273 C272 1.224 . S
N274 Co264 2.128 . S
N274 C275 1.355 . S
N274 C277 1.311 . S
C275 N274 1.355 . S
C275 C276 1.363 . S
C275 H287 0.929 . S
C276 C275 1.363 . S
C276 N278 1.375 . S
C276 H294 0.931 . S
C277 N274 1.311 . S
C277 N278 1.347 . S
C277 H288 0.929 . S
N278 C276 1.375 . S
N278 C277 1.347 . S
C279 C282 1.365 . S
C279 N284 1.328 . S
C279 H285 0.929 . S
C280 C281 1.362 . S
C280 C283 1.378 . S
C280 H295 0.929 . S
C281 C280 1.362 . S
C281 C282 1.366 . S
C282 C279 1.365 . S
C282 C281 1.366 . S
C282 H296 0.930 . S
C283 C280 1.378 . S
C283 N284 1.315 . S
C283 H286 0.930 . S
N284 Co264 2.194 . S
N284 C279 1.328 . S
N284 C283 1.315 . S
H285 C279 0.929 . S
H286 C283 0.930 . S
H287 C275 0.929 . S
H288 C277 0.929 . S
O289 Co264 2.351 . S
O289 C292 1.244 . S
O290 Co264 2.155 . S
O290 C292 1.240 . S
O291 Co264 2.096 . S
O291 C272 1.247 . S
C292 O289 1.244 . S
C292 O290 1.240 . S
H293 C267 0.931 . S
H294 C276 0.931 . S
H295 C280 0.929 . S
H296 C282 0.930 . S
Co297 N301 2.148 . S
Co297 N307 2.128 . S
Co297 N317 2.194 . S
Co297 O322 2.351 . S
Co297 O323 2.155 . S
Co297 O324 2.096 . S
C298 N301 1.301 . S
C298 N302 1.328 . S
C298 H303 0.930 . S
C299 C300 1.333 . S
C299 N301 1.317 . S
C299 H304 0.930 . S
C300 C299 1.333 . S
C300 N302 1.350 . S
C300 H326 0.931 . S
N301 Co297 2.148 . S
N301 C298 1.301 . S
N301 C299 1.317 . S
N302 C298 1.328 . S
N302 C300 1.350 . S
H303 C298 0.930 . S
H304 C299 0.930 . S
C305 O306 1.224 . S
C305 O324 1.247 . S
O306 C305 1.224 . S
N307 Co297 2.128 . S
N307 C308 1.355 . S
N307 C310 1.311 . S
C308 N307 1.355 . S
C308 C309 1.363 . S
C308 H320 0.929 . S
C309 C308 1.363 . S
C309 N311 1.375 . S
C309 H327 0.931 . S
C310 N307 1.311 . S
C310 N311 1.347 . S
C310 H321 0.929 . S
N311 C309 1.375 . S
N311 C310 1.347 . S
C312 C315 1.365 . S
C312 N317 1.328 . S
C312 H318 0.929 . S
C313 C314 1.362 . S
C313 C316 1.378 . S
C313 H328 0.929 . S
C314 C313 1.362 . S
C314 C315 1.366 . S
C315 C312 1.365 . S
C315 C314 1.366 . S
C315 H329 0.930 . S
C316 C313 1.378 . S
C316 N317 1.315 . S
C316 H319 0.930 . S
N317 Co297 2.194 . S
N317 C312 1.328 . S
N317 C316 1.315 . S
H318 C312 0.929 . S
H319 C316 0.930 . S
H320 C308 0.929 . S
H321 C310 0.929 . S
O322 Co297 2.351 . S
O322 C325 1.244 . S
O323 Co297 2.155 . S
O323 C325 1.240 . S
O324 Co297 2.096 . S
O324 C305 1.247 . S
C325 O322 1.244 . S
C325 O323 1.240 . S
H326 C300 0.931 . S
H327 C309 0.931 . S
H328 C313 0.929 . S
H329 C315 0.930 . S
Co330 N334 2.148 . S
Co330 N340 2.128 . S
Co330 N350 2.194 . S
Co330 O355 2.351 . S
Co330 O356 2.155 . S
Co330 O357 2.096 . S
C331 N334 1.301 . S
C331 N335 1.328 . S
C331 H336 0.930 . S
C332 C333 1.333 . S
C332 N334 1.317 . S
C332 H337 0.930 . S
C333 C332 1.333 . S
C333 N335 1.350 . S
C333 H359 0.931 . S
N334 Co330 2.148 . S
N334 C331 1.301 . S
N334 C332 1.317 . S
N335 C331 1.328 . S
N335 C333 1.350 . S
H336 C331 0.930 . S
H337 C332 0.930 . S
C338 O339 1.224 . S
C338 O357 1.247 . S
O339 C338 1.224 . S
N340 Co330 2.128 . S
N340 C341 1.355 . S
N340 C343 1.311 . S
C341 N340 1.355 . S
C341 C342 1.363 . S
C341 H353 0.929 . S
C342 C341 1.363 . S
C342 N344 1.375 . S
C342 H360 0.931 . S
C343 N340 1.311 . S
C343 N344 1.347 . S
C343 H354 0.929 . S
N344 C342 1.375 . S
N344 C343 1.347 . S
C345 C348 1.365 . S
C345 N350 1.328 . S
C345 H351 0.929 . S
C346 C347 1.362 . S
C346 C349 1.378 . S
C346 H361 0.929 . S
C347 C346 1.362 . S
C347 C348 1.366 . S
C348 C345 1.365 . S
C348 C347 1.366 . S
C348 H362 0.930 . S
C349 C346 1.378 . S
C349 N350 1.315 . S
C349 H352 0.930 . S
N350 Co330 2.194 . S
N350 C345 1.328 . S
N350 C349 1.315 . S
H351 C345 0.929 . S
H352 C349 0.930 . S
H353 C341 0.929 . S
H354 C343 0.929 . S
O355 Co330 2.351 . S
O355 C358 1.244 . S
O356 Co330 2.155 . S
O356 C358 1.240 . S
O357 Co330 2.096 . S
O357 C338 1.247 . S
C358 O355 1.244 . S
C358 O356 1.240 . S
H359 C333 0.931 . S
H360 C342 0.931 . S
H361 C346 0.929 . S
H362 C348 0.930 . S
Co363 N367 2.148 . S
Co363 N373 2.128 . S
Co363 N383 2.194 . S
Co363 O388 2.351 . S
Co363 O389 2.155 . S
Co363 O390 2.096 . S
C364 N367 1.301 1_455 S
C364 N368 1.328 . S
C364 H369 0.930 . S
C365 C366 1.333 . S
C365 N367 1.317 1_455 S
C365 H370 0.930 . S
C366 C365 1.333 . S
C366 N368 1.350 . S
C366 H392 0.931 . S
N367 Co363 2.148 . S
N367 C364 1.301 1_655 S
N367 C365 1.317 1_655 S
N368 C364 1.328 . S
N368 C366 1.350 . S
H369 C364 0.930 . S
H370 C365 0.930 . S
C371 O372 1.224 . S
C371 O390 1.247 . S
O372 C371 1.224 . S
N373 Co363 2.128 . S
N373 C374 1.355 . S
N373 C376 1.311 . S
C374 N373 1.355 . S
C374 C375 1.363 . S
C374 H386 0.929 . S
C375 C374 1.363 . S
C375 N377 1.375 . S
C375 H393 0.931 . S
C376 N373 1.311 . S
C376 N377 1.347 . S
C376 H387 0.929 . S
N377 C375 1.375 . S
N377 C376 1.347 . S
C378 C381 1.365 . S
C378 N383 1.328 . S
C378 H384 0.929 . S
C379 C380 1.362 . S
C379 C382 1.378 . S
C379 H394 0.929 . S
C380 C379 1.362 . S
C380 C381 1.366 . S
C381 C378 1.365 . S
C381 C380 1.366 . S
C381 H395 0.930 . S
C382 C379 1.378 . S
C382 N383 1.315 . S
C382 H385 0.930 . S
N383 Co363 2.194 . S
N383 C378 1.328 . S
N383 C382 1.315 . S
H384 C378 0.929 . S
H385 C382 0.930 . S
H386 C374 0.929 . S
H387 C376 0.929 . S
O388 Co363 2.351 . S
O388 C391 1.244 . S
O389 Co363 2.155 . S
O389 C391 1.240 . S
O390 Co363 2.096 . S
O390 C371 1.247 . S
C391 O388 1.244 . S
C391 O389 1.240 . S
H392 C366 0.931 . S
H393 C375 0.931 . S
H394 C379 0.929 . S
H395 C381 0.930 . S
Co396 N400 2.148 . S
Co396 N406 2.128 . S
Co396 N416 2.194 . S
Co396 O421 2.351 . S
Co396 O422 2.155 . S
Co396 O423 2.096 . S
C397 N400 1.301 . S
C397 N401 1.328 . S
C397 H402 0.930 . S
C398 C399 1.333 . S
C398 N400 1.317 . S
C398 H403 0.930 . S
C399 C398 1.333 . S
C399 N401 1.350 . S
C399 H425 0.931 . S
N400 Co396 2.148 . S
N400 C397 1.301 . S
N400 C398 1.317 . S
N401 C397 1.328 . S
N401 C399 1.350 . S
H402 C397 0.930 . S
H403 C398 0.930 . S
C404 O405 1.224 . S
C404 O423 1.247 . S
O405 C404 1.224 . S
N406 Co396 2.128 . S
N406 C407 1.355 . S
N406 C409 1.311 . S
C407 N406 1.355 . S
C407 C408 1.363 . S
C407 H419 0.929 . S
C408 C407 1.363 . S
C408 N410 1.375 . S
C408 H426 0.931 . S
C409 N406 1.311 . S
C409 N410 1.347 . S
C409 H420 0.929 . S
N410 C408 1.375 . S
N410 C409 1.347 . S
C411 C414 1.365 . S
C411 N416 1.328 . S
C411 H417 0.929 . S
C412 C413 1.362 . S
C412 C415 1.378 . S
C412 H427 0.929 . S
C413 C412 1.362 . S
C413 C414 1.366 . S
C414 C411 1.365 . S
C414 C413 1.366 . S
C414 H428 0.930 . S
C415 C412 1.378 . S
C415 N416 1.315 . S
C415 H418 0.930 . S
N416 Co396 2.194 . S
N416 C411 1.328 . S
N416 C415 1.315 . S
H417 C411 0.929 . S
H418 C415 0.930 . S
H419 C407 0.929 . S
H420 C409 0.929 . S
O421 Co396 2.351 . S
O421 C424 1.244 . S
O422 Co396 2.155 . S
O422 C424 1.240 . S
O423 Co396 2.096 . S
O423 C404 1.247 . S
C424 O421 1.244 . S
C424 O422 1.240 . S
H425 C399 0.931 . S
H426 C408 0.931 . S
H427 C412 0.929 . S
H428 C414 0.930 . S
Co429 N433 2.149 . S
Co429 N439 2.128 . S
Co429 N449 2.194 . S
Co429 O454 2.351 . S
Co429 O455 2.155 . S
Co429 O456 2.096 . S
C430 N433 1.301 1_455 S
C430 N434 1.328 . S
C430 H435 0.930 . S
C431 C432 1.333 . S
C431 N433 1.316 1_455 S
C431 H436 0.930 . S
C432 C431 1.333 . S
C432 N434 1.350 . S
C432 H458 0.931 . S
N433 Co429 2.149 . S
N433 C430 1.301 1_655 S
N433 C431 1.316 1_655 S
N434 C430 1.328 . S
N434 C432 1.350 . S
H435 C430 0.930 . S
H436 C431 0.930 . S
C437 O438 1.224 . S
C437 O456 1.247 . S
O438 C437 1.224 . S
N439 Co429 2.128 . S
N439 C440 1.355 . S
N439 C442 1.311 . S
C440 N439 1.355 . S
C440 C441 1.363 . S
C440 H452 0.929 . S
C441 C440 1.363 . S
C441 N443 1.375 . S
C441 H459 0.931 . S
C442 N439 1.311 . S
C442 N443 1.347 . S
C442 H453 0.929 . S
N443 C441 1.375 . S
N443 C442 1.347 . S
C444 C447 1.365 . S
C444 N449 1.328 . S
C444 H450 0.929 . S
C445 C446 1.362 . S
C445 C448 1.378 . S
C445 H460 0.929 . S
C446 C445 1.362 . S
C446 C447 1.366 . S
C447 C444 1.365 . S
C447 C446 1.366 . S
C447 H461 0.930 . S
C448 C445 1.378 . S
C448 N449 1.315 . S
C448 H451 0.930 . S
N449 Co429 2.194 . S
N449 C444 1.328 . S
N449 C448 1.315 . S
H450 C444 0.929 . S
H451 C448 0.930 . S
H452 C440 0.929 . S
H453 C442 0.929 . S
O454 Co429 2.351 . S
O454 C457 1.244 . S
O455 Co429 2.155 . S
O455 C457 1.240 . S
O456 Co429 2.096 . S
O456 C437 1.247 . S
C457 O454 1.244 . S
C457 O455 1.240 . S
H458 C432 0.931 . S
H459 C441 0.931 . S
H460 C445 0.929 . S
H461 C447 0.930 . S
Co462 N466 2.148 . S
Co462 N472 2.128 . S
Co462 N482 2.194 . S
Co462 O487 2.351 . S
Co462 O488 2.155 . S
Co462 O489 2.096 . S
C463 N466 1.301 1_545 S
C463 N467 1.328 . S
C463 H468 0.930 . S
C464 C465 1.333 . S
C464 N466 1.317 1_545 S
C464 H469 0.930 . S
C465 C464 1.333 . S
C465 N467 1.350 . S
C465 H491 0.931 . S
N466 Co462 2.148 . S
N466 C463 1.301 1_565 S
N466 C464 1.317 1_565 S
N467 C463 1.328 . S
N467 C465 1.350 . S
H468 C463 0.930 . S
H469 C464 0.930 . S
C470 O471 1.224 . S
C470 O489 1.247 . S
O471 C470 1.224 . S
N472 Co462 2.128 . S
N472 C473 1.355 . S
N472 C475 1.311 . S
C473 N472 1.355 . S
C473 C474 1.363 . S
C473 H485 0.929 . S
C474 C473 1.363 . S
C474 N476 1.375 . S
C474 H492 0.931 . S
C475 N472 1.311 . S
C475 N476 1.347 . S
C475 H486 0.929 . S
N476 C474 1.375 . S
N476 C475 1.347 . S
C477 C480 1.365 . S
C477 N482 1.328 . S
C477 H483 0.929 . S
C478 C479 1.362 . S
C478 C481 1.378 . S
C478 H493 0.929 . S
C479 C478 1.362 . S
C479 C480 1.366 . S
C480 C477 1.365 . S
C480 C479 1.366 . S
C480 H494 0.930 . S
C481 C478 1.378 . S
C481 N482 1.315 . S
C481 H484 0.930 . S
N482 Co462 2.194 . S
N482 C477 1.328 . S
N482 C481 1.315 . S
H483 C477 0.929 . S
H484 C481 0.930 . S
H485 C473 0.929 . S
H486 C475 0.929 . S
O487 Co462 2.351 . S
O487 C490 1.244 . S
O488 Co462 2.155 . S
O488 C490 1.240 . S
O489 Co462 2.096 . S
O489 C470 1.247 . S
C490 O487 1.244 . S
C490 O488 1.240 . S
H491 C465 0.931 . S
H492 C474 0.931 . S
H493 C478 0.929 . S
H494 C480 0.930 . S
Co495 N499 2.148 . S
Co495 N505 2.128 . S
Co495 N515 2.194 . S
Co495 O520 2.351 . S
Co495 O521 2.155 . S
Co495 O522 2.096 . S
C496 N499 1.301 . S
C496 N500 1.328 . S
C496 H501 0.930 . S
C497 C498 1.333 . S
C497 N499 1.317 . S
C497 H502 0.930 . S
C498 C497 1.333 . S
C498 N500 1.350 . S
C498 H524 0.931 . S
N499 Co495 2.148 . S
N499 C496 1.301 . S
N499 C497 1.317 . S
N500 C496 1.328 . S
N500 C498 1.350 . S
H501 C496 0.930 . S
H502 C497 0.930 . S
C503 O504 1.224 . S
C503 O522 1.247 . S
O504 C503 1.224 . S
N505 Co495 2.128 . S
N505 C506 1.355 . S
N505 C508 1.311 . S
C506 N505 1.355 . S
C506 C507 1.363 . S
C506 H518 0.929 . S
C507 C506 1.363 . S
C507 N509 1.375 . S
C507 H525 0.931 . S
C508 N505 1.311 . S
C508 N509 1.347 . S
C508 H519 0.929 . S
N509 C507 1.375 . S
N509 C508 1.347 . S
C510 C513 1.365 . S
C510 N515 1.328 . S
C510 H516 0.929 . S
C511 C512 1.362 . S
C511 C514 1.378 . S
C511 H526 0.929 . S
C512 C511 1.362 . S
C512 C513 1.366 . S
C513 C510 1.365 . S
C513 C512 1.366 . S
C513 H527 0.930 . S
C514 C511 1.378 . S
C514 N515 1.315 . S
C514 H517 0.930 . S
N515 Co495 2.194 . S
N515 C510 1.328 . S
N515 C514 1.315 . S
H516 C510 0.929 . S
H517 C514 0.930 . S
H518 C506 0.929 . S
H519 C508 0.929 . S
O520 Co495 2.351 . S
O520 C523 1.244 . S
O521 Co495 2.155 . S
O521 C523 1.240 . S
O522 Co495 2.096 . S
O522 C503 1.247 . S
C523 O520 1.244 . S
C523 O521 1.240 . S
H524 C498 0.931 . S
H525 C507 0.931 . S
H526 C511 0.929 . S
H527 C513 0.930 . S
H528 C540 0.930 . S
H529 C542 0.930 . S
H530 C543 0.930 . S
H531 C547 0.959 . S
H532 C547 0.959 . S
H533 C547 0.961 . S
H534 C548 0.960 . S
H535 C548 0.961 . S
H536 C548 0.959 . S
H537 C551 0.929 . S
H538 C552 0.931 . S
H539 C554 0.930 . S
C540 H528 0.930 . S
C540 C541 1.399 . S
C540 C545 1.399 . S
C541 C540 1.399 . S
C541 C542 1.376 . S
C542 H529 0.930 . S
C542 C541 1.376 . S
C542 C543 1.388 . S
C543 H530 0.930 . S
C543 C542 1.388 . S
C543 C544 1.390 . S
C544 C543 1.390 . S
C544 C545 1.394 . S
C544 C550 1.465 . S
C545 C540 1.399 . S
C545 C544 1.394 . S
C545 C546 1.516 . S
C546 C545 1.516 . S
C546 C547 1.502 . S
C546 C548 1.561 . S
C546 C549 1.526 . S
C547 H531 0.959 . S
C547 H532 0.959 . S
C547 H533 0.961 . S
C547 C546 1.502 . S
C548 H534 0.960 . S
C548 H535 0.961 . S
C548 H536 0.959 . S
C548 C546 1.561 . S
C549 C546 1.526 . S
C549 C550 1.396 . S
C549 C554 1.390 . S
C550 C544 1.465 . S
C550 C549 1.396 . S
C550 C551 1.399 . S
C551 H537 0.929 . S
C551 C550 1.399 . S
C551 C552 1.385 . S
C552 H538 0.931 . S
C552 C551 1.385 . S
C552 C553 1.389 . S
C553 C552 1.389 . S
C553 C554 1.387 . S
C554 H539 0.930 . S
C554 C549 1.390 . S
C554 C553 1.387 . S
H555 C567 0.930 . S
H556 C569 0.930 . S
H557 C570 0.930 . S
H558 C574 0.959 . S
H559 C574 0.959 . S
H560 C574 0.961 . S
H561 C575 0.960 . S
H562 C575 0.961 . S
H563 C575 0.959 . S
H564 C578 0.929 . S
H565 C579 0.931 . S
H566 C581 0.930 . S
C567 H555 0.930 . S
C567 C568 1.399 . S
C567 C572 1.399 . S
C568 C567 1.399 . S
C568 C569 1.376 . S
C569 H556 0.930 . S
C569 C568 1.376 . S
C569 C570 1.388 . S
C570 H557 0.930 . S
C570 C569 1.388 . S
C570 C571 1.390 . S
C571 C570 1.390 . S
C571 C572 1.394 . S
C571 C577 1.465 . S
C572 C567 1.399 . S
C572 C571 1.394 . S
C572 C573 1.516 . S
C573 C572 1.516 . S
C573 C574 1.502 . S
C573 C575 1.561 . S
C573 C576 1.526 . S
C574 H558 0.959 . S
C574 H559 0.959 . S
C574 H560 0.961 . S
C574 C573 1.502 . S
C575 H561 0.960 . S
C575 H562 0.961 . S
C575 H563 0.959 . S
C575 C573 1.561 . S
C576 C573 1.526 . S
C576 C577 1.396 . S
C576 C581 1.390 . S
C577 C571 1.465 . S
C577 C576 1.396 . S
C577 C578 1.399 . S
C578 H564 0.929 . S
C578 C577 1.399 . S
C578 C579 1.385 . S
C579 H565 0.931 . S
C579 C578 1.385 . S
C579 C580 1.389 . S
C580 C579 1.389 . S
C580 C581 1.387 . S
C581 H566 0.930 . S
C581 C576 1.390 . S
C581 C580 1.387 . S
H582 C594 0.930 . S
H583 C596 0.930 . S
H584 C597 0.930 . S
H585 C601 0.959 . S
H586 C601 0.959 . S
H587 C601 0.961 . S
H588 C602 0.960 . S
H589 C602 0.961 . S
H590 C602 0.959 . S
H591 C605 0.929 . S
H592 C606 0.931 . S
H593 C608 0.930 . S
C594 H582 0.930 . S
C594 C595 1.399 . S
C594 C599 1.399 . S
C595 C594 1.399 . S
C595 C596 1.376 . S
C596 H583 0.930 . S
C596 C595 1.376 . S
C596 C597 1.388 . S
C597 H584 0.930 . S
C597 C596 1.388 . S
C597 C598 1.390 . S
C598 C597 1.390 . S
C598 C599 1.394 . S
C598 C604 1.465 . S
C599 C594 1.399 . S
C599 C598 1.394 . S
C599 C600 1.516 . S
C600 C599 1.516 . S
C600 C601 1.502 . S
C600 C602 1.561 . S
C600 C603 1.526 . S
C601 H585 0.959 . S
C601 H586 0.959 . S
C601 H587 0.961 . S
C601 C600 1.502 . S
C602 H588 0.960 . S
C602 H589 0.961 . S
C602 H590 0.959 . S
C602 C600 1.561 . S
C603 C600 1.526 . S
C603 C604 1.396 . S
C603 C608 1.390 . S
C604 C598 1.465 . S
C604 C603 1.396 . S
C604 C605 1.399 . S
C605 H591 0.929 . S
C605 C604 1.399 . S
C605 C606 1.385 . S
C606 H592 0.931 . S
C606 C605 1.385 . S
C606 C607 1.389 . S
C607 C606 1.389 . S
C607 C608 1.387 . S
C608 H593 0.930 . S
C608 C603 1.390 . S
C608 C607 1.387 . S
H609 C621 0.930 . S
H610 C623 0.930 . S
H611 C624 0.930 . S
H612 C628 0.959 . S
H613 C628 0.959 . S
H614 C628 0.961 . S
H615 C629 0.960 . S
H616 C629 0.961 . S
H617 C629 0.959 . S
H618 C632 0.929 . S
H619 C633 0.931 . S
H620 C635 0.930 . S
C621 H609 0.930 . S
C621 C622 1.399 . S
C621 C626 1.399 . S
C622 C621 1.399 . S
C622 C623 1.376 . S
C623 H610 0.930 . S
C623 C622 1.376 . S
C623 C624 1.388 . S
C624 H611 0.930 . S
C624 C623 1.388 . S
C624 C625 1.390 . S
C625 C624 1.390 . S
C625 C626 1.394 . S
C625 C631 1.465 . S
C626 C621 1.399 . S
C626 C625 1.394 . S
C626 C627 1.516 . S
C627 C626 1.516 . S
C627 C628 1.502 . S
C627 C629 1.561 . S
C627 C630 1.526 . S
C628 H612 0.959 . S
C628 H613 0.959 . S
C628 H614 0.961 . S
C628 C627 1.502 . S
C629 H615 0.960 . S
C629 H616 0.961 . S
C629 H617 0.959 . S
C629 C627 1.561 . S
C630 C627 1.526 . S
C630 C631 1.396 . S
C630 C635 1.390 . S
C631 C625 1.465 . S
C631 C630 1.396 . S
C631 C632 1.399 . S
C632 H618 0.929 . S
C632 C631 1.399 . S
C632 C633 1.385 . S
C633 H619 0.931 . S
C633 C632 1.385 . S
C633 C634 1.389 . S
C634 C633 1.389 . S
C634 C635 1.387 . S
C635 H620 0.930 . S
C635 C630 1.390 . S
C635 C634 1.387 . S
H636 C648 0.930 . S
H637 C650 0.930 . S
H638 C651 0.930 . S
H639 C655 0.959 . S
H640 C655 0.959 . S
H641 C655 0.961 . S
H642 C656 0.960 . S
H643 C656 0.961 . S
H644 C656 0.959 . S
H645 C659 0.929 . S
H646 C660 0.931 . S
H647 C662 0.930 . S
C648 H636 0.930 . S
C648 C649 1.399 . S
C648 C653 1.399 . S
C649 C648 1.399 . S
C649 C650 1.376 . S
C650 H637 0.930 . S
C650 C649 1.376 . S
C650 C651 1.388 . S
C651 H638 0.930 . S
C651 C650 1.388 . S
C651 C652 1.390 . S
C652 C651 1.390 . S
C652 C653 1.394 . S
C652 C658 1.465 . S
C653 C648 1.399 . S
C653 C652 1.394 . S
C653 C654 1.516 . S
C654 C653 1.516 . S
C654 C655 1.502 . S
C654 C656 1.561 . S
C654 C657 1.526 . S
C655 H639 0.959 . S
C655 H640 0.959 . S
C655 H641 0.961 . S
C655 C654 1.502 . S
C656 H642 0.960 . S
C656 H643 0.961 . S
C656 H644 0.959 . S
C656 C654 1.561 . S
C657 C654 1.526 . S
C657 C658 1.396 . S
C657 C662 1.390 . S
C658 C652 1.465 . S
C658 C657 1.396 . S
C658 C659 1.399 . S
C659 H645 0.929 . S
C659 C658 1.399 . S
C659 C660 1.385 . S
C660 H646 0.931 . S
C660 C659 1.385 . S
C660 C661 1.389 . S
C661 C660 1.389 . S
C661 C662 1.387 . S
C662 H647 0.930 . S
C662 C657 1.390 . S
C662 C661 1.387 . S
H663 C675 0.930 . S
H664 C677 0.930 . S
H665 C678 0.930 . S
H666 C682 0.959 . S
H667 C682 0.959 . S
H668 C682 0.961 . S
H669 C683 0.960 . S
H670 C683 0.961 . S
H671 C683 0.959 . S
H672 C686 0.929 . S
H673 C687 0.931 . S
H674 C689 0.930 . S
C675 H663 0.930 . S
C675 C676 1.399 . S
C675 C680 1.399 . S
C676 C675 1.399 . S
C676 C677 1.376 . S
C677 H664 0.930 . S
C677 C676 1.376 . S
C677 C678 1.388 . S
C678 H665 0.930 . S
C678 C677 1.388 . S
C678 C679 1.390 . S
C679 C678 1.390 . S
C679 C680 1.394 . S
C679 C685 1.465 . S
C680 C675 1.399 . S
C680 C679 1.394 . S
C680 C681 1.516 . S
C681 C680 1.516 . S
C681 C682 1.502 . S
C681 C683 1.561 . S
C681 C684 1.526 . S
C682 H666 0.959 . S
C682 H667 0.959 . S
C682 H668 0.961 . S
C682 C681 1.502 . S
C683 H669 0.960 . S
C683 H670 0.961 . S
C683 H671 0.959 . S
C683 C681 1.561 . S
C684 C681 1.526 . S
C684 C685 1.396 . S
C684 C689 1.390 . S
C685 C679 1.465 . S
C685 C684 1.396 . S
C685 C686 1.399 . S
C686 H672 0.929 . S
C686 C685 1.399 . S
C686 C687 1.385 . S
C687 H673 0.931 . S
C687 C686 1.385 . S
C687 C688 1.389 . S
C688 C687 1.389 . S
C688 C689 1.387 . S
C689 H674 0.930 . S
C689 C684 1.390 . S
C689 C688 1.387 . S
H690 C702 0.930 . S
H691 C704 0.930 . S
H692 C705 0.930 . S
H693 C709 0.959 . S
H694 C709 0.959 . S
H695 C709 0.961 . S
H696 C710 0.960 . S
H697 C710 0.961 . S
H698 C710 0.959 . S
H699 C713 0.929 . S
H700 C714 0.931 . S
H701 C716 0.930 . S
C702 H690 0.930 . S
C702 C703 1.399 . S
C702 C707 1.399 . S
C703 C702 1.399 . S
C703 C704 1.376 . S
C704 H691 0.930 . S
C704 C703 1.376 . S
C704 C705 1.388 . S
C705 H692 0.930 . S
C705 C704 1.388 . S
C705 C706 1.390 . S
C706 C705 1.390 . S
C706 C707 1.394 . S
C706 C712 1.465 . S
C707 C702 1.399 . S
C707 C706 1.394 . S
C707 C708 1.516 . S
C708 C707 1.516 . S
C708 C709 1.502 . S
C708 C710 1.561 . S
C708 C711 1.526 . S
C709 H693 0.959 . S
C709 H694 0.959 . S
C709 H695 0.961 . S
C709 C708 1.502 . S
C710 H696 0.960 . S
C710 H697 0.961 . S
C710 H698 0.959 . S
C710 C708 1.561 . S
C711 C708 1.526 . S
C711 C712 1.396 . S
C711 C716 1.390 . S
C712 C706 1.465 . S
C712 C711 1.396 . S
C712 C713 1.399 . S
C713 H699 0.929 . S
C713 C712 1.399 . S
C713 C714 1.385 . S
C714 H700 0.931 . S
C714 C713 1.385 . S
C714 C715 1.389 . S
C715 C714 1.389 . S
C715 C716 1.387 . S
C716 H701 0.930 . S
C716 C711 1.390 . S
C716 C715 1.387 . S
H717 C729 0.930 . S
H718 C731 0.930 . S
H719 C732 0.930 . S
H720 C736 0.959 . S
H721 C736 0.959 . S
H722 C736 0.961 . S
H723 C737 0.960 . S
H724 C737 0.961 . S
H725 C737 0.959 . S
H726 C740 0.929 . S
H727 C741 0.931 . S
H728 C743 0.930 . S
C729 H717 0.930 . S
C729 C730 1.399 . S
C729 C734 1.399 . S
C730 C729 1.399 . S
C730 C731 1.376 . S
C731 H718 0.930 . S
C731 C730 1.376 . S
C731 C732 1.388 . S
C732 H719 0.930 . S
C732 C731 1.388 . S
C732 C733 1.390 . S
C733 C732 1.390 . S
C733 C734 1.394 . S
C733 C739 1.465 . S
C734 C729 1.399 . S
C734 C733 1.394 . S
C734 C735 1.516 . S
C735 C734 1.516 . S
C735 C736 1.502 . S
C735 C737 1.561 . S
C735 C738 1.526 . S
C736 H720 0.959 . S
C736 H721 0.959 . S
C736 H722 0.961 . S
C736 C735 1.502 . S
C737 H723 0.960 . S
C737 H724 0.961 . S
C737 H725 0.959 . S
C737 C735 1.561 . S
C738 C735 1.526 . S
C738 C739 1.396 . S
C738 C743 1.390 . S
C739 C733 1.465 . S
C739 C738 1.396 . S
C739 C740 1.399 . S
C740 H726 0.929 . S
C740 C739 1.399 . S
C740 C741 1.385 . S
C741 H727 0.931 . S
C741 C740 1.385 . S
C741 C742 1.389 . S
C742 C741 1.389 . S
C742 C743 1.387 . S
C743 H728 0.930 . S
C743 C738 1.390 . S
C743 C742 1.387 . S
H744 C756 0.930 . S
H745 C758 0.930 . S
H746 C759 0.930 . S
H747 C763 0.959 . S
H748 C763 0.959 . S
H749 C763 0.961 . S
H750 C764 0.960 . S
H751 C764 0.961 . S
H752 C764 0.959 . S
H753 C767 0.929 . S
H754 C768 0.931 . S
H755 C770 0.930 . S
C756 H744 0.930 . S
C756 C757 1.399 . S
C756 C761 1.399 . S
C757 C756 1.399 . S
C757 C758 1.376 . S
C758 H745 0.930 . S
C758 C757 1.376 . S
C758 C759 1.388 . S
C759 H746 0.930 . S
C759 C758 1.388 . S
C759 C760 1.390 . S
C760 C759 1.390 . S
C760 C761 1.394 . S
C760 C766 1.465 . S
C761 C756 1.399 . S
C761 C760 1.394 . S
C761 C762 1.516 . S
C762 C761 1.516 . S
C762 C763 1.502 . S
C762 C764 1.561 . S
C762 C765 1.526 . S
C763 H747 0.959 . S
C763 H748 0.959 . S
C763 H749 0.961 . S
C763 C762 1.502 . S
C764 H750 0.960 . S
C764 H751 0.961 . S
C764 H752 0.959 . S
C764 C762 1.561 . S
C765 C762 1.526 . S
C765 C766 1.396 . S
C765 C770 1.390 . S
C766 C760 1.465 . S
C766 C765 1.396 . S
C766 C767 1.399 . S
C767 H753 0.929 . S
C767 C766 1.399 . S
C767 C768 1.385 . S
C768 H754 0.931 . S
C768 C767 1.385 . S
C768 C769 1.389 . S
C769 C768 1.389 . S
C769 C770 1.387 . S
C770 H755 0.930 . S
C770 C765 1.390 . S
C770 C769 1.387 . S
H771 C783 0.930 . S
H772 C785 0.930 . S
H773 C786 0.930 . S
H774 C790 0.959 . S
H775 C790 0.959 . S
H776 C790 0.961 . S
H777 C791 0.960 . S
H778 C791 0.961 . S
H779 C791 0.959 . S
H780 C794 0.929 . S
H781 C795 0.931 . S
H782 C797 0.930 . S
C783 H771 0.930 . S
C783 C784 1.399 . S
C783 C788 1.399 . S
C784 C783 1.399 . S
C784 C785 1.376 . S
C785 H772 0.930 . S
C785 C784 1.376 . S
C785 C786 1.388 . S
C786 H773 0.930 . S
C786 C785 1.388 . S
C786 C787 1.390 . S
C787 C786 1.390 . S
C787 C788 1.394 . S
C787 C793 1.465 . S
C788 C783 1.399 . S
C788 C787 1.394 . S
C788 C789 1.516 . S
C789 C788 1.516 . S
C789 C790 1.502 . S
C789 C791 1.561 . S
C789 C792 1.526 . S
C790 H774 0.959 . S
C790 H775 0.959 . S
C790 H776 0.961 . S
C790 C789 1.502 . S
C791 H777 0.960 . S
C791 H778 0.961 . S
C791 H779 0.959 . S
C791 C789 1.561 . S
C792 C789 1.526 . S
C792 C793 1.396 . S
C792 C797 1.390 . S
C793 C787 1.465 . S
C793 C792 1.396 . S
C793 C794 1.399 . S
C794 H780 0.929 . S
C794 C793 1.399 . S
C794 C795 1.385 . S
C795 H781 0.931 . S
C795 C794 1.385 . S
C795 C796 1.389 . S
C796 C795 1.389 . S
C796 C797 1.387 . S
C797 H782 0.930 . S
C797 C792 1.390 . S
C797 C796 1.387 . S
H798 C810 0.930 . S
H799 C812 0.930 . S
H800 C813 0.930 . S
H801 C817 0.959 . S
H802 C817 0.959 . S
H803 C817 0.961 . S
H804 C818 0.960 . S
H805 C818 0.961 . S
H806 C818 0.959 . S
H807 C821 0.929 . S
H808 C822 0.931 . S
H809 C824 0.930 . S
C810 H798 0.930 . S
C810 C811 1.399 . S
C810 C815 1.399 . S
C811 C810 1.399 . S
C811 C812 1.376 . S
C812 H799 0.930 . S
C812 C811 1.376 . S
C812 C813 1.388 . S
C813 H800 0.930 . S
C813 C812 1.388 . S
C813 C814 1.390 . S
C814 C813 1.390 . S
C814 C815 1.394 . S
C814 C820 1.465 . S
C815 C810 1.399 . S
C815 C814 1.394 . S
C815 C816 1.516 . S
C816 C815 1.516 . S
C816 C817 1.502 . S
C816 C818 1.561 . S
C816 C819 1.526 . S
C817 H801 0.959 . S
C817 H802 0.959 . S
C817 H803 0.961 . S
C817 C816 1.502 . S
C818 H804 0.960 . S
C818 H805 0.961 . S
C818 H806 0.959 . S
C818 C816 1.561 . S
C819 C816 1.526 . S
C819 C820 1.396 . S
C819 C824 1.390 . S
C820 C814 1.465 . S
C820 C819 1.396 . S
C820 C821 1.399 . S
C821 H807 0.929 . S
C821 C820 1.399 . S
C821 C822 1.385 . S
C822 H808 0.931 . S
C822 C821 1.385 . S
C822 C823 1.389 . S
C823 C822 1.389 . S
C823 C824 1.387 . S
C824 H809 0.930 . S
C824 C819 1.390 . S
C824 C823 1.387 . S
H825 C837 0.930 . S
H826 C839 0.930 . S
H827 C840 0.930 . S
H828 C844 0.959 . S
H829 C844 0.959 . S
H830 C844 0.961 . S
H831 C845 0.960 . S
H832 C845 0.961 . S
H833 C845 0.959 . S
H834 C848 0.929 . S
H835 C849 0.931 . S
H836 C851 0.930 . S
C837 H825 0.930 . S
C837 C838 1.399 . S
C837 C842 1.399 . S
C838 C837 1.399 . S
C838 C839 1.376 . S
C839 H826 0.930 . S
C839 C838 1.376 . S
C839 C840 1.388 . S
C840 H827 0.930 . S
C840 C839 1.388 . S
C840 C841 1.390 . S
C841 C840 1.390 . S
C841 C842 1.394 . S
C841 C847 1.465 . S
C842 C837 1.399 . S
C842 C841 1.394 . S
C842 C843 1.516 . S
C843 C842 1.516 . S
C843 C844 1.502 . S
C843 C845 1.561 . S
C843 C846 1.526 . S
C844 H828 0.959 . S
C844 H829 0.959 . S
C844 H830 0.961 . S
C844 C843 1.502 . S
C845 H831 0.960 . S
C845 H832 0.961 . S
C845 H833 0.959 . S
C845 C843 1.561 . S
C846 C843 1.526 . S
C846 C847 1.396 . S
C846 C851 1.390 . S
C847 C841 1.465 . S
C847 C846 1.396 . S
C847 C848 1.399 . S
C848 H834 0.929 . S
C848 C847 1.399 . S
C848 C849 1.385 . S
C849 H835 0.931 . S
C849 C848 1.385 . S
C849 C850 1.389 . S
C850 C849 1.389 . S
C850 C851 1.387 . S
C851 H836 0.930 . S
C851 C846 1.390 . S
C851 C850 1.387 . S
H852 C864 0.930 . S
H853 C866 0.930 . S
H854 C867 0.930 . S
H855 C871 0.959 . S
H856 C871 0.959 . S
H857 C871 0.961 . S
H858 C872 0.960 . S
H859 C872 0.961 . S
H860 C872 0.959 . S
H861 C875 0.929 . S
H862 C876 0.931 . S
H863 C878 0.930 . S
C864 H852 0.930 . S
C864 C865 1.399 . S
C864 C869 1.399 . S
C865 C864 1.399 . S
C865 C866 1.376 . S
C866 H853 0.930 . S
C866 C865 1.376 . S
C866 C867 1.388 . S
C867 H854 0.930 . S
C867 C866 1.388 . S
C867 C868 1.390 . S
C868 C867 1.390 . S
C868 C869 1.394 . S
C868 C874 1.465 . S
C869 C864 1.399 . S
C869 C868 1.394 . S
C869 C870 1.516 . S
C870 C869 1.516 . S
C870 C871 1.502 . S
C870 C872 1.561 . S
C870 C873 1.526 . S
C871 H855 0.959 . S
C871 H856 0.959 . S
C871 H857 0.961 . S
C871 C870 1.502 . S
C872 H858 0.960 . S
C872 H859 0.961 . S
C872 H860 0.959 . S
C872 C870 1.561 . S
C873 C870 1.526 . S
C873 C874 1.396 . S
C873 C878 1.390 . S
C874 C868 1.465 . S
C874 C873 1.396 . S
C874 C875 1.399 . S
C875 H861 0.929 . S
C875 C874 1.399 . S
C875 C876 1.385 . S
C876 H862 0.931 . S
C876 C875 1.385 . S
C876 C877 1.389 . S
C877 C876 1.389 . S
C877 C878 1.387 . S
C878 H863 0.930 . S
C878 C873 1.390 . S
C878 C877 1.387 . S
H879 C891 0.930 . S
H880 C893 0.930 . S
H881 C894 0.930 . S
H882 C898 0.959 . S
H883 C898 0.959 . S
H884 C898 0.961 . S
H885 C899 0.960 . S
H886 C899 0.961 . S
H887 C899 0.959 . S
H888 C902 0.929 . S
H889 C903 0.931 . S
H890 C905 0.930 . S
C891 H879 0.930 . S
C891 C892 1.399 . S
C891 C896 1.399 . S
C892 C891 1.399 . S
C892 C893 1.376 . S
C893 H880 0.930 . S
C893 C892 1.376 . S
C893 C894 1.388 . S
C894 H881 0.930 . S
C894 C893 1.388 . S
C894 C895 1.390 . S
C895 C894 1.390 . S
C895 C896 1.394 . S
C895 C901 1.465 . S
C896 C891 1.399 . S
C896 C895 1.394 . S
C896 C897 1.516 . S
C897 C896 1.516 . S
C897 C898 1.502 . S
C897 C899 1.561 . S
C897 C900 1.526 . S
C898 H882 0.959 . S
C898 H883 0.959 . S
C898 H884 0.961 . S
C898 C897 1.502 . S
C899 H885 0.960 . S
C899 H886 0.961 . S
C899 H887 0.959 . S
C899 C897 1.561 . S
C900 C897 1.526 . S
C900 C901 1.396 . S
C900 C905 1.390 . S
C901 C895 1.465 . S
C901 C900 1.396 . S
C901 C902 1.399 . S
C902 H888 0.929 . S
C902 C901 1.399 . S
C902 C903 1.385 . S
C903 H889 0.931 . S
C903 C902 1.385 . S
C903 C904 1.389 . S
C904 C903 1.389 . S
C904 C905 1.387 . S
C905 H890 0.930 . S
C905 C900 1.390 . S
C905 C904 1.387 . S
H906 C918 0.930 . S
H907 C920 0.930 . S
H908 C921 0.930 . S
H909 C925 0.959 . S
H910 C925 0.959 . S
H911 C925 0.961 . S
H912 C926 0.960 . S
H913 C926 0.961 . S
H914 C926 0.959 . S
H915 C929 0.929 . S
H916 C930 0.931 . S
H917 C932 0.930 . S
C918 H906 0.930 . S
C918 C919 1.399 . S
C918 C923 1.399 . S
C919 C918 1.399 . S
C919 C920 1.376 . S
C920 H907 0.930 . S
C920 C919 1.376 . S
C920 C921 1.388 . S
C921 H908 0.930 . S
C921 C920 1.388 . S
C921 C922 1.390 . S
C922 C921 1.390 . S
C922 C923 1.394 . S
C922 C928 1.465 . S
C923 C918 1.399 . S
C923 C922 1.394 . S
C923 C924 1.516 . S
C924 C923 1.516 . S
C924 C925 1.502 . S
C924 C926 1.561 . S
C924 C927 1.526 . S
C925 H909 0.959 . S
C925 H910 0.959 . S
C925 H911 0.961 . S
C925 C924 1.502 . S
C926 H912 0.960 . S
C926 H913 0.961 . S
C926 H914 0.959 . S
C926 C924 1.561 . S
C927 C924 1.526 . S
C927 C928 1.396 . S
C927 C932 1.390 . S
C928 C922 1.465 . S
C928 C927 1.396 . S
C928 C929 1.399 . S
C929 H915 0.929 . S
C929 C928 1.399 . S
C929 C930 1.385 . S
C930 H916 0.931 . S
C930 C929 1.385 . S
C930 C931 1.389 . S
C931 C930 1.389 . S
C931 C932 1.387 . S
C932 H917 0.930 . S
C932 C927 1.390 . S
C932 C931 1.387 . S
H933 C945 0.930 . S
H934 C947 0.930 . S
H935 C948 0.930 . S
H936 C952 0.959 . S
H937 C952 0.959 . S
H938 C952 0.961 . S
H939 C953 0.960 . S
H940 C953 0.961 . S
H941 C953 0.959 . S
H942 C956 0.929 . S
H943 C957 0.931 . S
H944 C959 0.930 . S
C945 H933 0.930 . S
C945 C946 1.399 . S
C945 C950 1.399 . S
C946 C945 1.399 . S
C946 C947 1.376 . S
C947 H934 0.930 . S
C947 C946 1.376 . S
C947 C948 1.388 . S
C948 H935 0.930 . S
C948 C947 1.388 . S
C948 C949 1.390 . S
C949 C948 1.390 . S
C949 C950 1.394 . S
C949 C955 1.465 . S
C950 C945 1.399 . S
C950 C949 1.394 . S
C950 C951 1.516 . S
C951 C950 1.516 . S
C951 C952 1.502 . S
C951 C953 1.561 . S
C951 C954 1.526 . S
C952 H936 0.959 . S
C952 H937 0.959 . S
C952 H938 0.961 . S
C952 C951 1.502 . S
C953 H939 0.960 . S
C953 H940 0.961 . S
C953 H941 0.959 . S
C953 C951 1.561 . S
C954 C951 1.526 . S
C954 C955 1.396 . S
C954 C959 1.390 . S
C955 C949 1.465 . S
C955 C954 1.396 . S
C955 C956 1.399 . S
C956 H942 0.929 . S
C956 C955 1.399 . S
C956 C957 1.385 . S
C957 H943 0.931 . S
C957 C956 1.385 . S
C957 C958 1.389 . S
C958 C957 1.389 . S
C958 C959 1.387 . S
C959 H944 0.930 . S
C959 C954 1.390 . S
C959 C958 1.387 . S
H960 C972 0.930 . S
H961 C974 0.930 . S
H962 C975 0.930 . S
H963 C979 0.959 . S
H964 C979 0.959 . S
H965 C979 0.961 . S
H966 C980 0.960 . S
H967 C980 0.961 . S
H968 C980 0.959 . S
H969 C983 0.929 . S
H970 C984 0.931 . S
H971 C986 0.930 . S
C972 H960 0.930 . S
C972 C973 1.399 . S
C972 C977 1.399 . S
C973 C972 1.399 . S
C973 C974 1.376 . S
C974 H961 0.930 . S
C974 C973 1.376 . S
C974 C975 1.388 . S
C975 H962 0.930 . S
C975 C974 1.388 . S
C975 C976 1.390 . S
C976 C975 1.390 . S
C976 C977 1.394 . S
C976 C982 1.465 . S
C977 C972 1.399 . S
C977 C976 1.394 . S
C977 C978 1.516 . S
C978 C977 1.516 . S
C978 C979 1.502 . S
C978 C980 1.561 . S
C978 C981 1.526 . S
C979 H963 0.959 . S
C979 H964 0.959 . S
C979 H965 0.961 . S
C979 C978 1.502 . S
C980 H966 0.960 . S
C980 H967 0.961 . S
C980 H968 0.959 . S
C980 C978 1.561 . S
C981 C978 1.526 . S
C981 C982 1.396 . S
C981 C986 1.390 . S
C982 C976 1.465 . S
C982 C981 1.396 . S
C982 C983 1.399 . S
C983 H969 0.929 . S
C983 C982 1.399 . S
C983 C984 1.385 . S
C984 H970 0.931 . S
C984 C983 1.385 . S
C984 C985 1.389 . S
C985 C984 1.389 . S
C985 C986 1.387 . S
C986 H971 0.930 . S
C986 C981 1.390 . S
C986 C985 1.387 . S
H987 C999 0.930 . S
H988 C1001 0.930 . S
H989 C1002 0.930 . S
H990 C1006 0.959 . S
H991 C1006 0.959 . S
H992 C1006 0.961 . S
H993 C1007 0.960 . S
H994 C1007 0.961 . S
H995 C1007 0.959 . S
H996 C1010 0.929 . S
H997 C1011 0.931 . S
H998 C1013 0.930 . S
C999 H987 0.930 . S
C999 C1000 1.399 . S
C999 C1004 1.399 . S
C1000 C999 1.399 . S
C1000 C1001 1.376 . S
C1001 H988 0.930 . S
C1001 C1000 1.376 . S
C1001 C1002 1.388 . S
C1002 H989 0.930 . S
C1002 C1001 1.388 . S
C1002 C1003 1.390 . S
C1003 C1002 1.390 . S
C1003 C1004 1.394 . S
C1003 C1009 1.465 . S
C1004 C999 1.399 . S
C1004 C1003 1.394 . S
C1004 C1005 1.516 . S
C1005 C1004 1.516 . S
C1005 C1006 1.502 . S
C1005 C1007 1.561 . S
C1005 C1008 1.526 . S
C1006 H990 0.959 . S
C1006 H991 0.959 . S
C1006 H992 0.961 . S
C1006 C1005 1.502 . S
C1007 H993 0.960 . S
C1007 H994 0.961 . S
C1007 H995 0.959 . S
C1007 C1005 1.561 . S
C1008 C1005 1.526 . S
C1008 C1009 1.396 . S
C1008 C1013 1.390 . S
C1009 C1003 1.465 . S
C1009 C1008 1.396 . S
C1009 C1010 1.399 . S
C1010 H996 0.929 . S
C1010 C1009 1.399 . S
C1010 C1011 1.385 . S
C1011 H997 0.931 . S
C1011 C1010 1.385 . S
C1011 C1012 1.389 . S
C1012 C1011 1.389 . S
C1012 C1013 1.387 . S
C1013 H998 0.930 . S
C1013 C1008 1.390 . S
C1013 C1012 1.387 . S
H1014 C1026 0.930 . S
H1015 C1028 0.930 . S
H1016 C1029 0.930 . S
H1017 C1033 0.959 . S
H1018 C1033 0.959 . S
H1019 C1033 0.961 . S
H1020 C1034 0.960 . S
H1021 C1034 0.961 . S
H1022 C1034 0.959 . S
H1023 C1037 0.929 . S
H1024 C1038 0.931 . S
H1025 C1040 0.930 . S
C1026 H1014 0.930 . S
C1026 C1027 1.399 . S
C1026 C1031 1.399 . S
C1027 C1026 1.399 . S
C1027 C1028 1.376 . S
C1028 H1015 0.930 . S
C1028 C1027 1.376 . S
C1028 C1029 1.388 . S
C1029 H1016 0.930 . S
C1029 C1028 1.388 . S
C1029 C1030 1.390 . S
C1030 C1029 1.390 . S
C1030 C1031 1.394 . S
C1030 C1036 1.465 . S
C1031 C1026 1.399 . S
C1031 C1030 1.394 . S
C1031 C1032 1.516 . S
C1032 C1031 1.516 . S
C1032 C1033 1.502 . S
C1032 C1034 1.561 . S
C1032 C1035 1.526 . S
C1033 H1017 0.959 . S
C1033 H1018 0.959 . S
C1033 H1019 0.961 . S
C1033 C1032 1.502 . S
C1034 H1020 0.960 . S
C1034 H1021 0.961 . S
C1034 H1022 0.959 . S
C1034 C1032 1.561 . S
C1035 C1032 1.526 . S
C1035 C1036 1.396 . S
C1035 C1040 1.390 . S
C1036 C1030 1.465 . S
C1036 C1035 1.396 . S
C1036 C1037 1.399 . S
C1037 H1023 0.929 . S
C1037 C1036 1.399 . S
C1037 C1038 1.385 . S
C1038 H1024 0.931 . S
C1038 C1037 1.385 . S
C1038 C1039 1.389 . S
C1039 C1038 1.389 . S
C1039 C1040 1.387 . S
C1040 H1025 0.930 . S
C1040 C1035 1.390 . S
C1040 C1039 1.387 . S
H1041 C1053 0.930 . S
H1042 C1055 0.930 . S
H1043 C1056 0.930 . S
H1044 C1060 0.959 . S
H1045 C1060 0.959 . S
H1046 C1060 0.961 . S
H1047 C1061 0.960 . S
H1048 C1061 0.961 . S
H1049 C1061 0.959 . S
H1050 C1064 0.929 . S
H1051 C1065 0.931 . S
H1052 C1067 0.930 . S
C1053 H1041 0.930 . S
C1053 C1054 1.399 . S
C1053 C1058 1.399 . S
C1054 C1053 1.399 . S
C1054 C1055 1.376 . S
C1055 H1042 0.930 . S
C1055 C1054 1.376 . S
C1055 C1056 1.388 . S
C1056 H1043 0.930 . S
C1056 C1055 1.388 . S
C1056 C1057 1.390 . S
C1057 C1056 1.390 . S
C1057 C1058 1.394 . S
C1057 C1063 1.465 . S
C1058 C1053 1.399 . S
C1058 C1057 1.394 . S
C1058 C1059 1.516 . S
C1059 C1058 1.516 . S
C1059 C1060 1.502 . S
C1059 C1061 1.561 . S
C1059 C1062 1.526 . S
C1060 H1044 0.959 . S
C1060 H1045 0.959 . S
C1060 H1046 0.961 . S
C1060 C1059 1.502 . S
C1061 H1047 0.960 . S
C1061 H1048 0.961 . S
C1061 H1049 0.959 . S
C1061 C1059 1.561 . S
C1062 C1059 1.526 . S
C1062 C1063 1.396 . S
C1062 C1067 1.390 . S
C1063 C1057 1.465 . S
C1063 C1062 1.396 . S
C1063 C1064 1.399 . S
C1064 H1050 0.929 . S
C1064 C1063 1.399 . S
C1064 C1065 1.385 . S
C1065 H1051 0.931 . S
C1065 C1064 1.385 . S
C1065 C1066 1.389 . S
C1066 C1065 1.389 . S
C1066 C1067 1.387 . S
C1067 H1052 0.930 . S
C1067 C1062 1.390 . S
C1067 C1066 1.387 . S
H1068 C1080 0.930 . S
H1069 C1082 0.930 . S
H1070 C1083 0.930 . S
H1071 C1087 0.959 . S
H1072 C1087 0.959 . S
H1073 C1087 0.961 . S
H1074 C1088 0.960 . S
H1075 C1088 0.961 . S
H1076 C1088 0.959 . S
H1077 C1091 0.929 . S
H1078 C1092 0.931 . S
H1079 C1094 0.930 . S
C1080 H1068 0.930 . S
C1080 C1081 1.399 . S
C1080 C1085 1.399 . S
C1081 C1080 1.399 . S
C1081 C1082 1.376 . S
C1082 H1069 0.930 . S
C1082 C1081 1.376 . S
C1082 C1083 1.388 . S
C1083 H1070 0.930 . S
C1083 C1082 1.388 . S
C1083 C1084 1.390 . S
C1084 C1083 1.390 . S
C1084 C1085 1.394 . S
C1084 C1090 1.465 . S
C1085 C1080 1.399 . S
C1085 C1084 1.394 . S
C1085 C1086 1.516 . S
C1086 C1085 1.516 . S
C1086 C1087 1.502 . S
C1086 C1088 1.561 . S
C1086 C1089 1.526 . S
C1087 H1071 0.959 . S
C1087 H1072 0.959 . S
C1087 H1073 0.961 . S
C1087 C1086 1.502 . S
C1088 H1074 0.960 . S
C1088 H1075 0.961 . S
C1088 H1076 0.959 . S
C1088 C1086 1.561 . S
C1089 C1086 1.526 . S
C1089 C1090 1.396 . S
C1089 C1094 1.390 . S
C1090 C1084 1.465 . S
C1090 C1089 1.396 . S
C1090 C1091 1.399 . S
C1091 H1077 0.929 . S
C1091 C1090 1.399 . S
C1091 C1092 1.385 . S
C1092 H1078 0.931 . S
C1092 C1091 1.385 . S
C1092 C1093 1.389 . S
C1093 C1092 1.389 . S
C1093 C1094 1.387 . S
C1094 H1079 0.930 . S
C1094 C1089 1.390 . S
C1094 C1093 1.387 . S
H1095 C1107 0.930 . S
H1096 C1109 0.930 . S
H1097 C1110 0.930 . S
H1098 C1114 0.959 . S
H1099 C1114 0.959 . S
H1100 C1114 0.961 . S
H1101 C1115 0.960 . S
H1102 C1115 0.961 . S
H1103 C1115 0.959 . S
H1104 C1118 0.929 . S
H1105 C1119 0.931 . S
H1106 C1121 0.930 . S
C1107 H1095 0.930 . S
C1107 C1108 1.399 . S
C1107 C1112 1.399 . S
C1108 C1107 1.399 . S
C1108 C1109 1.376 . S
C1109 H1096 0.930 . S
C1109 C1108 1.376 . S
C1109 C1110 1.388 . S
C1110 H1097 0.930 . S
C1110 C1109 1.388 . S
C1110 C1111 1.390 . S
C1111 C1110 1.390 . S
C1111 C1112 1.394 . S
C1111 C1117 1.465 . S
C1112 C1107 1.399 . S
C1112 C1111 1.394 . S
C1112 C1113 1.516 . S
C1113 C1112 1.516 . S
C1113 C1114 1.502 . S
C1113 C1115 1.561 . S
C1113 C1116 1.526 . S
C1114 H1098 0.959 . S
C1114 H1099 0.959 . S
C1114 H1100 0.961 . S
C1114 C1113 1.502 . S
C1115 H1101 0.960 . S
C1115 H1102 0.961 . S
C1115 H1103 0.959 . S
C1115 C1113 1.561 . S
C1116 C1113 1.526 . S
C1116 C1117 1.396 . S
C1116 C1121 1.390 . S
C1117 C1111 1.465 . S
C1117 C1116 1.396 . S
C1117 C1118 1.399 . S
C1118 H1104 0.929 . S
C1118 C1117 1.399 . S
C1118 C1119 1.385 . S
C1119 H1105 0.931 . S
C1119 C1118 1.385 . S
C1119 C1120 1.389 . S
C1120 C1119 1.389 . S
C1120 C1121 1.387 . S
C1121 H1106 0.930 . S
C1121 C1116 1.390 . S
C1121 C1120 1.387 . S
H1122 C1134 0.930 . S
H1123 C1136 0.930 . S
H1124 C1137 0.930 . S
H1125 C1141 0.959 . S
H1126 C1141 0.959 . S
H1127 C1141 0.961 . S
H1128 C1142 0.960 . S
H1129 C1142 0.961 . S
H1130 C1142 0.959 . S
H1131 C1145 0.929 . S
H1132 C1146 0.931 . S
H1133 C1148 0.930 . S
C1134 H1122 0.930 . S
C1134 C1135 1.399 . S
C1134 C1139 1.399 . S
C1135 C1134 1.399 . S
C1135 C1136 1.376 . S
C1136 H1123 0.930 . S
C1136 C1135 1.376 . S
C1136 C1137 1.388 . S
C1137 H1124 0.930 . S
C1137 C1136 1.388 . S
C1137 C1138 1.390 . S
C1138 C1137 1.390 . S
C1138 C1139 1.394 . S
C1138 C1144 1.465 . S
C1139 C1134 1.399 . S
C1139 C1138 1.394 . S
C1139 C1140 1.516 . S
C1140 C1139 1.516 . S
C1140 C1141 1.502 . S
C1140 C1142 1.561 . S
C1140 C1143 1.526 . S
C1141 H1125 0.959 . S
C1141 H1126 0.959 . S
C1141 H1127 0.961 . S
C1141 C1140 1.502 . S
C1142 H1128 0.960 . S
C1142 H1129 0.961 . S
C1142 H1130 0.959 . S
C1142 C1140 1.561 . S
C1143 C1140 1.526 . S
C1143 C1144 1.396 . S
C1143 C1148 1.390 . S
C1144 C1138 1.465 . S
C1144 C1143 1.396 . S
C1144 C1145 1.399 . S
C1145 H1131 0.929 . S
C1145 C1144 1.399 . S
C1145 C1146 1.385 . S
C1146 H1132 0.931 . S
C1146 C1145 1.385 . S
C1146 C1147 1.389 . S
C1147 C1146 1.389 . S
C1147 C1148 1.387 . S
C1148 H1133 0.930 . S
C1148 C1143 1.390 . S
C1148 C1147 1.387 . S
H1149 C1161 0.930 . S
H1150 C1163 0.930 . S
H1151 C1164 0.930 . S
H1152 C1168 0.959 . S
H1153 C1168 0.959 . S
H1154 C1168 0.961 . S
H1155 C1169 0.960 . S
H1156 C1169 0.961 . S
H1157 C1169 0.959 . S
H1158 C1172 0.929 . S
H1159 C1173 0.931 . S
H1160 C1175 0.930 . S
C1161 H1149 0.930 . S
C1161 C1162 1.399 . S
C1161 C1166 1.399 . S
C1162 C1161 1.399 . S
C1162 C1163 1.376 . S
C1163 H1150 0.930 . S
C1163 C1162 1.376 . S
C1163 C1164 1.388 . S
C1164 H1151 0.930 . S
C1164 C1163 1.388 . S
C1164 C1165 1.390 . S
C1165 C1164 1.390 . S
C1165 C1166 1.394 . S
C1165 C1171 1.465 . S
C1166 C1161 1.399 . S
C1166 C1165 1.394 . S
C1166 C1167 1.516 . S
C1167 C1166 1.516 . S
C1167 C1168 1.502 . S
C1167 C1169 1.561 . S
C1167 C1170 1.526 . S
C1168 H1152 0.959 . S
C1168 H1153 0.959 . S
C1168 H1154 0.961 . S
C1168 C1167 1.502 . S
C1169 H1155 0.960 . S
C1169 H1156 0.961 . S
C1169 H1157 0.959 . S
C1169 C1167 1.561 . S
C1170 C1167 1.526 . S
C1170 C1171 1.396 . S
C1170 C1175 1.390 . S
C1171 C1165 1.465 . S
C1171 C1170 1.396 . S
C1171 C1172 1.399 . S
C1172 H1158 0.929 . S
C1172 C1171 1.399 . S
C1172 C1173 1.385 . S
C1173 H1159 0.931 . S
C1173 C1172 1.385 . S
C1173 C1174 1.389 . S
C1174 C1173 1.389 . S
C1174 C1175 1.387 . S
C1175 H1160 0.930 . S
C1175 C1170 1.390 . S
C1175 C1174 1.387 . S
H1176 C1188 0.930 . S
H1177 C1190 0.930 . S
H1178 C1191 0.930 . S
H1179 C1195 0.959 . S
H1180 C1195 0.959 . S
H1181 C1195 0.961 . S
H1182 C1196 0.960 . S
H1183 C1196 0.961 . S
H1184 C1196 0.959 . S
H1185 C1199 0.929 . S
H1186 C1200 0.931 . S
H1187 C1202 0.930 . S
C1188 H1176 0.930 . S
C1188 C1189 1.399 . S
C1188 C1193 1.399 . S
C1189 C1188 1.399 . S
C1189 C1190 1.376 . S
C1190 H1177 0.930 . S
C1190 C1189 1.376 . S
C1190 C1191 1.388 . S
C1191 H1178 0.930 . S
C1191 C1190 1.388 . S
C1191 C1192 1.390 . S
C1192 C1191 1.390 . S
C1192 C1193 1.394 . S
C1192 C1198 1.465 . S
C1193 C1188 1.399 . S
C1193 C1192 1.394 . S
C1193 C1194 1.516 . S
C1194 C1193 1.516 . S
C1194 C1195 1.502 . S
C1194 C1196 1.561 . S
C1194 C1197 1.526 . S
C1195 H1179 0.959 . S
C1195 H1180 0.959 . S
C1195 H1181 0.961 . S
C1195 C1194 1.502 . S
C1196 H1182 0.960 . S
C1196 H1183 0.961 . S
C1196 H1184 0.959 . S
C1196 C1194 1.561 . S
C1197 C1194 1.526 . S
C1197 C1198 1.396 . S
C1197 C1202 1.390 . S
C1198 C1192 1.465 . S
C1198 C1197 1.396 . S
C1198 C1199 1.399 . S
C1199 H1185 0.929 . S
C1199 C1198 1.399 . S
C1199 C1200 1.385 . S
C1200 H1186 0.931 . S
C1200 C1199 1.385 . S
C1200 C1201 1.389 . S
C1201 C1200 1.389 . S
C1201 C1202 1.387 . S
C1202 H1187 0.930 . S
C1202 C1197 1.390 . S
C1202 C1201 1.387 . S
H1203 C1215 0.930 . S
H1204 C1217 0.930 . S
H1205 C1218 0.930 . S
H1206 C1222 0.959 . S
H1207 C1222 0.959 . S
H1208 C1222 0.961 . S
H1209 C1223 0.960 . S
H1210 C1223 0.961 . S
H1211 C1223 0.959 . S
H1212 C1226 0.929 . S
H1213 C1227 0.931 . S
H1214 C1229 0.930 . S
C1215 H1203 0.930 . S
C1215 C1216 1.399 . S
C1215 C1220 1.399 . S
C1216 C1215 1.399 . S
C1216 C1217 1.376 . S
C1217 H1204 0.930 . S
C1217 C1216 1.376 . S
C1217 C1218 1.388 . S
C1218 H1205 0.930 . S
C1218 C1217 1.388 . S
C1218 C1219 1.390 . S
C1219 C1218 1.390 . S
C1219 C1220 1.394 . S
C1219 C1225 1.465 . S
C1220 C1215 1.399 . S
C1220 C1219 1.394 . S
C1220 C1221 1.516 . S
C1221 C1220 1.516 . S
C1221 C1222 1.502 . S
C1221 C1223 1.561 . S
C1221 C1224 1.526 . S
C1222 H1206 0.959 . S
C1222 H1207 0.959 . S
C1222 H1208 0.961 . S
C1222 C1221 1.502 . S
C1223 H1209 0.960 . S
C1223 H1210 0.961 . S
C1223 H1211 0.959 . S
C1223 C1221 1.561 . S
C1224 C1221 1.526 . S
C1224 C1225 1.396 . S
C1224 C1229 1.390 . S
C1225 C1219 1.465 . S
C1225 C1224 1.396 . S
C1225 C1226 1.399 . S
C1226 H1212 0.929 . S
C1226 C1225 1.399 . S
C1226 C1227 1.385 . S
C1227 H1213 0.931 . S
C1227 C1226 1.385 . S
C1227 C1228 1.389 . S
C1228 C1227 1.389 . S
C1228 C1229 1.387 . S
C1229 H1214 0.930 . S
C1229 C1224 1.390 . S
C1229 C1228 1.387 . S
H1230 C1242 0.930 . S
H1231 C1244 0.930 . S
H1232 C1245 0.930 . S
H1233 C1249 0.959 . S
H1234 C1249 0.959 . S
H1235 C1249 0.961 . S
H1236 C1250 0.960 . S
H1237 C1250 0.961 . S
H1238 C1250 0.959 . S
H1239 C1253 0.929 . S
H1240 C1254 0.931 . S
H1241 C1256 0.930 . S
C1242 H1230 0.930 . S
C1242 C1243 1.399 . S
C1242 C1247 1.399 . S
C1243 C1242 1.399 . S
C1243 C1244 1.376 . S
C1244 H1231 0.930 . S
C1244 C1243 1.376 . S
C1244 C1245 1.388 . S
C1245 H1232 0.930 . S
C1245 C1244 1.388 . S
C1245 C1246 1.390 . S
C1246 C1245 1.390 . S
C1246 C1247 1.394 . S
C1246 C1252 1.465 . S
C1247 C1242 1.399 . S
C1247 C1246 1.394 . S
C1247 C1248 1.516 . S
C1248 C1247 1.516 . S
C1248 C1249 1.502 . S
C1248 C1250 1.561 . S
C1248 C1251 1.526 . S
C1249 H1233 0.959 . S
C1249 H1234 0.959 . S
C1249 H1235 0.961 . S
C1249 C1248 1.502 . S
C1250 H1236 0.960 . S
C1250 H1237 0.961 . S
C1250 H1238 0.959 . S
C1250 C1248 1.561 . S
C1251 C1248 1.526 . S
C1251 C1252 1.396 . S
C1251 C1256 1.390 . S
C1252 C1246 1.465 . S
C1252 C1251 1.396 . S
C1252 C1253 1.399 . S
C1253 H1239 0.929 . S
C1253 C1252 1.399 . S
C1253 C1254 1.385 . S
C1254 H1240 0.931 . S
C1254 C1253 1.385 . S
C1254 C1255 1.389 . S
C1255 C1254 1.389 . S
C1255 C1256 1.387 . S
C1256 H1241 0.930 . S
C1256 C1251 1.390 . S
C1256 C1255 1.387 . S
H1257 C1269 0.930 . S
H1258 C1271 0.930 . S
H1259 C1272 0.930 . S
H1260 C1276 0.959 . S
H1261 C1276 0.959 . S
H1262 C1276 0.961 . S
H1263 C1277 0.960 . S
H1264 C1277 0.961 . S
H1265 C1277 0.959 . S
H1266 C1280 0.929 . S
H1267 C1281 0.931 . S
H1268 C1283 0.930 . S
C1269 H1257 0.930 . S
C1269 C1270 1.399 . S
C1269 C1274 1.399 . S
C1270 C1269 1.399 . S
C1270 C1271 1.376 . S
C1271 H1258 0.930 . S
C1271 C1270 1.376 . S
C1271 C1272 1.388 . S
C1272 H1259 0.930 . S
C1272 C1271 1.388 . S
C1272 C1273 1.390 . S
C1273 C1272 1.390 . S
C1273 C1274 1.394 . S
C1273 C1279 1.465 . S
C1274 C1269 1.399 . S
C1274 C1273 1.394 . S
C1274 C1275 1.516 . S
C1275 C1274 1.516 . S
C1275 C1276 1.502 . S
C1275 C1277 1.561 . S
C1275 C1278 1.526 . S
C1276 H1260 0.959 . S
C1276 H1261 0.959 . S
C1276 H1262 0.961 . S
C1276 C1275 1.502 . S
C1277 H1263 0.960 . S
C1277 H1264 0.961 . S
C1277 H1265 0.959 . S
C1277 C1275 1.561 . S
C1278 C1275 1.526 . S
C1278 C1279 1.396 . S
C1278 C1283 1.390 . S
C1279 C1273 1.465 . S
C1279 C1278 1.396 . S
C1279 C1280 1.399 . S
C1280 H1266 0.929 . S
C1280 C1279 1.399 . S
C1280 C1281 1.385 . S
C1281 H1267 0.931 . S
C1281 C1280 1.385 . S
C1281 C1282 1.389 . S
C1282 C1281 1.389 . S
C1282 C1283 1.387 . S
C1283 H1268 0.930 . S
C1283 C1278 1.390 . S
C1283 C1282 1.387 . S
H1284 C1296 0.930 . S
H1285 C1298 0.930 . S
H1286 C1299 0.930 . S
H1287 C1303 0.959 . S
H1288 C1303 0.959 . S
H1289 C1303 0.961 . S
H1290 C1304 0.960 . S
H1291 C1304 0.961 . S
H1292 C1304 0.959 . S
H1293 C1307 0.929 . S
H1294 C1308 0.931 . S
H1295 C1310 0.930 . S
C1296 H1284 0.930 . S
C1296 C1297 1.399 . S
C1296 C1301 1.399 . S
C1297 C1296 1.399 . S
C1297 C1298 1.376 . S
C1298 H1285 0.930 . S
C1298 C1297 1.376 . S
C1298 C1299 1.388 . S
C1299 H1286 0.930 . S
C1299 C1298 1.388 . S
C1299 C1300 1.390 . S
C1300 C1299 1.390 . S
C1300 C1301 1.394 . S
C1300 C1306 1.465 . S
C1301 C1296 1.399 . S
C1301 C1300 1.394 . S
C1301 C1302 1.516 . S
C1302 C1301 1.516 . S
C1302 C1303 1.502 . S
C1302 C1304 1.561 . S
C1302 C1305 1.526 . S
C1303 H1287 0.959 . S
C1303 H1288 0.959 . S
C1303 H1289 0.961 . S
C1303 C1302 1.502 . S
C1304 H1290 0.960 . S
C1304 H1291 0.961 . S
C1304 H1292 0.959 . S
C1304 C1302 1.561 . S
C1305 C1302 1.526 . S
C1305 C1306 1.396 . S
C1305 C1310 1.390 . S
C1306 C1300 1.465 . S
C1306 C1305 1.396 . S
C1306 C1307 1.399 . S
C1307 H1293 0.929 . S
C1307 C1306 1.399 . S
C1307 C1308 1.385 . S
C1308 H1294 0.931 . S
C1308 C1307 1.385 . S
C1308 C1309 1.389 . S
C1309 C1308 1.389 . S
C1309 C1310 1.387 . S
C1310 H1295 0.930 . S
C1310 C1305 1.390 . S
C1310 C1309 1.387 . S
H1311 C1323 0.930 . S
H1312 C1325 0.930 . S
H1313 C1326 0.930 . S
H1314 C1330 0.959 . S
H1315 C1330 0.959 . S
H1316 C1330 0.961 . S
H1317 C1331 0.960 . S
H1318 C1331 0.961 . S
H1319 C1331 0.959 . S
H1320 C1334 0.929 . S
H1321 C1335 0.931 . S
H1322 C1337 0.930 . S
C1323 H1311 0.930 . S
C1323 C1324 1.399 . S
C1323 C1328 1.399 . S
C1324 C1323 1.399 . S
C1324 C1325 1.376 . S
C1325 H1312 0.930 . S
C1325 C1324 1.376 . S
C1325 C1326 1.388 . S
C1326 H1313 0.930 . S
C1326 C1325 1.388 . S
C1326 C1327 1.390 . S
C1327 C1326 1.390 . S
C1327 C1328 1.394 . S
C1327 C1333 1.465 . S
C1328 C1323 1.399 . S
C1328 C1327 1.394 . S
C1328 C1329 1.516 . S
C1329 C1328 1.516 . S
C1329 C1330 1.502 . S
C1329 C1331 1.561 . S
C1329 C1332 1.526 . S
C1330 H1314 0.959 . S
C1330 H1315 0.959 . S
C1330 H1316 0.961 . S
C1330 C1329 1.502 . S
C1331 H1317 0.960 . S
C1331 H1318 0.961 . S
C1331 H1319 0.959 . S
C1331 C1329 1.561 . S
C1332 C1329 1.526 . S
C1332 C1333 1.396 . S
C1332 C1337 1.390 . S
C1333 C1327 1.465 . S
C1333 C1332 1.396 . S
C1333 C1334 1.399 . S
C1334 H1320 0.929 . S
C1334 C1333 1.399 . S
C1334 C1335 1.385 . S
C1335 H1321 0.931 . S
C1335 C1334 1.385 . S
C1335 C1336 1.389 . S
C1336 C1335 1.389 . S
C1336 C1337 1.387 . S
C1337 H1322 0.930 . S
C1337 C1332 1.390 . S
C1337 C1336 1.387 . S
H1338 C1350 0.930 . S
H1339 C1352 0.930 . S
H1340 C1353 0.930 . S
H1341 C1357 0.959 . S
H1342 C1357 0.959 . S
H1343 C1357 0.961 . S
H1344 C1358 0.960 . S
H1345 C1358 0.961 . S
H1346 C1358 0.959 . S
H1347 C1361 0.929 . S
H1348 C1362 0.931 . S
H1349 C1364 0.930 . S
C1350 H1338 0.930 . S
C1350 C1351 1.399 . S
C1350 C1355 1.399 . S
C1351 C1350 1.399 . S
C1351 C1352 1.376 . S
C1352 H1339 0.930 . S
C1352 C1351 1.376 . S
C1352 C1353 1.388 . S
C1353 H1340 0.930 . S
C1353 C1352 1.388 . S
C1353 C1354 1.390 . S
C1354 C1353 1.390 . S
C1354 C1355 1.394 . S
C1354 C1360 1.465 . S
C1355 C1350 1.399 . S
C1355 C1354 1.394 . S
C1355 C1356 1.516 . S
C1356 C1355 1.516 . S
C1356 C1357 1.502 . S
C1356 C1358 1.561 . S
C1356 C1359 1.526 . S
C1357 H1341 0.959 . S
C1357 H1342 0.959 . S
C1357 H1343 0.961 . S
C1357 C1356 1.502 . S
C1358 H1344 0.960 . S
C1358 H1345 0.961 . S
C1358 H1346 0.959 . S
C1358 C1356 1.561 . S
C1359 C1356 1.526 . S
C1359 C1360 1.396 . S
C1359 C1364 1.390 . S
C1360 C1354 1.465 . S
C1360 C1359 1.396 . S
C1360 C1361 1.399 . S
C1361 H1347 0.929 . S
C1361 C1360 1.399 . S
C1361 C1362 1.385 . S
C1362 H1348 0.931 . S
C1362 C1361 1.385 . S
C1362 C1363 1.389 . S
C1363 C1362 1.389 . S
C1363 C1364 1.387 . S
C1364 H1349 0.930 . S
C1364 C1359 1.390 . S
C1364 C1363 1.387 . S
H1365 C1377 0.930 . S
H1366 C1379 0.930 . S
H1367 C1380 0.930 . S
H1368 C1384 0.959 . S
H1369 C1384 0.959 . S
H1370 C1384 0.961 . S
H1371 C1385 0.960 . S
H1372 C1385 0.961 . S
H1373 C1385 0.959 . S
H1374 C1388 0.929 . S
H1375 C1389 0.931 . S
H1376 C1391 0.930 . S
C1377 H1365 0.930 . S
C1377 C1378 1.399 . S
C1377 C1382 1.399 . S
C1378 C1377 1.399 . S
C1378 C1379 1.376 . S
C1379 H1366 0.930 . S
C1379 C1378 1.376 . S
C1379 C1380 1.388 . S
C1380 H1367 0.930 . S
C1380 C1379 1.388 . S
C1380 C1381 1.390 . S
C1381 C1380 1.390 . S
C1381 C1382 1.394 . S
C1381 C1387 1.465 . S
C1382 C1377 1.399 . S
C1382 C1381 1.394 . S
C1382 C1383 1.516 . S
C1383 C1382 1.516 . S
C1383 C1384 1.502 . S
C1383 C1385 1.561 . S
C1383 C1386 1.526 . S
C1384 H1368 0.959 . S
C1384 H1369 0.959 . S
C1384 H1370 0.961 . S
C1384 C1383 1.502 . S
C1385 H1371 0.960 . S
C1385 H1372 0.961 . S
C1385 H1373 0.959 . S
C1385 C1383 1.561 . S
C1386 C1383 1.526 . S
C1386 C1387 1.396 . S
C1386 C1391 1.390 . S
C1387 C1381 1.465 . S
C1387 C1386 1.396 . S
C1387 C1388 1.399 . S
C1388 H1374 0.929 . S
C1388 C1387 1.399 . S
C1388 C1389 1.385 . S
C1389 H1375 0.931 . S
C1389 C1388 1.385 . S
C1389 C1390 1.389 . S
C1390 C1389 1.389 . S
C1390 C1391 1.387 . S
C1391 H1376 0.930 . S
C1391 C1386 1.390 . S
C1391 C1390 1.387 . S
H1392 C1404 0.930 . S
H1393 C1406 0.930 . S
H1394 C1407 0.930 . S
H1395 C1411 0.959 . S
H1396 C1411 0.959 . S
H1397 C1411 0.961 1_556 S
H1398 C1412 0.960 . S
H1399 C1412 0.961 1_554 S
H1400 C1412 0.959 . S
H1401 C1415 0.929 . S
H1402 C1416 0.931 . S
H1403 C1418 0.930 . S
C1404 H1392 0.930 . S
C1404 C1405 1.399 . S
C1404 C1409 1.399 . S
C1405 C1404 1.399 . S
C1405 C1406 1.376 1_545 S
C1406 H1393 0.930 . S
C1406 C1405 1.376 1_565 S
C1406 C1407 1.388 . S
C1407 H1394 0.930 . S
C1407 C1406 1.388 . S
C1407 C1408 1.390 1_565 S
C1408 C1407 1.390 1_545 S
C1408 C1409 1.394 . S
C1408 C1414 1.465 1_556 S
C1409 C1404 1.399 . S
C1409 C1408 1.394 . S
C1409 C1410 1.516 1_556 S
C1410 C1409 1.516 1_554 S
C1410 C1411 1.502 . S
C1410 C1412 1.561 1_554 S
C1410 C1413 1.526 . S
C1411 H1395 0.959 . S
C1411 H1396 0.959 . S
C1411 H1397 0.961 1_554 S
C1411 C1410 1.502 . S
C1412 H1398 0.960 . S
C1412 H1399 0.961 1_556 S
C1412 H1400 0.959 . S
C1412 C1410 1.561 1_556 S
C1413 C1410 1.526 . S
C1413 C1414 1.396 . S
C1413 C1418 1.390 . S
C1414 C1408 1.465 1_554 S
C1414 C1413 1.396 . S
C1414 C1415 1.399 1_545 S
C1415 H1401 0.929 . S
C1415 C1414 1.399 1_565 S
C1415 C1416 1.385 . S
C1416 H1402 0.931 . S
C1416 C1415 1.385 . S
C1416 C1417 1.389 1_565 S
C1417 C1416 1.389 1_545 S
C1417 C1418 1.387 . S
C1418 H1403 0.930 . S
C1418 C1413 1.390 . S
C1418 C1417 1.387 . S
H1419 C1431 0.930 . S
H1420 C1433 0.930 . S
H1421 C1434 0.930 . S
H1422 C1438 0.959 . S
H1423 C1438 0.959 . S
H1424 C1438 0.961 . S
H1425 C1439 0.960 . S
H1426 C1439 0.961 . S
H1427 C1439 0.959 . S
H1428 C1442 0.929 . S
H1429 C1443 0.931 . S
H1430 C1445 0.930 . S
C1431 H1419 0.930 . S
C1431 C1432 1.399 . S
C1431 C1436 1.399 . S
C1432 C1431 1.399 . S
C1432 C1433 1.376 . S
C1433 H1420 0.930 . S
C1433 C1432 1.376 . S
C1433 C1434 1.388 . S
C1434 H1421 0.930 . S
C1434 C1433 1.388 . S
C1434 C1435 1.390 . S
C1435 C1434 1.390 . S
C1435 C1436 1.394 . S
C1435 C1441 1.465 . S
C1436 C1431 1.399 . S
C1436 C1435 1.394 . S
C1436 C1437 1.516 . S
C1437 C1436 1.516 . S
C1437 C1438 1.502 . S
C1437 C1439 1.561 . S
C1437 C1440 1.526 . S
C1438 H1422 0.959 . S
C1438 H1423 0.959 . S
C1438 H1424 0.961 . S
C1438 C1437 1.502 . S
C1439 H1425 0.960 . S
C1439 H1426 0.961 . S
C1439 H1427 0.959 . S
C1439 C1437 1.561 . S
C1440 C1437 1.526 . S
C1440 C1441 1.396 . S
C1440 C1445 1.390 . S
C1441 C1435 1.465 . S
C1441 C1440 1.396 . S
C1441 C1442 1.399 . S
C1442 H1428 0.929 . S
C1442 C1441 1.399 . S
C1442 C1443 1.385 . S
C1443 H1429 0.931 . S
C1443 C1442 1.385 . S
C1443 C1444 1.389 . S
C1444 C1443 1.389 . S
C1444 C1445 1.387 . S
C1445 H1430 0.930 . S
C1445 C1440 1.390 . S
C1445 C1444 1.387 . S
H1446 C1458 0.930 . S
H1447 C1460 0.930 . S
H1448 C1461 0.930 . S
H1449 C1465 0.959 . S
H1450 C1465 0.959 . S
H1451 C1465 0.961 1_554 S
H1452 C1466 0.960 . S
H1453 C1466 0.961 1_556 S
H1454 C1466 0.959 . S
H1455 C1469 0.929 . S
H1456 C1470 0.931 . S
H1457 C1472 0.930 . S
C1458 H1446 0.930 . S
C1458 C1459 1.399 . S
C1458 C1463 1.399 . S
C1459 C1458 1.399 . S
C1459 C1460 1.376 . S
C1460 H1447 0.930 . S
C1460 C1459 1.376 . S
C1460 C1461 1.388 . S
C1461 H1448 0.930 . S
C1461 C1460 1.388 . S
C1461 C1462 1.390 . S
C1462 C1461 1.390 . S
C1462 C1463 1.394 . S
C1462 C1468 1.465 1_554 S
C1463 C1458 1.399 . S
C1463 C1462 1.394 . S
C1463 C1464 1.524 . S
C1464 C1463 1.524 . S
C1464 C1465 1.501 1_554 S
C1464 C1466 1.562 . S
C1464 C1467 1.517 1_554 S
C1465 H1449 0.959 . S
C1465 H1450 0.959 . S
C1465 H1451 0.961 1_556 S
C1465 C1464 1.501 1_556 S
C1466 H1452 0.960 . S
C1466 H1453 0.961 1_554 S
C1466 H1454 0.959 . S
C1466 C1464 1.562 . S
C1467 C1464 1.517 1_556 S
C1467 C1468 1.396 . S
C1467 C1472 1.390 . S
C1468 C1462 1.465 1_556 S
C1468 C1467 1.396 . S
C1468 C1469 1.399 . S
C1469 H1455 0.929 . S
C1469 C1468 1.399 . S
C1469 C1470 1.385 . S
C1470 H1456 0.931 . S
C1470 C1469 1.385 . S
C1470 C1471 1.389 . S
C1471 C1470 1.389 . S
C1471 C1472 1.387 . S
C1472 H1457 0.930 . S
C1472 C1467 1.390 . S
C1472 C1471 1.387 . S
H1473 C1485 0.930 . S
H1474 C1487 0.930 . S
H1475 C1488 0.930 . S
H1476 C1492 0.959 . S
H1477 C1492 0.959 . S
H1478 C1492 0.961 . S
H1479 C1493 0.960 . S
H1480 C1493 0.961 . S
H1481 C1493 0.959 1_655 S
H1482 C1496 0.929 . S
H1483 C1497 0.929 1_655 S
H1484 C1499 0.930 . S
C1485 H1473 0.930 . S
C1485 C1486 1.399 . S
C1485 C1490 1.399 . S
C1486 C1485 1.399 . S
C1486 C1487 1.376 1_455 S
C1487 H1474 0.930 . S
C1487 C1486 1.376 1_655 S
C1487 C1488 1.388 . S
C1488 H1475 0.930 . S
C1488 C1487 1.388 . S
C1488 C1489 1.390 1_655 S
C1489 C1488 1.390 1_455 S
C1489 C1490 1.394 . S
C1489 C1495 1.465 . S
C1490 C1485 1.399 . S
C1490 C1489 1.394 . S
C1490 C1491 1.516 . S
C1491 C1490 1.516 . S
C1491 C1492 1.502 . S
C1491 C1493 1.561 . S
C1491 C1494 1.526 . S
C1492 H1476 0.959 . S
C1492 H1477 0.959 . S
C1492 H1478 0.961 . S
C1492 C1491 1.502 . S
C1493 H1479 0.960 . S
C1493 H1480 0.961 . S
C1493 H1481 0.959 1_455 S
C1493 C1491 1.561 . S
C1494 C1491 1.526 . S
C1494 C1495 1.396 . S
C1494 C1499 1.390 . S
C1495 C1489 1.465 . S
C1495 C1494 1.396 . S
C1495 C1496 1.399 1_455 S
C1496 H1482 0.929 . S
C1496 C1495 1.399 1_655 S
C1496 C1497 1.384 1_655 S
C1497 H1483 0.929 1_455 S
C1497 C1496 1.384 1_455 S
C1497 C1498 1.392 . S
C1498 C1497 1.392 . S
C1498 C1499 1.387 . S
C1499 H1484 0.930 . S
C1499 C1494 1.390 . S
C1499 C1498 1.387 . S
H1500 C1512 0.930 . S
H1501 C1514 0.930 . S
H1502 C1515 0.930 . S
H1503 C1519 0.959 . S
H1504 C1519 0.959 . S
H1505 C1519 0.961 1_554 S
H1506 C1520 0.960 1_554 S
H1507 C1520 0.961 . S
H1508 C1520 0.959 1_545 S
H1509 C1523 0.929 . S
H1510 C1524 0.931 . S
H1511 C1526 0.930 . S
C1512 H1500 0.930 . S
C1512 C1513 1.399 . S
C1512 C1517 1.399 . S
C1513 C1512 1.399 . S
C1513 C1514 1.376 . S
C1514 H1501 0.930 . S
C1514 C1513 1.376 . S
C1514 C1515 1.388 . S
C1515 H1502 0.930 . S
C1515 C1514 1.388 . S
C1515 C1516 1.390 . S
C1516 C1515 1.390 . S
C1516 C1517 1.394 . S
C1516 C1522 1.465 1_554 S
C1517 C1512 1.399 . S
C1517 C1516 1.394 . S
C1517 C1518 1.516 1_554 S
C1518 C1517 1.516 1_556 S
C1518 C1519 1.502 . S
C1518 C1520 1.561 . S
C1518 C1521 1.526 . S
C1519 H1503 0.959 . S
C1519 H1504 0.959 . S
C1519 H1505 0.961 1_556 S
C1519 C1518 1.502 . S
C1520 H1506 0.960 1_556 S
C1520 H1507 0.961 . S
C1520 H1508 0.959 1_565 S
C1520 C1518 1.561 . S
C1521 C1518 1.526 . S
C1521 C1522 1.396 . S
C1521 C1526 1.390 . S
C1522 C1516 1.465 1_556 S
C1522 C1521 1.396 . S
C1522 C1523 1.399 . S
C1523 H1509 0.929 . S
C1523 C1522 1.399 . S
C1523 C1524 1.385 . S
C1524 H1510 0.931 . S
C1524 C1523 1.385 . S
C1524 C1525 1.389 . S
C1525 C1524 1.389 . S
C1525 C1526 1.387 . S
C1526 H1511 0.930 . S
C1526 C1521 1.390 . S
C1526 C1525 1.387 . S
H1527 C1539 0.930 . S
H1528 C1541 0.930 . S
H1529 C1542 0.930 . S
H1530 C1546 0.959 . S
H1531 C1546 0.959 . S
H1532 C1546 0.961 . S
H1533 C1547 0.960 . S
H1534 C1547 0.961 . S
H1535 C1547 0.959 . S
H1536 C1550 0.929 . S
H1537 C1551 0.931 . S
H1538 C1553 0.930 . S
C1539 H1527 0.930 . S
C1539 C1540 1.399 . S
C1539 C1544 1.399 . S
C1540 C1539 1.399 . S
C1540 C1541 1.376 . S
C1541 H1528 0.930 . S
C1541 C1540 1.376 . S
C1541 C1542 1.388 . S
C1542 H1529 0.930 . S
C1542 C1541 1.388 . S
C1542 C1543 1.390 . S
C1543 C1542 1.390 . S
C1543 C1544 1.394 . S
C1543 C1549 1.465 . S
C1544 C1539 1.399 . S
C1544 C1543 1.394 . S
C1544 C1545 1.516 . S
C1545 C1544 1.516 . S
C1545 C1546 1.502 . S
C1545 C1547 1.561 . S
C1545 C1548 1.526 . S
C1546 H1530 0.959 . S
C1546 H1531 0.959 . S
C1546 H1532 0.961 . S
C1546 C1545 1.502 . S
C1547 H1533 0.960 . S
C1547 H1534 0.961 . S
C1547 H1535 0.959 . S
C1547 C1545 1.561 . S
C1548 C1545 1.526 . S
C1548 C1549 1.396 . S
C1548 C1553 1.390 . S
C1549 C1543 1.465 . S
C1549 C1548 1.396 . S
C1549 C1550 1.399 . S
C1550 H1536 0.929 . S
C1550 C1549 1.399 . S
C1550 C1551 1.385 . S
C1551 H1537 0.931 . S
C1551 C1550 1.385 . S
C1551 C1552 1.389 . S
C1552 C1551 1.389 . S
C1552 C1553 1.387 . S
C1553 H1538 0.930 . S
C1553 C1548 1.390 . S
C1553 C1552 1.387 . S
H1554 C1566 0.930 . S
H1555 C1568 0.930 . S
H1556 C1569 0.930 . S
H1557 C1573 0.959 . S
H1558 C1573 0.959 . S
H1559 C1573 0.961 1_554 S
H1560 C1574 0.960 . S
H1561 C1574 0.961 1_556 S
H1562 C1574 0.959 . S
H1563 C1577 0.929 . S
H1564 C1578 0.931 . S
H1565 C1580 0.930 . S
C1566 H1554 0.930 . S
C1566 C1567 1.399 . S
C1566 C1571 1.399 . S
C1567 C1566 1.399 . S
C1567 C1568 1.376 . S
C1568 H1555 0.930 . S
C1568 C1567 1.376 . S
C1568 C1569 1.388 . S
C1569 H1556 0.930 . S
C1569 C1568 1.388 . S
C1569 C1570 1.390 . S
C1570 C1569 1.390 . S
C1570 C1571 1.394 . S
C1570 C1576 1.465 1_554 S
C1571 C1566 1.399 . S
C1571 C1570 1.394 . S
C1571 C1572 1.482 1_554 S
C1572 C1571 1.482 1_556 S
C1572 C1573 1.507 . S
C1572 C1574 1.559 1_556 S
C1572 C1575 1.558 . S
C1573 H1557 0.959 . S
C1573 H1558 0.959 . S
C1573 H1559 0.961 1_556 S
C1573 C1572 1.507 . S
C1574 H1560 0.960 . S
C1574 H1561 0.961 1_554 S
C1574 H1562 0.959 . S
C1574 C1572 1.559 1_554 S
C1575 C1572 1.558 . S
C1575 C1576 1.396 . S
C1575 C1580 1.390 . S
C1576 C1570 1.465 1_556 S
C1576 C1575 1.396 . S
C1576 C1577 1.399 . S
C1577 H1563 0.929 . S
C1577 C1576 1.399 . S
C1577 C1578 1.385 . S
C1578 H1564 0.931 . S
C1578 C1577 1.385 . S
C1578 C1579 1.389 . S
C1579 C1578 1.389 . S
C1579 C1580 1.387 . S
C1580 H1565 0.930 . S
C1580 C1575 1.390 . S
C1580 C1579 1.387 . S
H1581 C1593 0.930 . S
H1582 C1595 0.930 . S
H1583 C1596 0.930 . S
H1584 C1600 0.959 . S
H1585 C1600 0.959 . S
H1586 C1600 0.961 . S
H1587 C1601 0.960 . S
H1588 C1601 0.961 . S
H1589 C1601 0.959 1_455 S
H1590 C1604 0.929 . S
H1591 C1605 0.931 . S
H1592 C1607 0.930 . S
C1593 H1581 0.930 . S
C1593 C1594 1.399 . S
C1593 C1598 1.399 . S
C1594 C1593 1.399 . S
C1594 C1595 1.376 . S
C1595 H1582 0.930 . S
C1595 C1594 1.376 . S
C1595 C1596 1.388 . S
C1596 H1583 0.930 . S
C1596 C1595 1.388 . S
C1596 C1597 1.390 . S
C1597 C1596 1.390 . S
C1597 C1598 1.394 . S
C1597 C1603 1.465 . S
C1598 C1593 1.399 . S
C1598 C1597 1.394 . S
C1598 C1599 1.516 . S
C1599 C1598 1.516 . S
C1599 C1600 1.502 . S
C1599 C1601 1.561 . S
C1599 C1602 1.526 . S
C1600 H1584 0.959 . S
C1600 H1585 0.959 . S
C1600 H1586 0.961 . S
C1600 C1599 1.502 . S
C1601 H1587 0.960 . S
C1601 H1588 0.961 . S
C1601 H1589 0.959 1_655 S
C1601 C1599 1.561 . S
C1602 C1599 1.526 . S
C1602 C1603 1.396 . S
C1602 C1607 1.390 . S
C1603 C1597 1.465 . S
C1603 C1602 1.396 . S
C1603 C1604 1.399 . S
C1604 H1590 0.929 . S
C1604 C1603 1.399 . S
C1604 C1605 1.385 . S
C1605 H1591 0.931 . S
C1605 C1604 1.385 . S
C1605 C1606 1.389 . S
C1606 C1605 1.389 . S
C1606 C1607 1.387 . S
C1607 H1592 0.930 . S
C1607 C1602 1.390 . S
C1607 C1606 1.387 . S
C541 N14 1.673 . S
C553 N245 1.674 . S
C568 N146 1.668 . S
C580 N47 1.679 . S
C595 N179 1.667 . S
C607 N80 1.680 . S
C622 N113 1.680 . S
C634 N212 1.666 . S
C649 N269 2.214 . S
C661 N500 2.230 . S
C676 N302 2.209 . S
C688 N401 2.217 . S
C703 N434 2.237 . S
C715 N335 2.222 . S
C730 N368 2.219 . S
C742 N467 2.235 . S
C757 C8 0.818 . S
C769 C314 0.795 . S
C784 C347 0.914 . S
C796 C41 0.867 . S
C811 C380 0.755 . S
C823 C74 0.839 . S
C838 C281 0.911 . S
C850 C107 0.862 . S
C865 C512 0.800 . S
C877 C140 0.853 . S
C892 C413 0.712 . S
C904 C173 0.817 . S
C919 C446 0.862 . S
C931 C206 0.837 . S
C946 C479 0.724 . S
C958 C239 0.826 . S
C973 C61 1.088 . S
C985 C292 1.103 . S
C1000 C94 1.109 . S
C1012 C325 1.117 . S
C1027 C127 1.120 . S
C1039 C358 1.129 . S
C1054 C391 1.062 . S
C1066 C28 1.015 . S
C1081 C259 1.112 . S
C1093 C424 1.120 . S
C1108 C160 1.107 . S
C1120 C457 1.116 . S
C1135 C193 1.118 . S
C1147 C490 1.125 . S
C1162 C226 1.106 . S
C1174 C523 1.115 . S
C1189 N71 1.104 . S
C1201 N5 0.951 . S
C1216 N38 1.106 . S
C1228 N104 1.006 . S
C1243 N203 1.090 . S
C1255 N137 1.042 . S
C1270 N236 1.108 . S
C1282 N170 0.997 . S
C1297 N344 1.084 . S
C1309 N278 1.127 . S
C1324 N377 1.019 . S
C1336 N311 1.104 . S
C1351 N410 1.030 . S
C1363 N476 0.964 . S
C1378 N509 1.070 . S
C1390 N443 0.984 . S
C1405 C215 1.343 . S
C1417 C17 1.366 . S
C1432 C248 1.303 . S
C1444 C50 1.333 . S
C1459 C83 1.354 . S
C1471 C149 1.365 . S
C1486 C182 1.366 . S
C1498 C116 1.338 . S
C1513 C470 1.443 . S
C1525 C272 1.458 . S
C1540 C503 1.436 . S
C1552 C305 1.422 . S
C1567 C404 1.420 . S
C1579 C338 1.433 . S
C1594 C371 1.442 . S
C1606 C437 1.458 . S
