# Generated by pormake.
# Topology uos, (4)-cn, num edge types: 1
# Building blocks:
#     Node 0, Type 0, BuildingBlock: QUQFOY_clean_sbu_3, # of connection points: 4
#     Node 1, Type 0, BuildingBlock: QUQFOY_clean_sbu_3, # of connection points: 4
#     Node 2, Type 0, BuildingBlock: QUQFOY_clean_sbu_3, # of connection points: 4
#     Node 3, Type 0, BuildingBlock: QUQFOY_clean_sbu_3, # of connection points: 4
#     Node 4, Type 0, BuildingBlock: QUQFOY_clean_sbu_3, # of connection points: 4
#     Node 5, Type 0, BuildingBlock: QUQFOY_clean_sbu_3, # of connection points: 4
#     Node 6, Type 0, BuildingBlock: QUQFOY_clean_sbu_3, # of connection points: 4
#     Node 7, Type 0, BuildingBlock: QUQFOY_clean_sbu_3, # of connection points: 4
#     Node 8, Type 0, BuildingBlock: QUQFOY_clean_sbu_3, # of connection points: 4
#     Node 9, Type 0, BuildingBlock: QUQFOY_clean_sbu_3, # of connection points: 4
#     Node 10, Type 0, BuildingBlock: QUQFOY_clean_sbu_3, # of connection points: 4
#     Node 11, Type 0, BuildingBlock: QUQFOY_clean_sbu_3, # of connection points: 4
#     Node 12, Type 0, BuildingBlock: QUQFOY_clean_sbu_3, # of connection points: 4
#     Node 13, Type 0, BuildingBlock: QUQFOY_clean_sbu_3, # of connection points: 4
#     Node 14, Type 0, BuildingBlock: QUQFOY_clean_sbu_3, # of connection points: 4
#     Node 15, Type 0, BuildingBlock: QUQFOY_clean_sbu_3, # of connection points: 4
#     Node 16, Type 0, BuildingBlock: QUQFOY_clean_sbu_3, # of connection points: 4
#     Node 17, Type 0, BuildingBlock: QUQFOY_clean_sbu_3, # of connection points: 4
#     Node 18, Type 0, BuildingBlock: QUQFOY_clean_sbu_3, # of connection points: 4
#     Node 19, Type 0, BuildingBlock: QUQFOY_clean_sbu_3, # of connection points: 4
#     Node 20, Type 0, BuildingBlock: QUQFOY_clean_sbu_3, # of connection points: 4
#     Node 21, Type 0, BuildingBlock: QUQFOY_clean_sbu_3, # of connection points: 4
#     Node 22, Type 0, BuildingBlock: QUQFOY_clean_sbu_3, # of connection points: 4
#     Node 23, Type 0, BuildingBlock: QUQFOY_clean_sbu_3, # of connection points: 4
#     Node 24, Type 0, BuildingBlock: QUQFOY_clean_sbu_3, # of connection points: 4
#     Node 25, Type 0, BuildingBlock: QUQFOY_clean_sbu_3, # of connection points: 4
#     Node 26, Type 0, BuildingBlock: QUQFOY_clean_sbu_3, # of connection points: 4
#     Node 27, Type 0, BuildingBlock: QUQFOY_clean_sbu_3, # of connection points: 4
#     Node 28, Type 0, BuildingBlock: QUQFOY_clean_sbu_3, # of connection points: 4
#     Node 29, Type 0, BuildingBlock: QUQFOY_clean_sbu_3, # of connection points: 4
#     Node 30, Type 0, BuildingBlock: QUQFOY_clean_sbu_3, # of connection points: 4
#     Node 31, Type 0, BuildingBlock: QUQFOY_clean_sbu_3, # of connection points: 4
#     Edge 32, Type (0, 0), BuildingBlock: XUDNAN_clean_linker_2, # of connection points: 2
#     Edge 33, Type (0, 0), BuildingBlock: XUDNAN_clean_linker_2, # of connection points: 2
#     Edge 34, Type (0, 0), BuildingBlock: XUDNAN_clean_linker_2, # of connection points: 2
#     Edge 35, Type (0, 0), BuildingBlock: XUDNAN_clean_linker_2, # of connection points: 2
#     Edge 36, Type (0, 0), BuildingBlock: XUDNAN_clean_linker_2, # of connection points: 2
#     Edge 37, Type (0, 0), BuildingBlock: XUDNAN_clean_linker_2, # of connection points: 2
#     Edge 38, Type (0, 0), BuildingBlock: XUDNAN_clean_linker_2, # of connection points: 2
#     Edge 39, Type (0, 0), BuildingBlock: XUDNAN_clean_linker_2, # of connection points: 2
#     Edge 40, Type (0, 0), BuildingBlock: XUDNAN_clean_linker_2, # of connection points: 2
#     Edge 41, Type (0, 0), BuildingBlock: XUDNAN_clean_linker_2, # of connection points: 2
#     Edge 42, Type (0, 0), BuildingBlock: XUDNAN_clean_linker_2, # of connection points: 2
#     Edge 43, Type (0, 0), BuildingBlock: XUDNAN_clean_linker_2, # of connection points: 2
#     Edge 44, Type (0, 0), BuildingBlock: XUDNAN_clean_linker_2, # of connection points: 2
#     Edge 45, Type (0, 0), BuildingBlock: XUDNAN_clean_linker_2, # of connection points: 2
#     Edge 46, Type (0, 0), BuildingBlock: XUDNAN_clean_linker_2, # of connection points: 2
#     Edge 47, Type (0, 0), BuildingBlock: XUDNAN_clean_linker_2, # of connection points: 2
#     Edge 48, Type (0, 0), BuildingBlock: XUDNAN_clean_linker_2, # of connection points: 2
#     Edge 49, Type (0, 0), BuildingBlock: XUDNAN_clean_linker_2, # of connection points: 2
#     Edge 50, Type (0, 0), BuildingBlock: XUDNAN_clean_linker_2, # of connection points: 2
#     Edge 51, Type (0, 0), BuildingBlock: XUDNAN_clean_linker_2, # of connection points: 2
#     Edge 52, Type (0, 0), BuildingBlock: XUDNAN_clean_linker_2, # of connection points: 2
#     Edge 53, Type (0, 0), BuildingBlock: XUDNAN_clean_linker_2, # of connection points: 2
#     Edge 54, Type (0, 0), BuildingBlock: XUDNAN_clean_linker_2, # of connection points: 2
#     Edge 55, Type (0, 0), BuildingBlock: XUDNAN_clean_linker_2, # of connection points: 2
#     Edge 56, Type (0, 0), BuildingBlock: XUDNAN_clean_linker_2, # of connection points: 2
#     Edge 57, Type (0, 0), BuildingBlock: XUDNAN_clean_linker_2, # of connection points: 2
#     Edge 58, Type (0, 0), BuildingBlock: XUDNAN_clean_linker_2, # of connection points: 2
#     Edge 59, Type (0, 0), BuildingBlock: XUDNAN_clean_linker_2, # of connection points: 2
#     Edge 60, Type (0, 0), BuildingBlock: XUDNAN_clean_linker_2, # of connection points: 2
#     Edge 61, Type (0, 0), BuildingBlock: XUDNAN_clean_linker_2, # of connection points: 2
#     Edge 62, Type (0, 0), BuildingBlock: XUDNAN_clean_linker_2, # of connection points: 2
#     Edge 63, Type (0, 0), BuildingBlock: XUDNAN_clean_linker_2, # of connection points: 2
#     Edge 64, Type (0, 0), BuildingBlock: XUDNAN_clean_linker_2, # of connection points: 2
#     Edge 65, Type (0, 0), BuildingBlock: XUDNAN_clean_linker_2, # of connection points: 2
#     Edge 66, Type (0, 0), BuildingBlock: XUDNAN_clean_linker_2, # of connection points: 2
#     Edge 67, Type (0, 0), BuildingBlock: XUDNAN_clean_linker_2, # of connection points: 2
#     Edge 68, Type (0, 0), BuildingBlock: XUDNAN_clean_linker_2, # of connection points: 2
#     Edge 69, Type (0, 0), BuildingBlock: XUDNAN_clean_linker_2, # of connection points: 2
#     Edge 70, Type (0, 0), BuildingBlock: XUDNAN_clean_linker_2, # of connection points: 2
#     Edge 71, Type (0, 0), BuildingBlock: XUDNAN_clean_linker_2, # of connection points: 2
#     Edge 72, Type (0, 0), BuildingBlock: XUDNAN_clean_linker_2, # of connection points: 2
#     Edge 73, Type (0, 0), BuildingBlock: XUDNAN_clean_linker_2, # of connection points: 2
#     Edge 74, Type (0, 0), BuildingBlock: XUDNAN_clean_linker_2, # of connection points: 2
#     Edge 75, Type (0, 0), BuildingBlock: XUDNAN_clean_linker_2, # of connection points: 2
#     Edge 76, Type (0, 0), BuildingBlock: XUDNAN_clean_linker_2, # of connection points: 2
#     Edge 77, Type (0, 0), BuildingBlock: XUDNAN_clean_linker_2, # of connection points: 2
#     Edge 78, Type (0, 0), BuildingBlock: XUDNAN_clean_linker_2, # of connection points: 2
#     Edge 79, Type (0, 0), BuildingBlock: XUDNAN_clean_linker_2, # of connection points: 2
#     Edge 80, Type (0, 0), BuildingBlock: XUDNAN_clean_linker_2, # of connection points: 2
#     Edge 81, Type (0, 0), BuildingBlock: XUDNAN_clean_linker_2, # of connection points: 2
#     Edge 82, Type (0, 0), BuildingBlock: XUDNAN_clean_linker_2, # of connection points: 2
#     Edge 83, Type (0, 0), BuildingBlock: XUDNAN_clean_linker_2, # of connection points: 2
#     Edge 84, Type (0, 0), BuildingBlock: XUDNAN_clean_linker_2, # of connection points: 2
#     Edge 85, Type (0, 0), BuildingBlock: XUDNAN_clean_linker_2, # of connection points: 2
#     Edge 86, Type (0, 0), BuildingBlock: XUDNAN_clean_linker_2, # of connection points: 2
#     Edge 87, Type (0, 0), BuildingBlock: XUDNAN_clean_linker_2, # of connection points: 2
#     Edge 88, Type (0, 0), BuildingBlock: XUDNAN_clean_linker_2, # of connection points: 2
#     Edge 89, Type (0, 0), BuildingBlock: XUDNAN_clean_linker_2, # of connection points: 2
#     Edge 90, Type (0, 0), BuildingBlock: XUDNAN_clean_linker_2, # of connection points: 2
#     Edge 91, Type (0, 0), BuildingBlock: XUDNAN_clean_linker_2, # of connection points: 2
#     Edge 92, Type (0, 0), BuildingBlock: XUDNAN_clean_linker_2, # of connection points: 2
#     Edge 93, Type (0, 0), BuildingBlock: XUDNAN_clean_linker_2, # of connection points: 2
#     Edge 94, Type (0, 0), BuildingBlock: XUDNAN_clean_linker_2, # of connection points: 2
#     Edge 95, Type (0, 0), BuildingBlock: XUDNAN_clean_linker_2, # of connection points: 2
# Relax obj value: 0.043
# Max RMSD: 0.063
# Mean RMSD: 0.063
data_MOF--net-uos--node1-QUQFOY_clean_sbu_3--edge1-XUDNAN_clean_linker_2
_symmetry_space_group_name_H-M    P1
_symmetry_Int_Tables_number       1
_symmetry_cell_setting            triclinic
loop_
_symmetry_equiv_pos_as_xyz
'x, y, z'
_cell_length_a     87.386824
_cell_length_b     87.197922
_cell_length_c     24.040368
_cell_angle_alpha  90.092807
_cell_angle_beta   89.956891
_cell_angle_gamma 90.002176
loop_
_atom_site_label
_atom_site_type_symbol
_atom_site_fract_x
_atom_site_fract_y
_atom_site_fract_z
_atom_type_partial_charge
C0 C 0.16399 0.19814 0.16142 0.0
O1 O 0.165 0.19574 0.21335 0.0
Cd2 Cd 0.16512 0.17209 0.26033 0.0
O3 O 0.16284 0.18702 0.12706 0.0
Cd4 Cd 0.16046 0.15842 0.13944 0.0
C5 C 0.19537 0.15412 0.19575 0.0
O6 O 0.1439 0.15985 0.21913 0.0
O7 O 0.15372 0.13759 0.20615 0.0
O8 O 0.14018 0.15845 0.07106 0.0
C9 C 0.14425 0.14589 0.23248 0.0
O10 O 0.18928 0.15953 0.23971 0.0
C11 C 0.14498 0.14703 0.04343 0.0
O12 O 0.18784 0.15339 0.15047 0.0
O13 O 0.1577 0.1413 0.05833 0.0
C14 C 0.04266 0.91257 0.35569 0.0
O15 O 0.04559 0.90726 0.40368 0.0
Cd16 Cd 0.06943 0.90207 0.44631 0.0
O17 O 0.05345 0.916 0.32203 0.0
Cd18 Cd 0.08212 0.91403 0.32704 0.0
C19 C 0.08547 0.9381 0.43683 0.0
O20 O 0.08326 0.88988 0.37509 0.0
O21 O 0.1042 0.90262 0.37532 0.0
O22 O 0.08359 0.90348 0.23424 0.0
C23 C 0.09722 0.89042 0.38833 0.0
O24 O 0.08104 0.92684 0.46645 0.0
C25 C 0.09454 0.91192 0.21793 0.0
O26 O 0.08567 0.9372 0.38383 0.0
O27 O 0.09883 0.9225 0.25083 0.0
C28 C 0.33525 0.8052 0.6523 0.0
O29 O 0.33025 0.80383 0.70158 0.0
Cd30 Cd 0.32324 0.82424 0.76266 0.0
O31 O 0.33674 0.8183 0.62968 0.0
Cd32 Cd 0.33129 0.84529 0.65675 0.0
C33 C 0.294 0.83925 0.68413 0.0
O34 O 0.34089 0.84451 0.75127 0.0
O35 O 0.32702 0.86416 0.73021 0.0
O36 O 0.35559 0.85226 0.61683 0.0
C37 C 0.33531 0.85734 0.76562 0.0
O38 O 0.2989 0.83321 0.72887 0.0
C39 C 0.35055 0.86234 0.58363 0.0
O40 O 0.30321 0.84345 0.64577 0.0
O41 O 0.33614 0.86441 0.58291 0.0
C42 C 0.44445 0.07696 0.85759 0.0
O43 O 0.44709 0.07644 0.90943 0.0
Cd44 Cd 0.42923 0.07238 0.98204 0.0
O45 O 0.43088 0.07618 0.83855 0.0
Cd46 Cd 0.40496 0.07573 0.88275 0.0
C47 C 0.41039 0.04019 0.93305 0.0
O48 O 0.41011 0.09073 0.96542 0.0
O49 O 0.38918 0.07771 0.96742 0.0
O50 O 0.39719 0.09798 0.8313 0.0
C51 C 0.39784 0.08748 0.99064 0.0
O52 O 0.41879 0.04678 0.96916 0.0
C53 C 0.38584 0.09191 0.80696 0.0
O54 O 0.40443 0.04775 0.8932 0.0
O55 O 0.38353 0.07771 0.8157 0.0
C56 C 0.15042 0.79831 0.82675 0.0
O57 O 0.14783 0.79834 0.77476 0.0
Cd58 Cd 0.14739 0.81908 0.71122 0.0
O59 O 0.15328 0.81072 0.85293 0.0
Cd60 Cd 0.154 0.83847 0.82602 0.0
C61 C 0.18335 0.83406 0.73487 0.0
O62 O 0.13315 0.83721 0.76148 0.0
O63 O 0.14614 0.85803 0.75759 0.0
O64 O 0.1394 0.84491 0.90809 0.0
C65 C 0.13486 0.85029 0.74005 0.0
O66 O 0.17364 0.82822 0.7015 0.0
C67 C 0.14783 0.85595 0.92364 0.0
O68 O 0.17964 0.83764 0.7846 0.0
O69 O 0.15994 0.85834 0.89559 0.0
C70 C 0.43506 0.89084 0.09051 0.0
O71 O 0.42759 0.88677 0.04763 0.0
Cd72 Cd 0.40159 0.89255 0.02717 0.0
O73 O 0.42865 0.89841 0.12962 0.0
Cd74 Cd 0.40244 0.90792 0.15365 0.0
C75 C 0.4027 0.93219 0.04408 0.0
O76 O 0.38933 0.88678 0.11176 0.0
O77 O 0.37469 0.9053 0.13587 0.0
O78 O 0.40915 0.8985 0.24494 0.0
C79 C 0.37591 0.89214 0.11396 0.0
O80 O 0.40072 0.92034 0.01379 0.0
C81 C 0.40144 0.90838 0.27174 0.0
O82 O 0.40478 0.93104 0.09649 0.0
O83 O 0.39492 0.91884 0.24372 0.0
C84 C 0.33193 0.18365 0.34222 0.0
O85 O 0.33666 0.18003 0.294 0.0
Cd86 Cd 0.34017 0.15449 0.26183 0.0
O87 O 0.32891 0.17333 0.3781 0.0
Cd88 Cd 0.32987 0.14481 0.38428 0.0
C89 C 0.30335 0.14181 0.28315 0.0
O90 O 0.35375 0.14234 0.33521 0.0
O91 O 0.34122 0.12132 0.34419 0.0
O92 O 0.33839 0.15039 0.47764 0.0
C93 C 0.35338 0.12797 0.32871 0.0
O94 O 0.31421 0.14474 0.24944 0.0
C95 C 0.33226 0.1388 0.50029 0.0
O96 O 0.30553 0.14207 0.33558 0.0
O97 O 0.32423 0.13015 0.46931 0.0
C98 C 0.04956 0.07135 0.60478 0.0
O99 O 0.05257 0.07291 0.55344 0.0
Cd100 Cd 0.07729 0.07642 0.51573 0.0
O101 O 0.06021 0.07182 0.64099 0.0
Cd102 Cd 0.08857 0.07574 0.64007 0.0
C103 C 0.09342 0.04331 0.56665 0.0
O104 O 0.08809 0.0959 0.57241 0.0
O105 O 0.11031 0.08589 0.58452 0.0
O106 O 0.08333 0.0914 0.72048 0.0
C107 C 0.1023 0.09649 0.56335 0.0
O108 O 0.08911 0.05136 0.52542 0.0
C109 C 0.09519 0.08776 0.74772 0.0
O110 O 0.09355 0.04892 0.61564 0.0
O111 O 0.10383 0.07761 0.7263 0.0
C112 C 0.84088 0.80674 0.79871 0.0
O113 O 0.8434 0.80899 0.74733 0.0
Cd114 Cd 0.83685 0.83088 0.69326 0.0
O115 O 0.83538 0.81739 0.82914 0.0
Cd116 Cd 0.82851 0.84485 0.81483 0.0
C117 C 0.79899 0.83365 0.73474 0.0
O118 O 0.84541 0.85288 0.74018 0.0
O119 O 0.82515 0.86651 0.75316 0.0
O120 O 0.84473 0.85325 0.89026 0.0
C121 C 0.83747 0.86444 0.7264 0.0
O122 O 0.80903 0.83167 0.69691 0.0
C123 C 0.83464 0.86144 0.91411 0.0
O124 O 0.80282 0.83732 0.78429 0.0
O125 O 0.82117 0.86095 0.89421 0.0
C126 C 0.93854 0.07846 0.62324 0.0
O127 O 0.93476 0.08193 0.57387 0.0
Cd128 Cd 0.90967 0.08721 0.54266 0.0
O129 O 0.92855 0.07801 0.66192 0.0
Cd130 Cd 0.90039 0.08274 0.6691 0.0
C131 C 0.89395 0.05283 0.58334 0.0
O132 O 0.89964 0.10475 0.60902 0.0
O133 O 0.87781 0.09404 0.62288 0.0
O134 O 0.90675 0.09592 0.75442 0.0
C135 C 0.88529 0.10526 0.60334 0.0
O136 O 0.89778 0.062 0.54458 0.0
C137 C 0.89522 0.09142 0.78195 0.0
O138 O 0.89457 0.057 0.63418 0.0
O139 O 0.88633 0.08193 0.75807 0.0
C140 C 0.65951 0.18614 0.36515 0.0
O141 O 0.65619 0.18332 0.31475 0.0
Cd142 Cd 0.64985 0.15956 0.27161 0.0
O143 O 0.66025 0.17544 0.40114 0.0
Cd144 Cd 0.65794 0.14696 0.39294 0.0
C145 C 0.68524 0.14465 0.29215 0.0
O146 O 0.63492 0.14579 0.33699 0.0
O147 O 0.64781 0.12484 0.34178 0.0
O148 O 0.64664 0.14476 0.48491 0.0
C149 C 0.6358 0.13164 0.32567 0.0
O150 O 0.67486 0.14799 0.25705 0.0
C151 C 0.6557 0.13438 0.50181 0.0
O152 O 0.68247 0.14478 0.34424 0.0
O153 O 0.66645 0.1305 0.46909 0.0
C154 C 0.5464 0.88608 0.1103 0.0
O155 O 0.55412 0.88176 0.06832 0.0
Cd156 Cd 0.58018 0.8868 0.04754 0.0
O157 O 0.55266 0.89354 0.15 0.0
Cd158 Cd 0.57939 0.90195 0.17347 0.0
C159 C 0.5798 0.92643 0.06459 0.0
O160 O 0.59284 0.88105 0.13089 0.0
O161 O 0.6069 0.90044 0.15006 0.0
O162 O 0.57701 0.89109 0.26571 0.0
C163 C 0.60603 0.88698 0.13047 0.0
O164 O 0.58163 0.91452 0.03443 0.0
C165 C 0.58299 0.90239 0.29097 0.0
O166 O 0.57753 0.92532 0.11692 0.0
O167 O 0.58597 0.91421 0.26199 0.0
C168 C 0.82364 0.20296 0.17369 0.0
O169 O 0.82118 0.20237 0.22569 0.0
Cd170 Cd 0.82143 0.18034 0.28319 0.0
O171 O 0.82651 0.19077 0.14609 0.0
Cd172 Cd 0.82938 0.16295 0.1705 0.0
C173 C 0.79351 0.15882 0.21966 0.0
O174 O 0.84375 0.16713 0.25514 0.0
O175 O 0.8349 0.14428 0.24491 0.0
O176 O 0.85142 0.16066 0.10974 0.0
C177 C 0.84328 0.15346 0.27223 0.0
O178 O 0.79842 0.16578 0.26269 0.0
C179 C 0.84662 0.14911 0.08282 0.0
O180 O 0.80197 0.15723 0.17684 0.0
O181 O 0.83329 0.1443 0.09472 0.0
C182 C 0.54645 0.07209 0.86526 0.0
O183 O 0.54377 0.07226 0.91714 0.0
Cd184 Cd 0.56179 0.06869 0.98961 0.0
O185 O 0.55998 0.07045 0.84645 0.0
Cd186 Cd 0.58583 0.06878 0.89056 0.0
C187 C 0.57803 0.03452 0.94968 0.0
O188 O 0.58106 0.0866 0.96595 0.0
O189 O 0.60191 0.07368 0.9734 0.0
O190 O 0.59404 0.08694 0.82068 0.0
C191 C 0.5934 0.0843 0.99194 0.0
O192 O 0.57031 0.04207 0.98535 0.0
C193 C 0.6059 0.07963 0.80572 0.0
O194 O 0.58418 0.04123 0.90827 0.0
O195 O 0.60833 0.06683 0.8293 0.0
C196 C 0.64304 0.79605 0.68208 0.0
O197 O 0.64705 0.7953 0.7327 0.0
Cd198 Cd 0.65642 0.81581 0.78857 0.0
O199 O 0.64352 0.80862 0.6552 0.0
Cd200 Cd 0.65094 0.8356 0.67775 0.0
C201 C 0.68729 0.82598 0.70817 0.0
O202 O 0.64009 0.83689 0.77065 0.0
O203 O 0.65573 0.85504 0.74924 0.0
O204 O 0.62946 0.84412 0.62051 0.0
C205 C 0.64641 0.84943 0.78401 0.0
O206 O 0.68206 0.82132 0.75463 0.0
C207 C 0.63686 0.85467 0.59604 0.0
O208 O 0.67834 0.8305 0.66969 0.0
O209 O 0.65096 0.85594 0.60788 0.0
C210 C 0.93087 0.91776 0.34933 0.0
O211 O 0.92677 0.91212 0.39571 0.0
Cd212 Cd 0.90195 0.91092 0.43692 0.0
O213 O 0.92104 0.92339 0.31588 0.0
Cd214 Cd 0.89257 0.92587 0.31393 0.0
C215 C 0.89245 0.94955 0.42568 0.0
O216 O 0.8857 0.90312 0.36515 0.0
O217 O 0.86758 0.91935 0.35201 0.0
O218 O 0.89294 0.91428 0.22318 0.0
C219 C 0.87182 0.90673 0.37289 0.0
O220 O 0.89499 0.93744 0.45386 0.0
C221 C 0.88335 0.92338 0.20129 0.0
O222 O 0.89225 0.94926 0.37247 0.0
O223 O 0.87918 0.93486 0.23034 0.0
C224 C 0.637 0.68816 0.64232 0.0
O225 O 0.63239 0.68231 0.68766 0.0
Cd226 Cd 0.64019 0.65789 0.72187 0.0
O227 O 0.64497 0.68043 0.60776 0.0
Cd228 Cd 0.65333 0.65326 0.59361 0.0
C229 C 0.67962 0.65934 0.69337 0.0
O230 O 0.6343 0.64087 0.64947 0.0
O231 O 0.65368 0.62684 0.62853 0.0
O232 O 0.63876 0.65626 0.50991 0.0
C233 C 0.64096 0.62803 0.65344 0.0
O234 O 0.66817 0.65891 0.72628 0.0
C235 C 0.64719 0.64802 0.47907 0.0
O236 O 0.67783 0.65846 0.64065 0.0
O237 O 0.65949 0.64286 0.50034 0.0
C238 C 0.55222 0.40659 0.83532 0.0
O239 O 0.55552 0.40141 0.88315 0.0
Cd240 Cd 0.5801 0.39441 0.91682 0.0
O241 O 0.5625 0.40885 0.79867 0.0
Cd242 Cd 0.59086 0.4062 0.7946 0.0
C243 C 0.59496 0.43072 0.90384 0.0
O244 O 0.59216 0.38185 0.84146 0.0
O245 O 0.61365 0.39353 0.83286 0.0
O246 O 0.58543 0.39789 0.70117 0.0
C247 C 0.60648 0.38168 0.84868 0.0
O248 O 0.59157 0.41931 0.93448 0.0
C249 C 0.59717 0.40379 0.67877 0.0
O250 O 0.59452 0.42969 0.8508 0.0
O251 O 0.6058 0.41183 0.70986 0.0
C252 C 0.83278 0.3121 0.08435 0.0
O253 O 0.83722 0.31853 0.12898 0.0
Cd254 Cd 0.83984 0.34528 0.14686 0.0
O255 O 0.82945 0.32002 0.04144 0.0
Cd256 Cd 0.82899 0.34777 0.01577 0.0
C257 C 0.80226 0.35416 0.11554 0.0
O258 O 0.85142 0.35525 0.06625 0.0
O259 O 0.83757 0.37397 0.03803 0.0
O260 O 0.83992 0.33923 0.92879 0.0
C261 C 0.84951 0.3696 0.06324 0.0
O262 O 0.81328 0.35365 0.15022 0.0
C263 C 0.83283 0.34878 0.89856 0.0
O264 O 0.8044 0.35134 0.06393 0.0
O265 O 0.82296 0.35727 0.92236 0.0
C266 C 0.94121 0.59668 0.3902 0.0
O267 O 0.93612 0.59986 0.43836 0.0
Cd268 Cd 0.91055 0.59574 0.46991 0.0
O269 O 0.93223 0.59191 0.35211 0.0
Cd270 Cd 0.90427 0.5873 0.33874 0.0
C271 C 0.9074 0.55765 0.42752 0.0
O272 O 0.89405 0.60603 0.40232 0.0
O273 O 0.87835 0.58834 0.37703 0.0
O274 O 0.90729 0.60351 0.25878 0.0
C275 C 0.88069 0.60043 0.40503 0.0
O276 O 0.90784 0.56799 0.46506 0.0
C277 C 0.89853 0.596 0.22672 0.0
O278 O 0.90718 0.56116 0.37589 0.0
O279 O 0.89301 0.58352 0.24543 0.0
C280 C 0.67039 0.29331 0.30472 0.0
O281 O 0.67229 0.29256 0.25242 0.0
Cd282 Cd 0.66914 0.31193 0.18427 0.0
O283 O 0.66666 0.30593 0.32804 0.0
Cd284 Cd 0.66265 0.33263 0.29235 0.0
C285 C 0.69703 0.33669 0.22901 0.0
O286 O 0.64732 0.32598 0.21147 0.0
O287 O 0.65624 0.34901 0.21339 0.0
O288 O 0.64046 0.33761 0.34963 0.0
C289 C 0.64772 0.33919 0.18986 0.0
O290 O 0.69149 0.3281 0.19119 0.0
C291 C 0.64592 0.34908 0.3753 0.0
O292 O 0.6896 0.33931 0.27377 0.0
O293 O 0.65974 0.35258 0.36492 0.0
C294 C 0.94701 0.4033 0.50985 0.0
O295 O 0.94747 0.40567 0.45779 0.0
Cd296 Cd 0.92685 0.4148 0.40212 0.0
O297 O 0.93452 0.40472 0.53676 0.0
Cd298 Cd 0.90724 0.40984 0.51337 0.0
C299 C 0.9152 0.44627 0.47952 0.0
O300 O 0.90556 0.39894 0.42063 0.0
O301 O 0.88785 0.41507 0.44326 0.0
O302 O 0.89959 0.38656 0.55989 0.0
C303 C 0.89314 0.4056 0.40813 0.0
O304 O 0.92069 0.44055 0.43494 0.0
C305 C 0.88999 0.39272 0.59258 0.0
O306 O 0.91044 0.43767 0.51879 0.0
O307 O 0.88868 0.40723 0.59017 0.0
C308 C 0.83065 0.69721 0.80521 0.0
O309 O 0.82978 0.69462 0.75333 0.0
Cd310 Cd 0.82251 0.67116 0.71117 0.0
O311 O 0.82846 0.68651 0.84047 0.0
Cd312 Cd 0.82456 0.65805 0.83717 0.0
C313 C 0.7892 0.66321 0.78522 0.0
O314 O 0.83874 0.65318 0.75359 0.0
O315 O 0.82413 0.6346 0.77893 0.0
O316 O 0.84658 0.65772 0.89646 0.0
C317 C 0.83422 0.63959 0.74566 0.0
O318 O 0.79625 0.66648 0.74037 0.0
C319 C 0.84184 0.64776 0.93067 0.0
O320 O 0.79653 0.66047 0.83008 0.0
O321 O 0.82823 0.64288 0.92382 0.0
C322 C 0.54802 0.57306 0.06023 0.0
O323 O 0.55073 0.57305 0.00834 0.0
Cd324 Cd 0.57467 0.56996 0.96322 0.0
O325 O 0.55892 0.57209 0.09536 0.0
Cd326 Cd 0.58765 0.57171 0.09095 0.0
C327 C 0.58769 0.53698 0.0301 0.0
O328 O 0.59128 0.58691 0.00855 0.0
O329 O 0.61083 0.57362 0.03357 0.0
O330 O 0.58707 0.59374 0.15059 0.0
C331 C 0.60511 0.5833 0.0003 0.0
O332 O 0.58329 0.54443 0.98746 0.0
C333 C 0.5972 0.58935 0.18472 0.0
O334 O 0.58929 0.54363 0.0772 0.0
O335 O 0.60244 0.57584 0.17807 0.0
C336 C 0.33736 0.29561 0.3659 0.0
O337 O 0.34327 0.30008 0.32044 0.0
Cd338 Cd 0.34911 0.32582 0.29575 0.0
O339 O 0.33427 0.30516 0.40455 0.0
Cd340 Cd 0.33693 0.33327 0.42048 0.0
C341 C 0.31278 0.34047 0.31346 0.0
O342 O 0.36134 0.33603 0.37554 0.0
O343 O 0.34944 0.35714 0.39081 0.0
O344 O 0.3452 0.32608 0.51256 0.0
C345 C 0.36141 0.35051 0.37335 0.0
O346 O 0.32403 0.33745 0.28152 0.0
C347 C 0.33865 0.33705 0.53781 0.0
O348 O 0.31391 0.33892 0.36611 0.0
O349 O 0.33026 0.34587 0.50879 0.0
C350 C 0.43656 0.58213 0.08657 0.0
O351 O 0.4322 0.58503 0.03729 0.0
Cd352 Cd 0.40699 0.58641 7e-05 0.0
O353 O 0.42682 0.57967 0.12511 0.0
Cd354 Cd 0.3982 0.57921 0.12868 0.0
C355 C 0.39541 0.55011 0.03597 0.0
O356 O 0.39265 0.60021 0.06614 0.0
O357 O 0.37371 0.58548 0.0856 0.0
O358 O 0.39763 0.59336 0.21528 0.0
C359 C 0.37854 0.59732 0.06076 0.0
O360 O 0.39778 0.5601 -0.00167 0.0
C361 C 0.38801 0.58463 0.23899 0.0
O362 O 0.39628 0.55358 0.08746 0.0
O363 O 0.38426 0.57245 0.21325 0.0
C364 C 0.15699 0.68999 0.87591 0.0
O365 O 0.15578 0.68659 0.82472 0.0
Cd366 Cd 0.16382 0.66346 0.78194 0.0
O367 O 0.16191 0.6802 0.91094 0.0
Cd368 Cd 0.16922 0.65251 0.90619 0.0
C369 C 0.20052 0.66287 0.83374 0.0
O370 O 0.15178 0.64406 0.83467 0.0
O371 O 0.17066 0.62884 0.84967 0.0
O372 O 0.15299 0.64827 0.98665 0.0
C373 C 0.15808 0.63129 0.82503 0.0
O374 O 0.19167 0.66359 0.79174 0.0
C375 C 0.16229 0.6395 0.01174 0.0
O376 O 0.19529 0.65996 0.88208 0.0
O377 O 0.17534 0.63755 0.98935 0.0
C378 C 0.05441 0.39436 0.60143 0.0
O379 O 0.06121 0.39012 0.55726 0.0
Cd380 Cd 0.08712 0.39526 0.53303 0.0
O381 O 0.06173 0.40109 0.64039 0.0
Cd382 Cd 0.08857 0.40878 0.66249 0.0
C383 C 0.08563 0.43464 0.55895 0.0
O384 O 0.10158 0.38897 0.6121 0.0
O385 O 0.11572 0.40792 0.63667 0.0
O386 O 0.08405 0.39641 0.75034 0.0
C387 C 0.11469 0.39514 0.61188 0.0
O388 O 0.08701 0.42317 0.52633 0.0
C389 C 0.0916 0.40593 0.77931 0.0
O390 O 0.08499 0.43288 0.61166 0.0
O391 O 0.09695 0.41763 0.75447 0.0
C392 C 0.34892 0.69912 0.63411 0.0
O393 O 0.3546 0.69676 0.68189 0.0
Cd394 Cd 0.34661 0.67627 0.74146 0.0
O395 O 0.34033 0.68921 0.6109 0.0
Cd396 Cd 0.33322 0.66204 0.62721 0.0
C397 C 0.30714 0.67539 0.71626 0.0
O398 O 0.3512 0.65279 0.69671 0.0
O399 O 0.32971 0.64071 0.68873 0.0
O400 O 0.34839 0.65429 0.54893 0.0
C401 C 0.34256 0.64192 0.71265 0.0
O402 O 0.31871 0.67765 0.74756 0.0
C403 C 0.33813 0.64617 0.52592 0.0
O404 O 0.30878 0.67053 0.66644 0.0
O405 O 0.32488 0.64629 0.54801 0.0
C406 C 0.05164 0.58777 0.42832 0.0
O407 O 0.05357 0.58702 0.48058 0.0
Cd408 Cd 0.07622 0.57914 0.52767 0.0
O409 O 0.06264 0.58479 0.39505 0.0
Cd410 Cd 0.09026 0.57791 0.40583 0.0
C411 C 0.08148 0.54408 0.46504 0.0
O412 O 0.0967 0.59316 0.48746 0.0
O413 O 0.11264 0.57525 0.46591 0.0
O414 O 0.09732 0.59593 0.33256 0.0
C415 C 0.10947 0.58672 0.49616 0.0
O416 O 0.07897 0.55173 0.5093 0.0
C417 C 0.10598 0.58661 0.30688 0.0
O418 O 0.08465 0.55082 0.41949 0.0
O419 O 0.10658 0.57299 0.32536 0.0
C420 C 0.16759 0.30824 0.17901 0.0
O421 O 0.16801 0.30965 0.23155 0.0
Cd422 Cd 0.17306 0.3322 0.28327 0.0
O423 O 0.16878 0.3199 0.14736 0.0
Cd424 Cd 0.16945 0.34835 0.16264 0.0
C425 C 0.20505 0.34582 0.21163 0.0
O426 O 0.15572 0.35024 0.24913 0.0
O427 O 0.1695 0.36992 0.22898 0.0
O428 O 0.14627 0.34939 0.11028 0.0
C429 C 0.15995 0.36368 0.26159 0.0
O430 O 0.19829 0.3406 0.25461 0.0
C431 C 0.1502 0.36003 0.07737 0.0
O432 O 0.19759 0.34885 0.16731 0.0
O433 O 0.16389 0.36493 0.08132 0.0
C434 C 0.44544 0.41413 0.90999 0.0
O435 O 0.446 0.41677 0.9619 0.0
Cd436 Cd 0.42648 0.41404 0.02935 0.0
O437 O 0.43309 0.40953 0.88721 0.0
Cd438 Cd 0.40668 0.40478 0.92353 0.0
C439 C 0.40205 0.44056 0.97461 0.0
O440 O 0.41384 0.39096 0.00667 0.0
O441 O 0.39065 0.39922 0.00525 0.0
O442 O 0.40292 0.38197 0.86754 0.0
C443 C 0.40081 0.39125 0.02937 0.0
O444 O 0.41011 0.43603 0.01547 0.0
C445 C 0.39088 0.38657 0.84334 0.0
O446 O 0.39993 0.43198 0.93234 0.0
O447 O 0.38646 0.40013 0.85423 0.0
H448 H 0.27624 0.14366 0.33972 0.0
H449 H 0.29526 0.13543 0.17552 0.0
H450 H 0.2692 0.13506 0.136 0.0
H451 H 0.24064 0.12078 0.32161 0.0
H452 H 0.22946 0.1345 0.36037 0.0
H453 H 0.2494 0.13174 0.3767 0.0
H454 H 0.25421 0.16083 0.36298 0.0
H455 H 0.23438 0.16366 0.34614 0.0
H456 H 0.249 0.16969 0.29799 0.0
H457 H 0.24128 0.13839 0.11297 0.0
H458 H 0.21383 0.1452 0.10867 0.0
H459 H 0.21348 0.15171 0.28781 0.0
C460 C 0.27492 0.14133 0.29572 0.0
C461 C 0.28777 0.13948 0.26078 0.0
C462 C 0.28556 0.13684 0.20314 0.0
C463 C 0.2708 0.13656 0.18031 0.0
C464 C 0.25839 0.1389 0.21569 0.0
C465 C 0.2603 0.14115 0.27223 0.0
C466 C 0.24527 0.1448 0.30045 0.0
C467 C 0.24094 0.1322 0.34225 0.0
C468 C 0.24575 0.16069 0.3285 0.0
C469 C 0.23469 0.14472 0.25074 0.0
C470 C 0.24239 0.14108 0.20231 0.0
C471 C 0.23508 0.14106 0.15075 0.0
C472 C 0.2195 0.14497 0.14869 0.0
C473 C 0.2115 0.14901 0.19785 0.0
C474 C 0.21923 0.14866 0.24943 0.0
H475 H 0.08887 0.9667 0.39091 0.0
H476 H 0.09222 0.94195 0.54698 0.0
H477 H 0.09809 0.96611 0.59586 0.0
H478 H 0.11896 -0.00431 0.42115 0.0
H479 H 0.1083 0.01076 0.38766 0.0
H480 H 0.10649 0.99126 0.36362 0.0
H481 H 0.07709 0.99269 0.37717 0.0
H482 H 0.07881 0.01215 0.40108 0.0
H483 H 0.06947 -0.00193 0.44415 0.0
H484 H 0.10093 0.99319 0.6294 0.0
H485 H 0.09945 0.02117 0.64502 0.0
H486 H 0.09421 0.02812 0.4672 0.0
C487 C 0.09117 0.96631 0.43514 0.0
C488 C 0.09013 0.95244 0.46504 0.0
C489 C 0.09293 0.95246 0.52314 0.0
C490 C 0.09638 0.96611 0.55128 0.0
C491 C 0.09705 0.97964 0.52076 0.0
C492 C 0.09454 0.97985 0.46395 0.0
C493 C 0.09451 -0.00393 0.44175 0.0
C494 C 0.10787 -0.00141 0.40115 0.0
C495 C 0.07905 -3e-05 0.41447 0.0
C496 C 0.09685 0.00495 0.4952 0.0
C497 C 0.09856 0.99528 0.54021 0.0
C498 C 0.09983 0.00089 0.59438 0.0
C499 C 0.09898 0.0168 0.60286 0.0
C500 C 0.09673 0.02686 0.5574 0.0
C501 C 0.09605 0.02079 0.50288 0.0
H502 H 0.20901 0.83843 0.79812 0.0
H503 H 0.19345 0.8352 0.6271 0.0
H504 H 0.22003 0.83857 0.59424 0.0
H505 H 0.23948 0.86654 0.77531 0.0
H506 H 0.25214 0.85742 0.82433 0.0
H507 H 0.23172 0.85628 0.83395 0.0
H508 H 0.2334 0.82659 0.83632 0.0
H509 H 0.25378 0.82765 0.82684 0.0
H510 H 0.24231 0.81658 0.77919 0.0
H511 H 0.24872 0.84117 0.58033 0.0
H512 H 0.27706 0.84091 0.58757 0.0
H513 H 0.27327 0.84156 0.76752 0.0
C514 C 0.21115 0.83867 0.75375 0.0
C515 C 0.19917 0.83663 0.7152 0.0
C516 C 0.20248 0.83673 0.65744 0.0
C517 C 0.21752 0.83872 0.63833 0.0
C518 C 0.22911 0.84055 0.6775 0.0
C519 C 0.22608 0.84047 0.73401 0.0
C520 C 0.24062 0.84149 0.76769 0.0
C521 C 0.24101 0.85632 0.80235 0.0
C522 C 0.24264 0.82723 0.80466 0.0
C523 C 0.25232 0.84189 0.72138 0.0
C524 C 0.24552 0.8416 0.66958 0.0
C525 C 0.25418 0.84149 0.62071 0.0
C526 C 0.27023 0.84138 0.62513 0.0
C527 C 0.27731 0.84113 0.67802 0.0
C528 C 0.26818 0.84166 0.72646 0.0
H529 H 0.41648 0.02224 0.02322 0.0
H530 H 0.39787 0.0205 0.85589 0.0
H531 H 0.39373 0.99256 0.86617 0.0
H532 H 0.43637 0.98658 0.0192 0.0
H533 H 0.43206 0.98182 0.09044 0.0
H534 H 0.43343 0.0016 0.06972 0.0
H535 H 0.40613 0.00664 0.10786 0.0
H536 H 0.40467 0.98687 0.12878 0.0
H537 H 0.39041 0.99504 0.08351 0.0
H538 H 0.39242 0.96468 0.89431 0.0
H539 H 0.39297 0.93924 0.93898 0.0
H540 H 0.41183 0.95971 0.08881 0.0
C541 C 0.41155 0.01603 0.98856 0.0
C542 C 0.40756 0.02354 0.93857 0.0
C543 C 0.401 0.01498 0.89454 0.0
C544 C 0.39863 -0.00088 0.89999 0.0
C545 C 0.40278 0.99209 0.94984 0.0
C546 C 0.409 0.0003 0.99345 0.0
C547 C 0.41237 0.99012 0.04286 0.0
C548 C 0.42958 0.99003 0.05631 0.0
C549 C 0.40282 0.99496 0.09374 0.0
C550 C 0.40717 0.97482 0.02019 0.0
C551 C 0.40173 0.97617 0.96642 0.0
C552 C 0.39659 0.96351 0.93647 0.0
C553 C 0.39699 0.9491 0.96221 0.0
C554 C 0.40242 0.94748 0.0175 0.0
C555 C 0.40753 0.96056 0.04669 0.0
H556 H 0.77432 0.83066 0.805 0.0
H557 H 0.7868 0.83301 0.63028 0.0
H558 H 0.75962 0.83088 0.60422 0.0
H559 H 0.74397 0.80278 0.78765 0.0
H560 H 0.73193 0.81136 0.84008 0.0
H561 H 0.75243 0.81301 0.84515 0.0
H562 H 0.75004 0.84262 0.84986 0.0
H563 H 0.72954 0.84106 0.8448 0.0
H564 H 0.73994 0.85262 0.79552 0.0
H565 H 0.73104 0.82966 0.59703 0.0
H566 H 0.70298 0.82813 0.60963 0.0
H567 H 0.70935 0.82552 0.7885 0.0
C568 C 0.77134 0.83071 0.76129 0.0
C569 C 0.78268 0.83202 0.71974 0.0
C570 C 0.77831 0.83195 0.66292 0.0
C571 C 0.7629 0.83078 0.64762 0.0
C572 C 0.75201 0.82954 0.68957 0.0
C573 C 0.75602 0.82937 0.7452 0.0
C574 C 0.74206 0.82782 0.78201 0.0
C575 C 0.74264 0.81285 0.8157 0.0
C576 C 0.74029 0.84187 0.82029 0.0
C577 C 0.7296 0.8273 0.73837 0.0
C578 C 0.73556 0.82838 0.68531 0.0
C579 C 0.72622 0.82867 0.63835 0.0
C580 C 0.71032 0.82784 0.6459 0.0
C581 C 0.70401 0.82659 0.69995 0.0
C582 C 0.71384 0.82626 0.74658 0.0
H583 H 0.89418 0.97928 0.38696 0.0
H584 H 0.88465 0.95237 0.53486 0.0
H585 H 0.88147 0.97605 0.58928 0.0
H586 H 0.91663 0.00703 0.45377 0.0
H587 H 0.90988 0.023 0.41304 0.0
H588 H 0.90975 0.00398 0.38392 0.0
H589 H 0.88073 0.00649 0.3636 0.0
H590 H 0.88078 0.02554 0.39277 0.0
H591 H 0.86778 0.01128 0.41942 0.0
H592 H 0.8814 0.00236 0.6298 0.0
H593 H 0.88505 0.02967 0.6536 0.0
H594 H 0.89458 0.03959 0.47995 0.0
C595 C 0.89115 0.9784 0.43053 0.0
C596 C 0.88966 0.96397 0.45655 0.0
C597 C 0.88593 0.96329 0.51394 0.0
C598 C 0.884 0.97668 0.54527 0.0
C599 C 0.88579 0.99071 0.51869 0.0
C600 C 0.88926 0.9917 0.46265 0.0
C601 C 0.89165 0.00821 0.44533 0.0
C602 C 0.90794 0.0107 0.42271 0.0
C603 C 0.87951 0.01317 0.40276 0.0
C604 C 0.88935 0.01625 0.50064 0.0
C605 C 0.8858 0.00597 0.54228 0.0
C606 C 0.88399 0.01058 0.59745 0.0
C607 C 0.8861 0.02611 0.61059 0.0
C608 C 0.89005 0.03681 0.56872 0.0
C609 C 0.89141 0.03177 0.51293 0.0
H610 H 0.71162 0.14648 0.35254 0.0
H611 H 0.69452 0.13797 0.18591 0.0
H612 H 0.72103 0.13759 0.15025 0.0
H613 H 0.73879 0.17268 0.31446 0.0
H614 H 0.75299 0.16698 0.36469 0.0
H615 H 0.73305 0.16378 0.37883 0.0
H616 H 0.73826 0.1348 0.39361 0.0
H617 H 0.75831 0.13794 0.38001 0.0
H618 H 0.74782 0.12396 0.33996 0.0
H619 H 0.74918 0.14118 0.1312 0.0
H620 H 0.77644 0.14886 0.1305 0.0
H621 H 0.77463 0.15573 0.30928 0.0
C622 C 0.71346 0.14404 0.30886 0.0
C623 C 0.70103 0.14213 0.27209 0.0
C624 C 0.7039 0.1394 0.21489 0.0
C625 C 0.71892 0.13911 0.19427 0.0
C626 C 0.73091 0.14155 0.2314 0.0
C627 C 0.72833 0.14389 0.28756 0.0
C628 C 0.74296 0.14787 0.3178 0.0
C629 C 0.74187 0.16377 0.34553 0.0
C630 C 0.74708 0.13539 0.36035 0.0
C631 C 0.75408 0.14793 0.26961 0.0
C632 C 0.74701 0.14399 0.22025 0.0
C633 C 0.75488 0.14408 0.16974 0.0
C634 C 0.77035 0.14848 0.16971 0.0
C635 C 0.77765 0.15293 0.21977 0.0
C636 C 0.7694 0.15239 0.27028 0.0
H637 H 0.57052 0.01729 0.04097 0.0
H638 H 0.58944 0.01382 0.87428 0.0
H639 H 0.59188 0.98578 0.88579 0.0
H640 H 0.59481 0.9887 0.10308 0.0
H641 H 0.58002 0.98141 0.14815 0.0
H642 H 0.57968 0.00118 0.12664 0.0
H643 H 0.55225 -0.00247 0.08784 0.0
H644 H 0.55251 0.97775 0.10915 0.0
H645 H 0.54864 0.98258 0.03766 0.0
H646 H 0.59168 0.95819 0.91454 0.0
H647 H 0.58989 0.93292 0.95965 0.0
H648 H 0.5717 0.95446 0.10877 0.0
C649 C 0.57517 0.01065 0.00678 0.0
C650 C 0.57975 0.01775 0.9566 0.0
C651 C 0.58587 0.00864 0.91311 0.0
C652 C 0.58728 0.99271 0.91921 0.0
C653 C 0.5826 0.98611 0.96916 0.0
C654 C 0.57676 0.99479 0.01231 0.0
C655 C 0.57273 0.98488 0.06193 0.0
C656 C 0.58239 0.98931 0.11296 0.0
C657 C 0.55551 0.98574 0.07488 0.0
C658 C 0.57716 0.96924 0.03984 0.0
C659 C 0.58276 0.97021 0.98617 0.0
C660 C 0.58737 0.95728 0.95661 0.0
C661 C 0.58626 0.94297 0.98263 0.0
C662 C 0.58067 0.94168 0.03785 0.0
C663 C 0.57609 0.95505 0.06669 0.0
H664 H 0.70729 0.66207 0.63886 0.0
H665 H 0.68718 0.65883 0.80375 0.0
H666 H 0.71287 0.65958 0.84545 0.0
H667 H 0.7398 0.63837 0.66584 0.0
H668 H 0.75276 0.64973 0.6246 0.0
H669 H 0.73272 0.64921 0.60747 0.0
H670 H 0.73143 0.67886 0.61409 0.0
H671 H 0.75149 0.67947 0.63108 0.0
H672 H 0.7377 0.68828 0.67687 0.0
H673 H 0.74094 0.65986 0.86957 0.0
H674 H 0.76924 0.66069 0.87354 0.0
H675 H 0.77079 0.66421 0.69341 0.0
C676 C 0.70827 0.66159 0.68372 0.0
C677 C 0.69516 0.66039 0.71786 0.0
C678 C 0.697 0.65978 0.7765 0.0
C679 C 0.71157 0.66017 0.80074 0.0
C680 C 0.72424 0.66125 0.76592 0.0
C681 C 0.72274 0.66204 0.70871 0.0
C682 C 0.73821 0.66315 0.68073 0.0
C683 C 0.74103 0.64929 0.64241 0.0
C684 C 0.73979 0.67834 0.64882 0.0
C685 C 0.7486 0.66277 0.73109 0.0
C686 C 0.74036 0.66163 0.77987 0.0
C687 C 0.74753 0.66083 0.83162 0.0
C688 C 0.7636 0.66128 0.8335 0.0
C689 C 0.77226 0.66258 0.78392 0.0
C690 C 0.76456 0.66332 0.73222 0.0
H691 H 0.59325 0.4594 0.85759 0.0
H692 H 0.60244 0.43579 0.0128 0.0
H693 H 0.60335 0.46063 0.06199 0.0
H694 H 0.61683 0.4939 0.8865 0.0
H695 H 0.60314 0.5064 0.85359 0.0
H696 H 0.60528 0.48691 0.82975 0.0
H697 H 0.57624 0.48242 0.84497 0.0
H698 H 0.57406 0.5018 0.86948 0.0
H699 H 0.56802 0.48601 0.91257 0.0
H700 H 0.60074 0.48804 0.09596 0.0
H701 H 0.5955 0.51571 0.11043 0.0
H702 H 0.58766 0.5208 0.93302 0.0
C703 C 0.59589 0.45947 0.90159 0.0
C704 C 0.59785 0.44566 0.93122 0.0
C705 C 0.60093 0.44624 0.98914 0.0
C706 C 0.60148 0.4603 0.01751 0.0
C707 C 0.59898 0.47368 0.9874 0.0
C708 C 0.59638 0.47338 0.93062 0.0
C709 C 0.59292 0.48923 0.90861 0.0
C710 C 0.60528 0.49441 0.86717 0.0
C711 C 0.57686 0.48989 0.88239 0.0
C712 C 0.59364 0.49841 0.96197 0.0
C713 C 0.59729 0.48933 0.00699 0.0
C714 C 0.59803 0.49531 0.06087 0.0
C715 C 0.59499 0.51101 0.06876 0.0
C716 C 0.59114 0.52045 0.02301 0.0
C717 C 0.59056 0.51396 0.96907 0.0
H718 H 0.71402 0.33565 0.13392 0.0
H719 H 0.71491 0.35261 0.30382 0.0
H720 H 0.74133 0.36201 0.28899 0.0
H721 H 0.75085 0.32132 0.13144 0.0
H722 H 0.7547 0.32647 0.0602 0.0
H723 H 0.73537 0.32291 0.08225 0.0
H724 H 0.7273 0.34979 0.04689 0.0
H725 H 0.74666 0.35346 0.02475 0.0
H726 H 0.73726 0.36656 0.07171 0.0
H727 H 0.76849 0.36684 0.25858 0.0
H728 H 0.79418 0.36648 0.21601 0.0
H729 H 0.77511 0.34664 0.06558 0.0
C730 C 0.71964 0.34154 0.16794 0.0
C731 C 0.7124 0.34337 0.22013 0.0
C732 C 0.72022 0.35111 0.26345 0.0
C733 C 0.73519 0.35653 0.25532 0.0
C734 C 0.74206 0.35427 0.20351 0.0
C735 C 0.73447 0.34704 0.16048 0.0
C736 C 0.74467 0.345 0.11012 0.0
C737 C 0.74651 0.32791 0.09518 0.0
C738 C 0.73861 0.35426 0.06044 0.0
C739 C 0.75941 0.35172 0.13211 0.0
C740 C 0.75763 0.35719 0.18579 0.0
C741 C 0.76995 0.36283 0.21628 0.0
C742 C 0.7845 0.36254 0.19175 0.0
C743 C 0.78663 0.35661 0.13731 0.0
C744 C 0.77382 0.35152 0.10678 0.0
H745 H 0.91907 0.46734 0.39658 0.0
H746 H 0.90772 0.4633 0.57191 0.0
H747 H 0.90437 0.49143 0.57725 0.0
H748 H 0.94008 0.50275 0.40587 0.0
H749 H 0.9329 0.50995 0.34066 0.0
H750 H 0.93477 0.4896 0.35126 0.0
H751 H 0.90611 0.48597 0.32685 0.0
H752 H 0.90413 0.50632 0.31647 0.0
H753 H 0.89182 0.49655 0.36508 0.0
H754 H 0.9023 0.51984 0.56327 0.0
H755 H 0.90147 0.54665 0.53148 0.0
H756 H 0.91348 0.53198 0.3643 0.0
C757 C 0.916 0.47234 0.43631 0.0
C758 C 0.91373 0.46312 0.48397 0.0
C759 C 0.90954 0.47014 0.53491 0.0
C760 C 0.90761 0.48609 0.53832 0.0
C761 C 0.90982 0.49479 0.49037 0.0
C762 C 0.9139 0.48816 0.44033 0.0
C763 C 0.91531 0.50003 0.39468 0.0
C764 C 0.93175 0.50062 0.37179 0.0
C765 C 0.90365 0.49703 0.34803 0.0
C766 C 0.91142 0.51442 0.42688 0.0
C767 C 0.90833 0.51113 0.48203 0.0
C768 C 0.90467 0.52255 0.5202 0.0
C769 C 0.90425 0.53776 0.50166 0.0
C770 C 0.9074 0.54142 0.44531 0.0
C771 C 0.91092 0.52954 0.40747 0.0
H772 H 0.28499 0.34288 0.36537 0.0
H773 H 0.30694 0.3473 0.20413 0.0
H774 H 0.28175 0.35163 0.16052 0.0
H775 H 0.25409 0.32157 0.32002 0.0
H776 H 0.2403 0.33028 0.36606 0.0
H777 H 0.26015 0.32965 0.38548 0.0
H778 H 0.26034 0.3592 0.39799 0.0
H779 H 0.24042 0.35991 0.37891 0.0
H780 H 0.25422 0.37129 0.34147 0.0
H781 H 0.2537 0.353 0.13331 0.0
H782 H 0.22545 0.35112 0.12585 0.0
H783 H 0.22254 0.34556 0.30499 0.0
C784 C 0.28457 0.34511 0.3211 0.0
C785 C 0.29795 0.34478 0.28828 0.0
C786 C 0.29684 0.34751 0.23024 0.0
C787 C 0.28258 0.35003 0.20505 0.0
C788 C 0.26956 0.34987 0.23847 0.0
C789 C 0.27047 0.34757 0.29531 0.0
C790 C 0.25478 0.34674 0.32146 0.0
C791 C 0.25219 0.33113 0.34989 0.0
C792 C 0.2523 0.36008 0.36237 0.0
C793 C 0.2449 0.34847 0.27031 0.0
C794 C 0.25355 0.35047 0.22282 0.0
C795 C 0.24679 0.35161 0.17035 0.0
C796 C 0.23077 0.35052 0.16646 0.0
C797 C 0.22179 0.34814 0.21473 0.0
C798 C 0.22904 0.34735 0.26716 0.0
H799 H 0.39766 0.52419 0.0995 0.0
H800 H 0.38623 0.54 0.93355 0.0
H801 H 0.38305 0.5132 0.90268 0.0
H802 H 0.42057 0.49431 0.05744 0.0
H803 H 0.41503 0.48126 0.11192 0.0
H804 H 0.41385 0.50159 0.12333 0.0
H805 H 0.38513 0.49895 0.14868 0.0
H806 H 0.38623 0.47854 0.13734 0.0
H807 H 0.37224 0.48979 0.10043 0.0
H808 H 0.38396 0.48478 0.88716 0.0
H809 H 0.3901 0.4571 0.88757 0.0
H810 H 0.40127 0.46009 0.06321 0.0
C811 C 0.39409 0.52203 0.05707 0.0
C812 C 0.39212 0.53416 0.01903 0.0
C813 C 0.3878 0.53086 0.96346 0.0
C814 C 0.38586 0.51568 0.94559 0.0
C815 C 0.38824 0.50395 0.98383 0.0
C816 C 0.39224 0.50695 0.03845 0.0
C817 C 0.39574 0.49234 0.06967 0.0
C818 C 0.41228 0.49238 0.09185 0.0
C819 C 0.38414 0.48976 0.11682 0.0
C820 C 0.39366 0.48072 0.02355 0.0
C821 C 0.38903 0.48757 0.97463 0.0
C822 C 0.38737 0.47923 0.92544 0.0
C823 C 0.39088 0.46352 0.92605 0.0
C824 C 0.39618 0.45645 0.97537 0.0
C825 C 0.39719 0.46514 0.02486 0.0
H826 H 0.27924 0.66945 0.66705 0.0
H827 H 0.30005 0.68443 0.82202 0.0
H828 H 0.27493 0.68355 0.86788 0.0
H829 H 0.2429 0.69071 0.68617 0.0
H830 H 0.23169 0.67558 0.65526 0.0
H831 H 0.25117 0.67862 0.63319 0.0
H832 H 0.25743 0.65027 0.656 0.0
H833 H 0.23805 0.6472 0.67885 0.0
H834 H 0.25376 0.64307 0.72501 0.0
H835 H 0.2483 0.67835 0.8999 0.0
H836 H 0.22103 0.67187 0.91322 0.0
H837 H 0.21716 0.66126 0.73726 0.0
C838 C 0.27847 0.67286 0.71029 0.0
C839 C 0.29167 0.67697 0.74083 0.0
C840 C 0.29015 0.68123 0.79756 0.0
C841 C 0.27591 0.68075 0.82415 0.0
C842 C 0.26324 0.67617 0.79339 0.0
C843 C 0.2643 0.67256 0.73751 0.0
C844 C 0.24893 0.66759 0.71459 0.0
C845 C 0.24335 0.6788 0.66965 0.0
C846 C 0.24959 0.65105 0.69232 0.0
C847 C 0.23921 0.66866 0.76665 0.0
C848 C 0.2477 0.67358 0.81165 0.0
C849 C 0.24144 0.6747 0.86483 0.0
C850 C 0.22599 0.67089 0.87207 0.0
C851 C 0.21697 0.66615 0.82626 0.0
C852 C 0.22372 0.66502 0.77295 0.0
H853 H 0.08185 0.46228 0.61308 0.0
H854 H 0.08732 0.44215 0.44876 0.0
H855 H 0.08596 0.46782 0.40684 0.0
H856 H 0.05509 0.49195 0.57235 0.0
H857 H 0.06311 0.50608 0.61869 0.0
H858 H 0.06416 0.48603 0.63613 0.0
H859 H 0.09364 0.48813 0.64554 0.0
H860 H 0.09267 0.50819 0.62825 0.0
H861 H 0.1047 0.49552 0.58819 0.0
H862 H 0.08477 0.49563 0.38252 0.0
H863 H 0.08388 0.52389 0.37786 0.0
H864 H 0.07891 0.52592 0.55758 0.0
C865 C 0.08272 0.46325 0.56829 0.0
C866 C 0.08469 0.45016 0.53433 0.0
C867 C 0.08579 0.45197 0.47581 0.0
C868 C 0.08501 0.46652 0.45147 0.0
C869 C 0.08308 0.47916 0.4861 0.0
C870 C 0.08193 0.4777 0.5432 0.0
C871 C 0.08016 0.49319 0.57093 0.0
C872 C 0.06471 0.49438 0.60131 0.0
C873 C 0.09359 0.49645 0.61055 0.0
C874 C 0.08063 0.50356 0.5205 0.0
C875 C 0.08229 0.49523 0.47198 0.0
C876 C 0.08339 0.5023 0.4202 0.0
C877 C 0.08288 0.51835 0.41799 0.0
C878 C 0.08128 0.52713 0.46729 0.0
C879 C 0.08003 0.51956 0.51906 0.0
H880 H 0.15222 0.12282 0.97429 0.0
H881 H 0.116 0.15515 0.0143 0.0
H882 H 0.09894 0.14218 0.94776 0.0
H883 H 0.14383 0.12057 0.82717 0.0
H884 H 0.1483 0.10043 0.82215 0.0
H885 H 0.15765 0.11215 0.87365 0.0
H886 H 0.14842 0.09358 0.95077 0.0
H887 H 0.13884 0.08193 0.89955 0.0
H888 H 0.12827 0.08957 0.95776 0.0
H889 H 0.08564 0.12576 0.87904 0.0
H890 H 0.07763 0.10845 0.80354 0.0
H891 H 0.12241 0.08685 0.80545 0.0
C892 C 0.14073 0.12722 0.96874 0.0
C893 C 0.13544 0.13999 -0.00044 0.0
C894 C 0.12034 0.14541 0.99109 0.0
C895 C 0.11051 0.13807 0.95366 0.0
C896 C 0.11597 0.12536 0.92476 0.0
C897 C 0.13077 0.12008 0.93114 0.0
C898 C 0.13383 0.10647 0.89337 0.0
C899 C 0.14666 0.11013 0.8516 0.0
C900 C 0.13756 0.09203 0.92742 0.0
C901 C 0.11845 0.10501 0.86469 0.0
C902 C 0.10829 0.11594 0.88402 0.0
C903 C 0.09347 0.11715 0.86345 0.0
C904 C 0.08902 0.10723 0.82066 0.0
C905 C 0.09939 0.09629 0.79863 0.0
C906 C 0.11419 0.09498 0.82182 0.0
H907 H 0.12174 0.85386 0.98514 0.0
H908 H 0.16238 0.8818 0.96275 0.0
H909 H 0.15235 0.90047 0.03152 0.0
H910 H 0.09514 0.88464 -0.00324 0.0
H911 H 0.08359 0.87525 0.04869 0.0
H912 H 0.09416 0.86399 -0.00112 0.0
H913 H 0.10769 0.84935 0.07877 0.0
H914 H 0.09694 0.86034 0.12874 0.0
H915 H 0.11755 0.86004 0.1321 0.0
H916 H 0.13749 0.91609 0.10323 0.0
H917 H 0.12023 0.92611 0.17647 0.0
H918 H 0.08928 0.88799 0.14762 0.0
C919 C 0.12864 0.86382 0.99496 0.0
C920 C 0.14286 0.86636 0.96872 0.0
C921 C 0.15147 0.87959 0.98262 0.0
C922 C 0.14583 0.8903 0.02131 0.0
C923 C 0.13155 0.88759 0.0454 0.0
C924 C 0.12316 0.8746 0.03301 0.0
C925 C 0.10824 0.87419 0.06469 0.0
C926 C 0.09447 0.87454 0.02486 0.0
C927 C 0.10758 0.86015 0.10338 0.0
C928 C 0.10952 0.88895 0.09725 0.0
C929 C 0.12299 0.8966 0.08554 0.0
C930 C 0.12688 0.91023 0.11248 0.0
C931 C 0.11696 0.91589 0.15374 0.0
C932 C 0.10336 0.90789 0.16751 0.0
C933 C 0.09948 0.89449 0.13768 0.0
H934 H 0.37433 0.91313 0.32402 0.0
H935 H 0.42051 0.89661 0.35017 0.0
H936 H 0.4129 0.8863 0.44171 0.0
H937 H 0.36409 0.9207 0.47597 0.0
H938 H 0.34497 0.91354 0.46522 0.0
H939 H 0.35488 0.92319 0.40953 0.0
H940 H 0.35037 0.89961 0.34601 0.0
H941 H 0.34076 0.88976 0.40154 0.0
H942 H 0.35705 0.88103 0.36807 0.0
H943 H 0.39959 0.87388 0.5203 0.0
H944 H 0.38166 0.8605 0.58244 0.0
H945 H 0.3435 0.8838 0.50364 0.0
C946 C 0.38299 0.90806 0.35046 0.0
C947 C 0.39809 0.90596 0.331 0.0
C948 C 0.40898 0.89856 0.36511 0.0
C949 C 0.40474 0.89267 0.41705 0.0
C950 C 0.38954 0.8942 0.43391 0.0
C951 C 0.37883 0.90182 0.40189 0.0
C952 C 0.36283 0.8998 0.42529 0.0
C953 C 0.35631 0.91523 0.4452 0.0
C954 C 0.35214 0.89209 0.38269 0.0
C955 C 0.36614 0.88928 0.47388 0.0
C956 C 0.38165 0.88648 0.47872 0.0
C957 C 0.38745 0.87623 0.51766 0.0
C958 C 0.37714 0.8686 0.55253 0.0
C959 C 0.36117 0.87112 0.54792 0.0
C960 C 0.35565 0.88175 0.50847 0.0
H961 H 0.3659 0.08222 0.7253 0.0
H962 H 0.38317 0.12288 0.80862 0.0
H963 H 0.36744 0.13915 0.7478 0.0
H964 H 0.36762 0.09728 0.59204 0.0
H965 H 0.35049 0.08817 0.56649 0.0
H966 H 0.3611 0.07953 0.62227 0.0
H967 H 0.33669 0.07955 0.6836 0.0
H968 H 0.32602 0.08832 0.62791 0.0
H969 H 0.32658 0.09728 0.69552 0.0
H970 H 0.35278 0.15116 0.67235 0.0
H971 H 0.34115 0.15822 0.5826 0.0
H972 H 0.33297 0.11016 0.5465 0.0
C973 C 0.36608 0.09453 0.7314 0.0
C974 C 0.37569 0.1013 0.77175 0.0
C975 C 0.3759 0.11746 0.77786 0.0
C976 C 0.3669 0.1268 0.74387 0.0
C977 C 0.35772 0.11984 0.70391 0.0
C978 C 0.35723 0.10409 0.69728 0.0
C979 C 0.3477 0.09971 0.64701 0.0
C980 C 0.35731 0.09065 0.60445 0.0
C981 C 0.3334 0.09068 0.66458 0.0
C982 C 0.34347 0.11547 0.6253 0.0
C983 C 0.34913 0.12689 0.65953 0.0
C984 C 0.34801 0.14236 0.64573 0.0
C985 C 0.3414 0.14626 0.5947 0.0
C986 C 0.33601 0.13474 0.55814 0.0
C987 C 0.33662 0.1192 0.57446 0.0
H988 H 0.86175 0.8627 0.9702 0.0
H989 H 0.81754 0.88507 0.95694 0.0
H990 H 0.82627 0.90524 0.02217 0.0
H991 H 0.8671 0.86987 0.11606 0.0
H992 H 0.88745 0.87266 0.10907 0.0
H993 H 0.87749 0.86033 0.0612 0.0
H994 H 0.88817 0.87632 0.97898 0.0
H995 H 0.89785 0.88894 0.02679 0.0
H996 H 0.88461 0.89667 0.97666 0.0
H997 H 0.84019 0.9232 0.08808 0.0
H998 H 0.85663 0.93519 0.15966 0.0
H999 H 0.8915 0.90079 0.12867 0.0
C1000 C 0.85384 0.87177 0.9813 0.0
C1001 C 0.83897 0.87233 0.95852 0.0
C1002 C 0.82896 0.88437 0.97421 0.0
C1003 C 0.83387 0.89595 0.01075 0.0
C1004 C 0.84878 0.89527 0.0312 0.0
C1005 C 0.85851 0.88334 0.01771 0.0
C1006 C 0.87375 0.88487 0.04689 0.0
C1007 C 0.87661 0.87112 0.08561 0.0
C1008 C 0.88687 0.88682 0.0048 0.0
C1009 C 0.87106 0.89948 0.07942 0.0
C1010 C 0.85669 0.90546 0.06928 0.0
C1011 C 0.85149 0.91864 0.09621 0.0
C1012 C 0.86096 0.92546 0.13643 0.0
C1013 C 0.87536 0.91895 0.14959 0.0
C1014 C 0.88062 0.90612 0.1192 0.0
H1015 H 0.83884 0.12586 0.01049 0.0
H1016 H 0.8769 0.15434 0.0637 0.0
H1017 H 0.89398 0.14057 -0.00081 0.0
H1018 H 0.86051 0.09046 0.99127 0.0
H1019 H 0.85009 0.08485 0.92984 0.0
H1020 H 0.84085 0.09627 0.98265 0.0
H1021 H 0.83407 0.11691 0.90922 0.0
H1022 H 0.8431 0.10547 0.85619 0.0
H1023 H 0.84908 0.12503 0.86704 0.0
H1024 H 0.90677 0.12454 0.92761 0.0
H1025 H 0.91403 0.10881 0.84659 0.0
H1026 H 0.86781 0.0907 0.83808 0.0
C1027 C 0.85078 0.12914 0.00867 0.0
C1028 C 0.85655 0.14115 0.0422 0.0
C1029 C 0.87221 0.14521 0.03833 0.0
C1030 C 0.88204 0.13738 0.00212 0.0
C1031 C 0.87604 0.12553 0.96996 0.0
C1032 C 0.86076 0.1215 0.97238 0.0
C1033 C 0.85711 0.10894 0.93076 0.0
C1034 C 0.85183 0.09426 0.96042 0.0
C1035 C 0.84514 0.11442 0.88829 0.0
C1036 C 0.87267 0.10676 0.90397 0.0
C1037 C 0.88345 0.11631 0.92787 0.0
C1038 C 0.89847 0.11693 0.90875 0.0
C1039 C 0.90249 0.10793 0.86276 0.0
C1040 C 0.89151 0.09848 0.83621 0.0
C1041 C 0.87651 0.09762 0.85808 0.0
H1042 H 0.60253 0.10631 0.74796 0.0
H1043 H 0.63311 0.06751 0.76879 0.0
H1044 H 0.65072 0.07868 0.69904 0.0
H1045 H 0.60669 0.1096 0.6027 0.0
H1046 H 0.60577 0.13025 0.60247 0.0
H1047 H 0.59629 0.11961 0.65645 0.0
H1048 H 0.61128 0.135 0.73099 0.0
H1049 H 0.62092 0.14561 0.67709 0.0
H1050 H 0.6319 0.13539 0.72854 0.0
H1051 H 0.6643 0.09364 0.62352 0.0
H1052 H 0.67189 0.11021 0.54485 0.0
H1053 H 0.63228 0.13908 0.57509 0.0
C1054 C 0.61298 0.10018 0.7382 0.0
C1055 C 0.61647 0.08605 0.76382 0.0
C1056 C 0.63021 0.07836 0.7496 0.0
C1057 C 0.64031 0.08465 0.7103 0.0
C1058 C 0.63651 0.09864 0.68592 0.0
C1059 C 0.62313 0.10627 0.69926 0.0
C1060 C 0.62125 0.12072 0.66526 0.0
C1061 C 0.60664 0.11999 0.6296 0.0
C1062 C 0.62135 0.13503 0.70272 0.0
C1063 C 0.63551 0.1199 0.62979 0.0
C1064 C 0.64427 0.1072 0.64268 0.0
C1065 C 0.6576 0.10369 0.61343 0.0
C1066 C 0.66184 0.11319 0.56892 0.0
C1067 C 0.65272 0.12597 0.55401 0.0
C1068 C 0.6396 0.12951 0.58582 0.0
H1069 H 0.61035 0.84994 0.53811 0.0
H1070 H 0.64639 0.88329 0.56579 0.0
H1071 H 0.6336 0.90122 0.50126 0.0
H1072 H 0.60773 0.85603 0.39476 0.0
H1073 H 0.58732 0.8532 0.39106 0.0
H1074 H 0.59819 0.84406 0.44508 0.0
H1075 H 0.58063 0.85665 0.51922 0.0
H1076 H 0.56985 0.86604 0.4652 0.0
H1077 H 0.57838 0.8772 0.52018 0.0
H1078 H 0.61785 0.91481 0.42956 0.0
H1079 H 0.6027 0.9214 0.3464 0.0
H1080 H 0.5775 0.87877 0.36281 0.0
C1081 C 0.61541 0.86112 0.5312 0.0
C1082 C 0.62927 0.86531 0.55716 0.0
C1083 C 0.63575 0.87988 0.54623 0.0
C1084 C 0.62849 0.89019 0.51014 0.0
C1085 C 0.61481 0.88572 0.48513 0.0
C1086 C 0.60844 0.87144 0.49464 0.0
C1087 C 0.59466 0.86873 0.4578 0.0
C1088 C 0.59714 0.85469 0.41993 0.0
C1089 C 0.58001 0.86706 0.4927 0.0
C1090 C 0.59455 0.88352 0.42489 0.0
C1091 C 0.60601 0.89334 0.44231 0.0
C1092 C 0.60874 0.9073 0.4159 0.0
C1093 C 0.60001 0.91098 0.36883 0.0
C1094 C 0.5889 0.90061 0.34818 0.0
C1095 C 0.58579 0.88701 0.37797 0.0
H1096 H 0.65232 0.62058 0.4262 0.0
H1097 H 0.62821 0.66385 0.41115 0.0
H1098 H 0.61361 0.65359 0.33173 0.0
H1099 H 0.65302 0.61104 0.27336 0.0
H1100 H 0.6499 0.59094 0.28655 0.0
H1101 H 0.66021 0.60245 0.33632 0.0
H1102 H 0.64116 0.59402 0.41297 0.0
H1103 H 0.63057 0.58279 0.36331 0.0
H1104 H 0.62098 0.59739 0.40342 0.0
H1105 H 0.59931 0.63798 0.264 0.0
H1106 H 0.5878 0.61863 0.20263 0.0
H1107 H 0.62081 0.58491 0.25994 0.0
C1108 C 0.64443 0.62806 0.40459 0.0
C1109 C 0.64151 0.64308 0.42418 0.0
C1110 C 0.63069 0.65238 0.39632 0.0
C1111 C 0.62232 0.64663 0.35135 0.0
C1112 C 0.62489 0.63155 0.33476 0.0
C1113 C 0.63583 0.62243 0.35971 0.0
C1114 C 0.63544 0.60626 0.33612 0.0
C1115 C 0.65054 0.60245 0.3063 0.0
C1116 C 0.63182 0.59442 0.38168 0.0
C1117 C 0.62232 0.60767 0.29513 0.0
C1118 C 0.61647 0.62239 0.29515 0.0
C1119 C 0.60393 0.62647 0.26287 0.0
C1120 C 0.59741 0.61533 0.22842 0.0
C1121 C 0.60341 0.60023 0.22629 0.0
C1122 C 0.61596 0.59634 0.26061 0.0
H1123 H 0.62589 0.40328 0.63276 0.0
H1124 H 0.57818 0.39357 0.59741 0.0
H1125 H 0.58566 0.38067 0.51032 0.0
H1126 H 0.63858 0.40804 0.48262 0.0
H1127 H 0.65659 0.39872 0.49638 0.0
H1128 H 0.64738 0.40983 0.55013 0.0
H1129 H 0.64837 0.38628 0.61548 0.0
H1130 H 0.65727 0.375 0.56178 0.0
H1131 H 0.63974 0.36849 0.5935 0.0
H1132 H 0.59812 0.36503 0.43793 0.0
H1133 H 0.61488 0.34961 0.3775 0.0
H1134 H 0.65485 0.36943 0.45707 0.0
C1135 C 0.61701 0.39902 0.60541 0.0
C1136 C 0.60145 0.39953 0.62144 0.0
C1137 C 0.59015 0.39338 0.58563 0.0
C1138 C 0.59429 0.38603 0.5361 0.0
C1139 C 0.60976 0.385 0.52283 0.0
C1140 C 0.62097 0.39154 0.55578 0.0
C1141 C 0.63683 0.38746 0.53457 0.0
C1142 C 0.64535 0.40187 0.51473 0.0
C1143 C 0.64609 0.37879 0.57899 0.0
C1144 C 0.63274 0.37709 0.48611 0.0
C1145 C 0.61706 0.37595 0.48001 0.0
C1146 C 0.61042 0.36609 0.44139 0.0
C1147 C 0.62004 0.35727 0.40764 0.0
C1148 C 0.63616 0.35837 0.41249 0.0
C1149 C 0.64257 0.36851 0.45202 0.0
H1150 H 0.86824 0.40231 0.66798 0.0
H1151 H 0.89053 0.36159 0.60248 0.0
H1152 H 0.87514 0.34546 0.66515 0.0
H1153 H 0.86757 0.39048 0.80716 0.0
H1154 H 0.84914 0.39871 0.8229 0.0
H1155 H 0.86078 0.40688 0.76884 0.0
H1156 H 0.83843 0.40349 0.69902 0.0
H1157 H 0.82679 0.3951 0.75292 0.0
H1158 H 0.8301 0.38477 0.68904 0.0
H1159 H 0.85959 0.33398 0.7407 0.0
H1160 H 0.84567 0.32812 0.82752 0.0
H1161 H 0.83254 0.3759 0.84248 0.0
C1162 C 0.86974 0.38999 0.66642 0.0
C1163 C 0.88057 0.38321 0.63028 0.0
C1164 C 0.8823 0.36705 0.62979 0.0
C1165 C 0.87353 0.35777 0.66496 0.0
C1166 C 0.86298 0.36478 0.70011 0.0
C1167 C 0.86103 0.38051 0.70122 0.0
C1168 C 0.84971 0.38519 0.7459 0.0
C1169 C 0.85726 0.39594 0.78873 0.0
C1170 C 0.83541 0.39257 0.72016 0.0
C1171 C 0.84602 0.36968 0.77091 0.0
C1172 C 0.85366 0.35804 0.74334 0.0
C1173 C 0.85328 0.34292 0.76196 0.0
C1174 C 0.84533 0.33969 0.81118 0.0
C1175 C 0.83782 0.35151 0.84092 0.0
C1176 C 0.83776 0.36658 0.81949 0.0
H1177 H 0.87147 0.5914 0.171 0.0
H1178 H 0.91429 0.61654 0.16442 0.0
H1179 H 0.90445 0.63185 0.08616 0.0
H1180 H 0.86358 0.59187 0.01809 0.0
H1181 H 0.84332 0.59449 0.02859 0.0
H1182 H 0.85444 0.58407 0.07908 0.0
H1183 H 0.84478 0.60245 0.15617 0.0
H1184 H 0.83389 0.61313 0.10585 0.0
H1185 H 0.84777 0.62281 0.14881 0.0
H1186 H 0.88942 0.64621 0.01701 0.0
H1187 H 0.87066 0.6576 0.95325 0.0
H1188 H 0.83702 0.62361 0.00343 0.0
C1189 C 0.87894 0.59976 0.1517 0.0
C1190 C 0.8937 0.6027 0.17325 0.0
C1191 C 0.90299 0.61405 0.1482 0.0
C1192 C 0.89749 0.62283 0.10386 0.0
C1193 C 0.88267 0.62012 0.0851 0.0
C1194 C 0.87355 0.60875 0.10752 0.0
C1195 C 0.8577 0.60896 0.08163 0.0
C1196 C 0.85458 0.59395 0.04995 0.0
C1197 C 0.84531 0.61202 0.12576 0.0
C1198 C 0.85929 0.62241 0.04207 0.0
C1199 C 0.87383 0.6286 0.04486 0.0
C1200 C 0.87805 0.64136 0.01386 0.0
C1201 C 0.86725 0.6478 0.97796 0.0
C1202 C 0.85235 0.6415 0.97321 0.0
C1203 C 0.84829 0.6287 0.0062 0.0
H1204 H 0.33629 0.36472 0.59094 0.0
H1205 H 0.35128 0.31773 0.61378 0.0
H1206 H 0.36399 0.32507 0.70132 0.0
H1207 H 0.36951 0.38147 0.62869 0.0
H1208 H 0.36162 0.39773 0.66513 0.0
H1209 H 0.35073 0.38853 0.61116 0.0
H1210 H 0.32823 0.38401 0.67934 0.0
H1211 H 0.33891 0.39353 0.73347 0.0
H1212 H 0.33169 0.37441 0.74449 0.0
H1213 H 0.37899 0.33804 0.7747 0.0
H1214 H 0.39339 0.35554 0.83587 0.0
H1215 H 0.36871 0.39433 0.76723 0.0
C1216 C 0.34165 0.35586 0.61571 0.0
C1217 C 0.34271 0.34063 0.59594 0.0
C1218 C 0.35026 0.32944 0.62845 0.0
C1219 C 0.35751 0.3335 0.67822 0.0
C1220 C 0.35701 0.34878 0.69504 0.0
C1221 C 0.34904 0.35977 0.66543 0.0
C1222 C 0.35168 0.37564 0.68945 0.0
C1223 C 0.35881 0.38647 0.64602 0.0
C1224 C 0.33674 0.38229 0.71311 0.0
C1225 C 0.36292 0.37193 0.73543 0.0
C1226 C 0.36571 0.35634 0.73819 0.0
C1227 C 0.37664 0.35023 0.7739 0.0
C1228 C 0.38487 0.36027 0.80809 0.0
C1229 C 0.38212 0.37627 0.80641 0.0
C1230 C 0.3709 0.38213 0.76988 0.0
H1231 H 0.36404 0.6468 0.46303 0.0
H1232 H 0.32175 0.62155 0.4868 0.0
H1233 H 0.33078 0.60177 0.42042 0.0
H1234 H 0.36797 0.63895 0.31568 0.0
H1235 H 0.38852 0.6376 0.31969 0.0
H1236 H 0.37827 0.6497 0.36766 0.0
H1237 H 0.39095 0.6353 0.44992 0.0
H1238 H 0.40093 0.6229 0.40217 0.0
H1239 H 0.38882 0.61479 0.45526 0.0
H1240 H 0.34523 0.58416 0.35466 0.0
H1241 H 0.36207 0.57216 0.28432 0.0
H1242 H 0.39463 0.60934 0.30448 0.0
C1243 C 0.35656 0.63723 0.45375 0.0
C1244 C 0.34219 0.63569 0.47997 0.0
C1245 C 0.33275 0.623 0.46676 0.0
C1246 C 0.33786 0.61165 0.42959 0.0
C1247 C 0.35235 0.61326 0.40596 0.0
C1248 C 0.36143 0.62589 0.41678 0.0
C1249 C 0.37641 0.62513 0.38543 0.0
C1250 C 0.37787 0.63864 0.34469 0.0
C1251 C 0.39008 0.62449 0.42562 0.0
C1252 C 0.37438 0.61008 0.35511 0.0
C1253 C 0.36052 0.60329 0.36792 0.0
C1254 C 0.35608 0.58939 0.34424 0.0
C1255 C 0.36579 0.58259 0.30471 0.0
C1256 C 0.37967 0.5898 0.28903 0.0
C1257 C 0.38414 0.60349 0.31583 0.0
H1258 H 0.13722 0.6446 0.07739 0.0
H1259 H 0.17598 0.61405 0.05552 0.0
H1260 H 0.16556 0.59693 0.12811 0.0
H1261 H 0.13415 0.63978 0.22884 0.0
H1262 H 0.11355 0.6408 0.22762 0.0
H1263 H 0.1246 0.65093 0.17618 0.0
H1264 H 0.10952 0.63703 0.09817 0.0
H1265 H 0.09863 0.62664 0.14931 0.0
H1266 H 0.10914 0.61636 0.09657 0.0
H1267 H 0.14964 0.582 0.19646 0.0
H1268 H 0.13126 0.57207 0.26573 0.0
H1269 H 0.10351 0.61298 0.24572 0.0
C1270 C 0.14366 0.63445 0.08857 0.0
C1271 C 0.15741 0.63063 0.06089 0.0
C1272 C 0.16549 0.61724 0.07653 0.0
C1273 C 0.1596 0.6074 0.11741 0.0
C1274 C 0.14576 0.61125 0.14265 0.0
C1275 C 0.13806 0.62462 0.12969 0.0
C1276 C 0.12341 0.6261 0.16288 0.0
C1277 C 0.12397 0.64024 0.20116 0.0
C1278 C 0.10935 0.62656 0.12442 0.0
C1279 C 0.12394 0.61136 0.19593 0.0
C1280 C 0.13685 0.60289 0.18329 0.0
C1281 C 0.13958 0.58861 0.20719 0.0
C1282 C 0.12901 0.58302 0.24613 0.0
C1283 C 0.116 0.59178 0.26113 0.0
C1284 C 0.1134 0.60606 0.23522 0.0
H1285 H 0.11865 0.41235 0.83065 0.0
H1286 H 0.07512 0.38936 0.85374 0.0
H1287 H 0.08501 0.37702 0.9387 0.0
H1288 H 0.1407 0.38151 0.86102 0.0
H1289 H 0.1558 0.39144 0.89724 0.0
H1290 H 0.14462 0.40138 0.84594 0.0
H1291 H 0.13722 0.42219 0.91805 0.0
H1292 H 0.14872 0.41253 0.96945 0.0
H1293 H 0.12885 0.41655 0.98347 0.0
H1294 H 0.10048 0.36402 0.00986 0.0
H1295 H 0.12014 0.35239 0.06927 0.0
H1296 H 0.15432 0.38311 -1e-05 0.0
C1297 C 0.111 0.40531 0.85523 0.0
C1298 C 0.09604 0.40199 0.83651 0.0
C1299 C 0.08653 0.39219 0.86808 0.0
C1300 C 0.09206 0.38512 0.91624 0.0
C1301 C 0.10714 0.38795 0.93201 0.0
C1302 C 0.11645 0.39797 0.90303 0.0
C1303 C 0.13271 0.39757 0.92514 0.0
C1304 C 0.14412 0.39268 0.87961 0.0
C1305 C 0.13713 0.41314 0.95055 0.0
C1306 C 0.13119 0.38536 0.96957 0.0
C1307 C 0.11628 0.38013 0.97308 0.0
C1308 C 0.11213 0.36822 0.00832 0.0
C1309 C 0.12344 0.3616 0.04158 0.0
C1310 C 0.13879 0.36685 0.03937 0.0
C1311 C 0.14268 0.37891 0.00279 0.0
H1312 H 0.15219 0.28506 0.22705 0.0
H1313 H 0.17841 0.29642 0.07976 0.0
H1314 H 0.1775 0.26909 0.05021 0.0
H1315 H 0.17054 0.25214 0.25888 0.0
H1316 H 0.1539 0.24197 0.28339 0.0
H1317 H 0.15439 0.26252 0.28659 0.0
H1318 H 0.12932 0.26397 0.2291 0.0
H1319 H 0.12868 0.24333 0.22598 0.0
H1320 H 0.12822 0.25438 0.16273 0.0
H1321 H 0.17658 0.23943 0.04528 0.0
H1322 H 0.17574 0.21146 0.06592 0.0
H1323 H 0.15017 0.221 0.21649 0.0
C1324 C 0.15747 0.28188 0.18791 0.0
C1325 C 0.16542 0.29274 0.15575 0.0
C1326 C 0.17217 0.2882 0.10476 0.0
C1327 C 0.17169 0.27273 0.08774 0.0
C1328 C 0.16415 0.26215 0.12172 0.0
C1329 C 0.15698 0.26668 0.17038 0.0
C1330 C 0.15078 0.25324 0.20258 0.0
C1331 C 0.15783 0.25243 0.26127 0.0
C1332 C 0.13321 0.25376 0.20522 0.0
C1333 C 0.15624 0.24028 0.16617 0.0
C1334 C 0.16367 0.24548 0.11903 0.0
C1335 C 0.17055 0.23528 0.08161 0.0
C1336 C 0.17003 0.21946 0.09352 0.0
C1337 C 0.16297 0.21419 0.14291 0.0
C1338 C 0.1557 0.22474 0.17852 0.0
H1339 H 0.95382 0.90394 0.40675 0.0
H1340 H 0.94534 0.9319 0.26078 0.0
H1341 H 0.97326 0.93283 0.2423 0.0
H1342 H 0.98652 0.92326 0.45263 0.0
H1343 H -0.00399 0.90617 0.47679 0.0
H1344 H 0.97545 0.90697 0.47535 0.0
H1345 H 0.97472 0.88245 0.41414 0.0
H1346 H -0.0047 0.88154 0.41554 0.0
H1347 H 0.98536 0.88194 0.34989 0.0
H1348 H 0.00283 0.93147 0.24378 0.0
H1349 H 0.03042 0.92803 0.26541 0.0
H1350 H 0.01806 0.90115 0.41048 0.0
C1351 C 0.95773 0.91019 0.37054 0.0
C1352 C 0.94737 0.91787 0.33528 0.0
C1353 C 0.95307 0.92589 0.28836 0.0
C1354 C 0.9689 0.92648 0.27755 0.0
C1355 C 0.9788 0.9189 0.31385 0.0
C1356 C 0.97333 0.91086 0.35922 0.0
C1357 C 0.98611 0.90408 0.39333 0.0
C1358 C 0.98601 0.91051 0.45303 0.0
C1359 C 0.98532 0.88646 0.39318 0.0
C1360 C -0.00028 0.90979 0.36085 0.0
C1361 C -0.00458 0.91821 0.31483 0.0
C1362 C 0.00629 0.92482 0.27959 0.0
C1363 C 0.02191 0.92282 0.29215 0.0
C1364 C 0.02641 0.91439 0.33977 0.0
C1365 C 0.01508 0.90774 0.3739 0.0
H1366 H 0.31719 0.78145 0.62268 0.0
H1367 H 0.36402 0.79748 0.62037 0.0
H1368 H 0.37281 0.77149 0.59373 0.0
H1369 H 0.32265 0.74868 0.68554 0.0
H1370 H 0.30937 0.73699 0.64682 0.0
H1371 H 0.30651 0.75731 0.65094 0.0
H1372 H 0.30646 0.75918 0.54341 0.0
H1373 H 0.3092 0.73871 0.53883 0.0
H1374 H 0.32231 0.7515 0.50424 0.0
H1375 H 0.37667 0.74326 0.59616 0.0
H1376 H 0.37505 0.71546 0.61595 0.0
H1377 H 0.3257 0.71767 0.60533 0.0
C1378 C 0.3292 0.77957 0.61375 0.0
C1379 C 0.33997 0.7913 0.62268 0.0
C1380 C 0.35565 0.78857 0.6125 0.0
C1381 C 0.3607 0.77387 0.59741 0.0
C1382 C 0.34984 0.76226 0.5912 0.0
C1383 C 0.33434 0.76507 0.59733 0.0
C1384 C 0.32515 0.75038 0.59481 0.0
C1385 C 0.31537 0.74822 0.64767 0.0
C1386 C 0.31519 0.74992 0.54217 0.0
C1387 C 0.33796 0.73875 0.59146 0.0
C1388 C 0.35213 0.74581 0.58864 0.0
C1389 C 0.36568 0.73755 0.59566 0.0
C1390 C 0.36469 0.7218 0.60704 0.0
C1391 C 0.35028 0.71451 0.6102 0.0
C1392 C 0.33684 0.72296 0.60041 0.0
H1393 H 0.46487 0.09969 0.85855 0.0
H1394 H 0.45418 0.05661 0.77889 0.0
H1395 H 0.48081 0.05473 0.74456 0.0
H1396 H 0.49817 0.11185 0.75524 0.0
H1397 H 0.50837 0.11985 0.81361 0.0
H1398 H 0.48777 0.12101 0.8109 0.0
H1399 H 0.48624 0.10804 0.90752 0.0
H1400 H 0.5066 0.10666 0.91028 0.0
H1401 H 0.49514 0.08957 0.9175 0.0
H1402 H 0.50912 0.05319 0.74753 0.0
H1403 H 0.53534 0.05241 0.78645 0.0
H1404 H 0.52792 0.09641 0.86466 0.0
C1405 C 0.46801 0.09041 0.83078 0.0
C1406 C 0.45765 0.07843 0.82038 0.0
C1407 C 0.46198 0.06607 0.78588 0.0
C1408 C 0.47709 0.06494 0.76634 0.0
C1409 C 0.48753 0.07642 0.78102 0.0
C1410 C 0.48302 0.08919 0.81135 0.0
C1411 C 0.49663 0.09828 0.83184 0.0
C1412 C 0.4978 0.11366 0.80103 0.0
C1413 C 0.49611 0.10074 0.89549 0.0
C1414 C 0.50945 0.08764 0.81472 0.0
C1415 C 0.50413 0.07547 0.78307 0.0
C1416 C 0.51352 0.06295 0.77032 0.0
C1417 C 0.5284 0.06256 0.79249 0.0
C1418 C 0.53349 0.07448 0.82766 0.0
C1419 C 0.52422 0.08741 0.83661 0.0
H1420 H 0.13453 0.77328 0.79493 0.0
H1421 H 0.16524 0.78974 0.9233 0.0
H1422 H 0.16664 0.76343 0.96239 0.0
H1423 H 0.11478 0.74315 0.88036 0.0
H1424 H 0.11379 0.73049 0.82114 0.0
H1425 H 0.11288 0.75096 0.81132 0.0
H1426 H 0.13577 0.74946 0.74275 0.0
H1427 H 0.13675 0.72909 0.75235 0.0
H1428 H 0.15341 0.74075 0.76534 0.0
H1429 H 0.16795 0.73444 0.97655 0.0
H1430 H 0.16948 0.70629 0.96285 0.0
H1431 H 0.13775 0.70973 0.82501 0.0
C1432 C 0.14128 0.77145 0.83211 0.0
C1433 C 0.14983 0.78346 0.85603 0.0
C1434 C 0.15852 0.78066 0.9046 0.0
C1435 C 0.15934 0.76578 0.92707 0.0
C1436 C 0.15114 0.75402 0.90104 0.0
C1437 C 0.14212 0.75683 0.85493 0.0
C1438 C 0.13577 0.74224 0.83031 0.0
C1439 C 0.11826 0.74168 0.83616 0.0
C1440 C 0.14074 0.74028 0.76913 0.0
C1441 C 0.14334 0.73061 0.8676 0.0
C1442 C 0.15188 0.73753 0.9091 0.0
C1443 C 0.16103 0.72893 0.94502 0.0
C1444 C 0.16181 0.71295 0.93705 0.0
C1445 C 0.15371 0.70591 0.89288 0.0
C1446 C 0.14399 0.71483 0.8593 0.0
H1447 H 0.45777 0.90456 0.15261 0.0
H1448 H 0.4491 0.86728 0.03685 0.0
H1449 H 0.47639 0.8604 0.03867 0.0
H1450 H 0.4923 0.9163 0.09179 0.0
H1451 H 0.50177 0.92113 0.15605 0.0
H1452 H 0.48124 0.92206 0.15163 0.0
H1453 H 0.47895 0.90362 0.23562 0.0
H1454 H 0.49951 0.90261 0.24025 0.0
H1455 H 0.48844 0.88527 0.23331 0.0
H1456 H 0.50436 0.85879 0.04572 0.0
H1457 H 0.53205 0.86308 0.05498 0.0
H1458 H 0.52341 0.90154 0.16562 0.0
C1459 C 0.4616 0.89478 0.12857 0.0
C1460 C 0.45132 0.88641 0.09477 0.0
C1461 C 0.45678 0.87387 0.06294 0.0
C1462 C 0.47225 0.8698 0.06397 0.0
C1463 C 0.48213 0.87839 0.09697 0.0
C1464 C 0.47711 0.89063 0.12865 0.0
C1465 C 0.49044 0.8987 0.15661 0.0
C1466 C 0.4915 0.91554 0.13788 0.0
C1467 C 0.48926 0.89747 0.22023 0.0
C1468 C 0.50372 0.88931 0.13441 0.0
C1469 C 0.49857 0.87753 0.10073 0.0
C1470 C 0.50856 0.86784 0.07251 0.0
C1471 C 0.52427 0.87042 0.0779 0.0
C1472 C 0.52987 0.88261 0.11115 0.0
C1473 C 0.51945 0.89197 0.14071 0.0
H1474 H 0.33763 0.20821 0.2752 0.0
H1475 H 0.3229 0.19627 0.44217 0.0
H1476 H 0.32153 0.22385 0.46621 0.0
H1477 H 0.36172 0.23877 0.31338 0.0
H1478 H 0.35707 0.25033 0.25367 0.0
H1479 H 0.35593 0.22977 0.2492 0.0
H1480 H 0.32763 0.23174 0.21753 0.0
H1481 H 0.32869 0.25234 0.22177 0.0
H1482 H 0.31412 0.24216 0.25987 0.0
H1483 H 0.32289 0.25302 0.47237 0.0
H1484 H 0.32699 0.28091 0.4601 0.0
H1485 H 0.34091 0.27285 0.28908 0.0
C1486 C 0.33398 0.21132 0.31676 0.0
C1487 C 0.33036 0.20006 0.35678 0.0
C1488 C 0.3257 0.2047 0.41075 0.0
C1489 C 0.32488 0.22033 0.42477 0.0
C1490 C 0.32869 0.23111 0.3843 0.0
C1491 C 0.33311 0.22676 0.33137 0.0
C1492 C 0.33713 0.24043 0.2958 0.0
C1493 C 0.35396 0.23978 0.27694 0.0
C1494 C 0.32624 0.24174 0.2458 0.0
C1495 C 0.3345 0.2532 0.33713 0.0
C1496 C 0.32954 0.24769 0.38789 0.0
C1497 C 0.32669 0.25746 0.43269 0.0
C1498 C 0.32906 0.27327 0.42534 0.0
C1499 C 0.33429 0.27907 0.37366 0.0
C1500 C 0.33691 0.26883 0.32915 0.0
H1501 H 0.9608 0.07258 0.54743 0.0
H1502 H 0.95303 0.0769 0.72508 0.0
H1503 H 0.98079 0.07317 0.74173 0.0
H1504 H 0.99112 0.04367 0.55486 0.0
H1505 H 0.00132 0.05202 0.49718 0.0
H1506 H 0.98078 0.0535 0.50074 0.0
H1507 H 0.98278 0.08311 0.49294 0.0
H1508 H 0.00328 0.08172 0.48946 0.0
H1509 H 0.99442 0.0935 0.54209 0.0
H1510 H 0.01005 0.07135 0.73683 0.0
H1511 H 0.03752 0.07147 0.71105 0.0
H1512 H 0.02494 0.06806 0.53681 0.0
C1513 C 0.96484 0.07258 0.59001 0.0
C1514 C 0.95478 0.07508 0.63497 0.0
C1515 C 0.96056 0.07495 0.69 0.0
C1516 C 0.97629 0.07283 0.69982 0.0
C1517 C 0.98594 0.07067 0.65417 0.0
C1518 C 0.98035 0.07041 0.60042 0.0
C1519 C 0.99297 0.06875 0.55805 0.0
C1520 C 0.99145 0.05358 0.52583 0.0
C1521 C 0.99338 0.0826 0.51834 0.0
C1522 C 0.00667 0.06856 0.5961 0.0
C1523 C 0.00249 0.06953 0.65144 0.0
C1524 C 0.01342 0.07038 0.69365 0.0
C1525 C 0.02898 0.07045 0.67863 0.0
C1526 C 0.03338 0.06977 0.62191 0.0
C1527 C 0.02201 0.06854 0.58056 0.0
H1528 H 0.84663 0.71848 0.74758 0.0
H1529 H 0.8229 0.71137 0.90383 0.0
H1530 H 0.82675 0.73881 0.92768 0.0
H1531 H 0.87453 0.74773 0.80002 0.0
H1532 H 0.87369 0.7581 0.73529 0.0
H1533 H 0.87126 0.73757 0.73576 0.0
H1534 H 0.84525 0.74052 0.68496 0.0
H1535 H 0.84759 0.76097 0.68432 0.0
H1536 H 0.83069 0.75265 0.71492 0.0
H1537 H 0.82956 0.7679 0.92606 0.0
H1538 H 0.83112 0.79527 0.8996 0.0
H1539 H 0.8539 0.78242 0.74602 0.0
C1540 C 0.84252 0.7226 0.7874 0.0
C1541 C 0.83441 0.71289 0.82379 0.0
C1542 C 0.82922 0.71867 0.87552 0.0
C1543 C 0.83139 0.7342 0.88939 0.0
C1544 C 0.83908 0.74361 0.8516 0.0
C1545 C 0.84475 0.7379 0.802 0.0
C1546 C 0.85139 0.75042 0.76604 0.0
C1547 C 0.86875 0.74833 0.75889 0.0
C1548 C 0.84323 0.75118 0.70927 0.0
C1549 C 0.84782 0.76424 0.80157 0.0
C1550 C 0.84095 0.76016 0.85124 0.0
C1551 C 0.83525 0.7712 0.8879 0.0
C1552 C 0.83619 0.78673 0.87255 0.0
C1553 C 0.84266 0.791 0.82075 0.0
C1554 C 0.84901 0.77958 0.78611 0.0
H1555 H 0.67828 0.20452 0.30774 0.0
H1556 H 0.64923 0.20344 0.45352 0.0
H1557 H 0.65265 0.23159 0.46509 0.0
H1558 H 0.70451 0.23638 0.35711 0.0
H1559 H 0.70593 0.24378 0.28734 0.0
H1560 H 0.70367 0.22347 0.29854 0.0
H1561 H 0.67977 0.22348 0.23468 0.0
H1562 H 0.68187 0.24369 0.22358 0.0
H1563 H 0.6641 0.23623 0.25036 0.0
H1564 H 0.65536 0.26044 0.44826 0.0
H1565 H 0.65738 0.28634 0.40635 0.0
H1566 H 0.68543 0.26759 0.27394 0.0
C1567 C 0.67306 0.21017 0.34315 0.0
C1568 C 0.66354 0.20199 0.37981 0.0
C1569 C 0.65672 0.20961 0.42545 0.0
C1570 C 0.65861 0.22555 0.43223 0.0
C1571 C 0.66767 0.23346 0.3938 0.0
C1572 C 0.67502 0.22587 0.35079 0.0
C1573 C 0.68278 0.23687 0.31145 0.0
C1574 C 0.70026 0.23501 0.31378 0.0
C1575 C 0.67675 0.23495 0.25155 0.0
C1576 C 0.67784 0.25192 0.33667 0.0
C1577 C 0.6694 0.24986 0.38477 0.0
C1578 C 0.66228 0.26219 0.41147 0.0
C1579 C 0.66349 0.27687 0.38745 0.0
C1580 C 0.67156 0.27894 0.33691 0.0
C1581 C 0.67925 0.26638 0.31274 0.0
H1582 H 0.83043 0.29343 0.17415 0.0
H1583 H 0.83072 0.29274 0.99368 0.0
H1584 H 0.82787 0.26442 0.99531 0.0
H1585 H 0.8517 0.25936 0.19585 0.0
H1586 H 0.84061 0.2536 0.25554 0.0
H1587 H 0.8426 0.27362 0.23901 0.0
H1588 H 0.81305 0.27645 0.23654 0.0
H1589 H 0.81097 0.25642 0.25295 0.0
H1590 H 0.80198 0.26414 0.19164 0.0
H1591 H 0.82606 0.23563 0.01876 0.0
H1592 H 0.82439 0.20976 0.06133 0.0
H1593 H 0.82423 0.23067 0.22532 0.0
C1594 C 0.82995 0.28737 0.13481 0.0
C1595 C 0.83093 0.29526 0.08378 0.0
C1596 C 0.83001 0.28689 0.0333 0.0
C1597 C 0.82841 0.27083 0.03385 0.0
C1598 C 0.82754 0.26342 0.08518 0.0
C1599 C 0.82816 0.27151 0.13463 0.0
C1600 C 0.82684 0.2611 0.18443 0.0
C1601 C 0.8413 0.26197 0.22082 0.0
C1602 C 0.81235 0.26475 0.21836 0.0
C1603 C 0.82555 0.24579 0.15553 0.0
C1604 C 0.82602 0.24724 0.09833 0.0
C1605 C 0.82555 0.23441 0.06351 0.0
C1606 C 0.82461 0.21978 0.08799 0.0
C1607 C 0.82405 0.21818 0.14662 0.0
C1608 C 0.82444 0.23144 0.18036 0.0
H1609 H 0.65648 0.71014 0.60426 0.0
H1610 H 0.6099 0.70262 0.65943 0.0
H1611 H 0.6049 0.73046 0.65448 0.0
H1612 H 0.66291 0.74033 0.68892 0.0
H1613 H 0.67493 0.75116 0.64237 0.0
H1614 H 0.67371 0.7307 0.63527 0.0
H1615 H 0.66548 0.73378 0.53234 0.0
H1616 H 0.66668 0.75434 0.5392 0.0
H1617 H 0.64919 0.74556 0.51546 0.0
H1618 H 0.60613 0.7587 0.65978 0.0
H1619 H 0.6141 0.78522 0.68214 0.0
H1620 H 0.66021 0.77483 0.62843 0.0
C1621 C 0.64507 0.71437 0.61294 0.0
C1622 C 0.63346 0.70434 0.63111 0.0
C1623 C 0.61885 0.7102 0.64475 0.0
C1624 C 0.61589 0.72596 0.64167 0.0
C1625 C 0.62772 0.7357 0.62536 0.0
C1626 C 0.64206 0.73014 0.61137 0.0
C1627 C 0.65349 0.74309 0.60487 0.0
C1628 C 0.66704 0.7412 0.64528 0.0
C1629 C 0.65903 0.74426 0.54435 0.0
C1630 C 0.64356 0.75668 0.62037 0.0
C1631 C 0.6286 0.75222 0.63021 0.0
C1632 C 0.61767 0.76243 0.65072 0.0
C1633 C 0.62225 0.77744 0.66319 0.0
C1634 C 0.6376 0.78199 0.6554 0.0
C1635 C 0.64828 0.77164 0.63259 0.0
H1636 H 0.53403 0.42365 0.90046 0.0
H1637 H 0.5345 0.39781 0.74668 0.0
H1638 H 0.50626 0.40065 0.73949 0.0
H1639 H 0.50322 0.40763 0.95744 0.0
H1640 H 0.49554 0.42466 0.98959 0.0
H1641 H 0.51566 0.42335 0.97579 0.0
H1642 H 0.51456 0.44846 0.91829 0.0
H1643 H 0.49434 0.44995 0.93235 0.0
H1644 H 0.50117 0.45008 0.86159 0.0
H1645 H 0.47768 0.40202 0.76063 0.0
H1646 H 0.45212 0.40267 0.80547 0.0
H1647 H 0.47123 0.42876 0.94257 0.0
C1648 C 0.5282 0.41906 0.86433 0.0
C1649 C 0.53622 0.41057 0.82407 0.0
C1650 C 0.5284 0.40452 0.77752 0.0
C1651 C 0.51242 0.40609 0.7732 0.0
C1652 C 0.50468 0.4141 0.81502 0.0
C1653 C 0.51243 0.42078 0.85903 0.0
C1654 C 0.50161 0.42747 0.9015 0.0
C1655 C 0.50416 0.42034 0.95943 0.0
C1656 C 0.503 0.44503 0.90351 0.0
C1657 C 0.48652 0.4226 0.87672 0.0
C1658 C 0.48838 0.41515 0.82635 0.0
C1659 C 0.47606 0.40819 0.79927 0.0
C1660 C 0.46159 0.40859 0.82503 0.0
C1661 C 0.45971 0.41574 0.87752 0.0
C1662 C 0.47227 0.42324 0.90234 0.0
H1663 H 0.96342 0.60452 0.46475 0.0
H1664 H 0.95686 0.59037 0.29321 0.0
H1665 H 0.98495 0.58932 0.2805 0.0
H1666 H -0.00155 0.6275 0.44286 0.0
H1667 H 0.00656 0.62123 0.50788 0.0
H1668 H 0.9861 0.62291 0.50059 0.0
H1669 H 0.98295 0.59456 0.53097 0.0
H1670 H 0.00334 0.59278 0.53814 0.0
H1671 H 0.99304 0.57975 0.4935 0.0
H1672 H 0.01391 0.58735 0.29006 0.0
H1673 H 0.04069 0.58408 0.32165 0.0
H1674 H 0.02751 0.5992 0.48698 0.0
C1675 C 0.96782 0.60152 0.42405 0.0
C1676 C 0.95791 0.59758 0.37992 0.0
C1677 C 0.96422 0.5935 0.32761 0.0
C1678 C 0.98016 0.59291 0.31996 0.0
C1679 C 0.9896 0.59652 0.3649 0.0
C1680 C 0.98361 0.60081 0.41584 0.0
C1681 C -0.004 0.60287 0.45899 0.0
C1682 C -0.00318 0.61963 0.47872 0.0
C1683 C 0.99369 0.59183 0.50826 0.0
C1684 C 0.0099 0.59859 0.42498 0.0
C1685 C 0.00608 0.59519 0.37057 0.0
C1686 C 0.01704 0.59018 0.3324 0.0
C1687 C 0.03222 0.58836 0.35068 0.0
C1688 C 0.03619 0.59136 0.40678 0.0
C1689 C 0.02488 0.59682 0.4438 0.0
H1690 H 0.97277 0.39111 0.46434 0.0
H1691 H 0.95368 0.40694 0.62082 0.0
H1692 H 0.97888 0.40321 0.66601 0.0
H1693 H -0.00063 0.36221 0.52499 0.0
H1694 H 0.01377 0.36631 0.47342 0.0
H1695 H 0.99379 0.36822 0.4562 0.0
H1696 H -0.00152 0.39634 0.42564 0.0
H1697 H 0.0184 0.39454 0.44285 0.0
H1698 H 0.00712 0.4096 0.47392 0.0
H1699 H 0.00715 0.4014 0.68963 0.0
H1700 H 0.03547 0.40075 0.69025 0.0
H1701 H 0.03521 0.38512 0.51872 0.0
C1702 C 0.97379 0.3935 0.50841 0.0
C1703 C 0.96132 0.39935 0.5391 0.0
C1704 C 0.9631 0.40236 0.59664 0.0
C1705 C 0.97735 0.40027 0.62262 0.0
C1706 C 0.98955 0.39486 0.59063 0.0
C1707 C 0.9878 0.3913 0.53493 0.0
C1708 C 0.0028 0.38671 0.5085 0.0
C1709 C 0.0024 0.36986 0.48969 0.0
C1710 C 0.00694 0.39744 0.45991 0.0
C1711 C 0.01344 0.38891 0.55731 0.0
C1712 C 0.00563 0.39346 0.60456 0.0
C1713 C 0.01334 0.39752 0.65322 0.0
C1714 C 0.02942 0.39715 0.65315 0.0
C1715 C 0.03757 0.39279 0.60466 0.0
C1716 C 0.02937 0.38827 0.5568 0.0
H1717 H 0.4596 0.58677 0.01239 0.0
H1718 H 0.45128 0.57517 0.18534 0.0
H1719 H 0.47926 0.57251 0.20004 0.0
H1720 H 0.48907 0.56024 0.98926 0.0
H1721 H 0.49975 0.5727 0.9438 0.0
H1722 H 0.4793 0.57463 0.94888 0.0
H1723 H 0.48236 0.60332 0.97539 0.0
H1724 H 0.50284 0.6015 0.97019 0.0
H1725 H 0.4943 0.60853 0.03356 0.0
H1726 H 0.5087 0.57031 0.19328 0.0
H1727 H 0.536 0.56843 0.16544 0.0
H1728 H 0.5236 0.5811 -0.00312 0.0
C1729 C 0.46356 0.5838 0.05366 0.0
C1730 C 0.45321 0.5812 0.09774 0.0
C1731 C 0.459 0.57726 0.15092 0.0
C1732 C 0.47486 0.57573 0.15964 0.0
C1733 C 0.48471 0.57821 0.11479 0.0
C1734 C 0.4792 0.58219 0.06293 0.0
C1735 C 0.49187 0.58372 0.02069 0.0
C1736 C 0.48987 0.57213 0.97287 0.0
C1737 C 0.4929 0.60025 -0.00131 0.0
C1738 C 0.50546 0.57979 0.0565 0.0
C1739 C 0.50125 0.57676 0.11079 0.0
C1740 C 0.51208 0.5727 0.15087 0.0
C1741 C 0.52755 0.57167 0.13473 0.0
C1742 C 0.53194 0.57453 0.07893 0.0
C1743 C 0.52067 0.57873 0.0398 0.0
H1744 H 0.14958 0.11968 0.29308 0.0
H1745 H 0.12118 0.1605 0.2861 0.0
H1746 H 0.10863 0.15298 0.37363 0.0
H1747 H 0.12084 0.09442 0.34777 0.0
H1748 H 0.13389 0.08418 0.39227 0.0
H1749 H 0.14076 0.09282 0.32904 0.0
H1750 H 0.16105 0.10791 0.3856 0.0
H1751 H 0.15411 0.09944 0.44912 0.0
H1752 H 0.15498 0.12 0.44237 0.0
H1753 H 0.0986 0.14095 0.45888 0.0
H1754 H 0.09103 0.12443 0.53741 0.0
H1755 H 0.12649 0.09183 0.49255 0.0
C1756 C 0.14066 0.12696 0.3099 0.0
C1757 C 0.13631 0.14065 0.28294 0.0
C1758 C 0.12469 0.14997 0.30626 0.0
C1759 C 0.11753 0.14584 0.35599 0.0
C1760 C 0.12222 0.13242 0.38202 0.0
C1761 C 0.13348 0.12308 0.35995 0.0
C1762 C 0.13618 0.10918 0.39636 0.0
C1763 C 0.1327 0.09427 0.36446 0.0
C1764 C 0.15255 0.10914 0.41975 0.0
C1765 C 0.12451 0.11209 0.44178 0.0
C1766 C 0.11664 0.1256 0.43261 0.0
C1767 C 0.10476 0.13042 0.46696 0.0
C1768 C 0.10055 0.12099 0.51133 0.0
C1769 C 0.10829 0.10701 0.52106 0.0
C1770 C 0.12062 0.10264 0.48655 0.0
H1771 H 0.12114 0.896 0.45869 0.0
H1772 H 0.08573 0.86276 0.41975 0.0
H1773 H 0.09206 0.84842 0.50513 0.0
H1774 H 0.14846 0.86883 0.52394 0.0
H1775 H 0.15404 0.88269 0.57581 0.0
H1776 H 0.14811 0.88901 0.50784 0.0
H1777 H 0.12764 0.90644 0.55374 0.0
H1778 H 0.13323 0.89991 0.62172 0.0
H1779 H 0.11361 0.89806 0.59957 0.0
H1780 H 0.10028 0.83934 0.59844 0.0
H1781 H 0.11149 0.83466 0.69095 0.0
H1782 H 0.1411 0.87426 0.67004 0.0
C1783 C 0.11505 0.88544 0.46718 0.0
C1784 C 0.10301 0.8804 0.43264 0.0
C1785 C 0.09505 0.86673 0.44573 0.0
C1786 C 0.09853 0.85855 0.49409 0.0
C1787 C 0.11 0.86422 0.52862 0.0
C1788 C 0.11829 0.87722 0.5155 0.0
C1789 C 0.12932 0.88144 0.5615 0.0
C1790 C 0.14597 0.88042 0.54105 0.0
C1791 C 0.12573 0.89741 0.58553 0.0
C1792 C 0.12573 0.86892 0.60293 0.0
C1793 C 0.1146 0.85909 0.58303 0.0
C1794 C 0.10913 0.84685 0.61429 0.0
C1795 C 0.11549 0.84435 0.66686 0.0
C1796 C 0.12716 0.85409 0.68751 0.0
C1797 C 0.13217 0.86665 0.65535 0.0
H1798 H 0.3768 0.86563 0.05472 0.0
H1799 H 0.34889 0.90595 0.08471 0.0
H1800 H 0.33286 0.89927 0.00373 0.0
H1801 H 0.37949 0.86971 0.91735 0.0
H1802 H 0.37864 0.84971 0.89857 0.0
H1803 H 0.38553 0.85522 0.96605 0.0
H1804 H 0.36514 0.83811 0.01364 0.0
H1805 H 0.35836 0.83219 0.94612 0.0
H1806 H 0.34523 0.84039 -0.00418 0.0
H1807 H 0.32359 0.89139 0.90954 0.0
H1808 H 0.32018 0.88146 0.81398 0.0
H1809 H 0.3542 0.84632 0.84616 0.0
C1810 C 0.36694 0.87272 0.04562 0.0
C1811 C 0.36408 0.8863 0.07581 0.0
C1812 C 0.35122 0.89543 0.06224 0.0
C1813 C 0.34206 0.89174 0.01628 0.0
C1814 C 0.3458 0.87876 0.98516 0.0
C1815 C 0.35775 0.8692 -2e-05 0.0
C1816 C 0.3606 0.85704 0.9563 0.0
C1817 C 0.37703 0.85799 0.93323 0.0
C1818 C 0.35712 0.84098 0.97935 0.0
C1819 C 0.34895 0.86174 0.91322 0.0
C1820 C 0.34038 0.87416 0.93083 0.0
C1821 C 0.32994 0.88142 0.89585 0.0
C1822 C 0.3282 0.87579 0.84157 0.0
C1823 C 0.33689 0.86307 0.82295 0.0
C1824 C 0.34725 0.85591 0.85954 0.0
H1825 H 0.37333 0.08106 0.05784 0.0
H1826 H 0.4156 0.10716 0.05071 0.0
H1827 H 0.41041 0.11757 0.1442 0.0
H1828 H 0.35131 0.10944 0.12038 0.0
H1829 H 0.34032 0.09662 0.16352 0.0
H1830 H 0.34828 0.08984 0.09907 0.0
H1831 H 0.36214 0.06798 0.15193 0.0
H1832 H 0.35429 0.07481 0.21676 0.0
H1833 H 0.37469 0.07263 0.20901 0.0
H1834 H 0.39936 0.12741 0.23226 0.0
H1835 H 0.38273 0.13655 0.30848 0.0
H1836 H 0.34807 0.10347 0.26064 0.0
C1837 C 0.3816 0.08879 0.07633 0.0
C1838 C 0.39487 0.09329 0.04717 0.0
C1839 C 0.40536 0.10354 0.07241 0.0
C1840 C 0.40257 0.10944 0.12562 0.0
C1841 C 0.38933 0.10485 0.15316 0.0
C1842 C 0.37902 0.09474 0.12952 0.0
C1843 C 0.36509 0.09261 0.16611 0.0
C1844 C 0.35039 0.09742 0.13544 0.0
C1845 C 0.36399 0.07602 0.1872 0.0
C1846 C 0.36891 0.10357 0.21295 0.0
C1847 C 0.38305 0.11035 0.205 0.0
C1848 C 0.38843 0.12196 0.23969 0.0
C1849 C 0.37892 0.12708 0.28275 0.0
C1850 C 0.36427 0.12055 0.29065 0.0
C1851 C 0.35941 0.10835 0.25637 0.0
H1852 H 0.88093 0.88424 0.44477 0.0
H1853 H 0.84263 0.91387 0.40381 0.0
H1854 H 0.82937 0.90568 0.48931 0.0
H1855 H 0.85799 0.85312 0.50935 0.0
H1856 H 0.87234 0.84963 0.56165 0.0
H1857 H 0.87791 0.85645 0.49387 0.0
H1858 H 0.89194 0.87933 0.54018 0.0
H1859 H 0.88615 0.8728 0.60797 0.0
H1860 H 0.88147 0.89197 0.58584 0.0
H1861 H 0.82174 0.89678 0.58354 0.0
H1862 H 0.8187 0.8853 0.67649 0.0
H1863 H 0.86189 0.86128 0.65587 0.0
C1864 C 0.86957 0.88868 0.45298 0.0
C1865 C 0.8628 0.8997 0.4178 0.0
C1866 C 0.84801 0.9054 0.43027 0.0
C1867 C 0.84041 0.90085 0.47875 0.0
C1868 C 0.84772 0.89051 0.51383 0.0
C1869 C 0.86183 0.88427 0.50116 0.0
C1870 C 0.86749 0.87395 0.54728 0.0
C1871 C 0.86901 0.8573 0.52681 0.0
C1872 C 0.88266 0.87987 0.57175 0.0
C1873 C 0.8545 0.87564 0.58837 0.0
C1874 C 0.84322 0.88524 0.56823 0.0
C1875 C 0.83037 0.88906 0.59951 0.0
C1876 C 0.82881 0.88257 0.65238 0.0
C1877 C 0.84004 0.87236 0.6732 0.0
C1878 C 0.8531 0.869 0.64091 0.0
H1879 H 0.8385 0.12728 0.33304 0.0
H1880 H 0.86369 0.1702 0.33233 0.0
H1881 H 0.87529 0.16351 0.42253 0.0
H1882 H 0.83107 0.12656 0.48306 0.0
H1883 H 0.83343 0.10607 0.48789 0.0
H1884 H 0.82644 0.11452 0.42442 0.0
H1885 H 0.84829 0.10139 0.36896 0.0
H1886 H 0.85524 0.09283 0.4321 0.0
H1887 H 0.86786 0.10437 0.39011 0.0
H1888 H 0.88576 0.15141 0.50768 0.0
H1889 H 0.89449 0.1344 0.58341 0.0
H1890 H 0.86154 0.09999 0.53216 0.0
C1891 C 0.8464 0.13528 0.35202 0.0
C1892 C 0.85023 0.14924 0.3258 0.0
C1893 C 0.8606 0.15944 0.35186 0.0
C1894 C 0.8672 0.15579 0.40313 0.0
C1895 C 0.86316 0.14198 0.42801 0.0
C1896 C 0.85298 0.13189 0.40354 0.0
C1897 C 0.85102 0.11755 0.43824 0.0
C1898 C 0.83451 0.1161 0.45967 0.0
C1899 C 0.8559 0.10319 0.40539 0.0
C1900 C 0.86202 0.121 0.48522 0.0
C1901 C 0.86884 0.13519 0.47858 0.0
C1902 C 0.88032 0.1404 0.51402 0.0
C1903 C 0.8852 0.1307 0.55677 0.0
C1904 C 0.87848 0.11608 0.56385 0.0
C1905 C 0.86653 0.11131 0.52844 0.0
H1906 H 0.64128 0.10619 0.26212 0.0
H1907 H 0.60786 0.14206 0.29261 0.0
H1908 H 0.59242 0.13262 0.21364 0.0
H1909 H 0.64083 0.10911 0.11817 0.0
H1910 H 0.643 0.08889 0.10447 0.0
H1911 H 0.65038 0.09697 0.16791 0.0
H1912 H 0.63447 0.07763 0.22576 0.0
H1913 H 0.62717 0.06934 0.1624 0.0
H1914 H 0.61411 0.07629 0.21474 0.0
H1915 H 0.58191 0.12087 0.12718 0.0
H1916 H 0.57667 0.10727 0.03926 0.0
H1917 H 0.61739 0.07951 0.0634 0.0
C1918 C 0.6305 0.1118 0.25311 0.0
C1919 C 0.62566 0.12477 0.2836 0.0
C1920 C 0.6117 0.13205 0.2698 0.0
C1921 C 0.60286 0.12677 0.22513 0.0
C1922 C 0.60819 0.11423 0.19482 0.0
C1923 C 0.62164 0.10678 0.20833 0.0
C1924 C 0.62542 0.09436 0.16644 0.0
C1925 C 0.64082 0.09753 0.13755 0.0
C1926 C 0.62527 0.07846 0.19399 0.0
C1927 C 0.61216 0.09622 0.12664 0.0
C1928 C 0.60228 0.10763 0.14412 0.0
C1929 C 0.58947 0.1118 0.11332 0.0
C1930 C 0.58663 0.10405 0.06337 0.0
C1931 C 0.59663 0.09233 0.0446 0.0
C1932 C 0.60953 0.08839 0.07679 0.0
H1933 H 0.6276 0.83921 0.86632 0.0
H1934 H 0.66114 0.87437 0.82831 0.0
H1935 H 0.65757 0.88544 0.92216 0.0
H1936 H 0.60211 0.86291 0.93418 0.0
H1937 H 0.59633 0.84896 0.9853 0.0
H1938 H 0.60326 0.8427 0.91868 0.0
H1939 H 0.62391 0.82615 0.96769 0.0
H1940 H 0.61711 0.83255 0.03464 0.0
H1941 H 0.63694 0.83506 0.01607 0.0
H1942 H 0.64825 0.89425 0.01559 0.0
H1943 H 0.63249 0.90125 0.09707 0.0
H1944 H 0.60537 0.86006 0.07359 0.0
C1945 C 0.63439 0.84908 0.87803 0.0
C1946 C 0.64467 0.85591 0.84027 0.0
C1947 C 0.6532 0.86895 0.8568 0.0
C1948 C 0.65136 0.87523 0.91011 0.0
C1949 C 0.64103 0.86825 0.94632 0.0
C1950 C 0.63268 0.85547 0.93087 0.0
C1951 C 0.62121 0.85104 0.97501 0.0
C1952 C 0.60476 0.85144 0.95191 0.0
C1953 C 0.62503 0.83526 -0.00018 0.0
C1954 C 0.62393 0.86371 0.01675 0.0
C1955 C 0.63563 0.87335 0.00013 0.0
C1956 C 0.63925 0.88665 0.02956 0.0
C1957 C 0.63025 0.89052 0.07584 0.0
C1958 C 0.61771 0.88119 0.09152 0.0
C1959 C 0.61498 0.86733 0.06291 0.0
H1960 H 0.59563 0.60428 0.92422 0.0
H1961 H 0.63189 0.57161 0.95844 0.0
H1962 H 0.64381 0.57771 0.8678 0.0
H1963 H 0.59259 0.59706 0.77658 0.0
H1964 H 0.58932 0.61694 0.75985 0.0
H1965 H 0.58331 0.60949 0.82622 0.0
H1966 H 0.59918 0.6304 0.87699 0.0
H1967 H 0.60505 0.63802 0.81086 0.0
H1968 H 0.61925 0.63241 0.86122 0.0
H1969 H 0.65193 0.58781 0.7743 0.0
H1970 H 0.65708 0.60301 0.68968 0.0
H1971 H 0.61544 0.62901 0.71828 0.0
C1972 C 0.60606 0.59837 0.91263 0.0
C1973 C 0.61282 0.58745 0.94807 0.0
C1974 C 0.62654 0.58005 0.93177 0.0
C1975 C 0.63332 0.58334 0.88029 0.0
C1976 C 0.62622 0.59405 0.84595 0.0
C1977 C 0.61298 0.60155 0.86173 0.0
C1978 C 0.60803 0.61315 0.81878 0.0
C1979 C 0.59238 0.6089 0.79389 0.0
C1980 C 0.60788 0.62946 0.84344 0.0
C1981 C 0.62069 0.61118 0.77664 0.0
C1982 C 0.63097 0.59997 0.79259 0.0
C1983 C 0.64393 0.59656 0.76121 0.0
C1984 C 0.64673 0.60521 0.71316 0.0
C1985 C 0.63665 0.61718 0.69759 0.0
C1986 C 0.62329 0.61988 0.729 0.0
H1987 H 0.65323 0.36344 0.1209 0.0
H1988 H 0.62682 0.32146 0.13511 0.0
H1989 H 0.61536 0.32633 0.04286 0.0
H1990 H 0.6247 0.38576 0.05797 0.0
H1991 H 0.63765 0.39595 0.01283 0.0
H1992 H 0.64438 0.38852 0.0781 0.0
H1993 H 0.66573 0.37354 0.02626 0.0
H1994 H 0.65893 0.38083 0.96066 0.0
H1995 H 0.66063 0.36044 0.97124 0.0
H1996 H 0.60508 0.33703 0.95386 0.0
H1997 H 0.5966 0.35294 0.87457 0.0
H1998 H 0.63088 0.38703 0.91637 0.0
C1999 C 0.6451 0.35523 0.10449 0.0
C2000 C 0.64086 0.3421 0.13502 0.0
C2001 C 0.63022 0.33159 0.1122 0.0
C2002 C 0.62371 0.33422 0.05983 0.0
C2003 C 0.62817 0.34727 0.0307 0.0
C2004 C 0.63866 0.35757 0.0521 0.0
C2005 C 0.64104 0.37103 0.01355 0.0
C2006 C 0.63668 0.38621 0.04233 0.0
C2007 C 0.65756 0.37148 0.99163 0.0
C2008 C 0.62989 0.36694 0.96785 0.0
C2009 C 0.62263 0.35315 0.97831 0.0
C2010 C 0.61088 0.34769 0.94456 0.0
C2011 C 0.60615 0.35677 0.89972 0.0
C2012 C 0.61326 0.37105 0.88908 0.0
C2013 C 0.62554 0.37596 0.92269 0.0
H2014 H 0.89888 0.38321 0.33192 0.0
H2015 H 0.87238 0.42466 0.35857 0.0
H2016 H 0.86126 0.42205 0.26456 0.0
H2017 H 0.90582 0.38822 0.18147 0.0
H2018 H 0.90347 0.36804 0.16749 0.0
H2019 H 0.9109 0.3743 0.23366 0.0
H2020 H 0.8895 0.35925 0.28477 0.0
H2021 H 0.88215 0.35283 0.21894 0.0
H2022 H 0.86978 0.36279 0.26691 0.0
H2023 H 0.85159 0.41383 0.17127 0.0
H2024 H 0.84193 0.39915 0.09078 0.0
H2025 H 0.8744 0.36282 0.12648 0.0
C2026 C 0.89093 0.39187 0.31757 0.0
C2027 C 0.88655 0.40418 0.35212 0.0
C2028 C 0.87588 0.41514 0.33255 0.0
C2029 C 0.86963 0.41383 0.2791 0.0
C2030 C 0.87417 0.40151 0.24602 0.0
C2031 C 0.88448 0.39066 0.2647 0.0
C2032 C 0.88622 0.37763 0.22366 0.0
C2033 C 0.90258 0.37702 0.20018 0.0
C2034 C 0.88163 0.36223 0.25015 0.0
C2035 C 0.8749 0.3826 0.17976 0.0
C2036 C 0.86833 0.39657 0.19273 0.0
C2037 C 0.85678 0.40297 0.16028 0.0
C2038 C 0.85139 0.39457 0.11458 0.0
C2039 C 0.85741 0.37985 0.10257 0.0
C2040 C 0.86967 0.3741 0.13445 0.0
H2041 H 0.85715 0.64698 0.67451 0.0
H2042 H 0.82107 0.61362 0.70185 0.0
H2043 H 0.82785 0.60084 0.61306 0.0
H2044 H 0.85287 0.65033 0.5265 0.0
H2045 H 0.87314 0.65194 0.51402 0.0
H2046 H 0.86515 0.65859 0.57879 0.0
H2047 H 0.88375 0.64103 0.63357 0.0
H2048 H 0.89191 0.63447 0.56905 0.0
H2049 H 0.88433 0.62081 0.61803 0.0
H2050 H 0.83877 0.59186 0.52112 0.0
H2051 H 0.85439 0.58591 0.4381 0.0
H2052 H 0.88333 0.62521 0.47343 0.0
C2053 C 0.85064 0.63699 0.66185 0.0
C2054 C 0.83855 0.6313 0.69472 0.0
C2055 C 0.8304 0.61813 0.67712 0.0
C2056 C 0.8341 0.61088 0.6267 0.0
C2057 C 0.84599 0.61695 0.59488 0.0
C2058 C 0.85422 0.62962 0.61212 0.0
C2059 C 0.86685 0.63359 0.57176 0.0
C2060 C 0.86434 0.64956 0.54626 0.0
C2061 C 0.88264 0.63239 0.59978 0.0
C2062 C 0.86456 0.62109 0.52912 0.0
C2063 C 0.85237 0.61169 0.54275 0.0
C2064 C 0.84832 0.59915 0.50999 0.0
C2065 C 0.85722 0.59591 0.46286 0.0
C2066 C 0.87007 0.6051 0.4495 0.0
C2067 C 0.87354 0.61801 0.48252 0.0
H2068 H 0.35509 0.375 0.30758 0.0
H2069 H 0.39079 0.34255 0.34994 0.0
H2070 H 0.40636 0.35188 0.27108 0.0
H2071 H 0.35628 0.36826 0.16948 0.0
H2072 H 0.35257 0.38759 0.14665 0.0
H2073 H 0.34581 0.38134 0.21349 0.0
H2074 H 0.36024 0.40364 0.26186 0.0
H2075 H 0.3668 0.41022 0.1949 0.0
H2076 H 0.38042 0.4062 0.24924 0.0
H2077 H 0.41615 0.36183 0.18094 0.0
H2078 H 0.41979 0.37205 0.08616 0.0
H2079 H 0.37685 0.39681 0.09981 0.0
C2080 C 0.36648 0.37037 0.30172 0.0
C2081 C 0.37194 0.35828 0.33512 0.0
C2082 C 0.38659 0.35199 0.325 0.0
C2083 C 0.39548 0.35721 0.28043 0.0
C2084 C 0.38946 0.36865 0.24648 0.0
C2085 C 0.37534 0.37524 0.2568 0.0
C2086 C 0.37054 0.38575 0.20994 0.0
C2087 C 0.35541 0.38041 0.18334 0.0
C2088 C 0.36944 0.40244 0.23021 0.0
C2089 C 0.38388 0.38358 0.17073 0.0
C2090 C 0.39481 0.37393 0.19304 0.0
C2091 C 0.4078 0.3696 0.16336 0.0
C2092 C 0.40971 0.37538 0.10952 0.0
C2093 C 0.39858 0.38518 0.08581 0.0
C2094 C 0.38554 0.38934 0.11695 0.0
H2095 H 0.38789 0.61933 0.98744 0.0
H2096 H 0.34916 0.59051 0.03094 0.0
H2097 H 0.33564 0.59911 0.94654 0.0
H2098 H 0.36541 0.65101 0.92715 0.0
H2099 H 0.3794 0.65448 0.8735 0.0
H2100 H 0.38535 0.64711 0.94003 0.0
H2101 H 0.39841 0.62416 0.89041 0.0
H2102 H 0.39226 0.63128 0.82384 0.0
H2103 H 0.38727 0.61209 0.84491 0.0
H2104 H 0.32745 0.60878 0.85397 0.0
H2105 H 0.3238 0.62114 0.76289 0.0
H2106 H 0.3678 0.64386 0.77999 0.0
C2107 C 0.37643 0.61508 0.97987 0.0
C2108 C 0.36956 0.60424 0.01557 0.0
C2109 C 0.35461 0.59884 0.00407 0.0
C2110 C 0.34686 0.60361 0.95623 0.0
C2111 C 0.3542 0.61386 0.9208 0.0
C2112 C 0.36853 0.61973 0.9324 0.0
C2113 C 0.37407 0.6302 0.88649 0.0
C2114 C 0.37618 0.64668 0.90809 0.0
C2115 C 0.38888 0.62406 0.85985 0.0
C2116 C 0.36072 0.62908 0.84679 0.0
C2117 C 0.3494 0.61958 0.8674 0.0
C2118 C 0.33614 0.61639 0.83761 0.0
C2119 C 0.33423 0.62339 0.7858 0.0
C2120 C 0.34551 0.63349 0.76452 0.0
C2121 C 0.35898 0.63622 0.79525 0.0
H2122 H 0.13224 0.6351 0.76351 0.0
H2123 H 0.17177 0.60543 0.78269 0.0
H2124 H 0.16346 0.59036 0.70077 0.0
H2125 H 0.10555 0.60558 0.71912 0.0
H2126 H 0.09603 0.61814 0.67076 0.0
H2127 H 0.10477 0.62591 0.7325 0.0
H2128 H 0.12085 0.64442 0.67163 0.0
H2129 H 0.11227 0.63662 0.6097 0.0
H2130 H 0.1328 0.6367 0.61718 0.0
H2131 H 0.15139 0.57948 0.61371 0.0
H2132 H 0.13593 0.57288 0.53097 0.0
H2133 H 0.10451 0.60992 0.5703 0.0
C2134 C 0.13909 0.62534 0.75093 0.0
C2135 C 0.15265 0.62142 0.77932 0.0
C2136 C 0.16131 0.60859 0.76149 0.0
C2137 C 0.1567 0.6 0.71503 0.0
C2138 C 0.1434 0.60439 0.68731 0.0
C2139 C 0.13467 0.61668 0.70491 0.0
C2140 C 0.12105 0.6193 0.66739 0.0
C2141 C 0.10596 0.61709 0.69936 0.0
C2142 C 0.1218 0.6352 0.63985 0.0
C2143 C 0.12355 0.60664 0.62545 0.0
C2144 C 0.13647 0.59814 0.63758 0.0
C2145 C 0.14119 0.58599 0.60401 0.0
C2146 C 0.13238 0.58237 0.55708 0.0
C2147 C 0.11902 0.59088 0.54437 0.0
C2148 C 0.11464 0.60318 0.579 0.0
H2149 H 0.13888 0.35318 0.33536 0.0
H2150 H 0.17292 0.38883 0.31167 0.0
H2151 H 0.16726 0.39892 0.40575 0.0
H2152 H 0.11179 0.37638 0.40313 0.0
H2153 H 0.10535 0.36148 0.44946 0.0
H2154 H 0.11312 0.35653 0.38255 0.0
H2155 H 0.13306 0.33892 0.43057 0.0
H2156 H 0.12545 0.34402 0.4978 0.0
H2157 H 0.1455 0.3468 0.48317 0.0
H2158 H 0.15695 0.40572 0.50042 0.0
H2159 H 0.14099 0.4104 0.58353 0.0
H2160 H 0.11378 0.3702 0.54373 0.0
C2161 C 0.14524 0.36304 0.35008 0.0
C2162 C 0.15637 0.3702 0.31653 0.0
C2163 C 0.16432 0.38319 0.33688 0.0
C2164 C 0.16129 0.38891 0.39034 0.0
C2165 C 0.15031 0.38146 0.42259 0.0
C2166 C 0.14233 0.36889 0.40297 0.0
C2167 C 0.13031 0.36363 0.44388 0.0
C2168 C 0.11419 0.36457 0.41822 0.0
C2169 C 0.1338 0.34738 0.46511 0.0
C2170 C 0.13251 0.37543 0.48917 0.0
C2171 C 0.14426 0.38547 0.47666 0.0
C2172 C 0.14781 0.39786 0.51091 0.0
C2173 C 0.13871 0.40039 0.55809 0.0
C2174 C 0.12614 0.39066 0.56993 0.0
C2175 C 0.12338 0.37776 0.53598 0.0
loop_
_geom_bond_atom_site_label_1
_geom_bond_atom_site_label_2
_geom_bond_distance
_geom_bond_site_symmetry_2
_ccdc_geom_bond_type
C0 O1 1.306 . S
C0 O3 1.160 . S
O1 C0 1.306 . S
O1 Cd2 2.228 . S
Cd2 O1 2.228 . S
Cd2 O6 2.273 . S
Cd2 O10 2.277 . S
O3 C0 1.160 . S
O3 Cd4 2.203 . S
Cd4 O3 2.203 . S
Cd4 O6 2.411 . S
Cd4 O7 2.333 . S
Cd4 O8 2.352 . S
Cd4 O12 2.277 . S
Cd4 O13 2.356 . S
C5 O10 1.209 . S
C5 O12 1.226 . S
O6 Cd2 2.273 . S
O6 Cd4 2.411 . S
O6 C9 1.320 . S
O7 Cd4 2.333 . S
O7 C9 1.214 . S
O8 Cd4 2.352 . S
O8 C11 1.258 . S
C9 O6 1.320 . S
C9 O7 1.214 . S
O10 Cd2 2.277 . S
O10 C5 1.209 . S
C11 O8 1.258 . S
C11 O13 1.282 . S
O12 Cd4 2.277 . S
O12 C5 1.226 . S
O13 Cd4 2.356 . S
O13 C11 1.282 . S
C14 O15 1.306 . S
C14 O17 1.160 . S
O15 C14 1.306 . S
O15 Cd16 2.228 . S
Cd16 O15 2.228 . S
Cd16 O20 2.273 . S
Cd16 O24 2.277 . S
O17 C14 1.160 . S
O17 Cd18 2.203 . S
Cd18 O17 2.203 . S
Cd18 O20 2.411 . S
Cd18 O21 2.333 . S
Cd18 O22 2.352 . S
Cd18 O26 2.277 . S
Cd18 O27 2.356 . S
C19 O24 1.209 . S
C19 O26 1.226 . S
O20 Cd16 2.273 . S
O20 Cd18 2.411 . S
O20 C23 1.320 . S
O21 Cd18 2.333 . S
O21 C23 1.214 . S
O22 Cd18 2.352 . S
O22 C25 1.258 . S
C23 O20 1.320 . S
C23 O21 1.214 . S
O24 Cd16 2.277 . S
O24 C19 1.209 . S
C25 O22 1.258 . S
C25 O27 1.282 . S
O26 Cd18 2.277 . S
O26 C19 1.226 . S
O27 Cd18 2.356 . S
O27 C25 1.282 . S
C28 O29 1.306 . S
C28 O31 1.160 . S
O29 C28 1.306 . S
O29 Cd30 2.228 . S
Cd30 O29 2.228 . S
Cd30 O34 2.273 . S
Cd30 O38 2.277 . S
O31 C28 1.160 . S
O31 Cd32 2.203 . S
Cd32 O31 2.203 . S
Cd32 O34 2.411 . S
Cd32 O35 2.333 . S
Cd32 O36 2.352 . S
Cd32 O40 2.277 . S
Cd32 O41 2.356 . S
C33 O38 1.209 . S
C33 O40 1.226 . S
O34 Cd30 2.273 . S
O34 Cd32 2.411 . S
O34 C37 1.320 . S
O35 Cd32 2.333 . S
O35 C37 1.214 . S
O36 Cd32 2.352 . S
O36 C39 1.258 . S
C37 O34 1.320 . S
C37 O35 1.214 . S
O38 Cd30 2.277 . S
O38 C33 1.209 . S
C39 O36 1.258 . S
C39 O41 1.282 . S
O40 Cd32 2.277 . S
O40 C33 1.226 . S
O41 Cd32 2.356 . S
O41 C39 1.282 . S
C42 O43 1.306 . S
C42 O45 1.160 . S
O43 C42 1.306 . S
O43 Cd44 2.228 1_556 S
Cd44 O43 2.228 1_554 S
Cd44 O48 2.273 1_554 S
Cd44 O52 2.277 1_554 S
O45 C42 1.160 . S
O45 Cd46 2.203 . S
Cd46 O45 2.203 . S
Cd46 O48 2.411 . S
Cd46 O49 2.333 . S
Cd46 O50 2.352 . S
Cd46 O54 2.277 . S
Cd46 O55 2.356 . S
C47 O52 1.209 . S
C47 O54 1.226 . S
O48 Cd44 2.273 1_556 S
O48 Cd46 2.411 . S
O48 C51 1.320 . S
O49 Cd46 2.333 . S
O49 C51 1.214 . S
O50 Cd46 2.352 . S
O50 C53 1.258 . S
C51 O48 1.320 . S
C51 O49 1.214 . S
O52 Cd44 2.277 1_556 S
O52 C47 1.209 . S
C53 O50 1.258 . S
C53 O55 1.282 . S
O54 Cd46 2.277 . S
O54 C47 1.226 . S
O55 Cd46 2.356 . S
O55 C53 1.282 . S
C56 O57 1.306 . S
C56 O59 1.160 . S
O57 C56 1.306 . S
O57 Cd58 2.228 . S
Cd58 O57 2.228 . S
Cd58 O62 2.273 . S
Cd58 O66 2.277 . S
O59 C56 1.160 . S
O59 Cd60 2.203 . S
Cd60 O59 2.203 . S
Cd60 O62 2.411 . S
Cd60 O63 2.333 . S
Cd60 O64 2.352 . S
Cd60 O68 2.277 . S
Cd60 O69 2.356 . S
C61 O66 1.209 . S
C61 O68 1.226 . S
O62 Cd58 2.273 . S
O62 Cd60 2.411 . S
O62 C65 1.320 . S
O63 Cd60 2.333 . S
O63 C65 1.214 . S
O64 Cd60 2.352 . S
O64 C67 1.258 . S
C65 O62 1.320 . S
C65 O63 1.214 . S
O66 Cd58 2.277 . S
O66 C61 1.209 . S
C67 O64 1.258 . S
C67 O69 1.282 . S
O68 Cd60 2.277 . S
O68 C61 1.226 . S
O69 Cd60 2.356 . S
O69 C67 1.282 . S
C70 O71 1.306 . S
C70 O73 1.160 . S
O71 C70 1.306 . S
O71 Cd72 2.228 1_554 S
Cd72 O71 2.228 1_556 S
Cd72 O76 2.273 1_556 S
Cd72 O80 2.277 1_556 S
O73 C70 1.160 . S
O73 Cd74 2.203 . S
Cd74 O73 2.203 . S
Cd74 O76 2.411 . S
Cd74 O77 2.333 . S
Cd74 O78 2.352 . S
Cd74 O82 2.277 . S
Cd74 O83 2.356 . S
C75 O80 1.209 . S
C75 O82 1.226 . S
O76 Cd72 2.273 1_554 S
O76 Cd74 2.411 . S
O76 C79 1.320 . S
O77 Cd74 2.333 . S
O77 C79 1.214 . S
O78 Cd74 2.352 . S
O78 C81 1.258 . S
C79 O76 1.320 . S
C79 O77 1.214 . S
O80 Cd72 2.277 1_554 S
O80 C75 1.209 . S
C81 O78 1.258 . S
C81 O83 1.282 . S
O82 Cd74 2.277 . S
O82 C75 1.226 . S
O83 Cd74 2.356 . S
O83 C81 1.282 . S
C84 O85 1.306 . S
C84 O87 1.160 . S
O85 C84 1.306 . S
O85 Cd86 2.228 . S
Cd86 O85 2.228 . S
Cd86 O90 2.273 . S
Cd86 O94 2.277 . S
O87 C84 1.160 . S
O87 Cd88 2.203 . S
Cd88 O87 2.203 . S
Cd88 O90 2.411 . S
Cd88 O91 2.333 . S
Cd88 O92 2.352 . S
Cd88 O96 2.277 . S
Cd88 O97 2.356 . S
C89 O94 1.209 . S
C89 O96 1.226 . S
O90 Cd86 2.273 . S
O90 Cd88 2.411 . S
O90 C93 1.320 . S
O91 Cd88 2.333 . S
O91 C93 1.214 . S
O92 Cd88 2.352 . S
O92 C95 1.258 . S
C93 O90 1.320 . S
C93 O91 1.214 . S
O94 Cd86 2.277 . S
O94 C89 1.209 . S
C95 O92 1.258 . S
C95 O97 1.282 . S
O96 Cd88 2.277 . S
O96 C89 1.226 . S
O97 Cd88 2.356 . S
O97 C95 1.282 . S
C98 O99 1.306 . S
C98 O101 1.160 . S
O99 C98 1.306 . S
O99 Cd100 2.228 . S
Cd100 O99 2.228 . S
Cd100 O104 2.273 . S
Cd100 O108 2.277 . S
O101 C98 1.160 . S
O101 Cd102 2.203 . S
Cd102 O101 2.203 . S
Cd102 O104 2.411 . S
Cd102 O105 2.333 . S
Cd102 O106 2.352 . S
Cd102 O110 2.277 . S
Cd102 O111 2.356 . S
C103 O108 1.209 . S
C103 O110 1.226 . S
O104 Cd100 2.273 . S
O104 Cd102 2.411 . S
O104 C107 1.320 . S
O105 Cd102 2.333 . S
O105 C107 1.214 . S
O106 Cd102 2.352 . S
O106 C109 1.258 . S
C107 O104 1.320 . S
C107 O105 1.214 . S
O108 Cd100 2.277 . S
O108 C103 1.209 . S
C109 O106 1.258 . S
C109 O111 1.282 . S
O110 Cd102 2.277 . S
O110 C103 1.226 . S
O111 Cd102 2.356 . S
O111 C109 1.282 . S
C112 O113 1.306 . S
C112 O115 1.160 . S
O113 C112 1.306 . S
O113 Cd114 2.228 . S
Cd114 O113 2.228 . S
Cd114 O118 2.273 . S
Cd114 O122 2.277 . S
O115 C112 1.160 . S
O115 Cd116 2.203 . S
Cd116 O115 2.203 . S
Cd116 O118 2.411 . S
Cd116 O119 2.333 . S
Cd116 O120 2.352 . S
Cd116 O124 2.277 . S
Cd116 O125 2.356 . S
C117 O122 1.209 . S
C117 O124 1.226 . S
O118 Cd114 2.273 . S
O118 Cd116 2.411 . S
O118 C121 1.320 . S
O119 Cd116 2.333 . S
O119 C121 1.214 . S
O120 Cd116 2.352 . S
O120 C123 1.258 . S
C121 O118 1.320 . S
C121 O119 1.214 . S
O122 Cd114 2.277 . S
O122 C117 1.209 . S
C123 O120 1.258 . S
C123 O125 1.282 . S
O124 Cd116 2.277 . S
O124 C117 1.226 . S
O125 Cd116 2.356 . S
O125 C123 1.282 . S
C126 O127 1.306 . S
C126 O129 1.160 . S
O127 C126 1.306 . S
O127 Cd128 2.228 . S
Cd128 O127 2.228 . S
Cd128 O132 2.273 . S
Cd128 O136 2.277 . S
O129 C126 1.160 . S
O129 Cd130 2.203 . S
Cd130 O129 2.203 . S
Cd130 O132 2.411 . S
Cd130 O133 2.333 . S
Cd130 O134 2.352 . S
Cd130 O138 2.277 . S
Cd130 O139 2.356 . S
C131 O136 1.209 . S
C131 O138 1.226 . S
O132 Cd128 2.273 . S
O132 Cd130 2.411 . S
O132 C135 1.320 . S
O133 Cd130 2.333 . S
O133 C135 1.214 . S
O134 Cd130 2.352 . S
O134 C137 1.258 . S
C135 O132 1.320 . S
C135 O133 1.214 . S
O136 Cd128 2.277 . S
O136 C131 1.209 . S
C137 O134 1.258 . S
C137 O139 1.282 . S
O138 Cd130 2.277 . S
O138 C131 1.226 . S
O139 Cd130 2.356 . S
O139 C137 1.282 . S
C140 O141 1.306 . S
C140 O143 1.160 . S
O141 C140 1.306 . S
O141 Cd142 2.228 . S
Cd142 O141 2.228 . S
Cd142 O146 2.273 . S
Cd142 O150 2.277 . S
O143 C140 1.160 . S
O143 Cd144 2.203 . S
Cd144 O143 2.203 . S
Cd144 O146 2.411 . S
Cd144 O147 2.333 . S
Cd144 O148 2.352 . S
Cd144 O152 2.277 . S
Cd144 O153 2.356 . S
C145 O150 1.209 . S
C145 O152 1.226 . S
O146 Cd142 2.273 . S
O146 Cd144 2.411 . S
O146 C149 1.320 . S
O147 Cd144 2.333 . S
O147 C149 1.214 . S
O148 Cd144 2.352 . S
O148 C151 1.258 . S
C149 O146 1.320 . S
C149 O147 1.214 . S
O150 Cd142 2.277 . S
O150 C145 1.209 . S
C151 O148 1.258 . S
C151 O153 1.282 . S
O152 Cd144 2.277 . S
O152 C145 1.226 . S
O153 Cd144 2.356 . S
O153 C151 1.282 . S
C154 O155 1.306 . S
C154 O157 1.160 . S
O155 C154 1.306 . S
O155 Cd156 2.228 1_554 S
Cd156 O155 2.228 1_556 S
Cd156 O160 2.273 1_556 S
Cd156 O164 2.277 1_556 S
O157 C154 1.160 . S
O157 Cd158 2.203 . S
Cd158 O157 2.203 . S
Cd158 O160 2.411 . S
Cd158 O161 2.333 . S
Cd158 O162 2.352 . S
Cd158 O166 2.277 . S
Cd158 O167 2.356 . S
C159 O164 1.209 . S
C159 O166 1.226 . S
O160 Cd156 2.273 1_554 S
O160 Cd158 2.411 . S
O160 C163 1.320 . S
O161 Cd158 2.333 . S
O161 C163 1.214 . S
O162 Cd158 2.352 . S
O162 C165 1.258 . S
C163 O160 1.320 . S
C163 O161 1.214 . S
O164 Cd156 2.277 1_554 S
O164 C159 1.209 . S
C165 O162 1.258 . S
C165 O167 1.282 . S
O166 Cd158 2.277 . S
O166 C159 1.226 . S
O167 Cd158 2.356 . S
O167 C165 1.282 . S
C168 O169 1.306 . S
C168 O171 1.160 . S
O169 C168 1.306 . S
O169 Cd170 2.228 . S
Cd170 O169 2.228 . S
Cd170 O174 2.273 . S
Cd170 O178 2.277 . S
O171 C168 1.160 . S
O171 Cd172 2.203 . S
Cd172 O171 2.203 . S
Cd172 O174 2.411 . S
Cd172 O175 2.333 . S
Cd172 O176 2.352 . S
Cd172 O180 2.277 . S
Cd172 O181 2.356 . S
C173 O178 1.209 . S
C173 O180 1.226 . S
O174 Cd170 2.273 . S
O174 Cd172 2.411 . S
O174 C177 1.320 . S
O175 Cd172 2.333 . S
O175 C177 1.214 . S
O176 Cd172 2.352 . S
O176 C179 1.258 . S
C177 O174 1.320 . S
C177 O175 1.214 . S
O178 Cd170 2.277 . S
O178 C173 1.209 . S
C179 O176 1.258 . S
C179 O181 1.282 . S
O180 Cd172 2.277 . S
O180 C173 1.226 . S
O181 Cd172 2.356 . S
O181 C179 1.282 . S
C182 O183 1.306 . S
C182 O185 1.160 . S
O183 C182 1.306 . S
O183 Cd184 2.228 1_556 S
Cd184 O183 2.228 1_554 S
Cd184 O188 2.273 1_554 S
Cd184 O192 2.277 1_554 S
O185 C182 1.160 . S
O185 Cd186 2.203 . S
Cd186 O185 2.203 . S
Cd186 O188 2.411 . S
Cd186 O189 2.333 . S
Cd186 O190 2.352 . S
Cd186 O194 2.277 . S
Cd186 O195 2.356 . S
C187 O192 1.209 . S
C187 O194 1.226 . S
O188 Cd184 2.273 1_556 S
O188 Cd186 2.411 . S
O188 C191 1.320 . S
O189 Cd186 2.333 . S
O189 C191 1.214 . S
O190 Cd186 2.352 . S
O190 C193 1.258 . S
C191 O188 1.320 . S
C191 O189 1.214 . S
O192 Cd184 2.277 1_556 S
O192 C187 1.209 . S
C193 O190 1.258 . S
C193 O195 1.282 . S
O194 Cd186 2.277 . S
O194 C187 1.226 . S
O195 Cd186 2.356 . S
O195 C193 1.282 . S
C196 O197 1.306 . S
C196 O199 1.160 . S
O197 C196 1.306 . S
O197 Cd198 2.228 . S
Cd198 O197 2.228 . S
Cd198 O202 2.273 . S
Cd198 O206 2.277 . S
O199 C196 1.160 . S
O199 Cd200 2.203 . S
Cd200 O199 2.203 . S
Cd200 O202 2.411 . S
Cd200 O203 2.333 . S
Cd200 O204 2.352 . S
Cd200 O208 2.277 . S
Cd200 O209 2.356 . S
C201 O206 1.209 . S
C201 O208 1.226 . S
O202 Cd198 2.273 . S
O202 Cd200 2.411 . S
O202 C205 1.320 . S
O203 Cd200 2.333 . S
O203 C205 1.214 . S
O204 Cd200 2.352 . S
O204 C207 1.258 . S
C205 O202 1.320 . S
C205 O203 1.214 . S
O206 Cd198 2.277 . S
O206 C201 1.209 . S
C207 O204 1.258 . S
C207 O209 1.282 . S
O208 Cd200 2.277 . S
O208 C201 1.226 . S
O209 Cd200 2.356 . S
O209 C207 1.282 . S
C210 O211 1.306 . S
C210 O213 1.160 . S
O211 C210 1.306 . S
O211 Cd212 2.228 . S
Cd212 O211 2.228 . S
Cd212 O216 2.273 . S
Cd212 O220 2.277 . S
O213 C210 1.160 . S
O213 Cd214 2.203 . S
Cd214 O213 2.203 . S
Cd214 O216 2.411 . S
Cd214 O217 2.333 . S
Cd214 O218 2.352 . S
Cd214 O222 2.277 . S
Cd214 O223 2.356 . S
C215 O220 1.209 . S
C215 O222 1.226 . S
O216 Cd212 2.273 . S
O216 Cd214 2.411 . S
O216 C219 1.320 . S
O217 Cd214 2.333 . S
O217 C219 1.214 . S
O218 Cd214 2.352 . S
O218 C221 1.258 . S
C219 O216 1.320 . S
C219 O217 1.214 . S
O220 Cd212 2.277 . S
O220 C215 1.209 . S
C221 O218 1.258 . S
C221 O223 1.282 . S
O222 Cd214 2.277 . S
O222 C215 1.226 . S
O223 Cd214 2.356 . S
O223 C221 1.282 . S
C224 O225 1.306 . S
C224 O227 1.160 . S
O225 C224 1.306 . S
O225 Cd226 2.228 . S
Cd226 O225 2.228 . S
Cd226 O230 2.273 . S
Cd226 O234 2.277 . S
O227 C224 1.160 . S
O227 Cd228 2.203 . S
Cd228 O227 2.203 . S
Cd228 O230 2.411 . S
Cd228 O231 2.333 . S
Cd228 O232 2.352 . S
Cd228 O236 2.277 . S
Cd228 O237 2.356 . S
C229 O234 1.209 . S
C229 O236 1.226 . S
O230 Cd226 2.273 . S
O230 Cd228 2.411 . S
O230 C233 1.320 . S
O231 Cd228 2.333 . S
O231 C233 1.214 . S
O232 Cd228 2.352 . S
O232 C235 1.258 . S
C233 O230 1.320 . S
C233 O231 1.214 . S
O234 Cd226 2.277 . S
O234 C229 1.209 . S
C235 O232 1.258 . S
C235 O237 1.282 . S
O236 Cd228 2.277 . S
O236 C229 1.226 . S
O237 Cd228 2.356 . S
O237 C235 1.282 . S
C238 O239 1.306 . S
C238 O241 1.160 . S
O239 C238 1.306 . S
O239 Cd240 2.228 1_556 S
Cd240 O239 2.228 1_554 S
Cd240 O244 2.273 1_554 S
Cd240 O248 2.277 1_554 S
O241 C238 1.160 . S
O241 Cd242 2.203 . S
Cd242 O241 2.203 . S
Cd242 O244 2.411 . S
Cd242 O245 2.333 . S
Cd242 O246 2.352 . S
Cd242 O250 2.277 . S
Cd242 O251 2.356 . S
C243 O248 1.209 . S
C243 O250 1.226 . S
O244 Cd240 2.273 1_556 S
O244 Cd242 2.411 . S
O244 C247 1.320 . S
O245 Cd242 2.333 . S
O245 C247 1.214 . S
O246 Cd242 2.352 . S
O246 C249 1.258 . S
C247 O244 1.320 . S
C247 O245 1.214 . S
O248 Cd240 2.277 1_556 S
O248 C243 1.209 . S
C249 O246 1.258 . S
C249 O251 1.282 . S
O250 Cd242 2.277 . S
O250 C243 1.226 . S
O251 Cd242 2.356 . S
O251 C249 1.282 . S
C252 O253 1.306 . S
C252 O255 1.160 . S
O253 C252 1.306 . S
O253 Cd254 2.228 . S
Cd254 O253 2.228 . S
Cd254 O258 2.273 . S
Cd254 O262 2.277 . S
O255 C252 1.160 . S
O255 Cd256 2.203 . S
Cd256 O255 2.203 . S
Cd256 O258 2.411 . S
Cd256 O259 2.333 . S
Cd256 O260 2.352 . S
Cd256 O264 2.277 . S
Cd256 O265 2.356 . S
C257 O262 1.209 . S
C257 O264 1.226 . S
O258 Cd254 2.273 . S
O258 Cd256 2.411 . S
O258 C261 1.320 . S
O259 Cd256 2.333 . S
O259 C261 1.214 . S
O260 Cd256 2.352 . S
O260 C263 1.258 . S
C261 O258 1.320 . S
C261 O259 1.214 . S
O262 Cd254 2.277 . S
O262 C257 1.209 . S
C263 O260 1.258 . S
C263 O265 1.282 . S
O264 Cd256 2.277 . S
O264 C257 1.226 . S
O265 Cd256 2.356 . S
O265 C263 1.282 . S
C266 O267 1.306 . S
C266 O269 1.160 . S
O267 C266 1.306 . S
O267 Cd268 2.228 . S
Cd268 O267 2.228 . S
Cd268 O272 2.273 . S
Cd268 O276 2.277 . S
O269 C266 1.160 . S
O269 Cd270 2.203 . S
Cd270 O269 2.203 . S
Cd270 O272 2.411 . S
Cd270 O273 2.333 . S
Cd270 O274 2.352 . S
Cd270 O278 2.277 . S
Cd270 O279 2.356 . S
C271 O276 1.209 . S
C271 O278 1.226 . S
O272 Cd268 2.273 . S
O272 Cd270 2.411 . S
O272 C275 1.320 . S
O273 Cd270 2.333 . S
O273 C275 1.214 . S
O274 Cd270 2.352 . S
O274 C277 1.258 . S
C275 O272 1.320 . S
C275 O273 1.214 . S
O276 Cd268 2.277 . S
O276 C271 1.209 . S
C277 O274 1.258 . S
C277 O279 1.282 . S
O278 Cd270 2.277 . S
O278 C271 1.226 . S
O279 Cd270 2.356 . S
O279 C277 1.282 . S
C280 O281 1.306 . S
C280 O283 1.160 . S
O281 C280 1.306 . S
O281 Cd282 2.228 . S
Cd282 O281 2.228 . S
Cd282 O286 2.273 . S
Cd282 O290 2.277 . S
O283 C280 1.160 . S
O283 Cd284 2.203 . S
Cd284 O283 2.203 . S
Cd284 O286 2.411 . S
Cd284 O287 2.333 . S
Cd284 O288 2.352 . S
Cd284 O292 2.277 . S
Cd284 O293 2.356 . S
C285 O290 1.209 . S
C285 O292 1.226 . S
O286 Cd282 2.273 . S
O286 Cd284 2.411 . S
O286 C289 1.320 . S
O287 Cd284 2.333 . S
O287 C289 1.214 . S
O288 Cd284 2.352 . S
O288 C291 1.258 . S
C289 O286 1.320 . S
C289 O287 1.214 . S
O290 Cd282 2.277 . S
O290 C285 1.209 . S
C291 O288 1.258 . S
C291 O293 1.282 . S
O292 Cd284 2.277 . S
O292 C285 1.226 . S
O293 Cd284 2.356 . S
O293 C291 1.282 . S
C294 O295 1.306 . S
C294 O297 1.160 . S
O295 C294 1.306 . S
O295 Cd296 2.228 . S
Cd296 O295 2.228 . S
Cd296 O300 2.273 . S
Cd296 O304 2.277 . S
O297 C294 1.160 . S
O297 Cd298 2.203 . S
Cd298 O297 2.203 . S
Cd298 O300 2.411 . S
Cd298 O301 2.333 . S
Cd298 O302 2.352 . S
Cd298 O306 2.277 . S
Cd298 O307 2.356 . S
C299 O304 1.209 . S
C299 O306 1.226 . S
O300 Cd296 2.273 . S
O300 Cd298 2.411 . S
O300 C303 1.320 . S
O301 Cd298 2.333 . S
O301 C303 1.214 . S
O302 Cd298 2.352 . S
O302 C305 1.258 . S
C303 O300 1.320 . S
C303 O301 1.214 . S
O304 Cd296 2.277 . S
O304 C299 1.209 . S
C305 O302 1.258 . S
C305 O307 1.282 . S
O306 Cd298 2.277 . S
O306 C299 1.226 . S
O307 Cd298 2.356 . S
O307 C305 1.282 . S
C308 O309 1.306 . S
C308 O311 1.160 . S
O309 C308 1.306 . S
O309 Cd310 2.228 . S
Cd310 O309 2.228 . S
Cd310 O314 2.273 . S
Cd310 O318 2.277 . S
O311 C308 1.160 . S
O311 Cd312 2.203 . S
Cd312 O311 2.203 . S
Cd312 O314 2.411 . S
Cd312 O315 2.333 . S
Cd312 O316 2.352 . S
Cd312 O320 2.277 . S
Cd312 O321 2.356 . S
C313 O318 1.209 . S
C313 O320 1.226 . S
O314 Cd310 2.273 . S
O314 Cd312 2.411 . S
O314 C317 1.320 . S
O315 Cd312 2.333 . S
O315 C317 1.214 . S
O316 Cd312 2.352 . S
O316 C319 1.258 . S
C317 O314 1.320 . S
C317 O315 1.214 . S
O318 Cd310 2.277 . S
O318 C313 1.209 . S
C319 O316 1.258 . S
C319 O321 1.282 . S
O320 Cd312 2.277 . S
O320 C313 1.226 . S
O321 Cd312 2.356 . S
O321 C319 1.282 . S
C322 O323 1.306 . S
C322 O325 1.160 . S
O323 C322 1.306 . S
O323 Cd324 2.228 1_554 S
Cd324 O323 2.228 1_556 S
Cd324 O328 2.273 1_556 S
Cd324 O332 2.277 1_556 S
O325 C322 1.160 . S
O325 Cd326 2.203 . S
Cd326 O325 2.203 . S
Cd326 O328 2.411 . S
Cd326 O329 2.333 . S
Cd326 O330 2.352 . S
Cd326 O334 2.277 . S
Cd326 O335 2.356 . S
C327 O332 1.209 . S
C327 O334 1.226 . S
O328 Cd324 2.273 1_554 S
O328 Cd326 2.411 . S
O328 C331 1.320 . S
O329 Cd326 2.333 . S
O329 C331 1.214 . S
O330 Cd326 2.352 . S
O330 C333 1.258 . S
C331 O328 1.320 . S
C331 O329 1.214 . S
O332 Cd324 2.277 1_554 S
O332 C327 1.209 . S
C333 O330 1.258 . S
C333 O335 1.282 . S
O334 Cd326 2.277 . S
O334 C327 1.226 . S
O335 Cd326 2.356 . S
O335 C333 1.282 . S
C336 O337 1.306 . S
C336 O339 1.160 . S
O337 C336 1.306 . S
O337 Cd338 2.228 . S
Cd338 O337 2.228 . S
Cd338 O342 2.273 . S
Cd338 O346 2.277 . S
O339 C336 1.160 . S
O339 Cd340 2.203 . S
Cd340 O339 2.203 . S
Cd340 O342 2.411 . S
Cd340 O343 2.333 . S
Cd340 O344 2.352 . S
Cd340 O348 2.277 . S
Cd340 O349 2.356 . S
C341 O346 1.209 . S
C341 O348 1.226 . S
O342 Cd338 2.273 . S
O342 Cd340 2.411 . S
O342 C345 1.320 . S
O343 Cd340 2.333 . S
O343 C345 1.214 . S
O344 Cd340 2.352 . S
O344 C347 1.258 . S
C345 O342 1.320 . S
C345 O343 1.214 . S
O346 Cd338 2.277 . S
O346 C341 1.209 . S
C347 O344 1.258 . S
C347 O349 1.282 . S
O348 Cd340 2.277 . S
O348 C341 1.226 . S
O349 Cd340 2.356 . S
O349 C347 1.282 . S
C350 O351 1.306 . S
C350 O353 1.160 . S
O351 C350 1.306 . S
O351 Cd352 2.228 1_554 S
Cd352 O351 2.228 1_556 S
Cd352 O356 2.273 1_556 S
Cd352 O360 2.277 1_556 S
O353 C350 1.160 . S
O353 Cd354 2.203 . S
Cd354 O353 2.203 . S
Cd354 O356 2.411 . S
Cd354 O357 2.333 . S
Cd354 O358 2.352 . S
Cd354 O362 2.277 . S
Cd354 O363 2.356 . S
C355 O360 1.209 . S
C355 O362 1.226 . S
O356 Cd352 2.273 1_554 S
O356 Cd354 2.411 . S
O356 C359 1.320 . S
O357 Cd354 2.333 . S
O357 C359 1.214 . S
O358 Cd354 2.352 . S
O358 C361 1.258 . S
C359 O356 1.320 . S
C359 O357 1.214 . S
O360 Cd352 2.277 1_554 S
O360 C355 1.209 . S
C361 O358 1.258 . S
C361 O363 1.282 . S
O362 Cd354 2.277 . S
O362 C355 1.226 . S
O363 Cd354 2.356 . S
O363 C361 1.282 . S
C364 O365 1.306 . S
C364 O367 1.160 . S
O365 C364 1.306 . S
O365 Cd366 2.228 . S
Cd366 O365 2.228 . S
Cd366 O370 2.273 . S
Cd366 O374 2.277 . S
O367 C364 1.160 . S
O367 Cd368 2.203 . S
Cd368 O367 2.203 . S
Cd368 O370 2.411 . S
Cd368 O371 2.333 . S
Cd368 O372 2.352 . S
Cd368 O376 2.277 . S
Cd368 O377 2.356 . S
C369 O374 1.209 . S
C369 O376 1.226 . S
O370 Cd366 2.273 . S
O370 Cd368 2.411 . S
O370 C373 1.320 . S
O371 Cd368 2.333 . S
O371 C373 1.214 . S
O372 Cd368 2.352 . S
O372 C375 1.258 . S
C373 O370 1.320 . S
C373 O371 1.214 . S
O374 Cd366 2.277 . S
O374 C369 1.209 . S
C375 O372 1.258 . S
C375 O377 1.282 . S
O376 Cd368 2.277 . S
O376 C369 1.226 . S
O377 Cd368 2.356 . S
O377 C375 1.282 . S
C378 O379 1.306 . S
C378 O381 1.160 . S
O379 C378 1.306 . S
O379 Cd380 2.228 . S
Cd380 O379 2.228 . S
Cd380 O384 2.273 . S
Cd380 O388 2.277 . S
O381 C378 1.160 . S
O381 Cd382 2.203 . S
Cd382 O381 2.203 . S
Cd382 O384 2.411 . S
Cd382 O385 2.333 . S
Cd382 O386 2.352 . S
Cd382 O390 2.277 . S
Cd382 O391 2.356 . S
C383 O388 1.209 . S
C383 O390 1.226 . S
O384 Cd380 2.273 . S
O384 Cd382 2.411 . S
O384 C387 1.320 . S
O385 Cd382 2.333 . S
O385 C387 1.214 . S
O386 Cd382 2.352 . S
O386 C389 1.258 . S
C387 O384 1.320 . S
C387 O385 1.214 . S
O388 Cd380 2.277 . S
O388 C383 1.209 . S
C389 O386 1.258 . S
C389 O391 1.282 . S
O390 Cd382 2.277 . S
O390 C383 1.226 . S
O391 Cd382 2.356 . S
O391 C389 1.282 . S
C392 O393 1.306 . S
C392 O395 1.160 . S
O393 C392 1.306 . S
O393 Cd394 2.228 . S
Cd394 O393 2.228 . S
Cd394 O398 2.273 . S
Cd394 O402 2.277 . S
O395 C392 1.160 . S
O395 Cd396 2.203 . S
Cd396 O395 2.203 . S
Cd396 O398 2.411 . S
Cd396 O399 2.333 . S
Cd396 O400 2.352 . S
Cd396 O404 2.277 . S
Cd396 O405 2.356 . S
C397 O402 1.209 . S
C397 O404 1.226 . S
O398 Cd394 2.273 . S
O398 Cd396 2.411 . S
O398 C401 1.320 . S
O399 Cd396 2.333 . S
O399 C401 1.214 . S
O400 Cd396 2.352 . S
O400 C403 1.258 . S
C401 O398 1.320 . S
C401 O399 1.214 . S
O402 Cd394 2.277 . S
O402 C397 1.209 . S
C403 O400 1.258 . S
C403 O405 1.282 . S
O404 Cd396 2.277 . S
O404 C397 1.226 . S
O405 Cd396 2.356 . S
O405 C403 1.282 . S
C406 O407 1.306 . S
C406 O409 1.160 . S
O407 C406 1.306 . S
O407 Cd408 2.228 . S
Cd408 O407 2.228 . S
Cd408 O412 2.273 . S
Cd408 O416 2.277 . S
O409 C406 1.160 . S
O409 Cd410 2.203 . S
Cd410 O409 2.203 . S
Cd410 O412 2.411 . S
Cd410 O413 2.333 . S
Cd410 O414 2.352 . S
Cd410 O418 2.277 . S
Cd410 O419 2.356 . S
C411 O416 1.209 . S
C411 O418 1.226 . S
O412 Cd408 2.273 . S
O412 Cd410 2.411 . S
O412 C415 1.320 . S
O413 Cd410 2.333 . S
O413 C415 1.214 . S
O414 Cd410 2.352 . S
O414 C417 1.258 . S
C415 O412 1.320 . S
C415 O413 1.214 . S
O416 Cd408 2.277 . S
O416 C411 1.209 . S
C417 O414 1.258 . S
C417 O419 1.282 . S
O418 Cd410 2.277 . S
O418 C411 1.226 . S
O419 Cd410 2.356 . S
O419 C417 1.282 . S
C420 O421 1.306 . S
C420 O423 1.160 . S
O421 C420 1.306 . S
O421 Cd422 2.228 . S
Cd422 O421 2.228 . S
Cd422 O426 2.273 . S
Cd422 O430 2.277 . S
O423 C420 1.160 . S
O423 Cd424 2.203 . S
Cd424 O423 2.203 . S
Cd424 O426 2.411 . S
Cd424 O427 2.333 . S
Cd424 O428 2.352 . S
Cd424 O432 2.277 . S
Cd424 O433 2.356 . S
C425 O430 1.209 . S
C425 O432 1.226 . S
O426 Cd422 2.273 . S
O426 Cd424 2.411 . S
O426 C429 1.320 . S
O427 Cd424 2.333 . S
O427 C429 1.214 . S
O428 Cd424 2.352 . S
O428 C431 1.258 . S
C429 O426 1.320 . S
C429 O427 1.214 . S
O430 Cd422 2.277 . S
O430 C425 1.209 . S
C431 O428 1.258 . S
C431 O433 1.282 . S
O432 Cd424 2.277 . S
O432 C425 1.226 . S
O433 Cd424 2.356 . S
O433 C431 1.282 . S
C434 O435 1.306 . S
C434 O437 1.160 . S
O435 C434 1.306 . S
O435 Cd436 2.228 1_556 S
Cd436 O435 2.228 1_554 S
Cd436 O440 2.273 1_554 S
Cd436 O444 2.277 1_554 S
O437 C434 1.160 . S
O437 Cd438 2.203 . S
Cd438 O437 2.203 . S
Cd438 O440 2.411 . S
Cd438 O441 2.333 . S
Cd438 O442 2.352 . S
Cd438 O446 2.277 . S
Cd438 O447 2.356 . S
C439 O444 1.209 . S
C439 O446 1.226 . S
O440 Cd436 2.273 1_556 S
O440 Cd438 2.411 . S
O440 C443 1.320 . S
O441 Cd438 2.333 . S
O441 C443 1.214 . S
O442 Cd438 2.352 . S
O442 C445 1.258 . S
C443 O440 1.320 . S
C443 O441 1.214 . S
O444 Cd436 2.277 1_556 S
O444 C439 1.209 . S
C445 O442 1.258 . S
C445 O447 1.282 . S
O446 Cd438 2.277 . S
O446 C439 1.226 . S
O447 Cd438 2.356 . S
O447 C445 1.282 . S
H448 C460 0.930 . S
H449 C462 0.930 . S
H450 C463 0.930 . S
H451 C467 0.959 . S
H452 C467 0.959 . S
H453 C467 0.961 . S
H454 C468 0.960 . S
H455 C468 0.961 . S
H456 C468 0.959 . S
H457 C471 0.929 . S
H458 C472 0.931 . S
H459 C474 0.930 . S
C460 H448 0.930 . S
C460 C461 1.399 . S
C460 C465 1.399 . S
C461 C460 1.399 . S
C461 C462 1.376 . S
C462 H449 0.930 . S
C462 C461 1.376 . S
C462 C463 1.388 . S
C463 H450 0.930 . S
C463 C462 1.388 . S
C463 C464 1.390 . S
C464 C463 1.390 . S
C464 C465 1.394 . S
C464 C470 1.465 . S
C465 C460 1.399 . S
C465 C464 1.394 . S
C465 C466 1.516 . S
C466 C465 1.516 . S
C466 C467 1.502 . S
C466 C468 1.561 . S
C466 C469 1.526 . S
C467 H451 0.959 . S
C467 H452 0.959 . S
C467 H453 0.961 . S
C467 C466 1.502 . S
C468 H454 0.960 . S
C468 H455 0.961 . S
C468 H456 0.959 . S
C468 C466 1.561 . S
C469 C466 1.526 . S
C469 C470 1.396 . S
C469 C474 1.390 . S
C470 C464 1.465 . S
C470 C469 1.396 . S
C470 C471 1.399 . S
C471 H457 0.929 . S
C471 C470 1.399 . S
C471 C472 1.385 . S
C472 H458 0.931 . S
C472 C471 1.385 . S
C472 C473 1.389 . S
C473 C472 1.389 . S
C473 C474 1.387 . S
C474 H459 0.930 . S
C474 C469 1.390 . S
C474 C473 1.387 . S
H475 C487 0.930 . S
H476 C489 0.930 . S
H477 C490 0.930 . S
H478 C494 0.959 . S
H479 C494 0.959 . S
H480 C494 0.961 . S
H481 C495 0.928 1_565 S
H482 C495 0.961 . S
H483 C495 0.959 . S
H484 C498 0.929 . S
H485 C499 0.931 . S
H486 C501 0.930 . S
C487 H475 0.930 . S
C487 C488 1.399 . S
C487 C492 1.399 . S
C488 C487 1.399 . S
C488 C489 1.376 . S
C489 H476 0.930 . S
C489 C488 1.376 . S
C489 C490 1.388 . S
C490 H477 0.930 . S
C490 C489 1.388 . S
C490 C491 1.390 . S
C491 C490 1.390 . S
C491 C492 1.394 . S
C491 C497 1.465 1_565 S
C492 C487 1.399 . S
C492 C491 1.394 . S
C492 C493 1.516 1_565 S
C493 C492 1.516 1_545 S
C493 C494 1.502 . S
C493 C495 1.561 . S
C493 C496 1.526 . S
C494 H478 0.959 . S
C494 H479 0.959 . S
C494 H480 0.961 . S
C494 C493 1.502 . S
C495 H481 0.928 1_545 S
C495 H482 0.961 . S
C495 H483 0.959 . S
C495 C493 1.561 . S
C496 C493 1.526 . S
C496 C497 1.396 . S
C496 C501 1.390 . S
C497 C491 1.465 1_545 S
C497 C496 1.396 . S
C497 C498 1.399 . S
C498 H484 0.929 . S
C498 C497 1.399 . S
C498 C499 1.385 . S
C499 H485 0.931 . S
C499 C498 1.385 . S
C499 C500 1.389 . S
C500 C499 1.389 . S
C500 C501 1.387 . S
C501 H486 0.930 . S
C501 C496 1.390 . S
C501 C500 1.387 . S
H502 C514 0.930 . S
H503 C516 0.930 . S
H504 C517 0.930 . S
H505 C521 0.959 . S
H506 C521 0.959 . S
H507 C521 0.961 . S
H508 C522 0.960 . S
H509 C522 0.961 . S
H510 C522 0.959 . S
H511 C525 0.929 . S
H512 C526 0.931 . S
H513 C528 0.930 . S
C514 H502 0.930 . S
C514 C515 1.399 . S
C514 C519 1.399 . S
C515 C514 1.399 . S
C515 C516 1.376 . S
C516 H503 0.930 . S
C516 C515 1.376 . S
C516 C517 1.388 . S
C517 H504 0.930 . S
C517 C516 1.388 . S
C517 C518 1.390 . S
C518 C517 1.390 . S
C518 C519 1.394 . S
C518 C524 1.465 . S
C519 C514 1.399 . S
C519 C518 1.394 . S
C519 C520 1.516 . S
C520 C519 1.516 . S
C520 C521 1.502 . S
C520 C522 1.561 . S
C520 C523 1.526 . S
C521 H505 0.959 . S
C521 H506 0.959 . S
C521 H507 0.961 . S
C521 C520 1.502 . S
C522 H508 0.960 . S
C522 H509 0.961 . S
C522 H510 0.959 . S
C522 C520 1.561 . S
C523 C520 1.526 . S
C523 C524 1.396 . S
C523 C528 1.390 . S
C524 C518 1.465 . S
C524 C523 1.396 . S
C524 C525 1.399 . S
C525 H511 0.929 . S
C525 C524 1.399 . S
C525 C526 1.385 . S
C526 H512 0.931 . S
C526 C525 1.385 . S
C526 C527 1.389 . S
C527 C526 1.389 . S
C527 C528 1.387 . S
C528 H513 0.930 . S
C528 C523 1.390 . S
C528 C527 1.387 . S
H529 C541 0.930 1_554 S
H530 C543 0.930 . S
H531 C544 0.930 . S
H532 C548 0.959 . S
H533 C548 0.959 . S
H534 C548 0.961 . S
H535 C549 0.960 . S
H536 C549 0.961 . S
H537 C549 0.959 . S
H538 C552 0.929 . S
H539 C553 0.931 . S
H540 C555 0.930 . S
C541 H529 0.930 1_556 S
C541 C542 1.399 . S
C541 C546 1.399 1_556 S
C542 C541 1.399 . S
C542 C543 1.376 . S
C543 H530 0.930 . S
C543 C542 1.376 . S
C543 C544 1.388 . S
C544 H531 0.930 . S
C544 C543 1.388 . S
C544 C545 1.390 . S
C545 C544 1.390 . S
C545 C546 1.394 1_556 S
C545 C551 1.465 1_545 S
C546 C541 1.399 1_554 S
C546 C545 1.394 1_554 S
C546 C547 1.516 . S
C547 C546 1.516 . S
C547 C548 1.502 . S
C547 C549 1.561 . S
C547 C550 1.526 1_545 S
C548 H532 0.959 . S
C548 H533 0.959 . S
C548 H534 0.961 . S
C548 C547 1.502 . S
C549 H535 0.960 . S
C549 H536 0.961 . S
C549 H537 0.959 . S
C549 C547 1.561 . S
C550 C547 1.526 1_565 S
C550 C551 1.396 1_554 S
C550 C555 1.390 . S
C551 C545 1.465 1_565 S
C551 C550 1.396 1_556 S
C551 C552 1.399 . S
C552 H538 0.929 . S
C552 C551 1.399 . S
C552 C553 1.385 . S
C553 H539 0.931 . S
C553 C552 1.385 . S
C553 C554 1.389 1_556 S
C554 C553 1.389 1_554 S
C554 C555 1.387 . S
C555 H540 0.930 . S
C555 C550 1.390 . S
C555 C554 1.387 . S
H556 C568 0.930 . S
H557 C570 0.930 . S
H558 C571 0.930 . S
H559 C575 0.959 . S
H560 C575 0.959 . S
H561 C575 0.961 . S
H562 C576 0.960 . S
H563 C576 0.961 . S
H564 C576 0.959 . S
H565 C579 0.929 . S
H566 C580 0.931 . S
H567 C582 0.930 . S
C568 H556 0.930 . S
C568 C569 1.399 . S
C568 C573 1.399 . S
C569 C568 1.399 . S
C569 C570 1.376 . S
C570 H557 0.930 . S
C570 C569 1.376 . S
C570 C571 1.388 . S
C571 H558 0.930 . S
C571 C570 1.388 . S
C571 C572 1.390 . S
C572 C571 1.390 . S
C572 C573 1.394 . S
C572 C578 1.465 . S
C573 C568 1.399 . S
C573 C572 1.394 . S
C573 C574 1.516 . S
C574 C573 1.516 . S
C574 C575 1.502 . S
C574 C576 1.561 . S
C574 C577 1.526 . S
C575 H559 0.959 . S
C575 H560 0.959 . S
C575 H561 0.961 . S
C575 C574 1.502 . S
C576 H562 0.960 . S
C576 H563 0.961 . S
C576 H564 0.959 . S
C576 C574 1.561 . S
C577 C574 1.526 . S
C577 C578 1.396 . S
C577 C582 1.390 . S
C578 C572 1.465 . S
C578 C577 1.396 . S
C578 C579 1.399 . S
C579 H565 0.929 . S
C579 C578 1.399 . S
C579 C580 1.385 . S
C580 H566 0.931 . S
C580 C579 1.385 . S
C580 C581 1.389 . S
C581 C580 1.389 . S
C581 C582 1.387 . S
C582 H567 0.930 . S
C582 C577 1.390 . S
C582 C581 1.387 . S
H583 C595 0.930 . S
H584 C597 0.930 . S
H585 C598 0.930 . S
H586 C602 0.959 . S
H587 C602 0.959 . S
H588 C602 0.961 . S
H589 C603 0.960 . S
H590 C603 0.961 . S
H591 C603 0.959 . S
H592 C606 0.929 . S
H593 C607 0.931 . S
H594 C609 0.930 . S
C595 H583 0.930 . S
C595 C596 1.399 . S
C595 C600 1.399 . S
C596 C595 1.399 . S
C596 C597 1.376 . S
C597 H584 0.930 . S
C597 C596 1.376 . S
C597 C598 1.388 . S
C598 H585 0.930 . S
C598 C597 1.388 . S
C598 C599 1.390 . S
C599 C598 1.390 . S
C599 C600 1.394 . S
C599 C605 1.465 1_565 S
C600 C595 1.399 . S
C600 C599 1.394 . S
C600 C601 1.516 1_565 S
C601 C600 1.516 1_545 S
C601 C602 1.502 . S
C601 C603 1.561 . S
C601 C604 1.526 . S
C602 H586 0.959 . S
C602 H587 0.959 . S
C602 H588 0.961 . S
C602 C601 1.502 . S
C603 H589 0.960 . S
C603 H590 0.961 . S
C603 H591 0.959 . S
C603 C601 1.561 . S
C604 C601 1.526 . S
C604 C605 1.396 . S
C604 C609 1.390 . S
C605 C599 1.465 1_545 S
C605 C604 1.396 . S
C605 C606 1.399 . S
C606 H592 0.929 . S
C606 C605 1.399 . S
C606 C607 1.385 . S
C607 H593 0.931 . S
C607 C606 1.385 . S
C607 C608 1.389 . S
C608 C607 1.389 . S
C608 C609 1.387 . S
C609 H594 0.930 . S
C609 C604 1.390 . S
C609 C608 1.387 . S
H610 C622 0.930 . S
H611 C624 0.930 . S
H612 C625 0.930 . S
H613 C629 0.959 . S
H614 C629 0.959 . S
H615 C629 0.961 . S
H616 C630 0.960 . S
H617 C630 0.961 . S
H618 C630 0.959 . S
H619 C633 0.929 . S
H620 C634 0.931 . S
H621 C636 0.930 . S
C622 H610 0.930 . S
C622 C623 1.399 . S
C622 C627 1.399 . S
C623 C622 1.399 . S
C623 C624 1.376 . S
C624 H611 0.930 . S
C624 C623 1.376 . S
C624 C625 1.388 . S
C625 H612 0.930 . S
C625 C624 1.388 . S
C625 C626 1.390 . S
C626 C625 1.390 . S
C626 C627 1.394 . S
C626 C632 1.465 . S
C627 C622 1.399 . S
C627 C626 1.394 . S
C627 C628 1.516 . S
C628 C627 1.516 . S
C628 C629 1.502 . S
C628 C630 1.561 . S
C628 C631 1.526 . S
C629 H613 0.959 . S
C629 H614 0.959 . S
C629 H615 0.961 . S
C629 C628 1.502 . S
C630 H616 0.960 . S
C630 H617 0.961 . S
C630 H618 0.959 . S
C630 C628 1.561 . S
C631 C628 1.526 . S
C631 C632 1.396 . S
C631 C636 1.390 . S
C632 C626 1.465 . S
C632 C631 1.396 . S
C632 C633 1.399 . S
C633 H619 0.929 . S
C633 C632 1.399 . S
C633 C634 1.385 . S
C634 H620 0.931 . S
C634 C633 1.385 . S
C634 C635 1.389 . S
C635 C634 1.389 . S
C635 C636 1.387 . S
C636 H621 0.930 . S
C636 C631 1.390 . S
C636 C635 1.387 . S
H637 C649 0.930 1_554 S
H638 C651 0.930 . S
H639 C652 0.930 . S
H640 C656 0.959 . S
H641 C656 0.959 . S
H642 C656 0.961 . S
H643 C657 0.960 . S
H644 C657 0.961 1_565 S
H645 C657 0.959 1_566 S
H646 C660 0.929 . S
H647 C661 0.931 1_556 S
H648 C663 0.930 . S
C649 H637 0.930 1_556 S
C649 C650 1.399 . S
C649 C654 1.399 . S
C650 C649 1.399 . S
C650 C651 1.376 . S
C651 H638 0.930 . S
C651 C650 1.376 . S
C651 C652 1.388 . S
C652 H639 0.930 . S
C652 C651 1.388 . S
C652 C653 1.390 . S
C653 C652 1.390 . S
C653 C654 1.394 . S
C653 C659 1.465 1_545 S
C654 C649 1.399 . S
C654 C653 1.394 . S
C654 C655 1.516 1_556 S
C655 C654 1.516 1_554 S
C655 C656 1.502 . S
C655 C657 1.561 . S
C655 C658 1.526 1_545 S
C656 H640 0.959 . S
C656 H641 0.959 . S
C656 H642 0.961 . S
C656 C655 1.502 . S
C657 H643 0.960 . S
C657 H644 0.961 1_545 S
C657 H645 0.959 1_544 S
C657 C655 1.561 . S
C658 C655 1.526 1_565 S
C658 C659 1.396 1_554 S
C658 C663 1.390 . S
C659 C653 1.465 1_565 S
C659 C658 1.396 1_556 S
C659 C660 1.399 . S
C660 H646 0.929 . S
C660 C659 1.399 . S
C660 C661 1.385 1_556 S
C661 H647 0.931 1_554 S
C661 C660 1.385 1_554 S
C661 C662 1.389 . S
C662 C661 1.389 . S
C662 C663 1.387 . S
C663 H648 0.930 . S
C663 C658 1.390 . S
C663 C662 1.387 . S
H664 C676 0.930 . S
H665 C678 0.930 . S
H666 C679 0.930 . S
H667 C683 0.959 . S
H668 C683 0.959 . S
H669 C683 0.961 . S
H670 C684 0.960 . S
H671 C684 0.961 . S
H672 C684 0.959 . S
H673 C687 0.929 . S
H674 C688 0.931 . S
H675 C690 0.930 . S
C676 H664 0.930 . S
C676 C677 1.399 . S
C676 C681 1.399 . S
C677 C676 1.399 . S
C677 C678 1.376 . S
C678 H665 0.930 . S
C678 C677 1.376 . S
C678 C679 1.388 . S
C679 H666 0.930 . S
C679 C678 1.388 . S
C679 C680 1.390 . S
C680 C679 1.390 . S
C680 C681 1.394 . S
C680 C686 1.465 . S
C681 C676 1.399 . S
C681 C680 1.394 . S
C681 C682 1.516 . S
C682 C681 1.516 . S
C682 C683 1.502 . S
C682 C684 1.561 . S
C682 C685 1.526 . S
C683 H667 0.959 . S
C683 H668 0.959 . S
C683 H669 0.961 . S
C683 C682 1.502 . S
C684 H670 0.960 . S
C684 H671 0.961 . S
C684 H672 0.959 . S
C684 C682 1.561 . S
C685 C682 1.526 . S
C685 C686 1.396 . S
C685 C690 1.390 . S
C686 C680 1.465 . S
C686 C685 1.396 . S
C686 C687 1.399 . S
C687 H673 0.929 . S
C687 C686 1.399 . S
C687 C688 1.385 . S
C688 H674 0.931 . S
C688 C687 1.385 . S
C688 C689 1.389 . S
C689 C688 1.389 . S
C689 C690 1.387 . S
C690 H675 0.930 . S
C690 C685 1.390 . S
C690 C689 1.387 . S
H691 C703 0.930 . S
H692 C705 0.930 . S
H693 C706 0.930 . S
H694 C710 0.959 . S
H695 C710 0.959 . S
H696 C710 0.961 . S
H697 C711 0.960 . S
H698 C711 0.961 . S
H699 C711 0.959 . S
H700 C714 0.929 . S
H701 C715 0.931 . S
H702 C717 0.930 1_556 S
C703 H691 0.930 . S
C703 C704 1.399 . S
C703 C708 1.399 . S
C704 C703 1.399 . S
C704 C705 1.376 1_556 S
C705 H692 0.930 . S
C705 C704 1.376 1_554 S
C705 C706 1.388 . S
C706 H693 0.930 . S
C706 C705 1.388 . S
C706 C707 1.390 . S
C707 C706 1.390 . S
C707 C708 1.394 1_554 S
C707 C713 1.465 . S
C708 C703 1.399 . S
C708 C707 1.394 1_556 S
C708 C709 1.516 . S
C709 C708 1.516 . S
C709 C710 1.502 . S
C709 C711 1.561 . S
C709 C712 1.526 . S
C710 H694 0.959 . S
C710 H695 0.959 . S
C710 H696 0.961 . S
C710 C709 1.502 . S
C711 H697 0.960 . S
C711 H698 0.961 . S
C711 H699 0.959 . S
C711 C709 1.561 . S
C712 C709 1.526 . S
C712 C713 1.396 1_556 S
C712 C717 1.390 1_556 S
C713 C707 1.465 . S
C713 C712 1.396 1_554 S
C713 C714 1.399 . S
C714 H700 0.929 . S
C714 C713 1.399 . S
C714 C715 1.385 . S
C715 H701 0.931 . S
C715 C714 1.385 . S
C715 C716 1.389 . S
C716 C715 1.389 . S
C716 C717 1.387 . S
C717 H702 0.930 1_554 S
C717 C712 1.390 1_554 S
C717 C716 1.387 . S
H718 C730 0.930 . S
H719 C732 0.930 . S
H720 C733 0.930 . S
H721 C737 0.959 . S
H722 C737 0.959 . S
H723 C737 0.961 . S
H724 C738 0.960 . S
H725 C738 0.961 . S
H726 C738 0.959 . S
H727 C741 0.929 . S
H728 C742 0.931 . S
H729 C744 0.930 . S
C730 H718 0.930 . S
C730 C731 1.399 . S
C730 C735 1.399 . S
C731 C730 1.399 . S
C731 C732 1.376 . S
C732 H719 0.930 . S
C732 C731 1.376 . S
C732 C733 1.388 . S
C733 H720 0.930 . S
C733 C732 1.388 . S
C733 C734 1.390 . S
C734 C733 1.390 . S
C734 C735 1.394 . S
C734 C740 1.465 . S
C735 C730 1.399 . S
C735 C734 1.394 . S
C735 C736 1.516 . S
C736 C735 1.516 . S
C736 C737 1.502 . S
C736 C738 1.561 . S
C736 C739 1.526 . S
C737 H721 0.959 . S
C737 H722 0.959 . S
C737 H723 0.961 . S
C737 C736 1.502 . S
C738 H724 0.960 . S
C738 H725 0.961 . S
C738 H726 0.959 . S
C738 C736 1.561 . S
C739 C736 1.526 . S
C739 C740 1.396 . S
C739 C744 1.390 . S
C740 C734 1.465 . S
C740 C739 1.396 . S
C740 C741 1.399 . S
C741 H727 0.929 . S
C741 C740 1.399 . S
C741 C742 1.385 . S
C742 H728 0.931 . S
C742 C741 1.385 . S
C742 C743 1.389 . S
C743 C742 1.389 . S
C743 C744 1.387 . S
C744 H729 0.930 . S
C744 C739 1.390 . S
C744 C743 1.387 . S
H745 C757 0.930 . S
H746 C759 0.930 . S
H747 C760 0.930 . S
H748 C764 0.959 . S
H749 C764 0.959 . S
H750 C764 0.961 . S
H751 C765 0.960 . S
H752 C765 0.961 . S
H753 C765 0.959 . S
H754 C768 0.929 . S
H755 C769 0.931 . S
H756 C771 0.930 . S
C757 H745 0.930 . S
C757 C758 1.399 . S
C757 C762 1.399 . S
C758 C757 1.399 . S
C758 C759 1.376 . S
C759 H746 0.930 . S
C759 C758 1.376 . S
C759 C760 1.388 . S
C760 H747 0.930 . S
C760 C759 1.388 . S
C760 C761 1.390 . S
C761 C760 1.390 . S
C761 C762 1.394 . S
C761 C767 1.465 . S
C762 C757 1.399 . S
C762 C761 1.394 . S
C762 C763 1.516 . S
C763 C762 1.516 . S
C763 C764 1.502 . S
C763 C765 1.561 . S
C763 C766 1.526 . S
C764 H748 0.959 . S
C764 H749 0.959 . S
C764 H750 0.961 . S
C764 C763 1.502 . S
C765 H751 0.960 . S
C765 H752 0.961 . S
C765 H753 0.959 . S
C765 C763 1.561 . S
C766 C763 1.526 . S
C766 C767 1.396 . S
C766 C771 1.390 . S
C767 C761 1.465 . S
C767 C766 1.396 . S
C767 C768 1.399 . S
C768 H754 0.929 . S
C768 C767 1.399 . S
C768 C769 1.385 . S
C769 H755 0.931 . S
C769 C768 1.385 . S
C769 C770 1.389 . S
C770 C769 1.389 . S
C770 C771 1.387 . S
C771 H756 0.930 . S
C771 C766 1.390 . S
C771 C770 1.387 . S
H772 C784 0.930 . S
H773 C786 0.930 . S
H774 C787 0.930 . S
H775 C791 0.959 . S
H776 C791 0.959 . S
H777 C791 0.961 . S
H778 C792 0.960 . S
H779 C792 0.961 . S
H780 C792 0.959 . S
H781 C795 0.929 . S
H782 C796 0.931 . S
H783 C798 0.930 . S
C784 H772 0.930 . S
C784 C785 1.399 . S
C784 C789 1.399 . S
C785 C784 1.399 . S
C785 C786 1.376 . S
C786 H773 0.930 . S
C786 C785 1.376 . S
C786 C787 1.388 . S
C787 H774 0.930 . S
C787 C786 1.388 . S
C787 C788 1.390 . S
C788 C787 1.390 . S
C788 C789 1.394 . S
C788 C794 1.465 . S
C789 C784 1.399 . S
C789 C788 1.394 . S
C789 C790 1.516 . S
C790 C789 1.516 . S
C790 C791 1.502 . S
C790 C792 1.561 . S
C790 C793 1.526 . S
C791 H775 0.959 . S
C791 H776 0.959 . S
C791 H777 0.961 . S
C791 C790 1.502 . S
C792 H778 0.960 . S
C792 H779 0.961 . S
C792 H780 0.959 . S
C792 C790 1.561 . S
C793 C790 1.526 . S
C793 C794 1.396 . S
C793 C798 1.390 . S
C794 C788 1.465 . S
C794 C793 1.396 . S
C794 C795 1.399 . S
C795 H781 0.929 . S
C795 C794 1.399 . S
C795 C796 1.385 . S
C796 H782 0.931 . S
C796 C795 1.385 . S
C796 C797 1.389 . S
C797 C796 1.389 . S
C797 C798 1.387 . S
C798 H783 0.930 . S
C798 C793 1.390 . S
C798 C797 1.387 . S
H799 C811 0.930 . S
H800 C813 0.930 . S
H801 C814 0.930 . S
H802 C818 0.959 . S
H803 C818 0.959 . S
H804 C818 0.961 . S
H805 C819 0.960 . S
H806 C819 0.961 . S
H807 C819 0.959 . S
H808 C822 0.929 . S
H809 C823 0.931 . S
H810 C825 0.930 1_554 S
C811 H799 0.930 . S
C811 C812 1.399 . S
C811 C816 1.399 . S
C812 C811 1.399 . S
C812 C813 1.376 1_554 S
C813 H800 0.930 . S
C813 C812 1.376 1_556 S
C813 C814 1.388 . S
C814 H801 0.930 . S
C814 C813 1.388 . S
C814 C815 1.390 . S
C815 C814 1.390 . S
C815 C816 1.394 1_556 S
C815 C821 1.465 . S
C816 C811 1.399 . S
C816 C815 1.394 1_554 S
C816 C817 1.516 . S
C817 C816 1.516 . S
C817 C818 1.502 . S
C817 C819 1.561 . S
C817 C820 1.526 . S
C818 H802 0.959 . S
C818 H803 0.959 . S
C818 H804 0.961 . S
C818 C817 1.502 . S
C819 H805 0.960 . S
C819 H806 0.961 . S
C819 H807 0.959 . S
C819 C817 1.561 . S
C820 C817 1.526 . S
C820 C821 1.396 1_554 S
C820 C825 1.390 1_554 S
C821 C815 1.465 . S
C821 C820 1.396 1_556 S
C821 C822 1.399 . S
C822 H808 0.929 . S
C822 C821 1.399 . S
C822 C823 1.385 . S
C823 H809 0.931 . S
C823 C822 1.385 . S
C823 C824 1.389 . S
C824 C823 1.389 . S
C824 C825 1.387 . S
C825 H810 0.930 1_556 S
C825 C820 1.390 1_556 S
C825 C824 1.387 . S
H826 C838 0.930 . S
H827 C840 0.930 . S
H828 C841 0.930 . S
H829 C845 0.959 . S
H830 C845 0.959 . S
H831 C845 0.961 . S
H832 C846 0.960 . S
H833 C846 0.961 . S
H834 C846 0.959 . S
H835 C849 0.929 . S
H836 C850 0.931 . S
H837 C852 0.930 . S
C838 H826 0.930 . S
C838 C839 1.399 . S
C838 C843 1.399 . S
C839 C838 1.399 . S
C839 C840 1.376 . S
C840 H827 0.930 . S
C840 C839 1.376 . S
C840 C841 1.388 . S
C841 H828 0.930 . S
C841 C840 1.388 . S
C841 C842 1.390 . S
C842 C841 1.390 . S
C842 C843 1.394 . S
C842 C848 1.465 . S
C843 C838 1.399 . S
C843 C842 1.394 . S
C843 C844 1.516 . S
C844 C843 1.516 . S
C844 C845 1.502 . S
C844 C846 1.561 . S
C844 C847 1.526 . S
C845 H829 0.959 . S
C845 H830 0.959 . S
C845 H831 0.961 . S
C845 C844 1.502 . S
C846 H832 0.960 . S
C846 H833 0.961 . S
C846 H834 0.959 . S
C846 C844 1.561 . S
C847 C844 1.526 . S
C847 C848 1.396 . S
C847 C852 1.390 . S
C848 C842 1.465 . S
C848 C847 1.396 . S
C848 C849 1.399 . S
C849 H835 0.929 . S
C849 C848 1.399 . S
C849 C850 1.385 . S
C850 H836 0.931 . S
C850 C849 1.385 . S
C850 C851 1.389 . S
C851 C850 1.389 . S
C851 C852 1.387 . S
C852 H837 0.930 . S
C852 C847 1.390 . S
C852 C851 1.387 . S
H853 C865 0.930 . S
H854 C867 0.930 . S
H855 C868 0.930 . S
H856 C872 0.959 . S
H857 C872 0.959 . S
H858 C872 0.961 . S
H859 C873 0.960 . S
H860 C873 0.961 . S
H861 C873 0.959 . S
H862 C876 0.929 . S
H863 C877 0.931 . S
H864 C879 0.930 . S
C865 H853 0.930 . S
C865 C866 1.399 . S
C865 C870 1.399 . S
C866 C865 1.399 . S
C866 C867 1.376 . S
C867 H854 0.930 . S
C867 C866 1.376 . S
C867 C868 1.388 . S
C868 H855 0.930 . S
C868 C867 1.388 . S
C868 C869 1.390 . S
C869 C868 1.390 . S
C869 C870 1.394 . S
C869 C875 1.465 . S
C870 C865 1.399 . S
C870 C869 1.394 . S
C870 C871 1.516 . S
C871 C870 1.516 . S
C871 C872 1.502 . S
C871 C873 1.561 . S
C871 C874 1.526 . S
C872 H856 0.959 . S
C872 H857 0.959 . S
C872 H858 0.961 . S
C872 C871 1.502 . S
C873 H859 0.960 . S
C873 H860 0.961 . S
C873 H861 0.959 . S
C873 C871 1.561 . S
C874 C871 1.526 . S
C874 C875 1.396 . S
C874 C879 1.390 . S
C875 C869 1.465 . S
C875 C874 1.396 . S
C875 C876 1.399 . S
C876 H862 0.929 . S
C876 C875 1.399 . S
C876 C877 1.385 . S
C877 H863 0.931 . S
C877 C876 1.385 . S
C877 C878 1.389 . S
C878 C877 1.389 . S
C878 C879 1.387 . S
C879 H864 0.930 . S
C879 C874 1.390 . S
C879 C878 1.387 . S
H880 C892 0.930 . S
H881 C894 0.930 . S
H882 C895 0.930 . S
H883 C899 0.959 . S
H884 C899 0.959 . S
H885 C899 0.961 . S
H886 C900 0.960 . S
H887 C900 0.961 . S
H888 C900 0.959 . S
H889 C903 0.929 . S
H890 C904 0.931 . S
H891 C906 0.930 . S
C892 H880 0.930 . S
C892 C893 1.399 . S
C892 C897 1.399 . S
C893 C892 1.399 . S
C893 C894 1.376 1_556 S
C894 H881 0.930 . S
C894 C893 1.376 1_554 S
C894 C895 1.388 1_554 S
C895 H882 0.930 . S
C895 C894 1.388 1_556 S
C895 C896 1.390 . S
C896 C895 1.390 . S
C896 C897 1.394 . S
C896 C902 1.465 . S
C897 C892 1.399 . S
C897 C896 1.394 . S
C897 C898 1.516 . S
C898 C897 1.516 . S
C898 C899 1.502 . S
C898 C900 1.561 . S
C898 C901 1.526 . S
C899 H883 0.959 . S
C899 H884 0.959 . S
C899 H885 0.961 . S
C899 C898 1.502 . S
C900 H886 0.960 . S
C900 H887 0.961 . S
C900 H888 0.959 . S
C900 C898 1.561 . S
C901 C898 1.526 . S
C901 C902 1.396 . S
C901 C906 1.390 . S
C902 C896 1.465 . S
C902 C901 1.396 . S
C902 C903 1.399 . S
C903 H889 0.929 . S
C903 C902 1.399 . S
C903 C904 1.385 . S
C904 H890 0.931 . S
C904 C903 1.385 . S
C904 C905 1.389 . S
C905 C904 1.389 . S
C905 C906 1.387 . S
C906 H891 0.930 . S
C906 C901 1.390 . S
C906 C905 1.387 . S
H907 C919 0.930 . S
H908 C921 0.918 1_556 S
H909 C922 0.930 . S
H910 C926 0.959 . S
H911 C926 0.959 . S
H912 C926 0.961 . S
H913 C927 0.960 . S
H914 C927 0.961 . S
H915 C927 0.959 . S
H916 C930 0.929 . S
H917 C931 0.931 . S
H918 C933 0.930 . S
C919 H907 0.930 . S
C919 C920 1.399 . S
C919 C924 1.399 . S
C920 C919 1.399 . S
C920 C921 1.380 . S
C921 H908 0.918 1_554 S
C921 C920 1.380 . S
C921 C922 1.398 . S
C922 H909 0.930 . S
C922 C921 1.398 . S
C922 C923 1.390 . S
C923 C922 1.390 . S
C923 C924 1.394 . S
C923 C929 1.465 . S
C924 C919 1.399 . S
C924 C923 1.394 . S
C924 C925 1.516 . S
C925 C924 1.516 . S
C925 C926 1.502 . S
C925 C927 1.561 . S
C925 C928 1.526 . S
C926 H910 0.959 . S
C926 H911 0.959 . S
C926 H912 0.961 . S
C926 C925 1.502 . S
C927 H913 0.960 . S
C927 H914 0.961 . S
C927 H915 0.959 . S
C927 C925 1.561 . S
C928 C925 1.526 . S
C928 C929 1.396 . S
C928 C933 1.390 . S
C929 C923 1.465 . S
C929 C928 1.396 . S
C929 C930 1.399 . S
C930 H916 0.929 . S
C930 C929 1.399 . S
C930 C931 1.385 . S
C931 H917 0.931 . S
C931 C930 1.385 . S
C931 C932 1.389 . S
C932 C931 1.389 . S
C932 C933 1.387 . S
C933 H918 0.930 . S
C933 C928 1.390 . S
C933 C932 1.387 . S
H934 C946 0.930 . S
H935 C948 0.930 . S
H936 C949 0.930 . S
H937 C953 0.959 . S
H938 C953 0.959 . S
H939 C953 0.961 . S
H940 C954 0.960 . S
H941 C954 0.961 . S
H942 C954 0.959 . S
H943 C957 0.929 . S
H944 C958 0.931 . S
H945 C960 0.930 . S
C946 H934 0.930 . S
C946 C947 1.399 . S
C946 C951 1.399 . S
C947 C946 1.399 . S
C947 C948 1.376 . S
C948 H935 0.930 . S
C948 C947 1.376 . S
C948 C949 1.388 . S
C949 H936 0.930 . S
C949 C948 1.388 . S
C949 C950 1.390 . S
C950 C949 1.390 . S
C950 C951 1.394 . S
C950 C956 1.465 . S
C951 C946 1.399 . S
C951 C950 1.394 . S
C951 C952 1.516 . S
C952 C951 1.516 . S
C952 C953 1.502 . S
C952 C954 1.561 . S
C952 C955 1.526 . S
C953 H937 0.959 . S
C953 H938 0.959 . S
C953 H939 0.961 . S
C953 C952 1.502 . S
C954 H940 0.960 . S
C954 H941 0.961 . S
C954 H942 0.959 . S
C954 C952 1.561 . S
C955 C952 1.526 . S
C955 C956 1.396 . S
C955 C960 1.390 . S
C956 C950 1.465 . S
C956 C955 1.396 . S
C956 C957 1.399 . S
C957 H943 0.929 . S
C957 C956 1.399 . S
C957 C958 1.385 . S
C958 H944 0.931 . S
C958 C957 1.385 . S
C958 C959 1.389 . S
C959 C958 1.389 . S
C959 C960 1.387 . S
C960 H945 0.930 . S
C960 C955 1.390 . S
C960 C959 1.387 . S
H961 C973 0.930 . S
H962 C975 0.930 . S
H963 C976 0.930 . S
H964 C980 0.959 . S
H965 C980 0.959 . S
H966 C980 0.961 . S
H967 C981 0.960 . S
H968 C981 0.961 . S
H969 C981 0.959 . S
H970 C984 0.929 . S
H971 C985 0.931 . S
H972 C987 0.930 . S
C973 H961 0.930 . S
C973 C974 1.399 . S
C973 C978 1.399 . S
C974 C973 1.399 . S
C974 C975 1.376 . S
C975 H962 0.930 . S
C975 C974 1.376 . S
C975 C976 1.388 . S
C976 H963 0.930 . S
C976 C975 1.388 . S
C976 C977 1.390 . S
C977 C976 1.390 . S
C977 C978 1.394 . S
C977 C983 1.465 . S
C978 C973 1.399 . S
C978 C977 1.394 . S
C978 C979 1.516 . S
C979 C978 1.516 . S
C979 C980 1.502 . S
C979 C981 1.561 . S
C979 C982 1.526 . S
C980 H964 0.959 . S
C980 H965 0.959 . S
C980 H966 0.961 . S
C980 C979 1.502 . S
C981 H967 0.960 . S
C981 H968 0.961 . S
C981 H969 0.959 . S
C981 C979 1.561 . S
C982 C979 1.526 . S
C982 C983 1.396 . S
C982 C987 1.390 . S
C983 C977 1.465 . S
C983 C982 1.396 . S
C983 C984 1.399 . S
C984 H970 0.929 . S
C984 C983 1.399 . S
C984 C985 1.385 . S
C985 H971 0.931 . S
C985 C984 1.385 . S
C985 C986 1.389 . S
C986 C985 1.389 . S
C986 C987 1.387 . S
C987 H972 0.930 . S
C987 C982 1.390 . S
C987 C986 1.387 . S
H988 C1000 0.930 . S
H989 C1002 0.930 . S
H990 C1003 0.930 . S
H991 C1007 0.959 . S
H992 C1007 0.959 . S
H993 C1007 0.961 . S
H994 C1008 0.960 . S
H995 C1008 0.961 . S
H996 C1008 0.959 . S
H997 C1011 0.929 . S
H998 C1012 0.931 . S
H999 C1014 0.930 . S
C1000 H988 0.930 . S
C1000 C1001 1.399 . S
C1000 C1005 1.399 . S
C1001 C1000 1.399 . S
C1001 C1002 1.376 . S
C1002 H989 0.930 . S
C1002 C1001 1.376 . S
C1002 C1003 1.388 . S
C1003 H990 0.930 . S
C1003 C1002 1.388 . S
C1003 C1004 1.390 . S
C1004 C1003 1.390 . S
C1004 C1005 1.394 . S
C1004 C1010 1.465 . S
C1005 C1000 1.399 . S
C1005 C1004 1.394 . S
C1005 C1006 1.516 . S
C1006 C1005 1.516 . S
C1006 C1007 1.502 . S
C1006 C1008 1.561 . S
C1006 C1009 1.526 . S
C1007 H991 0.959 . S
C1007 H992 0.959 . S
C1007 H993 0.961 . S
C1007 C1006 1.502 . S
C1008 H994 0.960 . S
C1008 H995 0.961 . S
C1008 H996 0.959 . S
C1008 C1006 1.561 . S
C1009 C1006 1.526 . S
C1009 C1010 1.396 . S
C1009 C1014 1.390 . S
C1010 C1004 1.465 . S
C1010 C1009 1.396 . S
C1010 C1011 1.399 . S
C1011 H997 0.929 . S
C1011 C1010 1.399 . S
C1011 C1012 1.385 . S
C1012 H998 0.931 . S
C1012 C1011 1.385 . S
C1012 C1013 1.389 . S
C1013 C1012 1.389 . S
C1013 C1014 1.387 . S
C1014 H999 0.930 . S
C1014 C1009 1.390 . S
C1014 C1013 1.387 . S
H1015 C1027 0.930 . S
H1016 C1029 0.930 . S
H1017 C1030 0.930 . S
H1018 C1034 0.959 . S
H1019 C1034 0.959 . S
H1020 C1034 0.961 . S
H1021 C1035 0.960 . S
H1022 C1035 0.961 . S
H1023 C1035 0.959 . S
H1024 C1038 0.929 . S
H1025 C1039 0.931 . S
H1026 C1041 0.930 . S
C1027 H1015 0.930 . S
C1027 C1028 1.399 . S
C1027 C1032 1.399 . S
C1028 C1027 1.399 . S
C1028 C1029 1.376 . S
C1029 H1016 0.930 . S
C1029 C1028 1.376 . S
C1029 C1030 1.388 . S
C1030 H1017 0.930 . S
C1030 C1029 1.388 . S
C1030 C1031 1.390 . S
C1031 C1030 1.390 . S
C1031 C1032 1.394 . S
C1031 C1037 1.465 . S
C1032 C1027 1.399 . S
C1032 C1031 1.394 . S
C1032 C1033 1.516 . S
C1033 C1032 1.516 . S
C1033 C1034 1.502 . S
C1033 C1035 1.561 . S
C1033 C1036 1.526 . S
C1034 H1018 0.959 . S
C1034 H1019 0.959 . S
C1034 H1020 0.961 . S
C1034 C1033 1.502 . S
C1035 H1021 0.960 . S
C1035 H1022 0.961 . S
C1035 H1023 0.959 . S
C1035 C1033 1.561 . S
C1036 C1033 1.526 . S
C1036 C1037 1.396 . S
C1036 C1041 1.390 . S
C1037 C1031 1.465 . S
C1037 C1036 1.396 . S
C1037 C1038 1.399 . S
C1038 H1024 0.929 . S
C1038 C1037 1.399 . S
C1038 C1039 1.385 . S
C1039 H1025 0.931 . S
C1039 C1038 1.385 . S
C1039 C1040 1.389 . S
C1040 C1039 1.389 . S
C1040 C1041 1.387 . S
C1041 H1026 0.930 . S
C1041 C1036 1.390 . S
C1041 C1040 1.387 . S
H1042 C1054 0.930 . S
H1043 C1056 0.930 . S
H1044 C1057 0.930 . S
H1045 C1061 0.959 . S
H1046 C1061 0.959 . S
H1047 C1061 0.961 . S
H1048 C1062 0.960 . S
H1049 C1062 0.961 . S
H1050 C1062 0.959 . S
H1051 C1065 0.929 . S
H1052 C1066 0.931 . S
H1053 C1068 0.930 . S
C1054 H1042 0.930 . S
C1054 C1055 1.399 . S
C1054 C1059 1.399 . S
C1055 C1054 1.399 . S
C1055 C1056 1.376 . S
C1056 H1043 0.930 . S
C1056 C1055 1.376 . S
C1056 C1057 1.388 . S
C1057 H1044 0.930 . S
C1057 C1056 1.388 . S
C1057 C1058 1.390 . S
C1058 C1057 1.390 . S
C1058 C1059 1.394 . S
C1058 C1064 1.465 . S
C1059 C1054 1.399 . S
C1059 C1058 1.394 . S
C1059 C1060 1.516 . S
C1060 C1059 1.516 . S
C1060 C1061 1.502 . S
C1060 C1062 1.561 . S
C1060 C1063 1.526 . S
C1061 H1045 0.959 . S
C1061 H1046 0.959 . S
C1061 H1047 0.961 . S
C1061 C1060 1.502 . S
C1062 H1048 0.960 . S
C1062 H1049 0.961 . S
C1062 H1050 0.959 . S
C1062 C1060 1.561 . S
C1063 C1060 1.526 . S
C1063 C1064 1.396 . S
C1063 C1068 1.390 . S
C1064 C1058 1.465 . S
C1064 C1063 1.396 . S
C1064 C1065 1.399 . S
C1065 H1051 0.929 . S
C1065 C1064 1.399 . S
C1065 C1066 1.385 . S
C1066 H1052 0.931 . S
C1066 C1065 1.385 . S
C1066 C1067 1.389 . S
C1067 C1066 1.389 . S
C1067 C1068 1.387 . S
C1068 H1053 0.930 . S
C1068 C1063 1.390 . S
C1068 C1067 1.387 . S
H1069 C1081 0.930 . S
H1070 C1083 0.930 . S
H1071 C1084 0.930 . S
H1072 C1088 0.959 . S
H1073 C1088 0.959 . S
H1074 C1088 0.961 . S
H1075 C1089 0.960 . S
H1076 C1089 0.961 . S
H1077 C1089 0.959 . S
H1078 C1092 0.929 . S
H1079 C1093 0.931 . S
H1080 C1095 0.930 . S
C1081 H1069 0.930 . S
C1081 C1082 1.399 . S
C1081 C1086 1.399 . S
C1082 C1081 1.399 . S
C1082 C1083 1.376 . S
C1083 H1070 0.930 . S
C1083 C1082 1.376 . S
C1083 C1084 1.388 . S
C1084 H1071 0.930 . S
C1084 C1083 1.388 . S
C1084 C1085 1.390 . S
C1085 C1084 1.390 . S
C1085 C1086 1.394 . S
C1085 C1091 1.465 . S
C1086 C1081 1.399 . S
C1086 C1085 1.394 . S
C1086 C1087 1.516 . S
C1087 C1086 1.516 . S
C1087 C1088 1.502 . S
C1087 C1089 1.561 . S
C1087 C1090 1.526 . S
C1088 H1072 0.959 . S
C1088 H1073 0.959 . S
C1088 H1074 0.961 . S
C1088 C1087 1.502 . S
C1089 H1075 0.960 . S
C1089 H1076 0.961 . S
C1089 H1077 0.959 . S
C1089 C1087 1.561 . S
C1090 C1087 1.526 . S
C1090 C1091 1.396 . S
C1090 C1095 1.390 . S
C1091 C1085 1.465 . S
C1091 C1090 1.396 . S
C1091 C1092 1.399 . S
C1092 H1078 0.929 . S
C1092 C1091 1.399 . S
C1092 C1093 1.385 . S
C1093 H1079 0.931 . S
C1093 C1092 1.385 . S
C1093 C1094 1.389 . S
C1094 C1093 1.389 . S
C1094 C1095 1.387 . S
C1095 H1080 0.930 . S
C1095 C1090 1.390 . S
C1095 C1094 1.387 . S
H1096 C1108 0.930 . S
H1097 C1110 0.930 . S
H1098 C1111 0.930 . S
H1099 C1115 0.959 . S
H1100 C1115 0.959 . S
H1101 C1115 0.961 . S
H1102 C1116 0.960 . S
H1103 C1116 0.961 . S
H1104 C1116 0.959 . S
H1105 C1119 0.929 . S
H1106 C1120 0.931 . S
H1107 C1122 0.930 . S
C1108 H1096 0.930 . S
C1108 C1109 1.399 . S
C1108 C1113 1.399 . S
C1109 C1108 1.399 . S
C1109 C1110 1.376 . S
C1110 H1097 0.930 . S
C1110 C1109 1.376 . S
C1110 C1111 1.388 . S
C1111 H1098 0.930 . S
C1111 C1110 1.388 . S
C1111 C1112 1.390 . S
C1112 C1111 1.390 . S
C1112 C1113 1.394 . S
C1112 C1118 1.465 . S
C1113 C1108 1.399 . S
C1113 C1112 1.394 . S
C1113 C1114 1.516 . S
C1114 C1113 1.516 . S
C1114 C1115 1.502 . S
C1114 C1116 1.561 . S
C1114 C1117 1.526 . S
C1115 H1099 0.959 . S
C1115 H1100 0.959 . S
C1115 H1101 0.961 . S
C1115 C1114 1.502 . S
C1116 H1102 0.960 . S
C1116 H1103 0.961 . S
C1116 H1104 0.959 . S
C1116 C1114 1.561 . S
C1117 C1114 1.526 . S
C1117 C1118 1.396 . S
C1117 C1122 1.390 . S
C1118 C1112 1.465 . S
C1118 C1117 1.396 . S
C1118 C1119 1.399 . S
C1119 H1105 0.929 . S
C1119 C1118 1.399 . S
C1119 C1120 1.385 . S
C1120 H1106 0.931 . S
C1120 C1119 1.385 . S
C1120 C1121 1.389 . S
C1121 C1120 1.389 . S
C1121 C1122 1.387 . S
C1122 H1107 0.930 . S
C1122 C1117 1.390 . S
C1122 C1121 1.387 . S
H1123 C1135 0.930 . S
H1124 C1137 0.930 . S
H1125 C1138 0.930 . S
H1126 C1142 0.959 . S
H1127 C1142 0.959 . S
H1128 C1142 0.961 . S
H1129 C1143 0.960 . S
H1130 C1143 0.961 . S
H1131 C1143 0.959 . S
H1132 C1146 0.929 . S
H1133 C1147 0.931 . S
H1134 C1149 0.930 . S
C1135 H1123 0.930 . S
C1135 C1136 1.399 . S
C1135 C1140 1.399 . S
C1136 C1135 1.399 . S
C1136 C1137 1.376 . S
C1137 H1124 0.930 . S
C1137 C1136 1.376 . S
C1137 C1138 1.388 . S
C1138 H1125 0.930 . S
C1138 C1137 1.388 . S
C1138 C1139 1.390 . S
C1139 C1138 1.390 . S
C1139 C1140 1.394 . S
C1139 C1145 1.465 . S
C1140 C1135 1.399 . S
C1140 C1139 1.394 . S
C1140 C1141 1.516 . S
C1141 C1140 1.516 . S
C1141 C1142 1.502 . S
C1141 C1143 1.561 . S
C1141 C1144 1.526 . S
C1142 H1126 0.959 . S
C1142 H1127 0.959 . S
C1142 H1128 0.961 . S
C1142 C1141 1.502 . S
C1143 H1129 0.960 . S
C1143 H1130 0.961 . S
C1143 H1131 0.959 . S
C1143 C1141 1.561 . S
C1144 C1141 1.526 . S
C1144 C1145 1.396 . S
C1144 C1149 1.390 . S
C1145 C1139 1.465 . S
C1145 C1144 1.396 . S
C1145 C1146 1.399 . S
C1146 H1132 0.929 . S
C1146 C1145 1.399 . S
C1146 C1147 1.385 . S
C1147 H1133 0.931 . S
C1147 C1146 1.385 . S
C1147 C1148 1.389 . S
C1148 C1147 1.389 . S
C1148 C1149 1.387 . S
C1149 H1134 0.930 . S
C1149 C1144 1.390 . S
C1149 C1148 1.387 . S
H1150 C1162 0.930 . S
H1151 C1164 0.930 . S
H1152 C1165 0.930 . S
H1153 C1169 0.959 . S
H1154 C1169 0.959 . S
H1155 C1169 0.961 . S
H1156 C1170 0.960 . S
H1157 C1170 0.961 . S
H1158 C1170 0.959 . S
H1159 C1173 0.929 . S
H1160 C1174 0.931 . S
H1161 C1176 0.930 . S
C1162 H1150 0.930 . S
C1162 C1163 1.399 . S
C1162 C1167 1.399 . S
C1163 C1162 1.399 . S
C1163 C1164 1.376 . S
C1164 H1151 0.930 . S
C1164 C1163 1.376 . S
C1164 C1165 1.388 . S
C1165 H1152 0.930 . S
C1165 C1164 1.388 . S
C1165 C1166 1.390 . S
C1166 C1165 1.390 . S
C1166 C1167 1.394 . S
C1166 C1172 1.465 . S
C1167 C1162 1.399 . S
C1167 C1166 1.394 . S
C1167 C1168 1.516 . S
C1168 C1167 1.516 . S
C1168 C1169 1.502 . S
C1168 C1170 1.561 . S
C1168 C1171 1.526 . S
C1169 H1153 0.959 . S
C1169 H1154 0.959 . S
C1169 H1155 0.961 . S
C1169 C1168 1.502 . S
C1170 H1156 0.960 . S
C1170 H1157 0.961 . S
C1170 H1158 0.959 . S
C1170 C1168 1.561 . S
C1171 C1168 1.526 . S
C1171 C1172 1.396 . S
C1171 C1176 1.390 . S
C1172 C1166 1.465 . S
C1172 C1171 1.396 . S
C1172 C1173 1.399 . S
C1173 H1159 0.929 . S
C1173 C1172 1.399 . S
C1173 C1174 1.385 1_556 S
C1174 H1160 0.931 . S
C1174 C1173 1.385 1_554 S
C1174 C1175 1.389 1_554 S
C1175 C1174 1.389 1_556 S
C1175 C1176 1.387 . S
C1176 H1161 0.930 . S
C1176 C1171 1.390 . S
C1176 C1175 1.387 . S
H1177 C1189 0.930 . S
H1178 C1191 0.930 . S
H1179 C1192 0.930 . S
H1180 C1196 0.959 . S
H1181 C1196 0.959 . S
H1182 C1196 0.961 . S
H1183 C1197 0.960 . S
H1184 C1197 0.961 . S
H1185 C1197 0.959 . S
H1186 C1200 0.929 . S
H1187 C1201 0.931 . S
H1188 C1203 0.930 . S
C1189 H1177 0.930 . S
C1189 C1190 1.399 . S
C1189 C1194 1.399 . S
C1190 C1189 1.399 . S
C1190 C1191 1.376 . S
C1191 H1178 0.930 . S
C1191 C1190 1.376 . S
C1191 C1192 1.388 . S
C1192 H1179 0.930 . S
C1192 C1191 1.388 . S
C1192 C1193 1.390 . S
C1193 C1192 1.390 . S
C1193 C1194 1.394 . S
C1193 C1199 1.465 . S
C1194 C1189 1.399 . S
C1194 C1193 1.394 . S
C1194 C1195 1.516 . S
C1195 C1194 1.516 . S
C1195 C1196 1.502 . S
C1195 C1197 1.561 . S
C1195 C1198 1.526 . S
C1196 H1180 0.959 . S
C1196 H1181 0.959 . S
C1196 H1182 0.961 . S
C1196 C1195 1.502 . S
C1197 H1183 0.960 . S
C1197 H1184 0.961 . S
C1197 H1185 0.959 . S
C1197 C1195 1.561 . S
C1198 C1195 1.526 . S
C1198 C1199 1.396 . S
C1198 C1203 1.390 . S
C1199 C1193 1.465 . S
C1199 C1198 1.396 . S
C1199 C1200 1.399 . S
C1200 H1186 0.929 . S
C1200 C1199 1.399 . S
C1200 C1201 1.385 . S
C1201 H1187 0.931 . S
C1201 C1200 1.385 . S
C1201 C1202 1.389 . S
C1202 C1201 1.389 . S
C1202 C1203 1.387 . S
C1203 H1188 0.930 . S
C1203 C1198 1.390 . S
C1203 C1202 1.387 . S
H1204 C1216 0.930 . S
H1205 C1218 0.930 . S
H1206 C1219 0.930 . S
H1207 C1223 0.959 . S
H1208 C1223 0.959 . S
H1209 C1223 0.961 . S
H1210 C1224 0.960 . S
H1211 C1224 0.961 . S
H1212 C1224 0.959 . S
H1213 C1227 0.929 . S
H1214 C1228 0.931 . S
H1215 C1230 0.930 . S
C1216 H1204 0.930 . S
C1216 C1217 1.399 . S
C1216 C1221 1.399 . S
C1217 C1216 1.399 . S
C1217 C1218 1.376 . S
C1218 H1205 0.930 . S
C1218 C1217 1.376 . S
C1218 C1219 1.388 . S
C1219 H1206 0.930 . S
C1219 C1218 1.388 . S
C1219 C1220 1.390 . S
C1220 C1219 1.390 . S
C1220 C1221 1.394 . S
C1220 C1226 1.465 . S
C1221 C1216 1.399 . S
C1221 C1220 1.394 . S
C1221 C1222 1.516 . S
C1222 C1221 1.516 . S
C1222 C1223 1.502 . S
C1222 C1224 1.561 . S
C1222 C1225 1.526 . S
C1223 H1207 0.959 . S
C1223 H1208 0.959 . S
C1223 H1209 0.961 . S
C1223 C1222 1.502 . S
C1224 H1210 0.960 . S
C1224 H1211 0.961 . S
C1224 H1212 0.959 . S
C1224 C1222 1.561 . S
C1225 C1222 1.526 . S
C1225 C1226 1.396 . S
C1225 C1230 1.390 . S
C1226 C1220 1.465 . S
C1226 C1225 1.396 . S
C1226 C1227 1.399 . S
C1227 H1213 0.929 . S
C1227 C1226 1.399 . S
C1227 C1228 1.385 . S
C1228 H1214 0.931 . S
C1228 C1227 1.385 . S
C1228 C1229 1.389 . S
C1229 C1228 1.389 . S
C1229 C1230 1.387 . S
C1230 H1215 0.930 . S
C1230 C1225 1.390 . S
C1230 C1229 1.387 . S
H1231 C1243 0.930 . S
H1232 C1245 0.930 . S
H1233 C1246 0.930 . S
H1234 C1250 0.959 . S
H1235 C1250 0.959 . S
H1236 C1250 0.961 . S
H1237 C1251 0.960 . S
H1238 C1251 0.961 . S
H1239 C1251 0.959 . S
H1240 C1254 0.929 . S
H1241 C1255 0.931 . S
H1242 C1257 0.930 . S
C1243 H1231 0.930 . S
C1243 C1244 1.399 . S
C1243 C1248 1.399 . S
C1244 C1243 1.399 . S
C1244 C1245 1.376 . S
C1245 H1232 0.930 . S
C1245 C1244 1.376 . S
C1245 C1246 1.388 . S
C1246 H1233 0.930 . S
C1246 C1245 1.388 . S
C1246 C1247 1.390 . S
C1247 C1246 1.390 . S
C1247 C1248 1.394 . S
C1247 C1253 1.465 . S
C1248 C1243 1.399 . S
C1248 C1247 1.394 . S
C1248 C1249 1.516 . S
C1249 C1248 1.516 . S
C1249 C1250 1.502 . S
C1249 C1251 1.561 . S
C1249 C1252 1.526 . S
C1250 H1234 0.959 . S
C1250 H1235 0.959 . S
C1250 H1236 0.961 . S
C1250 C1249 1.502 . S
C1251 H1237 0.960 . S
C1251 H1238 0.961 . S
C1251 H1239 0.959 . S
C1251 C1249 1.561 . S
C1252 C1249 1.526 . S
C1252 C1253 1.396 . S
C1252 C1257 1.390 . S
C1253 C1247 1.465 . S
C1253 C1252 1.396 . S
C1253 C1254 1.399 . S
C1254 H1240 0.929 . S
C1254 C1253 1.399 . S
C1254 C1255 1.385 . S
C1255 H1241 0.931 . S
C1255 C1254 1.385 . S
C1255 C1256 1.389 . S
C1256 C1255 1.389 . S
C1256 C1257 1.387 . S
C1257 H1242 0.930 . S
C1257 C1252 1.390 . S
C1257 C1256 1.387 . S
H1258 C1270 0.930 . S
H1259 C1272 0.930 . S
H1260 C1273 0.930 . S
H1261 C1277 0.959 . S
H1262 C1277 0.959 . S
H1263 C1277 0.961 . S
H1264 C1278 0.960 . S
H1265 C1278 0.961 . S
H1266 C1278 0.959 . S
H1267 C1281 0.929 . S
H1268 C1282 0.931 . S
H1269 C1284 0.930 . S
C1270 H1258 0.930 . S
C1270 C1271 1.399 . S
C1270 C1275 1.399 . S
C1271 C1270 1.399 . S
C1271 C1272 1.376 . S
C1272 H1259 0.930 . S
C1272 C1271 1.376 . S
C1272 C1273 1.388 . S
C1273 H1260 0.930 . S
C1273 C1272 1.388 . S
C1273 C1274 1.390 . S
C1274 C1273 1.390 . S
C1274 C1275 1.394 . S
C1274 C1280 1.465 . S
C1275 C1270 1.399 . S
C1275 C1274 1.394 . S
C1275 C1276 1.516 . S
C1276 C1275 1.516 . S
C1276 C1277 1.502 . S
C1276 C1278 1.561 . S
C1276 C1279 1.526 . S
C1277 H1261 0.959 . S
C1277 H1262 0.959 . S
C1277 H1263 0.961 . S
C1277 C1276 1.502 . S
C1278 H1264 0.960 . S
C1278 H1265 0.961 . S
C1278 H1266 0.959 . S
C1278 C1276 1.561 . S
C1279 C1276 1.526 . S
C1279 C1280 1.396 . S
C1279 C1284 1.390 . S
C1280 C1274 1.465 . S
C1280 C1279 1.396 . S
C1280 C1281 1.399 . S
C1281 H1267 0.929 . S
C1281 C1280 1.399 . S
C1281 C1282 1.385 . S
C1282 H1268 0.931 . S
C1282 C1281 1.385 . S
C1282 C1283 1.389 . S
C1283 C1282 1.389 . S
C1283 C1284 1.387 . S
C1284 H1269 0.930 . S
C1284 C1279 1.390 . S
C1284 C1283 1.387 . S
H1285 C1297 0.930 . S
H1286 C1299 0.930 . S
H1287 C1300 0.930 . S
H1288 C1304 0.959 . S
H1289 C1304 0.959 . S
H1290 C1304 0.961 . S
H1291 C1305 0.960 . S
H1292 C1305 0.961 . S
H1293 C1305 0.959 . S
H1294 C1308 0.929 . S
H1295 C1309 0.931 1_554 S
H1296 C1311 0.930 . S
C1297 H1285 0.930 . S
C1297 C1298 1.399 . S
C1297 C1302 1.399 . S
C1298 C1297 1.399 . S
C1298 C1299 1.376 . S
C1299 H1286 0.930 . S
C1299 C1298 1.376 . S
C1299 C1300 1.388 . S
C1300 H1287 0.930 . S
C1300 C1299 1.388 . S
C1300 C1301 1.390 . S
C1301 C1300 1.390 . S
C1301 C1302 1.394 . S
C1301 C1307 1.465 . S
C1302 C1297 1.399 . S
C1302 C1301 1.394 . S
C1302 C1303 1.516 . S
C1303 C1302 1.516 . S
C1303 C1304 1.502 . S
C1303 C1305 1.561 . S
C1303 C1306 1.526 . S
C1304 H1288 0.959 . S
C1304 H1289 0.959 . S
C1304 H1290 0.961 . S
C1304 C1303 1.502 . S
C1305 H1291 0.960 . S
C1305 H1292 0.961 . S
C1305 H1293 0.959 . S
C1305 C1303 1.561 . S
C1306 C1303 1.526 . S
C1306 C1307 1.396 . S
C1306 C1311 1.390 . S
C1307 C1301 1.465 . S
C1307 C1306 1.396 . S
C1307 C1308 1.399 . S
C1308 H1294 0.929 . S
C1308 C1307 1.399 . S
C1308 C1309 1.385 . S
C1309 H1295 0.931 1_556 S
C1309 C1308 1.385 . S
C1309 C1310 1.389 . S
C1310 C1309 1.389 . S
C1310 C1311 1.387 . S
C1311 H1296 0.930 . S
C1311 C1306 1.390 . S
C1311 C1310 1.387 . S
H1312 C1324 0.930 . S
H1313 C1326 0.930 . S
H1314 C1327 0.930 . S
H1315 C1331 0.959 . S
H1316 C1331 0.959 1_556 S
H1317 C1331 0.970 . S
H1318 C1332 0.951 1_556 S
H1319 C1332 0.950 1_556 S
H1320 C1332 0.966 . S
H1321 C1335 0.929 . S
H1322 C1336 0.931 . S
H1323 C1338 0.930 . S
C1324 H1312 0.930 . S
C1324 C1325 1.399 . S
C1324 C1329 1.399 . S
C1325 C1324 1.399 . S
C1325 C1326 1.376 . S
C1326 H1313 0.930 . S
C1326 C1325 1.376 . S
C1326 C1327 1.388 . S
C1327 H1314 0.930 . S
C1327 C1326 1.388 . S
C1327 C1328 1.390 . S
C1328 C1327 1.390 . S
C1328 C1329 1.394 . S
C1328 C1334 1.465 . S
C1329 C1324 1.399 . S
C1329 C1328 1.394 . S
C1329 C1330 1.516 . S
C1330 C1329 1.516 . S
C1330 C1331 1.502 . S
C1330 C1332 1.574 . S
C1330 C1333 1.526 . S
C1331 H1315 0.959 . S
C1331 H1316 0.959 1_554 S
C1331 H1317 0.970 . S
C1331 C1330 1.502 . S
C1332 H1318 0.951 1_554 S
C1332 H1319 0.950 1_554 S
C1332 H1320 0.966 . S
C1332 C1330 1.574 . S
C1333 C1330 1.526 . S
C1333 C1334 1.396 . S
C1333 C1338 1.390 . S
C1334 C1328 1.465 . S
C1334 C1333 1.396 . S
C1334 C1335 1.399 . S
C1335 H1321 0.929 . S
C1335 C1334 1.399 . S
C1335 C1336 1.385 . S
C1336 H1322 0.931 . S
C1336 C1335 1.385 . S
C1336 C1337 1.389 . S
C1337 C1336 1.389 . S
C1337 C1338 1.387 . S
C1338 H1323 0.930 . S
C1338 C1333 1.390 . S
C1338 C1337 1.387 . S
H1339 C1351 0.930 . S
H1340 C1353 0.930 . S
H1341 C1354 0.930 . S
H1342 C1358 0.962 . S
H1343 C1358 0.977 . S
H1344 C1358 0.942 1_655 S
H1345 C1359 0.960 1_655 S
H1346 C1359 0.961 . S
H1347 C1359 0.959 . S
H1348 C1362 0.929 . S
H1349 C1363 0.931 . S
H1350 C1365 0.930 . S
C1351 H1339 0.930 . S
C1351 C1352 1.399 . S
C1351 C1356 1.399 . S
C1352 C1351 1.399 . S
C1352 C1353 1.376 . S
C1353 H1340 0.930 . S
C1353 C1352 1.376 . S
C1353 C1354 1.388 . S
C1354 H1341 0.930 . S
C1354 C1353 1.388 . S
C1354 C1355 1.390 . S
C1355 C1354 1.390 . S
C1355 C1356 1.394 . S
C1355 C1361 1.465 1_655 S
C1356 C1351 1.399 . S
C1356 C1355 1.394 . S
C1356 C1357 1.519 1_655 S
C1357 C1356 1.519 1_455 S
C1357 C1358 1.502 . S
C1357 C1359 1.561 . S
C1357 C1360 1.523 . S
C1358 H1342 0.962 . S
C1358 H1343 0.977 . S
C1358 H1344 0.942 1_455 S
C1358 C1357 1.502 . S
C1359 H1345 0.960 1_455 S
C1359 H1346 0.961 . S
C1359 H1347 0.959 . S
C1359 C1357 1.561 . S
C1360 C1357 1.523 . S
C1360 C1361 1.396 . S
C1360 C1365 1.390 . S
C1361 C1355 1.465 1_455 S
C1361 C1360 1.396 . S
C1361 C1362 1.399 . S
C1362 H1348 0.929 . S
C1362 C1361 1.399 . S
C1362 C1363 1.385 . S
C1363 H1349 0.931 . S
C1363 C1362 1.385 . S
C1363 C1364 1.389 . S
C1364 C1363 1.389 . S
C1364 C1365 1.387 . S
C1365 H1350 0.930 . S
C1365 C1360 1.390 . S
C1365 C1364 1.387 . S
H1366 C1378 0.930 . S
H1367 C1380 0.930 . S
H1368 C1381 0.930 . S
H1369 C1385 0.959 . S
H1370 C1385 0.959 . S
H1371 C1385 0.961 . S
H1372 C1386 0.960 . S
H1373 C1386 0.961 . S
H1374 C1386 0.959 . S
H1375 C1389 0.929 . S
H1376 C1390 0.931 . S
H1377 C1392 0.930 . S
C1378 H1366 0.930 . S
C1378 C1379 1.399 . S
C1378 C1383 1.399 . S
C1379 C1378 1.399 . S
C1379 C1380 1.376 . S
C1380 H1367 0.930 . S
C1380 C1379 1.376 . S
C1380 C1381 1.388 . S
C1381 H1368 0.930 . S
C1381 C1380 1.388 . S
C1381 C1382 1.390 . S
C1382 C1381 1.390 . S
C1382 C1383 1.394 . S
C1382 C1388 1.465 . S
C1383 C1378 1.399 . S
C1383 C1382 1.394 . S
C1383 C1384 1.516 . S
C1384 C1383 1.516 . S
C1384 C1385 1.502 . S
C1384 C1386 1.561 . S
C1384 C1387 1.526 . S
C1385 H1369 0.959 . S
C1385 H1370 0.959 . S
C1385 H1371 0.961 . S
C1385 C1384 1.502 . S
C1386 H1372 0.960 . S
C1386 H1373 0.961 . S
C1386 H1374 0.959 . S
C1386 C1384 1.561 . S
C1387 C1384 1.526 . S
C1387 C1388 1.396 . S
C1387 C1392 1.390 . S
C1388 C1382 1.465 . S
C1388 C1387 1.396 . S
C1388 C1389 1.399 . S
C1389 H1375 0.929 . S
C1389 C1388 1.399 . S
C1389 C1390 1.385 . S
C1390 H1376 0.931 . S
C1390 C1389 1.385 . S
C1390 C1391 1.389 . S
C1391 C1390 1.389 . S
C1391 C1392 1.387 . S
C1392 H1377 0.930 . S
C1392 C1387 1.390 . S
C1392 C1391 1.387 . S
H1393 C1405 0.930 . S
H1394 C1407 0.930 . S
H1395 C1408 0.930 . S
H1396 C1412 0.959 . S
H1397 C1412 0.959 . S
H1398 C1412 0.961 . S
H1399 C1413 0.960 . S
H1400 C1413 0.960 . S
H1401 C1413 0.959 . S
H1402 C1416 0.929 . S
H1403 C1417 0.931 . S
H1404 C1419 0.930 . S
C1405 H1393 0.930 . S
C1405 C1406 1.399 . S
C1405 C1410 1.399 . S
C1406 C1405 1.399 . S
C1406 C1407 1.376 . S
C1407 H1394 0.930 . S
C1407 C1406 1.376 . S
C1407 C1408 1.388 . S
C1408 H1395 0.930 . S
C1408 C1407 1.388 . S
C1408 C1409 1.390 . S
C1409 C1408 1.390 . S
C1409 C1410 1.394 . S
C1409 C1415 1.465 . S
C1410 C1405 1.399 . S
C1410 C1409 1.394 . S
C1410 C1411 1.516 . S
C1411 C1410 1.516 . S
C1411 C1412 1.502 . S
C1411 C1413 1.561 . S
C1411 C1414 1.526 . S
C1412 H1396 0.959 . S
C1412 H1397 0.959 . S
C1412 H1398 0.961 . S
C1412 C1411 1.502 . S
C1413 H1399 0.960 . S
C1413 H1400 0.960 . S
C1413 H1401 0.959 . S
C1413 C1411 1.561 . S
C1414 C1411 1.526 . S
C1414 C1415 1.396 . S
C1414 C1419 1.390 . S
C1415 C1409 1.465 . S
C1415 C1414 1.396 . S
C1415 C1416 1.399 . S
C1416 H1402 0.929 . S
C1416 C1415 1.399 . S
C1416 C1417 1.385 . S
C1417 H1403 0.931 . S
C1417 C1416 1.385 . S
C1417 C1418 1.389 . S
C1418 C1417 1.389 . S
C1418 C1419 1.387 . S
C1419 H1404 0.930 . S
C1419 C1414 1.390 . S
C1419 C1418 1.387 . S
H1420 C1432 0.930 . S
H1421 C1434 0.930 . S
H1422 C1435 0.930 . S
H1423 C1439 0.959 . S
H1424 C1439 0.959 . S
H1425 C1439 0.961 . S
H1426 C1440 0.960 . S
H1427 C1440 0.961 . S
H1428 C1440 0.959 . S
H1429 C1443 0.929 . S
H1430 C1444 0.931 . S
H1431 C1446 0.930 . S
C1432 H1420 0.930 . S
C1432 C1433 1.399 . S
C1432 C1437 1.399 . S
C1433 C1432 1.399 . S
C1433 C1434 1.376 . S
C1434 H1421 0.930 . S
C1434 C1433 1.376 . S
C1434 C1435 1.388 . S
C1435 H1422 0.930 . S
C1435 C1434 1.388 . S
C1435 C1436 1.390 . S
C1436 C1435 1.390 . S
C1436 C1437 1.394 . S
C1436 C1442 1.465 . S
C1437 C1432 1.399 . S
C1437 C1436 1.394 . S
C1437 C1438 1.516 . S
C1438 C1437 1.516 . S
C1438 C1439 1.502 . S
C1438 C1440 1.561 . S
C1438 C1441 1.526 . S
C1439 H1423 0.959 . S
C1439 H1424 0.959 . S
C1439 H1425 0.961 . S
C1439 C1438 1.502 . S
C1440 H1426 0.960 . S
C1440 H1427 0.961 . S
C1440 H1428 0.959 . S
C1440 C1438 1.561 . S
C1441 C1438 1.526 . S
C1441 C1442 1.396 . S
C1441 C1446 1.390 . S
C1442 C1436 1.465 . S
C1442 C1441 1.396 . S
C1442 C1443 1.399 . S
C1443 H1429 0.929 . S
C1443 C1442 1.399 . S
C1443 C1444 1.385 . S
C1444 H1430 0.931 . S
C1444 C1443 1.385 . S
C1444 C1445 1.389 . S
C1445 C1444 1.389 . S
C1445 C1446 1.387 . S
C1446 H1431 0.930 . S
C1446 C1441 1.390 . S
C1446 C1445 1.387 . S
H1447 C1459 0.930 . S
H1448 C1461 0.930 . S
H1449 C1462 0.930 . S
H1450 C1466 0.959 . S
H1451 C1466 0.959 . S
H1452 C1466 0.961 . S
H1453 C1467 0.960 . S
H1454 C1467 0.961 . S
H1455 C1467 0.959 . S
H1456 C1470 0.929 . S
H1457 C1471 0.931 . S
H1458 C1473 0.930 . S
C1459 H1447 0.930 . S
C1459 C1460 1.399 . S
C1459 C1464 1.399 . S
C1460 C1459 1.399 . S
C1460 C1461 1.376 . S
C1461 H1448 0.930 . S
C1461 C1460 1.376 . S
C1461 C1462 1.388 . S
C1462 H1449 0.930 . S
C1462 C1461 1.388 . S
C1462 C1463 1.390 . S
C1463 C1462 1.390 . S
C1463 C1464 1.394 . S
C1463 C1469 1.465 . S
C1464 C1459 1.399 . S
C1464 C1463 1.394 . S
C1464 C1465 1.516 . S
C1465 C1464 1.516 . S
C1465 C1466 1.502 . S
C1465 C1467 1.561 . S
C1465 C1468 1.526 . S
C1466 H1450 0.959 . S
C1466 H1451 0.959 . S
C1466 H1452 0.961 . S
C1466 C1465 1.502 . S
C1467 H1453 0.960 . S
C1467 H1454 0.961 . S
C1467 H1455 0.959 . S
C1467 C1465 1.561 . S
C1468 C1465 1.526 . S
C1468 C1469 1.396 . S
C1468 C1473 1.390 . S
C1469 C1463 1.465 . S
C1469 C1468 1.396 . S
C1469 C1470 1.399 . S
C1470 H1456 0.929 . S
C1470 C1469 1.399 . S
C1470 C1471 1.385 . S
C1471 H1457 0.931 . S
C1471 C1470 1.385 . S
C1471 C1472 1.389 . S
C1472 C1471 1.389 . S
C1472 C1473 1.387 . S
C1473 H1458 0.930 . S
C1473 C1468 1.390 . S
C1473 C1472 1.387 . S
H1474 C1486 0.930 . S
H1475 C1488 0.930 . S
H1476 C1489 0.930 . S
H1477 C1493 0.959 . S
H1478 C1493 0.959 . S
H1479 C1493 0.961 . S
H1480 C1494 0.960 . S
H1481 C1494 0.961 . S
H1482 C1494 0.959 . S
H1483 C1497 0.929 . S
H1484 C1498 0.931 . S
H1485 C1500 0.930 . S
C1486 H1474 0.930 . S
C1486 C1487 1.399 . S
C1486 C1491 1.399 . S
C1487 C1486 1.399 . S
C1487 C1488 1.376 . S
C1488 H1475 0.930 . S
C1488 C1487 1.376 . S
C1488 C1489 1.388 . S
C1489 H1476 0.930 . S
C1489 C1488 1.388 . S
C1489 C1490 1.390 . S
C1490 C1489 1.390 . S
C1490 C1491 1.394 . S
C1490 C1496 1.465 . S
C1491 C1486 1.399 . S
C1491 C1490 1.394 . S
C1491 C1492 1.516 . S
C1492 C1491 1.516 . S
C1492 C1493 1.502 . S
C1492 C1494 1.561 . S
C1492 C1495 1.526 . S
C1493 H1477 0.959 . S
C1493 H1478 0.959 . S
C1493 H1479 0.961 . S
C1493 C1492 1.502 . S
C1494 H1480 0.960 . S
C1494 H1481 0.961 . S
C1494 H1482 0.959 . S
C1494 C1492 1.561 . S
C1495 C1492 1.526 . S
C1495 C1496 1.396 . S
C1495 C1500 1.390 . S
C1496 C1490 1.465 . S
C1496 C1495 1.396 . S
C1496 C1497 1.399 . S
C1497 H1483 0.929 . S
C1497 C1496 1.399 . S
C1497 C1498 1.385 . S
C1498 H1484 0.931 . S
C1498 C1497 1.385 . S
C1498 C1499 1.389 . S
C1499 C1498 1.389 . S
C1499 C1500 1.387 . S
C1500 H1485 0.930 . S
C1500 C1495 1.390 . S
C1500 C1499 1.387 . S
H1501 C1513 0.930 . S
H1502 C1515 0.930 . S
H1503 C1516 0.930 . S
H1504 C1520 0.962 . S
H1505 C1520 0.977 . S
H1506 C1520 0.942 1_655 S
H1507 C1521 0.960 1_655 S
H1508 C1521 0.961 . S
H1509 C1521 0.959 . S
H1510 C1524 0.929 . S
H1511 C1525 0.931 . S
H1512 C1527 0.930 . S
C1513 H1501 0.930 . S
C1513 C1514 1.399 . S
C1513 C1518 1.399 . S
C1514 C1513 1.399 . S
C1514 C1515 1.376 . S
C1515 H1502 0.930 . S
C1515 C1514 1.376 . S
C1515 C1516 1.388 . S
C1516 H1503 0.930 . S
C1516 C1515 1.388 . S
C1516 C1517 1.390 . S
C1517 C1516 1.390 . S
C1517 C1518 1.394 . S
C1517 C1523 1.465 1_655 S
C1518 C1513 1.399 . S
C1518 C1517 1.394 . S
C1518 C1519 1.519 1_655 S
C1519 C1518 1.519 1_455 S
C1519 C1520 1.502 . S
C1519 C1521 1.561 . S
C1519 C1522 1.523 . S
C1520 H1504 0.962 . S
C1520 H1505 0.977 . S
C1520 H1506 0.942 1_455 S
C1520 C1519 1.502 . S
C1521 H1507 0.960 1_455 S
C1521 H1508 0.961 . S
C1521 H1509 0.959 . S
C1521 C1519 1.561 . S
C1522 C1519 1.523 . S
C1522 C1523 1.396 . S
C1522 C1527 1.390 . S
C1523 C1517 1.465 1_455 S
C1523 C1522 1.396 . S
C1523 C1524 1.399 . S
C1524 H1510 0.929 . S
C1524 C1523 1.399 . S
C1524 C1525 1.385 . S
C1525 H1511 0.931 . S
C1525 C1524 1.385 . S
C1525 C1526 1.389 . S
C1526 C1525 1.389 . S
C1526 C1527 1.387 . S
C1527 H1512 0.930 . S
C1527 C1522 1.390 . S
C1527 C1526 1.387 . S
H1528 C1540 0.930 . S
H1529 C1542 0.930 . S
H1530 C1543 0.930 . S
H1531 C1547 0.959 . S
H1532 C1547 0.959 . S
H1533 C1547 0.961 . S
H1534 C1548 0.960 . S
H1535 C1548 0.961 . S
H1536 C1548 0.959 . S
H1537 C1551 0.929 . S
H1538 C1552 0.931 . S
H1539 C1554 0.930 . S
C1540 H1528 0.930 . S
C1540 C1541 1.399 . S
C1540 C1545 1.399 . S
C1541 C1540 1.399 . S
C1541 C1542 1.376 . S
C1542 H1529 0.930 . S
C1542 C1541 1.376 . S
C1542 C1543 1.388 . S
C1543 H1530 0.930 . S
C1543 C1542 1.388 . S
C1543 C1544 1.390 . S
C1544 C1543 1.390 . S
C1544 C1545 1.394 . S
C1544 C1550 1.465 . S
C1545 C1540 1.399 . S
C1545 C1544 1.394 . S
C1545 C1546 1.516 . S
C1546 C1545 1.516 . S
C1546 C1547 1.502 . S
C1546 C1548 1.561 . S
C1546 C1549 1.526 . S
C1547 H1531 0.959 . S
C1547 H1532 0.959 . S
C1547 H1533 0.961 . S
C1547 C1546 1.502 . S
C1548 H1534 0.960 . S
C1548 H1535 0.961 . S
C1548 H1536 0.959 . S
C1548 C1546 1.561 . S
C1549 C1546 1.526 . S
C1549 C1550 1.396 . S
C1549 C1554 1.390 . S
C1550 C1544 1.465 . S
C1550 C1549 1.396 . S
C1550 C1551 1.399 . S
C1551 H1537 0.929 . S
C1551 C1550 1.399 . S
C1551 C1552 1.385 . S
C1552 H1538 0.931 . S
C1552 C1551 1.385 . S
C1552 C1553 1.389 . S
C1553 C1552 1.389 . S
C1553 C1554 1.387 . S
C1554 H1539 0.930 . S
C1554 C1549 1.390 . S
C1554 C1553 1.387 . S
H1555 C1567 0.930 . S
H1556 C1569 0.930 . S
H1557 C1570 0.930 . S
H1558 C1574 0.959 . S
H1559 C1574 0.959 . S
H1560 C1574 0.961 . S
H1561 C1575 0.960 . S
H1562 C1575 0.961 . S
H1563 C1575 0.959 . S
H1564 C1578 0.929 . S
H1565 C1579 0.931 . S
H1566 C1581 0.930 . S
C1567 H1555 0.930 . S
C1567 C1568 1.399 . S
C1567 C1572 1.399 . S
C1568 C1567 1.399 . S
C1568 C1569 1.376 . S
C1569 H1556 0.930 . S
C1569 C1568 1.376 . S
C1569 C1570 1.388 . S
C1570 H1557 0.930 . S
C1570 C1569 1.388 . S
C1570 C1571 1.390 . S
C1571 C1570 1.390 . S
C1571 C1572 1.394 . S
C1571 C1577 1.465 . S
C1572 C1567 1.399 . S
C1572 C1571 1.394 . S
C1572 C1573 1.516 . S
C1573 C1572 1.516 . S
C1573 C1574 1.502 . S
C1573 C1575 1.561 . S
C1573 C1576 1.526 . S
C1574 H1558 0.959 . S
C1574 H1559 0.959 . S
C1574 H1560 0.961 . S
C1574 C1573 1.502 . S
C1575 H1561 0.960 . S
C1575 H1562 0.961 . S
C1575 H1563 0.959 . S
C1575 C1573 1.561 . S
C1576 C1573 1.526 . S
C1576 C1577 1.396 . S
C1576 C1581 1.390 . S
C1577 C1571 1.465 . S
C1577 C1576 1.396 . S
C1577 C1578 1.399 . S
C1578 H1564 0.929 . S
C1578 C1577 1.399 . S
C1578 C1579 1.385 . S
C1579 H1565 0.931 . S
C1579 C1578 1.385 . S
C1579 C1580 1.389 . S
C1580 C1579 1.389 . S
C1580 C1581 1.387 . S
C1581 H1566 0.930 . S
C1581 C1576 1.390 . S
C1581 C1580 1.387 . S
H1582 C1594 0.930 . S
H1583 C1596 0.930 . S
H1584 C1597 0.930 . S
H1585 C1601 0.959 . S
H1586 C1601 0.959 1_556 S
H1587 C1601 0.961 . S
H1588 C1602 0.958 1_556 S
H1589 C1602 0.958 1_556 S
H1590 C1602 0.961 . S
H1591 C1605 0.929 . S
H1592 C1606 0.931 . S
H1593 C1608 0.930 . S
C1594 H1582 0.930 . S
C1594 C1595 1.399 . S
C1594 C1599 1.399 . S
C1595 C1594 1.399 . S
C1595 C1596 1.376 . S
C1596 H1583 0.930 . S
C1596 C1595 1.376 . S
C1596 C1597 1.388 . S
C1597 H1584 0.930 . S
C1597 C1596 1.388 . S
C1597 C1598 1.390 . S
C1598 C1597 1.390 . S
C1598 C1599 1.394 . S
C1598 C1604 1.465 . S
C1599 C1594 1.399 . S
C1599 C1598 1.394 . S
C1599 C1600 1.516 . S
C1600 C1599 1.516 . S
C1600 C1601 1.502 . S
C1600 C1602 1.565 . S
C1600 C1603 1.526 . S
C1601 H1585 0.959 . S
C1601 H1586 0.959 1_554 S
C1601 H1587 0.961 . S
C1601 C1600 1.502 . S
C1602 H1588 0.958 1_554 S
C1602 H1589 0.958 1_554 S
C1602 H1590 0.961 . S
C1602 C1600 1.565 . S
C1603 C1600 1.526 . S
C1603 C1604 1.396 . S
C1603 C1608 1.390 . S
C1604 C1598 1.465 . S
C1604 C1603 1.396 . S
C1604 C1605 1.399 . S
C1605 H1591 0.929 . S
C1605 C1604 1.399 . S
C1605 C1606 1.385 . S
C1606 H1592 0.931 . S
C1606 C1605 1.385 . S
C1606 C1607 1.389 . S
C1607 C1606 1.389 . S
C1607 C1608 1.387 . S
C1608 H1593 0.930 . S
C1608 C1603 1.390 . S
C1608 C1607 1.387 . S
H1609 C1621 0.930 . S
H1610 C1623 0.930 . S
H1611 C1624 0.930 . S
H1612 C1628 0.959 . S
H1613 C1628 0.959 . S
H1614 C1628 0.961 . S
H1615 C1629 0.960 . S
H1616 C1629 0.961 . S
H1617 C1629 0.959 . S
H1618 C1632 0.929 . S
H1619 C1633 0.931 . S
H1620 C1635 0.930 . S
C1621 H1609 0.930 . S
C1621 C1622 1.399 . S
C1621 C1626 1.399 . S
C1622 C1621 1.399 . S
C1622 C1623 1.376 . S
C1623 H1610 0.930 . S
C1623 C1622 1.376 . S
C1623 C1624 1.388 . S
C1624 H1611 0.930 . S
C1624 C1623 1.388 . S
C1624 C1625 1.390 . S
C1625 C1624 1.390 . S
C1625 C1626 1.394 . S
C1625 C1631 1.465 . S
C1626 C1621 1.399 . S
C1626 C1625 1.394 . S
C1626 C1627 1.516 . S
C1627 C1626 1.516 . S
C1627 C1628 1.502 . S
C1627 C1629 1.561 . S
C1627 C1630 1.526 . S
C1628 H1612 0.959 . S
C1628 H1613 0.959 . S
C1628 H1614 0.961 . S
C1628 C1627 1.502 . S
C1629 H1615 0.960 . S
C1629 H1616 0.961 . S
C1629 H1617 0.959 . S
C1629 C1627 1.561 . S
C1630 C1627 1.526 . S
C1630 C1631 1.396 . S
C1630 C1635 1.390 . S
C1631 C1625 1.465 . S
C1631 C1630 1.396 . S
C1631 C1632 1.399 . S
C1632 H1618 0.929 . S
C1632 C1631 1.399 . S
C1632 C1633 1.385 . S
C1633 H1619 0.931 . S
C1633 C1632 1.385 . S
C1633 C1634 1.389 . S
C1634 C1633 1.389 . S
C1634 C1635 1.387 . S
C1635 H1620 0.930 . S
C1635 C1630 1.390 . S
C1635 C1634 1.387 . S
H1636 C1648 0.930 . S
H1637 C1650 0.930 . S
H1638 C1651 0.930 . S
H1639 C1655 0.959 . S
H1640 C1655 0.959 . S
H1641 C1655 0.961 . S
H1642 C1656 0.960 . S
H1643 C1656 0.961 . S
H1644 C1656 0.959 . S
H1645 C1659 0.929 . S
H1646 C1660 0.931 . S
H1647 C1662 0.930 . S
C1648 H1636 0.930 . S
C1648 C1649 1.399 . S
C1648 C1653 1.399 . S
C1649 C1648 1.399 . S
C1649 C1650 1.376 . S
C1650 H1637 0.930 . S
C1650 C1649 1.376 . S
C1650 C1651 1.388 . S
C1651 H1638 0.930 . S
C1651 C1650 1.388 . S
C1651 C1652 1.390 . S
C1652 C1651 1.390 . S
C1652 C1653 1.394 . S
C1652 C1658 1.465 . S
C1653 C1648 1.399 . S
C1653 C1652 1.394 . S
C1653 C1654 1.516 . S
C1654 C1653 1.516 . S
C1654 C1655 1.502 . S
C1654 C1656 1.561 . S
C1654 C1657 1.526 . S
C1655 H1639 0.959 . S
C1655 H1640 0.959 . S
C1655 H1641 0.961 . S
C1655 C1654 1.502 . S
C1656 H1642 0.960 . S
C1656 H1643 0.961 . S
C1656 H1644 0.959 . S
C1656 C1654 1.561 . S
C1657 C1654 1.526 . S
C1657 C1658 1.396 . S
C1657 C1662 1.390 . S
C1658 C1652 1.465 . S
C1658 C1657 1.396 . S
C1658 C1659 1.399 . S
C1659 H1645 0.929 . S
C1659 C1658 1.399 . S
C1659 C1660 1.385 . S
C1660 H1646 0.931 . S
C1660 C1659 1.385 . S
C1660 C1661 1.389 . S
C1661 C1660 1.389 . S
C1661 C1662 1.387 . S
C1662 H1647 0.930 . S
C1662 C1657 1.390 . S
C1662 C1661 1.387 . S
H1663 C1675 0.930 . S
H1664 C1677 0.930 . S
H1665 C1678 0.930 . S
H1666 C1682 0.962 . S
H1667 C1682 0.977 . S
H1668 C1682 0.942 1_655 S
H1669 C1683 0.960 1_655 S
H1670 C1683 0.961 . S
H1671 C1683 0.959 . S
H1672 C1686 0.929 . S
H1673 C1687 0.931 . S
H1674 C1689 0.930 . S
C1675 H1663 0.930 . S
C1675 C1676 1.399 . S
C1675 C1680 1.399 . S
C1676 C1675 1.399 . S
C1676 C1677 1.376 . S
C1677 H1664 0.930 . S
C1677 C1676 1.376 . S
C1677 C1678 1.388 . S
C1678 H1665 0.930 . S
C1678 C1677 1.388 . S
C1678 C1679 1.390 . S
C1679 C1678 1.390 . S
C1679 C1680 1.394 . S
C1679 C1685 1.465 1_655 S
C1680 C1675 1.399 . S
C1680 C1679 1.394 . S
C1680 C1681 1.519 1_655 S
C1681 C1680 1.519 1_455 S
C1681 C1682 1.502 . S
C1681 C1683 1.561 . S
C1681 C1684 1.523 . S
C1682 H1666 0.962 . S
C1682 H1667 0.977 . S
C1682 H1668 0.942 1_455 S
C1682 C1681 1.502 . S
C1683 H1669 0.960 1_455 S
C1683 H1670 0.961 . S
C1683 H1671 0.959 . S
C1683 C1681 1.561 . S
C1684 C1681 1.523 . S
C1684 C1685 1.396 . S
C1684 C1689 1.390 . S
C1685 C1679 1.465 1_455 S
C1685 C1684 1.396 . S
C1685 C1686 1.399 . S
C1686 H1672 0.929 . S
C1686 C1685 1.399 . S
C1686 C1687 1.385 . S
C1687 H1673 0.931 . S
C1687 C1686 1.385 . S
C1687 C1688 1.389 . S
C1688 C1687 1.389 . S
C1688 C1689 1.387 . S
C1689 H1674 0.930 . S
C1689 C1684 1.390 . S
C1689 C1688 1.387 . S
H1690 C1702 0.930 . S
H1691 C1704 0.930 . S
H1692 C1705 0.930 . S
H1693 C1709 0.962 . S
H1694 C1709 0.977 . S
H1695 C1709 0.942 1_655 S
H1696 C1710 0.960 1_655 S
H1697 C1710 0.961 . S
H1698 C1710 0.959 . S
H1699 C1713 0.929 . S
H1700 C1714 0.931 . S
H1701 C1716 0.930 . S
C1702 H1690 0.930 . S
C1702 C1703 1.399 . S
C1702 C1707 1.399 . S
C1703 C1702 1.399 . S
C1703 C1704 1.376 . S
C1704 H1691 0.930 . S
C1704 C1703 1.376 . S
C1704 C1705 1.388 . S
C1705 H1692 0.930 . S
C1705 C1704 1.388 . S
C1705 C1706 1.390 . S
C1706 C1705 1.390 . S
C1706 C1707 1.394 . S
C1706 C1712 1.465 1_655 S
C1707 C1702 1.399 . S
C1707 C1706 1.394 . S
C1707 C1708 1.519 1_655 S
C1708 C1707 1.519 1_455 S
C1708 C1709 1.502 . S
C1708 C1710 1.561 . S
C1708 C1711 1.523 . S
C1709 H1693 0.962 . S
C1709 H1694 0.977 . S
C1709 H1695 0.942 1_455 S
C1709 C1708 1.502 . S
C1710 H1696 0.960 1_455 S
C1710 H1697 0.961 . S
C1710 H1698 0.959 . S
C1710 C1708 1.561 . S
C1711 C1708 1.523 . S
C1711 C1712 1.396 . S
C1711 C1716 1.390 . S
C1712 C1706 1.465 1_455 S
C1712 C1711 1.396 . S
C1712 C1713 1.399 . S
C1713 H1699 0.929 . S
C1713 C1712 1.399 . S
C1713 C1714 1.385 . S
C1714 H1700 0.931 . S
C1714 C1713 1.385 . S
C1714 C1715 1.389 . S
C1715 C1714 1.389 . S
C1715 C1716 1.387 . S
C1716 H1701 0.930 . S
C1716 C1711 1.390 . S
C1716 C1715 1.387 . S
H1717 C1729 0.930 . S
H1718 C1731 0.930 . S
H1719 C1732 0.930 . S
H1720 C1736 0.959 . S
H1721 C1736 0.959 . S
H1722 C1736 0.961 . S
H1723 C1737 0.966 . S
H1724 C1737 0.961 1_556 S
H1725 C1737 0.959 . S
H1726 C1740 0.929 . S
H1727 C1741 0.931 . S
H1728 C1743 0.930 . S
C1729 H1717 0.930 . S
C1729 C1730 1.399 . S
C1729 C1734 1.399 . S
C1730 C1729 1.399 . S
C1730 C1731 1.376 . S
C1731 H1718 0.930 . S
C1731 C1730 1.376 . S
C1731 C1732 1.388 . S
C1732 H1719 0.930 . S
C1732 C1731 1.388 . S
C1732 C1733 1.390 . S
C1733 C1732 1.390 . S
C1733 C1734 1.394 . S
C1733 C1739 1.465 . S
C1734 C1729 1.399 . S
C1734 C1733 1.394 . S
C1734 C1735 1.516 . S
C1735 C1734 1.516 . S
C1735 C1736 1.502 . S
C1735 C1737 1.561 . S
C1735 C1738 1.526 . S
C1736 H1720 0.959 . S
C1736 H1721 0.959 . S
C1736 H1722 0.961 . S
C1736 C1735 1.502 . S
C1737 H1723 0.966 . S
C1737 H1724 0.961 1_554 S
C1737 H1725 0.959 . S
C1737 C1735 1.561 . S
C1738 C1735 1.526 . S
C1738 C1739 1.396 . S
C1738 C1743 1.390 . S
C1739 C1733 1.465 . S
C1739 C1738 1.396 . S
C1739 C1740 1.399 . S
C1740 H1726 0.929 . S
C1740 C1739 1.399 . S
C1740 C1741 1.385 . S
C1741 H1727 0.931 . S
C1741 C1740 1.385 . S
C1741 C1742 1.389 . S
C1742 C1741 1.389 . S
C1742 C1743 1.387 . S
C1743 H1728 0.930 . S
C1743 C1738 1.390 . S
C1743 C1742 1.387 . S
H1744 C1756 0.930 . S
H1745 C1758 0.930 . S
H1746 C1759 0.930 . S
H1747 C1763 0.959 . S
H1748 C1763 0.959 . S
H1749 C1763 0.961 . S
H1750 C1764 0.960 . S
H1751 C1764 0.961 . S
H1752 C1764 0.959 . S
H1753 C1767 0.929 . S
H1754 C1768 0.931 . S
H1755 C1770 0.930 . S
C1756 H1744 0.930 . S
C1756 C1757 1.399 . S
C1756 C1761 1.399 . S
C1757 C1756 1.399 . S
C1757 C1758 1.376 . S
C1758 H1745 0.930 . S
C1758 C1757 1.376 . S
C1758 C1759 1.388 . S
C1759 H1746 0.930 . S
C1759 C1758 1.388 . S
C1759 C1760 1.390 . S
C1760 C1759 1.390 . S
C1760 C1761 1.394 . S
C1760 C1766 1.465 . S
C1761 C1756 1.399 . S
C1761 C1760 1.394 . S
C1761 C1762 1.516 . S
C1762 C1761 1.516 . S
C1762 C1763 1.502 . S
C1762 C1764 1.561 . S
C1762 C1765 1.526 . S
C1763 H1747 0.959 . S
C1763 H1748 0.959 . S
C1763 H1749 0.961 . S
C1763 C1762 1.502 . S
C1764 H1750 0.960 . S
C1764 H1751 0.961 . S
C1764 H1752 0.959 . S
C1764 C1762 1.561 . S
C1765 C1762 1.526 . S
C1765 C1766 1.396 . S
C1765 C1770 1.390 . S
C1766 C1760 1.465 . S
C1766 C1765 1.396 . S
C1766 C1767 1.399 . S
C1767 H1753 0.929 . S
C1767 C1766 1.399 . S
C1767 C1768 1.385 . S
C1768 H1754 0.931 . S
C1768 C1767 1.385 . S
C1768 C1769 1.389 . S
C1769 C1768 1.389 . S
C1769 C1770 1.387 . S
C1770 H1755 0.930 . S
C1770 C1765 1.390 . S
C1770 C1769 1.387 . S
H1771 C1783 0.930 . S
H1772 C1785 0.930 . S
H1773 C1786 0.930 . S
H1774 C1790 0.959 . S
H1775 C1790 0.959 . S
H1776 C1790 0.961 . S
H1777 C1791 0.960 . S
H1778 C1791 0.961 . S
H1779 C1791 0.959 . S
H1780 C1794 0.929 . S
H1781 C1795 0.931 . S
H1782 C1797 0.930 . S
C1783 H1771 0.930 . S
C1783 C1784 1.399 . S
C1783 C1788 1.399 . S
C1784 C1783 1.399 . S
C1784 C1785 1.376 . S
C1785 H1772 0.930 . S
C1785 C1784 1.376 . S
C1785 C1786 1.388 . S
C1786 H1773 0.930 . S
C1786 C1785 1.388 . S
C1786 C1787 1.390 . S
C1787 C1786 1.390 . S
C1787 C1788 1.394 . S
C1787 C1793 1.465 . S
C1788 C1783 1.399 . S
C1788 C1787 1.394 . S
C1788 C1789 1.516 . S
C1789 C1788 1.516 . S
C1789 C1790 1.502 . S
C1789 C1791 1.561 . S
C1789 C1792 1.526 . S
C1790 H1774 0.959 . S
C1790 H1775 0.959 . S
C1790 H1776 0.961 . S
C1790 C1789 1.502 . S
C1791 H1777 0.960 . S
C1791 H1778 0.961 . S
C1791 H1779 0.959 . S
C1791 C1789 1.561 . S
C1792 C1789 1.526 . S
C1792 C1793 1.396 . S
C1792 C1797 1.390 . S
C1793 C1787 1.465 . S
C1793 C1792 1.396 . S
C1793 C1794 1.399 . S
C1794 H1780 0.929 . S
C1794 C1793 1.399 . S
C1794 C1795 1.385 . S
C1795 H1781 0.931 . S
C1795 C1794 1.385 . S
C1795 C1796 1.389 . S
C1796 C1795 1.389 . S
C1796 C1797 1.387 . S
C1797 H1782 0.930 . S
C1797 C1792 1.390 . S
C1797 C1796 1.387 . S
H1798 C1810 0.930 . S
H1799 C1812 0.930 . S
H1800 C1813 0.930 . S
H1801 C1817 0.959 . S
H1802 C1817 0.959 . S
H1803 C1817 0.961 . S
H1804 C1818 0.960 . S
H1805 C1818 0.961 . S
H1806 C1818 0.959 . S
H1807 C1821 0.929 . S
H1808 C1822 0.931 . S
H1809 C1824 0.930 . S
C1810 H1798 0.930 . S
C1810 C1811 1.399 . S
C1810 C1815 1.399 . S
C1811 C1810 1.399 . S
C1811 C1812 1.376 . S
C1812 H1799 0.930 . S
C1812 C1811 1.376 . S
C1812 C1813 1.388 . S
C1813 H1800 0.930 . S
C1813 C1812 1.388 . S
C1813 C1814 1.390 . S
C1814 C1813 1.390 . S
C1814 C1815 1.394 . S
C1814 C1820 1.465 . S
C1815 C1810 1.399 . S
C1815 C1814 1.394 . S
C1815 C1816 1.516 . S
C1816 C1815 1.516 . S
C1816 C1817 1.502 . S
C1816 C1818 1.561 . S
C1816 C1819 1.526 . S
C1817 H1801 0.959 . S
C1817 H1802 0.959 . S
C1817 H1803 0.961 . S
C1817 C1816 1.502 . S
C1818 H1804 0.960 . S
C1818 H1805 0.961 . S
C1818 H1806 0.959 . S
C1818 C1816 1.561 . S
C1819 C1816 1.526 . S
C1819 C1820 1.396 . S
C1819 C1824 1.390 . S
C1820 C1814 1.465 . S
C1820 C1819 1.396 . S
C1820 C1821 1.399 . S
C1821 H1807 0.929 . S
C1821 C1820 1.399 . S
C1821 C1822 1.385 . S
C1822 H1808 0.931 . S
C1822 C1821 1.385 . S
C1822 C1823 1.389 . S
C1823 C1822 1.389 . S
C1823 C1824 1.387 . S
C1824 H1809 0.930 . S
C1824 C1819 1.390 . S
C1824 C1823 1.387 . S
H1825 C1837 0.930 . S
H1826 C1839 0.930 1_556 S
H1827 C1840 0.930 . S
H1828 C1844 0.959 . S
H1829 C1844 0.959 . S
H1830 C1844 0.961 . S
H1831 C1845 0.960 . S
H1832 C1845 0.961 . S
H1833 C1845 0.959 . S
H1834 C1848 0.929 . S
H1835 C1849 0.931 . S
H1836 C1851 0.930 . S
C1837 H1825 0.930 . S
C1837 C1838 1.399 . S
C1837 C1842 1.399 . S
C1838 C1837 1.399 . S
C1838 C1839 1.376 . S
C1839 H1826 0.930 1_554 S
C1839 C1838 1.376 . S
C1839 C1840 1.388 . S
C1840 H1827 0.930 . S
C1840 C1839 1.388 . S
C1840 C1841 1.390 . S
C1841 C1840 1.390 . S
C1841 C1842 1.394 . S
C1841 C1847 1.465 . S
C1842 C1837 1.399 . S
C1842 C1841 1.394 . S
C1842 C1843 1.516 . S
C1843 C1842 1.516 . S
C1843 C1844 1.502 . S
C1843 C1845 1.561 . S
C1843 C1846 1.526 . S
C1844 H1828 0.959 . S
C1844 H1829 0.959 . S
C1844 H1830 0.961 . S
C1844 C1843 1.502 . S
C1845 H1831 0.960 . S
C1845 H1832 0.961 . S
C1845 H1833 0.959 . S
C1845 C1843 1.561 . S
C1846 C1843 1.526 . S
C1846 C1847 1.396 . S
C1846 C1851 1.390 . S
C1847 C1841 1.465 . S
C1847 C1846 1.396 . S
C1847 C1848 1.399 . S
C1848 H1834 0.929 . S
C1848 C1847 1.399 . S
C1848 C1849 1.385 . S
C1849 H1835 0.931 . S
C1849 C1848 1.385 . S
C1849 C1850 1.389 . S
C1850 C1849 1.389 . S
C1850 C1851 1.387 . S
C1851 H1836 0.930 . S
C1851 C1846 1.390 . S
C1851 C1850 1.387 . S
H1852 C1864 0.930 . S
H1853 C1866 0.930 . S
H1854 C1867 0.930 . S
H1855 C1871 0.959 . S
H1856 C1871 0.959 . S
H1857 C1871 0.961 . S
H1858 C1872 0.960 . S
H1859 C1872 0.961 . S
H1860 C1872 0.959 . S
H1861 C1875 0.929 . S
H1862 C1876 0.931 . S
H1863 C1878 0.930 . S
C1864 H1852 0.930 . S
C1864 C1865 1.399 . S
C1864 C1869 1.399 . S
C1865 C1864 1.399 . S
C1865 C1866 1.376 . S
C1866 H1853 0.930 . S
C1866 C1865 1.376 . S
C1866 C1867 1.388 . S
C1867 H1854 0.930 . S
C1867 C1866 1.388 . S
C1867 C1868 1.390 . S
C1868 C1867 1.390 . S
C1868 C1869 1.394 . S
C1868 C1874 1.465 . S
C1869 C1864 1.399 . S
C1869 C1868 1.394 . S
C1869 C1870 1.516 . S
C1870 C1869 1.516 . S
C1870 C1871 1.502 . S
C1870 C1872 1.561 . S
C1870 C1873 1.526 . S
C1871 H1855 0.959 . S
C1871 H1856 0.959 . S
C1871 H1857 0.961 . S
C1871 C1870 1.502 . S
C1872 H1858 0.960 . S
C1872 H1859 0.961 . S
C1872 H1860 0.959 . S
C1872 C1870 1.561 . S
C1873 C1870 1.526 . S
C1873 C1874 1.396 . S
C1873 C1878 1.390 . S
C1874 C1868 1.465 . S
C1874 C1873 1.396 . S
C1874 C1875 1.399 . S
C1875 H1861 0.929 . S
C1875 C1874 1.399 . S
C1875 C1876 1.385 . S
C1876 H1862 0.931 . S
C1876 C1875 1.385 . S
C1876 C1877 1.389 . S
C1877 C1876 1.389 . S
C1877 C1878 1.387 . S
C1878 H1863 0.930 . S
C1878 C1873 1.390 . S
C1878 C1877 1.387 . S
H1879 C1891 0.930 . S
H1880 C1893 0.930 . S
H1881 C1894 0.930 . S
H1882 C1898 0.959 . S
H1883 C1898 0.959 . S
H1884 C1898 0.961 . S
H1885 C1899 0.960 . S
H1886 C1899 0.961 . S
H1887 C1899 0.959 . S
H1888 C1902 0.929 . S
H1889 C1903 0.931 . S
H1890 C1905 0.930 . S
C1891 H1879 0.930 . S
C1891 C1892 1.399 . S
C1891 C1896 1.399 . S
C1892 C1891 1.399 . S
C1892 C1893 1.376 . S
C1893 H1880 0.930 . S
C1893 C1892 1.376 . S
C1893 C1894 1.388 . S
C1894 H1881 0.930 . S
C1894 C1893 1.388 . S
C1894 C1895 1.390 . S
C1895 C1894 1.390 . S
C1895 C1896 1.394 . S
C1895 C1901 1.465 . S
C1896 C1891 1.399 . S
C1896 C1895 1.394 . S
C1896 C1897 1.516 . S
C1897 C1896 1.516 . S
C1897 C1898 1.502 . S
C1897 C1899 1.561 . S
C1897 C1900 1.526 . S
C1898 H1882 0.959 . S
C1898 H1883 0.959 . S
C1898 H1884 0.961 . S
C1898 C1897 1.502 . S
C1899 H1885 0.960 . S
C1899 H1886 0.961 . S
C1899 H1887 0.959 . S
C1899 C1897 1.561 . S
C1900 C1897 1.526 . S
C1900 C1901 1.396 . S
C1900 C1905 1.390 . S
C1901 C1895 1.465 . S
C1901 C1900 1.396 . S
C1901 C1902 1.399 . S
C1902 H1888 0.929 . S
C1902 C1901 1.399 . S
C1902 C1903 1.385 . S
C1903 H1889 0.931 . S
C1903 C1902 1.385 . S
C1903 C1904 1.389 . S
C1904 C1903 1.389 . S
C1904 C1905 1.387 . S
C1905 H1890 0.930 . S
C1905 C1900 1.390 . S
C1905 C1904 1.387 . S
H1906 C1918 0.930 . S
H1907 C1920 0.930 . S
H1908 C1921 0.930 . S
H1909 C1925 0.959 . S
H1910 C1925 0.959 . S
H1911 C1925 0.961 . S
H1912 C1926 0.960 . S
H1913 C1926 0.961 . S
H1914 C1926 0.959 . S
H1915 C1929 0.929 . S
H1916 C1930 0.931 . S
H1917 C1932 0.930 1_556 S
C1918 H1906 0.930 . S
C1918 C1919 1.399 . S
C1918 C1923 1.399 . S
C1919 C1918 1.399 . S
C1919 C1920 1.376 . S
C1920 H1907 0.930 . S
C1920 C1919 1.376 . S
C1920 C1921 1.388 . S
C1921 H1908 0.930 . S
C1921 C1920 1.388 . S
C1921 C1922 1.390 . S
C1922 C1921 1.390 . S
C1922 C1923 1.394 . S
C1922 C1928 1.465 . S
C1923 C1918 1.399 . S
C1923 C1922 1.394 . S
C1923 C1924 1.516 . S
C1924 C1923 1.516 . S
C1924 C1925 1.502 . S
C1924 C1926 1.561 . S
C1924 C1927 1.526 . S
C1925 H1909 0.959 . S
C1925 H1910 0.959 . S
C1925 H1911 0.961 . S
C1925 C1924 1.502 . S
C1926 H1912 0.960 . S
C1926 H1913 0.961 . S
C1926 H1914 0.959 . S
C1926 C1924 1.561 . S
C1927 C1924 1.526 . S
C1927 C1928 1.396 . S
C1927 C1932 1.390 . S
C1928 C1922 1.465 . S
C1928 C1927 1.396 . S
C1928 C1929 1.399 . S
C1929 H1915 0.929 . S
C1929 C1928 1.399 . S
C1929 C1930 1.385 . S
C1930 H1916 0.931 . S
C1930 C1929 1.385 . S
C1930 C1931 1.389 . S
C1931 C1930 1.389 . S
C1931 C1932 1.387 . S
C1932 H1917 0.930 1_554 S
C1932 C1927 1.390 . S
C1932 C1931 1.387 . S
H1933 C1945 0.930 . S
H1934 C1947 0.930 . S
H1935 C1948 0.930 . S
H1936 C1952 0.959 . S
H1937 C1952 0.959 . S
H1938 C1952 0.961 . S
H1939 C1953 0.960 . S
H1940 C1953 0.961 . S
H1941 C1953 0.959 . S
H1942 C1956 0.929 . S
H1943 C1957 0.931 . S
H1944 C1959 0.930 . S
C1945 H1933 0.930 . S
C1945 C1946 1.399 . S
C1945 C1950 1.399 . S
C1946 C1945 1.399 . S
C1946 C1947 1.376 . S
C1947 H1934 0.930 . S
C1947 C1946 1.376 . S
C1947 C1948 1.388 . S
C1948 H1935 0.930 . S
C1948 C1947 1.388 . S
C1948 C1949 1.390 . S
C1949 C1948 1.390 . S
C1949 C1950 1.394 . S
C1949 C1955 1.465 . S
C1950 C1945 1.399 . S
C1950 C1949 1.394 . S
C1950 C1951 1.516 . S
C1951 C1950 1.516 . S
C1951 C1952 1.502 . S
C1951 C1953 1.561 . S
C1951 C1954 1.526 . S
C1952 H1936 0.959 . S
C1952 H1937 0.959 . S
C1952 H1938 0.961 . S
C1952 C1951 1.502 . S
C1953 H1939 0.960 . S
C1953 H1940 0.961 . S
C1953 H1941 0.959 . S
C1953 C1951 1.561 . S
C1954 C1951 1.526 . S
C1954 C1955 1.396 . S
C1954 C1959 1.390 . S
C1955 C1949 1.465 . S
C1955 C1954 1.396 . S
C1955 C1956 1.399 . S
C1956 H1942 0.929 . S
C1956 C1955 1.399 . S
C1956 C1957 1.385 . S
C1957 H1943 0.931 . S
C1957 C1956 1.385 . S
C1957 C1958 1.389 . S
C1958 C1957 1.389 . S
C1958 C1959 1.387 . S
C1959 H1944 0.930 . S
C1959 C1954 1.390 . S
C1959 C1958 1.387 . S
H1960 C1972 0.930 . S
H1961 C1974 0.930 . S
H1962 C1975 0.930 . S
H1963 C1979 0.959 . S
H1964 C1979 0.959 . S
H1965 C1979 0.961 . S
H1966 C1980 0.960 . S
H1967 C1980 0.961 . S
H1968 C1980 0.959 . S
H1969 C1983 0.929 . S
H1970 C1984 0.931 . S
H1971 C1986 0.930 . S
C1972 H1960 0.930 . S
C1972 C1973 1.399 . S
C1972 C1977 1.399 . S
C1973 C1972 1.399 . S
C1973 C1974 1.376 1_556 S
C1974 H1961 0.930 . S
C1974 C1973 1.376 1_554 S
C1974 C1975 1.388 1_554 S
C1975 H1962 0.930 . S
C1975 C1974 1.388 1_556 S
C1975 C1976 1.390 . S
C1976 C1975 1.390 . S
C1976 C1977 1.394 . S
C1976 C1982 1.465 . S
C1977 C1972 1.399 . S
C1977 C1976 1.394 . S
C1977 C1978 1.516 . S
C1978 C1977 1.516 . S
C1978 C1979 1.502 . S
C1978 C1980 1.561 . S
C1978 C1981 1.526 . S
C1979 H1963 0.959 . S
C1979 H1964 0.959 . S
C1979 H1965 0.961 . S
C1979 C1978 1.502 . S
C1980 H1966 0.960 . S
C1980 H1967 0.961 . S
C1980 H1968 0.959 . S
C1980 C1978 1.561 . S
C1981 C1978 1.526 . S
C1981 C1982 1.396 . S
C1981 C1986 1.390 . S
C1982 C1976 1.465 . S
C1982 C1981 1.396 . S
C1982 C1983 1.399 . S
C1983 H1969 0.929 . S
C1983 C1982 1.399 . S
C1983 C1984 1.385 . S
C1984 H1970 0.931 . S
C1984 C1983 1.385 . S
C1984 C1985 1.389 . S
C1985 C1984 1.389 . S
C1985 C1986 1.387 . S
C1986 H1971 0.930 . S
C1986 C1981 1.390 . S
C1986 C1985 1.387 . S
H1987 C1999 0.930 . S
H1988 C2001 0.930 . S
H1989 C2002 0.930 . S
H1990 C2006 0.959 . S
H1991 C2006 0.959 . S
H1992 C2006 0.961 . S
H1993 C2007 0.960 . S
H1994 C2007 0.961 . S
H1995 C2007 0.959 . S
H1996 C2010 0.929 . S
H1997 C2011 0.931 . S
H1998 C2013 0.930 . S
C1999 H1987 0.930 . S
C1999 C2000 1.399 . S
C1999 C2004 1.399 . S
C2000 C1999 1.399 . S
C2000 C2001 1.376 . S
C2001 H1988 0.930 . S
C2001 C2000 1.376 . S
C2001 C2002 1.388 . S
C2002 H1989 0.930 . S
C2002 C2001 1.388 . S
C2002 C2003 1.390 . S
C2003 C2002 1.390 . S
C2003 C2004 1.394 . S
C2003 C2009 1.465 . S
C2004 C1999 1.399 . S
C2004 C2003 1.394 . S
C2004 C2005 1.516 . S
C2005 C2004 1.516 . S
C2005 C2006 1.502 . S
C2005 C2007 1.561 . S
C2005 C2008 1.526 . S
C2006 H1990 0.959 . S
C2006 H1991 0.959 . S
C2006 H1992 0.961 . S
C2006 C2005 1.502 . S
C2007 H1993 0.960 . S
C2007 H1994 0.961 . S
C2007 H1995 0.959 . S
C2007 C2005 1.561 . S
C2008 C2005 1.526 . S
C2008 C2009 1.396 . S
C2008 C2013 1.390 . S
C2009 C2003 1.465 . S
C2009 C2008 1.396 . S
C2009 C2010 1.399 . S
C2010 H1996 0.929 . S
C2010 C2009 1.399 . S
C2010 C2011 1.385 1_554 S
C2011 H1997 0.931 . S
C2011 C2010 1.385 1_556 S
C2011 C2012 1.389 1_556 S
C2012 C2011 1.389 1_554 S
C2012 C2013 1.387 . S
C2013 H1998 0.930 . S
C2013 C2008 1.390 . S
C2013 C2012 1.387 . S
H2014 C2026 0.930 . S
H2015 C2028 0.930 . S
H2016 C2029 0.930 . S
H2017 C2033 0.959 . S
H2018 C2033 0.959 . S
H2019 C2033 0.961 . S
H2020 C2034 0.960 . S
H2021 C2034 0.961 . S
H2022 C2034 0.959 . S
H2023 C2037 0.929 . S
H2024 C2038 0.931 . S
H2025 C2040 0.930 . S
C2026 H2014 0.930 . S
C2026 C2027 1.399 . S
C2026 C2031 1.399 . S
C2027 C2026 1.399 . S
C2027 C2028 1.376 . S
C2028 H2015 0.930 . S
C2028 C2027 1.376 . S
C2028 C2029 1.388 . S
C2029 H2016 0.930 . S
C2029 C2028 1.388 . S
C2029 C2030 1.390 . S
C2030 C2029 1.390 . S
C2030 C2031 1.394 . S
C2030 C2036 1.465 . S
C2031 C2026 1.399 . S
C2031 C2030 1.394 . S
C2031 C2032 1.516 . S
C2032 C2031 1.516 . S
C2032 C2033 1.502 . S
C2032 C2034 1.561 . S
C2032 C2035 1.526 . S
C2033 H2017 0.959 . S
C2033 H2018 0.959 . S
C2033 H2019 0.961 . S
C2033 C2032 1.502 . S
C2034 H2020 0.960 . S
C2034 H2021 0.961 . S
C2034 H2022 0.959 . S
C2034 C2032 1.561 . S
C2035 C2032 1.526 . S
C2035 C2036 1.396 . S
C2035 C2040 1.390 . S
C2036 C2030 1.465 . S
C2036 C2035 1.396 . S
C2036 C2037 1.399 . S
C2037 H2023 0.929 . S
C2037 C2036 1.399 . S
C2037 C2038 1.385 . S
C2038 H2024 0.931 . S
C2038 C2037 1.385 . S
C2038 C2039 1.389 . S
C2039 C2038 1.389 . S
C2039 C2040 1.387 . S
C2040 H2025 0.930 . S
C2040 C2035 1.390 . S
C2040 C2039 1.387 . S
H2041 C2053 0.930 . S
H2042 C2055 0.930 . S
H2043 C2056 0.930 . S
H2044 C2060 0.959 . S
H2045 C2060 0.959 . S
H2046 C2060 0.961 . S
H2047 C2061 0.960 . S
H2048 C2061 0.961 . S
H2049 C2061 0.959 . S
H2050 C2064 0.929 . S
H2051 C2065 0.931 . S
H2052 C2067 0.930 . S
C2053 H2041 0.930 . S
C2053 C2054 1.399 . S
C2053 C2058 1.399 . S
C2054 C2053 1.399 . S
C2054 C2055 1.376 . S
C2055 H2042 0.930 . S
C2055 C2054 1.376 . S
C2055 C2056 1.388 . S
C2056 H2043 0.930 . S
C2056 C2055 1.388 . S
C2056 C2057 1.390 . S
C2057 C2056 1.390 . S
C2057 C2058 1.394 . S
C2057 C2063 1.465 . S
C2058 C2053 1.399 . S
C2058 C2057 1.394 . S
C2058 C2059 1.516 . S
C2059 C2058 1.516 . S
C2059 C2060 1.502 . S
C2059 C2061 1.561 . S
C2059 C2062 1.526 . S
C2060 H2044 0.959 . S
C2060 H2045 0.959 . S
C2060 H2046 0.961 . S
C2060 C2059 1.502 . S
C2061 H2047 0.960 . S
C2061 H2048 0.961 . S
C2061 H2049 0.959 . S
C2061 C2059 1.561 . S
C2062 C2059 1.526 . S
C2062 C2063 1.396 . S
C2062 C2067 1.390 . S
C2063 C2057 1.465 . S
C2063 C2062 1.396 . S
C2063 C2064 1.399 . S
C2064 H2050 0.929 . S
C2064 C2063 1.399 . S
C2064 C2065 1.385 . S
C2065 H2051 0.931 . S
C2065 C2064 1.385 . S
C2065 C2066 1.389 . S
C2066 C2065 1.389 . S
C2066 C2067 1.387 . S
C2067 H2052 0.930 . S
C2067 C2062 1.390 . S
C2067 C2066 1.387 . S
H2068 C2080 0.930 . S
H2069 C2082 0.930 . S
H2070 C2083 0.930 . S
H2071 C2087 0.959 . S
H2072 C2087 0.959 . S
H2073 C2087 0.961 . S
H2074 C2088 0.960 . S
H2075 C2088 0.961 . S
H2076 C2088 0.959 . S
H2077 C2091 0.929 . S
H2078 C2092 0.931 1_556 S
H2079 C2094 0.930 . S
C2080 H2068 0.930 . S
C2080 C2081 1.399 . S
C2080 C2085 1.399 . S
C2081 C2080 1.399 . S
C2081 C2082 1.376 . S
C2082 H2069 0.930 . S
C2082 C2081 1.376 . S
C2082 C2083 1.388 . S
C2083 H2070 0.930 . S
C2083 C2082 1.388 . S
C2083 C2084 1.390 . S
C2084 C2083 1.390 . S
C2084 C2085 1.394 . S
C2084 C2090 1.465 . S
C2085 C2080 1.399 . S
C2085 C2084 1.394 . S
C2085 C2086 1.516 . S
C2086 C2085 1.516 . S
C2086 C2087 1.502 . S
C2086 C2088 1.561 . S
C2086 C2089 1.526 . S
C2087 H2071 0.959 . S
C2087 H2072 0.959 . S
C2087 H2073 0.961 . S
C2087 C2086 1.502 . S
C2088 H2074 0.960 . S
C2088 H2075 0.961 . S
C2088 H2076 0.959 . S
C2088 C2086 1.561 . S
C2089 C2086 1.526 . S
C2089 C2090 1.396 . S
C2089 C2094 1.390 . S
C2090 C2084 1.465 . S
C2090 C2089 1.396 . S
C2090 C2091 1.399 . S
C2091 H2077 0.929 . S
C2091 C2090 1.399 . S
C2091 C2092 1.385 . S
C2092 H2078 0.931 1_554 S
C2092 C2091 1.385 . S
C2092 C2093 1.389 . S
C2093 C2092 1.389 . S
C2093 C2094 1.387 . S
C2094 H2079 0.930 . S
C2094 C2089 1.390 . S
C2094 C2093 1.387 . S
H2095 C2107 0.930 1_554 S
H2096 C2109 0.930 . S
H2097 C2110 0.930 . S
H2098 C2114 0.959 . S
H2099 C2114 0.959 . S
H2100 C2114 0.961 . S
H2101 C2115 0.960 . S
H2102 C2115 0.961 . S
H2103 C2115 0.959 . S
H2104 C2118 0.929 . S
H2105 C2119 0.931 . S
H2106 C2121 0.930 . S
C2107 H2095 0.930 1_556 S
C2107 C2108 1.399 . S
C2107 C2112 1.399 . S
C2108 C2107 1.399 . S
C2108 C2109 1.376 . S
C2109 H2096 0.930 . S
C2109 C2108 1.376 . S
C2109 C2110 1.388 . S
C2110 H2097 0.930 . S
C2110 C2109 1.388 . S
C2110 C2111 1.390 . S
C2111 C2110 1.390 . S
C2111 C2112 1.394 . S
C2111 C2117 1.465 . S
C2112 C2107 1.399 . S
C2112 C2111 1.394 . S
C2112 C2113 1.516 . S
C2113 C2112 1.516 . S
C2113 C2114 1.502 . S
C2113 C2115 1.561 . S
C2113 C2116 1.526 . S
C2114 H2098 0.959 . S
C2114 H2099 0.959 . S
C2114 H2100 0.961 . S
C2114 C2113 1.502 . S
C2115 H2101 0.960 . S
C2115 H2102 0.961 . S
C2115 H2103 0.959 . S
C2115 C2113 1.561 . S
C2116 C2113 1.526 . S
C2116 C2117 1.396 . S
C2116 C2121 1.390 . S
C2117 C2111 1.465 . S
C2117 C2116 1.396 . S
C2117 C2118 1.399 . S
C2118 H2104 0.929 . S
C2118 C2117 1.399 . S
C2118 C2119 1.385 . S
C2119 H2105 0.931 . S
C2119 C2118 1.385 . S
C2119 C2120 1.389 . S
C2120 C2119 1.389 . S
C2120 C2121 1.387 . S
C2121 H2106 0.930 . S
C2121 C2116 1.390 . S
C2121 C2120 1.387 . S
H2122 C2134 0.930 . S
H2123 C2136 0.930 . S
H2124 C2137 0.930 . S
H2125 C2141 0.959 . S
H2126 C2141 0.959 . S
H2127 C2141 0.961 . S
H2128 C2142 0.960 . S
H2129 C2142 0.961 . S
H2130 C2142 0.959 . S
H2131 C2145 0.929 . S
H2132 C2146 0.931 . S
H2133 C2148 0.930 . S
C2134 H2122 0.930 . S
C2134 C2135 1.399 . S
C2134 C2139 1.399 . S
C2135 C2134 1.399 . S
C2135 C2136 1.376 . S
C2136 H2123 0.930 . S
C2136 C2135 1.376 . S
C2136 C2137 1.388 . S
C2137 H2124 0.930 . S
C2137 C2136 1.388 . S
C2137 C2138 1.390 . S
C2138 C2137 1.390 . S
C2138 C2139 1.394 . S
C2138 C2144 1.465 . S
C2139 C2134 1.399 . S
C2139 C2138 1.394 . S
C2139 C2140 1.516 . S
C2140 C2139 1.516 . S
C2140 C2141 1.502 . S
C2140 C2142 1.561 . S
C2140 C2143 1.526 . S
C2141 H2125 0.959 . S
C2141 H2126 0.959 . S
C2141 H2127 0.961 . S
C2141 C2140 1.502 . S
C2142 H2128 0.960 . S
C2142 H2129 0.961 . S
C2142 H2130 0.959 . S
C2142 C2140 1.561 . S
C2143 C2140 1.526 . S
C2143 C2144 1.396 . S
C2143 C2148 1.390 . S
C2144 C2138 1.465 . S
C2144 C2143 1.396 . S
C2144 C2145 1.399 . S
C2145 H2131 0.929 . S
C2145 C2144 1.399 . S
C2145 C2146 1.385 . S
C2146 H2132 0.931 . S
C2146 C2145 1.385 . S
C2146 C2147 1.389 . S
C2147 C2146 1.389 . S
C2147 C2148 1.387 . S
C2148 H2133 0.930 . S
C2148 C2143 1.390 . S
C2148 C2147 1.387 . S
H2149 C2161 0.930 . S
H2150 C2163 0.930 . S
H2151 C2164 0.930 . S
H2152 C2168 0.959 . S
H2153 C2168 0.959 . S
H2154 C2168 0.961 . S
H2155 C2169 0.960 . S
H2156 C2169 0.961 . S
H2157 C2169 0.959 . S
H2158 C2172 0.929 . S
H2159 C2173 0.931 . S
H2160 C2175 0.930 . S
C2161 H2149 0.930 . S
C2161 C2162 1.399 . S
C2161 C2166 1.399 . S
C2162 C2161 1.399 . S
C2162 C2163 1.376 . S
C2163 H2150 0.930 . S
C2163 C2162 1.376 . S
C2163 C2164 1.388 . S
C2164 H2151 0.930 . S
C2164 C2163 1.388 . S
C2164 C2165 1.390 . S
C2165 C2164 1.390 . S
C2165 C2166 1.394 . S
C2165 C2171 1.465 . S
C2166 C2161 1.399 . S
C2166 C2165 1.394 . S
C2166 C2167 1.516 . S
C2167 C2166 1.516 . S
C2167 C2168 1.502 . S
C2167 C2169 1.561 . S
C2167 C2170 1.526 . S
C2168 H2152 0.959 . S
C2168 H2153 0.959 . S
C2168 H2154 0.961 . S
C2168 C2167 1.502 . S
C2169 H2155 0.960 . S
C2169 H2156 0.961 . S
C2169 H2157 0.959 . S
C2169 C2167 1.561 . S
C2170 C2167 1.526 . S
C2170 C2171 1.396 . S
C2170 C2175 1.390 . S
C2171 C2165 1.465 . S
C2171 C2170 1.396 . S
C2171 C2172 1.399 . S
C2172 H2158 0.929 . S
C2172 C2171 1.399 . S
C2172 C2173 1.385 . S
C2173 H2159 0.931 . S
C2173 C2172 1.385 . S
C2173 C2174 1.389 . S
C2174 C2173 1.389 . S
C2174 C2175 1.387 . S
C2175 H2160 0.930 . S
C2175 C2170 1.390 . S
C2175 C2174 1.387 . S
C461 C89 1.482 . S
C473 C5 1.488 . S
C488 C19 1.475 . S
C500 C103 1.488 . S
C515 C61 1.481 . S
C527 C33 1.488 . S
C542 C47 1.488 . S
C554 C75 1.479 . S
C569 C117 1.473 . S
C581 C201 1.479 . S
C596 C215 1.480 . S
C608 C131 1.488 . S
C623 C145 1.473 . S
C635 C173 1.477 . S
C650 C187 1.488 . S
C662 C159 1.480 . S
C677 C229 1.480 . S
C689 C313 1.488 . S
C704 C243 1.473 . S
C716 C327 1.484 . S
C731 C285 1.482 . S
C743 C257 1.473 . S
C758 C299 1.488 . S
C770 C271 1.480 . S
C785 C341 1.488 . S
C797 C425 1.485 . S
C812 C355 1.479 . S
C824 C439 1.488 . S
C839 C397 1.473 . S
C851 C369 1.478 . S
C866 C383 1.484 . S
C878 C411 1.489 . S
C893 C11 1.457 1_556 S
C905 C109 1.476 . S
C920 C67 1.451 1_554 S
C932 C25 1.462 . S
C947 C81 1.461 . S
C959 C39 1.478 . S
C974 C53 1.457 . S
C986 C95 1.476 . S
C1001 C123 1.452 1_554 S
C1013 C221 1.453 . S
C1028 C179 1.478 1_556 S
C1040 C137 1.470 . S
C1055 C193 1.453 . S
C1067 C151 1.452 . S
C1082 C207 1.460 . S
C1094 C165 1.472 . S
C1109 C235 1.466 . S
C1121 C333 1.479 . S
C1136 C249 1.478 . S
C1148 C291 1.462 . S
C1163 C305 1.478 . S
C1175 C263 1.464 1_556 S
C1190 C277 1.462 . S
C1202 C319 1.478 1_554 S
C1217 C347 1.471 . S
C1229 C445 1.460 . S
C1244 C403 1.453 . S
C1256 C361 1.452 . S
C1271 C375 1.452 1_554 S
C1283 C417 1.453 . S
C1298 C389 1.479 . S
C1310 C431 1.474 1_556 S
C1325 C420 1.453 . S
C1337 C0 1.451 . S
C1352 C210 1.460 . S
C1364 C14 1.455 . S
C1379 C28 1.462 . S
C1391 C392 1.457 . S
C1406 C42 1.489 . S
C1418 C182 1.494 . S
C1433 C56 1.483 . S
C1445 C364 1.490 . S
C1460 C70 1.455 . S
C1472 C154 1.452 . S
C1487 C84 1.487 . S
C1499 C336 1.493 . S
C1514 C126 1.498 . S
C1526 C98 1.500 . S
C1541 C308 1.484 . S
C1553 C112 1.491 . S
C1568 C140 1.496 . S
C1580 C280 1.499 . S
C1595 C252 1.463 . S
C1607 C168 1.458 . S
C1622 C224 1.465 . S
C1634 C196 1.459 . S
C1649 C238 1.467 . S
C1661 C434 1.461 . S
C1676 C266 1.492 . S
C1688 C406 1.486 . S
C1703 C294 1.480 . S
C1715 C378 1.487 . S
C1730 C350 1.497 . S
C1742 C322 1.499 . S
C1757 C9 1.476 . S
C1769 C107 1.475 . S
C1784 C23 1.477 . S
C1796 C65 1.476 . S
C1811 C79 1.473 1_556 S
C1823 C37 1.474 . S
C1838 C51 1.477 1_554 S
C1850 C93 1.477 . S
C1865 C219 1.477 . S
C1877 C121 1.474 . S
C1892 C177 1.477 . S
C1904 C135 1.476 . S
C1919 C149 1.474 . S
C1931 C191 1.477 1_554 S
C1946 C205 1.474 . S
C1958 C163 1.474 1_556 S
C1973 C331 1.473 1_556 S
C1985 C233 1.476 . S
C2000 C289 1.476 . S
C2012 C247 1.474 1_554 S
C2027 C303 1.475 . S
C2039 C261 1.477 . S
C2054 C317 1.473 . S
C2066 C275 1.475 . S
C2081 C345 1.476 . S
C2093 C443 1.476 1_554 S
C2108 C359 1.477 1_556 S
C2120 C401 1.474 . S
C2135 C373 1.474 . S
C2147 C415 1.474 . S
C2162 C429 1.473 . S
C2174 C387 1.477 . S
