# Generated by pormake.
# Topology vmf, (6)-cn, num edge types: 1
# Building blocks:
#     Node 0, Type 0, BuildingBlock: OJICUG_clean_sbu_0, # of connection points: 6
#     Node 1, Type 0, BuildingBlock: OJICUG_clean_sbu_0, # of connection points: 6
#     Node 2, Type 0, BuildingBlock: OJICUG_clean_sbu_0, # of connection points: 6
#     Node 3, Type 0, BuildingBlock: OJICUG_clean_sbu_0, # of connection points: 6
#     Node 4, Type 0, BuildingBlock: OJICUG_clean_sbu_0, # of connection points: 6
#     Node 5, Type 0, BuildingBlock: OJICUG_clean_sbu_0, # of connection points: 6
#     Node 6, Type 0, BuildingBlock: OJICUG_clean_sbu_0, # of connection points: 6
#     Node 7, Type 0, BuildingBlock: OJICUG_clean_sbu_0, # of connection points: 6
#     Edge 8, Type (0, 0), BuildingBlock: UVAHIK_clean_linker_0, # of connection points: 2
#     Edge 9, Type (0, 0), BuildingBlock: UVAHIK_clean_linker_0, # of connection points: 2
#     Edge 10, Type (0, 0), BuildingBlock: UVAHIK_clean_linker_0, # of connection points: 2
#     Edge 11, Type (0, 0), BuildingBlock: UVAHIK_clean_linker_0, # of connection points: 2
#     Edge 12, Type (0, 0), BuildingBlock: UVAHIK_clean_linker_0, # of connection points: 2
#     Edge 13, Type (0, 0), BuildingBlock: UVAHIK_clean_linker_0, # of connection points: 2
#     Edge 14, Type (0, 0), BuildingBlock: UVAHIK_clean_linker_0, # of connection points: 2
#     Edge 15, Type (0, 0), BuildingBlock: UVAHIK_clean_linker_0, # of connection points: 2
#     Edge 16, Type (0, 0), BuildingBlock: UVAHIK_clean_linker_0, # of connection points: 2
#     Edge 17, Type (0, 0), BuildingBlock: UVAHIK_clean_linker_0, # of connection points: 2
#     Edge 18, Type (0, 0), BuildingBlock: UVAHIK_clean_linker_0, # of connection points: 2
#     Edge 19, Type (0, 0), BuildingBlock: UVAHIK_clean_linker_0, # of connection points: 2
#     Edge 20, Type (0, 0), BuildingBlock: UVAHIK_clean_linker_0, # of connection points: 2
#     Edge 21, Type (0, 0), BuildingBlock: UVAHIK_clean_linker_0, # of connection points: 2
#     Edge 22, Type (0, 0), BuildingBlock: UVAHIK_clean_linker_0, # of connection points: 2
#     Edge 23, Type (0, 0), BuildingBlock: UVAHIK_clean_linker_0, # of connection points: 2
#     Edge 24, Type (0, 0), BuildingBlock: UVAHIK_clean_linker_0, # of connection points: 2
#     Edge 25, Type (0, 0), BuildingBlock: UVAHIK_clean_linker_0, # of connection points: 2
#     Edge 26, Type (0, 0), BuildingBlock: UVAHIK_clean_linker_0, # of connection points: 2
#     Edge 27, Type (0, 0), BuildingBlock: UVAHIK_clean_linker_0, # of connection points: 2
#     Edge 28, Type (0, 0), BuildingBlock: UVAHIK_clean_linker_0, # of connection points: 2
#     Edge 29, Type (0, 0), BuildingBlock: UVAHIK_clean_linker_0, # of connection points: 2
#     Edge 30, Type (0, 0), BuildingBlock: UVAHIK_clean_linker_0, # of connection points: 2
#     Edge 31, Type (0, 0), BuildingBlock: UVAHIK_clean_linker_0, # of connection points: 2
# Relax obj value: 0.306
# Max RMSD: 0.281
# Mean RMSD: 0.281
data_MOF--net-vmf--node1-OJICUG_clean_sbu_0--edge1-UVAHIK_clean_linker_0
_symmetry_space_group_name_H-M    P1
_symmetry_Int_Tables_number       1
_symmetry_cell_setting            triclinic
loop_
_symmetry_equiv_pos_as_xyz
'x, y, z'
_cell_length_a     38.843161
_cell_length_b     57.324
_cell_length_c     38.09547
_cell_angle_alpha  89.389364
_cell_angle_beta   106.45653
_cell_angle_gamma 90.39061
loop_
_atom_site_label
_atom_site_type_symbol
_atom_site_fract_x
_atom_site_fract_y
_atom_site_fract_z
_atom_type_partial_charge
Sc0 Sc 0.19082 0.31951 0.19226 0.0
Sc1 Sc 0.17862 0.26434 0.22868 0.0
Sc2 Sc 0.13041 0.31318 0.24507 0.0
O3 O 0.1668 0.29899 0.2223 0.0
C4 C 0.18459 0.35643 0.25204 0.0
C5 C 0.25594 0.28735 0.23277 0.0
C6 C 0.17806 0.28023 0.30904 0.0
C7 C 0.1771 0.27208 0.14617 0.0
C8 C 0.10808 0.33396 0.16304 0.0
C9 C 0.09539 0.26259 0.22534 0.0
O10 O 0.19942 0.34878 0.22878 0.0
O11 O 0.23567 0.27049 0.23664 0.0
O12 O 0.15789 0.29811 0.29883 0.0
O13 O 0.18543 0.29349 0.15111 0.0
O14 O 0.09979 0.32774 0.192 0.0
O15 O 0.12341 0.25273 0.22165 0.0
O16 O 0.13998 0.33283 0.16054 0.0
O17 O 0.17137 0.25894 0.17107 0.0
O18 O 0.09505 0.28392 0.23347 0.0
O19 O 0.24376 0.30716 0.21995 0.0
O20 O 0.1596 0.34538 0.26051 0.0
O21 O 0.18728 0.26695 0.2867 0.0
Sc22 Sc 0.81458 0.31389 0.73381 0.0
Sc23 Sc 0.76597 0.26485 0.75148 0.0
Sc24 Sc 0.75484 0.3198 0.78723 0.0
O25 O 0.77825 0.29951 0.75718 0.0
C26 C 0.83773 0.33435 0.81545 0.0
C27 C 0.84923 0.26335 0.75531 0.0
C28 C 0.76813 0.27223 0.83408 0.0
C29 C 0.76664 0.28099 0.6707 0.0
C30 C 0.76086 0.35706 0.72659 0.0
C31 C 0.68908 0.28776 0.7473 0.0
O32 O 0.84562 0.32836 0.78641 0.0
O33 O 0.82111 0.25344 0.75922 0.0
O34 O 0.76048 0.29371 0.82899 0.0
O35 O 0.7868 0.29896 0.68041 0.0
O36 O 0.74621 0.34914 0.75013 0.0
O37 O 0.709 0.27102 0.74316 0.0
O38 O 0.78561 0.34618 0.71794 0.0
O39 O 0.75751 0.26758 0.69343 0.0
O40 O 0.70164 0.3074 0.7603 0.0
O41 O 0.84973 0.28462 0.74617 0.0
O42 O 0.80594 0.33312 0.81832 0.0
O43 O 0.77292 0.25914 0.80914 0.0
Sc44 Sc 0.81508 0.64615 0.73751 0.0
Sc45 Sc 0.76519 0.69447 0.75237 0.0
Sc46 Sc 0.75277 0.6395 0.78842 0.0
O47 O 0.77756 0.66 0.75911 0.0
C48 C 0.76128 0.60266 0.72912 0.0
C49 C 0.76728 0.67895 0.67268 0.0
C50 C 0.68789 0.67115 0.74773 0.0
C51 C 0.84885 0.69676 0.75757 0.0
C52 C 0.83552 0.62545 0.8197 0.0
C53 C 0.76535 0.68713 0.83412 0.0
O54 O 0.78557 0.61419 0.72012 0.0
O55 O 0.75582 0.69146 0.69441 0.0
O56 O 0.69959 0.65086 0.7585 0.0
O57 O 0.8511 0.67519 0.7519 0.0
O58 O 0.80363 0.62724 0.82208 0.0
O59 O 0.77332 0.69997 0.81009 0.0
O60 O 0.84404 0.63079 0.79052 0.0
O61 O 0.81962 0.70646 0.7579 0.0
O62 O 0.75565 0.66596 0.82852 0.0
O63 O 0.78922 0.66198 0.68364 0.0
O64 O 0.74676 0.60987 0.75291 0.0
O65 O 0.70871 0.68809 0.74583 0.0
Sc66 Sc 0.18881 0.63899 0.19585 0.0
Sc67 Sc 0.17455 0.69379 0.22979 0.0
Sc68 Sc 0.12822 0.64409 0.24862 0.0
O69 O 0.16404 0.65894 0.22508 0.0
C70 C 0.10635 0.62337 0.16707 0.0
C71 C 0.17394 0.68618 0.14793 0.0
C72 C 0.09151 0.69396 0.22628 0.0
C73 C 0.25264 0.67221 0.23524 0.0
C74 C 0.18331 0.60166 0.25664 0.0
C75 C 0.17482 0.67802 0.31105 0.0
O76 O 0.13813 0.6252 0.16422 0.0
O77 O 0.16703 0.69909 0.17199 0.0
O78 O 0.09177 0.67269 0.23568 0.0
O79 O 0.24153 0.65196 0.22388 0.0
O80 O 0.15836 0.6123 0.26528 0.0
O81 O 0.18342 0.69143 0.28797 0.0
O82 O 0.19761 0.60968 0.23292 0.0
O83 O 0.23143 0.68861 0.2376 0.0
O84 O 0.15532 0.65971 0.30176 0.0
O85 O 0.18342 0.66503 0.15396 0.0
O86 O 0.09814 0.62905 0.1961 0.0
O87 O 0.11922 0.70426 0.22219 0.0
Sc88 Sc 0.69031 0.82052 0.19439 0.0
Sc89 Sc 0.67502 0.76531 0.22831 0.0
Sc90 Sc 0.62858 0.81457 0.24594 0.0
O91 O 0.66482 0.80014 0.22321 0.0
C92 C 0.68387 0.85727 0.25437 0.0
C93 C 0.75354 0.78716 0.23456 0.0
C94 C 0.67474 0.78053 0.30916 0.0
C95 C 0.6755 0.77375 0.14669 0.0
C96 C 0.60785 0.83566 0.16412 0.0
C97 C 0.59182 0.76467 0.224 0.0
O98 O 0.69888 0.84949 0.23136 0.0
O99 O 0.732 0.77066 0.23661 0.0
O100 O 0.6553 0.79879 0.29944 0.0
O101 O 0.68532 0.79484 0.15278 0.0
O102 O 0.59914 0.8297 0.19296 0.0
O103 O 0.61957 0.75454 0.22031 0.0
O104 O 0.63988 0.83426 0.16193 0.0
O105 O 0.66796 0.76059 0.17059 0.0
O106 O 0.59212 0.78585 0.23313 0.0
O107 O 0.74279 0.80753 0.22315 0.0
O108 O 0.65839 0.84649 0.26234 0.0
O109 O 0.68343 0.76727 0.28641 0.0
Sc110 Sc 0.31447 0.81296 0.73451 0.0
Sc111 Sc 0.26569 0.76383 0.75179 0.0
Sc112 Sc 0.25484 0.81861 0.78811 0.0
O113 O 0.27813 0.79845 0.75783 0.0
C114 C 0.33774 0.83333 0.81617 0.0
C115 C 0.34892 0.76231 0.75575 0.0
C116 C 0.26782 0.77089 0.83457 0.0
C117 C 0.26662 0.78019 0.67111 0.0
C118 C 0.26061 0.85602 0.72763 0.0
C119 C 0.18891 0.7867 0.74784 0.0
O120 O 0.34569 0.82719 0.78723 0.0
O121 O 0.32085 0.75244 0.75984 0.0
O122 O 0.26073 0.79247 0.82989 0.0
O123 O 0.28654 0.79827 0.68089 0.0
O124 O 0.24579 0.84783 0.75085 0.0
O125 O 0.20867 0.77003 0.74314 0.0
O126 O 0.28573 0.84543 0.71917 0.0
O127 O 0.25765 0.76668 0.69382 0.0
O128 O 0.20167 0.80616 0.76143 0.0
O129 O 0.34942 0.78357 0.74648 0.0
O130 O 0.30593 0.83212 0.81899 0.0
O131 O 0.27221 0.7579 0.80934 0.0
Sc132 Sc 0.31502 0.1455 0.73645 0.0
Sc133 Sc 0.26571 0.19425 0.75102 0.0
Sc134 Sc 0.25296 0.13958 0.7878 0.0
O135 O 0.27777 0.15974 0.7581 0.0
C136 C 0.26056 0.10237 0.72873 0.0
C137 C 0.26725 0.17808 0.67142 0.0
C138 C 0.18824 0.17155 0.74725 0.0
C139 C 0.34927 0.19612 0.75568 0.0
C140 C 0.33565 0.1251 0.81867 0.0
C141 C 0.26669 0.18732 0.83316 0.0
O142 O 0.28541 0.11343 0.71996 0.0
O143 O 0.25616 0.1909 0.69307 0.0
O144 O 0.19979 0.15131 0.7585 0.0
O145 O 0.35124 0.17451 0.75001 0.0
O146 O 0.30376 0.12688 0.82107 0.0
O147 O 0.27408 0.20006 0.80869 0.0
O148 O 0.34416 0.13049 0.78953 0.0
O149 O 0.32022 0.20594 0.75631 0.0
O150 O 0.25698 0.16613 0.82797 0.0
O151 O 0.28892 0.16099 0.68246 0.0
O152 O 0.24586 0.11003 0.7521 0.0
O153 O 0.20916 0.18828 0.74469 0.0
Sc154 Sc 0.68985 0.1403 0.19544 0.0
Sc155 Sc 0.67882 0.19487 0.23178 0.0
Sc156 Sc 0.62838 0.14612 0.24719 0.0
O157 O 0.6658 0.16042 0.22511 0.0
C158 C 0.60696 0.12576 0.16555 0.0
C159 C 0.67708 0.1882 0.14936 0.0
C160 C 0.59521 0.19694 0.22677 0.0
C161 C 0.75565 0.17182 0.236 0.0
C162 C 0.68243 0.10304 0.25561 0.0
C163 C 0.6766 0.17839 0.31163 0.0
O164 O 0.63887 0.12737 0.1631 0.0
O165 O 0.67128 0.20104 0.17412 0.0
O166 O 0.59293 0.17537 0.23336 0.0
O167 O 0.74325 0.15201 0.2237 0.0
O168 O 0.65742 0.11385 0.26398 0.0
O169 O 0.68768 0.19137 0.2897 0.0
O170 O 0.69724 0.11092 0.23219 0.0
O171 O 0.73544 0.18861 0.23919 0.0
O172 O 0.65492 0.16122 0.30096 0.0
O173 O 0.6854 0.1668 0.15443 0.0
O174 O 0.59856 0.13144 0.19443 0.0
O175 O 0.62436 0.20668 0.22556 0.0
C176 C 0.52875 0.20196 0.20536 0.0
C177 C 0.56277 0.21118 0.22312 0.0
C178 C 0.49757 0.21368 0.20623 0.0
C179 C 0.46181 0.24885 0.26437 0.0
H180 H 0.38468 0.26393 0.17742 0.0
C181 C 0.31138 0.263 0.25837 0.0
C182 C 0.29486 0.28283 0.2388 0.0
C183 C 0.34657 0.25706 0.25923 0.0
C184 C 0.40609 0.25994 0.20193 0.0
H185 H 0.59091 0.23998 0.25543 0.0
H186 H 0.53603 0.26021 0.25794 0.0
H187 H 0.44144 0.24865 0.17124 0.0
H188 H 0.30306 0.31236 0.20581 0.0
H189 H 0.36393 0.30161 0.20671 0.0
H190 H 0.42577 0.25912 0.29502 0.0
C191 C 0.53373 0.2441 0.24282 0.0
C192 C 0.43844 0.25117 0.19837 0.0
C193 C 0.56501 0.23266 0.24111 0.0
C194 C 0.31488 0.29702 0.22132 0.0
C195 C 0.3497 0.29083 0.22159 0.0
C196 C 0.4291 0.25712 0.26792 0.0
C197 C 0.49976 0.23454 0.22571 0.0
C198 C 0.46655 0.24549 0.22954 0.0
C199 C 0.36564 0.27057 0.23996 0.0
C200 C 0.40092 0.26269 0.23671 0.0
H201 H 0.52629 0.18537 0.19145 0.0
H202 H 0.4717 0.20592 0.19295 0.0
H203 H 0.48301 0.24437 0.2888 0.0
H204 H 0.29676 0.25169 0.27213 0.0
H205 H 0.35826 0.2413 0.27352 0.0
C206 C 0.63047 0.29703 0.75926 0.0
C207 C 0.65013 0.28322 0.74143 0.0
C208 C 0.59564 0.29068 0.7592 0.0
C209 C 0.51563 0.25738 0.71306 0.0
H210 H 0.50398 0.24726 0.80998 0.0
C211 C 0.3799 0.23198 0.74078 0.0
C212 C 0.38193 0.21032 0.75887 0.0
C213 C 0.41128 0.2435 0.73881 0.0
C214 C 0.50679 0.25023 0.78279 0.0
H215 H 0.64754 0.25266 0.70769 0.0
H216 H 0.58603 0.24203 0.70666 0.0
H217 H 0.56075 0.2629 0.80346 0.0
H218 H 0.41818 0.18425 0.79047 0.0
H219 H 0.47295 0.20492 0.78848 0.0
H220 H 0.46153 0.24472 0.69247 0.0
C221 C 0.59801 0.25759 0.72106 0.0
C222 C 0.53915 0.25921 0.77904 0.0
C223 C 0.63321 0.26367 0.72171 0.0
C224 C 0.41587 0.20097 0.77646 0.0
C225 C 0.44715 0.21276 0.77532 0.0
C226 C 0.48293 0.24889 0.71682 0.0
C227 C 0.57932 0.27068 0.74068 0.0
C228 C 0.54406 0.26256 0.74417 0.0
C229 C 0.44515 0.23384 0.75576 0.0
C230 C 0.47843 0.24494 0.75174 0.0
H231 H 0.6426 0.31214 0.7749 0.0
H232 H 0.5817 0.30113 0.77435 0.0
H233 H 0.51877 0.25984 0.6859 0.0
H234 H 0.35407 0.23942 0.7266 0.0
H235 H 0.40912 0.25978 0.72364 0.0
C236 C 0.41483 0.76113 0.76349 0.0
C237 C 0.38261 0.74891 0.76046 0.0
C238 C 0.44627 0.74935 0.76428 0.0
C239 C 0.48002 0.69454 0.73693 0.0
H240 H 0.57105 0.72041 0.79374 0.0
C241 C 0.62506 0.65891 0.7471 0.0
C242 C 0.64916 0.6763 0.74216 0.0
C243 C 0.59046 0.66484 0.74849 0.0
C244 C 0.54583 0.71299 0.7777 0.0
H245 H 0.35863 0.71444 0.75686 0.0
H246 H 0.41424 0.69362 0.75872 0.0
H247 H 0.5154 0.73526 0.80206 0.0
H248 H 0.65453 0.71339 0.73238 0.0
H249 H 0.59479 0.72355 0.7353 0.0
H250 H 0.5112 0.67212 0.71284 0.0
C251 C 0.41476 0.71249 0.76007 0.0
C252 C 0.51389 0.72152 0.78238 0.0
C253 C 0.383 0.72438 0.75934 0.0
C254 C 0.63701 0.69949 0.73648 0.0
C255 C 0.60277 0.70539 0.73833 0.0
C256 C 0.51223 0.68574 0.7326 0.0
C257 C 0.44675 0.7249 0.76229 0.0
C258 C 0.48049 0.71299 0.76121 0.0
C259 C 0.57955 0.68827 0.74541 0.0
C260 C 0.54535 0.69543 0.75218 0.0
H261 H 0.41575 0.78001 0.76453 0.0
H262 H 0.47005 0.75961 0.76532 0.0
H263 H 0.45482 0.68762 0.72007 0.0
H264 H 0.63341 0.64087 0.7515 0.0
H265 H 0.57297 0.65131 0.75387 0.0
C266 C 0.30275 0.70138 0.2456 0.0
C267 C 0.29121 0.678 0.24091 0.0
C268 C 0.3369 0.70777 0.24365 0.0
C269 C 0.42777 0.68873 0.24987 0.0
H270 H 0.42444 0.73869 0.17953 0.0
C271 C 0.55668 0.72703 0.22073 0.0
C272 C 0.55774 0.75156 0.21939 0.0
C273 C 0.52469 0.71531 0.22042 0.0
C274 C 0.42598 0.72483 0.19946 0.0
H275 H 0.30792 0.64278 0.23336 0.0
H276 H 0.3681 0.65407 0.23076 0.0
H277 H 0.36888 0.72372 0.18877 0.0
H278 H 0.52557 0.78286 0.21523 0.0
H279 H 0.4708 0.76273 0.21517 0.0
H280 H 0.48512 0.69053 0.26161 0.0
C281 C 0.35025 0.66737 0.23543 0.0
C282 C 0.3941 0.71625 0.2047 0.0
C283 C 0.31579 0.66095 0.23693 0.0
C284 C 0.52593 0.76397 0.21644 0.0
C285 C 0.49425 0.75236 0.21608 0.0
C286 C 0.45989 0.69756 0.24496 0.0
C287 C 0.36058 0.69096 0.23746 0.0
C288 C 0.39467 0.6985 0.2305 0.0
C289 C 0.49317 0.7279 0.21844 0.0
C290 C 0.45937 0.71613 0.2203 0.0
H291 H 0.28479 0.71503 0.2489 0.0
H292 H 0.34444 0.72605 0.24589 0.0
H293 H 0.42886 0.67495 0.26983 0.0
H294 H 0.58073 0.71694 0.22313 0.0
H295 H 0.52471 0.69643 0.22198 0.0
C296 C 0.02588 0.69453 0.22031 0.0
C297 C 0.05757 0.70699 0.22182 0.0
C298 C -0.00563 0.70613 0.21979 0.0
C299 C 0.96048 0.76141 0.24535 0.0
H300 H 0.86913 0.7345 0.19155 0.0
C301 C 0.81683 0.79827 0.23568 0.0
C302 C 0.79208 0.78135 0.24067 0.0
C303 C 0.85122 0.79172 0.23455 0.0
C304 C 0.89445 0.74218 0.20682 0.0
H305 H 0.08053 0.74165 0.22293 0.0
H306 H 0.02482 0.76212 0.2215 0.0
H307 H 0.92444 0.71924 0.18298 0.0
H308 H 0.78534 0.74449 0.251 0.0
H309 H 0.84486 0.73325 0.24866 0.0
H310 H 0.92981 0.78453 0.26888 0.0
C311 C 0.02477 0.74323 0.22118 0.0
C312 C 0.92618 0.73343 0.20196 0.0
C313 C 0.05658 0.73153 0.22167 0.0
C314 C 0.80341 0.75802 0.24682 0.0
C315 C 0.83749 0.7515 0.24528 0.0
C316 C 0.9285 0.7704 0.24988 0.0
C317 C -0.00665 0.73061 0.22054 0.0
C318 C 0.95969 0.74242 0.22196 0.0
C319 C 0.86131 0.76814 0.238 0.0
C320 C 0.89528 0.76038 0.23139 0.0
H321 H 0.02545 0.67563 0.2203 0.0
H322 H 0.97101 0.69576 0.21995 0.0
H323 H -0.01419 0.76869 0.26133 0.0
H324 H 0.80913 0.81641 0.23097 0.0
H325 H 0.86918 0.8049 0.22903 0.0
C326 C 0.87937 0.73247 0.74205 0.0
C327 C 0.8814 0.71108 0.7609 0.0
C328 C 0.91077 0.74388 0.73992 0.0
C329 C 0.00629 0.75088 0.78398 0.0
H330 H 0.01846 0.75883 0.68686 0.0
C331 C 0.13025 0.79646 0.75931 0.0
C332 C 0.14991 0.78231 0.74194 0.0
C333 C 0.09537 0.79033 0.7593 0.0
C334 C 0.01527 0.75683 0.71408 0.0
H335 H 0.91761 0.68543 0.7937 0.0
H336 H -0.0276 0.70596 0.79142 0.0
H337 H 0.96112 0.74419 0.69386 0.0
H338 H 0.14721 0.75134 0.70902 0.0
H339 H 0.08561 0.74106 0.70813 0.0
H340 H 0.0603 0.76351 0.80428 0.0
C341 C 0.94661 0.71366 0.77781 0.0
C342 C -0.01749 0.74862 0.71807 0.0
C343 C 0.91532 0.70195 0.77913 0.0
C344 C 0.13291 0.76262 0.72269 0.0
C345 C 0.09765 0.75674 0.72212 0.0
C346 C 0.03871 0.75957 0.77997 0.0
C347 C 0.94463 0.7344 0.75744 0.0
C348 C -0.02206 0.74527 0.75309 0.0
C349 C 0.07899 0.77018 0.74133 0.0
C350 C 0.04369 0.76233 0.74502 0.0
H351 H 0.85355 0.7397 0.72736 0.0
H352 H 0.90863 0.75991 0.72412 0.0
H353 H 0.00343 0.74837 0.81125 0.0
H354 H 0.1424 0.81171 0.77454 0.0
H355 H 0.08144 0.80107 0.7741 0.0
C356 C 0.88344 0.22545 0.75894 0.0
C357 C 0.88296 0.24998 0.75998 0.0
C358 C 0.91524 0.21359 0.75963 0.0
C359 C 0.01437 0.22282 0.78158 0.0
H360 H 0.01169 0.173 0.71275 0.0
C361 C 0.13769 0.20015 0.73621 0.0
C362 C 0.14959 0.17691 0.74182 0.0
C363 C 0.10351 0.20622 0.73806 0.0
C364 C 0.01273 0.18675 0.7323 0.0
H365 H 0.91599 0.28111 0.76384 0.0
H366 H 0.97031 0.26079 0.76453 0.0
H367 H 0.95532 0.18856 0.71987 0.0
H368 H 0.13344 0.14157 0.75111 0.0
H369 H 0.07312 0.1523 0.75348 0.0
H370 H 0.07153 0.22174 0.79287 0.0
C371 C 0.94659 0.2505 0.76361 0.0
C372 C -0.01948 0.19558 0.73658 0.0
C373 C 0.91513 0.26223 0.76288 0.0
C374 C 0.1253 0.15965 0.74676 0.0
C375 C 0.09076 0.16575 0.74815 0.0
C376 C 0.04632 0.21425 0.77696 0.0
C377 C 0.94717 0.22605 0.76171 0.0
C378 C -0.01904 0.21417 0.76062 0.0
C379 C 0.08007 0.18922 0.74507 0.0
C380 C 0.04585 0.19653 0.7517 0.0
H381 H 0.85913 0.21547 0.75657 0.0
H382 H 0.91479 0.19473 0.75838 0.0
H383 H 0.01588 0.23666 0.8011 0.0
H384 H 0.15538 0.21396 0.73214 0.0
H385 H 0.09573 0.22442 0.73503 0.0
C386 C 0.06135 0.22437 0.2229 0.0
C387 C 0.06207 0.24895 0.22316 0.0
C388 C 0.03077 0.21215 0.22599 0.0
C389 C 0.95649 0.2193 0.2658 0.0
H390 H 0.90244 0.17414 0.1965 0.0
C391 C 0.80889 0.19877 0.25355 0.0
C392 C 0.7948 0.17643 0.24301 0.0
C393 C 0.84437 0.20429 0.25502 0.0
C394 C 0.91757 0.18635 0.2166 0.0
H395 H 0.03011 0.27976 0.22458 0.0
H396 H -0.02213 0.25859 0.23041 0.0
H397 H 0.9594 0.18939 0.18993 0.0
H398 H 0.80794 0.14202 0.22743 0.0
H399 H 0.87011 0.15156 0.23073 0.0
H400 H 0.91505 0.2166 0.29246 0.0
C401 C 0.00093 0.24876 0.2283 0.0
C402 C 0.95015 0.19509 0.21271 0.0
C403 C 0.03099 0.26087 0.22482 0.0
C404 C 0.81775 0.15943 0.23559 0.0
C405 C 0.85338 0.16496 0.23715 0.0
C406 C 0.92427 0.21043 0.26993 0.0
C407 C 0.00072 0.22433 0.22981 0.0
C408 C 0.96931 0.21218 0.23665 0.0
C409 C 0.86696 0.1876 0.24622 0.0
C410 C 0.90374 0.1944 0.24473 0.0
H411 H 0.08474 0.21462 0.22164 0.0
H412 H 0.03113 0.19326 0.22687 0.0
H413 H 0.97104 0.23222 0.28499 0.0
H414 H 0.79214 0.21238 0.25936 0.0
H415 H 0.85356 0.22201 0.26162 0.0
C416 C 0.85764 0.34489 0.88193 0.0
C417 C 0.86664 0.34064 0.84923 0.0
C418 C 0.88415 0.34751 0.91517 0.0
C419 C -0.01972 0.33379 0.96004 0.0
H420 H 0.96371 0.37024 0.03893 0.0
C421 C 0.08931 0.34595 0.09685 0.0
C422 C 0.07955 0.34038 0.12892 0.0
C423 C 0.06339 0.34846 0.06314 0.0
C424 C 0.96859 0.35989 0.01721 0.0
H425 H 0.91125 0.33697 0.82611 0.0
H426 H 0.95775 0.34251 0.88402 0.0
H427 H 0.92016 0.3714 0.97849 0.0
H428 H 0.03416 0.33435 0.15042 0.0
H429 H -0.01142 0.33935 0.09121 0.0
H430 H 0.02919 0.32279 -0.00121 0.0
C431 C 0.92991 0.34309 0.88404 0.0
C432 C 0.94358 0.36046 0.98246 0.0
C433 C 0.9032 0.34019 0.85062 0.0
C434 C 0.04276 0.33867 0.12646 0.0
C435 C 0.01664 0.3415 0.09254 0.0
C436 C 0.00551 0.33354 -0.00542 0.0
C437 C 0.92075 0.3463 0.917 0.0
C438 C 0.9488 0.34719 0.95338 0.0
C439 C 0.02681 0.34579 0.06037 0.0
C440 C -0.00015 0.34643 0.02366 0.0
H441 H 0.82987 0.34531 0.88231 0.0
H442 H 0.87567 0.34953 0.93968 0.0
H443 H -0.01486 0.32293 0.93888 0.0
H444 H 0.11724 0.3476 0.09736 0.0
H445 H 0.07206 0.35214 0.039 0.0
C446 C 0.08721 0.61109 0.10131 0.0
C447 C 0.07769 0.61684 0.13323 0.0
C448 C 0.06114 0.60869 0.0677 0.0
C449 C 0.96515 0.59893 0.02246 0.0
H450 H -0.0159 0.63423 0.94245 0.0
C451 C 0.8548 0.61604 0.88696 0.0
C452 C 0.86398 0.61913 0.85396 0.0
C453 C 0.8812 0.61309 0.92029 0.0
C454 C -0.02147 0.62384 0.96411 0.0
H455 H 0.03254 0.62331 0.15464 0.0
H456 H -0.01325 0.6186 0.0957 0.0
H457 H 0.02847 0.63368 0.00214 0.0
H458 H 0.90867 0.62048 0.83047 0.0
H459 H 0.95484 0.61447 0.88855 0.0
H460 H 0.91551 0.58871 0.98446 0.0
C461 C 0.01471 0.61615 0.09699 0.0
C462 C 0.00398 0.62366 -0.00147 0.0
C463 C 0.04096 0.61881 0.1308 0.0
C464 C 0.90049 0.6182 0.85521 0.0
C465 C 0.92704 0.615 0.88871 0.0
C466 C 0.93985 0.59882 0.98787 0.0
C467 C 0.02464 0.61171 0.06488 0.0
C468 C -0.00247 0.61136 0.0282 0.0
C469 C 0.91781 0.61285 0.92189 0.0
C470 C 0.94595 0.6115 0.95819 0.0
H471 H 0.11509 0.60923 0.10186 0.0
H472 H 0.06966 0.60485 0.04366 0.0
H473 H 0.95957 0.58905 0.04463 0.0
H474 H 0.82708 0.61673 0.88744 0.0
H475 H 0.87274 0.61192 0.94499 0.0
C476 C 0.54283 0.84209 0.12813 0.0
C477 C 0.57946 0.84191 0.12977 0.0
C478 C 0.51641 0.84477 0.09443 0.0
C479 C 0.50371 0.86025 -0.00507 0.0
H480 H 0.41663 0.82378 0.98106 0.0
C481 C 0.40326 0.83787 0.8523 0.0
C482 C 0.36654 0.83987 0.84991 0.0
C483 C 0.42957 0.84085 0.88601 0.0
C484 C 0.44071 0.8342 0.98455 0.0
H485 H 0.61669 0.84523 0.09677 0.0
H486 H 0.57129 0.84912 0.03886 0.0
H487 H 0.4607 0.82432 0.0409 0.0
H488 H 0.32923 0.84781 0.88125 0.0
H489 H 0.37472 0.85268 0.93924 0.0
H490 H 0.48389 0.86931 0.93787 0.0
C491 C 0.56259 0.84775 0.0634 0.0
C492 C 0.46598 0.83468 0.01905 0.0
C493 C 0.58886 0.84535 0.09695 0.0
C494 C 0.35709 0.84591 0.88176 0.0
C495 C 0.38319 0.8486 0.91525 0.0
C496 C 0.47862 0.85946 0.96024 0.0
C497 C 0.52588 0.84711 0.06139 0.0
C498 C 0.49797 0.84768 0.02487 0.0
C499 C 0.41968 0.84563 0.91804 0.0
C500 C 0.4468 0.84646 0.95466 0.0
H501 H 0.53447 0.83952 0.15272 0.0
H502 H 0.48851 0.84468 0.0943 0.0
H503 H 0.52757 0.87083 -0.00179 0.0
H504 H 0.41163 0.83317 0.82851 0.0
H505 H 0.45754 0.83845 0.88731 0.0
C506 C 0.58807 0.11394 0.09958 0.0
C507 C 0.57844 0.11931 0.13158 0.0
C508 C 0.562 0.11127 0.06604 0.0
C509 C 0.46631 0.09996 0.02133 0.0
H510 H 0.48366 0.13551 0.94078 0.0
C511 C 0.35511 0.11567 0.88592 0.0
C512 C 0.36417 0.11885 0.85288 0.0
C513 C 0.38163 0.11298 0.91923 0.0
C514 C 0.47855 0.12505 0.96261 0.0
H515 H 0.53318 0.12491 0.15319 0.0
H516 H 0.48742 0.11978 0.09436 0.0
H517 H 0.52819 0.13569 0.00035 0.0
H518 H 0.40876 0.12056 0.82926 0.0
H519 H 0.45514 0.11501 0.88729 0.0
H520 H 0.41694 0.08899 0.98361 0.0
C521 C 0.51544 0.11781 0.09554 0.0
C522 C 0.50409 0.12529 -0.00306 0.0
C523 C 0.54168 0.12073 0.12927 0.0
C524 C 0.40067 0.11821 0.85404 0.0
C525 C 0.42733 0.11528 0.8875 0.0
C526 C 0.44091 0.09946 0.98682 0.0
C527 C 0.52542 0.11365 0.06337 0.0
C528 C 0.49821 0.11289 0.0268 0.0
C529 C 0.41822 0.11311 0.92073 0.0
C530 C 0.44645 0.1122 0.95696 0.0
H531 H 0.61598 0.11253 0.10003 0.0
H532 H 0.57056 0.10767 0.04194 0.0
H533 H 0.46117 0.09 0.04365 0.0
H534 H 0.32739 0.11613 0.88643 0.0
H535 H 0.37328 0.11174 0.94399 0.0
C536 C 0.21849 0.56472 0.25966 0.0
C537 C 0.1931 0.57767 0.27122 0.0
C538 C 0.2232 0.54091 0.26783 0.0
C539 C 0.17178 0.49069 0.28704 0.0
H540 H 0.26139 0.45778 0.29946 0.0
C541 C 0.17552 0.3904 0.28969 0.0
C542 C 0.19392 0.38033 0.26672 0.0
C543 C 0.18 0.41405 0.29868 0.0
C544 C 0.23614 0.46672 0.29595 0.0
H545 H 0.15467 0.5759 0.3029 0.0
H546 H 0.16334 0.53447 0.31763 0.0
H547 H 0.2613 0.50038 0.3009 0.0
H548 H 0.23329 0.38711 0.23717 0.0
H549 H 0.24084 0.42825 0.25261 0.0
H550 H 0.14643 0.45718 0.28105 0.0
C551 C 0.17904 0.54266 0.30149 0.0
C552 C 0.23608 0.49114 0.29677 0.0
C553 C 0.17427 0.5665 0.29327 0.0
C554 C 0.21856 0.39421 0.25483 0.0
C555 C 0.22304 0.41785 0.26385 0.0
C556 C 0.17185 0.46632 0.28628 0.0
C557 C 0.20273 0.5294 0.28789 0.0
C558 C 0.20378 0.50346 0.29161 0.0
C559 C 0.20304 0.42823 0.285 0.0
C560 C 0.20392 0.45401 0.29003 0.0
H561 H 0.23361 0.57267 0.24273 0.0
H562 H 0.24151 0.5313 0.25666 0.0
H563 H 0.14629 0.49952 0.28231 0.0
H564 H 0.15652 0.38027 0.29962 0.0
H565 H 0.16467 0.42138 0.31559 0.0
C566 C 0.77165 0.56844 0.6925 0.0
C567 C 0.75237 0.5787 0.7145 0.0
C568 C 0.76734 0.54473 0.68375 0.0
C569 C 0.71025 0.49229 0.6856 0.0
H570 H 0.80003 0.45906 0.70155 0.0
C571 C 0.72646 0.39438 0.72346 0.0
C572 C 0.75174 0.38116 0.71213 0.0
C573 C 0.72224 0.41821 0.71518 0.0
C574 C 0.77458 0.46801 0.69622 0.0
H575 H 0.71169 0.57218 0.74252 0.0
H576 H 0.70449 0.53101 0.72757 0.0
H577 H 0.80024 0.50143 0.70215 0.0
H578 H 0.79058 0.38251 0.68089 0.0
H579 H 0.78282 0.42397 0.66608 0.0
H580 H 0.68478 0.45872 0.6808 0.0
C581 C 0.72282 0.54127 0.71687 0.0
C582 C 0.7747 0.4924 0.69656 0.0
C583 C 0.72712 0.56494 0.72564 0.0
C584 C 0.77103 0.39211 0.69033 0.0
C585 C 0.76679 0.41596 0.68205 0.0
C586 C 0.71013 0.46786 0.68525 0.0
C587 C 0.7436 0.53069 0.6967 0.0
C588 C 0.74264 0.50487 0.69196 0.0
C589 C 0.74312 0.42947 0.69529 0.0
C590 C 0.7424 0.45539 0.69126 0.0
H591 H 0.79118 0.57847 0.68321 0.0
H592 H 0.78332 0.53726 0.6676 0.0
H593 H 0.68499 0.50133 0.6814 0.0
H594 H 0.71102 0.38661 0.74021 0.0
H595 H 0.70393 0.42803 0.72607 0.0
C596 C 0.72316 0.89293 0.26268 0.0
C597 C 0.69351 0.88115 0.26885 0.0
C598 C 0.72863 0.9167 0.27031 0.0
C599 C 0.69845 0.96742 0.31487 0.0
H600 H 0.72089 0.00199 0.2361 0.0
C601 C 0.66889 0.06607 0.28549 0.0
C602 C 0.69204 0.07907 0.27021 0.0
C603 C 0.67449 0.04215 0.29269 0.0
C604 C 0.71528 -0.00732 0.25877 0.0
H605 H 0.64765 0.88496 0.2902 0.0
H606 H 0.65684 0.92642 0.30288 0.0
H607 H 0.72133 0.95973 0.2357 0.0
H608 H 0.74099 0.07748 0.2536 0.0
H609 H 0.75105 0.03607 0.2668 0.0
H610 H 0.69133 0.00066 0.33721 0.0
C611 C 0.67613 0.91726 0.29247 0.0
C612 C 0.71556 0.96834 0.25856 0.0
C613 C 0.67079 0.89342 0.28507 0.0
C614 C 0.72232 0.06797 0.26487 0.0
C615 C 0.72799 0.04415 0.27223 0.0
C616 C 0.6981 -0.00812 0.31504 0.0
C617 C 0.70445 0.92937 0.28406 0.0
C618 C 0.70686 0.95533 0.2864 0.0
C619 C 0.70344 0.03075 0.28495 0.0
C620 C 0.70625 0.00481 0.28679 0.0
H621 H 0.74148 0.88401 0.25063 0.0
H622 H 0.75125 0.92532 0.26433 0.0
H623 H 0.69195 0.95798 0.33694 0.0
H624 H 0.64528 0.07402 0.28992 0.0
H625 H 0.65496 0.03238 0.30235 0.0
C626 C 0.27389 0.89301 0.69765 0.0
C627 C 0.2511 0.88012 0.71354 0.0
C628 C 0.26861 0.91698 0.69077 0.0
C629 C 0.22949 0.96681 0.72595 0.0
H630 H 0.2521 0.00124 0.64711 0.0
C631 C 0.22163 0.06658 0.72114 0.0
C632 C 0.25116 0.07836 0.71466 0.0
C633 C 0.21627 0.04277 0.71387 0.0
C634 C 0.24581 -0.00812 0.66937 0.0
H635 H 0.20308 0.88206 0.73173 0.0
H636 H 0.1935 0.92357 0.71904 0.0
H637 H 0.25207 0.95855 0.64682 0.0
H638 H 0.29692 0.07448 0.69321 0.0
H639 H 0.28784 0.0329 0.68105 0.0
H640 H 0.22416 -0.00014 0.74911 0.0
C641 C 0.21609 0.91533 0.71287 0.0
C642 C 0.24579 0.96741 0.6692 0.0
C643 C 0.22146 0.89145 0.71993 0.0
C644 C 0.27387 0.06602 0.69854 0.0
C645 C 0.26861 0.04212 0.69146 0.0
C646 C 0.22952 -0.00884 0.72612 0.0
C647 C 0.24031 0.92858 0.69945 0.0
C648 C 0.23789 0.95456 0.69768 0.0
C649 C 0.2404 0.03004 0.70016 0.0
C650 C 0.23794 0.00407 0.69803 0.0
H651 H 0.29703 0.88491 0.69239 0.0
H652 H 0.2879 0.92661 0.68056 0.0
H653 H 0.2241 0.95759 0.7488 0.0
H654 H 0.20331 0.07555 0.73311 0.0
H655 H 0.19373 0.03417 0.72006 0.0
C656 C 0.27625 0.17962 0.6082 0.0
C657 C 0.25569 0.18499 0.63205 0.0
C658 C 0.26784 0.18956 0.5729 0.0
C659 C 0.22081 0.24091 0.52107 0.0
H660 H 0.22818 0.20743 0.43576 0.0
C661 C 0.17049 0.27885 0.3728 0.0
C662 C 0.19016 0.27314 0.3483 0.0
C663 C 0.17931 0.26885 0.40807 0.0
C664 C 0.22642 0.21717 0.45938 0.0
H665 H 0.20872 0.20376 0.63641 0.0
H666 H 0.19394 0.22056 0.57526 0.0
H667 H 0.24139 0.18736 0.4948 0.0
H668 H 0.236 0.25366 0.34262 0.0
H669 H 0.25169 0.23686 0.40381 0.0
H670 H 0.20592 0.27073 0.48573 0.0
C671 C 0.21714 0.20929 0.58398 0.0
C672 C 0.23398 0.2056 0.49327 0.0
C673 C 0.22552 0.19947 0.61905 0.0
C674 C 0.2199 0.25823 0.36055 0.0
C675 C 0.22877 0.2484 0.39564 0.0
C676 C 0.21331 0.25249 0.4872 0.0
C677 C 0.23868 0.20501 0.56074 0.0
C678 C 0.23115 0.21728 0.52457 0.0
C679 C 0.20808 0.25304 0.4196 0.0
C680 C 0.21602 0.2408 0.45586 0.0
H681 H 0.29975 0.16866 0.61736 0.0
H682 H 0.28505 0.18588 0.55572 0.0
H683 H 0.21896 0.25061 0.5447 0.0
H684 H 0.14732 0.29014 0.36419 0.0
H685 H 0.16268 0.2728 0.42573 0.0
C686 C 0.77416 0.27956 0.60697 0.0
C687 C 0.75439 0.27393 0.63164 0.0
C688 C 0.76521 0.26951 0.57202 0.0
C689 C 0.71731 0.2178 0.52237 0.0
H690 H 0.72572 0.25092 0.43603 0.0
C691 C 0.6674 0.17997 0.37472 0.0
C692 C 0.6882 0.18521 0.35084 0.0
C693 C 0.67584 0.18995 0.40971 0.0
C694 C 0.72359 0.24131 0.45996 0.0
H695 H 0.70823 0.25457 0.63789 0.0
H696 H 0.69229 0.2377 0.57722 0.0
H697 H 0.73888 0.2712 0.49429 0.0
H698 H 0.73563 0.20379 0.34614 0.0
H699 H 0.75047 0.22066 0.40676 0.0
H700 H 0.70192 0.18792 0.48795 0.0
C701 C 0.7154 0.24919 0.58504 0.0
C702 C 0.73117 0.25298 0.49342 0.0
C703 C 0.7244 0.25907 0.61983 0.0
C704 C 0.71865 0.19959 0.36354 0.0
C705 C 0.72706 0.20946 0.39829 0.0
C706 C 0.70966 0.20614 0.48888 0.0
C707 C 0.7362 0.25373 0.56097 0.0
C708 C 0.72813 0.2414 0.52512 0.0
C709 C 0.70528 0.20533 0.42151 0.0
C710 C 0.71284 0.2177 0.45724 0.0
H711 H 0.79753 0.29081 0.61526 0.0
H712 H 0.78194 0.27339 0.55427 0.0
H713 H 0.71528 0.20814 0.54629 0.0
H714 H 0.64367 0.16909 0.36577 0.0
H715 H 0.65844 0.18639 0.42688 0.0
C716 C 0.7161 0.75768 0.35998 0.0
C717 C 0.68695 0.77312 0.34831 0.0
C718 C 0.72532 0.74788 0.39512 0.0
C719 C 0.71232 0.75304 0.4877 0.0
H720 H 0.73921 0.68769 0.49569 0.0
C721 C 0.7258 0.70079 0.6206 0.0
C722 C 0.75569 0.68603 0.63332 0.0
C723 C 0.71721 0.71055 0.58547 0.0
C724 C 0.73215 0.70599 0.49405 0.0
H725 H 0.64548 0.791 0.36527 0.0
H726 H 0.66139 0.7737 0.42685 0.0
H727 H 0.72503 0.70736 0.43628 0.0
H728 H 0.79904 0.6692 0.61804 0.0
H729 H 0.78392 0.68629 0.55626 0.0
H730 H 0.71922 0.75161 0.54546 0.0
C731 C 0.67732 0.76932 0.40871 0.0
C732 C 0.72403 0.71734 0.45993 0.0
C733 C 0.66817 0.77928 0.3734 0.0
C734 C 0.77577 0.68039 0.60914 0.0
C735 C 0.76712 0.69024 0.57375 0.0
C736 C 0.72035 0.74168 0.52179 0.0
C737 C 0.70557 0.75307 0.41974 0.0
C738 C 0.71403 0.74105 0.45625 0.0
C739 C 0.73821 0.70591 0.56183 0.0
C740 C 0.73028 0.71798 0.52544 0.0
H741 H 0.73156 0.75274 0.34162 0.0
H742 H 0.74784 0.73601 0.40283 0.0
H743 H 0.70531 0.77135 0.48614 0.0
H744 H 0.70933 0.70532 0.63817 0.0
H745 H 0.69421 0.722 0.57698 0.0
C746 C 0.2734 0.77962 0.60692 0.0
C747 C 0.25447 0.77312 0.63199 0.0
C748 C 0.26457 0.76972 0.57185 0.0
C749 C 0.21985 0.71711 0.52243 0.0
H750 H 0.22215 0.75178 0.43532 0.0
C751 C 0.16836 0.67884 0.37533 0.0
C752 C 0.18695 0.68543 0.35001 0.0
C753 C 0.17721 0.68887 0.4103 0.0
C754 C 0.2218 0.74172 0.45944 0.0
H755 H 0.20986 0.75227 0.63877 0.0
H756 H 0.1943 0.73556 0.57804 0.0
H757 H 0.23582 0.77164 0.49398 0.0
H758 H 0.23095 0.70665 0.34264 0.0
H759 H 0.24664 0.72355 0.40324 0.0
H760 H 0.20589 0.68718 0.48793 0.0
C761 C 0.21662 0.74769 0.58561 0.0
C762 C 0.22964 0.75317 0.49313 0.0
C763 C 0.22543 0.75747 0.62045 0.0
C764 C 0.21565 0.70136 0.36117 0.0
C765 C 0.22453 0.71125 0.39594 0.0
C766 C 0.21204 0.70565 0.48875 0.0
C767 C 0.23659 0.75317 0.56111 0.0
C768 C 0.22868 0.74104 0.5251 0.0
C769 C 0.20492 0.70564 0.42073 0.0
C770 C 0.21295 0.71778 0.45676 0.0
H771 H 0.296 0.79151 0.61494 0.0
H772 H 0.2806 0.77434 0.55371 0.0
H773 H 0.21946 0.70706 0.54654 0.0
H774 H 0.146 0.66674 0.3676 0.0
H775 H 0.16143 0.68415 0.42862 0.0
C776 C 0.17668 0.27671 0.08096 0.0
C777 C 0.17809 0.26193 0.11102 0.0
C778 C 0.1847 0.26824 0.05006 0.0
C779 C 0.2388 0.22285 0.02535 0.0
H780 H 0.19155 0.24288 0.92589 0.0
C781 C 0.26687 0.18305 0.89828 0.0
C782 C 0.26567 0.19769 0.86812 0.0
C783 C 0.25894 0.19174 0.92909 0.0
C784 C 0.20536 0.23746 0.9536 0.0
H785 H 0.18653 0.2263 0.13123 0.0
H786 H 0.20023 0.21139 0.07683 0.0
H787 H 0.16735 0.25465 0.9755 0.0
H788 H 0.25757 0.23323 0.84753 0.0
H789 H 0.24397 0.24854 0.9018 0.0
H790 H 0.27678 0.20565 0.00347 0.0
C791 C 0.19348 0.22965 0.07757 0.0
C792 C 0.19135 0.24405 0.98194 0.0
C793 C 0.18526 0.23812 0.10851 0.0
C794 C 0.25872 0.22155 0.87037 0.0
C795 C 0.25056 0.23024 0.90123 0.0
C796 C 0.2528 0.21627 -0.00298 0.0
C797 C 0.19437 0.2448 0.04856 0.0
C798 C 0.2079 0.23678 0.0181 0.0
C799 C 0.24956 0.21524 0.9304 0.0
C800 C 0.23621 0.22348 0.96085 0.0
H801 H 0.17094 0.29513 0.08194 0.0
H802 H 0.18524 0.28037 0.02823 0.0
H803 H 0.25261 0.21741 0.05305 0.0
H804 H 0.27241 0.1646 0.89745 0.0
H805 H 0.25828 0.17972 0.95102 0.0
C806 C 0.68771 0.22217 0.11189 0.0
C807 C 0.67808 0.19866 0.11414 0.0
C808 C 0.69633 0.23054 0.0808 0.0
C809 C 0.73124 0.20834 0.00766 0.0
H810 H 0.70819 0.26991 0.96486 0.0
C811 C 0.75788 0.2385 0.87219 0.0
C812 C 0.76739 0.26199 0.86953 0.0
C813 C 0.74959 0.23028 0.90352 0.0
C814 C 0.71527 0.25277 0.97688 0.0
H815 H 0.66657 0.16609 0.08449 0.0
H816 H 0.68081 0.18083 0.03012 0.0
H817 H 0.68431 0.25733 0.0147 0.0
H818 H 0.77901 0.29472 0.89875 0.0
H819 H 0.76529 0.28025 0.95355 0.0
H820 H 0.76218 0.20378 0.96983 0.0
C821 C 0.68286 0.19259 0.05271 0.0
C822 C 0.70146 0.24556 0.0053 0.0
C823 C 0.67446 0.18421 0.08373 0.0
C824 C 0.77121 0.2766 0.89981 0.0
C825 C 0.76311 0.26838 0.93108 0.0
C826 C 0.74505 0.21555 0.97925 0.0
C827 C 0.69522 0.21556 0.05149 0.0
C828 C 0.70921 0.22325 0.0209 0.0
C829 C 0.7509 0.24541 0.93271 0.0
C830 C 0.73723 0.23784 0.96358 0.0
H831 H 0.69087 0.23366 0.13499 0.0
H832 H 0.70579 0.24835 0.08062 0.0
H833 H 0.73829 0.19119 0.01965 0.0
H834 H 0.75459 0.22687 0.84923 0.0
H835 H 0.74022 0.21247 0.904 0.0
C836 C 0.75725 0.72128 0.87149 0.0
C837 C 0.76361 0.69735 0.86897 0.0
C838 C 0.74854 0.72993 0.90209 0.0
C839 C 0.7079 0.7096 0.97311 0.0
H840 H 0.74028 0.76905 0.01839 0.0
C841 C 0.68255 0.74002 0.10805 0.0
C842 C 0.67665 0.76393 0.11137 0.0
C843 C 0.69069 0.73167 0.07698 0.0
C844 C 0.7306 0.75255 0.00568 0.0
H845 H 0.76896 0.66409 0.89775 0.0
H846 H 0.75449 0.67925 0.95121 0.0
H847 H 0.76306 0.75546 0.96881 0.0
H848 H 0.67154 0.79752 0.08353 0.0
H849 H 0.68498 0.78287 0.02921 0.0
H850 H 0.67546 0.70667 0.00997 0.0
C851 C 0.75511 0.69121 0.92917 0.0
C852 C 0.74376 0.74475 0.97738 0.0
C853 C 0.76364 0.68257 0.89866 0.0
C854 C 0.6765 0.77903 0.082 0.0
C855 C 0.68445 0.77069 0.05099 0.0
C856 C 0.69472 0.7174 0.00138 0.0
C857 C 0.74624 0.71479 0.93066 0.0
C858 C 0.73265 0.72315 0.96091 0.0
C859 C 0.69285 0.74708 0.04869 0.0
C860 C 0.70594 0.73895 0.01798 0.0
H861 H 0.75689 0.73307 0.84897 0.0
H862 H 0.7418 0.74821 0.90248 0.0
H863 H 0.69828 0.69307 0.96044 0.0
H864 H 0.68299 0.72799 0.1303 0.0
H865 H 0.69711 0.71337 0.07602 0.0
C866 C 0.18265 0.72022 0.1096 0.0
C867 C 0.17507 0.69641 0.11258 0.0
C868 C 0.19131 0.72873 0.07862 0.0
C869 C 0.18964 0.71469 0.98356 0.0
H870 H 0.27674 0.75197 0.0053 0.0
C871 C 0.2584 0.73665 0.87225 0.0
C872 C 0.26667 0.7604 0.86978 0.0
C873 C 0.24984 0.72798 0.90319 0.0
C874 C 0.25229 0.74168 -0.00122 0.0
H875 H 0.16758 0.66327 0.08432 0.0
H876 H 0.18249 0.67813 0.03042 0.0
H877 H 0.25153 0.74039 0.0547 0.0
H878 H 0.27549 0.79321 0.899 0.0
H879 H 0.26055 0.77814 0.95268 0.0
H880 H 0.19031 0.71604 0.92764 0.0
C881 C 0.182 0.69021 0.05194 0.0
C882 C 0.23771 0.7352 0.027 0.0
C883 C 0.17361 0.68169 0.08291 0.0
C884 C 0.2689 0.77486 0.89993 0.0
C885 C 0.26051 0.76619 0.93082 0.0
C886 C 0.20418 0.72121 0.95533 0.0
C887 C 0.19215 0.71363 0.05003 0.0
C888 C 0.20624 0.72164 0.01967 0.0
C889 C 0.24969 0.74288 0.93226 0.0
C890 C 0.23566 0.73478 0.96264 0.0
H891 H 0.18402 0.73197 0.13205 0.0
H892 H 0.19848 0.74697 0.07755 0.0
H893 H 0.16522 0.70438 0.97708 0.0
H894 H 0.25649 0.72507 0.84948 0.0
H895 H 0.24222 0.70981 0.90388 0.0
loop_
_geom_bond_atom_site_label_1
_geom_bond_atom_site_label_2
_geom_bond_distance
_geom_bond_site_symmetry_2
_ccdc_geom_bond_type
Sc0 O3 2.025 . S
Sc0 O10 2.105 . S
Sc0 O13 2.105 . S
Sc0 O16 2.105 . S
Sc0 O19 2.105 . S
Sc1 O3 2.025 . S
Sc1 O11 2.105 . S
Sc1 O15 2.105 . S
Sc1 O17 2.105 . S
Sc1 O21 2.105 . S
Sc2 O3 2.025 . S
Sc2 O12 2.105 . S
Sc2 O14 2.105 . S
Sc2 O18 2.105 . S
Sc2 O20 2.105 . S
O3 Sc0 2.025 . S
O3 Sc1 2.025 . S
O3 Sc2 2.025 . S
C4 O10 1.268 . S
C4 O20 1.268 . S
C5 O11 1.268 . S
C5 O19 1.268 . S
C6 O12 1.268 . S
C6 O21 1.268 . S
C7 O13 1.268 . S
C7 O17 1.268 . S
C8 O14 1.268 . S
C8 O16 1.268 . S
C9 O15 1.268 . S
C9 O18 1.268 . S
O10 Sc0 2.105 . S
O10 C4 1.268 . S
O11 Sc1 2.105 . S
O11 C5 1.268 . S
O12 Sc2 2.105 . S
O12 C6 1.268 . S
O13 Sc0 2.105 . S
O13 C7 1.268 . S
O14 Sc2 2.105 . S
O14 C8 1.268 . S
O15 Sc1 2.105 . S
O15 C9 1.268 . S
O16 Sc0 2.105 . S
O16 C8 1.268 . S
O17 Sc1 2.105 . S
O17 C7 1.268 . S
O18 Sc2 2.105 . S
O18 C9 1.268 . S
O19 Sc0 2.105 . S
O19 C5 1.268 . S
O20 Sc2 2.105 . S
O20 C4 1.268 . S
O21 Sc1 2.105 . S
O21 C6 1.268 . S
Sc22 O25 2.025 . S
Sc22 O32 2.105 . S
Sc22 O35 2.105 . S
Sc22 O38 2.105 . S
Sc22 O41 2.105 . S
Sc23 O25 2.025 . S
Sc23 O33 2.105 . S
Sc23 O37 2.105 . S
Sc23 O39 2.105 . S
Sc23 O43 2.105 . S
Sc24 O25 2.025 . S
Sc24 O34 2.105 . S
Sc24 O36 2.105 . S
Sc24 O40 2.105 . S
Sc24 O42 2.105 . S
O25 Sc22 2.025 . S
O25 Sc23 2.025 . S
O25 Sc24 2.025 . S
C26 O32 1.268 . S
C26 O42 1.268 . S
C27 O33 1.268 . S
C27 O41 1.268 . S
C28 O34 1.268 . S
C28 O43 1.268 . S
C29 O35 1.268 . S
C29 O39 1.268 . S
C30 O36 1.268 . S
C30 O38 1.268 . S
C31 O37 1.268 . S
C31 O40 1.268 . S
O32 Sc22 2.105 . S
O32 C26 1.268 . S
O33 Sc23 2.105 . S
O33 C27 1.268 . S
O34 Sc24 2.105 . S
O34 C28 1.268 . S
O35 Sc22 2.105 . S
O35 C29 1.268 . S
O36 Sc24 2.105 . S
O36 C30 1.268 . S
O37 Sc23 2.105 . S
O37 C31 1.268 . S
O38 Sc22 2.105 . S
O38 C30 1.268 . S
O39 Sc23 2.105 . S
O39 C29 1.268 . S
O40 Sc24 2.105 . S
O40 C31 1.268 . S
O41 Sc22 2.105 . S
O41 C27 1.268 . S
O42 Sc24 2.105 . S
O42 C26 1.268 . S
O43 Sc23 2.105 . S
O43 C28 1.268 . S
Sc44 O47 2.025 . S
Sc44 O54 2.105 . S
Sc44 O57 2.105 . S
Sc44 O60 2.105 . S
Sc44 O63 2.105 . S
Sc45 O47 2.025 . S
Sc45 O55 2.105 . S
Sc45 O59 2.105 . S
Sc45 O61 2.105 . S
Sc45 O65 2.105 . S
Sc46 O47 2.025 . S
Sc46 O56 2.105 . S
Sc46 O58 2.105 . S
Sc46 O62 2.105 . S
Sc46 O64 2.105 . S
O47 Sc44 2.025 . S
O47 Sc45 2.025 . S
O47 Sc46 2.025 . S
C48 O54 1.268 . S
C48 O64 1.268 . S
C49 O55 1.268 . S
C49 O63 1.268 . S
C50 O56 1.268 . S
C50 O65 1.268 . S
C51 O57 1.268 . S
C51 O61 1.268 . S
C52 O58 1.268 . S
C52 O60 1.268 . S
C53 O59 1.268 . S
C53 O62 1.268 . S
O54 Sc44 2.105 . S
O54 C48 1.268 . S
O55 Sc45 2.105 . S
O55 C49 1.268 . S
O56 Sc46 2.105 . S
O56 C50 1.268 . S
O57 Sc44 2.105 . S
O57 C51 1.268 . S
O58 Sc46 2.105 . S
O58 C52 1.268 . S
O59 Sc45 2.105 . S
O59 C53 1.268 . S
O60 Sc44 2.105 . S
O60 C52 1.268 . S
O61 Sc45 2.105 . S
O61 C51 1.268 . S
O62 Sc46 2.105 . S
O62 C53 1.268 . S
O63 Sc44 2.105 . S
O63 C49 1.268 . S
O64 Sc46 2.105 . S
O64 C48 1.268 . S
O65 Sc45 2.105 . S
O65 C50 1.268 . S
Sc66 O69 2.025 . S
Sc66 O76 2.105 . S
Sc66 O79 2.105 . S
Sc66 O82 2.105 . S
Sc66 O85 2.105 . S
Sc67 O69 2.025 . S
Sc67 O77 2.105 . S
Sc67 O81 2.105 . S
Sc67 O83 2.105 . S
Sc67 O87 2.105 . S
Sc68 O69 2.025 . S
Sc68 O78 2.105 . S
Sc68 O80 2.105 . S
Sc68 O84 2.105 . S
Sc68 O86 2.105 . S
O69 Sc66 2.025 . S
O69 Sc67 2.025 . S
O69 Sc68 2.025 . S
C70 O76 1.268 . S
C70 O86 1.268 . S
C71 O77 1.268 . S
C71 O85 1.268 . S
C72 O78 1.268 . S
C72 O87 1.268 . S
C73 O79 1.268 . S
C73 O83 1.268 . S
C74 O80 1.268 . S
C74 O82 1.268 . S
C75 O81 1.268 . S
C75 O84 1.268 . S
O76 Sc66 2.105 . S
O76 C70 1.268 . S
O77 Sc67 2.105 . S
O77 C71 1.268 . S
O78 Sc68 2.105 . S
O78 C72 1.268 . S
O79 Sc66 2.105 . S
O79 C73 1.268 . S
O80 Sc68 2.105 . S
O80 C74 1.268 . S
O81 Sc67 2.105 . S
O81 C75 1.268 . S
O82 Sc66 2.105 . S
O82 C74 1.268 . S
O83 Sc67 2.105 . S
O83 C73 1.268 . S
O84 Sc68 2.105 . S
O84 C75 1.268 . S
O85 Sc66 2.105 . S
O85 C71 1.268 . S
O86 Sc68 2.105 . S
O86 C70 1.268 . S
O87 Sc67 2.105 . S
O87 C72 1.268 . S
Sc88 O91 2.025 . S
Sc88 O98 2.105 . S
Sc88 O101 2.105 . S
Sc88 O104 2.105 . S
Sc88 O107 2.105 . S
Sc89 O91 2.025 . S
Sc89 O99 2.105 . S
Sc89 O103 2.105 . S
Sc89 O105 2.105 . S
Sc89 O109 2.105 . S
Sc90 O91 2.025 . S
Sc90 O100 2.105 . S
Sc90 O102 2.105 . S
Sc90 O106 2.105 . S
Sc90 O108 2.105 . S
O91 Sc88 2.025 . S
O91 Sc89 2.025 . S
O91 Sc90 2.025 . S
C92 O98 1.268 . S
C92 O108 1.268 . S
C93 O99 1.268 . S
C93 O107 1.268 . S
C94 O100 1.268 . S
C94 O109 1.268 . S
C95 O101 1.268 . S
C95 O105 1.268 . S
C96 O102 1.268 . S
C96 O104 1.268 . S
C97 O103 1.268 . S
C97 O106 1.268 . S
O98 Sc88 2.105 . S
O98 C92 1.268 . S
O99 Sc89 2.105 . S
O99 C93 1.268 . S
O100 Sc90 2.105 . S
O100 C94 1.268 . S
O101 Sc88 2.105 . S
O101 C95 1.268 . S
O102 Sc90 2.105 . S
O102 C96 1.268 . S
O103 Sc89 2.105 . S
O103 C97 1.268 . S
O104 Sc88 2.105 . S
O104 C96 1.268 . S
O105 Sc89 2.105 . S
O105 C95 1.268 . S
O106 Sc90 2.105 . S
O106 C97 1.268 . S
O107 Sc88 2.105 . S
O107 C93 1.268 . S
O108 Sc90 2.105 . S
O108 C92 1.268 . S
O109 Sc89 2.105 . S
O109 C94 1.268 . S
Sc110 O113 2.025 . S
Sc110 O120 2.105 . S
Sc110 O123 2.105 . S
Sc110 O126 2.105 . S
Sc110 O129 2.105 . S
Sc111 O113 2.025 . S
Sc111 O121 2.105 . S
Sc111 O125 2.105 . S
Sc111 O127 2.105 . S
Sc111 O131 2.105 . S
Sc112 O113 2.025 . S
Sc112 O122 2.105 . S
Sc112 O124 2.105 . S
Sc112 O128 2.105 . S
Sc112 O130 2.105 . S
O113 Sc110 2.025 . S
O113 Sc111 2.025 . S
O113 Sc112 2.025 . S
C114 O120 1.268 . S
C114 O130 1.268 . S
C115 O121 1.268 . S
C115 O129 1.268 . S
C116 O122 1.268 . S
C116 O131 1.268 . S
C117 O123 1.268 . S
C117 O127 1.268 . S
C118 O124 1.268 . S
C118 O126 1.268 . S
C119 O125 1.268 . S
C119 O128 1.268 . S
O120 Sc110 2.105 . S
O120 C114 1.268 . S
O121 Sc111 2.105 . S
O121 C115 1.268 . S
O122 Sc112 2.105 . S
O122 C116 1.268 . S
O123 Sc110 2.105 . S
O123 C117 1.268 . S
O124 Sc112 2.105 . S
O124 C118 1.268 . S
O125 Sc111 2.105 . S
O125 C119 1.268 . S
O126 Sc110 2.105 . S
O126 C118 1.268 . S
O127 Sc111 2.105 . S
O127 C117 1.268 . S
O128 Sc112 2.105 . S
O128 C119 1.268 . S
O129 Sc110 2.105 . S
O129 C115 1.268 . S
O130 Sc112 2.105 . S
O130 C114 1.268 . S
O131 Sc111 2.105 . S
O131 C116 1.268 . S
Sc132 O135 2.025 . S
Sc132 O142 2.105 . S
Sc132 O145 2.105 . S
Sc132 O148 2.105 . S
Sc132 O151 2.105 . S
Sc133 O135 2.025 . S
Sc133 O143 2.105 . S
Sc133 O147 2.105 . S
Sc133 O149 2.105 . S
Sc133 O153 2.105 . S
Sc134 O135 2.025 . S
Sc134 O144 2.105 . S
Sc134 O146 2.105 . S
Sc134 O150 2.105 . S
Sc134 O152 2.105 . S
O135 Sc132 2.025 . S
O135 Sc133 2.025 . S
O135 Sc134 2.025 . S
C136 O142 1.268 . S
C136 O152 1.268 . S
C137 O143 1.268 . S
C137 O151 1.268 . S
C138 O144 1.268 . S
C138 O153 1.268 . S
C139 O145 1.268 . S
C139 O149 1.268 . S
C140 O146 1.268 . S
C140 O148 1.268 . S
C141 O147 1.268 . S
C141 O150 1.268 . S
O142 Sc132 2.105 . S
O142 C136 1.268 . S
O143 Sc133 2.105 . S
O143 C137 1.268 . S
O144 Sc134 2.105 . S
O144 C138 1.268 . S
O145 Sc132 2.105 . S
O145 C139 1.268 . S
O146 Sc134 2.105 . S
O146 C140 1.268 . S
O147 Sc133 2.105 . S
O147 C141 1.268 . S
O148 Sc132 2.105 . S
O148 C140 1.268 . S
O149 Sc133 2.105 . S
O149 C139 1.268 . S
O150 Sc134 2.105 . S
O150 C141 1.268 . S
O151 Sc132 2.105 . S
O151 C137 1.268 . S
O152 Sc134 2.105 . S
O152 C136 1.268 . S
O153 Sc133 2.105 . S
O153 C138 1.268 . S
Sc154 O157 2.025 . S
Sc154 O164 2.105 . S
Sc154 O167 2.105 . S
Sc154 O170 2.105 . S
Sc154 O173 2.105 . S
Sc155 O157 2.025 . S
Sc155 O165 2.105 . S
Sc155 O169 2.105 . S
Sc155 O171 2.105 . S
Sc155 O175 2.105 . S
Sc156 O157 2.025 . S
Sc156 O166 2.105 . S
Sc156 O168 2.105 . S
Sc156 O172 2.105 . S
Sc156 O174 2.105 . S
O157 Sc154 2.025 . S
O157 Sc155 2.025 . S
O157 Sc156 2.025 . S
C158 O164 1.268 . S
C158 O174 1.268 . S
C159 O165 1.268 . S
C159 O173 1.268 . S
C160 O166 1.268 . S
C160 O175 1.268 . S
C161 O167 1.268 . S
C161 O171 1.268 . S
C162 O168 1.268 . S
C162 O170 1.268 . S
C163 O169 1.268 . S
C163 O172 1.268 . S
O164 Sc154 2.105 . S
O164 C158 1.268 . S
O165 Sc155 2.105 . S
O165 C159 1.268 . S
O166 Sc156 2.105 . S
O166 C160 1.268 . S
O167 Sc154 2.105 . S
O167 C161 1.268 . S
O168 Sc156 2.105 . S
O168 C162 1.268 . S
O169 Sc155 2.105 . S
O169 C163 1.268 . S
O170 Sc154 2.105 . S
O170 C162 1.268 . S
O171 Sc155 2.105 . S
O171 C161 1.268 . S
O172 Sc156 2.105 . S
O172 C163 1.268 . S
O173 Sc154 2.105 . S
O173 C159 1.268 . S
O174 Sc156 2.105 . S
O174 C158 1.268 . S
O175 Sc155 2.105 . S
O175 C160 1.268 . S
C176 C177 1.349 . S
C176 C178 1.327 . S
C176 H201 0.950 . S
C177 C176 1.349 . S
C177 C193 1.349 . S
C178 C176 1.327 . S
C178 C197 1.429 . S
C178 H202 0.950 . S
C179 C196 1.574 . S
C179 C198 1.368 . S
C179 H203 0.949 . S
H180 C184 0.949 . S
C181 C182 1.349 . S
C181 C183 1.327 . S
C181 H204 0.950 . S
C182 C181 1.349 . S
C182 C194 1.349 . S
C183 C181 1.327 . S
C183 C199 1.429 . S
C183 H205 0.950 . S
C184 H180 0.949 . S
C184 C192 1.574 . S
C184 C200 1.368 . S
H185 C193 0.950 . S
H186 C191 0.950 . S
H187 C192 0.949 . S
H188 C194 0.950 . S
H189 C195 0.950 . S
H190 C196 0.949 . S
C191 H186 0.950 . S
C191 C193 1.327 . S
C191 C197 1.429 . S
C192 C184 1.574 . S
C192 H187 0.949 . S
C192 C198 1.368 . S
C193 C177 1.349 . S
C193 H185 0.950 . S
C193 C191 1.327 . S
C194 C182 1.349 . S
C194 H188 0.950 . S
C194 C195 1.327 . S
C195 H189 0.950 . S
C195 C194 1.327 . S
C195 C199 1.429 . S
C196 C179 1.574 . S
C196 H190 0.949 . S
C196 C200 1.368 . S
C197 C178 1.429 . S
C197 C191 1.429 . S
C197 C198 1.523 . S
C198 C179 1.368 . S
C198 C192 1.368 . S
C198 C197 1.523 . S
C199 C183 1.429 . S
C199 C195 1.429 . S
C199 C200 1.523 . S
C200 C184 1.368 . S
C200 C196 1.368 . S
C200 C199 1.523 . S
H201 C176 0.950 . S
H202 C178 0.950 . S
H203 C179 0.949 . S
H204 C181 0.950 . S
H205 C183 0.950 . S
C206 C207 1.349 . S
C206 C208 1.327 . S
C206 H231 0.950 . S
C207 C206 1.349 . S
C207 C223 1.349 . S
C208 C206 1.327 . S
C208 C227 1.429 . S
C208 H232 0.950 . S
C209 C226 1.574 . S
C209 C228 1.368 . S
C209 H233 0.949 . S
H210 C214 0.949 . S
C211 C212 1.349 . S
C211 C213 1.327 . S
C211 H234 0.950 . S
C212 C211 1.349 . S
C212 C224 1.349 . S
C213 C211 1.327 . S
C213 C229 1.429 . S
C213 H235 0.950 . S
C214 H210 0.949 . S
C214 C222 1.574 . S
C214 C230 1.368 . S
H215 C223 0.950 . S
H216 C221 0.950 . S
H217 C222 0.949 . S
H218 C224 0.950 . S
H219 C225 0.950 . S
H220 C226 0.949 . S
C221 H216 0.950 . S
C221 C223 1.327 . S
C221 C227 1.429 . S
C222 C214 1.574 . S
C222 H217 0.949 . S
C222 C228 1.368 . S
C223 C207 1.349 . S
C223 H215 0.950 . S
C223 C221 1.327 . S
C224 C212 1.349 . S
C224 H218 0.950 . S
C224 C225 1.327 . S
C225 H219 0.950 . S
C225 C224 1.327 . S
C225 C229 1.429 . S
C226 C209 1.574 . S
C226 H220 0.949 . S
C226 C230 1.368 . S
C227 C208 1.429 . S
C227 C221 1.429 . S
C227 C228 1.523 . S
C228 C209 1.368 . S
C228 C222 1.368 . S
C228 C227 1.523 . S
C229 C213 1.429 . S
C229 C225 1.429 . S
C229 C230 1.523 . S
C230 C214 1.368 . S
C230 C226 1.368 . S
C230 C229 1.523 . S
H231 C206 0.950 . S
H232 C208 0.950 . S
H233 C209 0.949 . S
H234 C211 0.950 . S
H235 C213 0.950 . S
C236 C237 1.349 . S
C236 C238 1.327 . S
C236 H261 0.950 . S
C237 C236 1.349 . S
C237 C253 1.349 . S
C238 C236 1.327 . S
C238 C257 1.429 . S
C238 H262 0.950 . S
C239 C256 1.574 . S
C239 C258 1.368 . S
C239 H263 0.949 . S
H240 C244 0.949 . S
C241 C242 1.349 . S
C241 C243 1.327 . S
C241 H264 0.950 . S
C242 C241 1.349 . S
C242 C254 1.349 . S
C243 C241 1.327 . S
C243 C259 1.429 . S
C243 H265 0.950 . S
C244 H240 0.949 . S
C244 C252 1.574 . S
C244 C260 1.368 . S
H245 C253 0.950 . S
H246 C251 0.950 . S
H247 C252 0.949 . S
H248 C254 0.950 . S
H249 C255 0.950 . S
H250 C256 0.949 . S
C251 H246 0.950 . S
C251 C253 1.327 . S
C251 C257 1.429 . S
C252 C244 1.574 . S
C252 H247 0.949 . S
C252 C258 1.368 . S
C253 C237 1.349 . S
C253 H245 0.950 . S
C253 C251 1.327 . S
C254 C242 1.349 . S
C254 H248 0.950 . S
C254 C255 1.327 . S
C255 H249 0.950 . S
C255 C254 1.327 . S
C255 C259 1.429 . S
C256 C239 1.574 . S
C256 H250 0.949 . S
C256 C260 1.368 . S
C257 C238 1.429 . S
C257 C251 1.429 . S
C257 C258 1.523 . S
C258 C239 1.368 . S
C258 C252 1.368 . S
C258 C257 1.523 . S
C259 C243 1.429 . S
C259 C255 1.429 . S
C259 C260 1.523 . S
C260 C244 1.368 . S
C260 C256 1.368 . S
C260 C259 1.523 . S
H261 C236 0.950 . S
H262 C238 0.950 . S
H263 C239 0.949 . S
H264 C241 0.950 . S
H265 C243 0.950 . S
C266 C267 1.349 . S
C266 C268 1.327 . S
C266 H291 0.950 . S
C267 C266 1.349 . S
C267 C283 1.349 . S
C268 C266 1.327 . S
C268 C287 1.429 . S
C268 H292 0.950 . S
C269 C286 1.574 . S
C269 C288 1.368 . S
C269 H293 0.949 . S
H270 C274 0.949 . S
C271 C272 1.349 . S
C271 C273 1.327 . S
C271 H294 0.950 . S
C272 C271 1.349 . S
C272 C284 1.349 . S
C273 C271 1.327 . S
C273 C289 1.429 . S
C273 H295 0.950 . S
C274 H270 0.949 . S
C274 C282 1.574 . S
C274 C290 1.368 . S
H275 C283 0.950 . S
H276 C281 0.950 . S
H277 C282 0.949 . S
H278 C284 0.950 . S
H279 C285 0.950 . S
H280 C286 0.949 . S
C281 H276 0.950 . S
C281 C283 1.327 . S
C281 C287 1.429 . S
C282 C274 1.574 . S
C282 H277 0.949 . S
C282 C288 1.368 . S
C283 C267 1.349 . S
C283 H275 0.950 . S
C283 C281 1.327 . S
C284 C272 1.349 . S
C284 H278 0.950 . S
C284 C285 1.327 . S
C285 H279 0.950 . S
C285 C284 1.327 . S
C285 C289 1.429 . S
C286 C269 1.574 . S
C286 H280 0.949 . S
C286 C290 1.368 . S
C287 C268 1.429 . S
C287 C281 1.429 . S
C287 C288 1.523 . S
C288 C269 1.368 . S
C288 C282 1.368 . S
C288 C287 1.523 . S
C289 C273 1.429 . S
C289 C285 1.429 . S
C289 C290 1.523 . S
C290 C274 1.368 . S
C290 C286 1.368 . S
C290 C289 1.523 . S
H291 C266 0.950 . S
H292 C268 0.950 . S
H293 C269 0.949 . S
H294 C271 0.950 . S
H295 C273 0.950 . S
C296 C297 1.349 . S
C296 C298 1.327 . S
C296 H321 0.950 . S
C297 C296 1.349 . S
C297 C313 1.349 . S
C298 C296 1.327 . S
C298 C317 1.429 . S
C298 H322 0.950 . S
C299 C316 1.574 1_455 S
C299 C318 1.368 . S
C299 H323 0.949 . S
H300 C304 0.949 . S
C301 C302 1.349 . S
C301 C303 1.327 . S
C301 H324 0.950 . S
C302 C301 1.349 . S
C302 C314 1.349 . S
C303 C301 1.327 . S
C303 C319 1.429 . S
C303 H325 0.950 . S
C304 H300 0.949 . S
C304 C312 1.574 . S
C304 C320 1.368 . S
H305 C313 0.950 . S
H306 C311 0.950 . S
H307 C312 0.949 . S
H308 C314 0.950 . S
H309 C315 0.950 . S
H310 C316 0.949 . S
C311 H306 0.950 . S
C311 C313 1.327 . S
C311 C317 1.429 . S
C312 C304 1.574 . S
C312 H307 0.949 . S
C312 C318 1.368 1_655 S
C313 C297 1.349 . S
C313 H305 0.950 . S
C313 C311 1.327 . S
C314 C302 1.349 . S
C314 H308 0.950 . S
C314 C315 1.327 . S
C315 H309 0.950 . S
C315 C314 1.327 . S
C315 C319 1.429 . S
C316 C299 1.574 1_655 S
C316 H310 0.949 . S
C316 C320 1.368 . S
C317 C298 1.429 . S
C317 C311 1.429 . S
C317 C318 1.523 . S
C318 C299 1.368 . S
C318 C312 1.368 1_455 S
C318 C317 1.523 . S
C319 C303 1.429 . S
C319 C315 1.429 . S
C319 C320 1.523 . S
C320 C304 1.368 . S
C320 C316 1.368 . S
C320 C319 1.523 . S
H321 C296 0.950 . S
H322 C298 0.950 . S
H323 C299 0.949 . S
H324 C301 0.950 . S
H325 C303 0.950 . S
C326 C327 1.349 . S
C326 C328 1.327 . S
C326 H351 0.950 . S
C327 C326 1.349 . S
C327 C343 1.349 . S
C328 C326 1.327 . S
C328 C347 1.429 . S
C328 H352 0.950 . S
C329 C346 1.574 . S
C329 C348 1.368 1_455 S
C329 H353 0.949 . S
H330 C334 0.949 . S
C331 C332 1.349 . S
C331 C333 1.327 . S
C331 H354 0.950 . S
C332 C331 1.349 . S
C332 C344 1.349 . S
C333 C331 1.327 . S
C333 C349 1.429 . S
C333 H355 0.950 . S
C334 H330 0.949 . S
C334 C342 1.574 1_455 S
C334 C350 1.368 . S
H335 C343 0.950 . S
H336 C341 0.950 . S
H337 C342 0.949 . S
H338 C344 0.950 . S
H339 C345 0.950 . S
H340 C346 0.949 . S
C341 H336 0.950 . S
C341 C343 1.327 . S
C341 C347 1.429 . S
C342 C334 1.574 1_655 S
C342 H337 0.949 . S
C342 C348 1.368 . S
C343 C327 1.349 . S
C343 H335 0.950 . S
C343 C341 1.327 . S
C344 C332 1.349 . S
C344 H338 0.950 . S
C344 C345 1.327 . S
C345 H339 0.950 . S
C345 C344 1.327 . S
C345 C349 1.429 . S
C346 C329 1.574 . S
C346 H340 0.949 . S
C346 C350 1.368 . S
C347 C328 1.429 . S
C347 C341 1.429 . S
C347 C348 1.523 . S
C348 C329 1.368 1_655 S
C348 C342 1.368 . S
C348 C347 1.523 . S
C349 C333 1.429 . S
C349 C345 1.429 . S
C349 C350 1.523 . S
C350 C334 1.368 . S
C350 C346 1.368 . S
C350 C349 1.523 . S
H351 C326 0.950 . S
H352 C328 0.950 . S
H353 C329 0.949 . S
H354 C331 0.950 . S
H355 C333 0.950 . S
C356 C357 1.349 . S
C356 C358 1.327 . S
C356 H381 0.950 . S
C357 C356 1.349 . S
C357 C373 1.349 . S
C358 C356 1.327 . S
C358 C377 1.429 . S
C358 H382 0.950 . S
C359 C376 1.574 . S
C359 C378 1.368 1_455 S
C359 H383 0.949 1_455 S
H360 C364 0.949 . S
C361 C362 1.349 . S
C361 C363 1.327 . S
C361 H384 0.950 . S
C362 C361 1.349 . S
C362 C374 1.349 . S
C363 C361 1.327 . S
C363 C379 1.429 . S
C363 H385 0.950 . S
C364 H360 0.949 . S
C364 C372 1.574 . S
C364 C380 1.368 . S
H365 C373 0.950 . S
H366 C371 0.950 . S
H367 C372 0.949 1_655 S
H368 C374 0.950 . S
H369 C375 0.950 . S
H370 C376 0.949 . S
C371 H366 0.950 . S
C371 C373 1.327 . S
C371 C377 1.429 . S
C372 C364 1.574 . S
C372 H367 0.949 1_455 S
C372 C378 1.368 1_455 S
C373 C357 1.349 . S
C373 H365 0.950 . S
C373 C371 1.327 . S
C374 C362 1.349 . S
C374 H368 0.950 . S
C374 C375 1.327 . S
C375 H369 0.950 . S
C375 C374 1.327 . S
C375 C379 1.429 . S
C376 C359 1.574 . S
C376 H370 0.949 . S
C376 C380 1.368 . S
C377 C358 1.429 . S
C377 C371 1.429 . S
C377 C378 1.523 . S
C378 C359 1.368 1_655 S
C378 C372 1.368 1_655 S
C378 C377 1.523 . S
C379 C363 1.429 . S
C379 C375 1.429 . S
C379 C380 1.523 . S
C380 C364 1.368 . S
C380 C376 1.368 . S
C380 C379 1.523 . S
H381 C356 0.950 . S
H382 C358 0.950 . S
H383 C359 0.949 1_655 S
H384 C361 0.950 . S
H385 C363 0.950 . S
C386 C387 1.349 . S
C386 C388 1.327 . S
C386 H411 0.950 . S
C387 C386 1.349 . S
C387 C403 1.349 . S
C388 C386 1.327 . S
C388 C407 1.429 . S
C388 H412 0.950 . S
C389 C406 1.574 . S
C389 C408 1.368 1_655 S
C389 H413 0.949 . S
H390 C394 0.949 . S
C391 C392 1.349 . S
C391 C393 1.327 . S
C391 H414 0.950 . S
C392 C391 1.349 . S
C392 C404 1.349 . S
C393 C391 1.327 . S
C393 C409 1.429 . S
C393 H415 0.950 . S
C394 H390 0.949 . S
C394 C402 1.574 1_655 S
C394 C410 1.368 . S
H395 C403 0.950 . S
H396 C401 0.950 . S
H397 C402 0.949 . S
H398 C404 0.950 . S
H399 C405 0.950 . S
H400 C406 0.949 . S
C401 H396 0.950 . S
C401 C403 1.327 . S
C401 C407 1.429 . S
C402 C394 1.574 1_455 S
C402 H397 0.949 . S
C402 C408 1.368 . S
C403 C387 1.349 . S
C403 H395 0.950 . S
C403 C401 1.327 . S
C404 C392 1.349 . S
C404 H398 0.950 . S
C404 C405 1.327 . S
C405 H399 0.950 . S
C405 C404 1.327 . S
C405 C409 1.429 . S
C406 C389 1.574 . S
C406 H400 0.949 . S
C406 C410 1.368 . S
C407 C388 1.429 . S
C407 C401 1.429 . S
C407 C408 1.523 . S
C408 C389 1.368 1_455 S
C408 C402 1.368 . S
C408 C407 1.523 . S
C409 C393 1.429 . S
C409 C405 1.429 . S
C409 C410 1.523 . S
C410 C394 1.368 . S
C410 C406 1.368 . S
C410 C409 1.523 . S
H411 C386 0.950 . S
H412 C388 0.950 . S
H413 C389 0.949 . S
H414 C391 0.950 . S
H415 C393 0.950 . S
C416 C417 1.349 . S
C416 C418 1.327 . S
C416 H441 0.950 . S
C417 C416 1.349 . S
C417 C433 1.349 . S
C418 C416 1.327 . S
C418 C437 1.429 . S
C418 H442 0.950 . S
C419 C436 1.574 1_656 S
C419 C438 1.368 . S
C419 H443 0.949 . S
H420 C424 0.949 . S
C421 C422 1.349 . S
C421 C423 1.327 . S
C421 H444 0.950 . S
C422 C421 1.349 . S
C422 C434 1.349 . S
C423 C421 1.327 . S
C423 C439 1.429 . S
C423 H445 0.950 . S
C424 H420 0.949 . S
C424 C432 1.574 1_454 S
C424 C440 1.368 . S
H425 C433 0.950 . S
H426 C431 0.950 . S
H427 C432 0.949 . S
H428 C434 0.950 . S
H429 C435 0.950 . S
H430 C436 0.949 . S
C431 H426 0.950 . S
C431 C433 1.327 . S
C431 C437 1.429 . S
C432 C424 1.574 1_656 S
C432 H427 0.949 . S
C432 C438 1.368 . S
C433 C417 1.349 . S
C433 H425 0.950 . S
C433 C431 1.327 . S
C434 C422 1.349 . S
C434 H428 0.950 . S
C434 C435 1.327 . S
C435 H429 0.950 . S
C435 C434 1.327 . S
C435 C439 1.429 . S
C436 C419 1.574 1_454 S
C436 H430 0.949 . S
C436 C440 1.368 . S
C437 C418 1.429 . S
C437 C431 1.429 . S
C437 C438 1.523 . S
C438 C419 1.368 . S
C438 C432 1.368 . S
C438 C437 1.523 . S
C439 C423 1.429 . S
C439 C435 1.429 . S
C439 C440 1.523 . S
C440 C424 1.368 . S
C440 C436 1.368 . S
C440 C439 1.523 . S
H441 C416 0.950 . S
H442 C418 0.950 . S
H443 C419 0.949 . S
H444 C421 0.950 . S
H445 C423 0.950 . S
C446 C447 1.349 . S
C446 C448 1.327 . S
C446 H471 0.950 . S
C447 C446 1.349 . S
C447 C463 1.349 . S
C448 C446 1.327 . S
C448 C467 1.429 . S
C448 H472 0.950 . S
C449 C466 1.574 1_454 S
C449 C468 1.368 . S
C449 H473 0.949 . S
H450 C454 0.949 . S
C451 C452 1.349 . S
C451 C453 1.327 . S
C451 H474 0.950 . S
C452 C451 1.349 . S
C452 C464 1.349 . S
C453 C451 1.327 . S
C453 C469 1.429 . S
C453 H475 0.950 . S
C454 H450 0.949 . S
C454 C462 1.574 1_656 S
C454 C470 1.368 . S
H455 C463 0.950 . S
H456 C461 0.950 . S
H457 C462 0.949 . S
H458 C464 0.950 . S
H459 C465 0.950 . S
H460 C466 0.949 . S
C461 H456 0.950 . S
C461 C463 1.327 . S
C461 C467 1.429 . S
C462 C454 1.574 1_454 S
C462 H457 0.949 . S
C462 C468 1.368 . S
C463 C447 1.349 . S
C463 H455 0.950 . S
C463 C461 1.327 . S
C464 C452 1.349 . S
C464 H458 0.950 . S
C464 C465 1.327 . S
C465 H459 0.950 . S
C465 C464 1.327 . S
C465 C469 1.429 . S
C466 C449 1.574 1_656 S
C466 H460 0.949 . S
C466 C470 1.368 . S
C467 C448 1.429 . S
C467 C461 1.429 . S
C467 C468 1.523 . S
C468 C449 1.368 . S
C468 C462 1.368 . S
C468 C467 1.523 . S
C469 C453 1.429 . S
C469 C465 1.429 . S
C469 C470 1.523 . S
C470 C454 1.368 . S
C470 C466 1.368 . S
C470 C469 1.523 . S
H471 C446 0.950 . S
H472 C448 0.950 . S
H473 C449 0.949 . S
H474 C451 0.950 . S
H475 C453 0.950 . S
C476 C477 1.349 . S
C476 C478 1.327 . S
C476 H501 0.950 . S
C477 C476 1.349 . S
C477 C493 1.349 . S
C478 C476 1.327 . S
C478 C497 1.429 . S
C478 H502 0.950 . S
C479 C496 1.574 1_554 S
C479 C498 1.368 . S
C479 H503 0.949 . S
H480 C484 0.949 . S
C481 C482 1.349 . S
C481 C483 1.327 . S
C481 H504 0.950 . S
C482 C481 1.349 . S
C482 C494 1.349 . S
C483 C481 1.327 . S
C483 C499 1.429 . S
C483 H505 0.950 . S
C484 H480 0.949 . S
C484 C492 1.574 1_556 S
C484 C500 1.368 . S
H485 C493 0.950 . S
H486 C491 0.950 . S
H487 C492 0.949 . S
H488 C494 0.950 . S
H489 C495 0.950 . S
H490 C496 0.949 . S
C491 H486 0.950 . S
C491 C493 1.327 . S
C491 C497 1.429 . S
C492 C484 1.574 1_554 S
C492 H487 0.949 . S
C492 C498 1.368 . S
C493 C477 1.349 . S
C493 H485 0.950 . S
C493 C491 1.327 . S
C494 C482 1.349 . S
C494 H488 0.950 . S
C494 C495 1.327 . S
C495 H489 0.950 . S
C495 C494 1.327 . S
C495 C499 1.429 . S
C496 C479 1.574 1_556 S
C496 H490 0.949 . S
C496 C500 1.368 . S
C497 C478 1.429 . S
C497 C491 1.429 . S
C497 C498 1.523 . S
C498 C479 1.368 . S
C498 C492 1.368 . S
C498 C497 1.523 . S
C499 C483 1.429 . S
C499 C495 1.429 . S
C499 C500 1.523 . S
C500 C484 1.368 . S
C500 C496 1.368 . S
C500 C499 1.523 . S
H501 C476 0.950 . S
H502 C478 0.950 . S
H503 C479 0.949 . S
H504 C481 0.950 . S
H505 C483 0.950 . S
C506 C507 1.349 . S
C506 C508 1.327 . S
C506 H531 0.950 . S
C507 C506 1.349 . S
C507 C523 1.349 . S
C508 C506 1.327 . S
C508 C527 1.429 . S
C508 H532 0.950 . S
C509 C526 1.574 1_554 S
C509 C528 1.368 . S
C509 H533 0.949 . S
H510 C514 0.949 . S
C511 C512 1.349 . S
C511 C513 1.327 . S
C511 H534 0.950 . S
C512 C511 1.349 . S
C512 C524 1.349 . S
C513 C511 1.327 . S
C513 C529 1.429 . S
C513 H535 0.950 . S
C514 H510 0.949 . S
C514 C522 1.574 1_556 S
C514 C530 1.368 . S
H515 C523 0.950 . S
H516 C521 0.950 . S
H517 C522 0.949 . S
H518 C524 0.950 . S
H519 C525 0.950 . S
H520 C526 0.949 . S
C521 H516 0.950 . S
C521 C523 1.327 . S
C521 C527 1.429 . S
C522 C514 1.574 1_554 S
C522 H517 0.949 . S
C522 C528 1.368 . S
C523 C507 1.349 . S
C523 H515 0.950 . S
C523 C521 1.327 . S
C524 C512 1.349 . S
C524 H518 0.950 . S
C524 C525 1.327 . S
C525 H519 0.950 . S
C525 C524 1.327 . S
C525 C529 1.429 . S
C526 C509 1.574 1_556 S
C526 H520 0.949 . S
C526 C530 1.368 . S
C527 C508 1.429 . S
C527 C521 1.429 . S
C527 C528 1.523 . S
C528 C509 1.368 . S
C528 C522 1.368 . S
C528 C527 1.523 . S
C529 C513 1.429 . S
C529 C525 1.429 . S
C529 C530 1.523 . S
C530 C514 1.368 . S
C530 C526 1.368 . S
C530 C529 1.523 . S
H531 C506 0.950 . S
H532 C508 0.950 . S
H533 C509 0.949 . S
H534 C511 0.950 . S
H535 C513 0.950 . S
C536 C537 1.349 . S
C536 C538 1.327 . S
C536 H561 0.950 . S
C537 C536 1.349 . S
C537 C553 1.349 . S
C538 C536 1.327 . S
C538 C557 1.429 . S
C538 H562 0.950 . S
C539 C556 1.574 . S
C539 C558 1.368 . S
C539 H563 0.949 . S
H540 C544 0.949 . S
C541 C542 1.349 . S
C541 C543 1.327 . S
C541 H564 0.950 . S
C542 C541 1.349 . S
C542 C554 1.349 . S
C543 C541 1.327 . S
C543 C559 1.429 . S
C543 H565 0.950 . S
C544 H540 0.949 . S
C544 C552 1.574 . S
C544 C560 1.368 . S
H545 C553 0.950 . S
H546 C551 0.950 . S
H547 C552 0.949 . S
H548 C554 0.950 . S
H549 C555 0.950 . S
H550 C556 0.949 . S
C551 H546 0.950 . S
C551 C553 1.327 . S
C551 C557 1.429 . S
C552 C544 1.574 . S
C552 H547 0.949 . S
C552 C558 1.368 . S
C553 C537 1.349 . S
C553 H545 0.950 . S
C553 C551 1.327 . S
C554 C542 1.349 . S
C554 H548 0.950 . S
C554 C555 1.327 . S
C555 H549 0.950 . S
C555 C554 1.327 . S
C555 C559 1.429 . S
C556 C539 1.574 . S
C556 H550 0.949 . S
C556 C560 1.368 . S
C557 C538 1.429 . S
C557 C551 1.429 . S
C557 C558 1.523 . S
C558 C539 1.368 . S
C558 C552 1.368 . S
C558 C557 1.523 . S
C559 C543 1.429 . S
C559 C555 1.429 . S
C559 C560 1.523 . S
C560 C544 1.368 . S
C560 C556 1.368 . S
C560 C559 1.523 . S
H561 C536 0.950 . S
H562 C538 0.950 . S
H563 C539 0.949 . S
H564 C541 0.950 . S
H565 C543 0.950 . S
C566 C567 1.349 . S
C566 C568 1.327 . S
C566 H591 0.950 . S
C567 C566 1.349 . S
C567 C583 1.349 . S
C568 C566 1.327 . S
C568 C587 1.429 . S
C568 H592 0.950 . S
C569 C586 1.574 . S
C569 C588 1.368 . S
C569 H593 0.949 . S
H570 C574 0.949 . S
C571 C572 1.349 . S
C571 C573 1.327 . S
C571 H594 0.950 . S
C572 C571 1.349 . S
C572 C584 1.349 . S
C573 C571 1.327 . S
C573 C589 1.429 . S
C573 H595 0.950 . S
C574 H570 0.949 . S
C574 C582 1.574 . S
C574 C590 1.368 . S
H575 C583 0.950 . S
H576 C581 0.950 . S
H577 C582 0.949 . S
H578 C584 0.950 . S
H579 C585 0.950 . S
H580 C586 0.949 . S
C581 H576 0.950 . S
C581 C583 1.327 . S
C581 C587 1.429 . S
C582 C574 1.574 . S
C582 H577 0.949 . S
C582 C588 1.368 . S
C583 C567 1.349 . S
C583 H575 0.950 . S
C583 C581 1.327 . S
C584 C572 1.349 . S
C584 H578 0.950 . S
C584 C585 1.327 . S
C585 H579 0.950 . S
C585 C584 1.327 . S
C585 C589 1.429 . S
C586 C569 1.574 . S
C586 H580 0.949 . S
C586 C590 1.368 . S
C587 C568 1.429 . S
C587 C581 1.429 . S
C587 C588 1.523 . S
C588 C569 1.368 . S
C588 C582 1.368 . S
C588 C587 1.523 . S
C589 C573 1.429 . S
C589 C585 1.429 . S
C589 C590 1.523 . S
C590 C574 1.368 . S
C590 C586 1.368 . S
C590 C589 1.523 . S
H591 C566 0.950 . S
H592 C568 0.950 . S
H593 C569 0.949 . S
H594 C571 0.950 . S
H595 C573 0.950 . S
C596 C597 1.349 . S
C596 C598 1.327 . S
C596 H621 0.950 . S
C597 C596 1.349 . S
C597 C613 1.349 . S
C598 C596 1.327 . S
C598 C617 1.429 . S
C598 H622 0.950 . S
C599 C616 1.574 1_565 S
C599 C618 1.368 . S
C599 H623 0.949 . S
H600 C604 0.949 . S
C601 C602 1.349 . S
C601 C603 1.327 . S
C601 H624 0.950 . S
C602 C601 1.349 . S
C602 C614 1.349 . S
C603 C601 1.327 . S
C603 C619 1.429 . S
C603 H625 0.950 . S
C604 H600 0.949 . S
C604 C612 1.574 1_545 S
C604 C620 1.368 . S
H605 C613 0.950 . S
H606 C611 0.950 . S
H607 C612 0.949 . S
H608 C614 0.950 . S
H609 C615 0.950 . S
H610 C616 0.949 . S
C611 H606 0.950 . S
C611 C613 1.327 . S
C611 C617 1.429 . S
C612 C604 1.574 1_565 S
C612 H607 0.949 . S
C612 C618 1.368 . S
C613 C597 1.349 . S
C613 H605 0.950 . S
C613 C611 1.327 . S
C614 C602 1.349 . S
C614 H608 0.950 . S
C614 C615 1.327 . S
C615 H609 0.950 . S
C615 C614 1.327 . S
C615 C619 1.429 . S
C616 C599 1.574 1_545 S
C616 H610 0.949 . S
C616 C620 1.368 . S
C617 C598 1.429 . S
C617 C611 1.429 . S
C617 C618 1.523 . S
C618 C599 1.368 . S
C618 C612 1.368 . S
C618 C617 1.523 . S
C619 C603 1.429 . S
C619 C615 1.429 . S
C619 C620 1.523 . S
C620 C604 1.368 . S
C620 C616 1.368 . S
C620 C619 1.523 . S
H621 C596 0.950 . S
H622 C598 0.950 . S
H623 C599 0.949 . S
H624 C601 0.950 . S
H625 C603 0.950 . S
C626 C627 1.349 . S
C626 C628 1.327 . S
C626 H651 0.950 . S
C627 C626 1.349 . S
C627 C643 1.349 . S
C628 C626 1.327 . S
C628 C647 1.429 . S
C628 H652 0.950 . S
C629 C646 1.574 1_565 S
C629 C648 1.368 . S
C629 H653 0.949 . S
H630 C634 0.949 . S
C631 C632 1.349 . S
C631 C633 1.327 . S
C631 H654 0.950 . S
C632 C631 1.349 . S
C632 C644 1.349 . S
C633 C631 1.327 . S
C633 C649 1.429 . S
C633 H655 0.950 . S
C634 H630 0.949 . S
C634 C642 1.574 1_545 S
C634 C650 1.368 . S
H635 C643 0.950 . S
H636 C641 0.950 . S
H637 C642 0.949 . S
H638 C644 0.950 . S
H639 C645 0.950 . S
H640 C646 0.949 . S
C641 H636 0.950 . S
C641 C643 1.327 . S
C641 C647 1.429 . S
C642 C634 1.574 1_565 S
C642 H637 0.949 . S
C642 C648 1.368 . S
C643 C627 1.349 . S
C643 H635 0.950 . S
C643 C641 1.327 . S
C644 C632 1.349 . S
C644 H638 0.950 . S
C644 C645 1.327 . S
C645 H639 0.950 . S
C645 C644 1.327 . S
C645 C649 1.429 . S
C646 C629 1.574 1_545 S
C646 H640 0.949 . S
C646 C650 1.368 . S
C647 C628 1.429 . S
C647 C641 1.429 . S
C647 C648 1.523 . S
C648 C629 1.368 . S
C648 C642 1.368 . S
C648 C647 1.523 . S
C649 C633 1.429 . S
C649 C645 1.429 . S
C649 C650 1.523 . S
C650 C634 1.368 . S
C650 C646 1.368 . S
C650 C649 1.523 . S
H651 C626 0.950 . S
H652 C628 0.950 . S
H653 C629 0.949 . S
H654 C631 0.950 . S
H655 C633 0.950 . S
C656 C657 1.349 . S
C656 C658 1.327 . S
C656 H681 0.950 . S
C657 C656 1.349 . S
C657 C673 1.349 . S
C658 C656 1.327 . S
C658 C677 1.429 . S
C658 H682 0.950 . S
C659 C676 1.574 . S
C659 C678 1.368 . S
C659 H683 0.949 . S
H660 C664 0.949 . S
C661 C662 1.349 . S
C661 C663 1.327 . S
C661 H684 0.950 . S
C662 C661 1.349 . S
C662 C674 1.349 . S
C663 C661 1.327 . S
C663 C679 1.429 . S
C663 H685 0.950 . S
C664 H660 0.949 . S
C664 C672 1.574 . S
C664 C680 1.368 . S
H665 C673 0.950 . S
H666 C671 0.950 . S
H667 C672 0.949 . S
H668 C674 0.950 . S
H669 C675 0.950 . S
H670 C676 0.949 . S
C671 H666 0.950 . S
C671 C673 1.327 . S
C671 C677 1.429 . S
C672 C664 1.574 . S
C672 H667 0.949 . S
C672 C678 1.368 . S
C673 C657 1.349 . S
C673 H665 0.950 . S
C673 C671 1.327 . S
C674 C662 1.349 . S
C674 H668 0.950 . S
C674 C675 1.327 . S
C675 H669 0.950 . S
C675 C674 1.327 . S
C675 C679 1.429 . S
C676 C659 1.574 . S
C676 H670 0.949 . S
C676 C680 1.368 . S
C677 C658 1.429 . S
C677 C671 1.429 . S
C677 C678 1.523 . S
C678 C659 1.368 . S
C678 C672 1.368 . S
C678 C677 1.523 . S
C679 C663 1.429 . S
C679 C675 1.429 . S
C679 C680 1.523 . S
C680 C664 1.368 . S
C680 C676 1.368 . S
C680 C679 1.523 . S
H681 C656 0.950 . S
H682 C658 0.950 . S
H683 C659 0.949 . S
H684 C661 0.950 . S
H685 C663 0.950 . S
C686 C687 1.349 . S
C686 C688 1.327 . S
C686 H711 0.950 . S
C687 C686 1.349 . S
C687 C703 1.349 . S
C688 C686 1.327 . S
C688 C707 1.429 . S
C688 H712 0.950 . S
C689 C706 1.574 . S
C689 C708 1.368 . S
C689 H713 0.949 . S
H690 C694 0.949 . S
C691 C692 1.349 . S
C691 C693 1.327 . S
C691 H714 0.950 . S
C692 C691 1.349 . S
C692 C704 1.349 . S
C693 C691 1.327 . S
C693 C709 1.429 . S
C693 H715 0.950 . S
C694 H690 0.949 . S
C694 C702 1.574 . S
C694 C710 1.368 . S
H695 C703 0.950 . S
H696 C701 0.950 . S
H697 C702 0.949 . S
H698 C704 0.950 . S
H699 C705 0.950 . S
H700 C706 0.949 . S
C701 H696 0.950 . S
C701 C703 1.327 . S
C701 C707 1.429 . S
C702 C694 1.574 . S
C702 H697 0.949 . S
C702 C708 1.368 . S
C703 C687 1.349 . S
C703 H695 0.950 . S
C703 C701 1.327 . S
C704 C692 1.349 . S
C704 H698 0.950 . S
C704 C705 1.327 . S
C705 H699 0.950 . S
C705 C704 1.327 . S
C705 C709 1.429 . S
C706 C689 1.574 . S
C706 H700 0.949 . S
C706 C710 1.368 . S
C707 C688 1.429 . S
C707 C701 1.429 . S
C707 C708 1.523 . S
C708 C689 1.368 . S
C708 C702 1.368 . S
C708 C707 1.523 . S
C709 C693 1.429 . S
C709 C705 1.429 . S
C709 C710 1.523 . S
C710 C694 1.368 . S
C710 C706 1.368 . S
C710 C709 1.523 . S
H711 C686 0.950 . S
H712 C688 0.950 . S
H713 C689 0.949 . S
H714 C691 0.950 . S
H715 C693 0.950 . S
C716 C717 1.349 . S
C716 C718 1.327 . S
C716 H741 0.950 . S
C717 C716 1.349 . S
C717 C733 1.349 . S
C718 C716 1.327 . S
C718 C737 1.429 . S
C718 H742 0.950 . S
C719 C736 1.574 . S
C719 C738 1.368 . S
C719 H743 0.949 . S
H720 C724 0.949 . S
C721 C722 1.349 . S
C721 C723 1.327 . S
C721 H744 0.950 . S
C722 C721 1.349 . S
C722 C734 1.349 . S
C723 C721 1.327 . S
C723 C739 1.429 . S
C723 H745 0.950 . S
C724 H720 0.949 . S
C724 C732 1.574 . S
C724 C740 1.368 . S
H725 C733 0.950 . S
H726 C731 0.950 . S
H727 C732 0.949 . S
H728 C734 0.950 . S
H729 C735 0.950 . S
H730 C736 0.949 . S
C731 H726 0.950 . S
C731 C733 1.327 . S
C731 C737 1.429 . S
C732 C724 1.574 . S
C732 H727 0.949 . S
C732 C738 1.368 . S
C733 C717 1.349 . S
C733 H725 0.950 . S
C733 C731 1.327 . S
C734 C722 1.349 . S
C734 H728 0.950 . S
C734 C735 1.327 . S
C735 H729 0.950 . S
C735 C734 1.327 . S
C735 C739 1.429 . S
C736 C719 1.574 . S
C736 H730 0.949 . S
C736 C740 1.368 . S
C737 C718 1.429 . S
C737 C731 1.429 . S
C737 C738 1.523 . S
C738 C719 1.368 . S
C738 C732 1.368 . S
C738 C737 1.523 . S
C739 C723 1.429 . S
C739 C735 1.429 . S
C739 C740 1.523 . S
C740 C724 1.368 . S
C740 C736 1.368 . S
C740 C739 1.523 . S
H741 C716 0.950 . S
H742 C718 0.950 . S
H743 C719 0.949 . S
H744 C721 0.950 . S
H745 C723 0.950 . S
C746 C747 1.349 . S
C746 C748 1.327 . S
C746 H771 0.950 . S
C747 C746 1.349 . S
C747 C763 1.349 . S
C748 C746 1.327 . S
C748 C767 1.429 . S
C748 H772 0.950 . S
C749 C766 1.574 . S
C749 C768 1.368 . S
C749 H773 0.949 . S
H750 C754 0.949 . S
C751 C752 1.349 . S
C751 C753 1.327 . S
C751 H774 0.950 . S
C752 C751 1.349 . S
C752 C764 1.349 . S
C753 C751 1.327 . S
C753 C769 1.429 . S
C753 H775 0.950 . S
C754 H750 0.949 . S
C754 C762 1.574 . S
C754 C770 1.368 . S
H755 C763 0.950 . S
H756 C761 0.950 . S
H757 C762 0.949 . S
H758 C764 0.950 . S
H759 C765 0.950 . S
H760 C766 0.949 . S
C761 H756 0.950 . S
C761 C763 1.327 . S
C761 C767 1.429 . S
C762 C754 1.574 . S
C762 H757 0.949 . S
C762 C768 1.368 . S
C763 C747 1.349 . S
C763 H755 0.950 . S
C763 C761 1.327 . S
C764 C752 1.349 . S
C764 H758 0.950 . S
C764 C765 1.327 . S
C765 H759 0.950 . S
C765 C764 1.327 . S
C765 C769 1.429 . S
C766 C749 1.574 . S
C766 H760 0.949 . S
C766 C770 1.368 . S
C767 C748 1.429 . S
C767 C761 1.429 . S
C767 C768 1.523 . S
C768 C749 1.368 . S
C768 C762 1.368 . S
C768 C767 1.523 . S
C769 C753 1.429 . S
C769 C765 1.429 . S
C769 C770 1.523 . S
C770 C754 1.368 . S
C770 C766 1.368 . S
C770 C769 1.523 . S
H771 C746 0.950 . S
H772 C748 0.950 . S
H773 C749 0.949 . S
H774 C751 0.950 . S
H775 C753 0.950 . S
C776 C777 1.349 . S
C776 C778 1.327 . S
C776 H801 0.950 . S
C777 C776 1.349 . S
C777 C793 1.349 . S
C778 C776 1.327 . S
C778 C797 1.429 . S
C778 H802 0.950 . S
C779 C796 1.574 1_554 S
C779 C798 1.368 . S
C779 H803 0.949 . S
H780 C784 0.949 . S
C781 C782 1.349 . S
C781 C783 1.327 . S
C781 H804 0.950 . S
C782 C781 1.349 . S
C782 C794 1.349 . S
C783 C781 1.327 . S
C783 C799 1.429 . S
C783 H805 0.950 . S
C784 H780 0.949 . S
C784 C792 1.574 1_556 S
C784 C800 1.368 . S
H785 C793 0.950 . S
H786 C791 0.950 . S
H787 C792 0.949 . S
H788 C794 0.950 . S
H789 C795 0.950 . S
H790 C796 0.949 . S
C791 H786 0.950 . S
C791 C793 1.327 . S
C791 C797 1.429 . S
C792 C784 1.574 1_554 S
C792 H787 0.949 . S
C792 C798 1.368 . S
C793 C777 1.349 . S
C793 H785 0.950 . S
C793 C791 1.327 . S
C794 C782 1.349 . S
C794 H788 0.950 . S
C794 C795 1.327 . S
C795 H789 0.950 . S
C795 C794 1.327 . S
C795 C799 1.429 . S
C796 C779 1.574 1_556 S
C796 H790 0.949 . S
C796 C800 1.368 . S
C797 C778 1.429 . S
C797 C791 1.429 . S
C797 C798 1.523 . S
C798 C779 1.368 . S
C798 C792 1.368 . S
C798 C797 1.523 . S
C799 C783 1.429 . S
C799 C795 1.429 . S
C799 C800 1.523 . S
C800 C784 1.368 . S
C800 C796 1.368 . S
C800 C799 1.523 . S
H801 C776 0.950 . S
H802 C778 0.950 . S
H803 C779 0.949 . S
H804 C781 0.950 . S
H805 C783 0.950 . S
C806 C807 1.349 . S
C806 C808 1.327 . S
C806 H831 0.950 . S
C807 C806 1.349 . S
C807 C823 1.349 . S
C808 C806 1.327 . S
C808 C827 1.429 . S
C808 H832 0.950 . S
C809 C826 1.574 1_554 S
C809 C828 1.368 . S
C809 H833 0.949 . S
H810 C814 0.949 . S
C811 C812 1.349 . S
C811 C813 1.327 . S
C811 H834 0.950 . S
C812 C811 1.349 . S
C812 C824 1.349 . S
C813 C811 1.327 . S
C813 C829 1.429 . S
C813 H835 0.950 . S
C814 H810 0.949 . S
C814 C822 1.574 1_556 S
C814 C830 1.368 . S
H815 C823 0.950 . S
H816 C821 0.950 . S
H817 C822 0.949 . S
H818 C824 0.950 . S
H819 C825 0.950 . S
H820 C826 0.949 . S
C821 H816 0.950 . S
C821 C823 1.327 . S
C821 C827 1.429 . S
C822 C814 1.574 1_554 S
C822 H817 0.949 . S
C822 C828 1.368 . S
C823 C807 1.349 . S
C823 H815 0.950 . S
C823 C821 1.327 . S
C824 C812 1.349 . S
C824 H818 0.950 . S
C824 C825 1.327 . S
C825 H819 0.950 . S
C825 C824 1.327 . S
C825 C829 1.429 . S
C826 C809 1.574 1_556 S
C826 H820 0.949 . S
C826 C830 1.368 . S
C827 C808 1.429 . S
C827 C821 1.429 . S
C827 C828 1.523 . S
C828 C809 1.368 . S
C828 C822 1.368 . S
C828 C827 1.523 . S
C829 C813 1.429 . S
C829 C825 1.429 . S
C829 C830 1.523 . S
C830 C814 1.368 . S
C830 C826 1.368 . S
C830 C829 1.523 . S
H831 C806 0.950 . S
H832 C808 0.950 . S
H833 C809 0.949 . S
H834 C811 0.950 . S
H835 C813 0.950 . S
C836 C837 1.349 . S
C836 C838 1.327 . S
C836 H861 0.950 . S
C837 C836 1.349 . S
C837 C853 1.349 . S
C838 C836 1.327 . S
C838 C857 1.429 . S
C838 H862 0.950 . S
C839 C856 1.574 1_556 S
C839 C858 1.368 . S
C839 H863 0.949 . S
H840 C844 0.949 . S
C841 C842 1.349 . S
C841 C843 1.327 . S
C841 H864 0.950 . S
C842 C841 1.349 . S
C842 C854 1.349 . S
C843 C841 1.327 . S
C843 C859 1.429 . S
C843 H865 0.950 . S
C844 H840 0.949 . S
C844 C852 1.574 1_554 S
C844 C860 1.368 . S
H845 C853 0.950 . S
H846 C851 0.950 . S
H847 C852 0.949 . S
H848 C854 0.950 . S
H849 C855 0.950 . S
H850 C856 0.949 . S
C851 H846 0.950 . S
C851 C853 1.327 . S
C851 C857 1.429 . S
C852 C844 1.574 1_556 S
C852 H847 0.949 . S
C852 C858 1.368 . S
C853 C837 1.349 . S
C853 H845 0.950 . S
C853 C851 1.327 . S
C854 C842 1.349 . S
C854 H848 0.950 . S
C854 C855 1.327 . S
C855 H849 0.950 . S
C855 C854 1.327 . S
C855 C859 1.429 . S
C856 C839 1.574 1_554 S
C856 H850 0.949 . S
C856 C860 1.368 . S
C857 C838 1.429 . S
C857 C851 1.429 . S
C857 C858 1.523 . S
C858 C839 1.368 . S
C858 C852 1.368 . S
C858 C857 1.523 . S
C859 C843 1.429 . S
C859 C855 1.429 . S
C859 C860 1.523 . S
C860 C844 1.368 . S
C860 C856 1.368 . S
C860 C859 1.523 . S
H861 C836 0.950 . S
H862 C838 0.950 . S
H863 C839 0.949 . S
H864 C841 0.950 . S
H865 C843 0.950 . S
C866 C867 1.349 . S
C866 C868 1.327 . S
C866 H891 0.950 . S
C867 C866 1.349 . S
C867 C883 1.349 . S
C868 C866 1.327 . S
C868 C887 1.429 . S
C868 H892 0.950 . S
C869 C886 1.574 1_554 S
C869 C888 1.368 . S
C869 H893 0.949 . S
H870 C874 0.949 . S
C871 C872 1.349 . S
C871 C873 1.327 . S
C871 H894 0.950 . S
C872 C871 1.349 . S
C872 C884 1.349 . S
C873 C871 1.327 . S
C873 C889 1.429 . S
C873 H895 0.950 . S
C874 H870 0.949 . S
C874 C882 1.574 1_556 S
C874 C890 1.368 . S
H875 C883 0.950 . S
H876 C881 0.950 . S
H877 C882 0.949 . S
H878 C884 0.950 . S
H879 C885 0.950 . S
H880 C886 0.949 . S
C881 H876 0.950 . S
C881 C883 1.327 . S
C881 C887 1.429 . S
C882 C874 1.574 1_554 S
C882 H877 0.949 . S
C882 C888 1.368 . S
C883 C867 1.349 . S
C883 H875 0.950 . S
C883 C881 1.327 . S
C884 C872 1.349 . S
C884 H878 0.950 . S
C884 C885 1.327 . S
C885 H879 0.950 . S
C885 C884 1.327 . S
C885 C889 1.429 . S
C886 C869 1.574 1_556 S
C886 H880 0.949 . S
C886 C890 1.368 . S
C887 C868 1.429 . S
C887 C881 1.429 . S
C887 C888 1.523 . S
C888 C869 1.368 . S
C888 C882 1.368 . S
C888 C887 1.523 . S
C889 C873 1.429 . S
C889 C885 1.429 . S
C889 C890 1.523 . S
C890 C874 1.368 . S
C890 C886 1.368 . S
C890 C889 1.523 . S
H891 C866 0.950 . S
H892 C868 0.950 . S
H893 C869 0.949 . S
H894 C871 0.950 . S
H895 C873 0.950 . S
C177 C160 1.181 . S
C182 C5 1.141 . S
C207 C31 1.141 . S
C212 C139 1.181 . S
C237 C115 1.181 . S
C242 C50 1.141 . S
C267 C73 1.141 . S
C272 C97 1.181 . S
C297 C72 1.181 . S
C302 C93 1.141 . S
C327 C51 1.181 . S
C332 C119 1.141 . S
C357 C27 1.181 . S
C362 C138 1.141 . S
C387 C9 1.181 . S
C392 C161 1.141 . S
C417 C26 1.847 . S
C422 C8 1.847 . S
C447 C70 1.847 . S
C452 C52 1.847 . S
C477 C96 1.847 . S
C482 C114 1.847 . S
C507 C158 1.847 . S
C512 C140 1.847 . S
C537 C74 1.410 . S
C542 C4 1.410 . S
C567 C48 1.410 . S
C572 C30 1.410 . S
C597 C92 1.410 . S
C602 C162 1.410 . S
C627 C118 1.410 . S
C632 C136 1.410 . S
C657 C137 1.793 . S
C662 C6 1.793 . S
C687 C29 1.793 . S
C692 C163 1.793 . S
C717 C94 1.793 . S
C722 C49 1.793 . S
C747 C117 1.793 . S
C752 C75 1.793 . S
C777 C7 0.565 . S
C782 C141 0.565 . S
C807 C159 0.565 . S
C812 C28 0.565 . S
C837 C53 0.565 . S
C842 C95 0.565 . S
C867 C71 0.565 . S
C872 C116 0.565 . S
