# Generated by pormake.
# Topology sxa, (6)-cn, num edge types: 1
# Building blocks:
#     Node 0, Type 0, BuildingBlock: PAMTUU_clean_sbu_0, # of connection points: 6
#     Node 1, Type 0, BuildingBlock: PAMTUU_clean_sbu_0, # of connection points: 6
#     Node 2, Type 0, BuildingBlock: PAMTUU_clean_sbu_0, # of connection points: 6
#     Node 3, Type 0, BuildingBlock: PAMTUU_clean_sbu_0, # of connection points: 6
#     Edge 4, Type (0, 0), BuildingBlock: TEMPAE_clean_linker_10, # of connection points: 2
#     Edge 5, Type (0, 0), BuildingBlock: TEMPAE_clean_linker_10, # of connection points: 2
#     Edge 6, Type (0, 0), BuildingBlock: TEMPAE_clean_linker_10, # of connection points: 2
#     Edge 7, Type (0, 0), BuildingBlock: TEMPAE_clean_linker_10, # of connection points: 2
#     Edge 8, Type (0, 0), BuildingBlock: TEMPAE_clean_linker_10, # of connection points: 2
#     Edge 9, Type (0, 0), BuildingBlock: TEMPAE_clean_linker_10, # of connection points: 2
#     Edge 10, Type (0, 0), BuildingBlock: TEMPAE_clean_linker_10, # of connection points: 2
#     Edge 11, Type (0, 0), BuildingBlock: TEMPAE_clean_linker_10, # of connection points: 2
#     Edge 12, Type (0, 0), BuildingBlock: TEMPAE_clean_linker_10, # of connection points: 2
#     Edge 13, Type (0, 0), BuildingBlock: TEMPAE_clean_linker_10, # of connection points: 2
#     Edge 14, Type (0, 0), BuildingBlock: TEMPAE_clean_linker_10, # of connection points: 2
#     Edge 15, Type (0, 0), BuildingBlock: TEMPAE_clean_linker_10, # of connection points: 2
# Relax obj value: 0.222
# Max RMSD: 0.278
# Mean RMSD: 0.278
data_MOF--net-sxa--node1-PAMTUU_clean_sbu_0--edge1-TEMPAE_clean_linker_10
_symmetry_space_group_name_H-M    P1
_symmetry_Int_Tables_number       1
_symmetry_cell_setting            triclinic
loop_
_symmetry_equiv_pos_as_xyz
'x, y, z'
_cell_length_a     36.043919
_cell_length_b     27.938459
_cell_length_c     17.30735
_cell_angle_alpha  94.223575
_cell_angle_beta   55.086701
_cell_angle_gamma 99.032539
loop_
_atom_site_label
_atom_site_type_symbol
_atom_site_fract_x
_atom_site_fract_y
_atom_site_fract_z
_atom_type_partial_charge
Tb0 Tb 0.09314 0.775 0.05695 0.0
Tb1 Tb 0.0945 0.79088 0.24292 0.0
C2 C 0.08059 0.6888 0.16198 0.0
C3 C 0.055 0.73195 0.90693 0.0
C4 C 0.96995 0.6959 0.93906 0.0
C5 C 0.98925 0.66923 0.96999 0.0
C6 C 0.03137 0.68724 0.95454 0.0
C7 C 0.0381 0.75591 0.86743 0.0
C8 C 0.99583 0.73816 0.8836 0.0
C9 C 0.09143 0.75826 0.91422 0.0
O10 O 1.02139 0.78365 0.17568 0.0
O11 O 1.02169 0.77611 0.30821 0.0
O12 O 0.0738 0.85718 0.21862 0.0
O13 O 0.11517 0.85073 0.05858 0.0
O14 O 0.08996 0.75935 0.35579 0.0
O15 O 0.11729 0.83437 0.31759 0.0
O16 O 0.158 0.82105 0.12098 0.0
O17 O 0.16131 0.76405 0.02071 0.0
O18 O 0.05747 0.71078 0.14328 0.0
O19 O 0.10712 0.71621 0.18303 0.0
C20 C 0.99984 0.77899 0.26876 0.0
O21 O 0.08136 0.79832 0.96128 0.0
O22 O 0.1107 0.73267 0.93829 0.0
C23 C 0.09167 0.87612 0.13364 0.0
C24 C 0.1478 0.79281 0.38222 0.0
C25 C 0.21315 0.78235 0.4228 0.0
C26 C 0.19394 0.82562 0.442 0.0
C27 C 0.16181 0.83064 0.42235 0.0
C28 C 0.16742 0.74972 0.36135 0.0
C29 C 0.19945 0.74455 0.38155 0.0
C30 C 0.11063 0.7982 0.36955 0.0
C31 C 0.18183 0.79249 0.05361 0.0
H32 H 0.97051 0.63606 0.01126 0.0
H33 H 0.04373 0.66784 0.9856 0.0
H34 H 0.05575 0.79049 0.83082 0.0
H35 H 0.98188 0.75987 0.85928 0.0
H36 H 0.20284 0.85547 0.47466 0.0
H37 H 0.14721 0.86413 0.44022 0.0
H38 H 0.15768 0.7197 0.33031 0.0
H39 H 0.21371 0.7109 0.3642 0.0
Tb40 Tb 0.5945 0.26377 0.05607 0.0
Tb41 Tb 0.60205 0.2891 0.23344 0.0
C42 C 0.58502 0.18294 0.16729 0.0
C43 C 0.55777 0.22537 0.89878 0.0
C44 C 0.48205 0.22201 0.89135 0.0
C45 C 0.52621 0.23622 0.8111 0.0
C46 C 0.56398 0.23793 0.81491 0.0
C47 C 0.51437 0.20597 0.97536 0.0
C48 C 0.47663 0.20406 0.97147 0.0
C49 C 0.59362 0.24306 0.91299 0.0
O50 O 0.52371 0.27427 0.17457 0.0
O51 O 0.52854 0.27959 0.30366 0.0
O52 O 0.58356 0.35477 0.20182 0.0
O53 O 0.61981 0.33958 0.04511 0.0
O54 O 0.59584 0.26303 0.35283 0.0
O55 O 0.62973 0.33475 0.29659 0.0
O56 O 0.66655 0.31368 0.10619 0.0
O57 O 0.66264 0.25317 0.01714 0.0
O58 O 0.55975 0.20289 0.15177 0.0
O59 O 0.61252 0.21249 0.18308 0.0
C60 C 0.50468 0.27699 0.26705 0.0
O61 O 0.59019 0.28607 0.9493 0.0
O62 O 0.60228 0.21315 0.95337 0.0
C63 C 0.60039 0.36935 0.11467 0.0
C64 C 0.65695 0.29498 0.37095 0.0
C65 C 0.72154 0.28711 0.41539 0.0
C66 C 0.72725 0.32648 0.36115 0.0
C67 C 0.69566 0.33029 0.33918 0.0
C68 C 0.6513 0.25553 0.42484 0.0
C69 C 0.68313 0.25147 0.44606 0.0
C70 C 0.62042 0.30155 0.35669 0.0
C71 C 0.68691 0.28344 0.03906 0.0
H72 H 0.5311 0.24985 0.74841 0.0
H73 H 0.59738 0.25317 0.75545 0.0
H74 H 0.50908 0.19657 0.04097 0.0
H75 H 0.44289 0.19329 0.0345 0.0
H76 H 0.75644 0.35447 0.33495 0.0
H77 H 0.7013 0.36152 0.29836 0.0
H78 H 0.62168 0.22799 0.45221 0.0
H79 H 0.67686 0.22088 0.48889 0.0
Tb80 Tb 0.06671 0.26475 0.77296 0.0
Tb81 Tb 0.06699 0.27515 0.95938 0.0
C82 C 0.05801 0.17491 0.88948 0.0
C83 C 1.01652 0.26477 0.62815 0.0
C84 C 0.9502 0.26856 0.58674 0.0
C85 C 0.94084 0.23766 0.65883 0.0
C86 C 0.97337 0.23583 0.67928 0.0
C87 C 1.02563 0.29607 0.55739 0.0
C88 C 0.99315 0.29808 0.53724 0.0
C89 C 0.05359 0.26076 0.642 0.0
O90 O 0.9995 0.23938 0.88887 0.0
O91 O 0.99987 0.28977 0.99694 0.0
O92 O 0.10793 0.33694 0.87048 0.0
O93 O 0.05951 0.34067 0.83072 0.0
O94 O 0.07344 0.24862 0.06052 0.0
O95 O 0.05237 0.31911 0.0746 0.0
O96 O 0.13756 0.26072 0.84271 0.0
O97 O 0.13937 0.2751 0.71001 0.0
O98 O 0.07989 0.19419 0.80316 0.0
O99 O 0.03742 0.20237 0.96218 0.0
C100 C 0.97749 0.26285 0.96647 0.0
O101 O 0.07079 0.29982 0.66322 0.0
O102 O 0.04917 0.22324 0.6885 0.0
C103 C 0.08762 0.36362 0.85204 0.0
C104 C 0.10263 0.31057 0.11642 0.0
C105 C 0.18758 0.32504 0.09 0.0
C106 C 0.17969 0.35307 0.03812 0.0
C107 C 0.1374 0.34573 0.05105 0.0
C108 C 0.10849 0.28756 0.17721 0.0
C109 C 0.15093 0.29487 0.1642 0.0
C110 C 0.06624 0.28958 0.10521 0.0
C111 C 0.16014 0.26765 0.74973 0.0
H112 H 0.90864 0.21392 0.69852 0.0
H113 H 0.9649 0.21111 0.73426 0.0
H114 H 0.05841 0.31878 0.51635 0.0
H115 H 1.00188 0.32313 0.48258 0.0
H116 H 0.20749 0.37684 0.98112 0.0
H117 H 0.13353 0.36391 1.00352 0.0
H118 H 0.08194 0.2603 0.22793 0.0
H119 H 0.15637 0.27283 0.20491 0.0
Tb120 Tb 0.56013 0.76309 0.78576 0.0
Tb121 Tb 0.56447 0.78393 0.96655 0.0
C122 C 0.56535 0.67761 0.89278 0.0
C123 C 0.49906 0.76077 0.65876 0.0
C124 C 0.43395 0.75816 0.61172 0.0
C125 C 0.4637 0.7228 0.57868 0.0
C126 C 0.49579 0.72423 0.60148 0.0
C127 C 0.46876 0.79551 0.69305 0.0
C128 C 0.437 0.79428 0.66993 0.0
C129 C 0.53805 0.76753 0.67029 0.0
O130 O 0.4957 0.73483 0.91126 0.0
O131 O 0.49538 0.7916 1.0105 0.0
O132 O 0.54099 0.84588 0.95234 0.0
O133 O 0.58689 0.84034 0.79635 0.0
O134 O 0.54216 0.76594 0.10364 0.0
O135 O 0.59352 0.82786 0.0276 0.0
O136 O 0.63671 0.78749 0.83704 0.0
O137 O 0.63191 0.76244 0.71151 0.0
O138 O 0.57314 0.69215 0.81233 0.0
O139 O 0.55226 0.70627 0.96464 0.0
C140 C 0.47321 0.76137 0.98401 0.0
O141 O 0.53796 0.80238 0.72482 0.0
O142 O 0.55403 0.73027 0.67725 0.0
C143 C 0.56676 0.8678 0.87146 0.0
C144 C 0.60403 0.77931 0.11556 0.0
C145 C 0.66412 0.74051 0.13907 0.0
C146 C 0.63148 0.76762 0.21118 0.0
C147 C 0.60117 0.78667 0.19972 0.0
C148 C 0.63685 0.75259 0.04367 0.0
C149 C 0.66658 0.73328 0.05535 0.0
C150 C 0.57316 0.79861 0.10073 0.0
C151 C 0.65585 0.7752 0.74694 0.0
H152 H 0.46252 0.69406 0.53433 0.0
H153 H 0.51896 0.69738 0.572 0.0
H154 H 0.47063 0.82508 0.73528 0.0
H155 H 0.41575 0.82284 0.69557 0.0
H156 H 0.62967 0.77415 0.27566 0.0
H157 H 0.57594 0.80735 0.25573 0.0
H158 H 0.63982 0.74723 0.97782 0.0
H159 H 0.69246 0.71382 0.99773 0.0
C160 C 0.05556 0.44469 0.9088 0.0
C161 C 0.0896 0.41568 0.88107 0.0
C162 C 0.0553 0.49014 0.95212 0.0
C163 C 0.08854 0.50599 0.9721 0.0
C164 C 0.12322 0.4771 0.94238 0.0
C165 C 0.12418 0.43383 0.89485 0.0
C166 C 1.01891 0.52074 0.97818 0.0
C167 C 0.15847 0.49066 0.96443 0.0
C168 C 0.11839 0.63784 0.01989 0.0
C169 C 0.09001 0.64013 0.11858 0.0
C170 C 0.11674 0.59544 0.97171 0.0
C171 C 0.08796 0.55259 0.02319 0.0
C172 C 0.06128 0.55377 0.12338 0.0
C173 C 0.06152 0.59777 0.16961 0.0
C174 C 0.14434 0.59725 0.8654 0.0
C175 C 0.03184 0.50872 0.18189 0.0
H176 H 0.02859 0.43146 0.89914 0.0
H177 H 0.15146 0.41273 0.87217 0.0
H178 H 0.99412 0.52029 0.05583 0.0
H179 H 0.03431 0.559 0.95517 0.0
H180 H 0.99998 0.50734 0.94617 0.0
H181 H 0.18145 0.46273 0.94174 0.0
H182 H 0.17971 0.52555 0.92903 0.0
H183 H 0.14118 0.49562 0.04141 0.0
H184 H 0.14021 0.67036 0.97972 0.0
H185 H 0.03845 0.59937 0.24562 0.0
H186 H 0.12153 0.58553 0.84173 0.0
H187 H 0.16996 0.57185 0.83542 0.0
H188 H 0.16248 0.63415 0.83592 0.0
H189 H 1.00381 0.49767 0.17233 0.0
H190 H 1.01657 0.51431 0.25815 0.0
H191 H 0.05232 0.47834 0.15826 0.0
C192 C 0.55976 0.44335 0.14783 0.0
C193 C 0.59687 0.41782 0.08833 0.0
C194 C 0.55361 0.48414 0.11367 0.0
C195 C 0.58502 0.49978 0.01762 0.0
C196 C 0.62289 0.47459 0.95842 0.0
C197 C 0.62838 0.43463 0.99428 0.0
C198 C 0.51309 0.51018 0.18005 0.0
C199 C 0.65771 0.48958 0.85619 0.0
C200 C 0.554 0.58481 0.90141 0.0
C201 C 0.57556 0.63013 0.90674 0.0
C202 C 0.55668 0.54199 0.93688 0.0
C203 C 0.58086 0.54452 0.97994 0.0
C204 C 0.60348 0.59011 0.98285 0.0
C205 C 0.60076 0.6317 0.94609 0.0
C206 C 0.53274 0.49414 0.93038 0.0
C207 C 0.62977 0.59533 0.02724 0.0
H208 H 0.53471 0.43049 0.21987 0.0
H209 H 0.65733 0.41556 0.94704 0.0
H210 H 0.52494 0.54882 0.18415 0.0
H211 H 0.49166 0.50936 0.15276 0.0
H212 H 0.49163 0.49382 0.2522 0.0
H213 H 0.68427 0.46512 0.81818 0.0
H214 H 0.64049 0.48975 0.8198 0.0
H215 H 0.67486 0.52698 0.85114 0.0
H216 H 0.53357 0.58306 0.87339 0.0
H217 H 0.61731 0.66642 0.95127 0.0
H218 H 0.50589 0.47914 1.00224 0.0
H219 H 0.55736 0.46765 0.89336 0.0
H220 H 0.51669 0.49759 0.89252 0.0
H221 H 0.60662 0.58335 0.10229 0.0
H222 H 0.6456 0.63319 0.02371 0.0
H223 H 0.65717 0.57191 0.99143 0.0
C224 C 0.56134 0.95673 0.89155 0.0
C225 C 0.58588 0.91855 0.87557 0.0
C226 C 0.56772 1.00065 0.93157 0.0
C227 C 0.5977 1.00592 0.96114 0.0
C228 C 0.62401 0.9682 0.94123 0.0
C229 C 0.61833 0.92562 0.89748 0.0
C230 C 0.54029 0.04037 0.94712 0.0
C231 C 0.65533 0.97086 0.97339 0.0
C232 C 0.63072 0.1323 0.02673 0.0
C233 C 0.59593 0.1345 0.12325 0.0
C234 C 0.63225 0.09082 0.9735 0.0
C235 C 0.59916 0.04921 0.01803 0.0
C236 C 0.56593 0.04998 0.117 0.0
C237 C 0.56399 0.09282 0.1676 0.0
C238 C 0.66725 0.09306 0.86816 0.0
C239 C 0.53099 1.00617 0.16902 0.0
H240 H 0.53517 0.95121 0.87782 0.0
H241 H 0.63651 0.89586 0.88797 0.0
H242 H 0.51298 0.04229 0.02327 0.0
H243 H 0.56236 0.07607 0.92471 0.0
H244 H 0.52409 0.03408 0.90798 0.0
H245 H 0.6765 0.94091 0.94522 0.0
H246 H 0.67831 1.00591 0.95144 0.0
H247 H 0.63453 0.96871 0.05154 0.0
H248 H 0.65489 0.1644 0.9907 0.0
H249 H 0.53621 0.09438 0.24131 0.0
H250 H 0.64966 0.09293 0.83243 0.0
H251 H 0.68531 0.06079 0.84432 0.0
H252 H 0.69295 0.12617 0.84503 0.0
H253 H 0.50638 1.00075 0.14907 0.0
H254 H 0.51162 1.01007 0.24669 0.0
H255 H 0.54785 0.97309 0.14932 0.0
C256 C 0.09432 0.96728 0.12703 0.0
C257 C 0.07789 0.91996 0.11693 0.0
C258 C 0.09099 1.00769 0.08707 0.0
C259 C 0.07182 1.00066 0.03364 0.0
C260 C 0.05437 0.9529 0.02546 0.0
C261 C 0.05723 0.91365 0.06761 0.0
C262 C 0.10903 0.05788 0.09996 0.0
C263 C 0.03396 0.94288 0.96923 0.0
C264 C 1.0237 0.10457 1.00163 0.0
C265 C 0.05971 0.12483 0.9126 0.0
C266 C 0.0274 0.06483 0.04117 0.0
C267 C 0.06784 0.04302 0.99011 0.0
C268 C 0.10349 0.06128 0.89762 0.0
C269 C 0.09925 0.1022 0.8603 0.0
C270 C 0.98851 0.04756 0.13985 0.0
C271 C 0.14675 0.03849 0.83925 0.0
H272 H 0.11148 0.97255 0.16252 0.0
H273 H 0.04496 0.8772 0.05831 0.0
H274 H 0.13795 0.07389 0.03049 0.0
H275 H 0.08205 0.08172 0.13049 0.0
H276 H 0.12095 0.05778 0.14661 0.0
H277 H 1.02292 0.90361 0.96753 0.0
H278 H 1.00399 0.96231 0.99962 0.0
H279 H 0.05937 0.95661 0.89575 0.0
H280 H 0.99293 0.1216 0.04325 0.0
H281 H 0.12767 0.11783 0.79256 0.0
H282 H 1.00074 0.051 0.18632 0.0
H283 H 0.97596 1.00869 0.13989 0.0
H284 H 0.95935 0.06843 0.17059 0.0
H285 H 0.16535 0.04388 0.87342 0.0
H286 H 0.16977 0.0542 0.76662 0.0
H287 H 0.13844 0.99882 0.83509 0.0
C288 C 0.41287 0.74571 0.49289 0.0
C289 C 0.4009 0.75858 0.58394 0.0
C290 C 0.38308 0.74804 0.46498 0.0
C291 C 0.33964 0.76337 0.52933 0.0
C292 C 0.32703 0.77567 0.62172 0.0
C293 C 0.35759 0.77335 0.6475 0.0
C294 C 0.39849 0.73468 0.36571 0.0
C295 C 0.28119 0.79176 0.69365 0.0
C296 C 0.27957 0.81575 0.43506 0.0
C297 C 0.24663 0.77677 0.44708 0.0
C298 C 0.30998 0.81173 0.4605 0.0
C299 C 0.30791 0.76763 0.4996 0.0
C300 C 0.27508 0.72797 0.51108 0.0
C301 C 0.24518 0.73292 0.48465 0.0
C302 C 0.34431 0.85505 0.44596 0.0
C303 C 0.27107 0.68027 0.55268 0.0
H304 H 0.44622 0.73494 0.44208 0.0
H305 H 0.34725 0.78303 0.71827 0.0
H306 H 0.37349 0.7053 0.36716 0.0
H307 H 0.39989 0.76635 0.32858 0.0
H308 H 0.43269 0.72248 0.32449 0.0
H309 H 0.27594 0.7992 0.76298 0.0
H310 H 0.27813 0.82512 0.66778 0.0
H311 H 0.25336 0.76346 0.70391 0.0
H312 H 0.2819 0.84963 0.40489 0.0
H313 H 0.2198 0.70255 0.49563 0.0
H314 H 0.37943 0.84542 0.39981 0.0
H315 H 0.3386 0.86604 0.51452 0.0
H316 H 0.34221 0.88657 0.41372 0.0
H317 H 0.30443 0.66631 0.51092 0.0
H318 H 0.24482 0.65243 0.55485 0.0
H319 H 0.26196 0.6856 0.62546 0.0
C320 C 0.2351 0.23923 0.69646 0.0
C321 C 0.21111 0.26992 0.68522 0.0
C322 C 0.28266 0.23898 0.6287 0.0
C323 C 0.3072 0.27095 0.54871 0.0
C324 C 0.28317 0.30303 0.53927 0.0
C325 C 0.23575 0.30166 0.60641 0.0
C326 C 0.30636 0.2034 0.64117 0.0
C327 C 0.30756 0.339 0.45786 0.0
C328 C 0.43718 0.30324 0.41882 0.0
C329 C 0.45413 0.27689 0.33531 0.0
C330 C 0.38987 0.30168 0.48806 0.0
C331 C 0.35801 0.27191 0.47572 0.0
C332 C 0.3749 0.24498 0.39158 0.0
C333 C 0.42258 0.24833 0.32196 0.0
C334 C 0.37401 0.33264 0.57398 0.0
C335 C 0.34257 0.21201 0.37569 0.0
H336 H 0.21645 0.21421 0.75629 0.0
H337 H 0.21776 0.32587 0.5972 0.0
H338 H 0.31728 0.17626 0.5846 0.0
H339 H 0.33762 0.22213 0.63445 0.0
H340 H 0.28387 0.18406 0.71053 0.0
H341 H 0.28451 0.36307 0.46288 0.0
H342 H 0.33637 0.36184 0.45533 0.0
H343 H 0.32223 0.31952 0.39037 0.0
H344 H 0.46115 0.32567 0.42981 0.0
H345 H 0.43521 0.22736 0.25845 0.0
H346 H 0.35027 0.31018 0.63907 0.0
H347 H 0.3549 0.36026 0.57431 0.0
H348 H 0.40288 0.35153 0.57627 0.0
H349 H 0.32038 0.18564 0.43543 0.0
H350 H 0.3609 0.19173 0.30915 0.0
H351 H 0.3199 0.23349 0.3731 0.0
C352 C 0.93064 0.27757 0.46858 0.0
C353 C 0.91596 0.26981 0.56226 0.0
C354 C 0.89941 0.27967 0.44447 0.0
C355 C 0.85166 0.27391 0.51524 0.0
C356 C 0.83646 0.26554 0.60976 0.0
C357 C 0.86848 0.26349 0.63188 0.0
C358 C 0.9177 0.28814 0.34261 0.0
C359 C 0.78617 0.2593 0.68822 0.0
C360 C 0.77394 0.32507 0.46472 0.0
C361 C 0.75499 0.28361 0.4408 0.0
C362 C 0.8048 0.32237 0.48959 0.0
C363 C 0.81789 0.27712 0.49036 0.0
C364 C 0.79903 0.23513 0.46604 0.0
C365 C 0.76797 0.23882 0.44206 0.0
C366 C 0.82338 0.36819 0.51545 0.0
C367 C 0.81189 0.1861 0.46483 0.0
H368 H 0.96684 0.28143 0.41308 0.0
H369 H 0.8561 0.2577 0.70454 0.0
H370 H 0.90312 0.25785 0.31828 0.0
H371 H 0.9071 0.3218 0.33541 0.0
H372 H 0.95558 0.29137 0.29552 0.0
H373 H 0.77949 0.25041 0.75704 0.0
H374 H 0.77209 0.29318 0.69538 0.0
H375 H 0.76734 0.23004 0.67139 0.0
H376 H 0.76402 0.35987 0.46561 0.0
H377 H 0.75435 0.20646 0.42277 0.0
H378 H 0.86119 0.37453 0.46673 0.0
H379 H 0.81467 0.36432 0.58763 0.0
H380 H 0.80969 0.40049 0.51264 0.0
H381 H 0.84935 0.18681 0.4141 0.0
H382 H 0.7943 0.15683 0.44496 0.0
H383 H 0.80314 0.17717 0.53535 0.0
C384 C 0.92493 0.75099 0.41987 0.0
C385 C 0.94901 0.7773 0.33422 0.0
C386 C 0.87767 0.75103 0.48701 0.0
C387 C 0.85339 0.77912 0.47016 0.0
C388 C 0.87746 0.80576 0.38359 0.0
C389 C 0.92474 0.80404 0.31626 0.0
C390 C 0.85367 0.72067 0.57612 0.0
C391 C 0.85336 0.83672 0.36269 0.0
C392 C 0.72374 0.74418 0.60337 0.0
C393 C 0.70654 0.77577 0.68005 0.0
C394 C 0.77101 0.74499 0.53525 0.0
C395 C 0.80265 0.77895 0.54183 0.0
C396 C 0.78561 0.81112 0.61898 0.0
C397 C 0.7379 0.80874 0.68769 0.0
C398 C 0.78707 0.70889 0.45666 0.0
C399 C 0.81784 0.84855 0.62819 0.0
H400 H 0.94317 0.72993 0.43445 0.0
H401 H 0.94301 0.8249 0.25096 0.0
H402 H 0.83856 0.7442 0.63852 0.0
H403 H 0.82521 0.6948 0.58282 0.0
H404 H 0.87707 0.69984 0.57773 0.0
H405 H 0.87712 0.85728 0.2949 0.0
H406 H 0.82627 0.81364 0.35952 0.0
H407 H 0.83641 0.86279 0.42025 0.0
H408 H 0.69999 0.71821 0.59685 0.0
H409 H 0.72514 0.83363 0.74583 0.0
H410 H 0.808 0.68524 0.46055 0.0
H411 H 0.80915 0.72802 0.38723 0.0
H412 H 0.75823 0.68563 0.45981 0.0
H413 H 0.84063 0.8304 0.63654 0.0
H414 H 0.79943 0.87238 0.68933 0.0
H415 H 0.83993 0.8714 0.56302 0.0
C416 C 0.42469 0.80636 0.9676 0.0
C417 C 0.42794 0.76796 1.00997 0.0
C418 C 0.38567 0.80713 0.96843 0.0
C419 C 0.34873 0.76901 0.0144 0.0
C420 C 0.35141 0.73084 0.05989 0.0
C421 C 0.39154 0.73026 0.0553 0.0
C422 C 0.38404 0.84861 0.91964 0.0
C423 C 0.31196 0.69076 0.11329 0.0
C424 C 0.2347 0.80588 0.10373 0.0
C425 C 0.22544 0.78513 0.03867 0.0
C426 C 0.27378 0.79943 0.0978 0.0
C427 C 0.3056 0.77229 0.02359 0.0
C428 C 0.29691 0.75084 0.95735 0.0
C429 C 0.25649 0.75713 0.96617 0.0
C430 C 0.28104 0.82204 0.17123 0.0
C431 C 0.3303 0.72144 0.87748 0.0
H432 H 0.45374 0.83451 0.92944 0.0
H433 H 0.39492 0.69987 0.08533 0.0
H434 H 0.37405 0.83447 0.87148 0.0
H435 H 0.35777 0.87084 0.9726 0.0
H436 H 0.41732 0.87256 0.87873 0.0
H437 H 0.31934 0.66411 0.1457 0.0
H438 H 0.28098 0.70629 0.16985 0.0
H439 H 0.30387 0.67138 0.06529 0.0
H440 H 0.21095 0.8271 0.16131 0.0
H441 H 0.24946 0.74062 0.91636 0.0
H442 H 0.31222 0.84928 0.13753 0.0
H443 H 0.28626 0.79394 0.20492 0.0
H444 H 0.25182 0.84025 0.22703 0.0
H445 H 0.36506 0.74243 0.83841 0.0
H446 H 0.32059 0.71052 0.82761 0.0
H447 H 0.33197 0.68823 0.90609 0.0
C448 C 0.24968 0.31871 0.11089 0.0
C449 C 0.23458 0.31769 0.05216 0.0
C450 C 0.29194 0.30434 0.07732 0.0
C451 C 0.31873 0.28756 0.9839 0.0
C452 C 0.30386 0.28725 0.92405 0.0
C453 C 0.26211 0.30287 0.9587 0.0
C454 C 0.30729 0.30571 0.14249 0.0
C455 C 0.33116 0.26892 0.8246 0.0
C456 C 0.44313 0.28369 0.87928 0.0
C457 C 0.44206 0.23564 0.89971 0.0
C458 C 0.40332 0.30085 0.90418 0.0
C459 C 0.36171 0.26897 0.94976 0.0
C460 C 0.36084 0.21972 0.96591 0.0
C461 C 0.40115 0.20366 0.94122 0.0
C462 C 0.40534 0.35366 0.88656 0.0
C463 C 0.31705 0.18454 0.01244 0.0
H464 H 0.22802 0.32981 0.18332 0.0
H465 H 0.24983 0.30108 0.91398 0.0
H466 H 0.30914 0.26834 0.15647 0.0
H467 H 0.34207 0.32642 0.10873 0.0
H468 H 0.28379 0.32247 0.21093 0.0
H469 H 0.31241 0.26682 0.79094 0.0
H470 H 0.36388 0.29336 0.78118 0.0
H471 H 0.33964 0.23235 0.82414 0.0
H472 H 0.47462 0.30874 0.84893 0.0
H473 H 0.40048 0.16656 0.95698 0.0
H474 H 0.38515 0.37194 0.9549 0.0
H475 H 0.3899 0.35719 0.84761 0.0
H476 H 0.44088 0.37297 0.84577 0.0
H477 H 0.29288 0.19545 0.08606 0.0
H478 H 0.32288 0.14679 0.01359 0.0
H479 H 0.30039 0.18527 0.97501 0.0
C480 C 0.77158 0.29077 0.94896 0.0
C481 C 0.72836 0.27094 0.02472 0.0
C482 C 0.81042 0.28936 0.949 0.0
C483 C 0.80532 0.26845 0.02743 0.0
C484 C 0.76168 0.24782 0.10326 0.0
C485 C 0.72379 0.24921 0.10076 0.0
C486 C 0.8567 0.31111 0.86636 0.0
C487 C 0.75487 0.22539 0.18808 0.0
C488 C 0.9073 0.22095 0.98639 0.0
C489 C 0.92835 0.26105 1.00833 0.0
C490 C 0.86729 0.223 0.99263 0.0
C491 C 0.84594 0.2651 0.02762 0.0
C492 C 0.86399 0.30366 0.06044 0.0
C493 C 0.90577 0.3016 0.04875 0.0
C494 C 0.85 0.18155 0.95472 0.0
C495 C 0.8408 0.3482 0.10248 0.0
H496 H 0.77473 0.30901 0.8919 0.0
H497 H 0.69007 0.23549 0.161 0.0
H498 H 0.87138 0.34149 0.89027 0.0
H499 H 0.8804 0.2836 0.83636 0.0
H500 H 0.85506 0.32494 0.80998 0.0
H501 H 0.71825 0.21384 0.24391 0.0
H502 H 0.77295 0.19323 0.16691 0.0
H503 H 0.76983 0.25157 0.21787 0.0
H504 H 0.92433 0.18909 0.95646 0.0
H505 H 0.92193 0.33268 0.06554 0.0
H506 H 0.85218 0.19455 0.89297 0.0
H507 H 0.81361 0.16801 1.00848 0.0
H508 H 0.86996 0.15076 0.93242 0.0
H509 H 0.84874 0.37215 0.04503 0.0
H510 H 0.85264 0.36898 0.14359 0.0
H511 H 0.80313 0.33838 0.14907 0.0
C512 C 0.90592 0.69254 0.92001 0.0
C513 C 0.92082 0.68474 0.9765 0.0
C514 C 0.85962 0.69374 0.95983 0.0
C515 C 0.82746 0.6859 0.05822 0.0
C516 C 0.84169 0.67352 0.11421 0.0
C517 C 0.88836 0.67346 0.07278 0.0
C518 C 0.84573 0.70716 0.89766 0.0
C519 C 0.8081 0.66366 0.21884 0.0
C520 C 0.72991 0.75739 0.15166 0.0
C521 C 0.69907 0.72346 0.14477 0.0
C522 C 0.77082 0.74457 0.1302 0.0
C523 C 0.78035 0.69651 0.10282 0.0
C524 C 0.74704 0.66098 0.10546 0.0
C525 C 0.70681 0.67507 0.12547 0.0
C526 C 0.80562 0.78359 0.12787 0.0
C527 C 0.75539 0.60913 0.07951 0.0
H528 H 0.93079 0.70032 0.84534 0.0
H529 H 0.89954 0.66775 0.11729 0.0
H530 H 0.81714 0.68043 0.90714 0.0
H531 H 0.83351 0.74304 0.91808 0.0
H532 H 0.87442 0.70906 0.82181 0.0
H533 H 0.82364 0.64849 0.24988 0.0
H534 H 0.79567 0.69784 0.25503 0.0
H535 H 0.7779 0.638 0.23331 0.0
H536 H 0.72387 0.79486 0.16592 0.0
H537 H 0.68259 0.6489 0.12072 0.0
H538 H 0.83503 0.79159 0.05366 0.0
H539 H 0.81896 0.77119 0.1658 0.0
H540 H 0.79119 0.81772 0.15982 0.0
H541 H 0.77862 0.60668 1.00178 0.0
H542 H 0.72312 0.58448 0.10388 0.0
H543 H 0.7721 0.59632 0.11007 0.0
loop_
_geom_bond_atom_site_label_1
_geom_bond_atom_site_label_2
_geom_bond_distance
_geom_bond_site_symmetry_2
_ccdc_geom_bond_type
Tb0 C9 2.769 . S
Tb0 O10 2.325 1_455 S
Tb0 O13 2.303 . S
Tb0 O17 2.322 . S
Tb0 O18 2.349 . S
Tb0 O21 2.415 . S
Tb0 O22 2.399 . S
Tb1 O11 2.322 1_455 S
Tb1 O12 2.349 . S
Tb1 O14 2.415 . S
Tb1 O15 2.399 . S
Tb1 O16 2.325 . S
Tb1 O19 2.303 . S
Tb1 C30 2.764 . S
C2 O18 1.261 . S
C2 O19 1.257 . S
C3 C6 1.358 . S
C3 C7 1.332 1_556 S
C3 C9 1.499 1_656 S
C4 C5 1.373 . S
C4 C8 1.308 . S
C5 C4 1.373 . S
C5 C6 1.429 . S
C5 H32 0.932 . S
C6 C3 1.358 . S
C6 C5 1.429 . S
C6 H33 0.930 . S
C7 C3 1.332 1_554 S
C7 C8 1.394 1_554 S
C7 H34 0.932 . S
C8 C4 1.308 . S
C8 C7 1.394 1_556 S
C8 H35 0.929 . S
C9 Tb0 2.769 . S
C9 C3 1.499 1_454 S
C9 O21 1.241 . S
C9 O22 1.265 . S
O10 Tb0 2.325 1_655 S
O10 C20 1.236 . S
O11 Tb1 2.322 1_655 S
O11 C20 1.257 . S
O12 Tb1 2.349 . S
O12 C23 1.261 . S
O13 Tb0 2.303 . S
O13 C23 1.257 . S
O14 Tb1 2.415 . S
O14 C30 1.239 . S
O15 Tb1 2.399 . S
O15 C30 1.263 . S
O16 Tb1 2.325 . S
O16 C31 1.236 . S
O17 Tb0 2.322 . S
O17 C31 1.257 . S
O18 Tb0 2.349 . S
O18 C2 1.261 . S
O19 Tb1 2.303 . S
O19 C2 1.257 . S
C20 O10 1.236 . S
C20 O11 1.257 . S
O21 Tb0 2.415 . S
O21 C9 1.241 . S
O22 Tb0 2.399 . S
O22 C9 1.265 . S
C23 O12 1.261 . S
C23 O13 1.257 . S
C24 C27 1.358 . S
C24 C28 1.332 . S
C24 C30 1.504 . S
C25 C26 1.373 . S
C25 C29 1.308 . S
C26 C25 1.373 . S
C26 C27 1.429 . S
C26 H36 0.932 . S
C27 C24 1.358 . S
C27 C26 1.429 . S
C27 H37 0.930 . S
C28 C24 1.332 . S
C28 C29 1.394 . S
C28 H38 0.932 . S
C29 C25 1.308 . S
C29 C28 1.394 . S
C29 H39 0.929 . S
C30 Tb1 2.764 . S
C30 O14 1.239 . S
C30 O15 1.263 . S
C30 C24 1.504 . S
C31 O16 1.236 . S
C31 O17 1.257 . S
H32 C5 0.932 . S
H33 C6 0.930 . S
H34 C7 0.932 . S
H35 C8 0.929 . S
H36 C26 0.932 . S
H37 C27 0.930 . S
H38 C28 0.932 . S
H39 C29 0.929 . S
Tb40 C49 2.764 . S
Tb40 O50 2.325 . S
Tb40 O53 2.303 . S
Tb40 O57 2.322 . S
Tb40 O58 2.349 . S
Tb40 O61 2.415 . S
Tb40 O62 2.399 . S
Tb41 O51 2.322 . S
Tb41 O52 2.349 . S
Tb41 O54 2.415 . S
Tb41 O55 2.399 . S
Tb41 O56 2.325 . S
Tb41 O59 2.303 . S
Tb41 C70 2.764 . S
C42 O58 1.261 . S
C42 O59 1.257 . S
C43 C46 1.358 . S
C43 C47 1.332 1_556 S
C43 C49 1.504 1_556 S
C44 C45 1.373 . S
C44 C48 1.308 . S
C45 C44 1.373 . S
C45 C46 1.429 . S
C45 H72 0.932 . S
C46 C43 1.358 . S
C46 C45 1.429 . S
C46 H73 0.930 . S
C47 C43 1.332 1_554 S
C47 C48 1.394 1_554 S
C47 H74 0.932 . S
C48 C44 1.308 . S
C48 C47 1.394 1_556 S
C48 H75 0.929 . S
C49 Tb40 2.764 . S
C49 C43 1.504 1_554 S
C49 O61 1.239 . S
C49 O62 1.263 . S
O50 Tb40 2.325 . S
O50 C60 1.236 . S
O51 Tb41 2.322 . S
O51 C60 1.257 . S
O52 Tb41 2.349 . S
O52 C63 1.261 . S
O53 Tb40 2.303 . S
O53 C63 1.257 . S
O54 Tb41 2.415 . S
O54 C70 1.239 . S
O55 Tb41 2.399 . S
O55 C70 1.263 . S
O56 Tb41 2.325 . S
O56 C71 1.236 . S
O57 Tb40 2.322 . S
O57 C71 1.257 . S
O58 Tb40 2.349 . S
O58 C42 1.261 . S
O59 Tb41 2.303 . S
O59 C42 1.257 . S
C60 O50 1.236 . S
C60 O51 1.257 . S
O61 Tb40 2.415 . S
O61 C49 1.239 . S
O62 Tb40 2.399 . S
O62 C49 1.263 . S
C63 O52 1.261 . S
C63 O53 1.257 . S
C64 C67 1.358 . S
C64 C68 1.332 . S
C64 C70 1.504 . S
C65 C66 1.373 . S
C65 C69 1.308 . S
C66 C65 1.373 . S
C66 C67 1.429 . S
C66 H76 0.932 . S
C67 C64 1.358 . S
C67 C66 1.429 . S
C67 H77 0.930 . S
C68 C64 1.332 . S
C68 C69 1.394 . S
C68 H78 0.932 . S
C69 C65 1.308 . S
C69 C68 1.394 . S
C69 H79 0.929 . S
C70 Tb41 2.764 . S
C70 O54 1.239 . S
C70 O55 1.263 . S
C70 C64 1.504 . S
C71 O56 1.236 . S
C71 O57 1.257 . S
H72 C45 0.932 . S
H73 C46 0.930 . S
H74 C47 0.932 . S
H75 C48 0.929 . S
H76 C66 0.932 . S
H77 C67 0.930 . S
H78 C68 0.932 . S
H79 C69 0.929 . S
Tb80 C89 2.764 1_455 S
Tb80 O90 2.325 1_455 S
Tb80 O93 2.303 . S
Tb80 O97 2.322 . S
Tb80 O98 2.349 . S
Tb80 O101 2.415 . S
Tb80 O102 2.415 . S
Tb81 O91 2.322 1_455 S
Tb81 O92 2.349 . S
Tb81 O94 2.415 . S
Tb81 O95 2.399 . S
Tb81 O96 2.325 . S
Tb81 O99 2.303 . S
Tb81 C110 2.764 . S
C82 O98 1.261 . S
C82 O99 1.257 . S
C83 C86 1.358 . S
C83 C87 1.332 . S
C83 C89 1.504 . S
C84 C85 1.373 . S
C84 C88 1.308 . S
C85 C84 1.373 . S
C85 C86 1.429 . S
C85 H112 0.932 . S
C86 C83 1.358 . S
C86 C85 1.429 . S
C86 H113 0.930 . S
C87 C83 1.332 . S
C87 C88 1.394 . S
C87 H114 0.932 . S
C88 C84 1.308 . S
C88 C87 1.394 . S
C88 H115 0.929 . S
C89 Tb80 2.764 1_655 S
C89 C83 1.504 . S
C89 O101 1.239 1_655 S
C89 O102 1.254 1_655 S
O90 Tb80 2.325 1_655 S
O90 C100 1.236 . S
O91 Tb81 2.322 1_655 S
O91 C100 1.257 . S
O92 Tb81 2.349 . S
O92 C103 1.261 . S
O93 Tb80 2.303 . S
O93 C103 1.257 . S
O94 Tb81 2.415 . S
O94 C110 1.239 . S
O95 Tb81 2.399 . S
O95 C110 1.263 . S
O96 Tb81 2.325 . S
O96 C111 1.236 . S
O97 Tb80 2.322 . S
O97 C111 1.257 . S
O98 Tb80 2.349 . S
O98 C82 1.261 . S
O99 Tb81 2.303 . S
O99 C82 1.257 . S
C100 O90 1.236 . S
C100 O91 1.257 . S
O101 Tb80 2.415 . S
O101 C89 1.239 1_455 S
O102 Tb80 2.415 . S
O102 C89 1.254 1_455 S
C103 O92 1.261 . S
C103 O93 1.257 . S
C104 C107 1.358 . S
C104 C108 1.332 1_554 S
C104 C110 1.504 1_554 S
C105 C106 1.373 . S
C105 C109 1.308 . S
C106 C105 1.373 . S
C106 C107 1.429 . S
C106 H116 0.932 . S
C107 C104 1.358 . S
C107 C106 1.429 . S
C107 H117 0.930 . S
C108 C104 1.332 1_556 S
C108 C109 1.394 1_556 S
C108 H118 0.932 . S
C109 C105 1.308 . S
C109 C108 1.394 1_554 S
C109 H119 0.929 . S
C110 Tb81 2.764 . S
C110 O94 1.239 . S
C110 O95 1.263 . S
C110 C104 1.504 1_556 S
C111 O96 1.236 . S
C111 O97 1.257 . S
H112 C85 0.932 . S
H113 C86 0.930 . S
H114 C87 0.932 . S
H115 C88 0.929 . S
H116 C106 0.932 . S
H117 C107 0.930 . S
H118 C108 0.932 . S
H119 C109 0.929 . S
Tb120 C129 2.764 . S
Tb120 O130 2.325 . S
Tb120 O133 2.303 . S
Tb120 O137 2.322 . S
Tb120 O138 2.349 . S
Tb120 O141 2.415 . S
Tb120 O142 2.399 . S
Tb121 O131 2.322 . S
Tb121 O132 2.349 . S
Tb121 O134 2.415 . S
Tb121 O135 2.399 . S
Tb121 O136 2.325 . S
Tb121 O139 2.303 . S
Tb121 C150 2.764 . S
C122 O138 1.261 . S
C122 O139 1.257 . S
C123 C126 1.358 . S
C123 C127 1.332 . S
C123 C129 1.504 . S
C124 C125 1.373 . S
C124 C128 1.308 . S
C125 C124 1.373 . S
C125 C126 1.429 . S
C125 H152 0.932 . S
C126 C123 1.358 . S
C126 C125 1.429 . S
C126 H153 0.930 . S
C127 C123 1.332 . S
C127 C128 1.394 . S
C127 H154 0.932 . S
C128 C124 1.308 . S
C128 C127 1.394 . S
C128 H155 0.929 . S
C129 Tb120 2.764 . S
C129 C123 1.504 . S
C129 O141 1.239 . S
C129 O142 1.263 . S
O130 Tb120 2.325 . S
O130 C140 1.236 . S
O131 Tb121 2.322 . S
O131 C140 1.257 . S
O132 Tb121 2.349 . S
O132 C143 1.261 . S
O133 Tb120 2.303 . S
O133 C143 1.257 . S
O134 Tb121 2.415 . S
O134 C150 1.239 . S
O135 Tb121 2.399 . S
O135 C150 1.263 . S
O136 Tb121 2.325 . S
O136 C151 1.236 . S
O137 Tb120 2.322 . S
O137 C151 1.257 . S
O138 Tb120 2.349 . S
O138 C122 1.261 . S
O139 Tb121 2.303 . S
O139 C122 1.257 . S
C140 O130 1.236 . S
C140 O131 1.257 . S
O141 Tb120 2.415 . S
O141 C129 1.239 . S
O142 Tb120 2.399 . S
O142 C129 1.263 . S
C143 O132 1.261 . S
C143 O133 1.257 . S
C144 C147 1.358 . S
C144 C148 1.332 1_554 S
C144 C150 1.504 1_554 S
C145 C146 1.373 . S
C145 C149 1.308 . S
C146 C145 1.373 . S
C146 C147 1.429 . S
C146 H156 0.932 . S
C147 C144 1.358 . S
C147 C146 1.429 . S
C147 H157 0.930 . S
C148 C144 1.332 1_556 S
C148 C149 1.394 1_556 S
C148 H158 0.932 . S
C149 C145 1.308 . S
C149 C148 1.394 1_554 S
C149 H159 0.929 . S
C150 Tb121 2.764 . S
C150 O134 1.239 . S
C150 O135 1.263 . S
C150 C144 1.504 1_556 S
C151 O136 1.236 . S
C151 O137 1.257 . S
H152 C125 0.932 . S
H153 C126 0.930 . S
H154 C127 0.932 . S
H155 C128 0.929 . S
H156 C146 0.932 . S
H157 C147 0.930 . S
H158 C148 0.932 . S
H159 C149 0.929 . S
C160 C161 1.391 . S
C160 C162 1.394 1_556 S
C160 H176 0.931 1_455 S
C161 C160 1.391 . S
C161 C165 1.376 . S
C162 C160 1.394 1_554 S
C162 C163 1.369 1_554 S
C162 C166 1.531 1_455 S
C163 C162 1.369 1_556 S
C163 C164 1.410 . S
C163 C171 1.503 1_556 S
C164 C163 1.410 . S
C164 C165 1.392 . S
C164 C167 1.511 . S
C165 C161 1.376 . S
C165 C164 1.392 . S
C165 H177 0.929 . S
C166 C162 1.531 1_655 S
C166 H178 0.960 . S
C166 H179 0.962 . S
C166 H180 0.960 . S
C167 C164 1.511 . S
C167 H181 0.961 . S
C167 H182 0.961 . S
C167 H183 0.961 . S
C168 C169 1.370 . S
C168 C170 1.363 . S
C168 H184 0.931 . S
C169 C168 1.370 . S
C169 C173 1.408 . S
C170 C168 1.363 . S
C170 C171 1.370 . S
C170 C174 1.524 1_554 S
C171 C163 1.503 1_554 S
C171 C170 1.370 . S
C171 C172 1.403 . S
C172 C171 1.403 . S
C172 C173 1.404 . S
C172 C175 1.539 . S
C173 C169 1.408 . S
C173 C172 1.404 . S
C173 H185 0.930 . S
C174 C170 1.524 1_556 S
C174 H186 0.956 . S
C174 H187 0.961 . S
C174 H188 0.961 . S
C175 C172 1.539 . S
C175 H189 0.958 . S
C175 H190 0.961 . S
C175 H191 0.960 . S
H176 C160 0.931 1_655 S
H177 C165 0.929 . S
H178 C166 0.960 . S
H179 C166 0.962 . S
H180 C166 0.960 . S
H181 C167 0.961 . S
H182 C167 0.961 . S
H183 C167 0.961 . S
H184 C168 0.931 . S
H185 C173 0.930 . S
H186 C174 0.956 . S
H187 C174 0.961 . S
H188 C174 0.961 . S
H189 C175 0.958 . S
H190 C175 0.961 . S
H191 C175 0.960 . S
C192 C193 1.391 . S
C192 C194 1.394 . S
C192 H208 0.931 . S
C193 C192 1.391 . S
C193 C197 1.376 . S
C194 C192 1.394 . S
C194 C195 1.369 . S
C194 C198 1.531 . S
C195 C194 1.369 . S
C195 C196 1.410 1_554 S
C195 C203 1.503 1_554 S
C196 C195 1.410 1_556 S
C196 C197 1.392 1_556 S
C196 C199 1.511 . S
C197 C193 1.376 . S
C197 C196 1.392 1_554 S
C197 H209 0.929 . S
C198 C194 1.531 . S
C198 H210 0.960 . S
C198 H211 0.962 . S
C198 H212 0.960 . S
C199 C196 1.511 . S
C199 H213 0.961 . S
C199 H214 0.961 . S
C199 H215 0.961 . S
C200 C201 1.370 . S
C200 C202 1.363 . S
C200 H216 0.931 . S
C201 C200 1.370 . S
C201 C205 1.408 . S
C202 C200 1.363 . S
C202 C203 1.370 . S
C202 C206 1.524 . S
C203 C195 1.503 1_556 S
C203 C202 1.370 . S
C203 C204 1.403 . S
C204 C203 1.403 . S
C204 C205 1.404 . S
C204 C207 1.539 1_556 S
C205 C201 1.408 . S
C205 C204 1.404 . S
C205 H217 0.930 . S
C206 C202 1.524 . S
C206 H218 0.956 . S
C206 H219 0.961 . S
C206 H220 0.961 . S
C207 C204 1.539 1_554 S
C207 H221 0.958 . S
C207 H222 0.961 . S
C207 H223 0.960 . S
H208 C192 0.931 . S
H209 C197 0.929 . S
H210 C198 0.960 . S
H211 C198 0.962 . S
H212 C198 0.960 . S
H213 C199 0.961 . S
H214 C199 0.961 . S
H215 C199 0.961 . S
H216 C200 0.931 . S
H217 C205 0.930 . S
H218 C206 0.956 . S
H219 C206 0.961 . S
H220 C206 0.961 . S
H221 C207 0.958 . S
H222 C207 0.961 . S
H223 C207 0.960 . S
C224 C225 1.391 . S
C224 C226 1.394 . S
C224 H240 0.931 . S
C225 C224 1.391 . S
C225 C229 1.376 . S
C226 C224 1.394 . S
C226 C227 1.369 . S
C226 C230 1.531 1_565 S
C227 C226 1.369 . S
C227 C228 1.410 . S
C227 C235 1.503 1_566 S
C228 C227 1.410 . S
C228 C229 1.392 . S
C228 C231 1.511 1_556 S
C229 C225 1.376 . S
C229 C228 1.392 . S
C229 H241 0.929 . S
C230 C226 1.531 1_545 S
C230 H242 0.960 . S
C230 H243 0.962 . S
C230 H244 0.960 . S
C231 C228 1.511 1_554 S
C231 H245 0.961 . S
C231 H246 0.961 . S
C231 H247 0.961 . S
C232 C233 1.370 . S
C232 C234 1.363 1_554 S
C232 H248 0.931 . S
C233 C232 1.370 . S
C233 C237 1.408 . S
C234 C232 1.363 1_556 S
C234 C235 1.370 1_556 S
C234 C238 1.524 . S
C235 C227 1.503 1_544 S
C235 C234 1.370 1_554 S
C235 C236 1.403 . S
C236 C235 1.403 . S
C236 C237 1.404 . S
C236 C239 1.539 1_545 S
C237 C233 1.408 . S
C237 C236 1.404 . S
C237 H249 0.930 . S
C238 C234 1.524 . S
C238 H250 0.956 . S
C238 H251 0.961 . S
C238 H252 0.961 . S
C239 C236 1.539 1_565 S
C239 H253 0.958 1_565 S
C239 H254 0.961 . S
C239 H255 0.960 . S
H240 C224 0.931 . S
H241 C229 0.929 . S
H242 C230 0.960 . S
H243 C230 0.962 . S
H244 C230 0.960 . S
H245 C231 0.961 . S
H246 C231 0.961 . S
H247 C231 0.961 . S
H248 C232 0.931 . S
H249 C237 0.930 . S
H250 C238 0.956 . S
H251 C238 0.961 . S
H252 C238 0.961 . S
H253 C239 0.958 1_545 S
H254 C239 0.961 . S
H255 C239 0.960 . S
C256 C257 1.391 . S
C256 C258 1.394 . S
C256 H272 0.931 . S
C257 C256 1.391 . S
C257 C261 1.376 . S
C258 C256 1.394 . S
C258 C259 1.369 . S
C258 C262 1.531 1_565 S
C259 C258 1.369 . S
C259 C260 1.410 1_554 S
C259 C267 1.503 1_564 S
C260 C259 1.410 1_556 S
C260 C261 1.392 1_556 S
C260 C263 1.511 . S
C261 C257 1.376 . S
C261 C260 1.392 1_554 S
C261 H273 0.929 . S
C262 C258 1.531 1_545 S
C262 H274 0.960 . S
C262 H275 0.962 . S
C262 H276 0.960 . S
C263 C260 1.511 . S
C263 H277 0.961 . S
C263 H278 0.961 . S
C263 H279 0.961 . S
C264 C265 1.370 . S
C264 C266 1.363 1_556 S
C264 H280 0.931 1_456 S
C265 C264 1.370 . S
C265 C269 1.408 . S
C266 C264 1.363 1_554 S
C266 C267 1.370 1_554 S
C266 C270 1.524 1_455 S
C267 C259 1.503 1_546 S
C267 C266 1.370 1_556 S
C267 C268 1.403 . S
C268 C267 1.403 . S
C268 C269 1.404 . S
C268 C271 1.539 . S
C269 C265 1.408 . S
C269 C268 1.404 . S
C269 H281 0.930 . S
C270 C266 1.524 1_655 S
C270 H282 0.956 . S
C270 H283 0.961 1_545 S
C270 H284 0.961 . S
C271 C268 1.539 . S
C271 H285 0.958 . S
C271 H286 0.961 . S
C271 H287 0.960 1_545 S
H272 C256 0.931 . S
H273 C261 0.929 . S
H274 C262 0.960 . S
H275 C262 0.962 . S
H276 C262 0.960 . S
H277 C263 0.961 . S
H278 C263 0.961 . S
H279 C263 0.961 . S
H280 C264 0.931 1_654 S
H281 C269 0.930 . S
H282 C270 0.956 . S
H283 C270 0.961 1_565 S
H284 C270 0.961 . S
H285 C271 0.958 . S
H286 C271 0.961 . S
H287 C271 0.960 1_565 S
C288 C289 1.391 . S
C288 C290 1.394 . S
C288 H304 0.931 . S
C289 C288 1.391 . S
C289 C293 1.376 . S
C290 C288 1.394 . S
C290 C291 1.369 . S
C290 C294 1.531 . S
C291 C290 1.369 . S
C291 C292 1.410 . S
C291 C299 1.503 . S
C292 C291 1.410 . S
C292 C293 1.392 . S
C292 C295 1.511 . S
C293 C289 1.376 . S
C293 C292 1.392 . S
C293 H305 0.929 . S
C294 C290 1.531 . S
C294 H306 0.960 . S
C294 H307 0.962 . S
C294 H308 0.960 . S
C295 C292 1.511 . S
C295 H309 0.961 . S
C295 H310 0.961 . S
C295 H311 0.961 . S
C296 C297 1.370 . S
C296 C298 1.363 . S
C296 H312 0.931 . S
C297 C296 1.370 . S
C297 C301 1.408 . S
C298 C296 1.363 . S
C298 C299 1.370 . S
C298 C302 1.524 . S
C299 C291 1.503 . S
C299 C298 1.370 . S
C299 C300 1.403 . S
C300 C299 1.403 . S
C300 C301 1.404 . S
C300 C303 1.539 . S
C301 C297 1.408 . S
C301 C300 1.404 . S
C301 H313 0.930 . S
C302 C298 1.524 . S
C302 H314 0.956 . S
C302 H315 0.961 . S
C302 H316 0.961 . S
C303 C300 1.539 . S
C303 H317 0.958 . S
C303 H318 0.961 . S
C303 H319 0.960 . S
H304 C288 0.931 . S
H305 C293 0.929 . S
H306 C294 0.960 . S
H307 C294 0.962 . S
H308 C294 0.960 . S
H309 C295 0.961 . S
H310 C295 0.961 . S
H311 C295 0.961 . S
H312 C296 0.931 . S
H313 C301 0.930 . S
H314 C302 0.956 . S
H315 C302 0.961 . S
H316 C302 0.961 . S
H317 C303 0.958 . S
H318 C303 0.961 . S
H319 C303 0.960 . S
C320 C321 1.391 . S
C320 C322 1.394 . S
C320 H336 0.931 . S
C321 C320 1.391 . S
C321 C325 1.376 . S
C322 C320 1.394 . S
C322 C323 1.369 . S
C322 C326 1.531 . S
C323 C322 1.369 . S
C323 C324 1.410 . S
C323 C331 1.503 . S
C324 C323 1.410 . S
C324 C325 1.392 . S
C324 C327 1.511 . S
C325 C321 1.376 . S
C325 C324 1.392 . S
C325 H337 0.929 . S
C326 C322 1.531 . S
C326 H338 0.960 . S
C326 H339 0.962 . S
C326 H340 0.960 . S
C327 C324 1.511 . S
C327 H341 0.961 . S
C327 H342 0.961 . S
C327 H343 0.961 . S
C328 C329 1.370 . S
C328 C330 1.363 . S
C328 H344 0.931 . S
C329 C328 1.370 . S
C329 C333 1.408 . S
C330 C328 1.363 . S
C330 C331 1.370 . S
C330 C334 1.524 . S
C331 C323 1.503 . S
C331 C330 1.370 . S
C331 C332 1.403 . S
C332 C331 1.403 . S
C332 C333 1.404 . S
C332 C335 1.539 . S
C333 C329 1.408 . S
C333 C332 1.404 . S
C333 H345 0.930 . S
C334 C330 1.524 . S
C334 H346 0.956 . S
C334 H347 0.961 . S
C334 H348 0.961 . S
C335 C332 1.539 . S
C335 H349 0.958 . S
C335 H350 0.961 . S
C335 H351 0.960 . S
H336 C320 0.931 . S
H337 C325 0.929 . S
H338 C326 0.960 . S
H339 C326 0.962 . S
H340 C326 0.960 . S
H341 C327 0.961 . S
H342 C327 0.961 . S
H343 C327 0.961 . S
H344 C328 0.931 . S
H345 C333 0.930 . S
H346 C334 0.956 . S
H347 C334 0.961 . S
H348 C334 0.961 . S
H349 C335 0.958 . S
H350 C335 0.961 . S
H351 C335 0.960 . S
C352 C353 1.391 . S
C352 C354 1.394 . S
C352 H368 0.931 . S
C353 C352 1.391 . S
C353 C357 1.376 . S
C354 C352 1.394 . S
C354 C355 1.369 . S
C354 C358 1.531 . S
C355 C354 1.369 . S
C355 C356 1.410 . S
C355 C363 1.503 . S
C356 C355 1.410 . S
C356 C357 1.392 . S
C356 C359 1.511 . S
C357 C353 1.376 . S
C357 C356 1.392 . S
C357 H369 0.929 . S
C358 C354 1.531 . S
C358 H370 0.960 . S
C358 H371 0.962 . S
C358 H372 0.960 . S
C359 C356 1.511 . S
C359 H373 0.961 . S
C359 H374 0.961 . S
C359 H375 0.961 . S
C360 C361 1.370 . S
C360 C362 1.363 . S
C360 H376 0.931 . S
C361 C360 1.370 . S
C361 C365 1.408 . S
C362 C360 1.363 . S
C362 C363 1.370 . S
C362 C366 1.524 . S
C363 C355 1.503 . S
C363 C362 1.370 . S
C363 C364 1.403 . S
C364 C363 1.403 . S
C364 C365 1.404 . S
C364 C367 1.539 . S
C365 C361 1.408 . S
C365 C364 1.404 . S
C365 H377 0.930 . S
C366 C362 1.524 . S
C366 H378 0.956 . S
C366 H379 0.961 . S
C366 H380 0.961 . S
C367 C364 1.539 . S
C367 H381 0.958 . S
C367 H382 0.961 . S
C367 H383 0.960 . S
H368 C352 0.931 . S
H369 C357 0.929 . S
H370 C358 0.960 . S
H371 C358 0.962 . S
H372 C358 0.960 . S
H373 C359 0.961 . S
H374 C359 0.961 . S
H375 C359 0.961 . S
H376 C360 0.931 . S
H377 C365 0.930 . S
H378 C366 0.956 . S
H379 C366 0.961 . S
H380 C366 0.961 . S
H381 C367 0.958 . S
H382 C367 0.961 . S
H383 C367 0.960 . S
C384 C385 1.391 . S
C384 C386 1.394 . S
C384 H400 0.931 . S
C385 C384 1.391 . S
C385 C389 1.376 . S
C386 C384 1.394 . S
C386 C387 1.369 . S
C386 C390 1.531 . S
C387 C386 1.369 . S
C387 C388 1.410 . S
C387 C395 1.503 . S
C388 C387 1.410 . S
C388 C389 1.392 . S
C388 C391 1.511 . S
C389 C385 1.376 . S
C389 C388 1.392 . S
C389 H401 0.929 . S
C390 C386 1.531 . S
C390 H402 0.960 . S
C390 H403 0.962 . S
C390 H404 0.960 . S
C391 C388 1.511 . S
C391 H405 0.961 . S
C391 H406 0.961 . S
C391 H407 0.961 . S
C392 C393 1.370 . S
C392 C394 1.363 . S
C392 H408 0.931 . S
C393 C392 1.370 . S
C393 C397 1.408 . S
C394 C392 1.363 . S
C394 C395 1.370 . S
C394 C398 1.524 . S
C395 C387 1.503 . S
C395 C394 1.370 . S
C395 C396 1.403 . S
C396 C395 1.403 . S
C396 C397 1.404 . S
C396 C399 1.539 . S
C397 C393 1.408 . S
C397 C396 1.404 . S
C397 H409 0.930 . S
C398 C394 1.524 . S
C398 H410 0.956 . S
C398 H411 0.961 . S
C398 H412 0.961 . S
C399 C396 1.539 . S
C399 H413 0.958 . S
C399 H414 0.961 . S
C399 H415 0.960 . S
H400 C384 0.931 . S
H401 C389 0.929 . S
H402 C390 0.960 . S
H403 C390 0.962 . S
H404 C390 0.960 . S
H405 C391 0.961 . S
H406 C391 0.961 . S
H407 C391 0.961 . S
H408 C392 0.931 . S
H409 C397 0.930 . S
H410 C398 0.956 . S
H411 C398 0.961 . S
H412 C398 0.961 . S
H413 C399 0.958 . S
H414 C399 0.961 . S
H415 C399 0.960 . S
C416 C417 1.391 . S
C416 C418 1.394 . S
C416 H432 0.931 . S
C417 C416 1.391 . S
C417 C421 1.376 . S
C418 C416 1.394 . S
C418 C419 1.369 . S
C418 C422 1.531 . S
C419 C418 1.369 . S
C419 C420 1.410 . S
C419 C427 1.503 . S
C420 C419 1.410 . S
C420 C421 1.392 . S
C420 C423 1.511 1_556 S
C421 C417 1.376 . S
C421 C420 1.392 . S
C421 H433 0.929 1_556 S
C422 C418 1.531 . S
C422 H434 0.960 . S
C422 H435 0.962 . S
C422 H436 0.960 . S
C423 C420 1.511 1_554 S
C423 H437 0.961 . S
C423 H438 0.961 . S
C423 H439 0.961 1_554 S
C424 C425 1.370 . S
C424 C426 1.363 . S
C424 H440 0.931 . S
C425 C424 1.370 . S
C425 C429 1.408 1_554 S
C426 C424 1.363 . S
C426 C427 1.370 1_554 S
C426 C430 1.524 . S
C427 C419 1.503 . S
C427 C426 1.370 1_556 S
C427 C428 1.403 . S
C428 C427 1.403 . S
C428 C429 1.404 . S
C428 C431 1.539 . S
C429 C425 1.408 1_556 S
C429 C428 1.404 . S
C429 H441 0.930 . S
C430 C426 1.524 . S
C430 H442 0.956 . S
C430 H443 0.961 . S
C430 H444 0.961 . S
C431 C428 1.539 . S
C431 H445 0.958 . S
C431 H446 0.961 . S
C431 H447 0.960 . S
H432 C416 0.931 . S
H433 C421 0.929 1_554 S
H434 C422 0.960 . S
H435 C422 0.962 . S
H436 C422 0.960 . S
H437 C423 0.961 . S
H438 C423 0.961 . S
H439 C423 0.961 1_556 S
H440 C424 0.931 . S
H441 C429 0.930 . S
H442 C430 0.956 . S
H443 C430 0.961 . S
H444 C430 0.961 . S
H445 C431 0.958 . S
H446 C431 0.961 . S
H447 C431 0.960 . S
C448 C449 1.391 . S
C448 C450 1.394 . S
C448 H464 0.931 . S
C449 C448 1.391 . S
C449 C453 1.376 . S
C450 C448 1.394 . S
C450 C451 1.369 . S
C450 C454 1.531 . S
C451 C450 1.369 . S
C451 C452 1.410 1_554 S
C451 C459 1.503 1_554 S
C452 C451 1.410 1_556 S
C452 C453 1.392 1_556 S
C452 C455 1.511 . S
C453 C449 1.376 . S
C453 C452 1.392 1_554 S
C453 H465 0.929 1_554 S
C454 C450 1.531 . S
C454 H466 0.960 . S
C454 H467 0.962 . S
C454 H468 0.960 . S
C455 C452 1.511 . S
C455 H469 0.961 . S
C455 H470 0.961 . S
C455 H471 0.961 . S
C456 C457 1.370 . S
C456 C458 1.363 . S
C456 H472 0.931 . S
C457 C456 1.370 . S
C457 C461 1.408 . S
C458 C456 1.363 . S
C458 C459 1.370 . S
C458 C462 1.524 1_556 S
C459 C451 1.503 1_556 S
C459 C458 1.370 . S
C459 C460 1.403 . S
C460 C459 1.403 . S
C460 C461 1.404 . S
C460 C463 1.539 . S
C461 C457 1.408 . S
C461 C460 1.404 . S
C461 H473 0.930 . S
C462 C458 1.524 1_554 S
C462 H474 0.956 . S
C462 H475 0.961 . S
C462 H476 0.961 . S
C463 C460 1.539 . S
C463 H477 0.958 . S
C463 H478 0.961 . S
C463 H479 0.960 . S
H464 C448 0.931 . S
H465 C453 0.929 1_556 S
H466 C454 0.960 . S
H467 C454 0.962 . S
H468 C454 0.960 . S
H469 C455 0.961 . S
H470 C455 0.961 . S
H471 C455 0.961 . S
H472 C456 0.931 . S
H473 C461 0.930 . S
H474 C462 0.956 . S
H475 C462 0.961 . S
H476 C462 0.961 . S
H477 C463 0.958 . S
H478 C463 0.961 . S
H479 C463 0.960 . S
C480 C481 1.391 1_556 S
C480 C482 1.394 . S
C480 H496 0.931 . S
C481 C480 1.391 1_554 S
C481 C485 1.376 . S
C482 C480 1.394 . S
C482 C483 1.369 1_556 S
C482 C486 1.531 . S
C483 C482 1.369 1_554 S
C483 C484 1.410 . S
C483 C491 1.503 . S
C484 C483 1.410 . S
C484 C485 1.392 . S
C484 C487 1.511 . S
C485 C481 1.376 . S
C485 C484 1.392 . S
C485 H497 0.929 . S
C486 C482 1.531 . S
C486 H498 0.960 . S
C486 H499 0.962 . S
C486 H500 0.960 . S
C487 C484 1.511 . S
C487 H501 0.961 . S
C487 H502 0.961 . S
C487 H503 0.961 . S
C488 C489 1.370 . S
C488 C490 1.363 . S
C488 H504 0.931 . S
C489 C488 1.370 . S
C489 C493 1.408 1_556 S
C490 C488 1.363 . S
C490 C491 1.370 1_556 S
C490 C494 1.524 . S
C491 C483 1.503 . S
C491 C490 1.370 1_554 S
C491 C492 1.403 . S
C492 C491 1.403 . S
C492 C493 1.404 . S
C492 C495 1.539 . S
C493 C489 1.408 1_554 S
C493 C492 1.404 . S
C493 H505 0.930 . S
C494 C490 1.524 . S
C494 H506 0.956 . S
C494 H507 0.961 . S
C494 H508 0.961 . S
C495 C492 1.539 . S
C495 H509 0.958 . S
C495 H510 0.961 . S
C495 H511 0.960 . S
H496 C480 0.931 . S
H497 C485 0.929 . S
H498 C486 0.960 . S
H499 C486 0.962 . S
H500 C486 0.960 . S
H501 C487 0.961 . S
H502 C487 0.961 . S
H503 C487 0.961 . S
H504 C488 0.931 . S
H505 C493 0.930 . S
H506 C494 0.956 . S
H507 C494 0.961 . S
H508 C494 0.961 . S
H509 C495 0.958 . S
H510 C495 0.961 . S
H511 C495 0.960 . S
C512 C513 1.391 . S
C512 C514 1.394 . S
C512 H528 0.931 . S
C513 C512 1.391 . S
C513 C517 1.376 . S
C514 C512 1.394 . S
C514 C515 1.369 . S
C514 C518 1.531 . S
C515 C514 1.369 . S
C515 C516 1.410 1_556 S
C515 C523 1.503 1_556 S
C516 C515 1.410 1_554 S
C516 C517 1.392 1_554 S
C516 C519 1.511 . S
C517 C513 1.376 . S
C517 C516 1.392 1_556 S
C517 H529 0.929 1_556 S
C518 C514 1.531 . S
C518 H530 0.960 . S
C518 H531 0.962 . S
C518 H532 0.960 . S
C519 C516 1.511 . S
C519 H533 0.961 . S
C519 H534 0.961 . S
C519 H535 0.961 . S
C520 C521 1.370 . S
C520 C522 1.363 . S
C520 H536 0.931 . S
C521 C520 1.370 . S
C521 C525 1.408 . S
C522 C520 1.363 . S
C522 C523 1.370 . S
C522 C526 1.524 . S
C523 C515 1.503 1_554 S
C523 C522 1.370 . S
C523 C524 1.403 . S
C524 C523 1.403 . S
C524 C525 1.404 . S
C524 C527 1.539 1_554 S
C525 C521 1.408 . S
C525 C524 1.404 . S
C525 H537 0.930 . S
C526 C522 1.524 . S
C526 H538 0.956 1_554 S
C526 H539 0.961 . S
C526 H540 0.961 . S
C527 C524 1.539 1_556 S
C527 H541 0.958 . S
C527 H542 0.961 1_556 S
C527 H543 0.960 . S
H528 C512 0.931 . S
H529 C517 0.929 1_554 S
H530 C518 0.960 . S
H531 C518 0.962 . S
H532 C518 0.960 . S
H533 C519 0.961 . S
H534 C519 0.961 . S
H535 C519 0.961 . S
H536 C520 0.931 . S
H537 C525 0.930 . S
H538 C526 0.956 1_556 S
H539 C526 0.961 . S
H540 C526 0.961 . S
H541 C527 0.958 . S
H542 C527 0.961 1_554 S
H543 C527 0.960 . S
C161 C103 1.874 . S
C169 C2 1.936 . S
C193 C63 2.534 . S
C201 C122 2.530 . S
C225 C143 1.905 . S
C233 C42 1.926 . S
C257 C23 2.522 . S
C265 C82 2.535 . S
C289 C124 1.582 . S
C297 C25 1.598 . S
C321 C111 1.581 . S
C329 C60 1.583 . S
C353 C84 1.596 . S
C361 C65 1.592 . S
C385 C20 1.586 . S
C393 C151 1.580 . S
C417 C140 1.889 . S
C425 C31 1.927 . S
C449 C105 0.569 . S
C457 C44 0.649 . S
C481 C71 1.891 . S
C489 C100 1.927 . S
C513 C4 0.646 . S
C521 C145 0.619 . S
