# Generated by pormake.
# Topology uos, (4)-cn, num edge types: 1
# Building blocks:
#     Node 0, Type 0, BuildingBlock: GALJAG_clean_sbu_0, # of connection points: 4
#     Node 1, Type 0, BuildingBlock: GALJAG_clean_sbu_0, # of connection points: 4
#     Node 2, Type 0, BuildingBlock: GALJAG_clean_sbu_0, # of connection points: 4
#     Node 3, Type 0, BuildingBlock: GALJAG_clean_sbu_0, # of connection points: 4
#     Node 4, Type 0, BuildingBlock: GALJAG_clean_sbu_0, # of connection points: 4
#     Node 5, Type 0, BuildingBlock: GALJAG_clean_sbu_0, # of connection points: 4
#     Node 6, Type 0, BuildingBlock: GALJAG_clean_sbu_0, # of connection points: 4
#     Node 7, Type 0, BuildingBlock: GALJAG_clean_sbu_0, # of connection points: 4
#     Node 8, Type 0, BuildingBlock: GALJAG_clean_sbu_0, # of connection points: 4
#     Node 9, Type 0, BuildingBlock: GALJAG_clean_sbu_0, # of connection points: 4
#     Node 10, Type 0, BuildingBlock: GALJAG_clean_sbu_0, # of connection points: 4
#     Node 11, Type 0, BuildingBlock: GALJAG_clean_sbu_0, # of connection points: 4
#     Node 12, Type 0, BuildingBlock: GALJAG_clean_sbu_0, # of connection points: 4
#     Node 13, Type 0, BuildingBlock: GALJAG_clean_sbu_0, # of connection points: 4
#     Node 14, Type 0, BuildingBlock: GALJAG_clean_sbu_0, # of connection points: 4
#     Node 15, Type 0, BuildingBlock: GALJAG_clean_sbu_0, # of connection points: 4
#     Node 16, Type 0, BuildingBlock: GALJAG_clean_sbu_0, # of connection points: 4
#     Node 17, Type 0, BuildingBlock: GALJAG_clean_sbu_0, # of connection points: 4
#     Node 18, Type 0, BuildingBlock: GALJAG_clean_sbu_0, # of connection points: 4
#     Node 19, Type 0, BuildingBlock: GALJAG_clean_sbu_0, # of connection points: 4
#     Node 20, Type 0, BuildingBlock: GALJAG_clean_sbu_0, # of connection points: 4
#     Node 21, Type 0, BuildingBlock: GALJAG_clean_sbu_0, # of connection points: 4
#     Node 22, Type 0, BuildingBlock: GALJAG_clean_sbu_0, # of connection points: 4
#     Node 23, Type 0, BuildingBlock: GALJAG_clean_sbu_0, # of connection points: 4
#     Node 24, Type 0, BuildingBlock: GALJAG_clean_sbu_0, # of connection points: 4
#     Node 25, Type 0, BuildingBlock: GALJAG_clean_sbu_0, # of connection points: 4
#     Node 26, Type 0, BuildingBlock: GALJAG_clean_sbu_0, # of connection points: 4
#     Node 27, Type 0, BuildingBlock: GALJAG_clean_sbu_0, # of connection points: 4
#     Node 28, Type 0, BuildingBlock: GALJAG_clean_sbu_0, # of connection points: 4
#     Node 29, Type 0, BuildingBlock: GALJAG_clean_sbu_0, # of connection points: 4
#     Node 30, Type 0, BuildingBlock: GALJAG_clean_sbu_0, # of connection points: 4
#     Node 31, Type 0, BuildingBlock: GALJAG_clean_sbu_0, # of connection points: 4
#     Edge 32, Type (0, 0), BuildingBlock: KIFKEQ_clean_linker_1, # of connection points: 2
#     Edge 33, Type (0, 0), BuildingBlock: KIFKEQ_clean_linker_1, # of connection points: 2
#     Edge 34, Type (0, 0), BuildingBlock: KIFKEQ_clean_linker_1, # of connection points: 2
#     Edge 35, Type (0, 0), BuildingBlock: KIFKEQ_clean_linker_1, # of connection points: 2
#     Edge 36, Type (0, 0), BuildingBlock: KIFKEQ_clean_linker_1, # of connection points: 2
#     Edge 37, Type (0, 0), BuildingBlock: KIFKEQ_clean_linker_1, # of connection points: 2
#     Edge 38, Type (0, 0), BuildingBlock: KIFKEQ_clean_linker_1, # of connection points: 2
#     Edge 39, Type (0, 0), BuildingBlock: KIFKEQ_clean_linker_1, # of connection points: 2
#     Edge 40, Type (0, 0), BuildingBlock: KIFKEQ_clean_linker_1, # of connection points: 2
#     Edge 41, Type (0, 0), BuildingBlock: KIFKEQ_clean_linker_1, # of connection points: 2
#     Edge 42, Type (0, 0), BuildingBlock: KIFKEQ_clean_linker_1, # of connection points: 2
#     Edge 43, Type (0, 0), BuildingBlock: KIFKEQ_clean_linker_1, # of connection points: 2
#     Edge 44, Type (0, 0), BuildingBlock: KIFKEQ_clean_linker_1, # of connection points: 2
#     Edge 45, Type (0, 0), BuildingBlock: KIFKEQ_clean_linker_1, # of connection points: 2
#     Edge 46, Type (0, 0), BuildingBlock: KIFKEQ_clean_linker_1, # of connection points: 2
#     Edge 47, Type (0, 0), BuildingBlock: KIFKEQ_clean_linker_1, # of connection points: 2
#     Edge 48, Type (0, 0), BuildingBlock: KIFKEQ_clean_linker_1, # of connection points: 2
#     Edge 49, Type (0, 0), BuildingBlock: KIFKEQ_clean_linker_1, # of connection points: 2
#     Edge 50, Type (0, 0), BuildingBlock: KIFKEQ_clean_linker_1, # of connection points: 2
#     Edge 51, Type (0, 0), BuildingBlock: KIFKEQ_clean_linker_1, # of connection points: 2
#     Edge 52, Type (0, 0), BuildingBlock: KIFKEQ_clean_linker_1, # of connection points: 2
#     Edge 53, Type (0, 0), BuildingBlock: KIFKEQ_clean_linker_1, # of connection points: 2
#     Edge 54, Type (0, 0), BuildingBlock: KIFKEQ_clean_linker_1, # of connection points: 2
#     Edge 55, Type (0, 0), BuildingBlock: KIFKEQ_clean_linker_1, # of connection points: 2
#     Edge 56, Type (0, 0), BuildingBlock: KIFKEQ_clean_linker_1, # of connection points: 2
#     Edge 57, Type (0, 0), BuildingBlock: KIFKEQ_clean_linker_1, # of connection points: 2
#     Edge 58, Type (0, 0), BuildingBlock: KIFKEQ_clean_linker_1, # of connection points: 2
#     Edge 59, Type (0, 0), BuildingBlock: KIFKEQ_clean_linker_1, # of connection points: 2
#     Edge 60, Type (0, 0), BuildingBlock: KIFKEQ_clean_linker_1, # of connection points: 2
#     Edge 61, Type (0, 0), BuildingBlock: KIFKEQ_clean_linker_1, # of connection points: 2
#     Edge 62, Type (0, 0), BuildingBlock: KIFKEQ_clean_linker_1, # of connection points: 2
#     Edge 63, Type (0, 0), BuildingBlock: KIFKEQ_clean_linker_1, # of connection points: 2
#     Edge 64, Type (0, 0), BuildingBlock: KIFKEQ_clean_linker_1, # of connection points: 2
#     Edge 65, Type (0, 0), BuildingBlock: KIFKEQ_clean_linker_1, # of connection points: 2
#     Edge 66, Type (0, 0), BuildingBlock: KIFKEQ_clean_linker_1, # of connection points: 2
#     Edge 67, Type (0, 0), BuildingBlock: KIFKEQ_clean_linker_1, # of connection points: 2
#     Edge 68, Type (0, 0), BuildingBlock: KIFKEQ_clean_linker_1, # of connection points: 2
#     Edge 69, Type (0, 0), BuildingBlock: KIFKEQ_clean_linker_1, # of connection points: 2
#     Edge 70, Type (0, 0), BuildingBlock: KIFKEQ_clean_linker_1, # of connection points: 2
#     Edge 71, Type (0, 0), BuildingBlock: KIFKEQ_clean_linker_1, # of connection points: 2
#     Edge 72, Type (0, 0), BuildingBlock: KIFKEQ_clean_linker_1, # of connection points: 2
#     Edge 73, Type (0, 0), BuildingBlock: KIFKEQ_clean_linker_1, # of connection points: 2
#     Edge 74, Type (0, 0), BuildingBlock: KIFKEQ_clean_linker_1, # of connection points: 2
#     Edge 75, Type (0, 0), BuildingBlock: KIFKEQ_clean_linker_1, # of connection points: 2
#     Edge 76, Type (0, 0), BuildingBlock: KIFKEQ_clean_linker_1, # of connection points: 2
#     Edge 77, Type (0, 0), BuildingBlock: KIFKEQ_clean_linker_1, # of connection points: 2
#     Edge 78, Type (0, 0), BuildingBlock: KIFKEQ_clean_linker_1, # of connection points: 2
#     Edge 79, Type (0, 0), BuildingBlock: KIFKEQ_clean_linker_1, # of connection points: 2
#     Edge 80, Type (0, 0), BuildingBlock: KIFKEQ_clean_linker_1, # of connection points: 2
#     Edge 81, Type (0, 0), BuildingBlock: KIFKEQ_clean_linker_1, # of connection points: 2
#     Edge 82, Type (0, 0), BuildingBlock: KIFKEQ_clean_linker_1, # of connection points: 2
#     Edge 83, Type (0, 0), BuildingBlock: KIFKEQ_clean_linker_1, # of connection points: 2
#     Edge 84, Type (0, 0), BuildingBlock: KIFKEQ_clean_linker_1, # of connection points: 2
#     Edge 85, Type (0, 0), BuildingBlock: KIFKEQ_clean_linker_1, # of connection points: 2
#     Edge 86, Type (0, 0), BuildingBlock: KIFKEQ_clean_linker_1, # of connection points: 2
#     Edge 87, Type (0, 0), BuildingBlock: KIFKEQ_clean_linker_1, # of connection points: 2
#     Edge 88, Type (0, 0), BuildingBlock: KIFKEQ_clean_linker_1, # of connection points: 2
#     Edge 89, Type (0, 0), BuildingBlock: KIFKEQ_clean_linker_1, # of connection points: 2
#     Edge 90, Type (0, 0), BuildingBlock: KIFKEQ_clean_linker_1, # of connection points: 2
#     Edge 91, Type (0, 0), BuildingBlock: KIFKEQ_clean_linker_1, # of connection points: 2
#     Edge 92, Type (0, 0), BuildingBlock: KIFKEQ_clean_linker_1, # of connection points: 2
#     Edge 93, Type (0, 0), BuildingBlock: KIFKEQ_clean_linker_1, # of connection points: 2
#     Edge 94, Type (0, 0), BuildingBlock: KIFKEQ_clean_linker_1, # of connection points: 2
#     Edge 95, Type (0, 0), BuildingBlock: KIFKEQ_clean_linker_1, # of connection points: 2
# Relax obj value: 0.041
# Max RMSD: 0.074
# Mean RMSD: 0.074
data_MOF--net-uos--node1-GALJAG_clean_sbu_0--edge1-KIFKEQ_clean_linker_1
_symmetry_space_group_name_H-M    P1
_symmetry_Int_Tables_number       1
_symmetry_cell_setting            triclinic
loop_
_symmetry_equiv_pos_as_xyz
'x, y, z'
_cell_length_a     91.465754
_cell_length_b     91.469651
_cell_length_c     21.28465
_cell_angle_alpha  90.011172
_cell_angle_beta   90.007303
_cell_angle_gamma 90.007473
loop_
_atom_site_label
_atom_site_type_symbol
_atom_site_fract_x
_atom_site_fract_y
_atom_site_fract_z
_atom_type_partial_charge
In0 In 0.17302 0.16931 0.12617 0.0
O1 O 0.17311 0.15476 0.03748 0.0
O2 O 0.15307 0.16417 0.06721 0.0
C3 C 0.20081 0.16818 0.16891 0.0
C4 C 0.15973 0.15509 0.22105 0.0
C5 C 0.17041 0.19804 0.09937 0.0
O6 O 0.19675 0.16106 0.121 0.0
O7 O 0.19095 0.1758 0.19417 0.0
O8 O 0.16253 0.19157 0.13926 0.0
O9 O 0.17953 0.18993 0.07147 0.0
C10 C 0.15947 0.15588 0.02887 0.0
O11 O 0.15784 0.16856 0.21112 0.0
O12 O 0.1685 0.14891 0.18389 0.0
In13 In 0.08733 0.92368 0.36639 0.0
O14 O 0.10358 0.92359 0.2837 0.0
O15 O 0.08925 0.90553 0.29386 0.0
C16 C 0.08992 0.95138 0.40961 0.0
C17 C 0.10255 0.90846 0.45221 0.0
C18 C 0.058 0.92162 0.35373 0.0
O19 O 0.08989 0.94846 0.35154 0.0
O20 O 0.08873 0.94042 0.44505 0.0
O21 O 0.06524 0.9137 0.39103 0.0
O22 O 0.06558 0.9305 0.32206 0.0
C23 C 0.09976 0.91112 0.26415 0.0
O24 O 0.08878 0.90765 0.44807 0.0
O25 O 0.10853 0.91707 0.41368 0.0
In26 In 0.33275 0.83735 0.62799 0.0
O27 O 0.33309 0.84895 0.53162 0.0
O28 O 0.35314 0.8459 0.58031 0.0
C29 C 0.30442 0.83799 0.66484 0.0
C30 C 0.345 0.85247 0.72271 0.0
C31 C 0.33687 0.80858 0.6052 0.0
O32 O 0.3092 0.84628 0.62198 0.0
O33 O 0.31382 0.82947 0.68784 0.0
O34 O 0.3418 0.815 0.65323 0.0
O35 O 0.33013 0.81678 0.5672 0.0
C36 C 0.34675 0.85116 0.53305 0.0
O37 O 0.34831 0.83934 0.71104 0.0
O38 O 0.3352 0.85778 0.6878 0.0
In39 In 0.41814 0.08318 0.8771 0.0
O40 O 0.40095 0.08173 0.79821 0.0
O41 O 0.41394 0.10085 0.8038 0.0
C42 C 0.41733 0.05573 0.92418 0.0
C43 C 0.40475 0.09867 0.96851 0.0
C44 C 0.44694 0.08517 0.85037 0.0
O45 O 0.41127 0.05906 0.87274 0.0
O46 O 0.42378 0.06617 0.95122 0.0
O47 O 0.44055 0.09342 0.88906 0.0
O48 O 0.43874 0.07594 0.82365 0.0
C49 C 0.40358 0.09432 0.77679 0.0
O50 O 0.41772 0.10116 0.95163 0.0
O51 O 0.39866 0.08822 0.94016 0.0
In52 In 0.17262 0.83603 0.86503 0.0
O53 O 0.15657 0.83729 0.78341 0.0
O54 O 0.16992 0.85583 0.80122 0.0
C55 C 0.16917 0.80724 0.88879 0.0
C56 C 0.15839 0.84982 0.95951 0.0
C57 C 0.20109 0.8369 0.83024 0.0
O58 O 0.16472 0.81337 0.83929 0.0
O59 O 0.17527 0.81572 0.92777 0.0
O60 O 0.19606 0.84517 0.87266 0.0
O61 O 0.19188 0.82825 0.80677 0.0
C62 C 0.15994 0.85019 0.76835 0.0
O63 O 0.17219 0.84972 0.95614 0.0
O64 O 0.15206 0.84254 0.91725 0.0
In65 In 0.41868 0.92414 0.12441 0.0
O66 O 0.41724 0.90889 0.04007 0.0
O67 O 0.39888 0.92236 0.06017 0.0
C68 C 0.44741 0.91932 0.14493 0.0
C69 C 0.40471 0.90978 0.21813 0.0
C70 C 0.41795 0.95295 0.09466 0.0
O71 O 0.44092 0.91553 0.09523 0.0
O72 O 0.43931 0.92526 0.18572 0.0
O73 O 0.40846 0.94717 0.12994 0.0
O74 O 0.4277 0.94432 0.07568 0.0
C75 C 0.40434 0.91252 0.02593 0.0
O76 O 0.40791 0.9232 0.22258 0.0
O77 O 0.40904 0.90376 0.16835 0.0
In78 In 0.33171 0.16842 0.37864 0.0
O79 O 0.33529 0.14623 0.42606 0.0
O80 O 0.33998 0.16519 0.47939 0.0
C81 C 0.3033 0.16775 0.34309 0.0
C82 C 0.34824 0.15822 0.28304 0.0
C83 C 0.33602 0.19714 0.40127 0.0
O84 O 0.30835 0.15896 0.38346 0.0
O85 O 0.31245 0.17677 0.32189 0.0
O86 O 0.34379 0.18992 0.36325 0.0
O87 O 0.3263 0.18979 0.42921 0.0
C88 C 0.34018 0.15142 0.47669 0.0
O89 O 0.35374 0.16389 0.33159 0.0
O90 O 0.33448 0.1581 0.28203 0.0
In91 In 0.08721 0.08205 0.62473 0.0
O92 O 0.10331 0.08223 0.70795 0.0
O93 O 0.09021 0.10103 0.6921 0.0
C94 C 0.09002 0.05398 0.58602 0.0
C95 C 0.10222 0.09761 0.53948 0.0
C96 C 0.05783 0.08424 0.63566 0.0
O97 O 0.08883 0.05725 0.6435 0.0
O98 O 0.08987 0.06474 0.54925 0.0
O99 O 0.06472 0.08826 0.5873 0.0
O100 O 0.06577 0.07915 0.67898 0.0
C101 C 0.10026 0.09519 0.72389 0.0
O102 O 0.08866 0.09939 0.54814 0.0
O103 O 0.10806 0.08789 0.57329 0.0
In104 In 0.83283 0.83648 0.87398 0.0
O105 O 0.83294 0.85052 0.9642 0.0
O106 O 0.85307 0.84211 0.93038 0.0
C107 C 0.80478 0.83737 0.83431 0.0
C108 C 0.84541 0.85082 0.77756 0.0
C109 C 0.8359 0.80778 0.9002 0.0
O110 O 0.80924 0.84513 0.87962 0.0
O111 O 0.81436 0.82923 0.81008 0.0
O112 O 0.84348 0.81435 0.85952 0.0
O113 O 0.82688 0.81578 0.92926 0.0
C114 C 0.84667 0.8499 0.97063 0.0
O115 O 0.8475 0.83738 0.78739 0.0
O116 O 0.83677 0.85691 0.81557 0.0
In117 In 0.91854 0.08345 0.62298 0.0
O118 O 0.91633 0.0988 0.53952 0.0
O119 O 0.89731 0.08745 0.57054 0.0
C120 C 0.9476 0.08647 0.64305 0.0
C121 C 0.90516 0.09701 0.72031 0.0
C122 C 0.91662 0.05563 0.58065 0.0
O123 O 0.94071 0.0937 0.60228 0.0
O124 O 0.93978 0.07788 0.67507 0.0
O125 O 0.91182 0.05937 0.63402 0.0
O126 O 0.92236 0.06585 0.54951 0.0
C127 C 0.90278 0.0966 0.53285 0.0
O128 O 0.90578 0.08322 0.71654 0.0
O129 O 0.91186 0.10368 0.67735 0.0
In130 In 0.67235 0.16842 0.36901 0.0
O131 O 0.67212 0.15407 0.4581 0.0
O132 O 0.65215 0.16341 0.42691 0.0
C133 C 0.70056 0.16757 0.33083 0.0
C134 C 0.65909 0.1537 0.27531 0.0
C135 C 0.66963 0.19738 0.39063 0.0
O136 O 0.69619 0.16046 0.37821 0.0
O137 O 0.69081 0.17498 0.30385 0.0
O138 O 0.66418 0.19101 0.34356 0.0
O139 O 0.67628 0.18905 0.42848 0.0
C140 C 0.65846 0.15519 0.46591 0.0
O141 O 0.65614 0.16683 0.28808 0.0
O142 O 0.6689 0.14806 0.30913 0.0
In143 In 0.58648 0.92263 0.12917 0.0
O144 O 0.60225 0.92267 0.21374 0.0
O145 O 0.58989 0.9035 0.19545 0.0
C146 C 0.58788 0.9504 0.08604 0.0
C147 C 0.6018 0.90878 0.03921 0.0
C148 C 0.55748 0.91967 0.14999 0.0
O149 O 0.5915 0.94709 0.14164 0.0
O150 O 0.58354 0.93978 0.0532 0.0
O151 O 0.56446 0.91186 0.11143 0.0
O152 O 0.56516 0.92897 0.17897 0.0
C153 C 0.59957 0.90956 0.22855 0.0
O154 O 0.58813 0.90732 0.04497 0.0
O155 O 0.60764 0.91737 0.07818 0.0
In156 In 0.83195 0.16926 0.12657 0.0
O157 O 0.84652 0.16859 0.21328 0.0
O158 O 0.83409 0.14961 0.19081 0.0
C159 C 0.83655 0.19779 0.10011 0.0
C160 C 0.84586 0.15456 0.03357 0.0
C161 C 0.80364 0.1684 0.163 0.0
O162 O 0.84337 0.19105 0.14271 0.0
O163 O 0.82764 0.19003 0.06932 0.0
O164 O 0.80876 0.15952 0.12314 0.0
O165 O 0.81269 0.17767 0.18316 0.0
C166 C 0.84333 0.15552 0.22678 0.0
O167 O 0.83256 0.15819 0.02874 0.0
O168 O 0.85196 0.15876 0.08331 0.0
In169 In 0.58632 0.08109 0.8701 0.0
O170 O 0.60216 0.08145 0.78598 0.0
O171 O 0.58943 0.10039 0.80432 0.0
C172 C 0.58818 0.05317 0.91151 0.0
C173 C 0.60156 0.09578 0.95785 0.0
C174 C 0.55709 0.08326 0.85376 0.0
O175 O 0.59094 0.05655 0.85511 0.0
O176 O 0.58457 0.06378 0.94587 0.0
O177 O 0.56378 0.08883 0.89973 0.0
O178 O 0.56519 0.07667 0.81486 0.0
C179 C 0.59927 0.09453 0.77134 0.0
O180 O 0.58811 0.09796 0.94842 0.0
O181 O 0.60725 0.08607 0.92355 0.0
In182 In 0.67335 0.83635 0.63047 0.0
O183 O 0.65702 0.838 0.71086 0.0
O184 O 0.67017 0.85659 0.69141 0.0
C185 C 0.67031 0.80742 0.60927 0.0
C186 C 0.65933 0.84953 0.53386 0.0
C187 C 0.70169 0.83722 0.66684 0.0
O188 O 0.66544 0.81379 0.65748 0.0
O189 O 0.6766 0.81573 0.57021 0.0
O190 O 0.69702 0.84479 0.62137 0.0
O191 O 0.69218 0.82931 0.69278 0.0
C192 C 0.66015 0.85105 0.72439 0.0
O193 O 0.67304 0.85042 0.54053 0.0
O194 O 0.65303 0.84157 0.57384 0.0
In195 In 0.91833 0.92406 0.37564 0.0
O196 O 0.9164 0.90659 0.45145 0.0
O197 O 0.89745 0.91905 0.42913 0.0
C198 C 0.94765 0.92208 0.36258 0.0
C199 C 0.90554 0.91078 0.27617 0.0
C200 C 0.91613 0.95214 0.41476 0.0
O201 O 0.94086 0.91725 0.40975 0.0
O202 O 0.93963 0.92784 0.32106 0.0
O203 O 0.91423 0.94858 0.35792 0.0
O204 O 0.91904 0.94162 0.45081 0.0
C205 C 0.903 0.90894 0.46163 0.0
O206 O 0.90234 0.9237 0.29216 0.0
O207 O 0.91562 0.90502 0.30814 0.0
In208 In 0.67266 0.6684 0.621 0.0
O209 O 0.67261 0.65558 0.52759 0.0
O210 O 0.65228 0.66183 0.5676 0.0
C211 C 0.70046 0.66643 0.66325 0.0
C212 C 0.65974 0.65281 0.71223 0.0
C213 C 0.66957 0.69737 0.5989 0.0
O214 O 0.69673 0.66167 0.60978 0.0
O215 O 0.69025 0.67217 0.69444 0.0
O216 O 0.66197 0.69052 0.63858 0.0
O217 O 0.67863 0.68958 0.56928 0.0
C218 C 0.65881 0.6551 0.52433 0.0
O219 O 0.65794 0.66645 0.70666 0.0
O220 O 0.66836 0.64716 0.67279 0.0
In221 In 0.58785 0.42299 0.87668 0.0
O222 O 0.58896 0.40765 0.961 0.0
O223 O 0.60837 0.41879 0.93412 0.0
C224 C 0.55915 0.42028 0.8498 0.0
C225 C 0.6013 0.40943 0.77956 0.0
C226 C 0.58862 0.45078 0.91921 0.0
O227 O 0.5656 0.41251 0.89021 0.0
O228 O 0.56726 0.42934 0.82156 0.0
O229 O 0.59551 0.44689 0.87044 0.0
O230 O 0.58143 0.44074 0.94551 0.0
C231 C 0.6024 0.4098 0.9709 0.0
O232 O 0.60264 0.42302 0.78873 0.0
O233 O 0.59279 0.40309 0.81723 0.0
In234 In 0.8335 0.33703 0.12292 0.0
O235 O 0.85196 0.33829 0.19528 0.0
O236 O 0.8386 0.35705 0.18196 0.0
C237 C 0.83621 0.30788 0.10653 0.0
C238 C 0.84501 0.35138 0.0231 0.0
C239 C 0.80541 0.33799 0.16316 0.0
O240 O 0.84135 0.31458 0.15344 0.0
O241 O 0.82979 0.31593 0.06689 0.0
O242 O 0.80881 0.34032 0.10648 0.0
O243 O 0.81609 0.3352 0.19853 0.0
C244 C 0.84924 0.35135 0.21051 0.0
O245 O 0.83341 0.35548 0.04993 0.0
O246 O 0.85036 0.3397 0.04456 0.0
In247 In 0.91993 0.58329 0.3702 0.0
O248 O 0.90425 0.58308 0.2853 0.0
O249 O 0.91608 0.6025 0.30477 0.0
C250 C 0.91869 0.55541 0.4122 0.0
C251 C 0.90478 0.59694 0.46134 0.0
C252 C 0.94891 0.58644 0.34924 0.0
O253 O 0.91492 0.55885 0.35695 0.0
O254 O 0.92308 0.56596 0.44533 0.0
O255 O 0.94187 0.59424 0.38759 0.0
O256 O 0.9413 0.57707 0.3204 0.0
C257 C 0.90661 0.59628 0.27113 0.0
O258 O 0.91841 0.59849 0.45476 0.0
O259 O 0.89887 0.58834 0.42257 0.0
In260 In 0.67438 0.33645 0.37555 0.0
O261 O 0.65881 0.33801 0.29216 0.0
O262 O 0.66918 0.3575 0.32358 0.0
C263 C 0.6715 0.30747 0.39688 0.0
C264 C 0.66141 0.34965 0.47486 0.0
C265 C 0.70218 0.33775 0.33284 0.0
O266 O 0.66361 0.31441 0.3585 0.0
O267 O 0.68085 0.31518 0.42542 0.0
O268 O 0.69881 0.34146 0.38825 0.0
O269 O 0.69159 0.33339 0.29984 0.0
C270 C 0.66036 0.35164 0.28561 0.0
O271 O 0.67448 0.35237 0.45957 0.0
O272 O 0.65537 0.33986 0.44234 0.0
In273 In 0.91935 0.42425 0.62414 0.0
O274 O 0.90097 0.42411 0.69749 0.0
O275 O 0.91695 0.40735 0.70246 0.0
C276 C 0.91809 0.45225 0.58277 0.0
C277 C 0.90525 0.40831 0.53657 0.0
C278 C 0.94849 0.42184 0.64141 0.0
O279 O 0.91577 0.44894 0.63955 0.0
O280 O 0.921 0.44153 0.54781 0.0
O281 O 0.94183 0.41616 0.59555 0.0
O282 O 0.9404 0.42866 0.67963 0.0
C283 C 0.90523 0.41255 0.72417 0.0
O284 O 0.9185 0.40612 0.55025 0.0
O285 O 0.89924 0.41855 0.56663 0.0
In286 In 0.83193 0.66858 0.86914 0.0
O287 O 0.84885 0.66711 0.79098 0.0
O288 O 0.83662 0.64798 0.81291 0.0
C289 C 0.83402 0.69777 0.88716 0.0
C290 C 0.84577 0.6553 0.96595 0.0
C291 C 0.80385 0.66647 0.83 0.0
O292 O 0.83898 0.69134 0.8393 0.0
O293 O 0.82803 0.68945 0.92692 0.0
O294 O 0.80752 0.66367 0.88602 0.0
O295 O 0.81425 0.67028 0.79487 0.0
C296 C 0.84646 0.65377 0.77965 0.0
O297 O 0.8325 0.65276 0.95335 0.0
O298 O 0.85163 0.66492 0.93189 0.0
In299 In 0.58602 0.58253 0.11763 0.0
O300 O 0.58738 0.59802 0.0342 0.0
O301 O 0.60547 0.58395 0.05146 0.0
C302 C 0.55731 0.58729 0.13911 0.0
C303 C 0.60034 0.59677 0.21067 0.0
C304 C 0.58695 0.5538 0.0871 0.0
O305 O 0.56374 0.59125 0.08951 0.0
O306 O 0.56547 0.58121 0.17926 0.0
O307 O 0.59628 0.55954 0.12326 0.0
O308 O 0.57721 0.56243 0.06783 0.0
C309 C 0.60007 0.59404 0.01833 0.0
O310 O 0.59665 0.5835 0.21608 0.0
O311 O 0.59636 0.60272 0.16023 0.0
In312 In 0.3343 0.33637 0.37006 0.0
O313 O 0.33446 0.35191 0.4552 0.0
O314 O 0.35399 0.34052 0.43257 0.0
C315 C 0.30622 0.33803 0.33047 0.0
C316 C 0.34838 0.3515 0.28022 0.0
C317 C 0.33683 0.30723 0.38869 0.0
O318 O 0.3099 0.34147 0.38582 0.0
O319 O 0.3166 0.33376 0.29623 0.0
O320 O 0.34199 0.31371 0.34138 0.0
O321 O 0.33047 0.31547 0.42767 0.0
C322 C 0.34782 0.3498 0.4674 0.0
O323 O 0.35093 0.33816 0.29086 0.0
O324 O 0.33863 0.35713 0.31445 0.0
In325 In 0.41832 0.58306 0.12672 0.0
O326 O 0.39963 0.5828 0.19872 0.0
O327 O 0.41609 0.5989 0.20926 0.0
C328 C 0.41754 0.55531 0.08257 0.0
C329 C 0.4041 0.59861 0.03819 0.0
C330 C 0.44727 0.58622 0.14683 0.0
O331 O 0.41471 0.55838 0.13919 0.0
O332 O 0.42082 0.56617 0.04891 0.0
O333 O 0.44006 0.59451 0.11091 0.0
O334 O 0.43984 0.57637 0.17356 0.0
C335 C 0.4041 0.59384 0.22857 0.0
O336 O 0.41757 0.60028 0.04878 0.0
O337 O 0.39796 0.58903 0.07155 0.0
In338 In 0.1739 0.66896 0.87803 0.0
O339 O 0.17358 0.65747 0.97479 0.0
O340 O 0.15371 0.65955 0.92406 0.0
C341 C 0.20226 0.66868 0.84196 0.0
C342 C 0.16248 0.65443 0.77979 0.0
C343 C 0.16903 0.69742 0.90448 0.0
O344 O 0.19727 0.65967 0.88157 0.0
O345 O 0.19304 0.67775 0.82156 0.0
O346 O 0.16239 0.69064 0.8614 0.0
O347 O 0.17793 0.68974 0.93561 0.0
C348 C 0.16004 0.65468 0.97214 0.0
O349 O 0.15966 0.66773 0.79027 0.0
O350 O 0.17144 0.6487 0.81749 0.0
In351 In 0.08735 0.42305 0.6228 0.0
O352 O 0.10185 0.42309 0.71157 0.0
O353 O 0.09236 0.40308 0.68192 0.0
C354 C 0.08842 0.45093 0.58122 0.0
C355 C 0.10189 0.41001 0.52812 0.0
C356 C 0.05858 0.4203 0.64875 0.0
O357 O 0.09533 0.44684 0.62964 0.0
O358 O 0.08103 0.44104 0.55481 0.0
O359 O 0.06515 0.41241 0.60916 0.0
O360 O 0.0666 0.42948 0.67672 0.0
C361 C 0.10067 0.40947 0.72028 0.0
O362 O 0.08838 0.40812 0.53702 0.0
O363 O 0.10795 0.41866 0.5662 0.0
In364 In 0.33248 0.66985 0.62424 0.0
O365 O 0.33183 0.65181 0.54919 0.0
O366 O 0.34933 0.66697 0.54609 0.0
C367 C 0.30472 0.66946 0.66809 0.0
C368 C 0.34734 0.65577 0.71564 0.0
C369 C 0.33563 0.69858 0.59884 0.0
O370 O 0.30812 0.66407 0.61541 0.0
O371 O 0.31522 0.67511 0.69783 0.0
O372 O 0.34407 0.69164 0.63509 0.0
O373 O 0.32563 0.69095 0.57411 0.0
C374 C 0.34363 0.65561 0.52328 0.0
O375 O 0.34898 0.66924 0.70522 0.0
O376 O 0.33812 0.64956 0.68075 0.0
In377 In 0.08769 0.58265 0.38156 0.0
O378 O 0.09888 0.58311 0.28432 0.0
O379 O 0.09686 0.60296 0.3354 0.0
C380 C 0.08843 0.55408 0.41471 0.0
C381 C 0.10242 0.5948 0.47772 0.0
C382 C 0.05894 0.58708 0.35977 0.0
O383 O 0.09741 0.55943 0.37589 0.0
O384 O 0.07917 0.56303 0.43558 0.0
O385 O 0.06532 0.59119 0.4093 0.0
O386 O 0.06717 0.581 0.31985 0.0
C387 C 0.10164 0.59665 0.28704 0.0
O388 O 0.08949 0.59843 0.464 0.0
O389 O 0.10769 0.58469 0.44432 0.0
In390 In 0.17472 0.33727 0.12399 0.0
O391 O 0.15755 0.33907 0.20109 0.0
O392 O 0.16993 0.35806 0.17863 0.0
C393 C 0.1725 0.30807 0.10712 0.0
C394 C 0.16132 0.35035 0.02559 0.0
C395 C 0.20271 0.33905 0.16438 0.0
O396 O 0.16729 0.31466 0.15413 0.0
O397 O 0.17877 0.31625 0.06761 0.0
O398 O 0.1992 0.34188 0.10819 0.0
O399 O 0.19218 0.3354 0.19914 0.0
C400 C 0.15994 0.35244 0.21161 0.0
O401 O 0.1744 0.35323 0.04033 0.0
O402 O 0.15545 0.34047 0.05828 0.0
In403 In 0.41994 0.42415 0.87138 0.0
O404 O 0.41842 0.40741 0.95015 0.0
O405 O 0.39922 0.41937 0.92683 0.0
C406 C 0.44911 0.42183 0.85402 0.0
C407 C 0.40681 0.41049 0.7736 0.0
C408 C 0.41827 0.45221 0.91121 0.0
O409 O 0.44251 0.41652 0.90074 0.0
O410 O 0.44095 0.42825 0.81484 0.0
O411 O 0.41508 0.44862 0.85548 0.0
O412 O 0.4222 0.44174 0.9457 0.0
C413 C 0.40503 0.40968 0.96082 0.0
O414 O 0.4041 0.42367 0.78719 0.0
O415 O 0.41652 0.40463 0.80721 0.0
H416 H 0.28351 0.14527 0.35026 0.0
H417 H 0.28874 0.18958 0.28389 0.0
H418 H 0.25856 0.14482 0.30721 0.0
H419 H 0.26387 0.18919 0.2423 0.0
H420 H 0.21324 0.1874 0.25006 0.0
H421 H 0.2379 0.18682 0.2938 0.0
H422 H 0.24694 0.14716 0.19107 0.0
H423 H 0.22221 0.14786 0.14601 0.0
C424 C 0.27928 0.15492 0.327 0.0
C425 C 0.28802 0.16747 0.32049 0.0
C426 C 0.2651 0.15462 0.30205 0.0
C427 C 0.25935 0.16697 0.27148 0.0
C428 C 0.26803 0.17956 0.26591 0.0
C429 C 0.28225 0.17976 0.28963 0.0
C430 C 0.22048 0.17856 0.23667 0.0
C431 C 0.21583 0.1677 0.19442 0.0
C432 C 0.23459 0.17825 0.26166 0.0
C433 C 0.24428 0.16694 0.24586 0.0
C434 C 0.23961 0.15595 0.20427 0.0
C435 C 0.22554 0.1564 0.17822 0.0
H436 H 0.0966 0.9595 0.52915 0.0
H437 H 0.08531 0.97712 0.34746 0.0
H438 H 0.09766 0.98409 0.57254 0.0
H439 H 0.08557 1.00175 0.39128 0.0
H440 H 0.09933 0.04523 0.47092 0.0
H441 H 0.1003 0.02054 0.42891 0.0
H442 H 0.08329 0.00383 0.60441 0.0
H443 H 0.0831 0.02858 0.64731 0.0
C444 C 0.09426 0.96867 0.49855 0.0
C445 C 0.0909 0.96641 0.43489 0.0
C446 C 0.09475 0.98279 0.52355 0.0
C447 C 0.09164 0.99502 0.48573 0.0
C448 C 0.0883 0.99269 0.4218 0.0
C449 C 0.08806 0.97855 0.39659 0.0
C450 C 0.0959 0.03625 0.50066 0.0
C451 C 0.09113 0.03882 0.5624 0.0
C452 C 0.09633 0.02207 0.47636 0.0
C453 C 0.09175 0.01009 0.51283 0.0
C454 C 0.08712 0.0127 0.57504 0.0
C455 C 0.08692 0.0269 0.5997 0.0
H456 H 0.21533 0.81613 0.76298 0.0
H457 H 0.22128 0.85879 0.84615 0.0
H458 H 0.24028 0.81687 0.7225 0.0
H459 H 0.24632 0.8596 0.80443 0.0
H460 H 0.28368 0.85935 0.64859 0.0
H461 H 0.25866 0.85962 0.69069 0.0
H462 H 0.2659 0.8173 0.77471 0.0
H463 H 0.29081 0.8171 0.73383 0.0
C464 C 0.22199 0.82567 0.77265 0.0
C465 C 0.21639 0.83738 0.80795 0.0
C466 C 0.23626 0.82607 0.74953 0.0
C467 C 0.2452 0.8383 0.76027 0.0
C468 C 0.23961 0.85009 0.79519 0.0
C469 C 0.22535 0.84957 0.81939 0.0
C470 C 0.27988 0.85012 0.67594 0.0
C471 C 0.28916 0.83819 0.68779 0.0
C472 C 0.26564 0.85033 0.70035 0.0
C473 C 0.26039 0.83848 0.73591 0.0
C474 C 0.26965 0.82653 0.74718 0.0
C475 C 0.28391 0.82644 0.72384 0.0
H476 H 0.43509 0.0446 0.01482 0.0
H477 H 0.39877 0.03328 0.89455 0.0
H478 H 0.43484 0.01995 0.05915 0.0
H479 H 0.39836 0.00863 0.9401 0.0
H480 H 0.39456 0.97169 0.09456 0.0
H481 H 0.39392 0.99684 0.05406 0.0
H482 H 0.43985 0.99409 0.00934 0.0
H483 H 0.44045 0.96899 0.04832 0.0
C484 C 0.427 0.03686 0.99811 0.0
C485 C 0.41698 0.04083 0.95106 0.0
C486 C 0.42689 0.02277 0.02342 0.0
C487 C 0.41656 0.01244 0.00312 0.0
C488 C 0.40636 0.01645 0.95685 0.0
C489 C 0.40666 0.03049 0.93056 0.0
C490 C 0.40452 0.97652 0.07644 0.0
C491 C 0.41756 0.96842 0.07462 0.0
C492 C 0.40412 0.99084 0.05296 0.0
C493 C 0.41684 0.99736 0.02862 0.0
C494 C 0.42992 0.98934 0.02817 0.0
C495 C 0.43025 0.97498 0.05036 0.0
H496 H 0.78424 0.8589 0.84966 0.0
H497 H 0.79118 0.81663 0.76432 0.0
H498 H 0.75931 0.85942 0.80651 0.0
H499 H 0.76629 0.81704 0.72276 0.0
H500 H 0.71531 0.8169 0.73878 0.0
H501 H 0.7403 0.81739 0.77905 0.0
H502 H 0.74753 0.85894 0.6883 0.0
H503 H 0.72247 0.85833 0.64647 0.0
C504 C 0.78041 0.84972 0.82206 0.0
C505 C 0.78961 0.83772 0.81042 0.0
C506 C 0.76623 0.85007 0.79708 0.0
C507 C 0.76094 0.83827 0.76135 0.0
C508 C 0.77011 0.82624 0.75031 0.0
C509 C 0.78434 0.82603 0.77404 0.0
C510 C 0.72224 0.82612 0.72715 0.0
C511 C 0.71698 0.83756 0.68931 0.0
C512 C 0.73653 0.82638 0.75014 0.0
C513 C 0.74578 0.83821 0.73684 0.0
C514 C 0.74054 0.84974 0.69944 0.0
C515 C 0.72628 0.84934 0.67525 0.0
H516 H 0.91019 0.97708 0.3479 0.0
H517 H 0.92015 0.96157 0.53468 0.0
H518 H 0.90927 1.00217 0.38763 0.0
H519 H 0.91956 0.98652 0.57401 0.0
H520 H 0.9045 0.03159 0.63699 0.0
H521 H 0.90329 0.00668 0.59568 0.0
H522 H 0.92574 0.02071 0.42754 0.0
H523 H 0.92664 0.04558 0.4682 0.0
C524 C 0.91218 0.97903 0.39736 0.0
C525 C 0.91526 0.96736 0.4381 0.0
C526 C 0.91173 0.9934 0.42012 0.0
C527 C 0.91434 0.99638 0.48409 0.0
C528 C 0.91728 0.98464 0.52474 0.0
C529 C 0.91772 0.97032 0.50204 0.0
C530 C 0.90912 0.02934 0.59115 0.0
C531 C 0.91569 0.04053 0.55595 0.0
C532 C 0.90849 0.01506 0.56755 0.0
C533 C 0.91443 0.01167 0.50824 0.0
C534 C 0.92087 0.02295 0.47292 0.0
C535 C 0.92149 0.03719 0.49648 0.0
H536 H 0.71329 0.18701 0.25177 0.0
H537 H 0.72212 0.14758 0.35677 0.0
H538 H 0.73821 0.18676 0.21087 0.0
H539 H 0.74714 0.14722 0.31454 0.0
H540 H 0.78418 0.14564 0.15673 0.0
H541 H 0.75923 0.14492 0.19949 0.0
H542 H 0.76394 0.18942 0.26374 0.0
H543 H 0.78883 0.19008 0.22236 0.0
C544 C 0.72057 0.17827 0.26605 0.0
C545 C 0.71579 0.16734 0.30763 0.0
C546 C 0.73482 0.17815 0.2427 0.0
C547 C 0.74456 0.16696 0.25951 0.0
C548 C 0.73979 0.15591 0.30062 0.0
C549 C 0.72555 0.15618 0.32503 0.0
C550 C 0.77984 0.15526 0.17985 0.0
C551 C 0.7884 0.16793 0.18607 0.0
C552 C 0.76565 0.1548 0.20467 0.0
C553 C 0.75971 0.16711 0.23489 0.0
C554 C 0.76824 0.1798 0.24043 0.0
C555 C 0.78248 0.18017 0.2168 0.0
H556 H 0.58201 0.04413 0.03024 0.0
H557 H 0.59603 0.0281 0.84916 0.0
H558 H 0.58255 0.0194 0.07194 0.0
H559 H 0.59693 0.00324 0.89142 0.0
H560 H 0.5798 0.95956 0.9694 0.0
H561 H 0.58056 0.98426 0.92693 0.0
H562 H 0.59883 0.99994 0.10167 0.0
H563 H 0.59772 0.97519 0.14471 0.0
C564 C 0.58531 0.03531 -0.00061 0.0
C565 C 0.58894 0.03807 0.9363 0.0
C566 C 0.58573 0.02112 0.02349 0.0
C567 C 0.58982 0.00929 0.98518 0.0
C568 C 0.59356 0.01207 0.92208 0.0
C569 C 0.59312 0.02631 0.89789 0.0
C570 C 0.58399 0.96828 0.99878 0.0
C571 C 0.58864 0.96544 0.06055 0.0
C572 C 0.58454 0.98244 0.97421 0.0
C573 C 0.58977 0.99412 0.01075 0.0
C574 C 0.59455 0.99124 0.07245 0.0
C575 C 0.59398 0.97705 0.09709 0.0
H576 H 0.71023 0.67535 0.77785 0.0
H577 H 0.72476 0.65531 0.60505 0.0
H578 H 0.73509 0.67447 0.8187 0.0
H579 H 0.74967 0.65418 0.64642 0.0
H580 H 0.79429 0.67186 0.7113 0.0
H581 H 0.76936 0.67099 0.67169 0.0
H582 H 0.75403 0.65778 0.85511 0.0
H583 H 0.77909 0.65892 0.89518 0.0
C584 C 0.71874 0.67067 0.74869 0.0
C585 C 0.71555 0.66546 0.68807 0.0
C586 C 0.73298 0.67006 0.77235 0.0
C587 C 0.74439 0.66425 0.73591 0.0
C588 C 0.74116 0.65888 0.67546 0.0
C589 C 0.72689 0.65947 0.65181 0.0
C590 C 0.78561 0.66873 0.74323 0.0
C591 C 0.78865 0.6655 0.80648 0.0
C592 C 0.77132 0.66812 0.72034 0.0
C593 C 0.75967 0.66429 0.76011 0.0
C594 C 0.76273 0.66093 0.82336 0.0
C595 C 0.77708 0.66151 0.84629 0.0
H596 H 0.56977 0.46264 0.00347 0.0
H597 H 0.60793 0.47286 0.8923 0.0
H598 H 0.56983 0.48739 0.04621 0.0
H599 H 0.6081 0.4977 0.93623 0.0
H600 H 0.61026 0.53498 0.09063 0.0
H601 H 0.61121 0.50988 0.04959 0.0
H602 H 0.56583 0.51299 0.99559 0.0
H603 H 0.56492 0.538 0.03534 0.0
C604 C 0.5782 0.47017 0.98831 0.0
C605 C 0.58882 0.46585 0.94436 0.0
C606 C 0.57821 0.48433 0.01273 0.0
C607 C 0.58897 0.49442 0.99456 0.0
C608 C 0.59974 0.49007 0.95128 0.0
C609 C 0.59958 0.47593 0.92589 0.0
C610 C 0.60049 0.53024 0.0703 0.0
C611 C 0.58751 0.5384 0.06628 0.0
C612 C 0.60107 0.51596 0.04646 0.0
C613 C 0.58859 0.50955 0.01944 0.0
C614 C 0.57558 0.51765 0.01649 0.0
C615 C 0.57507 0.53196 0.03917 0.0
H616 H 0.72684 0.34775 0.39185 0.0
H617 H 0.7116 0.32915 0.21722 0.0
H618 H 0.75169 0.34862 0.34991 0.0
H619 H 0.73641 0.32965 0.17589 0.0
H620 H 0.78039 0.34503 0.09894 0.0
H621 H 0.75542 0.34579 0.1399 0.0
H622 H 0.77128 0.33239 0.3223 0.0
H623 H 0.79615 0.33201 0.28183 0.0
C624 C 0.72881 0.34381 0.34461 0.0
C625 C 0.71727 0.33836 0.30792 0.0
C626 C 0.74306 0.34423 0.32062 0.0
C627 C 0.74609 0.33918 0.25946 0.0
C628 C 0.73448 0.33383 0.22277 0.0
C629 C 0.72025 0.33344 0.24668 0.0
C630 C 0.77851 0.34228 0.14778 0.0
C631 C 0.79023 0.33846 0.18711 0.0
C632 C 0.7642 0.34265 0.17124 0.0
C633 C 0.76131 0.33916 0.23452 0.0
C634 C 0.77309 0.33537 0.27368 0.0
C635 C 0.78736 0.33505 0.25031 0.0
H636 H 0.92402 0.46136 0.46379 0.0
H637 H 0.91101 0.47734 0.64634 0.0
H638 H 0.92372 0.48619 0.42287 0.0
H639 H 0.91032 0.50226 0.60494 0.0
H640 H 0.92726 0.54592 0.52769 0.0
H641 H 0.92664 0.52111 0.56899 0.0
H642 H 0.90765 0.50592 0.39486 0.0
H643 H 0.90865 0.53078 0.35294 0.0
C644 C 0.92099 0.47019 0.49513 0.0
C645 C 0.91758 0.4674 0.55839 0.0
C646 C 0.92071 0.48444 0.47149 0.0
C647 C 0.91697 0.49627 0.51047 0.0
C648 C 0.91344 0.49344 0.57375 0.0
C649 C 0.91376 0.47916 0.59747 0.0
C650 C 0.92295 0.53729 0.49819 0.0
C651 C 0.91805 0.5403 0.43694 0.0
C652 C 0.92248 0.52306 0.52208 0.0
C653 C 0.91707 0.51149 0.48539 0.0
C654 C 0.91207 0.51453 0.42417 0.0
C655 C 0.91257 0.52878 0.40019 0.0
H656 H 0.29639 0.33025 0.21457 0.0
H657 H 0.28177 0.34776 0.39222 0.0
H658 H 0.2715 0.3312 0.17454 0.0
H659 H 0.25679 0.34906 0.35158 0.0
H660 H 0.21214 0.33261 0.28237 0.0
H661 H 0.23704 0.333 0.32246 0.0
H662 H 0.25255 0.34781 0.14155 0.0
H663 H 0.22755 0.34706 0.10093 0.0
C664 C 0.28785 0.3344 0.245 0.0
C665 C 0.29103 0.33889 0.30668 0.0
C666 C 0.27358 0.33505 0.22182 0.0
C667 C 0.26211 0.34024 0.25968 0.0
C668 C 0.26532 0.34484 0.32135 0.0
C669 C 0.27964 0.34415 0.34462 0.0
C670 C 0.22086 0.33598 0.25112 0.0
C671 C 0.21789 0.33976 0.18838 0.0
C672 C 0.23514 0.33631 0.2743 0.0
C673 C 0.24683 0.34045 0.23536 0.0
C674 C 0.24383 0.34438 0.17266 0.0
C675 C 0.22951 0.34403 0.1494 0.0
H676 H 0.42446 0.5464 0.96402 0.0
H677 H 0.40953 0.53022 0.14347 0.0
H678 H 0.42417 0.52161 0.922 0.0
H679 H 0.40885 0.50543 0.10104 0.0
H680 H 0.42594 0.46177 0.02752 0.0
H681 H 0.42535 0.4866 0.06809 0.0
H682 H 0.40822 0.5019 0.89065 0.0
H683 H 0.40918 0.47694 0.84938 0.0
C684 C 0.42103 0.53754 0.9944 0.0
C685 C 0.41708 0.54025 0.05717 0.0
C686 C 0.42075 0.52333 0.97014 0.0
C687 C 0.41649 0.51149 0.00804 0.0
C688 C 0.41239 0.51425 0.07073 0.0
C689 C 0.41272 0.52847 0.09503 0.0
C690 C 0.42202 0.47042 0.99708 0.0
C691 C 0.41762 0.4674 0.93517 0.0
C692 C 0.42159 0.48467 0.02056 0.0
C693 C 0.41668 0.49628 0.98283 0.0
C694 C 0.41222 0.49325 0.92082 0.0
C695 C 0.41269 0.47895 0.89721 0.0
H696 H 0.29338 0.68695 0.75914 0.0
H697 H 0.28227 0.6512 0.63544 0.0
H698 H 0.26864 0.68648 0.80277 0.0
H699 H 0.25757 0.6505 0.68059 0.0
H700 H 0.22168 0.6459 0.84293 0.0
H701 H 0.24664 0.64571 0.80004 0.0
H702 H 0.24218 0.69111 0.74852 0.0
H703 H 0.2172 0.69122 0.78954 0.0
C704 C 0.28566 0.67896 0.74147 0.0
C705 C 0.28971 0.66915 0.69374 0.0
C706 C 0.27153 0.67871 0.7664 0.0
C707 C 0.26128 0.66842 0.74511 0.0
C708 C 0.26534 0.65847 0.69798 0.0
C709 C 0.27941 0.65894 0.67196 0.0
C710 C 0.22608 0.65583 0.82264 0.0
C711 C 0.21755 0.66858 0.81957 0.0
C712 C 0.24028 0.65569 0.79784 0.0
C713 C 0.24625 0.6684 0.77104 0.0
C714 C 0.23781 0.6812 0.76913 0.0
C715 C 0.22354 0.68124 0.7925 0.0
H716 H 0.06952 0.46333 0.49862 0.0
H717 H 0.1083 0.47253 0.60747 0.0
H718 H 0.06998 0.48816 0.45657 0.0
H719 H 0.10888 0.49742 0.56413 0.0
H720 H 0.1112 0.53464 0.40846 0.0
H721 H 0.11174 0.50952 0.44939 0.0
H722 H 0.0669 0.51389 0.50947 0.0
H723 H 0.06642 0.53894 0.46999 0.0
C724 C 0.07817 0.47066 0.51341 0.0
C725 C 0.08884 0.46603 0.55653 0.0
C726 C 0.07841 0.48485 0.48939 0.0
C727 C 0.08947 0.49466 0.50706 0.0
C728 C 0.1003 0.49001 0.5495 0.0
C729 C 0.0999 0.47584 0.57455 0.0
C730 C 0.10147 0.53018 0.43019 0.0
C731 C 0.08876 0.53871 0.43598 0.0
C732 C 0.10182 0.51588 0.45393 0.0
C733 C 0.08936 0.50982 0.48255 0.0
C734 C 0.07662 0.51829 0.48735 0.0
C735 C 0.07636 0.53262 0.46484 0.0
H736 H 0.16998 0.13582 0.94376 0.0
H737 H 0.1302 0.15631 0.0085 0.0
H738 H 0.15571 0.1208 0.8707 0.0
H739 H 0.11601 0.14115 0.93756 0.0
H740 H 0.0962 0.1235 0.7582 0.0
H741 H 0.11098 0.13818 0.82887 0.0
H742 H 0.1382 0.10066 0.86812 0.0
H743 H 0.12352 0.08599 0.79534 0.0
C744 C 0.15822 0.13716 0.94218 0.0
C745 C 0.15123 0.14732 0.98156 0.0
C746 C 0.15002 0.12846 0.90085 0.0
C747 C 0.13469 0.12975 0.89816 0.0
C748 C 0.12779 0.14 0.93748 0.0
C749 C 0.13595 0.14868 0.97842 0.0
C750 C 0.10526 0.11832 0.78223 0.0
C751 C 0.10863 0.10355 0.77143 0.0
C752 C 0.11374 0.12674 0.82298 0.0
C753 C 0.1258 0.12062 0.85442 0.0
C754 C 0.12911 0.10578 0.8441 0.0
C755 C 0.12061 0.09732 0.80298 0.0
H756 H 0.12887 0.85184 0.96989 0.0
H757 H 0.16892 0.86782 0.05258 0.0
H758 H 0.11475 0.86724 0.04018 0.0
H759 H 0.15468 0.88309 0.1247 0.0
H760 H 0.12447 0.91942 0.20022 0.0
H761 H 0.13888 0.90465 0.1269 0.0
H762 H 0.10813 0.86913 0.14825 0.0
H763 H 0.09366 0.88394 0.21973 0.0
C764 C 0.13467 0.85853 0.00367 0.0
C765 C 0.15003 0.85855 0.00584 0.0
C766 C 0.12655 0.86736 0.0442 0.0
C767 C 0.13354 0.87642 0.08829 0.0
C768 C 0.14893 0.87638 0.09079 0.0
C769 C 0.1571 0.86753 0.04996 0.0
C770 C 0.12072 0.90852 0.18847 0.0
C771 C 0.10788 0.90288 0.21544 0.0
C772 C 0.12906 0.9 0.14705 0.0
C773 C 0.12471 0.88567 0.13173 0.0
C774 C 0.11173 0.88017 0.15819 0.0
C775 C 0.10343 0.88867 0.19936 0.0
H776 H 0.39857 0.91751 0.34003 0.0
H777 H 0.39078 0.88388 0.20155 0.0
H778 H 0.38388 0.90372 0.41634 0.0
H779 H 0.37599 0.87034 0.2771 0.0
H780 H 0.33789 0.85913 0.41455 0.0
H781 H 0.35151 0.87399 0.33824 0.0
H782 H 0.38699 0.87832 0.47061 0.0
H783 H 0.37362 0.86335 0.54602 0.0
C784 C 0.3937 0.90723 0.32591 0.0
C785 C 0.3959 0.90173 0.26504 0.0
C786 C 0.38532 0.89935 0.36946 0.0
C787 C 0.37876 0.886 0.35242 0.0
C788 C 0.38079 0.88065 0.29128 0.0
C789 C 0.38937 0.88836 0.24826 0.0
C790 C 0.3486 0.86324 0.42713 0.0
C791 C 0.35473 0.86 0.486 0.0
C792 C 0.35638 0.87172 0.38359 0.0
C793 C 0.37027 0.87735 0.39876 0.0
C794 C 0.37626 0.87426 0.45793 0.0
C795 C 0.36864 0.86558 0.50083 0.0
H796 H 0.40759 0.12124 0.7252 0.0
H797 H 0.37852 0.08405 0.72146 0.0
H798 H 0.39131 0.13442 0.65476 0.0
H799 H 0.36199 0.09739 0.65154 0.0
H800 H 0.34459 0.12186 0.47441 0.0
H801 H 0.35972 0.10742 0.54569 0.0
H802 H 0.36747 0.14588 0.65874 0.0
H803 H 0.35261 0.16035 0.5868 0.0
C804 C 0.39775 0.11584 0.709 0.0
C805 C 0.39435 0.1016 0.72893 0.0
C806 C 0.38832 0.12346 0.66912 0.0
C807 C 0.37521 0.11706 0.64818 0.0
C808 C 0.37201 0.10263 0.6666 0.0
C809 C 0.38148 0.09498 0.70663 0.0
C810 C 0.34935 0.12718 0.51503 0.0
C811 C 0.34745 0.14226 0.52484 0.0
C812 C 0.35802 0.11889 0.55593 0.0
C813 C 0.36499 0.12552 0.60749 0.0
C814 C 0.36254 0.14049 0.61872 0.0
C815 C 0.35388 0.14876 0.57785 0.0
H816 H 0.87607 0.85024 0.9878 0.0
H817 H 0.83611 0.86918 0.05879 0.0
H818 H 0.89023 0.86541 0.05891 0.0
H819 H 0.85036 0.88424 0.13177 0.0
H820 H 0.88188 0.91966 0.2066 0.0
H821 H 0.86734 0.90491 0.13362 0.0
H822 H 0.8957 0.86798 0.16796 0.0
H823 H 0.91032 0.88274 0.23912 0.0
C824 C 0.87028 0.85754 0.01924 0.0
C825 C 0.85495 0.85846 0.01783 0.0
C826 C 0.87842 0.86623 0.06024 0.0
C827 C 0.87147 0.87606 0.10125 0.0
C828 C 0.85609 0.87691 0.10028 0.0
C829 C 0.84791 0.86819 0.05898 0.0
C830 C 0.88507 0.90844 0.19787 0.0
C831 C 0.8973 0.9024 0.22829 0.0
C832 C 0.87666 0.89994 0.15662 0.0
C833 C 0.88032 0.88523 0.14494 0.0
C834 C 0.89265 0.87931 0.17504 0.0
C835 C 0.90104 0.88778 0.21604 0.0
H836 H 0.83915 0.15 0.90924 0.0
H837 H 0.87037 0.1386 0.05335 0.0
H838 H 0.85308 0.13539 0.83294 0.0
H839 H 0.88398 0.12383 0.97787 0.0
H840 H 0.89444 0.08681 0.83256 0.0
H841 H 0.87921 0.1002 0.90832 0.0
H842 H 0.88009 0.13814 0.78795 0.0
H843 H 0.89551 0.125 0.71331 0.0
C844 C 0.8489 0.1443 0.92462 0.0
C845 C 0.85374 0.14551 0.987 0.0
C846 C 0.85686 0.13598 0.88111 0.0
C847 C 0.86956 0.12846 0.89975 0.0
C848 C 0.87417 0.12941 0.96245 0.0
C849 C 0.86643 0.13795 0.00543 0.0
C850 C 0.89142 0.09802 0.82257 0.0
C851 C 0.89626 0.1049 0.76737 0.0
C852 C 0.88271 0.10565 0.86573 0.0
C853 C 0.87842 0.12015 0.8536 0.0
C854 C 0.88312 0.12693 0.79807 0.0
C855 C 0.89205 0.11944 0.75573 0.0
H856 H 0.59521 0.12291 0.7377 0.0
H857 H 0.62235 0.08536 0.6988 0.0
H858 H 0.60989 0.13762 0.66663 0.0
H859 H 0.63694 0.10006 0.62587 0.0
H860 H 0.66883 0.13513 0.5511 0.0
H861 H 0.65451 0.12017 0.62408 0.0
H862 H 0.61489 0.14071 0.55749 0.0
H863 H 0.62914 0.15579 0.48633 0.0
C864 C 0.60421 0.11773 0.71325 0.0
C865 C 0.60757 0.10294 0.72368 0.0
C866 C 0.61263 0.12617 0.67228 0.0
C867 C 0.62462 0.12005 0.64036 0.0
C868 C 0.6279 0.10519 0.65028 0.0
C869 C 0.61946 0.09672 0.69151 0.0
C870 C 0.65707 0.13652 0.55267 0.0
C871 C 0.65014 0.1467 0.51323 0.0
C872 C 0.64885 0.12785 0.59397 0.0
C873 C 0.63352 0.1292 0.59669 0.0
C874 C 0.62666 0.13949 0.55746 0.0
C875 C 0.63486 0.14813 0.51642 0.0
H876 H 0.62998 0.84904 0.51489 0.0
H877 H 0.66959 0.86941 0.44757 0.0
H878 H 0.61561 0.86404 0.4439 0.0
H879 H 0.65513 0.88431 0.37477 0.0
H880 H 0.6227 0.91901 0.30026 0.0
H881 H 0.63747 0.90449 0.37327 0.0
H882 H 0.61052 0.86676 0.33447 0.0
H883 H 0.59568 0.88126 0.26333 0.0
C884 C 0.63565 0.85662 0.4843 0.0
C885 C 0.65094 0.85798 0.48667 0.0
C886 C 0.62739 0.86521 0.44337 0.0
C887 C 0.63419 0.87539 0.40345 0.0
C888 C 0.64952 0.8767 0.40541 0.0
C889 C 0.65782 0.86807 0.4466 0.0
C890 C 0.61987 0.90766 0.30803 0.0
C891 C 0.60796 0.90132 0.27638 0.0
C892 C 0.62842 0.8993 0.34929 0.0
C893 C 0.62521 0.88443 0.35975 0.0
C894 C 0.6132 0.8782 0.32837 0.0
C895 C 0.60469 0.88653 0.28737 0.0
H896 H 0.66861 0.64454 0.41114 0.0
H897 H 0.63073 0.64577 0.53216 0.0
H898 H 0.65483 0.62973 0.33512 0.0
H899 H 0.61719 0.63076 0.45725 0.0
H900 H 0.60489 0.59003 0.33486 0.0
H901 H 0.61963 0.60381 0.41112 0.0
H902 H 0.631 0.63494 0.26685 0.0
H903 H 0.6161 0.62146 0.19134 0.0
C904 C 0.65739 0.64163 0.42147 0.0
C905 C 0.65071 0.64639 0.47725 0.0
C906 C 0.64953 0.63317 0.37815 0.0
C907 C 0.635 0.62905 0.3907 0.0
C908 C 0.62842 0.63367 0.44678 0.0
C909 C 0.63614 0.64236 0.48931 0.0
C910 C 0.61055 0.5998 0.31962 0.0
C911 C 0.60928 0.60472 0.25737 0.0
C912 C 0.61895 0.60768 0.36311 0.0
C913 C 0.62648 0.62038 0.34461 0.0
C914 C 0.62541 0.62512 0.28213 0.0
C915 C 0.61679 0.61745 0.23914 0.0
H916 H 0.62168 0.41974 0.69547 0.0
H917 H 0.60048 0.38019 0.7586 0.0
H918 H 0.63662 0.40533 0.62258 0.0
H919 H 0.61555 0.36587 0.68788 0.0
H920 H 0.633 0.34607 0.50837 0.0
H921 H 0.61852 0.36101 0.57907 0.0
H922 H 0.65649 0.38747 0.62008 0.0
H923 H 0.67099 0.37262 0.54723 0.0
C924 C 0.62017 0.40801 0.69358 0.0
C925 C 0.60983 0.40112 0.73243 0.0
C926 C 0.62883 0.39973 0.65236 0.0
C927 C 0.62729 0.38442 0.64927 0.0
C928 C 0.61688 0.37763 0.68811 0.0
C929 C 0.60825 0.38587 0.72892 0.0
C930 C 0.63833 0.35499 0.53279 0.0
C931 C 0.65317 0.35811 0.52246 0.0
C932 C 0.63001 0.36356 0.57355 0.0
C933 C 0.63632 0.37545 0.60551 0.0
C934 C 0.65124 0.37851 0.59567 0.0
C935 C 0.65958 0.36991 0.55451 0.0
H936 H 0.91405 0.3905 0.80146 0.0
H937 H 0.87647 0.41676 0.75355 0.0
H938 H 0.89911 0.3761 0.87306 0.0
H939 H 0.86127 0.40192 0.82268 0.0
H940 H 0.84057 0.38016 0.99491 0.0
H941 H 0.85518 0.39559 0.92581 0.0
H942 H 0.88115 0.35802 0.87318 0.0
H943 H 0.86698 0.34285 0.94478 0.0
C944 C 0.90257 0.3932 0.8064 0.0
C945 C 0.89644 0.40477 0.77202 0.0
C946 C 0.89393 0.38483 0.84691 0.0
C947 C 0.87886 0.38764 0.85328 0.0
C948 C 0.87283 0.39947 0.81976 0.0
C949 C 0.88154 0.40799 0.77994 0.0
C950 C 0.84932 0.3752 0.96804 0.0
C951 C 0.85265 0.36031 0.97532 0.0
C952 C 0.85771 0.38405 0.92823 0.0
C953 C 0.86951 0.37816 0.89407 0.0
C954 C 0.87244 0.36309 0.89982 0.0
C955 C 0.8642 0.35432 0.94034 0.0
H956 H 0.9091 0.62501 0.24087 0.0
H957 H 0.88461 0.58609 0.19481 0.0
H958 H 0.894 0.63919 0.16962 0.0
H959 H 0.86966 0.60027 0.12135 0.0
H960 H 0.83619 0.63365 0.0454 0.0
H961 H 0.85093 0.61903 0.11808 0.0
H962 H 0.88951 0.6429 0.06135 0.0
H963 H 0.87479 0.65768 0.99089 0.0
C964 C 0.9006 0.61943 0.21475 0.0
C965 C 0.8981 0.60441 0.2233 0.0
C966 C 0.89195 0.62757 0.17362 0.0
C967 C 0.88059 0.62091 0.13948 0.0
C968 C 0.87818 0.60581 0.14746 0.0
C969 C 0.88684 0.59764 0.18901 0.0
C970 C 0.8478 0.63583 0.0491 0.0
C971 C 0.8543 0.64689 0.0128 0.0
C972 C 0.85628 0.62736 0.09021 0.0
C973 C 0.87144 0.62976 0.09569 0.0
C974 C 0.87785 0.64088 0.05932 0.0
C975 C 0.8694 0.64935 0.01866 0.0
H976 H 0.3376 0.37114 0.54688 0.0
H977 H 0.37685 0.34803 0.49357 0.0
H978 H 0.35185 0.38608 0.62015 0.0
H979 H 0.39108 0.36312 0.56481 0.0
H980 H 0.40995 0.38173 0.74467 0.0
H981 H 0.3953 0.36706 0.67341 0.0
H982 H 0.37012 0.4053 0.62334 0.0
H983 H 0.38463 0.41997 0.69667 0.0
C984 C 0.34925 0.36922 0.55099 0.0
C985 C 0.35608 0.35834 0.51476 0.0
C986 C 0.35744 0.37787 0.59246 0.0
C987 C 0.37265 0.37584 0.59846 0.0
C988 C 0.37939 0.36487 0.56232 0.0
C989 C 0.37122 0.35622 0.52122 0.0
C990 C 0.40136 0.38706 0.71817 0.0
C991 C 0.3985 0.40204 0.72613 0.0
C992 C 0.39296 0.37864 0.67705 0.0
C993 C 0.38151 0.38497 0.64238 0.0
C994 C 0.37872 0.40001 0.64987 0.0
C995 C 0.38713 0.40846 0.69137 0.0
H996 H 0.36645 0.66358 0.4486 0.0
H997 H 0.33818 0.62717 0.49184 0.0
H998 H 0.38067 0.64811 0.37848 0.0
H999 H 0.35279 0.61141 0.42403 0.0
H1000 H 0.37499 0.59038 0.2527 0.0
H1001 H 0.35967 0.60533 0.32095 0.0
H1002 H 0.39792 0.62925 0.38185 0.0
H1003 H 0.41303 0.61475 0.31127 0.0
C1004 C 0.36325 0.65225 0.44287 0.0
C1005 C 0.35119 0.6466 0.4756 0.0
C1006 C 0.37151 0.6433 0.40326 0.0
C1007 C 0.36808 0.62838 0.39614 0.0
C1008 C 0.35573 0.62284 0.42772 0.0
C1009 C 0.34734 0.63187 0.46671 0.0
C1010 C 0.38012 0.59873 0.2813 0.0
C1011 C 0.3952 0.60142 0.27656 0.0
C1012 C 0.37134 0.60731 0.32056 0.0
C1013 C 0.37747 0.61869 0.35657 0.0
C1014 C 0.3927 0.6209 0.35364 0.0
C1015 C 0.40142 0.61246 0.31375 0.0
H1016 H 0.16848 0.64755 0.09219 0.0
H1017 H 0.13376 0.64143 0.95715 0.0
H1018 H 0.15482 0.63274 0.16856 0.0
H1019 H 0.12035 0.62653 0.03265 0.0
H1020 H 0.10877 0.58813 0.16715 0.0
H1021 H 0.12369 0.60165 0.09078 0.0
H1022 H 0.12984 0.63627 0.226 0.0
H1023 H 0.11482 0.623 0.30153 0.0
C1024 C 0.15799 0.64301 0.07882 0.0
C1025 C 0.15214 0.64572 0.01896 0.0
C1026 C 0.15019 0.63457 0.12238 0.0
C1027 C 0.13657 0.62846 0.10628 0.0
C1028 C 0.13088 0.63098 0.04607 0.0
C1029 C 0.13852 0.63962 0.0031 0.0
C1030 C 0.11331 0.59863 0.18036 0.0
C1031 C 0.11055 0.60455 0.24005 0.0
C1032 C 0.12182 0.60635 0.1368 0.0
C1033 C 0.12797 0.61996 0.15274 0.0
C1034 C 0.12537 0.62575 0.21273 0.0
C1035 C 0.11666 0.61819 0.2557 0.0
H1036 H 0.12088 0.41994 0.80471 0.0
H1037 H 0.09998 0.38022 0.74162 0.0
H1038 H 0.13587 0.40568 0.87785 0.0
H1039 H 0.11509 0.36603 0.81278 0.0
H1040 H 0.13289 0.34648 0.99267 0.0
H1041 H 0.1182 0.36122 0.92183 0.0
H1042 H 0.15589 0.388 0.88 0.0
H1043 H 0.17057 0.37336 0.95282 0.0
C1044 C 0.11944 0.4082 0.80668 0.0
C1045 C 0.10918 0.40122 0.76771 0.0
C1046 C 0.12812 0.4 0.84807 0.0
C1047 C 0.12671 0.38468 0.85126 0.0
C1048 C 0.11635 0.37781 0.81242 0.0
C1049 C 0.10769 0.38596 0.77137 0.0
C1050 C 0.1381 0.35544 0.96805 0.0
C1051 C 0.15292 0.3587 0.97813 0.0
C1052 C 0.12967 0.36389 0.92721 0.0
C1053 C 0.13584 0.37581 0.89502 0.0
C1054 C 0.15073 0.37901 0.90462 0.0
C1055 C 0.15919 0.37054 0.94579 0.0
H1056 H 0.16212 0.28865 0.19264 0.0
H1057 H 0.18086 0.2912 0.00677 0.0
H1058 H 0.16114 0.2622 0.18449 0.0
H1059 H 0.17943 0.26457 0.99749 0.0
H1060 H 0.14891 0.2164 0.13834 0.0
H1061 H 0.1486 0.24296 0.1335 0.0
H1062 H 0.19027 0.2425 0.03767 0.0
H1063 H 0.19025 0.21579 0.0405 0.0
C1064 C 0.16588 0.28355 0.14965 0.0
C1065 C 0.17155 0.29201 0.10033 0.0
C1066 C 0.16522 0.26835 0.14473 0.0
C1067 C 0.17008 0.2612 0.09008 0.0
C1068 C 0.17571 0.26969 0.04047 0.0
C1069 C 0.17646 0.28495 0.04561 0.0
C1070 C 0.15792 0.22197 0.11554 0.0
C1071 C 0.16965 0.21403 0.09017 0.0
C1072 C 0.15781 0.23722 0.11317 0.0
C1073 C 0.16953 0.24493 0.08613 0.0
C1074 C 0.18101 0.23695 0.05849 0.0
C1075 C 0.18104 0.22163 0.06027 0.0
H1076 H 0.96484 0.9292 0.26171 0.0
H1077 H 0.96686 0.91345 0.45274 0.0
H1078 H 0.9915 0.92825 0.25515 0.0
H1079 H 0.99339 0.91301 0.44726 0.0
H1080 H 0.03999 0.90112 0.40493 0.0
H1081 H 0.01338 0.90045 0.40253 0.0
H1082 H 0.01295 0.94022 0.2928 0.0
H1083 H 0.03963 0.94052 0.29327 0.0
C1084 C 0.97099 0.92558 0.30231 0.0
C1085 C 0.96377 0.92137 0.35766 0.0
C1086 C 0.98628 0.92511 0.29874 0.0
C1087 C 0.99466 0.92053 0.35063 0.0
C1088 C 0.98734 0.91632 0.4059 0.0
C1089 C 0.9721 0.91667 0.40925 0.0
C1090 C 0.0342 0.90965 0.37991 0.0
C1091 C 0.04188 0.9209 0.34948 0.0
C1092 C 0.01893 0.90934 0.37887 0.0
C1093 C 0.01095 0.92036 0.34798 0.0
C1094 C 0.01869 0.93145 0.31644 0.0
C1095 C 0.03399 0.93168 0.31698 0.0
H1096 H 0.32745 0.79189 0.50601 0.0
H1097 H 0.3488 0.78904 0.68655 0.0
H1098 H 0.32823 0.76524 0.49667 0.0
H1099 H 0.34916 0.76258 0.67843 0.0
H1100 H 0.35844 0.71602 0.63207 0.0
H1101 H 0.35994 0.74254 0.62579 0.0
H1102 H 0.317 0.74386 0.54104 0.0
H1103 H 0.31579 0.7172 0.54528 0.0
C1104 C 0.33237 0.78557 0.54351 0.0
C1105 C 0.33809 0.79256 0.59694 0.0
C1106 C 0.33272 0.7703 0.53842 0.0
C1107 C 0.33877 0.7617 0.58676 0.0
C1108 C 0.34467 0.76879 0.63968 0.0
C1109 C 0.34438 0.784 0.64457 0.0
C1110 C 0.34939 0.72197 0.61145 0.0
C1111 C 0.33695 0.71455 0.58956 0.0
C1112 C 0.3502 0.7372 0.60821 0.0
C1113 C 0.33851 0.74541 0.5837 0.0
C1114 C 0.32627 0.73792 0.5597 0.0
C1115 C 0.32553 0.72263 0.56239 0.0
H1116 H 0.46459 0.06484 0.7938 0.0
H1117 H 0.46544 0.10684 0.88631 0.0
H1118 H 0.49131 0.06478 0.79002 0.0
H1119 H 0.49199 0.10709 0.88048 0.0
H1120 H 0.53786 0.09421 0.93878 0.0
H1121 H 0.51139 0.09501 0.93198 0.0
H1122 H 0.51328 0.07533 0.74745 0.0
H1123 H 0.53996 0.07409 0.75547 0.0
C1124 C 0.47048 0.07418 0.81224 0.0
C1125 C 0.46295 0.08578 0.84089 0.0
C1126 C 0.4858 0.07418 0.80989 0.0
C1127 C 0.49386 0.08585 0.83571 0.0
C1128 C 0.4862 0.09775 0.86158 0.0
C1129 C 0.47095 0.09766 0.86452 0.0
C1130 C 0.53265 0.0901 0.8966 0.0
C1131 C 0.541 0.08411 0.84762 0.0
C1132 C 0.51744 0.09065 0.89245 0.0
C1133 C 0.51014 0.08535 0.83889 0.0
C1134 C 0.51851 0.0794 0.78962 0.0
C1135 C 0.53379 0.07875 0.79401 0.0
H1136 H 0.15954 0.78725 0.80426 0.0
H1137 H 0.17604 0.79112 0.99362 0.0
H1138 H 0.15856 0.7609 0.81521 0.0
H1139 H 0.17454 0.76454 0.0058 0.0
H1140 H 0.18706 0.7159 0.96918 0.0
H1141 H 0.18614 0.74257 0.97116 0.0
H1142 H 0.14607 0.74148 0.86341 0.0
H1143 H 0.14742 0.71492 0.85921 0.0
C1144 C 0.16277 0.78246 0.8487 0.0
C1145 C 0.16787 0.79127 0.89808 0.0
C1146 C 0.16209 0.76731 0.85522 0.0
C1147 C 0.16636 0.76051 0.91161 0.0
C1148 C 0.1713 0.76936 0.96148 0.0
C1149 C 0.17208 0.78459 0.9547 0.0
C1150 C 0.17798 0.72139 0.94664 0.0
C1151 C 0.1674 0.71336 0.91348 0.0
C1152 C 0.1774 0.73669 0.94797 0.0
C1153 C 0.16614 0.74425 0.91669 0.0
C1154 C 0.15512 0.73608 0.8866 0.0
C1155 C 0.15582 0.72084 0.88458 0.0
H1156 H 0.46674 0.90913 0.0585 0.0
H1157 H 0.46432 0.92646 0.24695 0.0
H1158 H 0.49321 0.90849 0.06544 0.0
H1159 H 0.49099 0.92537 0.25494 0.0
H1160 H 0.539 0.9385 0.21069 0.0
H1161 H 0.51233 0.93742 0.21459 0.0
H1162 H 0.51328 0.89654 0.11267 0.0
H1163 H 0.53981 0.89796 0.10682 0.0
C1164 C 0.47187 0.91259 0.1019 0.0
C1165 C 0.46344 0.91785 0.15217 0.0
C1166 C 0.48709 0.91214 0.10607 0.0
C1167 C 0.4943 0.91684 0.16086 0.0
C1168 C 0.48583 0.92183 0.21176 0.0
C1169 C 0.47054 0.92236 0.2074 0.0
C1170 C 0.53348 0.92924 0.18961 0.0
C1171 C 0.54147 0.91839 0.15792 0.0
C1172 C 0.5182 0.92856 0.19212 0.0
C1173 C 0.5106 0.91695 0.16342 0.0
C1174 C 0.51871 0.90581 0.13405 0.0
C1175 C 0.53394 0.90657 0.13101 0.0
H1176 H 0.3172 0.21586 0.46003 0.0
H1177 H 0.35799 0.2146 0.35809 0.0
H1178 H 0.31817 0.2425 0.46139 0.0
H1179 H 0.35932 0.24119 0.36153 0.0
H1180 H 0.34701 0.28755 0.30363 0.0
H1181 H 0.34758 0.26109 0.31234 0.0
H1182 H 0.32975 0.26403 0.50005 0.0
H1183 H 0.32869 0.29064 0.4901 0.0
C1184 C 0.32652 0.22128 0.43896 0.0
C1185 C 0.33746 0.21316 0.40853 0.0
C1186 C 0.32712 0.23657 0.43998 0.0
C1187 C 0.33876 0.24406 0.41105 0.0
C1188 C 0.35002 0.23584 0.38303 0.0
C1189 C 0.34933 0.22058 0.38145 0.0
C1190 C 0.34327 0.28256 0.34691 0.0
C1191 C 0.33778 0.29117 0.39614 0.0
C1192 C 0.3437 0.26735 0.35215 0.0
C1193 C 0.33878 0.26035 0.40706 0.0
C1194 C 0.33347 0.26901 0.45677 0.0
C1195 C 0.33293 0.28427 0.45128 0.0
H1196 H 0.96592 0.10638 0.5898 0.0
H1197 H 0.96559 0.06832 0.70972 0.0
H1198 H 0.99253 0.1067 0.59262 0.0
H1199 H 0.99228 0.06827 0.71079 0.0
H1200 H 0.04066 0.07874 0.73827 0.0
H1201 H 0.01404 0.08032 0.74529 0.0
H1202 H 0.01213 0.09305 0.54985 0.0
H1203 H 0.03865 0.09196 0.54372 0.0
C1204 C 0.97155 0.0981 0.61693 0.0
C1205 C 0.96368 0.08729 0.64934 0.0
C1206 C 0.98682 0.0982 0.61816 0.0
C1207 C 0.99461 0.0874 0.6513 0.0
C1208 C 0.98668 0.07684 0.68527 0.0
C1209 C 0.97138 0.07682 0.68448 0.0
C1210 C 0.03452 0.08194 0.69698 0.0
C1211 C 0.04173 0.08526 0.64048 0.0
C1212 C 0.01926 0.08277 0.70086 0.0
C1213 C 0.01089 0.08685 0.6482 0.0
C1214 C 0.01819 0.09015 0.59175 0.0
C1215 C 0.03341 0.08942 0.58804 0.0
H1216 H 0.8438 0.71748 0.80156 0.0
H1217 H 0.82621 0.71433 0.98932 0.0
H1218 H 0.8448 0.7439 0.81109 0.0
H1219 H 0.82767 0.74094 -5e-05 0.0
H1220 H 0.81652 0.78984 0.96073 0.0
H1221 H 0.81657 0.76312 0.96229 0.0
H1222 H 0.85763 0.763 0.86172 0.0
H1223 H 0.85724 0.78958 0.85819 0.0
C1224 C 0.84029 0.72244 0.84524 0.0
C1225 C 0.83494 0.71382 0.89471 0.0
C1226 C 0.84097 0.73762 0.85095 0.0
C1227 C 0.83644 0.74461 0.90654 0.0
C1228 C 0.83113 0.73595 0.95627 0.0
C1229 C 0.83036 0.72071 0.95035 0.0
C1230 C 0.82562 0.78406 0.93967 0.0
C1231 C 0.8368 0.79177 0.90881 0.0
C1232 C 0.82569 0.76875 0.94071 0.0
C1233 C 0.83701 0.76086 0.91134 0.0
C1234 C 0.84855 0.76867 0.88339 0.0
C1235 C 0.84839 0.78393 0.88177 0.0
H1236 H 0.67893 0.21408 0.49021 0.0
H1237 H 0.65887 0.217 0.30698 0.0
H1238 H 0.67842 0.24077 0.49888 0.0
H1239 H 0.65886 0.24344 0.31429 0.0
H1240 H 0.64924 0.28995 0.35846 0.0
H1241 H 0.64775 0.26343 0.36439 0.0
H1242 H 0.6898 0.26223 0.45709 0.0
H1243 H 0.69092 0.2889 0.45345 0.0
C1244 C 0.6744 0.22042 0.45191 0.0
C1245 C 0.66889 0.21345 0.39806 0.0
C1246 C 0.67419 0.23571 0.45662 0.0
C1247 C 0.66855 0.24432 0.40739 0.0
C1248 C 0.66299 0.23723 0.3538 0.0
C1249 C 0.66309 0.22202 0.34937 0.0
C1250 C 0.65809 0.28402 0.38067 0.0
C1251 C 0.67024 0.29148 0.40508 0.0
C1252 C 0.6573 0.26879 0.38372 0.0
C1253 C 0.66876 0.26061 0.41039 0.0
C1254 C 0.68071 0.26814 0.43671 0.0
C1255 C 0.68141 0.28343 0.43434 0.0
H1256 H 0.82908 0.29098 0.00468 0.0
H1257 H 0.84565 0.28849 0.1943 0.0
H1258 H 0.83049 0.26436 0.99599 0.0
H1259 H 0.8465 0.26202 0.1869 0.0
H1260 H 0.8578 0.21563 0.14633 0.0
H1261 H 0.85888 0.2422 0.14143 0.0
H1262 H 0.81901 0.24267 0.03224 0.0
H1263 H 0.81837 0.21601 0.03494 0.0
C1264 C 0.833 0.28474 0.0445 0.0
C1265 C 0.83728 0.29182 0.10009 0.0
C1266 C 0.83373 0.26947 0.03971 0.0
C1267 C 0.83866 0.26097 0.09066 0.0
C1268 C 0.84297 0.26815 0.14613 0.0
C1269 C 0.84237 0.28337 0.15063 0.0
C1270 C 0.84939 0.22142 0.12054 0.0
C1271 C 0.83797 0.21376 0.09127 0.0
C1272 C 0.84992 0.23668 0.11816 0.0
C1273 C 0.83891 0.24467 0.08725 0.0
C1274 C 0.82776 0.23693 0.05599 0.0
C1275 C 0.82735 0.22163 0.05771 0.0
H1276 H 0.6887 0.71559 0.53875 0.0
H1277 H 0.64806 0.7153 0.64182 0.0
H1278 H 0.68818 0.74228 0.53621 0.0
H1279 H 0.64715 0.74187 0.63711 0.0
H1280 H 0.66016 0.78784 0.69444 0.0
H1281 H 0.65938 0.76143 0.68596 0.0
H1282 H 0.67687 0.76411 0.49759 0.0
H1283 H 0.67816 0.79076 0.50731 0.0
C1284 C 0.67952 0.72124 0.55984 0.0
C1285 C 0.6685 0.71339 0.59103 0.0
C1286 C 0.67917 0.73654 0.55813 0.0
C1287 C 0.66771 0.74429 0.58709 0.0
C1288 C 0.65635 0.73632 0.61567 0.0
C1289 C 0.6568 0.72107 0.61802 0.0
C1290 C 0.66377 0.78283 0.65101 0.0
C1291 C 0.66922 0.79139 0.60151 0.0
C1292 C 0.66322 0.76764 0.64592 0.0
C1293 C 0.66796 0.76057 0.59088 0.0
C1294 C 0.67327 0.76916 0.54092 0.0
C1295 C 0.67393 0.78443 0.54627 0.0
H1296 H 0.5414 0.44001 0.7904 0.0
H1297 H 0.54084 0.39866 0.88811 0.0
H1298 H 0.51469 0.43986 0.78649 0.0
H1299 H 0.51429 0.39816 0.88207 0.0
H1300 H 0.46844 0.41134 0.93959 0.0
H1301 H 0.49488 0.41047 0.93224 0.0
H1302 H 0.49275 0.429 0.74561 0.0
H1303 H 0.46609 0.43035 0.75418 0.0
C1304 C 0.53557 0.43076 0.80992 0.0
C1305 C 0.54317 0.41942 0.84012 0.0
C1306 C 0.52026 0.43063 0.80748 0.0
C1307 C 0.51228 0.41909 0.83472 0.0
C1308 C 0.52002 0.40741 0.86205 0.0
C1309 C 0.53526 0.40763 0.86512 0.0
C1310 C 0.47358 0.41518 0.89683 0.0
C1311 C 0.46518 0.4209 0.84744 0.0
C1312 C 0.48878 0.41458 0.89236 0.0
C1313 C 0.49601 0.41954 0.83807 0.0
C1314 C 0.48758 0.4252 0.78834 0.0
C1315 C 0.4723 0.4259 0.79305 0.0
H1316 H 0.96755 0.56755 0.28982 0.0
H1317 H 0.96642 0.6083 0.39211 0.0
H1318 H 0.99423 0.56866 0.28722 0.0
H1319 H 0.99296 0.60974 0.38752 0.0
H1320 H 0.03932 0.59734 0.44485 0.0
H1321 H 0.01288 0.59788 0.43642 0.0
H1322 H 0.01571 0.58062 0.24771 0.0
H1323 H 0.04235 0.57962 0.25725 0.0
C1324 C 0.97301 0.57687 0.31078 0.0
C1325 C 0.96492 0.58776 0.34169 0.0
C1326 C 0.9883 0.57756 0.30903 0.0
C1327 C 0.99581 0.58922 0.33773 0.0
C1328 C 0.9876 0.60042 0.36621 0.0
C1329 C 0.97237 0.59965 0.3685 0.0
C1330 C 0.03433 0.59377 0.40133 0.0
C1331 C 0.04293 0.58843 0.35173 0.0
C1332 C 0.01913 0.59416 0.39628 0.0
C1333 C 0.01209 0.58935 0.34126 0.0
C1334 C 0.02073 0.58425 0.29106 0.0
C1335 C 0.036 0.58378 0.2963 0.0
H1336 H 0.96785 0.41079 0.5571 0.0
H1337 H 0.96542 0.43082 0.74052 0.0
H1338 H 0.9943 0.40994 0.56489 0.0
H1339 H 0.99205 0.42947 0.74963 0.0
H1340 H 0.04068 0.44022 0.70599 0.0
H1341 H 0.01397 0.44008 0.70877 0.0
H1342 H 0.0138 0.39804 0.61584 0.0
H1343 H 0.04036 0.39854 0.61085 0.0
C1344 C 0.97298 0.41486 0.59953 0.0
C1345 C 0.96455 0.42087 0.6482 0.0
C1346 C 0.98819 0.41427 0.60426 0.0
C1347 C 0.99539 0.41953 0.65814 0.0
C1348 C 0.98692 0.42545 0.70719 0.0
C1349 C 0.97165 0.42615 0.70217 0.0
C1350 C 0.03489 0.4309 0.6868 0.0
C1351 C 0.04258 0.41946 0.65769 0.0
C1352 C 0.01958 0.43077 0.68859 0.0
C1353 C 0.01167 0.41913 0.6618 0.0
C1354 C 0.01947 0.40737 0.63548 0.0
C1355 C 0.03473 0.40759 0.63303 0.0
H1356 H 0.46468 0.60844 0.10628 0.0
H1357 H 0.46604 0.56708 0.20381 0.0
H1358 H 0.49122 0.61005 0.11151 0.0
H1359 H 0.49269 0.56839 0.20716 0.0
H1360 H 0.54056 0.5795 0.24059 0.0
H1361 H 0.5139 0.58042 0.24925 0.0
H1362 H 0.51138 0.59856 0.06203 0.0
H1363 H 0.53786 0.59807 0.05443 0.0
C1364 C 0.47067 0.5997 0.12897 0.0
C1365 C 0.46329 0.58759 0.15429 0.0
C1366 C 0.4859 0.60057 0.13165 0.0
C1367 C 0.49416 0.58927 0.15914 0.0
C1368 C 0.48671 0.57736 0.18621 0.0
C1369 C 0.47144 0.57656 0.18399 0.0
C1370 C 0.53428 0.58384 0.2017 0.0
C1371 C 0.5413 0.58872 0.14687 0.0
C1372 C 0.519 0.58427 0.20643 0.0
C1373 C 0.51044 0.58955 0.15633 0.0
C1374 C 0.51757 0.59466 0.10203 0.0
C1375 C 0.53279 0.5943 0.09747 0.0
H1376 H 0.13958 0.16577 0.3038 0.0
H1377 H 0.16187 0.12614 0.24879 0.0
H1378 H 0.12576 0.15207 0.3824 0.0
H1379 H 0.1479 0.11242 0.32639 0.0
H1380 H 0.13131 0.09558 0.51467 0.0
H1381 H 0.14551 0.10991 0.43996 0.0
H1382 H 0.10648 0.13335 0.38583 0.0
H1383 H 0.09229 0.11916 0.4616 0.0
C1384 C 0.14154 0.15415 0.30864 0.0
C1385 C 0.1518 0.14701 0.27031 0.0
C1386 C 0.13356 0.14629 0.35327 0.0
C1387 C 0.13573 0.13117 0.36046 0.0
C1388 C 0.14612 0.12409 0.3225 0.0
C1389 C 0.15407 0.13193 0.27789 0.0
C1390 C 0.12576 0.1038 0.48684 0.0
C1391 C 0.1107 0.10625 0.4938 0.0
C1392 C 0.13389 0.11195 0.44386 0.0
C1393 C 0.12711 0.12273 0.40696 0.0
C1394 C 0.11203 0.12523 0.41416 0.0
C1395 C 0.1039 0.11705 0.45719 0.0
H1396 H 0.09227 0.88923 0.53975 0.0
H1397 H 0.13209 0.90827 0.4674 0.0
H1398 H 0.10652 0.87493 0.61477 0.0
H1399 H 0.14634 0.89378 0.54146 0.0
H1400 H 0.1647 0.87829 0.7312 0.0
H1401 H 0.15083 0.89233 0.65424 0.0
H1402 H 0.12387 0.85453 0.6165 0.0
H1403 H 0.13758 0.84056 0.6944 0.0
C1404 C 0.10406 0.89032 0.53981 0.0
C1405 C 0.11108 0.89987 0.4979 0.0
C1406 C 0.11223 0.88207 0.58242 0.0
C1407 C 0.12756 0.88321 0.5839 0.0
C1408 C 0.13454 0.89279 0.54194 0.0
C1409 C 0.12638 0.90103 0.49937 0.0
C1410 C 0.15587 0.87296 0.70616 0.0
C1411 C 0.1522 0.85835 0.71878 0.0
C1412 C 0.14796 0.88098 0.66193 0.0
C1413 C 0.13622 0.87455 0.62948 0.0
C1414 C 0.13272 0.85985 0.64143 0.0
C1415 C 0.14064 0.85182 0.68565 0.0
H1416 H 0.4138 0.89132 0.94557 0.0
H1417 H 0.37548 0.91608 0.99813 0.0
H1418 H 0.39911 0.87702 0.87226 0.0
H1419 H 0.36071 0.90153 0.92624 0.0
H1420 H 0.36611 0.8434 0.80435 0.0
H1421 H 0.38038 0.85844 0.87643 0.0
H1422 H 0.35639 0.8967 0.81663 0.0
H1423 H 0.34187 0.88159 0.74595 0.0
C1424 C 0.40225 0.89375 0.94118 0.0
C1425 C 0.39578 0.9048 0.9775 0.0
C1426 C 0.39381 0.88547 0.89967 0.0
C1427 C 0.3787 0.88803 0.89388 0.0
C1428 C 0.37233 0.89935 0.92915 0.0
C1429 C 0.38079 0.90767 0.97044 0.0
C1430 C 0.36381 0.855 0.8071 0.0
C1431 C 0.35288 0.86133 0.76964 0.0
C1432 C 0.37207 0.86364 0.84791 0.0
C1433 C 0.36962 0.8788 0.85185 0.0
C1434 C 0.35848 0.88505 0.81516 0.0
C1435 C 0.35017 0.8764 0.77456 0.0
H1436 H 0.41457 0.12339 0.02682 0.0
H1437 H 0.37752 0.09421 0.01615 0.0
H1438 H 0.40121 0.1389 0.10058 0.0
H1439 H 0.36433 0.10942 0.09093 0.0
H1440 H 0.3387 0.14684 0.17234 0.0
H1441 H 0.3528 0.13305 0.09549 0.0
H1442 H 0.3918 0.13925 0.20708 0.0
H1443 H 0.37771 0.15341 0.28318 0.0
C1444 C 0.40362 0.12023 0.0407 0.0
C1445 C 0.39706 0.10763 0.01566 0.0
C1446 C 0.39599 0.12908 0.08306 0.0
C1447 C 0.38166 0.12546 0.10126 0.0
C1448 C 0.37524 0.1127 0.0769 0.0
C1449 C 0.38283 0.1039 0.03445 0.0
C1450 C 0.35031 0.14539 0.18008 0.0
C1451 C 0.3571 0.15114 0.23382 0.0
C1452 C 0.35837 0.13739 0.13633 0.0
C1453 C 0.37339 0.13488 0.14557 0.0
C1454 C 0.38028 0.14106 0.19835 0.0
C1455 C 0.37221 0.14914 0.24202 0.0
H1456 H 0.87396 0.91152 0.48747 0.0
H1457 H 0.91255 0.88691 0.53761 0.0
H1458 H 0.85953 0.89703 0.56089 0.0
H1459 H 0.89817 0.8726 0.6121 0.0
H1460 H 0.86512 0.8403 0.69257 0.0
H1461 H 0.87878 0.8542 0.61417 0.0
H1462 H 0.85696 0.89375 0.67368 0.0
H1463 H 0.84312 0.87983 0.751 0.0
C1464 C 0.87937 0.90306 0.51445 0.0
C1465 C 0.89438 0.90035 0.50697 0.0
C1466 C 0.87112 0.8948 0.55665 0.0
C1467 C 0.87771 0.88367 0.59227 0.0
C1468 C 0.89274 0.88096 0.58468 0.0
C1469 C 0.90099 0.88922 0.54241 0.0
C1470 C 0.86317 0.85195 0.68848 0.0
C1471 C 0.85307 0.859 0.72783 0.0
C1472 C 0.87107 0.85992 0.64395 0.0
C1473 C 0.86899 0.87508 0.63794 0.0
C1474 C 0.85869 0.88206 0.67666 0.0
C1475 C 0.8508 0.8741 0.72113 0.0
H1476 H 0.86463 0.16533 0.30606 0.0
H1477 H 0.83923 0.12702 0.25911 0.0
H1478 H 0.87869 0.15098 0.38155 0.0
H1479 H 0.85346 0.11262 0.33346 0.0
H1480 H 0.87333 0.09479 0.51541 0.0
H1481 H 0.85826 0.10946 0.44502 0.0
H1482 H 0.89695 0.13152 0.37716 0.0
H1483 H 0.91198 0.11706 0.44854 0.0
C1484 C 0.86198 0.15388 0.31224 0.0
C1485 C 0.85086 0.14728 0.27671 0.0
C1486 C 0.87011 0.14564 0.35501 0.0
C1487 C 0.86727 0.13064 0.36302 0.0
C1488 C 0.85584 0.12417 0.32875 0.0
C1489 C 0.84772 0.13241 0.28604 0.0
C1490 C 0.87861 0.10273 0.48521 0.0
C1491 C 0.89382 0.10479 0.48737 0.0
C1492 C 0.86999 0.1111 0.44483 0.0
C1493 C 0.87641 0.1217 0.4058 0.0
C1494 C 0.89165 0.12362 0.40745 0.0
C1495 C 0.90028 0.11525 0.44787 0.0
H1496 H 0.66239 0.12493 0.24519 0.0
H1497 H 0.63793 0.16368 0.19598 0.0
H1498 H 0.64846 0.11085 0.16853 0.0
H1499 H 0.62422 0.14968 0.11821 0.0
H1500 H 0.59159 0.11656 0.0391 0.0
H1501 H 0.60578 0.13059 0.11516 0.0
H1502 H 0.64504 0.10815 0.0562 0.0
H1503 H 0.63078 0.0939 0.98127 0.0
C1504 C 0.65413 0.13046 0.21753 0.0
C1505 C 0.65122 0.14538 0.22656 0.0
C1506 C 0.64619 0.12241 0.17344 0.0
C1507 C 0.63521 0.12914 0.13741 0.0
C1508 C 0.63246 0.14413 0.14592 0.0
C1509 C 0.64038 0.15217 0.19011 0.0
C1510 C 0.60324 0.11461 0.04257 0.0
C1511 C 0.61009 0.10413 0.0044 0.0
C1512 C 0.61139 0.12271 0.08578 0.0
C1513 C 0.62655 0.12052 0.09157 0.0
C1514 C 0.63336 0.10998 0.05342 0.0
C1515 C 0.62521 0.10187 0.01031 0.0
H1516 H 0.66423 0.87953 0.75784 0.0
H1517 H 0.63794 0.84147 0.79904 0.0
H1518 H 0.65004 0.89376 0.8332 0.0
H1519 H 0.62392 0.85562 0.87527 0.0
H1520 H 0.59177 0.8895 0.95144 0.0
H1521 H 0.60616 0.87559 0.87559 0.0
H1522 H 0.64566 0.8957 0.94602 0.0
H1523 H 0.63124 0.90979 0.02095 0.0
C1524 C 0.65551 0.87418 0.78346 0.0
C1525 C 0.65217 0.85941 0.77261 0.0
C1526 C 0.64741 0.88231 0.82673 0.0
C1527 C 0.63583 0.87582 0.85997 0.0
C1528 C 0.63264 0.86098 0.84966 0.0
C1529 C 0.64073 0.85285 0.80641 0.0
C1530 C 0.60351 0.89098 0.95047 0.0
C1531 C 0.61039 0.90071 0.99202 0.0
C1532 C 0.61176 0.88295 0.90738 0.0
C1533 C 0.62705 0.88451 0.90504 0.0
C1534 C 0.63389 0.89437 0.94624 0.0
C1535 C 0.62564 0.90239 0.98931 0.0
H1536 H 0.591 0.61631 0.94274 0.0
H1537 H 0.6283 0.58895 0.98372 0.0
H1538 H 0.60566 0.63023 0.86804 0.0
H1539 H 0.64306 0.60306 0.91012 0.0
H1540 H 0.64034 0.66239 0.8003 0.0
H1541 H 0.62585 0.6476 0.87249 0.0
H1542 H 0.64598 0.60843 0.79892 0.0
H1543 H 0.66069 0.62326 0.72771 0.0
C1544 C 0.6023 0.61322 0.93547 0.0
C1545 C 0.60852 0.60157 0.96903 0.0
C1546 C 0.61074 0.62127 0.89315 0.0
C1547 C 0.62556 0.61784 0.88366 0.0
C1548 C 0.63164 0.60591 0.91602 0.0
C1549 C 0.6232 0.59785 0.95827 0.0
C1550 C 0.64173 0.65063 0.79991 0.0
C1551 C 0.65163 0.64397 0.75847 0.0
C1552 C 0.63335 0.64215 0.84082 0.0
C1553 C 0.63468 0.62684 0.84102 0.0
C1554 C 0.64479 0.62021 0.80024 0.0
C1555 C 0.65318 0.6287 0.75937 0.0
H1556 H 0.66209 0.38092 0.26381 0.0
H1557 H 0.63993 0.34171 0.20248 0.0
H1558 H 0.6478 0.39531 0.18947 0.0
H1559 H 0.62578 0.35609 0.12733 0.0
H1560 H 0.59231 0.38879 0.0509 0.0
H1561 H 0.6064 0.3748 0.12763 0.0
H1562 H 0.64535 0.39865 0.07572 0.0
H1563 H 0.63124 0.41276 -0.00018 0.0
C1564 C 0.65423 0.37537 0.23413 0.0
C1565 C 0.65212 0.3602 0.23884 0.0
C1566 C 0.64609 0.3836 0.19143 0.0
C1567 C 0.63565 0.37683 0.15268 0.0
C1568 C 0.63361 0.36163 0.15719 0.0
C1569 C 0.64178 0.35339 0.19983 0.0
C1570 C 0.60386 0.39109 0.05624 0.0
C1571 C 0.61069 0.40185 0.01947 0.0
C1572 C 0.61194 0.38302 0.09979 0.0
C1573 C 0.62699 0.38559 0.10747 0.0
C1574 C 0.63375 0.39652 0.0713 0.0
C1575 C 0.62568 0.40456 0.02769 0.0
H1576 H 0.91627 0.38749 0.45748 0.0
H1577 H 0.87626 0.40948 0.50928 0.0
H1578 H 0.90299 0.37354 0.37787 0.0
H1579 H 0.86293 0.3953 0.43139 0.0
H1580 H 0.84668 0.38004 0.24168 0.0
H1581 H 0.86061 0.39359 0.31966 0.0
H1582 H 0.88483 0.35445 0.36562 0.0
H1583 H 0.87111 0.34096 0.2859 0.0
C1584 C 0.90463 0.38927 0.45207 0.0
C1585 C 0.8973 0.39962 0.48926 0.0
C1586 C 0.89701 0.38122 0.40678 0.0
C1587 C 0.88191 0.38335 0.39806 0.0
C1588 C 0.8746 0.39359 0.43601 0.0
C1589 C 0.88222 0.40166 0.48092 0.0
C1590 C 0.85499 0.37432 0.26839 0.0
C1591 C 0.85779 0.35944 0.25789 0.0
C1592 C 0.86292 0.38207 0.31337 0.0
C1593 C 0.87377 0.37509 0.34922 0.0
C1594 C 0.87665 0.36019 0.33836 0.0
C1595 C 0.86874 0.35244 0.29301 0.0
H1596 H 0.86846 0.66371 0.70444 0.0
H1597 H 0.84334 0.62505 0.74854 0.0
H1598 H 0.88257 0.64979 0.62768 0.0
H1599 H 0.8576 0.61107 0.67264 0.0
H1600 H 0.87545 0.59548 0.48258 0.0
H1601 H 0.86125 0.60932 0.55911 0.0
H1602 H 0.90078 0.63011 0.62527 0.0
H1603 H 0.91497 0.61644 0.5479 0.0
C1604 C 0.86597 0.65224 0.69773 0.0
C1605 C 0.8548 0.64546 0.73235 0.0
C1606 C 0.87411 0.64424 0.65413 0.0
C1607 C 0.87122 0.62932 0.64427 0.0
C1608 C 0.85998 0.62258 0.6787 0.0
C1609 C 0.85185 0.63057 0.72233 0.0
C1610 C 0.88111 0.60297 0.51362 0.0
C1611 C 0.89631 0.6049 0.50932 0.0
C1612 C 0.87298 0.61085 0.55761 0.0
C1613 C 0.87989 0.62082 0.59814 0.0
C1614 C 0.89513 0.62265 0.5941 0.0
C1615 C 0.90326 0.61476 0.55013 0.0
H1616 H 0.34559 0.38048 0.2535 0.0
H1617 H 0.36935 0.34164 0.19962 0.0
H1618 H 0.3594 0.39471 0.17694 0.0
H1619 H 0.38295 0.35579 0.12197 0.0
H1620 H 0.41535 0.38878 0.04062 0.0
H1621 H 0.40154 0.37477 0.11797 0.0
H1622 H 0.3621 0.39759 0.06415 0.0
H1623 H 0.37599 0.41182 0.98784 0.0
C1624 C 0.3537 0.37497 0.22495 0.0
C1625 C 0.35642 0.35997 0.2325 0.0
C1626 C 0.36155 0.3831 0.1809 0.0
C1627 C 0.37228 0.37638 0.14344 0.0
C1628 C 0.37491 0.36133 0.15076 0.0
C1629 C 0.36706 0.35321 0.1949 0.0
C1630 C 0.40374 0.39083 0.04551 0.0
C1631 C 0.39674 0.40139 0.00832 0.0
C1632 C 0.39581 0.38274 0.08948 0.0
C1633 C 0.38072 0.38504 0.09705 0.0
C1634 C 0.37375 0.39568 0.05997 0.0
C1635 C 0.38168 0.40378 0.01608 0.0
H1636 H 0.37518 0.59676 0.01007 0.0
H1637 H 0.41467 0.61999 0.96067 0.0
H1638 H 0.36154 0.61101 0.93341 0.0
H1639 H 0.40102 0.63413 0.88275 0.0
H1640 H 0.36788 0.66656 0.79675 0.0
H1641 H 0.38181 0.65295 0.87555 0.0
H1642 H 0.35981 0.61318 0.81997 0.0
H1643 H 0.34576 0.62678 0.74245 0.0
C1644 C 0.38096 0.60488 0.98257 0.0
C1645 C 0.396 0.60724 0.99115 0.0
C1646 C 0.37316 0.613 0.93845 0.0
C1647 C 0.38021 0.62365 0.90183 0.0
C1648 C 0.39526 0.62609 0.91071 0.0
C1649 C 0.40308 0.61794 0.95496 0.0
C1650 C 0.36602 0.65492 0.80163 0.0
C1651 C 0.35571 0.64773 0.76372 0.0
C1652 C 0.37405 0.64712 0.84639 0.0
C1653 C 0.37188 0.632 0.85404 0.0
C1654 C 0.36158 0.62486 0.81589 0.0
C1655 C 0.35358 0.63263 0.77128 0.0
H1656 H 0.16502 0.62526 0.75702 0.0
H1657 H 0.14232 0.66406 0.69474 0.0
H1658 H 0.15044 0.61046 0.68546 0.0
H1659 H 0.12797 0.64929 0.62176 0.0
H1660 H 0.13122 0.59082 0.5055 0.0
H1661 H 0.14635 0.60543 0.57573 0.0
H1662 H 0.10859 0.63126 0.62659 0.0
H1663 H 0.09354 0.61686 0.55497 0.0
C1664 C 0.15707 0.63065 0.72728 0.0
C1665 C 0.15478 0.6458 0.7315 0.0
C1666 C 0.14873 0.62217 0.68617 0.0
C1667 C 0.13797 0.62868 0.64825 0.0
C1668 C 0.13599 0.64391 0.65122 0.0
C1669 C 0.1443 0.65239 0.69252 0.0
C1670 C 0.12613 0.59954 0.53209 0.0
C1671 C 0.11121 0.60272 0.52479 0.0
C1672 C 0.1348 0.6079 0.57241 0.0
C1673 C 0.1287 0.61958 0.60642 0.0
C1674 C 0.11368 0.62252 0.60014 0.0
C1675 C 0.10503 0.61418 0.55964 0.0
H1676 H 0.16278 0.38137 0.23921 0.0
H1677 H 0.13793 0.34281 0.28753 0.0
H1678 H 0.1484 0.3957 0.31342 0.0
H1679 H 0.12372 0.35708 0.36275 0.0
H1680 H 0.09144 0.39034 0.4428 0.0
H1681 H 0.10542 0.3766 0.36487 0.0
H1682 H 0.14501 0.39805 0.42642 0.0
H1683 H 0.13102 0.41195 0.50332 0.0
C1684 C 0.1543 0.37595 0.26598 0.0
C1685 C 0.15148 0.36098 0.25771 0.0
C1686 C 0.1461 0.38414 0.30864 0.0
C1687 C 0.13492 0.37753 0.3439 0.0
C1688 C 0.13213 0.36253 0.33563 0.0
C1689 C 0.14033 0.35434 0.29294 0.0
C1690 C 0.10312 0.39217 0.43931 0.0
C1691 C 0.11015 0.4022 0.47904 0.0
C1692 C 0.11113 0.38424 0.39505 0.0
C1693 C 0.12632 0.3862 0.38968 0.0
C1694 C 0.1333 0.3964 0.42892 0.0
C1695 C 0.12529 0.40432 0.47313 0.0
loop_
_geom_bond_atom_site_label_1
_geom_bond_atom_site_label_2
_geom_bond_distance
_geom_bond_site_symmetry_2
_ccdc_geom_bond_type
In0 O1 2.294 . S
In0 O2 2.326 . S
In0 O6 2.266 . S
In0 O7 2.326 . S
In0 O8 2.266 . S
In0 O9 2.326 . S
In0 O11 2.294 . S
In0 O12 2.326 . S
O1 In0 2.294 . S
O1 C10 1.240 . S
O2 In0 2.326 . S
O2 C10 1.252 . S
C3 O6 1.252 . S
C3 O7 1.260 . S
C4 O11 1.240 . S
C4 O12 1.252 . S
C5 O8 1.252 . S
C5 O9 1.260 . S
O6 In0 2.266 . S
O6 C3 1.252 . S
O7 In0 2.326 . S
O7 C3 1.260 . S
O8 In0 2.266 . S
O8 C5 1.252 . S
O9 In0 2.326 . S
O9 C5 1.260 . S
C10 O1 1.240 . S
C10 O2 1.252 . S
O11 In0 2.294 . S
O11 C4 1.240 . S
O12 In0 2.326 . S
O12 C4 1.252 . S
In13 O14 2.294 . S
In13 O15 2.326 . S
In13 O19 2.266 . S
In13 O20 2.326 . S
In13 O21 2.266 . S
In13 O22 2.326 . S
In13 O24 2.294 . S
In13 O25 2.326 . S
O14 In13 2.294 . S
O14 C23 1.240 . S
O15 In13 2.326 . S
O15 C23 1.252 . S
C16 O19 1.252 . S
C16 O20 1.260 . S
C17 O24 1.240 . S
C17 O25 1.252 . S
C18 O21 1.252 . S
C18 O22 1.260 . S
O19 In13 2.266 . S
O19 C16 1.252 . S
O20 In13 2.326 . S
O20 C16 1.260 . S
O21 In13 2.266 . S
O21 C18 1.252 . S
O22 In13 2.326 . S
O22 C18 1.260 . S
C23 O14 1.240 . S
C23 O15 1.252 . S
O24 In13 2.294 . S
O24 C17 1.240 . S
O25 In13 2.326 . S
O25 C17 1.252 . S
In26 O27 2.294 . S
In26 O28 2.326 . S
In26 O32 2.266 . S
In26 O33 2.326 . S
In26 O34 2.266 . S
In26 O35 2.326 . S
In26 O37 2.294 . S
In26 O38 2.326 . S
O27 In26 2.294 . S
O27 C36 1.240 . S
O28 In26 2.326 . S
O28 C36 1.252 . S
C29 O32 1.252 . S
C29 O33 1.260 . S
C30 O37 1.240 . S
C30 O38 1.252 . S
C31 O34 1.252 . S
C31 O35 1.260 . S
O32 In26 2.266 . S
O32 C29 1.252 . S
O33 In26 2.326 . S
O33 C29 1.260 . S
O34 In26 2.266 . S
O34 C31 1.252 . S
O35 In26 2.326 . S
O35 C31 1.260 . S
C36 O27 1.240 . S
C36 O28 1.252 . S
O37 In26 2.294 . S
O37 C30 1.240 . S
O38 In26 2.326 . S
O38 C30 1.252 . S
In39 O40 2.294 . S
In39 O41 2.326 . S
In39 O45 2.266 . S
In39 O46 2.326 . S
In39 O47 2.266 . S
In39 O48 2.326 . S
In39 O50 2.294 . S
In39 O51 2.326 . S
O40 In39 2.294 . S
O40 C49 1.240 . S
O41 In39 2.326 . S
O41 C49 1.252 . S
C42 O45 1.252 . S
C42 O46 1.260 . S
C43 O50 1.240 . S
C43 O51 1.252 . S
C44 O47 1.252 . S
C44 O48 1.260 . S
O45 In39 2.266 . S
O45 C42 1.252 . S
O46 In39 2.326 . S
O46 C42 1.260 . S
O47 In39 2.266 . S
O47 C44 1.252 . S
O48 In39 2.326 . S
O48 C44 1.260 . S
C49 O40 1.240 . S
C49 O41 1.252 . S
O50 In39 2.294 . S
O50 C43 1.240 . S
O51 In39 2.326 . S
O51 C43 1.252 . S
In52 O53 2.294 . S
In52 O54 2.326 . S
In52 O58 2.266 . S
In52 O59 2.326 . S
In52 O60 2.266 . S
In52 O61 2.326 . S
In52 O63 2.294 . S
In52 O64 2.326 . S
O53 In52 2.294 . S
O53 C62 1.240 . S
O54 In52 2.326 . S
O54 C62 1.252 . S
C55 O58 1.252 . S
C55 O59 1.260 . S
C56 O63 1.240 . S
C56 O64 1.252 . S
C57 O60 1.252 . S
C57 O61 1.260 . S
O58 In52 2.266 . S
O58 C55 1.252 . S
O59 In52 2.326 . S
O59 C55 1.260 . S
O60 In52 2.266 . S
O60 C57 1.252 . S
O61 In52 2.326 . S
O61 C57 1.260 . S
C62 O53 1.240 . S
C62 O54 1.252 . S
O63 In52 2.294 . S
O63 C56 1.240 . S
O64 In52 2.326 . S
O64 C56 1.252 . S
In65 O66 2.294 . S
In65 O67 2.326 . S
In65 O71 2.266 . S
In65 O72 2.326 . S
In65 O73 2.266 . S
In65 O74 2.326 . S
In65 O76 2.294 . S
In65 O77 2.326 . S
O66 In65 2.294 . S
O66 C75 1.240 . S
O67 In65 2.326 . S
O67 C75 1.252 . S
C68 O71 1.252 . S
C68 O72 1.260 . S
C69 O76 1.240 . S
C69 O77 1.252 . S
C70 O73 1.252 . S
C70 O74 1.260 . S
O71 In65 2.266 . S
O71 C68 1.252 . S
O72 In65 2.326 . S
O72 C68 1.260 . S
O73 In65 2.266 . S
O73 C70 1.252 . S
O74 In65 2.326 . S
O74 C70 1.260 . S
C75 O66 1.240 . S
C75 O67 1.252 . S
O76 In65 2.294 . S
O76 C69 1.240 . S
O77 In65 2.326 . S
O77 C69 1.252 . S
In78 O79 2.294 . S
In78 O80 2.326 . S
In78 O84 2.266 . S
In78 O85 2.326 . S
In78 O86 2.266 . S
In78 O87 2.326 . S
In78 O89 2.294 . S
In78 O90 2.326 . S
O79 In78 2.294 . S
O79 C88 1.240 . S
O80 In78 2.326 . S
O80 C88 1.252 . S
C81 O84 1.252 . S
C81 O85 1.260 . S
C82 O89 1.240 . S
C82 O90 1.252 . S
C83 O86 1.252 . S
C83 O87 1.260 . S
O84 In78 2.266 . S
O84 C81 1.252 . S
O85 In78 2.326 . S
O85 C81 1.260 . S
O86 In78 2.266 . S
O86 C83 1.252 . S
O87 In78 2.326 . S
O87 C83 1.260 . S
C88 O79 1.240 . S
C88 O80 1.252 . S
O89 In78 2.294 . S
O89 C82 1.240 . S
O90 In78 2.326 . S
O90 C82 1.252 . S
In91 O92 2.294 . S
In91 O93 2.326 . S
In91 O97 2.266 . S
In91 O98 2.326 . S
In91 O99 2.266 . S
In91 O100 2.326 . S
In91 O102 2.294 . S
In91 O103 2.326 . S
O92 In91 2.294 . S
O92 C101 1.240 . S
O93 In91 2.326 . S
O93 C101 1.252 . S
C94 O97 1.252 . S
C94 O98 1.260 . S
C95 O102 1.240 . S
C95 O103 1.252 . S
C96 O99 1.252 . S
C96 O100 1.260 . S
O97 In91 2.266 . S
O97 C94 1.252 . S
O98 In91 2.326 . S
O98 C94 1.260 . S
O99 In91 2.266 . S
O99 C96 1.252 . S
O100 In91 2.326 . S
O100 C96 1.260 . S
C101 O92 1.240 . S
C101 O93 1.252 . S
O102 In91 2.294 . S
O102 C95 1.240 . S
O103 In91 2.326 . S
O103 C95 1.252 . S
In104 O105 2.294 . S
In104 O106 2.326 . S
In104 O110 2.266 . S
In104 O111 2.326 . S
In104 O112 2.266 . S
In104 O113 2.326 . S
In104 O115 2.294 . S
In104 O116 2.326 . S
O105 In104 2.294 . S
O105 C114 1.240 . S
O106 In104 2.326 . S
O106 C114 1.252 . S
C107 O110 1.252 . S
C107 O111 1.260 . S
C108 O115 1.240 . S
C108 O116 1.252 . S
C109 O112 1.252 . S
C109 O113 1.260 . S
O110 In104 2.266 . S
O110 C107 1.252 . S
O111 In104 2.326 . S
O111 C107 1.260 . S
O112 In104 2.266 . S
O112 C109 1.252 . S
O113 In104 2.326 . S
O113 C109 1.260 . S
C114 O105 1.240 . S
C114 O106 1.252 . S
O115 In104 2.294 . S
O115 C108 1.240 . S
O116 In104 2.326 . S
O116 C108 1.252 . S
In117 O118 2.294 . S
In117 O119 2.326 . S
In117 O123 2.266 . S
In117 O124 2.326 . S
In117 O125 2.266 . S
In117 O126 2.326 . S
In117 O128 2.294 . S
In117 O129 2.326 . S
O118 In117 2.294 . S
O118 C127 1.240 . S
O119 In117 2.326 . S
O119 C127 1.252 . S
C120 O123 1.252 . S
C120 O124 1.260 . S
C121 O128 1.240 . S
C121 O129 1.252 . S
C122 O125 1.252 . S
C122 O126 1.260 . S
O123 In117 2.266 . S
O123 C120 1.252 . S
O124 In117 2.326 . S
O124 C120 1.260 . S
O125 In117 2.266 . S
O125 C122 1.252 . S
O126 In117 2.326 . S
O126 C122 1.260 . S
C127 O118 1.240 . S
C127 O119 1.252 . S
O128 In117 2.294 . S
O128 C121 1.240 . S
O129 In117 2.326 . S
O129 C121 1.252 . S
In130 O131 2.294 . S
In130 O132 2.326 . S
In130 O136 2.266 . S
In130 O137 2.326 . S
In130 O138 2.266 . S
In130 O139 2.326 . S
In130 O141 2.294 . S
In130 O142 2.326 . S
O131 In130 2.294 . S
O131 C140 1.240 . S
O132 In130 2.326 . S
O132 C140 1.252 . S
C133 O136 1.252 . S
C133 O137 1.260 . S
C134 O141 1.240 . S
C134 O142 1.252 . S
C135 O138 1.252 . S
C135 O139 1.260 . S
O136 In130 2.266 . S
O136 C133 1.252 . S
O137 In130 2.326 . S
O137 C133 1.260 . S
O138 In130 2.266 . S
O138 C135 1.252 . S
O139 In130 2.326 . S
O139 C135 1.260 . S
C140 O131 1.240 . S
C140 O132 1.252 . S
O141 In130 2.294 . S
O141 C134 1.240 . S
O142 In130 2.326 . S
O142 C134 1.252 . S
In143 O144 2.294 . S
In143 O145 2.326 . S
In143 O149 2.266 . S
In143 O150 2.326 . S
In143 O151 2.266 . S
In143 O152 2.326 . S
In143 O154 2.294 . S
In143 O155 2.326 . S
O144 In143 2.294 . S
O144 C153 1.240 . S
O145 In143 2.326 . S
O145 C153 1.252 . S
C146 O149 1.252 . S
C146 O150 1.260 . S
C147 O154 1.240 . S
C147 O155 1.252 . S
C148 O151 1.252 . S
C148 O152 1.260 . S
O149 In143 2.266 . S
O149 C146 1.252 . S
O150 In143 2.326 . S
O150 C146 1.260 . S
O151 In143 2.266 . S
O151 C148 1.252 . S
O152 In143 2.326 . S
O152 C148 1.260 . S
C153 O144 1.240 . S
C153 O145 1.252 . S
O154 In143 2.294 . S
O154 C147 1.240 . S
O155 In143 2.326 . S
O155 C147 1.252 . S
In156 O157 2.294 . S
In156 O158 2.326 . S
In156 O162 2.266 . S
In156 O163 2.326 . S
In156 O164 2.266 . S
In156 O165 2.326 . S
In156 O167 2.294 . S
In156 O168 2.326 . S
O157 In156 2.294 . S
O157 C166 1.240 . S
O158 In156 2.326 . S
O158 C166 1.252 . S
C159 O162 1.252 . S
C159 O163 1.260 . S
C160 O167 1.240 . S
C160 O168 1.252 . S
C161 O164 1.252 . S
C161 O165 1.260 . S
O162 In156 2.266 . S
O162 C159 1.252 . S
O163 In156 2.326 . S
O163 C159 1.260 . S
O164 In156 2.266 . S
O164 C161 1.252 . S
O165 In156 2.326 . S
O165 C161 1.260 . S
C166 O157 1.240 . S
C166 O158 1.252 . S
O167 In156 2.294 . S
O167 C160 1.240 . S
O168 In156 2.326 . S
O168 C160 1.252 . S
In169 O170 2.294 . S
In169 O171 2.326 . S
In169 O175 2.266 . S
In169 O176 2.326 . S
In169 O177 2.266 . S
In169 O178 2.326 . S
In169 O180 2.294 . S
In169 O181 2.326 . S
O170 In169 2.294 . S
O170 C179 1.240 . S
O171 In169 2.326 . S
O171 C179 1.252 . S
C172 O175 1.252 . S
C172 O176 1.260 . S
C173 O180 1.240 . S
C173 O181 1.252 . S
C174 O177 1.252 . S
C174 O178 1.260 . S
O175 In169 2.266 . S
O175 C172 1.252 . S
O176 In169 2.326 . S
O176 C172 1.260 . S
O177 In169 2.266 . S
O177 C174 1.252 . S
O178 In169 2.326 . S
O178 C174 1.260 . S
C179 O170 1.240 . S
C179 O171 1.252 . S
O180 In169 2.294 . S
O180 C173 1.240 . S
O181 In169 2.326 . S
O181 C173 1.252 . S
In182 O183 2.294 . S
In182 O184 2.326 . S
In182 O188 2.266 . S
In182 O189 2.326 . S
In182 O190 2.266 . S
In182 O191 2.326 . S
In182 O193 2.294 . S
In182 O194 2.326 . S
O183 In182 2.294 . S
O183 C192 1.240 . S
O184 In182 2.326 . S
O184 C192 1.252 . S
C185 O188 1.252 . S
C185 O189 1.260 . S
C186 O193 1.240 . S
C186 O194 1.252 . S
C187 O190 1.252 . S
C187 O191 1.260 . S
O188 In182 2.266 . S
O188 C185 1.252 . S
O189 In182 2.326 . S
O189 C185 1.260 . S
O190 In182 2.266 . S
O190 C187 1.252 . S
O191 In182 2.326 . S
O191 C187 1.260 . S
C192 O183 1.240 . S
C192 O184 1.252 . S
O193 In182 2.294 . S
O193 C186 1.240 . S
O194 In182 2.326 . S
O194 C186 1.252 . S
In195 O196 2.294 . S
In195 O197 2.326 . S
In195 O201 2.266 . S
In195 O202 2.326 . S
In195 O203 2.266 . S
In195 O204 2.326 . S
In195 O206 2.294 . S
In195 O207 2.326 . S
O196 In195 2.294 . S
O196 C205 1.240 . S
O197 In195 2.326 . S
O197 C205 1.252 . S
C198 O201 1.252 . S
C198 O202 1.260 . S
C199 O206 1.240 . S
C199 O207 1.252 . S
C200 O203 1.252 . S
C200 O204 1.260 . S
O201 In195 2.266 . S
O201 C198 1.252 . S
O202 In195 2.326 . S
O202 C198 1.260 . S
O203 In195 2.266 . S
O203 C200 1.252 . S
O204 In195 2.326 . S
O204 C200 1.260 . S
C205 O196 1.240 . S
C205 O197 1.252 . S
O206 In195 2.294 . S
O206 C199 1.240 . S
O207 In195 2.326 . S
O207 C199 1.252 . S
In208 O209 2.294 . S
In208 O210 2.326 . S
In208 O214 2.266 . S
In208 O215 2.326 . S
In208 O216 2.266 . S
In208 O217 2.326 . S
In208 O219 2.294 . S
In208 O220 2.326 . S
O209 In208 2.294 . S
O209 C218 1.240 . S
O210 In208 2.326 . S
O210 C218 1.252 . S
C211 O214 1.252 . S
C211 O215 1.260 . S
C212 O219 1.240 . S
C212 O220 1.252 . S
C213 O216 1.252 . S
C213 O217 1.260 . S
O214 In208 2.266 . S
O214 C211 1.252 . S
O215 In208 2.326 . S
O215 C211 1.260 . S
O216 In208 2.266 . S
O216 C213 1.252 . S
O217 In208 2.326 . S
O217 C213 1.260 . S
C218 O209 1.240 . S
C218 O210 1.252 . S
O219 In208 2.294 . S
O219 C212 1.240 . S
O220 In208 2.326 . S
O220 C212 1.252 . S
In221 O222 2.294 . S
In221 O223 2.326 . S
In221 O227 2.266 . S
In221 O228 2.326 . S
In221 O229 2.266 . S
In221 O230 2.326 . S
In221 O232 2.294 . S
In221 O233 2.326 . S
O222 In221 2.294 . S
O222 C231 1.240 . S
O223 In221 2.326 . S
O223 C231 1.252 . S
C224 O227 1.252 . S
C224 O228 1.260 . S
C225 O232 1.240 . S
C225 O233 1.252 . S
C226 O229 1.252 . S
C226 O230 1.260 . S
O227 In221 2.266 . S
O227 C224 1.252 . S
O228 In221 2.326 . S
O228 C224 1.260 . S
O229 In221 2.266 . S
O229 C226 1.252 . S
O230 In221 2.326 . S
O230 C226 1.260 . S
C231 O222 1.240 . S
C231 O223 1.252 . S
O232 In221 2.294 . S
O232 C225 1.240 . S
O233 In221 2.326 . S
O233 C225 1.252 . S
In234 O235 2.294 . S
In234 O236 2.326 . S
In234 O240 2.266 . S
In234 O241 2.326 . S
In234 O242 2.266 . S
In234 O243 2.326 . S
In234 O245 2.294 . S
In234 O246 2.326 . S
O235 In234 2.294 . S
O235 C244 1.240 . S
O236 In234 2.326 . S
O236 C244 1.252 . S
C237 O240 1.252 . S
C237 O241 1.260 . S
C238 O245 1.240 . S
C238 O246 1.252 . S
C239 O242 1.252 . S
C239 O243 1.260 . S
O240 In234 2.266 . S
O240 C237 1.252 . S
O241 In234 2.326 . S
O241 C237 1.260 . S
O242 In234 2.266 . S
O242 C239 1.252 . S
O243 In234 2.326 . S
O243 C239 1.260 . S
C244 O235 1.240 . S
C244 O236 1.252 . S
O245 In234 2.294 . S
O245 C238 1.240 . S
O246 In234 2.326 . S
O246 C238 1.252 . S
In247 O248 2.294 . S
In247 O249 2.326 . S
In247 O253 2.266 . S
In247 O254 2.326 . S
In247 O255 2.266 . S
In247 O256 2.326 . S
In247 O258 2.294 . S
In247 O259 2.326 . S
O248 In247 2.294 . S
O248 C257 1.240 . S
O249 In247 2.326 . S
O249 C257 1.252 . S
C250 O253 1.252 . S
C250 O254 1.260 . S
C251 O258 1.240 . S
C251 O259 1.252 . S
C252 O255 1.252 . S
C252 O256 1.260 . S
O253 In247 2.266 . S
O253 C250 1.252 . S
O254 In247 2.326 . S
O254 C250 1.260 . S
O255 In247 2.266 . S
O255 C252 1.252 . S
O256 In247 2.326 . S
O256 C252 1.260 . S
C257 O248 1.240 . S
C257 O249 1.252 . S
O258 In247 2.294 . S
O258 C251 1.240 . S
O259 In247 2.326 . S
O259 C251 1.252 . S
In260 O261 2.294 . S
In260 O262 2.326 . S
In260 O266 2.266 . S
In260 O267 2.326 . S
In260 O268 2.266 . S
In260 O269 2.326 . S
In260 O271 2.294 . S
In260 O272 2.326 . S
O261 In260 2.294 . S
O261 C270 1.240 . S
O262 In260 2.326 . S
O262 C270 1.252 . S
C263 O266 1.252 . S
C263 O267 1.260 . S
C264 O271 1.240 . S
C264 O272 1.252 . S
C265 O268 1.252 . S
C265 O269 1.260 . S
O266 In260 2.266 . S
O266 C263 1.252 . S
O267 In260 2.326 . S
O267 C263 1.260 . S
O268 In260 2.266 . S
O268 C265 1.252 . S
O269 In260 2.326 . S
O269 C265 1.260 . S
C270 O261 1.240 . S
C270 O262 1.252 . S
O271 In260 2.294 . S
O271 C264 1.240 . S
O272 In260 2.326 . S
O272 C264 1.252 . S
In273 O274 2.294 . S
In273 O275 2.326 . S
In273 O279 2.266 . S
In273 O280 2.326 . S
In273 O281 2.266 . S
In273 O282 2.326 . S
In273 O284 2.294 . S
In273 O285 2.326 . S
O274 In273 2.294 . S
O274 C283 1.240 . S
O275 In273 2.326 . S
O275 C283 1.252 . S
C276 O279 1.252 . S
C276 O280 1.260 . S
C277 O284 1.240 . S
C277 O285 1.252 . S
C278 O281 1.252 . S
C278 O282 1.260 . S
O279 In273 2.266 . S
O279 C276 1.252 . S
O280 In273 2.326 . S
O280 C276 1.260 . S
O281 In273 2.266 . S
O281 C278 1.252 . S
O282 In273 2.326 . S
O282 C278 1.260 . S
C283 O274 1.240 . S
C283 O275 1.252 . S
O284 In273 2.294 . S
O284 C277 1.240 . S
O285 In273 2.326 . S
O285 C277 1.252 . S
In286 O287 2.294 . S
In286 O288 2.326 . S
In286 O292 2.266 . S
In286 O293 2.326 . S
In286 O294 2.266 . S
In286 O295 2.326 . S
In286 O297 2.294 . S
In286 O298 2.326 . S
O287 In286 2.294 . S
O287 C296 1.240 . S
O288 In286 2.326 . S
O288 C296 1.252 . S
C289 O292 1.252 . S
C289 O293 1.260 . S
C290 O297 1.240 . S
C290 O298 1.252 . S
C291 O294 1.252 . S
C291 O295 1.260 . S
O292 In286 2.266 . S
O292 C289 1.252 . S
O293 In286 2.326 . S
O293 C289 1.260 . S
O294 In286 2.266 . S
O294 C291 1.252 . S
O295 In286 2.326 . S
O295 C291 1.260 . S
C296 O287 1.240 . S
C296 O288 1.252 . S
O297 In286 2.294 . S
O297 C290 1.240 . S
O298 In286 2.326 . S
O298 C290 1.252 . S
In299 O300 2.294 . S
In299 O301 2.326 . S
In299 O305 2.266 . S
In299 O306 2.326 . S
In299 O307 2.266 . S
In299 O308 2.326 . S
In299 O310 2.294 . S
In299 O311 2.326 . S
O300 In299 2.294 . S
O300 C309 1.240 . S
O301 In299 2.326 . S
O301 C309 1.252 . S
C302 O305 1.252 . S
C302 O306 1.260 . S
C303 O310 1.240 . S
C303 O311 1.252 . S
C304 O307 1.252 . S
C304 O308 1.260 . S
O305 In299 2.266 . S
O305 C302 1.252 . S
O306 In299 2.326 . S
O306 C302 1.260 . S
O307 In299 2.266 . S
O307 C304 1.252 . S
O308 In299 2.326 . S
O308 C304 1.260 . S
C309 O300 1.240 . S
C309 O301 1.252 . S
O310 In299 2.294 . S
O310 C303 1.240 . S
O311 In299 2.326 . S
O311 C303 1.252 . S
In312 O313 2.294 . S
In312 O314 2.326 . S
In312 O318 2.266 . S
In312 O319 2.326 . S
In312 O320 2.266 . S
In312 O321 2.326 . S
In312 O323 2.294 . S
In312 O324 2.326 . S
O313 In312 2.294 . S
O313 C322 1.240 . S
O314 In312 2.326 . S
O314 C322 1.252 . S
C315 O318 1.252 . S
C315 O319 1.260 . S
C316 O323 1.240 . S
C316 O324 1.252 . S
C317 O320 1.252 . S
C317 O321 1.260 . S
O318 In312 2.266 . S
O318 C315 1.252 . S
O319 In312 2.326 . S
O319 C315 1.260 . S
O320 In312 2.266 . S
O320 C317 1.252 . S
O321 In312 2.326 . S
O321 C317 1.260 . S
C322 O313 1.240 . S
C322 O314 1.252 . S
O323 In312 2.294 . S
O323 C316 1.240 . S
O324 In312 2.326 . S
O324 C316 1.252 . S
In325 O326 2.294 . S
In325 O327 2.326 . S
In325 O331 2.266 . S
In325 O332 2.326 . S
In325 O333 2.266 . S
In325 O334 2.326 . S
In325 O336 2.294 . S
In325 O337 2.326 . S
O326 In325 2.294 . S
O326 C335 1.240 . S
O327 In325 2.326 . S
O327 C335 1.252 . S
C328 O331 1.252 . S
C328 O332 1.260 . S
C329 O336 1.240 . S
C329 O337 1.252 . S
C330 O333 1.252 . S
C330 O334 1.260 . S
O331 In325 2.266 . S
O331 C328 1.252 . S
O332 In325 2.326 . S
O332 C328 1.260 . S
O333 In325 2.266 . S
O333 C330 1.252 . S
O334 In325 2.326 . S
O334 C330 1.260 . S
C335 O326 1.240 . S
C335 O327 1.252 . S
O336 In325 2.294 . S
O336 C329 1.240 . S
O337 In325 2.326 . S
O337 C329 1.252 . S
In338 O339 2.294 . S
In338 O340 2.326 . S
In338 O344 2.266 . S
In338 O345 2.326 . S
In338 O346 2.266 . S
In338 O347 2.326 . S
In338 O349 2.294 . S
In338 O350 2.326 . S
O339 In338 2.294 . S
O339 C348 1.240 . S
O340 In338 2.326 . S
O340 C348 1.252 . S
C341 O344 1.252 . S
C341 O345 1.260 . S
C342 O349 1.240 . S
C342 O350 1.252 . S
C343 O346 1.252 . S
C343 O347 1.260 . S
O344 In338 2.266 . S
O344 C341 1.252 . S
O345 In338 2.326 . S
O345 C341 1.260 . S
O346 In338 2.266 . S
O346 C343 1.252 . S
O347 In338 2.326 . S
O347 C343 1.260 . S
C348 O339 1.240 . S
C348 O340 1.252 . S
O349 In338 2.294 . S
O349 C342 1.240 . S
O350 In338 2.326 . S
O350 C342 1.252 . S
In351 O352 2.294 . S
In351 O353 2.326 . S
In351 O357 2.266 . S
In351 O358 2.326 . S
In351 O359 2.266 . S
In351 O360 2.326 . S
In351 O362 2.294 . S
In351 O363 2.326 . S
O352 In351 2.294 . S
O352 C361 1.240 . S
O353 In351 2.326 . S
O353 C361 1.252 . S
C354 O357 1.252 . S
C354 O358 1.260 . S
C355 O362 1.240 . S
C355 O363 1.252 . S
C356 O359 1.252 . S
C356 O360 1.260 . S
O357 In351 2.266 . S
O357 C354 1.252 . S
O358 In351 2.326 . S
O358 C354 1.260 . S
O359 In351 2.266 . S
O359 C356 1.252 . S
O360 In351 2.326 . S
O360 C356 1.260 . S
C361 O352 1.240 . S
C361 O353 1.252 . S
O362 In351 2.294 . S
O362 C355 1.240 . S
O363 In351 2.326 . S
O363 C355 1.252 . S
In364 O365 2.294 . S
In364 O366 2.326 . S
In364 O370 2.266 . S
In364 O371 2.326 . S
In364 O372 2.266 . S
In364 O373 2.326 . S
In364 O375 2.294 . S
In364 O376 2.326 . S
O365 In364 2.294 . S
O365 C374 1.240 . S
O366 In364 2.326 . S
O366 C374 1.252 . S
C367 O370 1.252 . S
C367 O371 1.260 . S
C368 O375 1.240 . S
C368 O376 1.252 . S
C369 O372 1.252 . S
C369 O373 1.260 . S
O370 In364 2.266 . S
O370 C367 1.252 . S
O371 In364 2.326 . S
O371 C367 1.260 . S
O372 In364 2.266 . S
O372 C369 1.252 . S
O373 In364 2.326 . S
O373 C369 1.260 . S
C374 O365 1.240 . S
C374 O366 1.252 . S
O375 In364 2.294 . S
O375 C368 1.240 . S
O376 In364 2.326 . S
O376 C368 1.252 . S
In377 O378 2.294 . S
In377 O379 2.326 . S
In377 O383 2.266 . S
In377 O384 2.326 . S
In377 O385 2.266 . S
In377 O386 2.326 . S
In377 O388 2.294 . S
In377 O389 2.326 . S
O378 In377 2.294 . S
O378 C387 1.240 . S
O379 In377 2.326 . S
O379 C387 1.252 . S
C380 O383 1.252 . S
C380 O384 1.260 . S
C381 O388 1.240 . S
C381 O389 1.252 . S
C382 O385 1.252 . S
C382 O386 1.260 . S
O383 In377 2.266 . S
O383 C380 1.252 . S
O384 In377 2.326 . S
O384 C380 1.260 . S
O385 In377 2.266 . S
O385 C382 1.252 . S
O386 In377 2.326 . S
O386 C382 1.260 . S
C387 O378 1.240 . S
C387 O379 1.252 . S
O388 In377 2.294 . S
O388 C381 1.240 . S
O389 In377 2.326 . S
O389 C381 1.252 . S
In390 O391 2.294 . S
In390 O392 2.326 . S
In390 O396 2.266 . S
In390 O397 2.326 . S
In390 O398 2.266 . S
In390 O399 2.326 . S
In390 O401 2.294 . S
In390 O402 2.326 . S
O391 In390 2.294 . S
O391 C400 1.240 . S
O392 In390 2.326 . S
O392 C400 1.252 . S
C393 O396 1.252 . S
C393 O397 1.260 . S
C394 O401 1.240 . S
C394 O402 1.252 . S
C395 O398 1.252 . S
C395 O399 1.260 . S
O396 In390 2.266 . S
O396 C393 1.252 . S
O397 In390 2.326 . S
O397 C393 1.260 . S
O398 In390 2.266 . S
O398 C395 1.252 . S
O399 In390 2.326 . S
O399 C395 1.260 . S
C400 O391 1.240 . S
C400 O392 1.252 . S
O401 In390 2.294 . S
O401 C394 1.240 . S
O402 In390 2.326 . S
O402 C394 1.252 . S
In403 O404 2.294 . S
In403 O405 2.326 . S
In403 O409 2.266 . S
In403 O410 2.326 . S
In403 O411 2.266 . S
In403 O412 2.326 . S
In403 O414 2.294 . S
In403 O415 2.326 . S
O404 In403 2.294 . S
O404 C413 1.240 . S
O405 In403 2.326 . S
O405 C413 1.252 . S
C406 O409 1.252 . S
C406 O410 1.260 . S
C407 O414 1.240 . S
C407 O415 1.252 . S
C408 O411 1.252 . S
C408 O412 1.260 . S
O409 In403 2.266 . S
O409 C406 1.252 . S
O410 In403 2.326 . S
O410 C406 1.260 . S
O411 In403 2.266 . S
O411 C408 1.252 . S
O412 In403 2.326 . S
O412 C408 1.260 . S
C413 O404 1.240 . S
C413 O405 1.252 . S
O414 In403 2.294 . S
O414 C407 1.240 . S
O415 In403 2.326 . S
O415 C407 1.252 . S
H416 C424 0.950 . S
H417 C429 0.950 . S
H418 C426 0.950 . S
H419 C428 0.950 . S
H420 C430 0.950 . S
H421 C432 0.950 . S
H422 C434 0.950 . S
H423 C435 0.950 . S
C424 H416 0.950 . S
C424 C425 1.386 . S
C424 C426 1.391 . S
C425 C424 1.386 . S
C425 C429 1.393 . S
C426 H418 0.950 . S
C426 C424 1.391 . S
C426 C427 1.400 . S
C427 C426 1.400 . S
C427 C428 1.398 . S
C427 C433 1.491 . S
C428 H419 0.950 . S
C428 C427 1.398 . S
C428 C429 1.391 . S
C429 H417 0.950 . S
C429 C425 1.393 . S
C429 C428 1.391 . S
C430 H420 0.950 . S
C430 C431 1.386 . S
C430 C432 1.391 . S
C431 C430 1.386 . S
C431 C435 1.393 . S
C432 H421 0.950 . S
C432 C430 1.391 . S
C432 C433 1.400 . S
C433 C427 1.491 . S
C433 C432 1.400 . S
C433 C434 1.398 . S
C434 H422 0.950 . S
C434 C433 1.398 . S
C434 C435 1.391 . S
C435 H423 0.950 . S
C435 C431 1.393 . S
C435 C434 1.391 . S
H436 C444 0.950 . S
H437 C449 0.950 . S
H438 C446 0.950 . S
H439 C448 0.950 . S
H440 C450 0.950 . S
H441 C452 0.950 . S
H442 C454 0.950 . S
H443 C455 0.950 . S
C444 H436 0.950 . S
C444 C445 1.386 . S
C444 C446 1.391 . S
C445 C444 1.386 . S
C445 C449 1.393 . S
C446 H438 0.950 . S
C446 C444 1.391 . S
C446 C447 1.400 . S
C447 C446 1.400 . S
C447 C448 1.398 . S
C447 C453 1.491 1_565 S
C448 H439 0.950 . S
C448 C447 1.398 . S
C448 C449 1.391 . S
C449 H437 0.950 . S
C449 C445 1.393 . S
C449 C448 1.391 . S
C450 H440 0.950 . S
C450 C451 1.386 . S
C450 C452 1.391 . S
C451 C450 1.386 . S
C451 C455 1.393 . S
C452 H441 0.950 . S
C452 C450 1.391 . S
C452 C453 1.400 . S
C453 C447 1.491 1_545 S
C453 C452 1.400 . S
C453 C454 1.398 . S
C454 H442 0.950 . S
C454 C453 1.398 . S
C454 C455 1.391 . S
C455 H443 0.950 . S
C455 C451 1.393 . S
C455 C454 1.391 . S
H456 C464 0.950 . S
H457 C469 0.950 . S
H458 C466 0.950 . S
H459 C468 0.950 . S
H460 C470 0.950 . S
H461 C472 0.950 . S
H462 C474 0.950 . S
H463 C475 0.950 . S
C464 H456 0.950 . S
C464 C465 1.386 . S
C464 C466 1.391 . S
C465 C464 1.386 . S
C465 C469 1.393 . S
C466 H458 0.950 . S
C466 C464 1.391 . S
C466 C467 1.400 . S
C467 C466 1.400 . S
C467 C468 1.398 . S
C467 C473 1.491 . S
C468 H459 0.950 . S
C468 C467 1.398 . S
C468 C469 1.391 . S
C469 H457 0.950 . S
C469 C465 1.393 . S
C469 C468 1.391 . S
C470 H460 0.950 . S
C470 C471 1.386 . S
C470 C472 1.391 . S
C471 C470 1.386 . S
C471 C475 1.393 . S
C472 H461 0.950 . S
C472 C470 1.391 . S
C472 C473 1.400 . S
C473 C467 1.491 . S
C473 C472 1.400 . S
C473 C474 1.398 . S
C474 H462 0.950 . S
C474 C473 1.398 . S
C474 C475 1.391 . S
C475 H463 0.950 . S
C475 C471 1.393 . S
C475 C474 1.391 . S
H476 C484 0.950 . S
H477 C489 0.950 . S
H478 C486 0.950 . S
H479 C488 0.950 . S
H480 C490 0.950 . S
H481 C492 0.950 . S
H482 C494 0.950 . S
H483 C495 0.950 . S
C484 H476 0.950 . S
C484 C485 1.386 . S
C484 C486 1.391 . S
C485 C484 1.386 . S
C485 C489 1.393 . S
C486 H478 0.950 . S
C486 C484 1.391 . S
C486 C487 1.400 . S
C487 C486 1.400 . S
C487 C488 1.398 . S
C487 C493 1.491 1_546 S
C488 H479 0.950 . S
C488 C487 1.398 . S
C488 C489 1.391 . S
C489 H477 0.950 . S
C489 C485 1.393 . S
C489 C488 1.391 . S
C490 H480 0.950 . S
C490 C491 1.386 . S
C490 C492 1.391 . S
C491 C490 1.386 . S
C491 C495 1.393 . S
C492 H481 0.950 . S
C492 C490 1.391 . S
C492 C493 1.400 . S
C493 C487 1.491 1_564 S
C493 C492 1.400 . S
C493 C494 1.398 . S
C494 H482 0.950 . S
C494 C493 1.398 . S
C494 C495 1.391 . S
C495 H483 0.950 . S
C495 C491 1.393 . S
C495 C494 1.391 . S
H496 C504 0.950 . S
H497 C509 0.950 . S
H498 C506 0.950 . S
H499 C508 0.950 . S
H500 C510 0.950 . S
H501 C512 0.950 . S
H502 C514 0.950 . S
H503 C515 0.950 . S
C504 H496 0.950 . S
C504 C505 1.386 . S
C504 C506 1.391 . S
C505 C504 1.386 . S
C505 C509 1.393 . S
C506 H498 0.950 . S
C506 C504 1.391 . S
C506 C507 1.400 . S
C507 C506 1.400 . S
C507 C508 1.398 . S
C507 C513 1.491 . S
C508 H499 0.950 . S
C508 C507 1.398 . S
C508 C509 1.391 . S
C509 H497 0.950 . S
C509 C505 1.393 . S
C509 C508 1.391 . S
C510 H500 0.950 . S
C510 C511 1.386 . S
C510 C512 1.391 . S
C511 C510 1.386 . S
C511 C515 1.393 . S
C512 H501 0.950 . S
C512 C510 1.391 . S
C512 C513 1.400 . S
C513 C507 1.491 . S
C513 C512 1.400 . S
C513 C514 1.398 . S
C514 H502 0.950 . S
C514 C513 1.398 . S
C514 C515 1.391 . S
C515 H503 0.950 . S
C515 C511 1.393 . S
C515 C514 1.391 . S
H516 C524 0.950 . S
H517 C529 0.950 . S
H518 C526 0.950 . S
H519 C528 0.950 . S
H520 C530 0.950 . S
H521 C532 0.950 . S
H522 C534 0.950 . S
H523 C535 0.950 . S
C524 H516 0.950 . S
C524 C525 1.386 . S
C524 C526 1.391 . S
C525 C524 1.386 . S
C525 C529 1.393 . S
C526 H518 0.950 . S
C526 C524 1.391 . S
C526 C527 1.400 . S
C527 C526 1.400 . S
C527 C528 1.398 . S
C527 C533 1.491 1_565 S
C528 H519 0.950 . S
C528 C527 1.398 . S
C528 C529 1.391 . S
C529 H517 0.950 . S
C529 C525 1.393 . S
C529 C528 1.391 . S
C530 H520 0.950 . S
C530 C531 1.386 . S
C530 C532 1.391 . S
C531 C530 1.386 . S
C531 C535 1.393 . S
C532 H521 0.950 . S
C532 C530 1.391 . S
C532 C533 1.400 . S
C533 C527 1.491 1_545 S
C533 C532 1.400 . S
C533 C534 1.398 . S
C534 H522 0.950 . S
C534 C533 1.398 . S
C534 C535 1.391 . S
C535 H523 0.950 . S
C535 C531 1.393 . S
C535 C534 1.391 . S
H536 C544 0.950 . S
H537 C549 0.950 . S
H538 C546 0.950 . S
H539 C548 0.950 . S
H540 C550 0.950 . S
H541 C552 0.950 . S
H542 C554 0.950 . S
H543 C555 0.950 . S
C544 H536 0.950 . S
C544 C545 1.386 . S
C544 C546 1.391 . S
C545 C544 1.386 . S
C545 C549 1.393 . S
C546 H538 0.950 . S
C546 C544 1.391 . S
C546 C547 1.400 . S
C547 C546 1.400 . S
C547 C548 1.398 . S
C547 C553 1.491 . S
C548 H539 0.950 . S
C548 C547 1.398 . S
C548 C549 1.391 . S
C549 H537 0.950 . S
C549 C545 1.393 . S
C549 C548 1.391 . S
C550 H540 0.950 . S
C550 C551 1.386 . S
C550 C552 1.391 . S
C551 C550 1.386 . S
C551 C555 1.393 . S
C552 H541 0.950 . S
C552 C550 1.391 . S
C552 C553 1.400 . S
C553 C547 1.491 . S
C553 C552 1.400 . S
C553 C554 1.398 . S
C554 H542 0.950 . S
C554 C553 1.398 . S
C554 C555 1.391 . S
C555 H543 0.950 . S
C555 C551 1.393 . S
C555 C554 1.391 . S
H556 C564 0.950 . S
H557 C569 0.950 . S
H558 C566 0.950 . S
H559 C568 0.950 . S
H560 C570 0.950 . S
H561 C572 0.950 . S
H562 C574 0.950 . S
H563 C575 0.950 . S
C564 H556 0.950 . S
C564 C565 1.385 1_554 S
C564 C566 1.392 . S
C565 C564 1.385 1_556 S
C565 C569 1.393 . S
C566 H558 0.950 . S
C566 C564 1.392 . S
C566 C567 1.400 1_554 S
C567 C566 1.400 1_556 S
C567 C568 1.398 . S
C567 C573 1.491 1_546 S
C568 H559 0.950 . S
C568 C567 1.398 . S
C568 C569 1.391 . S
C569 H557 0.950 . S
C569 C565 1.393 . S
C569 C568 1.391 . S
C570 H560 0.950 . S
C570 C571 1.385 1_556 S
C570 C572 1.392 . S
C571 C570 1.385 1_554 S
C571 C575 1.393 . S
C572 H561 0.950 . S
C572 C570 1.392 . S
C572 C573 1.400 1_556 S
C573 C567 1.491 1_564 S
C573 C572 1.400 1_554 S
C573 C574 1.398 . S
C574 H562 0.950 . S
C574 C573 1.398 . S
C574 C575 1.391 . S
C575 H563 0.950 . S
C575 C571 1.393 . S
C575 C574 1.391 . S
H576 C584 0.950 . S
H577 C589 0.950 . S
H578 C586 0.950 . S
H579 C588 0.950 . S
H580 C590 0.950 . S
H581 C592 0.950 . S
H582 C594 0.950 . S
H583 C595 0.950 . S
C584 H576 0.950 . S
C584 C585 1.386 . S
C584 C586 1.391 . S
C585 C584 1.386 . S
C585 C589 1.393 . S
C586 H578 0.950 . S
C586 C584 1.391 . S
C586 C587 1.400 . S
C587 C586 1.400 . S
C587 C588 1.398 . S
C587 C593 1.491 . S
C588 H579 0.950 . S
C588 C587 1.398 . S
C588 C589 1.391 . S
C589 H577 0.950 . S
C589 C585 1.393 . S
C589 C588 1.391 . S
C590 H580 0.950 . S
C590 C591 1.386 . S
C590 C592 1.391 . S
C591 C590 1.386 . S
C591 C595 1.393 . S
C592 H581 0.950 . S
C592 C590 1.391 . S
C592 C593 1.400 . S
C593 C587 1.491 . S
C593 C592 1.400 . S
C593 C594 1.398 . S
C594 H582 0.950 . S
C594 C593 1.398 . S
C594 C595 1.391 . S
C595 H583 0.950 . S
C595 C591 1.393 . S
C595 C594 1.391 . S
H596 C604 0.950 . S
H597 C609 0.950 . S
H598 C606 0.950 1_554 S
H599 C608 0.950 . S
H600 C610 0.950 . S
H601 C612 0.950 1_556 S
H602 C614 0.950 . S
H603 C615 0.950 . S
C604 H596 0.950 . S
C604 C605 1.386 . S
C604 C606 1.391 . S
C605 C604 1.386 . S
C605 C609 1.393 . S
C606 H598 0.950 1_556 S
C606 C604 1.391 . S
C606 C607 1.400 . S
C607 C606 1.400 . S
C607 C608 1.398 . S
C607 C613 1.491 1_556 S
C608 H599 0.950 . S
C608 C607 1.398 . S
C608 C609 1.391 . S
C609 H597 0.950 . S
C609 C605 1.393 . S
C609 C608 1.391 . S
C610 H600 0.950 . S
C610 C611 1.386 . S
C610 C612 1.391 . S
C611 C610 1.386 . S
C611 C615 1.393 . S
C612 H601 0.950 1_554 S
C612 C610 1.391 . S
C612 C613 1.400 . S
C613 C607 1.491 1_554 S
C613 C612 1.400 . S
C613 C614 1.398 . S
C614 H602 0.950 . S
C614 C613 1.398 . S
C614 C615 1.391 . S
C615 H603 0.950 . S
C615 C611 1.393 . S
C615 C614 1.391 . S
H616 C624 0.950 . S
H617 C629 0.950 . S
H618 C626 0.950 . S
H619 C628 0.950 . S
H620 C630 0.950 . S
H621 C632 0.950 . S
H622 C634 0.950 . S
H623 C635 0.950 . S
C624 H616 0.950 . S
C624 C625 1.386 . S
C624 C626 1.391 . S
C625 C624 1.386 . S
C625 C629 1.393 . S
C626 H618 0.950 . S
C626 C624 1.391 . S
C626 C627 1.400 . S
C627 C626 1.400 . S
C627 C628 1.398 . S
C627 C633 1.491 . S
C628 H619 0.950 . S
C628 C627 1.398 . S
C628 C629 1.391 . S
C629 H617 0.950 . S
C629 C625 1.393 . S
C629 C628 1.391 . S
C630 H620 0.950 . S
C630 C631 1.386 . S
C630 C632 1.391 . S
C631 C630 1.386 . S
C631 C635 1.393 . S
C632 H621 0.950 . S
C632 C630 1.391 . S
C632 C633 1.400 . S
C633 C627 1.491 . S
C633 C632 1.400 . S
C633 C634 1.398 . S
C634 H622 0.950 . S
C634 C633 1.398 . S
C634 C635 1.391 . S
C635 H623 0.950 . S
C635 C631 1.393 . S
C635 C634 1.391 . S
H636 C644 0.950 . S
H637 C649 0.950 . S
H638 C646 0.950 . S
H639 C648 0.950 . S
H640 C650 0.950 . S
H641 C652 0.950 . S
H642 C654 0.950 . S
H643 C655 0.950 . S
C644 H636 0.950 . S
C644 C645 1.386 . S
C644 C646 1.391 . S
C645 C644 1.386 . S
C645 C649 1.393 . S
C646 H638 0.950 . S
C646 C644 1.391 . S
C646 C647 1.400 . S
C647 C646 1.400 . S
C647 C648 1.398 . S
C647 C653 1.491 . S
C648 H639 0.950 . S
C648 C647 1.398 . S
C648 C649 1.391 . S
C649 H637 0.950 . S
C649 C645 1.393 . S
C649 C648 1.391 . S
C650 H640 0.950 . S
C650 C651 1.386 . S
C650 C652 1.391 . S
C651 C650 1.386 . S
C651 C655 1.393 . S
C652 H641 0.950 . S
C652 C650 1.391 . S
C652 C653 1.400 . S
C653 C647 1.491 . S
C653 C652 1.400 . S
C653 C654 1.398 . S
C654 H642 0.950 . S
C654 C653 1.398 . S
C654 C655 1.391 . S
C655 H643 0.950 . S
C655 C651 1.393 . S
C655 C654 1.391 . S
H656 C664 0.950 . S
H657 C669 0.950 . S
H658 C666 0.950 . S
H659 C668 0.950 . S
H660 C670 0.950 . S
H661 C672 0.950 . S
H662 C674 0.950 . S
H663 C675 0.950 . S
C664 H656 0.950 . S
C664 C665 1.386 . S
C664 C666 1.391 . S
C665 C664 1.386 . S
C665 C669 1.393 . S
C666 H658 0.950 . S
C666 C664 1.391 . S
C666 C667 1.400 . S
C667 C666 1.400 . S
C667 C668 1.398 . S
C667 C673 1.491 . S
C668 H659 0.950 . S
C668 C667 1.398 . S
C668 C669 1.391 . S
C669 H657 0.950 . S
C669 C665 1.393 . S
C669 C668 1.391 . S
C670 H660 0.950 . S
C670 C671 1.386 . S
C670 C672 1.391 . S
C671 C670 1.386 . S
C671 C675 1.393 . S
C672 H661 0.950 . S
C672 C670 1.391 . S
C672 C673 1.400 . S
C673 C667 1.491 . S
C673 C672 1.400 . S
C673 C674 1.398 . S
C674 H662 0.950 . S
C674 C673 1.398 . S
C674 C675 1.391 . S
C675 H663 0.950 . S
C675 C671 1.393 . S
C675 C674 1.391 . S
H676 C684 0.950 1_556 S
H677 C689 0.950 . S
H678 C686 0.950 . S
H679 C688 0.950 . S
H680 C690 0.950 1_554 S
H681 C692 0.950 . S
H682 C694 0.950 . S
H683 C695 0.950 . S
C684 H676 0.950 1_554 S
C684 C685 1.386 . S
C684 C686 1.391 1_554 S
C685 C684 1.386 . S
C685 C689 1.393 . S
C686 H678 0.950 . S
C686 C684 1.391 1_556 S
C686 C687 1.400 1_556 S
C687 C686 1.400 1_554 S
C687 C688 1.398 . S
C687 C693 1.491 1_554 S
C688 H679 0.950 . S
C688 C687 1.398 . S
C688 C689 1.391 . S
C689 H677 0.950 . S
C689 C685 1.393 . S
C689 C688 1.391 . S
C690 H680 0.950 1_556 S
C690 C691 1.386 . S
C690 C692 1.391 1_556 S
C691 C690 1.386 . S
C691 C695 1.393 . S
C692 H681 0.950 . S
C692 C690 1.391 1_554 S
C692 C693 1.400 1_554 S
C693 C687 1.491 1_556 S
C693 C692 1.400 1_556 S
C693 C694 1.398 . S
C694 H682 0.950 . S
C694 C693 1.398 . S
C694 C695 1.391 . S
C695 H683 0.950 . S
C695 C691 1.393 . S
C695 C694 1.391 . S
H696 C704 0.950 . S
H697 C709 0.950 . S
H698 C706 0.950 . S
H699 C708 0.950 . S
H700 C710 0.950 . S
H701 C712 0.950 . S
H702 C714 0.950 . S
H703 C715 0.950 . S
C704 H696 0.950 . S
C704 C705 1.386 . S
C704 C706 1.391 . S
C705 C704 1.386 . S
C705 C709 1.393 . S
C706 H698 0.950 . S
C706 C704 1.391 . S
C706 C707 1.400 . S
C707 C706 1.400 . S
C707 C708 1.398 . S
C707 C713 1.491 . S
C708 H699 0.950 . S
C708 C707 1.398 . S
C708 C709 1.391 . S
C709 H697 0.950 . S
C709 C705 1.393 . S
C709 C708 1.391 . S
C710 H700 0.950 . S
C710 C711 1.386 . S
C710 C712 1.391 . S
C711 C710 1.386 . S
C711 C715 1.393 . S
C712 H701 0.950 . S
C712 C710 1.391 . S
C712 C713 1.400 . S
C713 C707 1.491 . S
C713 C712 1.400 . S
C713 C714 1.398 . S
C714 H702 0.950 . S
C714 C713 1.398 . S
C714 C715 1.391 . S
C715 H703 0.950 . S
C715 C711 1.393 . S
C715 C714 1.391 . S
H716 C724 0.950 . S
H717 C729 0.950 . S
H718 C726 0.950 . S
H719 C728 0.950 . S
H720 C730 0.950 . S
H721 C732 0.950 . S
H722 C734 0.950 . S
H723 C735 0.950 . S
C724 H716 0.950 . S
C724 C725 1.386 . S
C724 C726 1.391 . S
C725 C724 1.386 . S
C725 C729 1.393 . S
C726 H718 0.950 . S
C726 C724 1.391 . S
C726 C727 1.400 . S
C727 C726 1.400 . S
C727 C728 1.398 . S
C727 C733 1.491 . S
C728 H719 0.950 . S
C728 C727 1.398 . S
C728 C729 1.391 . S
C729 H717 0.950 . S
C729 C725 1.393 . S
C729 C728 1.391 . S
C730 H720 0.950 . S
C730 C731 1.386 . S
C730 C732 1.391 . S
C731 C730 1.386 . S
C731 C735 1.393 . S
C732 H721 0.950 . S
C732 C730 1.391 . S
C732 C733 1.400 . S
C733 C727 1.491 . S
C733 C732 1.400 . S
C733 C734 1.398 . S
C734 H722 0.950 . S
C734 C733 1.398 . S
C734 C735 1.391 . S
C735 H723 0.950 . S
C735 C731 1.393 . S
C735 C734 1.391 . S
H736 C744 0.950 . S
H737 C749 0.950 . S
H738 C746 0.950 . S
H739 C748 0.950 . S
H740 C750 0.950 . S
H741 C752 0.950 . S
H742 C754 0.950 . S
H743 C755 0.950 . S
C744 H736 0.950 . S
C744 C745 1.386 . S
C744 C746 1.391 . S
C745 C744 1.386 . S
C745 C749 1.393 . S
C746 H738 0.950 . S
C746 C744 1.391 . S
C746 C747 1.400 . S
C747 C746 1.400 . S
C747 C748 1.398 . S
C747 C753 1.491 . S
C748 H739 0.950 . S
C748 C747 1.398 . S
C748 C749 1.391 . S
C749 H737 0.950 . S
C749 C745 1.393 . S
C749 C748 1.391 . S
C750 H740 0.950 . S
C750 C751 1.386 . S
C750 C752 1.391 . S
C751 C750 1.386 . S
C751 C755 1.393 . S
C752 H741 0.950 . S
C752 C750 1.391 . S
C752 C753 1.400 . S
C753 C747 1.491 . S
C753 C752 1.400 . S
C753 C754 1.398 . S
C754 H742 0.950 . S
C754 C753 1.398 . S
C754 C755 1.391 . S
C755 H743 0.950 . S
C755 C751 1.393 . S
C755 C754 1.391 . S
H756 C764 0.950 1_556 S
H757 C769 0.950 . S
H758 C766 0.950 . S
H759 C768 0.950 . S
H760 C770 0.950 . S
H761 C772 0.950 . S
H762 C774 0.950 . S
H763 C775 0.950 . S
C764 H756 0.950 1_554 S
C764 C765 1.386 . S
C764 C766 1.391 . S
C765 C764 1.386 . S
C765 C769 1.393 . S
C766 H758 0.950 . S
C766 C764 1.391 . S
C766 C767 1.400 . S
C767 C766 1.400 . S
C767 C768 1.398 . S
C767 C773 1.491 . S
C768 H759 0.950 . S
C768 C767 1.398 . S
C768 C769 1.391 . S
C769 H757 0.950 . S
C769 C765 1.393 . S
C769 C768 1.391 . S
C770 H760 0.950 . S
C770 C771 1.386 . S
C770 C772 1.391 . S
C771 C770 1.386 . S
C771 C775 1.393 . S
C772 H761 0.950 . S
C772 C770 1.391 . S
C772 C773 1.400 . S
C773 C767 1.491 . S
C773 C772 1.400 . S
C773 C774 1.398 . S
C774 H762 0.950 . S
C774 C773 1.398 . S
C774 C775 1.391 . S
C775 H763 0.950 . S
C775 C771 1.393 . S
C775 C774 1.391 . S
H776 C784 0.950 . S
H777 C789 0.950 . S
H778 C786 0.950 . S
H779 C788 0.950 . S
H780 C790 0.950 . S
H781 C792 0.950 . S
H782 C794 0.950 . S
H783 C795 0.950 . S
C784 H776 0.950 . S
C784 C785 1.386 . S
C784 C786 1.391 . S
C785 C784 1.386 . S
C785 C789 1.393 . S
C786 H778 0.950 . S
C786 C784 1.391 . S
C786 C787 1.400 . S
C787 C786 1.400 . S
C787 C788 1.398 . S
C787 C793 1.491 . S
C788 H779 0.950 . S
C788 C787 1.398 . S
C788 C789 1.391 . S
C789 H777 0.950 . S
C789 C785 1.393 . S
C789 C788 1.391 . S
C790 H780 0.950 . S
C790 C791 1.386 . S
C790 C792 1.391 . S
C791 C790 1.386 . S
C791 C795 1.393 . S
C792 H781 0.950 . S
C792 C790 1.391 . S
C792 C793 1.400 . S
C793 C787 1.491 . S
C793 C792 1.400 . S
C793 C794 1.398 . S
C794 H782 0.950 . S
C794 C793 1.398 . S
C794 C795 1.391 . S
C795 H783 0.950 . S
C795 C791 1.393 . S
C795 C794 1.391 . S
H796 C804 0.950 . S
H797 C809 0.950 . S
H798 C806 0.950 . S
H799 C808 0.950 . S
H800 C810 0.950 . S
H801 C812 0.950 . S
H802 C814 0.950 . S
H803 C815 0.950 . S
C804 H796 0.950 . S
C804 C805 1.386 . S
C804 C806 1.391 . S
C805 C804 1.386 . S
C805 C809 1.393 . S
C806 H798 0.950 . S
C806 C804 1.391 . S
C806 C807 1.400 . S
C807 C806 1.400 . S
C807 C808 1.398 . S
C807 C813 1.491 . S
C808 H799 0.950 . S
C808 C807 1.398 . S
C808 C809 1.391 . S
C809 H797 0.950 . S
C809 C805 1.393 . S
C809 C808 1.391 . S
C810 H800 0.950 . S
C810 C811 1.386 . S
C810 C812 1.391 . S
C811 C810 1.386 . S
C811 C815 1.393 . S
C812 H801 0.950 . S
C812 C810 1.391 . S
C812 C813 1.400 . S
C813 C807 1.491 . S
C813 C812 1.400 . S
C813 C814 1.398 . S
C814 H802 0.950 . S
C814 C813 1.398 . S
C814 C815 1.391 . S
C815 H803 0.950 . S
C815 C811 1.393 . S
C815 C814 1.391 . S
H816 C824 0.950 1_556 S
H817 C829 0.950 . S
H818 C826 0.950 . S
H819 C828 0.950 . S
H820 C830 0.950 . S
H821 C832 0.950 . S
H822 C834 0.950 . S
H823 C835 0.950 . S
C824 H816 0.950 1_554 S
C824 C825 1.386 . S
C824 C826 1.391 . S
C825 C824 1.386 . S
C825 C829 1.393 . S
C826 H818 0.950 . S
C826 C824 1.391 . S
C826 C827 1.400 . S
C827 C826 1.400 . S
C827 C828 1.398 . S
C827 C833 1.491 . S
C828 H819 0.950 . S
C828 C827 1.398 . S
C828 C829 1.391 . S
C829 H817 0.950 . S
C829 C825 1.393 . S
C829 C828 1.391 . S
C830 H820 0.950 . S
C830 C831 1.386 . S
C830 C832 1.391 . S
C831 C830 1.386 . S
C831 C835 1.393 . S
C832 H821 0.950 . S
C832 C830 1.391 . S
C832 C833 1.400 . S
C833 C827 1.491 . S
C833 C832 1.400 . S
C833 C834 1.398 . S
C834 H822 0.950 . S
C834 C833 1.398 . S
C834 C835 1.391 . S
C835 H823 0.950 . S
C835 C831 1.393 . S
C835 C834 1.391 . S
H836 C844 0.950 . S
H837 C849 0.950 . S
H838 C846 0.950 . S
H839 C848 0.950 . S
H840 C850 0.950 . S
H841 C852 0.950 . S
H842 C854 0.950 . S
H843 C855 0.950 . S
C844 H836 0.950 . S
C844 C845 1.386 . S
C844 C846 1.391 . S
C845 C844 1.386 . S
C845 C849 1.393 1_556 S
C846 H838 0.950 . S
C846 C844 1.391 . S
C846 C847 1.400 . S
C847 C846 1.400 . S
C847 C848 1.398 . S
C847 C853 1.491 . S
C848 H839 0.950 . S
C848 C847 1.398 . S
C848 C849 1.391 1_556 S
C849 H837 0.950 . S
C849 C845 1.393 1_554 S
C849 C848 1.391 1_554 S
C850 H840 0.950 . S
C850 C851 1.386 . S
C850 C852 1.391 . S
C851 C850 1.386 . S
C851 C855 1.393 . S
C852 H841 0.950 . S
C852 C850 1.391 . S
C852 C853 1.400 . S
C853 C847 1.491 . S
C853 C852 1.400 . S
C853 C854 1.398 . S
C854 H842 0.950 . S
C854 C853 1.398 . S
C854 C855 1.391 . S
C855 H843 0.950 . S
C855 C851 1.393 . S
C855 C854 1.391 . S
H856 C864 0.950 . S
H857 C869 0.950 . S
H858 C866 0.950 . S
H859 C868 0.950 . S
H860 C870 0.950 . S
H861 C872 0.950 . S
H862 C874 0.950 . S
H863 C875 0.950 . S
C864 H856 0.950 . S
C864 C865 1.386 . S
C864 C866 1.391 . S
C865 C864 1.386 . S
C865 C869 1.393 . S
C866 H858 0.950 . S
C866 C864 1.391 . S
C866 C867 1.400 . S
C867 C866 1.400 . S
C867 C868 1.398 . S
C867 C873 1.491 . S
C868 H859 0.950 . S
C868 C867 1.398 . S
C868 C869 1.391 . S
C869 H857 0.950 . S
C869 C865 1.393 . S
C869 C868 1.391 . S
C870 H860 0.950 . S
C870 C871 1.386 . S
C870 C872 1.391 . S
C871 C870 1.386 . S
C871 C875 1.393 . S
C872 H861 0.950 . S
C872 C870 1.391 . S
C872 C873 1.400 . S
C873 C867 1.491 . S
C873 C872 1.400 . S
C873 C874 1.398 . S
C874 H862 0.950 . S
C874 C873 1.398 . S
C874 C875 1.391 . S
C875 H863 0.950 . S
C875 C871 1.393 . S
C875 C874 1.391 . S
H876 C884 0.950 . S
H877 C889 0.950 . S
H878 C886 0.950 . S
H879 C888 0.950 . S
H880 C890 0.950 . S
H881 C892 0.950 . S
H882 C894 0.950 . S
H883 C895 0.950 . S
C884 H876 0.950 . S
C884 C885 1.386 . S
C884 C886 1.391 . S
C885 C884 1.386 . S
C885 C889 1.393 . S
C886 H878 0.950 . S
C886 C884 1.391 . S
C886 C887 1.400 . S
C887 C886 1.400 . S
C887 C888 1.398 . S
C887 C893 1.491 . S
C888 H879 0.950 . S
C888 C887 1.398 . S
C888 C889 1.391 . S
C889 H877 0.950 . S
C889 C885 1.393 . S
C889 C888 1.391 . S
C890 H880 0.950 . S
C890 C891 1.386 . S
C890 C892 1.391 . S
C891 C890 1.386 . S
C891 C895 1.393 . S
C892 H881 0.950 . S
C892 C890 1.391 . S
C892 C893 1.400 . S
C893 C887 1.491 . S
C893 C892 1.400 . S
C893 C894 1.398 . S
C894 H882 0.950 . S
C894 C893 1.398 . S
C894 C895 1.391 . S
C895 H883 0.950 . S
C895 C891 1.393 . S
C895 C894 1.391 . S
H896 C904 0.950 . S
H897 C909 0.950 . S
H898 C906 0.950 . S
H899 C908 0.950 . S
H900 C910 0.950 . S
H901 C912 0.950 . S
H902 C914 0.950 . S
H903 C915 0.950 . S
C904 H896 0.950 . S
C904 C905 1.386 . S
C904 C906 1.391 . S
C905 C904 1.386 . S
C905 C909 1.393 . S
C906 H898 0.950 . S
C906 C904 1.391 . S
C906 C907 1.400 . S
C907 C906 1.400 . S
C907 C908 1.398 . S
C907 C913 1.491 . S
C908 H899 0.950 . S
C908 C907 1.398 . S
C908 C909 1.391 . S
C909 H897 0.950 . S
C909 C905 1.393 . S
C909 C908 1.391 . S
C910 H900 0.950 . S
C910 C911 1.386 . S
C910 C912 1.391 . S
C911 C910 1.386 . S
C911 C915 1.393 . S
C912 H901 0.950 . S
C912 C910 1.391 . S
C912 C913 1.400 . S
C913 C907 1.491 . S
C913 C912 1.400 . S
C913 C914 1.398 . S
C914 H902 0.950 . S
C914 C913 1.398 . S
C914 C915 1.391 . S
C915 H903 0.950 . S
C915 C911 1.393 . S
C915 C914 1.391 . S
H916 C924 0.950 . S
H917 C929 0.950 . S
H918 C926 0.950 . S
H919 C928 0.950 . S
H920 C930 0.950 . S
H921 C932 0.950 . S
H922 C934 0.950 . S
H923 C935 0.950 . S
C924 H916 0.950 . S
C924 C925 1.386 . S
C924 C926 1.391 . S
C925 C924 1.386 . S
C925 C929 1.393 . S
C926 H918 0.950 . S
C926 C924 1.391 . S
C926 C927 1.400 . S
C927 C926 1.400 . S
C927 C928 1.398 . S
C927 C933 1.491 . S
C928 H919 0.950 . S
C928 C927 1.398 . S
C928 C929 1.391 . S
C929 H917 0.950 . S
C929 C925 1.393 . S
C929 C928 1.391 . S
C930 H920 0.950 . S
C930 C931 1.386 . S
C930 C932 1.391 . S
C931 C930 1.386 . S
C931 C935 1.393 . S
C932 H921 0.950 . S
C932 C930 1.391 . S
C932 C933 1.400 . S
C933 C927 1.491 . S
C933 C932 1.400 . S
C933 C934 1.398 . S
C934 H922 0.950 . S
C934 C933 1.398 . S
C934 C935 1.391 . S
C935 H923 0.950 . S
C935 C931 1.393 . S
C935 C934 1.391 . S
H936 C944 0.950 . S
H937 C949 0.950 . S
H938 C946 0.950 . S
H939 C948 0.950 . S
H940 C950 0.941 1_554 S
H941 C952 0.950 . S
H942 C954 0.950 . S
H943 C955 0.950 . S
C944 H936 0.950 . S
C944 C945 1.386 . S
C944 C946 1.391 . S
C945 C944 1.386 . S
C945 C949 1.393 . S
C946 H938 0.950 . S
C946 C944 1.391 . S
C946 C947 1.400 . S
C947 C946 1.400 . S
C947 C948 1.398 . S
C947 C953 1.491 . S
C948 H939 0.950 . S
C948 C947 1.398 . S
C948 C949 1.391 . S
C949 H937 0.950 . S
C949 C945 1.393 . S
C949 C948 1.391 . S
C950 H940 0.941 1_556 S
C950 C951 1.388 . S
C950 C952 1.397 . S
C951 C950 1.388 . S
C951 C955 1.393 . S
C952 H941 0.950 . S
C952 C950 1.397 . S
C952 C953 1.400 . S
C953 C947 1.491 . S
C953 C952 1.400 . S
C953 C954 1.398 . S
C954 H942 0.950 . S
C954 C953 1.398 . S
C954 C955 1.391 . S
C955 H943 0.950 . S
C955 C951 1.393 . S
C955 C954 1.391 . S
H956 C964 0.950 . S
H957 C969 0.950 . S
H958 C966 0.950 . S
H959 C968 0.950 . S
H960 C970 0.950 . S
H961 C972 0.950 . S
H962 C974 0.950 . S
H963 C975 0.950 1_556 S
C964 H956 0.950 . S
C964 C965 1.386 . S
C964 C966 1.391 . S
C965 C964 1.386 . S
C965 C969 1.393 . S
C966 H958 0.950 . S
C966 C964 1.391 . S
C966 C967 1.400 . S
C967 C966 1.400 . S
C967 C968 1.398 . S
C967 C973 1.491 . S
C968 H959 0.950 . S
C968 C967 1.398 . S
C968 C969 1.391 . S
C969 H957 0.950 . S
C969 C965 1.393 . S
C969 C968 1.391 . S
C970 H960 0.950 . S
C970 C971 1.386 . S
C970 C972 1.391 . S
C971 C970 1.386 . S
C971 C975 1.393 . S
C972 H961 0.950 . S
C972 C970 1.391 . S
C972 C973 1.400 . S
C973 C967 1.491 . S
C973 C972 1.400 . S
C973 C974 1.398 . S
C974 H962 0.950 . S
C974 C973 1.398 . S
C974 C975 1.391 . S
C975 H963 0.950 1_554 S
C975 C971 1.393 . S
C975 C974 1.391 . S
H976 C984 0.950 . S
H977 C989 0.950 . S
H978 C986 0.950 . S
H979 C988 0.950 . S
H980 C990 0.950 . S
H981 C992 0.950 . S
H982 C994 0.950 . S
H983 C995 0.950 . S
C984 H976 0.950 . S
C984 C985 1.386 . S
C984 C986 1.391 . S
C985 C984 1.386 . S
C985 C989 1.393 . S
C986 H978 0.950 . S
C986 C984 1.391 . S
C986 C987 1.400 . S
C987 C986 1.400 . S
C987 C988 1.398 . S
C987 C993 1.491 . S
C988 H979 0.950 . S
C988 C987 1.398 . S
C988 C989 1.391 . S
C989 H977 0.950 . S
C989 C985 1.393 . S
C989 C988 1.391 . S
C990 H980 0.950 . S
C990 C991 1.386 . S
C990 C992 1.391 . S
C991 C990 1.386 . S
C991 C995 1.393 . S
C992 H981 0.950 . S
C992 C990 1.391 . S
C992 C993 1.400 . S
C993 C987 1.491 . S
C993 C992 1.400 . S
C993 C994 1.398 . S
C994 H982 0.950 . S
C994 C993 1.398 . S
C994 C995 1.391 . S
C995 H983 0.950 . S
C995 C991 1.393 . S
C995 C994 1.391 . S
H996 C1004 0.950 . S
H997 C1009 0.950 . S
H998 C1006 0.950 . S
H999 C1008 0.950 . S
H1000 C1010 0.950 . S
H1001 C1012 0.950 . S
H1002 C1014 0.950 . S
H1003 C1015 0.950 . S
C1004 H996 0.950 . S
C1004 C1005 1.386 . S
C1004 C1006 1.391 . S
C1005 C1004 1.386 . S
C1005 C1009 1.393 . S
C1006 H998 0.950 . S
C1006 C1004 1.391 . S
C1006 C1007 1.400 . S
C1007 C1006 1.400 . S
C1007 C1008 1.398 . S
C1007 C1013 1.491 . S
C1008 H999 0.950 . S
C1008 C1007 1.398 . S
C1008 C1009 1.391 . S
C1009 H997 0.950 . S
C1009 C1005 1.393 . S
C1009 C1008 1.391 . S
C1010 H1000 0.950 . S
C1010 C1011 1.386 . S
C1010 C1012 1.391 . S
C1011 C1010 1.386 . S
C1011 C1015 1.393 . S
C1012 H1001 0.950 . S
C1012 C1010 1.391 . S
C1012 C1013 1.400 . S
C1013 C1007 1.491 . S
C1013 C1012 1.400 . S
C1013 C1014 1.398 . S
C1014 H1002 0.950 . S
C1014 C1013 1.398 . S
C1014 C1015 1.391 . S
C1015 H1003 0.950 . S
C1015 C1011 1.393 . S
C1015 C1014 1.391 . S
H1016 C1024 0.950 . S
H1017 C1029 0.950 . S
H1018 C1026 0.950 . S
H1019 C1028 0.950 . S
H1020 C1030 0.950 . S
H1021 C1032 0.950 . S
H1022 C1034 0.950 . S
H1023 C1035 0.950 . S
C1024 H1016 0.950 . S
C1024 C1025 1.386 . S
C1024 C1026 1.391 . S
C1025 C1024 1.386 . S
C1025 C1029 1.393 1_554 S
C1026 H1018 0.950 . S
C1026 C1024 1.391 . S
C1026 C1027 1.400 . S
C1027 C1026 1.400 . S
C1027 C1028 1.398 . S
C1027 C1033 1.491 . S
C1028 H1019 0.950 . S
C1028 C1027 1.398 . S
C1028 C1029 1.391 1_554 S
C1029 H1017 0.950 . S
C1029 C1025 1.393 1_556 S
C1029 C1028 1.391 1_556 S
C1030 H1020 0.950 . S
C1030 C1031 1.386 . S
C1030 C1032 1.391 . S
C1031 C1030 1.386 . S
C1031 C1035 1.393 . S
C1032 H1021 0.950 . S
C1032 C1030 1.391 . S
C1032 C1033 1.400 . S
C1033 C1027 1.491 . S
C1033 C1032 1.400 . S
C1033 C1034 1.398 . S
C1034 H1022 0.950 . S
C1034 C1033 1.398 . S
C1034 C1035 1.391 . S
C1035 H1023 0.950 . S
C1035 C1031 1.393 . S
C1035 C1034 1.391 . S
H1036 C1044 0.950 . S
H1037 C1049 0.950 . S
H1038 C1046 0.950 . S
H1039 C1048 0.950 . S
H1040 C1050 0.950 . S
H1041 C1052 0.950 . S
H1042 C1054 0.950 . S
H1043 C1055 0.950 . S
C1044 H1036 0.950 . S
C1044 C1045 1.386 . S
C1044 C1046 1.391 . S
C1045 C1044 1.386 . S
C1045 C1049 1.393 . S
C1046 H1038 0.950 . S
C1046 C1044 1.391 . S
C1046 C1047 1.400 . S
C1047 C1046 1.400 . S
C1047 C1048 1.398 . S
C1047 C1053 1.491 . S
C1048 H1039 0.950 . S
C1048 C1047 1.398 . S
C1048 C1049 1.391 . S
C1049 H1037 0.950 . S
C1049 C1045 1.393 . S
C1049 C1048 1.391 . S
C1050 H1040 0.950 . S
C1050 C1051 1.386 . S
C1050 C1052 1.391 . S
C1051 C1050 1.386 . S
C1051 C1055 1.393 . S
C1052 H1041 0.950 . S
C1052 C1050 1.391 . S
C1052 C1053 1.400 . S
C1053 C1047 1.491 . S
C1053 C1052 1.400 . S
C1053 C1054 1.398 . S
C1054 H1042 0.950 . S
C1054 C1053 1.398 . S
C1054 C1055 1.391 . S
C1055 H1043 0.950 . S
C1055 C1051 1.393 . S
C1055 C1054 1.391 . S
H1056 C1064 0.950 . S
H1057 C1069 0.950 . S
H1058 C1066 0.950 . S
H1059 C1068 0.950 . S
H1060 C1070 0.950 . S
H1061 C1072 0.950 . S
H1062 C1074 0.950 . S
H1063 C1075 0.950 . S
C1064 H1056 0.950 . S
C1064 C1065 1.386 . S
C1064 C1066 1.391 . S
C1065 C1064 1.386 . S
C1065 C1069 1.393 . S
C1066 H1058 0.950 . S
C1066 C1064 1.391 . S
C1066 C1067 1.400 . S
C1067 C1066 1.400 . S
C1067 C1068 1.398 . S
C1067 C1073 1.491 . S
C1068 H1059 0.950 . S
C1068 C1067 1.398 . S
C1068 C1069 1.391 . S
C1069 H1057 0.950 . S
C1069 C1065 1.393 . S
C1069 C1068 1.391 . S
C1070 H1060 0.950 . S
C1070 C1071 1.386 . S
C1070 C1072 1.391 . S
C1071 C1070 1.386 . S
C1071 C1075 1.393 . S
C1072 H1061 0.950 . S
C1072 C1070 1.391 . S
C1072 C1073 1.400 . S
C1073 C1067 1.491 . S
C1073 C1072 1.400 . S
C1073 C1074 1.398 . S
C1074 H1062 0.950 . S
C1074 C1073 1.398 . S
C1074 C1075 1.391 . S
C1075 H1063 0.950 . S
C1075 C1071 1.393 . S
C1075 C1074 1.391 . S
H1076 C1084 0.950 . S
H1077 C1089 0.950 . S
H1078 C1086 0.950 . S
H1079 C1088 0.950 . S
H1080 C1090 0.950 . S
H1081 C1092 0.950 . S
H1082 C1094 0.950 . S
H1083 C1095 0.950 . S
C1084 H1076 0.950 . S
C1084 C1085 1.386 . S
C1084 C1086 1.391 . S
C1085 C1084 1.386 . S
C1085 C1089 1.393 . S
C1086 H1078 0.950 . S
C1086 C1084 1.391 . S
C1086 C1087 1.400 . S
C1087 C1086 1.400 . S
C1087 C1088 1.398 . S
C1087 C1093 1.491 1_655 S
C1088 H1079 0.950 . S
C1088 C1087 1.398 . S
C1088 C1089 1.391 . S
C1089 H1077 0.950 . S
C1089 C1085 1.393 . S
C1089 C1088 1.391 . S
C1090 H1080 0.950 . S
C1090 C1091 1.386 . S
C1090 C1092 1.391 . S
C1091 C1090 1.386 . S
C1091 C1095 1.393 . S
C1092 H1081 0.950 . S
C1092 C1090 1.391 . S
C1092 C1093 1.400 . S
C1093 C1087 1.491 1_455 S
C1093 C1092 1.400 . S
C1093 C1094 1.398 . S
C1094 H1082 0.950 . S
C1094 C1093 1.398 . S
C1094 C1095 1.391 . S
C1095 H1083 0.950 . S
C1095 C1091 1.393 . S
C1095 C1094 1.391 . S
H1096 C1104 0.950 . S
H1097 C1109 0.950 . S
H1098 C1106 0.950 . S
H1099 C1108 0.950 . S
H1100 C1110 0.950 . S
H1101 C1112 0.950 . S
H1102 C1114 0.950 . S
H1103 C1115 0.950 . S
C1104 H1096 0.950 . S
C1104 C1105 1.386 . S
C1104 C1106 1.391 . S
C1105 C1104 1.386 . S
C1105 C1109 1.393 . S
C1106 H1098 0.950 . S
C1106 C1104 1.391 . S
C1106 C1107 1.400 . S
C1107 C1106 1.400 . S
C1107 C1108 1.398 . S
C1107 C1113 1.491 . S
C1108 H1099 0.950 . S
C1108 C1107 1.398 . S
C1108 C1109 1.391 . S
C1109 H1097 0.950 . S
C1109 C1105 1.393 . S
C1109 C1108 1.391 . S
C1110 H1100 0.950 . S
C1110 C1111 1.386 . S
C1110 C1112 1.391 . S
C1111 C1110 1.386 . S
C1111 C1115 1.393 . S
C1112 H1101 0.950 . S
C1112 C1110 1.391 . S
C1112 C1113 1.400 . S
C1113 C1107 1.491 . S
C1113 C1112 1.400 . S
C1113 C1114 1.398 . S
C1114 H1102 0.950 . S
C1114 C1113 1.398 . S
C1114 C1115 1.391 . S
C1115 H1103 0.950 . S
C1115 C1111 1.393 . S
C1115 C1114 1.391 . S
H1116 C1124 0.950 . S
H1117 C1129 0.950 . S
H1118 C1126 0.950 . S
H1119 C1128 0.950 . S
H1120 C1130 0.950 . S
H1121 C1132 0.950 . S
H1122 C1134 0.950 . S
H1123 C1135 0.950 . S
C1124 H1116 0.950 . S
C1124 C1125 1.386 . S
C1124 C1126 1.391 . S
C1125 C1124 1.386 . S
C1125 C1129 1.393 . S
C1126 H1118 0.950 . S
C1126 C1124 1.391 . S
C1126 C1127 1.400 . S
C1127 C1126 1.400 . S
C1127 C1128 1.398 . S
C1127 C1133 1.491 . S
C1128 H1119 0.950 . S
C1128 C1127 1.398 . S
C1128 C1129 1.391 . S
C1129 H1117 0.950 . S
C1129 C1125 1.393 . S
C1129 C1128 1.391 . S
C1130 H1120 0.950 . S
C1130 C1131 1.386 . S
C1130 C1132 1.391 . S
C1131 C1130 1.386 . S
C1131 C1135 1.393 . S
C1132 H1121 0.950 . S
C1132 C1130 1.391 . S
C1132 C1133 1.400 . S
C1133 C1127 1.491 . S
C1133 C1132 1.400 . S
C1133 C1134 1.398 . S
C1134 H1122 0.950 . S
C1134 C1133 1.398 . S
C1134 C1135 1.391 . S
C1135 H1123 0.950 . S
C1135 C1131 1.393 . S
C1135 C1134 1.391 . S
H1136 C1144 0.950 . S
H1137 C1149 0.950 . S
H1138 C1146 0.950 . S
H1139 C1148 0.950 . S
H1140 C1150 0.950 . S
H1141 C1152 0.950 . S
H1142 C1154 0.950 . S
H1143 C1155 0.950 . S
C1144 H1136 0.950 . S
C1144 C1145 1.386 . S
C1144 C1146 1.391 . S
C1145 C1144 1.386 . S
C1145 C1149 1.393 . S
C1146 H1138 0.950 . S
C1146 C1144 1.391 . S
C1146 C1147 1.400 . S
C1147 C1146 1.400 . S
C1147 C1148 1.398 . S
C1147 C1153 1.491 . S
C1148 H1139 0.950 . S
C1148 C1147 1.398 . S
C1148 C1149 1.391 . S
C1149 H1137 0.950 . S
C1149 C1145 1.393 . S
C1149 C1148 1.391 . S
C1150 H1140 0.950 . S
C1150 C1151 1.386 . S
C1150 C1152 1.391 . S
C1151 C1150 1.386 . S
C1151 C1155 1.393 . S
C1152 H1141 0.950 . S
C1152 C1150 1.391 . S
C1152 C1153 1.400 . S
C1153 C1147 1.491 . S
C1153 C1152 1.400 . S
C1153 C1154 1.398 . S
C1154 H1142 0.950 . S
C1154 C1153 1.398 . S
C1154 C1155 1.391 . S
C1155 H1143 0.950 . S
C1155 C1151 1.393 . S
C1155 C1154 1.391 . S
H1156 C1164 0.950 . S
H1157 C1169 0.950 . S
H1158 C1166 0.950 . S
H1159 C1168 0.950 . S
H1160 C1170 0.950 . S
H1161 C1172 0.950 . S
H1162 C1174 0.950 . S
H1163 C1175 0.950 . S
C1164 H1156 0.950 . S
C1164 C1165 1.386 . S
C1164 C1166 1.391 . S
C1165 C1164 1.386 . S
C1165 C1169 1.393 . S
C1166 H1158 0.950 . S
C1166 C1164 1.391 . S
C1166 C1167 1.400 . S
C1167 C1166 1.400 . S
C1167 C1168 1.398 . S
C1167 C1173 1.491 . S
C1168 H1159 0.950 . S
C1168 C1167 1.398 . S
C1168 C1169 1.391 . S
C1169 H1157 0.950 . S
C1169 C1165 1.393 . S
C1169 C1168 1.391 . S
C1170 H1160 0.950 . S
C1170 C1171 1.386 . S
C1170 C1172 1.391 . S
C1171 C1170 1.386 . S
C1171 C1175 1.393 . S
C1172 H1161 0.950 . S
C1172 C1170 1.391 . S
C1172 C1173 1.400 . S
C1173 C1167 1.491 . S
C1173 C1172 1.400 . S
C1173 C1174 1.398 . S
C1174 H1162 0.950 . S
C1174 C1173 1.398 . S
C1174 C1175 1.391 . S
C1175 H1163 0.950 . S
C1175 C1171 1.393 . S
C1175 C1174 1.391 . S
H1176 C1184 0.950 . S
H1177 C1189 0.950 . S
H1178 C1186 0.950 . S
H1179 C1188 0.950 . S
H1180 C1190 0.950 . S
H1181 C1192 0.950 . S
H1182 C1194 0.950 . S
H1183 C1195 0.950 . S
C1184 H1176 0.950 . S
C1184 C1185 1.386 . S
C1184 C1186 1.391 . S
C1185 C1184 1.386 . S
C1185 C1189 1.393 . S
C1186 H1178 0.950 . S
C1186 C1184 1.391 . S
C1186 C1187 1.400 . S
C1187 C1186 1.400 . S
C1187 C1188 1.398 . S
C1187 C1193 1.491 . S
C1188 H1179 0.950 . S
C1188 C1187 1.398 . S
C1188 C1189 1.391 . S
C1189 H1177 0.950 . S
C1189 C1185 1.393 . S
C1189 C1188 1.391 . S
C1190 H1180 0.950 . S
C1190 C1191 1.386 . S
C1190 C1192 1.391 . S
C1191 C1190 1.386 . S
C1191 C1195 1.393 . S
C1192 H1181 0.950 . S
C1192 C1190 1.391 . S
C1192 C1193 1.400 . S
C1193 C1187 1.491 . S
C1193 C1192 1.400 . S
C1193 C1194 1.398 . S
C1194 H1182 0.950 . S
C1194 C1193 1.398 . S
C1194 C1195 1.391 . S
C1195 H1183 0.950 . S
C1195 C1191 1.393 . S
C1195 C1194 1.391 . S
H1196 C1204 0.950 . S
H1197 C1209 0.950 . S
H1198 C1206 0.950 . S
H1199 C1208 0.950 . S
H1200 C1210 0.950 . S
H1201 C1212 0.950 . S
H1202 C1214 0.950 . S
H1203 C1215 0.950 . S
C1204 H1196 0.950 . S
C1204 C1205 1.386 . S
C1204 C1206 1.391 . S
C1205 C1204 1.386 . S
C1205 C1209 1.393 . S
C1206 H1198 0.950 . S
C1206 C1204 1.391 . S
C1206 C1207 1.400 . S
C1207 C1206 1.400 . S
C1207 C1208 1.398 . S
C1207 C1213 1.491 1_655 S
C1208 H1199 0.950 . S
C1208 C1207 1.398 . S
C1208 C1209 1.391 . S
C1209 H1197 0.950 . S
C1209 C1205 1.393 . S
C1209 C1208 1.391 . S
C1210 H1200 0.950 . S
C1210 C1211 1.386 . S
C1210 C1212 1.391 . S
C1211 C1210 1.386 . S
C1211 C1215 1.393 . S
C1212 H1201 0.950 . S
C1212 C1210 1.391 . S
C1212 C1213 1.400 . S
C1213 C1207 1.491 1_455 S
C1213 C1212 1.400 . S
C1213 C1214 1.398 . S
C1214 H1202 0.950 . S
C1214 C1213 1.398 . S
C1214 C1215 1.391 . S
C1215 H1203 0.950 . S
C1215 C1211 1.393 . S
C1215 C1214 1.391 . S
H1216 C1224 0.950 . S
H1217 C1229 0.950 . S
H1218 C1226 0.950 . S
H1219 C1228 0.950 . S
H1220 C1230 0.950 . S
H1221 C1232 0.950 . S
H1222 C1234 0.950 . S
H1223 C1235 0.950 . S
C1224 H1216 0.950 . S
C1224 C1225 1.386 . S
C1224 C1226 1.391 . S
C1225 C1224 1.386 . S
C1225 C1229 1.393 . S
C1226 H1218 0.950 . S
C1226 C1224 1.391 . S
C1226 C1227 1.400 . S
C1227 C1226 1.400 . S
C1227 C1228 1.398 . S
C1227 C1233 1.491 . S
C1228 H1219 0.950 . S
C1228 C1227 1.398 . S
C1228 C1229 1.391 . S
C1229 H1217 0.950 . S
C1229 C1225 1.393 . S
C1229 C1228 1.391 . S
C1230 H1220 0.950 . S
C1230 C1231 1.386 . S
C1230 C1232 1.391 . S
C1231 C1230 1.386 . S
C1231 C1235 1.393 . S
C1232 H1221 0.950 . S
C1232 C1230 1.391 . S
C1232 C1233 1.400 . S
C1233 C1227 1.491 . S
C1233 C1232 1.400 . S
C1233 C1234 1.398 . S
C1234 H1222 0.950 . S
C1234 C1233 1.398 . S
C1234 C1235 1.391 . S
C1235 H1223 0.950 . S
C1235 C1231 1.393 . S
C1235 C1234 1.391 . S
H1236 C1244 0.950 . S
H1237 C1249 0.950 . S
H1238 C1246 0.950 . S
H1239 C1248 0.950 . S
H1240 C1250 0.950 . S
H1241 C1252 0.950 . S
H1242 C1254 0.950 . S
H1243 C1255 0.950 . S
C1244 H1236 0.950 . S
C1244 C1245 1.386 . S
C1244 C1246 1.391 . S
C1245 C1244 1.386 . S
C1245 C1249 1.393 . S
C1246 H1238 0.950 . S
C1246 C1244 1.391 . S
C1246 C1247 1.400 . S
C1247 C1246 1.400 . S
C1247 C1248 1.398 . S
C1247 C1253 1.491 . S
C1248 H1239 0.950 . S
C1248 C1247 1.398 . S
C1248 C1249 1.391 . S
C1249 H1237 0.950 . S
C1249 C1245 1.393 . S
C1249 C1248 1.391 . S
C1250 H1240 0.950 . S
C1250 C1251 1.386 . S
C1250 C1252 1.391 . S
C1251 C1250 1.386 . S
C1251 C1255 1.393 . S
C1252 H1241 0.950 . S
C1252 C1250 1.391 . S
C1252 C1253 1.400 . S
C1253 C1247 1.491 . S
C1253 C1252 1.400 . S
C1253 C1254 1.398 . S
C1254 H1242 0.950 . S
C1254 C1253 1.398 . S
C1254 C1255 1.391 . S
C1255 H1243 0.950 . S
C1255 C1251 1.393 . S
C1255 C1254 1.391 . S
H1256 C1264 0.950 . S
H1257 C1269 0.950 . S
H1258 C1266 0.950 . S
H1259 C1268 0.950 . S
H1260 C1270 0.950 . S
H1261 C1272 0.950 . S
H1262 C1274 0.950 . S
H1263 C1275 0.950 . S
C1264 H1256 0.950 . S
C1264 C1265 1.386 . S
C1264 C1266 1.391 . S
C1265 C1264 1.386 . S
C1265 C1269 1.393 . S
C1266 H1258 0.950 . S
C1266 C1264 1.391 . S
C1266 C1267 1.400 . S
C1267 C1266 1.400 . S
C1267 C1268 1.398 . S
C1267 C1273 1.491 . S
C1268 H1259 0.950 . S
C1268 C1267 1.398 . S
C1268 C1269 1.391 . S
C1269 H1257 0.950 . S
C1269 C1265 1.393 . S
C1269 C1268 1.391 . S
C1270 H1260 0.950 . S
C1270 C1271 1.386 . S
C1270 C1272 1.391 . S
C1271 C1270 1.386 . S
C1271 C1275 1.393 . S
C1272 H1261 0.950 . S
C1272 C1270 1.391 . S
C1272 C1273 1.400 . S
C1273 C1267 1.491 . S
C1273 C1272 1.400 . S
C1273 C1274 1.398 . S
C1274 H1262 0.950 . S
C1274 C1273 1.398 . S
C1274 C1275 1.391 . S
C1275 H1263 0.950 . S
C1275 C1271 1.393 . S
C1275 C1274 1.391 . S
H1276 C1284 0.950 . S
H1277 C1289 0.950 . S
H1278 C1286 0.950 . S
H1279 C1288 0.950 . S
H1280 C1290 0.950 . S
H1281 C1292 0.950 . S
H1282 C1294 0.950 . S
H1283 C1295 0.950 . S
C1284 H1276 0.950 . S
C1284 C1285 1.386 . S
C1284 C1286 1.391 . S
C1285 C1284 1.386 . S
C1285 C1289 1.393 . S
C1286 H1278 0.950 . S
C1286 C1284 1.391 . S
C1286 C1287 1.400 . S
C1287 C1286 1.400 . S
C1287 C1288 1.398 . S
C1287 C1293 1.491 . S
C1288 H1279 0.950 . S
C1288 C1287 1.398 . S
C1288 C1289 1.391 . S
C1289 H1277 0.950 . S
C1289 C1285 1.393 . S
C1289 C1288 1.391 . S
C1290 H1280 0.950 . S
C1290 C1291 1.386 . S
C1290 C1292 1.391 . S
C1291 C1290 1.386 . S
C1291 C1295 1.393 . S
C1292 H1281 0.950 . S
C1292 C1290 1.391 . S
C1292 C1293 1.400 . S
C1293 C1287 1.491 . S
C1293 C1292 1.400 . S
C1293 C1294 1.398 . S
C1294 H1282 0.950 . S
C1294 C1293 1.398 . S
C1294 C1295 1.391 . S
C1295 H1283 0.950 . S
C1295 C1291 1.393 . S
C1295 C1294 1.391 . S
H1296 C1304 0.950 . S
H1297 C1309 0.950 . S
H1298 C1306 0.950 . S
H1299 C1308 0.950 . S
H1300 C1310 0.950 . S
H1301 C1312 0.950 . S
H1302 C1314 0.950 . S
H1303 C1315 0.950 . S
C1304 H1296 0.950 . S
C1304 C1305 1.386 . S
C1304 C1306 1.391 . S
C1305 C1304 1.386 . S
C1305 C1309 1.393 . S
C1306 H1298 0.950 . S
C1306 C1304 1.391 . S
C1306 C1307 1.400 . S
C1307 C1306 1.400 . S
C1307 C1308 1.398 . S
C1307 C1313 1.491 . S
C1308 H1299 0.950 . S
C1308 C1307 1.398 . S
C1308 C1309 1.391 . S
C1309 H1297 0.950 . S
C1309 C1305 1.393 . S
C1309 C1308 1.391 . S
C1310 H1300 0.950 . S
C1310 C1311 1.386 . S
C1310 C1312 1.391 . S
C1311 C1310 1.386 . S
C1311 C1315 1.393 . S
C1312 H1301 0.950 . S
C1312 C1310 1.391 . S
C1312 C1313 1.400 . S
C1313 C1307 1.491 . S
C1313 C1312 1.400 . S
C1313 C1314 1.398 . S
C1314 H1302 0.950 . S
C1314 C1313 1.398 . S
C1314 C1315 1.391 . S
C1315 H1303 0.950 . S
C1315 C1311 1.393 . S
C1315 C1314 1.391 . S
H1316 C1324 0.950 . S
H1317 C1329 0.950 . S
H1318 C1326 0.950 . S
H1319 C1328 0.950 . S
H1320 C1330 0.950 . S
H1321 C1332 0.950 . S
H1322 C1334 0.950 . S
H1323 C1335 0.950 . S
C1324 H1316 0.950 . S
C1324 C1325 1.386 . S
C1324 C1326 1.391 . S
C1325 C1324 1.386 . S
C1325 C1329 1.393 . S
C1326 H1318 0.950 . S
C1326 C1324 1.391 . S
C1326 C1327 1.400 . S
C1327 C1326 1.400 . S
C1327 C1328 1.398 . S
C1327 C1333 1.491 1_655 S
C1328 H1319 0.950 . S
C1328 C1327 1.398 . S
C1328 C1329 1.391 . S
C1329 H1317 0.950 . S
C1329 C1325 1.393 . S
C1329 C1328 1.391 . S
C1330 H1320 0.950 . S
C1330 C1331 1.386 . S
C1330 C1332 1.391 . S
C1331 C1330 1.386 . S
C1331 C1335 1.393 . S
C1332 H1321 0.950 . S
C1332 C1330 1.391 . S
C1332 C1333 1.400 . S
C1333 C1327 1.491 1_455 S
C1333 C1332 1.400 . S
C1333 C1334 1.398 . S
C1334 H1322 0.950 . S
C1334 C1333 1.398 . S
C1334 C1335 1.391 . S
C1335 H1323 0.950 . S
C1335 C1331 1.393 . S
C1335 C1334 1.391 . S
H1336 C1344 0.950 . S
H1337 C1349 0.950 . S
H1338 C1346 0.950 . S
H1339 C1348 0.950 . S
H1340 C1350 0.950 . S
H1341 C1352 0.950 . S
H1342 C1354 0.950 . S
H1343 C1355 0.950 . S
C1344 H1336 0.950 . S
C1344 C1345 1.386 . S
C1344 C1346 1.391 . S
C1345 C1344 1.386 . S
C1345 C1349 1.393 . S
C1346 H1338 0.950 . S
C1346 C1344 1.391 . S
C1346 C1347 1.400 . S
C1347 C1346 1.400 . S
C1347 C1348 1.398 . S
C1347 C1353 1.491 1_655 S
C1348 H1339 0.950 . S
C1348 C1347 1.398 . S
C1348 C1349 1.391 . S
C1349 H1337 0.950 . S
C1349 C1345 1.393 . S
C1349 C1348 1.391 . S
C1350 H1340 0.950 . S
C1350 C1351 1.386 . S
C1350 C1352 1.391 . S
C1351 C1350 1.386 . S
C1351 C1355 1.393 . S
C1352 H1341 0.950 . S
C1352 C1350 1.391 . S
C1352 C1353 1.400 . S
C1353 C1347 1.491 1_455 S
C1353 C1352 1.400 . S
C1353 C1354 1.398 . S
C1354 H1342 0.950 . S
C1354 C1353 1.398 . S
C1354 C1355 1.391 . S
C1355 H1343 0.950 . S
C1355 C1351 1.393 . S
C1355 C1354 1.391 . S
H1356 C1364 0.950 . S
H1357 C1369 0.950 . S
H1358 C1366 0.950 . S
H1359 C1368 0.950 . S
H1360 C1370 0.950 . S
H1361 C1372 0.950 . S
H1362 C1374 0.950 . S
H1363 C1375 0.950 . S
C1364 H1356 0.950 . S
C1364 C1365 1.386 . S
C1364 C1366 1.391 . S
C1365 C1364 1.386 . S
C1365 C1369 1.393 . S
C1366 H1358 0.950 . S
C1366 C1364 1.391 . S
C1366 C1367 1.400 . S
C1367 C1366 1.400 . S
C1367 C1368 1.398 . S
C1367 C1373 1.491 . S
C1368 H1359 0.950 . S
C1368 C1367 1.398 . S
C1368 C1369 1.391 . S
C1369 H1357 0.950 . S
C1369 C1365 1.393 . S
C1369 C1368 1.391 . S
C1370 H1360 0.950 . S
C1370 C1371 1.386 . S
C1370 C1372 1.391 . S
C1371 C1370 1.386 . S
C1371 C1375 1.393 . S
C1372 H1361 0.950 . S
C1372 C1370 1.391 . S
C1372 C1373 1.400 . S
C1373 C1367 1.491 . S
C1373 C1372 1.400 . S
C1373 C1374 1.398 . S
C1374 H1362 0.950 . S
C1374 C1373 1.398 . S
C1374 C1375 1.391 . S
C1375 H1363 0.950 . S
C1375 C1371 1.393 . S
C1375 C1374 1.391 . S
H1376 C1384 0.950 . S
H1377 C1389 0.950 . S
H1378 C1386 0.950 . S
H1379 C1388 0.950 . S
H1380 C1390 0.950 . S
H1381 C1392 0.950 . S
H1382 C1394 0.950 . S
H1383 C1395 0.950 . S
C1384 H1376 0.950 . S
C1384 C1385 1.386 . S
C1384 C1386 1.391 . S
C1385 C1384 1.386 . S
C1385 C1389 1.393 . S
C1386 H1378 0.950 . S
C1386 C1384 1.391 . S
C1386 C1387 1.400 . S
C1387 C1386 1.400 . S
C1387 C1388 1.398 . S
C1387 C1393 1.491 . S
C1388 H1379 0.950 . S
C1388 C1387 1.398 . S
C1388 C1389 1.391 . S
C1389 H1377 0.950 . S
C1389 C1385 1.393 . S
C1389 C1388 1.391 . S
C1390 H1380 0.950 . S
C1390 C1391 1.386 . S
C1390 C1392 1.391 . S
C1391 C1390 1.386 . S
C1391 C1395 1.393 . S
C1392 H1381 0.950 . S
C1392 C1390 1.391 . S
C1392 C1393 1.400 . S
C1393 C1387 1.491 . S
C1393 C1392 1.400 . S
C1393 C1394 1.398 . S
C1394 H1382 0.950 . S
C1394 C1393 1.398 . S
C1394 C1395 1.391 . S
C1395 H1383 0.950 . S
C1395 C1391 1.393 . S
C1395 C1394 1.391 . S
H1396 C1404 0.950 . S
H1397 C1409 0.950 . S
H1398 C1406 0.950 . S
H1399 C1408 0.950 . S
H1400 C1410 0.950 . S
H1401 C1412 0.950 . S
H1402 C1414 0.950 . S
H1403 C1415 0.950 . S
C1404 H1396 0.950 . S
C1404 C1405 1.386 . S
C1404 C1406 1.391 . S
C1405 C1404 1.386 . S
C1405 C1409 1.393 . S
C1406 H1398 0.950 . S
C1406 C1404 1.391 . S
C1406 C1407 1.400 . S
C1407 C1406 1.400 . S
C1407 C1408 1.398 . S
C1407 C1413 1.491 . S
C1408 H1399 0.950 . S
C1408 C1407 1.398 . S
C1408 C1409 1.391 . S
C1409 H1397 0.950 . S
C1409 C1405 1.393 . S
C1409 C1408 1.391 . S
C1410 H1400 0.950 . S
C1410 C1411 1.386 . S
C1410 C1412 1.391 . S
C1411 C1410 1.386 . S
C1411 C1415 1.393 . S
C1412 H1401 0.950 . S
C1412 C1410 1.391 . S
C1412 C1413 1.400 . S
C1413 C1407 1.491 . S
C1413 C1412 1.400 . S
C1413 C1414 1.398 . S
C1414 H1402 0.950 . S
C1414 C1413 1.398 . S
C1414 C1415 1.391 . S
C1415 H1403 0.950 . S
C1415 C1411 1.393 . S
C1415 C1414 1.391 . S
H1416 C1424 0.950 . S
H1417 C1429 0.950 . S
H1418 C1426 0.950 . S
H1419 C1428 0.950 . S
H1420 C1430 0.950 . S
H1421 C1432 0.950 . S
H1422 C1434 0.950 . S
H1423 C1435 0.950 . S
C1424 H1416 0.950 . S
C1424 C1425 1.386 . S
C1424 C1426 1.391 . S
C1425 C1424 1.386 . S
C1425 C1429 1.393 1_556 S
C1426 H1418 0.950 . S
C1426 C1424 1.391 . S
C1426 C1427 1.400 . S
C1427 C1426 1.400 . S
C1427 C1428 1.398 . S
C1427 C1433 1.491 . S
C1428 H1419 0.950 . S
C1428 C1427 1.398 . S
C1428 C1429 1.391 1_556 S
C1429 H1417 0.950 . S
C1429 C1425 1.393 1_554 S
C1429 C1428 1.391 1_554 S
C1430 H1420 0.950 . S
C1430 C1431 1.386 . S
C1430 C1432 1.391 . S
C1431 C1430 1.386 . S
C1431 C1435 1.393 . S
C1432 H1421 0.950 . S
C1432 C1430 1.391 . S
C1432 C1433 1.400 . S
C1433 C1427 1.491 . S
C1433 C1432 1.400 . S
C1433 C1434 1.398 . S
C1434 H1422 0.950 . S
C1434 C1433 1.398 . S
C1434 C1435 1.391 . S
C1435 H1423 0.950 . S
C1435 C1431 1.393 . S
C1435 C1434 1.391 . S
H1436 C1444 0.950 . S
H1437 C1449 0.950 . S
H1438 C1446 0.950 . S
H1439 C1448 0.950 . S
H1440 C1450 0.950 . S
H1441 C1452 0.950 . S
H1442 C1454 0.950 . S
H1443 C1455 0.950 . S
C1444 H1436 0.950 . S
C1444 C1445 1.386 . S
C1444 C1446 1.391 . S
C1445 C1444 1.386 . S
C1445 C1449 1.393 1_554 S
C1446 H1438 0.950 . S
C1446 C1444 1.391 . S
C1446 C1447 1.400 . S
C1447 C1446 1.400 . S
C1447 C1448 1.398 . S
C1447 C1453 1.491 . S
C1448 H1439 0.950 . S
C1448 C1447 1.398 . S
C1448 C1449 1.391 1_554 S
C1449 H1437 0.950 . S
C1449 C1445 1.393 1_556 S
C1449 C1448 1.391 1_556 S
C1450 H1440 0.950 . S
C1450 C1451 1.386 . S
C1450 C1452 1.391 . S
C1451 C1450 1.386 . S
C1451 C1455 1.393 . S
C1452 H1441 0.950 . S
C1452 C1450 1.391 . S
C1452 C1453 1.400 . S
C1453 C1447 1.491 . S
C1453 C1452 1.400 . S
C1453 C1454 1.398 . S
C1454 H1442 0.950 . S
C1454 C1453 1.398 . S
C1454 C1455 1.391 . S
C1455 H1443 0.950 . S
C1455 C1451 1.393 . S
C1455 C1454 1.391 . S
H1456 C1464 0.950 . S
H1457 C1469 0.950 . S
H1458 C1466 0.950 . S
H1459 C1468 0.950 . S
H1460 C1470 0.950 . S
H1461 C1472 0.950 . S
H1462 C1474 0.950 . S
H1463 C1475 0.950 . S
C1464 H1456 0.950 . S
C1464 C1465 1.386 . S
C1464 C1466 1.391 . S
C1465 C1464 1.386 . S
C1465 C1469 1.393 . S
C1466 H1458 0.950 . S
C1466 C1464 1.391 . S
C1466 C1467 1.400 . S
C1467 C1466 1.400 . S
C1467 C1468 1.398 . S
C1467 C1473 1.491 . S
C1468 H1459 0.950 . S
C1468 C1467 1.398 . S
C1468 C1469 1.391 . S
C1469 H1457 0.950 . S
C1469 C1465 1.393 . S
C1469 C1468 1.391 . S
C1470 H1460 0.950 . S
C1470 C1471 1.386 . S
C1470 C1472 1.391 . S
C1471 C1470 1.386 . S
C1471 C1475 1.393 . S
C1472 H1461 0.950 . S
C1472 C1470 1.391 . S
C1472 C1473 1.400 . S
C1473 C1467 1.491 . S
C1473 C1472 1.400 . S
C1473 C1474 1.398 . S
C1474 H1462 0.950 . S
C1474 C1473 1.398 . S
C1474 C1475 1.391 . S
C1475 H1463 0.950 . S
C1475 C1471 1.393 . S
C1475 C1474 1.391 . S
H1476 C1484 0.950 . S
H1477 C1489 0.950 . S
H1478 C1486 0.950 . S
H1479 C1488 0.950 . S
H1480 C1490 0.950 . S
H1481 C1492 0.950 . S
H1482 C1494 0.950 . S
H1483 C1495 0.950 . S
C1484 H1476 0.950 . S
C1484 C1485 1.386 . S
C1484 C1486 1.391 . S
C1485 C1484 1.386 . S
C1485 C1489 1.393 . S
C1486 H1478 0.950 . S
C1486 C1484 1.391 . S
C1486 C1487 1.400 . S
C1487 C1486 1.400 . S
C1487 C1488 1.398 . S
C1487 C1493 1.491 . S
C1488 H1479 0.950 . S
C1488 C1487 1.398 . S
C1488 C1489 1.391 . S
C1489 H1477 0.950 . S
C1489 C1485 1.393 . S
C1489 C1488 1.391 . S
C1490 H1480 0.950 . S
C1490 C1491 1.386 . S
C1490 C1492 1.391 . S
C1491 C1490 1.386 . S
C1491 C1495 1.393 . S
C1492 H1481 0.950 . S
C1492 C1490 1.391 . S
C1492 C1493 1.400 . S
C1493 C1487 1.491 . S
C1493 C1492 1.400 . S
C1493 C1494 1.398 . S
C1494 H1482 0.950 . S
C1494 C1493 1.398 . S
C1494 C1495 1.391 . S
C1495 H1483 0.950 . S
C1495 C1491 1.393 . S
C1495 C1494 1.391 . S
H1496 C1504 0.950 . S
H1497 C1509 0.950 . S
H1498 C1506 0.950 . S
H1499 C1508 0.950 . S
H1500 C1510 0.950 . S
H1501 C1512 0.950 . S
H1502 C1514 0.950 . S
H1503 C1515 0.950 . S
C1504 H1496 0.950 . S
C1504 C1505 1.386 . S
C1504 C1506 1.391 . S
C1505 C1504 1.386 . S
C1505 C1509 1.393 . S
C1506 H1498 0.950 . S
C1506 C1504 1.391 . S
C1506 C1507 1.400 . S
C1507 C1506 1.400 . S
C1507 C1508 1.398 . S
C1507 C1513 1.491 . S
C1508 H1499 0.950 . S
C1508 C1507 1.398 . S
C1508 C1509 1.391 . S
C1509 H1497 0.950 . S
C1509 C1505 1.393 . S
C1509 C1508 1.391 . S
C1510 H1500 0.950 . S
C1510 C1511 1.386 . S
C1510 C1512 1.391 . S
C1511 C1510 1.386 . S
C1511 C1515 1.393 . S
C1512 H1501 0.950 . S
C1512 C1510 1.391 . S
C1512 C1513 1.400 . S
C1513 C1507 1.491 . S
C1513 C1512 1.400 . S
C1513 C1514 1.398 . S
C1514 H1502 0.950 . S
C1514 C1513 1.398 . S
C1514 C1515 1.391 . S
C1515 H1503 0.950 . S
C1515 C1511 1.393 . S
C1515 C1514 1.391 . S
H1516 C1524 0.950 . S
H1517 C1529 0.950 . S
H1518 C1526 0.950 . S
H1519 C1528 0.950 . S
H1520 C1530 0.950 . S
H1521 C1532 0.950 . S
H1522 C1534 0.950 . S
H1523 C1535 0.950 1_554 S
C1524 H1516 0.950 . S
C1524 C1525 1.386 . S
C1524 C1526 1.391 . S
C1525 C1524 1.386 . S
C1525 C1529 1.393 . S
C1526 H1518 0.950 . S
C1526 C1524 1.391 . S
C1526 C1527 1.400 . S
C1527 C1526 1.400 . S
C1527 C1528 1.398 . S
C1527 C1533 1.491 . S
C1528 H1519 0.950 . S
C1528 C1527 1.398 . S
C1528 C1529 1.391 . S
C1529 H1517 0.950 . S
C1529 C1525 1.393 . S
C1529 C1528 1.391 . S
C1530 H1520 0.950 . S
C1530 C1531 1.386 . S
C1530 C1532 1.391 . S
C1531 C1530 1.386 . S
C1531 C1535 1.393 . S
C1532 H1521 0.950 . S
C1532 C1530 1.391 . S
C1532 C1533 1.400 . S
C1533 C1527 1.491 . S
C1533 C1532 1.400 . S
C1533 C1534 1.398 . S
C1534 H1522 0.950 . S
C1534 C1533 1.398 . S
C1534 C1535 1.391 . S
C1535 H1523 0.950 1_556 S
C1535 C1531 1.393 . S
C1535 C1534 1.391 . S
H1536 C1544 0.950 . S
H1537 C1549 0.950 . S
H1538 C1546 0.950 . S
H1539 C1548 0.950 . S
H1540 C1550 0.950 . S
H1541 C1552 0.950 . S
H1542 C1554 0.950 . S
H1543 C1555 0.950 . S
C1544 H1536 0.950 . S
C1544 C1545 1.386 . S
C1544 C1546 1.391 . S
C1545 C1544 1.386 . S
C1545 C1549 1.393 1_556 S
C1546 H1538 0.950 . S
C1546 C1544 1.391 . S
C1546 C1547 1.400 . S
C1547 C1546 1.400 . S
C1547 C1548 1.398 . S
C1547 C1553 1.491 . S
C1548 H1539 0.950 . S
C1548 C1547 1.398 . S
C1548 C1549 1.391 1_556 S
C1549 H1537 0.950 . S
C1549 C1545 1.393 1_554 S
C1549 C1548 1.391 1_554 S
C1550 H1540 0.950 . S
C1550 C1551 1.386 . S
C1550 C1552 1.391 . S
C1551 C1550 1.386 . S
C1551 C1555 1.393 . S
C1552 H1541 0.950 . S
C1552 C1550 1.391 . S
C1552 C1553 1.400 . S
C1553 C1547 1.491 . S
C1553 C1552 1.400 . S
C1553 C1554 1.398 . S
C1554 H1542 0.950 . S
C1554 C1553 1.398 . S
C1554 C1555 1.391 . S
C1555 H1543 0.950 . S
C1555 C1551 1.393 . S
C1555 C1554 1.391 . S
H1556 C1564 0.950 . S
H1557 C1569 0.950 . S
H1558 C1566 0.950 . S
H1559 C1568 0.950 . S
H1560 C1570 0.950 . S
H1561 C1572 0.950 . S
H1562 C1574 0.950 . S
H1563 C1575 0.950 . S
C1564 H1556 0.950 . S
C1564 C1565 1.386 . S
C1564 C1566 1.391 . S
C1565 C1564 1.386 . S
C1565 C1569 1.393 . S
C1566 H1558 0.950 . S
C1566 C1564 1.391 . S
C1566 C1567 1.400 . S
C1567 C1566 1.400 . S
C1567 C1568 1.398 . S
C1567 C1573 1.491 . S
C1568 H1559 0.950 . S
C1568 C1567 1.398 . S
C1568 C1569 1.391 . S
C1569 H1557 0.950 . S
C1569 C1565 1.393 . S
C1569 C1568 1.391 . S
C1570 H1560 0.950 . S
C1570 C1571 1.386 1_556 S
C1570 C1572 1.391 1_556 S
C1571 C1570 1.386 1_554 S
C1571 C1575 1.393 . S
C1572 H1561 0.950 . S
C1572 C1570 1.391 1_554 S
C1572 C1573 1.400 . S
C1573 C1567 1.491 . S
C1573 C1572 1.400 . S
C1573 C1574 1.398 . S
C1574 H1562 0.950 . S
C1574 C1573 1.398 . S
C1574 C1575 1.391 . S
C1575 H1563 0.950 . S
C1575 C1571 1.393 . S
C1575 C1574 1.391 . S
H1576 C1584 0.950 . S
H1577 C1589 0.950 . S
H1578 C1586 0.950 . S
H1579 C1588 0.950 . S
H1580 C1590 0.950 . S
H1581 C1592 0.950 . S
H1582 C1594 0.950 . S
H1583 C1595 0.950 . S
C1584 H1576 0.950 . S
C1584 C1585 1.386 . S
C1584 C1586 1.391 . S
C1585 C1584 1.386 . S
C1585 C1589 1.393 . S
C1586 H1578 0.950 . S
C1586 C1584 1.391 . S
C1586 C1587 1.400 . S
C1587 C1586 1.400 . S
C1587 C1588 1.398 . S
C1587 C1593 1.491 . S
C1588 H1579 0.950 . S
C1588 C1587 1.398 . S
C1588 C1589 1.391 . S
C1589 H1577 0.950 . S
C1589 C1585 1.393 . S
C1589 C1588 1.391 . S
C1590 H1580 0.950 . S
C1590 C1591 1.386 . S
C1590 C1592 1.391 . S
C1591 C1590 1.386 . S
C1591 C1595 1.393 . S
C1592 H1581 0.950 . S
C1592 C1590 1.391 . S
C1592 C1593 1.400 . S
C1593 C1587 1.491 . S
C1593 C1592 1.400 . S
C1593 C1594 1.398 . S
C1594 H1582 0.950 . S
C1594 C1593 1.398 . S
C1594 C1595 1.391 . S
C1595 H1583 0.950 . S
C1595 C1591 1.393 . S
C1595 C1594 1.391 . S
H1596 C1604 0.950 . S
H1597 C1609 0.950 . S
H1598 C1606 0.950 . S
H1599 C1608 0.950 . S
H1600 C1610 0.950 . S
H1601 C1612 0.950 . S
H1602 C1614 0.950 . S
H1603 C1615 0.950 . S
C1604 H1596 0.950 . S
C1604 C1605 1.386 . S
C1604 C1606 1.391 . S
C1605 C1604 1.386 . S
C1605 C1609 1.393 . S
C1606 H1598 0.950 . S
C1606 C1604 1.391 . S
C1606 C1607 1.400 . S
C1607 C1606 1.400 . S
C1607 C1608 1.398 . S
C1607 C1613 1.491 . S
C1608 H1599 0.950 . S
C1608 C1607 1.398 . S
C1608 C1609 1.391 . S
C1609 H1597 0.950 . S
C1609 C1605 1.393 . S
C1609 C1608 1.391 . S
C1610 H1600 0.950 . S
C1610 C1611 1.386 . S
C1610 C1612 1.391 . S
C1611 C1610 1.386 . S
C1611 C1615 1.393 . S
C1612 H1601 0.950 . S
C1612 C1610 1.391 . S
C1612 C1613 1.400 . S
C1613 C1607 1.491 . S
C1613 C1612 1.400 . S
C1613 C1614 1.398 . S
C1614 H1602 0.950 . S
C1614 C1613 1.398 . S
C1614 C1615 1.391 . S
C1615 H1603 0.950 . S
C1615 C1611 1.393 . S
C1615 C1614 1.391 . S
H1616 C1624 0.950 . S
H1617 C1629 0.950 . S
H1618 C1626 0.950 . S
H1619 C1628 0.950 . S
H1620 C1630 0.950 . S
H1621 C1632 0.950 . S
H1622 C1634 0.950 . S
H1623 C1635 0.950 . S
C1624 H1616 0.950 . S
C1624 C1625 1.386 . S
C1624 C1626 1.391 . S
C1625 C1624 1.386 . S
C1625 C1629 1.393 . S
C1626 H1618 0.950 . S
C1626 C1624 1.391 . S
C1626 C1627 1.400 . S
C1627 C1626 1.400 . S
C1627 C1628 1.398 . S
C1627 C1633 1.491 . S
C1628 H1619 0.950 . S
C1628 C1627 1.398 . S
C1628 C1629 1.391 . S
C1629 H1617 0.950 . S
C1629 C1625 1.393 . S
C1629 C1628 1.391 . S
C1630 H1620 0.950 . S
C1630 C1631 1.386 1_556 S
C1630 C1632 1.391 1_556 S
C1631 C1630 1.386 1_554 S
C1631 C1635 1.393 . S
C1632 H1621 0.950 . S
C1632 C1630 1.391 1_554 S
C1632 C1633 1.400 . S
C1633 C1627 1.491 . S
C1633 C1632 1.400 . S
C1633 C1634 1.398 . S
C1634 H1622 0.950 . S
C1634 C1633 1.398 . S
C1634 C1635 1.391 . S
C1635 H1623 0.950 . S
C1635 C1631 1.393 . S
C1635 C1634 1.391 . S
H1636 C1644 0.950 . S
H1637 C1649 0.950 1_554 S
H1638 C1646 0.950 . S
H1639 C1648 0.950 . S
H1640 C1650 0.950 . S
H1641 C1652 0.950 . S
H1642 C1654 0.950 . S
H1643 C1655 0.950 . S
C1644 H1636 0.950 . S
C1644 C1645 1.386 . S
C1644 C1646 1.391 . S
C1645 C1644 1.386 . S
C1645 C1649 1.393 . S
C1646 H1638 0.950 . S
C1646 C1644 1.391 . S
C1646 C1647 1.400 . S
C1647 C1646 1.400 . S
C1647 C1648 1.398 . S
C1647 C1653 1.491 . S
C1648 H1639 0.950 . S
C1648 C1647 1.398 . S
C1648 C1649 1.391 . S
C1649 H1637 0.950 1_556 S
C1649 C1645 1.393 . S
C1649 C1648 1.391 . S
C1650 H1640 0.950 . S
C1650 C1651 1.386 . S
C1650 C1652 1.391 . S
C1651 C1650 1.386 . S
C1651 C1655 1.393 . S
C1652 H1641 0.950 . S
C1652 C1650 1.391 . S
C1652 C1653 1.400 . S
C1653 C1647 1.491 . S
C1653 C1652 1.400 . S
C1653 C1654 1.398 . S
C1654 H1642 0.950 . S
C1654 C1653 1.398 . S
C1654 C1655 1.391 . S
C1655 H1643 0.950 . S
C1655 C1651 1.393 . S
C1655 C1654 1.391 . S
H1656 C1664 0.950 . S
H1657 C1669 0.950 . S
H1658 C1666 0.950 . S
H1659 C1668 0.950 . S
H1660 C1670 0.950 . S
H1661 C1672 0.950 . S
H1662 C1674 0.950 . S
H1663 C1675 0.950 . S
C1664 H1656 0.950 . S
C1664 C1665 1.386 . S
C1664 C1666 1.391 . S
C1665 C1664 1.386 . S
C1665 C1669 1.393 . S
C1666 H1658 0.950 . S
C1666 C1664 1.391 . S
C1666 C1667 1.400 . S
C1667 C1666 1.400 . S
C1667 C1668 1.398 . S
C1667 C1673 1.491 . S
C1668 H1659 0.950 . S
C1668 C1667 1.398 . S
C1668 C1669 1.391 . S
C1669 H1657 0.950 . S
C1669 C1665 1.393 . S
C1669 C1668 1.391 . S
C1670 H1660 0.950 . S
C1670 C1671 1.386 . S
C1670 C1672 1.391 . S
C1671 C1670 1.386 . S
C1671 C1675 1.393 . S
C1672 H1661 0.950 . S
C1672 C1670 1.391 . S
C1672 C1673 1.400 . S
C1673 C1667 1.491 . S
C1673 C1672 1.400 . S
C1673 C1674 1.398 . S
C1674 H1662 0.950 . S
C1674 C1673 1.398 . S
C1674 C1675 1.391 . S
C1675 H1663 0.950 . S
C1675 C1671 1.393 . S
C1675 C1674 1.391 . S
H1676 C1684 0.950 . S
H1677 C1689 0.950 . S
H1678 C1686 0.950 . S
H1679 C1688 0.950 . S
H1680 C1690 0.950 . S
H1681 C1692 0.950 . S
H1682 C1694 0.950 . S
H1683 C1695 0.950 . S
C1684 H1676 0.950 . S
C1684 C1685 1.386 . S
C1684 C1686 1.391 . S
C1685 C1684 1.386 . S
C1685 C1689 1.393 . S
C1686 H1678 0.950 . S
C1686 C1684 1.391 . S
C1686 C1687 1.400 . S
C1687 C1686 1.400 . S
C1687 C1688 1.398 . S
C1687 C1693 1.491 . S
C1688 H1679 0.950 . S
C1688 C1687 1.398 . S
C1688 C1689 1.391 . S
C1689 H1677 0.950 . S
C1689 C1685 1.393 . S
C1689 C1688 1.391 . S
C1690 H1680 0.950 . S
C1690 C1691 1.386 . S
C1690 C1692 1.391 . S
C1691 C1690 1.386 . S
C1691 C1695 1.393 . S
C1692 H1681 0.950 . S
C1692 C1690 1.391 . S
C1692 C1693 1.400 . S
C1693 C1687 1.491 . S
C1693 C1692 1.400 . S
C1693 C1694 1.398 . S
C1694 H1682 0.950 . S
C1694 C1693 1.398 . S
C1694 C1695 1.391 . S
C1695 H1683 0.950 . S
C1695 C1691 1.393 . S
C1695 C1694 1.391 . S
C425 C81 1.558 . S
C431 C3 1.558 . S
C445 C16 1.558 . S
C451 C94 1.558 . S
C465 C57 1.554 . S
C471 C29 1.554 . S
C485 C42 1.554 . S
C491 C70 1.554 . S
C505 C107 1.554 . S
C511 C187 1.554 . S
C525 C200 1.554 . S
C531 C122 1.554 . S
C545 C133 1.558 . S
C551 C161 1.558 . S
C565 C172 1.555 . S
C571 C146 1.555 . S
C585 C211 1.558 . S
C591 C291 1.558 . S
C605 C226 1.554 . S
C611 C304 1.554 . S
C625 C265 1.554 . S
C631 C239 1.554 . S
C645 C276 1.555 . S
C651 C250 1.555 . S
C665 C315 1.558 . S
C671 C395 1.558 . S
C685 C328 1.555 . S
C691 C408 1.555 . S
C705 C367 1.558 . S
C711 C341 1.558 . S
C725 C354 1.558 . S
C731 C380 1.558 . S
C745 C10 1.592 1_556 S
C751 C101 1.591 . S
C765 C56 1.601 1_554 S
C771 C23 1.600 . S
C785 C69 1.592 . S
C791 C36 1.595 . S
C805 C49 1.600 . S
C811 C88 1.598 . S
C825 C114 1.592 1_554 S
C831 C199 1.595 . S
C845 C160 1.598 1_556 S
C851 C121 1.594 . S
C865 C179 1.591 . S
C871 C140 1.592 . S
C885 C186 1.591 . S
C891 C153 1.592 . S
C905 C218 1.594 . S
C911 C303 1.598 . S
C925 C225 1.592 . S
C931 C264 1.591 . S
C945 C283 1.600 . S
C951 C238 1.598 1_556 S
C965 C257 1.599 . S
C971 C290 1.601 1_554 S
C985 C322 1.600 . S
C991 C407 1.601 . S
C1005 C374 1.594 . S
C1011 C335 1.597 . S
C1025 C348 1.598 1_554 S
C1031 C387 1.595 . S
C1045 C361 1.601 . S
C1051 C394 1.600 1_556 S
C1065 C393 1.551 . S
C1071 C5 1.556 . S
C1085 C198 1.550 . S
C1091 C18 1.556 . S
C1105 C31 1.556 . S
C1111 C369 1.550 . S
C1125 C44 1.554 . S
C1131 C174 1.553 . S
C1145 C55 1.554 . S
C1151 C343 1.552 . S
C1165 C68 1.551 . S
C1171 C148 1.555 . S
C1185 C83 1.556 . S
C1191 C317 1.550 . S
C1205 C120 1.556 . S
C1211 C96 1.550 . S
C1225 C289 1.551 . S
C1231 C109 1.555 . S
C1245 C135 1.551 . S
C1251 C263 1.555 . S
C1265 C237 1.550 . S
C1271 C159 1.556 . S
C1285 C213 1.552 . S
C1291 C185 1.554 . S
C1305 C224 1.556 . S
C1311 C406 1.550 . S
C1325 C252 1.555 . S
C1331 C382 1.551 . S
C1345 C278 1.551 . S
C1351 C356 1.555 . S
C1365 C330 1.556 . S
C1371 C302 1.550 . S
C1385 C4 1.441 . S
C1391 C95 1.443 . S
C1405 C17 1.443 . S
C1411 C62 1.440 . S
C1425 C75 1.438 1_556 S
C1431 C30 1.443 . S
C1445 C43 1.440 1_554 S
C1451 C82 1.443 . S
C1465 C205 1.439 . S
C1471 C108 1.443 . S
C1485 C166 1.441 . S
C1491 C127 1.438 . S
C1505 C134 1.442 . S
C1511 C173 1.442 1_554 S
C1525 C192 1.442 . S
C1531 C147 1.442 1_556 S
C1545 C309 1.440 1_556 S
C1551 C212 1.443 . S
C1565 C270 1.441 . S
C1571 C231 1.438 1_554 S
C1585 C277 1.442 . S
C1591 C244 1.442 . S
C1605 C296 1.443 . S
C1611 C251 1.441 . S
C1625 C316 1.440 . S
C1631 C413 1.443 1_554 S
C1645 C329 1.442 1_556 S
C1651 C368 1.442 . S
C1665 C342 1.439 . S
C1671 C381 1.443 . S
C1685 C400 1.441 . S
C1691 C355 1.443 . S
