# Generated by pormake.
# Topology atn, (4)-cn, num edge types: 1
# Building blocks:
#     Node 0, Type 0, BuildingBlock: QUQFOY_clean_sbu_3, # of connection points: 4
#     Node 1, Type 0, BuildingBlock: QUQFOY_clean_sbu_3, # of connection points: 4
#     Node 2, Type 0, BuildingBlock: QUQFOY_clean_sbu_3, # of connection points: 4
#     Node 3, Type 0, BuildingBlock: QUQFOY_clean_sbu_3, # of connection points: 4
#     Node 4, Type 0, BuildingBlock: QUQFOY_clean_sbu_3, # of connection points: 4
#     Node 5, Type 0, BuildingBlock: QUQFOY_clean_sbu_3, # of connection points: 4
#     Node 6, Type 0, BuildingBlock: QUQFOY_clean_sbu_3, # of connection points: 4
#     Node 7, Type 0, BuildingBlock: QUQFOY_clean_sbu_3, # of connection points: 4
#     Node 8, Type 0, BuildingBlock: QUQFOY_clean_sbu_3, # of connection points: 4
#     Node 9, Type 0, BuildingBlock: QUQFOY_clean_sbu_3, # of connection points: 4
#     Node 10, Type 0, BuildingBlock: QUQFOY_clean_sbu_3, # of connection points: 4
#     Node 11, Type 0, BuildingBlock: QUQFOY_clean_sbu_3, # of connection points: 4
#     Node 12, Type 0, BuildingBlock: QUQFOY_clean_sbu_3, # of connection points: 4
#     Node 13, Type 0, BuildingBlock: QUQFOY_clean_sbu_3, # of connection points: 4
#     Node 14, Type 0, BuildingBlock: QUQFOY_clean_sbu_3, # of connection points: 4
#     Node 15, Type 0, BuildingBlock: QUQFOY_clean_sbu_3, # of connection points: 4
#     Edge 16, Type (0, 0), BuildingBlock: KIFKEQ_clean_linker_1, # of connection points: 2
#     Edge 17, Type (0, 0), BuildingBlock: KIFKEQ_clean_linker_1, # of connection points: 2
#     Edge 18, Type (0, 0), BuildingBlock: KIFKEQ_clean_linker_1, # of connection points: 2
#     Edge 19, Type (0, 0), BuildingBlock: KIFKEQ_clean_linker_1, # of connection points: 2
#     Edge 20, Type (0, 0), BuildingBlock: KIFKEQ_clean_linker_1, # of connection points: 2
#     Edge 21, Type (0, 0), BuildingBlock: KIFKEQ_clean_linker_1, # of connection points: 2
#     Edge 22, Type (0, 0), BuildingBlock: KIFKEQ_clean_linker_1, # of connection points: 2
#     Edge 23, Type (0, 0), BuildingBlock: KIFKEQ_clean_linker_1, # of connection points: 2
#     Edge 24, Type (0, 0), BuildingBlock: KIFKEQ_clean_linker_1, # of connection points: 2
#     Edge 25, Type (0, 0), BuildingBlock: KIFKEQ_clean_linker_1, # of connection points: 2
#     Edge 26, Type (0, 0), BuildingBlock: KIFKEQ_clean_linker_1, # of connection points: 2
#     Edge 27, Type (0, 0), BuildingBlock: KIFKEQ_clean_linker_1, # of connection points: 2
#     Edge 28, Type (0, 0), BuildingBlock: KIFKEQ_clean_linker_1, # of connection points: 2
#     Edge 29, Type (0, 0), BuildingBlock: KIFKEQ_clean_linker_1, # of connection points: 2
#     Edge 30, Type (0, 0), BuildingBlock: KIFKEQ_clean_linker_1, # of connection points: 2
#     Edge 31, Type (0, 0), BuildingBlock: KIFKEQ_clean_linker_1, # of connection points: 2
#     Edge 32, Type (0, 0), BuildingBlock: KIFKEQ_clean_linker_1, # of connection points: 2
#     Edge 33, Type (0, 0), BuildingBlock: KIFKEQ_clean_linker_1, # of connection points: 2
#     Edge 34, Type (0, 0), BuildingBlock: KIFKEQ_clean_linker_1, # of connection points: 2
#     Edge 35, Type (0, 0), BuildingBlock: KIFKEQ_clean_linker_1, # of connection points: 2
#     Edge 36, Type (0, 0), BuildingBlock: KIFKEQ_clean_linker_1, # of connection points: 2
#     Edge 37, Type (0, 0), BuildingBlock: KIFKEQ_clean_linker_1, # of connection points: 2
#     Edge 38, Type (0, 0), BuildingBlock: KIFKEQ_clean_linker_1, # of connection points: 2
#     Edge 39, Type (0, 0), BuildingBlock: KIFKEQ_clean_linker_1, # of connection points: 2
#     Edge 40, Type (0, 0), BuildingBlock: KIFKEQ_clean_linker_1, # of connection points: 2
#     Edge 41, Type (0, 0), BuildingBlock: KIFKEQ_clean_linker_1, # of connection points: 2
#     Edge 42, Type (0, 0), BuildingBlock: KIFKEQ_clean_linker_1, # of connection points: 2
#     Edge 43, Type (0, 0), BuildingBlock: KIFKEQ_clean_linker_1, # of connection points: 2
#     Edge 44, Type (0, 0), BuildingBlock: KIFKEQ_clean_linker_1, # of connection points: 2
#     Edge 45, Type (0, 0), BuildingBlock: KIFKEQ_clean_linker_1, # of connection points: 2
#     Edge 46, Type (0, 0), BuildingBlock: KIFKEQ_clean_linker_1, # of connection points: 2
#     Edge 47, Type (0, 0), BuildingBlock: KIFKEQ_clean_linker_1, # of connection points: 2
# Relax obj value: 0.028
# Max RMSD: 0.057
# Mean RMSD: 0.057
data_MOF--net-atn--node1-QUQFOY_clean_sbu_3--edge1-KIFKEQ_clean_linker_1
_symmetry_space_group_name_H-M    P1
_symmetry_Int_Tables_number       1
_symmetry_cell_setting            triclinic
loop_
_symmetry_equiv_pos_as_xyz
'x, y, z'
_cell_length_a     63.49861
_cell_length_b     63.525505
_cell_length_c     28.810909
_cell_angle_alpha  89.97773
_cell_angle_beta   89.903797
_cell_angle_gamma 89.976165
loop_
_atom_site_label
_atom_site_type_symbol
_atom_site_fract_x
_atom_site_fract_y
_atom_site_fract_z
_atom_type_partial_charge
C0 C 0.15516 0.34648 0.90319 0.0
O1 O 0.14501 0.33421 0.92984 0.0
Cd2 Cd 0.15508 0.32813 0.0083 0.0
O3 O 0.17009 0.35788 0.9188 0.0
Cd4 Cd 0.18681 0.36731 -0.00601 0.0
C5 C 0.20882 0.31938 -0.00679 0.0
O6 O 0.15617 0.36197 0.04318 0.0
O7 O 0.18584 0.3656 0.07855 0.0
O8 O 0.18061 0.40323 0.97175 0.0
C9 C 0.16603 0.36341 0.0812 0.0
O10 O 0.19024 0.31274 0.00142 0.0
C11 C 0.19873 0.41011 0.9823 0.0
O12 O 0.21254 0.33893 -0.01215 0.0
O13 O 0.21209 0.39669 -0.00333 0.0
C14 C 0.63553 0.15661 0.91283 0.0
O15 O 0.64877 0.14854 0.94062 0.0
Cd16 Cd 0.65049 0.15743 0.02123 0.0
O17 O 0.62177 0.16966 0.92735 0.0
Cd18 Cd 0.60994 0.18642 0.00045 0.0
C19 C 0.65652 0.21133 0.00942 0.0
O20 O 0.61537 0.15595 0.04996 0.0
O21 O 0.60885 0.1851 0.08533 0.0
O22 O 0.57505 0.17912 0.97233 0.0
C23 C 0.6121 0.16544 0.08792 0.0
O24 O 0.66372 0.19339 0.02123 0.0
C25 C 0.56719 0.19691 0.98232 0.0
O26 O 0.63737 0.21348 -0.00286 0.0
O27 O 0.57957 0.21056 -0.00056 0.0
C28 C 0.82186 0.63579 0.89661 0.0
O29 O 0.83023 0.64899 0.92405 0.0
Cd30 Cd 0.82212 0.65105 0.00504 0.0
O31 O 0.80879 0.62218 0.91165 0.0
Cd32 Cd 0.79253 0.61079 -0.01438 0.0
C33 C 0.76818 0.65764 -0.0038 0.0
O34 O 0.82334 0.61608 0.03417 0.0
O35 O 0.79424 0.61003 0.07027 0.0
O36 O 0.79946 0.5756 0.95879 0.0
C37 C 0.81393 0.61309 0.07238 0.0
O38 O 0.78631 0.66461 0.00721 0.0
C39 C 0.78163 0.56801 0.9695 0.0
O40 O 0.76573 0.63856 0.98364 0.0
O41 O 0.76809 0.58071 -0.01392 0.0
C42 C 0.34205 0.82309 0.91108 0.0
O43 O 0.32985 0.8327 0.93891 0.0
Cd44 Cd 0.32739 0.82418 0.01973 0.0
O45 O 0.355 0.80932 0.92594 0.0
Cd46 Cd 0.36741 0.79406 0.00028 0.0
C47 C 0.32061 0.77 0.01164 0.0
O48 O 0.36232 0.82501 0.04877 0.0
O49 O 0.36832 0.79589 0.08482 0.0
O50 O 0.40243 0.80099 0.97227 0.0
C51 C 0.36529 0.81558 0.08696 0.0
O52 O 0.31361 0.78826 0.02166 0.0
C53 C 0.41005 0.78311 0.98243 0.0
O54 O 0.33977 0.76735 -0.00021 0.0
O55 O 0.39746 0.76959 -0.00053 0.0
C56 C 0.15531 0.63182 0.08478 0.0
O57 O 0.14723 0.64503 0.05692 0.0
Cd58 Cd 0.15708 0.64807 0.97704 0.0
O59 O 0.16925 0.61879 0.07095 0.0
Cd60 Cd 0.18823 0.60819 -0.00038 0.0
C61 C 0.2107 0.65619 -0.00767 0.0
O62 O 0.15837 0.61303 0.94893 0.0
O63 O 0.18788 0.60693 0.91466 0.0
O64 O 0.18212 0.57297 0.02714 0.0
C65 C 0.16826 0.61022 0.91129 0.0
O66 O 0.19253 0.66258 0.97993 0.0
C67 C 0.20026 0.56583 0.01742 0.0
O68 O 0.2137 0.6371 0.00436 0.0
O69 O 0.21357 0.57883 0.00109 0.0
C70 C 0.34507 0.15259 0.07641 0.0
O71 O 0.33294 0.14246 0.04952 0.0
Cd72 Cd 0.32802 0.15235 0.97044 0.0
O73 O 0.35688 0.1672 0.0608 0.0
Cd74 Cd 0.36753 0.18337 -0.01413 0.0
C75 C 0.31996 0.2062 0.98386 0.0
O76 O 0.3622 0.15279 0.93672 0.0
O77 O 0.3668 0.1823 0.90115 0.0
O78 O 0.40303 0.17648 0.01021 0.0
C79 C 0.36416 0.16257 0.89863 0.0
O80 O 0.31309 0.18772 0.97571 0.0
C81 C 0.41036 0.19452 0.00038 0.0
O82 O 0.33952 0.20961 -0.0099 0.0
O83 O 0.3974 0.20812 -0.01486 0.0
C84 C 0.82312 0.3434 0.06873 0.0
O85 O 0.83107 0.33002 0.04103 0.0
Cd86 Cd 0.8222 0.32785 0.96056 0.0
O87 O 0.81012 0.35719 0.05417 0.0
Cd88 Cd 0.79342 0.36857 0.98064 0.0
C89 C 0.76832 0.32203 0.97281 0.0
O90 O 0.82382 0.36275 0.93096 0.0
O91 O 0.79457 0.36891 0.89577 0.0
O92 O 0.80064 0.40395 0.00603 0.0
C93 C 0.81423 0.36573 0.89303 0.0
O94 O 0.78622 0.31469 0.96101 0.0
C95 C 0.78268 0.41147 -0.00379 0.0
O96 O 0.76628 0.34124 0.98469 0.0
O97 O 0.769 0.39866 0.9808 0.0
C98 C 0.63434 0.82349 0.07017 0.0
O99 O 0.64652 0.83308 0.0423 0.0
Cd100 Cd 0.6495 0.82366 0.96217 0.0
O101 O 0.62167 0.80944 0.05552 0.0
Cd102 Cd 0.6097 0.79356 0.98153 0.0
C103 C 0.65664 0.76963 0.9734 0.0
O104 O 0.61477 0.82408 0.93187 0.0
O105 O 0.60947 0.79465 0.89668 0.0
O106 O 0.57457 0.80077 0.00845 0.0
C107 C 0.61226 0.81437 0.89391 0.0
O108 O 0.66355 0.78786 0.96291 0.0
C109 C 0.56692 0.78287 -0.0013 0.0
O110 O 0.63738 0.7669 0.98435 0.0
O111 O 0.57954 0.76919 0.98239 0.0
C112 C 0.65678 0.84354 0.41285 0.0
O113 O 0.64758 0.83103 0.44062 0.0
Cd114 Cd 0.65768 0.82779 0.52021 0.0
O115 O 0.67073 0.85635 0.42745 0.0
Cd116 Cd 0.687 0.8682 0.50125 0.0
C117 C 0.71178 0.82162 0.50598 0.0
O118 O 0.65659 0.86244 0.55085 0.0
O119 O 0.68597 0.86801 0.58614 0.0
O120 O 0.67906 0.90315 0.47451 0.0
C121 C 0.66626 0.8651 0.58881 0.0
O122 O 0.69375 0.81433 0.51696 0.0
C123 C 0.69677 0.91119 0.48446 0.0
O124 O 0.71411 0.84103 0.49606 0.0
O125 O 0.71069 0.89887 0.50086 0.0
C126 C 0.13542 0.65029 0.42692 0.0
O127 O 0.14962 0.64313 0.4536 0.0
Cd128 Cd 0.15421 0.65367 0.53238 0.0
O129 O 0.12188 0.66349 0.44182 0.0
Cd130 Cd 0.11274 0.68166 0.51527 0.0
C131 C 0.1592 0.70732 0.5152 0.0
O132 O 0.12038 0.65283 0.5672 0.0
O133 O 0.11605 0.68306 0.59995 0.0
O134 O 0.07639 0.67219 0.50944 0.0
C135 C 0.11881 0.66337 0.60431 0.0
O136 O 0.16702 0.68962 0.52684 0.0
C137 C 0.06907 0.69074 0.50817 0.0
O138 O 0.13962 0.70911 0.50629 0.0
O139 O 0.08225 0.7058 0.50791 0.0
C140 C 0.32258 0.13405 0.41907 0.0
O141 O 0.33193 0.14626 0.44717 0.0
Cd142 Cd 0.32149 0.14925 0.52671 0.0
O143 O 0.3082 0.12159 0.43323 0.0
Cd144 Cd 0.29084 0.10994 0.5058 0.0
C145 C 0.26781 0.15746 0.5118 0.0
O146 O 0.3211 0.11427 0.55594 0.0
O147 O 0.29154 0.10913 0.59085 0.0
O148 O 0.29757 0.07506 0.47724 0.0
C149 C 0.3113 0.11158 0.59377 0.0
O150 O 0.286 0.16409 0.52346 0.0
C151 C 0.27958 0.06752 0.48678 0.0
O152 O 0.26491 0.13822 0.50108 0.0
O153 O 0.26607 0.08011 0.50389 0.0
C154 C 0.84231 0.32329 0.41209 0.0
O155 O 0.82903 0.33127 0.44 0.0
Cd156 Cd 0.82719 0.32209 0.52043 0.0
O157 O 0.85603 0.31016 0.4264 0.0
Cd158 Cd 0.86767 0.29312 0.49933 0.0
C159 C 0.82101 0.26826 0.5079 0.0
O160 O 0.86226 0.32347 0.54913 0.0
O161 O 0.86856 0.29422 0.58424 0.0
O162 O 0.9027 0.30041 0.47176 0.0
C163 C 0.86543 0.31388 0.587 0.0
O164 O 0.81383 0.28618 0.51993 0.0
C165 C 0.91044 0.28253 0.4814 0.0
O166 O 0.84019 0.26612 0.49566 0.0
O167 O 0.89791 0.26884 0.498 0.0
C168 C 0.65456 0.13665 0.56909 0.0
O169 O 0.64655 0.14994 0.54131 0.0
Cd170 Cd 0.65538 0.15172 0.46064 0.0
O171 O 0.66751 0.12281 0.55452 0.0
Cd172 Cd 0.68411 0.11102 0.48114 0.0
C173 C 0.70929 0.15751 0.47207 0.0
O174 O 0.65368 0.11671 0.43168 0.0
O175 O 0.68287 0.1102 0.39629 0.0
O176 O 0.67674 0.07591 0.50808 0.0
C177 C 0.66324 0.11351 0.39371 0.0
O178 O 0.69139 0.16484 0.46036 0.0
C179 C 0.69469 0.06824 0.49856 0.0
O180 O 0.7113 0.13833 0.48429 0.0
O181 O 0.7084 0.08082 0.48232 0.0
C182 C 0.84165 0.65445 0.55283 0.0
O183 O 0.82828 0.64681 0.52479 0.0
Cd184 Cd 0.82692 0.65656 0.44458 0.0
O185 O 0.8557 0.66727 0.53867 0.0
Cd186 Cd 0.86834 0.6842 0.46655 0.0
C187 C 0.82245 0.71054 0.45902 0.0
O188 O 0.86195 0.65467 0.41566 0.0
O189 O 0.86912 0.68401 0.38151 0.0
O190 O 0.90283 0.67362 0.49019 0.0
C191 C 0.8654 0.66446 0.37812 0.0
O192 O 0.8148 0.69288 0.44665 0.0
C193 C 0.91159 0.69145 0.48594 0.0
O194 O 0.8417 0.71213 0.47106 0.0
O195 O 0.89991 0.70678 0.47393 0.0
C196 C 0.3208 0.84333 0.5676 0.0
O197 O 0.33049 0.83128 0.53964 0.0
Cd198 Cd 0.32131 0.82872 0.45924 0.0
O199 O 0.30674 0.85602 0.55297 0.0
Cd200 Cd 0.29081 0.86825 0.47914 0.0
C201 C 0.26731 0.82113 0.47043 0.0
O202 O 0.32162 0.86364 0.43 0.0
O203 O 0.29226 0.869 0.39446 0.0
O204 O 0.29758 0.90315 0.50752 0.0
C205 C 0.31203 0.86645 0.39198 0.0
O206 O 0.28558 0.81438 0.45959 0.0
C207 C 0.27965 0.91074 0.49761 0.0
O208 O 0.26447 0.8403 0.48181 0.0
O209 O 0.26618 0.89817 0.48043 0.0
C210 C 0.13449 0.32522 0.56133 0.0
O211 O 0.14691 0.33423 0.53301 0.0
Cd212 Cd 0.14999 0.3234 0.4538 0.0
O213 O 0.12184 0.31096 0.54755 0.0
Cd214 Cd 0.11007 0.29336 0.47547 0.0
C215 C 0.15735 0.26969 0.47056 0.0
O216 O 0.11507 0.32319 0.42439 0.0
O217 O 0.10954 0.29353 0.39041 0.0
O218 O 0.07507 0.30066 0.50304 0.0
C219 C 0.11239 0.31321 0.38686 0.0
O220 O 0.16426 0.28771 0.4584 0.0
C221 C 0.06742 0.28267 0.49409 0.0
O222 O 0.13803 0.26711 0.48118 0.0
O223 O 0.07998 0.26892 0.47787 0.0
H224 H 0.17516 0.53586 0.05532 0.0
H225 H 0.23459 0.54416 0.98418 0.0
H226 H 0.17808 0.49796 0.04566 0.0
H227 H 0.23747 0.50583 0.97479 0.0
H228 H 0.23402 0.43079 0.01356 0.0
H229 H 0.23779 0.46893 0.02533 0.0
H230 H 0.17656 0.47875 0.9643 0.0
H231 H 0.17278 0.44111 0.9522 0.0
C232 C 0.18906 0.52958 0.0384 0.0
C233 C 0.20449 0.54301 0.01986 0.0
C234 C 0.19067 0.50789 0.03277 0.0
C235 C 0.20779 0.49913 0.00872 0.0
C236 C 0.2241 0.51231 -0.0067 0.0
C237 C 0.22244 0.53417 -0.00127 0.0
C238 C 0.22158 0.44118 0.00185 0.0
C239 C 0.20299 0.43295 0.98248 0.0
C240 C 0.22375 0.46292 0.00865 0.0
C241 C 0.20727 0.47658 -0.00348 0.0
C242 C 0.1893 0.46844 0.97472 0.0
C243 C 0.18721 0.44689 0.96763 0.0
H244 H 0.43211 0.22972 0.97209 0.0
H245 H 0.44041 0.16804 0.03291 0.0
H246 H 0.47052 0.23329 0.96516 0.0
H247 H 0.47834 0.17165 0.02574 0.0
H248 H 0.54417 0.23086 0.01291 0.0
H249 H 0.50563 0.23317 0.01829 0.0
H250 H 0.50025 0.1731 0.94943 0.0
H251 H 0.53836 0.17073 0.94384 0.0
C252 C 0.44209 0.21713 0.98465 0.0
C253 C 0.43325 0.19849 0.00252 0.0
C254 C 0.464 0.21919 0.98065 0.0
C255 C 0.47723 0.20257 -0.0059 0.0
C256 C 0.4684 0.18451 0.01428 0.0
C257 C 0.44668 0.18251 0.01857 0.0
C258 C 0.5347 0.21838 -0.00191 0.0
C259 C 0.54427 0.20047 0.97855 0.0
C260 C 0.51272 0.21973 0.0012 0.0
C261 C 0.50013 0.20312 0.98507 0.0
C262 C 0.50969 0.18592 0.96291 0.0
C263 C 0.53151 0.18463 0.95957 0.0
H264 H 0.74765 0.43337 0.9678 0.0
H265 H 0.80945 0.44143 0.02801 0.0
H266 H 0.74451 0.47171 0.95931 0.0
H267 H 0.80626 0.47934 0.01932 0.0
H268 H 0.80781 0.53841 0.93371 0.0
H269 H 0.80522 0.50045 0.94227 0.0
H270 H 0.74488 0.50734 0.00975 0.0
H271 H 0.74743 0.54573 0.0014 0.0
C272 C 0.76035 0.4433 0.97996 0.0
C273 C 0.77891 0.43439 -0.00197 0.0
C274 C 0.75854 0.46517 0.97507 0.0
C275 C 0.77532 0.47832 -0.01217 0.0
C276 C 0.79328 0.46946 0.00837 0.0
C277 C 0.79503 0.44776 0.01354 0.0
C278 C 0.79382 0.53191 0.94978 0.0
C279 C 0.77795 0.54508 0.96744 0.0
C280 C 0.7924 0.51017 0.95486 0.0
C281 C 0.77505 0.5011 0.97748 0.0
C282 C 0.75845 0.51405 -0.00764 0.0
C283 C 0.75992 0.53595 -0.01247 0.0
H284 H 0.53751 0.80945 0.03383 0.0
H285 H 0.54447 0.74823 0.97006 0.0
H286 H 0.49948 0.80654 0.02765 0.0
H287 H 0.50599 0.74536 0.96414 0.0
H288 H 0.43245 0.74859 0.012 0.0
H289 H 0.47094 0.74562 0.01761 0.0
H290 H 0.47748 0.80626 0.95155 0.0
H291 H 0.43943 0.80927 0.94571 0.0
C292 C 0.53093 0.79522 0.0191 0.0
C293 C 0.54401 0.77918 0.00186 0.0
C294 C 0.50915 0.79362 0.0154 0.0
C295 C 0.49993 0.77592 -0.00538 0.0
C296 C 0.51282 0.7592 0.98011 0.0
C297 C 0.53477 0.76085 0.98354 0.0
C298 C 0.44216 0.76106 -0.00212 0.0
C299 C 0.43294 0.77929 0.97897 0.0
C300 C 0.46412 0.75935 0.00112 0.0
C301 C 0.47702 0.7759 -0.01418 0.0
C302 C 0.4678 0.79346 0.96441 0.0
C303 C 0.44602 0.79512 0.9609 0.0
H304 H 0.72961 0.04587 0.47108 0.0
H305 H 0.66801 0.03882 0.53335 0.0
H306 H 0.73282 0.00741 0.46609 0.0
H307 H 0.67127 0.00079 0.52822 0.0
H308 H 0.66971 0.93997 0.44881 0.0
H309 H 0.67193 0.97806 0.45432 0.0
H310 H 0.733 0.97288 0.51887 0.0
H311 H 0.73084 0.93436 0.51352 0.0
C312 C 0.71696 0.03615 0.48441 0.0
C313 C 0.69844 0.04535 0.50206 0.0
C314 C 0.71881 0.01421 0.48153 0.0
C315 C 0.70212 0.00127 0.49595 0.0
C316 C 0.68419 0.01048 0.51601 0.0
C317 C 0.68239 0.03226 0.51913 0.0
C318 C 0.68376 0.94687 0.46366 0.0
C319 C 0.69999 0.93416 0.48127 0.0
C320 C 0.68497 0.96868 0.467 0.0
C321 C 0.70244 0.9783 0.48783 0.0
C322 C 0.71933 0.96576 0.50284 0.0
C323 C 0.71808 0.94378 0.49974 0.0
H324 H 0.93534 0.72767 0.49195 0.0
H325 H 0.93977 0.65979 0.49316 0.0
H326 H 0.97368 0.73002 0.50158 0.0
H327 H 0.97751 0.66205 0.50051 0.0
H328 H 0.04108 0.66768 0.55597 0.0
H329 H 0.00302 0.67055 0.55579 0.0
H330 H 0.00708 0.72372 0.46238 0.0
H331 H 0.0457 0.72151 0.46513 0.0
C332 C 0.94448 0.71331 0.49426 0.0
C333 C 0.93454 0.69356 0.49238 0.0
C334 C 0.9664 0.71464 0.49946 0.0
C335 C 0.97868 0.69623 0.50251 0.0
C336 C 0.96859 0.67658 0.49979 0.0
C337 C 0.94686 0.67527 0.49524 0.0
C338 C 0.03384 0.6801 0.53571 0.0
C339 C 0.04619 0.69414 0.50988 0.0
C340 C 0.01202 0.6817 0.53538 0.0
C341 C 0.00193 0.697 0.50803 0.0
C342 C 0.01435 0.71176 0.48382 0.0
C343 C 0.0364 0.71045 0.48511 0.0
H344 H 0.24497 0.04503 0.51582 0.0
H345 H 0.30555 0.03836 0.44864 0.0
H346 H 0.2419 0.00652 0.5201 0.0
H347 H 0.30245 0.00031 0.45323 0.0
H348 H 0.30573 0.93999 0.5348 0.0
H349 H 0.30257 0.97803 0.52996 0.0
H350 H 0.24188 0.97169 0.4643 0.0
H351 H 0.245 0.93319 0.46881 0.0
C352 C 0.25739 0.0354 0.50121 0.0
C353 C 0.27563 0.0447 0.48248 0.0
C354 C 0.25562 0.01343 0.5037 0.0
C355 C 0.27213 0.00061 0.48779 0.0
C356 C 0.28969 0.00993 0.46651 0.0
C357 C 0.2914 0.03172 0.46375 0.0
C358 C 0.29154 0.9466 0.51989 0.0
C359 C 0.27574 0.93358 0.5016 0.0
C360 C 0.2898 0.96839 0.51698 0.0
C361 C 0.27217 0.97767 0.49598 0.0
C362 C 0.25565 0.96481 0.48046 0.0
C363 C 0.25746 0.94285 0.48308 0.0
H364 H 0.03822 0.30919 0.53028 0.0
H365 H 0.04483 0.24801 0.46617 0.0
H366 H 0.00016 0.30624 0.5253 0.0
H367 H 0.00632 0.24511 0.46139 0.0
H368 H 0.93308 0.248 0.51004 0.0
H369 H 0.97159 0.24517 0.51505 0.0
H370 H 0.97769 0.30615 0.45035 0.0
H371 H 0.93962 0.30903 0.44514 0.0
C372 C 0.03156 0.29496 0.51573 0.0
C373 C 0.04453 0.27895 0.49804 0.0
C374 C 0.00976 0.29334 0.51271 0.0
C375 C 0.00042 0.27564 0.49214 0.0
C376 C 0.01323 0.25894 0.47721 0.0
C377 C 0.0352 0.26061 0.47999 0.0
C378 C 0.9427 0.26059 0.49612 0.0
C379 C 0.93334 0.27886 0.47775 0.0
C380 C 0.96467 0.25895 0.49902 0.0
C381 C 0.97746 0.27563 0.48391 0.0
C382 C 0.9681 0.29327 0.46308 0.0
C383 C 0.9463 0.29485 0.45993 0.0
H384 H 0.20569 0.27878 0.96552 0.0
H385 H 0.25071 0.32505 0.01217 0.0
H386 H 0.23329 0.25246 0.96185 0.0
H387 H 0.2784 0.29828 0.01121 0.0
H388 H 0.32664 0.24805 0.96591 0.0
H389 H 0.30039 0.27625 0.96612 0.0
H390 H 0.25307 0.23176 0.01151 0.0
H391 H 0.27889 0.20369 0.00861 0.0
C392 C 0.22153 0.28325 0.97542 0.0
C393 C 0.22604 0.30389 -0.01049 0.0
C394 C 0.23737 0.26811 0.97369 0.0
C395 C 0.25808 0.27306 -0.01289 0.0
C396 C 0.2627 0.2939 0.0003 0.0
C397 C 0.24684 0.30922 0.00108 0.0
C398 C 0.31059 0.24442 0.97591 0.0
C399 C 0.30471 0.22368 -0.01332 0.0
C400 C 0.29556 0.26057 0.97626 0.0
C401 C 0.27447 0.25629 -0.01182 0.0
C402 C 0.26894 0.2356 0.00064 0.0
C403 C 0.28379 0.21948 -0.00064 0.0
H404 H 0.76743 0.28089 0.94675 0.0
H405 H 0.72807 0.33008 0.00394 0.0
H406 H 0.73903 0.25579 0.95657 0.0
H407 H 0.69944 0.30456 0.01399 0.0
H408 H 0.69739 0.21213 0.0375 0.0
H409 H 0.7228 0.24028 0.028 0.0
H410 H 0.67485 0.27983 0.9674 0.0
H411 H 0.64902 0.25147 0.97713 0.0
C412 C 0.75268 0.28641 0.96124 0.0
C413 C 0.75014 0.30747 0.97509 0.0
C414 C 0.73643 0.27197 0.96702 0.0
C415 C 0.71718 0.27817 -0.01326 0.0
C416 C 0.71416 0.29939 -0.00125 0.0
C417 C 0.73056 0.31394 -0.00691 0.0
C418 C 0.69211 0.22682 0.02239 0.0
C419 C 0.6712 0.22942 0.00752 0.0
C420 C 0.70673 0.24293 0.0168 0.0
C421 C 0.70086 0.26208 -0.00374 0.0
C422 C 0.67977 0.26518 0.9833 0.0
C423 C 0.66503 0.24894 -0.01123 0.0
H424 H 0.76779 0.69793 0.02806 0.0
H425 H 0.72786 0.65102 0.9643 0.0
H426 H 0.73963 0.72358 0.02242 0.0
H427 H 0.69953 0.6771 0.95826 0.0
H428 H 0.69807 0.77014 0.94917 0.0
H429 H 0.72353 0.74184 0.95551 0.0
H430 H 0.67505 0.7002 0.00679 0.0
H431 H 0.64918 0.72868 2e-05 0.0
C432 C 0.75297 0.69303 0.01293 0.0
C433 C 0.75019 0.67246 -0.00391 0.0
C434 C 0.73686 0.7078 0.00954 0.0
C435 C 0.71753 0.70243 -0.0108 0.0
C436 C 0.7143 0.68164 0.9741 0.0
C437 C 0.73053 0.66676 0.97745 0.0
C438 C 0.69271 0.75497 0.96164 0.0
C439 C 0.6716 0.75176 0.97455 0.0
C440 C 0.70736 0.73876 0.96546 0.0
C441 C 0.70133 0.71892 0.9823 0.0
C442 C 0.6801 0.71536 -0.00632 0.0
C443 C 0.66534 0.73168 -0.01006 0.0
H444 H 0.2514 0.65015 0.02257 0.0
H445 H 0.20955 0.69725 0.96563 0.0
H446 H 0.2792 0.67674 0.02906 0.0
H447 H 0.23717 0.7234 0.97164 0.0
H448 H 0.27977 0.76999 0.04055 0.0
H449 H 0.25452 0.74141 0.03672 0.0
H450 H 0.30233 0.70044 0.97989 0.0
H451 H 0.32797 0.72917 0.98424 0.0
C452 C 0.24816 0.66607 0.01117 0.0
C453 C 0.22817 0.6716 -0.00597 0.0
C454 C 0.26409 0.68125 0.01475 0.0
C455 C 0.26023 0.70219 0.00144 0.0
C456 C 0.24047 0.7075 0.98311 0.0
C457 C 0.22465 0.69243 0.97947 0.0
C458 C 0.28503 0.7549 0.02742 0.0
C459 C 0.30586 0.75196 0.01219 0.0
C460 C 0.2705 0.73853 0.02507 0.0
C461 C 0.27638 0.71879 0.00737 0.0
C462 C 0.29739 0.7155 -0.00624 0.0
C463 C 0.31202 0.73197 -0.00391 0.0
H464 H 0.83031 0.74973 0.49618 0.0
H465 H 0.78197 0.71282 0.4289 0.0
H466 H 0.80475 0.77816 0.50858 0.0
H467 H 0.75684 0.74102 0.44107 0.0
H468 H 0.75233 0.82999 0.47737 0.0
H469 H 0.78075 0.80446 0.46477 0.0
H470 H 0.74022 0.75464 0.5139 0.0
H471 H 0.712 0.77977 0.52622 0.0
C472 C 0.81438 0.74777 0.48354 0.0
C473 C 0.80812 0.72888 0.46214 0.0
C474 C 0.7998 0.76405 0.49058 0.0
C475 C 0.77876 0.76159 0.47651 0.0
C476 C 0.77284 0.74314 0.4532 0.0
C477 C 0.78731 0.727 0.44608 0.0
C478 C 0.74958 0.81361 0.48585 0.0
C479 C 0.72979 0.8069 0.50226 0.0
C480 C 0.76586 0.79905 0.47875 0.0
C481 C 0.76253 0.77757 0.48767 0.0
C482 C 0.74307 0.77105 0.50581 0.0
C483 C 0.72692 0.78551 0.51305 0.0
H484 H 0.22714 0.82755 0.50348 0.0
H485 H 0.26742 0.78034 0.44152 0.0
H486 H 0.19951 0.80105 0.51378 0.0
H487 H 0.2399 0.75422 0.45136 0.0
H488 H 0.20103 0.70864 0.53501 0.0
H489 H 0.22549 0.73729 0.52197 0.0
H490 H 0.17487 0.77615 0.47034 0.0
H491 H 0.14997 0.74726 0.48382 0.0
C492 C 0.23001 0.81165 0.49152 0.0
C493 C 0.2496 0.806 0.4723 0.0
C494 C 0.21417 0.79652 0.4973 0.0
C495 C 0.21772 0.77553 0.48405 0.0
C496 C 0.23691 0.77019 0.46282 0.0
C497 C 0.25265 0.78521 0.45705 0.0
C498 C 0.19497 0.72327 0.52102 0.0
C499 C 0.17353 0.72556 0.51004 0.0
C500 C 0.20906 0.73966 0.51331 0.0
C501 C 0.20214 0.75882 0.49442 0.0
C502 C 0.18061 0.76151 0.4849 0.0
C503 C 0.1664 0.74498 0.49253 0.0
H504 H 0.26838 0.19891 0.53599 0.0
H505 H 0.22751 0.1507 0.48038 0.0
H506 H 0.24071 0.22484 0.52585 0.0
H507 H 0.19975 0.17699 0.46965 0.0
H508 H 0.19896 0.26968 0.44746 0.0
H509 H 0.22442 0.24161 0.45809 0.0
H510 H 0.17565 0.20136 0.51337 0.0
H511 H 0.14984 0.22953 0.50215 0.0
C512 C 0.25347 0.1938 0.52168 0.0
C513 C 0.25025 0.17273 0.5086 0.0
C514 C 0.23764 0.20872 0.51564 0.0
C515 C 0.21818 0.20301 0.49633 0.0
C516 C 0.2146 0.18182 0.48471 0.0
C517 C 0.23051 0.16681 0.49073 0.0
C518 C 0.19355 0.25485 0.4617 0.0
C519 C 0.17236 0.25194 0.47433 0.0
C520 C 0.2082 0.23879 0.46803 0.0
C521 C 0.20209 0.2194 0.48718 0.0
C522 C 0.18079 0.21615 0.49845 0.0
C523 C 0.16605 0.23229 0.49215 0.0
H524 H 0.77996 0.26759 0.535 0.0
H525 H 0.82863 0.22807 0.4761 0.0
H526 H 0.75459 0.23943 0.5254 0.0
H527 H 0.80284 0.19969 0.46628 0.0
H528 H 0.71029 0.19849 0.44473 0.0
H529 H 0.73868 0.22363 0.45407 0.0
H530 H 0.77807 0.17514 0.51307 0.0
H531 H 0.74947 0.14958 0.5035 0.0
C532 C 0.78532 0.25286 0.52018 0.0
C533 C 0.80631 0.2502 0.50578 0.0
C534 C 0.77072 0.23674 0.51453 0.0
C535 C 0.77669 0.21753 0.4944 0.0
C536 C 0.79785 0.21439 0.48185 0.0
C537 C 0.81256 0.23064 0.48738 0.0
C538 C 0.725 0.19303 0.45946 0.0
C539 C 0.72749 0.17204 0.47392 0.0
C540 C 0.74125 0.2075 0.46496 0.0
C541 C 0.76043 0.20139 0.485 0.0
C542 C 0.7634 0.18023 0.49756 0.0
C543 C 0.74702 0.16566 0.49218 0.0
H544 H 0.10704 0.29597 0.30105 0.0
H545 H 0.12666 0.35301 0.37036 0.0
H546 H 0.11742 0.31107 0.22659 0.0
H547 H 0.13694 0.36811 0.29578 0.0
H548 H 0.18258 0.36828 0.16766 0.0
H549 H 0.16644 0.35866 0.24149 0.0
H550 H 0.10964 0.34022 0.16993 0.0
H551 H 0.12581 0.34979 0.09586 0.0
C552 C 0.11328 0.31184 0.30028 0.0
C553 C 0.11626 0.32323 0.3415 0.0
C554 C 0.11909 0.32053 0.25765 0.0
C555 C 0.12809 0.3407 0.25556 0.0
C556 C 0.13023 0.35243 0.29656 0.0
C557 C 0.12428 0.34381 0.33915 0.0
C558 C 0.16657 0.36241 0.16774 0.0
C559 C 0.15552 0.35961 0.12603 0.0
C560 C 0.15728 0.35704 0.21001 0.0
C561 C 0.13682 0.34865 0.21132 0.0
C562 C 0.1255 0.34651 0.16977 0.0
C563 C 0.13473 0.35205 0.12748 0.0
H564 H 0.67979 0.10756 0.30738 0.0
H565 H 0.62328 0.1278 0.37837 0.0
H566 H 0.66419 0.11744 0.23331 0.0
H567 H 0.6076 0.1375 0.30404 0.0
H568 H 0.60615 0.18196 0.17422 0.0
H569 H 0.61578 0.16622 0.24832 0.0
H570 H 0.63546 0.10955 0.17763 0.0
H571 H 0.62601 0.12537 0.10328 0.0
C572 C 0.66392 0.11382 0.30708 0.0
C573 C 0.65284 0.11712 0.34866 0.0
C574 C 0.65493 0.11934 0.26463 0.0
C575 C 0.63473 0.12834 0.26299 0.0
C576 C 0.62329 0.13081 0.30441 0.0
C577 C 0.63224 0.12518 0.34687 0.0
C578 C 0.61227 0.16604 0.17454 0.0
C579 C 0.61555 0.15499 0.13296 0.0
C580 C 0.61765 0.15697 0.217 0.0
C581 C 0.62647 0.1367 0.21866 0.0
C582 C 0.62891 0.12529 0.17725 0.0
C583 C 0.62342 0.13433 0.13477 0.0
H584 H 0.87054 0.68179 0.29219 0.0
H585 H 0.85226 0.6243 0.3617 0.0
H586 H 0.86095 0.66631 0.21775 0.0
H587 H 0.84288 0.60877 0.28714 0.0
H588 H 0.85368 0.62809 0.08685 0.0
H589 H 0.86951 0.63792 0.16097 0.0
H590 H 0.81364 0.61659 0.23269 0.0
H591 H 0.79792 0.60661 0.15888 0.0
C592 C 0.86477 0.66575 0.29148 0.0
C593 C 0.86191 0.65435 0.33276 0.0
C594 C 0.85943 0.65683 0.24885 0.0
C595 C 0.85106 0.63638 0.24677 0.0
C596 C 0.84907 0.62466 0.28786 0.0
C597 C 0.8545 0.63353 0.33046 0.0
C598 C 0.84493 0.62522 0.11853 0.0
C599 C 0.82449 0.61677 0.11714 0.0
C600 C 0.85395 0.63092 0.16085 0.0
C601 C 0.84276 0.62811 0.20248 0.0
C602 C 0.82273 0.61875 0.20118 0.0
C603 C 0.81366 0.61317 0.1589 0.0
H604 H 0.29553 0.87185 0.30548 0.0
H605 H 0.35249 0.85359 0.37689 0.0
H606 H 0.31168 0.86249 0.23151 0.0
H607 H 0.3687 0.84439 0.3027 0.0
H608 H 0.37162 0.79956 0.17354 0.0
H609 H 0.36144 0.81526 0.24736 0.0
H610 H 0.34039 0.87117 0.17574 0.0
H611 H 0.35043 0.85539 0.10163 0.0
C612 C 0.31161 0.86615 0.30529 0.0
C613 C 0.32266 0.86323 0.34698 0.0
C614 C 0.32091 0.86093 0.26291 0.0
C615 C 0.34141 0.85261 0.26142 0.0
C616 C 0.35279 0.85056 0.30293 0.0
C617 C 0.34354 0.85589 0.34532 0.0
C618 C 0.3651 0.81531 0.17359 0.0
C619 C 0.36161 0.82615 0.13182 0.0
C620 C 0.3594 0.82436 0.2159 0.0
C621 C 0.35003 0.8444 0.21723 0.0
C622 C 0.34739 0.85562 0.17562 0.0
C623 C 0.35322 0.84661 0.13329 0.0
H624 H 0.11574 0.68167 0.68971 0.0
H625 H 0.13127 0.62308 0.62142 0.0
H626 H 0.1253 0.66622 0.76435 0.0
H627 H 0.14071 0.60766 0.69609 0.0
H628 H 0.12931 0.6268 0.89523 0.0
H629 H 0.11468 0.63772 0.82066 0.0
H630 H 0.17048 0.61482 0.75111 0.0
H631 H 0.18509 0.60382 0.82548 0.0
C632 C 0.12098 0.66544 0.69073 0.0
C633 C 0.12294 0.65363 0.64978 0.0
C634 C 0.12631 0.65656 0.73343 0.0
C635 C 0.13379 0.63578 0.73583 0.0
C636 C 0.13516 0.62378 0.69506 0.0
C637 C 0.1297 0.6326 0.65242 0.0
C638 C 0.13831 0.62383 0.86394 0.0
C639 C 0.15841 0.61461 0.8661 0.0
C640 C 0.12998 0.63017 0.82138 0.0
C641 C 0.14151 0.6272 0.7803 0.0
C642 C 0.16119 0.61714 0.78227 0.0
C643 C 0.1696 0.61096 0.82482 0.0
H644 H 0.29439 0.10634 0.68005 0.0
H645 H 0.35166 0.12444 0.60923 0.0
H646 H 0.31024 0.11584 0.75417 0.0
H647 H 0.36753 0.13381 0.6835 0.0
H648 H 0.36972 0.17895 0.81216 0.0
H649 H 0.35948 0.16327 0.73841 0.0
H650 H 0.33926 0.10701 0.80998 0.0
H651 H 0.34943 0.12274 0.88401 0.0
C652 C 0.31046 0.11205 0.6804 0.0
C653 C 0.3217 0.11488 0.63886 0.0
C654 C 0.31958 0.11734 0.72285 0.0
C655 C 0.34006 0.12566 0.72446 0.0
C656 C 0.35163 0.12763 0.68311 0.0
C657 C 0.34256 0.1222 0.64069 0.0
C658 C 0.36334 0.16313 0.8121 0.0
C659 C 0.36019 0.15214 0.85381 0.0
C660 C 0.35762 0.1541 0.76986 0.0
C661 C 0.34852 0.13396 0.76858 0.0
C662 C 0.34609 0.12264 0.81012 0.0
C663 C 0.35198 0.13161 0.85238 0.0
H664 H 0.79768 0.3716 0.80683 0.0
H665 H 0.85416 0.35138 0.87756 0.0
H666 H 0.8133 0.36171 0.73269 0.0
H667 H 0.86986 0.34164 0.80317 0.0
H668 H 0.87122 0.2972 0.6732 0.0
H669 H 0.86157 0.31289 0.74742 0.0
H670 H 0.84219 0.36973 0.67703 0.0
H671 H 0.85167 0.35397 0.60259 0.0
C672 C 0.81355 0.36533 0.80645 0.0
C673 C 0.82462 0.36205 0.84797 0.0
C674 C 0.82255 0.35981 0.76398 0.0
C675 C 0.84276 0.35082 0.76225 0.0
C676 C 0.85417 0.34834 0.80361 0.0
C677 C 0.84521 0.35399 0.8461 0.0
C678 C 0.86516 0.31314 0.67362 0.0
C679 C 0.86198 0.32427 0.63211 0.0
C680 C 0.85978 0.32218 0.71613 0.0
C681 C 0.85103 0.34249 0.7179 0.0
C682 C 0.84869 0.35396 0.67655 0.0
C683 C 0.85419 0.34496 0.63403 0.0
H684 H 0.60675 0.79777 0.80763 0.0
H685 H 0.62708 0.85412 0.87864 0.0
H686 H 0.61734 0.81314 0.73369 0.0
H687 H 0.63756 0.86954 0.80444 0.0
H688 H 0.626 0.8517 0.60379 0.0
H689 H 0.60985 0.84224 0.67787 0.0
H690 H 0.66669 0.86065 0.7493 0.0
H691 H 0.68281 0.87024 0.67537 0.0
C692 C 0.61319 0.81356 0.80734 0.0
C693 C 0.61628 0.82466 0.8489 0.0
C694 C 0.61913 0.82241 0.76498 0.0
C695 C 0.62836 0.84249 0.76341 0.0
C696 C 0.63067 0.85395 0.80478 0.0
C697 C 0.62459 0.84515 0.84715 0.0
C698 C 0.63494 0.85399 0.63537 0.0
C699 C 0.65574 0.86151 0.6338 0.0
C700 C 0.62572 0.84851 0.67769 0.0
C701 C 0.63706 0.85062 0.71923 0.0
C702 C 0.65751 0.85904 0.71784 0.0
C703 C 0.66678 0.86439 0.67551 0.0
H704 H 0.80947 0.63486 0.59868 0.0
H705 H 0.87101 0.66225 0.61983 0.0
H706 H 0.80615 0.62894 0.68178 0.0
H707 H 0.86802 0.65563 0.70282 0.0
H708 H 0.84281 0.6668 0.84996 0.0
H709 H 0.84878 0.66952 0.76685 0.0
H710 H 0.81855 0.60924 0.74673 0.0
H711 H 0.81191 0.60688 0.82988 0.0
C712 C 0.82243 0.63931 0.62099 0.0
C713 C 0.84042 0.64919 0.60272 0.0
C714 C 0.82059 0.6358 0.66866 0.0
C715 C 0.83678 0.64191 0.69906 0.0
C716 C 0.85508 0.65111 0.68051 0.0
C717 C 0.85684 0.6548 0.6329 0.0
C718 C 0.83756 0.65405 0.82787 0.0
C719 C 0.82676 0.63669 0.84649 0.0
C720 C 0.8411 0.65554 0.78017 0.0
C721 C 0.83412 0.63961 0.75003 0.0
C722 C 0.82383 0.62196 0.76886 0.0
C723 C 0.82011 0.62056 0.81655 0.0
H724 H 0.35569 0.82689 0.60953 0.0
H725 H 0.29615 0.85701 0.63902 0.0
H726 H 0.36255 0.8238 0.69239 0.0
H727 H 0.30242 0.853 0.72171 0.0
H728 H 0.32526 0.85769 0.8687 0.0
H729 H 0.32197 0.86428 0.78578 0.0
H730 H 0.35164 0.80435 0.75716 0.0
H731 H 0.35586 0.79836 0.83995 0.0
C732 C 0.34403 0.83278 0.63376 0.0
C733 C 0.32537 0.84216 0.61779 0.0
C734 C 0.34789 0.83089 0.68131 0.0
C735 C 0.333 0.83803 0.71395 0.0
C736 C 0.31444 0.84765 0.69777 0.0
C737 C 0.31076 0.84984 0.65027 0.0
C738 C 0.33121 0.84602 0.84461 0.0
C739 C 0.34077 0.82749 0.86082 0.0
C740 C 0.32921 0.84972 0.79703 0.0
C741 C 0.3364 0.8348 0.76456 0.0
C742 C 0.34623 0.81639 0.78096 0.0
C743 C 0.34854 0.81286 0.82851 0.0
H744 H 0.11868 0.30271 0.63391 0.0
H745 H 0.15218 0.36003 0.60118 0.0
H746 H 0.12231 0.31011 0.71612 0.0
H747 H 0.155 0.36802 0.68367 0.0
H748 H 0.18037 0.35964 0.83213 0.0
H749 H 0.17376 0.35636 0.74931 0.0
H750 H 0.11177 0.33139 0.7785 0.0
H751 H 0.11887 0.33373 0.86133 0.0
C752 C 0.1265 0.3171 0.6443 0.0
C753 C 0.13527 0.33071 0.61108 0.0
C754 C 0.12846 0.32145 0.69153 0.0
C755 C 0.13898 0.33968 0.70669 0.0
C756 C 0.14715 0.35364 0.67331 0.0
C757 C 0.14544 0.34913 0.62602 0.0
C758 C 0.16526 0.35364 0.82079 0.0
C759 C 0.15023 0.34672 0.85316 0.0
C760 C 0.1614 0.35187 0.77326 0.0
C761 C 0.14228 0.34344 0.75709 0.0
C762 C 0.12687 0.33748 0.78965 0.0
C763 C 0.13087 0.33893 0.83715 0.0
H764 H 0.60638 0.16547 0.8459 0.0
H765 H 0.66708 0.13616 0.8667 0.0
H766 H 0.60899 0.15862 0.76292 0.0
H767 H 0.67004 0.13001 0.78368 0.0
H768 H 0.66353 0.10763 0.63633 0.0
H769 H 0.65695 0.11048 0.71941 0.0
H770 H 0.62836 0.1715 0.69812 0.0
H771 H 0.63424 0.1683 0.61506 0.0
C772 C 0.62028 0.15757 0.83276 0.0
C773 C 0.63657 0.15144 0.86286 0.0
C774 C 0.62183 0.15374 0.78515 0.0
C775 C 0.63978 0.14388 0.76652 0.0
C776 C 0.65585 0.13736 0.79684 0.0
C777 C 0.65421 0.14101 0.84448 0.0
C778 C 0.65568 0.12157 0.64938 0.0
C779 C 0.64949 0.13778 0.61912 0.0
C780 C 0.65201 0.12326 0.69704 0.0
C781 C 0.64224 0.14127 0.71555 0.0
C782 C 0.63564 0.15726 0.68507 0.0
C783 C 0.63914 0.15549 0.6374 0.0
H784 H 0.81079 0.34384 0.36631 0.0
H785 H 0.87158 0.31472 0.34502 0.0
H786 H 0.80787 0.35016 0.28336 0.0
H787 H 0.86901 0.32175 0.26211 0.0
H788 H 0.84366 0.31192 0.1146 0.0
H789 H 0.84967 0.30882 0.19756 0.0
H790 H 0.82085 0.36973 0.21891 0.0
H791 H 0.81413 0.37248 0.13589 0.0
C792 C 0.82369 0.33908 0.34399 0.0
C793 C 0.84134 0.32863 0.3622 0.0
C794 C 0.82208 0.34283 0.2964 0.0
C795 C 0.83817 0.3364 0.26596 0.0
C796 C 0.85615 0.32656 0.28444 0.0
C797 C 0.85767 0.32263 0.332 0.0
C798 C 0.83875 0.32473 0.13692 0.0
C799 C 0.82828 0.34237 0.11868 0.0
C800 C 0.84232 0.32302 0.18454 0.0
C801 C 0.83569 0.339 0.21501 0.0
C802 C 0.82582 0.35696 0.19654 0.0
C803 C 0.82207 0.35859 0.14892 0.0
H804 H 0.62078 0.79884 0.14165 0.0
H805 H 0.65047 0.85852 0.11192 0.0
H806 H 0.62505 0.80507 0.2243 0.0
H807 H 0.6538 0.86534 0.19475 0.0
H808 H 0.68066 0.858 0.34091 0.0
H809 H 0.67382 0.85429 0.25837 0.0
H810 H 0.61422 0.82439 0.28923 0.0
H811 H 0.62166 0.82717 0.37188 0.0
C812 C 0.62789 0.81348 0.15285 0.0
C813 C 0.63542 0.82812 0.12032 0.0
C814 C 0.63022 0.81714 0.20033 0.0
C815 C 0.63984 0.8357 0.21641 0.0
C816 C 0.64673 0.85067 0.18372 0.0
C817 C 0.64471 0.84684 0.13621 0.0
C818 C 0.66604 0.85075 0.33003 0.0
C819 C 0.65177 0.84274 0.36285 0.0
C820 C 0.66202 0.84874 0.28262 0.0
C821 C 0.64347 0.83897 0.26691 0.0
C822 C 0.62888 0.83159 0.29993 0.0
C823 C 0.63307 0.83329 0.34735 0.0
H824 H 0.10536 0.65859 0.36138 0.0
H825 H 0.16586 0.62858 0.38028 0.0
H826 H 0.10725 0.6514 0.27835 0.0
H827 H 0.16811 0.62213 0.29748 0.0
H828 H 0.16283 0.60163 0.15019 0.0
H829 H 0.15493 0.60323 0.23285 0.0
H830 H 0.12671 0.66459 0.21386 0.0
H831 H 0.13386 0.66259 0.13107 0.0
C832 C 0.11901 0.65038 0.34787 0.0
C833 C 0.13552 0.64429 0.37737 0.0
C834 C 0.12014 0.64636 0.30026 0.0
C835 C 0.1379 0.63632 0.28114 0.0
C836 C 0.15405 0.62961 0.31099 0.0
C837 C 0.15283 0.63345 0.35855 0.0
C838 C 0.15475 0.61536 0.16364 0.0
C839 C 0.14914 0.63207 0.1342 0.0
C840 C 0.15029 0.61632 0.21104 0.0
C841 C 0.14036 0.63412 0.23012 0.0
C842 C 0.13412 0.65051 0.20033 0.0
C843 C 0.13837 0.64944 0.15285 0.0
H844 H 0.3577 0.15086 0.37849 0.0
H845 H 0.29944 0.11884 0.34698 0.0
H846 H 0.36567 0.15322 0.29589 0.0
H847 H 0.30683 0.12205 0.2646 0.0
H848 H 0.33076 0.11707 0.11935 0.0
H849 H 0.32781 0.11061 0.2024 0.0
H850 H 0.35458 0.17196 0.2298 0.0
H851 H 0.35845 0.1779 0.14685 0.0
C852 C 0.34658 0.14437 0.35389 0.0
C853 C 0.32792 0.13472 0.3692 0.0
C854 C 0.35108 0.14582 0.30652 0.0
C855 C 0.33686 0.13791 0.27343 0.0
C856 C 0.31835 0.12797 0.28897 0.0
C857 C 0.31402 0.12626 0.33629 0.0
C858 C 0.33621 0.12906 0.1432 0.0
C859 C 0.34472 0.14804 0.12664 0.0
C860 C 0.3344 0.12543 0.19082 0.0
C861 C 0.34074 0.14085 0.22293 0.0
C862 C 0.3498 0.15959 0.20622 0.0
C863 C 0.35191 0.16307 0.1586 0.0
loop_
_geom_bond_atom_site_label_1
_geom_bond_atom_site_label_2
_geom_bond_distance
_geom_bond_site_symmetry_2
_ccdc_geom_bond_type
C0 O1 1.306 . S
C0 O3 1.160 . S
O1 C0 1.306 . S
O1 Cd2 2.228 1_556 S
Cd2 O1 2.228 1_554 S
Cd2 O6 2.273 . S
Cd2 O10 2.277 . S
O3 C0 1.160 . S
O3 Cd4 2.203 1_556 S
Cd4 O3 2.203 1_554 S
Cd4 O6 2.411 . S
Cd4 O7 2.333 . S
Cd4 O8 2.352 . S
Cd4 O12 2.277 . S
Cd4 O13 2.356 . S
C5 O10 1.209 . S
C5 O12 1.226 . S
O6 Cd2 2.273 . S
O6 Cd4 2.411 . S
O6 C9 1.320 . S
O7 Cd4 2.333 . S
O7 C9 1.214 . S
O8 Cd4 2.352 . S
O8 C11 1.258 . S
C9 O6 1.320 . S
C9 O7 1.214 . S
O10 Cd2 2.277 . S
O10 C5 1.209 . S
C11 O8 1.258 . S
C11 O13 1.282 . S
O12 Cd4 2.277 . S
O12 C5 1.226 . S
O13 Cd4 2.356 . S
O13 C11 1.282 . S
C14 O15 1.306 . S
C14 O17 1.160 . S
O15 C14 1.306 . S
O15 Cd16 2.228 1_556 S
Cd16 O15 2.228 1_554 S
Cd16 O20 2.273 . S
Cd16 O24 2.277 . S
O17 C14 1.160 . S
O17 Cd18 2.203 1_556 S
Cd18 O17 2.203 1_554 S
Cd18 O20 2.411 . S
Cd18 O21 2.333 . S
Cd18 O22 2.352 . S
Cd18 O26 2.277 . S
Cd18 O27 2.356 . S
C19 O24 1.209 . S
C19 O26 1.226 . S
O20 Cd16 2.273 . S
O20 Cd18 2.411 . S
O20 C23 1.320 . S
O21 Cd18 2.333 . S
O21 C23 1.214 . S
O22 Cd18 2.352 . S
O22 C25 1.258 . S
C23 O20 1.320 . S
C23 O21 1.214 . S
O24 Cd16 2.277 . S
O24 C19 1.209 . S
C25 O22 1.258 . S
C25 O27 1.282 . S
O26 Cd18 2.277 . S
O26 C19 1.226 . S
O27 Cd18 2.356 . S
O27 C25 1.282 . S
C28 O29 1.306 . S
C28 O31 1.160 . S
O29 C28 1.306 . S
O29 Cd30 2.228 1_556 S
Cd30 O29 2.228 1_554 S
Cd30 O34 2.273 . S
Cd30 O38 2.277 . S
O31 C28 1.160 . S
O31 Cd32 2.203 1_556 S
Cd32 O31 2.203 1_554 S
Cd32 O34 2.411 . S
Cd32 O35 2.333 . S
Cd32 O36 2.352 . S
Cd32 O40 2.277 . S
Cd32 O41 2.356 . S
C33 O38 1.209 . S
C33 O40 1.226 . S
O34 Cd30 2.273 . S
O34 Cd32 2.411 . S
O34 C37 1.320 . S
O35 Cd32 2.333 . S
O35 C37 1.214 . S
O36 Cd32 2.352 . S
O36 C39 1.258 . S
C37 O34 1.320 . S
C37 O35 1.214 . S
O38 Cd30 2.277 . S
O38 C33 1.209 . S
C39 O36 1.258 . S
C39 O41 1.282 . S
O40 Cd32 2.277 . S
O40 C33 1.226 . S
O41 Cd32 2.356 . S
O41 C39 1.282 . S
C42 O43 1.306 . S
C42 O45 1.160 . S
O43 C42 1.306 . S
O43 Cd44 2.228 1_556 S
Cd44 O43 2.228 1_554 S
Cd44 O48 2.273 . S
Cd44 O52 2.277 . S
O45 C42 1.160 . S
O45 Cd46 2.203 1_556 S
Cd46 O45 2.203 1_554 S
Cd46 O48 2.411 . S
Cd46 O49 2.333 . S
Cd46 O50 2.352 . S
Cd46 O54 2.277 . S
Cd46 O55 2.356 . S
C47 O52 1.209 . S
C47 O54 1.226 . S
O48 Cd44 2.273 . S
O48 Cd46 2.411 . S
O48 C51 1.320 . S
O49 Cd46 2.333 . S
O49 C51 1.214 . S
O50 Cd46 2.352 . S
O50 C53 1.258 . S
C51 O48 1.320 . S
C51 O49 1.214 . S
O52 Cd44 2.277 . S
O52 C47 1.209 . S
C53 O50 1.258 . S
C53 O55 1.282 . S
O54 Cd46 2.277 . S
O54 C47 1.226 . S
O55 Cd46 2.356 . S
O55 C53 1.282 . S
C56 O57 1.306 . S
C56 O59 1.160 . S
O57 C56 1.306 . S
O57 Cd58 2.228 1_554 S
Cd58 O57 2.228 1_556 S
Cd58 O62 2.273 . S
Cd58 O66 2.277 1_556 S
O59 C56 1.160 . S
O59 Cd60 2.203 . S
Cd60 O59 2.203 . S
Cd60 O62 2.411 1_554 S
Cd60 O63 2.333 1_554 S
Cd60 O64 2.352 . S
Cd60 O68 2.277 . S
Cd60 O69 2.356 1_554 S
C61 O66 1.209 . S
C61 O68 1.226 . S
O62 Cd58 2.273 . S
O62 Cd60 2.411 1_556 S
O62 C65 1.320 . S
O63 Cd60 2.333 1_556 S
O63 C65 1.214 . S
O64 Cd60 2.352 . S
O64 C67 1.258 . S
C65 O62 1.320 . S
C65 O63 1.214 . S
O66 Cd58 2.277 1_554 S
O66 C61 1.209 . S
C67 O64 1.258 . S
C67 O69 1.282 1_554 S
O68 Cd60 2.277 . S
O68 C61 1.226 . S
O69 Cd60 2.356 1_556 S
O69 C67 1.282 1_556 S
C70 O71 1.306 . S
C70 O73 1.160 . S
O71 C70 1.306 . S
O71 Cd72 2.228 1_554 S
Cd72 O71 2.228 1_556 S
Cd72 O76 2.273 . S
Cd72 O80 2.277 1_556 S
O73 C70 1.160 . S
O73 Cd74 2.203 . S
Cd74 O73 2.203 . S
Cd74 O76 2.411 1_554 S
Cd74 O77 2.333 1_554 S
Cd74 O78 2.352 . S
Cd74 O82 2.277 . S
Cd74 O83 2.356 1_554 S
C75 O80 1.209 . S
C75 O82 1.226 . S
O76 Cd72 2.273 . S
O76 Cd74 2.411 1_556 S
O76 C79 1.320 . S
O77 Cd74 2.333 1_556 S
O77 C79 1.214 . S
O78 Cd74 2.352 . S
O78 C81 1.258 . S
C79 O76 1.320 . S
C79 O77 1.214 . S
O80 Cd72 2.277 1_554 S
O80 C75 1.209 . S
C81 O78 1.258 . S
C81 O83 1.282 1_554 S
O82 Cd74 2.277 . S
O82 C75 1.226 . S
O83 Cd74 2.356 1_556 S
O83 C81 1.282 1_556 S
C84 O85 1.306 . S
C84 O87 1.160 . S
O85 C84 1.306 . S
O85 Cd86 2.228 1_554 S
Cd86 O85 2.228 1_556 S
Cd86 O90 2.273 . S
Cd86 O94 2.277 1_556 S
O87 C84 1.160 . S
O87 Cd88 2.203 . S
Cd88 O87 2.203 . S
Cd88 O90 2.411 1_554 S
Cd88 O91 2.333 1_554 S
Cd88 O92 2.352 . S
Cd88 O96 2.277 . S
Cd88 O97 2.356 1_554 S
C89 O94 1.209 . S
C89 O96 1.226 . S
O90 Cd86 2.273 . S
O90 Cd88 2.411 1_556 S
O90 C93 1.320 . S
O91 Cd88 2.333 1_556 S
O91 C93 1.214 . S
O92 Cd88 2.352 . S
O92 C95 1.258 . S
C93 O90 1.320 . S
C93 O91 1.214 . S
O94 Cd86 2.277 1_554 S
O94 C89 1.209 . S
C95 O92 1.258 . S
C95 O97 1.282 1_554 S
O96 Cd88 2.277 . S
O96 C89 1.226 . S
O97 Cd88 2.356 1_556 S
O97 C95 1.282 1_556 S
C98 O99 1.306 . S
C98 O101 1.160 . S
O99 C98 1.306 . S
O99 Cd100 2.228 1_554 S
Cd100 O99 2.228 1_556 S
Cd100 O104 2.273 . S
Cd100 O108 2.277 1_556 S
O101 C98 1.160 . S
O101 Cd102 2.203 . S
Cd102 O101 2.203 . S
Cd102 O104 2.411 1_554 S
Cd102 O105 2.333 1_554 S
Cd102 O106 2.352 . S
Cd102 O110 2.277 . S
Cd102 O111 2.356 1_554 S
C103 O108 1.209 . S
C103 O110 1.226 . S
O104 Cd100 2.273 . S
O104 Cd102 2.411 1_556 S
O104 C107 1.320 . S
O105 Cd102 2.333 1_556 S
O105 C107 1.214 . S
O106 Cd102 2.352 . S
O106 C109 1.258 . S
C107 O104 1.320 . S
C107 O105 1.214 . S
O108 Cd100 2.277 1_554 S
O108 C103 1.209 . S
C109 O106 1.258 . S
C109 O111 1.282 1_554 S
O110 Cd102 2.277 . S
O110 C103 1.226 . S
O111 Cd102 2.356 1_556 S
O111 C109 1.282 1_556 S
C112 O113 1.306 . S
C112 O115 1.160 . S
O113 C112 1.306 . S
O113 Cd114 2.228 . S
Cd114 O113 2.228 . S
Cd114 O118 2.273 . S
Cd114 O122 2.277 . S
O115 C112 1.160 . S
O115 Cd116 2.203 . S
Cd116 O115 2.203 . S
Cd116 O118 2.411 . S
Cd116 O119 2.333 . S
Cd116 O120 2.352 . S
Cd116 O124 2.277 . S
Cd116 O125 2.356 . S
C117 O122 1.209 . S
C117 O124 1.226 . S
O118 Cd114 2.273 . S
O118 Cd116 2.411 . S
O118 C121 1.320 . S
O119 Cd116 2.333 . S
O119 C121 1.214 . S
O120 Cd116 2.352 . S
O120 C123 1.258 . S
C121 O118 1.320 . S
C121 O119 1.214 . S
O122 Cd114 2.277 . S
O122 C117 1.209 . S
C123 O120 1.258 . S
C123 O125 1.282 . S
O124 Cd116 2.277 . S
O124 C117 1.226 . S
O125 Cd116 2.356 . S
O125 C123 1.282 . S
C126 O127 1.306 . S
C126 O129 1.160 . S
O127 C126 1.306 . S
O127 Cd128 2.228 . S
Cd128 O127 2.228 . S
Cd128 O132 2.273 . S
Cd128 O136 2.277 . S
O129 C126 1.160 . S
O129 Cd130 2.203 . S
Cd130 O129 2.203 . S
Cd130 O132 2.411 . S
Cd130 O133 2.333 . S
Cd130 O134 2.352 . S
Cd130 O138 2.277 . S
Cd130 O139 2.356 . S
C131 O136 1.209 . S
C131 O138 1.226 . S
O132 Cd128 2.273 . S
O132 Cd130 2.411 . S
O132 C135 1.320 . S
O133 Cd130 2.333 . S
O133 C135 1.214 . S
O134 Cd130 2.352 . S
O134 C137 1.258 . S
C135 O132 1.320 . S
C135 O133 1.214 . S
O136 Cd128 2.277 . S
O136 C131 1.209 . S
C137 O134 1.258 . S
C137 O139 1.282 . S
O138 Cd130 2.277 . S
O138 C131 1.226 . S
O139 Cd130 2.356 . S
O139 C137 1.282 . S
C140 O141 1.306 . S
C140 O143 1.160 . S
O141 C140 1.306 . S
O141 Cd142 2.228 . S
Cd142 O141 2.228 . S
Cd142 O146 2.273 . S
Cd142 O150 2.277 . S
O143 C140 1.160 . S
O143 Cd144 2.203 . S
Cd144 O143 2.203 . S
Cd144 O146 2.411 . S
Cd144 O147 2.333 . S
Cd144 O148 2.352 . S
Cd144 O152 2.277 . S
Cd144 O153 2.356 . S
C145 O150 1.209 . S
C145 O152 1.226 . S
O146 Cd142 2.273 . S
O146 Cd144 2.411 . S
O146 C149 1.320 . S
O147 Cd144 2.333 . S
O147 C149 1.214 . S
O148 Cd144 2.352 . S
O148 C151 1.258 . S
C149 O146 1.320 . S
C149 O147 1.214 . S
O150 Cd142 2.277 . S
O150 C145 1.209 . S
C151 O148 1.258 . S
C151 O153 1.282 . S
O152 Cd144 2.277 . S
O152 C145 1.226 . S
O153 Cd144 2.356 . S
O153 C151 1.282 . S
C154 O155 1.306 . S
C154 O157 1.160 . S
O155 C154 1.306 . S
O155 Cd156 2.228 . S
Cd156 O155 2.228 . S
Cd156 O160 2.273 . S
Cd156 O164 2.277 . S
O157 C154 1.160 . S
O157 Cd158 2.203 . S
Cd158 O157 2.203 . S
Cd158 O160 2.411 . S
Cd158 O161 2.333 . S
Cd158 O162 2.352 . S
Cd158 O166 2.277 . S
Cd158 O167 2.356 . S
C159 O164 1.209 . S
C159 O166 1.226 . S
O160 Cd156 2.273 . S
O160 Cd158 2.411 . S
O160 C163 1.320 . S
O161 Cd158 2.333 . S
O161 C163 1.214 . S
O162 Cd158 2.352 . S
O162 C165 1.258 . S
C163 O160 1.320 . S
C163 O161 1.214 . S
O164 Cd156 2.277 . S
O164 C159 1.209 . S
C165 O162 1.258 . S
C165 O167 1.282 . S
O166 Cd158 2.277 . S
O166 C159 1.226 . S
O167 Cd158 2.356 . S
O167 C165 1.282 . S
C168 O169 1.306 . S
C168 O171 1.160 . S
O169 C168 1.306 . S
O169 Cd170 2.228 . S
Cd170 O169 2.228 . S
Cd170 O174 2.273 . S
Cd170 O178 2.277 . S
O171 C168 1.160 . S
O171 Cd172 2.203 . S
Cd172 O171 2.203 . S
Cd172 O174 2.411 . S
Cd172 O175 2.333 . S
Cd172 O176 2.352 . S
Cd172 O180 2.277 . S
Cd172 O181 2.356 . S
C173 O178 1.209 . S
C173 O180 1.226 . S
O174 Cd170 2.273 . S
O174 Cd172 2.411 . S
O174 C177 1.320 . S
O175 Cd172 2.333 . S
O175 C177 1.214 . S
O176 Cd172 2.352 . S
O176 C179 1.258 . S
C177 O174 1.320 . S
C177 O175 1.214 . S
O178 Cd170 2.277 . S
O178 C173 1.209 . S
C179 O176 1.258 . S
C179 O181 1.282 . S
O180 Cd172 2.277 . S
O180 C173 1.226 . S
O181 Cd172 2.356 . S
O181 C179 1.282 . S
C182 O183 1.306 . S
C182 O185 1.160 . S
O183 C182 1.306 . S
O183 Cd184 2.228 . S
Cd184 O183 2.228 . S
Cd184 O188 2.273 . S
Cd184 O192 2.277 . S
O185 C182 1.160 . S
O185 Cd186 2.203 . S
Cd186 O185 2.203 . S
Cd186 O188 2.411 . S
Cd186 O189 2.333 . S
Cd186 O190 2.352 . S
Cd186 O194 2.277 . S
Cd186 O195 2.356 . S
C187 O192 1.209 . S
C187 O194 1.226 . S
O188 Cd184 2.273 . S
O188 Cd186 2.411 . S
O188 C191 1.320 . S
O189 Cd186 2.333 . S
O189 C191 1.214 . S
O190 Cd186 2.352 . S
O190 C193 1.258 . S
C191 O188 1.320 . S
C191 O189 1.214 . S
O192 Cd184 2.277 . S
O192 C187 1.209 . S
C193 O190 1.258 . S
C193 O195 1.282 . S
O194 Cd186 2.277 . S
O194 C187 1.226 . S
O195 Cd186 2.356 . S
O195 C193 1.282 . S
C196 O197 1.306 . S
C196 O199 1.160 . S
O197 C196 1.306 . S
O197 Cd198 2.228 . S
Cd198 O197 2.228 . S
Cd198 O202 2.273 . S
Cd198 O206 2.277 . S
O199 C196 1.160 . S
O199 Cd200 2.203 . S
Cd200 O199 2.203 . S
Cd200 O202 2.411 . S
Cd200 O203 2.333 . S
Cd200 O204 2.352 . S
Cd200 O208 2.277 . S
Cd200 O209 2.356 . S
C201 O206 1.209 . S
C201 O208 1.226 . S
O202 Cd198 2.273 . S
O202 Cd200 2.411 . S
O202 C205 1.320 . S
O203 Cd200 2.333 . S
O203 C205 1.214 . S
O204 Cd200 2.352 . S
O204 C207 1.258 . S
C205 O202 1.320 . S
C205 O203 1.214 . S
O206 Cd198 2.277 . S
O206 C201 1.209 . S
C207 O204 1.258 . S
C207 O209 1.282 . S
O208 Cd200 2.277 . S
O208 C201 1.226 . S
O209 Cd200 2.356 . S
O209 C207 1.282 . S
C210 O211 1.306 . S
C210 O213 1.160 . S
O211 C210 1.306 . S
O211 Cd212 2.228 . S
Cd212 O211 2.228 . S
Cd212 O216 2.273 . S
Cd212 O220 2.277 . S
O213 C210 1.160 . S
O213 Cd214 2.203 . S
Cd214 O213 2.203 . S
Cd214 O216 2.411 . S
Cd214 O217 2.333 . S
Cd214 O218 2.352 . S
Cd214 O222 2.277 . S
Cd214 O223 2.356 . S
C215 O220 1.209 . S
C215 O222 1.226 . S
O216 Cd212 2.273 . S
O216 Cd214 2.411 . S
O216 C219 1.320 . S
O217 Cd214 2.333 . S
O217 C219 1.214 . S
O218 Cd214 2.352 . S
O218 C221 1.258 . S
C219 O216 1.320 . S
C219 O217 1.214 . S
O220 Cd212 2.277 . S
O220 C215 1.209 . S
C221 O218 1.258 . S
C221 O223 1.282 . S
O222 Cd214 2.277 . S
O222 C215 1.226 . S
O223 Cd214 2.356 . S
O223 C221 1.282 . S
H224 C232 0.950 . S
H225 C237 0.950 . S
H226 C234 0.950 . S
H227 C236 0.950 . S
H228 C238 0.950 . S
H229 C240 0.950 . S
H230 C242 0.950 . S
H231 C243 0.950 . S
C232 H224 0.950 . S
C232 C233 1.386 1_556 S
C232 C234 1.391 . S
C233 C232 1.386 1_554 S
C233 C237 1.393 . S
C234 H226 0.950 . S
C234 C232 1.391 . S
C234 C235 1.400 1_556 S
C235 C234 1.400 1_554 S
C235 C236 1.398 . S
C235 C241 1.491 . S
C236 H227 0.950 . S
C236 C235 1.398 . S
C236 C237 1.391 . S
C237 H225 0.950 . S
C237 C233 1.393 . S
C237 C236 1.391 . S
C238 H228 0.950 . S
C238 C239 1.386 . S
C238 C240 1.391 . S
C239 C238 1.386 . S
C239 C243 1.393 1_554 S
C240 H229 0.950 . S
C240 C238 1.391 . S
C240 C241 1.400 . S
C241 C235 1.491 . S
C241 C240 1.400 . S
C241 C242 1.398 1_554 S
C242 H230 0.950 . S
C242 C241 1.398 1_556 S
C242 C243 1.391 . S
C243 H231 0.950 . S
C243 C239 1.393 1_556 S
C243 C242 1.391 . S
H244 C252 0.950 . S
H245 C257 0.950 . S
H246 C254 0.950 . S
H247 C256 0.950 . S
H248 C258 0.950 . S
H249 C260 0.950 . S
H250 C262 0.950 . S
H251 C263 0.950 . S
C252 H244 0.950 . S
C252 C253 1.386 1_556 S
C252 C254 1.391 . S
C253 C252 1.386 1_554 S
C253 C257 1.393 . S
C254 H246 0.950 . S
C254 C252 1.391 . S
C254 C255 1.400 1_556 S
C255 C254 1.400 1_554 S
C255 C256 1.398 . S
C255 C261 1.491 . S
C256 H247 0.950 . S
C256 C255 1.398 . S
C256 C257 1.391 . S
C257 H245 0.950 . S
C257 C253 1.393 . S
C257 C256 1.391 . S
C258 H248 0.950 . S
C258 C259 1.386 . S
C258 C260 1.391 . S
C259 C258 1.386 . S
C259 C263 1.393 1_554 S
C260 H249 0.950 . S
C260 C258 1.391 . S
C260 C261 1.400 . S
C261 C255 1.491 . S
C261 C260 1.400 . S
C261 C262 1.398 1_554 S
C262 H250 0.950 . S
C262 C261 1.398 1_556 S
C262 C263 1.391 . S
C263 H251 0.950 . S
C263 C259 1.393 1_556 S
C263 C262 1.391 . S
H264 C272 0.950 . S
H265 C277 0.950 . S
H266 C274 0.950 . S
H267 C276 0.950 . S
H268 C278 0.950 . S
H269 C280 0.950 . S
H270 C282 0.950 . S
H271 C283 0.950 . S
C272 H264 0.950 . S
C272 C273 1.386 . S
C272 C274 1.391 . S
C273 C272 1.386 . S
C273 C277 1.393 1_554 S
C274 H266 0.950 . S
C274 C272 1.391 . S
C274 C275 1.400 . S
C275 C274 1.400 . S
C275 C276 1.398 1_554 S
C275 C281 1.491 . S
C276 H267 0.950 . S
C276 C275 1.398 1_556 S
C276 C277 1.391 . S
C277 H265 0.950 . S
C277 C273 1.393 1_556 S
C277 C276 1.391 . S
C278 H268 0.950 . S
C278 C279 1.386 1_556 S
C278 C280 1.391 . S
C279 C278 1.386 1_554 S
C279 C283 1.393 . S
C280 H269 0.950 . S
C280 C278 1.391 . S
C280 C281 1.400 1_556 S
C281 C275 1.491 . S
C281 C280 1.400 1_554 S
C281 C282 1.398 . S
C282 H270 0.950 . S
C282 C281 1.398 . S
C282 C283 1.391 . S
C283 H271 0.950 . S
C283 C279 1.393 . S
C283 C282 1.391 . S
H284 C292 0.950 . S
H285 C297 0.950 . S
H286 C294 0.950 . S
H287 C296 0.951 . S
H288 C298 0.950 . S
H289 C300 0.950 . S
H290 C302 0.950 . S
H291 C303 0.950 . S
C292 H284 0.950 . S
C292 C293 1.386 . S
C292 C294 1.391 . S
C293 C292 1.386 . S
C293 C297 1.393 . S
C294 H286 0.950 . S
C294 C292 1.391 . S
C294 C295 1.400 . S
C295 C294 1.400 . S
C295 C296 1.398 . S
C295 C301 1.491 . S
C296 H287 0.951 . S
C296 C295 1.398 . S
C296 C297 1.391 . S
C297 H285 0.950 . S
C297 C293 1.393 . S
C297 C296 1.391 . S
C298 H288 0.950 . S
C298 C299 1.386 . S
C298 C300 1.391 . S
C299 C298 1.386 . S
C299 C303 1.393 . S
C300 H289 0.950 . S
C300 C298 1.391 . S
C300 C301 1.400 . S
C301 C295 1.491 . S
C301 C300 1.400 . S
C301 C302 1.398 . S
C302 H290 0.950 . S
C302 C301 1.398 . S
C302 C303 1.391 . S
C303 H291 0.950 . S
C303 C299 1.393 . S
C303 C302 1.391 . S
H304 C312 0.950 . S
H305 C317 0.950 . S
H306 C314 0.950 . S
H307 C316 0.950 . S
H308 C318 0.950 . S
H309 C320 0.950 . S
H310 C322 0.950 . S
H311 C323 0.950 . S
C312 H304 0.950 . S
C312 C313 1.386 . S
C312 C314 1.391 . S
C313 C312 1.386 . S
C313 C317 1.393 . S
C314 H306 0.950 . S
C314 C312 1.391 . S
C314 C315 1.400 . S
C315 C314 1.400 . S
C315 C316 1.398 . S
C315 C321 1.491 1_545 S
C316 H307 0.950 . S
C316 C315 1.398 . S
C316 C317 1.391 . S
C317 H305 0.950 . S
C317 C313 1.393 . S
C317 C316 1.391 . S
C318 H308 0.950 . S
C318 C319 1.386 . S
C318 C320 1.391 . S
C319 C318 1.386 . S
C319 C323 1.393 . S
C320 H309 0.950 . S
C320 C318 1.391 . S
C320 C321 1.400 . S
C321 C315 1.491 1_565 S
C321 C320 1.400 . S
C321 C322 1.398 . S
C322 H310 0.950 . S
C322 C321 1.398 . S
C322 C323 1.391 . S
C323 H311 0.950 . S
C323 C319 1.393 . S
C323 C322 1.391 . S
H324 C332 0.950 . S
H325 C337 0.950 . S
H326 C334 0.950 . S
H327 C336 0.950 . S
H328 C338 0.950 . S
H329 C340 0.950 . S
H330 C342 0.950 . S
H331 C343 0.950 . S
C332 H324 0.950 . S
C332 C333 1.386 . S
C332 C334 1.391 . S
C333 C332 1.386 . S
C333 C337 1.393 . S
C334 H326 0.950 . S
C334 C332 1.391 . S
C334 C335 1.400 . S
C335 C334 1.400 . S
C335 C336 1.398 . S
C335 C341 1.491 1_655 S
C336 H327 0.950 . S
C336 C335 1.398 . S
C336 C337 1.391 . S
C337 H325 0.950 . S
C337 C333 1.393 . S
C337 C336 1.391 . S
C338 H328 0.950 . S
C338 C339 1.386 . S
C338 C340 1.391 . S
C339 C338 1.386 . S
C339 C343 1.393 . S
C340 H329 0.950 . S
C340 C338 1.391 . S
C340 C341 1.400 . S
C341 C335 1.491 1_455 S
C341 C340 1.400 . S
C341 C342 1.398 . S
C342 H330 0.950 . S
C342 C341 1.398 . S
C342 C343 1.391 . S
C343 H331 0.950 . S
C343 C339 1.393 . S
C343 C342 1.391 . S
H344 C352 0.950 . S
H345 C357 0.950 . S
H346 C354 0.950 . S
H347 C356 0.950 . S
H348 C358 0.950 . S
H349 C360 0.950 . S
H350 C362 0.950 . S
H351 C363 0.950 . S
C352 H344 0.950 . S
C352 C353 1.386 . S
C352 C354 1.391 . S
C353 C352 1.386 . S
C353 C357 1.393 . S
C354 H346 0.950 . S
C354 C352 1.391 . S
C354 C355 1.400 . S
C355 C354 1.400 . S
C355 C356 1.398 . S
C355 C361 1.491 1_545 S
C356 H347 0.950 . S
C356 C355 1.398 . S
C356 C357 1.391 . S
C357 H345 0.950 . S
C357 C353 1.393 . S
C357 C356 1.391 . S
C358 H348 0.950 . S
C358 C359 1.386 . S
C358 C360 1.391 . S
C359 C358 1.386 . S
C359 C363 1.393 . S
C360 H349 0.950 . S
C360 C358 1.391 . S
C360 C361 1.400 . S
C361 C355 1.491 1_565 S
C361 C360 1.400 . S
C361 C362 1.398 . S
C362 H350 0.950 . S
C362 C361 1.398 . S
C362 C363 1.391 . S
C363 H351 0.950 . S
C363 C359 1.393 . S
C363 C362 1.391 . S
H364 C372 0.950 . S
H365 C377 0.950 . S
H366 C374 0.950 . S
H367 C376 0.950 . S
H368 C378 0.950 . S
H369 C380 0.950 . S
H370 C382 0.950 . S
H371 C383 0.950 . S
C372 H364 0.950 . S
C372 C373 1.386 . S
C372 C374 1.391 . S
C373 C372 1.386 . S
C373 C377 1.393 . S
C374 H366 0.950 . S
C374 C372 1.391 . S
C374 C375 1.400 . S
C375 C374 1.400 . S
C375 C376 1.398 . S
C375 C381 1.491 1_455 S
C376 H367 0.950 . S
C376 C375 1.398 . S
C376 C377 1.391 . S
C377 H365 0.950 . S
C377 C373 1.393 . S
C377 C376 1.391 . S
C378 H368 0.950 . S
C378 C379 1.386 . S
C378 C380 1.391 . S
C379 C378 1.386 . S
C379 C383 1.393 . S
C380 H369 0.950 . S
C380 C378 1.391 . S
C380 C381 1.400 . S
C381 C375 1.491 1_655 S
C381 C380 1.400 . S
C381 C382 1.398 . S
C382 H370 0.950 . S
C382 C381 1.398 . S
C382 C383 1.391 . S
C383 H371 0.950 . S
C383 C379 1.393 . S
C383 C382 1.391 . S
H384 C392 0.950 . S
H385 C397 0.950 . S
H386 C394 0.950 . S
H387 C396 0.950 . S
H388 C398 0.950 . S
H389 C400 0.950 . S
H390 C402 0.950 . S
H391 C403 0.950 . S
C392 H384 0.950 . S
C392 C393 1.386 1_556 S
C392 C394 1.391 . S
C393 C392 1.386 1_554 S
C393 C397 1.393 . S
C394 H386 0.950 . S
C394 C392 1.391 . S
C394 C395 1.400 1_556 S
C395 C394 1.400 1_554 S
C395 C396 1.398 . S
C395 C401 1.491 . S
C396 H387 0.950 . S
C396 C395 1.398 . S
C396 C397 1.391 . S
C397 H385 0.950 . S
C397 C393 1.393 . S
C397 C396 1.391 . S
C398 H388 0.950 . S
C398 C399 1.386 . S
C398 C400 1.391 . S
C399 C398 1.386 . S
C399 C403 1.393 1_554 S
C400 H389 0.950 . S
C400 C398 1.391 . S
C400 C401 1.400 . S
C401 C395 1.491 . S
C401 C400 1.400 . S
C401 C402 1.398 1_554 S
C402 H390 0.950 . S
C402 C401 1.398 1_556 S
C402 C403 1.391 . S
C403 H391 0.950 . S
C403 C399 1.393 1_556 S
C403 C402 1.391 . S
H404 C412 0.950 . S
H405 C417 0.950 . S
H406 C414 0.950 . S
H407 C416 0.950 . S
H408 C418 0.950 . S
H409 C420 0.950 . S
H410 C422 0.950 . S
H411 C423 0.950 . S
C412 H404 0.950 . S
C412 C413 1.386 1_556 S
C412 C414 1.391 . S
C413 C412 1.386 1_554 S
C413 C417 1.393 . S
C414 H406 0.950 . S
C414 C412 1.391 . S
C414 C415 1.400 1_556 S
C415 C414 1.400 1_554 S
C415 C416 1.398 . S
C415 C421 1.491 . S
C416 H407 0.950 . S
C416 C415 1.398 . S
C416 C417 1.391 . S
C417 H405 0.950 . S
C417 C413 1.393 . S
C417 C416 1.391 . S
C418 H408 0.950 . S
C418 C419 1.386 . S
C418 C420 1.391 . S
C419 C418 1.386 . S
C419 C423 1.393 1_554 S
C420 H409 0.950 . S
C420 C418 1.391 . S
C420 C421 1.400 . S
C421 C415 1.491 . S
C421 C420 1.400 . S
C421 C422 1.398 1_554 S
C422 H410 0.950 . S
C422 C421 1.398 1_556 S
C422 C423 1.391 . S
C423 H411 0.950 . S
C423 C419 1.393 1_556 S
C423 C422 1.391 . S
H424 C432 0.950 . S
H425 C437 0.950 . S
H426 C434 0.950 . S
H427 C436 0.950 . S
H428 C438 0.950 . S
H429 C440 0.950 . S
H430 C442 0.950 . S
H431 C443 0.950 . S
C432 H424 0.950 . S
C432 C433 1.386 . S
C432 C434 1.391 . S
C433 C432 1.386 . S
C433 C437 1.393 1_554 S
C434 H426 0.950 . S
C434 C432 1.391 . S
C434 C435 1.400 . S
C435 C434 1.400 . S
C435 C436 1.398 1_554 S
C435 C441 1.491 . S
C436 H427 0.950 . S
C436 C435 1.398 1_556 S
C436 C437 1.391 . S
C437 H425 0.950 . S
C437 C433 1.393 1_556 S
C437 C436 1.391 . S
C438 H428 0.950 . S
C438 C439 1.386 1_556 S
C438 C440 1.391 . S
C439 C438 1.386 1_554 S
C439 C443 1.393 . S
C440 H429 0.950 . S
C440 C438 1.391 . S
C440 C441 1.400 1_556 S
C441 C435 1.491 . S
C441 C440 1.400 1_554 S
C441 C442 1.398 . S
C442 H430 0.950 . S
C442 C441 1.398 . S
C442 C443 1.391 . S
C443 H431 0.950 . S
C443 C439 1.393 . S
C443 C442 1.391 . S
H444 C452 0.950 . S
H445 C457 0.950 . S
H446 C454 0.950 . S
H447 C456 0.950 . S
H448 C458 0.950 . S
H449 C460 0.950 . S
H450 C462 0.950 . S
H451 C463 0.950 . S
C452 H444 0.950 . S
C452 C453 1.386 1_556 S
C452 C454 1.391 . S
C453 C452 1.386 1_554 S
C453 C457 1.393 . S
C454 H446 0.950 . S
C454 C452 1.391 . S
C454 C455 1.400 1_556 S
C455 C454 1.400 1_554 S
C455 C456 1.398 . S
C455 C461 1.491 . S
C456 H447 0.950 . S
C456 C455 1.398 . S
C456 C457 1.391 . S
C457 H445 0.950 . S
C457 C453 1.393 . S
C457 C456 1.391 . S
C458 H448 0.950 . S
C458 C459 1.386 . S
C458 C460 1.391 . S
C459 C458 1.386 . S
C459 C463 1.393 1_554 S
C460 H449 0.950 . S
C460 C458 1.391 . S
C460 C461 1.400 . S
C461 C455 1.491 . S
C461 C460 1.400 . S
C461 C462 1.398 1_554 S
C462 H450 0.950 . S
C462 C461 1.398 1_556 S
C462 C463 1.391 . S
C463 H451 0.950 . S
C463 C459 1.393 1_556 S
C463 C462 1.391 . S
H464 C472 0.950 . S
H465 C477 0.950 . S
H466 C474 0.950 . S
H467 C476 0.950 . S
H468 C478 0.950 . S
H469 C480 0.950 . S
H470 C482 0.950 . S
H471 C483 0.950 . S
C472 H464 0.950 . S
C472 C473 1.386 . S
C472 C474 1.391 . S
C473 C472 1.386 . S
C473 C477 1.393 . S
C474 H466 0.950 . S
C474 C472 1.391 . S
C474 C475 1.400 . S
C475 C474 1.400 . S
C475 C476 1.398 . S
C475 C481 1.491 . S
C476 H467 0.950 . S
C476 C475 1.398 . S
C476 C477 1.391 . S
C477 H465 0.950 . S
C477 C473 1.393 . S
C477 C476 1.391 . S
C478 H468 0.950 . S
C478 C479 1.386 . S
C478 C480 1.391 . S
C479 C478 1.386 . S
C479 C483 1.393 . S
C480 H469 0.950 . S
C480 C478 1.391 . S
C480 C481 1.400 . S
C481 C475 1.491 . S
C481 C480 1.400 . S
C481 C482 1.398 . S
C482 H470 0.950 . S
C482 C481 1.398 . S
C482 C483 1.391 . S
C483 H471 0.950 . S
C483 C479 1.393 . S
C483 C482 1.391 . S
H484 C492 0.950 . S
H485 C497 0.950 . S
H486 C494 0.950 . S
H487 C496 0.950 . S
H488 C498 0.950 . S
H489 C500 0.950 . S
H490 C502 0.950 . S
H491 C503 0.950 . S
C492 H484 0.950 . S
C492 C493 1.386 . S
C492 C494 1.391 . S
C493 C492 1.386 . S
C493 C497 1.393 . S
C494 H486 0.950 . S
C494 C492 1.391 . S
C494 C495 1.400 . S
C495 C494 1.400 . S
C495 C496 1.398 . S
C495 C501 1.491 . S
C496 H487 0.950 . S
C496 C495 1.398 . S
C496 C497 1.391 . S
C497 H485 0.950 . S
C497 C493 1.393 . S
C497 C496 1.391 . S
C498 H488 0.950 . S
C498 C499 1.386 . S
C498 C500 1.391 . S
C499 C498 1.386 . S
C499 C503 1.393 . S
C500 H489 0.950 . S
C500 C498 1.391 . S
C500 C501 1.400 . S
C501 C495 1.491 . S
C501 C500 1.400 . S
C501 C502 1.398 . S
C502 H490 0.950 . S
C502 C501 1.398 . S
C502 C503 1.391 . S
C503 H491 0.950 . S
C503 C499 1.393 . S
C503 C502 1.391 . S
H504 C512 0.950 . S
H505 C517 0.950 . S
H506 C514 0.950 . S
H507 C516 0.950 . S
H508 C518 0.950 . S
H509 C520 0.950 . S
H510 C522 0.950 . S
H511 C523 0.950 . S
C512 H504 0.950 . S
C512 C513 1.386 . S
C512 C514 1.391 . S
C513 C512 1.386 . S
C513 C517 1.393 . S
C514 H506 0.950 . S
C514 C512 1.391 . S
C514 C515 1.400 . S
C515 C514 1.400 . S
C515 C516 1.398 . S
C515 C521 1.491 . S
C516 H507 0.950 . S
C516 C515 1.398 . S
C516 C517 1.391 . S
C517 H505 0.950 . S
C517 C513 1.393 . S
C517 C516 1.391 . S
C518 H508 0.950 . S
C518 C519 1.386 . S
C518 C520 1.391 . S
C519 C518 1.386 . S
C519 C523 1.393 . S
C520 H509 0.950 . S
C520 C518 1.391 . S
C520 C521 1.400 . S
C521 C515 1.491 . S
C521 C520 1.400 . S
C521 C522 1.398 . S
C522 H510 0.950 . S
C522 C521 1.398 . S
C522 C523 1.391 . S
C523 H511 0.950 . S
C523 C519 1.393 . S
C523 C522 1.391 . S
H524 C532 0.950 . S
H525 C537 0.950 . S
H526 C534 0.950 . S
H527 C536 0.950 . S
H528 C538 0.950 . S
H529 C540 0.950 . S
H530 C542 0.950 . S
H531 C543 0.950 . S
C532 H524 0.950 . S
C532 C533 1.386 . S
C532 C534 1.391 . S
C533 C532 1.386 . S
C533 C537 1.393 . S
C534 H526 0.950 . S
C534 C532 1.391 . S
C534 C535 1.400 . S
C535 C534 1.400 . S
C535 C536 1.398 . S
C535 C541 1.491 . S
C536 H527 0.950 . S
C536 C535 1.398 . S
C536 C537 1.391 . S
C537 H525 0.950 . S
C537 C533 1.393 . S
C537 C536 1.391 . S
C538 H528 0.950 . S
C538 C539 1.386 . S
C538 C540 1.391 . S
C539 C538 1.386 . S
C539 C543 1.393 . S
C540 H529 0.950 . S
C540 C538 1.391 . S
C540 C541 1.400 . S
C541 C535 1.491 . S
C541 C540 1.400 . S
C541 C542 1.398 . S
C542 H530 0.950 . S
C542 C541 1.398 . S
C542 C543 1.391 . S
C543 H531 0.950 . S
C543 C539 1.393 . S
C543 C542 1.391 . S
H544 C552 0.950 . S
H545 C557 0.950 . S
H546 C554 0.950 . S
H547 C556 0.950 . S
H548 C558 0.950 . S
H549 C560 0.950 . S
H550 C562 0.950 . S
H551 C563 0.950 . S
C552 H544 0.950 . S
C552 C553 1.386 . S
C552 C554 1.391 . S
C553 C552 1.386 . S
C553 C557 1.393 . S
C554 H546 0.950 . S
C554 C552 1.391 . S
C554 C555 1.400 . S
C555 C554 1.400 . S
C555 C556 1.398 . S
C555 C561 1.491 . S
C556 H547 0.950 . S
C556 C555 1.398 . S
C556 C557 1.391 . S
C557 H545 0.950 . S
C557 C553 1.393 . S
C557 C556 1.391 . S
C558 H548 0.950 . S
C558 C559 1.386 . S
C558 C560 1.391 . S
C559 C558 1.386 . S
C559 C563 1.393 . S
C560 H549 0.950 . S
C560 C558 1.391 . S
C560 C561 1.400 . S
C561 C555 1.491 . S
C561 C560 1.400 . S
C561 C562 1.398 . S
C562 H550 0.950 . S
C562 C561 1.398 . S
C562 C563 1.391 . S
C563 H551 0.950 . S
C563 C559 1.393 . S
C563 C562 1.391 . S
H564 C572 0.950 . S
H565 C577 0.950 . S
H566 C574 0.950 . S
H567 C576 0.950 . S
H568 C578 0.950 . S
H569 C580 0.950 . S
H570 C582 0.950 . S
H571 C583 0.950 . S
C572 H564 0.950 . S
C572 C573 1.386 . S
C572 C574 1.391 . S
C573 C572 1.386 . S
C573 C577 1.393 . S
C574 H566 0.950 . S
C574 C572 1.391 . S
C574 C575 1.400 . S
C575 C574 1.400 . S
C575 C576 1.398 . S
C575 C581 1.491 . S
C576 H567 0.950 . S
C576 C575 1.398 . S
C576 C577 1.391 . S
C577 H565 0.950 . S
C577 C573 1.393 . S
C577 C576 1.391 . S
C578 H568 0.950 . S
C578 C579 1.386 . S
C578 C580 1.391 . S
C579 C578 1.386 . S
C579 C583 1.393 . S
C580 H569 0.950 . S
C580 C578 1.391 . S
C580 C581 1.400 . S
C581 C575 1.491 . S
C581 C580 1.400 . S
C581 C582 1.398 . S
C582 H570 0.950 . S
C582 C581 1.398 . S
C582 C583 1.391 . S
C583 H571 0.950 . S
C583 C579 1.393 . S
C583 C582 1.391 . S
H584 C592 0.950 . S
H585 C597 0.950 . S
H586 C594 0.950 . S
H587 C596 0.950 . S
H588 C598 0.950 . S
H589 C600 0.950 . S
H590 C602 0.950 . S
H591 C603 0.950 . S
C592 H584 0.950 . S
C592 C593 1.386 . S
C592 C594 1.391 . S
C593 C592 1.386 . S
C593 C597 1.393 . S
C594 H586 0.950 . S
C594 C592 1.391 . S
C594 C595 1.400 . S
C595 C594 1.400 . S
C595 C596 1.398 . S
C595 C601 1.491 . S
C596 H587 0.950 . S
C596 C595 1.398 . S
C596 C597 1.391 . S
C597 H585 0.950 . S
C597 C593 1.393 . S
C597 C596 1.391 . S
C598 H588 0.950 . S
C598 C599 1.386 . S
C598 C600 1.391 . S
C599 C598 1.386 . S
C599 C603 1.393 . S
C600 H589 0.950 . S
C600 C598 1.391 . S
C600 C601 1.400 . S
C601 C595 1.491 . S
C601 C600 1.400 . S
C601 C602 1.398 . S
C602 H590 0.950 . S
C602 C601 1.398 . S
C602 C603 1.391 . S
C603 H591 0.950 . S
C603 C599 1.393 . S
C603 C602 1.391 . S
H604 C612 0.950 . S
H605 C617 0.950 . S
H606 C614 0.950 . S
H607 C616 0.950 . S
H608 C618 0.950 . S
H609 C620 0.950 . S
H610 C622 0.950 . S
H611 C623 0.950 . S
C612 H604 0.950 . S
C612 C613 1.386 . S
C612 C614 1.391 . S
C613 C612 1.386 . S
C613 C617 1.393 . S
C614 H606 0.950 . S
C614 C612 1.391 . S
C614 C615 1.400 . S
C615 C614 1.400 . S
C615 C616 1.398 . S
C615 C621 1.491 . S
C616 H607 0.950 . S
C616 C615 1.398 . S
C616 C617 1.391 . S
C617 H605 0.950 . S
C617 C613 1.393 . S
C617 C616 1.391 . S
C618 H608 0.950 . S
C618 C619 1.386 . S
C618 C620 1.391 . S
C619 C618 1.386 . S
C619 C623 1.393 . S
C620 H609 0.950 . S
C620 C618 1.391 . S
C620 C621 1.400 . S
C621 C615 1.491 . S
C621 C620 1.400 . S
C621 C622 1.398 . S
C622 H610 0.950 . S
C622 C621 1.398 . S
C622 C623 1.391 . S
C623 H611 0.950 . S
C623 C619 1.393 . S
C623 C622 1.391 . S
H624 C632 0.950 . S
H625 C637 0.950 . S
H626 C634 0.950 . S
H627 C636 0.950 . S
H628 C638 0.950 . S
H629 C640 0.950 . S
H630 C642 0.950 . S
H631 C643 0.950 . S
C632 H624 0.950 . S
C632 C633 1.386 . S
C632 C634 1.391 . S
C633 C632 1.386 . S
C633 C637 1.393 . S
C634 H626 0.950 . S
C634 C632 1.391 . S
C634 C635 1.400 . S
C635 C634 1.400 . S
C635 C636 1.398 . S
C635 C641 1.491 . S
C636 H627 0.950 . S
C636 C635 1.398 . S
C636 C637 1.391 . S
C637 H625 0.950 . S
C637 C633 1.393 . S
C637 C636 1.391 . S
C638 H628 0.950 . S
C638 C639 1.386 . S
C638 C640 1.391 . S
C639 C638 1.386 . S
C639 C643 1.393 . S
C640 H629 0.950 . S
C640 C638 1.391 . S
C640 C641 1.400 . S
C641 C635 1.491 . S
C641 C640 1.400 . S
C641 C642 1.398 . S
C642 H630 0.950 . S
C642 C641 1.398 . S
C642 C643 1.391 . S
C643 H631 0.950 . S
C643 C639 1.393 . S
C643 C642 1.391 . S
H644 C652 0.950 . S
H645 C657 0.950 . S
H646 C654 0.950 . S
H647 C656 0.950 . S
H648 C658 0.950 . S
H649 C660 0.950 . S
H650 C662 0.950 . S
H651 C663 0.950 . S
C652 H644 0.950 . S
C652 C653 1.386 . S
C652 C654 1.391 . S
C653 C652 1.386 . S
C653 C657 1.393 . S
C654 H646 0.950 . S
C654 C652 1.391 . S
C654 C655 1.400 . S
C655 C654 1.400 . S
C655 C656 1.398 . S
C655 C661 1.491 . S
C656 H647 0.950 . S
C656 C655 1.398 . S
C656 C657 1.391 . S
C657 H645 0.950 . S
C657 C653 1.393 . S
C657 C656 1.391 . S
C658 H648 0.950 . S
C658 C659 1.386 . S
C658 C660 1.391 . S
C659 C658 1.386 . S
C659 C663 1.393 . S
C660 H649 0.950 . S
C660 C658 1.391 . S
C660 C661 1.400 . S
C661 C655 1.491 . S
C661 C660 1.400 . S
C661 C662 1.398 . S
C662 H650 0.950 . S
C662 C661 1.398 . S
C662 C663 1.391 . S
C663 H651 0.950 . S
C663 C659 1.393 . S
C663 C662 1.391 . S
H664 C672 0.950 . S
H665 C677 0.950 . S
H666 C674 0.950 . S
H667 C676 0.950 . S
H668 C678 0.950 . S
H669 C680 0.950 . S
H670 C682 0.950 . S
H671 C683 0.950 . S
C672 H664 0.950 . S
C672 C673 1.386 . S
C672 C674 1.391 . S
C673 C672 1.386 . S
C673 C677 1.393 . S
C674 H666 0.950 . S
C674 C672 1.391 . S
C674 C675 1.400 . S
C675 C674 1.400 . S
C675 C676 1.398 . S
C675 C681 1.491 . S
C676 H667 0.950 . S
C676 C675 1.398 . S
C676 C677 1.391 . S
C677 H665 0.950 . S
C677 C673 1.393 . S
C677 C676 1.391 . S
C678 H668 0.950 . S
C678 C679 1.386 . S
C678 C680 1.391 . S
C679 C678 1.386 . S
C679 C683 1.393 . S
C680 H669 0.950 . S
C680 C678 1.391 . S
C680 C681 1.400 . S
C681 C675 1.491 . S
C681 C680 1.400 . S
C681 C682 1.398 . S
C682 H670 0.950 . S
C682 C681 1.398 . S
C682 C683 1.391 . S
C683 H671 0.950 . S
C683 C679 1.393 . S
C683 C682 1.391 . S
H684 C692 0.950 . S
H685 C697 0.950 . S
H686 C694 0.950 . S
H687 C696 0.950 . S
H688 C698 0.950 . S
H689 C700 0.950 . S
H690 C702 0.950 . S
H691 C703 0.950 . S
C692 H684 0.950 . S
C692 C693 1.386 . S
C692 C694 1.391 . S
C693 C692 1.386 . S
C693 C697 1.393 . S
C694 H686 0.950 . S
C694 C692 1.391 . S
C694 C695 1.400 . S
C695 C694 1.400 . S
C695 C696 1.398 . S
C695 C701 1.491 . S
C696 H687 0.950 . S
C696 C695 1.398 . S
C696 C697 1.391 . S
C697 H685 0.950 . S
C697 C693 1.393 . S
C697 C696 1.391 . S
C698 H688 0.950 . S
C698 C699 1.386 . S
C698 C700 1.391 . S
C699 C698 1.386 . S
C699 C703 1.393 . S
C700 H689 0.950 . S
C700 C698 1.391 . S
C700 C701 1.400 . S
C701 C695 1.491 . S
C701 C700 1.400 . S
C701 C702 1.398 . S
C702 H690 0.950 . S
C702 C701 1.398 . S
C702 C703 1.391 . S
C703 H691 0.950 . S
C703 C699 1.393 . S
C703 C702 1.391 . S
H704 C712 0.950 . S
H705 C717 0.950 . S
H706 C714 0.950 . S
H707 C716 0.950 . S
H708 C718 0.950 . S
H709 C720 0.950 . S
H710 C722 0.950 . S
H711 C723 0.950 . S
C712 H704 0.950 . S
C712 C713 1.386 . S
C712 C714 1.391 . S
C713 C712 1.386 . S
C713 C717 1.393 . S
C714 H706 0.950 . S
C714 C712 1.391 . S
C714 C715 1.400 . S
C715 C714 1.400 . S
C715 C716 1.398 . S
C715 C721 1.491 . S
C716 H707 0.950 . S
C716 C715 1.398 . S
C716 C717 1.391 . S
C717 H705 0.950 . S
C717 C713 1.393 . S
C717 C716 1.391 . S
C718 H708 0.950 . S
C718 C719 1.386 . S
C718 C720 1.391 . S
C719 C718 1.386 . S
C719 C723 1.393 . S
C720 H709 0.950 . S
C720 C718 1.391 . S
C720 C721 1.400 . S
C721 C715 1.491 . S
C721 C720 1.400 . S
C721 C722 1.398 . S
C722 H710 0.950 . S
C722 C721 1.398 . S
C722 C723 1.391 . S
C723 H711 0.950 . S
C723 C719 1.393 . S
C723 C722 1.391 . S
H724 C732 0.950 . S
H725 C737 0.950 . S
H726 C734 0.950 . S
H727 C736 0.950 . S
H728 C738 0.950 . S
H729 C740 0.950 . S
H730 C742 0.950 . S
H731 C743 0.950 . S
C732 H724 0.950 . S
C732 C733 1.386 . S
C732 C734 1.391 . S
C733 C732 1.386 . S
C733 C737 1.393 . S
C734 H726 0.950 . S
C734 C732 1.391 . S
C734 C735 1.400 . S
C735 C734 1.400 . S
C735 C736 1.398 . S
C735 C741 1.491 . S
C736 H727 0.950 . S
C736 C735 1.398 . S
C736 C737 1.391 . S
C737 H725 0.950 . S
C737 C733 1.393 . S
C737 C736 1.391 . S
C738 H728 0.950 . S
C738 C739 1.386 . S
C738 C740 1.391 . S
C739 C738 1.386 . S
C739 C743 1.393 . S
C740 H729 0.950 . S
C740 C738 1.391 . S
C740 C741 1.400 . S
C741 C735 1.491 . S
C741 C740 1.400 . S
C741 C742 1.398 . S
C742 H730 0.950 . S
C742 C741 1.398 . S
C742 C743 1.391 . S
C743 H731 0.950 . S
C743 C739 1.393 . S
C743 C742 1.391 . S
H744 C752 0.950 . S
H745 C757 0.950 . S
H746 C754 0.950 . S
H747 C756 0.950 . S
H748 C758 0.950 . S
H749 C760 0.950 . S
H750 C762 0.950 . S
H751 C763 0.950 . S
C752 H744 0.950 . S
C752 C753 1.386 . S
C752 C754 1.391 . S
C753 C752 1.386 . S
C753 C757 1.393 . S
C754 H746 0.950 . S
C754 C752 1.391 . S
C754 C755 1.400 . S
C755 C754 1.400 . S
C755 C756 1.398 . S
C755 C761 1.491 . S
C756 H747 0.950 . S
C756 C755 1.398 . S
C756 C757 1.391 . S
C757 H745 0.950 . S
C757 C753 1.393 . S
C757 C756 1.391 . S
C758 H748 0.950 . S
C758 C759 1.386 . S
C758 C760 1.391 . S
C759 C758 1.386 . S
C759 C763 1.393 . S
C760 H749 0.950 . S
C760 C758 1.391 . S
C760 C761 1.400 . S
C761 C755 1.491 . S
C761 C760 1.400 . S
C761 C762 1.398 . S
C762 H750 0.950 . S
C762 C761 1.398 . S
C762 C763 1.391 . S
C763 H751 0.950 . S
C763 C759 1.393 . S
C763 C762 1.391 . S
H764 C772 0.950 . S
H765 C777 0.950 . S
H766 C774 0.950 . S
H767 C776 0.950 . S
H768 C778 0.950 . S
H769 C780 0.950 . S
H770 C782 0.950 . S
H771 C783 0.950 . S
C772 H764 0.950 . S
C772 C773 1.386 . S
C772 C774 1.391 . S
C773 C772 1.386 . S
C773 C777 1.393 . S
C774 H766 0.950 . S
C774 C772 1.391 . S
C774 C775 1.400 . S
C775 C774 1.400 . S
C775 C776 1.398 . S
C775 C781 1.491 . S
C776 H767 0.950 . S
C776 C775 1.398 . S
C776 C777 1.391 . S
C777 H765 0.950 . S
C777 C773 1.393 . S
C777 C776 1.391 . S
C778 H768 0.950 . S
C778 C779 1.386 . S
C778 C780 1.391 . S
C779 C778 1.386 . S
C779 C783 1.393 . S
C780 H769 0.950 . S
C780 C778 1.391 . S
C780 C781 1.400 . S
C781 C775 1.491 . S
C781 C780 1.400 . S
C781 C782 1.398 . S
C782 H770 0.950 . S
C782 C781 1.398 . S
C782 C783 1.391 . S
C783 H771 0.950 . S
C783 C779 1.393 . S
C783 C782 1.391 . S
H784 C792 0.950 . S
H785 C797 0.950 . S
H786 C794 0.950 . S
H787 C796 0.950 . S
H788 C798 0.950 . S
H789 C800 0.950 . S
H790 C802 0.950 . S
H791 C803 0.950 . S
C792 H784 0.950 . S
C792 C793 1.386 . S
C792 C794 1.391 . S
C793 C792 1.386 . S
C793 C797 1.393 . S
C794 H786 0.950 . S
C794 C792 1.391 . S
C794 C795 1.400 . S
C795 C794 1.400 . S
C795 C796 1.398 . S
C795 C801 1.491 . S
C796 H787 0.950 . S
C796 C795 1.398 . S
C796 C797 1.391 . S
C797 H785 0.950 . S
C797 C793 1.393 . S
C797 C796 1.391 . S
C798 H788 0.950 . S
C798 C799 1.386 . S
C798 C800 1.391 . S
C799 C798 1.386 . S
C799 C803 1.393 . S
C800 H789 0.950 . S
C800 C798 1.391 . S
C800 C801 1.400 . S
C801 C795 1.491 . S
C801 C800 1.400 . S
C801 C802 1.398 . S
C802 H790 0.950 . S
C802 C801 1.398 . S
C802 C803 1.391 . S
C803 H791 0.950 . S
C803 C799 1.393 . S
C803 C802 1.391 . S
H804 C812 0.950 . S
H805 C817 0.950 . S
H806 C814 0.950 . S
H807 C816 0.950 . S
H808 C818 0.950 . S
H809 C820 0.950 . S
H810 C822 0.950 . S
H811 C823 0.950 . S
C812 H804 0.950 . S
C812 C813 1.386 . S
C812 C814 1.391 . S
C813 C812 1.386 . S
C813 C817 1.393 . S
C814 H806 0.950 . S
C814 C812 1.391 . S
C814 C815 1.400 . S
C815 C814 1.400 . S
C815 C816 1.398 . S
C815 C821 1.491 . S
C816 H807 0.950 . S
C816 C815 1.398 . S
C816 C817 1.391 . S
C817 H805 0.950 . S
C817 C813 1.393 . S
C817 C816 1.391 . S
C818 H808 0.950 . S
C818 C819 1.386 . S
C818 C820 1.391 . S
C819 C818 1.386 . S
C819 C823 1.393 . S
C820 H809 0.950 . S
C820 C818 1.391 . S
C820 C821 1.400 . S
C821 C815 1.491 . S
C821 C820 1.400 . S
C821 C822 1.398 . S
C822 H810 0.950 . S
C822 C821 1.398 . S
C822 C823 1.391 . S
C823 H811 0.950 . S
C823 C819 1.393 . S
C823 C822 1.391 . S
H824 C832 0.950 . S
H825 C837 0.950 . S
H826 C834 0.950 . S
H827 C836 0.950 . S
H828 C838 0.950 . S
H829 C840 0.950 . S
H830 C842 0.950 . S
H831 C843 0.950 . S
C832 H824 0.950 . S
C832 C833 1.386 . S
C832 C834 1.391 . S
C833 C832 1.386 . S
C833 C837 1.393 . S
C834 H826 0.950 . S
C834 C832 1.391 . S
C834 C835 1.400 . S
C835 C834 1.400 . S
C835 C836 1.398 . S
C835 C841 1.491 . S
C836 H827 0.950 . S
C836 C835 1.398 . S
C836 C837 1.391 . S
C837 H825 0.950 . S
C837 C833 1.393 . S
C837 C836 1.391 . S
C838 H828 0.950 . S
C838 C839 1.386 . S
C838 C840 1.391 . S
C839 C838 1.386 . S
C839 C843 1.393 . S
C840 H829 0.950 . S
C840 C838 1.391 . S
C840 C841 1.400 . S
C841 C835 1.491 . S
C841 C840 1.400 . S
C841 C842 1.398 . S
C842 H830 0.950 . S
C842 C841 1.398 . S
C842 C843 1.391 . S
C843 H831 0.950 . S
C843 C839 1.393 . S
C843 C842 1.391 . S
H844 C852 0.950 . S
H845 C857 0.950 . S
H846 C854 0.950 . S
H847 C856 0.950 . S
H848 C858 0.950 . S
H849 C860 0.950 . S
H850 C862 0.950 . S
H851 C863 0.950 . S
C852 H844 0.950 . S
C852 C853 1.386 . S
C852 C854 1.391 . S
C853 C852 1.386 . S
C853 C857 1.393 . S
C854 H846 0.950 . S
C854 C852 1.391 . S
C854 C855 1.400 . S
C855 C854 1.400 . S
C855 C856 1.398 . S
C855 C861 1.491 . S
C856 H847 0.950 . S
C856 C855 1.398 . S
C856 C857 1.391 . S
C857 H845 0.950 . S
C857 C853 1.393 . S
C857 C856 1.391 . S
C858 H848 0.950 . S
C858 C859 1.386 . S
C858 C860 1.391 . S
C859 C858 1.386 . S
C859 C863 1.393 . S
C860 H849 0.950 . S
C860 C858 1.391 . S
C860 C861 1.400 . S
C861 C855 1.491 . S
C861 C860 1.400 . S
C861 C862 1.398 . S
C862 H850 0.950 . S
C862 C861 1.398 . S
C862 C863 1.391 . S
C863 H851 0.950 . S
C863 C859 1.393 . S
C863 C862 1.391 . S
C233 C67 1.402 . S
C239 C11 1.405 . S
C253 C81 1.402 . S
C259 C25 1.407 . S
C273 C95 1.407 . S
C279 C39 1.402 . S
C293 C109 1.403 . S
C299 C53 1.404 . S
C313 C179 1.404 . S
C319 C123 1.406 . S
C333 C193 1.405 . S
C339 C137 1.406 . S
C353 C151 1.404 . S
C359 C207 1.407 . S
C373 C221 1.402 . S
C379 C165 1.405 . S
C393 C5 1.469 . S
C399 C75 1.465 . S
C413 C89 1.465 . S
C419 C19 1.469 . S
C433 C33 1.464 . S
C439 C103 1.469 . S
C453 C61 1.464 . S
C459 C47 1.469 . S
C473 C187 1.469 . S
C479 C117 1.464 . S
C493 C201 1.465 . S
C499 C131 1.468 . S
C513 C145 1.464 . S
C519 C215 1.469 . S
C533 C159 1.464 . S
C539 C173 1.469 . S
C553 C219 1.443 . S
C559 C9 1.439 . S
C573 C177 1.449 . S
C579 C23 1.447 . S
C593 C191 1.438 . S
C599 C37 1.440 . S
C613 C205 1.447 . S
C619 C51 1.443 . S
C633 C135 1.438 . S
C639 C65 1.440 . S
C653 C149 1.443 . S
C659 C79 1.440 . S
C673 C93 1.447 . S
C679 C163 1.443 . S
C693 C107 1.439 . S
C699 C121 1.439 . S
C713 C182 1.365 . S
C719 C28 1.359 . S
C733 C196 1.370 . S
C739 C42 1.357 . S
C753 C210 1.357 . S
C759 C0 1.369 . S
C773 C14 1.361 . S
C779 C168 1.369 . S
C793 C154 1.369 . S
C799 C84 1.361 . S
C813 C98 1.357 . S
C819 C112 1.369 . S
C833 C126 1.360 . S
C839 C56 1.365 . S
C853 C140 1.370 . S
C859 C70 1.359 . S
