# Generated by pormake.
# Topology ukg, (4)-cn, num edge types: 1
# Building blocks:
#     Node 0, Type 0, BuildingBlock: CEKHIL_clean_sbu_0, # of connection points: 4
#     Node 1, Type 0, BuildingBlock: CEKHIL_clean_sbu_0, # of connection points: 4
#     Node 2, Type 0, BuildingBlock: CEKHIL_clean_sbu_0, # of connection points: 4
#     Node 3, Type 0, BuildingBlock: CEKHIL_clean_sbu_0, # of connection points: 4
#     Node 4, Type 0, BuildingBlock: CEKHIL_clean_sbu_0, # of connection points: 4
#     Node 5, Type 0, BuildingBlock: CEKHIL_clean_sbu_0, # of connection points: 4
#     Node 6, Type 0, BuildingBlock: CEKHIL_clean_sbu_0, # of connection points: 4
#     Node 7, Type 0, BuildingBlock: CEKHIL_clean_sbu_0, # of connection points: 4
#     Edge 8, Type (0, 0), BuildingBlock: AJUNOK_clean_linker_0, # of connection points: 2
#     Edge 9, Type (0, 0), BuildingBlock: AJUNOK_clean_linker_0, # of connection points: 2
#     Edge 10, Type (0, 0), BuildingBlock: AJUNOK_clean_linker_0, # of connection points: 2
#     Edge 11, Type (0, 0), BuildingBlock: AJUNOK_clean_linker_0, # of connection points: 2
#     Edge 12, Type (0, 0), BuildingBlock: AJUNOK_clean_linker_0, # of connection points: 2
#     Edge 13, Type (0, 0), BuildingBlock: AJUNOK_clean_linker_0, # of connection points: 2
#     Edge 14, Type (0, 0), BuildingBlock: AJUNOK_clean_linker_0, # of connection points: 2
#     Edge 15, Type (0, 0), BuildingBlock: AJUNOK_clean_linker_0, # of connection points: 2
#     Edge 16, Type (0, 0), BuildingBlock: AJUNOK_clean_linker_0, # of connection points: 2
#     Edge 17, Type (0, 0), BuildingBlock: AJUNOK_clean_linker_0, # of connection points: 2
#     Edge 18, Type (0, 0), BuildingBlock: AJUNOK_clean_linker_0, # of connection points: 2
#     Edge 19, Type (0, 0), BuildingBlock: AJUNOK_clean_linker_0, # of connection points: 2
#     Edge 20, Type (0, 0), BuildingBlock: AJUNOK_clean_linker_0, # of connection points: 2
#     Edge 21, Type (0, 0), BuildingBlock: AJUNOK_clean_linker_0, # of connection points: 2
#     Edge 22, Type (0, 0), BuildingBlock: AJUNOK_clean_linker_0, # of connection points: 2
#     Edge 23, Type (0, 0), BuildingBlock: AJUNOK_clean_linker_0, # of connection points: 2
# Relax obj value: 0.122
# Max RMSD: 0.207
# Mean RMSD: 0.201
data_MOF--net-ukg--node1-CEKHIL_clean_sbu_0--edge1-AJUNOK_clean_linker_0
_symmetry_space_group_name_H-M    P1
_symmetry_Int_Tables_number       1
_symmetry_cell_setting            triclinic
loop_
_symmetry_equiv_pos_as_xyz
'x, y, z'
_cell_length_a     22.161142
_cell_length_b     21.689791
_cell_length_c     27.659702
_cell_angle_alpha  90.086974
_cell_angle_beta   90.096229
_cell_angle_gamma 89.70137
loop_
_atom_site_label
_atom_site_type_symbol
_atom_site_fract_x
_atom_site_fract_y
_atom_site_fract_z
_atom_type_partial_charge
Co0 Co 0.03733 0.61537 0.15885 0.0
O1 O 0.07179 0.54067 0.13347 0.0
O2 O 0.04809 0.62137 0.08871 0.0
C3 C 0.96132 0.57143 0.20093 0.0
O4 O 0.99913 0.69909 0.17615 0.0
Co5 Co 0.04425 0.6276 0.27171 0.0
O6 O 0.98652 0.69465 0.25729 0.0
C7 C 0.14558 0.67252 0.21144 0.0
C8 C 0.06655 0.56423 0.09082 0.0
C9 C 0.9785 0.72084 0.2165 0.0
O10 O 0.11991 0.6525 0.17255 0.0
O11 O 0.12417 0.66333 0.25379 0.0
O12 O 0.95738 0.57983 0.15483 0.0
O13 O 0.01482 0.57934 0.21862 0.0
Co14 Co 0.35268 0.50171 0.63478 0.0
O15 O 0.42901 0.52023 0.60513 0.0
O16 O 0.35456 0.47405 0.56723 0.0
C17 C 0.39176 0.45878 0.7018 0.0
O18 O 0.269 0.47254 0.65735 0.0
Co19 Co 0.32387 0.56941 0.73154 0.0
O20 O 0.25238 0.51526 0.7308 0.0
C21 C 0.31212 0.63632 0.64016 0.0
C22 C 0.41042 0.49283 0.56644 0.0
C23 C 0.2369 0.47997 0.69606 0.0
O24 O 0.31854 0.58569 0.61618 0.0
O25 O 0.31999 0.64042 0.68582 0.0
O26 O 0.3869 0.42696 0.66238 0.0
O27 O 0.3805 0.51701 0.69802 0.0
Co28 Co 0.46572 0.894 0.16725 0.0
O29 O 0.43382 0.9716 0.1449 0.0
O30 O 0.4593 0.89496 0.09661 0.0
C31 C 0.53781 0.93639 0.21543 0.0
O32 O 0.50183 0.80831 0.17906 0.0
Co33 Co 0.45466 0.86795 0.27801 0.0
O34 O 0.50561 0.79664 0.26023 0.0
C35 C 0.35225 0.83856 0.21285 0.0
C36 C 0.44156 0.95208 0.10116 0.0
C37 C 0.51639 0.77791 0.2174 0.0
O38 O 0.38188 0.85737 0.17553 0.0
O39 O 0.37197 0.84385 0.25622 0.0
O40 O 0.54608 0.92927 0.16953 0.0
O41 O 0.48386 0.92453 0.23031 0.0
Co42 Co 0.15746 0.99541 0.6424 0.0
O43 O 0.08023 0.98046 0.61273 0.0
O44 O 0.15593 0.02487 0.57537 0.0
C45 C 0.1206 0.03741 0.71051 0.0
O46 O 0.24228 0.021 0.66523 0.0
Co47 Co 0.18511 0.92394 0.73754 0.0
O48 O 0.25646 0.97835 0.73895 0.0
C49 C 0.19412 0.85947 0.64463 0.0
C50 C 0.09952 0.00787 0.57439 0.0
C51 C 0.27356 0.01288 0.70435 0.0
O52 O 0.18849 0.91094 0.6218 0.0
O53 O 0.18727 0.85421 0.69031 0.0
O54 O 0.12642 0.07048 0.67188 0.0
O55 O 0.12961 0.97895 0.70532 0.0
Co56 Co 0.9834 0.29213 0.87519 0.0
O57 O 0.92589 0.2554 0.91862 0.0
O58 O 0.90339 0.32918 0.86682 0.0
C59 C 0.01866 0.20013 0.84857 0.0
O60 O 0.03217 0.33694 0.82225 0.0
Co61 Co 0.1201 0.26797 0.89108 0.0
O62 O 0.12458 0.29335 0.82266 0.0
C63 C 0.05946 0.3676 0.94706 0.0
C64 C 0.88461 0.2882 0.8977 0.0
C65 C 0.08448 0.32702 0.80277 0.0
O66 O 0.00894 0.35643 0.92525 0.0
O67 O 0.10724 0.33542 0.93983 0.0
O68 O 0.96999 0.22427 0.83082 0.0
O69 O 0.04224 0.22969 0.88458 0.0
Co70 Co 0.62164 0.47093 0.33182 0.0
O71 O 0.54833 0.44133 0.36106 0.0
O72 O 0.63016 0.4656 0.40191 0.0
C73 C 0.5777 0.54536 0.28633 0.0
O74 O 0.70425 0.50511 0.31176 0.0
Co75 Co 0.63205 0.45691 0.21921 0.0
O76 O 0.70042 0.51325 0.23032 0.0
C77 C 0.67873 0.35824 0.28432 0.0
C78 C 0.57333 0.45023 0.40274 0.0
C79 C 0.72662 0.5222 0.2708 0.0
O80 O 0.65604 0.38484 0.32198 0.0
O81 O 0.67086 0.37831 0.24122 0.0
O82 O 0.58874 0.55392 0.33171 0.0
O83 O 0.5848 0.48927 0.27144 0.0
Co84 Co 0.53172 0.21075 0.87616 0.0
O85 O 0.5904 0.25139 0.91667 0.0
O86 O 0.61101 0.17162 0.87001 0.0
C87 C 0.49668 0.29939 0.84318 0.0
O88 O 0.48166 0.16088 0.82675 0.0
Co89 Co 0.39582 0.23734 0.89145 0.0
O90 O 0.39053 0.20695 0.82415 0.0
C91 C 0.45636 0.14468 0.9537 0.0
C92 C 0.6309 0.2153 0.8982 0.0
C93 C 0.42948 0.16985 0.80667 0.0
O94 O 0.5063 0.15248 0.93039 0.0
O95 O 0.40866 0.17644 0.94509 0.0
O96 O 0.5452 0.27292 0.82728 0.0
O97 O 0.47358 0.27478 0.88153 0.0
Co98 Co 0.88513 0.03255 0.33932 0.0
O99 O 0.96285 0.05114 0.36711 0.0
O100 O 0.8796 0.04125 0.40955 0.0
C101 C 0.91644 0.95183 0.29385 0.0
O102 O 0.79765 0.01204 0.32066 0.0
Co103 Co 0.87594 0.04698 0.22644 0.0
O104 O 0.79576 0.01086 0.23883 0.0
C105 C 0.84913 0.15353 0.29091 0.0
C106 C 0.938 0.04869 0.40928 0.0
C107 C 0.77006 0.00491 0.27981 0.0
O108 O 0.86408 0.12258 0.32891 0.0
O109 O 0.85503 0.1327 0.24779 0.0
O110 O 0.90497 0.94533 0.3394 0.0
O111 O 0.91756 0.00809 0.27885 0.0
C112 C 0.02011 0.46837 0.98206 0.0
C113 C 0.0641 0.421 0.98149 0.0
C114 C 0.0239 0.51839 0.01467 0.0
C115 C 0.07153 0.52273 0.04825 0.0
H116 H 0.98191 0.46641 0.95764 0.0
H117 H 0.98751 0.55191 0.01545 0.0
S118 S 0.20024 0.41414 0.06052 0.0
N119 N 0.15891 0.38467 0.0166 0.0
N120 N 0.16476 0.47757 0.07761 0.0
C121 C 0.11667 0.47718 0.04702 0.0
C122 C 0.11331 0.42672 0.01379 0.0
C123 C 0.43301 0.45193 0.48274 0.0
C124 C 0.45315 0.47986 0.5257 0.0
C125 C 0.47293 0.43958 0.44429 0.0
C126 C 0.53494 0.4542 0.4471 0.0
H127 H 0.38585 0.44026 0.47839 0.0
H128 H 0.4545 0.41973 0.41153 0.0
S129 S 0.61182 0.52412 0.55291 0.0
N130 N 0.54055 0.51901 0.56954 0.0
N131 N 0.61476 0.49567 0.4976 0.0
C132 C 0.55606 0.48019 0.49047 0.0
C133 C 0.51545 0.49313 0.52954 0.0
C134 C 0.4809 0.99258 0.02179 0.0
C135 C 0.43966 0.99696 0.0604 0.0
C136 C 0.48716 0.04088 0.98798 0.0
C137 C 0.45185 0.09507 0.99109 0.0
H138 H 0.51022 0.95267 0.01873 0.0
H139 H 0.51969 0.03554 0.95907 0.0
S140 S 0.33588 0.12822 0.0847 0.0
N141 N 0.36222 0.05932 0.09904 0.0
N142 N 0.37322 0.14908 0.03587 0.0
C143 C 0.40954 0.09911 0.02901 0.0
C144 C 0.40365 0.05042 0.06347 0.0
C145 C 0.0398 0.0536 0.44957 0.0
C146 C 0.97675 0.04526 0.45355 0.0
C147 C 0.07914 0.04233 0.48865 0.0
C148 C 0.05732 0.02163 0.53343 0.0
H149 H 0.05937 0.06765 0.41549 0.0
H150 H 0.12712 0.04864 0.48335 0.0
S151 S 0.89574 0.99689 0.56432 0.0
N152 N 0.89435 0.01832 0.5071 0.0
N153 N 0.96753 0.99701 0.5803 0.0
C154 C 0.99413 0.01503 0.53842 0.0
C155 C 0.95411 0.02694 0.49868 0.0
C156 C 0.20897 0.75571 0.24725 0.0
C157 C 0.19796 0.71549 0.20815 0.0
C158 C 0.25623 0.79807 0.24658 0.0
C159 C 0.29554 0.80255 0.2069 0.0
H160 H 0.18075 0.75479 0.27918 0.0
H161 H 0.26294 0.82656 0.27834 0.0
S162 S 0.28548 0.71035 0.0939 0.0
N163 N 0.22888 0.68517 0.12717 0.0
N164 N 0.31908 0.76431 0.1263 0.0
C165 C 0.28414 0.76433 0.16659 0.0
C166 C 0.23524 0.72098 0.16716 0.0
C167 C 0.31459 0.746 0.61528 0.0
C168 C 0.28284 0.69019 0.61768 0.0
C169 C 0.28388 0.80282 0.61596 0.0
C170 C 0.22067 0.80536 0.62036 0.0
H171 H 0.36338 0.74587 0.618 0.0
H172 H 0.31011 0.84468 0.61914 0.0
S173 S 0.11684 0.67231 0.62151 0.0
N174 N 0.1848 0.64092 0.61814 0.0
N175 N 0.1273 0.7477 0.62153 0.0
C176 C 0.18837 0.75003 0.61787 0.0
C177 C 0.21951 0.69231 0.61597 0.0
C178 C 0.71269 0.29434 0.90616 0.0
C179 C 0.69605 0.23168 0.90187 0.0
C180 C 0.77353 0.31287 0.90488 0.0
C181 C 0.82026 0.26927 0.90095 0.0
H182 H 0.67824 0.3298 0.90883 0.0
H183 H 0.78401 0.36152 0.90705 0.0
S184 S 0.80156 0.0997 0.88891 0.0
N185 N 0.73181 0.12645 0.89284 0.0
N186 N 0.84589 0.16051 0.89266 0.0
C187 C 0.80436 0.20642 0.89764 0.0
C188 C 0.74242 0.1878 0.89751 0.0
C189 C 0.76653 0.29798 0.25312 0.0
C190 C 0.72365 0.30728 0.2901 0.0
C191 C 0.81037 0.25164 0.25598 0.0
C192 C 0.81367 0.2117 0.29585 0.0
H193 H 0.76633 0.32663 0.22107 0.0
H194 H 0.84056 0.24555 0.22554 0.0
S195 S 0.71546 0.21878 0.40454 0.0
N196 N 0.69022 0.27524 0.36981 0.0
N197 N 0.77211 0.18662 0.37483 0.0
C198 C 0.77315 0.22208 0.33441 0.0
C199 C 0.72831 0.27003 0.33158 0.0
C200 C 0.83812 0.51769 0.28624 0.0
C201 C 0.78751 0.54921 0.26737 0.0
C202 C 0.89651 0.52851 0.26777 0.0
C203 C 0.90524 0.57064 0.22982 0.0
H204 H 0.83191 0.48058 0.31189 0.0
H205 H 0.93379 0.50022 0.28028 0.0
S206 S 0.78881 0.67205 0.1743 0.0
N207 N 0.75158 0.6298 0.21364 0.0
N208 N 0.85987 0.64992 0.17911 0.0
C209 C 0.85576 0.60637 0.21431 0.0
C210 C 0.79721 0.59583 0.23318 0.0
C211 C 0.4797 0.42096 0.74717 0.0
C212 C 0.4173 0.43071 0.7453 0.0
C213 C 0.50501 0.38144 0.78155 0.0
C214 C 0.46872 0.35006 0.81517 0.0
H215 H 0.5088 0.44126 0.72012 0.0
H216 H 0.55324 0.37315 0.78016 0.0
S217 S 0.30258 0.36535 0.82746 0.0
N218 N 0.31968 0.40975 0.78104 0.0
N219 N 0.36732 0.33667 0.8472 0.0
C220 C 0.40646 0.36311 0.81584 0.0
C221 C 0.38062 0.40299 0.78024 0.0
C222 C 0.61539 0.01528 0.22643 0.0
C223 C 0.58621 0.96346 0.24527 0.0
C224 C 0.67274 0.03197 0.24235 0.0
C225 C 0.70389 0.99687 0.27722 0.0
H226 H 0.59562 0.04054 0.19649 0.0
H227 H 0.6949 0.06999 0.22433 0.0
S228 S 0.64162 0.86553 0.3459 0.0
N229 N 0.58767 0.88368 0.30696 0.0
N230 N 0.69733 0.91437 0.33619 0.0
C231 C 0.67273 0.94913 0.3004 0.0
C232 C 0.61333 0.93243 0.28443 0.0
C233 C 0.10989 0.1454 0.81646 0.0
C234 C 0.04721 0.1471 0.82416 0.0
C235 C 0.13485 0.10585 0.78149 0.0
C236 C 0.09811 0.06514 0.75523 0.0
H237 H 0.13916 0.17782 0.83458 0.0
H238 H 0.18247 0.10944 0.77311 0.0
S239 S 0.93361 0.0436 0.76879 0.0
N240 N 0.95038 0.09932 0.80722 0.0
N241 N 0.99802 0.02327 0.7432 0.0
C242 C 0.03668 0.06189 0.76628 0.0
C243 C 0.01102 0.10319 0.80064 0.0
C244 C 0.09662 0.42715 0.75951 0.0
C245 C 0.10556 0.36303 0.76049 0.0
C246 C 0.13535 0.46527 0.7328 0.0
C247 C 0.18379 0.44055 0.70577 0.0
H248 H 0.06417 0.44854 0.78361 0.0
H249 H 0.1309 0.51476 0.73704 0.0
S250 S 0.21801 0.27464 0.68867 0.0
N251 N 0.15975 0.27579 0.72582 0.0
N252 N 0.23224 0.34748 0.67584 0.0
C253 C 0.18805 0.37623 0.70152 0.0
C254 C 0.14896 0.33744 0.7289 0.0
C255 C 0.52488 0.60648 0.22156 0.0
C256 C 0.57318 0.59933 0.25413 0.0
C257 C 0.51079 0.66504 0.20231 0.0
C258 C 0.54556 0.71703 0.21451 0.0
H259 H 0.49446 0.56847 0.2149 0.0
H260 H 0.46903 0.67081 0.18235 0.0
S261 S 0.68136 0.71971 0.29186 0.0
N262 N 0.65891 0.64744 0.2934 0.0
N263 N 0.63452 0.75561 0.25495 0.0
C264 C 0.59801 0.70825 0.24189 0.0
C265 C 0.61115 0.64982 0.26257 0.0
C266 C 0.36341 0.15384 0.73466 0.0
C267 C 0.40723 0.1299 0.76682 0.0
C268 C 0.32453 0.11492 0.70869 0.0
C269 C 0.32778 0.05068 0.71435 0.0
H270 H 0.35547 0.20314 0.73288 0.0
H271 H 0.28777 0.13548 0.68836 0.0
S272 S 0.44229 0.96455 0.78576 0.0
N273 N 0.45778 0.03776 0.7963 0.0
N274 N 0.3846 0.96458 0.74785 0.0
C275 C 0.37596 0.02616 0.74172 0.0
C276 C 0.41588 0.06579 0.76782 0.0
C277 C 0.97711 0.83494 0.20399 0.0
C278 C 0.94757 0.78111 0.2194 0.0
C279 C 0.96315 0.89265 0.22493 0.0
C280 C 0.9198 0.89737 0.2619 0.0
H281 H 0.01528 0.83157 0.17969 0.0
H282 H 0.99015 0.9323 0.21542 0.0
S283 S 0.82377 0.772 0.30889 0.0
N284 N 0.86785 0.73811 0.26883 0.0
N285 N 0.84161 0.84563 0.30752 0.0
C286 C 0.88567 0.84517 0.27335 0.0
C287 C 0.89944 0.78719 0.25208 0.0
loop_
_geom_bond_atom_site_label_1
_geom_bond_atom_site_label_2
_geom_bond_distance
_geom_bond_site_symmetry_2
_ccdc_geom_bond_type
Co0 O1 2.216 . S
Co0 O2 2.091 1_455 S
Co0 O4 2.004 1_455 S
Co0 O10 2.021 . S
Co0 O12 2.137 1_455 S
Co0 O13 2.244 . S
O1 Co0 2.216 . S
O1 C8 1.247 . S
O2 Co0 2.091 1_655 S
O2 C8 1.261 1_655 S
C3 O12 1.247 . S
C3 O13 1.272 1_655 S
O4 Co0 2.004 1_655 S
O4 C9 1.259 . S
Co5 O6 2.061 . S
Co5 O11 2.052 . S
Co5 O13 2.135 . S
O6 Co5 2.061 . S
O6 C9 1.235 1_455 S
C7 O10 1.238 . S
C7 O11 1.241 . S
C8 O1 1.247 . S
C8 O2 1.261 1_455 S
C9 O4 1.259 . S
C9 O6 1.235 1_655 S
O10 Co0 2.021 . S
O10 C7 1.238 . S
O11 Co5 2.052 . S
O11 C7 1.241 . S
O12 Co0 2.137 1_655 S
O12 C3 1.247 . S
O13 Co0 2.244 . S
O13 C3 1.272 1_455 S
O13 Co5 2.135 . S
Co14 O15 2.216 . S
Co14 O16 2.091 . S
Co14 O18 2.004 . S
Co14 O24 2.021 . S
Co14 O26 2.137 . S
Co14 O27 2.244 . S
O15 Co14 2.216 . S
O15 C22 1.247 . S
O16 Co14 2.091 . S
O16 C22 1.261 . S
C17 O26 1.247 . S
C17 O27 1.272 . S
O18 Co14 2.004 . S
O18 C23 1.259 . S
Co19 O20 2.061 . S
Co19 O25 2.052 . S
Co19 O27 2.135 . S
O20 Co19 2.061 . S
O20 C23 1.235 . S
C21 O24 1.238 . S
C21 O25 1.241 . S
C22 O15 1.247 . S
C22 O16 1.261 . S
C23 O18 1.259 . S
C23 O20 1.235 . S
O24 Co14 2.021 . S
O24 C21 1.238 . S
O25 Co19 2.052 . S
O25 C21 1.241 . S
O26 Co14 2.137 . S
O26 C17 1.247 . S
O27 Co14 2.244 . S
O27 C17 1.272 . S
O27 Co19 2.135 . S
Co28 O29 2.216 . S
Co28 O30 2.091 . S
Co28 O32 2.004 . S
Co28 O38 2.021 . S
Co28 O40 2.137 . S
Co28 O41 2.244 . S
O29 Co28 2.216 . S
O29 C36 1.247 . S
O30 Co28 2.091 . S
O30 C36 1.261 . S
C31 O40 1.247 . S
C31 O41 1.272 . S
O32 Co28 2.004 . S
O32 C37 1.259 . S
Co33 O34 2.061 . S
Co33 O39 2.052 . S
Co33 O41 2.135 . S
O34 Co33 2.061 . S
O34 C37 1.235 . S
C35 O38 1.238 . S
C35 O39 1.241 . S
C36 O29 1.247 . S
C36 O30 1.261 . S
C37 O32 1.259 . S
C37 O34 1.235 . S
O38 Co28 2.021 . S
O38 C35 1.238 . S
O39 Co33 2.052 . S
O39 C35 1.241 . S
O40 Co28 2.137 . S
O40 C31 1.247 . S
O41 Co28 2.244 . S
O41 C31 1.272 . S
O41 Co33 2.135 . S
Co42 O43 2.216 . S
Co42 O44 2.091 1_565 S
Co42 O46 2.004 1_565 S
Co42 O52 2.021 . S
Co42 O54 2.137 1_565 S
Co42 O55 2.244 . S
O43 Co42 2.216 . S
O43 C50 1.247 . S
O44 Co42 2.091 1_545 S
O44 C50 1.261 1_545 S
C45 O54 1.247 . S
C45 O55 1.272 1_545 S
O46 Co42 2.004 1_545 S
O46 C51 1.259 . S
Co47 O48 2.061 . S
Co47 O53 2.052 . S
Co47 O55 2.135 . S
O48 Co47 2.061 . S
O48 C51 1.235 1_565 S
C49 O52 1.238 . S
C49 O53 1.241 . S
C50 O43 1.247 . S
C50 O44 1.261 1_565 S
C51 O46 1.259 . S
C51 O48 1.235 1_545 S
O52 Co42 2.021 . S
O52 C49 1.238 . S
O53 Co47 2.052 . S
O53 C49 1.241 . S
O54 Co42 2.137 1_545 S
O54 C45 1.247 . S
O55 Co42 2.244 . S
O55 C45 1.272 1_565 S
O55 Co47 2.135 . S
Co56 O57 2.216 . S
Co56 O58 2.091 . S
Co56 O60 2.004 1_655 S
Co56 O66 2.021 . S
Co56 O68 2.137 . S
Co56 O69 2.244 1_655 S
O57 Co56 2.216 . S
O57 C64 1.247 . S
O58 Co56 2.091 . S
O58 C64 1.261 . S
C59 O68 1.247 1_455 S
C59 O69 1.272 . S
O60 Co56 2.004 1_455 S
O60 C65 1.259 . S
Co61 O62 2.061 . S
Co61 O67 2.052 . S
Co61 O69 2.135 . S
O62 Co61 2.061 . S
O62 C65 1.235 . S
C63 O66 1.238 1_455 S
C63 O67 1.241 . S
C64 O57 1.247 . S
C64 O58 1.261 . S
C65 O60 1.259 . S
C65 O62 1.235 . S
O66 Co56 2.021 . S
O66 C63 1.238 1_655 S
O67 Co61 2.052 . S
O67 C63 1.241 . S
O68 Co56 2.137 . S
O68 C59 1.247 1_655 S
O69 Co56 2.244 1_455 S
O69 C59 1.272 . S
O69 Co61 2.135 . S
Co70 O71 2.216 . S
Co70 O72 2.091 . S
Co70 O74 2.004 . S
Co70 O80 2.021 . S
Co70 O82 2.137 . S
Co70 O83 2.244 . S
O71 Co70 2.216 . S
O71 C78 1.247 . S
O72 Co70 2.091 . S
O72 C78 1.261 . S
C73 O82 1.247 . S
C73 O83 1.272 . S
O74 Co70 2.004 . S
O74 C79 1.259 . S
Co75 O76 2.061 . S
Co75 O81 2.052 . S
Co75 O83 2.135 . S
O76 Co75 2.061 . S
O76 C79 1.235 . S
C77 O80 1.238 . S
C77 O81 1.241 . S
C78 O71 1.247 . S
C78 O72 1.261 . S
C79 O74 1.259 . S
C79 O76 1.235 . S
O80 Co70 2.021 . S
O80 C77 1.238 . S
O81 Co75 2.052 . S
O81 C77 1.241 . S
O82 Co70 2.137 . S
O82 C73 1.247 . S
O83 Co70 2.244 . S
O83 C73 1.272 . S
O83 Co75 2.135 . S
Co84 O85 2.216 . S
Co84 O86 2.091 . S
Co84 O88 2.004 . S
Co84 O94 2.021 . S
Co84 O96 2.137 . S
Co84 O97 2.244 . S
O85 Co84 2.216 . S
O85 C92 1.247 . S
O86 Co84 2.091 . S
O86 C92 1.261 . S
C87 O96 1.247 . S
C87 O97 1.272 . S
O88 Co84 2.004 . S
O88 C93 1.259 . S
Co89 O90 2.061 . S
Co89 O95 2.052 . S
Co89 O97 2.135 . S
O90 Co89 2.061 . S
O90 C93 1.235 . S
C91 O94 1.238 . S
C91 O95 1.241 . S
C92 O85 1.247 . S
C92 O86 1.261 . S
C93 O88 1.259 . S
C93 O90 1.235 . S
O94 Co84 2.021 . S
O94 C91 1.238 . S
O95 Co89 2.052 . S
O95 C91 1.241 . S
O96 Co84 2.137 . S
O96 C87 1.247 . S
O97 Co84 2.244 . S
O97 C87 1.272 . S
O97 Co89 2.135 . S
Co98 O99 2.216 . S
Co98 O100 2.091 1_545 S
Co98 O102 2.004 1_545 S
Co98 O108 2.021 . S
Co98 O110 2.137 1_545 S
Co98 O111 2.244 . S
O99 Co98 2.216 . S
O99 C106 1.247 . S
O100 Co98 2.091 1_565 S
O100 C106 1.261 1_565 S
C101 O110 1.247 . S
C101 O111 1.272 1_565 S
O102 Co98 2.004 1_565 S
O102 C107 1.259 . S
Co103 O104 2.061 . S
Co103 O109 2.052 . S
Co103 O111 2.135 . S
O104 Co103 2.061 . S
O104 C107 1.235 1_545 S
C105 O108 1.238 . S
C105 O109 1.241 . S
C106 O99 1.247 . S
C106 O100 1.261 1_545 S
C107 O102 1.259 . S
C107 O104 1.235 1_565 S
O108 Co98 2.021 . S
O108 C105 1.238 . S
O109 Co103 2.052 . S
O109 C105 1.241 . S
O110 Co98 2.137 1_565 S
O110 C101 1.247 . S
O111 Co98 2.244 . S
O111 C101 1.272 1_545 S
O111 Co103 2.135 . S
C112 C113 1.373 . S
C112 C114 1.419 1_556 S
C112 H116 0.930 . S
C113 C112 1.373 . S
C113 C122 1.424 1_655 S
C114 C112 1.419 1_554 S
C114 C115 1.363 1_655 S
C114 H117 0.929 . S
C115 C114 1.363 1_455 S
C115 C121 1.428 . S
H116 C112 0.930 . S
H117 C114 0.929 . S
S118 N119 1.613 1_554 S
S118 N120 1.610 . S
N119 S118 1.613 1_556 S
N119 C122 1.350 . S
N120 S118 1.610 . S
N120 C121 1.351 . S
C121 C115 1.428 . S
C121 N120 1.351 . S
C121 C122 1.434 1_554 S
C122 C113 1.424 1_455 S
C122 N119 1.350 . S
C122 C121 1.434 1_556 S
C123 C124 1.369 . S
C123 C125 1.419 . S
C123 H127 0.930 . S
C124 C123 1.369 . S
C124 C133 1.429 . S
C125 C123 1.419 . S
C125 C126 1.363 . S
C125 H128 0.929 . S
C126 C125 1.363 . S
C126 C132 1.428 . S
H127 C123 0.930 . S
H128 C125 0.929 . S
S129 N130 1.613 . S
S129 N131 1.610 . S
N130 S129 1.613 . S
N130 C133 1.350 . S
N131 S129 1.610 . S
N131 C132 1.351 . S
C132 C126 1.428 . S
C132 N131 1.351 . S
C132 C133 1.434 . S
C133 C124 1.429 . S
C133 N130 1.350 . S
C133 C132 1.434 . S
C134 C135 1.369 1_556 S
C134 C136 1.419 1_565 S
C134 H138 0.930 . S
C135 C134 1.369 1_554 S
C135 C144 1.429 1_565 S
C136 C134 1.419 1_545 S
C136 C137 1.363 . S
C136 H139 0.929 . S
C137 C136 1.363 . S
C137 C143 1.428 1_556 S
H138 C134 0.930 . S
H139 C136 0.929 . S
S140 N141 1.613 . S
S140 N142 1.610 . S
N141 S140 1.613 . S
N141 C144 1.350 . S
N142 S140 1.610 . S
N142 C143 1.351 . S
C143 C137 1.428 1_554 S
C143 N142 1.351 . S
C143 C144 1.434 . S
C144 C135 1.429 1_545 S
C144 N141 1.350 . S
C144 C143 1.434 . S
C145 C146 1.388 . S
C145 C147 1.402 1_645 S
C145 H149 0.926 1_655 S
C146 C145 1.388 . S
C146 C155 1.429 1_545 S
C147 C145 1.402 1_465 S
C147 C148 1.364 . S
C147 H150 0.929 1_565 S
C148 C147 1.364 . S
C148 C154 1.428 1_455 S
H149 C145 0.926 1_455 S
H150 C147 0.929 1_545 S
S151 N152 1.613 . S
S151 N153 1.610 . S
N152 S151 1.613 . S
N152 C155 1.350 . S
N153 S151 1.610 . S
N153 C154 1.351 . S
C154 C148 1.428 1_655 S
C154 N153 1.351 . S
C154 C155 1.434 . S
C155 C146 1.429 1_565 S
C155 N152 1.350 . S
C155 C154 1.434 . S
C156 C157 1.369 . S
C156 C158 1.419 . S
C156 H160 0.930 . S
C157 C156 1.369 . S
C157 C166 1.429 . S
C158 C156 1.419 . S
C158 C159 1.363 . S
C158 H161 0.929 . S
C159 C158 1.363 . S
C159 C165 1.428 . S
H160 C156 0.930 . S
H161 C158 0.929 . S
S162 N163 1.613 . S
S162 N164 1.610 . S
N163 S162 1.613 . S
N163 C166 1.350 . S
N164 S162 1.610 . S
N164 C165 1.351 . S
C165 C159 1.428 . S
C165 N164 1.351 . S
C165 C166 1.434 . S
C166 C157 1.429 . S
C166 N163 1.350 . S
C166 C165 1.434 . S
C167 C168 1.369 . S
C167 C169 1.419 . S
C167 H171 0.930 . S
C168 C167 1.369 . S
C168 C177 1.429 . S
C169 C167 1.419 . S
C169 C170 1.363 . S
C169 H172 0.929 . S
C170 C169 1.363 . S
C170 C176 1.428 . S
H171 C167 0.930 . S
H172 C169 0.929 . S
S173 N174 1.613 . S
S173 N175 1.610 . S
N174 S173 1.613 . S
N174 C177 1.350 . S
N175 S173 1.610 . S
N175 C176 1.351 . S
C176 C170 1.428 . S
C176 N175 1.351 . S
C176 C177 1.434 . S
C177 C168 1.429 . S
C177 N174 1.350 . S
C177 C176 1.434 . S
C178 C179 1.369 . S
C178 C180 1.419 . S
C178 H182 0.930 . S
C179 C178 1.369 . S
C179 C188 1.429 . S
C180 C178 1.419 . S
C180 C181 1.363 . S
C180 H183 0.929 . S
C181 C180 1.363 . S
C181 C187 1.428 . S
H182 C178 0.930 . S
H183 C180 0.929 . S
S184 N185 1.613 . S
S184 N186 1.610 . S
N185 S184 1.613 . S
N185 C188 1.350 . S
N186 S184 1.610 . S
N186 C187 1.351 . S
C187 C181 1.428 . S
C187 N186 1.351 . S
C187 C188 1.434 . S
C188 C179 1.429 . S
C188 N185 1.350 . S
C188 C187 1.434 . S
C189 C190 1.369 . S
C189 C191 1.419 . S
C189 H193 0.930 . S
C190 C189 1.369 . S
C190 C199 1.429 . S
C191 C189 1.419 . S
C191 C192 1.363 . S
C191 H194 0.929 . S
C192 C191 1.363 . S
C192 C198 1.428 . S
H193 C189 0.930 . S
H194 C191 0.929 . S
S195 N196 1.613 . S
S195 N197 1.610 . S
N196 S195 1.613 . S
N196 C199 1.350 . S
N197 S195 1.610 . S
N197 C198 1.351 . S
C198 C192 1.428 . S
C198 N197 1.351 . S
C198 C199 1.434 . S
C199 C190 1.429 . S
C199 N196 1.350 . S
C199 C198 1.434 . S
C200 C201 1.369 . S
C200 C202 1.419 . S
C200 H204 0.930 . S
C201 C200 1.369 . S
C201 C210 1.429 . S
C202 C200 1.419 . S
C202 C203 1.363 . S
C202 H205 0.929 . S
C203 C202 1.363 . S
C203 C209 1.428 . S
H204 C200 0.930 . S
H205 C202 0.929 . S
S206 N207 1.613 . S
S206 N208 1.610 . S
N207 S206 1.613 . S
N207 C210 1.350 . S
N208 S206 1.610 . S
N208 C209 1.351 . S
C209 C203 1.428 . S
C209 N208 1.351 . S
C209 C210 1.434 . S
C210 C201 1.429 . S
C210 N207 1.350 . S
C210 C209 1.434 . S
C211 C212 1.369 . S
C211 C213 1.419 . S
C211 H215 0.930 . S
C212 C211 1.369 . S
C212 C221 1.429 . S
C213 C211 1.419 . S
C213 C214 1.363 . S
C213 H216 0.929 . S
C214 C213 1.363 . S
C214 C220 1.428 . S
H215 C211 0.930 . S
H216 C213 0.929 . S
S217 N218 1.613 . S
S217 N219 1.610 . S
N218 S217 1.613 . S
N218 C221 1.350 . S
N219 S217 1.610 . S
N219 C220 1.351 . S
C220 C214 1.428 . S
C220 N219 1.351 . S
C220 C221 1.434 . S
C221 C212 1.429 . S
C221 N218 1.350 . S
C221 C220 1.434 . S
C222 C223 1.369 . S
C222 C224 1.419 . S
C222 H226 0.930 . S
C223 C222 1.369 . S
C223 C232 1.429 . S
C224 C222 1.419 . S
C224 C225 1.363 . S
C224 H227 0.924 1_565 S
C225 C224 1.363 . S
C225 C231 1.428 . S
H226 C222 0.930 . S
H227 C224 0.924 1_545 S
S228 N229 1.613 . S
S228 N230 1.610 . S
N229 S228 1.613 . S
N229 C232 1.350 . S
N230 S228 1.610 . S
N230 C231 1.351 . S
C231 C225 1.428 . S
C231 N230 1.351 . S
C231 C232 1.434 . S
C232 C223 1.429 . S
C232 N229 1.350 . S
C232 C231 1.434 . S
C233 C234 1.369 . S
C233 C235 1.419 . S
C233 H237 0.930 . S
C234 C233 1.369 . S
C234 C243 1.429 1_455 S
C235 C233 1.419 . S
C235 C236 1.363 . S
C235 H238 0.929 . S
C236 C235 1.363 . S
C236 C242 1.428 . S
H237 C233 0.930 . S
H238 C235 0.929 . S
S239 N240 1.613 . S
S239 N241 1.610 . S
N240 S239 1.613 . S
N240 C243 1.350 . S
N241 S239 1.610 . S
N241 C242 1.351 1_655 S
C242 C236 1.428 . S
C242 N241 1.351 1_455 S
C242 C243 1.434 1_455 S
C243 C234 1.429 1_655 S
C243 N240 1.350 . S
C243 C242 1.434 1_655 S
C244 C245 1.369 . S
C244 C246 1.419 . S
C244 H248 0.930 . S
C245 C244 1.369 . S
C245 C254 1.429 . S
C246 C244 1.419 . S
C246 C247 1.363 . S
C246 H249 0.929 . S
C247 C246 1.363 . S
C247 C253 1.428 . S
H248 C244 0.930 . S
H249 C246 0.929 . S
S250 N251 1.613 . S
S250 N252 1.610 . S
N251 S250 1.613 . S
N251 C254 1.350 . S
N252 S250 1.610 . S
N252 C253 1.351 . S
C253 C247 1.428 . S
C253 N252 1.351 . S
C253 C254 1.434 . S
C254 C245 1.429 . S
C254 N251 1.350 . S
C254 C253 1.434 . S
C255 C256 1.369 . S
C255 C257 1.419 . S
C255 H259 0.930 . S
C256 C255 1.369 . S
C256 C265 1.429 . S
C257 C255 1.419 . S
C257 C258 1.363 . S
C257 H260 0.929 . S
C258 C257 1.363 . S
C258 C264 1.428 . S
H259 C255 0.930 . S
H260 C257 0.929 . S
S261 N262 1.613 . S
S261 N263 1.610 . S
N262 S261 1.613 . S
N262 C265 1.350 . S
N263 S261 1.610 . S
N263 C264 1.351 . S
C264 C258 1.428 . S
C264 N263 1.351 . S
C264 C265 1.434 . S
C265 C256 1.429 . S
C265 N262 1.350 . S
C265 C264 1.434 . S
C266 C267 1.369 . S
C266 C268 1.419 . S
C266 H270 0.930 . S
C267 C266 1.369 . S
C267 C276 1.429 . S
C268 C266 1.419 . S
C268 C269 1.363 . S
C268 H271 0.929 . S
C269 C268 1.363 . S
C269 C275 1.428 . S
H270 C266 0.930 . S
H271 C268 0.929 . S
S272 N273 1.613 . S
S272 N274 1.610 . S
N273 S272 1.613 . S
N273 C276 1.350 . S
N274 S272 1.610 . S
N274 C275 1.351 . S
C275 C269 1.428 . S
C275 N274 1.351 . S
C275 C276 1.434 . S
C276 C267 1.429 . S
C276 N273 1.350 . S
C276 C275 1.434 . S
C277 C278 1.369 . S
C277 C279 1.419 . S
C277 H281 0.930 . S
C278 C277 1.369 . S
C278 C287 1.429 . S
C279 C277 1.419 . S
C279 C280 1.363 . S
C279 H282 0.929 . S
C280 C279 1.363 . S
C280 C286 1.428 . S
H281 C277 0.930 . S
H282 C279 0.929 . S
S283 N284 1.613 . S
S283 N285 1.610 . S
N284 S283 1.613 . S
N284 C287 1.350 . S
N285 S283 1.610 . S
N285 C286 1.351 . S
C286 C280 1.428 . S
C286 N285 1.351 . S
C286 C287 1.434 . S
C287 C278 1.429 . S
C287 N284 1.350 . S
C287 C286 1.434 . S
C113 C63 1.585 1_655 S
C115 C8 1.621 . S
C124 C22 1.611 . S
C126 C78 1.613 . S
C135 C36 1.618 . S
C137 C91 1.588 . S
C146 C106 1.615 . S
C148 C50 1.610 . S
C157 C7 1.554 . S
C159 C35 1.550 . S
C168 C21 1.487 . S
C170 C49 1.495 . S
C179 C92 1.444 . S
C181 C64 1.440 . S
C190 C77 1.434 . S
C192 C105 1.437 . S
C201 C79 1.205 . S
C203 C3 1.215 . S
C212 C17 1.162 . S
C214 C87 1.170 . S
C223 C31 1.221 . S
C225 C107 1.213 . S
C234 C59 1.164 . S
C236 C45 1.167 . S
C245 C65 1.104 . S
C247 C23 1.107 . S
C256 C73 1.171 . S
C258 C37 1.146 . S
C267 C93 1.110 . S
C269 C51 1.101 . S
C278 C9 1.146 . S
C280 C101 1.172 . S
