# Generated by pormake.
# Topology zfw, (5)-cn, num edge types: 1
# Building blocks:
#     Node 0, Type 0, BuildingBlock: BEQFEK_clean_sbu_0, # of connection points: 5
#     Node 1, Type 0, BuildingBlock: BEQFEK_clean_sbu_0, # of connection points: 5
#     Node 2, Type 0, BuildingBlock: BEQFEK_clean_sbu_0, # of connection points: 5
#     Node 3, Type 0, BuildingBlock: BEQFEK_clean_sbu_0, # of connection points: 5
#     Node 4, Type 0, BuildingBlock: BEQFEK_clean_sbu_0, # of connection points: 5
#     Node 5, Type 0, BuildingBlock: BEQFEK_clean_sbu_0, # of connection points: 5
#     Node 6, Type 0, BuildingBlock: BEQFEK_clean_sbu_0, # of connection points: 5
#     Node 7, Type 0, BuildingBlock: BEQFEK_clean_sbu_0, # of connection points: 5
#     Node 8, Type 0, BuildingBlock: BEQFEK_clean_sbu_0, # of connection points: 5
#     Node 9, Type 0, BuildingBlock: BEQFEK_clean_sbu_0, # of connection points: 5
#     Node 10, Type 0, BuildingBlock: BEQFEK_clean_sbu_0, # of connection points: 5
#     Node 11, Type 0, BuildingBlock: BEQFEK_clean_sbu_0, # of connection points: 5
#     Node 12, Type 0, BuildingBlock: BEQFEK_clean_sbu_0, # of connection points: 5
#     Node 13, Type 0, BuildingBlock: BEQFEK_clean_sbu_0, # of connection points: 5
#     Node 14, Type 0, BuildingBlock: BEQFEK_clean_sbu_0, # of connection points: 5
#     Node 15, Type 0, BuildingBlock: BEQFEK_clean_sbu_0, # of connection points: 5
#     Edge 16, Type (0, 0), None
#     Edge 17, Type (0, 0), None
#     Edge 18, Type (0, 0), None
#     Edge 19, Type (0, 0), None
#     Edge 20, Type (0, 0), None
#     Edge 21, Type (0, 0), None
#     Edge 22, Type (0, 0), None
#     Edge 23, Type (0, 0), None
#     Edge 24, Type (0, 0), None
#     Edge 25, Type (0, 0), None
#     Edge 26, Type (0, 0), None
#     Edge 27, Type (0, 0), None
#     Edge 28, Type (0, 0), None
#     Edge 29, Type (0, 0), None
#     Edge 30, Type (0, 0), None
#     Edge 31, Type (0, 0), None
#     Edge 32, Type (0, 0), None
#     Edge 33, Type (0, 0), None
#     Edge 34, Type (0, 0), None
#     Edge 35, Type (0, 0), None
#     Edge 36, Type (0, 0), None
#     Edge 37, Type (0, 0), None
#     Edge 38, Type (0, 0), None
#     Edge 39, Type (0, 0), None
#     Edge 40, Type (0, 0), None
#     Edge 41, Type (0, 0), None
#     Edge 42, Type (0, 0), None
#     Edge 43, Type (0, 0), None
#     Edge 44, Type (0, 0), None
#     Edge 45, Type (0, 0), None
#     Edge 46, Type (0, 0), None
#     Edge 47, Type (0, 0), None
#     Edge 48, Type (0, 0), None
#     Edge 49, Type (0, 0), None
#     Edge 50, Type (0, 0), None
#     Edge 51, Type (0, 0), None
#     Edge 52, Type (0, 0), None
#     Edge 53, Type (0, 0), None
#     Edge 54, Type (0, 0), None
#     Edge 55, Type (0, 0), None
# Relax obj value: 0.534
# Max RMSD: 0.269
# Mean RMSD: 0.269
data_MOF--net-zfw--node1-BEQFEK_clean_sbu_0--edge1-none
_symmetry_space_group_name_H-M    P1
_symmetry_Int_Tables_number       1
_symmetry_cell_setting            triclinic
loop_
_symmetry_equiv_pos_as_xyz
'x, y, z'
_cell_length_a     31.921794
_cell_length_b     31.917695
_cell_length_c     9.7416752
_cell_angle_alpha  90.005354
_cell_angle_beta   90.001814
_cell_angle_gamma 89.983049
loop_
_atom_site_label
_atom_site_type_symbol
_atom_site_fract_x
_atom_site_fract_y
_atom_site_fract_z
_atom_type_partial_charge
Co0 Co 0.01787 0.08861 0.41725 0.0
Co1 Co 0.00902 0.13688 0.15417 0.0
C2 C 0.94712 0.15584 0.34594 0.0
O3 O 0.96913 0.13006 0.4154 0.0
O4 O 0.95648 0.16395 0.22078 0.0
C5 C -0.00446 0.08838 0.6717 0.0
O6 O 0.95563 0.09684 0.6555 0.0
C7 C 0.00703 0.14393 0.86044 0.0
C8 C 0.05755 0.09804 0.82998 0.0
C9 C 0.02077 0.11234 0.77239 0.0
N10 N 0.03138 0.14441 0.97223 0.0
N11 N 0.06345 0.11919 0.94792 0.0
C12 C 0.97433 0.17626 0.8348 0.0
H13 H 0.94901 0.16399 0.77007 0.0
H14 H 0.98891 0.20268 0.77839 0.0
H15 H 0.96222 0.18863 0.93355 0.0
C16 C 0.02262 0.01586 0.20178 0.0
N17 N 0.01695 0.05517 0.25167 0.0
N18 N -0.00086 0.07748 0.15555 0.0
C19 C 0.98788 0.05248 0.05011 0.0
C20 C 0.00429 0.0128 0.07043 0.0
C21 C 0.04926 0.98396 0.27115 0.0
H22 H 0.08228 -0.00524 0.26794 0.0
H23 H 0.04062 0.98151 0.38093 0.0
H24 H 0.04737 0.9535 0.21774 0.0
O25 O 0.06876 0.11904 0.45104 0.0
O26 O 0.05515 0.16038 0.27599 0.0
H27 H 0.95014 0.04105 0.86907 0.0
H28 H 0.92209 0.05754 0.02092 0.0
C29 C 0.95114 0.06185 0.96024 0.0
H30 H 0.95055 0.09477 0.9305 0.0
H31 H 0.0854 0.11073 0.02234 0.0
O32 O 0.01251 0.06129 0.59348 0.0
C33 C 0.07596 0.15185 0.38417 0.0
Co34 Co 0.15036 0.76167 0.6677 0.0
Co35 Co 0.10212 0.75272 0.4046 0.0
C36 C 0.08329 0.6908 0.59648 0.0
O37 O 0.10902 0.71285 0.66596 0.0
O38 O 0.07517 0.70015 0.47131 0.0
C39 C 0.15071 0.73932 0.92217 0.0
O40 O 0.14236 0.69938 0.90592 0.0
C41 C 0.0951 0.75069 0.11085 0.0
C42 C 0.14084 0.80133 0.08039 0.0
C43 C 0.12666 0.7645 0.02283 0.0
N44 N 0.09455 0.77505 0.22261 0.0
N45 N 0.11966 0.80719 0.1983 0.0
C46 C 0.06294 0.71784 0.08535 0.0
H47 H 0.07532 0.69253 0.02074 0.0
H48 H 0.03645 0.73227 0.02887 0.0
H49 H 0.05063 0.70571 0.18416 0.0
C50 C 0.22309 0.76652 0.45221 0.0
N51 N 0.1838 0.76079 0.5021 0.0
N52 N 0.16153 0.74293 0.40599 0.0
C53 C 0.18655 0.7317 0.30056 0.0
C54 C 0.22619 0.74818 0.32086 0.0
C55 C 0.25493 0.79322 0.52158 0.0
H56 H 0.24425 0.82628 0.51717 0.0
H57 H 0.25713 0.78484 0.63165 0.0
H58 H 0.28547 0.79108 0.46889 0.0
O59 O 0.11981 0.81252 0.70147 0.0
O60 O 0.07853 0.79885 0.52633 0.0
H61 H 0.19806 0.69395 0.11959 0.0
H62 H 0.18167 0.66589 0.2715 0.0
C63 C 0.17727 0.69492 0.21078 0.0
H64 H 0.14435 0.69426 0.18107 0.0
H65 H 0.12804 0.82917 0.2727 0.0
O66 O 0.17771 0.75636 0.8439 0.0
C67 C 0.087 0.81968 0.63453 0.0
Co68 Co 0.47796 0.89362 0.91752 0.0
Co69 Co 0.48679 0.84538 0.65479 0.0
C70 C 0.54847 0.82604 0.8463 0.0
O71 O 0.52652 0.85191 0.91564 0.0
O72 O 0.53917 0.81802 0.72103 0.0
C73 C 0.50034 0.89376 0.17204 0.0
O74 O 0.54019 0.88502 0.15573 0.0
C75 C 0.48859 0.83837 0.36104 0.0
C76 C 0.43839 0.88464 0.3309 0.0
C77 C 0.47502 0.87005 0.27307 0.0
N78 N 0.4643 0.83806 0.47294 0.0
N79 N 0.43241 0.86353 0.44886 0.0
C80 C 0.52083 0.80564 0.33468 0.0
H81 H 0.54629 0.81768 0.27005 0.0
H82 H 0.50588 0.77952 0.27781 0.0
H83 H 0.53283 0.79294 0.43313 0.0
C84 C 0.47314 0.9663 0.70142 0.0
N85 N 0.47901 0.92709 0.75197 0.0
N86 N 0.49701 0.90474 0.65633 0.0
C87 C 0.50824 0.92966 0.55066 0.0
C88 C 0.49163 0.96929 0.57028 0.0
C89 C 0.44598 -0.00197 0.76953 0.0
H90 H 0.41316 0.98663 0.76709 0.0
H91 H 0.45463 0.0011 0.87912 0.0
H92 H 0.44729 0.0283 0.71475 0.0
O93 O 0.42693 0.86346 0.95139 0.0
O94 O 0.44063 0.82197 0.77678 0.0
H95 H 0.54586 0.94096 0.36932 0.0
H96 H 0.574 0.92452 0.52109 0.0
C97 C 0.54491 0.92021 0.46061 0.0
H98 H 0.54543 0.88727 0.43094 0.0
H99 H 0.41057 0.87214 0.52343 0.0
O100 O 0.48351 0.92091 0.09377 0.0
C101 C 0.41978 0.83058 0.88482 0.0
Co102 Co 0.34514 0.2202 0.16638 0.0
Co103 Co 0.39345 0.22912 0.90327 0.0
C104 C 0.41215 0.29111 0.09526 0.0
O105 O 0.38642 0.26905 0.16469 0.0
O106 O 0.42032 0.28173 0.97014 0.0
C107 C 0.34483 0.24246 0.42096 0.0
O108 O 0.35313 0.28241 0.40468 0.0
C109 C 0.4005 0.23117 0.60952 0.0
C110 C 0.35485 0.18045 0.57906 0.0
C111 C 0.36894 0.21731 0.52153 0.0
N112 N 0.40111 0.20681 0.72126 0.0
N113 N 0.37605 0.17462 0.69693 0.0
C114 C 0.43256 0.26412 0.58412 0.0
H115 H 0.4201 0.28942 0.51966 0.0
H116 H 0.45909 0.24978 0.52751 0.0
H117 H 0.44486 0.27625 0.68295 0.0
C118 C 0.27234 0.21564 0.95116 0.0
N119 N 0.31171 0.22113 1.00076 0.0
N120 N 0.33403 0.23884 0.90447 0.0
C121 C 0.30899 0.25021 0.7992 0.0
C122 C 0.26928 0.23396 0.81979 0.0
C123 C 0.24034 0.18927 0.021 0.0
H124 H 0.2509 0.15615 1.01776 0.0
H125 H 0.23808 0.19797 0.13078 0.0
H126 H 0.20985 0.19138 0.96796 0.0
O127 O 0.37571 0.16934 0.19995 0.0
O128 O 0.41706 0.18299 0.02499 0.0
H129 H 0.29755 0.28806 0.61843 0.0
H130 H 0.31411 0.31601 0.77037 0.0
C131 C 0.31837 0.28698 0.70952 0.0
H132 H 0.35127 0.28754 0.67967 0.0
H133 H 0.36773 0.15262 0.77131 0.0
O134 O 0.31783 0.22539 0.34272 0.0
C135 C 0.40854 0.16217 0.13314 0.0
Co136 Co -0.00517 0.90297 0.62309 0.0
Co137 Co 0.97822 0.86194 0.88823 0.0
C138 C 0.93493 0.82578 0.66828 0.0
O139 O 0.95683 0.85169 0.59979 0.0
O140 O 0.93465 0.82754 0.7989 0.0
C141 C 0.95778 0.9147 0.38463 0.0
O142 O 0.91899 0.90944 0.42601 0.0
C143 C 0.95506 0.86695 0.17354 0.0
C144 C 0.01773 0.87876 0.25901 0.0
C145 C 0.97554 0.88518 0.28346 0.0
N146 N 0.98385 0.85341 0.08232 0.0
N147 N 0.02126 0.85886 0.13769 0.0
C148 C 0.90867 0.86372 0.15436 0.0
H149 H 0.89171 0.89104 0.19639 0.0
H150 H 0.89785 0.83691 0.21639 0.0
H151 H 0.90042 0.85882 0.04494 0.0
C152 C 0.01365 0.96755 0.84739 0.0
N153 N -0.00765 0.93557 0.78832 0.0
N154 N 0.96555 0.92095 0.87699 0.0
C155 C 0.9646 0.94678 0.98741 0.0
C156 C -0.00262 0.97536 0.97871 0.0
C157 C 0.05211 0.98632 0.78618 0.0
H158 H 0.07779 0.96293 0.79172 0.0
H159 H 0.04684 -0.00685 0.676 0.0
H160 H 0.06195 0.01465 0.84305 0.0
O161 O 0.04839 0.88036 0.60321 0.0
O162 O 0.03345 0.84237 0.78823 0.0
H163 H 0.92753 0.95897 0.16781 0.0
H164 H 0.91323 0.98878 0.02109 0.0
C165 C 0.92389 0.95766 0.05496 0.0
H166 H 0.89888 0.93583 0.02251 0.0
H167 H 0.04933 0.85457 0.08463 0.0
O168 O 0.98259 0.93522 0.46087 0.0
C169 C 0.05694 0.85074 0.68405 0.0
Co170 Co 0.33607 0.73882 0.87355 0.0
Co171 Co 0.37717 0.72196 0.13857 0.0
C172 C 0.41299 0.67845 0.91848 0.0
O173 O 0.38716 0.70049 0.85014 0.0
O174 O 0.41132 0.67819 0.04912 0.0
C175 C 0.32422 0.70202 0.63484 0.0
O176 O 0.32931 0.66322 0.67632 0.0
C177 C 0.37207 0.69898 0.42403 0.0
C178 C 0.36037 0.76176 0.50886 0.0
C179 C 0.35381 0.71961 0.53361 0.0
N180 N 0.38575 0.72765 0.33265 0.0
N181 N 0.38037 0.76513 0.38767 0.0
C182 C 0.37534 0.65256 0.40557 0.0
H183 H 0.348 0.63565 0.44759 0.0
H184 H 0.40211 0.64186 0.46801 0.0
H185 H 0.38031 0.64416 0.29631 0.0
C186 C 0.27143 0.75763 0.09784 0.0
N187 N 0.30346 0.73639 0.03877 0.0
N188 N 0.31811 0.70959 0.12741 0.0
C189 C 0.29228 0.70858 0.2378 0.0
C190 C 0.26364 0.74132 0.22913 0.0
C191 C 0.25258 0.79607 0.03665 0.0
H192 H 0.27589 0.8218 0.0423 0.0
H193 H 0.24578 0.7908 0.92644 0.0
H194 H 0.22421 0.80585 0.09347 0.0
O195 O 0.35891 0.79228 0.85391 0.0
O196 O 0.39698 0.77708 0.03849 0.0
H197 H 0.28007 0.67148 0.41812 0.0
H198 H 0.25044 0.65709 0.2711 0.0
C199 C 0.28149 0.66785 0.30529 0.0
H200 H 0.30342 0.64288 0.27301 0.0
H201 H 0.38477 0.79314 0.33443 0.0
O202 O 0.30382 0.72696 0.71105 0.0
C203 C 0.38864 0.80065 0.93448 0.0
Co204 Co 0.50065 0.07889 0.12205 0.0
Co205 Co 0.51733 0.11992 0.38693 0.0
C206 C 0.56046 0.1562 0.16712 0.0
O207 O 0.53857 0.13026 0.09869 0.0
O208 O 0.56082 0.15442 0.29774 0.0
C209 C 0.53776 0.06711 0.88352 0.0
O210 O 0.57652 0.07252 0.92499 0.0
C211 C 0.5404 0.11488 0.67244 0.0
C212 C 0.47774 0.10275 0.75742 0.0
C213 C 0.51994 0.09651 0.78214 0.0
N214 N 0.51161 0.12834 0.58108 0.0
N215 N 0.47419 0.1227 0.63617 0.0
C216 C 0.58679 0.11833 0.65364 0.0
H217 H 0.60384 0.09104 0.69555 0.0
H218 H 0.59744 0.14513 0.716 0.0
H219 H 0.59509 0.12333 0.54432 0.0
C220 C 0.4819 0.01446 0.34717 0.0
N221 N 0.50319 0.04633 0.28742 0.0
N222 N 0.53018 0.06095 0.37547 0.0
C223 C 0.5313 0.03517 0.48598 0.0
C224 C 0.49844 0.00666 0.47815 0.0
C225 C 0.44318 -0.00414 0.2871 0.0
H226 H 0.41785 0.01966 0.2908 0.0
H227 H 0.44838 0.98825 0.17744 0.0
H228 H 0.4329 0.96804 0.34583 0.0
O229 O 0.44706 0.1014 0.10204 0.0
O230 O 0.46209 0.13946 0.28682 0.0
H231 H 0.56849 0.02288 0.66605 0.0
H232 H 0.58288 -0.00663 0.51864 0.0
C233 C 0.57207 0.02438 0.5532 0.0
H234 H 0.59697 0.04638 0.52102 0.0
H235 H 0.44614 0.12688 0.58296 0.0
O236 O 0.51298 0.04659 0.95991 0.0
C237 C 0.43857 0.13107 0.18275 0.0
Co238 Co 0.15938 0.24385 0.37281 0.0
Co239 Co 0.11837 0.26052 0.63803 0.0
C240 C 0.08228 0.30391 0.41806 0.0
O241 O 0.10816 0.28196 0.34957 0.0
O242 O 0.08406 0.3042 0.54868 0.0
C243 C 0.17113 0.28083 0.13438 0.0
O244 O 0.16593 0.31963 0.17581 0.0
C245 C 0.12341 0.28366 0.92329 0.0
C246 C 0.13507 0.22097 1.00878 0.0
C247 C 0.14159 0.26314 0.03322 0.0
N248 N 0.10981 0.25491 0.83208 0.0
N249 N 0.11516 0.21748 0.88746 0.0
C250 C 0.1203 0.33007 0.9041 0.0
H251 H 0.14767 0.34695 0.94608 0.0
H252 H 0.09355 0.34096 0.96623 0.0
H253 H 0.11541 0.33833 0.79469 0.0
C254 C 0.22399 0.22487 0.59675 0.0
N255 N 0.192 0.24624 0.53798 0.0
N256 N 0.17742 0.27299 0.62693 0.0
C257 C 0.20326 0.27382 0.73731 0.0
C258 C 0.23182 0.24101 0.72824 0.0
C259 C 0.2428 0.1865 0.53497 0.0
H260 H 0.21968 0.16063 0.54203 0.0
H261 H 0.24908 0.19171 0.42439 0.0
H262 H 0.27147 0.17696 0.59052 0.0
O263 O 0.13669 0.19034 0.35296 0.0
O264 O 0.09871 0.20534 0.53797 0.0
H265 H 0.21549 0.31081 0.91787 0.0
H266 H 0.24541 0.32504 0.77137 0.0
C267 C 0.21424 0.31447 0.80504 0.0
H268 H 0.1925 0.33958 0.77255 0.0
H269 H 0.11082 0.18942 0.83439 0.0
O270 O 0.19163 0.25597 0.21055 0.0
C271 C 0.10705 0.18184 0.43377 0.0
Co272 Co 0.83562 0.23845 0.37274 0.0
Co273 Co 0.87667 0.22176 0.63784 0.0
C274 C 0.91275 0.1784 0.41789 0.0
O275 O 0.88686 0.20035 0.34944 0.0
O276 O 0.911 0.17811 0.54852 0.0
C277 C 0.82389 0.20148 0.13419 0.0
O278 O 0.82911 0.16269 0.17563 0.0
C279 C 0.87165 0.19865 0.92317 0.0
C280 C 0.85987 0.26136 1.00847 0.0
C281 C 0.85341 0.21918 0.033 0.0
N282 N 0.88522 0.2274 0.83191 0.0
N283 N 0.87979 0.26484 0.88718 0.0
C284 C 0.87488 0.15225 0.90418 0.0
H285 H 0.84754 0.13532 0.94616 0.0
H286 H 0.90166 0.14144 0.96638 0.0
H287 H 0.87981 0.14395 0.79481 0.0
C288 C 0.77101 0.25728 0.59701 0.0
N289 N 0.80301 0.23599 0.53794 0.0
N290 N 0.81765 0.20921 0.62665 0.0
C291 C 0.79184 0.20827 0.73708 0.0
C292 C 0.76328 0.24109 0.7285 0.0
C293 C 0.75214 0.29568 0.5356 0.0
H294 H 0.77537 0.32148 0.54175 0.0
H295 H 0.74553 0.29042 0.42526 0.0
H296 H 0.72366 0.30535 0.59198 0.0
O297 O 0.85829 0.29199 0.35298 0.0
O298 O 0.89633 0.27694 0.53779 0.0
H299 H 0.77962 0.1712 0.91743 0.0
H300 H 0.74985 0.1569 0.7706 0.0
C301 C 0.78096 0.16756 0.80459 0.0
H302 H 0.8028 0.14254 0.77218 0.0
H303 H 0.8841 0.29289 0.83407 0.0
O304 O 0.80339 0.22634 0.21039 0.0
C305 C 0.88797 0.30045 0.43367 0.0
Co306 Co 0.65963 0.74294 0.87357 0.0
Co307 Co 0.6185 0.75981 0.1385 0.0
C308 C 0.58268 0.8033 0.91845 0.0
O309 O 0.60853 0.78126 0.85014 0.0
O310 O 0.58435 0.80357 0.04909 0.0
C311 C 0.67146 0.77971 0.6348 0.0
O312 O 0.66636 0.81851 0.67636 0.0
C313 C 0.62359 0.78276 0.42403 0.0
C314 C 0.63536 0.71997 0.50866 0.0
C315 C 0.64189 0.76213 0.53353 0.0
N316 N 0.60993 0.7541 0.33258 0.0
N317 N 0.61534 0.71662 0.38749 0.0
C318 C 0.62024 0.82918 0.40577 0.0
H319 H 0.64756 0.84613 0.44781 0.0
H320 H 0.59346 0.83982 0.46827 0.0
H321 H 0.61525 0.83762 0.29655 0.0
C322 C 0.7243 0.72425 0.09806 0.0
N323 N 0.69225 0.74543 0.03881 0.0
N324 N 0.67754 0.77224 0.12733 0.0
C325 C 0.70334 0.77332 0.23777 0.0
C326 C 0.732 0.74057 0.22942 0.0
C327 C 0.74322 0.68582 0.03704 0.0
H328 H 0.71985 0.66013 0.0419 0.0
H329 H 0.75027 0.69115 0.92704 0.0
H330 H 0.77145 0.67596 0.09446 0.0
O331 O 0.63682 0.68945 0.85398 0.0
O332 O 0.59869 0.7047 0.03837 0.0
H333 H 0.71554 0.81049 0.41798 0.0
H334 H 0.74509 0.82491 0.27079 0.0
C335 C 0.71408 0.81409 0.30514 0.0
H336 H 0.69208 0.839 0.27291 0.0
H337 H 0.61096 0.68861 0.33415 0.0
O338 O 0.69186 0.75478 0.71101 0.0
C339 C 0.60705 0.68111 0.93441 0.0
Co340 Co 0.64988 0.26156 0.16649 0.0
Co341 Co 0.60162 0.25263 0.90331 0.0
C342 C 0.58288 0.19065 0.09518 0.0
O343 O 0.6086 0.21272 0.16465 0.0
O344 O 0.57472 0.20002 0.97005 0.0
C345 C 0.6502 0.23924 0.42095 0.0
O346 O 0.64188 0.19929 0.40472 0.0
C347 C 0.59457 0.25057 0.60957 0.0
C348 C 0.64027 0.30125 0.57911 0.0
C349 C 0.62613 0.2644 0.52156 0.0
N350 N 0.594 0.27494 0.72133 0.0
N351 N 0.61908 0.30709 0.697 0.0
C352 C 0.56242 0.21772 0.58402 0.0
H353 H 0.57481 0.19241 0.51942 0.0
H354 H 0.53593 0.23215 0.52747 0.0
H355 H 0.55009 0.20559 0.68279 0.0
C356 C 0.72265 0.26631 0.95134 0.0
N357 N 0.68331 0.26068 1.00092 0.0
N358 N 0.66105 0.2429 0.90463 0.0
C359 C 0.68611 0.2316 0.79938 0.0
C360 C 0.72579 0.24793 0.82007 0.0
C361 C 0.75453 0.29287 0.02104 0.0
H362 H 0.74382 0.32593 1.01751 0.0
H363 H 0.75681 0.28426 0.13089 0.0
H364 H 0.78504 0.29085 0.96808 0.0
O365 O 0.61931 0.3124 0.20022 0.0
O366 O 0.57802 0.29876 0.02506 0.0
H367 H 0.69761 0.19387 0.61837 0.0
H368 H 0.68113 0.1658 0.77017 0.0
C369 C 0.6768 0.19485 0.70949 0.0
H370 H 0.64388 0.19423 0.6797 0.0
H371 H 0.62744 0.32909 0.77139 0.0
O372 O 0.67722 0.25629 0.34273 0.0
C373 C 0.58651 0.31958 0.13326 0.0
Co374 Co 0.84539 0.72052 0.66773 0.0
Co375 Co 0.89357 0.72944 0.40454 0.0
C376 C 0.91243 0.79138 0.59637 0.0
O377 O 0.88671 0.76933 0.66587 0.0
O378 O 0.92054 0.78202 0.47119 0.0
C379 C 0.84504 0.74292 0.92208 0.0
O380 O 0.8534 0.78286 0.90597 0.0
C381 C 0.9006 0.7315 0.11083 0.0
C382 C 0.85483 0.6809 0.08022 0.0
C383 C 0.86905 0.71772 0.02273 0.0
N384 N 0.90113 0.70712 0.22255 0.0
N385 N 0.87598 0.67501 0.19816 0.0
C386 C 0.93285 0.76427 0.0853 0.0
H387 H 0.92054 0.78956 0.0205 0.0
H388 H 0.95933 0.74974 0.02902 0.0
H389 H 0.94514 0.77642 0.1841 0.0
C390 C 0.77266 0.71552 0.45238 0.0
N391 N 0.81195 0.72134 0.50218 0.0
N392 N 0.83417 0.73923 0.40602 0.0
C393 C 0.8091 0.75041 0.30064 0.0
C394 C 0.76948 0.7339 0.32113 0.0
C395 C 0.74091 0.68872 0.52174 0.0
H396 H 0.75165 0.65568 0.51694 0.0
H397 H 0.73877 0.697 0.63191 0.0
H398 H 0.71033 0.69085 0.46929 0.0
O399 O 0.87594 0.6697 0.70163 0.0
O400 O 0.91716 0.68331 0.52628 0.0
H401 H 0.79755 0.78805 0.11949 0.0
H402 H 0.81386 0.81622 0.27129 0.0
C403 C 0.81833 0.78717 0.21071 0.0
H404 H 0.85126 0.78788 0.18109 0.0
H405 H 0.86758 0.65303 0.27252 0.0
O406 O 0.81801 0.72591 0.84383 0.0
C407 C 0.90871 0.66251 0.63454 0.0
Co408 Co 0.51772 0.58811 0.91742 0.0
Co409 Co 0.5089 0.63639 0.65471 0.0
C410 C 0.44721 0.6557 0.84634 0.0
O411 O 0.46916 0.62984 0.91567 0.0
O412 O 0.45651 0.66373 0.72107 0.0
C413 C 0.4954 0.58797 0.17202 0.0
O414 O 0.45555 0.59669 0.15563 0.0
C415 C 0.50711 0.6434 0.36095 0.0
C416 C 0.55734 0.59716 0.33089 0.0
C417 C 0.52071 0.61171 0.27303 0.0
N418 N 0.5314 0.64374 0.47288 0.0
N419 N 0.56331 0.61829 0.44884 0.0
C420 C 0.4748 0.67606 0.33467 0.0
H421 H 0.44934 0.66396 0.27017 0.0
H422 H 0.48968 0.7022 0.27769 0.0
H423 H 0.46281 0.68876 0.43315 0.0
C424 C 0.52232 0.51539 0.70145 0.0
N425 N 0.51661 0.55465 0.75185 0.0
N426 N 0.49869 0.57703 0.65613 0.0
C427 C 0.48736 0.55211 0.55054 0.0
C428 C 0.50382 0.51242 0.5703 0.0
C429 C 0.54928 0.48355 0.76979 0.0
H430 H 0.58215 0.49484 0.76781 0.0
H431 H 0.5405 0.48048 0.87926 0.0
H432 H 0.54793 0.4533 0.71492 0.0
O433 O 0.56877 0.61828 0.95117 0.0
O434 O 0.55505 0.6598 0.7767 0.0
H435 H 0.44967 0.54087 0.36929 0.0
H436 H 0.42161 0.55743 0.52107 0.0
C437 C 0.4507 0.56164 0.46053 0.0
H438 H 0.45027 0.59457 0.43079 0.0
H439 H 0.58515 0.6097 0.52342 0.0
O440 O 0.51225 0.56084 0.09372 0.0
C441 C 0.57592 0.65117 0.88469 0.0
Co442 Co 0.97715 0.39372 0.41725 0.0
Co443 Co 0.98603 0.34541 0.15421 0.0
C444 C 0.04792 0.32647 0.34612 0.0
O445 O 0.0259 0.35226 0.41556 0.0
O446 O 0.03855 0.31836 0.22094 0.0
C447 C -0.00059 0.39399 0.67183 0.0
O448 O 0.03933 0.38554 0.65551 0.0
C449 C 0.98797 0.33837 0.86042 0.0
C450 C 0.93743 0.38425 0.83015 0.0
C451 C 0.97421 0.36999 0.77249 0.0
N452 N 0.96365 0.33787 0.97226 0.0
N453 N 0.93156 0.36307 0.94804 0.0
C454 C 0.02077 0.30614 0.83484 0.0
H455 H 0.04611 0.3185 0.77036 0.0
H456 H 0.0063 0.2797 0.77818 0.0
H457 H 0.03286 0.29376 0.93361 0.0
C458 C 0.97261 0.4665 0.20183 0.0
N459 N 0.97815 0.42716 0.25166 0.0
N460 N -0.00408 0.40481 0.15555 0.0
C461 C 0.00729 0.4298 0.05021 0.0
C462 C -0.00899 0.46952 0.07055 0.0
C463 C 0.94606 0.49849 0.27118 0.0
H464 H 0.91305 0.48764 0.26876 0.0
H465 H 0.95489 0.5011 0.38076 0.0
H466 H 0.94784 0.52887 0.2173 0.0
O467 O 0.92623 0.36329 0.45084 0.0
O468 O 0.9399 0.3219 0.27596 0.0
H469 H 0.04511 0.44114 0.86931 0.0
H470 H 0.07307 0.42451 0.0212 0.0
C471 C 0.04402 0.42032 0.96042 0.0
H472 H 0.04449 0.38741 0.93056 0.0
H473 H 0.90961 0.37149 0.0225 0.0
O474 O 0.98241 0.42103 0.59356 0.0
C475 C 0.91906 0.33045 0.38406 0.0
Co476 Co 0.49438 0.40285 0.12211 0.0
Co477 Co 0.47773 0.36186 0.38706 0.0
C478 C 0.43457 0.32556 0.1672 0.0
O479 O 0.45645 0.3515 0.09875 0.0
O480 O 0.43422 0.32736 0.29783 0.0
C481 C 0.45725 0.41465 0.88366 0.0
O482 O 0.41849 0.40926 0.92505 0.0
C483 C 0.45462 0.36691 0.67248 0.0
C484 C 0.51727 0.37893 0.75774 0.0
C485 C 0.47507 0.38523 0.78232 0.0
N486 N 0.48342 0.35343 0.58121 0.0
N487 N 0.52083 0.359 0.63645 0.0
C488 C 0.40823 0.36359 0.65343 0.0
H489 H 0.39124 0.39091 0.69531 0.0
H490 H 0.39749 0.33681 0.7157 0.0
H491 H 0.39997 0.35861 0.54405 0.0
C492 C 0.51331 0.46723 0.34714 0.0
N493 N 0.49192 0.4354 0.2875 0.0
N494 N 0.46494 0.42085 0.37569 0.0
C495 C 0.46394 0.44663 0.48622 0.0
C496 C 0.49688 0.47506 0.47824 0.0
C497 C 0.55202 0.48576 0.28681 0.0
H498 H 0.5774 0.46203 0.29138 0.0
H499 H 0.54686 0.49307 0.1769 0.0
H500 H 0.5622 0.51375 0.34485 0.0
O501 O 0.54795 0.38031 0.102 0.0
O502 O 0.53297 0.34231 0.28697 0.0
H503 H 0.42682 0.459 0.66638 0.0
H504 H 0.41253 0.48862 0.51913 0.0
C505 C 0.42322 0.45756 0.55352 0.0
H506 H 0.39823 0.43566 0.52129 0.0
H507 H 0.5489 0.35479 0.58332 0.0
O508 O 0.48203 0.43517 0.96006 0.0
C509 C 0.55647 0.35067 0.18281 0.0
Co510 Co 0.00089 0.57923 0.62309 0.0
Co511 Co 0.01747 0.62022 0.88833 0.0
C512 C 0.06079 0.6564 0.66838 0.0
O513 O 0.0389 0.63049 0.59986 0.0
O514 O 0.06106 0.65464 0.79901 0.0
C515 C 0.03797 0.56746 0.3847 0.0
O516 O 0.07677 0.5727 0.426 0.0
C517 C 0.04066 0.61518 0.1736 0.0
C518 C 0.97801 0.60341 0.25921 0.0
C519 C 0.02021 0.59697 0.28358 0.0
N520 N 0.01187 0.62874 0.08245 0.0
N521 N 0.97446 0.62331 0.13789 0.0
C522 C 0.08706 0.61833 0.15424 0.0
H523 H 0.10398 0.59098 0.1962 0.0
H524 H 0.09794 0.64511 0.21626 0.0
H525 H 0.09527 0.62321 0.04479 0.0
C526 C 0.98185 0.51477 0.84747 0.0
N527 N 0.00328 0.54666 0.78837 0.0
N528 N 0.03011 0.56121 0.87708 0.0
C529 C 0.03095 0.53539 0.98753 0.0
C530 C -0.00194 0.50694 0.97886 0.0
C531 C 0.94335 0.49611 0.78616 0.0
H532 H 0.91765 0.51946 0.79263 0.0
H533 H 0.94851 0.48954 0.67574 0.0
H534 H 0.9336 0.46764 0.84241 0.0
O535 O 0.94736 0.60186 0.60305 0.0
O536 O 0.96224 0.63979 0.7883 0.0
H537 H 0.06797 0.52303 0.16793 0.0
H538 H 0.08219 0.49322 0.0211 0.0
C539 C 0.07162 0.52436 0.0551 0.0
H540 H 0.09671 0.54612 0.02274 0.0
H541 H 0.94639 0.62761 0.08491 0.0
O542 O 0.01318 0.54693 0.46098 0.0
C543 C 0.93878 0.63145 0.68401 0.0
loop_
_geom_bond_atom_site_label_1
_geom_bond_atom_site_label_2
_geom_bond_distance
_geom_bond_site_symmetry_2
_ccdc_geom_bond_type
Co0 O3 1.970 1_455 S
Co0 N17 1.989 . S
Co0 O25 1.967 . S
Co0 O32 1.920 . S
Co1 O4 1.966 1_455 S
Co1 N10 2.022 1_554 S
Co1 N18 1.993 . S
Co1 O26 1.941 . S
C2 O3 1.258 . S
C2 O4 1.263 . S
O3 Co0 1.970 1_655 S
O3 C2 1.258 . S
O4 Co1 1.966 1_655 S
O4 C2 1.263 . S
C5 O6 1.235 . S
C5 O32 1.289 1_655 S
O6 C5 1.235 . S
C7 C9 1.400 . S
C7 N10 1.351 1_655 S
C7 C12 1.501 . S
C8 C9 1.387 1_455 S
C8 N11 1.341 . S
C9 C7 1.400 . S
C9 C8 1.387 1_655 S
N10 Co1 2.022 1_556 S
N10 C7 1.351 1_455 S
N10 N11 1.365 . S
N11 C8 1.341 . S
N11 N10 1.365 . S
N11 H31 0.862 . S
C12 C7 1.501 . S
C12 H13 0.961 . S
C12 H14 0.961 . S
C12 H15 0.960 . S
H13 C12 0.961 . S
H14 C12 0.961 . S
H15 C12 0.960 . S
C16 N17 1.342 . S
C16 C20 1.401 . S
C16 C21 1.499 1_545 S
N17 Co0 1.989 . S
N17 C16 1.342 . S
N17 N18 1.388 . S
N18 Co1 1.993 . S
N18 N17 1.388 . S
N18 C19 1.346 . S
C19 N18 1.346 . S
C19 C20 1.396 . S
C19 C29 1.510 1_554 S
C20 C16 1.401 . S
C20 C19 1.396 . S
C21 C16 1.499 1_565 S
C21 H22 0.959 1_565 S
C21 H23 0.960 . S
C21 H24 0.961 . S
H22 C21 0.959 1_545 S
H23 C21 0.960 . S
H24 C21 0.961 . S
O25 Co0 1.967 . S
O25 C33 1.258 . S
O26 Co1 1.941 . S
O26 C33 1.266 . S
H27 C29 0.959 . S
H28 C29 0.961 1_655 S
C29 C19 1.510 1_556 S
C29 H27 0.959 . S
C29 H28 0.961 1_455 S
C29 H30 0.960 . S
H30 C29 0.960 . S
H31 N11 0.862 . S
O32 Co0 1.920 . S
O32 C5 1.289 1_455 S
C33 O25 1.258 . S
C33 O26 1.266 . S
Co34 O37 1.970 . S
Co34 N51 1.989 . S
Co34 O59 1.967 . S
Co34 O66 1.920 . S
Co35 O38 1.966 . S
Co35 N44 2.022 . S
Co35 N52 1.993 . S
Co35 O60 1.941 . S
C36 O37 1.258 . S
C36 O38 1.263 . S
O37 Co34 1.970 . S
O37 C36 1.258 . S
O38 Co35 1.966 . S
O38 C36 1.263 . S
C39 O40 1.235 . S
C39 O66 1.289 . S
O40 C39 1.235 . S
C41 C43 1.400 1_554 S
C41 N44 1.351 . S
C41 C46 1.501 . S
C42 C43 1.387 . S
C42 N45 1.341 1_556 S
C43 C41 1.400 1_556 S
C43 C42 1.387 . S
N44 Co35 2.022 . S
N44 C41 1.351 . S
N44 N45 1.365 . S
N45 C42 1.341 1_554 S
N45 N44 1.365 . S
N45 H65 0.862 . S
C46 C41 1.501 . S
C46 H47 0.961 . S
C46 H48 0.961 . S
C46 H49 0.960 . S
H47 C46 0.961 . S
H48 C46 0.961 . S
H49 C46 0.960 . S
C50 N51 1.342 . S
C50 C54 1.401 . S
C50 C55 1.499 . S
N51 Co34 1.989 . S
N51 C50 1.342 . S
N51 N52 1.388 . S
N52 Co35 1.993 . S
N52 N51 1.388 . S
N52 C53 1.346 . S
C53 N52 1.346 . S
C53 C54 1.396 . S
C53 C63 1.510 . S
C54 C50 1.401 . S
C54 C53 1.396 . S
C55 C50 1.499 . S
C55 H56 0.959 . S
C55 H57 0.960 . S
C55 H58 0.961 . S
H56 C55 0.959 . S
H57 C55 0.960 . S
H58 C55 0.961 . S
O59 Co34 1.967 . S
O59 C67 1.258 . S
O60 Co35 1.941 . S
O60 C67 1.266 . S
H61 C63 0.959 . S
H62 C63 0.961 . S
C63 C53 1.510 . S
C63 H61 0.959 . S
C63 H62 0.961 . S
C63 H64 0.960 . S
H64 C63 0.960 . S
H65 N45 0.862 . S
O66 Co34 1.920 . S
O66 C39 1.289 . S
C67 O59 1.258 . S
C67 O60 1.266 . S
Co68 O71 1.970 . S
Co68 N85 1.989 . S
Co68 O93 1.967 . S
Co68 O100 1.920 1_556 S
Co69 O72 1.966 . S
Co69 N78 2.022 . S
Co69 N86 1.993 . S
Co69 O94 1.941 . S
C70 O71 1.258 . S
C70 O72 1.263 . S
O71 Co68 1.970 . S
O71 C70 1.258 . S
O72 Co69 1.966 . S
O72 C70 1.263 . S
C73 O74 1.235 . S
C73 O100 1.289 . S
O74 C73 1.235 . S
C75 C77 1.400 . S
C75 N78 1.351 . S
C75 C80 1.501 . S
C76 C77 1.387 . S
C76 N79 1.341 . S
C77 C75 1.400 . S
C77 C76 1.387 . S
N78 Co69 2.022 . S
N78 C75 1.351 . S
N78 N79 1.365 . S
N79 C76 1.341 . S
N79 N78 1.365 . S
N79 H99 0.862 . S
C80 C75 1.501 . S
C80 H81 0.961 . S
C80 H82 0.961 . S
C80 H83 0.960 . S
H81 C80 0.961 . S
H82 C80 0.961 . S
H83 C80 0.960 . S
C84 N85 1.342 . S
C84 C88 1.401 . S
C84 C89 1.499 1_565 S
N85 Co68 1.989 . S
N85 C84 1.342 . S
N85 N86 1.388 . S
N86 Co69 1.993 . S
N86 N85 1.388 . S
N86 C87 1.346 . S
C87 N86 1.346 . S
C87 C88 1.396 . S
C87 C97 1.510 . S
C88 C84 1.401 . S
C88 C87 1.396 . S
C89 C84 1.499 1_545 S
C89 H90 0.959 1_545 S
C89 H91 0.960 . S
C89 H92 0.961 . S
H90 C89 0.959 1_565 S
H91 C89 0.960 . S
H92 C89 0.961 . S
O93 Co68 1.967 . S
O93 C101 1.258 . S
O94 Co69 1.941 . S
O94 C101 1.266 . S
H95 C97 0.959 . S
H96 C97 0.961 . S
C97 C87 1.510 . S
C97 H95 0.959 . S
C97 H96 0.961 . S
C97 H98 0.960 . S
H98 C97 0.960 . S
H99 N79 0.862 . S
O100 Co68 1.920 1_554 S
O100 C73 1.289 . S
C101 O93 1.258 . S
C101 O94 1.266 . S
Co102 O105 1.970 . S
Co102 N119 1.989 . S
Co102 O127 1.967 . S
Co102 O134 1.920 . S
Co103 O106 1.966 . S
Co103 N112 2.022 . S
Co103 N120 1.993 . S
Co103 O128 1.941 . S
C104 O105 1.258 . S
C104 O106 1.263 1_554 S
O105 Co102 1.970 . S
O105 C104 1.258 . S
O106 Co103 1.966 . S
O106 C104 1.263 1_556 S
C107 O108 1.235 . S
C107 O134 1.289 . S
O108 C107 1.235 . S
C109 C111 1.400 . S
C109 N112 1.351 . S
C109 C114 1.501 . S
C110 C111 1.387 . S
C110 N113 1.341 . S
C111 C109 1.400 . S
C111 C110 1.387 . S
N112 Co103 2.022 . S
N112 C109 1.351 . S
N112 N113 1.365 . S
N113 C110 1.341 . S
N113 N112 1.365 . S
N113 H133 0.862 . S
C114 C109 1.501 . S
C114 H115 0.961 . S
C114 H116 0.961 . S
C114 H117 0.960 . S
H115 C114 0.961 . S
H116 C114 0.961 . S
H117 C114 0.960 . S
C118 N119 1.342 . S
C118 C122 1.401 1_554 S
C118 C123 1.499 . S
N119 Co102 1.989 . S
N119 C118 1.342 . S
N119 N120 1.388 1_554 S
N120 Co103 1.993 . S
N120 N119 1.388 1_556 S
N120 C121 1.346 . S
C121 N120 1.346 . S
C121 C122 1.396 . S
C121 C131 1.510 . S
C122 C118 1.401 1_556 S
C122 C121 1.396 . S
C123 C118 1.499 . S
C123 H124 0.959 . S
C123 H125 0.960 . S
C123 H126 0.961 . S
H124 C123 0.959 . S
H125 C123 0.960 . S
H126 C123 0.961 . S
O127 Co102 1.967 . S
O127 C135 1.258 . S
O128 Co103 1.941 . S
O128 C135 1.266 1_556 S
H129 C131 0.959 . S
H130 C131 0.961 . S
C131 C121 1.510 . S
C131 H129 0.959 . S
C131 H130 0.961 . S
C131 H132 0.960 . S
H132 C131 0.960 . S
H133 N113 0.862 . S
O134 Co102 1.920 . S
O134 C107 1.289 . S
C135 O127 1.258 . S
C135 O128 1.266 1_554 S
Co136 O139 1.970 1_455 S
Co136 N153 1.989 . S
Co136 O161 1.967 . S
Co136 O168 1.920 . S
Co137 O140 1.966 1_455 S
Co137 N146 2.022 1_556 S
Co137 N154 1.993 . S
Co137 O162 1.941 . S
C138 O139 1.258 . S
C138 O140 1.263 . S
O139 Co136 1.970 1_655 S
O139 C138 1.258 . S
O140 Co137 1.966 1_655 S
O140 C138 1.263 . S
C141 O142 1.235 . S
C141 O168 1.289 1_655 S
O142 C141 1.235 . S
C143 C145 1.400 . S
C143 N146 1.351 1_655 S
C143 C148 1.501 . S
C144 C145 1.387 1_455 S
C144 N147 1.341 . S
C145 C143 1.400 . S
C145 C144 1.387 1_655 S
N146 Co137 2.022 1_554 S
N146 C143 1.351 1_455 S
N146 N147 1.365 . S
N147 C144 1.341 . S
N147 N146 1.365 . S
N147 H167 0.862 . S
C148 C143 1.501 . S
C148 H149 0.961 . S
C148 H150 0.961 . S
C148 H151 0.960 . S
H149 C148 0.961 . S
H150 C148 0.961 . S
H151 C148 0.960 . S
C152 N153 1.342 . S
C152 C156 1.401 . S
C152 C157 1.499 1_565 S
N153 Co136 1.989 . S
N153 C152 1.342 . S
N153 N154 1.388 . S
N154 Co137 1.993 . S
N154 N153 1.388 . S
N154 C155 1.346 . S
C155 N154 1.346 . S
C155 C156 1.396 . S
C155 C165 1.510 1_556 S
C156 C152 1.401 . S
C156 C155 1.396 . S
C157 C152 1.499 1_545 S
C157 H158 0.959 1_545 S
C157 H159 0.960 . S
C157 H160 0.961 . S
H158 C157 0.959 1_565 S
H159 C157 0.960 . S
H160 C157 0.961 . S
O161 Co136 1.967 . S
O161 C169 1.258 . S
O162 Co137 1.941 . S
O162 C169 1.266 . S
H163 C165 0.959 . S
H164 C165 0.961 1_655 S
C165 C155 1.510 1_554 S
C165 H163 0.959 . S
C165 H164 0.961 1_455 S
C165 H166 0.960 . S
H166 C165 0.960 . S
H167 N147 0.862 . S
O168 Co136 1.920 . S
O168 C141 1.289 1_455 S
C169 O161 1.258 . S
C169 O162 1.266 . S
Co170 O173 1.970 . S
Co170 N187 1.989 . S
Co170 O195 1.967 . S
Co170 O202 1.920 . S
Co171 O174 1.966 . S
Co171 N180 2.022 . S
Co171 N188 1.993 . S
Co171 O196 1.941 . S
C172 O173 1.258 . S
C172 O174 1.263 1_556 S
O173 Co170 1.970 . S
O173 C172 1.258 . S
O174 Co171 1.966 . S
O174 C172 1.263 1_554 S
C175 O176 1.235 . S
C175 O202 1.289 . S
O176 C175 1.235 . S
C177 C179 1.400 . S
C177 N180 1.351 . S
C177 C182 1.501 . S
C178 C179 1.387 . S
C178 N181 1.341 . S
C179 C177 1.400 . S
C179 C178 1.387 . S
N180 Co171 2.022 . S
N180 C177 1.351 . S
N180 N181 1.365 . S
N181 C178 1.341 . S
N181 N180 1.365 . S
N181 H201 0.862 . S
C182 C177 1.501 . S
C182 H183 0.961 . S
C182 H184 0.961 . S
C182 H185 0.960 . S
H183 C182 0.961 . S
H184 C182 0.961 . S
H185 C182 0.960 . S
C186 N187 1.342 . S
C186 C190 1.401 1_556 S
C186 C191 1.499 . S
N187 Co170 1.989 . S
N187 C186 1.342 . S
N187 N188 1.388 1_556 S
N188 Co171 1.993 . S
N188 N187 1.388 1_554 S
N188 C189 1.346 . S
C189 N188 1.346 . S
C189 C190 1.396 . S
C189 C199 1.510 . S
C190 C186 1.401 1_554 S
C190 C189 1.396 . S
C191 C186 1.499 . S
C191 H192 0.959 . S
C191 H193 0.960 . S
C191 H194 0.961 . S
H192 C191 0.959 . S
H193 C191 0.960 . S
H194 C191 0.961 . S
O195 Co170 1.967 . S
O195 C203 1.258 . S
O196 Co171 1.941 . S
O196 C203 1.266 1_554 S
H197 C199 0.959 . S
H198 C199 0.961 . S
C199 C189 1.510 . S
C199 H197 0.959 . S
C199 H198 0.961 . S
C199 H200 0.960 . S
H200 C199 0.960 . S
H201 N181 0.862 . S
O202 Co170 1.920 . S
O202 C175 1.289 . S
C203 O195 1.258 . S
C203 O196 1.266 1_556 S
Co204 O207 1.970 . S
Co204 N221 1.989 . S
Co204 O229 1.967 . S
Co204 O236 1.920 1_554 S
Co205 O208 1.966 . S
Co205 N214 2.022 . S
Co205 N222 1.993 . S
Co205 O230 1.941 . S
C206 O207 1.258 . S
C206 O208 1.263 . S
O207 Co204 1.970 . S
O207 C206 1.258 . S
O208 Co205 1.966 . S
O208 C206 1.263 . S
C209 O210 1.235 . S
C209 O236 1.289 . S
O210 C209 1.235 . S
C211 C213 1.400 . S
C211 N214 1.351 . S
C211 C216 1.501 . S
C212 C213 1.387 . S
C212 N215 1.341 . S
C213 C211 1.400 . S
C213 C212 1.387 . S
N214 Co205 2.022 . S
N214 C211 1.351 . S
N214 N215 1.365 . S
N215 C212 1.341 . S
N215 N214 1.365 . S
N215 H235 0.862 . S
C216 C211 1.501 . S
C216 H217 0.961 . S
C216 H218 0.961 . S
C216 H219 0.960 . S
H217 C216 0.961 . S
H218 C216 0.961 . S
H219 C216 0.960 . S
C220 N221 1.342 . S
C220 C224 1.401 . S
C220 C225 1.499 1_545 S
N221 Co204 1.989 . S
N221 C220 1.342 . S
N221 N222 1.388 . S
N222 Co205 1.993 . S
N222 N221 1.388 . S
N222 C223 1.346 . S
C223 N222 1.346 . S
C223 C224 1.396 . S
C223 C233 1.510 . S
C224 C220 1.401 . S
C224 C223 1.396 . S
C225 C220 1.499 1_565 S
C225 H226 0.959 1_565 S
C225 H227 0.960 . S
C225 H228 0.961 . S
H226 C225 0.959 1_545 S
H227 C225 0.960 . S
H228 C225 0.961 . S
O229 Co204 1.967 . S
O229 C237 1.258 . S
O230 Co205 1.941 . S
O230 C237 1.266 . S
H231 C233 0.959 . S
H232 C233 0.961 . S
C233 C223 1.510 . S
C233 H231 0.959 . S
C233 H232 0.961 . S
C233 H234 0.960 . S
H234 C233 0.960 . S
H235 N215 0.862 . S
O236 Co204 1.920 1_556 S
O236 C209 1.289 . S
C237 O229 1.258 . S
C237 O230 1.266 . S
Co238 O241 1.970 . S
Co238 N255 1.989 . S
Co238 O263 1.967 . S
Co238 O270 1.920 . S
Co239 O242 1.966 . S
Co239 N248 2.022 . S
Co239 N256 1.993 . S
Co239 O264 1.941 . S
C240 O241 1.258 . S
C240 O242 1.263 . S
O241 Co238 1.970 . S
O241 C240 1.258 . S
O242 Co239 1.966 . S
O242 C240 1.263 . S
C243 O244 1.235 . S
C243 O270 1.289 . S
O244 C243 1.235 . S
C245 C247 1.400 1_556 S
C245 N248 1.351 . S
C245 C250 1.501 . S
C246 C247 1.387 . S
C246 N249 1.341 1_554 S
C247 C245 1.400 1_554 S
C247 C246 1.387 . S
N248 Co239 2.022 . S
N248 C245 1.351 . S
N248 N249 1.365 . S
N249 C246 1.341 1_556 S
N249 N248 1.365 . S
N249 H269 0.862 . S
C250 C245 1.501 . S
C250 H251 0.961 . S
C250 H252 0.961 . S
C250 H253 0.960 . S
H251 C250 0.961 . S
H252 C250 0.961 . S
H253 C250 0.960 . S
C254 N255 1.342 . S
C254 C258 1.401 . S
C254 C259 1.499 . S
N255 Co238 1.989 . S
N255 C254 1.342 . S
N255 N256 1.388 . S
N256 Co239 1.993 . S
N256 N255 1.388 . S
N256 C257 1.346 . S
C257 N256 1.346 . S
C257 C258 1.396 . S
C257 C267 1.510 . S
C258 C254 1.401 . S
C258 C257 1.396 . S
C259 C254 1.499 . S
C259 H260 0.959 . S
C259 H261 0.960 . S
C259 H262 0.961 . S
H260 C259 0.959 . S
H261 C259 0.960 . S
H262 C259 0.961 . S
O263 Co238 1.967 . S
O263 C271 1.258 . S
O264 Co239 1.941 . S
O264 C271 1.266 . S
H265 C267 0.959 . S
H266 C267 0.961 . S
C267 C257 1.510 . S
C267 H265 0.959 . S
C267 H266 0.961 . S
C267 H268 0.960 . S
H268 C267 0.960 . S
H269 N249 0.862 . S
O270 Co238 1.920 . S
O270 C243 1.289 . S
C271 O263 1.258 . S
C271 O264 1.266 . S
Co272 O275 1.970 . S
Co272 N289 1.989 . S
Co272 O297 1.967 . S
Co272 O304 1.920 . S
Co273 O276 1.966 . S
Co273 N282 2.022 . S
Co273 N290 1.993 . S
Co273 O298 1.941 . S
C274 O275 1.258 . S
C274 O276 1.263 . S
O275 Co272 1.970 . S
O275 C274 1.258 . S
O276 Co273 1.966 . S
O276 C274 1.263 . S
C277 O278 1.235 . S
C277 O304 1.289 . S
O278 C277 1.235 . S
C279 C281 1.400 1_556 S
C279 N282 1.351 . S
C279 C284 1.501 . S
C280 C281 1.387 . S
C280 N283 1.341 1_554 S
C281 C279 1.400 1_554 S
C281 C280 1.387 . S
N282 Co273 2.022 . S
N282 C279 1.351 . S
N282 N283 1.365 . S
N283 C280 1.341 1_556 S
N283 N282 1.365 . S
N283 H303 0.862 . S
C284 C279 1.501 . S
C284 H285 0.961 . S
C284 H286 0.961 . S
C284 H287 0.960 . S
H285 C284 0.961 . S
H286 C284 0.961 . S
H287 C284 0.960 . S
C288 N289 1.342 . S
C288 C292 1.401 . S
C288 C293 1.499 . S
N289 Co272 1.989 . S
N289 C288 1.342 . S
N289 N290 1.388 . S
N290 Co273 1.993 . S
N290 N289 1.388 . S
N290 C291 1.346 . S
C291 N290 1.346 . S
C291 C292 1.396 . S
C291 C301 1.510 . S
C292 C288 1.401 . S
C292 C291 1.396 . S
C293 C288 1.499 . S
C293 H294 0.959 . S
C293 H295 0.960 . S
C293 H296 0.961 . S
H294 C293 0.959 . S
H295 C293 0.960 . S
H296 C293 0.961 . S
O297 Co272 1.967 . S
O297 C305 1.258 . S
O298 Co273 1.941 . S
O298 C305 1.266 . S
H299 C301 0.959 . S
H300 C301 0.961 . S
C301 C291 1.510 . S
C301 H299 0.959 . S
C301 H300 0.961 . S
C301 H302 0.960 . S
H302 C301 0.960 . S
H303 N283 0.862 . S
O304 Co272 1.920 . S
O304 C277 1.289 . S
C305 O297 1.258 . S
C305 O298 1.266 . S
Co306 O309 1.970 . S
Co306 N323 1.989 . S
Co306 O331 1.967 . S
Co306 O338 1.920 . S
Co307 O310 1.966 . S
Co307 N316 2.022 . S
Co307 N324 1.993 . S
Co307 O332 1.941 . S
C308 O309 1.258 . S
C308 O310 1.263 1_556 S
O309 Co306 1.970 . S
O309 C308 1.258 . S
O310 Co307 1.966 . S
O310 C308 1.263 1_554 S
C311 O312 1.235 . S
C311 O338 1.289 . S
O312 C311 1.235 . S
C313 C315 1.400 . S
C313 N316 1.351 . S
C313 C318 1.501 . S
C314 C315 1.387 . S
C314 N317 1.341 . S
C315 C313 1.400 . S
C315 C314 1.387 . S
N316 Co307 2.022 . S
N316 C313 1.351 . S
N316 N317 1.365 . S
N317 C314 1.341 . S
N317 N316 1.365 . S
N317 H337 0.862 . S
C318 C313 1.501 . S
C318 H319 0.961 . S
C318 H320 0.961 . S
C318 H321 0.960 . S
H319 C318 0.961 . S
H320 C318 0.961 . S
H321 C318 0.960 . S
C322 N323 1.342 . S
C322 C326 1.401 1_556 S
C322 C327 1.499 . S
N323 Co306 1.989 . S
N323 C322 1.342 . S
N323 N324 1.388 1_556 S
N324 Co307 1.993 . S
N324 N323 1.388 1_554 S
N324 C325 1.346 . S
C325 N324 1.346 . S
C325 C326 1.396 . S
C325 C335 1.510 . S
C326 C322 1.401 1_554 S
C326 C325 1.396 . S
C327 C322 1.499 . S
C327 H328 0.959 . S
C327 H329 0.960 . S
C327 H330 0.961 . S
H328 C327 0.959 . S
H329 C327 0.960 . S
H330 C327 0.961 . S
O331 Co306 1.967 . S
O331 C339 1.258 . S
O332 Co307 1.941 . S
O332 C339 1.266 1_554 S
H333 C335 0.959 . S
H334 C335 0.961 . S
C335 C325 1.510 . S
C335 H333 0.959 . S
C335 H334 0.961 . S
C335 H336 0.960 . S
H336 C335 0.960 . S
H337 N317 0.862 . S
O338 Co306 1.920 . S
O338 C311 1.289 . S
C339 O331 1.258 . S
C339 O332 1.266 1_556 S
Co340 O343 1.970 . S
Co340 N357 1.989 . S
Co340 O365 1.967 . S
Co340 O372 1.920 . S
Co341 O344 1.966 . S
Co341 N350 2.022 . S
Co341 N358 1.993 . S
Co341 O366 1.941 . S
C342 O343 1.258 . S
C342 O344 1.263 1_554 S
O343 Co340 1.970 . S
O343 C342 1.258 . S
O344 Co341 1.966 . S
O344 C342 1.263 1_556 S
C345 O346 1.235 . S
C345 O372 1.289 . S
O346 C345 1.235 . S
C347 C349 1.400 . S
C347 N350 1.351 . S
C347 C352 1.501 . S
C348 C349 1.387 . S
C348 N351 1.341 . S
C349 C347 1.400 . S
C349 C348 1.387 . S
N350 Co341 2.022 . S
N350 C347 1.351 . S
N350 N351 1.365 . S
N351 C348 1.341 . S
N351 N350 1.365 . S
N351 H371 0.862 . S
C352 C347 1.501 . S
C352 H353 0.961 . S
C352 H354 0.961 . S
C352 H355 0.960 . S
H353 C352 0.961 . S
H354 C352 0.961 . S
H355 C352 0.960 . S
C356 N357 1.342 . S
C356 C360 1.401 1_554 S
C356 C361 1.499 . S
N357 Co340 1.989 . S
N357 C356 1.342 . S
N357 N358 1.388 1_554 S
N358 Co341 1.993 . S
N358 N357 1.388 1_556 S
N358 C359 1.346 . S
C359 N358 1.346 . S
C359 C360 1.396 . S
C359 C369 1.510 . S
C360 C356 1.401 1_556 S
C360 C359 1.396 . S
C361 C356 1.499 . S
C361 H362 0.959 . S
C361 H363 0.960 . S
C361 H364 0.961 . S
H362 C361 0.959 . S
H363 C361 0.960 . S
H364 C361 0.961 . S
O365 Co340 1.967 . S
O365 C373 1.258 . S
O366 Co341 1.941 . S
O366 C373 1.266 1_556 S
H367 C369 0.959 . S
H368 C369 0.961 . S
C369 C359 1.510 . S
C369 H367 0.959 . S
C369 H368 0.961 . S
C369 H370 0.960 . S
H370 C369 0.960 . S
H371 N351 0.862 . S
O372 Co340 1.920 . S
O372 C345 1.289 . S
C373 O365 1.258 . S
C373 O366 1.266 1_554 S
Co374 O377 1.970 . S
Co374 N391 1.989 . S
Co374 O399 1.967 . S
Co374 O406 1.920 . S
Co375 O378 1.966 . S
Co375 N384 2.022 . S
Co375 N392 1.993 . S
Co375 O400 1.941 . S
C376 O377 1.258 . S
C376 O378 1.263 . S
O377 Co374 1.970 . S
O377 C376 1.258 . S
O378 Co375 1.966 . S
O378 C376 1.263 . S
C379 O380 1.235 . S
C379 O406 1.289 . S
O380 C379 1.235 . S
C381 C383 1.400 1_554 S
C381 N384 1.351 . S
C381 C386 1.501 . S
C382 C383 1.387 . S
C382 N385 1.341 1_556 S
C383 C381 1.400 1_556 S
C383 C382 1.387 . S
N384 Co375 2.022 . S
N384 C381 1.351 . S
N384 N385 1.365 . S
N385 C382 1.341 1_554 S
N385 N384 1.365 . S
N385 H405 0.862 . S
C386 C381 1.501 . S
C386 H387 0.961 . S
C386 H388 0.961 . S
C386 H389 0.960 . S
H387 C386 0.961 . S
H388 C386 0.961 . S
H389 C386 0.960 . S
C390 N391 1.342 . S
C390 C394 1.401 . S
C390 C395 1.499 . S
N391 Co374 1.989 . S
N391 C390 1.342 . S
N391 N392 1.388 . S
N392 Co375 1.993 . S
N392 N391 1.388 . S
N392 C393 1.346 . S
C393 N392 1.346 . S
C393 C394 1.396 . S
C393 C403 1.510 . S
C394 C390 1.401 . S
C394 C393 1.396 . S
C395 C390 1.499 . S
C395 H396 0.959 . S
C395 H397 0.960 . S
C395 H398 0.961 . S
H396 C395 0.959 . S
H397 C395 0.960 . S
H398 C395 0.961 . S
O399 Co374 1.967 . S
O399 C407 1.258 . S
O400 Co375 1.941 . S
O400 C407 1.266 . S
H401 C403 0.959 . S
H402 C403 0.961 . S
C403 C393 1.510 . S
C403 H401 0.959 . S
C403 H402 0.961 . S
C403 H404 0.960 . S
H404 C403 0.960 . S
H405 N385 0.862 . S
O406 Co374 1.920 . S
O406 C379 1.289 . S
C407 O399 1.258 . S
C407 O400 1.266 . S
Co408 O411 1.970 . S
Co408 N425 1.989 . S
Co408 O433 1.967 . S
Co408 O440 1.920 1_556 S
Co409 O412 1.966 . S
Co409 N418 2.022 . S
Co409 N426 1.993 . S
Co409 O434 1.941 . S
C410 O411 1.258 . S
C410 O412 1.263 . S
O411 Co408 1.970 . S
O411 C410 1.258 . S
O412 Co409 1.966 . S
O412 C410 1.263 . S
C413 O414 1.235 . S
C413 O440 1.289 . S
O414 C413 1.235 . S
C415 C417 1.400 . S
C415 N418 1.351 . S
C415 C420 1.501 . S
C416 C417 1.387 . S
C416 N419 1.341 . S
C417 C415 1.400 . S
C417 C416 1.387 . S
N418 Co409 2.022 . S
N418 C415 1.351 . S
N418 N419 1.365 . S
N419 C416 1.341 . S
N419 N418 1.365 . S
N419 H439 0.862 . S
C420 C415 1.501 . S
C420 H421 0.961 . S
C420 H422 0.961 . S
C420 H423 0.960 . S
H421 C420 0.961 . S
H422 C420 0.961 . S
H423 C420 0.960 . S
C424 N425 1.342 . S
C424 C428 1.401 . S
C424 C429 1.499 . S
N425 Co408 1.989 . S
N425 C424 1.342 . S
N425 N426 1.388 . S
N426 Co409 1.993 . S
N426 N425 1.388 . S
N426 C427 1.346 . S
C427 N426 1.346 . S
C427 C428 1.396 . S
C427 C437 1.510 . S
C428 C424 1.401 . S
C428 C427 1.396 . S
C429 C424 1.499 . S
C429 H430 0.959 . S
C429 H431 0.960 . S
C429 H432 0.961 . S
H430 C429 0.959 . S
H431 C429 0.960 . S
H432 C429 0.961 . S
O433 Co408 1.967 . S
O433 C441 1.258 . S
O434 Co409 1.941 . S
O434 C441 1.266 . S
H435 C437 0.959 . S
H436 C437 0.961 . S
C437 C427 1.510 . S
C437 H435 0.959 . S
C437 H436 0.961 . S
C437 H438 0.960 . S
H438 C437 0.960 . S
H439 N419 0.862 . S
O440 Co408 1.920 1_554 S
O440 C413 1.289 . S
C441 O433 1.258 . S
C441 O434 1.266 . S
Co442 O445 1.970 . S
Co442 N459 1.987 1_455 S
Co442 O467 1.967 1_455 S
Co442 O474 1.920 1_455 S
Co443 O446 1.966 1_655 S
Co443 N452 2.023 1_554 S
Co443 N460 1.993 1_655 S
Co443 O468 1.941 . S
C444 O445 1.258 . S
C444 O446 1.263 . S
O445 Co442 1.970 . S
O445 C444 1.258 . S
O446 Co443 1.966 1_455 S
O446 C444 1.263 . S
C447 O448 1.235 . S
C447 O474 1.289 1_455 S
O448 C447 1.235 . S
C449 C451 1.400 . S
C449 N452 1.342 1_455 S
C449 C454 1.501 . S
C450 C451 1.387 1_655 S
C450 N453 1.341 . S
C451 C449 1.400 . S
C451 C450 1.387 1_455 S
N452 Co443 2.023 1_556 S
N452 C449 1.342 1_655 S
N452 N453 1.374 . S
N453 C450 1.341 . S
N453 N452 1.374 . S
N453 H473 0.862 . S
C454 C449 1.501 . S
C454 H455 0.961 . S
C454 H456 0.961 . S
C454 H457 0.960 . S
H455 C454 0.961 . S
H456 C454 0.961 . S
H457 C454 0.960 . S
C458 N459 1.345 . S
C458 C462 1.401 . S
C458 C463 1.499 . S
N459 Co442 1.987 1_655 S
N459 C458 1.345 . S
N459 N460 1.387 1_655 S
N460 Co443 1.993 1_455 S
N460 N459 1.387 1_455 S
N460 C461 1.346 1_455 S
C461 N460 1.346 1_655 S
C461 C462 1.396 . S
C461 C471 1.511 1_554 S
C462 C458 1.401 . S
C462 C461 1.396 . S
C463 C458 1.499 . S
C463 H464 0.959 . S
C463 H465 0.960 1_655 S
C463 H466 0.961 . S
H464 C463 0.959 . S
H465 C463 0.960 1_455 S
H466 C463 0.961 . S
O467 Co442 1.967 1_655 S
O467 C475 1.258 . S
O468 Co443 1.941 . S
O468 C475 1.266 . S
H469 C471 0.969 . S
H470 C471 0.952 1_455 S
C471 C461 1.511 1_556 S
C471 H469 0.969 . S
C471 H470 0.952 1_655 S
C471 H472 0.958 1_655 S
H472 C471 0.958 1_455 S
H473 N453 0.862 . S
O474 Co442 1.920 1_655 S
O474 C447 1.289 1_655 S
C475 O467 1.258 . S
C475 O468 1.266 . S
Co476 O479 1.970 . S
Co476 N493 1.989 . S
Co476 O501 1.967 . S
Co476 O508 1.920 1_554 S
Co477 O480 1.966 . S
Co477 N486 2.022 . S
Co477 N494 1.993 . S
Co477 O502 1.941 . S
C478 O479 1.258 . S
C478 O480 1.263 . S
O479 Co476 1.970 . S
O479 C478 1.258 . S
O480 Co477 1.966 . S
O480 C478 1.263 . S
C481 O482 1.235 . S
C481 O508 1.289 . S
O482 C481 1.235 . S
C483 C485 1.400 . S
C483 N486 1.351 . S
C483 C488 1.501 . S
C484 C485 1.387 . S
C484 N487 1.341 . S
C485 C483 1.400 . S
C485 C484 1.387 . S
N486 Co477 2.022 . S
N486 C483 1.351 . S
N486 N487 1.365 . S
N487 C484 1.341 . S
N487 N486 1.365 . S
N487 H507 0.862 . S
C488 C483 1.501 . S
C488 H489 0.961 . S
C488 H490 0.961 . S
C488 H491 0.960 . S
H489 C488 0.961 . S
H490 C488 0.961 . S
H491 C488 0.960 . S
C492 N493 1.342 . S
C492 C496 1.401 . S
C492 C497 1.499 . S
N493 Co476 1.989 . S
N493 C492 1.342 . S
N493 N494 1.388 . S
N494 Co477 1.993 . S
N494 N493 1.388 . S
N494 C495 1.346 . S
C495 N494 1.346 . S
C495 C496 1.396 . S
C495 C505 1.510 . S
C496 C492 1.401 . S
C496 C495 1.396 . S
C497 C492 1.499 . S
C497 H498 0.959 . S
C497 H499 0.960 . S
C497 H500 0.961 . S
H498 C497 0.959 . S
H499 C497 0.960 . S
H500 C497 0.961 . S
O501 Co476 1.967 . S
O501 C509 1.258 . S
O502 Co477 1.941 . S
O502 C509 1.266 . S
H503 C505 0.959 . S
H504 C505 0.961 . S
C505 C495 1.510 . S
C505 H503 0.959 . S
C505 H504 0.961 . S
C505 H506 0.960 . S
H506 C505 0.960 . S
H507 N487 0.862 . S
O508 Co476 1.920 1_556 S
O508 C481 1.289 . S
C509 O501 1.258 . S
C509 O502 1.266 . S
Co510 O513 1.970 . S
Co510 N527 1.987 1_455 S
Co510 O535 1.967 1_455 S
Co510 O542 1.920 1_455 S
Co511 O514 1.966 1_655 S
Co511 N520 2.023 1_556 S
Co511 N528 1.993 1_655 S
Co511 O536 1.941 . S
C512 O513 1.258 . S
C512 O514 1.263 . S
O513 Co510 1.970 . S
O513 C512 1.258 . S
O514 Co511 1.966 1_455 S
O514 C512 1.263 . S
C515 O516 1.235 . S
C515 O542 1.289 1_455 S
O516 C515 1.235 . S
C517 C519 1.400 . S
C517 N520 1.342 1_455 S
C517 C522 1.501 . S
C518 C519 1.387 1_655 S
C518 N521 1.341 . S
C519 C517 1.400 . S
C519 C518 1.387 1_455 S
N520 Co511 2.023 1_554 S
N520 C517 1.342 1_655 S
N520 N521 1.374 . S
N521 C518 1.341 . S
N521 N520 1.374 . S
N521 H541 0.862 . S
C522 C517 1.501 . S
C522 H523 0.961 . S
C522 H524 0.961 . S
C522 H525 0.960 . S
H523 C522 0.961 . S
H524 C522 0.961 . S
H525 C522 0.960 . S
C526 N527 1.345 . S
C526 C530 1.401 . S
C526 C531 1.499 . S
N527 Co510 1.987 1_655 S
N527 C526 1.345 . S
N527 N528 1.387 1_655 S
N528 Co511 1.993 1_455 S
N528 N527 1.387 1_455 S
N528 C529 1.346 1_455 S
C529 N528 1.346 1_655 S
C529 C530 1.396 . S
C529 C539 1.511 1_556 S
C530 C526 1.401 . S
C530 C529 1.396 . S
C531 C526 1.499 . S
C531 H532 0.959 . S
C531 H533 0.960 1_655 S
C531 H534 0.961 . S
H532 C531 0.959 . S
H533 C531 0.960 1_455 S
H534 C531 0.961 . S
O535 Co510 1.967 1_655 S
O535 C543 1.258 . S
O536 Co511 1.941 . S
O536 C543 1.266 . S
H537 C539 0.969 . S
H538 C539 0.952 1_455 S
C539 C529 1.511 1_554 S
C539 H537 0.969 . S
C539 H538 0.952 1_655 S
C539 H540 0.958 1_655 S
H540 C539 0.958 1_455 S
H541 N521 0.862 . S
O542 Co510 1.920 1_655 S
O542 C515 1.289 1_655 S
C543 O535 1.258 . S
C543 O536 1.266 . S
C271 C33 1.533 . S
C67 C169 1.533 . S
C101 C203 1.533 . S
C237 C135 1.533 . S
C376 C138 1.811 . S
C274 C2 1.811 . S
C206 C342 1.811 . S
C70 C308 1.811 . S
C339 C441 1.533 . S
C509 C373 1.533 . S
C475 C305 1.533 . S
C407 C543 1.533 . S
C104 C478 1.811 . S
C172 C410 1.811 . S
C36 C512 1.811 . S
C240 C444 1.811 . S
C20 C156 2.998 1_544 S
C190 C54 2.998 . S
C224 C88 2.997 1_545 S
C122 C258 2.998 . S
C360 C292 2.998 . S
C326 C394 2.998 . S
C428 C496 2.997 . S
C530 C462 2.998 1_556 S
C9 C5 2.697 . S
C43 C39 2.697 . S
C73 C77 2.696 . S
C107 C111 2.697 . S
C141 C145 2.697 . S
C175 C179 2.697 . S
C213 C209 2.696 . S
C247 C243 2.697 . S
C277 C281 2.697 . S
C311 C315 2.697 . S
C349 C345 2.697 . S
C383 C379 2.697 . S
C417 C413 2.696 . S
C451 C447 2.697 . S
C485 C481 2.696 . S
C515 C519 2.697 . S
