# Generated by pormake.
# Topology cbo, (4)-cn, num edge types: 1
# Building blocks:
#     Node 0, Type 0, BuildingBlock: CEKHIL_clean_sbu_0, # of connection points: 4
#     Node 1, Type 0, BuildingBlock: CEKHIL_clean_sbu_0, # of connection points: 4
#     Node 2, Type 0, BuildingBlock: CEKHIL_clean_sbu_0, # of connection points: 4
#     Node 3, Type 0, BuildingBlock: CEKHIL_clean_sbu_0, # of connection points: 4
#     Node 4, Type 0, BuildingBlock: CEKHIL_clean_sbu_0, # of connection points: 4
#     Node 5, Type 0, BuildingBlock: CEKHIL_clean_sbu_0, # of connection points: 4
#     Node 6, Type 0, BuildingBlock: CEKHIL_clean_sbu_0, # of connection points: 4
#     Node 7, Type 0, BuildingBlock: CEKHIL_clean_sbu_0, # of connection points: 4
#     Node 8, Type 0, BuildingBlock: CEKHIL_clean_sbu_0, # of connection points: 4
#     Node 9, Type 0, BuildingBlock: CEKHIL_clean_sbu_0, # of connection points: 4
#     Node 10, Type 0, BuildingBlock: CEKHIL_clean_sbu_0, # of connection points: 4
#     Node 11, Type 0, BuildingBlock: CEKHIL_clean_sbu_0, # of connection points: 4
#     Node 12, Type 0, BuildingBlock: CEKHIL_clean_sbu_0, # of connection points: 4
#     Node 13, Type 0, BuildingBlock: CEKHIL_clean_sbu_0, # of connection points: 4
#     Node 14, Type 0, BuildingBlock: CEKHIL_clean_sbu_0, # of connection points: 4
#     Node 15, Type 0, BuildingBlock: CEKHIL_clean_sbu_0, # of connection points: 4
#     Node 16, Type 0, BuildingBlock: CEKHIL_clean_sbu_0, # of connection points: 4
#     Node 17, Type 0, BuildingBlock: CEKHIL_clean_sbu_0, # of connection points: 4
#     Node 18, Type 0, BuildingBlock: CEKHIL_clean_sbu_0, # of connection points: 4
#     Node 19, Type 0, BuildingBlock: CEKHIL_clean_sbu_0, # of connection points: 4
#     Node 20, Type 0, BuildingBlock: CEKHIL_clean_sbu_0, # of connection points: 4
#     Node 21, Type 0, BuildingBlock: CEKHIL_clean_sbu_0, # of connection points: 4
#     Node 22, Type 0, BuildingBlock: CEKHIL_clean_sbu_0, # of connection points: 4
#     Node 23, Type 0, BuildingBlock: CEKHIL_clean_sbu_0, # of connection points: 4
#     Edge 24, Type (0, 0), BuildingBlock: TEMPAE_clean_linker_10, # of connection points: 2
#     Edge 25, Type (0, 0), BuildingBlock: TEMPAE_clean_linker_10, # of connection points: 2
#     Edge 26, Type (0, 0), BuildingBlock: TEMPAE_clean_linker_10, # of connection points: 2
#     Edge 27, Type (0, 0), BuildingBlock: TEMPAE_clean_linker_10, # of connection points: 2
#     Edge 28, Type (0, 0), BuildingBlock: TEMPAE_clean_linker_10, # of connection points: 2
#     Edge 29, Type (0, 0), BuildingBlock: TEMPAE_clean_linker_10, # of connection points: 2
#     Edge 30, Type (0, 0), BuildingBlock: TEMPAE_clean_linker_10, # of connection points: 2
#     Edge 31, Type (0, 0), BuildingBlock: TEMPAE_clean_linker_10, # of connection points: 2
#     Edge 32, Type (0, 0), BuildingBlock: TEMPAE_clean_linker_10, # of connection points: 2
#     Edge 33, Type (0, 0), BuildingBlock: TEMPAE_clean_linker_10, # of connection points: 2
#     Edge 34, Type (0, 0), BuildingBlock: TEMPAE_clean_linker_10, # of connection points: 2
#     Edge 35, Type (0, 0), BuildingBlock: TEMPAE_clean_linker_10, # of connection points: 2
#     Edge 36, Type (0, 0), BuildingBlock: TEMPAE_clean_linker_10, # of connection points: 2
#     Edge 37, Type (0, 0), BuildingBlock: TEMPAE_clean_linker_10, # of connection points: 2
#     Edge 38, Type (0, 0), BuildingBlock: TEMPAE_clean_linker_10, # of connection points: 2
#     Edge 39, Type (0, 0), BuildingBlock: TEMPAE_clean_linker_10, # of connection points: 2
#     Edge 40, Type (0, 0), BuildingBlock: TEMPAE_clean_linker_10, # of connection points: 2
#     Edge 41, Type (0, 0), BuildingBlock: TEMPAE_clean_linker_10, # of connection points: 2
#     Edge 42, Type (0, 0), BuildingBlock: TEMPAE_clean_linker_10, # of connection points: 2
#     Edge 43, Type (0, 0), BuildingBlock: TEMPAE_clean_linker_10, # of connection points: 2
#     Edge 44, Type (0, 0), BuildingBlock: TEMPAE_clean_linker_10, # of connection points: 2
#     Edge 45, Type (0, 0), BuildingBlock: TEMPAE_clean_linker_10, # of connection points: 2
#     Edge 46, Type (0, 0), BuildingBlock: TEMPAE_clean_linker_10, # of connection points: 2
#     Edge 47, Type (0, 0), BuildingBlock: TEMPAE_clean_linker_10, # of connection points: 2
#     Edge 48, Type (0, 0), BuildingBlock: TEMPAE_clean_linker_10, # of connection points: 2
#     Edge 49, Type (0, 0), BuildingBlock: TEMPAE_clean_linker_10, # of connection points: 2
#     Edge 50, Type (0, 0), BuildingBlock: TEMPAE_clean_linker_10, # of connection points: 2
#     Edge 51, Type (0, 0), BuildingBlock: TEMPAE_clean_linker_10, # of connection points: 2
#     Edge 52, Type (0, 0), BuildingBlock: TEMPAE_clean_linker_10, # of connection points: 2
#     Edge 53, Type (0, 0), BuildingBlock: TEMPAE_clean_linker_10, # of connection points: 2
#     Edge 54, Type (0, 0), BuildingBlock: TEMPAE_clean_linker_10, # of connection points: 2
#     Edge 55, Type (0, 0), BuildingBlock: TEMPAE_clean_linker_10, # of connection points: 2
#     Edge 56, Type (0, 0), BuildingBlock: TEMPAE_clean_linker_10, # of connection points: 2
#     Edge 57, Type (0, 0), BuildingBlock: TEMPAE_clean_linker_10, # of connection points: 2
#     Edge 58, Type (0, 0), BuildingBlock: TEMPAE_clean_linker_10, # of connection points: 2
#     Edge 59, Type (0, 0), BuildingBlock: TEMPAE_clean_linker_10, # of connection points: 2
#     Edge 60, Type (0, 0), BuildingBlock: TEMPAE_clean_linker_10, # of connection points: 2
#     Edge 61, Type (0, 0), BuildingBlock: TEMPAE_clean_linker_10, # of connection points: 2
#     Edge 62, Type (0, 0), BuildingBlock: TEMPAE_clean_linker_10, # of connection points: 2
#     Edge 63, Type (0, 0), BuildingBlock: TEMPAE_clean_linker_10, # of connection points: 2
#     Edge 64, Type (0, 0), BuildingBlock: TEMPAE_clean_linker_10, # of connection points: 2
#     Edge 65, Type (0, 0), BuildingBlock: TEMPAE_clean_linker_10, # of connection points: 2
#     Edge 66, Type (0, 0), BuildingBlock: TEMPAE_clean_linker_10, # of connection points: 2
#     Edge 67, Type (0, 0), BuildingBlock: TEMPAE_clean_linker_10, # of connection points: 2
#     Edge 68, Type (0, 0), BuildingBlock: TEMPAE_clean_linker_10, # of connection points: 2
#     Edge 69, Type (0, 0), BuildingBlock: TEMPAE_clean_linker_10, # of connection points: 2
#     Edge 70, Type (0, 0), BuildingBlock: TEMPAE_clean_linker_10, # of connection points: 2
#     Edge 71, Type (0, 0), BuildingBlock: TEMPAE_clean_linker_10, # of connection points: 2
# Relax obj value: 0.197
# Max RMSD: 0.203
# Mean RMSD: 0.197
data_MOF--net-cbo--node1-CEKHIL_clean_sbu_0--edge1-TEMPAE_clean_linker_10
_symmetry_space_group_name_H-M    P1
_symmetry_Int_Tables_number       1
_symmetry_cell_setting            triclinic
loop_
_symmetry_equiv_pos_as_xyz
'x, y, z'
_cell_length_a     52.450399
_cell_length_b     51.949066
_cell_length_c     51.306909
_cell_angle_alpha  89.985417
_cell_angle_beta   89.99978
_cell_angle_gamma 90.00716
loop_
_atom_site_label
_atom_site_type_symbol
_atom_site_fract_x
_atom_site_fract_y
_atom_site_fract_z
_atom_type_partial_charge
Co0 Co 0.09201 0.1867 0.31575 0.0
O1 O 0.05638 0.19189 0.32185 0.0
O2 O 0.0747 0.15371 0.31785 0.0
C3 C 0.09646 0.21586 0.2838 0.0
O4 O 0.12833 0.17454 0.30803 0.0
Co5 Co 0.12992 0.23176 0.32623 0.0
O6 O 0.15283 0.21004 0.3048 0.0
C7 C 0.10928 0.20211 0.37041 0.0
C8 C 0.05395 0.16706 0.32134 0.0
C9 C 0.14926 0.18597 0.30158 0.0
O10 O 0.09856 0.18633 0.35448 0.0
O11 O 0.12114 0.22238 0.363 0.0
O12 O 0.08743 0.19313 0.27864 0.0
O13 O 0.09932 0.22107 0.30824 0.0
Co14 Co 0.40923 0.80587 0.81424 0.0
O15 O 0.445 0.8012 0.81996 0.0
O16 O 0.42608 0.83911 0.81639 0.0
C17 C 0.40486 0.77684 0.78216 0.0
O18 O 0.37267 0.81751 0.80695 0.0
Co19 Co 0.37216 0.76013 0.82486 0.0
O20 O 0.34862 0.78167 0.80394 0.0
C21 C 0.39272 0.78986 0.869 0.0
C22 C 0.44705 0.82607 0.8196 0.0
C23 C 0.35181 0.8058 0.80076 0.0
O24 O 0.40298 0.80594 0.85304 0.0
O25 O 0.38122 0.76939 0.86158 0.0
O26 O 0.41354 0.79972 0.77703 0.0
O27 O 0.40236 0.77145 0.80659 0.0
Co28 Co 0.59179 0.30364 0.67822 0.0
O29 O 0.55606 0.2984 0.67265 0.0
O30 O 0.5745 0.3366 0.67576 0.0
C31 C 0.59672 0.275 0.71058 0.0
O32 O 0.62818 0.31591 0.6853 0.0
Co33 Co 0.62954 0.25845 0.66785 0.0
O34 O 0.65282 0.28052 0.6885 0.0
C35 C 0.60841 0.28748 0.62353 0.0
C36 C 0.55369 0.32324 0.67276 0.0
C37 C 0.64924 0.30462 0.69152 0.0
O38 O 0.59793 0.30346 0.63942 0.0
O39 O 0.62028 0.26725 0.63105 0.0
O40 O 0.58767 0.29778 0.71548 0.0
O41 O 0.59922 0.26939 0.68619 0.0
Co42 Co 0.90761 0.69016 0.17795 0.0
O43 O 0.94343 0.69494 0.17259 0.0
O44 O 0.9245 0.65697 0.17546 0.0
C45 C 0.90283 0.7187 0.2104 0.0
O46 O 0.87101 0.6784 0.18487 0.0
Co47 Co 0.87065 0.73596 0.16737 0.0
O48 O 0.84692 0.71419 0.18781 0.0
C49 C 0.89164 0.70679 0.12316 0.0
C50 C 0.94549 0.67007 0.17262 0.0
C51 C 0.8501 0.69005 0.19097 0.0
O52 O 0.90168 0.69055 0.13909 0.0
O53 O 0.88009 0.7272 0.13063 0.0
O54 O 0.91161 0.6958 0.21525 0.0
O55 O 0.9006 0.72447 0.18601 0.0
Co56 Co 0.3292 0.09638 0.18473 0.0
O57 O 0.33516 0.06011 0.1872 0.0
O58 O 0.33358 0.08212 0.15022 0.0
C59 C 0.29574 0.09827 0.21204 0.0
O60 O 0.32205 0.13367 0.17477 0.0
Co61 Co 0.33652 0.13119 0.23313 0.0
O62 O 0.31621 0.15579 0.21198 0.0
C63 C 0.38177 0.11314 0.20452 0.0
C64 C 0.33617 0.06005 0.16192 0.0
C65 C 0.31459 0.15382 0.18727 0.0
O66 O 0.36698 0.10321 0.18725 0.0
O67 O 0.3734 0.12385 0.22531 0.0
O68 O 0.29276 0.09093 0.18805 0.0
O69 O 0.31917 0.10103 0.21957 0.0
Co70 Co 0.17119 0.89517 0.68432 0.0
O71 O 0.16586 0.93154 0.68662 0.0
O72 O 0.16688 0.90931 0.64975 0.0
C73 C 0.20472 0.89285 0.71149 0.0
O74 O 0.17766 0.85772 0.67458 0.0
Co75 Co 0.16338 0.86079 0.73295 0.0
O76 O 0.1833 0.83578 0.71194 0.0
C77 C 0.11838 0.87953 0.70439 0.0
C78 C 0.16467 0.93148 0.66135 0.0
C79 C 0.18488 0.83756 0.68721 0.0
O80 O 0.13333 0.88906 0.68704 0.0
O81 O 0.12659 0.86875 0.72523 0.0
O82 O 0.20772 0.9 0.68744 0.0
O83 O 0.18129 0.89054 0.71916 0.0
Co84 Co 0.82739 0.39795 0.8086 0.0
O85 O 0.83168 0.43452 0.80702 0.0
O86 O 0.83131 0.41151 0.84343 0.0
C87 C 0.79389 0.39512 0.78142 0.0
O88 O 0.82205 0.36019 0.81773 0.0
Co89 Co 0.83589 0.36448 0.75944 0.0
O90 O 0.81686 0.3385 0.78017 0.0
C91 C 0.8805 0.38408 0.78812 0.0
C92 C 0.83286 0.43396 0.8323 0.0
C93 C 0.8154 0.33995 0.80493 0.0
O94 O 0.86541 0.39295 0.8057 0.0
O95 O 0.87246 0.37342 0.76715 0.0
O96 O 0.79073 0.40176 0.8056 0.0
O97 O 0.81737 0.39361 0.7737 0.0
Co98 Co 0.67239 0.59832 0.31121 0.0
O99 O 0.66868 0.5617 0.30966 0.0
O100 O 0.66865 0.58469 0.34606 0.0
C101 C 0.70584 0.60164 0.28404 0.0
O102 O 0.67714 0.63617 0.32025 0.0
Co103 Co 0.66331 0.63148 0.26193 0.0
O104 O 0.68205 0.65773 0.28256 0.0
C105 C 0.61905 0.61105 0.29056 0.0
C106 C 0.66745 0.56223 0.33492 0.0
C107 C 0.68357 0.65642 0.30733 0.0
O108 O 0.63428 0.60267 0.30827 0.0
O109 O 0.62694 0.62169 0.26952 0.0
O110 O 0.70912 0.59514 0.30824 0.0
O111 O 0.68234 0.60274 0.2763 0.0
Co112 Co 0.19849 0.33303 0.09437 0.0
O113 O 0.20221 0.34116 0.05805 0.0
O114 O 0.16534 0.33693 0.07876 0.0
C115 C 0.22649 0.30038 0.09628 0.0
O116 O 0.18698 0.32343 0.13085 0.0
Co117 Co 0.24305 0.33995 0.13336 0.0
O118 O 0.22178 0.31712 0.15556 0.0
C119 C 0.21456 0.38551 0.1156 0.0
C120 C 0.17744 0.34125 0.05709 0.0
C121 C 0.1979 0.31492 0.15157 0.0
O122 O 0.19902 0.37062 0.10346 0.0
O123 O 0.2344 0.37722 0.12748 0.0
O124 O 0.20367 0.29674 0.08714 0.0
O125 O 0.23264 0.32414 0.10071 0.0
Co126 Co 0.70154 0.1608 0.90053 0.0
O127 O 0.7058 0.1531 0.93691 0.0
O128 O 0.66863 0.15747 0.91681 0.0
C129 C 0.72981 0.19313 0.89771 0.0
O130 O 0.68948 0.17007 0.86413 0.0
Co131 Co 0.74537 0.15306 0.86081 0.0
O132 O 0.7239 0.17577 0.8387 0.0
C133 C 0.71682 0.10795 0.8797 0.0
C134 C 0.68106 0.15338 0.93833 0.0
C135 C 0.70011 0.17822 0.84309 0.0
O136 O 0.70156 0.12308 0.89189 0.0
O137 O 0.73655 0.11596 0.86741 0.0
O138 O 0.7072 0.1971 0.90721 0.0
O139 O 0.73565 0.16926 0.89346 0.0
Co140 Co 0.79935 0.83554 0.39971 0.0
O141 O 0.79543 0.84413 0.43591 0.0
O142 O 0.83241 0.83887 0.41566 0.0
C143 C 0.77071 0.80347 0.3979 0.0
O144 O 0.81104 0.82529 0.36344 0.0
Co145 Co 0.75532 0.84278 0.36011 0.0
O146 O 0.77641 0.8194 0.33836 0.0
C147 C 0.78432 0.88805 0.37788 0.0
C148 C 0.82018 0.84361 0.43717 0.0
C149 C 0.8002 0.81679 0.34266 0.0
O150 O 0.79961 0.87305 0.39021 0.0
O151 O 0.76444 0.87994 0.36593 0.0
O152 O 0.79336 0.79946 0.4073 0.0
O153 O 0.7651 0.82729 0.39311 0.0
Co154 Co 0.30047 0.65788 0.59497 0.0
O155 O 0.2963 0.64932 0.5588 0.0
O156 O 0.33342 0.65394 0.57895 0.0
C157 C 0.27234 0.69039 0.59685 0.0
O158 O 0.31249 0.66798 0.63114 0.0
Co159 Co 0.25659 0.65133 0.6348 0.0
O160 O 0.27807 0.67458 0.65631 0.0
C161 C 0.28486 0.60562 0.61707 0.0
C162 C 0.32106 0.64935 0.5575 0.0
C163 C 0.30188 0.6768 0.6519 0.0
O164 O 0.3002 0.62039 0.60451 0.0
O165 O 0.26522 0.61402 0.62922 0.0
O166 O 0.29502 0.69404 0.58737 0.0
O167 O 0.26638 0.66666 0.60171 0.0
Co168 Co 0.90141 0.81356 0.66912 0.0
O169 O 0.93673 0.81163 0.65989 0.0
O170 O 0.91662 0.84762 0.67038 0.0
C171 C 0.90152 0.78082 0.69756 0.0
O172 O 0.86523 0.82212 0.68122 0.0
Co173 Co 0.86585 0.76734 0.65605 0.0
O174 O 0.84297 0.78506 0.68099 0.0
C175 C 0.88179 0.80282 0.6143 0.0
C176 C 0.93788 0.83618 0.66419 0.0
C177 C 0.84544 0.80865 0.68739 0.0
O178 O 0.89179 0.818 0.63129 0.0
O179 O 0.87247 0.78077 0.62013 0.0
O180 O 0.90925 0.80348 0.70466 0.0
O181 O 0.89701 0.77796 0.67297 0.0
Co182 Co 0.59788 0.18325 0.16978 0.0
O183 O 0.56249 0.1848 0.16066 0.0
O184 O 0.58302 0.14903 0.17108 0.0
C185 C 0.59759 0.21599 0.19822 0.0
O186 O 0.63417 0.17506 0.18174 0.0
Co187 Co 0.63293 0.22984 0.15654 0.0
O188 O 0.65613 0.21231 0.18133 0.0
C189 C 0.61723 0.19418 0.11489 0.0
C190 C 0.56162 0.16023 0.16494 0.0
C191 C 0.65389 0.18869 0.18776 0.0
O192 O 0.60745 0.17889 0.13193 0.0
O193 O 0.6263 0.21635 0.12064 0.0
O194 O 0.59005 0.19326 0.20535 0.0
O195 O 0.60195 0.21889 0.17361 0.0
Co196 Co 0.4005 0.67424 0.32489 0.0
O197 O 0.43613 0.67738 0.3322 0.0
O198 O 0.41664 0.64055 0.32374 0.0
C199 C 0.39841 0.70631 0.29576 0.0
O200 O 0.36398 0.66455 0.31502 0.0
Co201 Co 0.36486 0.72007 0.33908 0.0
O202 O 0.34055 0.70084 0.31683 0.0
C203 C 0.38386 0.68594 0.38051 0.0
C204 C 0.43781 0.65275 0.32864 0.0
C205 C 0.34329 0.67726 0.31051 0.0
O206 O 0.39293 0.67044 0.36327 0.0
O207 O 0.37408 0.70781 0.37482 0.0
O208 O 0.40617 0.68365 0.28869 0.0
O209 O 0.39514 0.70964 0.32048 0.0
Co210 Co 0.09742 0.31723 0.82479 0.0
O211 O 0.06169 0.31488 0.83202 0.0
O212 O 0.08204 0.35125 0.82353 0.0
C213 C 0.09897 0.28508 0.79568 0.0
O214 O 0.13413 0.32619 0.81499 0.0
Co215 Co 0.13222 0.27073 0.839 0.0
O216 O 0.15687 0.28945 0.8167 0.0
C217 C 0.11366 0.30513 0.88043 0.0
C218 C 0.06059 0.33954 0.82838 0.0
C219 C 0.15457 0.3131 0.81041 0.0
O220 O 0.10498 0.32086 0.86319 0.0
O221 O 0.12304 0.28309 0.87471 0.0
O222 O 0.09159 0.30788 0.7886 0.0
O223 O 0.10214 0.28175 0.82041 0.0
Co224 Co 0.66992 0.86853 0.84875 0.0
O225 O 0.63663 0.86963 0.8643 0.0
O226 O 0.64494 0.87932 0.82314 0.0
C227 C 0.6821 0.82969 0.86375 0.0
O228 O 0.70187 0.86833 0.82595 0.0
Co229 Co 0.71768 0.86756 0.88486 0.0
O230 O 0.73526 0.8588 0.85181 0.0
C231 C 0.69033 0.91627 0.87674 0.0
C232 C 0.62814 0.87659 0.84162 0.0
C233 C 0.72552 0.8623 0.82931 0.0
O234 O 0.67632 0.90543 0.85929 0.0
O235 O 0.7064 0.9039 0.89072 0.0
O236 O 0.66724 0.83141 0.84357 0.0
O237 O 0.68581 0.85101 0.87615 0.0
Co238 Co 0.83019 0.12794 0.34834 0.0
O239 O 0.86343 0.12636 0.36394 0.0
O240 O 0.85512 0.11727 0.32263 0.0
C241 C 0.81825 0.16667 0.36379 0.0
O242 O 0.79828 0.12866 0.32549 0.0
Co243 Co 0.78241 0.12875 0.38439 0.0
O244 O 0.7649 0.138 0.35144 0.0
C245 C 0.80942 0.07997 0.37565 0.0
C246 C 0.87189 0.11957 0.3412 0.0
C247 C 0.77465 0.13474 0.3289 0.0
O248 O 0.82353 0.09097 0.35839 0.0
O249 O 0.79338 0.09224 0.38975 0.0
O250 O 0.83315 0.1651 0.34363 0.0
O251 O 0.81438 0.14522 0.37593 0.0
Co252 Co 0.16888 0.62552 0.14575 0.0
O253 O 0.13602 0.62501 0.12922 0.0
O254 O 0.14297 0.6153 0.17063 0.0
C255 C 0.18195 0.6641 0.13068 0.0
O256 O 0.20008 0.6251 0.1696 0.0
Co257 Co 0.21796 0.6259 0.11151 0.0
O258 O 0.23441 0.63482 0.14513 0.0
C259 C 0.1897 0.57745 0.11884 0.0
C260 C 0.12674 0.61833 0.15167 0.0
C261 C 0.22384 0.63106 0.1672 0.0
O262 O 0.17498 0.58849 0.13554 0.0
O263 O 0.20655 0.58959 0.10562 0.0
O264 O 0.16675 0.66277 0.15062 0.0
O265 O 0.18584 0.64258 0.11872 0.0
Co266 Co 0.32982 0.3655 0.64647 0.0
O267 O 0.36271 0.36628 0.63002 0.0
O268 O 0.35557 0.37592 0.67141 0.0
C269 C 0.31702 0.32683 0.63146 0.0
O270 O 0.29855 0.36568 0.67022 0.0
Co271 Co 0.28089 0.36482 0.61201 0.0
O272 O 0.26434 0.35595 0.64559 0.0
C273 C 0.30869 0.41349 0.61959 0.0
C274 C 0.37186 0.37305 0.65249 0.0
C275 C 0.2748 0.35969 0.66771 0.0
O276 O 0.32349 0.40248 0.63623 0.0
O277 O 0.29193 0.40127 0.60632 0.0
O278 O 0.33222 0.32828 0.6514 0.0
O279 O 0.31306 0.3483 0.61942 0.0
Co280 Co 0.85107 0.65231 0.88529 0.0
O281 O 0.86783 0.6197 0.88823 0.0
O282 O 0.82752 0.62703 0.89893 0.0
C283 C 0.86441 0.66147 0.84482 0.0
O284 O 0.82719 0.68319 0.88374 0.0
Co285 Co 0.88286 0.70232 0.8787 0.0
O286 O 0.84933 0.7172 0.86881 0.0
C287 C 0.87969 0.67736 0.9302 0.0
C288 C 0.84623 0.61074 0.89657 0.0
C289 C 0.82832 0.70635 0.87482 0.0
O290 O 0.86263 0.66181 0.92143 0.0
O291 O 0.89152 0.69354 0.91576 0.0
O292 O 0.84482 0.64657 0.8483 0.0
O293 O 0.87668 0.66798 0.86562 0.0
Co294 Co 0.35312 0.83939 0.10841 0.0
O295 O 0.37079 0.87163 0.10716 0.0
O296 O 0.33033 0.86596 0.09604 0.0
C297 C 0.36599 0.82762 0.14839 0.0
O298 O 0.32839 0.80912 0.10841 0.0
Co299 Co 0.38383 0.78834 0.11226 0.0
O300 O 0.34991 0.77396 0.12147 0.0
C301 C 0.3813 0.81605 0.06223 0.0
C302 C 0.34948 0.88159 0.09922 0.0
C303 C 0.3291 0.78554 0.11619 0.0
O304 O 0.36446 0.83139 0.0718 0.0
O305 O 0.39286 0.79898 0.07581 0.0
O306 O 0.34698 0.84342 0.14567 0.0
O307 O 0.37817 0.82197 0.12729 0.0
Co308 Co 0.14586 0.15164 0.60973 0.0
O309 O 0.12839 0.11931 0.6079 0.0
O310 O 0.1688 0.12548 0.59683 0.0
C311 C 0.13291 0.16257 0.64988 0.0
O312 O 0.17045 0.18199 0.61022 0.0
Co313 Co 0.11513 0.20252 0.61453 0.0
O314 O 0.14898 0.21684 0.62411 0.0
C315 C 0.1179 0.17594 0.56388 0.0
C316 C 0.14975 0.10966 0.5997 0.0
C317 C 0.16977 0.20539 0.6185 0.0
O318 O 0.13447 0.1602 0.57329 0.0
O319 O 0.10647 0.19291 0.5777 0.0
O320 O 0.15207 0.147 0.64689 0.0
O321 O 0.12069 0.16857 0.62889 0.0
Co322 Co 0.64907 0.3437 0.38602 0.0
O323 O 0.63224 0.37623 0.3893 0.0
O324 O 0.67258 0.36889 0.39988 0.0
C325 C 0.63564 0.33488 0.3455 0.0
O326 O 0.67305 0.31292 0.38416 0.0
Co327 Co 0.61749 0.2936 0.37898 0.0
O328 O 0.65107 0.27893 0.36895 0.0
C329 C 0.62065 0.31807 0.43073 0.0
C330 C 0.65382 0.38516 0.39773 0.0
C331 C 0.67203 0.28983 0.37507 0.0
O332 O 0.63761 0.33381 0.42208 0.0
O333 O 0.60888 0.30197 0.41615 0.0
O334 O 0.65521 0.34978 0.34905 0.0
O335 O 0.62347 0.32812 0.36628 0.0
C336 C 0.15565 0.30503 0.17163 0.0
C337 C 0.18217 0.30163 0.17128 0.0
C338 C 0.1404 0.29188 0.18967 0.0
C339 C 0.15195 0.27473 0.20754 0.0
C340 C 0.17871 0.27118 0.20729 0.0
C341 C 0.19353 0.28479 0.18921 0.0
C342 C 0.11193 0.29622 0.18954 0.0
C343 C 0.19163 0.25272 0.22583 0.0
C344 C 0.11758 0.25645 0.26974 0.0
C345 C 0.10824 0.23196 0.26347 0.0
C346 C 0.1314 0.27086 0.25149 0.0
C347 C 0.13605 0.2604 0.22648 0.0
C348 C 0.12611 0.23595 0.21982 0.0
C349 C 0.11218 0.22204 0.2384 0.0
C350 C 0.14162 0.29695 0.2592 0.0
C351 C 0.13086 0.22414 0.19336 0.0
H352 H 0.14679 0.31806 0.15784 0.0
H353 H 0.21399 0.28181 0.18879 0.0
H354 H 0.10191 0.2778 0.18567 0.0
H355 H 0.10557 0.30309 0.20895 0.0
H356 H 0.10598 0.31049 0.1746 0.0
H357 H 0.21271 0.25285 0.22368 0.0
H358 H 0.18681 0.25769 0.24628 0.0
H359 H 0.18465 0.23287 0.22229 0.0
H360 H 0.11454 0.26416 0.28913 0.0
H361 H 0.10513 0.20302 0.23354 0.0
H362 H 0.1354 0.31174 0.24495 0.0
H363 H 0.16277 0.2966 0.25892 0.0
H364 H 0.13522 0.30286 0.27895 0.0
H365 H 0.12447 0.23744 0.17776 0.0
H366 H 0.12087 0.20544 0.1909 0.0
H367 H 0.15161 0.22097 0.1906 0.0
C368 C 0.38825 0.77088 0.73703 0.0
C369 C 0.39293 0.76076 0.7619 0.0
C370 C 0.37411 0.75694 0.71864 0.0
C371 C 0.3647 0.73227 0.72528 0.0
C372 C 0.37011 0.72162 0.75006 0.0
C373 C 0.38412 0.73605 0.76812 0.0
C374 C 0.36855 0.76895 0.69244 0.0
C375 C 0.36047 0.69529 0.75773 0.0
C376 C 0.30672 0.70708 0.68937 0.0
C377 C 0.31789 0.69043 0.67113 0.0
C378 C 0.32177 0.72094 0.70705 0.0
C379 C 0.34858 0.71785 0.70659 0.0
C380 C 0.35996 0.70099 0.68835 0.0
C381 C 0.34447 0.68756 0.67073 0.0
C382 C 0.309 0.73907 0.72602 0.0
C383 C 0.38849 0.69719 0.68742 0.0
H384 H 0.39488 0.79007 0.73222 0.0
H385 H 0.38773 0.72819 0.78735 0.0
H386 H 0.37471 0.75589 0.67654 0.0
H387 H 0.34771 0.77189 0.69026 0.0
H388 H 0.37825 0.7878 0.68991 0.0
H389 H 0.3674 0.68929 0.77727 0.0
H390 H 0.33931 0.6953 0.75796 0.0
H391 H 0.3666 0.68074 0.7432 0.0
H392 H 0.2862 0.70967 0.68954 0.0
H393 H 0.35322 0.67471 0.65669 0.0
H394 H 0.3158 0.75902 0.72263 0.0
H395 H 0.31416 0.73386 0.74631 0.0
H396 H 0.2879 0.73883 0.7242 0.0
H397 H 0.39809 0.71583 0.68353 0.0
H398 H 0.39432 0.68321 0.67215 0.0
H399 H 0.39546 0.69018 0.70657 0.0
C400 C 0.61827 0.23477 0.72506 0.0
C401 C 0.60893 0.25934 0.73101 0.0
C402 C 0.63242 0.22076 0.74337 0.0
C403 C 0.63741 0.2317 0.7681 0.0
C404 C 0.62752 0.25626 0.77443 0.0
C405 C 0.61326 0.26976 0.75581 0.0
C406 C 0.64259 0.19455 0.73602 0.0
C407 C 0.63265 0.26859 0.80057 0.0
C408 C 0.65762 0.18801 0.82352 0.0
C409 C 0.68415 0.19133 0.82345 0.0
C410 C 0.64217 0.2009 0.80546 0.0
C411 C 0.65353 0.21771 0.78713 0.0
C412 C 0.6803 0.22122 0.78699 0.0
C413 C 0.69532 0.20787 0.80509 0.0
C414 C 0.61369 0.19662 0.80603 0.0
C415 C 0.69303 0.23933 0.76796 0.0
H416 H 0.61496 0.22668 0.70588 0.0
H417 H 0.60622 0.28884 0.76041 0.0
H418 H 0.66374 0.19492 0.73607 0.0
H419 H 0.63651 0.18 0.75059 0.0
H420 H 0.636 0.18829 0.71645 0.0
H421 H 0.62274 0.28736 0.80277 0.0
H422 H 0.62642 0.25562 0.81652 0.0
H423 H 0.65343 0.27176 0.80299 0.0
H424 H 0.6489 0.17523 0.83764 0.0
H425 H 0.71579 0.21079 0.80519 0.0
H426 H 0.6071 0.18935 0.78685 0.0
H427 H 0.60375 0.21513 0.80963 0.0
H428 H 0.6079 0.18266 0.82134 0.0
H429 H 0.68802 0.23395 0.74767 0.0
H430 H 0.71412 0.23927 0.76991 0.0
H431 H 0.68606 0.25924 0.77116 0.0
C432 C 0.88568 0.72366 0.25542 0.0
C433 C 0.8905 0.73429 0.2308 0.0
C434 C 0.87137 0.73717 0.27399 0.0
C435 C 0.86195 0.76195 0.26782 0.0
C436 C 0.86737 0.77306 0.24325 0.0
C437 C 0.88154 0.75903 0.22497 0.0
C438 C 0.86577 0.72465 0.29994 0.0
C439 C 0.8577 0.79951 0.23607 0.0
C440 C 0.80446 0.78693 0.30473 0.0
C441 C 0.81594 0.80319 0.32316 0.0
C442 C 0.81924 0.77326 0.28666 0.0
C443 C 0.84607 0.77613 0.28692 0.0
C444 C 0.85776 0.79257 0.30537 0.0
C445 C 0.84255 0.80581 0.32337 0.0
C446 C 0.80616 0.75557 0.26748 0.0
C447 C 0.88633 0.79612 0.30611 0.0
H448 H 0.89239 0.70443 0.25991 0.0
H449 H 0.88522 0.76728 0.20593 0.0
H450 H 0.87221 0.73727 0.31609 0.0
H451 H 0.84489 0.72198 0.3022 0.0
H452 H 0.87519 0.70561 0.30199 0.0
H453 H 0.8644 0.80576 0.21652 0.0
H454 H 0.83655 0.79958 0.23615 0.0
H455 H 0.86409 0.81383 0.25072 0.0
H456 H 0.78392 0.78454 0.3047 0.0
H457 H 0.85152 0.81835 0.33754 0.0
H458 H 0.81292 0.73552 0.27032 0.0
H459 H 0.81108 0.7612 0.24724 0.0
H460 H 0.78508 0.75584 0.26959 0.0
H461 H 0.89581 0.77733 0.30952 0.0
H462 H 0.89241 0.80974 0.3216 0.0
H463 H 0.89317 0.80346 0.28704 0.0
C464 C 0.27711 0.11668 0.25297 0.0
C465 C 0.27377 0.10725 0.22761 0.0
C466 C 0.25659 0.12751 0.26674 0.0
C467 C 0.23232 0.12913 0.25472 0.0
C468 C 0.2287 0.11884 0.22947 0.0
C469 C 0.24944 0.10791 0.21629 0.0
C470 C 0.2611 0.13816 0.29372 0.0
C471 C 0.20321 0.12044 0.21585 0.0
C472 C 0.17268 0.14448 0.294 0.0
C473 C 0.1703 0.17102 0.28976 0.0
C474 C 0.19312 0.13059 0.28319 0.0
C475 C 0.21125 0.14353 0.26746 0.0
C476 C 0.20879 0.17029 0.26295 0.0
C477 C 0.18844 0.1837 0.27424 0.0
C478 C 0.19533 0.10211 0.28856 0.0
C479 C 0.22741 0.18473 0.24583 0.0
H480 H 0.29587 0.11615 0.26182 0.0
H481 H 0.24669 0.10064 0.19669 0.0
H482 H 0.25929 0.15943 0.29331 0.0
H483 H 0.2465 0.13075 0.30745 0.0
H484 H 0.28031 0.13315 0.3013 0.0
H485 H 0.20312 0.10991 0.197 0.0
H486 H 0.18796 0.11245 0.22845 0.0
H487 H 0.19842 0.1409 0.21202 0.0
H488 H 0.15879 0.13464 0.30607 0.0
H489 H 0.18654 0.20417 0.27059 0.0
H490 H 0.21419 0.09778 0.29732 0.0
H491 H 0.19409 0.0912 0.27002 0.0
H492 H 0.18018 0.09509 0.30192 0.0
H493 H 0.24722 0.1816 0.2527 0.0
H494 H 0.2236 0.20576 0.2455 0.0
H495 H 0.22628 0.17734 0.22558 0.0
C496 C 0.31212 0.80759 0.77414 0.0
C497 C 0.33044 0.8205 0.78922 0.0
C498 C 0.29159 0.82081 0.76296 0.0
C499 C 0.28913 0.84762 0.76712 0.0
C500 C 0.30739 0.86078 0.7825 0.0
C501 C 0.328 0.84708 0.79322 0.0
C502 C 0.27283 0.80613 0.74622 0.0
C503 C 0.3052 0.88932 0.7875 0.0
C504 C 0.25092 0.88275 0.71563 0.0
C505 C 0.22665 0.88374 0.72705 0.0
C506 C 0.27163 0.87182 0.72885 0.0
C507 C 0.26805 0.86188 0.75424 0.0
C508 C 0.24383 0.86377 0.76634 0.0
C509 C 0.22333 0.8746 0.75252 0.0
C510 C 0.29705 0.8699 0.71514 0.0
C511 C 0.23937 0.85348 0.79347 0.0
H512 H 0.31404 0.78709 0.77068 0.0
H513 H 0.34202 0.85711 0.80496 0.0
H514 H 0.25304 0.80963 0.75295 0.0
H515 H 0.27409 0.81298 0.72577 0.0
H516 H 0.27643 0.78507 0.74646 0.0
H517 H 0.32033 0.89649 0.8008 0.0
H518 H 0.3065 0.9 0.76882 0.0
H519 H 0.28632 0.89379 0.79616 0.0
H520 H 0.25365 0.88979 0.69594 0.0
H521 H 0.20461 0.87538 0.76144 0.0
H522 H 0.3018 0.84936 0.71171 0.0
H523 H 0.31237 0.8781 0.72752 0.0
H524 H 0.2971 0.88007 0.69609 0.0
H525 H 0.24115 0.8322 0.79336 0.0
H526 H 0.22018 0.85861 0.80103 0.0
H527 H 0.25401 0.86105 0.80706 0.0
C528 C 0.74799 0.38371 0.77712 0.0
C529 C 0.77225 0.38554 0.76575 0.0
C530 C 0.72764 0.37227 0.76378 0.0
C531 C 0.73156 0.36263 0.73831 0.0
C532 C 0.75572 0.36536 0.72628 0.0
C533 C 0.77587 0.37671 0.74021 0.0
C534 C 0.70225 0.36949 0.7774 0.0
C535 C 0.76054 0.35541 0.69908 0.0
C536 C 0.689 0.30726 0.71798 0.0
C537 C 0.67034 0.31977 0.70299 0.0
C538 C 0.70917 0.32097 0.72926 0.0
C539 C 0.71091 0.34786 0.72527 0.0
C540 C 0.69233 0.36062 0.70994 0.0
C541 C 0.6721 0.34643 0.69913 0.0
C542 C 0.7283 0.3067 0.74592 0.0
C543 C 0.69375 0.38925 0.70514 0.0
H544 H 0.74504 0.39052 0.79686 0.0
H545 H 0.79456 0.37813 0.73133 0.0
H546 H 0.68673 0.37734 0.76506 0.0
H547 H 0.69809 0.3488 0.78067 0.0
H548 H 0.70188 0.3795 0.79653 0.0
H549 H 0.77958 0.36116 0.6916 0.0
H550 H 0.75936 0.33408 0.69904 0.0
H551 H 0.74571 0.36264 0.68551 0.0
H552 H 0.68761 0.2867 0.72134 0.0
H553 H 0.65781 0.35616 0.68747 0.0
H554 H 0.72696 0.31347 0.76638 0.0
H555 H 0.74799 0.31069 0.73913 0.0
H556 H 0.72519 0.28555 0.74565 0.0
H557 H 0.69204 0.39974 0.72389 0.0
H558 H 0.6785 0.39607 0.6918 0.0
H559 H 0.71254 0.39433 0.69663 0.0
C560 C 0.8275 0.64846 0.20063 0.0
C561 C 0.82879 0.67534 0.2027 0.0
C562 C 0.80732 0.63466 0.21206 0.0
C563 C 0.78826 0.64808 0.22615 0.0
C564 C 0.78945 0.6752 0.22824 0.0
C565 C 0.80962 0.68847 0.21643 0.0
C566 C 0.80654 0.60574 0.20937 0.0
C567 C 0.76977 0.69021 0.2435 0.0
C568 C 0.72383 0.61853 0.24215 0.0
C569 C 0.72733 0.61135 0.26823 0.0
C570 C 0.74384 0.62961 0.22779 0.0
C571 C 0.76773 0.63382 0.23996 0.0
C572 C 0.77149 0.62604 0.26609 0.0
C573 C 0.7513 0.61476 0.27984 0.0
C574 C 0.7392 0.63758 0.1999 0.0
C575 C 0.79655 0.63051 0.27989 0.0
H576 H 0.84218 0.6382 0.19 0.0
H577 H 0.81059 0.70923 0.21844 0.0
H578 H 0.80835 0.59666 0.22886 0.0
H579 H 0.78793 0.59964 0.20115 0.0
H580 H 0.82204 0.59833 0.19667 0.0
H581 H 0.77248 0.71135 0.24174 0.0
H582 H 0.75028 0.68533 0.2367 0.0
H583 H 0.7709 0.68493 0.26443 0.0
H584 H 0.70534 0.61589 0.23309 0.0
H585 H 0.75414 0.60932 0.30003 0.0
H586 H 0.75428 0.62963 0.18706 0.0
H587 H 0.74009 0.65886 0.19832 0.0
H588 H 0.72032 0.63103 0.19263 0.0
H589 H 0.81247 0.62212 0.26847 0.0
H590 H 0.79682 0.62204 0.29977 0.0
H591 H 0.80019 0.65149 0.28154 0.0
C592 C 0.30843 0.17892 0.14604 0.0
C593 C 0.30328 0.17553 0.17263 0.0
C594 C 0.29751 0.1994 0.13207 0.0
C595 C 0.28076 0.21657 0.14495 0.0
C596 C 0.27542 0.21318 0.17178 0.0
C597 C 0.28688 0.1928 0.18532 0.0
C598 C 0.30375 0.20256 0.10352 0.0
C599 C 0.25724 0.23077 0.18609 0.0
C600 C 0.26576 0.28275 0.11745 0.0
C601 C 0.24174 0.27859 0.10625 0.0
C602 C 0.27913 0.26251 0.12939 0.0
C603 C 0.26808 0.23765 0.13028 0.0
C604 C 0.24416 0.23321 0.11835 0.0
C605 C 0.23135 0.25371 0.10636 0.0
C606 C 0.30469 0.26789 0.14178 0.0
C607 C 0.23164 0.20703 0.11911 0.0
H608 H 0.32115 0.16567 0.13617 0.0
H609 H 0.28255 0.1901 0.2058 0.0
H610 H 0.28614 0.20063 0.09172 0.0
H611 H 0.3115 0.22211 0.09989 0.0
H612 H 0.31784 0.18812 0.09663 0.0
H613 H 0.25582 0.22602 0.20716 0.0
H614 H 0.26346 0.25109 0.18413 0.0
H615 H 0.23793 0.22933 0.17737 0.0
H616 H 0.27388 0.30194 0.11739 0.0
H617 H 0.21276 0.25036 0.0978 0.0
H618 H 0.31913 0.254 0.13458 0.0
H619 H 0.30328 0.26534 0.1632 0.0
H620 H 0.3115 0.28774 0.13771 0.0
H621 H 0.24478 0.19219 0.1113 0.0
H622 H 0.21364 0.20647 0.10772 0.0
H623 H 0.2273 0.20174 0.13959 0.0
C624 C 0.78857 0.30035 0.80684 0.0
C625 C 0.80512 0.31762 0.81933 0.0
C626 C 0.77764 0.2797 0.82043 0.0
C627 C 0.78372 0.27602 0.84705 0.0
C628 C 0.80084 0.29304 0.85963 0.0
C629 C 0.81116 0.31382 0.84567 0.0
C630 C 0.75904 0.26227 0.80646 0.0
C631 C 0.80793 0.28953 0.88793 0.0
C632 C 0.73497 0.23964 0.88718 0.0
C633 C 0.74504 0.21464 0.88711 0.0
C634 C 0.74766 0.2599 0.87466 0.0
C635 C 0.77113 0.25509 0.86199 0.0
C636 C 0.78188 0.23009 0.86264 0.0
C637 C 0.76864 0.21009 0.87514 0.0
C638 C 0.73548 0.28625 0.87422 0.0
C639 C 0.80697 0.22432 0.84947 0.0
H640 H 0.78359 0.30338 0.78655 0.0
H641 H 0.82403 0.32705 0.85535 0.0
H642 H 0.76505 0.24189 0.80836 0.0
H643 H 0.7399 0.26397 0.81551 0.0
H644 H 0.75734 0.26701 0.78542 0.0
H645 H 0.8226 0.30357 0.89441 0.0
H646 H 0.79076 0.29187 0.90033 0.0
H647 H 0.81529 0.26977 0.89122 0.0
H648 H 0.71671 0.24329 0.89635 0.0
H649 H 0.7765 0.1908 0.87505 0.0
H650 H 0.73086 0.29169 0.85384 0.0
H651 H 0.74896 0.30088 0.88184 0.0
H652 H 0.71769 0.28703 0.88594 0.0
H653 H 0.80499 0.22693 0.8281 0.0
H654 H 0.8136 0.20437 0.85331 0.0
H655 H 0.82183 0.23798 0.85624 0.0
C656 C 0.76514 0.75688 0.38799 0.0
C657 C 0.75516 0.78192 0.38791 0.0
C658 C 0.75214 0.73658 0.3759 0.0
C659 C 0.72843 0.74139 0.36368 0.0
C660 C 0.71775 0.76642 0.36441 0.0
C661 C 0.73133 0.78646 0.37645 0.0
C662 C 0.76426 0.71021 0.37532 0.0
C663 C 0.6924 0.77217 0.35177 0.0
C664 C 0.71018 0.69617 0.30881 0.0
C665 C 0.69388 0.67885 0.32156 0.0
C666 C 0.72129 0.71682 0.32223 0.0
C667 C 0.71561 0.72047 0.34895 0.0
C668 C 0.6987 0.70342 0.36179 0.0
C669 C 0.68821 0.68263 0.34799 0.0
C670 C 0.73965 0.73429 0.30798 0.0
C671 C 0.69204 0.70689 0.39021 0.0
H672 H 0.78359 0.75324 0.39677 0.0
H673 H 0.72353 0.80578 0.37637 0.0
H674 H 0.75087 0.69561 0.38315 0.0
H675 H 0.7686 0.70476 0.35489 0.0
H676 H 0.78221 0.70941 0.38679 0.0
H677 H 0.68581 0.7921 0.35581 0.0
H678 H 0.69399 0.76966 0.33036 0.0
H679 H 0.6777 0.75846 0.35878 0.0
H680 H 0.71488 0.69317 0.28846 0.0
H681 H 0.67553 0.66935 0.35788 0.0
H682 H 0.75884 0.73295 0.31698 0.0
H683 H 0.73339 0.75462 0.30964 0.0
H684 H 0.74135 0.72932 0.28698 0.0
H685 H 0.70939 0.70447 0.40233 0.0
H686 H 0.67743 0.69288 0.39689 0.0
H687 H 0.6848 0.72667 0.39365 0.0
C688 C 0.19045 0.81199 0.64622 0.0
C689 C 0.19593 0.81565 0.6727 0.0
C690 C 0.2012 0.79138 0.63235 0.0
C691 C 0.21816 0.77437 0.64519 0.0
C692 C 0.22382 0.77804 0.67191 0.0
C693 C 0.21249 0.79852 0.68538 0.0
C694 C 0.19461 0.7879 0.60392 0.0
C695 C 0.24223 0.76063 0.68617 0.0
C696 C 0.23319 0.70802 0.61822 0.0
C697 C 0.25706 0.7122 0.60671 0.0
C698 C 0.21983 0.72831 0.63008 0.0
C699 C 0.23077 0.75323 0.63057 0.0
C700 C 0.25451 0.75769 0.6183 0.0
C701 C 0.26731 0.73714 0.6064 0.0
C702 C 0.19445 0.72291 0.64282 0.0
C703 C 0.2669 0.78394 0.61863 0.0
H704 H 0.1776 0.82513 0.63638 0.0
H705 H 0.21707 0.80146 0.70577 0.0
H706 H 0.21205 0.78985 0.59185 0.0
H707 H 0.18694 0.76827 0.60058 0.0
H708 H 0.18033 0.80218 0.59708 0.0
H709 H 0.24394 0.76563 0.70715 0.0
H710 H 0.236 0.74029 0.68455 0.0
H711 H 0.26141 0.762 0.67715 0.0
H712 H 0.22518 0.68879 0.61847 0.0
H713 H 0.28579 0.7405 0.59759 0.0
H714 H 0.17986 0.73669 0.63569 0.0
H715 H 0.19609 0.72564 0.6642 0.0
H716 H 0.18767 0.70301 0.639 0.0
H717 H 0.25359 0.79864 0.61083 0.0
H718 H 0.28477 0.78449 0.60701 0.0
H719 H 0.27145 0.78946 0.639 0.0
C720 C 0.84935 0.67967 0.80268 0.0
C721 C 0.86943 0.67421 0.81981 0.0
C722 C 0.85334 0.69516 0.78066 0.0
C723 C 0.87809 0.70478 0.77553 0.0
C724 C 0.89868 0.69796 0.79197 0.0
C725 C 0.894 0.68302 0.81417 0.0
C726 C 0.83082 0.70256 0.76392 0.0
C727 C 0.92542 0.70747 0.78684 0.0
C728 C 0.89458 0.73505 0.71036 0.0
C729 C 0.89451 0.7612 0.71689 0.0
C730 C 0.88877 0.71629 0.72914 0.0
C731 C 0.88216 0.7241 0.75469 0.0
C732 C 0.88094 0.7506 0.76097 0.0
C733 C 0.88749 0.76883 0.74205 0.0
C734 C 0.8905 0.68818 0.72191 0.0
C735 C 0.87323 0.75972 0.78781 0.0
H736 H 0.83026 0.67304 0.80727 0.0
H737 H 0.90951 0.67864 0.82743 0.0
H738 H 0.82641 0.72325 0.76688 0.0
H739 H 0.83532 0.69991 0.74297 0.0
H740 H 0.81353 0.69115 0.76872 0.0
H741 H 0.93967 0.69805 0.79971 0.0
H742 H 0.93082 0.7039 0.76624 0.0
H743 H 0.9263 0.72856 0.79013 0.0
H744 H 0.89989 0.72925 0.6908 0.0
H745 H 0.88693 0.78914 0.74692 0.0
H746 H 0.87244 0.67817 0.7268 0.0
H747 H 0.90587 0.67887 0.7334 0.0
H748 H 0.89456 0.68535 0.70086 0.0
H749 H 0.85488 0.75079 0.79364 0.0
H750 H 0.87116 0.78098 0.7888 0.0
H751 H 0.88778 0.7537 0.80227 0.0
C752 C 0.60464 0.26176 0.21098 0.0
C753 C 0.60468 0.2356 0.21753 0.0
C754 C 0.61062 0.2805 0.22971 0.0
C755 C 0.61738 0.27267 0.25523 0.0
C756 C 0.61854 0.24617 0.26151 0.0
C757 C 0.61184 0.22795 0.24265 0.0
C758 C 0.60895 0.30861 0.22248 0.0
C759 C 0.62638 0.23703 0.28831 0.0
C760 C 0.6505 0.31693 0.30317 0.0
C761 C 0.6305 0.32237 0.32039 0.0
C762 C 0.64637 0.30152 0.28111 0.0
C763 C 0.62158 0.29198 0.27605 0.0
C764 C 0.60107 0.29883 0.29258 0.0
C765 C 0.60587 0.31367 0.3148 0.0
C766 C 0.6688 0.29412 0.26426 0.0
C767 C 0.57428 0.28939 0.28755 0.0
H768 H 0.59924 0.26757 0.19145 0.0
H769 H 0.61238 0.20765 0.24753 0.0
H770 H 0.59365 0.31797 0.23403 0.0
H771 H 0.62705 0.31857 0.22728 0.0
H772 H 0.6048 0.31145 0.20144 0.0
H773 H 0.6284 0.21576 0.2893 0.0
H774 H 0.64479 0.24591 0.29403 0.0
H775 H 0.61193 0.24309 0.30286 0.0
H776 H 0.66962 0.32347 0.30771 0.0
H777 H 0.59043 0.31803 0.32815 0.0
H778 H 0.6642 0.29674 0.24333 0.0
H779 H 0.67324 0.27344 0.26723 0.0
H780 H 0.68611 0.30555 0.26895 0.0
H781 H 0.56882 0.29299 0.26697 0.0
H782 H 0.5601 0.29884 0.30047 0.0
H783 H 0.57335 0.26831 0.29085 0.0
C784 C 0.39526 0.75195 0.28148 0.0
C785 C 0.39111 0.72582 0.2765 0.0
C786 C 0.39013 0.77049 0.26228 0.0
C787 C 0.37991 0.76258 0.23802 0.0
C788 C 0.37428 0.73629 0.23359 0.0
C789 C 0.38038 0.71814 0.25277 0.0
C790 C 0.39671 0.7983 0.26751 0.0
C791 C 0.36254 0.72721 0.20831 0.0
C792 C 0.35094 0.81111 0.19138 0.0
C793 C 0.37034 0.81329 0.17272 0.0
C794 C 0.35393 0.79505 0.21316 0.0
C795 C 0.37701 0.78133 0.21645 0.0
C796 C 0.39702 0.78435 0.19819 0.0
C797 C 0.39334 0.80013 0.17639 0.0
C798 C 0.33201 0.79188 0.23197 0.0
C799 C 0.42205 0.77028 0.20123 0.0
H800 H 0.40349 0.75776 0.29995 0.0
H801 H 0.37673 0.69788 0.24923 0.0
H802 H 0.41231 0.80442 0.25427 0.0
H803 H 0.38007 0.81084 0.26341 0.0
H804 H 0.40293 0.80151 0.28795 0.0
H805 H 0.35672 0.70665 0.20917 0.0
H806 H 0.34557 0.739 0.20342 0.0
H807 H 0.37647 0.72958 0.19222 0.0
H808 H 0.33303 0.8211 0.18841 0.0
H809 H 0.40837 0.80189 0.16199 0.0
H810 H 0.33853 0.79502 0.25228 0.0
H811 H 0.32461 0.7719 0.23081 0.0
H812 H 0.31611 0.80539 0.22775 0.0
H813 H 0.43007 0.77372 0.22094 0.0
H814 H 0.43634 0.77631 0.18646 0.0
H815 H 0.41888 0.74925 0.19926 0.0
C816 C 0.14879 0.18145 0.69143 0.0
C817 C 0.12853 0.17656 0.67434 0.0
C818 C 0.14552 0.19774 0.71299 0.0
C819 C 0.12129 0.20879 0.71771 0.0
C820 C 0.1005 0.20282 0.70118 0.0
C821 C 0.10447 0.18701 0.67947 0.0
C822 C 0.16825 0.20419 0.72982 0.0
C823 C 0.07428 0.21391 0.70585 0.0
C824 C 0.10502 0.23926 0.78278 0.0
C825 C 0.10614 0.26545 0.77644 0.0
C826 C 0.11052 0.22044 0.76399 0.0
C827 C 0.1179 0.22816 0.73862 0.0
C828 C 0.12032 0.25465 0.73261 0.0
C829 C 0.11404 0.27299 0.75152 0.0
C830 C 0.10751 0.19237 0.77097 0.0
C831 C 0.1289 0.26363 0.706 0.0
H832 H 0.16749 0.1736 0.68724 0.0
H833 H 0.08882 0.18314 0.66622 0.0
H834 H 0.17346 0.2247 0.72699 0.0
H835 H 0.16356 0.20162 0.75073 0.0
H836 H 0.18511 0.19213 0.72505 0.0
H837 H 0.05972 0.20546 0.69266 0.0
H838 H 0.06832 0.21053 0.72632 0.0
H839 H 0.07471 0.23504 0.70272 0.0
H840 H 0.09901 0.23351 0.80214 0.0
H841 H 0.11538 0.2933 0.74682 0.0
H842 H 0.12515 0.1816 0.76616 0.0
H843 H 0.09184 0.18386 0.75927 0.0
H844 H 0.10315 0.18955 0.79196 0.0
H845 H 0.14677 0.25372 0.70026 0.0
H846 H 0.13221 0.28475 0.70534 0.0
H847 H 0.11421 0.25867 0.69128 0.0
C848 C 0.73356 0.86312 0.78088 0.0
C849 C 0.74232 0.85853 0.80632 0.0
C850 C 0.74922 0.85815 0.75918 0.0
C851 C 0.77406 0.84818 0.76305 0.0
C852 C 0.78323 0.84421 0.78866 0.0
C853 C 0.76731 0.84946 0.8099 0.0
C854 C 0.73891 0.86281 0.73212 0.0
C855 C 0.80952 0.83337 0.79368 0.0
C856 C 0.80566 0.80443 0.71385 0.0
C857 C 0.82523 0.82015 0.70401 0.0
C858 C 0.7881 0.81375 0.7321 0.0
C859 C 0.78985 0.83958 0.74059 0.0
C860 C 0.80858 0.85603 0.72969 0.0
C861 C 0.82618 0.84608 0.71162 0.0
C862 C 0.76861 0.79546 0.74343 0.0
C863 C 0.81084 0.88377 0.73811 0.0
H864 H 0.71437 0.87024 0.77787 0.0
H865 H 0.7744 0.84583 0.8294 0.0
H866 H 0.75273 0.87416 0.72045 0.0
H867 H 0.73618 0.84413 0.72203 0.0
H868 H 0.72037 0.87316 0.73245 0.0
H869 H 0.81469 0.83387 0.81467 0.0
H870 H 0.81029 0.81309 0.78693 0.0
H871 H 0.8241 0.84428 0.78259 0.0
H872 H 0.8046 0.78437 0.70813 0.0
H873 H 0.84108 0.85845 0.70403 0.0
H874 H 0.74926 0.80401 0.74243 0.0
H875 H 0.77296 0.79195 0.7643 0.0
H876 H 0.76833 0.77664 0.73316 0.0
H877 H 0.79187 0.89322 0.73794 0.0
H878 H 0.824 0.89486 0.72539 0.0
H879 H 0.81812 0.88461 0.7584 0.0
C880 C 0.69368 0.19324 0.21414 0.0
C881 C 0.67429 0.17734 0.20423 0.0
C882 C 0.71144 0.18398 0.23224 0.0
C883 C 0.71006 0.15804 0.2405 0.0
C884 C 0.69151 0.14145 0.22952 0.0
C885 C 0.67372 0.15133 0.21161 0.0
C886 C 0.73073 0.20242 0.24366 0.0
C887 C 0.68965 0.1136 0.23769 0.0
C888 C 0.76665 0.13464 0.28046 0.0
C889 C 0.75785 0.13879 0.30595 0.0
C890 C 0.75095 0.13976 0.25883 0.0
C891 C 0.72601 0.14945 0.26283 0.0
C892 C 0.71683 0.15301 0.2885 0.0
C893 C 0.73279 0.14762 0.30966 0.0
C894 C 0.76127 0.13554 0.23171 0.0
C895 C 0.69043 0.16352 0.29366 0.0
H896 H 0.69446 0.21336 0.20861 0.0
H897 H 0.65896 0.13883 0.20396 0.0
H898 H 0.72637 0.20571 0.26457 0.0
H899 H 0.75018 0.19412 0.24257 0.0
H900 H 0.73075 0.22132 0.23354 0.0
H901 H 0.67659 0.10245 0.22491 0.0
H902 H 0.70874 0.10441 0.23736 0.0
H903 H 0.68244 0.11247 0.25799 0.0
H904 H 0.7859 0.12771 0.27735 0.0
H905 H 0.72567 0.15089 0.32921 0.0
H906 H 0.76368 0.15436 0.22178 0.0
H907 H 0.74761 0.12408 0.21996 0.0
H908 H 0.77997 0.12549 0.23189 0.0
H909 H 0.68935 0.18379 0.28691 0.0
H910 H 0.68536 0.16293 0.31468 0.0
H911 H 0.67594 0.15242 0.28264 0.0
C912 C 0.32557 0.64094 0.28355 0.0
C913 C 0.32237 0.66508 0.29537 0.0
C914 C 0.30763 0.63164 0.26548 0.0
C915 C 0.28622 0.64698 0.25894 0.0
C916 C 0.28191 0.67036 0.27232 0.0
C917 C 0.29992 0.67902 0.29045 0.0
C918 C 0.31265 0.6064 0.25188 0.0
C919 C 0.25938 0.68736 0.26596 0.0
C920 C 0.26323 0.6471 0.18904 0.0
C921 C 0.23988 0.63403 0.19083 0.0
C922 C 0.27868 0.65079 0.21096 0.0
C923 C 0.27076 0.64098 0.2354 0.0
C924 C 0.24754 0.62718 0.23733 0.0
C925 C 0.23222 0.62406 0.21502 0.0
C926 C 0.30305 0.66607 0.20805 0.0
C927 C 0.23877 0.61604 0.26298 0.0
H928 H 0.34268 0.62987 0.28736 0.0
H929 H 0.29695 0.69751 0.29975 0.0
H930 H 0.29487 0.59493 0.2503 0.0
H931 H 0.31952 0.61022 0.23179 0.0
H932 H 0.3273 0.59478 0.26219 0.0
H933 H 0.25696 0.70314 0.28036 0.0
H934 H 0.26216 0.69608 0.24641 0.0
H935 H 0.24154 0.67594 0.26526 0.0
H936 H 0.2693 0.65497 0.1705 0.0
H937 H 0.21432 0.61374 0.21653 0.0
H938 H 0.31916 0.65626 0.21791 0.0
H939 H 0.30065 0.6852 0.21735 0.0
H940 H 0.3083 0.66902 0.18731 0.0
H941 H 0.25411 0.6041 0.27169 0.0
H942 H 0.22137 0.60404 0.2608 0.0
H943 H 0.23463 0.63182 0.2769 0.0
C944 C 0.2348 0.34461 0.68911 0.0
C945 C 0.25865 0.35666 0.69126 0.0
C946 C 0.21925 0.34079 0.71094 0.0
C947 C 0.22762 0.34936 0.73568 0.0
C948 C 0.25135 0.36218 0.73801 0.0
C949 C 0.26672 0.36551 0.71577 0.0
C950 C 0.19428 0.32663 0.70755 0.0
C951 C 0.26065 0.37198 0.76402 0.0
C952 C 0.17327 0.3496 0.78438 0.0
C953 C 0.17569 0.32494 0.79528 0.0
C954 C 0.19135 0.35888 0.76644 0.0
C955 C 0.2121 0.343 0.75908 0.0
C956 C 0.21564 0.31897 0.77148 0.0
C957 C 0.19752 0.31033 0.78952 0.0
C958 C 0.18714 0.38479 0.75387 0.0
C959 C 0.23744 0.30137 0.76419 0.0
H960 H 0.22836 0.33762 0.67034 0.0
H961 H 0.28502 0.37505 0.71758 0.0
H962 H 0.19612 0.30692 0.71568 0.0
H963 H 0.17866 0.33643 0.7182 0.0
H964 H 0.18868 0.32507 0.68674 0.0
H965 H 0.27838 0.38354 0.76218 0.0
H966 H 0.24575 0.38399 0.77338 0.0
H967 H 0.26445 0.35551 0.77721 0.0
H968 H 0.15665 0.36119 0.78885 0.0
H969 H 0.19989 0.2914 0.79807 0.0
H970 H 0.18005 0.382 0.73369 0.0
H971 H 0.20531 0.39567 0.75262 0.0
H972 H 0.17297 0.39653 0.76472 0.0
H973 H 0.2342 0.29363 0.7443 0.0
H974 H 0.23933 0.2849 0.77787 0.0
H975 H 0.25571 0.3121 0.76386 0.0
C976 C 0.80469 0.74508 0.85883 0.0
C977 C 0.80448 0.7215 0.87219 0.0
C978 C 0.78279 0.76046 0.85736 0.0
C979 C 0.76006 0.75213 0.86962 0.0
C980 C 0.75941 0.72799 0.8824 0.0
C981 C 0.78163 0.71291 0.8835 0.0
C982 C 0.78419 0.78596 0.84325 0.0
C983 C 0.73543 0.71842 0.89547 0.0
C984 C 0.71597 0.80672 0.88865 0.0
C985 C 0.69906 0.80729 0.86753 0.0
C986 C 0.73519 0.78803 0.8902 0.0
C987 C 0.73752 0.76947 0.87014 0.0
C988 C 0.7196 0.76905 0.84952 0.0
C989 C 0.70051 0.78797 0.84848 0.0
C990 C 0.75388 0.78906 0.91257 0.0
C991 C 0.72145 0.74959 0.82775 0.0
H992 H 0.82212 0.75173 0.84968 0.0
H993 H 0.78121 0.69468 0.89376 0.0
H994 H 0.76925 0.78699 0.82797 0.0
H995 H 0.78058 0.80192 0.85714 0.0
H996 H 0.80305 0.78911 0.83394 0.0
H997 H 0.73756 0.69851 0.90309 0.0
H998 H 0.73043 0.73132 0.91193 0.0
H999 H 0.71923 0.71884 0.88157 0.0
H1000 H 0.71485 0.82154 0.90348 0.0
H1001 H 0.68751 0.78832 0.83207 0.0
H1002 H 0.77299 0.79455 0.90513 0.0
H1003 H 0.75573 0.76982 0.92177 0.0
H1004 H 0.74811 0.80318 0.92772 0.0
H1005 H 0.73823 0.75409 0.8154 0.0
H1006 H 0.70419 0.74962 0.81519 0.0
H1007 H 0.72424 0.72994 0.83571 0.0
C1008 C 0.20101 0.70575 0.14536 0.0
C1009 C 0.19866 0.68657 0.12628 0.0
C1010 C 0.22002 0.7247 0.14347 0.0
C1011 C 0.23687 0.72451 0.12192 0.0
C1012 C 0.23344 0.7062 0.10177 0.0
C1013 C 0.21442 0.6874 0.10425 0.0
C1014 C 0.22307 0.74385 0.16538 0.0
C1015 C 0.25093 0.7054 0.07841 0.0
C1016 C 0.28202 0.78031 0.10836 0.0
C1017 C 0.30497 0.77085 0.11871 0.0
C1018 C 0.25945 0.76574 0.10975 0.0
C1019 C 0.25988 0.74124 0.12183 0.0
C1020 C 0.2828 0.73195 0.13293 0.0
C1021 C 0.305 0.74684 0.13126 0.0
C1022 C 0.23531 0.77628 0.09781 0.0
C1023 C 0.28403 0.70607 0.14628 0.0
H1024 H 0.1889 0.70519 0.16246 0.0
H1025 H 0.21256 0.67269 0.08938 0.0
H1026 H 0.24021 0.73885 0.177 0.0
H1027 H 0.22595 0.76356 0.15758 0.0
H1028 H 0.20629 0.74398 0.1786 0.0
H1029 H 0.244 0.69192 0.06317 0.0
H1030 H 0.25287 0.72485 0.06971 0.0
H1031 H 0.27022 0.69913 0.08466 0.0
H1032 H 0.28176 0.79887 0.09872 0.0
H1033 H 0.32249 0.73951 0.13971 0.0
H1034 H 0.21964 0.77604 0.11234 0.0
H1035 H 0.22931 0.76386 0.08132 0.0
H1036 H 0.23775 0.79626 0.09052 0.0
H1037 H 0.27084 0.70578 0.16319 0.0
H1038 H 0.30353 0.70145 0.15328 0.0
H1039 H 0.27784 0.69066 0.1327 0.0
C1040 C 0.2983 0.2851 0.64637 0.0
C1041 C 0.30026 0.30435 0.62731 0.0
C1042 C 0.27925 0.26615 0.64484 0.0
C1043 C 0.26194 0.26647 0.62367 0.0
C1044 C 0.26494 0.28486 0.60353 0.0
C1045 C 0.28404 0.30362 0.60563 0.0
C1046 C 0.27669 0.24688 0.6667 0.0
C1047 C 0.24695 0.28577 0.58057 0.0
C1048 C 0.21675 0.21071 0.61032 0.0
C1049 C 0.19392 0.22003 0.62107 0.0
C1050 C 0.23932 0.22528 0.61159 0.0
C1051 C 0.23901 0.24964 0.62394 0.0
C1052 C 0.21625 0.25873 0.63554 0.0
C1053 C 0.19403 0.24385 0.63396 0.0
C1054 C 0.2633 0.21492 0.59917 0.0
C1055 C 0.21518 0.28447 0.64917 0.0
H1056 H 0.31078 0.28557 0.6632 0.0
H1057 H 0.2856 0.31838 0.59077 0.0
H1058 H 0.25978 0.25177 0.67871 0.0
H1059 H 0.2737 0.22721 0.65886 0.0
H1060 H 0.29373 0.24672 0.67957 0.0
H1061 H 0.25348 0.29943 0.5653 0.0
H1062 H 0.24495 0.26639 0.57174 0.0
H1063 H 0.22776 0.29185 0.58729 0.0
H1064 H 0.2169 0.19228 0.60043 0.0
H1065 H 0.17663 0.25107 0.6427 0.0
H1066 H 0.27924 0.21522 0.61338 0.0
H1067 H 0.26891 0.2274 0.58259 0.0
H1068 H 0.26084 0.19493 0.59189 0.0
H1069 H 0.22932 0.28505 0.66524 0.0
H1070 H 0.19601 0.28854 0.65738 0.0
H1071 H 0.22017 0.30008 0.63531 0.0
C1072 C 0.71867 0.2833 0.38403 0.0
C1073 C 0.69594 0.27481 0.37241 0.0
C1074 C 0.74093 0.26829 0.38295 0.0
C1075 C 0.74044 0.24431 0.36988 0.0
C1076 C 0.71785 0.23609 0.35729 0.0
C1077 C 0.69589 0.2514 0.35874 0.0
C1078 C 0.76476 0.27774 0.3964 0.0
C1079 C 0.71663 0.21077 0.34285 0.0
C1080 C 0.80016 0.20868 0.34894 0.0
C1081 C 0.80138 0.18911 0.36774 0.0
C1082 C 0.78111 0.22763 0.35003 0.0
C1083 C 0.76298 0.22698 0.37045 0.0
C1084 C 0.7651 0.20817 0.39032 0.0
C1085 C 0.78429 0.18946 0.38872 0.0
C1086 C 0.77951 0.24737 0.32849 0.0
C1087 C 0.74619 0.20689 0.41248 0.0
H1088 H 0.71894 0.3014 0.39453 0.0
H1089 H 0.67856 0.24482 0.34935 0.0
H1090 H 0.76957 0.26468 0.4128 0.0
H1091 H 0.78111 0.27744 0.38269 0.0
H1092 H 0.76254 0.29757 0.40417 0.0
H1093 H 0.6979 0.20775 0.33323 0.0
H1094 H 0.73178 0.2099 0.32779 0.0
H1095 H 0.72001 0.19465 0.35661 0.0
H1096 H 0.81331 0.20851 0.33265 0.0
H1097 H 0.78524 0.17445 0.40337 0.0
H1098 H 0.77661 0.26692 0.33666 0.0
H1099 H 0.76287 0.24302 0.31588 0.0
H1100 H 0.79692 0.24751 0.31615 0.0
H1101 H 0.74424 0.22602 0.42187 0.0
H1102 H 0.75182 0.19261 0.42754 0.0
H1103 H 0.72716 0.20146 0.40478 0.0
C1104 C 0.12814 0.16049 0.51883 0.0
C1105 C 0.11307 0.17564 0.53543 0.0
C1106 C 0.12585 0.16242 0.49167 0.0
C1107 C 0.10798 0.17983 0.48088 0.0
C1108 C 0.09171 0.19407 0.49747 0.0
C1109 C 0.09447 0.19184 0.52455 0.0
C1110 C 0.14353 0.14691 0.47456 0.0
C1111 C 0.07229 0.21269 0.48666 0.0
C1112 C 0.12397 0.21036 0.41595 0.0
C1113 C 0.10857 0.19633 0.39867 0.0
C1114 C 0.12402 0.20499 0.44268 0.0
C1115 C 0.10816 0.18521 0.45249 0.0
C1116 C 0.09249 0.17098 0.43527 0.0
C1117 C 0.09294 0.17665 0.40851 0.0
C1118 C 0.14113 0.2205 0.46044 0.0
C1119 C 0.07523 0.14986 0.44515 0.0
H1120 H 0.14247 0.1478 0.527 0.0
H1121 H 0.08251 0.20343 0.53716 0.0
H1122 H 0.13264 0.13701 0.45898 0.0
H1123 H 0.15733 0.15999 0.4649 0.0
H1124 H 0.15438 0.13228 0.48581 0.0
H1125 H 0.05929 0.22017 0.50198 0.0
H1126 H 0.08225 0.22925 0.47755 0.0
H1127 H 0.0607 0.20332 0.47127 0.0
H1128 H 0.13626 0.22548 0.40858 0.0
H1129 H 0.08093 0.16574 0.39533 0.0
H1130 H 0.15439 0.20751 0.47097 0.0
H1131 H 0.12951 0.23062 0.4753 0.0
H1132 H 0.15256 0.23502 0.44964 0.0
H1133 H 0.08665 0.13492 0.45527 0.0
H1134 H 0.06425 0.14056 0.4292 0.0
H1135 H 0.0616 0.1578 0.4596 0.0
C1136 C 0.3696 0.82984 0.01702 0.0
C1137 C 0.38632 0.81684 0.03384 0.0
C1138 C 0.37226 0.82793 0.98989 0.0
C1139 C 0.39223 0.81284 0.97938 0.0
C1140 C 0.41008 0.80098 0.9962 0.0
C1141 C 0.40685 0.80304 0.02324 0.0
C1142 C 0.35281 0.8408 0.97253 0.0
C1143 C 0.43179 0.78496 0.98569 0.0
C1144 C 0.38001 0.77984 0.91483 0.0
C1145 C 0.39334 0.79562 0.8973 0.0
C1146 C 0.37952 0.78533 0.94153 0.0
C1147 C 0.39281 0.80708 0.95105 0.0
C1148 C 0.4065 0.82302 0.93361 0.0
C1149 C 0.40658 0.81713 0.90689 0.0
C1150 C 0.36463 0.76789 0.95955 0.0
C1151 C 0.42098 0.8463 0.94317 0.0
H1152 H 0.35371 0.84061 0.025 0.0
H1153 H 0.42008 0.7932 0.03606 0.0
H1154 H 0.3624 0.85183 0.95683 0.0
H1155 H 0.34082 0.8259 0.96304 0.0
H1156 H 0.34015 0.85403 0.98356 0.0
H1157 H 0.44562 0.77953 0.00114 0.0
H1158 H 0.4241 0.76707 0.97686 0.0
H1159 H 0.44208 0.79556 0.97015 0.0
H1160 H 0.36964 0.76322 0.90771 0.0
H1161 H 0.41696 0.82944 0.89354 0.0
H1162 H 0.34977 0.77913 0.96992 0.0
H1163 H 0.37748 0.75963 0.97454 0.0
H1164 H 0.35522 0.75182 0.94898 0.0
H1165 H 0.40769 0.85993 0.95279 0.0
H1166 H 0.43096 0.85654 0.92713 0.0
H1167 H 0.43526 0.84042 0.95797 0.0
C1168 C 0.59541 0.30254 0.46902 0.0
C1169 C 0.61562 0.31732 0.45912 0.0
C1170 C 0.59203 0.29941 0.49594 0.0
C1171 C 0.60937 0.31119 0.51335 0.0
C1172 C 0.62909 0.32709 0.50358 0.0
C1173 C 0.63193 0.33005 0.47656 0.0
C1174 C 0.57062 0.28251 0.50567 0.0
C1175 C 0.64801 0.33991 0.52158 0.0
C1176 C 0.59394 0.31434 0.58562 0.0
C1177 C 0.60768 0.29315 0.59522 0.0
C1178 C 0.59408 0.32037 0.55894 0.0
C1179 C 0.60837 0.30494 0.54155 0.0
C1180 C 0.62204 0.28342 0.55105 0.0
C1181 C 0.62147 0.27776 0.57772 0.0
C1182 C 0.57916 0.34337 0.54939 0.0
C1183 C 0.63756 0.26652 0.53307 0.0
H1184 H 0.58253 0.29286 0.45573 0.0
H1185 H 0.64756 0.34157 0.46914 0.0
H1186 H 0.57866 0.26472 0.51437 0.0
H1187 H 0.5597 0.29251 0.52118 0.0
H1188 H 0.55727 0.27694 0.48984 0.0
H1189 H 0.66078 0.35345 0.51107 0.0
H1190 H 0.63791 0.35061 0.53718 0.0
H1191 H 0.65992 0.32502 0.53118 0.0
H1192 H 0.58318 0.32633 0.59894 0.0
H1193 H 0.6322 0.26138 0.58486 0.0
H1194 H 0.56547 0.33736 0.53407 0.0
H1195 H 0.59229 0.35759 0.54043 0.0
H1196 H 0.56844 0.35299 0.56533 0.0
H1197 H 0.62516 0.25832 0.51766 0.0
H1198 H 0.647 0.25043 0.54357 0.0
H1199 H 0.65245 0.27818 0.52323 0.0
C1200 C 0.90601 0.67987 0.08524 0.0
C1201 C 0.89251 0.7012 0.09483 0.0
C1202 C 0.90597 0.67394 0.05854 0.0
C1203 C 0.89201 0.68965 0.0411 0.0
C1204 C 0.87859 0.71133 0.05059 0.0
C1205 C 0.87906 0.71687 0.07728 0.0
C1206 C 0.92064 0.65078 0.049 0.0
C1207 C 0.86341 0.72851 0.03258 0.0
C1208 C 0.90516 0.69222 0.96861 0.0
C1209 C 0.88475 0.67781 0.9586 0.0
C1210 C 0.90856 0.69512 0.99555 0.0
C1211 C 0.89103 0.68349 0.01288 0.0
C1212 C 0.87111 0.66793 0.00298 0.0
C1213 C 0.86826 0.66519 0.97595 0.0
C1214 C 0.93021 0.71164 0.00541 0.0
C1215 C 0.85198 0.65529 0.02089 0.0
H1216 H 0.91652 0.66767 0.0986 0.0
H1217 H 0.86852 0.73337 0.08441 0.0
H1218 H 0.90736 0.63674 0.03999 0.0
H1219 H 0.93444 0.65664 0.03373 0.0
H1220 H 0.93119 0.641 0.06496 0.0
H1221 H 0.85416 0.74472 0.04307 0.0
H1222 H 0.87602 0.73657 0.01725 0.0
H1223 H 0.84841 0.71711 0.02262 0.0
H1224 H 0.91819 0.70181 0.95539 0.0
H1225 H 0.85247 0.65395 0.96845 0.0
H1226 H 0.94089 0.70144 0.02095 0.0
H1227 H 0.92242 0.72955 0.01408 0.0
H1228 H 0.94372 0.717 0.98964 0.0
H1229 H 0.86188 0.64441 0.03649 0.0
H1230 H 0.83906 0.64195 0.0103 0.0
H1231 H 0.84022 0.6703 0.03049 0.0
C1232 C 0.4261 0.12776 0.21544 0.0
C1233 C 0.40965 0.11374 0.19919 0.0
C1234 C 0.45188 0.13114 0.20897 0.0
C1235 C 0.46158 0.12012 0.18574 0.0
C1236 C 0.44552 0.10466 0.17007 0.0
C1237 C 0.41974 0.10172 0.17692 0.0
C1238 C 0.46838 0.14776 0.22627 0.0
C1239 C 0.45521 0.09231 0.14535 0.0
C1240 C 0.515 0.15951 0.15635 0.0
C1241 C 0.53671 0.1469 0.16592 0.0
C1242 C 0.49048 0.15012 0.16147 0.0
C1243 C 0.48751 0.12747 0.17651 0.0
C1244 C 0.50938 0.11361 0.18466 0.0
C1245 C 0.53381 0.12351 0.17925 0.0
C1246 C 0.46772 0.16542 0.15219 0.0
C1247 C 0.507 0.08921 0.20042 0.0
H1248 H 0.41865 0.137 0.23278 0.0
H1249 H 0.40733 0.09058 0.16433 0.0
H1250 H 0.48639 0.13765 0.23108 0.0
H1251 H 0.47351 0.16571 0.21577 0.0
H1252 H 0.45863 0.15306 0.24472 0.0
H1253 H 0.44157 0.07791 0.13747 0.0
H1254 H 0.45831 0.10736 0.13034 0.0
H1255 H 0.47381 0.08273 0.14882 0.0
H1256 H 0.51711 0.17746 0.1458 0.0
H1257 H 0.55052 0.11368 0.18671 0.0
H1258 H 0.45761 0.17374 0.16923 0.0
H1259 H 0.45405 0.15274 0.14184 0.0
H1260 H 0.47325 0.18139 0.13894 0.0
H1261 H 0.50074 0.09404 0.22049 0.0
H1262 H 0.52538 0.07865 0.20166 0.0
H1263 H 0.49238 0.07629 0.19188 0.0
C1264 C 0.96621 0.87232 0.67892 0.0
C1265 C 0.96296 0.84918 0.66524 0.0
C1266 C 0.99079 0.88174 0.68449 0.0
C1267 C 0.01244 0.86762 0.67619 0.0
C1268 C 0.00913 0.84528 0.66078 0.0
C1269 C 0.98447 0.83637 0.65549 0.0
C1270 C 0.99354 0.90585 0.70063 0.0
C1271 C 0.03165 0.82973 0.65131 0.0
C1272 C 0.08064 0.89211 0.67702 0.0
C1273 C 0.0905 0.87955 0.69911 0.0
C1274 C 0.05481 0.88978 0.67014 0.0
C1275 C 0.03847 0.87438 0.68557 0.0
C1276 C 0.04795 0.86283 0.70863 0.0
C1277 C 0.0738 0.86561 0.71515 0.0
C1278 C 0.04537 0.9027 0.64561 0.0
C1279 C 0.03114 0.84626 0.72567 0.0
H1280 H 0.94966 0.88229 0.68652 0.0
H1281 H 0.98209 0.81861 0.64468 0.0
H1282 H -0.0004 0.9006 0.72065 0.0
H1283 H 0.00844 0.91862 0.69235 0.0
H1284 H 0.97535 0.91673 0.70193 0.0
H1285 H 0.02588 0.81407 0.6378 0.0
H1286 H 0.04554 0.84234 0.64117 0.0
H1287 H 0.0416 0.82099 0.66823 0.0
H1288 H 0.09325 0.90321 0.66461 0.0
H1289 H 0.08108 0.85596 0.73234 0.0
H1290 H 0.02692 0.91253 0.64921 0.0
H1291 H 0.04206 0.88795 0.63035 0.0
H1292 H 0.05925 0.91699 0.63799 0.0
H1293 H 0.0133 0.85663 0.73061 0.0
H1294 H 0.04077 0.84052 0.74406 0.0
H1295 H 0.02571 0.82856 0.71491 0.0
C1296 C 0.01373 0.33912 0.83525 0.0
C1297 C 0.0355 0.35249 0.82699 0.0
C1298 C 0.98922 0.34838 0.82989 0.0
C1299 C 0.98632 0.37172 0.81598 0.0
C1300 C 0.00819 0.38627 0.80914 0.0
C1301 C 0.03262 0.37644 0.81471 0.0
C1302 C 0.96646 0.3323 0.83774 0.0
C1303 C 0.00585 0.41143 0.79465 0.0
C1304 C 0.92538 0.37201 0.77638 0.0
C1305 C 0.9084 0.38452 0.79331 0.0
C1306 C 0.95125 0.36921 0.78279 0.0
C1307 C 0.96047 0.37925 0.80667 0.0
C1308 C 0.94387 0.39342 0.823 0.0
C1309 C 0.91803 0.39583 0.81618 0.0
C1310 C 0.96833 0.35403 0.76476 0.0
C1311 C 0.95303 0.40473 0.84843 0.0
H1312 H 0.0158 0.32072 0.84501 0.0
H1313 H 0.04938 0.38687 0.80828 0.0
H1314 H 0.9525 0.34419 0.84863 0.0
H1315 H 0.95672 0.32498 0.82003 0.0
H1316 H 0.97191 0.31559 0.85005 0.0
H1317 H 0.02409 0.4223 0.79451 0.0
H1318 H 0.00021 0.40758 0.77418 0.0
H1319 H 0.99081 0.42366 0.80346 0.0
H1320 H 0.9183 0.3634 0.75856 0.0
H1321 H 0.90522 0.40584 0.82929 0.0
H1322 H 0.97356 0.33552 0.77415 0.0
H1323 H 0.98626 0.3647 0.76096 0.0
H1324 H 0.95898 0.34977 0.74581 0.0
H1325 H 0.95602 0.38903 0.86277 0.0
H1326 H 0.93909 0.41858 0.85673 0.0
H1327 H 0.97157 0.41466 0.84576 0.0
C1328 C 0.46662 0.61596 0.31641 0.0
C1329 C 0.46322 0.64038 0.32751 0.0
C1330 C 0.49127 0.60643 0.31127 0.0
C1331 C 0.51282 0.6218 0.31727 0.0
C1332 C 0.50941 0.64575 0.32993 0.0
C1333 C 0.48471 0.65466 0.33497 0.0
C1334 C 0.49416 0.58059 0.29819 0.0
C1335 C 0.5318 0.66276 0.3368 0.0
C1336 C 0.5817 0.59961 0.31901 0.0
C1337 C 0.59114 0.61002 0.29563 0.0
C1338 C 0.55575 0.60159 0.32557 0.0
C1339 C 0.53885 0.61438 0.30841 0.0
C1340 C 0.54791 0.62339 0.28405 0.0
C1341 C 0.5739 0.62107 0.27795 0.0
C1342 C 0.54679 0.59141 0.35156 0.0
C1343 C 0.5305 0.63706 0.26513 0.0
H1344 H 0.45009 0.60481 0.31063 0.0
H1345 H 0.48227 0.67344 0.34381 0.0
H1346 H 0.49971 0.58347 0.27753 0.0
H1347 H 0.50947 0.56919 0.30765 0.0
H1348 H 0.47616 0.56932 0.29868 0.0
H1349 H 0.52598 0.68005 0.34807 0.0
H1350 H 0.54599 0.65185 0.34842 0.0
H1351 H 0.54143 0.66924 0.31869 0.0
H1352 H 0.59471 0.59072 0.33273 0.0
H1353 H 0.58083 0.62892 0.2597 0.0
H1354 H 0.52848 0.58092 0.34941 0.0
H1355 H 0.54341 0.60776 0.36503 0.0
H1356 H 0.56102 0.57834 0.36062 0.0
H1357 H 0.51285 0.62574 0.26196 0.0
H1358 H 0.53979 0.64045 0.24597 0.0
H1359 H 0.5248 0.65594 0.27339 0.0
C1360 C 0.18763 0.42324 0.10257 0.0
C1361 C 0.20891 0.41349 0.11598 0.0
C1362 C 0.18207 0.44964 0.10259 0.0
C1363 C 0.19816 0.46674 0.11634 0.0
C1364 C 0.21946 0.45708 0.13017 0.0
C1365 C 0.2246 0.43058 0.12982 0.0
C1366 C 0.15919 0.45928 0.08761 0.0
C1367 C 0.23705 0.47478 0.14508 0.0
C1368 C 0.20288 0.53679 0.09654 0.0
C1369 C 0.1889 0.54903 0.11632 0.0
C1370 C 0.20528 0.50995 0.09583 0.0
C1371 C 0.19345 0.49492 0.11538 0.0
C1372 C 0.17833 0.50698 0.1347 0.0
C1373 C 0.17617 0.53392 0.13491 0.0
C1374 C 0.22138 0.49776 0.07476 0.0
C1375 C 0.16534 0.49152 0.15579 0.0
H1376 H 0.17531 0.41025 0.09186 0.0
H1377 H 0.241 0.4233 0.14033 0.0
H1378 H 0.14647 0.47043 0.10068 0.0
H1379 H 0.16549 0.47248 0.07188 0.0
H1380 H 0.14804 0.44335 0.07874 0.0
H1381 H 0.2523 0.46412 0.15553 0.0
H1382 H 0.24612 0.48865 0.13149 0.0
H1383 H 0.22601 0.48614 0.15949 0.0
H1384 H 0.21259 0.54824 0.08193 0.0
H1385 H 0.16533 0.54316 0.15027 0.0
H1386 H 0.21047 0.4824 0.06469 0.0
H1387 H 0.2384 0.4886 0.08364 0.0
H1388 H 0.22789 0.51199 0.06003 0.0
H1389 H 0.15395 0.47571 0.14709 0.0
H1390 H 0.15261 0.50355 0.16808 0.0
H1391 H 0.17994 0.48252 0.16852 0.0
C1392 C 0.70306 0.95678 0.89961 0.0
C1393 C 0.68966 0.94468 0.87933 0.0
C1394 C 0.70563 0.98361 0.90045 0.0
C1395 C 0.69457 -0.00124 0.88053 0.0
C1396 C 0.67997 0.98684 0.8607 0.0
C1397 C 0.67764 0.95992 0.86037 0.0
C1398 C 0.72114 0.99565 0.92206 0.0
C1399 C 0.6678 0.00242 0.8392 0.0
C1400 C 0.68924 0.07063 0.89257 0.0
C1401 C 0.71096 0.08 0.87963 0.0
C1402 C 0.68342 0.04427 0.89269 0.0
C1403 C 0.6997 0.02686 0.87961 0.0
C1404 C 0.72151 0.03615 0.86634 0.0
C1405 C 0.72688 0.0626 0.8665 0.0
C1406 C 0.65999 0.03504 0.90704 0.0
C1407 C 0.73934 0.0181 0.85218 0.0
H1408 H 0.71222 0.94524 0.91451 0.0
H1409 H 0.66722 0.9508 0.84463 0.0
H1410 H 0.73862 0.0045 0.91378 0.0
H1411 H 0.71013 0.01122 0.93165 0.0
H1412 H 0.7269 0.98139 0.93708 0.0
H1413 H 0.65527 0.99053 0.82657 0.0
H1414 H 0.65638 0.01841 0.84751 0.0
H1415 H 0.68288 0.01118 0.82688 0.0
H1416 H 0.67674 0.08386 0.90273 0.0
H1417 H 0.74364 0.06959 0.85639 0.0
H1418 H 0.66563 0.02176 0.92296 0.0
H1419 H 0.64745 0.02407 0.89362 0.0
H1420 H 0.64886 0.05116 0.91557 0.0
H1421 H 0.7477 0.00417 0.86616 0.0
H1422 H 0.75511 0.02847 0.84225 0.0
H1423 H 0.72864 0.00685 0.83741 0.0
C1424 C 0.82307 0.03653 0.35944 0.0
C1425 C 0.81005 0.05152 0.37792 0.0
C1426 C 0.82101 0.00958 0.35951 0.0
C1427 C 0.80566 -0.00262 0.37854 0.0
C1428 C 0.79348 0.01228 0.39797 0.0
C1429 C 0.79582 0.03913 0.39743 0.0
C1430 C 0.8344 0.99427 0.33858 0.0
C1431 C 0.7771 -7e-05 0.41872 0.0
C1432 C 0.77476 0.93312 0.36337 0.0
C1433 C 0.79019 0.91598 0.37746 0.0
C1434 C 0.77994 0.9596 0.36314 0.0
C1435 C 0.80102 0.96921 0.37736 0.0
C1436 C 0.8169 0.95205 0.3913 0.0
C1437 C 0.81129 0.92565 0.39119 0.0
C1438 C 0.7626 0.97736 0.34799 0.0
C1439 C 0.83954 0.96163 0.40668 0.0
H1440 H 0.83415 0.04586 0.34431 0.0
H1441 H 0.78586 0.05046 0.41195 0.0
H1442 H 0.84568 0.97845 0.3474 0.0
H1443 H 0.82004 0.9853 0.32555 0.0
H1444 H 0.8473 0.0064 0.32658 0.0
H1445 H 0.77031 0.01406 0.43341 0.0
H1446 H 0.76025 0.99074 0.40953 0.0
H1447 H 0.7879 0.98457 0.4289 0.0
H1448 H 0.7585 0.92589 0.35259 0.0
H1449 H 0.82341 0.91263 0.4021 0.0
H1450 H 0.77388 0.98883 0.33385 0.0
H1451 H 0.75327 0.99113 0.36149 0.0
H1452 H 0.74756 0.96674 0.3372 0.0
H1453 H 0.85239 0.97298 0.39391 0.0
H1454 H 0.85064 0.94566 0.41555 0.0
H1455 H 0.83299 0.97463 0.42247 0.0
C1456 C 0.294 0.45428 0.59851 0.0
C1457 C 0.30932 0.44193 0.61716 0.0
C1458 C 0.2917 0.48114 0.59801 0.0
C1459 C 0.30506 0.49608 0.61656 0.0
C1460 C 0.32145 0.48391 0.63469 0.0
C1461 C 0.32342 0.45695 0.63476 0.0
C1462 C 0.27415 0.49345 0.57825 0.0
C1463 C 0.33611 0.49928 0.65466 0.0
C1464 C 0.31064 0.56758 0.6027 0.0
C1465 C 0.29043 0.57763 0.61752 0.0
C1466 C 0.31597 0.54113 0.60261 0.0
C1467 C 0.30078 0.52431 0.61771 0.0
C1468 C 0.28063 0.53431 0.63303 0.0
C1469 C 0.27566 0.56083 0.63272 0.0
C1470 C 0.33758 0.53113 0.58599 0.0
C1471 C 0.26404 0.51691 0.64945 0.0
H1472 H 0.28317 0.44294 0.58468 0.0
H1473 H 0.33533 0.44764 0.64923 0.0
H1474 H 0.258 0.50288 0.58843 0.0
H1475 H 0.28443 0.5086 0.56722 0.0
H1476 H 0.26632 0.47924 0.56419 0.0
H1477 H 0.34953 0.48713 0.66604 0.0
H1478 H 0.34706 0.51488 0.64502 0.0
H1479 H 0.32259 0.50855 0.66839 0.0
H1480 H 0.32221 0.58034 0.59089 0.0
H1481 H 0.26012 0.56837 0.64435 0.0
H1482 H 0.32998 0.51802 0.5708 0.0
H1483 H 0.35104 0.51979 0.59809 0.0
H1484 H 0.3483 0.54688 0.57627 0.0
H1485 H 0.25378 0.5031 0.63673 0.0
H1486 H 0.24979 0.52783 0.66103 0.0
H1487 H 0.27603 0.50548 0.663 0.0
C1488 C 0.85978 0.84061 0.46411 0.0
C1489 C 0.83354 0.84551 0.46242 0.0
C1490 C 0.87168 0.83753 0.48841 0.0
C1491 C 0.8569 0.83933 0.51141 0.0
C1492 C 0.8309 0.84649 0.50982 0.0
C1493 C 0.81953 0.84952 0.48532 0.0
C1494 C 0.89955 0.83036 0.48934 0.0
C1495 C 0.81451 0.84882 0.53391 0.0
C1496 C 0.86972 0.79473 0.568 0.0
C1497 C 0.87906 0.81172 0.58699 0.0
C1498 C 0.86363 0.80335 0.54293 0.0
C1499 C 0.86711 0.82961 0.53654 0.0
C1500 C 0.87804 0.84658 0.555 0.0
C1501 C 0.88386 0.83744 0.5801 0.0
C1502 C 0.85216 0.78454 0.52374 0.0
C1503 C 0.88239 0.87462 0.54871 0.0
H1504 H 0.87079 0.83777 0.44646 0.0
H1505 H 0.79931 0.85367 0.48414 0.0
H1506 H 0.90945 0.84078 0.50527 0.0
H1507 H 0.90137 0.80945 0.49334 0.0
H1508 H 0.90934 0.8346 0.47063 0.0
H1509 H 0.79567 0.85761 0.52961 0.0
H1510 H 0.81129 0.8294 0.54233 0.0
H1511 H 0.82424 0.8606 0.54895 0.0
H1512 H 0.86628 0.77474 0.57293 0.0
H1513 H 0.89124 0.8507 0.59455 0.0
H1514 H 0.86283 0.78502 0.50508 0.0
H1515 H 0.83217 0.79013 0.51946 0.0
H1516 H 0.85221 0.76447 0.53122 0.0
H1517 H 0.89105 0.87681 0.52911 0.0
H1518 H 0.89492 0.8841 0.5633 0.0
H1519 H 0.86383 0.88484 0.54845 0.0
C1520 C 0.64136 0.1551 0.96526 0.0
C1521 C 0.66786 0.15184 0.96371 0.0
C1522 C 0.62926 0.15821 0.98946 0.0
C1523 C 0.64411 0.1582 0.01249 0.0
C1524 C 0.67055 0.1529 0.01111 0.0
C1525 C 0.6821 0.14972 0.98671 0.0
C1526 C 0.60095 0.16336 0.99019 0.0
C1527 C 0.68705 0.15259 0.03524 0.0
C1528 C 0.62804 0.2026 0.06833 0.0
C1529 C 0.62013 0.18522 0.08764 0.0
C1530 C 0.63459 0.1941 0.04334 0.0
C1531 C 0.63311 0.16755 0.03741 0.0
C1532 C 0.62355 0.15008 0.05618 0.0
C1533 C 0.61717 0.15912 0.08116 0.0
C1534 C 0.64451 0.21343 0.02379 0.0
C1535 C 0.62138 0.12168 0.05039 0.0
H1536 H 0.63019 0.15647 0.94753 0.0
H1537 H 0.70256 0.14691 0.98566 0.0
H1538 H 0.59178 0.15257 0.00633 0.0
H1539 H 0.59763 0.18415 0.99375 0.0
H1540 H 0.59153 0.15804 0.97156 0.0
H1541 H 0.70657 0.14535 0.03117 0.0
H1542 H 0.68859 0.17241 0.04316 0.0
H1543 H 0.67832 0.14039 0.05057 0.0
H1544 H 0.63002 0.22285 0.07297 0.0
H1545 H 0.61093 0.14555 0.09589 0.0
H1546 H 0.63399 0.21169 0.00512 0.0
H1547 H 0.66491 0.20948 0.01966 0.0
H1548 H 0.64277 0.23357 0.03085 0.0
H1549 H 0.61276 0.1185 0.0309 0.0
H1550 H 0.60976 0.11145 0.06524 0.0
H1551 H 0.64069 0.11298 0.0501 0.0
C1552 C 0.38469 0.6513 0.41465 0.0
C1553 C 0.38228 0.67742 0.40801 0.0
C1554 C 0.37873 0.64267 0.43989 0.0
C1555 C 0.37016 0.66058 0.45872 0.0
C1556 C 0.3696 0.68715 0.45266 0.0
C1557 C 0.37573 0.69523 0.42742 0.0
C1558 C 0.38003 0.61424 0.44582 0.0
C1559 C 0.36081 0.70695 0.47228 0.0
C1560 C 0.32023 0.64512 0.50919 0.0
C1561 C 0.33438 0.64694 0.53227 0.0
C1562 C 0.33206 0.64757 0.48486 0.0
C1563 C 0.35872 0.65175 0.48363 0.0
C1564 C 0.3734 0.65133 0.50675 0.0
C1565 C 0.36101 0.64904 0.5309 0.0
C1566 C 0.31571 0.64776 0.46062 0.0
C1567 C 0.40191 0.65515 0.50617 0.0
H1568 H 0.38992 0.6374 0.39983 0.0
H1569 H 0.37428 0.7155 0.42263 0.0
H1570 H 0.38818 0.61084 0.46547 0.0
H1571 H 0.36048 0.60608 0.44569 0.0
H1572 H 0.39164 0.60369 0.4312 0.0
H1573 H 0.36347 0.72696 0.46516 0.0
H1574 H 0.34027 0.70401 0.47657 0.0
H1575 H 0.37138 0.70471 0.49087 0.0
H1576 H 0.29967 0.64319 0.51011 0.0
H1577 H 0.3721 0.65013 0.54869 0.0
H1578 H 0.32394 0.63497 0.44551 0.0
H1579 H 0.31515 0.66754 0.45244 0.0
H1580 H 0.29584 0.64151 0.46464 0.0
H1581 H 0.41065 0.64414 0.48995 0.0
H1582 H 0.41099 0.64918 0.52478 0.0
H1583 H 0.40621 0.67581 0.50289 0.0
C1584 C 0.1372 0.34129 0.03091 0.0
C1585 C 0.16383 0.34358 0.03201 0.0
C1586 C 0.12459 0.33904 0.00689 0.0
C1587 C 0.13904 0.33883 0.9836 0.0
C1588 C 0.16567 0.34317 0.98458 0.0
C1589 C 0.17774 0.34558 0.00879 0.0
C1590 C 0.09609 0.33503 0.00659 0.0
C1591 C 0.18178 0.3432 0.96017 0.0
C1592 C 0.12192 0.2956 0.92728 0.0
C1593 C 0.11525 0.3135 0.90798 0.0
C1594 C 0.12808 0.30356 0.95254 0.0
C1595 C 0.12741 0.33008 0.95876 0.0
C1596 C 0.11866 0.34806 0.94007 0.0
C1597 C 0.11271 0.33956 0.91478 0.0
C1598 C 0.13708 0.28369 0.972 0.0
C1599 C 0.11719 0.37643 0.94619 0.0
H1600 H 0.1263 0.34005 0.04882 0.0
H1601 H 0.19829 0.34767 0.0095 0.0
H1602 H 0.08712 0.34602 0.99047 0.0
H1603 H 0.09189 0.31435 0.00333 0.0
H1604 H 0.08716 0.34091 0.0253 0.0
H1605 H 0.20168 0.34949 0.96402 0.0
H1606 H 0.18232 0.3235 0.95183 0.0
H1607 H 0.17337 0.35609 0.94524 0.0
H1608 H 0.12346 0.27537 0.92238 0.0
H1609 H 0.10735 0.35352 0.90007 0.0
H1610 H 0.12664 0.28578 0.99068 0.0
H1611 H 0.15764 0.28669 0.97615 0.0
H1612 H 0.13445 0.2637 0.9648 0.0
H1613 H 0.10913 0.37964 0.96592 0.0
H1614 H 0.1054 0.38698 0.93171 0.0
H1615 H 0.13666 0.38476 0.94597 0.0
C1616 C 0.59048 0.8764 0.81159 0.0
C1617 C 0.60038 0.87855 0.83687 0.0
C1618 C 0.56421 0.87274 0.80753 0.0
C1619 C 0.54758 0.87141 0.82926 0.0
C1620 C 0.55724 0.87607 0.85458 0.0
C1621 C 0.58355 0.87945 0.85808 0.0
C1622 C 0.55467 0.86798 0.78021 0.0
C1623 C 0.54019 0.87519 0.87827 0.0
C1624 C 0.47557 0.86512 0.82023 0.0
C1625 C 0.47241 0.83837 0.8222 0.0
C1626 C 0.49996 0.87635 0.8222 0.0
C1627 C 0.52152 0.8604 0.82624 0.0
C1628 C 0.51832 0.83341 0.82821 0.0
C1629 C 0.49389 0.8228 0.82618 0.0
C1630 C 0.50268 0.90518 0.82003 0.0
C1631 C 0.54074 0.81564 0.83263 0.0
H1632 H 0.60339 0.87583 0.7951 0.0
H1633 H 0.59106 0.88151 0.87766 0.0
H1634 H 0.55093 0.84711 0.77762 0.0
H1635 H 0.53647 0.8783 0.77673 0.0
H1636 H 0.56876 0.87411 0.76528 0.0
H1637 H 0.54963 0.88348 0.89574 0.0
H1638 H 0.52217 0.88578 0.87466 0.0
H1639 H 0.53513 0.85488 0.88258 0.0
H1640 H 0.45905 0.87725 0.81706 0.0
H1641 H 0.49168 0.80211 0.82773 0.0
H1642 H 0.51559 0.91006 0.80362 0.0
H1643 H 0.51146 0.913 0.83803 0.0
H1644 H 0.48407 0.91489 0.81684 0.0
H1645 H 0.555 0.81818 0.81687 0.0
H1646 H 0.53502 0.79506 0.83323 0.0
H1647 H 0.55024 0.82048 0.85131 0.0
C1648 C 0.91626 0.11481 0.3578 0.0
C1649 C 0.89961 0.11719 0.33655 0.0
C1650 C 0.94266 0.11768 0.35464 0.0
C1651 C 0.95261 0.12344 0.32967 0.0
C1652 C 0.9361 0.12366 0.30779 0.0
C1653 C 0.90973 0.12039 0.31148 0.0
C1654 C 0.95958 0.11684 0.37844 0.0
C1655 C 0.94594 0.12968 0.28083 0.0
C1656 C 0.00734 0.17093 0.32905 0.0
C1657 C 0.02843 0.15514 0.32397 0.0
C1658 C 0.98271 0.16074 0.33078 0.0
C1659 C 0.97891 0.13398 0.32738 0.0
C1660 C 0.00011 0.11778 0.32241 0.0
C1661 C 0.0247 0.12858 0.32076 0.0
C1662 C 0.96071 0.17875 0.33628 0.0
C1663 C 0.99676 0.08917 0.31874 0.0
H1664 H 0.90855 0.11192 0.37719 0.0
H1665 H 0.89695 0.12213 0.29497 0.0
H1666 H 0.97739 0.10608 0.37432 0.0
H1667 H 0.96502 0.13675 0.38396 0.0
H1668 H 0.94984 0.10776 0.39533 0.0
H1669 H 0.93176 0.12485 0.2655 0.0
H1670 H 0.95031 0.15054 0.27949 0.0
H1671 H 0.96384 0.11903 0.27685 0.0
H1672 H 0.01001 0.19146 0.33162 0.0
H1673 H 0.04093 0.11629 0.31675 0.0
H1674 H 0.95109 0.17306 0.35466 0.0
H1675 H 0.94639 0.17745 0.32041 0.0
H1676 H 0.9669 0.19912 0.33808 0.0
H1677 H 0.98714 0.08071 0.33599 0.0
H1678 H 0.01522 0.07912 0.31572 0.0
H1679 H 0.98434 0.08545 0.30165 0.0
C1680 C 0.08838 0.61774 0.18081 0.0
C1681 C 0.09882 0.61697 0.15567 0.0
C1682 C 0.0621 0.62164 0.18453 0.0
C1683 C 0.04598 0.62473 0.16257 0.0
C1684 C 0.05614 0.62162 0.13721 0.0
C1685 C 0.08244 0.61788 0.13407 0.0
C1686 C 0.052 0.62465 0.2119 0.0
C1687 C 0.03964 0.62449 0.11327 0.0
C1688 C 0.97383 0.63096 0.1703 0.0
C1689 C 0.97087 0.6578 0.17007 0.0
C1690 C 0.99819 0.61971 0.16817 0.0
C1691 C 0.01995 0.63573 0.1658 0.0
C1692 C 0.01696 0.6628 0.16568 0.0
C1693 C 0.99254 0.67344 0.16778 0.0
C1694 C 0.00067 0.59077 0.16831 0.0
C1695 C 0.03959 0.68066 0.16314 0.0
H1696 H 0.10091 0.61689 0.19759 0.0
H1697 H 0.09032 0.61692 0.11456 0.0
H1698 H 0.04836 0.64533 0.21583 0.0
H1699 H 0.03366 0.61429 0.21424 0.0
H1700 H 0.06572 0.61741 0.22669 0.0
H1701 H 0.0494 0.61744 0.09542 0.0
H1702 H 0.02146 0.61384 0.11563 0.0
H1703 H 0.03486 0.64511 0.11044 0.0
H1704 H 0.95716 0.61876 0.17212 0.0
H1705 H 0.99049 0.69421 0.16763 0.0
H1706 H 0.01363 0.58464 0.18423 0.0
H1707 H 0.00927 0.58416 0.14972 0.0
H1708 H 0.98199 0.58102 0.1709 0.0
H1709 H 0.05345 0.67688 0.17902 0.0
H1710 H 0.03402 0.70128 0.1639 0.0
H1711 H 0.04952 0.67707 0.14439 0.0
C1712 C 0.41018 0.37326 0.68165 0.0
C1713 C 0.39976 0.37469 0.65654 0.0
C1714 C 0.4365 0.36956 0.68526 0.0
C1715 C 0.45267 0.36743 0.66323 0.0
C1716 C 0.44249 0.37123 0.63798 0.0
C1717 C 0.41614 0.37469 0.63494 0.0
C1718 C 0.44661 0.36573 0.71253 0.0
C1719 C 0.45905 0.36943 0.61397 0.0
C1720 C 0.52485 0.36199 0.67117 0.0
C1721 C 0.52818 0.33521 0.67016 0.0
C1722 C 0.50035 0.37295 0.66917 0.0
C1723 C 0.47885 0.3567 0.66613 0.0
C1724 C 0.48222 0.32969 0.66512 0.0
C1725 C 0.50677 0.31933 0.66712 0.0
C1726 C 0.49746 0.40183 0.67025 0.0
C1727 C 0.45987 0.31161 0.66181 0.0
H1728 H 0.39763 0.37338 0.69844 0.0
H1729 H 0.40824 0.37617 0.61547 0.0
H1730 H 0.45059 0.34498 0.71571 0.0
H1731 H 0.46479 0.3763 0.71528 0.0
H1732 H 0.43277 0.37221 0.72755 0.0
H1733 H 0.44922 0.37699 0.59638 0.0
H1734 H 0.4771 0.38021 0.61674 0.0
H1735 H 0.46409 0.34898 0.6104 0.0
H1736 H 0.54132 0.37435 0.67358 0.0
H1737 H 0.50912 0.29862 0.66633 0.0
H1738 H 0.48467 0.40724 0.68658 0.0
H1739 H 0.48845 0.40889 0.65204 0.0
H1740 H 0.51603 0.41178 0.67285 0.0
H1741 H 0.44588 0.31461 0.67774 0.0
H1742 H 0.46573 0.29106 0.66186 0.0
H1743 H 0.44998 0.31571 0.64315 0.0
C1744 C 0.81838 0.57183 0.89621 0.0
C1745 C 0.84262 0.58273 0.89928 0.0
C1746 C 0.81568 0.54542 0.89106 0.0
C1747 C 0.83775 0.52981 0.88915 0.0
C1748 C 0.86188 0.54022 0.89549 0.0
C1749 C 0.86404 0.56664 0.90038 0.0
C1750 C 0.78956 0.53497 0.88474 0.0
C1751 C 0.88584 0.52417 0.89413 0.0
C1752 C 0.83236 0.45814 0.87464 0.0
C1753 C 0.83486 0.45805 0.84741 0.0
C1754 C 0.83309 0.48136 0.88871 0.0
C1755 C 0.83645 0.50484 0.87515 0.0
C1756 C 0.83919 0.50474 0.84769 0.0
C1757 C 0.83834 0.48138 0.8342 0.0
C1758 C 0.83003 0.48081 0.91795 0.0
C1759 C 0.84302 0.52935 0.83243 0.0
H1760 H 0.80174 0.58419 0.89554 0.0
H1761 H 0.88279 0.57497 0.90324 0.0
H1762 H 0.78748 0.5334 0.86327 0.0
H1763 H 0.78696 0.51544 0.89307 0.0
H1764 H 0.77419 0.54773 0.89217 0.0
H1765 H 0.902 0.53354 0.90443 0.0
H1766 H 0.8827 0.50482 0.90267 0.0
H1767 H 0.89132 0.52149 0.87341 0.0
H1768 H 0.82952 0.44013 0.88491 0.0
H1769 H 0.84033 0.48145 0.81317 0.0
H1770 H 0.81243 0.49129 0.92355 0.0
H1771 H 0.84625 0.49081 0.92744 0.0
H1772 H 0.82886 0.46088 0.92569 0.0
H1773 H 0.82678 0.54262 0.83584 0.0
H1774 H 0.84467 0.52588 0.81113 0.0
H1775 H 0.86058 0.53925 0.83914 0.0
C1776 C 0.32265 0.92125 0.09989 0.0
C1777 C 0.3467 0.90979 0.09744 0.0
C1778 C 0.3204 0.94768 0.1051 0.0
C1779 C 0.34274 0.96281 0.10768 0.0
C1780 C 0.36683 0.9518 0.10229 0.0
C1781 C 0.36853 0.92534 0.09735 0.0
C1782 C 0.29434 0.95875 0.11054 0.0
C1783 C 0.39109 0.96732 0.10441 0.0
C1784 C 0.33745 0.03487 0.12018 0.0
C1785 C 0.33893 0.03562 0.14747 0.0
C1786 C 0.3387 0.0113 0.10673 0.0
C1787 C 0.34145 0.98815 0.121 0.0
C1788 C 0.34326 0.98892 0.14852 0.0
C1789 C 0.34201 0.01262 0.16137 0.0
C1790 C 0.33681 0.01114 0.07738 0.0
C1791 C 0.34634 0.96467 0.16452 0.0
H1792 H 0.3057 0.9093 0.09982 0.0
H1793 H 0.38716 0.91659 0.09503 0.0
H1794 H 0.29185 0.96099 0.13191 0.0
H1795 H 0.29228 0.97807 0.1016 0.0
H1796 H 0.27888 0.94608 0.10314 0.0
H1797 H 0.40742 0.95745 0.09492 0.0
H1798 H 0.3887 0.98661 0.09546 0.0
H1799 H 0.39581 0.97021 0.12529 0.0
H1800 H 0.335 0.05261 0.10935 0.0
H1801 H 0.34322 0.01304 0.18245 0.0
H1802 H 0.31949 0.00045 0.0713 0.0
H1803 H 0.35344 0.00099 0.06885 0.0
H1804 H 0.33591 0.03088 0.06911 0.0
H1805 H 0.33009 0.95147 0.16088 0.0
H1806 H 0.34733 0.96866 0.18576 0.0
H1807 H 0.364 0.95444 0.15867 0.0
C1808 C 0.16299 0.95646 0.61948 0.0
C1809 C 0.16195 0.95584 0.6468 0.0
C1810 C 0.16154 0.97996 0.60593 0.0
C1811 C 0.15903 0.00318 0.62013 0.0
C1812 C 0.15775 0.00254 0.64768 0.0
C1813 C 0.15919 0.97892 0.66063 0.0
C1814 C 0.16291 0.97999 0.57655 0.0
C1815 C 0.15494 0.02687 0.66361 0.0
C1816 C 0.17692 0.07024 0.59902 0.0
C1817 C 0.15273 0.08154 0.59731 0.0
C1818 C 0.17948 0.04376 0.6038 0.0
C1819 C 0.15732 0.02844 0.60673 0.0
C1820 C 0.13304 0.0393 0.60193 0.0
C1821 C 0.13103 0.06579 0.59738 0.0
C1822 C 0.20574 0.03285 0.60854 0.0
C1823 C 0.10895 0.02357 0.60444 0.0
H1824 H 0.1652 0.93865 0.60872 0.0
H1825 H 0.15834 0.9786 0.68174 0.0
H1826 H 0.14608 0.99001 0.56828 0.0
H1827 H 0.18006 0.99073 0.57009 0.0
H1828 H 0.16376 0.9602 0.56837 0.0
H1829 H 0.15442 0.02298 0.6849 0.0
H1830 H 0.17107 0.0401 0.65955 0.0
H1831 H 0.13712 0.03701 0.65811 0.0
H1832 H 0.19377 0.08233 0.59877 0.0
H1833 H 0.11229 0.07442 0.59557 0.0
H1834 H 0.20767 0.0135 0.59964 0.0
H1835 H 0.20883 0.03073 0.62984 0.0
H1836 H 0.22091 0.04558 0.60064 0.0
H1837 H 0.11133 0.00432 0.59544 0.0
H1838 H 0.09239 0.03333 0.59523 0.0
H1839 H 0.10458 0.02064 0.6254 0.0
C1840 C 0.63592 0.42922 0.40168 0.0
C1841 C 0.65737 0.41315 0.40085 0.0
C1842 C 0.63817 0.4557 0.39715 0.0
C1843 C 0.66244 0.46619 0.3915 0.0
C1844 C 0.68446 0.45057 0.39378 0.0
C1845 C 0.68166 0.4241 0.39851 0.0
C1846 C 0.61423 0.47173 0.39536 0.0
C1847 C 0.71072 0.46112 0.38825 0.0
C1848 C 0.6627 0.51474 0.33666 0.0
C1849 C 0.66563 0.53807 0.34998 0.0
C1850 C 0.66183 0.49134 0.35008 0.0
C1851 C 0.66399 0.4912 0.37759 0.0
C1852 C 0.66688 0.51468 0.39127 0.0
C1853 C 0.66764 0.53795 0.37725 0.0
C1854 C 0.65854 0.46673 0.33469 0.0
C1855 C 0.66934 0.51518 0.42056 0.0
H1856 H 0.61712 0.42085 0.404 0.0
H1857 H 0.69833 0.41176 0.39809 0.0
H1858 H 0.61716 0.49102 0.40409 0.0
H1859 H 0.60919 0.47453 0.37454 0.0
H1860 H 0.59787 0.46226 0.40523 0.0
H1861 H 0.7259 0.44838 0.39611 0.0
H1862 H 0.71339 0.46273 0.36685 0.0
H1863 H 0.71303 0.48063 0.39669 0.0
H1864 H 0.66111 0.51468 0.3156 0.0
H1865 H 0.67006 0.55597 0.38761 0.0
H1866 H 0.64089 0.45671 0.34094 0.0
H1867 H 0.67478 0.45357 0.33848 0.0
H1868 H 0.65738 0.47024 0.31336 0.0
H1869 H 0.65287 0.50525 0.42968 0.0
H1870 H 0.67044 0.5351 0.42835 0.0
H1871 H 0.68676 0.5046 0.42654 0.0
loop_
_geom_bond_atom_site_label_1
_geom_bond_atom_site_label_2
_geom_bond_distance
_geom_bond_site_symmetry_2
_ccdc_geom_bond_type
Co0 O1 2.216 . S
Co0 O2 2.091 . S
Co0 O4 2.004 . S
Co0 O10 2.021 . S
Co0 O12 2.137 . S
Co0 O13 2.244 . S
O1 Co0 2.216 . S
O1 C8 1.247 . S
O2 Co0 2.091 . S
O2 C8 1.261 . S
C3 O12 1.247 . S
C3 O13 1.272 . S
O4 Co0 2.004 . S
O4 C9 1.259 . S
Co5 O6 2.061 . S
Co5 O11 2.052 . S
Co5 O13 2.135 . S
O6 Co5 2.061 . S
O6 C9 1.235 . S
C7 O10 1.238 . S
C7 O11 1.241 . S
C8 O1 1.247 . S
C8 O2 1.261 . S
C9 O4 1.259 . S
C9 O6 1.235 . S
O10 Co0 2.021 . S
O10 C7 1.238 . S
O11 Co5 2.052 . S
O11 C7 1.241 . S
O12 Co0 2.137 . S
O12 C3 1.247 . S
O13 Co0 2.244 . S
O13 C3 1.272 . S
O13 Co5 2.135 . S
Co14 O15 2.216 . S
Co14 O16 2.091 . S
Co14 O18 2.004 . S
Co14 O24 2.021 . S
Co14 O26 2.137 . S
Co14 O27 2.244 . S
O15 Co14 2.216 . S
O15 C22 1.247 . S
O16 Co14 2.091 . S
O16 C22 1.261 . S
C17 O26 1.247 . S
C17 O27 1.272 . S
O18 Co14 2.004 . S
O18 C23 1.259 . S
Co19 O20 2.061 . S
Co19 O25 2.052 . S
Co19 O27 2.135 . S
O20 Co19 2.061 . S
O20 C23 1.235 . S
C21 O24 1.238 . S
C21 O25 1.241 . S
C22 O15 1.247 . S
C22 O16 1.261 . S
C23 O18 1.259 . S
C23 O20 1.235 . S
O24 Co14 2.021 . S
O24 C21 1.238 . S
O25 Co19 2.052 . S
O25 C21 1.241 . S
O26 Co14 2.137 . S
O26 C17 1.247 . S
O27 Co14 2.244 . S
O27 C17 1.272 . S
O27 Co19 2.135 . S
Co28 O29 2.216 . S
Co28 O30 2.091 . S
Co28 O32 2.004 . S
Co28 O38 2.021 . S
Co28 O40 2.137 . S
Co28 O41 2.244 . S
O29 Co28 2.216 . S
O29 C36 1.247 . S
O30 Co28 2.091 . S
O30 C36 1.261 . S
C31 O40 1.247 . S
C31 O41 1.272 . S
O32 Co28 2.004 . S
O32 C37 1.259 . S
Co33 O34 2.061 . S
Co33 O39 2.052 . S
Co33 O41 2.135 . S
O34 Co33 2.061 . S
O34 C37 1.235 . S
C35 O38 1.238 . S
C35 O39 1.241 . S
C36 O29 1.247 . S
C36 O30 1.261 . S
C37 O32 1.259 . S
C37 O34 1.235 . S
O38 Co28 2.021 . S
O38 C35 1.238 . S
O39 Co33 2.052 . S
O39 C35 1.241 . S
O40 Co28 2.137 . S
O40 C31 1.247 . S
O41 Co28 2.244 . S
O41 C31 1.272 . S
O41 Co33 2.135 . S
Co42 O43 2.216 . S
Co42 O44 2.091 . S
Co42 O46 2.004 . S
Co42 O52 2.021 . S
Co42 O54 2.137 . S
Co42 O55 2.244 . S
O43 Co42 2.216 . S
O43 C50 1.247 . S
O44 Co42 2.091 . S
O44 C50 1.261 . S
C45 O54 1.247 . S
C45 O55 1.272 . S
O46 Co42 2.004 . S
O46 C51 1.259 . S
Co47 O48 2.061 . S
Co47 O53 2.052 . S
Co47 O55 2.135 . S
O48 Co47 2.061 . S
O48 C51 1.235 . S
C49 O52 1.238 . S
C49 O53 1.241 . S
C50 O43 1.247 . S
C50 O44 1.261 . S
C51 O46 1.259 . S
C51 O48 1.235 . S
O52 Co42 2.021 . S
O52 C49 1.238 . S
O53 Co47 2.052 . S
O53 C49 1.241 . S
O54 Co42 2.137 . S
O54 C45 1.247 . S
O55 Co42 2.244 . S
O55 C45 1.272 . S
O55 Co47 2.135 . S
Co56 O57 2.216 . S
Co56 O58 2.091 . S
Co56 O60 2.004 . S
Co56 O66 2.021 . S
Co56 O68 2.137 . S
Co56 O69 2.244 . S
O57 Co56 2.216 . S
O57 C64 1.247 . S
O58 Co56 2.091 . S
O58 C64 1.261 . S
C59 O68 1.247 . S
C59 O69 1.272 . S
O60 Co56 2.004 . S
O60 C65 1.259 . S
Co61 O62 2.061 . S
Co61 O67 2.052 . S
Co61 O69 2.135 . S
O62 Co61 2.061 . S
O62 C65 1.235 . S
C63 O66 1.238 . S
C63 O67 1.241 . S
C64 O57 1.247 . S
C64 O58 1.261 . S
C65 O60 1.259 . S
C65 O62 1.235 . S
O66 Co56 2.021 . S
O66 C63 1.238 . S
O67 Co61 2.052 . S
O67 C63 1.241 . S
O68 Co56 2.137 . S
O68 C59 1.247 . S
O69 Co56 2.244 . S
O69 C59 1.272 . S
O69 Co61 2.135 . S
Co70 O71 2.216 . S
Co70 O72 2.091 . S
Co70 O74 2.004 . S
Co70 O80 2.021 . S
Co70 O82 2.137 . S
Co70 O83 2.244 . S
O71 Co70 2.216 . S
O71 C78 1.247 . S
O72 Co70 2.091 . S
O72 C78 1.261 . S
C73 O82 1.247 . S
C73 O83 1.272 . S
O74 Co70 2.004 . S
O74 C79 1.259 . S
Co75 O76 2.061 . S
Co75 O81 2.052 . S
Co75 O83 2.135 . S
O76 Co75 2.061 . S
O76 C79 1.235 . S
C77 O80 1.238 . S
C77 O81 1.241 . S
C78 O71 1.247 . S
C78 O72 1.261 . S
C79 O74 1.259 . S
C79 O76 1.235 . S
O80 Co70 2.021 . S
O80 C77 1.238 . S
O81 Co75 2.052 . S
O81 C77 1.241 . S
O82 Co70 2.137 . S
O82 C73 1.247 . S
O83 Co70 2.244 . S
O83 C73 1.272 . S
O83 Co75 2.135 . S
Co84 O85 2.216 . S
Co84 O86 2.091 . S
Co84 O88 2.004 . S
Co84 O94 2.021 . S
Co84 O96 2.137 . S
Co84 O97 2.244 . S
O85 Co84 2.216 . S
O85 C92 1.247 . S
O86 Co84 2.091 . S
O86 C92 1.261 . S
C87 O96 1.247 . S
C87 O97 1.272 . S
O88 Co84 2.004 . S
O88 C93 1.259 . S
Co89 O90 2.061 . S
Co89 O95 2.052 . S
Co89 O97 2.135 . S
O90 Co89 2.061 . S
O90 C93 1.235 . S
C91 O94 1.238 . S
C91 O95 1.241 . S
C92 O85 1.247 . S
C92 O86 1.261 . S
C93 O88 1.259 . S
C93 O90 1.235 . S
O94 Co84 2.021 . S
O94 C91 1.238 . S
O95 Co89 2.052 . S
O95 C91 1.241 . S
O96 Co84 2.137 . S
O96 C87 1.247 . S
O97 Co84 2.244 . S
O97 C87 1.272 . S
O97 Co89 2.135 . S
Co98 O99 2.216 . S
Co98 O100 2.091 . S
Co98 O102 2.004 . S
Co98 O108 2.021 . S
Co98 O110 2.137 . S
Co98 O111 2.244 . S
O99 Co98 2.216 . S
O99 C106 1.247 . S
O100 Co98 2.091 . S
O100 C106 1.261 . S
C101 O110 1.247 . S
C101 O111 1.272 . S
O102 Co98 2.004 . S
O102 C107 1.259 . S
Co103 O104 2.061 . S
Co103 O109 2.052 . S
Co103 O111 2.135 . S
O104 Co103 2.061 . S
O104 C107 1.235 . S
C105 O108 1.238 . S
C105 O109 1.241 . S
C106 O99 1.247 . S
C106 O100 1.261 . S
C107 O102 1.259 . S
C107 O104 1.235 . S
O108 Co98 2.021 . S
O108 C105 1.238 . S
O109 Co103 2.052 . S
O109 C105 1.241 . S
O110 Co98 2.137 . S
O110 C101 1.247 . S
O111 Co98 2.244 . S
O111 C101 1.272 . S
O111 Co103 2.135 . S
Co112 O113 2.216 . S
Co112 O114 2.091 . S
Co112 O116 2.004 . S
Co112 O122 2.021 . S
Co112 O124 2.137 . S
Co112 O125 2.244 . S
O113 Co112 2.216 . S
O113 C120 1.247 . S
O114 Co112 2.091 . S
O114 C120 1.261 . S
C115 O124 1.247 . S
C115 O125 1.272 . S
O116 Co112 2.004 . S
O116 C121 1.259 . S
Co117 O118 2.061 . S
Co117 O123 2.052 . S
Co117 O125 2.135 . S
O118 Co117 2.061 . S
O118 C121 1.235 . S
C119 O122 1.238 . S
C119 O123 1.241 . S
C120 O113 1.247 . S
C120 O114 1.261 . S
C121 O116 1.259 . S
C121 O118 1.235 . S
O122 Co112 2.021 . S
O122 C119 1.238 . S
O123 Co117 2.052 . S
O123 C119 1.241 . S
O124 Co112 2.137 . S
O124 C115 1.247 . S
O125 Co112 2.244 . S
O125 C115 1.272 . S
O125 Co117 2.135 . S
Co126 O127 2.216 . S
Co126 O128 2.091 . S
Co126 O130 2.004 . S
Co126 O136 2.021 . S
Co126 O138 2.137 . S
Co126 O139 2.244 . S
O127 Co126 2.216 . S
O127 C134 1.247 . S
O128 Co126 2.091 . S
O128 C134 1.261 . S
C129 O138 1.247 . S
C129 O139 1.272 . S
O130 Co126 2.004 . S
O130 C135 1.259 . S
Co131 O132 2.061 . S
Co131 O137 2.052 . S
Co131 O139 2.135 . S
O132 Co131 2.061 . S
O132 C135 1.235 . S
C133 O136 1.238 . S
C133 O137 1.241 . S
C134 O127 1.247 . S
C134 O128 1.261 . S
C135 O130 1.259 . S
C135 O132 1.235 . S
O136 Co126 2.021 . S
O136 C133 1.238 . S
O137 Co131 2.052 . S
O137 C133 1.241 . S
O138 Co126 2.137 . S
O138 C129 1.247 . S
O139 Co126 2.244 . S
O139 C129 1.272 . S
O139 Co131 2.135 . S
Co140 O141 2.216 . S
Co140 O142 2.091 . S
Co140 O144 2.004 . S
Co140 O150 2.021 . S
Co140 O152 2.137 . S
Co140 O153 2.244 . S
O141 Co140 2.216 . S
O141 C148 1.247 . S
O142 Co140 2.091 . S
O142 C148 1.261 . S
C143 O152 1.247 . S
C143 O153 1.272 . S
O144 Co140 2.004 . S
O144 C149 1.259 . S
Co145 O146 2.061 . S
Co145 O151 2.052 . S
Co145 O153 2.135 . S
O146 Co145 2.061 . S
O146 C149 1.235 . S
C147 O150 1.238 . S
C147 O151 1.241 . S
C148 O141 1.247 . S
C148 O142 1.261 . S
C149 O144 1.259 . S
C149 O146 1.235 . S
O150 Co140 2.021 . S
O150 C147 1.238 . S
O151 Co145 2.052 . S
O151 C147 1.241 . S
O152 Co140 2.137 . S
O152 C143 1.247 . S
O153 Co140 2.244 . S
O153 C143 1.272 . S
O153 Co145 2.135 . S
Co154 O155 2.216 . S
Co154 O156 2.091 . S
Co154 O158 2.004 . S
Co154 O164 2.021 . S
Co154 O166 2.137 . S
Co154 O167 2.244 . S
O155 Co154 2.216 . S
O155 C162 1.247 . S
O156 Co154 2.091 . S
O156 C162 1.261 . S
C157 O166 1.247 . S
C157 O167 1.272 . S
O158 Co154 2.004 . S
O158 C163 1.259 . S
Co159 O160 2.061 . S
Co159 O165 2.052 . S
Co159 O167 2.135 . S
O160 Co159 2.061 . S
O160 C163 1.235 . S
C161 O164 1.238 . S
C161 O165 1.241 . S
C162 O155 1.247 . S
C162 O156 1.261 . S
C163 O158 1.259 . S
C163 O160 1.235 . S
O164 Co154 2.021 . S
O164 C161 1.238 . S
O165 Co159 2.052 . S
O165 C161 1.241 . S
O166 Co154 2.137 . S
O166 C157 1.247 . S
O167 Co154 2.244 . S
O167 C157 1.272 . S
O167 Co159 2.135 . S
Co168 O169 2.216 . S
Co168 O170 2.091 . S
Co168 O172 2.004 . S
Co168 O178 2.021 . S
Co168 O180 2.137 . S
Co168 O181 2.244 . S
O169 Co168 2.216 . S
O169 C176 1.247 . S
O170 Co168 2.091 . S
O170 C176 1.261 . S
C171 O180 1.247 . S
C171 O181 1.272 . S
O172 Co168 2.004 . S
O172 C177 1.259 . S
Co173 O174 2.061 . S
Co173 O179 2.052 . S
Co173 O181 2.135 . S
O174 Co173 2.061 . S
O174 C177 1.235 . S
C175 O178 1.238 . S
C175 O179 1.241 . S
C176 O169 1.247 . S
C176 O170 1.261 . S
C177 O172 1.259 . S
C177 O174 1.235 . S
O178 Co168 2.021 . S
O178 C175 1.238 . S
O179 Co173 2.052 . S
O179 C175 1.241 . S
O180 Co168 2.137 . S
O180 C171 1.247 . S
O181 Co168 2.244 . S
O181 C171 1.272 . S
O181 Co173 2.135 . S
Co182 O183 2.216 . S
Co182 O184 2.091 . S
Co182 O186 2.004 . S
Co182 O192 2.021 . S
Co182 O194 2.137 . S
Co182 O195 2.244 . S
O183 Co182 2.216 . S
O183 C190 1.247 . S
O184 Co182 2.091 . S
O184 C190 1.261 . S
C185 O194 1.247 . S
C185 O195 1.272 . S
O186 Co182 2.004 . S
O186 C191 1.259 . S
Co187 O188 2.061 . S
Co187 O193 2.052 . S
Co187 O195 2.135 . S
O188 Co187 2.061 . S
O188 C191 1.235 . S
C189 O192 1.238 . S
C189 O193 1.241 . S
C190 O183 1.247 . S
C190 O184 1.261 . S
C191 O186 1.259 . S
C191 O188 1.235 . S
O192 Co182 2.021 . S
O192 C189 1.238 . S
O193 Co187 2.052 . S
O193 C189 1.241 . S
O194 Co182 2.137 . S
O194 C185 1.247 . S
O195 Co182 2.244 . S
O195 C185 1.272 . S
O195 Co187 2.135 . S
Co196 O197 2.216 . S
Co196 O198 2.091 . S
Co196 O200 2.004 . S
Co196 O206 2.021 . S
Co196 O208 2.137 . S
Co196 O209 2.244 . S
O197 Co196 2.216 . S
O197 C204 1.247 . S
O198 Co196 2.091 . S
O198 C204 1.261 . S
C199 O208 1.247 . S
C199 O209 1.272 . S
O200 Co196 2.004 . S
O200 C205 1.259 . S
Co201 O202 2.061 . S
Co201 O207 2.052 . S
Co201 O209 2.135 . S
O202 Co201 2.061 . S
O202 C205 1.235 . S
C203 O206 1.238 . S
C203 O207 1.241 . S
C204 O197 1.247 . S
C204 O198 1.261 . S
C205 O200 1.259 . S
C205 O202 1.235 . S
O206 Co196 2.021 . S
O206 C203 1.238 . S
O207 Co201 2.052 . S
O207 C203 1.241 . S
O208 Co196 2.137 . S
O208 C199 1.247 . S
O209 Co196 2.244 . S
O209 C199 1.272 . S
O209 Co201 2.135 . S
Co210 O211 2.216 . S
Co210 O212 2.091 . S
Co210 O214 2.004 . S
Co210 O220 2.021 . S
Co210 O222 2.137 . S
Co210 O223 2.244 . S
O211 Co210 2.216 . S
O211 C218 1.247 . S
O212 Co210 2.091 . S
O212 C218 1.261 . S
C213 O222 1.247 . S
C213 O223 1.272 . S
O214 Co210 2.004 . S
O214 C219 1.259 . S
Co215 O216 2.061 . S
Co215 O221 2.052 . S
Co215 O223 2.135 . S
O216 Co215 2.061 . S
O216 C219 1.235 . S
C217 O220 1.238 . S
C217 O221 1.241 . S
C218 O211 1.247 . S
C218 O212 1.261 . S
C219 O214 1.259 . S
C219 O216 1.235 . S
O220 Co210 2.021 . S
O220 C217 1.238 . S
O221 Co215 2.052 . S
O221 C217 1.241 . S
O222 Co210 2.137 . S
O222 C213 1.247 . S
O223 Co210 2.244 . S
O223 C213 1.272 . S
O223 Co215 2.135 . S
Co224 O225 2.216 . S
Co224 O226 2.091 . S
Co224 O228 2.004 . S
Co224 O234 2.021 . S
Co224 O236 2.137 . S
Co224 O237 2.244 . S
O225 Co224 2.216 . S
O225 C232 1.247 . S
O226 Co224 2.091 . S
O226 C232 1.261 . S
C227 O236 1.247 . S
C227 O237 1.272 . S
O228 Co224 2.004 . S
O228 C233 1.259 . S
Co229 O230 2.061 . S
Co229 O235 2.052 . S
Co229 O237 2.135 . S
O230 Co229 2.061 . S
O230 C233 1.235 . S
C231 O234 1.238 . S
C231 O235 1.241 . S
C232 O225 1.247 . S
C232 O226 1.261 . S
C233 O228 1.259 . S
C233 O230 1.235 . S
O234 Co224 2.021 . S
O234 C231 1.238 . S
O235 Co229 2.052 . S
O235 C231 1.241 . S
O236 Co224 2.137 . S
O236 C227 1.247 . S
O237 Co224 2.244 . S
O237 C227 1.272 . S
O237 Co229 2.135 . S
Co238 O239 2.216 . S
Co238 O240 2.091 . S
Co238 O242 2.004 . S
Co238 O248 2.021 . S
Co238 O250 2.137 . S
Co238 O251 2.244 . S
O239 Co238 2.216 . S
O239 C246 1.247 . S
O240 Co238 2.091 . S
O240 C246 1.261 . S
C241 O250 1.247 . S
C241 O251 1.272 . S
O242 Co238 2.004 . S
O242 C247 1.259 . S
Co243 O244 2.061 . S
Co243 O249 2.052 . S
Co243 O251 2.135 . S
O244 Co243 2.061 . S
O244 C247 1.235 . S
C245 O248 1.238 . S
C245 O249 1.241 . S
C246 O239 1.247 . S
C246 O240 1.261 . S
C247 O242 1.259 . S
C247 O244 1.235 . S
O248 Co238 2.021 . S
O248 C245 1.238 . S
O249 Co243 2.052 . S
O249 C245 1.241 . S
O250 Co238 2.137 . S
O250 C241 1.247 . S
O251 Co238 2.244 . S
O251 C241 1.272 . S
O251 Co243 2.135 . S
Co252 O253 2.216 . S
Co252 O254 2.091 . S
Co252 O256 2.004 . S
Co252 O262 2.021 . S
Co252 O264 2.137 . S
Co252 O265 2.244 . S
O253 Co252 2.216 . S
O253 C260 1.247 . S
O254 Co252 2.091 . S
O254 C260 1.261 . S
C255 O264 1.247 . S
C255 O265 1.272 . S
O256 Co252 2.004 . S
O256 C261 1.259 . S
Co257 O258 2.061 . S
Co257 O263 2.052 . S
Co257 O265 2.135 . S
O258 Co257 2.061 . S
O258 C261 1.235 . S
C259 O262 1.238 . S
C259 O263 1.241 . S
C260 O253 1.247 . S
C260 O254 1.261 . S
C261 O256 1.259 . S
C261 O258 1.235 . S
O262 Co252 2.021 . S
O262 C259 1.238 . S
O263 Co257 2.052 . S
O263 C259 1.241 . S
O264 Co252 2.137 . S
O264 C255 1.247 . S
O265 Co252 2.244 . S
O265 C255 1.272 . S
O265 Co257 2.135 . S
Co266 O267 2.216 . S
Co266 O268 2.091 . S
Co266 O270 2.004 . S
Co266 O276 2.021 . S
Co266 O278 2.137 . S
Co266 O279 2.244 . S
O267 Co266 2.216 . S
O267 C274 1.247 . S
O268 Co266 2.091 . S
O268 C274 1.261 . S
C269 O278 1.247 . S
C269 O279 1.272 . S
O270 Co266 2.004 . S
O270 C275 1.259 . S
Co271 O272 2.061 . S
Co271 O277 2.052 . S
Co271 O279 2.135 . S
O272 Co271 2.061 . S
O272 C275 1.235 . S
C273 O276 1.238 . S
C273 O277 1.241 . S
C274 O267 1.247 . S
C274 O268 1.261 . S
C275 O270 1.259 . S
C275 O272 1.235 . S
O276 Co266 2.021 . S
O276 C273 1.238 . S
O277 Co271 2.052 . S
O277 C273 1.241 . S
O278 Co266 2.137 . S
O278 C269 1.247 . S
O279 Co266 2.244 . S
O279 C269 1.272 . S
O279 Co271 2.135 . S
Co280 O281 2.216 . S
Co280 O282 2.091 . S
Co280 O284 2.004 . S
Co280 O290 2.021 . S
Co280 O292 2.137 . S
Co280 O293 2.244 . S
O281 Co280 2.216 . S
O281 C288 1.247 . S
O282 Co280 2.091 . S
O282 C288 1.261 . S
C283 O292 1.247 . S
C283 O293 1.272 . S
O284 Co280 2.004 . S
O284 C289 1.259 . S
Co285 O286 2.061 . S
Co285 O291 2.052 . S
Co285 O293 2.135 . S
O286 Co285 2.061 . S
O286 C289 1.235 . S
C287 O290 1.238 . S
C287 O291 1.241 . S
C288 O281 1.247 . S
C288 O282 1.261 . S
C289 O284 1.259 . S
C289 O286 1.235 . S
O290 Co280 2.021 . S
O290 C287 1.238 . S
O291 Co285 2.052 . S
O291 C287 1.241 . S
O292 Co280 2.137 . S
O292 C283 1.247 . S
O293 Co280 2.244 . S
O293 C283 1.272 . S
O293 Co285 2.135 . S
Co294 O295 2.216 . S
Co294 O296 2.091 . S
Co294 O298 2.004 . S
Co294 O304 2.021 . S
Co294 O306 2.137 . S
Co294 O307 2.244 . S
O295 Co294 2.216 . S
O295 C302 1.247 . S
O296 Co294 2.091 . S
O296 C302 1.261 . S
C297 O306 1.247 . S
C297 O307 1.272 . S
O298 Co294 2.004 . S
O298 C303 1.259 . S
Co299 O300 2.061 . S
Co299 O305 2.052 . S
Co299 O307 2.135 . S
O300 Co299 2.061 . S
O300 C303 1.235 . S
C301 O304 1.238 . S
C301 O305 1.241 . S
C302 O295 1.247 . S
C302 O296 1.261 . S
C303 O298 1.259 . S
C303 O300 1.235 . S
O304 Co294 2.021 . S
O304 C301 1.238 . S
O305 Co299 2.052 . S
O305 C301 1.241 . S
O306 Co294 2.137 . S
O306 C297 1.247 . S
O307 Co294 2.244 . S
O307 C297 1.272 . S
O307 Co299 2.135 . S
Co308 O309 2.216 . S
Co308 O310 2.091 . S
Co308 O312 2.004 . S
Co308 O318 2.021 . S
Co308 O320 2.137 . S
Co308 O321 2.244 . S
O309 Co308 2.216 . S
O309 C316 1.247 . S
O310 Co308 2.091 . S
O310 C316 1.261 . S
C311 O320 1.247 . S
C311 O321 1.272 . S
O312 Co308 2.004 . S
O312 C317 1.259 . S
Co313 O314 2.061 . S
Co313 O319 2.052 . S
Co313 O321 2.135 . S
O314 Co313 2.061 . S
O314 C317 1.235 . S
C315 O318 1.238 . S
C315 O319 1.241 . S
C316 O309 1.247 . S
C316 O310 1.261 . S
C317 O312 1.259 . S
C317 O314 1.235 . S
O318 Co308 2.021 . S
O318 C315 1.238 . S
O319 Co313 2.052 . S
O319 C315 1.241 . S
O320 Co308 2.137 . S
O320 C311 1.247 . S
O321 Co308 2.244 . S
O321 C311 1.272 . S
O321 Co313 2.135 . S
Co322 O323 2.216 . S
Co322 O324 2.091 . S
Co322 O326 2.004 . S
Co322 O332 2.021 . S
Co322 O334 2.137 . S
Co322 O335 2.244 . S
O323 Co322 2.216 . S
O323 C330 1.247 . S
O324 Co322 2.091 . S
O324 C330 1.261 . S
C325 O334 1.247 . S
C325 O335 1.272 . S
O326 Co322 2.004 . S
O326 C331 1.259 . S
Co327 O328 2.061 . S
Co327 O333 2.052 . S
Co327 O335 2.135 . S
O328 Co327 2.061 . S
O328 C331 1.235 . S
C329 O332 1.238 . S
C329 O333 1.241 . S
C330 O323 1.247 . S
C330 O324 1.261 . S
C331 O326 1.259 . S
C331 O328 1.235 . S
O332 Co322 2.021 . S
O332 C329 1.238 . S
O333 Co327 2.052 . S
O333 C329 1.241 . S
O334 Co322 2.137 . S
O334 C325 1.247 . S
O335 Co322 2.244 . S
O335 C325 1.272 . S
O335 Co327 2.135 . S
C336 C337 1.391 . S
C336 C338 1.394 . S
C336 H352 0.931 . S
C337 C336 1.391 . S
C337 C341 1.376 . S
C338 C336 1.394 . S
C338 C339 1.369 . S
C338 C342 1.531 . S
C339 C338 1.369 . S
C339 C340 1.410 . S
C339 C347 1.503 . S
C340 C339 1.410 . S
C340 C341 1.392 . S
C340 C343 1.511 . S
C341 C337 1.376 . S
C341 C340 1.392 . S
C341 H353 0.929 . S
C342 C338 1.531 . S
C342 H354 0.960 . S
C342 H355 0.962 . S
C342 H356 0.960 . S
C343 C340 1.511 . S
C343 H357 0.961 . S
C343 H358 0.961 . S
C343 H359 0.961 . S
C344 C345 1.370 . S
C344 C346 1.363 . S
C344 H360 0.931 . S
C345 C344 1.370 . S
C345 C349 1.408 . S
C346 C344 1.363 . S
C346 C347 1.370 . S
C346 C350 1.524 . S
C347 C339 1.503 . S
C347 C346 1.370 . S
C347 C348 1.403 . S
C348 C347 1.403 . S
C348 C349 1.404 . S
C348 C351 1.539 . S
C349 C345 1.408 . S
C349 C348 1.404 . S
C349 H361 0.930 . S
C350 C346 1.524 . S
C350 H362 0.956 . S
C350 H363 0.961 . S
C350 H364 0.961 . S
C351 C348 1.539 . S
C351 H365 0.958 . S
C351 H366 0.961 . S
C351 H367 0.960 . S
H352 C336 0.931 . S
H353 C341 0.929 . S
H354 C342 0.960 . S
H355 C342 0.962 . S
H356 C342 0.960 . S
H357 C343 0.961 . S
H358 C343 0.961 . S
H359 C343 0.961 . S
H360 C344 0.931 . S
H361 C349 0.930 . S
H362 C350 0.956 . S
H363 C350 0.961 . S
H364 C350 0.961 . S
H365 C351 0.958 . S
H366 C351 0.961 . S
H367 C351 0.960 . S
C368 C369 1.391 . S
C368 C370 1.394 . S
C368 H384 0.931 . S
C369 C368 1.391 . S
C369 C373 1.376 . S
C370 C368 1.394 . S
C370 C371 1.369 . S
C370 C374 1.531 . S
C371 C370 1.369 . S
C371 C372 1.410 . S
C371 C379 1.503 . S
C372 C371 1.410 . S
C372 C373 1.392 . S
C372 C375 1.511 . S
C373 C369 1.376 . S
C373 C372 1.392 . S
C373 H385 0.929 . S
C374 C370 1.531 . S
C374 H386 0.960 . S
C374 H387 0.962 . S
C374 H388 0.960 . S
C375 C372 1.511 . S
C375 H389 0.961 . S
C375 H390 0.961 . S
C375 H391 0.961 . S
C376 C377 1.370 . S
C376 C378 1.363 . S
C376 H392 0.931 . S
C377 C376 1.370 . S
C377 C381 1.408 . S
C378 C376 1.363 . S
C378 C379 1.370 . S
C378 C382 1.524 . S
C379 C371 1.503 . S
C379 C378 1.370 . S
C379 C380 1.403 . S
C380 C379 1.403 . S
C380 C381 1.404 . S
C380 C383 1.539 . S
C381 C377 1.408 . S
C381 C380 1.404 . S
C381 H393 0.930 . S
C382 C378 1.524 . S
C382 H394 0.956 . S
C382 H395 0.961 . S
C382 H396 0.961 . S
C383 C380 1.539 . S
C383 H397 0.958 . S
C383 H398 0.961 . S
C383 H399 0.960 . S
H384 C368 0.931 . S
H385 C373 0.929 . S
H386 C374 0.960 . S
H387 C374 0.962 . S
H388 C374 0.960 . S
H389 C375 0.961 . S
H390 C375 0.961 . S
H391 C375 0.961 . S
H392 C376 0.931 . S
H393 C381 0.930 . S
H394 C382 0.956 . S
H395 C382 0.961 . S
H396 C382 0.961 . S
H397 C383 0.958 . S
H398 C383 0.961 . S
H399 C383 0.960 . S
C400 C401 1.391 . S
C400 C402 1.394 . S
C400 H416 0.931 . S
C401 C400 1.391 . S
C401 C405 1.376 . S
C402 C400 1.394 . S
C402 C403 1.369 . S
C402 C406 1.531 . S
C403 C402 1.369 . S
C403 C404 1.410 . S
C403 C411 1.503 . S
C404 C403 1.410 . S
C404 C405 1.392 . S
C404 C407 1.511 . S
C405 C401 1.376 . S
C405 C404 1.392 . S
C405 H417 0.929 . S
C406 C402 1.531 . S
C406 H418 0.960 . S
C406 H419 0.962 . S
C406 H420 0.960 . S
C407 C404 1.511 . S
C407 H421 0.961 . S
C407 H422 0.961 . S
C407 H423 0.961 . S
C408 C409 1.370 . S
C408 C410 1.363 . S
C408 H424 0.931 . S
C409 C408 1.370 . S
C409 C413 1.408 . S
C410 C408 1.363 . S
C410 C411 1.370 . S
C410 C414 1.524 . S
C411 C403 1.503 . S
C411 C410 1.370 . S
C411 C412 1.403 . S
C412 C411 1.403 . S
C412 C413 1.404 . S
C412 C415 1.539 . S
C413 C409 1.408 . S
C413 C412 1.404 . S
C413 H425 0.930 . S
C414 C410 1.524 . S
C414 H426 0.956 . S
C414 H427 0.961 . S
C414 H428 0.961 . S
C415 C412 1.539 . S
C415 H429 0.958 . S
C415 H430 0.961 . S
C415 H431 0.960 . S
H416 C400 0.931 . S
H417 C405 0.929 . S
H418 C406 0.960 . S
H419 C406 0.962 . S
H420 C406 0.960 . S
H421 C407 0.961 . S
H422 C407 0.961 . S
H423 C407 0.961 . S
H424 C408 0.931 . S
H425 C413 0.930 . S
H426 C414 0.956 . S
H427 C414 0.961 . S
H428 C414 0.961 . S
H429 C415 0.958 . S
H430 C415 0.961 . S
H431 C415 0.960 . S
C432 C433 1.391 . S
C432 C434 1.394 . S
C432 H448 0.931 . S
C433 C432 1.391 . S
C433 C437 1.376 . S
C434 C432 1.394 . S
C434 C435 1.369 . S
C434 C438 1.531 . S
C435 C434 1.369 . S
C435 C436 1.410 . S
C435 C443 1.503 . S
C436 C435 1.410 . S
C436 C437 1.392 . S
C436 C439 1.511 . S
C437 C433 1.376 . S
C437 C436 1.392 . S
C437 H449 0.929 . S
C438 C434 1.531 . S
C438 H450 0.960 . S
C438 H451 0.962 . S
C438 H452 0.960 . S
C439 C436 1.511 . S
C439 H453 0.961 . S
C439 H454 0.961 . S
C439 H455 0.961 . S
C440 C441 1.370 . S
C440 C442 1.363 . S
C440 H456 0.931 . S
C441 C440 1.370 . S
C441 C445 1.408 . S
C442 C440 1.363 . S
C442 C443 1.370 . S
C442 C446 1.524 . S
C443 C435 1.503 . S
C443 C442 1.370 . S
C443 C444 1.403 . S
C444 C443 1.403 . S
C444 C445 1.404 . S
C444 C447 1.539 . S
C445 C441 1.408 . S
C445 C444 1.404 . S
C445 H457 0.930 . S
C446 C442 1.524 . S
C446 H458 0.956 . S
C446 H459 0.961 . S
C446 H460 0.961 . S
C447 C444 1.539 . S
C447 H461 0.958 . S
C447 H462 0.961 . S
C447 H463 0.960 . S
H448 C432 0.931 . S
H449 C437 0.929 . S
H450 C438 0.960 . S
H451 C438 0.962 . S
H452 C438 0.960 . S
H453 C439 0.961 . S
H454 C439 0.961 . S
H455 C439 0.961 . S
H456 C440 0.931 . S
H457 C445 0.930 . S
H458 C446 0.956 . S
H459 C446 0.961 . S
H460 C446 0.961 . S
H461 C447 0.958 . S
H462 C447 0.961 . S
H463 C447 0.960 . S
C464 C465 1.391 . S
C464 C466 1.394 . S
C464 H480 0.931 . S
C465 C464 1.391 . S
C465 C469 1.376 . S
C466 C464 1.394 . S
C466 C467 1.369 . S
C466 C470 1.531 . S
C467 C466 1.369 . S
C467 C468 1.410 . S
C467 C475 1.503 . S
C468 C467 1.410 . S
C468 C469 1.392 . S
C468 C471 1.511 . S
C469 C465 1.376 . S
C469 C468 1.392 . S
C469 H481 0.929 . S
C470 C466 1.531 . S
C470 H482 0.960 . S
C470 H483 0.962 . S
C470 H484 0.960 . S
C471 C468 1.511 . S
C471 H485 0.961 . S
C471 H486 0.961 . S
C471 H487 0.961 . S
C472 C473 1.370 . S
C472 C474 1.363 . S
C472 H488 0.931 . S
C473 C472 1.370 . S
C473 C477 1.408 . S
C474 C472 1.363 . S
C474 C475 1.370 . S
C474 C478 1.524 . S
C475 C467 1.503 . S
C475 C474 1.370 . S
C475 C476 1.403 . S
C476 C475 1.403 . S
C476 C477 1.404 . S
C476 C479 1.539 . S
C477 C473 1.408 . S
C477 C476 1.404 . S
C477 H489 0.930 . S
C478 C474 1.524 . S
C478 H490 0.956 . S
C478 H491 0.961 . S
C478 H492 0.961 . S
C479 C476 1.539 . S
C479 H493 0.958 . S
C479 H494 0.961 . S
C479 H495 0.960 . S
H480 C464 0.931 . S
H481 C469 0.929 . S
H482 C470 0.960 . S
H483 C470 0.962 . S
H484 C470 0.960 . S
H485 C471 0.961 . S
H486 C471 0.961 . S
H487 C471 0.961 . S
H488 C472 0.931 . S
H489 C477 0.930 . S
H490 C478 0.956 . S
H491 C478 0.961 . S
H492 C478 0.961 . S
H493 C479 0.958 . S
H494 C479 0.961 . S
H495 C479 0.960 . S
C496 C497 1.391 . S
C496 C498 1.394 . S
C496 H512 0.931 . S
C497 C496 1.391 . S
C497 C501 1.376 . S
C498 C496 1.394 . S
C498 C499 1.369 . S
C498 C502 1.531 . S
C499 C498 1.369 . S
C499 C500 1.410 . S
C499 C507 1.503 . S
C500 C499 1.410 . S
C500 C501 1.392 . S
C500 C503 1.511 . S
C501 C497 1.376 . S
C501 C500 1.392 . S
C501 H513 0.929 . S
C502 C498 1.531 . S
C502 H514 0.960 . S
C502 H515 0.962 . S
C502 H516 0.960 . S
C503 C500 1.511 . S
C503 H517 0.961 . S
C503 H518 0.961 . S
C503 H519 0.961 . S
C504 C505 1.370 . S
C504 C506 1.363 . S
C504 H520 0.931 . S
C505 C504 1.370 . S
C505 C509 1.408 . S
C506 C504 1.363 . S
C506 C507 1.370 . S
C506 C510 1.524 . S
C507 C499 1.503 . S
C507 C506 1.370 . S
C507 C508 1.403 . S
C508 C507 1.403 . S
C508 C509 1.404 . S
C508 C511 1.539 . S
C509 C505 1.408 . S
C509 C508 1.404 . S
C509 H521 0.930 . S
C510 C506 1.524 . S
C510 H522 0.956 . S
C510 H523 0.961 . S
C510 H524 0.961 . S
C511 C508 1.539 . S
C511 H525 0.958 . S
C511 H526 0.961 . S
C511 H527 0.960 . S
H512 C496 0.931 . S
H513 C501 0.929 . S
H514 C502 0.960 . S
H515 C502 0.962 . S
H516 C502 0.960 . S
H517 C503 0.961 . S
H518 C503 0.961 . S
H519 C503 0.961 . S
H520 C504 0.931 . S
H521 C509 0.930 . S
H522 C510 0.956 . S
H523 C510 0.961 . S
H524 C510 0.961 . S
H525 C511 0.958 . S
H526 C511 0.961 . S
H527 C511 0.960 . S
C528 C529 1.391 . S
C528 C530 1.394 . S
C528 H544 0.931 . S
C529 C528 1.391 . S
C529 C533 1.376 . S
C530 C528 1.394 . S
C530 C531 1.369 . S
C530 C534 1.531 . S
C531 C530 1.369 . S
C531 C532 1.410 . S
C531 C539 1.503 . S
C532 C531 1.410 . S
C532 C533 1.392 . S
C532 C535 1.511 . S
C533 C529 1.376 . S
C533 C532 1.392 . S
C533 H545 0.929 . S
C534 C530 1.531 . S
C534 H546 0.960 . S
C534 H547 0.962 . S
C534 H548 0.960 . S
C535 C532 1.511 . S
C535 H549 0.961 . S
C535 H550 0.961 . S
C535 H551 0.961 . S
C536 C537 1.370 . S
C536 C538 1.363 . S
C536 H552 0.931 . S
C537 C536 1.370 . S
C537 C541 1.408 . S
C538 C536 1.363 . S
C538 C539 1.370 . S
C538 C542 1.524 . S
C539 C531 1.503 . S
C539 C538 1.370 . S
C539 C540 1.403 . S
C540 C539 1.403 . S
C540 C541 1.404 . S
C540 C543 1.539 . S
C541 C537 1.408 . S
C541 C540 1.404 . S
C541 H553 0.930 . S
C542 C538 1.524 . S
C542 H554 0.956 . S
C542 H555 0.961 . S
C542 H556 0.961 . S
C543 C540 1.539 . S
C543 H557 0.958 . S
C543 H558 0.961 . S
C543 H559 0.960 . S
H544 C528 0.931 . S
H545 C533 0.929 . S
H546 C534 0.960 . S
H547 C534 0.962 . S
H548 C534 0.960 . S
H549 C535 0.961 . S
H550 C535 0.961 . S
H551 C535 0.961 . S
H552 C536 0.931 . S
H553 C541 0.930 . S
H554 C542 0.956 . S
H555 C542 0.961 . S
H556 C542 0.961 . S
H557 C543 0.958 . S
H558 C543 0.961 . S
H559 C543 0.960 . S
C560 C561 1.391 . S
C560 C562 1.394 . S
C560 H576 0.931 . S
C561 C560 1.391 . S
C561 C565 1.376 . S
C562 C560 1.394 . S
C562 C563 1.369 . S
C562 C566 1.531 . S
C563 C562 1.369 . S
C563 C564 1.410 . S
C563 C571 1.503 . S
C564 C563 1.410 . S
C564 C565 1.392 . S
C564 C567 1.511 . S
C565 C561 1.376 . S
C565 C564 1.392 . S
C565 H577 0.929 . S
C566 C562 1.531 . S
C566 H578 0.960 . S
C566 H579 0.962 . S
C566 H580 0.960 . S
C567 C564 1.511 . S
C567 H581 0.961 . S
C567 H582 0.961 . S
C567 H583 0.961 . S
C568 C569 1.370 . S
C568 C570 1.363 . S
C568 H584 0.931 . S
C569 C568 1.370 . S
C569 C573 1.408 . S
C570 C568 1.363 . S
C570 C571 1.370 . S
C570 C574 1.524 . S
C571 C563 1.503 . S
C571 C570 1.370 . S
C571 C572 1.403 . S
C572 C571 1.403 . S
C572 C573 1.404 . S
C572 C575 1.539 . S
C573 C569 1.408 . S
C573 C572 1.404 . S
C573 H585 0.930 . S
C574 C570 1.524 . S
C574 H586 0.956 . S
C574 H587 0.961 . S
C574 H588 0.961 . S
C575 C572 1.539 . S
C575 H589 0.958 . S
C575 H590 0.961 . S
C575 H591 0.960 . S
H576 C560 0.931 . S
H577 C565 0.929 . S
H578 C566 0.960 . S
H579 C566 0.962 . S
H580 C566 0.960 . S
H581 C567 0.961 . S
H582 C567 0.961 . S
H583 C567 0.961 . S
H584 C568 0.931 . S
H585 C573 0.930 . S
H586 C574 0.956 . S
H587 C574 0.961 . S
H588 C574 0.961 . S
H589 C575 0.958 . S
H590 C575 0.961 . S
H591 C575 0.960 . S
C592 C593 1.391 . S
C592 C594 1.394 . S
C592 H608 0.931 . S
C593 C592 1.391 . S
C593 C597 1.376 . S
C594 C592 1.394 . S
C594 C595 1.369 . S
C594 C598 1.531 . S
C595 C594 1.369 . S
C595 C596 1.410 . S
C595 C603 1.503 . S
C596 C595 1.410 . S
C596 C597 1.392 . S
C596 C599 1.511 . S
C597 C593 1.376 . S
C597 C596 1.392 . S
C597 H609 0.929 . S
C598 C594 1.531 . S
C598 H610 0.960 . S
C598 H611 0.962 . S
C598 H612 0.960 . S
C599 C596 1.511 . S
C599 H613 0.961 . S
C599 H614 0.961 . S
C599 H615 0.961 . S
C600 C601 1.370 . S
C600 C602 1.363 . S
C600 H616 0.931 . S
C601 C600 1.370 . S
C601 C605 1.408 . S
C602 C600 1.363 . S
C602 C603 1.370 . S
C602 C606 1.524 . S
C603 C595 1.503 . S
C603 C602 1.370 . S
C603 C604 1.403 . S
C604 C603 1.403 . S
C604 C605 1.404 . S
C604 C607 1.539 . S
C605 C601 1.408 . S
C605 C604 1.404 . S
C605 H617 0.930 . S
C606 C602 1.524 . S
C606 H618 0.956 . S
C606 H619 0.961 . S
C606 H620 0.961 . S
C607 C604 1.539 . S
C607 H621 0.958 . S
C607 H622 0.961 . S
C607 H623 0.960 . S
H608 C592 0.931 . S
H609 C597 0.929 . S
H610 C598 0.960 . S
H611 C598 0.962 . S
H612 C598 0.960 . S
H613 C599 0.961 . S
H614 C599 0.961 . S
H615 C599 0.961 . S
H616 C600 0.931 . S
H617 C605 0.930 . S
H618 C606 0.956 . S
H619 C606 0.961 . S
H620 C606 0.961 . S
H621 C607 0.958 . S
H622 C607 0.961 . S
H623 C607 0.960 . S
C624 C625 1.391 . S
C624 C626 1.394 . S
C624 H640 0.931 . S
C625 C624 1.391 . S
C625 C629 1.376 . S
C626 C624 1.394 . S
C626 C627 1.369 . S
C626 C630 1.531 . S
C627 C626 1.369 . S
C627 C628 1.410 . S
C627 C635 1.503 . S
C628 C627 1.410 . S
C628 C629 1.392 . S
C628 C631 1.511 . S
C629 C625 1.376 . S
C629 C628 1.392 . S
C629 H641 0.929 . S
C630 C626 1.531 . S
C630 H642 0.960 . S
C630 H643 0.962 . S
C630 H644 0.960 . S
C631 C628 1.511 . S
C631 H645 0.961 . S
C631 H646 0.961 . S
C631 H647 0.961 . S
C632 C633 1.370 . S
C632 C634 1.363 . S
C632 H648 0.931 . S
C633 C632 1.370 . S
C633 C637 1.408 . S
C634 C632 1.363 . S
C634 C635 1.370 . S
C634 C638 1.524 . S
C635 C627 1.503 . S
C635 C634 1.370 . S
C635 C636 1.403 . S
C636 C635 1.403 . S
C636 C637 1.404 . S
C636 C639 1.539 . S
C637 C633 1.408 . S
C637 C636 1.404 . S
C637 H649 0.930 . S
C638 C634 1.524 . S
C638 H650 0.956 . S
C638 H651 0.961 . S
C638 H652 0.961 . S
C639 C636 1.539 . S
C639 H653 0.958 . S
C639 H654 0.961 . S
C639 H655 0.960 . S
H640 C624 0.931 . S
H641 C629 0.929 . S
H642 C630 0.960 . S
H643 C630 0.962 . S
H644 C630 0.960 . S
H645 C631 0.961 . S
H646 C631 0.961 . S
H647 C631 0.961 . S
H648 C632 0.931 . S
H649 C637 0.930 . S
H650 C638 0.956 . S
H651 C638 0.961 . S
H652 C638 0.961 . S
H653 C639 0.958 . S
H654 C639 0.961 . S
H655 C639 0.960 . S
C656 C657 1.391 . S
C656 C658 1.394 . S
C656 H672 0.931 . S
C657 C656 1.391 . S
C657 C661 1.376 . S
C658 C656 1.394 . S
C658 C659 1.369 . S
C658 C662 1.531 . S
C659 C658 1.369 . S
C659 C660 1.410 . S
C659 C667 1.503 . S
C660 C659 1.410 . S
C660 C661 1.392 . S
C660 C663 1.511 . S
C661 C657 1.376 . S
C661 C660 1.392 . S
C661 H673 0.929 . S
C662 C658 1.531 . S
C662 H674 0.960 . S
C662 H675 0.962 . S
C662 H676 0.960 . S
C663 C660 1.511 . S
C663 H677 0.961 . S
C663 H678 0.961 . S
C663 H679 0.961 . S
C664 C665 1.370 . S
C664 C666 1.363 . S
C664 H680 0.931 . S
C665 C664 1.370 . S
C665 C669 1.408 . S
C666 C664 1.363 . S
C666 C667 1.370 . S
C666 C670 1.524 . S
C667 C659 1.503 . S
C667 C666 1.370 . S
C667 C668 1.403 . S
C668 C667 1.403 . S
C668 C669 1.404 . S
C668 C671 1.539 . S
C669 C665 1.408 . S
C669 C668 1.404 . S
C669 H681 0.930 . S
C670 C666 1.524 . S
C670 H682 0.956 . S
C670 H683 0.961 . S
C670 H684 0.961 . S
C671 C668 1.539 . S
C671 H685 0.958 . S
C671 H686 0.961 . S
C671 H687 0.960 . S
H672 C656 0.931 . S
H673 C661 0.929 . S
H674 C662 0.960 . S
H675 C662 0.962 . S
H676 C662 0.960 . S
H677 C663 0.961 . S
H678 C663 0.961 . S
H679 C663 0.961 . S
H680 C664 0.931 . S
H681 C669 0.930 . S
H682 C670 0.956 . S
H683 C670 0.961 . S
H684 C670 0.961 . S
H685 C671 0.958 . S
H686 C671 0.961 . S
H687 C671 0.960 . S
C688 C689 1.391 . S
C688 C690 1.394 . S
C688 H704 0.931 . S
C689 C688 1.391 . S
C689 C693 1.376 . S
C690 C688 1.394 . S
C690 C691 1.369 . S
C690 C694 1.531 . S
C691 C690 1.369 . S
C691 C692 1.410 . S
C691 C699 1.503 . S
C692 C691 1.410 . S
C692 C693 1.392 . S
C692 C695 1.511 . S
C693 C689 1.376 . S
C693 C692 1.392 . S
C693 H705 0.929 . S
C694 C690 1.531 . S
C694 H706 0.960 . S
C694 H707 0.962 . S
C694 H708 0.960 . S
C695 C692 1.511 . S
C695 H709 0.961 . S
C695 H710 0.961 . S
C695 H711 0.961 . S
C696 C697 1.370 . S
C696 C698 1.363 . S
C696 H712 0.931 . S
C697 C696 1.370 . S
C697 C701 1.408 . S
C698 C696 1.363 . S
C698 C699 1.370 . S
C698 C702 1.524 . S
C699 C691 1.503 . S
C699 C698 1.370 . S
C699 C700 1.403 . S
C700 C699 1.403 . S
C700 C701 1.404 . S
C700 C703 1.539 . S
C701 C697 1.408 . S
C701 C700 1.404 . S
C701 H713 0.930 . S
C702 C698 1.524 . S
C702 H714 0.956 . S
C702 H715 0.961 . S
C702 H716 0.961 . S
C703 C700 1.539 . S
C703 H717 0.958 . S
C703 H718 0.961 . S
C703 H719 0.960 . S
H704 C688 0.931 . S
H705 C693 0.929 . S
H706 C694 0.960 . S
H707 C694 0.962 . S
H708 C694 0.960 . S
H709 C695 0.961 . S
H710 C695 0.961 . S
H711 C695 0.961 . S
H712 C696 0.931 . S
H713 C701 0.930 . S
H714 C702 0.956 . S
H715 C702 0.961 . S
H716 C702 0.961 . S
H717 C703 0.958 . S
H718 C703 0.961 . S
H719 C703 0.960 . S
C720 C721 1.391 . S
C720 C722 1.394 . S
C720 H736 0.931 . S
C721 C720 1.391 . S
C721 C725 1.376 . S
C722 C720 1.394 . S
C722 C723 1.369 . S
C722 C726 1.531 . S
C723 C722 1.369 . S
C723 C724 1.410 . S
C723 C731 1.503 . S
C724 C723 1.410 . S
C724 C725 1.392 . S
C724 C727 1.511 . S
C725 C721 1.376 . S
C725 C724 1.392 . S
C725 H737 0.929 . S
C726 C722 1.531 . S
C726 H738 0.960 . S
C726 H739 0.962 . S
C726 H740 0.960 . S
C727 C724 1.511 . S
C727 H741 0.961 . S
C727 H742 0.961 . S
C727 H743 0.961 . S
C728 C729 1.370 . S
C728 C730 1.363 . S
C728 H744 0.931 . S
C729 C728 1.370 . S
C729 C733 1.408 . S
C730 C728 1.363 . S
C730 C731 1.370 . S
C730 C734 1.524 . S
C731 C723 1.503 . S
C731 C730 1.370 . S
C731 C732 1.403 . S
C732 C731 1.403 . S
C732 C733 1.404 . S
C732 C735 1.539 . S
C733 C729 1.408 . S
C733 C732 1.404 . S
C733 H745 0.930 . S
C734 C730 1.524 . S
C734 H746 0.956 . S
C734 H747 0.961 . S
C734 H748 0.961 . S
C735 C732 1.539 . S
C735 H749 0.958 . S
C735 H750 0.961 . S
C735 H751 0.960 . S
H736 C720 0.931 . S
H737 C725 0.929 . S
H738 C726 0.960 . S
H739 C726 0.962 . S
H740 C726 0.960 . S
H741 C727 0.961 . S
H742 C727 0.961 . S
H743 C727 0.961 . S
H744 C728 0.931 . S
H745 C733 0.930 . S
H746 C734 0.956 . S
H747 C734 0.961 . S
H748 C734 0.961 . S
H749 C735 0.958 . S
H750 C735 0.961 . S
H751 C735 0.960 . S
C752 C753 1.391 . S
C752 C754 1.394 . S
C752 H768 0.931 . S
C753 C752 1.391 . S
C753 C757 1.376 . S
C754 C752 1.394 . S
C754 C755 1.369 . S
C754 C758 1.531 . S
C755 C754 1.369 . S
C755 C756 1.410 . S
C755 C763 1.503 . S
C756 C755 1.410 . S
C756 C757 1.392 . S
C756 C759 1.511 . S
C757 C753 1.376 . S
C757 C756 1.392 . S
C757 H769 0.929 . S
C758 C754 1.531 . S
C758 H770 0.960 . S
C758 H771 0.962 . S
C758 H772 0.960 . S
C759 C756 1.511 . S
C759 H773 0.961 . S
C759 H774 0.961 . S
C759 H775 0.961 . S
C760 C761 1.370 . S
C760 C762 1.363 . S
C760 H776 0.931 . S
C761 C760 1.370 . S
C761 C765 1.408 . S
C762 C760 1.363 . S
C762 C763 1.370 . S
C762 C766 1.524 . S
C763 C755 1.503 . S
C763 C762 1.370 . S
C763 C764 1.403 . S
C764 C763 1.403 . S
C764 C765 1.404 . S
C764 C767 1.539 . S
C765 C761 1.408 . S
C765 C764 1.404 . S
C765 H777 0.930 . S
C766 C762 1.524 . S
C766 H778 0.956 . S
C766 H779 0.961 . S
C766 H780 0.961 . S
C767 C764 1.539 . S
C767 H781 0.958 . S
C767 H782 0.961 . S
C767 H783 0.960 . S
H768 C752 0.931 . S
H769 C757 0.929 . S
H770 C758 0.960 . S
H771 C758 0.962 . S
H772 C758 0.960 . S
H773 C759 0.961 . S
H774 C759 0.961 . S
H775 C759 0.961 . S
H776 C760 0.931 . S
H777 C765 0.930 . S
H778 C766 0.956 . S
H779 C766 0.961 . S
H780 C766 0.961 . S
H781 C767 0.958 . S
H782 C767 0.961 . S
H783 C767 0.960 . S
C784 C785 1.391 . S
C784 C786 1.394 . S
C784 H800 0.931 . S
C785 C784 1.391 . S
C785 C789 1.376 . S
C786 C784 1.394 . S
C786 C787 1.369 . S
C786 C790 1.531 . S
C787 C786 1.369 . S
C787 C788 1.410 . S
C787 C795 1.503 . S
C788 C787 1.410 . S
C788 C789 1.392 . S
C788 C791 1.511 . S
C789 C785 1.376 . S
C789 C788 1.392 . S
C789 H801 0.929 . S
C790 C786 1.531 . S
C790 H802 0.960 . S
C790 H803 0.962 . S
C790 H804 0.960 . S
C791 C788 1.511 . S
C791 H805 0.961 . S
C791 H806 0.961 . S
C791 H807 0.961 . S
C792 C793 1.370 . S
C792 C794 1.363 . S
C792 H808 0.931 . S
C793 C792 1.370 . S
C793 C797 1.408 . S
C794 C792 1.363 . S
C794 C795 1.370 . S
C794 C798 1.524 . S
C795 C787 1.503 . S
C795 C794 1.370 . S
C795 C796 1.403 . S
C796 C795 1.403 . S
C796 C797 1.404 . S
C796 C799 1.539 . S
C797 C793 1.408 . S
C797 C796 1.404 . S
C797 H809 0.930 . S
C798 C794 1.524 . S
C798 H810 0.956 . S
C798 H811 0.961 . S
C798 H812 0.961 . S
C799 C796 1.539 . S
C799 H813 0.958 . S
C799 H814 0.961 . S
C799 H815 0.960 . S
H800 C784 0.931 . S
H801 C789 0.929 . S
H802 C790 0.960 . S
H803 C790 0.962 . S
H804 C790 0.960 . S
H805 C791 0.961 . S
H806 C791 0.961 . S
H807 C791 0.961 . S
H808 C792 0.931 . S
H809 C797 0.930 . S
H810 C798 0.956 . S
H811 C798 0.961 . S
H812 C798 0.961 . S
H813 C799 0.958 . S
H814 C799 0.961 . S
H815 C799 0.960 . S
C816 C817 1.391 . S
C816 C818 1.394 . S
C816 H832 0.931 . S
C817 C816 1.391 . S
C817 C821 1.376 . S
C818 C816 1.394 . S
C818 C819 1.369 . S
C818 C822 1.531 . S
C819 C818 1.369 . S
C819 C820 1.410 . S
C819 C827 1.503 . S
C820 C819 1.410 . S
C820 C821 1.392 . S
C820 C823 1.511 . S
C821 C817 1.376 . S
C821 C820 1.392 . S
C821 H833 0.929 . S
C822 C818 1.531 . S
C822 H834 0.960 . S
C822 H835 0.962 . S
C822 H836 0.960 . S
C823 C820 1.511 . S
C823 H837 0.961 . S
C823 H838 0.961 . S
C823 H839 0.961 . S
C824 C825 1.370 . S
C824 C826 1.363 . S
C824 H840 0.931 . S
C825 C824 1.370 . S
C825 C829 1.408 . S
C826 C824 1.363 . S
C826 C827 1.370 . S
C826 C830 1.524 . S
C827 C819 1.503 . S
C827 C826 1.370 . S
C827 C828 1.403 . S
C828 C827 1.403 . S
C828 C829 1.404 . S
C828 C831 1.539 . S
C829 C825 1.408 . S
C829 C828 1.404 . S
C829 H841 0.930 . S
C830 C826 1.524 . S
C830 H842 0.956 . S
C830 H843 0.961 . S
C830 H844 0.961 . S
C831 C828 1.539 . S
C831 H845 0.958 . S
C831 H846 0.961 . S
C831 H847 0.960 . S
H832 C816 0.931 . S
H833 C821 0.929 . S
H834 C822 0.960 . S
H835 C822 0.962 . S
H836 C822 0.960 . S
H837 C823 0.961 . S
H838 C823 0.961 . S
H839 C823 0.961 . S
H840 C824 0.931 . S
H841 C829 0.930 . S
H842 C830 0.956 . S
H843 C830 0.961 . S
H844 C830 0.961 . S
H845 C831 0.958 . S
H846 C831 0.961 . S
H847 C831 0.960 . S
C848 C849 1.391 . S
C848 C850 1.394 . S
C848 H864 0.931 . S
C849 C848 1.391 . S
C849 C853 1.376 . S
C850 C848 1.394 . S
C850 C851 1.369 . S
C850 C854 1.531 . S
C851 C850 1.369 . S
C851 C852 1.410 . S
C851 C859 1.503 . S
C852 C851 1.410 . S
C852 C853 1.392 . S
C852 C855 1.511 . S
C853 C849 1.376 . S
C853 C852 1.392 . S
C853 H865 0.929 . S
C854 C850 1.531 . S
C854 H866 0.960 . S
C854 H867 0.962 . S
C854 H868 0.960 . S
C855 C852 1.511 . S
C855 H869 0.961 . S
C855 H870 0.961 . S
C855 H871 0.961 . S
C856 C857 1.370 . S
C856 C858 1.363 . S
C856 H872 0.931 . S
C857 C856 1.370 . S
C857 C861 1.408 . S
C858 C856 1.363 . S
C858 C859 1.370 . S
C858 C862 1.524 . S
C859 C851 1.503 . S
C859 C858 1.370 . S
C859 C860 1.403 . S
C860 C859 1.403 . S
C860 C861 1.404 . S
C860 C863 1.539 . S
C861 C857 1.408 . S
C861 C860 1.404 . S
C861 H873 0.930 . S
C862 C858 1.524 . S
C862 H874 0.956 . S
C862 H875 0.961 . S
C862 H876 0.961 . S
C863 C860 1.539 . S
C863 H877 0.958 . S
C863 H878 0.961 . S
C863 H879 0.960 . S
H864 C848 0.931 . S
H865 C853 0.929 . S
H866 C854 0.960 . S
H867 C854 0.962 . S
H868 C854 0.960 . S
H869 C855 0.961 . S
H870 C855 0.961 . S
H871 C855 0.961 . S
H872 C856 0.931 . S
H873 C861 0.930 . S
H874 C862 0.956 . S
H875 C862 0.961 . S
H876 C862 0.961 . S
H877 C863 0.958 . S
H878 C863 0.961 . S
H879 C863 0.960 . S
C880 C881 1.391 . S
C880 C882 1.394 . S
C880 H896 0.931 . S
C881 C880 1.391 . S
C881 C885 1.376 . S
C882 C880 1.394 . S
C882 C883 1.369 . S
C882 C886 1.531 . S
C883 C882 1.369 . S
C883 C884 1.410 . S
C883 C891 1.503 . S
C884 C883 1.410 . S
C884 C885 1.392 . S
C884 C887 1.511 . S
C885 C881 1.376 . S
C885 C884 1.392 . S
C885 H897 0.929 . S
C886 C882 1.531 . S
C886 H898 0.960 . S
C886 H899 0.962 . S
C886 H900 0.960 . S
C887 C884 1.511 . S
C887 H901 0.961 . S
C887 H902 0.961 . S
C887 H903 0.961 . S
C888 C889 1.370 . S
C888 C890 1.363 . S
C888 H904 0.931 . S
C889 C888 1.370 . S
C889 C893 1.408 . S
C890 C888 1.363 . S
C890 C891 1.370 . S
C890 C894 1.524 . S
C891 C883 1.503 . S
C891 C890 1.370 . S
C891 C892 1.403 . S
C892 C891 1.403 . S
C892 C893 1.404 . S
C892 C895 1.539 . S
C893 C889 1.408 . S
C893 C892 1.404 . S
C893 H905 0.930 . S
C894 C890 1.524 . S
C894 H906 0.956 . S
C894 H907 0.961 . S
C894 H908 0.961 . S
C895 C892 1.539 . S
C895 H909 0.958 . S
C895 H910 0.961 . S
C895 H911 0.960 . S
H896 C880 0.931 . S
H897 C885 0.929 . S
H898 C886 0.960 . S
H899 C886 0.962 . S
H900 C886 0.960 . S
H901 C887 0.961 . S
H902 C887 0.961 . S
H903 C887 0.961 . S
H904 C888 0.931 . S
H905 C893 0.930 . S
H906 C894 0.956 . S
H907 C894 0.961 . S
H908 C894 0.961 . S
H909 C895 0.958 . S
H910 C895 0.961 . S
H911 C895 0.960 . S
C912 C913 1.391 . S
C912 C914 1.394 . S
C912 H928 0.931 . S
C913 C912 1.391 . S
C913 C917 1.376 . S
C914 C912 1.394 . S
C914 C915 1.369 . S
C914 C918 1.531 . S
C915 C914 1.369 . S
C915 C916 1.410 . S
C915 C923 1.503 . S
C916 C915 1.410 . S
C916 C917 1.392 . S
C916 C919 1.511 . S
C917 C913 1.376 . S
C917 C916 1.392 . S
C917 H929 0.929 . S
C918 C914 1.531 . S
C918 H930 0.960 . S
C918 H931 0.962 . S
C918 H932 0.960 . S
C919 C916 1.511 . S
C919 H933 0.961 . S
C919 H934 0.961 . S
C919 H935 0.961 . S
C920 C921 1.370 . S
C920 C922 1.363 . S
C920 H936 0.931 . S
C921 C920 1.370 . S
C921 C925 1.408 . S
C922 C920 1.363 . S
C922 C923 1.370 . S
C922 C926 1.524 . S
C923 C915 1.503 . S
C923 C922 1.370 . S
C923 C924 1.403 . S
C924 C923 1.403 . S
C924 C925 1.404 . S
C924 C927 1.539 . S
C925 C921 1.408 . S
C925 C924 1.404 . S
C925 H937 0.930 . S
C926 C922 1.524 . S
C926 H938 0.956 . S
C926 H939 0.961 . S
C926 H940 0.961 . S
C927 C924 1.539 . S
C927 H941 0.958 . S
C927 H942 0.961 . S
C927 H943 0.960 . S
H928 C912 0.931 . S
H929 C917 0.929 . S
H930 C918 0.960 . S
H931 C918 0.962 . S
H932 C918 0.960 . S
H933 C919 0.961 . S
H934 C919 0.961 . S
H935 C919 0.961 . S
H936 C920 0.931 . S
H937 C925 0.930 . S
H938 C926 0.956 . S
H939 C926 0.961 . S
H940 C926 0.961 . S
H941 C927 0.958 . S
H942 C927 0.961 . S
H943 C927 0.960 . S
C944 C945 1.391 . S
C944 C946 1.394 . S
C944 H960 0.931 . S
C945 C944 1.391 . S
C945 C949 1.376 . S
C946 C944 1.394 . S
C946 C947 1.369 . S
C946 C950 1.531 . S
C947 C946 1.369 . S
C947 C948 1.410 . S
C947 C955 1.503 . S
C948 C947 1.410 . S
C948 C949 1.392 . S
C948 C951 1.511 . S
C949 C945 1.376 . S
C949 C948 1.392 . S
C949 H961 0.929 . S
C950 C946 1.531 . S
C950 H962 0.960 . S
C950 H963 0.962 . S
C950 H964 0.960 . S
C951 C948 1.511 . S
C951 H965 0.961 . S
C951 H966 0.961 . S
C951 H967 0.961 . S
C952 C953 1.370 . S
C952 C954 1.363 . S
C952 H968 0.931 . S
C953 C952 1.370 . S
C953 C957 1.408 . S
C954 C952 1.363 . S
C954 C955 1.370 . S
C954 C958 1.524 . S
C955 C947 1.503 . S
C955 C954 1.370 . S
C955 C956 1.403 . S
C956 C955 1.403 . S
C956 C957 1.404 . S
C956 C959 1.539 . S
C957 C953 1.408 . S
C957 C956 1.404 . S
C957 H969 0.930 . S
C958 C954 1.524 . S
C958 H970 0.956 . S
C958 H971 0.961 . S
C958 H972 0.961 . S
C959 C956 1.539 . S
C959 H973 0.958 . S
C959 H974 0.961 . S
C959 H975 0.960 . S
H960 C944 0.931 . S
H961 C949 0.929 . S
H962 C950 0.960 . S
H963 C950 0.962 . S
H964 C950 0.960 . S
H965 C951 0.961 . S
H966 C951 0.961 . S
H967 C951 0.961 . S
H968 C952 0.931 . S
H969 C957 0.930 . S
H970 C958 0.956 . S
H971 C958 0.961 . S
H972 C958 0.961 . S
H973 C959 0.958 . S
H974 C959 0.961 . S
H975 C959 0.960 . S
C976 C977 1.391 . S
C976 C978 1.394 . S
C976 H992 0.931 . S
C977 C976 1.391 . S
C977 C981 1.376 . S
C978 C976 1.394 . S
C978 C979 1.369 . S
C978 C982 1.531 . S
C979 C978 1.369 . S
C979 C980 1.410 . S
C979 C987 1.503 . S
C980 C979 1.410 . S
C980 C981 1.392 . S
C980 C983 1.511 . S
C981 C977 1.376 . S
C981 C980 1.392 . S
C981 H993 0.929 . S
C982 C978 1.531 . S
C982 H994 0.960 . S
C982 H995 0.962 . S
C982 H996 0.960 . S
C983 C980 1.511 . S
C983 H997 0.961 . S
C983 H998 0.961 . S
C983 H999 0.961 . S
C984 C985 1.370 . S
C984 C986 1.363 . S
C984 H1000 0.931 . S
C985 C984 1.370 . S
C985 C989 1.408 . S
C986 C984 1.363 . S
C986 C987 1.370 . S
C986 C990 1.524 . S
C987 C979 1.503 . S
C987 C986 1.370 . S
C987 C988 1.403 . S
C988 C987 1.403 . S
C988 C989 1.404 . S
C988 C991 1.539 . S
C989 C985 1.408 . S
C989 C988 1.404 . S
C989 H1001 0.930 . S
C990 C986 1.524 . S
C990 H1002 0.956 . S
C990 H1003 0.961 . S
C990 H1004 0.961 . S
C991 C988 1.539 . S
C991 H1005 0.958 . S
C991 H1006 0.961 . S
C991 H1007 0.960 . S
H992 C976 0.931 . S
H993 C981 0.929 . S
H994 C982 0.960 . S
H995 C982 0.962 . S
H996 C982 0.960 . S
H997 C983 0.961 . S
H998 C983 0.961 . S
H999 C983 0.961 . S
H1000 C984 0.931 . S
H1001 C989 0.930 . S
H1002 C990 0.956 . S
H1003 C990 0.961 . S
H1004 C990 0.961 . S
H1005 C991 0.958 . S
H1006 C991 0.961 . S
H1007 C991 0.960 . S
C1008 C1009 1.391 . S
C1008 C1010 1.394 . S
C1008 H1024 0.931 . S
C1009 C1008 1.391 . S
C1009 C1013 1.376 . S
C1010 C1008 1.394 . S
C1010 C1011 1.369 . S
C1010 C1014 1.531 . S
C1011 C1010 1.369 . S
C1011 C1012 1.410 . S
C1011 C1019 1.503 . S
C1012 C1011 1.410 . S
C1012 C1013 1.392 . S
C1012 C1015 1.511 . S
C1013 C1009 1.376 . S
C1013 C1012 1.392 . S
C1013 H1025 0.929 . S
C1014 C1010 1.531 . S
C1014 H1026 0.960 . S
C1014 H1027 0.962 . S
C1014 H1028 0.960 . S
C1015 C1012 1.511 . S
C1015 H1029 0.961 . S
C1015 H1030 0.961 . S
C1015 H1031 0.961 . S
C1016 C1017 1.370 . S
C1016 C1018 1.363 . S
C1016 H1032 0.931 . S
C1017 C1016 1.370 . S
C1017 C1021 1.408 . S
C1018 C1016 1.363 . S
C1018 C1019 1.370 . S
C1018 C1022 1.524 . S
C1019 C1011 1.503 . S
C1019 C1018 1.370 . S
C1019 C1020 1.403 . S
C1020 C1019 1.403 . S
C1020 C1021 1.404 . S
C1020 C1023 1.539 . S
C1021 C1017 1.408 . S
C1021 C1020 1.404 . S
C1021 H1033 0.930 . S
C1022 C1018 1.524 . S
C1022 H1034 0.956 . S
C1022 H1035 0.961 . S
C1022 H1036 0.961 . S
C1023 C1020 1.539 . S
C1023 H1037 0.958 . S
C1023 H1038 0.961 . S
C1023 H1039 0.960 . S
H1024 C1008 0.931 . S
H1025 C1013 0.929 . S
H1026 C1014 0.960 . S
H1027 C1014 0.962 . S
H1028 C1014 0.960 . S
H1029 C1015 0.961 . S
H1030 C1015 0.961 . S
H1031 C1015 0.961 . S
H1032 C1016 0.931 . S
H1033 C1021 0.930 . S
H1034 C1022 0.956 . S
H1035 C1022 0.961 . S
H1036 C1022 0.961 . S
H1037 C1023 0.958 . S
H1038 C1023 0.961 . S
H1039 C1023 0.960 . S
C1040 C1041 1.391 . S
C1040 C1042 1.394 . S
C1040 H1056 0.931 . S
C1041 C1040 1.391 . S
C1041 C1045 1.376 . S
C1042 C1040 1.394 . S
C1042 C1043 1.369 . S
C1042 C1046 1.531 . S
C1043 C1042 1.369 . S
C1043 C1044 1.410 . S
C1043 C1051 1.503 . S
C1044 C1043 1.410 . S
C1044 C1045 1.392 . S
C1044 C1047 1.511 . S
C1045 C1041 1.376 . S
C1045 C1044 1.392 . S
C1045 H1057 0.929 . S
C1046 C1042 1.531 . S
C1046 H1058 0.960 . S
C1046 H1059 0.962 . S
C1046 H1060 0.960 . S
C1047 C1044 1.511 . S
C1047 H1061 0.961 . S
C1047 H1062 0.961 . S
C1047 H1063 0.961 . S
C1048 C1049 1.370 . S
C1048 C1050 1.363 . S
C1048 H1064 0.931 . S
C1049 C1048 1.370 . S
C1049 C1053 1.408 . S
C1050 C1048 1.363 . S
C1050 C1051 1.370 . S
C1050 C1054 1.524 . S
C1051 C1043 1.503 . S
C1051 C1050 1.370 . S
C1051 C1052 1.403 . S
C1052 C1051 1.403 . S
C1052 C1053 1.404 . S
C1052 C1055 1.539 . S
C1053 C1049 1.408 . S
C1053 C1052 1.404 . S
C1053 H1065 0.930 . S
C1054 C1050 1.524 . S
C1054 H1066 0.956 . S
C1054 H1067 0.961 . S
C1054 H1068 0.961 . S
C1055 C1052 1.539 . S
C1055 H1069 0.958 . S
C1055 H1070 0.961 . S
C1055 H1071 0.960 . S
H1056 C1040 0.931 . S
H1057 C1045 0.929 . S
H1058 C1046 0.960 . S
H1059 C1046 0.962 . S
H1060 C1046 0.960 . S
H1061 C1047 0.961 . S
H1062 C1047 0.961 . S
H1063 C1047 0.961 . S
H1064 C1048 0.931 . S
H1065 C1053 0.930 . S
H1066 C1054 0.956 . S
H1067 C1054 0.961 . S
H1068 C1054 0.961 . S
H1069 C1055 0.958 . S
H1070 C1055 0.961 . S
H1071 C1055 0.960 . S
C1072 C1073 1.391 . S
C1072 C1074 1.394 . S
C1072 H1088 0.931 . S
C1073 C1072 1.391 . S
C1073 C1077 1.376 . S
C1074 C1072 1.394 . S
C1074 C1075 1.369 . S
C1074 C1078 1.531 . S
C1075 C1074 1.369 . S
C1075 C1076 1.410 . S
C1075 C1083 1.503 . S
C1076 C1075 1.410 . S
C1076 C1077 1.392 . S
C1076 C1079 1.511 . S
C1077 C1073 1.376 . S
C1077 C1076 1.392 . S
C1077 H1089 0.929 . S
C1078 C1074 1.531 . S
C1078 H1090 0.960 . S
C1078 H1091 0.962 . S
C1078 H1092 0.960 . S
C1079 C1076 1.511 . S
C1079 H1093 0.961 . S
C1079 H1094 0.961 . S
C1079 H1095 0.961 . S
C1080 C1081 1.370 . S
C1080 C1082 1.363 . S
C1080 H1096 0.931 . S
C1081 C1080 1.370 . S
C1081 C1085 1.408 . S
C1082 C1080 1.363 . S
C1082 C1083 1.370 . S
C1082 C1086 1.524 . S
C1083 C1075 1.503 . S
C1083 C1082 1.370 . S
C1083 C1084 1.403 . S
C1084 C1083 1.403 . S
C1084 C1085 1.404 . S
C1084 C1087 1.539 . S
C1085 C1081 1.408 . S
C1085 C1084 1.404 . S
C1085 H1097 0.930 . S
C1086 C1082 1.524 . S
C1086 H1098 0.956 . S
C1086 H1099 0.961 . S
C1086 H1100 0.961 . S
C1087 C1084 1.539 . S
C1087 H1101 0.958 . S
C1087 H1102 0.961 . S
C1087 H1103 0.960 . S
H1088 C1072 0.931 . S
H1089 C1077 0.929 . S
H1090 C1078 0.960 . S
H1091 C1078 0.962 . S
H1092 C1078 0.960 . S
H1093 C1079 0.961 . S
H1094 C1079 0.961 . S
H1095 C1079 0.961 . S
H1096 C1080 0.931 . S
H1097 C1085 0.930 . S
H1098 C1086 0.956 . S
H1099 C1086 0.961 . S
H1100 C1086 0.961 . S
H1101 C1087 0.958 . S
H1102 C1087 0.961 . S
H1103 C1087 0.960 . S
C1104 C1105 1.391 . S
C1104 C1106 1.394 . S
C1104 H1120 0.931 . S
C1105 C1104 1.391 . S
C1105 C1109 1.376 . S
C1106 C1104 1.394 . S
C1106 C1107 1.369 . S
C1106 C1110 1.531 . S
C1107 C1106 1.369 . S
C1107 C1108 1.410 . S
C1107 C1115 1.503 . S
C1108 C1107 1.410 . S
C1108 C1109 1.392 . S
C1108 C1111 1.511 . S
C1109 C1105 1.376 . S
C1109 C1108 1.392 . S
C1109 H1121 0.929 . S
C1110 C1106 1.531 . S
C1110 H1122 0.960 . S
C1110 H1123 0.962 . S
C1110 H1124 0.960 . S
C1111 C1108 1.511 . S
C1111 H1125 0.961 . S
C1111 H1126 0.961 . S
C1111 H1127 0.961 . S
C1112 C1113 1.370 . S
C1112 C1114 1.363 . S
C1112 H1128 0.931 . S
C1113 C1112 1.370 . S
C1113 C1117 1.408 . S
C1114 C1112 1.363 . S
C1114 C1115 1.370 . S
C1114 C1118 1.524 . S
C1115 C1107 1.503 . S
C1115 C1114 1.370 . S
C1115 C1116 1.403 . S
C1116 C1115 1.403 . S
C1116 C1117 1.404 . S
C1116 C1119 1.539 . S
C1117 C1113 1.408 . S
C1117 C1116 1.404 . S
C1117 H1129 0.930 . S
C1118 C1114 1.524 . S
C1118 H1130 0.956 . S
C1118 H1131 0.961 . S
C1118 H1132 0.961 . S
C1119 C1116 1.539 . S
C1119 H1133 0.958 . S
C1119 H1134 0.961 . S
C1119 H1135 0.960 . S
H1120 C1104 0.931 . S
H1121 C1109 0.929 . S
H1122 C1110 0.960 . S
H1123 C1110 0.962 . S
H1124 C1110 0.960 . S
H1125 C1111 0.961 . S
H1126 C1111 0.961 . S
H1127 C1111 0.961 . S
H1128 C1112 0.931 . S
H1129 C1117 0.930 . S
H1130 C1118 0.956 . S
H1131 C1118 0.961 . S
H1132 C1118 0.961 . S
H1133 C1119 0.958 . S
H1134 C1119 0.961 . S
H1135 C1119 0.960 . S
C1136 C1137 1.391 . S
C1136 C1138 1.394 1_554 S
C1136 H1152 0.931 . S
C1137 C1136 1.391 . S
C1137 C1141 1.376 . S
C1138 C1136 1.394 1_556 S
C1138 C1139 1.369 . S
C1138 C1142 1.531 . S
C1139 C1138 1.369 . S
C1139 C1140 1.410 1_556 S
C1139 C1147 1.503 . S
C1140 C1139 1.410 1_554 S
C1140 C1141 1.392 . S
C1140 C1143 1.511 . S
C1141 C1137 1.376 . S
C1141 C1140 1.392 . S
C1141 H1153 0.929 . S
C1142 C1138 1.531 . S
C1142 H1154 0.960 . S
C1142 H1155 0.962 . S
C1142 H1156 0.960 . S
C1143 C1140 1.511 . S
C1143 H1157 0.961 . S
C1143 H1158 0.961 1_554 S
C1143 H1159 0.961 . S
C1144 C1145 1.370 . S
C1144 C1146 1.363 . S
C1144 H1160 0.931 . S
C1145 C1144 1.370 . S
C1145 C1149 1.408 . S
C1146 C1144 1.363 . S
C1146 C1147 1.370 . S
C1146 C1150 1.524 . S
C1147 C1139 1.503 . S
C1147 C1146 1.370 . S
C1147 C1148 1.403 . S
C1148 C1147 1.403 . S
C1148 C1149 1.404 . S
C1148 C1151 1.539 . S
C1149 C1145 1.408 . S
C1149 C1148 1.404 . S
C1149 H1161 0.930 . S
C1150 C1146 1.524 . S
C1150 H1162 0.956 . S
C1150 H1163 0.961 . S
C1150 H1164 0.961 . S
C1151 C1148 1.539 . S
C1151 H1165 0.958 . S
C1151 H1166 0.961 . S
C1151 H1167 0.960 . S
H1152 C1136 0.931 . S
H1153 C1141 0.929 . S
H1154 C1142 0.960 . S
H1155 C1142 0.962 . S
H1156 C1142 0.960 . S
H1157 C1143 0.961 . S
H1158 C1143 0.961 1_556 S
H1159 C1143 0.961 . S
H1160 C1144 0.931 . S
H1161 C1149 0.930 . S
H1162 C1150 0.956 . S
H1163 C1150 0.961 . S
H1164 C1150 0.961 . S
H1165 C1151 0.958 . S
H1166 C1151 0.961 . S
H1167 C1151 0.960 . S
C1168 C1169 1.391 . S
C1168 C1170 1.394 . S
C1168 H1184 0.931 . S
C1169 C1168 1.391 . S
C1169 C1173 1.376 . S
C1170 C1168 1.394 . S
C1170 C1171 1.369 . S
C1170 C1174 1.531 . S
C1171 C1170 1.369 . S
C1171 C1172 1.410 . S
C1171 C1179 1.503 . S
C1172 C1171 1.410 . S
C1172 C1173 1.392 . S
C1172 C1175 1.511 . S
C1173 C1169 1.376 . S
C1173 C1172 1.392 . S
C1173 H1185 0.929 . S
C1174 C1170 1.531 . S
C1174 H1186 0.960 . S
C1174 H1187 0.962 . S
C1174 H1188 0.960 . S
C1175 C1172 1.511 . S
C1175 H1189 0.961 . S
C1175 H1190 0.961 . S
C1175 H1191 0.961 . S
C1176 C1177 1.370 . S
C1176 C1178 1.363 . S
C1176 H1192 0.931 . S
C1177 C1176 1.370 . S
C1177 C1181 1.408 . S
C1178 C1176 1.363 . S
C1178 C1179 1.370 . S
C1178 C1182 1.524 . S
C1179 C1171 1.503 . S
C1179 C1178 1.370 . S
C1179 C1180 1.403 . S
C1180 C1179 1.403 . S
C1180 C1181 1.404 . S
C1180 C1183 1.539 . S
C1181 C1177 1.408 . S
C1181 C1180 1.404 . S
C1181 H1193 0.930 . S
C1182 C1178 1.524 . S
C1182 H1194 0.956 . S
C1182 H1195 0.961 . S
C1182 H1196 0.961 . S
C1183 C1180 1.539 . S
C1183 H1197 0.958 . S
C1183 H1198 0.961 . S
C1183 H1199 0.960 . S
H1184 C1168 0.931 . S
H1185 C1173 0.929 . S
H1186 C1174 0.960 . S
H1187 C1174 0.962 . S
H1188 C1174 0.960 . S
H1189 C1175 0.961 . S
H1190 C1175 0.961 . S
H1191 C1175 0.961 . S
H1192 C1176 0.931 . S
H1193 C1181 0.930 . S
H1194 C1182 0.956 . S
H1195 C1182 0.961 . S
H1196 C1182 0.961 . S
H1197 C1183 0.958 . S
H1198 C1183 0.961 . S
H1199 C1183 0.960 . S
C1200 C1201 1.391 . S
C1200 C1202 1.394 . S
C1200 H1216 0.931 . S
C1201 C1200 1.391 . S
C1201 C1205 1.376 . S
C1202 C1200 1.394 . S
C1202 C1203 1.369 . S
C1202 C1206 1.531 . S
C1203 C1202 1.369 . S
C1203 C1204 1.410 . S
C1203 C1211 1.503 . S
C1204 C1203 1.410 . S
C1204 C1205 1.392 . S
C1204 C1207 1.511 . S
C1205 C1201 1.376 . S
C1205 C1204 1.392 . S
C1205 H1217 0.929 . S
C1206 C1202 1.531 . S
C1206 H1218 0.960 . S
C1206 H1219 0.962 . S
C1206 H1220 0.960 . S
C1207 C1204 1.511 . S
C1207 H1221 0.961 . S
C1207 H1222 0.961 . S
C1207 H1223 0.961 . S
C1208 C1209 1.370 . S
C1208 C1210 1.363 . S
C1208 H1224 0.931 . S
C1209 C1208 1.370 . S
C1209 C1213 1.408 . S
C1210 C1208 1.363 . S
C1210 C1211 1.370 1_556 S
C1210 C1214 1.524 1_556 S
C1211 C1203 1.503 . S
C1211 C1210 1.370 1_554 S
C1211 C1212 1.403 . S
C1212 C1211 1.403 . S
C1212 C1213 1.404 1_554 S
C1212 C1215 1.539 . S
C1213 C1209 1.408 . S
C1213 C1212 1.404 1_556 S
C1213 H1225 0.930 . S
C1214 C1210 1.524 1_554 S
C1214 H1226 0.956 . S
C1214 H1227 0.961 . S
C1214 H1228 0.961 1_554 S
C1215 C1212 1.539 . S
C1215 H1229 0.958 . S
C1215 H1230 0.961 . S
C1215 H1231 0.960 . S
H1216 C1200 0.931 . S
H1217 C1205 0.929 . S
H1218 C1206 0.960 . S
H1219 C1206 0.962 . S
H1220 C1206 0.960 . S
H1221 C1207 0.961 . S
H1222 C1207 0.961 . S
H1223 C1207 0.961 . S
H1224 C1208 0.931 . S
H1225 C1213 0.930 . S
H1226 C1214 0.956 . S
H1227 C1214 0.961 . S
H1228 C1214 0.961 1_556 S
H1229 C1215 0.958 . S
H1230 C1215 0.961 . S
H1231 C1215 0.960 . S
C1232 C1233 1.391 . S
C1232 C1234 1.394 . S
C1232 H1248 0.931 . S
C1233 C1232 1.391 . S
C1233 C1237 1.376 . S
C1234 C1232 1.394 . S
C1234 C1235 1.369 . S
C1234 C1238 1.531 . S
C1235 C1234 1.369 . S
C1235 C1236 1.410 . S
C1235 C1243 1.503 . S
C1236 C1235 1.410 . S
C1236 C1237 1.392 . S
C1236 C1239 1.511 . S
C1237 C1233 1.376 . S
C1237 C1236 1.392 . S
C1237 H1249 0.929 . S
C1238 C1234 1.531 . S
C1238 H1250 0.960 . S
C1238 H1251 0.962 . S
C1238 H1252 0.960 . S
C1239 C1236 1.511 . S
C1239 H1253 0.961 . S
C1239 H1254 0.961 . S
C1239 H1255 0.961 . S
C1240 C1241 1.370 . S
C1240 C1242 1.363 . S
C1240 H1256 0.931 . S
C1241 C1240 1.370 . S
C1241 C1245 1.408 . S
C1242 C1240 1.363 . S
C1242 C1243 1.370 . S
C1242 C1246 1.524 . S
C1243 C1235 1.503 . S
C1243 C1242 1.370 . S
C1243 C1244 1.403 . S
C1244 C1243 1.403 . S
C1244 C1245 1.404 . S
C1244 C1247 1.539 . S
C1245 C1241 1.408 . S
C1245 C1244 1.404 . S
C1245 H1257 0.930 . S
C1246 C1242 1.524 . S
C1246 H1258 0.956 . S
C1246 H1259 0.961 . S
C1246 H1260 0.961 . S
C1247 C1244 1.539 . S
C1247 H1261 0.958 . S
C1247 H1262 0.961 . S
C1247 H1263 0.960 . S
H1248 C1232 0.931 . S
H1249 C1237 0.929 . S
H1250 C1238 0.960 . S
H1251 C1238 0.962 . S
H1252 C1238 0.960 . S
H1253 C1239 0.961 . S
H1254 C1239 0.961 . S
H1255 C1239 0.961 . S
H1256 C1240 0.931 . S
H1257 C1245 0.930 . S
H1258 C1246 0.956 . S
H1259 C1246 0.961 . S
H1260 C1246 0.961 . S
H1261 C1247 0.958 . S
H1262 C1247 0.961 . S
H1263 C1247 0.960 . S
C1264 C1265 1.391 . S
C1264 C1266 1.382 1_655 S
C1264 H1280 0.931 . S
C1265 C1264 1.391 . S
C1265 C1269 1.376 . S
C1266 C1264 1.382 1_455 S
C1266 C1267 1.377 . S
C1266 C1270 1.534 . S
C1267 C1266 1.377 . S
C1267 C1268 1.410 . S
C1267 C1275 1.503 . S
C1268 C1267 1.410 . S
C1268 C1269 1.392 1_455 S
C1268 C1271 1.511 . S
C1269 C1265 1.376 . S
C1269 C1268 1.392 1_655 S
C1269 H1281 0.929 . S
C1270 C1266 1.534 . S
C1270 H1282 0.960 . S
C1270 H1283 0.962 . S
C1270 H1284 0.960 1_455 S
C1271 C1268 1.511 . S
C1271 H1285 0.961 . S
C1271 H1286 0.961 . S
C1271 H1287 0.961 . S
C1272 C1273 1.370 . S
C1272 C1274 1.363 . S
C1272 H1288 0.931 . S
C1273 C1272 1.370 . S
C1273 C1277 1.408 . S
C1274 C1272 1.363 . S
C1274 C1275 1.370 . S
C1274 C1278 1.524 . S
C1275 C1267 1.503 . S
C1275 C1274 1.370 . S
C1275 C1276 1.403 . S
C1276 C1275 1.403 . S
C1276 C1277 1.404 . S
C1276 C1279 1.539 . S
C1277 C1273 1.408 . S
C1277 C1276 1.404 . S
C1277 H1289 0.930 . S
C1278 C1274 1.524 . S
C1278 H1290 0.956 . S
C1278 H1291 0.961 . S
C1278 H1292 0.961 . S
C1279 C1276 1.539 . S
C1279 H1293 0.958 . S
C1279 H1294 0.961 . S
C1279 H1295 0.960 . S
H1280 C1264 0.931 . S
H1281 C1269 0.929 . S
H1282 C1270 0.960 . S
H1283 C1270 0.962 . S
H1284 C1270 0.960 1_655 S
H1285 C1271 0.961 . S
H1286 C1271 0.961 . S
H1287 C1271 0.961 . S
H1288 C1272 0.931 . S
H1289 C1277 0.930 . S
H1290 C1278 0.956 . S
H1291 C1278 0.961 . S
H1292 C1278 0.961 . S
H1293 C1279 0.958 . S
H1294 C1279 0.961 . S
H1295 C1279 0.960 . S
C1296 C1297 1.391 . S
C1296 C1298 1.394 1_455 S
C1296 H1312 0.931 . S
C1297 C1296 1.391 . S
C1297 C1301 1.376 . S
C1298 C1296 1.394 1_655 S
C1298 C1299 1.369 . S
C1298 C1302 1.531 . S
C1299 C1298 1.369 . S
C1299 C1300 1.410 . S
C1299 C1307 1.503 . S
C1300 C1299 1.410 . S
C1300 C1301 1.392 1_655 S
C1300 C1303 1.511 . S
C1301 C1297 1.376 . S
C1301 C1300 1.392 1_455 S
C1301 H1313 0.929 . S
C1302 C1298 1.531 . S
C1302 H1314 0.960 . S
C1302 H1315 0.962 . S
C1302 H1316 0.960 . S
C1303 C1300 1.511 . S
C1303 H1317 0.961 1_655 S
C1303 H1318 0.961 . S
C1303 H1319 0.961 . S
C1304 C1305 1.370 . S
C1304 C1306 1.363 . S
C1304 H1320 0.931 . S
C1305 C1304 1.370 . S
C1305 C1309 1.408 . S
C1306 C1304 1.363 . S
C1306 C1307 1.370 . S
C1306 C1310 1.524 . S
C1307 C1299 1.503 . S
C1307 C1306 1.370 . S
C1307 C1308 1.403 . S
C1308 C1307 1.403 . S
C1308 C1309 1.404 . S
C1308 C1311 1.539 . S
C1309 C1305 1.408 . S
C1309 C1308 1.404 . S
C1309 H1321 0.930 . S
C1310 C1306 1.524 . S
C1310 H1322 0.956 . S
C1310 H1323 0.961 . S
C1310 H1324 0.961 . S
C1311 C1308 1.539 . S
C1311 H1325 0.958 . S
C1311 H1326 0.961 . S
C1311 H1327 0.960 . S
H1312 C1296 0.931 . S
H1313 C1301 0.929 . S
H1314 C1302 0.960 . S
H1315 C1302 0.962 . S
H1316 C1302 0.960 . S
H1317 C1303 0.961 1_455 S
H1318 C1303 0.961 . S
H1319 C1303 0.961 . S
H1320 C1304 0.931 . S
H1321 C1309 0.930 . S
H1322 C1310 0.956 . S
H1323 C1310 0.961 . S
H1324 C1310 0.961 . S
H1325 C1311 0.958 . S
H1326 C1311 0.961 . S
H1327 C1311 0.960 . S
C1328 C1329 1.391 . S
C1328 C1330 1.394 . S
C1328 H1344 0.931 . S
C1329 C1328 1.391 . S
C1329 C1333 1.376 . S
C1330 C1328 1.394 . S
C1330 C1331 1.369 . S
C1330 C1334 1.531 . S
C1331 C1330 1.369 . S
C1331 C1332 1.410 . S
C1331 C1339 1.503 . S
C1332 C1331 1.410 . S
C1332 C1333 1.392 . S
C1332 C1335 1.511 . S
C1333 C1329 1.376 . S
C1333 C1332 1.392 . S
C1333 H1345 0.929 . S
C1334 C1330 1.531 . S
C1334 H1346 0.960 . S
C1334 H1347 0.962 . S
C1334 H1348 0.960 . S
C1335 C1332 1.511 . S
C1335 H1349 0.961 . S
C1335 H1350 0.961 . S
C1335 H1351 0.961 . S
C1336 C1337 1.370 . S
C1336 C1338 1.363 . S
C1336 H1352 0.931 . S
C1337 C1336 1.370 . S
C1337 C1341 1.408 . S
C1338 C1336 1.363 . S
C1338 C1339 1.370 . S
C1338 C1342 1.524 . S
C1339 C1331 1.503 . S
C1339 C1338 1.370 . S
C1339 C1340 1.403 . S
C1340 C1339 1.403 . S
C1340 C1341 1.404 . S
C1340 C1343 1.539 . S
C1341 C1337 1.408 . S
C1341 C1340 1.404 . S
C1341 H1353 0.930 . S
C1342 C1338 1.524 . S
C1342 H1354 0.956 . S
C1342 H1355 0.961 . S
C1342 H1356 0.961 . S
C1343 C1340 1.539 . S
C1343 H1357 0.958 . S
C1343 H1358 0.961 . S
C1343 H1359 0.960 . S
H1344 C1328 0.931 . S
H1345 C1333 0.929 . S
H1346 C1334 0.960 . S
H1347 C1334 0.962 . S
H1348 C1334 0.960 . S
H1349 C1335 0.961 . S
H1350 C1335 0.961 . S
H1351 C1335 0.961 . S
H1352 C1336 0.931 . S
H1353 C1341 0.930 . S
H1354 C1342 0.956 . S
H1355 C1342 0.961 . S
H1356 C1342 0.961 . S
H1357 C1343 0.958 . S
H1358 C1343 0.961 . S
H1359 C1343 0.960 . S
C1360 C1361 1.391 . S
C1360 C1362 1.394 . S
C1360 H1376 0.931 . S
C1361 C1360 1.391 . S
C1361 C1365 1.376 . S
C1362 C1360 1.394 . S
C1362 C1363 1.369 . S
C1362 C1366 1.531 . S
C1363 C1362 1.369 . S
C1363 C1364 1.410 . S
C1363 C1371 1.503 . S
C1364 C1363 1.410 . S
C1364 C1365 1.392 . S
C1364 C1367 1.511 . S
C1365 C1361 1.376 . S
C1365 C1364 1.392 . S
C1365 H1377 0.929 . S
C1366 C1362 1.531 . S
C1366 H1378 0.960 . S
C1366 H1379 0.962 . S
C1366 H1380 0.960 . S
C1367 C1364 1.511 . S
C1367 H1381 0.961 . S
C1367 H1382 0.961 . S
C1367 H1383 0.961 . S
C1368 C1369 1.370 . S
C1368 C1370 1.363 . S
C1368 H1384 0.931 . S
C1369 C1368 1.370 . S
C1369 C1373 1.408 . S
C1370 C1368 1.363 . S
C1370 C1371 1.370 . S
C1370 C1374 1.524 . S
C1371 C1363 1.503 . S
C1371 C1370 1.370 . S
C1371 C1372 1.403 . S
C1372 C1371 1.403 . S
C1372 C1373 1.404 . S
C1372 C1375 1.539 . S
C1373 C1369 1.408 . S
C1373 C1372 1.404 . S
C1373 H1385 0.930 . S
C1374 C1370 1.524 . S
C1374 H1386 0.956 . S
C1374 H1387 0.961 . S
C1374 H1388 0.961 . S
C1375 C1372 1.539 . S
C1375 H1389 0.958 . S
C1375 H1390 0.961 . S
C1375 H1391 0.960 . S
H1376 C1360 0.931 . S
H1377 C1365 0.929 . S
H1378 C1366 0.960 . S
H1379 C1366 0.962 . S
H1380 C1366 0.960 . S
H1381 C1367 0.961 . S
H1382 C1367 0.961 . S
H1383 C1367 0.961 . S
H1384 C1368 0.931 . S
H1385 C1373 0.930 . S
H1386 C1374 0.956 . S
H1387 C1374 0.961 . S
H1388 C1374 0.961 . S
H1389 C1375 0.958 . S
H1390 C1375 0.961 . S
H1391 C1375 0.960 . S
C1392 C1393 1.391 . S
C1392 C1394 1.394 . S
C1392 H1408 0.931 . S
C1393 C1392 1.391 . S
C1393 C1397 1.376 . S
C1394 C1392 1.394 . S
C1394 C1395 1.369 1_565 S
C1394 C1398 1.531 1_565 S
C1395 C1394 1.369 1_545 S
C1395 C1396 1.410 1_545 S
C1395 C1403 1.503 . S
C1396 C1395 1.410 1_565 S
C1396 C1397 1.392 . S
C1396 C1399 1.511 1_565 S
C1397 C1393 1.376 . S
C1397 C1396 1.392 . S
C1397 H1409 0.929 . S
C1398 C1394 1.531 1_545 S
C1398 H1410 0.960 . S
C1398 H1411 0.962 . S
C1398 H1412 0.960 1_545 S
C1399 C1396 1.511 1_545 S
C1399 H1413 0.961 . S
C1399 H1414 0.961 . S
C1399 H1415 0.961 . S
C1400 C1401 1.370 . S
C1400 C1402 1.363 . S
C1400 H1416 0.931 . S
C1401 C1400 1.370 . S
C1401 C1405 1.408 . S
C1402 C1400 1.363 . S
C1402 C1403 1.370 . S
C1402 C1406 1.524 . S
C1403 C1395 1.503 . S
C1403 C1402 1.370 . S
C1403 C1404 1.403 . S
C1404 C1403 1.403 . S
C1404 C1405 1.404 . S
C1404 C1407 1.539 . S
C1405 C1401 1.408 . S
C1405 C1404 1.404 . S
C1405 H1417 0.930 . S
C1406 C1402 1.524 . S
C1406 H1418 0.956 . S
C1406 H1419 0.961 . S
C1406 H1420 0.961 . S
C1407 C1404 1.539 . S
C1407 H1421 0.958 . S
C1407 H1422 0.961 . S
C1407 H1423 0.960 . S
H1408 C1392 0.931 . S
H1409 C1397 0.929 . S
H1410 C1398 0.960 . S
H1411 C1398 0.962 . S
H1412 C1398 0.960 1_565 S
H1413 C1399 0.961 . S
H1414 C1399 0.961 . S
H1415 C1399 0.961 . S
H1416 C1400 0.931 . S
H1417 C1405 0.930 . S
H1418 C1406 0.956 . S
H1419 C1406 0.961 . S
H1420 C1406 0.961 . S
H1421 C1407 0.958 . S
H1422 C1407 0.961 . S
H1423 C1407 0.960 . S
C1424 C1425 1.391 . S
C1424 C1426 1.373 1_545 S
C1424 H1440 0.931 . S
C1425 C1424 1.391 . S
C1425 C1429 1.376 . S
C1426 C1424 1.373 1_565 S
C1426 C1427 1.377 . S
C1426 C1430 1.544 . S
C1427 C1426 1.377 . S
C1427 C1428 1.410 1_565 S
C1427 C1435 1.503 . S
C1428 C1427 1.410 1_545 S
C1428 C1429 1.392 . S
C1428 C1431 1.511 1_545 S
C1429 C1425 1.376 . S
C1429 C1428 1.392 . S
C1429 H1441 0.929 . S
C1430 C1426 1.544 . S
C1430 H1442 0.960 . S
C1430 H1443 0.962 . S
C1430 H1444 0.960 . S
C1431 C1428 1.511 1_565 S
C1431 H1445 0.961 1_565 S
C1431 H1446 0.961 . S
C1431 H1447 0.962 . S
C1432 C1433 1.370 . S
C1432 C1434 1.363 . S
C1432 H1448 0.931 . S
C1433 C1432 1.370 . S
C1433 C1437 1.408 . S
C1434 C1432 1.363 . S
C1434 C1435 1.370 . S
C1434 C1438 1.524 . S
C1435 C1427 1.503 . S
C1435 C1434 1.370 . S
C1435 C1436 1.403 . S
C1436 C1435 1.403 . S
C1436 C1437 1.404 . S
C1436 C1439 1.539 . S
C1437 C1433 1.408 . S
C1437 C1436 1.404 . S
C1437 H1449 0.930 . S
C1438 C1434 1.524 . S
C1438 H1450 0.956 . S
C1438 H1451 0.961 . S
C1438 H1452 0.961 . S
C1439 C1436 1.539 . S
C1439 H1453 0.958 . S
C1439 H1454 0.961 . S
C1439 H1455 0.960 . S
H1440 C1424 0.931 . S
H1441 C1429 0.929 . S
H1442 C1430 0.960 . S
H1443 C1430 0.962 . S
H1444 C1430 0.960 . S
H1445 C1431 0.961 1_545 S
H1446 C1431 0.961 . S
H1447 C1431 0.962 . S
H1448 C1432 0.931 . S
H1449 C1437 0.930 . S
H1450 C1438 0.956 . S
H1451 C1438 0.961 . S
H1452 C1438 0.961 . S
H1453 C1439 0.958 . S
H1454 C1439 0.961 . S
H1455 C1439 0.960 . S
C1456 C1457 1.391 . S
C1456 C1458 1.394 . S
C1456 H1472 0.931 . S
C1457 C1456 1.391 . S
C1457 C1461 1.376 . S
C1458 C1456 1.394 . S
C1458 C1459 1.369 . S
C1458 C1462 1.531 . S
C1459 C1458 1.369 . S
C1459 C1460 1.410 . S
C1459 C1467 1.503 . S
C1460 C1459 1.410 . S
C1460 C1461 1.392 . S
C1460 C1463 1.511 . S
C1461 C1457 1.376 . S
C1461 C1460 1.392 . S
C1461 H1473 0.929 . S
C1462 C1458 1.531 . S
C1462 H1474 0.960 . S
C1462 H1475 0.962 . S
C1462 H1476 0.960 . S
C1463 C1460 1.511 . S
C1463 H1477 0.961 . S
C1463 H1478 0.961 . S
C1463 H1479 0.961 . S
C1464 C1465 1.370 . S
C1464 C1466 1.363 . S
C1464 H1480 0.931 . S
C1465 C1464 1.370 . S
C1465 C1469 1.408 . S
C1466 C1464 1.363 . S
C1466 C1467 1.370 . S
C1466 C1470 1.524 . S
C1467 C1459 1.503 . S
C1467 C1466 1.370 . S
C1467 C1468 1.403 . S
C1468 C1467 1.403 . S
C1468 C1469 1.404 . S
C1468 C1471 1.539 . S
C1469 C1465 1.408 . S
C1469 C1468 1.404 . S
C1469 H1481 0.930 . S
C1470 C1466 1.524 . S
C1470 H1482 0.956 . S
C1470 H1483 0.961 . S
C1470 H1484 0.961 . S
C1471 C1468 1.539 . S
C1471 H1485 0.958 . S
C1471 H1486 0.961 . S
C1471 H1487 0.960 . S
H1472 C1456 0.931 . S
H1473 C1461 0.929 . S
H1474 C1462 0.960 . S
H1475 C1462 0.962 . S
H1476 C1462 0.960 . S
H1477 C1463 0.961 . S
H1478 C1463 0.961 . S
H1479 C1463 0.961 . S
H1480 C1464 0.931 . S
H1481 C1469 0.930 . S
H1482 C1470 0.956 . S
H1483 C1470 0.961 . S
H1484 C1470 0.961 . S
H1485 C1471 0.958 . S
H1486 C1471 0.961 . S
H1487 C1471 0.960 . S
C1488 C1489 1.391 . S
C1488 C1490 1.394 . S
C1488 H1504 0.931 . S
C1489 C1488 1.391 . S
C1489 C1493 1.376 . S
C1490 C1488 1.394 . S
C1490 C1491 1.369 . S
C1490 C1494 1.531 . S
C1491 C1490 1.369 . S
C1491 C1492 1.410 . S
C1491 C1499 1.503 . S
C1492 C1491 1.410 . S
C1492 C1493 1.392 . S
C1492 C1495 1.511 . S
C1493 C1489 1.376 . S
C1493 C1492 1.392 . S
C1493 H1505 0.929 . S
C1494 C1490 1.531 . S
C1494 H1506 0.960 . S
C1494 H1507 0.962 . S
C1494 H1508 0.960 . S
C1495 C1492 1.511 . S
C1495 H1509 0.961 . S
C1495 H1510 0.961 . S
C1495 H1511 0.961 . S
C1496 C1497 1.370 . S
C1496 C1498 1.363 . S
C1496 H1512 0.931 . S
C1497 C1496 1.370 . S
C1497 C1501 1.408 . S
C1498 C1496 1.363 . S
C1498 C1499 1.370 . S
C1498 C1502 1.524 . S
C1499 C1491 1.503 . S
C1499 C1498 1.370 . S
C1499 C1500 1.403 . S
C1500 C1499 1.403 . S
C1500 C1501 1.404 . S
C1500 C1503 1.539 . S
C1501 C1497 1.408 . S
C1501 C1500 1.404 . S
C1501 H1513 0.930 . S
C1502 C1498 1.524 . S
C1502 H1514 0.956 . S
C1502 H1515 0.961 . S
C1502 H1516 0.961 . S
C1503 C1500 1.539 . S
C1503 H1517 0.958 . S
C1503 H1518 0.961 . S
C1503 H1519 0.960 . S
H1504 C1488 0.931 . S
H1505 C1493 0.929 . S
H1506 C1494 0.960 . S
H1507 C1494 0.962 . S
H1508 C1494 0.960 . S
H1509 C1495 0.961 . S
H1510 C1495 0.961 . S
H1511 C1495 0.961 . S
H1512 C1496 0.931 . S
H1513 C1501 0.930 . S
H1514 C1502 0.956 . S
H1515 C1502 0.961 . S
H1516 C1502 0.961 . S
H1517 C1503 0.958 . S
H1518 C1503 0.961 . S
H1519 C1503 0.960 . S
C1520 C1521 1.391 . S
C1520 C1522 1.394 1_556 S
C1520 H1536 0.931 . S
C1521 C1520 1.391 . S
C1521 C1525 1.376 . S
C1522 C1520 1.394 1_554 S
C1522 C1523 1.369 . S
C1522 C1526 1.531 . S
C1523 C1522 1.369 . S
C1523 C1524 1.410 . S
C1523 C1531 1.503 . S
C1524 C1523 1.410 . S
C1524 C1525 1.392 1_554 S
C1524 C1527 1.511 . S
C1525 C1521 1.376 . S
C1525 C1524 1.392 1_556 S
C1525 H1537 0.929 . S
C1526 C1522 1.531 . S
C1526 H1538 0.960 . S
C1526 H1539 0.962 . S
C1526 H1540 0.960 . S
C1527 C1524 1.511 . S
C1527 H1541 0.961 . S
C1527 H1542 0.961 . S
C1527 H1543 0.961 . S
C1528 C1529 1.370 . S
C1528 C1530 1.363 . S
C1528 H1544 0.931 . S
C1529 C1528 1.370 . S
C1529 C1533 1.408 . S
C1530 C1528 1.363 . S
C1530 C1531 1.370 . S
C1530 C1534 1.524 . S
C1531 C1523 1.503 . S
C1531 C1530 1.370 . S
C1531 C1532 1.403 . S
C1532 C1531 1.403 . S
C1532 C1533 1.404 . S
C1532 C1535 1.539 . S
C1533 C1529 1.408 . S
C1533 C1532 1.404 . S
C1533 H1545 0.930 . S
C1534 C1530 1.524 . S
C1534 H1546 0.956 . S
C1534 H1547 0.961 . S
C1534 H1548 0.961 . S
C1535 C1532 1.539 . S
C1535 H1549 0.958 . S
C1535 H1550 0.961 . S
C1535 H1551 0.960 . S
H1536 C1520 0.931 . S
H1537 C1525 0.929 . S
H1538 C1526 0.960 . S
H1539 C1526 0.962 . S
H1540 C1526 0.960 . S
H1541 C1527 0.961 . S
H1542 C1527 0.961 . S
H1543 C1527 0.961 . S
H1544 C1528 0.931 . S
H1545 C1533 0.930 . S
H1546 C1534 0.956 . S
H1547 C1534 0.961 . S
H1548 C1534 0.961 . S
H1549 C1535 0.958 . S
H1550 C1535 0.961 . S
H1551 C1535 0.960 . S
C1552 C1553 1.391 . S
C1552 C1554 1.394 . S
C1552 H1568 0.931 . S
C1553 C1552 1.391 . S
C1553 C1557 1.376 . S
C1554 C1552 1.394 . S
C1554 C1555 1.369 . S
C1554 C1558 1.531 . S
C1555 C1554 1.369 . S
C1555 C1556 1.410 . S
C1555 C1563 1.503 . S
C1556 C1555 1.410 . S
C1556 C1557 1.392 . S
C1556 C1559 1.511 . S
C1557 C1553 1.376 . S
C1557 C1556 1.392 . S
C1557 H1569 0.929 . S
C1558 C1554 1.531 . S
C1558 H1570 0.960 . S
C1558 H1571 0.962 . S
C1558 H1572 0.960 . S
C1559 C1556 1.511 . S
C1559 H1573 0.961 . S
C1559 H1574 0.961 . S
C1559 H1575 0.961 . S
C1560 C1561 1.370 . S
C1560 C1562 1.363 . S
C1560 H1576 0.931 . S
C1561 C1560 1.370 . S
C1561 C1565 1.408 . S
C1562 C1560 1.363 . S
C1562 C1563 1.370 . S
C1562 C1566 1.524 . S
C1563 C1555 1.503 . S
C1563 C1562 1.370 . S
C1563 C1564 1.403 . S
C1564 C1563 1.403 . S
C1564 C1565 1.404 . S
C1564 C1567 1.539 . S
C1565 C1561 1.408 . S
C1565 C1564 1.404 . S
C1565 H1577 0.930 . S
C1566 C1562 1.524 . S
C1566 H1578 0.956 . S
C1566 H1579 0.961 . S
C1566 H1580 0.961 . S
C1567 C1564 1.539 . S
C1567 H1581 0.958 . S
C1567 H1582 0.961 . S
C1567 H1583 0.960 . S
H1568 C1552 0.931 . S
H1569 C1557 0.929 . S
H1570 C1558 0.960 . S
H1571 C1558 0.962 . S
H1572 C1558 0.960 . S
H1573 C1559 0.961 . S
H1574 C1559 0.961 . S
H1575 C1559 0.961 . S
H1576 C1560 0.931 . S
H1577 C1565 0.930 . S
H1578 C1566 0.956 . S
H1579 C1566 0.961 . S
H1580 C1566 0.961 . S
H1581 C1567 0.958 . S
H1582 C1567 0.961 . S
H1583 C1567 0.960 . S
C1584 C1585 1.391 . S
C1584 C1586 1.396 . S
C1584 H1600 0.931 . S
C1585 C1584 1.391 . S
C1585 C1589 1.376 . S
C1586 C1584 1.396 . S
C1586 C1587 1.367 1_554 S
C1586 C1590 1.530 1_554 S
C1587 C1586 1.367 1_556 S
C1587 C1588 1.410 . S
C1587 C1595 1.503 . S
C1588 C1587 1.410 . S
C1588 C1589 1.392 1_556 S
C1588 C1591 1.511 . S
C1589 C1585 1.376 . S
C1589 C1588 1.392 1_554 S
C1589 H1601 0.929 . S
C1590 C1586 1.530 1_556 S
C1590 H1602 0.960 . S
C1590 H1603 0.962 . S
C1590 H1604 0.960 1_556 S
C1591 C1588 1.511 . S
C1591 H1605 0.961 . S
C1591 H1606 0.961 . S
C1591 H1607 0.961 . S
C1592 C1593 1.370 . S
C1592 C1594 1.363 . S
C1592 H1608 0.931 . S
C1593 C1592 1.370 . S
C1593 C1597 1.408 . S
C1594 C1592 1.363 . S
C1594 C1595 1.370 . S
C1594 C1598 1.524 . S
C1595 C1587 1.503 . S
C1595 C1594 1.370 . S
C1595 C1596 1.403 . S
C1596 C1595 1.403 . S
C1596 C1597 1.404 . S
C1596 C1599 1.539 . S
C1597 C1593 1.408 . S
C1597 C1596 1.404 . S
C1597 H1609 0.930 . S
C1598 C1594 1.524 . S
C1598 H1610 0.956 . S
C1598 H1611 0.961 . S
C1598 H1612 0.961 . S
C1599 C1596 1.539 . S
C1599 H1613 0.958 . S
C1599 H1614 0.961 . S
C1599 H1615 0.960 . S
H1600 C1584 0.931 . S
H1601 C1589 0.929 . S
H1602 C1590 0.960 . S
H1603 C1590 0.962 . S
H1604 C1590 0.960 1_554 S
H1605 C1591 0.961 . S
H1606 C1591 0.961 . S
H1607 C1591 0.961 . S
H1608 C1592 0.931 . S
H1609 C1597 0.930 . S
H1610 C1598 0.956 . S
H1611 C1598 0.961 . S
H1612 C1598 0.961 . S
H1613 C1599 0.958 . S
H1614 C1599 0.961 . S
H1615 C1599 0.960 . S
C1616 C1617 1.391 . S
C1616 C1618 1.394 . S
C1616 H1632 0.931 . S
C1617 C1616 1.391 . S
C1617 C1621 1.376 . S
C1618 C1616 1.394 . S
C1618 C1619 1.369 . S
C1618 C1622 1.531 . S
C1619 C1618 1.369 . S
C1619 C1620 1.410 . S
C1619 C1627 1.503 . S
C1620 C1619 1.410 . S
C1620 C1621 1.392 . S
C1620 C1623 1.511 . S
C1621 C1617 1.376 . S
C1621 C1620 1.392 . S
C1621 H1633 0.929 . S
C1622 C1618 1.531 . S
C1622 H1634 0.960 . S
C1622 H1635 0.962 . S
C1622 H1636 0.960 . S
C1623 C1620 1.511 . S
C1623 H1637 0.961 . S
C1623 H1638 0.961 . S
C1623 H1639 0.961 . S
C1624 C1625 1.370 . S
C1624 C1626 1.363 . S
C1624 H1640 0.931 . S
C1625 C1624 1.370 . S
C1625 C1629 1.408 . S
C1626 C1624 1.363 . S
C1626 C1627 1.370 . S
C1626 C1630 1.524 . S
C1627 C1619 1.503 . S
C1627 C1626 1.370 . S
C1627 C1628 1.403 . S
C1628 C1627 1.403 . S
C1628 C1629 1.404 . S
C1628 C1631 1.539 . S
C1629 C1625 1.408 . S
C1629 C1628 1.404 . S
C1629 H1641 0.930 . S
C1630 C1626 1.524 . S
C1630 H1642 0.956 . S
C1630 H1643 0.961 . S
C1630 H1644 0.961 . S
C1631 C1628 1.539 . S
C1631 H1645 0.958 . S
C1631 H1646 0.961 . S
C1631 H1647 0.960 . S
H1632 C1616 0.931 . S
H1633 C1621 0.929 . S
H1634 C1622 0.960 . S
H1635 C1622 0.962 . S
H1636 C1622 0.960 . S
H1637 C1623 0.961 . S
H1638 C1623 0.961 . S
H1639 C1623 0.961 . S
H1640 C1624 0.931 . S
H1641 C1629 0.930 . S
H1642 C1630 0.956 . S
H1643 C1630 0.961 . S
H1644 C1630 0.961 . S
H1645 C1631 0.958 . S
H1646 C1631 0.961 . S
H1647 C1631 0.960 . S
C1648 C1649 1.391 . S
C1648 C1650 1.394 . S
C1648 H1664 0.931 . S
C1649 C1648 1.391 . S
C1649 C1653 1.376 . S
C1650 C1648 1.394 . S
C1650 C1651 1.369 . S
C1650 C1654 1.531 . S
C1651 C1650 1.369 . S
C1651 C1652 1.410 . S
C1651 C1659 1.503 . S
C1652 C1651 1.410 . S
C1652 C1653 1.392 . S
C1652 C1655 1.511 . S
C1653 C1649 1.376 . S
C1653 C1652 1.392 . S
C1653 H1665 0.929 . S
C1654 C1650 1.531 . S
C1654 H1666 0.960 . S
C1654 H1667 0.962 . S
C1654 H1668 0.960 . S
C1655 C1652 1.511 . S
C1655 H1669 0.961 . S
C1655 H1670 0.961 . S
C1655 H1671 0.961 . S
C1656 C1657 1.370 . S
C1656 C1658 1.381 . S
C1656 H1672 0.931 . S
C1657 C1656 1.370 . S
C1657 C1661 1.408 . S
C1658 C1656 1.381 . S
C1658 C1659 1.363 1_455 S
C1658 C1662 1.514 1_455 S
C1659 C1651 1.503 . S
C1659 C1658 1.363 1_655 S
C1659 C1660 1.403 1_655 S
C1660 C1659 1.403 1_455 S
C1660 C1661 1.404 . S
C1660 C1663 1.539 1_455 S
C1661 C1657 1.408 . S
C1661 C1660 1.404 . S
C1661 H1673 0.930 . S
C1662 C1658 1.514 1_655 S
C1662 H1674 0.956 . S
C1662 H1675 0.961 . S
C1662 H1676 0.961 . S
C1663 C1660 1.539 1_655 S
C1663 H1677 0.958 . S
C1663 H1678 0.961 1_655 S
C1663 H1679 0.960 . S
H1664 C1648 0.931 . S
H1665 C1653 0.929 . S
H1666 C1654 0.960 . S
H1667 C1654 0.962 . S
H1668 C1654 0.960 . S
H1669 C1655 0.961 . S
H1670 C1655 0.961 . S
H1671 C1655 0.961 . S
H1672 C1656 0.931 . S
H1673 C1661 0.930 . S
H1674 C1662 0.956 . S
H1675 C1662 0.961 . S
H1676 C1662 0.961 . S
H1677 C1663 0.958 . S
H1678 C1663 0.961 1_455 S
H1679 C1663 0.960 . S
C1680 C1681 1.391 . S
C1680 C1682 1.394 . S
C1680 H1696 0.931 . S
C1681 C1680 1.391 . S
C1681 C1685 1.376 . S
C1682 C1680 1.394 . S
C1682 C1683 1.369 . S
C1682 C1686 1.531 . S
C1683 C1682 1.369 . S
C1683 C1684 1.410 . S
C1683 C1691 1.503 . S
C1684 C1683 1.410 . S
C1684 C1685 1.392 . S
C1684 C1687 1.511 . S
C1685 C1681 1.376 . S
C1685 C1684 1.392 . S
C1685 H1697 0.929 . S
C1686 C1682 1.531 . S
C1686 H1698 0.960 . S
C1686 H1699 0.962 . S
C1686 H1700 0.960 . S
C1687 C1684 1.511 . S
C1687 H1701 0.961 . S
C1687 H1702 0.961 . S
C1687 H1703 0.961 . S
C1688 C1689 1.370 . S
C1688 C1690 1.363 . S
C1688 H1704 0.931 . S
C1689 C1688 1.370 . S
C1689 C1693 1.408 . S
C1690 C1688 1.363 . S
C1690 C1691 1.370 1_655 S
C1690 C1694 1.524 1_655 S
C1691 C1683 1.503 . S
C1691 C1690 1.370 1_455 S
C1691 C1692 1.403 1_455 S
C1692 C1691 1.403 1_655 S
C1692 C1693 1.404 . S
C1692 C1695 1.539 1_655 S
C1693 C1689 1.408 . S
C1693 C1692 1.404 . S
C1693 H1705 0.930 . S
C1694 C1690 1.524 1_455 S
C1694 H1706 0.956 . S
C1694 H1707 0.961 . S
C1694 H1708 0.961 1_455 S
C1695 C1692 1.539 1_455 S
C1695 H1709 0.958 . S
C1695 H1710 0.961 . S
C1695 H1711 0.960 . S
H1696 C1680 0.931 . S
H1697 C1685 0.929 . S
H1698 C1686 0.960 . S
H1699 C1686 0.962 . S
H1700 C1686 0.960 . S
H1701 C1687 0.961 . S
H1702 C1687 0.961 . S
H1703 C1687 0.961 . S
H1704 C1688 0.931 . S
H1705 C1693 0.930 . S
H1706 C1694 0.956 . S
H1707 C1694 0.961 . S
H1708 C1694 0.961 1_655 S
H1709 C1695 0.958 . S
H1710 C1695 0.961 . S
H1711 C1695 0.960 . S
C1712 C1713 1.391 . S
C1712 C1714 1.394 . S
C1712 H1728 0.931 . S
C1713 C1712 1.391 . S
C1713 C1717 1.376 . S
C1714 C1712 1.394 . S
C1714 C1715 1.369 . S
C1714 C1718 1.531 . S
C1715 C1714 1.369 . S
C1715 C1716 1.410 . S
C1715 C1723 1.503 . S
C1716 C1715 1.410 . S
C1716 C1717 1.392 . S
C1716 C1719 1.511 . S
C1717 C1713 1.376 . S
C1717 C1716 1.392 . S
C1717 H1729 0.929 . S
C1718 C1714 1.531 . S
C1718 H1730 0.960 . S
C1718 H1731 0.962 . S
C1718 H1732 0.960 . S
C1719 C1716 1.511 . S
C1719 H1733 0.961 . S
C1719 H1734 0.961 . S
C1719 H1735 0.961 . S
C1720 C1721 1.370 . S
C1720 C1722 1.363 . S
C1720 H1736 0.931 . S
C1721 C1720 1.370 . S
C1721 C1725 1.408 . S
C1722 C1720 1.363 . S
C1722 C1723 1.370 . S
C1722 C1726 1.524 . S
C1723 C1715 1.503 . S
C1723 C1722 1.370 . S
C1723 C1724 1.403 . S
C1724 C1723 1.403 . S
C1724 C1725 1.404 . S
C1724 C1727 1.539 . S
C1725 C1721 1.408 . S
C1725 C1724 1.404 . S
C1725 H1737 0.930 . S
C1726 C1722 1.524 . S
C1726 H1738 0.956 . S
C1726 H1739 0.961 . S
C1726 H1740 0.961 . S
C1727 C1724 1.539 . S
C1727 H1741 0.958 . S
C1727 H1742 0.961 . S
C1727 H1743 0.960 . S
H1728 C1712 0.931 . S
H1729 C1717 0.929 . S
H1730 C1718 0.960 . S
H1731 C1718 0.962 . S
H1732 C1718 0.960 . S
H1733 C1719 0.961 . S
H1734 C1719 0.961 . S
H1735 C1719 0.961 . S
H1736 C1720 0.931 . S
H1737 C1725 0.930 . S
H1738 C1726 0.956 . S
H1739 C1726 0.961 . S
H1740 C1726 0.961 . S
H1741 C1727 0.958 . S
H1742 C1727 0.961 . S
H1743 C1727 0.960 . S
C1744 C1745 1.391 . S
C1744 C1746 1.394 . S
C1744 H1760 0.931 . S
C1745 C1744 1.391 . S
C1745 C1749 1.376 . S
C1746 C1744 1.394 . S
C1746 C1747 1.369 . S
C1746 C1750 1.531 . S
C1747 C1746 1.369 . S
C1747 C1748 1.410 . S
C1747 C1755 1.503 . S
C1748 C1747 1.410 . S
C1748 C1749 1.392 . S
C1748 C1751 1.511 . S
C1749 C1745 1.376 . S
C1749 C1748 1.392 . S
C1749 H1761 0.929 . S
C1750 C1746 1.531 . S
C1750 H1762 0.960 . S
C1750 H1763 0.962 . S
C1750 H1764 0.960 . S
C1751 C1748 1.511 . S
C1751 H1765 0.961 . S
C1751 H1766 0.961 . S
C1751 H1767 0.961 . S
C1752 C1753 1.370 . S
C1752 C1754 1.363 . S
C1752 H1768 0.931 . S
C1753 C1752 1.370 . S
C1753 C1757 1.408 . S
C1754 C1752 1.363 . S
C1754 C1755 1.370 . S
C1754 C1758 1.524 . S
C1755 C1747 1.503 . S
C1755 C1754 1.370 . S
C1755 C1756 1.403 . S
C1756 C1755 1.403 . S
C1756 C1757 1.404 . S
C1756 C1759 1.539 . S
C1757 C1753 1.408 . S
C1757 C1756 1.404 . S
C1757 H1769 0.930 . S
C1758 C1754 1.524 . S
C1758 H1770 0.956 . S
C1758 H1771 0.961 . S
C1758 H1772 0.961 . S
C1759 C1756 1.539 . S
C1759 H1773 0.958 . S
C1759 H1774 0.961 . S
C1759 H1775 0.960 . S
H1760 C1744 0.931 . S
H1761 C1749 0.929 . S
H1762 C1750 0.960 . S
H1763 C1750 0.962 . S
H1764 C1750 0.960 . S
H1765 C1751 0.961 . S
H1766 C1751 0.961 . S
H1767 C1751 0.961 . S
H1768 C1752 0.931 . S
H1769 C1757 0.930 . S
H1770 C1758 0.956 . S
H1771 C1758 0.961 . S
H1772 C1758 0.961 . S
H1773 C1759 0.958 . S
H1774 C1759 0.961 . S
H1775 C1759 0.960 . S
C1776 C1777 1.391 . S
C1776 C1778 1.394 . S
C1776 H1792 0.931 . S
C1777 C1776 1.391 . S
C1777 C1781 1.376 . S
C1778 C1776 1.394 . S
C1778 C1779 1.369 . S
C1778 C1782 1.531 . S
C1779 C1778 1.369 . S
C1779 C1780 1.410 . S
C1779 C1787 1.503 . S
C1780 C1779 1.410 . S
C1780 C1781 1.392 . S
C1780 C1783 1.511 . S
C1781 C1777 1.376 . S
C1781 C1780 1.392 . S
C1781 H1793 0.929 . S
C1782 C1778 1.531 . S
C1782 H1794 0.960 . S
C1782 H1795 0.962 . S
C1782 H1796 0.960 . S
C1783 C1780 1.511 . S
C1783 H1797 0.961 . S
C1783 H1798 0.961 . S
C1783 H1799 0.961 . S
C1784 C1785 1.370 . S
C1784 C1786 1.363 . S
C1784 H1800 0.931 . S
C1785 C1784 1.370 . S
C1785 C1789 1.408 . S
C1786 C1784 1.363 . S
C1786 C1787 1.370 1_545 S
C1786 C1790 1.524 1_545 S
C1787 C1779 1.503 . S
C1787 C1786 1.370 1_565 S
C1787 C1788 1.403 . S
C1788 C1787 1.403 . S
C1788 C1789 1.404 1_565 S
C1788 C1791 1.539 . S
C1789 C1785 1.408 . S
C1789 C1788 1.404 1_545 S
C1789 H1801 0.930 . S
C1790 C1786 1.524 1_565 S
C1790 H1802 0.956 . S
C1790 H1803 0.961 . S
C1790 H1804 0.961 1_565 S
C1791 C1788 1.539 . S
C1791 H1805 0.958 . S
C1791 H1806 0.961 . S
C1791 H1807 0.960 . S
H1792 C1776 0.931 . S
H1793 C1781 0.929 . S
H1794 C1782 0.960 . S
H1795 C1782 0.962 . S
H1796 C1782 0.960 . S
H1797 C1783 0.961 . S
H1798 C1783 0.961 . S
H1799 C1783 0.961 . S
H1800 C1784 0.931 . S
H1801 C1789 0.930 . S
H1802 C1790 0.956 . S
H1803 C1790 0.961 . S
H1804 C1790 0.961 1_545 S
H1805 C1791 0.958 . S
H1806 C1791 0.961 . S
H1807 C1791 0.960 . S
C1808 C1809 1.391 . S
C1808 C1810 1.394 . S
C1808 H1824 0.931 . S
C1809 C1808 1.391 . S
C1809 C1813 1.376 . S
C1810 C1808 1.394 . S
C1810 C1811 1.369 1_565 S
C1810 C1814 1.531 1_565 S
C1811 C1810 1.369 1_545 S
C1811 C1812 1.410 . S
C1811 C1819 1.503 . S
C1812 C1811 1.410 . S
C1812 C1813 1.392 1_545 S
C1812 C1815 1.511 . S
C1813 C1809 1.376 . S
C1813 C1812 1.392 1_565 S
C1813 H1825 0.929 . S
C1814 C1810 1.531 1_545 S
C1814 H1826 0.960 . S
C1814 H1827 0.962 . S
C1814 H1828 0.960 1_545 S
C1815 C1812 1.511 . S
C1815 H1829 0.961 . S
C1815 H1830 0.961 . S
C1815 H1831 0.961 . S
C1816 C1817 1.370 . S
C1816 C1818 1.363 . S
C1816 H1832 0.931 . S
C1817 C1816 1.370 . S
C1817 C1821 1.408 . S
C1818 C1816 1.363 . S
C1818 C1819 1.370 . S
C1818 C1822 1.524 . S
C1819 C1811 1.503 . S
C1819 C1818 1.370 . S
C1819 C1820 1.403 . S
C1820 C1819 1.403 . S
C1820 C1821 1.404 . S
C1820 C1823 1.539 . S
C1821 C1817 1.408 . S
C1821 C1820 1.404 . S
C1821 H1833 0.930 . S
C1822 C1818 1.524 . S
C1822 H1834 0.956 . S
C1822 H1835 0.961 . S
C1822 H1836 0.961 . S
C1823 C1820 1.539 . S
C1823 H1837 0.958 . S
C1823 H1838 0.961 . S
C1823 H1839 0.960 . S
H1824 C1808 0.931 . S
H1825 C1813 0.929 . S
H1826 C1814 0.960 . S
H1827 C1814 0.962 . S
H1828 C1814 0.960 1_565 S
H1829 C1815 0.961 . S
H1830 C1815 0.961 . S
H1831 C1815 0.961 . S
H1832 C1816 0.931 . S
H1833 C1821 0.930 . S
H1834 C1822 0.956 . S
H1835 C1822 0.961 . S
H1836 C1822 0.961 . S
H1837 C1823 0.958 . S
H1838 C1823 0.961 . S
H1839 C1823 0.960 . S
C1840 C1841 1.391 . S
C1840 C1842 1.394 . S
C1840 H1856 0.931 . S
C1841 C1840 1.391 . S
C1841 C1845 1.376 . S
C1842 C1840 1.394 . S
C1842 C1843 1.369 . S
C1842 C1846 1.531 . S
C1843 C1842 1.369 . S
C1843 C1844 1.410 . S
C1843 C1851 1.503 . S
C1844 C1843 1.410 . S
C1844 C1845 1.392 . S
C1844 C1847 1.511 . S
C1845 C1841 1.376 . S
C1845 C1844 1.392 . S
C1845 H1857 0.929 . S
C1846 C1842 1.531 . S
C1846 H1858 0.960 . S
C1846 H1859 0.962 . S
C1846 H1860 0.960 . S
C1847 C1844 1.511 . S
C1847 H1861 0.961 . S
C1847 H1862 0.961 . S
C1847 H1863 0.961 . S
C1848 C1849 1.370 . S
C1848 C1850 1.363 . S
C1848 H1864 0.931 . S
C1849 C1848 1.370 . S
C1849 C1853 1.408 . S
C1850 C1848 1.363 . S
C1850 C1851 1.370 . S
C1850 C1854 1.524 . S
C1851 C1843 1.503 . S
C1851 C1850 1.370 . S
C1851 C1852 1.403 . S
C1852 C1851 1.403 . S
C1852 C1853 1.404 . S
C1852 C1855 1.539 . S
C1853 C1849 1.408 . S
C1853 C1852 1.404 . S
C1853 H1865 0.930 . S
C1854 C1850 1.524 . S
C1854 H1866 0.956 . S
C1854 H1867 0.961 . S
C1854 H1868 0.961 . S
C1855 C1852 1.539 . S
C1855 H1869 0.958 . S
C1855 H1870 0.961 . S
C1855 H1871 0.960 . S
H1856 C1840 0.931 . S
H1857 C1845 0.929 . S
H1858 C1846 0.960 . S
H1859 C1846 0.962 . S
H1860 C1846 0.960 . S
H1861 C1847 0.961 . S
H1862 C1847 0.961 . S
H1863 C1847 0.961 . S
H1864 C1848 0.931 . S
H1865 C1853 0.930 . S
H1866 C1854 0.956 . S
H1867 C1854 0.961 . S
H1868 C1854 0.961 . S
H1869 C1855 0.958 . S
H1870 C1855 0.961 . S
H1871 C1855 0.960 . S
C337 C121 1.036 . S
C345 C3 1.043 . S
C369 C17 1.034 . S
C377 C163 1.056 . S
C401 C31 1.034 . S
C409 C135 1.029 . S
C433 C45 1.033 . S
C441 C149 1.055 . S
C465 C59 0.999 . S
C473 C9 1.006 . S
C497 C23 0.983 . S
C505 C73 1.038 . S
C529 C87 1.060 . S
C537 C37 1.029 . S
C561 C51 0.973 . S
C569 C101 1.024 . S
C593 C65 1.056 . S
C601 C115 1.044 . S
C625 C93 0.995 . S
C633 C129 1.049 . S
C657 C143 1.075 . S
C665 C107 1.059 . S
C689 C79 1.077 . S
C697 C157 1.051 . S
C721 C283 1.056 . S
C729 C171 1.032 . S
C753 C185 1.066 . S
C761 C325 1.058 . S
C785 C199 1.002 . S
C793 C297 1.041 . S
C817 C311 1.059 . S
C825 C213 1.034 . S
C849 C233 0.997 . S
C857 C177 1.027 . S
C881 C191 0.976 . S
C889 C247 0.982 . S
C913 C205 1.053 . S
C921 C261 1.017 . S
C945 C275 1.016 . S
C953 C219 0.998 . S
C977 C289 0.985 . S
C985 C227 1.013 . S
C1009 C255 1.011 . S
C1017 C303 0.987 . S
C1041 C269 1.000 . S
C1049 C317 0.988 . S
C1073 C331 0.995 . S
C1081 C241 1.036 . S
C1105 C315 1.339 . S
C1113 C7 1.369 . S
C1137 C301 1.371 . S
C1145 C21 1.367 . S
C1169 C329 1.318 . S
C1177 C35 1.353 . S
C1201 C49 1.344 . S
C1209 C287 1.358 . S
C1233 C63 1.360 . S
C1241 C190 1.375 . S
C1265 C176 1.368 . S
C1273 C77 1.351 . S
C1297 C218 1.386 . S
C1305 C91 1.361 . S
C1329 C204 1.370 . S
C1337 C105 1.367 . S
C1361 C119 1.348 . S
C1369 C259 1.358 . S
C1393 C231 1.335 . S
C1401 C133 1.380 . S
C1425 C245 1.364 . S
C1433 C147 1.386 . S
C1457 C273 1.361 . S
C1465 C161 1.367 . S
C1489 C148 1.425 . S
C1497 C175 1.416 . S
C1521 C134 1.438 . S
C1529 C189 1.399 . S
C1553 C203 1.419 . S
C1561 C162 1.433 . S
C1585 C120 1.439 . S
C1593 C217 1.403 . S
C1617 C232 1.432 . S
C1625 C22 1.447 . S
C1649 C246 1.441 . S
C1657 C8 1.439 . S
C1681 C260 1.436 . S
C1689 C50 1.440 . S
C1713 C274 1.430 . S
C1721 C36 1.446 . S
C1745 C288 1.411 . S
C1753 C92 1.419 . S
C1777 C302 1.406 . S
C1785 C64 1.418 . S
C1809 C78 1.421 . S
C1817 C316 1.414 . S
C1841 C330 1.422 . S
C1849 C106 1.411 . S
