# Generated by pormake.
# Topology bcs, (6)-cn, num edge types: 1
# Building blocks:
#     Node 0, Type 0, BuildingBlock: BETFAJ_clean_sbu_0, # of connection points: 6
#     Node 1, Type 0, BuildingBlock: BETFAJ_clean_sbu_0, # of connection points: 6
#     Node 2, Type 0, BuildingBlock: BETFAJ_clean_sbu_0, # of connection points: 6
#     Node 3, Type 0, BuildingBlock: BETFAJ_clean_sbu_0, # of connection points: 6
#     Node 4, Type 0, BuildingBlock: BETFAJ_clean_sbu_0, # of connection points: 6
#     Node 5, Type 0, BuildingBlock: BETFAJ_clean_sbu_0, # of connection points: 6
#     Node 6, Type 0, BuildingBlock: BETFAJ_clean_sbu_0, # of connection points: 6
#     Node 7, Type 0, BuildingBlock: BETFAJ_clean_sbu_0, # of connection points: 6
#     Node 8, Type 0, BuildingBlock: BETFAJ_clean_sbu_0, # of connection points: 6
#     Node 9, Type 0, BuildingBlock: BETFAJ_clean_sbu_0, # of connection points: 6
#     Node 10, Type 0, BuildingBlock: BETFAJ_clean_sbu_0, # of connection points: 6
#     Node 11, Type 0, BuildingBlock: BETFAJ_clean_sbu_0, # of connection points: 6
#     Node 12, Type 0, BuildingBlock: BETFAJ_clean_sbu_0, # of connection points: 6
#     Node 13, Type 0, BuildingBlock: BETFAJ_clean_sbu_0, # of connection points: 6
#     Node 14, Type 0, BuildingBlock: BETFAJ_clean_sbu_0, # of connection points: 6
#     Node 15, Type 0, BuildingBlock: BETFAJ_clean_sbu_0, # of connection points: 6
#     Edge 16, Type (0, 0), BuildingBlock: UVAHIK_clean_linker_0, # of connection points: 2
#     Edge 17, Type (0, 0), BuildingBlock: UVAHIK_clean_linker_0, # of connection points: 2
#     Edge 18, Type (0, 0), BuildingBlock: UVAHIK_clean_linker_0, # of connection points: 2
#     Edge 19, Type (0, 0), BuildingBlock: UVAHIK_clean_linker_0, # of connection points: 2
#     Edge 20, Type (0, 0), BuildingBlock: UVAHIK_clean_linker_0, # of connection points: 2
#     Edge 21, Type (0, 0), BuildingBlock: UVAHIK_clean_linker_0, # of connection points: 2
#     Edge 22, Type (0, 0), BuildingBlock: UVAHIK_clean_linker_0, # of connection points: 2
#     Edge 23, Type (0, 0), BuildingBlock: UVAHIK_clean_linker_0, # of connection points: 2
#     Edge 24, Type (0, 0), BuildingBlock: UVAHIK_clean_linker_0, # of connection points: 2
#     Edge 25, Type (0, 0), BuildingBlock: UVAHIK_clean_linker_0, # of connection points: 2
#     Edge 26, Type (0, 0), BuildingBlock: UVAHIK_clean_linker_0, # of connection points: 2
#     Edge 27, Type (0, 0), BuildingBlock: UVAHIK_clean_linker_0, # of connection points: 2
#     Edge 28, Type (0, 0), BuildingBlock: UVAHIK_clean_linker_0, # of connection points: 2
#     Edge 29, Type (0, 0), BuildingBlock: UVAHIK_clean_linker_0, # of connection points: 2
#     Edge 30, Type (0, 0), BuildingBlock: UVAHIK_clean_linker_0, # of connection points: 2
#     Edge 31, Type (0, 0), BuildingBlock: UVAHIK_clean_linker_0, # of connection points: 2
#     Edge 32, Type (0, 0), BuildingBlock: UVAHIK_clean_linker_0, # of connection points: 2
#     Edge 33, Type (0, 0), BuildingBlock: UVAHIK_clean_linker_0, # of connection points: 2
#     Edge 34, Type (0, 0), BuildingBlock: UVAHIK_clean_linker_0, # of connection points: 2
#     Edge 35, Type (0, 0), BuildingBlock: UVAHIK_clean_linker_0, # of connection points: 2
#     Edge 36, Type (0, 0), BuildingBlock: UVAHIK_clean_linker_0, # of connection points: 2
#     Edge 37, Type (0, 0), BuildingBlock: UVAHIK_clean_linker_0, # of connection points: 2
#     Edge 38, Type (0, 0), BuildingBlock: UVAHIK_clean_linker_0, # of connection points: 2
#     Edge 39, Type (0, 0), BuildingBlock: UVAHIK_clean_linker_0, # of connection points: 2
#     Edge 40, Type (0, 0), BuildingBlock: UVAHIK_clean_linker_0, # of connection points: 2
#     Edge 41, Type (0, 0), BuildingBlock: UVAHIK_clean_linker_0, # of connection points: 2
#     Edge 42, Type (0, 0), BuildingBlock: UVAHIK_clean_linker_0, # of connection points: 2
#     Edge 43, Type (0, 0), BuildingBlock: UVAHIK_clean_linker_0, # of connection points: 2
#     Edge 44, Type (0, 0), BuildingBlock: UVAHIK_clean_linker_0, # of connection points: 2
#     Edge 45, Type (0, 0), BuildingBlock: UVAHIK_clean_linker_0, # of connection points: 2
#     Edge 46, Type (0, 0), BuildingBlock: UVAHIK_clean_linker_0, # of connection points: 2
#     Edge 47, Type (0, 0), BuildingBlock: UVAHIK_clean_linker_0, # of connection points: 2
#     Edge 48, Type (0, 0), BuildingBlock: UVAHIK_clean_linker_0, # of connection points: 2
#     Edge 49, Type (0, 0), BuildingBlock: UVAHIK_clean_linker_0, # of connection points: 2
#     Edge 50, Type (0, 0), BuildingBlock: UVAHIK_clean_linker_0, # of connection points: 2
#     Edge 51, Type (0, 0), BuildingBlock: UVAHIK_clean_linker_0, # of connection points: 2
#     Edge 52, Type (0, 0), BuildingBlock: UVAHIK_clean_linker_0, # of connection points: 2
#     Edge 53, Type (0, 0), BuildingBlock: UVAHIK_clean_linker_0, # of connection points: 2
#     Edge 54, Type (0, 0), BuildingBlock: UVAHIK_clean_linker_0, # of connection points: 2
#     Edge 55, Type (0, 0), BuildingBlock: UVAHIK_clean_linker_0, # of connection points: 2
#     Edge 56, Type (0, 0), BuildingBlock: UVAHIK_clean_linker_0, # of connection points: 2
#     Edge 57, Type (0, 0), BuildingBlock: UVAHIK_clean_linker_0, # of connection points: 2
#     Edge 58, Type (0, 0), BuildingBlock: UVAHIK_clean_linker_0, # of connection points: 2
#     Edge 59, Type (0, 0), BuildingBlock: UVAHIK_clean_linker_0, # of connection points: 2
#     Edge 60, Type (0, 0), BuildingBlock: UVAHIK_clean_linker_0, # of connection points: 2
#     Edge 61, Type (0, 0), BuildingBlock: UVAHIK_clean_linker_0, # of connection points: 2
#     Edge 62, Type (0, 0), BuildingBlock: UVAHIK_clean_linker_0, # of connection points: 2
#     Edge 63, Type (0, 0), BuildingBlock: UVAHIK_clean_linker_0, # of connection points: 2
# Relax obj value: 0.152
# Max RMSD: 0.233
# Mean RMSD: 0.197
data_MOF--net-bcs--node1-BETFAJ_clean_sbu_0--edge1-UVAHIK_clean_linker_0
_symmetry_space_group_name_H-M    P1
_symmetry_Int_Tables_number       1
_symmetry_cell_setting            triclinic
loop_
_symmetry_equiv_pos_as_xyz
'x, y, z'
_cell_length_a     54.93049
_cell_length_b     53.558156
_cell_length_c     49.403966
_cell_angle_alpha  76.171697
_cell_angle_beta   109.62756
_cell_angle_gamma 116.98862
loop_
_atom_site_label
_atom_site_type_symbol
_atom_site_fract_x
_atom_site_fract_y
_atom_site_fract_z
_atom_type_partial_charge
Sm0 Sm 0.03536 0.9804 0.99525 0.0
Sm1 Sm 0.03662 0.02021 0.03566 0.0
C2 C 0.04357 0.95223 0.96426 0.0
C3 C 0.06448 0.94861 0.95484 0.0
C4 C 0.09079 0.95045 0.97366 0.0
C5 C 0.10841 0.94298 0.96529 0.0
C6 C 0.09996 0.93344 0.93802 0.0
C7 C 0.07419 0.93296 0.91884 0.0
C8 C 0.05667 0.94043 0.92719 0.0
C9 C 1.00395 0.95442 0.03544 0.0
C10 C 0.09182 0.0081 0.04776 0.0
C11 C 0.02571 0.03652 0.07528 0.0
C12 C 1.01237 0.05356 0.07896 0.0
C13 C 0.99126 0.05939 0.05651 0.0
C14 C 0.97716 0.07345 0.06141 0.0
C15 C 0.9839 0.08193 0.08886 0.0
C16 C 1.00553 0.07652 0.11104 0.0
C17 C 1.01957 0.06249 0.10612 0.0
C18 C 0.06062 0.05259 0.99028 0.0
C19 C 0.9849 1.00067 0.97636 0.0
O20 O 0.03814 0.97458 0.9533 0.0
O21 O 0.04333 0.94463 0.99147 0.0
O22 O 0.02842 0.97425 0.03977 0.0
O23 O 0.99578 0.94707 0.0096 0.0
O24 O 0.0817 0.99957 0.02167 0.0
O25 O 0.07659 0.01266 0.06028 0.0
O26 O 1.00866 0.01355 0.06252 0.0
O27 O 0.04966 0.04986 0.0679 0.0
O28 O 0.04992 0.02626 0.99561 0.0
O29 O 0.05788 0.06338 1.00948 0.0
O30 O 0.99288 0.008 1.00277 0.0
O31 O 1.00017 0.99367 0.96631 0.0
H32 H 0.09729 0.95673 0.99514 0.0
H33 H 0.12806 0.9435 0.98064 0.0
H34 H 0.06727 0.92625 0.8975 0.0
H35 H 0.03648 0.9389 0.91233 0.0
H36 H 0.98536 0.05265 0.03535 0.0
H37 H 0.96091 0.07757 0.04371 0.0
H38 H 1.01106 0.08232 0.13254 0.0
H39 H 0.03564 0.05799 0.12379 0.0
Sm40 Sm 0.30342 0.73296 0.27724 0.0
Sm41 Sm 0.25677 0.75185 0.2535 0.0
C42 C 0.33877 0.70977 0.30813 0.0
C43 C 0.33416 0.67994 0.31547 0.0
C44 C 0.31211 0.66053 0.32795 0.0
C45 C 0.30588 0.6318 0.33168 0.0
C46 C 0.32134 0.62197 0.32266 0.0
C47 C 0.34355 0.64141 0.31048 0.0
C48 C 0.34996 0.67015 0.30701 0.0
C49 C 0.27036 0.71652 0.22346 0.0
C50 C 0.24153 0.69346 0.2914 0.0
C51 C 0.22116 0.77428 0.22109 0.0
C52 C 0.22515 0.80374 0.21138 0.0
C53 C 0.21661 0.81196 0.18185 0.0
C54 C 0.2219 0.84018 0.1721 0.0
C55 C 0.23565 0.86059 0.19178 0.0
C56 C 0.2442 0.85236 0.22134 0.0
C57 C 0.23921 0.8242 0.23106 0.0
C58 C 0.2891 0.76738 0.3077 0.0
C59 C 0.31855 0.79149 0.23925 0.0
O60 O 0.3265 0.7188 0.31983 0.0
O61 O 0.33668 0.71885 0.28079 0.0
O62 O 0.26135 0.71555 0.24408 0.0
O63 O 0.29765 0.72556 0.23091 0.0
O64 O 0.26929 0.702 0.30115 0.0
O65 O 0.23034 0.70679 0.26827 0.0
O66 O 0.23371 0.76487 0.21023 0.0
O67 O 0.22349 0.76635 0.2487 0.0
O68 O 0.29865 0.76889 0.28724 0.0
O69 O 0.26184 0.75902 0.29957 0.0
O70 O 0.29082 0.78306 0.22998 0.0
O71 O 0.32999 0.77798 0.262 0.0
H72 H 0.29932 0.66743 0.33436 0.0
H73 H 0.28874 0.61723 0.34123 0.0
H74 H 0.35622 0.63442 0.30394 0.0
H75 H 0.36689 0.6847 0.29717 0.0
H76 H 0.20601 0.79657 0.16631 0.0
H77 H 0.2147 0.84595 0.14921 0.0
H78 H 0.25489 0.86773 0.23689 0.0
H79 H 0.24653 0.81853 0.25395 0.0
Sm80 Sm 0.51904 0.0041 0.53547 0.0
Sm81 Sm 0.53059 1.00217 0.4822 0.0
C82 C 0.51134 0.01626 0.58002 0.0
C83 C 0.50262 0.03596 0.58658 0.0
C84 C 0.51595 0.04748 0.61307 0.0
C85 C 0.50609 0.0639 0.62096 0.0
C86 C 0.48252 0.06892 0.60255 0.0
C87 C 0.46992 0.05818 0.57548 0.0
C88 C 0.47993 0.04196 0.56754 0.0
C89 C 0.48456 0.9552 0.50993 0.0
C90 C 0.49006 0.0395 0.47333 0.0
C91 C 0.53156 0.99247 0.43262 0.0
C92 C 0.5494 0.98377 0.42388 0.0
C93 C 0.54127 0.97597 0.39602 0.0
C94 C 0.55696 0.9656 0.38825 0.0
C95 C 0.58107 0.96282 0.40828 0.0
C96 C 0.58938 0.97114 0.43609 0.0
C97 C 0.57363 0.98145 0.44384 0.0
C98 C 0.57483 0.04095 0.51719 0.0
C99 C 0.55988 0.96775 0.54429 0.0
O100 O 0.53617 0.0267 0.57478 0.0
O101 O 0.49177 0.9971 0.56314 0.0
O102 O 0.49129 0.97972 0.49729 0.0
O103 O 0.49627 0.95545 0.53747 0.0
O104 O 0.49352 0.03194 0.50208 0.0
O105 O 0.5026 0.03055 0.46066 0.0
O106 O 0.51602 0.97334 0.44911 0.0
O107 O 0.54354 0.01773 0.44114 0.0
O108 O 0.54924 0.03673 0.51099 0.0
O109 O 0.57825 0.02497 0.5041 0.0
O110 O 0.55024 0.96937 0.51516 0.0
O111 O 0.55325 0.98253 0.55722 0.0
H112 H 0.53359 0.04323 0.62799 0.0
H113 H 0.51671 0.07231 0.64168 0.0
H114 H 0.45159 0.06133 0.56083 0.0
H115 H 0.46935 0.03342 0.54686 0.0
H116 H 0.52254 0.97751 0.3804 0.0
H117 H 0.55019 0.95972 0.36656 0.0
H118 H 0.6076 0.96895 0.45213 0.0
H119 H 0.58003 0.98709 0.46559 0.0
Sm120 Sm 0.27418 0.23178 0.75043 0.0
Sm121 Sm 0.26606 0.28338 0.75419 0.0
C122 C 0.27633 0.18999 0.73295 0.0
C123 C 0.29517 0.185 0.7215 0.0
C124 C 0.28404 0.17218 0.69583 0.0
C125 C 0.30122 0.1664 0.68502 0.0
C126 C 0.32984 0.17314 0.69984 0.0
C127 C 0.34105 0.18629 0.72539 0.0
C128 C 0.32392 0.19227 0.73606 0.0
C129 C 0.31407 0.2643 0.79353 0.0
C130 C 0.30538 0.29252 0.71297 0.0
C131 C 0.26449 0.3259 0.77098 0.0
C132 C 0.24595 0.33164 0.78188 0.0
C133 C 0.22501 0.3098 0.79418 0.0
C134 C 0.20741 0.3158 0.80416 0.0
C135 C 0.21037 0.3437 0.80175 0.0
C136 C 0.23143 0.36544 0.78939 0.0
C137 C 0.24905 0.35943 0.77957 0.0
C138 C 0.22556 0.25061 0.7114 0.0
C139 C 0.23553 0.22261 0.79215 0.0
O140 O 0.26327 0.2055 0.71589 0.0
O141 O 0.2852 0.19505 0.76003 0.0
O142 O 0.30405 0.27326 0.76831 0.0
O143 O 0.30453 0.23702 0.79647 0.0
O144 O 0.29546 0.26464 0.71554 0.0
O145 O 0.29993 0.3053 0.72862 0.0
O146 O 0.27687 0.30991 0.78829 0.0
O147 O 0.25508 0.32028 0.74409 0.0
O148 O 0.23597 0.24174 0.7365 0.0
O149 O 0.23508 0.27788 0.70855 0.0
O150 O 0.24547 0.25053 0.78965 0.0
O151 O 0.24051 0.20985 0.77606 0.0
H152 H 0.26192 0.16634 0.68427 0.0
H153 H 0.29193 0.15602 0.66543 0.0
H154 H 0.36311 0.19202 0.73708 0.0
H155 H 0.33316 0.2024 0.7558 0.0
H156 H 0.2222 0.28816 0.79593 0.0
H157 H 0.19121 0.29858 0.81332 0.0
H158 H 0.2345 0.38717 0.78759 0.0
H159 H 0.26514 0.37652 0.77013 0.0
Sm160 Sm 0.06362 0.00866 0.54167 0.0
Sm161 Sm 1.00731 0.99641 0.49577 0.0
C162 C 0.10553 0.02277 0.58892 0.0
C163 C 0.11005 0.00943 0.61874 0.0
C164 C 0.13655 0.009 0.63332 0.0
C165 C 0.13956 0.99098 0.65858 0.0
C166 C 0.11601 0.97301 0.66953 0.0
C167 C 0.09013 0.97555 0.65636 0.0
C168 C 0.08716 0.99359 0.6311 0.0
C169 C 0.04309 0.96109 0.5147 0.0
C170 C 1.00268 0.96881 0.5602 0.0
C171 C 0.9651 0.98159 0.44887 0.0
C172 C 0.95903 0.99562 0.41966 0.0
C173 C 0.93116 0.99206 0.40519 0.0
C174 C 0.92581 0.01027 0.38082 0.0
C175 C 0.94836 0.03233 0.37077 0.0
C176 C 0.97598 0.034 0.38367 0.0
C177 C 0.98128 0.01584 0.40805 0.0
C178 C 0.02829 0.04465 0.52201 0.0
C179 C 0.0683 0.03611 0.47703 0.0
O180 O 0.08583 0.03247 0.58016 0.0
O181 O 0.10488 0.00912 0.56976 0.0
O182 O 0.02919 0.96909 0.52354 0.0
O183 O 0.06968 0.97832 0.52028 0.0
O184 O 0.02971 0.98636 0.56855 0.0
O185 O 0.98995 0.96567 0.53259 0.0
O186 O 0.98644 0.97437 0.4561 0.0
O187 O 0.96471 0.99321 0.46915 0.0
O188 O 0.04194 0.03596 0.51368 0.0
O189 O 1.00144 0.0283 0.51537 0.0
O190 O 0.04106 0.01901 0.46879 0.0
O191 O 0.08138 0.03893 0.50469 0.0
H192 H 0.15442 0.02107 0.62408 0.0
H193 H 0.15973 0.98937 0.66796 0.0
H194 H 0.07172 0.9622 0.66447 0.0
H195 H 0.06655 0.99378 0.62032 0.0
H196 H 0.91376 0.97659 0.41394 0.0
H197 H 0.90431 0.0086 0.37155 0.0
H198 H 0.99371 0.05063 0.37622 0.0
H199 H 1.00292 0.01887 0.41892 0.0
Sm200 Sm 0.28562 0.76557 0.77673 0.0
Sm201 Sm 0.27436 0.77035 0.70992 0.0
C202 C 0.29275 0.77667 0.82896 0.0
C203 C 0.27827 0.7885 0.83927 0.0
C204 C 0.29145 0.80175 0.86478 0.0
C205 C 0.27814 0.81412 0.87373 0.0
C206 C 0.25145 0.81361 0.8572 0.0
C207 C 0.23846 0.80038 0.83154 0.0
C208 C 0.25166 0.78788 0.82276 0.0
C209 C 0.24368 0.71942 0.75034 0.0
C210 C 0.24217 0.79428 0.73201 0.0
C211 C 0.26672 0.75836 0.65794 0.0
C212 C 0.28114 0.7463 0.64781 0.0
C213 C 0.26709 0.731 0.62366 0.0
C214 C 0.28012 0.71787 0.61535 0.0
C215 C 0.30742 0.71962 0.6312 0.0
C216 C 0.32138 0.7351 0.65537 0.0
C217 C 0.30844 0.74835 0.66349 0.0
C218 C 0.31688 0.81627 0.73673 0.0
C219 C 0.31759 0.74123 0.75469 0.0
O220 O 0.30829 0.79401 0.81169 0.0
O221 O 0.27739 0.75156 0.82011 0.0
O222 O 0.24798 0.74468 0.74102 0.0
O223 O 0.26127 0.71745 0.77526 0.0
O224 O 0.26107 0.79395 0.757 0.0
O225 O 0.23968 0.78261 0.70997 0.0
O226 O 0.25143 0.74125 0.67554 0.0
O227 O 0.28193 0.78372 0.66622 0.0
O228 O 0.31193 0.79086 0.74566 0.0
O229 O 0.29967 0.81862 0.7116 0.0
O230 O 0.29914 0.74221 0.7295 0.0
O231 O 0.31995 0.75269 0.77685 0.0
H232 H 0.31207 0.80261 0.87772 0.0
H233 H 0.28865 0.82384 0.89375 0.0
H234 H 0.21821 0.8 0.81792 0.0
H235 H 0.24111 0.7779 0.80291 0.0
H236 H 0.24594 0.72899 0.61138 0.0
H237 H 0.26883 0.70646 0.59642 0.0
H238 H 0.34211 0.73652 0.66849 0.0
H239 H 0.31963 0.75982 0.68239 0.0
Sm240 Sm 0.51813 0.97352 0.99873 0.0
Sm241 Sm 0.51465 0.02845 1.00513 0.0
C242 C 0.51783 0.93102 0.97972 0.0
C243 C 0.53598 0.92393 0.96931 0.0
C244 C 0.5241 0.90932 0.94476 0.0
C245 C 0.54043 0.90126 0.93508 0.0
C246 C 0.56902 0.90755 0.94985 0.0
C247 C 0.58101 0.9226 0.97422 0.0
C248 C 0.56468 0.9308 0.98381 0.0
C249 C 0.55843 0.00316 0.04378 0.0
C250 C 0.55225 0.03426 0.96458 0.0
C251 C 0.51495 0.07084 0.0243 0.0
C252 C 0.4967 0.07722 0.03529 0.0
C253 C 0.50895 0.09344 0.05865 0.0
C254 C 0.49232 0.10051 0.06899 0.0
C255 C 0.46304 0.09157 0.05608 0.0
C256 C 0.45075 0.07498 0.03287 0.0
C257 C 0.46739 0.06779 0.02264 0.0
C258 C 0.47457 0.9991 0.95985 0.0
C259 C 0.48122 0.9676 0.03998 0.0
O260 O 0.50778 0.94895 0.96284 0.0
O261 O 0.52544 0.93458 1.00713 0.0
O262 O 0.54949 0.01353 0.0189 0.0
O263 O 0.54777 0.97588 0.04518 0.0
O264 O 0.53888 0.0066 0.96441 0.0
O265 O 0.55038 0.04768 0.98254 0.0
O266 O 0.52571 0.05335 0.04099 0.0
O267 O 0.50679 0.06706 0.9969 0.0
O268 O 0.48326 0.98851 0.98476 0.0
O269 O 0.4854 0.02637 0.95864 0.0
O270 O 0.49396 0.99536 0.03948 0.0
O271 O 0.48311 0.9541 0.02213 0.0
H272 H 0.502 0.90378 0.93326 0.0
H273 H 0.53044 0.88946 0.91644 0.0
H274 H 0.60305 0.92813 0.98585 0.0
H275 H 0.57446 0.94228 1.00268 0.0
H276 H 0.53151 0.10092 0.06874 0.0
H277 H 0.50253 0.11353 0.0867 0.0
H278 H 0.42822 0.06744 0.02269 0.0
H279 H 0.45736 0.055 1.00475 0.0
Sm280 Sm 0.26776 0.23966 0.23514 0.0
Sm281 Sm 0.28137 0.2683 0.28352 0.0
C282 C 0.26311 0.22485 0.18544 0.0
C283 C 0.27824 0.21343 0.17563 0.0
C284 C 0.30618 0.21716 0.19055 0.0
C285 C 0.3204 0.20631 0.18102 0.0
C286 C 0.30692 0.19137 0.15645 0.0
C287 C 0.2788 0.18753 0.14175 0.0
C288 C 0.26463 0.19847 0.15126 0.0
C289 C 0.23238 0.2091 0.27092 0.0
C290 C 0.3119 0.22005 0.29466 0.0
C291 C 0.28537 0.28326 0.33291 0.0
C292 C 0.27005 0.29447 0.34317 0.0
C293 C 0.25023 0.27631 0.35887 0.0
C294 C 0.23546 0.28646 0.36846 0.0
C295 C 0.24021 0.31511 0.36277 0.0
C296 C 0.26026 0.33334 0.3473 0.0
C297 C 0.275 0.32317 0.33765 0.0
C298 C 0.31649 0.29844 0.24732 0.0
C299 C 0.23729 0.2879 0.22403 0.0
O300 O 0.27735 0.25065 0.19254 0.0
O301 O 0.24825 0.20804 0.20344 0.0
O302 O 0.23982 0.23517 0.26283 0.0
O303 O 0.24289 0.19827 0.25935 0.0
O304 O 0.30078 0.21937 0.26597 0.0
O305 O 0.30638 0.23668 0.30646 0.0
O306 O 0.27159 0.25735 0.32609 0.0
O307 O 0.30065 0.29994 0.31516 0.0
O308 O 0.30934 0.27253 0.25606 0.0
O309 O 0.30559 0.30942 0.25821 0.0
O310 O 0.24844 0.28864 0.2527 0.0
O311 O 0.24277 0.27124 0.21224 0.0
H312 H 0.31706 0.22859 0.2095 0.0
H313 H 0.34212 0.21001 0.19269 0.0
H314 H 0.26757 0.17579 0.12306 0.0
H315 H 0.243 0.19521 0.13959 0.0
H316 H 0.2461 0.25415 0.36376 0.0
H317 H 0.22056 0.27187 0.3807 0.0
H318 H 0.26429 0.35546 0.34225 0.0
H319 H 0.29018 0.33782 0.32573 0.0
Sm320 Sm 0.54992 0.50383 0.03331 0.0
Sm321 Sm 0.49966 0.51234 0.98743 0.0
C322 C 0.59571 0.50629 0.07518 0.0
C323 C 0.59918 0.4884 0.10238 0.0
C324 C 0.57537 0.46985 0.1125 0.0
C325 C 0.57735 0.449 0.13514 0.0
C326 C 0.60322 0.4465 0.14801 0.0
C327 C 0.62749 0.46641 0.13919 0.0
C328 C 0.62543 0.48718 0.11638 0.0
C329 C 0.51706 0.46201 0.99736 0.0
C330 C 0.48889 0.47063 0.04815 0.0
C331 C 0.45422 0.51033 0.9453 0.0
C332 C 0.4517 0.52758 0.91754 0.0
C333 C 0.42542 0.52195 0.89726 0.0
C334 C 0.42309 0.54008 0.87189 0.0
C335 C 0.44705 0.56404 0.86666 0.0
C336 C 0.47357 0.56869 0.88643 0.0
C337 C 0.47584 0.55063 0.9117 0.0
C338 C 0.53309 0.55445 0.02293 0.0
C339 C 0.5607 0.5451 0.97253 0.0
O340 O 0.58194 0.52148 0.07314 0.0
O341 O 0.58764 0.49384 0.05197 0.0
O342 O 0.52455 0.48805 0.98985 0.0
O343 O 0.52815 0.45705 0.0247 0.0
O344 O 0.51657 0.47961 0.05894 0.0
O345 O 0.47751 0.47844 0.0211 0.0
O346 O 0.46691 0.49389 0.94827 0.0
O347 O 0.46295 0.52381 0.96795 0.0
O348 O 0.52524 0.52842 0.03065 0.0
O349 O 0.52202 0.55926 0.99556 0.0
O350 O 0.53299 0.53566 0.96153 0.0
O351 O 0.57201 0.53792 0.99983 0.0
H352 H 0.55493 0.47052 0.10195 0.0
H353 H 0.55839 0.43397 0.1416 0.0
H354 H 0.64762 0.46469 0.14848 0.0
H355 H 0.64394 0.50126 0.10869 0.0
H356 H 0.40664 0.50415 0.90149 0.0
H357 H 0.40232 0.53622 0.85718 0.0
H358 H 0.49237 0.58688 0.88286 0.0
H359 H 0.49631 0.55523 0.92717 0.0
Sm360 Sm 0.76828 0.23359 0.2959 0.0
Sm361 Sm 0.77265 0.2406 0.23279 0.0
C362 C 0.76562 0.24344 0.34477 0.0
C363 C 0.75028 0.25632 0.35226 0.0
C364 C 0.75999 0.26628 0.37935 0.0
C365 C 0.74607 0.27918 0.38648 0.0
C366 C 0.72209 0.28244 0.36661 0.0
C367 C 0.71252 0.27248 0.33935 0.0
C368 C 0.72649 0.2596 0.33226 0.0
C369 C 0.72922 0.19053 0.26307 0.0
C370 C 0.73518 0.26711 0.24212 0.0
C371 C 0.77602 0.2317 0.18383 0.0
C372 C 0.79292 0.22067 0.17635 0.0
C373 C 0.78655 0.21478 0.14802 0.0
C374 C 0.80216 0.20383 0.14085 0.0
C375 C 0.82445 0.19847 0.16194 0.0
C376 C 0.83072 0.20443 0.19038 0.0
C377 C 0.81513 0.21543 0.19749 0.0
C378 C 0.81149 0.28381 0.26555 0.0
C379 C 0.80436 0.20562 0.28635 0.0
O380 O 0.78508 0.26059 0.33148 0.0
O381 O 0.75032 0.21929 0.33384 0.0
O382 O 0.73759 0.21639 0.25458 0.0
O383 O 0.74042 0.18623 0.29055 0.0
O384 O 0.7487 0.26506 0.26975 0.0
O385 O 0.73739 0.25554 0.22275 0.0
O386 O 0.75737 0.2135 0.19765 0.0
O387 O 0.78991 0.25611 0.19431 0.0
O388 O 0.8034 0.25794 0.27409 0.0
O389 O 0.80006 0.28791 0.23812 0.0
O390 O 0.79146 0.2086 0.25867 0.0
O391 O 0.80245 0.21711 0.30601 0.0
H392 H 0.7785 0.26424 0.39496 0.0
H393 H 0.75442 0.287 0.40744 0.0
H394 H 0.69402 0.27432 0.32357 0.0
H395 H 0.7187 0.25219 0.31114 0.0
H396 H 0.7695 0.21867 0.1314 0.0
H397 H 0.79695 0.19987 0.11867 0.0
H398 H 0.84742 0.20023 0.20729 0.0
H399 H 0.82037 0.21976 0.21953 0.0
Sm400 Sm 0.02563 0.47261 0.51258 0.0
Sm401 Sm 1.0167 0.52696 0.50876 0.0
C402 C 0.03042 0.42932 0.5011 0.0
C403 C 0.0487 0.4235 0.48934 0.0
C404 C 0.03678 0.40958 0.46427 0.0
C405 C 0.05328 0.40285 0.45334 0.0
C406 C 0.08212 0.40971 0.46735 0.0
C407 C 0.0941 0.42387 0.49235 0.0
C408 C 0.07762 0.43074 0.5032 0.0
C409 C 0.0634 0.50874 0.55323 0.0
C410 C 0.05545 0.53005 0.47094 0.0
C411 C 1.01268 0.57066 0.52039 0.0
C412 C 0.99524 0.57639 0.53318 0.0
C413 C 1.00507 0.60311 0.54193 0.0
C414 C 0.9887 0.60928 0.5536 0.0
C415 C 0.96205 0.58882 0.55674 0.0
C416 C 0.95237 0.5619 0.54814 0.0
C417 C 0.96886 0.55572 0.53656 0.0
C418 C 0.97893 0.49077 0.46799 0.0
C419 C 0.98695 0.46973 0.55038 0.0
O420 O 1.01424 0.4413 0.48291 0.0
O421 O 0.04116 0.43862 0.52658 0.0
O422 O 0.05429 0.51583 0.52695 0.0
O423 O 0.0538 0.48154 0.5589 0.0
O424 O 0.04535 0.50226 0.47594 0.0
O425 O 0.05085 0.54538 0.48443 0.0
O426 O 0.02945 0.55907 0.53802 0.0
O427 O 1.00026 0.56025 0.49544 0.0
O428 O 0.98817 0.48379 0.49427 0.0
O429 O 0.98809 0.51799 0.46251 0.0
O430 O 0.99742 0.49753 0.54563 0.0
O431 O 0.99118 0.45432 0.53661 0.0
H432 H 1.01452 0.40359 0.45326 0.0
H433 H 0.04324 0.39166 0.43426 0.0
H434 H 0.11631 0.4298 0.50349 0.0
H435 H 0.08753 0.44154 0.52253 0.0
H436 H 0.02538 0.61934 0.5395 0.0
H437 H 0.9967 0.6303 0.55963 0.0
H438 H 0.93214 0.54554 0.55058 0.0
H439 H 0.96098 0.53486 0.53014 0.0
Sm440 Sm 0.79552 0.73499 0.26804 0.0
Sm441 Sm 0.78086 0.78437 0.26589 0.0
C442 C 0.79762 0.68818 0.26245 0.0
C443 C 0.8163 0.68075 0.25362 0.0
C444 C 0.83753 0.70151 0.24095 0.0
C445 C 0.85415 0.69402 0.23109 0.0
C446 C 0.84986 0.66565 0.23382 0.0
C447 C 0.82884 0.64502 0.24701 0.0
C448 C 0.81219 0.65254 0.25678 0.0
C449 C 0.83745 0.7765 0.30143 0.0
C450 C 0.82356 0.79342 0.22869 0.0
C451 C 0.77109 0.8259 0.27382 0.0
C452 C 0.7601 0.83369 0.29242 0.0
C453 C 0.73914 0.81333 0.30569 0.0
C454 C 0.72641 0.82158 0.32014 0.0
C455 C 0.73449 0.85032 0.32162 0.0
C456 C 0.75636 0.87052 0.30931 0.0
C457 C 0.769 0.86225 0.29483 0.0
C458 C 0.75031 0.75194 0.22037 0.0
C459 C 0.75266 0.72566 0.30652 0.0
O460 O 0.78343 0.70088 0.24194 0.0
O461 O 0.80802 0.69913 0.28705 0.0
O462 O 0.81128 0.76762 0.29894 0.0
O463 O 0.84227 0.76232 0.28742 0.0
O464 O 0.81328 0.76557 0.23056 0.0
O465 O 0.81753 0.80607 0.24392 0.0
O466 O 0.79569 0.82435 0.28481 0.0
O467 O 0.75269 0.80609 0.25717 0.0
O468 O 0.75661 0.74314 0.2466 0.0
O469 O 0.75988 0.77923 0.21704 0.0
O470 O 0.75518 0.75186 0.29732 0.0
O471 O 0.7661 0.71458 0.29862 0.0
H472 H 0.841 0.72345 0.23839 0.0
H473 H 0.87038 0.71044 0.22137 0.0
H474 H 0.82477 0.62297 0.24913 0.0
H475 H 0.79579 0.63625 0.2664 0.0
H476 H 0.73203 0.79113 0.30416 0.0
H477 H 0.70992 0.80549 0.32974 0.0
H478 H 0.7629 0.89281 0.30974 0.0
H479 H 0.78505 0.87826 0.2846 0.0
Sm480 Sm 0.80422 0.25204 0.78283 0.0
Sm481 Sm 0.74966 0.25697 0.74637 0.0
C482 C 0.85345 0.25236 0.81493 0.0
C483 C 0.86207 0.22867 0.82399 0.0
C484 C 0.86847 0.21888 0.85338 0.0
C485 C 0.87024 0.19284 0.86181 0.0
C486 C 0.86582 0.17631 0.84096 0.0
C487 C 0.86125 0.18694 0.81173 0.0
C488 C 0.85929 0.21285 0.80329 0.0
C489 C 0.77589 0.2193 0.7376 0.0
C490 C 0.74699 0.20435 0.79601 0.0
C491 C 0.70057 0.25587 0.71296 0.0
C492 C 0.69298 0.27992 0.70054 0.0
C493 C 0.7133 0.3056 0.69175 0.0
C494 C 0.70893 0.33018 0.68612 0.0
C495 C 0.68426 0.32959 0.68941 0.0
C496 C 0.66335 0.30367 0.69694 0.0
C497 C 0.6677 0.27897 0.70248 0.0
C498 C 0.77782 0.28992 0.79149 0.0
C499 C 0.80703 0.30603 0.73463 0.0
O500 O 0.83395 0.2502 0.826 0.0
O501 O 0.84892 0.26115 0.78734 0.0
O502 O 0.77925 0.24424 0.73667 0.0
O503 O 0.78846 0.21074 0.76282 0.0
O504 O 0.77366 0.21933 0.80852 0.0
O505 O 0.73475 0.21189 0.76941 0.0
O506 O 0.71906 0.25416 0.70309 0.0
O507 O 0.70587 0.25142 0.74113 0.0
O508 O 0.77483 0.26507 0.79248 0.0
O509 O 0.76438 0.29796 0.76648 0.0
O510 O 0.78026 0.29153 0.72197 0.0
O511 O 0.81934 0.29752 0.76076 0.0
H512 H 0.87059 0.23067 0.86968 0.0
H513 H 0.87433 0.18527 0.88456 0.0
H514 H 0.85771 0.17459 0.79524 0.0
H515 H 0.85409 0.21966 0.78041 0.0
H516 H 0.73329 0.30703 0.69071 0.0
H517 H 0.72552 0.34987 0.68063 0.0
H518 H 0.64396 0.30262 0.69923 0.0
H519 H 0.652 0.25942 0.70965 0.0
Sm520 Sm 0.7658 0.73713 0.73348 0.0
Sm521 Sm 0.78407 0.76995 0.78469 0.0
C522 C 0.75875 0.71902 0.6846 0.0
C523 C 0.77172 0.70449 0.67574 0.0
C524 C 0.76662 0.70261 0.64638 0.0
C525 C 0.78047 0.69074 0.63759 0.0
C526 C 0.79985 0.68063 0.65802 0.0
C527 C 0.80454 0.68222 0.68753 0.0
C528 C 0.79064 0.69405 0.69628 0.0
C529 C 0.73483 0.71051 0.77366 0.0
C530 C 0.8116 0.71975 0.79431 0.0
C531 C 0.78404 0.78475 0.83215 0.0
C532 C 0.76467 0.79024 0.84211 0.0
C533 C 0.73699 0.78525 0.82515 0.0
C534 C 0.71952 0.79257 0.8339 0.0
C535 C 0.72948 0.80512 0.85973 0.0
C536 C 0.75716 0.80963 0.8768 0.0
C537 C 0.77455 0.80226 0.86804 0.0
C538 C 0.82589 0.79699 0.75496 0.0
C539 C 0.73848 0.78782 0.72301 0.0
O540 O 0.77551 0.74461 0.69137 0.0
O541 O 0.74294 0.70452 0.70245 0.0
O542 O 0.74257 0.73631 0.76411 0.0
O543 O 0.74277 0.6977 0.76131 0.0
O544 O 0.80031 0.71895 0.76552 0.0
O545 O 0.80656 0.7364 0.80666 0.0
O546 O 0.77678 0.75858 0.82851 0.0
O547 O 0.79411 0.80288 0.81145 0.0
O548 O 0.80348 0.77514 0.74911 0.0
O549 O 0.82715 0.80536 0.77812 0.0
O550 O 0.75318 0.79179 0.75083 0.0
O551 O 0.74008 0.768 0.71174 0.0
H552 H 0.7523 0.7108 0.63018 0.0
H553 H 0.77658 0.69023 0.61469 0.0
H554 H 0.81899 0.67433 0.70391 0.0
H555 H 0.79496 0.69538 0.71906 0.0
H556 H 0.72907 0.77612 0.80494 0.0
H557 H 0.69824 0.78846 0.8204 0.0
H558 H 0.76574 0.81962 0.89655 0.0
H559 H 0.79597 0.80651 0.88126 0.0
Sm560 Sm 0.52888 0.48801 0.48966 0.0
Sm561 Sm 0.52248 0.52992 0.52059 0.0
C562 C 0.54536 0.46986 0.45635 0.0
C563 C 0.55711 0.45102 0.45321 0.0
C564 C 0.58159 0.44889 0.47294 0.0
C565 C 0.59404 0.43349 0.46733 0.0
C566 C 0.58236 0.4201 0.44181 0.0
C567 C 0.55735 0.4216 0.42266 0.0
C568 C 0.54493 0.43688 0.4283 0.0
C569 C 0.49798 0.45738 0.53039 0.0
C570 C 0.5718 0.50808 0.55295 0.0
C571 C 0.5097 0.56067 0.5438 0.0
C572 C 0.48865 0.56594 0.55126 0.0
C573 C 0.4632 0.56509 0.53112 0.0
C574 C 0.44581 0.57426 0.53771 0.0
C575 C 0.45372 0.58464 0.56442 0.0
C576 C 0.47858 0.58423 0.58489 0.0
C577 C 0.49581 0.57499 0.57836 0.0
C578 C 0.56059 0.55408 0.48679 0.0
C579 C 0.47184 0.49875 0.46568 0.0
O580 O 0.56227 0.49113 0.47179 0.0
O581 O 0.51919 0.45883 0.45828 0.0
O582 O 0.50869 0.48363 0.52415 0.0
O583 O 0.50447 0.44582 0.51501 0.0
O584 O 0.56857 0.50019 0.52806 0.0
O585 O 0.55412 0.51641 0.55693 0.0
O586 O 0.51685 0.54012 0.55869 0.0
O587 O 0.50983 0.56472 0.51659 0.0
O588 O 0.5364 0.53411 0.48051 0.0
O589 O 0.56492 0.56245 0.51118 0.0
O590 O 0.47834 0.50909 0.49018 0.0
O591 O 0.49005 0.49387 0.45815 0.0
H592 H 0.59153 0.4597 0.49228 0.0
H593 H 0.61336 0.43292 0.48248 0.0
H594 H 0.54747 0.41118 0.40307 0.0
H595 H 0.52612 0.43829 0.41271 0.0
H596 H 0.45721 0.55824 0.51001 0.0
H597 H 0.42684 0.57439 0.52144 0.0
H598 H 0.48505 0.59162 0.60582 0.0
H599 H 0.51536 0.57588 0.5942 0.0
Sm600 Sm 1.02254 0.51032 0.03551 0.0
Sm601 Sm 1.02451 0.49614 0.98276 0.0
C602 C 0.03133 0.52794 0.08513 0.0
C603 C 1.01957 0.54219 0.09589 0.0
C604 C 0.03034 0.5483 0.12467 0.0
C605 C 1.01836 0.56054 0.1356 0.0
C606 C 0.99534 0.56685 0.1179 0.0
C607 C 0.98494 0.5611 0.08885 0.0
C608 C 0.99695 0.54884 0.07795 0.0
C609 C 0.97466 0.46665 0.0113 0.0
C610 C 0.98839 0.53905 0.97406 0.0
C611 C 1.01602 0.47855 0.93325 0.0
C612 C 0.02805 0.46388 0.92351 0.0
C613 C 1.01752 0.45678 0.8951 0.0
C614 C 0.0297 0.44386 0.88534 0.0
C615 C 0.05264 0.43785 0.90389 0.0
C616 C 0.06281 0.44467 0.93255 0.0
C617 C 0.05061 0.45758 0.94226 0.0
C618 C 0.07151 0.54096 1.00609 0.0
C619 C 0.05887 0.46754 0.04415 0.0
O620 O 0.046 0.54294 0.06636 0.0
O621 O 1.01422 0.5024 0.07834 0.0
O622 O 0.99966 0.46995 0.01469 0.0
O623 O 0.97407 0.48657 0.02139 0.0
O624 O 0.99884 0.53923 1.0029 0.0
O625 O 0.99406 0.52268 0.96201 0.0
O626 O 1.00082 0.46381 0.95162 0.0
O627 O 0.03325 0.50403 0.94013 0.0
O628 O 0.04631 0.53683 1.00272 0.0
O629 O 0.07301 0.5209 0.9972 0.0
O630 O 0.0484 0.46737 0.01532 0.0
O631 O 0.05311 0.48385 0.05618 0.0
H632 H 0.04784 0.54333 0.13877 0.0
H633 H 0.02714 0.56507 0.15793 0.0
H634 H 0.96706 0.5654 0.07472 0.0
H635 H 0.9883 0.54413 0.05566 0.0
H636 H 1.00005 0.46145 0.88039 0.0
H637 H 1.02114 0.43854 0.86327 0.0
H638 H 0.08065 0.44066 0.94728 0.0
H639 H 0.05906 0.46305 0.96428 0.0
C640 C 0.21077 0.21759 0.82942 0.0
C641 C 0.21729 0.20511 0.8123 0.0
C642 C 0.19334 0.20092 0.84801 0.0
C643 C 0.16465 0.12789 0.88501 0.0
H644 H 0.11108 0.15138 0.8944 0.0
C645 C 0.08186 0.05594 0.95066 0.0
C646 C 0.07647 0.06912 0.96807 0.0
C647 C 0.09822 0.07204 0.93094 0.0
C648 C 0.1261 0.14456 0.89234 0.0
H649 H 0.21027 0.16497 0.80155 0.0
H650 H 0.17992 0.13615 0.83351 0.0
H651 H 0.14132 0.18036 0.86229 0.0
H652 H 0.08395 0.10957 0.97826 0.0
H653 H 0.11239 0.13751 0.94428 0.0
H654 H 0.14947 0.09211 0.91513 0.0
C655 C 0.18854 0.15884 0.83297 0.0
C656 C 0.14356 0.1613 0.87385 0.0
C657 C 0.20591 0.17547 0.8144 0.0
C658 C 0.08754 0.09871 0.96506 0.0
C659 C 0.10379 0.11478 0.94539 0.0
C660 C 0.14719 0.11114 0.90351 0.0
C661 C 0.18192 0.17124 0.8501 0.0
C662 C 0.16319 0.1533 0.86991 0.0
C663 C 0.10956 0.10177 0.92807 0.0
C664 C 0.12768 0.11923 0.90758 0.0
H665 H 0.21914 0.24029 0.82853 0.0
H666 H 0.18913 0.21138 0.86104 0.0
H667 H 0.17972 0.12111 0.88301 0.0
H668 H 0.07374 0.03319 0.95252 0.0
H669 H 0.10184 0.06114 0.91784 0.0
C670 C 0.14014 0.01556 0.04841 0.0
C671 C 0.1208 0.01107 0.06366 0.0
C672 C 0.16582 0.0135 0.06299 0.0
C673 C 0.21058 1.00014 0.13618 0.0
H674 H 0.2129 0.94639 0.09774 0.0
C675 C 0.23007 0.90349 0.19461 0.0
C676 C 0.23921 0.89 0.18148 0.0
C677 C 0.22836 0.92905 0.18183 0.0
C678 C 0.21345 0.962 0.10866 0.0
H679 H 0.11409 0.00345 0.10619 0.0
H680 H 0.15837 0.99859 0.13164 0.0
H681 H 0.1859 0.97362 0.07127 0.0
H682 H 0.25677 0.89391 0.14667 0.0
H683 H 0.25432 0.93895 0.1245 0.0
H684 H 0.23683 0.98684 0.17422 0.0
C685 C 0.15411 0.00431 0.10851 0.0
C686 C 0.19781 0.97773 0.09336 0.0
C687 C 0.12858 0.00684 0.09393 0.0
C688 C 0.24909 0.9037 0.15684 0.0
C689 C 0.24771 0.92945 0.14423 0.0
C690 C 0.22634 0.98435 0.15154 0.0
C691 C 0.17241 0.00634 0.09304 0.0
C692 C 0.19502 0.99593 0.1073 0.0
C693 C 0.23598 0.94169 0.15577 0.0
C694 C 0.22669 0.96405 0.1383 0.0
H695 H 0.13491 0.01951 0.02506 0.0
H696 H 0.17976 0.01586 0.05052 0.0
H697 H 0.2093 0.01444 0.14734 0.0
H698 H 0.22227 0.89331 0.2136 0.0
H699 H 0.21893 0.93762 0.19119 0.0
C700 C 0.4575 0.90289 0.50955 0.0
C701 C 0.46289 0.93022 0.49545 0.0
C702 C 0.43651 0.8795 0.49525 0.0
C703 C 0.37165 0.85937 0.43641 0.0
H704 H 0.39132 0.80236 0.42498 0.0
C705 C 0.29463 0.77857 0.35614 0.0
C706 C 0.30694 0.77779 0.33581 0.0
C707 C 0.3117 0.79073 0.38177 0.0
C708 C 0.38545 0.81797 0.42826 0.0
H709 H 0.45089 0.95469 0.4556 0.0
H710 H 0.41419 0.9141 0.43099 0.0
H711 H 0.42516 0.83719 0.45897 0.0
H712 H 0.34647 0.78738 0.32688 0.0
H713 H 0.37634 0.80902 0.37143 0.0
H714 H 0.33271 0.84139 0.40475 0.0
C715 C 0.42598 0.91066 0.453 0.0
C716 C 0.40468 0.83769 0.44783 0.0
C717 C 0.4471 0.93386 0.46702 0.0
C718 C 0.33649 0.78797 0.34214 0.0
C719 C 0.35356 0.80006 0.36778 0.0
C720 C 0.3524 0.83962 0.41707 0.0
C721 C 0.42042 0.88331 0.46697 0.0
C722 C 0.3983 0.85916 0.45118 0.0
C723 C 0.34135 0.80221 0.38751 0.0
C724 C 0.35951 0.81934 0.41202 0.0
H725 H 0.46954 0.89964 0.53146 0.0
H726 H 0.43261 0.85853 0.50634 0.0
H727 H 0.36623 0.87566 0.43885 0.0
H728 H 0.27184 0.77055 0.35187 0.0
H729 H 0.30172 0.79186 0.39673 0.0
C730 C 0.36535 0.15302 0.70833 0.0
C731 C 0.34773 0.16574 0.68914 0.0
C732 C 0.38154 0.14519 0.69825 0.0
C733 C 0.38609 0.12943 0.63145 0.0
H734 H 0.46046 0.13495 0.67857 0.0
C735 C 0.45831 0.10174 0.59239 0.0
C736 C 0.47013 0.08386 0.61214 0.0
C737 C 0.44497 0.11416 0.60113 0.0
C738 C 0.43968 0.1332 0.66523 0.0
H739 H 0.33375 0.18083 0.64441 0.0
H740 H 0.36242 0.16764 0.6268 0.0
H741 H 0.43427 0.15241 0.69482 0.0
H742 H 0.47714 0.06523 0.65668 0.0
H743 H 0.45449 0.08736 0.67193 0.0
H744 H 0.39167 0.11028 0.60184 0.0
C745 C 0.36328 0.16313 0.64958 0.0
C746 C 0.4246 0.1431 0.67457 0.0
C747 C 0.3469 0.17076 0.65966 0.0
C748 C 0.46883 0.07928 0.64098 0.0
C749 C 0.45573 0.09189 0.64974 0.0
C750 C 0.40129 0.11975 0.62201 0.0
C751 C 0.38069 0.15008 0.66873 0.0
C752 C 0.39744 0.14101 0.65799 0.0
C753 C 0.44339 0.10921 0.62986 0.0
C754 C 0.4281 0.12121 0.63897 0.0
H755 H 0.3661 0.14849 0.7311 0.0
H756 H 0.39424 0.1347 0.71356 0.0
H757 H 0.36508 0.12707 0.61831 0.0
H758 H 0.4593 0.10613 0.57014 0.0
H759 H 0.43593 0.12769 0.58541 0.0
C760 C 0.14191 0.95046 0.71245 0.0
C761 C 0.11723 0.94823 0.69021 0.0
C762 C 0.14704 0.92646 0.72523 0.0
C763 C 0.13491 0.86584 0.69678 0.0
H764 H 0.17854 0.84808 0.77257 0.0
C765 C 0.19566 0.79819 0.7107 0.0
C766 C 0.22273 0.80696 0.72995 0.0
C767 C 0.17678 0.80912 0.71037 0.0
C768 C 0.1665 0.85289 0.75122 0.0
H769 H 0.07687 0.91876 0.66676 0.0
H770 H 0.08584 0.87709 0.68921 0.0
H771 H 0.15451 0.87856 0.76702 0.0
H772 H 0.25143 0.834 0.76389 0.0
H773 H 0.21936 0.85419 0.76222 0.0
H774 H 0.1486 0.84258 0.6803 0.0
C775 C 0.1013 0.89736 0.69651 0.0
C776 C 0.15252 0.87006 0.74818 0.0
C777 C 0.09614 0.92129 0.6838 0.0
C778 C 0.23065 0.82685 0.74878 0.0
C779 C 0.21204 0.83813 0.74811 0.0
C780 C 0.14926 0.84919 0.69969 0.0
C781 C 0.12756 0.89999 0.71586 0.0
C782 C 0.13722 0.87725 0.72079 0.0
C783 C 0.18484 0.82945 0.7289 0.0
C784 C 0.16598 0.84321 0.72679 0.0
H785 H 0.15831 0.97093 0.71815 0.0
H786 H 0.16746 0.92907 0.74017 0.0
H787 H 0.1237 0.87147 0.67528 0.0
H788 H 0.18886 0.78246 0.69636 0.0
H789 H 0.15586 0.80155 0.69562 0.0
C790 C 0.35478 0.83394 0.78094 0.0
C791 C 0.33662 0.8394 0.75481 0.0
C792 C 0.3715 0.85451 0.79997 0.0
C793 C 0.37562 0.91919 0.81893 0.0
H794 H 0.44755 0.92086 0.86978 0.0
C795 C 0.44958 0.95378 0.93773 0.0
C796 C 0.45756 0.98298 0.93465 0.0
C797 C 0.43573 0.93879 0.91354 0.0
C798 C 0.42751 0.92061 0.85566 0.0
H799 H 0.32262 0.87101 0.72726 0.0
H800 H 0.35269 0.9076 0.76026 0.0
H801 H 0.4237 0.89159 0.82988 0.0
H802 H 0.45608 0.01923 0.90423 0.0
H803 H 0.43081 0.99262 0.86184 0.0
H804 H 0.37995 0.94868 0.84484 0.0
C805 C 0.35342 0.8871 0.76638 0.0
C806 C 0.41375 0.90378 0.83289 0.0
C807 C 0.33641 0.86629 0.74737 0.0
C808 C 0.45026 0.99673 0.90714 0.0
C809 C 0.43586 0.98159 0.88295 0.0
C810 C 0.38969 0.93644 0.84147 0.0
C811 C 0.37085 0.88128 0.79314 0.0
C812 C 0.38723 0.9022 0.81473 0.0
C813 C 0.429 0.95261 0.88594 0.0
C814 C 0.41536 0.93668 0.86042 0.0
H815 H 0.35544 0.8134 0.78717 0.0
H816 H 0.38418 0.84897 0.82052 0.0
H817 H 0.35511 0.9183 0.80561 0.0
H818 H 0.45458 0.94261 0.95875 0.0
H819 H 0.43029 0.91636 0.91636 0.0
C820 C 0.42519 0.1091 0.04663 0.0
C821 C 0.44559 0.10005 0.06643 0.0
C822 C 0.40953 0.11809 0.05628 0.0
C823 C 0.38666 0.11413 0.12021 0.0
H824 H 0.37592 0.18172 0.08093 0.0
C825 C 0.34054 0.16835 0.16582 0.0
C826 C 0.32217 0.18003 0.1461 0.0
C827 C 0.35507 0.15802 0.15608 0.0
C828 C 0.37835 0.16259 0.09193 0.0
H829 H 0.465 0.09273 0.11199 0.0
H830 H 0.43782 0.10858 0.12882 0.0
H831 H 0.40174 0.16444 0.06394 0.0
H832 H 0.3049 0.19004 0.10052 0.0
H833 H 0.32956 0.17139 0.08357 0.0
H834 H 0.36316 0.11217 0.14813 0.0
C835 C 0.43386 0.10865 0.1058 0.0
C836 C 0.39321 0.15269 0.08218 0.0
C837 C 0.44964 0.09982 0.09615 0.0
C838 C 0.31861 0.18094 0.11636 0.0
C839 C 0.33308 0.17055 0.10663 0.0
C840 C 0.37168 0.12396 0.1299 0.0
C841 C 0.41376 0.1181 0.08598 0.0
C842 C 0.3976 0.12837 0.09622 0.0
C843 C 0.35159 0.15903 0.12634 0.0
C844 C 0.36736 0.14836 0.11592 0.0
H845 H 0.42169 0.10979 0.0236 0.0
H846 H 0.39402 0.12496 0.04044 0.0
H847 H 0.38934 0.09512 0.13129 0.0
H848 H 0.34358 0.16696 0.18886 0.0
H849 H 0.36936 0.14959 0.17193 0.0
C850 C 0.11193 0.0744 0.46345 0.0
C851 C 0.08408 0.05394 0.45495 0.0
C852 C 0.12673 0.09171 0.44293 0.0
C853 C 0.149 0.13599 0.39524 0.0
H854 H 0.13992 0.1049 0.32751 0.0
C855 C 0.20341 0.20499 0.30355 0.0
C856 C 0.21397 0.19245 0.29087 0.0
C857 C 0.18658 0.18882 0.32284 0.0
C858 C 0.14294 0.11398 0.34637 0.0
H859 H 0.05032 0.03563 0.41779 0.0
H860 H 0.07575 0.06608 0.38203 0.0
H861 H 0.11336 0.07536 0.36251 0.0
H862 H 0.21529 0.15315 0.28878 0.0
H863 H 0.18653 0.12526 0.32232 0.0
H864 H 0.1793 0.17437 0.3795 0.0
C865 C 0.08635 0.0686 0.40468 0.0
C866 C 0.12732 0.09704 0.36636 0.0
C867 C 0.07157 0.05121 0.42525 0.0
C868 C 0.20733 0.16348 0.29793 0.0
C869 C 0.1906 0.14738 0.31711 0.0
C870 C 0.16468 0.15294 0.37525 0.0
C871 C 0.11419 0.08919 0.41317 0.0
C872 C 0.13023 0.10767 0.39127 0.0
C873 C 0.17987 0.1597 0.32988 0.0
C874 C 0.16211 0.14213 0.35061 0.0
H875 H 0.12242 0.07719 0.48607 0.0
H876 H 0.14823 0.10685 0.45052 0.0
H877 H 0.1516 0.1452 0.41383 0.0
H878 H 0.20821 0.22729 0.29865 0.0
H879 H 0.1786 0.19913 0.33198 0.0
C880 C 0.87057 0.19636 0.16604 0.0
C881 C 0.84107 0.18676 0.15428 0.0
C882 C 0.88615 0.18554 0.15866 0.0
C883 C 0.88279 0.14731 0.10287 0.0
H884 H 0.9442 0.13316 0.16134 0.0
C885 C 0.93842 0.08615 0.08304 0.0
C886 C 0.9679 0.09549 0.09476 0.0
C887 C 0.92322 0.0979 0.08973 0.0
C888 C 0.92735 0.1373 0.14464 0.0
H889 H 0.80488 0.15765 0.12594 0.0
H890 H 0.83198 0.13879 0.11314 0.0
H891 H 0.91725 0.15207 0.17434 0.0
H892 H 1.00452 0.12531 0.12206 0.0
H893 H 0.97806 0.14571 0.13371 0.0
H894 H 0.89282 0.1324 0.07321 0.0
C895 C 0.84318 0.1551 0.12768 0.0
C896 C 0.91185 0.14817 0.15211 0.0
C897 C 0.8276 0.16593 0.13504 0.0
C898 C 0.9818 0.11722 0.11301 0.0
C899 C 0.96659 0.12893 0.11973 0.0
C900 C 0.89825 0.1364 0.09541 0.0
C901 C 0.87269 0.16478 0.13933 0.0
C902 C 0.88932 0.1533 0.13134 0.0
C903 C 0.93707 0.1193 0.10835 0.0
C904 C 0.92074 0.13122 0.11619 0.0
H905 H 0.88175 0.21266 0.18059 0.0
H906 H 0.90888 0.19384 0.16775 0.0
H907 H 0.86592 0.15142 0.08616 0.0
H908 H 0.9269 0.06918 0.06929 0.0
H909 H 0.90047 0.08968 0.08085 0.0
C910 C 0.07806 0.52832 0.43553 0.0
C911 C 0.07385 0.54424 0.45106 0.0
C912 C 0.0964 0.54162 0.41768 0.0
C913 C 0.15753 0.60687 0.40711 0.0
H914 H 0.13606 0.58584 0.32986 0.0
C915 C 0.23434 0.65932 0.33538 0.0
C916 C 0.22287 0.67011 0.30771 0.0
C917 C 0.2166 0.64002 0.35241 0.0
C918 C 0.14233 0.59184 0.35142 0.0
H919 H 0.08524 0.58659 0.45966 0.0
H920 H 0.11718 0.60976 0.42837 0.0
H921 H 0.1035 0.56088 0.36062 0.0
H922 H 0.18383 0.66783 0.27547 0.0
H923 H 0.15294 0.63432 0.30529 0.0
H924 H 0.19595 0.63832 0.39774 0.0
C925 C 0.1065 0.58699 0.4303 0.0
C926 C 0.12381 0.57748 0.36905 0.0
C927 C 0.08806 0.57372 0.44805 0.0
C928 C 0.19332 0.66003 0.29678 0.0
C929 C 0.17559 0.64067 0.31377 0.0
C930 C 0.17607 0.62111 0.38957 0.0
C931 C 0.111 0.57105 0.41513 0.0
C932 C 0.13109 0.58518 0.3969 0.0
C933 C 0.1871 0.6311 0.34204 0.0
C934 C 0.16851 0.61399 0.36143 0.0
H935 H 0.0674 0.50555 0.43734 0.0
H936 H 0.09962 0.52883 0.40635 0.0
H937 H 0.16381 0.61298 0.42863 0.0
H938 H 0.25702 0.66662 0.3444 0.0
H939 H 0.22599 0.63266 0.37401 0.0
C940 C 0.58968 0.94739 0.59346 0.0
C941 C 0.57824 0.94917 0.56261 0.0
C942 C 0.60614 0.9308 0.60987 0.0
C943 C 0.63665 0.8766 0.60374 0.0
H944 H 0.67015 0.88047 0.68577 0.0
C945 C 0.70466 0.80429 0.6743 0.0
C946 C 0.71984 0.80606 0.70433 0.0
C947 C 0.68822 0.82089 0.65776 0.0
C948 C 0.66134 0.87847 0.66288 0.0
H949 H 0.57774 0.93201 0.52683 0.0
H950 H 0.60518 0.9041 0.55419 0.0
H951 H 0.64283 0.90816 0.6584 0.0
H952 H 0.72708 0.82959 0.73842 0.0
H953 H 0.69954 0.85727 0.71091 0.0
H954 H 0.65514 0.84688 0.60824 0.0
C955 C 0.60153 0.91572 0.56644 0.0
C956 C 0.64488 0.89506 0.64645 0.0
C957 C 0.58515 0.9324 0.55004 0.0
C958 C 0.71661 0.82628 0.71591 0.0
C959 C 0.7001 0.8428 0.69942 0.0
C960 C 0.65302 0.85993 0.6202 0.0
C961 C 0.61307 0.9139 0.59738 0.0
C962 C 0.63153 0.89519 0.61585 0.0
C963 C 0.68491 0.84117 0.66931 0.0
C964 C 0.66643 0.85985 0.65079 0.0
H965 H 0.58592 0.95914 0.6055 0.0
H966 H 0.61342 0.93136 0.63303 0.0
H967 H 0.62777 0.87457 0.58086 0.0
H968 H 0.70544 0.78975 0.66304 0.0
H969 H 0.67784 0.81744 0.6353 0.0
C970 C 0.48792 0.41153 0.98794 0.0
C971 C 0.49808 0.44018 0.97748 0.0
C972 C 0.46927 0.39099 0.969 0.0
C973 C 0.44326 0.38006 0.89117 0.0
H974 H 0.37887 0.31762 0.91357 0.0
C975 C 0.34696 0.31218 0.80861 0.0
C976 C 0.33578 0.28287 0.81566 0.0
C977 C 0.3677 0.33003 0.82921 0.0
C978 C 0.39694 0.33475 0.90716 0.0
H979 H 0.49729 0.46987 0.93908 0.0
H980 H 0.46428 0.43431 0.90621 0.0
H981 H 0.41365 0.35137 0.94803 0.0
H982 H 0.33716 0.24915 0.84979 0.0
H983 H 0.37352 0.28052 0.88609 0.0
H984 H 0.42619 0.3638 0.8501 0.0
C985 C 0.47091 0.42749 0.92889 0.0
C986 C 0.4169 0.35407 0.92689 0.0
C987 C 0.4896 0.44794 0.94777 0.0
C988 C 0.34551 0.2717 0.84381 0.0
C989 C 0.36618 0.28962 0.86456 0.0
C990 C 0.42324 0.36088 0.87143 0.0
C991 C 0.46045 0.39875 0.93925 0.0
C992 C 0.44012 0.37717 0.919 0.0
C993 C 0.37761 0.31897 0.85739 0.0
C994 C 0.39969 0.33822 0.87908 0.0
H995 H 0.49422 0.40499 0.01077 0.0
H996 H 0.46191 0.36904 0.97766 0.0
H997 H 0.46119 0.39722 0.88455 0.0
H998 H 0.33973 0.32139 0.78709 0.0
H999 H 0.37578 0.35257 0.82316 0.0
C1000 C 0.8881 0.79967 0.32827 0.0
C1001 C 0.86002 0.79659 0.32179 0.0
C1002 C 0.90949 0.81769 0.34846 0.0
C1003 C 0.91965 0.85494 0.4087 0.0
H1004 H 0.99715 0.8921 0.40284 0.0
C1005 C 0.03284 0.9459 0.46671 0.0
C1006 C 0.02897 0.93947 0.49459 0.0
C1007 C 1.01404 0.92781 0.44538 0.0
C1008 C 0.9756 0.88214 0.40472 0.0
H1009 H 0.83235 0.81044 0.33067 0.0
H1010 H 0.86979 0.84312 0.3647 0.0
H1011 H 0.96012 0.86441 0.36469 0.0
H1012 H 1.00409 0.90878 0.52289 0.0
H1013 H 0.9728 0.87615 0.48665 0.0
H1014 H 0.93462 0.87393 0.44768 0.0
C1015 C 0.87531 0.8309 0.35507 0.0
C1016 C 0.95433 0.86585 0.38297 0.0
C1017 C 0.85382 0.8124 0.3353 0.0
C1018 C 1.00746 0.91399 0.50147 0.0
C1019 C 0.98924 0.8956 0.4805 0.0
C1020 C 0.94075 0.87159 0.43009 0.0
C1021 C 0.90342 0.83351 0.36228 0.0
C1022 C 0.92606 0.85182 0.38477 0.0
C1023 C 0.99143 0.90279 0.45183 0.0
C1024 C 0.96912 0.88517 0.42865 0.0
H1025 H 0.89348 0.78763 0.31823 0.0
H1026 H 0.93064 0.81862 0.3537 0.0
H1027 H 0.89833 0.84421 0.41126 0.0
H1028 H 0.04898 0.96583 0.46086 0.0
H1029 H 1.01635 0.93427 0.42356 0.0
C1030 C 0.40745 0.5848 0.56331 0.0
C1031 C 0.43722 0.59746 0.57043 0.0
C1032 C 0.39228 0.59726 0.56898 0.0
C1033 C 0.39884 0.66581 0.58093 0.0
H1034 H 0.33685 0.62123 0.61653 0.0
C1035 C 0.35062 0.71794 0.62565 0.0
C1036 C 0.32127 0.70526 0.62283 0.0
C1037 C 0.36379 0.70435 0.61841 0.0
C1038 C 0.35383 0.63398 0.60618 0.0
H1039 H 0.4743 0.63346 0.58859 0.0
H1040 H 0.44796 0.65502 0.5985 0.0
H1041 H 0.3612 0.59821 0.60509 0.0
H1042 H 0.28288 0.66801 0.61024 0.0
H1043 H 0.30569 0.64474 0.59674 0.0
H1044 H 0.39149 0.70153 0.58171 0.0
C1045 C 0.43629 0.63548 0.58855 0.0
C1046 C 0.36782 0.62074 0.59968 0.0
C1047 C 0.45141 0.62293 0.58315 0.0
C1048 C 0.30545 0.67863 0.61237 0.0
C1049 C 0.31863 0.66507 0.60499 0.0
C1050 C 0.38477 0.679 0.58723 0.0
C1051 C 0.40655 0.62285 0.58152 0.0
C1052 C 0.39069 0.63655 0.58725 0.0
C1053 C 0.34801 0.67773 0.60793 0.0
C1054 C 0.36224 0.66335 0.60023 0.0
H1055 H 0.3959 0.56512 0.55361 0.0
H1056 H 0.36937 0.58708 0.56315 0.0
H1057 H 0.41606 0.67855 0.5709 0.0
H1058 H 0.36352 0.73855 0.63328 0.0
H1059 H 0.3865 0.71465 0.6214 0.0
C1060 C 0.59529 0.07488 0.95388 0.0
C1061 C 0.57154 0.04991 0.94586 0.0
C1062 C 0.61469 0.0885 0.93716 0.0
C1063 C 0.62202 0.10112 0.86517 0.0
H1064 H 0.70107 0.11533 0.90092 0.0
C1065 C 0.70371 0.16025 0.7991 0.0
C1066 C 0.72952 0.18058 0.81298 0.0
C1067 C 0.68523 0.14018 0.81505 0.0
C1068 C 0.67916 0.11181 0.89064 0.0
H1069 H 0.54887 0.01998 0.91379 0.0
H1070 H 0.58242 0.0445 0.88397 0.0
H1071 H 0.66657 0.08998 0.9294 0.0
H1072 H 0.7569 0.19522 0.85443 0.0
H1073 H 0.72436 0.16117 0.88209 0.0
H1074 H 0.63443 0.12419 0.82693 0.0
C1075 C 0.58616 0.05314 0.90343 0.0
C1076 C 0.65946 0.09721 0.90694 0.0
C1077 C 0.56708 0.03918 0.92047 0.0
C1078 C 0.73718 0.17967 0.84318 0.0
C1079 C 0.7185 0.15999 0.85906 0.0
C1080 C 0.64177 0.11622 0.849 0.0
C1081 C 0.61028 0.07766 0.91189 0.0
C1082 C 0.63084 0.09201 0.89437 0.0
C1083 C 0.69197 0.14042 0.84513 0.0
C1084 C 0.67067 0.12204 0.8616 0.0
H1085 H 0.59929 0.08347 0.97346 0.0
H1086 H 0.63311 0.10755 0.94388 0.0
H1087 H 0.6 0.09739 0.85515 0.0
H1088 H 0.69747 0.16029 0.77583 0.0
H1089 H 0.66535 0.12495 0.80366 0.0
C1090 C 0.08925 0.44807 0.09372 0.0
C1091 C 0.07732 0.44917 0.06293 0.0
C1092 C 0.10568 0.43146 0.11028 0.0
C1093 C 0.13682 0.37772 0.10428 0.0
H1094 H 0.16701 0.3787 0.18691 0.0
C1095 C 0.20637 0.30685 0.17451 0.0
C1096 C 0.21867 0.3061 0.20523 0.0
C1097 C 0.18993 0.32344 0.15794 0.0
C1098 C 0.15915 0.37753 0.16385 0.0
H1099 H 0.0759 0.43087 0.0275 0.0
H1100 H 0.10332 0.4031 0.05507 0.0
H1101 H 0.13972 0.4064 0.15948 0.0
H1102 H 0.22083 0.32511 0.24052 0.0
H1103 H 0.19336 0.35282 0.21294 0.0
H1104 H 0.15625 0.34885 0.10866 0.0
C1105 C 0.10013 0.41522 0.06716 0.0
C1106 C 0.14275 0.39416 0.14737 0.0
C1107 C 0.08373 0.43181 0.05063 0.0
C1108 C 0.21265 0.32383 0.21745 0.0
C1109 C 0.19622 0.3404 0.20092 0.0
C1110 C 0.15321 0.36108 0.12076 0.0
C1111 C 0.11213 0.414 0.09802 0.0
C1112 C 0.13056 0.3953 0.11656 0.0
C1113 C 0.18384 0.34125 0.17012 0.0
C1114 C 0.1654 0.35994 0.15158 0.0
H1115 H 0.08589 0.46031 0.10555 0.0
H1116 H 0.1134 0.43256 0.13336 0.0
H1117 H 0.12895 0.37654 0.08122 0.0
H1118 H 0.20946 0.29435 0.16273 0.0
H1119 H 0.1819 0.32205 0.1349 0.0
C1120 C 0.60671 0.56482 0.95867 0.0
C1121 C 0.57956 0.56398 0.95351 0.0
C1122 C 0.62389 0.58166 0.93996 0.0
C1123 C 0.64048 0.64519 0.88976 0.0
H1124 H 0.66432 0.60798 0.85186 0.0
C1125 C 0.70108 0.70625 0.80068 0.0
C1126 C 0.71864 0.69611 0.79586 0.0
C1127 C 0.68449 0.69109 0.82038 0.0
C1128 C 0.6586 0.61911 0.86261 0.0
H1129 H 0.54964 0.58097 0.92502 0.0
H1130 H 0.58016 0.61118 0.89305 0.0
H1131 H 0.63606 0.58064 0.88594 0.0
H1132 H 0.73373 0.66298 0.80903 0.0
H1133 H 0.70667 0.63772 0.84437 0.0
H1134 H 0.66389 0.68387 0.86766 0.0
C1135 C 0.58787 0.5984 0.91133 0.0
C1136 C 0.64205 0.60318 0.88205 0.0
C1137 C 0.57036 0.58099 0.92958 0.0
C1138 C 0.72006 0.67114 0.81192 0.0
C1139 C 0.70414 0.65641 0.83208 0.0
C1140 C 0.65769 0.66133 0.87085 0.0
C1141 C 0.6147 0.59868 0.91609 0.0
C1142 C 0.6327 0.61597 0.89578 0.0
C1143 C 0.68549 0.66567 0.83632 0.0
C1144 C 0.66709 0.6486 0.85682 0.0
H1145 H 0.61442 0.55194 0.9768 0.0
H1146 H 0.64449 0.58147 0.94419 0.0
H1147 H 0.63367 0.65565 0.90014 0.0
H1148 H 0.69946 0.7254 0.78853 0.0
H1149 H 0.67037 0.69907 0.82245 0.0
C1150 C 0.71876 0.29968 0.25142 0.0
C1151 C 0.71523 0.28051 0.23394 0.0
C1152 C 0.69887 0.31091 0.24532 0.0
C1153 C 0.64236 0.32344 0.1857 0.0
H1154 H 0.63182 0.34827 0.24696 0.0
C1155 C 0.58466 0.39429 0.15735 0.0
C1156 C 0.60412 0.42078 0.16676 0.0
C1157 C 0.58956 0.37028 0.17033 0.0
C1158 C 0.63422 0.34102 0.22972 0.0
H1159 H 0.68793 0.25745 0.19681 0.0
H1160 H 0.65263 0.27656 0.18642 0.0
H1161 H 0.65741 0.31813 0.2592 0.0
H1162 H 0.642 0.44261 0.19899 0.0
H1163 H 0.65052 0.40048 0.22187 0.0
H1164 H 0.61954 0.34666 0.1563 0.0
C1165 C 0.67115 0.28352 0.20444 0.0
C1166 C 0.64912 0.32407 0.23664 0.0
C1167 C 0.69138 0.27263 0.21028 0.0
C1168 C 0.62686 0.42243 0.19126 0.0
C1169 C 0.63157 0.39833 0.20445 0.0
C1170 C 0.62703 0.33988 0.17883 0.0
C1171 C 0.6747 0.30286 0.22187 0.0
C1172 C 0.65444 0.31614 0.21469 0.0
C1173 C 0.61379 0.37239 0.19306 0.0
C1174 C 0.62379 0.34969 0.20077 0.0
H1175 H 0.737 0.30611 0.26984 0.0
H1176 H 0.7028 0.32631 0.25878 0.0
H1177 H 0.64623 0.31808 0.1682 0.0
H1178 H 0.56703 0.39244 0.13838 0.0
H1179 H 0.57557 0.35045 0.16127 0.0
C1180 C 0.95191 0.44153 0.45482 0.0
C1181 C 0.96061 0.47055 0.44637 0.0
C1182 C 0.93525 0.42223 0.43437 0.0
C1183 C 0.91436 0.41623 0.35607 0.0
H1184 H 0.85553 0.34546 0.37624 0.0
C1185 C 0.84148 0.29939 0.314 0.0
C1186 C 0.82956 0.30624 0.28485 0.0
C1187 C 0.85719 0.32024 0.33289 0.0
C1188 C 0.87202 0.36506 0.37039 0.0
H1189 H 0.95845 0.50227 0.41014 0.0
H1190 H 0.9287 0.46848 0.37433 0.0
H1191 H 0.88264 0.38054 0.41071 0.0
H1192 H 0.82539 0.34027 0.25225 0.0
H1193 H 0.85327 0.37697 0.28533 0.0
H1194 H 0.90342 0.40063 0.31558 0.0
C1195 C 0.93522 0.46063 0.39668 0.0
C1196 C 0.8876 0.38514 0.39014 0.0
C1197 C 0.95206 0.47997 0.41717 0.0
C1198 C 0.83435 0.33446 0.27467 0.0
C1199 C 0.85031 0.35542 0.29355 0.0
C1200 C 0.8986 0.39618 0.33621 0.0
C1201 C 0.92669 0.43153 0.40505 0.0
C1202 C 0.90919 0.41083 0.38337 0.0
C1203 C 0.86155 0.34842 0.32292 0.0
C1204 C 0.87752 0.37027 0.34334 0.0
H1205 H 0.9582 0.43369 0.47722 0.0
H1206 H 0.92947 0.40002 0.44153 0.0
H1207 H 0.93106 0.43565 0.3503 0.0
H1208 H 0.8384 0.27783 0.32232 0.0
H1209 H 0.86601 0.31433 0.35531 0.0
C1210 C 0.57153 0.56488 0.43833 0.0
C1211 C 0.58021 0.56887 0.46777 0.0
C1212 C 0.5899 0.5807 0.42042 0.0
C1213 C 0.66591 0.62263 0.42219 0.0
H1214 H 0.63819 0.65852 0.34784 0.0
C1215 C 0.73384 0.68163 0.3396 0.0
C1216 C 0.73338 0.70767 0.32553 0.0
C1217 C 0.71519 0.66425 0.35673 0.0
C1218 C 0.64631 0.64872 0.36858 0.0
H1219 H 0.61523 0.59202 0.50157 0.0
H1220 H 0.64724 0.61901 0.47068 0.0
H1221 H 0.60561 0.62826 0.37767 0.0
H1222 H 0.71259 0.73559 0.31862 0.0
H1223 H 0.67993 0.70517 0.34824 0.0
H1224 H 0.7066 0.64308 0.4132 0.0
C1225 C 0.62628 0.60385 0.46127 0.0
C1226 C 0.62754 0.63112 0.38557 0.0
C1227 C 0.60785 0.58842 0.47899 0.0
C1228 C 0.71369 0.71579 0.32914 0.0
C1229 C 0.69477 0.69821 0.34598 0.0
C1230 C 0.68457 0.63989 0.40505 0.0
C1231 C 0.61753 0.60048 0.43166 0.0
C1232 C 0.63713 0.61801 0.41274 0.0
C1233 C 0.69524 0.67218 0.36003 0.0
C1234 C 0.67512 0.65338 0.37809 0.0
H1235 H 0.55037 0.55 0.42901 0.0
H1236 H 0.58252 0.57737 0.39777 0.0
H1237 H 0.67404 0.61277 0.44289 0.0
H1238 H 0.74862 0.67458 0.33739 0.0
H1239 H 0.71606 0.6443 0.367 0.0
C1240 C 0.81045 0.29768 0.84072 0.0
C1241 C 0.7937 0.30705 0.81597 0.0
C1242 C 0.82651 0.31427 0.86358 0.0
C1243 C 0.85678 0.38805 0.88043 0.0
H1244 H 0.87399 0.35359 0.95898 0.0
C1245 C 0.92564 0.45174 0.979 0.0
C1246 C 0.94988 0.44633 0.99299 0.0
C1247 C 0.90333 0.43396 0.95913 0.0
C1248 C 0.86918 0.3634 0.93714 0.0
H1249 H 0.77964 0.34054 0.79589 0.0
H1250 H 0.80674 0.36915 0.83636 0.0
H1251 H 0.83989 0.32404 0.92066 0.0
H1252 H 0.96961 0.41784 0.99826 0.0
H1253 H 0.93011 0.38618 0.96414 0.0
H1254 H 0.8859 0.42748 0.89732 0.0
C1255 C 0.8083 0.34941 0.83783 0.0
C1256 C 0.84987 0.34655 0.91512 0.0
C1257 C 0.79262 0.33297 0.81471 0.0
C1258 C 0.95106 0.42234 0.98774 0.0
C1259 C 0.92852 0.40426 0.96836 0.0
C1260 C 0.87565 0.40493 0.90257 0.0
C1261 C 0.82573 0.34041 0.86245 0.0
C1262 C 0.84393 0.35858 0.88635 0.0
C1263 C 0.90474 0.41023 0.95354 0.0
C1264 C 0.88241 0.39266 0.93094 0.0
H1265 H 0.81157 0.27771 0.84224 0.0
H1266 H 0.84005 0.30682 0.88182 0.0
H1267 H 0.85316 0.3981 0.85856 0.0
H1268 H 0.92438 0.47026 0.98257 0.0
H1269 H 0.88514 0.43891 0.94786 0.0
C1270 C 0.84773 0.83955 0.20102 0.0
C1271 C 0.84257 0.81092 0.20937 0.0
C1272 C 0.86569 0.85611 0.18299 0.0
C1273 C 0.92518 0.86196 0.1592 0.0
H1274 H 0.90046 0.90889 0.09301 0.0
C1275 C 0.9984 0.94286 0.08637 0.0
C1276 C 0.98644 0.94078 0.05653 0.0
C1277 C 0.98161 0.9282 0.10596 0.0
C1278 C 0.90773 0.89596 0.11145 0.0
H1279 H 0.85276 0.7775 0.20548 0.0
H1280 H 0.88451 0.80658 0.17449 0.0
H1281 H 0.86979 0.88064 0.12518 0.0
H1282 H 0.94736 0.92243 0.02386 0.0
H1283 H 0.91811 0.89765 0.05778 0.0
H1284 H 0.9632 0.87743 0.14546 0.0
C1285 C 0.87447 0.81613 0.18179 0.0
C1286 C 0.8902 0.87987 0.12998 0.0
C1287 C 0.8561 0.7994 0.19941 0.0
C1288 C 0.95726 0.92442 0.04671 0.0
C1289 C 0.94044 0.91028 0.06616 0.0
C1290 C 0.94296 0.87848 0.14094 0.0
C1291 C 0.87942 0.84469 0.17323 0.0
C1292 C 0.89854 0.86242 0.15396 0.0
C1293 C 0.95239 0.91169 0.09607 0.0
C1294 C 0.93433 0.89547 0.11664 0.0
H1295 H 0.83771 0.84917 0.20823 0.0
H1296 H 0.86914 0.87805 0.177 0.0
H1297 H 0.93237 0.84894 0.17758 0.0
H1298 H 1.02081 0.95529 0.09459 0.0
H1299 H 0.99144 0.92988 0.12885 0.0
C1300 C 0.84933 0.12919 0.86926 0.0
C1301 C 0.86471 0.14754 0.84952 0.0
C1302 C 0.84918 0.10241 0.87832 0.0
C1303 C 0.8709 0.05072 0.86531 0.0
H1304 H 0.89578 0.04195 0.94889 0.0
C1305 C 0.95569 0.01086 0.92795 0.0
C1306 C 0.95817 1.00139 0.95734 0.0
C1307 C 0.93263 0.01713 0.91134 0.0
C1308 C 0.888 0.04321 0.92557 0.0
H1309 H 0.89091 0.15197 0.82275 0.0
H1310 H 0.89132 0.10547 0.83911 0.0
H1311 H 0.87592 0.0759 0.92511 0.0
H1312 H 0.93714 0.98727 0.99167 0.0
H1313 H 0.89624 0.99708 0.96241 0.0
H1314 H 0.88459 0.01894 0.86595 0.0
C1315 C 0.87886 0.11147 0.84715 0.0
C1316 C 0.87661 0.06288 0.91188 0.0
C1317 C 0.87888 0.1382 0.83799 0.0
C1318 C 0.93591 0.99526 0.96914 0.0
C1319 C 0.91254 1.00087 0.95239 0.0
C1320 C 0.88218 0.03082 0.87905 0.0
C1321 C 0.86455 0.09356 0.86791 0.0
C1322 C 0.86931 0.06785 0.88164 0.0
C1323 C 0.91151 0.01352 0.92384 0.0
C1324 C 0.89224 0.02795 0.90933 0.0
H1325 H 0.83762 0.13567 0.87791 0.0
H1326 H 0.83774 0.08893 0.89411 0.0
H1327 H 0.86489 0.05379 0.84192 0.0
H1328 H 0.97261 0.01558 0.91841 0.0
H1329 H 0.9327 0.02699 0.8895 0.0
C1330 C 0.75004 0.17266 0.71792 0.0
C1331 C 0.75888 0.20199 0.71339 0.0
C1332 C 0.73238 0.15616 0.69514 0.0
C1333 C 0.68195 0.15886 0.62372 0.0
H1334 H 0.68558 0.08963 0.6184 0.0
C1335 C 0.59112 0.07617 0.55132 0.0
C1336 C 0.59759 0.06085 0.53746 0.0
C1337 C 0.61231 0.0942 0.5715 0.0
C1338 C 0.68451 0.1091 0.6193 0.0
H1339 H 0.75733 0.23734 0.6816 0.0
H1340 H 0.72744 0.20877 0.6416 0.0
H1341 H 0.72097 0.11993 0.65545 0.0
H1342 H 0.63123 0.05268 0.53316 0.0
H1343 H 0.66862 0.08501 0.56782 0.0
H1344 H 0.64609 0.14857 0.58711 0.0
C1345 C 0.73328 0.19828 0.6628 0.0
C1346 C 0.70457 0.12628 0.64083 0.0
C1347 C 0.75056 0.21469 0.68565 0.0
C1348 C 0.62572 0.06424 0.54367 0.0
C1349 C 0.64705 0.08256 0.56367 0.0
C1350 C 0.66214 0.14189 0.60204 0.0
C1351 C 0.72356 0.16877 0.66735 0.0
C1352 C 0.70332 0.1512 0.64352 0.0
C1353 C 0.64055 0.09765 0.57794 0.0
C1354 C 0.66288 0.11658 0.59982 0.0
H1355 H 0.7561 0.16241 0.73922 0.0
H1356 H 0.72499 0.13349 0.69956 0.0
H1357 H 0.68004 0.17767 0.62531 0.0
H1358 H 0.56959 0.074 0.54685 0.0
H1359 H 0.60639 0.10504 0.58242 0.0
C1360 C 0.6268 0.9621 0.409 0.0
C1361 C 0.59703 0.95062 0.40042 0.0
C1362 C 0.64171 0.95044 0.40173 0.0
C1363 C 0.63378 0.90532 0.35029 0.0
H1364 H 0.70084 0.89894 0.40527 0.0
C1365 C 0.68931 0.84621 0.32805 0.0
C1366 C 0.71901 0.85941 0.33416 0.0
C1367 C 0.67446 0.85623 0.33763 0.0
C1368 C 0.68228 0.90079 0.3896 0.0
H1369 H 0.55962 0.91744 0.37804 0.0
H1370 H 0.58555 0.89708 0.36546 0.0
H1371 H 0.67493 0.91885 0.41876 0.0
H1372 H 0.75644 0.89286 0.35613 0.0
H1373 H 0.7305 0.91055 0.37259 0.0
H1374 H 0.64112 0.88731 0.32112 0.0
C1375 C 0.59743 0.91544 0.37732 0.0
C1376 C 0.66745 0.91224 0.3973 0.0
C1377 C 0.58254 0.92713 0.38453 0.0
C1378 C 0.73355 0.88238 0.35081 0.0
C1379 C 0.7187 0.89236 0.36047 0.0
C1380 C 0.64856 0.89382 0.34262 0.0
C1381 C 0.62721 0.92698 0.38576 0.0
C1382 C 0.64301 0.91468 0.37772 0.0
C1383 C 0.68894 0.87967 0.35361 0.0
C1384 C 0.673 0.89142 0.36216 0.0
H1385 H 0.63861 0.98039 0.42097 0.0
H1386 H 0.66463 0.96014 0.40822 0.0
H1387 H 0.61537 0.90732 0.33447 0.0
H1388 H 0.6774 0.82866 0.31504 0.0
H1389 H 0.65157 0.84573 0.3323 0.0
C1390 C 0.84699 0.1974 0.31758 0.0
C1391 C 0.82267 0.19041 0.29433 0.0
C1392 C 0.86598 0.18512 0.32262 0.0
C1393 C 0.88453 0.14428 0.28703 0.0
H1394 H 0.91931 0.12292 0.36596 0.0
C1395 C 0.91914 0.05214 0.32862 0.0
C1396 C 0.94366 0.05647 0.35162 0.0
C1397 C 0.91051 0.07412 0.31631 0.0
C1398 C 0.91019 0.12926 0.34378 0.0
H1399 H 0.79845 0.16452 0.25873 0.0
H1400 H 0.83056 0.14206 0.26836 0.0
H1401 H 0.89092 0.14944 0.3569 0.0
H1402 H 0.97983 0.08781 0.37778 0.0
H1403 H 0.96466 0.12595 0.35627 0.0
H1404 H 0.90239 0.12208 0.27425 0.0
C1405 C 0.83582 0.15781 0.28204 0.0
C1406 C 0.89393 0.14451 0.33857 0.0
C1407 C 0.81717 0.17039 0.27676 0.0
C1408 C 0.96092 0.0838 0.35997 0.0
C1409 C 0.95218 0.10564 0.34784 0.0
C1410 C 0.90041 0.12853 0.29231 0.0
C1411 C 0.86069 0.16531 0.30475 0.0
C1412 C 0.8804 0.15171 0.31015 0.0
C1413 C 0.9262 0.10055 0.32703 0.0
C1414 C 0.91299 0.12058 0.32074 0.0
H1415 H 0.85186 0.21311 0.33116 0.0
H1416 H 0.88506 0.19161 0.34013 0.0
H1417 H 0.87501 0.1501 0.26483 0.0
H1418 H 0.90561 0.03133 0.32163 0.0
H1419 H 0.89033 0.06974 0.30027 0.0
C1420 C 0.69755 0.17612 0.21492 0.0
C1421 C 0.70975 0.16843 0.24367 0.0
C1422 C 0.67968 0.15571 0.19591 0.0
C1423 C 0.6618 0.08385 0.18331 0.0
H1424 H 0.59673 0.0931 0.12688 0.0
C1425 C 0.58566 0.04922 0.06429 0.0
C1426 C 0.57617 0.01981 0.06848 0.0
C1427 C 0.60086 0.06515 0.08773 0.0
C1428 C 0.61488 0.0903 0.14245 0.0
H1429 H 0.71275 0.13342 0.27531 0.0
H1430 H 0.68104 0.09737 0.24191 0.0
H1431 H 0.62443 0.12453 0.16482 0.0
H1432 H 0.5758 0.98394 0.10022 0.0
H1433 H 0.60291 0.01201 0.14144 0.0
H1434 H 0.65219 0.04965 0.16055 0.0
C1435 C 0.68558 0.1193 0.23409 0.0
C1436 C 0.63076 0.10829 0.16416 0.0
C1437 C 0.70355 0.13985 0.25321 0.0
C1438 C 0.58288 0.00662 0.09646 0.0
C1439 C 0.59837 0.02264 0.11998 0.0
C1440 C 0.64576 0.06569 0.16159 0.0
C1441 C 0.67345 0.12706 0.20522 0.0
C1442 C 0.65481 0.10574 0.1844 0.0
C1443 C 0.60712 0.05202 0.11584 0.0
C1444 C 0.62257 0.06923 0.14056 0.0
H1445 H 0.70197 0.19801 0.20696 0.0
H1446 H 0.67114 0.16248 0.17371 0.0
H1447 H 0.68033 0.08147 0.19847 0.0
H1448 H 0.58101 0.05996 0.04291 0.0
H1449 H 0.60778 0.08782 0.08383 0.0
C1450 C 0.6945 0.82695 0.84784 0.0
C1451 C 0.71153 0.81429 0.8685 0.0
C1452 C 0.6786 0.83665 0.85623 0.0
C1453 C 0.64952 0.8301 0.91683 0.0
H1454 H 0.64518 0.90101 0.87976 0.0
C1455 C 0.60409 0.88616 0.96058 0.0
C1456 C 0.58599 0.89781 0.94027 0.0
C1457 C 0.61927 0.87606 0.95159 0.0
C1458 C 0.64594 0.88103 0.89013 0.0
H1459 H 0.72454 0.80134 0.91419 0.0
H1460 H 0.69743 0.81879 0.92886 0.0
H1461 H 0.67139 0.88281 0.86446 0.0
H1462 H 0.5702 0.9085 0.89453 0.0
H1463 H 0.59655 0.89071 0.87883 0.0
H1464 H 0.62428 0.82848 0.94266 0.0
C1465 C 0.69609 0.82099 0.9061 0.0
C1466 C 0.66094 0.87055 0.88132 0.0
C1467 C 0.71194 0.81127 0.89771 0.0
C1468 C 0.58375 0.89942 0.91074 0.0
C1469 C 0.59906 0.88947 0.90175 0.0
C1470 C 0.63463 0.84064 0.9257 0.0
C1471 C 0.67932 0.83397 0.8855 0.0
C1472 C 0.66297 0.84495 0.89458 0.0
C1473 C 0.61687 0.87748 0.92206 0.0
C1474 C 0.63269 0.86626 0.9125 0.0
H1475 H 0.69386 0.82993 0.82519 0.0
H1476 H 0.66567 0.84619 0.83971 0.0
H1477 H 0.65019 0.8101 0.9272 0.0
H1478 H 0.60613 0.88434 0.98347 0.0
H1479 H 0.63304 0.86725 0.96783 0.0
C1480 C 0.99631 0.95683 0.61094 0.0
C1481 C 0.98653 0.951 0.58195 0.0
C1482 C 0.98054 0.93993 0.63093 0.0
C1483 C 0.92449 0.86898 0.64359 0.0
H1484 H 0.91279 0.90391 0.69558 0.0
C1485 C 0.84099 0.8052 0.70948 0.0
C1486 C 0.84621 0.81292 0.73678 0.0
C1487 C 0.85931 0.82154 0.69173 0.0
C1488 C 0.91614 0.89363 0.68161 0.0
H1489 H 0.95244 0.92245 0.55154 0.0
H1490 H 0.9253 0.89318 0.58618 0.0
H1491 H 0.94286 0.93318 0.66335 0.0
H1492 H 0.87536 0.84355 0.76719 0.0
H1493 H 0.9077 0.87152 0.73685 0.0
H1494 H 0.89808 0.82943 0.66189 0.0
C1495 C 0.94517 0.91072 0.59359 0.0
C1496 C 0.93342 0.91054 0.66302 0.0
C1497 C 0.96071 0.92772 0.57361 0.0
C1498 C 0.8706 0.83704 0.7462 0.0
C1499 C 0.88905 0.85327 0.7286 0.0
C1500 C 0.90742 0.85204 0.66234 0.0
C1501 C 0.95476 0.91657 0.62252 0.0
C1502 C 0.93761 0.89849 0.64352 0.0
C1503 C 0.88357 0.84601 0.70089 0.0
C1504 C 0.90271 0.86407 0.68151 0.0
H1505 H 1.01598 0.97462 0.61814 0.0
H1506 H 0.98869 0.945 0.65306 0.0
H1507 H 0.92755 0.85888 0.6292 0.0
H1508 H 0.82243 0.78687 0.70152 0.0
H1509 H 0.85396 0.81528 0.67049 0.0
C1510 C 0.20753 0.81371 0.86268 0.0
C1511 C 0.23705 0.82664 0.8666 0.0
C1512 C 0.19386 0.82591 0.87116 0.0
C1513 C 0.20257 0.89348 0.88908 0.0
H1514 H 0.14006 0.8448 0.92293 0.0
C1515 C 0.14666 0.93594 0.93688 0.0
C1516 C 0.11693 0.92241 0.93015 0.0
C1517 C 0.16232 0.92499 0.92975 0.0
C1518 C 0.15732 0.8587 0.91328 0.0
H1519 H 0.27522 0.86291 0.88239 0.0
H1520 H 0.25145 0.88383 0.89787 0.0
H1521 H 0.16548 0.82439 0.90963 0.0
H1522 H 0.08046 0.88648 0.91102 0.0
H1523 H 0.10761 0.8677 0.89837 0.0
H1524 H 0.19431 0.92782 0.89289 0.0
C1525 C 0.23883 0.86435 0.88788 0.0
C1526 C 0.1719 0.84698 0.90559 0.0
C1527 C 0.25252 0.85215 0.87932 0.0
C1528 C 0.10329 0.89768 0.91619 0.0
C1529 C 0.1189 0.88669 0.90925 0.0
C1530 C 0.18801 0.90524 0.89689 0.0
C1531 C 0.2093 0.85137 0.88395 0.0
C1532 C 0.19454 0.86415 0.89311 0.0
C1533 C 0.14861 0.90012 0.91601 0.0
C1534 C 0.16501 0.88794 0.90881 0.0
H1535 H 0.1949 0.79391 0.85327 0.0
H1536 H 0.17107 0.81547 0.86739 0.0
H1537 H 0.21967 0.90735 0.87922 0.0
H1538 H 0.15782 0.95509 0.94748 0.0
H1539 H 0.1852 0.93575 0.93543 0.0
C1540 C 0.96384 0.47199 0.585 0.0
C1541 C 0.96881 0.45579 0.57053 0.0
C1542 C 0.94591 0.45894 0.60327 0.0
C1543 C 0.88711 0.39259 0.61719 0.0
H1544 H 0.90781 0.41808 0.69216 0.0
C1545 C 0.85385 0.34348 0.72908 0.0
C1546 C 0.82431 0.33063 0.7181 0.0
C1547 C 0.87072 0.36325 0.71148 0.0
C1548 C 0.90174 0.41082 0.67124 0.0
H1549 H 0.9592 0.41321 0.56428 0.0
H1550 H 0.92801 0.39045 0.59637 0.0
H1551 H 0.93963 0.44245 0.66059 0.0
H1552 H 0.78908 0.33033 0.68094 0.0
H1553 H 0.81856 0.36505 0.65035 0.0
H1554 H 0.84977 0.36043 0.62807 0.0
C1555 C 0.93774 0.41325 0.59324 0.0
C1556 C 0.91984 0.42484 0.65313 0.0
C1557 C 0.95574 0.42629 0.57501 0.0
C1558 C 0.81182 0.33954 0.68992 0.0
C1559 C 0.82869 0.35933 0.67235 0.0
C1560 C 0.86903 0.37866 0.63521 0.0
C1561 C 0.93251 0.42946 0.60738 0.0
C1562 C 0.91286 0.41557 0.62611 0.0
C1563 C 0.85834 0.37059 0.68262 0.0
C1564 C 0.8763 0.3874 0.66256 0.0
H1565 H 0.97356 0.49479 0.58203 0.0
H1566 H 0.94207 0.47194 0.61372 0.0
H1567 H 0.88102 0.38524 0.59631 0.0
H1568 H 0.86413 0.33719 0.75076 0.0
H1569 H 0.89352 0.37146 0.71997 0.0
C1570 C 0.45921 0.06951 0.46759 0.0
C1571 C 0.47179 0.05822 0.45507 0.0
C1572 C 0.44289 0.08628 0.45125 0.0
C1573 C 0.41022 0.11719 0.37087 0.0
H1574 H 0.38617 0.15246 0.41046 0.0
C1575 C 0.33785 0.18528 0.30104 0.0
C1576 C 0.33055 0.20184 0.31345 0.0
C1577 C 0.35432 0.16874 0.31754 0.0
C1578 C 0.3923 0.14315 0.39812 0.0
H1579 H 0.47445 0.05829 0.41229 0.0
H1580 H 0.44703 0.08618 0.38484 0.0
H1581 H 0.41347 0.12466 0.43783 0.0
H1582 H 0.3375 0.21139 0.35632 0.0
H1583 H 0.365 0.18358 0.38411 0.0
H1584 H 0.389 0.13561 0.33117 0.0
C1585 C 0.44965 0.08221 0.40793 0.0
C1586 C 0.40861 0.1264 0.41454 0.0
C1587 C 0.46609 0.06557 0.4243 0.0
C1588 C 0.3416 0.19986 0.34437 0.0
C1589 C 0.35797 0.18318 0.36092 0.0
C1590 C 0.39378 0.13381 0.35445 0.0
C1591 C 0.43706 0.09363 0.42038 0.0
C1592 C 0.41863 0.1124 0.40195 0.0
C1593 C 0.36538 0.1666 0.34853 0.0
C1594 C 0.38382 0.14787 0.36704 0.0
H1595 H 0.46198 0.06542 0.49073 0.0
H1596 H 0.43461 0.09342 0.46344 0.0
H1597 H 0.41626 0.10782 0.35851 0.0
H1598 H 0.33069 0.18497 0.27781 0.0
H1599 H 0.3582 0.15725 0.30536 0.0
C1600 C 0.56249 0.56927 0.07184 0.0
C1601 C 0.55386 0.57646 0.04204 0.0
C1602 C 0.58326 0.58975 0.08988 0.0
C1603 C 0.64212 0.66036 0.08891 0.0
H1604 H 0.63666 0.6566 0.16613 0.0
C1605 C 0.72081 0.74425 0.16937 0.0
C1606 C 0.72959 0.73329 0.19793 0.0
C1607 C 0.69948 0.72632 0.14892 0.0
C1608 C 0.63856 0.65781 0.14468 0.0
H1609 H 0.5595 0.61073 1.00769 0.0
H1610 H 0.59545 0.64681 0.03933 0.0
H1611 H 0.59827 0.62347 0.13318 0.0
H1612 H 0.72377 0.69503 0.22734 0.0
H1613 H 0.68672 0.66389 0.1918 0.0
H1614 H 0.6825 0.69493 0.10062 0.0
C1615 C 0.58661 0.62522 0.04871 0.0
C1616 C 0.61659 0.63879 0.1258 0.0
C1617 C 0.56587 0.60464 0.03063 0.0
C1618 C 0.71731 0.7041 0.2055 0.0
C1619 C 0.69597 0.68628 0.18522 0.0
C1620 C 0.66407 0.67956 0.10779 0.0
C1621 C 0.59568 0.61797 0.07854 0.0
C1622 C 0.61828 0.63952 0.09784 0.0
C1623 C 0.68651 0.69721 0.15684 0.0
C1624 C 0.66268 0.67815 0.13602 0.0
H1625 H 0.55335 0.54773 0.08123 0.0
H1626 H 0.58996 0.58331 0.11266 0.0
H1627 H 0.64425 0.66133 0.06762 0.0
H1628 H 0.73 0.76669 0.163 0.0
H1629 H 0.69256 0.73529 0.12719 0.0
C1630 C 0.18748 0.24362 0.66489 0.0
C1631 C 0.20133 0.23217 0.69061 0.0
C1632 C 0.16417 0.22593 0.64557 0.0
C1633 C 0.11054 0.15184 0.63995 0.0
H1634 H 0.10861 0.16978 0.55867 0.0
C1635 C 0.02911 0.0747 0.55471 0.0
C1636 C 0.04209 0.06992 0.53754 0.0
C1637 C 0.04425 0.09739 0.57166 0.0
C1638 C 0.10873 0.16457 0.58128 0.0
H1639 H 0.20183 0.19339 0.71636 0.0
H1640 H 0.16165 0.16257 0.68247 0.0
H1641 H 0.14396 0.20343 0.59273 0.0
H1642 H 0.08039 0.08552 0.52357 0.0
H1643 H 0.10648 0.12474 0.55272 0.0
H1644 H 0.07626 0.11226 0.62859 0.0
C1645 C 0.16827 0.18513 0.67741 0.0
C1646 C 0.12885 0.18396 0.60079 0.0
C1647 C 0.19149 0.20279 0.69671 0.0
C1648 C 0.06985 0.08868 0.53665 0.0
C1649 C 0.08475 0.11134 0.55321 0.0
C1650 C 0.0904 0.13242 0.62041 0.0
C1651 C 0.15432 0.19646 0.65159 0.0
C1652 C 0.13055 0.17748 0.63048 0.0
C1653 C 0.07236 0.11576 0.57126 0.0
C1654 C 0.08988 0.13823 0.591 0.0
H1655 H 0.19458 0.26622 0.65975 0.0
H1656 H 0.15379 0.23534 0.62598 0.0
H1657 H 0.11094 0.14643 0.66263 0.0
H1658 H 1.00775 0.06042 0.55581 0.0
H1659 H 0.03415 0.10035 0.58535 0.0
C1660 C 0.69602 0.31405 0.35369 0.0
C1661 C 0.70721 0.29615 0.37434 0.0
C1662 C 0.6823 0.32703 0.36107 0.0
C1663 C 0.67584 0.34771 0.42402 0.0
H1664 H 0.60772 0.35311 0.37067 0.0
C1665 C 0.60866 0.38861 0.45575 0.0
C1666 C 0.59661 0.40549 0.43452 0.0
C1667 C 0.62192 0.37494 0.44864 0.0
C1668 C 0.62692 0.35212 0.38573 0.0
H1669 H 0.71198 0.27752 0.41889 0.0
H1670 H 0.68834 0.30027 0.43173 0.0
H1671 H 0.6312 0.33024 0.3577 0.0
H1672 H 0.58989 0.4218 0.38926 0.0
H1673 H 0.61308 0.39829 0.37696 0.0
H1674 H 0.67172 0.36979 0.45197 0.0
C1675 C 0.69055 0.30461 0.40991 0.0
C1676 C 0.64039 0.33895 0.37826 0.0
C1677 C 0.70417 0.29155 0.40252 0.0
C1678 C 0.5984 0.40852 0.40608 0.0
C1679 C 0.61172 0.39498 0.399 0.0
C1680 C 0.66242 0.36097 0.43146 0.0
C1681 C 0.67945 0.32256 0.38931 0.0
C1682 C 0.66505 0.33657 0.39729 0.0
C1683 C 0.62362 0.37791 0.42013 0.0
C1684 C 0.63777 0.36342 0.4124 0.0
H1685 H 0.69828 0.31848 0.33189 0.0
H1686 H 0.67437 0.34101 0.34473 0.0
H1687 H 0.69501 0.34665 0.43906 0.0
H1688 H 0.60743 0.38556 0.47781 0.0
H1689 H 0.63046 0.36169 0.46545 0.0
C1690 C 0.46423 0.9651 0.08198 0.0
C1691 C 0.46426 0.95146 0.06095 0.0
C1692 C 0.44871 0.94982 0.10225 0.0
C1693 C 0.42831 0.90869 0.15261 0.0
H1694 H 0.35181 0.85276 0.12717 0.0
C1695 C 0.36571 0.822 0.2291 0.0
C1696 C 0.33654 0.81498 0.22239 0.0
C1697 C 0.38185 0.84164 0.21075 0.0
C1698 C 0.37304 0.86852 0.13457 0.0
H1699 H 0.44794 0.91111 0.04464 0.0
H1700 H 0.4208 0.88449 0.08003 0.0
H1701 H 0.37859 0.88079 0.09181 0.0
H1702 H 0.30179 0.82438 0.19223 0.0
H1703 H 0.33 0.85863 0.16039 0.0
H1704 H 0.42271 0.89626 0.19544 0.0
C1705 C 0.43268 0.90703 0.08068 0.0
C1706 C 0.38847 0.8843 0.11437 0.0
C1707 C 0.44832 0.92226 0.06051 0.0
C1708 C 0.32416 0.82907 0.19786 0.0
C1709 C 0.34026 0.84861 0.17953 0.0
C1710 C 0.41292 0.89274 0.17287 0.0
C1711 C 0.43278 0.92066 0.10177 0.0
C1712 C 0.41629 0.90444 0.1232 0.0
C1713 C 0.36907 0.85453 0.18538 0.0
C1714 C 0.38516 0.87246 0.16403 0.0
H1715 H 0.47632 0.98758 0.08296 0.0
H1716 H 0.44894 0.96089 0.1181 0.0
H1717 H 0.44981 0.92396 0.16001 0.0
H1718 H 0.37587 0.81156 0.24788 0.0
H1719 H 0.40401 0.84573 0.21571 0.0
C1720 C 0.96386 0.57501 0.96753 0.0
C1721 C 0.97009 0.55749 0.95526 0.0
C1722 C 0.94759 0.59168 0.95097 0.0
C1723 C 0.90511 0.61272 0.87076 0.0
H1724 H 0.89206 0.65844 0.90939 0.0
C1725 C 0.83583 0.68353 0.80066 0.0
C1726 C 0.83001 0.70137 0.81294 0.0
C1727 C 0.85211 0.66684 0.81717 0.0
C1728 C 0.89498 0.64609 0.89731 0.0
H1729 H 0.9614 0.54615 0.91271 0.0
H1730 H 0.93409 0.57407 0.88483 0.0
H1731 H 0.91913 0.63058 0.93687 0.0
H1732 H 0.83937 0.71321 0.85543 0.0
H1733 H 0.86668 0.6853 0.88321 0.0
H1734 H 0.88095 0.62824 0.83119 0.0
C1735 C 0.94185 0.57522 0.9079 0.0
C1736 C 0.91123 0.62935 0.91381 0.0
C1737 C 0.95816 0.55852 0.9245 0.0
C1738 C 0.84233 0.70061 0.84364 0.0
C1739 C 0.85862 0.68391 0.86019 0.0
C1740 C 0.88885 0.62945 0.85425 0.0
C1741 C 0.93558 0.59284 0.92013 0.0
C1742 C 0.91731 0.61163 0.90156 0.0
C1743 C 0.86451 0.66598 0.84796 0.0
C1744 C 0.88278 0.64718 0.86651 0.0
H1745 H 0.97173 0.57599 0.99066 0.0
H1746 H 0.9445 0.60392 0.96303 0.0
H1747 H 0.90803 0.60036 0.85869 0.0
H1748 H 0.82761 0.68227 0.77758 0.0
H1749 H 0.85486 0.65432 0.80514 0.0
C1750 C 0.4434 0.45051 0.06327 0.0
C1751 C 0.47025 0.45122 0.06723 0.0
C1752 C 0.42658 0.43307 0.08218 0.0
C1753 C 0.43028 0.38843 0.1546 0.0
H1754 H 0.34874 0.36349 0.12911 0.0
C1755 C 0.35114 0.30427 0.22065 0.0
C1756 C 0.33379 0.31428 0.22621 0.0
C1757 C 0.36768 0.31988 0.201 0.0
C1758 C 0.37151 0.37028 0.13651 0.0
H1759 H 0.49999 0.43327 0.09365 0.0
H1760 H 0.47034 0.40182 0.12528 0.0
H1761 H 0.37717 0.39175 0.0952 0.0
H1762 H 0.31964 0.34808 0.21485 0.0
H1763 H 0.34761 0.37464 0.17989 0.0
H1764 H 0.42403 0.36571 0.19568 0.0
C1765 C 0.46247 0.41557 0.10857 0.0
C1766 C 0.38801 0.38684 0.11712 0.0
C1767 C 0.47954 0.43353 0.09014 0.0
C1768 C 0.3329 0.33986 0.21122 0.0
C1769 C 0.34882 0.35504 0.19108 0.0
C1770 C 0.41366 0.37127 0.17373 0.0
C1771 C 0.43574 0.41519 0.10525 0.0
C1772 C 0.41782 0.39656 0.12582 0.0
C1773 C 0.3666 0.3454 0.18589 0.0
C1774 C 0.38412 0.36224 0.16503 0.0
H1775 H 0.43568 0.46403 0.046 0.0
H1776 H 0.4066 0.43418 0.07888 0.0
H1777 H 0.45302 0.39575 0.16279 0.0
H1778 H 0.3522 0.28459 0.23177 0.0
H1779 H 0.3811 0.31187 0.19735 0.0
C1780 C 0.45583 0.61415 0.84921 0.0
C1781 C 0.44366 0.58608 0.84306 0.0
C1782 C 0.44816 0.63427 0.82927 0.0
C1783 C 0.385 0.63496 0.77378 0.0
H1784 H 0.4276 0.71562 0.77648 0.0
C1785 C 0.32974 0.71041 0.73574 0.0
C1786 C 0.33599 0.72711 0.75727 0.0
C1787 C 0.34667 0.69663 0.73794 0.0
C1788 C 0.41555 0.69315 0.7753 0.0
H1789 H 0.41638 0.5576 0.81016 0.0
H1790 H 0.40336 0.59305 0.77476 0.0
H1791 H 0.45265 0.68469 0.79262 0.0
H1792 H 0.36539 0.7432 0.7975 0.0
H1793 H 0.39488 0.71865 0.80159 0.0
H1794 H 0.34791 0.64334 0.75728 0.0
C1795 C 0.41822 0.59932 0.79538 0.0
C1796 C 0.42981 0.67544 0.78454 0.0
C1797 C 0.42566 0.57904 0.81556 0.0
C1798 C 0.35995 0.73031 0.78071 0.0
C1799 C 0.37701 0.71659 0.78284 0.0
C1800 C 0.37084 0.65268 0.76417 0.0
C1801 C 0.42827 0.62682 0.80261 0.0
C1802 C 0.41456 0.64601 0.78531 0.0
C1803 C 0.37025 0.69932 0.76167 0.0
C1804 C 0.38587 0.68176 0.7661 0.0
H1805 H 0.46958 0.62016 0.87034 0.0
H1806 H 0.45611 0.65504 0.83589 0.0
H1807 H 0.37243 0.61246 0.77431 0.0
H1808 H 0.31139 0.70745 0.71739 0.0
H1809 H 0.34105 0.68345 0.72135 0.0
C1810 C 0.09872 0.55675 0.56544 0.0
C1811 C 0.08233 0.52898 0.57458 0.0
C1812 C 0.11632 0.57631 0.58546 0.0
C1813 C 0.14835 0.58247 0.66464 0.0
H1814 H 0.15979 0.66036 0.63957 0.0
C1815 C 0.2294 0.67212 0.73602 0.0
C1816 C 0.22383 0.69584 0.73308 0.0
C1817 C 0.21169 0.65095 0.71764 0.0
C1818 C 0.15651 0.63867 0.64724 0.0
H1819 H 0.07104 0.4997 0.61151 0.0
H1820 H 0.10059 0.53418 0.64649 0.0
H1821 H 0.12922 0.62519 0.60632 0.0
H1822 H 0.19512 0.71583 0.70981 0.0
H1823 H 0.16316 0.67823 0.67903 0.0
H1824 H 0.17427 0.59581 0.70618 0.0
C1825 C 0.10083 0.54077 0.62406 0.0
C1826 C 0.13935 0.61845 0.62784 0.0
C1827 C 0.08373 0.521 0.60404 0.0
C1828 C 0.19987 0.69772 0.71228 0.0
C1829 C 0.18176 0.67628 0.69444 0.0
C1830 C 0.16503 0.60264 0.6843 0.0
C1831 C 0.11734 0.56874 0.61503 0.0
C1832 C 0.13522 0.5901 0.63613 0.0
C1833 C 0.18772 0.65285 0.69641 0.0
C1834 C 0.16947 0.63107 0.67582 0.0
H1835 H 0.09814 0.5633 0.54279 0.0
H1836 H 0.12922 0.59734 0.57764 0.0
H1837 H 0.14605 0.56096 0.67181 0.0
H1838 H 0.24802 0.67046 0.75176 0.0
H1839 H 0.21732 0.63356 0.71957 0.0
C1840 C 0.33563 0.3395 0.69081 0.0
C1841 C 0.32449 0.30985 0.69357 0.0
C1842 C 0.35416 0.35584 0.67326 0.0
C1843 C 0.37888 0.35178 0.61303 0.0
H1844 H 0.44154 0.42177 0.63761 0.0
C1845 C 0.46809 0.41199 0.55416 0.0
C1846 C 0.47924 0.44158 0.55023 0.0
C1847 C 0.44943 0.39658 0.57168 0.0
C1848 C 0.42399 0.40247 0.63017 0.0
H1849 H 0.32439 0.27434 0.67968 0.0
H1850 H 0.35676 0.30267 0.64944 0.0
H1851 H 0.40882 0.39377 0.6676 0.0
H1852 H 0.47959 0.47822 0.56191 0.0
H1853 H 0.44691 0.45138 0.59254 0.0
H1854 H 0.39408 0.36039 0.57569 0.0
C1855 C 0.35089 0.31341 0.66052 0.0
C1856 C 0.40511 0.38632 0.64744 0.0
C1857 C 0.33235 0.29707 0.67808 0.0
C1858 C 0.47149 0.45545 0.56459 0.0
C1859 C 0.4528 0.44 0.58224 0.0
C1860 C 0.39776 0.36789 0.59581 0.0
C1861 C 0.3622 0.3431 0.65786 0.0
C1862 C 0.38227 0.36062 0.63923 0.0
C1863 C 0.44127 0.41026 0.58588 0.0
C1864 C 0.42073 0.39344 0.60413 0.0
H1865 H 0.3301 0.35022 0.70229 0.0
H1866 H 0.36194 0.37855 0.67155 0.0
H1867 H 0.36134 0.33251 0.60551 0.0
H1868 H 0.47365 0.40061 0.54349 0.0
H1869 H 0.44155 0.37383 0.57424 0.0
C1870 C 0.26308 0.70714 0.17357 0.0
C1871 C 0.2519 0.70401 0.19647 0.0
C1872 C 0.24546 0.69424 0.14841 0.0
C1873 C 0.16928 0.65897 0.10993 0.0
H1874 H 0.19694 0.62329 0.07458 0.0
C1875 C 0.12069 0.56141 0.03731 0.0
C1876 C 0.0958 0.5645 0.02058 0.0
C1877 C 0.14212 0.58253 0.05431 0.0
C1878 C 0.18881 0.63297 0.08429 0.0
H1879 H 0.21376 0.68528 0.21123 0.0
H1880 H 0.18331 0.66193 0.16813 0.0
H1881 H 0.22913 0.65201 0.11388 0.0
H1882 H 0.07432 0.59252 1.00646 0.0
H1883 H 0.11231 0.63015 0.03454 0.0
H1884 H 0.12858 0.63829 0.08223 0.0
C1885 C 0.20539 0.67495 0.16892 0.0
C1886 C 0.20741 0.64984 0.10656 0.0
C1887 C 0.22289 0.68813 0.1938 0.0
C1888 C 0.09329 0.58962 0.01955 0.0
C1889 C 0.11497 0.61104 0.03586 0.0
C1890 C 0.15062 0.64173 0.08813 0.0
C1891 C 0.21642 0.67775 0.14591 0.0
C1892 C 0.19769 0.66253 0.12008 0.0
C1893 C 0.13922 0.60737 0.05432 0.0
C1894 C 0.15998 0.62808 0.07532 0.0
H1895 H 0.28542 0.71949 0.17513 0.0
H1896 H 0.25459 0.69716 0.13098 0.0
H1897 H 0.16118 0.66893 0.11935 0.0
H1898 H 0.12291 0.54205 0.03849 0.0
H1899 H 0.16024 0.5787 0.06847 0.0
C1900 C 0.67129 0.36134 0.70628 0.0
C1901 C 0.68111 0.3562 0.6862 0.0
C1902 C 0.66837 0.38652 0.70319 0.0
C1903 C 0.6859 0.45778 0.66221 0.0
H1904 H 0.60988 0.44434 0.6604 0.0
C1905 C 0.6171 0.50212 0.57299 0.0
C1906 C 0.59497 0.50544 0.57767 0.0
C1907 C 0.63618 0.49442 0.59612 0.0
C1908 C 0.63156 0.44894 0.66165 0.0
H1909 H 0.69598 0.37342 0.64749 0.0
H1910 H 0.69042 0.41703 0.64175 0.0
H1911 H 0.6276 0.40843 0.68381 0.0
H1912 H 0.57707 0.50613 0.61039 0.0
H1913 H 0.6103 0.49214 0.65092 0.0
H1914 H 0.68881 0.49744 0.63785 0.0
C1915 C 0.68564 0.40203 0.66031 0.0
C1916 C 0.64171 0.42824 0.67505 0.0
C1917 C 0.68857 0.37692 0.66341 0.0
C1918 C 0.59378 0.50342 0.60613 0.0
C1919 C 0.61278 0.49546 0.62932 0.0
C1920 C 0.6757 0.47848 0.64873 0.0
C1921 C 0.67522 0.40698 0.67997 0.0
C1922 C 0.66828 0.43177 0.67385 0.0
C1923 C 0.63337 0.4897 0.62436 0.0
C1924 C 0.64778 0.47345 0.64677 0.0
H1925 H 0.66594 0.34593 0.72441 0.0
H1926 H 0.6604 0.38983 0.71873 0.0
H1927 H 0.70678 0.46132 0.66166 0.0
H1928 H 0.61882 0.50399 0.55131 0.0
H1929 H 0.65162 0.4899 0.5915 0.0
C1930 C 0.8768 0.63687 0.238 0.0
C1931 C 0.86674 0.65745 0.22237 0.0
C1932 C 0.8919 0.62854 0.2268 0.0
C1933 C 0.90341 0.62663 0.15807 0.0
H1934 H 0.96854 0.61276 0.2079 0.0
C1935 C 0.9729 0.59994 0.11373 0.0
C1936 C 0.98179 0.57871 0.12991 0.0
C1937 C 0.95978 0.6107 0.12495 0.0
C1938 C 0.95023 0.61627 0.19375 0.0
H1939 H 0.86467 0.6854 0.18265 0.0
H1940 H 0.89137 0.67115 0.1633 0.0
H1941 H 0.94415 0.62951 0.22767 0.0
H1942 H 0.98342 0.55187 0.17045 0.0
H1943 H 0.96056 0.57058 0.18997 0.0
H1944 H 0.90933 0.61316 0.1242 0.0
C1945 C 0.88738 0.66129 0.18414 0.0
C1946 C 0.93625 0.62589 0.20509 0.0
C1947 C 0.87236 0.66969 0.19538 0.0
C1948 C 0.9773 0.56856 0.1576 0.0
C1949 C 0.96418 0.5793 0.16881 0.0
C1950 C 0.91737 0.61698 0.14673 0.0
C1951 C 0.89723 0.64053 0.19966 0.0
C1952 C 0.91259 0.63105 0.18742 0.0
C1953 C 0.95522 0.60047 0.15262 0.0
C1954 C 0.94086 0.61154 0.16447 0.0
H1955 H 0.87307 0.62722 0.25897 0.0
H1956 H 0.89894 0.6123 0.23921 0.0
H1957 H 0.885 0.63 0.14396 0.0
H1958 H 0.97637 0.60849 0.09248 0.0
H1959 H 0.95349 0.62728 0.11206 0.0
C1960 C 0.95685 0.61229 0.5918 0.0
C1961 C 0.94438 0.59583 0.56848 0.0
C1962 C 0.9405 0.61981 0.60212 0.0
C1963 C 0.87311 0.62847 0.58006 0.0
H1964 H 0.88699 0.62948 0.66217 0.0
C1965 C 0.80216 0.65223 0.62556 0.0
C1966 C 0.81561 0.66917 0.64856 0.0
C1967 C 0.81716 0.64208 0.61628 0.0
C1968 C 0.88301 0.62962 0.63914 0.0
H1969 H 0.90473 0.57429 0.53788 0.0
H1970 H 0.87617 0.58711 0.55608 0.0
H1971 H 0.91426 0.61387 0.64528 0.0
H1972 H 0.85566 0.68888 0.67958 0.0
H1973 H 0.88177 0.67132 0.66341 0.0
H1974 H 0.84208 0.64448 0.57385 0.0
C1975 C 0.89869 0.59442 0.56625 0.0
C1976 C 0.89867 0.62063 0.62945 0.0
C1977 C 0.91503 0.58679 0.55601 0.0
C1978 C 0.84444 0.67552 0.66213 0.0
C1979 C 0.85945 0.66542 0.65283 0.0
C1980 C 0.8575 0.63752 0.58974 0.0
C1981 C 0.91123 0.61116 0.58935 0.0
C1982 C 0.89402 0.62003 0.59976 0.0
C1983 C 0.84607 0.64863 0.6297 0.0
C1984 C 0.86229 0.63834 0.61942 0.0
H1985 H 0.97932 0.61938 0.60215 0.0
H1986 H 0.95096 0.63291 0.61977 0.0
H1987 H 0.86923 0.62871 0.55703 0.0
H1988 H 0.77989 0.64654 0.61486 0.0
H1989 H 0.80598 0.62884 0.59873 0.0
C1990 C 0.42307 0.49645 0.45424 0.0
C1991 C 0.44323 0.49272 0.44604 0.0
C1992 C 0.39696 0.49335 0.43485 0.0
C1993 C 0.37087 0.50728 0.35848 0.0
H1994 H 0.30467 0.49296 0.38191 0.0
C1995 C 0.31541 0.5784 0.30614 0.0
C1996 C 0.31583 0.59178 0.32762 0.0
C1997 C 0.31644 0.55199 0.31286 0.0
C1998 C 0.32275 0.49671 0.37475 0.0
H1999 H 0.4509 0.48049 0.41186 0.0
H2000 H 0.40525 0.47542 0.37778 0.0
H2001 H 0.33644 0.47038 0.4108 0.0
H2002 H 0.31461 0.587 0.37199 0.0
H2003 H 0.31736 0.54162 0.38406 0.0
H2004 H 0.35904 0.53554 0.32416 0.0
C2005 C 0.4098 0.4809 0.39921 0.0
C2006 C 0.34091 0.48376 0.39127 0.0
C2007 C 0.43598 0.48396 0.41868 0.0
C2008 C 0.31434 0.57716 0.35505 0.0
C2009 C 0.31568 0.55093 0.36187 0.0
C2010 C 0.35284 0.52026 0.34207 0.0
C2011 C 0.3904 0.48649 0.40677 0.0
C2012 C 0.36625 0.49066 0.38445 0.0
C2013 C 0.3184 0.53879 0.3413 0.0
C2014 C 0.32981 0.51683 0.35132 0.0
H2015 H 0.42779 0.50283 0.47529 0.0
H2016 H 0.38274 0.49825 0.44128 0.0
H2017 H 0.39015 0.51302 0.35252 0.0
H2018 H 0.31588 0.58904 0.2846 0.0
H2019 H 0.31785 0.54291 0.29636 0.0
C2020 C 0.18523 0.33761 0.83857 0.0
C2021 C 0.19161 0.35028 0.81199 0.0
C2022 C 0.16842 0.3447 0.8486 0.0
C2023 C 0.11639 0.37664 0.82439 0.0
H2024 H 0.14069 0.39173 0.90433 0.0
C2025 C 0.07139 0.43449 0.86564 0.0
C2026 C 0.06644 0.42527 0.89319 0.0
C2027 C 0.08514 0.42336 0.85586 0.0
C2028 C 0.13337 0.3872 0.88205 0.0
H2029 H 0.18469 0.37967 0.7747 0.0
H2030 H 0.15571 0.39228 0.79232 0.0
H2031 H 0.16722 0.37554 0.887 0.0
H2032 H 0.07151 0.39661 0.93181 0.0
H2033 H 0.09551 0.37715 0.9147 0.0
H2034 H 0.08269 0.38854 0.81935 0.0
C2035 C 0.16355 0.37678 0.80538 0.0
C2036 C 0.14858 0.37792 0.87213 0.0
C2037 C 0.18042 0.36979 0.79543 0.0
C2038 C 0.07535 0.40445 0.91063 0.0
C2039 C 0.0891 0.3933 0.90084 0.0
C2040 C 0.10117 0.38588 0.83431 0.0
C2041 C 0.1575 0.36447 0.83216 0.0
C2042 C 0.14043 0.37281 0.84311 0.0
C2043 C 0.09427 0.40272 0.87337 0.0
C2044 C 0.10963 0.39155 0.86319 0.0
H2045 H 0.19369 0.32265 0.85191 0.0
H2046 H 0.16393 0.33467 0.86921 0.0
H2047 H 0.1093 0.37245 0.80202 0.0
H2048 H 0.06525 0.45084 0.85186 0.0
H2049 H 0.08921 0.43143 0.8348 0.0
C2050 C 0.19542 0.30984 0.3717 0.0
C2051 C 0.22429 0.32586 0.37291 0.0
C2052 C 0.18052 0.31975 0.3814 0.0
C2053 C 0.19092 0.37052 0.42828 0.0
H2054 H 0.11304 0.35716 0.38706 0.0
C2055 C 0.11875 0.39079 0.47535 0.0
C2056 C 0.09943 0.40162 0.45623 0.0
C2057 C 0.13442 0.38244 0.46492 0.0
C2058 C 0.13485 0.36134 0.39872 0.0
H2059 H 0.26007 0.36498 0.38555 0.0
H2060 H 0.23398 0.38248 0.40194 0.0
H2061 H 0.13945 0.34154 0.36898 0.0
H2062 H 0.08206 0.4128 0.41105 0.0
H2063 H 0.10947 0.39849 0.39286 0.0
H2064 H 0.18649 0.39079 0.45773 0.0
C2065 C 0.2229 0.36206 0.39375 0.0
C2066 C 0.14992 0.35202 0.38853 0.0
C2067 C 0.23781 0.35215 0.38401 0.0
C2068 C 0.09641 0.40415 0.42639 0.0
C2069 C 0.11214 0.39589 0.41595 0.0
C2070 C 0.17585 0.37984 0.43848 0.0
C2071 C 0.19405 0.34598 0.39262 0.0
C2072 C 0.17814 0.35638 0.40322 0.0
C2073 C 0.13126 0.38477 0.43505 0.0
C2074 C 0.14756 0.3753 0.4239 0.0
H2075 H 0.18419 0.28965 0.36299 0.0
H2076 H 0.15843 0.30661 0.38046 0.0
H2077 H 0.2125 0.37404 0.44036 0.0
H2078 H 0.12133 0.38812 0.49843 0.0
H2079 H 0.14856 0.37357 0.48029 0.0
loop_
_geom_bond_atom_site_label_1
_geom_bond_atom_site_label_2
_geom_bond_distance
_geom_bond_site_symmetry_2
_ccdc_geom_bond_type
Sm0 C2 2.846 1_655 S
Sm0 O20 2.543 1_655 S
Sm0 O21 2.450 . S
Sm0 O22 2.681 1_556 S
Sm0 O23 2.474 . S
Sm0 O24 2.396 1_656 S
Sm0 O28 2.386 1_665 S
Sm0 O31 2.439 . S
Sm1 C11 2.846 1_455 S
Sm1 O22 2.386 1_445 S
Sm1 O25 2.408 . S
Sm1 O26 2.543 1_455 S
Sm1 O27 2.450 . S
Sm1 O28 2.681 1_554 S
Sm1 O29 2.490 . S
Sm1 O30 2.396 1_454 S
C2 Sm0 2.846 1_455 S
C2 C3 1.506 . S
C2 O20 1.261 . S
C2 O21 1.242 1_455 S
C3 C2 1.506 . S
C3 C4 1.358 . S
C3 C8 1.382 1_455 S
C4 C3 1.358 . S
C4 C5 1.385 . S
C4 H32 0.930 . S
C5 C4 1.385 . S
C5 C6 1.395 . S
C5 H33 0.929 . S
C6 C5 1.395 . S
C6 C7 1.335 . S
C7 C6 1.335 . S
C7 C8 1.398 1_455 S
C7 H34 0.930 1_455 S
C8 C3 1.382 1_655 S
C8 C7 1.398 1_655 S
C8 H35 0.929 . S
C9 O22 1.271 . S
C9 O23 1.239 1_554 S
C10 O24 1.252 . S
C10 O25 1.272 1_565 S
C11 Sm1 2.846 1_655 S
C11 C12 1.506 . S
C11 O26 1.261 . S
C11 O27 1.242 1_655 S
C12 C11 1.506 . S
C12 C13 1.358 . S
C12 C17 1.382 1_655 S
C13 C12 1.358 . S
C13 C14 1.385 . S
C13 H36 0.930 . S
C14 C13 1.385 . S
C14 C15 1.395 . S
C14 H37 0.929 . S
C15 C14 1.395 . S
C15 C16 1.335 . S
C16 C15 1.335 . S
C16 C17 1.398 1_655 S
C16 H38 0.930 1_655 S
C17 C12 1.382 1_455 S
C17 C16 1.398 1_455 S
C17 H39 0.929 . S
C18 O28 1.271 . S
C18 O29 1.223 1_556 S
C19 O30 1.252 . S
C19 O31 1.240 1_545 S
O20 Sm0 2.543 1_455 S
O20 C2 1.261 . S
O21 Sm0 2.450 . S
O21 C2 1.242 1_655 S
O22 Sm0 2.681 1_554 S
O22 Sm1 2.386 1_665 S
O22 C9 1.271 . S
O23 Sm0 2.474 . S
O23 C9 1.239 1_556 S
O24 Sm0 2.396 1_454 S
O24 C10 1.252 . S
O25 Sm1 2.408 . S
O25 C10 1.272 1_545 S
O26 Sm1 2.543 1_655 S
O26 C11 1.261 . S
O27 Sm1 2.450 . S
O27 C11 1.242 1_455 S
O28 Sm0 2.386 1_445 S
O28 Sm1 2.681 1_556 S
O28 C18 1.271 . S
O29 Sm1 2.490 . S
O29 C18 1.223 1_554 S
O30 Sm1 2.396 1_656 S
O30 C19 1.252 . S
O31 Sm0 2.439 . S
O31 C19 1.240 1_565 S
H32 C4 0.930 . S
H33 C5 0.929 . S
H34 C7 0.930 1_655 S
H35 C8 0.929 . S
H36 C13 0.930 . S
H37 C14 0.929 . S
H38 C16 0.930 1_455 S
H39 C17 0.929 . S
Sm40 C42 2.846 . S
Sm40 O60 2.543 . S
Sm40 O61 2.450 . S
Sm40 O62 2.681 . S
Sm40 O63 2.464 . S
Sm40 O64 2.396 . S
Sm40 O68 2.386 . S
Sm40 O71 2.408 . S
Sm41 C51 2.846 . S
Sm41 O62 2.386 . S
Sm41 O65 2.408 . S
Sm41 O66 2.543 . S
Sm41 O67 2.450 . S
Sm41 O68 2.681 . S
Sm41 O69 2.464 . S
Sm41 O70 2.396 . S
C42 Sm40 2.846 . S
C42 C43 1.506 . S
C42 O60 1.261 . S
C42 O61 1.242 . S
C43 C42 1.506 . S
C43 C44 1.358 . S
C43 C48 1.382 . S
C44 C43 1.358 . S
C44 C45 1.385 . S
C44 H72 0.930 . S
C45 C44 1.385 . S
C45 C46 1.395 . S
C45 H73 0.929 . S
C46 C45 1.395 . S
C46 C47 1.335 . S
C47 C46 1.335 . S
C47 C48 1.398 . S
C47 H74 0.930 . S
C48 C43 1.382 . S
C48 C47 1.398 . S
C48 H75 0.929 . S
C49 O62 1.271 . S
C49 O63 1.251 . S
C50 O64 1.252 . S
C50 O65 1.272 . S
C51 Sm41 2.846 . S
C51 C52 1.506 . S
C51 O66 1.261 . S
C51 O67 1.242 . S
C52 C51 1.506 . S
C52 C53 1.358 . S
C52 C57 1.382 . S
C53 C52 1.358 . S
C53 C54 1.385 . S
C53 H76 0.930 . S
C54 C53 1.385 . S
C54 C55 1.395 . S
C54 H77 0.929 . S
C55 C54 1.395 . S
C55 C56 1.335 . S
C56 C55 1.335 . S
C56 C57 1.398 . S
C56 H78 0.930 . S
C57 C52 1.382 . S
C57 C56 1.398 . S
C57 H79 0.929 . S
C58 O68 1.271 . S
C58 O69 1.251 . S
C59 O70 1.252 . S
C59 O71 1.272 . S
O60 Sm40 2.543 . S
O60 C42 1.261 . S
O61 Sm40 2.450 . S
O61 C42 1.242 . S
O62 Sm40 2.681 . S
O62 Sm41 2.386 . S
O62 C49 1.271 . S
O63 Sm40 2.464 . S
O63 C49 1.251 . S
O64 Sm40 2.396 . S
O64 C50 1.252 . S
O65 Sm41 2.408 . S
O65 C50 1.272 . S
O66 Sm41 2.543 . S
O66 C51 1.261 . S
O67 Sm41 2.450 . S
O67 C51 1.242 . S
O68 Sm40 2.386 . S
O68 Sm41 2.681 . S
O68 C58 1.271 . S
O69 Sm41 2.464 . S
O69 C58 1.251 . S
O70 Sm41 2.396 . S
O70 C59 1.252 . S
O71 Sm40 2.408 . S
O71 C59 1.272 . S
H72 C44 0.930 . S
H73 C45 0.929 . S
H74 C47 0.930 . S
H75 C48 0.929 . S
H76 C53 0.930 . S
H77 C54 0.929 . S
H78 C56 0.930 . S
H79 C57 0.929 . S
Sm80 C82 2.846 1_565 S
Sm80 O100 2.543 1_565 S
Sm80 O101 2.450 . S
Sm80 O102 2.681 . S
Sm80 O103 2.464 . S
Sm80 O104 2.396 1_565 S
Sm80 O108 2.386 1_565 S
Sm80 O111 2.408 . S
Sm81 C91 2.846 1_545 S
Sm81 O102 2.386 1_545 S
Sm81 O105 2.408 . S
Sm81 O106 2.543 1_545 S
Sm81 O107 2.450 . S
Sm81 O108 2.681 . S
Sm81 O109 2.464 . S
Sm81 O110 2.396 1_545 S
C82 Sm80 2.846 1_545 S
C82 C83 1.506 . S
C82 O100 1.261 . S
C82 O101 1.242 1_545 S
C83 C82 1.506 . S
C83 C84 1.358 . S
C83 C88 1.382 . S
C84 C83 1.358 . S
C84 C85 1.385 . S
C84 H112 0.930 . S
C85 C84 1.385 . S
C85 C86 1.395 . S
C85 H113 0.929 . S
C86 C85 1.395 . S
C86 C87 1.335 . S
C87 C86 1.335 . S
C87 C88 1.398 . S
C87 H114 0.930 1_545 S
C88 C83 1.382 . S
C88 C87 1.398 . S
C88 H115 0.929 1_545 S
C89 O102 1.271 . S
C89 O103 1.251 . S
C90 O104 1.252 . S
C90 O105 1.272 . S
C91 Sm81 2.846 1_565 S
C91 C92 1.506 . S
C91 O106 1.261 . S
C91 O107 1.242 1_565 S
C92 C91 1.506 . S
C92 C93 1.358 . S
C92 C97 1.382 . S
C93 C92 1.358 . S
C93 C94 1.385 . S
C93 H116 0.930 . S
C94 C93 1.385 . S
C94 C95 1.395 . S
C94 H117 0.929 . S
C95 C94 1.395 . S
C95 C96 1.335 . S
C96 C95 1.335 . S
C96 C97 1.398 . S
C96 H118 0.930 1_565 S
C97 C92 1.382 . S
C97 C96 1.398 . S
C97 H119 0.929 1_565 S
C98 O108 1.271 . S
C98 O109 1.251 . S
C99 O110 1.252 . S
C99 O111 1.272 . S
O100 Sm80 2.543 1_545 S
O100 C82 1.261 . S
O101 Sm80 2.450 . S
O101 C82 1.242 1_565 S
O102 Sm80 2.681 . S
O102 Sm81 2.386 1_565 S
O102 C89 1.271 . S
O103 Sm80 2.464 . S
O103 C89 1.251 . S
O104 Sm80 2.396 1_545 S
O104 C90 1.252 . S
O105 Sm81 2.408 . S
O105 C90 1.272 . S
O106 Sm81 2.543 1_565 S
O106 C91 1.261 . S
O107 Sm81 2.450 . S
O107 C91 1.242 1_545 S
O108 Sm80 2.386 1_545 S
O108 Sm81 2.681 . S
O108 C98 1.271 . S
O109 Sm81 2.464 . S
O109 C98 1.251 . S
O110 Sm81 2.396 1_565 S
O110 C99 1.252 . S
O111 Sm80 2.408 . S
O111 C99 1.272 . S
H112 C84 0.930 . S
H113 C85 0.929 . S
H114 C87 0.930 1_565 S
H115 C88 0.929 1_565 S
H116 C93 0.930 . S
H117 C94 0.929 . S
H118 C96 0.930 1_545 S
H119 C97 0.929 1_545 S
Sm120 C122 2.846 . S
Sm120 O140 2.543 . S
Sm120 O141 2.450 . S
Sm120 O142 2.681 . S
Sm120 O143 2.464 . S
Sm120 O144 2.396 . S
Sm120 O148 2.386 . S
Sm120 O151 2.408 . S
Sm121 C131 2.846 . S
Sm121 O142 2.386 . S
Sm121 O145 2.408 . S
Sm121 O146 2.543 . S
Sm121 O147 2.450 . S
Sm121 O148 2.681 . S
Sm121 O149 2.464 . S
Sm121 O150 2.396 . S
C122 Sm120 2.846 . S
C122 C123 1.506 . S
C122 O140 1.261 . S
C122 O141 1.242 . S
C123 C122 1.506 . S
C123 C124 1.358 . S
C123 C128 1.382 . S
C124 C123 1.358 . S
C124 C125 1.385 . S
C124 H152 0.930 . S
C125 C124 1.385 . S
C125 C126 1.395 . S
C125 H153 0.929 . S
C126 C125 1.395 . S
C126 C127 1.335 . S
C127 C126 1.335 . S
C127 C128 1.398 . S
C127 H154 0.930 . S
C128 C123 1.382 . S
C128 C127 1.398 . S
C128 H155 0.929 . S
C129 O142 1.271 . S
C129 O143 1.251 . S
C130 O144 1.252 . S
C130 O145 1.272 . S
C131 Sm121 2.846 . S
C131 C132 1.506 . S
C131 O146 1.261 . S
C131 O147 1.242 . S
C132 C131 1.506 . S
C132 C133 1.358 . S
C132 C137 1.382 . S
C133 C132 1.358 . S
C133 C134 1.385 . S
C133 H156 0.930 . S
C134 C133 1.385 . S
C134 C135 1.395 . S
C134 H157 0.929 . S
C135 C134 1.395 . S
C135 C136 1.335 . S
C136 C135 1.335 . S
C136 C137 1.398 . S
C136 H158 0.930 . S
C137 C132 1.382 . S
C137 C136 1.398 . S
C137 H159 0.929 . S
C138 O148 1.271 . S
C138 O149 1.251 . S
C139 O150 1.252 . S
C139 O151 1.272 . S
O140 Sm120 2.543 . S
O140 C122 1.261 . S
O141 Sm120 2.450 . S
O141 C122 1.242 . S
O142 Sm120 2.681 . S
O142 Sm121 2.386 . S
O142 C129 1.271 . S
O143 Sm120 2.464 . S
O143 C129 1.251 . S
O144 Sm120 2.396 . S
O144 C130 1.252 . S
O145 Sm121 2.408 . S
O145 C130 1.272 . S
O146 Sm121 2.543 . S
O146 C131 1.261 . S
O147 Sm121 2.450 . S
O147 C131 1.242 . S
O148 Sm120 2.386 . S
O148 Sm121 2.681 . S
O148 C138 1.271 . S
O149 Sm121 2.464 . S
O149 C138 1.251 . S
O150 Sm121 2.396 . S
O150 C139 1.252 . S
O151 Sm120 2.408 . S
O151 C139 1.272 . S
H152 C124 0.930 . S
H153 C125 0.929 . S
H154 C127 0.930 . S
H155 C128 0.929 . S
H156 C133 0.930 . S
H157 C134 0.929 . S
H158 C136 0.930 . S
H159 C137 0.929 . S
Sm160 C162 2.846 . S
Sm160 O180 2.543 . S
Sm160 O181 2.450 . S
Sm160 O182 2.681 1_455 S
Sm160 O183 2.464 1_455 S
Sm160 O184 2.396 1_455 S
Sm160 O188 2.386 1_565 S
Sm160 O191 2.408 1_565 S
Sm161 C171 2.846 . S
Sm161 O182 2.386 1_545 S
Sm161 O185 2.408 1_545 S
Sm161 O186 2.543 . S
Sm161 O187 2.450 . S
Sm161 O188 2.681 1_655 S
Sm161 O189 2.464 1_655 S
Sm161 O190 2.396 1_655 S
C162 Sm160 2.846 . S
C162 C163 1.506 . S
C162 O180 1.261 . S
C162 O181 1.242 . S
C163 C162 1.506 . S
C163 C164 1.358 . S
C163 C168 1.382 . S
C164 C163 1.358 . S
C164 C165 1.385 . S
C164 H192 0.930 . S
C165 C164 1.385 . S
C165 C166 1.395 . S
C165 H193 0.929 . S
C166 C165 1.395 . S
C166 C167 1.335 . S
C167 C166 1.335 . S
C167 C168 1.398 . S
C167 H194 0.930 . S
C168 C163 1.382 . S
C168 C167 1.398 . S
C168 H195 0.929 . S
C169 O182 1.271 . S
C169 O183 1.251 . S
C170 O184 1.252 . S
C170 O185 1.272 . S
C171 Sm161 2.846 . S
C171 C172 1.506 . S
C171 O186 1.261 . S
C171 O187 1.242 . S
C172 C171 1.506 . S
C172 C173 1.358 . S
C172 C177 1.382 . S
C173 C172 1.358 . S
C173 C174 1.385 . S
C173 H196 0.930 . S
C174 C173 1.385 . S
C174 C175 1.395 . S
C174 H197 0.929 . S
C175 C174 1.395 . S
C175 C176 1.335 . S
C176 C175 1.335 . S
C176 C177 1.398 . S
C176 H198 0.930 . S
C177 C172 1.382 . S
C177 C176 1.398 . S
C177 H199 0.929 . S
C178 O188 1.271 . S
C178 O189 1.251 . S
C179 O190 1.252 . S
C179 O191 1.272 . S
O180 Sm160 2.543 . S
O180 C162 1.261 . S
O181 Sm160 2.450 . S
O181 C162 1.242 . S
O182 Sm160 2.681 1_655 S
O182 Sm161 2.386 1_565 S
O182 C169 1.271 . S
O183 Sm160 2.464 1_655 S
O183 C169 1.251 . S
O184 Sm160 2.396 1_655 S
O184 C170 1.252 . S
O185 Sm161 2.408 1_565 S
O185 C170 1.272 . S
O186 Sm161 2.543 . S
O186 C171 1.261 . S
O187 Sm161 2.450 . S
O187 C171 1.242 . S
O188 Sm160 2.386 1_545 S
O188 Sm161 2.681 1_455 S
O188 C178 1.271 . S
O189 Sm161 2.464 1_455 S
O189 C178 1.251 . S
O190 Sm161 2.396 1_455 S
O190 C179 1.252 . S
O191 Sm160 2.408 1_545 S
O191 C179 1.272 . S
H192 C164 0.930 . S
H193 C165 0.929 . S
H194 C167 0.930 . S
H195 C168 0.929 . S
H196 C173 0.930 . S
H197 C174 0.929 . S
H198 C176 0.930 . S
H199 C177 0.929 . S
Sm200 C202 2.846 . S
Sm200 O220 2.543 . S
Sm200 O221 2.450 . S
Sm200 O222 2.681 . S
Sm200 O223 2.464 . S
Sm200 O224 2.396 . S
Sm200 O228 2.386 . S
Sm200 O231 2.408 . S
Sm201 C211 2.846 . S
Sm201 O222 2.386 . S
Sm201 O225 2.408 . S
Sm201 O226 2.543 . S
Sm201 O227 2.450 . S
Sm201 O228 2.681 . S
Sm201 O229 2.464 . S
Sm201 O230 2.396 . S
C202 Sm200 2.846 . S
C202 C203 1.506 . S
C202 O220 1.261 . S
C202 O221 1.242 . S
C203 C202 1.506 . S
C203 C204 1.358 . S
C203 C208 1.382 . S
C204 C203 1.358 . S
C204 C205 1.385 . S
C204 H232 0.930 . S
C205 C204 1.385 . S
C205 C206 1.395 . S
C205 H233 0.929 . S
C206 C205 1.395 . S
C206 C207 1.335 . S
C207 C206 1.335 . S
C207 C208 1.398 . S
C207 H234 0.930 . S
C208 C203 1.382 . S
C208 C207 1.398 . S
C208 H235 0.929 . S
C209 O222 1.271 . S
C209 O223 1.251 . S
C210 O224 1.252 . S
C210 O225 1.272 . S
C211 Sm201 2.846 . S
C211 C212 1.506 . S
C211 O226 1.261 . S
C211 O227 1.242 . S
C212 C211 1.506 . S
C212 C213 1.358 . S
C212 C217 1.382 . S
C213 C212 1.358 . S
C213 C214 1.385 . S
C213 H236 0.930 . S
C214 C213 1.385 . S
C214 C215 1.395 . S
C214 H237 0.929 . S
C215 C214 1.395 . S
C215 C216 1.335 . S
C216 C215 1.335 . S
C216 C217 1.398 . S
C216 H238 0.930 . S
C217 C212 1.382 . S
C217 C216 1.398 . S
C217 H239 0.929 . S
C218 O228 1.271 . S
C218 O229 1.251 . S
C219 O230 1.252 . S
C219 O231 1.272 . S
O220 Sm200 2.543 . S
O220 C202 1.261 . S
O221 Sm200 2.450 . S
O221 C202 1.242 . S
O222 Sm200 2.681 . S
O222 Sm201 2.386 . S
O222 C209 1.271 . S
O223 Sm200 2.464 . S
O223 C209 1.251 . S
O224 Sm200 2.396 . S
O224 C210 1.252 . S
O225 Sm201 2.408 . S
O225 C210 1.272 . S
O226 Sm201 2.543 . S
O226 C211 1.261 . S
O227 Sm201 2.450 . S
O227 C211 1.242 . S
O228 Sm200 2.386 . S
O228 Sm201 2.681 . S
O228 C218 1.271 . S
O229 Sm201 2.464 . S
O229 C218 1.251 . S
O230 Sm201 2.396 . S
O230 C219 1.252 . S
O231 Sm200 2.408 . S
O231 C219 1.272 . S
H232 C204 0.930 . S
H233 C205 0.929 . S
H234 C207 0.930 . S
H235 C208 0.929 . S
H236 C213 0.930 . S
H237 C214 0.929 . S
H238 C216 0.930 . S
H239 C217 0.929 . S
Sm240 C242 2.846 1_554 S
Sm240 O260 2.543 1_554 S
Sm240 O261 2.450 . S
Sm240 O262 2.681 1_565 S
Sm240 O263 2.464 1_565 S
Sm240 O264 2.396 1_564 S
Sm240 O268 2.386 1_554 S
Sm240 O271 2.408 . S
Sm241 C251 2.846 1_556 S
Sm241 O262 2.386 1_556 S
Sm241 O265 2.408 . S
Sm241 O266 2.543 1_556 S
Sm241 O267 2.450 . S
Sm241 O268 2.681 1_545 S
Sm241 O269 2.464 1_545 S
Sm241 O270 2.396 1_546 S
C242 Sm240 2.846 1_556 S
C242 C243 1.506 . S
C242 O260 1.261 . S
C242 O261 1.242 1_556 S
C243 C242 1.506 . S
C243 C244 1.358 . S
C243 C248 1.382 . S
C244 C243 1.358 . S
C244 C245 1.385 . S
C244 H272 0.930 . S
C245 C244 1.385 . S
C245 C246 1.395 . S
C245 H273 0.929 . S
C246 C245 1.395 . S
C246 C247 1.335 . S
C247 C246 1.335 . S
C247 C248 1.398 . S
C247 H274 0.930 . S
C248 C243 1.382 . S
C248 C247 1.398 . S
C248 H275 0.929 1_556 S
C249 O262 1.271 . S
C249 O263 1.251 . S
C250 O264 1.252 . S
C250 O265 1.272 . S
C251 Sm241 2.846 1_554 S
C251 C252 1.506 . S
C251 O266 1.261 . S
C251 O267 1.242 1_554 S
C252 C251 1.506 . S
C252 C253 1.358 . S
C252 C257 1.382 . S
C253 C252 1.358 . S
C253 C254 1.385 . S
C253 H276 0.930 . S
C254 C253 1.385 . S
C254 C255 1.395 . S
C254 H277 0.929 . S
C255 C254 1.395 . S
C255 C256 1.335 . S
C256 C255 1.335 . S
C256 C257 1.398 . S
C256 H278 0.930 . S
C257 C252 1.382 . S
C257 C256 1.398 . S
C257 H279 0.929 1_554 S
C258 O268 1.271 . S
C258 O269 1.251 . S
C259 O270 1.252 . S
C259 O271 1.272 . S
O260 Sm240 2.543 1_556 S
O260 C242 1.261 . S
O261 Sm240 2.450 . S
O261 C242 1.242 1_554 S
O262 Sm240 2.681 1_545 S
O262 Sm241 2.386 1_554 S
O262 C249 1.271 . S
O263 Sm240 2.464 1_545 S
O263 C249 1.251 . S
O264 Sm240 2.396 1_546 S
O264 C250 1.252 . S
O265 Sm241 2.408 . S
O265 C250 1.272 . S
O266 Sm241 2.543 1_554 S
O266 C251 1.261 . S
O267 Sm241 2.450 . S
O267 C251 1.242 1_556 S
O268 Sm240 2.386 1_556 S
O268 Sm241 2.681 1_565 S
O268 C258 1.271 . S
O269 Sm241 2.464 1_565 S
O269 C258 1.251 . S
O270 Sm241 2.396 1_564 S
O270 C259 1.252 . S
O271 Sm240 2.408 . S
O271 C259 1.272 . S
H272 C244 0.930 . S
H273 C245 0.929 . S
H274 C247 0.930 . S
H275 C248 0.929 1_554 S
H276 C253 0.930 . S
H277 C254 0.929 . S
H278 C256 0.930 . S
H279 C257 0.929 1_556 S
Sm280 C282 2.846 . S
Sm280 O300 2.543 . S
Sm280 O301 2.450 . S
Sm280 O302 2.681 . S
Sm280 O303 2.464 . S
Sm280 O304 2.396 . S
Sm280 O308 2.386 . S
Sm280 O311 2.408 . S
Sm281 C291 2.846 . S
Sm281 O302 2.386 . S
Sm281 O305 2.408 . S
Sm281 O306 2.543 . S
Sm281 O307 2.450 . S
Sm281 O308 2.681 . S
Sm281 O309 2.464 . S
Sm281 O310 2.396 . S
C282 Sm280 2.846 . S
C282 C283 1.506 . S
C282 O300 1.261 . S
C282 O301 1.242 . S
C283 C282 1.506 . S
C283 C284 1.358 . S
C283 C288 1.382 . S
C284 C283 1.358 . S
C284 C285 1.385 . S
C284 H312 0.930 . S
C285 C284 1.385 . S
C285 C286 1.395 . S
C285 H313 0.929 . S
C286 C285 1.395 . S
C286 C287 1.335 . S
C287 C286 1.335 . S
C287 C288 1.398 . S
C287 H314 0.930 . S
C288 C283 1.382 . S
C288 C287 1.398 . S
C288 H315 0.929 . S
C289 O302 1.271 . S
C289 O303 1.251 . S
C290 O304 1.252 . S
C290 O305 1.272 . S
C291 Sm281 2.846 . S
C291 C292 1.506 . S
C291 O306 1.261 . S
C291 O307 1.242 . S
C292 C291 1.506 . S
C292 C293 1.358 . S
C292 C297 1.382 . S
C293 C292 1.358 . S
C293 C294 1.385 . S
C293 H316 0.930 . S
C294 C293 1.385 . S
C294 C295 1.395 . S
C294 H317 0.929 . S
C295 C294 1.395 . S
C295 C296 1.335 . S
C296 C295 1.335 . S
C296 C297 1.398 . S
C296 H318 0.930 . S
C297 C292 1.382 . S
C297 C296 1.398 . S
C297 H319 0.929 . S
C298 O308 1.271 . S
C298 O309 1.251 . S
C299 O310 1.252 . S
C299 O311 1.272 . S
O300 Sm280 2.543 . S
O300 C282 1.261 . S
O301 Sm280 2.450 . S
O301 C282 1.242 . S
O302 Sm280 2.681 . S
O302 Sm281 2.386 . S
O302 C289 1.271 . S
O303 Sm280 2.464 . S
O303 C289 1.251 . S
O304 Sm280 2.396 . S
O304 C290 1.252 . S
O305 Sm281 2.408 . S
O305 C290 1.272 . S
O306 Sm281 2.543 . S
O306 C291 1.261 . S
O307 Sm281 2.450 . S
O307 C291 1.242 . S
O308 Sm280 2.386 . S
O308 Sm281 2.681 . S
O308 C298 1.271 . S
O309 Sm281 2.464 . S
O309 C298 1.251 . S
O310 Sm281 2.396 . S
O310 C299 1.252 . S
O311 Sm280 2.408 . S
O311 C299 1.272 . S
H312 C284 0.930 . S
H313 C285 0.929 . S
H314 C287 0.930 . S
H315 C288 0.929 . S
H316 C293 0.930 . S
H317 C294 0.929 . S
H318 C296 0.930 . S
H319 C297 0.929 . S
Sm320 C322 2.846 . S
Sm320 O340 2.543 . S
Sm320 O341 2.450 . S
Sm320 O342 2.681 1_554 S
Sm320 O343 2.464 1_554 S
Sm320 O344 2.396 . S
Sm320 O348 2.386 . S
Sm320 O351 2.408 1_554 S
Sm321 C331 2.846 . S
Sm321 O342 2.386 . S
Sm321 O345 2.408 1_556 S
Sm321 O346 2.543 . S
Sm321 O347 2.450 . S
Sm321 O348 2.681 1_556 S
Sm321 O349 2.464 1_556 S
Sm321 O350 2.396 . S
C322 Sm320 2.846 . S
C322 C323 1.506 . S
C322 O340 1.261 . S
C322 O341 1.242 . S
C323 C322 1.506 . S
C323 C324 1.358 . S
C323 C328 1.382 . S
C324 C323 1.358 . S
C324 C325 1.385 . S
C324 H352 0.930 . S
C325 C324 1.385 . S
C325 C326 1.395 . S
C325 H353 0.929 . S
C326 C325 1.395 . S
C326 C327 1.335 . S
C327 C326 1.335 . S
C327 C328 1.398 . S
C327 H354 0.930 . S
C328 C323 1.382 . S
C328 C327 1.398 . S
C328 H355 0.929 . S
C329 O342 1.271 . S
C329 O343 1.251 . S
C330 O344 1.252 . S
C330 O345 1.272 . S
C331 Sm321 2.846 . S
C331 C332 1.506 . S
C331 O346 1.261 . S
C331 O347 1.242 . S
C332 C331 1.506 . S
C332 C333 1.358 . S
C332 C337 1.382 . S
C333 C332 1.358 . S
C333 C334 1.385 . S
C333 H356 0.930 . S
C334 C333 1.385 . S
C334 C335 1.395 . S
C334 H357 0.929 . S
C335 C334 1.395 . S
C335 C336 1.335 . S
C336 C335 1.335 . S
C336 C337 1.398 . S
C336 H358 0.930 . S
C337 C332 1.382 . S
C337 C336 1.398 . S
C337 H359 0.929 . S
C338 O348 1.271 . S
C338 O349 1.251 . S
C339 O350 1.252 . S
C339 O351 1.272 . S
O340 Sm320 2.543 . S
O340 C322 1.261 . S
O341 Sm320 2.450 . S
O341 C322 1.242 . S
O342 Sm320 2.681 1_556 S
O342 Sm321 2.386 . S
O342 C329 1.271 . S
O343 Sm320 2.464 1_556 S
O343 C329 1.251 . S
O344 Sm320 2.396 . S
O344 C330 1.252 . S
O345 Sm321 2.408 1_554 S
O345 C330 1.272 . S
O346 Sm321 2.543 . S
O346 C331 1.261 . S
O347 Sm321 2.450 . S
O347 C331 1.242 . S
O348 Sm320 2.386 . S
O348 Sm321 2.681 1_554 S
O348 C338 1.271 . S
O349 Sm321 2.464 1_554 S
O349 C338 1.251 . S
O350 Sm321 2.396 . S
O350 C339 1.252 . S
O351 Sm320 2.408 1_556 S
O351 C339 1.272 . S
H352 C324 0.930 . S
H353 C325 0.929 . S
H354 C327 0.930 . S
H355 C328 0.929 . S
H356 C333 0.930 . S
H357 C334 0.929 . S
H358 C336 0.930 . S
H359 C337 0.929 . S
Sm360 C362 2.846 . S
Sm360 O380 2.543 . S
Sm360 O381 2.450 . S
Sm360 O382 2.681 . S
Sm360 O383 2.464 . S
Sm360 O384 2.396 . S
Sm360 O388 2.386 . S
Sm360 O391 2.408 . S
Sm361 C371 2.846 . S
Sm361 O382 2.386 . S
Sm361 O385 2.408 . S
Sm361 O386 2.543 . S
Sm361 O387 2.450 . S
Sm361 O388 2.681 . S
Sm361 O389 2.464 . S
Sm361 O390 2.396 . S
C362 Sm360 2.846 . S
C362 C363 1.506 . S
C362 O380 1.261 . S
C362 O381 1.242 . S
C363 C362 1.506 . S
C363 C364 1.358 . S
C363 C368 1.382 . S
C364 C363 1.358 . S
C364 C365 1.385 . S
C364 H392 0.930 . S
C365 C364 1.385 . S
C365 C366 1.395 . S
C365 H393 0.929 . S
C366 C365 1.395 . S
C366 C367 1.335 . S
C367 C366 1.335 . S
C367 C368 1.398 . S
C367 H394 0.930 . S
C368 C363 1.382 . S
C368 C367 1.398 . S
C368 H395 0.929 . S
C369 O382 1.271 . S
C369 O383 1.251 . S
C370 O384 1.252 . S
C370 O385 1.272 . S
C371 Sm361 2.846 . S
C371 C372 1.506 . S
C371 O386 1.261 . S
C371 O387 1.242 . S
C372 C371 1.506 . S
C372 C373 1.358 . S
C372 C377 1.382 . S
C373 C372 1.358 . S
C373 C374 1.385 . S
C373 H396 0.930 . S
C374 C373 1.385 . S
C374 C375 1.395 . S
C374 H397 0.929 . S
C375 C374 1.395 . S
C375 C376 1.335 . S
C376 C375 1.335 . S
C376 C377 1.398 . S
C376 H398 0.930 . S
C377 C372 1.382 . S
C377 C376 1.398 . S
C377 H399 0.929 . S
C378 O388 1.271 . S
C378 O389 1.251 . S
C379 O390 1.252 . S
C379 O391 1.272 . S
O380 Sm360 2.543 . S
O380 C362 1.261 . S
O381 Sm360 2.450 . S
O381 C362 1.242 . S
O382 Sm360 2.681 . S
O382 Sm361 2.386 . S
O382 C369 1.271 . S
O383 Sm360 2.464 . S
O383 C369 1.251 . S
O384 Sm360 2.396 . S
O384 C370 1.252 . S
O385 Sm361 2.408 . S
O385 C370 1.272 . S
O386 Sm361 2.543 . S
O386 C371 1.261 . S
O387 Sm361 2.450 . S
O387 C371 1.242 . S
O388 Sm360 2.386 . S
O388 Sm361 2.681 . S
O388 C378 1.271 . S
O389 Sm361 2.464 . S
O389 C378 1.251 . S
O390 Sm361 2.396 . S
O390 C379 1.252 . S
O391 Sm360 2.408 . S
O391 C379 1.272 . S
H392 C364 0.930 . S
H393 C365 0.929 . S
H394 C367 0.930 . S
H395 C368 0.929 . S
H396 C373 0.930 . S
H397 C374 0.929 . S
H398 C376 0.930 . S
H399 C377 0.929 . S
Sm400 C402 2.846 . S
Sm400 O420 2.543 . S
Sm400 O421 2.450 . S
Sm400 O422 2.681 . S
Sm400 O423 2.464 . S
Sm400 O424 2.396 . S
Sm400 O428 2.386 1_455 S
Sm400 O431 2.408 1_455 S
Sm401 C411 2.846 . S
Sm401 O422 2.386 1_655 S
Sm401 O425 2.408 1_655 S
Sm401 O426 2.543 . S
Sm401 O427 2.450 . S
Sm401 O428 2.681 . S
Sm401 O429 2.464 . S
Sm401 O430 2.396 . S
C402 Sm400 2.846 . S
C402 C403 1.506 . S
C402 O420 1.261 . S
C402 O421 1.242 . S
C403 C402 1.506 . S
C403 C404 1.358 . S
C403 C408 1.382 . S
C404 C403 1.358 . S
C404 C405 1.385 . S
C404 H432 0.930 . S
C405 C404 1.385 . S
C405 C406 1.395 . S
C405 H433 0.929 . S
C406 C405 1.395 . S
C406 C407 1.335 . S
C407 C406 1.335 . S
C407 C408 1.398 . S
C407 H434 0.930 . S
C408 C403 1.382 . S
C408 C407 1.398 . S
C408 H435 0.929 . S
C409 O422 1.271 . S
C409 O423 1.251 . S
C410 O424 1.252 . S
C410 O425 1.272 . S
C411 Sm401 2.846 . S
C411 C412 1.506 . S
C411 O426 1.261 . S
C411 O427 1.242 . S
C412 C411 1.506 . S
C412 C413 1.358 . S
C412 C417 1.382 . S
C413 C412 1.358 . S
C413 C414 1.385 . S
C413 H436 0.930 . S
C414 C413 1.385 . S
C414 C415 1.395 . S
C414 H437 0.929 . S
C415 C414 1.395 . S
C415 C416 1.335 . S
C416 C415 1.335 . S
C416 C417 1.398 . S
C416 H438 0.930 . S
C417 C412 1.382 . S
C417 C416 1.398 . S
C417 H439 0.929 . S
C418 O428 1.271 . S
C418 O429 1.251 . S
C419 O430 1.252 . S
C419 O431 1.272 . S
O420 Sm400 2.543 . S
O420 C402 1.261 . S
O421 Sm400 2.450 . S
O421 C402 1.242 . S
O422 Sm400 2.681 . S
O422 Sm401 2.386 1_455 S
O422 C409 1.271 . S
O423 Sm400 2.464 . S
O423 C409 1.251 . S
O424 Sm400 2.396 . S
O424 C410 1.252 . S
O425 Sm401 2.408 1_455 S
O425 C410 1.272 . S
O426 Sm401 2.543 . S
O426 C411 1.261 . S
O427 Sm401 2.450 . S
O427 C411 1.242 . S
O428 Sm400 2.386 1_655 S
O428 Sm401 2.681 . S
O428 C418 1.271 . S
O429 Sm401 2.464 . S
O429 C418 1.251 . S
O430 Sm401 2.396 . S
O430 C419 1.252 . S
O431 Sm400 2.408 1_655 S
O431 C419 1.272 . S
H432 C404 0.930 . S
H433 C405 0.929 . S
H434 C407 0.930 . S
H435 C408 0.929 . S
H436 C413 0.930 . S
H437 C414 0.929 . S
H438 C416 0.930 . S
H439 C417 0.929 . S
Sm440 C442 2.846 . S
Sm440 O460 2.543 . S
Sm440 O461 2.450 . S
Sm440 O462 2.681 . S
Sm440 O463 2.464 . S
Sm440 O464 2.396 . S
Sm440 O468 2.386 . S
Sm440 O471 2.408 . S
Sm441 C451 2.846 . S
Sm441 O462 2.386 . S
Sm441 O465 2.408 . S
Sm441 O466 2.543 . S
Sm441 O467 2.450 . S
Sm441 O468 2.681 . S
Sm441 O469 2.464 . S
Sm441 O470 2.396 . S
C442 Sm440 2.846 . S
C442 C443 1.506 . S
C442 O460 1.261 . S
C442 O461 1.242 . S
C443 C442 1.506 . S
C443 C444 1.358 . S
C443 C448 1.382 . S
C444 C443 1.358 . S
C444 C445 1.385 . S
C444 H472 0.930 . S
C445 C444 1.385 . S
C445 C446 1.395 . S
C445 H473 0.929 . S
C446 C445 1.395 . S
C446 C447 1.335 . S
C447 C446 1.335 . S
C447 C448 1.398 . S
C447 H474 0.930 . S
C448 C443 1.382 . S
C448 C447 1.398 . S
C448 H475 0.929 . S
C449 O462 1.271 . S
C449 O463 1.251 . S
C450 O464 1.252 . S
C450 O465 1.272 . S
C451 Sm441 2.846 . S
C451 C452 1.506 . S
C451 O466 1.261 . S
C451 O467 1.242 . S
C452 C451 1.506 . S
C452 C453 1.358 . S
C452 C457 1.382 . S
C453 C452 1.358 . S
C453 C454 1.385 . S
C453 H476 0.930 . S
C454 C453 1.385 . S
C454 C455 1.395 . S
C454 H477 0.929 . S
C455 C454 1.395 . S
C455 C456 1.335 . S
C456 C455 1.335 . S
C456 C457 1.398 . S
C456 H478 0.930 . S
C457 C452 1.382 . S
C457 C456 1.398 . S
C457 H479 0.929 . S
C458 O468 1.271 . S
C458 O469 1.251 . S
C459 O470 1.252 . S
C459 O471 1.272 . S
O460 Sm440 2.543 . S
O460 C442 1.261 . S
O461 Sm440 2.450 . S
O461 C442 1.242 . S
O462 Sm440 2.681 . S
O462 Sm441 2.386 . S
O462 C449 1.271 . S
O463 Sm440 2.464 . S
O463 C449 1.251 . S
O464 Sm440 2.396 . S
O464 C450 1.252 . S
O465 Sm441 2.408 . S
O465 C450 1.272 . S
O466 Sm441 2.543 . S
O466 C451 1.261 . S
O467 Sm441 2.450 . S
O467 C451 1.242 . S
O468 Sm440 2.386 . S
O468 Sm441 2.681 . S
O468 C458 1.271 . S
O469 Sm441 2.464 . S
O469 C458 1.251 . S
O470 Sm441 2.396 . S
O470 C459 1.252 . S
O471 Sm440 2.408 . S
O471 C459 1.272 . S
H472 C444 0.930 . S
H473 C445 0.929 . S
H474 C447 0.930 . S
H475 C448 0.929 . S
H476 C453 0.930 . S
H477 C454 0.929 . S
H478 C456 0.930 . S
H479 C457 0.929 . S
Sm480 C482 2.846 . S
Sm480 O500 2.543 . S
Sm480 O501 2.450 . S
Sm480 O502 2.681 . S
Sm480 O503 2.464 . S
Sm480 O504 2.396 . S
Sm480 O508 2.386 . S
Sm480 O511 2.408 . S
Sm481 C491 2.846 . S
Sm481 O502 2.386 . S
Sm481 O505 2.408 . S
Sm481 O506 2.543 . S
Sm481 O507 2.450 . S
Sm481 O508 2.681 . S
Sm481 O509 2.464 . S
Sm481 O510 2.396 . S
C482 Sm480 2.846 . S
C482 C483 1.506 . S
C482 O500 1.261 . S
C482 O501 1.242 . S
C483 C482 1.506 . S
C483 C484 1.358 . S
C483 C488 1.382 . S
C484 C483 1.358 . S
C484 C485 1.385 . S
C484 H512 0.930 . S
C485 C484 1.385 . S
C485 C486 1.395 . S
C485 H513 0.929 . S
C486 C485 1.395 . S
C486 C487 1.335 . S
C487 C486 1.335 . S
C487 C488 1.398 . S
C487 H514 0.930 . S
C488 C483 1.382 . S
C488 C487 1.398 . S
C488 H515 0.929 . S
C489 O502 1.271 . S
C489 O503 1.251 . S
C490 O504 1.252 . S
C490 O505 1.272 . S
C491 Sm481 2.846 . S
C491 C492 1.506 . S
C491 O506 1.261 . S
C491 O507 1.242 . S
C492 C491 1.506 . S
C492 C493 1.358 . S
C492 C497 1.382 . S
C493 C492 1.358 . S
C493 C494 1.385 . S
C493 H516 0.930 . S
C494 C493 1.385 . S
C494 C495 1.395 . S
C494 H517 0.929 . S
C495 C494 1.395 . S
C495 C496 1.335 . S
C496 C495 1.335 . S
C496 C497 1.398 . S
C496 H518 0.930 . S
C497 C492 1.382 . S
C497 C496 1.398 . S
C497 H519 0.929 . S
C498 O508 1.271 . S
C498 O509 1.251 . S
C499 O510 1.252 . S
C499 O511 1.272 . S
O500 Sm480 2.543 . S
O500 C482 1.261 . S
O501 Sm480 2.450 . S
O501 C482 1.242 . S
O502 Sm480 2.681 . S
O502 Sm481 2.386 . S
O502 C489 1.271 . S
O503 Sm480 2.464 . S
O503 C489 1.251 . S
O504 Sm480 2.396 . S
O504 C490 1.252 . S
O505 Sm481 2.408 . S
O505 C490 1.272 . S
O506 Sm481 2.543 . S
O506 C491 1.261 . S
O507 Sm481 2.450 . S
O507 C491 1.242 . S
O508 Sm480 2.386 . S
O508 Sm481 2.681 . S
O508 C498 1.271 . S
O509 Sm481 2.464 . S
O509 C498 1.251 . S
O510 Sm481 2.396 . S
O510 C499 1.252 . S
O511 Sm480 2.408 . S
O511 C499 1.272 . S
H512 C484 0.930 . S
H513 C485 0.929 . S
H514 C487 0.930 . S
H515 C488 0.929 . S
H516 C493 0.930 . S
H517 C494 0.929 . S
H518 C496 0.930 . S
H519 C497 0.929 . S
Sm520 C522 2.846 . S
Sm520 O540 2.543 . S
Sm520 O541 2.450 . S
Sm520 O542 2.681 . S
Sm520 O543 2.464 . S
Sm520 O544 2.396 . S
Sm520 O548 2.386 . S
Sm520 O551 2.408 . S
Sm521 C531 2.846 . S
Sm521 O542 2.386 . S
Sm521 O545 2.408 . S
Sm521 O546 2.543 . S
Sm521 O547 2.450 . S
Sm521 O548 2.681 . S
Sm521 O549 2.464 . S
Sm521 O550 2.396 . S
C522 Sm520 2.846 . S
C522 C523 1.506 . S
C522 O540 1.261 . S
C522 O541 1.242 . S
C523 C522 1.506 . S
C523 C524 1.358 . S
C523 C528 1.382 . S
C524 C523 1.358 . S
C524 C525 1.385 . S
C524 H552 0.930 . S
C525 C524 1.385 . S
C525 C526 1.395 . S
C525 H553 0.929 . S
C526 C525 1.395 . S
C526 C527 1.335 . S
C527 C526 1.335 . S
C527 C528 1.398 . S
C527 H554 0.930 . S
C528 C523 1.382 . S
C528 C527 1.398 . S
C528 H555 0.929 . S
C529 O542 1.271 . S
C529 O543 1.251 . S
C530 O544 1.252 . S
C530 O545 1.272 . S
C531 Sm521 2.846 . S
C531 C532 1.506 . S
C531 O546 1.261 . S
C531 O547 1.242 . S
C532 C531 1.506 . S
C532 C533 1.358 . S
C532 C537 1.382 . S
C533 C532 1.358 . S
C533 C534 1.385 . S
C533 H556 0.930 . S
C534 C533 1.385 . S
C534 C535 1.395 . S
C534 H557 0.929 . S
C535 C534 1.395 . S
C535 C536 1.335 . S
C536 C535 1.335 . S
C536 C537 1.398 . S
C536 H558 0.930 . S
C537 C532 1.382 . S
C537 C536 1.398 . S
C537 H559 0.929 . S
C538 O548 1.271 . S
C538 O549 1.251 . S
C539 O550 1.252 . S
C539 O551 1.272 . S
O540 Sm520 2.543 . S
O540 C522 1.261 . S
O541 Sm520 2.450 . S
O541 C522 1.242 . S
O542 Sm520 2.681 . S
O542 Sm521 2.386 . S
O542 C529 1.271 . S
O543 Sm520 2.464 . S
O543 C529 1.251 . S
O544 Sm520 2.396 . S
O544 C530 1.252 . S
O545 Sm521 2.408 . S
O545 C530 1.272 . S
O546 Sm521 2.543 . S
O546 C531 1.261 . S
O547 Sm521 2.450 . S
O547 C531 1.242 . S
O548 Sm520 2.386 . S
O548 Sm521 2.681 . S
O548 C538 1.271 . S
O549 Sm521 2.464 . S
O549 C538 1.251 . S
O550 Sm521 2.396 . S
O550 C539 1.252 . S
O551 Sm520 2.408 . S
O551 C539 1.272 . S
H552 C524 0.930 . S
H553 C525 0.929 . S
H554 C527 0.930 . S
H555 C528 0.929 . S
H556 C533 0.930 . S
H557 C534 0.929 . S
H558 C536 0.930 . S
H559 C537 0.929 . S
Sm560 C562 2.846 . S
Sm560 O580 2.543 . S
Sm560 O581 2.450 . S
Sm560 O582 2.681 . S
Sm560 O583 2.464 . S
Sm560 O584 2.396 . S
Sm560 O588 2.386 . S
Sm560 O591 2.408 . S
Sm561 C571 2.846 . S
Sm561 O582 2.386 . S
Sm561 O585 2.408 . S
Sm561 O586 2.543 . S
Sm561 O587 2.450 . S
Sm561 O588 2.681 . S
Sm561 O589 2.464 . S
Sm561 O590 2.396 . S
C562 Sm560 2.846 . S
C562 C563 1.506 . S
C562 O580 1.261 . S
C562 O581 1.242 . S
C563 C562 1.506 . S
C563 C564 1.358 . S
C563 C568 1.382 . S
C564 C563 1.358 . S
C564 C565 1.385 . S
C564 H592 0.930 . S
C565 C564 1.385 . S
C565 C566 1.395 . S
C565 H593 0.929 . S
C566 C565 1.395 . S
C566 C567 1.335 . S
C567 C566 1.335 . S
C567 C568 1.398 . S
C567 H594 0.930 . S
C568 C563 1.382 . S
C568 C567 1.398 . S
C568 H595 0.929 . S
C569 O582 1.271 . S
C569 O583 1.251 . S
C570 O584 1.252 . S
C570 O585 1.272 . S
C571 Sm561 2.846 . S
C571 C572 1.506 . S
C571 O586 1.261 . S
C571 O587 1.242 . S
C572 C571 1.506 . S
C572 C573 1.358 . S
C572 C577 1.382 . S
C573 C572 1.358 . S
C573 C574 1.385 . S
C573 H596 0.930 . S
C574 C573 1.385 . S
C574 C575 1.395 . S
C574 H597 0.929 . S
C575 C574 1.395 . S
C575 C576 1.335 . S
C576 C575 1.335 . S
C576 C577 1.398 . S
C576 H598 0.930 . S
C577 C572 1.382 . S
C577 C576 1.398 . S
C577 H599 0.929 . S
C578 O588 1.271 . S
C578 O589 1.251 . S
C579 O590 1.252 . S
C579 O591 1.272 . S
O580 Sm560 2.543 . S
O580 C562 1.261 . S
O581 Sm560 2.450 . S
O581 C562 1.242 . S
O582 Sm560 2.681 . S
O582 Sm561 2.386 . S
O582 C569 1.271 . S
O583 Sm560 2.464 . S
O583 C569 1.251 . S
O584 Sm560 2.396 . S
O584 C570 1.252 . S
O585 Sm561 2.408 . S
O585 C570 1.272 . S
O586 Sm561 2.543 . S
O586 C571 1.261 . S
O587 Sm561 2.450 . S
O587 C571 1.242 . S
O588 Sm560 2.386 . S
O588 Sm561 2.681 . S
O588 C578 1.271 . S
O589 Sm561 2.464 . S
O589 C578 1.251 . S
O590 Sm561 2.396 . S
O590 C579 1.252 . S
O591 Sm560 2.408 . S
O591 C579 1.272 . S
H592 C564 0.930 . S
H593 C565 0.929 . S
H594 C567 0.930 . S
H595 C568 0.929 . S
H596 C573 0.930 . S
H597 C574 0.929 . S
H598 C576 0.930 . S
H599 C577 0.929 . S
Sm600 C602 2.846 . S
Sm600 O620 2.543 . S
Sm600 O621 2.450 . S
Sm600 O622 2.681 1_554 S
Sm600 O623 2.464 1_554 S
Sm600 O624 2.396 1_554 S
Sm600 O628 2.386 1_655 S
Sm600 O631 2.408 1_655 S
Sm601 C611 2.846 . S
Sm601 O622 2.386 1_455 S
Sm601 O625 2.408 1_455 S
Sm601 O626 2.543 . S
Sm601 O627 2.450 . S
Sm601 O628 2.681 1_556 S
Sm601 O629 2.464 1_556 S
Sm601 O630 2.396 1_556 S
C602 Sm600 2.846 . S
C602 C603 1.506 . S
C602 O620 1.261 . S
C602 O621 1.242 . S
C603 C602 1.506 . S
C603 C604 1.358 . S
C603 C608 1.382 . S
C604 C603 1.358 . S
C604 C605 1.385 . S
C604 H632 0.930 . S
C605 C604 1.385 . S
C605 C606 1.395 . S
C605 H633 0.929 . S
C606 C605 1.395 . S
C606 C607 1.335 . S
C607 C606 1.335 . S
C607 C608 1.398 . S
C607 H634 0.930 . S
C608 C603 1.382 . S
C608 C607 1.398 . S
C608 H635 0.929 . S
C609 O622 1.271 . S
C609 O623 1.251 . S
C610 O624 1.252 . S
C610 O625 1.272 . S
C611 Sm601 2.846 . S
C611 C612 1.506 . S
C611 O626 1.261 . S
C611 O627 1.242 . S
C612 C611 1.506 . S
C612 C613 1.358 . S
C612 C617 1.382 . S
C613 C612 1.358 . S
C613 C614 1.385 . S
C613 H636 0.930 . S
C614 C613 1.385 . S
C614 C615 1.395 . S
C614 H637 0.929 . S
C615 C614 1.395 . S
C615 C616 1.335 . S
C616 C615 1.335 . S
C616 C617 1.398 . S
C616 H638 0.930 . S
C617 C612 1.382 . S
C617 C616 1.398 . S
C617 H639 0.929 . S
C618 O628 1.271 . S
C618 O629 1.251 . S
C619 O630 1.252 . S
C619 O631 1.272 . S
O620 Sm600 2.543 . S
O620 C602 1.261 . S
O621 Sm600 2.450 . S
O621 C602 1.242 . S
O622 Sm600 2.681 1_556 S
O622 Sm601 2.386 1_655 S
O622 C609 1.271 . S
O623 Sm600 2.464 1_556 S
O623 C609 1.251 . S
O624 Sm600 2.396 1_556 S
O624 C610 1.252 . S
O625 Sm601 2.408 1_655 S
O625 C610 1.272 . S
O626 Sm601 2.543 . S
O626 C611 1.261 . S
O627 Sm601 2.450 . S
O627 C611 1.242 . S
O628 Sm600 2.386 1_455 S
O628 Sm601 2.681 1_554 S
O628 C618 1.271 . S
O629 Sm601 2.464 1_554 S
O629 C618 1.251 . S
O630 Sm601 2.396 1_554 S
O630 C619 1.252 . S
O631 Sm600 2.408 1_455 S
O631 C619 1.272 . S
H632 C604 0.930 . S
H633 C605 0.929 . S
H634 C607 0.930 . S
H635 C608 0.929 . S
H636 C613 0.930 . S
H637 C614 0.929 . S
H638 C616 0.930 . S
H639 C617 0.929 . S
C640 C641 1.349 . S
C640 C642 1.327 . S
C640 H665 0.950 . S
C641 C640 1.349 . S
C641 C657 1.349 . S
C642 C640 1.327 . S
C642 C661 1.429 . S
C642 H666 0.950 . S
C643 C660 1.574 . S
C643 C662 1.368 . S
C643 H667 0.949 . S
H644 C648 0.949 . S
C645 C646 1.349 . S
C645 C647 1.327 . S
C645 H668 0.950 . S
C646 C645 1.349 . S
C646 C658 1.349 . S
C647 C645 1.327 . S
C647 C663 1.429 . S
C647 H669 0.950 . S
C648 H644 0.949 . S
C648 C656 1.574 . S
C648 C664 1.368 . S
H649 C657 0.950 . S
H650 C655 0.950 . S
H651 C656 0.949 . S
H652 C658 0.950 . S
H653 C659 0.950 . S
H654 C660 0.949 . S
C655 H650 0.950 . S
C655 C657 1.327 . S
C655 C661 1.429 . S
C656 C648 1.574 . S
C656 H651 0.949 . S
C656 C662 1.368 . S
C657 C641 1.349 . S
C657 H649 0.950 . S
C657 C655 1.327 . S
C658 C646 1.349 . S
C658 H652 0.950 . S
C658 C659 1.327 . S
C659 H653 0.950 . S
C659 C658 1.327 . S
C659 C663 1.429 . S
C660 C643 1.574 . S
C660 H654 0.949 . S
C660 C664 1.368 . S
C661 C642 1.429 . S
C661 C655 1.429 . S
C661 C662 1.523 . S
C662 C643 1.368 . S
C662 C656 1.368 . S
C662 C661 1.523 . S
C663 C647 1.429 . S
C663 C659 1.429 . S
C663 C664 1.523 . S
C664 C648 1.368 . S
C664 C660 1.368 . S
C664 C663 1.523 . S
H665 C640 0.950 . S
H666 C642 0.950 . S
H667 C643 0.949 . S
H668 C645 0.950 . S
H669 C647 0.950 . S
C670 C671 1.349 . S
C670 C672 1.327 . S
C670 H695 0.980 . S
C671 C670 1.349 . S
C671 C687 1.349 . S
C672 C670 1.327 . S
C672 C691 1.429 . S
C672 H696 0.950 . S
C673 C690 1.574 . S
C673 C692 1.368 . S
C673 H697 0.949 . S
H674 C678 0.949 . S
C675 C676 1.349 . S
C675 C677 1.327 . S
C675 H698 0.950 . S
C676 C675 1.349 . S
C676 C688 1.349 . S
C677 C675 1.327 . S
C677 C693 1.429 . S
C677 H699 0.950 . S
C678 H674 0.949 . S
C678 C686 1.574 . S
C678 C694 1.368 . S
H679 C687 0.950 . S
H680 C685 0.950 . S
H681 C686 0.949 . S
H682 C688 0.950 . S
H683 C689 0.950 . S
H684 C690 0.949 . S
C685 H680 0.950 . S
C685 C687 1.327 . S
C685 C691 1.429 . S
C686 C678 1.574 . S
C686 H681 0.949 . S
C686 C692 1.368 . S
C687 C671 1.349 . S
C687 H679 0.950 . S
C687 C685 1.327 . S
C688 C676 1.349 . S
C688 H682 0.950 . S
C688 C689 1.327 . S
C689 H683 0.950 . S
C689 C688 1.327 . S
C689 C693 1.429 . S
C690 C673 1.574 . S
C690 H684 0.949 . S
C690 C694 1.368 . S
C691 C672 1.429 . S
C691 C685 1.429 . S
C691 C692 1.523 . S
C692 C673 1.368 . S
C692 C686 1.368 . S
C692 C691 1.523 . S
C693 C677 1.429 . S
C693 C689 1.429 . S
C693 C694 1.523 . S
C694 C678 1.368 . S
C694 C690 1.368 . S
C694 C693 1.523 . S
H695 C670 0.980 . S
H696 C672 0.950 . S
H697 C673 0.949 . S
H698 C675 0.950 . S
H699 C677 0.950 . S
C700 C701 1.349 . S
C700 C702 1.327 . S
C700 H725 0.950 . S
C701 C700 1.349 . S
C701 C717 1.349 . S
C702 C700 1.327 . S
C702 C721 1.429 . S
C702 H726 0.950 . S
C703 C720 1.574 . S
C703 C722 1.368 . S
C703 H727 0.949 . S
H704 C708 0.949 . S
C705 C706 1.349 . S
C705 C707 1.327 . S
C705 H728 0.950 . S
C706 C705 1.349 . S
C706 C718 1.349 . S
C707 C705 1.327 . S
C707 C723 1.429 . S
C707 H729 0.950 . S
C708 H704 0.949 . S
C708 C716 1.574 . S
C708 C724 1.368 . S
H709 C717 0.950 . S
H710 C715 0.950 . S
H711 C716 0.949 . S
H712 C718 0.950 . S
H713 C719 0.950 . S
H714 C720 0.949 . S
C715 H710 0.950 . S
C715 C717 1.327 . S
C715 C721 1.429 . S
C716 C708 1.574 . S
C716 H711 0.949 . S
C716 C722 1.368 . S
C717 C701 1.349 . S
C717 H709 0.950 . S
C717 C715 1.327 . S
C718 C706 1.349 . S
C718 H712 0.950 . S
C718 C719 1.327 . S
C719 H713 0.950 . S
C719 C718 1.327 . S
C719 C723 1.429 . S
C720 C703 1.574 . S
C720 H714 0.949 . S
C720 C724 1.368 . S
C721 C702 1.429 . S
C721 C715 1.429 . S
C721 C722 1.523 . S
C722 C703 1.368 . S
C722 C716 1.368 . S
C722 C721 1.523 . S
C723 C707 1.429 . S
C723 C719 1.429 . S
C723 C724 1.523 . S
C724 C708 1.368 . S
C724 C720 1.368 . S
C724 C723 1.523 . S
H725 C700 0.950 . S
H726 C702 0.950 . S
H727 C703 0.949 . S
H728 C705 0.950 . S
H729 C707 0.950 . S
C730 C731 1.349 . S
C730 C732 1.327 . S
C730 H755 0.950 . S
C731 C730 1.349 . S
C731 C747 1.349 . S
C732 C730 1.327 . S
C732 C751 1.429 . S
C732 H756 0.950 . S
C733 C750 1.574 . S
C733 C752 1.368 . S
C733 H757 0.949 . S
H734 C738 0.949 . S
C735 C736 1.349 . S
C735 C737 1.327 . S
C735 H758 0.950 . S
C736 C735 1.349 . S
C736 C748 1.349 . S
C737 C735 1.327 . S
C737 C753 1.429 . S
C737 H759 0.950 . S
C738 H734 0.949 . S
C738 C746 1.574 . S
C738 C754 1.368 . S
H739 C747 0.950 . S
H740 C745 0.950 . S
H741 C746 0.949 . S
H742 C748 0.950 . S
H743 C749 0.950 . S
H744 C750 0.949 . S
C745 H740 0.950 . S
C745 C747 1.327 . S
C745 C751 1.429 . S
C746 C738 1.574 . S
C746 H741 0.949 . S
C746 C752 1.368 . S
C747 C731 1.349 . S
C747 H739 0.950 . S
C747 C745 1.327 . S
C748 C736 1.349 . S
C748 H742 0.950 . S
C748 C749 1.327 . S
C749 H743 0.950 . S
C749 C748 1.327 . S
C749 C753 1.429 . S
C750 C733 1.574 . S
C750 H744 0.949 . S
C750 C754 1.368 . S
C751 C732 1.429 . S
C751 C745 1.429 . S
C751 C752 1.523 . S
C752 C733 1.368 . S
C752 C746 1.368 . S
C752 C751 1.523 . S
C753 C737 1.429 . S
C753 C749 1.429 . S
C753 C754 1.523 . S
C754 C738 1.368 . S
C754 C750 1.368 . S
C754 C753 1.523 . S
H755 C730 0.950 . S
H756 C732 0.950 . S
H757 C733 0.949 . S
H758 C735 0.950 . S
H759 C737 0.950 . S
C760 C761 1.349 . S
C760 C762 1.327 . S
C760 H785 0.950 . S
C761 C760 1.349 . S
C761 C777 1.349 . S
C762 C760 1.327 . S
C762 C781 1.429 . S
C762 H786 0.950 . S
C763 C780 1.574 . S
C763 C782 1.368 . S
C763 H787 0.949 . S
H764 C768 0.949 . S
C765 C766 1.349 . S
C765 C767 1.327 . S
C765 H788 0.950 . S
C766 C765 1.349 . S
C766 C778 1.349 . S
C767 C765 1.327 . S
C767 C783 1.429 . S
C767 H789 0.950 . S
C768 H764 0.949 . S
C768 C776 1.574 . S
C768 C784 1.368 . S
H769 C777 0.950 . S
H770 C775 0.950 . S
H771 C776 0.949 . S
H772 C778 0.950 . S
H773 C779 0.950 . S
H774 C780 0.949 . S
C775 H770 0.950 . S
C775 C777 1.327 . S
C775 C781 1.429 . S
C776 C768 1.574 . S
C776 H771 0.949 . S
C776 C782 1.368 . S
C777 C761 1.349 . S
C777 H769 0.950 . S
C777 C775 1.327 . S
C778 C766 1.349 . S
C778 H772 0.950 . S
C778 C779 1.327 . S
C779 H773 0.950 . S
C779 C778 1.327 . S
C779 C783 1.429 . S
C780 C763 1.574 . S
C780 H774 0.949 . S
C780 C784 1.368 . S
C781 C762 1.429 . S
C781 C775 1.429 . S
C781 C782 1.523 . S
C782 C763 1.368 . S
C782 C776 1.368 . S
C782 C781 1.523 . S
C783 C767 1.429 . S
C783 C779 1.429 . S
C783 C784 1.523 . S
C784 C768 1.368 . S
C784 C780 1.368 . S
C784 C783 1.523 . S
H785 C760 0.950 . S
H786 C762 0.950 . S
H787 C763 0.949 . S
H788 C765 0.950 . S
H789 C767 0.950 . S
C790 C791 1.349 . S
C790 C792 1.327 . S
C790 H815 0.950 . S
C791 C790 1.349 . S
C791 C807 1.349 . S
C792 C790 1.327 . S
C792 C811 1.429 . S
C792 H816 0.950 . S
C793 C810 1.574 . S
C793 C812 1.368 . S
C793 H817 0.949 . S
H794 C798 0.949 . S
C795 C796 1.349 . S
C795 C797 1.327 . S
C795 H818 0.950 . S
C796 C795 1.349 . S
C796 C808 1.349 . S
C797 C795 1.327 . S
C797 C813 1.429 . S
C797 H819 0.950 . S
C798 H794 0.949 . S
C798 C806 1.574 . S
C798 C814 1.368 . S
H799 C807 0.950 . S
H800 C805 0.950 . S
H801 C806 0.949 . S
H802 C808 0.950 . S
H803 C809 0.950 . S
H804 C810 0.949 . S
C805 H800 0.950 . S
C805 C807 1.327 . S
C805 C811 1.429 . S
C806 C798 1.574 . S
C806 H801 0.949 . S
C806 C812 1.368 . S
C807 C791 1.349 . S
C807 H799 0.950 . S
C807 C805 1.327 . S
C808 C796 1.349 . S
C808 H802 0.950 . S
C808 C809 1.327 . S
C809 H803 0.950 . S
C809 C808 1.327 . S
C809 C813 1.429 . S
C810 C793 1.574 . S
C810 H804 0.949 . S
C810 C814 1.368 . S
C811 C792 1.429 . S
C811 C805 1.429 . S
C811 C812 1.523 . S
C812 C793 1.368 . S
C812 C806 1.368 . S
C812 C811 1.523 . S
C813 C797 1.429 . S
C813 C809 1.429 . S
C813 C814 1.523 . S
C814 C798 1.368 . S
C814 C810 1.368 . S
C814 C813 1.523 . S
H815 C790 0.950 . S
H816 C792 0.950 . S
H817 C793 0.949 . S
H818 C795 0.950 . S
H819 C797 0.950 . S
C820 C821 1.349 . S
C820 C822 1.327 . S
C820 H845 0.950 . S
C821 C820 1.349 . S
C821 C837 1.349 . S
C822 C820 1.327 . S
C822 C841 1.429 . S
C822 H846 0.950 . S
C823 C840 1.574 . S
C823 C842 1.368 . S
C823 H847 0.949 . S
H824 C828 0.949 . S
C825 C826 1.349 . S
C825 C827 1.327 . S
C825 H848 0.950 . S
C826 C825 1.349 . S
C826 C838 1.349 . S
C827 C825 1.327 . S
C827 C843 1.429 . S
C827 H849 0.950 . S
C828 H824 0.949 . S
C828 C836 1.574 . S
C828 C844 1.368 . S
H829 C837 0.950 . S
H830 C835 0.950 . S
H831 C836 0.949 . S
H832 C838 0.950 . S
H833 C839 0.950 . S
H834 C840 0.949 . S
C835 H830 0.950 . S
C835 C837 1.327 . S
C835 C841 1.429 . S
C836 C828 1.574 . S
C836 H831 0.949 . S
C836 C842 1.368 . S
C837 C821 1.349 . S
C837 H829 0.950 . S
C837 C835 1.327 . S
C838 C826 1.349 . S
C838 H832 0.950 . S
C838 C839 1.327 . S
C839 H833 0.950 . S
C839 C838 1.327 . S
C839 C843 1.429 . S
C840 C823 1.574 . S
C840 H834 0.949 . S
C840 C844 1.368 . S
C841 C822 1.429 . S
C841 C835 1.429 . S
C841 C842 1.523 . S
C842 C823 1.368 . S
C842 C836 1.368 . S
C842 C841 1.523 . S
C843 C827 1.429 . S
C843 C839 1.429 . S
C843 C844 1.523 . S
C844 C828 1.368 . S
C844 C840 1.368 . S
C844 C843 1.523 . S
H845 C820 0.950 . S
H846 C822 0.950 . S
H847 C823 0.949 . S
H848 C825 0.950 . S
H849 C827 0.950 . S
C850 C851 1.349 . S
C850 C852 1.327 . S
C850 H875 0.950 . S
C851 C850 1.349 . S
C851 C867 1.349 . S
C852 C850 1.327 . S
C852 C871 1.429 . S
C852 H876 0.950 . S
C853 C870 1.574 . S
C853 C872 1.368 . S
C853 H877 0.949 . S
H854 C858 0.949 . S
C855 C856 1.349 . S
C855 C857 1.327 . S
C855 H878 0.950 . S
C856 C855 1.349 . S
C856 C868 1.349 . S
C857 C855 1.327 . S
C857 C873 1.429 . S
C857 H879 0.950 . S
C858 H854 0.949 . S
C858 C866 1.574 . S
C858 C874 1.368 . S
H859 C867 0.950 . S
H860 C865 0.950 . S
H861 C866 0.949 . S
H862 C868 0.950 . S
H863 C869 0.950 . S
H864 C870 0.949 . S
C865 H860 0.950 . S
C865 C867 1.327 . S
C865 C871 1.429 . S
C866 C858 1.574 . S
C866 H861 0.949 . S
C866 C872 1.368 . S
C867 C851 1.349 . S
C867 H859 0.950 . S
C867 C865 1.327 . S
C868 C856 1.349 . S
C868 H862 0.950 . S
C868 C869 1.327 . S
C869 H863 0.950 . S
C869 C868 1.327 . S
C869 C873 1.429 . S
C870 C853 1.574 . S
C870 H864 0.949 . S
C870 C874 1.368 . S
C871 C852 1.429 . S
C871 C865 1.429 . S
C871 C872 1.523 . S
C872 C853 1.368 . S
C872 C866 1.368 . S
C872 C871 1.523 . S
C873 C857 1.429 . S
C873 C869 1.429 . S
C873 C874 1.523 . S
C874 C858 1.368 . S
C874 C870 1.368 . S
C874 C873 1.523 . S
H875 C850 0.950 . S
H876 C852 0.950 . S
H877 C853 0.949 . S
H878 C855 0.950 . S
H879 C857 0.950 . S
C880 C881 1.349 . S
C880 C882 1.327 . S
C880 H905 0.950 . S
C881 C880 1.349 . S
C881 C897 1.349 . S
C882 C880 1.327 . S
C882 C901 1.429 . S
C882 H906 0.950 . S
C883 C900 1.574 . S
C883 C902 1.368 . S
C883 H907 0.949 . S
H884 C888 0.949 . S
C885 C886 1.349 . S
C885 C887 1.327 . S
C885 H908 0.950 . S
C886 C885 1.349 . S
C886 C898 1.349 . S
C887 C885 1.327 . S
C887 C903 1.429 . S
C887 H909 0.950 . S
C888 H884 0.949 . S
C888 C896 1.574 . S
C888 C904 1.368 . S
H889 C897 0.950 . S
H890 C895 0.950 . S
H891 C896 0.949 . S
H892 C898 0.950 . S
H893 C899 0.950 . S
H894 C900 0.949 . S
C895 H890 0.950 . S
C895 C897 1.327 . S
C895 C901 1.429 . S
C896 C888 1.574 . S
C896 H891 0.949 . S
C896 C902 1.368 . S
C897 C881 1.349 . S
C897 H889 0.950 . S
C897 C895 1.327 . S
C898 C886 1.349 . S
C898 H892 0.950 . S
C898 C899 1.327 . S
C899 H893 0.950 . S
C899 C898 1.327 . S
C899 C903 1.429 . S
C900 C883 1.574 . S
C900 H894 0.949 . S
C900 C904 1.368 . S
C901 C882 1.429 . S
C901 C895 1.429 . S
C901 C902 1.523 . S
C902 C883 1.368 . S
C902 C896 1.368 . S
C902 C901 1.523 . S
C903 C887 1.429 . S
C903 C899 1.429 . S
C903 C904 1.523 . S
C904 C888 1.368 . S
C904 C900 1.368 . S
C904 C903 1.523 . S
H905 C880 0.950 . S
H906 C882 0.950 . S
H907 C883 0.949 . S
H908 C885 0.950 . S
H909 C887 0.950 . S
C910 C911 1.349 . S
C910 C912 1.327 . S
C910 H935 0.950 . S
C911 C910 1.349 . S
C911 C927 1.349 . S
C912 C910 1.327 . S
C912 C931 1.429 . S
C912 H936 0.950 . S
C913 C930 1.574 . S
C913 C932 1.368 . S
C913 H937 0.949 . S
H914 C918 0.949 . S
C915 C916 1.349 . S
C915 C917 1.327 . S
C915 H938 0.950 . S
C916 C915 1.349 . S
C916 C928 1.349 . S
C917 C915 1.327 . S
C917 C933 1.429 . S
C917 H939 0.950 . S
C918 H914 0.949 . S
C918 C926 1.574 . S
C918 C934 1.368 . S
H919 C927 0.950 . S
H920 C925 0.950 . S
H921 C926 0.949 . S
H922 C928 0.950 . S
H923 C929 0.950 . S
H924 C930 0.949 . S
C925 H920 0.950 . S
C925 C927 1.327 . S
C925 C931 1.429 . S
C926 C918 1.574 . S
C926 H921 0.949 . S
C926 C932 1.368 . S
C927 C911 1.349 . S
C927 H919 0.950 . S
C927 C925 1.327 . S
C928 C916 1.349 . S
C928 H922 0.950 . S
C928 C929 1.327 . S
C929 H923 0.950 . S
C929 C928 1.327 . S
C929 C933 1.429 . S
C930 C913 1.574 . S
C930 H924 0.949 . S
C930 C934 1.368 . S
C931 C912 1.429 . S
C931 C925 1.429 . S
C931 C932 1.523 . S
C932 C913 1.368 . S
C932 C926 1.368 . S
C932 C931 1.523 . S
C933 C917 1.429 . S
C933 C929 1.429 . S
C933 C934 1.523 . S
C934 C918 1.368 . S
C934 C930 1.368 . S
C934 C933 1.523 . S
H935 C910 0.950 . S
H936 C912 0.950 . S
H937 C913 0.949 . S
H938 C915 0.950 . S
H939 C917 0.950 . S
C940 C941 1.349 . S
C940 C942 1.327 . S
C940 H965 0.950 . S
C941 C940 1.349 . S
C941 C957 1.349 . S
C942 C940 1.327 . S
C942 C961 1.429 . S
C942 H966 0.950 . S
C943 C960 1.574 . S
C943 C962 1.368 . S
C943 H967 0.949 . S
H944 C948 0.949 . S
C945 C946 1.349 . S
C945 C947 1.327 . S
C945 H968 0.950 . S
C946 C945 1.349 . S
C946 C958 1.349 . S
C947 C945 1.327 . S
C947 C963 1.429 . S
C947 H969 0.950 . S
C948 H944 0.949 . S
C948 C956 1.574 . S
C948 C964 1.368 . S
H949 C957 0.950 . S
H950 C955 0.950 . S
H951 C956 0.949 . S
H952 C958 0.950 . S
H953 C959 0.950 . S
H954 C960 0.949 . S
C955 H950 0.950 . S
C955 C957 1.327 . S
C955 C961 1.429 . S
C956 C948 1.574 . S
C956 H951 0.949 . S
C956 C962 1.368 . S
C957 C941 1.349 . S
C957 H949 0.950 . S
C957 C955 1.327 . S
C958 C946 1.349 . S
C958 H952 0.950 . S
C958 C959 1.327 . S
C959 H953 0.950 . S
C959 C958 1.327 . S
C959 C963 1.429 . S
C960 C943 1.574 . S
C960 H954 0.949 . S
C960 C964 1.368 . S
C961 C942 1.429 . S
C961 C955 1.429 . S
C961 C962 1.523 . S
C962 C943 1.368 . S
C962 C956 1.368 . S
C962 C961 1.523 . S
C963 C947 1.429 . S
C963 C959 1.429 . S
C963 C964 1.523 . S
C964 C948 1.368 . S
C964 C960 1.368 . S
C964 C963 1.523 . S
H965 C940 0.950 . S
H966 C942 0.950 . S
H967 C943 0.949 . S
H968 C945 0.950 . S
H969 C947 0.950 . S
C970 C971 1.349 . S
C970 C972 1.327 . S
C970 H995 0.950 . S
C971 C970 1.349 . S
C971 C987 1.349 . S
C972 C970 1.327 . S
C972 C991 1.429 . S
C972 H996 0.950 . S
C973 C990 1.574 . S
C973 C992 1.368 . S
C973 H997 0.949 . S
H974 C978 0.949 . S
C975 C976 1.349 . S
C975 C977 1.327 . S
C975 H998 0.950 . S
C976 C975 1.349 . S
C976 C988 1.349 . S
C977 C975 1.327 . S
C977 C993 1.429 . S
C977 H999 0.950 . S
C978 H974 0.949 . S
C978 C986 1.574 . S
C978 C994 1.368 . S
H979 C987 0.950 . S
H980 C985 0.950 . S
H981 C986 0.949 . S
H982 C988 0.950 . S
H983 C989 0.950 . S
H984 C990 0.949 . S
C985 H980 0.950 . S
C985 C987 1.327 . S
C985 C991 1.429 . S
C986 C978 1.574 . S
C986 H981 0.949 . S
C986 C992 1.368 . S
C987 C971 1.349 . S
C987 H979 0.950 . S
C987 C985 1.327 . S
C988 C976 1.349 . S
C988 H982 0.950 . S
C988 C989 1.327 . S
C989 H983 0.950 . S
C989 C988 1.327 . S
C989 C993 1.429 . S
C990 C973 1.574 . S
C990 H984 0.949 . S
C990 C994 1.368 . S
C991 C972 1.429 . S
C991 C985 1.429 . S
C991 C992 1.523 . S
C992 C973 1.368 . S
C992 C986 1.368 . S
C992 C991 1.523 . S
C993 C977 1.429 . S
C993 C989 1.429 . S
C993 C994 1.523 . S
C994 C978 1.368 . S
C994 C990 1.368 . S
C994 C993 1.523 . S
H995 C970 0.950 . S
H996 C972 0.950 . S
H997 C973 0.949 . S
H998 C975 0.950 . S
H999 C977 0.950 . S
C1000 C1001 1.349 . S
C1000 C1002 1.327 . S
C1000 H1025 0.950 . S
C1001 C1000 1.349 . S
C1001 C1017 1.349 . S
C1002 C1000 1.327 . S
C1002 C1021 1.429 . S
C1002 H1026 0.950 . S
C1003 C1020 1.574 . S
C1003 C1022 1.368 . S
C1003 H1027 0.949 . S
H1004 C1008 0.949 . S
C1005 C1006 1.349 . S
C1005 C1007 1.327 . S
C1005 H1028 0.950 . S
C1006 C1005 1.349 . S
C1006 C1018 1.349 . S
C1007 C1005 1.327 . S
C1007 C1023 1.429 . S
C1007 H1029 0.950 . S
C1008 H1004 0.949 . S
C1008 C1016 1.574 . S
C1008 C1024 1.368 . S
H1009 C1017 0.950 . S
H1010 C1015 0.950 . S
H1011 C1016 0.949 . S
H1012 C1018 0.950 . S
H1013 C1019 0.950 . S
H1014 C1020 0.949 . S
C1015 H1010 0.950 . S
C1015 C1017 1.327 . S
C1015 C1021 1.429 . S
C1016 C1008 1.574 . S
C1016 H1011 0.949 . S
C1016 C1022 1.368 . S
C1017 C1001 1.349 . S
C1017 H1009 0.950 . S
C1017 C1015 1.327 . S
C1018 C1006 1.349 . S
C1018 H1012 0.950 . S
C1018 C1019 1.327 . S
C1019 H1013 0.950 . S
C1019 C1018 1.327 . S
C1019 C1023 1.429 . S
C1020 C1003 1.574 . S
C1020 H1014 0.949 . S
C1020 C1024 1.368 . S
C1021 C1002 1.429 . S
C1021 C1015 1.429 . S
C1021 C1022 1.523 . S
C1022 C1003 1.368 . S
C1022 C1016 1.368 . S
C1022 C1021 1.523 . S
C1023 C1007 1.429 . S
C1023 C1019 1.429 . S
C1023 C1024 1.523 . S
C1024 C1008 1.368 . S
C1024 C1020 1.368 . S
C1024 C1023 1.523 . S
H1025 C1000 0.950 . S
H1026 C1002 0.950 . S
H1027 C1003 0.949 . S
H1028 C1005 0.950 . S
H1029 C1007 0.950 . S
C1030 C1031 1.349 . S
C1030 C1032 1.327 . S
C1030 H1055 0.950 . S
C1031 C1030 1.349 . S
C1031 C1047 1.349 . S
C1032 C1030 1.327 . S
C1032 C1051 1.429 . S
C1032 H1056 0.950 . S
C1033 C1050 1.574 . S
C1033 C1052 1.368 . S
C1033 H1057 0.949 . S
H1034 C1038 0.949 . S
C1035 C1036 1.349 . S
C1035 C1037 1.327 . S
C1035 H1058 0.950 . S
C1036 C1035 1.349 . S
C1036 C1048 1.349 . S
C1037 C1035 1.327 . S
C1037 C1053 1.429 . S
C1037 H1059 0.950 . S
C1038 H1034 0.949 . S
C1038 C1046 1.574 . S
C1038 C1054 1.368 . S
H1039 C1047 0.950 . S
H1040 C1045 0.950 . S
H1041 C1046 0.949 . S
H1042 C1048 0.950 . S
H1043 C1049 0.950 . S
H1044 C1050 0.949 . S
C1045 H1040 0.950 . S
C1045 C1047 1.327 . S
C1045 C1051 1.429 . S
C1046 C1038 1.574 . S
C1046 H1041 0.949 . S
C1046 C1052 1.368 . S
C1047 C1031 1.349 . S
C1047 H1039 0.950 . S
C1047 C1045 1.327 . S
C1048 C1036 1.349 . S
C1048 H1042 0.950 . S
C1048 C1049 1.327 . S
C1049 H1043 0.950 . S
C1049 C1048 1.327 . S
C1049 C1053 1.429 . S
C1050 C1033 1.574 . S
C1050 H1044 0.949 . S
C1050 C1054 1.368 . S
C1051 C1032 1.429 . S
C1051 C1045 1.429 . S
C1051 C1052 1.523 . S
C1052 C1033 1.368 . S
C1052 C1046 1.368 . S
C1052 C1051 1.523 . S
C1053 C1037 1.429 . S
C1053 C1049 1.429 . S
C1053 C1054 1.523 . S
C1054 C1038 1.368 . S
C1054 C1050 1.368 . S
C1054 C1053 1.523 . S
H1055 C1030 0.950 . S
H1056 C1032 0.950 . S
H1057 C1033 0.949 . S
H1058 C1035 0.950 . S
H1059 C1037 0.950 . S
C1060 C1061 1.349 . S
C1060 C1062 1.327 . S
C1060 H1085 0.950 . S
C1061 C1060 1.349 . S
C1061 C1077 1.349 . S
C1062 C1060 1.327 . S
C1062 C1081 1.429 . S
C1062 H1086 0.950 . S
C1063 C1080 1.574 . S
C1063 C1082 1.368 . S
C1063 H1087 0.949 . S
H1064 C1068 0.949 . S
C1065 C1066 1.349 . S
C1065 C1067 1.327 . S
C1065 H1088 0.950 . S
C1066 C1065 1.349 . S
C1066 C1078 1.349 . S
C1067 C1065 1.327 . S
C1067 C1083 1.429 . S
C1067 H1089 0.950 . S
C1068 H1064 0.949 . S
C1068 C1076 1.574 . S
C1068 C1084 1.368 . S
H1069 C1077 0.950 . S
H1070 C1075 0.950 . S
H1071 C1076 0.949 . S
H1072 C1078 0.950 . S
H1073 C1079 0.950 . S
H1074 C1080 0.949 . S
C1075 H1070 0.950 . S
C1075 C1077 1.327 . S
C1075 C1081 1.429 . S
C1076 C1068 1.574 . S
C1076 H1071 0.949 . S
C1076 C1082 1.368 . S
C1077 C1061 1.349 . S
C1077 H1069 0.950 . S
C1077 C1075 1.327 . S
C1078 C1066 1.349 . S
C1078 H1072 0.950 . S
C1078 C1079 1.327 . S
C1079 H1073 0.950 . S
C1079 C1078 1.327 . S
C1079 C1083 1.429 . S
C1080 C1063 1.574 . S
C1080 H1074 0.949 . S
C1080 C1084 1.368 . S
C1081 C1062 1.429 . S
C1081 C1075 1.429 . S
C1081 C1082 1.523 . S
C1082 C1063 1.368 . S
C1082 C1076 1.368 . S
C1082 C1081 1.523 . S
C1083 C1067 1.429 . S
C1083 C1079 1.429 . S
C1083 C1084 1.523 . S
C1084 C1068 1.368 . S
C1084 C1080 1.368 . S
C1084 C1083 1.523 . S
H1085 C1060 0.950 . S
H1086 C1062 0.950 . S
H1087 C1063 0.949 . S
H1088 C1065 0.950 . S
H1089 C1067 0.950 . S
C1090 C1091 1.349 . S
C1090 C1092 1.327 . S
C1090 H1115 0.950 . S
C1091 C1090 1.349 . S
C1091 C1107 1.349 . S
C1092 C1090 1.327 . S
C1092 C1111 1.429 . S
C1092 H1116 0.950 . S
C1093 C1110 1.574 . S
C1093 C1112 1.368 . S
C1093 H1117 0.949 . S
H1094 C1098 0.949 . S
C1095 C1096 1.349 . S
C1095 C1097 1.327 . S
C1095 H1118 0.950 . S
C1096 C1095 1.349 . S
C1096 C1108 1.349 . S
C1097 C1095 1.327 . S
C1097 C1113 1.429 . S
C1097 H1119 0.950 . S
C1098 H1094 0.949 . S
C1098 C1106 1.574 . S
C1098 C1114 1.368 . S
H1099 C1107 0.950 . S
H1100 C1105 0.950 . S
H1101 C1106 0.949 . S
H1102 C1108 0.950 . S
H1103 C1109 0.950 . S
H1104 C1110 0.949 . S
C1105 H1100 0.950 . S
C1105 C1107 1.327 . S
C1105 C1111 1.429 . S
C1106 C1098 1.574 . S
C1106 H1101 0.949 . S
C1106 C1112 1.368 . S
C1107 C1091 1.349 . S
C1107 H1099 0.950 . S
C1107 C1105 1.327 . S
C1108 C1096 1.349 . S
C1108 H1102 0.950 . S
C1108 C1109 1.327 . S
C1109 H1103 0.950 . S
C1109 C1108 1.327 . S
C1109 C1113 1.429 . S
C1110 C1093 1.574 . S
C1110 H1104 0.949 . S
C1110 C1114 1.368 . S
C1111 C1092 1.429 . S
C1111 C1105 1.429 . S
C1111 C1112 1.523 . S
C1112 C1093 1.368 . S
C1112 C1106 1.368 . S
C1112 C1111 1.523 . S
C1113 C1097 1.429 . S
C1113 C1109 1.429 . S
C1113 C1114 1.523 . S
C1114 C1098 1.368 . S
C1114 C1110 1.368 . S
C1114 C1113 1.523 . S
H1115 C1090 0.950 . S
H1116 C1092 0.950 . S
H1117 C1093 0.949 . S
H1118 C1095 0.950 . S
H1119 C1097 0.950 . S
C1120 C1121 1.349 . S
C1120 C1122 1.327 . S
C1120 H1145 0.950 . S
C1121 C1120 1.349 . S
C1121 C1137 1.349 . S
C1122 C1120 1.327 . S
C1122 C1141 1.429 . S
C1122 H1146 0.950 . S
C1123 C1140 1.574 . S
C1123 C1142 1.368 . S
C1123 H1147 0.949 . S
H1124 C1128 0.949 . S
C1125 C1126 1.349 . S
C1125 C1127 1.327 . S
C1125 H1148 0.950 . S
C1126 C1125 1.349 . S
C1126 C1138 1.349 . S
C1127 C1125 1.327 . S
C1127 C1143 1.429 . S
C1127 H1149 0.950 . S
C1128 H1124 0.949 . S
C1128 C1136 1.574 . S
C1128 C1144 1.368 . S
H1129 C1137 0.950 . S
H1130 C1135 0.950 . S
H1131 C1136 0.949 . S
H1132 C1138 0.950 . S
H1133 C1139 0.950 . S
H1134 C1140 0.949 . S
C1135 H1130 0.950 . S
C1135 C1137 1.327 . S
C1135 C1141 1.429 . S
C1136 C1128 1.574 . S
C1136 H1131 0.949 . S
C1136 C1142 1.368 . S
C1137 C1121 1.349 . S
C1137 H1129 0.950 . S
C1137 C1135 1.327 . S
C1138 C1126 1.349 . S
C1138 H1132 0.950 . S
C1138 C1139 1.327 . S
C1139 H1133 0.950 . S
C1139 C1138 1.327 . S
C1139 C1143 1.429 . S
C1140 C1123 1.574 . S
C1140 H1134 0.949 . S
C1140 C1144 1.368 . S
C1141 C1122 1.429 . S
C1141 C1135 1.429 . S
C1141 C1142 1.523 . S
C1142 C1123 1.368 . S
C1142 C1136 1.368 . S
C1142 C1141 1.523 . S
C1143 C1127 1.429 . S
C1143 C1139 1.429 . S
C1143 C1144 1.523 . S
C1144 C1128 1.368 . S
C1144 C1140 1.368 . S
C1144 C1143 1.523 . S
H1145 C1120 0.950 . S
H1146 C1122 0.950 . S
H1147 C1123 0.949 . S
H1148 C1125 0.950 . S
H1149 C1127 0.950 . S
C1150 C1151 1.349 . S
C1150 C1152 1.327 . S
C1150 H1175 0.950 . S
C1151 C1150 1.349 . S
C1151 C1167 1.349 . S
C1152 C1150 1.327 . S
C1152 C1171 1.429 . S
C1152 H1176 0.950 . S
C1153 C1170 1.574 . S
C1153 C1172 1.368 . S
C1153 H1177 0.949 . S
H1154 C1158 0.949 . S
C1155 C1156 1.349 . S
C1155 C1157 1.327 . S
C1155 H1178 0.950 . S
C1156 C1155 1.349 . S
C1156 C1168 1.349 . S
C1157 C1155 1.327 . S
C1157 C1173 1.429 . S
C1157 H1179 0.950 . S
C1158 H1154 0.949 . S
C1158 C1166 1.574 . S
C1158 C1174 1.368 . S
H1159 C1167 0.950 . S
H1160 C1165 0.950 . S
H1161 C1166 0.949 . S
H1162 C1168 0.950 . S
H1163 C1169 0.950 . S
H1164 C1170 0.949 . S
C1165 H1160 0.950 . S
C1165 C1167 1.327 . S
C1165 C1171 1.429 . S
C1166 C1158 1.574 . S
C1166 H1161 0.949 . S
C1166 C1172 1.368 . S
C1167 C1151 1.349 . S
C1167 H1159 0.950 . S
C1167 C1165 1.327 . S
C1168 C1156 1.349 . S
C1168 H1162 0.950 . S
C1168 C1169 1.327 . S
C1169 H1163 0.950 . S
C1169 C1168 1.327 . S
C1169 C1173 1.429 . S
C1170 C1153 1.574 . S
C1170 H1164 0.949 . S
C1170 C1174 1.368 . S
C1171 C1152 1.429 . S
C1171 C1165 1.429 . S
C1171 C1172 1.523 . S
C1172 C1153 1.368 . S
C1172 C1166 1.368 . S
C1172 C1171 1.523 . S
C1173 C1157 1.429 . S
C1173 C1169 1.429 . S
C1173 C1174 1.523 . S
C1174 C1158 1.368 . S
C1174 C1170 1.368 . S
C1174 C1173 1.523 . S
H1175 C1150 0.950 . S
H1176 C1152 0.950 . S
H1177 C1153 0.949 . S
H1178 C1155 0.950 . S
H1179 C1157 0.950 . S
C1180 C1181 1.349 . S
C1180 C1182 1.327 . S
C1180 H1205 0.950 . S
C1181 C1180 1.349 . S
C1181 C1197 1.349 . S
C1182 C1180 1.327 . S
C1182 C1201 1.429 . S
C1182 H1206 0.950 . S
C1183 C1200 1.574 . S
C1183 C1202 1.368 . S
C1183 H1207 0.949 . S
H1184 C1188 0.949 . S
C1185 C1186 1.349 . S
C1185 C1187 1.327 . S
C1185 H1208 0.950 . S
C1186 C1185 1.349 . S
C1186 C1198 1.349 . S
C1187 C1185 1.327 . S
C1187 C1203 1.429 . S
C1187 H1209 0.950 . S
C1188 H1184 0.949 . S
C1188 C1196 1.574 . S
C1188 C1204 1.368 . S
H1189 C1197 0.950 . S
H1190 C1195 0.950 . S
H1191 C1196 0.949 . S
H1192 C1198 0.950 . S
H1193 C1199 0.950 . S
H1194 C1200 0.949 . S
C1195 H1190 0.950 . S
C1195 C1197 1.327 . S
C1195 C1201 1.429 . S
C1196 C1188 1.574 . S
C1196 H1191 0.949 . S
C1196 C1202 1.368 . S
C1197 C1181 1.349 . S
C1197 H1189 0.950 . S
C1197 C1195 1.327 . S
C1198 C1186 1.349 . S
C1198 H1192 0.950 . S
C1198 C1199 1.327 . S
C1199 H1193 0.950 . S
C1199 C1198 1.327 . S
C1199 C1203 1.429 . S
C1200 C1183 1.574 . S
C1200 H1194 0.949 . S
C1200 C1204 1.368 . S
C1201 C1182 1.429 . S
C1201 C1195 1.429 . S
C1201 C1202 1.523 . S
C1202 C1183 1.368 . S
C1202 C1196 1.368 . S
C1202 C1201 1.523 . S
C1203 C1187 1.429 . S
C1203 C1199 1.429 . S
C1203 C1204 1.523 . S
C1204 C1188 1.368 . S
C1204 C1200 1.368 . S
C1204 C1203 1.523 . S
H1205 C1180 0.950 . S
H1206 C1182 0.950 . S
H1207 C1183 0.949 . S
H1208 C1185 0.950 . S
H1209 C1187 0.950 . S
C1210 C1211 1.349 . S
C1210 C1212 1.327 . S
C1210 H1235 0.950 . S
C1211 C1210 1.349 . S
C1211 C1227 1.349 . S
C1212 C1210 1.327 . S
C1212 C1231 1.429 . S
C1212 H1236 0.950 . S
C1213 C1230 1.574 . S
C1213 C1232 1.368 . S
C1213 H1237 0.949 . S
H1214 C1218 0.949 . S
C1215 C1216 1.349 . S
C1215 C1217 1.327 . S
C1215 H1238 0.950 . S
C1216 C1215 1.349 . S
C1216 C1228 1.349 . S
C1217 C1215 1.327 . S
C1217 C1233 1.429 . S
C1217 H1239 0.950 . S
C1218 H1214 0.949 . S
C1218 C1226 1.574 . S
C1218 C1234 1.368 . S
H1219 C1227 0.950 . S
H1220 C1225 0.950 . S
H1221 C1226 0.949 . S
H1222 C1228 0.950 . S
H1223 C1229 0.950 . S
H1224 C1230 0.949 . S
C1225 H1220 0.950 . S
C1225 C1227 1.327 . S
C1225 C1231 1.429 . S
C1226 C1218 1.574 . S
C1226 H1221 0.949 . S
C1226 C1232 1.368 . S
C1227 C1211 1.349 . S
C1227 H1219 0.950 . S
C1227 C1225 1.327 . S
C1228 C1216 1.349 . S
C1228 H1222 0.950 . S
C1228 C1229 1.327 . S
C1229 H1223 0.950 . S
C1229 C1228 1.327 . S
C1229 C1233 1.429 . S
C1230 C1213 1.574 . S
C1230 H1224 0.949 . S
C1230 C1234 1.368 . S
C1231 C1212 1.429 . S
C1231 C1225 1.429 . S
C1231 C1232 1.523 . S
C1232 C1213 1.368 . S
C1232 C1226 1.368 . S
C1232 C1231 1.523 . S
C1233 C1217 1.429 . S
C1233 C1229 1.429 . S
C1233 C1234 1.523 . S
C1234 C1218 1.368 . S
C1234 C1230 1.368 . S
C1234 C1233 1.523 . S
H1235 C1210 0.950 . S
H1236 C1212 0.950 . S
H1237 C1213 0.949 . S
H1238 C1215 0.950 . S
H1239 C1217 0.950 . S
C1240 C1241 1.349 . S
C1240 C1242 1.327 . S
C1240 H1265 0.950 . S
C1241 C1240 1.349 . S
C1241 C1257 1.349 . S
C1242 C1240 1.327 . S
C1242 C1261 1.429 . S
C1242 H1266 0.950 . S
C1243 C1260 1.574 . S
C1243 C1262 1.368 . S
C1243 H1267 0.949 . S
H1244 C1248 0.949 . S
C1245 C1246 1.349 . S
C1245 C1247 1.327 . S
C1245 H1268 0.950 . S
C1246 C1245 1.349 . S
C1246 C1258 1.349 . S
C1247 C1245 1.327 . S
C1247 C1263 1.429 . S
C1247 H1269 0.950 . S
C1248 H1244 0.949 . S
C1248 C1256 1.574 . S
C1248 C1264 1.368 . S
H1249 C1257 0.950 . S
H1250 C1255 0.950 . S
H1251 C1256 0.949 . S
H1252 C1258 0.950 . S
H1253 C1259 0.950 . S
H1254 C1260 0.949 . S
C1255 H1250 0.950 . S
C1255 C1257 1.327 . S
C1255 C1261 1.429 . S
C1256 C1248 1.574 . S
C1256 H1251 0.949 . S
C1256 C1262 1.368 . S
C1257 C1241 1.349 . S
C1257 H1249 0.950 . S
C1257 C1255 1.327 . S
C1258 C1246 1.349 . S
C1258 H1252 0.950 . S
C1258 C1259 1.327 . S
C1259 H1253 0.950 . S
C1259 C1258 1.327 . S
C1259 C1263 1.429 . S
C1260 C1243 1.574 . S
C1260 H1254 0.949 . S
C1260 C1264 1.368 . S
C1261 C1242 1.429 . S
C1261 C1255 1.429 . S
C1261 C1262 1.523 . S
C1262 C1243 1.368 . S
C1262 C1256 1.368 . S
C1262 C1261 1.523 . S
C1263 C1247 1.429 . S
C1263 C1259 1.429 . S
C1263 C1264 1.523 . S
C1264 C1248 1.368 . S
C1264 C1260 1.368 . S
C1264 C1263 1.523 . S
H1265 C1240 0.950 . S
H1266 C1242 0.950 . S
H1267 C1243 0.949 . S
H1268 C1245 0.950 . S
H1269 C1247 0.950 . S
C1270 C1271 1.349 . S
C1270 C1272 1.327 . S
C1270 H1295 0.950 . S
C1271 C1270 1.349 . S
C1271 C1287 1.349 . S
C1272 C1270 1.327 . S
C1272 C1291 1.429 . S
C1272 H1296 0.950 . S
C1273 C1290 1.574 . S
C1273 C1292 1.368 . S
C1273 H1297 0.949 . S
H1274 C1278 0.949 . S
C1275 C1276 1.349 . S
C1275 C1277 1.327 . S
C1275 H1298 0.950 . S
C1276 C1275 1.349 . S
C1276 C1288 1.349 . S
C1277 C1275 1.327 . S
C1277 C1293 1.429 . S
C1277 H1299 0.950 . S
C1278 H1274 0.949 . S
C1278 C1286 1.574 . S
C1278 C1294 1.368 . S
H1279 C1287 0.950 . S
H1280 C1285 0.950 . S
H1281 C1286 0.949 . S
H1282 C1288 0.950 . S
H1283 C1289 0.950 . S
H1284 C1290 0.949 . S
C1285 H1280 0.950 . S
C1285 C1287 1.327 . S
C1285 C1291 1.429 . S
C1286 C1278 1.574 . S
C1286 H1281 0.949 . S
C1286 C1292 1.368 . S
C1287 C1271 1.349 . S
C1287 H1279 0.950 . S
C1287 C1285 1.327 . S
C1288 C1276 1.349 . S
C1288 H1282 0.950 . S
C1288 C1289 1.327 . S
C1289 H1283 0.950 . S
C1289 C1288 1.327 . S
C1289 C1293 1.429 . S
C1290 C1273 1.574 . S
C1290 H1284 0.949 . S
C1290 C1294 1.368 . S
C1291 C1272 1.429 . S
C1291 C1285 1.429 . S
C1291 C1292 1.523 . S
C1292 C1273 1.368 . S
C1292 C1286 1.368 . S
C1292 C1291 1.523 . S
C1293 C1277 1.429 . S
C1293 C1289 1.429 . S
C1293 C1294 1.523 . S
C1294 C1278 1.368 . S
C1294 C1290 1.368 . S
C1294 C1293 1.523 . S
H1295 C1270 0.950 . S
H1296 C1272 0.950 . S
H1297 C1273 0.949 . S
H1298 C1275 0.950 . S
H1299 C1277 0.950 . S
C1300 C1301 1.349 . S
C1300 C1302 1.327 . S
C1300 H1325 0.950 . S
C1301 C1300 1.349 . S
C1301 C1317 1.349 . S
C1302 C1300 1.327 . S
C1302 C1321 1.429 . S
C1302 H1326 0.950 . S
C1303 C1320 1.574 . S
C1303 C1322 1.368 . S
C1303 H1327 0.949 . S
H1304 C1308 0.949 . S
C1305 C1306 1.349 . S
C1305 C1307 1.327 . S
C1305 H1328 0.950 . S
C1306 C1305 1.349 . S
C1306 C1318 1.349 . S
C1307 C1305 1.327 . S
C1307 C1323 1.429 . S
C1307 H1329 0.950 . S
C1308 H1304 0.949 . S
C1308 C1316 1.574 . S
C1308 C1324 1.368 . S
H1309 C1317 0.950 . S
H1310 C1315 0.950 . S
H1311 C1316 0.949 . S
H1312 C1318 0.950 . S
H1313 C1319 0.950 . S
H1314 C1320 0.949 . S
C1315 H1310 0.950 . S
C1315 C1317 1.327 . S
C1315 C1321 1.429 . S
C1316 C1308 1.574 . S
C1316 H1311 0.949 . S
C1316 C1322 1.368 . S
C1317 C1301 1.349 . S
C1317 H1309 0.950 . S
C1317 C1315 1.327 . S
C1318 C1306 1.349 . S
C1318 H1312 0.950 . S
C1318 C1319 1.327 . S
C1319 H1313 0.950 . S
C1319 C1318 1.327 . S
C1319 C1323 1.429 . S
C1320 C1303 1.574 . S
C1320 H1314 0.949 . S
C1320 C1324 1.368 . S
C1321 C1302 1.429 . S
C1321 C1315 1.429 . S
C1321 C1322 1.523 . S
C1322 C1303 1.368 . S
C1322 C1316 1.368 . S
C1322 C1321 1.523 . S
C1323 C1307 1.429 . S
C1323 C1319 1.429 . S
C1323 C1324 1.523 . S
C1324 C1308 1.368 . S
C1324 C1320 1.368 . S
C1324 C1323 1.523 . S
H1325 C1300 0.950 . S
H1326 C1302 0.950 . S
H1327 C1303 0.949 . S
H1328 C1305 0.950 . S
H1329 C1307 0.950 . S
C1330 C1331 1.349 . S
C1330 C1332 1.327 . S
C1330 H1355 0.950 . S
C1331 C1330 1.349 . S
C1331 C1347 1.349 . S
C1332 C1330 1.327 . S
C1332 C1351 1.429 . S
C1332 H1356 0.950 . S
C1333 C1350 1.574 . S
C1333 C1352 1.368 . S
C1333 H1357 0.949 . S
H1334 C1338 0.949 . S
C1335 C1336 1.349 . S
C1335 C1337 1.327 . S
C1335 H1358 0.950 . S
C1336 C1335 1.349 . S
C1336 C1348 1.349 . S
C1337 C1335 1.327 . S
C1337 C1353 1.429 . S
C1337 H1359 0.950 . S
C1338 H1334 0.949 . S
C1338 C1346 1.574 . S
C1338 C1354 1.368 . S
H1339 C1347 0.950 . S
H1340 C1345 0.950 . S
H1341 C1346 0.949 . S
H1342 C1348 0.950 . S
H1343 C1349 0.950 . S
H1344 C1350 0.949 . S
C1345 H1340 0.950 . S
C1345 C1347 1.327 . S
C1345 C1351 1.429 . S
C1346 C1338 1.574 . S
C1346 H1341 0.949 . S
C1346 C1352 1.368 . S
C1347 C1331 1.349 . S
C1347 H1339 0.950 . S
C1347 C1345 1.327 . S
C1348 C1336 1.349 . S
C1348 H1342 0.950 . S
C1348 C1349 1.327 . S
C1349 H1343 0.950 . S
C1349 C1348 1.327 . S
C1349 C1353 1.429 . S
C1350 C1333 1.574 . S
C1350 H1344 0.949 . S
C1350 C1354 1.368 . S
C1351 C1332 1.429 . S
C1351 C1345 1.429 . S
C1351 C1352 1.523 . S
C1352 C1333 1.368 . S
C1352 C1346 1.368 . S
C1352 C1351 1.523 . S
C1353 C1337 1.429 . S
C1353 C1349 1.429 . S
C1353 C1354 1.523 . S
C1354 C1338 1.368 . S
C1354 C1350 1.368 . S
C1354 C1353 1.523 . S
H1355 C1330 0.950 . S
H1356 C1332 0.950 . S
H1357 C1333 0.949 . S
H1358 C1335 0.950 . S
H1359 C1337 0.950 . S
C1360 C1361 1.349 . S
C1360 C1362 1.327 . S
C1360 H1385 0.950 . S
C1361 C1360 1.349 . S
C1361 C1377 1.349 . S
C1362 C1360 1.327 . S
C1362 C1381 1.429 . S
C1362 H1386 0.950 . S
C1363 C1380 1.574 . S
C1363 C1382 1.368 . S
C1363 H1387 0.949 . S
H1364 C1368 0.949 . S
C1365 C1366 1.349 . S
C1365 C1367 1.327 . S
C1365 H1388 0.950 . S
C1366 C1365 1.349 . S
C1366 C1378 1.349 . S
C1367 C1365 1.327 . S
C1367 C1383 1.429 . S
C1367 H1389 0.950 . S
C1368 H1364 0.949 . S
C1368 C1376 1.574 . S
C1368 C1384 1.368 . S
H1369 C1377 0.950 . S
H1370 C1375 0.950 . S
H1371 C1376 0.949 . S
H1372 C1378 0.950 . S
H1373 C1379 0.950 . S
H1374 C1380 0.949 . S
C1375 H1370 0.950 . S
C1375 C1377 1.327 . S
C1375 C1381 1.429 . S
C1376 C1368 1.574 . S
C1376 H1371 0.949 . S
C1376 C1382 1.368 . S
C1377 C1361 1.349 . S
C1377 H1369 0.950 . S
C1377 C1375 1.327 . S
C1378 C1366 1.349 . S
C1378 H1372 0.950 . S
C1378 C1379 1.327 . S
C1379 H1373 0.950 . S
C1379 C1378 1.327 . S
C1379 C1383 1.429 . S
C1380 C1363 1.574 . S
C1380 H1374 0.949 . S
C1380 C1384 1.368 . S
C1381 C1362 1.429 . S
C1381 C1375 1.429 . S
C1381 C1382 1.523 . S
C1382 C1363 1.368 . S
C1382 C1376 1.368 . S
C1382 C1381 1.523 . S
C1383 C1367 1.429 . S
C1383 C1379 1.429 . S
C1383 C1384 1.523 . S
C1384 C1368 1.368 . S
C1384 C1380 1.368 . S
C1384 C1383 1.523 . S
H1385 C1360 0.950 . S
H1386 C1362 0.950 . S
H1387 C1363 0.949 . S
H1388 C1365 0.950 . S
H1389 C1367 0.950 . S
C1390 C1391 1.349 . S
C1390 C1392 1.327 . S
C1390 H1415 0.950 . S
C1391 C1390 1.349 . S
C1391 C1407 1.349 . S
C1392 C1390 1.327 . S
C1392 C1411 1.429 . S
C1392 H1416 0.950 . S
C1393 C1410 1.574 . S
C1393 C1412 1.368 . S
C1393 H1417 0.949 . S
H1394 C1398 0.949 . S
C1395 C1396 1.349 . S
C1395 C1397 1.327 . S
C1395 H1418 0.950 . S
C1396 C1395 1.349 . S
C1396 C1408 1.349 . S
C1397 C1395 1.327 . S
C1397 C1413 1.429 . S
C1397 H1419 0.950 . S
C1398 H1394 0.949 . S
C1398 C1406 1.574 . S
C1398 C1414 1.368 . S
H1399 C1407 0.950 . S
H1400 C1405 0.950 . S
H1401 C1406 0.949 . S
H1402 C1408 0.950 . S
H1403 C1409 0.950 . S
H1404 C1410 0.949 . S
C1405 H1400 0.950 . S
C1405 C1407 1.327 . S
C1405 C1411 1.429 . S
C1406 C1398 1.574 . S
C1406 H1401 0.949 . S
C1406 C1412 1.368 . S
C1407 C1391 1.349 . S
C1407 H1399 0.950 . S
C1407 C1405 1.327 . S
C1408 C1396 1.349 . S
C1408 H1402 0.950 . S
C1408 C1409 1.327 . S
C1409 H1403 0.950 . S
C1409 C1408 1.327 . S
C1409 C1413 1.429 . S
C1410 C1393 1.574 . S
C1410 H1404 0.949 . S
C1410 C1414 1.368 . S
C1411 C1392 1.429 . S
C1411 C1405 1.429 . S
C1411 C1412 1.523 . S
C1412 C1393 1.368 . S
C1412 C1406 1.368 . S
C1412 C1411 1.523 . S
C1413 C1397 1.429 . S
C1413 C1409 1.429 . S
C1413 C1414 1.523 . S
C1414 C1398 1.368 . S
C1414 C1410 1.368 . S
C1414 C1413 1.523 . S
H1415 C1390 0.950 . S
H1416 C1392 0.950 . S
H1417 C1393 0.949 . S
H1418 C1395 0.950 . S
H1419 C1397 0.950 . S
C1420 C1421 1.349 . S
C1420 C1422 1.327 . S
C1420 H1445 0.950 . S
C1421 C1420 1.349 . S
C1421 C1437 1.349 . S
C1422 C1420 1.327 . S
C1422 C1441 1.429 . S
C1422 H1446 0.950 . S
C1423 C1440 1.574 . S
C1423 C1442 1.368 . S
C1423 H1447 0.949 . S
H1424 C1428 0.949 . S
C1425 C1426 1.349 . S
C1425 C1427 1.327 . S
C1425 H1448 0.950 . S
C1426 C1425 1.349 . S
C1426 C1438 1.349 . S
C1427 C1425 1.327 . S
C1427 C1443 1.429 . S
C1427 H1449 0.950 . S
C1428 H1424 0.949 . S
C1428 C1436 1.574 . S
C1428 C1444 1.368 . S
H1429 C1437 0.950 . S
H1430 C1435 0.950 . S
H1431 C1436 0.949 . S
H1432 C1438 0.950 . S
H1433 C1439 0.950 . S
H1434 C1440 0.949 . S
C1435 H1430 0.950 . S
C1435 C1437 1.327 . S
C1435 C1441 1.429 . S
C1436 C1428 1.574 . S
C1436 H1431 0.949 . S
C1436 C1442 1.368 . S
C1437 C1421 1.349 . S
C1437 H1429 0.950 . S
C1437 C1435 1.327 . S
C1438 C1426 1.349 . S
C1438 H1432 0.950 . S
C1438 C1439 1.327 . S
C1439 H1433 0.950 . S
C1439 C1438 1.327 . S
C1439 C1443 1.429 . S
C1440 C1423 1.574 . S
C1440 H1434 0.949 . S
C1440 C1444 1.368 . S
C1441 C1422 1.429 . S
C1441 C1435 1.429 . S
C1441 C1442 1.523 . S
C1442 C1423 1.368 . S
C1442 C1436 1.368 . S
C1442 C1441 1.523 . S
C1443 C1427 1.429 . S
C1443 C1439 1.429 . S
C1443 C1444 1.523 . S
C1444 C1428 1.368 . S
C1444 C1440 1.368 . S
C1444 C1443 1.523 . S
H1445 C1420 0.950 . S
H1446 C1422 0.950 . S
H1447 C1423 0.949 . S
H1448 C1425 0.950 . S
H1449 C1427 0.950 . S
C1450 C1451 1.349 . S
C1450 C1452 1.327 . S
C1450 H1475 0.950 . S
C1451 C1450 1.349 . S
C1451 C1467 1.349 . S
C1452 C1450 1.327 . S
C1452 C1471 1.429 . S
C1452 H1476 0.950 . S
C1453 C1470 1.574 . S
C1453 C1472 1.368 . S
C1453 H1477 0.949 . S
H1454 C1458 0.949 . S
C1455 C1456 1.349 . S
C1455 C1457 1.327 . S
C1455 H1478 0.950 . S
C1456 C1455 1.349 . S
C1456 C1468 1.349 . S
C1457 C1455 1.327 . S
C1457 C1473 1.429 . S
C1457 H1479 0.950 . S
C1458 H1454 0.949 . S
C1458 C1466 1.574 . S
C1458 C1474 1.368 . S
H1459 C1467 0.950 . S
H1460 C1465 0.950 . S
H1461 C1466 0.949 . S
H1462 C1468 0.950 . S
H1463 C1469 0.950 . S
H1464 C1470 0.949 . S
C1465 H1460 0.950 . S
C1465 C1467 1.327 . S
C1465 C1471 1.429 . S
C1466 C1458 1.574 . S
C1466 H1461 0.949 . S
C1466 C1472 1.368 . S
C1467 C1451 1.349 . S
C1467 H1459 0.950 . S
C1467 C1465 1.327 . S
C1468 C1456 1.349 . S
C1468 H1462 0.950 . S
C1468 C1469 1.327 . S
C1469 H1463 0.950 . S
C1469 C1468 1.327 . S
C1469 C1473 1.429 . S
C1470 C1453 1.574 . S
C1470 H1464 0.949 . S
C1470 C1474 1.368 . S
C1471 C1452 1.429 . S
C1471 C1465 1.429 . S
C1471 C1472 1.523 . S
C1472 C1453 1.368 . S
C1472 C1466 1.368 . S
C1472 C1471 1.523 . S
C1473 C1457 1.429 . S
C1473 C1469 1.429 . S
C1473 C1474 1.523 . S
C1474 C1458 1.368 . S
C1474 C1470 1.368 . S
C1474 C1473 1.523 . S
H1475 C1450 0.950 . S
H1476 C1452 0.950 . S
H1477 C1453 0.949 . S
H1478 C1455 0.950 . S
H1479 C1457 0.950 . S
C1480 C1481 1.349 . S
C1480 C1482 1.327 . S
C1480 H1505 0.950 . S
C1481 C1480 1.349 . S
C1481 C1497 1.349 . S
C1482 C1480 1.327 . S
C1482 C1501 1.429 . S
C1482 H1506 0.950 . S
C1483 C1500 1.574 . S
C1483 C1502 1.368 . S
C1483 H1507 0.949 . S
H1484 C1488 0.949 . S
C1485 C1486 1.349 . S
C1485 C1487 1.327 . S
C1485 H1508 0.950 . S
C1486 C1485 1.349 . S
C1486 C1498 1.349 . S
C1487 C1485 1.327 . S
C1487 C1503 1.429 . S
C1487 H1509 0.950 . S
C1488 H1484 0.949 . S
C1488 C1496 1.574 . S
C1488 C1504 1.368 . S
H1489 C1497 0.950 . S
H1490 C1495 0.950 . S
H1491 C1496 0.949 . S
H1492 C1498 0.950 . S
H1493 C1499 0.950 . S
H1494 C1500 0.949 . S
C1495 H1490 0.950 . S
C1495 C1497 1.327 . S
C1495 C1501 1.429 . S
C1496 C1488 1.574 . S
C1496 H1491 0.949 . S
C1496 C1502 1.368 . S
C1497 C1481 1.349 . S
C1497 H1489 0.950 . S
C1497 C1495 1.327 . S
C1498 C1486 1.349 . S
C1498 H1492 0.950 . S
C1498 C1499 1.327 . S
C1499 H1493 0.950 . S
C1499 C1498 1.327 . S
C1499 C1503 1.429 . S
C1500 C1483 1.574 . S
C1500 H1494 0.949 . S
C1500 C1504 1.368 . S
C1501 C1482 1.429 . S
C1501 C1495 1.429 . S
C1501 C1502 1.523 . S
C1502 C1483 1.368 . S
C1502 C1496 1.368 . S
C1502 C1501 1.523 . S
C1503 C1487 1.429 . S
C1503 C1499 1.429 . S
C1503 C1504 1.523 . S
C1504 C1488 1.368 . S
C1504 C1500 1.368 . S
C1504 C1503 1.523 . S
H1505 C1480 0.950 . S
H1506 C1482 0.950 . S
H1507 C1483 0.949 . S
H1508 C1485 0.950 . S
H1509 C1487 0.950 . S
C1510 C1511 1.349 . S
C1510 C1512 1.327 . S
C1510 H1535 0.950 . S
C1511 C1510 1.349 . S
C1511 C1527 1.349 . S
C1512 C1510 1.327 . S
C1512 C1531 1.429 . S
C1512 H1536 0.950 . S
C1513 C1530 1.574 . S
C1513 C1532 1.368 . S
C1513 H1537 0.949 . S
H1514 C1518 0.949 . S
C1515 C1516 1.349 . S
C1515 C1517 1.327 . S
C1515 H1538 0.950 . S
C1516 C1515 1.349 . S
C1516 C1528 1.349 . S
C1517 C1515 1.327 . S
C1517 C1533 1.429 . S
C1517 H1539 0.950 . S
C1518 H1514 0.949 . S
C1518 C1526 1.574 . S
C1518 C1534 1.368 . S
H1519 C1527 0.950 . S
H1520 C1525 0.950 . S
H1521 C1526 0.949 . S
H1522 C1528 0.950 . S
H1523 C1529 0.950 . S
H1524 C1530 0.949 . S
C1525 H1520 0.950 . S
C1525 C1527 1.327 . S
C1525 C1531 1.429 . S
C1526 C1518 1.574 . S
C1526 H1521 0.949 . S
C1526 C1532 1.368 . S
C1527 C1511 1.349 . S
C1527 H1519 0.950 . S
C1527 C1525 1.327 . S
C1528 C1516 1.349 . S
C1528 H1522 0.950 . S
C1528 C1529 1.327 . S
C1529 H1523 0.950 . S
C1529 C1528 1.327 . S
C1529 C1533 1.429 . S
C1530 C1513 1.574 . S
C1530 H1524 0.949 . S
C1530 C1534 1.368 . S
C1531 C1512 1.429 . S
C1531 C1525 1.429 . S
C1531 C1532 1.523 . S
C1532 C1513 1.368 . S
C1532 C1526 1.368 . S
C1532 C1531 1.523 . S
C1533 C1517 1.429 . S
C1533 C1529 1.429 . S
C1533 C1534 1.523 . S
C1534 C1518 1.368 . S
C1534 C1530 1.368 . S
C1534 C1533 1.523 . S
H1535 C1510 0.950 . S
H1536 C1512 0.950 . S
H1537 C1513 0.949 . S
H1538 C1515 0.950 . S
H1539 C1517 0.950 . S
C1540 C1541 1.349 . S
C1540 C1542 1.327 . S
C1540 H1565 0.950 . S
C1541 C1540 1.349 . S
C1541 C1557 1.349 . S
C1542 C1540 1.327 . S
C1542 C1561 1.429 . S
C1542 H1566 0.950 . S
C1543 C1560 1.574 . S
C1543 C1562 1.368 . S
C1543 H1567 0.949 . S
H1544 C1548 0.949 . S
C1545 C1546 1.349 . S
C1545 C1547 1.327 . S
C1545 H1568 0.950 . S
C1546 C1545 1.349 . S
C1546 C1558 1.349 . S
C1547 C1545 1.327 . S
C1547 C1563 1.429 . S
C1547 H1569 0.950 . S
C1548 H1544 0.949 . S
C1548 C1556 1.574 . S
C1548 C1564 1.368 . S
H1549 C1557 0.950 . S
H1550 C1555 0.950 . S
H1551 C1556 0.949 . S
H1552 C1558 0.950 . S
H1553 C1559 0.950 . S
H1554 C1560 0.949 . S
C1555 H1550 0.950 . S
C1555 C1557 1.327 . S
C1555 C1561 1.429 . S
C1556 C1548 1.574 . S
C1556 H1551 0.949 . S
C1556 C1562 1.368 . S
C1557 C1541 1.349 . S
C1557 H1549 0.950 . S
C1557 C1555 1.327 . S
C1558 C1546 1.349 . S
C1558 H1552 0.950 . S
C1558 C1559 1.327 . S
C1559 H1553 0.950 . S
C1559 C1558 1.327 . S
C1559 C1563 1.429 . S
C1560 C1543 1.574 . S
C1560 H1554 0.949 . S
C1560 C1564 1.368 . S
C1561 C1542 1.429 . S
C1561 C1555 1.429 . S
C1561 C1562 1.523 . S
C1562 C1543 1.368 . S
C1562 C1556 1.368 . S
C1562 C1561 1.523 . S
C1563 C1547 1.429 . S
C1563 C1559 1.429 . S
C1563 C1564 1.523 . S
C1564 C1548 1.368 . S
C1564 C1560 1.368 . S
C1564 C1563 1.523 . S
H1565 C1540 0.950 . S
H1566 C1542 0.950 . S
H1567 C1543 0.949 . S
H1568 C1545 0.950 . S
H1569 C1547 0.950 . S
C1570 C1571 1.349 . S
C1570 C1572 1.327 . S
C1570 H1595 0.950 . S
C1571 C1570 1.349 . S
C1571 C1587 1.349 . S
C1572 C1570 1.327 . S
C1572 C1591 1.429 . S
C1572 H1596 0.950 . S
C1573 C1590 1.574 . S
C1573 C1592 1.368 . S
C1573 H1597 0.949 . S
H1574 C1578 0.949 . S
C1575 C1576 1.349 . S
C1575 C1577 1.327 . S
C1575 H1598 0.950 . S
C1576 C1575 1.349 . S
C1576 C1588 1.349 . S
C1577 C1575 1.327 . S
C1577 C1593 1.429 . S
C1577 H1599 0.950 . S
C1578 H1574 0.949 . S
C1578 C1586 1.574 . S
C1578 C1594 1.368 . S
H1579 C1587 0.950 . S
H1580 C1585 0.950 . S
H1581 C1586 0.949 . S
H1582 C1588 0.950 . S
H1583 C1589 0.950 . S
H1584 C1590 0.949 . S
C1585 H1580 0.950 . S
C1585 C1587 1.327 . S
C1585 C1591 1.429 . S
C1586 C1578 1.574 . S
C1586 H1581 0.949 . S
C1586 C1592 1.368 . S
C1587 C1571 1.349 . S
C1587 H1579 0.950 . S
C1587 C1585 1.327 . S
C1588 C1576 1.349 . S
C1588 H1582 0.950 . S
C1588 C1589 1.327 . S
C1589 H1583 0.950 . S
C1589 C1588 1.327 . S
C1589 C1593 1.429 . S
C1590 C1573 1.574 . S
C1590 H1584 0.949 . S
C1590 C1594 1.368 . S
C1591 C1572 1.429 . S
C1591 C1585 1.429 . S
C1591 C1592 1.523 . S
C1592 C1573 1.368 . S
C1592 C1586 1.368 . S
C1592 C1591 1.523 . S
C1593 C1577 1.429 . S
C1593 C1589 1.429 . S
C1593 C1594 1.523 . S
C1594 C1578 1.368 . S
C1594 C1590 1.368 . S
C1594 C1593 1.523 . S
H1595 C1570 0.950 . S
H1596 C1572 0.950 . S
H1597 C1573 0.949 . S
H1598 C1575 0.950 . S
H1599 C1577 0.950 . S
C1600 C1601 1.349 . S
C1600 C1602 1.327 . S
C1600 H1625 0.950 . S
C1601 C1600 1.349 . S
C1601 C1617 1.349 . S
C1602 C1600 1.327 . S
C1602 C1621 1.429 . S
C1602 H1626 0.950 . S
C1603 C1620 1.574 . S
C1603 C1622 1.368 . S
C1603 H1627 0.949 . S
H1604 C1608 0.949 . S
C1605 C1606 1.349 . S
C1605 C1607 1.327 . S
C1605 H1628 0.950 . S
C1606 C1605 1.349 . S
C1606 C1618 1.349 . S
C1607 C1605 1.327 . S
C1607 C1623 1.429 . S
C1607 H1629 0.950 . S
C1608 H1604 0.949 . S
C1608 C1616 1.574 . S
C1608 C1624 1.368 . S
H1609 C1617 0.950 . S
H1610 C1615 0.950 . S
H1611 C1616 0.949 . S
H1612 C1618 0.950 . S
H1613 C1619 0.950 . S
H1614 C1620 0.949 . S
C1615 H1610 0.950 . S
C1615 C1617 1.327 . S
C1615 C1621 1.429 . S
C1616 C1608 1.574 . S
C1616 H1611 0.949 . S
C1616 C1622 1.368 . S
C1617 C1601 1.349 . S
C1617 H1609 0.950 . S
C1617 C1615 1.327 . S
C1618 C1606 1.349 . S
C1618 H1612 0.950 . S
C1618 C1619 1.327 . S
C1619 H1613 0.950 . S
C1619 C1618 1.327 . S
C1619 C1623 1.429 . S
C1620 C1603 1.574 . S
C1620 H1614 0.949 . S
C1620 C1624 1.368 . S
C1621 C1602 1.429 . S
C1621 C1615 1.429 . S
C1621 C1622 1.523 . S
C1622 C1603 1.368 . S
C1622 C1616 1.368 . S
C1622 C1621 1.523 . S
C1623 C1607 1.429 . S
C1623 C1619 1.429 . S
C1623 C1624 1.523 . S
C1624 C1608 1.368 . S
C1624 C1620 1.368 . S
C1624 C1623 1.523 . S
H1625 C1600 0.950 . S
H1626 C1602 0.950 . S
H1627 C1603 0.949 . S
H1628 C1605 0.950 . S
H1629 C1607 0.950 . S
C1630 C1631 1.349 . S
C1630 C1632 1.327 . S
C1630 H1655 0.950 . S
C1631 C1630 1.349 . S
C1631 C1647 1.349 . S
C1632 C1630 1.327 . S
C1632 C1651 1.429 . S
C1632 H1656 0.950 . S
C1633 C1650 1.574 . S
C1633 C1652 1.368 . S
C1633 H1657 0.949 . S
H1634 C1638 0.949 . S
C1635 C1636 1.349 . S
C1635 C1637 1.327 . S
C1635 H1658 0.950 . S
C1636 C1635 1.349 . S
C1636 C1648 1.349 . S
C1637 C1635 1.327 . S
C1637 C1653 1.429 . S
C1637 H1659 0.950 . S
C1638 H1634 0.949 . S
C1638 C1646 1.574 . S
C1638 C1654 1.368 . S
H1639 C1647 0.950 . S
H1640 C1645 0.950 . S
H1641 C1646 0.949 . S
H1642 C1648 0.950 . S
H1643 C1649 0.950 . S
H1644 C1650 0.949 . S
C1645 H1640 0.950 . S
C1645 C1647 1.327 . S
C1645 C1651 1.429 . S
C1646 C1638 1.574 . S
C1646 H1641 0.949 . S
C1646 C1652 1.368 . S
C1647 C1631 1.349 . S
C1647 H1639 0.950 . S
C1647 C1645 1.327 . S
C1648 C1636 1.349 . S
C1648 H1642 0.950 . S
C1648 C1649 1.327 . S
C1649 H1643 0.950 . S
C1649 C1648 1.327 . S
C1649 C1653 1.429 . S
C1650 C1633 1.574 . S
C1650 H1644 0.949 . S
C1650 C1654 1.368 . S
C1651 C1632 1.429 . S
C1651 C1645 1.429 . S
C1651 C1652 1.523 . S
C1652 C1633 1.368 . S
C1652 C1646 1.368 . S
C1652 C1651 1.523 . S
C1653 C1637 1.429 . S
C1653 C1649 1.429 . S
C1653 C1654 1.523 . S
C1654 C1638 1.368 . S
C1654 C1650 1.368 . S
C1654 C1653 1.523 . S
H1655 C1630 0.950 . S
H1656 C1632 0.950 . S
H1657 C1633 0.949 . S
H1658 C1635 0.950 . S
H1659 C1637 0.950 . S
C1660 C1661 1.349 . S
C1660 C1662 1.327 . S
C1660 H1685 0.950 . S
C1661 C1660 1.349 . S
C1661 C1677 1.349 . S
C1662 C1660 1.327 . S
C1662 C1681 1.429 . S
C1662 H1686 0.950 . S
C1663 C1680 1.574 . S
C1663 C1682 1.368 . S
C1663 H1687 0.949 . S
H1664 C1668 0.949 . S
C1665 C1666 1.349 . S
C1665 C1667 1.327 . S
C1665 H1688 0.950 . S
C1666 C1665 1.349 . S
C1666 C1678 1.349 . S
C1667 C1665 1.327 . S
C1667 C1683 1.429 . S
C1667 H1689 0.950 . S
C1668 H1664 0.949 . S
C1668 C1676 1.574 . S
C1668 C1684 1.368 . S
H1669 C1677 0.950 . S
H1670 C1675 0.950 . S
H1671 C1676 0.949 . S
H1672 C1678 0.950 . S
H1673 C1679 0.950 . S
H1674 C1680 0.949 . S
C1675 H1670 0.950 . S
C1675 C1677 1.327 . S
C1675 C1681 1.429 . S
C1676 C1668 1.574 . S
C1676 H1671 0.949 . S
C1676 C1682 1.368 . S
C1677 C1661 1.349 . S
C1677 H1669 0.950 . S
C1677 C1675 1.327 . S
C1678 C1666 1.349 . S
C1678 H1672 0.950 . S
C1678 C1679 1.327 . S
C1679 H1673 0.950 . S
C1679 C1678 1.327 . S
C1679 C1683 1.429 . S
C1680 C1663 1.574 . S
C1680 H1674 0.949 . S
C1680 C1684 1.368 . S
C1681 C1662 1.429 . S
C1681 C1675 1.429 . S
C1681 C1682 1.523 . S
C1682 C1663 1.368 . S
C1682 C1676 1.368 . S
C1682 C1681 1.523 . S
C1683 C1667 1.429 . S
C1683 C1679 1.429 . S
C1683 C1684 1.523 . S
C1684 C1668 1.368 . S
C1684 C1680 1.368 . S
C1684 C1683 1.523 . S
H1685 C1660 0.950 . S
H1686 C1662 0.950 . S
H1687 C1663 0.949 . S
H1688 C1665 0.950 . S
H1689 C1667 0.950 . S
C1690 C1691 1.349 . S
C1690 C1692 1.327 . S
C1690 H1715 0.950 . S
C1691 C1690 1.349 . S
C1691 C1707 1.349 . S
C1692 C1690 1.327 . S
C1692 C1711 1.429 . S
C1692 H1716 0.950 . S
C1693 C1710 1.574 . S
C1693 C1712 1.368 . S
C1693 H1717 0.949 . S
H1694 C1698 0.949 . S
C1695 C1696 1.349 . S
C1695 C1697 1.327 . S
C1695 H1718 0.950 . S
C1696 C1695 1.349 . S
C1696 C1708 1.349 . S
C1697 C1695 1.327 . S
C1697 C1713 1.429 . S
C1697 H1719 0.950 . S
C1698 H1694 0.949 . S
C1698 C1706 1.574 . S
C1698 C1714 1.368 . S
H1699 C1707 0.950 . S
H1700 C1705 0.950 . S
H1701 C1706 0.949 . S
H1702 C1708 0.950 . S
H1703 C1709 0.950 . S
H1704 C1710 0.949 . S
C1705 H1700 0.950 . S
C1705 C1707 1.327 . S
C1705 C1711 1.429 . S
C1706 C1698 1.574 . S
C1706 H1701 0.949 . S
C1706 C1712 1.368 . S
C1707 C1691 1.349 . S
C1707 H1699 0.950 . S
C1707 C1705 1.327 . S
C1708 C1696 1.349 . S
C1708 H1702 0.950 . S
C1708 C1709 1.327 . S
C1709 H1703 0.950 . S
C1709 C1708 1.327 . S
C1709 C1713 1.429 . S
C1710 C1693 1.574 . S
C1710 H1704 0.949 . S
C1710 C1714 1.368 . S
C1711 C1692 1.429 . S
C1711 C1705 1.429 . S
C1711 C1712 1.523 . S
C1712 C1693 1.368 . S
C1712 C1706 1.368 . S
C1712 C1711 1.523 . S
C1713 C1697 1.429 . S
C1713 C1709 1.429 . S
C1713 C1714 1.523 . S
C1714 C1698 1.368 . S
C1714 C1710 1.368 . S
C1714 C1713 1.523 . S
H1715 C1690 0.950 . S
H1716 C1692 0.950 . S
H1717 C1693 0.949 . S
H1718 C1695 0.950 . S
H1719 C1697 0.950 . S
C1720 C1721 1.349 . S
C1720 C1722 1.327 . S
C1720 H1745 0.950 . S
C1721 C1720 1.349 . S
C1721 C1737 1.349 . S
C1722 C1720 1.327 . S
C1722 C1741 1.429 . S
C1722 H1746 0.950 . S
C1723 C1740 1.574 . S
C1723 C1742 1.368 . S
C1723 H1747 0.949 . S
H1724 C1728 0.949 . S
C1725 C1726 1.349 . S
C1725 C1727 1.327 . S
C1725 H1748 0.950 . S
C1726 C1725 1.349 . S
C1726 C1738 1.349 . S
C1727 C1725 1.327 . S
C1727 C1743 1.429 . S
C1727 H1749 0.950 . S
C1728 H1724 0.949 . S
C1728 C1736 1.574 . S
C1728 C1744 1.368 . S
H1729 C1737 0.950 . S
H1730 C1735 0.950 . S
H1731 C1736 0.949 . S
H1732 C1738 0.950 . S
H1733 C1739 0.950 . S
H1734 C1740 0.949 . S
C1735 H1730 0.950 . S
C1735 C1737 1.327 . S
C1735 C1741 1.429 . S
C1736 C1728 1.574 . S
C1736 H1731 0.949 . S
C1736 C1742 1.368 . S
C1737 C1721 1.349 . S
C1737 H1729 0.950 . S
C1737 C1735 1.327 . S
C1738 C1726 1.349 . S
C1738 H1732 0.950 . S
C1738 C1739 1.327 . S
C1739 H1733 0.950 . S
C1739 C1738 1.327 . S
C1739 C1743 1.429 . S
C1740 C1723 1.574 . S
C1740 H1734 0.949 . S
C1740 C1744 1.368 . S
C1741 C1722 1.429 . S
C1741 C1735 1.429 . S
C1741 C1742 1.523 . S
C1742 C1723 1.368 . S
C1742 C1736 1.368 . S
C1742 C1741 1.523 . S
C1743 C1727 1.429 . S
C1743 C1739 1.429 . S
C1743 C1744 1.523 . S
C1744 C1728 1.368 . S
C1744 C1740 1.368 . S
C1744 C1743 1.523 . S
H1745 C1720 0.950 . S
H1746 C1722 0.950 . S
H1747 C1723 0.949 . S
H1748 C1725 0.950 . S
H1749 C1727 0.950 . S
C1750 C1751 1.349 . S
C1750 C1752 1.327 . S
C1750 H1775 0.950 . S
C1751 C1750 1.349 . S
C1751 C1767 1.349 . S
C1752 C1750 1.327 . S
C1752 C1771 1.429 . S
C1752 H1776 0.950 . S
C1753 C1770 1.574 . S
C1753 C1772 1.368 . S
C1753 H1777 0.949 . S
H1754 C1758 0.949 . S
C1755 C1756 1.349 . S
C1755 C1757 1.327 . S
C1755 H1778 0.950 . S
C1756 C1755 1.349 . S
C1756 C1768 1.349 . S
C1757 C1755 1.327 . S
C1757 C1773 1.429 . S
C1757 H1779 0.950 . S
C1758 H1754 0.949 . S
C1758 C1766 1.574 . S
C1758 C1774 1.368 . S
H1759 C1767 0.950 . S
H1760 C1765 0.950 . S
H1761 C1766 0.949 . S
H1762 C1768 0.950 . S
H1763 C1769 0.950 . S
H1764 C1770 0.949 . S
C1765 H1760 0.950 . S
C1765 C1767 1.327 . S
C1765 C1771 1.429 . S
C1766 C1758 1.574 . S
C1766 H1761 0.949 . S
C1766 C1772 1.368 . S
C1767 C1751 1.349 . S
C1767 H1759 0.950 . S
C1767 C1765 1.327 . S
C1768 C1756 1.349 . S
C1768 H1762 0.950 . S
C1768 C1769 1.327 . S
C1769 H1763 0.950 . S
C1769 C1768 1.327 . S
C1769 C1773 1.429 . S
C1770 C1753 1.574 . S
C1770 H1764 0.949 . S
C1770 C1774 1.368 . S
C1771 C1752 1.429 . S
C1771 C1765 1.429 . S
C1771 C1772 1.523 . S
C1772 C1753 1.368 . S
C1772 C1766 1.368 . S
C1772 C1771 1.523 . S
C1773 C1757 1.429 . S
C1773 C1769 1.429 . S
C1773 C1774 1.523 . S
C1774 C1758 1.368 . S
C1774 C1770 1.368 . S
C1774 C1773 1.523 . S
H1775 C1750 0.950 . S
H1776 C1752 0.950 . S
H1777 C1753 0.949 . S
H1778 C1755 0.950 . S
H1779 C1757 0.950 . S
C1780 C1781 1.349 . S
C1780 C1782 1.327 . S
C1780 H1805 0.950 . S
C1781 C1780 1.349 . S
C1781 C1797 1.349 . S
C1782 C1780 1.327 . S
C1782 C1801 1.429 . S
C1782 H1806 0.950 . S
C1783 C1800 1.574 . S
C1783 C1802 1.368 . S
C1783 H1807 0.949 . S
H1784 C1788 0.949 . S
C1785 C1786 1.349 . S
C1785 C1787 1.327 . S
C1785 H1808 0.950 . S
C1786 C1785 1.349 . S
C1786 C1798 1.349 . S
C1787 C1785 1.327 . S
C1787 C1803 1.429 . S
C1787 H1809 0.950 . S
C1788 H1784 0.949 . S
C1788 C1796 1.574 . S
C1788 C1804 1.368 . S
H1789 C1797 0.950 . S
H1790 C1795 0.950 . S
H1791 C1796 0.949 . S
H1792 C1798 0.950 . S
H1793 C1799 0.950 . S
H1794 C1800 0.949 . S
C1795 H1790 0.950 . S
C1795 C1797 1.327 . S
C1795 C1801 1.429 . S
C1796 C1788 1.574 . S
C1796 H1791 0.949 . S
C1796 C1802 1.368 . S
C1797 C1781 1.349 . S
C1797 H1789 0.950 . S
C1797 C1795 1.327 . S
C1798 C1786 1.349 . S
C1798 H1792 0.950 . S
C1798 C1799 1.327 . S
C1799 H1793 0.950 . S
C1799 C1798 1.327 . S
C1799 C1803 1.429 . S
C1800 C1783 1.574 . S
C1800 H1794 0.949 . S
C1800 C1804 1.368 . S
C1801 C1782 1.429 . S
C1801 C1795 1.429 . S
C1801 C1802 1.523 . S
C1802 C1783 1.368 . S
C1802 C1796 1.368 . S
C1802 C1801 1.523 . S
C1803 C1787 1.429 . S
C1803 C1799 1.429 . S
C1803 C1804 1.523 . S
C1804 C1788 1.368 . S
C1804 C1800 1.368 . S
C1804 C1803 1.523 . S
H1805 C1780 0.950 . S
H1806 C1782 0.950 . S
H1807 C1783 0.949 . S
H1808 C1785 0.950 . S
H1809 C1787 0.950 . S
C1810 C1811 1.349 . S
C1810 C1812 1.327 . S
C1810 H1835 0.950 . S
C1811 C1810 1.349 . S
C1811 C1827 1.349 . S
C1812 C1810 1.327 . S
C1812 C1831 1.429 . S
C1812 H1836 0.950 . S
C1813 C1830 1.574 . S
C1813 C1832 1.368 . S
C1813 H1837 0.949 . S
H1814 C1818 0.949 . S
C1815 C1816 1.349 . S
C1815 C1817 1.327 . S
C1815 H1838 0.950 . S
C1816 C1815 1.349 . S
C1816 C1828 1.349 . S
C1817 C1815 1.327 . S
C1817 C1833 1.429 . S
C1817 H1839 0.950 . S
C1818 H1814 0.949 . S
C1818 C1826 1.574 . S
C1818 C1834 1.368 . S
H1819 C1827 0.950 . S
H1820 C1825 0.950 . S
H1821 C1826 0.949 . S
H1822 C1828 0.950 . S
H1823 C1829 0.950 . S
H1824 C1830 0.949 . S
C1825 H1820 0.950 . S
C1825 C1827 1.327 . S
C1825 C1831 1.429 . S
C1826 C1818 1.574 . S
C1826 H1821 0.949 . S
C1826 C1832 1.368 . S
C1827 C1811 1.349 . S
C1827 H1819 0.950 . S
C1827 C1825 1.327 . S
C1828 C1816 1.349 . S
C1828 H1822 0.950 . S
C1828 C1829 1.327 . S
C1829 H1823 0.950 . S
C1829 C1828 1.327 . S
C1829 C1833 1.429 . S
C1830 C1813 1.574 . S
C1830 H1824 0.949 . S
C1830 C1834 1.368 . S
C1831 C1812 1.429 . S
C1831 C1825 1.429 . S
C1831 C1832 1.523 . S
C1832 C1813 1.368 . S
C1832 C1826 1.368 . S
C1832 C1831 1.523 . S
C1833 C1817 1.429 . S
C1833 C1829 1.429 . S
C1833 C1834 1.523 . S
C1834 C1818 1.368 . S
C1834 C1830 1.368 . S
C1834 C1833 1.523 . S
H1835 C1810 0.950 . S
H1836 C1812 0.950 . S
H1837 C1813 0.949 . S
H1838 C1815 0.950 . S
H1839 C1817 0.950 . S
C1840 C1841 1.349 . S
C1840 C1842 1.327 . S
C1840 H1865 0.950 . S
C1841 C1840 1.349 . S
C1841 C1857 1.349 . S
C1842 C1840 1.327 . S
C1842 C1861 1.429 . S
C1842 H1866 0.950 . S
C1843 C1860 1.574 . S
C1843 C1862 1.368 . S
C1843 H1867 0.949 . S
H1844 C1848 0.949 . S
C1845 C1846 1.349 . S
C1845 C1847 1.327 . S
C1845 H1868 0.950 . S
C1846 C1845 1.349 . S
C1846 C1858 1.349 . S
C1847 C1845 1.327 . S
C1847 C1863 1.429 . S
C1847 H1869 0.950 . S
C1848 H1844 0.949 . S
C1848 C1856 1.574 . S
C1848 C1864 1.368 . S
H1849 C1857 0.950 . S
H1850 C1855 0.950 . S
H1851 C1856 0.949 . S
H1852 C1858 0.950 . S
H1853 C1859 0.950 . S
H1854 C1860 0.949 . S
C1855 H1850 0.950 . S
C1855 C1857 1.327 . S
C1855 C1861 1.429 . S
C1856 C1848 1.574 . S
C1856 H1851 0.949 . S
C1856 C1862 1.368 . S
C1857 C1841 1.349 . S
C1857 H1849 0.950 . S
C1857 C1855 1.327 . S
C1858 C1846 1.349 . S
C1858 H1852 0.950 . S
C1858 C1859 1.327 . S
C1859 H1853 0.950 . S
C1859 C1858 1.327 . S
C1859 C1863 1.429 . S
C1860 C1843 1.574 . S
C1860 H1854 0.949 . S
C1860 C1864 1.368 . S
C1861 C1842 1.429 . S
C1861 C1855 1.429 . S
C1861 C1862 1.523 . S
C1862 C1843 1.368 . S
C1862 C1856 1.368 . S
C1862 C1861 1.523 . S
C1863 C1847 1.429 . S
C1863 C1859 1.429 . S
C1863 C1864 1.523 . S
C1864 C1848 1.368 . S
C1864 C1860 1.368 . S
C1864 C1863 1.523 . S
H1865 C1840 0.950 . S
H1866 C1842 0.950 . S
H1867 C1843 0.949 . S
H1868 C1845 0.950 . S
H1869 C1847 0.950 . S
C1870 C1871 1.349 . S
C1870 C1872 1.327 . S
C1870 H1895 0.950 . S
C1871 C1870 1.349 . S
C1871 C1887 1.349 . S
C1872 C1870 1.327 . S
C1872 C1891 1.429 . S
C1872 H1896 0.950 . S
C1873 C1890 1.574 . S
C1873 C1892 1.368 . S
C1873 H1897 0.949 . S
H1874 C1878 0.949 . S
C1875 C1876 1.349 . S
C1875 C1877 1.327 . S
C1875 H1898 0.950 . S
C1876 C1875 1.349 . S
C1876 C1888 1.349 . S
C1877 C1875 1.327 . S
C1877 C1893 1.429 . S
C1877 H1899 0.950 . S
C1878 H1874 0.949 . S
C1878 C1886 1.574 . S
C1878 C1894 1.368 . S
H1879 C1887 0.950 . S
H1880 C1885 0.950 . S
H1881 C1886 0.949 . S
H1882 C1888 0.950 . S
H1883 C1889 0.950 . S
H1884 C1890 0.949 . S
C1885 H1880 0.950 . S
C1885 C1887 1.327 . S
C1885 C1891 1.429 . S
C1886 C1878 1.574 . S
C1886 H1881 0.949 . S
C1886 C1892 1.368 . S
C1887 C1871 1.349 . S
C1887 H1879 0.950 . S
C1887 C1885 1.327 . S
C1888 C1876 1.349 . S
C1888 H1882 0.950 . S
C1888 C1889 1.327 . S
C1889 H1883 0.950 . S
C1889 C1888 1.327 . S
C1889 C1893 1.429 . S
C1890 C1873 1.574 . S
C1890 H1884 0.949 . S
C1890 C1894 1.368 . S
C1891 C1872 1.429 . S
C1891 C1885 1.429 . S
C1891 C1892 1.523 . S
C1892 C1873 1.368 . S
C1892 C1886 1.368 . S
C1892 C1891 1.523 . S
C1893 C1877 1.429 . S
C1893 C1889 1.429 . S
C1893 C1894 1.523 . S
C1894 C1878 1.368 . S
C1894 C1890 1.368 . S
C1894 C1893 1.523 . S
H1895 C1870 0.950 . S
H1896 C1872 0.950 . S
H1897 C1873 0.949 . S
H1898 C1875 0.950 . S
H1899 C1877 0.950 . S
C1900 C1901 1.349 . S
C1900 C1902 1.327 . S
C1900 H1925 0.950 . S
C1901 C1900 1.349 . S
C1901 C1917 1.349 . S
C1902 C1900 1.327 . S
C1902 C1921 1.429 . S
C1902 H1926 0.950 . S
C1903 C1920 1.574 . S
C1903 C1922 1.368 . S
C1903 H1927 0.949 . S
H1904 C1908 0.949 . S
C1905 C1906 1.349 . S
C1905 C1907 1.327 . S
C1905 H1928 0.950 . S
C1906 C1905 1.349 . S
C1906 C1918 1.349 . S
C1907 C1905 1.327 . S
C1907 C1923 1.429 . S
C1907 H1929 0.950 . S
C1908 H1904 0.949 . S
C1908 C1916 1.574 . S
C1908 C1924 1.368 . S
H1909 C1917 0.950 . S
H1910 C1915 0.950 . S
H1911 C1916 0.949 . S
H1912 C1918 0.950 . S
H1913 C1919 0.950 . S
H1914 C1920 0.949 . S
C1915 H1910 0.950 . S
C1915 C1917 1.327 . S
C1915 C1921 1.429 . S
C1916 C1908 1.574 . S
C1916 H1911 0.949 . S
C1916 C1922 1.368 . S
C1917 C1901 1.349 . S
C1917 H1909 0.950 . S
C1917 C1915 1.327 . S
C1918 C1906 1.349 . S
C1918 H1912 0.950 . S
C1918 C1919 1.327 . S
C1919 H1913 0.950 . S
C1919 C1918 1.327 . S
C1919 C1923 1.429 . S
C1920 C1903 1.574 . S
C1920 H1914 0.949 . S
C1920 C1924 1.368 . S
C1921 C1902 1.429 . S
C1921 C1915 1.429 . S
C1921 C1922 1.523 . S
C1922 C1903 1.368 . S
C1922 C1916 1.368 . S
C1922 C1921 1.523 . S
C1923 C1907 1.429 . S
C1923 C1919 1.429 . S
C1923 C1924 1.523 . S
C1924 C1908 1.368 . S
C1924 C1920 1.368 . S
C1924 C1923 1.523 . S
H1925 C1900 0.950 . S
H1926 C1902 0.950 . S
H1927 C1903 0.949 . S
H1928 C1905 0.950 . S
H1929 C1907 0.950 . S
C1930 C1931 1.349 . S
C1930 C1932 1.327 . S
C1930 H1955 0.950 . S
C1931 C1930 1.349 . S
C1931 C1947 1.349 . S
C1932 C1930 1.327 . S
C1932 C1951 1.429 . S
C1932 H1956 0.950 . S
C1933 C1950 1.574 . S
C1933 C1952 1.368 . S
C1933 H1957 0.949 . S
H1934 C1938 0.949 . S
C1935 C1936 1.349 . S
C1935 C1937 1.327 . S
C1935 H1958 0.950 . S
C1936 C1935 1.349 . S
C1936 C1948 1.349 . S
C1937 C1935 1.327 . S
C1937 C1953 1.429 . S
C1937 H1959 0.950 . S
C1938 H1934 0.949 . S
C1938 C1946 1.574 . S
C1938 C1954 1.368 . S
H1939 C1947 0.950 . S
H1940 C1945 0.950 . S
H1941 C1946 0.949 . S
H1942 C1948 0.950 . S
H1943 C1949 0.950 . S
H1944 C1950 0.949 . S
C1945 H1940 0.950 . S
C1945 C1947 1.327 . S
C1945 C1951 1.429 . S
C1946 C1938 1.574 . S
C1946 H1941 0.949 . S
C1946 C1952 1.368 . S
C1947 C1931 1.349 . S
C1947 H1939 0.950 . S
C1947 C1945 1.327 . S
C1948 C1936 1.349 . S
C1948 H1942 0.950 . S
C1948 C1949 1.327 . S
C1949 H1943 0.950 . S
C1949 C1948 1.327 . S
C1949 C1953 1.429 . S
C1950 C1933 1.574 . S
C1950 H1944 0.949 . S
C1950 C1954 1.368 . S
C1951 C1932 1.429 . S
C1951 C1945 1.429 . S
C1951 C1952 1.523 . S
C1952 C1933 1.368 . S
C1952 C1946 1.368 . S
C1952 C1951 1.523 . S
C1953 C1937 1.429 . S
C1953 C1949 1.429 . S
C1953 C1954 1.523 . S
C1954 C1938 1.368 . S
C1954 C1950 1.368 . S
C1954 C1953 1.523 . S
H1955 C1930 0.950 . S
H1956 C1932 0.950 . S
H1957 C1933 0.949 . S
H1958 C1935 0.950 . S
H1959 C1937 0.950 . S
C1960 C1961 1.349 . S
C1960 C1962 1.327 . S
C1960 H1985 0.950 . S
C1961 C1960 1.349 . S
C1961 C1977 1.349 . S
C1962 C1960 1.327 . S
C1962 C1981 1.429 . S
C1962 H1986 0.950 . S
C1963 C1980 1.574 . S
C1963 C1982 1.368 . S
C1963 H1987 0.949 . S
H1964 C1968 0.949 . S
C1965 C1966 1.349 . S
C1965 C1967 1.327 . S
C1965 H1988 0.950 . S
C1966 C1965 1.349 . S
C1966 C1978 1.349 . S
C1967 C1965 1.327 . S
C1967 C1983 1.429 . S
C1967 H1989 0.950 . S
C1968 H1964 0.949 . S
C1968 C1976 1.574 . S
C1968 C1984 1.368 . S
H1969 C1977 0.950 . S
H1970 C1975 0.950 . S
H1971 C1976 0.949 . S
H1972 C1978 0.950 . S
H1973 C1979 0.950 . S
H1974 C1980 0.949 . S
C1975 H1970 0.950 . S
C1975 C1977 1.327 . S
C1975 C1981 1.429 . S
C1976 C1968 1.574 . S
C1976 H1971 0.949 . S
C1976 C1982 1.368 . S
C1977 C1961 1.349 . S
C1977 H1969 0.950 . S
C1977 C1975 1.327 . S
C1978 C1966 1.349 . S
C1978 H1972 0.950 . S
C1978 C1979 1.327 . S
C1979 H1973 0.950 . S
C1979 C1978 1.327 . S
C1979 C1983 1.429 . S
C1980 C1963 1.574 . S
C1980 H1974 0.949 . S
C1980 C1984 1.368 . S
C1981 C1962 1.429 . S
C1981 C1975 1.429 . S
C1981 C1982 1.523 . S
C1982 C1963 1.368 . S
C1982 C1976 1.368 . S
C1982 C1981 1.523 . S
C1983 C1967 1.429 . S
C1983 C1979 1.429 . S
C1983 C1984 1.523 . S
C1984 C1968 1.368 . S
C1984 C1980 1.368 . S
C1984 C1983 1.523 . S
H1985 C1960 0.950 . S
H1986 C1962 0.950 . S
H1987 C1963 0.949 . S
H1988 C1965 0.950 . S
H1989 C1967 0.950 . S
C1990 C1991 1.349 . S
C1990 C1992 1.327 . S
C1990 H2015 0.950 . S
C1991 C1990 1.349 . S
C1991 C2007 1.349 . S
C1992 C1990 1.327 . S
C1992 C2011 1.429 . S
C1992 H2016 0.950 . S
C1993 C2010 1.574 . S
C1993 C2012 1.368 . S
C1993 H2017 0.949 . S
H1994 C1998 0.949 . S
C1995 C1996 1.349 . S
C1995 C1997 1.327 . S
C1995 H2018 0.950 . S
C1996 C1995 1.349 . S
C1996 C2008 1.349 . S
C1997 C1995 1.327 . S
C1997 C2013 1.429 . S
C1997 H2019 0.950 . S
C1998 H1994 0.949 . S
C1998 C2006 1.574 . S
C1998 C2014 1.368 . S
H1999 C2007 0.950 . S
H2000 C2005 0.950 . S
H2001 C2006 0.949 . S
H2002 C2008 0.950 . S
H2003 C2009 0.950 . S
H2004 C2010 0.949 . S
C2005 H2000 0.950 . S
C2005 C2007 1.327 . S
C2005 C2011 1.429 . S
C2006 C1998 1.574 . S
C2006 H2001 0.949 . S
C2006 C2012 1.368 . S
C2007 C1991 1.349 . S
C2007 H1999 0.950 . S
C2007 C2005 1.327 . S
C2008 C1996 1.349 . S
C2008 H2002 0.950 . S
C2008 C2009 1.327 . S
C2009 H2003 0.950 . S
C2009 C2008 1.327 . S
C2009 C2013 1.429 . S
C2010 C1993 1.574 . S
C2010 H2004 0.949 . S
C2010 C2014 1.368 . S
C2011 C1992 1.429 . S
C2011 C2005 1.429 . S
C2011 C2012 1.523 . S
C2012 C1993 1.368 . S
C2012 C2006 1.368 . S
C2012 C2011 1.523 . S
C2013 C1997 1.429 . S
C2013 C2009 1.429 . S
C2013 C2014 1.523 . S
C2014 C1998 1.368 . S
C2014 C2010 1.368 . S
C2014 C2013 1.523 . S
H2015 C1990 0.950 . S
H2016 C1992 0.950 . S
H2017 C1993 0.949 . S
H2018 C1995 0.950 . S
H2019 C1997 0.950 . S
C2020 C2021 1.349 . S
C2020 C2022 1.327 . S
C2020 H2045 0.950 . S
C2021 C2020 1.349 . S
C2021 C2037 1.349 . S
C2022 C2020 1.327 . S
C2022 C2041 1.429 . S
C2022 H2046 0.950 . S
C2023 C2040 1.574 . S
C2023 C2042 1.368 . S
C2023 H2047 0.949 . S
H2024 C2028 0.949 . S
C2025 C2026 1.349 . S
C2025 C2027 1.327 . S
C2025 H2048 0.950 . S
C2026 C2025 1.349 . S
C2026 C2038 1.349 . S
C2027 C2025 1.327 . S
C2027 C2043 1.429 . S
C2027 H2049 0.950 . S
C2028 H2024 0.949 . S
C2028 C2036 1.574 . S
C2028 C2044 1.368 . S
H2029 C2037 0.950 . S
H2030 C2035 0.950 . S
H2031 C2036 0.949 . S
H2032 C2038 0.950 . S
H2033 C2039 0.950 . S
H2034 C2040 0.949 . S
C2035 H2030 0.950 . S
C2035 C2037 1.327 . S
C2035 C2041 1.429 . S
C2036 C2028 1.574 . S
C2036 H2031 0.949 . S
C2036 C2042 1.368 . S
C2037 C2021 1.349 . S
C2037 H2029 0.950 . S
C2037 C2035 1.327 . S
C2038 C2026 1.349 . S
C2038 H2032 0.950 . S
C2038 C2039 1.327 . S
C2039 H2033 0.950 . S
C2039 C2038 1.327 . S
C2039 C2043 1.429 . S
C2040 C2023 1.574 . S
C2040 H2034 0.949 . S
C2040 C2044 1.368 . S
C2041 C2022 1.429 . S
C2041 C2035 1.429 . S
C2041 C2042 1.523 . S
C2042 C2023 1.368 . S
C2042 C2036 1.368 . S
C2042 C2041 1.523 . S
C2043 C2027 1.429 . S
C2043 C2039 1.429 . S
C2043 C2044 1.523 . S
C2044 C2028 1.368 . S
C2044 C2040 1.368 . S
C2044 C2043 1.523 . S
H2045 C2020 0.950 . S
H2046 C2022 0.950 . S
H2047 C2023 0.949 . S
H2048 C2025 0.950 . S
H2049 C2027 0.950 . S
C2050 C2051 1.349 . S
C2050 C2052 1.327 . S
C2050 H2075 0.950 . S
C2051 C2050 1.349 . S
C2051 C2067 1.349 . S
C2052 C2050 1.327 . S
C2052 C2071 1.429 . S
C2052 H2076 0.950 . S
C2053 C2070 1.574 . S
C2053 C2072 1.368 . S
C2053 H2077 0.949 . S
H2054 C2058 0.949 . S
C2055 C2056 1.349 . S
C2055 C2057 1.327 . S
C2055 H2078 0.950 . S
C2056 C2055 1.349 . S
C2056 C2068 1.349 . S
C2057 C2055 1.327 . S
C2057 C2073 1.429 . S
C2057 H2079 0.950 . S
C2058 H2054 0.949 . S
C2058 C2066 1.574 . S
C2058 C2074 1.368 . S
H2059 C2067 0.950 . S
H2060 C2065 0.950 . S
H2061 C2066 0.949 . S
H2062 C2068 0.950 . S
H2063 C2069 0.950 . S
H2064 C2070 0.949 . S
C2065 H2060 0.950 . S
C2065 C2067 1.327 . S
C2065 C2071 1.429 . S
C2066 C2058 1.574 . S
C2066 H2061 0.949 . S
C2066 C2072 1.368 . S
C2067 C2051 1.349 . S
C2067 H2059 0.950 . S
C2067 C2065 1.327 . S
C2068 C2056 1.349 . S
C2068 H2062 0.950 . S
C2068 C2069 1.327 . S
C2069 H2063 0.950 . S
C2069 C2068 1.327 . S
C2069 C2073 1.429 . S
C2070 C2053 1.574 . S
C2070 H2064 0.949 . S
C2070 C2074 1.368 . S
C2071 C2052 1.429 . S
C2071 C2065 1.429 . S
C2071 C2072 1.523 . S
C2072 C2053 1.368 . S
C2072 C2066 1.368 . S
C2072 C2071 1.523 . S
C2073 C2057 1.429 . S
C2073 C2069 1.429 . S
C2073 C2074 1.523 . S
C2074 C2058 1.368 . S
C2074 C2070 1.368 . S
C2074 C2073 1.523 . S
H2075 C2050 0.950 . S
H2076 C2052 0.950 . S
H2077 C2053 0.949 . S
H2078 C2055 0.950 . S
H2079 C2057 0.950 . S
C641 C139 1.725 . S
C646 C18 1.737 . S
C671 C10 1.102 . S
C676 C55 1.093 . S
C701 C89 0.590 . S
C706 C58 0.604 . S
C731 C126 1.447 . S
C736 C86 1.452 . S
C761 C166 1.151 . S
C766 C210 1.148 . S
C791 C218 0.611 . S
C796 C258 0.612 . S
C821 C255 1.278 . S
C826 C286 1.268 . S
C851 C179 1.750 . S
C856 C289 1.783 . S
C881 C375 1.272 . S
C886 C15 1.265 . S
C911 C410 1.634 . S
C916 C50 1.619 . S
C941 C99 3.896 . S
C946 C539 3.883 . S
C971 C329 0.609 . S
C976 C129 0.591 . S
C1001 C449 0.592 . S
C1006 C169 0.609 . S
C1031 C575 1.265 . S
C1036 C215 1.272 . S
C1061 C250 1.635 . S
C1066 C490 1.619 . S
C1091 C619 3.896 . S
C1096 C299 3.882 . S
C1121 C339 1.750 . S
C1126 C529 1.783 . S
C1151 C370 1.148 . S
C1156 C326 1.151 . S
C1181 C418 0.612 . S
C1186 C378 0.611 . S
C1211 C578 1.737 . S
C1216 C459 1.725 . S
C1241 C498 0.604 . S
C1246 C609 0.590 . S
C1271 C450 1.724 . S
C1276 C9 1.736 . S
C1301 C486 1.094 . S
C1306 C19 1.102 . S
C1331 C489 0.604 . S
C1336 C98 0.590 . S
C1361 C95 1.452 . S
C1366 C455 1.447 . S
C1391 C379 1.147 . S
C1396 C175 1.151 . S
C1421 C369 0.611 . S
C1426 C249 0.612 . S
C1451 C535 1.268 . S
C1456 C246 1.278 . S
C1481 C170 1.750 . S
C1486 C538 1.783 . S
C1511 C206 1.273 . S
C1516 C6 1.266 . S
C1541 C419 1.634 . S
C1546 C499 1.619 . S
C1571 C90 3.896 . S
C1576 C290 3.882 . S
C1601 C338 0.609 . S
C1606 C458 0.592 . S
C1631 C138 0.591 . S
C1636 C178 0.609 . S
C1661 C366 1.273 . S
C1666 C566 1.265 . S
C1691 C259 1.634 . S
C1696 C59 1.619 . S
C1721 C610 3.896 . S
C1726 C530 3.882 . S
C1751 C330 1.750 . S
C1756 C298 1.783 . S
C1781 C335 1.151 . S
C1786 C219 1.148 . S
C1811 C409 0.612 . S
C1816 C209 0.611 . S
C1841 C130 1.725 . S
C1846 C569 1.737 . S
C1871 C49 0.604 . S
C1876 C618 0.590 . S
C1901 C495 1.094 . S
C1906 C570 1.102 . S
C1931 C446 1.447 . S
C1936 C606 1.452 . S
C1961 C415 1.278 . S
C1966 C526 1.268 . S
C1991 C579 1.102 . S
C1996 C46 1.093 . S
C2021 C135 1.447 . S
C2026 C615 1.452 . S
C2051 C295 1.268 . S
C2056 C406 1.278 . S
